# Generated by pormake.
# Topology yfa, (5)-cn, num edge types: 1
# Building blocks:
#     Node 0, Type 0, BuildingBlock: BEQFEK_clean_sbu_0, # of connection points: 5
#     Node 1, Type 0, BuildingBlock: BEQFEK_clean_sbu_0, # of connection points: 5
#     Node 2, Type 0, BuildingBlock: BEQFEK_clean_sbu_0, # of connection points: 5
#     Node 3, Type 0, BuildingBlock: BEQFEK_clean_sbu_0, # of connection points: 5
#     Node 4, Type 0, BuildingBlock: BEQFEK_clean_sbu_0, # of connection points: 5
#     Node 5, Type 0, BuildingBlock: BEQFEK_clean_sbu_0, # of connection points: 5
#     Node 6, Type 0, BuildingBlock: BEQFEK_clean_sbu_0, # of connection points: 5
#     Node 7, Type 0, BuildingBlock: BEQFEK_clean_sbu_0, # of connection points: 5
#     Node 8, Type 0, BuildingBlock: BEQFEK_clean_sbu_0, # of connection points: 5
#     Node 9, Type 0, BuildingBlock: BEQFEK_clean_sbu_0, # of connection points: 5
#     Node 10, Type 0, BuildingBlock: BEQFEK_clean_sbu_0, # of connection points: 5
#     Node 11, Type 0, BuildingBlock: BEQFEK_clean_sbu_0, # of connection points: 5
#     Node 12, Type 0, BuildingBlock: BEQFEK_clean_sbu_0, # of connection points: 5
#     Node 13, Type 0, BuildingBlock: BEQFEK_clean_sbu_0, # of connection points: 5
#     Node 14, Type 0, BuildingBlock: BEQFEK_clean_sbu_0, # of connection points: 5
#     Node 15, Type 0, BuildingBlock: BEQFEK_clean_sbu_0, # of connection points: 5
#     Edge 16, Type (0, 0), BuildingBlock: UVAHIK_clean_linker_0, # of connection points: 2
#     Edge 17, Type (0, 0), BuildingBlock: UVAHIK_clean_linker_0, # of connection points: 2
#     Edge 18, Type (0, 0), BuildingBlock: UVAHIK_clean_linker_0, # of connection points: 2
#     Edge 19, Type (0, 0), BuildingBlock: UVAHIK_clean_linker_0, # of connection points: 2
#     Edge 20, Type (0, 0), BuildingBlock: UVAHIK_clean_linker_0, # of connection points: 2
#     Edge 21, Type (0, 0), BuildingBlock: UVAHIK_clean_linker_0, # of connection points: 2
#     Edge 22, Type (0, 0), BuildingBlock: UVAHIK_clean_linker_0, # of connection points: 2
#     Edge 23, Type (0, 0), BuildingBlock: UVAHIK_clean_linker_0, # of connection points: 2
#     Edge 24, Type (0, 0), BuildingBlock: UVAHIK_clean_linker_0, # of connection points: 2
#     Edge 25, Type (0, 0), BuildingBlock: UVAHIK_clean_linker_0, # of connection points: 2
#     Edge 26, Type (0, 0), BuildingBlock: UVAHIK_clean_linker_0, # of connection points: 2
#     Edge 27, Type (0, 0), BuildingBlock: UVAHIK_clean_linker_0, # of connection points: 2
#     Edge 28, Type (0, 0), BuildingBlock: UVAHIK_clean_linker_0, # of connection points: 2
#     Edge 29, Type (0, 0), BuildingBlock: UVAHIK_clean_linker_0, # of connection points: 2
#     Edge 30, Type (0, 0), BuildingBlock: UVAHIK_clean_linker_0, # of connection points: 2
#     Edge 31, Type (0, 0), BuildingBlock: UVAHIK_clean_linker_0, # of connection points: 2
#     Edge 32, Type (0, 0), BuildingBlock: UVAHIK_clean_linker_0, # of connection points: 2
#     Edge 33, Type (0, 0), BuildingBlock: UVAHIK_clean_linker_0, # of connection points: 2
#     Edge 34, Type (0, 0), BuildingBlock: UVAHIK_clean_linker_0, # of connection points: 2
#     Edge 35, Type (0, 0), BuildingBlock: UVAHIK_clean_linker_0, # of connection points: 2
#     Edge 36, Type (0, 0), BuildingBlock: UVAHIK_clean_linker_0, # of connection points: 2
#     Edge 37, Type (0, 0), BuildingBlock: UVAHIK_clean_linker_0, # of connection points: 2
#     Edge 38, Type (0, 0), BuildingBlock: UVAHIK_clean_linker_0, # of connection points: 2
#     Edge 39, Type (0, 0), BuildingBlock: UVAHIK_clean_linker_0, # of connection points: 2
#     Edge 40, Type (0, 0), BuildingBlock: UVAHIK_clean_linker_0, # of connection points: 2
#     Edge 41, Type (0, 0), BuildingBlock: UVAHIK_clean_linker_0, # of connection points: 2
#     Edge 42, Type (0, 0), BuildingBlock: UVAHIK_clean_linker_0, # of connection points: 2
#     Edge 43, Type (0, 0), BuildingBlock: UVAHIK_clean_linker_0, # of connection points: 2
#     Edge 44, Type (0, 0), BuildingBlock: UVAHIK_clean_linker_0, # of connection points: 2
#     Edge 45, Type (0, 0), BuildingBlock: UVAHIK_clean_linker_0, # of connection points: 2
#     Edge 46, Type (0, 0), BuildingBlock: UVAHIK_clean_linker_0, # of connection points: 2
#     Edge 47, Type (0, 0), BuildingBlock: UVAHIK_clean_linker_0, # of connection points: 2
#     Edge 48, Type (0, 0), BuildingBlock: UVAHIK_clean_linker_0, # of connection points: 2
#     Edge 49, Type (0, 0), BuildingBlock: UVAHIK_clean_linker_0, # of connection points: 2
#     Edge 50, Type (0, 0), BuildingBlock: UVAHIK_clean_linker_0, # of connection points: 2
#     Edge 51, Type (0, 0), BuildingBlock: UVAHIK_clean_linker_0, # of connection points: 2
#     Edge 52, Type (0, 0), BuildingBlock: UVAHIK_clean_linker_0, # of connection points: 2
#     Edge 53, Type (0, 0), BuildingBlock: UVAHIK_clean_linker_0, # of connection points: 2
#     Edge 54, Type (0, 0), BuildingBlock: UVAHIK_clean_linker_0, # of connection points: 2
#     Edge 55, Type (0, 0), BuildingBlock: UVAHIK_clean_linker_0, # of connection points: 2
# Relax obj value: 0.768
# Max RMSD: 0.298
# Mean RMSD: 0.298
data_MOF--net-yfa--node1-BEQFEK_clean_sbu_0--edge1-UVAHIK_clean_linker_0
_symmetry_space_group_name_H-M    P1
_symmetry_Int_Tables_number       1
_symmetry_cell_setting            triclinic
loop_
_symmetry_equiv_pos_as_xyz
'x, y, z'
_cell_length_a     63.221456
_cell_length_b     63.215689
_cell_length_c     37.389758
_cell_angle_alpha  90.042938
_cell_angle_beta   89.953029
_cell_angle_gamma 90.00552
loop_
_atom_site_label
_atom_site_type_symbol
_atom_site_fract_x
_atom_site_fract_y
_atom_site_fract_z
_atom_type_partial_charge
Co0 Co 0.63908 0.03424 0.10537 0.0
Co1 Co 0.65043 0.07145 0.05398 0.0
C2 C 0.68329 0.04623 0.09462 0.0
O3 O 0.66964 0.03335 0.10657 0.0
O4 O 0.67797 0.06176 0.07488 0.0
C5 C 0.63682 0.99244 0.13592 0.0
O6 O 0.65287 0.98811 0.11481 0.0
C7 C 0.66484 0.08227 0.98312 0.0
C8 C 0.65428 0.11529 0.97655 0.0
C9 C 0.66308 0.09838 0.95805 0.0
N10 N 0.65686 0.08911 0.01431 0.0
N11 N 0.65104 0.10905 0.01055 0.0
C12 C 0.67344 0.06041 0.97784 0.0
H13 H 0.68163 0.05509 0.00247 0.0
H14 H 0.66023 0.04925 0.97287 0.0
H15 H 0.68456 0.0599 0.95487 0.0
C16 C 0.6129 0.02104 0.04546 0.0
N17 N 0.62868 0.03291 0.05872 0.0
N18 N 0.63189 0.04934 0.03789 0.0
C19 C 0.61748 0.04885 0.01124 0.0
C20 C 0.60518 0.03073 0.01489 0.0
C21 C 0.6025 0.0035 0.0659 0.0
H22 H 0.6144 0.99116 0.07201 0.0
H23 H 0.58932 0.99612 0.05086 0.0
H24 H 0.59625 0.00978 0.09152 0.0
O25 O 0.6292 0.06079 0.1283 0.0
O26 O 0.6359 0.08779 0.09191 0.0
H27 H 0.61475 0.08218 0.00121 0.0
H28 H 0.59722 0.06597 0.97441 0.0
C29 C 0.61318 0.06701 0.98656 0.0
H30 H 0.62487 0.0668 0.96453 0.0
H31 H 0.64373 0.11797 0.03056 0.0
O32 O 0.6286 0.01078 0.13524 0.0
C33 C 0.62847 0.0805 0.12112 0.0
Co34 Co 0.45183 0.63285 0.12099 0.0
Co35 Co 0.4188 0.64545 0.06253 0.0
C36 C 0.44514 0.67766 0.10096 0.0
O37 O 0.45461 0.66329 0.1183 0.0
O38 O 0.43067 0.67327 0.07849 0.0
C39 C 0.49268 0.63071 0.1532 0.0
O40 O 0.49743 0.64535 0.12959 0.0
C41 C 0.40777 0.65764 0.98949 0.0
C42 C 0.37342 0.6514 0.98825 0.0
C43 C 0.3902 0.658 0.967 0.0
N44 N 0.40155 0.65095 0.02194 0.0
N45 N 0.38096 0.64757 0.02122 0.0
C46 C 0.4304 0.66212 0.98038 0.0
H47 H 0.44104 0.65647 0.00191 0.0
H48 H 0.43475 0.65445 0.9547 0.0
H49 H 0.43262 0.67945 0.97761 0.0
C50 C 0.46622 0.60389 0.06539 0.0
N51 N 0.45432 0.62038 0.07581 0.0
N52 N 0.43968 0.62421 0.05167 0.0
C53 C 0.44138 0.6095 0.02553 0.0
C54 C 0.45856 0.5965 0.03306 0.0
C55 C 0.48212 0.59318 0.08894 0.0
H56 H 0.47474 0.58935 0.11506 0.0
H57 H 0.49554 0.6041 0.09374 0.0
H58 H 0.48835 0.5784 0.07697 0.0
O59 O 0.42409 0.62544 0.14225 0.0
O60 O 0.40031 0.63516 0.10159 0.0
H61 H 0.40931 0.61007 0.00653 0.0
H62 H 0.4256 0.58956 0.9868 0.0
C63 C 0.42537 0.60613 0.99662 0.0
H64 H 0.42913 0.6166 0.97373 0.0
H65 H 0.37217 0.64208 0.04293 0.0
O66 O 0.47412 0.62301 0.15379 0.0
C67 C 0.40496 0.62738 0.132 0.0
Co68 Co 0.85592 0.46449 0.10873 0.0
Co69 Co 0.84378 0.42581 0.06087 0.0
C70 C 0.81179 0.45085 0.1042 0.0
O71 O 0.82549 0.46433 0.11394 0.0
O72 O 0.81672 0.4352 0.08431 0.0
C73 C 0.85741 0.50308 0.15129 0.0
O74 O 0.83673 0.50164 0.15358 0.0
C75 C 0.82763 0.41198 0.99246 0.0
C76 C 0.84143 0.38011 0.98682 0.0
C77 C 0.83052 0.39559 0.96795 0.0
N78 N 0.8371 0.40666 0.02329 0.0
N79 N 0.84484 0.38737 0.02015 0.0
C80 C 0.81666 0.43273 0.98725 0.0
H81 H 0.80993 0.4383 0.01299 0.0
H82 H 0.82828 0.44477 0.97828 0.0
H83 H 0.80383 0.4313 0.96715 0.0
C84 C 0.8786 0.47744 0.04498 0.0
N85 N 0.864 0.46511 0.06072 0.0
N86 N 0.86082 0.4481 0.04128 0.0
C87 C 0.87424 0.44864 0.01313 0.0
C88 C 0.8859 0.46732 0.01447 0.0
C89 C 0.88859 0.4961 0.06302 0.0
H90 H 0.87611 0.50643 0.07438 0.0
H91 H 0.89835 0.50555 0.0443 0.0
H92 H 0.89883 0.49045 0.08513 0.0
O93 O 0.86751 0.43888 0.13236 0.0
O94 O 0.86009 0.41099 0.09833 0.0
H95 H 0.87855 0.41533 0.00463 0.0
H96 H 0.89356 0.43191 0.97432 0.0
C97 C 0.87839 0.4302 0.98894 0.0
H98 H 0.86558 0.42919 0.96881 0.0
H99 H 0.85364 0.37974 0.03991 0.0
O100 O 0.86775 0.4891 0.13422 0.0
C101 C 0.86838 0.41903 0.12627 0.0
Co102 Co 0.0452 0.86682 0.11545 0.0
Co103 Co 0.07985 0.85035 0.06244 0.0
C104 C 0.0515 0.82101 0.10356 0.0
O105 O 0.04168 0.8364 0.11759 0.0
O106 O 0.0667 0.82397 0.08179 0.0
C107 C 0.00357 0.87142 0.14389 0.0
O108 O -0.00062 0.8554 0.12265 0.0
C109 C 0.09169 0.83423 0.99223 0.0
C110 C 0.12623 0.83933 0.99142 0.0
C111 C 0.10947 0.83248 0.97037 0.0
N112 N 0.09776 0.842 0.02406 0.0
N113 N 0.11847 0.84462 0.02371 0.0
C114 C 0.06902 0.83032 0.98276 0.0
H115 H 0.05833 0.83673 0.00365 0.0
H116 H 0.06517 0.83758 0.95655 0.0
H117 H 0.06625 0.81303 0.98087 0.0
C118 C 0.0337 0.89298 0.05454 0.0
N119 N 0.04456 0.87667 0.06834 0.0
N120 N 0.06001 0.87135 0.04653 0.0
C121 C 0.05993 0.88488 0.01853 0.0
C122 C 0.04296 0.89869 0.02239 0.0
C123 C 0.01752 0.90534 0.07512 0.0
H124 H 0.02439 0.91054 0.10095 0.0
H125 H 0.00375 0.89502 0.08081 0.0
H126 H 0.01191 0.91949 0.06045 0.0
O127 O 0.07252 0.87463 0.13792 0.0
O128 O 0.09743 0.8624 0.1012 0.0
H129 H 0.09277 0.88271 0.00403 0.0
H130 H 0.07808 0.90265 0.97968 0.0
C131 C 0.07735 0.88658 0.99153 0.0
H132 H 0.07438 0.87521 0.96954 0.0
H133 H 0.12717 0.85078 0.04501 0.0
O134 O 0.02217 0.87905 0.14452 0.0
C135 C 0.09193 0.87182 0.12987 0.0
Co136 Co 0.63971 0.46054 0.38065 0.0
Co137 Co 0.64767 0.42388 0.4344 0.0
C138 C 0.6827 0.45062 0.40133 0.0
O139 O 0.66983 0.46359 0.38742 0.0
O140 O 0.67618 0.43459 0.41881 0.0
C141 C 0.63679 0.50219 0.34917 0.0
O142 O 0.65072 0.50792 0.37337 0.0
C143 C 0.65817 0.41315 0.50744 0.0
C144 C 0.65227 0.37876 0.50996 0.0
C145 C 0.6582 0.39602 0.53055 0.0
N146 N 0.65219 0.40642 0.47495 0.0
N147 N 0.64892 0.38579 0.47643 0.0
C148 C 0.66432 0.43553 0.5155 0.0
H149 H 0.6707 0.44326 0.49113 0.0
H150 H 0.6502 0.44458 0.52416 0.0
H151 H 0.67623 0.43608 0.53728 0.0
C152 C 0.60856 0.47318 0.4344 0.0
N153 N 0.62514 0.46132 0.42418 0.0
N154 N 0.62727 0.44521 0.44607 0.0
C155 C 0.61138 0.44584 0.47024 0.0
C156 C 0.59929 0.46384 0.46402 0.0
C157 C 0.59954 0.49081 0.4124 0.0
H158 H 0.59579 0.48487 0.38522 0.0
H159 H 0.61146 0.50358 0.40997 0.0
H160 H 0.58495 0.49754 0.42427 0.0
O161 O 0.63411 0.4334 0.35543 0.0
O162 O 0.63691 0.40684 0.3941 0.0
H163 H 0.60985 0.41267 0.48257 0.0
H164 H 0.58908 0.42838 0.50289 0.0
C165 C 0.60602 0.42809 0.49518 0.0
H166 H 0.61551 0.42967 0.51994 0.0
H167 H 0.64394 0.37662 0.45478 0.0
O168 O 0.63027 0.48319 0.34832 0.0
C169 C 0.63302 0.41372 0.36276 0.0
Co170 Co 0.03759 0.63843 0.37733 0.0
Co171 Co 0.07149 0.65322 0.43284 0.0
C172 C 0.04496 0.68386 0.39096 0.0
O173 O 0.03481 0.66896 0.37616 0.0
O174 O 0.05974 0.68016 0.4132 0.0
C175 C 0.99655 0.63499 0.34659 0.0
O176 O 0.99219 0.65057 0.36868 0.0
C177 C 0.08016 0.66756 0.50476 0.0
C178 C 0.11373 0.65915 0.51231 0.0
C179 C 0.09605 0.66663 0.53038 0.0
N180 N 0.08792 0.66034 0.47365 0.0
N181 N 0.10815 0.65584 0.47801 0.0
C182 C 0.05777 0.6748 0.50938 0.0
H183 H 0.05242 0.68317 0.48495 0.0
H184 H 0.04729 0.6609 0.51302 0.0
H185 H 0.05622 0.68542 0.53289 0.0
C186 C 0.02449 0.61119 0.43598 0.0
N187 N 0.03558 0.62784 0.42383 0.0
N188 N 0.05078 0.63248 0.44652 0.0
C189 C 0.05032 0.61816 0.47335 0.0
C190 C 0.03338 0.6045 0.46786 0.0
C191 C 0.00864 0.59937 0.41386 0.0
H192 H 0.01603 0.59451 0.38823 0.0
H193 H 0.99512 0.60993 0.40783 0.0
H194 H 0.00257 0.58507 0.4276 0.0
O195 O 0.06533 0.63021 0.35659 0.0
O196 O 0.08988 0.64109 0.39521 0.0
H197 H 0.0832 0.61843 0.48777 0.0
H198 H 0.06748 0.59935 0.51221 0.0
C199 C 0.0676 0.61541 0.50033 0.0
H200 H 0.0653 0.62689 0.52234 0.0
H201 H 0.11781 0.64936 0.45815 0.0
O202 O 0.01506 0.62714 0.34629 0.0
C203 C 0.08464 0.63222 0.3659 0.0
Co204 Co 0.85593 0.03599 0.38706 0.0
Co205 Co 0.84307 0.073 0.43807 0.0
C206 C 0.81151 0.04765 0.39407 0.0
O207 O 0.82551 0.03495 0.38266 0.0
O208 O 0.81621 0.063 0.41476 0.0
C209 C 0.85928 -0.00162 0.34208 0.0
O210 O 0.83852 -0.00181 0.34116 0.0
C211 C 0.82734 0.08307 0.50846 0.0
C212 C 0.8375 0.11612 0.51642 0.0
C213 C 0.82866 0.09894 0.53411 0.0
N214 N 0.83561 0.09031 0.47776 0.0
N215 N 0.84119 0.11026 0.48233 0.0
C216 C 0.81888 0.06109 0.51273 0.0
H217 H 0.81126 0.05587 0.4875 0.0
H218 H 0.8321 0.05003 0.51824 0.0
H219 H 0.80731 0.0603 0.53503 0.0
C220 C 0.87893 0.02171 0.44955 0.0
N221 N 0.86425 0.0343 0.43477 0.0
N222 N 0.86115 0.05091 0.45521 0.0
C223 C 0.87486 0.04999 0.48286 0.0
C224 C 0.88641 0.03129 0.4804 0.0
C225 C 0.88872 0.00328 0.43051 0.0
H226 H 0.89938 0.00922 0.40918 0.0
H227 H 0.87616 0.99351 0.41804 0.0
H228 H 0.89803 0.99318 0.44888 0.0
O229 O 0.86636 0.06278 0.36561 0.0
O230 O 0.85847 0.08965 0.40163 0.0
H231 H 0.87768 0.08332 0.49315 0.0
H232 H 0.89524 0.06696 0.51966 0.0
C233 C 0.87926 0.06809 0.50763 0.0
H234 H 0.8676 0.06785 0.52974 0.0
H235 H 0.8487 0.11943 0.46291 0.0
O236 O 0.86885 0.01282 0.35931 0.0
C237 C 0.86677 0.08248 0.373 0.0
Co238 Co 0.46767 0.85707 0.3865 0.0
Co239 Co 0.43035 0.84317 0.43643 0.0
C240 C 0.45511 0.81217 0.3918 0.0
O241 O 0.46736 0.82658 0.38045 0.0
O242 O 0.44013 0.81625 0.41356 0.0
C243 C 0.5052 0.85815 0.34162 0.0
O244 O 0.50295 0.83756 0.33891 0.0
C245 C 0.41669 0.82674 0.50512 0.0
C246 C 0.38436 0.83958 0.50996 0.0
C247 C 0.39989 0.82889 0.52906 0.0
N248 N 0.41147 0.83634 0.47434 0.0
N249 N 0.39194 0.84353 0.47703 0.0
C250 C 0.43761 0.81619 0.51074 0.0
H251 H 0.44384 0.81019 0.48492 0.0
H252 H 0.44916 0.8279 0.52112 0.0
H253 H 0.43615 0.8029 0.52995 0.0
C254 C 0.4808 0.88004 0.44958 0.0
N255 N 0.46895 0.86476 0.4347 0.0
N256 N 0.45243 0.8609 0.455 0.0
C257 C 0.45279 0.87449 0.48292 0.0
C258 C 0.47082 0.88708 0.48043 0.0
C259 C 0.49848 0.89093 0.43022 0.0
H260 H 0.50938 0.87894 0.41883 0.0
H261 H 0.50764 0.90152 0.44802 0.0
H262 H 0.49184 0.90046 0.40798 0.0
O263 O 0.44168 0.86906 0.36468 0.0
O264 O 0.41475 0.85873 0.39896 0.0
H265 H 0.41951 0.87811 0.49245 0.0
H266 H 0.43612 0.89296 0.52298 0.0
C267 C 0.43453 0.87798 0.50778 0.0
H268 H 0.43388 0.86485 0.52735 0.0
H269 H 0.38425 0.85218 0.45714 0.0
O270 O 0.49203 0.8688 0.35996 0.0
C271 C 0.42194 0.86845 0.3717 0.0
Co272 Co 0.35317 0.96011 0.87806 0.0
Co273 Co 0.34531 0.92365 0.93265 0.0
C274 C 0.30997 0.94827 0.89711 0.0
O275 O 0.32269 0.96104 0.88222 0.0
O276 O 0.31663 0.93303 0.91632 0.0
C277 C 0.35465 0.00171 0.84574 0.0
O278 O 0.34049 0.00717 0.86977 0.0
C279 C 0.33511 0.91392 0.00606 0.0
C280 C 0.34521 0.8807 0.01193 0.0
C281 C 0.33775 0.89796 0.03113 0.0
N282 N 0.34128 0.90663 0.97399 0.0
N283 N 0.34686 0.88661 0.97742 0.0
C284 C 0.32718 0.93596 0.0121 0.0
H285 H 0.3181 0.94139 0.98844 0.0
H286 H 0.34076 0.94687 0.01548 0.0
H287 H 0.31706 0.93675 0.03635 0.0
C288 C 0.38271 0.97442 0.93287 0.0
N289 N 0.36644 0.96216 0.92256 0.0
N290 N 0.36459 0.94603 0.94452 0.0
C291 C 0.38035 0.9471 0.96882 0.0
C292 C 0.39209 0.96533 0.96259 0.0
C293 C 0.39168 0.9919 0.91045 0.0
H294 H 0.39608 0.9856 0.88377 0.0
H295 H 0.3795 0.0043 0.90679 0.0
H296 H 0.40586 -0.00079 0.92274 0.0
O297 O 0.36177 0.93325 0.85477 0.0
O298 O 0.35761 0.90673 0.89319 0.0
H299 H 0.38357 0.91396 0.98033 0.0
H300 H 0.40284 0.93058 0.00259 0.0
C301 C 0.38617 0.92943 0.99363 0.0
H302 H 0.37602 0.9302 0.01773 0.0
H303 H 0.35282 0.87732 0.95661 0.0
O304 O 0.3619 0.98297 0.84547 0.0
C305 C 0.36317 0.91366 0.86257 0.0
Co306 Co 0.54003 0.35921 0.88463 0.0
Co307 Co 0.57481 0.34313 0.93719 0.0
C308 C 0.54806 0.31368 0.89236 0.0
O309 O 0.5373 0.32886 0.87972 0.0
O310 O 0.56306 0.31685 0.91449 0.0
C311 C 0.49984 0.36484 0.84893 0.0
O312 O 0.49487 0.34616 0.86182 0.0
C313 C 0.58595 0.32672 0.00743 0.0
C314 C 0.62023 0.33321 0.01008 0.0
C315 C 0.60332 0.32577 0.03013 0.0
N316 N 0.59228 0.33478 0.97597 0.0
N317 N 0.61286 0.33826 0.97744 0.0
C318 C 0.56375 0.31969 0.01475 0.0
H319 H 0.55415 0.33331 0.02394 0.0
H320 H 0.56345 0.30726 0.0357 0.0
H321 H 0.55642 0.31362 0.98981 0.0
C322 C 0.52634 0.38294 0.94707 0.0
N323 N 0.53824 0.36761 0.93245 0.0
N324 N 0.55395 0.36288 0.95399 0.0
C325 C 0.55317 0.3761 0.98243 0.0
C326 C 0.53535 0.38891 0.97928 0.0
C327 C 0.50922 0.39439 0.92727 0.0
H328 H 0.51619 0.40272 0.90397 0.0
H329 H 0.49748 0.38278 0.91731 0.0
H330 H 0.50095 0.40614 0.94427 0.0
O331 O 0.56746 0.36835 0.86391 0.0
O332 O 0.59265 0.35684 0.90053 0.0
H333 H 0.58621 0.37537 0.99607 0.0
H334 H 0.57099 0.39511 0.02 0.0
C335 C 0.57076 0.37884 0.00885 0.0
H336 H 0.56843 0.36776 0.03144 0.0
H337 H 0.6217 0.34487 0.95668 0.0
O338 O 0.51787 0.37275 0.85574 0.0
C339 C 0.58692 0.36644 0.87223 0.0
Co340 Co 0.13663 0.53224 0.88257 0.0
Co341 Co 0.14717 0.569 0.93529 0.0
C342 C 0.18086 0.54434 0.89674 0.0
O343 O 0.16726 0.53218 0.88273 0.0
O344 O 0.17536 0.55937 0.9174 0.0
C345 C 0.13583 0.48975 0.85515 0.0
O346 O 0.14905 0.48545 0.88124 0.0
C347 C 0.15976 0.58146 0.00666 0.0
C348 C 0.15217 0.61554 0.00826 0.0
C349 C 0.15961 0.59896 0.02901 0.0
N350 N 0.15242 0.58732 0.97451 0.0
N351 N 0.1482 0.60778 0.97538 0.0
C352 C 0.16711 0.55951 0.01519 0.0
H353 H 0.17358 0.55185 0.99082 0.0
H354 H 0.15354 0.54987 0.02451 0.0
H355 H 0.17928 0.5598 0.03658 0.0
C356 C 0.1087 0.51917 0.94023 0.0
N357 N 0.12523 0.53067 0.92867 0.0
N358 N 0.1281 0.54697 0.95 0.0
C359 C 0.1128 0.54675 0.97526 0.0
C360 C 0.10023 0.52893 0.97021 0.0
C361 C 0.09836 0.50221 0.9183 0.0
H362 H 0.09446 0.50855 0.89145 0.0
H363 H 0.10954 0.48886 0.91494 0.0
H364 H 0.08368 0.49611 0.93078 0.0
O365 O 0.12612 0.55843 0.85926 0.0
O366 O 0.13401 0.58512 0.8959 0.0
H367 H 0.11016 0.58018 0.98462 0.0
H368 H 0.09154 0.56432 0.0099 0.0
C369 C 0.10791 0.5651 -0.00071 0.0
H370 H 0.11885 0.56495 0.02239 0.0
H371 H 0.14205 0.61631 0.95386 0.0
O372 O 0.12829 0.50828 0.85206 0.0
C373 C 0.1261 0.5781 0.86689 0.0
Co374 Co 0.95666 0.1366 0.88208 0.0
Co375 Co 0.92248 0.14903 0.93905 0.0
C376 C 0.94505 0.18139 0.89464 0.0
O377 O 0.95616 0.16718 0.8798 0.0
O378 O 0.9311 0.17685 0.91799 0.0
C379 C 0.99794 0.13524 0.85045 0.0
O380 O 0.00233 0.1502 0.87371 0.0
C381 C 0.91153 0.16416 0.01032 0.0
C382 C 0.88015 0.14973 0.01892 0.0
C383 C 0.89591 0.16116 0.03617 0.0
N384 N 0.90547 0.15439 0.98009 0.0
N385 N 0.88651 0.14619 0.98511 0.0
C386 C 0.93199 0.17594 0.01359 0.0
H387 H 0.9368 0.18233 0.98721 0.0
H388 H 0.9446 0.16496 0.02252 0.0
H389 H 0.93053 0.18911 0.03308 0.0
C390 C 0.97366 0.11209 0.94131 0.0
N391 N 0.96057 0.12712 0.9289 0.0
N392 N 0.94568 0.13097 0.95263 0.0
C393 C 0.94859 0.11782 0.98074 0.0
C394 C 0.96663 0.10574 0.97469 0.0
C395 C 0.98977 0.101 0.91855 0.0
H396 H 0.98244 0.09612 0.89291 0.0
H397 H 0.00293 0.11204 0.91272 0.0
H398 H 0.99642 0.08677 0.93167 0.0
O399 O 0.92978 0.12519 0.86321 0.0
O400 O 0.9049 0.13468 0.90231 0.0
H401 H 0.91656 0.11405 -0.00134 0.0
H402 H 0.9358 0.09955 0.0248 0.0
C403 C 0.93276 0.11444 0.00999 0.0
H404 H 0.93374 0.12769 0.0293 0.0
H405 H 0.87837 0.13729 0.96605 0.0
O406 O 0.97954 0.12717 0.84992 0.0
C407 C 0.91054 0.12568 0.87332 0.0
Co408 Co 0.36256 0.54414 0.6116 0.0
Co409 Co 0.34669 0.57956 0.56002 0.0
C410 C 0.31724 0.55343 0.60609 0.0
O411 O 0.33227 0.54213 0.61782 0.0
O412 O 0.32055 0.56852 0.5842 0.0
C413 C 0.36668 0.50471 0.64982 0.0
O414 O 0.3468 0.5016 0.64108 0.0
C415 C 0.32901 0.58942 0.49069 0.0
C416 C 0.33546 0.62356 0.48476 0.0
C417 C 0.32756 0.60609 0.46669 0.0
N418 N 0.33775 0.5966 0.52105 0.0
N419 N 0.34122 0.61711 0.51768 0.0
C420 C 0.32211 0.56698 0.48536 0.0
H421 H 0.31648 0.56025 0.51107 0.0
H422 H 0.3357 0.55729 0.4763 0.0
H423 H 0.30938 0.566 0.46498 0.0
C424 C 0.38484 0.52994 0.54809 0.0
N425 N 0.37005 0.54217 0.56346 0.0
N426 N 0.36553 0.55816 0.54239 0.0
C427 C 0.37841 0.55723 0.51355 0.0
C428 C 0.39076 0.53905 0.51592 0.0
C429 C 0.39602 0.51238 0.56721 0.0
H430 H 0.4057 0.51912 0.58917 0.0
H431 H 0.38419 0.50148 0.57903 0.0
H432 H 0.40651 0.50326 0.54913 0.0
O433 O 0.37255 0.57145 0.63182 0.0
O434 O 0.36168 0.59714 0.5956 0.0
H435 H 0.37858 0.59042 0.50091 0.0
H436 H 0.39746 0.57482 0.4757 0.0
C437 C 0.38137 0.575 0.48754 0.0
H438 H 0.36988 0.57327 0.46541 0.0
H439 H 0.34832 0.62651 0.53726 0.0
O440 O 0.37599 0.52151 0.63979 0.0
C441 C 0.37134 0.591 0.62363 0.0
Co442 Co 0.96378 0.35475 0.6168 0.0
Co443 Co 0.92693 0.34723 0.56291 0.0
C444 C 0.94996 0.31166 0.60048 0.0
O445 O 0.96336 0.32421 0.61416 0.0
O446 O 0.93488 0.31844 0.58102 0.0
C447 C 0.00543 0.3545 0.64944 0.0
O448 O 0.00997 0.33883 0.62765 0.0
C449 C 0.9144 0.33497 0.49126 0.0
C450 C 0.88327 0.35035 0.48538 0.0
C451 C 0.89859 0.33928 0.4664 0.0
N452 N 0.90892 0.34371 0.52267 0.0
N453 N 0.89008 0.35248 0.51927 0.0
C454 C 0.93466 0.32311 0.4859 0.0
H455 H 0.93949 0.31533 0.51116 0.0
H456 H 0.94738 0.33436 0.47841 0.0
H457 H 0.93293 0.31101 0.46459 0.0
C458 C 0.97898 0.38275 0.56054 0.0
N459 N 0.96615 0.36713 0.57167 0.0
N460 N 0.95024 0.36505 0.54933 0.0
C461 C 0.95223 0.37987 0.52351 0.0
C462 C 0.97061 0.39143 0.52961 0.0
C463 C 0.99629 0.39193 0.58312 0.0
H464 H 0.98968 0.39698 0.60925 0.0
H465 H 0.0084 0.37961 0.58808 0.0
H466 H 0.00403 0.40571 0.57034 0.0
O467 O 0.93757 0.36474 0.64048 0.0
O468 O 0.91096 0.36096 0.60219 0.0
H469 H 0.91975 0.38551 0.51004 0.0
H470 H 0.93844 0.40022 0.48301 0.0
C471 C 0.9354 0.38496 0.49668 0.0
H472 H 0.93503 0.37241 0.47602 0.0
H473 H 0.88239 0.36086 0.53954 0.0
O474 O 0.98726 0.36305 0.64827 0.0
C475 C 0.91805 0.36668 0.6326 0.0
Co476 Co 0.12737 0.95368 0.62179 0.0
Co477 Co 0.14188 0.9192 0.56698 0.0
C478 C 0.17263 0.94443 0.6111 0.0
O479 O 0.15786 0.95534 0.62469 0.0
O480 O 0.1688 0.92971 0.58878 0.0
C481 C 0.12487 0.99515 0.65034 0.0
O482 O 0.1402 -0.00143 0.62731 0.0
C483 C 0.15805 0.90986 0.4963 0.0
C484 C 0.15154 0.87575 0.48993 0.0
C485 C 0.15929 0.89333 0.472 0.0
N486 N 0.1496 0.90251 0.52679 0.0
N487 N 0.14605 0.88203 0.52311 0.0
C488 C 0.16506 0.93229 0.49117 0.0
H489 H 0.17061 0.93899 0.51694 0.0
H490 H 0.15154 0.94203 0.48199 0.0
H491 H 0.17786 0.93324 0.47089 0.0
C492 C 0.10213 0.96791 0.56126 0.0
N493 N 0.11793 0.95608 0.57455 0.0
N494 N 0.12249 0.94076 0.55202 0.0
C495 C 0.1089 0.94183 0.52419 0.0
C496 C 0.09591 0.95938 0.5288 0.0
C497 C 0.09039 0.98421 0.58261 0.0
H498 H 0.0852 0.97724 0.60836 0.0
H499 H 0.10112 0.99765 0.58838 0.0
H500 H 0.07632 0.99038 0.56837 0.0
O501 O 0.11797 0.92619 0.64225 0.0
O502 O 0.12806 0.90136 0.60352 0.0
H503 H 0.10856 0.90888 0.50996 0.0
H504 H 0.08973 0.92491 0.48558 0.0
C505 C 0.10583 0.92451 0.49732 0.0
H506 H 0.11732 0.92651 0.47522 0.0
H507 H 0.13925 0.8725 0.5428 0.0
O508 O 0.11659 0.97685 0.6522 0.0
C509 C 0.1192 0.90681 0.63276 0.0
Co510 Co 0.53241 0.13708 0.60892 0.0
Co511 Co 0.56726 0.14961 0.55341 0.0
C512 C 0.54328 0.18191 0.59636 0.0
O513 O 0.53197 0.16771 0.61078 0.0
O514 O 0.5577 0.17729 0.57385 0.0
C515 C 0.49117 0.1347 0.64173 0.0
O516 O 0.4861 0.1502 0.61998 0.0
C517 C 0.57843 0.16417 0.48206 0.0
C518 C 0.61071 0.1515 0.47533 0.0
C519 C 0.59459 0.16174 0.45697 0.0
N520 N 0.58459 0.15522 0.51291 0.0
N521 N 0.60407 0.14807 0.509 0.0
C522 C 0.55732 0.17455 0.47755 0.0
H523 H 0.55157 0.18065 0.50361 0.0
H524 H 0.54566 0.16272 0.46798 0.0
H525 H 0.5583 0.18775 0.45806 0.0
C526 C 0.51763 0.11074 0.55041 0.0
N527 N 0.5295 0.12692 0.56224 0.0
N528 N 0.54488 0.1307 0.53941 0.0
C529 C 0.5436 0.11637 0.51265 0.0
C530 C 0.52616 0.10339 0.51859 0.0
C531 C 0.50156 0.09961 0.57314 0.0
H532 H 0.48867 0.11079 0.57991 0.0
H533 H 0.49455 0.0857 0.55957 0.0
H534 H 0.50911 0.09429 0.59836 0.0
O535 O 0.55938 0.12655 0.62906 0.0
O536 O 0.58472 0.13595 0.5908 0.0
H537 H 0.57634 0.11316 0.49863 0.0
H538 H 0.55861 0.09743 0.47139 0.0
C539 C 0.56063 0.11275 0.48547 0.0
H540 H 0.56006 0.12551 0.46522 0.0
H541 H 0.61243 0.13996 0.52876 0.0
O542 O 0.50968 0.1269 0.64061 0.0
C543 C 0.57877 0.12718 0.61978 0.0
C544 C 0.61372 0.982 0.18694 0.0
C545 C 0.62777 0.9761 0.15958 0.0
C546 C 0.60456 0.96673 0.20887 0.0
C547 C 0.58789 0.91191 0.20978 0.0
H548 H 0.58149 0.92203 0.31155 0.0
C549 C 0.5366 0.85807 0.30046 0.0
C550 C 0.52279 0.8691 0.32331 0.0
C551 C 0.55279 0.86877 0.28245 0.0
C552 C 0.58312 0.91899 0.28317 0.0
H553 H 0.64337 0.94958 0.13386 0.0
H554 H 0.62695 0.9227 0.17212 0.0
H555 H 0.60409 0.94522 0.27611 0.0
H556 H 0.51538 0.89993 0.34568 0.0
H557 H 0.54329 0.91851 0.31412 0.0
H558 H 0.56617 0.88622 0.21654 0.0
C559 C 0.6232 0.93922 0.17655 0.0
C560 C 0.59609 0.93222 0.26294 0.0
C561 C 0.63262 0.95458 0.15479 0.0
C562 C 0.52572 0.89094 0.32826 0.0
C563 C 0.54187 0.90158 0.31039 0.0
C564 C 0.5748 0.8987 0.23002 0.0
C565 C 0.60907 0.94519 0.20376 0.0
C566 C 0.5981 0.92919 0.2259 0.0
C567 C 0.55552 0.89067 0.28714 0.0
C568 C 0.57178 0.90252 0.26673 0.0
H569 H 0.60969 -0.00155 0.19138 0.0
H570 H 0.59348 0.97176 0.2293 0.0
H571 H 0.58907 0.90931 0.18121 0.0
H572 H 0.53479 0.84122 0.29617 0.0
H573 H 0.56315 0.85993 0.26486 0.0
C574 C 0.62627 0.53952 0.3353 0.0
C575 C 0.6265 0.51798 0.32601 0.0
C576 C 0.61387 0.55382 0.31591 0.0
C577 C 0.59115 0.58211 0.26118 0.0
H578 H 0.53594 0.55949 0.23708 0.0
C579 C 0.5307 0.62442 0.16869 0.0
C580 C 0.50914 0.62169 0.17657 0.0
C581 C 0.5461 0.6139 0.18877 0.0
C582 C 0.55117 0.56618 0.24397 0.0
H583 H 0.61539 0.49478 0.28763 0.0
H584 H 0.59429 0.51969 0.25339 0.0
H585 H 0.56147 0.53714 0.267 0.0
H586 H 0.48682 0.60707 0.21305 0.0
H587 H 0.51362 0.58922 0.24854 0.0
H588 H 0.58043 0.6114 0.23865 0.0
C589 C 0.60308 0.52549 0.27625 0.0
C590 C 0.56597 0.55324 0.26062 0.0
C591 C 0.61525 0.51124 0.29575 0.0
C592 C 0.50331 0.60921 0.20599 0.0
C593 C 0.51866 0.59891 0.22623 0.0
C594 C 0.57624 0.59516 0.24449 0.0
C595 C 0.60164 0.54677 0.28683 0.0
C596 C 0.58617 0.56095 0.26918 0.0
C597 C 0.54019 0.60062 0.21721 0.0
C598 C 0.55608 0.5873 0.23574 0.0
H599 H 0.63481 0.54514 0.35854 0.0
H600 H 0.61304 0.57011 0.32475 0.0
H601 H 0.60662 0.58847 0.26741 0.0
H602 H 0.53564 0.63398 0.14615 0.0
H603 H 0.56254 0.61545 0.18101 0.0
C604 C 0.85834 0.53553 0.19007 0.0
C605 C 0.86889 0.52078 0.1683 0.0
C606 C 0.8696 0.55183 0.2068 0.0
C607 C 0.92074 0.58047 0.20349 0.0
H608 H 0.91201 0.58881 0.30521 0.0
C609 C 0.98536 0.61141 0.29654 0.0
C610 C 0.97994 0.62591 0.32351 0.0
C611 C 0.96973 0.60223 0.27534 0.0
C612 C 0.91437 0.58696 0.27668 0.0
H613 H 0.89945 0.51178 0.1465 0.0
H614 H 0.91895 0.53988 0.17576 0.0
H615 H 0.8879 0.56604 0.2717 0.0
H616 H 0.9539 0.64235 0.34919 0.0
H617 H 0.92646 0.626 0.31219 0.0
H618 H 0.94771 0.60067 0.20877 0.0
C619 C 0.90199 0.53911 0.17963 0.0
C620 C 0.90056 0.57395 0.25748 0.0
C621 C 0.8908 0.52285 0.1631 0.0
C622 C 0.95855 0.63123 0.32858 0.0
C623 C 0.94285 0.62185 0.30754 0.0
C624 C 0.93456 0.59337 0.22267 0.0
C625 C 0.89156 0.55372 0.20181 0.0
C626 C 0.90401 0.57006 0.22092 0.0
C627 C 0.94832 0.60722 0.2808 0.0
C628 C 0.93187 0.59624 0.25964 0.0
H629 H 0.84145 0.53437 0.19452 0.0
H630 H 0.86115 0.56293 0.22363 0.0
H631 H 0.92352 0.57812 0.17517 0.0
H632 H 0.0017 0.607 0.29193 0.0
H633 H 0.97438 0.59077 0.25527 0.0
C634 C 0.99192 0.89632 0.19182 0.0
C635 C 0.98677 0.88097 0.16611 0.0
C636 C 0.97615 0.90559 0.21267 0.0
C637 C 0.92004 0.91856 0.2131 0.0
H638 H 0.93014 0.92889 0.31392 0.0
C639 C 0.86196 0.9664 0.30233 0.0
C640 C 0.87176 0.98185 0.32371 0.0
C641 C 0.87411 0.95108 0.2847 0.0
C642 C 0.9271 0.92615 0.28578 0.0
H643 H 0.96104 0.86325 0.14208 0.0
H644 H 0.93336 0.8797 0.1785 0.0
H645 H 0.95507 0.90744 0.27983 0.0
H646 H 0.90197 0.9932 0.34363 0.0
H647 H 0.92298 0.96678 0.31287 0.0
H648 H 0.89243 0.93792 0.21881 0.0
C649 C 0.94965 0.88447 0.18243 0.0
C650 C 0.94135 0.91387 0.26631 0.0
C651 C 0.96549 0.87503 0.16172 0.0
C652 C 0.89387 0.98153 0.32741 0.0
C653 C 0.90594 0.96625 0.31 0.0
C654 C 0.90577 0.93094 0.2326 0.0
C655 C 0.95487 0.89982 0.20814 0.0
C656 C 0.93827 0.91043 0.22958 0.0
C657 C 0.89624 0.95088 0.2884 0.0
C658 C 0.90951 0.93535 0.2689 0.0
H659 H 0.00815 0.90126 0.19586 0.0
H660 H 0.9806 0.91762 0.23191 0.0
H661 H 0.91734 0.91623 0.18476 0.0
H662 H 0.84494 0.96622 0.299 0.0
H663 H 0.86621 0.93936 0.26833 0.0
C664 C 0.37479 0.01082 0.79074 0.0
C665 C 0.36403 0.01755 0.82155 0.0
C666 C 0.38594 0.02524 0.76986 0.0
C667 C 0.42152 0.05402 0.74996 0.0
H668 H 0.4051 0.1119 0.72989 0.0
C669 C 0.4817 0.11207 0.69373 0.0
C670 C 0.47518 0.12492 0.6652 0.0
C671 C 0.46689 0.10106 0.71406 0.0
C672 C 0.40982 0.09573 0.73512 0.0
H673 H 0.35559 0.04478 0.8538 0.0
H674 H 0.37568 0.07006 0.81771 0.0
H675 H 0.38026 0.08823 0.76035 0.0
H676 H 0.448 0.13706 0.63646 0.0
H677 H 0.42201 0.11725 0.67152 0.0
H678 H 0.45073 0.0611 0.72418 0.0
C679 C 0.3752 0.05365 0.80941 0.0
C680 C 0.39568 0.08225 0.75281 0.0
C681 C 0.36376 0.03918 0.83014 0.0
C682 C 0.45346 0.12724 0.65832 0.0
C683 C 0.43858 0.11598 0.67848 0.0
C684 C 0.43552 0.06738 0.73228 0.0
C685 C 0.3869 0.0467 0.77962 0.0
C686 C 0.40141 0.06122 0.76034 0.0
C687 C 0.44522 0.10236 0.70601 0.0
C688 C 0.42994 0.08843 0.72483 0.0
H689 H 0.37498 0.99427 0.78315 0.0
H690 H 0.3943 0.01946 0.74652 0.0
H691 H 0.42662 0.03805 0.75588 0.0
H692 H 0.49832 0.11024 0.70004 0.0
H693 H 0.47249 0.09115 0.7357 0.0
C694 C 0.36826 0.47065 0.6842 0.0
C695 C 0.37835 0.48891 0.67114 0.0
C696 C 0.37944 0.45607 0.70505 0.0
C697 C 0.42637 0.45248 0.76262 0.0
H698 H 0.42431 0.3922 0.74339 0.0
C699 C 0.49031 0.39699 0.81404 0.0
C700 C 0.48428 0.37743 0.82863 0.0
C701 C 0.47564 0.40956 0.79628 0.0
C702 C 0.42478 0.40896 0.7494 0.0
H703 H 0.40816 0.50593 0.66897 0.0
H704 H 0.42753 0.48057 0.705 0.0
H705 H 0.40147 0.41628 0.70964 0.0
H706 H 0.45817 0.35551 0.83541 0.0
H707 H 0.43234 0.37774 0.8043 0.0
H708 H 0.44979 0.44536 0.8019 0.0
C709 C 0.41094 0.47766 0.69969 0.0
C710 C 0.41174 0.42271 0.73012 0.0
C711 C 0.39984 0.49215 0.67888 0.0
C712 C 0.46329 0.37052 0.82444 0.0
C713 C 0.44853 0.38319 0.80658 0.0
C714 C 0.43932 0.4388 0.78184 0.0
C715 C 0.40083 0.45959 0.71326 0.0
C716 C 0.41282 0.44465 0.73598 0.0
C717 C 0.45454 0.40296 0.79275 0.0
C718 C 0.43907 0.41697 0.77483 0.0
H719 H 0.35171 0.46771 0.67863 0.0
H720 H 0.37127 0.44228 0.71527 0.0
H721 H 0.42717 0.46927 0.76827 0.0
H722 H 0.5064 0.40272 0.81651 0.0
H723 H 0.48087 0.42451 0.7852 0.0
C724 C 0.01559 0.37801 0.69983 0.0
C725 C 0.02172 0.36383 0.67285 0.0
C726 C 0.03071 0.38901 0.71939 0.0
C727 C 0.06361 0.4221 0.73159 0.0
H728 H 0.11468 0.39981 0.77483 0.0
C729 C 0.12172 0.47853 0.79622 0.0
C730 C 0.12853 0.47306 0.83067 0.0
C731 C 0.11247 0.46344 0.7741 0.0
C732 C 0.10046 0.40621 0.76286 0.0
H733 H 0.04853 0.34906 0.6466 0.0
H734 H 0.0752 0.36869 0.68083 0.0
H735 H 0.09029 0.3758 0.7437 0.0
H736 H 0.13218 0.44735 0.86844 0.0
H737 H 0.1151 0.42096 0.83017 0.0
H738 H 0.07303 0.45223 0.75132 0.0
C739 C 0.05861 0.37112 0.68678 0.0
C740 C 0.08663 0.39252 0.74489 0.0
C741 C 0.04337 0.35996 0.66718 0.0
C742 C 0.12699 0.45194 0.84196 0.0
C743 C 0.11734 0.43683 0.81997 0.0
C744 C 0.07731 0.43568 0.74937 0.0
C745 C 0.05234 0.38622 0.71228 0.0
C746 C 0.0679 0.40036 0.72964 0.0
C747 C 0.10937 0.44263 0.78625 0.0
C748 C 0.09583 0.42794 0.76545 0.0
H749 H -0.00097 0.38107 0.70527 0.0
H750 H 0.02545 0.40019 0.7395 0.0
H751 H 0.04946 0.42865 0.71957 0.0
H752 H 0.12312 0.49465 0.78664 0.0
H753 H 0.10702 0.46827 0.74788 0.0
C754 C 0.10363 0.00831 0.70207 0.0
C755 C 0.11637 0.01264 0.67217 0.0
C756 C 0.09481 0.02479 0.72192 0.0
C757 C 0.0754 0.07809 0.71216 0.0
H758 H 0.0741 0.07781 0.81592 0.0
C759 C 0.00912 0.11475 0.79675 0.0
C760 C 0.01464 0.12621 0.82754 0.0
C761 C 0.02464 0.1046 0.77653 0.0
C762 C 0.07461 0.07829 0.78697 0.0
H763 H 0.13012 0.03759 0.63984 0.0
H764 H 0.11422 0.06648 0.67423 0.0
H765 H 0.09635 0.05233 0.78403 0.0
H766 H 0.04072 0.13648 0.86095 0.0
H767 H 0.06791 0.11817 0.82587 0.0
H768 H 0.05287 0.10336 0.7151 0.0
C769 C 0.11127 0.0503 0.68236 0.0
C770 C 0.08718 0.06365 0.76878 0.0
C771 C 0.12038 0.03379 0.6628 0.0
C772 C 0.03605 0.12781 0.83724 0.0
C773 C 0.05157 0.1173 0.81732 0.0
C774 C 0.0626 0.09253 0.73035 0.0
C775 C 0.09833 0.04592 0.71197 0.0
C776 C 0.08733 0.06313 0.73122 0.0
C777 C 0.04593 0.10543 0.78702 0.0
C778 C 0.06176 0.09245 0.76789 0.0
H779 H 0.10032 0.99216 0.70999 0.0
H780 H 0.08468 0.021 0.7444 0.0
H781 H 0.07516 0.07792 0.68319 0.0
H782 H 0.99274 0.11332 0.78859 0.0
H783 H 0.01986 0.09535 0.7535 0.0
C784 C 0.78198 0.06647 0.36419 0.0
C785 C 0.79104 0.0473 0.37539 0.0
C786 C 0.76844 0.06682 0.33468 0.0
C787 C 0.73867 0.03382 0.27025 0.0
H788 H 0.76164 0.07259 0.19971 0.0
C789 C 0.71162 0.02702 0.12673 0.0
C790 C 0.70402 0.04609 0.11244 0.0
C791 C 0.72506 0.02723 0.15626 0.0
C792 C 0.75497 0.06177 0.21913 0.0
H793 H 0.79079 0.01329 0.36819 0.0
H794 H 0.76678 0.01383 0.3174 0.0
H795 H 0.77443 0.07385 0.26124 0.0
H796 H 0.70684 0.08024 0.11433 0.0
H797 H 0.73015 0.08065 0.16601 0.0
H798 H 0.71913 0.02177 0.22843 0.0
C799 C 0.77036 0.02861 0.33077 0.0
C800 C 0.76213 0.06262 0.25443 0.0
C801 C 0.78405 0.02828 0.35996 0.0
C802 C 0.71249 0.06529 0.12478 0.0
C803 C 0.72576 0.06551 0.15466 0.0
C804 C 0.73143 0.03304 0.23505 0.0
C805 C 0.76354 0.04798 0.31649 0.0
C806 C 0.75413 0.04857 0.28028 0.0
C807 C 0.73095 0.04651 0.17212 0.0
C808 C 0.73964 0.04686 0.20898 0.0
H809 H 0.78715 0.08137 0.37554 0.0
H810 H 0.76302 0.08193 0.32456 0.0
H811 H 0.73218 0.02287 0.28965 0.0
H812 H 0.70546 0.01199 0.11743 0.0
H813 H 0.72945 0.0123 0.16838 0.0
C814 C 0.42969 0.71007 0.12674 0.0
C815 C 0.4477 0.69927 0.11461 0.0
C816 C 0.43142 0.7247 0.15464 0.0
C817 C 0.46668 0.73107 0.23186 0.0
H818 H 0.42814 0.77629 0.25734 0.0
C819 C 0.47418 0.78549 0.35533 0.0
C820 C 0.45535 0.79206 0.37196 0.0
C821 C 0.47351 0.77202 0.32579 0.0
C822 C 0.4388 0.76346 0.25066 0.0
H823 H 0.48183 0.69755 0.11753 0.0
H824 H 0.48506 0.72411 0.16448 0.0
H825 H 0.42772 0.76206 0.19664 0.0
H826 H 0.42133 0.78789 0.37341 0.0
H827 H 0.42019 0.76426 0.32172 0.0
H828 H 0.47797 0.7328 0.2858 0.0
C829 C 0.46949 0.72056 0.154 0.0
C830 C 0.43867 0.75543 0.21585 0.0
C831 C 0.46772 0.70567 0.12663 0.0
C832 C 0.43609 0.783 0.36122 0.0
C833 C 0.4354 0.76975 0.33131 0.0
C834 C 0.46695 0.73927 0.26651 0.0
C835 C 0.45124 0.72893 0.17022 0.0
C836 C 0.45256 0.73907 0.20603 0.0
C837 C 0.45399 0.76509 0.31228 0.0
C838 C 0.45292 0.75543 0.2763 0.0
H839 H 0.41406 0.70525 0.1181 0.0
H840 H 0.41701 0.73092 0.16625 0.0
H841 H 0.47721 0.71807 0.22567 0.0
H842 H 0.48923 0.79227 0.36312 0.0
H843 H 0.4881 0.76859 0.31169 0.0
C844 C 0.78356 0.43149 0.13677 0.0
C845 C 0.79174 0.45078 0.12428 0.0
C846 C 0.77066 0.43109 0.16716 0.0
C847 C 0.74098 0.46422 0.2318 0.0
H848 H 0.76429 0.4256 0.3022 0.0
C849 C 0.71258 0.47022 0.37424 0.0
C850 C 0.70441 0.45101 0.38704 0.0
C851 C 0.72689 0.47031 0.34583 0.0
C852 C 0.75758 0.43642 0.28283 0.0
H853 H 0.79058 0.48484 0.1304 0.0
H854 H 0.76776 0.4842 0.18276 0.0
H855 H 0.77705 0.42446 0.24056 0.0
H856 H 0.70742 0.41689 0.38448 0.0
H857 H 0.73226 0.41701 0.33489 0.0
H858 H 0.72143 0.47612 0.27376 0.0
C859 C 0.77151 0.46936 0.1697 0.0
C860 C 0.76471 0.43563 0.24746 0.0
C861 C 0.78452 0.46975 0.13958 0.0
C862 C 0.71341 0.43195 0.37509 0.0
C863 C 0.72757 0.43203 0.34637 0.0
C864 C 0.73383 0.46498 0.26708 0.0
C865 C 0.76555 0.44998 0.18504 0.0
C866 C 0.75651 0.44956 0.22161 0.0
C867 C 0.73312 0.4512 0.32976 0.0
C868 C 0.74212 0.45118 0.29308 0.0
H869 H 0.78891 0.41661 0.12558 0.0
H870 H 0.76586 0.41595 0.17802 0.0
H871 H 0.73429 0.47505 0.21244 0.0
H872 H 0.70607 0.48515 0.38332 0.0
H873 H 0.73155 0.48536 0.3344 0.0
C874 C 0.06127 0.71572 0.36436 0.0
C875 C 0.04288 0.70487 0.37457 0.0
C876 C 0.06064 0.73003 0.33595 0.0
C877 C 0.02833 0.73708 0.25469 0.0
H878 H 0.06886 0.78153 0.23482 0.0
C879 C 0.02847 0.7953 0.13494 0.0
C880 C 0.04834 0.80022 0.12028 0.0
C881 C 0.02685 0.78088 0.16303 0.0
C882 C 0.05764 0.76893 0.23998 0.0
H883 H 0.00898 0.70271 0.3673 0.0
H884 H 0.00758 0.72878 0.3194 0.0
H885 H 0.06647 0.76698 0.29503 0.0
H886 H 0.08167 0.7922 0.12037 0.0
H887 H 0.07883 0.76708 0.16979 0.0
H888 H 0.0191 0.73973 0.19966 0.0
C889 C 0.0227 0.72543 0.33176 0.0
C890 C 0.05619 0.76066 0.27448 0.0
C891 C 0.02341 0.71081 0.35965 0.0
C892 C 0.06614 0.78859 0.13105 0.0
C893 C 0.06459 0.77445 0.15961 0.0
C894 C 0.02955 0.74564 0.22034 0.0
C895 C 0.04151 0.73401 0.31786 0.0
C896 C 0.04165 0.74449 0.28225 0.0
C897 C 0.04513 0.77145 0.17703 0.0
C898 C 0.04439 0.76143 0.21263 0.0
H899 H 0.07652 0.7113 0.37525 0.0
H900 H 0.07547 0.73634 0.32618 0.0
H901 H 0.01729 0.72428 0.2593 0.0
H902 H 0.01454 0.80413 0.12708 0.0
H903 H 0.01167 0.77873 0.17599 0.0
C904 C 0.20295 0.92695 0.64057 0.0
C905 C 0.19325 0.9457 0.62901 0.0
C906 C 0.2164 0.92724 0.6702 0.0
C907 C 0.22187 0.95952 0.75143 0.0
H908 H 0.26758 0.9209 0.77358 0.0
C909 C 0.27971 0.96685 0.86914 0.0
C910 C 0.28817 0.94812 0.88338 0.0
C911 C 0.26433 0.96595 0.84248 0.0
C912 C 0.25453 0.93149 0.76793 0.0
H913 H 0.19234 0.97973 0.63542 0.0
H914 H 0.21676 0.98043 0.68578 0.0
H915 H 0.25307 0.92167 0.71321 0.0
H916 H 0.28504 0.91397 0.88494 0.0
H917 H 0.25807 0.91243 0.83836 0.0
H918 H 0.22381 0.96972 0.806 0.0
C919 C 0.21322 0.96538 0.67329 0.0
C920 C 0.24636 0.93206 0.73327 0.0
C921 C 0.19955 0.96504 0.64406 0.0
C922 C 0.27883 0.92867 0.87439 0.0
C923 C 0.26361 0.92775 0.84737 0.0
C924 C 0.23018 0.95908 0.78599 0.0
C925 C 0.22055 0.94634 0.68822 0.0
C926 C 0.23004 0.9462 0.72453 0.0
C927 C 0.25731 0.94629 0.82964 0.0
C928 C 0.24663 0.94511 0.79453 0.0
H929 H 0.19821 0.9118 0.6296 0.0
H930 H 0.22188 0.91229 0.68085 0.0
H931 H 0.20887 0.97019 0.74594 0.0
H932 H 0.28661 0.98205 0.87578 0.0
H933 H 0.25965 0.98051 0.82943 0.0
C934 C 0.56206 0.21237 0.6233 0.0
C935 C 0.54285 0.20287 0.61342 0.0
C936 C 0.56266 0.22647 0.65207 0.0
C937 C 0.53097 0.25763 0.71599 0.0
H938 H 0.56903 0.23411 0.78703 0.0
C939 C 0.52668 0.28757 0.85877 0.0
C940 C 0.54624 0.29333 0.87358 0.0
C941 C 0.52586 0.2741 0.82924 0.0
C942 C 0.55845 0.241 0.76748 0.0
H943 H 0.50898 0.20277 0.62209 0.0
H944 H 0.50994 0.22796 0.67142 0.0
H945 H 0.56953 0.22042 0.72604 0.0
H946 H 0.58001 0.28768 0.87208 0.0
H947 H 0.57871 0.26449 0.82025 0.0
H948 H 0.52006 0.27844 0.75698 0.0
C949 C 0.52454 0.22425 0.6576 0.0
C950 C 0.55885 0.23327 0.73249 0.0
C951 C 0.52397 0.20992 0.62925 0.0
C952 C 0.5647 0.28336 0.86132 0.0
C953 C 0.56394 0.27015 0.83135 0.0
C954 C 0.53073 0.26554 0.75085 0.0
C955 C 0.54403 0.23154 0.67071 0.0
C956 C 0.54505 0.24145 0.70649 0.0
C957 C 0.54463 0.26648 0.81368 0.0
C958 C 0.54434 0.2572 0.77714 0.0
H959 H 0.57686 0.2071 0.61169 0.0
H960 H 0.57784 0.23219 0.66141 0.0
H961 H 0.52017 0.26418 0.69643 0.0
H962 H 0.5122 0.29499 0.86794 0.0
H963 H 0.51064 0.27092 0.81709 0.0
C964 C 0.21127 0.56337 0.8702 0.0
C965 C 0.20208 0.54412 0.88061 0.0
C966 C 0.22559 0.56391 0.84173 0.0
C967 C 0.23443 0.53249 0.76044 0.0
H968 H 0.27747 0.57452 0.74064 0.0
C969 C 0.29104 0.53204 0.63956 0.0
C970 C 0.29692 0.55165 0.62498 0.0
C971 C 0.27695 0.53112 0.66821 0.0
C972 C 0.26522 0.56292 0.7457 0.0
H973 H 0.20306 0.51012 0.87373 0.0
H974 H 0.22896 0.51091 0.82547 0.0
H975 H 0.26266 0.57186 0.80076 0.0
H976 H 0.29109 0.58542 0.62621 0.0
H977 H 0.26636 0.58379 0.67646 0.0
H978 H 0.23737 0.52331 0.70549 0.0
C979 C 0.22434 0.52569 0.83787 0.0
C980 C 0.25686 0.56129 0.78018 0.0
C981 C 0.2098 0.52519 0.86592 0.0
C982 C 0.2867 0.57009 0.63682 0.0
C983 C 0.27282 0.5692 0.66588 0.0
C984 C 0.24293 0.534 0.7261 0.0
C985 C 0.23115 0.54515 0.82376 0.0
C986 C 0.24137 0.54603 0.78799 0.0
C987 C 0.26871 0.54982 0.68293 0.0
C988 C 0.25836 0.54926 0.71838 0.0
H989 H 0.20551 0.57822 0.88095 0.0
H990 H 0.23061 0.57918 0.83175 0.0
H991 H 0.22208 0.52095 0.76515 0.0
H992 H 0.29877 0.51762 0.63089 0.0
H993 H 0.27401 0.51596 0.68079 0.0
C994 C 0.96437 0.20943 0.86227 0.0
C995 C 0.94539 0.20232 0.87763 0.0
C996 C 0.96397 0.22352 0.83364 0.0
C997 C 0.92954 0.23279 0.75804 0.0
H998 H 0.97175 0.27438 0.73171 0.0
C999 C 0.92915 0.28304 0.62865 0.0
C1000 C 0.94883 0.29045 0.61649 0.0
C1001 C 0.92814 0.26957 0.65823 0.0
C1002 C 0.96008 0.26249 0.73846 0.0
H1003 H 0.91136 0.20626 0.87838 0.0
H1004 H 0.91067 0.23117 0.82839 0.0
H1005 H 0.97026 0.26152 0.79301 0.0
H1006 H 0.98277 0.28676 0.62113 0.0
H1007 H 0.98102 0.26247 0.6716 0.0
H1008 H 0.9195 0.23363 0.70332 0.0
C1009 C 0.9258 0.22557 0.83812 0.0
C1010 C 0.95907 0.25536 0.7737 0.0
C1011 C 0.92622 0.21161 0.8671 0.0
C1012 C 0.9674 0.28144 0.6303 0.0
C1013 C 0.96639 0.26783 0.65957 0.0
C1014 C 0.93056 0.23992 0.72271 0.0
C1015 C 0.94457 0.2306 0.81983 0.0
C1016 C 0.94392 0.2403 0.78381 0.0
C1017 C 0.9468 0.26315 0.67551 0.0
C1018 C 0.94601 0.25466 0.71245 0.0
H1019 H 0.97933 0.20242 0.86994 0.0
H1020 H 0.97872 0.22713 0.82019 0.0
H1021 H 0.91795 0.22083 0.76488 0.0
H1022 H 0.91458 0.28978 0.61854 0.0
H1023 H 0.91279 0.26606 0.66966 0.0
C1024 C 0.6686 0.11483 0.89793 0.0
C1025 C 0.66394 0.09684 0.91855 0.0
C1026 C 0.66515 0.11477 0.86095 0.0
C1027 C 0.62748 0.09176 0.80065 0.0
H1028 H 0.66128 0.11521 0.72376 0.0
C1029 C 0.59065 0.09993 0.66303 0.0
C1030 C 0.59456 0.11893 0.64495 0.0
C1031 C 0.60345 0.09385 0.69158 0.0
C1032 C 0.65159 0.10874 0.74497 0.0
H1033 H 0.65238 0.06449 0.91598 0.0
H1034 H 0.64685 0.06431 0.85201 0.0
H1035 H 0.67664 0.11142 0.78361 0.0
H1036 H 0.61533 0.14602 0.64096 0.0
H1037 H 0.63703 0.13614 0.69224 0.0
H1038 H 0.60204 0.09024 0.76367 0.0
C1039 C 0.65335 0.0784 0.86437 0.0
C1040 C 0.66044 0.10649 0.77912 0.0
C1041 C 0.65684 0.07844 0.90115 0.0
C1042 C 0.61215 0.13121 0.65449 0.0
C1043 C 0.62461 0.12546 0.68382 0.0
C1044 C 0.61856 0.0943 0.76693 0.0
C1045 C 0.65671 0.09677 0.84414 0.0
C1046 C 0.6484 0.09802 0.80723 0.0
C1047 C 0.61992 0.10707 0.70357 0.0
C1048 C 0.6304 0.1029 0.73856 0.0
H1049 H 0.67393 0.12928 0.91067 0.0
H1050 H 0.66769 0.12921 0.84597 0.0
H1051 H 0.61767 0.08563 0.82204 0.0
H1052 H 0.57728 0.09011 0.65577 0.0
H1053 H 0.5998 0.07919 0.70521 0.0
C1054 C 0.37324 0.65023 0.90831 0.0
C1055 C 0.38912 0.66081 0.92759 0.0
C1056 C 0.3729 0.65082 0.87107 0.0
C1057 C 0.37104 0.66069 0.79203 0.0
H1058 H 0.42346 0.64128 0.74922 0.0
C1059 C 0.37153 0.62753 0.64981 0.0
C1060 C 0.37948 0.60676 0.64941 0.0
C1061 C 0.37604 0.64104 0.67847 0.0
C1062 C 0.40879 0.64702 0.76065 0.0
H1063 H 0.41571 0.68238 0.92237 0.0
H1064 H 0.41575 0.68245 0.85712 0.0
H1065 H 0.42317 0.65299 0.81151 0.0
H1066 H 0.39996 0.58456 0.67687 0.0
H1067 H 0.4078 0.60801 0.72659 0.0
H1068 H 0.35635 0.65339 0.74209 0.0
C1069 C 0.40377 0.67344 0.87117 0.0
C1070 C 0.40865 0.65386 0.79621 0.0
C1071 C 0.40392 0.6731 0.90861 0.0
C1072 C 0.39342 0.6004 0.67658 0.0
C1073 C 0.39808 0.61394 0.70496 0.0
C1074 C 0.3712 0.65397 0.75647 0.0
C1075 C 0.38845 0.66199 0.85207 0.0
C1076 C 0.38958 0.65983 0.81267 0.0
C1077 C 0.38877 0.63409 0.70694 0.0
C1078 C 0.38989 0.64616 0.74092 0.0
H1079 H 0.36146 0.64071 0.92188 0.0
H1080 H 0.36101 0.64164 0.85711 0.0
H1081 H 0.35617 0.66544 0.80401 0.0
H1082 H 0.36079 0.63292 0.62918 0.0
H1083 H 0.3688 0.65657 0.67918 0.0
C1084 C 0.82889 0.37634 0.9096 0.0
C1085 C 0.82834 0.39564 0.92832 0.0
C1086 C 0.83183 0.37595 0.87253 0.0
C1087 C 0.85687 0.40962 0.80427 0.0
H1088 H 0.84283 0.36257 0.74216 0.0
C1089 C 0.91163 0.38303 0.69234 0.0
C1090 C 0.90341 0.37462 0.66047 0.0
C1091 C 0.89825 0.38866 0.72037 0.0
C1092 C 0.84658 0.37607 0.75885 0.0
H1093 H 0.8295 0.42981 0.92134 0.0
H1094 H 0.83272 0.42909 0.8574 0.0
H1095 H 0.82455 0.36653 0.7993 0.0
H1096 H 0.87451 0.36621 0.6326 0.0
H1097 H 0.85098 0.37623 0.68187 0.0
H1098 H 0.8789 0.41913 0.76405 0.0
C1099 C 0.83157 0.41416 0.87145 0.0
C1100 C 0.83629 0.37819 0.79184 0.0
C1101 C 0.82914 0.41455 0.90854 0.0
C1102 C 0.88135 0.37265 0.65682 0.0
C1103 C 0.86789 0.37825 0.68509 0.0
C1104 C 0.86695 0.40762 0.77128 0.0
C1105 C 0.83405 0.39489 0.85316 0.0
C1106 C 0.84185 0.39459 0.81553 0.0
C1107 C 0.87625 0.38609 0.71733 0.0
C1108 C 0.86255 0.39037 0.74882 0.0
H1109 H 0.82833 0.36144 0.92387 0.0
H1110 H 0.83381 0.36075 0.85959 0.0
H1111 H 0.86186 0.42235 0.82171 0.0
H1112 H 0.92853 0.38482 0.69611 0.0
H1113 H 0.9053 0.3943 0.74499 0.0
C1114 C 0.11997 0.86957 0.65568 0.0
C1115 C 0.11214 0.89035 0.65817 0.0
C1116 C 0.11651 0.85515 0.68344 0.0
C1117 C 0.12405 0.83954 0.75943 0.0
H1118 H 0.07395 0.83858 0.81931 0.0
C1119 C 0.1263 0.83953 0.91129 0.0
C1120 C 0.11055 0.82909 0.9311 0.0
C1121 C 0.12598 0.83923 0.87403 0.0
C1122 C 0.08794 0.83821 0.80259 0.0
H1123 H 0.09298 0.91169 0.69006 0.0
H1124 H 0.08694 0.88662 0.73823 0.0
H1125 H 0.07168 0.85245 0.7585 0.0
H1126 H 0.08379 0.80769 0.92687 0.0
H1127 H 0.08259 0.8081 0.86165 0.0
H1128 H 0.14057 0.82645 0.80423 0.0
C1129 C 0.09576 0.88141 0.71499 0.0
C1130 C 0.08667 0.84631 0.7679 0.0
C1131 C 0.09938 0.89586 0.6875 0.0
C1132 C 0.09546 0.81689 0.91267 0.0
C1133 C 0.09495 0.81683 0.87524 0.0
C1134 C 0.12534 0.83157 0.79418 0.0
C1135 C 0.10494 0.86117 0.71389 0.0
C1136 C 0.10491 0.8479 0.74656 0.0
C1137 C 0.10988 0.82848 0.85562 0.0
C1138 C 0.10751 0.83171 0.8166 0.0
H1139 H 0.12981 0.86481 0.63335 0.0
H1140 H 0.12364 0.8396 0.68179 0.0
H1141 H 0.13841 0.84064 0.74373 0.0
H1142 H 0.13832 0.84893 0.92447 0.0
H1143 H 0.13763 0.8485 0.85968 0.0
C1144 C 0.62236 0.36316 0.84297 0.0
C1145 C 0.60298 0.37387 0.84653 0.0
C1146 C 0.63583 0.3677 0.81429 0.0
C1147 C 0.64747 0.40577 0.74232 0.0
H1148 H 0.65343 0.35634 0.68171 0.0
C1149 C 0.65032 0.41178 0.59024 0.0
C1150 C 0.66035 0.39608 0.56984 0.0
C1151 C 0.64994 0.41045 0.62746 0.0
C1152 C 0.65255 0.37028 0.69848 0.0
H1153 H 0.58327 0.39878 0.8248 0.0
H1154 H 0.60701 0.40703 0.7753 0.0
H1155 H 0.64148 0.35218 0.74307 0.0
H1156 H 0.6784 0.36704 0.57211 0.0
H1157 H 0.67836 0.36496 0.63744 0.0
H1158 H 0.6581 0.42397 0.69762 0.0
C1159 C 0.61171 0.39504 0.7944 0.0
C1160 C 0.64563 0.36786 0.73371 0.0
C1161 C 0.59807 0.39023 0.82256 0.0
C1162 C 0.6706 0.37936 0.58735 0.0
C1163 C 0.67047 0.37815 0.62471 0.0
C1164 C 0.65472 0.40818 0.70725 0.0
C1165 C 0.63035 0.38334 0.78929 0.0
C1166 C 0.64223 0.38565 0.75544 0.0
C1167 C 0.65967 0.39342 0.64522 0.0
C1168 C 0.65644 0.39055 0.68438 0.0
H1169 H 0.62649 0.35042 0.86102 0.0
H1170 H 0.65013 0.35847 0.81085 0.0
H1171 H 0.64513 0.4197 0.75874 0.0
H1172 H 0.64167 0.42446 0.5775 0.0
H1173 H 0.64098 0.42221 0.64208 0.0
C1174 C 0.0999 0.58755 0.82008 0.0
C1175 C 0.11777 0.59299 0.84022 0.0
C1176 C 0.09358 0.60014 0.79142 0.0
C1177 C 0.10488 0.65089 0.74268 0.0
H1178 H 0.08616 0.61737 0.66179 0.0
C1179 C 0.11143 0.67221 0.59123 0.0
C1180 C 0.09396 0.66684 0.56982 0.0
C1181 C 0.11128 0.66791 0.62795 0.0
C1182 C 0.09107 0.62702 0.68428 0.0
H1183 H 0.14259 0.61617 0.8475 0.0
H1184 H 0.13241 0.63758 0.79607 0.0
H1185 H 0.09151 0.60044 0.71899 0.0
H1186 H 0.06235 0.65332 0.57078 0.0
H1187 H 0.06208 0.64618 0.63431 0.0
H1188 H 0.1057 0.67723 0.70632 0.0
C1189 C 0.12273 0.62405 0.80294 0.0
C1190 C 0.09402 0.61734 0.7173 0.0
C1191 C 0.12868 0.61174 0.83234 0.0
C1192 C 0.07588 0.65827 0.58625 0.0
C1193 C 0.07578 0.6539 0.62276 0.0
C1194 C 0.10228 0.66053 0.70923 0.0
C1195 C 0.10545 0.61805 0.78144 0.0
C1196 C 0.10101 0.62907 0.74703 0.0
C1197 C 0.09376 0.65791 0.64364 0.0
C1198 C 0.09536 0.64862 0.67979 0.0
H1199 H 0.09107 0.57329 0.82606 0.0
H1200 H 0.07974 0.59539 0.7764 0.0
H1201 H 0.11005 0.6605 0.76498 0.0
H1202 H 0.12563 0.67869 0.57924 0.0
H1203 H 0.12541 0.67099 0.64348 0.0
C1204 C 0.83413 0.07843 0.59067 0.0
C1205 C 0.82734 0.09702 0.57355 0.0
C1206 C 0.83718 0.07802 0.62756 0.0
C1207 C 0.8294 0.10569 0.71331 0.0
H1208 H 0.88726 0.08822 0.73048 0.0
C1209 C 0.87708 0.12972 0.83895 0.0
C1210 C 0.89448 0.11726 0.84877 0.0
C1211 C 0.86462 0.12399 0.80958 0.0
C1212 C 0.87087 0.09262 0.72673 0.0
H1213 H 0.81746 0.12945 0.58207 0.0
H1214 H 0.82297 0.12875 0.64693 0.0
H1215 H 0.87224 0.08412 0.67156 0.0
H1216 H 0.91137 0.08814 0.83849 0.0
H1217 H 0.88881 0.07725 0.78903 0.0
H1218 H 0.82811 0.1143 0.76872 0.0
C1219 C 0.82559 0.11443 0.63164 0.0
C1220 C 0.86229 0.09036 0.69269 0.0
C1221 C 0.82255 0.11485 0.59455 0.0
C1222 C 0.89812 0.09808 0.83105 0.0
C1223 C 0.88532 0.09202 0.80246 0.0
C1224 C 0.8379 0.10766 0.74777 0.0
C1225 C 0.83371 0.09623 0.64822 0.0
C1226 C 0.84159 0.09709 0.68547 0.0
C1227 C 0.86912 0.10545 0.79007 0.0
C1228 C 0.85889 0.1014 0.7548 0.0
H1229 H 0.83868 0.06458 0.57563 0.0
H1230 H 0.84342 0.06378 0.63972 0.0
H1231 H 0.81336 0.11097 0.70836 0.0
H1232 H 0.87411 0.14469 0.85217 0.0
H1233 H 0.85242 0.13483 0.80087 0.0
C1234 C 0.3796 0.82562 0.58615 0.0
C1235 C 0.39926 0.82585 0.56852 0.0
C1236 C 0.37841 0.82782 0.6233 0.0
C1237 C 0.37875 0.83144 0.7041 0.0
H1238 H 0.41819 0.8746 0.73538 0.0
C1239 C 0.3692 0.87684 0.83865 0.0
C1240 C 0.37097 0.89891 0.83475 0.0
C1241 C 0.37545 0.8633 0.81086 0.0
C1242 C 0.4071 0.86246 0.72717 0.0
H1243 H 0.43323 0.82741 0.57745 0.0
H1244 H 0.43119 0.82937 0.64152 0.0
H1245 H 0.4233 0.85777 0.67796 0.0
H1246 H 0.38123 0.92397 0.799 0.0
H1247 H 0.39182 0.90061 0.75102 0.0
H1248 H 0.36165 0.83765 0.75253 0.0
C1249 C 0.41658 0.82822 0.62656 0.0
C1250 C 0.41019 0.85251 0.69433 0.0
C1251 C 0.41775 0.82655 0.58938 0.0
C1252 C 0.37959 0.90708 0.80299 0.0
C1253 C 0.38588 0.89363 0.7755 0.0
C1254 C 0.37554 0.84161 0.73695 0.0
C1255 C 0.39691 0.83003 0.64386 0.0
C1256 C 0.39567 0.83737 0.68171 0.0
C1257 C 0.38377 0.8716 0.77892 0.0
C1258 C 0.38926 0.85782 0.74812 0.0
H1259 H 0.36499 0.82507 0.57103 0.0
H1260 H 0.36292 0.82928 0.63542 0.0
H1261 H 0.36748 0.81956 0.69562 0.0
H1262 H 0.3626 0.87006 0.8628 0.0
H1263 H 0.37371 0.84638 0.81428 0.0
C1264 C 0.41279 0.89557 0.32608 0.0
C1265 C 0.40717 0.87742 0.34537 0.0
C1266 C 0.4007 0.90204 0.29686 0.0
C1267 C 0.35142 0.89016 0.24426 0.0
H1268 H 0.38687 0.90887 0.16576 0.0
C1269 C 0.33309 0.88232 0.09204 0.0
C1270 C 0.33835 0.89977 0.07056 0.0
C1271 C 0.3372 0.88265 0.12882 0.0
C1272 C 0.37668 0.90396 0.18755 0.0
H1273 H 0.38406 0.85234 0.35065 0.0
H1274 H 0.36358 0.86283 0.29847 0.0
H1275 H 0.40224 0.90426 0.22443 0.0
H1276 H 0.35192 0.93134 0.07108 0.0
H1277 H 0.35885 0.93193 0.13483 0.0
H1278 H 0.32616 0.88863 0.20586 0.0
C1279 C 0.37684 0.8726 0.30635 0.0
C1280 C 0.38545 0.90144 0.22141 0.0
C1281 C 0.38863 0.86648 0.33624 0.0
C1282 C 0.34702 0.91786 0.08678 0.0
C1283 C 0.35127 0.91813 0.12334 0.0
C1284 C 0.34271 0.89234 0.21001 0.0
C1285 C 0.38316 0.89005 0.28552 0.0
C1286 C 0.37302 0.89439 0.25029 0.0
C1287 C 0.34699 0.90032 0.1445 0.0
C1288 C 0.35533 0.8992 0.18138 0.0
H1289 H 0.4269 0.90441 0.33295 0.0
H1290 H 0.40566 0.916 0.28235 0.0
H1291 H 0.34126 0.88496 0.26585 0.0
H1292 H 0.32657 0.86811 0.08015 0.0
H1293 H 0.33396 0.86863 0.14454 0.0
C1294 C 0.63012 0.4056 0.29775 0.0
C1295 C 0.62861 0.39867 0.33337 0.0
C1296 C 0.62756 0.39143 0.26959 0.0
C1297 C 0.60251 0.34368 0.24043 0.0
H1298 H 0.64579 0.34532 0.16687 0.0
C1299 C 0.62249 0.31534 0.08561 0.0
C1300 C 0.6039 0.32277 0.06935 0.0
C1301 C 0.62528 0.31715 0.12255 0.0
C1302 C 0.63375 0.34419 0.1874 0.0
H1303 H 0.62256 0.3715 0.36732 0.0
H1304 H 0.61749 0.34666 0.31741 0.0
H1305 H 0.65151 0.36377 0.22311 0.0
H1306 H 0.57329 0.33712 0.07954 0.0
H1307 H 0.57806 0.3401 0.14356 0.0
H1308 H 0.58425 0.32501 0.20377 0.0
C1309 C 0.62095 0.3631 0.31173 0.0
C1310 C 0.63698 0.35494 0.21946 0.0
C1311 C 0.62387 0.37729 0.34015 0.0
C1312 C 0.58755 0.33064 0.09108 0.0
C1313 C 0.59033 0.33245 0.128 0.0
C1314 C 0.59917 0.33303 0.20806 0.0
C1315 C 0.62317 0.37005 0.27627 0.0
C1316 C 0.62112 0.35538 0.24572 0.0
C1317 C 0.60959 0.3266 0.1439 0.0
C1318 C 0.61451 0.33376 0.18078 0.0
H1319 H 0.63378 0.42192 0.29148 0.0
H1320 H 0.62904 0.39721 0.24242 0.0
H1321 H 0.59007 0.34385 0.26036 0.0
H1322 H 0.63535 0.30918 0.0695 0.0
H1323 H 0.64021 0.31227 0.13412 0.0
C1324 C 0.17182 0.61716 0.0846 0.0
C1325 C 0.16233 0.59961 0.06818 0.0
C1326 C 0.17171 0.61917 0.12187 0.0
C1327 C 0.15686 0.59049 0.20626 0.0
H1328 H 0.1404 0.64661 0.23757 0.0
C1329 C 0.09708 0.6087 0.31675 0.0
C1330 C 0.10118 0.62533 0.34065 0.0
C1331 C 0.11137 0.60398 0.28947 0.0
C1332 C 0.14545 0.63094 0.22946 0.0
H1333 H 0.14517 0.57047 0.07772 0.0
H1334 H 0.14452 0.57408 0.14206 0.0
H1335 H 0.15345 0.64153 0.17704 0.0
H1336 H 0.12376 0.64954 0.35581 0.0
H1337 H 0.14852 0.6417 0.30698 0.0
H1338 H 0.14694 0.5798 0.25806 0.0
C1339 C 0.15288 0.58594 0.12671 0.0
C1340 C 0.15302 0.62799 0.19473 0.0
C1341 C 0.15324 0.58383 0.0896 0.0
C1342 C 0.12029 0.63656 0.33779 0.0
C1343 C 0.1344 0.63214 0.30991 0.0
C1344 C 0.14893 0.59341 0.24079 0.0
C1345 C 0.16169 0.60387 0.14335 0.0
C1346 C 0.15805 0.60759 0.18221 0.0
C1347 C 0.12982 0.61607 0.28515 0.0
C1348 C 0.1425 0.61355 0.25222 0.0
H1349 H 0.17887 0.62957 0.06857 0.0
H1350 H 0.17892 0.63304 0.13373 0.0
H1351 H 0.16112 0.57465 0.1979 0.0
H1352 H 0.08249 0.59975 0.31848 0.0
H1353 H 0.10738 0.59166 0.27047 0.0
C1354 C 0.88623 0.08896 0.31602 0.0
C1355 C 0.87583 0.09716 0.3462 0.0
C1356 C 0.89258 0.10221 0.28832 0.0
C1357 C 0.87857 0.15267 0.24657 0.0
H1358 H 0.92575 0.1371 0.18585 0.0
C1359 C 0.91578 0.16494 0.09445 0.0
C1360 C 0.89657 0.16467 0.07549 0.0
C1361 C 0.91595 0.16411 0.13178 0.0
C1362 C 0.91277 0.14222 0.20264 0.0
H1363 H 0.86493 0.126 0.37176 0.0
H1364 H 0.87631 0.14934 0.32319 0.0
H1365 H 0.92284 0.12191 0.24493 0.0
H1366 H 0.86246 0.16439 0.08137 0.0
H1367 H 0.86273 0.16162 0.14598 0.0
H1368 H 0.86855 0.17309 0.20425 0.0
C1369 C 0.87925 0.13252 0.3209 0.0
C1370 C 0.91094 0.13317 0.23649 0.0
C1371 C 0.87285 0.11917 0.3488 0.0
C1372 C 0.87756 0.16461 0.09502 0.0
C1373 C 0.87773 0.16327 0.13231 0.0
C1374 C 0.88058 0.16201 0.21282 0.0
C1375 C 0.88883 0.12411 0.29002 0.0
C1376 C 0.89328 0.13745 0.25814 0.0
C1377 C 0.89696 0.16221 0.15116 0.0
C1378 C 0.89718 0.15616 0.18973 0.0
H1379 H 0.88887 0.07211 0.31311 0.0
H1380 H 0.89955 0.09506 0.26477 0.0
H1381 H 0.86477 0.15639 0.26255 0.0
H1382 H 0.93082 0.1643 0.08093 0.0
H1383 H 0.93108 0.16382 0.14529 0.0
C1384 C 0.36884 0.63312 0.15755 0.0
C1385 C 0.38792 0.6217 0.15714 0.0
C1386 C 0.35406 0.62982 0.18485 0.0
C1387 C 0.33732 0.59368 0.25619 0.0
H1388 H 0.33265 0.6436 0.31592 0.0
C1389 C 0.33236 0.58856 0.40743 0.0
C1390 C 0.32381 0.60517 0.42772 0.0
C1391 C 0.33235 0.58947 0.3702 0.0
C1392 C 0.33309 0.62958 0.2993 0.0
H1393 H 0.40589 0.59694 0.18319 0.0
H1394 H 0.37982 0.59077 0.23022 0.0
H1395 H 0.34681 0.64674 0.25573 0.0
H1396 H 0.30762 0.63529 0.42507 0.0
H1397 H 0.30695 0.63666 0.3597 0.0
H1398 H 0.32406 0.57636 0.29985 0.0
C1399 C 0.37638 0.60237 0.20973 0.0
C1400 C 0.3413 0.63142 0.26477 0.0
C1401 C 0.39135 0.60601 0.18302 0.0
C1402 C 0.31427 0.62224 0.40999 0.0
C1403 C 0.31402 0.62306 0.37259 0.0
C1404 C 0.32872 0.59188 0.29047 0.0
C1405 C 0.35791 0.61466 0.21147 0.0
C1406 C 0.34438 0.61335 0.24361 0.0
C1407 C 0.32372 0.607 0.35223 0.0
C1408 C 0.32753 0.60963 0.31316 0.0
H1409 H 0.36586 0.64538 0.13795 0.0
H1410 H 0.33994 0.63953 0.18582 0.0
H1411 H 0.33939 0.57956 0.24012 0.0
H1412 H 0.34047 0.57552 0.42011 0.0
H1413 H 0.34045 0.57703 0.35574 0.0
C1414 C 0.87531 0.38301 0.15233 0.0
C1415 C 0.87764 0.40513 0.15399 0.0
C1416 C 0.88162 0.37032 0.1811 0.0
C1417 C 0.91202 0.37169 0.26659 0.0
H1418 H 0.87051 0.33068 0.29841 0.0
C1419 C 0.87974 0.33779 0.40778 0.0
C1420 C 0.8989 0.33728 0.4268 0.0
C1421 C 0.87963 0.34011 0.37062 0.0
C1422 C 0.88227 0.34208 0.28994 0.0
H1423 H 0.88946 0.43108 0.18636 0.0
H1424 H 0.90001 0.40921 0.23625 0.0
H1425 H 0.86672 0.3471 0.23986 0.0
H1426 H 0.9331 0.33837 0.42067 0.0
H1427 H 0.9329 0.34056 0.35641 0.0
H1428 H 0.92663 0.36818 0.31749 0.0
C1429 C 0.8936 0.4015 0.21277 0.0
C1430 C 0.88027 0.35127 0.25609 0.0
C1431 C 0.88735 0.41412 0.18416 0.0
C1432 C 0.91797 0.33789 0.40743 0.0
C1433 C 0.91787 0.33972 0.37023 0.0
C1434 C 0.91387 0.36274 0.30051 0.0
C1435 C 0.89043 0.3795 0.21197 0.0
C1436 C 0.89472 0.36675 0.24457 0.0
C1437 C 0.89873 0.34177 0.35144 0.0
C1438 C 0.89865 0.34831 0.31315 0.0
H1439 H 0.86794 0.37556 0.12942 0.0
H1440 H 0.87919 0.35339 0.17948 0.0
H1441 H 0.92369 0.38323 0.25825 0.0
H1442 H 0.86475 0.33746 0.42182 0.0
H1443 H 0.86453 0.34188 0.35734 0.0
C1444 C 0.10389 0.89432 0.18077 0.0
C1445 C 0.10819 0.87817 0.15602 0.0
C1446 C 0.11779 0.89829 0.20893 0.0
C1447 C 0.15086 0.86921 0.26802 0.0
H1448 H 0.16522 0.92437 0.30632 0.0
C1449 C 0.17359 0.8777 0.41555 0.0
C1450 C 0.16332 0.89441 0.43316 0.0
C1451 C 0.17458 0.8772 0.37817 0.0
C1452 C 0.16133 0.90883 0.29605 0.0
H1453 H 0.13088 0.85419 0.14019 0.0
H1454 H 0.15494 0.86074 0.19036 0.0
H1455 H 0.15232 0.92133 0.24497 0.0
H1456 H 0.14602 0.92365 0.42552 0.0
H1457 H 0.14728 0.92265 0.361 0.0
H1458 H 0.15796 0.85678 0.31962 0.0
C1459 C 0.14093 0.87047 0.18753 0.0
C1460 C 0.15412 0.90712 0.26085 0.0
C1461 C 0.12721 0.86678 0.15887 0.0
C1462 C 0.15465 0.91091 0.41286 0.0
C1463 C 0.15539 0.9103 0.37562 0.0
C1464 C 0.15772 0.87094 0.30338 0.0
C1465 C 0.13607 0.88594 0.21323 0.0
C1466 C 0.14813 0.88738 0.24699 0.0
C1467 C 0.16491 0.89318 0.35769 0.0
C1468 C 0.16223 0.89089 0.31831 0.0
H1469 H 0.08939 0.90341 0.17908 0.0
H1470 H 0.11356 0.91016 0.22859 0.0
H1471 H 0.14614 0.85382 0.25806 0.0
H1472 H 0.18035 0.86475 0.43067 0.0
H1473 H 0.18232 0.86392 0.36535 0.0
C1474 C 0.62193 0.1171 0.14549 0.0
C1475 C 0.61969 0.09503 0.14845 0.0
C1476 C 0.61532 0.1304 0.17336 0.0
C1477 C 0.5834 0.13056 0.25729 0.0
H1478 H 0.62389 0.17247 0.28946 0.0
C1479 C 0.61365 0.16511 0.39874 0.0
C1480 C 0.59437 0.1647 0.41749 0.0
C1481 C 0.61409 0.16327 0.36151 0.0
C1482 C 0.61239 0.16083 0.28088 0.0
H1483 H 0.60797 0.06973 0.18238 0.0
H1484 H 0.5969 0.09262 0.23063 0.0
H1485 H 0.6289 0.15524 0.23175 0.0
H1486 H 0.56024 0.16305 0.41057 0.0
H1487 H 0.56097 0.16175 0.34632 0.0
H1488 H 0.56789 0.13454 0.3073 0.0
C1489 C 0.60343 0.09984 0.2068 0.0
C1490 C 0.61511 0.15117 0.2475 0.0
C1491 C 0.61001 0.08664 0.17915 0.0
C1492 C 0.57546 0.16405 0.39772 0.0
C1493 C 0.57588 0.16275 0.36044 0.0
C1494 C 0.58085 0.13995 0.29075 0.0
C1495 C 0.60624 0.12185 0.20454 0.0
C1496 C 0.6011 0.13529 0.23601 0.0
C1497 C 0.59519 0.16127 0.34193 0.0
C1498 C 0.59574 0.15466 0.30363 0.0
H1499 H 0.6293 0.12407 0.12215 0.0
H1500 H 0.61757 0.14731 0.17072 0.0
H1501 H 0.57203 0.11874 0.24887 0.0
H1502 H 0.62856 0.16562 0.41299 0.0
H1503 H 0.62934 0.162 0.3485 0.0
C1504 C 0.56727 0.04047 0.01041 0.0
C1505 C 0.58387 0.02701 0.00038 0.0
C1506 C 0.54633 0.03456 0.00425 0.0
C1507 C 0.512 0.99656 0.95631 0.0
H1508 H 0.47545 0.00407 0.0388 0.0
C1509 C 0.43045 0.95697 0.9637 0.0
C1510 C 0.41373 0.97 0.97469 0.0
C1511 C 0.45135 0.96349 0.9684 0.0
C1512 C 0.4854 0.00201 0.01545 0.0
H1513 H 0.59201 0.99736 0.97508 0.0
H1514 H 0.55531 0.98687 0.96412 0.0
H1515 H 0.51149 0.01773 0.04025 0.0
H1516 H 0.40534 -0.00035 -0.00024 0.0
H1517 H 0.44196 0.01118 0.00824 0.0
H1518 H 0.4859 0.98078 0.93156 0.0
C1519 C 0.5584 0.00212 0.97628 0.0
C1520 C 0.50601 0.00992 0.01619 0.0
C1521 C 0.57936 0.00808 0.98241 0.0
C1522 C 0.41811 0.98924 0.99175 0.0
C1523 C 0.43902 0.99581 0.99646 0.0
C1524 C 0.49137 0.98865 0.95557 0.0
C1525 C 0.54166 0.01498 0.98823 0.0
C1526 C 0.51953 0.00728 0.98662 0.0
C1527 C 0.45584 0.98324 0.98395 0.0
C1528 C 0.47787 0.99125 0.98518 0.0
H1529 H 0.57046 0.05499 0.02486 0.0
H1530 H 0.53378 0.04495 0.01324 0.0
H1531 H 0.52198 0.99445 0.93302 0.0
H1532 H 0.42733 0.94222 0.94987 0.0
H1533 H 0.46398 0.95334 0.95897 0.0
C1534 C 0.51147 0.41213 0.0144 0.0
C1535 C 0.53093 0.4092 0.99708 0.0
C1536 C 0.50398 0.43253 0.02116 0.0
C1537 C 0.51834 0.48937 0.02198 0.0
H1538 H 0.46078 0.49707 0.98841 0.0
C1539 C 0.48406 0.57249 0.0032 0.0
C1540 C 0.46389 0.57573 0.01777 0.0
C1541 C 0.49176 0.55199 -0.00169 0.0
C1542 C 0.4768 0.49517 -0.00185 0.0
H1543 H 0.5584 0.42487 0.97501 0.0
H1544 H 0.54557 0.46057 0.98739 0.0
H1545 H 0.47596 0.46165 0.99058 0.0
H1546 H 0.43556 0.5605 0.03743 0.0
H1547 H 0.44886 0.52457 0.02874 0.0
H1548 H 0.51919 0.52288 0.02961 0.0
C1549 C 0.53612 0.44723 0.996 0.0
C1550 C 0.48546 0.47487 -0.00039 0.0
C1551 C 0.54355 0.42682 0.98914 0.0
C1552 C 0.45099 0.55827 0.02534 0.0
C1553 C 0.45869 0.53774 0.02056 0.0
C1554 C 0.50966 0.50968 0.02063 0.0
C1555 C 0.51585 0.45029 0.01066 0.0
C1556 C 0.50634 0.47175 0.01147 0.0
C1557 C 0.47946 0.5344 0.00826 0.0
C1558 C 0.48881 0.51283 0.00854 0.0
H1559 H 0.5014 0.3987 0.0202 0.0
H1560 H 0.48845 0.43442 0.033 0.0
H1561 H 0.53441 0.48745 0.03146 0.0
H1562 H 0.49434 0.58583 0.99777 0.0
H1563 H 0.50767 0.54994 0.98812 0.0
C1564 C 0.06225 0.53897 0.971 0.0
C1565 C 0.07842 0.52549 0.98281 0.0
C1566 C 0.04109 0.53307 0.97483 0.0
C1567 C 0.00909 0.48481 0.98013 0.0
H1568 H 0.96322 0.52333 0.00235 0.0
C1569 C 0.92386 0.45784 0.01004 0.0
C1570 C 0.90713 0.47096 -0.00061 0.0
C1571 C 0.94476 0.46394 0.00401 0.0
C1572 C 0.97584 0.51247 0.99548 0.0
H1573 H 0.08549 0.49586 0.009 0.0
H1574 H 0.04838 0.48564 0.01657 0.0
H1575 H -0.00033 0.53593 0.00464 0.0
H1576 H 0.89878 0.50008 0.97266 0.0
H1577 H 0.93548 0.51075 0.96143 0.0
H1578 H 0.98529 0.46132 0.97113 0.0
C1579 C 0.05201 0.50065 0.00402 0.0
C1580 C 0.99671 0.51966 0.99704 0.0
C1581 C 0.07318 0.50658 0.00021 0.0
C1582 C 0.91152 0.48966 0.98069 0.0
C1583 C 0.93246 0.49584 0.97474 0.0
C1584 C 0.98823 0.47762 0.97857 0.0
C1585 C 0.03577 0.51351 0.99029 0.0
C1586 C 0.01358 0.50587 0.98959 0.0
C1587 C 0.9493 0.48338 0.98743 0.0
C1588 C 0.97137 0.49134 0.98638 0.0
H1589 H 0.06603 0.5534 0.95673 0.0
H1590 H 0.02898 0.54324 0.9637 0.0
H1591 H 0.02171 0.47391 0.97342 0.0
H1592 H 0.9208 0.44356 0.02521 0.0
H1593 H 0.95733 0.45408 0.01443 0.0
C1594 C 0.05318 0.93604 0.01216 0.0
C1595 C 0.03945 0.91918 0.00479 0.0
C1596 C 0.04665 0.95685 0.00625 0.0
C1597 C 0.00421 0.9901 0.9665 0.0
H1598 H 0.015 0.02581 0.04899 0.0
C1599 C 0.95947 0.06774 0.98507 0.0
C1600 C 0.97239 0.0854 0.9911 0.0
C1601 C 0.96753 0.04738 0.98965 0.0
C1602 C 0.01196 0.01606 0.02572 0.0
H1603 H 0.00893 0.91038 0.9835 0.0
H1604 H 0.99742 0.94667 0.97294 0.0
H1605 H 0.03124 0.99088 0.04544 0.0
H1606 H 0.00319 0.09602 0.00862 0.0
H1607 H 0.0173 0.06036 0.0173 0.0
H1608 H 0.9847 0.0152 0.94706 0.0
C1609 C 0.01329 0.94401 0.98287 0.0
C1610 C 0.0214 0.99613 0.02348 0.0
C1611 C 0.01986 0.92322 0.9887 0.0
C1612 C 0.99289 0.08254 0.00452 0.0
C1613 C 0.00096 0.06216 0.00921 0.0
C1614 C 0.99471 0.00998 0.96883 0.0
C1615 C 0.02623 0.96106 0.99314 0.0
C1616 C 0.01756 0.98288 0.9939 0.0
C1617 C 0.98865 0.04441 0.00026 0.0
C1618 C -0.00163 0.02311 -0.00142 0.0
H1619 H 0.06823 0.93322 0.02515 0.0
H1620 H 0.05714 0.96965 0.01377 0.0
H1621 H 0.00111 0.98038 0.94322 0.0
H1622 H 0.94372 0.06966 0.97412 0.0
H1623 H 0.95758 0.03396 0.98316 0.0
C1624 C 0.42872 0.54698 0.50655 0.0
C1625 C 0.41102 0.53463 0.49803 0.0
C1626 C 0.44905 0.5396 0.49901 0.0
C1627 C 0.4765 0.48886 0.4909 0.0
H1628 H 0.5247 0.52381 0.46614 0.0
C1629 C 0.56078 0.45619 0.46554 0.0
C1630 C 0.57783 0.46868 0.47687 0.0
C1631 C 0.54006 0.46355 0.46934 0.0
C1632 C 0.51141 0.51392 0.47354 0.0
H1633 H 0.40024 0.50566 0.47333 0.0
H1634 H 0.43584 0.49285 0.45916 0.0
H1635 H 0.48922 0.53892 0.46449 0.0
H1636 H 0.58695 0.49802 0.50226 0.0
H1637 H 0.55065 0.51079 0.50978 0.0
H1638 H 0.49872 0.46389 0.50011 0.0
C1639 C 0.43409 0.5081 0.47205 0.0
C1640 C 0.49109 0.52254 0.47237 0.0
C1641 C 0.41376 0.51552 0.47961 0.0
C1642 C 0.57392 0.48806 0.49385 0.0
C1643 C 0.55322 0.49545 0.49761 0.0
C1644 C 0.49682 0.48023 0.49201 0.0
C1645 C 0.45197 0.51966 0.48301 0.0
C1646 C 0.47341 0.51015 0.48124 0.0
C1647 C 0.53613 0.48359 0.48429 0.0
C1648 C 0.51452 0.49271 0.48363 0.0
H1649 H 0.42691 0.56156 0.52151 0.0
H1650 H 0.46245 0.54882 0.50809 0.0
H1651 H 0.46325 0.479 0.49862 0.0
H1652 H 0.56355 0.44141 0.45162 0.0
H1653 H 0.52725 0.45411 0.45859 0.0
C1654 C 0.04445 0.56717 0.47671 0.0
C1655 C 0.02995 0.58345 0.48362 0.0
C1656 C 0.03907 0.54618 0.48389 0.0
C1657 C 0.00014 0.51184 0.52995 0.0
H1658 H 0.0124 0.47314 0.45204 0.0
C1659 C 0.96207 0.42964 0.52395 0.0
C1660 C 0.97572 0.41275 0.51627 0.0
C1661 C 0.96864 0.45045 0.51837 0.0
C1662 C 0.00902 0.48369 0.47414 0.0
H1663 H -0.00106 0.59102 0.50433 0.0
H1664 H 0.98942 0.5543 0.51711 0.0
H1665 H 0.02532 0.50944 0.44933 0.0
H1666 H 0.0065 0.404 0.49587 0.0
H1667 H 0.01813 0.44048 0.48595 0.0
H1668 H 0.98374 0.48613 0.55466 0.0
C1669 C 0.00504 0.55766 0.50666 0.0
C1670 C 0.01651 0.50446 0.47271 0.0
C1671 C 0.01045 0.57865 0.49948 0.0
C1672 C 0.99566 0.41687 0.50141 0.0
C1673 C 0.00227 0.43771 0.49585 0.0
C1674 C 0.99265 0.49108 0.53138 0.0
C1675 C 0.01903 0.54115 0.49785 0.0
C1676 C 0.01209 0.51879 0.50054 0.0
C1677 C 0.98905 0.45473 0.50526 0.0
C1678 C 0.99691 0.47681 0.5034 0.0
H1679 H 0.05943 0.57057 0.46385 0.0
H1680 H 0.0503 0.53383 0.47731 0.0
H1681 H 0.99667 0.52243 0.55197 0.0
H1682 H 0.94674 0.42677 0.53597 0.0
H1683 H 0.95796 0.46321 0.5253 0.0
C1684 C 0.07164 0.98297 0.49542 0.0
C1685 C 0.07524 0.96353 0.51228 0.0
C1686 C 0.051 0.99001 0.48964 0.0
C1687 C 0.99442 0.9742 0.49249 0.0
H1688 H 0.9862 0.03234 0.52285 0.0
C1689 C 0.91117 0.00785 0.51344 0.0
C1690 C 0.90745 0.02693 0.49549 0.0
C1691 C 0.93185 0.00069 0.51853 0.0
C1692 C 0.98826 0.01612 0.51416 0.0
H1693 H 0.06056 0.93566 0.53482 0.0
H1694 H 0.02443 0.94778 0.52459 0.0
H1695 H 0.02185 0.01779 0.51977 0.0
H1696 H 0.92204 0.05409 0.47036 0.0
H1697 H 0.95821 0.04189 0.47985 0.0
H1698 H 0.96078 0.97253 0.4871 0.0
C1699 C 0.0374 0.95754 0.51532 0.0
C1700 C 0.00868 0.00782 0.51209 0.0
C1701 C 0.05805 0.95051 0.521 0.0
C1702 C 0.92462 0.03952 0.48498 0.0
C1703 C 0.94529 0.03246 0.49022 0.0
C1704 C 0.97398 0.98249 0.49467 0.0
C1705 C 0.03366 0.97775 0.50095 0.0
C1706 C 0.012 0.98678 0.50116 0.0
C1707 C 0.94908 0.01258 0.50576 0.0
C1708 C 0.9707 0.00353 0.50554 0.0
H1709 H 0.08477 0.99334 0.48905 0.0
H1710 H 0.04861 0.00549 0.4779 0.0
H1711 H 0.99646 0.95799 0.48372 0.0
H1712 H 0.89807 0.99782 0.52129 0.0
H1713 H 0.93434 0.98546 0.53108 0.0
C1714 C 0.45909 0.92445 0.48418 0.0
C1715 C 0.47346 0.90871 0.49452 0.0
C1716 C 0.46413 0.94577 0.48863 0.0
C1717 C 0.50199 0.98305 0.5308 0.0
H1718 H 0.49033 0.01678 0.44638 0.0
C1719 C 0.53738 0.06588 0.51448 0.0
C1720 C 0.52289 0.08173 0.50515 0.0
C1721 C 0.53198 0.0446 0.51069 0.0
C1722 C 0.49358 0.00761 0.47021 0.0
H1723 H 0.50372 0.90256 0.51928 0.0
H1724 H 0.51272 0.93992 0.52707 0.0
H1725 H 0.4782 0.98022 0.44907 0.0
H1726 H 0.49194 0.08814 0.48318 0.0
H1727 H 0.48244 0.05083 0.47606 0.0
H1728 H 0.51749 0.01045 0.55179 0.0
C1729 C 0.49744 0.93588 0.51591 0.0
C1730 C 0.48652 0.9867 0.4719 0.0
C1731 C 0.49232 0.91452 0.5116 0.0
C1732 C 0.50345 0.07609 0.48989 0.0
C1733 C 0.49803 0.05477 0.48602 0.0
C1734 C 0.5091 0.00394 0.52906 0.0
C1735 C 0.48375 0.95173 0.50318 0.0
C1736 C 0.49061 0.97418 0.50224 0.0
C1737 C 0.51195 0.03883 0.49762 0.0
C1738 C 0.50499 0.01644 0.49872 0.0
H1739 H 0.44457 0.9203 0.47047 0.0
H1740 H 0.45305 0.95759 0.47925 0.0
H1741 H 0.50522 0.97391 0.55466 0.0
H1742 H 0.55233 0.06995 0.52685 0.0
H1743 H 0.54315 0.03266 0.51929 0.0
loop_
_geom_bond_atom_site_label_1
_geom_bond_atom_site_label_2
_geom_bond_distance
_geom_bond_site_symmetry_2
_ccdc_geom_bond_type
Co0 O3 1.970 . S
Co0 N17 1.989 . S
Co0 O25 1.967 . S
Co0 O32 1.920 . S
Co1 O4 1.966 . S
Co1 N10 2.022 . S
Co1 N18 1.993 . S
Co1 O26 1.941 . S
C2 O3 1.258 . S
C2 O4 1.263 . S
O3 Co0 1.970 . S
O3 C2 1.258 . S
O4 Co1 1.966 . S
O4 C2 1.263 . S
C5 O6 1.235 . S
C5 O32 1.289 1_565 S
O6 C5 1.235 . S
C7 C9 1.400 1_554 S
C7 N10 1.351 . S
C7 C12 1.501 . S
C8 C9 1.387 1_554 S
C8 N11 1.341 . S
C9 C7 1.400 1_556 S
C9 C8 1.387 1_556 S
N10 Co1 2.022 . S
N10 C7 1.351 . S
N10 N11 1.365 . S
N11 C8 1.341 . S
N11 N10 1.365 . S
N11 H31 0.862 . S
C12 C7 1.501 . S
C12 H13 0.961 . S
C12 H14 0.961 . S
C12 H15 0.960 . S
H13 C12 0.961 . S
H14 C12 0.961 . S
H15 C12 0.960 . S
C16 N17 1.342 . S
C16 C20 1.401 . S
C16 C21 1.499 . S
N17 Co0 1.989 . S
N17 C16 1.342 . S
N17 N18 1.388 . S
N18 Co1 1.993 . S
N18 N17 1.388 . S
N18 C19 1.346 . S
C19 N18 1.346 . S
C19 C20 1.396 . S
C19 C29 1.510 . S
C20 C16 1.401 . S
C20 C19 1.396 . S
C21 C16 1.499 . S
C21 H22 0.959 . S
C21 H23 0.960 1_545 S
C21 H24 0.961 . S
H22 C21 0.959 . S
H23 C21 0.960 1_565 S
H24 C21 0.961 . S
O25 Co0 1.967 . S
O25 C33 1.258 . S
O26 Co1 1.941 . S
O26 C33 1.266 . S
H27 C29 0.959 . S
H28 C29 0.961 1_556 S
C29 C19 1.510 . S
C29 H27 0.959 . S
C29 H28 0.961 1_554 S
C29 H30 0.960 . S
H30 C29 0.960 . S
H31 N11 0.862 . S
O32 Co0 1.920 . S
O32 C5 1.289 1_545 S
C33 O25 1.258 . S
C33 O26 1.266 . S
Co34 O37 1.970 . S
Co34 N51 1.989 . S
Co34 O59 1.967 . S
Co34 O66 1.920 . S
Co35 O38 1.966 . S
Co35 N44 2.022 . S
Co35 N52 1.993 . S
Co35 O60 1.941 . S
C36 O37 1.258 . S
C36 O38 1.263 . S
O37 Co34 1.970 . S
O37 C36 1.258 . S
O38 Co35 1.966 . S
O38 C36 1.263 . S
C39 O40 1.235 . S
C39 O66 1.289 . S
O40 C39 1.235 . S
C41 C43 1.400 1_554 S
C41 N44 1.351 . S
C41 C46 1.501 . S
C42 C43 1.387 1_554 S
C42 N45 1.341 . S
C43 C41 1.400 1_556 S
C43 C42 1.387 1_556 S
N44 Co35 2.022 . S
N44 C41 1.351 . S
N44 N45 1.365 . S
N45 C42 1.341 . S
N45 N44 1.365 . S
N45 H65 0.862 . S
C46 C41 1.501 . S
C46 H47 0.961 . S
C46 H48 0.961 . S
C46 H49 0.960 . S
H47 C46 0.961 . S
H48 C46 0.961 . S
H49 C46 0.960 . S
C50 N51 1.342 . S
C50 C54 1.401 . S
C50 C55 1.499 . S
N51 Co34 1.989 . S
N51 C50 1.342 . S
N51 N52 1.388 . S
N52 Co35 1.993 . S
N52 N51 1.388 . S
N52 C53 1.346 . S
C53 N52 1.346 . S
C53 C54 1.396 . S
C53 C63 1.510 . S
C54 C50 1.401 . S
C54 C53 1.396 . S
C55 C50 1.499 . S
C55 H56 0.959 . S
C55 H57 0.960 . S
C55 H58 0.961 . S
H56 C55 0.959 . S
H57 C55 0.960 . S
H58 C55 0.961 . S
O59 Co34 1.967 . S
O59 C67 1.258 . S
O60 Co35 1.941 . S
O60 C67 1.266 . S
H61 C63 0.959 . S
H62 C63 0.961 1_556 S
C63 C53 1.510 . S
C63 H61 0.959 . S
C63 H62 0.961 1_554 S
C63 H64 0.960 . S
H64 C63 0.960 . S
H65 N45 0.862 . S
O66 Co34 1.920 . S
O66 C39 1.289 . S
C67 O59 1.258 . S
C67 O60 1.266 . S
Co68 O71 1.970 . S
Co68 N85 1.989 . S
Co68 O93 1.967 . S
Co68 O100 1.920 . S
Co69 O72 1.966 . S
Co69 N78 2.022 . S
Co69 N86 1.993 . S
Co69 O94 1.941 . S
C70 O71 1.258 . S
C70 O72 1.263 . S
O71 Co68 1.970 . S
O71 C70 1.258 . S
O72 Co69 1.966 . S
O72 C70 1.263 . S
C73 O74 1.235 . S
C73 O100 1.289 . S
O74 C73 1.235 . S
C75 C77 1.400 1_554 S
C75 N78 1.351 . S
C75 C80 1.501 . S
C76 C77 1.387 1_554 S
C76 N79 1.341 . S
C77 C75 1.400 1_556 S
C77 C76 1.387 1_556 S
N78 Co69 2.022 . S
N78 C75 1.351 . S
N78 N79 1.365 . S
N79 C76 1.341 . S
N79 N78 1.365 . S
N79 H99 0.862 . S
C80 C75 1.501 . S
C80 H81 0.961 . S
C80 H82 0.961 . S
C80 H83 0.960 . S
H81 C80 0.961 . S
H82 C80 0.961 . S
H83 C80 0.960 . S
C84 N85 1.342 . S
C84 C88 1.401 . S
C84 C89 1.499 . S
N85 Co68 1.989 . S
N85 C84 1.342 . S
N85 N86 1.388 . S
N86 Co69 1.993 . S
N86 N85 1.388 . S
N86 C87 1.346 . S
C87 N86 1.346 . S
C87 C88 1.396 . S
C87 C97 1.510 . S
C88 C84 1.401 . S
C88 C87 1.396 . S
C89 C84 1.499 . S
C89 H90 0.959 . S
C89 H91 0.960 . S
C89 H92 0.961 . S
H90 C89 0.959 . S
H91 C89 0.960 . S
H92 C89 0.961 . S
O93 Co68 1.967 . S
O93 C101 1.258 . S
O94 Co69 1.941 . S
O94 C101 1.266 . S
H95 C97 0.959 . S
H96 C97 0.961 1_556 S
C97 C87 1.510 . S
C97 H95 0.959 . S
C97 H96 0.961 1_554 S
C97 H98 0.960 . S
H98 C97 0.960 . S
H99 N79 0.862 . S
O100 Co68 1.920 . S
O100 C73 1.289 . S
C101 O93 1.258 . S
C101 O94 1.266 . S
Co102 O105 1.970 . S
Co102 N119 1.989 . S
Co102 O127 1.967 . S
Co102 O134 1.920 . S
Co103 O106 1.966 . S
Co103 N112 2.022 . S
Co103 N120 1.993 . S
Co103 O128 1.941 . S
C104 O105 1.258 . S
C104 O106 1.263 . S
O105 Co102 1.970 . S
O105 C104 1.258 . S
O106 Co103 1.966 . S
O106 C104 1.263 . S
C107 O108 1.235 . S
C107 O134 1.289 1_655 S
O108 C107 1.235 . S
C109 C111 1.400 1_554 S
C109 N112 1.351 . S
C109 C114 1.501 . S
C110 C111 1.387 1_554 S
C110 N113 1.341 . S
C111 C109 1.400 1_556 S
C111 C110 1.387 1_556 S
N112 Co103 2.022 . S
N112 C109 1.351 . S
N112 N113 1.365 . S
N113 C110 1.341 . S
N113 N112 1.365 . S
N113 H133 0.862 . S
C114 C109 1.501 . S
C114 H115 0.961 . S
C114 H116 0.961 . S
C114 H117 0.960 . S
H115 C114 0.961 . S
H116 C114 0.961 . S
H117 C114 0.960 . S
C118 N119 1.342 . S
C118 C122 1.401 . S
C118 C123 1.499 . S
N119 Co102 1.989 . S
N119 C118 1.342 . S
N119 N120 1.388 . S
N120 Co103 1.993 . S
N120 N119 1.388 . S
N120 C121 1.346 . S
C121 N120 1.346 . S
C121 C122 1.396 . S
C121 C131 1.510 . S
C122 C118 1.401 . S
C122 C121 1.396 . S
C123 C118 1.499 . S
C123 H124 0.959 . S
C123 H125 0.960 1_455 S
C123 H126 0.961 . S
H124 C123 0.959 . S
H125 C123 0.960 1_655 S
H126 C123 0.961 . S
O127 Co102 1.967 . S
O127 C135 1.258 . S
O128 Co103 1.941 . S
O128 C135 1.266 . S
H129 C131 0.959 . S
H130 C131 0.961 1_556 S
C131 C121 1.510 . S
C131 H129 0.959 . S
C131 H130 0.961 1_554 S
C131 H132 0.960 . S
H132 C131 0.960 . S
H133 N113 0.862 . S
O134 Co102 1.920 . S
O134 C107 1.289 1_455 S
C135 O127 1.258 . S
C135 O128 1.266 . S
Co136 O139 1.970 . S
Co136 N153 1.989 . S
Co136 O161 1.967 . S
Co136 O168 1.920 . S
Co137 O140 1.966 . S
Co137 N146 2.022 . S
Co137 N154 1.993 . S
Co137 O162 1.941 . S
C138 O139 1.258 . S
C138 O140 1.263 . S
O139 Co136 1.970 . S
O139 C138 1.258 . S
O140 Co137 1.966 . S
O140 C138 1.263 . S
C141 O142 1.235 . S
C141 O168 1.289 . S
O142 C141 1.235 . S
C143 C145 1.400 . S
C143 N146 1.351 . S
C143 C148 1.501 . S
C144 C145 1.387 . S
C144 N147 1.341 . S
C145 C143 1.400 . S
C145 C144 1.387 . S
N146 Co137 2.022 . S
N146 C143 1.351 . S
N146 N147 1.365 . S
N147 C144 1.341 . S
N147 N146 1.365 . S
N147 H167 0.862 . S
C148 C143 1.501 . S
C148 H149 0.961 . S
C148 H150 0.961 . S
C148 H151 0.960 . S
H149 C148 0.961 . S
H150 C148 0.961 . S
H151 C148 0.960 . S
C152 N153 1.342 . S
C152 C156 1.401 . S
C152 C157 1.499 . S
N153 Co136 1.989 . S
N153 C152 1.342 . S
N153 N154 1.388 . S
N154 Co137 1.993 . S
N154 N153 1.388 . S
N154 C155 1.346 . S
C155 N154 1.346 . S
C155 C156 1.396 . S
C155 C165 1.510 . S
C156 C152 1.401 . S
C156 C155 1.396 . S
C157 C152 1.499 . S
C157 H158 0.959 . S
C157 H159 0.960 . S
C157 H160 0.961 . S
H158 C157 0.959 . S
H159 C157 0.960 . S
H160 C157 0.961 . S
O161 Co136 1.967 . S
O161 C169 1.258 . S
O162 Co137 1.941 . S
O162 C169 1.266 . S
H163 C165 0.959 . S
H164 C165 0.961 . S
C165 C155 1.510 . S
C165 H163 0.959 . S
C165 H164 0.961 . S
C165 H166 0.960 . S
H166 C165 0.960 . S
H167 N147 0.862 . S
O168 Co136 1.920 . S
O168 C141 1.289 . S
C169 O161 1.258 . S
C169 O162 1.266 . S
Co170 O173 1.970 . S
Co170 N187 1.989 . S
Co170 O195 1.967 . S
Co170 O202 1.920 . S
Co171 O174 1.966 . S
Co171 N180 2.022 . S
Co171 N188 1.993 . S
Co171 O196 1.941 . S
C172 O173 1.258 . S
C172 O174 1.263 . S
O173 Co170 1.970 . S
O173 C172 1.258 . S
O174 Co171 1.966 . S
O174 C172 1.263 . S
C175 O176 1.235 . S
C175 O202 1.289 1_655 S
O176 C175 1.235 . S
C177 C179 1.400 . S
C177 N180 1.351 . S
C177 C182 1.501 . S
C178 C179 1.387 . S
C178 N181 1.341 . S
C179 C177 1.400 . S
C179 C178 1.387 . S
N180 Co171 2.022 . S
N180 C177 1.351 . S
N180 N181 1.365 . S
N181 C178 1.341 . S
N181 N180 1.365 . S
N181 H201 0.862 . S
C182 C177 1.501 . S
C182 H183 0.961 . S
C182 H184 0.961 . S
C182 H185 0.960 . S
H183 C182 0.961 . S
H184 C182 0.961 . S
H185 C182 0.960 . S
C186 N187 1.342 . S
C186 C190 1.401 . S
C186 C191 1.499 . S
N187 Co170 1.989 . S
N187 C186 1.342 . S
N187 N188 1.388 . S
N188 Co171 1.993 . S
N188 N187 1.388 . S
N188 C189 1.346 . S
C189 N188 1.346 . S
C189 C190 1.396 . S
C189 C199 1.510 . S
C190 C186 1.401 . S
C190 C189 1.396 . S
C191 C186 1.499 . S
C191 H192 0.959 . S
C191 H193 0.960 1_455 S
C191 H194 0.961 . S
H192 C191 0.959 . S
H193 C191 0.960 1_655 S
H194 C191 0.961 . S
O195 Co170 1.967 . S
O195 C203 1.258 . S
O196 Co171 1.941 . S
O196 C203 1.266 . S
H197 C199 0.959 . S
H198 C199 0.961 . S
C199 C189 1.510 . S
C199 H197 0.959 . S
C199 H198 0.961 . S
C199 H200 0.960 . S
H200 C199 0.960 . S
H201 N181 0.862 . S
O202 Co170 1.920 . S
O202 C175 1.289 1_455 S
C203 O195 1.258 . S
C203 O196 1.266 . S
Co204 O207 1.970 . S
Co204 N221 1.989 . S
Co204 O229 1.967 . S
Co204 O236 1.920 . S
Co205 O208 1.966 . S
Co205 N214 2.022 . S
Co205 N222 1.993 . S
Co205 O230 1.941 . S
C206 O207 1.258 . S
C206 O208 1.263 . S
O207 Co204 1.970 . S
O207 C206 1.258 . S
O208 Co205 1.966 . S
O208 C206 1.263 . S
C209 O210 1.235 . S
C209 O236 1.289 1_565 S
O210 C209 1.235 . S
C211 C213 1.400 . S
C211 N214 1.351 . S
C211 C216 1.501 . S
C212 C213 1.387 . S
C212 N215 1.341 . S
C213 C211 1.400 . S
C213 C212 1.387 . S
N214 Co205 2.022 . S
N214 C211 1.351 . S
N214 N215 1.365 . S
N215 C212 1.341 . S
N215 N214 1.365 . S
N215 H235 0.862 . S
C216 C211 1.501 . S
C216 H217 0.961 . S
C216 H218 0.961 . S
C216 H219 0.960 . S
H217 C216 0.961 . S
H218 C216 0.961 . S
H219 C216 0.960 . S
C220 N221 1.342 . S
C220 C224 1.401 . S
C220 C225 1.499 . S
N221 Co204 1.989 . S
N221 C220 1.342 . S
N221 N222 1.388 . S
N222 Co205 1.993 . S
N222 N221 1.388 . S
N222 C223 1.346 . S
C223 N222 1.346 . S
C223 C224 1.396 . S
C223 C233 1.510 . S
C224 C220 1.401 . S
C224 C223 1.396 . S
C225 C220 1.499 . S
C225 H226 0.959 . S
C225 H227 0.960 1_545 S
C225 H228 0.961 . S
H226 C225 0.959 . S
H227 C225 0.960 1_565 S
H228 C225 0.961 . S
O229 Co204 1.967 . S
O229 C237 1.258 . S
O230 Co205 1.941 . S
O230 C237 1.266 . S
H231 C233 0.959 . S
H232 C233 0.961 . S
C233 C223 1.510 . S
C233 H231 0.959 . S
C233 H232 0.961 . S
C233 H234 0.960 . S
H234 C233 0.960 . S
H235 N215 0.862 . S
O236 Co204 1.920 . S
O236 C209 1.289 1_545 S
C237 O229 1.258 . S
C237 O230 1.266 . S
Co238 O241 1.970 . S
Co238 N255 1.989 . S
Co238 O263 1.967 . S
Co238 O270 1.920 . S
Co239 O242 1.966 . S
Co239 N248 2.022 . S
Co239 N256 1.993 . S
Co239 O264 1.941 . S
C240 O241 1.258 . S
C240 O242 1.263 . S
O241 Co238 1.970 . S
O241 C240 1.258 . S
O242 Co239 1.966 . S
O242 C240 1.263 . S
C243 O244 1.235 . S
C243 O270 1.289 . S
O244 C243 1.235 . S
C245 C247 1.400 . S
C245 N248 1.351 . S
C245 C250 1.501 . S
C246 C247 1.387 . S
C246 N249 1.341 . S
C247 C245 1.400 . S
C247 C246 1.387 . S
N248 Co239 2.022 . S
N248 C245 1.351 . S
N248 N249 1.365 . S
N249 C246 1.341 . S
N249 N248 1.365 . S
N249 H269 0.862 . S
C250 C245 1.501 . S
C250 H251 0.961 . S
C250 H252 0.961 . S
C250 H253 0.960 . S
H251 C250 0.961 . S
H252 C250 0.961 . S
H253 C250 0.960 . S
C254 N255 1.342 . S
C254 C258 1.401 . S
C254 C259 1.499 . S
N255 Co238 1.989 . S
N255 C254 1.342 . S
N255 N256 1.388 . S
N256 Co239 1.993 . S
N256 N255 1.388 . S
N256 C257 1.346 . S
C257 N256 1.346 . S
C257 C258 1.396 . S
C257 C267 1.510 . S
C258 C254 1.401 . S
C258 C257 1.396 . S
C259 C254 1.499 . S
C259 H260 0.959 . S
C259 H261 0.960 . S
C259 H262 0.961 . S
H260 C259 0.959 . S
H261 C259 0.960 . S
H262 C259 0.961 . S
O263 Co238 1.967 . S
O263 C271 1.258 . S
O264 Co239 1.941 . S
O264 C271 1.266 . S
H265 C267 0.959 . S
H266 C267 0.961 . S
C267 C257 1.510 . S
C267 H265 0.959 . S
C267 H266 0.961 . S
C267 H268 0.960 . S
H268 C267 0.960 . S
H269 N249 0.862 . S
O270 Co238 1.920 . S
O270 C243 1.289 . S
C271 O263 1.258 . S
C271 O264 1.266 . S
Co272 O275 1.970 . S
Co272 N289 1.989 . S
Co272 O297 1.967 . S
Co272 O304 1.920 . S
Co273 O276 1.966 . S
Co273 N282 2.022 . S
Co273 N290 1.993 . S
Co273 O298 1.941 . S
C274 O275 1.258 . S
C274 O276 1.263 . S
O275 Co272 1.970 . S
O275 C274 1.258 . S
O276 Co273 1.966 . S
O276 C274 1.263 . S
C277 O278 1.235 . S
C277 O304 1.289 1_545 S
O278 C277 1.235 . S
C279 C281 1.400 1_556 S
C279 N282 1.351 . S
C279 C284 1.501 . S
C280 C281 1.387 1_556 S
C280 N283 1.341 . S
C281 C279 1.400 1_554 S
C281 C280 1.387 1_554 S
N282 Co273 2.022 . S
N282 C279 1.351 . S
N282 N283 1.365 . S
N283 C280 1.341 . S
N283 N282 1.365 . S
N283 H303 0.862 . S
C284 C279 1.501 . S
C284 H285 0.961 . S
C284 H286 0.961 . S
C284 H287 0.960 . S
H285 C284 0.961 . S
H286 C284 0.961 . S
H287 C284 0.960 . S
C288 N289 1.342 . S
C288 C292 1.401 . S
C288 C293 1.499 . S
N289 Co272 1.989 . S
N289 C288 1.342 . S
N289 N290 1.388 . S
N290 Co273 1.993 . S
N290 N289 1.388 . S
N290 C291 1.346 . S
C291 N290 1.346 . S
C291 C292 1.396 . S
C291 C301 1.510 . S
C292 C288 1.401 . S
C292 C291 1.396 . S
C293 C288 1.499 . S
C293 H294 0.959 . S
C293 H295 0.960 1_565 S
C293 H296 0.961 . S
H294 C293 0.959 . S
H295 C293 0.960 1_545 S
H296 C293 0.961 . S
O297 Co272 1.967 . S
O297 C305 1.258 . S
O298 Co273 1.941 . S
O298 C305 1.266 . S
H299 C301 0.959 . S
H300 C301 0.961 1_554 S
C301 C291 1.510 . S
C301 H299 0.959 . S
C301 H300 0.961 1_556 S
C301 H302 0.960 . S
H302 C301 0.960 . S
H303 N283 0.862 . S
O304 Co272 1.920 . S
O304 C277 1.289 1_565 S
C305 O297 1.258 . S
C305 O298 1.266 . S
Co306 O309 1.970 . S
Co306 N323 1.989 . S
Co306 O331 1.967 . S
Co306 O338 1.920 . S
Co307 O310 1.966 . S
Co307 N316 2.022 . S
Co307 N324 1.993 . S
Co307 O332 1.941 . S
C308 O309 1.258 . S
C308 O310 1.263 . S
O309 Co306 1.970 . S
O309 C308 1.258 . S
O310 Co307 1.966 . S
O310 C308 1.263 . S
C311 O312 1.235 . S
C311 O338 1.289 . S
O312 C311 1.235 . S
C313 C315 1.400 1_556 S
C313 N316 1.351 . S
C313 C318 1.501 . S
C314 C315 1.387 1_556 S
C314 N317 1.341 . S
C315 C313 1.400 1_554 S
C315 C314 1.387 1_554 S
N316 Co307 2.022 . S
N316 C313 1.351 . S
N316 N317 1.365 . S
N317 C314 1.341 . S
N317 N316 1.365 . S
N317 H337 0.862 . S
C318 C313 1.501 . S
C318 H319 0.961 . S
C318 H320 0.961 . S
C318 H321 0.960 . S
H319 C318 0.961 . S
H320 C318 0.961 . S
H321 C318 0.960 . S
C322 N323 1.342 . S
C322 C326 1.401 . S
C322 C327 1.499 . S
N323 Co306 1.989 . S
N323 C322 1.342 . S
N323 N324 1.388 . S
N324 Co307 1.993 . S
N324 N323 1.388 . S
N324 C325 1.346 . S
C325 N324 1.346 . S
C325 C326 1.396 . S
C325 C335 1.510 . S
C326 C322 1.401 . S
C326 C325 1.396 . S
C327 C322 1.499 . S
C327 H328 0.959 . S
C327 H329 0.960 . S
C327 H330 0.961 . S
H328 C327 0.959 . S
H329 C327 0.960 . S
H330 C327 0.961 . S
O331 Co306 1.967 . S
O331 C339 1.258 . S
O332 Co307 1.941 . S
O332 C339 1.266 . S
H333 C335 0.959 . S
H334 C335 0.961 1_554 S
C335 C325 1.510 . S
C335 H333 0.959 . S
C335 H334 0.961 1_556 S
C335 H336 0.960 . S
H336 C335 0.960 . S
H337 N317 0.862 . S
O338 Co306 1.920 . S
O338 C311 1.289 . S
C339 O331 1.258 . S
C339 O332 1.266 . S
Co340 O343 1.970 . S
Co340 N357 1.989 . S
Co340 O365 1.967 . S
Co340 O372 1.920 . S
Co341 O344 1.966 . S
Co341 N350 2.022 . S
Co341 N358 1.993 . S
Co341 O366 1.941 . S
C342 O343 1.258 . S
C342 O344 1.263 . S
O343 Co340 1.970 . S
O343 C342 1.258 . S
O344 Co341 1.966 . S
O344 C342 1.263 . S
C345 O346 1.235 . S
C345 O372 1.289 . S
O346 C345 1.235 . S
C347 C349 1.400 1_556 S
C347 N350 1.351 . S
C347 C352 1.501 . S
C348 C349 1.387 1_556 S
C348 N351 1.341 . S
C349 C347 1.400 1_554 S
C349 C348 1.387 1_554 S
N350 Co341 2.022 . S
N350 C347 1.351 . S
N350 N351 1.365 . S
N351 C348 1.341 . S
N351 N350 1.365 . S
N351 H371 0.862 . S
C352 C347 1.501 . S
C352 H353 0.961 . S
C352 H354 0.961 . S
C352 H355 0.960 . S
H353 C352 0.961 . S
H354 C352 0.961 . S
H355 C352 0.960 . S
C356 N357 1.342 . S
C356 C360 1.401 . S
C356 C361 1.499 . S
N357 Co340 1.989 . S
N357 C356 1.342 . S
N357 N358 1.388 . S
N358 Co341 1.993 . S
N358 N357 1.388 . S
N358 C359 1.346 . S
C359 N358 1.346 . S
C359 C360 1.396 . S
C359 C369 1.510 . S
C360 C356 1.401 . S
C360 C359 1.396 . S
C361 C356 1.499 . S
C361 H362 0.959 . S
C361 H363 0.960 . S
C361 H364 0.961 . S
H362 C361 0.959 . S
H363 C361 0.960 . S
H364 C361 0.961 . S
O365 Co340 1.967 . S
O365 C373 1.258 . S
O366 Co341 1.941 . S
O366 C373 1.266 . S
H367 C369 0.959 . S
H368 C369 0.961 1_554 S
C369 C359 1.510 . S
C369 H367 0.959 . S
C369 H368 0.961 1_556 S
C369 H370 0.960 . S
H370 C369 0.960 . S
H371 N351 0.862 . S
O372 Co340 1.920 . S
O372 C345 1.289 . S
C373 O365 1.258 . S
C373 O366 1.266 . S
Co374 O377 1.970 . S
Co374 N391 1.989 . S
Co374 O399 1.967 . S
Co374 O406 1.920 . S
Co375 O378 1.966 . S
Co375 N384 2.022 . S
Co375 N392 1.993 . S
Co375 O400 1.941 . S
C376 O377 1.258 . S
C376 O378 1.263 . S
O377 Co374 1.970 . S
O377 C376 1.258 . S
O378 Co375 1.966 . S
O378 C376 1.263 . S
C379 O380 1.235 . S
C379 O406 1.289 1_455 S
O380 C379 1.235 . S
C381 C383 1.400 1_556 S
C381 N384 1.351 . S
C381 C386 1.501 . S
C382 C383 1.387 1_556 S
C382 N385 1.341 . S
C383 C381 1.400 1_554 S
C383 C382 1.387 1_554 S
N384 Co375 2.022 . S
N384 C381 1.351 . S
N384 N385 1.365 . S
N385 C382 1.341 . S
N385 N384 1.365 . S
N385 H405 0.862 . S
C386 C381 1.501 . S
C386 H387 0.961 . S
C386 H388 0.961 . S
C386 H389 0.960 . S
H387 C386 0.961 . S
H388 C386 0.961 . S
H389 C386 0.960 . S
C390 N391 1.342 . S
C390 C394 1.401 . S
C390 C395 1.499 . S
N391 Co374 1.989 . S
N391 C390 1.342 . S
N391 N392 1.388 . S
N392 Co375 1.993 . S
N392 N391 1.388 . S
N392 C393 1.346 . S
C393 N392 1.346 . S
C393 C394 1.396 . S
C393 C403 1.510 . S
C394 C390 1.401 . S
C394 C393 1.396 . S
C395 C390 1.499 . S
C395 H396 0.959 . S
C395 H397 0.960 1_655 S
C395 H398 0.961 . S
H396 C395 0.959 . S
H397 C395 0.960 1_455 S
H398 C395 0.961 . S
O399 Co374 1.967 . S
O399 C407 1.258 . S
O400 Co375 1.941 . S
O400 C407 1.266 . S
H401 C403 0.959 . S
H402 C403 0.961 1_554 S
C403 C393 1.510 . S
C403 H401 0.959 . S
C403 H402 0.961 1_556 S
C403 H404 0.960 . S
H404 C403 0.960 . S
H405 N385 0.862 . S
O406 Co374 1.920 . S
O406 C379 1.289 1_655 S
C407 O399 1.258 . S
C407 O400 1.266 . S
Co408 O411 1.970 . S
Co408 N425 1.989 . S
Co408 O433 1.967 . S
Co408 O440 1.920 . S
Co409 O412 1.966 . S
Co409 N418 2.022 . S
Co409 N426 1.993 . S
Co409 O434 1.941 . S
C410 O411 1.258 . S
C410 O412 1.263 . S
O411 Co408 1.970 . S
O411 C410 1.258 . S
O412 Co409 1.966 . S
O412 C410 1.263 . S
C413 O414 1.235 . S
C413 O440 1.289 . S
O414 C413 1.235 . S
C415 C417 1.400 . S
C415 N418 1.351 . S
C415 C420 1.501 . S
C416 C417 1.387 . S
C416 N419 1.341 . S
C417 C415 1.400 . S
C417 C416 1.387 . S
N418 Co409 2.022 . S
N418 C415 1.351 . S
N418 N419 1.365 . S
N419 C416 1.341 . S
N419 N418 1.365 . S
N419 H439 0.862 . S
C420 C415 1.501 . S
C420 H421 0.961 . S
C420 H422 0.961 . S
C420 H423 0.960 . S
H421 C420 0.961 . S
H422 C420 0.961 . S
H423 C420 0.960 . S
C424 N425 1.342 . S
C424 C428 1.401 . S
C424 C429 1.499 . S
N425 Co408 1.989 . S
N425 C424 1.342 . S
N425 N426 1.388 . S
N426 Co409 1.993 . S
N426 N425 1.388 . S
N426 C427 1.346 . S
C427 N426 1.346 . S
C427 C428 1.396 . S
C427 C437 1.510 . S
C428 C424 1.401 . S
C428 C427 1.396 . S
C429 C424 1.499 . S
C429 H430 0.959 . S
C429 H431 0.960 . S
C429 H432 0.961 . S
H430 C429 0.959 . S
H431 C429 0.960 . S
H432 C429 0.961 . S
O433 Co408 1.967 . S
O433 C441 1.258 . S
O434 Co409 1.941 . S
O434 C441 1.266 . S
H435 C437 0.959 . S
H436 C437 0.961 . S
C437 C427 1.510 . S
C437 H435 0.959 . S
C437 H436 0.961 . S
C437 H438 0.960 . S
H438 C437 0.960 . S
H439 N419 0.862 . S
O440 Co408 1.920 . S
O440 C413 1.289 . S
C441 O433 1.258 . S
C441 O434 1.266 . S
Co442 O445 1.970 . S
Co442 N459 1.989 . S
Co442 O467 1.967 . S
Co442 O474 1.920 . S
Co443 O446 1.966 . S
Co443 N452 2.022 . S
Co443 N460 1.993 . S
Co443 O468 1.941 . S
C444 O445 1.258 . S
C444 O446 1.263 . S
O445 Co442 1.970 . S
O445 C444 1.258 . S
O446 Co443 1.966 . S
O446 C444 1.263 . S
C447 O448 1.235 . S
C447 O474 1.289 1_455 S
O448 C447 1.235 . S
C449 C451 1.400 . S
C449 N452 1.351 . S
C449 C454 1.501 . S
C450 C451 1.387 . S
C450 N453 1.341 . S
C451 C449 1.400 . S
C451 C450 1.387 . S
N452 Co443 2.022 . S
N452 C449 1.351 . S
N452 N453 1.365 . S
N453 C450 1.341 . S
N453 N452 1.365 . S
N453 H473 0.862 . S
C454 C449 1.501 . S
C454 H455 0.961 . S
C454 H456 0.961 . S
C454 H457 0.960 . S
H455 C454 0.961 . S
H456 C454 0.961 . S
H457 C454 0.960 . S
C458 N459 1.342 . S
C458 C462 1.401 . S
C458 C463 1.499 . S
N459 Co442 1.989 . S
N459 C458 1.342 . S
N459 N460 1.388 . S
N460 Co443 1.993 . S
N460 N459 1.388 . S
N460 C461 1.346 . S
C461 N460 1.346 . S
C461 C462 1.396 . S
C461 C471 1.510 . S
C462 C458 1.401 . S
C462 C461 1.396 . S
C463 C458 1.499 . S
C463 H464 0.959 . S
C463 H465 0.960 1_655 S
C463 H466 0.961 . S
H464 C463 0.959 . S
H465 C463 0.960 1_455 S
H466 C463 0.961 . S
O467 Co442 1.967 . S
O467 C475 1.258 . S
O468 Co443 1.941 . S
O468 C475 1.266 . S
H469 C471 0.959 . S
H470 C471 0.961 . S
C471 C461 1.510 . S
C471 H469 0.959 . S
C471 H470 0.961 . S
C471 H472 0.960 . S
H472 C471 0.960 . S
H473 N453 0.862 . S
O474 Co442 1.920 . S
O474 C447 1.289 1_655 S
C475 O467 1.258 . S
C475 O468 1.266 . S
Co476 O479 1.970 . S
Co476 N493 1.989 . S
Co476 O501 1.967 . S
Co476 O508 1.920 . S
Co477 O480 1.966 . S
Co477 N486 2.022 . S
Co477 N494 1.993 . S
Co477 O502 1.941 . S
C478 O479 1.258 . S
C478 O480 1.263 . S
O479 Co476 1.970 . S
O479 C478 1.258 . S
O480 Co477 1.966 . S
O480 C478 1.263 . S
C481 O482 1.235 . S
C481 O508 1.289 1_545 S
O482 C481 1.235 . S
C483 C485 1.400 . S
C483 N486 1.351 . S
C483 C488 1.501 . S
C484 C485 1.387 . S
C484 N487 1.341 . S
C485 C483 1.400 . S
C485 C484 1.387 . S
N486 Co477 2.022 . S
N486 C483 1.351 . S
N486 N487 1.365 . S
N487 C484 1.341 . S
N487 N486 1.365 . S
N487 H507 0.862 . S
C488 C483 1.501 . S
C488 H489 0.961 . S
C488 H490 0.961 . S
C488 H491 0.960 . S
H489 C488 0.961 . S
H490 C488 0.961 . S
H491 C488 0.960 . S
C492 N493 1.342 . S
C492 C496 1.401 . S
C492 C497 1.499 . S
N493 Co476 1.989 . S
N493 C492 1.342 . S
N493 N494 1.388 . S
N494 Co477 1.993 . S
N494 N493 1.388 . S
N494 C495 1.346 . S
C495 N494 1.346 . S
C495 C496 1.396 . S
C495 C505 1.510 . S
C496 C492 1.401 . S
C496 C495 1.396 . S
C497 C492 1.499 . S
C497 H498 0.959 . S
C497 H499 0.960 1_565 S
C497 H500 0.961 . S
H498 C497 0.959 . S
H499 C497 0.960 1_545 S
H500 C497 0.961 . S
O501 Co476 1.967 . S
O501 C509 1.258 . S
O502 Co477 1.941 . S
O502 C509 1.266 . S
H503 C505 0.959 . S
H504 C505 0.961 . S
C505 C495 1.510 . S
C505 H503 0.959 . S
C505 H504 0.961 . S
C505 H506 0.960 . S
H506 C505 0.960 . S
H507 N487 0.862 . S
O508 Co476 1.920 . S
O508 C481 1.289 1_565 S
C509 O501 1.258 . S
C509 O502 1.266 . S
Co510 O513 1.970 . S
Co510 N527 1.989 . S
Co510 O535 1.967 . S
Co510 O542 1.920 . S
Co511 O514 1.966 . S
Co511 N520 2.022 . S
Co511 N528 1.993 . S
Co511 O536 1.941 . S
C512 O513 1.258 . S
C512 O514 1.263 . S
O513 Co510 1.970 . S
O513 C512 1.258 . S
O514 Co511 1.966 . S
O514 C512 1.263 . S
C515 O516 1.235 . S
C515 O542 1.289 . S
O516 C515 1.235 . S
C517 C519 1.400 . S
C517 N520 1.351 . S
C517 C522 1.501 . S
C518 C519 1.387 . S
C518 N521 1.341 . S
C519 C517 1.400 . S
C519 C518 1.387 . S
N520 Co511 2.022 . S
N520 C517 1.351 . S
N520 N521 1.365 . S
N521 C518 1.341 . S
N521 N520 1.365 . S
N521 H541 0.862 . S
C522 C517 1.501 . S
C522 H523 0.961 . S
C522 H524 0.961 . S
C522 H525 0.960 . S
H523 C522 0.961 . S
H524 C522 0.961 . S
H525 C522 0.960 . S
C526 N527 1.342 . S
C526 C530 1.401 . S
C526 C531 1.499 . S
N527 Co510 1.989 . S
N527 C526 1.342 . S
N527 N528 1.388 . S
N528 Co511 1.993 . S
N528 N527 1.388 . S
N528 C529 1.346 . S
C529 N528 1.346 . S
C529 C530 1.396 . S
C529 C539 1.510 . S
C530 C526 1.401 . S
C530 C529 1.396 . S
C531 C526 1.499 . S
C531 H532 0.959 . S
C531 H533 0.960 . S
C531 H534 0.961 . S
H532 C531 0.959 . S
H533 C531 0.960 . S
H534 C531 0.961 . S
O535 Co510 1.967 . S
O535 C543 1.258 . S
O536 Co511 1.941 . S
O536 C543 1.266 . S
H537 C539 0.959 . S
H538 C539 0.961 . S
C539 C529 1.510 . S
C539 H537 0.959 . S
C539 H538 0.961 . S
C539 H540 0.960 . S
H540 C539 0.960 . S
H541 N521 0.862 . S
O542 Co510 1.920 . S
O542 C515 1.289 . S
C543 O535 1.258 . S
C543 O536 1.266 . S
C544 C545 1.349 . S
C544 C546 1.327 . S
C544 H569 0.950 1_565 S
C545 C544 1.349 . S
C545 C561 1.349 . S
C546 C544 1.327 . S
C546 C565 1.429 . S
C546 H570 0.950 . S
C547 C564 1.574 . S
C547 C566 1.368 . S
C547 H571 0.949 . S
H548 C552 0.949 . S
C549 C550 1.349 . S
C549 C551 1.327 . S
C549 H572 0.950 . S
C550 C549 1.349 . S
C550 C562 1.349 . S
C551 C549 1.327 . S
C551 C567 1.429 . S
C551 H573 0.950 . S
C552 H548 0.949 . S
C552 C560 1.574 . S
C552 C568 1.368 . S
H553 C561 0.950 . S
H554 C559 0.950 . S
H555 C560 0.949 . S
H556 C562 0.950 . S
H557 C563 0.950 . S
H558 C564 0.949 . S
C559 H554 0.950 . S
C559 C561 1.327 . S
C559 C565 1.429 . S
C560 C552 1.574 . S
C560 H555 0.949 . S
C560 C566 1.368 . S
C561 C545 1.349 . S
C561 H553 0.950 . S
C561 C559 1.327 . S
C562 C550 1.349 . S
C562 H556 0.950 . S
C562 C563 1.327 . S
C563 H557 0.950 . S
C563 C562 1.327 . S
C563 C567 1.429 . S
C564 C547 1.574 . S
C564 H558 0.949 . S
C564 C568 1.368 . S
C565 C546 1.429 . S
C565 C559 1.429 . S
C565 C566 1.523 . S
C566 C547 1.368 . S
C566 C560 1.368 . S
C566 C565 1.523 . S
C567 C551 1.429 . S
C567 C563 1.429 . S
C567 C568 1.523 . S
C568 C552 1.368 . S
C568 C564 1.368 . S
C568 C567 1.523 . S
H569 C544 0.950 1_545 S
H570 C546 0.950 . S
H571 C547 0.949 . S
H572 C549 0.950 . S
H573 C551 0.950 . S
C574 C575 1.349 . S
C574 C576 1.327 . S
C574 H599 0.950 . S
C575 C574 1.349 . S
C575 C591 1.349 . S
C576 C574 1.327 . S
C576 C595 1.429 . S
C576 H600 0.950 . S
C577 C594 1.574 . S
C577 C596 1.368 . S
C577 H601 0.949 . S
H578 C582 0.949 . S
C579 C580 1.349 . S
C579 C581 1.327 . S
C579 H602 0.950 . S
C580 C579 1.349 . S
C580 C592 1.349 . S
C581 C579 1.327 . S
C581 C597 1.429 . S
C581 H603 0.950 . S
C582 H578 0.949 . S
C582 C590 1.574 . S
C582 C598 1.368 . S
H583 C591 0.950 . S
H584 C589 0.950 . S
H585 C590 0.949 . S
H586 C592 0.950 . S
H587 C593 0.950 . S
H588 C594 0.949 . S
C589 H584 0.950 . S
C589 C591 1.327 . S
C589 C595 1.429 . S
C590 C582 1.574 . S
C590 H585 0.949 . S
C590 C596 1.368 . S
C591 C575 1.349 . S
C591 H583 0.950 . S
C591 C589 1.327 . S
C592 C580 1.349 . S
C592 H586 0.950 . S
C592 C593 1.327 . S
C593 H587 0.950 . S
C593 C592 1.327 . S
C593 C597 1.429 . S
C594 C577 1.574 . S
C594 H588 0.949 . S
C594 C598 1.368 . S
C595 C576 1.429 . S
C595 C589 1.429 . S
C595 C596 1.523 . S
C596 C577 1.368 . S
C596 C590 1.368 . S
C596 C595 1.523 . S
C597 C581 1.429 . S
C597 C593 1.429 . S
C597 C598 1.523 . S
C598 C582 1.368 . S
C598 C594 1.368 . S
C598 C597 1.523 . S
H599 C574 0.950 . S
H600 C576 0.950 . S
H601 C577 0.949 . S
H602 C579 0.950 . S
H603 C581 0.950 . S
C604 C605 1.349 . S
C604 C606 1.327 . S
C604 H629 0.950 . S
C605 C604 1.349 . S
C605 C621 1.349 . S
C606 C604 1.327 . S
C606 C625 1.429 . S
C606 H630 0.950 . S
C607 C624 1.574 . S
C607 C626 1.368 . S
C607 H631 0.949 . S
H608 C612 0.949 . S
C609 C610 1.349 . S
C609 C611 1.327 . S
C609 H632 0.950 1_655 S
C610 C609 1.349 . S
C610 C622 1.349 . S
C611 C609 1.327 . S
C611 C627 1.429 . S
C611 H633 0.950 . S
C612 H608 0.949 . S
C612 C620 1.574 . S
C612 C628 1.368 . S
H613 C621 0.950 . S
H614 C619 0.950 . S
H615 C620 0.949 . S
H616 C622 0.950 . S
H617 C623 0.950 . S
H618 C624 0.949 . S
C619 H614 0.950 . S
C619 C621 1.327 . S
C619 C625 1.429 . S
C620 C612 1.574 . S
C620 H615 0.949 . S
C620 C626 1.368 . S
C621 C605 1.349 . S
C621 H613 0.950 . S
C621 C619 1.327 . S
C622 C610 1.349 . S
C622 H616 0.950 . S
C622 C623 1.327 . S
C623 H617 0.950 . S
C623 C622 1.327 . S
C623 C627 1.429 . S
C624 C607 1.574 . S
C624 H618 0.949 . S
C624 C628 1.368 . S
C625 C606 1.429 . S
C625 C619 1.429 . S
C625 C626 1.523 . S
C626 C607 1.368 . S
C626 C620 1.368 . S
C626 C625 1.523 . S
C627 C611 1.429 . S
C627 C623 1.429 . S
C627 C628 1.523 . S
C628 C612 1.368 . S
C628 C624 1.368 . S
C628 C627 1.523 . S
H629 C604 0.950 . S
H630 C606 0.950 . S
H631 C607 0.949 . S
H632 C609 0.950 1_455 S
H633 C611 0.950 . S
C634 C635 1.349 . S
C634 C636 1.327 . S
C634 H659 0.950 1_655 S
C635 C634 1.349 . S
C635 C651 1.349 . S
C636 C634 1.327 . S
C636 C655 1.429 . S
C636 H660 0.950 . S
C637 C654 1.574 . S
C637 C656 1.368 . S
C637 H661 0.949 . S
H638 C642 0.949 . S
C639 C640 1.349 . S
C639 C641 1.327 . S
C639 H662 0.950 . S
C640 C639 1.349 . S
C640 C652 1.349 . S
C641 C639 1.327 . S
C641 C657 1.429 . S
C641 H663 0.950 . S
C642 H638 0.949 . S
C642 C650 1.574 . S
C642 C658 1.368 . S
H643 C651 0.950 . S
H644 C649 0.950 . S
H645 C650 0.949 . S
H646 C652 0.950 1_545 S
H647 C653 0.950 . S
H648 C654 0.949 . S
C649 H644 0.950 . S
C649 C651 1.327 . S
C649 C655 1.429 . S
C650 C642 1.574 . S
C650 H645 0.949 . S
C650 C656 1.368 . S
C651 C635 1.349 . S
C651 H643 0.950 . S
C651 C649 1.327 . S
C652 C640 1.349 . S
C652 H646 0.950 1_565 S
C652 C653 1.327 . S
C653 H647 0.950 . S
C653 C652 1.327 . S
C653 C657 1.429 . S
C654 C637 1.574 . S
C654 H648 0.949 . S
C654 C658 1.368 . S
C655 C636 1.429 . S
C655 C649 1.429 . S
C655 C656 1.523 . S
C656 C637 1.368 . S
C656 C650 1.368 . S
C656 C655 1.523 . S
C657 C641 1.429 . S
C657 C653 1.429 . S
C657 C658 1.523 . S
C658 C642 1.368 . S
C658 C654 1.368 . S
C658 C657 1.523 . S
H659 C634 0.950 1_455 S
H660 C636 0.950 . S
H661 C637 0.949 . S
H662 C639 0.950 . S
H663 C641 0.950 . S
C664 C665 1.349 . S
C664 C666 1.327 . S
C664 H689 0.950 . S
C665 C664 1.349 . S
C665 C681 1.349 . S
C666 C664 1.327 . S
C666 C685 1.429 . S
C666 H690 0.950 . S
C667 C684 1.574 . S
C667 C686 1.368 . S
C667 H691 0.949 . S
H668 C672 0.949 . S
C669 C670 1.349 . S
C669 C671 1.327 . S
C669 H692 0.950 . S
C670 C669 1.349 . S
C670 C682 1.349 . S
C671 C669 1.327 . S
C671 C687 1.429 . S
C671 H693 0.950 . S
C672 H668 0.949 . S
C672 C680 1.574 . S
C672 C688 1.368 . S
H673 C681 0.950 . S
H674 C679 0.950 . S
H675 C680 0.949 . S
H676 C682 0.950 . S
H677 C683 0.950 . S
H678 C684 0.949 . S
C679 H674 0.950 . S
C679 C681 1.327 . S
C679 C685 1.429 . S
C680 C672 1.574 . S
C680 H675 0.949 . S
C680 C686 1.368 . S
C681 C665 1.349 . S
C681 H673 0.950 . S
C681 C679 1.327 . S
C682 C670 1.349 . S
C682 H676 0.950 . S
C682 C683 1.327 . S
C683 H677 0.950 . S
C683 C682 1.327 . S
C683 C687 1.429 . S
C684 C667 1.574 . S
C684 H678 0.949 . S
C684 C688 1.368 . S
C685 C666 1.429 . S
C685 C679 1.429 . S
C685 C686 1.523 . S
C686 C667 1.368 . S
C686 C680 1.368 . S
C686 C685 1.523 . S
C687 C671 1.429 . S
C687 C683 1.429 . S
C687 C688 1.523 . S
C688 C672 1.368 . S
C688 C684 1.368 . S
C688 C687 1.523 . S
H689 C664 0.950 . S
H690 C666 0.950 . S
H691 C667 0.949 . S
H692 C669 0.950 . S
H693 C671 0.950 . S
C694 C695 1.349 . S
C694 C696 1.327 . S
C694 H719 0.950 . S
C695 C694 1.349 . S
C695 C711 1.349 . S
C696 C694 1.327 . S
C696 C715 1.429 . S
C696 H720 0.950 . S
C697 C714 1.574 . S
C697 C716 1.368 . S
C697 H721 0.949 . S
H698 C702 0.949 . S
C699 C700 1.349 . S
C699 C701 1.327 . S
C699 H722 0.950 . S
C700 C699 1.349 . S
C700 C712 1.349 . S
C701 C699 1.327 . S
C701 C717 1.429 . S
C701 H723 0.950 . S
C702 H698 0.949 . S
C702 C710 1.574 . S
C702 C718 1.368 . S
H703 C711 0.950 . S
H704 C709 0.950 . S
H705 C710 0.949 . S
H706 C712 0.950 . S
H707 C713 0.950 . S
H708 C714 0.949 . S
C709 H704 0.950 . S
C709 C711 1.327 . S
C709 C715 1.429 . S
C710 C702 1.574 . S
C710 H705 0.949 . S
C710 C716 1.368 . S
C711 C695 1.349 . S
C711 H703 0.950 . S
C711 C709 1.327 . S
C712 C700 1.349 . S
C712 H706 0.950 . S
C712 C713 1.327 . S
C713 H707 0.950 . S
C713 C712 1.327 . S
C713 C717 1.429 . S
C714 C697 1.574 . S
C714 H708 0.949 . S
C714 C718 1.368 . S
C715 C696 1.429 . S
C715 C709 1.429 . S
C715 C716 1.523 . S
C716 C697 1.368 . S
C716 C710 1.368 . S
C716 C715 1.523 . S
C717 C701 1.429 . S
C717 C713 1.429 . S
C717 C718 1.523 . S
C718 C702 1.368 . S
C718 C714 1.368 . S
C718 C717 1.523 . S
H719 C694 0.950 . S
H720 C696 0.950 . S
H721 C697 0.949 . S
H722 C699 0.950 . S
H723 C701 0.950 . S
C724 C725 1.349 . S
C724 C726 1.327 . S
C724 H749 0.950 . S
C725 C724 1.349 . S
C725 C741 1.349 . S
C726 C724 1.327 . S
C726 C745 1.429 . S
C726 H750 0.950 . S
C727 C744 1.574 . S
C727 C746 1.368 . S
C727 H751 0.949 . S
H728 C732 0.949 . S
C729 C730 1.349 . S
C729 C731 1.327 . S
C729 H752 0.950 . S
C730 C729 1.349 . S
C730 C742 1.349 . S
C731 C729 1.327 . S
C731 C747 1.429 . S
C731 H753 0.950 . S
C732 H728 0.949 . S
C732 C740 1.574 . S
C732 C748 1.368 . S
H733 C741 0.950 . S
H734 C739 0.950 . S
H735 C740 0.949 . S
H736 C742 0.950 . S
H737 C743 0.950 . S
H738 C744 0.949 . S
C739 H734 0.950 . S
C739 C741 1.327 . S
C739 C745 1.429 . S
C740 C732 1.574 . S
C740 H735 0.949 . S
C740 C746 1.368 . S
C741 C725 1.349 . S
C741 H733 0.950 . S
C741 C739 1.327 . S
C742 C730 1.349 . S
C742 H736 0.950 . S
C742 C743 1.327 . S
C743 H737 0.950 . S
C743 C742 1.327 . S
C743 C747 1.429 . S
C744 C727 1.574 . S
C744 H738 0.949 . S
C744 C748 1.368 . S
C745 C726 1.429 . S
C745 C739 1.429 . S
C745 C746 1.523 . S
C746 C727 1.368 . S
C746 C740 1.368 . S
C746 C745 1.523 . S
C747 C731 1.429 . S
C747 C743 1.429 . S
C747 C748 1.523 . S
C748 C732 1.368 . S
C748 C744 1.368 . S
C748 C747 1.523 . S
H749 C724 0.950 . S
H750 C726 0.950 . S
H751 C727 0.949 . S
H752 C729 0.950 . S
H753 C731 0.950 . S
C754 C755 1.349 . S
C754 C756 1.327 . S
C754 H779 0.950 . S
C755 C754 1.349 . S
C755 C771 1.349 . S
C756 C754 1.327 . S
C756 C775 1.429 . S
C756 H780 0.950 . S
C757 C774 1.574 . S
C757 C776 1.368 . S
C757 H781 0.949 . S
H758 C762 0.949 . S
C759 C760 1.349 . S
C759 C761 1.327 . S
C759 H782 0.950 . S
C760 C759 1.349 . S
C760 C772 1.349 . S
C761 C759 1.327 . S
C761 C777 1.429 . S
C761 H783 0.950 . S
C762 H758 0.949 . S
C762 C770 1.574 . S
C762 C778 1.368 . S
H763 C771 0.950 . S
H764 C769 0.950 . S
H765 C770 0.949 . S
H766 C772 0.950 . S
H767 C773 0.950 . S
H768 C774 0.949 . S
C769 H764 0.950 . S
C769 C771 1.327 . S
C769 C775 1.429 . S
C770 C762 1.574 . S
C770 H765 0.949 . S
C770 C776 1.368 . S
C771 C755 1.349 . S
C771 H763 0.950 . S
C771 C769 1.327 . S
C772 C760 1.349 . S
C772 H766 0.950 . S
C772 C773 1.327 . S
C773 H767 0.950 . S
C773 C772 1.327 . S
C773 C777 1.429 . S
C774 C757 1.574 . S
C774 H768 0.949 . S
C774 C778 1.368 . S
C775 C756 1.429 . S
C775 C769 1.429 . S
C775 C776 1.523 . S
C776 C757 1.368 . S
C776 C770 1.368 . S
C776 C775 1.523 . S
C777 C761 1.429 . S
C777 C773 1.429 . S
C777 C778 1.523 . S
C778 C762 1.368 . S
C778 C774 1.368 . S
C778 C777 1.523 . S
H779 C754 0.950 . S
H780 C756 0.950 . S
H781 C757 0.949 . S
H782 C759 0.950 . S
H783 C761 0.950 . S
C784 C785 1.349 . S
C784 C786 1.327 . S
C784 H809 0.950 . S
C785 C784 1.349 . S
C785 C801 1.349 . S
C786 C784 1.327 . S
C786 C805 1.429 . S
C786 H810 0.950 . S
C787 C804 1.574 . S
C787 C806 1.368 . S
C787 H811 0.949 . S
H788 C792 0.949 . S
C789 C790 1.349 . S
C789 C791 1.327 . S
C789 H812 0.950 . S
C790 C789 1.349 . S
C790 C802 1.349 . S
C791 C789 1.327 . S
C791 C807 1.429 . S
C791 H813 0.950 . S
C792 H788 0.949 . S
C792 C800 1.574 . S
C792 C808 1.368 . S
H793 C801 0.950 . S
H794 C799 0.950 . S
H795 C800 0.949 . S
H796 C802 0.950 . S
H797 C803 0.950 . S
H798 C804 0.949 . S
C799 H794 0.950 . S
C799 C801 1.327 . S
C799 C805 1.429 . S
C800 C792 1.574 . S
C800 H795 0.949 . S
C800 C806 1.368 . S
C801 C785 1.349 . S
C801 H793 0.950 . S
C801 C799 1.327 . S
C802 C790 1.349 . S
C802 H796 0.950 . S
C802 C803 1.327 . S
C803 H797 0.950 . S
C803 C802 1.327 . S
C803 C807 1.429 . S
C804 C787 1.574 . S
C804 H798 0.949 . S
C804 C808 1.368 . S
C805 C786 1.429 . S
C805 C799 1.429 . S
C805 C806 1.523 . S
C806 C787 1.368 . S
C806 C800 1.368 . S
C806 C805 1.523 . S
C807 C791 1.429 . S
C807 C803 1.429 . S
C807 C808 1.523 . S
C808 C792 1.368 . S
C808 C804 1.368 . S
C808 C807 1.523 . S
H809 C784 0.950 . S
H810 C786 0.950 . S
H811 C787 0.949 . S
H812 C789 0.950 . S
H813 C791 0.950 . S
C814 C815 1.349 . S
C814 C816 1.327 . S
C814 H839 0.950 . S
C815 C814 1.349 . S
C815 C831 1.349 . S
C816 C814 1.327 . S
C816 C835 1.429 . S
C816 H840 0.950 . S
C817 C834 1.574 . S
C817 C836 1.368 . S
C817 H841 0.949 . S
H818 C822 0.949 . S
C819 C820 1.349 . S
C819 C821 1.327 . S
C819 H842 0.950 . S
C820 C819 1.349 . S
C820 C832 1.349 . S
C821 C819 1.327 . S
C821 C837 1.429 . S
C821 H843 0.950 . S
C822 H818 0.949 . S
C822 C830 1.574 . S
C822 C838 1.368 . S
H823 C831 0.950 . S
H824 C829 0.950 . S
H825 C830 0.949 . S
H826 C832 0.950 . S
H827 C833 0.950 . S
H828 C834 0.949 . S
C829 H824 0.950 . S
C829 C831 1.327 . S
C829 C835 1.429 . S
C830 C822 1.574 . S
C830 H825 0.949 . S
C830 C836 1.368 . S
C831 C815 1.349 . S
C831 H823 0.950 . S
C831 C829 1.327 . S
C832 C820 1.349 . S
C832 H826 0.950 . S
C832 C833 1.327 . S
C833 H827 0.950 . S
C833 C832 1.327 . S
C833 C837 1.429 . S
C834 C817 1.574 . S
C834 H828 0.949 . S
C834 C838 1.368 . S
C835 C816 1.429 . S
C835 C829 1.429 . S
C835 C836 1.523 . S
C836 C817 1.368 . S
C836 C830 1.368 . S
C836 C835 1.523 . S
C837 C821 1.429 . S
C837 C833 1.429 . S
C837 C838 1.523 . S
C838 C822 1.368 . S
C838 C834 1.368 . S
C838 C837 1.523 . S
H839 C814 0.950 . S
H840 C816 0.950 . S
H841 C817 0.949 . S
H842 C819 0.950 . S
H843 C821 0.950 . S
C844 C845 1.349 . S
C844 C846 1.327 . S
C844 H869 0.950 . S
C845 C844 1.349 . S
C845 C861 1.349 . S
C846 C844 1.327 . S
C846 C865 1.429 . S
C846 H870 0.950 . S
C847 C864 1.574 . S
C847 C866 1.368 . S
C847 H871 0.949 . S
H848 C852 0.949 . S
C849 C850 1.349 . S
C849 C851 1.327 . S
C849 H872 0.950 . S
C850 C849 1.349 . S
C850 C862 1.349 . S
C851 C849 1.327 . S
C851 C867 1.429 . S
C851 H873 0.950 . S
C852 H848 0.949 . S
C852 C860 1.574 . S
C852 C868 1.368 . S
H853 C861 0.950 . S
H854 C859 0.950 . S
H855 C860 0.949 . S
H856 C862 0.950 . S
H857 C863 0.950 . S
H858 C864 0.949 . S
C859 H854 0.950 . S
C859 C861 1.327 . S
C859 C865 1.429 . S
C860 C852 1.574 . S
C860 H855 0.949 . S
C860 C866 1.368 . S
C861 C845 1.349 . S
C861 H853 0.950 . S
C861 C859 1.327 . S
C862 C850 1.349 . S
C862 H856 0.950 . S
C862 C863 1.327 . S
C863 H857 0.950 . S
C863 C862 1.327 . S
C863 C867 1.429 . S
C864 C847 1.574 . S
C864 H858 0.949 . S
C864 C868 1.368 . S
C865 C846 1.429 . S
C865 C859 1.429 . S
C865 C866 1.523 . S
C866 C847 1.368 . S
C866 C860 1.368 . S
C866 C865 1.523 . S
C867 C851 1.429 . S
C867 C863 1.429 . S
C867 C868 1.523 . S
C868 C852 1.368 . S
C868 C864 1.368 . S
C868 C867 1.523 . S
H869 C844 0.950 . S
H870 C846 0.950 . S
H871 C847 0.949 . S
H872 C849 0.950 . S
H873 C851 0.950 . S
C874 C875 1.349 . S
C874 C876 1.327 . S
C874 H899 0.950 . S
C875 C874 1.349 . S
C875 C891 1.349 . S
C876 C874 1.327 . S
C876 C895 1.429 . S
C876 H900 0.950 . S
C877 C894 1.574 . S
C877 C896 1.368 . S
C877 H901 0.949 . S
H878 C882 0.949 . S
C879 C880 1.349 . S
C879 C881 1.327 . S
C879 H902 0.950 . S
C880 C879 1.349 . S
C880 C892 1.349 . S
C881 C879 1.327 . S
C881 C897 1.429 . S
C881 H903 0.950 . S
C882 H878 0.949 . S
C882 C890 1.574 . S
C882 C898 1.368 . S
H883 C891 0.950 . S
H884 C889 0.950 . S
H885 C890 0.949 . S
H886 C892 0.950 . S
H887 C893 0.950 . S
H888 C894 0.949 . S
C889 H884 0.950 . S
C889 C891 1.327 . S
C889 C895 1.429 . S
C890 C882 1.574 . S
C890 H885 0.949 . S
C890 C896 1.368 . S
C891 C875 1.349 . S
C891 H883 0.950 . S
C891 C889 1.327 . S
C892 C880 1.349 . S
C892 H886 0.950 . S
C892 C893 1.327 . S
C893 H887 0.950 . S
C893 C892 1.327 . S
C893 C897 1.429 . S
C894 C877 1.574 . S
C894 H888 0.949 . S
C894 C898 1.368 . S
C895 C876 1.429 . S
C895 C889 1.429 . S
C895 C896 1.523 . S
C896 C877 1.368 . S
C896 C890 1.368 . S
C896 C895 1.523 . S
C897 C881 1.429 . S
C897 C893 1.429 . S
C897 C898 1.523 . S
C898 C882 1.368 . S
C898 C894 1.368 . S
C898 C897 1.523 . S
H899 C874 0.950 . S
H900 C876 0.950 . S
H901 C877 0.949 . S
H902 C879 0.950 . S
H903 C881 0.950 . S
C904 C905 1.349 . S
C904 C906 1.327 . S
C904 H929 0.950 . S
C905 C904 1.349 . S
C905 C921 1.349 . S
C906 C904 1.327 . S
C906 C925 1.429 . S
C906 H930 0.950 . S
C907 C924 1.574 . S
C907 C926 1.368 . S
C907 H931 0.949 . S
H908 C912 0.949 . S
C909 C910 1.349 . S
C909 C911 1.327 . S
C909 H932 0.950 . S
C910 C909 1.349 . S
C910 C922 1.349 . S
C911 C909 1.327 . S
C911 C927 1.429 . S
C911 H933 0.950 . S
C912 H908 0.949 . S
C912 C920 1.574 . S
C912 C928 1.368 . S
H913 C921 0.950 . S
H914 C919 0.950 . S
H915 C920 0.949 . S
H916 C922 0.950 . S
H917 C923 0.950 . S
H918 C924 0.949 . S
C919 H914 0.950 . S
C919 C921 1.327 . S
C919 C925 1.429 . S
C920 C912 1.574 . S
C920 H915 0.949 . S
C920 C926 1.368 . S
C921 C905 1.349 . S
C921 H913 0.950 . S
C921 C919 1.327 . S
C922 C910 1.349 . S
C922 H916 0.950 . S
C922 C923 1.327 . S
C923 H917 0.950 . S
C923 C922 1.327 . S
C923 C927 1.429 . S
C924 C907 1.574 . S
C924 H918 0.949 . S
C924 C928 1.368 . S
C925 C906 1.429 . S
C925 C919 1.429 . S
C925 C926 1.523 . S
C926 C907 1.368 . S
C926 C920 1.368 . S
C926 C925 1.523 . S
C927 C911 1.429 . S
C927 C923 1.429 . S
C927 C928 1.523 . S
C928 C912 1.368 . S
C928 C924 1.368 . S
C928 C927 1.523 . S
H929 C904 0.950 . S
H930 C906 0.950 . S
H931 C907 0.949 . S
H932 C909 0.950 . S
H933 C911 0.950 . S
C934 C935 1.349 . S
C934 C936 1.327 . S
C934 H959 0.950 . S
C935 C934 1.349 . S
C935 C951 1.349 . S
C936 C934 1.327 . S
C936 C955 1.429 . S
C936 H960 0.950 . S
C937 C954 1.574 . S
C937 C956 1.368 . S
C937 H961 0.949 . S
H938 C942 0.949 . S
C939 C940 1.349 . S
C939 C941 1.327 . S
C939 H962 0.950 . S
C940 C939 1.349 . S
C940 C952 1.349 . S
C941 C939 1.327 . S
C941 C957 1.429 . S
C941 H963 0.950 . S
C942 H938 0.949 . S
C942 C950 1.574 . S
C942 C958 1.368 . S
H943 C951 0.950 . S
H944 C949 0.950 . S
H945 C950 0.949 . S
H946 C952 0.950 . S
H947 C953 0.950 . S
H948 C954 0.949 . S
C949 H944 0.950 . S
C949 C951 1.327 . S
C949 C955 1.429 . S
C950 C942 1.574 . S
C950 H945 0.949 . S
C950 C956 1.368 . S
C951 C935 1.349 . S
C951 H943 0.950 . S
C951 C949 1.327 . S
C952 C940 1.349 . S
C952 H946 0.950 . S
C952 C953 1.327 . S
C953 H947 0.950 . S
C953 C952 1.327 . S
C953 C957 1.429 . S
C954 C937 1.574 . S
C954 H948 0.949 . S
C954 C958 1.368 . S
C955 C936 1.429 . S
C955 C949 1.429 . S
C955 C956 1.523 . S
C956 C937 1.368 . S
C956 C950 1.368 . S
C956 C955 1.523 . S
C957 C941 1.429 . S
C957 C953 1.429 . S
C957 C958 1.523 . S
C958 C942 1.368 . S
C958 C954 1.368 . S
C958 C957 1.523 . S
H959 C934 0.950 . S
H960 C936 0.950 . S
H961 C937 0.949 . S
H962 C939 0.950 . S
H963 C941 0.950 . S
C964 C965 1.349 . S
C964 C966 1.327 . S
C964 H989 0.950 . S
C965 C964 1.349 . S
C965 C981 1.349 . S
C966 C964 1.327 . S
C966 C985 1.429 . S
C966 H990 0.950 . S
C967 C984 1.574 . S
C967 C986 1.368 . S
C967 H991 0.949 . S
H968 C972 0.949 . S
C969 C970 1.349 . S
C969 C971 1.327 . S
C969 H992 0.950 . S
C970 C969 1.349 . S
C970 C982 1.349 . S
C971 C969 1.327 . S
C971 C987 1.429 . S
C971 H993 0.950 . S
C972 H968 0.949 . S
C972 C980 1.574 . S
C972 C988 1.368 . S
H973 C981 0.950 . S
H974 C979 0.950 . S
H975 C980 0.949 . S
H976 C982 0.950 . S
H977 C983 0.950 . S
H978 C984 0.949 . S
C979 H974 0.950 . S
C979 C981 1.327 . S
C979 C985 1.429 . S
C980 C972 1.574 . S
C980 H975 0.949 . S
C980 C986 1.368 . S
C981 C965 1.349 . S
C981 H973 0.950 . S
C981 C979 1.327 . S
C982 C970 1.349 . S
C982 H976 0.950 . S
C982 C983 1.327 . S
C983 H977 0.950 . S
C983 C982 1.327 . S
C983 C987 1.429 . S
C984 C967 1.574 . S
C984 H978 0.949 . S
C984 C988 1.368 . S
C985 C966 1.429 . S
C985 C979 1.429 . S
C985 C986 1.523 . S
C986 C967 1.368 . S
C986 C980 1.368 . S
C986 C985 1.523 . S
C987 C971 1.429 . S
C987 C983 1.429 . S
C987 C988 1.523 . S
C988 C972 1.368 . S
C988 C984 1.368 . S
C988 C987 1.523 . S
H989 C964 0.950 . S
H990 C966 0.950 . S
H991 C967 0.949 . S
H992 C969 0.950 . S
H993 C971 0.950 . S
C994 C995 1.349 . S
C994 C996 1.327 . S
C994 H1019 0.950 . S
C995 C994 1.349 . S
C995 C1011 1.349 . S
C996 C994 1.327 . S
C996 C1015 1.429 . S
C996 H1020 0.950 . S
C997 C1014 1.574 . S
C997 C1016 1.368 . S
C997 H1021 0.949 . S
H998 C1002 0.949 . S
C999 C1000 1.349 . S
C999 C1001 1.327 . S
C999 H1022 0.950 . S
C1000 C999 1.349 . S
C1000 C1012 1.349 . S
C1001 C999 1.327 . S
C1001 C1017 1.429 . S
C1001 H1023 0.950 . S
C1002 H998 0.949 . S
C1002 C1010 1.574 . S
C1002 C1018 1.368 . S
H1003 C1011 0.950 . S
H1004 C1009 0.950 . S
H1005 C1010 0.949 . S
H1006 C1012 0.950 . S
H1007 C1013 0.950 . S
H1008 C1014 0.949 . S
C1009 H1004 0.950 . S
C1009 C1011 1.327 . S
C1009 C1015 1.429 . S
C1010 C1002 1.574 . S
C1010 H1005 0.949 . S
C1010 C1016 1.368 . S
C1011 C995 1.349 . S
C1011 H1003 0.950 . S
C1011 C1009 1.327 . S
C1012 C1000 1.349 . S
C1012 H1006 0.950 . S
C1012 C1013 1.327 . S
C1013 H1007 0.950 . S
C1013 C1012 1.327 . S
C1013 C1017 1.429 . S
C1014 C997 1.574 . S
C1014 H1008 0.949 . S
C1014 C1018 1.368 . S
C1015 C996 1.429 . S
C1015 C1009 1.429 . S
C1015 C1016 1.523 . S
C1016 C997 1.368 . S
C1016 C1010 1.368 . S
C1016 C1015 1.523 . S
C1017 C1001 1.429 . S
C1017 C1013 1.429 . S
C1017 C1018 1.523 . S
C1018 C1002 1.368 . S
C1018 C1014 1.368 . S
C1018 C1017 1.523 . S
H1019 C994 0.950 . S
H1020 C996 0.950 . S
H1021 C997 0.949 . S
H1022 C999 0.950 . S
H1023 C1001 0.950 . S
C1024 C1025 1.349 . S
C1024 C1026 1.327 . S
C1024 H1049 0.950 . S
C1025 C1024 1.349 . S
C1025 C1041 1.349 . S
C1026 C1024 1.327 . S
C1026 C1045 1.429 . S
C1026 H1050 0.950 . S
C1027 C1044 1.574 . S
C1027 C1046 1.368 . S
C1027 H1051 0.949 . S
H1028 C1032 0.949 . S
C1029 C1030 1.349 . S
C1029 C1031 1.327 . S
C1029 H1052 0.950 . S
C1030 C1029 1.349 . S
C1030 C1042 1.349 . S
C1031 C1029 1.327 . S
C1031 C1047 1.429 . S
C1031 H1053 0.950 . S
C1032 H1028 0.949 . S
C1032 C1040 1.574 . S
C1032 C1048 1.368 . S
H1033 C1041 0.950 . S
H1034 C1039 0.950 . S
H1035 C1040 0.949 . S
H1036 C1042 0.950 . S
H1037 C1043 0.950 . S
H1038 C1044 0.949 . S
C1039 H1034 0.950 . S
C1039 C1041 1.327 . S
C1039 C1045 1.429 . S
C1040 C1032 1.574 . S
C1040 H1035 0.949 . S
C1040 C1046 1.368 . S
C1041 C1025 1.349 . S
C1041 H1033 0.950 . S
C1041 C1039 1.327 . S
C1042 C1030 1.349 . S
C1042 H1036 0.950 . S
C1042 C1043 1.327 . S
C1043 H1037 0.950 . S
C1043 C1042 1.327 . S
C1043 C1047 1.429 . S
C1044 C1027 1.574 . S
C1044 H1038 0.949 . S
C1044 C1048 1.368 . S
C1045 C1026 1.429 . S
C1045 C1039 1.429 . S
C1045 C1046 1.523 . S
C1046 C1027 1.368 . S
C1046 C1040 1.368 . S
C1046 C1045 1.523 . S
C1047 C1031 1.429 . S
C1047 C1043 1.429 . S
C1047 C1048 1.523 . S
C1048 C1032 1.368 . S
C1048 C1044 1.368 . S
C1048 C1047 1.523 . S
H1049 C1024 0.950 . S
H1050 C1026 0.950 . S
H1051 C1027 0.949 . S
H1052 C1029 0.950 . S
H1053 C1031 0.950 . S
C1054 C1055 1.349 . S
C1054 C1056 1.327 . S
C1054 H1079 0.950 . S
C1055 C1054 1.349 . S
C1055 C1071 1.349 . S
C1056 C1054 1.327 . S
C1056 C1075 1.429 . S
C1056 H1080 0.950 . S
C1057 C1074 1.574 . S
C1057 C1076 1.368 . S
C1057 H1081 0.949 . S
H1058 C1062 0.949 . S
C1059 C1060 1.349 . S
C1059 C1061 1.327 . S
C1059 H1082 0.950 . S
C1060 C1059 1.349 . S
C1060 C1072 1.349 . S
C1061 C1059 1.327 . S
C1061 C1077 1.429 . S
C1061 H1083 0.950 . S
C1062 H1058 0.949 . S
C1062 C1070 1.574 . S
C1062 C1078 1.368 . S
H1063 C1071 0.950 . S
H1064 C1069 0.950 . S
H1065 C1070 0.949 . S
H1066 C1072 0.950 . S
H1067 C1073 0.950 . S
H1068 C1074 0.949 . S
C1069 H1064 0.950 . S
C1069 C1071 1.327 . S
C1069 C1075 1.429 . S
C1070 C1062 1.574 . S
C1070 H1065 0.949 . S
C1070 C1076 1.368 . S
C1071 C1055 1.349 . S
C1071 H1063 0.950 . S
C1071 C1069 1.327 . S
C1072 C1060 1.349 . S
C1072 H1066 0.950 . S
C1072 C1073 1.327 . S
C1073 H1067 0.950 . S
C1073 C1072 1.327 . S
C1073 C1077 1.429 . S
C1074 C1057 1.574 . S
C1074 H1068 0.949 . S
C1074 C1078 1.368 . S
C1075 C1056 1.429 . S
C1075 C1069 1.429 . S
C1075 C1076 1.523 . S
C1076 C1057 1.368 . S
C1076 C1070 1.368 . S
C1076 C1075 1.523 . S
C1077 C1061 1.429 . S
C1077 C1073 1.429 . S
C1077 C1078 1.523 . S
C1078 C1062 1.368 . S
C1078 C1074 1.368 . S
C1078 C1077 1.523 . S
H1079 C1054 0.950 . S
H1080 C1056 0.950 . S
H1081 C1057 0.949 . S
H1082 C1059 0.950 . S
H1083 C1061 0.950 . S
C1084 C1085 1.349 . S
C1084 C1086 1.327 . S
C1084 H1109 0.950 . S
C1085 C1084 1.349 . S
C1085 C1101 1.349 . S
C1086 C1084 1.327 . S
C1086 C1105 1.429 . S
C1086 H1110 0.950 . S
C1087 C1104 1.574 . S
C1087 C1106 1.368 . S
C1087 H1111 0.949 . S
H1088 C1092 0.949 . S
C1089 C1090 1.349 . S
C1089 C1091 1.327 . S
C1089 H1112 0.950 . S
C1090 C1089 1.349 . S
C1090 C1102 1.349 . S
C1091 C1089 1.327 . S
C1091 C1107 1.429 . S
C1091 H1113 0.950 . S
C1092 H1088 0.949 . S
C1092 C1100 1.574 . S
C1092 C1108 1.368 . S
H1093 C1101 0.950 . S
H1094 C1099 0.950 . S
H1095 C1100 0.949 . S
H1096 C1102 0.950 . S
H1097 C1103 0.950 . S
H1098 C1104 0.949 . S
C1099 H1094 0.950 . S
C1099 C1101 1.327 . S
C1099 C1105 1.429 . S
C1100 C1092 1.574 . S
C1100 H1095 0.949 . S
C1100 C1106 1.368 . S
C1101 C1085 1.349 . S
C1101 H1093 0.950 . S
C1101 C1099 1.327 . S
C1102 C1090 1.349 . S
C1102 H1096 0.950 . S
C1102 C1103 1.327 . S
C1103 H1097 0.950 . S
C1103 C1102 1.327 . S
C1103 C1107 1.429 . S
C1104 C1087 1.574 . S
C1104 H1098 0.949 . S
C1104 C1108 1.368 . S
C1105 C1086 1.429 . S
C1105 C1099 1.429 . S
C1105 C1106 1.523 . S
C1106 C1087 1.368 . S
C1106 C1100 1.368 . S
C1106 C1105 1.523 . S
C1107 C1091 1.429 . S
C1107 C1103 1.429 . S
C1107 C1108 1.523 . S
C1108 C1092 1.368 . S
C1108 C1104 1.368 . S
C1108 C1107 1.523 . S
H1109 C1084 0.950 . S
H1110 C1086 0.950 . S
H1111 C1087 0.949 . S
H1112 C1089 0.950 . S
H1113 C1091 0.950 . S
C1114 C1115 1.349 . S
C1114 C1116 1.327 . S
C1114 H1139 0.950 . S
C1115 C1114 1.349 . S
C1115 C1131 1.349 . S
C1116 C1114 1.327 . S
C1116 C1135 1.429 . S
C1116 H1140 0.950 . S
C1117 C1134 1.574 . S
C1117 C1136 1.368 . S
C1117 H1141 0.949 . S
H1118 C1122 0.949 . S
C1119 C1120 1.349 . S
C1119 C1121 1.327 . S
C1119 H1142 0.950 . S
C1120 C1119 1.349 . S
C1120 C1132 1.349 . S
C1121 C1119 1.327 . S
C1121 C1137 1.429 . S
C1121 H1143 0.950 . S
C1122 H1118 0.949 . S
C1122 C1130 1.574 . S
C1122 C1138 1.368 . S
H1123 C1131 0.950 . S
H1124 C1129 0.950 . S
H1125 C1130 0.949 . S
H1126 C1132 0.950 . S
H1127 C1133 0.950 . S
H1128 C1134 0.949 . S
C1129 H1124 0.950 . S
C1129 C1131 1.327 . S
C1129 C1135 1.429 . S
C1130 C1122 1.574 . S
C1130 H1125 0.949 . S
C1130 C1136 1.368 . S
C1131 C1115 1.349 . S
C1131 H1123 0.950 . S
C1131 C1129 1.327 . S
C1132 C1120 1.349 . S
C1132 H1126 0.950 . S
C1132 C1133 1.327 . S
C1133 H1127 0.950 . S
C1133 C1132 1.327 . S
C1133 C1137 1.429 . S
C1134 C1117 1.574 . S
C1134 H1128 0.949 . S
C1134 C1138 1.368 . S
C1135 C1116 1.429 . S
C1135 C1129 1.429 . S
C1135 C1136 1.523 . S
C1136 C1117 1.368 . S
C1136 C1130 1.368 . S
C1136 C1135 1.523 . S
C1137 C1121 1.429 . S
C1137 C1133 1.429 . S
C1137 C1138 1.523 . S
C1138 C1122 1.368 . S
C1138 C1134 1.368 . S
C1138 C1137 1.523 . S
H1139 C1114 0.950 . S
H1140 C1116 0.950 . S
H1141 C1117 0.949 . S
H1142 C1119 0.950 . S
H1143 C1121 0.950 . S
C1144 C1145 1.349 . S
C1144 C1146 1.327 . S
C1144 H1169 0.950 . S
C1145 C1144 1.349 . S
C1145 C1161 1.349 . S
C1146 C1144 1.327 . S
C1146 C1165 1.429 . S
C1146 H1170 0.950 . S
C1147 C1164 1.574 . S
C1147 C1166 1.368 . S
C1147 H1171 0.949 . S
H1148 C1152 0.949 . S
C1149 C1150 1.349 . S
C1149 C1151 1.327 . S
C1149 H1172 0.950 . S
C1150 C1149 1.349 . S
C1150 C1162 1.349 . S
C1151 C1149 1.327 . S
C1151 C1167 1.429 . S
C1151 H1173 0.950 . S
C1152 H1148 0.949 . S
C1152 C1160 1.574 . S
C1152 C1168 1.368 . S
H1153 C1161 0.950 . S
H1154 C1159 0.950 . S
H1155 C1160 0.949 . S
H1156 C1162 0.950 . S
H1157 C1163 0.950 . S
H1158 C1164 0.949 . S
C1159 H1154 0.950 . S
C1159 C1161 1.327 . S
C1159 C1165 1.429 . S
C1160 C1152 1.574 . S
C1160 H1155 0.949 . S
C1160 C1166 1.368 . S
C1161 C1145 1.349 . S
C1161 H1153 0.950 . S
C1161 C1159 1.327 . S
C1162 C1150 1.349 . S
C1162 H1156 0.950 . S
C1162 C1163 1.327 . S
C1163 H1157 0.950 . S
C1163 C1162 1.327 . S
C1163 C1167 1.429 . S
C1164 C1147 1.574 . S
C1164 H1158 0.949 . S
C1164 C1168 1.368 . S
C1165 C1146 1.429 . S
C1165 C1159 1.429 . S
C1165 C1166 1.523 . S
C1166 C1147 1.368 . S
C1166 C1160 1.368 . S
C1166 C1165 1.523 . S
C1167 C1151 1.429 . S
C1167 C1163 1.429 . S
C1167 C1168 1.523 . S
C1168 C1152 1.368 . S
C1168 C1164 1.368 . S
C1168 C1167 1.523 . S
H1169 C1144 0.950 . S
H1170 C1146 0.950 . S
H1171 C1147 0.949 . S
H1172 C1149 0.950 . S
H1173 C1151 0.950 . S
C1174 C1175 1.349 . S
C1174 C1176 1.327 . S
C1174 H1199 0.950 . S
C1175 C1174 1.349 . S
C1175 C1191 1.349 . S
C1176 C1174 1.327 . S
C1176 C1195 1.429 . S
C1176 H1200 0.950 . S
C1177 C1194 1.574 . S
C1177 C1196 1.368 . S
C1177 H1201 0.949 . S
H1178 C1182 0.949 . S
C1179 C1180 1.349 . S
C1179 C1181 1.327 . S
C1179 H1202 0.950 . S
C1180 C1179 1.349 . S
C1180 C1192 1.349 . S
C1181 C1179 1.327 . S
C1181 C1197 1.429 . S
C1181 H1203 0.950 . S
C1182 H1178 0.949 . S
C1182 C1190 1.574 . S
C1182 C1198 1.368 . S
H1183 C1191 0.950 . S
H1184 C1189 0.950 . S
H1185 C1190 0.949 . S
H1186 C1192 0.950 . S
H1187 C1193 0.950 . S
H1188 C1194 0.949 . S
C1189 H1184 0.950 . S
C1189 C1191 1.327 . S
C1189 C1195 1.429 . S
C1190 C1182 1.574 . S
C1190 H1185 0.949 . S
C1190 C1196 1.368 . S
C1191 C1175 1.349 . S
C1191 H1183 0.950 . S
C1191 C1189 1.327 . S
C1192 C1180 1.349 . S
C1192 H1186 0.950 . S
C1192 C1193 1.327 . S
C1193 H1187 0.950 . S
C1193 C1192 1.327 . S
C1193 C1197 1.429 . S
C1194 C1177 1.574 . S
C1194 H1188 0.949 . S
C1194 C1198 1.368 . S
C1195 C1176 1.429 . S
C1195 C1189 1.429 . S
C1195 C1196 1.523 . S
C1196 C1177 1.368 . S
C1196 C1190 1.368 . S
C1196 C1195 1.523 . S
C1197 C1181 1.429 . S
C1197 C1193 1.429 . S
C1197 C1198 1.523 . S
C1198 C1182 1.368 . S
C1198 C1194 1.368 . S
C1198 C1197 1.523 . S
H1199 C1174 0.950 . S
H1200 C1176 0.950 . S
H1201 C1177 0.949 . S
H1202 C1179 0.950 . S
H1203 C1181 0.950 . S
C1204 C1205 1.349 . S
C1204 C1206 1.327 . S
C1204 H1229 0.950 . S
C1205 C1204 1.349 . S
C1205 C1221 1.349 . S
C1206 C1204 1.327 . S
C1206 C1225 1.429 . S
C1206 H1230 0.950 . S
C1207 C1224 1.574 . S
C1207 C1226 1.368 . S
C1207 H1231 0.949 . S
H1208 C1212 0.949 . S
C1209 C1210 1.349 . S
C1209 C1211 1.327 . S
C1209 H1232 0.950 . S
C1210 C1209 1.349 . S
C1210 C1222 1.349 . S
C1211 C1209 1.327 . S
C1211 C1227 1.429 . S
C1211 H1233 0.950 . S
C1212 H1208 0.949 . S
C1212 C1220 1.574 . S
C1212 C1228 1.368 . S
H1213 C1221 0.950 . S
H1214 C1219 0.950 . S
H1215 C1220 0.949 . S
H1216 C1222 0.950 . S
H1217 C1223 0.950 . S
H1218 C1224 0.949 . S
C1219 H1214 0.950 . S
C1219 C1221 1.327 . S
C1219 C1225 1.429 . S
C1220 C1212 1.574 . S
C1220 H1215 0.949 . S
C1220 C1226 1.368 . S
C1221 C1205 1.349 . S
C1221 H1213 0.950 . S
C1221 C1219 1.327 . S
C1222 C1210 1.349 . S
C1222 H1216 0.950 . S
C1222 C1223 1.327 . S
C1223 H1217 0.950 . S
C1223 C1222 1.327 . S
C1223 C1227 1.429 . S
C1224 C1207 1.574 . S
C1224 H1218 0.949 . S
C1224 C1228 1.368 . S
C1225 C1206 1.429 . S
C1225 C1219 1.429 . S
C1225 C1226 1.523 . S
C1226 C1207 1.368 . S
C1226 C1220 1.368 . S
C1226 C1225 1.523 . S
C1227 C1211 1.429 . S
C1227 C1223 1.429 . S
C1227 C1228 1.523 . S
C1228 C1212 1.368 . S
C1228 C1224 1.368 . S
C1228 C1227 1.523 . S
H1229 C1204 0.950 . S
H1230 C1206 0.950 . S
H1231 C1207 0.949 . S
H1232 C1209 0.950 . S
H1233 C1211 0.950 . S
C1234 C1235 1.349 . S
C1234 C1236 1.327 . S
C1234 H1259 0.950 . S
C1235 C1234 1.349 . S
C1235 C1251 1.349 . S
C1236 C1234 1.327 . S
C1236 C1255 1.429 . S
C1236 H1260 0.950 . S
C1237 C1254 1.574 . S
C1237 C1256 1.368 . S
C1237 H1261 0.949 . S
H1238 C1242 0.949 . S
C1239 C1240 1.349 . S
C1239 C1241 1.327 . S
C1239 H1262 0.950 . S
C1240 C1239 1.349 . S
C1240 C1252 1.349 . S
C1241 C1239 1.327 . S
C1241 C1257 1.429 . S
C1241 H1263 0.950 . S
C1242 H1238 0.949 . S
C1242 C1250 1.574 . S
C1242 C1258 1.368 . S
H1243 C1251 0.950 . S
H1244 C1249 0.950 . S
H1245 C1250 0.949 . S
H1246 C1252 0.950 . S
H1247 C1253 0.950 . S
H1248 C1254 0.949 . S
C1249 H1244 0.950 . S
C1249 C1251 1.327 . S
C1249 C1255 1.429 . S
C1250 C1242 1.574 . S
C1250 H1245 0.949 . S
C1250 C1256 1.368 . S
C1251 C1235 1.349 . S
C1251 H1243 0.950 . S
C1251 C1249 1.327 . S
C1252 C1240 1.349 . S
C1252 H1246 0.950 . S
C1252 C1253 1.327 . S
C1253 H1247 0.950 . S
C1253 C1252 1.327 . S
C1253 C1257 1.429 . S
C1254 C1237 1.574 . S
C1254 H1248 0.949 . S
C1254 C1258 1.368 . S
C1255 C1236 1.429 . S
C1255 C1249 1.429 . S
C1255 C1256 1.523 . S
C1256 C1237 1.368 . S
C1256 C1250 1.368 . S
C1256 C1255 1.523 . S
C1257 C1241 1.429 . S
C1257 C1253 1.429 . S
C1257 C1258 1.523 . S
C1258 C1242 1.368 . S
C1258 C1254 1.368 . S
C1258 C1257 1.523 . S
H1259 C1234 0.950 . S
H1260 C1236 0.950 . S
H1261 C1237 0.949 . S
H1262 C1239 0.950 . S
H1263 C1241 0.950 . S
C1264 C1265 1.349 . S
C1264 C1266 1.327 . S
C1264 H1289 0.950 . S
C1265 C1264 1.349 . S
C1265 C1281 1.349 . S
C1266 C1264 1.327 . S
C1266 C1285 1.429 . S
C1266 H1290 0.950 . S
C1267 C1284 1.574 . S
C1267 C1286 1.368 . S
C1267 H1291 0.949 . S
H1268 C1272 0.949 . S
C1269 C1270 1.349 . S
C1269 C1271 1.327 . S
C1269 H1292 0.950 . S
C1270 C1269 1.349 . S
C1270 C1282 1.349 . S
C1271 C1269 1.327 . S
C1271 C1287 1.429 . S
C1271 H1293 0.950 . S
C1272 H1268 0.949 . S
C1272 C1280 1.574 . S
C1272 C1288 1.368 . S
H1273 C1281 0.950 . S
H1274 C1279 0.950 . S
H1275 C1280 0.949 . S
H1276 C1282 0.950 . S
H1277 C1283 0.950 . S
H1278 C1284 0.949 . S
C1279 H1274 0.950 . S
C1279 C1281 1.327 . S
C1279 C1285 1.429 . S
C1280 C1272 1.574 . S
C1280 H1275 0.949 . S
C1280 C1286 1.368 . S
C1281 C1265 1.349 . S
C1281 H1273 0.950 . S
C1281 C1279 1.327 . S
C1282 C1270 1.349 . S
C1282 H1276 0.950 . S
C1282 C1283 1.327 . S
C1283 H1277 0.950 . S
C1283 C1282 1.327 . S
C1283 C1287 1.429 . S
C1284 C1267 1.574 . S
C1284 H1278 0.949 . S
C1284 C1288 1.368 . S
C1285 C1266 1.429 . S
C1285 C1279 1.429 . S
C1285 C1286 1.523 . S
C1286 C1267 1.368 . S
C1286 C1280 1.368 . S
C1286 C1285 1.523 . S
C1287 C1271 1.429 . S
C1287 C1283 1.429 . S
C1287 C1288 1.523 . S
C1288 C1272 1.368 . S
C1288 C1284 1.368 . S
C1288 C1287 1.523 . S
H1289 C1264 0.950 . S
H1290 C1266 0.950 . S
H1291 C1267 0.949 . S
H1292 C1269 0.950 . S
H1293 C1271 0.950 . S
C1294 C1295 1.349 . S
C1294 C1296 1.327 . S
C1294 H1319 0.950 . S
C1295 C1294 1.349 . S
C1295 C1311 1.349 . S
C1296 C1294 1.327 . S
C1296 C1315 1.429 . S
C1296 H1320 0.950 . S
C1297 C1314 1.574 . S
C1297 C1316 1.368 . S
C1297 H1321 0.949 . S
H1298 C1302 0.949 . S
C1299 C1300 1.349 . S
C1299 C1301 1.327 . S
C1299 H1322 0.950 . S
C1300 C1299 1.349 . S
C1300 C1312 1.349 . S
C1301 C1299 1.327 . S
C1301 C1317 1.429 . S
C1301 H1323 0.950 . S
C1302 H1298 0.949 . S
C1302 C1310 1.574 . S
C1302 C1318 1.368 . S
H1303 C1311 0.950 . S
H1304 C1309 0.950 . S
H1305 C1310 0.949 . S
H1306 C1312 0.950 . S
H1307 C1313 0.950 . S
H1308 C1314 0.949 . S
C1309 H1304 0.950 . S
C1309 C1311 1.327 . S
C1309 C1315 1.429 . S
C1310 C1302 1.574 . S
C1310 H1305 0.949 . S
C1310 C1316 1.368 . S
C1311 C1295 1.349 . S
C1311 H1303 0.950 . S
C1311 C1309 1.327 . S
C1312 C1300 1.349 . S
C1312 H1306 0.950 . S
C1312 C1313 1.327 . S
C1313 H1307 0.950 . S
C1313 C1312 1.327 . S
C1313 C1317 1.429 . S
C1314 C1297 1.574 . S
C1314 H1308 0.949 . S
C1314 C1318 1.368 . S
C1315 C1296 1.429 . S
C1315 C1309 1.429 . S
C1315 C1316 1.523 . S
C1316 C1297 1.368 . S
C1316 C1310 1.368 . S
C1316 C1315 1.523 . S
C1317 C1301 1.429 . S
C1317 C1313 1.429 . S
C1317 C1318 1.523 . S
C1318 C1302 1.368 . S
C1318 C1314 1.368 . S
C1318 C1317 1.523 . S
H1319 C1294 0.950 . S
H1320 C1296 0.950 . S
H1321 C1297 0.949 . S
H1322 C1299 0.950 . S
H1323 C1301 0.950 . S
C1324 C1325 1.349 . S
C1324 C1326 1.327 . S
C1324 H1349 0.950 . S
C1325 C1324 1.349 . S
C1325 C1341 1.349 . S
C1326 C1324 1.327 . S
C1326 C1345 1.429 . S
C1326 H1350 0.950 . S
C1327 C1344 1.574 . S
C1327 C1346 1.368 . S
C1327 H1351 0.949 . S
H1328 C1332 0.949 . S
C1329 C1330 1.349 . S
C1329 C1331 1.327 . S
C1329 H1352 0.950 . S
C1330 C1329 1.349 . S
C1330 C1342 1.349 . S
C1331 C1329 1.327 . S
C1331 C1347 1.429 . S
C1331 H1353 0.950 . S
C1332 H1328 0.949 . S
C1332 C1340 1.574 . S
C1332 C1348 1.368 . S
H1333 C1341 0.950 . S
H1334 C1339 0.950 . S
H1335 C1340 0.949 . S
H1336 C1342 0.950 . S
H1337 C1343 0.950 . S
H1338 C1344 0.949 . S
C1339 H1334 0.950 . S
C1339 C1341 1.327 . S
C1339 C1345 1.429 . S
C1340 C1332 1.574 . S
C1340 H1335 0.949 . S
C1340 C1346 1.368 . S
C1341 C1325 1.349 . S
C1341 H1333 0.950 . S
C1341 C1339 1.327 . S
C1342 C1330 1.349 . S
C1342 H1336 0.950 . S
C1342 C1343 1.327 . S
C1343 H1337 0.950 . S
C1343 C1342 1.327 . S
C1343 C1347 1.429 . S
C1344 C1327 1.574 . S
C1344 H1338 0.949 . S
C1344 C1348 1.368 . S
C1345 C1326 1.429 . S
C1345 C1339 1.429 . S
C1345 C1346 1.523 . S
C1346 C1327 1.368 . S
C1346 C1340 1.368 . S
C1346 C1345 1.523 . S
C1347 C1331 1.429 . S
C1347 C1343 1.429 . S
C1347 C1348 1.523 . S
C1348 C1332 1.368 . S
C1348 C1344 1.368 . S
C1348 C1347 1.523 . S
H1349 C1324 0.950 . S
H1350 C1326 0.950 . S
H1351 C1327 0.949 . S
H1352 C1329 0.950 . S
H1353 C1331 0.950 . S
C1354 C1355 1.349 . S
C1354 C1356 1.327 . S
C1354 H1379 0.950 . S
C1355 C1354 1.349 . S
C1355 C1371 1.349 . S
C1356 C1354 1.327 . S
C1356 C1375 1.429 . S
C1356 H1380 0.950 . S
C1357 C1374 1.574 . S
C1357 C1376 1.368 . S
C1357 H1381 0.949 . S
H1358 C1362 0.949 . S
C1359 C1360 1.349 . S
C1359 C1361 1.327 . S
C1359 H1382 0.950 . S
C1360 C1359 1.349 . S
C1360 C1372 1.349 . S
C1361 C1359 1.327 . S
C1361 C1377 1.429 . S
C1361 H1383 0.950 . S
C1362 H1358 0.949 . S
C1362 C1370 1.574 . S
C1362 C1378 1.368 . S
H1363 C1371 0.950 . S
H1364 C1369 0.950 . S
H1365 C1370 0.949 . S
H1366 C1372 0.950 . S
H1367 C1373 0.950 . S
H1368 C1374 0.949 . S
C1369 H1364 0.950 . S
C1369 C1371 1.327 . S
C1369 C1375 1.429 . S
C1370 C1362 1.574 . S
C1370 H1365 0.949 . S
C1370 C1376 1.368 . S
C1371 C1355 1.349 . S
C1371 H1363 0.950 . S
C1371 C1369 1.327 . S
C1372 C1360 1.349 . S
C1372 H1366 0.950 . S
C1372 C1373 1.327 . S
C1373 H1367 0.950 . S
C1373 C1372 1.327 . S
C1373 C1377 1.429 . S
C1374 C1357 1.574 . S
C1374 H1368 0.949 . S
C1374 C1378 1.368 . S
C1375 C1356 1.429 . S
C1375 C1369 1.429 . S
C1375 C1376 1.523 . S
C1376 C1357 1.368 . S
C1376 C1370 1.368 . S
C1376 C1375 1.523 . S
C1377 C1361 1.429 . S
C1377 C1373 1.429 . S
C1377 C1378 1.523 . S
C1378 C1362 1.368 . S
C1378 C1374 1.368 . S
C1378 C1377 1.523 . S
H1379 C1354 0.950 . S
H1380 C1356 0.950 . S
H1381 C1357 0.949 . S
H1382 C1359 0.950 . S
H1383 C1361 0.950 . S
C1384 C1385 1.349 . S
C1384 C1386 1.327 . S
C1384 H1409 0.950 . S
C1385 C1384 1.349 . S
C1385 C1401 1.349 . S
C1386 C1384 1.327 . S
C1386 C1405 1.429 . S
C1386 H1410 0.950 . S
C1387 C1404 1.574 . S
C1387 C1406 1.368 . S
C1387 H1411 0.949 . S
H1388 C1392 0.949 . S
C1389 C1390 1.349 . S
C1389 C1391 1.327 . S
C1389 H1412 0.950 . S
C1390 C1389 1.349 . S
C1390 C1402 1.349 . S
C1391 C1389 1.327 . S
C1391 C1407 1.429 . S
C1391 H1413 0.950 . S
C1392 H1388 0.949 . S
C1392 C1400 1.574 . S
C1392 C1408 1.368 . S
H1393 C1401 0.950 . S
H1394 C1399 0.950 . S
H1395 C1400 0.949 . S
H1396 C1402 0.950 . S
H1397 C1403 0.950 . S
H1398 C1404 0.949 . S
C1399 H1394 0.950 . S
C1399 C1401 1.327 . S
C1399 C1405 1.429 . S
C1400 C1392 1.574 . S
C1400 H1395 0.949 . S
C1400 C1406 1.368 . S
C1401 C1385 1.349 . S
C1401 H1393 0.950 . S
C1401 C1399 1.327 . S
C1402 C1390 1.349 . S
C1402 H1396 0.950 . S
C1402 C1403 1.327 . S
C1403 H1397 0.950 . S
C1403 C1402 1.327 . S
C1403 C1407 1.429 . S
C1404 C1387 1.574 . S
C1404 H1398 0.949 . S
C1404 C1408 1.368 . S
C1405 C1386 1.429 . S
C1405 C1399 1.429 . S
C1405 C1406 1.523 . S
C1406 C1387 1.368 . S
C1406 C1400 1.368 . S
C1406 C1405 1.523 . S
C1407 C1391 1.429 . S
C1407 C1403 1.429 . S
C1407 C1408 1.523 . S
C1408 C1392 1.368 . S
C1408 C1404 1.368 . S
C1408 C1407 1.523 . S
H1409 C1384 0.950 . S
H1410 C1386 0.950 . S
H1411 C1387 0.949 . S
H1412 C1389 0.950 . S
H1413 C1391 0.950 . S
C1414 C1415 1.349 . S
C1414 C1416 1.327 . S
C1414 H1439 0.950 . S
C1415 C1414 1.349 . S
C1415 C1431 1.349 . S
C1416 C1414 1.327 . S
C1416 C1435 1.429 . S
C1416 H1440 0.950 . S
C1417 C1434 1.574 . S
C1417 C1436 1.368 . S
C1417 H1441 0.949 . S
H1418 C1422 0.949 . S
C1419 C1420 1.349 . S
C1419 C1421 1.327 . S
C1419 H1442 0.950 . S
C1420 C1419 1.349 . S
C1420 C1432 1.349 . S
C1421 C1419 1.327 . S
C1421 C1437 1.429 . S
C1421 H1443 0.950 . S
C1422 H1418 0.949 . S
C1422 C1430 1.574 . S
C1422 C1438 1.368 . S
H1423 C1431 0.950 . S
H1424 C1429 0.950 . S
H1425 C1430 0.949 . S
H1426 C1432 0.950 . S
H1427 C1433 0.950 . S
H1428 C1434 0.949 . S
C1429 H1424 0.950 . S
C1429 C1431 1.327 . S
C1429 C1435 1.429 . S
C1430 C1422 1.574 . S
C1430 H1425 0.949 . S
C1430 C1436 1.368 . S
C1431 C1415 1.349 . S
C1431 H1423 0.950 . S
C1431 C1429 1.327 . S
C1432 C1420 1.349 . S
C1432 H1426 0.950 . S
C1432 C1433 1.327 . S
C1433 H1427 0.950 . S
C1433 C1432 1.327 . S
C1433 C1437 1.429 . S
C1434 C1417 1.574 . S
C1434 H1428 0.949 . S
C1434 C1438 1.368 . S
C1435 C1416 1.429 . S
C1435 C1429 1.429 . S
C1435 C1436 1.523 . S
C1436 C1417 1.368 . S
C1436 C1430 1.368 . S
C1436 C1435 1.523 . S
C1437 C1421 1.429 . S
C1437 C1433 1.429 . S
C1437 C1438 1.523 . S
C1438 C1422 1.368 . S
C1438 C1434 1.368 . S
C1438 C1437 1.523 . S
H1439 C1414 0.950 . S
H1440 C1416 0.950 . S
H1441 C1417 0.949 . S
H1442 C1419 0.950 . S
H1443 C1421 0.950 . S
C1444 C1445 1.349 . S
C1444 C1446 1.327 . S
C1444 H1469 0.950 . S
C1445 C1444 1.349 . S
C1445 C1461 1.349 . S
C1446 C1444 1.327 . S
C1446 C1465 1.429 . S
C1446 H1470 0.950 . S
C1447 C1464 1.574 . S
C1447 C1466 1.368 . S
C1447 H1471 0.949 . S
H1448 C1452 0.949 . S
C1449 C1450 1.349 . S
C1449 C1451 1.327 . S
C1449 H1472 0.950 . S
C1450 C1449 1.349 . S
C1450 C1462 1.349 . S
C1451 C1449 1.327 . S
C1451 C1467 1.429 . S
C1451 H1473 0.950 . S
C1452 H1448 0.949 . S
C1452 C1460 1.574 . S
C1452 C1468 1.368 . S
H1453 C1461 0.950 . S
H1454 C1459 0.950 . S
H1455 C1460 0.949 . S
H1456 C1462 0.950 . S
H1457 C1463 0.950 . S
H1458 C1464 0.949 . S
C1459 H1454 0.950 . S
C1459 C1461 1.327 . S
C1459 C1465 1.429 . S
C1460 C1452 1.574 . S
C1460 H1455 0.949 . S
C1460 C1466 1.368 . S
C1461 C1445 1.349 . S
C1461 H1453 0.950 . S
C1461 C1459 1.327 . S
C1462 C1450 1.349 . S
C1462 H1456 0.950 . S
C1462 C1463 1.327 . S
C1463 H1457 0.950 . S
C1463 C1462 1.327 . S
C1463 C1467 1.429 . S
C1464 C1447 1.574 . S
C1464 H1458 0.949 . S
C1464 C1468 1.368 . S
C1465 C1446 1.429 . S
C1465 C1459 1.429 . S
C1465 C1466 1.523 . S
C1466 C1447 1.368 . S
C1466 C1460 1.368 . S
C1466 C1465 1.523 . S
C1467 C1451 1.429 . S
C1467 C1463 1.429 . S
C1467 C1468 1.523 . S
C1468 C1452 1.368 . S
C1468 C1464 1.368 . S
C1468 C1467 1.523 . S
H1469 C1444 0.950 . S
H1470 C1446 0.950 . S
H1471 C1447 0.949 . S
H1472 C1449 0.950 . S
H1473 C1451 0.950 . S
C1474 C1475 1.349 . S
C1474 C1476 1.327 . S
C1474 H1499 0.950 . S
C1475 C1474 1.349 . S
C1475 C1491 1.349 . S
C1476 C1474 1.327 . S
C1476 C1495 1.429 . S
C1476 H1500 0.950 . S
C1477 C1494 1.574 . S
C1477 C1496 1.368 . S
C1477 H1501 0.949 . S
H1478 C1482 0.949 . S
C1479 C1480 1.349 . S
C1479 C1481 1.327 . S
C1479 H1502 0.950 . S
C1480 C1479 1.349 . S
C1480 C1492 1.349 . S
C1481 C1479 1.327 . S
C1481 C1497 1.429 . S
C1481 H1503 0.950 . S
C1482 H1478 0.949 . S
C1482 C1490 1.574 . S
C1482 C1498 1.368 . S
H1483 C1491 0.950 . S
H1484 C1489 0.950 . S
H1485 C1490 0.949 . S
H1486 C1492 0.950 . S
H1487 C1493 0.950 . S
H1488 C1494 0.949 . S
C1489 H1484 0.950 . S
C1489 C1491 1.327 . S
C1489 C1495 1.429 . S
C1490 C1482 1.574 . S
C1490 H1485 0.949 . S
C1490 C1496 1.368 . S
C1491 C1475 1.349 . S
C1491 H1483 0.950 . S
C1491 C1489 1.327 . S
C1492 C1480 1.349 . S
C1492 H1486 0.950 . S
C1492 C1493 1.327 . S
C1493 H1487 0.950 . S
C1493 C1492 1.327 . S
C1493 C1497 1.429 . S
C1494 C1477 1.574 . S
C1494 H1488 0.949 . S
C1494 C1498 1.368 . S
C1495 C1476 1.429 . S
C1495 C1489 1.429 . S
C1495 C1496 1.523 . S
C1496 C1477 1.368 . S
C1496 C1490 1.368 . S
C1496 C1495 1.523 . S
C1497 C1481 1.429 . S
C1497 C1493 1.429 . S
C1497 C1498 1.523 . S
C1498 C1482 1.368 . S
C1498 C1494 1.368 . S
C1498 C1497 1.523 . S
H1499 C1474 0.950 . S
H1500 C1476 0.950 . S
H1501 C1477 0.949 . S
H1502 C1479 0.950 . S
H1503 C1481 0.950 . S
C1504 C1505 1.349 . S
C1504 C1506 1.327 . S
C1504 H1529 0.950 . S
C1505 C1504 1.349 . S
C1505 C1521 1.349 . S
C1506 C1504 1.327 . S
C1506 C1525 1.429 . S
C1506 H1530 0.950 . S
C1507 C1524 1.574 . S
C1507 C1526 1.368 1_566 S
C1507 H1531 0.949 . S
H1508 C1512 0.949 . S
C1509 C1510 1.349 . S
C1509 C1511 1.327 . S
C1509 H1532 0.950 . S
C1510 C1509 1.349 . S
C1510 C1522 1.349 . S
C1511 C1509 1.327 . S
C1511 C1527 1.429 . S
C1511 H1533 0.950 . S
C1512 H1508 0.949 . S
C1512 C1520 1.574 . S
C1512 C1528 1.368 1_544 S
H1513 C1521 0.950 1_556 S
H1514 C1519 0.952 . S
H1515 C1520 0.949 . S
H1516 C1522 0.950 1_554 S
H1517 C1523 0.952 . S
H1518 C1524 0.949 . S
C1519 H1514 0.952 . S
C1519 C1521 1.326 1_556 S
C1519 C1525 1.427 1_556 S
C1520 C1512 1.574 . S
C1520 H1515 0.949 . S
C1520 C1526 1.368 . S
C1521 C1505 1.349 . S
C1521 H1513 0.950 1_554 S
C1521 C1519 1.326 1_554 S
C1522 C1510 1.349 . S
C1522 H1516 0.950 1_556 S
C1522 C1523 1.326 1_556 S
C1523 H1517 0.952 . S
C1523 C1522 1.326 1_554 S
C1523 C1527 1.427 1_554 S
C1524 C1507 1.574 . S
C1524 H1518 0.949 . S
C1524 C1528 1.368 . S
C1525 C1506 1.429 . S
C1525 C1519 1.427 1_554 S
C1525 C1526 1.523 . S
C1526 C1507 1.368 1_544 S
C1526 C1520 1.368 . S
C1526 C1525 1.523 . S
C1527 C1511 1.429 . S
C1527 C1523 1.427 1_556 S
C1527 C1528 1.523 . S
C1528 C1512 1.368 1_566 S
C1528 C1524 1.368 . S
C1528 C1527 1.523 . S
H1529 C1504 0.950 . S
H1530 C1506 0.950 . S
H1531 C1507 0.949 . S
H1532 C1509 0.950 . S
H1533 C1511 0.950 . S
C1534 C1535 1.349 . S
C1534 C1536 1.327 . S
C1534 H1559 0.950 . S
C1535 C1534 1.349 . S
C1535 C1551 1.349 . S
C1536 C1534 1.327 . S
C1536 C1555 1.429 . S
C1536 H1560 0.950 . S
C1537 C1554 1.574 . S
C1537 C1556 1.368 1_554 S
C1537 H1561 0.949 . S
H1538 C1542 0.949 . S
C1539 C1540 1.349 . S
C1539 C1541 1.327 . S
C1539 H1562 0.950 . S
C1540 C1539 1.349 . S
C1540 C1552 1.349 . S
C1541 C1539 1.327 . S
C1541 C1557 1.429 . S
C1541 H1563 0.950 . S
C1542 H1538 0.949 . S
C1542 C1550 1.574 . S
C1542 C1558 1.368 1_556 S
H1543 C1551 0.950 1_554 S
H1544 C1549 0.970 . S
H1545 C1550 0.949 . S
H1546 C1552 0.950 1_556 S
H1547 C1553 0.970 . S
H1548 C1554 0.949 . S
C1549 H1544 0.970 . S
C1549 C1551 1.320 1_554 S
C1549 C1555 1.415 1_554 S
C1550 C1542 1.574 . S
C1550 H1545 0.949 . S
C1550 C1556 1.368 . S
C1551 C1535 1.349 . S
C1551 H1543 0.950 1_556 S
C1551 C1549 1.320 1_556 S
C1552 C1540 1.349 . S
C1552 H1546 0.950 1_554 S
C1552 C1553 1.320 1_554 S
C1553 H1547 0.970 . S
C1553 C1552 1.320 1_556 S
C1553 C1557 1.415 1_556 S
C1554 C1537 1.574 . S
C1554 H1548 0.949 . S
C1554 C1558 1.368 . S
C1555 C1536 1.429 . S
C1555 C1549 1.415 1_556 S
C1555 C1556 1.523 . S
C1556 C1537 1.368 1_556 S
C1556 C1550 1.368 . S
C1556 C1555 1.523 . S
C1557 C1541 1.429 . S
C1557 C1553 1.415 1_554 S
C1557 C1558 1.523 . S
C1558 C1542 1.368 1_554 S
C1558 C1554 1.368 . S
C1558 C1557 1.523 . S
H1559 C1534 0.950 . S
H1560 C1536 0.950 . S
H1561 C1537 0.949 . S
H1562 C1539 0.950 . S
H1563 C1541 0.950 . S
C1564 C1565 1.349 . S
C1564 C1566 1.327 . S
C1564 H1589 0.950 . S
C1565 C1564 1.349 . S
C1565 C1581 1.349 . S
C1566 C1564 1.327 . S
C1566 C1585 1.429 . S
C1566 H1590 0.950 . S
C1567 C1584 1.577 1_455 S
C1567 C1586 1.365 1_554 S
C1567 H1591 0.949 . S
H1568 C1572 0.949 . S
C1569 C1570 1.349 . S
C1569 C1571 1.327 . S
C1569 H1592 0.950 . S
C1570 C1569 1.349 . S
C1570 C1582 1.349 . S
C1571 C1569 1.327 . S
C1571 C1587 1.429 . S
C1571 H1593 0.950 . S
C1572 H1568 0.949 . S
C1572 C1580 1.577 1_655 S
C1572 C1588 1.365 1_556 S
H1573 C1581 0.950 . S
H1574 C1579 0.950 . S
H1575 C1580 0.949 . S
H1576 C1582 0.950 . S
H1577 C1583 0.950 . S
H1578 C1584 0.949 . S
C1579 H1574 0.950 . S
C1579 C1581 1.327 . S
C1579 C1585 1.429 . S
C1580 C1572 1.577 1_455 S
C1580 H1575 0.949 . S
C1580 C1586 1.368 . S
C1581 C1565 1.349 . S
C1581 H1573 0.950 . S
C1581 C1579 1.327 . S
C1582 C1570 1.349 . S
C1582 H1576 0.950 . S
C1582 C1583 1.327 . S
C1583 H1577 0.950 . S
C1583 C1582 1.327 . S
C1583 C1587 1.429 . S
C1584 C1567 1.577 1_655 S
C1584 H1578 0.949 . S
C1584 C1588 1.368 . S
C1585 C1566 1.429 . S
C1585 C1579 1.429 . S
C1585 C1586 1.523 . S
C1586 C1567 1.365 1_556 S
C1586 C1580 1.368 . S
C1586 C1585 1.523 . S
C1587 C1571 1.429 . S
C1587 C1583 1.429 . S
C1587 C1588 1.523 . S
C1588 C1572 1.365 1_554 S
C1588 C1584 1.368 . S
C1588 C1587 1.523 . S
H1589 C1564 0.950 . S
H1590 C1566 0.950 . S
H1591 C1567 0.949 . S
H1592 C1569 0.950 . S
H1593 C1571 0.950 . S
C1594 C1595 1.349 . S
C1594 C1596 1.327 . S
C1594 H1619 0.950 . S
C1595 C1594 1.349 . S
C1595 C1611 1.349 . S
C1596 C1594 1.327 . S
C1596 C1615 1.429 . S
C1596 H1620 0.950 . S
C1597 C1614 1.574 1_565 S
C1597 C1616 1.368 1_656 S
C1597 H1621 0.949 . S
H1598 C1602 0.949 . S
C1599 C1600 1.349 . S
C1599 C1601 1.327 . S
C1599 H1622 0.950 . S
C1600 C1599 1.349 . S
C1600 C1612 1.349 . S
C1601 C1599 1.327 . S
C1601 C1617 1.429 . S
C1601 H1623 0.950 . S
C1602 H1598 0.949 . S
C1602 C1610 1.574 1_545 S
C1602 C1618 1.368 1_454 S
H1603 C1611 0.950 . S
H1604 C1609 0.950 1_656 S
H1605 C1610 0.949 . S
H1606 C1612 0.950 . S
H1607 C1613 0.950 1_454 S
H1608 C1614 0.949 . S
C1609 H1604 0.950 1_454 S
C1609 C1611 1.327 . S
C1609 C1615 1.429 . S
C1610 C1602 1.574 1_565 S
C1610 H1605 0.949 . S
C1610 C1616 1.368 . S
C1611 C1595 1.349 . S
C1611 H1603 0.950 . S
C1611 C1609 1.327 . S
C1612 C1600 1.349 . S
C1612 H1606 0.950 . S
C1612 C1613 1.327 . S
C1613 H1607 0.950 1_656 S
C1613 C1612 1.327 . S
C1613 C1617 1.429 . S
C1614 C1597 1.574 1_545 S
C1614 H1608 0.949 . S
C1614 C1618 1.368 . S
C1615 C1596 1.429 . S
C1615 C1609 1.429 . S
C1615 C1616 1.523 . S
C1616 C1597 1.368 1_454 S
C1616 C1610 1.368 . S
C1616 C1615 1.523 . S
C1617 C1601 1.429 . S
C1617 C1613 1.429 . S
C1617 C1618 1.523 . S
C1618 C1602 1.368 1_656 S
C1618 C1614 1.368 . S
C1618 C1617 1.523 . S
H1619 C1594 0.950 . S
H1620 C1596 0.950 . S
H1621 C1597 0.949 . S
H1622 C1599 0.950 . S
H1623 C1601 0.950 . S
C1624 C1625 1.349 . S
C1624 C1626 1.327 . S
C1624 H1649 0.950 . S
C1625 C1624 1.349 . S
C1625 C1641 1.349 . S
C1626 C1624 1.327 . S
C1626 C1645 1.429 . S
C1626 H1650 0.950 . S
C1627 C1644 1.574 . S
C1627 C1646 1.368 . S
C1627 H1651 0.949 . S
H1628 C1632 0.949 . S
C1629 C1630 1.349 . S
C1629 C1631 1.327 . S
C1629 H1652 0.950 . S
C1630 C1629 1.349 . S
C1630 C1642 1.349 . S
C1631 C1629 1.327 . S
C1631 C1647 1.429 . S
C1631 H1653 0.950 . S
C1632 H1628 0.949 . S
C1632 C1640 1.574 . S
C1632 C1648 1.368 . S
H1633 C1641 0.950 . S
H1634 C1639 0.950 . S
H1635 C1640 0.949 . S
H1636 C1642 0.950 . S
H1637 C1643 0.950 . S
H1638 C1644 0.949 . S
C1639 H1634 0.950 . S
C1639 C1641 1.327 . S
C1639 C1645 1.429 . S
C1640 C1632 1.574 . S
C1640 H1635 0.949 . S
C1640 C1646 1.368 . S
C1641 C1625 1.349 . S
C1641 H1633 0.950 . S
C1641 C1639 1.327 . S
C1642 C1630 1.349 . S
C1642 H1636 0.950 . S
C1642 C1643 1.327 . S
C1643 H1637 0.950 . S
C1643 C1642 1.327 . S
C1643 C1647 1.429 . S
C1644 C1627 1.574 . S
C1644 H1638 0.949 . S
C1644 C1648 1.368 . S
C1645 C1626 1.429 . S
C1645 C1639 1.429 . S
C1645 C1646 1.523 . S
C1646 C1627 1.368 . S
C1646 C1640 1.368 . S
C1646 C1645 1.523 . S
C1647 C1631 1.429 . S
C1647 C1643 1.429 . S
C1647 C1648 1.523 . S
C1648 C1632 1.368 . S
C1648 C1644 1.368 . S
C1648 C1647 1.523 . S
H1649 C1624 0.950 . S
H1650 C1626 0.950 . S
H1651 C1627 0.949 . S
H1652 C1629 0.950 . S
H1653 C1631 0.950 . S
C1654 C1655 1.349 . S
C1654 C1656 1.327 . S
C1654 H1679 0.950 . S
C1655 C1654 1.349 . S
C1655 C1671 1.349 . S
C1656 C1654 1.327 . S
C1656 C1675 1.429 . S
C1656 H1680 0.950 . S
C1657 C1674 1.574 . S
C1657 C1676 1.368 1_655 S
C1657 H1681 0.949 . S
H1658 C1662 0.949 . S
C1659 C1660 1.349 . S
C1659 C1661 1.327 . S
C1659 H1682 0.950 . S
C1660 C1659 1.349 . S
C1660 C1672 1.349 . S
C1661 C1659 1.327 . S
C1661 C1677 1.429 . S
C1661 H1683 0.950 . S
C1662 H1658 0.949 . S
C1662 C1670 1.574 . S
C1662 C1678 1.368 1_455 S
H1663 C1671 0.950 . S
H1664 C1669 0.950 . S
H1665 C1670 0.949 . S
H1666 C1672 0.950 . S
H1667 C1673 0.950 . S
H1668 C1674 0.949 . S
C1669 H1664 0.950 . S
C1669 C1671 1.327 . S
C1669 C1675 1.429 . S
C1670 C1662 1.574 . S
C1670 H1665 0.949 . S
C1670 C1676 1.368 . S
C1671 C1655 1.349 . S
C1671 H1663 0.950 . S
C1671 C1669 1.327 . S
C1672 C1660 1.349 . S
C1672 H1666 0.950 . S
C1672 C1673 1.327 . S
C1673 H1667 0.950 . S
C1673 C1672 1.327 . S
C1673 C1677 1.429 . S
C1674 C1657 1.574 . S
C1674 H1668 0.949 . S
C1674 C1678 1.368 . S
C1675 C1656 1.429 . S
C1675 C1669 1.429 . S
C1675 C1676 1.523 . S
C1676 C1657 1.368 1_455 S
C1676 C1670 1.368 . S
C1676 C1675 1.523 . S
C1677 C1661 1.429 . S
C1677 C1673 1.429 . S
C1677 C1678 1.523 . S
C1678 C1662 1.368 1_655 S
C1678 C1674 1.368 . S
C1678 C1677 1.523 . S
H1679 C1654 0.950 . S
H1680 C1656 0.950 . S
H1681 C1657 0.949 . S
H1682 C1659 0.950 . S
H1683 C1661 0.950 . S
C1684 C1685 1.349 . S
C1684 C1686 1.327 . S
C1684 H1709 0.950 . S
C1685 C1684 1.349 . S
C1685 C1701 1.349 . S
C1686 C1684 1.327 . S
C1686 C1705 1.429 . S
C1686 H1710 0.950 1_565 S
C1687 C1704 1.574 1_455 S
C1687 C1706 1.368 . S
C1687 H1711 0.949 . S
H1688 C1692 0.949 . S
C1689 C1690 1.349 . S
C1689 C1691 1.327 . S
C1689 H1712 0.950 . S
C1690 C1689 1.349 . S
C1690 C1702 1.349 . S
C1691 C1689 1.327 . S
C1691 C1707 1.429 . S
C1691 H1713 0.950 1_545 S
C1692 H1688 0.949 . S
C1692 C1700 1.574 1_655 S
C1692 C1708 1.368 . S
H1693 C1701 0.950 . S
H1694 C1699 0.950 . S
H1695 C1700 0.949 . S
H1696 C1702 0.950 . S
H1697 C1703 0.950 . S
H1698 C1704 0.949 . S
C1699 H1694 0.950 . S
C1699 C1701 1.327 . S
C1699 C1705 1.429 . S
C1700 C1692 1.574 1_455 S
C1700 H1695 0.949 . S
C1700 C1706 1.368 1_545 S
C1701 C1685 1.349 . S
C1701 H1693 0.950 . S
C1701 C1699 1.327 . S
C1702 C1690 1.349 . S
C1702 H1696 0.950 . S
C1702 C1703 1.327 . S
C1703 H1697 0.950 . S
C1703 C1702 1.327 . S
C1703 C1707 1.429 . S
C1704 C1687 1.574 1_655 S
C1704 H1698 0.949 . S
C1704 C1708 1.368 1_565 S
C1705 C1686 1.429 . S
C1705 C1699 1.429 . S
C1705 C1706 1.523 . S
C1706 C1687 1.368 . S
C1706 C1700 1.368 1_565 S
C1706 C1705 1.523 . S
C1707 C1691 1.429 . S
C1707 C1703 1.429 . S
C1707 C1708 1.523 . S
C1708 C1692 1.368 . S
C1708 C1704 1.368 1_545 S
C1708 C1707 1.523 . S
H1709 C1684 0.950 . S
H1710 C1686 0.950 1_545 S
H1711 C1687 0.949 . S
H1712 C1689 0.950 . S
H1713 C1691 0.950 1_565 S
C1714 C1715 1.349 . S
C1714 C1716 1.327 . S
C1714 H1739 0.950 . S
C1715 C1714 1.349 . S
C1715 C1731 1.349 . S
C1716 C1714 1.327 . S
C1716 C1735 1.429 . S
C1716 H1740 0.950 . S
C1717 C1734 1.574 1_565 S
C1717 C1736 1.368 . S
C1717 H1741 0.949 . S
H1718 C1722 0.949 . S
C1719 C1720 1.349 . S
C1719 C1721 1.327 . S
C1719 H1742 0.950 . S
C1720 C1719 1.349 . S
C1720 C1732 1.349 . S
C1721 C1719 1.327 . S
C1721 C1737 1.429 . S
C1721 H1743 0.950 . S
C1722 H1718 0.949 . S
C1722 C1730 1.574 1_545 S
C1722 C1738 1.368 . S
H1723 C1731 0.950 . S
H1724 C1729 0.950 . S
H1725 C1730 0.949 . S
H1726 C1732 0.950 . S
H1727 C1733 0.950 . S
H1728 C1734 0.949 . S
C1729 H1724 0.950 . S
C1729 C1731 1.327 . S
C1729 C1735 1.429 . S
C1730 C1722 1.574 1_565 S
C1730 H1725 0.949 . S
C1730 C1736 1.368 . S
C1731 C1715 1.349 . S
C1731 H1723 0.950 . S
C1731 C1729 1.327 . S
C1732 C1720 1.349 . S
C1732 H1726 0.950 . S
C1732 C1733 1.327 . S
C1733 H1727 0.950 . S
C1733 C1732 1.327 . S
C1733 C1737 1.429 . S
C1734 C1717 1.574 1_545 S
C1734 H1728 0.949 . S
C1734 C1738 1.368 . S
C1735 C1716 1.429 . S
C1735 C1729 1.429 . S
C1735 C1736 1.523 . S
C1736 C1717 1.368 . S
C1736 C1730 1.368 . S
C1736 C1735 1.523 . S
C1737 C1721 1.429 . S
C1737 C1733 1.429 . S
C1737 C1738 1.523 . S
C1738 C1722 1.368 . S
C1738 C1734 1.368 . S
C1738 C1737 1.523 . S
H1739 C1714 0.950 . S
H1740 C1716 0.950 . S
H1741 C1717 0.949 . S
H1742 C1719 0.950 . S
H1743 C1721 0.950 . S
C545 C5 0.513 . S
C550 C243 0.513 . S
C575 C141 0.513 . S
C580 C39 0.513 . S
C605 C73 0.513 . S
C610 C175 0.513 . S
C635 C107 0.513 . S
C640 C209 0.513 . S
C665 C277 0.513 . S
C670 C515 0.513 . S
C695 C413 0.513 . S
C700 C311 0.513 . S
C725 C447 0.513 . S
C730 C345 0.513 . S
C755 C481 0.513 . S
C760 C379 0.513 . S
C785 C206 1.117 . S
C790 C2 1.117 . S
C815 C36 1.118 . S
C820 C240 1.118 . S
C845 C70 1.118 . S
C850 C138 1.118 . S
C875 C172 1.117 . S
C880 C104 1.117 . S
C905 C478 1.117 . S
C910 C274 1.117 . S
C935 C512 1.118 . S
C940 C308 1.118 . S
C965 C342 1.118 . S
C970 C410 1.118 . S
C995 C376 1.117 . S
C1000 C444 1.117 . S
C1025 C9 1.093 . S
C1030 C543 1.206 . S
C1055 C43 1.093 . S
C1060 C441 1.206 . S
C1085 C77 1.093 . S
C1090 C475 1.206 . S
C1115 C509 1.206 . S
C1120 C111 1.093 . S
C1145 C339 1.206 . S
C1150 C145 1.093 . S
C1175 C373 1.206 . S
C1180 C179 1.093 . S
C1205 C213 1.093 . S
C1210 C407 1.206 . S
C1235 C247 1.093 . S
C1240 C305 1.206 . S
C1265 C271 1.206 . S
C1270 C281 1.093 . S
C1295 C169 1.206 . S
C1300 C315 1.093 . S
C1325 C349 1.093 . S
C1330 C203 1.206 . S
C1355 C237 1.206 . S
C1360 C383 1.093 . S
C1385 C67 1.206 . S
C1390 C417 1.093 . S
C1415 C101 1.206 . S
C1420 C451 1.093 . S
C1445 C135 1.206 . S
C1450 C485 1.093 . S
C1475 C33 1.206 . S
C1480 C519 1.093 . S
C1505 C20 0.947 . S
C1510 C292 0.947 . S
C1535 C326 0.946 . S
C1540 C54 0.946 . S
C1565 C360 0.946 . S
C1570 C88 0.946 . S
C1595 C122 0.947 . S
C1600 C394 0.947 . S
C1625 C428 0.946 . S
C1630 C156 0.946 . S
C1655 C190 0.947 . S
C1660 C462 0.947 . S
C1685 C496 0.947 . S
C1690 C224 0.947 . S
C1715 C258 0.946 . S
C1720 C530 0.946 . S
