# Generated by pormake.
# Topology wmi, (6)-cn, num edge types: 1
# Building blocks:
#     Node 0, Type 0, BuildingBlock: MIFKUJ_clean_sbu_0, # of connection points: 6
#     Node 1, Type 0, BuildingBlock: MIFKUJ_clean_sbu_0, # of connection points: 6
#     Node 2, Type 0, BuildingBlock: MIFKUJ_clean_sbu_0, # of connection points: 6
#     Node 3, Type 0, BuildingBlock: MIFKUJ_clean_sbu_0, # of connection points: 6
#     Node 4, Type 0, BuildingBlock: MIFKUJ_clean_sbu_0, # of connection points: 6
#     Node 5, Type 0, BuildingBlock: MIFKUJ_clean_sbu_0, # of connection points: 6
#     Node 6, Type 0, BuildingBlock: MIFKUJ_clean_sbu_0, # of connection points: 6
#     Node 7, Type 0, BuildingBlock: MIFKUJ_clean_sbu_0, # of connection points: 6
#     Node 8, Type 0, BuildingBlock: MIFKUJ_clean_sbu_0, # of connection points: 6
#     Node 9, Type 0, BuildingBlock: MIFKUJ_clean_sbu_0, # of connection points: 6
#     Node 10, Type 0, BuildingBlock: MIFKUJ_clean_sbu_0, # of connection points: 6
#     Node 11, Type 0, BuildingBlock: MIFKUJ_clean_sbu_0, # of connection points: 6
#     Node 12, Type 0, BuildingBlock: MIFKUJ_clean_sbu_0, # of connection points: 6
#     Node 13, Type 0, BuildingBlock: MIFKUJ_clean_sbu_0, # of connection points: 6
#     Node 14, Type 0, BuildingBlock: MIFKUJ_clean_sbu_0, # of connection points: 6
#     Node 15, Type 0, BuildingBlock: MIFKUJ_clean_sbu_0, # of connection points: 6
#     Node 16, Type 0, BuildingBlock: MIFKUJ_clean_sbu_0, # of connection points: 6
#     Node 17, Type 0, BuildingBlock: MIFKUJ_clean_sbu_0, # of connection points: 6
#     Edge 18, Type (0, 0), BuildingBlock: UVAHIK_clean_linker_0, # of connection points: 2
#     Edge 19, Type (0, 0), BuildingBlock: UVAHIK_clean_linker_0, # of connection points: 2
#     Edge 20, Type (0, 0), BuildingBlock: UVAHIK_clean_linker_0, # of connection points: 2
#     Edge 21, Type (0, 0), BuildingBlock: UVAHIK_clean_linker_0, # of connection points: 2
#     Edge 22, Type (0, 0), BuildingBlock: UVAHIK_clean_linker_0, # of connection points: 2
#     Edge 23, Type (0, 0), BuildingBlock: UVAHIK_clean_linker_0, # of connection points: 2
#     Edge 24, Type (0, 0), BuildingBlock: UVAHIK_clean_linker_0, # of connection points: 2
#     Edge 25, Type (0, 0), BuildingBlock: UVAHIK_clean_linker_0, # of connection points: 2
#     Edge 26, Type (0, 0), BuildingBlock: UVAHIK_clean_linker_0, # of connection points: 2
#     Edge 27, Type (0, 0), BuildingBlock: UVAHIK_clean_linker_0, # of connection points: 2
#     Edge 28, Type (0, 0), BuildingBlock: UVAHIK_clean_linker_0, # of connection points: 2
#     Edge 29, Type (0, 0), BuildingBlock: UVAHIK_clean_linker_0, # of connection points: 2
#     Edge 30, Type (0, 0), BuildingBlock: UVAHIK_clean_linker_0, # of connection points: 2
#     Edge 31, Type (0, 0), BuildingBlock: UVAHIK_clean_linker_0, # of connection points: 2
#     Edge 32, Type (0, 0), BuildingBlock: UVAHIK_clean_linker_0, # of connection points: 2
#     Edge 33, Type (0, 0), BuildingBlock: UVAHIK_clean_linker_0, # of connection points: 2
#     Edge 34, Type (0, 0), BuildingBlock: UVAHIK_clean_linker_0, # of connection points: 2
#     Edge 35, Type (0, 0), BuildingBlock: UVAHIK_clean_linker_0, # of connection points: 2
#     Edge 36, Type (0, 0), BuildingBlock: UVAHIK_clean_linker_0, # of connection points: 2
#     Edge 37, Type (0, 0), BuildingBlock: UVAHIK_clean_linker_0, # of connection points: 2
#     Edge 38, Type (0, 0), BuildingBlock: UVAHIK_clean_linker_0, # of connection points: 2
#     Edge 39, Type (0, 0), BuildingBlock: UVAHIK_clean_linker_0, # of connection points: 2
#     Edge 40, Type (0, 0), BuildingBlock: UVAHIK_clean_linker_0, # of connection points: 2
#     Edge 41, Type (0, 0), BuildingBlock: UVAHIK_clean_linker_0, # of connection points: 2
#     Edge 42, Type (0, 0), BuildingBlock: UVAHIK_clean_linker_0, # of connection points: 2
#     Edge 43, Type (0, 0), BuildingBlock: UVAHIK_clean_linker_0, # of connection points: 2
#     Edge 44, Type (0, 0), BuildingBlock: UVAHIK_clean_linker_0, # of connection points: 2
#     Edge 45, Type (0, 0), BuildingBlock: UVAHIK_clean_linker_0, # of connection points: 2
#     Edge 46, Type (0, 0), BuildingBlock: UVAHIK_clean_linker_0, # of connection points: 2
#     Edge 47, Type (0, 0), BuildingBlock: UVAHIK_clean_linker_0, # of connection points: 2
#     Edge 48, Type (0, 0), BuildingBlock: UVAHIK_clean_linker_0, # of connection points: 2
#     Edge 49, Type (0, 0), BuildingBlock: UVAHIK_clean_linker_0, # of connection points: 2
#     Edge 50, Type (0, 0), BuildingBlock: UVAHIK_clean_linker_0, # of connection points: 2
#     Edge 51, Type (0, 0), BuildingBlock: UVAHIK_clean_linker_0, # of connection points: 2
#     Edge 52, Type (0, 0), BuildingBlock: UVAHIK_clean_linker_0, # of connection points: 2
#     Edge 53, Type (0, 0), BuildingBlock: UVAHIK_clean_linker_0, # of connection points: 2
#     Edge 54, Type (0, 0), BuildingBlock: UVAHIK_clean_linker_0, # of connection points: 2
#     Edge 55, Type (0, 0), BuildingBlock: UVAHIK_clean_linker_0, # of connection points: 2
#     Edge 56, Type (0, 0), BuildingBlock: UVAHIK_clean_linker_0, # of connection points: 2
#     Edge 57, Type (0, 0), BuildingBlock: UVAHIK_clean_linker_0, # of connection points: 2
#     Edge 58, Type (0, 0), BuildingBlock: UVAHIK_clean_linker_0, # of connection points: 2
#     Edge 59, Type (0, 0), BuildingBlock: UVAHIK_clean_linker_0, # of connection points: 2
#     Edge 60, Type (0, 0), BuildingBlock: UVAHIK_clean_linker_0, # of connection points: 2
#     Edge 61, Type (0, 0), BuildingBlock: UVAHIK_clean_linker_0, # of connection points: 2
#     Edge 62, Type (0, 0), BuildingBlock: UVAHIK_clean_linker_0, # of connection points: 2
#     Edge 63, Type (0, 0), BuildingBlock: UVAHIK_clean_linker_0, # of connection points: 2
#     Edge 64, Type (0, 0), BuildingBlock: UVAHIK_clean_linker_0, # of connection points: 2
#     Edge 65, Type (0, 0), BuildingBlock: UVAHIK_clean_linker_0, # of connection points: 2
#     Edge 66, Type (0, 0), BuildingBlock: UVAHIK_clean_linker_0, # of connection points: 2
#     Edge 67, Type (0, 0), BuildingBlock: UVAHIK_clean_linker_0, # of connection points: 2
#     Edge 68, Type (0, 0), BuildingBlock: UVAHIK_clean_linker_0, # of connection points: 2
#     Edge 69, Type (0, 0), BuildingBlock: UVAHIK_clean_linker_0, # of connection points: 2
#     Edge 70, Type (0, 0), BuildingBlock: UVAHIK_clean_linker_0, # of connection points: 2
#     Edge 71, Type (0, 0), BuildingBlock: UVAHIK_clean_linker_0, # of connection points: 2
# Relax obj value: 0.075
# Max RMSD: 0.174
# Mean RMSD: 0.174
data_MOF--net-wmi--node1-MIFKUJ_clean_sbu_0--edge1-UVAHIK_clean_linker_0
_symmetry_space_group_name_H-M    P1
_symmetry_Int_Tables_number       1
_symmetry_cell_setting            triclinic
loop_
_symmetry_equiv_pos_as_xyz
'x, y, z'
_cell_length_a     43.409812
_cell_length_b     43.32258
_cell_length_c     104.32751
_cell_angle_alpha  89.885391
_cell_angle_beta   90.110405
_cell_angle_gamma 120.4243
loop_
_atom_site_label
_atom_site_type_symbol
_atom_site_fract_x
_atom_site_fract_y
_atom_site_fract_z
_atom_type_partial_charge
Zn0 Zn 0.44125 0.97968 0.07809 0.0
Zn1 Zn 0.51476 0.05244 0.08532 0.0
C2 C 0.47664 0.94106 0.07569 0.0
O3 O 0.46201 0.93697 0.06431 0.0
C4 C 0.49721 0.10439 0.09242 0.0
O5 O 0.50651 0.09717 0.10352 0.0
O6 O 0.39223 0.93616 0.07569 0.0
O7 O 0.43718 0.01036 0.09113 0.0
O8 O 0.4867 0.02128 0.10064 0.0
C9 C 0.37848 0.91552 0.0853 0.0
O10 O 0.39613 0.92415 0.09619 0.0
O11 O 0.47226 0.95996 0.08398 0.0
C12 C 0.58572 0.10527 0.08099 0.0
O13 O 0.57032 0.10286 0.06988 0.0
O14 O 0.56687 0.08479 0.09008 0.0
O15 O 0.51568 0.03063 0.06803 0.0
O16 O 0.45951 1.00362 0.06147 0.0
O17 O 0.49743 0.08731 0.08254 0.0
C18 C 0.45406 0.01283 0.10134 0.0
C19 C 0.49257 0.0177 0.05907 0.0
Zn20 Zn 0.04955 0.47916 0.0788 0.0
Zn21 Zn 0.98744 0.48978 0.08754 0.0
C22 C 0.09289 0.55233 0.07338 0.0
O23 O 0.09312 0.53719 0.06251 0.0
C24 C 0.93037 0.42115 0.095 0.0
O25 O 0.93767 0.4378 0.10608 0.0
O26 O 0.0901 0.46982 0.07602 0.0
O27 O 0.02212 0.44838 0.09333 0.0
O28 O 0.01919 0.492 0.10255 0.0
C29 C 0.11186 0.47993 0.0854 0.0
O30 O 0.1059 0.49469 0.09535 0.0
O31 O 0.07436 0.53246 0.08265 0.0
C32 C 0.93913 0.51394 0.08404 0.0
O33 O 0.93947 0.50121 0.07266 0.0
O34 O 0.95923 0.51315 0.09277 0.0
O35 O 0.00757 0.51003 0.06968 0.0
O36 O 0.01992 0.46902 0.06327 0.0
O37 O 0.94928 0.4378 0.0853 0.0
C38 C 0.02421 0.46557 0.10337 0.0
C39 C 0.01039 0.49162 0.06074 0.0
Zn40 Zn 0.54341 0.59548 0.08139 0.0
Zn41 Zn 0.55607 0.51885 0.08707 0.0
C42 C 0.47095 0.56305 0.0791 0.0
O43 O 0.48396 0.58189 0.06856 0.0
C44 C 0.62333 0.5326 0.09705 0.0
O45 O 0.60501 0.52367 0.10779 0.0
O46 O 0.55337 0.64623 0.08099 0.0
O47 O 0.58053 0.5929 0.09159 0.0
O48 O 0.55005 0.54391 0.10256 0.0
C49 C 0.54296 0.65677 0.09054 0.0
O50 O 0.52686 0.63453 0.10009 0.0
O51 O 0.49252 0.56431 0.08765 0.0
C52 C 0.52903 0.44635 0.0805 0.0
O53 O 0.54377 0.46221 0.06962 0.0
O54 O 0.52965 0.46539 0.08988 0.0
O55 O 0.54349 0.52811 0.06902 0.0
O56 O 0.54308 0.57798 0.06405 0.0
O57 O 0.60806 0.53315 0.08671 0.0
C58 C 0.56832 0.57782 0.10223 0.0
C59 C 0.53986 0.54817 0.06093 0.0
Zn60 Zn 0.9816 0.44038 0.9072 0.0
Zn61 Zn 0.05247 0.5158 0.9014 0.0
C62 C 0.94045 0.47281 0.91095 0.0
O63 O 0.93627 0.4558 0.92183 0.0
C64 C 0.10829 0.50337 0.89406 0.0
O65 O 0.1019 0.51403 0.88309 0.0
O66 O 0.93879 0.39045 0.90856 0.0
O67 O 0.01344 0.43923 0.89395 0.0
O68 O 0.0225 0.48937 0.88558 0.0
C69 C 0.91887 0.37873 0.8987 0.0
O70 O 0.92777 0.39902 0.88842 0.0
O71 O 0.96063 0.4714 0.90242 0.0
C72 C 0.10246 0.58824 0.90641 0.0
O73 O 0.10058 0.57339 0.91759 0.0
O74 O 0.08273 0.56861 0.89731 0.0
O75 O 0.02946 0.51312 0.91891 0.0
O76 O 0.00507 0.45595 0.924 0.0
O77 O 0.08919 0.50053 0.90373 0.0
C78 C 0.01509 0.45716 0.88414 0.0
C79 C 0.01739 0.48827 0.9273 0.0
Zn80 Zn 0.5985 0.55118 0.90683 0.0
Zn81 Zn 0.52318 0.55551 0.90056 0.0
C82 C 0.56131 0.47746 0.90975 0.0
O83 O 0.57668 0.48927 0.92095 0.0
C84 C 0.53737 0.62413 0.8922 0.0
O85 O 0.52643 0.60655 0.88133 0.0
O86 O 0.64803 0.55792 0.90785 0.0
O87 O 0.59975 0.58769 0.89509 0.0
O88 O 0.55001 0.55108 0.88524 0.0
C89 C 0.65967 0.54969 0.89803 0.0
O90 O 0.63952 0.53815 0.88773 0.0
O91 O 0.56626 0.5 0.90099 0.0
C92 C 0.4521 0.53503 0.90579 0.0
O93 O 0.46862 0.55042 0.91651 0.0
O94 O 0.47019 0.53266 0.89665 0.0
O95 O 0.52667 0.53846 0.91858 0.0
O96 O 0.58244 0.55488 0.92402 0.0
O97 O 0.53949 0.60798 0.90205 0.0
C98 C 0.58324 0.57394 0.88477 0.0
C99 C 0.54989 0.54247 0.92694 0.0
Zn100 Zn 0.48304 0.0569 0.90715 0.0
Zn101 Zn 0.487 0.98627 0.90034 0.0
C102 C 0.55679 0.09966 0.91042 0.0
O103 O 0.544 0.10365 0.9213 0.0
C104 C 0.41829 0.93092 0.89278 0.0
O105 O 0.43538 0.93851 0.88179 0.0
O106 O 0.47442 0.09826 0.90855 0.0
O107 O 0.44885 0.02358 0.89437 0.0
O108 O 0.48998 0.01709 0.88494 0.0
C109 C 0.48423 0.11956 0.89903 0.0
O110 O 0.49865 0.11314 0.88909 0.0
O111 O 0.53501 0.07911 0.90192 0.0
C112 C 0.50982 0.9375 0.90507 0.0
O113 O 0.49683 0.93938 0.91621 0.0
O114 O 0.50954 0.95667 0.89586 0.0
O115 O 0.50793 0.00849 0.9179 0.0
O116 O 0.47783 0.03461 0.92402 0.0
O117 O 0.4348 0.94901 0.90265 0.0
C118 C 0.46474 0.02387 0.88421 0.0
C119 C 0.49733 0.0214 0.92666 0.0
Zn120 Zn 0.10712 0.32503 0.41463 0.0
Zn121 Zn 0.18155 0.38766 0.42204 0.0
C122 C 0.13592 0.28103 0.40961 0.0
O123 O 0.12004 0.27979 0.39873 0.0
C124 C 0.172 0.44605 0.42877 0.0
O125 O 0.18277 0.44038 0.43984 0.0
O126 O 0.05662 0.28419 0.41218 0.0
O127 O 0.10538 0.3535 0.42907 0.0
O128 O 0.15333 0.35751 0.43753 0.0
C129 C 0.04391 0.26359 0.42186 0.0
O130 O 0.0637 0.27115 0.43221 0.0
O131 O 0.1352 0.3003 0.41866 0.0
C132 C 0.25485 0.4354 0.41804 0.0
O133 O 0.24183 0.43426 0.40656 0.0
O134 O 0.23366 0.41614 0.42689 0.0
O135 O 0.1799 0.36566 0.4045 0.0
O136 O 0.12599 0.3533 0.39869 0.0
O137 O 0.16807 0.42564 0.41939 0.0
C138 C 0.12223 0.35307 0.43889 0.0
C139 C 0.15777 0.36211 0.39578 0.0
Zn140 Zn 0.74086 0.82674 0.41499 0.0
Zn141 Zn 0.65406 0.8136 0.42113 0.0
C142 C 0.77306 0.90027 0.41205 0.0
O143 O 0.77837 0.88926 0.401 0.0
C144 C 0.59728 0.74769 0.43164 0.0
O145 O 0.60817 0.7657 0.44243 0.0
O146 O 0.78395 0.82104 0.41624 0.0
O147 O 0.7017 0.78736 0.42482 0.0
O148 O 0.6851 0.8176 0.43652 0.0
C149 C 0.80282 0.83308 0.42634 0.0
O150 O 0.79384 0.84909 0.43499 0.0
O151 O 0.7561 0.87728 0.42079 0.0
C152 C 0.62346 0.85746 0.41466 0.0
O153 O 0.63462 0.85577 0.40313 0.0
O154 O 0.63052 0.84311 0.42399 0.0
O155 O 0.67399 0.82163 0.40273 0.0
O156 O 0.72421 0.82298 0.39736 0.0
O157 O 0.61326 0.76265 0.42128 0.0
C158 C 0.69904 0.79807 0.43575 0.0
C159 C 0.69651 0.82418 0.39432 0.0
Zn160 Zn 0.22047 0.93938 0.41407 0.0
Zn161 Zn 0.23956 0.8659 0.41783 0.0
C162 C 0.14654 0.89622 0.41593 0.0
O163 O 0.15133 0.90623 0.40387 0.0
C164 C 0.3069 0.87673 0.42555 0.0
O165 O 0.2888 0.8642 0.43625 0.0
O166 O 0.22543 0.98824 0.41295 0.0
O167 O 0.26269 0.94268 0.42271 0.0
O168 O 0.23728 0.89263 0.43352 0.0
C169 C 0.21747 1.00075 0.42259 0.0
O170 O 0.20737 0.98203 0.43325 0.0
O171 O 0.17371 0.90707 0.42317 0.0
C172 C 0.2105 0.79217 0.41198 0.0
O173 O 0.22046 0.8064 0.40052 0.0
O174 O 0.21471 0.81255 0.42141 0.0
O175 O 0.22232 0.87292 0.40035 0.0
O176 O 0.21613 0.92015 0.3967 0.0
O177 O 0.29141 0.88078 0.41588 0.0
C178 C 0.2542 0.92665 0.43337 0.0
C179 C 0.21499 0.89177 0.39293 0.0
Zn180 Zn 0.63715 0.76354 0.23758 0.0
Zn181 Zn 0.71791 0.84275 0.23367 0.0
C182 C 0.59665 0.79596 0.24076 0.0
O183 O 0.59208 0.77859 0.25157 0.0
C184 C 0.77143 0.82937 0.22386 0.0
O185 O 0.76329 0.83999 0.21323 0.0
O186 O 0.59611 0.71267 0.23778 0.0
O187 O 0.67509 0.76772 0.22601 0.0
O188 O 0.68667 0.81895 0.21798 0.0
C189 C 0.57363 0.70154 0.22863 0.0
O190 O 0.57866 0.72307 0.21896 0.0
O191 O 0.61633 0.79412 0.23214 0.0
C192 C 0.76365 0.9157 0.24048 0.0
O193 O 0.75972 0.9003 0.25169 0.0
O194 O 0.747 0.89636 0.23086 0.0
O195 O 0.69639 0.83434 0.25172 0.0
O196 O 0.65437 0.77767 0.25521 0.0
O197 O 0.75469 0.82748 0.23409 0.0
C198 C 0.67662 0.78611 0.21636 0.0
C199 C 0.67526 0.8092 0.25921 0.0
Zn200 Zn 0.25943 0.88063 0.23831 0.0
Zn201 Zn 0.1849 0.88988 0.23235 0.0
C202 C 0.22139 0.80657 0.23975 0.0
O203 O 0.23587 0.81665 0.25116 0.0
C204 C 0.19733 0.95818 0.22346 0.0
O205 O 0.19013 0.94176 0.21234 0.0
O206 O 0.30842 0.88678 0.23932 0.0
O207 O 0.26289 0.9199 0.22751 0.0
O208 O 0.21295 0.88701 0.21719 0.0
C209 C 0.32059 0.87952 0.22942 0.0
O210 O 0.30101 0.86895 0.21897 0.0
O211 O 0.22706 0.83049 0.23145 0.0
C212 C 0.11126 0.86091 0.23698 0.0
O213 O 0.12471 0.87458 0.24825 0.0
O214 O 0.13227 0.863 0.22809 0.0
O215 O 0.19036 0.87575 0.25061 0.0
O216 O 0.24293 0.8819 0.25565 0.0
O217 O 0.1975 0.94148 0.23347 0.0
C218 C 0.24648 0.90848 0.21702 0.0
C219 C 0.21192 0.87513 0.25878 0.0
Zn220 Zn 0.13801 0.38643 0.2408 0.0
Zn221 Zn 0.14497 0.31835 0.23557 0.0
C222 C 0.21216 0.42646 0.24484 0.0
O223 O 0.19975 0.43105 0.2557 0.0
C224 C 0.07721 0.26059 0.22806 0.0
O225 O 0.09471 0.26668 0.21721 0.0
O226 O 0.13109 0.42915 0.24111 0.0
O227 O 0.10459 0.35294 0.22792 0.0
O228 O 0.14778 0.34774 0.21967 0.0
C229 C 0.14172 0.44886 0.23116 0.0
O230 O 0.15585 0.44014 0.22173 0.0
O231 O 0.19019 0.40688 0.23622 0.0
C232 C 0.17004 0.27043 0.24032 0.0
O233 O 0.15759 0.27146 0.25169 0.0
O234 O 0.16889 0.2899 0.23141 0.0
O235 O 0.16356 0.34092 0.25335 0.0
O236 O 0.12986 0.36427 0.25784 0.0
O237 O 0.09311 0.28041 0.23767 0.0
C238 C 0.12167 0.35293 0.21814 0.0
C239 C 0.1497 0.35227 0.2615 0.0
Zn240 Zn 0.77415 0.64811 0.74392 0.0
Zn241 Zn 0.84733 0.71852 0.75216 0.0
C242 C 0.8114 0.61118 0.73986 0.0
O243 O 0.79764 0.60897 0.72844 0.0
C244 C 0.83034 0.77082 0.75993 0.0
O245 O 0.83897 0.76268 0.77099 0.0
O246 O 0.72572 0.60396 0.74068 0.0
O247 O 0.76838 0.67386 0.75844 0.0
O248 O 0.81929 0.686 0.76722 0.0
C249 C 0.71278 0.5821 0.75003 0.0
O250 O 0.73089 0.59002 0.76081 0.0
O251 O 0.80614 0.62846 0.74859 0.0
C252 C 0.91915 0.77121 0.74821 0.0
O253 O 0.9046 0.76988 0.73702 0.0
O254 O 0.89954 0.7501 0.75705 0.0
O255 O 0.84797 0.69797 0.73459 0.0
O256 O 0.79244 0.67782 0.72827 0.0
O257 O 0.83051 0.75408 0.74994 0.0
C258 C 0.78637 0.67627 0.76833 0.0
C259 C 0.82533 0.69123 0.72569 0.0
Zn260 Zn 0.38253 0.14502 0.74625 0.0
Zn261 Zn 0.31933 0.15525 0.75461 0.0
C262 C 0.42629 0.21782 0.74013 0.0
O263 O 0.42634 0.20174 0.72947 0.0
C264 C 0.26308 0.08667 0.76245 0.0
O265 O 0.27095 0.10387 0.77342 0.0
O266 O 0.42303 0.13546 0.74364 0.0
O267 O 0.35512 0.11521 0.76093 0.0
O268 O 0.35092 0.15843 0.76989 0.0
C269 C 0.44499 0.14598 0.75296 0.0
O270 O 0.4391 0.16097 0.76286 0.0
O271 O 0.40765 0.19875 0.74953 0.0
C272 C 0.27213 0.18037 0.75005 0.0
O273 O 0.27472 0.16902 0.73866 0.0
O274 O 0.29037 0.17839 0.75925 0.0
O275 O 0.34056 0.1751 0.73679 0.0
O276 O 0.35222 0.13326 0.73085 0.0
O277 O 0.28135 0.10294 0.75258 0.0
C278 C 0.35678 0.13256 0.77087 0.0
C279 C 0.34279 0.15577 0.72808 0.0
Zn280 Zn 0.87794 0.26325 0.74788 0.0
Zn281 Zn 0.8868 0.18678 0.75383 0.0
C282 C 0.8053 0.23053 0.74549 0.0
O283 O 0.81828 0.24859 0.73481 0.0
C284 C 0.95436 0.19909 0.76282 0.0
O285 O 0.93628 0.18799 0.77358 0.0
O286 O 0.88701 0.31365 0.74686 0.0
O287 O 0.91529 0.2629 0.75869 0.0
O288 O 0.8823 0.21343 0.76923 0.0
C289 C 0.87825 0.32563 0.75644 0.0
O290 O 0.86447 0.3051 0.76657 0.0
O291 O 0.82693 0.23226 0.75411 0.0
C292 C 0.86312 0.11452 0.74829 0.0
O293 O 0.8785 0.13034 0.73747 0.0
O294 O 0.86191 0.13347 0.75737 0.0
O295 O 0.87243 0.19298 0.73563 0.0
O296 O 0.87855 0.24581 0.73063 0.0
O297 O 0.93887 0.20173 0.75287 0.0
C298 C 0.90285 0.2472 0.76923 0.0
C299 C 0.87158 0.21463 0.72752 0.0
Zn300 Zn 0.32284 0.11626 0.57486 0.0
Zn301 Zn 0.38831 0.19016 0.56652 0.0
C302 C 0.28247 0.14827 0.58091 0.0
O303 O 0.2822 0.13285 0.59181 0.0
C304 C 0.44004 0.17235 0.55893 0.0
O305 O 0.43331 0.1824 0.54789 0.0
O306 O 0.28066 0.06666 0.5784 0.0
O307 O 0.34703 0.11225 0.55956 0.0
O308 O 0.35651 0.1628 0.55115 0.0
C309 C 0.25918 0.05269 0.56901 0.0
O310 O 0.26672 0.07042 0.55814 0.0
O311 O 0.29983 0.14605 0.5715 0.0
C312 C 0.44037 0.26203 0.57124 0.0
O313 O 0.43676 0.24722 0.58256 0.0
O314 O 0.42094 0.24266 0.56203 0.0
O315 O 0.3671 0.18954 0.5841 0.0
O316 O 0.35508 0.13562 0.58989 0.0
O317 O 0.42285 0.17226 0.56881 0.0
C318 C 0.34846 0.13033 0.54981 0.0
C319 C 0.36504 0.16778 0.59273 0.0
Zn320 Zn 0.92287 0.19875 0.57273 0.0
Zn321 Zn 0.84851 0.2181 0.56782 0.0
C322 C 0.86496 0.1301 0.56301 0.0
O323 O 0.8435 0.13798 0.56918 0.0
C324 C 0.86515 0.28767 0.5596 0.0
O325 O 0.85842 0.27155 0.54843 0.0
O326 O 0.97342 0.20969 0.5754 0.0
O327 O 0.92415 0.24001 0.5639 0.0
O328 O 0.87546 0.2155 0.55239 0.0
C329 C 0.98939 0.20504 0.56605 0.0
O330 O 0.9727 0.19415 0.55501 0.0
O331 O 0.89821 0.15284 0.56266 0.0
C332 C 0.77609 0.19307 0.57314 0.0
O333 O 0.79117 0.20742 0.58417 0.0
O334 O 0.7956 0.19306 0.56407 0.0
O335 O 0.85524 0.20092 0.5853 0.0
O336 O 0.89902 0.1899 0.58951 0.0
O337 O 0.86327 0.27016 0.56965 0.0
C338 C 0.9093 0.23168 0.55302 0.0
C339 C 0.8717 0.19126 0.59298 0.0
Zn340 Zn 0.82177 0.72504 0.57076 0.0
Zn341 Zn 0.83171 0.65876 0.56592 0.0
C342 C 0.89371 0.77104 0.577 0.0
O343 O 0.87673 0.77324 0.58705 0.0
C344 C 0.76383 0.60105 0.558 0.0
O345 O 0.78214 0.60625 0.5474 0.0
O346 O 0.81009 0.76457 0.57101 0.0
O347 O 0.79249 0.69203 0.55692 0.0
O348 O 0.83753 0.68831 0.54975 0.0
C349 C 0.81833 0.78318 0.56081 0.0
O350 O 0.83356 0.77567 0.55142 0.0
O351 O 0.87552 0.75043 0.56783 0.0
C352 C 0.85399 0.60962 0.57203 0.0
O353 O 0.84016 0.61144 0.583 0.0
O354 O 0.85487 0.62918 0.56277 0.0
O355 O 0.84947 0.68228 0.58357 0.0
O356 O 0.81146 0.70078 0.58746 0.0
O357 O 0.77916 0.62144 0.56755 0.0
C358 C 0.81122 0.69275 0.54756 0.0
C359 C 0.83297 0.69121 0.59147 0.0
C360 C 0.5059 0.90682 0.06906 0.0
C361 C 0.49521 0.92141 0.07891 0.0
C362 C 0.51978 0.88477 0.07193 0.0
C363 C 0.51216 0.82106 0.09609 0.0
H364 H 0.58814 0.82043 0.07681 0.0
C365 C 0.54148 0.70648 0.10209 0.0
C366 C 0.54696 0.69272 0.09069 0.0
C367 C 0.54227 0.73911 0.10209 0.0
C368 C 0.56674 0.82012 0.08224 0.0
H369 H 0.49207 0.92565 0.09952 0.0
H370 H 0.516 0.88654 0.10455 0.0
H371 H 0.57733 0.87022 0.07428 0.0
H372 H 0.5588 0.70293 0.07043 0.0
H373 H 0.55918 0.75932 0.07031 0.0
H374 H 0.50025 0.77031 0.10358 0.0
C375 C 0.51359 0.89226 0.0946 0.0
C376 C 0.5607 0.84873 0.08083 0.0
C377 C 0.50007 0.91474 0.09173 0.0
C378 C 0.55452 0.71287 0.07937 0.0
C379 C 0.55497 0.74535 0.07934 0.0
C380 C 0.518 0.79235 0.09742 0.0
C381 C 0.52296 0.87654 0.08471 0.0
C382 C 0.53285 0.8491 0.08754 0.0
C383 C 0.54821 0.75859 0.09065 0.0
C384 C 0.54487 0.79112 0.09031 0.0
H385 H 0.50269 0.91166 0.05909 0.0
H386 H 0.52642 0.87279 0.0641 0.0
H387 H 0.49018 0.82036 0.10125 0.0
H388 H 0.53609 0.69179 0.11101 0.0
H389 H 0.53769 0.74882 0.11103 0.0
C390 C 0.32841 0.86837 0.07207 0.0
C391 C 0.34446 0.881 0.0841 0.0
C392 C 0.29786 0.83447 0.07088 0.0
C393 C 0.22334 0.76132 0.08911 0.0
H394 H 0.22517 0.7015 0.0619 0.0
C395 C 0.12642 0.60743 0.08699 0.0
C396 C 0.11585 0.59154 0.07484 0.0
C397 C 0.15145 0.64404 0.08813 0.0
C398 C 0.2238 0.71794 0.06943 0.0
H399 H 0.34017 0.86849 0.10441 0.0
H400 H 0.28698 0.80944 0.10232 0.0
H401 H 0.27354 0.76316 0.06371 0.0
H402 H 0.12141 0.60187 0.05438 0.0
H403 H 0.16402 0.66555 0.05635 0.0
H404 H 0.17356 0.7159 0.09486 0.0
C405 C 0.29792 0.82574 0.09381 0.0
C406 C 0.25164 0.75336 0.07047 0.0
C407 C 0.32857 0.85952 0.09498 0.0
C408 C 0.12942 0.61323 0.06389 0.0
C409 C 0.15406 0.64975 0.06502 0.0
C410 C 0.19529 0.72584 0.08803 0.0
C411 C 0.28255 0.81257 0.08172 0.0
C412 C 0.25187 0.77544 0.08035 0.0
C413 C 0.16615 0.6655 0.07714 0.0
C414 C 0.19523 0.70364 0.07819 0.0
H415 H 0.3399 0.88428 0.0635 0.0
H416 H 0.28638 0.82526 0.06146 0.0
H417 H 0.2226 0.77777 0.09677 0.0
H418 H 0.11647 0.59135 0.0956 0.0
H419 H 0.16029 0.65517 0.09762 0.0
C420 C 0.16581 0.48517 0.09607 0.0
C421 C 0.1445 0.47729 0.08503 0.0
C422 C 0.19834 0.48597 0.09561 0.0
C423 C 0.26893 0.50328 0.07285 0.0
H424 H 0.30667 0.47225 0.10057 0.0
C425 C 0.41047 0.52776 0.0697 0.0
C426 C 0.4319 0.5418 0.08065 0.0
C427 C 0.37355 0.5124 0.07047 0.0
C428 C 0.29656 0.48121 0.09279 0.0
H429 H 0.13975 0.46238 0.06499 0.0
H430 H 0.19676 0.46381 0.06418 0.0
H431 H 0.2446 0.45842 0.10131 0.0
H432 H 0.43165 0.54916 0.10116 0.0
H433 H 0.36675 0.52323 0.10252 0.0
H434 H 0.3208 0.5272 0.06452 0.0
C435 C 0.18837 0.46971 0.07316 0.0
C436 C 0.26101 0.47321 0.09319 0.0
C437 C 0.15568 0.46875 0.07364 0.0
C438 C 0.41559 0.5384 0.09258 0.0
C439 C 0.37846 0.52349 0.09334 0.0
C440 C 0.30436 0.5114 0.07248 0.0
C441 C 0.21036 0.47902 0.08409 0.0
C442 C 0.24693 0.48444 0.08326 0.0
C443 C 0.35717 0.51138 0.08219 0.0
C444 C 0.31875 0.50069 0.08247 0.0
H445 H 0.15782 0.4916 0.10504 0.0
H446 H 0.21476 0.49354 0.10416 0.0
H447 H 0.25918 0.51301 0.06519 0.0
H448 H 0.42241 0.52954 0.06041 0.0
H449 H 0.35794 0.50237 0.06177 0.0
C450 C 0.9133 0.49809 0.89599 0.0
C451 C 0.91965 0.49071 0.90853 0.0
C452 C 0.89011 0.51118 0.8938 0.0
C453 C 0.84489 0.55407 0.9096 0.0
H454 H 0.76961 0.50094 0.88485 0.0
C455 C 0.71189 0.55406 0.91004 0.0
C456 C 0.69428 0.55069 0.89836 0.0
C457 C 0.74305 0.55205 0.9104 0.0
C458 C 0.79076 0.51663 0.89162 0.0
H459 H 0.90821 0.49301 0.92862 0.0
H460 H 0.8682 0.51605 0.92482 0.0
H461 H 0.81865 0.48925 0.88681 0.0
H462 H 0.69649 0.5443 0.87783 0.0
H463 H 0.75121 0.54168 0.87841 0.0
H464 H 0.81689 0.58125 0.91453 0.0
C465 C 0.88097 0.5117 0.91667 0.0
C466 C 0.8189 0.50986 0.89274 0.0
C467 C 0.90372 0.49825 0.91884 0.0
C468 C 0.7092 0.54658 0.88701 0.0
C469 C 0.74051 0.54489 0.88735 0.0
C470 C 0.81689 0.56107 0.90842 0.0
C471 C 0.87329 0.51762 0.90413 0.0
C472 C 0.84591 0.528 0.90191 0.0
C473 C 0.75752 0.54694 0.89907 0.0
C474 C 0.78906 0.54194 0.89958 0.0
H475 H 0.92517 0.49251 0.88785 0.0
H476 H 0.88489 0.51576 0.88403 0.0
H477 H 0.86557 0.56879 0.91666 0.0
H478 H 0.70101 0.55713 0.91896 0.0
H479 H 0.75507 0.55327 0.91962 0.0
C480 C 0.47138 0.16241 0.91065 0.0
C481 C 0.48186 0.15242 0.8994 0.0
C482 C 0.4723 0.19509 0.91129 0.0
C483 C 0.47898 0.2701 0.89185 0.0
H484 H 0.52648 0.32596 0.9221 0.0
C485 C 0.54045 0.42423 0.89534 0.0
C486 C 0.54109 0.43855 0.90746 0.0
C487 C 0.52657 0.38733 0.89391 0.0
C488 C 0.51249 0.31059 0.91369 0.0
H489 H 0.49974 0.16804 0.8798 0.0
H490 H 0.50164 0.22514 0.88098 0.0
H491 H 0.51382 0.26481 0.92055 0.0
H492 H 0.52499 0.42563 0.92731 0.0
H493 H 0.49966 0.36149 0.92476 0.0
H494 H 0.47824 0.31638 0.88493 0.0
C495 C 0.49256 0.20767 0.88927 0.0
C496 C 0.50527 0.27544 0.9128 0.0
C497 C 0.49174 0.17506 0.88864 0.0
C498 C 0.52534 0.41529 0.91789 0.0
C499 C 0.51104 0.37856 0.91644 0.0
C500 C 0.48608 0.30537 0.89276 0.0
C501 C 0.48359 0.2184 0.90069 0.0
C502 C 0.48869 0.25486 0.90185 0.0
C503 C 0.51277 0.36425 0.90457 0.0
C504 C 0.50313 0.3261 0.90368 0.0
H505 H 0.46339 0.14546 0.91908 0.0
H506 H 0.46475 0.20241 0.92017 0.0
H507 H 0.46594 0.25478 0.88332 0.0
H508 H 0.55255 0.44167 0.88715 0.0
H509 H 0.52845 0.37724 0.88464 0.0
C510 C 0.61924 0.13641 0.91846 0.0
C511 C 0.59572 0.12055 0.90808 0.0
C512 C 0.65577 0.15893 0.9164 0.0
C513 C 0.71772 0.22059 0.89263 0.0
H514 H 0.78991 0.22146 0.91484 0.0
C515 C 0.86599 0.32915 0.8875 0.0
C516 C 0.88485 0.34407 0.89894 0.0
C517 C 0.83247 0.29795 0.88773 0.0
C518 C 0.77008 0.22177 0.90861 0.0
H519 H 0.59218 0.11495 0.88741 0.0
H520 H 0.65634 0.15487 0.88377 0.0
H521 H 0.72788 0.1732 0.91672 0.0
H522 H 0.88377 0.33742 0.91956 0.0
H523 H 0.82493 0.28349 0.92001 0.0
H524 H 0.75937 0.26978 0.88486 0.0
C525 C 0.64632 0.14976 0.89351 0.0
C526 C 0.73458 0.19402 0.90965 0.0
C527 C 0.60968 0.12679 0.89559 0.0
C528 C 0.86995 0.32652 0.91058 0.0
C529 C 0.83625 0.29545 0.91082 0.0
C530 C 0.75315 0.24847 0.89165 0.0
C531 C 0.66966 0.16642 0.9039 0.0
C532 C 0.70792 0.19344 0.90181 0.0
C533 C 0.81683 0.28105 0.89941 0.0
C534 C 0.77972 0.24975 0.89976 0.0
H535 H 0.60933 0.13199 0.92821 0.0
H536 H 0.67295 0.17162 0.92459 0.0
H537 H 0.69771 0.22117 0.88658 0.0
H538 H 0.87693 0.34182 0.87835 0.0
H539 H 0.81867 0.28728 0.87873 0.0
C540 C 0.22099 0.05123 0.40961 0.0
C541 C 0.21674 0.03449 0.42155 0.0
C542 C 0.21718 0.08129 0.40846 0.0
C543 C 0.21587 0.15386 0.42663 0.0
H544 H 0.15448 0.1503 0.39895 0.0
C545 C 0.15768 0.24858 0.42356 0.0
C546 C 0.15235 0.25858 0.4113 0.0
C547 C 0.16952 0.22406 0.42493 0.0
C548 C 0.17223 0.15219 0.4066 0.0
H549 H 0.20671 0.03717 0.44177 0.0
H550 H 0.2001 0.08967 0.43976 0.0
H551 H 0.16866 0.10302 0.40101 0.0
H552 H 0.15743 0.25265 0.39092 0.0
H553 H 0.17908 0.21105 0.39328 0.0
H554 H 0.21942 0.20315 0.43221 0.0
C555 C 0.2064 0.07955 0.43128 0.0
C556 C 0.18029 0.12496 0.40779 0.0
C557 C 0.20997 0.04932 0.43241 0.0
C558 C 0.16075 0.24503 0.40049 0.0
C559 C 0.17296 0.22096 0.40185 0.0
C560 C 0.20801 0.18136 0.42538 0.0
C561 C 0.20929 0.09544 0.41925 0.0
C562 C 0.2021 0.12538 0.41783 0.0
C563 C 0.17661 0.20938 0.41407 0.0
C564 C 0.186 0.18082 0.41536 0.0
H565 H 0.22635 0.04059 0.40106 0.0
H566 H 0.22002 0.09324 0.39909 0.0
H567 H 0.23297 0.15503 0.43442 0.0
H568 H 0.15133 0.25854 0.43206 0.0
H569 H 0.17178 0.21561 0.43449 0.0
C570 C 0.9894 0.21864 0.40979 0.0
C571 C 0.00885 0.23006 0.42129 0.0
C572 C 0.95806 0.18523 0.40908 0.0
C573 C 0.88944 0.10973 0.42868 0.0
H574 H 0.88435 0.05321 0.39915 0.0
C575 C 0.80273 0.95442 0.42626 0.0
C576 C 0.7894 0.93908 0.4142 0.0
C577 C 0.82425 0.99168 0.42747 0.0
C578 C 0.88484 0.06872 0.40736 0.0
H579 H 0.0097 0.21611 0.44123 0.0
H580 H 0.95547 0.15786 0.43994 0.0
H581 H 0.93135 0.11542 0.4004 0.0
H582 H 0.78514 0.95039 0.39424 0.0
H583 H 0.82142 0.01503 0.39642 0.0
H584 H 0.84318 0.06245 0.43573 0.0
C585 C 0.96417 0.17473 0.43149 0.0
C586 C 0.91188 0.10451 0.40806 0.0
C587 C 0.99547 0.20806 0.43219 0.0
C588 C 0.79557 0.96154 0.40362 0.0
C589 C 0.81655 0.99857 0.40485 0.0
C590 C 0.86223 0.07379 0.42796 0.0
C591 C 0.94549 0.16257 0.41986 0.0
C592 C 0.91475 0.1254 0.41877 0.0
C593 C 0.8324 0.01406 0.41666 0.0
C594 C 0.85977 0.05281 0.41731 0.0
H595 H 0.99888 0.23505 0.40123 0.0
H596 H 0.94398 0.17685 0.40002 0.0
H597 H 0.89076 0.12522 0.43701 0.0
H598 H 0.79843 0.93762 0.43455 0.0
H599 H 0.83611 1.00273 0.43671 0.0
C600 C 0.10205 0.87867 0.43379 0.0
C601 C 0.1098 0.87572 0.42094 0.0
C602 C 0.06654 0.86442 0.43772 0.0
C603 C 0.9719 0.80596 0.42738 0.0
H604 H 0.95783 0.87897 0.44302 0.0
C605 C 0.84697 0.81626 0.41863 0.0
C606 C 0.83434 0.82915 0.42843 0.0
C607 C 0.87796 0.81453 0.42042 0.0
C608 C 0.9611 0.85787 0.43891 0.0
H609 H 0.08677 0.85313 0.40242 0.0
H610 H 0.02529 0.82836 0.40922 0.0
H611 H 0.01759 0.88753 0.44191 0.0
H612 H 0.84319 0.84851 0.44803 0.0
H613 H 0.8972 0.84535 0.45115 0.0
H614 H 0.91554 0.77706 0.42386 0.0
C615 C 0.04626 0.84155 0.41631 0.0
C616 C 0.99543 0.86275 0.43831 0.0
C617 C 0.08156 0.85605 0.41237 0.0
C618 C 0.85255 0.83897 0.44022 0.0
C619 C 0.8835 0.83717 0.44202 0.0
C620 C 0.93755 0.80105 0.42799 0.0
C621 C 0.03835 0.84662 0.4289 0.0
C622 C 1.00138 0.83748 0.43211 0.0
C623 C 0.89691 0.82551 0.43206 0.0
C624 C 0.93198 0.82757 0.43335 0.0
H625 H 0.12338 0.89373 0.44059 0.0
H626 H 0.06118 0.8685 0.44752 0.0
H627 H 0.97562 0.78576 0.42271 0.0
H628 H 0.83347 0.80839 0.40945 0.0
H629 H 0.88781 0.80588 0.41249 0.0
C630 C 0.37389 0.88722 0.24152 0.0
C631 C 0.35502 0.88028 0.22992 0.0
C632 C 0.40467 0.88471 0.24225 0.0
C633 C 0.47441 0.88067 0.22323 0.0
H634 H 0.47496 0.82399 0.25192 0.0
C635 C 0.5661 0.81892 0.22644 0.0
C636 C 0.57724 0.81531 0.23872 0.0
C637 C 0.54301 0.83244 0.225 0.0
C638 C 0.47573 0.84047 0.24397 0.0
H639 H 0.35468 0.8671 0.20984 0.0
H640 H 0.40835 0.8625 0.21118 0.0
H641 H 0.4277 0.83802 0.25017 0.0
H642 H 0.57569 0.8257 0.25895 0.0
H643 H 0.53675 0.8504 0.25642 0.0
H644 H 0.5225 0.88278 0.217 0.0
C645 C 0.39937 0.86998 0.21968 0.0
C646 C 0.44852 0.84846 0.24297 0.0
C647 C 0.36848 0.87237 0.21894 0.0
C648 C 0.56697 0.82762 0.24939 0.0
C649 C 0.54447 0.84157 0.24794 0.0
C650 C 0.50191 0.87283 0.22428 0.0
C651 C 0.41732 0.87533 0.23141 0.0
C652 C 0.44745 0.86855 0.23259 0.0
C653 C 0.5311 0.84293 0.2358 0.0
C654 C 0.50285 0.85258 0.23467 0.0
H655 H 0.3644 0.89365 0.25013 0.0
H656 H 0.41826 0.8895 0.25139 0.0
H657 H 0.47432 0.89635 0.21515 0.0
H658 H 0.57364 0.80954 0.21807 0.0
H659 H 0.53314 0.83301 0.21551 0.0
C660 C 0.18787 0.7429 0.24667 0.0
C661 C 0.20145 0.768 0.23664 0.0
C662 C 0.1732 0.7065 0.24421 0.0
C663 C 0.18229 0.64759 0.2218 0.0
H664 H 0.1029 0.57293 0.24096 0.0
C665 C 0.14725 0.50063 0.2186 0.0
C666 C 0.1401 0.48211 0.23031 0.0
C667 C 0.14841 0.5334 0.21787 0.0
C668 C 0.12523 0.59346 0.23558 0.0
H669 H 0.20886 0.77458 0.21608 0.0
H670 H 0.18336 0.71051 0.21174 0.0
H671 H 0.11513 0.63442 0.24204 0.0
H672 H 0.12745 0.4829 0.25034 0.0
H673 H 0.13021 0.54048 0.24916 0.0
H674 H 0.19342 0.60714 0.21575 0.0
C675 C 0.18418 0.71921 0.22153 0.0
C676 C 0.13211 0.62864 0.23615 0.0
C677 C 0.19855 0.75579 0.22399 0.0
C678 C 0.13299 0.4965 0.24119 0.0
C679 C 0.13436 0.52943 0.24048 0.0
C680 C 0.17551 0.61245 0.22127 0.0
C681 C 0.17201 0.69428 0.23166 0.0
C682 C 0.16121 0.65623 0.22949 0.0
C683 C 0.14265 0.54857 0.22885 0.0
C684 C 0.14737 0.58508 0.22837 0.0
H685 H 0.18955 0.75149 0.25652 0.0
H686 H 0.16444 0.68812 0.25225 0.0
H687 H 0.20521 0.6683 0.21671 0.0
H688 H 0.1524 0.49003 0.20999 0.0
H689 H 0.1542 0.54704 0.20872 0.0
C690 C 0.53072 0.64698 0.24104 0.0
C691 C 0.54026 0.66642 0.2295 0.0
C692 C 0.4973 0.61602 0.24235 0.0
C693 C 0.4188 0.54643 0.22483 0.0
H694 H 0.36689 0.54748 0.25485 0.0
C695 C 0.26509 0.45628 0.23018 0.0
C696 C 0.25106 0.44596 0.24258 0.0
C697 C 0.30187 0.47902 0.22838 0.0
C698 C 0.38108 0.54616 0.24654 0.0
H699 H 0.52308 0.66744 0.21004 0.0
H700 H 0.46472 0.61324 0.21234 0.0
H701 H 0.42879 0.59395 0.25208 0.0
H702 H 0.26446 0.44884 0.26272 0.0
H703 H 0.32848 0.487 0.2596 0.0
H704 H 0.37093 0.49852 0.21928 0.0
C705 C 0.48309 0.62203 0.22037 0.0
C706 C 0.41663 0.57297 0.24494 0.0
C707 C 0.51642 0.65319 0.21909 0.0
C708 C 0.27453 0.45689 0.25307 0.0
C709 C 0.31123 0.47899 0.25127 0.0
C710 C 0.38319 0.51925 0.22649 0.0
C711 C 0.47284 0.60367 0.23212 0.0
C712 C 0.43582 0.57359 0.23404 0.0
C713 C 0.32532 0.49138 0.23895 0.0
C714 C 0.36378 0.51892 0.23734 0.0
H715 H 0.54852 0.65635 0.24924 0.0
H716 H 0.49025 0.60214 0.25148 0.0
H717 H 0.43305 0.54618 0.21635 0.0
H718 H 0.2475 0.44829 0.22193 0.0
H719 H 0.31163 0.48814 0.21877 0.0
C720 C 0.83867 0.57532 0.73274 0.0
C721 C 0.82934 0.59067 0.74275 0.0
C722 C 0.85178 0.55247 0.73538 0.0
C723 C 0.84516 0.4892 0.75976 0.0
H724 H 0.91866 0.48601 0.73973 0.0
C725 C 0.87666 0.37641 0.76714 0.0
C726 C 0.88124 0.36116 0.75596 0.0
C727 C 0.87664 0.40863 0.76658 0.0
C728 C 0.89792 0.48639 0.74536 0.0
H729 H 0.82797 0.59538 0.76341 0.0
H730 H 0.85072 0.55514 0.76803 0.0
H731 H 0.90786 0.53571 0.73688 0.0
H732 H 0.89051 0.36829 0.73547 0.0
H733 H 0.88954 0.42396 0.73441 0.0
H734 H 0.83404 0.43929 0.76786 0.0
C735 C 0.84769 0.56074 0.75813 0.0
C736 C 0.89186 0.51494 0.74375 0.0
C737 C 0.83485 0.5839 0.75548 0.0
C738 C 0.88697 0.3794 0.74426 0.0
C739 C 0.88663 0.41147 0.74368 0.0
C740 C 0.85103 0.46055 0.7613 0.0
C741 C 0.85563 0.54425 0.7481 0.0
C742 C 0.86502 0.51634 0.75079 0.0
C743 C 0.88088 0.4262 0.7548 0.0
C744 C 0.87709 0.45845 0.75397 0.0
H745 H 0.8349 0.58016 0.72282 0.0
H746 H 0.85736 0.53996 0.72745 0.0
H747 H 0.82392 0.48922 0.76518 0.0
H748 H 0.87263 0.36322 0.77633 0.0
H749 H 0.87287 0.41953 0.77537 0.0
C750 C 0.66315 0.52589 0.75965 0.0
C751 C 0.67899 0.54733 0.74875 0.0
C752 C 0.63258 0.49204 0.75851 0.0
C753 C 0.58576 0.41894 0.73545 0.0
H754 H 0.50827 0.38281 0.76007 0.0
C755 C 0.46325 0.27794 0.73004 0.0
C756 C 0.44961 0.25715 0.7412 0.0
C757 C 0.48814 0.31451 0.73083 0.0
C758 C 0.52983 0.39234 0.75318 0.0
H759 H 0.67456 0.55031 0.72814 0.0
H760 H 0.62114 0.491 0.72615 0.0
H761 H 0.55737 0.4447 0.76158 0.0
H762 H 0.45051 0.25866 0.76195 0.0
H763 H 0.4947 0.3225 0.76337 0.0
H764 H 0.55906 0.3666 0.72725 0.0
C765 C 0.63258 0.5004 0.73557 0.0
C766 C 0.55793 0.42786 0.75403 0.0
C767 C 0.66305 0.53445 0.73672 0.0
C768 C 0.46046 0.27402 0.75319 0.0
C769 C 0.48573 0.31067 0.75398 0.0
C770 C 0.55786 0.38343 0.73465 0.0
C771 C 0.6172 0.47866 0.74645 0.0
C772 C 0.5863 0.44153 0.7452 0.0
C773 C 0.50042 0.33126 0.7428 0.0
C774 C 0.52953 0.36955 0.74352 0.0
H775 H 0.67465 0.53502 0.76908 0.0
H776 H 0.62166 0.47589 0.76706 0.0
H777 H 0.60751 0.4284 0.72864 0.0
H778 H 0.45506 0.26584 0.72065 0.0
H779 H 0.49805 0.32958 0.72201 0.0
C780 C 0.48926 0.13567 0.74109 0.0
C781 C 0.47792 0.14384 0.75253 0.0
C782 C 0.52226 0.13729 0.74054 0.0
C783 C 0.59566 0.14177 0.76036 0.0
H784 H 0.6547 0.1962 0.73161 0.0
C785 C 0.7503 0.2066 0.75917 0.0
C786 C 0.76623 0.20985 0.74717 0.0
C787 C 0.71323 0.19208 0.76008 0.0
C788 C 0.63847 0.18031 0.73959 0.0
H789 H 0.49134 0.15818 0.77253 0.0
H790 H 0.54879 0.16119 0.77152 0.0
H791 H 0.59294 0.18158 0.73249 0.0
H792 H 0.75603 0.19779 0.72693 0.0
H793 H 0.6917 0.17135 0.72855 0.0
H794 H 0.64163 0.14105 0.76754 0.0
C795 C 0.53226 0.15344 0.76299 0.0
C796 C 0.60297 0.17194 0.74008 0.0
C797 C 0.49943 0.15201 0.76353 0.0
C798 C 0.74443 0.19613 0.73628 0.0
C799 C 0.70758 0.1812 0.7372 0.0
C800 C 0.63128 0.15001 0.75984 0.0
C801 C 0.54442 0.14688 0.75143 0.0
C802 C 0.58121 0.15287 0.75052 0.0
C803 C 0.69161 0.18023 0.74901 0.0
C804 C 0.65319 0.16961 0.74947 0.0
H805 H 0.47321 0.12913 0.73247 0.0
H806 H 0.53074 0.13167 0.73152 0.0
H807 H 0.57945 0.12682 0.7685 0.0
H808 H 0.76661 0.2171 0.7677 0.0
H809 H 0.70185 0.19186 0.76933 0.0
C810 C 0.04318 0.20555 0.5572 0.0
C811 C 0.02516 0.20924 0.56774 0.0
C812 C 0.07555 0.20642 0.55891 0.0
C813 C 0.12376 0.18695 0.58334 0.0
H814 H 0.20256 0.23091 0.55928 0.0
C815 C 0.24731 0.17353 0.59044 0.0
C816 C 0.26034 0.16506 0.57949 0.0
C817 C 0.22297 0.18543 0.58928 0.0
C818 C 0.18069 0.2183 0.56604 0.0
H819 H 0.02777 0.2183 0.58826 0.0
H820 H 0.08431 0.2198 0.59123 0.0
H821 H 0.15175 0.24008 0.55676 0.0
H822 H 0.2594 0.16396 0.55873 0.0
H823 H 0.21613 0.18389 0.55668 0.0
H824 H 0.15175 0.16414 0.59238 0.0
C825 C 0.07317 0.21586 0.58167 0.0
C826 C 0.15165 0.22363 0.56461 0.0
C827 C 0.04087 0.21516 0.57995 0.0
C828 C 0.24982 0.17033 0.56733 0.0
C829 C 0.22513 0.1819 0.56617 0.0
C830 C 0.15262 0.18147 0.58473 0.0
C831 C 0.09053 0.21086 0.5712 0.0
C832 C 0.12272 0.20773 0.57318 0.0
C833 C 0.21075 0.18876 0.57715 0.0
C834 C 0.18133 0.19681 0.57604 0.0
H835 H 0.0319 0.20113 0.54765 0.0
H836 H 0.08809 0.20218 0.55067 0.0
H837 H 0.10161 0.17378 0.58996 0.0
H838 H 0.25535 0.17024 0.59994 0.0
H839 H 0.21317 0.19132 0.59793 0.0
C840 C 0.81055 0.83173 0.57043 0.0
C841 C 0.81272 0.81392 0.55956 0.0
C842 C 0.80897 0.86304 0.5691 0.0
C843 C 0.83199 0.93602 0.54568 0.0
H844 H 0.78711 0.96585 0.57098 0.0
C845 C 0.87658 0.08348 0.55407 0.0
C846 C 0.85214 0.09295 0.55874 0.0
C847 C 0.86616 0.04764 0.55212 0.0
C848 C 0.79926 0.95778 0.56366 0.0
H849 H 0.81253 0.81336 0.53878 0.0
H850 H 0.80839 0.86705 0.53644 0.0
H851 H 0.77716 0.90536 0.57174 0.0
H852 H 0.79685 0.0723 0.56412 0.0
H853 H 0.77837 0.00965 0.56038 0.0
H854 H 0.8536 0.98817 0.53748 0.0
C855 C 0.80928 0.85782 0.54601 0.0
C856 C 0.79402 0.92318 0.56423 0.0
C857 C 0.81145 0.82691 0.54734 0.0
C858 C 0.81641 0.06589 0.56061 0.0
C859 C 0.8059 0.02994 0.55857 0.0
C860 C 0.83688 0.97042 0.54503 0.0
C861 C 0.80895 0.87686 0.55686 0.0
C862 C 0.81105 0.91214 0.55545 0.0
C863 C 0.83091 0.02031 0.55466 0.0
C864 C 0.82141 0.98211 0.55422 0.0
H865 H 0.81161 0.82234 0.57996 0.0
H866 H 0.80924 0.87713 0.5777 0.0
H867 H 0.84587 0.92877 0.5388 0.0
H868 H 0.90432 0.1036 0.55251 0.0
H869 H 0.88634 0.04139 0.54926 0.0
C870 C 0.21106 1.00389 0.58247 0.0
C871 C 0.22486 0.01851 0.57035 0.0
C872 C 0.17696 0.97351 0.58361 0.0
C873 C 0.10546 0.89698 0.5655 0.0
H874 H 0.04245 0.90343 0.59022 0.0
C875 C 0.95137 0.80245 0.56463 0.0
C876 C 0.93312 0.7937 0.57639 0.0
C877 C 0.98822 0.82695 0.56418 0.0
C878 C 0.05973 0.90072 0.58341 0.0
H879 H 0.21434 0.01177 0.5499 0.0
H880 H 0.15519 0.95888 0.5519 0.0
H881 H 0.10475 0.95062 0.58922 0.0
H882 H 0.93944 0.80201 0.59693 0.0
H883 H 0.00345 0.84354 0.59621 0.0
H884 H 0.06037 0.84708 0.55967 0.0
C885 C 0.1706 0.97079 0.56052 0.0
C886 C 0.09554 0.92791 0.58284 0.0
C887 C 0.20446 1.00129 0.55939 0.0
C888 C 0.95265 0.80862 0.5877 0.0
C889 C 0.98939 0.83267 0.58727 0.0
C890 C 0.06963 0.86958 0.56614 0.0
C891 C 0.15616 0.9569 0.57265 0.0
C892 C 0.11878 0.92656 0.57381 0.0
C893 C 0.0076 0.84289 0.57549 0.0
C894 C 0.04619 0.87121 0.57504 0.0
H895 H 0.22611 0.01653 0.59109 0.0
H896 H 0.1667 0.96322 0.59309 0.0
H897 H 0.12279 0.89501 0.55851 0.0
H898 H 0.93699 0.79145 0.55575 0.0
H899 H 1.0012 0.83434 0.55492 0.0
C900 C 0.47862 0.99418 0.03676 0.0
C901 C 0.50391 0.01684 0.04582 0.0
C902 C 0.48869 0.99376 0.02413 0.0
C903 C 0.51954 0.98732 -0.00095 0.0
H904 H 0.56463 0.08036 0.98255 0.0
C905 C 0.52447 1.00254 0.94403 0.0
C906 C 0.50941 0.02304 0.94 0.0
C907 C 0.53433 1.00323 0.95684 0.0
C908 C 0.55251 0.05424 0.98705 0.0
H909 H 0.55986 0.05612 0.04886 0.0
H910 H 0.57734 0.05599 0.02655 0.0
H911 H 0.56188 0.07654 0.00591 0.0
H912 H 0.49455 0.06164 0.94609 0.0
H913 H 0.51165 0.06278 0.96832 0.0
H914 H 0.5081 0.96496 0.98018 0.0
C915 C 0.54977 0.03843 0.02933 0.0
C916 C 0.55118 0.05206 0.00041 0.0
C917 C 0.53975 0.03852 0.04206 0.0
C918 C 0.50572 0.04524 0.9489 0.0
C919 C 0.51595 0.04626 0.96161 0.0
C920 C 0.52104 0.9895 0.9857 0.0
C921 C 0.52422 0.01621 0.02025 0.0
C922 C 0.53324 0.01854 0.00649 0.0
C923 C 0.52986 0.0249 0.96576 0.0
C924 C 0.53609 0.02295 0.9796 0.0
H925 H 0.45086 0.9769 0.03937 0.0
H926 H 0.46831 0.97679 0.01729 0.0
H927 H 0.50592 0.96116 0.00354 0.0
H928 H 0.52786 0.98536 0.93737 0.0
H929 H 0.54502 0.98653 0.95982 0.0
C930 C 0.99654 0.46777 0.94959 0.0
C931 C 0.01417 0.49614 0.94085 0.0
C932 C 0.99221 0.47438 0.9623 0.0
C933 C 0.03099 0.54114 0.98748 0.0
H934 H 0.94341 0.47339 0.00487 0.0
C935 C 0.01315 0.53216 0.04304 0.0
C936 C 0.00525 0.49808 0.04728 0.0
C937 C 0.01051 0.53829 0.03001 0.0
C938 C 0.96781 0.49283 0.00011 0.0
H939 H 0.04128 0.55387 0.93865 0.0
H940 H 0.03392 0.56546 0.96112 0.0
H941 H 0.94603 0.47331 0.98151 0.0
H942 H 0.98717 0.44354 0.04144 0.0
H943 H 0.98166 0.45399 0.01883 0.0
H944 H 0.05307 0.55956 0.00623 0.0
C945 C 0.0234 0.53809 0.958 0.0
C946 C 0.96941 0.49271 0.98678 0.0
C947 C 0.02759 0.53144 0.94517 0.0
C948 C 0.99354 0.47006 0.03841 0.0
C949 C 0.99015 0.47598 0.0255 0.0
C950 C 0.02928 0.54144 0.00087 0.0
C951 C 0.0054 0.50953 0.96665 0.0
C952 C 1.00152 0.51563 0.98037 0.0
C953 C 0.999 0.51018 0.02116 0.0
C954 C 0.99816 0.51616 0.00727 0.0
H955 H 0.98588 0.44024 0.94663 0.0
H956 H 0.97898 0.45184 0.9688 0.0
H957 H 0.05609 0.55907 0.9828 0.0
H958 H 0.02245 0.55422 0.04973 0.0
H959 H 0.01761 0.56491 0.02683 0.0
C960 C 0.56035 0.52548 0.94866 0.0
C961 C 0.53888 0.53223 0.94036 0.0
C962 C 0.55115 0.51753 0.96152 0.0
C963 C 0.51071 0.54046 0.98657 0.0
H964 H 0.51625 0.46739 0.00627 0.0
C965 C 0.50633 0.54304 0.04106 0.0
C966 C 0.53058 0.53633 0.04761 0.0
C967 C 0.49894 0.53424 0.02816 0.0
C968 C 0.51483 0.48808 0.00092 0.0
H969 H 0.49029 0.53464 0.9389 0.0
H970 H 0.47484 0.52181 0.96159 0.0
H971 H 0.51851 0.46657 0.98286 0.0
H972 H 0.56505 0.5139 0.04613 0.0
H973 H 0.554 0.50048 0.02329 0.0
H974 H 0.50971 0.56375 0.00437 0.0
C975 C 0.49853 0.52235 0.95802 0.0
C976 C 0.51583 0.48738 0.98754 0.0
C977 C 0.50741 0.52973 0.94508 0.0
C978 C 0.54634 0.5194 0.04121 0.0
C979 C 0.53969 0.51145 0.02817 0.0
C980 C 0.51034 0.54155 -0.00011 0.0
C981 C 0.52062 0.51668 0.96636 0.0
C982 C 0.51436 0.51393 0.9803 0.0
C983 C 0.51648 0.51954 0.02142 0.0
C984 C 0.513 0.51574 0.00726 0.0
H985 H 0.58457 0.52683 0.94526 0.0
H986 H 0.5688 0.51363 0.96781 0.0
H987 H 0.51015 0.56158 0.98118 0.0
H988 H 0.49321 0.55534 0.04591 0.0
H989 H 0.48004 0.53978 0.02342 0.0
C990 C 0.19492 0.3595 0.3779 0.0
C991 C 0.16801 0.36599 0.38217 0.0
C992 C 0.20294 0.36154 0.36482 0.0
C993 C 0.19696 0.40156 0.33479 0.0
H994 H 0.18024 0.31494 0.3177 0.0
C995 C 0.14625 0.37071 0.28379 0.0
C996 C 0.1594 0.35518 0.27522 0.0
C997 C 0.15604 0.37503 0.29664 0.0
C998 C 0.18588 0.33961 0.32234 0.0
H999 H 0.12921 0.38069 0.37629 0.0
H1000 H 0.14377 0.38507 0.35358 0.0
H1001 H 0.183 0.31821 0.34116 0.0
H1002 H 0.19299 0.33161 0.27349 0.0
H1003 H 0.20996 0.33898 0.29621 0.0
H1004 H 0.19856 0.42263 0.31612 0.0
C1005 C 0.15846 0.37817 0.36028 0.0
C1006 C 0.18744 0.34146 0.33574 0.0
C1007 C 0.14997 0.37543 0.37325 0.0
C1008 C 0.18239 0.34367 0.27986 0.0
C1009 C 0.19211 0.34787 0.29284 0.0
C1010 C 0.19567 0.39984 0.32146 0.0
C1011 C 0.18477 0.37099 0.35594 0.0
C1012 C 0.19145 0.3719 0.34204 0.0
C1013 C 0.17924 0.36394 0.30131 0.0
C1014 C 0.18844 0.36826 0.31512 0.0
H1015 H 0.20906 0.35198 0.38461 0.0
H1016 H 0.22324 0.35577 0.36164 0.0
H1017 H 0.20054 0.42548 0.33947 0.0
H1018 H 0.12839 0.37978 0.28059 0.0
H1019 H 0.14495 0.3867 0.30299 0.0
C1020 C 0.71986 0.84517 0.37233 0.0
C1021 C 0.69061 0.8288 0.38073 0.0
C1022 C 0.71461 0.8485 0.35934 0.0
C1023 C 0.65209 0.80178 0.33442 0.0
H1024 H 0.7079 0.88806 0.31434 0.0
C1025 C 0.64217 0.79662 0.27977 0.0
C1026 C 0.67406 0.81669 0.2729 0.0
C1027 C 0.64081 0.8024 0.29282 0.0
C1028 C 0.69234 0.86367 0.31979 0.0
H1029 H 0.63307 0.80398 0.38227 0.0
H1030 H 0.62378 0.80872 0.35932 0.0
H1031 H 0.71171 0.89094 0.33772 0.0
H1032 H 0.72941 0.85897 0.27416 0.0
H1033 H 0.72778 0.86781 0.29717 0.0
H1034 H 0.63451 0.77379 0.31672 0.0
C1035 C 0.65072 0.81932 0.3629 0.0
C1036 C 0.6943 0.86545 0.33315 0.0
C1037 C 0.65604 0.81661 0.37598 0.0
C1038 C 0.70447 0.84321 0.27925 0.0
C1039 C 0.70337 0.84843 0.29243 0.0
C1040 C 0.65061 0.79983 0.32109 0.0
C1041 C 0.67998 0.83502 0.3545 0.0
C1042 C 0.67454 0.83441 0.34054 0.0
C1043 C 0.6716 0.8277 0.29941 0.0
C1044 C 0.67108 0.83066 0.31358 0.0
H1045 H 0.74685 0.85517 0.37577 0.0
H1046 H 0.73751 0.86037 0.353 0.0
H1047 H 0.63707 0.77739 0.33994 0.0
H1048 H 0.61814 0.77633 0.27507 0.0
H1049 H 0.61563 0.78663 0.29777 0.0
C1050 C 0.21899 0.85512 0.28042 0.0
C1051 C 0.20104 0.86678 0.2723 0.0
C1052 C 0.2105 0.84924 0.29339 0.0
C1053 C 0.18091 0.88385 0.31871 0.0
H1054 H 0.17686 0.80641 0.33879 0.0
C1055 C 0.1817 0.89001 0.37329 0.0
C1056 C 0.20414 0.88032 0.37961 0.0
C1057 C 0.17275 0.88121 0.36047 0.0
C1058 C 0.17812 0.82829 0.33332 0.0
H1059 H 0.15919 0.88008 0.27127 0.0
H1060 H 0.14482 0.87045 0.29413 0.0
H1061 H 0.17594 0.80317 0.31538 0.0
H1062 H 0.23381 0.85272 0.37768 0.0
H1063 H 0.21969 0.8388 0.35501 0.0
H1064 H 0.1854 0.91019 0.3364 0.0
C1065 C 0.16531 0.86573 0.29036 0.0
C1066 C 0.17734 0.82629 0.31995 0.0
C1067 C 0.1735 0.87119 0.27731 0.0
C1068 C 0.2165 0.86054 0.373 0.0
C1069 C 0.20813 0.85233 0.36005 0.0
C1070 C 0.18214 0.88608 0.33202 0.0
C1071 C 0.18416 0.85525 0.29853 0.0
C1072 C 0.17942 0.85439 0.31255 0.0
C1073 C 0.18672 0.86323 0.35357 0.0
C1074 C 0.18144 0.85865 0.3395 0.0
H1075 H 0.24007 0.8511 0.27679 0.0
H1076 H 0.2257 0.84156 0.29952 0.0
H1077 H 0.18316 0.90615 0.31321 0.0
H1078 H 0.1712 0.90466 0.37824 0.0
H1079 H 0.15542 0.88915 0.3559 0.0
C1080 C 0.86754 0.69652 0.70833 0.0
C1081 C 0.83678 0.69701 0.71221 0.0
C1082 C 0.87719 0.7006 0.69538 0.0
C1083 C 0.86746 0.73774 0.66539 0.0
H1084 H 0.86508 0.65756 0.64793 0.0
C1085 C 0.82416 0.70615 0.61368 0.0
C1086 C 0.84134 0.69432 0.60531 0.0
C1087 C 0.83252 0.71064 0.62665 0.0
C1088 C 0.86675 0.68057 0.65269 0.0
H1089 H 0.79265 0.70313 0.70576 0.0
H1090 H 0.81 0.71113 0.68326 0.0
H1091 H 0.8648 0.65904 0.67141 0.0
H1092 H 0.88063 0.67755 0.60405 0.0
H1093 H 0.89517 0.68529 0.62698 0.0
H1094 H 0.86819 0.75882 0.6468 0.0
C1095 C 0.82642 0.70731 0.69019 0.0
C1096 C 0.86656 0.68138 0.66609 0.0
C1097 C 0.81638 0.70249 0.70302 0.0
C1098 C 0.86692 0.6867 0.61027 0.0
C1099 C 0.87526 0.69112 0.62336 0.0
C1100 C 0.86798 0.73712 0.65205 0.0
C1101 C 0.85671 0.70615 0.68625 0.0
C1102 C 0.86535 0.70922 0.67248 0.0
C1103 C 0.85832 0.70347 0.63164 0.0
C1104 C 0.8659 0.70772 0.64557 0.0
H1105 H 0.88361 0.69217 0.71524 0.0
H1106 H 0.90058 0.69951 0.69249 0.0
H1107 H 0.86696 0.75967 0.67017 0.0
H1108 H 0.80418 0.71211 0.61023 0.0
H1109 H 0.81831 0.71929 0.63284 0.0
C1110 C 0.38822 0.16734 0.61432 0.0
C1111 C 0.36925 0.17779 0.60629 0.0
C1112 C 0.38807 0.1717 0.62753 0.0
C1113 C 0.3592 0.20981 0.65384 0.0
H1114 H 0.35068 0.12755 0.67188 0.0
C1115 C 0.35821 0.19707 0.70942 0.0
C1116 C 0.3394 0.16235 0.71453 0.0
C1117 C 0.36009 0.20214 0.69612 0.0
C1118 C 0.3524 0.15048 0.66702 0.0
H1119 H 0.33662 0.20242 0.60546 0.0
H1120 H 0.3346 0.20835 0.62872 0.0
H1121 H 0.35972 0.13215 0.64904 0.0
H1122 H 0.30531 0.10617 0.71016 0.0
H1123 H 0.30659 0.11497 0.68709 0.0
H1124 H 0.35005 0.22704 0.67197 0.0
C1125 C 0.35055 0.19782 0.62485 0.0
C1126 C 0.35846 0.15357 0.65389 0.0
C1127 C 0.35155 0.19434 0.61155 0.0
C1128 C 0.32031 0.13313 0.70635 0.0
C1129 C 0.32139 0.13822 0.69315 0.0
C1130 C 0.35262 0.20646 0.66706 0.0
C1131 C 0.36785 0.1854 0.63301 0.0
C1132 C 0.36219 0.18332 0.64711 0.0
C1133 C 0.34264 0.17255 0.68783 0.0
C1134 C 0.34899 0.17661 0.67378 0.0
H1135 H 0.40243 0.15495 0.61039 0.0
H1136 H 0.40277 0.16304 0.63348 0.0
H1137 H 0.36211 0.23317 0.64892 0.0
H1138 H 0.37329 0.21994 0.71563 0.0
H1139 H 0.37679 0.22891 0.69237 0.0
C1140 C 0.83703 0.19381 0.61167 0.0
C1141 C 0.85997 0.18311 0.60645 0.0
C1142 C 0.82936 0.18982 0.62475 0.0
C1143 C 0.83414 0.14673 0.65463 0.0
H1144 H 0.85726 0.23731 0.67004 0.0
C1145 C 0.86999 0.17941 0.70826 0.0
C1146 C 0.86169 0.20342 0.71412 0.0
C1147 C 0.86296 0.17148 0.69522 0.0
C1148 C 0.84985 0.21151 0.66596 0.0
H1149 H 0.89083 0.15753 0.61068 0.0
H1150 H 0.8775 0.15074 0.63353 0.0
H1151 H 0.85503 0.23173 0.64693 0.0
H1152 H 0.83709 0.23575 0.71131 0.0
H1153 H 0.82339 0.22078 0.68885 0.0
H1154 H 0.8293 0.12662 0.67375 0.0
C1155 C 0.86546 0.16217 0.6275 0.0
C1156 C 0.84865 0.20837 0.65268 0.0
C1157 C 0.87336 0.1664 0.61444 0.0
C1158 C 0.84445 0.21772 0.70696 0.0
C1159 C 0.83674 0.20924 0.69406 0.0
C1160 C 0.83493 0.14972 0.66799 0.0
C1161 C 0.84426 0.1748 0.63282 0.0
C1162 C 0.84128 0.17617 0.64688 0.0
C1163 C 0.84692 0.18696 0.68792 0.0
C1164 C 0.84328 0.18234 0.6738 0.0
H1165 H 0.82624 0.2067 0.60578 0.0
H1166 H 0.8127 0.19952 0.62864 0.0
H1167 H 0.8283 0.12156 0.65036 0.0
H1168 H 0.88325 0.16799 0.71361 0.0
H1169 H 0.87143 0.15444 0.69077 0.0
C1170 C 0.30485 0.93668 0.20559 0.0
C1171 C 0.26729 0.9177 0.20503 0.0
C1172 C 0.32509 0.94578 0.19442 0.0
C1173 C 0.32239 0.96457 0.1607 0.0
H1174 H 0.40277 0.94926 0.15767 0.0
C1175 C 0.39693 0.98743 0.11336 0.0
C1176 C 0.43424 1.00268 0.11356 0.0
C1177 C 0.37732 0.97701 0.12465 0.0
C1178 C 0.38076 0.9542 0.15845 0.0
H1179 H 0.22151 0.8936 0.19229 0.0
H1180 H 0.25721 0.91022 0.17261 0.0
H1181 H 0.36595 0.92964 0.17699 0.0
H1182 H 0.48031 0.01919 0.12584 0.0
H1183 H 0.44588 1.00174 0.14581 0.0
H1184 H 0.33742 0.9898 0.14236 0.0
C1185 C 0.27075 0.91772 0.18179 0.0
C1186 C 0.35958 0.94277 0.16946 0.0
C1187 C 0.25038 0.90814 0.19302 0.0
C1188 C 0.45159 0.00744 0.12539 0.0
C1189 C 0.43185 0.99727 0.13679 0.0
C1190 C 0.34373 0.97631 0.14976 0.0
C1191 C 0.30828 0.93659 0.18242 0.0
C1192 C 0.33012 0.94772 0.17064 0.0
C1193 C 0.39447 0.982 0.13652 0.0
C1194 C 0.373 0.97102 0.14846 0.0
H1195 H 0.31879 0.94455 0.21469 0.0
H1196 H 0.35396 0.96069 0.19518 0.0
H1197 H 0.30024 0.96931 0.16149 0.0
H1198 H 0.38257 0.98301 0.10441 0.0
H1199 H 0.34854 0.96459 0.12404 0.0
C1200 C 0.05248 0.4354 0.11446 0.0
C1201 C 0.03683 0.45689 0.11525 0.0
C1202 C 0.06488 0.42672 0.12537 0.0
C1203 C 0.08823 0.45045 0.15958 0.0
H1204 H 0.07576 0.3552 0.16092 0.0
C1205 C 0.09289 0.38071 0.20576 0.0
C1206 C 0.11496 0.36559 0.20588 0.0
C1207 C 0.08712 0.3942 0.19449 0.0
C1208 C 0.07986 0.38202 0.16058 0.0
H1209 H 0.02177 0.48606 0.12817 0.0
H1210 H 0.04193 0.46929 0.14754 0.0
H1211 H 0.05634 0.37377 0.14203 0.0
H1212 H 0.14772 0.35218 0.19418 0.0
H1213 H 0.13624 0.37472 0.17414 0.0
H1214 H 0.11006 0.45761 0.17852 0.0
C1215 C 0.0456 0.46011 0.13834 0.0
C1216 C 0.06881 0.39279 0.14976 0.0
C1217 C 0.0338 0.46953 0.12728 0.0
C1218 C 0.13067 0.36373 0.19437 0.0
C1219 C 0.12418 0.37661 0.18296 0.0
C1220 C 0.09873 0.43939 0.1705 0.0
C1221 C 0.06112 0.43839 0.13749 0.0
C1222 C 0.07284 0.42715 0.14911 0.0
C1223 C 0.10257 0.3922 0.183 0.0
C1224 C 0.09453 0.40507 0.17107 0.0
H1225 H 0.05566 0.42548 0.10532 0.0
H1226 H 0.07758 0.41088 0.12425 0.0
H1227 H 0.09232 0.47726 0.15934 0.0
H1228 H 0.08035 0.38266 0.21445 0.0
H1229 H 0.06998 0.40566 0.19472 0.0
C1230 C 0.64345 0.72997 0.2037 0.0
C1231 C 0.66098 0.76757 0.20415 0.0
C1232 C 0.62872 0.71177 0.19231 0.0
C1233 C 0.64151 0.72089 0.15824 0.0
H1234 H 0.54779 0.63516 0.15688 0.0
C1235 C 0.59209 0.63759 0.11238 0.0
C1236 C 0.57357 0.60011 0.11364 0.0
C1237 C 0.5985 0.65939 0.12299 0.0
C1238 C 0.57412 0.65886 0.15713 0.0
H1239 H 0.677 0.81557 0.19297 0.0
H1240 H 0.65197 0.78343 0.17277 0.0
H1241 H 0.56656 0.67196 0.17622 0.0
H1242 H 0.54749 0.5561 0.12708 0.0
H1243 H 0.56025 0.59438 0.14587 0.0
H1244 H 0.65011 0.70715 0.13951 0.0
C1245 C 0.64927 0.76829 0.18139 0.0
C1246 C 0.58471 0.68003 0.16816 0.0
C1247 C 0.66354 0.78661 0.19291 0.0
C1248 C 0.56159 0.58487 0.1258 0.0
C1249 C 0.56866 0.60684 0.13653 0.0
C1250 C 0.63113 0.69955 0.14729 0.0
C1251 C 0.63175 0.7307 0.18103 0.0
C1252 C 0.61869 0.71093 0.16886 0.0
C1253 C 0.58754 0.6444 0.13525 0.0
C1254 C 0.59748 0.66803 0.14665 0.0
H1255 H 0.64105 0.7144 0.21217 0.0
H1256 H 0.61587 0.68284 0.19225 0.0
H1257 H 0.66807 0.74428 0.15863 0.0
H1258 H 0.6018 0.6503 0.10315 0.0
H1259 H 0.61238 0.68811 0.12158 0.0
C1260 C 0.98859 0.40097 0.87138 0.0
C1261 C 0.00301 0.43828 0.87174 0.0
C1262 C 0.97532 0.38204 0.86002 0.0
C1263 C 0.98482 0.38944 0.82572 0.0
H1264 H 0.89216 0.30219 0.82552 0.0
C1265 C 0.9291 0.30656 0.77991 0.0
C1266 C 0.91063 0.26903 0.78095 0.0
C1267 C 0.93769 0.32798 0.79076 0.0
C1268 C 0.91824 0.32624 0.82545 0.0
H1269 H 0.01558 0.48507 0.86032 0.0
H1270 H 0.99313 0.45169 0.84016 0.0
H1271 H 0.91242 0.33939 0.84474 0.0
H1272 H 0.88686 0.22451 0.79426 0.0
H1273 H 0.90325 0.26212 0.81342 0.0
H1274 H 0.99159 0.37581 0.80671 0.0
C1275 C 0.99174 0.43733 0.84885 0.0
C1276 C 0.92968 0.34765 0.83641 0.0
C1277 C 0.00457 0.45637 0.86035 0.0
C1278 C 0.90089 0.25334 0.79316 0.0
C1279 C 0.9101 0.27492 0.80411 0.0
C1280 C 0.9736 0.36784 0.81482 0.0
C1281 C 0.97668 0.39994 0.84866 0.0
C1282 C 0.96319 0.37925 0.83667 0.0
C1283 C 0.92887 0.31255 0.80302 0.0
C1284 C 0.94025 0.33584 0.81457 0.0
H1285 H 0.98699 0.38607 0.87996 0.0
H1286 H 0.96438 0.35333 0.86009 0.0
H1287 H 0.01099 0.41341 0.82577 0.0
H1288 H 0.93698 0.31964 0.77066 0.0
H1289 H 0.95135 0.35674 0.78951 0.0
C1290 C 0.64151 0.60284 0.87335 0.0
C1291 C 0.60402 0.58211 0.8728 0.0
C1292 C 0.66193 0.61104 0.86228 0.0
C1293 C 0.65879 0.5851 0.82839 0.0
H1294 H 0.74174 0.68055 0.82557 0.0
C1295 C 0.73002 0.64667 0.78093 0.0
C1296 C 0.76758 0.66455 0.78073 0.0
C1297 C 0.71146 0.63481 0.79242 0.0
C1298 C 0.71897 0.65366 0.82632 0.0
H1299 H 0.55851 0.55389 0.86013 0.0
H1300 H 0.59435 0.56934 0.84054 0.0
H1301 H 0.70525 0.66358 0.84488 0.0
H1302 H 0.81514 0.68424 0.79246 0.0
H1303 H 0.78234 0.66401 0.81278 0.0
H1304 H 0.67207 0.57582 0.80958 0.0
C1305 C 0.6079 0.57845 0.84967 0.0
C1306 C 0.69801 0.64388 0.83736 0.0
C1307 C 0.58734 0.56979 0.86085 0.0
C1308 C 0.78623 0.67051 0.79233 0.0
C1309 C 0.76753 0.65902 0.80392 0.0
C1310 C 0.67958 0.59503 0.81729 0.0
C1311 C 0.64545 0.59934 0.85028 0.0
C1312 C 0.66761 0.60951 0.83851 0.0
C1313 C 0.72997 0.64094 0.80402 0.0
C1314 C 0.70972 0.62947 0.81615 0.0
H1315 H 0.65534 0.61261 0.88241 0.0
H1316 H 0.69075 0.62645 0.86315 0.0
H1317 H 0.63595 0.55825 0.82905 0.0
H1318 H 0.71473 0.64158 0.77218 0.0
H1319 H 0.68256 0.62141 0.79225 0.0
C1320 C 0.38501 0.10275 0.78216 0.0
C1321 C 0.3695 0.1244 0.78284 0.0
C1322 C 0.39744 0.09433 0.79311 0.0
C1323 C 0.42254 0.11947 0.82702 0.0
H1324 H 0.40963 0.02406 0.8286 0.0
C1325 C 0.43574 0.05321 0.87296 0.0
C1326 C 0.45681 0.03704 0.87231 0.0
C1327 C 0.42807 0.06628 0.86197 0.0
C1328 C 0.41382 0.05092 0.82819 0.0
H1329 H 0.35486 0.15422 0.7956 0.0
H1330 H 0.37532 0.13803 0.81508 0.0
H1331 H 0.38803 0.04159 0.81004 0.0
H1332 H 0.48605 0.02157 0.85958 0.0
H1333 H 0.47136 0.04349 0.84009 0.0
H1334 H 0.44696 0.12785 0.84556 0.0
C1335 C 0.37866 0.12842 0.80592 0.0
C1336 C 0.40149 0.06107 0.81757 0.0
C1337 C 0.36673 0.13752 0.79481 0.0
C1338 C 0.46985 0.03396 0.86036 0.0
C1339 C 0.46148 0.04646 0.84926 0.0
C1340 C 0.43437 0.10905 0.83776 0.0
C1341 C 0.39393 0.10646 0.80517 0.0
C1342 C 0.40592 0.09556 0.81679 0.0
C1343 C 0.44061 0.06281 0.85002 0.0
C1344 C 0.4302 0.07474 0.83839 0.0
H1345 H 0.38803 0.09244 0.77309 0.0
H1346 H 0.41 0.07833 0.79207 0.0
H1347 H 0.42683 0.14635 0.82667 0.0
H1348 H 0.42524 0.05607 0.88201 0.0
H1349 H 0.41158 0.07838 0.86277 0.0
C1350 C 0.91637 0.2368 0.52913 0.0
C1351 C 0.93161 0.24172 0.54138 0.0
C1352 C 0.93817 0.24865 0.51826 0.0
C1353 C 0.02623 0.27209 0.50595 0.0
H1354 H 0.01213 0.33339 0.4825 0.0
C1355 C 0.12027 0.34247 0.46271 0.0
C1356 C 0.10328 0.34295 0.45131 0.0
C1357 C 0.10098 0.33136 0.47421 0.0
C1358 C 0.0162 0.31597 0.48886 0.0
H1359 H 0.98161 0.26252 0.55183 0.0
H1360 H 0.01931 0.28218 0.53285 0.0
H1361 H 0.97358 0.3086 0.50115 0.0
H1362 H 0.05271 0.33195 0.44301 0.0
H1363 H 0.01937 0.31184 0.46272 0.0
H1364 H 0.06827 0.27865 0.49349 0.0
C1365 C 0.99061 0.26923 0.53167 0.0
C1366 C 0.99409 0.30182 0.49952 0.0
C1367 C 0.96895 0.25798 0.54252 0.0
C1368 C 0.06684 0.33229 0.45163 0.0
C1369 C 0.04765 0.32092 0.463 0.0
C1370 C 0.04811 0.28587 0.49515 0.0
C1371 C 0.97547 0.26514 0.51947 0.0
C1372 C 0.99875 0.27959 0.50811 0.0
C1373 C 0.06439 0.32039 0.47444 0.0
C1374 C 0.0431 0.30772 0.48642 0.0
H1375 H 0.88773 0.22451 0.52795 0.0
H1376 H 0.92592 0.24509 0.50891 0.0
H1377 H 0.03029 0.25498 0.51247 0.0
H1378 H 0.14831 0.35056 0.46275 0.0
H1379 H 0.11473 0.33154 0.4829 0.0
C1380 C 0.73577 0.77396 0.44477 0.0
C1381 C 0.71658 0.79171 0.44676 0.0
C1382 C 0.75246 0.76737 0.45493 0.0
C1383 C 0.77885 0.78989 0.48913 0.0
H1384 H 0.77471 0.69824 0.48891 0.0
C1385 C 0.77968 0.71537 0.53404 0.0
C1386 C 0.80529 0.70468 0.53499 0.0
C1387 C 0.7751 0.72928 0.52267 0.0
C1388 C 0.77667 0.72419 0.48896 0.0
H1389 H 0.69923 0.81582 0.46106 0.0
H1390 H 0.72668 0.80241 0.47905 0.0
H1391 H 0.75341 0.71633 0.47037 0.0
H1392 H 0.84519 0.6989 0.52453 0.0
H1393 H 0.83574 0.72197 0.50419 0.0
H1394 H 0.79984 0.79624 0.50818 0.0
C1395 C 0.73015 0.79497 0.46949 0.0
C1396 C 0.76451 0.73468 0.47835 0.0
C1397 C 0.71409 0.80238 0.45922 0.0
C1398 C 0.8254 0.70706 0.5241 0.0
C1399 C 0.82013 0.72031 0.51253 0.0
C1400 C 0.79044 0.77909 0.49981 0.0
C1401 C 0.7494 0.77719 0.46747 0.0
C1402 C 0.76487 0.76741 0.47839 0.0
C1403 C 0.79531 0.73202 0.51185 0.0
C1404 C 0.78885 0.74591 0.49987 0.0
H1405 H 0.73824 0.76527 0.4353 0.0
H1406 H 0.76768 0.75441 0.45291 0.0
H1407 H 0.78031 0.81558 0.4894 0.0
H1408 H 0.76353 0.71382 0.54219 0.0
H1409 H 0.75538 0.73758 0.52229 0.0
C1410 C 0.27667 0.9852 0.44442 0.0
C1411 C 0.26131 0.94781 0.44521 0.0
C1412 C 0.28482 0.00586 0.45548 0.0
C1413 C 0.30836 0.00612 0.4889 0.0
H1414 H 0.28589 0.08166 0.49284 0.0
C1415 C 0.32504 0.07488 0.53688 0.0
C1416 C 0.33893 0.11208 0.53725 0.0
C1417 C 0.31578 0.05658 0.52532 0.0
C1418 C 0.29281 0.06103 0.49178 0.0
H1419 H 0.24222 0.90276 0.45824 0.0
H1420 H 0.25702 0.93914 0.47768 0.0
H1421 H 0.26736 0.04498 0.4734 0.0
H1422 H 0.35372 0.15922 0.52572 0.0
H1423 H 0.33803 0.12693 0.50521 0.0
H1424 H 0.33421 0.02221 0.50709 0.0
C1425 C 0.26257 0.95227 0.46843 0.0
C1426 C 0.28203 0.03993 0.48071 0.0
C1427 C 0.254 0.93147 0.45733 0.0
C1428 C 0.34313 0.13058 0.52571 0.0
C1429 C 0.334 0.11209 0.51402 0.0
C1430 C 0.31935 0.02731 0.49987 0.0
C1431 C 0.27828 0.98968 0.46758 0.0
C1432 C 0.28937 0.01203 0.47926 0.0
C1433 C 0.32052 0.0749 0.51373 0.0
C1434 C 0.31126 0.05465 0.50153 0.0
H1435 H 0.28277 0.99871 0.43523 0.0
H1436 H 0.29723 0.03464 0.45455 0.0
H1437 H 0.31509 0.98534 0.48789 0.0
H1438 H 0.32099 0.05956 0.54557 0.0
H1439 H 0.3046 0.02784 0.52549 0.0
C1440 C 0.50608 0.39135 0.09423 0.0
C1441 C 0.51524 0.40754 0.08207 0.0
C1442 C 0.49676 0.35556 0.09579 0.0
C1443 C 0.46948 0.27109 0.07819 0.0
H1444 H 0.51897 0.25375 0.10571 0.0
C1445 C 0.48928 0.1487 0.07941 0.0
C1446 C 0.48991 0.13416 0.09139 0.0
C1447 C 0.48632 0.17935 0.07865 0.0
C1448 C 0.50434 0.25782 0.09811 0.0
H1449 H 0.52011 0.39836 0.06192 0.0
H1450 H 0.50402 0.33617 0.06466 0.0
H1451 H 0.52379 0.31196 0.10385 0.0
H1452 H 0.4858 0.13908 0.11192 0.0
H1453 H 0.47987 0.19191 0.11058 0.0
H1454 H 0.45051 0.21701 0.07233 0.0
C1455 C 0.50386 0.35099 0.07298 0.0
C1456 C 0.50714 0.29127 0.09705 0.0
C1457 C 0.51334 0.38676 0.07143 0.0
C1458 C 0.48584 0.14988 0.10255 0.0
C1459 C 0.48263 0.18031 0.10178 0.0
C1460 C 0.46656 0.23751 0.07928 0.0
C1461 C 0.49618 0.33518 0.08521 0.0
C1462 C 0.49017 0.29849 0.08698 0.0
C1463 C 0.48369 0.19595 0.08985 0.0
C1464 C 0.48436 0.23062 0.08916 0.0
H1465 H 0.50716 0.4066 0.10261 0.0
H1466 H 0.49055 0.34399 0.10531 0.0
H1467 H 0.45575 0.27571 0.0704 0.0
H1468 H 0.49244 0.13723 0.07065 0.0
H1469 H 0.48756 0.19084 0.0693 0.0
C1470 C 0.64515 0.14988 0.07203 0.0
C1471 C 0.62375 0.13293 0.0828 0.0
C1472 C 0.68013 0.17818 0.07347 0.0
C1473 C 0.75437 0.22532 0.09685 0.0
H1474 H 0.78297 0.30472 0.07333 0.0
C1475 C 0.87845 0.36639 0.10453 0.0
C1476 C 0.89866 0.38482 0.09369 0.0
C1477 C 0.84677 0.33349 0.10325 0.0
C1478 C 0.77565 0.2826 0.07986 0.0
H1479 H 0.62267 0.13165 0.10356 0.0
H1480 H 0.68379 0.1818 0.10612 0.0
H1481 H 0.72425 0.2516 0.07122 0.0
H1482 H 0.90206 0.38244 0.07301 0.0
H1483 H 0.84679 0.32497 0.07077 0.0
H1484 H 0.80578 0.25704 0.10564 0.0
C1485 C 0.67361 0.17282 0.09654 0.0
C1486 C 0.74192 0.25205 0.07865 0.0
C1487 C 0.63855 0.14415 0.09508 0.0
C1488 C 0.88707 0.36904 0.08156 0.0
C1489 C 0.85529 0.33621 0.08026 0.0
C1490 C 0.78815 0.25607 0.09809 0.0
C1491 C 0.6946 0.19062 0.08573 0.0
C1492 C 0.73081 0.22294 0.0871 0.0
C1493 C 0.83448 0.31833 0.09107 0.0
C1494 C 0.79917 0.28505 0.0896 0.0
H1495 H 0.63473 0.14158 0.06242 0.0
H1496 H 0.69574 0.19057 0.06493 0.0
H1497 H 0.74688 0.2033 0.10343 0.0
H1498 H 0.88664 0.37775 0.11403 0.0
H1499 H 0.83125 0.32057 0.11175 0.0
C1500 C 0.67743 0.53955 0.10839 0.0
C1501 C 0.66043 0.53957 0.09691 0.0
C1502 C 0.71154 0.54371 0.1082 0.0
C1503 C 0.79108 0.57186 0.08747 0.0
H1504 H 0.80525 0.50665 0.1088 0.0
C1505 C 0.89546 0.53137 0.07653 0.0
C1506 C 0.91349 0.52608 0.08672 0.0
C1507 C 0.86869 0.53944 0.07888 0.0
C1508 C 0.80203 0.52553 0.10296 0.0
H1509 H 0.66632 0.54492 0.07625 0.0
H1510 H 0.72547 0.55158 0.0759 0.0
H1511 H 0.75041 0.50865 0.1108 0.0
H1512 H 0.91843 0.52632 0.10741 0.0
H1513 H 0.8713 0.54031 0.11155 0.0
H1514 H 0.84227 0.58778 0.07932 0.0
C1515 C 0.71273 0.54888 0.08508 0.0
C1516 C 0.77056 0.52669 0.1041 0.0
C1517 C 0.67868 0.54483 0.08527 0.0
C1518 C 0.905 0.53024 0.09936 0.0
C1519 C 0.87791 0.53804 0.10172 0.0
C1520 C 0.82249 0.5706 0.0863 0.0
C1521 C 0.7294 0.54792 0.09653 0.0
C1522 C 0.76438 0.54936 0.09619 0.0
C1523 C 0.85912 0.54221 0.0915 0.0
C1524 C 0.828 0.5469 0.09385 0.0
H1525 H 0.66423 0.53582 0.11753 0.0
H1526 H 0.72381 0.54338 0.11721 0.0
H1527 H 0.7875 0.59013 0.08141 0.0
H1528 H 0.90144 0.52849 0.06668 0.0
H1529 H 0.85449 0.54207 0.0708 0.0
C1530 C 0.39783 0.5185 0.89225 0.0
C1531 C 0.41373 0.52319 0.90438 0.0
C1532 C 0.36255 0.51124 0.89114 0.0
C1533 C 0.29557 0.52182 0.90965 0.0
H1534 H 0.23015 0.46202 0.88305 0.0
C1535 C 0.15098 0.49374 0.90739 0.0
C1536 C 0.13939 0.49815 0.8953 0.0
C1537 C 0.18239 0.49238 0.90859 0.0
C1538 C 0.2482 0.4789 0.8905 0.0
H1539 H 0.40448 0.52176 0.92485 0.0
H1540 H 0.34307 0.50812 0.92295 0.0
H1541 H 0.28891 0.46752 0.88488 0.0
H1542 H 0.15092 0.50302 0.87492 0.0
H1543 H 0.2056 0.50064 0.87702 0.0
H1544 H 0.25508 0.53335 0.91524 0.0
C1545 C 0.35797 0.5112 0.91426 0.0
C1546 C 0.28192 0.48215 0.89153 0.0
C1547 C 0.39318 0.5188 0.91535 0.0
C1548 C 0.15914 0.49972 0.88439 0.0
C1549 C 0.1904 0.49814 0.88558 0.0
C1550 C 0.26189 0.51841 0.90867 0.0
C1551 C 0.34243 0.50822 0.90215 0.0
C1552 C 0.3061 0.50376 0.90111 0.0
C1553 C 0.20278 0.49515 0.89771 0.0
C1554 C 0.23784 0.49705 0.89906 0.0
H1555 H 0.41304 0.52183 0.88362 0.0
H1556 H 0.35158 0.50935 0.88165 0.0
H1557 H 0.31369 0.53938 0.91696 0.0
H1558 H 0.13635 0.49234 0.91598 0.0
H1559 H 0.19097 0.48958 0.91805 0.0
C1560 C 0.524 0.89923 0.89103 0.0
C1561 C 0.52187 0.91141 0.90328 0.0
C1562 C 0.53137 0.87142 0.88966 0.0
C1563 C 0.5245 0.79537 0.9082 0.0
H1564 H 0.5789 0.78803 0.88015 0.0
C1565 C 0.55047 0.67813 0.90516 0.0
C1566 C 0.54357 0.66095 0.89321 0.0
C1567 C 0.55271 0.71135 0.90629 0.0
C1568 C 0.56353 0.78969 0.888 0.0
H1569 H 0.52807 0.90574 0.92363 0.0
H1570 H 0.54182 0.85824 0.92124 0.0
H1571 H 0.57418 0.84173 0.88224 0.0
H1572 H 0.53524 0.66597 0.87297 0.0
H1573 H 0.53901 0.72385 0.87498 0.0
H1574 H 0.51358 0.74339 0.91392 0.0
C1575 C 0.53669 0.86916 0.9127 0.0
C1576 C 0.56076 0.8204 0.88919 0.0
C1577 C 0.52901 0.89658 0.91406 0.0
C1578 C 0.54047 0.67842 0.88233 0.0
C1579 C 0.54283 0.71171 0.88346 0.0
C1580 C 0.52742 0.76487 0.90705 0.0
C1581 C 0.537 0.85552 0.90051 0.0
C1582 C 0.54112 0.82355 0.8993 0.0
C1583 C 0.54822 0.72819 0.8955 0.0
C1584 C 0.54684 0.76158 0.89693 0.0
H1585 H 0.51854 0.91012 0.88254 0.0
H1586 H 0.53118 0.86145 0.88013 0.0
H1587 H 0.50843 0.79641 0.91592 0.0
H1588 H 0.55319 0.66551 0.91372 0.0
H1589 H 0.55742 0.72363 0.91567 0.0
C1590 C 0.3655 0.88641 0.9057 0.0
C1591 C 0.38145 0.89994 0.89372 0.0
C1592 C 0.33199 0.85518 0.90649 0.0
C1593 C 0.2725 0.77391 0.88775 0.0
H1594 H 0.20378 0.75898 0.91425 0.0
C1595 C 0.13771 0.64123 0.89195 0.0
C1596 C 0.12924 0.62652 0.90435 0.0
C1597 C 0.16541 0.67656 0.89007 0.0
C1598 C 0.22276 0.76274 0.90681 0.0
H1599 H 0.37397 0.89224 0.87316 0.0
H1600 H 0.31541 0.83837 0.87453 0.0
H1601 H 0.25794 0.81744 0.91208 0.0
H1602 H 0.14224 0.63782 0.92452 0.0
H1603 H 0.19033 0.69915 0.92124 0.0
H1604 H 0.23756 0.71912 0.88259 0.0
C1605 C 0.32908 0.85129 0.88334 0.0
C1606 C 0.25385 0.79621 0.90559 0.0
C1607 C 0.36261 0.88234 0.88255 0.0
C1608 C 0.14814 0.64827 0.91484 0.0
C1609 C 0.17559 0.68356 0.91297 0.0
C1610 C 0.24138 0.74053 0.88894 0.0
C1611 C 0.31361 0.83689 0.89532 0.0
C1612 C 0.27935 0.80209 0.89615 0.0
C1613 C 0.18497 0.69796 0.90056 0.0
C1614 C 0.21637 0.73439 0.8986 0.0
H1615 H 0.37936 0.89929 0.91448 0.0
H1616 H 0.32111 0.8447 0.91588 0.0
H1617 H 0.29177 0.7772 0.88051 0.0
H1618 H 0.12364 0.62519 0.88367 0.0
H1619 H 0.17177 0.68701 0.88039 0.0
C1620 C 0.19608 0.73955 0.42619 0.0
C1621 C 0.1979 0.75365 0.41388 0.0
C1622 C 0.18785 0.70403 0.42772 0.0
C1623 C 0.19083 0.63219 0.40963 0.0
H1624 H 0.13681 0.57275 0.43841 0.0
C1625 C 0.16139 0.48716 0.41484 0.0
C1626 C 0.16764 0.47761 0.42704 0.0
C1627 C 0.16048 0.51874 0.41311 0.0
C1628 C 0.15209 0.5891 0.43035 0.0
H1629 H 0.19059 0.74094 0.3936 0.0
H1630 H 0.17552 0.67906 0.39629 0.0
H1631 H 0.14333 0.6318 0.43568 0.0
H1632 H 0.17646 0.49311 0.44708 0.0
H1633 H 0.17502 0.54811 0.44405 0.0
H1634 H 0.19992 0.58977 0.40436 0.0
C1635 C 0.18138 0.69558 0.40475 0.0
C1636 C 0.15589 0.62298 0.4288 0.0
C1637 C 0.18982 0.73106 0.40321 0.0
C1638 C 0.17167 0.49968 0.43754 0.0
C1639 C 0.17062 0.53115 0.43582 0.0
C1640 C 0.18693 0.59835 0.41115 0.0
C1641 C 0.18108 0.6818 0.41699 0.0
C1642 C 0.17552 0.64507 0.41845 0.0
C1643 C 0.16563 0.54139 0.42355 0.0
C1644 C 0.16776 0.57647 0.42158 0.0
H1645 H 0.20227 0.75629 0.4346 0.0
H1646 H 0.18815 0.69446 0.43729 0.0
H1647 H 0.20675 0.64867 0.40169 0.0
H1648 H 0.15804 0.4707 0.40656 0.0
H1649 H 0.15609 0.52561 0.40356 0.0
C1650 C 0.55201 0.69314 0.41979 0.0
C1651 C 0.56561 0.71115 0.43146 0.0
C1652 C 0.52093 0.65954 0.41953 0.0
C1653 C 0.43955 0.60293 0.4383 0.0
H1654 H 0.4266 0.53063 0.41354 0.0
C1655 C 0.30575 0.4695 0.43336 0.0
C1656 C 0.29297 0.461 0.42071 0.0
C1657 C 0.34106 0.49636 0.43576 0.0
C1658 C 0.42983 0.55058 0.4205 0.0
H1659 H 0.55784 0.70743 0.45207 0.0
H1660 H 0.50382 0.64855 0.45162 0.0
H1661 H 0.48502 0.58468 0.4158 0.0
H1662 H 0.30759 0.47289 0.40068 0.0
H1663 H 0.36894 0.51951 0.40486 0.0
H1664 H 0.38418 0.56909 0.44282 0.0
C1665 C 0.51688 0.6607 0.44264 0.0
C1666 C 0.46325 0.58158 0.42178 0.0
C1667 C 0.54794 0.69438 0.4429 0.0
C1668 C 0.31656 0.47887 0.41053 0.0
C1669 C 0.35184 0.50544 0.41292 0.0
C1670 C 0.40616 0.57186 0.43706 0.0
C1671 C 0.50276 0.64306 0.43093 0.0
C1672 C 0.46832 0.60848 0.4305 0.0
C1673 C 0.36433 0.51494 0.42556 0.0
C1674 C 0.40075 0.5457 0.42796 0.0
H1675 H 0.56492 0.70531 0.41079 0.0
H1676 H 0.51056 0.64699 0.41032 0.0
H1677 H 0.44235 0.62326 0.445 0.0
H1678 H 0.28821 0.45618 0.44141 0.0
H1679 H 0.35005 0.50291 0.4456 0.0
C1680 C 0.58931 0.88513 0.40586 0.0
C1681 C 0.59845 0.87094 0.41635 0.0
C1682 C 0.56209 0.89324 0.40692 0.0
C1683 C 0.50452 0.90589 0.43011 0.0
H1684 H 0.43594 0.86951 0.40223 0.0
C1685 C 0.36009 0.87741 0.43519 0.0
C1686 C 0.34394 0.88374 0.42461 0.0
C1687 C 0.3941 0.88164 0.43413 0.0
C1688 C 0.45509 0.88044 0.41001 0.0
H1689 H 0.58741 0.85594 0.43639 0.0
H1690 H 0.53972 0.86976 0.4382 0.0
H1691 H 0.49071 0.86744 0.40058 0.0
H1692 H 0.35141 0.90071 0.40472 0.0
H1693 H 0.41097 0.90843 0.4029 0.0
H1694 H 0.46836 0.91814 0.43965 0.0
C1695 C 0.55376 0.87489 0.42917 0.0
C1696 C 0.48656 0.87926 0.40905 0.0
C1697 C 0.58103 0.86681 0.42812 0.0
C1698 C 0.36301 0.89541 0.41304 0.0
C1699 C 0.39707 0.89967 0.41198 0.0
C1700 C 0.473 0.90709 0.43106 0.0
C1701 C 0.54336 0.88733 0.41849 0.0
C1702 C 0.51145 0.89154 0.41916 0.0
C1703 C 0.41281 0.89236 0.42246 0.0
C1704 C 0.44768 0.89392 0.42109 0.0
H1705 H 0.60239 0.88894 0.39668 0.0
H1706 H 0.55519 0.90342 0.39858 0.0
H1707 H 0.52337 0.91599 0.43799 0.0
H1708 H 0.34617 0.86839 0.44425 0.0
H1709 H 0.4052 0.87535 0.44235 0.0
C1710 C 0.81879 0.82289 0.21265 0.0
C1711 C 0.80157 0.82257 0.22408 0.0
C1712 C 0.84909 0.81941 0.21292 0.0
C1713 C 0.90233 0.79414 0.23394 0.0
H1714 H 0.98099 0.86042 0.21238 0.0
C1715 C 0.04955 0.84086 0.24473 0.0
C1716 C 0.07282 0.84663 0.23447 0.0
C1717 C 0.01405 0.83106 0.24245 0.0
C1718 C 0.95911 0.84126 0.21829 0.0
H1719 H 0.802 0.81721 0.24475 0.0
H1720 H 0.85519 0.8119 0.24525 0.0
H1721 H 0.9231 0.8561 0.21029 0.0
H1722 H 0.07672 0.84524 0.21378 0.0
H1723 H 0.01452 0.82824 0.2098 0.0
H1724 H 0.93897 0.78041 0.24227 0.0
C1725 C 0.84502 0.81424 0.23604 0.0
C1726 C 0.92586 0.83874 0.2171 0.0
C1727 C 0.81461 0.81752 0.23576 0.0
C1728 C 0.05945 0.84104 0.22189 0.0
C1729 C 0.02392 0.8315 0.2196 0.0
C1730 C 0.93567 0.79681 0.23518 0.0
C1731 C 0.86298 0.81572 0.22463 0.0
C1732 C 0.89722 0.81564 0.22507 0.0
C1733 C 1.00103 0.82701 0.22986 0.0
C1734 C 0.96459 0.82088 0.22753 0.0
H1735 H 0.80924 0.82641 0.20347 0.0
H1736 H 0.86187 0.82004 0.20394 0.0
H1737 H 0.88068 0.77558 0.24007 0.0
H1738 H 0.05897 0.84481 0.25454 0.0
H1739 H 0.99723 0.82816 0.25056 0.0
C1740 C 0.20547 0.01048 0.23644 0.0
C1741 C 0.20264 0.99469 0.22441 0.0
C1742 C 0.20791 0.04385 0.23736 0.0
C1743 C 0.18582 0.10343 0.21925 0.0
H1744 H 0.24165 0.17157 0.24582 0.0
C1745 C 0.18763 0.23695 0.22519 0.0
C1746 C 0.18199 0.24449 0.23778 0.0
C1747 C 0.19545 0.20984 0.22282 0.0
C1748 C 0.22587 0.15276 0.23837 0.0
H1749 H 0.20149 1.00222 0.20389 0.0
H1750 H 0.20631 0.06063 0.20549 0.0
H1751 H 0.24574 0.11784 0.24299 0.0
H1752 H 0.1816 0.23051 0.25778 0.0
H1753 H 0.19521 0.18343 0.25366 0.0
H1754 H 0.16557 0.13809 0.21475 0.0
C1755 C 0.20594 0.04692 0.21423 0.0
C1756 C 0.22813 0.12193 0.23676 0.0
C1757 C 0.20337 0.0135 0.21331 0.0
C1758 C 0.1857 0.22533 0.24796 0.0
C1759 C 0.19374 0.19846 0.24561 0.0
C1760 C 0.18367 0.13432 0.22082 0.0
C1761 C 0.20773 0.0623 0.22627 0.0
C1762 C 0.20768 0.09657 0.22732 0.0
C1763 C 0.19809 0.18996 0.233 0.0
C1764 C 0.20321 0.15905 0.23054 0.0
H1765 H 0.20491 0.99669 0.24519 0.0
H1766 H 0.20878 0.05461 0.2468 0.0
H1767 H 0.16928 0.08428 0.212 0.0
H1768 H 0.185 0.25125 0.21713 0.0
H1769 H 0.19904 0.20416 0.21301 0.0
C1770 C 0.80402 0.97599 0.24994 0.0
C1771 C 0.78982 0.95436 0.23902 0.0
C1772 C 0.83147 0.01156 0.24881 0.0
C1773 C 0.88105 0.08601 0.22559 0.0
H1774 H 0.95725 0.11622 0.25057 0.0
C1775 C 0.02305 0.20814 0.21853 0.0
C1776 C 0.04064 0.22935 0.22929 0.0
C1777 C 0.98978 0.17694 0.21981 0.0
C1778 C 0.93599 0.10846 0.24363 0.0
H1779 H 0.79239 0.95347 0.21828 0.0
H1780 H 0.84094 0.01546 0.21631 0.0
H1781 H 0.904 0.05749 0.25253 0.0
H1782 H 0.03645 0.2351 0.24976 0.0
H1783 H 0.97831 0.18062 0.25198 0.0
H1784 H 0.91382 0.13689 0.21652 0.0
C1785 C 0.83048 0.00509 0.22575 0.0
C1786 C 0.90536 0.07474 0.24476 0.0
C1787 C 0.80273 0.96949 0.22688 0.0
C1788 C 0.02369 0.21929 0.24129 0.0
C1789 C 0.99048 0.18798 0.24257 0.0
C1790 C 0.91185 0.11976 0.22444 0.0
C1791 C 0.8457 0.02633 0.23674 0.0
C1792 C 0.87753 0.06297 0.23573 0.0
C1793 C 0.97341 0.16616 0.23188 0.0
C1794 C 0.93974 0.13127 0.23342 0.0
H1795 H 0.79437 0.96527 0.25943 0.0
H1796 H 0.84193 0.02734 0.25745 0.0
H1797 H 0.85997 0.07801 0.21856 0.0
H1798 H 0.03532 0.21517 0.20914 0.0
H1799 H 0.9775 0.16058 0.21141 0.0
C1800 C 0.82108 0.81753 0.77029 0.0
C1801 C 0.82407 0.80135 0.75907 0.0
C1802 C 0.81869 0.84847 0.76964 0.0
C1803 C 0.80238 0.90604 0.74736 0.0
H1804 H 0.86044 0.98049 0.77182 0.0
C1805 C 0.84852 0.05504 0.73944 0.0
C1806 C 0.8503 0.07591 0.75003 0.0
C1807 C 0.83962 0.01946 0.74106 0.0
C1808 C 0.84359 0.95981 0.76505 0.0
H1809 H 0.82569 0.80435 0.73831 0.0
H1810 H 0.82217 0.85872 0.73716 0.0
H1811 H 0.85546 0.92213 0.77357 0.0
H1812 H 0.84295 0.07536 0.7706 0.0
H1813 H 0.82741 0.01301 0.77343 0.0
H1814 H 0.79147 0.94432 0.73862 0.0
C1815 C 0.82115 0.84723 0.74649 0.0
C1816 C 0.8407 0.92626 0.76605 0.0
C1817 C 0.82333 0.8161 0.74714 0.0
C1818 C 0.84185 0.06001 0.76225 0.0
C1819 C 0.83316 0.02438 0.76388 0.0
C1820 C 0.80541 0.93968 0.74633 0.0
C1821 C 0.81945 0.86418 0.75775 0.0
C1822 C 0.82041 0.89905 0.75713 0.0
C1823 C 0.83244 1.00386 0.75332 0.0
C1824 C 0.82642 0.96711 0.75507 0.0
H1825 H 0.82122 0.80666 0.77964 0.0
H1826 H 0.81666 0.86033 0.7785 0.0
H1827 H 0.78604 0.88556 0.74045 0.0
H1828 H 0.85477 0.06641 0.72989 0.0
H1829 H 0.83969 0.00458 0.73274 0.0
C1830 C 0.21802 0.03407 0.74953 0.0
C1831 C 0.23157 0.05005 0.76151 0.0
C1832 C 0.18642 1.00082 0.74873 0.0
C1833 C 0.10462 0.94189 0.76739 0.0
H1834 H 0.0893 0.87288 0.74091 0.0
C1835 C 0.97154 0.80682 0.76292 0.0
C1836 C 0.95718 0.79843 0.75047 0.0
C1837 C 0.00673 0.8347 0.76491 0.0
C1838 C 0.09315 0.89194 0.74834 0.0
H1839 H 0.22338 0.04287 0.78206 0.0
H1840 H 0.1689 0.98474 0.78067 0.0
H1841 H 0.14786 0.92677 0.74313 0.0
H1842 H 0.96893 0.81192 0.73034 0.0
H1843 H 0.02995 0.86018 0.73382 0.0
H1844 H 0.0498 0.90719 0.77251 0.0
C1845 C 0.1821 0.9982 0.77187 0.0
C1846 C 0.1267 0.9229 0.74959 0.0
C1847 C 0.21351 0.03148 0.77267 0.0
C1848 C 0.97909 0.81771 0.74006 0.0
C1849 C 0.01422 0.84527 0.74204 0.0
C1850 C 0.07114 0.91086 0.76618 0.0
C1851 C 0.16776 0.98268 0.75989 0.0
C1852 C 0.13276 0.94855 0.75903 0.0
C1853 C 0.02835 0.85447 0.75449 0.0
C1854 C 0.06485 0.88575 0.75652 0.0
H1855 H 0.2312 0.0477 0.74075 0.0
H1856 H 0.17603 0.98993 0.73933 0.0
H1857 H 0.10803 0.96124 0.77464 0.0
H1858 H 0.95535 0.79248 0.77114 0.0
H1859 H 0.01695 0.84095 0.77462 0.0
C1860 C 0.23232 0.19154 0.76439 0.0
C1861 C 0.2458 0.19193 0.75212 0.0
C1862 C 0.20395 0.19792 0.76591 0.0
C1863 C 0.12884 0.19194 0.74719 0.0
H1864 H 0.11708 0.24072 0.77623 0.0
C1865 C 0.00942 0.21409 0.75028 0.0
C1866 C 0.99118 0.20543 0.76204 0.0
C1867 C 0.04289 0.217 0.74932 0.0
C1868 C 0.11996 0.22689 0.7681 0.0
H1869 H 0.24191 0.20177 0.73196 0.0
H1870 H 0.19338 0.2138 0.73463 0.0
H1871 H 0.17185 0.23809 0.77417 0.0
H1872 H 0.9945 0.19447 0.78215 0.0
H1873 H 0.05282 0.19932 0.78044 0.0
H1874 H 0.07703 0.18042 0.74115 0.0
C1875 C 0.20376 0.20745 0.74305 0.0
C1876 C 0.15129 0.22533 0.76693 0.0
C1877 C 0.23176 0.20076 0.74152 0.0
C1878 C 0.00778 0.20108 0.77293 0.0
C1879 C 0.04132 0.20406 0.77197 0.0
C1880 C 0.09772 0.19361 0.74833 0.0
C1881 C 0.18876 0.20506 0.75519 0.0
C1882 C 0.15608 0.2078 0.75645 0.0
C1883 C 0.05893 0.21138 0.76011 0.0
C1884 C 0.09284 0.21103 0.7588 0.0
H1885 H 0.24257 0.18472 0.77274 0.0
H1886 H 0.19293 0.1957 0.7754 0.0
H1887 H 0.13116 0.17744 0.73916 0.0
H1888 H 0.99751 0.21785 0.74172 0.0
H1889 H 0.05604 0.22322 0.74008 0.0
C1890 C 0.48268 0.16201 0.57195 0.0
C1891 C 0.46935 0.16441 0.55993 0.0
C1892 C 0.51273 0.15813 0.57278 0.0
C1893 C 0.59202 0.17608 0.5539 0.0
H1894 H 0.60547 0.12305 0.58115 0.0
C1895 C 0.72279 0.17292 0.55875 0.0
C1896 C 0.73775 0.18051 0.57111 0.0
C1897 C 0.68756 0.16485 0.55681 0.0
C1898 C 0.6021 0.13801 0.5735 0.0
H1899 H 0.47587 0.16265 0.53939 0.0
H1900 H 0.52767 0.15514 0.54085 0.0
H1901 H 0.54793 0.11986 0.57883 0.0
H1902 H 0.72691 0.1839 0.5912 0.0
H1903 H 0.66571 0.16991 0.58781 0.0
H1904 H 0.64629 0.19467 0.54869 0.0
C1905 C 0.51557 0.15719 0.54963 0.0
C1906 C 0.56917 0.13627 0.57218 0.0
C1907 C 0.48572 0.1613 0.54879 0.0
C1908 C 0.71626 0.17833 0.58154 0.0
C1909 C 0.68105 0.17005 0.57962 0.0
C1910 C 0.62483 0.17769 0.55518 0.0
C1911 C 0.52995 0.15633 0.56163 0.0
C1912 C 0.56389 0.15572 0.56248 0.0
C1913 C 0.6665 0.16393 0.56721 0.0
C1914 C 0.63045 0.15913 0.56511 0.0
H1915 H 0.4707 0.16438 0.58071 0.0
H1916 H 0.52325 0.15794 0.58219 0.0
H1917 H 0.58919 0.19193 0.54645 0.0
H1918 H 0.73862 0.17431 0.55052 0.0
H1919 H 0.67695 0.15986 0.54715 0.0
C1920 C 0.8739 0.34051 0.5724 0.0
C1921 C 0.87245 0.3249 0.56045 0.0
C1922 C 0.87818 0.37471 0.5731 0.0
C1923 C 0.86372 0.43775 0.55379 0.0
H1924 H 0.91705 0.50415 0.58113 0.0
C1925 C 0.8723 0.57466 0.55798 0.0
C1926 C 0.86492 0.58262 0.57025 0.0
C1927 C 0.87891 0.5465 0.55625 0.0
C1928 C 0.902 0.48584 0.57346 0.0
H1929 H 0.87585 0.33356 0.53988 0.0
H1930 H 0.88389 0.39333 0.54112 0.0
H1931 H 0.91816 0.44858 0.5791 0.0
H1932 H 0.86027 0.56832 0.59039 0.0
H1933 H 0.87171 0.51934 0.58736 0.0
H1934 H 0.84713 0.4747 0.54827 0.0
C1935 C 0.88096 0.3789 0.54994 0.0
C1936 C 0.90255 0.45397 0.57231 0.0
C1937 C 0.87653 0.34467 0.54924 0.0
C1938 C 0.86575 0.56282 0.5808 0.0
C1939 C 0.87255 0.53487 0.57908 0.0
C1940 C 0.86328 0.46965 0.55492 0.0
C1941 C 0.88126 0.39412 0.56187 0.0
C1942 C 0.88299 0.42928 0.56257 0.0
C1943 C 0.87853 0.52592 0.56676 0.0
C1944 C 0.88197 0.49381 0.56487 0.0
H1945 H 0.87078 0.32596 0.58121 0.0
H1946 H 0.87787 0.3854 0.58244 0.0
H1947 H 0.84788 0.41914 0.5463 0.0
H1948 H 0.87192 0.58944 0.54966 0.0
H1949 H 0.88383 0.54049 0.54666 0.0
C1950 C 0.48184 0.31357 0.55705 0.0
C1951 C 0.46859 0.29989 0.56932 0.0
C1952 C 0.51126 0.34826 0.5556 0.0
C1953 C 0.58851 0.41692 0.57424 0.0
H1954 H 0.60028 0.47884 0.54551 0.0
C1955 C 0.70924 0.56033 0.57092 0.0
C1956 C 0.72694 0.5701 0.55905 0.0
C1957 C 0.67572 0.52927 0.57206 0.0
C1958 C 0.59741 0.46176 0.55356 0.0
H1959 H 0.47441 0.31255 0.5896 0.0
H1960 H 0.52467 0.37297 0.58706 0.0
H1961 H 0.54507 0.42106 0.54761 0.0
H1962 H 0.72259 0.5556 0.53896 0.0
H1963 H 0.66421 0.50152 0.54095 0.0
H1964 H 0.64075 0.45742 0.58017 0.0
C1965 C 0.5133 0.35674 0.57857 0.0
C1966 C 0.56582 0.4286 0.55474 0.0
C1967 C 0.48426 0.3221 0.58002 0.0
C1968 C 0.70977 0.54882 0.54826 0.0
C1969 C 0.67617 0.5179 0.54938 0.0
C1970 C 0.6199 0.45005 0.57309 0.0
C1971 C 0.52781 0.37002 0.56638 0.0
C1972 C 0.56099 0.40571 0.5651 0.0
C1973 C 0.65903 0.50741 0.56133 0.0
C1974 C 0.62482 0.47285 0.56273 0.0
H1975 H 0.47039 0.29704 0.54862 0.0
H1976 H 0.52181 0.35747 0.54607 0.0
H1977 H 0.58621 0.39975 0.58218 0.0
H1978 H 0.72165 0.57617 0.57942 0.0
H1979 H 0.66299 0.52217 0.58137 0.0
loop_
_geom_bond_atom_site_label_1
_geom_bond_atom_site_label_2
_geom_bond_distance
_geom_bond_site_symmetry_2
_ccdc_geom_bond_type
Zn0 O6 1.969 . S
Zn0 O7 1.965 . S
Zn0 O11 2.024 . S
Zn0 O16 1.969 . S
Zn1 O8 1.969 . S
Zn1 O14 1.969 . S
Zn1 O15 1.965 . S
Zn1 O17 2.024 . S
C2 O3 1.229 . S
C2 O11 1.058 . S
O3 C2 1.229 . S
C4 O5 1.229 . S
C4 O17 1.058 . S
O5 C4 1.229 . S
O6 Zn0 1.969 . S
O6 C9 1.267 . S
O7 Zn0 1.965 . S
O7 C18 1.260 1_565 S
O8 Zn1 1.969 . S
O8 C18 1.258 . S
C9 O6 1.267 . S
C9 O10 1.228 . S
O10 C9 1.228 . S
O11 Zn0 2.024 . S
O11 C2 1.058 . S
C12 O13 1.228 . S
C12 O14 1.267 . S
O13 C12 1.228 . S
O14 Zn1 1.969 . S
O14 C12 1.267 . S
O15 Zn1 1.965 . S
O15 C19 1.260 . S
O16 Zn0 1.969 . S
O16 C19 1.258 1_565 S
O17 Zn1 2.024 . S
O17 C4 1.058 . S
C18 O7 1.260 1_545 S
C18 O8 1.258 . S
C19 O15 1.260 . S
C19 O16 1.258 1_545 S
Zn20 O26 1.969 . S
Zn20 O27 1.965 . S
Zn20 O31 2.024 . S
Zn20 O36 1.969 . S
Zn21 O28 1.969 . S
Zn21 O34 1.969 . S
Zn21 O35 1.965 1_655 S
Zn21 O37 2.024 . S
C22 O23 1.229 . S
C22 O31 1.058 . S
O23 C22 1.229 . S
C24 O25 1.229 . S
C24 O37 1.058 . S
O25 C24 1.229 . S
O26 Zn20 1.969 . S
O26 C29 1.267 . S
O27 Zn20 1.965 . S
O27 C38 1.260 . S
O28 Zn21 1.969 . S
O28 C38 1.258 1_655 S
C29 O26 1.267 . S
C29 O30 1.228 . S
O30 C29 1.228 . S
O31 Zn20 2.024 . S
O31 C22 1.058 . S
C32 O33 1.228 . S
C32 O34 1.267 . S
O33 C32 1.228 . S
O34 Zn21 1.969 . S
O34 C32 1.267 . S
O35 Zn21 1.965 1_455 S
O35 C39 1.260 . S
O36 Zn20 1.969 . S
O36 C39 1.258 . S
O37 Zn21 2.024 . S
O37 C24 1.058 . S
C38 O27 1.260 . S
C38 O28 1.258 1_455 S
C39 O35 1.260 . S
C39 O36 1.258 . S
Zn40 O46 1.969 . S
Zn40 O47 1.965 . S
Zn40 O51 2.024 . S
Zn40 O56 1.969 . S
Zn41 O48 1.969 . S
Zn41 O54 1.969 . S
Zn41 O55 1.965 . S
Zn41 O57 2.024 . S
C42 O43 1.229 . S
C42 O51 1.058 . S
O43 C42 1.229 . S
C44 O45 1.229 . S
C44 O57 1.058 . S
O45 C44 1.229 . S
O46 Zn40 1.969 . S
O46 C49 1.267 . S
O47 Zn40 1.965 . S
O47 C58 1.260 . S
O48 Zn41 1.969 . S
O48 C58 1.258 . S
C49 O46 1.267 . S
C49 O50 1.228 . S
O50 C49 1.228 . S
O51 Zn40 2.024 . S
O51 C42 1.058 . S
C52 O53 1.228 . S
C52 O54 1.267 . S
O53 C52 1.228 . S
O54 Zn41 1.969 . S
O54 C52 1.267 . S
O55 Zn41 1.965 . S
O55 C59 1.260 . S
O56 Zn40 1.969 . S
O56 C59 1.258 . S
O57 Zn41 2.024 . S
O57 C44 1.058 . S
C58 O47 1.260 . S
C58 O48 1.258 . S
C59 O55 1.260 . S
C59 O56 1.258 . S
Zn60 O66 1.969 . S
Zn60 O67 1.965 . S
Zn60 O71 2.024 . S
Zn60 O76 1.969 . S
Zn61 O68 1.969 . S
Zn61 O74 1.969 . S
Zn61 O75 1.965 . S
Zn61 O77 2.024 . S
C62 O63 1.229 . S
C62 O71 1.058 . S
O63 C62 1.229 . S
C64 O65 1.229 . S
C64 O77 1.058 . S
O65 C64 1.229 . S
O66 Zn60 1.969 . S
O66 C69 1.267 . S
O67 Zn60 1.965 . S
O67 C78 1.260 1_655 S
O68 Zn61 1.969 . S
O68 C78 1.258 . S
C69 O66 1.267 . S
C69 O70 1.228 . S
O70 C69 1.228 . S
O71 Zn60 2.024 . S
O71 C62 1.058 . S
C72 O73 1.228 . S
C72 O74 1.267 . S
O73 C72 1.228 . S
O74 Zn61 1.969 . S
O74 C72 1.267 . S
O75 Zn61 1.965 . S
O75 C79 1.260 . S
O76 Zn60 1.969 . S
O76 C79 1.258 1_655 S
O77 Zn61 2.024 . S
O77 C64 1.058 . S
C78 O67 1.260 1_455 S
C78 O68 1.258 . S
C79 O75 1.260 . S
C79 O76 1.258 1_455 S
Zn80 O86 1.969 . S
Zn80 O87 1.965 . S
Zn80 O91 2.024 . S
Zn80 O96 1.969 . S
Zn81 O88 1.969 . S
Zn81 O94 1.969 . S
Zn81 O95 1.965 . S
Zn81 O97 2.024 . S
C82 O83 1.229 . S
C82 O91 1.058 . S
O83 C82 1.229 . S
C84 O85 1.229 . S
C84 O97 1.058 . S
O85 C84 1.229 . S
O86 Zn80 1.969 . S
O86 C89 1.267 . S
O87 Zn80 1.965 . S
O87 C98 1.260 . S
O88 Zn81 1.969 . S
O88 C98 1.258 . S
C89 O86 1.267 . S
C89 O90 1.228 . S
O90 C89 1.228 . S
O91 Zn80 2.024 . S
O91 C82 1.058 . S
C92 O93 1.228 . S
C92 O94 1.267 . S
O93 C92 1.228 . S
O94 Zn81 1.969 . S
O94 C92 1.267 . S
O95 Zn81 1.965 . S
O95 C99 1.260 . S
O96 Zn80 1.969 . S
O96 C99 1.258 . S
O97 Zn81 2.024 . S
O97 C84 1.058 . S
C98 O87 1.260 . S
C98 O88 1.258 . S
C99 O95 1.260 . S
C99 O96 1.258 . S
Zn100 O106 1.969 . S
Zn100 O107 1.965 . S
Zn100 O111 2.024 . S
Zn100 O116 1.969 . S
Zn101 O108 1.969 . S
Zn101 O114 1.969 . S
Zn101 O115 1.965 1_565 S
Zn101 O117 2.024 . S
C102 O103 1.229 . S
C102 O111 1.058 . S
O103 C102 1.229 . S
C104 O105 1.229 . S
C104 O117 1.058 . S
O105 C104 1.229 . S
O106 Zn100 1.969 . S
O106 C109 1.267 . S
O107 Zn100 1.965 . S
O107 C118 1.260 . S
O108 Zn101 1.969 . S
O108 C118 1.258 1_565 S
C109 O106 1.267 . S
C109 O110 1.228 . S
O110 C109 1.228 . S
O111 Zn100 2.024 . S
O111 C102 1.058 . S
C112 O113 1.228 . S
C112 O114 1.267 . S
O113 C112 1.228 . S
O114 Zn101 1.969 . S
O114 C112 1.267 . S
O115 Zn101 1.965 1_545 S
O115 C119 1.260 . S
O116 Zn100 1.969 . S
O116 C119 1.258 . S
O117 Zn101 2.024 . S
O117 C104 1.058 . S
C118 O107 1.260 . S
C118 O108 1.258 1_545 S
C119 O115 1.260 . S
C119 O116 1.258 . S
Zn120 O126 1.969 . S
Zn120 O127 1.965 . S
Zn120 O131 2.024 . S
Zn120 O136 1.969 . S
Zn121 O128 1.969 . S
Zn121 O134 1.969 . S
Zn121 O135 1.965 . S
Zn121 O137 2.024 . S
C122 O123 1.229 . S
C122 O131 1.058 . S
O123 C122 1.229 . S
C124 O125 1.229 . S
C124 O137 1.058 . S
O125 C124 1.229 . S
O126 Zn120 1.969 . S
O126 C129 1.267 . S
O127 Zn120 1.965 . S
O127 C138 1.260 . S
O128 Zn121 1.969 . S
O128 C138 1.258 . S
C129 O126 1.267 . S
C129 O130 1.228 . S
O130 C129 1.228 . S
O131 Zn120 2.024 . S
O131 C122 1.058 . S
C132 O133 1.228 . S
C132 O134 1.267 . S
O133 C132 1.228 . S
O134 Zn121 1.969 . S
O134 C132 1.267 . S
O135 Zn121 1.965 . S
O135 C139 1.260 . S
O136 Zn120 1.969 . S
O136 C139 1.258 . S
O137 Zn121 2.024 . S
O137 C124 1.058 . S
C138 O127 1.260 . S
C138 O128 1.258 . S
C139 O135 1.260 . S
C139 O136 1.258 . S
Zn140 O146 1.969 . S
Zn140 O147 1.965 . S
Zn140 O151 2.024 . S
Zn140 O156 1.969 . S
Zn141 O148 1.969 . S
Zn141 O154 1.969 . S
Zn141 O155 1.965 . S
Zn141 O157 2.024 . S
C142 O143 1.229 . S
C142 O151 1.058 . S
O143 C142 1.229 . S
C144 O145 1.229 . S
C144 O157 1.058 . S
O145 C144 1.229 . S
O146 Zn140 1.969 . S
O146 C149 1.267 . S
O147 Zn140 1.965 . S
O147 C158 1.260 . S
O148 Zn141 1.969 . S
O148 C158 1.258 . S
C149 O146 1.267 . S
C149 O150 1.228 . S
O150 C149 1.228 . S
O151 Zn140 2.024 . S
O151 C142 1.058 . S
C152 O153 1.228 . S
C152 O154 1.267 . S
O153 C152 1.228 . S
O154 Zn141 1.969 . S
O154 C152 1.267 . S
O155 Zn141 1.965 . S
O155 C159 1.260 . S
O156 Zn140 1.969 . S
O156 C159 1.258 . S
O157 Zn141 2.024 . S
O157 C144 1.058 . S
C158 O147 1.260 . S
C158 O148 1.258 . S
C159 O155 1.260 . S
C159 O156 1.258 . S
Zn160 O166 1.969 . S
Zn160 O167 1.965 . S
Zn160 O171 2.024 . S
Zn160 O176 1.969 . S
Zn161 O168 1.969 . S
Zn161 O174 1.969 . S
Zn161 O175 1.965 . S
Zn161 O177 2.024 . S
C162 O163 1.229 . S
C162 O171 1.058 . S
O163 C162 1.229 . S
C164 O165 1.229 . S
C164 O177 1.058 . S
O165 C164 1.229 . S
O166 Zn160 1.969 . S
O166 C169 1.267 . S
O167 Zn160 1.965 . S
O167 C178 1.260 . S
O168 Zn161 1.969 . S
O168 C178 1.258 . S
C169 O166 1.267 . S
C169 O170 1.228 . S
O170 C169 1.228 . S
O171 Zn160 2.024 . S
O171 C162 1.058 . S
C172 O173 1.228 . S
C172 O174 1.267 . S
O173 C172 1.228 . S
O174 Zn161 1.969 . S
O174 C172 1.267 . S
O175 Zn161 1.965 . S
O175 C179 1.260 . S
O176 Zn160 1.969 . S
O176 C179 1.258 . S
O177 Zn161 2.024 . S
O177 C164 1.058 . S
C178 O167 1.260 . S
C178 O168 1.258 . S
C179 O175 1.260 . S
C179 O176 1.258 . S
Zn180 O186 1.969 . S
Zn180 O187 1.965 . S
Zn180 O191 2.024 . S
Zn180 O196 1.969 . S
Zn181 O188 1.969 . S
Zn181 O194 1.969 . S
Zn181 O195 1.965 . S
Zn181 O197 2.024 . S
C182 O183 1.229 . S
C182 O191 1.058 . S
O183 C182 1.229 . S
C184 O185 1.229 . S
C184 O197 1.058 . S
O185 C184 1.229 . S
O186 Zn180 1.969 . S
O186 C189 1.267 . S
O187 Zn180 1.965 . S
O187 C198 1.260 . S
O188 Zn181 1.969 . S
O188 C198 1.258 . S
C189 O186 1.267 . S
C189 O190 1.228 . S
O190 C189 1.228 . S
O191 Zn180 2.024 . S
O191 C182 1.058 . S
C192 O193 1.228 . S
C192 O194 1.267 . S
O193 C192 1.228 . S
O194 Zn181 1.969 . S
O194 C192 1.267 . S
O195 Zn181 1.965 . S
O195 C199 1.260 . S
O196 Zn180 1.969 . S
O196 C199 1.258 . S
O197 Zn181 2.024 . S
O197 C184 1.058 . S
C198 O187 1.260 . S
C198 O188 1.258 . S
C199 O195 1.260 . S
C199 O196 1.258 . S
Zn200 O206 1.969 . S
Zn200 O207 1.965 . S
Zn200 O211 2.024 . S
Zn200 O216 1.969 . S
Zn201 O208 1.969 . S
Zn201 O214 1.969 . S
Zn201 O215 1.965 . S
Zn201 O217 2.024 . S
C202 O203 1.229 . S
C202 O211 1.058 . S
O203 C202 1.229 . S
C204 O205 1.229 . S
C204 O217 1.058 . S
O205 C204 1.229 . S
O206 Zn200 1.969 . S
O206 C209 1.267 . S
O207 Zn200 1.965 . S
O207 C218 1.260 . S
O208 Zn201 1.969 . S
O208 C218 1.258 . S
C209 O206 1.267 . S
C209 O210 1.228 . S
O210 C209 1.228 . S
O211 Zn200 2.024 . S
O211 C202 1.058 . S
C212 O213 1.228 . S
C212 O214 1.267 . S
O213 C212 1.228 . S
O214 Zn201 1.969 . S
O214 C212 1.267 . S
O215 Zn201 1.965 . S
O215 C219 1.260 . S
O216 Zn200 1.969 . S
O216 C219 1.258 . S
O217 Zn201 2.024 . S
O217 C204 1.058 . S
C218 O207 1.260 . S
C218 O208 1.258 . S
C219 O215 1.260 . S
C219 O216 1.258 . S
Zn220 O226 1.969 . S
Zn220 O227 1.965 . S
Zn220 O231 2.024 . S
Zn220 O236 1.969 . S
Zn221 O228 1.969 . S
Zn221 O234 1.969 . S
Zn221 O235 1.965 . S
Zn221 O237 2.024 . S
C222 O223 1.229 . S
C222 O231 1.058 . S
O223 C222 1.229 . S
C224 O225 1.229 . S
C224 O237 1.058 . S
O225 C224 1.229 . S
O226 Zn220 1.969 . S
O226 C229 1.267 . S
O227 Zn220 1.965 . S
O227 C238 1.260 . S
O228 Zn221 1.969 . S
O228 C238 1.258 . S
C229 O226 1.267 . S
C229 O230 1.228 . S
O230 C229 1.228 . S
O231 Zn220 2.024 . S
O231 C222 1.058 . S
C232 O233 1.228 . S
C232 O234 1.267 . S
O233 C232 1.228 . S
O234 Zn221 1.969 . S
O234 C232 1.267 . S
O235 Zn221 1.965 . S
O235 C239 1.260 . S
O236 Zn220 1.969 . S
O236 C239 1.258 . S
O237 Zn221 2.024 . S
O237 C224 1.058 . S
C238 O227 1.260 . S
C238 O228 1.258 . S
C239 O235 1.260 . S
C239 O236 1.258 . S
Zn240 O246 1.969 . S
Zn240 O247 1.965 . S
Zn240 O251 2.024 . S
Zn240 O256 1.969 . S
Zn241 O248 1.969 . S
Zn241 O254 1.969 . S
Zn241 O255 1.965 . S
Zn241 O257 2.024 . S
C242 O243 1.229 . S
C242 O251 1.058 . S
O243 C242 1.229 . S
C244 O245 1.229 . S
C244 O257 1.058 . S
O245 C244 1.229 . S
O246 Zn240 1.969 . S
O246 C249 1.267 . S
O247 Zn240 1.965 . S
O247 C258 1.260 . S
O248 Zn241 1.969 . S
O248 C258 1.258 . S
C249 O246 1.267 . S
C249 O250 1.228 . S
O250 C249 1.228 . S
O251 Zn240 2.024 . S
O251 C242 1.058 . S
C252 O253 1.228 . S
C252 O254 1.267 . S
O253 C252 1.228 . S
O254 Zn241 1.969 . S
O254 C252 1.267 . S
O255 Zn241 1.965 . S
O255 C259 1.260 . S
O256 Zn240 1.969 . S
O256 C259 1.258 . S
O257 Zn241 2.024 . S
O257 C244 1.058 . S
C258 O247 1.260 . S
C258 O248 1.258 . S
C259 O255 1.260 . S
C259 O256 1.258 . S
Zn260 O266 1.969 . S
Zn260 O267 1.965 . S
Zn260 O271 2.024 . S
Zn260 O276 1.969 . S
Zn261 O268 1.969 . S
Zn261 O274 1.969 . S
Zn261 O275 1.965 . S
Zn261 O277 2.024 . S
C262 O263 1.229 . S
C262 O271 1.058 . S
O263 C262 1.229 . S
C264 O265 1.229 . S
C264 O277 1.058 . S
O265 C264 1.229 . S
O266 Zn260 1.969 . S
O266 C269 1.267 . S
O267 Zn260 1.965 . S
O267 C278 1.260 . S
O268 Zn261 1.969 . S
O268 C278 1.258 . S
C269 O266 1.267 . S
C269 O270 1.228 . S
O270 C269 1.228 . S
O271 Zn260 2.024 . S
O271 C262 1.058 . S
C272 O273 1.228 . S
C272 O274 1.267 . S
O273 C272 1.228 . S
O274 Zn261 1.969 . S
O274 C272 1.267 . S
O275 Zn261 1.965 . S
O275 C279 1.260 . S
O276 Zn260 1.969 . S
O276 C279 1.258 . S
O277 Zn261 2.024 . S
O277 C264 1.058 . S
C278 O267 1.260 . S
C278 O268 1.258 . S
C279 O275 1.260 . S
C279 O276 1.258 . S
Zn280 O286 1.969 . S
Zn280 O287 1.965 . S
Zn280 O291 2.024 . S
Zn280 O296 1.969 . S
Zn281 O288 1.969 . S
Zn281 O294 1.969 . S
Zn281 O295 1.965 . S
Zn281 O297 2.024 . S
C282 O283 1.229 . S
C282 O291 1.058 . S
O283 C282 1.229 . S
C284 O285 1.229 . S
C284 O297 1.058 . S
O285 C284 1.229 . S
O286 Zn280 1.969 . S
O286 C289 1.267 . S
O287 Zn280 1.965 . S
O287 C298 1.260 . S
O288 Zn281 1.969 . S
O288 C298 1.258 . S
C289 O286 1.267 . S
C289 O290 1.228 . S
O290 C289 1.228 . S
O291 Zn280 2.024 . S
O291 C282 1.058 . S
C292 O293 1.228 . S
C292 O294 1.267 . S
O293 C292 1.228 . S
O294 Zn281 1.969 . S
O294 C292 1.267 . S
O295 Zn281 1.965 . S
O295 C299 1.260 . S
O296 Zn280 1.969 . S
O296 C299 1.258 . S
O297 Zn281 2.024 . S
O297 C284 1.058 . S
C298 O287 1.260 . S
C298 O288 1.258 . S
C299 O295 1.260 . S
C299 O296 1.258 . S
Zn300 O306 1.969 . S
Zn300 O307 1.965 . S
Zn300 O311 2.024 . S
Zn300 O316 1.969 . S
Zn301 O308 1.969 . S
Zn301 O314 1.969 . S
Zn301 O315 1.965 . S
Zn301 O317 2.024 . S
C302 O303 1.229 . S
C302 O311 1.058 . S
O303 C302 1.229 . S
C304 O305 1.229 . S
C304 O317 1.058 . S
O305 C304 1.229 . S
O306 Zn300 1.969 . S
O306 C309 1.267 . S
O307 Zn300 1.965 . S
O307 C318 1.260 . S
O308 Zn301 1.969 . S
O308 C318 1.258 . S
C309 O306 1.267 . S
C309 O310 1.228 . S
O310 C309 1.228 . S
O311 Zn300 2.024 . S
O311 C302 1.058 . S
C312 O313 1.228 . S
C312 O314 1.267 . S
O313 C312 1.228 . S
O314 Zn301 1.969 . S
O314 C312 1.267 . S
O315 Zn301 1.965 . S
O315 C319 1.260 . S
O316 Zn300 1.969 . S
O316 C319 1.258 . S
O317 Zn301 2.024 . S
O317 C304 1.058 . S
C318 O307 1.260 . S
C318 O308 1.258 . S
C319 O315 1.260 . S
C319 O316 1.258 . S
Zn320 O326 1.969 . S
Zn320 O327 1.965 . S
Zn320 O331 2.024 . S
Zn320 O336 1.969 . S
Zn321 O328 1.969 . S
Zn321 O334 1.969 . S
Zn321 O335 1.965 . S
Zn321 O337 2.024 . S
C322 O323 1.229 . S
C322 O331 1.058 . S
O323 C322 1.229 . S
C324 O325 1.229 . S
C324 O337 1.058 . S
O325 C324 1.229 . S
O326 Zn320 1.969 . S
O326 C329 1.267 . S
O327 Zn320 1.965 . S
O327 C338 1.260 . S
O328 Zn321 1.969 . S
O328 C338 1.258 . S
C329 O326 1.267 . S
C329 O330 1.228 . S
O330 C329 1.228 . S
O331 Zn320 2.024 . S
O331 C322 1.058 . S
C332 O333 1.228 . S
C332 O334 1.267 . S
O333 C332 1.228 . S
O334 Zn321 1.969 . S
O334 C332 1.267 . S
O335 Zn321 1.965 . S
O335 C339 1.260 . S
O336 Zn320 1.969 . S
O336 C339 1.258 . S
O337 Zn321 2.024 . S
O337 C324 1.058 . S
C338 O327 1.260 . S
C338 O328 1.258 . S
C339 O335 1.260 . S
C339 O336 1.258 . S
Zn340 O346 1.969 . S
Zn340 O347 1.965 . S
Zn340 O351 2.024 . S
Zn340 O356 1.969 . S
Zn341 O348 1.969 . S
Zn341 O354 1.969 . S
Zn341 O355 1.965 . S
Zn341 O357 2.024 . S
C342 O343 1.229 . S
C342 O351 1.058 . S
O343 C342 1.229 . S
C344 O345 1.229 . S
C344 O357 1.058 . S
O345 C344 1.229 . S
O346 Zn340 1.969 . S
O346 C349 1.267 . S
O347 Zn340 1.965 . S
O347 C358 1.260 . S
O348 Zn341 1.969 . S
O348 C358 1.258 . S
C349 O346 1.267 . S
C349 O350 1.228 . S
O350 C349 1.228 . S
O351 Zn340 2.024 . S
O351 C342 1.058 . S
C352 O353 1.228 . S
C352 O354 1.267 . S
O353 C352 1.228 . S
O354 Zn341 1.969 . S
O354 C352 1.267 . S
O355 Zn341 1.965 . S
O355 C359 1.260 . S
O356 Zn340 1.969 . S
O356 C359 1.258 . S
O357 Zn341 2.024 . S
O357 C344 1.058 . S
C358 O347 1.260 . S
C358 O348 1.258 . S
C359 O355 1.260 . S
C359 O356 1.258 . S
C360 C361 1.349 . S
C360 C362 1.327 . S
C360 H385 0.950 . S
C361 C360 1.349 . S
C361 C377 1.349 . S
C362 C360 1.327 . S
C362 C381 1.429 . S
C362 H386 0.950 . S
C363 C380 1.574 . S
C363 C382 1.368 . S
C363 H387 0.949 . S
H364 C368 0.949 . S
C365 C366 1.349 . S
C365 C367 1.327 . S
C365 H388 0.950 . S
C366 C365 1.349 . S
C366 C378 1.349 . S
C367 C365 1.327 . S
C367 C383 1.429 . S
C367 H389 0.950 . S
C368 H364 0.949 . S
C368 C376 1.574 . S
C368 C384 1.368 . S
H369 C377 0.950 . S
H370 C375 0.950 . S
H371 C376 0.949 . S
H372 C378 0.950 . S
H373 C379 0.950 . S
H374 C380 0.949 . S
C375 H370 0.950 . S
C375 C377 1.327 . S
C375 C381 1.429 . S
C376 C368 1.574 . S
C376 H371 0.949 . S
C376 C382 1.368 . S
C377 C361 1.349 . S
C377 H369 0.950 . S
C377 C375 1.327 . S
C378 C366 1.349 . S
C378 H372 0.950 . S
C378 C379 1.327 . S
C379 H373 0.950 . S
C379 C378 1.327 . S
C379 C383 1.429 . S
C380 C363 1.574 . S
C380 H374 0.949 . S
C380 C384 1.368 . S
C381 C362 1.429 . S
C381 C375 1.429 . S
C381 C382 1.523 . S
C382 C363 1.368 . S
C382 C376 1.368 . S
C382 C381 1.523 . S
C383 C367 1.429 . S
C383 C379 1.429 . S
C383 C384 1.523 . S
C384 C368 1.368 . S
C384 C380 1.368 . S
C384 C383 1.523 . S
H385 C360 0.950 . S
H386 C362 0.950 . S
H387 C363 0.949 . S
H388 C365 0.950 . S
H389 C367 0.950 . S
C390 C391 1.349 . S
C390 C392 1.327 . S
C390 H415 0.950 . S
C391 C390 1.349 . S
C391 C407 1.349 . S
C392 C390 1.327 . S
C392 C411 1.429 . S
C392 H416 0.950 . S
C393 C410 1.574 . S
C393 C412 1.368 . S
C393 H417 0.949 . S
H394 C398 0.949 . S
C395 C396 1.349 . S
C395 C397 1.327 . S
C395 H418 0.950 . S
C396 C395 1.349 . S
C396 C408 1.349 . S
C397 C395 1.327 . S
C397 C413 1.429 . S
C397 H419 0.950 . S
C398 H394 0.949 . S
C398 C406 1.574 . S
C398 C414 1.368 . S
H399 C407 0.950 . S
H400 C405 0.950 . S
H401 C406 0.949 . S
H402 C408 0.950 . S
H403 C409 0.950 . S
H404 C410 0.949 . S
C405 H400 0.950 . S
C405 C407 1.327 . S
C405 C411 1.429 . S
C406 C398 1.574 . S
C406 H401 0.949 . S
C406 C412 1.368 . S
C407 C391 1.349 . S
C407 H399 0.950 . S
C407 C405 1.327 . S
C408 C396 1.349 . S
C408 H402 0.950 . S
C408 C409 1.327 . S
C409 H403 0.950 . S
C409 C408 1.327 . S
C409 C413 1.429 . S
C410 C393 1.574 . S
C410 H404 0.949 . S
C410 C414 1.368 . S
C411 C392 1.429 . S
C411 C405 1.429 . S
C411 C412 1.523 . S
C412 C393 1.368 . S
C412 C406 1.368 . S
C412 C411 1.523 . S
C413 C397 1.429 . S
C413 C409 1.429 . S
C413 C414 1.523 . S
C414 C398 1.368 . S
C414 C410 1.368 . S
C414 C413 1.523 . S
H415 C390 0.950 . S
H416 C392 0.950 . S
H417 C393 0.949 . S
H418 C395 0.950 . S
H419 C397 0.950 . S
C420 C421 1.349 . S
C420 C422 1.327 . S
C420 H445 0.950 . S
C421 C420 1.349 . S
C421 C437 1.349 . S
C422 C420 1.327 . S
C422 C441 1.429 . S
C422 H446 0.950 . S
C423 C440 1.574 . S
C423 C442 1.368 . S
C423 H447 0.949 . S
H424 C428 0.949 . S
C425 C426 1.349 . S
C425 C427 1.327 . S
C425 H448 0.950 . S
C426 C425 1.349 . S
C426 C438 1.349 . S
C427 C425 1.327 . S
C427 C443 1.429 . S
C427 H449 0.950 . S
C428 H424 0.949 . S
C428 C436 1.574 . S
C428 C444 1.368 . S
H429 C437 0.950 . S
H430 C435 0.950 . S
H431 C436 0.949 . S
H432 C438 0.950 . S
H433 C439 0.950 . S
H434 C440 0.949 . S
C435 H430 0.950 . S
C435 C437 1.327 . S
C435 C441 1.429 . S
C436 C428 1.574 . S
C436 H431 0.949 . S
C436 C442 1.368 . S
C437 C421 1.349 . S
C437 H429 0.950 . S
C437 C435 1.327 . S
C438 C426 1.349 . S
C438 H432 0.950 . S
C438 C439 1.327 . S
C439 H433 0.950 . S
C439 C438 1.327 . S
C439 C443 1.429 . S
C440 C423 1.574 . S
C440 H434 0.949 . S
C440 C444 1.368 . S
C441 C422 1.429 . S
C441 C435 1.429 . S
C441 C442 1.523 . S
C442 C423 1.368 . S
C442 C436 1.368 . S
C442 C441 1.523 . S
C443 C427 1.429 . S
C443 C439 1.429 . S
C443 C444 1.523 . S
C444 C428 1.368 . S
C444 C440 1.368 . S
C444 C443 1.523 . S
H445 C420 0.950 . S
H446 C422 0.950 . S
H447 C423 0.949 . S
H448 C425 0.950 . S
H449 C427 0.950 . S
C450 C451 1.349 . S
C450 C452 1.327 . S
C450 H475 0.950 . S
C451 C450 1.349 . S
C451 C467 1.349 . S
C452 C450 1.327 . S
C452 C471 1.429 . S
C452 H476 0.950 . S
C453 C470 1.574 . S
C453 C472 1.368 . S
C453 H477 0.949 . S
H454 C458 0.949 . S
C455 C456 1.349 . S
C455 C457 1.327 . S
C455 H478 0.950 . S
C456 C455 1.349 . S
C456 C468 1.349 . S
C457 C455 1.327 . S
C457 C473 1.429 . S
C457 H479 0.950 . S
C458 H454 0.949 . S
C458 C466 1.574 . S
C458 C474 1.368 . S
H459 C467 0.950 . S
H460 C465 0.950 . S
H461 C466 0.949 . S
H462 C468 0.950 . S
H463 C469 0.950 . S
H464 C470 0.949 . S
C465 H460 0.950 . S
C465 C467 1.327 . S
C465 C471 1.429 . S
C466 C458 1.574 . S
C466 H461 0.949 . S
C466 C472 1.368 . S
C467 C451 1.349 . S
C467 H459 0.950 . S
C467 C465 1.327 . S
C468 C456 1.349 . S
C468 H462 0.950 . S
C468 C469 1.327 . S
C469 H463 0.950 . S
C469 C468 1.327 . S
C469 C473 1.429 . S
C470 C453 1.574 . S
C470 H464 0.949 . S
C470 C474 1.368 . S
C471 C452 1.429 . S
C471 C465 1.429 . S
C471 C472 1.523 . S
C472 C453 1.368 . S
C472 C466 1.368 . S
C472 C471 1.523 . S
C473 C457 1.429 . S
C473 C469 1.429 . S
C473 C474 1.523 . S
C474 C458 1.368 . S
C474 C470 1.368 . S
C474 C473 1.523 . S
H475 C450 0.950 . S
H476 C452 0.950 . S
H477 C453 0.949 . S
H478 C455 0.950 . S
H479 C457 0.950 . S
C480 C481 1.349 . S
C480 C482 1.327 . S
C480 H505 0.950 . S
C481 C480 1.349 . S
C481 C497 1.349 . S
C482 C480 1.327 . S
C482 C501 1.429 . S
C482 H506 0.950 . S
C483 C500 1.574 . S
C483 C502 1.368 . S
C483 H507 0.949 . S
H484 C488 0.949 . S
C485 C486 1.349 . S
C485 C487 1.327 . S
C485 H508 0.950 . S
C486 C485 1.349 . S
C486 C498 1.349 . S
C487 C485 1.327 . S
C487 C503 1.429 . S
C487 H509 0.950 . S
C488 H484 0.949 . S
C488 C496 1.574 . S
C488 C504 1.368 . S
H489 C497 0.950 . S
H490 C495 0.950 . S
H491 C496 0.949 . S
H492 C498 0.950 . S
H493 C499 0.950 . S
H494 C500 0.949 . S
C495 H490 0.950 . S
C495 C497 1.327 . S
C495 C501 1.429 . S
C496 C488 1.574 . S
C496 H491 0.949 . S
C496 C502 1.368 . S
C497 C481 1.349 . S
C497 H489 0.950 . S
C497 C495 1.327 . S
C498 C486 1.349 . S
C498 H492 0.950 . S
C498 C499 1.327 . S
C499 H493 0.950 . S
C499 C498 1.327 . S
C499 C503 1.429 . S
C500 C483 1.574 . S
C500 H494 0.949 . S
C500 C504 1.368 . S
C501 C482 1.429 . S
C501 C495 1.429 . S
C501 C502 1.523 . S
C502 C483 1.368 . S
C502 C496 1.368 . S
C502 C501 1.523 . S
C503 C487 1.429 . S
C503 C499 1.429 . S
C503 C504 1.523 . S
C504 C488 1.368 . S
C504 C500 1.368 . S
C504 C503 1.523 . S
H505 C480 0.950 . S
H506 C482 0.950 . S
H507 C483 0.949 . S
H508 C485 0.950 . S
H509 C487 0.950 . S
C510 C511 1.349 . S
C510 C512 1.327 . S
C510 H535 0.950 . S
C511 C510 1.349 . S
C511 C527 1.349 . S
C512 C510 1.327 . S
C512 C531 1.429 . S
C512 H536 0.950 . S
C513 C530 1.574 . S
C513 C532 1.368 . S
C513 H537 0.949 . S
H514 C518 0.949 . S
C515 C516 1.349 . S
C515 C517 1.327 . S
C515 H538 0.950 . S
C516 C515 1.349 . S
C516 C528 1.349 . S
C517 C515 1.327 . S
C517 C533 1.429 . S
C517 H539 0.950 . S
C518 H514 0.949 . S
C518 C526 1.574 . S
C518 C534 1.368 . S
H519 C527 0.950 . S
H520 C525 0.950 . S
H521 C526 0.949 . S
H522 C528 0.950 . S
H523 C529 0.950 . S
H524 C530 0.949 . S
C525 H520 0.950 . S
C525 C527 1.327 . S
C525 C531 1.429 . S
C526 C518 1.574 . S
C526 H521 0.949 . S
C526 C532 1.368 . S
C527 C511 1.349 . S
C527 H519 0.950 . S
C527 C525 1.327 . S
C528 C516 1.349 . S
C528 H522 0.950 . S
C528 C529 1.327 . S
C529 H523 0.950 . S
C529 C528 1.327 . S
C529 C533 1.429 . S
C530 C513 1.574 . S
C530 H524 0.949 . S
C530 C534 1.368 . S
C531 C512 1.429 . S
C531 C525 1.429 . S
C531 C532 1.523 . S
C532 C513 1.368 . S
C532 C526 1.368 . S
C532 C531 1.523 . S
C533 C517 1.429 . S
C533 C529 1.429 . S
C533 C534 1.523 . S
C534 C518 1.368 . S
C534 C530 1.368 . S
C534 C533 1.523 . S
H535 C510 0.950 . S
H536 C512 0.950 . S
H537 C513 0.949 . S
H538 C515 0.950 . S
H539 C517 0.950 . S
C540 C541 1.347 1_545 S
C540 C542 1.327 . S
C540 H565 0.950 1_545 S
C541 C540 1.347 1_565 S
C541 C557 1.347 1_565 S
C542 C540 1.327 . S
C542 C561 1.429 . S
C542 H566 0.950 . S
C543 C560 1.574 . S
C543 C562 1.368 . S
C543 H567 0.949 . S
H544 C548 0.949 . S
C545 C546 1.349 . S
C545 C547 1.327 . S
C545 H568 0.950 . S
C546 C545 1.349 . S
C546 C558 1.349 . S
C547 C545 1.327 . S
C547 C563 1.429 . S
C547 H569 0.950 . S
C548 H544 0.949 . S
C548 C556 1.574 . S
C548 C564 1.368 . S
H549 C557 0.950 . S
H550 C555 0.950 . S
H551 C556 0.949 . S
H552 C558 0.950 . S
H553 C559 0.950 . S
H554 C560 0.949 . S
C555 H550 0.950 . S
C555 C557 1.327 . S
C555 C561 1.429 . S
C556 C548 1.574 . S
C556 H551 0.949 . S
C556 C562 1.368 . S
C557 C541 1.347 1_545 S
C557 H549 0.950 . S
C557 C555 1.327 . S
C558 C546 1.349 . S
C558 H552 0.950 . S
C558 C559 1.327 . S
C559 H553 0.950 . S
C559 C558 1.327 . S
C559 C563 1.429 . S
C560 C543 1.574 . S
C560 H554 0.949 . S
C560 C564 1.368 . S
C561 C542 1.429 . S
C561 C555 1.429 . S
C561 C562 1.523 . S
C562 C543 1.368 . S
C562 C556 1.368 . S
C562 C561 1.523 . S
C563 C547 1.429 . S
C563 C559 1.429 . S
C563 C564 1.523 . S
C564 C548 1.368 . S
C564 C560 1.368 . S
C564 C563 1.523 . S
H565 C540 0.950 1_565 S
H566 C542 0.950 . S
H567 C543 0.949 . S
H568 C545 0.950 . S
H569 C547 0.950 . S
C570 C571 1.349 . S
C570 C572 1.326 . S
C570 H595 0.950 . S
C571 C570 1.349 . S
C571 C587 1.349 . S
C572 C570 1.326 . S
C572 C591 1.430 1_455 S
C572 H596 0.949 1_455 S
C573 C590 1.574 . S
C573 C592 1.368 . S
C573 H597 0.949 . S
H574 C578 0.949 . S
C575 C576 1.349 . S
C575 C577 1.328 . S
C575 H598 0.950 . S
C576 C575 1.349 . S
C576 C588 1.349 . S
C577 C575 1.328 . S
C577 C593 1.429 1_565 S
C577 H599 0.949 1_565 S
C578 H574 0.949 . S
C578 C586 1.574 . S
C578 C594 1.368 . S
H579 C587 0.950 . S
H580 C585 0.950 . S
H581 C586 0.949 . S
H582 C588 0.950 . S
H583 C589 0.950 . S
H584 C590 0.949 . S
C585 H580 0.950 . S
C585 C587 1.327 1_655 S
C585 C591 1.429 . S
C586 C578 1.574 . S
C586 H581 0.949 . S
C586 C592 1.368 . S
C587 C571 1.349 . S
C587 H579 0.950 . S
C587 C585 1.327 1_455 S
C588 C576 1.349 . S
C588 H582 0.950 . S
C588 C589 1.327 . S
C589 H583 0.950 . S
C589 C588 1.327 . S
C589 C593 1.429 1_565 S
C590 C573 1.574 . S
C590 H584 0.949 . S
C590 C594 1.368 . S
C591 C572 1.430 1_655 S
C591 C585 1.429 . S
C591 C592 1.523 . S
C592 C573 1.368 . S
C592 C586 1.368 . S
C592 C591 1.523 . S
C593 C577 1.429 1_545 S
C593 C589 1.429 1_545 S
C593 C594 1.523 . S
C594 C578 1.368 . S
C594 C590 1.368 . S
C594 C593 1.523 . S
H595 C570 0.950 . S
H596 C572 0.949 1_655 S
H597 C573 0.949 . S
H598 C575 0.950 . S
H599 C577 0.949 1_545 S
C600 C601 1.349 . S
C600 C602 1.327 . S
C600 H625 0.950 . S
C601 C600 1.349 . S
C601 C617 1.349 . S
C602 C600 1.327 . S
C602 C621 1.429 . S
C602 H626 0.950 . S
C603 C620 1.574 . S
C603 C622 1.368 . S
C603 H627 0.949 . S
H604 C608 0.949 . S
C605 C606 1.349 . S
C605 C607 1.327 . S
C605 H628 0.950 . S
C606 C605 1.349 . S
C606 C618 1.349 . S
C607 C605 1.327 . S
C607 C623 1.429 . S
C607 H629 0.950 . S
C608 H604 0.949 . S
C608 C616 1.574 . S
C608 C624 1.368 . S
H609 C617 0.950 . S
H610 C615 0.950 . S
H611 C616 0.949 . S
H612 C618 0.950 . S
H613 C619 0.950 . S
H614 C620 0.949 . S
C615 H610 0.950 . S
C615 C617 1.327 . S
C615 C621 1.429 . S
C616 C608 1.574 . S
C616 H611 0.949 . S
C616 C622 1.368 . S
C617 C601 1.349 . S
C617 H609 0.950 . S
C617 C615 1.327 . S
C618 C606 1.349 . S
C618 H612 0.950 . S
C618 C619 1.327 . S
C619 H613 0.950 . S
C619 C618 1.327 . S
C619 C623 1.429 . S
C620 C603 1.574 . S
C620 H614 0.949 . S
C620 C624 1.368 . S
C621 C602 1.429 . S
C621 C615 1.429 . S
C621 C622 1.523 1_455 S
C622 C603 1.368 . S
C622 C616 1.368 . S
C622 C621 1.523 1_655 S
C623 C607 1.429 . S
C623 C619 1.429 . S
C623 C624 1.523 . S
C624 C608 1.368 . S
C624 C620 1.368 . S
C624 C623 1.523 . S
H625 C600 0.950 . S
H626 C602 0.950 . S
H627 C603 0.949 . S
H628 C605 0.950 . S
H629 C607 0.950 . S
C630 C631 1.349 . S
C630 C632 1.327 . S
C630 H655 0.950 . S
C631 C630 1.349 . S
C631 C647 1.349 . S
C632 C630 1.327 . S
C632 C651 1.429 . S
C632 H656 0.950 . S
C633 C650 1.574 . S
C633 C652 1.368 . S
C633 H657 0.949 . S
H634 C638 0.949 . S
C635 C636 1.349 . S
C635 C637 1.327 . S
C635 H658 0.950 . S
C636 C635 1.349 . S
C636 C648 1.349 . S
C637 C635 1.327 . S
C637 C653 1.429 . S
C637 H659 0.950 . S
C638 H634 0.949 . S
C638 C646 1.574 . S
C638 C654 1.368 . S
H639 C647 0.950 . S
H640 C645 0.950 . S
H641 C646 0.949 . S
H642 C648 0.950 . S
H643 C649 0.950 . S
H644 C650 0.949 . S
C645 H640 0.950 . S
C645 C647 1.327 . S
C645 C651 1.429 . S
C646 C638 1.574 . S
C646 H641 0.949 . S
C646 C652 1.368 . S
C647 C631 1.349 . S
C647 H639 0.950 . S
C647 C645 1.327 . S
C648 C636 1.349 . S
C648 H642 0.950 . S
C648 C649 1.327 . S
C649 H643 0.950 . S
C649 C648 1.327 . S
C649 C653 1.429 . S
C650 C633 1.574 . S
C650 H644 0.949 . S
C650 C654 1.368 . S
C651 C632 1.429 . S
C651 C645 1.429 . S
C651 C652 1.523 . S
C652 C633 1.368 . S
C652 C646 1.368 . S
C652 C651 1.523 . S
C653 C637 1.429 . S
C653 C649 1.429 . S
C653 C654 1.523 . S
C654 C638 1.368 . S
C654 C650 1.368 . S
C654 C653 1.523 . S
H655 C630 0.950 . S
H656 C632 0.950 . S
H657 C633 0.949 . S
H658 C635 0.950 . S
H659 C637 0.950 . S
C660 C661 1.349 . S
C660 C662 1.327 . S
C660 H685 0.950 . S
C661 C660 1.349 . S
C661 C677 1.349 . S
C662 C660 1.327 . S
C662 C681 1.429 . S
C662 H686 0.950 . S
C663 C680 1.574 . S
C663 C682 1.368 . S
C663 H687 0.949 . S
H664 C668 0.949 . S
C665 C666 1.349 . S
C665 C667 1.327 . S
C665 H688 0.950 . S
C666 C665 1.349 . S
C666 C678 1.349 . S
C667 C665 1.327 . S
C667 C683 1.429 . S
C667 H689 0.950 . S
C668 H664 0.949 . S
C668 C676 1.574 . S
C668 C684 1.368 . S
H669 C677 0.950 . S
H670 C675 0.950 . S
H671 C676 0.949 . S
H672 C678 0.950 . S
H673 C679 0.950 . S
H674 C680 0.949 . S
C675 H670 0.950 . S
C675 C677 1.327 . S
C675 C681 1.429 . S
C676 C668 1.574 . S
C676 H671 0.949 . S
C676 C682 1.368 . S
C677 C661 1.349 . S
C677 H669 0.950 . S
C677 C675 1.327 . S
C678 C666 1.349 . S
C678 H672 0.950 . S
C678 C679 1.327 . S
C679 H673 0.950 . S
C679 C678 1.327 . S
C679 C683 1.429 . S
C680 C663 1.574 . S
C680 H674 0.949 . S
C680 C684 1.368 . S
C681 C662 1.429 . S
C681 C675 1.429 . S
C681 C682 1.523 . S
C682 C663 1.368 . S
C682 C676 1.368 . S
C682 C681 1.523 . S
C683 C667 1.429 . S
C683 C679 1.429 . S
C683 C684 1.523 . S
C684 C668 1.368 . S
C684 C680 1.368 . S
C684 C683 1.523 . S
H685 C660 0.950 . S
H686 C662 0.950 . S
H687 C663 0.949 . S
H688 C665 0.950 . S
H689 C667 0.950 . S
C690 C691 1.349 . S
C690 C692 1.327 . S
C690 H715 0.950 . S
C691 C690 1.349 . S
C691 C707 1.349 . S
C692 C690 1.327 . S
C692 C711 1.429 . S
C692 H716 0.950 . S
C693 C710 1.574 . S
C693 C712 1.368 . S
C693 H717 0.949 . S
H694 C698 0.949 . S
C695 C696 1.349 . S
C695 C697 1.327 . S
C695 H718 0.950 . S
C696 C695 1.349 . S
C696 C708 1.349 . S
C697 C695 1.327 . S
C697 C713 1.429 . S
C697 H719 0.950 . S
C698 H694 0.949 . S
C698 C706 1.574 . S
C698 C714 1.368 . S
H699 C707 0.950 . S
H700 C705 0.950 . S
H701 C706 0.949 . S
H702 C708 0.950 . S
H703 C709 0.950 . S
H704 C710 0.949 . S
C705 H700 0.950 . S
C705 C707 1.327 . S
C705 C711 1.429 . S
C706 C698 1.574 . S
C706 H701 0.949 . S
C706 C712 1.368 . S
C707 C691 1.349 . S
C707 H699 0.950 . S
C707 C705 1.327 . S
C708 C696 1.349 . S
C708 H702 0.950 . S
C708 C709 1.327 . S
C709 H703 0.950 . S
C709 C708 1.327 . S
C709 C713 1.429 . S
C710 C693 1.574 . S
C710 H704 0.949 . S
C710 C714 1.368 . S
C711 C692 1.429 . S
C711 C705 1.429 . S
C711 C712 1.523 . S
C712 C693 1.368 . S
C712 C706 1.368 . S
C712 C711 1.523 . S
C713 C697 1.429 . S
C713 C709 1.429 . S
C713 C714 1.523 . S
C714 C698 1.368 . S
C714 C710 1.368 . S
C714 C713 1.523 . S
H715 C690 0.950 . S
H716 C692 0.950 . S
H717 C693 0.949 . S
H718 C695 0.950 . S
H719 C697 0.950 . S
C720 C721 1.349 . S
C720 C722 1.327 . S
C720 H745 0.950 . S
C721 C720 1.349 . S
C721 C737 1.349 . S
C722 C720 1.327 . S
C722 C741 1.429 . S
C722 H746 0.950 . S
C723 C740 1.574 . S
C723 C742 1.368 . S
C723 H747 0.949 . S
H724 C728 0.949 . S
C725 C726 1.349 . S
C725 C727 1.327 . S
C725 H748 0.950 . S
C726 C725 1.349 . S
C726 C738 1.349 . S
C727 C725 1.327 . S
C727 C743 1.429 . S
C727 H749 0.950 . S
C728 H724 0.949 . S
C728 C736 1.574 . S
C728 C744 1.368 . S
H729 C737 0.950 . S
H730 C735 0.950 . S
H731 C736 0.949 . S
H732 C738 0.950 . S
H733 C739 0.950 . S
H734 C740 0.949 . S
C735 H730 0.950 . S
C735 C737 1.327 . S
C735 C741 1.429 . S
C736 C728 1.574 . S
C736 H731 0.949 . S
C736 C742 1.368 . S
C737 C721 1.349 . S
C737 H729 0.950 . S
C737 C735 1.327 . S
C738 C726 1.349 . S
C738 H732 0.950 . S
C738 C739 1.327 . S
C739 H733 0.950 . S
C739 C738 1.327 . S
C739 C743 1.429 . S
C740 C723 1.574 . S
C740 H734 0.949 . S
C740 C744 1.368 . S
C741 C722 1.429 . S
C741 C735 1.429 . S
C741 C742 1.523 . S
C742 C723 1.368 . S
C742 C736 1.368 . S
C742 C741 1.523 . S
C743 C727 1.429 . S
C743 C739 1.429 . S
C743 C744 1.523 . S
C744 C728 1.368 . S
C744 C740 1.368 . S
C744 C743 1.523 . S
H745 C720 0.950 . S
H746 C722 0.950 . S
H747 C723 0.949 . S
H748 C725 0.950 . S
H749 C727 0.950 . S
C750 C751 1.349 . S
C750 C752 1.327 . S
C750 H775 0.950 . S
C751 C750 1.349 . S
C751 C767 1.349 . S
C752 C750 1.327 . S
C752 C771 1.429 . S
C752 H776 0.950 . S
C753 C770 1.574 . S
C753 C772 1.368 . S
C753 H777 0.949 . S
H754 C758 0.949 . S
C755 C756 1.349 . S
C755 C757 1.327 . S
C755 H778 0.950 . S
C756 C755 1.349 . S
C756 C768 1.349 . S
C757 C755 1.327 . S
C757 C773 1.429 . S
C757 H779 0.950 . S
C758 H754 0.949 . S
C758 C766 1.574 . S
C758 C774 1.368 . S
H759 C767 0.950 . S
H760 C765 0.950 . S
H761 C766 0.949 . S
H762 C768 0.950 . S
H763 C769 0.950 . S
H764 C770 0.949 . S
C765 H760 0.950 . S
C765 C767 1.327 . S
C765 C771 1.429 . S
C766 C758 1.574 . S
C766 H761 0.949 . S
C766 C772 1.368 . S
C767 C751 1.349 . S
C767 H759 0.950 . S
C767 C765 1.327 . S
C768 C756 1.349 . S
C768 H762 0.950 . S
C768 C769 1.327 . S
C769 H763 0.950 . S
C769 C768 1.327 . S
C769 C773 1.429 . S
C770 C753 1.574 . S
C770 H764 0.949 . S
C770 C774 1.368 . S
C771 C752 1.429 . S
C771 C765 1.429 . S
C771 C772 1.523 . S
C772 C753 1.368 . S
C772 C766 1.368 . S
C772 C771 1.523 . S
C773 C757 1.429 . S
C773 C769 1.429 . S
C773 C774 1.523 . S
C774 C758 1.368 . S
C774 C770 1.368 . S
C774 C773 1.523 . S
H775 C750 0.950 . S
H776 C752 0.950 . S
H777 C753 0.949 . S
H778 C755 0.950 . S
H779 C757 0.950 . S
C780 C781 1.349 . S
C780 C782 1.327 . S
C780 H805 0.950 . S
C781 C780 1.349 . S
C781 C797 1.349 . S
C782 C780 1.327 . S
C782 C801 1.429 . S
C782 H806 0.950 . S
C783 C800 1.574 . S
C783 C802 1.368 . S
C783 H807 0.949 . S
H784 C788 0.949 . S
C785 C786 1.349 . S
C785 C787 1.327 . S
C785 H808 0.950 . S
C786 C785 1.349 . S
C786 C798 1.349 . S
C787 C785 1.327 . S
C787 C803 1.429 . S
C787 H809 0.950 . S
C788 H784 0.949 . S
C788 C796 1.574 . S
C788 C804 1.368 . S
H789 C797 0.950 . S
H790 C795 0.950 . S
H791 C796 0.949 . S
H792 C798 0.950 . S
H793 C799 0.950 . S
H794 C800 0.949 . S
C795 H790 0.950 . S
C795 C797 1.327 . S
C795 C801 1.429 . S
C796 C788 1.574 . S
C796 H791 0.949 . S
C796 C802 1.368 . S
C797 C781 1.349 . S
C797 H789 0.950 . S
C797 C795 1.327 . S
C798 C786 1.349 . S
C798 H792 0.950 . S
C798 C799 1.327 . S
C799 H793 0.950 . S
C799 C798 1.327 . S
C799 C803 1.429 . S
C800 C783 1.574 . S
C800 H794 0.949 . S
C800 C804 1.368 . S
C801 C782 1.429 . S
C801 C795 1.429 . S
C801 C802 1.523 . S
C802 C783 1.368 . S
C802 C796 1.368 . S
C802 C801 1.523 . S
C803 C787 1.429 . S
C803 C799 1.429 . S
C803 C804 1.523 . S
C804 C788 1.368 . S
C804 C800 1.368 . S
C804 C803 1.523 . S
H805 C780 0.950 . S
H806 C782 0.950 . S
H807 C783 0.949 . S
H808 C785 0.950 . S
H809 C787 0.950 . S
C810 C811 1.347 1_455 S
C810 C812 1.327 . S
C810 H835 0.950 . S
C811 C810 1.347 1_655 S
C811 C827 1.347 1_655 S
C812 C810 1.327 . S
C812 C831 1.429 . S
C812 H836 0.950 . S
C813 C830 1.574 . S
C813 C832 1.368 . S
C813 H837 0.949 . S
H814 C818 0.949 . S
C815 C816 1.349 . S
C815 C817 1.327 . S
C815 H838 0.950 . S
C816 C815 1.349 . S
C816 C828 1.349 . S
C817 C815 1.327 . S
C817 C833 1.429 . S
C817 H839 0.950 . S
C818 H814 0.949 . S
C818 C826 1.574 . S
C818 C834 1.368 . S
H819 C827 0.950 1_655 S
H820 C825 0.950 . S
H821 C826 0.949 . S
H822 C828 0.950 . S
H823 C829 0.950 . S
H824 C830 0.949 . S
C825 H820 0.950 . S
C825 C827 1.327 . S
C825 C831 1.429 . S
C826 C818 1.574 . S
C826 H821 0.949 . S
C826 C832 1.368 . S
C827 C811 1.347 1_455 S
C827 H819 0.950 1_455 S
C827 C825 1.327 . S
C828 C816 1.349 . S
C828 H822 0.950 . S
C828 C829 1.327 . S
C829 H823 0.950 . S
C829 C828 1.327 . S
C829 C833 1.429 . S
C830 C813 1.574 . S
C830 H824 0.949 . S
C830 C834 1.368 . S
C831 C812 1.429 . S
C831 C825 1.429 . S
C831 C832 1.523 . S
C832 C813 1.368 . S
C832 C826 1.368 . S
C832 C831 1.523 . S
C833 C817 1.429 . S
C833 C829 1.429 . S
C833 C834 1.523 . S
C834 C818 1.368 . S
C834 C830 1.368 . S
C834 C833 1.523 . S
H835 C810 0.950 . S
H836 C812 0.950 . S
H837 C813 0.949 . S
H838 C815 0.950 . S
H839 C817 0.950 . S
C840 C841 1.349 . S
C840 C842 1.327 . S
C840 H865 0.950 . S
C841 C840 1.349 . S
C841 C857 1.349 . S
C842 C840 1.327 . S
C842 C861 1.429 . S
C842 H866 0.950 . S
C843 C860 1.574 . S
C843 C862 1.368 . S
C843 H867 0.949 . S
H844 C848 0.949 . S
C845 C846 1.349 . S
C845 C847 1.327 . S
C845 H868 0.950 . S
C846 C845 1.349 . S
C846 C858 1.349 . S
C847 C845 1.327 . S
C847 C863 1.429 . S
C847 H869 0.950 . S
C848 H844 0.949 . S
C848 C856 1.574 . S
C848 C864 1.368 . S
H849 C857 0.950 . S
H850 C855 0.950 . S
H851 C856 0.949 . S
H852 C858 0.950 . S
H853 C859 0.950 . S
H854 C860 0.949 . S
C855 H850 0.950 . S
C855 C857 1.327 . S
C855 C861 1.429 . S
C856 C848 1.574 . S
C856 H851 0.949 . S
C856 C862 1.368 . S
C857 C841 1.349 . S
C857 H849 0.950 . S
C857 C855 1.327 . S
C858 C846 1.349 . S
C858 H852 0.950 . S
C858 C859 1.327 . S
C859 H853 0.950 . S
C859 C858 1.327 . S
C859 C863 1.429 . S
C860 C843 1.574 . S
C860 H854 0.949 . S
C860 C864 1.368 . S
C861 C842 1.429 . S
C861 C855 1.429 . S
C861 C862 1.523 . S
C862 C843 1.368 . S
C862 C856 1.368 . S
C862 C861 1.523 . S
C863 C847 1.429 . S
C863 C859 1.429 . S
C863 C864 1.523 1_545 S
C864 C848 1.368 . S
C864 C860 1.368 . S
C864 C863 1.523 1_565 S
H865 C840 0.950 . S
H866 C842 0.950 . S
H867 C843 0.949 . S
H868 C845 0.950 . S
H869 C847 0.950 . S
C870 C871 1.349 . S
C870 C872 1.327 . S
C870 H895 0.950 . S
C871 C870 1.349 . S
C871 C887 1.349 . S
C872 C870 1.327 . S
C872 C891 1.429 1_545 S
C872 H896 0.950 . S
C873 C890 1.574 . S
C873 C892 1.368 . S
C873 H897 0.949 . S
H874 C878 0.949 . S
C875 C876 1.349 . S
C875 C877 1.327 1_655 S
C875 H898 0.950 . S
C876 C875 1.349 . S
C876 C888 1.349 . S
C877 C875 1.327 1_455 S
C877 C893 1.429 . S
C877 H899 0.950 . S
C878 H874 0.949 . S
C878 C886 1.574 . S
C878 C894 1.368 . S
H879 C887 0.950 . S
H880 C885 0.950 . S
H881 C886 0.949 . S
H882 C888 0.950 . S
H883 C889 0.950 . S
H884 C890 0.949 . S
C885 H880 0.950 . S
C885 C887 1.327 1_565 S
C885 C891 1.429 . S
C886 C878 1.574 . S
C886 H881 0.949 . S
C886 C892 1.368 . S
C887 C871 1.349 . S
C887 H879 0.950 . S
C887 C885 1.327 1_545 S
C888 C876 1.349 . S
C888 H882 0.950 . S
C888 C889 1.327 . S
C889 H883 0.950 . S
C889 C888 1.327 . S
C889 C893 1.429 1_655 S
C890 C873 1.574 . S
C890 H884 0.949 . S
C890 C894 1.368 . S
C891 C872 1.429 1_565 S
C891 C885 1.429 . S
C891 C892 1.523 . S
C892 C873 1.368 . S
C892 C886 1.368 . S
C892 C891 1.523 . S
C893 C877 1.429 . S
C893 C889 1.429 1_455 S
C893 C894 1.523 . S
C894 C878 1.368 . S
C894 C890 1.368 . S
C894 C893 1.523 . S
H895 C870 0.950 . S
H896 C872 0.950 . S
H897 C873 0.949 . S
H898 C875 0.950 . S
H899 C877 0.950 . S
C900 C901 1.349 1_565 S
C900 C902 1.327 . S
C900 H925 0.950 . S
C901 C900 1.349 1_545 S
C901 C917 1.349 . S
C902 C900 1.327 . S
C902 C921 1.429 1_565 S
C902 H926 0.950 . S
C903 C920 1.574 1_554 S
C903 C922 1.368 . S
C903 H927 0.949 . S
H904 C908 0.949 . S
C905 C906 1.349 . S
C905 C907 1.327 . S
C905 H928 0.950 . S
C906 C905 1.349 . S
C906 C918 1.349 1_545 S
C907 C905 1.327 . S
C907 C923 1.429 . S
C907 H929 0.950 . S
C908 H904 0.949 . S
C908 C916 1.574 1_556 S
C908 C924 1.368 1_565 S
H909 C917 0.950 . S
H910 C915 0.950 . S
H911 C916 0.949 . S
H912 C918 0.950 . S
H913 C919 0.950 . S
H914 C920 0.949 . S
C915 H910 0.950 . S
C915 C917 1.327 . S
C915 C921 1.429 . S
C916 C908 1.574 1_554 S
C916 H911 0.949 . S
C916 C922 1.368 1_565 S
C917 C901 1.349 . S
C917 H909 0.950 . S
C917 C915 1.327 . S
C918 C906 1.349 1_565 S
C918 H912 0.950 . S
C918 C919 1.327 . S
C919 H913 0.950 . S
C919 C918 1.327 . S
C919 C923 1.429 1_565 S
C920 C903 1.574 1_556 S
C920 H914 0.949 . S
C920 C924 1.368 . S
C921 C902 1.429 1_545 S
C921 C915 1.429 . S
C921 C922 1.523 . S
C922 C903 1.368 . S
C922 C916 1.368 1_545 S
C922 C921 1.523 . S
C923 C907 1.429 . S
C923 C919 1.429 1_545 S
C923 C924 1.523 . S
C924 C908 1.368 1_545 S
C924 C920 1.368 . S
C924 C923 1.523 . S
H925 C900 0.950 . S
H926 C902 0.950 . S
H927 C903 0.949 . S
H928 C905 0.950 . S
H929 C907 0.950 . S
C930 C931 1.349 . S
C930 C932 1.327 . S
C930 H955 0.950 . S
C931 C930 1.349 . S
C931 C947 1.349 . S
C932 C930 1.327 . S
C932 C951 1.429 . S
C932 H956 0.950 . S
C933 C950 1.574 1_556 S
C933 C952 1.368 . S
C933 H957 0.949 . S
H934 C938 0.949 . S
C935 C936 1.349 . S
C935 C937 1.327 . S
C935 H958 0.950 . S
C936 C935 1.349 . S
C936 C948 1.349 . S
C937 C935 1.327 . S
C937 C953 1.429 . S
C937 H959 0.950 . S
C938 H934 0.949 . S
C938 C946 1.574 1_554 S
C938 C954 1.368 . S
H939 C947 0.950 . S
H940 C945 0.950 . S
H941 C946 0.949 . S
H942 C948 0.950 . S
H943 C949 0.950 . S
H944 C950 0.949 . S
C945 H940 0.950 . S
C945 C947 1.327 . S
C945 C951 1.429 . S
C946 C938 1.574 1_556 S
C946 H941 0.949 . S
C946 C952 1.368 . S
C947 C931 1.349 . S
C947 H939 0.950 . S
C947 C945 1.327 . S
C948 C936 1.349 . S
C948 H942 0.950 . S
C948 C949 1.327 . S
C949 H943 0.950 . S
C949 C948 1.327 . S
C949 C953 1.429 . S
C950 C933 1.574 1_554 S
C950 H944 0.949 . S
C950 C954 1.368 . S
C951 C932 1.429 . S
C951 C945 1.429 . S
C951 C952 1.523 . S
C952 C933 1.368 . S
C952 C946 1.368 . S
C952 C951 1.523 . S
C953 C937 1.429 . S
C953 C949 1.429 . S
C953 C954 1.523 . S
C954 C938 1.368 . S
C954 C950 1.368 . S
C954 C953 1.523 . S
H955 C930 0.950 . S
H956 C932 0.950 . S
H957 C933 0.949 . S
H958 C935 0.950 . S
H959 C937 0.950 . S
C960 C961 1.349 . S
C960 C962 1.327 . S
C960 H985 0.950 . S
C961 C960 1.349 . S
C961 C977 1.349 . S
C962 C960 1.327 . S
C962 C981 1.429 . S
C962 H986 0.950 . S
C963 C980 1.574 1_556 S
C963 C982 1.368 . S
C963 H987 0.949 . S
H964 C968 0.949 . S
C965 C966 1.349 . S
C965 C967 1.327 . S
C965 H988 0.950 . S
C966 C965 1.349 . S
C966 C978 1.349 . S
C967 C965 1.327 . S
C967 C983 1.429 . S
C967 H989 0.950 . S
C968 H964 0.949 . S
C968 C976 1.574 1_554 S
C968 C984 1.368 . S
H969 C977 0.950 . S
H970 C975 0.950 . S
H971 C976 0.949 . S
H972 C978 0.950 . S
H973 C979 0.950 . S
H974 C980 0.949 . S
C975 H970 0.950 . S
C975 C977 1.327 . S
C975 C981 1.429 . S
C976 C968 1.574 1_556 S
C976 H971 0.949 . S
C976 C982 1.368 . S
C977 C961 1.349 . S
C977 H969 0.950 . S
C977 C975 1.327 . S
C978 C966 1.349 . S
C978 H972 0.950 . S
C978 C979 1.327 . S
C979 H973 0.950 . S
C979 C978 1.327 . S
C979 C983 1.429 . S
C980 C963 1.574 1_554 S
C980 H974 0.949 . S
C980 C984 1.368 . S
C981 C962 1.429 . S
C981 C975 1.429 . S
C981 C982 1.523 . S
C982 C963 1.368 . S
C982 C976 1.368 . S
C982 C981 1.523 . S
C983 C967 1.429 . S
C983 C979 1.429 . S
C983 C984 1.523 . S
C984 C968 1.368 . S
C984 C980 1.368 . S
C984 C983 1.523 . S
H985 C960 0.950 . S
H986 C962 0.950 . S
H987 C963 0.949 . S
H988 C965 0.950 . S
H989 C967 0.950 . S
C990 C991 1.349 . S
C990 C992 1.327 . S
C990 H1015 0.950 . S
C991 C990 1.349 . S
C991 C1007 1.349 . S
C992 C990 1.327 . S
C992 C1011 1.429 . S
C992 H1016 0.950 . S
C993 C1010 1.574 . S
C993 C1012 1.368 . S
C993 H1017 0.949 . S
H994 C998 0.949 . S
C995 C996 1.349 . S
C995 C997 1.327 . S
C995 H1018 0.950 . S
C996 C995 1.349 . S
C996 C1008 1.349 . S
C997 C995 1.327 . S
C997 C1013 1.429 . S
C997 H1019 0.950 . S
C998 H994 0.949 . S
C998 C1006 1.574 . S
C998 C1014 1.368 . S
H999 C1007 0.950 . S
H1000 C1005 0.950 . S
H1001 C1006 0.949 . S
H1002 C1008 0.950 . S
H1003 C1009 0.950 . S
H1004 C1010 0.949 . S
C1005 H1000 0.950 . S
C1005 C1007 1.327 . S
C1005 C1011 1.429 . S
C1006 C998 1.574 . S
C1006 H1001 0.949 . S
C1006 C1012 1.368 . S
C1007 C991 1.349 . S
C1007 H999 0.950 . S
C1007 C1005 1.327 . S
C1008 C996 1.349 . S
C1008 H1002 0.950 . S
C1008 C1009 1.327 . S
C1009 H1003 0.950 . S
C1009 C1008 1.327 . S
C1009 C1013 1.429 . S
C1010 C993 1.574 . S
C1010 H1004 0.949 . S
C1010 C1014 1.368 . S
C1011 C992 1.429 . S
C1011 C1005 1.429 . S
C1011 C1012 1.523 . S
C1012 C993 1.368 . S
C1012 C1006 1.368 . S
C1012 C1011 1.523 . S
C1013 C997 1.429 . S
C1013 C1009 1.429 . S
C1013 C1014 1.523 . S
C1014 C998 1.368 . S
C1014 C1010 1.368 . S
C1014 C1013 1.523 . S
H1015 C990 0.950 . S
H1016 C992 0.950 . S
H1017 C993 0.949 . S
H1018 C995 0.950 . S
H1019 C997 0.950 . S
C1020 C1021 1.349 . S
C1020 C1022 1.327 . S
C1020 H1045 0.950 . S
C1021 C1020 1.349 . S
C1021 C1037 1.349 . S
C1022 C1020 1.327 . S
C1022 C1041 1.429 . S
C1022 H1046 0.950 . S
C1023 C1040 1.574 . S
C1023 C1042 1.368 . S
C1023 H1047 0.949 . S
H1024 C1028 0.949 . S
C1025 C1026 1.349 . S
C1025 C1027 1.327 . S
C1025 H1048 0.950 . S
C1026 C1025 1.349 . S
C1026 C1038 1.349 . S
C1027 C1025 1.327 . S
C1027 C1043 1.429 . S
C1027 H1049 0.950 . S
C1028 H1024 0.949 . S
C1028 C1036 1.574 . S
C1028 C1044 1.368 . S
H1029 C1037 0.950 . S
H1030 C1035 0.950 . S
H1031 C1036 0.949 . S
H1032 C1038 0.950 . S
H1033 C1039 0.950 . S
H1034 C1040 0.949 . S
C1035 H1030 0.950 . S
C1035 C1037 1.327 . S
C1035 C1041 1.429 . S
C1036 C1028 1.574 . S
C1036 H1031 0.949 . S
C1036 C1042 1.368 . S
C1037 C1021 1.349 . S
C1037 H1029 0.950 . S
C1037 C1035 1.327 . S
C1038 C1026 1.349 . S
C1038 H1032 0.950 . S
C1038 C1039 1.327 . S
C1039 H1033 0.950 . S
C1039 C1038 1.327 . S
C1039 C1043 1.429 . S
C1040 C1023 1.574 . S
C1040 H1034 0.949 . S
C1040 C1044 1.368 . S
C1041 C1022 1.429 . S
C1041 C1035 1.429 . S
C1041 C1042 1.523 . S
C1042 C1023 1.368 . S
C1042 C1036 1.368 . S
C1042 C1041 1.523 . S
C1043 C1027 1.429 . S
C1043 C1039 1.429 . S
C1043 C1044 1.523 . S
C1044 C1028 1.368 . S
C1044 C1040 1.368 . S
C1044 C1043 1.523 . S
H1045 C1020 0.950 . S
H1046 C1022 0.950 . S
H1047 C1023 0.949 . S
H1048 C1025 0.950 . S
H1049 C1027 0.950 . S
C1050 C1051 1.349 . S
C1050 C1052 1.327 . S
C1050 H1075 0.950 . S
C1051 C1050 1.349 . S
C1051 C1067 1.349 . S
C1052 C1050 1.327 . S
C1052 C1071 1.429 . S
C1052 H1076 0.950 . S
C1053 C1070 1.574 . S
C1053 C1072 1.368 . S
C1053 H1077 0.949 . S
H1054 C1058 0.949 . S
C1055 C1056 1.349 . S
C1055 C1057 1.327 . S
C1055 H1078 0.950 . S
C1056 C1055 1.349 . S
C1056 C1068 1.349 . S
C1057 C1055 1.327 . S
C1057 C1073 1.429 . S
C1057 H1079 0.950 . S
C1058 H1054 0.949 . S
C1058 C1066 1.574 . S
C1058 C1074 1.368 . S
H1059 C1067 0.950 . S
H1060 C1065 0.950 . S
H1061 C1066 0.949 . S
H1062 C1068 0.950 . S
H1063 C1069 0.950 . S
H1064 C1070 0.949 . S
C1065 H1060 0.950 . S
C1065 C1067 1.327 . S
C1065 C1071 1.429 . S
C1066 C1058 1.574 . S
C1066 H1061 0.949 . S
C1066 C1072 1.368 . S
C1067 C1051 1.349 . S
C1067 H1059 0.950 . S
C1067 C1065 1.327 . S
C1068 C1056 1.349 . S
C1068 H1062 0.950 . S
C1068 C1069 1.327 . S
C1069 H1063 0.950 . S
C1069 C1068 1.327 . S
C1069 C1073 1.429 . S
C1070 C1053 1.574 . S
C1070 H1064 0.949 . S
C1070 C1074 1.368 . S
C1071 C1052 1.429 . S
C1071 C1065 1.429 . S
C1071 C1072 1.523 . S
C1072 C1053 1.368 . S
C1072 C1066 1.368 . S
C1072 C1071 1.523 . S
C1073 C1057 1.429 . S
C1073 C1069 1.429 . S
C1073 C1074 1.523 . S
C1074 C1058 1.368 . S
C1074 C1070 1.368 . S
C1074 C1073 1.523 . S
H1075 C1050 0.950 . S
H1076 C1052 0.950 . S
H1077 C1053 0.949 . S
H1078 C1055 0.950 . S
H1079 C1057 0.950 . S
C1080 C1081 1.349 . S
C1080 C1082 1.327 . S
C1080 H1105 0.950 . S
C1081 C1080 1.349 . S
C1081 C1097 1.349 . S
C1082 C1080 1.327 . S
C1082 C1101 1.429 . S
C1082 H1106 0.950 . S
C1083 C1100 1.574 . S
C1083 C1102 1.368 . S
C1083 H1107 0.949 . S
H1084 C1088 0.949 . S
C1085 C1086 1.349 . S
C1085 C1087 1.327 . S
C1085 H1108 0.950 . S
C1086 C1085 1.349 . S
C1086 C1098 1.349 . S
C1087 C1085 1.327 . S
C1087 C1103 1.429 . S
C1087 H1109 0.950 . S
C1088 H1084 0.949 . S
C1088 C1096 1.574 . S
C1088 C1104 1.368 . S
H1089 C1097 0.950 . S
H1090 C1095 0.950 . S
H1091 C1096 0.949 . S
H1092 C1098 0.950 . S
H1093 C1099 0.950 . S
H1094 C1100 0.949 . S
C1095 H1090 0.950 . S
C1095 C1097 1.327 . S
C1095 C1101 1.429 . S
C1096 C1088 1.574 . S
C1096 H1091 0.949 . S
C1096 C1102 1.368 . S
C1097 C1081 1.349 . S
C1097 H1089 0.950 . S
C1097 C1095 1.327 . S
C1098 C1086 1.349 . S
C1098 H1092 0.950 . S
C1098 C1099 1.327 . S
C1099 H1093 0.950 . S
C1099 C1098 1.327 . S
C1099 C1103 1.429 . S
C1100 C1083 1.574 . S
C1100 H1094 0.949 . S
C1100 C1104 1.368 . S
C1101 C1082 1.429 . S
C1101 C1095 1.429 . S
C1101 C1102 1.523 . S
C1102 C1083 1.368 . S
C1102 C1096 1.368 . S
C1102 C1101 1.523 . S
C1103 C1087 1.429 . S
C1103 C1099 1.429 . S
C1103 C1104 1.523 . S
C1104 C1088 1.368 . S
C1104 C1100 1.368 . S
C1104 C1103 1.523 . S
H1105 C1080 0.950 . S
H1106 C1082 0.950 . S
H1107 C1083 0.949 . S
H1108 C1085 0.950 . S
H1109 C1087 0.950 . S
C1110 C1111 1.349 . S
C1110 C1112 1.327 . S
C1110 H1135 0.950 . S
C1111 C1110 1.349 . S
C1111 C1127 1.349 . S
C1112 C1110 1.327 . S
C1112 C1131 1.429 . S
C1112 H1136 0.950 . S
C1113 C1130 1.574 . S
C1113 C1132 1.368 . S
C1113 H1137 0.949 . S
H1114 C1118 0.949 . S
C1115 C1116 1.349 . S
C1115 C1117 1.327 . S
C1115 H1138 0.950 . S
C1116 C1115 1.349 . S
C1116 C1128 1.349 . S
C1117 C1115 1.327 . S
C1117 C1133 1.429 . S
C1117 H1139 0.950 . S
C1118 H1114 0.949 . S
C1118 C1126 1.574 . S
C1118 C1134 1.368 . S
H1119 C1127 0.950 . S
H1120 C1125 0.950 . S
H1121 C1126 0.949 . S
H1122 C1128 0.950 . S
H1123 C1129 0.950 . S
H1124 C1130 0.949 . S
C1125 H1120 0.950 . S
C1125 C1127 1.327 . S
C1125 C1131 1.429 . S
C1126 C1118 1.574 . S
C1126 H1121 0.949 . S
C1126 C1132 1.368 . S
C1127 C1111 1.349 . S
C1127 H1119 0.950 . S
C1127 C1125 1.327 . S
C1128 C1116 1.349 . S
C1128 H1122 0.950 . S
C1128 C1129 1.327 . S
C1129 H1123 0.950 . S
C1129 C1128 1.327 . S
C1129 C1133 1.429 . S
C1130 C1113 1.574 . S
C1130 H1124 0.949 . S
C1130 C1134 1.368 . S
C1131 C1112 1.429 . S
C1131 C1125 1.429 . S
C1131 C1132 1.523 . S
C1132 C1113 1.368 . S
C1132 C1126 1.368 . S
C1132 C1131 1.523 . S
C1133 C1117 1.429 . S
C1133 C1129 1.429 . S
C1133 C1134 1.523 . S
C1134 C1118 1.368 . S
C1134 C1130 1.368 . S
C1134 C1133 1.523 . S
H1135 C1110 0.950 . S
H1136 C1112 0.950 . S
H1137 C1113 0.949 . S
H1138 C1115 0.950 . S
H1139 C1117 0.950 . S
C1140 C1141 1.349 . S
C1140 C1142 1.327 . S
C1140 H1165 0.950 . S
C1141 C1140 1.349 . S
C1141 C1157 1.349 . S
C1142 C1140 1.327 . S
C1142 C1161 1.429 . S
C1142 H1166 0.950 . S
C1143 C1160 1.574 . S
C1143 C1162 1.368 . S
C1143 H1167 0.949 . S
H1144 C1148 0.949 . S
C1145 C1146 1.349 . S
C1145 C1147 1.327 . S
C1145 H1168 0.950 . S
C1146 C1145 1.349 . S
C1146 C1158 1.349 . S
C1147 C1145 1.327 . S
C1147 C1163 1.429 . S
C1147 H1169 0.950 . S
C1148 H1144 0.949 . S
C1148 C1156 1.574 . S
C1148 C1164 1.368 . S
H1149 C1157 0.950 . S
H1150 C1155 0.950 . S
H1151 C1156 0.949 . S
H1152 C1158 0.950 . S
H1153 C1159 0.950 . S
H1154 C1160 0.949 . S
C1155 H1150 0.950 . S
C1155 C1157 1.327 . S
C1155 C1161 1.429 . S
C1156 C1148 1.574 . S
C1156 H1151 0.949 . S
C1156 C1162 1.368 . S
C1157 C1141 1.349 . S
C1157 H1149 0.950 . S
C1157 C1155 1.327 . S
C1158 C1146 1.349 . S
C1158 H1152 0.950 . S
C1158 C1159 1.327 . S
C1159 H1153 0.950 . S
C1159 C1158 1.327 . S
C1159 C1163 1.429 . S
C1160 C1143 1.574 . S
C1160 H1154 0.949 . S
C1160 C1164 1.368 . S
C1161 C1142 1.429 . S
C1161 C1155 1.429 . S
C1161 C1162 1.523 . S
C1162 C1143 1.368 . S
C1162 C1156 1.368 . S
C1162 C1161 1.523 . S
C1163 C1147 1.429 . S
C1163 C1159 1.429 . S
C1163 C1164 1.523 . S
C1164 C1148 1.368 . S
C1164 C1160 1.368 . S
C1164 C1163 1.523 . S
H1165 C1140 0.950 . S
H1166 C1142 0.950 . S
H1167 C1143 0.949 . S
H1168 C1145 0.950 . S
H1169 C1147 0.950 . S
C1170 C1171 1.349 . S
C1170 C1172 1.327 . S
C1170 H1195 0.950 . S
C1171 C1170 1.349 . S
C1171 C1187 1.349 . S
C1172 C1170 1.327 . S
C1172 C1191 1.429 . S
C1172 H1196 0.950 . S
C1173 C1190 1.574 . S
C1173 C1192 1.368 . S
C1173 H1197 0.949 . S
H1174 C1178 0.949 . S
C1175 C1176 1.349 . S
C1175 C1177 1.327 . S
C1175 H1198 0.950 . S
C1176 C1175 1.349 . S
C1176 C1188 1.349 . S
C1177 C1175 1.327 . S
C1177 C1193 1.429 . S
C1177 H1199 0.950 . S
C1178 H1174 0.949 . S
C1178 C1186 1.574 . S
C1178 C1194 1.368 . S
H1179 C1187 0.950 . S
H1180 C1185 0.950 . S
H1181 C1186 0.949 . S
H1182 C1188 0.950 1_545 S
H1183 C1189 0.950 . S
H1184 C1190 0.949 . S
C1185 H1180 0.950 . S
C1185 C1187 1.327 . S
C1185 C1191 1.429 . S
C1186 C1178 1.574 . S
C1186 H1181 0.949 . S
C1186 C1192 1.368 . S
C1187 C1171 1.349 . S
C1187 H1179 0.950 . S
C1187 C1185 1.327 . S
C1188 C1176 1.349 . S
C1188 H1182 0.950 1_565 S
C1188 C1189 1.327 . S
C1189 H1183 0.950 . S
C1189 C1188 1.327 . S
C1189 C1193 1.429 . S
C1190 C1173 1.574 . S
C1190 H1184 0.949 . S
C1190 C1194 1.368 . S
C1191 C1172 1.429 . S
C1191 C1185 1.429 . S
C1191 C1192 1.523 . S
C1192 C1173 1.368 . S
C1192 C1186 1.368 . S
C1192 C1191 1.523 . S
C1193 C1177 1.429 . S
C1193 C1189 1.429 . S
C1193 C1194 1.523 . S
C1194 C1178 1.368 . S
C1194 C1190 1.368 . S
C1194 C1193 1.523 . S
H1195 C1170 0.950 . S
H1196 C1172 0.950 . S
H1197 C1173 0.949 . S
H1198 C1175 0.950 . S
H1199 C1177 0.950 . S
C1200 C1201 1.349 . S
C1200 C1202 1.327 . S
C1200 H1225 0.950 . S
C1201 C1200 1.349 . S
C1201 C1217 1.349 . S
C1202 C1200 1.327 . S
C1202 C1221 1.429 . S
C1202 H1226 0.950 . S
C1203 C1220 1.574 . S
C1203 C1222 1.368 . S
C1203 H1227 0.949 . S
H1204 C1208 0.949 . S
C1205 C1206 1.349 . S
C1205 C1207 1.327 . S
C1205 H1228 0.950 . S
C1206 C1205 1.349 . S
C1206 C1218 1.349 . S
C1207 C1205 1.327 . S
C1207 C1223 1.429 . S
C1207 H1229 0.950 . S
C1208 H1204 0.949 . S
C1208 C1216 1.574 . S
C1208 C1224 1.368 . S
H1209 C1217 0.950 . S
H1210 C1215 0.950 . S
H1211 C1216 0.949 . S
H1212 C1218 0.950 . S
H1213 C1219 0.950 . S
H1214 C1220 0.949 . S
C1215 H1210 0.950 . S
C1215 C1217 1.327 . S
C1215 C1221 1.429 . S
C1216 C1208 1.574 . S
C1216 H1211 0.949 . S
C1216 C1222 1.368 . S
C1217 C1201 1.349 . S
C1217 H1209 0.950 . S
C1217 C1215 1.327 . S
C1218 C1206 1.349 . S
C1218 H1212 0.950 . S
C1218 C1219 1.327 . S
C1219 H1213 0.950 . S
C1219 C1218 1.327 . S
C1219 C1223 1.429 . S
C1220 C1203 1.574 . S
C1220 H1214 0.949 . S
C1220 C1224 1.368 . S
C1221 C1202 1.429 . S
C1221 C1215 1.429 . S
C1221 C1222 1.523 . S
C1222 C1203 1.368 . S
C1222 C1216 1.368 . S
C1222 C1221 1.523 . S
C1223 C1207 1.429 . S
C1223 C1219 1.429 . S
C1223 C1224 1.523 . S
C1224 C1208 1.368 . S
C1224 C1220 1.368 . S
C1224 C1223 1.523 . S
H1225 C1200 0.950 . S
H1226 C1202 0.950 . S
H1227 C1203 0.949 . S
H1228 C1205 0.950 . S
H1229 C1207 0.950 . S
C1230 C1231 1.349 . S
C1230 C1232 1.327 . S
C1230 H1255 0.950 . S
C1231 C1230 1.349 . S
C1231 C1247 1.349 . S
C1232 C1230 1.327 . S
C1232 C1251 1.429 . S
C1232 H1256 0.950 . S
C1233 C1250 1.574 . S
C1233 C1252 1.368 . S
C1233 H1257 0.949 . S
H1234 C1238 0.949 . S
C1235 C1236 1.349 . S
C1235 C1237 1.327 . S
C1235 H1258 0.950 . S
C1236 C1235 1.349 . S
C1236 C1248 1.349 . S
C1237 C1235 1.327 . S
C1237 C1253 1.429 . S
C1237 H1259 0.950 . S
C1238 H1234 0.949 . S
C1238 C1246 1.574 . S
C1238 C1254 1.368 . S
H1239 C1247 0.950 . S
H1240 C1245 0.950 . S
H1241 C1246 0.949 . S
H1242 C1248 0.950 . S
H1243 C1249 0.950 . S
H1244 C1250 0.949 . S
C1245 H1240 0.950 . S
C1245 C1247 1.327 . S
C1245 C1251 1.429 . S
C1246 C1238 1.574 . S
C1246 H1241 0.949 . S
C1246 C1252 1.368 . S
C1247 C1231 1.349 . S
C1247 H1239 0.950 . S
C1247 C1245 1.327 . S
C1248 C1236 1.349 . S
C1248 H1242 0.950 . S
C1248 C1249 1.327 . S
C1249 H1243 0.950 . S
C1249 C1248 1.327 . S
C1249 C1253 1.429 . S
C1250 C1233 1.574 . S
C1250 H1244 0.949 . S
C1250 C1254 1.368 . S
C1251 C1232 1.429 . S
C1251 C1245 1.429 . S
C1251 C1252 1.523 . S
C1252 C1233 1.368 . S
C1252 C1246 1.368 . S
C1252 C1251 1.523 . S
C1253 C1237 1.429 . S
C1253 C1249 1.429 . S
C1253 C1254 1.523 . S
C1254 C1238 1.368 . S
C1254 C1250 1.368 . S
C1254 C1253 1.523 . S
H1255 C1230 0.950 . S
H1256 C1232 0.950 . S
H1257 C1233 0.949 . S
H1258 C1235 0.950 . S
H1259 C1237 0.950 . S
C1260 C1261 1.349 . S
C1260 C1262 1.327 . S
C1260 H1285 0.950 . S
C1261 C1260 1.349 . S
C1261 C1277 1.349 1_655 S
C1262 C1260 1.327 . S
C1262 C1281 1.429 . S
C1262 H1286 0.950 . S
C1263 C1280 1.574 . S
C1263 C1282 1.368 . S
C1263 H1287 0.949 . S
H1264 C1268 0.949 . S
C1265 C1266 1.349 . S
C1265 C1267 1.327 . S
C1265 H1288 0.950 . S
C1266 C1265 1.349 . S
C1266 C1278 1.349 . S
C1267 C1265 1.327 . S
C1267 C1283 1.429 . S
C1267 H1289 0.950 . S
C1268 H1264 0.949 . S
C1268 C1276 1.574 . S
C1268 C1284 1.368 . S
H1269 C1277 0.950 . S
H1270 C1275 0.950 1_455 S
H1271 C1276 0.949 . S
H1272 C1278 0.950 . S
H1273 C1279 0.950 . S
H1274 C1280 0.949 . S
C1275 H1270 0.950 1_655 S
C1275 C1277 1.327 1_655 S
C1275 C1281 1.429 . S
C1276 C1268 1.574 . S
C1276 H1271 0.949 . S
C1276 C1282 1.368 . S
C1277 C1261 1.349 1_455 S
C1277 H1269 0.950 . S
C1277 C1275 1.327 1_455 S
C1278 C1266 1.349 . S
C1278 H1272 0.950 . S
C1278 C1279 1.327 . S
C1279 H1273 0.950 . S
C1279 C1278 1.327 . S
C1279 C1283 1.429 . S
C1280 C1263 1.574 . S
C1280 H1274 0.949 . S
C1280 C1284 1.368 . S
C1281 C1262 1.429 . S
C1281 C1275 1.429 . S
C1281 C1282 1.523 . S
C1282 C1263 1.368 . S
C1282 C1276 1.368 . S
C1282 C1281 1.523 . S
C1283 C1267 1.429 . S
C1283 C1279 1.429 . S
C1283 C1284 1.523 . S
C1284 C1268 1.368 . S
C1284 C1280 1.368 . S
C1284 C1283 1.523 . S
H1285 C1260 0.950 . S
H1286 C1262 0.950 . S
H1287 C1263 0.949 . S
H1288 C1265 0.950 . S
H1289 C1267 0.950 . S
C1290 C1291 1.349 . S
C1290 C1292 1.327 . S
C1290 H1315 0.950 . S
C1291 C1290 1.349 . S
C1291 C1307 1.349 . S
C1292 C1290 1.327 . S
C1292 C1311 1.429 . S
C1292 H1316 0.950 . S
C1293 C1310 1.574 . S
C1293 C1312 1.368 . S
C1293 H1317 0.949 . S
H1294 C1298 0.949 . S
C1295 C1296 1.349 . S
C1295 C1297 1.327 . S
C1295 H1318 0.950 . S
C1296 C1295 1.349 . S
C1296 C1308 1.349 . S
C1297 C1295 1.327 . S
C1297 C1313 1.429 . S
C1297 H1319 0.950 . S
C1298 H1294 0.949 . S
C1298 C1306 1.574 . S
C1298 C1314 1.368 . S
H1299 C1307 0.950 . S
H1300 C1305 0.950 . S
H1301 C1306 0.949 . S
H1302 C1308 0.950 . S
H1303 C1309 0.950 . S
H1304 C1310 0.949 . S
C1305 H1300 0.950 . S
C1305 C1307 1.327 . S
C1305 C1311 1.429 . S
C1306 C1298 1.574 . S
C1306 H1301 0.949 . S
C1306 C1312 1.368 . S
C1307 C1291 1.349 . S
C1307 H1299 0.950 . S
C1307 C1305 1.327 . S
C1308 C1296 1.349 . S
C1308 H1302 0.950 . S
C1308 C1309 1.327 . S
C1309 H1303 0.950 . S
C1309 C1308 1.327 . S
C1309 C1313 1.429 . S
C1310 C1293 1.574 . S
C1310 H1304 0.949 . S
C1310 C1314 1.368 . S
C1311 C1292 1.429 . S
C1311 C1305 1.429 . S
C1311 C1312 1.523 . S
C1312 C1293 1.368 . S
C1312 C1306 1.368 . S
C1312 C1311 1.523 . S
C1313 C1297 1.429 . S
C1313 C1309 1.429 . S
C1313 C1314 1.523 . S
C1314 C1298 1.368 . S
C1314 C1310 1.368 . S
C1314 C1313 1.523 . S
H1315 C1290 0.950 . S
H1316 C1292 0.950 . S
H1317 C1293 0.949 . S
H1318 C1295 0.950 . S
H1319 C1297 0.950 . S
C1320 C1321 1.349 . S
C1320 C1322 1.327 . S
C1320 H1345 0.950 . S
C1321 C1320 1.349 . S
C1321 C1337 1.349 . S
C1322 C1320 1.327 . S
C1322 C1341 1.429 . S
C1322 H1346 0.950 . S
C1323 C1340 1.574 . S
C1323 C1342 1.368 . S
C1323 H1347 0.949 . S
H1324 C1328 0.949 . S
C1325 C1326 1.349 . S
C1325 C1327 1.327 . S
C1325 H1348 0.950 . S
C1326 C1325 1.349 . S
C1326 C1338 1.349 . S
C1327 C1325 1.327 . S
C1327 C1343 1.429 . S
C1327 H1349 0.950 . S
C1328 H1324 0.949 . S
C1328 C1336 1.574 . S
C1328 C1344 1.368 . S
H1329 C1337 0.950 . S
H1330 C1335 0.950 . S
H1331 C1336 0.949 . S
H1332 C1338 0.950 . S
H1333 C1339 0.950 . S
H1334 C1340 0.949 . S
C1335 H1330 0.950 . S
C1335 C1337 1.327 . S
C1335 C1341 1.429 . S
C1336 C1328 1.574 . S
C1336 H1331 0.949 . S
C1336 C1342 1.368 . S
C1337 C1321 1.349 . S
C1337 H1329 0.950 . S
C1337 C1335 1.327 . S
C1338 C1326 1.349 . S
C1338 H1332 0.950 . S
C1338 C1339 1.327 . S
C1339 H1333 0.950 . S
C1339 C1338 1.327 . S
C1339 C1343 1.429 . S
C1340 C1323 1.574 . S
C1340 H1334 0.949 . S
C1340 C1344 1.368 . S
C1341 C1322 1.429 . S
C1341 C1335 1.429 . S
C1341 C1342 1.523 . S
C1342 C1323 1.368 . S
C1342 C1336 1.368 . S
C1342 C1341 1.523 . S
C1343 C1327 1.429 . S
C1343 C1339 1.429 . S
C1343 C1344 1.523 . S
C1344 C1328 1.368 . S
C1344 C1340 1.368 . S
C1344 C1343 1.523 . S
H1345 C1320 0.950 . S
H1346 C1322 0.950 . S
H1347 C1323 0.949 . S
H1348 C1325 0.950 . S
H1349 C1327 0.950 . S
C1350 C1351 1.349 . S
C1350 C1352 1.327 . S
C1350 H1375 0.950 . S
C1351 C1350 1.349 . S
C1351 C1367 1.349 . S
C1352 C1350 1.327 . S
C1352 C1371 1.429 . S
C1352 H1376 0.950 . S
C1353 C1370 1.574 . S
C1353 C1372 1.368 1_455 S
C1353 H1377 0.949 . S
H1354 C1358 0.949 1_655 S
C1355 C1356 1.349 . S
C1355 C1357 1.327 . S
C1355 H1378 0.950 . S
C1356 C1355 1.349 . S
C1356 C1368 1.349 . S
C1357 C1355 1.327 . S
C1357 C1373 1.429 . S
C1357 H1379 0.950 . S
C1358 H1354 0.949 1_455 S
C1358 C1366 1.574 1_455 S
C1358 C1374 1.368 . S
H1359 C1367 0.950 . S
H1360 C1365 0.958 . S
H1361 C1366 0.949 . S
H1362 C1368 0.950 . S
H1363 C1369 0.950 . S
H1364 C1370 0.949 . S
C1365 H1360 0.958 . S
C1365 C1367 1.327 . S
C1365 C1371 1.429 . S
C1366 C1358 1.574 1_655 S
C1366 H1361 0.949 . S
C1366 C1372 1.368 . S
C1367 C1351 1.349 . S
C1367 H1359 0.950 . S
C1367 C1365 1.327 . S
C1368 C1356 1.349 . S
C1368 H1362 0.950 . S
C1368 C1369 1.327 . S
C1369 H1363 0.950 . S
C1369 C1368 1.327 . S
C1369 C1373 1.429 . S
C1370 C1353 1.574 . S
C1370 H1364 0.949 . S
C1370 C1374 1.368 . S
C1371 C1352 1.429 . S
C1371 C1365 1.429 . S
C1371 C1372 1.523 . S
C1372 C1353 1.368 1_655 S
C1372 C1366 1.368 . S
C1372 C1371 1.523 . S
C1373 C1357 1.429 . S
C1373 C1369 1.429 . S
C1373 C1374 1.523 . S
C1374 C1358 1.368 . S
C1374 C1370 1.368 . S
C1374 C1373 1.523 . S
H1375 C1350 0.950 . S
H1376 C1352 0.950 . S
H1377 C1353 0.949 . S
H1378 C1355 0.950 . S
H1379 C1357 0.950 . S
C1380 C1381 1.349 . S
C1380 C1382 1.327 . S
C1380 H1405 0.950 . S
C1381 C1380 1.349 . S
C1381 C1397 1.349 . S
C1382 C1380 1.327 . S
C1382 C1401 1.429 . S
C1382 H1406 0.950 . S
C1383 C1400 1.574 . S
C1383 C1402 1.368 . S
C1383 H1407 0.949 . S
H1384 C1388 0.949 . S
C1385 C1386 1.349 . S
C1385 C1387 1.327 . S
C1385 H1408 0.950 . S
C1386 C1385 1.349 . S
C1386 C1398 1.349 . S
C1387 C1385 1.327 . S
C1387 C1403 1.429 . S
C1387 H1409 0.950 . S
C1388 H1384 0.949 . S
C1388 C1396 1.574 . S
C1388 C1404 1.368 . S
H1389 C1397 0.950 . S
H1390 C1395 0.950 . S
H1391 C1396 0.949 . S
H1392 C1398 0.950 . S
H1393 C1399 0.950 . S
H1394 C1400 0.949 . S
C1395 H1390 0.950 . S
C1395 C1397 1.327 . S
C1395 C1401 1.429 . S
C1396 C1388 1.574 . S
C1396 H1391 0.949 . S
C1396 C1402 1.368 . S
C1397 C1381 1.349 . S
C1397 H1389 0.950 . S
C1397 C1395 1.327 . S
C1398 C1386 1.349 . S
C1398 H1392 0.950 . S
C1398 C1399 1.327 . S
C1399 H1393 0.950 . S
C1399 C1398 1.327 . S
C1399 C1403 1.429 . S
C1400 C1383 1.574 . S
C1400 H1394 0.949 . S
C1400 C1404 1.368 . S
C1401 C1382 1.429 . S
C1401 C1395 1.429 . S
C1401 C1402 1.523 . S
C1402 C1383 1.368 . S
C1402 C1396 1.368 . S
C1402 C1401 1.523 . S
C1403 C1387 1.429 . S
C1403 C1399 1.429 . S
C1403 C1404 1.523 . S
C1404 C1388 1.368 . S
C1404 C1400 1.368 . S
C1404 C1403 1.523 . S
H1405 C1380 0.950 . S
H1406 C1382 0.950 . S
H1407 C1383 0.949 . S
H1408 C1385 0.950 . S
H1409 C1387 0.950 . S
C1410 C1411 1.349 . S
C1410 C1412 1.327 . S
C1410 H1435 0.950 . S
C1411 C1410 1.349 . S
C1411 C1427 1.349 . S
C1412 C1410 1.327 . S
C1412 C1431 1.429 . S
C1412 H1436 0.959 . S
C1413 C1430 1.574 1_565 S
C1413 C1432 1.368 . S
C1413 H1437 0.949 . S
H1414 C1418 0.949 . S
C1415 C1416 1.349 . S
C1415 C1417 1.327 . S
C1415 H1438 0.950 . S
C1416 C1415 1.349 . S
C1416 C1428 1.349 . S
C1417 C1415 1.327 . S
C1417 C1433 1.429 . S
C1417 H1439 0.950 . S
C1418 H1414 0.949 . S
C1418 C1426 1.574 . S
C1418 C1434 1.368 . S
H1419 C1427 0.950 . S
H1420 C1425 0.950 . S
H1421 C1426 0.949 . S
H1422 C1428 0.950 . S
H1423 C1429 0.950 . S
H1424 C1430 0.949 1_565 S
C1425 H1420 0.950 . S
C1425 C1427 1.327 . S
C1425 C1431 1.429 . S
C1426 C1418 1.574 . S
C1426 H1421 0.949 . S
C1426 C1432 1.368 1_545 S
C1427 C1411 1.349 . S
C1427 H1419 0.950 . S
C1427 C1425 1.327 . S
C1428 C1416 1.349 . S
C1428 H1422 0.950 . S
C1428 C1429 1.327 . S
C1429 H1423 0.950 . S
C1429 C1428 1.327 . S
C1429 C1433 1.429 . S
C1430 C1413 1.574 1_545 S
C1430 H1424 0.949 1_545 S
C1430 C1434 1.368 . S
C1431 C1412 1.429 . S
C1431 C1425 1.429 . S
C1431 C1432 1.523 . S
C1432 C1413 1.368 . S
C1432 C1426 1.368 1_565 S
C1432 C1431 1.523 . S
C1433 C1417 1.429 . S
C1433 C1429 1.429 . S
C1433 C1434 1.523 . S
C1434 C1418 1.368 . S
C1434 C1430 1.368 . S
C1434 C1433 1.523 . S
H1435 C1410 0.950 . S
H1436 C1412 0.959 . S
H1437 C1413 0.949 . S
H1438 C1415 0.950 . S
H1439 C1417 0.950 . S
C1440 C1441 1.349 . S
C1440 C1442 1.327 . S
C1440 H1465 0.950 . S
C1441 C1440 1.349 . S
C1441 C1457 1.349 . S
C1442 C1440 1.327 . S
C1442 C1461 1.429 . S
C1442 H1466 0.950 . S
C1443 C1460 1.574 . S
C1443 C1462 1.368 . S
C1443 H1467 0.949 . S
H1444 C1448 0.949 . S
C1445 C1446 1.349 . S
C1445 C1447 1.327 . S
C1445 H1468 0.950 . S
C1446 C1445 1.349 . S
C1446 C1458 1.349 . S
C1447 C1445 1.327 . S
C1447 C1463 1.429 . S
C1447 H1469 0.950 . S
C1448 H1444 0.949 . S
C1448 C1456 1.574 . S
C1448 C1464 1.368 . S
H1449 C1457 0.950 . S
H1450 C1455 0.950 . S
H1451 C1456 0.949 . S
H1452 C1458 0.950 . S
H1453 C1459 0.950 . S
H1454 C1460 0.949 . S
C1455 H1450 0.950 . S
C1455 C1457 1.327 . S
C1455 C1461 1.429 . S
C1456 C1448 1.574 . S
C1456 H1451 0.949 . S
C1456 C1462 1.368 . S
C1457 C1441 1.349 . S
C1457 H1449 0.950 . S
C1457 C1455 1.327 . S
C1458 C1446 1.349 . S
C1458 H1452 0.950 . S
C1458 C1459 1.327 . S
C1459 H1453 0.950 . S
C1459 C1458 1.327 . S
C1459 C1463 1.429 . S
C1460 C1443 1.574 . S
C1460 H1454 0.949 . S
C1460 C1464 1.368 . S
C1461 C1442 1.429 . S
C1461 C1455 1.429 . S
C1461 C1462 1.523 . S
C1462 C1443 1.368 . S
C1462 C1456 1.368 . S
C1462 C1461 1.523 . S
C1463 C1447 1.429 . S
C1463 C1459 1.429 . S
C1463 C1464 1.523 . S
C1464 C1448 1.368 . S
C1464 C1460 1.368 . S
C1464 C1463 1.523 . S
H1465 C1440 0.950 . S
H1466 C1442 0.950 . S
H1467 C1443 0.949 . S
H1468 C1445 0.950 . S
H1469 C1447 0.950 . S
C1470 C1471 1.349 . S
C1470 C1472 1.327 . S
C1470 H1495 0.950 . S
C1471 C1470 1.349 . S
C1471 C1487 1.349 . S
C1472 C1470 1.327 . S
C1472 C1491 1.429 . S
C1472 H1496 0.950 . S
C1473 C1490 1.574 . S
C1473 C1492 1.368 . S
C1473 H1497 0.949 . S
H1474 C1478 0.949 . S
C1475 C1476 1.349 . S
C1475 C1477 1.327 . S
C1475 H1498 0.950 . S
C1476 C1475 1.349 . S
C1476 C1488 1.349 . S
C1477 C1475 1.327 . S
C1477 C1493 1.429 . S
C1477 H1499 0.950 . S
C1478 H1474 0.949 . S
C1478 C1486 1.574 . S
C1478 C1494 1.368 . S
H1479 C1487 0.950 . S
H1480 C1485 0.950 . S
H1481 C1486 0.949 . S
H1482 C1488 0.950 . S
H1483 C1489 0.950 . S
H1484 C1490 0.949 . S
C1485 H1480 0.950 . S
C1485 C1487 1.327 . S
C1485 C1491 1.429 . S
C1486 C1478 1.574 . S
C1486 H1481 0.949 . S
C1486 C1492 1.368 . S
C1487 C1471 1.349 . S
C1487 H1479 0.950 . S
C1487 C1485 1.327 . S
C1488 C1476 1.349 . S
C1488 H1482 0.950 . S
C1488 C1489 1.327 . S
C1489 H1483 0.950 . S
C1489 C1488 1.327 . S
C1489 C1493 1.429 . S
C1490 C1473 1.574 . S
C1490 H1484 0.949 . S
C1490 C1494 1.368 . S
C1491 C1472 1.429 . S
C1491 C1485 1.429 . S
C1491 C1492 1.523 . S
C1492 C1473 1.368 . S
C1492 C1486 1.368 . S
C1492 C1491 1.523 . S
C1493 C1477 1.429 . S
C1493 C1489 1.429 . S
C1493 C1494 1.523 . S
C1494 C1478 1.368 . S
C1494 C1490 1.368 . S
C1494 C1493 1.523 . S
H1495 C1470 0.950 . S
H1496 C1472 0.950 . S
H1497 C1473 0.949 . S
H1498 C1475 0.950 . S
H1499 C1477 0.950 . S
C1500 C1501 1.349 . S
C1500 C1502 1.327 . S
C1500 H1525 0.950 . S
C1501 C1500 1.349 . S
C1501 C1517 1.349 . S
C1502 C1500 1.327 . S
C1502 C1521 1.429 . S
C1502 H1526 0.950 . S
C1503 C1520 1.574 . S
C1503 C1522 1.368 . S
C1503 H1527 0.949 . S
H1504 C1508 0.949 . S
C1505 C1506 1.349 . S
C1505 C1507 1.327 . S
C1505 H1528 0.950 . S
C1506 C1505 1.349 . S
C1506 C1518 1.349 . S
C1507 C1505 1.327 . S
C1507 C1523 1.429 . S
C1507 H1529 0.950 . S
C1508 H1504 0.949 . S
C1508 C1516 1.574 . S
C1508 C1524 1.368 . S
H1509 C1517 0.950 . S
H1510 C1515 0.950 . S
H1511 C1516 0.949 . S
H1512 C1518 0.950 . S
H1513 C1519 0.950 . S
H1514 C1520 0.949 . S
C1515 H1510 0.950 . S
C1515 C1517 1.327 . S
C1515 C1521 1.429 . S
C1516 C1508 1.574 . S
C1516 H1511 0.949 . S
C1516 C1522 1.368 . S
C1517 C1501 1.349 . S
C1517 H1509 0.950 . S
C1517 C1515 1.327 . S
C1518 C1506 1.349 . S
C1518 H1512 0.950 . S
C1518 C1519 1.327 . S
C1519 H1513 0.950 . S
C1519 C1518 1.327 . S
C1519 C1523 1.429 . S
C1520 C1503 1.574 . S
C1520 H1514 0.949 . S
C1520 C1524 1.368 . S
C1521 C1502 1.429 . S
C1521 C1515 1.429 . S
C1521 C1522 1.523 . S
C1522 C1503 1.368 . S
C1522 C1516 1.368 . S
C1522 C1521 1.523 . S
C1523 C1507 1.429 . S
C1523 C1519 1.429 . S
C1523 C1524 1.523 . S
C1524 C1508 1.368 . S
C1524 C1520 1.368 . S
C1524 C1523 1.523 . S
H1525 C1500 0.950 . S
H1526 C1502 0.950 . S
H1527 C1503 0.949 . S
H1528 C1505 0.950 . S
H1529 C1507 0.950 . S
C1530 C1531 1.349 . S
C1530 C1532 1.327 . S
C1530 H1555 0.950 . S
C1531 C1530 1.349 . S
C1531 C1547 1.349 . S
C1532 C1530 1.327 . S
C1532 C1551 1.429 . S
C1532 H1556 0.950 . S
C1533 C1550 1.574 . S
C1533 C1552 1.368 . S
C1533 H1557 0.949 . S
H1534 C1538 0.949 . S
C1535 C1536 1.349 . S
C1535 C1537 1.327 . S
C1535 H1558 0.950 . S
C1536 C1535 1.349 . S
C1536 C1548 1.349 . S
C1537 C1535 1.327 . S
C1537 C1553 1.429 . S
C1537 H1559 0.950 . S
C1538 H1534 0.949 . S
C1538 C1546 1.574 . S
C1538 C1554 1.368 . S
H1539 C1547 0.950 . S
H1540 C1545 0.950 . S
H1541 C1546 0.949 . S
H1542 C1548 0.950 . S
H1543 C1549 0.950 . S
H1544 C1550 0.949 . S
C1545 H1540 0.950 . S
C1545 C1547 1.327 . S
C1545 C1551 1.429 . S
C1546 C1538 1.574 . S
C1546 H1541 0.949 . S
C1546 C1552 1.368 . S
C1547 C1531 1.349 . S
C1547 H1539 0.950 . S
C1547 C1545 1.327 . S
C1548 C1536 1.349 . S
C1548 H1542 0.950 . S
C1548 C1549 1.327 . S
C1549 H1543 0.950 . S
C1549 C1548 1.327 . S
C1549 C1553 1.429 . S
C1550 C1533 1.574 . S
C1550 H1544 0.949 . S
C1550 C1554 1.368 . S
C1551 C1532 1.429 . S
C1551 C1545 1.429 . S
C1551 C1552 1.523 . S
C1552 C1533 1.368 . S
C1552 C1546 1.368 . S
C1552 C1551 1.523 . S
C1553 C1537 1.429 . S
C1553 C1549 1.429 . S
C1553 C1554 1.523 . S
C1554 C1538 1.368 . S
C1554 C1550 1.368 . S
C1554 C1553 1.523 . S
H1555 C1530 0.950 . S
H1556 C1532 0.950 . S
H1557 C1533 0.949 . S
H1558 C1535 0.950 . S
H1559 C1537 0.950 . S
C1560 C1561 1.349 . S
C1560 C1562 1.327 . S
C1560 H1585 0.950 . S
C1561 C1560 1.349 . S
C1561 C1577 1.349 . S
C1562 C1560 1.327 . S
C1562 C1581 1.429 . S
C1562 H1586 0.950 . S
C1563 C1580 1.574 . S
C1563 C1582 1.368 . S
C1563 H1587 0.949 . S
H1564 C1568 0.949 . S
C1565 C1566 1.349 . S
C1565 C1567 1.327 . S
C1565 H1588 0.950 . S
C1566 C1565 1.349 . S
C1566 C1578 1.349 . S
C1567 C1565 1.327 . S
C1567 C1583 1.429 . S
C1567 H1589 0.950 . S
C1568 H1564 0.949 . S
C1568 C1576 1.574 . S
C1568 C1584 1.368 . S
H1569 C1577 0.950 . S
H1570 C1575 0.950 . S
H1571 C1576 0.949 . S
H1572 C1578 0.950 . S
H1573 C1579 0.950 . S
H1574 C1580 0.949 . S
C1575 H1570 0.950 . S
C1575 C1577 1.327 . S
C1575 C1581 1.429 . S
C1576 C1568 1.574 . S
C1576 H1571 0.949 . S
C1576 C1582 1.368 . S
C1577 C1561 1.349 . S
C1577 H1569 0.950 . S
C1577 C1575 1.327 . S
C1578 C1566 1.349 . S
C1578 H1572 0.950 . S
C1578 C1579 1.327 . S
C1579 H1573 0.950 . S
C1579 C1578 1.327 . S
C1579 C1583 1.429 . S
C1580 C1563 1.574 . S
C1580 H1574 0.949 . S
C1580 C1584 1.368 . S
C1581 C1562 1.429 . S
C1581 C1575 1.429 . S
C1581 C1582 1.523 . S
C1582 C1563 1.368 . S
C1582 C1576 1.368 . S
C1582 C1581 1.523 . S
C1583 C1567 1.429 . S
C1583 C1579 1.429 . S
C1583 C1584 1.523 . S
C1584 C1568 1.368 . S
C1584 C1580 1.368 . S
C1584 C1583 1.523 . S
H1585 C1560 0.950 . S
H1586 C1562 0.950 . S
H1587 C1563 0.949 . S
H1588 C1565 0.950 . S
H1589 C1567 0.950 . S
C1590 C1591 1.349 . S
C1590 C1592 1.327 . S
C1590 H1615 0.950 . S
C1591 C1590 1.349 . S
C1591 C1607 1.349 . S
C1592 C1590 1.327 . S
C1592 C1611 1.429 . S
C1592 H1616 0.950 . S
C1593 C1610 1.574 . S
C1593 C1612 1.368 . S
C1593 H1617 0.949 . S
H1594 C1598 0.949 . S
C1595 C1596 1.349 . S
C1595 C1597 1.327 . S
C1595 H1618 0.950 . S
C1596 C1595 1.349 . S
C1596 C1608 1.349 . S
C1597 C1595 1.327 . S
C1597 C1613 1.429 . S
C1597 H1619 0.950 . S
C1598 H1594 0.949 . S
C1598 C1606 1.574 . S
C1598 C1614 1.368 . S
H1599 C1607 0.950 . S
H1600 C1605 0.950 . S
H1601 C1606 0.949 . S
H1602 C1608 0.950 . S
H1603 C1609 0.950 . S
H1604 C1610 0.949 . S
C1605 H1600 0.950 . S
C1605 C1607 1.327 . S
C1605 C1611 1.429 . S
C1606 C1598 1.574 . S
C1606 H1601 0.949 . S
C1606 C1612 1.368 . S
C1607 C1591 1.349 . S
C1607 H1599 0.950 . S
C1607 C1605 1.327 . S
C1608 C1596 1.349 . S
C1608 H1602 0.950 . S
C1608 C1609 1.327 . S
C1609 H1603 0.950 . S
C1609 C1608 1.327 . S
C1609 C1613 1.429 . S
C1610 C1593 1.574 . S
C1610 H1604 0.949 . S
C1610 C1614 1.368 . S
C1611 C1592 1.429 . S
C1611 C1605 1.429 . S
C1611 C1612 1.523 . S
C1612 C1593 1.368 . S
C1612 C1606 1.368 . S
C1612 C1611 1.523 . S
C1613 C1597 1.429 . S
C1613 C1609 1.429 . S
C1613 C1614 1.523 . S
C1614 C1598 1.368 . S
C1614 C1610 1.368 . S
C1614 C1613 1.523 . S
H1615 C1590 0.950 . S
H1616 C1592 0.950 . S
H1617 C1593 0.949 . S
H1618 C1595 0.950 . S
H1619 C1597 0.950 . S
C1620 C1621 1.349 . S
C1620 C1622 1.327 . S
C1620 H1645 0.950 . S
C1621 C1620 1.349 . S
C1621 C1637 1.349 . S
C1622 C1620 1.327 . S
C1622 C1641 1.429 . S
C1622 H1646 0.950 . S
C1623 C1640 1.574 . S
C1623 C1642 1.368 . S
C1623 H1647 0.949 . S
H1624 C1628 0.949 . S
C1625 C1626 1.349 . S
C1625 C1627 1.327 . S
C1625 H1648 0.950 . S
C1626 C1625 1.349 . S
C1626 C1638 1.349 . S
C1627 C1625 1.327 . S
C1627 C1643 1.429 . S
C1627 H1649 0.950 . S
C1628 H1624 0.949 . S
C1628 C1636 1.574 . S
C1628 C1644 1.368 . S
H1629 C1637 0.950 . S
H1630 C1635 0.950 . S
H1631 C1636 0.949 . S
H1632 C1638 0.950 . S
H1633 C1639 0.950 . S
H1634 C1640 0.949 . S
C1635 H1630 0.950 . S
C1635 C1637 1.327 . S
C1635 C1641 1.429 . S
C1636 C1628 1.574 . S
C1636 H1631 0.949 . S
C1636 C1642 1.368 . S
C1637 C1621 1.349 . S
C1637 H1629 0.950 . S
C1637 C1635 1.327 . S
C1638 C1626 1.349 . S
C1638 H1632 0.950 . S
C1638 C1639 1.327 . S
C1639 H1633 0.950 . S
C1639 C1638 1.327 . S
C1639 C1643 1.429 . S
C1640 C1623 1.574 . S
C1640 H1634 0.949 . S
C1640 C1644 1.368 . S
C1641 C1622 1.429 . S
C1641 C1635 1.429 . S
C1641 C1642 1.523 . S
C1642 C1623 1.368 . S
C1642 C1636 1.368 . S
C1642 C1641 1.523 . S
C1643 C1627 1.429 . S
C1643 C1639 1.429 . S
C1643 C1644 1.523 . S
C1644 C1628 1.368 . S
C1644 C1640 1.368 . S
C1644 C1643 1.523 . S
H1645 C1620 0.950 . S
H1646 C1622 0.950 . S
H1647 C1623 0.949 . S
H1648 C1625 0.950 . S
H1649 C1627 0.950 . S
C1650 C1651 1.349 . S
C1650 C1652 1.327 . S
C1650 H1675 0.950 . S
C1651 C1650 1.349 . S
C1651 C1667 1.349 . S
C1652 C1650 1.327 . S
C1652 C1671 1.429 . S
C1652 H1676 0.950 . S
C1653 C1670 1.574 . S
C1653 C1672 1.368 . S
C1653 H1677 0.949 . S
H1654 C1658 0.949 . S
C1655 C1656 1.349 . S
C1655 C1657 1.327 . S
C1655 H1678 0.950 . S
C1656 C1655 1.349 . S
C1656 C1668 1.349 . S
C1657 C1655 1.327 . S
C1657 C1673 1.429 . S
C1657 H1679 0.950 . S
C1658 H1654 0.949 . S
C1658 C1666 1.574 . S
C1658 C1674 1.368 . S
H1659 C1667 0.950 . S
H1660 C1665 0.950 . S
H1661 C1666 0.949 . S
H1662 C1668 0.950 . S
H1663 C1669 0.950 . S
H1664 C1670 0.949 . S
C1665 H1660 0.950 . S
C1665 C1667 1.327 . S
C1665 C1671 1.429 . S
C1666 C1658 1.574 . S
C1666 H1661 0.949 . S
C1666 C1672 1.368 . S
C1667 C1651 1.349 . S
C1667 H1659 0.950 . S
C1667 C1665 1.327 . S
C1668 C1656 1.349 . S
C1668 H1662 0.950 . S
C1668 C1669 1.327 . S
C1669 H1663 0.950 . S
C1669 C1668 1.327 . S
C1669 C1673 1.429 . S
C1670 C1653 1.574 . S
C1670 H1664 0.949 . S
C1670 C1674 1.368 . S
C1671 C1652 1.429 . S
C1671 C1665 1.429 . S
C1671 C1672 1.523 . S
C1672 C1653 1.368 . S
C1672 C1666 1.368 . S
C1672 C1671 1.523 . S
C1673 C1657 1.429 . S
C1673 C1669 1.429 . S
C1673 C1674 1.523 . S
C1674 C1658 1.368 . S
C1674 C1670 1.368 . S
C1674 C1673 1.523 . S
H1675 C1650 0.950 . S
H1676 C1652 0.950 . S
H1677 C1653 0.949 . S
H1678 C1655 0.950 . S
H1679 C1657 0.950 . S
C1680 C1681 1.349 . S
C1680 C1682 1.327 . S
C1680 H1705 0.950 . S
C1681 C1680 1.349 . S
C1681 C1697 1.349 . S
C1682 C1680 1.327 . S
C1682 C1701 1.429 . S
C1682 H1706 0.950 . S
C1683 C1700 1.574 . S
C1683 C1702 1.368 . S
C1683 H1707 0.949 . S
H1684 C1688 0.949 . S
C1685 C1686 1.349 . S
C1685 C1687 1.327 . S
C1685 H1708 0.950 . S
C1686 C1685 1.349 . S
C1686 C1698 1.349 . S
C1687 C1685 1.327 . S
C1687 C1703 1.429 . S
C1687 H1709 0.950 . S
C1688 H1684 0.949 . S
C1688 C1696 1.574 . S
C1688 C1704 1.368 . S
H1689 C1697 0.950 . S
H1690 C1695 0.950 . S
H1691 C1696 0.949 . S
H1692 C1698 0.950 . S
H1693 C1699 0.950 . S
H1694 C1700 0.949 . S
C1695 H1690 0.950 . S
C1695 C1697 1.327 . S
C1695 C1701 1.429 . S
C1696 C1688 1.574 . S
C1696 H1691 0.949 . S
C1696 C1702 1.368 . S
C1697 C1681 1.349 . S
C1697 H1689 0.950 . S
C1697 C1695 1.327 . S
C1698 C1686 1.349 . S
C1698 H1692 0.950 . S
C1698 C1699 1.327 . S
C1699 H1693 0.950 . S
C1699 C1698 1.327 . S
C1699 C1703 1.429 . S
C1700 C1683 1.574 . S
C1700 H1694 0.949 . S
C1700 C1704 1.368 . S
C1701 C1682 1.429 . S
C1701 C1695 1.429 . S
C1701 C1702 1.523 . S
C1702 C1683 1.368 . S
C1702 C1696 1.368 . S
C1702 C1701 1.523 . S
C1703 C1687 1.429 . S
C1703 C1699 1.429 . S
C1703 C1704 1.523 . S
C1704 C1688 1.368 . S
C1704 C1700 1.368 . S
C1704 C1703 1.523 . S
H1705 C1680 0.950 . S
H1706 C1682 0.950 . S
H1707 C1683 0.949 . S
H1708 C1685 0.950 . S
H1709 C1687 0.950 . S
C1710 C1711 1.349 . S
C1710 C1712 1.327 . S
C1710 H1735 0.950 . S
C1711 C1710 1.349 . S
C1711 C1727 1.349 . S
C1712 C1710 1.327 . S
C1712 C1731 1.429 . S
C1712 H1736 0.950 . S
C1713 C1730 1.574 . S
C1713 C1732 1.368 . S
C1713 H1737 0.949 . S
H1714 C1718 0.949 . S
C1715 C1716 1.349 . S
C1715 C1717 1.327 . S
C1715 H1738 0.950 . S
C1716 C1715 1.349 . S
C1716 C1728 1.349 . S
C1717 C1715 1.327 . S
C1717 C1733 1.429 . S
C1717 H1739 0.950 1_455 S
C1718 H1714 0.949 . S
C1718 C1726 1.574 . S
C1718 C1734 1.368 . S
H1719 C1727 0.950 . S
H1720 C1725 0.950 . S
H1721 C1726 0.949 . S
H1722 C1728 0.950 . S
H1723 C1729 0.950 . S
H1724 C1730 0.949 . S
C1725 H1720 0.950 . S
C1725 C1727 1.327 . S
C1725 C1731 1.429 . S
C1726 C1718 1.574 . S
C1726 H1721 0.949 . S
C1726 C1732 1.368 . S
C1727 C1711 1.349 . S
C1727 H1719 0.950 . S
C1727 C1725 1.327 . S
C1728 C1716 1.349 . S
C1728 H1722 0.950 . S
C1728 C1729 1.327 . S
C1729 H1723 0.950 . S
C1729 C1728 1.327 . S
C1729 C1733 1.429 . S
C1730 C1713 1.574 . S
C1730 H1724 0.949 . S
C1730 C1734 1.368 . S
C1731 C1712 1.429 . S
C1731 C1725 1.429 . S
C1731 C1732 1.523 . S
C1732 C1713 1.368 . S
C1732 C1726 1.368 . S
C1732 C1731 1.523 . S
C1733 C1717 1.429 . S
C1733 C1729 1.429 . S
C1733 C1734 1.523 1_455 S
C1734 C1718 1.368 . S
C1734 C1730 1.368 . S
C1734 C1733 1.523 1_655 S
H1735 C1710 0.950 . S
H1736 C1712 0.950 . S
H1737 C1713 0.949 . S
H1738 C1715 0.950 . S
H1739 C1717 0.950 1_655 S
C1740 C1741 1.349 1_545 S
C1740 C1742 1.327 . S
C1740 H1765 0.950 . S
C1741 C1740 1.349 1_565 S
C1741 C1757 1.349 . S
C1742 C1740 1.327 . S
C1742 C1761 1.429 . S
C1742 H1766 0.950 . S
C1743 C1760 1.574 . S
C1743 C1762 1.368 . S
C1743 H1767 0.949 . S
H1744 C1748 0.949 . S
C1745 C1746 1.349 . S
C1745 C1747 1.327 . S
C1745 H1768 0.950 . S
C1746 C1745 1.349 . S
C1746 C1758 1.349 . S
C1747 C1745 1.327 . S
C1747 C1763 1.429 . S
C1747 H1769 0.950 . S
C1748 H1744 0.949 . S
C1748 C1756 1.574 . S
C1748 C1764 1.368 . S
H1749 C1757 0.950 . S
H1750 C1755 0.950 . S
H1751 C1756 0.949 . S
H1752 C1758 0.950 . S
H1753 C1759 0.950 . S
H1754 C1760 0.949 . S
C1755 H1750 0.950 . S
C1755 C1757 1.327 1_545 S
C1755 C1761 1.429 . S
C1756 C1748 1.574 . S
C1756 H1751 0.949 . S
C1756 C1762 1.368 . S
C1757 C1741 1.349 . S
C1757 H1749 0.950 . S
C1757 C1755 1.327 1_565 S
C1758 C1746 1.349 . S
C1758 H1752 0.950 . S
C1758 C1759 1.327 . S
C1759 H1753 0.950 . S
C1759 C1758 1.327 . S
C1759 C1763 1.429 . S
C1760 C1743 1.574 . S
C1760 H1754 0.949 . S
C1760 C1764 1.368 . S
C1761 C1742 1.429 . S
C1761 C1755 1.429 . S
C1761 C1762 1.523 . S
C1762 C1743 1.368 . S
C1762 C1756 1.368 . S
C1762 C1761 1.523 . S
C1763 C1747 1.429 . S
C1763 C1759 1.429 . S
C1763 C1764 1.523 . S
C1764 C1748 1.368 . S
C1764 C1760 1.368 . S
C1764 C1763 1.523 . S
H1765 C1740 0.950 . S
H1766 C1742 0.950 . S
H1767 C1743 0.949 . S
H1768 C1745 0.950 . S
H1769 C1747 0.950 . S
C1770 C1771 1.349 . S
C1770 C1772 1.327 1_565 S
C1770 H1795 0.950 . S
C1771 C1770 1.349 . S
C1771 C1787 1.349 . S
C1772 C1770 1.327 1_545 S
C1772 C1791 1.429 . S
C1772 H1796 0.950 . S
C1773 C1790 1.574 . S
C1773 C1792 1.368 . S
C1773 H1797 0.949 . S
H1774 C1778 0.949 . S
C1775 C1776 1.349 . S
C1775 C1777 1.327 1_455 S
C1775 H1798 0.950 . S
C1776 C1775 1.349 . S
C1776 C1788 1.349 . S
C1777 C1775 1.327 1_655 S
C1777 C1793 1.429 . S
C1777 H1799 0.950 . S
C1778 H1774 0.949 . S
C1778 C1786 1.574 . S
C1778 C1794 1.368 . S
H1779 C1787 0.950 . S
H1780 C1785 0.950 . S
H1781 C1786 0.949 . S
H1782 C1788 0.950 . S
H1783 C1789 0.950 . S
H1784 C1790 0.949 . S
C1785 H1780 0.950 . S
C1785 C1787 1.327 1_545 S
C1785 C1791 1.429 . S
C1786 C1778 1.574 . S
C1786 H1781 0.949 . S
C1786 C1792 1.368 . S
C1787 C1771 1.349 . S
C1787 H1779 0.950 . S
C1787 C1785 1.327 1_565 S
C1788 C1776 1.349 . S
C1788 H1782 0.950 . S
C1788 C1789 1.327 . S
C1789 H1783 0.950 . S
C1789 C1788 1.327 . S
C1789 C1793 1.429 1_455 S
C1790 C1773 1.574 . S
C1790 H1784 0.949 . S
C1790 C1794 1.368 . S
C1791 C1772 1.429 . S
C1791 C1785 1.429 . S
C1791 C1792 1.523 . S
C1792 C1773 1.368 . S
C1792 C1786 1.368 . S
C1792 C1791 1.523 . S
C1793 C1777 1.429 . S
C1793 C1789 1.429 1_655 S
C1793 C1794 1.523 . S
C1794 C1778 1.368 . S
C1794 C1790 1.368 . S
C1794 C1793 1.523 . S
H1795 C1770 0.950 . S
H1796 C1772 0.950 . S
H1797 C1773 0.949 . S
H1798 C1775 0.950 . S
H1799 C1777 0.950 . S
C1800 C1801 1.349 . S
C1800 C1802 1.327 . S
C1800 H1825 0.950 . S
C1801 C1800 1.349 . S
C1801 C1817 1.349 . S
C1802 C1800 1.327 . S
C1802 C1821 1.429 . S
C1802 H1826 0.950 . S
C1803 C1820 1.574 . S
C1803 C1822 1.368 . S
C1803 H1827 0.949 . S
H1804 C1808 0.949 . S
C1805 C1806 1.349 . S
C1805 C1807 1.327 . S
C1805 H1828 0.950 . S
C1806 C1805 1.349 . S
C1806 C1818 1.349 . S
C1807 C1805 1.327 . S
C1807 C1823 1.429 . S
C1807 H1829 0.950 . S
C1808 H1804 0.949 . S
C1808 C1816 1.574 . S
C1808 C1824 1.368 . S
H1809 C1817 0.950 . S
H1810 C1815 0.950 . S
H1811 C1816 0.949 . S
H1812 C1818 0.950 . S
H1813 C1819 0.950 . S
H1814 C1820 0.949 . S
C1815 H1810 0.950 . S
C1815 C1817 1.327 . S
C1815 C1821 1.429 . S
C1816 C1808 1.574 . S
C1816 H1811 0.949 . S
C1816 C1822 1.368 . S
C1817 C1801 1.349 . S
C1817 H1809 0.950 . S
C1817 C1815 1.327 . S
C1818 C1806 1.349 . S
C1818 H1812 0.950 . S
C1818 C1819 1.327 . S
C1819 H1813 0.950 . S
C1819 C1818 1.327 . S
C1819 C1823 1.429 . S
C1820 C1803 1.574 . S
C1820 H1814 0.949 . S
C1820 C1824 1.368 . S
C1821 C1802 1.429 . S
C1821 C1815 1.429 . S
C1821 C1822 1.523 . S
C1822 C1803 1.368 . S
C1822 C1816 1.368 . S
C1822 C1821 1.523 . S
C1823 C1807 1.429 . S
C1823 C1819 1.429 . S
C1823 C1824 1.523 1_545 S
C1824 C1808 1.368 . S
C1824 C1820 1.368 . S
C1824 C1823 1.523 1_565 S
H1825 C1800 0.950 . S
H1826 C1802 0.950 . S
H1827 C1803 0.949 . S
H1828 C1805 0.950 . S
H1829 C1807 0.950 . S
C1830 C1831 1.349 . S
C1830 C1832 1.327 1_545 S
C1830 H1855 0.950 . S
C1831 C1830 1.349 . S
C1831 C1847 1.349 . S
C1832 C1830 1.327 1_565 S
C1832 C1851 1.429 . S
C1832 H1856 0.950 . S
C1833 C1850 1.574 . S
C1833 C1852 1.368 . S
C1833 H1857 0.949 . S
H1834 C1838 0.949 . S
C1835 C1836 1.349 . S
C1835 C1837 1.327 1_655 S
C1835 H1858 0.950 . S
C1836 C1835 1.349 . S
C1836 C1848 1.349 . S
C1837 C1835 1.327 1_455 S
C1837 C1853 1.429 . S
C1837 H1859 0.950 . S
C1838 H1834 0.949 . S
C1838 C1846 1.574 . S
C1838 C1854 1.368 . S
H1839 C1847 0.950 . S
H1840 C1845 0.950 . S
H1841 C1846 0.949 . S
H1842 C1848 0.950 . S
H1843 C1849 0.950 . S
H1844 C1850 0.949 . S
C1845 H1840 0.950 . S
C1845 C1847 1.327 . S
C1845 C1851 1.429 1_545 S
C1846 C1838 1.574 . S
C1846 H1841 0.949 . S
C1846 C1852 1.368 . S
C1847 C1831 1.349 . S
C1847 H1839 0.950 . S
C1847 C1845 1.327 . S
C1848 C1836 1.349 . S
C1848 H1842 0.950 . S
C1848 C1849 1.327 1_655 S
C1849 H1843 0.950 . S
C1849 C1848 1.327 1_455 S
C1849 C1853 1.429 . S
C1850 C1833 1.574 . S
C1850 H1844 0.949 . S
C1850 C1854 1.368 . S
C1851 C1832 1.429 . S
C1851 C1845 1.429 1_565 S
C1851 C1852 1.523 . S
C1852 C1833 1.368 . S
C1852 C1846 1.368 . S
C1852 C1851 1.523 . S
C1853 C1837 1.429 . S
C1853 C1849 1.429 . S
C1853 C1854 1.523 . S
C1854 C1838 1.368 . S
C1854 C1850 1.368 . S
C1854 C1853 1.523 . S
H1855 C1830 0.950 . S
H1856 C1832 0.950 . S
H1857 C1833 0.949 . S
H1858 C1835 0.950 . S
H1859 C1837 0.950 . S
C1860 C1861 1.349 . S
C1860 C1862 1.327 . S
C1860 H1885 0.950 . S
C1861 C1860 1.349 . S
C1861 C1877 1.349 . S
C1862 C1860 1.327 . S
C1862 C1881 1.429 . S
C1862 H1886 0.950 . S
C1863 C1880 1.574 . S
C1863 C1882 1.368 . S
C1863 H1887 0.949 . S
H1864 C1868 0.949 . S
C1865 C1866 1.349 . S
C1865 C1867 1.327 1_655 S
C1865 H1888 0.950 . S
C1866 C1865 1.349 . S
C1866 C1878 1.349 1_655 S
C1867 C1865 1.327 1_455 S
C1867 C1883 1.429 . S
C1867 H1889 0.950 . S
C1868 H1864 0.949 . S
C1868 C1876 1.574 . S
C1868 C1884 1.368 . S
H1869 C1877 0.950 . S
H1870 C1875 0.950 . S
H1871 C1876 0.949 . S
H1872 C1878 0.950 . S
H1873 C1879 0.950 . S
H1874 C1880 0.949 . S
C1875 H1870 0.950 . S
C1875 C1877 1.327 . S
C1875 C1881 1.429 . S
C1876 C1868 1.574 . S
C1876 H1871 0.949 . S
C1876 C1882 1.368 . S
C1877 C1861 1.349 . S
C1877 H1869 0.950 . S
C1877 C1875 1.327 . S
C1878 C1866 1.349 1_455 S
C1878 H1872 0.950 . S
C1878 C1879 1.327 . S
C1879 H1873 0.950 . S
C1879 C1878 1.327 . S
C1879 C1883 1.429 . S
C1880 C1863 1.574 . S
C1880 H1874 0.949 . S
C1880 C1884 1.368 . S
C1881 C1862 1.429 . S
C1881 C1875 1.429 . S
C1881 C1882 1.523 . S
C1882 C1863 1.368 . S
C1882 C1876 1.368 . S
C1882 C1881 1.523 . S
C1883 C1867 1.429 . S
C1883 C1879 1.429 . S
C1883 C1884 1.523 . S
C1884 C1868 1.368 . S
C1884 C1880 1.368 . S
C1884 C1883 1.523 . S
H1885 C1860 0.950 . S
H1886 C1862 0.950 . S
H1887 C1863 0.949 . S
H1888 C1865 0.950 . S
H1889 C1867 0.950 . S
C1890 C1891 1.349 . S
C1890 C1892 1.327 . S
C1890 H1915 0.950 . S
C1891 C1890 1.349 . S
C1891 C1907 1.349 . S
C1892 C1890 1.327 . S
C1892 C1911 1.429 . S
C1892 H1916 0.950 . S
C1893 C1910 1.574 . S
C1893 C1912 1.368 . S
C1893 H1917 0.949 . S
H1894 C1898 0.949 . S
C1895 C1896 1.349 . S
C1895 C1897 1.327 . S
C1895 H1918 0.950 . S
C1896 C1895 1.349 . S
C1896 C1908 1.349 . S
C1897 C1895 1.327 . S
C1897 C1913 1.429 . S
C1897 H1919 0.950 . S
C1898 H1894 0.949 . S
C1898 C1906 1.574 . S
C1898 C1914 1.368 . S
H1899 C1907 0.950 . S
H1900 C1905 0.950 . S
H1901 C1906 0.949 . S
H1902 C1908 0.950 . S
H1903 C1909 0.950 . S
H1904 C1910 0.949 . S
C1905 H1900 0.950 . S
C1905 C1907 1.327 . S
C1905 C1911 1.429 . S
C1906 C1898 1.574 . S
C1906 H1901 0.949 . S
C1906 C1912 1.368 . S
C1907 C1891 1.349 . S
C1907 H1899 0.950 . S
C1907 C1905 1.327 . S
C1908 C1896 1.349 . S
C1908 H1902 0.950 . S
C1908 C1909 1.327 . S
C1909 H1903 0.950 . S
C1909 C1908 1.327 . S
C1909 C1913 1.429 . S
C1910 C1893 1.574 . S
C1910 H1904 0.949 . S
C1910 C1914 1.368 . S
C1911 C1892 1.429 . S
C1911 C1905 1.429 . S
C1911 C1912 1.523 . S
C1912 C1893 1.368 . S
C1912 C1906 1.368 . S
C1912 C1911 1.523 . S
C1913 C1897 1.429 . S
C1913 C1909 1.429 . S
C1913 C1914 1.523 . S
C1914 C1898 1.368 . S
C1914 C1910 1.368 . S
C1914 C1913 1.523 . S
H1915 C1890 0.950 . S
H1916 C1892 0.950 . S
H1917 C1893 0.949 . S
H1918 C1895 0.950 . S
H1919 C1897 0.950 . S
C1920 C1921 1.349 . S
C1920 C1922 1.327 . S
C1920 H1945 0.950 . S
C1921 C1920 1.349 . S
C1921 C1937 1.349 . S
C1922 C1920 1.327 . S
C1922 C1941 1.429 . S
C1922 H1946 0.950 . S
C1923 C1940 1.574 . S
C1923 C1942 1.368 . S
C1923 H1947 0.949 . S
H1924 C1928 0.949 . S
C1925 C1926 1.349 . S
C1925 C1927 1.327 . S
C1925 H1948 0.950 . S
C1926 C1925 1.349 . S
C1926 C1938 1.349 . S
C1927 C1925 1.327 . S
C1927 C1943 1.429 . S
C1927 H1949 0.950 . S
C1928 H1924 0.949 . S
C1928 C1936 1.574 . S
C1928 C1944 1.368 . S
H1929 C1937 0.950 . S
H1930 C1935 0.950 . S
H1931 C1936 0.949 . S
H1932 C1938 0.950 . S
H1933 C1939 0.950 . S
H1934 C1940 0.949 . S
C1935 H1930 0.950 . S
C1935 C1937 1.327 . S
C1935 C1941 1.429 . S
C1936 C1928 1.574 . S
C1936 H1931 0.949 . S
C1936 C1942 1.368 . S
C1937 C1921 1.349 . S
C1937 H1929 0.950 . S
C1937 C1935 1.327 . S
C1938 C1926 1.349 . S
C1938 H1932 0.950 . S
C1938 C1939 1.327 . S
C1939 H1933 0.950 . S
C1939 C1938 1.327 . S
C1939 C1943 1.429 . S
C1940 C1923 1.574 . S
C1940 H1934 0.949 . S
C1940 C1944 1.368 . S
C1941 C1922 1.429 . S
C1941 C1935 1.429 . S
C1941 C1942 1.523 . S
C1942 C1923 1.368 . S
C1942 C1936 1.368 . S
C1942 C1941 1.523 . S
C1943 C1927 1.429 . S
C1943 C1939 1.429 . S
C1943 C1944 1.523 . S
C1944 C1928 1.368 . S
C1944 C1940 1.368 . S
C1944 C1943 1.523 . S
H1945 C1920 0.950 . S
H1946 C1922 0.950 . S
H1947 C1923 0.949 . S
H1948 C1925 0.950 . S
H1949 C1927 0.950 . S
C1950 C1951 1.349 . S
C1950 C1952 1.327 . S
C1950 H1975 0.950 . S
C1951 C1950 1.349 . S
C1951 C1967 1.349 . S
C1952 C1950 1.327 . S
C1952 C1971 1.429 . S
C1952 H1976 0.950 . S
C1953 C1970 1.574 . S
C1953 C1972 1.368 . S
C1953 H1977 0.949 . S
H1954 C1958 0.949 . S
C1955 C1956 1.349 . S
C1955 C1957 1.327 . S
C1955 H1978 0.950 . S
C1956 C1955 1.349 . S
C1956 C1968 1.349 . S
C1957 C1955 1.327 . S
C1957 C1973 1.429 . S
C1957 H1979 0.950 . S
C1958 H1954 0.949 . S
C1958 C1966 1.574 . S
C1958 C1974 1.368 . S
H1959 C1967 0.950 . S
H1960 C1965 0.950 . S
H1961 C1966 0.949 . S
H1962 C1968 0.950 . S
H1963 C1969 0.950 . S
H1964 C1970 0.949 . S
C1965 H1960 0.950 . S
C1965 C1967 1.327 . S
C1965 C1971 1.429 . S
C1966 C1958 1.574 . S
C1966 H1961 0.949 . S
C1966 C1972 1.368 . S
C1967 C1951 1.349 . S
C1967 H1959 0.950 . S
C1967 C1965 1.327 . S
C1968 C1956 1.349 . S
C1968 H1962 0.950 . S
C1968 C1969 1.327 . S
C1969 H1963 0.950 . S
C1969 C1968 1.327 . S
C1969 C1973 1.429 . S
C1970 C1953 1.574 . S
C1970 H1964 0.949 . S
C1970 C1974 1.368 . S
C1971 C1952 1.429 . S
C1971 C1965 1.429 . S
C1971 C1972 1.523 . S
C1972 C1953 1.368 . S
C1972 C1966 1.368 . S
C1972 C1971 1.523 . S
C1973 C1957 1.429 . S
C1973 C1969 1.429 . S
C1973 C1974 1.523 . S
C1974 C1958 1.368 . S
C1974 C1970 1.368 . S
C1974 C1973 1.523 . S
H1975 C1950 0.950 . S
H1976 C1952 0.950 . S
H1977 C1953 0.949 . S
H1978 C1955 0.950 . S
H1979 C1957 0.950 . S
C361 C2 0.898 . S
C366 C49 0.893 . S
C391 C9 0.892 . S
C396 C22 0.898 . S
C421 C29 0.893 . S
C426 C42 0.898 . S
C451 C62 0.898 . S
C456 C89 0.893 . S
C481 C109 0.893 . S
C486 C82 0.898 . S
C511 C102 0.898 . S
C516 C69 0.892 . S
C541 C169 0.896 . S
C546 C122 0.898 . S
C571 C129 0.893 . S
C576 C142 0.898 . S
C601 C162 0.898 . S
C606 C149 0.893 . S
C631 C209 0.893 . S
C636 C182 0.898 . S
C661 C202 0.898 . S
C666 C229 0.893 . S
C691 C189 0.893 . S
C696 C222 0.898 . S
C721 C242 0.898 . S
C726 C289 0.893 . S
C751 C249 0.893 . S
C756 C262 0.898 . S
C781 C269 0.893 . S
C786 C282 0.898 . S
C811 C329 0.896 . S
C816 C302 0.898 . S
C841 C349 0.893 . S
C846 C322 0.898 . S
C871 C309 0.893 . S
C876 C342 0.898 . S
C901 C19 1.761 . S
C906 C119 1.761 . S
C931 C79 1.761 . S
C936 C39 1.761 . S
C961 C99 1.761 . S
C966 C59 1.761 . S
C991 C139 1.761 . S
C996 C239 1.761 . S
C1021 C159 1.761 . S
C1026 C199 1.761 . S
C1051 C219 1.761 . S
C1056 C179 1.761 . S
C1081 C259 1.761 . S
C1086 C359 1.761 . S
C1111 C319 1.761 . S
C1116 C279 1.761 . S
C1141 C339 1.761 . S
C1146 C299 1.761 . S
C1171 C218 1.930 . S
C1176 C18 1.930 1_565 S
C1201 C38 1.930 . S
C1206 C238 1.930 . S
C1231 C198 1.931 . S
C1236 C58 1.930 . S
C1261 C78 1.930 1_655 S
C1266 C298 1.930 . S
C1291 C98 1.931 . S
C1296 C258 1.931 . S
C1321 C278 1.930 . S
C1326 C118 1.930 . S
C1351 C338 1.930 . S
C1356 C138 1.930 . S
C1381 C158 1.930 . S
C1386 C358 1.930 . S
C1411 C178 1.930 . S
C1416 C318 1.930 . S
C1441 C52 1.479 . S
C1446 C4 1.373 . S
C1471 C12 1.479 . S
C1476 C24 1.373 . S
C1501 C44 1.373 . S
C1506 C32 1.479 . S
C1531 C92 1.479 . S
C1536 C64 1.373 . S
C1561 C112 1.479 . S
C1566 C84 1.373 . S
C1591 C104 1.373 . S
C1596 C72 1.479 . S
C1621 C172 1.479 . S
C1626 C124 1.373 . S
C1651 C144 1.373 . S
C1656 C132 1.479 . S
C1681 C152 1.479 . S
C1686 C164 1.373 . S
C1711 C184 1.373 . S
C1716 C212 1.479 . S
C1741 C204 1.373 . S
C1746 C232 1.479 . S
C1771 C192 1.479 . S
C1776 C224 1.373 . S
C1801 C244 1.373 . S
C1806 C292 1.479 . S
C1831 C264 1.373 . S
C1836 C252 1.479 . S
C1861 C272 1.479 . S
C1866 C284 1.373 . S
C1891 C304 1.373 . S
C1896 C332 1.479 . S
C1921 C324 1.373 . S
C1926 C352 1.479 . S
C1951 C312 1.479 . S
C1956 C344 1.373 . S
