# Generated by pormake.
# Topology vmz, (8)-cn, num edge types: 1
# Building blocks:
#     Node 0, Type 0, BuildingBlock: TAGTUT_clean_sbu_3, # of connection points: 8
#     Node 1, Type 0, BuildingBlock: TAGTUT_clean_sbu_3, # of connection points: 8
#     Node 2, Type 0, BuildingBlock: TAGTUT_clean_sbu_3, # of connection points: 8
#     Node 3, Type 0, BuildingBlock: TAGTUT_clean_sbu_3, # of connection points: 8
#     Edge 4, Type (0, 0), BuildingBlock: XUDNAN_clean_linker_2, # of connection points: 2
#     Edge 5, Type (0, 0), BuildingBlock: XUDNAN_clean_linker_2, # of connection points: 2
#     Edge 6, Type (0, 0), BuildingBlock: XUDNAN_clean_linker_2, # of connection points: 2
#     Edge 7, Type (0, 0), BuildingBlock: XUDNAN_clean_linker_2, # of connection points: 2
#     Edge 8, Type (0, 0), BuildingBlock: XUDNAN_clean_linker_2, # of connection points: 2
#     Edge 9, Type (0, 0), BuildingBlock: XUDNAN_clean_linker_2, # of connection points: 2
#     Edge 10, Type (0, 0), BuildingBlock: XUDNAN_clean_linker_2, # of connection points: 2
#     Edge 11, Type (0, 0), BuildingBlock: XUDNAN_clean_linker_2, # of connection points: 2
#     Edge 12, Type (0, 0), BuildingBlock: XUDNAN_clean_linker_2, # of connection points: 2
#     Edge 13, Type (0, 0), BuildingBlock: XUDNAN_clean_linker_2, # of connection points: 2
#     Edge 14, Type (0, 0), BuildingBlock: XUDNAN_clean_linker_2, # of connection points: 2
#     Edge 15, Type (0, 0), BuildingBlock: XUDNAN_clean_linker_2, # of connection points: 2
#     Edge 16, Type (0, 0), BuildingBlock: XUDNAN_clean_linker_2, # of connection points: 2
#     Edge 17, Type (0, 0), BuildingBlock: XUDNAN_clean_linker_2, # of connection points: 2
#     Edge 18, Type (0, 0), BuildingBlock: XUDNAN_clean_linker_2, # of connection points: 2
#     Edge 19, Type (0, 0), BuildingBlock: XUDNAN_clean_linker_2, # of connection points: 2
# Relax obj value: 0.212
# Max RMSD: 0.273
# Mean RMSD: 0.270
data_MOF--net-vmz--node1-TAGTUT_clean_sbu_3--edge1-XUDNAN_clean_linker_2
_symmetry_space_group_name_H-M    P1
_symmetry_Int_Tables_number       1
_symmetry_cell_setting            triclinic
loop_
_symmetry_equiv_pos_as_xyz
'x, y, z'
_cell_length_a     24.53456
_cell_length_b     18.726948
_cell_length_c     32.720872
_cell_angle_alpha  90.092365
_cell_angle_beta   99.309051
_cell_angle_gamma 90.019314
loop_
_atom_site_label
_atom_site_type_symbol
_atom_site_fract_x
_atom_site_fract_y
_atom_site_fract_z
_atom_type_partial_charge
C0 C 0.20774 0.2488 0.15968 0.0
C1 C 0.20244 0.44702 0.04205 0.0
C2 C 0.20715 0.25565 0.96237 0.0
Mg3 Mg 0.25756 0.09215 0.15993 0.0
Mg4 Mg 0.3617 0.05251 0.11262 0.0
O5 O 0.29177 0.09208 0.10801 0.0
Mg6 Mg 0.27676 0.19181 0.08896 0.0
O7 O 0.25524 0.29115 0.07237 0.0
Mg8 Mg 0.17266 0.27697 0.05887 0.0
Mg9 Mg 0.28787 0.32876 0.02929 0.0
C10 C 0.35245 0.12629 0.02439 0.0
O11 O 0.36489 0.23344 0.1093 0.0
O12 O 0.26631 0.96986 0.15901 0.0
O13 O 0.37237 0.31577 0.06002 0.0
O14 O 0.34229 0.10107 0.20318 0.0
O15 O 0.33341 0.94619 0.12151 0.0
O16 O 0.4115 0.09073 0.16734 0.0
O17 O 0.18887 0.15765 0.06628 0.0
O18 O 0.17579 0.08187 0.11616 0.0
C19 C 0.15844 0.11387 0.08205 0.0
C20 C 0.29465 0.92585 0.14086 0.0
O21 O 0.3091 0.16279 0.02807 0.0
O22 O 0.16903 0.40028 0.05276 0.0
O23 O 0.37852 0.08752 0.05344 0.0
O24 O 0.17196 0.26171 0.98721 0.0
O25 O 0.24822 0.42996 0.03049 0.0
O26 O 0.25768 0.27213 0.97367 0.0
O27 O 0.24895 0.21364 0.15078 0.0
O28 O 0.17458 0.28141 0.1312 0.0
C29 C 0.39404 0.10086 0.20142 0.0
C30 C 0.39297 0.27908 0.09195 0.0
C31 C 0.623 0.66312 0.46582 0.0
C32 C 0.73221 0.85242 0.55038 0.0
C33 C 0.75759 0.94734 0.43285 0.0
Mg34 Mg 0.6337 0.5892 0.3801 0.0
Mg35 Mg 0.7542 0.58215 0.35132 0.0
O36 O 0.69705 0.64142 0.36206 0.0
Mg37 Mg 0.71802 0.70489 0.41114 0.0
O38 O 0.73243 0.76762 0.46093 0.0
Mg39 Mg 0.66306 0.8255 0.4546 0.0
Mg40 Mg 0.79922 0.81303 0.48017 0.0
C41 C 0.80563 0.73224 0.34664 0.0
O42 O 0.79347 0.64056 0.44094 0.0
O43 O 0.62165 0.53851 0.31475 0.0
O44 O 0.85217 0.72139 0.47577 0.0
O45 O 0.6846 0.48707 0.40269 0.0
O46 O 0.70776 0.52787 0.29901 0.0
O47 O 0.7731 0.50478 0.39837 0.0
O48 O 0.64686 0.77589 0.38821 0.0
O49 O 0.58537 0.69463 0.35906 0.0
C50 C 0.59944 0.75957 0.36852 0.0
C51 C 0.65545 0.51799 0.29083 0.0
O52 O 0.77313 0.76085 0.3693 0.0
O53 O 0.68757 0.8564 0.52383 0.0
O54 O 0.81339 0.66463 0.34533 0.0
O55 O 0.70871 0.9248 0.43455 0.0
O56 O 0.77904 0.83717 0.54003 0.0
O57 O 0.80017 0.90949 0.44563 0.0
O58 O 0.65785 0.64203 0.44348 0.0
O59 O 0.61929 0.72861 0.47558 0.0
C60 C 0.73508 0.46667 0.40927 0.0
C61 C 0.84006 0.65766 0.46277 0.0
C62 C 0.6251 0.86138 0.95512 0.0
C63 C 0.75663 0.68478 0.05433 0.0
C64 C 0.74328 0.55622 0.9398 0.0
Mg65 Mg 0.63055 0.89821 0.86182 0.0
Mg66 Mg 0.75247 0.90813 0.8304 0.0
O67 O 0.6986 0.84863 0.85076 0.0
Mg68 Mg 0.71972 0.79646 0.90576 0.0
O69 O 0.73667 0.7488 0.96047 0.0
Mg70 Mg 0.66671 0.69728 0.96454 0.0
Mg71 Mg 0.80101 0.69222 0.96978 0.0
C72 C 0.80045 0.76224 0.84481 0.0
O73 O 0.79656 0.86423 0.92763 0.0
O74 O 0.61737 0.91958 0.79162 0.0
O75 O 0.85508 0.77679 0.95466 0.0
O76 O 0.67253 0.0058 0.87242 0.0
O77 O 0.70082 0.92154 0.77038 0.0
O78 O 0.75862 0.01302 0.86048 0.0
O79 O 0.64626 0.72003 0.89231 0.0
O80 O 0.58613 0.78954 0.85268 0.0
C81 C 0.59943 0.72905 0.86949 0.0
C82 C 0.6478 0.92486 0.76319 0.0
O83 O 0.77551 0.72814 0.87049 0.0
O84 O 0.70574 0.68817 0.03616 0.0
O85 O 0.81437 0.82713 0.85282 0.0
O86 O 0.7024 0.59023 0.94969 0.0
O87 O 0.79699 0.68209 0.03396 0.0
O88 O 0.7897 0.58718 0.94036 0.0
O89 O 0.65913 0.86973 0.93017 0.0
O90 O 0.62364 0.80323 0.97521 0.0
C91 C 0.71659 0.04157 0.87222 0.0
C92 C 0.84503 0.84198 0.94339 0.0
C93 C 0.38424 0.22978 0.6305 0.0
C94 C 0.31621 0.39984 0.73459 0.0
C95 C 0.25433 0.53249 0.63895 0.0
Mg96 Mg 0.30007 0.18556 0.54626 0.0
Mg97 Mg 0.16663 0.19045 0.54387 0.0
O98 O 0.23322 0.2399 0.55565 0.0
Mg99 Mg 0.25835 0.29012 0.60972 0.0
O100 O 0.28889 0.34459 0.66282 0.0
Mg101 Mg 0.35523 0.40177 0.64258 0.0
Mg102 Mg 0.22483 0.39152 0.6824 0.0
C103 C 0.12818 0.33402 0.58231 0.0
O104 O 0.21112 0.21977 0.65131 0.0
O105 O 0.25549 0.1707 0.47668 0.0
O106 O 0.16311 0.30775 0.67533 0.0
O107 O 0.26599 0.07516 0.56618 0.0
O108 O 0.16479 0.18425 0.4782 0.0
O109 O 0.17728 0.08697 0.5718 0.0
O110 O 0.31136 0.36309 0.57803 0.0
O111 O 0.33561 0.29302 0.52863 0.0
C112 C 0.33787 0.3529 0.54771 0.0
C113 C 0.20508 0.17661 0.45811 0.0
O114 O 0.17759 0.3564 0.59557 0.0
O115 O 0.31649 0.3687 0.69945 0.0
O116 O 0.11725 0.2715 0.56695 0.0
O117 O 0.30312 0.509 0.63682 0.0
O118 O 0.26882 0.41094 0.74442 0.0
O119 O 0.21723 0.4931 0.65097 0.0
O120 O 0.33354 0.21761 0.61579 0.0
O121 O 0.40055 0.29152 0.64488 0.0
C122 C 0.22107 0.04931 0.57524 0.0
C123 C 0.17506 0.24151 0.67308 0.0
H124 H 0.26366 0.55846 0.02192 0.0
H125 H 0.12642 0.5069 0.08545 0.0
H126 H 0.13392 0.62651 0.118 0.0
H127 H 0.34335 0.63366 0.10537 0.0
H128 H 0.37358 0.702 0.0774 0.0
H129 H 0.35036 0.61975 0.05194 0.0
H130 H 0.28611 0.68845 0.99439 0.0
H131 H 0.31089 0.77123 0.01867 0.0
H132 H 0.23782 0.7528 0.00864 0.0
H133 H 0.1652 0.74641 0.15042 0.0
H134 H 0.21023 0.86106 0.17323 0.0
H135 H 0.33151 0.82429 0.09232 0.0
C136 C 0.2338 0.57282 0.04155 0.0
C137 C 0.19457 0.52316 0.05121 0.0
C138 C 0.1566 0.54425 0.07731 0.0
C139 C 0.16088 0.61184 0.09624 0.0
C140 C 0.20317 0.65718 0.08857 0.0
C141 C 0.23829 0.63883 0.06123 0.0
C142 C 0.28357 0.69325 0.06095 0.0
C143 C 0.34107 0.66015 0.07474 0.0
C144 C 0.27931 0.72854 0.01812 0.0
C145 C 0.26908 0.74479 0.0929 0.0
C146 C 0.22244 0.72372 0.10835 0.0
C147 C 0.20155 0.76361 0.1383 0.0
C148 C 0.22779 0.82823 0.15139 0.0
C149 C 0.27459 0.8517 0.13469 0.0
C150 C 0.29615 0.80799 0.10603 0.0
H151 H 0.67745 0.0489 0.41057 0.0
H152 H 0.85544 0.01932 0.43586 0.0
H153 H 0.86832 0.14971 0.43609 0.0
H154 H 0.67961 0.20673 0.34319 0.0
H155 H 0.62222 0.24755 0.3624 0.0
H156 H 0.62767 0.15171 0.36068 0.0
H157 H 0.62169 0.14674 0.43897 0.0
H158 H 0.61796 0.24266 0.44128 0.0
H159 H 0.67118 0.19566 0.47525 0.0
H160 H 0.86207 0.28253 0.43995 0.0
H161 H 0.83752 0.41011 0.43518 0.0
H162 H 0.66365 0.35361 0.40796 0.0
C163 C 0.71922 0.06962 0.41518 0.0
C164 C 0.76541 0.02361 0.42343 0.0
C165 C 0.81933 0.05323 0.42943 0.0
C166 C 0.82713 0.12734 0.42995 0.0
C167 C 0.78066 0.17106 0.42403 0.0
C168 C 0.7278 0.14345 0.41574 0.0
C169 C 0.68491 0.20233 0.41076 0.0
C170 C 0.65166 0.20207 0.36664 0.0
C171 C 0.6467 0.19645 0.44353 0.0
C172 C 0.722 0.26728 0.41828 0.0
C173 C 0.77704 0.24794 0.42605 0.0
C174 C 0.81913 0.29842 0.43363 0.0
C175 C 0.8047 0.3708 0.43126 0.0
C176 C 0.74865 0.39201 0.42144 0.0
C177 C 0.70681 0.33931 0.41612 0.0
H178 H 0.81875 0.44728 0.92878 0.0
H179 H 0.64334 0.49401 0.91945 0.0
H180 H 0.62106 0.37052 0.90095 0.0
H181 H 0.80225 0.31799 0.84185 0.0
H182 H 0.85511 0.25834 0.8666 0.0
H183 H 0.85962 0.35263 0.87786 0.0
H184 H 0.86617 0.32531 0.95603 0.0
H185 H 0.86129 0.23101 0.94494 0.0
H186 H 0.81294 0.27264 0.97356 0.0
H187 H 0.61486 0.24499 0.88833 0.0
H188 H 0.6243 0.11792 0.8758 0.0
H189 H 0.80293 0.14151 0.88988 0.0
C190 C 0.77578 0.43141 0.9224 0.0
C191 C 0.73298 0.48105 0.9259 0.0
C192 C 0.6772 0.45781 0.9174 0.0
C193 C 0.66382 0.38734 0.90677 0.0
C194 C 0.70645 0.33973 0.9045 0.0
C195 C 0.76129 0.36002 0.91156 0.0
C196 C 0.79809 0.29568 0.90702 0.0
C197 C 0.8307 0.30684 0.87119 0.0
C198 C 0.83692 0.28027 0.94782 0.0
C199 C 0.75497 0.23682 0.89692 0.0
C200 C 0.70262 0.26448 0.89591 0.0
C201 C 0.65553 0.22245 0.88865 0.0
C202 C 0.66159 0.14981 0.88178 0.0
C203 C 0.71444 0.11901 0.88181 0.0
C204 C 0.76199 0.16335 0.88948 0.0
H205 H 0.30289 0.94478 0.58179 0.0
H206 H 0.1325 0.98036 0.59774 0.0
H207 H 0.12382 0.85379 0.615 0.0
H208 H 0.28186 0.7717 0.53474 0.0
H209 H 0.34598 0.73444 0.56059 0.0
H210 H 0.3406 0.82897 0.5506 0.0
H211 H 0.37194 0.85533 0.62855 0.0
H212 H 0.3778 0.76087 0.63875 0.0
H213 H 0.33503 0.81543 0.66611 0.0
H214 H 0.13113 0.7241 0.62839 0.0
H215 H 0.15523 0.59793 0.64026 0.0
H216 H 0.32141 0.64135 0.61658 0.0
C217 C 0.2639 0.92606 0.58922 0.0
C218 C 0.21833 0.97317 0.58823 0.0
C219 C 0.16807 0.946 0.59813 0.0
C220 C 0.16262 0.87389 0.60798 0.0
C221 C 0.20778 0.82894 0.60807 0.0
C222 C 0.25763 0.85368 0.59928 0.0
C223 C 0.29935 0.793 0.6015 0.0
C224 C 0.31804 0.78136 0.55934 0.0
C225 C 0.34896 0.80701 0.63577 0.0
C226 C 0.26477 0.73049 0.6125 0.0
C227 C 0.21213 0.75292 0.6161 0.0
C228 C 0.1723 0.70586 0.62582 0.0
C229 C 0.18651 0.63392 0.63242 0.0
C230 C 0.24028 0.60889 0.62932 0.0
C231 C 0.27986 0.65827 0.61902 0.0
H232 H 0.61233 0.83777 0.30243 0.0
H233 H 0.51225 0.8168 0.39922 0.0
H234 H 0.4634 0.92944 0.37587 0.0
H235 H 0.62105 0.03596 0.3036 0.0
H236 H 0.61638 0.04069 0.24812 0.0
H237 H 0.6485 0.96461 0.27595 0.0
H238 H 0.58095 0.87763 0.23062 0.0
H239 H 0.55177 0.9534 0.20153 0.0
H240 H 0.50776 0.89408 0.22489 0.0
H241 H 0.42089 0.03648 0.33819 0.0
H242 H 0.37404 0.10996 0.28108 0.0
H243 H 0.50258 0.06208 0.2091 0.0
C244 C 0.57987 0.85714 0.31845 0.0
C245 C 0.5647 0.81898 0.35182 0.0
C246 C 0.52303 0.84529 0.37286 0.0
C247 C 0.49617 0.90968 0.36039 0.0
C248 C 0.5125 0.94695 0.32743 0.0
C249 C 0.55287 0.92095 0.30641 0.0
C250 C 0.55821 0.96578 0.26894 0.0
C251 C 0.61438 0.00403 0.27451 0.0
C252 C 0.54907 0.92005 0.22917 0.0
C253 C 0.51169 0.01827 0.2703 0.0
C254 C 0.48749 0.00854 0.3053 0.0
C255 C 0.43981 0.04493 0.31092 0.0
C256 C 0.41331 0.08681 0.27828 0.0
C257 C 0.43344 0.08991 0.24021 0.0
C258 C 0.4859 0.06071 0.23777 0.0
H259 H 0.58564 0.55593 0.22117 0.0
H260 H 0.67584 0.37784 0.2834 0.0
H261 H 0.62847 0.29515 0.23011 0.0
H262 H 0.46195 0.47649 0.19684 0.0
H263 H 0.44233 0.51531 0.14621 0.0
H264 H 0.49051 0.56103 0.18452 0.0
H265 H 0.56203 0.56403 0.1342 0.0
H266 H 0.51368 0.5182 0.09556 0.0
H267 H 0.5818 0.48197 0.11172 0.0
H268 H 0.55698 0.23118 0.1807 0.0
H269 H 0.47221 0.19188 0.13445 0.0
H270 H 0.43521 0.41192 0.09982 0.0
C271 C 0.5965 0.49982 0.22248 0.0
C272 C 0.63415 0.47254 0.25567 0.0
C273 C 0.64734 0.39908 0.2575 0.0
C274 C 0.62081 0.35199 0.22744 0.0
C275 C 0.58258 0.37998 0.19535 0.0
C276 C 0.57144 0.45248 0.1921 0.0
C277 C 0.52537 0.46818 0.15675 0.0
C278 C 0.47722 0.50749 0.17202 0.0
C279 C 0.54703 0.51059 0.12253 0.0
C280 C 0.50961 0.39295 0.14267 0.0
C281 C 0.5434 0.34271 0.16497 0.0
C282 C 0.53147 0.2698 0.16187 0.0
C283 C 0.48321 0.24792 0.13585 0.0
C284 C 0.44817 0.29888 0.11321 0.0
C285 C 0.46256 0.37178 0.1157 0.0
H286 H 0.49667 0.23753 0.65156 0.0
H287 H 0.36265 0.08844 0.61377 0.0
H288 H 0.42788 0.98834 0.62551 0.0
H289 H 0.61071 0.12371 0.61385 0.0
H290 H 0.65958 0.15137 0.65823 0.0
H291 H 0.60625 0.21197 0.63512 0.0
H292 H 0.57373 0.22771 0.70619 0.0
H293 H 0.62695 0.16819 0.72928 0.0
H294 H 0.55595 0.1497 0.73351 0.0
H295 H 0.49874 0.90646 0.65908 0.0
H296 H 0.56835 0.85171 0.71278 0.0
H297 H 0.66026 0.0495 0.7259 0.0
C298 C 0.48145 0.18395 0.64438 0.0
C299 C 0.42459 0.1709 0.63165 0.0
C300 C 0.40606 0.09999 0.62313 0.0
C301 C 0.443 0.04263 0.62947 0.0
C302 C 0.49857 0.05699 0.64368 0.0
C303 C 0.51794 0.12613 0.6505 0.0
C304 C 0.57734 0.12691 0.67211 0.0
C305 C 0.61574 0.15515 0.64308 0.0
C306 C 0.58379 0.1706 0.71266 0.0
C307 C 0.58647 0.04786 0.6802 0.0
C308 C 0.54117 0.00813 0.66223 0.0
C309 C 0.5354 0.93621 0.67185 0.0
C310 C 0.57505 0.90537 0.70229 0.0
C311 C 0.61995 0.94629 0.72219 0.0
C312 C 0.62743 0.01677 0.70941 0.0
H313 H 0.48724 0.72705 0.84629 0.0
H314 H 0.63219 0.59113 0.86169 0.0
H315 H 0.57498 0.49025 0.83039 0.0
H316 H 0.39048 0.58746 0.86932 0.0
H317 H 0.33467 0.62191 0.83193 0.0
H318 H 0.3868 0.68161 0.85777 0.0
H319 H 0.40629 0.72579 0.78648 0.0
H320 H 0.35482 0.66561 0.76042 0.0
H321 H 0.42452 0.66196 0.74966 0.0
H322 H 0.50388 0.40951 0.78868 0.0
H323 H 0.42127 0.34904 0.74999 0.0
H324 H 0.32171 0.53431 0.76742 0.0
C325 C 0.50667 0.67566 0.84371 0.0
C326 C 0.56401 0.66663 0.85651 0.0
C327 C 0.58814 0.59879 0.85259 0.0
C328 C 0.55607 0.5414 0.83453 0.0
C329 C 0.49982 0.55256 0.82122 0.0
C330 C 0.47509 0.61755 0.82648 0.0
C331 C 0.41391 0.61569 0.80947 0.0
C332 C 0.37943 0.62734 0.8442 0.0
C333 C 0.39905 0.67051 0.77444 0.0
C334 C 0.40826 0.54001 0.79303 0.0
C335 C 0.45839 0.50469 0.79959 0.0
C336 C 0.46419 0.43605 0.7842 0.0
C337 C 0.41732 0.40232 0.76212 0.0
C338 C 0.36538 0.43676 0.7565 0.0
C339 C 0.36087 0.50636 0.77216 0.0
H340 H 0.11854 0.97996 0.07901 0.0
H341 H 0.08511 0.19117 0.02681 0.0
H342 H 0.0022 0.14387 0.98103 0.0
H343 H 0.08185 0.88597 0.98304 0.0
H344 H 0.05342 0.81091 0.00686 0.0
H345 H 0.10846 0.86251 0.03592 0.0
H346 H 0.04885 0.88603 0.09314 0.0
H347 H 0.994 0.83356 0.06472 0.0
H348 H 0.98087 0.92406 0.07924 0.0
H349 H 0.91969 0.07203 0.94425 0.0
H350 H 0.84762 0.98272 0.9188 0.0
H351 H 0.9439 0.81943 0.99194 0.0
C352 C 0.09332 0.01659 0.05841 0.0
C353 C 0.1071 0.08928 0.05684 0.0
C354 C 0.07441 0.13528 0.02859 0.0
C355 C 0.02762 0.10887 1.00248 0.0
C356 C 0.01549 0.0363 0.00457 0.0
C357 C 0.04786 0.99094 0.03163 0.0
C358 C 0.02754 0.91502 0.02757 0.0
C359 C 0.07037 0.86574 0.01243 0.0
C360 C 0.01186 0.88815 0.06859 0.0
C361 C 0.97746 0.92477 0.99479 0.0
C362 C 0.97085 0.99486 0.98176 0.0
C363 C 0.92495 0.01678 0.95373 0.0
C364 C 0.88431 0.96576 0.93941 0.0
C365 C 0.89036 0.89398 0.95305 0.0
C366 C 0.93828 0.87345 0.98026 0.0
H367 H 0.12421 0.47548 0.56134 0.0
H368 H 0.02545 0.29941 0.59493 0.0
H369 H 0.94047 0.36621 0.56926 0.0
H370 H 0.02737 0.62247 0.58378 0.0
H371 H 0.03977 0.67415 0.53973 0.0
H372 H 0.09369 0.61874 0.56684 0.0
H373 H 0.10409 0.55444 0.4992 0.0
H374 H 0.04995 0.6082 0.471 0.0
H375 H 0.04476 0.5122 0.469 0.0
H376 H 0.86823 0.43846 0.5279 0.0
H377 H 0.80934 0.52739 0.48661 0.0
H378 H 0.95309 0.66008 0.48117 0.0
C379 C 0.08472 0.45279 0.56515 0.0
C380 C 0.081 0.38263 0.58007 0.0
C381 C 0.02879 0.35332 0.58358 0.0
C382 C 0.98038 0.39062 0.56893 0.0
C383 C 0.98513 0.45743 0.55142 0.0
C384 C 0.03575 0.48951 0.55058 0.0
C385 C 0.0288 0.55967 0.52728 0.0
C386 C 0.0485 0.62251 0.55617 0.0
C387 C 0.05868 0.55848 0.48938 0.0
C388 C 0.96673 0.56056 0.51425 0.0
C389 C 0.94256 0.50067 0.52821 0.0
C390 C 0.88637 0.48651 0.51759 0.0
C391 C 0.85346 0.53664 0.49349 0.0
C392 C 0.87689 0.60016 0.48064 0.0
C393 C 0.93431 0.61187 0.49076 0.0
H394 H 0.44867 0.17913 0.01045 0.0
H395 H 0.30688 0.05671 0.95471 0.0
H396 H 0.36555 0.98737 0.91498 0.0
H397 H 0.53729 0.15171 0.9177 0.0
H398 H 0.59821 0.14643 0.95662 0.0
H399 H 0.54328 0.20713 0.96329 0.0
H400 H 0.54065 0.14943 0.03466 0.0
H401 H 0.59255 0.08576 0.02728 0.0
H402 H 0.5264 0.05517 0.03751 0.0
H403 H 0.43912 0.90226 0.9084 0.0
H404 H 0.52185 0.82516 0.9197 0.0
H405 H 0.61964 0.00116 0.97774 0.0
C406 C 0.42964 0.14204 0.98695 0.0
C407 C 0.37372 0.12305 0.98521 0.0
C408 C 0.34955 0.07262 0.95572 0.0
C409 C 0.38294 0.03235 0.93343 0.0
C410 C 0.43982 0.04497 0.94043 0.0
C411 C 0.4629 0.10113 0.96499 0.0
C412 C 0.52544 0.09492 0.97422 0.0
C413 C 0.55264 0.15351 0.95158 0.0
C414 C 0.54743 0.09634 0.02117 0.0
C415 C 0.53321 0.02233 0.95574 0.0
C416 C 0.48352 0.99514 0.93555 0.0
C417 C 0.47856 0.9242 0.92241 0.0
C418 C 0.52538 0.88044 0.92962 0.0
C419 C 0.57644 0.90778 0.94968 0.0
C420 C 0.58081 0.97981 0.96201 0.0
H421 H 0.36114 0.41137 0.47497 0.0
H422 H 0.42315 0.3964 0.6063 0.0
H423 H 0.5005 0.47287 0.59882 0.0
H424 H 0.49697 0.4004 0.44521 0.0
H425 H 0.48205 0.46193 0.40257 0.0
H426 H 0.42733 0.40919 0.41792 0.0
H427 H 0.37194 0.52421 0.42727 0.0
H428 H 0.42624 0.5772 0.41156 0.0
H429 H 0.40401 0.59446 0.46052 0.0
H430 H 0.57075 0.55125 0.57894 0.0
H431 H 0.633 0.62778 0.54587 0.0
H432 H 0.53476 0.58672 0.42565 0.0
C433 C 0.39059 0.42549 0.50212 0.0
C434 C 0.38338 0.40182 0.54197 0.0
C435 C 0.42413 0.41864 0.57637 0.0
C436 C 0.46962 0.46079 0.57216 0.0
C437 C 0.47504 0.48438 0.53294 0.0
C438 C 0.43718 0.46724 0.4983 0.0
C439 C 0.45486 0.49835 0.45961 0.0
C440 C 0.46596 0.43891 0.42956 0.0
C441 C 0.4117 0.55174 0.4385 0.0
C442 C 0.50806 0.53584 0.47837 0.0
C443 C 0.51856 0.52676 0.52079 0.0
C444 C 0.56357 0.55825 0.54568 0.0
C445 C 0.59866 0.6013 0.52676 0.0
C446 C 0.58884 0.61145 0.4835 0.0
C447 C 0.54344 0.57796 0.45878 0.0
H448 H 0.25233 0.18857 0.73246 0.0
H449 H 0.0759 0.21332 0.69713 0.0
H450 H 0.0636 0.1957 0.76991 0.0
H451 H 0.25248 0.06722 0.82837 0.0
H452 H 0.31056 0.11617 0.85554 0.0
H453 H 0.30361 0.10341 0.8003 0.0
H454 H 0.31041 0.24035 0.79112 0.0
H455 H 0.31564 0.25376 0.8459 0.0
H456 H 0.26175 0.29773 0.81096 0.0
H457 H 0.07244 0.20506 0.84724 0.0
H458 H 0.10107 0.23716 0.92091 0.0
H459 H 0.2729 0.21648 0.90592 0.0
C460 C 0.21087 0.18458 0.73968 0.0
C461 C 0.16481 0.19922 0.709 0.0
C462 C 0.11136 0.19923 0.71993 0.0
C463 C 0.10417 0.19002 0.76135 0.0
C464 C 0.15095 0.18161 0.79153 0.0
C465 C 0.20339 0.17785 0.78108 0.0
C466 C 0.24748 0.18322 0.81928 0.0
C467 C 0.28047 0.11333 0.82628 0.0
C468 C 0.28601 0.24757 0.81662 0.0
C469 C 0.21188 0.19428 0.85248 0.0
C470 C 0.15634 0.19134 0.83615 0.0
C471 C 0.11582 0.20595 0.86046 0.0
C472 C 0.13248 0.22453 0.90229 0.0
C473 C 0.18924 0.22977 0.91928 0.0
C474 C 0.22915 0.21297 0.89401 0.0
H475 H 0.86007 0.78628 0.78445 0.0
H476 H 0.69822 0.7175 0.80552 0.0
H477 H 0.66067 0.74095 0.73192 0.0
H478 H 0.81594 0.92928 0.72254 0.0
H479 H 0.86558 0.92004 0.68783 0.0
H480 H 0.88197 0.88816 0.74024 0.0
H481 H 0.90132 0.76087 0.71463 0.0
H482 H 0.88772 0.79316 0.66218 0.0
H483 H 0.85014 0.71734 0.67705 0.0
H484 H 0.63933 0.78715 0.65777 0.0
H485 H 0.63997 0.82637 0.58578 0.0
H486 H 0.81622 0.86659 0.61547 0.0
C487 C 0.81731 0.773 0.77306 0.0
C488 C 0.78225 0.74934 0.80036 0.0
C489 C 0.72609 0.73422 0.78484 0.0
C490 C 0.70424 0.74848 0.74325 0.0
C491 C 0.73933 0.77695 0.71787 0.0
C492 C 0.79502 0.78696 0.73196 0.0
C493 C 0.82385 0.82037 0.69931 0.0
C494 C 0.84826 0.8938 0.71335 0.0
C495 C 0.86836 0.76992 0.68758 0.0
C496 C 0.77575 0.82786 0.66449 0.0
C497 C 0.72714 0.80352 0.67581 0.0
C498 C 0.6773 0.80562 0.64849 0.0
C499 C 0.67796 0.82899 0.6078 0.0
C500 C 0.72825 0.84933 0.59493 0.0
C501 C 0.77713 0.85138 0.62428 0.0
H502 H 0.72654 0.78413 0.28787 0.0
H503 H 0.90268 0.74802 0.31788 0.0
H504 H 0.90845 0.74073 0.24351 0.0
H505 H 0.70169 0.65807 0.21799 0.0
H506 H 0.64971 0.70071 0.18078 0.0
H507 H 0.6593 0.72798 0.23416 0.0
H508 H 0.6772 0.85925 0.21515 0.0
H509 H 0.66329 0.83342 0.16134 0.0
H510 H 0.72695 0.87827 0.18174 0.0
H511 H 0.89181 0.703 0.17093 0.0
H512 H 0.85876 0.66654 0.09955 0.0
H513 H 0.69127 0.72624 0.11303 0.0
C514 C 0.76691 0.78056 0.27859 0.0
C515 C 0.81458 0.7686 0.30855 0.0
C516 C 0.86624 0.75962 0.29544 0.0
C517 C 0.86957 0.75408 0.25321 0.0
C518 C 0.82088 0.75818 0.22461 0.0
C519 C 0.77063 0.77363 0.23643 0.0
C520 C 0.72371 0.76591 0.19998 0.0
C521 C 0.68114 0.70985 0.20879 0.0
C522 C 0.69615 0.83853 0.18887 0.0
C523 C 0.75524 0.74033 0.16642 0.0
C524 C 0.81115 0.73645 0.18159 0.0
C525 C 0.84846 0.7083 0.15823 0.0
C526 C 0.82887 0.68697 0.11761 0.0
C527 C 0.77227 0.69442 0.09998 0.0
C528 C 0.73474 0.7202 0.12524 0.0
H529 H 0.273 0.14764 0.40008 0.0
H530 H 0.1096 0.22584 0.41181 0.0
H531 H 0.09173 0.25316 0.33732 0.0
H532 H 0.30473 0.27203 0.33109 0.0
H533 H 0.33605 0.21609 0.29692 0.0
H534 H 0.33908 0.19092 0.35042 0.0
H535 H 0.29594 0.07145 0.33217 0.0
H536 H 0.28432 0.08438 0.27671 0.0
H537 H 0.22748 0.06443 0.30264 0.0
H538 H 0.09405 0.28002 0.2611 0.0
H539 H 0.1141 0.29307 0.18962 0.0
H540 H 0.27427 0.19481 0.22788 0.0
C541 C 0.23322 0.16972 0.38698 0.0
C542 C 0.19291 0.18448 0.41218 0.0
C543 C 0.1413 0.2134 0.39342 0.0
C544 C 0.1307 0.2296 0.35099 0.0
C545 C 0.17169 0.21577 0.32724 0.0
C546 C 0.2215 0.18534 0.34446 0.0
C547 C 0.25809 0.17437 0.31196 0.0
C548 C 0.31275 0.21559 0.32328 0.0
C549 C 0.26723 0.09405 0.30558 0.0
C550 C 0.22238 0.20635 0.27435 0.0
C551 C 0.17241 0.2295 0.28354 0.0
C552 C 0.133 0.26149 0.25354 0.0
C553 C 0.14485 0.26905 0.21302 0.0
C554 C 0.19569 0.24469 0.20284 0.0
C555 C 0.23481 0.21345 0.23428 0.0
loop_
_geom_bond_atom_site_label_1
_geom_bond_atom_site_label_2
_geom_bond_distance
_geom_bond_site_symmetry_2
_ccdc_geom_bond_type
C0 O27 1.312 . S
C0 O28 1.208 . S
C1 O22 1.331 . S
C1 O25 1.244 . S
C2 O24 1.262 . S
C2 O26 1.273 . S
Mg3 O5 1.932 1_565 S
Mg3 O12 2.081 . S
Mg3 O14 2.023 . S
Mg3 O18 2.031 . S
Mg3 O27 2.291 1_565 S
Mg4 O5 1.958 1_565 S
Mg4 O15 1.942 . S
Mg4 O16 1.955 . S
Mg4 O23 1.986 . S
O5 Mg3 1.932 1_545 S
O5 Mg4 1.958 1_545 S
O5 Mg6 1.928 . S
Mg6 O5 1.928 . S
Mg6 O7 1.915 . S
Mg6 O11 2.013 . S
Mg6 O17 2.114 . S
Mg6 O21 2.013 . S
Mg6 O27 2.114 . S
O7 Mg6 1.915 . S
O7 Mg8 1.936 . S
O7 Mg9 1.963 . S
Mg8 O7 1.936 . S
Mg8 O17 2.291 . S
Mg8 O22 2.081 . S
Mg8 O24 2.023 . S
Mg8 O28 2.031 . S
Mg9 O7 1.963 . S
Mg9 O13 1.986 . S
Mg9 O25 1.942 . S
Mg9 O26 1.955 . S
C10 O21 1.191 . S
C10 O23 1.307 1_545 S
O11 Mg6 2.013 . S
O11 C30 1.191 . S
O12 Mg3 2.081 . S
O12 C20 1.331 . S
O13 Mg9 1.986 . S
O13 C30 1.307 . S
O14 Mg3 2.023 . S
O14 C29 1.264 . S
O15 Mg4 1.942 . S
O15 C20 1.244 . S
O16 Mg4 1.955 . S
O16 C29 1.273 . S
O17 Mg6 2.114 . S
O17 Mg8 2.291 . S
O17 C19 1.312 . S
O18 Mg3 2.031 . S
O18 C19 1.208 1_565 S
C19 O17 1.312 . S
C19 O18 1.208 1_545 S
C20 O12 1.331 . S
C20 O15 1.244 . S
O21 Mg6 2.013 . S
O21 C10 1.191 . S
O22 C1 1.331 . S
O22 Mg8 2.081 . S
O23 Mg4 1.986 . S
O23 C10 1.307 1_565 S
O24 C2 1.262 . S
O24 Mg8 2.023 . S
O25 C1 1.244 . S
O25 Mg9 1.942 . S
O26 C2 1.273 . S
O26 Mg9 1.955 . S
O27 C0 1.312 . S
O27 Mg3 2.291 1_545 S
O27 Mg6 2.114 . S
O28 C0 1.208 . S
O28 Mg8 2.031 . S
C29 O14 1.264 . S
C29 O16 1.273 . S
C30 O11 1.191 . S
C30 O13 1.307 . S
C31 O58 1.312 . S
C31 O59 1.208 . S
C32 O53 1.331 . S
C32 O56 1.244 . S
C33 O55 1.264 . S
C33 O57 1.273 . S
Mg34 O36 1.936 . S
Mg34 O43 2.081 . S
Mg34 O45 2.023 . S
Mg34 O49 2.031 . S
Mg34 O58 2.291 . S
Mg35 O36 1.963 . S
Mg35 O46 1.942 . S
Mg35 O47 1.955 . S
Mg35 O54 1.986 . S
O36 Mg34 1.936 . S
O36 Mg35 1.963 . S
O36 Mg37 1.915 . S
Mg37 O36 1.915 . S
Mg37 O38 1.915 . S
Mg37 O42 2.013 . S
Mg37 O48 2.114 . S
Mg37 O52 2.013 . S
Mg37 O58 2.114 . S
O38 Mg37 1.915 . S
O38 Mg39 1.936 . S
O38 Mg40 1.963 . S
Mg39 O38 1.936 . S
Mg39 O48 2.291 . S
Mg39 O53 2.081 . S
Mg39 O55 2.023 . S
Mg39 O59 2.031 . S
Mg40 O38 1.963 . S
Mg40 O44 1.986 . S
Mg40 O56 1.942 . S
Mg40 O57 1.955 . S
C41 O52 1.191 . S
C41 O54 1.307 . S
O42 Mg37 2.013 . S
O42 C61 1.191 . S
O43 Mg34 2.081 . S
O43 C51 1.331 . S
O44 Mg40 1.986 . S
O44 C61 1.307 . S
O45 Mg34 2.023 . S
O45 C60 1.264 . S
O46 Mg35 1.942 . S
O46 C51 1.244 . S
O47 Mg35 1.955 . S
O47 C60 1.273 . S
O48 Mg37 2.114 . S
O48 Mg39 2.291 . S
O48 C50 1.312 . S
O49 Mg34 2.031 . S
O49 C50 1.208 . S
C50 O48 1.312 . S
C50 O49 1.208 . S
C51 O43 1.331 . S
C51 O46 1.244 . S
O52 Mg37 2.013 . S
O52 C41 1.191 . S
O53 C32 1.331 . S
O53 Mg39 2.081 . S
O54 Mg35 1.986 . S
O54 C41 1.307 . S
O55 C33 1.264 . S
O55 Mg39 2.023 . S
O56 C32 1.244 . S
O56 Mg40 1.942 . S
O57 C33 1.273 . S
O57 Mg40 1.955 . S
O58 C31 1.312 . S
O58 Mg34 2.291 . S
O58 Mg37 2.114 . S
O59 C31 1.208 . S
O59 Mg39 2.031 . S
C60 O45 1.264 . S
C60 O47 1.273 . S
C61 O42 1.191 . S
C61 O44 1.307 . S
C62 O89 1.312 . S
C62 O90 1.208 . S
C63 O84 1.330 1_554 S
C63 O87 1.244 1_554 S
C64 O86 1.264 . S
C64 O88 1.273 . S
Mg65 O67 1.936 1_545 S
Mg65 O74 2.081 . S
Mg65 O76 2.023 . S
Mg65 O80 2.031 1_545 S
Mg65 O89 2.291 1_545 S
Mg66 O67 1.963 1_545 S
Mg66 O77 1.942 . S
Mg66 O78 1.955 . S
Mg66 O85 1.986 1_545 S
O67 Mg65 1.936 1_565 S
O67 Mg66 1.963 1_565 S
O67 Mg68 1.915 . S
Mg68 O67 1.915 . S
Mg68 O69 1.915 . S
Mg68 O73 2.013 . S
Mg68 O79 2.114 . S
Mg68 O83 2.013 . S
Mg68 O89 2.114 . S
O69 Mg68 1.915 . S
O69 Mg70 1.936 . S
O69 Mg71 1.963 . S
Mg70 O69 1.936 . S
Mg70 O79 2.291 . S
Mg70 O84 2.084 . S
Mg70 O86 2.023 . S
Mg70 O90 2.031 . S
Mg71 O69 1.963 . S
Mg71 O75 1.986 . S
Mg71 O87 1.942 . S
Mg71 O88 1.955 . S
C72 O83 1.191 . S
C72 O85 1.307 . S
O73 Mg68 2.013 . S
O73 C92 1.191 . S
O74 Mg65 2.081 . S
O74 C82 1.331 . S
O75 Mg71 1.986 . S
O75 C92 1.307 . S
O76 Mg65 2.023 . S
O76 C91 1.264 . S
O77 Mg66 1.942 . S
O77 C82 1.244 . S
O78 Mg66 1.955 . S
O78 C91 1.273 . S
O79 Mg68 2.114 . S
O79 Mg70 2.291 . S
O79 C81 1.312 . S
O80 Mg65 2.031 1_565 S
O80 C81 1.208 . S
C81 O79 1.312 . S
C81 O80 1.208 . S
C82 O74 1.331 . S
C82 O77 1.244 . S
O83 Mg68 2.013 . S
O83 C72 1.191 . S
O84 C63 1.330 1_556 S
O84 Mg70 2.084 . S
O85 Mg66 1.986 1_565 S
O85 C72 1.307 . S
O86 C64 1.264 . S
O86 Mg70 2.023 . S
O87 C63 1.244 1_556 S
O87 Mg71 1.942 . S
O88 C64 1.273 . S
O88 Mg71 1.955 . S
O89 C62 1.312 . S
O89 Mg65 2.291 1_565 S
O89 Mg68 2.114 . S
O90 C62 1.208 . S
O90 Mg70 2.031 . S
C91 O76 1.264 . S
C91 O78 1.273 . S
C92 O73 1.191 . S
C92 O75 1.307 . S
C93 O120 1.312 . S
C93 O121 1.208 . S
C94 O115 1.331 . S
C94 O118 1.244 . S
C95 O117 1.264 . S
C95 O119 1.273 . S
Mg96 O98 1.936 . S
Mg96 O105 2.081 . S
Mg96 O107 2.023 . S
Mg96 O111 2.031 . S
Mg96 O120 2.291 . S
Mg97 O98 1.963 . S
Mg97 O108 1.942 . S
Mg97 O109 1.955 . S
Mg97 O116 1.986 . S
O98 Mg96 1.936 . S
O98 Mg97 1.963 . S
O98 Mg99 1.915 . S
Mg99 O98 1.915 . S
Mg99 O100 1.915 . S
Mg99 O104 2.013 . S
Mg99 O110 2.114 . S
Mg99 O114 2.013 . S
Mg99 O120 2.114 . S
O100 Mg99 1.915 . S
O100 Mg101 1.936 . S
O100 Mg102 1.963 . S
Mg101 O100 1.936 . S
Mg101 O110 2.291 . S
Mg101 O115 2.081 . S
Mg101 O117 2.023 . S
Mg101 O121 2.031 . S
Mg102 O100 1.963 . S
Mg102 O106 1.986 . S
Mg102 O118 1.942 . S
Mg102 O119 1.955 . S
C103 O114 1.191 . S
C103 O116 1.307 . S
O104 Mg99 2.013 . S
O104 C123 1.191 . S
O105 Mg96 2.081 . S
O105 C113 1.331 . S
O106 Mg102 1.986 . S
O106 C123 1.307 . S
O107 Mg96 2.023 . S
O107 C122 1.264 . S
O108 Mg97 1.942 . S
O108 C113 1.244 . S
O109 Mg97 1.955 . S
O109 C122 1.273 . S
O110 Mg99 2.114 . S
O110 Mg101 2.291 . S
O110 C112 1.312 . S
O111 Mg96 2.031 . S
O111 C112 1.208 . S
C112 O110 1.312 . S
C112 O111 1.208 . S
C113 O105 1.331 . S
C113 O108 1.244 . S
O114 Mg99 2.013 . S
O114 C103 1.191 . S
O115 C94 1.331 . S
O115 Mg101 2.081 . S
O116 Mg97 1.986 . S
O116 C103 1.307 . S
O117 C95 1.264 . S
O117 Mg101 2.023 . S
O118 C94 1.244 . S
O118 Mg102 1.942 . S
O119 C95 1.273 . S
O119 Mg102 1.955 . S
O120 C93 1.312 . S
O120 Mg96 2.291 . S
O120 Mg99 2.114 . S
O121 C93 1.208 . S
O121 Mg101 2.031 . S
C122 O107 1.264 . S
C122 O109 1.273 . S
C123 O104 1.191 . S
C123 O106 1.307 . S
H124 C136 0.930 . S
H125 C138 0.930 . S
H126 C139 0.930 . S
H127 C143 0.959 . S
H128 C143 0.959 . S
H129 C143 0.961 . S
H130 C144 0.960 . S
H131 C144 0.961 . S
H132 C144 0.959 . S
H133 C147 0.929 . S
H134 C148 0.931 . S
H135 C150 0.930 . S
C136 H124 0.930 . S
C136 C137 1.399 . S
C136 C141 1.399 . S
C137 C136 1.399 . S
C137 C138 1.376 . S
C138 H125 0.930 . S
C138 C137 1.376 . S
C138 C139 1.388 . S
C139 H126 0.930 . S
C139 C138 1.388 . S
C139 C140 1.390 . S
C140 C139 1.390 . S
C140 C141 1.394 . S
C140 C146 1.465 . S
C141 C136 1.399 . S
C141 C140 1.394 . S
C141 C142 1.516 . S
C142 C141 1.516 . S
C142 C143 1.502 . S
C142 C144 1.561 . S
C142 C145 1.526 . S
C143 H127 0.959 . S
C143 H128 0.959 . S
C143 H129 0.961 . S
C143 C142 1.502 . S
C144 H130 0.960 . S
C144 H131 0.961 . S
C144 H132 0.959 . S
C144 C142 1.561 . S
C145 C142 1.526 . S
C145 C146 1.396 . S
C145 C150 1.390 . S
C146 C140 1.465 . S
C146 C145 1.396 . S
C146 C147 1.399 . S
C147 H133 0.929 . S
C147 C146 1.399 . S
C147 C148 1.385 . S
C148 H134 0.931 . S
C148 C147 1.385 . S
C148 C149 1.389 . S
C149 C148 1.389 . S
C149 C150 1.387 . S
C150 H135 0.930 . S
C150 C145 1.390 . S
C150 C149 1.387 . S
H151 C163 0.930 . S
H152 C165 0.930 . S
H153 C166 0.930 . S
H154 C170 0.959 . S
H155 C170 0.959 . S
H156 C170 0.961 . S
H157 C171 0.960 . S
H158 C171 0.961 . S
H159 C171 0.959 . S
H160 C174 0.929 . S
H161 C175 0.931 . S
H162 C177 0.930 . S
C163 H151 0.930 . S
C163 C164 1.399 . S
C163 C168 1.399 1_565 S
C164 C163 1.399 . S
C164 C165 1.376 . S
C165 H152 0.930 . S
C165 C164 1.376 . S
C165 C166 1.388 1_565 S
C166 H153 0.930 . S
C166 C165 1.388 1_545 S
C166 C167 1.390 . S
C167 C166 1.390 . S
C167 C168 1.394 . S
C167 C173 1.465 . S
C168 C163 1.399 1_545 S
C168 C167 1.394 . S
C168 C169 1.516 . S
C169 C168 1.516 . S
C169 C170 1.502 . S
C169 C171 1.561 . S
C169 C172 1.526 . S
C170 H154 0.959 . S
C170 H155 0.959 . S
C170 H156 0.961 . S
C170 C169 1.502 . S
C171 H157 0.960 . S
C171 H158 0.961 . S
C171 H159 0.959 . S
C171 C169 1.561 . S
C172 C169 1.526 . S
C172 C173 1.396 . S
C172 C177 1.390 . S
C173 C167 1.465 . S
C173 C172 1.396 . S
C173 C174 1.399 . S
C174 H160 0.929 . S
C174 C173 1.399 . S
C174 C175 1.385 . S
C175 H161 0.931 . S
C175 C174 1.385 . S
C175 C176 1.389 . S
C176 C175 1.389 . S
C176 C177 1.387 . S
C177 H162 0.930 . S
C177 C172 1.390 . S
C177 C176 1.387 . S
H178 C190 0.930 . S
H179 C192 0.930 . S
H180 C193 0.930 . S
H181 C197 0.959 . S
H182 C197 0.959 . S
H183 C197 0.961 . S
H184 C198 0.960 . S
H185 C198 0.961 . S
H186 C198 0.959 . S
H187 C201 0.929 . S
H188 C202 0.931 . S
H189 C204 0.930 . S
C190 H178 0.930 . S
C190 C191 1.399 . S
C190 C195 1.399 . S
C191 C190 1.399 . S
C191 C192 1.376 . S
C192 H179 0.930 . S
C192 C191 1.376 . S
C192 C193 1.388 . S
C193 H180 0.930 . S
C193 C192 1.388 . S
C193 C194 1.390 . S
C194 C193 1.390 . S
C194 C195 1.394 . S
C194 C200 1.465 . S
C195 C190 1.399 . S
C195 C194 1.394 . S
C195 C196 1.516 . S
C196 C195 1.516 . S
C196 C197 1.502 . S
C196 C198 1.561 . S
C196 C199 1.526 . S
C197 H181 0.959 . S
C197 H182 0.959 . S
C197 H183 0.961 . S
C197 C196 1.502 . S
C198 H184 0.960 . S
C198 H185 0.961 . S
C198 H186 0.959 . S
C198 C196 1.561 . S
C199 C196 1.526 . S
C199 C200 1.396 . S
C199 C204 1.390 . S
C200 C194 1.465 . S
C200 C199 1.396 . S
C200 C201 1.399 . S
C201 H187 0.929 . S
C201 C200 1.399 . S
C201 C202 1.385 . S
C202 H188 0.931 . S
C202 C201 1.385 . S
C202 C203 1.389 . S
C203 C202 1.389 . S
C203 C204 1.387 . S
C204 H189 0.930 . S
C204 C199 1.390 . S
C204 C203 1.387 . S
H205 C217 0.930 . S
H206 C219 0.930 . S
H207 C220 0.930 . S
H208 C224 0.959 . S
H209 C224 0.959 . S
H210 C224 0.961 . S
H211 C225 0.960 . S
H212 C225 0.961 . S
H213 C225 0.959 . S
H214 C228 0.929 . S
H215 C229 0.931 . S
H216 C231 0.930 . S
C217 H205 0.930 . S
C217 C218 1.399 . S
C217 C222 1.399 1_545 S
C218 C217 1.399 . S
C218 C219 1.376 . S
C219 H206 0.930 . S
C219 C218 1.376 . S
C219 C220 1.388 1_545 S
C220 H207 0.930 . S
C220 C219 1.388 1_565 S
C220 C221 1.390 . S
C221 C220 1.390 . S
C221 C222 1.394 . S
C221 C227 1.465 . S
C222 C217 1.399 1_565 S
C222 C221 1.394 . S
C222 C223 1.516 . S
C223 C222 1.516 . S
C223 C224 1.502 . S
C223 C225 1.561 . S
C223 C226 1.526 . S
C224 H208 0.959 . S
C224 H209 0.959 . S
C224 H210 0.961 . S
C224 C223 1.502 . S
C225 H211 0.960 . S
C225 H212 0.961 . S
C225 H213 0.959 . S
C225 C223 1.561 . S
C226 C223 1.526 . S
C226 C227 1.396 . S
C226 C231 1.390 . S
C227 C221 1.465 . S
C227 C226 1.396 . S
C227 C228 1.399 . S
C228 H214 0.929 . S
C228 C227 1.399 . S
C228 C229 1.385 . S
C229 H215 0.931 . S
C229 C228 1.385 . S
C229 C230 1.389 . S
C230 C229 1.389 . S
C230 C231 1.387 . S
C231 H216 0.930 . S
C231 C226 1.390 . S
C231 C230 1.387 . S
H232 C244 0.930 . S
H233 C246 0.930 . S
H234 C247 0.930 . S
H235 C251 0.959 . S
H236 C251 0.959 . S
H237 C251 0.961 . S
H238 C252 0.960 . S
H239 C252 0.961 . S
H240 C252 0.959 . S
H241 C255 0.929 . S
H242 C256 0.931 . S
H243 C258 0.930 . S
C244 H232 0.930 . S
C244 C245 1.399 . S
C244 C249 1.399 . S
C245 C244 1.399 . S
C245 C246 1.376 . S
C246 H233 0.930 . S
C246 C245 1.376 . S
C246 C247 1.388 . S
C247 H234 0.930 . S
C247 C246 1.388 . S
C247 C248 1.390 . S
C248 C247 1.390 . S
C248 C249 1.394 . S
C248 C254 1.465 . S
C249 C244 1.399 . S
C249 C248 1.394 . S
C249 C250 1.516 . S
C250 C249 1.516 . S
C250 C251 1.502 . S
C250 C252 1.561 . S
C250 C253 1.526 . S
C251 H235 0.959 . S
C251 H236 0.959 . S
C251 H237 0.961 . S
C251 C250 1.502 . S
C252 H238 0.960 . S
C252 H239 0.961 . S
C252 H240 0.959 . S
C252 C250 1.561 . S
C253 C250 1.526 . S
C253 C254 1.396 . S
C253 C258 1.390 . S
C254 C248 1.465 . S
C254 C253 1.396 . S
C254 C255 1.399 . S
C255 H241 0.929 . S
C255 C254 1.399 . S
C255 C256 1.385 . S
C256 H242 0.931 . S
C256 C255 1.385 . S
C256 C257 1.389 . S
C257 C256 1.389 . S
C257 C258 1.387 . S
C258 H243 0.930 . S
C258 C253 1.390 . S
C258 C257 1.387 . S
H259 C271 0.930 . S
H260 C273 0.930 . S
H261 C274 0.930 . S
H262 C278 0.959 . S
H263 C278 0.959 . S
H264 C278 0.961 . S
H265 C279 0.960 . S
H266 C279 0.961 . S
H267 C279 0.959 . S
H268 C282 0.929 . S
H269 C283 0.931 . S
H270 C285 0.930 . S
C271 H259 0.930 . S
C271 C272 1.399 . S
C271 C276 1.399 . S
C272 C271 1.399 . S
C272 C273 1.376 . S
C273 H260 0.930 . S
C273 C272 1.376 . S
C273 C274 1.388 . S
C274 H261 0.930 . S
C274 C273 1.388 . S
C274 C275 1.390 . S
C275 C274 1.390 . S
C275 C276 1.394 . S
C275 C281 1.465 . S
C276 C271 1.399 . S
C276 C275 1.394 . S
C276 C277 1.516 . S
C277 C276 1.516 . S
C277 C278 1.502 . S
C277 C279 1.561 . S
C277 C280 1.526 . S
C278 H262 0.959 . S
C278 H263 0.959 . S
C278 H264 0.961 . S
C278 C277 1.502 . S
C279 H265 0.960 . S
C279 H266 0.961 . S
C279 H267 0.959 . S
C279 C277 1.561 . S
C280 C277 1.526 . S
C280 C281 1.396 . S
C280 C285 1.390 . S
C281 C275 1.465 . S
C281 C280 1.396 . S
C281 C282 1.399 . S
C282 H268 0.929 . S
C282 C281 1.399 . S
C282 C283 1.385 . S
C283 H269 0.931 . S
C283 C282 1.385 . S
C283 C284 1.389 . S
C284 C283 1.389 . S
C284 C285 1.387 . S
C285 H270 0.930 . S
C285 C280 1.390 . S
C285 C284 1.387 . S
H286 C298 0.930 . S
H287 C300 0.930 . S
H288 C301 0.930 . S
H289 C305 0.959 . S
H290 C305 0.959 . S
H291 C305 0.961 . S
H292 C306 0.960 . S
H293 C306 0.961 . S
H294 C306 0.959 . S
H295 C309 0.929 . S
H296 C310 0.931 1_565 S
H297 C312 0.930 . S
C298 H286 0.930 . S
C298 C299 1.399 . S
C298 C303 1.399 . S
C299 C298 1.399 . S
C299 C300 1.376 . S
C300 H287 0.930 . S
C300 C299 1.376 . S
C300 C301 1.388 . S
C301 H288 0.930 . S
C301 C300 1.388 . S
C301 C302 1.390 . S
C302 C301 1.390 . S
C302 C303 1.394 . S
C302 C308 1.465 . S
C303 C298 1.399 . S
C303 C302 1.394 . S
C303 C304 1.516 . S
C304 C303 1.516 . S
C304 C305 1.502 . S
C304 C306 1.561 . S
C304 C307 1.526 . S
C305 H289 0.959 . S
C305 H290 0.959 . S
C305 H291 0.961 . S
C305 C304 1.502 . S
C306 H292 0.960 . S
C306 H293 0.961 . S
C306 H294 0.959 . S
C306 C304 1.561 . S
C307 C304 1.526 . S
C307 C308 1.396 . S
C307 C312 1.390 . S
C308 C302 1.465 . S
C308 C307 1.396 . S
C308 C309 1.399 . S
C309 H295 0.929 . S
C309 C308 1.399 . S
C309 C310 1.385 . S
C310 H296 0.931 1_545 S
C310 C309 1.385 . S
C310 C311 1.389 . S
C311 C310 1.389 . S
C311 C312 1.387 . S
C312 H297 0.930 . S
C312 C307 1.390 . S
C312 C311 1.387 . S
H313 C325 0.930 . S
H314 C327 0.930 . S
H315 C328 0.930 . S
H316 C332 0.959 . S
H317 C332 0.959 . S
H318 C332 0.961 . S
H319 C333 0.960 . S
H320 C333 0.961 . S
H321 C333 0.959 . S
H322 C336 0.929 . S
H323 C337 0.931 . S
H324 C339 0.930 . S
C325 H313 0.930 . S
C325 C326 1.399 . S
C325 C330 1.399 . S
C326 C325 1.399 . S
C326 C327 1.376 . S
C327 H314 0.930 . S
C327 C326 1.376 . S
C327 C328 1.388 . S
C328 H315 0.930 . S
C328 C327 1.388 . S
C328 C329 1.390 . S
C329 C328 1.390 . S
C329 C330 1.394 . S
C329 C335 1.465 . S
C330 C325 1.399 . S
C330 C329 1.394 . S
C330 C331 1.516 . S
C331 C330 1.516 . S
C331 C332 1.502 . S
C331 C333 1.561 . S
C331 C334 1.526 . S
C332 H316 0.959 . S
C332 H317 0.959 . S
C332 H318 0.961 . S
C332 C331 1.502 . S
C333 H319 0.960 . S
C333 H320 0.961 . S
C333 H321 0.959 . S
C333 C331 1.561 . S
C334 C331 1.526 . S
C334 C335 1.396 . S
C334 C339 1.390 . S
C335 C329 1.465 . S
C335 C334 1.396 . S
C335 C336 1.399 . S
C336 H322 0.929 . S
C336 C335 1.399 . S
C336 C337 1.385 . S
C337 H323 0.931 . S
C337 C336 1.385 . S
C337 C338 1.389 . S
C338 C337 1.389 . S
C338 C339 1.387 . S
C339 H324 0.930 . S
C339 C334 1.390 . S
C339 C338 1.387 . S
H340 C352 0.930 . S
H341 C354 0.930 . S
H342 C355 0.930 . S
H343 C359 0.959 . S
H344 C359 0.959 . S
H345 C359 0.961 . S
H346 C360 0.960 . S
H347 C360 0.961 1_656 S
H348 C360 0.959 . S
H349 C363 0.929 . S
H350 C364 0.931 . S
H351 C366 0.930 . S
C352 H340 0.930 . S
C352 C353 1.399 1_565 S
C352 C357 1.399 . S
C353 C352 1.399 1_545 S
C353 C354 1.376 . S
C354 H341 0.930 . S
C354 C353 1.376 . S
C354 C355 1.388 . S
C355 H342 0.930 . S
C355 C354 1.388 . S
C355 C356 1.390 . S
C356 C355 1.390 . S
C356 C357 1.394 1_545 S
C356 C362 1.465 1_455 S
C357 C352 1.399 . S
C357 C356 1.394 1_565 S
C357 C358 1.516 1_554 S
C358 C357 1.516 1_556 S
C358 C359 1.502 . S
C358 C360 1.561 1_556 S
C358 C361 1.526 1_455 S
C359 H343 0.959 . S
C359 H344 0.959 . S
C359 H345 0.961 . S
C359 C358 1.502 . S
C360 H346 0.960 . S
C360 H347 0.961 1_454 S
C360 H348 0.959 . S
C360 C358 1.561 1_554 S
C361 C358 1.526 1_655 S
C361 C362 1.396 1_566 S
C361 C366 1.390 . S
C362 C356 1.465 1_655 S
C362 C361 1.396 1_544 S
C362 C363 1.399 . S
C363 H349 0.929 . S
C363 C362 1.399 . S
C363 C364 1.385 1_554 S
C364 H350 0.931 . S
C364 C363 1.385 1_556 S
C364 C365 1.389 1_545 S
C365 C364 1.389 1_565 S
C365 C366 1.387 . S
C366 H351 0.930 . S
C366 C361 1.390 . S
C366 C365 1.387 . S
H367 C379 0.930 . S
H368 C381 0.930 . S
H369 C382 0.930 . S
H370 C386 0.959 . S
H371 C386 0.959 . S
H372 C386 0.961 . S
H373 C387 0.960 . S
H374 C387 0.961 . S
H375 C387 0.959 . S
H376 C390 0.929 . S
H377 C391 0.931 . S
H378 C393 0.930 . S
C379 H367 0.930 . S
C379 C380 1.399 . S
C379 C384 1.399 . S
C380 C379 1.399 . S
C380 C381 1.376 . S
C381 H368 0.930 . S
C381 C380 1.376 . S
C381 C382 1.388 . S
C382 H369 0.930 . S
C382 C381 1.388 . S
C382 C383 1.390 . S
C383 C382 1.390 . S
C383 C384 1.394 . S
C383 C389 1.465 1_455 S
C384 C379 1.399 . S
C384 C383 1.394 . S
C384 C385 1.516 . S
C385 C384 1.516 . S
C385 C386 1.502 . S
C385 C387 1.561 . S
C385 C388 1.526 1_455 S
C386 H370 0.959 . S
C386 H371 0.959 . S
C386 H372 0.961 . S
C386 C385 1.502 . S
C387 H373 0.960 . S
C387 H374 0.961 . S
C387 H375 0.959 . S
C387 C385 1.561 . S
C388 C385 1.526 1_655 S
C388 C389 1.396 . S
C388 C393 1.390 . S
C389 C383 1.465 1_655 S
C389 C388 1.396 . S
C389 C390 1.399 . S
C390 H376 0.929 . S
C390 C389 1.399 . S
C390 C391 1.385 . S
C391 H377 0.931 . S
C391 C390 1.385 . S
C391 C392 1.389 . S
C392 C391 1.389 . S
C392 C393 1.387 . S
C393 H378 0.930 . S
C393 C388 1.390 . S
C393 C392 1.387 . S
H394 C406 0.930 . S
H395 C408 0.930 . S
H396 C409 0.930 . S
H397 C413 0.959 1_565 S
H398 C413 0.959 . S
H399 C413 0.961 . S
H400 C414 0.960 . S
H401 C414 0.961 . S
H402 C414 0.959 . S
H403 C417 0.929 . S
H404 C418 0.931 . S
H405 C420 0.930 . S
C406 H394 0.930 . S
C406 C407 1.399 1_556 S
C406 C411 1.399 . S
C407 C406 1.399 1_554 S
C407 C408 1.376 1_545 S
C408 H395 0.930 . S
C408 C407 1.376 1_565 S
C408 C409 1.388 . S
C409 H396 0.930 . S
C409 C408 1.388 . S
C409 C410 1.390 . S
C410 C409 1.390 . S
C410 C411 1.394 1_564 S
C410 C416 1.465 . S
C411 C406 1.399 . S
C411 C410 1.394 1_546 S
C411 C412 1.516 . S
C412 C411 1.516 . S
C412 C413 1.502 . S
C412 C414 1.561 . S
C412 C415 1.526 . S
C413 H397 0.959 1_545 S
C413 H398 0.959 . S
C413 H399 0.961 . S
C413 C412 1.502 . S
C414 H400 0.960 . S
C414 H401 0.961 . S
C414 H402 0.959 . S
C414 C412 1.561 . S
C415 C412 1.526 . S
C415 C416 1.396 1_546 S
C415 C420 1.390 . S
C416 C410 1.465 . S
C416 C415 1.396 1_564 S
C416 C417 1.399 . S
C417 H403 0.929 . S
C417 C416 1.399 . S
C417 C418 1.385 . S
C418 H404 0.931 . S
C418 C417 1.385 . S
C418 C419 1.389 1_554 S
C419 C418 1.389 1_556 S
C419 C420 1.387 1_565 S
C420 H405 0.930 . S
C420 C415 1.390 . S
C420 C419 1.387 1_545 S
H421 C433 0.930 . S
H422 C435 0.930 . S
H423 C436 0.930 . S
H424 C440 0.959 . S
H425 C440 0.959 . S
H426 C440 0.961 . S
H427 C441 0.960 . S
H428 C441 0.961 . S
H429 C441 0.959 . S
H430 C444 0.929 . S
H431 C445 0.931 . S
H432 C447 0.930 . S
C433 H421 0.930 . S
C433 C434 1.399 . S
C433 C438 1.399 . S
C434 C433 1.399 . S
C434 C435 1.376 . S
C435 H422 0.930 . S
C435 C434 1.376 . S
C435 C436 1.388 . S
C436 H423 0.930 . S
C436 C435 1.388 . S
C436 C437 1.390 . S
C437 C436 1.390 . S
C437 C438 1.394 . S
C437 C443 1.465 . S
C438 C433 1.399 . S
C438 C437 1.394 . S
C438 C439 1.516 . S
C439 C438 1.516 . S
C439 C440 1.502 . S
C439 C441 1.561 . S
C439 C442 1.526 . S
C440 H424 0.959 . S
C440 H425 0.959 . S
C440 H426 0.961 . S
C440 C439 1.502 . S
C441 H427 0.960 . S
C441 H428 0.961 . S
C441 H429 0.959 . S
C441 C439 1.561 . S
C442 C439 1.526 . S
C442 C443 1.396 . S
C442 C447 1.390 . S
C443 C437 1.465 . S
C443 C442 1.396 . S
C443 C444 1.399 . S
C444 H430 0.929 . S
C444 C443 1.399 . S
C444 C445 1.385 . S
C445 H431 0.931 . S
C445 C444 1.385 . S
C445 C446 1.389 . S
C446 C445 1.389 . S
C446 C447 1.387 . S
C447 H432 0.930 . S
C447 C442 1.390 . S
C447 C446 1.387 . S
H448 C460 0.930 . S
H449 C462 0.930 . S
H450 C463 0.930 . S
H451 C467 0.959 . S
H452 C467 0.959 . S
H453 C467 0.961 . S
H454 C468 0.960 . S
H455 C468 0.961 . S
H456 C468 0.959 . S
H457 C471 0.929 . S
H458 C472 0.931 . S
H459 C474 0.930 . S
C460 H448 0.930 . S
C460 C461 1.399 . S
C460 C465 1.399 . S
C461 C460 1.399 . S
C461 C462 1.376 . S
C462 H449 0.930 . S
C462 C461 1.376 . S
C462 C463 1.388 . S
C463 H450 0.930 . S
C463 C462 1.388 . S
C463 C464 1.390 . S
C464 C463 1.390 . S
C464 C465 1.394 . S
C464 C470 1.465 . S
C465 C460 1.399 . S
C465 C464 1.394 . S
C465 C466 1.516 . S
C466 C465 1.516 . S
C466 C467 1.502 . S
C466 C468 1.561 . S
C466 C469 1.526 . S
C467 H451 0.959 . S
C467 H452 0.959 . S
C467 H453 0.961 . S
C467 C466 1.502 . S
C468 H454 0.960 . S
C468 H455 0.961 . S
C468 H456 0.959 . S
C468 C466 1.561 . S
C469 C466 1.526 . S
C469 C470 1.396 . S
C469 C474 1.390 . S
C470 C464 1.465 . S
C470 C469 1.396 . S
C470 C471 1.399 . S
C471 H457 0.929 . S
C471 C470 1.399 . S
C471 C472 1.385 . S
C472 H458 0.931 . S
C472 C471 1.385 . S
C472 C473 1.389 . S
C473 C472 1.389 . S
C473 C474 1.387 . S
C474 H459 0.930 . S
C474 C469 1.390 . S
C474 C473 1.387 . S
H475 C487 0.930 . S
H476 C489 0.930 . S
H477 C490 0.930 . S
H478 C494 0.959 . S
H479 C494 0.959 . S
H480 C494 0.961 . S
H481 C495 0.960 . S
H482 C495 0.961 . S
H483 C495 0.959 . S
H484 C498 0.929 . S
H485 C499 0.931 . S
H486 C501 0.930 . S
C487 H475 0.930 . S
C487 C488 1.399 . S
C487 C492 1.399 . S
C488 C487 1.399 . S
C488 C489 1.376 . S
C489 H476 0.930 . S
C489 C488 1.376 . S
C489 C490 1.388 . S
C490 H477 0.930 . S
C490 C489 1.388 . S
C490 C491 1.390 . S
C491 C490 1.390 . S
C491 C492 1.394 . S
C491 C497 1.465 . S
C492 C487 1.399 . S
C492 C491 1.394 . S
C492 C493 1.516 . S
C493 C492 1.516 . S
C493 C494 1.502 . S
C493 C495 1.561 . S
C493 C496 1.526 . S
C494 H478 0.959 . S
C494 H479 0.959 . S
C494 H480 0.961 . S
C494 C493 1.502 . S
C495 H481 0.960 . S
C495 H482 0.961 . S
C495 H483 0.959 . S
C495 C493 1.561 . S
C496 C493 1.526 . S
C496 C497 1.396 . S
C496 C501 1.390 . S
C497 C491 1.465 . S
C497 C496 1.396 . S
C497 C498 1.399 . S
C498 H484 0.929 . S
C498 C497 1.399 . S
C498 C499 1.385 . S
C499 H485 0.931 . S
C499 C498 1.385 . S
C499 C500 1.389 . S
C500 C499 1.389 . S
C500 C501 1.387 . S
C501 H486 0.930 . S
C501 C496 1.390 . S
C501 C500 1.387 . S
H502 C514 0.930 . S
H503 C516 0.930 . S
H504 C517 0.930 . S
H505 C521 0.959 . S
H506 C521 0.959 . S
H507 C521 0.961 . S
H508 C522 0.960 . S
H509 C522 0.961 . S
H510 C522 0.959 . S
H511 C525 0.929 . S
H512 C526 0.931 . S
H513 C528 0.930 . S
C514 H502 0.930 . S
C514 C515 1.399 . S
C514 C519 1.399 . S
C515 C514 1.399 . S
C515 C516 1.376 . S
C516 H503 0.930 . S
C516 C515 1.376 . S
C516 C517 1.388 . S
C517 H504 0.930 . S
C517 C516 1.388 . S
C517 C518 1.390 . S
C518 C517 1.390 . S
C518 C519 1.394 . S
C518 C524 1.465 . S
C519 C514 1.399 . S
C519 C518 1.394 . S
C519 C520 1.516 . S
C520 C519 1.516 . S
C520 C521 1.502 . S
C520 C522 1.561 . S
C520 C523 1.526 . S
C521 H505 0.959 . S
C521 H506 0.959 . S
C521 H507 0.961 . S
C521 C520 1.502 . S
C522 H508 0.960 . S
C522 H509 0.961 . S
C522 H510 0.959 . S
C522 C520 1.561 . S
C523 C520 1.526 . S
C523 C524 1.396 . S
C523 C528 1.390 . S
C524 C518 1.465 . S
C524 C523 1.396 . S
C524 C525 1.399 . S
C525 H511 0.929 . S
C525 C524 1.399 . S
C525 C526 1.385 . S
C526 H512 0.931 . S
C526 C525 1.385 . S
C526 C527 1.389 . S
C527 C526 1.389 . S
C527 C528 1.387 . S
C528 H513 0.930 . S
C528 C523 1.390 . S
C528 C527 1.387 . S
H529 C541 0.930 . S
H530 C543 0.930 . S
H531 C544 0.930 . S
H532 C548 0.959 . S
H533 C548 0.959 . S
H534 C548 0.961 . S
H535 C549 0.960 . S
H536 C549 0.961 . S
H537 C549 0.959 . S
H538 C552 0.929 . S
H539 C553 0.931 . S
H540 C555 0.930 . S
C541 H529 0.930 . S
C541 C542 1.399 . S
C541 C546 1.399 . S
C542 C541 1.399 . S
C542 C543 1.376 . S
C543 H530 0.930 . S
C543 C542 1.376 . S
C543 C544 1.388 . S
C544 H531 0.930 . S
C544 C543 1.388 . S
C544 C545 1.390 . S
C545 C544 1.390 . S
C545 C546 1.394 . S
C545 C551 1.465 . S
C546 C541 1.399 . S
C546 C545 1.394 . S
C546 C547 1.516 . S
C547 C546 1.516 . S
C547 C548 1.502 . S
C547 C549 1.561 . S
C547 C550 1.526 . S
C548 H532 0.959 . S
C548 H533 0.959 . S
C548 H534 0.961 . S
C548 C547 1.502 . S
C549 H535 0.960 . S
C549 H536 0.961 . S
C549 H537 0.959 . S
C549 C547 1.561 . S
C550 C547 1.526 . S
C550 C551 1.396 . S
C550 C555 1.390 . S
C551 C545 1.465 . S
C551 C550 1.396 . S
C551 C552 1.399 . S
C552 H538 0.929 . S
C552 C551 1.399 . S
C552 C553 1.385 . S
C553 H539 0.931 . S
C553 C552 1.385 . S
C553 C554 1.389 . S
C554 C553 1.389 . S
C554 C555 1.387 . S
C555 H540 0.930 . S
C555 C550 1.390 . S
C555 C554 1.387 . S
C137 C1 1.143 . S
C149 C20 1.083 . S
C164 C33 1.588 . S
C176 C60 1.660 . S
C191 C64 1.638 . S
C203 C91 1.606 . S
C218 C122 1.653 . S
C230 C95 1.595 . S
C245 C50 1.191 . S
C257 C29 1.152 . S
C272 C51 0.875 . S
C284 C30 1.030 . S
C299 C93 1.069 . S
C311 C82 0.973 . S
C326 C81 1.072 . S
C338 C94 0.886 . S
C353 C19 1.171 . S
C365 C92 1.237 . S
C380 C103 1.117 . S
C392 C61 1.207 . S
C407 C10 0.934 . S
C419 C62 1.046 . S
C434 C112 1.008 . S
C446 C31 1.122 . S
C461 C123 1.902 . S
C473 C2 1.995 1_556 S
C488 C72 1.768 . S
C500 C32 1.827 . S
C515 C41 1.706 . S
C527 C63 1.790 . S
C542 C113 1.943 . S
C554 C0 1.941 . S
