# Generated by pormake.
# Topology ecv, (8)-cn, num edge types: 1
# Building blocks:
#     Node 0, Type 0, BuildingBlock: LIZSOE_clean_sbu_0, # of connection points: 8
#     Node 1, Type 0, BuildingBlock: LIZSOE_clean_sbu_0, # of connection points: 8
#     Node 2, Type 0, BuildingBlock: LIZSOE_clean_sbu_0, # of connection points: 8
#     Node 3, Type 0, BuildingBlock: LIZSOE_clean_sbu_0, # of connection points: 8
#     Node 4, Type 0, BuildingBlock: LIZSOE_clean_sbu_0, # of connection points: 8
#     Node 5, Type 0, BuildingBlock: LIZSOE_clean_sbu_0, # of connection points: 8
#     Node 6, Type 0, BuildingBlock: LIZSOE_clean_sbu_0, # of connection points: 8
#     Node 7, Type 0, BuildingBlock: LIZSOE_clean_sbu_0, # of connection points: 8
#     Node 8, Type 0, BuildingBlock: LIZSOE_clean_sbu_0, # of connection points: 8
#     Node 9, Type 0, BuildingBlock: LIZSOE_clean_sbu_0, # of connection points: 8
#     Node 10, Type 0, BuildingBlock: LIZSOE_clean_sbu_0, # of connection points: 8
#     Node 11, Type 0, BuildingBlock: LIZSOE_clean_sbu_0, # of connection points: 8
#     Node 12, Type 0, BuildingBlock: LIZSOE_clean_sbu_0, # of connection points: 8
#     Node 13, Type 0, BuildingBlock: LIZSOE_clean_sbu_0, # of connection points: 8
#     Node 14, Type 0, BuildingBlock: LIZSOE_clean_sbu_0, # of connection points: 8
#     Node 15, Type 0, BuildingBlock: LIZSOE_clean_sbu_0, # of connection points: 8
#     Edge 16, Type (0, 0), BuildingBlock: OJICUG_clean_linker_0, # of connection points: 2
#     Edge 17, Type (0, 0), BuildingBlock: OJICUG_clean_linker_0, # of connection points: 2
#     Edge 18, Type (0, 0), BuildingBlock: OJICUG_clean_linker_0, # of connection points: 2
#     Edge 19, Type (0, 0), BuildingBlock: OJICUG_clean_linker_0, # of connection points: 2
#     Edge 20, Type (0, 0), BuildingBlock: OJICUG_clean_linker_0, # of connection points: 2
#     Edge 21, Type (0, 0), BuildingBlock: OJICUG_clean_linker_0, # of connection points: 2
#     Edge 22, Type (0, 0), BuildingBlock: OJICUG_clean_linker_0, # of connection points: 2
#     Edge 23, Type (0, 0), BuildingBlock: OJICUG_clean_linker_0, # of connection points: 2
#     Edge 24, Type (0, 0), BuildingBlock: OJICUG_clean_linker_0, # of connection points: 2
#     Edge 25, Type (0, 0), BuildingBlock: OJICUG_clean_linker_0, # of connection points: 2
#     Edge 26, Type (0, 0), BuildingBlock: OJICUG_clean_linker_0, # of connection points: 2
#     Edge 27, Type (0, 0), BuildingBlock: OJICUG_clean_linker_0, # of connection points: 2
#     Edge 28, Type (0, 0), BuildingBlock: OJICUG_clean_linker_0, # of connection points: 2
#     Edge 29, Type (0, 0), BuildingBlock: OJICUG_clean_linker_0, # of connection points: 2
#     Edge 30, Type (0, 0), BuildingBlock: OJICUG_clean_linker_0, # of connection points: 2
#     Edge 31, Type (0, 0), BuildingBlock: OJICUG_clean_linker_0, # of connection points: 2
#     Edge 32, Type (0, 0), BuildingBlock: OJICUG_clean_linker_0, # of connection points: 2
#     Edge 33, Type (0, 0), BuildingBlock: OJICUG_clean_linker_0, # of connection points: 2
#     Edge 34, Type (0, 0), BuildingBlock: OJICUG_clean_linker_0, # of connection points: 2
#     Edge 35, Type (0, 0), BuildingBlock: OJICUG_clean_linker_0, # of connection points: 2
#     Edge 36, Type (0, 0), BuildingBlock: OJICUG_clean_linker_0, # of connection points: 2
#     Edge 37, Type (0, 0), BuildingBlock: OJICUG_clean_linker_0, # of connection points: 2
#     Edge 38, Type (0, 0), BuildingBlock: OJICUG_clean_linker_0, # of connection points: 2
#     Edge 39, Type (0, 0), BuildingBlock: OJICUG_clean_linker_0, # of connection points: 2
#     Edge 40, Type (0, 0), BuildingBlock: OJICUG_clean_linker_0, # of connection points: 2
#     Edge 41, Type (0, 0), BuildingBlock: OJICUG_clean_linker_0, # of connection points: 2
#     Edge 42, Type (0, 0), BuildingBlock: OJICUG_clean_linker_0, # of connection points: 2
#     Edge 43, Type (0, 0), BuildingBlock: OJICUG_clean_linker_0, # of connection points: 2
#     Edge 44, Type (0, 0), BuildingBlock: OJICUG_clean_linker_0, # of connection points: 2
#     Edge 45, Type (0, 0), BuildingBlock: OJICUG_clean_linker_0, # of connection points: 2
#     Edge 46, Type (0, 0), BuildingBlock: OJICUG_clean_linker_0, # of connection points: 2
#     Edge 47, Type (0, 0), BuildingBlock: OJICUG_clean_linker_0, # of connection points: 2
#     Edge 48, Type (0, 0), BuildingBlock: OJICUG_clean_linker_0, # of connection points: 2
#     Edge 49, Type (0, 0), BuildingBlock: OJICUG_clean_linker_0, # of connection points: 2
#     Edge 50, Type (0, 0), BuildingBlock: OJICUG_clean_linker_0, # of connection points: 2
#     Edge 51, Type (0, 0), BuildingBlock: OJICUG_clean_linker_0, # of connection points: 2
#     Edge 52, Type (0, 0), BuildingBlock: OJICUG_clean_linker_0, # of connection points: 2
#     Edge 53, Type (0, 0), BuildingBlock: OJICUG_clean_linker_0, # of connection points: 2
#     Edge 54, Type (0, 0), BuildingBlock: OJICUG_clean_linker_0, # of connection points: 2
#     Edge 55, Type (0, 0), BuildingBlock: OJICUG_clean_linker_0, # of connection points: 2
#     Edge 56, Type (0, 0), BuildingBlock: OJICUG_clean_linker_0, # of connection points: 2
#     Edge 57, Type (0, 0), BuildingBlock: OJICUG_clean_linker_0, # of connection points: 2
#     Edge 58, Type (0, 0), BuildingBlock: OJICUG_clean_linker_0, # of connection points: 2
#     Edge 59, Type (0, 0), BuildingBlock: OJICUG_clean_linker_0, # of connection points: 2
#     Edge 60, Type (0, 0), BuildingBlock: OJICUG_clean_linker_0, # of connection points: 2
#     Edge 61, Type (0, 0), BuildingBlock: OJICUG_clean_linker_0, # of connection points: 2
#     Edge 62, Type (0, 0), BuildingBlock: OJICUG_clean_linker_0, # of connection points: 2
#     Edge 63, Type (0, 0), BuildingBlock: OJICUG_clean_linker_0, # of connection points: 2
#     Edge 64, Type (0, 0), BuildingBlock: OJICUG_clean_linker_0, # of connection points: 2
#     Edge 65, Type (0, 0), BuildingBlock: OJICUG_clean_linker_0, # of connection points: 2
#     Edge 66, Type (0, 0), BuildingBlock: OJICUG_clean_linker_0, # of connection points: 2
#     Edge 67, Type (0, 0), BuildingBlock: OJICUG_clean_linker_0, # of connection points: 2
#     Edge 68, Type (0, 0), BuildingBlock: OJICUG_clean_linker_0, # of connection points: 2
#     Edge 69, Type (0, 0), BuildingBlock: OJICUG_clean_linker_0, # of connection points: 2
#     Edge 70, Type (0, 0), BuildingBlock: OJICUG_clean_linker_0, # of connection points: 2
#     Edge 71, Type (0, 0), BuildingBlock: OJICUG_clean_linker_0, # of connection points: 2
#     Edge 72, Type (0, 0), BuildingBlock: OJICUG_clean_linker_0, # of connection points: 2
#     Edge 73, Type (0, 0), BuildingBlock: OJICUG_clean_linker_0, # of connection points: 2
#     Edge 74, Type (0, 0), BuildingBlock: OJICUG_clean_linker_0, # of connection points: 2
#     Edge 75, Type (0, 0), BuildingBlock: OJICUG_clean_linker_0, # of connection points: 2
#     Edge 76, Type (0, 0), BuildingBlock: OJICUG_clean_linker_0, # of connection points: 2
#     Edge 77, Type (0, 0), BuildingBlock: OJICUG_clean_linker_0, # of connection points: 2
#     Edge 78, Type (0, 0), BuildingBlock: OJICUG_clean_linker_0, # of connection points: 2
#     Edge 79, Type (0, 0), BuildingBlock: OJICUG_clean_linker_0, # of connection points: 2
# Relax obj value: 0.543
# Max RMSD: 0.259
# Mean RMSD: 0.256
data_MOF--net-ecv--node1-LIZSOE_clean_sbu_0--edge1-OJICUG_clean_linker_0
_symmetry_space_group_name_H-M    P1
_symmetry_Int_Tables_number       1
_symmetry_cell_setting            triclinic
loop_
_symmetry_equiv_pos_as_xyz
'x, y, z'
_cell_length_a     15.927241
_cell_length_b     18.765274
_cell_length_c     65.281898
_cell_angle_alpha  90.025907
_cell_angle_beta   90.10684
_cell_angle_gamma 89.957223
loop_
_atom_site_label
_atom_site_type_symbol
_atom_site_fract_x
_atom_site_fract_y
_atom_site_fract_z
_atom_type_partial_charge
Co0 Co 0.11378 1.1916 0.45468 0.0
N1 N 1.06345 1.10292 0.4556 0.0
C2 C 1.07408 1.09425 0.47598 0.0
N3 N 0.94084 1.12288 0.4716 0.0
C4 C 0.97947 1.10804 0.45366 0.0
C5 C 1.00037 1.11162 0.48588 0.0
Co6 Co 0.21895 0.47279 0.4325 0.0
N7 N 0.17452 0.55291 0.4465 0.0
N8 N 0.14751 0.65992 0.46123 0.0
C9 C 0.10598 0.60838 0.47145 0.0
C10 C 0.12673 0.54386 0.46329 0.0
C11 C 0.18035 0.62439 0.44474 0.0
Co12 Co 0.2011 0.33445 0.43761 0.0
C13 C 0.30269 0.45133 0.40926 0.0
H14 H 0.10878 0.49296 0.46957 0.0
O15 O 0.15036 0.27366 0.45759 0.0
O16 O 0.09682 0.41005 0.44035 0.0
O17 O 0.1382 0.29898 0.41343 0.0
O18 O 0.29285 0.24908 0.43444 0.0
O19 O 0.21909 1.15202 0.44452 0.0
O20 O 0.1263 0.47602 0.41415 0.0
O21 O 0.26821 0.39719 0.41856 0.0
O22 O 0.30788 0.47313 0.45126 0.0
O23 O 1.07124 1.2081 0.42761 0.0
O24 O 1.02269 1.24099 0.46463 0.0
O25 O 0.25986 0.3715 0.46271 0.0
O26 O 0.28291 0.51611 0.41426 0.0
C27 C 0.08226 0.25098 0.4128 0.0
C28 C 0.20343 0.66008 0.42494 0.0
H29 H 0.18826 0.62514 0.41175 0.0
H30 H 0.16834 0.71086 0.42324 0.0
H31 H 0.27129 0.67197 0.4245 0.0
C32 C 1.0712 0.45813 0.42703 0.0
C33 C 0.28803 1.1792 0.43779 0.0
H34 H 0.13495 1.09529 0.48333 0.0
H35 H 0.93168 1.1477 0.42525 0.0
H36 H 0.87009 1.08065 0.43695 0.0
H37 H 0.96871 1.05713 0.4245 0.0
C38 C 0.93499 1.09729 0.43385 0.0
C39 C 0.08384 0.28335 0.46846 0.0
C40 C 0.30426 0.42698 0.46522 0.0
H41 H 0.99471 1.12533 0.50192 0.0
H42 H 1.07505 0.61538 0.48608 0.0
Co43 Co 0.28759 1.19126 0.80878 0.0
N44 N 0.33878 1.10294 0.80713 0.0
C45 C 0.32772 1.09521 0.78673 0.0
N46 N 0.46077 1.12424 0.79099 0.0
C47 C 0.42278 1.10838 0.80892 0.0
C48 C 0.401 1.11345 0.77677 0.0
Co49 Co 0.18311 0.46858 0.83248 0.0
N50 N 0.2273 0.5489 0.81844 0.0
N51 N 0.25012 0.6575 0.80432 0.0
C52 C 0.29205 0.6075 0.79352 0.0
C53 C 0.27422 0.54193 0.80142 0.0
C54 C 0.2198 0.62008 0.82072 0.0
Co55 Co 0.19997 0.33237 0.82697 0.0
C56 C 0.09939 0.44918 0.85581 0.0
H57 H 0.29354 0.49186 0.79481 0.0
O58 O 0.25013 0.27319 0.80645 0.0
O59 O 0.30392 0.40839 0.82407 0.0
O60 O 0.26511 0.29655 0.85072 0.0
O61 O 0.10942 0.24644 0.83011 0.0
O62 O 0.18296 1.15039 0.81912 0.0
O63 O 0.27636 0.47174 0.85081 0.0
O64 O 0.13256 0.393 0.847 0.0
O65 O 0.09321 0.47005 0.81384 0.0
O66 O 0.33163 1.20672 0.83579 0.0
O67 O 0.37773 0.24162 0.79883 0.0
O68 O 0.13963 0.36893 0.80208 0.0
O69 O 0.12225 0.51263 0.85032 0.0
C70 C 0.32173 0.24906 0.85081 0.0
C71 C 0.1961 0.65375 0.8408 0.0
H72 H 0.22678 0.70648 0.84249 0.0
H73 H 0.12726 0.66071 0.84183 0.0
H74 H 0.21632 0.61957 0.85374 0.0
C75 C 0.33066 0.45527 0.8376 0.0
C76 C 0.11433 1.1769 0.82632 0.0
H77 H 0.26664 1.09581 0.77948 0.0
H78 H 0.43439 1.05565 0.83763 0.0
H79 H 0.4713 1.14639 0.83738 0.0
H80 H 0.53297 1.08011 0.82532 0.0
C81 C 0.46798 1.09647 0.82854 0.0
C82 C 0.31596 0.28382 0.7954 0.0
C83 C 0.09566 0.42454 0.79973 0.0
H84 H 0.40642 1.12744 0.76074 0.0
H85 H 0.3215 0.61619 0.77879 0.0
Co86 Co 0.86342 0.95727 0.58587 0.0
N87 N 0.83757 0.86744 0.57608 0.0
C88 C 0.82853 0.8119 0.58872 0.0
N89 N 0.70593 0.83202 0.57368 0.0
C90 C 0.76896 0.8647 0.56401 0.0
C91 C 0.74917 0.78571 0.58557 0.0
Co92 Co 0.95495 0.24915 0.57821 0.0
N93 N 0.9112 0.32202 0.59524 0.0
N94 N 0.94099 0.43338 0.60562 0.0
C95 C 0.92757 0.39129 0.62224 0.0
C96 C 0.91469 0.32226 0.61579 0.0
C97 C 0.91066 0.39187 0.59036 0.0
Co98 Co 0.93867 1.11462 0.57803 0.0
C99 C 1.02992 0.24914 0.55373 0.0
H100 H 0.9219 0.27513 0.62516 0.0
O101 O 0.87657 1.04554 0.59506 0.0
O102 O 0.83482 1.18872 0.58373 0.0
O103 O 0.88317 1.09288 0.55146 0.0
O104 O 1.03466 1.03336 0.57301 0.0
O105 O 0.9756 0.93304 0.5851 0.0
O106 O 0.86351 0.26262 0.55964 0.0
O107 O 1.00479 1.18539 0.55983 0.0
O108 O 1.04647 1.2378 0.59639 0.0
O109 O 0.86667 0.98063 0.55842 0.0
O110 O 0.75711 0.99105 0.58803 0.0
O111 O 1.0007 1.13239 0.60426 0.0
O112 O 1.01315 0.30513 0.56417 0.0
C113 C 0.87002 1.03002 0.54567 0.0
C114 C 0.88425 0.42149 0.56984 0.0
H115 H 0.82754 0.39556 0.56413 0.0
H116 H 0.87056 0.47932 0.57119 0.0
H117 H 0.93306 0.4137 0.55807 0.0
C118 C 0.80831 1.23913 0.57142 0.0
C119 C 1.03975 0.96532 0.57846 0.0
H120 H 0.86936 0.7996 0.60151 0.0
H121 H 0.78197 0.7887 0.53971 0.0
H122 H 0.84022 0.86893 0.53575 0.0
H123 H 0.72583 0.8676 0.53288 0.0
C124 C 0.78034 0.84744 0.54173 0.0
C125 C 0.7952 1.04369 0.59684 0.0
C126 C 1.05189 1.18241 0.60732 0.0
H127 H 0.72095 0.74295 0.59382 0.0
H128 H 0.94737 0.4047 0.63764 0.0
Co129 Co 1.03476 0.96245 0.17727 0.0
N130 N 1.05642 0.87034 0.18576 0.0
C131 C 1.06184 0.8168 0.1723 0.0
N132 N 0.18578 0.82881 0.18739 0.0
C133 C 0.12487 0.86228 0.19767 0.0
C134 C 0.13943 0.78654 0.17497 0.0
Co135 Co 0.95008 0.25587 0.18805 0.0
N136 N 0.99424 0.32816 0.17141 0.0
N137 N 1.00373 0.44204 0.16068 0.0
C138 C 1.01242 0.39732 0.14447 0.0
C139 C 1.00111 0.32809 0.15095 0.0
C140 C 1.01039 0.39656 0.17673 0.0
Co141 Co 0.9662 1.12181 0.18724 0.0
C142 C 0.87769 0.25677 0.21257 0.0
H143 H 0.99019 0.28214 0.14131 0.0
O144 O 1.02516 1.0526 0.16913 0.0
O145 O 1.07273 1.19329 0.18187 0.0
O146 O 1.02124 1.09491 0.21351 0.0
O147 O 0.8672 1.04313 0.1921 0.0
O148 O 0.92212 0.94244 0.17932 0.0
O149 O 1.04483 0.26666 0.20605 0.0
O150 O 0.90212 1.19277 0.20628 0.0
O151 O 0.85376 0.24608 0.1704 0.0
O152 O 1.03981 0.98378 0.20501 0.0
O153 O 0.14183 0.99121 0.1739 0.0
O154 O 0.90545 1.14428 0.16113 0.0
O155 O 0.89447 0.31324 0.20232 0.0
C156 C 1.0381 1.03156 0.21836 0.0
C157 C 1.03277 0.42178 0.19813 0.0
H158 H 0.082 0.38964 0.20526 0.0
H159 H 1.05788 0.47685 0.19767 0.0
H160 H 0.97847 0.41981 0.20859 0.0
C161 C 0.10017 0.24288 0.19429 0.0
C162 C 0.85974 0.97538 0.18659 0.0
H163 H 1.02 0.80838 0.15946 0.0
H164 H 0.10611 0.78297 0.22084 0.0
H165 H 1.05537 0.8662 0.22618 0.0
H166 H 0.16934 0.85658 0.22867 0.0
C167 C 0.11284 0.84175 0.21969 0.0
C168 C 0.10614 1.04732 0.1664 0.0
C169 C 0.8493 1.19114 0.15926 0.0
H170 H 0.16441 0.74358 0.16621 0.0
H171 H 1.00615 0.41416 0.12872 0.0
Co172 Co 0.21972 0.96306 0.93186 0.0
N173 N 0.17418 1.04251 0.94608 0.0
C174 C 0.12814 1.03448 0.9632 0.0
N175 N 0.15024 1.1504 0.96056 0.0
C176 C 0.18038 1.11382 0.94396 0.0
C177 C 0.10967 1.09963 0.97134 0.0
Co178 Co 0.11665 0.68531 0.95461 0.0
N179 N 1.06693 0.5967 0.95645 0.0
N180 N 0.9493 0.61616 0.97471 0.0
C181 C 1.01304 0.60548 0.98786 0.0
C182 C 0.08385 0.589 0.97663 0.0
C183 C 0.98246 0.60112 0.95612 0.0
Co184 Co 0.204 0.82709 0.93707 0.0
C185 C 0.08515 0.77738 0.96758 0.0
H186 H 0.14674 0.59133 0.98288 0.0
O187 O 0.27177 0.88831 0.91727 0.0
O188 O 0.14035 0.79111 0.91309 0.0
O189 O 0.09922 0.90232 0.93991 0.0
O190 O 0.26304 0.86374 0.9622 0.0
O191 O 0.30938 0.96499 0.95056 0.0
O192 O 1.07464 0.69936 0.92726 0.0
O193 O 0.15287 0.76759 0.95717 0.0
O194 O 0.22289 0.64524 0.94502 0.0
O195 O 0.12688 0.96607 0.91335 0.0
O196 O 0.27975 1.00817 0.91427 0.0
O197 O 0.29559 0.74175 0.93413 0.0
O198 O 1.02475 0.73463 0.96354 0.0
C199 C 1.07237 0.9492 0.92643 0.0
C200 C 0.93242 0.59282 0.9371 0.0
H201 H 0.86807 0.57744 0.94134 0.0
H202 H 0.92924 0.64387 0.92875 0.0
H203 H 0.9621 0.55212 0.92718 0.0
C204 C 0.0847 0.74284 0.91249 0.0
C205 C 0.30692 0.91938 0.96462 0.0
H206 H 0.11031 0.98395 0.96974 0.0
H207 H 0.18327 1.11381 0.91092 0.0
H208 H 0.27073 1.15736 0.92278 0.0
H209 H 0.16946 1.20025 0.92234 0.0
C210 C 0.20228 1.14835 0.92389 0.0
C211 C 0.30417 0.94519 0.90871 0.0
C212 C 0.29149 0.67225 0.93801 0.0
H213 H 0.08097 1.10751 0.9862 0.0
H214 H 1.01165 0.61848 1.00401 0.0
Co215 Co 0.28586 0.68966 0.31108 0.0
N216 N 0.33372 0.59929 0.31084 0.0
C217 C 0.34632 0.59116 0.29058 0.0
N218 N 0.46931 0.61943 0.30417 0.0
C219 C 0.41193 0.602 0.31854 0.0
C220 C 0.42848 0.60797 0.2863 0.0
Co221 Co 0.18003 0.9715 0.33208 0.0
N222 N 0.22277 1.04961 0.31703 0.0
N223 N 0.24448 1.15582 0.30145 0.0
C224 C 0.28484 1.10404 0.29098 0.0
C225 C 0.26815 1.03979 0.29989 0.0
C226 C 0.21529 1.12101 0.31845 0.0
Co227 Co 0.20115 0.83538 0.32797 0.0
C228 C 0.0966 0.95409 0.35535 0.0
H229 H 0.28615 0.98855 0.29381 0.0
O230 O 0.25225 0.77324 0.30818 0.0
O231 O 0.30537 0.91203 0.32499 0.0
O232 O 0.26391 0.7997 0.35229 0.0
O233 O 0.10933 0.75101 0.33142 0.0
O234 O 0.1804 0.65281 0.32112 0.0
O235 O 0.27245 0.97937 0.35051 0.0
O236 O 0.13181 0.89747 0.34731 0.0
O237 O 0.08987 0.96925 0.3135 0.0
O238 O 0.32639 0.70605 0.3383 0.0
O239 O 0.37857 0.73701 0.30102 0.0
O240 O 0.14376 0.87026 0.30236 0.0
O241 O 0.11768 1.01728 0.34918 0.0
C242 C 0.31641 0.74873 0.35317 0.0
C243 C 0.19207 1.15743 0.33815 0.0
H244 H 0.22405 1.20975 0.33938 0.0
H245 H 0.12337 1.16553 0.33901 0.0
H246 H 0.21127 1.12452 0.35145 0.0
C247 C 0.32883 0.96222 0.33795 0.0
C248 C 0.11284 0.68123 0.32814 0.0
H249 H 0.29633 0.59416 0.2794 0.0
H250 H 0.37928 0.55164 0.34694 0.0
H251 H 0.48833 0.58146 0.34523 0.0
H252 H 0.45263 0.50459 0.33137 0.0
C253 C 0.43451 0.55826 0.33681 0.0
C254 C 0.319 0.78138 0.29732 0.0
C255 C 0.09712 0.924 0.29947 0.0
H256 H 0.44991 0.6247 0.27137 0.0
H257 H 0.31269 1.11038 0.27597 0.0
Co258 Co 0.85526 0.45753 0.09258 0.0
N259 N 0.82268 0.36457 0.08901 0.0
C260 C 0.83561 0.33401 0.10723 0.0
N261 N 0.69785 0.34685 0.10385 0.0
C262 C 0.73913 0.36041 0.08621 0.0
C263 C 0.75981 0.32608 0.11658 0.0
Co264 Co 0.95864 0.74273 0.07702 0.0
N265 N 0.91968 0.81931 0.09321 0.0
N266 N 0.94956 0.93231 0.10186 0.0
C267 C 0.93535 0.89347 0.1191 0.0
C268 C 0.92297 0.82326 0.11371 0.0
C269 C 0.91915 0.88817 0.08725 0.0
Co270 Co 0.93659 0.60876 0.07886 0.0
C271 C 1.03109 0.73688 0.05236 0.0
H272 H 0.92953 0.77787 0.12379 0.0
O273 O 0.87371 0.54821 0.09775 0.0
O274 O 0.83599 0.68652 0.0838 0.0
O275 O 0.87729 0.57688 0.05348 0.0
O276 O 1.02903 0.52495 0.07445 0.0
O277 O 0.96795 0.42982 0.08884 0.0
O278 O 0.86559 0.7563 0.05883 0.0
O279 O 1.00301 0.67453 0.05902 0.0
O280 O 1.05244 0.73197 0.09474 0.0
O281 O 0.84373 0.4686 0.06397 0.0
O282 O 0.75197 0.49333 0.0968 0.0
O283 O 1.00277 0.63027 0.10441 0.0
O284 O 1.01832 0.79458 0.06236 0.0
C285 C 0.8514 0.51407 0.04984 0.0
C286 C 0.89403 0.9141 0.06619 0.0
H287 H 0.83699 0.88802 0.06075 0.0
H288 H 0.88132 0.97225 0.06659 0.0
H289 H 0.94304 0.90343 0.05463 0.0
C290 C 0.81049 0.73607 0.07113 0.0
C291 C 1.03216 0.45784 0.08061 0.0
H292 H 0.89507 0.33424 0.11514 0.0
H293 H 0.68299 0.28971 0.06508 0.0
H294 H 0.7513 0.35352 0.05348 0.0
H295 H 0.64855 0.38085 0.06234 0.0
C296 C 0.70312 0.3461 0.06552 0.0
C297 C 0.79303 0.55001 0.10137 0.0
C298 C 1.05723 0.67836 0.10634 0.0
H299 H 0.75271 0.31401 0.13244 0.0
H300 H 0.95437 0.90993 0.13432 0.0
Co301 Co 0.94788 0.74864 0.68617 0.0
N302 N 0.99213 0.82131 0.66916 0.0
C303 C 0.98879 0.82141 0.64861 0.0
N304 N 0.96212 0.9326 0.65872 0.0
C305 C 0.99243 0.89119 0.67401 0.0
C306 C 0.97576 0.89038 0.64213 0.0
Co307 Co 1.03853 0.45636 0.67853 0.0
N308 N 1.06423 0.36642 0.68823 0.0
N309 N 0.19595 0.33105 0.69061 0.0
C310 C 0.15292 0.28494 0.67862 0.0
C311 C 1.07349 0.31112 0.6755 0.0
C312 C 0.13281 0.36357 0.70031 0.0
Co313 Co 0.96353 0.61393 0.68642 0.0
C314 C 0.10687 0.54272 0.66765 0.0
H315 H 1.03284 0.29911 0.66266 0.0
O316 O 0.89737 0.6851 0.70452 0.0
O317 O 1.01859 0.59196 0.71303 0.0
O318 O 1.06772 0.68773 0.6808 0.0
O319 O 0.90197 0.63179 0.66014 0.0
O320 O 0.8567 0.73755 0.66789 0.0
O321 O 1.03535 0.47971 0.706 0.0
O322 O 1.02553 0.54466 0.66943 0.0
O323 O 0.92631 0.43238 0.67933 0.0
O324 O 1.039 0.76192 0.70484 0.0
O325 O 0.88972 0.80484 0.70012 0.0
O326 O 0.86729 0.53286 0.6914 0.0
O327 O 0.14493 0.48986 0.67636 0.0
C328 C 0.09425 0.73819 0.6931 0.0
C329 C 0.12144 0.34634 0.72258 0.0
H330 H 0.17586 0.36658 0.73144 0.0
H331 H 1.0615 0.36782 0.72856 0.0
H332 H 0.11991 0.2876 0.72459 0.0
C333 C 1.03183 0.52905 0.71879 0.0
C334 C 0.85121 0.68209 0.65699 0.0
H335 H 0.98171 0.77422 0.63925 0.0
H336 H 0.97017 0.91323 0.70629 0.0
H337 H 1.03241 0.97881 0.69314 0.0
H338 H 1.07569 0.89513 0.7002 0.0
C339 C 1.01889 0.92099 0.69451 0.0
C340 C 0.87236 0.74901 0.71055 0.0
C341 C 0.86217 0.46476 0.68597 0.0
H342 H 0.95595 0.90357 0.62671 0.0
H343 H 0.18136 0.24256 0.67023 0.0
Co344 Co 0.61306 1.18455 0.95415 0.0
N345 N 0.56151 1.09659 0.95535 0.0
C346 C 0.57347 1.08913 0.97573 0.0
N347 N 0.44028 1.11864 0.9718 0.0
C348 C 0.47748 1.10251 0.95376 0.0
C349 C 0.5007 1.10779 0.98586 0.0
Co350 Co 0.72562 0.46027 0.93434 0.0
N351 N 0.68125 0.53661 0.94986 0.0
N352 N 0.65661 0.64105 0.96617 0.0
C353 C 0.619 0.58751 0.97649 0.0
C354 C 0.6376 0.52437 0.96714 0.0
C355 C 0.68547 0.60823 0.9488 0.0
Co356 Co 0.70398 0.32566 0.93762 0.0
C357 C 0.81011 0.4449 0.9111 0.0
H358 H 0.6227 0.47223 0.97307 0.0
O359 O 0.6501 0.26556 0.95677 0.0
O360 O 0.60053 0.4022 0.94069 0.0
O361 O 0.64094 0.29263 0.9131 0.0
O362 O 0.79385 1.23956 0.93435 0.0
O363 O 0.71865 1.14331 0.94431 0.0
O364 O 0.63415 0.46977 0.91547 0.0
O365 O 0.77531 0.38747 0.91869 0.0
O366 O 0.81525 0.45723 0.95346 0.0
O367 O 0.57237 1.20138 0.92691 0.0
O368 O 0.52198 1.23544 0.96384 0.0
O369 O 0.76047 0.35757 0.96356 0.0
O370 O 0.78811 0.50745 0.91764 0.0
C371 C 0.58429 0.24503 0.91226 0.0
C372 C 0.70425 0.64659 0.92911 0.0
H373 H 0.77182 0.65933 0.92798 0.0
H374 H 0.68756 0.61297 0.91576 0.0
H375 H 0.66781 0.69693 0.92825 0.0
C376 C 0.57713 0.45197 0.92774 0.0
C377 C 0.78813 1.1699 0.93768 0.0
H378 H 0.63486 1.09008 0.98283 0.0
H379 H 0.46385 1.05156 0.92481 0.0
H380 H 0.43009 1.14313 0.9255 0.0
H381 H 0.36647 1.07771 0.93743 0.0
C382 C 0.43178 1.09271 0.93412 0.0
C383 C 0.58359 0.27758 0.96733 0.0
C384 C 0.80639 0.41102 0.9672 0.0
H385 H 0.49623 1.12229 1.00188 0.0
H386 H 0.59247 0.59203 0.9917 0.0
Co387 Co 0.78116 1.20305 0.30938 0.0
N388 N 0.82991 1.11394 0.30698 0.0
C389 C 0.81624 1.10786 0.28661 0.0
N390 N 0.95086 1.13243 0.29009 0.0
C391 C 0.91433 1.11683 0.30821 0.0
C392 C 0.88925 1.12386 0.27622 0.0
Co393 Co 0.68939 0.48546 0.33888 0.0
N394 N 0.73266 0.57427 0.33023 0.0
N395 N 0.74077 0.69238 0.32346 0.0
C396 C 0.78525 0.65553 0.30929 0.0
C397 C 0.77596 0.58407 0.31282 0.0
C398 C 0.72052 0.6409 0.33738 0.0
Co399 Co 0.69681 0.34457 0.32893 0.0
C400 C 0.60384 0.45207 0.36129 0.0
H401 H 0.79475 0.54174 0.30254 0.0
O402 O 0.74499 0.28726 0.30735 0.0
O403 O 0.79951 0.42113 0.32656 0.0
O404 O 0.76354 0.30459 0.3518 0.0
O405 O 0.60479 0.25855 0.33165 0.0
O406 O 0.67599 1.1632 0.31932 0.0
O407 O 0.78333 0.47439 0.35614 0.0
O408 O 0.63637 0.40394 0.34929 0.0
O409 O 0.6037 0.49598 0.31976 0.0
O410 O 0.82615 1.21399 0.33646 0.0
O411 O 0.87255 0.25184 0.30041 0.0
O412 O 0.63152 0.39022 0.30598 0.0
O413 O 0.62588 0.51786 0.35934 0.0
C414 C 0.81819 0.2557 0.35167 0.0
C415 C 0.69747 0.65642 0.35926 0.0
H416 H 0.719 0.71047 0.36375 0.0
H417 H 0.6285 0.65317 0.36126 0.0
H418 H 0.72715 0.61685 0.36961 0.0
C419 C 0.83169 0.46196 0.34106 0.0
C420 C 0.6084 1.18926 0.32713 0.0
H421 H 0.7545 1.11152 0.27976 0.0
H422 H 0.92642 1.06373 0.33691 0.0
H423 H 0.96885 1.15273 0.33623 0.0
H424 H 1.02474 1.08305 0.3238 0.0
C425 C 0.96135 1.10284 0.32749 0.0
C426 C 0.81308 0.29628 0.29686 0.0
C427 C 0.59715 0.45175 0.30509 0.0
H428 H 0.89377 1.13784 0.26018 0.0
H429 H 0.80876 0.67752 0.29509 0.0
Co430 Co 0.37154 0.95666 0.08569 0.0
N431 N 0.34874 0.86522 0.07633 0.0
C432 C 0.33866 0.80965 0.08893 0.0
N433 N 0.21985 0.82526 0.07174 0.0
C434 C 0.28425 0.85927 0.06304 0.0
C435 C 0.26168 0.78052 0.08442 0.0
Co436 Co 0.46247 0.24426 0.07661 0.0
N437 N 0.41596 0.30697 0.09548 0.0
N438 N 0.39886 0.40537 0.1146 0.0
C439 C 0.37028 0.3477 0.12505 0.0
C440 C 0.38698 0.28754 0.11391 0.0
C441 C 0.40788 0.37812 0.0954 0.0
Co442 Co 0.44373 1.11528 0.07688 0.0
C443 C 0.53105 0.2515 0.05216 0.0
H444 H 0.3848 1.23333 0.1195 0.0
O445 O 0.38207 1.04626 0.09441 0.0
O446 O 0.33625 1.1863 0.08196 0.0
O447 O 0.38975 1.09033 0.05032 0.0
O448 O 0.54164 1.03511 0.07243 0.0
O449 O 0.48402 0.93478 0.0849 0.0
O450 O 0.36799 0.25977 0.05857 0.0
O451 O 0.51038 1.18612 0.05785 0.0
O452 O 0.55964 1.23548 0.09344 0.0
O453 O 0.37324 0.97885 0.05819 0.0
O454 O 0.26448 0.98805 0.08773 0.0
O455 O 0.50442 1.1366 0.10345 0.0
O456 O 0.51388 0.30659 0.06317 0.0
C457 C 0.3763 1.02694 0.04505 0.0
C458 C 0.40777 0.42267 0.07618 0.0
H459 H 0.37716 0.39407 0.06345 0.0
H460 H 0.37473 0.47391 0.0789 0.0
H461 H 0.47245 0.43404 0.07098 0.0
C462 C 0.31113 1.23755 0.06987 0.0
C463 C 0.54759 0.96728 0.07808 0.0
H464 H 0.37634 0.79895 0.10238 0.0
H465 H 0.31023 0.78124 0.03987 0.0
H466 H 0.3633 0.86416 0.03602 0.0
H467 H 0.2504 0.85576 0.03122 0.0
C468 C 0.30358 0.83999 0.04121 0.0
C469 C 0.30055 1.04244 0.09618 0.0
C470 C 0.56157 1.18286 0.10525 0.0
H471 H 0.23299 0.73679 0.09221 0.0
H472 H 0.36026 0.34626 0.14138 0.0
Co473 Co 0.44784 0.24857 0.68607 0.0
N474 N 0.49211 0.32108 0.669 0.0
C475 C 0.48833 0.3211 0.64846 0.0
N476 N 0.462 0.43236 0.65856 0.0
C477 C 0.49256 0.391 0.67383 0.0
C478 C 0.47516 0.39003 0.64196 0.0
Co479 Co 0.53826 0.95621 0.67828 0.0
N480 N 0.56388 0.8661 0.68789 0.0
N481 N 0.69548 0.83049 0.69036 0.0
C482 C 0.65254 0.7846 0.67828 0.0
C483 C 0.57324 0.81095 0.6751 0.0
C484 C 0.63222 0.8629 0.70004 0.0
Co485 Co 0.46343 1.11392 0.68633 0.0
C486 C 0.60662 1.04254 0.66738 0.0
H487 H 0.53276 0.79916 0.66221 0.0
O488 O 0.39735 1.18517 0.70448 0.0
O489 O 0.51854 1.09168 0.71293 0.0
O490 O 0.56774 1.18761 0.6807 0.0
O491 O 0.40169 1.13185 0.66006 0.0
O492 O 0.35642 1.23753 0.66785 0.0
O493 O 0.53613 0.97959 0.70574 0.0
O494 O 0.5253 1.04465 0.66926 0.0
O495 O 0.42602 0.93249 0.67928 0.0
O496 O 0.53907 0.26189 0.70471 0.0
O497 O 0.38995 0.30491 0.70001 0.0
O498 O 0.36712 1.033 0.69133 0.0
O499 O 0.64464 0.98936 0.67593 0.0
C500 C 0.59432 1.23808 0.69299 0.0
C501 C 0.62027 0.84492 0.72225 0.0
H502 H 0.56062 0.8669 0.72825 0.0
H503 H 0.61777 0.78612 0.72407 0.0
H504 H 0.67493 0.86411 0.73122 0.0
C505 C 0.53261 1.02876 0.71858 0.0
C506 C 0.35078 1.18208 0.65695 0.0
H507 H 0.48098 0.27386 0.63913 0.0
H508 H 0.47099 0.41311 0.70613 0.0
H509 H 0.5329 0.47871 0.69287 0.0
H510 H 0.5764 0.39511 0.6999 0.0
C511 C 0.51944 0.42088 0.69428 0.0
C512 C 0.37246 0.24919 0.71048 0.0
C513 C 0.36195 0.96489 0.68594 0.0
H514 H 0.45496 0.40314 0.62657 0.0
H515 H 0.68102 0.7422 0.66991 0.0
Co516 Co 0.61218 0.69354 0.45566 0.0
N517 N 0.55797 0.6067 0.4574 0.0
C518 C 0.56836 0.59716 0.47775 0.0
N519 N 0.43671 0.63115 0.47361 0.0
C520 C 0.47409 0.61527 0.45556 0.0
C521 C 0.4958 0.61714 0.48777 0.0
Co522 Co 0.7177 0.96934 0.43193 0.0
N523 N 0.67274 1.04941 0.44598 0.0
N524 N 0.65065 1.15793 0.46025 0.0
C525 C 0.60879 1.10799 0.47106 0.0
C526 C 0.62614 1.04241 0.46305 0.0
C527 C 0.68037 1.12057 0.44375 0.0
Co528 Co 0.70141 0.8332 0.43737 0.0
C529 C 0.80208 0.95069 0.40884 0.0
H530 H 0.60702 0.99229 0.46964 0.0
O531 O 0.65127 0.77454 0.45788 0.0
O532 O 0.59698 0.90915 0.44006 0.0
O533 O 0.63818 0.79598 0.41342 0.0
O534 O 0.79138 0.74691 0.43458 0.0
O535 O 0.71737 0.6511 0.44581 0.0
O536 O 0.62494 0.97241 0.4134 0.0
O537 O 0.76937 0.89387 0.41741 0.0
O538 O 0.8073 0.97132 0.45066 0.0
O539 O 0.57176 0.70669 0.42838 0.0
O540 O 0.5223 0.7461 0.46502 0.0
O541 O 0.76072 0.87031 0.46237 0.0
O542 O 0.77797 1.01378 0.41435 0.0
C543 C 0.5836 0.74683 0.41304 0.0
C544 C 0.70377 1.15437 0.42369 0.0
H545 H 0.6731 1.20717 0.42207 0.0
H546 H 0.77259 1.16123 0.42261 0.0
H547 H 0.68337 1.12033 0.41073 0.0
C548 C 0.57042 0.95613 0.42654 0.0
C549 C 0.7861 0.67747 0.43851 0.0
H550 H 0.62929 0.59495 0.48505 0.0
H551 H 0.42102 0.66728 0.4292 0.0
H552 H 0.36757 0.58909 0.43758 0.0
H553 H 0.46792 0.58336 0.42434 0.0
C554 C 0.42991 0.61326 0.43546 0.0
C555 C 0.58546 0.78622 0.46885 0.0
C556 C 0.80465 0.92588 0.46475 0.0
H557 H 0.49061 0.62953 0.50392 0.0
H558 H 0.57989 1.11665 0.48585 0.0
Co559 Co 0.78792 0.68996 0.80911 0.0
N560 N 0.83873 0.60145 0.80778 0.0
C561 C 0.8285 0.59355 0.78736 0.0
N562 N 0.96148 0.62236 0.79197 0.0
C563 C 0.92264 0.60673 0.80981 0.0
C564 C 0.90225 0.61159 0.77759 0.0
Co565 Co 0.68317 0.96795 0.8321 0.0
N566 N 0.72731 1.04787 0.81787 0.0
N567 N 0.75031 1.1559 0.80341 0.0
C568 C 0.792 1.10542 0.79274 0.0
C569 C 0.77414 1.04019 0.80086 0.0
C570 C 0.71984 1.11914 0.81993 0.0
Co571 Co 0.70057 0.83177 0.82689 0.0
C572 C 0.59913 0.94894 0.85534 0.0
H573 H 0.79323 0.98984 0.79439 0.0
O574 O 0.75091 0.77202 0.80658 0.0
O575 O 0.80457 0.90779 0.82396 0.0
O576 O 0.76543 0.79641 0.8508 0.0
O577 O 0.60975 0.74609 0.83011 0.0
O578 O 0.68307 0.64962 0.81938 0.0
O579 O 0.77616 0.97187 0.8505 0.0
O580 O 0.63275 0.89268 0.84671 0.0
O581 O 0.59339 0.96882 0.81346 0.0
O582 O 0.83129 0.70578 0.83612 0.0
O583 O 0.87843 0.73994 0.79914 0.0
O584 O 0.64071 0.86784 0.80185 0.0
O585 O 0.62195 1.01235 0.84978 0.0
C586 C 0.82149 0.74843 0.85106 0.0
C587 C 0.69612 1.15355 0.83989 0.0
H588 H 0.62737 1.16123 0.8408 0.0
H589 H 0.71558 1.11954 0.85294 0.0
H590 H 0.72748 1.20602 0.84151 0.0
C591 C 0.83082 0.95519 0.83741 0.0
C592 C 0.61445 0.67647 0.82645 0.0
H593 H 0.76774 0.59446 0.77995 0.0
H594 H 0.93405 0.55295 0.83841 0.0
H595 H 0.96817 0.64433 0.8387 0.0
H596 H 1.03254 0.58017 0.82656 0.0
C597 C 0.9669 0.59492 0.82959 0.0
C598 C 0.81697 0.78234 0.7956 0.0
C599 C 0.59638 0.92322 0.7994 0.0
H600 H 0.90819 0.62585 0.76159 0.0
H601 H 0.82142 1.11352 0.77798 0.0
Co602 Co 0.36439 0.45724 0.58626 0.0
N603 N 0.33894 0.36718 0.57654 0.0
C604 C 0.32976 0.31176 0.58922 0.0
N605 N 0.20757 0.33122 0.5739 0.0
C606 C 0.27076 0.36399 0.56433 0.0
C607 C 0.25065 0.2852 0.58592 0.0
Co608 Co 0.45464 0.74929 0.57846 0.0
N609 N 0.41047 0.82184 0.59558 0.0
N610 N 0.44041 0.93314 0.60601 0.0
C611 C 0.42768 0.89083 0.62261 0.0
C612 C 0.41457 0.82188 0.61611 0.0
C613 C 0.4097 0.89175 0.59076 0.0
Co614 Co 0.43896 0.6149 0.57828 0.0
C615 C 0.52964 0.74984 0.55397 0.0
H616 H 0.42217 0.77467 0.62543 0.0
O617 O 0.37719 0.54567 0.59537 0.0
O618 O 0.33476 0.68865 0.58398 0.0
O619 O 0.38339 0.59294 0.55178 0.0
O620 O 0.5352 0.53392 0.57321 0.0
O621 O 0.47662 0.43349 0.58534 0.0
O622 O 0.36316 0.76256 0.55989 0.0
O623 O 0.50494 0.68587 0.56003 0.0
O624 O 0.54633 0.73823 0.5966 0.0
O625 O 0.3668 0.48072 0.55884 0.0
O626 O 0.25798 0.49043 0.58855 0.0
O627 O 0.50099 0.63276 0.60449 0.0
O628 O 0.51229 0.80561 0.56446 0.0
C629 C 0.36991 0.53006 0.54607 0.0
C630 C 0.38256 0.92159 0.57033 0.0
H631 H 0.32571 0.89568 0.56471 0.0
H632 H 0.3688 0.97938 0.57176 0.0
H633 H 0.43101 0.91397 0.55847 0.0
C634 C 0.30802 0.73889 0.57165 0.0
C635 C 0.54056 0.46588 0.57863 0.0
H636 H 0.37019 0.29978 0.6021 0.0
H637 H 0.28552 0.28769 0.54016 0.0
H638 H 0.34272 0.3685 0.53618 0.0
H639 H 0.22844 0.36585 0.53312 0.0
C640 C 0.28301 0.34646 0.5421 0.0
C641 C 0.29584 0.54349 0.5972 0.0
C642 C 0.55206 0.68285 0.60752 0.0
H643 H 0.22236 0.24247 0.59417 0.0
H644 H 0.44805 0.90407 0.63798 0.0
Co645 Co 0.44394 0.7537 0.18751 0.0
N646 N 0.48653 0.82561 0.17003 0.0
C647 C 0.48572 0.82288 0.14949 0.0
N648 N 0.45529 0.9348 0.15817 0.0
C649 C 0.48488 0.89604 0.1741 0.0
C650 C 0.47196 0.89068 0.14215 0.0
Co651 Co 0.55949 0.46833 0.18476 0.0
N652 N 0.6018 0.38491 0.19655 0.0
N653 N 0.7387 0.37799 0.18907 0.0
C654 C 0.69521 0.33071 0.1777 0.0
C655 C 0.61181 0.33369 0.18257 0.0
C656 C 0.68109 0.39761 0.203 0.0
Co657 Co 0.46652 0.62056 0.18892 0.0
C658 C 0.61591 0.55815 0.17163 0.0
H659 H 0.56147 0.31214 0.17338 0.0
O660 O 0.39476 0.69035 0.206 0.0
O661 O 0.51964 0.60616 0.21626 0.0
O662 O 0.56682 0.69773 0.18304 0.0
O663 O 0.40496 0.63277 0.16213 0.0
O664 O 0.3544 0.73776 0.16893 0.0
O665 O 0.54661 0.49478 0.21118 0.0
O666 O 0.5347 0.55219 0.17338 0.0
O667 O 0.44699 0.43364 0.18605 0.0
O668 O 0.53366 0.77222 0.20653 0.0
O669 O 0.38237 0.80953 0.20093 0.0
O670 O 0.37627 0.53491 0.19386 0.0
O671 O 0.66095 0.5139 0.182 0.0
C672 C 0.59076 0.74945 0.19516 0.0
C673 C 0.70202 0.42941 0.22345 0.0
H674 H 0.70516 0.48828 0.22226 0.0
H675 H 0.65337 0.41476 0.23482 0.0
H676 H 0.76375 0.40964 0.22887 0.0
C677 C 0.53433 0.54504 0.22316 0.0
C678 C 0.35172 0.6811 0.15845 0.0
H679 H 0.4811 0.77434 0.14062 0.0
H680 H 0.4594 0.92006 0.20613 0.0
H681 H 0.51837 0.98716 0.19263 0.0
H682 H 0.56632 0.90629 0.20045 0.0
C683 C 0.50821 0.92898 0.19442 0.0
C684 C 0.36734 0.75383 0.21167 0.0
C685 C 0.37789 0.46496 0.19048 0.0
H686 H 0.45387 0.90148 0.12646 0.0
H687 H 0.71845 0.30722 0.16399 0.0
C688 C 0.22696 0.6882 0.49206 0.0
C689 C 0.1973 0.71123 0.47268 0.0
H690 H 0.33012 0.63356 0.50632 0.0
C691 C 0.25579 0.75076 0.46148 0.0
H692 H 0.1837 0.67075 0.50379 0.0
C693 C 0.33923 0.72803 0.46227 0.0
C694 C 0.36299 0.67493 0.47655 0.0
H695 H 0.23568 0.78295 0.44862 0.0
H696 H 0.38159 0.74807 0.4508 0.0
C697 C 0.31001 0.6644 0.49333 0.0
C698 C 0.84414 1.21821 0.45915 0.0
C699 C 0.86729 1.16711 0.47407 0.0
H700 H 0.74278 0.27741 0.4461 0.0
C701 C 0.81583 1.16108 0.49133 0.0
H702 H 0.88574 1.23348 0.44688 0.0
C703 C 0.73384 1.18766 0.49033 0.0
C704 C 0.70319 1.20933 0.47092 0.0
H705 H 0.83622 1.13202 0.50463 0.0
H706 H 0.69113 1.17338 0.50253 0.0
C707 C 0.7625 0.24538 0.45901 0.0
C708 C 0.55745 1.21883 0.80375 0.0
C709 C 0.53439 1.16831 0.78866 0.0
H710 H 0.659 0.27613 0.81735 0.0
C711 C 0.5869 1.16159 0.77161 0.0
H712 H 0.51544 1.23424 0.81593 0.0
C713 C 0.66938 1.18675 0.77302 0.0
C714 C 0.69902 1.20785 0.79258 0.0
H715 H 0.56697 1.13275 0.75822 0.0
H716 H 0.71268 1.17182 0.761 0.0
C717 C 0.6396 0.24463 0.8043 0.0
C718 C 0.13828 0.745 0.80541 0.0
C719 C 0.19836 0.70939 0.79359 0.0
H720 H 1.01466 0.73205 0.8172 0.0
C721 C 0.16884 0.68847 0.77401 0.0
H722 H 0.15733 0.77669 0.81845 0.0
C723 C 0.08707 0.66162 0.77266 0.0
C724 C 1.03471 0.667 0.78979 0.0
H725 H 0.21234 0.67483 0.7619 0.0
H726 H 1.06764 0.63274 0.75923 0.0
C727 C 1.05683 0.7176 0.80495 0.0
C728 C 0.54692 0.97792 0.58194 0.0
C729 C 0.52404 0.9621 0.60238 0.0
H730 H 0.60881 0.93374 0.55541 0.0
C731 C 0.58982 0.93408 0.61431 0.0
H732 H 0.50917 1.01381 0.57282 0.0
C733 C 0.6507 0.89269 0.60479 0.0
C734 C 0.64799 0.881 0.58346 0.0
H735 H 0.58638 0.93332 0.63086 0.0
H736 H 0.70068 0.87107 0.61399 0.0
C737 C 0.60251 0.93145 0.57191 0.0
C738 C 0.09007 0.43378 0.61421 0.0
C739 C 1.02488 0.46198 0.60212 0.0
H740 H 0.20034 0.37012 0.6142 0.0
C741 C 1.04856 0.47745 0.58171 0.0
H742 H 0.08606 0.43329 0.63075 0.0
C743 C 0.10426 0.43065 0.57184 0.0
C744 C 0.14913 0.38016 0.58353 0.0
H745 H 1.01129 0.51333 0.57246 0.0
H746 H 0.11119 0.43278 0.55535 0.0
C747 C 0.15092 0.3919 0.60487 0.0
C748 C 0.86463 0.47098 0.14874 0.0
C749 C 0.93294 0.49132 0.16108 0.0
H750 H 0.74839 0.41534 0.14863 0.0
C751 C 0.90767 0.51671 0.18048 0.0
H752 H 0.87133 0.4664 0.13233 0.0
C753 C 0.84532 0.47731 0.19076 0.0
C754 C 0.79671 0.42782 0.17955 0.0
H755 H 0.94946 0.54992 0.1894 0.0
H756 H 0.84021 0.48277 0.20713 0.0
C757 C 0.79797 0.4359 0.15807 0.0
C758 C 0.24692 0.8893 0.15687 0.0
C759 C 0.24578 0.87745 0.17822 0.0
H760 H 0.31444 0.93241 0.13161 0.0
C761 C 0.28807 0.92858 0.19029 0.0
H762 H 0.20032 0.866 0.14704 0.0
C763 C 0.34274 0.97715 0.1809 0.0
C764 C 0.37018 0.96213 0.16076 0.0
H765 H 0.27878 0.93073 0.20671 0.0
H766 H 0.37671 1.01438 0.19045 0.0
C767 C 0.30769 0.93279 0.14809 0.0
C768 C 0.34258 1.21345 0.95946 0.0
C769 C 0.36667 1.16273 0.9744 0.0
H770 H 0.24007 0.27099 0.94634 0.0
C771 C 0.31539 1.15616 0.99168 0.0
H772 H 0.38372 1.22899 0.94713 0.0
C773 C 0.23284 1.18148 0.99063 0.0
C774 C 0.20181 1.20256 0.97121 0.0
H775 H 0.3363 1.12742 1.00498 0.0
H776 H 0.19039 1.16659 1.00283 0.0
C777 C 0.26041 1.23943 0.9593 0.0
C778 C 0.7628 0.73325 0.96537 0.0
C779 C 0.70765 0.69261 0.97721 0.0
H780 H 0.88323 0.7273 0.95166 0.0
C781 C 0.74223 0.66923 0.99605 0.0
H782 H 0.73897 0.76585 0.95299 0.0
C783 C 0.82621 0.64718 0.99619 0.0
C784 C 0.87471 0.658 0.9786 0.0
H785 H 0.70211 0.65083 0.00832 0.0
H786 H 0.85015 0.61729 0.00898 0.0
C787 C 0.84582 0.70967 0.96443 0.0
C788 C 0.65426 0.74095 0.2961 0.0
C789 C 0.67837 0.74472 0.31691 0.0
H790 H 0.57195 0.68576 0.27556 0.0
C791 C 0.60938 0.75414 0.32998 0.0
H792 H 0.69915 0.7519 0.28408 0.0
C793 C 0.53972 0.71047 0.3263 0.0
C794 C 0.53275 0.67399 0.30737 0.0
H795 H 0.61782 0.77643 0.34513 0.0
H796 H 0.49441 0.70366 0.33835 0.0
C797 C 0.58366 0.69953 0.29132 0.0
C798 C 1.05299 1.22376 0.3022 0.0
C799 C 1.02635 1.17379 0.28733 0.0
H800 H 0.15787 0.27853 0.3151 0.0
C801 C 0.0775 1.16433 0.27015 0.0
H802 H 1.01294 1.24069 0.3146 0.0
C803 C 0.16152 1.18568 0.27126 0.0
C804 C 0.19322 1.20756 0.29055 0.0
H805 H 1.0552 1.1359 0.25691 0.0
H806 H 0.20332 1.16808 0.25922 0.0
C807 C 0.13624 0.24683 0.3023 0.0
C808 C 0.52008 0.47994 0.10847 0.0
C809 C 0.47118 0.44343 0.12286 0.0
H810 H 0.61512 0.4623 0.0862 0.0
C811 C 0.51933 0.40578 0.1374 0.0
H812 H 0.49188 0.52176 0.09934 0.0
C813 C 0.58999 0.36897 0.13041 0.0
C814 C 0.62396 0.38447 0.11108 0.0
H815 H 0.49027 0.38716 0.15129 0.0
H816 H 0.61479 0.32611 0.13948 0.0
C817 C 0.59034 0.44411 0.10063 0.0
C818 C 1.05843 0.97075 0.07741 0.0
C819 C 1.03416 0.95873 0.09799 0.0
H820 H 0.12234 0.92239 0.05176 0.0
C821 C 0.09844 0.93161 0.11051 0.0
H822 H 1.02173 1.00541 0.06766 0.0
C823 C 0.15915 0.88812 0.10181 0.0
C824 C 0.15902 0.87385 0.08059 0.0
H825 H 0.09398 0.93359 0.12704 0.0
H826 H 0.20839 0.86814 0.11152 0.0
C827 C 0.11443 0.92246 0.06823 0.0
C828 C 0.79855 0.92994 0.69248 0.0
C829 C 0.75387 0.87944 0.68076 0.0
H830 H 0.89149 1.01247 0.69194 0.0
C831 C 0.7522 0.89121 0.65942 0.0
H832 H 0.79147 0.93209 0.70896 0.0
C833 C 0.81308 0.93308 0.65012 0.0
C834 C 0.87817 0.96118 0.66224 0.0
H835 H 0.70291 0.86943 0.65006 0.0
H836 H 0.81719 0.93257 0.63357 0.0
C837 C 0.85436 0.97664 0.68265 0.0
C838 C 0.29928 0.43034 0.69253 0.0
C839 C 0.25414 0.3799 0.6809 0.0
H840 H 0.39239 0.5127 0.69182 0.0
C841 C 0.25186 0.39166 0.65957 0.0
H842 H 0.29262 0.43258 0.70903 0.0
C843 C 0.31275 0.43322 0.65015 0.0
C844 C 0.37824 0.4612 0.66217 0.0
H845 H 0.20219 0.36999 0.65029 0.0
H846 H 0.31648 0.43258 0.6336 0.0
C847 C 0.35496 0.47687 0.6826 0.0
C848 C 0.36673 1.05965 0.44679 0.0
C849 C 0.36287 1.12414 0.435 0.0
H850 H 0.42968 0.9596 0.45425 0.0
C851 C 0.42756 1.12976 0.4202 0.0
H852 H 0.31954 1.05066 0.45842 0.0
C853 C 0.49017 1.07496 0.41732 0.0
C854 C 0.49497 1.01096 0.42933 0.0
H855 H 0.42911 1.17614 0.41035 0.0
H856 H 0.53645 1.08373 0.40549 0.0
C857 C 0.43077 1.00572 0.4443 0.0
C858 C 0.92948 0.50433 0.44439 0.0
C859 C 0.99478 0.51166 0.4298 0.0
H860 H 0.81655 0.54692 0.4583 0.0
C861 C 0.99004 0.57646 0.41818 0.0
H862 H 0.92841 0.4574 0.45403 0.0
C863 C 0.92635 0.63015 0.4211 0.0
C864 C 0.86066 0.62253 0.43555 0.0
H865 H 1.03732 0.58683 0.40668 0.0
H866 H 0.92809 0.67745 0.41161 0.0
C867 C 0.86442 0.55726 0.44694 0.0
C868 C 0.41127 0.57384 0.84674 0.0
C869 C 0.40643 0.5096 0.83484 0.0
H870 H 0.47279 0.67479 0.85365 0.0
C871 C 0.47111 0.50351 0.82002 0.0
H872 H 0.36456 0.58326 0.85844 0.0
C873 C 0.53568 0.55689 0.81757 0.0
C874 C 0.53962 0.62159 0.82927 0.0
H875 H 0.47217 0.45713 0.81015 0.0
H876 H 0.58316 0.54732 0.80605 0.0
C877 C 0.47442 0.62808 0.84391 0.0
C878 C 0.91105 1.074 0.8465 0.0
C879 C 0.90654 1.00962 0.83465 0.0
H880 H 0.97225 1.1751 0.8534 0.0
C881 C 0.97154 1.00348 0.81991 0.0
H882 H 0.86409 1.08349 0.85814 0.0
C883 C 1.03607 1.05694 0.81749 0.0
C884 C 1.03969 1.12177 0.82914 0.0
H885 H 0.97288 0.957 0.81009 0.0
H886 H 0.08376 1.04733 0.80602 0.0
C887 C 0.97418 1.12829 0.84371 0.0
C888 C 0.64003 0.38372 0.55777 0.0
C889 C 0.61782 0.41557 0.57667 0.0
H890 H 0.71139 0.30367 0.54145 0.0
C891 C 0.65069 0.3799 0.59428 0.0
H892 H 0.61327 0.40469 0.54375 0.0
C893 C 0.70614 0.3195 0.59307 0.0
C894 C 0.73078 0.28939 0.57408 0.0
H895 H 0.63231 0.39847 0.60933 0.0
H896 H 0.73168 0.2978 0.60712 0.0
C897 C 0.69458 0.32299 0.55653 0.0
C898 C 0.19397 0.82205 0.55662 0.0
C899 C 0.23017 0.78882 0.57423 0.0
H900 H 0.11258 0.90341 0.54369 0.0
C901 C 0.2054 0.81927 0.59316 0.0
H902 H 0.21089 0.80248 0.54157 0.0
C903 C 0.14983 0.87963 0.59427 0.0
C904 C 0.117 0.91493 0.57659 0.0
H905 H 0.23098 0.79792 0.60726 0.0
H906 H 0.13139 0.89848 0.60928 0.0
C907 C 0.1393 0.88272 0.55775 0.0
C908 C 0.69533 0.82679 0.1733 0.0
C909 C 0.66731 0.8009 0.19249 0.0
H910 H 0.77247 0.90161 0.15645 0.0
C911 C 0.70047 0.83834 0.20978 0.0
H912 H 0.67226 0.80205 0.1594 0.0
C913 C 0.7557 0.89854 0.20805 0.0
C914 C 0.78177 0.92585 0.18887 0.0
H915 H 0.68106 0.82229 0.22498 0.0
H916 H 0.7801 0.92245 0.22193 0.0
C917 C 0.7514 0.88654 0.17161 0.0
C918 C 0.25816 0.38884 0.17388 0.0
C919 C 0.30049 0.41363 0.19175 0.0
H920 H 0.17074 0.31472 0.15971 0.0
C921 C 0.28271 0.37352 0.20966 0.0
H922 H 0.26947 0.41598 0.15954 0.0
C923 C 0.22367 0.31557 0.20989 0.0
C924 C 0.18053 0.29094 0.19207 0.0
H925 H 0.31506 0.38683 0.22375 0.0
H926 H 0.21004 0.29063 0.22447 0.0
C927 C 0.20121 0.32906 0.17393 0.0
C928 C 0.37067 0.55304 0.94716 0.0
C929 C 0.36692 0.6177 0.93546 0.0
H930 H 0.43439 0.45349 0.95476 0.0
C931 C 0.43299 0.62448 0.92106 0.0
H932 H 0.32255 0.54326 0.95851 0.0
C933 C 0.49677 0.57053 0.91846 0.0
C934 C 0.50132 0.50632 0.93036 0.0
H935 H 0.43479 0.67115 0.91133 0.0
H936 H 0.54392 0.57999 0.90688 0.0
C937 C 0.43578 0.49993 0.94494 0.0
C938 C 0.99109 1.06735 0.91731 0.0
C939 C 0.99631 1.00323 0.92923 0.0
H940 H 0.92921 1.16818 0.91047 0.0
C941 C 0.93176 0.99701 0.94408 0.0
H942 H 1.03752 1.07676 0.90555 0.0
C943 C 0.86695 1.05026 0.94655 0.0
C944 C 0.86283 1.11492 0.93487 0.0
H945 H 0.93099 0.95065 0.95394 0.0
H946 H 0.81952 1.0407 0.95808 0.0
C947 C 0.92785 1.12149 0.9202 0.0
C948 C 0.40643 1.08262 0.34711 0.0
C949 C 0.4033 1.01824 0.33517 0.0
H950 H 0.46548 1.18457 0.35425 0.0
C951 C 0.4684 1.01377 0.3204 0.0
H952 H 0.35937 1.09105 0.35879 0.0
C953 C 0.53159 1.06855 0.31805 0.0
C954 C 0.53409 1.13327 0.32984 0.0
H955 H 0.47091 0.96756 0.31049 0.0
H956 H 0.57936 1.05991 0.30654 0.0
C957 C 0.46842 1.13814 0.34443 0.0
C958 C 1.02786 0.56684 0.31837 0.0
C959 C 1.03792 0.62766 0.3314 0.0
H960 H 0.9597 0.47011 0.31041 0.0
C961 C 0.98126 0.62979 0.34809 0.0
H962 H 1.06938 0.56077 0.30537 0.0
C963 C 0.91957 0.57497 0.35147 0.0
C964 C 0.90795 0.51501 0.33812 0.0
H965 H 0.98564 0.67319 0.35897 0.0
H966 H 0.87898 0.58084 0.36463 0.0
C967 C 0.96453 0.51313 0.3214 0.0
C968 C 0.6449 0.88317 0.0573 0.0
C969 C 0.62476 0.91684 0.07608 0.0
H970 H 0.71316 0.8007 0.04116 0.0
C971 C 0.6585 0.88208 0.09375 0.0
H972 H 0.61722 0.90326 0.04328 0.0
C973 C 0.71271 0.82082 0.09266 0.0
C974 C 0.7351 0.78878 0.07377 0.0
H975 H 0.64147 0.90187 0.10877 0.0
H976 H 0.73881 0.79973 0.10674 0.0
C977 C 0.69816 0.82156 0.05619 0.0
C978 C 0.18253 0.29307 0.09002 0.0
C979 C 0.23496 0.28988 0.07262 0.0
H980 H 0.08112 0.34513 0.10591 0.0
C981 C 0.22042 0.34549 0.05797 0.0
H982 H 0.18972 0.25343 0.10194 0.0
C983 C 0.16021 0.40166 0.06077 0.0
C984 C 0.10795 0.40505 0.07818 0.0
H985 H 0.25751 0.34659 0.04409 0.0
H986 H 0.15298 0.44127 0.04884 0.0
C987 C 0.12037 0.34797 0.09248 0.0
C988 C 0.7082 0.32163 0.70794 0.0
C989 C 0.67208 0.28809 0.69037 0.0
H990 H 0.78935 0.40326 0.7208 0.0
C991 C 0.69685 0.31829 0.67141 0.0
H992 H 0.6913 0.30229 0.72301 0.0
C993 C 0.75227 0.37869 0.67025 0.0
C994 C 0.78498 0.41434 0.68789 0.0
H995 H 0.67139 0.29669 0.65733 0.0
H996 H 0.7707 0.3973 0.65521 0.0
C997 C 0.76271 0.38236 0.70676 0.0
C998 C 0.20796 0.822 0.70801 0.0
C999 C 0.17189 0.78831 0.69046 0.0
H1000 H 0.28909 0.90374 0.72082 0.0
C1001 C 0.19669 0.81833 0.67148 0.0
H1002 H 0.19106 0.80277 0.72309 0.0
C1003 C 0.25209 0.87872 0.67028 0.0
C1004 C 0.28477 0.91452 0.6879 0.0
H1005 H 0.17131 0.79656 0.65741 0.0
H1006 H 0.27055 0.8972 0.65523 0.0
C1007 C 0.26247 0.88272 0.70679 0.0
C1008 C 0.37959 0.4151 0.37702 0.0
C1009 C 0.38047 0.43932 0.39736 0.0
H1010 H 0.45262 0.39539 0.34988 0.0
C1011 C 0.45801 0.45394 0.40668 0.0
H1012 H 0.32084 0.40123 0.36966 0.0
C1013 C 0.53206 0.45499 0.39519 0.0
C1014 C 0.53091 0.43552 0.37448 0.0
H1015 H 0.46082 0.46641 0.42285 0.0
H1016 H 0.58989 0.47246 0.40237 0.0
C1017 C 0.45488 0.4117 0.36578 0.0
C1018 C 0.91549 0.3187 0.37607 0.0
C1019 C 0.8829 0.25481 0.36806 0.0
H1020 H 1.00684 0.3677 0.39574 0.0
C1021 C 0.91908 1.19066 0.37424 0.0
H1022 H 0.88973 0.36952 0.37147 0.0
C1023 C 0.98569 1.18945 0.38834 0.0
C1024 C 1.01896 0.25272 0.39613 0.0
H1025 H 0.89487 1.14197 0.36784 0.0
H1026 H 1.01141 1.13943 0.39354 0.0
C1027 C 0.98359 0.31772 0.38974 0.0
C1028 C 0.48957 0.31236 0.88813 0.0
C1029 C 0.52161 0.24719 0.89544 0.0
H1030 H 0.39836 0.36425 0.86892 0.0
C1031 C 0.48498 1.18407 0.88854 0.0
H1032 H 0.51538 0.36239 0.89348 0.0
C1033 C 0.41848 1.18521 0.87447 0.0
C1034 C 0.38565 0.24941 0.86735 0.0
H1035 H 0.50806 1.13414 0.89446 0.0
H1036 H 0.39221 1.13629 0.86869 0.0
C1037 C 0.42149 0.31347 0.87439 0.0
C1038 C 0.91552 0.50362 0.88895 0.0
C1039 C 0.88166 0.44002 0.89619 0.0
H1040 H 1.00919 0.5557 0.87123 0.0
C1041 C 0.92122 0.37581 0.89019 0.0
H1042 H 0.88748 0.55322 0.89353 0.0
C1043 C 0.99307 0.37698 0.87727 0.0
C1044 C 1.02694 0.44242 0.87041 0.0
H1045 H 0.89746 0.32513 0.89557 0.0
H1046 H 1.02176 0.32712 0.87271 0.0
C1047 C 0.98642 0.50493 0.87651 0.0
C1048 C 0.73972 1.08926 0.65128 0.0
C1049 C 0.65195 1.08072 0.65038 0.0
H1050 H 0.85619 1.08608 0.6346 0.0
C1051 C 0.61334 1.08989 0.63116 0.0
H1052 H 0.77119 1.08785 0.66595 0.0
C1053 C 0.66214 1.09021 0.61311 0.0
C1054 C 0.74988 1.08116 0.61398 0.0
H1055 H 0.54564 1.08709 0.62979 0.0
H1056 H 0.63064 1.08949 0.59844 0.0
C1057 C 0.78852 1.08932 0.63323 0.0
C1058 C 0.15973 1.23753 0.6289 0.0
C1059 C 0.12233 1.17511 0.62214 0.0
H1060 H 0.27692 0.28648 0.63672 0.0
C1061 C 0.16283 1.10989 0.62663 0.0
H1062 H 0.12564 0.28658 0.62764 0.0
C1063 C 0.23988 1.10981 0.63757 0.0
C1064 C 0.28033 1.17496 0.64212 0.0
H1065 H 0.13544 1.05984 0.62177 0.0
H1066 H 0.2673 1.0597 0.64239 0.0
C1067 C 0.24288 1.23747 0.63542 0.0
C1068 C 0.69382 1.17633 0.1537 0.0
C1069 C 0.7758 1.17777 0.14562 0.0
H1070 H 0.56104 1.17785 0.14727 0.0
C1071 C 0.78603 1.16701 0.12448 0.0
H1072 H 0.68426 1.17998 0.17009 0.0
C1073 C 0.71556 1.16586 0.11144 0.0
C1074 C 0.63377 1.17272 0.1194 0.0
H1075 H 0.84836 1.16507 0.11789 0.0
H1076 H 0.72518 1.16293 0.09504 0.0
C1077 C 0.62333 1.17431 0.14072 0.0
C1078 C 0.23939 1.09363 0.15015 0.0
C1079 C 0.15167 1.08393 0.14907 0.0
H1080 H 0.35724 1.08986 0.13399 0.0
C1081 C 0.11452 1.08855 0.12954 0.0
H1082 H 0.26992 1.09487 0.16494 0.0
C1083 C 0.16477 1.08742 0.11169 0.0
C1084 C 0.2528 1.08051 0.11295 0.0
H1085 H 1.04707 1.08371 0.12791 0.0
H1086 H 0.13433 1.08401 0.09692 0.0
C1087 C 0.28962 1.09174 0.1323 0.0
C1088 C 0.49115 0.87679 0.87632 0.0
C1089 C 0.52558 0.94216 0.86957 0.0
H1090 H 0.39358 0.82517 0.89406 0.0
C1091 C 0.48426 1.00464 0.87527 0.0
H1092 H 0.52048 0.82689 0.87205 0.0
C1093 C 0.41193 1.00363 0.88717 0.0
C1094 C 0.37724 0.94002 0.89427 0.0
H1095 H 0.50752 1.05516 0.86999 0.0
H1096 H 0.38379 1.0536 0.89146 0.0
C1097 C 0.41781 0.87576 0.88873 0.0
C1098 C 0.97933 0.68249 0.89006 0.0
C1099 C 1.02086 0.74477 0.89585 0.0
H1100 H 0.88369 0.6356 0.87076 0.0
C1101 C 0.99362 0.80985 0.88738 0.0
H1102 H 0.99912 0.6328 0.89675 0.0
C1103 C 0.92565 0.81178 0.87362 0.0
C1104 C 0.88512 0.74848 0.86765 0.0
H1105 H 1.02333 0.85944 0.89175 0.0
H1106 H 0.90645 0.86244 0.86723 0.0
C1107 C 0.91318 0.68418 0.87585 0.0
C1108 C 0.41672 0.81161 0.3763 0.0
C1109 C 0.37971 0.74752 0.36981 0.0
H1110 H 0.51218 0.86126 0.39448 0.0
C1111 C 0.41365 0.68285 0.37681 0.0
H1112 H 0.39324 0.86235 0.37084 0.0
C1113 C 0.48412 0.68213 0.38966 0.0
C1114 C 0.52029 0.74617 0.3964 0.0
H1115 H 0.38577 0.63288 0.37231 0.0
H1116 H 0.51011 0.63151 0.39441 0.0
C1117 C 0.48631 0.81093 0.38941 0.0
C1118 C 0.90805 1.00891 0.3867 0.0
C1119 C 0.87497 0.9454 0.39437 0.0
H1120 H 1.00225 1.06011 0.36898 0.0
C1121 C 0.91701 0.88131 0.38935 0.0
H1122 H 0.87869 1.05889 0.39053 0.0
C1123 C 0.99032 0.88233 0.37694 0.0
C1124 C 1.02312 0.94755 0.36962 0.0
H1125 H 0.89405 0.83088 0.39513 0.0
H1126 H 1.02091 0.83254 0.37311 0.0
C1127 C 0.98018 1.00985 0.37473 0.0
C1128 C 0.74449 0.6092 0.15418 0.0
C1129 C 0.65723 0.59586 0.15393 0.0
H1130 H 0.859 0.61265 0.13664 0.0
C1131 C 0.61611 0.60111 0.13496 0.0
H1132 H 0.77792 0.60989 0.16862 0.0
C1133 C 0.66289 0.60214 0.11664 0.0
C1134 C 0.75133 0.59732 0.11698 0.0
H1135 H 0.54858 0.59537 0.13413 0.0
H1136 H 0.62981 0.59651 0.10223 0.0
C1137 C 0.79112 0.61142 0.13577 0.0
C1138 C 0.25042 0.73379 0.13443 0.0
C1139 C 0.28372 0.67205 0.14289 0.0
H1140 H 0.13672 0.78364 0.12431 0.0
C1141 C 0.24083 0.60723 0.1392 0.0
H1142 H 0.28549 0.78252 0.13546 0.0
C1143 C 0.16527 0.60688 0.12752 0.0
C1144 C 0.12865 0.67191 0.12113 0.0
H1145 H 0.26481 0.55774 0.14542 0.0
H1146 H 0.13563 0.55664 0.12372 0.0
C1147 C 0.16891 0.73441 0.12666 0.0
C1148 C 0.66101 0.73791 0.62877 0.0
C1149 C 0.62284 0.67554 0.62224 0.0
H1150 H 0.77867 0.78643 0.6364 0.0
C1151 C 0.66276 0.61019 0.62687 0.0
H1152 H 0.62727 0.78707 0.62744 0.0
C1153 C 0.73992 0.60996 0.63776 0.0
C1154 C 0.78102 0.67499 0.64211 0.0
H1155 H 0.63479 0.56017 0.62218 0.0
H1156 H 0.76684 0.55984 0.64273 0.0
C1157 C 0.74423 0.73754 0.63522 0.0
C1158 C 0.28889 0.58969 0.63353 0.0
C1159 C 0.25038 0.58122 0.61428 0.0
H1160 H 0.27141 0.58841 0.66624 0.0
C1161 C 0.16261 0.58992 0.61337 0.0
H1162 H 0.35658 0.58673 0.63491 0.0
C1163 C 0.11373 0.58952 0.63139 0.0
C1164 C 0.15228 0.58068 0.65063 0.0
H1165 H 0.13121 0.58894 0.59868 0.0
H1166 H 1.04606 0.58644 0.63 0.0
C1167 C 0.24 0.58957 0.65156 0.0
C1168 C 0.27228 0.4984 0.51826 0.0
C1169 C 0.35465 0.51121 0.5247 0.0
H1170 H 0.19325 0.45487 0.49504 0.0
C1171 C 0.42189 0.49114 0.51206 0.0
H1172 H 0.2198 0.51004 0.52827 0.0
C1173 C 0.40663 0.46288 0.49251 0.0
C1174 C 0.32405 0.4501 0.48613 0.0
H1175 H 0.48604 0.4974 0.51731 0.0
H1176 H 0.45891 0.45046 0.48254 0.0
C1177 C 0.2573 0.46653 0.49934 0.0
C1178 C 1.01265 0.31696 0.52148 0.0
C1179 C 1.05624 0.26342 0.53233 0.0
H1180 H 0.98992 0.36771 0.49263 0.0
C1181 C 0.12259 1.2281 0.5226 0.0
H1182 H 0.96085 0.34511 0.52852 0.0
C1183 C 0.14183 0.24399 0.50204 0.0
C1184 C 0.09295 0.29334 0.49078 0.0
H1185 H 0.15811 1.18762 0.53066 0.0
H1186 H 0.18967 1.21279 0.4944 0.0
C1187 C 1.03022 0.33129 0.50098 0.0
C1188 C 0.27868 1.22793 0.7414 0.0
C1189 C 0.34455 0.26402 0.73173 0.0
H1190 H 0.21086 1.21245 0.76947 0.0
C1191 C 0.38614 0.31879 0.74254 0.0
H1192 H 0.24457 1.18654 0.73337 0.0
C1193 C 0.36747 0.33342 0.76297 0.0
C1194 C 0.30566 0.29445 0.77315 0.0
H1195 H 0.43749 0.34762 0.73558 0.0
H1196 H 0.40665 0.37067 0.77133 0.0
C1197 C 0.25819 0.24422 0.76186 0.0
C1198 C 0.99376 0.4603 0.77219 0.0
C1199 C 1.07624 0.44853 0.77882 0.0
H1200 H 0.91494 0.49436 0.74721 0.0
C1201 C 0.14322 0.46577 0.76578 0.0
H1202 H 0.94122 0.44691 0.78196 0.0
C1203 C 0.12862 0.49798 0.74688 0.0
C1204 C 1.04639 0.51012 0.74022 0.0
H1205 H 0.20717 0.45417 0.77014 0.0
H1206 H 0.18138 0.5102 0.73702 0.0
C1207 C 0.97895 0.48883 0.75264 0.0
C1208 C 0.90699 0.96174 0.49216 0.0
C1209 C 0.82439 0.94979 0.48565 0.0
H1210 H 0.98633 0.99594 0.51702 0.0
C1211 C 0.75765 0.96699 0.49879 0.0
H1212 H 0.95933 0.94847 0.4823 0.0
C1213 C 0.77263 0.99911 0.51769 0.0
C1214 C 0.85499 1.01125 0.52425 0.0
H1215 H 0.69361 0.95547 0.4945 0.0
H1216 H 0.72007 1.01125 0.52763 0.0
C1217 C 0.9222 0.99027 0.5117 0.0
C1218 C 0.89933 0.32026 0.2452 0.0
C1219 C 0.85112 0.2711 0.23389 0.0
H1220 H 0.92072 0.37153 0.27399 0.0
C1221 C 0.7768 0.24481 0.2425 0.0
H1222 H 0.95629 0.34253 0.23882 0.0
C1223 C 0.75486 0.2637 0.26271 0.0
C1224 C 0.80755 0.3083 0.27457 0.0
H1225 H 0.73713 1.20875 0.23388 0.0
H1226 H 0.70133 1.23784 0.2697 0.0
C1227 C 0.87771 0.33887 0.26517 0.0
C1228 C 0.14544 0.95467 0.26452 0.0
C1229 C 0.07854 0.94698 0.27835 0.0
H1230 H 0.18596 0.99318 0.23523 0.0
C1231 C 0.9982 0.96997 0.27252 0.0
H1232 H 0.20778 0.93635 0.26847 0.0
C1233 C 0.98507 0.99891 0.25295 0.0
C1234 C 1.05302 1.00985 0.23964 0.0
H1235 H 0.94578 0.96476 0.28296 0.0
H1236 H 0.92193 1.01239 0.24813 0.0
C1237 C 0.13328 0.98765 0.24559 0.0
C1238 C 0.27739 0.99268 0.01766 0.0
C1239 C 0.36003 1.00614 0.02381 0.0
H1240 H 0.19732 0.94798 0.99482 0.0
C1241 C 0.42662 0.98513 0.01108 0.0
H1242 H 0.22537 1.00477 0.02776 0.0
C1243 C 0.41046 0.95581 0.99169 0.0
C1244 C 0.3276 0.94298 0.98551 0.0
H1245 H 0.49101 0.99162 0.01613 0.0
H1246 H 0.46231 0.94285 0.98164 0.0
C1247 C 0.26153 0.95993 0.99887 0.0
C1248 C 0.14715 0.74528 1.00143 0.0
C1249 C 0.09101 0.78787 0.9899 0.0
H1250 H 0.17112 0.69226 0.03027 0.0
C1251 C 1.02004 0.81568 0.99962 0.0
H1252 H 0.20153 0.7216 0.99416 0.0
C1253 C 1.00124 0.79633 0.01965 0.0
C1254 C 1.05334 0.74945 0.03073 0.0
H1255 H 0.97466 0.84685 0.99104 0.0
H1256 H 0.94385 0.81669 0.02633 0.0
C1257 C 0.12835 0.72608 0.02178 0.0
C1258 C 0.26268 0.73985 0.26392 0.0
C1259 C 0.30854 0.79144 0.27507 0.0
H1260 H 0.24762 0.6843 0.23518 0.0
C1261 C 0.36554 0.83456 0.26462 0.0
H1262 H 0.2193 0.70488 0.27178 0.0
C1263 C 0.38009 0.82374 0.24377 0.0
C1264 C 0.3402 0.76795 0.23299 0.0
H1265 H 0.40338 0.87302 0.27289 0.0
H1266 H 0.42761 0.856 0.23644 0.0
C1267 C 0.27975 0.72702 0.24312 0.0
C1268 C 0.7554 0.42986 1.00279 0.0
C1269 C 0.82244 0.43132 0.98878 0.0
H1270 H 0.71038 0.45902 0.0326 0.0
C1271 C 0.89965 0.45952 0.99514 0.0
H1272 H 0.69513 0.40846 0.99836 0.0
C1273 C 0.90904 0.48651 0.01511 0.0
C1274 C 0.84025 0.48891 0.02859 0.0
H1275 H 0.95244 0.4604 0.98472 0.0
H1276 H 0.9698 0.50594 0.02004 0.0
C1277 C 0.76381 0.45918 0.02236 0.0
C1278 C 0.86876 0.83204 0.76319 0.0
C1279 C 0.80697 0.793 0.77335 0.0
H1280 H 0.93817 0.8468 0.73573 0.0
C1281 C 0.7592 0.74305 0.76204 0.0
H1282 H 0.90816 0.86903 0.77158 0.0
C1283 C 0.77916 0.72728 0.74152 0.0
C1284 C 0.84485 0.76353 0.73184 0.0
H1285 H 0.71195 0.7112 0.76965 0.0
H1286 H 0.7448 0.68612 0.73345 0.0
C1287 C 0.88689 0.81792 0.7427 0.0
C1288 C 0.5323 0.33145 0.99936 0.0
C1289 C 0.59317 0.29063 0.98938 0.0
H1290 H 0.4663 0.35082 0.02723 0.0
C1291 C 0.64216 0.24234 1.00091 0.0
H1292 H 0.49252 0.36757 0.99075 0.0
C1293 C 0.62373 1.2292 0.02156 0.0
C1294 C 0.55887 0.26684 0.0311 0.0
H1295 H 0.68872 1.20931 0.99342 0.0
H1296 H 0.65804 1.18843 0.02981 0.0
C1297 C 0.51643 0.3206 0.02012 0.0
C1298 C 0.61573 0.53787 0.27685 0.0
C1299 C 0.57189 0.47938 0.28493 0.0
H1300 H 0.63817 0.6052 0.25088 0.0
C1301 C 0.51198 0.44496 0.27277 0.0
H1302 H 0.66345 0.56415 0.28564 0.0
C1303 C 0.4957 0.46997 0.25293 0.0
C1304 C 0.53998 0.52891 0.24502 0.0
H1305 H 0.47891 0.39862 0.27845 0.0
H1306 H 0.45061 0.44184 0.24347 0.0
C1307 C 0.6006 0.56213 0.25703 0.0
C1308 C 0.64395 0.96318 0.76533 0.0
C1309 C 0.57695 0.94704 0.77848 0.0
H1310 H 0.68229 1.00726 0.73654 0.0
C1311 C 0.4946 0.96073 0.77205 0.0
H1312 H 0.70777 0.95052 0.76958 0.0
C1313 C 0.47987 0.98957 0.75254 0.0
C1314 C 0.54742 1.00952 0.73998 0.0
H1315 H 0.44205 0.94848 0.78195 0.0
H1316 H 0.41585 0.99629 0.74723 0.0
C1317 C 0.62955 0.99588 0.74648 0.0
C1318 C 0.62218 0.7277 0.52282 0.0
C1319 C 0.55727 0.76457 0.53267 0.0
H1320 H 0.68884 0.71168 0.49458 0.0
C1321 C 0.51619 0.81994 0.52199 0.0
H1322 H 0.65585 0.68575 0.53072 0.0
C1323 C 0.53448 0.83461 0.50155 0.0
C1324 C 0.59544 0.79509 0.4912 0.0
H1325 H 0.4655 0.84934 0.52907 0.0
H1326 H 0.4958 0.87261 0.49332 0.0
C1327 C 0.64226 0.74394 0.50232 0.0
loop_
_geom_bond_atom_site_label_1
_geom_bond_atom_site_label_2
_geom_bond_distance
_geom_bond_site_symmetry_2
_ccdc_geom_bond_type
Co0 N1 2.034 1_545 S
Co0 O15 2.262 . S
Co0 O19 1.958 1_545 S
Co0 O23 1.952 . S
Co0 O24 2.057 1_455 S
N1 Co0 2.034 1_565 S
N1 C2 1.366 . S
N1 C4 1.333 1_455 S
C2 N1 1.366 . S
C2 C5 1.377 1_455 S
C2 H34 0.931 . S
N3 C4 1.346 . S
N3 C5 1.337 . S
C4 N1 1.333 1_655 S
C4 N3 1.346 . S
C4 C38 1.361 . S
C5 C2 1.377 1_655 S
C5 N3 1.337 . S
C5 H41 0.930 . S
Co6 N7 2.034 . S
Co6 O20 1.950 . S
Co6 O21 2.262 . S
Co6 O22 1.958 . S
Co6 O26 2.057 . S
N7 Co6 2.034 . S
N7 C10 1.366 . S
N7 C11 1.332 . S
N8 C9 1.337 . S
N8 C11 1.346 . S
C9 N8 1.337 . S
C9 C10 1.377 . S
C9 H42 0.930 . S
C10 N7 1.366 . S
C10 C9 1.377 . S
C10 H14 0.931 . S
C11 N7 1.332 . S
C11 N8 1.346 . S
C11 C28 1.361 . S
Co12 O15 2.097 . S
Co12 O16 2.065 . S
Co12 O17 2.065 . S
Co12 O18 2.042 . S
Co12 O21 2.097 . S
Co12 O25 2.042 . S
C13 O21 1.253 . S
C13 O26 1.263 . S
H14 C10 0.931 . S
O15 Co0 2.262 . S
O15 Co12 2.097 . S
O15 C39 1.253 . S
O16 Co12 2.065 . S
O16 C32 1.221 . S
O17 Co12 2.065 . S
O17 C27 1.221 . S
O18 Co12 2.042 . S
O18 C33 1.237 . S
O19 Co0 1.958 1_565 S
O19 C33 1.278 1_565 S
O20 Co6 1.950 . S
O20 C32 1.277 . S
O21 Co6 2.262 . S
O21 Co12 2.097 . S
O21 C13 1.253 . S
O22 Co6 1.958 . S
O22 C40 1.278 . S
O23 Co0 1.952 . S
O23 C27 1.278 . S
O24 Co0 2.057 1_655 S
O24 C39 1.263 1_655 S
O25 Co12 2.042 . S
O25 C40 1.237 . S
O26 Co6 2.057 . S
O26 C13 1.263 . S
C27 O17 1.221 . S
C27 O23 1.278 . S
C28 C11 1.361 . S
C28 H29 0.960 . S
C28 H30 0.961 . S
C28 H31 0.961 . S
H29 C28 0.960 . S
H30 C28 0.961 . S
H31 C28 0.961 . S
C32 O16 1.221 . S
C32 O20 1.277 . S
C33 O18 1.237 . S
C33 O19 1.278 1_545 S
H34 C2 0.931 . S
H35 C38 0.961 . S
H36 C38 0.961 . S
H37 C38 0.960 . S
C38 C4 1.361 . S
C38 H35 0.961 . S
C38 H36 0.961 . S
C38 H37 0.960 . S
C39 O15 1.253 . S
C39 O24 1.263 1_455 S
C40 O22 1.278 . S
C40 O25 1.237 . S
H41 C5 0.930 . S
H42 C9 0.930 . S
Co43 N44 2.034 1_545 S
Co43 O58 2.262 . S
Co43 O62 1.958 1_545 S
Co43 O66 1.950 . S
Co43 O67 2.057 . S
N44 Co43 2.034 1_565 S
N44 C45 1.366 . S
N44 C47 1.332 . S
C45 N44 1.366 . S
C45 C48 1.377 . S
C45 H77 0.931 . S
N46 C47 1.346 . S
N46 C48 1.337 . S
C47 N44 1.332 . S
C47 N46 1.346 . S
C47 C81 1.361 . S
C48 C45 1.377 . S
C48 N46 1.337 . S
C48 H84 0.930 . S
Co49 N50 2.034 1_455 S
Co49 O63 1.950 . S
Co49 O64 2.262 . S
Co49 O65 1.958 1_455 S
Co49 O69 2.057 1_455 S
N50 Co49 2.034 1_655 S
N50 C53 1.366 . S
N50 C54 1.332 . S
N51 C52 1.337 . S
N51 C54 1.346 . S
C52 N51 1.337 . S
C52 C53 1.377 . S
C52 H85 0.930 . S
C53 N50 1.366 . S
C53 C52 1.377 . S
C53 H57 0.931 . S
C54 N50 1.332 . S
C54 N51 1.346 . S
C54 C71 1.361 1_655 S
Co55 O58 2.097 . S
Co55 O59 2.065 . S
Co55 O60 2.065 . S
Co55 O61 2.042 . S
Co55 O64 2.097 . S
Co55 O68 2.042 . S
C56 O64 1.253 . S
C56 O69 1.263 1_455 S
H57 C53 0.931 . S
O58 Co43 2.262 . S
O58 Co55 2.097 . S
O58 C82 1.253 . S
O59 Co55 2.065 . S
O59 C75 1.221 . S
O60 Co55 2.065 . S
O60 C70 1.221 . S
O61 Co55 2.042 . S
O61 C76 1.237 . S
O62 Co43 1.958 1_565 S
O62 C76 1.278 1_565 S
O63 Co49 1.950 . S
O63 C75 1.277 . S
O64 Co49 2.262 . S
O64 Co55 2.097 . S
O64 C56 1.253 . S
O65 Co49 1.958 1_655 S
O65 C83 1.278 1_655 S
O66 Co43 1.950 . S
O66 C70 1.277 . S
O67 Co43 2.057 . S
O67 C82 1.263 . S
O68 Co55 2.042 . S
O68 C83 1.237 . S
O69 Co49 2.057 1_655 S
O69 C56 1.263 1_655 S
C70 O60 1.221 . S
C70 O66 1.277 . S
C71 C54 1.361 1_455 S
C71 H72 0.960 . S
C71 H73 0.961 . S
C71 H74 0.961 . S
H72 C71 0.960 . S
H73 C71 0.961 . S
H74 C71 0.961 . S
C75 O59 1.221 . S
C75 O63 1.277 . S
C76 O61 1.237 . S
C76 O62 1.278 1_545 S
H77 C45 0.931 . S
H78 C81 0.961 . S
H79 C81 0.961 . S
H80 C81 0.960 . S
C81 C47 1.361 . S
C81 H78 0.961 . S
C81 H79 0.961 . S
C81 H80 0.960 . S
C82 O58 1.253 . S
C82 O67 1.263 . S
C83 O65 1.278 1_455 S
C83 O68 1.237 . S
H84 C48 0.930 . S
H85 C52 0.930 . S
Co86 N87 2.034 . S
Co86 O101 2.262 . S
Co86 O105 1.958 . S
Co86 O109 1.950 . S
Co86 O110 2.057 . S
N87 Co86 2.034 . S
N87 C88 1.366 . S
N87 C90 1.332 . S
C88 N87 1.366 . S
C88 C91 1.377 . S
C88 H120 0.931 . S
N89 C90 1.346 . S
N89 C91 1.337 . S
C90 N87 1.332 . S
C90 N89 1.346 . S
C90 C124 1.361 . S
C91 C88 1.377 . S
C91 N89 1.337 . S
C91 H127 0.930 . S
Co92 N93 2.034 1_665 S
Co92 O106 1.950 . S
Co92 O107 2.262 . S
Co92 O108 1.958 1_655 S
Co92 O112 2.057 1_655 S
N93 Co92 2.034 1_445 S
N93 C96 1.366 . S
N93 C97 1.332 . S
N94 C95 1.337 . S
N94 C97 1.346 . S
C95 N94 1.337 . S
C95 C96 1.377 . S
C95 H128 0.930 . S
C96 N93 1.366 . S
C96 C95 1.377 . S
C96 H100 0.931 . S
C97 N93 1.332 . S
C97 N94 1.346 . S
C97 C114 1.361 1_455 S
Co98 O101 2.097 . S
Co98 O102 2.065 . S
Co98 O103 2.065 . S
Co98 O104 2.042 . S
Co98 O107 2.097 . S
Co98 O111 2.042 . S
C99 O107 1.253 . S
C99 O112 1.263 1_655 S
H100 C96 0.931 . S
O101 Co86 2.262 . S
O101 Co98 2.097 . S
O101 C125 1.253 . S
O102 Co98 2.065 . S
O102 C118 1.221 . S
O103 Co98 2.065 . S
O103 C113 1.221 . S
O104 Co98 2.042 . S
O104 C119 1.237 . S
O105 Co86 1.958 . S
O105 C119 1.278 . S
O106 Co92 1.950 . S
O106 C118 1.277 . S
O107 Co92 2.262 . S
O107 Co98 2.097 . S
O107 C99 1.253 . S
O108 Co92 1.958 1_455 S
O108 C126 1.278 1_455 S
O109 Co86 1.950 . S
O109 C113 1.277 . S
O110 Co86 2.057 . S
O110 C125 1.263 . S
O111 Co98 2.042 . S
O111 C126 1.237 . S
O112 Co92 2.057 1_455 S
O112 C99 1.263 1_455 S
C113 O103 1.221 . S
C113 O109 1.277 . S
C114 C97 1.361 1_655 S
C114 H115 0.960 . S
C114 H116 0.961 . S
C114 H117 0.961 . S
H115 C114 0.960 . S
H116 C114 0.961 . S
H117 C114 0.961 . S
C118 O102 1.221 . S
C118 O106 1.277 . S
C119 O104 1.237 . S
C119 O105 1.278 . S
H120 C88 0.931 . S
H121 C124 0.961 . S
H122 C124 0.961 . S
H123 C124 0.960 . S
C124 C90 1.361 . S
C124 H121 0.961 . S
C124 H122 0.961 . S
C124 H123 0.960 . S
C125 O101 1.253 . S
C125 O110 1.263 . S
C126 O108 1.278 1_655 S
C126 O111 1.237 . S
H127 C91 0.930 . S
H128 C95 0.930 . S
Co129 N130 2.034 . S
Co129 O144 2.262 . S
Co129 O148 1.958 . S
Co129 O152 1.950 . S
Co129 O153 2.057 1_655 S
N130 Co129 2.034 . S
N130 C131 1.366 . S
N130 C133 1.332 1_655 S
C131 N130 1.366 . S
C131 C134 1.377 1_655 S
C131 H163 0.931 . S
N132 C133 1.346 . S
N132 C134 1.337 . S
C133 N130 1.332 1_455 S
C133 N132 1.346 . S
C133 C167 1.361 . S
C134 C131 1.377 1_455 S
C134 N132 1.337 . S
C134 H170 0.930 1_455 S
Co135 N136 2.034 1_565 S
Co135 O149 1.950 . S
Co135 O150 2.262 . S
Co135 O151 1.958 . S
Co135 O155 2.057 . S
N136 Co135 2.034 1_545 S
N136 C139 1.366 . S
N136 C140 1.332 . S
N137 C138 1.337 . S
N137 C140 1.346 . S
C138 N137 1.337 . S
C138 C139 1.377 . S
C138 H171 0.930 . S
C139 N136 1.366 . S
C139 C138 1.377 . S
C139 H143 0.931 . S
C140 N136 1.332 . S
C140 N137 1.346 . S
C140 C157 1.361 . S
Co141 O144 2.097 . S
Co141 O145 2.065 . S
Co141 O146 2.065 . S
Co141 O147 2.042 . S
Co141 O150 2.097 . S
Co141 O154 2.042 . S
C142 O150 1.253 . S
C142 O155 1.263 . S
H143 C139 0.931 . S
O144 Co129 2.262 . S
O144 Co141 2.097 . S
O144 C168 1.253 . S
O145 Co141 2.065 . S
O145 C161 1.221 . S
O146 Co141 2.065 . S
O146 C156 1.221 . S
O147 Co141 2.042 . S
O147 C162 1.237 . S
O148 Co129 1.958 . S
O148 C162 1.278 . S
O149 Co135 1.950 . S
O149 C161 1.277 . S
O150 Co135 2.262 . S
O150 Co141 2.097 . S
O150 C142 1.253 . S
O151 Co135 1.958 . S
O151 C169 1.278 . S
O152 Co129 1.950 . S
O152 C156 1.277 . S
O153 Co129 2.057 1_455 S
O153 C168 1.263 1_455 S
O154 Co141 2.042 . S
O154 C169 1.237 . S
O155 Co135 2.057 . S
O155 C142 1.263 . S
C156 O146 1.221 . S
C156 O152 1.277 . S
C157 C140 1.361 . S
C157 H158 0.960 . S
C157 H159 0.961 . S
C157 H160 0.961 . S
H158 C157 0.960 . S
H159 C157 0.961 . S
H160 C157 0.961 . S
C161 O145 1.221 . S
C161 O149 1.277 . S
C162 O147 1.237 . S
C162 O148 1.278 . S
H163 C131 0.931 . S
H164 C167 0.961 . S
H165 C167 0.961 . S
H166 C167 0.960 . S
C167 C133 1.361 . S
C167 H164 0.961 . S
C167 H165 0.961 . S
C167 H166 0.960 . S
C168 O144 1.253 . S
C168 O153 1.263 1_655 S
C169 O151 1.278 . S
C169 O154 1.237 . S
H170 C134 0.930 1_655 S
H171 C138 0.930 . S
Co172 N173 2.034 . S
Co172 O187 2.262 . S
Co172 O191 1.958 . S
Co172 O195 1.950 . S
Co172 O196 2.057 . S
N173 Co172 2.034 . S
N173 C174 1.366 . S
N173 C176 1.332 . S
C174 N173 1.366 . S
C174 C177 1.377 . S
C174 H206 0.931 . S
N175 C176 1.346 . S
N175 C177 1.337 . S
C176 N173 1.332 . S
C176 N175 1.346 . S
C176 C210 1.361 . S
C177 C174 1.377 . S
C177 N175 1.337 . S
C177 H213 0.930 . S
Co178 N179 2.034 . S
Co178 O192 1.952 . S
Co178 O193 2.262 . S
Co178 O194 1.958 . S
Co178 O198 2.057 1_455 S
N179 Co178 2.034 . S
N179 C182 1.366 . S
N179 C183 1.333 1_455 S
N180 C181 1.337 . S
N180 C183 1.346 . S
C181 N180 1.337 . S
C181 C182 1.377 1_655 S
C181 H214 0.930 . S
C182 N179 1.366 . S
C182 C181 1.377 1_455 S
C182 H186 0.931 . S
C183 N179 1.333 1_655 S
C183 N180 1.346 . S
C183 C200 1.361 . S
Co184 O187 2.097 . S
Co184 O188 2.065 . S
Co184 O189 2.065 . S
Co184 O190 2.042 . S
Co184 O193 2.097 . S
Co184 O197 2.042 . S
C185 O193 1.253 . S
C185 O198 1.263 1_455 S
H186 C182 0.931 . S
O187 Co172 2.262 . S
O187 Co184 2.097 . S
O187 C211 1.253 . S
O188 Co184 2.065 . S
O188 C204 1.221 . S
O189 Co184 2.065 . S
O189 C199 1.221 . S
O190 Co184 2.042 . S
O190 C205 1.237 . S
O191 Co172 1.958 . S
O191 C205 1.278 . S
O192 Co178 1.952 . S
O192 C204 1.278 . S
O193 Co178 2.262 . S
O193 Co184 2.097 . S
O193 C185 1.253 . S
O194 Co178 1.958 . S
O194 C212 1.278 . S
O195 Co172 1.950 . S
O195 C199 1.277 . S
O196 Co172 2.057 . S
O196 C211 1.263 . S
O197 Co184 2.042 . S
O197 C212 1.237 . S
O198 Co178 2.057 1_655 S
O198 C185 1.263 1_655 S
C199 O189 1.221 . S
C199 O195 1.277 . S
C200 C183 1.361 . S
C200 H201 0.960 . S
C200 H202 0.961 . S
C200 H203 0.961 . S
H201 C200 0.960 . S
H202 C200 0.961 . S
H203 C200 0.961 . S
C204 O188 1.221 . S
C204 O192 1.278 . S
C205 O190 1.237 . S
C205 O191 1.278 . S
H206 C174 0.931 . S
H207 C210 0.961 . S
H208 C210 0.961 . S
H209 C210 0.960 . S
C210 C176 1.361 . S
C210 H207 0.961 . S
C210 H208 0.961 . S
C210 H209 0.960 . S
C211 O187 1.253 . S
C211 O196 1.263 . S
C212 O194 1.278 . S
C212 O197 1.237 . S
H213 C177 0.930 . S
H214 C181 0.930 . S
Co215 N216 2.034 . S
Co215 O230 2.262 . S
Co215 O234 1.958 . S
Co215 O238 1.950 . S
Co215 O239 2.057 . S
N216 Co215 2.034 . S
N216 C217 1.366 . S
N216 C219 1.332 . S
C217 N216 1.366 . S
C217 C220 1.377 . S
C217 H249 0.931 . S
N218 C219 1.346 . S
N218 C220 1.337 . S
C219 N216 1.332 . S
C219 N218 1.346 . S
C219 C253 1.361 . S
C220 C217 1.377 . S
C220 N218 1.337 . S
C220 H256 0.930 . S
Co221 N222 2.034 1_455 S
Co221 O235 1.950 . S
Co221 O236 2.262 . S
Co221 O237 1.958 1_455 S
Co221 O241 2.057 1_455 S
N222 Co221 2.034 1_655 S
N222 C225 1.366 . S
N222 C226 1.332 . S
N223 C224 1.337 . S
N223 C226 1.346 . S
C224 N223 1.337 . S
C224 C225 1.377 . S
C224 H257 0.930 . S
C225 N222 1.366 . S
C225 C224 1.377 . S
C225 H229 0.931 . S
C226 N222 1.332 . S
C226 N223 1.346 . S
C226 C243 1.361 1_655 S
Co227 O230 2.097 . S
Co227 O231 2.065 . S
Co227 O232 2.065 . S
Co227 O233 2.042 . S
Co227 O236 2.097 . S
Co227 O240 2.042 . S
C228 O236 1.253 . S
C228 O241 1.263 1_455 S
H229 C225 0.931 . S
O230 Co215 2.262 . S
O230 Co227 2.097 . S
O230 C254 1.253 . S
O231 Co227 2.065 . S
O231 C247 1.221 . S
O232 Co227 2.065 . S
O232 C242 1.221 . S
O233 Co227 2.042 . S
O233 C248 1.237 . S
O234 Co215 1.958 . S
O234 C248 1.278 . S
O235 Co221 1.950 . S
O235 C247 1.277 . S
O236 Co221 2.262 . S
O236 Co227 2.097 . S
O236 C228 1.253 . S
O237 Co221 1.958 1_655 S
O237 C255 1.278 1_655 S
O238 Co215 1.950 . S
O238 C242 1.277 . S
O239 Co215 2.057 . S
O239 C254 1.263 . S
O240 Co227 2.042 . S
O240 C255 1.237 . S
O241 Co221 2.057 1_655 S
O241 C228 1.263 1_655 S
C242 O232 1.221 . S
C242 O238 1.277 . S
C243 C226 1.361 1_455 S
C243 H244 0.960 . S
C243 H245 0.961 . S
C243 H246 0.961 . S
H244 C243 0.960 . S
H245 C243 0.961 . S
H246 C243 0.961 . S
C247 O231 1.221 . S
C247 O235 1.277 . S
C248 O233 1.237 . S
C248 O234 1.278 . S
H249 C217 0.931 . S
H250 C253 0.961 . S
H251 C253 0.961 . S
H252 C253 0.960 . S
C253 C219 1.361 . S
C253 H250 0.961 . S
C253 H251 0.961 . S
C253 H252 0.960 . S
C254 O230 1.253 . S
C254 O239 1.263 . S
C255 O237 1.278 1_455 S
C255 O240 1.237 . S
H256 C220 0.930 . S
H257 C224 0.930 . S
Co258 N259 2.034 . S
Co258 O273 2.262 . S
Co258 O277 1.958 . S
Co258 O281 1.950 . S
Co258 O282 2.057 . S
N259 Co258 2.034 . S
N259 C260 1.366 . S
N259 C262 1.332 . S
C260 N259 1.366 . S
C260 C263 1.377 . S
C260 H292 0.931 . S
N261 C262 1.346 . S
N261 C263 1.337 . S
C262 N259 1.332 . S
C262 N261 1.346 . S
C262 C296 1.361 . S
C263 C260 1.377 . S
C263 N261 1.337 . S
C263 H299 0.930 . S
Co264 N265 2.034 1_655 S
Co264 O278 1.950 . S
Co264 O279 2.262 . S
Co264 O280 1.958 1_655 S
Co264 O284 2.057 1_655 S
N265 Co264 2.034 1_455 S
N265 C268 1.366 . S
N265 C269 1.332 . S
N266 C267 1.337 . S
N266 C269 1.346 . S
C267 N266 1.337 . S
C267 C268 1.377 . S
C267 H300 0.930 . S
C268 N265 1.366 . S
C268 C267 1.377 . S
C268 H272 0.931 . S
C269 N265 1.332 . S
C269 N266 1.346 . S
C269 C286 1.361 1_455 S
Co270 O273 2.097 . S
Co270 O274 2.065 . S
Co270 O275 2.065 . S
Co270 O276 2.042 . S
Co270 O279 2.097 . S
Co270 O283 2.042 . S
C271 O279 1.253 . S
C271 O284 1.263 1_655 S
H272 C268 0.931 . S
O273 Co258 2.262 . S
O273 Co270 2.097 . S
O273 C297 1.253 . S
O274 Co270 2.065 . S
O274 C290 1.221 . S
O275 Co270 2.065 . S
O275 C285 1.221 . S
O276 Co270 2.042 . S
O276 C291 1.237 . S
O277 Co258 1.958 . S
O277 C291 1.278 . S
O278 Co264 1.950 . S
O278 C290 1.277 . S
O279 Co264 2.262 . S
O279 Co270 2.097 . S
O279 C271 1.253 . S
O280 Co264 1.958 1_455 S
O280 C298 1.278 1_455 S
O281 Co258 1.950 . S
O281 C285 1.277 . S
O282 Co258 2.057 . S
O282 C297 1.263 . S
O283 Co270 2.042 . S
O283 C298 1.237 . S
O284 Co264 2.057 1_455 S
O284 C271 1.263 1_455 S
C285 O275 1.221 . S
C285 O281 1.277 . S
C286 C269 1.361 1_655 S
C286 H287 0.960 . S
C286 H288 0.961 . S
C286 H289 0.961 . S
H287 C286 0.960 . S
H288 C286 0.961 . S
H289 C286 0.961 . S
C290 O274 1.221 . S
C290 O278 1.277 . S
C291 O276 1.237 . S
C291 O277 1.278 . S
H292 C260 0.931 . S
H293 C296 0.961 . S
H294 C296 0.961 . S
H295 C296 0.960 . S
C296 C262 1.361 . S
C296 H293 0.961 . S
C296 H294 0.961 . S
C296 H295 0.960 . S
C297 O273 1.253 . S
C297 O282 1.263 . S
C298 O280 1.278 1_655 S
C298 O283 1.237 . S
H299 C263 0.930 . S
H300 C267 0.930 . S
Co301 N302 2.034 . S
Co301 O316 2.262 . S
Co301 O320 1.958 . S
Co301 O324 1.950 . S
Co301 O325 2.057 . S
N302 Co301 2.034 . S
N302 C303 1.366 . S
N302 C305 1.332 . S
C303 N302 1.366 . S
C303 C306 1.377 . S
C303 H335 0.931 . S
N304 C305 1.346 . S
N304 C306 1.337 . S
C305 N302 1.332 . S
C305 N304 1.346 . S
C305 C339 1.361 . S
C306 C303 1.377 . S
C306 N304 1.337 . S
C306 H342 0.930 . S
Co307 N308 2.034 . S
Co307 O321 1.950 . S
Co307 O322 2.262 . S
Co307 O323 1.958 . S
Co307 O327 2.057 1_655 S
N308 Co307 2.034 . S
N308 C311 1.366 . S
N308 C312 1.332 1_655 S
N309 C310 1.337 . S
N309 C312 1.346 . S
C310 N309 1.337 . S
C310 C311 1.377 1_455 S
C310 H343 0.930 1_455 S
C311 N308 1.366 . S
C311 C310 1.377 1_655 S
C311 H315 0.931 . S
C312 N308 1.332 1_455 S
C312 N309 1.346 . S
C312 C329 1.361 . S
Co313 O316 2.097 . S
Co313 O317 2.065 . S
Co313 O318 2.065 . S
Co313 O319 2.042 . S
Co313 O322 2.097 . S
Co313 O326 2.042 . S
C314 O322 1.253 . S
C314 O327 1.263 1_655 S
H315 C311 0.931 . S
O316 Co301 2.262 . S
O316 Co313 2.097 . S
O316 C340 1.253 . S
O317 Co313 2.065 . S
O317 C333 1.221 . S
O318 Co313 2.065 . S
O318 C328 1.221 . S
O319 Co313 2.042 . S
O319 C334 1.237 . S
O320 Co301 1.958 . S
O320 C334 1.278 . S
O321 Co307 1.950 . S
O321 C333 1.277 . S
O322 Co307 2.262 . S
O322 Co313 2.097 . S
O322 C314 1.253 . S
O323 Co307 1.958 . S
O323 C341 1.278 . S
O324 Co301 1.950 . S
O324 C328 1.277 . S
O325 Co301 2.057 . S
O325 C340 1.263 . S
O326 Co313 2.042 . S
O326 C341 1.237 . S
O327 Co307 2.057 1_455 S
O327 C314 1.263 1_455 S
C328 O318 1.221 . S
C328 O324 1.277 . S
C329 C312 1.361 . S
C329 H330 0.960 . S
C329 H331 0.961 . S
C329 H332 0.961 . S
H330 C329 0.960 . S
H331 C329 0.961 . S
H332 C329 0.961 . S
C333 O317 1.221 . S
C333 O321 1.277 . S
C334 O319 1.237 . S
C334 O320 1.278 . S
H335 C303 0.931 . S
H336 C339 0.961 . S
H337 C339 0.961 . S
H338 C339 0.960 . S
C339 C305 1.361 . S
C339 H336 0.961 . S
C339 H337 0.961 . S
C339 H338 0.960 . S
C340 O316 1.253 . S
C340 O325 1.263 . S
C341 O323 1.278 . S
C341 O326 1.237 . S
H342 C306 0.930 . S
H343 C310 0.930 1_655 S
Co344 N345 2.034 1_545 S
Co344 O359 2.262 . S
Co344 O363 1.958 1_545 S
Co344 O367 1.950 . S
Co344 O368 2.057 . S
N345 Co344 2.034 1_565 S
N345 C346 1.366 . S
N345 C348 1.332 . S
C346 N345 1.366 . S
C346 C349 1.377 . S
C346 H378 0.931 . S
N347 C348 1.346 . S
N347 C349 1.337 . S
C348 N345 1.332 . S
C348 N347 1.346 . S
C348 C382 1.361 . S
C349 C346 1.377 . S
C349 N347 1.337 . S
C349 H385 0.930 . S
Co350 N351 2.034 . S
Co350 O364 1.950 . S
Co350 O365 2.262 . S
Co350 O366 1.958 . S
Co350 O370 2.057 . S
N351 Co350 2.034 . S
N351 C354 1.366 . S
N351 C355 1.332 . S
N352 C353 1.337 . S
N352 C355 1.346 . S
C353 N352 1.337 . S
C353 C354 1.377 . S
C353 H386 0.930 . S
C354 N351 1.366 . S
C354 C353 1.377 . S
C354 H358 0.931 . S
C355 N351 1.332 . S
C355 N352 1.346 . S
C355 C372 1.361 . S
Co356 O359 2.097 . S
Co356 O360 2.065 . S
Co356 O361 2.065 . S
Co356 O362 2.042 . S
Co356 O365 2.097 . S
Co356 O369 2.042 . S
C357 O365 1.253 . S
C357 O370 1.263 . S
H358 C354 0.931 . S
O359 Co344 2.262 . S
O359 Co356 2.097 . S
O359 C383 1.253 . S
O360 Co356 2.065 . S
O360 C376 1.221 . S
O361 Co356 2.065 . S
O361 C371 1.221 . S
O362 Co356 2.042 . S
O362 C377 1.237 . S
O363 Co344 1.958 1_565 S
O363 C377 1.278 1_565 S
O364 Co350 1.950 . S
O364 C376 1.277 . S
O365 Co350 2.262 . S
O365 Co356 2.097 . S
O365 C357 1.253 . S
O366 Co350 1.958 . S
O366 C384 1.278 . S
O367 Co344 1.950 . S
O367 C371 1.277 . S
O368 Co344 2.057 . S
O368 C383 1.263 . S
O369 Co356 2.042 . S
O369 C384 1.237 . S
O370 Co350 2.057 . S
O370 C357 1.263 . S
C371 O361 1.221 . S
C371 O367 1.277 . S
C372 C355 1.361 . S
C372 H373 0.960 . S
C372 H374 0.961 . S
C372 H375 0.961 . S
H373 C372 0.960 . S
H374 C372 0.961 . S
H375 C372 0.961 . S
C376 O360 1.221 . S
C376 O364 1.277 . S
C377 O362 1.237 . S
C377 O363 1.278 1_545 S
H378 C346 0.931 . S
H379 C382 0.961 . S
H380 C382 0.961 . S
H381 C382 0.960 . S
C382 C348 1.361 . S
C382 H379 0.961 . S
C382 H380 0.961 . S
C382 H381 0.960 . S
C383 O359 1.253 . S
C383 O368 1.263 . S
C384 O366 1.278 . S
C384 O369 1.237 . S
H385 C349 0.930 . S
H386 C353 0.930 . S
Co387 N388 2.034 1_545 S
Co387 O402 2.262 . S
Co387 O406 1.958 1_545 S
Co387 O410 1.950 . S
Co387 O411 2.057 . S
N388 Co387 2.034 1_565 S
N388 C389 1.366 . S
N388 C391 1.332 . S
C389 N388 1.366 . S
C389 C392 1.377 . S
C389 H421 0.931 . S
N390 C391 1.346 . S
N390 C392 1.337 . S
C391 N388 1.332 . S
C391 N390 1.346 . S
C391 C425 1.361 . S
C392 C389 1.377 . S
C392 N390 1.337 . S
C392 H428 0.930 . S
Co393 N394 2.034 . S
Co393 O407 1.950 . S
Co393 O408 2.262 . S
Co393 O409 1.958 . S
Co393 O413 2.057 . S
N394 Co393 2.034 . S
N394 C397 1.366 . S
N394 C398 1.332 . S
N395 C396 1.337 . S
N395 C398 1.346 . S
C396 N395 1.337 . S
C396 C397 1.377 . S
C396 H429 0.930 . S
C397 N394 1.366 . S
C397 C396 1.377 . S
C397 H401 0.931 . S
C398 N394 1.332 . S
C398 N395 1.346 . S
C398 C415 1.361 . S
Co399 O402 2.097 . S
Co399 O403 2.065 . S
Co399 O404 2.065 . S
Co399 O405 2.042 . S
Co399 O408 2.097 . S
Co399 O412 2.042 . S
C400 O408 1.253 . S
C400 O413 1.263 . S
H401 C397 0.931 . S
O402 Co387 2.262 . S
O402 Co399 2.097 . S
O402 C426 1.253 . S
O403 Co399 2.065 . S
O403 C419 1.221 . S
O404 Co399 2.065 . S
O404 C414 1.221 . S
O405 Co399 2.042 . S
O405 C420 1.237 . S
O406 Co387 1.958 1_565 S
O406 C420 1.278 1_565 S
O407 Co393 1.950 . S
O407 C419 1.277 . S
O408 Co393 2.262 . S
O408 Co399 2.097 . S
O408 C400 1.253 . S
O409 Co393 1.958 . S
O409 C427 1.278 . S
O410 Co387 1.950 . S
O410 C414 1.277 . S
O411 Co387 2.057 . S
O411 C426 1.263 . S
O412 Co399 2.042 . S
O412 C427 1.237 . S
O413 Co393 2.057 . S
O413 C400 1.263 . S
C414 O404 1.221 . S
C414 O410 1.277 . S
C415 C398 1.361 . S
C415 H416 0.960 . S
C415 H417 0.961 . S
C415 H418 0.961 . S
H416 C415 0.960 . S
H417 C415 0.961 . S
H418 C415 0.961 . S
C419 O403 1.221 . S
C419 O407 1.277 . S
C420 O405 1.237 . S
C420 O406 1.278 1_545 S
H421 C389 0.931 . S
H422 C425 0.961 . S
H423 C425 0.961 . S
H424 C425 0.960 . S
C425 C391 1.361 . S
C425 H422 0.961 . S
C425 H423 0.961 . S
C425 H424 0.960 . S
C426 O402 1.253 . S
C426 O411 1.263 . S
C427 O409 1.278 . S
C427 O412 1.237 . S
H428 C392 0.930 . S
H429 C396 0.930 . S
Co430 N431 2.034 . S
Co430 O445 2.262 . S
Co430 O449 1.958 . S
Co430 O453 1.950 . S
Co430 O454 2.057 . S
N431 Co430 2.034 . S
N431 C432 1.366 . S
N431 C434 1.332 . S
C432 N431 1.366 . S
C432 C435 1.377 . S
C432 H464 0.931 . S
N433 C434 1.346 . S
N433 C435 1.337 . S
C434 N431 1.332 . S
C434 N433 1.346 . S
C434 C468 1.361 . S
C435 C432 1.377 . S
C435 N433 1.337 . S
C435 H471 0.930 . S
Co436 N437 2.034 1_565 S
Co436 O450 1.950 . S
Co436 O451 2.262 . S
Co436 O452 1.958 . S
Co436 O456 2.057 . S
N437 Co436 2.034 1_545 S
N437 C440 1.366 . S
N437 C441 1.332 . S
N438 C439 1.337 . S
N438 C441 1.346 . S
C439 N438 1.337 . S
C439 C440 1.377 . S
C439 H472 0.930 . S
C440 N437 1.366 . S
C440 C439 1.377 . S
C440 H444 0.931 . S
C441 N437 1.332 . S
C441 N438 1.346 . S
C441 C458 1.361 . S
Co442 O445 2.097 . S
Co442 O446 2.065 . S
Co442 O447 2.065 . S
Co442 O448 2.042 . S
Co442 O451 2.097 . S
Co442 O455 2.042 . S
C443 O451 1.253 . S
C443 O456 1.263 . S
H444 C440 0.931 . S
O445 Co430 2.262 . S
O445 Co442 2.097 . S
O445 C469 1.253 . S
O446 Co442 2.065 . S
O446 C462 1.221 . S
O447 Co442 2.065 . S
O447 C457 1.221 . S
O448 Co442 2.042 . S
O448 C463 1.237 . S
O449 Co430 1.958 . S
O449 C463 1.278 . S
O450 Co436 1.950 . S
O450 C462 1.277 . S
O451 Co436 2.262 . S
O451 Co442 2.097 . S
O451 C443 1.253 . S
O452 Co436 1.958 . S
O452 C470 1.278 . S
O453 Co430 1.950 . S
O453 C457 1.277 . S
O454 Co430 2.057 . S
O454 C469 1.263 . S
O455 Co442 2.042 . S
O455 C470 1.237 . S
O456 Co436 2.057 . S
O456 C443 1.263 . S
C457 O447 1.221 . S
C457 O453 1.277 . S
C458 C441 1.361 . S
C458 H459 0.960 . S
C458 H460 0.961 . S
C458 H461 0.961 . S
H459 C458 0.960 . S
H460 C458 0.961 . S
H461 C458 0.961 . S
C462 O446 1.221 . S
C462 O450 1.277 . S
C463 O448 1.237 . S
C463 O449 1.278 . S
H464 C432 0.931 . S
H465 C468 0.961 . S
H466 C468 0.961 . S
H467 C468 0.960 . S
C468 C434 1.361 . S
C468 H465 0.961 . S
C468 H466 0.961 . S
C468 H467 0.960 . S
C469 O445 1.253 . S
C469 O454 1.263 . S
C470 O452 1.278 . S
C470 O455 1.237 . S
H471 C435 0.930 . S
H472 C439 0.930 . S
Co473 N474 2.034 1_565 S
Co473 O488 2.262 . S
Co473 O492 1.958 . S
Co473 O496 1.950 . S
Co473 O497 2.057 . S
N474 Co473 2.034 1_545 S
N474 C475 1.366 . S
N474 C477 1.332 . S
C475 N474 1.366 . S
C475 C478 1.377 . S
C475 H507 0.931 . S
N476 C477 1.346 . S
N476 C478 1.337 . S
C477 N474 1.332 . S
C477 N476 1.346 . S
C477 C511 1.361 . S
C478 C475 1.377 . S
C478 N476 1.337 . S
C478 H514 0.930 . S
Co479 N480 2.034 . S
Co479 O493 1.950 . S
Co479 O494 2.262 . S
Co479 O495 1.958 . S
Co479 O499 2.057 . S
N480 Co479 2.034 . S
N480 C483 1.366 . S
N480 C484 1.332 . S
N481 C482 1.337 . S
N481 C484 1.346 . S
C482 N481 1.337 . S
C482 C483 1.377 . S
C482 H515 0.930 . S
C483 N480 1.366 . S
C483 C482 1.377 . S
C483 H487 0.931 . S
C484 N480 1.332 . S
C484 N481 1.346 . S
C484 C501 1.361 . S
Co485 O488 2.097 . S
Co485 O489 2.065 . S
Co485 O490 2.065 . S
Co485 O491 2.042 . S
Co485 O494 2.097 . S
Co485 O498 2.042 . S
C486 O494 1.253 . S
C486 O499 1.263 . S
H487 C483 0.931 . S
O488 Co473 2.262 . S
O488 Co485 2.097 . S
O488 C512 1.253 . S
O489 Co485 2.065 . S
O489 C505 1.221 . S
O490 Co485 2.065 . S
O490 C500 1.221 . S
O491 Co485 2.042 . S
O491 C506 1.237 . S
O492 Co473 1.958 . S
O492 C506 1.278 . S
O493 Co479 1.950 . S
O493 C505 1.277 . S
O494 Co479 2.262 . S
O494 Co485 2.097 . S
O494 C486 1.253 . S
O495 Co479 1.958 . S
O495 C513 1.278 . S
O496 Co473 1.950 . S
O496 C500 1.277 . S
O497 Co473 2.057 . S
O497 C512 1.263 . S
O498 Co485 2.042 . S
O498 C513 1.237 . S
O499 Co479 2.057 . S
O499 C486 1.263 . S
C500 O490 1.221 . S
C500 O496 1.277 . S
C501 C484 1.361 . S
C501 H502 0.960 . S
C501 H503 0.961 . S
C501 H504 0.961 . S
H502 C501 0.960 . S
H503 C501 0.961 . S
H504 C501 0.961 . S
C505 O489 1.221 . S
C505 O493 1.277 . S
C506 O491 1.237 . S
C506 O492 1.278 . S
H507 C475 0.931 . S
H508 C511 0.961 . S
H509 C511 0.961 . S
H510 C511 0.960 . S
C511 C477 1.361 . S
C511 H508 0.961 . S
C511 H509 0.961 . S
C511 H510 0.960 . S
C512 O488 1.253 . S
C512 O497 1.263 . S
C513 O495 1.278 . S
C513 O498 1.237 . S
H514 C478 0.930 . S
H515 C482 0.930 . S
Co516 N517 2.034 . S
Co516 O531 2.262 . S
Co516 O535 1.958 . S
Co516 O539 1.950 . S
Co516 O540 2.057 . S
N517 Co516 2.034 . S
N517 C518 1.366 . S
N517 C520 1.332 . S
C518 N517 1.366 . S
C518 C521 1.377 . S
C518 H550 0.931 . S
N519 C520 1.346 . S
N519 C521 1.337 . S
C520 N517 1.332 . S
C520 N519 1.346 . S
C520 C554 1.361 . S
C521 C518 1.377 . S
C521 N519 1.337 . S
C521 H557 0.930 . S
Co522 N523 2.034 . S
Co522 O536 1.950 . S
Co522 O537 2.262 . S
Co522 O538 1.958 . S
Co522 O542 2.057 . S
N523 Co522 2.034 . S
N523 C526 1.366 . S
N523 C527 1.332 . S
N524 C525 1.337 . S
N524 C527 1.346 . S
C525 N524 1.337 . S
C525 C526 1.377 . S
C525 H558 0.930 . S
C526 N523 1.366 . S
C526 C525 1.377 . S
C526 H530 0.931 . S
C527 N523 1.332 . S
C527 N524 1.346 . S
C527 C544 1.361 . S
Co528 O531 2.097 . S
Co528 O532 2.065 . S
Co528 O533 2.065 . S
Co528 O534 2.042 . S
Co528 O537 2.097 . S
Co528 O541 2.042 . S
C529 O537 1.253 . S
C529 O542 1.263 . S
H530 C526 0.931 . S
O531 Co516 2.262 . S
O531 Co528 2.097 . S
O531 C555 1.253 . S
O532 Co528 2.065 . S
O532 C548 1.221 . S
O533 Co528 2.065 . S
O533 C543 1.221 . S
O534 Co528 2.042 . S
O534 C549 1.237 . S
O535 Co516 1.958 . S
O535 C549 1.278 . S
O536 Co522 1.950 . S
O536 C548 1.277 . S
O537 Co522 2.262 . S
O537 Co528 2.097 . S
O537 C529 1.253 . S
O538 Co522 1.958 . S
O538 C556 1.278 . S
O539 Co516 1.950 . S
O539 C543 1.277 . S
O540 Co516 2.057 . S
O540 C555 1.263 . S
O541 Co528 2.042 . S
O541 C556 1.237 . S
O542 Co522 2.057 . S
O542 C529 1.263 . S
C543 O533 1.221 . S
C543 O539 1.277 . S
C544 C527 1.361 . S
C544 H545 0.960 . S
C544 H546 0.961 . S
C544 H547 0.961 . S
H545 C544 0.960 . S
H546 C544 0.961 . S
H547 C544 0.961 . S
C548 O532 1.221 . S
C548 O536 1.277 . S
C549 O534 1.237 . S
C549 O535 1.278 . S
H550 C518 0.931 . S
H551 C554 0.961 . S
H552 C554 0.961 . S
H553 C554 0.960 . S
C554 C520 1.361 . S
C554 H551 0.961 . S
C554 H552 0.961 . S
C554 H553 0.960 . S
C555 O531 1.253 . S
C555 O540 1.263 . S
C556 O538 1.278 . S
C556 O541 1.237 . S
H557 C521 0.930 . S
H558 C525 0.930 . S
Co559 N560 2.034 . S
Co559 O574 2.262 . S
Co559 O578 1.958 . S
Co559 O582 1.950 . S
Co559 O583 2.057 . S
N560 Co559 2.034 . S
N560 C561 1.366 . S
N560 C563 1.332 . S
C561 N560 1.366 . S
C561 C564 1.377 . S
C561 H593 0.931 . S
N562 C563 1.346 . S
N562 C564 1.337 . S
C563 N560 1.332 . S
C563 N562 1.346 . S
C563 C597 1.361 . S
C564 C561 1.377 . S
C564 N562 1.337 . S
C564 H600 0.930 . S
Co565 N566 2.034 . S
Co565 O579 1.950 . S
Co565 O580 2.262 . S
Co565 O581 1.958 . S
Co565 O585 2.057 . S
N566 Co565 2.034 . S
N566 C569 1.366 . S
N566 C570 1.332 . S
N567 C568 1.337 . S
N567 C570 1.346 . S
C568 N567 1.337 . S
C568 C569 1.377 . S
C568 H601 0.930 . S
C569 N566 1.366 . S
C569 C568 1.377 . S
C569 H573 0.931 . S
C570 N566 1.332 . S
C570 N567 1.346 . S
C570 C587 1.361 . S
Co571 O574 2.097 . S
Co571 O575 2.065 . S
Co571 O576 2.065 . S
Co571 O577 2.042 . S
Co571 O580 2.097 . S
Co571 O584 2.042 . S
C572 O580 1.253 . S
C572 O585 1.263 . S
H573 C569 0.931 . S
O574 Co559 2.262 . S
O574 Co571 2.097 . S
O574 C598 1.253 . S
O575 Co571 2.065 . S
O575 C591 1.221 . S
O576 Co571 2.065 . S
O576 C586 1.221 . S
O577 Co571 2.042 . S
O577 C592 1.237 . S
O578 Co559 1.958 . S
O578 C592 1.278 . S
O579 Co565 1.950 . S
O579 C591 1.277 . S
O580 Co565 2.262 . S
O580 Co571 2.097 . S
O580 C572 1.253 . S
O581 Co565 1.958 . S
O581 C599 1.278 . S
O582 Co559 1.950 . S
O582 C586 1.277 . S
O583 Co559 2.057 . S
O583 C598 1.263 . S
O584 Co571 2.042 . S
O584 C599 1.237 . S
O585 Co565 2.057 . S
O585 C572 1.263 . S
C586 O576 1.221 . S
C586 O582 1.277 . S
C587 C570 1.361 . S
C587 H588 0.960 . S
C587 H589 0.961 . S
C587 H590 0.961 . S
H588 C587 0.960 . S
H589 C587 0.961 . S
H590 C587 0.961 . S
C591 O575 1.221 . S
C591 O579 1.277 . S
C592 O577 1.237 . S
C592 O578 1.278 . S
H593 C561 0.931 . S
H594 C597 0.961 . S
H595 C597 0.961 . S
H596 C597 0.960 . S
C597 C563 1.361 . S
C597 H594 0.961 . S
C597 H595 0.961 . S
C597 H596 0.960 . S
C598 O574 1.253 . S
C598 O583 1.263 . S
C599 O581 1.278 . S
C599 O584 1.237 . S
H600 C564 0.930 . S
H601 C568 0.930 . S
Co602 N603 2.034 . S
Co602 O617 2.262 . S
Co602 O621 1.958 . S
Co602 O625 1.950 . S
Co602 O626 2.057 . S
N603 Co602 2.034 . S
N603 C604 1.366 . S
N603 C606 1.332 . S
C604 N603 1.366 . S
C604 C607 1.377 . S
C604 H636 0.931 . S
N605 C606 1.346 . S
N605 C607 1.337 . S
C606 N603 1.332 . S
C606 N605 1.346 . S
C606 C640 1.361 . S
C607 C604 1.377 . S
C607 N605 1.337 . S
C607 H643 0.930 . S
Co608 N609 2.034 . S
Co608 O622 1.950 . S
Co608 O623 2.262 . S
Co608 O624 1.958 . S
Co608 O628 2.057 . S
N609 Co608 2.034 . S
N609 C612 1.366 . S
N609 C613 1.332 . S
N610 C611 1.337 . S
N610 C613 1.346 . S
C611 N610 1.337 . S
C611 C612 1.377 . S
C611 H644 0.930 . S
C612 N609 1.366 . S
C612 C611 1.377 . S
C612 H616 0.931 . S
C613 N609 1.332 . S
C613 N610 1.346 . S
C613 C630 1.361 . S
Co614 O617 2.097 . S
Co614 O618 2.065 . S
Co614 O619 2.065 . S
Co614 O620 2.042 . S
Co614 O623 2.097 . S
Co614 O627 2.042 . S
C615 O623 1.253 . S
C615 O628 1.263 . S
H616 C612 0.931 . S
O617 Co602 2.262 . S
O617 Co614 2.097 . S
O617 C641 1.253 . S
O618 Co614 2.065 . S
O618 C634 1.221 . S
O619 Co614 2.065 . S
O619 C629 1.221 . S
O620 Co614 2.042 . S
O620 C635 1.237 . S
O621 Co602 1.958 . S
O621 C635 1.278 . S
O622 Co608 1.950 . S
O622 C634 1.277 . S
O623 Co608 2.262 . S
O623 Co614 2.097 . S
O623 C615 1.253 . S
O624 Co608 1.958 . S
O624 C642 1.278 . S
O625 Co602 1.950 . S
O625 C629 1.277 . S
O626 Co602 2.057 . S
O626 C641 1.263 . S
O627 Co614 2.042 . S
O627 C642 1.237 . S
O628 Co608 2.057 . S
O628 C615 1.263 . S
C629 O619 1.221 . S
C629 O625 1.277 . S
C630 C613 1.361 . S
C630 H631 0.960 . S
C630 H632 0.961 . S
C630 H633 0.961 . S
H631 C630 0.960 . S
H632 C630 0.961 . S
H633 C630 0.961 . S
C634 O618 1.221 . S
C634 O622 1.277 . S
C635 O620 1.237 . S
C635 O621 1.278 . S
H636 C604 0.931 . S
H637 C640 0.961 . S
H638 C640 0.961 . S
H639 C640 0.960 . S
C640 C606 1.361 . S
C640 H637 0.961 . S
C640 H638 0.961 . S
C640 H639 0.960 . S
C641 O617 1.253 . S
C641 O626 1.263 . S
C642 O624 1.278 . S
C642 O627 1.237 . S
H643 C607 0.930 . S
H644 C611 0.930 . S
Co645 N646 2.034 . S
Co645 O660 2.262 . S
Co645 O664 1.958 . S
Co645 O668 1.950 . S
Co645 O669 2.057 . S
N646 Co645 2.034 . S
N646 C647 1.366 . S
N646 C649 1.332 . S
C647 N646 1.366 . S
C647 C650 1.377 . S
C647 H679 0.931 . S
N648 C649 1.346 . S
N648 C650 1.337 . S
C649 N646 1.332 . S
C649 N648 1.346 . S
C649 C683 1.361 . S
C650 C647 1.377 . S
C650 N648 1.337 . S
C650 H686 0.930 . S
Co651 N652 2.034 . S
Co651 O665 1.950 . S
Co651 O666 2.262 . S
Co651 O667 1.958 . S
Co651 O671 2.057 . S
N652 Co651 2.034 . S
N652 C655 1.366 . S
N652 C656 1.332 . S
N653 C654 1.337 . S
N653 C656 1.346 . S
C654 N653 1.337 . S
C654 C655 1.377 . S
C654 H687 0.930 . S
C655 N652 1.366 . S
C655 C654 1.377 . S
C655 H659 0.931 . S
C656 N652 1.332 . S
C656 N653 1.346 . S
C656 C673 1.361 . S
Co657 O660 2.097 . S
Co657 O661 2.065 . S
Co657 O662 2.065 . S
Co657 O663 2.042 . S
Co657 O666 2.097 . S
Co657 O670 2.042 . S
C658 O666 1.253 . S
C658 O671 1.263 . S
H659 C655 0.931 . S
O660 Co645 2.262 . S
O660 Co657 2.097 . S
O660 C684 1.253 . S
O661 Co657 2.065 . S
O661 C677 1.221 . S
O662 Co657 2.065 . S
O662 C672 1.221 . S
O663 Co657 2.042 . S
O663 C678 1.237 . S
O664 Co645 1.958 . S
O664 C678 1.278 . S
O665 Co651 1.950 . S
O665 C677 1.277 . S
O666 Co651 2.262 . S
O666 Co657 2.097 . S
O666 C658 1.253 . S
O667 Co651 1.958 . S
O667 C685 1.278 . S
O668 Co645 1.950 . S
O668 C672 1.277 . S
O669 Co645 2.057 . S
O669 C684 1.263 . S
O670 Co657 2.042 . S
O670 C685 1.237 . S
O671 Co651 2.057 . S
O671 C658 1.263 . S
C672 O662 1.221 . S
C672 O668 1.277 . S
C673 C656 1.361 . S
C673 H674 0.960 . S
C673 H675 0.961 . S
C673 H676 0.961 . S
H674 C673 0.960 . S
H675 C673 0.961 . S
H676 C673 0.961 . S
C677 O661 1.221 . S
C677 O665 1.277 . S
C678 O663 1.237 . S
C678 O664 1.278 . S
H679 C647 0.931 . S
H680 C683 0.961 . S
H681 C683 0.961 . S
H682 C683 0.960 . S
C683 C649 1.361 . S
C683 H680 0.961 . S
C683 H681 0.961 . S
C683 H682 0.960 . S
C684 O660 1.253 . S
C684 O669 1.263 . S
C685 O667 1.278 . S
C685 O670 1.237 . S
H686 C650 0.930 . S
H687 C654 0.930 . S
C688 C689 1.387 . S
C688 H692 0.950 . S
C688 C697 1.390 . S
C689 C688 1.387 . S
C689 C691 1.387 . S
H690 C697 0.950 . S
C691 C689 1.387 . S
C691 C693 1.390 . S
C691 H695 0.950 . S
H692 C688 0.950 . S
C693 C691 1.390 . S
C693 C694 1.387 . S
C693 H696 0.950 . S
C694 C693 1.387 . S
C694 C697 1.387 . S
H695 C691 0.950 . S
H696 C693 0.950 . S
C697 C688 1.390 . S
C697 H690 0.950 . S
C697 C694 1.387 . S
C698 C699 1.387 . S
C698 H702 0.950 . S
C698 C707 1.390 . S
C699 C698 1.387 . S
C699 C701 1.387 . S
H700 C707 0.950 . S
C701 C699 1.387 . S
C701 C703 1.390 . S
C701 H705 0.950 . S
H702 C698 0.950 . S
C703 C701 1.390 . S
C703 C704 1.387 . S
C703 H706 0.950 . S
C704 C703 1.387 . S
C704 C707 1.387 . S
H705 C701 0.950 . S
H706 C703 0.950 . S
C707 C698 1.390 . S
C707 H700 0.950 . S
C707 C704 1.387 . S
C708 C709 1.387 . S
C708 H712 0.950 . S
C708 C717 1.390 . S
C709 C708 1.387 . S
C709 C711 1.387 . S
H710 C717 0.950 . S
C711 C709 1.387 . S
C711 C713 1.390 . S
C711 H715 0.950 . S
H712 C708 0.950 . S
C713 C711 1.390 . S
C713 C714 1.387 . S
C713 H716 0.950 . S
C714 C713 1.387 . S
C714 C717 1.387 . S
H715 C711 0.950 . S
H716 C713 0.950 . S
C717 C708 1.390 . S
C717 H710 0.950 . S
C717 C714 1.387 . S
C718 C719 1.387 . S
C718 H722 0.950 . S
C718 C727 1.390 . S
C719 C718 1.387 . S
C719 C721 1.387 . S
H720 C727 0.950 . S
C721 C719 1.387 . S
C721 C723 1.390 . S
C721 H725 0.950 . S
H722 C718 0.950 . S
C723 C721 1.390 . S
C723 C724 1.387 . S
C723 H726 0.950 . S
C724 C723 1.387 . S
C724 C727 1.387 . S
H725 C721 0.950 . S
H726 C723 0.950 . S
C727 C718 1.390 . S
C727 H720 0.950 . S
C727 C724 1.387 . S
C728 C729 1.387 . S
C728 H732 0.950 . S
C728 C737 1.390 . S
C729 C728 1.387 . S
C729 C731 1.387 . S
H730 C737 0.950 . S
C731 C729 1.387 . S
C731 C733 1.390 . S
C731 H735 0.950 . S
H732 C728 0.950 . S
C733 C731 1.390 . S
C733 C734 1.387 . S
C733 H736 0.950 . S
C734 C733 1.387 . S
C734 C737 1.387 . S
H735 C731 0.950 . S
H736 C733 0.950 . S
C737 C728 1.390 . S
C737 H730 0.950 . S
C737 C734 1.387 . S
C738 C739 1.387 . S
C738 H742 0.950 . S
C738 C747 1.390 . S
C739 C738 1.387 . S
C739 C741 1.387 . S
H740 C747 0.950 . S
C741 C739 1.387 . S
C741 C743 1.390 . S
C741 H745 0.950 . S
H742 C738 0.950 . S
C743 C741 1.390 . S
C743 C744 1.387 . S
C743 H746 0.950 . S
C744 C743 1.387 . S
C744 C747 1.387 . S
H745 C741 0.950 . S
H746 C743 0.950 . S
C747 C738 1.390 . S
C747 H740 0.950 . S
C747 C744 1.387 . S
C748 C749 1.387 . S
C748 H752 0.950 . S
C748 C757 1.390 . S
C749 C748 1.387 . S
C749 C751 1.387 . S
H750 C757 0.950 . S
C751 C749 1.387 . S
C751 C753 1.390 . S
C751 H755 0.950 . S
H752 C748 0.950 . S
C753 C751 1.390 . S
C753 C754 1.387 . S
C753 H756 0.950 . S
C754 C753 1.387 . S
C754 C757 1.387 . S
H755 C751 0.950 . S
H756 C753 0.950 . S
C757 C748 1.390 . S
C757 H750 0.950 . S
C757 C754 1.387 . S
C758 C759 1.387 . S
C758 H762 0.950 . S
C758 C767 1.390 . S
C759 C758 1.387 . S
C759 C761 1.387 . S
H760 C767 0.950 . S
C761 C759 1.387 . S
C761 C763 1.390 . S
C761 H765 0.950 . S
H762 C758 0.950 . S
C763 C761 1.390 . S
C763 C764 1.387 . S
C763 H766 0.950 . S
C764 C763 1.387 . S
C764 C767 1.387 . S
H765 C761 0.950 . S
H766 C763 0.950 . S
C767 C758 1.390 . S
C767 H760 0.950 . S
C767 C764 1.387 . S
C768 C769 1.387 . S
C768 H772 0.950 . S
C768 C777 1.390 . S
C769 C768 1.387 . S
C769 C771 1.387 . S
H770 C777 0.950 . S
C771 C769 1.387 . S
C771 C773 1.390 . S
C771 H775 0.950 . S
H772 C768 0.950 . S
C773 C771 1.390 . S
C773 C774 1.387 . S
C773 H776 0.950 . S
C774 C773 1.387 . S
C774 C777 1.387 . S
H775 C771 0.950 . S
H776 C773 0.950 . S
C777 C768 1.390 . S
C777 H770 0.950 . S
C777 C774 1.387 . S
C778 C779 1.387 . S
C778 H782 0.950 . S
C778 C787 1.390 . S
C779 C778 1.387 . S
C779 C781 1.387 . S
H780 C787 0.950 . S
C781 C779 1.387 . S
C781 C783 1.390 . S
C781 H785 0.950 . S
H782 C778 0.950 . S
C783 C781 1.390 . S
C783 C784 1.387 . S
C783 H786 0.950 . S
C784 C783 1.387 . S
C784 C787 1.387 . S
H785 C781 0.950 . S
H786 C783 0.950 . S
C787 C778 1.390 . S
C787 H780 0.950 . S
C787 C784 1.387 . S
C788 C789 1.387 . S
C788 H792 0.950 . S
C788 C797 1.390 . S
C789 C788 1.387 . S
C789 C791 1.387 . S
H790 C797 0.950 . S
C791 C789 1.387 . S
C791 C793 1.390 . S
C791 H795 0.950 . S
H792 C788 0.950 . S
C793 C791 1.390 . S
C793 C794 1.387 . S
C793 H796 0.950 . S
C794 C793 1.387 . S
C794 C797 1.387 . S
H795 C791 0.950 . S
H796 C793 0.950 . S
C797 C788 1.390 . S
C797 H790 0.950 . S
C797 C794 1.387 . S
C798 C799 1.387 . S
C798 H802 0.950 . S
C798 C807 1.390 . S
C799 C798 1.387 . S
C799 C801 1.387 . S
H800 C807 0.950 . S
C801 C799 1.387 . S
C801 C803 1.390 . S
C801 H805 0.950 . S
H802 C798 0.950 . S
C803 C801 1.390 . S
C803 C804 1.387 . S
C803 H806 0.950 . S
C804 C803 1.387 . S
C804 C807 1.387 . S
H805 C801 0.950 . S
H806 C803 0.950 . S
C807 C798 1.390 . S
C807 H800 0.950 . S
C807 C804 1.387 . S
C808 C809 1.387 . S
C808 H812 0.950 . S
C808 C817 1.390 . S
C809 C808 1.387 . S
C809 C811 1.387 . S
H810 C817 0.950 . S
C811 C809 1.387 . S
C811 C813 1.390 . S
C811 H815 0.950 . S
H812 C808 0.950 . S
C813 C811 1.390 . S
C813 C814 1.387 . S
C813 H816 0.950 . S
C814 C813 1.387 . S
C814 C817 1.387 . S
H815 C811 0.950 . S
H816 C813 0.950 . S
C817 C808 1.390 . S
C817 H810 0.950 . S
C817 C814 1.387 . S
C818 C819 1.387 . S
C818 H822 0.950 . S
C818 C827 1.390 . S
C819 C818 1.387 . S
C819 C821 1.387 . S
H820 C827 0.950 . S
C821 C819 1.387 . S
C821 C823 1.390 . S
C821 H825 0.950 . S
H822 C818 0.950 . S
C823 C821 1.390 . S
C823 C824 1.387 . S
C823 H826 0.950 . S
C824 C823 1.387 . S
C824 C827 1.387 . S
H825 C821 0.950 . S
H826 C823 0.950 . S
C827 C818 1.390 . S
C827 H820 0.950 . S
C827 C824 1.387 . S
C828 C829 1.387 . S
C828 H832 0.950 . S
C828 C837 1.390 . S
C829 C828 1.387 . S
C829 C831 1.387 . S
H830 C837 0.950 . S
C831 C829 1.387 . S
C831 C833 1.390 . S
C831 H835 0.950 . S
H832 C828 0.950 . S
C833 C831 1.390 . S
C833 C834 1.387 . S
C833 H836 0.950 . S
C834 C833 1.387 . S
C834 C837 1.387 . S
H835 C831 0.950 . S
H836 C833 0.950 . S
C837 C828 1.390 . S
C837 H830 0.950 . S
C837 C834 1.387 . S
C838 C839 1.387 . S
C838 H842 0.950 . S
C838 C847 1.390 . S
C839 C838 1.387 . S
C839 C841 1.387 . S
H840 C847 0.950 . S
C841 C839 1.387 . S
C841 C843 1.390 . S
C841 H845 0.950 . S
H842 C838 0.950 . S
C843 C841 1.390 . S
C843 C844 1.387 . S
C843 H846 0.950 . S
C844 C843 1.387 . S
C844 C847 1.387 . S
H845 C841 0.950 . S
H846 C843 0.950 . S
C847 C838 1.390 . S
C847 H840 0.950 . S
C847 C844 1.387 . S
C848 C849 1.387 . S
C848 H852 0.950 . S
C848 C857 1.390 . S
C849 C848 1.387 . S
C849 C851 1.387 . S
H850 C857 0.950 . S
C851 C849 1.387 . S
C851 C853 1.390 . S
C851 H855 0.950 . S
H852 C848 0.950 . S
C853 C851 1.390 . S
C853 C854 1.387 . S
C853 H856 0.950 . S
C854 C853 1.387 . S
C854 C857 1.387 . S
H855 C851 0.950 . S
H856 C853 0.950 . S
C857 C848 1.390 . S
C857 H850 0.950 . S
C857 C854 1.387 . S
C858 C859 1.387 . S
C858 H862 0.950 . S
C858 C867 1.390 . S
C859 C858 1.387 . S
C859 C861 1.387 . S
H860 C867 0.950 . S
C861 C859 1.387 . S
C861 C863 1.390 . S
C861 H865 0.950 . S
H862 C858 0.950 . S
C863 C861 1.390 . S
C863 C864 1.387 . S
C863 H866 0.950 . S
C864 C863 1.387 . S
C864 C867 1.387 . S
H865 C861 0.950 . S
H866 C863 0.950 . S
C867 C858 1.390 . S
C867 H860 0.950 . S
C867 C864 1.387 . S
C868 C869 1.387 . S
C868 H872 0.950 . S
C868 C877 1.390 . S
C869 C868 1.387 . S
C869 C871 1.387 . S
H870 C877 0.950 . S
C871 C869 1.387 . S
C871 C873 1.390 . S
C871 H875 0.950 . S
H872 C868 0.950 . S
C873 C871 1.390 . S
C873 C874 1.387 . S
C873 H876 0.950 . S
C874 C873 1.387 . S
C874 C877 1.387 . S
H875 C871 0.950 . S
H876 C873 0.950 . S
C877 C868 1.390 . S
C877 H870 0.950 . S
C877 C874 1.387 . S
C878 C879 1.387 . S
C878 H882 0.950 . S
C878 C887 1.390 . S
C879 C878 1.387 . S
C879 C881 1.387 . S
H880 C887 0.950 . S
C881 C879 1.387 . S
C881 C883 1.390 . S
C881 H885 0.950 . S
H882 C878 0.950 . S
C883 C881 1.390 . S
C883 C884 1.387 . S
C883 H886 0.950 . S
C884 C883 1.387 . S
C884 C887 1.387 . S
H885 C881 0.950 . S
H886 C883 0.950 . S
C887 C878 1.390 . S
C887 H880 0.950 . S
C887 C884 1.387 . S
C888 C889 1.387 . S
C888 H892 0.950 . S
C888 C897 1.390 . S
C889 C888 1.387 . S
C889 C891 1.387 . S
H890 C897 0.950 . S
C891 C889 1.387 . S
C891 C893 1.390 . S
C891 H895 0.950 . S
H892 C888 0.950 . S
C893 C891 1.390 . S
C893 C894 1.387 . S
C893 H896 0.950 . S
C894 C893 1.387 . S
C894 C897 1.387 . S
H895 C891 0.950 . S
H896 C893 0.950 . S
C897 C888 1.390 . S
C897 H890 0.950 . S
C897 C894 1.387 . S
C898 C899 1.387 . S
C898 H902 0.950 . S
C898 C907 1.390 . S
C899 C898 1.387 . S
C899 C901 1.387 . S
H900 C907 0.950 . S
C901 C899 1.387 . S
C901 C903 1.390 . S
C901 H905 0.950 . S
H902 C898 0.950 . S
C903 C901 1.390 . S
C903 C904 1.387 . S
C903 H906 0.950 . S
C904 C903 1.387 . S
C904 C907 1.387 . S
H905 C901 0.950 . S
H906 C903 0.950 . S
C907 C898 1.390 . S
C907 H900 0.950 . S
C907 C904 1.387 . S
C908 C909 1.387 . S
C908 H912 0.950 . S
C908 C917 1.390 . S
C909 C908 1.387 . S
C909 C911 1.387 . S
H910 C917 0.950 . S
C911 C909 1.387 . S
C911 C913 1.390 . S
C911 H915 0.950 . S
H912 C908 0.950 . S
C913 C911 1.390 . S
C913 C914 1.387 . S
C913 H916 0.950 . S
C914 C913 1.387 . S
C914 C917 1.387 . S
H915 C911 0.950 . S
H916 C913 0.950 . S
C917 C908 1.390 . S
C917 H910 0.950 . S
C917 C914 1.387 . S
C918 C919 1.387 . S
C918 H922 0.950 . S
C918 C927 1.390 . S
C919 C918 1.387 . S
C919 C921 1.387 . S
H920 C927 0.950 . S
C921 C919 1.387 . S
C921 C923 1.390 . S
C921 H925 0.950 . S
H922 C918 0.950 . S
C923 C921 1.390 . S
C923 C924 1.387 . S
C923 H926 0.950 . S
C924 C923 1.387 . S
C924 C927 1.387 . S
H925 C921 0.950 . S
H926 C923 0.950 . S
C927 C918 1.390 . S
C927 H920 0.950 . S
C927 C924 1.387 . S
C928 C929 1.387 . S
C928 H932 0.950 . S
C928 C937 1.390 . S
C929 C928 1.387 . S
C929 C931 1.387 . S
H930 C937 0.950 . S
C931 C929 1.387 . S
C931 C933 1.390 . S
C931 H935 0.950 . S
H932 C928 0.950 . S
C933 C931 1.390 . S
C933 C934 1.387 . S
C933 H936 0.950 . S
C934 C933 1.387 . S
C934 C937 1.387 . S
H935 C931 0.950 . S
H936 C933 0.950 . S
C937 C928 1.390 . S
C937 H930 0.950 . S
C937 C934 1.387 . S
C938 C939 1.387 . S
C938 H942 0.950 . S
C938 C947 1.390 . S
C939 C938 1.387 . S
C939 C941 1.387 . S
H940 C947 0.950 . S
C941 C939 1.387 . S
C941 C943 1.390 . S
C941 H945 0.950 . S
H942 C938 0.950 . S
C943 C941 1.390 . S
C943 C944 1.387 . S
C943 H946 0.950 . S
C944 C943 1.387 . S
C944 C947 1.387 . S
H945 C941 0.950 . S
H946 C943 0.950 . S
C947 C938 1.390 . S
C947 H940 0.950 . S
C947 C944 1.387 . S
C948 C949 1.387 . S
C948 H952 0.950 . S
C948 C957 1.390 . S
C949 C948 1.387 . S
C949 C951 1.387 . S
H950 C957 0.950 . S
C951 C949 1.387 . S
C951 C953 1.390 . S
C951 H955 0.950 . S
H952 C948 0.950 . S
C953 C951 1.390 . S
C953 C954 1.387 . S
C953 H956 0.950 . S
C954 C953 1.387 . S
C954 C957 1.387 . S
H955 C951 0.950 . S
H956 C953 0.950 . S
C957 C948 1.390 . S
C957 H950 0.950 . S
C957 C954 1.387 . S
C958 C959 1.387 . S
C958 H962 0.950 . S
C958 C967 1.390 . S
C959 C958 1.387 . S
C959 C961 1.387 . S
H960 C967 0.950 . S
C961 C959 1.387 . S
C961 C963 1.390 . S
C961 H965 0.950 . S
H962 C958 0.950 . S
C963 C961 1.390 . S
C963 C964 1.387 . S
C963 H966 0.950 . S
C964 C963 1.387 . S
C964 C967 1.387 . S
H965 C961 0.950 . S
H966 C963 0.950 . S
C967 C958 1.390 . S
C967 H960 0.950 . S
C967 C964 1.387 . S
C968 C969 1.387 . S
C968 H972 0.950 . S
C968 C977 1.390 . S
C969 C968 1.387 . S
C969 C971 1.387 . S
H970 C977 0.950 . S
C971 C969 1.387 . S
C971 C973 1.390 . S
C971 H975 0.950 . S
H972 C968 0.950 . S
C973 C971 1.390 . S
C973 C974 1.387 . S
C973 H976 0.950 . S
C974 C973 1.387 . S
C974 C977 1.387 . S
H975 C971 0.950 . S
H976 C973 0.950 . S
C977 C968 1.390 . S
C977 H970 0.950 . S
C977 C974 1.387 . S
C978 C979 1.387 . S
C978 H982 0.950 . S
C978 C987 1.390 . S
C979 C978 1.387 . S
C979 C981 1.387 . S
H980 C987 0.950 . S
C981 C979 1.387 . S
C981 C983 1.390 . S
C981 H985 0.950 . S
H982 C978 0.950 . S
C983 C981 1.390 . S
C983 C984 1.387 . S
C983 H986 0.950 . S
C984 C983 1.387 . S
C984 C987 1.387 . S
H985 C981 0.950 . S
H986 C983 0.950 . S
C987 C978 1.390 . S
C987 H980 0.950 . S
C987 C984 1.387 . S
C988 C989 1.387 . S
C988 H992 0.950 . S
C988 C997 1.390 . S
C989 C988 1.387 . S
C989 C991 1.387 . S
H990 C997 0.950 . S
C991 C989 1.387 . S
C991 C993 1.390 . S
C991 H995 0.950 . S
H992 C988 0.950 . S
C993 C991 1.390 . S
C993 C994 1.387 . S
C993 H996 0.950 . S
C994 C993 1.387 . S
C994 C997 1.387 . S
H995 C991 0.950 . S
H996 C993 0.950 . S
C997 C988 1.390 . S
C997 H990 0.950 . S
C997 C994 1.387 . S
C998 C999 1.387 . S
C998 H1002 0.950 . S
C998 C1007 1.390 . S
C999 C998 1.387 . S
C999 C1001 1.387 . S
H1000 C1007 0.950 . S
C1001 C999 1.387 . S
C1001 C1003 1.390 . S
C1001 H1005 0.950 . S
H1002 C998 0.950 . S
C1003 C1001 1.390 . S
C1003 C1004 1.387 . S
C1003 H1006 0.950 . S
C1004 C1003 1.387 . S
C1004 C1007 1.387 . S
H1005 C1001 0.950 . S
H1006 C1003 0.950 . S
C1007 C998 1.390 . S
C1007 H1000 0.950 . S
C1007 C1004 1.387 . S
C1008 C1009 1.387 . S
C1008 H1012 0.950 . S
C1008 C1017 1.390 . S
C1009 C1008 1.387 . S
C1009 C1011 1.387 . S
H1010 C1017 0.950 . S
C1011 C1009 1.387 . S
C1011 C1013 1.390 . S
C1011 H1015 0.950 . S
H1012 C1008 0.950 . S
C1013 C1011 1.390 . S
C1013 C1014 1.387 . S
C1013 H1016 0.950 . S
C1014 C1013 1.387 . S
C1014 C1017 1.387 . S
H1015 C1011 0.950 . S
H1016 C1013 0.950 . S
C1017 C1008 1.390 . S
C1017 H1010 0.950 . S
C1017 C1014 1.387 . S
C1018 C1019 1.387 . S
C1018 H1022 0.950 . S
C1018 C1027 1.390 . S
C1019 C1018 1.387 . S
C1019 C1021 1.387 . S
H1020 C1027 0.950 . S
C1021 C1019 1.387 . S
C1021 C1023 1.390 . S
C1021 H1025 0.950 . S
H1022 C1018 0.950 . S
C1023 C1021 1.390 . S
C1023 C1024 1.387 . S
C1023 H1026 0.950 . S
C1024 C1023 1.387 . S
C1024 C1027 1.387 . S
H1025 C1021 0.950 . S
H1026 C1023 0.950 . S
C1027 C1018 1.390 . S
C1027 H1020 0.950 . S
C1027 C1024 1.387 . S
C1028 C1029 1.387 . S
C1028 H1032 0.950 . S
C1028 C1037 1.390 . S
C1029 C1028 1.387 . S
C1029 C1031 1.387 . S
H1030 C1037 0.950 . S
C1031 C1029 1.387 . S
C1031 C1033 1.390 . S
C1031 H1035 0.950 . S
H1032 C1028 0.950 . S
C1033 C1031 1.390 . S
C1033 C1034 1.387 . S
C1033 H1036 0.950 . S
C1034 C1033 1.387 . S
C1034 C1037 1.387 . S
H1035 C1031 0.950 . S
H1036 C1033 0.950 . S
C1037 C1028 1.390 . S
C1037 H1030 0.950 . S
C1037 C1034 1.387 . S
C1038 C1039 1.387 . S
C1038 H1042 0.950 . S
C1038 C1047 1.390 . S
C1039 C1038 1.387 . S
C1039 C1041 1.387 . S
H1040 C1047 0.950 . S
C1041 C1039 1.387 . S
C1041 C1043 1.390 . S
C1041 H1045 0.950 . S
H1042 C1038 0.950 . S
C1043 C1041 1.390 . S
C1043 C1044 1.387 . S
C1043 H1046 0.950 . S
C1044 C1043 1.387 . S
C1044 C1047 1.387 . S
H1045 C1041 0.950 . S
H1046 C1043 0.950 . S
C1047 C1038 1.390 . S
C1047 H1040 0.950 . S
C1047 C1044 1.387 . S
C1048 C1049 1.387 . S
C1048 H1052 0.950 . S
C1048 C1057 1.390 . S
C1049 C1048 1.387 . S
C1049 C1051 1.387 . S
H1050 C1057 0.950 . S
C1051 C1049 1.387 . S
C1051 C1053 1.390 . S
C1051 H1055 0.950 . S
H1052 C1048 0.950 . S
C1053 C1051 1.390 . S
C1053 C1054 1.387 . S
C1053 H1056 0.950 . S
C1054 C1053 1.387 . S
C1054 C1057 1.387 . S
H1055 C1051 0.950 . S
H1056 C1053 0.950 . S
C1057 C1048 1.390 . S
C1057 H1050 0.950 . S
C1057 C1054 1.387 . S
C1058 C1059 1.387 . S
C1058 H1062 0.950 . S
C1058 C1067 1.390 . S
C1059 C1058 1.387 . S
C1059 C1061 1.387 . S
H1060 C1067 0.950 . S
C1061 C1059 1.387 . S
C1061 C1063 1.390 . S
C1061 H1065 0.950 . S
H1062 C1058 0.950 . S
C1063 C1061 1.390 . S
C1063 C1064 1.387 . S
C1063 H1066 0.950 . S
C1064 C1063 1.387 . S
C1064 C1067 1.387 . S
H1065 C1061 0.950 . S
H1066 C1063 0.950 . S
C1067 C1058 1.390 . S
C1067 H1060 0.950 . S
C1067 C1064 1.387 . S
C1068 C1069 1.387 . S
C1068 H1072 0.950 . S
C1068 C1077 1.390 . S
C1069 C1068 1.387 . S
C1069 C1071 1.387 . S
H1070 C1077 0.950 . S
C1071 C1069 1.387 . S
C1071 C1073 1.390 . S
C1071 H1075 0.950 . S
H1072 C1068 0.950 . S
C1073 C1071 1.390 . S
C1073 C1074 1.387 . S
C1073 H1076 0.950 . S
C1074 C1073 1.387 . S
C1074 C1077 1.387 . S
H1075 C1071 0.950 . S
H1076 C1073 0.950 . S
C1077 C1068 1.390 . S
C1077 H1070 0.950 . S
C1077 C1074 1.387 . S
C1078 C1079 1.387 . S
C1078 H1082 0.950 . S
C1078 C1087 1.390 . S
C1079 C1078 1.387 . S
C1079 C1081 1.387 . S
H1080 C1087 0.950 . S
C1081 C1079 1.387 . S
C1081 C1083 1.390 . S
C1081 H1085 0.950 . S
H1082 C1078 0.950 . S
C1083 C1081 1.390 . S
C1083 C1084 1.387 . S
C1083 H1086 0.950 . S
C1084 C1083 1.387 . S
C1084 C1087 1.387 . S
H1085 C1081 0.950 . S
H1086 C1083 0.950 . S
C1087 C1078 1.390 . S
C1087 H1080 0.950 . S
C1087 C1084 1.387 . S
C1088 C1089 1.387 . S
C1088 H1092 0.950 . S
C1088 C1097 1.390 . S
C1089 C1088 1.387 . S
C1089 C1091 1.387 . S
H1090 C1097 0.950 . S
C1091 C1089 1.387 . S
C1091 C1093 1.390 . S
C1091 H1095 0.950 . S
H1092 C1088 0.950 . S
C1093 C1091 1.390 . S
C1093 C1094 1.387 . S
C1093 H1096 0.950 . S
C1094 C1093 1.387 . S
C1094 C1097 1.387 . S
H1095 C1091 0.950 . S
H1096 C1093 0.950 . S
C1097 C1088 1.390 . S
C1097 H1090 0.950 . S
C1097 C1094 1.387 . S
C1098 C1099 1.387 . S
C1098 H1102 0.950 . S
C1098 C1107 1.390 . S
C1099 C1098 1.387 . S
C1099 C1101 1.387 . S
H1100 C1107 0.950 . S
C1101 C1099 1.387 . S
C1101 C1103 1.390 . S
C1101 H1105 0.950 . S
H1102 C1098 0.950 . S
C1103 C1101 1.390 . S
C1103 C1104 1.387 . S
C1103 H1106 0.950 . S
C1104 C1103 1.387 . S
C1104 C1107 1.387 . S
H1105 C1101 0.950 . S
H1106 C1103 0.950 . S
C1107 C1098 1.390 . S
C1107 H1100 0.950 . S
C1107 C1104 1.387 . S
C1108 C1109 1.387 . S
C1108 H1112 0.950 . S
C1108 C1117 1.390 . S
C1109 C1108 1.387 . S
C1109 C1111 1.387 . S
H1110 C1117 0.950 . S
C1111 C1109 1.387 . S
C1111 C1113 1.390 . S
C1111 H1115 0.950 . S
H1112 C1108 0.950 . S
C1113 C1111 1.390 . S
C1113 C1114 1.387 . S
C1113 H1116 0.950 . S
C1114 C1113 1.387 . S
C1114 C1117 1.387 . S
H1115 C1111 0.950 . S
H1116 C1113 0.950 . S
C1117 C1108 1.390 . S
C1117 H1110 0.950 . S
C1117 C1114 1.387 . S
C1118 C1119 1.387 . S
C1118 H1122 0.950 . S
C1118 C1127 1.390 . S
C1119 C1118 1.387 . S
C1119 C1121 1.387 . S
H1120 C1127 0.950 . S
C1121 C1119 1.387 . S
C1121 C1123 1.390 . S
C1121 H1125 0.950 . S
H1122 C1118 0.950 . S
C1123 C1121 1.390 . S
C1123 C1124 1.387 . S
C1123 H1126 0.950 . S
C1124 C1123 1.387 . S
C1124 C1127 1.387 . S
H1125 C1121 0.950 . S
H1126 C1123 0.950 . S
C1127 C1118 1.390 . S
C1127 H1120 0.950 . S
C1127 C1124 1.387 . S
C1128 C1129 1.387 . S
C1128 H1132 0.950 . S
C1128 C1137 1.390 . S
C1129 C1128 1.387 . S
C1129 C1131 1.387 . S
H1130 C1137 0.950 . S
C1131 C1129 1.387 . S
C1131 C1133 1.390 . S
C1131 H1135 0.950 . S
H1132 C1128 0.950 . S
C1133 C1131 1.390 . S
C1133 C1134 1.387 . S
C1133 H1136 0.950 . S
C1134 C1133 1.387 . S
C1134 C1137 1.387 . S
H1135 C1131 0.950 . S
H1136 C1133 0.950 . S
C1137 C1128 1.390 . S
C1137 H1130 0.950 . S
C1137 C1134 1.387 . S
C1138 C1139 1.387 . S
C1138 H1142 0.950 . S
C1138 C1147 1.390 . S
C1139 C1138 1.387 . S
C1139 C1141 1.387 . S
H1140 C1147 0.950 . S
C1141 C1139 1.387 . S
C1141 C1143 1.390 . S
C1141 H1145 0.950 . S
H1142 C1138 0.950 . S
C1143 C1141 1.390 . S
C1143 C1144 1.387 . S
C1143 H1146 0.950 . S
C1144 C1143 1.387 . S
C1144 C1147 1.387 . S
H1145 C1141 0.950 . S
H1146 C1143 0.950 . S
C1147 C1138 1.390 . S
C1147 H1140 0.950 . S
C1147 C1144 1.387 . S
C1148 C1149 1.387 . S
C1148 H1152 0.950 . S
C1148 C1157 1.390 . S
C1149 C1148 1.387 . S
C1149 C1151 1.387 . S
H1150 C1157 0.950 . S
C1151 C1149 1.387 . S
C1151 C1153 1.390 . S
C1151 H1155 0.950 . S
H1152 C1148 0.950 . S
C1153 C1151 1.390 . S
C1153 C1154 1.387 . S
C1153 H1156 0.950 . S
C1154 C1153 1.387 . S
C1154 C1157 1.387 . S
H1155 C1151 0.950 . S
H1156 C1153 0.950 . S
C1157 C1148 1.390 . S
C1157 H1150 0.950 . S
C1157 C1154 1.387 . S
C1158 C1159 1.387 . S
C1158 H1162 0.950 . S
C1158 C1167 1.390 . S
C1159 C1158 1.387 . S
C1159 C1161 1.387 . S
H1160 C1167 0.950 . S
C1161 C1159 1.387 . S
C1161 C1163 1.390 . S
C1161 H1165 0.950 . S
H1162 C1158 0.950 . S
C1163 C1161 1.390 . S
C1163 C1164 1.387 . S
C1163 H1166 0.950 . S
C1164 C1163 1.387 . S
C1164 C1167 1.387 . S
H1165 C1161 0.950 . S
H1166 C1163 0.950 . S
C1167 C1158 1.390 . S
C1167 H1160 0.950 . S
C1167 C1164 1.387 . S
C1168 C1169 1.387 . S
C1168 H1172 0.950 . S
C1168 C1177 1.390 . S
C1169 C1168 1.387 . S
C1169 C1171 1.387 . S
H1170 C1177 0.950 . S
C1171 C1169 1.387 . S
C1171 C1173 1.390 . S
C1171 H1175 0.950 . S
H1172 C1168 0.950 . S
C1173 C1171 1.390 . S
C1173 C1174 1.387 . S
C1173 H1176 0.950 . S
C1174 C1173 1.387 . S
C1174 C1177 1.387 . S
H1175 C1171 0.950 . S
H1176 C1173 0.950 . S
C1177 C1168 1.390 . S
C1177 H1170 0.950 . S
C1177 C1174 1.387 . S
C1178 C1179 1.387 . S
C1178 H1182 0.950 . S
C1178 C1187 1.390 1_565 S
C1179 C1178 1.387 . S
C1179 C1181 1.387 1_655 S
H1180 C1187 0.950 . S
C1181 C1179 1.387 1_455 S
C1181 C1183 1.390 1_565 S
C1181 H1185 0.950 . S
H1182 C1178 0.950 . S
C1183 C1181 1.390 1_545 S
C1183 C1184 1.387 1_455 S
C1183 H1186 0.950 . S
C1184 C1183 1.387 1_655 S
C1184 C1187 1.387 . S
H1185 C1181 0.950 . S
H1186 C1183 0.950 . S
C1187 C1178 1.390 1_545 S
C1187 H1180 0.950 . S
C1187 C1184 1.387 . S
C1188 C1189 1.387 . S
C1188 H1192 0.950 . S
C1188 C1197 1.390 1_565 S
C1189 C1188 1.387 . S
C1189 C1191 1.387 . S
H1190 C1197 0.950 . S
C1191 C1189 1.387 . S
C1191 C1193 1.390 1_565 S
C1191 H1195 0.950 . S
H1192 C1188 0.950 . S
C1193 C1191 1.390 1_545 S
C1193 C1194 1.387 . S
C1193 H1196 0.950 . S
C1194 C1193 1.387 . S
C1194 C1197 1.387 . S
H1195 C1191 0.950 . S
H1196 C1193 0.950 . S
C1197 C1188 1.390 1_545 S
C1197 H1190 0.950 . S
C1197 C1194 1.387 . S
C1198 C1199 1.387 . S
C1198 H1202 0.950 . S
C1198 C1207 1.390 . S
C1199 C1198 1.387 . S
C1199 C1201 1.387 1_655 S
H1200 C1207 0.950 . S
C1201 C1199 1.387 1_455 S
C1201 C1203 1.390 . S
C1201 H1205 0.950 . S
H1202 C1198 0.950 . S
C1203 C1201 1.390 . S
C1203 C1204 1.387 1_455 S
C1203 H1206 0.950 . S
C1204 C1203 1.387 1_655 S
C1204 C1207 1.387 . S
H1205 C1201 0.950 . S
H1206 C1203 0.950 . S
C1207 C1198 1.390 . S
C1207 H1200 0.950 . S
C1207 C1204 1.387 . S
C1208 C1209 1.387 . S
C1208 H1212 0.950 . S
C1208 C1217 1.390 . S
C1209 C1208 1.387 . S
C1209 C1211 1.387 . S
H1210 C1217 0.950 . S
C1211 C1209 1.387 . S
C1211 C1213 1.390 . S
C1211 H1215 0.950 . S
H1212 C1208 0.950 . S
C1213 C1211 1.390 . S
C1213 C1214 1.387 . S
C1213 H1216 0.950 . S
C1214 C1213 1.387 . S
C1214 C1217 1.387 . S
H1215 C1211 0.950 . S
H1216 C1213 0.950 . S
C1217 C1208 1.390 . S
C1217 H1210 0.950 . S
C1217 C1214 1.387 . S
C1218 C1219 1.387 . S
C1218 H1222 0.950 . S
C1218 C1227 1.390 1_565 S
C1219 C1218 1.387 . S
C1219 C1221 1.387 . S
H1220 C1227 0.950 . S
C1221 C1219 1.387 . S
C1221 C1223 1.390 1_565 S
C1221 H1225 0.950 . S
H1222 C1218 0.950 . S
C1223 C1221 1.390 1_545 S
C1223 C1224 1.387 . S
C1223 H1226 0.950 . S
C1224 C1223 1.387 . S
C1224 C1227 1.387 . S
H1225 C1221 0.950 . S
H1226 C1223 0.950 . S
C1227 C1218 1.390 1_545 S
C1227 H1220 0.950 . S
C1227 C1224 1.387 . S
C1228 C1229 1.387 1_455 S
C1228 H1232 0.950 . S
C1228 C1237 1.390 . S
C1229 C1228 1.387 1_655 S
C1229 C1231 1.387 . S
H1230 C1237 0.950 . S
C1231 C1229 1.387 . S
C1231 C1233 1.390 . S
C1231 H1235 0.950 . S
H1232 C1228 0.950 . S
C1233 C1231 1.390 . S
C1233 C1234 1.388 . S
C1233 H1236 0.950 . S
C1234 C1233 1.388 . S
C1234 C1237 1.387 1_655 S
H1235 C1231 0.950 . S
H1236 C1233 0.950 . S
C1237 C1228 1.390 . S
C1237 H1230 0.950 . S
C1237 C1234 1.387 1_455 S
C1238 C1239 1.387 . S
C1238 H1242 0.950 . S
C1238 C1247 1.390 1_554 S
C1239 C1238 1.387 . S
C1239 C1241 1.387 . S
H1240 C1247 0.950 . S
C1241 C1239 1.387 . S
C1241 C1243 1.390 1_554 S
C1241 H1245 0.950 . S
H1242 C1238 0.950 . S
C1243 C1241 1.390 1_556 S
C1243 C1244 1.387 . S
C1243 H1246 0.950 . S
C1244 C1243 1.387 . S
C1244 C1247 1.387 . S
H1245 C1241 0.950 . S
H1246 C1243 0.950 . S
C1247 C1238 1.390 1_556 S
C1247 H1240 0.950 . S
C1247 C1244 1.387 . S
C1248 C1249 1.389 1_455 S
C1248 H1252 0.949 1_556 S
C1248 C1257 1.388 1_556 S
C1249 C1248 1.389 1_655 S
C1249 C1251 1.387 . S
H1250 C1257 0.950 . S
C1251 C1249 1.387 . S
C1251 C1253 1.390 . S
C1251 H1255 0.950 . S
H1252 C1248 0.949 1_554 S
C1253 C1251 1.390 . S
C1253 C1254 1.387 1_556 S
C1253 H1256 0.950 . S
C1254 C1253 1.387 1_554 S
C1254 C1257 1.387 1_655 S
H1255 C1251 0.950 . S
H1256 C1253 0.950 . S
C1257 C1248 1.388 1_554 S
C1257 H1250 0.950 . S
C1257 C1254 1.387 1_455 S
C1258 C1259 1.387 . S
C1258 H1262 0.950 . S
C1258 C1267 1.390 . S
C1259 C1258 1.387 . S
C1259 C1261 1.387 . S
H1260 C1267 0.950 . S
C1261 C1259 1.387 . S
C1261 C1263 1.390 . S
C1261 H1265 0.950 . S
H1262 C1258 0.950 . S
C1263 C1261 1.390 . S
C1263 C1264 1.387 . S
C1263 H1266 0.950 . S
C1264 C1263 1.387 . S
C1264 C1267 1.387 . S
H1265 C1261 0.950 . S
H1266 C1263 0.950 . S
C1267 C1258 1.390 . S
C1267 H1260 0.950 . S
C1267 C1264 1.387 . S
C1268 C1269 1.387 . S
C1268 H1272 0.950 . S
C1268 C1277 1.390 1_556 S
C1269 C1268 1.387 . S
C1269 C1271 1.387 . S
H1270 C1277 0.950 . S
C1271 C1269 1.387 . S
C1271 C1273 1.390 1_556 S
C1271 H1275 0.950 . S
H1272 C1268 0.950 . S
C1273 C1271 1.390 1_554 S
C1273 C1274 1.387 . S
C1273 H1276 0.950 . S
C1274 C1273 1.387 . S
C1274 C1277 1.387 . S
H1275 C1271 0.950 . S
H1276 C1273 0.950 . S
C1277 C1268 1.390 1_554 S
C1277 H1270 0.950 . S
C1277 C1274 1.387 . S
C1278 C1279 1.387 . S
C1278 H1282 0.950 . S
C1278 C1287 1.390 . S
C1279 C1278 1.387 . S
C1279 C1281 1.387 . S
H1280 C1287 0.950 . S
C1281 C1279 1.387 . S
C1281 C1283 1.390 . S
C1281 H1285 0.950 . S
H1282 C1278 0.950 . S
C1283 C1281 1.390 . S
C1283 C1284 1.387 . S
C1283 H1286 0.950 . S
C1284 C1283 1.387 . S
C1284 C1287 1.387 . S
H1285 C1281 0.950 . S
H1286 C1283 0.950 . S
C1287 C1278 1.390 . S
C1287 H1280 0.950 . S
C1287 C1284 1.387 . S
C1288 C1289 1.387 . S
C1288 H1292 0.950 . S
C1288 C1297 1.390 1_546 S
C1289 C1288 1.387 . S
C1289 C1291 1.387 . S
H1290 C1297 0.950 . S
C1291 C1289 1.387 . S
C1291 C1293 1.390 1_546 S
C1291 H1295 0.950 . S
H1292 C1288 0.950 . S
C1293 C1291 1.390 1_564 S
C1293 C1294 1.387 . S
C1293 H1296 0.950 . S
C1294 C1293 1.387 . S
C1294 C1297 1.387 . S
H1295 C1291 0.950 . S
H1296 C1293 0.950 . S
C1297 C1288 1.390 1_564 S
C1297 H1290 0.950 . S
C1297 C1294 1.387 . S
C1298 C1299 1.387 . S
C1298 H1302 0.950 . S
C1298 C1307 1.390 . S
C1299 C1298 1.387 . S
C1299 C1301 1.387 . S
H1300 C1307 0.950 . S
C1301 C1299 1.387 . S
C1301 C1303 1.390 . S
C1301 H1305 0.950 . S
H1302 C1298 0.950 . S
C1303 C1301 1.390 . S
C1303 C1304 1.387 . S
C1303 H1306 0.950 . S
C1304 C1303 1.387 . S
C1304 C1307 1.387 . S
H1305 C1301 0.950 . S
H1306 C1303 0.950 . S
C1307 C1298 1.390 . S
C1307 H1300 0.950 . S
C1307 C1304 1.387 . S
C1308 C1309 1.387 . S
C1308 H1312 0.950 . S
C1308 C1317 1.390 . S
C1309 C1308 1.387 . S
C1309 C1311 1.387 . S
H1310 C1317 0.950 . S
C1311 C1309 1.387 . S
C1311 C1313 1.390 . S
C1311 H1315 0.950 . S
H1312 C1308 0.950 . S
C1313 C1311 1.390 . S
C1313 C1314 1.387 . S
C1313 H1316 0.950 . S
C1314 C1313 1.387 . S
C1314 C1317 1.387 . S
H1315 C1311 0.950 . S
H1316 C1313 0.950 . S
C1317 C1308 1.390 . S
C1317 H1310 0.950 . S
C1317 C1314 1.387 . S
C1318 C1319 1.387 . S
C1318 H1322 0.950 . S
C1318 C1327 1.390 . S
C1319 C1318 1.387 . S
C1319 C1321 1.387 . S
H1320 C1327 0.950 . S
C1321 C1319 1.387 . S
C1321 C1323 1.390 . S
C1321 H1325 0.950 . S
H1322 C1318 0.950 . S
C1323 C1321 1.390 . S
C1323 C1324 1.387 . S
C1323 H1326 0.950 . S
C1324 C1323 1.387 . S
C1324 C1327 1.387 . S
H1325 C1321 0.950 . S
H1326 C1323 0.950 . S
C1327 C1318 1.390 . S
C1327 H1320 0.950 . S
C1327 C1324 1.387 . S
C689 N8 1.088 . S
C694 N519 0.863 . S
C699 N3 0.853 . S
C704 N524 1.080 . S
C709 N46 0.855 . S
C714 N567 1.081 . S
C719 N51 1.081 . S
C724 N562 0.853 . S
C729 N610 1.043 . S
C734 N89 0.827 . S
C739 N94 1.051 . S
C744 N605 0.837 . S
C749 N137 1.049 . S
C754 N653 0.835 . S
C759 N132 0.837 . S
C764 N648 1.051 . S
C769 N347 0.853 . S
C774 N175 1.080 . S
C779 N352 1.081 . S
C784 N180 0.854 . S
C789 N395 1.083 . S
C794 N218 0.858 . S
C799 N390 0.853 . S
C804 N223 1.080 . S
C809 N438 1.043 . S
C814 N261 0.827 . S
C819 N266 1.043 . S
C824 N433 0.827 . S
C829 N481 0.827 . S
C834 N304 1.044 . S
C839 N309 0.827 . S
C844 N476 1.043 . S
C849 C33 3.925 1_565 S
C854 C548 3.925 . S
C859 C32 3.925 1_655 S
C864 C549 3.925 . S
C869 C75 3.924 . S
C874 C592 3.924 . S
C879 C591 3.924 . S
C884 C76 3.924 1_665 S
C889 C635 3.918 . S
C894 C118 3.919 1_545 S
C899 C634 3.919 . S
C904 C119 3.918 1_455 S
C909 C672 3.920 . S
C914 C162 3.919 . S
C919 C685 3.919 . S
C924 C161 3.920 1_445 S
C929 C212 3.925 . S
C934 C376 3.925 . S
C939 C199 3.924 1_655 S
C944 C377 3.924 1_565 S
C949 C247 3.924 . S
C954 C420 3.924 1_565 S
C959 C248 3.925 1_655 S
C964 C419 3.925 . S
C969 C463 3.918 . S
C974 C290 3.919 . S
C979 C462 3.920 1_545 S
C984 C291 3.919 1_455 S
C989 C500 3.919 1_545 S
C994 C341 3.918 . S
C999 C328 3.919 1_455 S
C1004 C513 3.918 . S
C1009 C13 1.889 . S
C1014 C400 1.889 . S
C1019 C414 1.951 . S
C1024 C27 1.951 1_655 S
C1029 C371 1.951 . S
C1034 C70 1.951 . S
C1039 C357 1.892 . S
C1044 C56 1.892 1_655 S
C1049 C486 1.981 . S
C1054 C125 1.981 . S
C1059 C126 1.826 1_455 S
C1064 C506 1.826 . S
C1069 C169 1.826 . S
C1074 C470 1.826 . S
C1079 C168 1.981 1_455 S
C1084 C469 1.981 . S
C1089 C572 1.889 . S
C1094 C211 1.889 . S
C1099 C204 1.953 1_655 S
C1104 C586 1.953 . S
C1109 C242 1.950 . S
C1114 C543 1.950 . S
C1119 C529 1.892 . S
C1124 C228 1.892 1_655 S
C1129 C658 1.981 . S
C1134 C297 1.981 . S
C1139 C678 1.826 . S
C1144 C298 1.826 1_455 S
C1149 C642 1.826 . S
C1154 C334 1.826 . S
C1159 C641 1.981 . S
C1164 C314 1.981 1_455 S
C1169 C629 1.695 . S
C1174 C40 1.742 . S
C1179 C99 1.738 . S
C1184 C39 1.691 1_655 S
C1189 C512 1.733 . S
C1194 C82 1.686 . S
C1199 C83 1.747 1_655 S
C1204 C333 1.700 . S
C1209 C556 1.747 . S
C1214 C113 1.699 . S
C1219 C142 1.738 . S
C1224 C426 1.691 . S
C1229 C255 1.742 1_655 S
C1234 C156 1.695 . S
C1239 C457 1.695 . S
C1244 C205 1.742 . S
C1249 C185 1.686 1_655 S
C1254 C271 1.733 . S
C1259 C254 1.686 . S
C1264 C684 1.733 . S
C1269 C384 1.742 . S
C1274 C285 1.695 . S
C1279 C598 1.691 . S
C1284 C340 1.738 . S
C1289 C383 1.691 . S
C1294 C443 1.738 . S
C1299 C427 1.742 . S
C1304 C677 1.695 . S
C1309 C599 1.742 . S
C1314 C505 1.695 . S
C1319 C615 1.733 . S
C1324 C555 1.686 . S
