# Generated by pormake.
# Topology wme, (6)-cn, num edge types: 1
# Building blocks:
#     Node 0, Type 0, BuildingBlock: VOLQOD_clean_sbu_1, # of connection points: 6
#     Node 1, Type 0, BuildingBlock: VOLQOD_clean_sbu_1, # of connection points: 6
#     Node 2, Type 0, BuildingBlock: VOLQOD_clean_sbu_1, # of connection points: 6
#     Node 3, Type 0, BuildingBlock: VOLQOD_clean_sbu_1, # of connection points: 6
#     Node 4, Type 0, BuildingBlock: VOLQOD_clean_sbu_1, # of connection points: 6
#     Node 5, Type 0, BuildingBlock: VOLQOD_clean_sbu_1, # of connection points: 6
#     Node 6, Type 0, BuildingBlock: VOLQOD_clean_sbu_1, # of connection points: 6
#     Node 7, Type 0, BuildingBlock: VOLQOD_clean_sbu_1, # of connection points: 6
#     Node 8, Type 0, BuildingBlock: VOLQOD_clean_sbu_1, # of connection points: 6
#     Node 9, Type 0, BuildingBlock: VOLQOD_clean_sbu_1, # of connection points: 6
#     Node 10, Type 0, BuildingBlock: VOLQOD_clean_sbu_1, # of connection points: 6
#     Node 11, Type 0, BuildingBlock: VOLQOD_clean_sbu_1, # of connection points: 6
#     Edge 12, Type (0, 0), None
#     Edge 13, Type (0, 0), None
#     Edge 14, Type (0, 0), None
#     Edge 15, Type (0, 0), None
#     Edge 16, Type (0, 0), None
#     Edge 17, Type (0, 0), None
#     Edge 18, Type (0, 0), None
#     Edge 19, Type (0, 0), None
#     Edge 20, Type (0, 0), None
#     Edge 21, Type (0, 0), None
#     Edge 22, Type (0, 0), None
#     Edge 23, Type (0, 0), None
#     Edge 24, Type (0, 0), None
#     Edge 25, Type (0, 0), None
#     Edge 26, Type (0, 0), None
#     Edge 27, Type (0, 0), None
#     Edge 28, Type (0, 0), None
#     Edge 29, Type (0, 0), None
#     Edge 30, Type (0, 0), None
#     Edge 31, Type (0, 0), None
#     Edge 32, Type (0, 0), None
#     Edge 33, Type (0, 0), None
#     Edge 34, Type (0, 0), None
#     Edge 35, Type (0, 0), None
#     Edge 36, Type (0, 0), None
#     Edge 37, Type (0, 0), None
#     Edge 38, Type (0, 0), None
#     Edge 39, Type (0, 0), None
#     Edge 40, Type (0, 0), None
#     Edge 41, Type (0, 0), None
#     Edge 42, Type (0, 0), None
#     Edge 43, Type (0, 0), None
#     Edge 44, Type (0, 0), None
#     Edge 45, Type (0, 0), None
#     Edge 46, Type (0, 0), None
#     Edge 47, Type (0, 0), None
# Relax obj value: 0.335
# Max RMSD: 0.236
# Mean RMSD: 0.236
data_MOF--net-wme--node1-VOLQOD_clean_sbu_1--edge1-none
_symmetry_space_group_name_H-M    P1
_symmetry_Int_Tables_number       1
_symmetry_cell_setting            triclinic
loop_
_symmetry_equiv_pos_as_xyz
'x, y, z'
_cell_length_a     16.607045
_cell_length_b     16.607493
_cell_length_c     33.987779
_cell_angle_alpha  90.000471
_cell_angle_beta   89.999922
_cell_angle_gamma 119.99947
loop_
_atom_site_label
_atom_site_type_symbol
_atom_site_fract_x
_atom_site_fract_y
_atom_site_fract_z
_atom_type_partial_charge
O0 O 0.05354 0.40529 0.04923 0.0
Zn1 Zn 0.06778 0.28447 0.04901 0.0
O2 O 0.15432 0.29728 0.09208 0.0
Zn3 Zn 0.26502 0.29357 0.07301 0.0
Zn4 Zn 0.19217 0.4035 0.12315 0.0
Zn5 Zn 0.0934 0.20601 0.13042 0.0
O6 O 0.26709 0.17961 0.09363 0.0
O7 O 0.12307 0.11026 0.11809 0.0
O8 O 0.11641 0.24186 -0.00218 0.0
O9 O 0.24516 0.24674 0.01951 0.0
O10 O 0.3815 0.42736 0.06975 0.0
O11 O 0.31682 0.4941 0.10432 0.0
O12 O 0.17696 0.39334 0.18294 0.0
O13 O 0.93429 0.1837 0.06489 0.0
O14 O 0.10948 0.24082 0.18659 0.0
O15 O -0.0388 0.15348 0.12528 0.0
C16 C 0.06659 0.45484 0.08029 0.0
C17 C 0.19218 0.10675 0.1042 0.0
C18 C 0.38314 0.50012 0.0833 0.0
C19 C 0.18409 0.22474 -0.00669 0.0
C20 C 0.13671 0.31879 0.2029 0.0
C21 C 0.90517 0.14681 0.09872 0.0
O22 O 0.11362 0.45187 0.10885 0.0
O23 O 0.61557 0.06991 0.54923 0.0
Zn24 Zn 0.75064 0.08416 0.549 0.0
O25 O 0.82436 0.17068 0.59208 0.0
Zn26 Zn 0.93877 0.28138 0.57303 0.0
Zn27 Zn 0.75598 0.20853 0.62315 0.0
Zn28 Zn 0.85469 0.10975 0.63043 0.0
O29 O 0.0548 0.28345 0.59365 0.0
O30 O -0.01987 0.13944 0.61812 0.0
O31 O 0.8419 0.13282 0.49782 0.0
O32 O -0.03423 0.26155 0.51952 0.0
O33 O 0.92146 0.39786 0.56976 0.0
O34 O 0.79003 0.33318 0.60433 0.0
O35 O 0.75088 0.1933 0.68294 0.0
O36 O 0.71792 0.95067 0.56488 0.0
O37 O 0.83588 0.12577 0.6866 0.0
O38 O 0.77505 -0.02244 0.62527 0.0
C39 C 0.57907 0.08297 0.58029 0.0
C40 C 0.05274 0.20854 0.60423 0.0
C41 C 0.85034 0.3995 0.58331 0.0
C42 C 0.9267 0.20049 0.49331 0.0
C43 C 0.78515 0.15302 0.7029 0.0
C44 C 0.7257 0.92153 0.59871 0.0
O45 O 0.62907 0.12999 0.60885 0.0
O46 O 0.51288 0.6319 0.04923 0.0
Zn47 Zn 0.6337 0.76697 0.04901 0.0
O48 O 0.62089 0.84069 0.09208 0.0
Zn49 Zn 0.6246 0.9551 0.07302 0.0
Zn50 Zn 0.51466 0.7723 0.12315 0.0
Zn51 Zn 0.71215 0.87103 0.13043 0.0
O52 O 0.73855 0.07113 0.09364 0.0
O53 O 0.80788 -0.00354 0.11811 0.0
O54 O 0.6763 0.85822 -0.00217 0.0
O55 O 0.67142 -0.01792 0.01951 0.0
O56 O 0.4908 0.93778 0.06976 0.0
O57 O 0.42406 0.80636 0.10432 0.0
O58 O 0.52482 0.76723 0.18294 0.0
O59 O 0.73448 0.73426 0.06489 0.0
O60 O 0.67735 0.85229 0.18659 0.0
O61 O 0.76471 0.7914 0.12528 0.0
C62 C 0.46334 0.5954 0.08029 0.0
C63 C 0.8114 0.06907 0.10423 0.0
C64 C 0.41804 0.86666 0.0833 0.0
C65 C 0.69342 0.94301 -0.00669 0.0
C66 C 0.59938 0.80154 0.2029 0.0
C67 C 0.77139 0.74205 0.09873 0.0
O68 O 0.4663 0.64539 0.10886 0.0
O69 O 0.8483 0.52923 0.54923 0.0
Zn70 Zn 0.83405 0.65005 0.54901 0.0
O71 O 0.74751 0.63724 0.59208 0.0
Zn72 Zn 0.63681 0.64095 0.57301 0.0
Zn73 Zn 0.70966 0.53102 0.62315 0.0
Zn74 Zn 0.80843 0.72849 0.63042 0.0
O75 O 0.63475 0.75492 0.59363 0.0
O76 O 0.77875 0.82424 0.6181 0.0
O77 O 0.78541 0.69265 0.49782 0.0
O78 O 0.65666 0.68777 0.51951 0.0
O79 O 0.52033 0.50716 0.56975 0.0
O80 O 0.58501 0.44042 0.60432 0.0
O81 O 0.72485 0.54117 0.68294 0.0
O82 O -0.03247 0.75082 0.56488 0.0
O83 O 0.79236 0.6937 0.68659 0.0
O84 O 0.94063 0.78104 0.62528 0.0
C85 C 0.83526 0.4797 0.5803 0.0
C86 C 0.70966 0.82776 0.60421 0.0
C87 C 0.51869 0.4344 0.5833 0.0
C88 C 0.71773 0.70977 0.4933 0.0
C89 C 0.76511 0.61572 0.7029 0.0
C90 C -0.00334 0.78772 0.59872 0.0
O91 O 0.78823 0.48266 0.60886 0.0
O92 O 0.28627 0.86462 0.04923 0.0
Zn93 Zn 0.1512 0.85038 0.049 0.0
O94 O 0.07749 0.76386 0.09208 0.0
Zn95 Zn -0.03693 0.65316 0.07303 0.0
Zn96 Zn 0.14586 0.726 0.12315 0.0
Zn97 Zn 0.04718 0.8248 0.13043 0.0
O98 O 0.84706 0.6511 0.09365 0.0
O99 O 0.92174 0.79511 0.11812 0.0
O100 O 0.05994 0.80171 -0.00218 0.0
O101 O 0.93607 0.67298 0.01952 0.0
O102 O -0.01962 0.53668 0.06976 0.0
O103 O 0.11182 0.60136 0.10432 0.0
O104 O 0.15095 0.74122 0.18294 0.0
O105 O 0.1839 -0.01614 0.06487 0.0
O106 O 0.06594 0.80875 0.1866 0.0
O107 O 0.12685 0.957 0.12529 0.0
C108 C 0.32276 0.85158 0.08029 0.0
C109 C 0.84912 0.72601 0.10423 0.0
C110 C 0.05151 0.53504 0.0833 0.0
C111 C -0.02486 0.73404 -0.00669 0.0
C112 C 0.11667 0.7815 0.2029 0.0
C113 C 0.17619 0.01299 0.09872 0.0
O114 O 0.27278 0.80456 0.10886 0.0
O115 O 0.38894 0.30263 0.54923 0.0
Zn116 Zn 0.26812 0.16756 0.54901 0.0
O117 O 0.28094 0.09384 0.59208 0.0
Zn118 Zn 0.27723 -0.02056 0.57302 0.0
Zn119 Zn 0.38716 0.16222 0.62315 0.0
Zn120 Zn 0.18967 0.0635 0.63043 0.0
O121 O 0.16327 0.86341 0.59364 0.0
O122 O 0.09393 0.93808 0.6181 0.0
O123 O 0.22552 0.07631 0.49782 0.0
O124 O 0.2304 0.95245 0.51951 0.0
O125 O 0.41103 -0.00324 0.56975 0.0
O126 O 0.47776 0.12817 0.60433 0.0
O127 O 0.377 0.1673 0.68294 0.0
O128 O 0.16734 0.20027 0.56489 0.0
O129 O 0.22447 0.08221 0.6866 0.0
O130 O 0.13716 0.14319 0.6253 0.0
C131 C 0.43848 0.33912 0.58029 0.0
C132 C 0.09042 0.86547 0.60422 0.0
C133 C 0.48378 0.06788 0.5833 0.0
C134 C 0.2084 -0.00848 0.49331 0.0
C135 C 0.30244 0.13297 0.7029 0.0
C136 C 0.13051 0.19255 0.59874 0.0
O137 O 0.43552 0.28914 0.60886 0.0
O138 O 0.51296 0.86463 0.39876 0.0
Zn139 Zn 0.63377 0.85036 0.39898 0.0
O140 O 0.62096 0.76383 0.35591 0.0
Zn141 Zn 0.62468 0.65313 0.37495 0.0
Zn142 Zn 0.51472 0.72598 0.32484 0.0
Zn143 Zn 0.71222 0.82476 0.31756 0.0
O144 O 0.73864 0.65106 0.35433 0.0
O145 O 0.80797 0.79507 0.32987 0.0
O146 O 0.67636 0.8017 0.45016 0.0
O147 O 0.67152 0.67297 0.42846 0.0
O148 O 0.49089 0.53664 0.37823 0.0
O149 O 0.42413 0.60133 0.34367 0.0
O150 O 0.52485 0.7412 0.26505 0.0
O151 O 0.73457 -0.01616 0.38311 0.0
O152 O 0.67738 0.80871 0.26139 0.0
O153 O 0.76478 0.95695 0.32271 0.0
C154 C 0.46339 0.85156 0.3677 0.0
C155 C 0.81148 0.72597 0.34375 0.0
C156 C 0.41812 0.53501 0.36469 0.0
C157 C 0.6935 0.73403 0.45466 0.0
C158 C 0.5994 0.78147 0.24509 0.0
C159 C 0.77147 0.01298 0.34927 0.0
O160 O 0.46635 0.80452 0.33914 0.0
O161 O 0.61549 0.52923 0.89876 0.0
Zn162 Zn 0.75056 0.65005 0.89899 0.0
O163 O 0.82428 0.63724 0.85591 0.0
Zn164 Zn 0.9387 0.64096 0.87496 0.0
Zn165 Zn 0.75589 0.53102 0.82484 0.0
Zn166 Zn 0.8546 0.7285 0.81757 0.0
O167 O 0.05471 0.75492 0.85433 0.0
O168 O -0.01998 0.82427 0.8299 0.0
O169 O 0.84182 0.69265 0.95017 0.0
O170 O -0.0343 0.68779 0.92847 0.0
O171 O 0.92138 0.50716 0.87822 0.0
O172 O 0.78993 0.44041 0.84367 0.0
O173 O 0.75084 0.54117 0.76505 0.0
O174 O 0.71786 0.75084 0.88311 0.0
O175 O 0.83589 0.6937 0.7614 0.0
O176 O 0.77492 0.78101 0.82271 0.0
C177 C 0.57898 0.4797 0.8677 0.0
C178 C 0.05264 0.82778 0.84378 0.0
C179 C 0.85024 0.4344 0.86469 0.0
C180 C 0.92663 0.70979 0.95467 0.0
C181 C 0.78516 0.61573 0.74509 0.0
C182 C 0.72559 0.78771 0.84928 0.0
O183 O 0.62897 0.48267 0.83913 0.0
O184 O 0.0536 0.6319 0.39876 0.0
Zn185 Zn 0.06784 0.76697 0.39898 0.0
O186 O 0.15438 0.84069 0.35591 0.0
Zn187 Zn 0.26508 0.9551 0.37496 0.0
Zn188 Zn 0.19222 0.77231 0.32484 0.0
Zn189 Zn 0.09346 0.87104 0.31757 0.0
O190 O 0.26717 0.07113 0.35433 0.0
O191 O 0.12312 -0.00354 0.32991 0.0
O192 O 0.11648 0.85822 0.45016 0.0
O193 O 0.24523 -0.0179 0.42847 0.0
O194 O 0.38156 0.93777 0.37824 0.0
O195 O 0.31689 0.80637 0.34366 0.0
O196 O 0.17696 0.76722 0.26505 0.0
O197 O 0.93436 0.73425 0.38309 0.0
O198 O 0.10958 0.85236 0.26139 0.0
O199 O -0.03874 0.79134 0.32268 0.0
C200 C 0.06667 0.5954 0.3677 0.0
C201 C 0.19224 0.06907 0.34379 0.0
C202 C 0.3832 0.86666 0.36468 0.0
C203 C 0.18415 0.94302 0.45467 0.0
C204 C 0.13676 0.80158 0.24509 0.0
C205 C 0.90525 0.74198 0.34925 0.0
O206 O 0.1137 0.6454 0.33914 0.0
O207 O 0.38885 0.06988 0.89876 0.0
Zn208 Zn 0.26804 0.08414 0.89898 0.0
O209 O 0.28085 0.17067 0.85591 0.0
Zn210 Zn 0.27713 0.28137 0.87496 0.0
Zn211 Zn 0.38709 0.20853 0.82484 0.0
Zn212 Zn 0.1896 0.10973 0.81756 0.0
O213 O 0.16318 0.28343 0.85432 0.0
O214 O 0.09384 0.13941 0.82987 0.0
O215 O 0.22545 0.1328 0.95016 0.0
O216 O 0.2303 0.26153 0.92846 0.0
O217 O 0.41093 0.39786 0.87823 0.0
O218 O 0.47769 0.33318 0.84367 0.0
O219 O 0.37697 0.1933 0.76505 0.0
O220 O 0.16725 0.95066 0.88311 0.0
O221 O 0.22444 0.12581 0.76139 0.0
O222 O 0.13708 -0.02247 0.82269 0.0
C223 C 0.43843 0.08295 0.8677 0.0
C224 C 0.09033 0.20851 0.84376 0.0
C225 C 0.48369 0.39949 0.86469 0.0
C226 C 0.20831 0.20047 0.95467 0.0
C227 C 0.30242 0.15305 0.74509 0.0
C228 C 0.13041 0.92154 0.84926 0.0
O229 O 0.43547 0.12999 0.83914 0.0
O230 O 0.28634 0.40528 0.39876 0.0
Zn231 Zn 0.15127 0.28446 0.39899 0.0
O232 O 0.07756 0.29728 0.35591 0.0
Zn233 Zn -0.03686 0.29356 0.37496 0.0
Zn234 Zn 0.14594 0.4035 0.32484 0.0
Zn235 Zn 0.04725 0.20602 0.31756 0.0
O236 O 0.84713 0.17959 0.35434 0.0
O237 O 0.92183 0.11026 0.32989 0.0
O238 O 0.06001 0.24187 0.45017 0.0
O239 O 0.93614 0.24673 0.42847 0.0
O240 O -0.01954 0.42736 0.37823 0.0
O241 O 0.1119 0.49411 0.34367 0.0
O242 O 0.15098 0.39335 0.26505 0.0
O243 O 0.18396 0.18367 0.38312 0.0
O244 O 0.06594 0.24082 0.26139 0.0
O245 O 0.12696 0.15354 0.32269 0.0
C246 C 0.32284 0.4548 0.3677 0.0
C247 C 0.84921 0.10675 0.34377 0.0
C248 C 0.05159 0.50012 0.36469 0.0
C249 C -0.02479 0.22474 0.45467 0.0
C250 C 0.11667 0.31879 0.24509 0.0
C251 C 0.17628 0.14686 0.34927 0.0
O252 O 0.27286 0.45184 0.33913 0.0
O253 O 0.84822 0.30263 0.89876 0.0
Zn254 Zn 0.83398 0.16756 0.89898 0.0
O255 O 0.74744 0.09383 0.85591 0.0
Zn256 Zn 0.63674 -0.02058 0.87497 0.0
Zn257 Zn 0.70959 0.16221 0.82483 0.0
Zn258 Zn 0.80835 0.06348 0.81756 0.0
O259 O 0.63466 0.86339 0.85434 0.0
O260 O 0.77868 0.93807 0.82989 0.0
O261 O 0.78534 0.07631 0.95016 0.0
O262 O 0.65659 0.95243 0.92847 0.0
O263 O 0.52026 -0.00326 0.87824 0.0
O264 O 0.58493 0.12815 0.84366 0.0
O265 O 0.72484 0.16729 0.76504 0.0
O266 O -0.03254 0.20026 0.88309 0.0
O267 O 0.79225 0.08217 0.76139 0.0
O268 O 0.94055 0.14317 0.82268 0.0
C269 C 0.83516 0.33911 0.8677 0.0
C270 C 0.70957 0.86546 0.84378 0.0
C271 C 0.51862 0.06786 0.86468 0.0
C272 C 0.71767 -0.0085 0.95467 0.0
C273 C 0.76506 0.13294 0.74508 0.0
C274 C -0.00344 0.19252 0.84925 0.0
O275 O 0.78813 0.28913 0.83913 0.0
loop_
_geom_bond_atom_site_label_1
_geom_bond_atom_site_label_2
_geom_bond_distance
_geom_bond_site_symmetry_2
_ccdc_geom_bond_type
O0 Zn1 1.953 . S
O0 C16 1.225 . S
Zn1 O0 1.953 . S
Zn1 O2 1.949 . S
Zn1 O8 1.919 . S
Zn1 O13 1.924 1_455 S
O2 Zn1 1.949 . S
O2 Zn3 1.923 . S
O2 Zn4 1.950 . S
O2 Zn5 1.945 . S
Zn3 O2 1.923 . S
Zn3 O6 1.933 . S
Zn3 O9 1.941 . S
Zn3 O10 1.965 . S
Zn4 O2 1.950 . S
Zn4 O11 1.938 . S
Zn4 O12 1.906 . S
Zn4 O22 1.953 . S
Zn5 O2 1.945 . S
Zn5 O7 1.932 . S
Zn5 O14 1.977 . S
Zn5 O15 1.910 1_455 S
O6 Zn3 1.933 . S
O6 C17 1.226 . S
O7 Zn5 1.932 . S
O7 C17 1.307 . S
O8 Zn1 1.919 . S
O8 C19 1.253 . S
O9 Zn3 1.941 . S
O9 C19 1.283 . S
O10 Zn3 1.965 . S
O10 C18 1.303 . S
O11 Zn4 1.938 . S
O11 C18 1.247 . S
O12 Zn4 1.906 . S
O12 C20 1.304 . S
O13 Zn1 1.924 1_655 S
O13 C21 1.311 . S
O14 Zn5 1.977 . S
O14 C20 1.272 . S
O15 Zn5 1.910 1_655 S
O15 C21 1.231 . S
C16 O0 1.225 . S
C16 O22 1.298 . S
C17 O6 1.226 . S
C17 O7 1.307 . S
C18 O10 1.303 . S
C18 O11 1.247 . S
C19 O8 1.253 . S
C19 O9 1.283 . S
C20 O12 1.304 . S
C20 O14 1.272 . S
C21 O13 1.311 . S
C21 O15 1.231 . S
O22 Zn4 1.953 . S
O22 C16 1.298 . S
O23 Zn24 1.953 . S
O23 C39 1.225 . S
Zn24 O23 1.953 . S
Zn24 O25 1.949 . S
Zn24 O31 1.919 . S
Zn24 O36 1.924 1_545 S
O25 Zn24 1.949 . S
O25 Zn26 1.923 . S
O25 Zn27 1.950 . S
O25 Zn28 1.945 . S
Zn26 O25 1.923 . S
Zn26 O29 1.933 1_655 S
Zn26 O32 1.941 . S
Zn26 O33 1.965 . S
Zn27 O25 1.950 . S
Zn27 O34 1.938 . S
Zn27 O35 1.906 . S
Zn27 O45 1.953 . S
Zn28 O25 1.945 . S
Zn28 O30 1.932 1_655 S
Zn28 O37 1.977 . S
Zn28 O38 1.910 1_545 S
O29 Zn26 1.933 1_455 S
O29 C40 1.226 . S
O30 Zn28 1.932 1_455 S
O30 C40 1.307 . S
O31 Zn24 1.919 . S
O31 C42 1.253 . S
O32 Zn26 1.941 . S
O32 C42 1.283 . S
O33 Zn26 1.965 . S
O33 C41 1.303 . S
O34 Zn27 1.938 . S
O34 C41 1.247 . S
O35 Zn27 1.906 . S
O35 C43 1.304 . S
O36 Zn24 1.924 1_565 S
O36 C44 1.311 . S
O37 Zn28 1.977 . S
O37 C43 1.272 . S
O38 Zn28 1.910 1_565 S
O38 C44 1.231 . S
C39 O23 1.225 . S
C39 O45 1.298 . S
C40 O29 1.226 . S
C40 O30 1.307 . S
C41 O33 1.303 . S
C41 O34 1.247 . S
C42 O31 1.253 . S
C42 O32 1.283 . S
C43 O35 1.304 . S
C43 O37 1.272 . S
C44 O36 1.311 . S
C44 O38 1.231 . S
O45 Zn27 1.953 . S
O45 C39 1.298 . S
O46 Zn47 1.953 . S
O46 C62 1.225 . S
Zn47 O46 1.953 . S
Zn47 O48 1.949 . S
Zn47 O54 1.919 . S
Zn47 O59 1.924 . S
O48 Zn47 1.949 . S
O48 Zn49 1.923 . S
O48 Zn50 1.950 . S
O48 Zn51 1.945 . S
Zn49 O48 1.923 . S
Zn49 O52 1.933 1_565 S
Zn49 O55 1.941 . S
Zn49 O56 1.965 . S
Zn50 O48 1.950 . S
Zn50 O57 1.938 . S
Zn50 O58 1.906 . S
Zn50 O68 1.953 . S
Zn51 O48 1.945 . S
Zn51 O53 1.932 1_565 S
Zn51 O60 1.977 . S
Zn51 O61 1.910 . S
O52 Zn49 1.933 1_545 S
O52 C63 1.226 . S
O53 Zn51 1.932 1_545 S
O53 C63 1.307 . S
O54 Zn47 1.919 . S
O54 C65 1.253 . S
O55 Zn49 1.941 . S
O55 C65 1.283 . S
O56 Zn49 1.965 . S
O56 C64 1.303 . S
O57 Zn50 1.938 . S
O57 C64 1.247 . S
O58 Zn50 1.906 . S
O58 C66 1.304 . S
O59 Zn47 1.924 . S
O59 C67 1.311 . S
O60 Zn51 1.977 . S
O60 C66 1.272 . S
O61 Zn51 1.910 . S
O61 C67 1.231 . S
C62 O46 1.225 . S
C62 O68 1.298 . S
C63 O52 1.226 . S
C63 O53 1.307 . S
C64 O56 1.303 . S
C64 O57 1.247 . S
C65 O54 1.253 . S
C65 O55 1.283 . S
C66 O58 1.304 . S
C66 O60 1.272 . S
C67 O59 1.311 . S
C67 O61 1.231 . S
O68 Zn50 1.953 . S
O68 C62 1.298 . S
O69 Zn70 1.953 . S
O69 C85 1.225 . S
Zn70 O69 1.953 . S
Zn70 O71 1.949 . S
Zn70 O77 1.919 . S
Zn70 O82 1.924 1_655 S
O71 Zn70 1.949 . S
O71 Zn72 1.923 . S
O71 Zn73 1.950 . S
O71 Zn74 1.945 . S
Zn72 O71 1.923 . S
Zn72 O75 1.933 . S
Zn72 O78 1.941 . S
Zn72 O79 1.965 . S
Zn73 O71 1.950 . S
Zn73 O80 1.938 . S
Zn73 O81 1.906 . S
Zn73 O91 1.953 . S
Zn74 O71 1.945 . S
Zn74 O76 1.932 . S
Zn74 O83 1.977 . S
Zn74 O84 1.910 1_655 S
O75 Zn72 1.933 . S
O75 C86 1.226 . S
O76 Zn74 1.932 . S
O76 C86 1.307 . S
O77 Zn70 1.919 . S
O77 C88 1.253 . S
O78 Zn72 1.941 . S
O78 C88 1.283 . S
O79 Zn72 1.965 . S
O79 C87 1.303 . S
O80 Zn73 1.938 . S
O80 C87 1.247 . S
O81 Zn73 1.906 . S
O81 C89 1.304 . S
O82 Zn70 1.924 1_455 S
O82 C90 1.311 . S
O83 Zn74 1.977 . S
O83 C89 1.272 . S
O84 Zn74 1.910 1_455 S
O84 C90 1.231 . S
C85 O69 1.225 . S
C85 O91 1.298 . S
C86 O75 1.226 . S
C86 O76 1.307 . S
C87 O79 1.303 . S
C87 O80 1.247 . S
C88 O77 1.253 . S
C88 O78 1.283 . S
C89 O81 1.304 . S
C89 O83 1.272 . S
C90 O82 1.311 . S
C90 O84 1.231 . S
O91 Zn73 1.953 . S
O91 C85 1.298 . S
O92 Zn93 1.953 . S
O92 C108 1.225 . S
Zn93 O92 1.953 . S
Zn93 O94 1.949 . S
Zn93 O100 1.919 . S
Zn93 O105 1.924 1_565 S
O94 Zn93 1.949 . S
O94 Zn95 1.923 . S
O94 Zn96 1.950 . S
O94 Zn97 1.945 . S
Zn95 O94 1.923 . S
Zn95 O98 1.933 1_455 S
Zn95 O101 1.941 . S
Zn95 O102 1.965 . S
Zn96 O94 1.950 . S
Zn96 O103 1.938 . S
Zn96 O104 1.906 . S
Zn96 O114 1.953 . S
Zn97 O94 1.945 . S
Zn97 O99 1.932 1_455 S
Zn97 O106 1.977 . S
Zn97 O107 1.910 1_565 S
O98 Zn95 1.933 1_655 S
O98 C109 1.226 . S
O99 Zn97 1.932 1_655 S
O99 C109 1.307 . S
O100 Zn93 1.919 . S
O100 C111 1.253 . S
O101 Zn95 1.941 . S
O101 C111 1.283 . S
O102 Zn95 1.965 . S
O102 C110 1.303 . S
O103 Zn96 1.938 . S
O103 C110 1.247 . S
O104 Zn96 1.906 . S
O104 C112 1.304 . S
O105 Zn93 1.924 1_545 S
O105 C113 1.311 . S
O106 Zn97 1.977 . S
O106 C112 1.272 . S
O107 Zn97 1.910 1_545 S
O107 C113 1.231 . S
C108 O92 1.225 . S
C108 O114 1.298 . S
C109 O98 1.226 . S
C109 O99 1.307 . S
C110 O102 1.303 . S
C110 O103 1.247 . S
C111 O100 1.253 . S
C111 O101 1.283 . S
C112 O104 1.304 . S
C112 O106 1.272 . S
C113 O105 1.311 . S
C113 O107 1.231 . S
O114 Zn96 1.953 . S
O114 C108 1.298 . S
O115 Zn116 1.953 . S
O115 C131 1.225 . S
Zn116 O115 1.953 . S
Zn116 O117 1.949 . S
Zn116 O123 1.919 . S
Zn116 O128 1.924 . S
O117 Zn116 1.949 . S
O117 Zn118 1.923 . S
O117 Zn119 1.950 . S
O117 Zn120 1.945 . S
Zn118 O117 1.923 . S
Zn118 O121 1.933 1_545 S
Zn118 O124 1.941 . S
Zn118 O125 1.965 . S
Zn119 O117 1.950 . S
Zn119 O126 1.938 . S
Zn119 O127 1.906 . S
Zn119 O137 1.953 . S
Zn120 O117 1.945 . S
Zn120 O122 1.932 1_545 S
Zn120 O129 1.977 . S
Zn120 O130 1.910 . S
O121 Zn118 1.933 1_565 S
O121 C132 1.226 . S
O122 Zn120 1.932 1_565 S
O122 C132 1.307 . S
O123 Zn116 1.919 . S
O123 C134 1.253 . S
O124 Zn118 1.941 . S
O124 C134 1.283 . S
O125 Zn118 1.965 . S
O125 C133 1.303 . S
O126 Zn119 1.938 . S
O126 C133 1.247 . S
O127 Zn119 1.906 . S
O127 C135 1.304 . S
O128 Zn116 1.924 . S
O128 C136 1.311 . S
O129 Zn120 1.977 . S
O129 C135 1.272 . S
O130 Zn120 1.910 . S
O130 C136 1.231 . S
C131 O115 1.225 . S
C131 O137 1.298 . S
C132 O121 1.226 . S
C132 O122 1.307 . S
C133 O125 1.303 . S
C133 O126 1.247 . S
C134 O123 1.253 . S
C134 O124 1.283 . S
C135 O127 1.304 . S
C135 O129 1.272 . S
C136 O128 1.311 . S
C136 O130 1.231 . S
O137 Zn119 1.953 . S
O137 C131 1.298 . S
O138 Zn139 1.953 . S
O138 C154 1.225 . S
Zn139 O138 1.953 . S
Zn139 O140 1.949 . S
Zn139 O146 1.919 . S
Zn139 O151 1.924 1_565 S
O140 Zn139 1.949 . S
O140 Zn141 1.923 . S
O140 Zn142 1.950 . S
O140 Zn143 1.945 . S
Zn141 O140 1.923 . S
Zn141 O144 1.933 . S
Zn141 O147 1.941 . S
Zn141 O148 1.965 . S
Zn142 O140 1.950 . S
Zn142 O149 1.938 . S
Zn142 O150 1.906 . S
Zn142 O160 1.953 . S
Zn143 O140 1.945 . S
Zn143 O145 1.932 . S
Zn143 O152 1.977 . S
Zn143 O153 1.910 1_565 S
O144 Zn141 1.933 . S
O144 C155 1.226 . S
O145 Zn143 1.932 . S
O145 C155 1.307 . S
O146 Zn139 1.919 . S
O146 C157 1.253 . S
O147 Zn141 1.941 . S
O147 C157 1.283 . S
O148 Zn141 1.965 . S
O148 C156 1.303 . S
O149 Zn142 1.938 . S
O149 C156 1.247 . S
O150 Zn142 1.906 . S
O150 C158 1.304 . S
O151 Zn139 1.924 1_545 S
O151 C159 1.311 . S
O152 Zn143 1.977 . S
O152 C158 1.272 . S
O153 Zn143 1.910 1_545 S
O153 C159 1.231 . S
C154 O138 1.225 . S
C154 O160 1.298 . S
C155 O144 1.226 . S
C155 O145 1.307 . S
C156 O148 1.303 . S
C156 O149 1.247 . S
C157 O146 1.253 . S
C157 O147 1.283 . S
C158 O150 1.304 . S
C158 O152 1.272 . S
C159 O151 1.311 . S
C159 O153 1.231 . S
O160 Zn142 1.953 . S
O160 C154 1.298 . S
O161 Zn162 1.953 . S
O161 C177 1.225 . S
Zn162 O161 1.953 . S
Zn162 O163 1.949 . S
Zn162 O169 1.919 . S
Zn162 O174 1.924 . S
O163 Zn162 1.949 . S
O163 Zn164 1.923 . S
O163 Zn165 1.950 . S
O163 Zn166 1.945 . S
Zn164 O163 1.923 . S
Zn164 O167 1.933 1_655 S
Zn164 O170 1.941 . S
Zn164 O171 1.965 . S
Zn165 O163 1.950 . S
Zn165 O172 1.938 . S
Zn165 O173 1.906 . S
Zn165 O183 1.953 . S
Zn166 O163 1.945 . S
Zn166 O168 1.932 1_655 S
Zn166 O175 1.977 . S
Zn166 O176 1.910 . S
O167 Zn164 1.933 1_455 S
O167 C178 1.226 . S
O168 Zn166 1.932 1_455 S
O168 C178 1.307 . S
O169 Zn162 1.919 . S
O169 C180 1.253 . S
O170 Zn164 1.941 . S
O170 C180 1.283 . S
O171 Zn164 1.965 . S
O171 C179 1.303 . S
O172 Zn165 1.938 . S
O172 C179 1.247 . S
O173 Zn165 1.906 . S
O173 C181 1.304 . S
O174 Zn162 1.924 . S
O174 C182 1.311 . S
O175 Zn166 1.977 . S
O175 C181 1.272 . S
O176 Zn166 1.910 . S
O176 C182 1.231 . S
C177 O161 1.225 . S
C177 O183 1.298 . S
C178 O167 1.226 . S
C178 O168 1.307 . S
C179 O171 1.303 . S
C179 O172 1.247 . S
C180 O169 1.253 . S
C180 O170 1.283 . S
C181 O173 1.304 . S
C181 O175 1.272 . S
C182 O174 1.311 . S
C182 O176 1.231 . S
O183 Zn165 1.953 . S
O183 C177 1.298 . S
O184 Zn185 1.953 . S
O184 C200 1.225 . S
Zn185 O184 1.953 . S
Zn185 O186 1.949 . S
Zn185 O192 1.919 . S
Zn185 O197 1.924 1_455 S
O186 Zn185 1.949 . S
O186 Zn187 1.923 . S
O186 Zn188 1.950 . S
O186 Zn189 1.945 . S
Zn187 O186 1.923 . S
Zn187 O190 1.933 1_565 S
Zn187 O193 1.941 . S
Zn187 O194 1.965 . S
Zn188 O186 1.950 . S
Zn188 O195 1.938 . S
Zn188 O196 1.906 . S
Zn188 O206 1.953 . S
Zn189 O186 1.945 . S
Zn189 O191 1.932 1_565 S
Zn189 O198 1.977 . S
Zn189 O199 1.910 1_455 S
O190 Zn187 1.933 1_545 S
O190 C201 1.226 . S
O191 Zn189 1.932 1_545 S
O191 C201 1.307 . S
O192 Zn185 1.919 . S
O192 C203 1.253 . S
O193 Zn187 1.941 . S
O193 C203 1.283 . S
O194 Zn187 1.965 . S
O194 C202 1.303 . S
O195 Zn188 1.938 . S
O195 C202 1.247 . S
O196 Zn188 1.906 . S
O196 C204 1.304 . S
O197 Zn185 1.924 1_655 S
O197 C205 1.311 . S
O198 Zn189 1.977 . S
O198 C204 1.272 . S
O199 Zn189 1.910 1_655 S
O199 C205 1.231 . S
C200 O184 1.225 . S
C200 O206 1.298 . S
C201 O190 1.226 . S
C201 O191 1.307 . S
C202 O194 1.303 . S
C202 O195 1.247 . S
C203 O192 1.253 . S
C203 O193 1.283 . S
C204 O196 1.304 . S
C204 O198 1.272 . S
C205 O197 1.311 . S
C205 O199 1.231 . S
O206 Zn188 1.953 . S
O206 C200 1.298 . S
O207 Zn208 1.953 . S
O207 C223 1.225 . S
Zn208 O207 1.953 . S
Zn208 O209 1.949 . S
Zn208 O215 1.919 . S
Zn208 O220 1.924 1_545 S
O209 Zn208 1.949 . S
O209 Zn210 1.923 . S
O209 Zn211 1.950 . S
O209 Zn212 1.945 . S
Zn210 O209 1.923 . S
Zn210 O213 1.933 . S
Zn210 O216 1.941 . S
Zn210 O217 1.965 . S
Zn211 O209 1.950 . S
Zn211 O218 1.938 . S
Zn211 O219 1.906 . S
Zn211 O229 1.953 . S
Zn212 O209 1.945 . S
Zn212 O214 1.932 . S
Zn212 O221 1.977 . S
Zn212 O222 1.910 1_545 S
O213 Zn210 1.933 . S
O213 C224 1.226 . S
O214 Zn212 1.932 . S
O214 C224 1.307 . S
O215 Zn208 1.919 . S
O215 C226 1.253 . S
O216 Zn210 1.941 . S
O216 C226 1.283 . S
O217 Zn210 1.965 . S
O217 C225 1.303 . S
O218 Zn211 1.938 . S
O218 C225 1.247 . S
O219 Zn211 1.906 . S
O219 C227 1.304 . S
O220 Zn208 1.924 1_565 S
O220 C228 1.311 . S
O221 Zn212 1.977 . S
O221 C227 1.272 . S
O222 Zn212 1.910 1_565 S
O222 C228 1.231 . S
C223 O207 1.225 . S
C223 O229 1.298 . S
C224 O213 1.226 . S
C224 O214 1.307 . S
C225 O217 1.303 . S
C225 O218 1.247 . S
C226 O215 1.253 . S
C226 O216 1.283 . S
C227 O219 1.304 . S
C227 O221 1.272 . S
C228 O220 1.311 . S
C228 O222 1.231 . S
O229 Zn211 1.953 . S
O229 C223 1.298 . S
O230 Zn231 1.953 . S
O230 C246 1.225 . S
Zn231 O230 1.953 . S
Zn231 O232 1.949 . S
Zn231 O238 1.919 . S
Zn231 O243 1.924 . S
O232 Zn231 1.949 . S
O232 Zn233 1.923 . S
O232 Zn234 1.950 . S
O232 Zn235 1.945 . S
Zn233 O232 1.923 . S
Zn233 O236 1.933 1_455 S
Zn233 O239 1.941 . S
Zn233 O240 1.965 . S
Zn234 O232 1.950 . S
Zn234 O241 1.938 . S
Zn234 O242 1.906 . S
Zn234 O252 1.953 . S
Zn235 O232 1.945 . S
Zn235 O237 1.932 1_455 S
Zn235 O244 1.977 . S
Zn235 O245 1.910 . S
O236 Zn233 1.933 1_655 S
O236 C247 1.226 . S
O237 Zn235 1.932 1_655 S
O237 C247 1.307 . S
O238 Zn231 1.919 . S
O238 C249 1.253 . S
O239 Zn233 1.941 . S
O239 C249 1.283 . S
O240 Zn233 1.965 . S
O240 C248 1.303 . S
O241 Zn234 1.938 . S
O241 C248 1.247 . S
O242 Zn234 1.906 . S
O242 C250 1.304 . S
O243 Zn231 1.924 . S
O243 C251 1.311 . S
O244 Zn235 1.977 . S
O244 C250 1.272 . S
O245 Zn235 1.910 . S
O245 C251 1.231 . S
C246 O230 1.225 . S
C246 O252 1.298 . S
C247 O236 1.226 . S
C247 O237 1.307 . S
C248 O240 1.303 . S
C248 O241 1.247 . S
C249 O238 1.253 . S
C249 O239 1.283 . S
C250 O242 1.304 . S
C250 O244 1.272 . S
C251 O243 1.311 . S
C251 O245 1.231 . S
O252 Zn234 1.953 . S
O252 C246 1.298 . S
O253 Zn254 1.953 . S
O253 C269 1.225 . S
Zn254 O253 1.953 . S
Zn254 O255 1.949 . S
Zn254 O261 1.919 . S
Zn254 O266 1.924 1_655 S
O255 Zn254 1.949 . S
O255 Zn256 1.923 . S
O255 Zn257 1.950 . S
O255 Zn258 1.945 . S
Zn256 O255 1.923 . S
Zn256 O259 1.933 1_545 S
Zn256 O262 1.941 . S
Zn256 O263 1.965 . S
Zn257 O255 1.950 . S
Zn257 O264 1.938 . S
Zn257 O265 1.906 . S
Zn257 O275 1.953 . S
Zn258 O255 1.945 . S
Zn258 O260 1.932 1_545 S
Zn258 O267 1.977 . S
Zn258 O268 1.910 1_655 S
O259 Zn256 1.933 1_565 S
O259 C270 1.226 . S
O260 Zn258 1.932 1_565 S
O260 C270 1.307 . S
O261 Zn254 1.919 . S
O261 C272 1.253 . S
O262 Zn256 1.941 . S
O262 C272 1.283 . S
O263 Zn256 1.965 . S
O263 C271 1.303 . S
O264 Zn257 1.938 . S
O264 C271 1.247 . S
O265 Zn257 1.906 . S
O265 C273 1.304 . S
O266 Zn254 1.924 1_455 S
O266 C274 1.311 . S
O267 Zn258 1.977 . S
O267 C273 1.272 . S
O268 Zn258 1.910 1_455 S
O268 C274 1.231 . S
C269 O253 1.225 . S
C269 O275 1.298 . S
C270 O259 1.226 . S
C270 O260 1.307 . S
C271 O263 1.303 . S
C271 O264 1.247 . S
C272 O261 1.253 . S
C272 O262 1.283 . S
C273 O265 1.304 . S
C273 O267 1.272 . S
C274 O266 1.311 . S
C274 O268 1.231 . S
O275 Zn257 1.953 . S
O275 C269 1.298 . S
C113 C17 1.290 . S
C136 C40 1.290 . S
C63 C21 1.290 . S
C86 C44 1.290 . S
C109 C67 1.290 . S
C90 C132 1.290 . S
C205 C155 1.290 . S
C178 C228 1.290 . S
C251 C201 1.290 . S
C224 C274 1.290 . S
C247 C159 1.290 . S
C182 C270 1.290 . S
C110 C16 1.465 . S
C39 C133 1.465 . S
C62 C18 1.465 . S
C85 C41 1.465 . S
C64 C108 1.465 . S
C87 C131 1.465 . S
C202 C154 1.465 . S
C177 C225 1.465 . S
C200 C248 1.465 . S
C271 C223 1.465 . S
C246 C156 1.465 . S
C179 C269 1.465 . S
C250 C20 1.498 . S
C43 C273 1.498 . S
C66 C158 1.498 . S
C89 C181 1.498 . S
C112 C204 1.498 . S
C227 C135 1.498 . S
C226 C19 1.822 1_556 S
C249 C42 1.822 1_455 S
C65 C272 1.822 1_564 S
C88 C157 1.822 . S
C180 C111 1.822 1_656 S
C203 C134 1.822 1_565 S
