# Generated by pormake.
# Topology wjg, (4)-cn, num edge types: 1
# Building blocks:
#     Node 0, Type 0, BuildingBlock: AZAVOO_clean_sbu_0, # of connection points: 4
#     Node 1, Type 0, BuildingBlock: AZAVOO_clean_sbu_0, # of connection points: 4
#     Node 2, Type 0, BuildingBlock: AZAVOO_clean_sbu_0, # of connection points: 4
#     Node 3, Type 0, BuildingBlock: AZAVOO_clean_sbu_0, # of connection points: 4
#     Node 4, Type 0, BuildingBlock: AZAVOO_clean_sbu_0, # of connection points: 4
#     Node 5, Type 0, BuildingBlock: AZAVOO_clean_sbu_0, # of connection points: 4
#     Node 6, Type 0, BuildingBlock: AZAVOO_clean_sbu_0, # of connection points: 4
#     Node 7, Type 0, BuildingBlock: AZAVOO_clean_sbu_0, # of connection points: 4
#     Node 8, Type 0, BuildingBlock: AZAVOO_clean_sbu_0, # of connection points: 4
#     Node 9, Type 0, BuildingBlock: AZAVOO_clean_sbu_0, # of connection points: 4
#     Node 10, Type 0, BuildingBlock: AZAVOO_clean_sbu_0, # of connection points: 4
#     Node 11, Type 0, BuildingBlock: AZAVOO_clean_sbu_0, # of connection points: 4
#     Edge 12, Type (0, 0), BuildingBlock: EZIPEK_clean_linker_0, # of connection points: 2
#     Edge 13, Type (0, 0), BuildingBlock: EZIPEK_clean_linker_0, # of connection points: 2
#     Edge 14, Type (0, 0), BuildingBlock: EZIPEK_clean_linker_0, # of connection points: 2
#     Edge 15, Type (0, 0), BuildingBlock: EZIPEK_clean_linker_0, # of connection points: 2
#     Edge 16, Type (0, 0), BuildingBlock: EZIPEK_clean_linker_0, # of connection points: 2
#     Edge 17, Type (0, 0), BuildingBlock: EZIPEK_clean_linker_0, # of connection points: 2
#     Edge 18, Type (0, 0), BuildingBlock: EZIPEK_clean_linker_0, # of connection points: 2
#     Edge 19, Type (0, 0), BuildingBlock: EZIPEK_clean_linker_0, # of connection points: 2
#     Edge 20, Type (0, 0), BuildingBlock: EZIPEK_clean_linker_0, # of connection points: 2
#     Edge 21, Type (0, 0), BuildingBlock: EZIPEK_clean_linker_0, # of connection points: 2
#     Edge 22, Type (0, 0), BuildingBlock: EZIPEK_clean_linker_0, # of connection points: 2
#     Edge 23, Type (0, 0), BuildingBlock: EZIPEK_clean_linker_0, # of connection points: 2
#     Edge 24, Type (0, 0), BuildingBlock: EZIPEK_clean_linker_0, # of connection points: 2
#     Edge 25, Type (0, 0), BuildingBlock: EZIPEK_clean_linker_0, # of connection points: 2
#     Edge 26, Type (0, 0), BuildingBlock: EZIPEK_clean_linker_0, # of connection points: 2
#     Edge 27, Type (0, 0), BuildingBlock: EZIPEK_clean_linker_0, # of connection points: 2
#     Edge 28, Type (0, 0), BuildingBlock: EZIPEK_clean_linker_0, # of connection points: 2
#     Edge 29, Type (0, 0), BuildingBlock: EZIPEK_clean_linker_0, # of connection points: 2
#     Edge 30, Type (0, 0), BuildingBlock: EZIPEK_clean_linker_0, # of connection points: 2
#     Edge 31, Type (0, 0), BuildingBlock: EZIPEK_clean_linker_0, # of connection points: 2
#     Edge 32, Type (0, 0), BuildingBlock: EZIPEK_clean_linker_0, # of connection points: 2
#     Edge 33, Type (0, 0), BuildingBlock: EZIPEK_clean_linker_0, # of connection points: 2
#     Edge 34, Type (0, 0), BuildingBlock: EZIPEK_clean_linker_0, # of connection points: 2
#     Edge 35, Type (0, 0), BuildingBlock: EZIPEK_clean_linker_0, # of connection points: 2
# Relax obj value: 0.259
# Max RMSD: 0.122
# Mean RMSD: 0.122
data_MOF--net-wjg--node1-AZAVOO_clean_sbu_0--edge1-EZIPEK_clean_linker_0
_symmetry_space_group_name_H-M    P1
_symmetry_Int_Tables_number       1
_symmetry_cell_setting            triclinic
loop_
_symmetry_equiv_pos_as_xyz
'x, y, z'
_cell_length_a     25.49977
_cell_length_b     25.505303
_cell_length_c     27.985101
_cell_angle_alpha  90.940966
_cell_angle_beta   89.610908
_cell_angle_gamma 119.6141
loop_
_atom_site_label
_atom_site_type_symbol
_atom_site_fract_x
_atom_site_fract_y
_atom_site_fract_z
_atom_type_partial_charge
Mg0 Mg 0.166 0.45439 0.36257 0.0
O1 O 0.22198 0.40605 0.35974 0.0
O2 O 0.27536 0.42682 0.42759 0.0
Mg3 Mg 0.26069 0.49538 0.47059 0.0
C4 C 0.2586 0.40001 0.38706 0.0
C5 C 0.1002 0.36876 0.2761 0.0
O6 O 0.09345 0.32959 0.30881 0.0
O7 O 0.25154 0.54456 0.34261 0.0
O8 O 0.30302 0.56388 0.41149 0.0
O9 O 0.0951 0.37798 0.40727 0.0
O10 O 0.17346 0.46063 0.43559 0.0
C11 C 0.29739 0.57805 0.3691 0.0
C12 C 0.12731 0.40897 0.4435 0.0
O13 O 0.13186 0.42495 0.28559 0.0
Mg14 Mg 0.77212 0.20452 0.68026 0.0
O15 O 0.87406 0.25479 0.6997 0.0
O16 O 0.88528 0.31317 0.76329 0.0
Mg17 Mg 0.79647 0.30858 0.78183 0.0
C18 C 0.90652 0.28985 0.73377 0.0
C19 C 0.73717 0.11601 0.59782 0.0
O20 O 0.68811 0.09871 0.62344 0.0
O21 O 0.77974 0.28897 0.6438 0.0
O22 O 0.79123 0.34358 0.71045 0.0
O23 O 0.76132 0.13803 0.7368 0.0
O24 O 0.75379 0.21997 0.7483 0.0
C25 C 0.78564 0.33635 0.66536 0.0
C26 C 0.75978 0.17724 0.76587 0.0
O27 O 0.78555 0.16271 0.61136 0.0
Mg28 Mg 0.63619 0.75462 0.02245 0.0
O29 O 0.69184 0.83419 0.96866 0.0
O30 O 0.61617 0.8503 0.96153 0.0
Mg31 Mg 0.59922 0.8781 0.03339 0.0
C32 C 0.67174 0.86882 0.95548 0.0
C33 C 0.6949 0.73408 0.93165 0.0
O34 O 0.66522 0.68048 0.95078 0.0
O35 O 0.54422 0.73163 0.98646 0.0
O36 O 0.52334 0.78175 0.04245 0.0
O37 O 0.71117 0.80611 0.08181 0.0
O38 O 0.65472 0.83873 0.05529 0.0
C39 C 0.50631 0.74232 0.009 0.0
C40 C 0.6926 0.84431 0.08642 0.0
O41 O 0.69672 0.77918 0.95402 0.0
Mg42 Mg 0.81597 0.55607 0.28619 0.0
O43 O 0.76401 0.60817 0.26985 0.0
O44 O 0.69864 0.59034 0.33023 0.0
Mg45 Mg 0.6867 0.50674 0.3648 0.0
C46 C 0.72689 0.6192 0.29321 0.0
C47 C 0.92363 0.61517 0.21356 0.0
O48 O 0.95373 0.63457 0.25388 0.0
O49 O 0.74303 0.46195 0.2589 0.0
O50 O 0.66587 0.46824 0.28912 0.0
O51 O 0.8692 0.62932 0.34157 0.0
O52 O 0.78436 0.54675 0.35466 0.0
C53 C 0.68665 0.43853 0.2671 0.0
C54 C 0.82515 0.59833 0.37045 0.0
O55 O 0.8664 0.58294 0.21457 0.0
Mg56 Mg 0.29224 0.82215 0.62646 0.0
O57 O 0.19284 0.76527 0.59791 0.0
O58 O 0.1465 0.67986 0.64008 0.0
Mg59 Mg 0.22222 0.66431 0.66384 0.0
C60 C 0.14502 0.71861 0.61266 0.0
C61 C 0.35327 0.91914 0.5439 0.0
O62 O 0.40003 0.91204 0.552 0.0
O63 O 0.34196 0.78386 0.57997 0.0
O64 O 0.26314 0.69932 0.593 0.0
O65 O 0.25022 0.83853 0.69151 0.0
O66 O 0.26663 0.76246 0.68626 0.0
C67 C 0.31993 0.72859 0.5894 0.0
C68 C 0.24425 0.78997 0.7105 0.0
O69 O 0.30642 0.89215 0.56981 0.0
Mg70 Mg 0.35358 0.18962 0.00953 0.0
O71 O 0.31663 0.087 -0.00311 0.0
O72 O 0.32717 0.05167 0.06665 0.0
Mg73 Mg 0.35392 0.12365 0.12522 0.0
C74 C 0.31267 0.04391 0.02248 0.0
C75 C 0.35103 0.25462 0.92073 0.0
O76 O 0.33975 0.28105 0.95685 0.0
O77 O 0.45087 0.20383 0.01769 0.0
O78 O 0.44686 0.16851 0.09141 0.0
O79 O 0.25898 0.17046 0.02634 0.0
O80 O 0.32399 0.172 0.07903 0.0
C81 C 0.47567 0.19348 0.05343 0.0
C82 C 0.27044 0.16155 0.06944 0.0
O83 O 0.36203 0.21194 0.92911 0.0
Mg84 Mg 0.64712 0.91312 0.33251 0.0
O85 O 0.66807 0.83591 0.31444 0.0
O86 O 0.6335 0.80465 0.23965 0.0
Mg87 Mg 0.58152 0.85042 0.21573 0.0
C88 C 0.66042 0.80255 0.2773 0.0
C89 C 0.67851 0.97664 0.42372 0.0
O90 O 0.65819 1.00157 0.3937 0.0
O91 O 0.5498 0.8384 0.35016 0.0
O92 O 0.5165 0.80243 0.27638 0.0
O93 O 0.73261 0.97768 0.29392 0.0
O94 O 0.64269 0.92533 0.26097 0.0
C95 C 0.50892 0.80113 0.32144 0.0
C96 C 0.70002 0.95899 0.25565 0.0
O97 O 0.67882 0.92874 0.4104 0.0
Mg98 Mg 0.76773 0.64829 0.64414 0.0
O99 O 0.86677 0.67111 0.62782 0.0
O100 O 0.86717 0.6045 0.57388 0.0
Mg101 Mg 0.77322 0.53745 0.54493 0.0
C102 C 0.89461 0.65035 0.60202 0.0
C103 C 0.74248 0.6931 0.73842 0.0
O104 O 0.6894 0.65407 0.72089 0.0
O105 O 0.75195 0.56467 0.6875 0.0
O106 O 0.73793 0.5522 0.61158 0.0
O107 O 0.77379 0.7029 0.57862 0.0
O108 O 0.74911 0.607 0.57463 0.0
C109 C 0.745 0.53234 0.65058 0.0
C110 C 0.76302 0.65604 0.55278 0.0
O111 O 0.78939 0.70579 0.71371 0.0
Mg112 Mg 0.12953 0.65508 0.94925 0.0
O113 O 0.17707 0.75818 0.95663 0.0
O114 O 0.25083 0.79684 0.90249 0.0
Mg115 Mg 0.24029 0.71999 0.85231 0.0
C116 C 0.22258 0.80321 0.938 0.0
C117 C 0.05421 0.66724 0.03402 0.0
O118 O 0.04578 0.6996 0.00215 0.0
O119 O 0.21623 0.6572 0.97779 0.0
O120 O 0.27492 0.68913 0.91263 0.0
O121 O 0.06392 0.66031 0.89699 0.0
O122 O 0.14935 0.66289 0.87846 0.0
C123 C 0.26483 0.66944 0.95509 0.0
C124 C 0.10418 0.6679 0.86527 0.0
O125 O 0.08761 0.64455 0.02381 0.0
Mg126 Mg 0.33928 0.11229 0.28966 0.0
O127 O 0.32958 0.19125 0.32084 0.0
O128 O 0.33616 0.24998 0.25969 0.0
Mg129 Mg 0.35561 0.21298 0.19121 0.0
C130 C 0.32823 0.23684 0.30396 0.0
C131 C 0.35143 0.0349 0.36778 0.0
O132 O 0.35197 0.00656 0.32832 0.0
O133 O 0.44181 0.17595 0.28392 0.0
O134 O 0.44582 0.23574 0.22476 0.0
O135 O 0.23884 0.06175 0.27241 0.0
O136 O 0.3105 0.12425 0.22397 0.0
C137 C 0.47149 0.22101 0.25665 0.0
C138 C 0.25404 0.09093 0.23274 0.0
O139 O 0.34739 0.08249 0.3649 0.0
Mg140 Mg 0.30058 0.45286 0.69003 0.0
O141 O 0.20475 0.42222 0.72316 0.0
O142 O 0.15864 0.46093 0.67912 0.0
Mg143 Mg 0.23532 0.54338 0.6478 0.0
C144 C 0.15748 0.42389 0.70969 0.0
C145 C 0.31881 0.35332 0.74575 0.0
O146 O 0.30589 0.32582 0.70385 0.0
O147 O 0.35898 0.54743 0.72623 0.0
O148 O 0.27835 0.55237 0.71823 0.0
O149 O 0.24948 0.38639 0.63114 0.0
O150 O 0.27188 0.48081 0.62822 0.0
C151 C 0.33519 0.57988 0.71843 0.0
C152 C 0.24564 0.42814 0.60835 0.0
O153 O 0.32072 0.40404 0.75046 0.0
Mg154 Mg 0.83241 0.25314 0.04637 0.0
O155 O 0.78542 0.15016 0.02383 0.0
O156 O 0.7062 0.12797 0.97558 0.0
Mg157 Mg 0.69559 0.20962 0.95713 0.0
C158 C 0.74117 0.11305 -0.00309 0.0
C159 C 0.94314 0.29554 0.11043 0.0
O160 O 0.96222 0.33504 0.07594 0.0
O161 O 0.75366 0.24245 0.09629 0.0
O162 O 0.74664 0.25355 0.02106 0.0
O163 O 0.88655 0.26928 0.97972 0.0
O164 O 0.79552 0.26002 0.98021 0.0
C165 C 0.72282 0.24488 0.06183 0.0
C166 C 0.8395 0.26116 0.95621 0.0
O167 O 0.88973 0.25072 0.10835 0.0
C168 C 0.34431 0.68772 0.34715 0.0
C169 C 0.3488 0.63463 0.35112 0.0
C170 C 0.459 0.69504 0.34818 0.0
C171 C 0.45466 0.74737 0.33964 0.0
N172 N 0.39359 0.79347 0.32556 0.0
N173 N 0.40879 0.58599 0.34425 0.0
C174 C 0.3973 0.74368 0.33747 0.0
C175 C 0.40582 0.63792 0.34839 0.0
N176 N 0.29001 0.68504 0.35435 0.0
N177 N 0.51404 0.69997 0.35645 0.0
H178 H 0.37015 0.54363 0.34193 0.0
H179 H 0.44867 0.58522 0.33773 0.0
H180 H 0.55414 0.74115 0.35647 0.0
H181 H 0.51943 0.66407 0.3674 0.0
H182 H 0.28499 0.72308 0.35738 0.0
H183 H 0.2502 0.64462 0.36011 0.0
H184 H 0.35308 0.79231 0.31807 0.0
H185 H 0.43171 0.83567 0.32089 0.0
C186 C 0.8286 0.44329 0.64905 0.0
C187 C 0.78077 0.3843 0.64054 0.0
C188 C 0.71151 0.42403 0.63083 0.0
C189 C 0.75682 0.48086 0.64934 0.0
N190 N 0.85859 0.54354 0.67878 0.0
N191 N 0.67697 0.31708 0.62047 0.0
C192 C 0.81566 0.49046 0.65883 0.0
C193 C 0.72257 0.37449 0.62927 0.0
N194 N 0.8863 0.45305 0.64932 0.0
N195 N 0.65755 0.41705 0.61558 0.0
H196 H 0.68468 0.28073 0.61642 0.0
H197 H 0.63164 0.30511 0.61864 0.0
H198 H 0.64529 0.45025 0.61995 0.0
H199 H 0.62593 0.37936 0.59644 0.0
H200 H 0.92433 0.49574 0.65142 0.0
H201 H 0.89558 0.41804 0.64251 0.0
H202 H 0.90039 0.5509 0.69049 0.0
H203 H 0.85073 0.57878 0.68744 0.0
C204 C 0.42399 0.76179 0.98692 0.0
C205 C 0.44347 0.7189 -0.00762 0.0
C206 C 0.33898 0.6375 0.98088 0.0
C207 C 0.3199 0.68112 0.98069 0.0
N208 N 0.34248 0.78327 -0.00392 0.0
N209 N 0.4182 0.61508 0.00159 0.0
C210 C 0.36199 0.74267 0.98863 0.0
C211 C 0.40062 0.65624 -0.00866 0.0
N212 N 0.46474 0.82067 0.97768 0.0
N213 N 0.29863 0.5788 0.9699 0.0
H214 H 0.46293 0.62736 0.00875 0.0
H215 H 0.3879 0.56935 0.00593 0.0
H216 H 0.25293 0.56405 0.96438 0.0
H217 H 0.31096 0.54586 0.96429 0.0
H218 H 0.45224 0.85263 0.96924 0.0
H219 H 0.51048 0.83575 0.97264 0.0
H220 H 0.3711 0.82813 0.00605 0.0
H221 H 0.29683 0.77018 -0.00299 0.0
C222 C 0.56116 0.2919 0.30763 0.0
C223 C 0.53741 0.26202 0.26313 0.0
C224 C 0.62606 0.3403 0.22141 0.0
C225 C 0.64658 0.3722 0.26519 0.0
N226 N 0.64941 0.36674 0.35074 0.0
N227 N 0.55812 0.24494 0.18215 0.0
C228 C 0.61949 0.34351 0.3086 0.0
C229 C 0.57394 0.28193 0.22148 0.0
N230 N 0.52684 0.27494 0.34817 0.0
N231 N 0.65393 0.36698 0.17979 0.0
H232 H 0.52032 0.20182 0.18185 0.0
H233 H 0.5859 0.25434 0.15244 0.0
H234 H 0.69302 0.40904 0.17914 0.0
H235 H 0.63683 0.34857 0.1462 0.0
H236 H 0.53964 0.30072 0.37961 0.0
H237 H 0.48405 0.23737 0.35018 0.0
H238 H 0.63426 0.34517 0.38334 0.0
H239 H 0.69273 0.40421 0.35195 0.0
C240 C 0.37042 0.72873 0.6675 0.0
C241 C 0.35505 0.70848 0.61935 0.0
C242 C 0.37146 0.62365 0.63653 0.0
C243 C 0.36538 0.63269 0.68598 0.0
N244 N 0.37499 0.70082 0.74963 0.0
N245 N 0.35731 0.64644 0.55491 0.0
C246 C 0.37104 0.68822 0.70175 0.0
C247 C 0.3617 0.65934 0.60277 0.0
N248 N 0.38539 0.78635 0.68007 0.0
N249 N 0.38683 0.58164 0.62229 0.0
H250 H 0.3529 0.67392 0.52985 0.0
H251 H 0.35745 0.60887 0.54001 0.0
H252 H 0.39665 0.55727 0.6467 0.0
H253 H 0.39516 0.57475 0.58696 0.0
H254 H 0.40052 0.80497 0.71396 0.0
H255 H 0.38832 0.81761 0.65524 0.0
H256 H 0.37389 0.73792 0.76453 0.0
H257 H 0.37828 0.67261 0.77463 0.0
C258 C 0.61188 0.17207 0.067 0.0
C259 C 0.65968 0.23244 0.06559 0.0
C260 C 0.58697 0.2681 0.05299 0.0
C261 C 0.53952 0.2074 0.05154 0.0
N262 N 0.50697 0.10119 0.04857 0.0
N263 N 0.69473 0.33787 0.05221 0.0
C264 C 0.55209 0.15924 0.05631 0.0
C265 C 0.6477 0.2804 0.05702 0.0
N266 N 0.62377 0.12705 0.07841 0.0
N267 N 0.57379 0.31397 0.05306 0.0
H268 H 0.73952 0.34959 0.05853 0.0
H269 H 0.68985 0.37349 0.03981 0.0
H270 H 0.53004 0.30679 0.04948 0.0
H271 H 0.60547 0.35895 0.05976 0.0
H272 H 0.59049 0.08282 0.08476 0.0
H273 H 0.66723 0.13487 0.08528 0.0
H274 H 0.51379 0.06421 0.04693 0.0
H275 H 0.46316 0.0904 0.03925 0.0
C276 C 0.23656 0.29455 0.36857 0.0
C277 C 0.27924 0.35704 0.37243 0.0
C278 C 0.35822 0.33806 0.34032 0.0
C279 C 0.31511 0.27586 0.33584 0.0
N280 N 0.21922 0.19265 0.35992 0.0
N281 N 0.38332 0.43658 0.37264 0.0
C282 C 0.25626 0.25331 0.35474 0.0
C283 C 0.34109 0.37824 0.36198 0.0
N284 N 0.17675 0.27456 0.37681 0.0
N285 N 0.41526 0.35867 0.32297 0.0
H286 H 0.37248 0.46773 0.38742 0.0
H287 H 0.42961 0.4532 0.37028 0.0
H288 H 0.43057 0.32978 0.31056 0.0
H289 H 0.44673 0.40415 0.31921 0.0
H290 H 0.1427 0.23096 0.36851 0.0
H291 H 0.16038 0.30257 0.38886 0.0
H292 H 0.17839 0.17412 0.37823 0.0
H293 H 0.23148 0.16069 0.34996 0.0
C294 C 1.00032 0.28912 0.70318 0.0
C295 C 0.97203 0.30761 0.73803 0.0
C296 C 0.07093 0.38649 0.76667 0.0
C297 C 0.09733 0.37681 0.72532 0.0
N298 N 0.08947 0.31645 0.65558 0.0
N299 N 0.9844 0.34562 0.81921 0.0
C300 C 0.06288 0.32663 0.69443 0.0
C301 C 0.00844 0.3479 0.77503 0.0
N302 N 0.96887 0.23362 0.68169 0.0
N303 N 0.10481 0.4342 0.7966 0.0
H304 H 0.94121 0.3118 0.82833 0.0
H305 H 0.00976 0.37097 0.8485 0.0
H306 H 0.15127 0.46177 0.79239 0.0
H307 H 0.0863 0.44819 0.82389 0.0
H308 H 0.9882 0.21592 0.65822 0.0
H309 H 0.92591 0.20157 0.69299 0.0
H310 H 0.0654 0.28626 0.62801 0.0
H311 H 0.13585 0.34041 0.65005 0.0
C312 C 0.71769 0.03068 0.93477 0.0
C313 C 0.73522 0.05322 0.98266 0.0
C314 C 0.74661 0.96492 -0.00231 0.0
C315 C 0.71153 0.93552 0.95657 0.0
N316 N 0.66729 0.94247 0.88315 0.0
N317 N 0.7618 0.03576 0.06159 0.0
C318 C 0.69867 0.96935 0.92409 0.0
C319 C 0.74926 0.01909 0.01463 0.0
N320 N 0.72205 0.06804 0.89875 0.0
N321 N 0.77878 0.94262 0.01967 0.0
H322 H 0.75802 0.07109 0.07717 0.0
H323 H 0.76948 0.01013 0.08624 0.0
H324 H 0.78177 0.90604 0.00577 0.0
H325 H 0.80876 0.96552 0.04757 0.0
H326 H 0.71488 0.05457 0.86291 0.0
H327 H 0.74043 0.1142 0.90349 0.0
H328 H 0.64939 0.96237 0.86119 0.0
H329 H 0.65711 0.899 0.8725 0.0
C330 C 0.63779 0.69554 0.2666 0.0
C331 C 0.68015 0.75674 0.27806 0.0
C332 C 0.75811 0.72884 0.29174 0.0
C333 C 0.71612 0.66841 0.27872 0.0
N334 N 0.62181 0.59686 0.24272 0.0
N335 N 0.78347 0.83378 0.29219 0.0
C336 C 0.65787 0.65282 0.26236 0.0
C337 C 0.74126 0.7741 0.28787 0.0
N338 N 0.57769 0.67725 0.26269 0.0
N339 N 0.81313 0.74244 0.30983 0.0
H340 H 0.77282 0.86819 0.2903 0.0
H341 H 0.82967 0.84951 0.29391 0.0
H342 H 0.82804 0.71108 0.31092 0.0
H343 H 0.84263 0.78371 0.32596 0.0
H344 H 0.54426 0.63217 0.25986 0.0
H345 H 0.56014 0.70623 0.267 0.0
H346 H 0.58099 0.58447 0.22579 0.0
H347 H 0.63583 0.56483 0.2391 0.0
C348 C 0.05364 0.69434 0.56233 0.0
C349 C 0.08557 0.71471 0.60583 0.0
C350 C 0.99465 0.70072 0.64696 0.0
C351 C 0.96182 0.6803 0.60331 0.0
N352 N 0.96742 0.68097 0.51683 0.0
N353 N 0.09271 0.76153 0.68247 0.0
C354 C 0.99361 0.68429 0.56003 0.0
C355 C 0.05796 0.72551 0.6459 0.0
N356 N 0.07988 0.68333 0.52367 0.0
N357 N 0.96645 0.69419 0.68995 0.0
H358 H 0.13943 0.78416 0.68033 0.0
H359 H 0.07565 0.77553 0.71085 0.0
H360 H 0.92053 0.67754 0.69425 0.0
H361 H 0.98884 0.7013 0.72249 0.0
H362 H 0.05623 0.66208 0.49252 0.0
H363 H 0.12448 0.69227 0.52404 0.0
H364 H 0.99025 0.68823 0.48446 0.0
H365 H 0.92544 0.67832 0.51376 0.0
C366 C 0.30198 0.97486 0.95236 0.0
C367 C 0.28948 0.98218 0.00083 0.0
C368 C 0.24209 0.87244 0.00983 0.0
C369 C 0.24485 0.86471 0.95958 0.0
N370 N 0.26359 0.91165 0.88198 0.0
N371 N 0.23136 0.93243 0.07182 0.0
C372 C 0.27068 0.91679 0.93043 0.0
C373 C 0.25474 0.92948 0.02847 0.0
N374 N 0.3458 0.02207 0.92761 0.0
N375 N 0.23021 0.82682 0.04065 0.0
H376 H 0.23644 0.97194 0.08711 0.0
H377 H 0.20068 0.89403 0.09016 0.0
H378 H 0.22362 0.78473 0.03017 0.0
H379 H 0.23403 0.83338 0.07763 0.0
H380 H 0.359 0.0169 0.8933 0.0
H381 H 0.37438 0.06399 0.94329 0.0
H382 H 0.2778 0.94899 0.86011 0.0
H383 H 0.23696 0.87063 0.86446 0.0
C384 C 0.03882 0.31329 0.15017 0.0
C385 C 0.9811 0.30873 0.15392 0.0
C386 C 0.99982 0.33774 0.23884 0.0
C387 C 0.05961 0.34796 0.23386 0.0
N388 N 0.13865 0.3508 0.18459 0.0
N389 N 0.91034 0.32629 0.19957 0.0
C390 C 0.07988 0.3372 0.18941 0.0
C391 C 0.9623 0.32303 0.19777 0.0
N392 N 0.05352 0.29299 0.10952 0.0
N393 N 0.97862 0.3417 0.28302 0.0
H394 H 0.88162 0.31657 0.17041 0.0
H395 H 0.8981 0.34364 0.22881 0.0
H396 H 1.0053 0.35512 0.31375 0.0
H397 H 0.93338 0.32742 0.28991 0.0
H398 H 0.09232 0.28946 0.10595 0.0
H399 H 0.02423 0.27471 0.08044 0.0
H400 H 0.1583 0.3502 0.15202 0.0
H401 H 0.16921 0.36671 0.213 0.0
C402 C 0.75489 0.10835 0.50935 0.0
C403 C 0.73441 0.08027 0.55426 0.0
C404 C 0.68442 0.98067 0.51429 0.0
C405 C 0.70548 0.00892 0.4696 0.0
N406 N 0.77794 0.09668 0.42711 0.0
N407 N 0.69726 0.98961 0.60034 0.0
C408 C 0.74655 0.07185 0.46809 0.0
C409 C 0.70485 0.01628 0.55697 0.0
N410 N 0.77831 0.16919 0.50507 0.0
N411 N 0.64237 0.92084 0.51617 0.0
H412 H 0.7137 0.01447 0.63205 0.0
H413 H 0.68084 0.94352 0.60414 0.0
H414 H 0.62623 0.89307 0.48592 0.0
H415 H 0.62029 0.8998 0.54754 0.0
H416 H 0.78739 0.19046 0.47216 0.0
H417 H 0.78356 0.19794 0.53372 0.0
H418 H 0.81241 0.14137 0.42518 0.0
H419 H 0.77414 0.07074 0.39671 0.0
C420 C 0.76228 0.71957 0.8736 0.0
C421 C 0.71973 0.73916 0.8824 0.0
C422 C 0.71233 0.74958 0.79591 0.0
C423 C 0.74544 0.7192 0.78714 0.0
N424 N 0.80059 0.67268 0.8179 0.0
N425 N 0.64982 0.7683 0.85124 0.0
C426 C 0.77113 0.70449 0.82601 0.0
C427 C 0.69438 0.75415 0.84342 0.0
N428 N 0.79435 0.7156 0.91093 0.0
N429 N 0.69801 0.77403 0.75855 0.0
H430 H 0.63399 0.7707 0.88513 0.0
H431 H 0.62491 0.7728 0.82387 0.0
H432 H 0.71111 0.7717 0.72351 0.0
H433 H 0.67892 0.80168 0.7629 0.0
H434 H 0.83004 0.70703 0.90662 0.0
H435 H 0.78902 0.7268 0.94598 0.0
H436 H 0.81362 0.65408 0.84507 0.0
H437 H 0.80876 0.66141 0.78378 0.0
C438 C 0.03107 0.70185 0.11206 0.0
C439 C 0.02149 0.65392 0.08031 0.0
C440 C 0.95174 0.5805 0.13784 0.0
C441 C 0.95672 0.62854 0.16741 0.0
N442 N 0.99346 0.73502 0.17911 0.0
N443 N 0.96385 0.54826 0.05867 0.0
C444 C 0.99441 0.68932 0.1536 0.0
C445 C 0.97944 0.59336 0.09202 0.0
N446 N 0.07659 0.75908 0.10341 0.0
N447 N 0.92271 0.52271 0.15424 0.0
H448 H 0.98218 0.55569 0.02439 0.0
H449 H 0.92858 0.50444 0.06339 0.0
H450 H 0.9026 0.51131 0.18785 0.0
H451 H 0.92351 0.48692 0.13644 0.0
H452 H 0.09012 0.79472 0.12781 0.0
H453 H 0.10457 0.76994 0.07355 0.0
H454 H 0.01496 0.77961 0.16797 0.0
H455 H 0.96663 0.72764 0.20931 0.0
C456 C 0.30315 0.94848 0.42411 0.0
C457 C 0.34994 0.00796 0.41482 0.0
C458 C 0.39411 0.01233 0.49361 0.0
C459 C 0.35145 0.95047 0.50014 0.0
N460 N 0.27253 0.85635 0.46708 0.0
N461 N 0.44448 0.09457 0.43794 0.0
C462 C 0.30771 0.91763 0.46425 0.0
C463 C 0.39655 0.03963 0.44895 0.0
N464 N 0.25322 0.922 0.39538 0.0
N465 N 0.43118 0.04538 0.53051 0.0
H466 H 0.44791 0.11601 0.40571 0.0
H467 H 0.48306 0.11681 0.45905 0.0
H468 H 0.4305 0.02686 0.56363 0.0
H469 H 0.45883 0.09203 0.52977 0.0
H470 H 0.21492 0.88124 0.40333 0.0
H471 H 0.24741 0.94365 0.36625 0.0
H472 H 0.24475 0.82951 0.43929 0.0
H473 H 0.27536 0.83133 0.49502 0.0
C474 C 0.29568 0.24023 0.84344 0.0
C475 C 0.34838 0.27434 0.87141 0.0
C476 C 0.38623 0.35517 0.8121 0.0
C477 C 0.33 0.32475 0.78774 0.0
N478 N 0.2282 0.24115 0.78319 0.0
N479 N 0.44321 0.36532 0.88419 0.0
C480 C 0.28416 0.26758 0.80379 0.0
C481 C 0.39362 0.33205 0.85609 0.0
N482 N 0.25624 0.18182 0.85512 0.0
N483 N 0.43325 0.40505 0.7923 0.0
H484 H 0.45201 0.34829 0.91491 0.0
H485 H 0.47405 0.41058 0.87845 0.0
H486 H 0.42973 0.42271 0.75989 0.0
H487 H 0.4771 0.42582 0.80561 0.0
H488 H 0.2203 0.15242 0.83343 0.0
H489 H 0.26244 0.16097 0.88459 0.0
H490 H 0.19092 0.20308 0.79666 0.0
H491 H 0.21729 0.26013 0.7549 0.0
C492 C 0.12891 0.43037 0.52687 0.0
C493 C 0.11883 0.38598 0.49267 0.0
C494 C 0.18381 0.35916 0.53808 0.0
C495 C 0.20457 0.41376 0.56576 0.0
N496 N 0.2154 0.51349 0.56086 0.0
N497 N 0.11435 0.29223 0.47607 0.0
C498 C 0.18131 0.45269 0.55474 0.0
C499 C 0.13857 0.34454 0.5022 0.0
N500 N 0.09597 0.45908 0.52548 0.0
N501 N 0.21221 0.32587 0.54156 0.0
H502 H 0.08088 0.28257 0.4506 0.0
H503 H 0.12328 0.25722 0.48179 0.0
H504 H 0.25226 0.3407 0.56039 0.0
H505 H 0.20069 0.28703 0.52147 0.0
H506 H 0.10197 0.49248 0.55046 0.0
H507 H 0.05992 0.44507 0.50166 0.0
H508 H 0.20089 0.54337 0.55048 0.0
H509 H 0.26145 0.5342 0.56762 0.0
C510 C 0.84977 0.2064 0.88139 0.0
C511 C 0.8289 0.24301 0.90481 0.0
C512 C 0.74957 0.21045 0.84565 0.0
C513 C 0.77616 0.18378 0.81709 0.0
N514 N 0.86163 0.16746 0.80522 0.0
N515 N 0.77526 0.29807 0.89442 0.0
C516 C 0.82925 0.18473 0.83398 0.0
C517 C 0.78415 0.25104 0.88204 0.0
N518 N 0.8858 0.18895 0.904 0.0
N519 N 0.69257 0.19959 0.83635 0.0
H520 H 0.80331 0.33174 0.91869 0.0
H521 H 0.74466 0.30671 0.87646 0.0
H522 H 0.6655 0.16858 0.81007 0.0
H523 H 0.67099 0.21681 0.85804 0.0
H524 H 0.89532 0.15675 0.88928 0.0
H525 H 0.90214 0.20165 0.93854 0.0
H526 H 0.90437 0.17508 0.81464 0.0
H527 H 0.84841 0.14955 0.77097 0.0
C528 C 0.76862 0.94579 0.19682 0.0
C529 C 0.72533 0.96409 0.20681 0.0
C530 C 0.66777 0.91081 0.1379 0.0
C531 C 0.70837 0.88908 0.12672 0.0
N532 N 0.80935 0.90467 0.13751 0.0
N533 N 0.65818 0.99305 0.17221 0.0
C534 C 0.76299 0.91249 0.15355 0.0
C535 C 0.68595 0.95916 0.17032 0.0
N536 N 0.81404 0.95947 0.22853 0.0
N537 N 0.60856 0.87945 0.12486 0.0
H538 H 0.66935 0.02644 0.19856 0.0
H539 H 0.62919 0.99119 0.14524 0.0
H540 H 0.58819 0.83435 0.11412 0.0
H541 H 0.57781 0.89392 0.13343 0.0
H542 H 0.84288 0.94155 0.22622 0.0
H543 H 0.82235 0.9889 0.2574 0.0
H544 H 0.85138 0.92425 0.1541 0.0
H545 H 0.80815 0.8842 0.10472 0.0
C546 C 0.76593 0.5791 0.44542 0.0
C547 C 0.81464 0.6215 0.41736 0.0
C548 C 0.82749 0.69893 0.47774 0.0
C549 C 0.77313 0.65609 0.50028 0.0
N550 N 0.67901 0.5636 0.49045 0.0
N551 N 0.88657 0.72841 0.40522 0.0
C552 C 0.73763 0.59988 0.47747 0.0
C553 C 0.84392 0.68366 0.43259 0.0
N554 N 0.74995 0.51947 0.44526 0.0
N555 N 0.86504 0.75271 0.49978 0.0
H556 H 0.90389 0.72159 0.37364 0.0
H557 H 0.90244 0.77396 0.41282 0.0
H558 H 0.85346 0.76788 0.53063 0.0
H559 H 0.90897 0.78122 0.48819 0.0
H560 H 0.71542 0.48809 0.46674 0.0
H561 H 0.7764 0.50342 0.42912 0.0
H562 H 0.65147 0.52221 0.47339 0.0
H563 H 0.65746 0.57819 0.51475 0.0
C564 C 0.12591 0.66273 0.78276 0.0
C565 C 0.10739 0.69122 0.81668 0.0
C566 C 0.17427 0.78824 0.77859 0.0
C567 C 0.20208 0.75991 0.75194 0.0
N568 N 0.21718 0.67269 0.75492 0.0
N569 N 0.10663 0.78014 0.84392 0.0
C570 C 0.18121 0.69775 0.76001 0.0
C571 C 0.12793 0.7536 0.81253 0.0
N572 N 0.09861 0.6014 0.78091 0.0
N573 N 0.19396 0.8483 0.77394 0.0
H574 H 0.07096 0.75457 0.86699 0.0
H575 H 0.12424 0.8265 0.84765 0.0
H576 H 0.23627 0.87851 0.76047 0.0
H577 H 0.16941 0.86869 0.78568 0.0
H578 H 0.11387 0.57884 0.75819 0.0
H579 H 0.05943 0.57464 0.80041 0.0
H580 H 0.2633 0.69746 0.74804 0.0
H581 H 0.2633 0.69746 0.74804 0.0
C582 C 0.19228 0.0495 0.16029 0.0
C583 C 0.21008 0.09107 0.19872 0.0
C584 C 0.22428 0.17055 0.14447 0.0
C585 C 0.22344 0.13362 0.10616 0.0
N586 N 0.18283 0.03197 0.07551 0.0
N587 N 0.21219 0.18107 0.22835 0.0
C588 C 0.19794 0.07094 0.1132 0.0
C589 C 0.21403 0.14745 0.19108 0.0
N590 N 0.17375 0.99051 0.16871 0.0
N591 N 0.23863 0.2287 0.13677 0.0
H592 H 0.20396 0.16502 0.26322 0.0
H593 H 0.20396 0.16502 0.26322 0.0
H594 H 0.24617 0.24627 0.10235 0.0
H595 H 0.24172 0.25787 0.16462 0.0
H596 H 0.15961 0.95812 0.14131 0.0
H597 H 0.1704 0.97483 0.20348 0.0
H598 H 0.18669 0.04568 0.04008 0.0
H599 H 0.18669 0.04568 0.04008 0.0
loop_
_geom_bond_atom_site_label_1
_geom_bond_atom_site_label_2
_geom_bond_distance
_geom_bond_site_symmetry_2
_ccdc_geom_bond_type
Mg0 O1 2.028 . S
Mg0 O7 1.986 . S
Mg0 O9 2.114 . S
Mg0 O10 2.251 . S
Mg0 O13 2.010 . S
O1 Mg0 2.028 . S
O1 C4 1.250 . S
O2 Mg3 2.028 . S
O2 C4 1.248 . S
Mg3 O2 2.028 . S
Mg3 O8 2.032 . S
Mg3 O10 2.079 . S
C4 O1 1.250 . S
C4 O2 1.248 . S
C5 O6 1.264 . S
C5 O13 1.249 . S
O6 C5 1.264 . S
O7 Mg0 1.986 . S
O7 C11 1.246 . S
O8 Mg3 2.032 . S
O8 C11 1.259 . S
O9 Mg0 2.114 . S
O9 C12 1.252 . S
O10 Mg0 2.251 . S
O10 Mg3 2.079 . S
O10 C12 1.273 . S
C11 O7 1.246 . S
C11 O8 1.259 . S
C12 O9 1.252 . S
C12 O10 1.273 . S
O13 Mg0 2.010 . S
O13 C5 1.249 . S
Mg14 O15 2.028 . S
Mg14 O21 1.986 . S
Mg14 O23 2.114 . S
Mg14 O24 2.251 . S
Mg14 O27 2.010 . S
O15 Mg14 2.028 . S
O15 C18 1.250 . S
O16 Mg17 2.028 . S
O16 C18 1.248 . S
Mg17 O16 2.028 . S
Mg17 O22 2.032 . S
Mg17 O24 2.079 . S
C18 O15 1.250 . S
C18 O16 1.248 . S
C19 O20 1.264 . S
C19 O27 1.249 . S
O20 C19 1.264 . S
O21 Mg14 1.986 . S
O21 C25 1.246 . S
O22 Mg17 2.032 . S
O22 C25 1.259 . S
O23 Mg14 2.114 . S
O23 C26 1.252 . S
O24 Mg14 2.251 . S
O24 Mg17 2.079 . S
O24 C26 1.273 . S
C25 O21 1.246 . S
C25 O22 1.259 . S
C26 O23 1.252 . S
C26 O24 1.273 . S
O27 Mg14 2.010 . S
O27 C19 1.249 . S
Mg28 O29 2.028 1_554 S
Mg28 O35 1.986 1_554 S
Mg28 O37 2.114 . S
Mg28 O38 2.251 . S
Mg28 O41 2.010 1_554 S
O29 Mg28 2.028 1_556 S
O29 C32 1.242 1_556 S
O30 Mg31 2.028 . S
O30 C32 1.265 . S
Mg31 O30 2.028 . S
Mg31 O36 2.032 . S
Mg31 O38 2.079 . S
C32 O29 1.242 1_554 S
C32 O30 1.265 . S
C33 O34 1.264 . S
C33 O41 1.249 . S
O34 C33 1.264 . S
O35 Mg28 1.986 1_556 S
O35 C39 1.246 . S
O36 Mg31 2.032 . S
O36 C39 1.259 1_554 S
O37 Mg28 2.114 . S
O37 C40 1.252 . S
O38 Mg28 2.251 . S
O38 Mg31 2.079 . S
O38 C40 1.273 . S
C39 O35 1.246 . S
C39 O36 1.259 1_556 S
C40 O37 1.252 . S
C40 O38 1.273 . S
O41 Mg28 2.010 1_556 S
O41 C33 1.249 . S
Mg42 O43 2.028 . S
Mg42 O49 1.986 . S
Mg42 O51 2.114 . S
Mg42 O52 2.251 . S
Mg42 O55 2.010 . S
O43 Mg42 2.028 . S
O43 C46 1.250 . S
O44 Mg45 2.028 . S
O44 C46 1.248 . S
Mg45 O44 2.028 . S
Mg45 O50 2.032 . S
Mg45 O52 2.079 . S
C46 O43 1.250 . S
C46 O44 1.248 . S
C47 O48 1.264 . S
C47 O55 1.249 . S
O48 C47 1.264 . S
O49 Mg42 1.986 . S
O49 C53 1.246 . S
O50 Mg45 2.032 . S
O50 C53 1.259 . S
O51 Mg42 2.114 . S
O51 C54 1.252 . S
O52 Mg42 2.251 . S
O52 Mg45 2.079 . S
O52 C54 1.273 . S
C53 O49 1.246 . S
C53 O50 1.259 . S
C54 O51 1.252 . S
C54 O52 1.273 . S
O55 Mg42 2.010 . S
O55 C47 1.249 . S
Mg56 O57 2.028 . S
Mg56 O63 1.986 . S
Mg56 O65 2.114 . S
Mg56 O66 2.251 . S
Mg56 O69 2.010 . S
O57 Mg56 2.028 . S
O57 C60 1.250 . S
O58 Mg59 2.028 . S
O58 C60 1.248 . S
Mg59 O58 2.028 . S
Mg59 O64 2.032 . S
Mg59 O66 2.079 . S
C60 O57 1.250 . S
C60 O58 1.248 . S
C61 O62 1.264 . S
C61 O69 1.249 . S
O62 C61 1.264 . S
O63 Mg56 1.986 . S
O63 C67 1.246 . S
O64 Mg59 2.032 . S
O64 C67 1.259 . S
O65 Mg56 2.114 . S
O65 C68 1.252 . S
O66 Mg56 2.251 . S
O66 Mg59 2.079 . S
O66 C68 1.273 . S
C67 O63 1.246 . S
C67 O64 1.259 . S
C68 O65 1.252 . S
C68 O66 1.273 . S
O69 Mg56 2.010 . S
O69 C61 1.249 . S
Mg70 O71 2.028 1_554 S
Mg70 O77 1.986 1_554 S
Mg70 O79 2.114 . S
Mg70 O80 2.251 . S
Mg70 O83 2.010 1_554 S
O71 Mg70 2.028 1_556 S
O71 C74 1.242 1_556 S
O72 Mg73 2.028 . S
O72 C74 1.265 . S
Mg73 O72 2.028 . S
Mg73 O78 2.032 . S
Mg73 O80 2.079 . S
C74 O71 1.242 1_554 S
C74 O72 1.265 . S
C75 O76 1.264 . S
C75 O83 1.249 . S
O76 C75 1.264 . S
O77 Mg70 1.986 1_556 S
O77 C81 1.246 . S
O78 Mg73 2.032 . S
O78 C81 1.259 1_554 S
O79 Mg70 2.114 . S
O79 C82 1.252 . S
O80 Mg70 2.251 . S
O80 Mg73 2.079 . S
O80 C82 1.273 . S
C81 O77 1.246 . S
C81 O78 1.259 1_556 S
C82 O79 1.252 . S
C82 O80 1.273 . S
O83 Mg70 2.010 1_556 S
O83 C75 1.249 . S
Mg84 O85 2.028 . S
Mg84 O91 1.986 . S
Mg84 O93 2.114 . S
Mg84 O94 2.251 . S
Mg84 O97 2.010 . S
O85 Mg84 2.028 . S
O85 C88 1.250 . S
O86 Mg87 2.028 . S
O86 C88 1.248 . S
Mg87 O86 2.028 . S
Mg87 O92 2.032 . S
Mg87 O94 2.079 . S
C88 O85 1.250 . S
C88 O86 1.248 . S
C89 O90 1.264 . S
C89 O97 1.249 . S
O90 C89 1.264 . S
O91 Mg84 1.986 . S
O91 C95 1.246 . S
O92 Mg87 2.032 . S
O92 C95 1.259 . S
O93 Mg84 2.114 . S
O93 C96 1.252 . S
O94 Mg84 2.251 . S
O94 Mg87 2.079 . S
O94 C96 1.273 . S
C95 O91 1.246 . S
C95 O92 1.259 . S
C96 O93 1.252 . S
C96 O94 1.273 . S
O97 Mg84 2.010 . S
O97 C89 1.249 . S
Mg98 O99 2.028 . S
Mg98 O105 1.986 . S
Mg98 O107 2.114 . S
Mg98 O108 2.251 . S
Mg98 O111 2.010 . S
O99 Mg98 2.028 . S
O99 C102 1.250 . S
O100 Mg101 2.028 . S
O100 C102 1.248 . S
Mg101 O100 2.028 . S
Mg101 O106 2.032 . S
Mg101 O108 2.079 . S
C102 O99 1.250 . S
C102 O100 1.248 . S
C103 O104 1.264 . S
C103 O111 1.249 . S
O104 C103 1.264 . S
O105 Mg98 1.986 . S
O105 C109 1.246 . S
O106 Mg101 2.032 . S
O106 C109 1.259 . S
O107 Mg98 2.114 . S
O107 C110 1.252 . S
O108 Mg98 2.251 . S
O108 Mg101 2.079 . S
O108 C110 1.273 . S
C109 O105 1.246 . S
C109 O106 1.259 . S
C110 O107 1.252 . S
C110 O108 1.273 . S
O111 Mg98 2.010 . S
O111 C103 1.249 . S
Mg112 O113 2.028 1_556 S
Mg112 O119 1.986 1_556 S
Mg112 O121 2.114 . S
Mg112 O122 2.251 . S
Mg112 O125 2.010 1_556 S
O113 Mg112 2.028 1_554 S
O113 C116 1.250 1_554 S
O114 Mg115 2.028 . S
O114 C116 1.248 . S
Mg115 O114 2.028 . S
Mg115 O120 2.032 . S
Mg115 O122 2.079 . S
C116 O113 1.250 1_556 S
C116 O114 1.248 . S
C117 O118 1.264 . S
C117 O125 1.249 . S
O118 C117 1.264 . S
O119 Mg112 1.986 1_554 S
O119 C123 1.246 . S
O120 Mg115 2.032 . S
O120 C123 1.259 1_556 S
O121 Mg112 2.114 . S
O121 C124 1.252 . S
O122 Mg112 2.251 . S
O122 Mg115 2.079 . S
O122 C124 1.273 . S
C123 O119 1.246 . S
C123 O120 1.259 1_554 S
C124 O121 1.252 . S
C124 O122 1.273 . S
O125 Mg112 2.010 1_554 S
O125 C117 1.249 . S
Mg126 O127 2.028 . S
Mg126 O133 1.986 . S
Mg126 O135 2.114 . S
Mg126 O136 2.251 . S
Mg126 O139 2.010 . S
O127 Mg126 2.028 . S
O127 C130 1.250 . S
O128 Mg129 2.028 . S
O128 C130 1.248 . S
Mg129 O128 2.028 . S
Mg129 O134 2.032 . S
Mg129 O136 2.079 . S
C130 O127 1.250 . S
C130 O128 1.248 . S
C131 O132 1.264 . S
C131 O139 1.249 . S
O132 C131 1.264 . S
O133 Mg126 1.986 . S
O133 C137 1.246 . S
O134 Mg129 2.032 . S
O134 C137 1.259 . S
O135 Mg126 2.114 . S
O135 C138 1.252 . S
O136 Mg126 2.251 . S
O136 Mg129 2.079 . S
O136 C138 1.273 . S
C137 O133 1.246 . S
C137 O134 1.259 . S
C138 O135 1.252 . S
C138 O136 1.273 . S
O139 Mg126 2.010 . S
O139 C131 1.249 . S
Mg140 O141 2.028 . S
Mg140 O147 1.986 . S
Mg140 O149 2.114 . S
Mg140 O150 2.251 . S
Mg140 O153 2.010 . S
O141 Mg140 2.028 . S
O141 C144 1.250 . S
O142 Mg143 2.028 . S
O142 C144 1.248 . S
Mg143 O142 2.028 . S
Mg143 O148 2.032 . S
Mg143 O150 2.079 . S
C144 O141 1.250 . S
C144 O142 1.248 . S
C145 O146 1.264 . S
C145 O153 1.249 . S
O146 C145 1.264 . S
O147 Mg140 1.986 . S
O147 C151 1.246 . S
O148 Mg143 2.032 . S
O148 C151 1.259 . S
O149 Mg140 2.114 . S
O149 C152 1.252 . S
O150 Mg140 2.251 . S
O150 Mg143 2.079 . S
O150 C152 1.273 . S
C151 O147 1.246 . S
C151 O148 1.259 . S
C152 O149 1.252 . S
C152 O150 1.273 . S
O153 Mg140 2.010 . S
O153 C145 1.249 . S
Mg154 O155 2.028 1_556 S
Mg154 O161 1.986 1_556 S
Mg154 O163 2.114 . S
Mg154 O164 2.251 . S
Mg154 O167 2.010 1_556 S
O155 Mg154 2.028 1_554 S
O155 C158 1.250 1_554 S
O156 Mg157 2.028 . S
O156 C158 1.248 . S
Mg157 O156 2.028 . S
Mg157 O162 2.032 . S
Mg157 O164 2.079 . S
C158 O155 1.250 1_556 S
C158 O156 1.248 . S
C159 O160 1.264 . S
C159 O167 1.249 . S
O160 C159 1.264 . S
O161 Mg154 1.986 1_554 S
O161 C165 1.246 . S
O162 Mg157 2.032 . S
O162 C165 1.259 1_556 S
O163 Mg154 2.114 . S
O163 C166 1.252 . S
O164 Mg154 2.251 . S
O164 Mg157 2.079 . S
O164 C166 1.273 . S
C165 O161 1.246 . S
C165 O162 1.259 1_554 S
C166 O163 1.252 . S
C166 O164 1.273 . S
O167 Mg154 2.010 1_554 S
O167 C159 1.249 . S
C168 C169 1.363 . S
C168 C174 1.379 . S
C168 N176 1.356 . S
C169 C168 1.363 . S
C169 C175 1.363 . S
C170 C171 1.363 . S
C170 C175 1.379 . S
C170 N177 1.356 . S
C171 C170 1.363 . S
C171 C174 1.363 . S
N172 C174 1.356 . S
N172 H184 0.984 . S
N172 H185 0.985 . S
N173 C175 1.356 . S
N173 H178 0.984 . S
N173 H179 0.985 . S
C174 C168 1.379 . S
C174 C171 1.363 . S
C174 N172 1.356 . S
C175 C169 1.363 . S
C175 C170 1.379 . S
C175 N173 1.356 . S
N176 C168 1.356 . S
N176 H182 0.984 . S
N176 H183 0.984 . S
N177 C170 1.356 . S
N177 H180 0.984 . S
N177 H181 0.985 . S
H178 N173 0.984 . S
H179 N173 0.985 . S
H180 N177 0.984 . S
H181 N177 0.985 . S
H182 N176 0.984 . S
H183 N176 0.984 . S
H184 N172 0.984 . S
H185 N172 0.985 . S
C186 C187 1.363 . S
C186 C192 1.379 . S
C186 N194 1.356 . S
C187 C186 1.363 . S
C187 C193 1.363 . S
C188 C189 1.363 . S
C188 C193 1.379 . S
C188 N195 1.356 . S
C189 C188 1.363 . S
C189 C192 1.363 . S
N190 C192 1.356 . S
N190 H202 0.984 . S
N190 H203 0.985 . S
N191 C193 1.356 . S
N191 H196 0.984 . S
N191 H197 0.985 . S
C192 C186 1.379 . S
C192 C189 1.363 . S
C192 N190 1.356 . S
C193 C187 1.363 . S
C193 C188 1.379 . S
C193 N191 1.356 . S
N194 C186 1.356 . S
N194 H200 0.984 . S
N194 H201 0.984 . S
N195 C188 1.356 . S
N195 H198 0.984 . S
N195 H199 0.985 . S
H196 N191 0.984 . S
H197 N191 0.985 . S
H198 N195 0.984 . S
H199 N195 0.985 . S
H200 N194 0.984 . S
H201 N194 0.984 . S
H202 N190 0.984 . S
H203 N190 0.985 . S
C204 C205 1.363 1_554 S
C204 C210 1.379 . S
C204 N212 1.356 . S
C205 C204 1.363 1_556 S
C205 C211 1.363 . S
C206 C207 1.363 1_556 S
C206 C211 1.379 . S
C206 N213 1.356 . S
C207 C206 1.363 1_554 S
C207 C210 1.363 . S
N208 C210 1.356 . S
N208 H220 0.984 . S
N208 H221 0.985 . S
N209 C211 1.356 . S
N209 H214 0.984 . S
N209 H215 0.985 . S
C210 C204 1.379 . S
C210 C207 1.363 . S
C210 N208 1.356 . S
C211 C205 1.363 . S
C211 C206 1.379 . S
C211 N209 1.356 . S
N212 C204 1.356 . S
N212 H218 0.984 . S
N212 H219 0.984 . S
N213 C206 1.356 . S
N213 H216 0.984 . S
N213 H217 0.985 . S
H214 N209 0.984 . S
H215 N209 0.985 . S
H216 N213 0.984 . S
H217 N213 0.985 . S
H218 N212 0.984 . S
H219 N212 0.984 . S
H220 N208 0.984 . S
H221 N208 0.985 . S
C222 C223 1.363 . S
C222 C228 1.379 . S
C222 N230 1.356 . S
C223 C222 1.363 . S
C223 C229 1.363 . S
C224 C225 1.363 . S
C224 C229 1.379 . S
C224 N231 1.356 . S
C225 C224 1.363 . S
C225 C228 1.363 . S
N226 C228 1.356 . S
N226 H238 0.984 . S
N226 H239 0.985 . S
N227 C229 1.356 . S
N227 H232 0.984 . S
N227 H233 0.985 . S
C228 C222 1.379 . S
C228 C225 1.363 . S
C228 N226 1.356 . S
C229 C223 1.363 . S
C229 C224 1.379 . S
C229 N227 1.356 . S
N230 C222 1.356 . S
N230 H236 0.984 . S
N230 H237 0.984 . S
N231 C224 1.356 . S
N231 H234 0.984 . S
N231 H235 0.985 . S
H232 N227 0.984 . S
H233 N227 0.985 . S
H234 N231 0.984 . S
H235 N231 0.985 . S
H236 N230 0.984 . S
H237 N230 0.984 . S
H238 N226 0.984 . S
H239 N226 0.985 . S
C240 C241 1.363 . S
C240 C246 1.379 . S
C240 N248 1.356 . S
C241 C240 1.363 . S
C241 C247 1.363 . S
C242 C243 1.363 . S
C242 C247 1.379 . S
C242 N249 1.356 . S
C243 C242 1.363 . S
C243 C246 1.363 . S
N244 C246 1.356 . S
N244 H256 0.984 . S
N244 H257 0.985 . S
N245 C247 1.356 . S
N245 H250 0.984 . S
N245 H251 0.985 . S
C246 C240 1.379 . S
C246 C243 1.363 . S
C246 N244 1.356 . S
C247 C241 1.363 . S
C247 C242 1.379 . S
C247 N245 1.356 . S
N248 C240 1.356 . S
N248 H254 0.984 . S
N248 H255 0.984 . S
N249 C242 1.356 . S
N249 H252 0.984 . S
N249 H253 0.985 . S
H250 N245 0.984 . S
H251 N245 0.985 . S
H252 N249 0.984 . S
H253 N249 0.985 . S
H254 N248 0.984 . S
H255 N248 0.984 . S
H256 N244 0.984 . S
H257 N244 0.985 . S
C258 C259 1.363 1_556 S
C258 C264 1.379 . S
C258 N266 1.356 . S
C259 C258 1.363 1_554 S
C259 C265 1.363 . S
C260 C261 1.363 1_554 S
C260 C265 1.379 . S
C260 N267 1.356 . S
C261 C260 1.363 1_556 S
C261 C264 1.363 . S
N262 C264 1.356 . S
N262 H274 0.984 . S
N262 H275 0.985 . S
N263 C265 1.356 . S
N263 H268 0.984 . S
N263 H269 0.985 . S
C264 C258 1.379 . S
C264 C261 1.363 . S
C264 N262 1.356 . S
C265 C259 1.363 . S
C265 C260 1.379 . S
C265 N263 1.356 . S
N266 C258 1.356 . S
N266 H272 0.984 . S
N266 H273 0.984 . S
N267 C260 1.356 . S
N267 H270 0.984 . S
N267 H271 0.985 . S
H268 N263 0.984 . S
H269 N263 0.985 . S
H270 N267 0.984 . S
H271 N267 0.985 . S
H272 N266 0.984 . S
H273 N266 0.984 . S
H274 N262 0.984 . S
H275 N262 0.985 . S
C276 C277 1.363 . S
C276 C282 1.379 . S
C276 N284 1.356 . S
C277 C276 1.363 . S
C277 C283 1.363 . S
C278 C279 1.363 . S
C278 C283 1.379 . S
C278 N285 1.356 . S
C279 C278 1.363 . S
C279 C282 1.363 . S
N280 C282 1.356 . S
N280 H292 0.984 . S
N280 H293 0.985 . S
N281 C283 1.356 . S
N281 H286 0.984 . S
N281 H287 0.985 . S
C282 C276 1.379 . S
C282 C279 1.363 . S
C282 N280 1.356 . S
C283 C277 1.363 . S
C283 C278 1.379 . S
C283 N281 1.356 . S
N284 C276 1.356 . S
N284 H290 0.984 . S
N284 H291 0.984 . S
N285 C278 1.356 . S
N285 H288 0.984 . S
N285 H289 0.985 . S
H286 N281 0.984 . S
H287 N281 0.985 . S
H288 N285 0.984 . S
H289 N285 0.985 . S
H290 N284 0.984 . S
H291 N284 0.984 . S
H292 N280 0.984 . S
H293 N280 0.985 . S
C294 C295 1.363 . S
C294 C300 1.379 1_655 S
C294 N302 1.356 . S
C295 C294 1.363 . S
C295 C301 1.363 . S
C296 C297 1.363 . S
C296 C301 1.379 1_455 S
C296 N303 1.356 . S
C297 C296 1.363 . S
C297 C300 1.363 . S
N298 C300 1.356 . S
N298 H310 0.984 . S
N298 H311 0.985 . S
N299 C301 1.356 . S
N299 H304 0.984 . S
N299 H305 0.985 . S
C300 C294 1.379 1_455 S
C300 C297 1.363 . S
C300 N298 1.356 . S
C301 C295 1.363 . S
C301 C296 1.379 1_655 S
C301 N299 1.356 . S
N302 C294 1.356 . S
N302 H308 0.984 . S
N302 H309 0.984 . S
N303 C296 1.356 . S
N303 H306 0.984 . S
N303 H307 0.985 . S
H304 N299 0.984 . S
H305 N299 0.985 . S
H306 N303 0.984 . S
H307 N303 0.985 . S
H308 N302 0.984 . S
H309 N302 0.984 . S
H310 N298 0.984 . S
H311 N298 0.985 . S
C312 C313 1.363 1_556 S
C312 C318 1.379 1_545 S
C312 N320 1.356 . S
C313 C312 1.363 1_554 S
C313 C319 1.363 . S
C314 C315 1.363 1_554 S
C314 C319 1.379 1_565 S
C314 N321 1.356 . S
C315 C314 1.363 1_556 S
C315 C318 1.363 . S
N316 C318 1.356 . S
N316 H328 0.984 . S
N316 H329 0.985 . S
N317 C319 1.356 . S
N317 H322 0.984 . S
N317 H323 0.985 . S
C318 C312 1.379 1_565 S
C318 C315 1.363 . S
C318 N316 1.356 . S
C319 C313 1.363 . S
C319 C314 1.379 1_545 S
C319 N317 1.356 . S
N320 C312 1.356 . S
N320 H326 0.984 . S
N320 H327 0.984 . S
N321 C314 1.356 . S
N321 H324 0.984 . S
N321 H325 0.985 . S
H322 N317 0.984 . S
H323 N317 0.985 . S
H324 N321 0.984 . S
H325 N321 0.985 . S
H326 N320 0.984 . S
H327 N320 0.984 . S
H328 N316 0.984 . S
H329 N316 0.985 . S
C330 C331 1.363 . S
C330 C336 1.379 . S
C330 N338 1.356 . S
C331 C330 1.363 . S
C331 C337 1.363 . S
C332 C333 1.363 . S
C332 C337 1.379 . S
C332 N339 1.356 . S
C333 C332 1.363 . S
C333 C336 1.363 . S
N334 C336 1.356 . S
N334 H346 0.984 . S
N334 H347 0.985 . S
N335 C337 1.356 . S
N335 H340 0.984 . S
N335 H341 0.985 . S
C336 C330 1.379 . S
C336 C333 1.363 . S
C336 N334 1.356 . S
C337 C331 1.363 . S
C337 C332 1.379 . S
C337 N335 1.356 . S
N338 C330 1.356 . S
N338 H344 0.984 . S
N338 H345 0.984 . S
N339 C332 1.356 . S
N339 H342 0.984 . S
N339 H343 0.985 . S
H340 N335 0.984 . S
H341 N335 0.985 . S
H342 N339 0.984 . S
H343 N339 0.985 . S
H344 N338 0.984 . S
H345 N338 0.984 . S
H346 N334 0.984 . S
H347 N334 0.985 . S
C348 C349 1.363 . S
C348 C354 1.379 1_455 S
C348 N356 1.356 . S
C349 C348 1.363 . S
C349 C355 1.363 . S
C350 C351 1.363 . S
C350 C355 1.379 1_655 S
C350 N357 1.356 . S
C351 C350 1.363 . S
C351 C354 1.363 . S
N352 C354 1.356 . S
N352 H364 0.984 . S
N352 H365 0.985 . S
N353 C355 1.356 . S
N353 H358 0.984 . S
N353 H359 0.985 . S
C354 C348 1.379 1_655 S
C354 C351 1.363 . S
C354 N352 1.356 . S
C355 C349 1.363 . S
C355 C350 1.379 1_455 S
C355 N353 1.356 . S
N356 C348 1.356 . S
N356 H362 0.984 . S
N356 H363 0.984 . S
N357 C350 1.356 . S
N357 H360 0.984 . S
N357 H361 0.985 . S
H358 N353 0.984 . S
H359 N353 0.985 . S
H360 N357 0.984 . S
H361 N357 0.985 . S
H362 N356 0.984 . S
H363 N356 0.984 . S
H364 N352 0.984 . S
H365 N352 0.985 . S
C366 C367 1.363 . S
C366 C372 1.379 1_545 S
C366 N374 1.356 . S
C367 C366 1.363 . S
C367 C373 1.363 1_556 S
C368 C369 1.363 . S
C368 C373 1.379 1_565 S
C368 N375 1.356 . S
C369 C368 1.363 . S
C369 C372 1.363 1_554 S
N370 C372 1.356 . S
N370 H382 0.984 . S
N370 H383 0.985 . S
N371 C373 1.356 . S
N371 H376 0.984 . S
N371 H377 0.985 . S
C372 C366 1.379 1_565 S
C372 C369 1.363 1_556 S
C372 N370 1.356 . S
C373 C367 1.363 1_554 S
C373 C368 1.379 1_545 S
C373 N371 1.356 . S
N374 C366 1.356 . S
N374 H380 0.984 . S
N374 H381 0.984 . S
N375 C368 1.356 . S
N375 H378 0.984 . S
N375 H379 0.985 . S
H376 N371 0.984 . S
H377 N371 0.985 . S
H378 N375 0.984 . S
H379 N375 0.985 . S
H380 N374 0.984 . S
H381 N374 0.984 . S
H382 N370 0.984 . S
H383 N370 0.985 . S
C384 C385 1.363 1_455 S
C384 C390 1.379 . S
C384 N392 1.356 . S
C385 C384 1.363 1_655 S
C385 C391 1.363 . S
C386 C387 1.363 1_655 S
C386 C391 1.379 . S
C386 N393 1.356 . S
C387 C386 1.363 1_455 S
C387 C390 1.363 . S
N388 C390 1.356 . S
N388 H400 0.984 . S
N388 H401 0.985 . S
N389 C391 1.356 . S
N389 H394 0.984 . S
N389 H395 0.985 . S
C390 C384 1.379 . S
C390 C387 1.363 . S
C390 N388 1.356 . S
C391 C385 1.363 . S
C391 C386 1.379 . S
C391 N389 1.356 . S
N392 C384 1.356 . S
N392 H398 0.984 . S
N392 H399 0.984 . S
N393 C386 1.356 . S
N393 H396 0.984 . S
N393 H397 0.985 . S
H394 N389 0.984 . S
H395 N389 0.985 . S
H396 N393 0.984 . S
H397 N393 0.985 . S
H398 N392 0.984 . S
H399 N392 0.984 . S
H400 N388 0.984 . S
H401 N388 0.985 . S
C402 C403 1.363 . S
C402 C408 1.379 . S
C402 N410 1.356 . S
C403 C402 1.363 . S
C403 C409 1.363 1_545 S
C404 C405 1.363 . S
C404 C409 1.379 . S
C404 N411 1.356 . S
C405 C404 1.363 . S
C405 C408 1.363 1_565 S
N406 C408 1.356 . S
N406 H418 0.984 . S
N406 H419 0.985 1_545 S
N407 C409 1.356 . S
N407 H412 0.984 1_565 S
N407 H413 0.985 . S
C408 C402 1.379 . S
C408 C405 1.363 1_545 S
C408 N406 1.356 . S
C409 C403 1.363 1_565 S
C409 C404 1.379 . S
C409 N407 1.356 . S
N410 C402 1.356 . S
N410 H416 0.984 . S
N410 H417 0.984 . S
N411 C404 1.356 . S
N411 H414 0.984 . S
N411 H415 0.985 . S
H412 N407 0.984 1_545 S
H413 N407 0.985 . S
H414 N411 0.984 . S
H415 N411 0.985 . S
H416 N410 0.984 . S
H417 N410 0.984 . S
H418 N406 0.984 . S
H419 N406 0.985 1_565 S
C420 C421 1.363 . S
C420 C426 1.379 . S
C420 N428 1.356 . S
C421 C420 1.363 . S
C421 C427 1.363 . S
C422 C423 1.363 . S
C422 C427 1.379 . S
C422 N429 1.356 . S
C423 C422 1.363 . S
C423 C426 1.363 . S
N424 C426 1.356 . S
N424 H436 0.984 . S
N424 H437 0.985 . S
N425 C427 1.356 . S
N425 H430 0.984 . S
N425 H431 0.985 . S
C426 C420 1.379 . S
C426 C423 1.363 . S
C426 N424 1.356 . S
C427 C421 1.363 . S
C427 C422 1.379 . S
C427 N425 1.356 . S
N428 C420 1.356 . S
N428 H434 0.984 . S
N428 H435 0.984 . S
N429 C422 1.356 . S
N429 H432 0.984 . S
N429 H433 0.985 . S
H430 N425 0.984 . S
H431 N425 0.985 . S
H432 N429 0.984 . S
H433 N429 0.985 . S
H434 N428 0.984 . S
H435 N428 0.984 . S
H436 N424 0.984 . S
H437 N424 0.985 . S
C438 C439 1.363 . S
C438 C444 1.379 . S
C438 N446 1.356 . S
C439 C438 1.363 . S
C439 C445 1.363 1_455 S
C440 C441 1.363 . S
C440 C445 1.379 . S
C440 N447 1.356 . S
C441 C440 1.363 . S
C441 C444 1.363 1_655 S
N442 C444 1.356 1_655 S
N442 H454 0.984 1_655 S
N442 H455 0.985 . S
N443 C445 1.356 1_455 S
N443 H448 0.984 . S
N443 H449 0.985 1_455 S
C444 C438 1.379 . S
C444 C441 1.363 1_455 S
C444 N442 1.356 1_455 S
C445 C439 1.363 1_655 S
C445 C440 1.379 . S
C445 N443 1.356 1_655 S
N446 C438 1.356 . S
N446 H452 0.984 . S
N446 H453 0.984 . S
N447 C440 1.356 . S
N447 H450 0.984 . S
N447 H451 0.985 . S
H448 N443 0.984 . S
H449 N443 0.985 1_655 S
H450 N447 0.984 . S
H451 N447 0.985 . S
H452 N446 0.984 . S
H453 N446 0.984 . S
H454 N442 0.984 1_455 S
H455 N442 0.985 . S
C456 C457 1.363 1_565 S
C456 C462 1.379 . S
C456 N464 1.356 . S
C457 C456 1.363 1_545 S
C457 C463 1.363 . S
C458 C459 1.363 1_545 S
C458 C463 1.379 . S
C458 N465 1.356 . S
C459 C458 1.363 1_565 S
C459 C462 1.363 . S
N460 C462 1.356 . S
N460 H472 0.984 . S
N460 H473 0.985 . S
N461 C463 1.356 . S
N461 H466 0.984 . S
N461 H467 0.985 . S
C462 C456 1.379 . S
C462 C459 1.363 . S
C462 N460 1.356 . S
C463 C457 1.363 . S
C463 C458 1.379 . S
C463 N461 1.356 . S
N464 C456 1.356 . S
N464 H470 0.984 . S
N464 H471 0.984 1_565 S
N465 C458 1.356 . S
N465 H468 0.984 1_545 S
N465 H469 0.985 . S
H466 N461 0.984 . S
H467 N461 0.985 . S
H468 N465 0.984 1_565 S
H469 N465 0.985 . S
H470 N464 0.984 . S
H471 N464 0.984 1_545 S
H472 N460 0.984 . S
H473 N460 0.985 . S
C474 C475 1.363 . S
C474 C480 1.379 . S
C474 N482 1.356 . S
C475 C474 1.363 . S
C475 C481 1.363 . S
C476 C477 1.363 . S
C476 C481 1.379 . S
C476 N483 1.356 . S
C477 C476 1.363 . S
C477 C480 1.363 . S
N478 C480 1.356 . S
N478 H490 0.984 . S
N478 H491 0.985 . S
N479 C481 1.356 . S
N479 H484 0.984 . S
N479 H485 0.985 . S
C480 C474 1.379 . S
C480 C477 1.363 . S
C480 N478 1.356 . S
C481 C475 1.363 . S
C481 C476 1.379 . S
C481 N479 1.356 . S
N482 C474 1.356 . S
N482 H488 0.984 . S
N482 H489 0.984 . S
N483 C476 1.356 . S
N483 H486 0.984 . S
N483 H487 0.985 . S
H484 N479 0.984 . S
H485 N479 0.985 . S
H486 N483 0.984 . S
H487 N483 0.985 . S
H488 N482 0.984 . S
H489 N482 0.984 . S
H490 N478 0.984 . S
H491 N478 0.985 . S
C492 C493 1.363 . S
C492 C498 1.379 . S
C492 N500 1.356 . S
C493 C492 1.363 . S
C493 C499 1.363 . S
C494 C495 1.363 . S
C494 C499 1.379 . S
C494 N501 1.356 . S
C495 C494 1.363 . S
C495 C498 1.363 . S
N496 C498 1.356 . S
N496 H508 0.984 . S
N496 H509 0.985 . S
N497 C499 1.356 . S
N497 H502 0.984 . S
N497 H503 0.985 . S
C498 C492 1.379 . S
C498 C495 1.363 . S
C498 N496 1.356 . S
C499 C493 1.363 . S
C499 C494 1.379 . S
C499 N497 1.356 . S
N500 C492 1.356 . S
N500 H506 0.984 . S
N500 H507 0.984 . S
N501 C494 1.356 . S
N501 H504 0.984 . S
N501 H505 0.985 . S
H502 N497 0.984 . S
H503 N497 0.985 . S
H504 N501 0.984 . S
H505 N501 0.985 . S
H506 N500 0.984 . S
H507 N500 0.984 . S
H508 N496 0.984 . S
H509 N496 0.985 . S
C510 C511 1.363 . S
C510 C516 1.379 . S
C510 N518 1.356 . S
C511 C510 1.363 . S
C511 C517 1.363 . S
C512 C513 1.363 . S
C512 C517 1.379 . S
C512 N519 1.356 . S
C513 C512 1.363 . S
C513 C516 1.363 . S
N514 C516 1.356 . S
N514 H526 0.984 . S
N514 H527 0.985 . S
N515 C517 1.356 . S
N515 H520 0.984 . S
N515 H521 0.985 . S
C516 C510 1.379 . S
C516 C513 1.363 . S
C516 N514 1.356 . S
C517 C511 1.363 . S
C517 C512 1.379 . S
C517 N515 1.356 . S
N518 C510 1.356 . S
N518 H524 0.984 . S
N518 H525 0.984 . S
N519 C512 1.356 . S
N519 H522 0.984 . S
N519 H523 0.985 . S
H520 N515 0.984 . S
H521 N515 0.985 . S
H522 N519 0.984 . S
H523 N519 0.985 . S
H524 N518 0.984 . S
H525 N518 0.984 . S
H526 N514 0.984 . S
H527 N514 0.985 . S
C528 C529 1.363 . S
C528 C534 1.379 . S
C528 N536 1.356 . S
C529 C528 1.363 . S
C529 C535 1.363 . S
C530 C531 1.363 . S
C530 C535 1.379 . S
C530 N537 1.356 . S
C531 C530 1.363 . S
C531 C534 1.363 . S
N532 C534 1.356 . S
N532 H544 0.984 . S
N532 H545 0.985 . S
N533 C535 1.356 . S
N533 H538 0.984 . S
N533 H539 0.985 . S
C534 C528 1.379 . S
C534 C531 1.363 . S
C534 N532 1.356 . S
C535 C529 1.363 . S
C535 C530 1.379 . S
C535 N533 1.356 . S
N536 C528 1.356 . S
N536 H542 0.984 . S
N536 H543 0.984 . S
N537 C530 1.356 . S
N537 H540 0.984 . S
N537 H541 0.985 . S
H538 N533 0.984 . S
H539 N533 0.985 . S
H540 N537 0.984 . S
H541 N537 0.985 . S
H542 N536 0.984 . S
H543 N536 0.984 . S
H544 N532 0.984 . S
H545 N532 0.985 . S
C546 C547 1.363 . S
C546 C552 1.379 . S
C546 N554 1.356 . S
C547 C546 1.363 . S
C547 C553 1.363 . S
C548 C549 1.363 . S
C548 C553 1.379 . S
C548 N555 1.356 . S
C549 C548 1.363 . S
C549 C552 1.363 . S
N550 C552 1.356 . S
N550 H562 0.984 . S
N550 H563 0.985 . S
N551 C553 1.356 . S
N551 H556 0.984 . S
N551 H557 0.985 . S
C552 C546 1.379 . S
C552 C549 1.363 . S
C552 N550 1.356 . S
C553 C547 1.363 . S
C553 C548 1.379 . S
C553 N551 1.356 . S
N554 C546 1.356 . S
N554 H560 0.984 . S
N554 H561 0.984 . S
N555 C548 1.356 . S
N555 H558 0.984 . S
N555 H559 0.985 . S
H556 N551 0.984 . S
H557 N551 0.985 . S
H558 N555 0.984 . S
H559 N555 0.985 . S
H560 N554 0.984 . S
H561 N554 0.984 . S
H562 N550 0.984 . S
H563 N550 0.985 . S
C564 C565 1.363 . S
C564 C570 1.379 . S
C564 N572 1.356 . S
C565 C564 1.363 . S
C565 C571 1.363 . S
C566 C567 1.363 . S
C566 C571 1.379 . S
C566 N573 1.356 . S
C567 C566 1.363 . S
C567 C570 1.363 . S
N568 C570 1.356 . S
N568 H580 0.984 . S
N568 H581 0.985 . S
N569 C571 1.356 . S
N569 H574 0.984 . S
N569 H575 0.985 . S
C570 C564 1.379 . S
C570 C567 1.363 . S
C570 N568 1.356 . S
C571 C565 1.363 . S
C571 C566 1.379 . S
C571 N569 1.356 . S
N572 C564 1.356 . S
N572 H578 0.984 . S
N572 H579 0.984 . S
N573 C566 1.356 . S
N573 H576 0.984 . S
N573 H577 0.985 . S
H574 N569 0.984 . S
H575 N569 0.985 . S
H576 N573 0.984 . S
H577 N573 0.985 . S
H578 N572 0.984 . S
H579 N572 0.984 . S
H580 N568 0.984 . S
H581 N568 0.985 . S
C582 C583 1.363 . S
C582 C588 1.379 . S
C582 N590 1.356 . S
C583 C582 1.363 . S
C583 C589 1.363 . S
C584 C585 1.363 . S
C584 C589 1.379 . S
C584 N591 1.356 . S
C585 C584 1.363 . S
C585 C588 1.363 . S
N586 C588 1.356 . S
N586 H598 0.984 . S
N586 H599 0.985 . S
N587 C589 1.356 . S
N587 H592 0.984 . S
N587 H593 0.985 . S
C588 C582 1.379 . S
C588 C585 1.363 . S
C588 N586 1.356 . S
C589 C583 1.363 . S
C589 C584 1.379 . S
C589 N587 1.356 . S
N590 C582 1.356 . S
N590 H596 0.984 . S
N590 H597 0.984 . S
N591 C584 1.356 . S
N591 H594 0.984 . S
N591 H595 0.985 . S
H592 N587 0.984 . S
H593 N587 0.985 . S
H594 N591 0.984 . S
H595 N591 0.985 . S
H596 N590 0.984 . S
H597 N590 0.984 . S
H598 N586 0.984 . S
H599 N586 0.985 . S
C169 C11 1.380 . S
C171 C95 1.380 . S
C187 C25 1.380 . S
C189 C109 1.380 . S
C205 C39 1.380 . S
C207 C123 1.380 . S
C223 C137 1.380 . S
C225 C53 1.380 . S
C241 C67 1.380 . S
C243 C151 1.380 . S
C259 C165 1.380 . S
C261 C81 1.380 . S
C277 C4 0.913 . S
C279 C130 0.913 . S
C295 C18 0.913 . S
C297 C144 0.913 . S
C313 C158 0.913 1_554 S
C315 C32 0.906 1_556 S
C331 C88 0.913 . S
C333 C46 0.913 . S
C349 C60 0.913 . S
C351 C102 0.913 . S
C367 C74 0.906 1_556 S
C369 C116 0.913 1_554 S
C385 C159 1.563 . S
C387 C5 1.562 . S
C403 C19 1.563 . S
C405 C89 1.563 . S
C421 C33 1.563 . S
C423 C103 1.563 . S
C439 C117 1.563 . S
C441 C47 1.562 . S
C457 C131 1.563 . S
C459 C61 1.563 . S
C475 C75 1.563 . S
C477 C145 1.563 . S
C493 C12 0.995 . S
C495 C152 0.995 . S
C511 C166 0.995 . S
C513 C26 0.995 . S
C529 C96 0.994 . S
C531 C40 0.994 . S
C547 C54 0.995 . S
C549 C110 0.995 . S
C565 C124 0.995 . S
C567 C68 0.995 . S
C583 C138 0.994 . S
C585 C82 0.994 . S
