# Generated by pormake.
# Topology rac, (4)-cn, num edge types: 1
# Building blocks:
#     Node 0, Type 0, BuildingBlock: TATPOV_clean_sbu_0, # of connection points: 4
#     Node 1, Type 0, BuildingBlock: TATPOV_clean_sbu_0, # of connection points: 4
#     Node 2, Type 0, BuildingBlock: TATPOV_clean_sbu_0, # of connection points: 4
#     Node 3, Type 0, BuildingBlock: TATPOV_clean_sbu_0, # of connection points: 4
#     Node 4, Type 0, BuildingBlock: TATPOV_clean_sbu_0, # of connection points: 4
#     Node 5, Type 0, BuildingBlock: TATPOV_clean_sbu_0, # of connection points: 4
#     Node 6, Type 0, BuildingBlock: TATPOV_clean_sbu_0, # of connection points: 4
#     Node 7, Type 0, BuildingBlock: TATPOV_clean_sbu_0, # of connection points: 4
#     Edge 8, Type (0, 0), BuildingBlock: TEMPAE_clean_linker_10, # of connection points: 2
#     Edge 9, Type (0, 0), BuildingBlock: TEMPAE_clean_linker_10, # of connection points: 2
#     Edge 10, Type (0, 0), BuildingBlock: TEMPAE_clean_linker_10, # of connection points: 2
#     Edge 11, Type (0, 0), BuildingBlock: TEMPAE_clean_linker_10, # of connection points: 2
#     Edge 12, Type (0, 0), BuildingBlock: TEMPAE_clean_linker_10, # of connection points: 2
#     Edge 13, Type (0, 0), BuildingBlock: TEMPAE_clean_linker_10, # of connection points: 2
#     Edge 14, Type (0, 0), BuildingBlock: TEMPAE_clean_linker_10, # of connection points: 2
#     Edge 15, Type (0, 0), BuildingBlock: TEMPAE_clean_linker_10, # of connection points: 2
#     Edge 16, Type (0, 0), BuildingBlock: TEMPAE_clean_linker_10, # of connection points: 2
#     Edge 17, Type (0, 0), BuildingBlock: TEMPAE_clean_linker_10, # of connection points: 2
#     Edge 18, Type (0, 0), BuildingBlock: TEMPAE_clean_linker_10, # of connection points: 2
#     Edge 19, Type (0, 0), BuildingBlock: TEMPAE_clean_linker_10, # of connection points: 2
#     Edge 20, Type (0, 0), BuildingBlock: TEMPAE_clean_linker_10, # of connection points: 2
#     Edge 21, Type (0, 0), BuildingBlock: TEMPAE_clean_linker_10, # of connection points: 2
#     Edge 22, Type (0, 0), BuildingBlock: TEMPAE_clean_linker_10, # of connection points: 2
#     Edge 23, Type (0, 0), BuildingBlock: TEMPAE_clean_linker_10, # of connection points: 2
# Relax obj value: 0.269
# Max RMSD: 0.123
# Mean RMSD: 0.123
data_MOF--net-rac--node1-TATPOV_clean_sbu_0--edge1-TEMPAE_clean_linker_10
_symmetry_space_group_name_H-M    P1
_symmetry_Int_Tables_number       1
_symmetry_cell_setting            triclinic
loop_
_symmetry_equiv_pos_as_xyz
'x, y, z'
_cell_length_a     36.278929
_cell_length_b     20.999448
_cell_length_c     44.585445
_cell_angle_alpha  90.034249
_cell_angle_beta   90.035096
_cell_angle_gamma 89.886648
loop_
_atom_site_label
_atom_site_type_symbol
_atom_site_fract_x
_atom_site_fract_y
_atom_site_fract_z
_atom_type_partial_charge
Zn0 Zn 0.32263 0.23182 0.00437 0.0
Zn1 Zn 0.37508 0.22695 0.04587 0.0
O2 O 0.40165 0.26237 0.00808 0.0
O3 O 0.35823 0.26387 0.97359 0.0
O4 O 0.41214 0.21867 0.07961 0.0
O5 O 0.30795 0.14012 0.00885 0.0
O6 O 0.34399 0.1447 0.04846 0.0
C7 C 0.39089 0.27652 0.98159 0.0
C8 C 0.31243 0.31803 0.05463 0.0
O9 O 0.34342 0.29602 0.06264 0.0
O10 O 0.29701 0.29769 0.03095 0.0
C11 C 0.42238 0.26987 0.09241 0.0
O12 O 0.41472 0.32459 0.07953 0.0
C13 C 0.31937 0.11609 0.03314 0.0
Zn14 Zn 0.11078 0.71891 0.08449 0.0
Zn15 Zn 0.09159 0.71561 0.13781 0.0
O16 O 0.05116 0.66174 0.11617 0.0
O17 O 0.07608 0.6509 0.07147 0.0
O18 O 0.07497 0.72851 0.18052 0.0
O19 O 0.10359 0.81192 0.07597 0.0
O20 O 0.11226 0.80365 0.12439 0.0
C21 C 0.05159 0.63582 0.09027 0.0
C22 C 0.1637 0.66152 0.12478 0.0
O23 O 0.13636 0.65966 0.14255 0.0
O24 O 0.16086 0.69017 0.09985 0.0
C25 C 0.05636 0.68801 0.19532 0.0
O26 O 0.04463 0.63622 0.18184 0.0
C27 C 0.11439 0.83635 0.10033 0.0
Zn28 Zn 0.4021 0.23809 0.43431 0.0
Zn29 Zn 0.41368 0.25177 0.37759 0.0
O30 O 0.44718 0.17768 0.39366 0.0
O31 O 0.44443 0.18017 0.44294 0.0
O32 O 0.42942 0.26283 0.33416 0.0
O33 O 0.4031 0.33022 0.44405 0.0
O34 O 0.40958 0.34377 0.39547 0.0
C35 C 0.45718 0.15595 0.41917 0.0
C36 C 0.34156 0.19789 0.39512 0.0
O37 O 0.36175 0.21866 0.3741 0.0
O38 O 0.35299 0.19933 0.42202 0.0
C39 C 0.41792 0.22198 0.31524 0.0
O40 O 0.39797 0.1739 0.32469 0.0
C41 C 0.40453 0.36704 0.42167 0.0
Zn42 Zn 0.20143 0.84995 0.4691 0.0
Zn43 Zn 0.15302 0.78009 0.44508 0.0
O44 O 0.12772 0.8223 0.48252 0.0
O45 O 0.17466 0.86136 0.50762 0.0
O46 O 0.11569 0.72464 0.42444 0.0
O47 O 0.24241 0.78698 0.46411 0.0
O48 O 0.19907 0.72089 0.44951 0.0
C49 C 0.14039 0.85151 0.50552 0.0
C50 C 0.17465 0.89966 0.41355 0.0
O51 O 0.16008 0.84506 0.41146 0.0
O52 O 0.19224 0.91515 0.43693 0.0
C53 C 0.08712 0.75125 0.41361 0.0
O54 O 0.07899 0.8094 0.42233 0.0
C55 C 0.2329 0.73202 0.45553 0.0
Zn56 Zn 0.5546 0.7435 0.94565 0.0
Zn57 Zn 0.56252 0.76513 0.89091 0.0
O58 O 0.51919 0.70164 0.89933 0.0
O59 O 0.50335 0.70976 0.94661 0.0
O60 O 0.55933 0.78372 0.84647 0.0
O61 O 0.56804 0.82935 0.96035 0.0
O62 O 0.57446 0.85131 0.91249 0.0
C63 C 0.49831 0.68531 0.92105 0.0
C64 C 0.61632 0.67801 0.91656 0.0
O65 O 0.60869 0.71292 0.89418 0.0
O66 O 0.5964 0.67973 0.93993 0.0
C67 C 0.55786 0.7354 0.82928 0.0
O68 O 0.55697 0.6784 0.84141 0.0
C69 C 0.57739 0.86789 0.93999 0.0
Zn70 Zn 0.81576 0.28595 0.01285 0.0
Zn71 Zn 0.84546 0.24576 0.9635 0.0
O72 O 0.88764 0.27198 0.99235 0.0
O73 O 0.86229 0.27827 0.03699 0.0
O74 O 0.86899 0.21622 0.92498 0.0
O75 O 0.77616 0.21912 0.01028 0.0
O76 O 0.80694 0.1761 0.97288 0.0
C77 C 0.89057 0.2821 0.0205 0.0
C78 C 0.80787 0.3727 0.96384 0.0
O79 O 0.8196 0.32523 0.94899 0.0
O80 O 0.80624 0.37022 0.99218 0.0
C81 C 0.88664 0.25695 0.90956 0.0
O82 O 0.89289 0.31338 0.92125 0.0
C83 C 0.77943 0.17588 0.99068 0.0
Zn84 Zn 0.6516 0.70918 0.49589 0.0
Zn85 Zn 0.6181 0.73941 0.54672 0.0
O86 O 0.57847 0.75828 0.51453 0.0
O87 O 0.60655 0.7345 0.47222 0.0
O88 O 0.59447 0.75015 0.58757 0.0
O89 O 0.66586 0.61983 0.5082 0.0
O90 O 0.64769 0.65605 0.55193 0.0
C91 C 0.57901 0.75769 0.48588 0.0
C92 C 0.6816 0.81902 0.52747 0.0
O93 O 0.65432 0.81111 0.54489 0.0
O94 O 0.68756 0.78053 0.50607 0.0
C95 C 0.61747 0.75238 0.60913 0.0
O96 O 0.65282 0.74867 0.60292 0.0
C97 C 0.66449 0.61409 0.53642 0.0
Zn98 Zn 0.9183 0.25913 0.56804 0.0
Zn99 Zn 0.90992 0.22676 0.62336 0.0
O100 O 0.96037 0.19308 0.60901 0.0
O101 O 0.97073 0.2287 0.56356 0.0
O102 O 0.91216 0.21904 0.66839 0.0
O103 O 0.90221 0.35068 0.57147 0.0
O104 O 0.88489 0.31383 0.61525 0.0
C105 C 0.98072 0.1953 0.58575 0.0
C106 C 0.86343 0.15784 0.58167 0.0
O107 O 0.87363 0.16264 0.60886 0.0
O108 O 0.87744 0.19321 0.56159 0.0
C109 C 0.88429 0.23206 0.68455 0.0
O110 O 0.85351 0.24994 0.67145 0.0
C111 C 0.88351 0.35711 0.59523 0.0
C112 C 0.28068 0.0838 0.07601 0.0
C113 C 0.29575 0.0686 0.04793 0.0
C114 C 0.25088 0.0494 0.08771 0.0
C115 C 0.23685 -0.00317 0.0715 0.0
C116 C 0.25369 0.97862 0.04407 0.0
C117 C 0.28233 0.01589 0.03218 0.0
C118 C 0.23286 0.07204 0.11634 0.0
C119 C 0.24066 0.92108 0.02679 0.0
C120 C 0.17707 0.87554 0.11145 0.0
C121 C 0.14243 0.88695 0.09844 0.0
C122 C 0.20796 0.9116 0.10331 0.0
C123 C 0.2038 0.96213 0.08262 0.0
C124 C 0.16828 0.97714 0.07127 0.0
C125 C 0.13813 0.93822 0.07871 0.0
C126 C 0.24543 0.89228 0.11502 0.0
C127 C 0.16241 0.03253 0.05024 0.0
H128 H 0.29036 0.12577 0.0878 0.0
H129 H 0.29366 0.00478 0.0103 0.0
H130 H 0.20444 0.08865 0.11137 0.0
H131 H 0.23056 0.03248 0.13268 0.0
H132 H 0.24827 0.11172 0.12702 0.0
H133 H 0.25946 0.90893 0.00797 0.0
H134 H 0.23849 0.87925 0.04189 0.0
H135 H 0.21282 0.93033 0.01747 0.0
H136 H 0.18074 0.83478 0.12609 0.0
H137 H 0.1115 0.94652 0.06835 0.0
H138 H 0.26002 0.93382 0.12471 0.0
H139 H 0.26249 0.87424 0.09617 0.0
H140 H 0.24365 0.85449 0.13239 0.0
H141 H 0.17626 0.07578 0.05903 0.0
H142 H 0.13269 0.04325 0.04689 0.0
H143 H 0.17479 0.02152 0.0281 0.0
C144 C 0.2522 0.61883 0.44606 0.0
C145 C 0.26168 0.68275 0.45066 0.0
C146 C 0.27945 0.57256 0.44063 0.0
C147 C 0.31705 0.5908 0.43928 0.0
C148 C 0.32675 0.65534 0.44356 0.0
C149 C 0.29902 0.70038 0.44943 0.0
C150 C 0.26803 0.50398 0.43657 0.0
C151 C 0.36639 0.67685 0.44187 0.0
C152 C 0.38428 0.45643 0.45467 0.0
C153 C 0.39135 0.43352 0.42561 0.0
C154 C 0.36164 0.50969 0.4594 0.0
C155 C 0.34614 0.54164 0.43446 0.0
C156 C 0.35612 0.52272 0.40504 0.0
C157 C 0.37857 0.46871 0.40094 0.0
C158 C 0.35191 0.52839 0.49114 0.0
C159 C 0.34093 0.55661 0.37786 0.0
H160 H 0.22347 0.60485 0.44691 0.0
H161 H 0.30665 0.7498 0.4526 0.0
H162 H 0.27729 0.48634 0.41435 0.0
H163 H 0.2815 0.47388 0.45386 0.0
H164 H 0.23771 0.4976 0.43823 0.0
H165 H 0.36923 0.72917 0.44472 0.0
H166 H 0.3829 0.65282 0.4595 0.0
H167 H 0.37842 0.66313 0.41992 0.0
H168 H 0.3943 0.43004 0.47391 0.0
H169 H 0.38389 0.45162 0.37841 0.0
H170 H 0.32254 0.51696 0.49549 0.0
H171 H 0.3553 0.58039 0.49443 0.0
H172 H 0.3691 0.50304 0.50798 0.0
H173 H 0.31124 0.54515 0.37534 0.0
H174 H 0.35541 0.54234 0.35696 0.0
H175 H 0.34319 0.60898 0.38058 0.0
C176 C 0.61252 0.96719 0.92678 0.0
C177 C 0.59947 0.92458 0.94853 0.0
C178 C 0.63992 0.01215 0.93387 0.0
C179 C 0.65523 0.01327 0.96313 0.0
C180 C 0.64088 0.97258 0.98548 0.0
C181 C 0.61282 0.92962 0.97805 0.0
C182 C 0.65358 0.05652 0.90971 0.0
C183 C 0.65677 0.97144 0.01682 0.0
C184 C 0.75383 0.07221 0.97209 0.0
C185 C 0.74829 0.13192 0.98535 0.0
C186 C 0.72376 0.03283 0.96495 0.0
C187 C 0.68732 0.05479 0.97022 0.0
C188 C 0.68164 0.11541 0.98326 0.0
C189 C 0.71218 0.15274 0.99111 0.0
C190 C 0.73097 0.96763 0.9519 0.0
C191 C 0.6433 0.14135 0.98843 0.0
H192 H 0.60239 0.96381 0.90396 0.0
H193 H 0.60309 0.89699 0.99511 0.0
H194 H 0.65455 0.10618 0.9182 0.0
H195 H 0.68204 0.04299 0.90321 0.0
H196 H 0.6359 0.05511 0.88937 0.0
H197 H 0.64156 0.93866 0.03193 0.0
H198 H 0.68602 0.95599 0.0159 0.0
H199 H 0.65627 0.01982 0.02679 0.0
H200 H 0.78168 0.05619 0.96746 0.0
H201 H 0.70769 0.1995 1.00079 0.0
H202 H 0.71836 0.96401 0.9293 0.0
H203 H 0.71796 0.93068 0.96617 0.0
H204 H 0.76088 0.95698 0.95 0.0
H205 H 0.62772 0.14174 0.96699 0.0
H206 H 0.64361 0.19044 0.99772 0.0
H207 H 0.62806 0.11017 0.00417 0.0
C208 C 0.70393 0.51596 0.53644 0.0
C209 C 0.69022 0.56952 0.55154 0.0
C210 C 0.73419 0.48168 0.54782 0.0
C211 C 0.75189 0.50272 0.5744 0.0
C212 C 0.73708 0.55494 0.59047 0.0
C213 C 0.7061 0.58708 0.57909 0.0
C214 C 0.74828 0.42471 0.53059 0.0
C215 C 0.75546 0.57984 0.61851 0.0
C216 C 0.81981 0.38781 0.6104 0.0
C217 C 0.85276 0.40372 0.59565 0.0
C218 C 0.78692 0.42095 0.60454 0.0
C219 C 0.78718 0.47251 0.58414 0.0
C220 C 0.82099 0.49231 0.57124 0.0
C221 C 0.85327 0.45707 0.57678 0.0
C222 C 0.75147 0.39745 0.61835 0.0
C223 C 0.82271 0.54859 0.55025 0.0
H224 H 0.69181 0.50221 0.51518 0.0
H225 H 0.69604 0.62895 0.59075 0.0
H226 H 0.77538 0.43613 0.52043 0.0
H227 H 0.75246 0.38371 0.54592 0.0
H228 H 0.7291 0.4102 0.51241 0.0
H229 H 0.73844 0.61642 0.63005 0.0
H230 H 0.76118 0.54053 0.63445 0.0
H231 H 0.78234 0.60147 0.61249 0.0
H232 H 0.81897 0.34618 0.62475 0.0
H233 H 0.87859 0.46962 0.56533 0.0
H234 H 0.73422 0.37515 0.60068 0.0
H235 H 0.73541 0.43756 0.62793 0.0
H236 H 0.75646 0.36171 0.63627 0.0
H237 H 0.80866 0.53658 0.52888 0.0
H238 H 0.85153 0.56263 0.54512 0.0
H239 H 0.8081 0.59008 0.56012 0.0
C240 C 0.44815 0.214 0.13748 0.0
C241 C 0.4325 0.26854 0.12457 0.0
C242 C 0.45174 0.20849 0.16878 0.0
C243 C 0.43816 0.25774 0.18753 0.0
C244 C 0.42401 0.3142 0.1745 0.0
C245 C 0.42186 0.31925 0.14318 0.0
C246 C 0.46811 0.14843 0.18178 0.0
C247 C 0.40824 0.36716 0.19354 0.0
C248 C 0.39786 0.20766 0.26236 0.0
C249 C 0.42413 0.23048 0.28273 0.0
C250 C 0.40218 0.21642 0.23141 0.0
C251 C 0.43419 0.24703 0.22041 0.0
C252 C 0.46132 0.26887 0.24084 0.0
C253 C 0.45566 0.2613 0.27187 0.0
C254 C 0.37204 0.19401 0.21052 0.0
C255 C 0.49625 0.30007 0.2299 0.0
H256 H 0.45656 0.17484 0.12316 0.0
H257 H 0.40937 0.36134 0.13339 0.0
H258 H 0.4876 0.16 0.20018 0.0
H259 H 0.44585 0.11869 0.19145 0.0
H260 H 0.48283 0.11985 0.16455 0.0
H261 H 0.40238 0.41072 0.18021 0.0
H262 H 0.38211 0.35086 0.20392 0.0
H263 H 0.42738 0.37973 0.212 0.0
H264 H 0.37329 0.18429 0.2707 0.0
H265 H 0.47613 0.27855 0.2876 0.0
H266 H 0.38314 0.15814 0.19464 0.0
H267 H 0.36162 0.23463 0.19702 0.0
H268 H 0.34849 0.17253 0.22277 0.0
H269 H 0.51045 0.26841 0.21364 0.0
H270 H 0.51553 0.31116 0.24854 0.0
H271 H 0.48952 0.34492 0.21795 0.0
C272 C 0.04114 0.75802 0.37185 0.0
C273 C 0.07092 0.72638 0.38539 0.0
C274 C 0.03174 0.74627 0.34179 0.0
C275 C 0.05295 0.70255 0.32483 0.0
C276 C 0.08069 0.66614 0.3392 0.0
C277 C 0.08912 0.67808 0.3694 0.0
C278 C 0.00118 0.78465 0.32755 0.0
C279 C 0.10401 0.61901 0.32199 0.0
C280 C 0.02949 0.65427 0.24473 0.0
C281 C 0.05215 0.6955 0.22821 0.0
C282 C 0.02813 0.65756 0.27623 0.0
C283 C 0.05046 0.7023 0.2915 0.0
C284 C 0.07251 0.74521 0.27486 0.0
C285 C 0.07283 0.74163 0.24348 0.0
C286 C 0.00367 0.61199 0.29315 0.0
C287 C 0.09696 0.79345 0.29024 0.0
H288 H 0.02656 0.79479 0.38416 0.0
H289 H 0.11197 0.65291 0.37968 0.0
H290 H 0.01331 0.82319 0.31372 0.0
H291 H 0.98425 0.75443 0.3125 0.0
H292 H 0.98293 0.80678 0.34465 0.0
H293 H 0.12102 0.58879 0.33708 0.0
H294 H 0.08649 0.58768 0.30795 0.0
H295 H 0.12275 0.64522 0.3067 0.0
H296 H 0.01324 0.61874 0.23309 0.0
H297 H 0.09043 0.77368 0.23095 0.0
H298 H 0.98731 0.63784 0.31032 0.0
H299 H 0.02092 0.57649 0.30511 0.0
H300 H 0.98449 0.58613 0.27802 0.0
H301 H 0.0803 0.82431 0.30522 0.0
H302 H 0.11184 0.82423 0.27402 0.0
H303 H 0.1176 0.76853 0.30441 0.0
C304 C 0.56145 0.68771 0.778 0.0
C305 C 0.56035 0.7422 0.79621 0.0
C306 C 0.56731 0.69234 0.74698 0.0
C307 C 0.57202 0.753 0.73373 0.0
C308 C 0.56929 0.80842 0.75173 0.0
C309 C 0.56358 0.80237 0.7828 0.0
C310 C 0.57016 0.63203 0.72864 0.0
C311 C 0.57388 0.87396 0.73838 0.0
C312 C 0.63161 0.75527 0.6639 0.0
C313 C 0.60527 0.75634 0.64084 0.0
C314 C 0.62108 0.75577 0.69413 0.0
C315 C 0.58321 0.75767 0.70166 0.0
C316 C 0.55641 0.76046 0.67856 0.0
C317 C 0.56776 0.75959 0.64837 0.0
C318 C 0.65057 0.75251 0.71804 0.0
C319 C 0.51579 0.76293 0.68574 0.0
H320 H 0.5588 0.64099 0.78807 0.0
H321 H 0.56257 0.84476 0.79666 0.0
H322 H 0.55154 0.63456 0.70893 0.0
H323 H 0.59869 0.62665 0.72002 0.0
H324 H 0.56314 0.58893 0.74188 0.0
H325 H 0.56718 0.91227 0.75469 0.0
H326 H 0.60279 0.88028 0.73086 0.0
H327 H 0.55597 0.87954 0.71837 0.0
H328 H 0.66067 0.75294 0.65837 0.0
H329 H 0.54723 0.76068 0.63071 0.0
H330 H 0.64749 0.70795 0.73116 0.0
H331 H 0.6475 0.79288 0.73391 0.0
H332 H 0.67883 0.75375 0.70848 0.0
H333 H 0.50739 0.71813 0.69698 0.0
H334 H 0.49858 0.76939 0.66535 0.0
H335 H 0.50998 0.80251 0.70155 0.0
C336 C 0.91915 0.20741 0.73178 0.0
C337 C 0.88691 0.22943 0.71772 0.0
C338 C 0.92235 0.20684 0.76319 0.0
C339 C 0.89269 0.22915 0.78094 0.0
C340 C 0.85989 0.25055 0.7669 0.0
C341 C 0.85737 0.25026 0.7355 0.0
C342 C 0.95763 0.18327 0.77735 0.0
C343 C 0.82766 0.2749 0.78506 0.0
C344 C 0.88255 0.18853 0.86355 0.0
C345 C 0.89363 0.24561 0.87722 0.0
C346 C 0.8837 0.18129 0.83223 0.0
C347 C 0.89612 0.23239 0.81419 0.0
C348 C 0.9092 0.28875 0.82795 0.0
C349 C 0.9079 0.2946 0.85929 0.0
C350 C 0.8699 0.12018 0.8184 0.0
C351 C 0.92275 0.34428 0.80952 0.0
H352 H 0.94207 0.19097 0.71823 0.0
H353 H 0.83236 0.26732 0.72487 0.0
H354 H 0.971 0.22258 0.78991 0.0
H355 H 0.95156 0.14494 0.79373 0.0
H356 H 0.97745 0.16471 0.76048 0.0
H357 H 0.80383 0.28849 0.77075 0.0
H358 H 0.81854 0.23795 0.80119 0.0
H359 H 0.8362 0.31711 0.79832 0.0
H360 H 0.87164 0.15028 0.8772 0.0
H361 H 0.91669 0.33878 0.86961 0.0
H362 H 0.88999 0.10184 0.80174 0.0
H363 H 0.8437 0.12948 0.8063 0.0
H364 H 0.86489 0.08269 0.83548 0.0
H365 H 0.94387 0.32821 0.79319 0.0
H366 H 0.93477 0.38257 0.82365 0.0
H367 H 0.89948 0.36464 0.79648 0.0
C368 C 0.44522 0.34847 0.97401 0.0
C369 C 0.41262 0.32148 0.96289 0.0
C370 C 0.45979 0.40425 0.96129 0.0
C371 C 0.44112 0.434 0.93709 0.0
C372 C 0.41042 0.4035 0.92391 0.0
C373 C 0.39676 0.3473 0.93677 0.0
C374 C 0.49342 0.43415 0.97537 0.0
C375 C 0.38983 0.43322 0.89801 0.0
C376 C 0.44881 0.61395 0.94022 0.0
C377 C 0.47668 0.62574 0.91923 0.0
C378 C 0.43536 0.5521 0.94483 0.0
C379 C 0.45073 0.50055 0.92849 0.0
C380 C 0.47702 0.51278 0.90578 0.0
C381 C 0.48942 0.57542 0.9012 0.0
C382 C 0.40643 0.54144 0.96863 0.0
C383 C 0.49437 0.45935 0.88803 0.0
H384 H 0.45795 0.32872 0.99395 0.0
H385 H 0.3718 0.32657 0.92767 0.0
H386 H 0.51317 0.44948 0.95782 0.0
H387 H 0.48508 0.47717 0.98816 0.0
H388 H 0.50771 0.40097 0.99093 0.0
H389 H 0.3706 0.39901 0.88723 0.0
H390 H 0.37357 0.47443 0.90632 0.0
H391 H 0.40921 0.45133 0.8808 0.0
H392 H 0.43893 0.65263 0.95421 0.0
H393 H 0.51137 0.58394 0.88521 0.0
H394 H 0.41881 0.51542 0.98782 0.0
H395 H 0.3837 0.51171 0.95966 0.0
H396 H 0.39465 0.5869 0.97709 0.0
H397 H 0.51456 0.43394 0.90243 0.0
H398 H 0.50907 0.47724 0.86788 0.0
H399 H 0.47338 0.42418 0.88085 0.0
C400 C 0.0477 0.52082 0.07959 0.0
C401 C 0.02937 0.57884 0.08411 0.0
C402 C 0.02835 0.46575 0.0715 0.0
C403 C 0.98983 0.46933 0.06696 0.0
C404 C 0.97106 0.52779 0.07206 0.0
C405 C 0.9911 0.58194 0.081 0.0
C406 C 0.04927 0.4042 0.0671 0.0
C407 C 0.93006 0.53369 0.06699 0.0
C408 C 0.94372 0.35501 0.01277 0.0
C409 C 0.923 0.31684 0.0323 0.0
C410 C 0.96651 0.40359 0.02381 0.0
C411 C 0.96948 0.41307 0.05517 0.0
C412 C 0.95142 0.37081 0.07502 0.0
C413 C 0.92804 0.3236 0.06335 0.0
C414 C 0.98513 0.4478 1.00184 0.0
C415 C 0.95502 0.37781 0.10859 0.0
H416 H 0.07741 0.51874 0.08223 0.0
H417 H 0.97715 0.62706 0.08439 0.0
H418 H 0.036 0.36523 0.07993 0.0
H419 H 0.04869 0.39042 0.04309 0.0
H420 H 0.07851 0.40809 0.07431 0.0
H421 H 0.91952 0.58199 0.07253 0.0
H422 H 0.92357 0.52327 0.04316 0.0
H423 H 0.91514 0.49829 0.08084 0.0
H424 H 0.93982 0.35058 0.98875 0.0
H425 H 0.91218 0.2942 0.07858 0.0
H426 H 0.01498 0.45151 0.00688 0.0
H427 H 0.97318 0.49628 0.004 0.0
H428 H 0.98182 0.43177 0.97824 0.0
H429 H 0.98437 0.38355 0.11505 0.0
H430 H 0.94348 0.33622 0.12075 0.0
H431 H 0.94013 0.42122 0.11603 0.0
C432 C 0.56453 0.82481 0.44126 0.0
C433 C 0.55331 0.79976 0.46904 0.0
C434 C 0.54765 0.8792 0.42912 0.0
C435 C 0.51793 0.90805 0.44453 0.0
C436 C 0.5038 0.87877 0.47077 0.0
C437 C 0.522 0.82552 0.48298 0.0
C438 C 0.56405 0.90918 0.4014 0.0
C439 C 0.47107 0.90636 0.48715 0.0
C440 C 0.50538 0.08779 0.44272 0.0
C441 C 0.47726 0.09502 0.42151 0.0
C442 C 0.51991 0.02738 0.44936 0.0
C443 C 0.50476 0.97259 0.43544 0.0
C444 C 0.47672 0.97986 0.41358 0.0
C445 C 0.46372 0.04121 0.40651 0.0
C446 C 0.55073 0.02209 0.47202 0.0
C447 C 0.45889 0.92278 0.399 0.0
H448 H 0.58871 0.80552 0.43021 0.0
H449 H 0.51295 0.80633 0.5043 0.0
H450 H 0.54219 0.92268 0.38521 0.0
H451 H 0.57876 0.95344 0.40783 0.0
H452 H 0.5839 0.87694 0.38998 0.0
H453 H 0.45968 0.87249 0.50387 0.0
H454 H 0.47951 0.95034 0.49909 0.0
H455 H 0.44895 0.91955 0.4711 0.0
H456 H 0.51546 0.12938 0.45457 0.0
H457 H 0.44121 0.04671 0.3907 0.0
H458 H 0.57368 0.99317 0.46272 0.0
H459 H 0.54064 -0.0025 0.49242 0.0
H460 H 0.56167 0.06941 0.47868 0.0
H461 H 0.48006 0.8899 0.3899 0.0
H462 H 0.43984 0.93659 0.38059 0.0
H463 H 0.44303 0.89599 0.41611 0.0
C464 C 0.0339 0.15022 0.55689 0.0
C465 C 0.01039 0.14726 0.58179 0.0
C466 C 0.05591 0.09789 0.54875 0.0
C467 C 0.05399 0.04085 0.56567 0.0
C468 C 0.032 0.03881 0.59183 0.0
C469 C 0.01072 0.09222 0.59973 0.0
C470 C 0.07981 0.10259 0.52112 0.0
C471 C 0.029 0.97892 0.61039 0.0
C472 C 0.07815 0.89514 0.51909 0.0
C473 C 0.11555 0.88703 0.5261 0.0
C474 C 0.05698 0.94247 0.53334 0.0
C475 C 0.07369 0.98279 0.55493 0.0
C476 C 0.11046 0.97114 0.56392 0.0
C477 C 0.13082 0.92312 0.54959 0.0
C478 C 0.01748 0.95228 0.52372 0.0
C479 C 0.12932 0.01274 0.58689 0.0
H480 H 0.03389 0.19249 0.54294 0.0
H481 H 0.99246 0.0891 0.6189 0.0
H482 H 0.10841 0.08748 0.52637 0.0
H483 H 0.06915 0.07007 0.50352 0.0
H484 H 0.08052 0.15169 0.51187 0.0
H485 H 0.01439 0.98736 0.63192 0.0
H486 H 0.01362 0.94233 0.59752 0.0
H487 H 0.0567 0.95905 0.61529 0.0
H488 H 0.066 0.86746 0.5011 0.0
H489 H 0.1596 0.91691 0.55547 0.0
H490 H 0.01525 -0.00302 0.51057 0.0
H491 H -0.00069 0.95727 0.54359 0.0
H492 H 0.00723 0.91236 0.50965 0.0
H493 H 0.13457 0.06035 0.577 0.0
H494 H 0.15607 0.99231 0.59435 0.0
H495 H 0.11149 0.01984 0.60681 0.0
C496 C 0.22836 0.63283 0.11344 0.0
C497 C 0.19627 0.62145 0.13001 0.0
C498 C 0.2542 0.58431 0.10907 0.0
C499 C 0.24726 0.52355 0.12144 0.0
C500 C 0.21831 0.5154 0.14231 0.0
C501 C 0.19291 0.56492 0.14643 0.0
C502 C 0.28574 0.59551 0.08767 0.0
C503 C 0.21112 0.45184 0.1569 0.0
C504 C 0.26084 0.39332 0.06434 0.0
C505 C 0.29487 0.36791 0.07294 0.0
C506 C 0.24465 0.44271 0.08069 0.0
C507 C 0.26299 0.46714 0.10632 0.0
C508 C 0.29674 0.44022 0.11581 0.0
C509 C 0.31242 0.39097 0.09887 0.0
C510 C 0.20832 0.46989 0.06994 0.0
C511 C 0.3171 0.46456 0.14303 0.0
H512 H 0.23153 0.67751 0.10153 0.0
H513 H 0.16846 0.55655 0.15984 0.0
H514 H 0.31116 0.57154 0.0957 0.0
H515 H 0.27868 0.57515 0.06542 0.0
H516 H 0.29147 0.64709 0.08475 0.0
H517 H 0.19374 0.45698 0.17726 0.0
H518 H 0.19642 0.42056 0.14079 0.0
H519 H 0.23734 0.42795 0.16311 0.0
H520 H 0.24707 0.37535 0.04449 0.0
H521 H 0.33873 0.37125 0.10577 0.0
H522 H 0.21191 0.5206 0.06361 0.0
H523 H 0.18758 0.46798 0.08818 0.0
H524 H 0.1972 0.44385 0.05022 0.0
H525 H 0.3343 0.50584 0.13644 0.0
H526 H 0.33569 0.42752 0.15248 0.0
H527 H 0.29786 0.48064 0.16084 0.0
C528 C 0.29041 0.12685 0.4096 0.0
C529 C 0.30632 0.16652 0.38812 0.0
C530 C 0.2599 0.08943 0.40267 0.0
C531 C 0.24395 0.0932 0.37359 0.0
C532 C 0.25834 0.13657 0.35235 0.0
C533 C 0.28987 0.17208 0.35972 0.0
C534 C 0.24626 0.04343 0.42629 0.0
C535 C 0.24171 0.14454 0.32157 0.0
C536 C 0.20606 0.93288 0.36796 0.0
C537 C 0.17678 0.94241 0.38782 0.0
C538 C 0.22544 0.98535 0.35675 0.0
C539 C 0.2145 0.0472 0.36576 0.0
C540 C 0.17935 0.05612 0.37872 0.0
C541 C 0.16106 0.00303 0.39052 0.0
C542 C 0.26148 0.97407 0.34078 0.0
C543 C 0.16498 0.12182 0.3857 0.0
H544 H 0.30296 0.12249 0.43158 0.0
H545 H 0.30189 0.20341 0.34307 0.0
H546 H 0.21711 0.05378 0.43193 0.0
H547 H 0.24802 0.99397 0.41769 0.0
H548 H 0.26252 0.04592 0.44738 0.0
H549 H 0.24176 0.19558 0.31502 0.0
H550 H 0.25893 0.11869 0.30496 0.0
H551 H 0.21307 0.12635 0.32018 0.0
H552 H 0.21762 0.88549 0.3654 0.0
H553 H 0.13772 0.01006 0.40536 0.0
H554 H 0.28454 0.979 0.35701 0.0
H555 H 0.26548 0.00976 0.32278 0.0
H556 H 0.26278 0.92561 0.33082 0.0
H557 H 0.17582 0.13742 0.4078 0.0
H558 H 0.1344 0.12198 0.38691 0.0
H559 H 0.17412 0.15659 0.36849 0.0
C560 C 0.64787 0.57968 0.93275 0.0
C561 C 0.64842 0.63562 0.91582 0.0
C562 C 0.67895 0.5407 0.9345 0.0
C563 C 0.71159 0.55902 0.9194 0.0
C564 C 0.71195 0.6143 0.9013 0.0
C565 C 0.68004 0.65195 0.89952 0.0
C566 C 0.67718 0.48117 0.95352 0.0
C567 C 0.74636 0.63556 0.88519 0.0
C568 C 0.78829 0.48588 0.96319 0.0
C569 C 0.792 0.42772 0.94816 0.0
C570 C 0.76554 0.53376 0.95168 0.0
C571 C 0.74557 0.52208 0.92498 0.0
C572 C 0.75271 0.46662 0.90793 0.0
C573 C 0.77623 0.41996 0.9197 0.0
C574 C 0.75958 0.59346 0.96994 0.0
C575 C 0.7322 0.4529 0.8792 0.0
H576 H 0.62314 0.5667 0.94495 0.0
H577 H 0.68034 0.69548 0.88646 0.0
H578 H 0.68687 0.43933 0.9405 0.0
H579 H 0.69559 0.48636 0.97325 0.0
H580 H 0.64885 0.47131 0.96173 0.0
H581 H 0.74008 0.67083 0.86733 0.0
H582 H 0.76534 0.65814 0.90155 0.0
H583 H 0.76109 0.59453 0.87507 0.0
H584 H 0.80135 0.49248 0.98486 0.0
H585 H 0.77954 0.37523 0.90782 0.0
H586 H 0.73319 0.58955 0.98238 0.0
H587 H 0.7577 0.63586 0.95519 0.0
H588 H 0.78209 0.60097 0.98647 0.0
H589 H 0.70423 0.43504 0.88471 0.0
H590 H 0.74649 0.41614 0.86553 0.0
H591 H 0.72886 0.49667 0.86555 0.0
C592 C 0.69551 0.92427 0.55022 0.0
C593 C 0.707 0.87209 0.53297 0.0
C594 C 0.71995 0.97351 0.55716 0.0
C595 C 0.75679 0.9696 0.54702 0.0
C596 C 0.7684 0.91764 0.52913 0.0
C597 C 0.74317 0.8696 0.52207 0.0
C598 C 0.70658 0.02899 0.57582 0.0
C599 C 0.8077 0.91181 0.51828 0.0
C600 C 0.81597 0.11735 0.54626 0.0
C601 C 0.83554 0.11055 0.57319 0.0
C602 C 0.78975 0.07216 0.53762 0.0
C603 C 0.78362 0.01863 0.55614 0.0
C604 C 0.80326 0.01152 0.58335 0.0
C605 C 0.82883 0.05802 0.59171 0.0
C606 C 0.76868 0.08161 0.50872 0.0
C607 C 0.79761 0.95441 0.60342 0.0
H608 H 0.66741 0.9265 0.55842 0.0
H609 H 0.7521 0.82909 0.50884 0.0
H610 H 0.72127 0.02963 0.59765 0.0
H611 H 0.71279 0.07456 0.56432 0.0
H612 H 0.67647 0.02675 0.58023 0.0
H613 H 0.81195 0.86925 0.50387 0.0
H614 H 0.81558 0.95482 0.50539 0.0
H615 H 0.82661 0.90854 0.5378 0.0
H616 H 0.82092 0.15831 0.53204 0.0
H617 H 0.84412 0.05258 0.61246 0.0
H618 H 0.73861 0.08173 0.51326 0.0
H619 H 0.77432 0.04155 0.49315 0.0
H620 H 0.77605 0.12688 0.49734 0.0
H621 H 0.76841 0.95187 0.61067 0.0
H622 H 0.81539 0.95589 0.6237 0.0
H623 H 0.80374 0.91004 0.59083 0.0
loop_
_geom_bond_atom_site_label_1
_geom_bond_atom_site_label_2
_geom_bond_distance
_geom_bond_site_symmetry_2
_ccdc_geom_bond_type
Zn0 O3 2.031 . S
Zn0 O5 2.049 . S
Zn0 O10 2.067 . S
Zn1 O2 1.962 . S
Zn1 O4 1.986 . S
Zn1 O6 1.996 . S
Zn1 O9 1.943 . S
O2 Zn1 1.962 . S
O2 C7 1.254 . S
O3 Zn0 2.031 . S
O3 C7 1.269 . S
O4 Zn1 1.986 . S
O4 C11 1.262 . S
O5 Zn0 2.049 . S
O5 C13 1.260 . S
O6 Zn1 1.996 . S
O6 C13 1.257 . S
C7 O2 1.254 . S
C7 O3 1.269 . S
C8 O9 1.249 . S
C8 O10 1.270 . S
O9 Zn1 1.943 . S
O9 C8 1.249 . S
O10 Zn0 2.067 . S
O10 C8 1.270 . S
C11 O4 1.262 . S
C11 O12 1.232 . S
O12 C11 1.232 . S
C13 O5 1.260 . S
C13 O6 1.257 . S
Zn14 O17 2.031 . S
Zn14 O19 2.049 . S
Zn14 O24 2.067 . S
Zn15 O16 1.962 . S
Zn15 O18 1.986 . S
Zn15 O20 1.996 . S
Zn15 O23 1.943 . S
O16 Zn15 1.962 . S
O16 C21 1.254 . S
O17 Zn14 2.031 . S
O17 C21 1.269 . S
O18 Zn15 1.986 . S
O18 C25 1.262 . S
O19 Zn14 2.049 . S
O19 C27 1.260 . S
O20 Zn15 1.996 . S
O20 C27 1.257 . S
C21 O16 1.254 . S
C21 O17 1.269 . S
C22 O23 1.249 . S
C22 O24 1.270 . S
O23 Zn15 1.943 . S
O23 C22 1.249 . S
O24 Zn14 2.067 . S
O24 C22 1.270 . S
C25 O18 1.262 . S
C25 O26 1.232 . S
O26 C25 1.232 . S
C27 O19 1.260 . S
C27 O20 1.257 . S
Zn28 O31 2.031 . S
Zn28 O33 2.049 . S
Zn28 O38 2.067 . S
Zn29 O30 1.962 . S
Zn29 O32 1.986 . S
Zn29 O34 1.996 . S
Zn29 O37 1.943 . S
O30 Zn29 1.962 . S
O30 C35 1.254 . S
O31 Zn28 2.031 . S
O31 C35 1.269 . S
O32 Zn29 1.986 . S
O32 C39 1.262 . S
O33 Zn28 2.049 . S
O33 C41 1.260 . S
O34 Zn29 1.996 . S
O34 C41 1.257 . S
C35 O30 1.254 . S
C35 O31 1.269 . S
C36 O37 1.249 . S
C36 O38 1.270 . S
O37 Zn29 1.943 . S
O37 C36 1.249 . S
O38 Zn28 2.067 . S
O38 C36 1.270 . S
C39 O32 1.262 . S
C39 O40 1.232 . S
O40 C39 1.232 . S
C41 O33 1.260 . S
C41 O34 1.257 . S
Zn42 O45 2.031 . S
Zn42 O47 2.049 . S
Zn42 O52 2.067 . S
Zn43 O44 1.962 . S
Zn43 O46 1.986 . S
Zn43 O48 1.996 . S
Zn43 O51 1.943 . S
O44 Zn43 1.962 . S
O44 C49 1.254 . S
O45 Zn42 2.031 . S
O45 C49 1.269 . S
O46 Zn43 1.986 . S
O46 C53 1.262 . S
O47 Zn42 2.049 . S
O47 C55 1.260 . S
O48 Zn43 1.996 . S
O48 C55 1.257 . S
C49 O44 1.254 . S
C49 O45 1.269 . S
C50 O51 1.249 . S
C50 O52 1.270 . S
O51 Zn43 1.943 . S
O51 C50 1.249 . S
O52 Zn42 2.067 . S
O52 C50 1.270 . S
C53 O46 1.262 . S
C53 O54 1.232 . S
O54 C53 1.232 . S
C55 O47 1.260 . S
C55 O48 1.257 . S
Zn56 O59 2.031 . S
Zn56 O61 2.049 . S
Zn56 O66 2.067 . S
Zn57 O58 1.962 . S
Zn57 O60 1.986 . S
Zn57 O62 1.996 . S
Zn57 O65 1.943 . S
O58 Zn57 1.962 . S
O58 C63 1.254 . S
O59 Zn56 2.031 . S
O59 C63 1.269 . S
O60 Zn57 1.986 . S
O60 C67 1.262 . S
O61 Zn56 2.049 . S
O61 C69 1.260 . S
O62 Zn57 1.996 . S
O62 C69 1.257 . S
C63 O58 1.254 . S
C63 O59 1.269 . S
C64 O65 1.249 . S
C64 O66 1.270 . S
O65 Zn57 1.943 . S
O65 C64 1.249 . S
O66 Zn56 2.067 . S
O66 C64 1.270 . S
C67 O60 1.262 . S
C67 O68 1.232 . S
O68 C67 1.232 . S
C69 O61 1.260 . S
C69 O62 1.257 . S
Zn70 O73 2.031 . S
Zn70 O75 2.049 . S
Zn70 O80 2.067 . S
Zn71 O72 1.962 . S
Zn71 O74 1.986 . S
Zn71 O76 1.996 . S
Zn71 O79 1.943 . S
O72 Zn71 1.962 . S
O72 C77 1.254 . S
O73 Zn70 2.031 . S
O73 C77 1.269 . S
O74 Zn71 1.986 . S
O74 C81 1.262 . S
O75 Zn70 2.049 . S
O75 C83 1.260 . S
O76 Zn71 1.996 . S
O76 C83 1.257 . S
C77 O72 1.254 . S
C77 O73 1.269 . S
C78 O79 1.249 . S
C78 O80 1.270 . S
O79 Zn71 1.943 . S
O79 C78 1.249 . S
O80 Zn70 2.067 . S
O80 C78 1.270 . S
C81 O74 1.262 . S
C81 O82 1.232 . S
O82 C81 1.232 . S
C83 O75 1.260 . S
C83 O76 1.257 . S
Zn84 O87 2.031 . S
Zn84 O89 2.049 . S
Zn84 O94 2.067 . S
Zn85 O86 1.962 . S
Zn85 O88 1.986 . S
Zn85 O90 1.996 . S
Zn85 O93 1.943 . S
O86 Zn85 1.962 . S
O86 C91 1.254 . S
O87 Zn84 2.031 . S
O87 C91 1.269 . S
O88 Zn85 1.986 . S
O88 C95 1.262 . S
O89 Zn84 2.049 . S
O89 C97 1.260 . S
O90 Zn85 1.996 . S
O90 C97 1.257 . S
C91 O86 1.254 . S
C91 O87 1.269 . S
C92 O93 1.249 . S
C92 O94 1.270 . S
O93 Zn85 1.943 . S
O93 C92 1.249 . S
O94 Zn84 2.067 . S
O94 C92 1.270 . S
C95 O88 1.262 . S
C95 O96 1.232 . S
O96 C95 1.232 . S
C97 O89 1.260 . S
C97 O90 1.257 . S
Zn98 O101 2.031 . S
Zn98 O103 2.049 . S
Zn98 O108 2.067 . S
Zn99 O100 1.962 . S
Zn99 O102 1.986 . S
Zn99 O104 1.996 . S
Zn99 O107 1.943 . S
O100 Zn99 1.962 . S
O100 C105 1.254 . S
O101 Zn98 2.031 . S
O101 C105 1.269 . S
O102 Zn99 1.986 . S
O102 C109 1.262 . S
O103 Zn98 2.049 . S
O103 C111 1.260 . S
O104 Zn99 1.996 . S
O104 C111 1.257 . S
C105 O100 1.254 . S
C105 O101 1.269 . S
C106 O107 1.249 . S
C106 O108 1.270 . S
O107 Zn99 1.943 . S
O107 C106 1.249 . S
O108 Zn98 2.067 . S
O108 C106 1.270 . S
C109 O102 1.262 . S
C109 O110 1.232 . S
O110 C109 1.232 . S
C111 O103 1.260 . S
C111 O104 1.257 . S
C112 C113 1.391 . S
C112 C114 1.394 . S
C112 H128 0.931 . S
C113 C112 1.391 . S
C113 C117 1.376 . S
C114 C112 1.394 . S
C114 C115 1.369 . S
C114 C118 1.531 . S
C115 C114 1.369 . S
C115 C116 1.410 . S
C115 C123 1.503 1_545 S
C116 C115 1.410 . S
C116 C117 1.392 . S
C116 C119 1.511 1_545 S
C117 C113 1.376 . S
C117 C116 1.392 . S
C117 H129 0.929 . S
C118 C114 1.531 . S
C118 H130 0.960 . S
C118 H131 0.962 . S
C118 H132 0.960 . S
C119 C116 1.511 1_565 S
C119 H133 0.961 . S
C119 H134 0.961 . S
C119 H135 0.961 1_554 S
C120 C121 1.370 . S
C120 C122 1.363 . S
C120 H136 0.931 . S
C121 C120 1.370 . S
C121 C125 1.408 . S
C122 C120 1.363 . S
C122 C123 1.370 . S
C122 C126 1.524 . S
C123 C115 1.503 1_565 S
C123 C122 1.370 . S
C123 C124 1.403 . S
C124 C123 1.403 . S
C124 C125 1.404 . S
C124 C127 1.539 1_564 S
C125 C121 1.408 . S
C125 C124 1.404 . S
C125 H137 0.930 . S
C126 C122 1.524 . S
C126 H138 0.956 . S
C126 H139 0.961 . S
C126 H140 0.961 . S
C127 C124 1.539 1_546 S
C127 H141 0.958 . S
C127 H142 0.961 1_545 S
C127 H143 0.960 . S
H128 C112 0.931 . S
H129 C117 0.929 . S
H130 C118 0.960 . S
H131 C118 0.962 . S
H132 C118 0.960 . S
H133 C119 0.961 . S
H134 C119 0.961 . S
H135 C119 0.961 1_556 S
H136 C120 0.931 . S
H137 C125 0.930 . S
H138 C126 0.956 . S
H139 C126 0.961 . S
H140 C126 0.961 . S
H141 C127 0.958 . S
H142 C127 0.961 1_565 S
H143 C127 0.960 . S
C144 C145 1.391 . S
C144 C146 1.394 . S
C144 H160 0.931 . S
C145 C144 1.391 . S
C145 C149 1.376 . S
C146 C144 1.394 . S
C146 C147 1.369 . S
C146 C150 1.531 . S
C147 C146 1.369 . S
C147 C148 1.410 . S
C147 C155 1.503 . S
C148 C147 1.410 . S
C148 C149 1.392 . S
C148 C151 1.511 . S
C149 C145 1.376 . S
C149 C148 1.392 . S
C149 H161 0.929 . S
C150 C146 1.531 . S
C150 H162 0.960 . S
C150 H163 0.962 . S
C150 H164 0.960 . S
C151 C148 1.511 . S
C151 H165 0.961 . S
C151 H166 0.961 . S
C151 H167 0.961 . S
C152 C153 1.370 . S
C152 C154 1.363 . S
C152 H168 0.931 . S
C153 C152 1.370 . S
C153 C157 1.408 . S
C154 C152 1.363 . S
C154 C155 1.370 . S
C154 C158 1.524 . S
C155 C147 1.503 . S
C155 C154 1.370 . S
C155 C156 1.403 . S
C156 C155 1.403 . S
C156 C157 1.404 . S
C156 C159 1.539 . S
C157 C153 1.408 . S
C157 C156 1.404 . S
C157 H169 0.930 . S
C158 C154 1.524 . S
C158 H170 0.956 . S
C158 H171 0.961 . S
C158 H172 0.961 . S
C159 C156 1.539 . S
C159 H173 0.958 . S
C159 H174 0.961 . S
C159 H175 0.960 . S
H160 C144 0.931 . S
H161 C149 0.929 . S
H162 C150 0.960 . S
H163 C150 0.962 . S
H164 C150 0.960 . S
H165 C151 0.961 . S
H166 C151 0.961 . S
H167 C151 0.961 . S
H168 C152 0.931 . S
H169 C157 0.930 . S
H170 C158 0.956 . S
H171 C158 0.961 . S
H172 C158 0.961 . S
H173 C159 0.958 . S
H174 C159 0.961 . S
H175 C159 0.960 . S
C176 C177 1.391 . S
C176 C178 1.398 . S
C176 H192 0.931 . S
C177 C176 1.391 . S
C177 C181 1.376 . S
C178 C176 1.398 . S
C178 C179 1.370 . S
C178 C182 1.525 1_565 S
C179 C178 1.370 . S
C179 C180 1.410 . S
C179 C187 1.503 1_565 S
C180 C179 1.410 . S
C180 C181 1.392 . S
C180 C183 1.511 . S
C181 C177 1.376 . S
C181 C180 1.392 . S
C181 H193 0.929 . S
C182 C178 1.525 1_545 S
C182 H194 0.960 . S
C182 H195 0.962 . S
C182 H196 0.960 . S
C183 C180 1.511 . S
C183 H197 0.961 . S
C183 H198 0.961 . S
C183 H199 0.961 1_556 S
C184 C185 1.370 . S
C184 C186 1.363 . S
C184 H200 0.931 . S
C185 C184 1.370 . S
C185 C189 1.408 . S
C186 C184 1.363 . S
C186 C187 1.370 . S
C186 C190 1.524 1_545 S
C187 C179 1.503 1_545 S
C187 C186 1.370 . S
C187 C188 1.403 . S
C188 C187 1.403 . S
C188 C189 1.404 . S
C188 C191 1.539 1_556 S
C189 C185 1.408 . S
C189 C188 1.404 . S
C189 H201 0.930 . S
C190 C186 1.524 1_565 S
C190 H202 0.956 . S
C190 H203 0.961 . S
C190 H204 0.961 . S
C191 C188 1.539 1_554 S
C191 H205 0.958 1_554 S
C191 H206 0.961 . S
C191 H207 0.960 . S
H192 C176 0.931 . S
H193 C181 0.929 . S
H194 C182 0.960 . S
H195 C182 0.962 . S
H196 C182 0.960 . S
H197 C183 0.961 . S
H198 C183 0.961 . S
H199 C183 0.961 1_554 S
H200 C184 0.931 . S
H201 C189 0.930 . S
H202 C190 0.956 . S
H203 C190 0.961 . S
H204 C190 0.961 . S
H205 C191 0.958 1_556 S
H206 C191 0.961 . S
H207 C191 0.960 . S
C208 C209 1.391 . S
C208 C210 1.394 . S
C208 H224 0.931 . S
C209 C208 1.391 . S
C209 C213 1.376 . S
C210 C208 1.394 . S
C210 C211 1.369 . S
C210 C214 1.531 . S
C211 C210 1.369 . S
C211 C212 1.410 . S
C211 C219 1.503 . S
C212 C211 1.410 . S
C212 C213 1.392 . S
C212 C215 1.511 . S
C213 C209 1.376 . S
C213 C212 1.392 . S
C213 H225 0.929 . S
C214 C210 1.531 . S
C214 H226 0.960 . S
C214 H227 0.962 . S
C214 H228 0.960 . S
C215 C212 1.511 . S
C215 H229 0.961 . S
C215 H230 0.961 . S
C215 H231 0.961 . S
C216 C217 1.370 . S
C216 C218 1.363 . S
C216 H232 0.931 . S
C217 C216 1.370 . S
C217 C221 1.408 . S
C218 C216 1.363 . S
C218 C219 1.370 . S
C218 C222 1.524 . S
C219 C211 1.503 . S
C219 C218 1.370 . S
C219 C220 1.403 . S
C220 C219 1.403 . S
C220 C221 1.404 . S
C220 C223 1.539 . S
C221 C217 1.408 . S
C221 C220 1.404 . S
C221 H233 0.930 . S
C222 C218 1.524 . S
C222 H234 0.956 . S
C222 H235 0.961 . S
C222 H236 0.961 . S
C223 C220 1.539 . S
C223 H237 0.958 . S
C223 H238 0.961 . S
C223 H239 0.960 . S
H224 C208 0.931 . S
H225 C213 0.929 . S
H226 C214 0.960 . S
H227 C214 0.962 . S
H228 C214 0.960 . S
H229 C215 0.961 . S
H230 C215 0.961 . S
H231 C215 0.961 . S
H232 C216 0.931 . S
H233 C221 0.930 . S
H234 C222 0.956 . S
H235 C222 0.961 . S
H236 C222 0.961 . S
H237 C223 0.958 . S
H238 C223 0.961 . S
H239 C223 0.960 . S
C240 C241 1.391 . S
C240 C242 1.394 . S
C240 H256 0.931 . S
C241 C240 1.391 . S
C241 C245 1.376 . S
C242 C240 1.394 . S
C242 C243 1.369 . S
C242 C246 1.531 . S
C243 C242 1.369 . S
C243 C244 1.410 . S
C243 C251 1.503 . S
C244 C243 1.410 . S
C244 C245 1.392 . S
C244 C247 1.511 . S
C245 C241 1.376 . S
C245 C244 1.392 . S
C245 H257 0.929 . S
C246 C242 1.531 . S
C246 H258 0.960 . S
C246 H259 0.962 . S
C246 H260 0.960 . S
C247 C244 1.511 . S
C247 H261 0.961 . S
C247 H262 0.961 . S
C247 H263 0.961 . S
C248 C249 1.370 . S
C248 C250 1.363 . S
C248 H264 0.931 . S
C249 C248 1.370 . S
C249 C253 1.408 . S
C250 C248 1.363 . S
C250 C251 1.370 . S
C250 C254 1.524 . S
C251 C243 1.503 . S
C251 C250 1.370 . S
C251 C252 1.403 . S
C252 C251 1.403 . S
C252 C253 1.404 . S
C252 C255 1.539 . S
C253 C249 1.408 . S
C253 C252 1.404 . S
C253 H265 0.930 . S
C254 C250 1.524 . S
C254 H266 0.956 . S
C254 H267 0.961 . S
C254 H268 0.961 . S
C255 C252 1.539 . S
C255 H269 0.958 . S
C255 H270 0.961 . S
C255 H271 0.960 . S
H256 C240 0.931 . S
H257 C245 0.929 . S
H258 C246 0.960 . S
H259 C246 0.962 . S
H260 C246 0.960 . S
H261 C247 0.961 . S
H262 C247 0.961 . S
H263 C247 0.961 . S
H264 C248 0.931 . S
H265 C253 0.930 . S
H266 C254 0.956 . S
H267 C254 0.961 . S
H268 C254 0.961 . S
H269 C255 0.958 . S
H270 C255 0.961 . S
H271 C255 0.960 . S
C272 C273 1.391 . S
C272 C274 1.394 . S
C272 H288 0.931 . S
C273 C272 1.391 . S
C273 C277 1.376 . S
C274 C272 1.394 . S
C274 C275 1.369 . S
C274 C278 1.531 . S
C275 C274 1.369 . S
C275 C276 1.410 . S
C275 C283 1.503 . S
C276 C275 1.410 . S
C276 C277 1.392 . S
C276 C279 1.511 . S
C277 C273 1.376 . S
C277 C276 1.392 . S
C277 H289 0.929 . S
C278 C274 1.531 . S
C278 H290 0.960 . S
C278 H291 0.962 . S
C278 H292 0.960 . S
C279 C276 1.511 . S
C279 H293 0.961 . S
C279 H294 0.961 . S
C279 H295 0.961 . S
C280 C281 1.370 . S
C280 C282 1.363 . S
C280 H296 0.931 . S
C281 C280 1.370 . S
C281 C285 1.408 . S
C282 C280 1.363 . S
C282 C283 1.370 . S
C282 C286 1.524 . S
C283 C275 1.503 . S
C283 C282 1.370 . S
C283 C284 1.403 . S
C284 C283 1.403 . S
C284 C285 1.404 . S
C284 C287 1.539 . S
C285 C281 1.408 . S
C285 C284 1.404 . S
C285 H297 0.930 . S
C286 C282 1.524 . S
C286 H298 0.956 . S
C286 H299 0.961 . S
C286 H300 0.961 . S
C287 C284 1.539 . S
C287 H301 0.958 . S
C287 H302 0.961 . S
C287 H303 0.960 . S
H288 C272 0.931 . S
H289 C277 0.929 . S
H290 C278 0.960 . S
H291 C278 0.962 . S
H292 C278 0.960 . S
H293 C279 0.961 . S
H294 C279 0.961 . S
H295 C279 0.961 . S
H296 C280 0.931 . S
H297 C285 0.930 . S
H298 C286 0.956 . S
H299 C286 0.961 . S
H300 C286 0.961 . S
H301 C287 0.958 . S
H302 C287 0.961 . S
H303 C287 0.960 . S
C304 C305 1.391 . S
C304 C306 1.394 . S
C304 H320 0.931 . S
C305 C304 1.391 . S
C305 C309 1.376 . S
C306 C304 1.394 . S
C306 C307 1.369 . S
C306 C310 1.531 . S
C307 C306 1.369 . S
C307 C308 1.410 . S
C307 C315 1.503 . S
C308 C307 1.410 . S
C308 C309 1.392 . S
C308 C311 1.511 . S
C309 C305 1.376 . S
C309 C308 1.392 . S
C309 H321 0.929 . S
C310 C306 1.531 . S
C310 H322 0.960 . S
C310 H323 0.962 . S
C310 H324 0.960 . S
C311 C308 1.511 . S
C311 H325 0.961 . S
C311 H326 0.961 . S
C311 H327 0.961 . S
C312 C313 1.370 . S
C312 C314 1.363 . S
C312 H328 0.931 . S
C313 C312 1.370 . S
C313 C317 1.408 . S
C314 C312 1.363 . S
C314 C315 1.370 . S
C314 C318 1.524 . S
C315 C307 1.503 . S
C315 C314 1.370 . S
C315 C316 1.403 . S
C316 C315 1.403 . S
C316 C317 1.404 . S
C316 C319 1.539 . S
C317 C313 1.408 . S
C317 C316 1.404 . S
C317 H329 0.930 . S
C318 C314 1.524 . S
C318 H330 0.956 . S
C318 H331 0.961 . S
C318 H332 0.961 . S
C319 C316 1.539 . S
C319 H333 0.958 . S
C319 H334 0.961 . S
C319 H335 0.960 . S
H320 C304 0.931 . S
H321 C309 0.929 . S
H322 C310 0.960 . S
H323 C310 0.962 . S
H324 C310 0.960 . S
H325 C311 0.961 . S
H326 C311 0.961 . S
H327 C311 0.961 . S
H328 C312 0.931 . S
H329 C317 0.930 . S
H330 C318 0.956 . S
H331 C318 0.961 . S
H332 C318 0.961 . S
H333 C319 0.958 . S
H334 C319 0.961 . S
H335 C319 0.960 . S
C336 C337 1.391 . S
C336 C338 1.394 . S
C336 H352 0.931 . S
C337 C336 1.391 . S
C337 C341 1.376 . S
C338 C336 1.394 . S
C338 C339 1.369 . S
C338 C342 1.531 . S
C339 C338 1.369 . S
C339 C340 1.410 . S
C339 C347 1.503 . S
C340 C339 1.410 . S
C340 C341 1.392 . S
C340 C343 1.511 . S
C341 C337 1.376 . S
C341 C340 1.392 . S
C341 H353 0.929 . S
C342 C338 1.531 . S
C342 H354 0.960 . S
C342 H355 0.962 . S
C342 H356 0.960 . S
C343 C340 1.511 . S
C343 H357 0.961 . S
C343 H358 0.961 . S
C343 H359 0.961 . S
C344 C345 1.370 . S
C344 C346 1.363 . S
C344 H360 0.931 . S
C345 C344 1.370 . S
C345 C349 1.408 . S
C346 C344 1.363 . S
C346 C347 1.370 . S
C346 C350 1.524 . S
C347 C339 1.503 . S
C347 C346 1.370 . S
C347 C348 1.403 . S
C348 C347 1.403 . S
C348 C349 1.404 . S
C348 C351 1.539 . S
C349 C345 1.408 . S
C349 C348 1.404 . S
C349 H361 0.930 . S
C350 C346 1.524 . S
C350 H362 0.956 . S
C350 H363 0.961 . S
C350 H364 0.961 . S
C351 C348 1.539 . S
C351 H365 0.958 . S
C351 H366 0.961 . S
C351 H367 0.960 . S
H352 C336 0.931 . S
H353 C341 0.929 . S
H354 C342 0.960 . S
H355 C342 0.962 . S
H356 C342 0.960 . S
H357 C343 0.961 . S
H358 C343 0.961 . S
H359 C343 0.961 . S
H360 C344 0.931 . S
H361 C349 0.930 . S
H362 C350 0.956 . S
H363 C350 0.961 . S
H364 C350 0.961 . S
H365 C351 0.958 . S
H366 C351 0.961 . S
H367 C351 0.960 . S
C368 C369 1.391 . S
C368 C370 1.394 . S
C368 H384 0.931 . S
C369 C368 1.391 . S
C369 C373 1.376 1_554 S
C370 C368 1.394 . S
C370 C371 1.369 . S
C370 C374 1.531 . S
C371 C370 1.369 . S
C371 C372 1.410 1_554 S
C371 C379 1.503 1_554 S
C372 C371 1.410 1_556 S
C372 C373 1.392 . S
C372 C375 1.511 . S
C373 C369 1.376 1_556 S
C373 C372 1.392 . S
C373 H385 0.929 . S
C374 C370 1.531 . S
C374 H386 0.960 . S
C374 H387 0.962 . S
C374 H388 0.960 . S
C375 C372 1.511 . S
C375 H389 0.961 . S
C375 H390 0.961 . S
C375 H391 0.961 . S
C376 C377 1.370 . S
C376 C378 1.363 . S
C376 H392 0.931 . S
C377 C376 1.370 . S
C377 C381 1.408 . S
C378 C376 1.363 . S
C378 C379 1.370 . S
C378 C382 1.530 . S
C379 C371 1.503 1_556 S
C379 C378 1.370 . S
C379 C380 1.403 . S
C380 C379 1.403 . S
C380 C381 1.404 . S
C380 C383 1.539 . S
C381 C377 1.408 . S
C381 C380 1.404 . S
C381 H393 0.930 . S
C382 C378 1.530 . S
C382 H394 0.933 1_556 S
C382 H395 0.973 . S
C382 H396 0.967 . S
C383 C380 1.539 . S
C383 H397 0.958 1_556 S
C383 H398 0.961 . S
C383 H399 0.960 . S
H384 C368 0.931 . S
H385 C373 0.929 . S
H386 C374 0.960 . S
H387 C374 0.962 . S
H388 C374 0.960 . S
H389 C375 0.961 . S
H390 C375 0.961 . S
H391 C375 0.961 . S
H392 C376 0.931 . S
H393 C381 0.930 . S
H394 C382 0.933 1_554 S
H395 C382 0.973 . S
H396 C382 0.967 . S
H397 C383 0.958 1_554 S
H398 C383 0.961 . S
H399 C383 0.960 . S
C400 C401 1.391 . S
C400 C402 1.394 . S
C400 H416 0.931 . S
C401 C400 1.391 . S
C401 C405 1.376 . S
C402 C400 1.394 . S
C402 C403 1.369 . S
C402 C406 1.531 . S
C403 C402 1.369 . S
C403 C404 1.410 1_455 S
C403 C411 1.488 1_454 S
C404 C403 1.410 1_655 S
C404 C405 1.392 1_655 S
C404 C407 1.511 1_554 S
C405 C401 1.376 . S
C405 C404 1.392 1_455 S
C405 H417 0.929 1_455 S
C406 C402 1.531 . S
C406 H418 0.960 . S
C406 H419 0.962 . S
C406 H420 0.960 . S
C407 C404 1.511 1_556 S
C407 H421 0.961 . S
C407 H422 0.961 . S
C407 H423 0.961 1_556 S
C408 C409 1.370 . S
C408 C410 1.363 . S
C408 H424 0.931 . S
C409 C408 1.370 . S
C409 C413 1.408 1_556 S
C410 C408 1.363 . S
C410 C411 1.408 . S
C410 C414 1.524 1_655 S
C411 C403 1.488 1_656 S
C411 C410 1.408 . S
C411 C412 1.381 1_556 S
C412 C411 1.381 1_554 S
C412 C413 1.404 . S
C412 C415 1.539 . S
C413 C409 1.408 1_554 S
C413 C412 1.404 . S
C413 H425 0.930 . S
C414 C410 1.524 1_455 S
C414 H426 0.956 . S
C414 H427 0.961 . S
C414 H428 0.961 . S
C415 C412 1.539 . S
C415 H429 0.958 . S
C415 H430 0.961 . S
C415 H431 0.960 . S
H416 C400 0.931 . S
H417 C405 0.929 1_655 S
H418 C406 0.960 . S
H419 C406 0.962 . S
H420 C406 0.960 . S
H421 C407 0.961 . S
H422 C407 0.961 . S
H423 C407 0.961 1_554 S
H424 C408 0.931 . S
H425 C413 0.930 . S
H426 C414 0.956 . S
H427 C414 0.961 . S
H428 C414 0.961 . S
H429 C415 0.958 . S
H430 C415 0.961 . S
H431 C415 0.960 . S
C432 C433 1.391 . S
C432 C434 1.394 . S
C432 H448 0.931 . S
C433 C432 1.391 . S
C433 C437 1.376 . S
C434 C432 1.394 . S
C434 C435 1.369 . S
C434 C438 1.531 . S
C435 C434 1.369 . S
C435 C436 1.410 . S
C435 C443 1.503 1_565 S
C436 C435 1.410 . S
C436 C437 1.392 . S
C436 C439 1.511 . S
C437 C433 1.376 . S
C437 C436 1.392 . S
C437 H449 0.929 . S
C438 C434 1.531 . S
C438 H450 0.960 1_565 S
C438 H451 0.962 1_565 S
C438 H452 0.960 . S
C439 C436 1.511 . S
C439 H453 0.961 . S
C439 H454 0.961 . S
C439 H455 0.961 . S
C440 C441 1.370 . S
C440 C442 1.363 . S
C440 H456 0.931 . S
C441 C440 1.370 . S
C441 C445 1.408 . S
C442 C440 1.363 . S
C442 C443 1.370 . S
C442 C446 1.524 . S
C443 C435 1.503 1_545 S
C443 C442 1.370 . S
C443 C444 1.403 . S
C444 C443 1.403 . S
C444 C445 1.404 . S
C444 C447 1.539 1_545 S
C445 C441 1.408 . S
C445 C444 1.404 . S
C445 H457 0.930 . S
C446 C442 1.524 . S
C446 H458 0.956 . S
C446 H459 0.961 . S
C446 H460 0.961 . S
C447 C444 1.539 1_565 S
C447 H461 0.958 . S
C447 H462 0.961 . S
C447 H463 0.960 . S
H448 C432 0.931 . S
H449 C437 0.929 . S
H450 C438 0.960 1_545 S
H451 C438 0.962 1_545 S
H452 C438 0.960 . S
H453 C439 0.961 . S
H454 C439 0.961 . S
H455 C439 0.961 . S
H456 C440 0.931 . S
H457 C445 0.930 . S
H458 C446 0.956 . S
H459 C446 0.961 . S
H460 C446 0.961 . S
H461 C447 0.958 . S
H462 C447 0.961 . S
H463 C447 0.960 . S
C464 C465 1.391 . S
C464 C466 1.394 1_655 S
C464 H480 0.931 1_655 S
C465 C464 1.391 . S
C465 C469 1.376 . S
C466 C464 1.394 1_455 S
C466 C467 1.369 1_455 S
C466 C470 1.531 . S
C467 C466 1.369 1_655 S
C467 C468 1.410 . S
C467 C475 1.503 1_645 S
C468 C467 1.410 . S
C468 C469 1.392 . S
C468 C471 1.511 1_545 S
C469 C465 1.376 . S
C469 C468 1.392 . S
C469 H481 0.929 . S
C470 C466 1.531 . S
C470 H482 0.960 . S
C470 H483 0.962 . S
C470 H484 0.960 . S
C471 C468 1.511 1_565 S
C471 H485 0.961 . S
C471 H486 0.961 . S
C471 H487 0.961 . S
C472 C473 1.370 . S
C472 C474 1.365 . S
C472 H488 0.931 . S
C473 C472 1.370 . S
C473 C477 1.408 . S
C474 C472 1.365 . S
C474 C475 1.372 . S
C474 C478 1.521 1_455 S
C475 C467 1.503 1_465 S
C475 C474 1.372 . S
C475 C476 1.403 . S
C476 C475 1.403 . S
C476 C477 1.404 . S
C476 C479 1.539 . S
C477 C473 1.408 . S
C477 C476 1.404 . S
C477 H489 0.930 . S
C478 C474 1.521 1_655 S
C478 H490 0.956 1_565 S
C478 H491 0.961 . S
C478 H492 0.961 . S
C479 C476 1.539 . S
C479 H493 0.958 . S
C479 H494 0.961 . S
C479 H495 0.960 . S
H480 C464 0.931 1_455 S
H481 C469 0.929 . S
H482 C470 0.960 . S
H483 C470 0.962 . S
H484 C470 0.960 . S
H485 C471 0.961 . S
H486 C471 0.961 . S
H487 C471 0.961 . S
H488 C472 0.931 . S
H489 C477 0.930 . S
H490 C478 0.956 1_545 S
H491 C478 0.961 . S
H492 C478 0.961 . S
H493 C479 0.958 . S
H494 C479 0.961 . S
H495 C479 0.960 . S
C496 C497 1.391 . S
C496 C498 1.394 . S
C496 H512 0.931 . S
C497 C496 1.391 . S
C497 C501 1.376 . S
C498 C496 1.394 . S
C498 C499 1.369 . S
C498 C502 1.531 . S
C499 C498 1.369 . S
C499 C500 1.410 . S
C499 C507 1.503 . S
C500 C499 1.410 . S
C500 C501 1.392 . S
C500 C503 1.511 . S
C501 C497 1.376 . S
C501 C500 1.392 . S
C501 H513 0.929 . S
C502 C498 1.531 . S
C502 H514 0.960 . S
C502 H515 0.962 . S
C502 H516 0.960 . S
C503 C500 1.511 . S
C503 H517 0.961 . S
C503 H518 0.961 . S
C503 H519 0.961 . S
C504 C505 1.370 . S
C504 C506 1.363 . S
C504 H520 0.931 . S
C505 C504 1.370 . S
C505 C509 1.408 . S
C506 C504 1.363 . S
C506 C507 1.370 . S
C506 C510 1.524 . S
C507 C499 1.503 . S
C507 C506 1.370 . S
C507 C508 1.403 . S
C508 C507 1.403 . S
C508 C509 1.404 . S
C508 C511 1.539 . S
C509 C505 1.408 . S
C509 C508 1.404 . S
C509 H521 0.930 . S
C510 C506 1.524 . S
C510 H522 0.956 . S
C510 H523 0.961 . S
C510 H524 0.961 1_554 S
C511 C508 1.539 . S
C511 H525 0.958 . S
C511 H526 0.961 . S
C511 H527 0.960 . S
H512 C496 0.931 . S
H513 C501 0.929 . S
H514 C502 0.960 . S
H515 C502 0.962 . S
H516 C502 0.960 . S
H517 C503 0.961 . S
H518 C503 0.961 . S
H519 C503 0.961 . S
H520 C504 0.931 . S
H521 C509 0.930 . S
H522 C510 0.956 . S
H523 C510 0.961 . S
H524 C510 0.961 1_556 S
H525 C511 0.958 . S
H526 C511 0.961 . S
H527 C511 0.960 . S
C528 C529 1.391 . S
C528 C530 1.394 . S
C528 H544 0.931 . S
C529 C528 1.391 . S
C529 C533 1.376 . S
C530 C528 1.394 . S
C530 C531 1.369 . S
C530 C534 1.531 1_545 S
C531 C530 1.369 . S
C531 C532 1.410 . S
C531 C539 1.503 1_545 S
C532 C531 1.410 . S
C532 C533 1.392 . S
C532 C535 1.511 . S
C533 C529 1.376 . S
C533 C532 1.392 . S
C533 H545 0.929 . S
C534 C530 1.531 1_565 S
C534 H546 0.960 . S
C534 H547 0.962 . S
C534 H548 0.960 1_565 S
C535 C532 1.511 . S
C535 H549 0.961 . S
C535 H550 0.961 . S
C535 H551 0.961 . S
C536 C537 1.370 . S
C536 C538 1.363 . S
C536 H552 0.931 . S
C537 C536 1.370 . S
C537 C541 1.408 . S
C538 C536 1.363 . S
C538 C539 1.370 . S
C538 C542 1.524 . S
C539 C531 1.503 1_565 S
C539 C538 1.370 . S
C539 C540 1.403 . S
C540 C539 1.403 . S
C540 C541 1.404 . S
C540 C543 1.539 1_565 S
C541 C537 1.408 . S
C541 C540 1.404 . S
C541 H553 0.930 . S
C542 C538 1.524 . S
C542 H554 0.956 . S
C542 H555 0.961 . S
C542 H556 0.961 . S
C543 C540 1.539 1_545 S
C543 H557 0.958 . S
C543 H558 0.961 . S
C543 H559 0.960 . S
H544 C528 0.931 . S
H545 C533 0.929 . S
H546 C534 0.960 . S
H547 C534 0.962 . S
H548 C534 0.960 1_545 S
H549 C535 0.961 . S
H550 C535 0.961 . S
H551 C535 0.961 . S
H552 C536 0.931 . S
H553 C541 0.930 . S
H554 C542 0.956 . S
H555 C542 0.961 . S
H556 C542 0.961 . S
H557 C543 0.958 . S
H558 C543 0.961 . S
H559 C543 0.960 . S
C560 C561 1.391 . S
C560 C562 1.394 . S
C560 H576 0.931 . S
C561 C560 1.391 . S
C561 C565 1.376 . S
C562 C560 1.394 . S
C562 C563 1.369 . S
C562 C566 1.531 . S
C563 C562 1.369 . S
C563 C564 1.410 . S
C563 C571 1.503 . S
C564 C563 1.410 . S
C564 C565 1.392 . S
C564 C567 1.511 . S
C565 C561 1.376 . S
C565 C564 1.392 . S
C565 H577 0.929 . S
C566 C562 1.531 . S
C566 H578 0.960 . S
C566 H579 0.962 . S
C566 H580 0.960 . S
C567 C564 1.511 . S
C567 H581 0.961 . S
C567 H582 0.961 . S
C567 H583 0.961 . S
C568 C569 1.370 . S
C568 C570 1.363 . S
C568 H584 0.931 . S
C569 C568 1.370 . S
C569 C573 1.408 . S
C570 C568 1.363 . S
C570 C571 1.370 . S
C570 C574 1.524 . S
C571 C563 1.503 . S
C571 C570 1.370 . S
C571 C572 1.403 . S
C572 C571 1.403 . S
C572 C573 1.404 . S
C572 C575 1.539 . S
C573 C569 1.408 . S
C573 C572 1.404 . S
C573 H585 0.930 . S
C574 C570 1.524 . S
C574 H586 0.956 . S
C574 H587 0.961 . S
C574 H588 0.961 . S
C575 C572 1.539 . S
C575 H589 0.958 . S
C575 H590 0.961 . S
C575 H591 0.960 . S
H576 C560 0.931 . S
H577 C565 0.929 . S
H578 C566 0.960 . S
H579 C566 0.962 . S
H580 C566 0.960 . S
H581 C567 0.961 . S
H582 C567 0.961 . S
H583 C567 0.961 . S
H584 C568 0.931 . S
H585 C573 0.930 . S
H586 C574 0.956 . S
H587 C574 0.961 . S
H588 C574 0.961 . S
H589 C575 0.958 . S
H590 C575 0.961 . S
H591 C575 0.960 . S
C592 C593 1.391 . S
C592 C594 1.394 . S
C592 H608 0.931 . S
C593 C592 1.391 . S
C593 C597 1.376 . S
C594 C592 1.394 . S
C594 C595 1.369 . S
C594 C598 1.531 1_565 S
C595 C594 1.369 . S
C595 C596 1.410 . S
C595 C603 1.503 1_565 S
C596 C595 1.410 . S
C596 C597 1.392 . S
C596 C599 1.511 . S
C597 C593 1.376 . S
C597 C596 1.392 . S
C597 H609 0.929 . S
C598 C594 1.531 1_545 S
C598 H610 0.960 . S
C598 H611 0.962 . S
C598 H612 0.960 . S
C599 C596 1.511 . S
C599 H613 0.961 . S
C599 H614 0.961 . S
C599 H615 0.961 . S
C600 C601 1.370 . S
C600 C602 1.363 . S
C600 H616 0.931 . S
C601 C600 1.370 . S
C601 C605 1.408 . S
C602 C600 1.363 . S
C602 C603 1.370 . S
C602 C606 1.524 . S
C603 C595 1.503 1_545 S
C603 C602 1.370 . S
C603 C604 1.403 . S
C604 C603 1.403 . S
C604 C605 1.404 . S
C604 C607 1.543 . S
C605 C601 1.408 . S
C605 C604 1.404 . S
C605 H617 0.930 . S
C606 C602 1.524 . S
C606 H618 0.956 . S
C606 H619 0.961 1_545 S
C606 H620 0.961 . S
C607 C604 1.543 . S
C607 H621 0.961 . S
C607 H622 0.961 1_545 S
C607 H623 0.953 1_545 S
H608 C592 0.931 . S
H609 C597 0.929 . S
H610 C598 0.960 . S
H611 C598 0.962 . S
H612 C598 0.960 . S
H613 C599 0.961 . S
H614 C599 0.961 . S
H615 C599 0.961 . S
H616 C600 0.931 . S
H617 C605 0.930 . S
H618 C606 0.956 . S
H619 C606 0.961 1_565 S
H620 C606 0.961 . S
H621 C607 0.961 . S
H622 C607 0.961 1_565 S
H623 C607 0.953 1_565 S
C113 C13 1.301 . S
C121 C27 1.333 . S
C145 C55 1.337 . S
C153 C41 1.358 . S
C177 C69 1.332 . S
C185 C83 1.325 . S
C209 C97 1.299 . S
C217 C111 1.341 . S
C241 C11 1.561 . S
C249 C39 1.572 . S
C273 C53 1.552 . S
C281 C25 1.570 . S
C305 C67 1.570 . S
C313 C95 1.569 . S
C337 C109 1.566 . S
C345 C81 1.563 . S
C369 C7 1.460 . S
C377 C63 1.416 . S
C401 C21 1.434 . S
C409 C77 1.425 . S
C433 C91 1.447 . S
C441 C35 1.420 . S
C465 C105 1.438 . S
C473 C49 1.428 . S
C497 C22 0.932 . S
C505 C8 0.925 . S
C529 C36 0.888 . S
C537 C50 0.932 . S
C561 C64 0.952 . S
C569 C78 0.917 . S
C593 C92 0.922 . S
C601 C106 0.932 . S
