# Generated by pormake.
# Topology upa, (4)-cn, num edge types: 1
# Building blocks:
#     Node 0, Type 0, BuildingBlock: UXUYUI_clean_sbu_0, # of connection points: 4
#     Node 1, Type 0, BuildingBlock: UXUYUI_clean_sbu_0, # of connection points: 4
#     Node 2, Type 0, BuildingBlock: UXUYUI_clean_sbu_0, # of connection points: 4
#     Node 3, Type 0, BuildingBlock: UXUYUI_clean_sbu_0, # of connection points: 4
#     Node 4, Type 0, BuildingBlock: UXUYUI_clean_sbu_0, # of connection points: 4
#     Node 5, Type 0, BuildingBlock: UXUYUI_clean_sbu_0, # of connection points: 4
#     Node 6, Type 0, BuildingBlock: UXUYUI_clean_sbu_0, # of connection points: 4
#     Node 7, Type 0, BuildingBlock: UXUYUI_clean_sbu_0, # of connection points: 4
#     Edge 8, Type (0, 0), BuildingBlock: TEMPAE_clean_linker_10, # of connection points: 2
#     Edge 9, Type (0, 0), BuildingBlock: TEMPAE_clean_linker_10, # of connection points: 2
#     Edge 10, Type (0, 0), BuildingBlock: TEMPAE_clean_linker_10, # of connection points: 2
#     Edge 11, Type (0, 0), BuildingBlock: TEMPAE_clean_linker_10, # of connection points: 2
#     Edge 12, Type (0, 0), BuildingBlock: TEMPAE_clean_linker_10, # of connection points: 2
#     Edge 13, Type (0, 0), BuildingBlock: TEMPAE_clean_linker_10, # of connection points: 2
#     Edge 14, Type (0, 0), BuildingBlock: TEMPAE_clean_linker_10, # of connection points: 2
#     Edge 15, Type (0, 0), BuildingBlock: TEMPAE_clean_linker_10, # of connection points: 2
#     Edge 16, Type (0, 0), BuildingBlock: TEMPAE_clean_linker_10, # of connection points: 2
#     Edge 17, Type (0, 0), BuildingBlock: TEMPAE_clean_linker_10, # of connection points: 2
#     Edge 18, Type (0, 0), BuildingBlock: TEMPAE_clean_linker_10, # of connection points: 2
#     Edge 19, Type (0, 0), BuildingBlock: TEMPAE_clean_linker_10, # of connection points: 2
#     Edge 20, Type (0, 0), BuildingBlock: TEMPAE_clean_linker_10, # of connection points: 2
#     Edge 21, Type (0, 0), BuildingBlock: TEMPAE_clean_linker_10, # of connection points: 2
#     Edge 22, Type (0, 0), BuildingBlock: TEMPAE_clean_linker_10, # of connection points: 2
#     Edge 23, Type (0, 0), BuildingBlock: TEMPAE_clean_linker_10, # of connection points: 2
# Relax obj value: 0.344
# Max RMSD: 0.248
# Mean RMSD: 0.248
data_MOF--net-upa--node1-UXUYUI_clean_sbu_0--edge1-TEMPAE_clean_linker_10
_symmetry_space_group_name_H-M    P1
_symmetry_Int_Tables_number       1
_symmetry_cell_setting            triclinic
loop_
_symmetry_equiv_pos_as_xyz
'x, y, z'
_cell_length_a     38.922133
_cell_length_b     38.650803
_cell_length_c     63.924037
_cell_angle_alpha  89.997682
_cell_angle_beta   90.000578
_cell_angle_gamma 89.999018
loop_
_atom_site_label
_atom_site_type_symbol
_atom_site_fract_x
_atom_site_fract_y
_atom_site_fract_z
_atom_type_partial_charge
Li0 Li 0.1261 0.23492 0.32697 0.0
Li1 Li 0.16581 0.22015 0.35409 0.0
Li2 Li 0.18647 0.22521 0.31675 0.0
Li3 Li 0.14814 0.17744 0.32915 0.0
C4 C 0.15709 0.295 0.33136 0.0
N5 N 0.13513 0.36135 0.32257 0.0
C6 C 0.13339 0.31131 0.34448 0.0
C7 C 0.16983 0.31244 0.31385 0.0
C8 C 0.12251 0.34485 0.33972 0.0
C9 C 0.15838 0.346 0.30967 0.0
C10 C 0.10659 0.20377 0.36967 0.0
C11 C 0.10329 0.18244 0.40512 0.0
N12 N 0.08231 0.20928 0.41021 0.0
C13 C 0.08516 0.23128 0.37533 0.0
C14 C 0.11582 0.17921 0.38474 0.0
C15 C 0.07305 0.23352 0.39586 0.0
C16 C 0.05507 0.23618 0.32392 0.0
N17 N 0.08286 0.25557 0.31848 0.0
C18 C 0.04801 0.28931 0.29525 0.0
C19 C 0.07977 0.28225 0.30468 0.0
C20 C 0.01925 0.26893 0.30024 0.0
C21 C 0.02291 0.24273 0.31522 0.0
H22 H 0.05821 0.21403 0.33403 0.0
H23 H 0.10224 0.29645 0.29979 0.0
C24 C 0.20569 0.20521 0.38969 0.0
N25 N 0.18055 0.22653 0.38249 0.0
C26 C 0.21473 0.20533 0.41081 0.0
C27 C 0.17287 0.25046 0.41669 0.0
C28 C 0.16492 0.24973 0.39536 0.0
C29 C 0.19769 0.22761 0.4247 0.0
H30 H 0.2182 0.18743 0.37913 0.0
H31 H 0.14541 0.26683 0.38923 0.0
C32 C 0.12396 0.21306 0.28736 0.0
N33 N 0.0793 0.22853 0.25508 0.0
C34 C 0.09368 0.19403 0.28482 0.0
C35 C 0.13152 0.23994 0.27348 0.0
C36 C 0.07141 0.2023 0.26842 0.0
C37 C 0.10864 0.24732 0.25723 0.0
C38 C 0.20837 0.15507 0.33595 0.0
C39 C 0.22627 0.14559 0.31789 0.0
C40 C 0.20211 0.13036 0.35147 0.0
C41 C 0.2377 0.11152 0.31567 0.0
C42 C 0.21393 0.09656 0.34866 0.0
N43 N 0.23134 0.08792 0.33096 0.0
C44 C 0.25488 0.24311 0.31104 0.0
C45 C 0.2273 0.22688 0.27945 0.0
C46 C 0.28675 0.24386 0.30103 0.0
N47 N 0.22612 0.23424 0.30025 0.0
C48 C 0.25864 0.22782 0.26873 0.0
C49 C 0.28895 0.23556 0.27969 0.0
H50 H 0.25322 0.24805 0.32767 0.0
H51 H 0.20432 0.21857 0.27141 0.0
C52 C 0.11704 0.11378 0.33828 0.0
N53 N 0.13457 0.13149 0.32338 0.0
C54 C 0.09825 0.08448 0.3329 0.0
C55 C 0.11737 0.09116 0.29712 0.0
C56 C 0.13635 0.12007 0.30329 0.0
C57 C 0.09702 0.07386 0.31192 0.0
H58 H 0.1155 0.12379 0.35397 0.0
H59 H 0.15019 0.13502 0.29174 0.0
O60 O 0.16812 0.26224 0.33575 0.0
O61 O 0.11888 0.20118 0.34962 0.0
O62 O 0.1457 0.2059 0.30363 0.0
O63 O 0.19616 0.18807 0.33817 0.0
H64 H 0.12334 0.29814 0.3581 0.0
H65 H 0.18826 0.30013 0.30358 0.0
H66 H 0.10403 0.35775 0.34967 0.0
H67 H 0.16792 0.35981 0.29614 0.0
H68 H 0.11046 0.16375 0.41694 0.0
H69 H 0.07827 0.25102 0.36412 0.0
H70 H 0.13318 0.15833 0.38092 0.0
H71 H 0.0565 0.2547 0.40043 0.0
H72 H 0.04624 0.30961 0.28362 0.0
H73 H 0.00159 0.22593 0.31916 0.0
H74 H 0.23394 0.18723 0.41634 0.0
H75 H 0.15947 0.26836 0.42685 0.0
H76 H 0.0871 0.17353 0.29563 0.0
H77 H 0.15445 0.25541 0.27547 0.0
H78 H 0.04776 0.188 0.26638 0.0
H79 H 0.11406 0.26818 0.24645 0.0
H80 H 0.2311 0.1642 0.30562 0.0
H81 H 0.18786 0.13708 0.36542 0.0
H82 H 0.25155 0.10383 0.30175 0.0
H83 H 0.20914 0.07716 0.3605 0.0
H84 H 0.30956 0.2501 0.30997 0.0
H85 H 0.25941 0.22087 0.25232 0.0
H86 H 0.08251 0.07211 0.34471 0.0
H87 H 0.117 0.08365 0.28079 0.0
Li88 Li 0.26878 0.6896 0.82061 0.0
Li89 Li 0.26899 0.66886 0.85704 0.0
Li90 Li 0.31481 0.6515 0.83441 0.0
Li91 Li 0.25851 0.62677 0.82992 0.0
C92 C 0.33473 0.71187 0.84562 0.0
N93 N 0.40121 0.73545 0.85047 0.0
C94 C 0.35211 0.7065 0.86448 0.0
C95 C 0.35108 0.72919 0.82923 0.0
C96 C 0.38573 0.71864 0.86662 0.0
C97 C 0.38473 0.74093 0.832 0.0
C98 C 0.20228 0.67304 0.84965 0.0
C99 C 0.15306 0.65163 0.86857 0.0
N100 N 0.14891 0.68331 0.87748 0.0
C101 C 0.19719 0.70553 0.85873 0.0
C102 C 0.17979 0.64597 0.85439 0.0
C103 C 0.17022 0.71014 0.87288 0.0
C104 C 0.27954 0.72835 0.78394 0.0
N105 N 0.26241 0.72812 0.80248 0.0
C106 C 0.24577 0.78716 0.79778 0.0
C107 C 0.24539 0.75657 0.80945 0.0
C108 C 0.26408 0.78854 0.77883 0.0
C109 C 0.28053 0.75834 0.77176 0.0
H110 H 0.29363 0.70566 0.77902 0.0
H111 H 0.23279 0.75599 0.8245 0.0
C112 C 0.24964 0.66538 0.90113 0.0
N113 N 0.26058 0.68564 0.88506 0.0
C114 C 0.2497 0.678 0.92162 0.0
C115 C 0.26858 0.73332 0.90847 0.0
C116 C 0.269 0.71936 0.88833 0.0
C117 C 0.2601 0.71225 0.92565 0.0
H118 H 0.24181 0.63911 0.89831 0.0
H119 H 0.27686 0.73533 0.8753 0.0
C120 C 0.28141 0.62939 0.79064 0.0
N121 N 0.26323 0.59003 0.7563 0.0
C122 C 0.30035 0.59986 0.78545 0.0
C123 C 0.25331 0.63896 0.77833 0.0
C124 C 0.2907 0.58027 0.76806 0.0
C125 C 0.24455 0.61873 0.76101 0.0
C126 C 0.281 0.60179 0.87095 0.0
C127 C 0.30454 0.59644 0.88716 0.0
C128 C 0.24887 0.58562 0.87183 0.0
C129 C 0.29562 0.57494 0.90388 0.0
C130 C 0.24094 0.56426 0.88878 0.0
N131 N 0.26429 0.55939 0.90432 0.0
C132 C 0.37906 0.62537 0.84703 0.0
C133 C 0.37361 0.6383 0.81091 0.0
C134 C 0.40915 0.60683 0.84329 0.0
N135 N 0.36133 0.6393 0.8308 0.0
C136 C 0.40341 0.61974 0.80642 0.0
C137 C 0.42065 0.60248 0.82263 0.0
H138 H 0.36863 0.62667 0.86264 0.0
H139 H 0.35886 0.64967 0.79833 0.0
C140 C 0.2124 0.57822 0.80856 0.0
N141 N 0.24124 0.58309 0.82021 0.0
C142 C 0.20595 0.54587 0.79939 0.0
C143 C 0.25829 0.52433 0.81502 0.0
C144 C 0.26383 0.55688 0.82364 0.0
C145 C 0.22934 0.51851 0.80244 0.0
H146 H 0.19526 0.59972 0.80565 0.0
H147 H 0.28716 0.56173 0.83233 0.0
O148 O 0.30212 0.69949 0.84307 0.0
O149 O 0.22879 0.66787 0.83595 0.0
O150 O 0.28959 0.64814 0.8081 0.0
O151 O 0.28977 0.62204 0.85416 0.0
H152 H 0.33987 0.6928 0.87723 0.0
H153 H 0.33801 0.73334 0.81451 0.0
H154 H 0.39956 0.71459 0.88109 0.0
H155 H 0.39776 0.75434 0.81944 0.0
H156 H 0.13555 0.63086 0.87244 0.0
H157 H 0.21425 0.72681 0.85518 0.0
H158 H 0.18276 0.62092 0.84707 0.0
H159 H 0.16627 0.73504 0.88022 0.0
H160 H 0.23316 0.8099 0.80402 0.0
H161 H 0.29464 0.75806 0.75716 0.0
H162 H 0.24299 0.66047 0.93417 0.0
H163 H 0.27559 0.76021 0.91051 0.0
H164 H 0.32185 0.59175 0.795 0.0
H165 H 0.23811 0.66148 0.78229 0.0
H166 H 0.30491 0.55718 0.76398 0.0
H167 H 0.22276 0.62573 0.7514 0.0
H168 H 0.32937 0.60889 0.88697 0.0
H169 H 0.23008 0.58967 0.85972 0.0
H170 H 0.31362 0.57062 0.91651 0.0
H171 H 0.21616 0.55166 0.88961 0.0
H172 H 0.42169 0.59379 0.8562 0.0
H173 H 0.41179 0.61727 0.79033 0.0
H174 H 0.18332 0.54244 0.78976 0.0
H175 H 0.27743 0.50436 0.81738 0.0
Li176 Li 0.8694 0.76573 0.32577 0.0
Li177 Li 0.83072 0.77715 0.35457 0.0
Li178 Li 0.8084 0.77281 0.31721 0.0
Li179 Li 0.84397 0.8219 0.32898 0.0
C180 C 0.84302 0.70347 0.3357 0.0
N181 N 0.87 0.63742 0.3367 0.0
C182 C 0.86597 0.69403 0.3515 0.0
C183 C 0.83352 0.6793 0.3205 0.0
C184 C 0.87944 0.66053 0.35169 0.0
C185 C 0.84749 0.64602 0.32127 0.0
C186 C 0.8951 0.79868 0.36636 0.0
C187 C 0.90976 0.82208 0.40023 0.0
N188 N 0.93476 0.79774 0.40227 0.0
C189 C 0.92086 0.77376 0.36889 0.0
C190 C 0.88945 0.82297 0.38221 0.0
C191 C 0.94067 0.77378 0.38712 0.0
C192 C 0.93592 0.775 0.31534 0.0
N193 N 0.91298 0.74854 0.31619 0.0
C194 C 0.95405 0.71023 0.30065 0.0
C195 C 0.9213 0.71647 0.309 0.0
C196 C 0.97814 0.73739 0.29938 0.0
C197 C 0.9685 0.77009 0.30693 0.0
H198 H 0.92835 0.80048 0.3206 0.0
H199 H 0.9025 0.69598 0.30922 0.0
C200 C 0.78444 0.77634 0.38819 0.0
N201 N 0.81762 0.76922 0.38315 0.0
C202 C 0.77366 0.77567 0.40903 0.0
C203 C 0.83112 0.7592 0.41914 0.0
C204 C 0.84045 0.75916 0.39805 0.0
C205 C 0.79742 0.76826 0.42503 0.0
H206 H 0.76648 0.78348 0.37602 0.0
H207 H 0.86633 0.75228 0.39377 0.0
C208 C 0.86248 0.78209 0.28548 0.0
N209 N 0.89496 0.75642 0.25034 0.0
C210 C 0.88918 0.80072 0.27615 0.0
C211 C 0.85217 0.75052 0.27688 0.0
C212 C 0.90533 0.78727 0.25841 0.0
C213 C 0.86893 0.73797 0.25911 0.0
C214 C 0.78577 0.84083 0.34283 0.0
C215 C 0.76786 0.85817 0.32706 0.0
C216 C 0.79237 0.85758 0.36179 0.0
C217 C 0.75686 0.8921 0.33051 0.0
C218 C 0.78094 0.89151 0.36464 0.0
N219 N 0.76358 0.90793 0.34907 0.0
C220 C 0.74743 0.73738 0.30423 0.0
C221 C 0.76385 0.78674 0.28464 0.0
C222 C 0.71667 0.73494 0.29299 0.0
N223 N 0.76991 0.76336 0.30005 0.0
C224 C 0.73336 0.78554 0.27321 0.0
C225 C 0.70888 0.75978 0.27756 0.0
H226 H 0.75287 0.7193 0.31672 0.0
H227 H 0.78211 0.80734 0.28186 0.0
C228 C 0.86888 0.88871 0.33815 0.0
N229 N 0.85432 0.86865 0.32315 0.0
C230 C 0.8869 0.91844 0.33256 0.0
C231 C 0.87212 0.90774 0.29637 0.0
C232 C 0.85408 0.87837 0.30272 0.0
C233 C 0.89019 0.92716 0.31131 0.0
H234 H 0.8689 0.88025 0.3542 0.0
H235 H 0.84234 0.86178 0.29113 0.0
O236 O 0.82945 0.73605 0.33529 0.0
O237 O 0.87572 0.79944 0.34847 0.0
O238 O 0.84731 0.79407 0.30337 0.0
O239 O 0.79767 0.808 0.33954 0.0
H240 H 0.8734 0.71242 0.36341 0.0
H241 H 0.81556 0.68618 0.30826 0.0
H242 H 0.89738 0.65289 0.36377 0.0
H243 H 0.84047 0.62705 0.30959 0.0
H244 H 0.90551 0.84062 0.41263 0.0
H245 H 0.92537 0.75432 0.35708 0.0
H246 H 0.86912 0.84184 0.38091 0.0
H247 H 0.96063 0.75464 0.38925 0.0
H248 H 0.96026 0.68453 0.29509 0.0
H249 H 0.98549 0.79218 0.30575 0.0
H250 H 0.74708 0.78155 0.41248 0.0
H251 H 0.85069 0.75346 0.43064 0.0
H252 H 0.89775 0.82502 0.28275 0.0
H253 H 0.83174 0.73566 0.28401 0.0
H254 H 0.92621 0.80126 0.25113 0.0
H255 H 0.86135 0.71347 0.25236 0.0
H256 H 0.76272 0.84567 0.31226 0.0
H257 H 0.80646 0.84465 0.3741 0.0
H258 H 0.74305 0.90587 0.31841 0.0
H259 H 0.78597 0.90483 0.3792 0.0
H260 H 0.69891 0.71425 0.29666 0.0
H261 H 0.72844 0.80557 0.26176 0.0
H262 H 0.9007 0.93253 0.34455 0.0
H263 H 0.87385 0.91385 0.27987 0.0
Li264 Li 0.7535 0.36991 0.8275 0.0
Li265 Li 0.69477 0.35117 0.82966 0.0
Li266 Li 0.73412 0.33069 0.85626 0.0
Li267 Li 0.7356 0.30633 0.81988 0.0
C268 C 0.72843 0.40271 0.86527 0.0
N269 N 0.74492 0.45064 0.8958 0.0
C270 C 0.70763 0.43177 0.8684 0.0
C271 C 0.75732 0.39783 0.87794 0.0
C272 C 0.71652 0.45578 0.88381 0.0
C273 C 0.76528 0.42237 0.89323 0.0
C274 C 0.70105 0.35461 0.78901 0.0
C275 C 0.65423 0.33359 0.76779 0.0
N276 N 0.65145 0.36532 0.75874 0.0
C277 C 0.69773 0.38702 0.77949 0.0
C278 C 0.67911 0.32768 0.78312 0.0
C279 C 0.67249 0.39191 0.76423 0.0
C280 C 0.78261 0.41156 0.79629 0.0
N281 N 0.77843 0.40959 0.81739 0.0
C282 C 0.78832 0.47042 0.82072 0.0
C283 C 0.78311 0.43792 0.82971 0.0
C284 C 0.78912 0.47372 0.79888 0.0
C285 C 0.7881 0.44358 0.78663 0.0
H286 H 0.77847 0.3888 0.78677 0.0
H287 H 0.78034 0.43608 0.84639 0.0
C288 C 0.62016 0.358 0.82129 0.0
N289 N 0.65174 0.37244 0.82398 0.0
C290 C 0.59182 0.3791 0.81685 0.0
C291 C 0.62954 0.42881 0.81718 0.0
C292 C 0.6568 0.40699 0.82175 0.0
C293 C 0.59649 0.41501 0.81479 0.0
H294 H 0.61686 0.33036 0.82238 0.0
H295 H 0.6824 0.41754 0.82328 0.0
C296 C 0.80599 0.3184 0.84607 0.0
N297 N 0.86875 0.30411 0.86431 0.0
C298 C 0.81728 0.28421 0.84787 0.0
C299 C 0.82698 0.34537 0.85305 0.0
C300 C 0.84899 0.2775 0.85729 0.0
C301 C 0.85851 0.3376 0.86237 0.0
C302 C 0.66666 0.29047 0.84367 0.0
C303 C 0.64649 0.30146 0.86048 0.0
C304 C 0.65372 0.26584 0.82972 0.0
C305 C 0.61354 0.28773 0.86302 0.0
C306 C 0.62066 0.25272 0.8328 0.0
N307 N 0.60142 0.26385 0.84924 0.0
C308 C 0.7139 0.33374 0.89816 0.0
C309 C 0.75852 0.29316 0.89255 0.0
C310 C 0.71205 0.32474 0.91925 0.0
N311 N 0.73686 0.31801 0.88527 0.0
C312 C 0.75772 0.28348 0.91365 0.0
C313 C 0.73407 0.29921 0.92731 0.0
H314 H 0.6965 0.35298 0.89198 0.0
H315 H 0.77597 0.28035 0.882 0.0
C316 C 0.74486 0.26582 0.78303 0.0
N317 N 0.7424 0.2651 0.80424 0.0
C318 C 0.74407 0.23498 0.7716 0.0
C319 C 0.74003 0.20332 0.80412 0.0
C320 C 0.74068 0.23474 0.8149 0.0
C321 C 0.74094 0.20321 0.78215 0.0
H322 H 0.74609 0.29038 0.77495 0.0
H323 H 0.7383 0.23505 0.83176 0.0
O324 O 0.71975 0.37863 0.85044 0.0
O325 O 0.72489 0.34945 0.80445 0.0
O326 O 0.77522 0.32547 0.83669 0.0
O327 O 0.69915 0.30323 0.84107 0.0
H328 H 0.68476 0.43578 0.85913 0.0
H329 H 0.77336 0.37528 0.87607 0.0
H330 H 0.70073 0.47845 0.88631 0.0
H331 H 0.78762 0.4189 0.90308 0.0
H332 H 0.63702 0.313 0.76315 0.0
H333 H 0.71396 0.40839 0.78408 0.0
H334 H 0.68096 0.30261 0.79051 0.0
H335 H 0.6695 0.4169 0.75684 0.0
H336 H 0.78965 0.49302 0.83071 0.0
H337 H 0.78855 0.44505 0.76971 0.0
H338 H 0.56668 0.36752 0.81492 0.0
H339 H 0.63425 0.45636 0.81595 0.0
H340 H 0.80155 0.26308 0.84224 0.0
H341 H 0.81911 0.37205 0.85117 0.0
H342 H 0.85791 0.25114 0.85899 0.0
H343 H 0.87492 0.35821 0.86797 0.0
H344 H 0.65598 0.32063 0.87133 0.0
H345 H 0.66902 0.25689 0.81668 0.0
H346 H 0.59759 0.29611 0.87591 0.0
H347 H 0.6103 0.23368 0.82212 0.0
H348 H 0.69284 0.33707 0.92897 0.0
H349 H 0.77533 0.2638 0.91915 0.0
H350 H 0.74524 0.23601 0.75468 0.0
H351 H 0.73725 0.17949 0.81287 0.0
Li352 Li 0.65108 0.31559 0.16876 0.0
Li353 Li 0.69074 0.26951 0.18328 0.0
Li354 Li 0.66342 0.26167 0.14886 0.0
Li355 Li 0.62946 0.25951 0.17981 0.0
C356 C 0.71943 0.30055 0.14203 0.0
N357 N 0.76517 0.30044 0.10892 0.0
C358 C 0.75148 0.28458 0.14407 0.0
C359 C 0.71078 0.31666 0.12316 0.0
C360 C 0.77424 0.28481 0.12716 0.0
C361 C 0.73418 0.31622 0.10659 0.0
C362 C 0.65092 0.28632 0.21805 0.0
C363 C 0.65375 0.24342 0.24541 0.0
N364 N 0.64695 0.26834 0.25984 0.0
C365 C 0.6441 0.31154 0.23317 0.0
C366 C 0.65586 0.25202 0.22424 0.0
C367 C 0.64214 0.30192 0.2542 0.0
C368 C 0.61968 0.3742 0.18419 0.0
N369 N 0.63876 0.36274 0.16781 0.0
C370 C 0.62514 0.41324 0.148 0.0
C371 C 0.64265 0.38193 0.15015 0.0
C372 C 0.60346 0.42459 0.16417 0.0
C373 C 0.60187 0.40534 0.18276 0.0
H374 H 0.61596 0.35778 0.19764 0.0
H375 H 0.65739 0.37195 0.13722 0.0
C376 C 0.75386 0.23846 0.19718 0.0
N377 N 0.73141 0.26506 0.19979 0.0
C378 C 0.78503 0.23808 0.20814 0.0
C379 C 0.76843 0.29146 0.225 0.0
C380 C 0.73804 0.29117 0.21343 0.0
C381 C 0.79291 0.26509 0.22216 0.0
H382 H 0.74808 0.21819 0.18605 0.0
H383 H 0.71991 0.31218 0.21509 0.0
C384 C 0.58472 0.28409 0.15057 0.0
N385 N 0.51417 0.2816 0.14545 0.0
C386 C 0.5685 0.25287 0.14559 0.0
C387 C 0.56499 0.31415 0.15258 0.0
C388 C 0.53284 0.2521 0.1432 0.0
C389 C 0.5294 0.31235 0.15 0.0
C390 C 0.65641 0.19388 0.17045 0.0
C391 C 0.63831 0.18294 0.15277 0.0
C392 C 0.66324 0.17027 0.1865 0.0
C393 C 0.62639 0.1489 0.15171 0.0
C394 C 0.6509 0.13643 0.18487 0.0
N395 N 0.63282 0.12655 0.16767 0.0
C396 C 0.6981 0.22917 0.11434 0.0
C397 C 0.64864 0.26244 0.10636 0.0
C398 C 0.70603 0.22621 0.09305 0.0
N399 N 0.6703 0.24788 0.12051 0.0
C400 C 0.65553 0.26012 0.08503 0.0
C401 C 0.68505 0.2426 0.0781 0.0
H402 H 0.71513 0.21823 0.12597 0.0
H403 H 0.6271 0.27773 0.1117 0.0
C404 C 0.57014 0.27285 0.19994 0.0
N405 N 0.58804 0.24463 0.19348 0.0
C406 C 0.53824 0.26932 0.20946 0.0
C407 C 0.54365 0.2073 0.20631 0.0
C408 C 0.57555 0.21211 0.19644 0.0
C409 C 0.5245 0.23625 0.21298 0.0
H410 H 0.58051 0.29842 0.19726 0.0
H411 H 0.59005 0.18997 0.19112 0.0
O412 O 0.69648 0.29987 0.15828 0.0
O413 O 0.6522 0.29506 0.19729 0.0
O414 O 0.61966 0.28533 0.15333 0.0
O415 O 0.66833 0.22713 0.17182 0.0
H416 H 0.75869 0.272 0.15849 0.0
H417 H 0.68585 0.32839 0.12106 0.0
H418 H 0.79908 0.27246 0.12853 0.0
H419 H 0.72758 0.32815 0.09182 0.0
H420 H 0.65745 0.21692 0.25037 0.0
H421 H 0.64045 0.33829 0.22877 0.0
H422 H 0.66109 0.23224 0.2128 0.0
H423 H 0.6368 0.32117 0.26605 0.0
H424 H 0.62704 0.42748 0.13345 0.0
H425 H 0.58491 0.41281 0.19541 0.0
H426 H 0.80311 0.21739 0.20515 0.0
H427 H 0.77271 0.3124 0.23593 0.0
H428 H 0.58312 0.22937 0.14387 0.0
H429 H 0.5769 0.33869 0.15605 0.0
H430 H 0.51999 0.22801 0.13958 0.0
H431 H 0.51389 0.33542 0.15161 0.0
H432 H 0.63366 0.20041 0.13991 0.0
H433 H 0.678 0.17791 0.20008 0.0
H434 H 0.61214 0.14021 0.13817 0.0
H435 H 0.6558 0.11799 0.19724 0.0
H436 H 0.72888 0.21221 0.0884 0.0
H437 H 0.63894 0.2737 0.07419 0.0
H438 H 0.52429 0.29252 0.21369 0.0
H439 H 0.53427 0.18126 0.2088 0.0
Li440 Li 0.23067 0.18894 0.68599 0.0
Li441 Li 0.22948 0.16854 0.65129 0.0
Li442 Li 0.18437 0.15108 0.67392 0.0
Li443 Li 0.24339 0.12657 0.67791 0.0
C444 C 0.17081 0.22058 0.67355 0.0
N445 N 0.12427 0.2652 0.69206 0.0
C446 C 0.16267 0.2521 0.66402 0.0
C447 C 0.15534 0.21193 0.69261 0.0
C448 C 0.13906 0.27425 0.67359 0.0
C449 C 0.13186 0.23477 0.70168 0.0
C450 C 0.29689 0.17023 0.65639 0.0
C451 C 0.34207 0.14274 0.63664 0.0
N452 N 0.34939 0.17357 0.6274 0.0
C453 C 0.30499 0.20169 0.64681 0.0
C454 C 0.31562 0.14052 0.65136 0.0
C455 C 0.33157 0.20281 0.63213 0.0
C456 C 0.22212 0.22923 0.72275 0.0
N457 N 0.2381 0.22798 0.70384 0.0
C458 C 0.25509 0.28722 0.70708 0.0
C459 C 0.25476 0.25603 0.69599 0.0
C460 C 0.23778 0.2896 0.72633 0.0
C461 C 0.22177 0.25984 0.73433 0.0
H462 H 0.20817 0.20698 0.72845 0.0
H463 H 0.26643 0.25464 0.68067 0.0
C464 C 0.21678 0.20665 0.61481 0.0
N465 N 0.23643 0.18037 0.62231 0.0
C466 C 0.21648 0.2143 0.59348 0.0
C467 C 0.25724 0.16811 0.58786 0.0
C468 C 0.25682 0.16142 0.60936 0.0
C469 C 0.23647 0.19457 0.57963 0.0
H470 H 0.2003 0.2209 0.62528 0.0
H471 H 0.27188 0.14031 0.61556 0.0
C472 C 0.22568 0.13895 0.71894 0.0
N473 N 0.25351 0.12229 0.75739 0.0
C474 C 0.25925 0.1489 0.72385 0.0
C475 C 0.20625 0.12058 0.73357 0.0
C476 C 0.27286 0.14022 0.74338 0.0
C477 C 0.22078 0.11239 0.75293 0.0
C478 C 0.2048 0.10929 0.63545 0.0
C479 C 0.17694 0.12144 0.62378 0.0
C480 C 0.227 0.08473 0.62681 0.0
C481 C 0.172 0.10909 0.60347 0.0
C482 C 0.22114 0.07297 0.60645 0.0
N483 N 0.19403 0.08533 0.59529 0.0
C484 C 0.11039 0.14794 0.66817 0.0
C485 C 0.13874 0.1044 0.68783 0.0
C486 C 0.07909 0.13039 0.67016 0.0
N487 N 0.13927 0.13448 0.67692 0.0
C488 C 0.10829 0.08615 0.69022 0.0
C489 C 0.07795 0.09887 0.68118 0.0
H490 H 0.11181 0.17168 0.65925 0.0
H491 H 0.16241 0.09402 0.69408 0.0
C492 C 0.29053 0.07807 0.69831 0.0
N493 N 0.26167 0.0831 0.68668 0.0
C494 C 0.29751 0.04533 0.70681 0.0
C495 C 0.24563 0.02379 0.69065 0.0
C496 C 0.23959 0.05671 0.68265 0.0
C497 C 0.27459 0.01776 0.7032 0.0
H498 H 0.30736 0.09965 0.70165 0.0
H499 H 0.21631 0.06158 0.67392 0.0
O500 O 0.19474 0.1992 0.66455 0.0
O501 O 0.27098 0.16851 0.67079 0.0
O502 O 0.21206 0.14651 0.69975 0.0
O503 O 0.21058 0.12167 0.65515 0.0
H504 H 0.17469 0.25961 0.64945 0.0
H505 H 0.16148 0.18804 0.7005 0.0
H506 H 0.1326 0.29871 0.66636 0.0
H507 H 0.11978 0.22836 0.71642 0.0
H508 H 0.35669 0.11994 0.63253 0.0
H509 H 0.29064 0.22488 0.65047 0.0
H510 H 0.30965 0.11598 0.65863 0.0
H511 H 0.33798 0.22692 0.62447 0.0
H512 H 0.26738 0.30963 0.7002 0.0
H513 H 0.2084 0.2604 0.74919 0.0
H514 H 0.19965 0.23455 0.58781 0.0
H515 H 0.27322 0.1524 0.57776 0.0
H516 H 0.27473 0.16301 0.71268 0.0
H517 H 0.18021 0.1127 0.73002 0.0
H518 H 0.29883 0.14768 0.74737 0.0
H519 H 0.20605 0.09815 0.76441 0.0
H520 H 0.15963 0.14056 0.63026 0.0
H521 H 0.24876 0.0752 0.63565 0.0
H522 H 0.15072 0.11845 0.59417 0.0
H523 H 0.23823 0.05413 0.5995 0.0
H524 H 0.05624 0.141 0.66293 0.0
H525 H 0.10888 0.06154 0.69831 0.0
H526 H 0.32017 0.04178 0.7164 0.0
H527 H 0.22682 0.00366 0.68783 0.0
Li528 Li 0.30453 0.72939 0.18058 0.0
Li529 Li 0.3455 0.69133 0.16507 0.0
Li530 Li 0.36626 0.74314 0.17976 0.0
Li531 Li 0.3317 0.74349 0.14626 0.0
C532 C 0.3394 0.71284 0.21547 0.0
N533 N 0.3333 0.72846 0.25751 0.0
C534 C 0.3378 0.68633 0.23031 0.0
C535 C 0.33771 0.74733 0.22203 0.0
C536 C 0.33477 0.69475 0.25148 0.0
C537 C 0.33469 0.75468 0.24335 0.0
C538 C 0.29042 0.67504 0.14354 0.0
C539 C 0.28129 0.64178 0.11208 0.0
N540 N 0.27096 0.61442 0.12388 0.0
C541 C 0.27964 0.64659 0.15534 0.0
C542 C 0.29127 0.67263 0.12172 0.0
C543 C 0.26996 0.61617 0.14512 0.0
C544 C 0.24705 0.76229 0.2002 0.0
N545 N 0.26345 0.73181 0.19667 0.0
C546 C 0.22141 0.70115 0.21663 0.0
C547 C 0.25152 0.70166 0.20481 0.0
C548 C 0.2036 0.73213 0.22055 0.0
C549 C 0.21704 0.76308 0.21224 0.0
H550 H 0.25736 0.78596 0.19373 0.0
H551 H 0.26548 0.67793 0.20215 0.0
C552 C 0.3782 0.63285 0.1798 0.0
N553 N 0.3621 0.64503 0.16242 0.0
C554 C 0.39997 0.60435 0.17846 0.0
C555 C 0.38701 0.60034 0.14155 0.0
C556 C 0.36487 0.62852 0.14369 0.0
C557 C 0.40552 0.58883 0.15899 0.0
H558 H 0.37632 0.64685 0.19437 0.0
H559 H 0.35248 0.63896 0.12999 0.0
C560 C 0.33808 0.80748 0.16807 0.0
N561 N 0.36107 0.87384 0.1601 0.0
C562 C 0.36378 0.81317 0.15319 0.0
C563 C 0.32416 0.83554 0.17894 0.0
C564 C 0.37501 0.84691 0.14935 0.0
C565 C 0.33613 0.86889 0.17469 0.0
C566 C 0.40176 0.70575 0.1416 0.0
C567 C 0.43301 0.69788 0.15127 0.0
C568 C 0.39567 0.69431 0.12118 0.0
C569 C 0.45758 0.67864 0.14039 0.0
C570 C 0.42089 0.67513 0.11081 0.0
N571 N 0.45107 0.66776 0.12055 0.0
C572 C 0.4208 0.7305 0.20556 0.0
C573 C 0.42444 0.78763 0.19237 0.0
C574 C 0.45309 0.73332 0.21468 0.0
N575 N 0.40718 0.75717 0.19442 0.0
C576 C 0.45729 0.79148 0.20115 0.0
C577 C 0.47235 0.76367 0.21203 0.0
H578 H 0.40738 0.70611 0.20644 0.0
H579 H 0.41355 0.80843 0.18328 0.0
C580 C 0.2903 0.76494 0.1127 0.0
N581 N 0.32354 0.76208 0.11902 0.0
C582 C 0.28252 0.76851 0.09146 0.0
C583 C 0.34338 0.76896 0.08393 0.0
C584 C 0.34997 0.76576 0.1053 0.0
C585 C 0.30929 0.76888 0.07675 0.0
H586 H 0.2698 0.76153 0.12395 0.0
H587 H 0.37619 0.76361 0.11071 0.0
O588 O 0.34194 0.70476 0.19465 0.0
O589 O 0.29984 0.70512 0.15329 0.0
O590 O 0.32628 0.77476 0.17195 0.0
O591 O 0.3775 0.72493 0.15194 0.0
H592 H 0.33875 0.6595 0.22551 0.0
H593 H 0.33879 0.76828 0.21088 0.0
H594 H 0.33352 0.67447 0.26312 0.0
H595 H 0.33343 0.78124 0.24863 0.0
H596 H 0.28193 0.63955 0.09521 0.0
H597 H 0.27923 0.64777 0.17221 0.0
H598 H 0.29992 0.6941 0.11228 0.0
H599 H 0.26175 0.59391 0.15408 0.0
H600 H 0.21204 0.67655 0.22237 0.0
H601 H 0.20473 0.78773 0.21514 0.0
H602 H 0.41435 0.59624 0.19212 0.0
H603 H 0.39118 0.58899 0.12626 0.0
H604 H 0.37536 0.79181 0.14493 0.0
H605 H 0.30431 0.83158 0.19056 0.0
H606 H 0.39495 0.85166 0.13791 0.0
H607 H 0.32557 0.89084 0.183 0.0
H608 H 0.43838 0.70656 0.16697 0.0
H609 H 0.37137 0.69934 0.11358 0.0
H610 H 0.48183 0.67232 0.14773 0.0
H611 H 0.41635 0.6659 0.09508 0.0
H612 H 0.46324 0.71142 0.22325 0.0
H613 H 0.47128 0.81534 0.19865 0.0
H614 H 0.25591 0.7682 0.0865 0.0
H615 H 0.36468 0.76957 0.07303 0.0
Li616 Li 0.74423 0.86849 0.68249 0.0
Li617 Li 0.80262 0.84822 0.67815 0.0
Li618 Li 0.76033 0.83195 0.65171 0.0
Li619 Li 0.75952 0.80574 0.68768 0.0
C620 C 0.78688 0.9101 0.65358 0.0
N621 N 0.80868 0.97533 0.64183 0.0
C622 C 0.80173 0.93229 0.66829 0.0
C623 C 0.78309 0.92112 0.63288 0.0
C624 C 0.81262 0.96514 0.66205 0.0
C625 C 0.79426 0.95419 0.62726 0.0
C626 C 0.78996 0.85709 0.72194 0.0
C627 C 0.81954 0.84367 0.75414 0.0
N628 N 0.82213 0.87804 0.75841 0.0
C629 C 0.79292 0.8923 0.72671 0.0
C630 C 0.80339 0.83257 0.73581 0.0
C631 C 0.80926 0.90236 0.74518 0.0
C632 C 0.71304 0.91142 0.71291 0.0
N633 N 0.71975 0.90847 0.69211 0.0
C634 C 0.71153 0.96919 0.68727 0.0
C635 C 0.71704 0.93617 0.6791 0.0
C636 C 0.70847 0.97362 0.70899 0.0
C637 C 0.70737 0.94403 0.72177 0.0
H638 H 0.7155 0.88901 0.72294 0.0
H639 H 0.72192 0.93321 0.66258 0.0
C640 C 0.86204 0.87518 0.66101 0.0
N641 N 0.849 0.86431 0.67963 0.0
C642 C 0.89001 0.89769 0.66055 0.0
C643 C 0.89302 0.89416 0.69827 0.0
C644 C 0.86526 0.87139 0.69796 0.0
C645 C 0.90448 0.90862 0.67946 0.0
H646 H 0.84877 0.86893 0.64664 0.0
H647 H 0.85558 0.86142 0.7125 0.0
C648 C 0.68958 0.83683 0.66174 0.0
N649 N 0.62954 0.85877 0.64286 0.0
C650 C 0.65852 0.82028 0.66619 0.0
C651 C 0.6901 0.86459 0.64772 0.0
C652 C 0.62843 0.83174 0.65647 0.0
C653 C 0.65949 0.87527 0.63833 0.0
C654 C 0.82726 0.7881 0.66744 0.0
C655 C 0.84856 0.78501 0.64993 0.0
C656 C 0.83941 0.77794 0.68707 0.0
C657 C 0.8818 0.77198 0.65241 0.0
C658 C 0.87279 0.76505 0.6889 0.0
N659 N 0.89314 0.76238 0.67168 0.0
C660 C 0.78619 0.83066 0.61187 0.0
C661 C 0.72826 0.81203 0.61236 0.0
C662 C 0.7884 0.82461 0.59044 0.0
N663 N 0.75664 0.82407 0.6224 0.0
C664 C 0.72899 0.80652 0.59071 0.0
C665 C 0.75951 0.81254 0.57938 0.0
H666 H 0.8083 0.84032 0.62028 0.0
H667 H 0.7051 0.80658 0.62108 0.0
C668 C 0.74539 0.76352 0.72341 0.0
N669 N 0.75242 0.76369 0.70258 0.0
C670 C 0.74655 0.73251 0.73468 0.0
C671 C 0.75955 0.70226 0.70254 0.0
C672 C 0.7587 0.73387 0.69197 0.0
C673 C 0.75432 0.70148 0.72425 0.0
H674 H 0.74034 0.78763 0.73143 0.0
H675 H 0.76446 0.73484 0.67543 0.0
O676 O 0.77601 0.87774 0.65929 0.0
O677 O 0.77379 0.84663 0.70397 0.0
O678 O 0.71915 0.82606 0.67132 0.0
O679 O 0.79495 0.80167 0.66551 0.0
H680 H 0.80521 0.92411 0.68428 0.0
H681 H 0.77148 0.90436 0.62131 0.0
H682 H 0.82427 0.98249 0.67328 0.0
H683 H 0.79145 0.96307 0.6113 0.0
H684 H 0.83011 0.82495 0.76495 0.0
H685 H 0.78288 0.91177 0.71628 0.0
H686 H 0.80176 0.80526 0.73243 0.0
H687 H 0.81174 0.92951 0.74899 0.0
H688 H 0.71174 0.99125 0.67682 0.0
H689 H 0.70513 0.94625 0.7386 0.0
H690 H 0.89845 0.90853 0.64579 0.0
H691 H 0.9041 0.90195 0.71309 0.0
H692 H 0.65767 0.79881 0.67706 0.0
H693 H 0.71388 0.87758 0.64395 0.0
H694 H 0.6042 0.81916 0.65977 0.0
H695 H 0.65955 0.89666 0.62741 0.0
H696 H 0.83959 0.79256 0.6346 0.0
H697 H 0.82332 0.78024 0.70077 0.0
H698 H 0.89859 0.76953 0.63901 0.0
H699 H 0.88255 0.75723 0.70403 0.0
H700 H 0.81283 0.82886 0.58279 0.0
H701 H 0.70582 0.79774 0.583 0.0
H702 H 0.74206 0.73285 0.7514 0.0
H703 H 0.76583 0.67891 0.69398 0.0
C704 C 0.06517 0.01854 0.31699 0.0
C705 C 0.07049 0.04875 0.30537 0.0
C706 C 0.03556 0.99855 0.31406 0.0
C707 C 0.01066 0.00925 0.29925 0.0
C708 C 0.01712 0.03831 0.28639 0.0
C709 C 0.04708 0.05776 0.28959 0.0
C710 C 0.02985 0.96733 0.32785 0.0
C711 C 0.9913 0.05039 0.27036 0.0
C712 C 0.94111 0.94282 0.28965 0.0
C713 C 0.91684 0.9523 0.30485 0.0
C714 C 0.97097 0.96245 0.28658 0.0
C715 C 0.97655 0.99216 0.29902 0.0
C716 C 0.95085 0.00333 0.31319 0.0
C717 C 0.92129 0.98318 0.31597 0.0
C718 C 0.99765 0.94986 0.27123 0.0
C719 C 0.95567 0.03522 0.32652 0.0
H720 H 0.08343 0.0115 0.32908 0.0
H721 H 0.05097 0.08136 0.28073 0.0
H722 H 0.00846 0.97262 0.33888 0.0
H723 H 0.02239 0.94461 0.31827 0.0
H724 H 0.05309 0.96057 0.33708 0.0
H725 H 0.0025 0.06964 0.25941 0.0
H726 H 0.98122 0.02823 0.26119 0.0
H727 H 0.96918 0.06256 0.27846 0.0
H728 H 0.93798 0.91874 0.28116 0.0
H729 H 0.90237 0.99069 0.32757 0.0
H730 H 0.0194 0.93814 0.27992 0.0
H731 H 0.00808 0.97168 0.26191 0.0
H732 H 0.98708 0.93009 0.26037 0.0
H733 H 0.97638 0.03053 0.33811 0.0
H734 H 0.93188 0.04235 0.33511 0.0
H735 H 0.96366 0.05749 0.31672 0.0
C736 C 0.47735 0.57464 0.82999 0.0
C737 C 0.44743 0.57649 0.81789 0.0
C738 C 0.50083 0.54753 0.82723 0.0
C739 C 0.49396 0.52156 0.81216 0.0
C740 C 0.46428 0.52384 0.79949 0.0
C741 C 0.44137 0.55138 0.80247 0.0
C742 C 0.53251 0.54615 0.84085 0.0
C743 C 0.45604 0.49652 0.78336 0.0
C744 C 0.57065 0.46666 0.79741 0.0
C745 C 0.56725 0.4388 0.81132 0.0
C746 C 0.54608 0.4931 0.79677 0.0
C747 C 0.51738 0.49145 0.81029 0.0
C748 C 0.51259 0.46219 0.82331 0.0
C749 C 0.53766 0.43614 0.82368 0.0
C750 C 0.55189 0.52373 0.78254 0.0
C751 C 0.48205 0.45939 0.83779 0.0
H752 H 0.48208 0.59413 0.84184 0.0
H753 H 0.41792 0.55242 0.79334 0.0
H754 H 0.53173 0.52265 0.85082 0.0
H755 H 0.55589 0.54437 0.83098 0.0
H756 H 0.53484 0.56918 0.85115 0.0
H757 H 0.43322 0.5034 0.77378 0.0
H758 H 0.47827 0.49252 0.77278 0.0
H759 H 0.45095 0.47151 0.79129 0.0
H760 H 0.59329 0.46843 0.78758 0.0
H761 H 0.53505 0.41473 0.83452 0.0
H762 H 0.55778 0.54695 0.7921 0.0
H763 H 0.52834 0.5295 0.77341 0.0
H764 H 0.57349 0.51936 0.77148 0.0
H765 H 0.48413 0.47923 0.85027 0.0
H766 H 0.48028 0.43351 0.84527 0.0
H767 H 0.45787 0.46446 0.82912 0.0
C768 C 0.57234 0.4773 0.17664 0.0
C769 C 0.57887 0.45323 0.16074 0.0
C770 C 0.54519 0.50095 0.17488 0.0
C771 C 0.52401 0.50021 0.15688 0.0
C772 C 0.53151 0.47709 0.14035 0.0
C773 C 0.55894 0.45388 0.14247 0.0
C774 C 0.53827 0.52569 0.19268 0.0
C775 C 0.50942 0.47551 0.12096 0.0
C776 C 0.43271 0.53148 0.16512 0.0
C777 C 0.4343 0.56464 0.1565 0.0
C778 C 0.46154 0.50973 0.1647 0.0
C779 C 0.49272 0.52205 0.15598 0.0
C780 C 0.49419 0.5555 0.14705 0.0
C781 C 0.46474 0.57632 0.14725 0.0
C782 C 0.45887 0.47393 0.17401 0.0
C783 C 0.52711 0.56975 0.13799 0.0
H784 H 0.5879 0.47696 0.19071 0.0
H785 H 0.56357 0.43495 0.13028 0.0
H786 H 0.53585 0.55252 0.18669 0.0
H787 H 0.51355 0.51892 0.20029 0.0
H788 H 0.55887 0.52504 0.2047 0.0
H789 H 0.52042 0.45816 0.10883 0.0
H790 H 0.48345 0.4659 0.12516 0.0
H791 H 0.5062 0.5017 0.11414 0.0
H792 H 0.40905 0.52282 0.1724 0.0
H793 H 0.46581 0.60227 0.14087 0.0
H794 H 0.47604 0.47186 0.1878 0.0
H795 H 0.46746 0.45431 0.16246 0.0
H796 H 0.43226 0.46759 0.17898 0.0
H797 H 0.54685 0.57165 0.15047 0.0
H798 H 0.52353 0.59578 0.13095 0.0
H799 H 0.53732 0.55201 0.12585 0.0
C800 C 0.03832 0.05895 0.7002 0.0
C801 C 0.04639 0.07744 0.68197 0.0
C802 C 0.0128 0.03342 0.70012 0.0
C803 C 0.99452 0.02669 0.68144 0.0
C804 C 0.00067 0.04708 0.66344 0.0
C805 C 0.02673 0.07215 0.66387 0.0
C806 C 0.00692 0.01227 0.71967 0.0
C807 C 0.9811 0.04109 0.64337 0.0
C808 C 0.96197 0.93511 0.67371 0.0
C809 C 0.9277 0.9385 0.6798 0.0
C810 C 0.98402 0.9638 0.6741 0.0
C811 C 0.97107 0.99651 0.68034 0.0
C812 C 0.93615 2e-05 0.6861 0.0
C813 C 0.9149 0.97078 0.68592 0.0
C814 C 0.02125 0.95903 0.6681 0.0
C815 C 0.92131 0.03454 0.69248 0.0
H816 H 0.05298 0.06348 0.71436 0.0
H817 H 0.03293 0.08621 0.64969 0.0
H818 H 0.97921 0.01169 0.72369 0.0
H819 H 0.01511 0.98516 0.71686 0.0
H820 H 0.02142 0.0225 0.7333 0.0
H821 H 0.98578 0.06189 0.63172 0.0
H822 H 0.98907 0.01605 0.63641 0.0
H823 H 0.95311 0.03951 0.6465 0.0
H824 H 0.97151 0.90997 0.66891 0.0
H825 H 0.88812 0.9731 0.69042 0.0
H826 H 0.03803 0.96645 0.6814 0.0
H827 H 0.02779 0.97623 0.6548 0.0
H828 H 0.02718 0.93192 0.66361 0.0
H829 H 0.9343 0.04399 0.70683 0.0
H830 H 0.89325 0.03309 0.69555 0.0
H831 H 0.92595 0.05399 0.68004 0.0
C832 C 0.17745 0.22433 0.46182 0.0
C833 C 0.20472 0.22569 0.44751 0.0
C834 C 0.18354 0.22009 0.48331 0.0
C835 C 0.21775 0.21738 0.4907 0.0
C836 C 0.24542 0.21946 0.47637 0.0
C837 C 0.23856 0.22344 0.45494 0.0
C838 C 0.15333 0.21772 0.49807 0.0
C839 C 0.28223 0.217 0.48366 0.0
C840 C 0.23272 0.23419 0.54859 0.0
C841 C 0.23403 0.20047 0.55669 0.0
C842 C 0.22801 0.24009 0.5271 0.0
C843 C 0.22447 0.21159 0.51337 0.0
C844 C 0.22645 0.17748 0.52138 0.0
C845 C 0.23122 0.17233 0.54293 0.0
C846 C 0.22626 0.27683 0.51915 0.0
C847 C 0.22267 0.1464 0.50725 0.0
H848 H 0.15124 0.22556 0.45612 0.0
H849 H 0.25972 0.22477 0.44394 0.0
H850 H 0.15333 0.19216 0.50597 0.0
H851 H 0.1555 0.23775 0.51043 0.0
H852 H 0.12837 0.2211 0.48989 0.0
H853 H 0.30083 0.22033 0.47063 0.0
H854 H 0.28743 0.23702 0.49569 0.0
H855 H 0.28677 0.19145 0.49106 0.0
H856 H 0.23526 0.25604 0.55911 0.0
H857 H 0.23169 0.14621 0.54909 0.0
H858 H 0.20065 0.28177 0.51214 0.0
H859 H 0.24564 0.28085 0.50666 0.0
H860 H 0.23076 0.29612 0.53174 0.0
H861 H 0.19687 0.14656 0.49986 0.0
H862 H 0.22596 0.12161 0.51582 0.0
H863 H 0.2419 0.14752 0.49446 0.0
C864 C 0.2905 0.74858 0.95263 0.0
C865 C 0.26411 0.72516 0.94758 0.0
C866 C 0.29634 0.75905 0.97335 0.0
C867 C 0.27605 0.74501 0.98962 0.0
C868 C 0.24892 0.722 0.9847 0.0
C869 C 0.24297 0.71277 0.96376 0.0
C870 C 0.32513 0.78415 0.97789 0.0
C871 C 0.22706 0.70601 0.00166 0.0
C872 C 0.3179 0.73778 0.04305 0.0
C873 C 0.3018 0.7645 0.05416 0.0
C874 C 0.30962 0.73117 0.02209 0.0
C875 C 0.28501 0.75217 0.01185 0.0
C876 C 0.26909 0.77964 0.02288 0.0
C877 C 0.27738 0.78522 0.04404 0.0
C878 C 0.32675 0.70123 0.01103 0.0
C879 C 0.24331 0.80303 0.01235 0.0
H880 H 0.30755 0.75798 0.94051 0.0
H881 H 0.222 0.69535 0.96015 0.0
H882 H 0.31595 0.80524 0.98827 0.0
H883 H 0.34618 0.77056 0.98622 0.0
H884 H 0.3358 0.79581 0.9634 0.0
H885 H 0.20603 0.68976 0.99521 0.0
H886 H 0.24335 0.68964 0.01191 0.0
H887 H 0.21562 0.72646 0.01163 0.0
H888 H 0.33631 0.7213 0.05097 0.0
H889 H 0.26492 0.80587 0.05265 0.0
H890 H 0.34097 0.71068 0.99712 0.0
H891 H 0.307 0.68273 0.00539 0.0
H892 H 0.34499 0.68712 0.02132 0.0
H893 H 0.25493 0.81496 0.99823 0.0
H894 H 0.23415 0.82395 0.02289 0.0
H895 H 0.22082 0.78773 0.00708 0.0
C896 C 0.74253 0.77916 0.54698 0.0
C897 C 0.7617 0.80583 0.55636 0.0
C898 C 0.7454 0.77202 0.52549 0.0
C899 C 0.76889 0.79111 0.51316 0.0
C900 C 0.78824 0.81804 0.52242 0.0
C901 C 0.78386 0.82553 0.54372 0.0
C902 C 0.72347 0.74386 0.51602 0.0
C903 C 0.81408 0.83862 0.50991 0.0
C904 C 0.8042 0.75187 0.46307 0.0
C905 C 0.78777 0.77178 0.44761 0.0
C906 C 0.79801 0.75758 0.48444 0.0
C907 C 0.77372 0.78285 0.4906 0.0
C908 C 0.75561 0.80169 0.47517 0.0
C909 C 0.76331 0.79645 0.45395 0.0
C910 C 0.81847 0.7375 0.50043 0.0
C911 C 0.72874 0.82815 0.48108 0.0
H912 H 0.72565 0.76332 0.55645 0.0
H913 H 0.79807 0.84691 0.55042 0.0
H914 H 0.70938 0.75402 0.50222 0.0
H915 H 0.74 0.72239 0.51045 0.0
H916 H 0.70455 0.73327 0.52734 0.0
H917 H 0.82808 0.8578 0.51965 0.0
H918 H 0.83311 0.82091 0.50266 0.0
H919 H 0.80097 0.85259 0.49703 0.0
H920 H 0.82241 0.73205 0.45857 0.0
H921 H 0.75073 0.8126 0.44243 0.0
H922 H 0.80098 0.72358 0.51122 0.0
H923 H 0.83397 0.75565 0.51003 0.0
H924 H 0.83607 0.7184 0.49309 0.0
H925 H 0.71051 0.81707 0.49263 0.0
H926 H 0.71397 0.83738 0.4673 0.0
H927 H 0.74125 0.85077 0.48855 0.0
C928 C 0.72432 0.31311 0.96522 0.0
C929 C 0.73134 0.28848 0.94965 0.0
C930 C 0.71877 0.30321 0.98606 0.0
C931 C 0.7208 0.26782 0.99162 0.0
C932 C 0.72917 0.24292 0.97621 0.0
C933 C 0.73413 0.2535 0.95538 0.0
C934 C 0.70979 0.33059 0.00201 0.0
C935 C 0.73197 0.205 0.9816 0.0
C936 C 0.72932 0.25062 0.04994 0.0
C937 C 0.69506 0.24427 0.05564 0.0
C938 C 0.73839 0.25675 0.02899 0.0
C939 C 0.71254 0.25696 0.01341 0.0
C940 C 0.67818 0.24918 0.01893 0.0
C941 C 0.66991 0.24271 0.03993 0.0
C942 C 0.77539 0.26454 0.02368 0.0
C943 C 0.64981 0.24926 0.00281 0.0
H944 H 0.72282 0.34026 0.96107 0.0
H945 H 0.73916 0.23419 0.94349 0.0
H946 H 0.68383 0.32547 0.00849 0.0
H947 H 0.72818 0.32971 0.01525 0.0
H948 H 0.71005 0.35707 0.99525 0.0
H949 H 0.74139 0.1893 0.96822 0.0
H950 H 0.74966 0.20133 0.99503 0.0
H951 H 0.70645 0.19499 0.9864 0.0
H952 H 0.74889 0.25233 0.06195 0.0
H953 H 0.64349 0.23726 0.04415 0.0
H954 H 0.77789 0.29207 0.01902 0.0
H955 H 0.7839 0.2486 0.01021 0.0
H956 H 0.79288 0.25965 0.03709 0.0
H957 H 0.64668 0.27574 0.99637 0.0
H958 H 0.62481 0.24077 0.00943 0.0
H959 H 0.65654 0.23201 0.98956 0.0
C960 C 0.48047 0.25608 0.2391 0.0
C961 C 0.49027 0.23269 0.22336 0.0
C962 C 0.44743 0.25539 0.24782 0.0
C963 C 0.42365 0.23001 0.24116 0.0
C964 C 0.43364 0.20542 0.22588 0.0
C965 C 0.46672 0.20722 0.21703 0.0
C966 C 0.43779 0.28227 0.26395 0.0
C967 C 0.40922 0.17751 0.2187 0.0
C968 C 0.34946 0.21396 0.27856 0.0
C969 C 0.32296 0.23315 0.26929 0.0
C970 C 0.38199 0.21167 0.26918 0.0
C971 C 0.38836 0.22952 0.25023 0.0
C972 C 0.36153 0.2486 0.24065 0.0
C973 C 0.32901 0.24991 0.2502 0.0
C974 C 0.40966 0.19053 0.2797 0.0
C975 C 0.36744 0.26849 0.22065 0.0
H976 H 0.49864 0.27528 0.24459 0.0
H977 H 0.47377 0.18918 0.20479 0.0
H978 H 0.41512 0.29718 0.2585 0.0
H979 H 0.4305 0.26949 0.27884 0.0
H980 H 0.45906 0.30069 0.26715 0.0
H981 H 0.42149 0.1592 0.20758 0.0
H982 H 0.39953 0.16271 0.23235 0.0
H983 H 0.38663 0.18942 0.21094 0.0
H984 H 0.34464 0.20052 0.29316 0.0
H985 H 0.30855 0.26482 0.24305 0.0
H986 H 0.4309 0.2077 0.2848 0.0
H987 H 0.42066 0.17162 0.26848 0.0
H988 H 0.39988 0.17627 0.29356 0.0
H989 H 0.38718 0.28875 0.22328 0.0
H990 H 0.34363 0.28108 0.21482 0.0
H991 H 0.3774 0.25098 0.20831 0.0
C992 C 0.23936 0.84424 0.76517 0.0
C993 C 0.26742 0.82167 0.76707 0.0
C994 C 0.24251 0.87598 0.75464 0.0
C995 C 0.27449 0.88543 0.74572 0.0
C996 C 0.30288 0.86273 0.74749 0.0
C997 C 0.29903 0.8312 0.75816 0.0
C998 C 0.21157 0.8994 0.75303 0.0
C999 C 0.33738 0.87186 0.73821 0.0
C1000 C 0.27129 0.95293 0.70255 0.0
C1001 C 0.27893 0.98347 0.7135 0.0
C1002 C 0.27065 0.92075 0.71272 0.0
C1003 C 0.27801 0.91894 0.73438 0.0
C1004 C 0.28721 0.94943 0.74534 0.0
C1005 C 0.28754 0.98134 0.73477 0.0
C1006 C 0.26093 0.88884 0.70043 0.0
C1007 C 0.29536 0.94855 0.76842 0.0
H1008 H 0.21476 0.83694 0.77179 0.0
H1009 H 0.32103 0.81425 0.75986 0.0
H1010 H 0.21745 0.92494 0.7601 0.0
H1011 H 0.20516 0.90395 0.73634 0.0
H1012 H 0.18865 0.88843 0.76097 0.0
H1013 H 0.35683 0.85126 0.7408 0.0
H1014 H 0.33479 0.8763 0.72114 0.0
H1015 H 0.34699 0.89628 0.74522 0.0
H1016 H 0.26509 0.9543 0.68604 0.0
H1017 H 0.29309 0.00481 0.74341 0.0
H1018 H 0.23643 0.87816 0.70652 0.0
H1019 H 0.28081 0.86852 0.70236 0.0
H1020 H 0.25776 0.89432 0.68348 0.0
H1021 H 0.27208 0.94096 0.77732 0.0
H1022 H 0.30438 0.97402 0.77433 0.0
H1023 H 0.31541 0.92888 0.77168 0.0
C1024 C 0.67189 0.77023 0.24585 0.0
C1025 C 0.67478 0.76018 0.2669 0.0
C1026 C 0.63969 0.77261 0.23602 0.0
C1027 C 0.60962 0.76419 0.24738 0.0
C1028 C 0.61233 0.75363 0.26852 0.0
C1029 C 0.64478 0.752 0.27805 0.0
C1030 C 0.63785 0.78414 0.21348 0.0
C1031 C 0.5809 0.74401 0.2811 0.0
C1032 C 0.52137 0.79494 0.22956 0.0
C1033 C 0.50837 0.76511 0.21989 0.0
C1034 C 0.55469 0.79539 0.23809 0.0
C1035 C 0.57535 0.76523 0.23703 0.0
C1036 C 0.56273 0.73543 0.22676 0.0
C1037 C 0.5296 0.73585 0.21818 0.0
C1038 C 0.5675 0.82782 0.24868 0.0
C1039 C 0.58386 0.70273 0.22531 0.0
H1040 H 0.69485 0.77615 0.23697 0.0
H1041 H 0.64652 0.74489 0.29441 0.0
H1042 H 0.62667 0.76325 0.20372 0.0
H1043 H 0.6207 0.80695 0.21205 0.0
H1044 H 0.66349 0.791 0.20707 0.0
H1045 H 0.58739 0.73612 0.29734 0.0
H1046 H 0.56292 0.76625 0.28179 0.0
H1047 H 0.56712 0.72236 0.27338 0.0
H1048 H 0.50517 0.81763 0.23099 0.0
H1049 H 0.52019 0.71297 0.21022 0.0
H1050 H 0.5927 0.83556 0.24204 0.0
H1051 H 0.57146 0.82279 0.26559 0.0
H1052 H 0.54927 0.84976 0.24696 0.0
H1053 H 0.60892 0.70822 0.21775 0.0
H1054 H 0.57064 0.68207 0.2163 0.0
H1055 H 0.58937 0.69282 0.24126 0.0
C1056 C 0.75393 0.14022 0.77675 0.0
C1057 C 0.7367 0.17029 0.77037 0.0
C1058 C 0.74882 0.10861 0.76636 0.0
C1059 C 0.72574 0.10697 0.74925 0.0
C1060 C 0.70846 0.13729 0.74264 0.0
C1061 C 0.71421 0.16859 0.75324 0.0
C1062 C 0.76805 0.07695 0.77373 0.0
C1063 C 0.68358 0.13658 0.72453 0.0
C1064 C 0.73587 0.03203 0.71128 0.0
C1065 C 0.71078 0.00873 0.71841 0.0
C1066 C 0.74069 0.06423 0.72099 0.0
C1067 C 0.71984 0.07351 0.73823 0.0
C1068 C 0.69401 0.05043 0.74527 0.0
C1069 C 0.6899 0.01823 0.73534 0.0
C1070 C 0.76872 0.08792 0.71312 0.0
C1071 C 0.67109 0.05954 0.7635 0.0
H1072 H 0.77157 0.14145 0.78985 0.0
H1073 H 0.70041 0.19161 0.74843 0.0
H1074 H 0.74958 0.0566 0.77856 0.0
H1075 H 0.78363 0.06618 0.76074 0.0
H1076 H 0.78536 0.08264 0.78711 0.0
H1077 H 0.67237 0.16245 0.72125 0.0
H1078 H 0.69674 0.12722 0.71021 0.0
H1079 H 0.66237 0.11823 0.72791 0.0
H1080 H 0.7526 0.0246 0.69849 0.0
H1081 H 0.67043 0.00038 0.74087 0.0
H1082 H 0.78806 0.09207 0.72562 0.0
H1083 H 0.75785 0.1136 0.70909 0.0
H1084 H 0.78197 0.07733 0.69912 0.0
H1085 H 0.68683 0.06284 0.77784 0.0
H1086 H 0.65135 0.03939 0.76653 0.0
H1087 H 0.65793 0.08452 0.76052 0.0
C1088 C 0.95499 0.27264 0.29947 0.0
C1089 C 0.98635 0.27238 0.28867 0.0
C1090 C 0.92356 0.27239 0.28866 0.0
C1091 C 0.92348 0.27131 0.26651 0.0
C1092 C 0.95509 0.27152 0.25552 0.0
C1093 C 0.98615 0.27229 0.26673 0.0
C1094 C 0.89044 0.27278 0.30096 0.0
C1095 C 0.95613 0.26991 0.23193 0.0
C1096 C 0.84305 0.23603 0.24006 0.0
C1097 C 0.82665 0.26646 0.23336 0.0
C1098 C 0.87478 0.2372 0.25057 0.0
C1099 C 0.89029 0.26959 0.25487 0.0
C1100 C 0.87392 0.30036 0.24824 0.0
C1101 C 0.84262 0.29841 0.23738 0.0
C1102 C 0.89165 0.20375 0.25715 0.0
C1103 C 0.88938 0.33543 0.25272 0.0
H1104 H 0.95509 0.27276 0.31643 0.0
H1105 H 0.01035 0.27147 0.25835 0.0
H1106 H 0.8741 0.29472 0.29582 0.0
H1107 H 0.87582 0.24866 0.29795 0.0
H1108 H 0.89491 0.27507 0.31807 0.0
H1109 H 0.98278 0.2709 0.22574 0.0
H1110 H 0.94384 0.24562 0.22648 0.0
H1111 H 0.94133 0.29172 0.22516 0.0
H1112 H 0.83092 0.21121 0.23736 0.0
H1113 H 0.83083 0.32211 0.23188 0.0
H1114 H 0.89395 0.20284 0.27444 0.0
H1115 H 0.91805 0.20227 0.25066 0.0
H1116 H 0.87702 0.18066 0.25187 0.0
H1117 H 0.89299 0.33872 0.26982 0.0
H1118 H 0.8731 0.35695 0.24685 0.0
H1119 H 0.9151 0.33743 0.24535 0.0
C1120 C 0.26328 0.34549 0.73909 0.0
C1121 C 0.23492 0.32327 0.73751 0.0
C1122 C 0.2607 0.3774 0.7495 0.0
C1123 C 0.22895 0.3874 0.75851 0.0
C1124 C 0.20018 0.3652 0.75686 0.0
C1125 C 0.2035 0.33344 0.74638 0.0
C1126 C 0.29204 0.40028 0.75103 0.0
C1127 C 0.16587 0.37496 0.76618 0.0
C1128 C 0.23288 0.45376 0.80229 0.0
C1129 C 0.22532 0.48462 0.79167 0.0
C1130 C 0.23347 0.42189 0.79178 0.0
C1131 C 0.22615 0.42075 0.7701 0.0
C1132 C 0.21725 0.45161 0.75943 0.0
C1133 C 0.21696 0.4832 0.77034 0.0
C1134 C 0.24291 0.38958 0.80376 0.0
C1135 C 0.20917 0.45143 0.73633 0.0
H1136 H 0.28769 0.3377 0.73242 0.0
H1137 H 0.18128 0.31671 0.7449 0.0
H1138 H 0.28645 0.42607 0.74421 0.0
H1139 H 0.29887 0.40436 0.7677 0.0
H1140 H 0.31462 0.38908 0.74283 0.0
H1141 H 0.14588 0.35501 0.76329 0.0
H1142 H 0.1685 0.37868 0.78331 0.0
H1143 H 0.15697 0.39989 0.7595 0.0
H1144 H 0.23896 0.45462 0.81883 0.0
H1145 H 0.21153 0.50698 0.76197 0.0
H1146 H 0.26704 0.37854 0.79737 0.0
H1147 H 0.2226 0.36969 0.80188 0.0
H1148 H 0.24658 0.39465 0.82072 0.0
H1149 H 0.23231 0.44352 0.72739 0.0
H1150 H 0.20071 0.47721 0.73062 0.0
H1151 H 0.18871 0.43227 0.73291 0.0
C1152 C 0.14405 0.75448 0.22799 0.0
C1153 C 0.17113 0.73194 0.23301 0.0
C1154 C 0.11319 0.75417 0.23938 0.0
C1155 C 0.10888 0.73024 0.25594 0.0
C1156 C 0.13592 0.7073 0.26107 0.0
C1157 C 0.1668 0.7087 0.24974 0.0
C1158 C 0.08517 0.7795 0.23366 0.0
C1159 C 0.13218 0.68114 0.27847 0.0
C1160 C 0.04116 0.7511 0.29682 0.0
C1161 C 0.01251 0.73265 0.2894 0.0
C1162 C 0.07272 0.75025 0.28623 0.0
C1163 C 0.07618 0.72965 0.26806 0.0
C1164 C 0.048 0.70958 0.26105 0.0
C1165 C 0.01642 0.71158 0.27167 0.0
C1166 C 0.10202 0.77234 0.2941 0.0
C1167 C 0.05093 0.6867 0.24199 0.0
H1168 H 0.14671 0.77215 0.21494 0.0
H1169 H 0.18766 0.69163 0.25411 0.0
H1170 H 0.06173 0.76529 0.22882 0.0
H1171 H 0.07826 0.79538 0.2475 0.0
H1172 H 0.09291 0.79709 0.22075 0.0
H1173 H 0.15518 0.66431 0.28002 0.0
H1174 H 0.12788 0.69459 0.29357 0.0
H1175 H 0.10941 0.66454 0.27557 0.0
H1176 H 0.03881 0.76678 0.31079 0.0
H1177 H 0.99453 0.69747 0.26561 0.0
H1178 H 0.10916 0.79163 0.28199 0.0
H1179 H 0.12501 0.75612 0.29705 0.0
H1180 H 0.0954 0.78634 0.30873 0.0
H1181 H 0.05488 0.70289 0.22787 0.0
H1182 H 0.02764 0.67057 0.2396 0.0
H1183 H 0.07356 0.66941 0.24344 0.0
C1184 C 0.76094 0.53149 0.79577 0.0
C1185 C 0.7864 0.50837 0.78897 0.0
C1186 C 0.75575 0.56331 0.78569 0.0
C1187 C 0.77687 0.57252 0.76855 0.0
C1188 C 0.80315 0.54963 0.76189 0.0
C1189 C 0.80736 0.51762 0.77205 0.0
C1190 C 0.72705 0.58664 0.79303 0.0
C1191 C 0.82657 0.5588 0.74391 0.0
C1192 C 0.74312 0.63817 0.72924 0.0
C1193 C 0.75897 0.66873 0.73604 0.0
C1194 C 0.74852 0.60674 0.73978 0.0
C1195 C 0.77082 0.60574 0.75729 0.0
C1196 C 0.78694 0.63655 0.76418 0.0
C1197 C 0.78059 0.66774 0.75357 0.0
C1198 C 0.73028 0.57462 0.7322 0.0
C1199 C 0.81124 0.63649 0.78259 0.0
H1200 H 0.74423 0.52415 0.8086 0.0
H1201 H 0.82705 0.49979 0.76679 0.0
H1202 H 0.73739 0.61245 0.79725 0.0
H1203 H 0.70828 0.59055 0.78018 0.0
H1204 H 0.71326 0.5759 0.80679 0.0
H1205 H 0.8468 0.53898 0.74132 0.0
H1206 H 0.81133 0.56149 0.72933 0.0
H1207 H 0.83912 0.5841 0.74688 0.0
H1208 H 0.72628 0.63895 0.71574 0.0
H1209 H 0.79324 0.69126 0.75867 0.0
H1210 H 0.71453 0.56353 0.74502 0.0
H1211 H 0.74936 0.55469 0.72761 0.0
H1212 H 0.71329 0.57989 0.7186 0.0
H1213 H 0.79769 0.62735 0.79682 0.0
H1214 H 0.82209 0.66255 0.78578 0.0
H1215 H 0.83272 0.61826 0.77962 0.0
loop_
_geom_bond_atom_site_label_1
_geom_bond_atom_site_label_2
_geom_bond_distance
_geom_bond_site_symmetry_2
_ccdc_geom_bond_type
Li0 N17 1.990 . S
Li0 O60 1.956 . S
Li0 O61 1.970 . S
Li0 O62 1.961 . S
Li1 N25 1.990 . S
Li1 O60 1.970 . S
Li1 O61 1.956 . S
Li1 O63 1.961 . S
Li2 N47 1.990 . S
Li2 O60 1.961 . S
Li2 O62 1.956 . S
Li2 O63 1.970 . S
Li3 N53 1.990 . S
Li3 O61 1.961 . S
Li3 O62 1.970 . S
Li3 O63 1.956 . S
C4 C6 1.348 . S
C4 C7 1.356 . S
C4 O60 1.325 . S
N5 C8 1.314 . S
N5 C9 1.279 . S
C6 C4 1.348 . S
C6 C8 1.353 . S
C6 H64 0.929 . S
C7 C4 1.356 . S
C7 C9 1.358 . S
C7 H65 0.930 . S
C8 N5 1.314 . S
C8 C6 1.353 . S
C8 H66 0.930 . S
C9 N5 1.279 . S
C9 C7 1.358 . S
C9 H67 0.930 . S
C10 C13 1.348 . S
C10 C14 1.356 . S
C10 O61 1.325 . S
C11 N12 1.279 1_455 S
C11 C14 1.358 . S
C11 H68 0.930 . S
N12 C11 1.279 1_655 S
N12 C15 1.314 . S
C13 C10 1.348 . S
C13 C15 1.353 1_455 S
C13 H69 0.929 . S
C14 C10 1.356 . S
C14 C11 1.358 . S
C14 H70 0.930 . S
C15 N12 1.314 . S
C15 C13 1.353 1_655 S
C15 H71 0.930 . S
C16 N17 1.314 . S
C16 C21 1.353 1_455 S
C16 H22 0.930 . S
N17 Li0 1.990 . S
N17 C16 1.314 . S
N17 C19 1.279 . S
C18 C19 1.358 . S
C18 C20 1.356 1_455 S
C18 H72 0.930 . S
C19 N17 1.279 . S
C19 C18 1.358 . S
C19 H23 0.930 . S
C20 C18 1.356 1_655 S
C20 C21 1.348 . S
C21 C16 1.353 1_655 S
C21 C20 1.348 . S
C21 H73 0.929 . S
H22 C16 0.930 . S
H23 C19 0.930 . S
C24 N25 1.314 . S
C24 C26 1.353 . S
C24 H30 0.930 . S
N25 Li1 1.990 . S
N25 C24 1.314 . S
N25 C28 1.279 . S
C26 C24 1.353 . S
C26 C29 1.348 . S
C26 H74 0.929 . S
C27 C28 1.358 . S
C27 C29 1.356 . S
C27 H75 0.930 . S
C28 N25 1.279 . S
C28 C27 1.358 . S
C28 H31 0.930 . S
C29 C26 1.348 . S
C29 C27 1.356 . S
H30 C24 0.930 . S
H31 C28 0.930 . S
C32 C34 1.348 . S
C32 C35 1.356 . S
C32 O62 1.325 . S
N33 C36 1.314 . S
N33 C37 1.279 . S
C34 C32 1.348 . S
C34 C36 1.353 . S
C34 H76 0.929 . S
C35 C32 1.356 . S
C35 C37 1.358 . S
C35 H77 0.930 . S
C36 N33 1.314 . S
C36 C34 1.353 . S
C36 H78 0.930 . S
C37 N33 1.279 . S
C37 C35 1.358 . S
C37 H79 0.930 . S
C38 C39 1.348 . S
C38 C40 1.356 . S
C38 O63 1.325 . S
C39 C38 1.348 . S
C39 C41 1.353 . S
C39 H80 0.929 . S
C40 C38 1.356 . S
C40 C42 1.358 . S
C40 H81 0.930 . S
C41 C39 1.353 . S
C41 N43 1.314 . S
C41 H82 0.930 . S
C42 C40 1.358 . S
C42 N43 1.279 . S
C42 H83 0.930 . S
N43 C41 1.314 . S
N43 C42 1.279 . S
C44 C46 1.353 . S
C44 N47 1.314 . S
C44 H50 0.930 . S
C45 N47 1.279 . S
C45 C48 1.358 . S
C45 H51 0.930 . S
C46 C44 1.353 . S
C46 C49 1.348 . S
C46 H84 0.929 . S
N47 Li2 1.990 . S
N47 C44 1.314 . S
N47 C45 1.279 . S
C48 C45 1.358 . S
C48 C49 1.356 . S
C48 H85 0.930 . S
C49 C46 1.348 . S
C49 C48 1.356 . S
H50 C44 0.930 . S
H51 C45 0.930 . S
C52 N53 1.314 . S
C52 C54 1.353 . S
C52 H58 0.930 . S
N53 Li3 1.990 . S
N53 C52 1.314 . S
N53 C56 1.279 . S
C54 C52 1.353 . S
C54 C57 1.348 . S
C54 H86 0.929 . S
C55 C56 1.358 . S
C55 C57 1.356 . S
C55 H87 0.930 . S
C56 N53 1.279 . S
C56 C55 1.358 . S
C56 H59 0.930 . S
C57 C54 1.348 . S
C57 C55 1.356 . S
H58 C52 0.930 . S
H59 C56 0.930 . S
O60 Li0 1.956 . S
O60 Li1 1.970 . S
O60 Li2 1.961 . S
O60 C4 1.325 . S
O61 Li0 1.970 . S
O61 Li1 1.956 . S
O61 Li3 1.961 . S
O61 C10 1.325 . S
O62 Li0 1.961 . S
O62 Li2 1.956 . S
O62 Li3 1.970 . S
O62 C32 1.325 . S
O63 Li1 1.961 . S
O63 Li2 1.970 . S
O63 Li3 1.956 . S
O63 C38 1.325 . S
H64 C6 0.929 . S
H65 C7 0.930 . S
H66 C8 0.930 . S
H67 C9 0.930 . S
H68 C11 0.930 . S
H69 C13 0.929 . S
H70 C14 0.930 . S
H71 C15 0.930 . S
H72 C18 0.930 . S
H73 C21 0.929 . S
H74 C26 0.929 . S
H75 C27 0.930 . S
H76 C34 0.929 . S
H77 C35 0.930 . S
H78 C36 0.930 . S
H79 C37 0.930 . S
H80 C39 0.929 . S
H81 C40 0.930 . S
H82 C41 0.930 . S
H83 C42 0.930 . S
H84 C46 0.929 . S
H85 C48 0.930 . S
H86 C54 0.929 . S
H87 C55 0.930 . S
Li88 N105 1.990 . S
Li88 O148 1.956 . S
Li88 O149 1.970 . S
Li88 O150 1.961 . S
Li89 N113 1.990 . S
Li89 O148 1.970 . S
Li89 O149 1.956 . S
Li89 O151 1.961 . S
Li90 N135 1.990 . S
Li90 O148 1.961 . S
Li90 O150 1.956 . S
Li90 O151 1.970 . S
Li91 N141 1.990 . S
Li91 O149 1.961 . S
Li91 O150 1.970 . S
Li91 O151 1.956 . S
C92 C94 1.348 . S
C92 C95 1.356 . S
C92 O148 1.325 . S
N93 C96 1.314 . S
N93 C97 1.279 . S
C94 C92 1.348 . S
C94 C96 1.353 . S
C94 H152 0.929 . S
C95 C92 1.356 . S
C95 C97 1.358 . S
C95 H153 0.930 . S
C96 N93 1.314 . S
C96 C94 1.353 . S
C96 H154 0.930 . S
C97 N93 1.279 . S
C97 C95 1.358 . S
C97 H155 0.930 . S
C98 C101 1.348 . S
C98 C102 1.356 . S
C98 O149 1.325 . S
C99 N100 1.279 . S
C99 C102 1.358 . S
C99 H156 0.930 . S
N100 C99 1.279 . S
N100 C103 1.314 . S
C101 C98 1.348 . S
C101 C103 1.353 . S
C101 H157 0.929 . S
C102 C98 1.356 . S
C102 C99 1.358 . S
C102 H158 0.930 . S
C103 N100 1.314 . S
C103 C101 1.353 . S
C103 H159 0.930 . S
C104 N105 1.314 . S
C104 C109 1.353 . S
C104 H110 0.930 . S
N105 Li88 1.990 . S
N105 C104 1.314 . S
N105 C107 1.279 . S
C106 C107 1.358 . S
C106 C108 1.356 . S
C106 H160 0.930 . S
C107 N105 1.279 . S
C107 C106 1.358 . S
C107 H111 0.930 . S
C108 C106 1.356 . S
C108 C109 1.348 . S
C109 C104 1.353 . S
C109 C108 1.348 . S
C109 H161 0.929 . S
H110 C104 0.930 . S
H111 C107 0.930 . S
C112 N113 1.314 . S
C112 C114 1.353 . S
C112 H118 0.930 . S
N113 Li89 1.990 . S
N113 C112 1.314 . S
N113 C116 1.279 . S
C114 C112 1.353 . S
C114 C117 1.348 . S
C114 H162 0.929 . S
C115 C116 1.358 . S
C115 C117 1.356 . S
C115 H163 0.930 . S
C116 N113 1.279 . S
C116 C115 1.358 . S
C116 H119 0.930 . S
C117 C114 1.348 . S
C117 C115 1.356 . S
H118 C112 0.930 . S
H119 C116 0.930 . S
C120 C122 1.348 . S
C120 C123 1.356 . S
C120 O150 1.325 . S
N121 C124 1.314 . S
N121 C125 1.279 . S
C122 C120 1.348 . S
C122 C124 1.353 . S
C122 H164 0.929 . S
C123 C120 1.356 . S
C123 C125 1.358 . S
C123 H165 0.930 . S
C124 N121 1.314 . S
C124 C122 1.353 . S
C124 H166 0.930 . S
C125 N121 1.279 . S
C125 C123 1.358 . S
C125 H167 0.930 . S
C126 C127 1.348 . S
C126 C128 1.356 . S
C126 O151 1.325 . S
C127 C126 1.348 . S
C127 C129 1.353 . S
C127 H168 0.929 . S
C128 C126 1.356 . S
C128 C130 1.358 . S
C128 H169 0.930 . S
C129 C127 1.353 . S
C129 N131 1.314 . S
C129 H170 0.930 . S
C130 C128 1.358 . S
C130 N131 1.279 . S
C130 H171 0.930 . S
N131 C129 1.314 . S
N131 C130 1.279 . S
C132 C134 1.353 . S
C132 N135 1.314 . S
C132 H138 0.930 . S
C133 N135 1.279 . S
C133 C136 1.358 . S
C133 H139 0.930 . S
C134 C132 1.353 . S
C134 C137 1.348 . S
C134 H172 0.929 . S
N135 Li90 1.990 . S
N135 C132 1.314 . S
N135 C133 1.279 . S
C136 C133 1.358 . S
C136 C137 1.356 . S
C136 H173 0.930 . S
C137 C134 1.348 . S
C137 C136 1.356 . S
H138 C132 0.930 . S
H139 C133 0.930 . S
C140 N141 1.314 . S
C140 C142 1.353 . S
C140 H146 0.930 . S
N141 Li91 1.990 . S
N141 C140 1.314 . S
N141 C144 1.279 . S
C142 C140 1.353 . S
C142 C145 1.348 . S
C142 H174 0.929 . S
C143 C144 1.358 . S
C143 C145 1.356 . S
C143 H175 0.930 . S
C144 N141 1.279 . S
C144 C143 1.358 . S
C144 H147 0.930 . S
C145 C142 1.348 . S
C145 C143 1.356 . S
H146 C140 0.930 . S
H147 C144 0.930 . S
O148 Li88 1.956 . S
O148 Li89 1.970 . S
O148 Li90 1.961 . S
O148 C92 1.325 . S
O149 Li88 1.970 . S
O149 Li89 1.956 . S
O149 Li91 1.961 . S
O149 C98 1.325 . S
O150 Li88 1.961 . S
O150 Li90 1.956 . S
O150 Li91 1.970 . S
O150 C120 1.325 . S
O151 Li89 1.961 . S
O151 Li90 1.970 . S
O151 Li91 1.956 . S
O151 C126 1.325 . S
H152 C94 0.929 . S
H153 C95 0.930 . S
H154 C96 0.930 . S
H155 C97 0.930 . S
H156 C99 0.930 . S
H157 C101 0.929 . S
H158 C102 0.930 . S
H159 C103 0.930 . S
H160 C106 0.930 . S
H161 C109 0.929 . S
H162 C114 0.929 . S
H163 C115 0.930 . S
H164 C122 0.929 . S
H165 C123 0.930 . S
H166 C124 0.930 . S
H167 C125 0.930 . S
H168 C127 0.929 . S
H169 C128 0.930 . S
H170 C129 0.930 . S
H171 C130 0.930 . S
H172 C134 0.929 . S
H173 C136 0.930 . S
H174 C142 0.929 . S
H175 C143 0.930 . S
Li176 N193 1.990 . S
Li176 O236 1.956 . S
Li176 O237 1.970 . S
Li176 O238 1.961 . S
Li177 N201 1.990 . S
Li177 O236 1.970 . S
Li177 O237 1.956 . S
Li177 O239 1.961 . S
Li178 N223 1.990 . S
Li178 O236 1.961 . S
Li178 O238 1.956 . S
Li178 O239 1.970 . S
Li179 N229 1.990 . S
Li179 O237 1.961 . S
Li179 O238 1.970 . S
Li179 O239 1.956 . S
C180 C182 1.348 . S
C180 C183 1.356 . S
C180 O236 1.325 . S
N181 C184 1.314 . S
N181 C185 1.279 . S
C182 C180 1.348 . S
C182 C184 1.353 . S
C182 H240 0.929 . S
C183 C180 1.356 . S
C183 C185 1.358 . S
C183 H241 0.930 . S
C184 N181 1.314 . S
C184 C182 1.353 . S
C184 H242 0.930 . S
C185 N181 1.279 . S
C185 C183 1.358 . S
C185 H243 0.930 . S
C186 C189 1.348 . S
C186 C190 1.356 . S
C186 O237 1.325 . S
C187 N188 1.279 1_655 S
C187 C190 1.358 . S
C187 H244 0.930 . S
N188 C187 1.279 1_455 S
N188 C191 1.314 . S
C189 C186 1.348 . S
C189 C191 1.353 1_655 S
C189 H245 0.929 . S
C190 C186 1.356 . S
C190 C187 1.358 . S
C190 H246 0.930 . S
C191 N188 1.314 . S
C191 C189 1.353 1_455 S
C191 H247 0.930 . S
C192 N193 1.314 . S
C192 C197 1.353 1_655 S
C192 H198 0.930 . S
N193 Li176 1.990 . S
N193 C192 1.314 . S
N193 C195 1.279 . S
C194 C195 1.358 . S
C194 C196 1.356 1_655 S
C194 H248 0.930 . S
C195 N193 1.279 . S
C195 C194 1.358 . S
C195 H199 0.930 . S
C196 C194 1.356 1_455 S
C196 C197 1.348 . S
C197 C192 1.353 1_455 S
C197 C196 1.348 . S
C197 H249 0.929 . S
H198 C192 0.930 . S
H199 C195 0.930 . S
C200 N201 1.314 . S
C200 C202 1.353 . S
C200 H206 0.930 . S
N201 Li177 1.990 . S
N201 C200 1.314 . S
N201 C204 1.279 . S
C202 C200 1.353 . S
C202 C205 1.348 . S
C202 H250 0.929 . S
C203 C204 1.358 . S
C203 C205 1.356 . S
C203 H251 0.930 . S
C204 N201 1.279 . S
C204 C203 1.358 . S
C204 H207 0.930 . S
C205 C202 1.348 . S
C205 C203 1.356 . S
H206 C200 0.930 . S
H207 C204 0.930 . S
C208 C210 1.348 . S
C208 C211 1.356 . S
C208 O238 1.325 . S
N209 C212 1.314 . S
N209 C213 1.279 . S
C210 C208 1.348 . S
C210 C212 1.353 . S
C210 H252 0.929 . S
C211 C208 1.356 . S
C211 C213 1.358 . S
C211 H253 0.930 . S
C212 N209 1.314 . S
C212 C210 1.353 . S
C212 H254 0.930 . S
C213 N209 1.279 . S
C213 C211 1.358 . S
C213 H255 0.930 . S
C214 C215 1.348 . S
C214 C216 1.356 . S
C214 O239 1.325 . S
C215 C214 1.348 . S
C215 C217 1.353 . S
C215 H256 0.929 . S
C216 C214 1.356 . S
C216 C218 1.358 . S
C216 H257 0.930 . S
C217 C215 1.353 . S
C217 N219 1.314 . S
C217 H258 0.930 . S
C218 C216 1.358 . S
C218 N219 1.279 . S
C218 H259 0.930 . S
N219 C217 1.314 . S
N219 C218 1.279 . S
C220 C222 1.353 . S
C220 N223 1.314 . S
C220 H226 0.930 . S
C221 N223 1.279 . S
C221 C224 1.358 . S
C221 H227 0.930 . S
C222 C220 1.353 . S
C222 C225 1.348 . S
C222 H260 0.929 . S
N223 Li178 1.990 . S
N223 C220 1.314 . S
N223 C221 1.279 . S
C224 C221 1.358 . S
C224 C225 1.356 . S
C224 H261 0.930 . S
C225 C222 1.348 . S
C225 C224 1.356 . S
H226 C220 0.930 . S
H227 C221 0.930 . S
C228 N229 1.314 . S
C228 C230 1.353 . S
C228 H234 0.930 . S
N229 Li179 1.990 . S
N229 C228 1.314 . S
N229 C232 1.279 . S
C230 C228 1.353 . S
C230 C233 1.348 . S
C230 H262 0.929 . S
C231 C232 1.358 . S
C231 C233 1.356 . S
C231 H263 0.930 . S
C232 N229 1.279 . S
C232 C231 1.358 . S
C232 H235 0.930 . S
C233 C230 1.348 . S
C233 C231 1.356 . S
H234 C228 0.930 . S
H235 C232 0.930 . S
O236 Li176 1.956 . S
O236 Li177 1.970 . S
O236 Li178 1.961 . S
O236 C180 1.325 . S
O237 Li176 1.970 . S
O237 Li177 1.956 . S
O237 Li179 1.961 . S
O237 C186 1.325 . S
O238 Li176 1.961 . S
O238 Li178 1.956 . S
O238 Li179 1.970 . S
O238 C208 1.325 . S
O239 Li177 1.961 . S
O239 Li178 1.970 . S
O239 Li179 1.956 . S
O239 C214 1.325 . S
H240 C182 0.929 . S
H241 C183 0.930 . S
H242 C184 0.930 . S
H243 C185 0.930 . S
H244 C187 0.930 . S
H245 C189 0.929 . S
H246 C190 0.930 . S
H247 C191 0.930 . S
H248 C194 0.930 . S
H249 C197 0.929 . S
H250 C202 0.929 . S
H251 C203 0.930 . S
H252 C210 0.929 . S
H253 C211 0.930 . S
H254 C212 0.930 . S
H255 C213 0.930 . S
H256 C215 0.929 . S
H257 C216 0.930 . S
H258 C217 0.930 . S
H259 C218 0.930 . S
H260 C222 0.929 . S
H261 C224 0.930 . S
H262 C230 0.929 . S
H263 C231 0.930 . S
Li264 N281 1.990 . S
Li264 O324 1.956 . S
Li264 O325 1.970 . S
Li264 O326 1.961 . S
Li265 N289 1.990 . S
Li265 O324 1.970 . S
Li265 O325 1.956 . S
Li265 O327 1.961 . S
Li266 N311 1.990 . S
Li266 O324 1.961 . S
Li266 O326 1.956 . S
Li266 O327 1.970 . S
Li267 N317 1.990 . S
Li267 O325 1.961 . S
Li267 O326 1.970 . S
Li267 O327 1.956 . S
C268 C270 1.348 . S
C268 C271 1.356 . S
C268 O324 1.325 . S
N269 C272 1.314 . S
N269 C273 1.279 . S
C270 C268 1.348 . S
C270 C272 1.353 . S
C270 H328 0.929 . S
C271 C268 1.356 . S
C271 C273 1.358 . S
C271 H329 0.930 . S
C272 N269 1.314 . S
C272 C270 1.353 . S
C272 H330 0.930 . S
C273 N269 1.279 . S
C273 C271 1.358 . S
C273 H331 0.930 . S
C274 C277 1.348 . S
C274 C278 1.356 . S
C274 O325 1.325 . S
C275 N276 1.279 . S
C275 C278 1.358 . S
C275 H332 0.930 . S
N276 C275 1.279 . S
N276 C279 1.314 . S
C277 C274 1.348 . S
C277 C279 1.353 . S
C277 H333 0.929 . S
C278 C274 1.356 . S
C278 C275 1.358 . S
C278 H334 0.930 . S
C279 N276 1.314 . S
C279 C277 1.353 . S
C279 H335 0.930 . S
C280 N281 1.314 . S
C280 C285 1.353 . S
C280 H286 0.930 . S
N281 Li264 1.990 . S
N281 C280 1.314 . S
N281 C283 1.279 . S
C282 C283 1.358 . S
C282 C284 1.356 . S
C282 H336 0.930 . S
C283 N281 1.279 . S
C283 C282 1.358 . S
C283 H287 0.930 . S
C284 C282 1.356 . S
C284 C285 1.348 . S
C285 C280 1.353 . S
C285 C284 1.348 . S
C285 H337 0.929 . S
H286 C280 0.930 . S
H287 C283 0.930 . S
C288 N289 1.314 . S
C288 C290 1.353 . S
C288 H294 0.930 . S
N289 Li265 1.990 . S
N289 C288 1.314 . S
N289 C292 1.279 . S
C290 C288 1.353 . S
C290 C293 1.348 . S
C290 H338 0.929 . S
C291 C292 1.358 . S
C291 C293 1.356 . S
C291 H339 0.930 . S
C292 N289 1.279 . S
C292 C291 1.358 . S
C292 H295 0.930 . S
C293 C290 1.348 . S
C293 C291 1.356 . S
H294 C288 0.930 . S
H295 C292 0.930 . S
C296 C298 1.348 . S
C296 C299 1.356 . S
C296 O326 1.325 . S
N297 C300 1.314 . S
N297 C301 1.279 . S
C298 C296 1.348 . S
C298 C300 1.353 . S
C298 H340 0.929 . S
C299 C296 1.356 . S
C299 C301 1.358 . S
C299 H341 0.930 . S
C300 N297 1.314 . S
C300 C298 1.353 . S
C300 H342 0.930 . S
C301 N297 1.279 . S
C301 C299 1.358 . S
C301 H343 0.930 . S
C302 C303 1.348 . S
C302 C304 1.356 . S
C302 O327 1.325 . S
C303 C302 1.348 . S
C303 C305 1.353 . S
C303 H344 0.929 . S
C304 C302 1.356 . S
C304 C306 1.358 . S
C304 H345 0.930 . S
C305 C303 1.353 . S
C305 N307 1.314 . S
C305 H346 0.930 . S
C306 C304 1.358 . S
C306 N307 1.279 . S
C306 H347 0.930 . S
N307 C305 1.314 . S
N307 C306 1.279 . S
C308 C310 1.353 . S
C308 N311 1.314 . S
C308 H314 0.930 . S
C309 N311 1.279 . S
C309 C312 1.358 . S
C309 H315 0.930 . S
C310 C308 1.353 . S
C310 C313 1.348 . S
C310 H348 0.929 . S
N311 Li266 1.990 . S
N311 C308 1.314 . S
N311 C309 1.279 . S
C312 C309 1.358 . S
C312 C313 1.356 . S
C312 H349 0.930 . S
C313 C310 1.348 . S
C313 C312 1.356 . S
H314 C308 0.930 . S
H315 C309 0.930 . S
C316 N317 1.314 . S
C316 C318 1.353 . S
C316 H322 0.930 . S
N317 Li267 1.990 . S
N317 C316 1.314 . S
N317 C320 1.279 . S
C318 C316 1.353 . S
C318 C321 1.348 . S
C318 H350 0.929 . S
C319 C320 1.358 . S
C319 C321 1.356 . S
C319 H351 0.930 . S
C320 N317 1.279 . S
C320 C319 1.358 . S
C320 H323 0.930 . S
C321 C318 1.348 . S
C321 C319 1.356 . S
H322 C316 0.930 . S
H323 C320 0.930 . S
O324 Li264 1.956 . S
O324 Li265 1.970 . S
O324 Li266 1.961 . S
O324 C268 1.325 . S
O325 Li264 1.970 . S
O325 Li265 1.956 . S
O325 Li267 1.961 . S
O325 C274 1.325 . S
O326 Li264 1.961 . S
O326 Li266 1.956 . S
O326 Li267 1.970 . S
O326 C296 1.325 . S
O327 Li265 1.961 . S
O327 Li266 1.970 . S
O327 Li267 1.956 . S
O327 C302 1.325 . S
H328 C270 0.929 . S
H329 C271 0.930 . S
H330 C272 0.930 . S
H331 C273 0.930 . S
H332 C275 0.930 . S
H333 C277 0.929 . S
H334 C278 0.930 . S
H335 C279 0.930 . S
H336 C282 0.930 . S
H337 C285 0.929 . S
H338 C290 0.929 . S
H339 C291 0.930 . S
H340 C298 0.929 . S
H341 C299 0.930 . S
H342 C300 0.930 . S
H343 C301 0.930 . S
H344 C303 0.929 . S
H345 C304 0.930 . S
H346 C305 0.930 . S
H347 C306 0.930 . S
H348 C310 0.929 . S
H349 C312 0.930 . S
H350 C318 0.929 . S
H351 C319 0.930 . S
Li352 N369 1.990 . S
Li352 O412 1.956 . S
Li352 O413 1.970 . S
Li352 O414 1.961 . S
Li353 N377 1.990 . S
Li353 O412 1.970 . S
Li353 O413 1.956 . S
Li353 O415 1.961 . S
Li354 N399 1.990 . S
Li354 O412 1.961 . S
Li354 O414 1.956 . S
Li354 O415 1.970 . S
Li355 N405 1.990 . S
Li355 O413 1.961 . S
Li355 O414 1.970 . S
Li355 O415 1.956 . S
C356 C358 1.348 . S
C356 C359 1.356 . S
C356 O412 1.325 . S
N357 C360 1.314 . S
N357 C361 1.279 . S
C358 C356 1.348 . S
C358 C360 1.353 . S
C358 H416 0.929 . S
C359 C356 1.356 . S
C359 C361 1.358 . S
C359 H417 0.930 . S
C360 N357 1.314 . S
C360 C358 1.353 . S
C360 H418 0.930 . S
C361 N357 1.279 . S
C361 C359 1.358 . S
C361 H419 0.930 . S
C362 C365 1.348 . S
C362 C366 1.356 . S
C362 O413 1.325 . S
C363 N364 1.279 . S
C363 C366 1.358 . S
C363 H420 0.930 . S
N364 C363 1.279 . S
N364 C367 1.314 . S
C365 C362 1.348 . S
C365 C367 1.353 . S
C365 H421 0.929 . S
C366 C362 1.356 . S
C366 C363 1.358 . S
C366 H422 0.930 . S
C367 N364 1.314 . S
C367 C365 1.353 . S
C367 H423 0.930 . S
C368 N369 1.314 . S
C368 C373 1.353 . S
C368 H374 0.930 . S
N369 Li352 1.990 . S
N369 C368 1.314 . S
N369 C371 1.279 . S
C370 C371 1.358 . S
C370 C372 1.356 . S
C370 H424 0.930 . S
C371 N369 1.279 . S
C371 C370 1.358 . S
C371 H375 0.930 . S
C372 C370 1.356 . S
C372 C373 1.348 . S
C373 C368 1.353 . S
C373 C372 1.348 . S
C373 H425 0.929 . S
H374 C368 0.930 . S
H375 C371 0.930 . S
C376 N377 1.314 . S
C376 C378 1.353 . S
C376 H382 0.930 . S
N377 Li353 1.990 . S
N377 C376 1.314 . S
N377 C380 1.279 . S
C378 C376 1.353 . S
C378 C381 1.348 . S
C378 H426 0.929 . S
C379 C380 1.358 . S
C379 C381 1.356 . S
C379 H427 0.930 . S
C380 N377 1.279 . S
C380 C379 1.358 . S
C380 H383 0.930 . S
C381 C378 1.348 . S
C381 C379 1.356 . S
H382 C376 0.930 . S
H383 C380 0.930 . S
C384 C386 1.348 . S
C384 C387 1.356 . S
C384 O414 1.325 . S
N385 C388 1.314 . S
N385 C389 1.279 . S
C386 C384 1.348 . S
C386 C388 1.353 . S
C386 H428 0.929 . S
C387 C384 1.356 . S
C387 C389 1.358 . S
C387 H429 0.930 . S
C388 N385 1.314 . S
C388 C386 1.353 . S
C388 H430 0.930 . S
C389 N385 1.279 . S
C389 C387 1.358 . S
C389 H431 0.930 . S
C390 C391 1.348 . S
C390 C392 1.356 . S
C390 O415 1.325 . S
C391 C390 1.348 . S
C391 C393 1.353 . S
C391 H432 0.929 . S
C392 C390 1.356 . S
C392 C394 1.358 . S
C392 H433 0.930 . S
C393 C391 1.353 . S
C393 N395 1.314 . S
C393 H434 0.930 . S
C394 C392 1.358 . S
C394 N395 1.279 . S
C394 H435 0.930 . S
N395 C393 1.314 . S
N395 C394 1.279 . S
C396 C398 1.353 . S
C396 N399 1.314 . S
C396 H402 0.930 . S
C397 N399 1.279 . S
C397 C400 1.358 . S
C397 H403 0.930 . S
C398 C396 1.353 . S
C398 C401 1.348 . S
C398 H436 0.929 . S
N399 Li354 1.990 . S
N399 C396 1.314 . S
N399 C397 1.279 . S
C400 C397 1.358 . S
C400 C401 1.356 . S
C400 H437 0.930 . S
C401 C398 1.348 . S
C401 C400 1.356 . S
H402 C396 0.930 . S
H403 C397 0.930 . S
C404 N405 1.314 . S
C404 C406 1.353 . S
C404 H410 0.930 . S
N405 Li355 1.990 . S
N405 C404 1.314 . S
N405 C408 1.279 . S
C406 C404 1.353 . S
C406 C409 1.348 . S
C406 H438 0.929 . S
C407 C408 1.358 . S
C407 C409 1.356 . S
C407 H439 0.930 . S
C408 N405 1.279 . S
C408 C407 1.358 . S
C408 H411 0.930 . S
C409 C406 1.348 . S
C409 C407 1.356 . S
H410 C404 0.930 . S
H411 C408 0.930 . S
O412 Li352 1.956 . S
O412 Li353 1.970 . S
O412 Li354 1.961 . S
O412 C356 1.325 . S
O413 Li352 1.970 . S
O413 Li353 1.956 . S
O413 Li355 1.961 . S
O413 C362 1.325 . S
O414 Li352 1.961 . S
O414 Li354 1.956 . S
O414 Li355 1.970 . S
O414 C384 1.325 . S
O415 Li353 1.961 . S
O415 Li354 1.970 . S
O415 Li355 1.956 . S
O415 C390 1.325 . S
H416 C358 0.929 . S
H417 C359 0.930 . S
H418 C360 0.930 . S
H419 C361 0.930 . S
H420 C363 0.930 . S
H421 C365 0.929 . S
H422 C366 0.930 . S
H423 C367 0.930 . S
H424 C370 0.930 . S
H425 C373 0.929 . S
H426 C378 0.929 . S
H427 C379 0.930 . S
H428 C386 0.929 . S
H429 C387 0.930 . S
H430 C388 0.930 . S
H431 C389 0.930 . S
H432 C391 0.929 . S
H433 C392 0.930 . S
H434 C393 0.930 . S
H435 C394 0.930 . S
H436 C398 0.929 . S
H437 C400 0.930 . S
H438 C406 0.929 . S
H439 C407 0.930 . S
Li440 N457 1.990 . S
Li440 O500 1.956 . S
Li440 O501 1.970 . S
Li440 O502 1.961 . S
Li441 N465 1.990 . S
Li441 O500 1.970 . S
Li441 O501 1.956 . S
Li441 O503 1.961 . S
Li442 N487 1.990 . S
Li442 O500 1.961 . S
Li442 O502 1.956 . S
Li442 O503 1.970 . S
Li443 N493 1.990 . S
Li443 O501 1.961 . S
Li443 O502 1.970 . S
Li443 O503 1.956 . S
C444 C446 1.348 . S
C444 C447 1.356 . S
C444 O500 1.325 . S
N445 C448 1.314 . S
N445 C449 1.279 . S
C446 C444 1.348 . S
C446 C448 1.353 . S
C446 H504 0.929 . S
C447 C444 1.356 . S
C447 C449 1.358 . S
C447 H505 0.930 . S
C448 N445 1.314 . S
C448 C446 1.353 . S
C448 H506 0.930 . S
C449 N445 1.279 . S
C449 C447 1.358 . S
C449 H507 0.930 . S
C450 C453 1.348 . S
C450 C454 1.356 . S
C450 O501 1.325 . S
C451 N452 1.279 . S
C451 C454 1.358 . S
C451 H508 0.930 . S
N452 C451 1.279 . S
N452 C455 1.314 . S
C453 C450 1.348 . S
C453 C455 1.353 . S
C453 H509 0.929 . S
C454 C450 1.356 . S
C454 C451 1.358 . S
C454 H510 0.930 . S
C455 N452 1.314 . S
C455 C453 1.353 . S
C455 H511 0.930 . S
C456 N457 1.314 . S
C456 C461 1.353 . S
C456 H462 0.930 . S
N457 Li440 1.990 . S
N457 C456 1.314 . S
N457 C459 1.279 . S
C458 C459 1.358 . S
C458 C460 1.356 . S
C458 H512 0.930 . S
C459 N457 1.279 . S
C459 C458 1.358 . S
C459 H463 0.930 . S
C460 C458 1.356 . S
C460 C461 1.348 . S
C461 C456 1.353 . S
C461 C460 1.348 . S
C461 H513 0.929 . S
H462 C456 0.930 . S
H463 C459 0.930 . S
C464 N465 1.314 . S
C464 C466 1.353 . S
C464 H470 0.930 . S
N465 Li441 1.990 . S
N465 C464 1.314 . S
N465 C468 1.279 . S
C466 C464 1.353 . S
C466 C469 1.348 . S
C466 H514 0.929 . S
C467 C468 1.358 . S
C467 C469 1.356 . S
C467 H515 0.930 . S
C468 N465 1.279 . S
C468 C467 1.358 . S
C468 H471 0.930 . S
C469 C466 1.348 . S
C469 C467 1.356 . S
H470 C464 0.930 . S
H471 C468 0.930 . S
C472 C474 1.348 . S
C472 C475 1.356 . S
C472 O502 1.325 . S
N473 C476 1.314 . S
N473 C477 1.279 . S
C474 C472 1.348 . S
C474 C476 1.353 . S
C474 H516 0.929 . S
C475 C472 1.356 . S
C475 C477 1.358 . S
C475 H517 0.930 . S
C476 N473 1.314 . S
C476 C474 1.353 . S
C476 H518 0.930 . S
C477 N473 1.279 . S
C477 C475 1.358 . S
C477 H519 0.930 . S
C478 C479 1.348 . S
C478 C480 1.356 . S
C478 O503 1.325 . S
C479 C478 1.348 . S
C479 C481 1.353 1_545 S
C479 H520 0.929 . S
C480 C478 1.356 . S
C480 C482 1.369 . S
C480 H521 0.930 . S
C481 C479 1.353 1_565 S
C481 N483 1.314 . S
C481 H522 0.930 . S
C482 C480 1.369 . S
C482 N483 1.272 1_545 S
C482 H523 0.927 1_545 S
N483 C481 1.314 . S
N483 C482 1.272 1_565 S
C484 C486 1.353 . S
C484 N487 1.314 . S
C484 H490 0.930 . S
C485 N487 1.279 . S
C485 C488 1.358 . S
C485 H491 0.930 . S
C486 C484 1.353 . S
C486 C489 1.348 . S
C486 H524 0.929 . S
N487 Li442 1.990 . S
N487 C484 1.314 . S
N487 C485 1.279 . S
C488 C485 1.358 . S
C488 C489 1.356 . S
C488 H525 0.930 . S
C489 C486 1.348 . S
C489 C488 1.356 . S
H490 C484 0.930 . S
H491 C485 0.930 . S
C492 N493 1.314 . S
C492 C494 1.353 . S
C492 H498 0.930 . S
N493 Li443 1.990 . S
N493 C492 1.314 . S
N493 C496 1.279 . S
C494 C492 1.353 . S
C494 C497 1.348 1_545 S
C494 H526 0.929 . S
C495 C496 1.358 1_565 S
C495 C497 1.356 . S
C495 H527 0.930 . S
C496 N493 1.279 . S
C496 C495 1.358 1_545 S
C496 H499 0.930 . S
C497 C494 1.348 1_565 S
C497 C495 1.356 . S
H498 C492 0.930 . S
H499 C496 0.930 . S
O500 Li440 1.956 . S
O500 Li441 1.970 . S
O500 Li442 1.961 . S
O500 C444 1.325 . S
O501 Li440 1.970 . S
O501 Li441 1.956 . S
O501 Li443 1.961 . S
O501 C450 1.325 . S
O502 Li440 1.961 . S
O502 Li442 1.956 . S
O502 Li443 1.970 . S
O502 C472 1.325 . S
O503 Li441 1.961 . S
O503 Li442 1.970 . S
O503 Li443 1.956 . S
O503 C478 1.325 . S
H504 C446 0.929 . S
H505 C447 0.930 . S
H506 C448 0.930 . S
H507 C449 0.930 . S
H508 C451 0.930 . S
H509 C453 0.929 . S
H510 C454 0.930 . S
H511 C455 0.930 . S
H512 C458 0.930 . S
H513 C461 0.929 . S
H514 C466 0.929 . S
H515 C467 0.930 . S
H516 C474 0.929 . S
H517 C475 0.930 . S
H518 C476 0.930 . S
H519 C477 0.930 . S
H520 C479 0.929 . S
H521 C480 0.930 . S
H522 C481 0.930 . S
H523 C482 0.927 1_565 S
H524 C486 0.929 . S
H525 C488 0.930 . S
H526 C494 0.929 . S
H527 C495 0.930 . S
Li528 N545 1.990 . S
Li528 O588 1.956 . S
Li528 O589 1.970 . S
Li528 O590 1.961 . S
Li529 N553 1.990 . S
Li529 O588 1.970 . S
Li529 O589 1.956 . S
Li529 O591 1.961 . S
Li530 N575 1.990 . S
Li530 O588 1.961 . S
Li530 O590 1.956 . S
Li530 O591 1.970 . S
Li531 N581 1.990 . S
Li531 O589 1.961 . S
Li531 O590 1.970 . S
Li531 O591 1.956 . S
C532 C534 1.348 . S
C532 C535 1.356 . S
C532 O588 1.325 . S
N533 C536 1.314 . S
N533 C537 1.279 . S
C534 C532 1.348 . S
C534 C536 1.353 . S
C534 H592 0.929 . S
C535 C532 1.356 . S
C535 C537 1.358 . S
C535 H593 0.930 . S
C536 N533 1.314 . S
C536 C534 1.353 . S
C536 H594 0.930 . S
C537 N533 1.279 . S
C537 C535 1.358 . S
C537 H595 0.930 . S
C538 C541 1.348 . S
C538 C542 1.356 . S
C538 O589 1.325 . S
C539 N540 1.279 . S
C539 C542 1.358 . S
C539 H596 0.930 . S
N540 C539 1.279 . S
N540 C543 1.314 . S
C541 C538 1.348 . S
C541 C543 1.353 . S
C541 H597 0.929 . S
C542 C538 1.356 . S
C542 C539 1.358 . S
C542 H598 0.930 . S
C543 N540 1.314 . S
C543 C541 1.353 . S
C543 H599 0.930 . S
C544 N545 1.314 . S
C544 C549 1.353 . S
C544 H550 0.930 . S
N545 Li528 1.990 . S
N545 C544 1.314 . S
N545 C547 1.279 . S
C546 C547 1.358 . S
C546 C548 1.356 . S
C546 H600 0.930 . S
C547 N545 1.279 . S
C547 C546 1.358 . S
C547 H551 0.930 . S
C548 C546 1.356 . S
C548 C549 1.348 . S
C549 C544 1.353 . S
C549 C548 1.348 . S
C549 H601 0.929 . S
H550 C544 0.930 . S
H551 C547 0.930 . S
C552 N553 1.314 . S
C552 C554 1.353 . S
C552 H558 0.930 . S
N553 Li529 1.990 . S
N553 C552 1.314 . S
N553 C556 1.279 . S
C554 C552 1.353 . S
C554 C557 1.348 . S
C554 H602 0.929 . S
C555 C556 1.358 . S
C555 C557 1.356 . S
C555 H603 0.930 . S
C556 N553 1.279 . S
C556 C555 1.358 . S
C556 H559 0.930 . S
C557 C554 1.348 . S
C557 C555 1.356 . S
H558 C552 0.930 . S
H559 C556 0.930 . S
C560 C562 1.348 . S
C560 C563 1.356 . S
C560 O590 1.325 . S
N561 C564 1.314 . S
N561 C565 1.279 . S
C562 C560 1.348 . S
C562 C564 1.353 . S
C562 H604 0.929 . S
C563 C560 1.356 . S
C563 C565 1.358 . S
C563 H605 0.930 . S
C564 N561 1.314 . S
C564 C562 1.353 . S
C564 H606 0.930 . S
C565 N561 1.279 . S
C565 C563 1.358 . S
C565 H607 0.930 . S
C566 C567 1.348 . S
C566 C568 1.356 . S
C566 O591 1.325 . S
C567 C566 1.348 . S
C567 C569 1.353 . S
C567 H608 0.929 . S
C568 C566 1.356 . S
C568 C570 1.358 . S
C568 H609 0.930 . S
C569 C567 1.353 . S
C569 N571 1.314 . S
C569 H610 0.930 . S
C570 C568 1.358 . S
C570 N571 1.279 . S
C570 H611 0.930 . S
N571 C569 1.314 . S
N571 C570 1.279 . S
C572 C574 1.353 . S
C572 N575 1.314 . S
C572 H578 0.930 . S
C573 N575 1.279 . S
C573 C576 1.358 . S
C573 H579 0.930 . S
C574 C572 1.353 . S
C574 C577 1.348 . S
C574 H612 0.929 . S
N575 Li530 1.990 . S
N575 C572 1.314 . S
N575 C573 1.279 . S
C576 C573 1.358 . S
C576 C577 1.356 . S
C576 H613 0.930 . S
C577 C574 1.348 . S
C577 C576 1.356 . S
H578 C572 0.930 . S
H579 C573 0.930 . S
C580 N581 1.314 . S
C580 C582 1.353 . S
C580 H586 0.930 . S
N581 Li531 1.990 . S
N581 C580 1.314 . S
N581 C584 1.279 . S
C582 C580 1.353 . S
C582 C585 1.348 . S
C582 H614 0.929 . S
C583 C584 1.358 . S
C583 C585 1.356 . S
C583 H615 0.930 . S
C584 N581 1.279 . S
C584 C583 1.358 . S
C584 H587 0.930 . S
C585 C582 1.348 . S
C585 C583 1.356 . S
H586 C580 0.930 . S
H587 C584 0.930 . S
O588 Li528 1.956 . S
O588 Li529 1.970 . S
O588 Li530 1.961 . S
O588 C532 1.325 . S
O589 Li528 1.970 . S
O589 Li529 1.956 . S
O589 Li531 1.961 . S
O589 C538 1.325 . S
O590 Li528 1.961 . S
O590 Li530 1.956 . S
O590 Li531 1.970 . S
O590 C560 1.325 . S
O591 Li529 1.961 . S
O591 Li530 1.970 . S
O591 Li531 1.956 . S
O591 C566 1.325 . S
H592 C534 0.929 . S
H593 C535 0.930 . S
H594 C536 0.930 . S
H595 C537 0.930 . S
H596 C539 0.930 . S
H597 C541 0.929 . S
H598 C542 0.930 . S
H599 C543 0.930 . S
H600 C546 0.930 . S
H601 C549 0.929 . S
H602 C554 0.929 . S
H603 C555 0.930 . S
H604 C562 0.929 . S
H605 C563 0.930 . S
H606 C564 0.930 . S
H607 C565 0.930 . S
H608 C567 0.929 . S
H609 C568 0.930 . S
H610 C569 0.930 . S
H611 C570 0.930 . S
H612 C574 0.929 . S
H613 C576 0.930 . S
H614 C582 0.929 . S
H615 C583 0.930 . S
Li616 N633 1.990 . S
Li616 O676 1.956 . S
Li616 O677 1.970 . S
Li616 O678 1.961 . S
Li617 N641 1.990 . S
Li617 O676 1.970 . S
Li617 O677 1.956 . S
Li617 O679 1.961 . S
Li618 N663 1.990 . S
Li618 O676 1.961 . S
Li618 O678 1.956 . S
Li618 O679 1.970 . S
Li619 N669 1.990 . S
Li619 O677 1.961 . S
Li619 O678 1.970 . S
Li619 O679 1.956 . S
C620 C622 1.348 . S
C620 C623 1.356 . S
C620 O676 1.325 . S
N621 C624 1.314 . S
N621 C625 1.272 1_545 S
C622 C620 1.348 . S
C622 C624 1.353 1_565 S
C622 H680 0.929 . S
C623 C620 1.356 . S
C623 C625 1.369 . S
C623 H681 0.930 . S
C624 N621 1.314 . S
C624 C622 1.353 1_545 S
C624 H682 0.930 . S
C625 N621 1.272 1_565 S
C625 C623 1.369 . S
C625 H683 0.927 1_565 S
C626 C629 1.348 . S
C626 C630 1.356 . S
C626 O677 1.325 . S
C627 N628 1.279 . S
C627 C630 1.358 . S
C627 H684 0.930 . S
N628 C627 1.279 . S
N628 C631 1.314 . S
C629 C626 1.348 . S
C629 C631 1.353 . S
C629 H685 0.929 . S
C630 C626 1.356 . S
C630 C627 1.358 . S
C630 H686 0.930 . S
C631 N628 1.314 . S
C631 C629 1.353 . S
C631 H687 0.930 . S
C632 N633 1.314 . S
C632 C637 1.353 . S
C632 H638 0.930 . S
N633 Li616 1.990 . S
N633 C632 1.314 . S
N633 C635 1.279 . S
C634 C635 1.358 1_545 S
C634 C636 1.356 . S
C634 H688 0.930 . S
C635 N633 1.279 . S
C635 C634 1.358 1_565 S
C635 H639 0.930 . S
C636 C634 1.356 . S
C636 C637 1.348 1_545 S
C637 C632 1.353 . S
C637 C636 1.348 1_565 S
C637 H689 0.929 . S
H638 C632 0.930 . S
H639 C635 0.930 . S
C640 N641 1.314 . S
C640 C642 1.353 . S
C640 H646 0.930 . S
N641 Li617 1.990 . S
N641 C640 1.314 . S
N641 C644 1.279 . S
C642 C640 1.353 . S
C642 C645 1.348 . S
C642 H690 0.929 . S
C643 C644 1.358 . S
C643 C645 1.356 . S
C643 H691 0.930 . S
C644 N641 1.279 . S
C644 C643 1.358 . S
C644 H647 0.930 . S
C645 C642 1.348 . S
C645 C643 1.356 . S
H646 C640 0.930 . S
H647 C644 0.930 . S
C648 C650 1.348 . S
C648 C651 1.356 . S
C648 O678 1.325 . S
N649 C652 1.314 . S
N649 C653 1.279 . S
C650 C648 1.348 . S
C650 C652 1.353 . S
C650 H692 0.929 . S
C651 C648 1.356 . S
C651 C653 1.358 . S
C651 H693 0.930 . S
C652 N649 1.314 . S
C652 C650 1.353 . S
C652 H694 0.930 . S
C653 N649 1.279 . S
C653 C651 1.358 . S
C653 H695 0.930 . S
C654 C655 1.348 . S
C654 C656 1.356 . S
C654 O679 1.325 . S
C655 C654 1.348 . S
C655 C657 1.353 . S
C655 H696 0.929 . S
C656 C654 1.356 . S
C656 C658 1.358 . S
C656 H697 0.930 . S
C657 C655 1.353 . S
C657 N659 1.314 . S
C657 H698 0.930 . S
C658 C656 1.358 . S
C658 N659 1.279 . S
C658 H699 0.930 . S
N659 C657 1.314 . S
N659 C658 1.279 . S
C660 C662 1.353 . S
C660 N663 1.314 . S
C660 H666 0.930 . S
C661 N663 1.279 . S
C661 C664 1.358 . S
C661 H667 0.930 . S
C662 C660 1.353 . S
C662 C665 1.348 . S
C662 H700 0.929 . S
N663 Li618 1.990 . S
N663 C660 1.314 . S
N663 C661 1.279 . S
C664 C661 1.358 . S
C664 C665 1.356 . S
C664 H701 0.930 . S
C665 C662 1.348 . S
C665 C664 1.356 . S
H666 C660 0.930 . S
H667 C661 0.930 . S
C668 N669 1.314 . S
C668 C670 1.353 . S
C668 H674 0.930 . S
N669 Li619 1.990 . S
N669 C668 1.314 . S
N669 C672 1.279 . S
C670 C668 1.353 . S
C670 C673 1.348 . S
C670 H702 0.929 . S
C671 C672 1.358 . S
C671 C673 1.356 . S
C671 H703 0.930 . S
C672 N669 1.279 . S
C672 C671 1.358 . S
C672 H675 0.930 . S
C673 C670 1.348 . S
C673 C671 1.356 . S
H674 C668 0.930 . S
H675 C672 0.930 . S
O676 Li616 1.956 . S
O676 Li617 1.970 . S
O676 Li618 1.961 . S
O676 C620 1.325 . S
O677 Li616 1.970 . S
O677 Li617 1.956 . S
O677 Li619 1.961 . S
O677 C626 1.325 . S
O678 Li616 1.961 . S
O678 Li618 1.956 . S
O678 Li619 1.970 . S
O678 C648 1.325 . S
O679 Li617 1.961 . S
O679 Li618 1.970 . S
O679 Li619 1.956 . S
O679 C654 1.325 . S
H680 C622 0.929 . S
H681 C623 0.930 . S
H682 C624 0.930 . S
H683 C625 0.927 1_545 S
H684 C627 0.930 . S
H685 C629 0.929 . S
H686 C630 0.930 . S
H687 C631 0.930 . S
H688 C634 0.930 . S
H689 C637 0.929 . S
H690 C642 0.929 . S
H691 C643 0.930 . S
H692 C650 0.929 . S
H693 C651 0.930 . S
H694 C652 0.930 . S
H695 C653 0.930 . S
H696 C655 0.929 . S
H697 C656 0.930 . S
H698 C657 0.930 . S
H699 C658 0.930 . S
H700 C662 0.929 . S
H701 C664 0.930 . S
H702 C670 0.929 . S
H703 C671 0.930 . S
C704 C705 1.391 . S
C704 C706 1.394 1_545 S
C704 H720 0.931 1_545 S
C705 C704 1.391 . S
C705 C709 1.376 . S
C706 C704 1.394 1_565 S
C706 C707 1.369 1_565 S
C706 C710 1.531 . S
C707 C706 1.369 1_545 S
C707 C708 1.410 . S
C707 C715 1.503 1_445 S
C708 C707 1.410 . S
C708 C709 1.392 . S
C708 C711 1.511 1_455 S
C709 C705 1.376 . S
C709 C708 1.392 . S
C709 H721 0.929 . S
C710 C706 1.531 . S
C710 H722 0.960 . S
C710 H723 0.962 . S
C710 H724 0.960 . S
C711 C708 1.511 1_655 S
C711 H725 0.961 . S
C711 H726 0.961 . S
C711 H727 0.961 . S
C712 C713 1.370 . S
C712 C714 1.363 . S
C712 H728 0.931 . S
C713 C712 1.370 . S
C713 C717 1.408 . S
C714 C712 1.363 . S
C714 C715 1.370 . S
C714 C718 1.524 . S
C715 C707 1.503 1_665 S
C715 C714 1.370 . S
C715 C716 1.403 . S
C716 C715 1.403 . S
C716 C717 1.404 . S
C716 C719 1.539 1_565 S
C717 C713 1.408 . S
C717 C716 1.404 . S
C717 H729 0.930 . S
C718 C714 1.524 . S
C718 H730 0.956 1_655 S
C718 H731 0.961 1_655 S
C718 H732 0.961 . S
C719 C716 1.539 1_545 S
C719 H733 0.958 . S
C719 H734 0.961 . S
C719 H735 0.960 . S
H720 C704 0.931 1_565 S
H721 C709 0.929 . S
H722 C710 0.960 . S
H723 C710 0.962 . S
H724 C710 0.960 . S
H725 C711 0.961 . S
H726 C711 0.961 . S
H727 C711 0.961 . S
H728 C712 0.931 . S
H729 C717 0.930 . S
H730 C718 0.956 1_455 S
H731 C718 0.961 1_455 S
H732 C718 0.961 . S
H733 C719 0.958 . S
H734 C719 0.961 . S
H735 C719 0.960 . S
C736 C737 1.391 . S
C736 C738 1.394 . S
C736 H752 0.931 . S
C737 C736 1.391 . S
C737 C741 1.376 . S
C738 C736 1.394 . S
C738 C739 1.369 . S
C738 C742 1.531 . S
C739 C738 1.369 . S
C739 C740 1.410 . S
C739 C747 1.503 . S
C740 C739 1.410 . S
C740 C741 1.392 . S
C740 C743 1.511 . S
C741 C737 1.376 . S
C741 C740 1.392 . S
C741 H753 0.929 . S
C742 C738 1.531 . S
C742 H754 0.960 . S
C742 H755 0.962 . S
C742 H756 0.960 . S
C743 C740 1.511 . S
C743 H757 0.961 . S
C743 H758 0.961 . S
C743 H759 0.961 . S
C744 C745 1.370 . S
C744 C746 1.363 . S
C744 H760 0.931 . S
C745 C744 1.370 . S
C745 C749 1.408 . S
C746 C744 1.363 . S
C746 C747 1.370 . S
C746 C750 1.524 . S
C747 C739 1.503 . S
C747 C746 1.370 . S
C747 C748 1.403 . S
C748 C747 1.403 . S
C748 C749 1.404 . S
C748 C751 1.539 . S
C749 C745 1.408 . S
C749 C748 1.404 . S
C749 H761 0.930 . S
C750 C746 1.524 . S
C750 H762 0.956 . S
C750 H763 0.961 . S
C750 H764 0.961 . S
C751 C748 1.539 . S
C751 H765 0.958 . S
C751 H766 0.961 . S
C751 H767 0.960 . S
H752 C736 0.931 . S
H753 C741 0.929 . S
H754 C742 0.960 . S
H755 C742 0.962 . S
H756 C742 0.960 . S
H757 C743 0.961 . S
H758 C743 0.961 . S
H759 C743 0.961 . S
H760 C744 0.931 . S
H761 C749 0.930 . S
H762 C750 0.956 . S
H763 C750 0.961 . S
H764 C750 0.961 . S
H765 C751 0.958 . S
H766 C751 0.961 . S
H767 C751 0.960 . S
C768 C769 1.391 . S
C768 C770 1.394 . S
C768 H784 0.931 . S
C769 C768 1.391 . S
C769 C773 1.376 . S
C770 C768 1.394 . S
C770 C771 1.369 . S
C770 C774 1.531 . S
C771 C770 1.369 . S
C771 C772 1.410 . S
C771 C779 1.503 . S
C772 C771 1.410 . S
C772 C773 1.392 . S
C772 C775 1.511 . S
C773 C769 1.376 . S
C773 C772 1.392 . S
C773 H785 0.929 . S
C774 C770 1.531 . S
C774 H786 0.960 . S
C774 H787 0.962 . S
C774 H788 0.960 . S
C775 C772 1.511 . S
C775 H789 0.961 . S
C775 H790 0.961 . S
C775 H791 0.961 . S
C776 C777 1.370 . S
C776 C778 1.363 . S
C776 H792 0.931 . S
C777 C776 1.370 . S
C777 C781 1.408 . S
C778 C776 1.363 . S
C778 C779 1.370 . S
C778 C782 1.524 . S
C779 C771 1.503 . S
C779 C778 1.370 . S
C779 C780 1.403 . S
C780 C779 1.403 . S
C780 C781 1.404 . S
C780 C783 1.539 . S
C781 C777 1.408 . S
C781 C780 1.404 . S
C781 H793 0.930 . S
C782 C778 1.524 . S
C782 H794 0.956 . S
C782 H795 0.961 . S
C782 H796 0.961 . S
C783 C780 1.539 . S
C783 H797 0.958 . S
C783 H798 0.961 . S
C783 H799 0.960 . S
H784 C768 0.931 . S
H785 C773 0.929 . S
H786 C774 0.960 . S
H787 C774 0.962 . S
H788 C774 0.960 . S
H789 C775 0.961 . S
H790 C775 0.961 . S
H791 C775 0.961 . S
H792 C776 0.931 . S
H793 C781 0.930 . S
H794 C782 0.956 . S
H795 C782 0.961 . S
H796 C782 0.961 . S
H797 C783 0.958 . S
H798 C783 0.961 . S
H799 C783 0.960 . S
C800 C801 1.391 . S
C800 C802 1.394 . S
C800 H816 0.931 . S
C801 C800 1.391 . S
C801 C805 1.376 . S
C802 C800 1.394 . S
C802 C803 1.368 . S
C802 C806 1.531 . S
C803 C802 1.368 . S
C803 C804 1.409 . S
C803 C811 1.504 1_445 S
C804 C803 1.409 . S
C804 C805 1.392 . S
C804 C807 1.511 1_455 S
C805 C801 1.376 . S
C805 C804 1.392 . S
C805 H817 0.929 . S
C806 C802 1.531 . S
C806 H818 0.960 1_455 S
C806 H819 0.962 . S
C806 H820 0.960 . S
C807 C804 1.511 1_655 S
C807 H821 0.961 1_655 S
C807 H822 0.947 1_545 S
C807 H823 0.961 . S
C808 C809 1.370 . S
C808 C810 1.363 1_655 S
C808 H824 0.931 1_655 S
C809 C808 1.370 . S
C809 C813 1.408 . S
C810 C808 1.363 1_455 S
C810 C811 1.370 1_455 S
C810 C814 1.524 . S
C811 C803 1.504 1_665 S
C811 C810 1.370 1_655 S
C811 C812 1.403 . S
C812 C811 1.403 . S
C812 C813 1.404 . S
C812 C815 1.539 1_565 S
C813 C809 1.408 . S
C813 C812 1.404 . S
C813 H825 0.930 . S
C814 C810 1.524 . S
C814 H826 0.956 . S
C814 H827 0.961 . S
C814 H828 0.961 . S
C815 C812 1.539 1_545 S
C815 H829 0.958 . S
C815 H830 0.957 1_545 S
C815 H831 0.960 . S
H816 C800 0.931 . S
H817 C805 0.929 . S
H818 C806 0.960 1_655 S
H819 C806 0.962 . S
H820 C806 0.960 . S
H821 C807 0.961 1_455 S
H822 C807 0.947 1_565 S
H823 C807 0.961 . S
H824 C808 0.931 1_455 S
H825 C813 0.930 . S
H826 C814 0.956 . S
H827 C814 0.961 . S
H828 C814 0.961 . S
H829 C815 0.958 . S
H830 C815 0.957 1_565 S
H831 C815 0.960 . S
C832 C833 1.391 . S
C832 C834 1.394 . S
C832 H848 0.931 . S
C833 C832 1.391 . S
C833 C837 1.376 . S
C834 C832 1.394 . S
C834 C835 1.369 . S
C834 C838 1.531 . S
C835 C834 1.369 . S
C835 C836 1.410 . S
C835 C843 1.503 . S
C836 C835 1.410 . S
C836 C837 1.392 . S
C836 C839 1.511 . S
C837 C833 1.376 . S
C837 C836 1.392 . S
C837 H849 0.929 . S
C838 C834 1.531 . S
C838 H850 0.960 . S
C838 H851 0.962 . S
C838 H852 0.960 . S
C839 C836 1.511 . S
C839 H853 0.961 . S
C839 H854 0.961 . S
C839 H855 0.961 . S
C840 C841 1.370 . S
C840 C842 1.363 . S
C840 H856 0.931 . S
C841 C840 1.370 . S
C841 C845 1.408 . S
C842 C840 1.363 . S
C842 C843 1.370 . S
C842 C846 1.524 . S
C843 C835 1.503 . S
C843 C842 1.370 . S
C843 C844 1.403 . S
C844 C843 1.403 . S
C844 C845 1.404 . S
C844 C847 1.539 . S
C845 C841 1.408 . S
C845 C844 1.404 . S
C845 H857 0.930 . S
C846 C842 1.524 . S
C846 H858 0.956 . S
C846 H859 0.961 . S
C846 H860 0.961 . S
C847 C844 1.539 . S
C847 H861 0.958 . S
C847 H862 0.961 . S
C847 H863 0.960 . S
H848 C832 0.931 . S
H849 C837 0.929 . S
H850 C838 0.960 . S
H851 C838 0.962 . S
H852 C838 0.960 . S
H853 C839 0.961 . S
H854 C839 0.961 . S
H855 C839 0.961 . S
H856 C840 0.931 . S
H857 C845 0.930 . S
H858 C846 0.956 . S
H859 C846 0.961 . S
H860 C846 0.961 . S
H861 C847 0.958 . S
H862 C847 0.961 . S
H863 C847 0.960 . S
C864 C865 1.391 . S
C864 C866 1.394 . S
C864 H880 0.931 . S
C865 C864 1.391 . S
C865 C869 1.376 . S
C866 C864 1.394 . S
C866 C867 1.369 . S
C866 C870 1.531 . S
C867 C866 1.369 . S
C867 C868 1.410 . S
C867 C875 1.503 1_556 S
C868 C867 1.410 . S
C868 C869 1.392 . S
C868 C871 1.511 1_556 S
C869 C865 1.376 . S
C869 C868 1.392 . S
C869 H881 0.929 . S
C870 C866 1.531 . S
C870 H882 0.960 . S
C870 H883 0.962 . S
C870 H884 0.960 . S
C871 C868 1.511 1_554 S
C871 H885 0.961 . S
C871 H886 0.961 . S
C871 H887 0.961 . S
C872 C873 1.370 . S
C872 C874 1.363 . S
C872 H888 0.931 . S
C873 C872 1.370 . S
C873 C877 1.408 . S
C874 C872 1.363 . S
C874 C875 1.370 . S
C874 C878 1.524 . S
C875 C867 1.503 1_554 S
C875 C874 1.370 . S
C875 C876 1.403 . S
C876 C875 1.403 . S
C876 C877 1.404 . S
C876 C879 1.539 . S
C877 C873 1.408 . S
C877 C876 1.404 . S
C877 H889 0.930 . S
C878 C874 1.524 . S
C878 H890 0.956 1_554 S
C878 H891 0.961 . S
C878 H892 0.961 . S
C879 C876 1.539 . S
C879 H893 0.958 . S
C879 H894 0.961 . S
C879 H895 0.960 . S
H880 C864 0.931 . S
H881 C869 0.929 . S
H882 C870 0.960 . S
H883 C870 0.962 . S
H884 C870 0.960 . S
H885 C871 0.961 . S
H886 C871 0.961 . S
H887 C871 0.961 . S
H888 C872 0.931 . S
H889 C877 0.930 . S
H890 C878 0.956 1_556 S
H891 C878 0.961 . S
H892 C878 0.961 . S
H893 C879 0.958 . S
H894 C879 0.961 . S
H895 C879 0.960 . S
C896 C897 1.391 . S
C896 C898 1.394 . S
C896 H912 0.931 . S
C897 C896 1.391 . S
C897 C901 1.376 . S
C898 C896 1.394 . S
C898 C899 1.369 . S
C898 C902 1.531 . S
C899 C898 1.369 . S
C899 C900 1.410 . S
C899 C907 1.503 . S
C900 C899 1.410 . S
C900 C901 1.392 . S
C900 C903 1.511 . S
C901 C897 1.376 . S
C901 C900 1.392 . S
C901 H913 0.929 . S
C902 C898 1.531 . S
C902 H914 0.960 . S
C902 H915 0.962 . S
C902 H916 0.960 . S
C903 C900 1.511 . S
C903 H917 0.961 . S
C903 H918 0.961 . S
C903 H919 0.961 . S
C904 C905 1.370 . S
C904 C906 1.363 . S
C904 H920 0.931 . S
C905 C904 1.370 . S
C905 C909 1.408 . S
C906 C904 1.363 . S
C906 C907 1.370 . S
C906 C910 1.524 . S
C907 C899 1.503 . S
C907 C906 1.370 . S
C907 C908 1.403 . S
C908 C907 1.403 . S
C908 C909 1.404 . S
C908 C911 1.539 . S
C909 C905 1.408 . S
C909 C908 1.404 . S
C909 H921 0.930 . S
C910 C906 1.524 . S
C910 H922 0.956 . S
C910 H923 0.961 . S
C910 H924 0.961 . S
C911 C908 1.539 . S
C911 H925 0.958 . S
C911 H926 0.961 . S
C911 H927 0.960 . S
H912 C896 0.931 . S
H913 C901 0.929 . S
H914 C902 0.960 . S
H915 C902 0.962 . S
H916 C902 0.960 . S
H917 C903 0.961 . S
H918 C903 0.961 . S
H919 C903 0.961 . S
H920 C904 0.931 . S
H921 C909 0.930 . S
H922 C910 0.956 . S
H923 C910 0.961 . S
H924 C910 0.961 . S
H925 C911 0.958 . S
H926 C911 0.961 . S
H927 C911 0.960 . S
C928 C929 1.391 . S
C928 C930 1.394 . S
C928 H944 0.931 . S
C929 C928 1.391 . S
C929 C933 1.376 . S
C930 C928 1.394 . S
C930 C931 1.369 . S
C930 C934 1.531 1_556 S
C931 C930 1.369 . S
C931 C932 1.410 . S
C931 C939 1.503 1_556 S
C932 C931 1.410 . S
C932 C933 1.392 . S
C932 C935 1.511 . S
C933 C929 1.376 . S
C933 C932 1.392 . S
C933 H945 0.929 . S
C934 C930 1.531 1_554 S
C934 H946 0.960 . S
C934 H947 0.962 . S
C934 H948 0.960 1_554 S
C935 C932 1.511 . S
C935 H949 0.961 . S
C935 H950 0.961 . S
C935 H951 0.961 . S
C936 C937 1.370 . S
C936 C938 1.363 . S
C936 H952 0.931 . S
C937 C936 1.370 . S
C937 C941 1.408 . S
C938 C936 1.363 . S
C938 C939 1.370 . S
C938 C942 1.524 . S
C939 C931 1.503 1_554 S
C939 C938 1.370 . S
C939 C940 1.403 . S
C940 C939 1.403 . S
C940 C941 1.404 . S
C940 C943 1.539 1_554 S
C941 C937 1.408 . S
C941 C940 1.404 . S
C941 H953 0.930 . S
C942 C938 1.524 . S
C942 H954 0.956 . S
C942 H955 0.961 . S
C942 H956 0.961 . S
C943 C940 1.539 1_556 S
C943 H957 0.958 . S
C943 H958 0.961 . S
C943 H959 0.960 . S
H944 C928 0.931 . S
H945 C933 0.929 . S
H946 C934 0.960 . S
H947 C934 0.962 . S
H948 C934 0.960 1_556 S
H949 C935 0.961 . S
H950 C935 0.961 . S
H951 C935 0.961 . S
H952 C936 0.931 . S
H953 C941 0.930 . S
H954 C942 0.956 . S
H955 C942 0.961 . S
H956 C942 0.961 . S
H957 C943 0.958 . S
H958 C943 0.961 . S
H959 C943 0.960 . S
C960 C961 1.391 . S
C960 C962 1.394 . S
C960 H976 0.931 . S
C961 C960 1.391 . S
C961 C965 1.376 . S
C962 C960 1.394 . S
C962 C963 1.369 . S
C962 C966 1.531 . S
C963 C962 1.369 . S
C963 C964 1.410 . S
C963 C971 1.503 . S
C964 C963 1.410 . S
C964 C965 1.392 . S
C964 C967 1.511 . S
C965 C961 1.376 . S
C965 C964 1.392 . S
C965 H977 0.929 . S
C966 C962 1.531 . S
C966 H978 0.960 . S
C966 H979 0.962 . S
C966 H980 0.960 . S
C967 C964 1.511 . S
C967 H981 0.961 . S
C967 H982 0.961 . S
C967 H983 0.961 . S
C968 C969 1.370 . S
C968 C970 1.363 . S
C968 H984 0.931 . S
C969 C968 1.370 . S
C969 C973 1.408 . S
C970 C968 1.363 . S
C970 C971 1.370 . S
C970 C974 1.524 . S
C971 C963 1.503 . S
C971 C970 1.370 . S
C971 C972 1.403 . S
C972 C971 1.403 . S
C972 C973 1.404 . S
C972 C975 1.539 . S
C973 C969 1.408 . S
C973 C972 1.404 . S
C973 H985 0.930 . S
C974 C970 1.524 . S
C974 H986 0.956 . S
C974 H987 0.961 . S
C974 H988 0.961 . S
C975 C972 1.539 . S
C975 H989 0.958 . S
C975 H990 0.961 . S
C975 H991 0.960 . S
H976 C960 0.931 . S
H977 C965 0.929 . S
H978 C966 0.960 . S
H979 C966 0.962 . S
H980 C966 0.960 . S
H981 C967 0.961 . S
H982 C967 0.961 . S
H983 C967 0.961 . S
H984 C968 0.931 . S
H985 C973 0.930 . S
H986 C974 0.956 . S
H987 C974 0.961 . S
H988 C974 0.961 . S
H989 C975 0.958 . S
H990 C975 0.961 . S
H991 C975 0.960 . S
C992 C993 1.391 . S
C992 C994 1.394 . S
C992 H1008 0.931 . S
C993 C992 1.391 . S
C993 C997 1.376 . S
C994 C992 1.394 . S
C994 C995 1.369 . S
C994 C998 1.531 . S
C995 C994 1.369 . S
C995 C996 1.410 . S
C995 C1003 1.503 . S
C996 C995 1.410 . S
C996 C997 1.392 . S
C996 C999 1.511 . S
C997 C993 1.376 . S
C997 C996 1.392 . S
C997 H1009 0.929 . S
C998 C994 1.531 . S
C998 H1010 0.960 . S
C998 H1011 0.962 . S
C998 H1012 0.960 . S
C999 C996 1.511 . S
C999 H1013 0.961 . S
C999 H1014 0.961 . S
C999 H1015 0.961 . S
C1000 C1001 1.370 . S
C1000 C1002 1.363 . S
C1000 H1016 0.931 . S
C1001 C1000 1.370 . S
C1001 C1005 1.408 . S
C1002 C1000 1.363 . S
C1002 C1003 1.370 . S
C1002 C1006 1.524 . S
C1003 C995 1.503 . S
C1003 C1002 1.370 . S
C1003 C1004 1.403 . S
C1004 C1003 1.403 . S
C1004 C1005 1.404 . S
C1004 C1007 1.539 . S
C1005 C1001 1.408 . S
C1005 C1004 1.404 . S
C1005 H1017 0.930 . S
C1006 C1002 1.524 . S
C1006 H1018 0.956 . S
C1006 H1019 0.961 . S
C1006 H1020 0.961 . S
C1007 C1004 1.539 . S
C1007 H1021 0.958 . S
C1007 H1022 0.961 . S
C1007 H1023 0.960 . S
H1008 C992 0.931 . S
H1009 C997 0.929 . S
H1010 C998 0.960 . S
H1011 C998 0.962 . S
H1012 C998 0.960 . S
H1013 C999 0.961 . S
H1014 C999 0.961 . S
H1015 C999 0.961 . S
H1016 C1000 0.931 . S
H1017 C1005 0.930 . S
H1018 C1006 0.956 . S
H1019 C1006 0.961 . S
H1020 C1006 0.961 . S
H1021 C1007 0.958 . S
H1022 C1007 0.961 . S
H1023 C1007 0.960 . S
C1024 C1025 1.391 . S
C1024 C1026 1.394 . S
C1024 H1040 0.931 . S
C1025 C1024 1.391 . S
C1025 C1029 1.376 . S
C1026 C1024 1.394 . S
C1026 C1027 1.369 . S
C1026 C1030 1.531 . S
C1027 C1026 1.369 . S
C1027 C1028 1.410 . S
C1027 C1035 1.503 . S
C1028 C1027 1.410 . S
C1028 C1029 1.392 . S
C1028 C1031 1.511 . S
C1029 C1025 1.376 . S
C1029 C1028 1.392 . S
C1029 H1041 0.929 . S
C1030 C1026 1.531 . S
C1030 H1042 0.960 . S
C1030 H1043 0.962 . S
C1030 H1044 0.960 . S
C1031 C1028 1.511 . S
C1031 H1045 0.961 . S
C1031 H1046 0.961 . S
C1031 H1047 0.961 . S
C1032 C1033 1.370 . S
C1032 C1034 1.363 . S
C1032 H1048 0.931 . S
C1033 C1032 1.370 . S
C1033 C1037 1.408 . S
C1034 C1032 1.363 . S
C1034 C1035 1.370 . S
C1034 C1038 1.524 . S
C1035 C1027 1.503 . S
C1035 C1034 1.370 . S
C1035 C1036 1.403 . S
C1036 C1035 1.403 . S
C1036 C1037 1.404 . S
C1036 C1039 1.539 . S
C1037 C1033 1.408 . S
C1037 C1036 1.404 . S
C1037 H1049 0.930 . S
C1038 C1034 1.524 . S
C1038 H1050 0.956 . S
C1038 H1051 0.961 . S
C1038 H1052 0.961 . S
C1039 C1036 1.539 . S
C1039 H1053 0.958 . S
C1039 H1054 0.961 . S
C1039 H1055 0.960 . S
H1040 C1024 0.931 . S
H1041 C1029 0.929 . S
H1042 C1030 0.960 . S
H1043 C1030 0.962 . S
H1044 C1030 0.960 . S
H1045 C1031 0.961 . S
H1046 C1031 0.961 . S
H1047 C1031 0.961 . S
H1048 C1032 0.931 . S
H1049 C1037 0.930 . S
H1050 C1038 0.956 . S
H1051 C1038 0.961 . S
H1052 C1038 0.961 . S
H1053 C1039 0.958 . S
H1054 C1039 0.961 . S
H1055 C1039 0.960 . S
C1056 C1057 1.391 . S
C1056 C1058 1.394 . S
C1056 H1072 0.931 . S
C1057 C1056 1.391 . S
C1057 C1061 1.376 . S
C1058 C1056 1.394 . S
C1058 C1059 1.369 . S
C1058 C1062 1.531 . S
C1059 C1058 1.369 . S
C1059 C1060 1.410 . S
C1059 C1067 1.503 . S
C1060 C1059 1.410 . S
C1060 C1061 1.392 . S
C1060 C1063 1.511 . S
C1061 C1057 1.376 . S
C1061 C1060 1.392 . S
C1061 H1073 0.929 . S
C1062 C1058 1.531 . S
C1062 H1074 0.960 . S
C1062 H1075 0.962 . S
C1062 H1076 0.960 . S
C1063 C1060 1.511 . S
C1063 H1077 0.961 . S
C1063 H1078 0.961 . S
C1063 H1079 0.961 . S
C1064 C1065 1.370 . S
C1064 C1066 1.363 . S
C1064 H1080 0.931 . S
C1065 C1064 1.370 . S
C1065 C1069 1.408 . S
C1066 C1064 1.363 . S
C1066 C1067 1.370 . S
C1066 C1070 1.524 . S
C1067 C1059 1.503 . S
C1067 C1066 1.370 . S
C1067 C1068 1.403 . S
C1068 C1067 1.403 . S
C1068 C1069 1.404 . S
C1068 C1071 1.539 . S
C1069 C1065 1.408 . S
C1069 C1068 1.404 . S
C1069 H1081 0.930 . S
C1070 C1066 1.524 . S
C1070 H1082 0.956 . S
C1070 H1083 0.961 . S
C1070 H1084 0.961 . S
C1071 C1068 1.539 . S
C1071 H1085 0.958 . S
C1071 H1086 0.961 . S
C1071 H1087 0.960 . S
H1072 C1056 0.931 . S
H1073 C1061 0.929 . S
H1074 C1062 0.960 . S
H1075 C1062 0.962 . S
H1076 C1062 0.960 . S
H1077 C1063 0.961 . S
H1078 C1063 0.961 . S
H1079 C1063 0.961 . S
H1080 C1064 0.931 . S
H1081 C1069 0.930 . S
H1082 C1070 0.956 . S
H1083 C1070 0.961 . S
H1084 C1070 0.961 . S
H1085 C1071 0.958 . S
H1086 C1071 0.961 . S
H1087 C1071 0.960 . S
C1088 C1089 1.391 . S
C1088 C1090 1.394 . S
C1088 H1104 0.931 . S
C1089 C1088 1.391 . S
C1089 C1093 1.376 . S
C1090 C1088 1.394 . S
C1090 C1091 1.369 . S
C1090 C1094 1.531 . S
C1091 C1090 1.369 . S
C1091 C1092 1.410 . S
C1091 C1099 1.503 . S
C1092 C1091 1.410 . S
C1092 C1093 1.392 . S
C1092 C1095 1.511 . S
C1093 C1089 1.376 . S
C1093 C1092 1.392 . S
C1093 H1105 0.929 . S
C1094 C1090 1.531 . S
C1094 H1106 0.960 . S
C1094 H1107 0.962 . S
C1094 H1108 0.960 . S
C1095 C1092 1.511 . S
C1095 H1109 0.961 . S
C1095 H1110 0.961 . S
C1095 H1111 0.961 . S
C1096 C1097 1.370 . S
C1096 C1098 1.363 . S
C1096 H1112 0.931 . S
C1097 C1096 1.370 . S
C1097 C1101 1.408 . S
C1098 C1096 1.363 . S
C1098 C1099 1.370 . S
C1098 C1102 1.524 . S
C1099 C1091 1.503 . S
C1099 C1098 1.370 . S
C1099 C1100 1.403 . S
C1100 C1099 1.403 . S
C1100 C1101 1.404 . S
C1100 C1103 1.539 . S
C1101 C1097 1.408 . S
C1101 C1100 1.404 . S
C1101 H1113 0.930 . S
C1102 C1098 1.524 . S
C1102 H1114 0.956 . S
C1102 H1115 0.961 . S
C1102 H1116 0.961 . S
C1103 C1100 1.539 . S
C1103 H1117 0.958 . S
C1103 H1118 0.961 . S
C1103 H1119 0.960 . S
H1104 C1088 0.931 . S
H1105 C1093 0.929 . S
H1106 C1094 0.960 . S
H1107 C1094 0.962 . S
H1108 C1094 0.960 . S
H1109 C1095 0.961 . S
H1110 C1095 0.961 . S
H1111 C1095 0.961 . S
H1112 C1096 0.931 . S
H1113 C1101 0.930 . S
H1114 C1102 0.956 . S
H1115 C1102 0.961 . S
H1116 C1102 0.961 . S
H1117 C1103 0.958 . S
H1118 C1103 0.961 . S
H1119 C1103 0.960 . S
C1120 C1121 1.391 . S
C1120 C1122 1.394 . S
C1120 H1136 0.931 . S
C1121 C1120 1.391 . S
C1121 C1125 1.376 . S
C1122 C1120 1.394 . S
C1122 C1123 1.369 . S
C1122 C1126 1.531 . S
C1123 C1122 1.369 . S
C1123 C1124 1.410 . S
C1123 C1131 1.503 . S
C1124 C1123 1.410 . S
C1124 C1125 1.392 . S
C1124 C1127 1.511 . S
C1125 C1121 1.376 . S
C1125 C1124 1.392 . S
C1125 H1137 0.929 . S
C1126 C1122 1.531 . S
C1126 H1138 0.960 . S
C1126 H1139 0.962 . S
C1126 H1140 0.960 . S
C1127 C1124 1.511 . S
C1127 H1141 0.961 . S
C1127 H1142 0.961 . S
C1127 H1143 0.961 . S
C1128 C1129 1.370 . S
C1128 C1130 1.363 . S
C1128 H1144 0.931 . S
C1129 C1128 1.370 . S
C1129 C1133 1.408 . S
C1130 C1128 1.363 . S
C1130 C1131 1.370 . S
C1130 C1134 1.524 . S
C1131 C1123 1.503 . S
C1131 C1130 1.370 . S
C1131 C1132 1.403 . S
C1132 C1131 1.403 . S
C1132 C1133 1.404 . S
C1132 C1135 1.539 . S
C1133 C1129 1.408 . S
C1133 C1132 1.404 . S
C1133 H1145 0.930 . S
C1134 C1130 1.524 . S
C1134 H1146 0.956 . S
C1134 H1147 0.961 . S
C1134 H1148 0.961 . S
C1135 C1132 1.539 . S
C1135 H1149 0.958 . S
C1135 H1150 0.961 . S
C1135 H1151 0.960 . S
H1136 C1120 0.931 . S
H1137 C1125 0.929 . S
H1138 C1126 0.960 . S
H1139 C1126 0.962 . S
H1140 C1126 0.960 . S
H1141 C1127 0.961 . S
H1142 C1127 0.961 . S
H1143 C1127 0.961 . S
H1144 C1128 0.931 . S
H1145 C1133 0.930 . S
H1146 C1134 0.956 . S
H1147 C1134 0.961 . S
H1148 C1134 0.961 . S
H1149 C1135 0.958 . S
H1150 C1135 0.961 . S
H1151 C1135 0.960 . S
C1152 C1153 1.391 . S
C1152 C1154 1.394 . S
C1152 H1168 0.931 . S
C1153 C1152 1.391 . S
C1153 C1157 1.376 . S
C1154 C1152 1.394 . S
C1154 C1155 1.369 . S
C1154 C1158 1.531 . S
C1155 C1154 1.369 . S
C1155 C1156 1.410 . S
C1155 C1163 1.503 . S
C1156 C1155 1.410 . S
C1156 C1157 1.392 . S
C1156 C1159 1.511 . S
C1157 C1153 1.376 . S
C1157 C1156 1.392 . S
C1157 H1169 0.929 . S
C1158 C1154 1.531 . S
C1158 H1170 0.960 . S
C1158 H1171 0.962 . S
C1158 H1172 0.960 . S
C1159 C1156 1.511 . S
C1159 H1173 0.961 . S
C1159 H1174 0.961 . S
C1159 H1175 0.961 . S
C1160 C1161 1.370 . S
C1160 C1162 1.363 . S
C1160 H1176 0.931 . S
C1161 C1160 1.370 . S
C1161 C1165 1.408 . S
C1162 C1160 1.363 . S
C1162 C1163 1.370 . S
C1162 C1166 1.524 . S
C1163 C1155 1.503 . S
C1163 C1162 1.370 . S
C1163 C1164 1.403 . S
C1164 C1163 1.403 . S
C1164 C1165 1.404 . S
C1164 C1167 1.539 . S
C1165 C1161 1.408 . S
C1165 C1164 1.404 . S
C1165 H1177 0.930 . S
C1166 C1162 1.524 . S
C1166 H1178 0.956 . S
C1166 H1179 0.961 . S
C1166 H1180 0.961 . S
C1167 C1164 1.539 . S
C1167 H1181 0.958 . S
C1167 H1182 0.961 . S
C1167 H1183 0.960 . S
H1168 C1152 0.931 . S
H1169 C1157 0.929 . S
H1170 C1158 0.960 . S
H1171 C1158 0.962 . S
H1172 C1158 0.960 . S
H1173 C1159 0.961 . S
H1174 C1159 0.961 . S
H1175 C1159 0.961 . S
H1176 C1160 0.931 . S
H1177 C1165 0.930 . S
H1178 C1166 0.956 . S
H1179 C1166 0.961 . S
H1180 C1166 0.961 . S
H1181 C1167 0.958 . S
H1182 C1167 0.961 . S
H1183 C1167 0.960 . S
C1184 C1185 1.391 . S
C1184 C1186 1.394 . S
C1184 H1200 0.931 . S
C1185 C1184 1.391 . S
C1185 C1189 1.376 . S
C1186 C1184 1.394 . S
C1186 C1187 1.369 . S
C1186 C1190 1.531 . S
C1187 C1186 1.369 . S
C1187 C1188 1.410 . S
C1187 C1195 1.503 . S
C1188 C1187 1.410 . S
C1188 C1189 1.392 . S
C1188 C1191 1.511 . S
C1189 C1185 1.376 . S
C1189 C1188 1.392 . S
C1189 H1201 0.929 . S
C1190 C1186 1.531 . S
C1190 H1202 0.960 . S
C1190 H1203 0.962 . S
C1190 H1204 0.960 . S
C1191 C1188 1.511 . S
C1191 H1205 0.961 . S
C1191 H1206 0.961 . S
C1191 H1207 0.961 . S
C1192 C1193 1.370 . S
C1192 C1194 1.363 . S
C1192 H1208 0.931 . S
C1193 C1192 1.370 . S
C1193 C1197 1.408 . S
C1194 C1192 1.363 . S
C1194 C1195 1.370 . S
C1194 C1198 1.524 . S
C1195 C1187 1.503 . S
C1195 C1194 1.370 . S
C1195 C1196 1.403 . S
C1196 C1195 1.403 . S
C1196 C1197 1.404 . S
C1196 C1199 1.539 . S
C1197 C1193 1.408 . S
C1197 C1196 1.404 . S
C1197 H1209 0.930 . S
C1198 C1194 1.524 . S
C1198 H1210 0.956 . S
C1198 H1211 0.961 . S
C1198 H1212 0.961 . S
C1199 C1196 1.539 . S
C1199 H1213 0.958 . S
C1199 H1214 0.961 . S
C1199 H1215 0.960 . S
H1200 C1184 0.931 . S
H1201 C1189 0.929 . S
H1202 C1190 0.960 . S
H1203 C1190 0.962 . S
H1204 C1190 0.960 . S
H1205 C1191 0.961 . S
H1206 C1191 0.961 . S
H1207 C1191 0.961 . S
H1208 C1192 0.931 . S
H1209 C1197 0.930 . S
H1210 C1198 0.956 . S
H1211 C1198 0.961 . S
H1212 C1198 0.961 . S
H1213 C1199 0.958 . S
H1214 C1199 0.961 . S
H1215 C1199 0.960 . S
C705 C57 0.652 . S
C713 C233 0.722 . S
C737 C137 0.633 . S
C745 C293 0.717 . S
C769 C372 0.798 . S
C777 C557 0.663 . S
C801 C489 0.796 . S
C809 C645 0.647 . S
C833 C29 1.858 . S
C841 C469 1.925 . S
C865 C117 1.924 . S
C873 C585 1.893 . S
C897 C665 1.936 . S
C905 C205 1.879 . S
C929 C313 1.880 . S
C937 C401 1.900 . S
C961 C409 1.767 . S
C969 C49 1.899 . S
C993 C108 1.844 . S
C1001 C497 1.762 . S
C1025 C225 1.910 . S
C1033 C577 1.770 . S
C1057 C321 1.835 . S
C1065 C636 1.768 . S
C1089 C20 1.816 . S
C1097 C381 1.888 . S
C1121 C460 1.841 . S
C1129 C145 1.764 . S
C1153 C548 1.872 . S
C1161 C196 1.800 . S
C1185 C284 1.760 . S
C1193 C673 1.856 . S
