# Generated by pormake.
# Topology wfa, (4)-cn, num edge types: 1
# Building blocks:
#     Node 0, Type 0, BuildingBlock: MUDLON_clean_sbu_0, # of connection points: 4
#     Node 1, Type 0, BuildingBlock: MUDLON_clean_sbu_0, # of connection points: 4
#     Node 2, Type 0, BuildingBlock: MUDLON_clean_sbu_0, # of connection points: 4
#     Node 3, Type 0, BuildingBlock: MUDLON_clean_sbu_0, # of connection points: 4
#     Node 4, Type 0, BuildingBlock: MUDLON_clean_sbu_0, # of connection points: 4
#     Node 5, Type 0, BuildingBlock: MUDLON_clean_sbu_0, # of connection points: 4
#     Node 6, Type 0, BuildingBlock: MUDLON_clean_sbu_0, # of connection points: 4
#     Node 7, Type 0, BuildingBlock: MUDLON_clean_sbu_0, # of connection points: 4
#     Node 8, Type 0, BuildingBlock: MUDLON_clean_sbu_0, # of connection points: 4
#     Node 9, Type 0, BuildingBlock: MUDLON_clean_sbu_0, # of connection points: 4
#     Node 10, Type 0, BuildingBlock: MUDLON_clean_sbu_0, # of connection points: 4
#     Node 11, Type 0, BuildingBlock: MUDLON_clean_sbu_0, # of connection points: 4
#     Node 12, Type 0, BuildingBlock: MUDLON_clean_sbu_0, # of connection points: 4
#     Node 13, Type 0, BuildingBlock: MUDLON_clean_sbu_0, # of connection points: 4
#     Node 14, Type 0, BuildingBlock: MUDLON_clean_sbu_0, # of connection points: 4
#     Node 15, Type 0, BuildingBlock: MUDLON_clean_sbu_0, # of connection points: 4
#     Edge 16, Type (0, 0), BuildingBlock: ZUJKAS_clean_linker_0, # of connection points: 2
#     Edge 17, Type (0, 0), BuildingBlock: ZUJKAS_clean_linker_0, # of connection points: 2
#     Edge 18, Type (0, 0), BuildingBlock: ZUJKAS_clean_linker_0, # of connection points: 2
#     Edge 19, Type (0, 0), BuildingBlock: ZUJKAS_clean_linker_0, # of connection points: 2
#     Edge 20, Type (0, 0), BuildingBlock: ZUJKAS_clean_linker_0, # of connection points: 2
#     Edge 21, Type (0, 0), BuildingBlock: ZUJKAS_clean_linker_0, # of connection points: 2
#     Edge 22, Type (0, 0), BuildingBlock: ZUJKAS_clean_linker_0, # of connection points: 2
#     Edge 23, Type (0, 0), BuildingBlock: ZUJKAS_clean_linker_0, # of connection points: 2
#     Edge 24, Type (0, 0), BuildingBlock: ZUJKAS_clean_linker_0, # of connection points: 2
#     Edge 25, Type (0, 0), BuildingBlock: ZUJKAS_clean_linker_0, # of connection points: 2
#     Edge 26, Type (0, 0), BuildingBlock: ZUJKAS_clean_linker_0, # of connection points: 2
#     Edge 27, Type (0, 0), BuildingBlock: ZUJKAS_clean_linker_0, # of connection points: 2
#     Edge 28, Type (0, 0), BuildingBlock: ZUJKAS_clean_linker_0, # of connection points: 2
#     Edge 29, Type (0, 0), BuildingBlock: ZUJKAS_clean_linker_0, # of connection points: 2
#     Edge 30, Type (0, 0), BuildingBlock: ZUJKAS_clean_linker_0, # of connection points: 2
#     Edge 31, Type (0, 0), BuildingBlock: ZUJKAS_clean_linker_0, # of connection points: 2
#     Edge 32, Type (0, 0), BuildingBlock: ZUJKAS_clean_linker_0, # of connection points: 2
#     Edge 33, Type (0, 0), BuildingBlock: ZUJKAS_clean_linker_0, # of connection points: 2
#     Edge 34, Type (0, 0), BuildingBlock: ZUJKAS_clean_linker_0, # of connection points: 2
#     Edge 35, Type (0, 0), BuildingBlock: ZUJKAS_clean_linker_0, # of connection points: 2
#     Edge 36, Type (0, 0), BuildingBlock: ZUJKAS_clean_linker_0, # of connection points: 2
#     Edge 37, Type (0, 0), BuildingBlock: ZUJKAS_clean_linker_0, # of connection points: 2
#     Edge 38, Type (0, 0), BuildingBlock: ZUJKAS_clean_linker_0, # of connection points: 2
#     Edge 39, Type (0, 0), BuildingBlock: ZUJKAS_clean_linker_0, # of connection points: 2
#     Edge 40, Type (0, 0), BuildingBlock: ZUJKAS_clean_linker_0, # of connection points: 2
#     Edge 41, Type (0, 0), BuildingBlock: ZUJKAS_clean_linker_0, # of connection points: 2
#     Edge 42, Type (0, 0), BuildingBlock: ZUJKAS_clean_linker_0, # of connection points: 2
#     Edge 43, Type (0, 0), BuildingBlock: ZUJKAS_clean_linker_0, # of connection points: 2
#     Edge 44, Type (0, 0), BuildingBlock: ZUJKAS_clean_linker_0, # of connection points: 2
#     Edge 45, Type (0, 0), BuildingBlock: ZUJKAS_clean_linker_0, # of connection points: 2
#     Edge 46, Type (0, 0), BuildingBlock: ZUJKAS_clean_linker_0, # of connection points: 2
#     Edge 47, Type (0, 0), BuildingBlock: ZUJKAS_clean_linker_0, # of connection points: 2
# Relax obj value: 0.201
# Max RMSD: 0.234
# Mean RMSD: 0.228
data_MOF--net-wfa--node1-MUDLON_clean_sbu_0--edge1-ZUJKAS_clean_linker_0
_symmetry_space_group_name_H-M    P1
_symmetry_Int_Tables_number       1
_symmetry_cell_setting            triclinic
loop_
_symmetry_equiv_pos_as_xyz
'x, y, z'
_cell_length_a     62.842331
_cell_length_b     62.63615
_cell_length_c     32.09255
_cell_angle_alpha  89.845087
_cell_angle_beta   89.316451
_cell_angle_gamma 89.243586
loop_
_atom_site_label
_atom_site_type_symbol
_atom_site_fract_x
_atom_site_fract_y
_atom_site_fract_z
_atom_type_partial_charge
Mg0 Mg 0.65329 0.04631 0.06864 0.0
C1 C 0.66989 0.03151 0.15525 0.0
O2 O 0.64962 0.02926 0.16439 0.0
C3 C 0.61002 0.02912 0.08682 0.0
O4 O 0.6126 0.04204 0.11847 0.0
C5 C 0.6861 0.03251 1.00471 0.0
O6 O 0.68957 0.01862 0.0347 0.0
O7 O 0.6715 0.0466 1.00991 0.0
O8 O 0.67528 0.03745 0.11869 0.0
O9 O 0.63775 0.0769 0.0832 0.0
C10 C 0.63954 0.08535 0.11897 0.0
O11 O 0.65371 0.07745 0.14471 0.0
O12 O 0.62556 0.026 0.06163 0.0
Mg13 Mg 0.48216 0.6771 0.0591 0.0
C14 C 0.43932 0.65923 0.08992 0.0
O15 O 0.4421 0.64521 0.05993 0.0
C16 C 0.48698 0.71016 0.98936 0.0
O17 O 0.50158 0.71709 0.01476 0.0
C18 C 0.48777 0.63269 0.02127 0.0
O19 O 0.47506 0.64156 0.99379 0.0
O20 O 0.49441 0.64411 0.05117 0.0
O21 O 0.45256 0.67421 0.09375 0.0
O22 O 0.4999 0.6968 0.10318 0.0
C23 C 0.49009 0.71381 0.11455 0.0
O24 O 0.47198 0.71864 0.0965 0.0
O25 O 0.47658 0.69358 0.99954 0.0
Mg26 Mg 0.85671 0.49712 0.04587 0.0
C27 C 0.84114 0.50465 0.13282 0.0
O28 O 0.85511 0.48915 0.13834 0.0
C29 C 0.90084 0.51211 0.06978 0.0
O30 O 0.89231 0.51116 0.10728 0.0
C31 C 0.82446 0.514 0.98428 0.0
O32 O 0.81934 0.52606 0.01639 0.0
O33 O 0.83954 0.50039 0.98775 0.0
O34 O 0.839 0.51253 0.09649 0.0
O35 O 0.85856 0.46399 0.06573 0.0
C36 C 0.87638 0.45421 0.06672 0.0
O37 O 0.89305 0.46314 0.04923 0.0
O38 O 0.88929 0.50827 0.03844 0.0
Mg39 Mg 0.0508 0.85801 0.03839 0.0
C40 C 0.10004 0.85077 0.04382 0.0
O41 O 0.11855 0.84539 0.02723 0.0
C42 C 0.03581 0.8462 0.95383 0.0
O43 O 0.04863 0.86204 0.94505 0.0
C44 C 0.05576 0.90473 0.01737 0.0
O45 O 0.07283 0.89666 0.99898 0.0
O46 O 0.04323 0.8922 0.03668 0.0
O47 O 0.08395 0.85238 0.02024 0.0
O48 O 0.04505 0.84358 0.09931 0.0
C49 C 0.05392 0.82559 0.1065 0.0
O50 O 0.06535 0.81649 0.07677 0.0
O51 O 0.03269 0.8412 0.99181 0.0
Mg52 Mg 0.15921 0.97337 0.46304 0.0
C53 C 0.17474 0.98081 0.3748 0.0
O54 O 0.15788 0.96916 0.36825 0.0
C55 C 0.11406 0.99049 0.44758 0.0
O56 O 0.11916 0.98479 0.40936 0.0
C57 C 0.18845 0.98759 0.53218 0.0
O58 O 0.18686 1.00555 0.51115 0.0
O59 O 0.17838 0.97138 0.5195 0.0
O60 O 0.17867 0.98662 0.41195 0.0
O61 O 0.15236 0.94173 0.43981 0.0
C62 C 0.13413 0.93324 0.44263 0.0
O63 O 0.1194 0.94229 0.46626 0.0
O64 O 0.12811 0.98882 0.47577 0.0
Mg65 Mg 0.51326 0.17694 0.4641 0.0
C66 C 0.49227 0.18436 0.3822 0.0
O67 O 0.49571 0.20452 0.39076 0.0
C68 C 0.51511 0.20567 0.53744 0.0
O69 O 0.53501 0.20385 0.52477 0.0
C70 C 0.52309 0.1294 0.45884 0.0
O71 O 0.52194 0.13422 0.41909 0.0
O72 O 0.52196 0.14451 0.48537 0.0
O73 O 0.49207 0.17108 0.41229 0.0
O74 O 0.53672 0.19689 0.43184 0.0
C75 C 0.54567 0.19138 0.39763 0.0
O76 O 0.54497 0.17131 0.38607 0.0
O77 O 0.50094 0.19579 0.51721 0.0
Mg78 Mg 0.35677 0.52429 0.48915 0.0
C79 C 0.34421 0.51369 0.40253 0.0
O80 O 0.35852 0.52847 0.39605 0.0
C81 C 0.40268 0.51073 0.46782 0.0
O82 O 0.39497 0.50952 0.43008 0.0
C83 C 0.32304 0.50977 0.55107 0.0
O84 O 0.317 0.49874 0.51863 0.0
O85 O 0.33912 0.52179 0.54756 0.0
O86 O 0.34076 0.50724 0.43962 0.0
O87 O 0.35583 0.55674 0.46581 0.0
C88 C 0.37236 0.56816 0.4642 0.0
O89 O 0.38956 0.56154 0.4835 0.0
O90 O 0.39018 0.5154 0.49802 0.0
Mg91 Mg 0.99689 0.36264 0.45913 0.0
C92 C 0.95384 0.3547 0.41959 0.0
O93 O 0.95974 0.3346 0.4232 0.0
C94 C 0.01425 0.33626 0.52933 0.0
O95 O 0.03136 0.3383 0.5058 0.0
C96 C 1.00157 0.40618 0.49356 0.0
O97 O 0.98604 0.39834 0.51645 0.0
O98 O 1.01057 0.39417 0.46651 0.0
O99 O 0.96529 0.36907 0.4355 0.0
O100 O 0.01167 0.34361 0.40971 0.0
C101 C 1.00958 0.32343 0.41099 0.0
O102 O 1.00082 0.31479 0.44425 0.0
O103 O 0.99695 0.34511 0.51775 0.0
Mg104 Mg 0.35441 0.97309 0.96017 0.0
C105 C 0.32407 0.96691 0.89056 0.0
O106 O 0.32633 0.94754 0.90582 0.0
C107 C 0.38884 0.99681 1.0046 0.0
O108 O 0.37775 0.99 0.03683 0.0
C109 C 0.31541 0.97291 0.01809 0.0
O110 O 0.30583 0.97474 0.98208 0.0
O111 O 0.33564 0.97121 0.01848 0.0
O112 O 0.33412 0.98205 0.9076 0.0
O113 O 0.37097 0.94385 0.94074 0.0
C114 C 0.38872 0.93858 0.95682 0.0
O115 O 0.39492 0.94856 0.9904 0.0
O116 O 0.38151 0.99402 0.96824 0.0
Mg117 Mg 0.52285 0.35814 0.97381 0.0
C118 C 0.51383 0.32154 0.91812 0.0
O119 O 0.5312 0.31552 0.93751 0.0
C120 C 0.52181 0.40354 1.00531 0.0
O121 O 0.53891 0.39577 0.02339 0.0
C122 C 0.54341 0.32854 0.03862 0.0
O123 O 0.55797 0.32692 1.00903 0.0
O124 O 0.52728 0.34068 0.03276 0.0
O125 O 0.50487 0.33909 0.92895 0.0
O126 O 0.55242 0.36211 0.93937 0.0
C127 C 0.54866 0.36899 0.90284 0.0
O128 O 0.52884 0.37334 0.8929 0.0
O129 O 0.51077 0.39104 0.98318 0.0
Mg130 Mg 0.17191 0.52521 0.99389 0.0
C131 C 0.2082 0.51551 0.93929 0.0
O132 O 0.21524 0.53005 0.96497 0.0
C133 C 0.12922 0.51814 0.03494 0.0
O134 O 0.13961 0.52622 0.06636 0.0
C135 C 0.20113 0.50697 0.05862 0.0
O136 O 0.20203 0.49174 0.03056 0.0
O137 O 0.18932 0.52326 0.05201 0.0
O138 O 0.18951 0.50845 0.94511 0.0
O139 O 0.17092 0.55719 0.96792 0.0
C140 C 0.15407 0.56861 0.9681 0.0
O141 O 0.13764 0.56244 0.99055 0.0
O142 O 0.13913 0.51485 1.00072 0.0
Mg143 Mg 1.00545 0.17437 0.96013 0.0
C144 C 1.00948 0.21068 0.90415 0.0
O145 O 0.99408 0.21599 0.93035 0.0
C146 C 0.01672 0.13177 0.99868 0.0
O147 O 1.00834 0.14156 0.03124 0.0
C148 C 0.99376 0.19619 0.04267 0.0
O149 O 0.97465 0.18936 0.03392 0.0
O150 O 1.00913 0.19194 0.01785 0.0
O151 O 0.01932 0.19304 0.9098 0.0
O152 O 0.97283 0.1724 0.93939 0.0
C153 C 0.96276 0.15495 0.93922 0.0
O154 O 0.97085 0.13832 0.95872 0.0
O155 O 0.01838 0.14196 0.96445 0.0
Mg156 Mg 0.84678 0.03222 0.56574 0.0
C157 C 0.81072 0.02956 0.62434 0.0
O158 O 0.80555 0.04486 0.59812 0.0
C159 C 0.88874 0.0205 0.52345 0.0
O160 O 0.87801 0.02803 0.4916 0.0
C161 C 0.81705 0.04528 0.49508 0.0
O162 O 0.81656 0.06326 0.51609 0.0
O163 O 0.82867 0.02991 0.50805 0.0
O164 O 0.82804 0.0192 0.61777 0.0
O165 O 0.8501 0.06475 0.58733 0.0
C166 C 0.86709 0.07529 0.58269 0.0
O167 O 0.88215 0.06783 0.55778 0.0
O168 O 0.87935 0.01926 0.55879 0.0
Mg169 Mg 0.49997 0.86088 0.56411 0.0
C170 C 0.46923 0.84544 0.63195 0.0
O171 O 0.47121 0.86515 0.64512 0.0
C172 C 0.49025 0.90844 0.5702 0.0
O173 O 0.49168 0.90353 0.60986 0.0
C174 C 0.50107 0.844 0.47741 0.0
O175 O 0.48454 0.85708 0.47772 0.0
O176 O 0.51208 0.84238 0.51042 0.0
O177 O 0.47671 0.84055 0.5961 0.0
O178 O 0.52137 0.86686 0.61557 0.0
C179 C 0.52223 0.85325 0.64502 0.0
O180 O 0.51851 0.83317 0.63618 0.0
O181 O 0.4911 0.8934 0.54351 0.0
Mg182 Mg 0.67255 0.49998 0.55178 0.0
C183 C 0.709 0.5116 0.60236 0.0
O184 O 0.71707 0.49835 0.5745 0.0
C185 C 0.63047 0.50731 0.50948 0.0
O186 O 0.64158 0.49896 0.47848 0.0
C187 C 0.69198 0.51734 0.47209 0.0
O188 O 0.68122 0.53443 0.48399 0.0
O189 O 0.69088 0.50046 0.49406 0.0
O190 O 0.68952 0.51712 0.59942 0.0
O191 O 0.67157 0.46811 0.57801 0.0
C192 C 0.65591 0.45583 0.57289 0.0
O193 O 0.64081 0.46159 0.54707 0.0
O194 O 0.63969 0.51065 0.5439 0.0
Mg195 Mg 0.04035 0.67555 0.55722 0.0
C196 C 0.02682 0.71364 0.60437 0.0
O197 O 0.04252 0.72053 0.58072 0.0
C198 C 0.03484 0.63303 0.51498 0.0
O199 O 0.04781 0.64231 0.48831 0.0
C200 C 0.03028 0.70551 0.48653 0.0
O201 O 0.01242 0.70673 0.50814 0.0
O202 O 0.04511 0.69319 0.49929 0.0
O203 O 0.0208 0.69447 0.60002 0.0
O204 O 0.06943 0.67207 0.59244 0.0
C205 C 0.08089 0.65521 0.59213 0.0
O206 O 0.07661 0.63998 0.56559 0.0
O207 O 0.02817 0.64358 0.54647 0.0
H208 H 0.50282 0.20769 0.31259 0.0
H209 H 0.5218 0.1946 0.25085 0.0
H210 H 0.51604 0.12998 0.29615 0.0
H211 H 0.49578 0.14279 0.35615 0.0
H212 H 0.55842 0.17845 0.25286 0.0
H213 H 0.5101 0.11773 0.17732 0.0
H214 H 0.49884 0.13578 0.21564 0.0
H215 H 0.51186 0.11124 0.2315 0.0
C216 C 0.50478 0.19061 0.30858 0.0
C217 C 0.49808 0.17633 0.3399 0.0
C218 C 0.51583 0.18313 0.27327 0.0
C219 C 0.5205 0.16124 0.26851 0.0
C220 C 0.51236 0.14688 0.29821 0.0
H221 H 0.63718 0.10387 0.19575 0.0
H222 H 0.60782 0.12478 0.22538 0.0
C223 C 0.50093 0.1543 0.33304 0.0
C224 C 0.53646 0.1538 0.23669 0.0
H225 H 0.5488 0.11251 0.17093 0.0
C226 C 0.55607 0.1643 0.23438 0.0
C227 C 0.53349 0.13555 0.2115 0.0
C228 C 0.51231 0.12463 0.20882 0.0
C229 C 0.57312 0.15634 0.2102 0.0
C230 C 0.57082 0.1369 0.18852 0.0
C231 C 0.55079 0.12717 0.18827 0.0
C232 C 0.58934 0.12558 0.16887 0.0
C233 C 0.59353 0.16876 0.20877 0.0
C234 C 0.58875 0.11879 0.12721 0.0
C235 C 0.60555 0.10658 0.11016 0.0
C236 C 0.62321 0.10082 0.13456 0.0
C237 C 0.62396 0.10814 0.17589 0.0
C238 C 0.60718 0.12023 0.19289 0.0
H239 H 0.59033 0.18614 0.21267 0.0
H240 H 0.60382 0.16352 0.23484 0.0
H241 H 0.60235 0.16625 0.17897 0.0
H242 H 0.57511 0.12261 0.10811 0.0
H243 H 0.60436 0.10108 0.07832 0.0
H244 H 0.34162 0.5814 0.4098 0.0
H245 H 0.34709 0.6024 0.34639 0.0
H246 H 0.4118 0.61416 0.38198 0.0
H247 H 0.40662 0.59302 0.44535 0.0
H248 H 0.36434 0.64542 0.32467 0.0
H249 H 0.41413 0.576 0.27384 0.0
H250 H 0.39606 0.57476 0.31788 0.0
H251 H 0.42136 0.58749 0.32286 0.0
C252 C 0.35685 0.58893 0.40481 0.0
C253 C 0.37384 0.58518 0.43226 0.0
C254 C 0.35991 0.60096 0.36854 0.0
C255 C 0.37994 0.60945 0.35931 0.0
C256 C 0.39629 0.60748 0.38849 0.0
H257 H 0.43268 0.6829 0.1604 0.0
H258 H 0.41367 0.67199 0.22331 0.0
C259 C 0.39328 0.59542 0.42471 0.0
C260 C 0.3846 0.61769 0.31704 0.0
H261 H 0.41387 0.6062 0.2297 0.0
C262 C 0.37509 0.63688 0.30372 0.0
C263 C 0.39819 0.60616 0.28954 0.0
C264 C 0.40791 0.58486 0.30145 0.0
C265 C 0.37951 0.64526 0.26389 0.0
C266 C 0.39392 0.63421 0.23715 0.0
C267 C 0.40282 0.61468 0.25017 0.0
C268 C 0.40134 0.64302 0.19669 0.0
C269 C 0.36868 0.66579 0.25079 0.0
C270 C 0.40044 0.63057 0.16042 0.0
C271 C 0.41157 0.63662 0.12441 0.0
C272 C 0.42387 0.6552 0.12416 0.0
C273 C 0.42342 0.66845 0.15953 0.0
C274 C 0.41238 0.66233 0.19554 0.0
H275 H 0.35342 0.66834 0.26801 0.0
H276 H 0.37917 0.67938 0.25792 0.0
H277 H 0.36549 0.66593 0.21683 0.0
H278 H 0.39204 0.61557 0.16068 0.0
H279 H 0.41149 0.62612 0.09766 0.0
H280 H 0.84561 0.43096 0.10692 0.0
H281 H 0.85081 0.40621 0.16524 0.0
H282 H 0.91882 0.41287 0.15239 0.0
H283 H 0.91382 0.43678 0.09332 0.0
H284 H 0.90892 0.37307 0.17437 0.0
H285 H 0.86518 0.4307 0.27682 0.0
H286 H 0.85003 0.41975 0.23512 0.0
H287 H 0.87207 0.4369 0.22354 0.0
C288 C 0.86168 0.42675 0.11595 0.0
C289 C 0.8793 0.43609 0.09588 0.0
C290 C 0.86461 0.41276 0.14953 0.0
C291 C 0.88518 0.40822 0.16402 0.0
C292 C 0.90278 0.41626 0.142 0.0
H293 H 0.9432 0.39492 0.39366 0.0
H294 H 0.92198 0.40465 0.33351 0.0
C295 C 0.89989 0.42997 0.10814 0.0
C296 C 0.8887 0.39666 0.20386 0.0
H297 H 0.88179 0.40157 0.30916 0.0
C298 C 0.90275 0.37906 0.20387 0.0
C299 C 0.8807 0.40465 0.24232 0.0
C300 C 0.8663 0.42413 0.24473 0.0
C301 C 0.91008 0.37004 0.24123 0.0
C302 C 0.90253 0.37841 0.27971 0.0
C303 C 0.88744 0.39514 0.27964 0.0
C304 C 0.91243 0.37234 0.3199 0.0
C305 C 0.92698 0.3527 0.23898 0.0
C306 C 0.91333 0.35104 0.3336 0.0
C307 C 0.92578 0.34534 0.36788 0.0
C308 C 0.93724 0.36093 0.38935 0.0
C309 C 0.93475 0.38246 0.37771 0.0
C310 C 0.92256 0.38807 0.34325 0.0
H311 H 0.93401 0.35111 0.20719 0.0
H312 H 0.94001 0.35593 0.26107 0.0
H313 H 0.91982 0.33717 0.24753 0.0
H314 H 0.90511 0.33871 0.31684 0.0
H315 H 0.92717 0.32863 0.37636 0.0
H316 H 0.12181 0.83037 0.1051 0.0
H317 H 0.122 0.83913 0.17941 0.0
H318 H 0.07511 0.88882 0.15872 0.0
H319 H 0.07527 0.88037 0.08436 0.0
H320 H 0.11079 0.90295 0.19687 0.0
H321 H 0.08068 0.8312 0.27814 0.0
H322 H 0.10193 0.82506 0.24202 0.0
H323 H 0.07718 0.83571 0.22303 0.0
C324 C 0.11131 0.84294 0.1166 0.0
C325 C 0.09836 0.8546 0.08908 0.0
C326 C 0.11124 0.84775 0.15909 0.0
C327 C 0.09832 0.8644 0.17471 0.0
C328 C 0.085 0.87572 0.14739 0.0
H329 H 0.0943 0.91876 0.4247 0.0
H330 H 0.08418 0.89899 0.3624 0.0
C331 C 0.08503 0.87086 0.10493 0.0
C332 C 0.10095 0.87191 0.21805 0.0
H333 H 0.10027 0.85601 0.32007 0.0
C334 C 0.10822 0.89276 0.2238 0.0
C335 C 0.09752 0.85861 0.25316 0.0
C336 C 0.0887 0.83646 0.24889 0.0
C337 C 0.11284 0.90045 0.26353 0.0
C338 C 0.11039 0.88685 0.29841 0.0
C339 C 0.10241 0.86624 0.29307 0.0
C340 C 0.1165 0.89411 0.3403 0.0
C341 C 0.12061 0.92304 0.26794 0.0
C342 C 0.13805 0.89698 0.34924 0.0
C343 C 0.1439 0.90829 0.38462 0.0
C344 C 0.12826 0.91693 0.41165 0.0
C345 C 0.10674 0.91237 0.40448 0.0
C346 C 0.1009 0.90106 0.36893 0.0
H347 H 0.11782 0.93267 0.23934 0.0
H348 H 0.11256 0.93111 0.29469 0.0
H349 H 0.13796 0.9227 0.27398 0.0
H350 H 0.15028 0.89164 0.32745 0.0
H351 H 0.16062 0.91137 0.38936 0.0
H352 H 0.38491 0.92283 0.87781 0.0
H353 H 0.41241 0.90519 0.83561 0.0
H354 H 0.45505 0.90565 0.93992 0.0
H355 H 0.42776 0.92395 0.9821 0.0
H356 H 0.47491 0.91948 0.8721 0.0
H357 H 0.43405 0.84505 0.83215 0.0
H358 H 0.41805 0.86774 0.81795 0.0
H359 H 0.42398 0.86287 0.87203 0.0
C360 C 0.39997 0.9188 0.89213 0.0
C361 C 0.40406 0.92476 0.93345 0.0
C362 C 0.41571 0.90862 0.86793 0.0
C363 C 0.43578 0.90378 0.88466 0.0
C364 C 0.4397 0.90914 0.9263 0.0
H365 H 0.51674 0.8291 0.71537 0.0
H366 H 0.50028 0.84068 0.78095 0.0
C367 C 0.42401 0.91951 0.95046 0.0
C368 C 0.45297 0.89443 0.85776 0.0
H369 H 0.4627 0.85548 0.78609 0.0
C370 C 0.47238 0.90524 0.85376 0.0
C371 C 0.45001 0.87559 0.83449 0.0
C372 C 0.43048 0.86203 0.83975 0.0
C373 C 0.48834 0.89837 0.8255 0.0
C374 C 0.48456 0.88057 0.79962 0.0
C375 C 0.46563 0.86919 0.80538 0.0
C376 C 0.49898 0.87421 0.76432 0.0
C377 C 0.50902 0.9103 0.82387 0.0
C378 C 0.50475 0.8892 0.73367 0.0
C379 C 0.51461 0.88261 0.69647 0.0
C380 C 0.51827 0.86078 0.68841 0.0
C381 C 0.514 0.84599 0.72038 0.0
C382 C 0.50447 0.85262 0.75789 0.0
H383 H 0.51278 0.91707 0.85486 0.0
H384 H 0.52249 0.89987 0.81361 0.0
H385 H 0.50751 0.92386 0.80172 0.0
H386 H 0.50037 0.90588 0.73713 0.0
H387 H 0.51786 0.89452 0.67282 0.0
H388 H 0.68287 0.44109 0.63327 0.0
H389 H 0.67414 0.4167 0.69035 0.0
H390 H 0.61247 0.4063 0.63697 0.0
H391 H 0.62118 0.43024 0.57957 0.0
H392 H 0.64291 0.42608 0.74412 0.0
H393 H 0.62666 0.34714 0.67729 0.0
H394 H 0.64127 0.36726 0.6489 0.0
H395 H 0.61257 0.3675 0.64912 0.0
C396 C 0.66768 0.43311 0.633 0.0
C397 C 0.65261 0.43779 0.60208 0.0
C398 C 0.66274 0.41915 0.66567 0.0
C399 C 0.64272 0.40953 0.66785 0.0
C400 C 0.62821 0.41311 0.63554 0.0
H401 H 0.54373 0.37812 0.82091 0.0
H402 H 0.57119 0.38408 0.76838 0.0
C403 C 0.63315 0.42699 0.60281 0.0
C404 C 0.63553 0.39873 0.70662 0.0
H405 H 0.6065 0.35637 0.74082 0.0
C406 C 0.63554 0.41052 0.74381 0.0
C407 C 0.62604 0.37839 0.70627 0.0
C408 C 0.62685 0.36428 0.66827 0.0
C409 C 0.62457 0.40343 0.77946 0.0
C410 C 0.6135 0.38398 0.77786 0.0
C411 C 0.61493 0.37136 0.74183 0.0
C412 C 0.59747 0.37845 0.81008 0.0
C413 C 0.62342 0.4176 0.8174 0.0
C414 C 0.60318 0.37309 0.85101 0.0
C415 C 0.58739 0.36968 0.88146 0.0
C416 C 0.56574 0.37171 0.87127 0.0
C417 C 0.56023 0.37661 0.82998 0.0
C418 C 0.57591 0.37988 0.79976 0.0
H419 H 0.63157 0.43304 0.81231 0.0
H420 H 0.60655 0.42094 0.82615 0.0
H421 H 0.63102 0.40931 0.84406 0.0
H422 H 0.61979 0.3718 0.85944 0.0
H423 H 0.5921 0.36581 0.91297 0.0
H424 H 0.08864 0.68075 0.6592 0.0
H425 H 0.10697 0.67059 0.72296 0.0
H426 H 0.12489 0.61011 0.66809 0.0
H427 H 0.10621 0.61995 0.60438 0.0
H428 H 0.10284 0.60579 0.74061 0.0
H429 H 0.16797 0.66338 0.76232 0.0
H430 H 0.14266 0.67589 0.75235 0.0
H431 H 0.15519 0.6596 0.7128 0.0
C432 C 0.09694 0.6655 0.66021 0.0
C433 C 0.09574 0.65104 0.62682 0.0
C434 C 0.10756 0.65978 0.69668 0.0
C435 C 0.11739 0.63964 0.70025 0.0
C436 C 0.11742 0.62576 0.66595 0.0
H437 H 0.18238 0.58015 0.90679 0.0
H438 H 0.17432 0.60043 0.84367 0.0
C439 C 0.10674 0.63141 0.62953 0.0
C440 C 0.12484 0.63185 0.74131 0.0
H441 H 0.15807 0.6425 0.822 0.0
C442 C 0.11503 0.61375 0.75823 0.0
C443 C 0.14074 0.64225 0.76426 0.0
C444 C 0.15241 0.66124 0.74688 0.0
C445 C 0.12048 0.60586 0.79758 0.0
C446 C 0.13586 0.61663 0.82118 0.0
C447 C 0.14601 0.63453 0.8041 0.0
C448 C 0.14214 0.60865 0.86277 0.0
C449 C 0.10992 0.58581 0.8133 0.0
C450 C 0.12709 0.60759 0.89535 0.0
C451 C 0.13157 0.5959 0.93141 0.0
C452 C 0.15124 0.58518 0.93552 0.0
C453 C 0.167 0.58805 0.90451 0.0
C454 C 0.16245 0.59966 0.86838 0.0
H455 H 0.10222 0.5769 0.78778 0.0
H456 H 0.12163 0.57504 0.82864 0.0
H457 H 0.09743 0.59018 0.83661 0.0
H458 H 0.11143 0.61476 0.89182 0.0
H459 H 0.11917 0.59422 0.95487 0.0
H460 H 0.93863 0.11949 0.92735 0.0
H461 H 0.91697 0.11176 0.86657 0.0
H462 H 0.92707 0.17547 0.81992 0.0
H463 H 0.94838 0.18355 0.88092 0.0
H464 H 0.88594 0.1591 0.80187 0.0
H465 H 0.95183 0.10336 0.75794 0.0
H466 H 0.94003 0.09792 0.80801 0.0
H467 H 0.95403 0.12245 0.79959 0.0
C468 C 0.93579 0.13206 0.90476 0.0
C469 C 0.9456 0.15199 0.9086 0.0
C470 C 0.92348 0.12758 0.86996 0.0
C471 C 0.92093 0.14287 0.83829 0.0
C472 C 0.92901 0.1634 0.84387 0.0
H473 H 0.90226 0.10056 0.58479 0.0
H474 H 0.91401 0.12188 0.64366 0.0
C475 C 0.94121 0.16796 0.87881 0.0
C476 C 0.91215 0.1367 0.79749 0.0
H477 H 0.92128 0.103 0.7158 0.0
C478 C 0.89365 0.14689 0.78289 0.0
C479 C 0.9226 0.1212 0.77231 0.0
C480 C 0.94334 0.11073 0.78496 0.0
C481 C 0.8849 0.14141 0.74425 0.0
C482 C 0.89482 0.12516 0.72004 0.0
C483 C 0.91365 0.11546 0.73429 0.0
C484 C 0.8856 0.11684 0.68103 0.0
C485 C 0.86528 0.15321 0.72962 0.0
C486 C 0.86533 0.10769 0.68167 0.0
C487 C 0.85848 0.09569 0.64785 0.0
C488 C 0.87194 0.09227 0.61306 0.0
C489 C 0.89156 0.10276 0.61118 0.0
C490 C 0.89831 0.11494 0.64487 0.0
H491 H 0.86405 0.16938 0.74367 0.0
H492 H 0.86522 0.15483 0.69516 0.0
H493 H 0.85096 0.14422 0.73943 0.0
H494 H 0.85539 0.10853 0.70942 0.0
H495 H 0.84326 0.08784 0.65039 0.0
H496 H 0.7197 1.00574 0.98708 0.0
H497 H 0.74134 1.00402 0.92342 0.0
H498 H 0.70346 0.05471 0.86968 0.0
H499 H 0.68194 0.05685 0.93373 0.0
H500 H 0.73059 0.99511 0.84341 0.0
H501 H 0.76318 0.07675 0.85194 0.0
H502 H 0.74938 0.06446 0.89521 0.0
H503 H 0.73463 0.0764 0.85324 0.0
C504 C 0.71598 0.01663 0.96184 0.0
C505 C 0.69912 0.03155 0.96571 0.0
C506 C 0.72839 0.01557 0.92537 0.0
C507 C 0.7243 0.02944 0.89192 0.0
C508 C 0.70727 0.04416 0.8954 0.0
H509 H 0.77299 0.0491 0.64368 0.0
H510 H 0.7527 0.04732 0.70869 0.0
C511 C 0.69489 0.04529 0.93198 0.0
C512 C 0.73766 0.02826 0.85328 0.0
H513 H 0.76909 0.05798 0.78838 0.0
C514 C 0.73914 1.00882 0.83153 0.0
C515 C 0.74898 0.04608 0.8379 0.0
C516 C 0.74918 0.06704 0.86098 0.0
C517 C 0.75102 1.00693 0.79422 0.0
C518 C 0.76188 0.02491 0.7784 0.0
C519 C 0.76069 0.04423 0.80046 0.0
C520 C 0.77378 0.02443 0.73805 0.0
C521 C 0.75137 0.98594 0.77129 0.0
C522 C 0.79236 1.01192 0.73263 0.0
C523 C 0.80414 1.0129 0.69519 0.0
C524 C 0.79754 0.02646 0.66263 0.0
C525 C 0.77863 0.0385 0.66799 0.0
C526 C 0.76697 0.03755 0.70525 0.0
H527 H 0.7391 0.97486 0.78344 0.0
H528 H 0.74876 0.98854 0.73748 0.0
H529 H 0.76721 0.97817 0.77491 0.0
H530 H 0.79807 1.00187 0.75774 0.0
H531 H 0.81867 1.00352 0.69221 0.0
H532 H 0.45183 0.84985 0.71009 0.0
H533 H 0.45056 0.8228 0.76531 0.0
H534 H 0.47454 0.77533 0.67945 0.0
H535 H 0.47577 0.80215 0.62393 0.0
H536 H 0.43305 0.78516 0.78169 0.0
H537 H 0.5206 0.7742 0.76542 0.0
H538 H 0.50617 0.79467 0.73769 0.0
H539 H 0.50609 0.76755 0.71951 0.0
C540 C 0.4565 0.83358 0.7027 0.0
C541 C 0.4642 0.8283 0.66264 0.0
C542 C 0.45589 0.81817 0.73441 0.0
C543 C 0.46331 0.79727 0.7271 0.0
C544 C 0.4694 0.79152 0.68632 0.0
H545 H 0.45898 0.69982 0.92737 0.0
H546 H 0.45219 0.71941 0.86247 0.0
C547 C 0.46987 0.80687 0.65442 0.0
C548 C 0.46594 0.78217 0.76284 0.0
H549 H 0.50343 0.75375 0.81695 0.0
C550 C 0.44841 0.77815 0.78922 0.0
C551 C 0.48606 0.77323 0.77316 0.0
C552 C 0.50587 0.77774 0.74774 0.0
C553 C 0.45048 0.76575 0.82568 0.0
C554 C 0.47058 0.75678 0.83579 0.0
C555 C 0.48801 0.7605 0.8091 0.0
C556 C 0.47433 0.74469 0.8752 0.0
C557 C 0.43133 0.76309 0.85392 0.0
C558 C 0.48938 0.75204 0.90361 0.0
C559 C 0.49343 0.7408 0.94046 0.0
C560 C 0.48257 0.72185 0.94985 0.0
C561 C 0.46756 0.7144 0.92127 0.0
C562 C 0.46354 0.72567 0.88424 0.0
H563 H 0.41853 0.77491 0.84684 0.0
H564 H 0.42481 0.74688 0.84965 0.0
H565 H 0.43578 0.7648 0.88712 0.0
H566 H 0.49796 0.76661 0.89737 0.0
H567 H 0.50509 0.74705 0.96164 0.0
H568 H 0.83227 0.49312 0.91077 0.0
H569 H 0.81251 0.49637 0.84586 0.0
H570 H 0.76996 0.54243 0.90345 0.0
H571 H 0.78985 0.53959 0.96829 0.0
H572 H 0.77047 0.4875 0.83332 0.0
H573 H 0.78618 0.57244 0.79522 0.0
H574 H 0.80117 0.55779 0.83377 0.0
H575 H 0.77506 0.56814 0.84631 0.0
C576 C 0.8188 0.50406 0.90959 0.0
C577 C 0.81268 0.51614 0.94471 0.0
C578 C 0.80752 0.5059 0.87245 0.0
C579 C 0.78995 0.51988 0.8696 0.0
C580 C 0.78375 0.53192 0.90461 0.0
H581 H 0.69585 0.53384 0.67205 0.0
H582 H 0.71533 0.53766 0.73745 0.0
C583 C 0.79507 0.53015 0.94176 0.0
C584 C 0.77758 0.52102 0.83054 0.0
H585 H 0.76135 0.55466 0.75268 0.0
C586 C 0.76852 0.50219 0.8157 0.0
C587 C 0.77496 0.54023 0.80767 0.0
C588 C 0.785 0.56078 0.82126 0.0
C589 C 0.75695 0.50202 0.77862 0.0
C590 C 0.75452 0.52114 0.7556 0.0
C591 C 0.76325 0.54007 0.77059 0.0
C592 C 0.7437 0.52131 0.71494 0.0
C593 C 0.74738 0.48138 0.76418 0.0
C594 C 0.75353 0.51148 0.68046 0.0
C595 C 0.74255 0.50934 0.6432 0.0
C596 C 0.72148 0.51694 0.63972 0.0
C597 C 0.71204 0.52778 0.67372 0.0
C598 C 0.72311 0.52997 0.71108 0.0
H599 H 0.74727 0.46906 0.78914 0.0
H600 H 0.73081 0.48413 0.75352 0.0
H601 H 0.75683 0.47507 0.73739 0.0
H602 H 0.76948 0.50485 0.68285 0.0
H603 H 0.75037 0.50102 0.6176 0.0
H604 H 0.01132 0.8103 0.96046 0.0
H605 H 1.00054 0.78665 0.90396 0.0
H606 H 0.03048 0.82826 0.81418 0.0
H607 H 0.04097 0.85209 0.87008 0.0
H608 H 0.99101 0.81281 0.78803 0.0
H609 H 0.04403 0.74736 0.84535 0.0
H610 H 0.02432 0.75732 0.88164 0.0
H611 H 0.04557 0.7743 0.8647 0.0
C612 C 0.01539 0.81454 0.92863 0.0
C613 C 0.02721 0.83298 0.91983 0.0
C614 C 1.00931 0.80095 0.89643 0.0
C615 C 0.01504 0.80551 0.85496 0.0
C616 C 0.02595 0.82439 0.84598 0.0
H617 H 0.0325 0.75625 0.61447 0.0
H618 H 0.02439 0.7776 0.67612 0.0
C619 C 0.03199 0.83798 0.87804 0.0
C620 C 1.01085 0.79024 0.82084 0.0
H621 H 0.02663 0.74171 0.78231 0.0
C622 C 0.99855 0.79714 0.787 0.0
C623 C 0.02062 0.76975 0.81964 0.0
C624 C 0.03451 0.7617 0.85455 0.0
C625 C 0.9964 0.78441 0.75137 0.0
C626 C 1.00707 0.76442 0.74931 0.0
C627 C 0.01842 0.75704 0.78401 0.0
C628 C 1.00894 0.75209 0.70999 0.0
C629 C 0.98306 0.79268 0.7159 0.0
C630 C 1.00289 0.7306 0.70836 0.0
C631 C 1.00755 0.71827 0.67296 0.0
C632 C 0.01866 0.72717 0.63894 0.0
C633 C 0.02394 0.7489 0.64013 0.0
C634 C 0.01916 0.7612 0.67528 0.0
H635 H 0.97057 0.80405 0.72716 0.0
H636 H 0.99342 0.80132 0.69345 0.0
H637 H 0.97533 0.77943 0.69915 0.0
H638 H 0.99515 0.72322 0.73497 0.0
H639 H 1.00338 0.70155 0.67309 0.0
H640 H 0.21148 0.01948 0.56749 0.0
H641 H 0.23481 0.01713 0.62785 0.0
H642 H 0.21982 0.95054 0.64232 0.0
H643 H 0.19659 0.95266 0.5817 0.0
H644 H 0.22554 1.00547 0.71057 0.0
H645 H 0.28508 0.95007 0.63921 0.0
H646 H 0.26546 0.96432 0.60888 0.0
H647 H 0.25821 0.94073 0.63747 0.0
C648 C 0.21314 1.0043 0.58342 0.0
C649 C 0.20222 0.98622 0.56951 0.0
C650 C 0.22648 1.00301 0.618 0.0
C651 C 0.22934 0.98359 0.63926 0.0
C652 C 0.2182 0.96559 0.62592 0.0
H653 H 0.29983 0.93773 0.85071 0.0
H654 H 0.27706 0.94319 0.79054 0.0
C655 C 0.20482 0.96687 0.59136 0.0
C656 C 0.24381 0.98222 0.67559 0.0
H657 H 0.28824 0.95655 0.71171 0.0
C658 C 0.23934 0.99488 0.71077 0.0
C659 C 0.26186 0.96847 0.67574 0.0
C660 C 0.26811 0.95526 0.63819 0.0
C661 C 0.25201 0.99364 0.74659 0.0
C662 C 0.26989 0.97964 0.74696 0.0
C663 C 0.27453 0.96724 0.7115 0.0
C664 C 0.28352 0.97688 0.7843 0.0
C665 C 0.24575 1.0068 0.7842 0.0
C666 C 0.2949 0.99401 0.80089 0.0
C667 C 0.30798 0.99095 0.83563 0.0
C668 C 0.31004 0.97066 0.8542 0.0
C669 C 0.29866 0.95358 0.83732 0.0
C670 C 0.28561 0.95666 0.8028 0.0
H671 H 0.22903 1.01269 0.78248 0.0
H672 H 0.24763 0.99739 0.81333 0.0
H673 H 0.25624 0.02087 0.78596 0.0
H674 H 0.29389 1.00968 0.78667 0.0
H675 H 0.3166 1.00441 0.84766 0.0
H676 H 0.47635 0.21107 0.57817 0.0
H677 H 0.46891 0.23227 0.64128 0.0
H678 H 0.53473 0.2506 0.64491 0.0
H679 H 0.54221 0.22987 0.58234 0.0
H680 H 0.4863 0.22815 0.72033 0.0
H681 H 0.50416 0.30794 0.65612 0.0
H682 H 0.49989 0.28505 0.62331 0.0
H683 H 0.52549 0.28924 0.64635 0.0
C684 C 0.48918 0.21978 0.59225 0.0
C685 C 0.50987 0.21879 0.57496 0.0
C686 C 0.48491 0.23187 0.62835 0.0
C687 C 0.50118 0.24339 0.6475 0.0
C688 C 0.52178 0.24233 0.63026 0.0
H689 H 0.52765 0.28211 0.8937 0.0
H690 H 0.52034 0.26358 0.82898 0.0
C691 C 0.52606 0.23028 0.59449 0.0
C692 C 0.49719 0.25576 0.68658 0.0
H693 H 0.5057 0.30445 0.73089 0.0
C694 C 0.49019 0.24493 0.72248 0.0
C695 C 0.50186 0.27777 0.68945 0.0
C696 C 0.50805 0.29074 0.65163 0.0
C697 C 0.48904 0.25514 0.7615 0.0
C698 C 0.49539 0.2767 0.76494 0.0
C699 C 0.50108 0.28788 0.72856 0.0
C700 C 0.49804 0.28735 0.8061 0.0
C701 C 0.4813 0.24262 0.79878 0.0
C702 C 0.48813 0.30713 0.81502 0.0
C703 C 0.49239 0.31793 0.8523 0.0
C704 C 0.50686 0.30926 0.88113 0.0
C705 C 0.51635 0.28926 0.87241 0.0
C706 C 0.51206 0.27851 0.83539 0.0
H707 H 0.47033 0.22978 0.78933 0.0
H708 H 0.49513 0.23491 0.81421 0.0
H709 H 0.47297 0.25309 0.82176 0.0
H710 H 0.47739 0.31439 0.79279 0.0
H711 H 0.48495 0.33337 0.85781 0.0
H712 H 0.28691 0.4872 0.56801 0.0
H713 H 0.26684 0.48572 0.63379 0.0
H714 H 0.31232 0.52722 0.69059 0.0
H715 H 0.33229 0.52908 0.62493 0.0
H716 H 0.27915 0.47214 0.71311 0.0
H717 H 0.25567 0.55778 0.71372 0.0
H718 H 0.26652 0.54465 0.66805 0.0
H719 H 0.28387 0.55347 0.70855 0.0
C720 C 0.29264 0.49605 0.59447 0.0
C721 C 0.31112 0.50841 0.5911 0.0
C722 C 0.28116 0.49514 0.63205 0.0
C723 C 0.2879 0.50663 0.66684 0.0
C724 C 0.30659 0.51859 0.66384 0.0
H725 H 0.24848 0.52789 0.91986 0.0
H726 H 0.26751 0.52339 0.85374 0.0
C727 C 0.31804 0.51956 0.62631 0.0
C728 C 0.27541 0.5062 0.70633 0.0
H729 H 0.24969 0.53849 0.77666 0.0
C730 C 0.27254 0.4866 0.7269 0.0
C731 C 0.26668 0.52507 0.72404 0.0
C732 C 0.26813 0.54641 0.70228 0.0
C733 C 0.26182 0.48551 0.76554 0.0
C734 C 0.25365 0.50448 0.78372 0.0
C735 C 0.25613 0.52398 0.76272 0.0
C736 C 0.24295 0.50476 0.82509 0.0
C737 C 0.25982 0.46425 0.78728 0.0
C738 C 0.22296 0.49542 0.83112 0.0
C739 C 0.21196 0.49798 0.86905 0.0
C740 C 0.22077 0.51002 0.90137 0.0
C741 C 0.24117 0.51859 0.89563 0.0
C742 C 0.2521 0.51605 0.85784 0.0
H743 H 0.2702 0.45178 0.77274 0.0
H744 H 0.26396 0.4657 0.82069 0.0
H745 H 0.24308 0.45891 0.78567 0.0
H746 H 0.21552 0.48687 0.806 0.0
H747 H 0.19624 0.49126 0.87242 0.0
H748 H 0.04699 0.31083 0.55626 0.0
H749 H 0.048 0.28844 0.61874 0.0
H750 H 0.98469 0.31006 0.65261 0.0
H751 H 0.98333 0.33207 0.58961 0.0
H752 H 0.04522 0.29864 0.70037 0.0
H753 H 0.97836 0.24617 0.65958 0.0
H754 H 0.99042 0.2641 0.62236 0.0
H755 H 0.9709 0.2739 0.65938 0.0
C756 C 0.03324 0.31079 0.57693 0.0
C757 C 0.01501 0.32313 0.56779 0.0
C758 C 0.03386 0.29798 0.61265 0.0
C759 C 0.01628 0.29724 0.63998 0.0
C760 C 0.99823 0.30991 0.63142 0.0
H761 H 0.98862 0.2473 0.8822 0.0
H762 H 0.99229 0.26767 0.81769 0.0
C763 C 0.99753 0.32261 0.59551 0.0
C764 C 0.01699 0.28354 0.67781 0.0
H765 H 0.99032 0.24428 0.72996 0.0
C766 C 0.03335 0.2866 0.70661 0.0
C767 C 1.0016 0.26767 0.68578 0.0
C768 C 0.98446 0.26258 0.65494 0.0
C769 C 0.03426 0.27474 0.7438 0.0
C770 C 0.01845 0.25951 0.75231 0.0
C771 C 1.00237 0.25609 0.72325 0.0
C772 C 0.01757 0.24775 0.79228 0.0
C773 C 0.05172 0.27889 0.77444 0.0
C774 C 0.03077 0.2299 0.79938 0.0
C775 C 0.02867 0.21806 0.83632 0.0
C776 C 0.01335 0.22399 0.86662 0.0
C777 C 1.00059 0.24225 0.85962 0.0
C778 C 1.00262 0.25393 0.82274 0.0
H779 H 0.06229 0.29201 0.7641 0.0
H780 H 0.04467 0.28306 0.80531 0.0
H781 H 0.06149 0.26416 0.77854 0.0
H782 H 0.04235 0.22487 0.776 0.0
H783 H 0.03871 0.20407 0.84072 0.0
H784 H 0.21655 0.99321 0.37894 0.0
H785 H 0.24261 0.99484 0.32131 0.0
H786 H 0.19387 0.97773 0.23464 0.0
H787 H 0.16789 0.97596 0.29168 0.0
H788 H 0.25281 0.95903 0.26512 0.0
H789 H 0.22308 0.03061 0.18065 0.0
H790 H 0.21665 0.0255 0.23477 0.0
H791 H 0.20297 1.01161 0.19439 0.0
C792 C 0.21131 0.99017 0.34751 0.0
C793 C 0.1901 0.98451 0.33996 0.0
C794 C 0.22625 0.991 0.31465 0.0
C795 C 0.22016 0.98656 0.27361 0.0
C796 C 0.19889 0.98149 0.26592 0.0
H797 H 0.27218 0.97179 0.02682 0.0
H798 H 0.25085 0.97523 0.09053 0.0
C799 C 0.18405 0.98044 0.29867 0.0
C800 C 0.2361 0.98597 0.23889 0.0
H801 H 0.24765 1.0081 0.14402 0.0
C802 C 0.25191 0.96991 0.23884 0.0
C803 C 0.23481 1.00011 0.20458 0.0
C804 C 0.21859 0.01806 0.20355 0.0
C805 C 0.26587 0.96704 0.20458 0.0
C806 C 0.26432 0.98093 0.16978 0.0
C807 C 0.24886 0.99738 0.17051 0.0
C808 C 0.27777 0.97817 0.13144 0.0
C809 C 0.28148 0.94853 0.20523 0.0
C810 C 0.30013 0.97862 0.13294 0.0
C811 C 0.31246 0.97643 0.09637 0.0
C812 C 0.30266 0.97403 0.05747 0.0
C813 C 0.2803 0.9736 0.05615 0.0
C814 C 0.26804 0.97562 0.09264 0.0
H815 H 0.27695 0.93633 0.2288 0.0
H816 H 0.28264 0.94072 0.17424 0.0
H817 H 0.29746 0.95447 0.2133 0.0
H818 H 0.30807 0.98105 0.16227 0.0
H819 H 0.32962 0.97706 0.0985 0.0
H820 H 0.57096 0.18702 0.32806 0.0
H821 H 0.5747 0.21244 0.27028 0.0
H822 H 0.53454 0.25763 0.33628 0.0
H823 H 0.53189 0.23297 0.39495 0.0
H824 H 0.54354 0.22538 0.22219 0.0
H825 H 0.57852 0.29716 0.29238 0.0
H826 H 0.57816 0.27174 0.31893 0.0
H827 H 0.55504 0.28906 0.32007 0.0
C828 C 0.56348 0.20264 0.33076 0.0
C829 C 0.55121 0.20796 0.36624 0.0
C830 C 0.56547 0.2171 0.29756 0.0
C831 C 0.55494 0.23703 0.29871 0.0
C832 C 0.54328 0.24263 0.33477 0.0
H833 H 0.51873 0.33058 0.10995 0.0
H834 H 0.52205 0.3086 0.17307 0.0
C835 C 0.5417 0.22841 0.36838 0.0
C836 C 0.55447 0.25098 0.26087 0.0
H837 H 0.56166 0.30217 0.22625 0.0
C838 C 0.54771 0.24211 0.22312 0.0
C839 C 0.55988 0.27288 0.26179 0.0
C840 C 0.56851 0.28321 0.30038 0.0
C841 C 0.54576 0.25455 0.1868 0.0
C842 C 0.55076 0.27648 0.188 0.0
C843 C 0.55766 0.28539 0.2255 0.0
C844 C 0.54916 0.29028 0.15032 0.0
C845 C 0.53795 0.24427 0.14747 0.0
C846 C 0.56347 0.28746 0.11684 0.0
C847 C 0.56171 0.30006 0.0809 0.0
C848 C 0.54552 0.31571 0.07753 0.0
C849 C 0.53133 0.31865 0.11139 0.0
C850 C 0.53323 0.30613 0.14752 0.0
H851 H 0.53121 0.22822 0.15347 0.0
H852 H 0.52562 0.25449 0.13258 0.0
H853 H 0.55143 0.24246 0.12506 0.0
H854 H 0.57599 0.27544 0.11847 0.0
H855 H 0.57294 0.29733 0.05555 0.0
H856 H 0.30426 0.49671 0.40732 0.0
H857 H 0.27928 0.49251 0.35003 0.0
H858 H 0.32774 0.51243 0.26239 0.0
H859 H 0.35246 0.51735 0.31953 0.0
H860 H 0.29234 0.53479 0.25208 0.0
H861 H 0.27201 0.44905 0.25966 0.0
H862 H 0.26755 0.46268 0.30814 0.0
H863 H 0.29418 0.45994 0.28741 0.0
C864 C 0.30972 0.49971 0.37572 0.0
C865 C 0.33031 0.50741 0.36791 0.0
C866 C 0.29544 0.49724 0.34295 0.0
C867 C 0.30165 0.502 0.30178 0.0
C868 C 0.32255 0.50869 0.29386 0.0
H869 H 0.23338 0.47854 0.07402 0.0
H870 H 0.2569 0.47739 0.13405 0.0
C871 C 0.33669 0.51144 0.32656 0.0
C872 C 0.28601 0.50195 0.26737 0.0
H873 H 0.25037 0.47108 0.21622 0.0
C874 C 0.28324 0.52081 0.24416 0.0
C875 C 0.27422 0.48369 0.25682 0.0
C876 C 0.27726 0.46263 0.27903 0.0
C877 C 0.2691 0.52194 0.21071 0.0
C878 C 0.25681 0.5039 0.20094 0.0
C879 C 0.25959 0.48499 0.22406 0.0
C880 C 0.24169 0.50408 0.16569 0.0
C881 C 0.26797 0.5423 0.18547 0.0
C882 C 0.22501 0.5192 0.16383 0.0
C883 C 0.21168 0.52008 0.12922 0.0
C884 C 0.21455 0.50559 0.09618 0.0
C885 C 0.23076 0.48997 0.09888 0.0
C886 C 0.24421 0.48925 0.13324 0.0
H887 H 0.2824 0.55212 0.1895 0.0
H888 H 0.26619 0.53886 0.15178 0.0
H889 H 0.25402 0.55196 0.19604 0.0
H890 H 0.2224 0.53045 0.18899 0.0
H891 H 0.19919 0.53215 0.12832 0.0
H892 H 0.96477 0.2076 0.1033 0.0
H893 H 0.97066 0.22974 0.16464 0.0
H894 H 0.03652 0.23675 0.12857 0.0
H895 H 0.03089 0.21435 0.06752 0.0
H896 H 0.03153 0.2278 0.21206 0.0
H897 H 0.97774 0.29432 0.16551 0.0
H898 H 0.96499 0.26884 0.16642 0.0
H899 H 0.98628 0.27364 0.12974 0.0
C900 C 0.98051 0.21385 0.10836 0.0
C901 C 0.99732 0.20927 0.08034 0.0
C902 C 0.98381 0.22663 0.14332 0.0
C903 C 1.00394 0.23523 0.15077 0.0
C904 C 0.02083 0.23039 0.12328 0.0
H905 H 0.0221 0.33673 0.333 0.0
H906 H 0.02366 0.31542 0.26913 0.0
C907 C 0.01756 0.21758 0.08837 0.0
C908 C 1.00745 0.24899 0.18758 0.0
H909 H 0.99001 0.29469 0.23548 0.0
C910 C 0.02257 0.24251 0.21706 0.0
C911 C 0.99602 0.26837 0.19371 0.0
C912 C 0.9805 0.27685 0.16198 0.0
C913 C 0.02607 0.25453 0.25318 0.0
C914 C 0.01388 0.27336 0.26029 0.0
C915 C 0.99925 0.28018 0.23016 0.0
C916 C 0.0153 0.28575 0.29951 0.0
C917 C 0.04286 0.24701 0.28325 0.0
C918 C 1.01035 0.27611 0.33787 0.0
C919 C 1.00954 0.2882 0.37439 0.0
C920 C 0.01347 0.31026 0.37328 0.0
C921 C 0.01908 0.31977 0.335 0.0
C922 C 0.01989 0.30763 0.29844 0.0
H923 H 0.055 0.23665 0.26759 0.0
H924 H 0.05101 0.26069 0.29777 0.0
H925 H 0.03523 0.23749 0.30837 0.0
H926 H 1.0063 0.25937 0.33939 0.0
H927 H 1.00507 0.28036 0.40325 0.0
H928 H 0.66322 0.02713 0.23927 0.0
H929 H 0.68973 0.02765 0.29435 0.0
H930 H 0.73984 0.03185 0.20184 0.0
H931 H 0.71337 0.03195 0.14653 0.0
H932 H 0.72307 1.00224 0.3143 0.0
H933 H 0.75206 0.08297 0.27328 0.0
H934 H 0.72842 0.07198 0.25094 0.0
H935 H 0.7543 0.0642 0.23128 0.0
C936 C 0.67988 0.02805 0.23055 0.0
C937 C 0.68613 0.02972 0.18843 0.0
C938 C 0.69504 0.02835 0.26214 0.0
C939 C 0.71678 0.03026 0.25238 0.0
C940 C 0.72314 0.03096 0.21027 0.0
H941 H 0.81661 1.01192 0.43968 0.0
H942 H 0.79327 1.00757 0.37979 0.0
C943 C 0.70797 0.03086 0.17864 0.0
C944 C 0.73263 0.03194 0.28636 0.0
H945 H 0.77079 0.06433 0.32585 0.0
C946 C 0.73353 0.0158 0.3168 0.0
C947 C 0.7461 0.04979 0.29001 0.0
C948 C 0.74509 0.06833 0.2599 0.0
C949 C 0.74745 0.01702 0.35072 0.0
C950 C 0.76125 0.03463 0.35383 0.0
C951 C 0.76038 0.05073 0.32331 0.0
C952 C 0.77595 0.03729 0.38951 0.0
C953 C 0.74668 0.99976 0.3836 0.0
C954 C 0.77457 0.05577 0.41413 0.0
C955 C 0.7881 0.05845 0.44796 0.0
C956 C 0.80334 0.04267 0.45807 0.0
C957 C 0.80494 0.0243 0.433 0.0
C958 C 0.79149 0.02171 0.3989 0.0
H959 H 0.73158 0.99076 0.38259 0.0
H960 H 0.76 0.98826 0.37813 0.0
H961 H 0.74836 1.00658 0.41528 0.0
H962 H 0.7628 0.06806 0.40748 0.0
H963 H 0.78639 0.07279 0.46652 0.0
H964 H 0.52966 0.81038 0.46801 0.0
H965 H 0.5349 0.78753 0.40635 0.0
H966 H 0.48751 0.82445 0.34083 0.0
H967 H 0.48233 0.84724 0.40153 0.0
H968 H 0.50439 0.76243 0.36636 0.0
H969 H 0.53662 0.82241 0.25671 0.0
H970 H 0.53578 0.82654 0.31239 0.0
H971 H 0.51243 0.83139 0.28162 0.0
C972 C 0.52057 0.81377 0.44026 0.0
C973 C 0.50563 0.83073 0.43978 0.0
C974 C 0.52354 0.80067 0.40508 0.0
C975 C 0.51184 0.80445 0.36862 0.0
C976 C 0.49708 0.82145 0.36813 0.0
H977 H 0.4744 0.7526 0.13871 0.0
H978 H 0.48322 0.77314 0.20033 0.0
C979 C 0.49405 0.83443 0.40313 0.0
C980 C 0.51399 0.79017 0.33161 0.0
H981 H 0.52146 0.79118 0.22591 0.0
C982 C 0.50855 0.76858 0.33575 0.0
C983 C 0.51946 0.79816 0.29162 0.0
C984 C 0.52661 0.82084 0.28531 0.0
C985 C 0.5071 0.75516 0.30071 0.0
C986 C 0.51154 0.76347 0.26048 0.0
C987 C 0.51797 0.78479 0.25665 0.0
C988 C 0.50751 0.75108 0.22176 0.0
C989 C 0.49966 0.73255 0.30679 0.0
C990 C 0.51858 0.73197 0.21249 0.0
C991 C 0.51357 0.72007 0.17688 0.0
C992 C 0.49737 0.7271 0.14995 0.0
C993 C 0.48688 0.74659 0.15874 0.0
C994 C 0.49193 0.75843 0.19405 0.0
H995 H 0.49334 0.72976 0.3388 0.0
H996 H 0.48706 0.72872 0.28411 0.0
H997 H 0.51322 0.72135 0.30134 0.0
H998 H 0.53094 0.72614 0.23298 0.0
H999 H 0.52197 0.70516 0.17106 0.0
H1000 H 0.71959 0.48634 0.44411 0.0
H1001 H 0.74387 0.48802 0.38422 0.0
H1002 H 0.72026 0.5512 0.35496 0.0
H1003 H 0.69616 0.54983 0.41539 0.0
H1004 H 0.73537 0.49328 0.30082 0.0
H1005 H 0.78437 0.56001 0.35872 0.0
H1006 H 0.76589 0.54586 0.39185 0.0
H1007 H 0.75634 0.5657 0.35584 0.0
C1008 C 0.71953 0.5006 0.42497 0.0
C1009 C 0.70602 0.51801 0.43471 0.0
C1010 C 0.73342 0.50154 0.39073 0.0
C1011 C 0.73413 0.51987 0.36553 0.0
C1012 C 0.72033 0.53709 0.37454 0.0
H1013 H 0.80616 0.53141 0.13011 0.0
H1014 H 0.77955 0.5374 0.18567 0.0
C1015 C 0.70647 0.53622 0.40895 0.0
C1016 C 0.74924 0.5207 0.32971 0.0
H1017 H 0.79293 0.54665 0.29164 0.0
C1018 C 0.74785 0.50504 0.29868 0.0
C1019 C 0.76558 0.53604 0.32709 0.0
C1020 C 0.76834 0.55276 0.36028 0.0
C1021 C 0.7625 0.50415 0.26539 0.0
C1022 C 0.7789 0.5193 0.26307 0.0
C1023 C 0.78015 0.5352 0.29354 0.0
C1024 C 0.79581 0.51765 0.23087 0.0
C1025 C 0.76079 0.48672 0.23332 0.0
C1026 C 0.81385 0.50493 0.23845 0.0
C1027 C 0.829 0.50146 0.20698 0.0
C1028 C 0.82638 0.51066 0.16729 0.0
C1029 C 0.80866 0.52412 0.16033 0.0
C1030 C 0.79344 0.52755 0.19194 0.0
H1031 H 0.74648 0.47677 0.23837 0.0
H1032 H 0.76017 0.49382 0.20161 0.0
H1033 H 0.77516 0.47624 0.23453 0.0
H1034 H 0.81586 0.49716 0.26839 0.0
H1035 H 0.84246 0.49104 0.21346 0.0
H1036 H 0.0768 0.79151 0.13544 0.0
H1037 H 0.07288 0.77324 0.20241 0.0
H1038 H 0.023 0.81764 0.23828 0.0
H1039 H 0.02681 0.83612 0.17113 0.0
H1040 H 0.07553 0.79068 0.28661 0.0
H1041 H 0.99641 0.75689 0.25046 0.0
H1042 H 0.01407 0.76706 0.21051 0.0
H1043 H 0.99922 0.7852 0.24324 0.0
C1044 C 0.06495 0.79741 0.15749 0.0
C1045 C 0.05191 0.8151 0.14774 0.0
C1046 C 0.06281 0.78699 0.19582 0.0
C1047 C 0.04747 0.79391 0.22499 0.0
C1048 C 0.03473 0.81187 0.21586 0.0
H1049 H 1.00444 0.7378 0.45891 0.0
H1050 H 1.00928 0.76016 0.39716 0.0
C1051 C 0.03697 0.82243 0.17757 0.0
C1052 C 0.04463 0.78201 0.26458 0.0
H1053 H 1.01029 0.74938 0.31676 0.0
C1054 C 0.06125 0.78172 0.29338 0.0
C1055 C 0.02599 0.77032 0.27317 0.0
C1056 C 1.00791 0.76966 0.2427 0.0
C1057 C 0.05963 0.7702 0.3309 0.0
C1058 C 0.04115 0.75812 0.33918 0.0
C1059 C 0.02447 0.75859 0.31041 0.0
C1060 C 0.03873 0.74481 0.37732 0.0
C1061 C 0.07757 0.77145 0.36159 0.0
C1062 C 0.05356 0.72854 0.38659 0.0
C1063 C 0.05092 0.7158 0.42215 0.0
C1064 C 0.03321 0.71887 0.44875 0.0
C1065 C 0.01825 0.73498 0.43907 0.0
C1066 C 0.021 0.74781 0.40377 0.0
H1067 H 0.0871 0.7861 0.35674 0.0
H1068 H 0.07148 0.77131 0.39421 0.0
H1069 H 0.08839 0.75747 0.3572 0.0
H1070 H 0.06705 0.7255 0.36606 0.0
H1071 H 0.06264 0.70342 0.42853 0.0
H1072 H 0.42005 1.00073 0.94458 0.0
H1073 H 0.45828 1.00477 0.95557 0.0
H1074 H 0.44699 1.01049 0.08787 0.0
H1075 H 0.40885 1.00606 0.07732 0.0
H1076 H 0.48276 0.03589 0.99116 0.0
H1077 H 0.48905 0.96071 0.08181 0.0
H1078 H 0.46572 0.96781 0.05232 0.0
H1079 H 0.4697 0.9791 0.1031 0.0
C1080 C 0.42565 1.00316 0.97598 0.0
C1081 C 0.41138 1.00289 1.01013 0.0
C1082 C 0.44754 1.00537 0.98221 0.0
C1083 C 0.45556 1.00735 0.02265 0.0
C1084 C 0.44123 1.00836 0.0565 0.0
H1085 H 0.57532 0.02899 0.13849 0.0
H1086 H 0.53844 0.02191 0.12021 0.0
C1087 C 0.41939 1.00602 0.05036 0.0
C1088 C 0.4789 1.00798 0.02963 0.0
H1089 H 0.51921 0.98346 0.08302 0.0
C1090 C 0.49078 0.02431 1.01088 0.0
C1091 C 0.48941 0.99272 0.05508 0.0
C1092 C 0.47787 0.97396 0.07389 0.0
C1093 C 0.51268 0.02628 0.01825 0.0
C1094 C 0.52299 1.01143 0.04477 0.0
C1095 C 0.51124 0.99484 0.06278 0.0
C1096 C 0.54566 0.01369 0.05616 0.0
C1097 C 0.52454 0.04465 0.99882 0.0
C1098 C 0.56204 1.01069 0.02652 0.0
C1099 C 0.58324 0.01454 0.03698 0.0
C1100 C 0.58835 0.0216 0.0772 0.0
C1101 C 0.57195 0.02365 0.10721 0.0
C1102 C 0.55084 0.01964 0.09683 0.0
H1103 H 0.51364 0.05653 0.98423 0.0
H1104 H 0.53417 0.05286 0.0226 0.0
H1105 H 0.53562 0.03845 0.9744 0.0
H1106 H 0.55836 1.00584 0.99507 0.0
H1107 H 0.59547 1.01286 0.01311 0.0
H1108 H 0.53956 0.43257 0.05739 0.0
H1109 H 0.53302 0.47102 0.06084 0.0
H1110 H 0.48669 0.46614 0.96341 0.0
H1111 H 0.49279 0.42742 0.96053 0.0
H1112 H 0.5395 0.50092 1.00297 0.0
H1113 H 0.45389 0.50194 0.04635 0.0
H1114 H 0.47003 0.47793 0.04847 0.0
H1115 H 0.45955 0.48719 0.99959 0.0
C1116 C 0.52778 0.43958 0.03696 0.0
C1117 C 0.51663 0.42679 1.00879 0.0
C1118 C 0.52409 0.46166 0.03892 0.0
C1119 C 0.50916 0.47162 0.01279 0.0
C1120 C 0.49792 0.45889 0.98468 0.0
H1121 H 0.47294 0.60392 0.96499 0.0
H1122 H 0.47881 0.56531 0.96326 0.0
C1123 C 0.50149 0.4367 0.9829 0.0
C1124 C 0.50615 0.49537 0.014 0.0
H1125 H 0.46887 0.53523 0.02682 0.0
C1126 C 0.52405 0.50838 1.00844 0.0
C1127 C 0.48602 0.50525 0.02117 0.0
C1128 C 0.46631 0.49238 0.02965 0.0
C1129 C 0.52235 0.53083 1.00914 0.0
C1130 C 0.50222 0.54067 0.01599 0.0
C1131 C 0.48431 0.52771 0.02152 0.0
C1132 C 0.49931 0.56437 0.01685 0.0
C1133 C 0.54205 0.54385 1.00161 0.0
C1134 C 0.50888 0.57686 0.04763 0.0
C1135 C 0.50552 0.59908 0.0488 0.0
C1136 C 0.49252 0.6093 0.01918 0.0
C1137 C 0.48313 0.59671 0.98824 0.0
C1138 C 0.4864 0.57455 0.98724 0.0
H1139 H 0.55521 0.53414 0.98762 0.0
H1140 H 0.53858 0.55759 0.98071 0.0
H1141 H 0.54759 0.55025 0.03174 0.0
H1142 H 0.51866 0.56937 0.07123 0.0
H1143 H 0.5129 0.60819 0.07321 0.0
H1144 H 0.9246 0.50946 0.9977 0.0
H1145 H 0.96342 0.51 0.99068 0.0
H1146 H 0.96867 0.52118 0.12264 0.0
H1147 H 0.92994 0.52035 0.13012 0.0
H1148 H 0.99316 0.54092 1.00976 0.0
H1149 H 1.00589 0.46799 0.10522 0.0
H1150 H 0.98006 0.47583 0.08598 0.0
H1151 H 0.99064 0.48847 0.13139 0.0
C1152 C 0.93399 0.51219 0.02521 0.0
C1153 C 0.92415 0.51469 0.06455 0.0
C1154 C 0.95619 0.51246 0.02113 0.0
C1155 C 0.96895 0.51516 0.05628 0.0
C1156 C 0.95915 0.51854 0.09527 0.0
H1157 H 0.10361 0.52294 0.1038 0.0
H1158 H 0.06476 0.52161 0.10743 0.0
C1159 C 0.93698 0.51822 0.09942 0.0
C1160 C 0.99251 0.51428 0.05225 0.0
H1161 H 0.03674 0.48764 0.08682 0.0
C1162 C 1.00269 0.52919 0.02637 0.0
C1163 C 1.00491 0.4989 0.07384 0.0
C1164 C 0.99484 0.48175 0.10036 0.0
C1165 C 0.02498 0.52951 0.02241 0.0
C1166 C 0.03737 0.51431 0.04446 0.0
C1167 C 0.02719 0.49929 0.07002 0.0
C1168 C 0.06096 0.5141 0.04222 0.0
C1169 C 0.03515 0.54645 0.99554 0.0
C1170 C 0.07173 0.50979 1.00455 0.0
C1171 C 0.09397 0.51045 1.00238 0.0
C1172 C 0.10584 0.51544 0.03789 0.0
C1173 C 0.09498 0.51912 0.07584 0.0
C1174 C 0.07277 0.51837 0.07799 0.0
H1175 H 0.02379 0.55961 0.98804 0.0
H1176 H 0.04916 0.55328 1.01121 0.0
H1177 H 0.04072 0.53917 0.9658 0.0
H1178 H 0.06292 0.50608 0.97675 0.0
H1179 H 0.10181 0.50749 0.97268 0.0
H1180 H 0.0168 0.10615 0.06779 0.0
H1181 H 0.02397 0.06773 0.07125 0.0
H1182 H 0.03617 0.06656 0.93881 0.0
H1183 H 0.02894 0.10504 0.93493 0.0
H1184 H 1.00753 0.03449 0.96882 0.0
H1185 H 0.08226 0.03645 0.05946 0.0
H1186 H 0.06029 0.05141 0.08153 0.0
H1187 H 0.07174 0.05959 0.03259 0.0
C1188 C 0.02119 0.09779 0.0394 0.0
C1189 C 0.02237 0.10872 1.00108 0.0
C1190 C 0.02535 0.07582 0.0415 0.0
C1191 C 0.03079 0.06433 1.00537 0.0
C1192 C 0.03207 0.07516 0.96709 0.0
H1193 H 0.08105 0.93549 0.98346 0.0
H1194 H 0.07433 0.97396 0.9807 0.0
C1195 C 0.02801 0.09717 0.96497 0.0
C1196 C 0.0345 0.04089 1.00735 0.0
H1197 H 0.06713 1.00247 0.04864 0.0
C1198 C 0.02057 0.02746 0.98621 0.0
C1199 C 0.0516 0.03181 0.02985 0.0
C1200 C 0.06747 0.04551 0.05191 0.0
C1201 C 0.02316 1.00514 0.98733 0.0
C1202 C 0.04003 0.99604 1.01048 0.0
C1203 C 0.0541 1.00949 0.03123 0.0
C1204 C 0.04381 0.97261 1.01238 0.0
C1205 C 1.00807 0.99148 0.96317 0.0
C1206 C 0.02894 0.95907 0.03147 0.0
C1207 C 0.03275 0.93699 0.03322 0.0
C1208 C 0.05152 0.92808 0.01588 0.0
C1209 C 0.0664 0.94177 0.997 0.0
C1210 C 0.06261 0.96379 0.99544 0.0
H1211 H 0.99888 1.00097 0.94009 0.0
H1212 H 0.01686 0.9785 0.94654 0.0
H1213 H 0.9966 0.98398 0.98513 0.0
H1214 H 0.01446 0.96559 0.04529 0.0
H1215 H 0.021 0.92693 0.04811 0.0
H1216 H 0.08092 0.99649 0.39425 0.0
H1217 H 0.04328 1.0018 0.41155 0.0
H1218 H 0.05799 1.0009 0.54243 0.0
H1219 H 0.09583 0.99596 0.52533 0.0
H1220 H 0.0177 0.9748 0.45491 0.0
H1221 H 0.01935 0.05305 0.53551 0.0
H1222 H 0.04155 0.043 0.50487 0.0
H1223 H 0.037 0.03321 0.5569 0.0
C1224 C 0.07625 0.99773 0.42675 0.0
C1225 C 0.0915 0.99586 0.45837 0.0
C1226 C 0.05465 1.00071 0.4366 0.0
C1227 C 0.04771 1.00196 0.4783 0.0
C1228 C 0.06292 1.00044 0.51 0.0
H1229 H 0.91812 1.01213 0.58461 0.0
H1230 H 0.95666 1.00643 0.57574 0.0
C1231 C 0.08459 0.99754 0.50015 0.0
C1232 C 0.02447 1.00368 0.48823 0.0
H1233 H 0.98651 0.03484 0.53663 0.0
C1234 C 1.01092 0.98796 0.47276 0.0
C1235 C 0.01554 0.02076 0.51177 0.0
C1236 C 0.02905 0.03858 0.52795 0.0
C1237 C 0.9888 0.98886 0.47998 0.0
C1238 C 0.97984 1.0061 0.50291 0.0
C1239 C 0.99338 0.02161 0.51913 0.0
C1240 C 0.95638 1.00884 0.5085 0.0
C1241 C 0.9752 0.97125 0.46319 0.0
C1242 C 0.94339 1.01216 0.47373 0.0
C1243 C 0.92144 0.01545 0.47868 0.0
C1244 C 0.91188 0.01552 0.51858 0.0
C1245 C 0.92489 1.01201 0.55343 0.0
C1246 C 0.94694 1.00884 0.54843 0.0
H1247 H 0.98475 0.95657 0.45651 0.0
H1248 H 0.96222 0.96722 0.48551 0.0
H1249 H 0.96786 0.97666 0.43365 0.0
H1250 H 0.95031 1.01258 0.44266 0.0
H1251 H 0.91199 0.01819 0.45113 0.0
H1252 H 0.48746 0.94365 0.6201 0.0
H1253 H 0.49265 0.98095 0.60067 0.0
H1254 H 0.50083 0.96258 0.47205 0.0
H1255 H 0.49533 0.92512 0.49119 0.0
H1256 H 0.52832 0.99835 0.56543 0.0
H1257 H 0.45917 1.01243 0.46267 0.0
H1258 H 0.46114 0.98953 0.49672 0.0
H1259 H 0.47545 0.98987 0.44787 0.0
C1260 C 0.49002 0.94751 0.58753 0.0
C1261 C 0.4909 0.9313 0.5572 0.0
C1262 C 0.49308 0.9689 0.5765 0.0
C1263 C 0.49699 0.97471 0.53485 0.0
C1264 C 0.49744 0.95863 0.5043 0.0
H1265 H 0.5262 0.09412 0.40921 0.0
H1266 H 0.52108 0.05684 0.42881 0.0
C1267 C 0.49433 0.93717 0.51531 0.0
C1268 C 0.50164 0.9974 0.52401 0.0
H1269 H 0.48518 0.03955 0.46402 0.0
C1270 C 0.51881 1.00739 0.54339 0.0
C1271 C 0.4893 1.00924 0.4952 0.0
C1272 C 0.47011 0.99983 0.47466 0.0
C1273 C 0.52419 0.02867 0.53427 0.0
C1274 C 0.51185 0.0405 0.50544 0.0
C1275 C 0.49468 0.03051 0.48607 0.0
C1276 C 0.51651 0.06318 0.49454 0.0
C1277 C 0.54335 0.0381 0.55484 0.0
C1278 C 0.51592 0.0793 0.525 0.0
C1279 C 0.51897 0.10076 0.51388 0.0
C1280 C 0.5225 0.10657 0.47199 0.0
C1281 C 0.52355 0.09031 0.44178 0.0
C1282 C 0.52054 0.06892 0.45291 0.0
H1283 H 0.55425 0.02552 0.56704 0.0
H1284 H 0.55238 0.04833 0.53272 0.0
H1285 H 0.53798 0.04815 0.58148 0.0
H1286 H 0.51245 0.07538 0.55723 0.0
H1287 H 0.51785 0.11284 0.53791 0.0
H1288 H 0.60631 0.5023 0.44007 0.0
H1289 H 0.56755 0.50381 0.43529 0.0
H1290 H 0.56279 0.51946 0.56587 0.0
H1291 H 0.60162 0.51831 0.57083 0.0
H1292 H 0.53935 0.47832 0.47834 0.0
H1293 H 0.5232 0.56378 0.51364 0.0
H1294 H 0.54944 0.55375 0.50004 0.0
H1295 H 0.53895 0.55006 0.55189 0.0
C1296 C 0.59706 0.50636 0.46769 0.0
C1297 C 0.6071 0.51023 0.50583 0.0
C1298 C 0.57489 0.50717 0.4649 0.0
C1299 C 0.56225 0.51193 0.5001 0.0
C1300 C 0.57221 0.51616 0.53809 0.0
H1301 H 0.42456 0.51583 0.54053 0.0
H1302 H 0.4632 0.51506 0.54975 0.0
C1303 C 0.59443 0.51542 0.5409 0.0
C1304 C 0.53868 0.51126 0.4974 0.0
H1305 H 0.49325 0.54126 0.50978 0.0
C1306 C 0.52927 0.4921 0.48509 0.0
C1307 C 0.52554 0.52921 0.50648 0.0
C1308 C 0.53476 0.55043 0.5184 0.0
C1309 C 0.5071 0.49036 0.48181 0.0
C1310 C 0.49398 0.50836 0.49046 0.0
C1311 C 0.50334 0.52746 0.50324 0.0
C1312 C 0.47054 0.5079 0.48522 0.0
C1313 C 0.4979 0.46916 0.46967 0.0
C1314 C 0.46184 0.50415 0.44588 0.0
C1315 C 0.4398 0.50453 0.44051 0.0
C1316 C 0.42597 0.50879 0.47435 0.0
C1317 C 0.43473 0.51238 0.51384 0.0
C1318 C 0.45681 0.51202 0.51916 0.0
H1319 H 0.50927 0.45576 0.47538 0.0
H1320 H 0.4829 0.46604 0.48717 0.0
H1321 H 0.49427 0.46941 0.43592 0.0
H1322 H 0.47214 0.50134 0.41909 0.0
H1323 H 0.43363 0.50185 0.40962 0.0
H1324 H 0.04922 0.60553 0.45458 0.0
H1325 H 0.04341 0.5671 0.45001 0.0
H1326 H 1.00436 0.5697 0.56128 0.0
H1327 H 1.00996 0.60822 0.56603 0.0
H1328 H 0.05425 0.53611 0.51062 0.0
H1329 H 0.96761 0.53666 0.4786 0.0
H1330 H 0.98383 0.56005 0.47214 0.0
H1331 H 0.97509 0.55196 0.52325 0.0
C1332 C 0.03919 0.59801 0.47787 0.0
C1333 C 0.03001 0.61001 0.51063 0.0
C1334 C 0.03595 0.57601 0.47525 0.0
C1335 C 0.0233 0.56556 0.50506 0.0
C1336 C 0.01389 0.57749 0.53753 0.0
H1337 H 0.98634 0.43492 0.55064 0.0
H1338 H 0.99284 0.47322 0.55351 0.0
C1339 C 0.01717 0.59951 0.54027 0.0
C1340 C 0.0207 0.54205 0.50308 0.0
H1341 H 0.98362 0.50305 0.49349 0.0
C1342 C 0.03883 0.52885 0.50666 0.0
C1343 C 1.00057 0.53264 0.49798 0.0
C1344 C 0.98066 0.54602 0.4924 0.0
C1345 C 0.03732 0.50648 0.50621 0.0
C1346 C 0.01717 0.49705 0.50121 0.0
C1347 C 0.99906 0.51028 0.49739 0.0
C1348 C 0.01438 0.47352 0.50044 0.0
C1349 C 0.05723 0.49315 0.51224 0.0
C1350 C 0.02442 0.46085 0.46973 0.0
C1351 C 0.02082 0.43883 0.46812 0.0
C1352 C 1.00694 0.42912 0.49696 0.0
C1353 C 0.99713 0.44184 0.52793 0.0
C1354 C 1.00079 0.46378 0.52959 0.0
H1355 H 0.07012 0.50253 0.52654 0.0
H1356 H 0.05399 0.47905 0.53226 0.0
H1357 H 0.06308 0.48735 0.48149 0.0
H1358 H 0.03464 0.46805 0.44638 0.0
H1359 H 0.02849 0.42954 0.44367 0.0
loop_
_geom_bond_atom_site_label_1
_geom_bond_atom_site_label_2
_geom_bond_distance
_geom_bond_site_symmetry_2
_ccdc_geom_bond_type
Mg0 O7 2.141 . S
Mg0 O8 2.048 . S
Mg0 O9 2.048 . S
Mg0 O12 2.141 . S
C1 O2 1.326 . S
C1 O8 1.186 1_565 S
O2 C1 1.326 . S
C3 O4 1.245 . S
C3 O12 1.289 1_565 S
O4 C3 1.245 . S
C5 O6 1.245 . S
C5 O7 1.289 1_565 S
O6 C5 1.245 . S
O7 Mg0 2.141 . S
O7 C5 1.289 1_545 S
O8 Mg0 2.048 . S
O8 C1 1.186 1_545 S
O9 Mg0 2.048 . S
O9 C10 1.195 . S
C10 O9 1.195 . S
C10 O11 1.313 1_545 S
O11 C10 1.313 1_565 S
O12 Mg0 2.141 . S
O12 C3 1.289 1_545 S
Mg13 O20 2.141 . S
Mg13 O21 2.048 . S
Mg13 O22 2.048 . S
Mg13 O25 2.141 . S
C14 O15 1.313 . S
C14 O21 1.195 . S
O15 C14 1.313 . S
C16 O17 1.245 . S
C16 O25 1.289 . S
O17 C16 1.245 . S
C18 O19 1.245 . S
C18 O20 1.289 . S
O19 C18 1.245 . S
O20 Mg13 2.141 . S
O20 C18 1.289 . S
O21 Mg13 2.048 . S
O21 C14 1.195 . S
O22 Mg13 2.048 . S
O22 C23 1.195 . S
C23 O22 1.195 . S
C23 O24 1.313 . S
O24 C23 1.313 . S
O25 Mg13 2.141 . S
O25 C16 1.289 . S
Mg26 O33 2.141 . S
Mg26 O34 2.048 . S
Mg26 O35 2.048 . S
Mg26 O38 2.141 . S
C27 O28 1.313 . S
C27 O34 1.195 . S
O28 C27 1.313 . S
C29 O30 1.245 . S
C29 O38 1.289 . S
O30 C29 1.245 . S
C31 O32 1.245 . S
C31 O33 1.289 . S
O32 C31 1.245 . S
O33 Mg26 2.141 . S
O33 C31 1.289 . S
O34 Mg26 2.048 . S
O34 C27 1.195 . S
O35 Mg26 2.048 . S
O35 C36 1.195 . S
C36 O35 1.195 . S
C36 O37 1.313 . S
O37 C36 1.313 . S
O38 Mg26 2.141 . S
O38 C29 1.289 . S
Mg39 O46 2.141 . S
Mg39 O47 2.065 . S
Mg39 O48 2.048 . S
Mg39 O51 2.141 . S
C40 O41 1.313 . S
C40 O47 1.148 1_455 S
O41 C40 1.313 . S
C42 O43 1.245 1_655 S
C42 O51 1.289 . S
O43 C42 1.245 1_455 S
C44 O45 1.245 . S
C44 O46 1.289 1_455 S
O45 C44 1.245 . S
O46 Mg39 2.141 . S
O46 C44 1.289 1_655 S
O47 Mg39 2.065 . S
O47 C40 1.148 1_655 S
O48 Mg39 2.048 . S
O48 C49 1.195 1_655 S
C49 O48 1.195 1_455 S
C49 O50 1.313 . S
O50 C49 1.313 . S
O51 Mg39 2.141 . S
O51 C42 1.289 . S
Mg52 O59 2.141 . S
Mg52 O60 2.048 . S
Mg52 O61 2.048 . S
Mg52 O64 2.141 . S
C53 O54 1.336 . S
C53 O60 1.179 1_545 S
O54 C53 1.336 . S
C55 O56 1.245 . S
C55 O64 1.289 1_545 S
O56 C55 1.245 . S
C57 O58 1.245 . S
C57 O59 1.289 1_545 S
O58 C57 1.245 . S
O59 Mg52 2.141 . S
O59 C57 1.289 1_565 S
O60 Mg52 2.048 . S
O60 C53 1.179 1_565 S
O61 Mg52 2.048 . S
O61 C62 1.195 . S
C62 O61 1.195 . S
C62 O63 1.313 1_565 S
O63 C62 1.313 1_545 S
O64 Mg52 2.141 . S
O64 C55 1.289 1_565 S
Mg65 O72 2.141 . S
Mg65 O73 2.048 . S
Mg65 O74 2.048 . S
Mg65 O77 2.141 . S
C66 O67 1.313 . S
C66 O73 1.195 . S
O67 C66 1.313 . S
C68 O69 1.245 . S
C68 O77 1.289 . S
O69 C68 1.245 . S
C70 O71 1.245 . S
C70 O72 1.289 . S
O71 C70 1.245 . S
O72 Mg65 2.141 . S
O72 C70 1.289 . S
O73 Mg65 2.048 . S
O73 C66 1.195 . S
O74 Mg65 2.048 . S
O74 C75 1.195 . S
C75 O74 1.195 . S
C75 O76 1.313 . S
O76 C75 1.313 . S
O77 Mg65 2.141 . S
O77 C68 1.289 . S
Mg78 O85 2.141 . S
Mg78 O86 2.048 . S
Mg78 O87 2.048 . S
Mg78 O90 2.141 . S
C79 O80 1.313 . S
C79 O86 1.195 . S
O80 C79 1.313 . S
C81 O82 1.245 . S
C81 O90 1.289 . S
O82 C81 1.245 . S
C83 O84 1.245 . S
C83 O85 1.289 . S
O84 C83 1.245 . S
O85 Mg78 2.141 . S
O85 C83 1.289 . S
O86 Mg78 2.048 . S
O86 C79 1.195 . S
O87 Mg78 2.048 . S
O87 C88 1.195 . S
C88 O87 1.195 . S
C88 O89 1.313 . S
O89 C88 1.313 . S
O90 Mg78 2.141 . S
O90 C81 1.289 . S
Mg91 O98 2.141 . S
Mg91 O99 2.048 . S
Mg91 O100 2.048 . S
Mg91 O103 2.141 . S
C92 O93 1.313 . S
C92 O99 1.195 1_655 S
O93 C92 1.313 . S
C94 O95 1.245 1_455 S
C94 O103 1.289 . S
O95 C94 1.245 1_655 S
C96 O97 1.245 . S
C96 O98 1.289 1_655 S
O97 C96 1.245 . S
O98 Mg91 2.141 . S
O98 C96 1.289 1_455 S
O99 Mg91 2.048 . S
O99 C92 1.195 1_455 S
O100 Mg91 2.048 . S
O100 C101 1.195 1_455 S
C101 O100 1.195 1_655 S
C101 O102 1.313 . S
O102 C101 1.313 . S
O103 Mg91 2.141 . S
O103 C94 1.289 . S
Mg104 O111 2.141 . S
Mg104 O112 2.048 . S
Mg104 O113 2.048 . S
Mg104 O116 2.141 . S
C105 O106 1.313 . S
C105 O112 1.195 1_565 S
O106 C105 1.313 . S
C107 O108 1.245 . S
C107 O116 1.289 1_565 S
O108 C107 1.245 . S
C109 O110 1.245 1_545 S
C109 O111 1.289 . S
O110 C109 1.245 1_565 S
O111 Mg104 2.141 . S
O111 C109 1.289 . S
O112 Mg104 2.048 . S
O112 C105 1.195 1_545 S
O113 Mg104 2.048 . S
O113 C114 1.195 1_545 S
C114 O113 1.195 1_565 S
C114 O115 1.313 . S
O115 C114 1.313 . S
O116 Mg104 2.141 . S
O116 C107 1.289 1_545 S
Mg117 O124 2.141 . S
Mg117 O125 2.048 . S
Mg117 O126 2.048 . S
Mg117 O129 2.141 . S
C118 O119 1.313 . S
C118 O125 1.195 . S
O119 C118 1.313 . S
C120 O121 1.245 . S
C120 O129 1.289 . S
O121 C120 1.245 . S
C122 O123 1.245 . S
C122 O124 1.289 . S
O123 C122 1.245 . S
O124 Mg117 2.141 . S
O124 C122 1.289 . S
O125 Mg117 2.048 . S
O125 C118 1.195 . S
O126 Mg117 2.048 . S
O126 C127 1.195 . S
C127 O126 1.195 . S
C127 O128 1.313 . S
O128 C127 1.313 . S
O129 Mg117 2.141 . S
O129 C120 1.289 . S
Mg130 O137 2.141 . S
Mg130 O138 2.048 . S
Mg130 O139 2.048 . S
Mg130 O142 2.141 . S
C131 O132 1.313 . S
C131 O138 1.195 . S
O132 C131 1.313 . S
C133 O134 1.245 . S
C133 O142 1.289 . S
O134 C133 1.245 . S
C135 O136 1.245 . S
C135 O137 1.289 . S
O136 C135 1.245 . S
O137 Mg130 2.141 . S
O137 C135 1.289 . S
O138 Mg130 2.048 . S
O138 C131 1.195 . S
O139 Mg130 2.048 . S
O139 C140 1.195 . S
C140 O139 1.195 . S
C140 O141 1.313 . S
O141 C140 1.313 . S
O142 Mg130 2.141 . S
O142 C133 1.289 . S
Mg143 O150 2.141 . S
Mg143 O151 2.048 . S
Mg143 O152 2.065 . S
Mg143 O155 2.141 . S
C144 O145 1.313 . S
C144 O151 1.195 1_655 S
O145 C144 1.313 . S
C146 O147 1.245 . S
C146 O155 1.289 1_655 S
O147 C146 1.245 . S
C148 O149 1.245 1_455 S
C148 O150 1.289 . S
O149 C148 1.245 1_655 S
O150 Mg143 2.141 . S
O150 C148 1.289 . S
O151 Mg143 2.048 . S
O151 C144 1.195 1_455 S
O152 Mg143 2.065 . S
O152 C153 1.148 1_455 S
C153 O152 1.148 1_655 S
C153 O154 1.313 . S
O154 C153 1.313 . S
O155 Mg143 2.141 . S
O155 C146 1.289 1_455 S
Mg156 O163 2.141 . S
Mg156 O164 2.048 . S
Mg156 O165 2.065 . S
Mg156 O168 2.141 . S
C157 O158 1.313 . S
C157 O164 1.195 1_545 S
O158 C157 1.313 . S
C159 O160 1.245 . S
C159 O168 1.289 1_545 S
O160 C159 1.245 . S
C161 O162 1.245 1_565 S
C161 O163 1.289 . S
O162 C161 1.245 1_545 S
O163 Mg156 2.141 . S
O163 C161 1.289 . S
O164 Mg156 2.048 . S
O164 C157 1.195 1_565 S
O165 Mg156 2.065 . S
O165 C166 1.148 1_565 S
C166 O165 1.148 1_545 S
C166 O167 1.313 . S
O167 C166 1.313 . S
O168 Mg156 2.141 . S
O168 C159 1.289 1_565 S
Mg169 O176 2.141 . S
Mg169 O177 2.048 . S
Mg169 O178 2.048 . S
Mg169 O181 2.141 . S
C170 O171 1.313 . S
C170 O177 1.195 . S
O171 C170 1.313 . S
C172 O173 1.245 . S
C172 O181 1.289 . S
O173 C172 1.245 . S
C174 O175 1.245 . S
C174 O176 1.289 . S
O175 C174 1.245 . S
O176 Mg169 2.141 . S
O176 C174 1.289 . S
O177 Mg169 2.048 . S
O177 C170 1.195 . S
O178 Mg169 2.048 . S
O178 C179 1.195 . S
C179 O178 1.195 . S
C179 O180 1.313 . S
O180 C179 1.313 . S
O181 Mg169 2.141 . S
O181 C172 1.289 . S
Mg182 O189 2.141 . S
Mg182 O190 2.048 . S
Mg182 O191 2.048 . S
Mg182 O194 2.141 . S
C183 O184 1.313 . S
C183 O190 1.195 . S
O184 C183 1.313 . S
C185 O186 1.245 . S
C185 O194 1.289 . S
O186 C185 1.245 . S
C187 O188 1.245 . S
C187 O189 1.289 . S
O188 C187 1.245 . S
O189 Mg182 2.141 . S
O189 C187 1.289 . S
O190 Mg182 2.048 . S
O190 C183 1.195 . S
O191 Mg182 2.048 . S
O191 C192 1.195 . S
C192 O191 1.195 . S
C192 O193 1.313 . S
O193 C192 1.313 . S
O194 Mg182 2.141 . S
O194 C185 1.289 . S
Mg195 O202 2.141 . S
Mg195 O203 2.048 . S
Mg195 O204 2.048 . S
Mg195 O207 2.141 . S
C196 O197 1.313 . S
C196 O203 1.195 1_455 S
O197 C196 1.313 . S
C198 O199 1.245 . S
C198 O207 1.289 1_455 S
O199 C198 1.245 . S
C200 O201 1.245 1_655 S
C200 O202 1.289 . S
O201 C200 1.245 1_455 S
O202 Mg195 2.141 . S
O202 C200 1.289 . S
O203 Mg195 2.048 . S
O203 C196 1.195 1_655 S
O204 Mg195 2.048 . S
O204 C205 1.195 1_655 S
C205 O204 1.195 1_455 S
C205 O206 1.313 . S
O206 C205 1.313 . S
O207 Mg195 2.141 . S
O207 C198 1.289 1_655 S
H208 C216 0.929 . S
H209 C218 0.930 . S
H210 C220 0.930 . S
H211 C223 0.929 . S
H212 C226 0.930 . S
H213 C228 0.960 . S
H214 C228 0.960 . S
H215 C228 0.960 . S
C216 H208 0.929 . S
C216 C217 1.377 . S
C216 C218 1.384 . S
C217 C216 1.377 . S
C217 C223 1.390 . S
C218 H209 0.930 . S
C218 C216 1.384 . S
C218 C219 1.372 . S
C219 C218 1.372 . S
C219 C220 1.400 . S
C219 C224 1.490 . S
C220 H210 0.930 . S
C220 C219 1.400 . S
C220 C223 1.386 . S
H221 C237 0.930 1_565 S
H222 C238 0.931 . S
C223 H211 0.929 . S
C223 C217 1.390 . S
C223 C220 1.386 . S
C224 C219 1.490 . S
C224 C226 1.395 . S
C224 C227 1.403 . S
H225 C231 0.930 . S
C226 H212 0.930 . S
C226 C224 1.395 . S
C226 C229 1.403 . S
C227 C224 1.403 . S
C227 C228 1.524 . S
C227 C231 1.400 . S
C228 H213 0.960 . S
C228 H214 0.960 . S
C228 H215 0.960 . S
C228 C227 1.524 . S
C229 C226 1.403 . S
C229 C230 1.392 . S
C229 C233 1.495 . S
C230 C229 1.392 . S
C230 C231 1.385 . S
C230 C232 1.478 . S
C231 H225 0.930 . S
C231 C227 1.400 . S
C231 C230 1.385 . S
C232 C230 1.478 . S
C232 C234 1.381 . S
C232 C238 1.383 . S
C233 C229 1.495 . S
C233 H239 0.959 . S
C233 H240 0.961 . S
C233 H241 0.960 . S
C234 C232 1.381 . S
C234 C235 1.394 . S
C234 H242 0.930 . S
C235 C234 1.394 . S
C235 C236 1.383 . S
C235 H243 0.929 . S
C236 C235 1.383 . S
C236 C237 1.377 . S
C237 H221 0.930 1_545 S
C237 C236 1.377 . S
C237 C238 1.379 . S
C238 H222 0.931 . S
C238 C232 1.383 . S
C238 C237 1.379 . S
H239 C233 0.959 . S
H240 C233 0.961 . S
H241 C233 0.960 . S
H242 C234 0.930 . S
H243 C235 0.929 . S
H244 C252 0.929 . S
H245 C254 0.930 . S
H246 C256 0.930 . S
H247 C259 0.929 . S
H248 C262 0.930 . S
H249 C264 0.960 . S
H250 C264 0.960 . S
H251 C264 0.960 . S
C252 H244 0.929 . S
C252 C253 1.377 . S
C252 C254 1.384 . S
C253 C252 1.377 . S
C253 C259 1.390 . S
C254 H245 0.930 . S
C254 C252 1.384 . S
C254 C255 1.372 . S
C255 C254 1.372 . S
C255 C256 1.400 . S
C255 C260 1.490 . S
C256 H246 0.930 . S
C256 C255 1.400 . S
C256 C259 1.386 . S
H257 C273 0.930 . S
H258 C274 0.931 . S
C259 H247 0.929 . S
C259 C253 1.390 . S
C259 C256 1.386 . S
C260 C255 1.490 . S
C260 C262 1.395 . S
C260 C263 1.403 . S
H261 C267 0.930 . S
C262 H248 0.930 . S
C262 C260 1.395 . S
C262 C265 1.403 . S
C263 C260 1.403 . S
C263 C264 1.524 . S
C263 C267 1.400 . S
C264 H249 0.960 . S
C264 H250 0.960 . S
C264 H251 0.960 . S
C264 C263 1.524 . S
C265 C262 1.403 . S
C265 C266 1.392 . S
C265 C269 1.495 . S
C266 C265 1.392 . S
C266 C267 1.385 . S
C266 C268 1.478 . S
C267 H261 0.930 . S
C267 C263 1.400 . S
C267 C266 1.385 . S
C268 C266 1.478 . S
C268 C270 1.381 . S
C268 C274 1.383 . S
C269 C265 1.495 . S
C269 H275 0.959 . S
C269 H276 0.961 . S
C269 H277 0.960 . S
C270 C268 1.381 . S
C270 C271 1.394 . S
C270 H278 0.930 . S
C271 C270 1.394 . S
C271 C272 1.383 . S
C271 H279 0.929 . S
C272 C271 1.383 . S
C272 C273 1.377 . S
C273 H257 0.930 . S
C273 C272 1.377 . S
C273 C274 1.379 . S
C274 H258 0.931 . S
C274 C268 1.383 . S
C274 C273 1.379 . S
H275 C269 0.959 . S
H276 C269 0.961 . S
H277 C269 0.960 . S
H278 C270 0.930 . S
H279 C271 0.929 . S
H280 C288 0.929 . S
H281 C290 0.930 . S
H282 C292 0.930 . S
H283 C295 0.929 . S
H284 C298 0.930 . S
H285 C300 0.960 . S
H286 C300 0.960 . S
H287 C300 0.960 . S
C288 H280 0.929 . S
C288 C289 1.377 . S
C288 C290 1.384 . S
C289 C288 1.377 . S
C289 C295 1.390 . S
C290 H281 0.930 . S
C290 C288 1.384 . S
C290 C291 1.372 . S
C291 C290 1.372 . S
C291 C292 1.400 . S
C291 C296 1.490 . S
C292 H282 0.930 . S
C292 C291 1.400 . S
C292 C295 1.386 . S
H293 C309 0.930 1_455 S
H294 C310 0.931 . S
C295 H283 0.929 . S
C295 C289 1.390 . S
C295 C292 1.386 . S
C296 C291 1.490 . S
C296 C298 1.395 . S
C296 C299 1.403 . S
H297 C303 0.930 . S
C298 H284 0.930 . S
C298 C296 1.395 . S
C298 C301 1.403 . S
C299 C296 1.403 . S
C299 C300 1.524 . S
C299 C303 1.400 . S
C300 H285 0.960 . S
C300 H286 0.960 . S
C300 H287 0.960 . S
C300 C299 1.524 . S
C301 C298 1.403 . S
C301 C302 1.392 . S
C301 C305 1.495 . S
C302 C301 1.392 . S
C302 C303 1.385 . S
C302 C304 1.478 . S
C303 H297 0.930 . S
C303 C299 1.400 . S
C303 C302 1.385 . S
C304 C302 1.478 . S
C304 C306 1.381 . S
C304 C310 1.383 . S
C305 C301 1.495 . S
C305 H311 0.959 . S
C305 H312 0.961 . S
C305 H313 0.960 . S
C306 C304 1.381 . S
C306 C307 1.394 . S
C306 H314 0.930 . S
C307 C306 1.394 . S
C307 C308 1.383 . S
C307 H315 0.929 . S
C308 C307 1.383 . S
C308 C309 1.377 . S
C309 H293 0.930 1_655 S
C309 C308 1.377 . S
C309 C310 1.379 . S
C310 H294 0.931 . S
C310 C304 1.383 . S
C310 C309 1.379 . S
H311 C305 0.959 . S
H312 C305 0.961 . S
H313 C305 0.960 . S
H314 C306 0.930 . S
H315 C307 0.929 . S
H316 C324 0.929 . S
H317 C326 0.930 . S
H318 C328 0.930 . S
H319 C331 0.929 1_655 S
H320 C334 0.930 . S
H321 C336 0.960 . S
H322 C336 0.960 . S
H323 C336 0.960 . S
C324 H316 0.929 . S
C324 C325 1.377 . S
C324 C326 1.384 . S
C325 C324 1.377 . S
C325 C331 1.390 . S
C326 H317 0.930 . S
C326 C324 1.384 . S
C326 C327 1.372 . S
C327 C326 1.372 . S
C327 C328 1.400 . S
C327 C332 1.490 . S
C328 H318 0.930 . S
C328 C327 1.400 . S
C328 C331 1.386 . S
H329 C345 0.930 . S
H330 C346 0.931 . S
C331 H319 0.929 1_455 S
C331 C325 1.390 . S
C331 C328 1.386 . S
C332 C327 1.490 . S
C332 C334 1.395 . S
C332 C335 1.403 . S
H333 C339 0.930 . S
C334 H320 0.930 . S
C334 C332 1.395 . S
C334 C337 1.403 . S
C335 C332 1.403 . S
C335 C336 1.524 . S
C335 C339 1.400 . S
C336 H321 0.960 . S
C336 H322 0.960 . S
C336 H323 0.960 . S
C336 C335 1.524 . S
C337 C334 1.403 . S
C337 C338 1.392 . S
C337 C341 1.495 . S
C338 C337 1.392 . S
C338 C339 1.385 . S
C338 C340 1.478 . S
C339 H333 0.930 . S
C339 C335 1.400 . S
C339 C338 1.385 . S
C340 C338 1.478 . S
C340 C342 1.381 . S
C340 C346 1.383 . S
C341 C337 1.495 . S
C341 H347 0.959 . S
C341 H348 0.961 . S
C341 H349 0.960 . S
C342 C340 1.381 . S
C342 C343 1.394 . S
C342 H350 0.930 . S
C343 C342 1.394 . S
C343 C344 1.383 . S
C343 H351 0.929 . S
C344 C343 1.383 . S
C344 C345 1.377 . S
C345 H329 0.930 . S
C345 C344 1.377 . S
C345 C346 1.379 . S
C346 H330 0.931 . S
C346 C340 1.383 . S
C346 C345 1.379 . S
H347 C341 0.959 . S
H348 C341 0.961 . S
H349 C341 0.960 . S
H350 C342 0.930 . S
H351 C343 0.929 . S
H352 C360 0.929 . S
H353 C362 0.930 . S
H354 C364 0.930 . S
H355 C367 0.929 . S
H356 C370 0.930 . S
H357 C372 0.960 . S
H358 C372 0.960 . S
H359 C372 0.960 . S
C360 H352 0.929 . S
C360 C361 1.377 . S
C360 C362 1.384 . S
C361 C360 1.377 . S
C361 C367 1.390 . S
C362 H353 0.930 . S
C362 C360 1.384 . S
C362 C363 1.372 . S
C363 C362 1.372 . S
C363 C364 1.400 . S
C363 C368 1.490 . S
C364 H354 0.930 . S
C364 C363 1.400 . S
C364 C367 1.386 . S
H365 C381 0.930 . S
H366 C382 0.931 . S
C367 H355 0.929 . S
C367 C361 1.390 . S
C367 C364 1.386 . S
C368 C363 1.490 . S
C368 C370 1.395 . S
C368 C371 1.403 . S
H369 C375 0.930 . S
C370 H356 0.930 . S
C370 C368 1.395 . S
C370 C373 1.403 . S
C371 C368 1.403 . S
C371 C372 1.524 . S
C371 C375 1.400 . S
C372 H357 0.960 . S
C372 H358 0.960 . S
C372 H359 0.960 . S
C372 C371 1.524 . S
C373 C370 1.403 . S
C373 C374 1.392 . S
C373 C377 1.495 . S
C374 C373 1.392 . S
C374 C375 1.385 . S
C374 C376 1.478 . S
C375 H369 0.930 . S
C375 C371 1.400 . S
C375 C374 1.385 . S
C376 C374 1.478 . S
C376 C378 1.381 . S
C376 C382 1.383 . S
C377 C373 1.495 . S
C377 H383 0.959 . S
C377 H384 0.961 . S
C377 H385 0.960 . S
C378 C376 1.381 . S
C378 C379 1.394 . S
C378 H386 0.930 . S
C379 C378 1.394 . S
C379 C380 1.383 . S
C379 H387 0.929 . S
C380 C379 1.383 . S
C380 C381 1.377 . S
C381 H365 0.930 . S
C381 C380 1.377 . S
C381 C382 1.379 . S
C382 H366 0.931 . S
C382 C376 1.383 . S
C382 C381 1.379 . S
H383 C377 0.959 . S
H384 C377 0.961 . S
H385 C377 0.960 . S
H386 C378 0.930 . S
H387 C379 0.929 . S
H388 C396 0.929 . S
H389 C398 0.930 . S
H390 C400 0.930 . S
H391 C403 0.929 . S
H392 C406 0.930 . S
H393 C408 0.960 . S
H394 C408 0.960 . S
H395 C408 0.960 . S
C396 H388 0.929 . S
C396 C397 1.377 . S
C396 C398 1.384 . S
C397 C396 1.377 . S
C397 C403 1.390 . S
C398 H389 0.930 . S
C398 C396 1.384 . S
C398 C399 1.372 . S
C399 C398 1.372 . S
C399 C400 1.400 . S
C399 C404 1.490 . S
C400 H390 0.930 . S
C400 C399 1.400 . S
C400 C403 1.386 . S
H401 C417 0.930 . S
H402 C418 0.931 . S
C403 H391 0.929 . S
C403 C397 1.390 . S
C403 C400 1.386 . S
C404 C399 1.490 . S
C404 C406 1.395 . S
C404 C407 1.403 . S
H405 C411 0.930 . S
C406 H392 0.930 . S
C406 C404 1.395 . S
C406 C409 1.403 . S
C407 C404 1.403 . S
C407 C408 1.524 . S
C407 C411 1.400 . S
C408 H393 0.960 . S
C408 H394 0.960 . S
C408 H395 0.960 . S
C408 C407 1.524 . S
C409 C406 1.403 . S
C409 C410 1.392 . S
C409 C413 1.495 . S
C410 C409 1.392 . S
C410 C411 1.385 . S
C410 C412 1.478 . S
C411 H405 0.930 . S
C411 C407 1.400 . S
C411 C410 1.385 . S
C412 C410 1.478 . S
C412 C414 1.381 . S
C412 C418 1.383 . S
C413 C409 1.495 . S
C413 H419 0.959 . S
C413 H420 0.961 . S
C413 H421 0.960 . S
C414 C412 1.381 . S
C414 C415 1.394 . S
C414 H422 0.930 . S
C415 C414 1.394 . S
C415 C416 1.383 . S
C415 H423 0.929 . S
C416 C415 1.383 . S
C416 C417 1.377 . S
C417 H401 0.930 . S
C417 C416 1.377 . S
C417 C418 1.379 . S
C418 H402 0.931 . S
C418 C412 1.383 . S
C418 C417 1.379 . S
H419 C413 0.959 . S
H420 C413 0.961 . S
H421 C413 0.960 . S
H422 C414 0.930 . S
H423 C415 0.929 . S
H424 C432 0.929 . S
H425 C434 0.930 . S
H426 C436 0.930 . S
H427 C439 0.961 . S
H428 C442 0.930 . S
H429 C444 0.960 . S
H430 C444 0.960 . S
H431 C444 0.960 . S
C432 H424 0.929 . S
C432 C433 1.377 . S
C432 C434 1.384 . S
C433 C432 1.377 . S
C433 C439 1.390 . S
C434 H425 0.930 . S
C434 C432 1.384 . S
C434 C435 1.372 . S
C435 C434 1.372 . S
C435 C436 1.400 . S
C435 C440 1.490 . S
C436 H426 0.930 . S
C436 C435 1.400 . S
C436 C439 1.386 . S
H437 C453 0.930 . S
H438 C454 0.931 . S
C439 H427 0.961 . S
C439 C433 1.390 . S
C439 C436 1.386 . S
C440 C435 1.490 . S
C440 C442 1.395 . S
C440 C443 1.403 . S
H441 C447 0.930 . S
C442 H428 0.930 . S
C442 C440 1.395 . S
C442 C445 1.403 . S
C443 C440 1.403 . S
C443 C444 1.524 . S
C443 C447 1.400 . S
C444 H429 0.960 . S
C444 H430 0.960 . S
C444 H431 0.960 . S
C444 C443 1.524 . S
C445 C442 1.403 . S
C445 C446 1.392 . S
C445 C449 1.495 . S
C446 C445 1.392 . S
C446 C447 1.385 . S
C446 C448 1.478 . S
C447 H441 0.930 . S
C447 C443 1.400 . S
C447 C446 1.385 . S
C448 C446 1.478 . S
C448 C450 1.381 . S
C448 C454 1.383 . S
C449 C445 1.495 . S
C449 H455 0.959 . S
C449 H456 0.961 . S
C449 H457 0.960 . S
C450 C448 1.381 . S
C450 C451 1.394 . S
C450 H458 0.930 . S
C451 C450 1.394 . S
C451 C452 1.383 . S
C451 H459 0.929 . S
C452 C451 1.383 . S
C452 C453 1.377 . S
C453 H437 0.930 . S
C453 C452 1.377 . S
C453 C454 1.379 . S
C454 H438 0.931 . S
C454 C448 1.383 . S
C454 C453 1.379 . S
H455 C449 0.959 . S
H456 C449 0.961 . S
H457 C449 0.960 . S
H458 C450 0.930 . S
H459 C451 0.929 . S
H460 C468 0.929 . S
H461 C470 0.930 . S
H462 C472 0.930 . S
H463 C475 0.929 . S
H464 C478 0.930 . S
H465 C480 0.960 . S
H466 C480 0.960 . S
H467 C480 0.960 . S
C468 H460 0.929 . S
C468 C469 1.377 . S
C468 C470 1.384 . S
C469 C468 1.377 . S
C469 C475 1.390 . S
C470 H461 0.930 . S
C470 C468 1.384 . S
C470 C471 1.372 . S
C471 C470 1.372 . S
C471 C472 1.400 . S
C471 C476 1.490 . S
C472 H462 0.930 . S
C472 C471 1.400 . S
C472 C475 1.386 . S
H473 C489 0.930 . S
H474 C490 0.931 . S
C475 H463 0.929 . S
C475 C469 1.390 . S
C475 C472 1.386 . S
C476 C471 1.490 . S
C476 C478 1.395 . S
C476 C479 1.403 . S
H477 C483 0.930 . S
C478 H464 0.930 . S
C478 C476 1.395 . S
C478 C481 1.403 . S
C479 C476 1.403 . S
C479 C480 1.524 . S
C479 C483 1.400 . S
C480 H465 0.960 . S
C480 H466 0.960 . S
C480 H467 0.960 . S
C480 C479 1.524 . S
C481 C478 1.403 . S
C481 C482 1.392 . S
C481 C485 1.495 . S
C482 C481 1.392 . S
C482 C483 1.385 . S
C482 C484 1.478 . S
C483 H477 0.930 . S
C483 C479 1.400 . S
C483 C482 1.385 . S
C484 C482 1.478 . S
C484 C486 1.381 . S
C484 C490 1.383 . S
C485 C481 1.495 . S
C485 H491 0.959 . S
C485 H492 0.961 . S
C485 H493 0.960 . S
C486 C484 1.381 . S
C486 C487 1.394 . S
C486 H494 0.930 . S
C487 C486 1.394 . S
C487 C488 1.383 . S
C487 H495 0.929 1_545 S
C488 C487 1.383 . S
C488 C489 1.377 . S
C489 H473 0.930 . S
C489 C488 1.377 . S
C489 C490 1.379 . S
C490 H474 0.931 . S
C490 C484 1.383 . S
C490 C489 1.379 . S
H491 C485 0.959 . S
H492 C485 0.961 . S
H493 C485 0.960 . S
H494 C486 0.930 . S
H495 C487 0.929 1_565 S
H496 C504 0.929 1_554 S
H497 C506 0.930 . S
H498 C508 0.930 1_545 S
H499 C511 0.929 1_545 S
H500 C514 0.930 . S
H501 C516 0.960 . S
H502 C516 0.960 . S
H503 C516 0.960 . S
C504 H496 0.929 1_556 S
C504 C505 1.377 . S
C504 C506 1.384 . S
C505 C504 1.377 . S
C505 C511 1.390 . S
C506 H497 0.930 . S
C506 C504 1.384 . S
C506 C507 1.372 . S
C507 C506 1.372 . S
C507 C508 1.400 . S
C507 C512 1.490 . S
C508 H498 0.930 1_565 S
C508 C507 1.400 . S
C508 C511 1.386 . S
H509 C525 0.930 . S
H510 C526 0.931 . S
C511 H499 0.929 1_565 S
C511 C505 1.390 . S
C511 C508 1.386 . S
C512 C507 1.490 . S
C512 C514 1.395 . S
C512 C515 1.403 1_565 S
H513 C519 0.930 . S
C514 H500 0.930 . S
C514 C512 1.395 . S
C514 C517 1.403 . S
C515 C512 1.403 1_545 S
C515 C516 1.524 . S
C515 C519 1.400 . S
C516 H501 0.960 . S
C516 H502 0.960 . S
C516 H503 0.960 . S
C516 C515 1.524 . S
C517 C514 1.403 . S
C517 C518 1.392 . S
C517 C521 1.495 . S
C518 C517 1.392 . S
C518 C519 1.385 1_565 S
C518 C520 1.478 . S
C519 H513 0.930 . S
C519 C515 1.400 . S
C519 C518 1.385 1_545 S
C520 C518 1.478 . S
C520 C522 1.381 . S
C520 C526 1.383 1_565 S
C521 C517 1.495 . S
C521 H527 0.959 . S
C521 H528 0.961 . S
C521 H529 0.960 . S
C522 C520 1.381 . S
C522 C523 1.394 . S
C522 H530 0.930 . S
C523 C522 1.394 . S
C523 C524 1.383 . S
C523 H531 0.929 . S
C524 C523 1.383 . S
C524 C525 1.377 1_565 S
C525 H509 0.930 . S
C525 C524 1.377 1_545 S
C525 C526 1.379 . S
C526 H510 0.931 . S
C526 C520 1.383 1_545 S
C526 C525 1.379 . S
H527 C521 0.959 . S
H528 C521 0.961 . S
H529 C521 0.960 . S
H530 C522 0.930 . S
H531 C523 0.929 . S
H532 C540 0.929 . S
H533 C542 0.930 . S
H534 C544 0.930 . S
H535 C547 0.929 . S
H536 C550 0.930 . S
H537 C552 0.960 . S
H538 C552 0.960 . S
H539 C552 0.960 . S
C540 H532 0.929 . S
C540 C541 1.377 . S
C540 C542 1.384 . S
C541 C540 1.377 . S
C541 C547 1.390 . S
C542 H533 0.930 . S
C542 C540 1.384 . S
C542 C543 1.372 . S
C543 C542 1.372 . S
C543 C544 1.400 . S
C543 C548 1.490 . S
C544 H534 0.930 . S
C544 C543 1.400 . S
C544 C547 1.386 . S
H545 C561 0.930 . S
H546 C562 0.931 . S
C547 H535 0.929 . S
C547 C541 1.390 . S
C547 C544 1.386 . S
C548 C543 1.490 . S
C548 C550 1.395 . S
C548 C551 1.403 . S
H549 C555 0.930 . S
C550 H536 0.930 . S
C550 C548 1.395 . S
C550 C553 1.403 . S
C551 C548 1.403 . S
C551 C552 1.524 . S
C551 C555 1.400 . S
C552 H537 0.960 . S
C552 H538 0.960 . S
C552 H539 0.960 . S
C552 C551 1.524 . S
C553 C550 1.403 . S
C553 C554 1.392 . S
C553 C557 1.495 . S
C554 C553 1.392 . S
C554 C555 1.385 . S
C554 C556 1.478 . S
C555 H549 0.930 . S
C555 C551 1.400 . S
C555 C554 1.385 . S
C556 C554 1.478 . S
C556 C558 1.381 . S
C556 C562 1.383 . S
C557 C553 1.495 . S
C557 H563 0.959 . S
C557 H564 0.961 . S
C557 H565 0.960 . S
C558 C556 1.381 . S
C558 C559 1.394 . S
C558 H566 0.930 . S
C559 C558 1.394 . S
C559 C560 1.383 . S
C559 H567 0.929 1_556 S
C560 C559 1.383 . S
C560 C561 1.377 . S
C561 H545 0.930 . S
C561 C560 1.377 . S
C561 C562 1.379 . S
C562 H546 0.931 . S
C562 C556 1.383 . S
C562 C561 1.379 . S
H563 C557 0.959 . S
H564 C557 0.961 . S
H565 C557 0.960 . S
H566 C558 0.930 . S
H567 C559 0.929 1_554 S
H568 C576 0.929 1_554 S
H569 C578 0.930 . S
H570 C580 0.930 . S
H571 C583 0.929 . S
H572 C586 0.930 . S
H573 C588 0.960 . S
H574 C588 0.960 . S
H575 C588 0.960 . S
C576 H568 0.929 1_556 S
C576 C577 1.377 . S
C576 C578 1.384 . S
C577 C576 1.377 . S
C577 C583 1.390 . S
C578 H569 0.930 . S
C578 C576 1.384 . S
C578 C579 1.372 . S
C579 C578 1.372 . S
C579 C580 1.400 . S
C579 C584 1.490 . S
C580 H570 0.930 . S
C580 C579 1.400 . S
C580 C583 1.386 . S
H581 C597 0.930 . S
H582 C598 0.931 . S
C583 H571 0.929 . S
C583 C577 1.390 . S
C583 C580 1.386 . S
C584 C579 1.490 . S
C584 C586 1.395 . S
C584 C587 1.403 . S
H585 C591 0.930 . S
C586 H572 0.930 . S
C586 C584 1.395 . S
C586 C589 1.403 . S
C587 C584 1.403 . S
C587 C588 1.524 . S
C587 C591 1.400 . S
C588 H573 0.960 . S
C588 H574 0.960 . S
C588 H575 0.960 . S
C588 C587 1.524 . S
C589 C586 1.403 . S
C589 C590 1.392 . S
C589 C593 1.495 . S
C590 C589 1.392 . S
C590 C591 1.385 . S
C590 C592 1.478 . S
C591 H585 0.930 . S
C591 C587 1.400 . S
C591 C590 1.385 . S
C592 C590 1.478 . S
C592 C594 1.381 . S
C592 C598 1.383 . S
C593 C589 1.495 . S
C593 H599 0.959 . S
C593 H600 0.961 . S
C593 H601 0.960 . S
C594 C592 1.381 . S
C594 C595 1.394 . S
C594 H602 0.930 . S
C595 C594 1.394 . S
C595 C596 1.383 . S
C595 H603 0.929 . S
C596 C595 1.383 . S
C596 C597 1.377 . S
C597 H581 0.930 . S
C597 C596 1.377 . S
C597 C598 1.379 . S
C598 H582 0.931 . S
C598 C592 1.383 . S
C598 C597 1.379 . S
H599 C593 0.959 . S
H600 C593 0.961 . S
H601 C593 0.960 . S
H602 C594 0.930 . S
H603 C595 0.929 . S
H604 C612 0.929 . S
H605 C614 0.930 . S
H606 C616 0.930 . S
H607 C619 0.929 . S
H608 C622 0.930 . S
H609 C624 0.960 . S
H610 C624 0.984 . S
H611 C624 0.960 . S
C612 H604 0.929 . S
C612 C613 1.377 . S
C612 C614 1.384 . S
C613 C612 1.377 . S
C613 C619 1.390 1_655 S
C614 H605 0.930 . S
C614 C612 1.384 . S
C614 C615 1.372 . S
C615 C614 1.372 . S
C615 C616 1.400 1_655 S
C615 C620 1.490 . S
C616 H606 0.930 . S
C616 C615 1.400 1_455 S
C616 C619 1.386 . S
H617 C633 0.930 . S
H618 C634 0.931 . S
C619 H607 0.929 . S
C619 C613 1.390 1_455 S
C619 C616 1.386 . S
C620 C615 1.490 . S
C620 C622 1.395 . S
C620 C623 1.398 1_655 S
H621 C627 0.930 . S
C622 H608 0.930 . S
C622 C620 1.395 . S
C622 C625 1.403 . S
C623 C620 1.398 1_455 S
C623 C624 1.528 . S
C623 C627 1.400 . S
C624 H609 0.960 . S
C624 H610 0.984 . S
C624 H611 0.960 . S
C624 C623 1.528 . S
C625 C622 1.403 . S
C625 C626 1.392 . S
C625 C629 1.495 . S
C626 C625 1.392 . S
C626 C627 1.385 1_655 S
C626 C628 1.478 . S
C627 H621 0.930 . S
C627 C623 1.400 . S
C627 C626 1.385 1_455 S
C628 C626 1.478 . S
C628 C630 1.381 . S
C628 C634 1.383 1_655 S
C629 C625 1.495 . S
C629 H635 0.959 . S
C629 H636 0.961 . S
C629 H637 0.960 . S
C630 C628 1.381 . S
C630 C631 1.394 . S
C630 H638 0.930 . S
C631 C630 1.394 . S
C631 C632 1.435 . S
C631 H639 0.929 . S
C632 C631 1.435 . S
C632 C633 1.333 1_655 S
C633 H617 0.930 . S
C633 C632 1.333 1_455 S
C633 C634 1.379 . S
C634 H618 0.931 . S
C634 C628 1.383 1_455 S
C634 C633 1.379 . S
H635 C629 0.959 . S
H636 C629 0.961 . S
H637 C629 0.960 . S
H638 C630 0.930 . S
H639 C631 0.929 . S
H640 C648 0.929 . S
H641 C650 0.930 . S
H642 C652 0.930 1_565 S
H643 C655 0.929 . S
H644 C658 0.930 . S
H645 C660 0.960 . S
H646 C660 0.960 . S
H647 C660 0.960 . S
C648 H640 0.929 . S
C648 C649 1.377 . S
C648 C650 1.384 . S
C649 C648 1.377 . S
C649 C655 1.390 . S
C650 H641 0.930 . S
C650 C648 1.384 . S
C650 C651 1.372 . S
C651 C650 1.372 . S
C651 C652 1.400 . S
C651 C656 1.490 . S
C652 H642 0.930 1_545 S
C652 C651 1.400 . S
C652 C655 1.386 . S
H653 C669 0.930 . S
H654 C670 0.931 . S
C655 H643 0.929 . S
C655 C649 1.390 . S
C655 C652 1.386 . S
C656 C651 1.490 . S
C656 C658 1.395 1_545 S
C656 C659 1.403 . S
H657 C663 0.930 . S
C658 H644 0.930 . S
C658 C656 1.395 1_565 S
C658 C661 1.403 . S
C659 C656 1.403 . S
C659 C660 1.524 . S
C659 C663 1.400 . S
C660 H645 0.960 . S
C660 H646 0.960 . S
C660 H647 0.960 . S
C660 C659 1.524 . S
C661 C658 1.403 . S
C661 C662 1.392 1_565 S
C661 C665 1.495 . S
C662 C661 1.392 1_545 S
C662 C663 1.385 . S
C662 C664 1.478 . S
C663 H657 0.930 . S
C663 C659 1.400 . S
C663 C662 1.385 . S
C664 C662 1.478 . S
C664 C666 1.381 . S
C664 C670 1.383 1_545 S
C665 C661 1.495 . S
C665 H671 0.959 . S
C665 H672 0.961 . S
C665 H673 0.960 . S
C666 C664 1.381 . S
C666 C667 1.394 . S
C666 H674 0.930 . S
C667 C666 1.394 . S
C667 C668 1.363 1_545 S
C667 H675 0.929 . S
C668 C667 1.363 1_565 S
C668 C669 1.396 . S
C669 H653 0.930 . S
C669 C668 1.396 . S
C669 C670 1.379 . S
C670 H654 0.931 . S
C670 C664 1.383 1_565 S
C670 C669 1.379 . S
H671 C665 0.959 . S
H672 C665 0.961 . S
H673 C665 0.960 . S
H674 C666 0.930 . S
H675 C667 0.929 . S
H676 C684 0.929 . S
H677 C686 0.930 . S
H678 C688 0.930 . S
H679 C691 0.929 . S
H680 C694 0.930 . S
H681 C696 0.960 . S
H682 C696 0.960 . S
H683 C696 0.960 . S
C684 H676 0.929 . S
C684 C685 1.377 . S
C684 C686 1.384 . S
C685 C684 1.377 . S
C685 C691 1.390 . S
C686 H677 0.930 . S
C686 C684 1.384 . S
C686 C687 1.372 . S
C687 C686 1.372 . S
C687 C688 1.400 . S
C687 C692 1.490 . S
C688 H678 0.930 . S
C688 C687 1.400 . S
C688 C691 1.386 . S
H689 C705 0.930 . S
H690 C706 0.931 . S
C691 H679 0.929 . S
C691 C685 1.390 . S
C691 C688 1.386 . S
C692 C687 1.490 . S
C692 C694 1.395 . S
C692 C695 1.403 . S
H693 C699 0.930 . S
C694 H680 0.930 . S
C694 C692 1.395 . S
C694 C697 1.403 . S
C695 C692 1.403 . S
C695 C696 1.524 . S
C695 C699 1.400 . S
C696 H681 0.960 . S
C696 H682 0.960 . S
C696 H683 0.960 . S
C696 C695 1.524 . S
C697 C694 1.403 . S
C697 C698 1.392 . S
C697 C701 1.495 . S
C698 C697 1.392 . S
C698 C699 1.385 . S
C698 C700 1.478 . S
C699 H693 0.930 . S
C699 C695 1.400 . S
C699 C698 1.385 . S
C700 C698 1.478 . S
C700 C702 1.381 . S
C700 C706 1.383 . S
C701 C697 1.495 . S
C701 H707 0.959 . S
C701 H708 0.961 . S
C701 H709 0.960 . S
C702 C700 1.381 . S
C702 C703 1.394 . S
C702 H710 0.930 . S
C703 C702 1.394 . S
C703 C704 1.383 . S
C703 H711 0.929 . S
C704 C703 1.383 . S
C704 C705 1.377 . S
C705 H689 0.930 . S
C705 C704 1.377 . S
C705 C706 1.379 . S
C706 H690 0.931 . S
C706 C700 1.383 . S
C706 C705 1.379 . S
H707 C701 0.959 . S
H708 C701 0.961 . S
H709 C701 0.960 . S
H710 C702 0.930 . S
H711 C703 0.929 . S
H712 C720 0.929 . S
H713 C722 0.930 . S
H714 C724 0.930 . S
H715 C727 0.929 . S
H716 C730 0.930 . S
H717 C732 0.960 . S
H718 C732 0.960 . S
H719 C732 0.960 . S
C720 H712 0.929 . S
C720 C721 1.377 . S
C720 C722 1.384 . S
C721 C720 1.377 . S
C721 C727 1.390 . S
C722 H713 0.930 . S
C722 C720 1.384 . S
C722 C723 1.372 . S
C723 C722 1.372 . S
C723 C724 1.400 . S
C723 C728 1.490 . S
C724 H714 0.930 . S
C724 C723 1.400 . S
C724 C727 1.386 . S
H725 C741 0.930 . S
H726 C742 0.931 . S
C727 H715 0.929 . S
C727 C721 1.390 . S
C727 C724 1.386 . S
C728 C723 1.490 . S
C728 C730 1.395 . S
C728 C731 1.403 . S
H729 C735 0.930 . S
C730 H716 0.930 . S
C730 C728 1.395 . S
C730 C733 1.403 . S
C731 C728 1.403 . S
C731 C732 1.524 . S
C731 C735 1.400 . S
C732 H717 0.960 . S
C732 H718 0.960 . S
C732 H719 0.960 . S
C732 C731 1.524 . S
C733 C730 1.403 . S
C733 C734 1.392 . S
C733 C737 1.495 . S
C734 C733 1.392 . S
C734 C735 1.385 . S
C734 C736 1.478 . S
C735 H729 0.930 . S
C735 C731 1.400 . S
C735 C734 1.385 . S
C736 C734 1.478 . S
C736 C738 1.381 . S
C736 C742 1.383 . S
C737 C733 1.495 . S
C737 H743 0.959 . S
C737 H744 0.961 . S
C737 H745 0.960 . S
C738 C736 1.381 . S
C738 C739 1.394 . S
C738 H746 0.930 . S
C739 C738 1.394 . S
C739 C740 1.383 . S
C739 H747 0.929 . S
C740 C739 1.383 . S
C740 C741 1.377 . S
C741 H725 0.930 . S
C741 C740 1.377 . S
C741 C742 1.379 . S
C742 H726 0.931 . S
C742 C736 1.383 . S
C742 C741 1.379 . S
H743 C737 0.959 . S
H744 C737 0.961 . S
H745 C737 0.960 . S
H746 C738 0.930 . S
H747 C739 0.929 . S
H748 C756 0.929 . S
H749 C758 0.930 . S
H750 C760 0.930 . S
H751 C763 0.929 . S
H752 C766 0.930 . S
H753 C768 0.960 . S
H754 C768 0.960 . S
H755 C768 0.960 . S
C756 H748 0.929 . S
C756 C757 1.377 . S
C756 C758 1.384 . S
C757 C756 1.377 . S
C757 C763 1.390 . S
C758 H749 0.930 . S
C758 C756 1.384 . S
C758 C759 1.372 . S
C759 C758 1.372 . S
C759 C760 1.400 . S
C759 C764 1.490 . S
C760 H750 0.930 . S
C760 C759 1.400 . S
C760 C763 1.386 . S
H761 C777 0.930 . S
H762 C778 0.931 . S
C763 H751 0.929 . S
C763 C757 1.390 . S
C763 C760 1.386 . S
C764 C759 1.490 . S
C764 C766 1.395 . S
C764 C767 1.403 1_455 S
H765 C771 0.930 . S
C766 H752 0.930 . S
C766 C764 1.395 . S
C766 C769 1.403 . S
C767 C764 1.403 1_655 S
C767 C768 1.524 . S
C767 C771 1.400 . S
C768 H753 0.960 . S
C768 H754 0.960 . S
C768 H755 0.960 . S
C768 C767 1.524 . S
C769 C766 1.403 . S
C769 C770 1.392 . S
C769 C773 1.495 . S
C770 C769 1.392 . S
C770 C771 1.385 1_455 S
C770 C772 1.478 . S
C771 H765 0.930 . S
C771 C767 1.400 . S
C771 C770 1.385 1_655 S
C772 C770 1.478 . S
C772 C774 1.368 1_455 S
C772 C778 1.383 . S
C773 C769 1.495 . S
C773 H779 0.959 . S
C773 H780 0.961 . S
C773 H781 0.960 . S
C774 C772 1.368 1_655 S
C774 C775 1.399 . S
C774 H782 0.939 . S
C775 C774 1.399 . S
C775 C776 1.383 1_655 S
C775 H783 0.929 . S
C776 C775 1.383 1_455 S
C776 C777 1.377 . S
C777 H761 0.930 . S
C777 C776 1.377 . S
C777 C778 1.379 . S
C778 H762 0.931 . S
C778 C772 1.383 . S
C778 C777 1.379 . S
H779 C773 0.959 . S
H780 C773 0.961 . S
H781 C773 0.960 . S
H782 C774 0.939 . S
H783 C775 0.929 . S
H784 C792 0.928 1_565 S
H785 C794 0.930 . S
H786 C796 0.930 . S
H787 C799 0.929 . S
H788 C802 0.930 . S
H789 C804 0.960 . S
H790 C804 0.960 . S
H791 C804 0.960 . S
C792 H784 0.928 1_545 S
C792 C793 1.377 . S
C792 C794 1.386 . S
C793 C792 1.377 . S
C793 C799 1.392 . S
C794 H785 0.930 . S
C794 C792 1.386 . S
C794 C795 1.372 . S
C795 C794 1.372 . S
C795 C796 1.400 . S
C795 C800 1.490 . S
C796 H786 0.930 . S
C796 C795 1.400 . S
C796 C799 1.386 . S
H797 C813 0.930 1_556 S
H798 C814 0.931 . S
C799 H787 0.929 . S
C799 C793 1.392 . S
C799 C796 1.386 . S
C800 C795 1.490 . S
C800 C802 1.395 1_545 S
C800 C803 1.403 . S
H801 C807 0.930 . S
C802 H788 0.930 . S
C802 C800 1.395 1_565 S
C802 C805 1.403 . S
C803 C800 1.403 . S
C803 C804 1.524 . S
C803 C807 1.400 . S
C804 H789 0.960 . S
C804 H790 0.960 . S
C804 H791 0.960 . S
C804 C803 1.524 . S
C805 C802 1.403 . S
C805 C806 1.392 1_565 S
C805 C809 1.495 . S
C806 C805 1.392 1_545 S
C806 C807 1.385 . S
C806 C808 1.478 . S
C807 H801 0.930 . S
C807 C803 1.400 . S
C807 C806 1.385 . S
C808 C806 1.478 . S
C808 C810 1.381 . S
C808 C814 1.383 . S
C809 C805 1.495 . S
C809 H815 0.959 . S
C809 H816 0.961 . S
C809 H817 0.960 . S
C810 C808 1.381 . S
C810 C811 1.394 . S
C810 H818 0.930 . S
C811 C810 1.394 . S
C811 C812 1.383 . S
C811 H819 0.929 . S
C812 C811 1.383 . S
C812 C813 1.377 . S
C813 H797 0.930 1_554 S
C813 C812 1.377 . S
C813 C814 1.379 . S
C814 H798 0.931 . S
C814 C808 1.383 . S
C814 C813 1.379 . S
H815 C809 0.959 . S
H816 C809 0.961 . S
H817 C809 0.960 . S
H818 C810 0.930 . S
H819 C811 0.929 . S
H820 C828 0.929 . S
H821 C830 0.930 . S
H822 C832 0.930 . S
H823 C835 0.929 . S
H824 C838 0.930 . S
H825 C840 0.960 . S
H826 C840 0.960 . S
H827 C840 0.960 . S
C828 H820 0.929 . S
C828 C829 1.377 . S
C828 C830 1.384 . S
C829 C828 1.377 . S
C829 C835 1.390 . S
C830 H821 0.930 . S
C830 C828 1.384 . S
C830 C831 1.372 . S
C831 C830 1.372 . S
C831 C832 1.400 . S
C831 C836 1.490 . S
C832 H822 0.930 . S
C832 C831 1.400 . S
C832 C835 1.386 . S
H833 C849 0.930 . S
H834 C850 0.931 . S
C835 H823 0.929 . S
C835 C829 1.390 . S
C835 C832 1.386 . S
C836 C831 1.490 . S
C836 C838 1.395 . S
C836 C839 1.403 . S
H837 C843 0.930 . S
C838 H824 0.930 . S
C838 C836 1.395 . S
C838 C841 1.403 . S
C839 C836 1.403 . S
C839 C840 1.524 . S
C839 C843 1.400 . S
C840 H825 0.960 . S
C840 H826 0.960 . S
C840 H827 0.960 . S
C840 C839 1.524 . S
C841 C838 1.403 . S
C841 C842 1.392 . S
C841 C845 1.495 . S
C842 C841 1.392 . S
C842 C843 1.385 . S
C842 C844 1.478 . S
C843 H837 0.930 . S
C843 C839 1.400 . S
C843 C842 1.385 . S
C844 C842 1.478 . S
C844 C846 1.381 . S
C844 C850 1.383 . S
C845 C841 1.495 . S
C845 H851 0.959 . S
C845 H852 0.961 . S
C845 H853 0.960 . S
C846 C844 1.381 . S
C846 C847 1.394 . S
C846 H854 0.930 . S
C847 C846 1.394 . S
C847 C848 1.383 . S
C847 H855 0.929 . S
C848 C847 1.383 . S
C848 C849 1.377 . S
C849 H833 0.930 . S
C849 C848 1.377 . S
C849 C850 1.379 . S
C850 H834 0.931 . S
C850 C844 1.383 . S
C850 C849 1.379 . S
H851 C845 0.959 . S
H852 C845 0.961 . S
H853 C845 0.960 . S
H854 C846 0.930 . S
H855 C847 0.929 . S
H856 C864 0.929 . S
H857 C866 0.930 . S
H858 C868 0.930 . S
H859 C871 0.929 . S
H860 C874 0.930 . S
H861 C876 0.960 . S
H862 C876 0.960 . S
H863 C876 0.960 . S
C864 H856 0.929 . S
C864 C865 1.377 . S
C864 C866 1.384 . S
C865 C864 1.377 . S
C865 C871 1.390 . S
C866 H857 0.930 . S
C866 C864 1.384 . S
C866 C867 1.372 . S
C867 C866 1.372 . S
C867 C868 1.400 . S
C867 C872 1.490 . S
C868 H858 0.930 . S
C868 C867 1.400 . S
C868 C871 1.386 . S
H869 C885 0.930 1_556 S
H870 C886 0.931 . S
C871 H859 0.929 . S
C871 C865 1.390 . S
C871 C868 1.386 . S
C872 C867 1.490 . S
C872 C874 1.395 . S
C872 C875 1.403 . S
H873 C879 0.930 . S
C874 H860 0.930 . S
C874 C872 1.395 . S
C874 C877 1.403 . S
C875 C872 1.403 . S
C875 C876 1.524 . S
C875 C879 1.400 . S
C876 H861 0.960 . S
C876 H862 0.960 . S
C876 H863 0.960 . S
C876 C875 1.524 . S
C877 C874 1.403 . S
C877 C878 1.392 . S
C877 C881 1.495 . S
C878 C877 1.392 . S
C878 C879 1.385 . S
C878 C880 1.478 . S
C879 H873 0.930 . S
C879 C875 1.400 . S
C879 C878 1.385 . S
C880 C878 1.478 . S
C880 C882 1.381 . S
C880 C886 1.383 . S
C881 C877 1.495 . S
C881 H887 0.959 . S
C881 H888 0.961 . S
C881 H889 0.960 . S
C882 C880 1.381 . S
C882 C883 1.394 . S
C882 H890 0.930 . S
C883 C882 1.394 . S
C883 C884 1.383 . S
C883 H891 0.929 . S
C884 C883 1.383 . S
C884 C885 1.377 . S
C885 H869 0.930 1_554 S
C885 C884 1.377 . S
C885 C886 1.379 . S
C886 H870 0.931 . S
C886 C880 1.383 . S
C886 C885 1.379 . S
H887 C881 0.959 . S
H888 C881 0.961 . S
H889 C881 0.960 . S
H890 C882 0.930 . S
H891 C883 0.929 . S
H892 C900 0.929 1_655 S
H893 C902 0.903 1_655 S
H894 C904 0.930 . S
H895 C907 0.931 1_556 S
H896 C910 0.930 . S
H897 C912 0.960 . S
H898 C912 0.960 . S
H899 C912 0.960 1_455 S
C900 H892 0.929 1_455 S
C900 C901 1.377 . S
C900 C902 1.389 . S
C901 C900 1.377 . S
C901 C907 1.390 . S
C902 H893 0.903 1_455 S
C902 C900 1.389 . S
C902 C903 1.397 . S
C903 C902 1.397 . S
C903 C904 1.400 . S
C903 C908 1.490 . S
C904 H894 0.930 . S
C904 C903 1.400 . S
C904 C907 1.386 . S
H905 C921 0.930 . S
H906 C922 0.931 . S
C907 H895 0.931 1_554 S
C907 C901 1.390 . S
C907 C904 1.386 . S
C908 C903 1.490 . S
C908 C910 1.395 . S
C908 C911 1.414 . S
H909 C915 0.932 1_655 S
C910 H896 0.930 . S
C910 C908 1.395 . S
C910 C913 1.403 . S
C911 C908 1.414 . S
C911 C912 1.513 1_455 S
C911 C915 1.400 . S
C912 H897 0.960 . S
C912 H898 0.960 . S
C912 H899 0.960 1_655 S
C912 C911 1.513 1_655 S
C913 C910 1.403 . S
C913 C914 1.392 . S
C913 C917 1.495 . S
C914 C913 1.392 . S
C914 C915 1.383 . S
C914 C916 1.478 . S
C915 H909 0.932 1_455 S
C915 C911 1.400 . S
C915 C914 1.383 . S
C916 C914 1.478 . S
C916 C918 1.381 1_455 S
C916 C922 1.383 . S
C917 C913 1.495 . S
C917 H923 0.959 . S
C917 H924 0.961 . S
C917 H925 0.960 . S
C918 C916 1.381 1_655 S
C918 C919 1.394 . S
C918 H926 0.930 . S
C919 C918 1.394 . S
C919 C920 1.353 1_655 S
C919 H927 0.929 . S
C920 C919 1.353 1_455 S
C920 C921 1.413 . S
C921 H905 0.930 . S
C921 C920 1.413 . S
C921 C922 1.379 . S
C922 H906 0.931 . S
C922 C916 1.383 . S
C922 C921 1.379 . S
H923 C917 0.959 . S
H924 C917 0.961 . S
H925 C917 0.960 . S
H926 C918 0.930 . S
H927 C919 0.929 . S
H928 C936 0.929 . S
H929 C938 0.930 . S
H930 C940 0.930 . S
H931 C943 0.929 . S
H932 C946 0.930 . S
H933 C948 0.960 . S
H934 C948 0.960 . S
H935 C948 0.960 1_565 S
C936 H928 0.929 . S
C936 C937 1.377 . S
C936 C938 1.384 . S
C937 C936 1.377 . S
C937 C943 1.390 1_545 S
C938 H929 0.930 . S
C938 C936 1.384 . S
C938 C939 1.372 1_545 S
C939 C938 1.372 1_565 S
C939 C940 1.400 . S
C939 C944 1.490 . S
C940 H930 0.930 . S
C940 C939 1.400 . S
C940 C943 1.386 . S
H941 C957 0.930 . S
H942 C958 0.931 . S
C943 H931 0.929 . S
C943 C937 1.390 1_565 S
C943 C940 1.386 . S
C944 C939 1.490 . S
C944 C946 1.395 . S
C944 C947 1.403 . S
H945 C951 0.930 . S
C946 H932 0.930 . S
C946 C944 1.395 . S
C946 C949 1.403 . S
C947 C944 1.403 . S
C947 C948 1.524 1_565 S
C947 C951 1.400 . S
C948 H933 0.960 . S
C948 H934 0.960 . S
C948 H935 0.960 1_545 S
C948 C947 1.524 1_545 S
C949 C946 1.403 . S
C949 C950 1.392 . S
C949 C953 1.495 . S
C950 C949 1.392 . S
C950 C951 1.385 . S
C950 C952 1.478 . S
C951 H945 0.930 . S
C951 C947 1.400 . S
C951 C950 1.385 . S
C952 C950 1.478 . S
C952 C954 1.381 1_565 S
C952 C958 1.383 . S
C953 C949 1.495 . S
C953 H959 0.959 . S
C953 H960 0.961 . S
C953 H961 0.960 . S
C954 C952 1.381 1_545 S
C954 C955 1.394 1_545 S
C954 H962 0.930 . S
C955 C954 1.394 1_565 S
C955 C956 1.387 . S
C955 H963 0.926 1_565 S
C956 C955 1.387 . S
C956 C957 1.377 . S
C957 H941 0.930 . S
C957 C956 1.377 . S
C957 C958 1.379 . S
C958 H942 0.931 . S
C958 C952 1.383 . S
C958 C957 1.379 . S
H959 C953 0.959 . S
H960 C953 0.961 . S
H961 C953 0.960 . S
H962 C954 0.930 . S
H963 C955 0.926 1_545 S
H964 C972 0.929 . S
H965 C974 0.930 . S
H966 C976 0.930 . S
H967 C979 0.929 . S
H968 C982 0.930 . S
H969 C984 0.960 . S
H970 C984 0.960 . S
H971 C984 0.960 . S
C972 H964 0.929 . S
C972 C973 1.377 . S
C972 C974 1.384 . S
C973 C972 1.377 . S
C973 C979 1.390 . S
C974 H965 0.930 . S
C974 C972 1.384 . S
C974 C975 1.372 . S
C975 C974 1.372 . S
C975 C976 1.400 . S
C975 C980 1.490 . S
C976 H966 0.930 . S
C976 C975 1.400 . S
C976 C979 1.386 . S
H977 C993 0.930 . S
H978 C994 0.931 . S
C979 H967 0.929 . S
C979 C973 1.390 . S
C979 C976 1.386 . S
C980 C975 1.490 . S
C980 C982 1.395 . S
C980 C983 1.403 . S
H981 C987 0.930 . S
C982 H968 0.930 . S
C982 C980 1.395 . S
C982 C985 1.403 . S
C983 C980 1.403 . S
C983 C984 1.524 . S
C983 C987 1.400 . S
C984 H969 0.960 . S
C984 H970 0.960 . S
C984 H971 0.960 . S
C984 C983 1.524 . S
C985 C982 1.403 . S
C985 C986 1.392 . S
C985 C989 1.495 . S
C986 C985 1.392 . S
C986 C987 1.385 . S
C986 C988 1.478 . S
C987 H981 0.930 . S
C987 C983 1.400 . S
C987 C986 1.385 . S
C988 C986 1.478 . S
C988 C990 1.381 . S
C988 C994 1.383 . S
C989 C985 1.495 . S
C989 H995 0.959 . S
C989 H996 0.961 . S
C989 H997 0.960 . S
C990 C988 1.381 . S
C990 C991 1.394 . S
C990 H998 0.930 . S
C991 C990 1.394 . S
C991 C992 1.383 . S
C991 H999 0.929 . S
C992 C991 1.383 . S
C992 C993 1.377 . S
C993 H977 0.930 . S
C993 C992 1.377 . S
C993 C994 1.379 . S
C994 H978 0.931 . S
C994 C988 1.383 . S
C994 C993 1.379 . S
H995 C989 0.959 . S
H996 C989 0.961 . S
H997 C989 0.960 . S
H998 C990 0.930 . S
H999 C991 0.929 . S
H1000 C1008 0.929 . S
H1001 C1010 0.930 . S
H1002 C1012 0.930 . S
H1003 C1015 0.929 . S
H1004 C1018 0.930 . S
H1005 C1020 0.960 . S
H1006 C1020 0.960 . S
H1007 C1020 0.960 . S
C1008 H1000 0.929 . S
C1008 C1009 1.377 . S
C1008 C1010 1.384 . S
C1009 C1008 1.377 . S
C1009 C1015 1.390 . S
C1010 H1001 0.930 . S
C1010 C1008 1.384 . S
C1010 C1011 1.372 . S
C1011 C1010 1.372 . S
C1011 C1012 1.400 . S
C1011 C1016 1.490 . S
C1012 H1002 0.930 . S
C1012 C1011 1.400 . S
C1012 C1015 1.386 . S
H1013 C1029 0.930 . S
H1014 C1030 0.931 . S
C1015 H1003 0.929 . S
C1015 C1009 1.390 . S
C1015 C1012 1.386 . S
C1016 C1011 1.490 . S
C1016 C1018 1.395 . S
C1016 C1019 1.403 . S
H1017 C1023 0.930 . S
C1018 H1004 0.930 . S
C1018 C1016 1.395 . S
C1018 C1021 1.403 . S
C1019 C1016 1.403 . S
C1019 C1020 1.524 . S
C1019 C1023 1.400 . S
C1020 H1005 0.960 . S
C1020 H1006 0.960 . S
C1020 H1007 0.960 . S
C1020 C1019 1.524 . S
C1021 C1018 1.403 . S
C1021 C1022 1.392 . S
C1021 C1025 1.495 . S
C1022 C1021 1.392 . S
C1022 C1023 1.385 . S
C1022 C1024 1.478 . S
C1023 H1017 0.930 . S
C1023 C1019 1.400 . S
C1023 C1022 1.385 . S
C1024 C1022 1.478 . S
C1024 C1026 1.381 . S
C1024 C1030 1.383 . S
C1025 C1021 1.495 . S
C1025 H1031 0.959 . S
C1025 H1032 0.961 . S
C1025 H1033 0.960 . S
C1026 C1024 1.381 . S
C1026 C1027 1.394 . S
C1026 H1034 0.930 . S
C1027 C1026 1.394 . S
C1027 C1028 1.383 . S
C1027 H1035 0.929 . S
C1028 C1027 1.383 . S
C1028 C1029 1.377 . S
C1029 H1013 0.930 . S
C1029 C1028 1.377 . S
C1029 C1030 1.379 . S
C1030 H1014 0.931 . S
C1030 C1024 1.383 . S
C1030 C1029 1.379 . S
H1031 C1025 0.959 . S
H1032 C1025 0.961 . S
H1033 C1025 0.960 . S
H1034 C1026 0.930 . S
H1035 C1027 0.929 . S
H1036 C1044 0.929 . S
H1037 C1046 0.930 . S
H1038 C1048 0.930 . S
H1039 C1051 0.926 1_455 S
H1040 C1054 0.930 . S
H1041 C1056 0.960 . S
H1042 C1056 0.960 . S
H1043 C1056 0.960 . S
C1044 H1036 0.929 . S
C1044 C1045 1.381 . S
C1044 C1046 1.384 . S
C1045 C1044 1.381 . S
C1045 C1051 1.390 . S
C1046 H1037 0.930 . S
C1046 C1044 1.384 . S
C1046 C1047 1.372 . S
C1047 C1046 1.372 . S
C1047 C1048 1.400 . S
C1047 C1052 1.490 . S
C1048 H1038 0.930 . S
C1048 C1047 1.400 . S
C1048 C1051 1.391 . S
H1049 C1065 0.930 . S
H1050 C1066 0.931 . S
C1051 H1039 0.926 1_655 S
C1051 C1045 1.390 . S
C1051 C1048 1.391 . S
C1052 C1047 1.490 . S
C1052 C1054 1.395 1_655 S
C1052 C1055 1.403 . S
H1053 C1059 0.930 . S
C1054 H1040 0.930 . S
C1054 C1052 1.395 1_455 S
C1054 C1057 1.403 . S
C1055 C1052 1.403 . S
C1055 C1056 1.524 . S
C1055 C1059 1.400 . S
C1056 H1041 0.960 . S
C1056 H1042 0.960 . S
C1056 H1043 0.960 . S
C1056 C1055 1.524 . S
C1057 C1054 1.403 . S
C1057 C1058 1.392 1_455 S
C1057 C1061 1.495 . S
C1058 C1057 1.392 1_655 S
C1058 C1059 1.385 . S
C1058 C1060 1.478 . S
C1059 H1053 0.930 . S
C1059 C1055 1.400 . S
C1059 C1058 1.385 . S
C1060 C1058 1.478 . S
C1060 C1062 1.381 . S
C1060 C1066 1.383 . S
C1061 C1057 1.495 . S
C1061 H1067 0.959 . S
C1061 H1068 0.961 . S
C1061 H1069 0.960 . S
C1062 C1060 1.381 . S
C1062 C1063 1.394 . S
C1062 H1070 0.930 . S
C1063 C1062 1.394 . S
C1063 C1064 1.383 . S
C1063 H1071 0.929 . S
C1064 C1063 1.383 . S
C1064 C1065 1.377 . S
C1065 H1049 0.930 . S
C1065 C1064 1.377 . S
C1065 C1066 1.379 . S
C1066 H1050 0.931 . S
C1066 C1060 1.383 . S
C1066 C1065 1.379 . S
H1067 C1061 0.959 . S
H1068 C1061 0.961 . S
H1069 C1061 0.960 . S
H1070 C1062 0.930 . S
H1071 C1063 0.929 . S
H1072 C1080 0.929 . S
H1073 C1082 0.930 . S
H1074 C1084 0.930 . S
H1075 C1087 0.929 . S
H1076 C1090 0.930 . S
H1077 C1092 0.960 . S
H1078 C1092 0.960 . S
H1079 C1092 0.960 . S
C1080 H1072 0.929 . S
C1080 C1081 1.400 . S
C1080 C1082 1.384 . S
C1081 C1080 1.400 . S
C1081 C1087 1.368 1_546 S
C1082 H1073 0.930 . S
C1082 C1080 1.384 . S
C1082 C1083 1.399 . S
C1083 C1082 1.399 . S
C1083 C1084 1.373 1_546 S
C1083 C1088 1.493 . S
C1084 H1074 0.930 . S
C1084 C1083 1.373 1_564 S
C1084 C1087 1.386 . S
H1085 C1101 0.930 . S
H1086 C1102 0.931 . S
C1087 H1075 0.929 . S
C1087 C1081 1.368 1_564 S
C1087 C1084 1.386 . S
C1088 C1083 1.493 . S
C1088 C1090 1.399 . S
C1088 C1091 1.403 1_545 S
H1089 C1095 0.930 . S
C1090 H1076 0.930 . S
C1090 C1088 1.399 . S
C1090 C1093 1.400 1_556 S
C1091 C1088 1.403 1_565 S
C1091 C1092 1.524 . S
C1091 C1095 1.400 . S
C1092 H1077 0.960 . S
C1092 H1078 0.960 . S
C1092 H1079 0.960 . S
C1092 C1091 1.524 . S
C1093 C1090 1.400 1_554 S
C1093 C1094 1.392 . S
C1093 C1097 1.495 . S
C1094 C1093 1.392 . S
C1094 C1095 1.385 1_544 S
C1094 C1096 1.478 . S
C1095 H1089 0.930 . S
C1095 C1091 1.400 . S
C1095 C1094 1.385 1_566 S
C1096 C1094 1.478 . S
C1096 C1098 1.381 1_554 S
C1096 C1102 1.383 1_545 S
C1097 C1093 1.495 . S
C1097 H1103 0.959 . S
C1097 H1104 0.961 . S
C1097 H1105 0.960 1_554 S
C1098 C1096 1.381 1_556 S
C1098 C1099 1.394 . S
C1098 H1106 0.930 . S
C1099 C1098 1.394 . S
C1099 C1100 1.394 1_556 S
C1099 H1107 0.929 . S
C1100 C1099 1.394 1_554 S
C1100 C1101 1.368 1_545 S
C1101 H1085 0.930 . S
C1101 C1100 1.368 1_565 S
C1101 C1102 1.379 . S
C1102 H1086 0.931 . S
C1102 C1096 1.383 1_565 S
C1102 C1101 1.379 . S
H1103 C1097 0.959 . S
H1104 C1097 0.961 . S
H1105 C1097 0.960 1_556 S
H1106 C1098 0.930 . S
H1107 C1099 0.929 . S
H1108 C1116 0.929 . S
H1109 C1118 0.930 . S
H1110 C1120 0.930 1_554 S
H1111 C1123 0.929 . S
H1112 C1126 0.930 . S
H1113 C1128 0.960 . S
H1114 C1128 0.960 . S
H1115 C1128 0.960 . S
C1116 H1108 0.929 . S
C1116 C1117 1.377 . S
C1116 C1118 1.384 . S
C1117 C1116 1.377 . S
C1117 C1123 1.390 . S
C1118 H1109 0.930 . S
C1118 C1116 1.384 . S
C1118 C1119 1.372 . S
C1119 C1118 1.372 . S
C1119 C1120 1.400 . S
C1119 C1124 1.490 . S
C1120 H1110 0.930 1_556 S
C1120 C1119 1.400 . S
C1120 C1123 1.386 . S
H1121 C1137 0.930 . S
H1122 C1138 0.931 . S
C1123 H1111 0.929 . S
C1123 C1117 1.390 . S
C1123 C1120 1.386 . S
C1124 C1119 1.490 . S
C1124 C1126 1.395 . S
C1124 C1127 1.403 1_556 S
H1125 C1131 0.930 . S
C1126 H1112 0.930 . S
C1126 C1124 1.395 . S
C1126 C1129 1.403 . S
C1127 C1124 1.403 1_554 S
C1127 C1128 1.524 . S
C1127 C1131 1.400 . S
C1128 H1113 0.960 . S
C1128 H1114 0.960 . S
C1128 H1115 0.960 . S
C1128 C1127 1.524 . S
C1129 C1126 1.403 . S
C1129 C1130 1.405 . S
C1129 C1133 1.495 . S
C1130 C1129 1.405 . S
C1130 C1131 1.375 1_556 S
C1130 C1132 1.475 1_556 S
C1131 H1125 0.930 . S
C1131 C1127 1.400 . S
C1131 C1130 1.375 1_554 S
C1132 C1130 1.475 1_554 S
C1132 C1134 1.381 . S
C1132 C1138 1.383 . S
C1133 C1129 1.495 . S
C1133 H1139 0.959 . S
C1133 H1140 0.961 . S
C1133 H1141 0.960 . S
C1134 C1132 1.381 . S
C1134 C1135 1.394 . S
C1134 H1142 0.930 1_554 S
C1135 C1134 1.394 . S
C1135 C1136 1.383 . S
C1135 H1143 0.929 . S
C1136 C1135 1.383 . S
C1136 C1137 1.377 . S
C1137 H1121 0.930 . S
C1137 C1136 1.377 . S
C1137 C1138 1.379 . S
C1138 H1122 0.931 . S
C1138 C1132 1.383 . S
C1138 C1137 1.379 . S
H1139 C1133 0.959 . S
H1140 C1133 0.961 . S
H1141 C1133 0.960 . S
H1142 C1134 0.930 1_556 S
H1143 C1135 0.929 . S
H1144 C1152 0.929 . S
H1145 C1154 0.930 . S
H1146 C1156 0.930 . S
H1147 C1159 0.929 . S
H1148 C1162 0.930 . S
H1149 C1164 0.960 1_455 S
H1150 C1164 0.960 . S
H1151 C1164 0.960 . S
C1152 H1144 0.929 . S
C1152 C1153 1.377 . S
C1152 C1154 1.384 . S
C1153 C1152 1.377 . S
C1153 C1159 1.390 . S
C1154 H1145 0.930 . S
C1154 C1152 1.384 . S
C1154 C1155 1.372 . S
C1155 C1154 1.372 . S
C1155 C1156 1.400 . S
C1155 C1160 1.490 . S
C1156 H1146 0.930 . S
C1156 C1155 1.400 . S
C1156 C1159 1.386 . S
H1157 C1173 0.930 . S
H1158 C1174 0.931 . S
C1159 H1147 0.929 . S
C1159 C1153 1.390 . S
C1159 C1156 1.386 . S
C1160 C1155 1.490 . S
C1160 C1162 1.395 1_554 S
C1160 C1163 1.403 . S
H1161 C1167 0.930 . S
C1162 H1148 0.930 . S
C1162 C1160 1.395 1_556 S
C1162 C1165 1.403 1_655 S
C1163 C1160 1.403 . S
C1163 C1164 1.524 . S
C1163 C1167 1.400 1_655 S
C1164 H1149 0.960 1_655 S
C1164 H1150 0.960 . S
C1164 H1151 0.960 . S
C1164 C1163 1.524 . S
C1165 C1162 1.403 1_455 S
C1165 C1166 1.392 . S
C1165 C1169 1.495 . S
C1166 C1165 1.392 . S
C1166 C1167 1.385 1_556 S
C1166 C1168 1.478 . S
C1167 H1161 0.930 . S
C1167 C1163 1.400 1_455 S
C1167 C1166 1.385 1_554 S
C1168 C1166 1.478 . S
C1168 C1170 1.381 . S
C1168 C1174 1.383 . S
C1169 C1165 1.495 . S
C1169 H1175 0.959 1_455 S
C1169 H1176 0.961 . S
C1169 H1177 0.960 . S
C1170 C1168 1.381 . S
C1170 C1171 1.394 . S
C1170 H1178 0.930 . S
C1171 C1170 1.394 . S
C1171 C1172 1.383 . S
C1171 H1179 0.929 . S
C1172 C1171 1.383 . S
C1172 C1173 1.377 . S
C1173 H1157 0.930 . S
C1173 C1172 1.377 . S
C1173 C1174 1.379 . S
C1174 H1158 0.931 . S
C1174 C1168 1.383 . S
C1174 C1173 1.379 . S
H1175 C1169 0.959 1_655 S
H1176 C1169 0.961 . S
H1177 C1169 0.960 . S
H1178 C1170 0.930 . S
H1179 C1171 0.929 . S
H1180 C1188 0.929 . S
H1181 C1190 0.930 . S
H1182 C1192 0.930 . S
H1183 C1195 0.929 . S
H1184 C1198 0.930 . S
H1185 C1200 0.960 . S
H1186 C1200 0.960 . S
H1187 C1200 0.960 . S
C1188 H1180 0.929 . S
C1188 C1189 1.358 1_655 S
C1188 C1190 1.384 . S
C1189 C1188 1.358 1_455 S
C1189 C1195 1.409 . S
C1190 H1181 0.930 . S
C1190 C1188 1.384 . S
C1190 C1191 1.411 . S
C1191 C1190 1.411 . S
C1191 C1192 1.359 1_655 S
C1191 C1196 1.492 . S
C1192 H1182 0.930 . S
C1192 C1191 1.359 1_455 S
C1192 C1195 1.386 . S
H1193 C1209 0.930 . S
H1194 C1210 0.927 1_556 S
C1195 H1183 0.929 . S
C1195 C1189 1.409 . S
C1195 C1192 1.386 . S
C1196 C1191 1.492 . S
C1196 C1198 1.395 . S
C1196 C1199 1.403 1_656 S
H1197 C1203 0.930 . S
C1198 H1184 0.930 . S
C1198 C1196 1.395 . S
C1198 C1201 1.403 1_545 S
C1199 C1196 1.403 1_454 S
C1199 C1200 1.524 . S
C1199 C1203 1.400 1_545 S
C1200 H1185 0.960 . S
C1200 H1186 0.960 . S
C1200 H1187 0.960 . S
C1200 C1199 1.524 . S
C1201 C1198 1.403 1_565 S
C1201 C1202 1.392 1_556 S
C1201 C1205 1.495 . S
C1202 C1201 1.392 1_554 S
C1202 C1203 1.385 1_655 S
C1202 C1204 1.478 . S
C1203 H1197 0.930 . S
C1203 C1199 1.400 1_565 S
C1203 C1202 1.385 1_455 S
C1204 C1202 1.478 . S
C1204 C1206 1.381 . S
C1204 C1210 1.384 1_655 S
C1205 C1201 1.495 . S
C1205 H1211 0.959 . S
C1205 H1212 0.961 . S
C1205 H1213 0.960 . S
C1206 C1204 1.381 . S
C1206 C1207 1.394 . S
C1206 H1214 0.930 . S
C1207 C1206 1.394 . S
C1207 C1208 1.383 . S
C1207 H1215 0.929 . S
C1208 C1207 1.383 . S
C1208 C1209 1.377 1_655 S
C1209 H1193 0.930 . S
C1209 C1208 1.377 1_455 S
C1209 C1210 1.382 . S
C1210 H1194 0.927 1_554 S
C1210 C1204 1.384 1_455 S
C1210 C1209 1.382 . S
H1211 C1205 0.959 . S
H1212 C1205 0.961 . S
H1213 C1205 0.960 . S
H1214 C1206 0.930 . S
H1215 C1207 0.929 . S
H1216 C1224 0.929 . S
H1217 C1226 0.930 . S
H1218 C1228 0.930 . S
H1219 C1231 0.929 . S
H1220 C1234 0.930 . S
H1221 C1236 0.960 . S
H1222 C1236 0.960 1_545 S
H1223 C1236 0.960 . S
C1224 H1216 0.929 . S
C1224 C1225 1.418 . S
C1224 C1226 1.384 . S
C1225 C1224 1.418 . S
C1225 C1231 1.349 1_545 S
C1226 H1217 0.930 . S
C1226 C1224 1.384 . S
C1226 C1227 1.372 . S
C1227 C1226 1.372 . S
C1227 C1228 1.400 1_545 S
C1227 C1232 1.490 . S
C1228 H1218 0.930 . S
C1228 C1227 1.400 1_565 S
C1228 C1231 1.386 . S
H1229 C1245 0.930 . S
H1230 C1246 0.931 . S
C1231 H1219 0.929 . S
C1231 C1225 1.349 1_565 S
C1231 C1228 1.386 . S
C1232 C1227 1.490 . S
C1232 C1234 1.395 . S
C1232 C1235 1.403 1_545 S
H1233 C1239 0.930 . S
C1234 H1220 0.930 . S
C1234 C1232 1.395 . S
C1234 C1237 1.403 1_455 S
C1235 C1232 1.403 1_565 S
C1235 C1236 1.524 . S
C1235 C1239 1.400 1_455 S
C1236 H1221 0.960 . S
C1236 H1222 0.960 1_565 S
C1236 H1223 0.960 . S
C1236 C1235 1.524 . S
C1237 C1234 1.403 1_655 S
C1237 C1238 1.392 . S
C1237 C1241 1.495 . S
C1238 C1237 1.392 . S
C1238 C1239 1.385 1_545 S
C1238 C1240 1.480 . S
C1239 H1233 0.930 . S
C1239 C1235 1.400 1_655 S
C1239 C1238 1.385 1_565 S
C1240 C1238 1.480 . S
C1240 C1242 1.416 . S
C1240 C1246 1.347 1_545 S
C1241 C1237 1.495 . S
C1241 H1247 0.959 . S
C1241 H1248 0.968 . S
C1241 H1249 0.960 . S
C1242 C1240 1.416 . S
C1242 C1243 1.394 . S
C1242 H1250 0.930 . S
C1243 C1242 1.394 . S
C1243 C1244 1.359 1_545 S
C1243 H1251 0.929 . S
C1244 C1243 1.359 1_565 S
C1244 C1245 1.400 . S
C1245 H1229 0.930 . S
C1245 C1244 1.400 . S
C1245 C1246 1.379 . S
C1246 H1230 0.931 . S
C1246 C1240 1.347 1_565 S
C1246 C1245 1.379 . S
H1247 C1241 0.959 . S
H1248 C1241 0.968 . S
H1249 C1241 0.960 . S
H1250 C1242 0.930 . S
H1251 C1243 0.929 . S
H1252 C1260 0.929 . S
H1253 C1262 0.930 . S
H1254 C1264 0.930 . S
H1255 C1267 0.929 . S
H1256 C1270 0.930 . S
H1257 C1272 0.960 . S
H1258 C1272 0.960 . S
H1259 C1272 0.960 . S
C1260 H1252 0.929 . S
C1260 C1261 1.377 . S
C1260 C1262 1.384 . S
C1261 C1260 1.377 . S
C1261 C1267 1.390 . S
C1262 H1253 0.930 . S
C1262 C1260 1.384 . S
C1262 C1263 1.372 . S
C1263 C1262 1.372 . S
C1263 C1264 1.400 . S
C1263 C1268 1.490 . S
C1264 H1254 0.930 . S
C1264 C1263 1.400 . S
C1264 C1267 1.386 . S
H1265 C1281 0.930 . S
H1266 C1282 0.931 . S
C1267 H1255 0.929 . S
C1267 C1261 1.390 . S
C1267 C1264 1.386 . S
C1268 C1263 1.490 . S
C1268 C1270 1.395 . S
C1268 C1271 1.403 . S
H1269 C1275 0.930 . S
C1270 H1256 0.930 . S
C1270 C1268 1.395 . S
C1270 C1273 1.403 1_565 S
C1271 C1268 1.403 . S
C1271 C1272 1.524 . S
C1271 C1275 1.400 1_565 S
C1272 H1257 0.960 . S
C1272 H1258 0.960 . S
C1272 H1259 0.960 . S
C1272 C1271 1.524 . S
C1273 C1270 1.403 1_545 S
C1273 C1274 1.392 . S
C1273 C1277 1.495 . S
C1274 C1273 1.392 . S
C1274 C1275 1.385 . S
C1274 C1276 1.478 . S
C1275 H1269 0.930 . S
C1275 C1271 1.400 1_545 S
C1275 C1274 1.385 . S
C1276 C1274 1.478 . S
C1276 C1278 1.381 . S
C1276 C1282 1.383 . S
C1277 C1273 1.495 . S
C1277 H1283 0.959 . S
C1277 H1284 0.961 . S
C1277 H1285 0.960 . S
C1278 C1276 1.381 . S
C1278 C1279 1.394 . S
C1278 H1286 0.930 . S
C1279 C1278 1.394 . S
C1279 C1280 1.383 . S
C1279 H1287 0.929 . S
C1280 C1279 1.383 . S
C1280 C1281 1.377 . S
C1281 H1265 0.930 . S
C1281 C1280 1.377 . S
C1281 C1282 1.379 . S
C1282 H1266 0.931 . S
C1282 C1276 1.383 . S
C1282 C1281 1.379 . S
H1283 C1277 0.959 . S
H1284 C1277 0.961 . S
H1285 C1277 0.960 . S
H1286 C1278 0.930 . S
H1287 C1279 0.929 . S
H1288 C1296 0.929 . S
H1289 C1298 0.930 . S
H1290 C1300 0.930 . S
H1291 C1303 0.929 . S
H1292 C1306 0.930 . S
H1293 C1308 0.960 . S
H1294 C1308 0.960 . S
H1295 C1308 0.960 . S
C1296 H1288 0.929 . S
C1296 C1297 1.377 . S
C1296 C1298 1.384 . S
C1297 C1296 1.377 . S
C1297 C1303 1.390 . S
C1298 H1289 0.930 . S
C1298 C1296 1.384 . S
C1298 C1299 1.372 . S
C1299 C1298 1.372 . S
C1299 C1300 1.400 . S
C1299 C1304 1.490 . S
C1300 H1290 0.930 . S
C1300 C1299 1.400 . S
C1300 C1303 1.386 . S
H1301 C1317 0.930 . S
H1302 C1318 0.931 . S
C1303 H1291 0.929 . S
C1303 C1297 1.390 . S
C1303 C1300 1.386 . S
C1304 C1299 1.490 . S
C1304 C1306 1.395 . S
C1304 C1307 1.403 . S
H1305 C1311 0.930 . S
C1306 H1292 0.930 . S
C1306 C1304 1.395 . S
C1306 C1309 1.403 . S
C1307 C1304 1.403 . S
C1307 C1308 1.524 . S
C1307 C1311 1.400 . S
C1308 H1293 0.960 . S
C1308 H1294 0.960 . S
C1308 H1295 0.960 . S
C1308 C1307 1.524 . S
C1309 C1306 1.403 . S
C1309 C1310 1.392 . S
C1309 C1313 1.495 . S
C1310 C1309 1.392 . S
C1310 C1311 1.385 . S
C1310 C1312 1.478 . S
C1311 H1305 0.930 . S
C1311 C1307 1.400 . S
C1311 C1310 1.385 . S
C1312 C1310 1.478 . S
C1312 C1314 1.381 . S
C1312 C1318 1.383 . S
C1313 C1309 1.495 . S
C1313 H1319 0.959 . S
C1313 H1320 0.961 . S
C1313 H1321 0.960 . S
C1314 C1312 1.381 . S
C1314 C1315 1.394 . S
C1314 H1322 0.930 . S
C1315 C1314 1.394 . S
C1315 C1316 1.383 . S
C1315 H1323 0.929 . S
C1316 C1315 1.383 . S
C1316 C1317 1.377 . S
C1317 H1301 0.930 . S
C1317 C1316 1.377 . S
C1317 C1318 1.379 . S
C1318 H1302 0.931 . S
C1318 C1312 1.383 . S
C1318 C1317 1.379 . S
H1319 C1313 0.959 . S
H1320 C1313 0.961 . S
H1321 C1313 0.960 . S
H1322 C1314 0.930 . S
H1323 C1315 0.929 . S
H1324 C1332 0.929 . S
H1325 C1334 0.930 . S
H1326 C1336 0.930 . S
H1327 C1339 0.929 . S
H1328 C1342 0.930 . S
H1329 C1344 0.960 . S
H1330 C1344 0.960 . S
H1331 C1344 0.960 . S
C1332 H1324 0.929 . S
C1332 C1333 1.377 . S
C1332 C1334 1.384 . S
C1333 C1332 1.377 . S
C1333 C1339 1.390 1_655 S
C1334 H1325 0.930 . S
C1334 C1332 1.384 . S
C1334 C1335 1.382 . S
C1335 C1334 1.382 . S
C1335 C1336 1.392 1_655 S
C1335 C1340 1.490 . S
C1336 H1326 0.930 . S
C1336 C1335 1.392 1_455 S
C1336 C1339 1.386 . S
H1337 C1353 0.930 . S
H1338 C1354 0.931 . S
C1339 H1327 0.929 . S
C1339 C1333 1.390 1_455 S
C1339 C1336 1.386 . S
C1340 C1335 1.490 . S
C1340 C1342 1.398 1_655 S
C1340 C1343 1.400 . S
H1341 C1347 0.930 . S
C1342 H1328 0.930 . S
C1342 C1340 1.398 1_455 S
C1342 C1345 1.403 . S
C1343 C1340 1.400 . S
C1343 C1344 1.524 . S
C1343 C1347 1.400 . S
C1344 H1329 0.960 . S
C1344 H1330 0.960 . S
C1344 H1331 0.960 . S
C1344 C1343 1.524 . S
C1345 C1342 1.403 . S
C1345 C1346 1.392 . S
C1345 C1349 1.495 . S
C1346 C1345 1.392 . S
C1346 C1347 1.385 1_455 S
C1346 C1348 1.478 . S
C1347 H1341 0.930 . S
C1347 C1343 1.400 . S
C1347 C1346 1.385 1_655 S
C1348 C1346 1.478 . S
C1348 C1350 1.381 1_455 S
C1348 C1354 1.383 . S
C1349 C1345 1.495 . S
C1349 H1355 0.959 . S
C1349 H1356 0.961 . S
C1349 H1357 0.960 . S
C1350 C1348 1.381 1_655 S
C1350 C1351 1.394 . S
C1350 H1358 0.930 . S
C1351 C1350 1.394 . S
C1351 C1352 1.383 1_655 S
C1351 H1359 0.929 . S
C1352 C1351 1.383 1_455 S
C1352 C1353 1.377 . S
C1353 H1337 0.930 . S
C1353 C1352 1.377 . S
C1353 C1354 1.379 . S
C1354 H1338 0.931 . S
C1354 C1348 1.383 . S
C1354 C1353 1.379 . S
H1355 C1349 0.959 . S
H1356 C1349 0.961 . S
H1357 C1349 0.960 . S
H1358 C1350 0.930 . S
H1359 C1351 0.929 . S
C217 C66 0.539 . S
C236 C10 0.454 . S
C253 C88 0.590 . S
C272 C14 0.591 . S
C289 C36 0.451 . S
C308 C92 0.552 . S
C325 C40 0.402 . S
C344 C62 0.327 . S
C361 C114 0.508 . S
C380 C179 0.574 . S
C397 C192 0.618 . S
C416 C127 0.660 . S
C433 C205 0.490 . S
C452 C140 0.471 . S
C469 C153 0.422 . S
C488 C166 0.408 . S
C505 C5 2.141 1_556 S
C524 C157 2.125 1_565 S
C541 C170 2.194 . S
C560 C16 2.101 1_556 S
C577 C31 2.302 1_556 S
C596 C183 2.288 . S
C613 C42 2.111 1_556 S
C632 C196 2.185 1_655 S
C649 C57 2.200 . S
C668 C105 2.191 . S
C685 C68 2.207 . S
C704 C118 2.298 . S
C721 C83 2.213 . S
C740 C131 2.200 . S
C757 C94 2.051 . S
C776 C144 2.116 1_455 S
C793 C53 2.092 . S
C812 C109 2.029 1_554 S
C829 C75 2.197 . S
C848 C122 2.109 1_554 S
C865 C79 2.274 . S
C884 C135 2.179 1_554 S
C901 C148 2.104 1_554 S
C920 C101 2.185 1_455 S
C937 C1 2.156 1_545 S
C956 C161 2.114 . S
C973 C174 2.208 . S
C992 C23 2.281 . S
C1009 C187 2.129 . S
C1028 C27 2.168 . S
C1045 C49 2.123 1_655 S
C1064 C200 2.029 . S
C1081 C107 1.410 1_545 S
C1100 C3 1.396 1_545 S
C1117 C120 1.429 . S
C1136 C18 1.448 . S
C1153 C29 1.635 . S
C1172 C133 1.622 . S
C1189 C146 1.619 1_455 S
C1208 C44 1.638 1_655 S
C1225 C55 1.602 . S
C1244 C159 1.629 1_565 S
C1261 C172 1.634 . S
C1280 C70 1.643 . S
C1297 C185 1.434 . S
C1316 C81 1.426 . S
C1333 C198 1.424 1_655 S
C1352 C96 1.418 1_455 S
