# Generated by pormake.
# Topology bcs, (6)-cn, num edge types: 1
# Building blocks:
#     Node 0, Type 0, BuildingBlock: FUNLAD_clean_sbu_0, # of connection points: 6
#     Node 1, Type 0, BuildingBlock: FUNLAD_clean_sbu_0, # of connection points: 6
#     Node 2, Type 0, BuildingBlock: FUNLAD_clean_sbu_0, # of connection points: 6
#     Node 3, Type 0, BuildingBlock: FUNLAD_clean_sbu_0, # of connection points: 6
#     Node 4, Type 0, BuildingBlock: FUNLAD_clean_sbu_0, # of connection points: 6
#     Node 5, Type 0, BuildingBlock: FUNLAD_clean_sbu_0, # of connection points: 6
#     Node 6, Type 0, BuildingBlock: FUNLAD_clean_sbu_0, # of connection points: 6
#     Node 7, Type 0, BuildingBlock: FUNLAD_clean_sbu_0, # of connection points: 6
#     Node 8, Type 0, BuildingBlock: FUNLAD_clean_sbu_0, # of connection points: 6
#     Node 9, Type 0, BuildingBlock: FUNLAD_clean_sbu_0, # of connection points: 6
#     Node 10, Type 0, BuildingBlock: FUNLAD_clean_sbu_0, # of connection points: 6
#     Node 11, Type 0, BuildingBlock: FUNLAD_clean_sbu_0, # of connection points: 6
#     Node 12, Type 0, BuildingBlock: FUNLAD_clean_sbu_0, # of connection points: 6
#     Node 13, Type 0, BuildingBlock: FUNLAD_clean_sbu_0, # of connection points: 6
#     Node 14, Type 0, BuildingBlock: FUNLAD_clean_sbu_0, # of connection points: 6
#     Node 15, Type 0, BuildingBlock: FUNLAD_clean_sbu_0, # of connection points: 6
#     Edge 16, Type (0, 0), BuildingBlock: AJUNOK_clean_linker_0, # of connection points: 2
#     Edge 17, Type (0, 0), BuildingBlock: AJUNOK_clean_linker_0, # of connection points: 2
#     Edge 18, Type (0, 0), BuildingBlock: AJUNOK_clean_linker_0, # of connection points: 2
#     Edge 19, Type (0, 0), BuildingBlock: AJUNOK_clean_linker_0, # of connection points: 2
#     Edge 20, Type (0, 0), BuildingBlock: AJUNOK_clean_linker_0, # of connection points: 2
#     Edge 21, Type (0, 0), BuildingBlock: AJUNOK_clean_linker_0, # of connection points: 2
#     Edge 22, Type (0, 0), BuildingBlock: AJUNOK_clean_linker_0, # of connection points: 2
#     Edge 23, Type (0, 0), BuildingBlock: AJUNOK_clean_linker_0, # of connection points: 2
#     Edge 24, Type (0, 0), BuildingBlock: AJUNOK_clean_linker_0, # of connection points: 2
#     Edge 25, Type (0, 0), BuildingBlock: AJUNOK_clean_linker_0, # of connection points: 2
#     Edge 26, Type (0, 0), BuildingBlock: AJUNOK_clean_linker_0, # of connection points: 2
#     Edge 27, Type (0, 0), BuildingBlock: AJUNOK_clean_linker_0, # of connection points: 2
#     Edge 28, Type (0, 0), BuildingBlock: AJUNOK_clean_linker_0, # of connection points: 2
#     Edge 29, Type (0, 0), BuildingBlock: AJUNOK_clean_linker_0, # of connection points: 2
#     Edge 30, Type (0, 0), BuildingBlock: AJUNOK_clean_linker_0, # of connection points: 2
#     Edge 31, Type (0, 0), BuildingBlock: AJUNOK_clean_linker_0, # of connection points: 2
#     Edge 32, Type (0, 0), BuildingBlock: AJUNOK_clean_linker_0, # of connection points: 2
#     Edge 33, Type (0, 0), BuildingBlock: AJUNOK_clean_linker_0, # of connection points: 2
#     Edge 34, Type (0, 0), BuildingBlock: AJUNOK_clean_linker_0, # of connection points: 2
#     Edge 35, Type (0, 0), BuildingBlock: AJUNOK_clean_linker_0, # of connection points: 2
#     Edge 36, Type (0, 0), BuildingBlock: AJUNOK_clean_linker_0, # of connection points: 2
#     Edge 37, Type (0, 0), BuildingBlock: AJUNOK_clean_linker_0, # of connection points: 2
#     Edge 38, Type (0, 0), BuildingBlock: AJUNOK_clean_linker_0, # of connection points: 2
#     Edge 39, Type (0, 0), BuildingBlock: AJUNOK_clean_linker_0, # of connection points: 2
#     Edge 40, Type (0, 0), BuildingBlock: AJUNOK_clean_linker_0, # of connection points: 2
#     Edge 41, Type (0, 0), BuildingBlock: AJUNOK_clean_linker_0, # of connection points: 2
#     Edge 42, Type (0, 0), BuildingBlock: AJUNOK_clean_linker_0, # of connection points: 2
#     Edge 43, Type (0, 0), BuildingBlock: AJUNOK_clean_linker_0, # of connection points: 2
#     Edge 44, Type (0, 0), BuildingBlock: AJUNOK_clean_linker_0, # of connection points: 2
#     Edge 45, Type (0, 0), BuildingBlock: AJUNOK_clean_linker_0, # of connection points: 2
#     Edge 46, Type (0, 0), BuildingBlock: AJUNOK_clean_linker_0, # of connection points: 2
#     Edge 47, Type (0, 0), BuildingBlock: AJUNOK_clean_linker_0, # of connection points: 2
#     Edge 48, Type (0, 0), BuildingBlock: AJUNOK_clean_linker_0, # of connection points: 2
#     Edge 49, Type (0, 0), BuildingBlock: AJUNOK_clean_linker_0, # of connection points: 2
#     Edge 50, Type (0, 0), BuildingBlock: AJUNOK_clean_linker_0, # of connection points: 2
#     Edge 51, Type (0, 0), BuildingBlock: AJUNOK_clean_linker_0, # of connection points: 2
#     Edge 52, Type (0, 0), BuildingBlock: AJUNOK_clean_linker_0, # of connection points: 2
#     Edge 53, Type (0, 0), BuildingBlock: AJUNOK_clean_linker_0, # of connection points: 2
#     Edge 54, Type (0, 0), BuildingBlock: AJUNOK_clean_linker_0, # of connection points: 2
#     Edge 55, Type (0, 0), BuildingBlock: AJUNOK_clean_linker_0, # of connection points: 2
#     Edge 56, Type (0, 0), BuildingBlock: AJUNOK_clean_linker_0, # of connection points: 2
#     Edge 57, Type (0, 0), BuildingBlock: AJUNOK_clean_linker_0, # of connection points: 2
#     Edge 58, Type (0, 0), BuildingBlock: AJUNOK_clean_linker_0, # of connection points: 2
#     Edge 59, Type (0, 0), BuildingBlock: AJUNOK_clean_linker_0, # of connection points: 2
#     Edge 60, Type (0, 0), BuildingBlock: AJUNOK_clean_linker_0, # of connection points: 2
#     Edge 61, Type (0, 0), BuildingBlock: AJUNOK_clean_linker_0, # of connection points: 2
#     Edge 62, Type (0, 0), BuildingBlock: AJUNOK_clean_linker_0, # of connection points: 2
#     Edge 63, Type (0, 0), BuildingBlock: AJUNOK_clean_linker_0, # of connection points: 2
# Relax obj value: 0.650
# Max RMSD: 0.316
# Mean RMSD: 0.250
data_MOF--net-bcs--node1-FUNLAD_clean_sbu_0--edge1-AJUNOK_clean_linker_0
_symmetry_space_group_name_H-M    P1
_symmetry_Int_Tables_number       1
_symmetry_cell_setting            triclinic
loop_
_symmetry_equiv_pos_as_xyz
'x, y, z'
_cell_length_a     29.623959
_cell_length_b     29.313734
_cell_length_c     29.659248
_cell_angle_alpha  74.593457
_cell_angle_beta   74.745428
_cell_angle_gamma 68.665114
loop_
_atom_site_label
_atom_site_type_symbol
_atom_site_fract_x
_atom_site_fract_y
_atom_site_fract_z
_atom_type_partial_charge
C0 C 0.94382 0.07108 0.07084 0.0
N1 N 0.92641 0.95253 0.035 0.0
C2 C 0.89568 0.94939 0.07771 0.0
C3 C 0.85544 0.93372 0.08316 0.0
C4 C 0.84715 0.92074 0.04434 0.0
C5 C 0.87844 0.92581 1.00026 0.0
C6 C 0.91823 0.94197 0.99634 0.0
Zn7 Zn 0.98067 0.98075 0.02621 0.0
C8 C 0.97011 0.06296 0.93616 0.0
N9 N 0.08502 0.05248 1.00144 0.0
C10 C 0.09115 0.06401 0.04062 0.0
C11 C 0.11751 0.05447 0.95977 0.0
C12 C 0.15852 0.06816 0.95649 0.0
C13 C 0.16572 0.08012 0.99643 0.0
C14 C 0.13155 0.07831 0.03881 0.0
Zn15 Zn 0.03147 0.02357 1.00925 0.0
O16 O 0.93338 0.03411 0.06722 0.0
C17 C 0.04245 0.94163 0.09927 0.0
O18 O 0.98456 0.07704 0.04872 0.0
H19 H 0.11169 0.04516 0.92929 0.0
H20 H 0.9028 0.95845 0.10768 0.0
H21 H 0.065 0.06158 0.07361 0.0
O22 O 1.00807 0.9317 0.08941 0.0
O23 O 0.05727 0.97668 0.07193 0.0
H24 H 0.94286 0.94563 0.96243 0.0
O25 O 0.0793 0.96919 0.96863 0.0
O26 O 0.02691 0.9276 0.98628 0.0
O27 O 1.00525 0.07176 0.94577 0.0
O28 O 0.95443 0.02847 0.96372 0.0
C29 C 0.06806 0.93282 0.96448 0.0
H30 H 0.83289 0.92871 0.11824 0.0
H31 H 0.87354 0.91509 0.97005 0.0
H32 H 0.18349 0.07111 0.92258 0.0
H33 H 0.13561 0.08867 0.06962 0.0
C34 C 0.17854 0.81823 0.22688 0.0
N35 N 0.27356 0.68758 0.18169 0.0
C36 C 0.22885 0.68407 0.18201 0.0
C37 C 0.22156 0.66713 0.14585 0.0
C38 C 0.26041 0.65347 0.10839 0.0
C39 C 0.30677 0.65612 0.10866 0.0
C40 C 0.31257 0.67369 0.14601 0.0
Zn41 Zn 0.27084 0.72341 0.23456 0.0
C42 C 0.32519 0.80486 0.19728 0.0
N43 N 0.24923 0.80572 0.34161 0.0
C44 C 0.21128 0.82275 0.37702 0.0
C45 C 0.29567 0.80511 0.34065 0.0
C46 C 0.30587 0.8211 0.37545 0.0
C47 C 0.26805 0.83932 0.41183 0.0
C48 C 0.2199 0.84054 0.41276 0.0
Zn49 Zn 0.25036 0.77094 0.28896 0.0
O50 O 0.2074 0.77961 0.21064 0.0
C51 C 0.19542 0.69133 0.32704 0.0
O52 O 0.18701 0.82787 0.26283 0.0
H53 H 0.32597 0.7909 0.31333 0.0
H54 H 0.19769 0.69628 0.20951 0.0
H55 H 0.17474 0.82225 0.37781 0.0
O56 O 0.22057 0.68058 0.28666 0.0
O57 O 0.20032 0.72809 0.33894 0.0
H58 H 0.34765 0.67741 0.14579 0.0
O59 O 0.3128 0.71368 0.31353 0.0
O60 O 0.33505 0.66629 0.26053 0.0
O61 O 0.30024 0.81365 0.23814 0.0
O62 O 0.32069 0.76871 0.18377 0.0
C63 C 0.3423 0.6754 0.29734 0.0
H64 H 0.18539 0.66534 0.14681 0.0
H65 H 0.33765 0.64555 0.08015 0.0
H66 H 0.34331 0.82009 0.37342 0.0
H67 H 0.18968 0.85531 0.4402 0.0
C68 C 0.5721 0.91513 0.57588 0.0
N69 N 0.59689 0.04954 0.50608 0.0
C70 C 0.64559 0.02209 0.49912 0.0
C71 C 0.68113 0.03992 0.50472 0.0
C72 C 0.66666 0.08643 0.5179 0.0
C73 C 0.61642 0.11507 0.52277 0.0
C74 C 0.58199 0.09585 0.51658 0.0
Zn75 Zn 0.5471 0.01492 0.50715 0.0
C76 C 0.58531 0.94909 0.43773 0.0
N77 N 0.45039 0.93187 0.51807 0.0
C78 C 0.41625 0.91837 0.55518 0.0
C79 C 0.45093 0.92858 0.47306 0.0
C80 C 0.41737 0.91132 0.46369 0.0
C81 C 0.37976 0.90017 0.50017 0.0
C82 C 0.37997 0.90259 0.54691 0.0
Zn83 Zn 0.49875 0.96712 0.52049 0.0
O84 O 0.58383 0.95382 0.55343 0.0
C85 C 0.46199 0.03184 0.59102 0.0
O86 O 0.53447 0.90851 0.56919 0.0
H87 H 0.47562 0.94206 0.44331 0.0
H88 H 0.65688 0.9851 0.49138 0.0
H89 H 0.41557 0.92205 0.59071 0.0
O90 O 0.49981 0.04442 0.56782 0.0
O91 O 0.45028 0.00054 0.5776 0.0
H92 H 0.54315 0.11693 0.52239 0.0
O93 O 0.46333 0.02666 0.47274 0.0
O94 O 0.50793 0.07586 0.46089 0.0
O95 O 0.54988 0.93403 0.46321 0.0
O96 O 0.59368 0.98439 0.44762 0.0
C97 C 0.47179 0.06747 0.45297 0.0
H98 H 0.71938 0.0166 0.50078 0.0
H99 H 0.60339 0.15063 0.53406 0.0
H100 H 0.41955 0.90917 0.42722 0.0
H101 H 0.35144 0.89463 0.57617 0.0
C102 C 0.21181 0.31185 0.80936 0.0
N103 N 0.366 0.24598 0.79105 0.0
C104 C 0.368 0.29285 0.78524 0.0
C105 C 0.39875 0.30133 0.80843 0.0
C106 C 0.42688 0.26124 0.83803 0.0
C107 C 0.42746 0.21285 0.83991 0.0
C108 C 0.39689 0.20594 0.81552 0.0
Zn109 Zn 0.30643 0.23558 0.77834 0.0
C110 C 0.26428 0.17655 0.86261 0.0
N111 N 0.1814 0.2121 0.7551 0.0
C112 C 0.14857 0.25382 0.73476 0.0
C113 C 0.17738 0.16611 0.76061 0.0
C114 C 0.14138 0.16056 0.74202 0.0
C115 C 0.10963 0.2028 0.71764 0.0
C116 C 0.11224 0.24998 0.71569 0.0
Zn117 Zn 0.24202 0.22126 0.76683 0.0
O118 O 0.25814 0.3017 0.80524 0.0
C119 C 0.28484 0.28026 0.68235 0.0
O120 O 0.19617 0.2844 0.79498 0.0
H121 H 0.20401 0.13356 0.77663 0.0
H122 H 0.34278 0.3241 0.76606 0.0
H123 H 0.15257 0.29006 0.73023 0.0
O124 O 0.31442 0.27513 0.7089 0.0
O125 O 0.24899 0.26328 0.69822 0.0
H126 H 0.39448 0.16901 0.81997 0.0
O127 O 0.28921 0.15715 0.73848 0.0
O128 O 0.3525 0.17025 0.75158 0.0
O129 O 0.23566 0.17962 0.83585 0.0
O130 O 0.29825 0.19603 0.84722 0.0
C131 C 0.33557 0.14486 0.73555 0.0
H132 H 0.39721 0.33925 0.8067 0.0
H133 H 0.44869 0.18123 0.8626 0.0
H134 H 0.14087 0.12342 0.7435 0.0
H135 H 0.08842 0.28325 0.697 0.0
C136 C 0.92618 0.04326 0.48765 0.0
N137 N 0.99712 0.88855 0.51602 0.0
C138 C 0.95249 0.88495 0.51667 0.0
C139 C 0.9497 0.85001 0.49428 0.0
C140 C 0.99324 0.81921 0.47091 0.0
C141 C 0.03878 0.81996 0.47541 0.0
C142 C 0.0399 0.85516 0.49835 0.0
Zn143 Zn 1.00222 0.95236 0.52637 0.0
C144 C 0.06744 0.99144 0.447 0.0
N145 N 0.01564 0.08477 0.54664 0.0
C146 C 0.97578 0.11732 0.56921 0.0
C147 C 0.06191 0.08716 0.54042 0.0
C148 C 0.07008 0.11964 0.56185 0.0
C149 C 0.03029 0.14921 0.59016 0.0
C150 C 0.98238 0.14992 0.59178 0.0
Zn151 Zn 1.0081 0.02209 0.53694 0.0
O152 O 0.94186 -0.00391 0.49172 0.0
C153 C 0.9454 0.98312 0.61769 0.0
O154 O 0.94745 0.06424 0.50405 0.0
H155 H 0.09302 0.06076 0.52259 0.0
H156 H 0.91904 0.91196 0.53073 0.0
H157 H 0.93929 0.11482 0.57356 0.0
O158 O 0.95483 0.95004 0.59308 0.0
O159 O 0.96271 0.01886 0.60211 0.0
H160 H 0.07507 0.85877 0.49785 0.0
O161 O 0.06986 0.9779 0.5705 0.0
O162 O 0.06161 0.9103 0.56041 0.0
O163 O 0.05404 0.02495 0.47179 0.0
O164 O 0.05089 0.955 0.46091 0.0
C165 C 0.08435 0.93068 0.57548 0.0
H166 H 0.91387 0.85042 0.49132 0.0
H167 H 0.073 0.79649 0.45797 0.0
H168 H 0.10758 0.11819 0.56004 0.0
H169 H 0.95092 0.17266 0.61308 0.0
C170 C 0.31116 0.68244 0.84774 0.0
N171 N 0.3269 0.81717 0.76368 0.0
C172 C 0.32701 0.8227 0.80784 0.0
C173 C 0.34619 0.8571 0.81354 0.0
C174 C 0.36562 0.88673 0.77359 0.0
C175 C 0.36629 0.88032 0.72808 0.0
C176 C 0.3464 0.84498 0.72388 0.0
Zn177 Zn 0.28925 0.76901 0.76527 0.0
C178 C 0.33425 0.69428 0.70939 0.0
N179 N 0.2028 0.67144 0.78853 0.0
C180 C 0.15612 0.68792 0.77957 0.0
C181 C 0.2293 0.62201 0.79354 0.0
C182 C 0.21032 0.58758 0.78678 0.0
C183 C 0.16355 0.60389 0.77457 0.0
C184 C 0.13569 0.65463 0.77245 0.0
Zn185 Zn 0.24017 0.72065 0.78425 0.0
O186 O 0.32472 0.71853 0.8207 0.0
C187 C 0.19431 0.79771 0.83781 0.0
O188 O 0.27523 0.6731 0.84074 0.0
H189 H 0.26656 0.60945 0.79999 0.0
H190 H 0.31053 0.80155 0.8392 0.0
H191 H 0.13574 0.72734 0.77514 0.0
O192 O 0.234 0.80536 0.81425 0.0
O193 O 0.18396 0.76077 0.83346 0.0
H194 H 0.34552 0.84065 0.68904 0.0
O195 O 0.20662 0.7692 0.72724 0.0
O196 O 0.2526 0.81826 0.71065 0.0
O197 O 0.29636 0.68341 0.7347 0.0
O198 O 0.34356 0.73144 0.71465 0.0
C199 C 0.21844 0.80711 0.70207 0.0
H200 H 0.34495 0.86127 0.84913 0.0
H201 H 0.38108 0.90285 0.69646 0.0
H202 H 0.23308 0.54889 0.78871 0.0
H203 H 0.09987 0.66912 0.76218 0.0
C204 C 0.44606 0.08152 0.05687 0.0
N205 N 0.57306 0.97766 0.1004 0.0
C206 C 0.58095 0.02037 0.10131 0.0
C207 C 0.59948 0.02381 0.13822 0.0
C208 C 0.60974 0.9833 0.17562 0.0
C209 C 0.60202 0.93906 0.1745 0.0
C210 C 0.5834 0.93703 0.13609 0.0
Zn211 Zn 0.53599 0.9873 0.04592 0.0
C212 C 0.45266 0.93471 0.07933 0.0
N213 N 0.45286 0.02172 0.93557 0.0
C214 C 0.40794 0.01511 0.94453 0.0
C215 C 0.48117 0.02217 0.89107 0.0
C216 C 0.46619 0.01256 0.85454 0.0
C217 C 0.4218 0.00197 0.8638 0.0
C218 C 0.39195 0.00456 0.90915 0.0
Zn219 Zn 0.48833 0.01094 0.99102 0.0
O220 O 0.48433 0.05118 0.0723 0.0
C221 C 0.57161 0.06362 0.95692 0.0
O222 O 0.43493 0.0746 0.02095 0.0
H223 H 0.51749 0.02564 0.88466 0.0
H224 H 0.5708 0.05322 0.07441 0.0
H225 H 0.38617 0.01399 0.98009 0.0
O226 O 0.58177 0.03625 0.99684 0.0
O227 O 0.53449 0.06111 0.94421 0.0
H228 H 0.57591 0.90371 0.13561 0.0
O229 O 0.5402 0.94762 0.96431 0.0
O230 O 0.58778 0.92237 1.01757 0.0
O231 O 0.44427 0.96011 0.0382 0.0
O232 O 0.48825 0.939 0.09345 0.0
C233 C 0.5771 0.91587 0.9812 0.0
H234 H 0.60457 0.05863 0.13816 0.0
H235 H 0.60955 0.90704 0.20306 0.0
H236 H 0.4905 0.01035 0.82023 0.0
H237 H 0.3581 -0.00483 0.91821 0.0
C238 C 0.20529 0.29638 0.3484 0.0
N239 N 0.22183 0.168 0.30186 0.0
C240 C 0.20742 0.15395 0.34933 0.0
C241 C 0.19229 0.11233 0.3667 0.0
C242 C 0.19539 0.08231 0.33548 0.0
C243 C 0.20973 0.0977 0.28645 0.0
C244 C 0.22232 0.14153 0.27018 0.0
Zn245 Zn 0.24871 0.22537 0.2824 0.0
C246 C 0.20166 0.30614 0.21359 0.0
N247 N 0.31498 0.33666 0.24849 0.0
C248 C 0.32334 0.34712 0.28719 0.0
C249 C 0.31973 0.36613 0.20496 0.0
C250 C 0.33384 0.40794 0.19916 0.0
C251 C 0.34208 0.41978 0.2387 0.0
C252 C 0.33662 0.38901 0.28313 0.0
Zn253 Zn 0.28819 0.27994 0.26111 0.0
O254 O 0.19772 0.25997 0.33977 0.0
C255 C 0.33701 0.19776 0.32814 0.0
O256 O 0.24029 0.3111 0.32164 0.0
H257 H 0.31285 0.35701 0.1749 0.0
H258 H 0.20837 0.17439 0.37422 0.0
H259 H 0.31933 0.32317 0.32165 0.0
O260 O 0.30083 0.18468 0.32743 0.0
O261 O 0.34198 0.23785 0.30184 0.0
H262 H 0.2334 0.15368 0.23244 0.0
O263 O 0.3365 0.24846 0.19986 0.0
O264 O 0.29809 0.19257 0.22426 0.0
O265 O 0.23455 0.32204 0.21817 0.0
O266 O 0.19776 0.26469 0.23806 0.0
C267 C 0.33023 0.20961 0.19423 0.0
H268 H 0.17811 0.10409 0.40447 0.0
H269 H 0.21115 0.07623 0.26121 0.0
H270 H 0.3403 0.42962 0.16377 0.0
H271 H 0.34399 0.39645 0.31392 0.0
C272 C 0.43887 0.55394 0.97926 0.0
N273 N 0.4919 0.39823 1.01636 0.0
C274 C 0.44525 0.40027 1.01648 0.0
C275 C 0.43782 0.36646 0.99593 0.0
C276 C 0.47883 0.3308 0.97513 0.0
C277 C 0.52598 0.32599 0.98044 0.0
C278 C 0.53175 0.36039 1.00123 0.0
Zn279 Zn 0.50628 0.45951 0.02156 0.0
C280 C 0.57442 0.48707 0.93591 0.0
N281 N 0.54124 0.58529 0.03001 0.0
C282 C 0.50197 0.6225 0.04702 0.0
C283 C 0.58831 0.58267 0.02879 0.0
C284 C 0.59698 0.61487 0.05034 0.0
C285 C 0.55673 0.64941 0.0733 0.0
C286 C 0.50895 0.65513 0.06914 0.0
Zn287 Zn 0.52655 0.52443 0.02489 0.0
O288 O 0.44688 0.50717 0.98753 0.0
C289 C 0.45798 0.49808 0.10997 0.0
O290 O 0.46677 0.57078 0.99155 0.0
H291 H 0.6189 0.55267 1.01535 0.0
H292 H 0.41415 0.43073 0.02846 0.0
H293 H 0.4648 0.62366 0.04818 0.0
O294 O 0.46063 0.46489 0.08822 0.0
O295 O 0.48185 0.52844 0.09145 0.0
H296 H 0.5686 0.35965 1.00078 0.0
O297 O 0.58625 0.47648 0.05893 0.0
O298 O 0.56487 0.41325 0.0563 0.0
O299 O 0.57118 0.52013 0.95804 0.0
O300 O 0.55178 0.45556 0.95459 0.0
C301 C 0.59262 0.42995 0.06898 0.0
H302 H 0.40084 0.37111 0.9924 0.0
H303 H 0.55831 0.29854 0.96517 0.0
H304 H 0.63438 0.60959 0.05306 0.0
H305 H 0.47722 0.68168 0.08628 0.0
C306 C 0.80058 0.16593 0.35359 0.0
N307 N 0.81866 0.30281 0.27503 0.0
C308 C 0.82268 0.30467 0.31917 0.0
C309 C 0.84368 0.33749 0.32526 0.0
C310 C 0.86001 0.36986 0.28578 0.0
C311 C 0.85572 0.36782 0.24036 0.0
C312 C 0.83495 0.33346 0.23571 0.0
Zn313 Zn 0.77977 0.25666 0.27457 0.0
C314 C 0.82205 0.18664 0.21408 0.0
N315 N 0.69067 0.16313 0.29017 0.0
C316 C 0.68119 0.1271 0.32787 0.0
C317 C 0.68366 0.16408 0.2463 0.0
C318 C 0.66951 0.12697 0.23831 0.0
C319 C 0.66239 0.0879 0.27557 0.0
C320 C 0.66664 0.0889 0.32134 0.0
Zn321 Zn 0.72927 0.21003 0.29081 0.0
O322 O 0.81345 0.20361 0.32981 0.0
C323 C 0.68662 0.28212 0.34962 0.0
O324 O 0.76602 0.1567 0.3437 0.0
H325 H 0.69233 0.19168 0.21622 0.0
H326 H 0.80791 0.28189 0.35029 0.0
H327 H 0.6874 0.1263 0.36246 0.0
O328 O 0.72509 0.29176 0.32472 0.0
O329 O 0.67595 0.24589 0.34394 0.0
H330 H 0.8307 0.33225 0.20096 0.0
O331 O 0.6936 0.26518 0.2377 0.0
O332 O 0.7448 0.30847 0.2199 0.0
O333 O 0.78323 0.17671 0.23769 0.0
O334 O 0.83382 0.22034 0.2233 0.0
C335 C 0.70773 0.30164 0.21225 0.0
H336 H 0.84584 0.33862 0.36085 0.0
H337 H 0.86775 0.39271 0.20915 0.0
H338 H 0.66617 0.12767 0.20259 0.0
H339 H 0.66115 0.05936 0.35103 0.0
C340 C 0.93567 0.58843 0.55026 0.0
N341 N 0.062 0.4944 0.59863 0.0
C342 C 0.07023 0.53815 0.59528 0.0
C343 C 0.08768 0.54597 0.63071 0.0
C344 C 0.09563 0.5093 0.6714 0.0
C345 C 0.08544 0.46489 0.67573 0.0
C346 C 0.06869 0.45803 0.63836 0.0
Zn347 Zn 0.02851 0.49667 0.5439 0.0
C348 C 0.948 0.4409 0.57926 0.0
N349 N 0.94916 0.5199 0.43359 0.0
C350 C 0.90379 0.5141 0.44361 0.0
C351 C 0.97843 0.51572 0.38992 0.0
C352 C 0.96401 0.50173 0.35571 0.0
C353 C 0.91898 0.49211 0.36643 0.0
C354 C 0.88819 0.49962 0.41052 0.0
Zn355 Zn 0.98292 0.51502 0.48823 0.0
O356 O 0.97405 0.56039 0.56668 0.0
C357 C 0.06383 0.5697 0.45194 0.0
O358 O 0.92633 0.57899 0.51469 0.0
H359 H 0.01496 0.51893 0.3829 0.0
H360 H 0.06133 0.56859 0.56598 0.0
H361 H 0.8813 0.51669 0.47863 0.0
O362 O 0.07273 0.54522 0.49303 0.0
O363 O 0.02765 0.56535 0.43912 0.0
H364 H 0.06026 0.42424 0.64157 0.0
O365 O 0.03823 0.45195 0.46472 0.0
O366 O 0.08432 0.4321 0.51863 0.0
O367 O 0.94045 0.46377 0.53727 0.0
O368 O 0.98241 0.44761 0.5932 0.0
C369 C 0.07612 0.42352 0.48197 0.0
H370 H 0.09406 0.5811 0.62671 0.0
H371 H 0.09086 0.43591 0.7071 0.0
H372 H 0.98907 0.49552 0.32236 0.0
H373 H 0.85386 0.49108 0.42052 0.0
C374 C 0.71668 0.81983 0.30889 0.0
N375 N 0.87076 0.75442 0.28468 0.0
C376 C 0.87363 0.8003 0.28216 0.0
C377 C 0.90776 0.80502 0.30396 0.0
C378 C 0.93851 0.76212 0.32864 0.0
C379 C 0.93782 0.71523 0.32688 0.0
C380 C 0.90361 0.71218 0.30435 0.0
Zn381 Zn 0.80945 0.74574 0.2738 0.0
C382 C 0.77149 0.68136 0.35722 0.0
N383 N 0.68404 0.72056 0.25375 0.0
C384 C 0.65049 0.76161 0.23349 0.0
C385 C 0.68254 0.67385 0.25762 0.0
C386 C 0.64925 0.66689 0.23645 0.0
C387 C 0.61799 0.70843 0.21097 0.0
C388 C 0.61718 0.75632 0.21133 0.0
Zn389 Zn 0.74476 0.73058 0.26397 0.0
O390 O 0.76312 0.80917 0.30365 0.0
C391 C 0.78111 0.79527 0.18085 0.0
O392 O 0.69955 0.79273 0.29548 0.0
H393 H 0.70978 0.64185 0.27357 0.0
H394 H 0.84688 0.83332 0.2668 0.0
H395 H 0.65248 0.79842 0.23055 0.0
O396 O 0.81302 0.78948 0.20518 0.0
O397 O 0.74745 0.77546 0.19756 0.0
H398 H 0.90043 0.67603 0.30663 0.0
O399 O 0.7919 0.66826 0.23155 0.0
O400 O 0.85446 0.68344 0.24336 0.0
O401 O 0.74201 0.68577 0.3309 0.0
O402 O 0.80453 0.70224 0.34231 0.0
C403 C 0.83827 0.65797 0.22687 0.0
H404 H 0.90698 0.84189 0.30528 0.0
H405 H 0.96085 0.68151 0.34585 0.0
H406 H 0.65104 0.62936 0.23627 0.0
H407 H 0.5936 0.78901 0.19174 0.0
C408 C 0.67439 0.32314 0.73289 0.0
N409 N 0.77261 0.1923 0.6893 0.0
C410 C 0.72846 0.18759 0.68953 0.0
C411 C 0.7228 0.16766 0.6547 0.0
C412 C 0.76274 0.15223 0.61873 0.0
C413 C 0.80851 0.15617 0.61907 0.0
C414 C 0.81266 0.17672 0.65511 0.0
Zn415 Zn 0.76797 0.23029 0.7408 0.0
C416 C 0.82055 0.31292 0.70168 0.0
N417 N 0.74575 0.31442 0.84787 0.0
C418 C 0.71056 0.32157 0.88796 0.0
C419 C 0.78937 0.3225 0.84344 0.0
C420 C 0.79884 0.33896 0.87861 0.0
C421 C 0.76404 0.34598 0.92023 0.0
C422 C 0.71921 0.33717 0.92518 0.0
Zn423 Zn 0.74777 0.2782 0.79509 0.0
O424 O 0.70393 0.28496 0.71629 0.0
C425 C 0.69551 0.19513 0.83422 0.0
O426 O 0.68255 0.33308 0.76891 0.0
H427 H 0.8189 0.31316 0.81397 0.0
H428 H 0.69662 0.20084 0.71601 0.0
H429 H 0.67681 0.31329 0.89204 0.0
O430 O 0.71939 0.18626 0.793 0.0
O431 O 0.70005 0.23185 0.8467 0.0
H432 H 0.84732 0.18123 0.65511 0.0
O433 O 0.81191 0.22424 0.81874 0.0
O434 O 0.83221 0.17535 0.76722 0.0
O435 O 0.79539 0.32254 0.74225 0.0
O436 O 0.81677 0.27581 0.68926 0.0
C437 C 0.84091 0.18573 0.80257 0.0
H438 H 0.687 0.16516 0.65534 0.0
H439 H 0.84012 0.14435 0.59162 0.0
H440 H 0.83422 0.34436 0.87405 0.0
H441 H 0.69164 0.34189 0.95731 0.0
C442 C 0.68539 0.79819 0.7218 0.0
N443 N 0.79737 0.82607 0.75716 0.0
C444 C 0.79842 0.85849 0.71506 0.0
C445 C 0.81089 0.90087 0.7107 0.0
C446 C 0.82252 0.90962 0.75005 0.0
C447 C 0.8192 0.87668 0.79356 0.0
C448 C 0.80675 0.8346 0.79627 0.0
Zn449 Zn 0.77367 0.7683 0.76561 0.0
C450 C 0.6941 0.77542 0.85652 0.0
N451 N 0.71136 0.6548 0.79397 0.0
C452 C 0.70235 0.64547 0.75503 0.0
C453 C 0.70669 0.62473 0.83718 0.0
C454 C 0.6918 0.58358 0.84257 0.0
C455 C 0.6824 0.57302 0.803 0.0
C456 C 0.68767 0.60438 0.75879 0.0
Zn457 Zn 0.7364 0.7121 0.78505 0.0
O458 O 0.71937 0.81273 0.72561 0.0
C459 C 0.81559 0.70665 0.69297 0.0
O460 O 0.68232 0.75609 0.7447 0.0
H461 H 0.71402 0.63305 0.86745 0.0
H462 H 0.79027 0.85106 0.68476 0.0
H463 H 0.70634 0.67002 0.72092 0.0
O464 O 0.82156 0.74411 0.70174 0.0
O465 O 0.78449 0.68745 0.72208 0.0
H466 H 0.80493 0.80856 0.82969 0.0
O467 O 0.7917 0.66706 0.82631 0.0
O468 O 0.82823 0.72428 0.80431 0.0
O469 O 0.68688 0.73837 0.84823 0.0
O470 O 0.72677 0.79257 0.82812 0.0
C471 C 0.82646 0.682 0.82786 0.0
H472 H 0.81459 0.92476 0.67601 0.0
H473 H 0.82883 0.88197 0.82418 0.0
H474 H 0.68558 0.56138 0.87778 0.0
H475 H 0.67928 0.59793 0.72806 0.0
C476 C 0.4455 0.57313 0.56697 0.0
N477 N 0.42409 0.45188 0.53786 0.0
C478 C 0.39081 0.45044 0.57906 0.0
C479 C 0.35414 0.42953 0.58408 0.0
C480 C 0.35262 0.40953 0.54652 0.0
C481 C 0.38566 0.41376 0.5037 0.0
C482 C 0.42103 0.43579 0.49992 0.0
Zn483 Zn 0.47826 0.48081 0.52821 0.0
C484 C 0.47065 0.55639 0.43325 0.0
N485 N 0.58805 0.54788 0.49423 0.0
C486 C 0.59612 0.56086 0.53158 0.0
C487 C 0.61902 0.54891 0.4515 0.0
C488 C 0.66024 0.56348 0.44509 0.0
C489 C 0.66942 0.57702 0.48307 0.0
C490 C 0.63693 0.57578 0.52671 0.0
Zn491 Zn 0.53324 0.51937 0.50591 0.0
O492 O 0.43154 0.53753 0.56544 0.0
C493 C 0.54198 0.44289 0.60024 0.0
O494 O 0.48732 0.57555 0.54385 0.0
H495 H 0.61184 0.53815 0.42257 0.0
H496 H 0.39371 0.46403 0.60837 0.0
H497 H 0.57119 0.55912 0.56548 0.0
O498 O 0.50445 0.43567 0.59355 0.0
O499 O 0.55952 0.47452 0.5696 0.0
H500 H 0.44704 0.43855 0.46689 0.0
O501 O 0.57986 0.46195 0.46778 0.0
O502 O 0.52424 0.424 0.49316 0.0
O503 O 0.50656 0.56522 0.44133 0.0
O504 O 0.45327 0.52441 0.46342 0.0
C505 C 0.56589 0.42531 0.46934 0.0
H506 H 0.32976 0.42538 0.61821 0.0
H507 H 0.3859 0.39764 0.47469 0.0
H508 H 0.68395 0.56554 0.41037 0.0
H509 H 0.64273 0.58677 0.5563 0.0
C510 C 0.0784 0.41795 0.07385 0.0
N511 N 0.09476 0.55254 0.99284 0.0
C512 C 0.14382 0.52796 0.98097 0.0
C513 C 0.17921 0.54681 0.98542 0.0
C514 C 0.16417 0.59066 1.00372 0.0
C515 C 0.11348 0.61738 1.0119 0.0
C516 C 0.0793 0.59772 1.00597 0.0
Zn517 Zn 0.04535 0.514 1.00278 0.0
C518 C 0.07838 0.44176 0.93854 0.0
N519 N 0.94743 0.42647 0.03399 0.0
C520 C 0.9604 0.38231 1.01944 0.0
C521 C 0.89899 0.45259 0.04696 0.0
C522 C 0.86174 0.43655 0.04245 0.0
C523 C 0.87406 0.39391 0.02309 0.0
C524 C 0.92408 0.3653 1.01365 0.0
Zn525 Zn 0.99803 0.46376 0.02405 0.0
O526 O 0.08647 0.45791 0.04964 0.0
C527 C 0.96583 0.53581 0.08867 0.0
O528 O 0.04078 0.40823 0.0711 0.0
H529 H 0.88876 0.48814 0.05737 0.0
H530 H 0.15583 0.49191 0.97101 0.0
H531 H 0.9989 0.36202 1.009 0.0
O532 O 1.00128 0.54929 0.06074 0.0
O533 O 0.95555 0.50014 0.08166 0.0
H534 H 0.04031 0.61704 1.01506 0.0
O535 O 0.95691 0.51972 0.97722 0.0
O536 O 1.00232 0.56944 0.95577 0.0
O537 O 0.04245 0.42839 0.96578 0.0
O538 O 0.08836 0.47752 0.94578 0.0
C539 C 0.96496 0.55953 0.95265 0.0
H540 H 0.21788 0.52567 0.97722 0.0
H541 H 0.1 0.65138 0.02604 0.0
H542 H 0.82369 0.45937 0.05082 0.0
H543 H 0.93526 0.33219 0.99849 0.0
C544 C 0.27579 0.10458 0.92792 0.0
C545 C 0.25395 0.15555 0.91259 0.0
C546 C 0.25114 0.07859 0.96697 0.0
C547 C 0.20353 0.10359 0.98926 0.0
H548 H 0.30812 0.08406 0.90596 0.0
H549 H 0.26468 0.03819 0.97338 0.0
S550 S 0.14087 0.23982 0.97215 0.0
N551 N 0.19084 0.23231 0.93017 0.0
N552 N 0.14356 0.18338 1.00345 0.0
C553 C 0.1873 0.15587 0.98084 0.0
C554 C 0.21246 0.18216 0.94133 0.0
C555 C 0.08184 0.859 0.14869 0.0
C556 C 0.06873 0.91128 0.13932 0.0
C557 C 0.11558 0.82946 0.17896 0.0
C558 C 0.1368 0.8509 0.20201 0.0
H559 H 0.06843 0.84067 0.1302 0.0
H560 H 0.12644 0.78928 0.18311 0.0
S561 S 0.10973 0.98627 0.194 0.0
N562 N 0.07642 0.98341 0.15867 0.0
N563 N 0.13854 0.9279 0.2164 0.0
C564 C 0.12122 0.90313 0.19562 0.0
C565 C 0.08763 0.93325 0.16404 0.0
C566 C 0.32333 0.91871 0.44416 0.0
C567 C 0.3397 0.89021 0.48659 0.0
C568 C 0.29566 0.90408 0.42266 0.0
C569 C 0.28075 0.86185 0.44371 0.0
H570 H 0.33443 0.95125 0.42568 0.0
H571 H 0.28801 0.92459 0.38779 0.0
S572 S 0.30784 0.77752 0.5577 0.0
N573 N 0.33539 0.81948 0.55105 0.0
N574 N 0.28068 0.79345 0.51121 0.0
C575 C 0.29283 0.83525 0.48821 0.0
C576 C 0.32252 0.8494 0.50979 0.0
C577 C 0.3504 0.08624 0.68127 0.0
C578 C 0.36961 0.1074 0.70637 0.0
C579 C 0.38087 0.05989 0.64536 0.0
C580 C 0.43157 0.05415 0.63288 0.0
H581 H 0.31115 0.09213 0.68766 0.0
H582 H 0.36411 0.04613 0.62567 0.0
S583 S 0.50197 0.0928 0.6943 0.0
N584 N 0.4441 0.1135 0.72121 0.0
N585 N 0.50093 0.06489 0.6532 0.0
C586 C 0.4519 0.07149 0.66021 0.0
C587 C 0.42105 0.09774 0.69717 0.0
C588 C 0.14344 0.92064 0.62695 0.0
C589 C 0.12476 0.89926 0.60161 0.0
C590 C 0.17632 0.89062 0.6576 0.0
C591 C 0.19104 0.83841 0.66414 0.0
H592 H 0.13101 0.96065 0.62475 0.0
H593 H 0.1881 0.90827 0.6782 0.0
S594 S 0.16069 0.76425 0.59968 0.0
N595 N 0.12964 0.82266 0.58002 0.0
N596 N 0.19027 0.76666 0.63856 0.0
C597 C 0.17555 0.81672 0.63664 0.0
C598 C 0.14272 0.84708 0.60505 0.0
C599 C 0.43178 0.9102 0.78972 0.0
C600 C 0.38346 0.92441 0.78165 0.0
C601 C 0.44508 0.9381 0.81292 0.0
C602 C 0.41026 0.98076 0.82943 0.0
H603 H 0.45834 0.87528 0.78137 0.0
H604 H 0.48177 0.92394 0.82128 0.0
S605 S 0.28091 0.03703 0.81092 0.0
N606 N 0.30232 0.98648 0.78716 0.0
N607 N 0.32724 0.03905 0.83063 0.0
C608 C 0.363 -0.0026 0.81808 0.0
C609 C 0.34962 0.96917 0.79422 0.0
C610 C 0.36462 0.12701 0.10218 0.0
C611 C 0.41457 0.1221 0.08362 0.0
C612 C 0.33745 0.15675 0.1367 0.0
C613 C 0.35877 0.18362 0.15345 0.0
H614 H 0.34724 0.10534 0.09219 0.0
H615 H 0.29963 0.15766 0.15134 0.0
S616 S 0.48722 0.18714 0.11218 0.0
N617 N 0.48356 0.14894 0.08212 0.0
N618 N 0.43216 0.20599 0.14558 0.0
C619 C 0.40785 0.18143 0.13284 0.0
C620 C 0.43579 0.15032 0.09843 0.0
C621 C 0.10808 0.01015 0.36391 0.0
C622 C 0.11189 0.98876 0.41145 0.0
C623 C 0.14153 0.03445 0.33545 0.0
C624 C 0.17826 0.03846 0.35482 0.0
H625 H 0.07567 0.01416 0.35086 0.0
H626 H 0.134 0.05609 0.30092 0.0
S627 S 0.20546 0.98167 0.47617 0.0
N628 N 0.15846 0.96531 0.47437 0.0
N629 N 0.22088 0.01171 0.42189 0.0
C630 C 0.18674 0.00994 0.39992 0.0
C631 C 0.15338 0.98464 0.42819 0.0
C632 C 0.90009 0.16047 0.15595 0.0
C633 C 0.85166 0.15973 0.17528 0.0
C634 C 0.92926 0.13305 0.12065 0.0
C635 C 0.91083 0.10414 0.10361 0.0
H636 H 0.91602 0.18127 0.16895 0.0
H637 H 0.96699 0.13326 0.10784 0.0
S638 S 0.78425 0.09494 0.13803 0.0
N639 N 0.78503 0.13139 0.17147 0.0
N640 N 0.84001 0.07999 0.1053 0.0
C641 C 0.86178 0.10495 0.12101 0.0
C642 C 0.83214 0.13273 0.15686 0.0
C643 C 0.11227 0.60324 0.3704 0.0
C644 C 0.09565 0.60248 0.41999 0.0
C645 C 0.14421 0.6311 0.34133 0.0
C646 C 0.16074 0.66148 0.35934 0.0
H647 H 0.10147 0.58099 0.35387 0.0
H648 H 0.15583 0.62894 0.30394 0.0
S649 S 0.1253 0.67645 0.48608 0.0
N650 N 0.09777 0.63695 0.48497 0.0
N651 N 0.1547 0.68996 0.43116 0.0
C652 C 0.14301 0.66221 0.40863 0.0
C653 C 0.11165 0.63281 0.43842 0.0
C654 C 0.64674 0.8856 0.61106 0.0
C655 C 0.60077 0.88127 0.61197 0.0
C656 C 0.67296 0.85928 0.64744 0.0
C657 C 0.65462 0.82707 0.686 0.0
H658 H 0.66253 0.91015 0.58225 0.0
H659 H 0.7083 0.86388 0.64485 0.0
S660 S 0.53617 0.80208 0.70553 0.0
N661 N 0.53768 0.84241 0.65469 0.0
N662 N 0.58808 0.79157 0.72325 0.0
C663 C 0.60916 0.82141 0.68721 0.0
C664 C 0.582 0.84876 0.65006 0.0
C665 C 0.43961 0.27799 0.95533 0.0
C666 C 0.47287 0.30536 0.94128 0.0
C667 C 0.42758 0.26072 0.92172 0.0
C668 C 0.44777 0.27114 0.87301 0.0
H669 H 0.42154 0.27143 0.9922 0.0
H670 H 0.4002 0.24154 0.93354 0.0
S671 S 0.53905 0.33833 0.81852 0.0
N672 N 0.52816 0.33941 0.87585 0.0
N673 N 0.50462 0.30754 0.81273 0.0
C674 C 0.48262 0.2965 0.85881 0.0
C675 C 0.49548 0.31342 0.89301 0.0
C676 C 0.94754 0.74939 0.41232 0.0
C677 C 0.96294 0.76694 0.3637 0.0
C678 C 0.96066 0.76328 0.44749 0.0
C679 C 0.99026 0.79439 0.43503 0.0
H680 H 0.92226 0.72781 0.42327 0.0
H681 H 0.94535 0.75198 0.4845 0.0
S682 S 0.04579 0.84405 0.3127 0.0
N683 N 0.01324 0.81241 0.30485 0.0
N684 N 0.0388 0.83808 0.37088 0.0
C685 C 0.00933 0.80859 0.38657 0.0
C686 C 0.99533 0.79504 0.35083 0.0
C687 C 0.37981 0.59327 0.63676 0.0
C688 C 0.41621 0.60713 0.60032 0.0
C689 C 0.35464 0.6213 0.67216 0.0
C690 C 0.36442 0.66473 0.6725 0.0
H691 H 0.37132 0.55971 0.63883 0.0
H692 H 0.32724 0.60846 0.69957 0.0
S693 S 0.45409 0.71917 0.58307 0.0
N694 N 0.45977 0.6682 0.56529 0.0
N695 N 0.41154 0.72167 0.63201 0.0
C696 C 0.40013 0.67974 0.63579 0.0
C697 C 0.42615 0.65083 0.59961 0.0
C698 C 0.61383 0.10544 0.87564 0.0
C699 C 0.60244 0.09817 0.92613 0.0
C700 C 0.64359 0.13583 0.84702 0.0
C701 C 0.6629 0.1628 0.86645 0.0
H702 H 0.60043 0.08651 0.8578 0.0
H703 H 0.65117 0.13854 0.8088 0.0
S704 S 0.64184 0.16036 0.99645 0.0
N705 N 0.61292 0.1227 0.99373 0.0
N706 N 0.66561 0.18054 0.94094 0.0
C707 C 0.65054 0.15699 0.91683 0.0
C708 C 0.62151 0.12482 0.94606 0.0
C709 C 0.09414 0.35592 0.14873 0.0
C710 C 0.11154 0.38559 0.10696 0.0
C711 C 0.12357 0.33011 0.18332 0.0
C712 C 0.171 0.3336 0.17725 0.0
H713 H 0.05709 0.35389 0.15544 0.0
H714 H 0.10872 0.30817 0.21543 0.0
S715 S 0.23617 0.40028 0.07096 0.0
N716 N 0.18108 0.41259 0.05916 0.0
N717 N 0.23591 0.36466 0.12439 0.0
C718 C 0.18948 0.3615 0.13482 0.0
C719 C 0.15985 0.38731 0.09955 0.0
C720 C 0.65064 0.46675 0.87726 0.0
C721 C 0.59964 0.49002 0.88673 0.0
C722 C 0.67994 0.48834 0.83878 0.0
C723 C 0.65838 0.53496 0.81159 0.0
H724 H 0.6683 0.4365 0.90329 0.0
H725 H 0.71959 0.47394 0.83625 0.0
S726 S 0.52522 0.59973 0.81294 0.0
N727 N 0.52778 0.55231 0.85825 0.0
N728 N 0.58306 0.59463 0.78704 0.0
C729 C 0.60711 0.55204 0.81452 0.0
C730 C 0.57735 0.52944 0.85291 0.0
C731 C 0.64326 0.32252 0.1641 0.0
C732 C 0.68138 0.33445 0.17348 0.0
C733 C 0.61653 0.35257 0.12871 0.0
C734 C 0.62636 0.39622 0.10133 0.0
H735 H 0.63334 0.28987 0.18461 0.0
H736 H 0.58667 0.34225 0.12405 0.0
S737 S 0.72496 0.44231 0.10843 0.0
N738 N 0.7299 0.39142 0.15006 0.0
N739 N 0.67873 0.44853 0.08363 0.0
C740 C 0.66527 0.40806 0.1091 0.0
C741 C 0.69301 0.37703 0.1451 0.0
C742 C 0.93956 0.41905 0.32819 0.0
C743 C 0.90768 0.4666 0.33572 0.0
C744 C 0.92549 0.3892 0.30807 0.0
C745 C 0.87948 0.40624 0.29398 0.0
H746 H 0.97419 0.40346 0.3409 0.0
H747 H 0.9495 0.35144 0.30607 0.0
S748 S 0.78531 0.53013 0.30062 0.0
N749 N 0.8301 0.53104 0.32348 0.0
N750 N 0.80383 0.47501 0.28527 0.0
C751 C 0.8488 0.45497 0.29818 0.0
C752 C 0.86286 0.48516 0.31918 0.0
C753 C 0.75491 0.57539 0.44823 0.0
C754 C 0.70859 0.59954 0.47339 0.0
C755 C 0.782 0.60337 0.41429 0.0
C756 C 0.76361 0.65539 0.40598 0.0
H757 H 0.76608 0.53567 0.44912 0.0
H758 H 0.8131 0.58488 0.38975 0.0
S759 S 0.65353 0.73484 0.47394 0.0
N760 N 0.65227 0.6773 0.49671 0.0
N761 N 0.70429 0.72963 0.43304 0.0
C762 C 0.72301 0.6792 0.43754 0.0
C763 C 0.6951 0.65098 0.4718 0.0
C764 C 0.805 0.32394 0.99 0.0
C765 C 0.77761 0.36096 0.95747 0.0
C766 C 0.83387 0.33521 1.01374 0.0
C767 C 0.83631 0.3839 1.0057 0.0
H768 H 0.80714 0.28538 0.99428 0.0
H769 H 0.85638 0.30517 0.03661 0.0
S770 S 0.76996 0.49419 0.92503 0.0
N771 N 0.75309 0.4482 0.92008 0.0
N772 N 0.8071 0.46962 0.96405 0.0
C773 C 0.80667 0.42167 0.97536 0.0
C774 C 0.77742 0.41012 0.95139 0.0
C775 C 0.75394 0.8731 0.12397 0.0
C776 C 0.7843 0.82351 0.13279 0.0
C777 C 0.76868 0.90624 0.08428 0.0
C778 C 0.81485 0.89006 0.05471 0.0
H779 H 0.72238 0.88755 0.15052 0.0
H780 H 0.74905 0.94577 0.08222 0.0
S781 S 0.89571 0.75963 0.05407 0.0
N782 N 0.85292 0.75651 0.10238 0.0
N783 N 0.88109 0.81893 0.02764 0.0
C784 C 0.8388 0.83859 0.05752 0.0
C785 C 0.824 0.80506 0.09781 0.0
C786 C 0.8888 0.10161 0.84301 0.0
C787 C 0.88194 0.15292 0.82793 0.0
C788 C 0.91932 0.07242 0.87635 0.0
C789 C 0.94497 0.09312 0.89524 0.0
H790 H 0.86803 0.08456 0.83141 0.0
H791 H 0.92146 0.03356 0.8887 0.0
S792 S 0.9441 0.22465 0.86222 0.0
N793 N 0.90636 0.22248 0.83116 0.0
N794 N 0.96462 0.1675 0.89252 0.0
C795 C 0.94111 0.14366 0.8777 0.0
C796 C 0.90929 0.17355 0.8445 0.0
C797 C 0.75606 0.08301 0.59048 0.0
C798 C 0.75394 0.13315 0.5816 0.0
C799 C 0.73088 0.06736 0.56663 0.0
C800 C 0.70223 0.10149 0.53342 0.0
H801 H 0.77358 0.05667 0.61899 0.0
H802 H 0.73056 0.02914 0.57726 0.0
S803 S 0.69146 0.2354 0.49255 0.0
N804 N 0.7258 0.21568 0.53395 0.0
N805 N 0.6792 0.18623 0.4882 0.0
C806 C 0.70358 0.15079 0.52123 0.0
C807 C 0.72927 0.16663 0.54556 0.0
C808 C 0.66919 0.91264 0.39191 0.0
C809 C 0.61787 0.92351 0.39882 0.0
C810 C 0.70114 0.88113 0.36059 0.0
C811 C 0.68272 0.85994 0.33482 0.0
H812 H 0.68484 0.92619 0.41283 0.0
H813 H 0.74049 0.87148 0.35841 0.0
S814 S 0.55066 0.88642 0.33278 0.0
N815 N 0.54985 0.91713 0.37241 0.0
N816 N 0.60947 0.85892 0.31283 0.0
C817 C 0.63127 0.87436 0.33838 0.0
C818 C 0.59893 0.90586 0.37064 0.0
C819 C 0.84247 0.0822 0.39781 0.0
C820 C 0.82544 0.13427 0.39306 0.0
C821 C 0.87302 0.0524 0.43064 0.0
C822 C 0.88698 0.0739 0.45988 0.0
H823 H 0.83446 0.06468 0.37428 0.0
H824 H 0.88768 0.0126 0.43136 0.0
S825 S 0.84261 0.208 0.46752 0.0
N826 N 0.81809 0.20557 0.42462 0.0
N827 N 0.87476 0.1499 0.48679 0.0
C828 C 0.86633 0.12566 0.45817 0.0
C829 C 0.83575 0.15582 0.42453 0.0
C830 C 0.68857 0.01966 0.22989 0.0
C831 C 0.6534 0.04589 0.26415 0.0
C832 C 0.67591 0.99229 0.20566 0.0
C833 C 0.62761 0.99024 0.21479 0.0
H834 H 0.72488 0.02406 0.21871 0.0
H835 H 0.7026 0.97715 0.17615 0.0
S836 S 0.52444 0.04506 0.30683 0.0
N837 N 0.57046 0.0621 0.31078 0.0
N838 N 0.54637 0.01107 0.26477 0.0
C839 C 0.59373 0.01159 0.25259 0.0
C840 C 0.60672 0.03936 0.27746 0.0
C841 C 0.68639 0.82188 0.91935 0.0
C842 C 0.66386 0.80192 0.89622 0.0
C843 C 0.65833 0.85602 0.94976 0.0
C844 C 0.60656 0.87266 0.9571 0.0
H845 H 0.72619 0.81252 0.91235 0.0
H846 H 0.6773 0.87181 0.96511 0.0
S847 S 0.52942 0.82943 0.90773 0.0
N848 N 0.58665 0.7988 0.88566 0.0
N849 N 0.53381 0.8638 0.94143 0.0
C850 C 0.5836 0.85119 0.93597 0.0
C851 C 0.61222 0.8156 0.90594 0.0
C852 C 0.86658 0.00743 0.67273 0.0
C853 C 0.91633 0.97855 0.66507 0.0
C854 C 0.83381 0.99067 0.71114 0.0
C855 C 0.85076 0.94411 0.74072 0.0
H856 H 0.85218 0.03924 0.64605 0.0
H857 H 0.7946 0.00899 0.71213 0.0
S858 S 0.98082 0.86736 0.74482 0.0
N859 N 0.98341 0.91138 0.69697 0.0
N860 N 0.92184 0.87955 0.76954 0.0
C861 C 0.90175 0.92195 0.7394 0.0
C862 C 0.93486 0.93871 0.7003 0.0
C863 C 0.12262 0.82102 0.90368 0.0
C864 C 0.16177 0.83253 0.86954 0.0
C865 C 0.09275 0.85346 0.93475 0.0
C866 C 0.10119 0.89833 0.93279 0.0
H867 H 0.11522 0.78665 0.9067 0.0
H868 H 0.06289 0.84318 0.96055 0.0
S869 S 0.19767 0.94691 0.84833 0.0
N870 N 0.20625 0.89316 0.83444 0.0
N871 N 0.15062 0.95319 0.8932 0.0
C872 C 0.14007 0.91035 0.89869 0.0
C873 C 0.17018 0.87771 0.86692 0.0
C874 C 0.89209 0.38553 0.5914 0.0
C875 C 0.91666 0.4072 0.61107 0.0
C876 C 0.86272 0.35466 0.61996 0.0
C877 C 0.8543 0.34441 0.67051 0.0
H878 H 0.89586 0.39213 0.5531 0.0
H879 H 0.84552 0.33953 0.60202 0.0
S880 S 0.90966 0.39078 0.74136 0.0
N881 N 0.93045 0.41389 0.68582 0.0
N882 N 0.87483 0.35904 0.73836 0.0
C883 C 0.87851 0.36599 0.69059 0.0
C884 C 0.90948 0.39619 0.66151 0.0
C885 C 0.39215 0.09785 0.42582 0.0
C886 C 0.43821 0.10375 0.42186 0.0
C887 C 0.35988 0.12865 0.39548 0.0
C888 C 0.37216 0.16681 0.35987 0.0
H889 H 0.38073 0.06886 0.45254 0.0
H890 H 0.32498 0.12228 0.40008 0.0
S891 S 0.48847 0.19789 0.33427 0.0
N892 N 0.49473 0.15054 0.37972 0.0
N893 N 0.43366 0.2092 0.32211 0.0
C894 C 0.41787 0.1738 0.35571 0.0
C895 C 0.45096 0.14214 0.3869 0.0
C896 C 0.5965 0.70097 0.09393 0.0
C897 C 0.56444 0.6723 0.10811 0.0
C898 C 0.61083 0.7156 0.12778 0.0
C899 C 0.59428 0.70113 0.17678 0.0
H900 H 0.61196 0.71048 0.05662 0.0
H901 H 0.6373 0.73587 0.11568 0.0
S902 S 0.50744 0.62885 0.23197 0.0
N903 N 0.5141 0.63256 0.17414 0.0
N904 N 0.54212 0.6594 0.23777 0.0
C905 C 0.56062 0.67436 0.19133 0.0
C906 C 0.54535 0.66015 0.1569 0.0
C907 C 0.08897 0.21618 0.63821 0.0
C908 C 0.08045 0.19694 0.6874 0.0
C909 C 0.0696 0.20344 0.60683 0.0
C910 C 0.04045 0.17176 0.62377 0.0
H911 H 0.11339 0.23862 0.62349 0.0
H912 H 0.07944 0.21641 0.56893 0.0
S913 S 1.00311 0.11595 0.74981 0.0
N914 N 0.03785 0.14816 0.75199 0.0
N915 N 1.00095 0.12431 0.693 0.0
C916 C 0.02888 0.15506 0.67316 0.0
C917 C 0.04911 0.16756 0.70504 0.0
C918 C 0.67316 0.35088 0.39019 0.0
C919 C 0.65561 0.31476 0.38368 0.0
C920 C 0.64426 0.38561 0.41878 0.0
C921 C 0.59668 0.38558 0.44239 0.0
H922 H 0.70944 0.35321 0.37239 0.0
H923 H 0.65923 0.41316 0.4217 0.0
S924 S 0.53489 0.29593 0.44103 0.0
N925 N 0.58891 0.27889 0.40564 0.0
N926 N 0.53408 0.34421 0.46027 0.0
C927 C 0.57922 0.34832 0.43806 0.0
C928 C 0.60882 0.31288 0.40851 0.0
C929 C 0.39616 0.88042 0.08913 0.0
C930 C 0.42121 0.90057 0.10991 0.0
C931 C 0.36695 0.84896 0.11658 0.0
C932 C 0.35919 0.83652 0.1671 0.0
H933 H 0.39945 0.8887 0.05081 0.0
H934 H 0.34929 0.83517 0.09785 0.0
S935 S 0.41579 0.8784 0.24055 0.0
N936 N 0.43609 0.90346 0.18556 0.0
N937 N 0.38067 0.84764 0.23614 0.0
C938 C 0.38384 0.8566 0.18826 0.0
C939 C 0.41467 0.88737 0.16027 0.0
C940 C 0.89225 0.57692 0.91657 0.0
C941 C 0.93085 0.59227 0.92027 0.0
C942 C 0.85925 0.60588 0.8862 0.0
C943 C 0.86332 0.65149 0.85818 0.0
H944 H 0.88721 0.54205 0.9373 0.0
H945 H 0.83013 0.59236 0.88503 0.0
S946 S 0.95849 0.70835 0.85366 0.0
N947 N 0.97166 0.65585 0.89289 0.0
N948 N 0.90961 0.71061 0.83527 0.0
C949 C 0.90194 0.66735 0.86113 0.0
C950 C 0.93564 0.63772 0.89234 0.0
C951 C 0.37873 0.52307 0.16311 0.0
C952 C 0.42958 0.49868 0.15773 0.0
C953 C 0.34678 0.50331 0.20003 0.0
C954 C 0.36589 0.45798 0.23025 0.0
H955 H 0.36362 0.55251 0.13506 0.0
H956 H 0.3077 0.51776 0.19908 0.0
S957 S 0.49672 0.39383 0.24108 0.0
N958 N 0.49788 0.43841 0.19349 0.0
N959 N 0.4378 0.40027 0.26278 0.0
C960 C 0.41638 0.44106 0.2318 0.0
C961 C 0.44873 0.46139 0.19453 0.0
C962 C 0.37524 0.56883 0.93113 0.0
C963 C 0.40056 0.58816 0.95165 0.0
C964 C 0.3443 0.59996 0.89909 0.0
C965 C 0.33809 0.65127 0.88622 0.0
H966 H 0.3808 0.52914 0.93832 0.0
H967 H 0.32707 0.58337 0.88262 0.0
S968 S 0.38848 0.72183 0.93631 0.0
N969 N 0.41156 0.66311 0.96167 0.0
N970 N 0.35413 0.72111 0.90099 0.0
C971 C 0.36038 0.67154 0.90888 0.0
C972 C 0.3914 0.6401 0.94179 0.0
C973 C 0.16422 0.51911 0.69725 0.0
C974 C 0.11501 0.51951 0.70763 0.0
C975 C 0.18028 0.5436 0.72158 0.0
C976 C 0.14755 0.57012 0.75682 0.0
H977 H 0.18964 0.50283 0.66777 0.0
H978 H 0.21779 0.54475 0.71019 0.0
S979 S 0.0164 0.57673 0.80126 0.0
N980 N 0.03485 0.54414 0.75838 0.0
N981 N 0.06486 0.59022 0.80451 0.0
C982 C 0.09905 0.56778 0.7698 0.0
C983 C 0.08285 0.54243 0.74513 0.0
C984 C 0.33999 0.28972 0.60562 0.0
C985 C 0.29299 0.3057 0.63333 0.0
C986 C 0.35653 0.32281 0.56738 0.0
C987 C 0.32691 0.37278 0.55796 0.0
H988 H 0.36586 0.25358 0.6168 0.0
H989 H 0.3952 0.31159 0.5509 0.0
S990 S 0.19619 0.42655 0.60981 0.0
N991 N 0.21264 0.36918 0.64087 0.0
N992 N 0.24507 0.43255 0.56947 0.0
C993 C 0.27712 0.386 0.57945 0.0
C994 C 0.25983 0.35202 0.61781 0.0
C995 C 0.22032 0.67103 0.03892 0.0
C996 C 0.25036 0.63628 0.07049 0.0
C997 C 0.19561 0.65572 1.01412 0.0
C998 C 0.19961 0.6051 0.02046 0.0
H999 H 0.21301 0.71059 0.03608 0.0
H1000 H 0.17092 0.68401 0.99205 0.0
S1001 S 0.27719 0.49944 0.09659 0.0
N1002 N 0.28596 0.54925 0.10394 0.0
N1003 N 0.23918 0.52008 0.05849 0.0
C1004 C 0.23256 0.56979 0.04935 0.0
C1005 C 0.25794 0.58551 0.07416 0.0
C1006 C 0.62601 0.40672 0.691 0.0
C1007 C 0.63273 0.35555 0.70777 0.0
C1008 C 0.5947 0.43509 0.65799 0.0
C1009 C 0.56787 0.41385 0.64116 0.0
H1010 H 0.64747 0.42423 0.70101 0.0
H1011 H 0.5928 0.47376 0.64426 0.0
S1012 S 0.56873 0.28236 0.67823 0.0
N1013 N 0.60748 0.28551 0.70757 0.0
N1014 N 0.54769 0.33899 0.64714 0.0
C1015 C 0.57184 0.36349 0.66021 0.0
C1016 C 0.60454 0.33437 0.69294 0.0
C1017 C 0.85638 0.59089 0.1807 0.0
C1018 C 0.87322 0.62167 0.19699 0.0
C1019 C 0.88719 0.56165 0.14703 0.0
C1020 C 0.93571 0.5627 0.12782 0.0
H1021 H 0.8187 0.59043 0.19298 0.0
H1022 H 0.87216 0.5396 0.13461 0.0
S1023 S 0.9994 0.63317 0.1617 0.0
N1024 N 0.94329 0.64815 0.19384 0.0
N1025 N 1.00045 0.59393 0.13027 0.0
C1026 C 0.9537 0.59156 0.14529 0.0
C1027 C 0.92269 0.62077 0.17997 0.0
C1028 C 0.85317 0.62802 0.59715 0.0
C1029 C 0.90154 0.62824 0.5766 0.0
C1030 C 0.82512 0.65518 0.63339 0.0
C1031 C 0.84402 0.68421 0.65009 0.0
H1032 H 0.83818 0.60395 0.58764 0.0
H1033 H 0.78884 0.65194 0.64963 0.0
S1034 S 0.96701 0.70156 0.60349 0.0
N1035 N 0.96597 0.66265 0.57271 0.0
N1036 N 0.91291 0.71476 0.63961 0.0
C1037 C 0.89111 0.68747 0.62729 0.0
C1038 C 0.91993 0.65915 0.59096 0.0
C1039 C 0.43633 0.6365 0.37787 0.0
C1040 C 0.44621 0.5846 0.39145 0.0
C1041 C 0.40496 0.66501 0.3451 0.0
C1042 C 0.38313 0.6428 0.32348 0.0
H1043 H 0.45033 0.65565 0.39491 0.0
H1044 H 0.3962 0.70519 0.33796 0.0
S1045 S 0.40283 0.50736 0.34186 0.0
N1046 N 0.43519 0.51154 0.37742 0.0
N1047 N 0.37774 0.56503 0.31483 0.0
C1048 C 0.39576 0.59058 0.33398 0.0
C1049 C 0.42679 0.56158 0.36824 0.0
C1050 C 0.19276 0.37945 0.85525 0.0
C1051 C 0.17601 0.35076 0.8361 0.0
C1052 C 0.16041 0.41068 0.88669 0.0
C1053 C 0.11028 0.41382 0.9007 0.0
H1054 H 0.23146 0.37649 0.84728 0.0
H1055 H 0.17533 0.43071 0.9018 0.0
S1056 S 0.04617 0.35186 0.85625 0.0
N1057 N 0.10431 0.33202 0.8298 0.0
N1058 N 0.04432 0.38974 0.88957 0.0
C1059 C 0.09247 0.38754 0.87997 0.0
C1060 C 0.1251 0.35634 0.84745 0.0
C1061 C 0.1917 0.3495 0.40803 0.0
C1062 C 0.17338 0.32278 0.38783 0.0
C1063 C 0.16105 0.37885 0.44196 0.0
C1064 C 0.1107 0.38337 0.45621 0.0
H1065 H 0.2298 0.34874 0.39665 0.0
H1066 H 0.17617 0.40049 0.45481 0.0
S1067 S 0.04484 0.31927 0.41649 0.0
N1068 N 0.10205 0.30068 0.38722 0.0
N1069 N 0.04441 0.35685 0.44948 0.0
C1070 C 0.0924 0.35544 0.4377 0.0
C1071 C 0.12371 0.32486 0.40397 0.0
loop_
_geom_bond_atom_site_label_1
_geom_bond_atom_site_label_2
_geom_bond_distance
_geom_bond_site_symmetry_2
_ccdc_geom_bond_type
C0 O16 1.251 . S
C0 O18 1.254 . S
N1 C2 1.333 . S
N1 C6 1.307 . S
N1 Zn7 2.020 . S
C2 N1 1.333 . S
C2 C3 1.379 . S
C2 H20 0.952 . S
C3 C2 1.379 . S
C3 C4 1.390 . S
C3 H30 0.949 . S
C4 C3 1.390 . S
C4 C5 1.357 . S
C5 C4 1.357 . S
C5 C6 1.370 . S
C5 H31 0.950 . S
C6 N1 1.307 . S
C6 C5 1.370 . S
C6 H24 0.948 . S
Zn7 N1 2.020 . S
Zn7 O16 2.039 1_565 S
Zn7 O22 2.034 1_655 S
Zn7 O26 2.025 1_654 S
Zn7 O28 2.024 1_564 S
C8 O27 1.246 . S
C8 O28 1.249 . S
N9 C10 1.307 . S
N9 C11 1.333 . S
N9 Zn15 2.020 . S
C10 N9 1.307 . S
C10 C14 1.370 . S
C10 H21 0.948 1_556 S
C11 N9 1.333 . S
C11 C12 1.379 . S
C11 H19 0.952 . S
C12 C11 1.379 . S
C12 C13 1.390 . S
C12 H32 0.949 . S
C13 C12 1.390 . S
C13 C14 1.357 . S
C14 C10 1.370 . S
C14 C13 1.357 . S
C14 H33 0.950 . S
Zn15 N9 2.020 . S
Zn15 O18 2.025 1_456 S
Zn15 O23 2.024 1_546 S
Zn15 O25 2.039 1_545 S
Zn15 O27 2.034 1_455 S
O16 C0 1.251 . S
O16 Zn7 2.039 1_545 S
C17 O22 1.246 . S
C17 O23 1.249 . S
O18 C0 1.254 . S
O18 Zn15 2.025 1_654 S
H19 C11 0.952 . S
H20 C2 0.952 . S
H21 C10 0.948 1_554 S
O22 Zn7 2.034 1_455 S
O22 C17 1.246 . S
O23 Zn15 2.024 1_564 S
O23 C17 1.249 . S
H24 C6 0.948 . S
O25 Zn15 2.039 1_565 S
O25 C29 1.251 . S
O26 Zn7 2.025 1_456 S
O26 C29 1.254 . S
O27 C8 1.246 . S
O27 Zn15 2.034 1_655 S
O28 Zn7 2.024 1_546 S
O28 C8 1.249 . S
C29 O25 1.251 . S
C29 O26 1.254 . S
H30 C3 0.949 . S
H31 C5 0.950 . S
H32 C12 0.949 . S
H33 C14 0.950 . S
C34 O50 1.251 . S
C34 O52 1.254 . S
N35 C36 1.333 . S
N35 C40 1.307 . S
N35 Zn41 2.020 . S
C36 N35 1.333 . S
C36 C37 1.379 . S
C36 H54 0.952 . S
C37 C36 1.379 . S
C37 C38 1.390 . S
C37 H64 0.949 . S
C38 C37 1.390 . S
C38 C39 1.357 . S
C39 C38 1.357 . S
C39 C40 1.370 . S
C39 H65 0.950 . S
C40 N35 1.307 . S
C40 C39 1.370 . S
C40 H58 0.948 . S
Zn41 N35 2.020 . S
Zn41 O50 2.039 . S
Zn41 O56 2.034 . S
Zn41 O60 2.025 . S
Zn41 O62 2.024 . S
C42 O61 1.246 . S
C42 O62 1.249 . S
N43 C44 1.307 . S
N43 C45 1.333 . S
N43 Zn49 2.020 . S
C44 N43 1.307 . S
C44 C48 1.370 . S
C44 H55 0.948 . S
C45 N43 1.333 . S
C45 C46 1.379 . S
C45 H53 0.952 . S
C46 C45 1.379 . S
C46 C47 1.390 . S
C46 H66 0.949 . S
C47 C46 1.390 . S
C47 C48 1.357 . S
C48 C44 1.370 . S
C48 C47 1.357 . S
C48 H67 0.950 . S
Zn49 N43 2.020 . S
Zn49 O52 2.025 . S
Zn49 O57 2.024 . S
Zn49 O59 2.039 . S
Zn49 O61 2.034 . S
O50 C34 1.251 . S
O50 Zn41 2.039 . S
C51 O56 1.246 . S
C51 O57 1.249 . S
O52 C34 1.254 . S
O52 Zn49 2.025 . S
H53 C45 0.952 . S
H54 C36 0.952 . S
H55 C44 0.948 . S
O56 Zn41 2.034 . S
O56 C51 1.246 . S
O57 Zn49 2.024 . S
O57 C51 1.249 . S
H58 C40 0.948 . S
O59 Zn49 2.039 . S
O59 C63 1.251 . S
O60 Zn41 2.025 . S
O60 C63 1.254 . S
O61 C42 1.246 . S
O61 Zn49 2.034 . S
O62 Zn41 2.024 . S
O62 C42 1.249 . S
C63 O59 1.251 . S
C63 O60 1.254 . S
H64 C37 0.949 . S
H65 C39 0.950 . S
H66 C46 0.949 . S
H67 C48 0.950 . S
C68 O84 1.251 . S
C68 O86 1.254 . S
N69 C70 1.333 . S
N69 C74 1.307 . S
N69 Zn75 2.020 . S
C70 N69 1.333 . S
C70 C71 1.379 . S
C70 H88 0.952 . S
C71 C70 1.379 . S
C71 C72 1.390 . S
C71 H98 0.949 . S
C72 C71 1.390 . S
C72 C73 1.357 . S
C73 C72 1.357 . S
C73 C74 1.370 . S
C73 H99 0.950 . S
C74 N69 1.307 . S
C74 C73 1.370 . S
C74 H92 0.948 . S
Zn75 N69 2.020 . S
Zn75 O84 2.039 1_545 S
Zn75 O90 2.034 . S
Zn75 O94 2.025 . S
Zn75 O96 2.024 1_545 S
C76 O95 1.246 . S
C76 O96 1.249 . S
N77 C78 1.307 . S
N77 C79 1.333 . S
N77 Zn83 2.020 . S
C78 N77 1.307 . S
C78 C82 1.370 . S
C78 H89 0.948 . S
C79 N77 1.333 . S
C79 C80 1.379 . S
C79 H87 0.952 . S
C80 C79 1.379 . S
C80 C81 1.390 . S
C80 H100 0.949 . S
C81 C80 1.390 . S
C81 C82 1.357 . S
C82 C78 1.370 . S
C82 C81 1.357 . S
C82 H101 0.950 . S
Zn83 N77 2.020 . S
Zn83 O86 2.025 . S
Zn83 O91 2.024 1_565 S
Zn83 O93 2.039 1_565 S
Zn83 O95 2.034 . S
O84 C68 1.251 . S
O84 Zn75 2.039 1_565 S
C85 O90 1.246 . S
C85 O91 1.249 . S
O86 C68 1.254 . S
O86 Zn83 2.025 . S
H87 C79 0.952 . S
H88 C70 0.952 . S
H89 C78 0.948 . S
O90 Zn75 2.034 . S
O90 C85 1.246 . S
O91 Zn83 2.024 1_545 S
O91 C85 1.249 . S
H92 C74 0.948 . S
O93 Zn83 2.039 1_545 S
O93 C97 1.251 . S
O94 Zn75 2.025 . S
O94 C97 1.254 . S
O95 C76 1.246 . S
O95 Zn83 2.034 . S
O96 Zn75 2.024 1_565 S
O96 C76 1.249 . S
C97 O93 1.251 . S
C97 O94 1.254 . S
H98 C71 0.949 . S
H99 C73 0.950 . S
H100 C80 0.949 . S
H101 C82 0.950 . S
C102 O118 1.251 . S
C102 O120 1.254 . S
N103 C104 1.333 . S
N103 C108 1.307 . S
N103 Zn109 2.020 . S
C104 N103 1.333 . S
C104 C105 1.379 . S
C104 H122 0.952 . S
C105 C104 1.379 . S
C105 C106 1.390 . S
C105 H132 0.949 . S
C106 C105 1.390 . S
C106 C107 1.357 . S
C107 C106 1.357 . S
C107 C108 1.370 . S
C107 H133 0.950 . S
C108 N103 1.307 . S
C108 C107 1.370 . S
C108 H126 0.948 . S
Zn109 N103 2.020 . S
Zn109 O118 2.039 . S
Zn109 O124 2.034 . S
Zn109 O128 2.025 . S
Zn109 O130 2.024 . S
C110 O129 1.246 . S
C110 O130 1.249 . S
N111 C112 1.307 . S
N111 C113 1.333 . S
N111 Zn117 2.020 . S
C112 N111 1.307 . S
C112 C116 1.370 . S
C112 H123 0.948 . S
C113 N111 1.333 . S
C113 C114 1.379 . S
C113 H121 0.952 . S
C114 C113 1.379 . S
C114 C115 1.390 . S
C114 H134 0.949 . S
C115 C114 1.390 . S
C115 C116 1.357 . S
C116 C112 1.370 . S
C116 C115 1.357 . S
C116 H135 0.950 . S
Zn117 N111 2.020 . S
Zn117 O120 2.025 . S
Zn117 O125 2.024 . S
Zn117 O127 2.039 . S
Zn117 O129 2.034 . S
O118 C102 1.251 . S
O118 Zn109 2.039 . S
C119 O124 1.246 . S
C119 O125 1.249 . S
O120 C102 1.254 . S
O120 Zn117 2.025 . S
H121 C113 0.952 . S
H122 C104 0.952 . S
H123 C112 0.948 . S
O124 Zn109 2.034 . S
O124 C119 1.246 . S
O125 Zn117 2.024 . S
O125 C119 1.249 . S
H126 C108 0.948 . S
O127 Zn117 2.039 . S
O127 C131 1.251 . S
O128 Zn109 2.025 . S
O128 C131 1.254 . S
O129 C110 1.246 . S
O129 Zn117 2.034 . S
O130 Zn109 2.024 . S
O130 C110 1.249 . S
C131 O127 1.251 . S
C131 O128 1.254 . S
H132 C105 0.949 . S
H133 C107 0.950 . S
H134 C114 0.949 . S
H135 C116 0.950 . S
C136 O152 1.251 . S
C136 O154 1.254 . S
N137 C138 1.333 . S
N137 C142 1.307 1_655 S
N137 Zn143 2.020 1_655 S
C138 N137 1.333 . S
C138 C139 1.379 . S
C138 H156 0.952 . S
C139 C138 1.379 . S
C139 C140 1.390 . S
C139 H166 0.949 . S
C140 C139 1.390 . S
C140 C141 1.357 1_655 S
C141 C140 1.357 1_455 S
C141 C142 1.370 . S
C141 H167 0.950 . S
C142 N137 1.307 1_455 S
C142 C141 1.370 . S
C142 H160 0.948 . S
Zn143 N137 2.020 1_455 S
Zn143 O152 2.039 1_465 S
Zn143 O158 2.034 1_455 S
Zn143 O162 2.025 . S
Zn143 O164 2.024 . S
C144 O163 1.246 . S
C144 O164 1.249 1_545 S
N145 C146 1.307 1_455 S
N145 C147 1.333 . S
N145 Zn151 2.020 1_455 S
C146 N145 1.307 1_655 S
C146 C150 1.370 . S
C146 H157 0.948 . S
C147 N145 1.333 . S
C147 C148 1.379 . S
C147 H155 0.952 . S
C148 C147 1.379 . S
C148 C149 1.390 . S
C148 H168 0.949 . S
C149 C148 1.390 . S
C149 C150 1.357 1_455 S
C150 C146 1.370 . S
C150 C149 1.357 1_655 S
C150 H169 0.950 . S
Zn151 N145 2.020 1_655 S
Zn151 O154 2.025 . S
Zn151 O159 2.024 . S
Zn151 O161 2.039 1_645 S
Zn151 O163 2.034 1_655 S
O152 C136 1.251 . S
O152 Zn143 2.039 1_645 S
C153 O158 1.246 . S
C153 O159 1.249 1_565 S
O154 C136 1.254 . S
O154 Zn151 2.025 . S
H155 C147 0.952 . S
H156 C138 0.952 . S
H157 C146 0.948 . S
O158 Zn143 2.034 1_655 S
O158 C153 1.246 . S
O159 Zn151 2.024 . S
O159 C153 1.249 1_545 S
H160 C142 0.948 . S
O161 Zn151 2.039 1_465 S
O161 C165 1.251 . S
O162 Zn143 2.025 . S
O162 C165 1.254 . S
O163 C144 1.246 . S
O163 Zn151 2.034 1_455 S
O164 Zn143 2.024 . S
O164 C144 1.249 1_565 S
C165 O161 1.251 . S
C165 O162 1.254 . S
H166 C139 0.949 . S
H167 C141 0.950 . S
H168 C148 0.949 . S
H169 C150 0.950 . S
C170 O186 1.251 . S
C170 O188 1.254 . S
N171 C172 1.333 . S
N171 C176 1.307 . S
N171 Zn177 2.020 . S
C172 N171 1.333 . S
C172 C173 1.379 . S
C172 H190 0.952 . S
C173 C172 1.379 . S
C173 C174 1.390 . S
C173 H200 0.949 . S
C174 C173 1.390 . S
C174 C175 1.357 . S
C175 C174 1.357 . S
C175 C176 1.370 . S
C175 H201 0.950 . S
C176 N171 1.307 . S
C176 C175 1.370 . S
C176 H194 0.948 . S
Zn177 N171 2.020 . S
Zn177 O186 2.039 . S
Zn177 O192 2.034 . S
Zn177 O196 2.025 . S
Zn177 O198 2.024 . S
C178 O197 1.246 . S
C178 O198 1.249 . S
N179 C180 1.307 . S
N179 C181 1.333 . S
N179 Zn185 2.020 . S
C180 N179 1.307 . S
C180 C184 1.370 . S
C180 H191 0.948 . S
C181 N179 1.333 . S
C181 C182 1.379 . S
C181 H189 0.952 . S
C182 C181 1.379 . S
C182 C183 1.390 . S
C182 H202 0.949 . S
C183 C182 1.390 . S
C183 C184 1.357 . S
C184 C180 1.370 . S
C184 C183 1.357 . S
C184 H203 0.950 . S
Zn185 N179 2.020 . S
Zn185 O188 2.025 . S
Zn185 O193 2.024 . S
Zn185 O195 2.039 . S
Zn185 O197 2.034 . S
O186 C170 1.251 . S
O186 Zn177 2.039 . S
C187 O192 1.246 . S
C187 O193 1.249 . S
O188 C170 1.254 . S
O188 Zn185 2.025 . S
H189 C181 0.952 . S
H190 C172 0.952 . S
H191 C180 0.948 . S
O192 Zn177 2.034 . S
O192 C187 1.246 . S
O193 Zn185 2.024 . S
O193 C187 1.249 . S
H194 C176 0.948 . S
O195 Zn185 2.039 . S
O195 C199 1.251 . S
O196 Zn177 2.025 . S
O196 C199 1.254 . S
O197 C178 1.246 . S
O197 Zn185 2.034 . S
O198 Zn177 2.024 . S
O198 C178 1.249 . S
C199 O195 1.251 . S
C199 O196 1.254 . S
H200 C173 0.949 . S
H201 C175 0.950 . S
H202 C182 0.949 . S
H203 C184 0.950 . S
C204 O220 1.251 . S
C204 O222 1.254 . S
N205 C206 1.333 . S
N205 C210 1.307 1_545 S
N205 Zn211 2.020 . S
C206 N205 1.333 . S
C206 C207 1.379 . S
C206 H224 0.952 . S
C207 C206 1.379 . S
C207 C208 1.390 . S
C207 H234 0.949 . S
C208 C207 1.390 . S
C208 C209 1.357 1_545 S
C209 C208 1.357 1_565 S
C209 C210 1.370 . S
C209 H235 0.950 . S
C210 N205 1.307 1_565 S
C210 C209 1.370 . S
C210 H228 0.948 . S
Zn211 N205 2.020 . S
Zn211 O220 2.039 . S
Zn211 O226 2.034 1_554 S
Zn211 O230 2.025 1_544 S
Zn211 O232 2.024 1_545 S
C212 O231 1.246 . S
C212 O232 1.249 . S
N213 C214 1.306 1_565 S
N213 C215 1.334 . S
N213 Zn219 2.019 1_565 S
C214 N213 1.306 1_545 S
C214 C218 1.370 . S
C214 H225 0.948 . S
C215 N213 1.334 . S
C215 C216 1.379 . S
C215 H223 0.952 . S
C216 C215 1.379 . S
C216 C217 1.390 . S
C216 H236 0.949 . S
C217 C216 1.390 . S
C217 C218 1.357 1_565 S
C218 C214 1.370 . S
C218 C217 1.357 1_545 S
C218 H237 0.950 . S
Zn219 N213 2.019 1_545 S
Zn219 O222 2.025 1_556 S
Zn219 O227 2.024 . S
Zn219 O229 2.039 1_545 S
Zn219 O231 2.034 1_546 S
O220 C204 1.251 . S
O220 Zn211 2.039 . S
C221 O226 1.246 . S
C221 O227 1.249 . S
O222 C204 1.254 . S
O222 Zn219 2.025 1_554 S
H223 C215 0.952 . S
H224 C206 0.952 . S
H225 C214 0.948 . S
O226 Zn211 2.034 1_556 S
O226 C221 1.246 . S
O227 Zn219 2.024 . S
O227 C221 1.249 . S
H228 C210 0.948 . S
O229 Zn219 2.039 1_565 S
O229 C233 1.251 . S
O230 Zn211 2.025 1_566 S
O230 C233 1.254 . S
O231 C212 1.246 . S
O231 Zn219 2.034 1_564 S
O232 Zn211 2.024 1_565 S
O232 C212 1.249 . S
C233 O229 1.251 . S
C233 O230 1.254 . S
H234 C207 0.949 . S
H235 C209 0.950 . S
H236 C216 0.949 . S
H237 C218 0.950 . S
C238 O254 1.251 . S
C238 O256 1.254 . S
N239 C240 1.333 . S
N239 C244 1.307 . S
N239 Zn245 2.020 . S
C240 N239 1.333 . S
C240 C241 1.379 . S
C240 H258 0.952 . S
C241 C240 1.379 . S
C241 C242 1.390 . S
C241 H268 0.949 . S
C242 C241 1.390 . S
C242 C243 1.357 . S
C243 C242 1.357 . S
C243 C244 1.370 . S
C243 H269 0.950 . S
C244 N239 1.307 . S
C244 C243 1.370 . S
C244 H262 0.948 . S
Zn245 N239 2.020 . S
Zn245 O254 2.039 . S
Zn245 O260 2.034 . S
Zn245 O264 2.025 . S
Zn245 O266 2.024 . S
C246 O265 1.246 . S
C246 O266 1.249 . S
N247 C248 1.307 . S
N247 C249 1.333 . S
N247 Zn253 2.020 . S
C248 N247 1.307 . S
C248 C252 1.370 . S
C248 H259 0.948 . S
C249 N247 1.333 . S
C249 C250 1.379 . S
C249 H257 0.952 . S
C250 C249 1.379 . S
C250 C251 1.390 . S
C250 H270 0.949 . S
C251 C250 1.390 . S
C251 C252 1.357 . S
C252 C248 1.370 . S
C252 C251 1.357 . S
C252 H271 0.950 . S
Zn253 N247 2.020 . S
Zn253 O256 2.025 . S
Zn253 O261 2.024 . S
Zn253 O263 2.039 . S
Zn253 O265 2.034 . S
O254 C238 1.251 . S
O254 Zn245 2.039 . S
C255 O260 1.246 . S
C255 O261 1.249 . S
O256 C238 1.254 . S
O256 Zn253 2.025 . S
H257 C249 0.952 . S
H258 C240 0.952 . S
H259 C248 0.948 . S
O260 Zn245 2.034 . S
O260 C255 1.246 . S
O261 Zn253 2.024 . S
O261 C255 1.249 . S
H262 C244 0.948 . S
O263 Zn253 2.039 . S
O263 C267 1.251 . S
O264 Zn245 2.025 . S
O264 C267 1.254 . S
O265 C246 1.246 . S
O265 Zn253 2.034 . S
O266 Zn245 2.024 . S
O266 C246 1.249 . S
C267 O263 1.251 . S
C267 O264 1.254 . S
H268 C241 0.949 . S
H269 C243 0.950 . S
H270 C250 0.949 . S
H271 C252 0.950 . S
C272 O288 1.251 . S
C272 O290 1.254 . S
N273 C274 1.333 . S
N273 C278 1.307 . S
N273 Zn279 2.020 . S
C274 N273 1.333 . S
C274 C275 1.379 . S
C274 H292 0.952 . S
C275 C274 1.379 . S
C275 C276 1.390 . S
C275 H302 0.949 . S
C276 C275 1.390 . S
C276 C277 1.357 . S
C277 C276 1.357 . S
C277 C278 1.370 . S
C277 H303 0.950 . S
C278 N273 1.307 . S
C278 C277 1.370 . S
C278 H296 0.948 . S
Zn279 N273 2.020 . S
Zn279 O288 2.039 . S
Zn279 O294 2.034 1_556 S
Zn279 O298 2.025 1_556 S
Zn279 O300 2.024 . S
C280 O299 1.246 . S
C280 O300 1.249 . S
N281 C282 1.307 . S
N281 C283 1.333 . S
N281 Zn287 2.020 . S
C282 N281 1.307 . S
C282 C286 1.370 . S
C282 H293 0.948 . S
C283 N281 1.333 . S
C283 C284 1.379 . S
C283 H291 0.952 . S
C284 C283 1.379 . S
C284 C285 1.390 . S
C284 H304 0.949 . S
C285 C284 1.390 . S
C285 C286 1.357 . S
C286 C282 1.370 . S
C286 C285 1.357 . S
C286 H305 0.950 . S
Zn287 N281 2.020 . S
Zn287 O290 2.025 1_554 S
Zn287 O295 2.024 . S
Zn287 O297 2.039 . S
Zn287 O299 2.034 1_554 S
O288 C272 1.251 . S
O288 Zn279 2.039 . S
C289 O294 1.246 . S
C289 O295 1.249 . S
O290 C272 1.254 . S
O290 Zn287 2.025 1_556 S
H291 C283 0.952 . S
H292 C274 0.952 . S
H293 C282 0.948 . S
O294 Zn279 2.034 1_554 S
O294 C289 1.246 . S
O295 Zn287 2.024 . S
O295 C289 1.249 . S
H296 C278 0.948 . S
O297 Zn287 2.039 . S
O297 C301 1.251 . S
O298 Zn279 2.025 1_554 S
O298 C301 1.254 . S
O299 C280 1.246 . S
O299 Zn287 2.034 1_556 S
O300 Zn279 2.024 . S
O300 C280 1.249 . S
C301 O297 1.251 . S
C301 O298 1.254 . S
H302 C275 0.949 . S
H303 C277 0.950 . S
H304 C284 0.949 . S
H305 C286 0.950 . S
C306 O322 1.251 . S
C306 O324 1.254 . S
N307 C308 1.333 . S
N307 C312 1.307 . S
N307 Zn313 2.020 . S
C308 N307 1.333 . S
C308 C309 1.379 . S
C308 H326 0.952 . S
C309 C308 1.379 . S
C309 C310 1.390 . S
C309 H336 0.949 . S
C310 C309 1.390 . S
C310 C311 1.357 . S
C311 C310 1.357 . S
C311 C312 1.370 . S
C311 H337 0.950 . S
C312 N307 1.307 . S
C312 C311 1.370 . S
C312 H330 0.948 . S
Zn313 N307 2.020 . S
Zn313 O322 2.039 . S
Zn313 O328 2.034 . S
Zn313 O332 2.025 . S
Zn313 O334 2.024 . S
C314 O333 1.246 . S
C314 O334 1.249 . S
N315 C316 1.307 . S
N315 C317 1.333 . S
N315 Zn321 2.020 . S
C316 N315 1.307 . S
C316 C320 1.370 . S
C316 H327 0.948 . S
C317 N315 1.333 . S
C317 C318 1.379 . S
C317 H325 0.952 . S
C318 C317 1.379 . S
C318 C319 1.390 . S
C318 H338 0.949 . S
C319 C318 1.390 . S
C319 C320 1.357 . S
C320 C316 1.370 . S
C320 C319 1.357 . S
C320 H339 0.950 . S
Zn321 N315 2.020 . S
Zn321 O324 2.025 . S
Zn321 O329 2.024 . S
Zn321 O331 2.039 . S
Zn321 O333 2.034 . S
O322 C306 1.251 . S
O322 Zn313 2.039 . S
C323 O328 1.246 . S
C323 O329 1.249 . S
O324 C306 1.254 . S
O324 Zn321 2.025 . S
H325 C317 0.952 . S
H326 C308 0.952 . S
H327 C316 0.948 . S
O328 Zn313 2.034 . S
O328 C323 1.246 . S
O329 Zn321 2.024 . S
O329 C323 1.249 . S
H330 C312 0.948 . S
O331 Zn321 2.039 . S
O331 C335 1.251 . S
O332 Zn313 2.025 . S
O332 C335 1.254 . S
O333 C314 1.246 . S
O333 Zn321 2.034 . S
O334 Zn313 2.024 . S
O334 C314 1.249 . S
C335 O331 1.251 . S
C335 O332 1.254 . S
H336 C309 0.949 . S
H337 C311 0.950 . S
H338 C318 0.949 . S
H339 C320 0.950 . S
C340 O356 1.251 . S
C340 O358 1.254 . S
N341 C342 1.333 . S
N341 C346 1.307 . S
N341 Zn347 2.020 . S
C342 N341 1.333 . S
C342 C343 1.379 . S
C342 H360 0.952 . S
C343 C342 1.379 . S
C343 C344 1.390 . S
C343 H370 0.949 . S
C344 C343 1.390 . S
C344 C345 1.357 . S
C345 C344 1.357 . S
C345 C346 1.370 . S
C345 H371 0.950 . S
C346 N341 1.307 . S
C346 C345 1.370 . S
C346 H364 0.948 . S
Zn347 N341 2.020 . S
Zn347 O356 2.039 1_455 S
Zn347 O362 2.034 . S
Zn347 O366 2.025 . S
Zn347 O368 2.024 . S
C348 O367 1.246 . S
C348 O368 1.249 1_655 S
N349 C350 1.307 . S
N349 C351 1.333 . S
N349 Zn355 2.020 . S
C350 N349 1.307 . S
C350 C354 1.370 . S
C350 H361 0.948 . S
C351 N349 1.333 . S
C351 C352 1.379 . S
C351 H359 0.952 . S
C352 C351 1.379 . S
C352 C353 1.390 . S
C352 H372 0.949 . S
C353 C352 1.390 . S
C353 C354 1.357 . S
C354 C350 1.370 . S
C354 C353 1.357 . S
C354 H373 0.950 . S
Zn355 N349 2.020 . S
Zn355 O358 2.025 . S
Zn355 O363 2.039 . S
Zn355 O365 2.039 1_655 S
Zn355 O367 2.034 . S
O356 C340 1.251 . S
O356 Zn347 2.039 1_655 S
C357 O362 1.246 . S
C357 O363 1.225 1_455 S
O358 C340 1.254 . S
O358 Zn355 2.025 . S
H359 C351 0.952 . S
H360 C342 0.952 . S
H361 C350 0.948 . S
O362 Zn347 2.034 . S
O362 C357 1.246 . S
O363 Zn355 2.039 . S
O363 C357 1.225 1_655 S
H364 C346 0.948 . S
O365 Zn355 2.039 1_455 S
O365 C369 1.251 . S
O366 Zn347 2.025 . S
O366 C369 1.254 . S
O367 C348 1.246 . S
O367 Zn355 2.034 . S
O368 Zn347 2.024 . S
O368 C348 1.249 1_455 S
C369 O365 1.251 . S
C369 O366 1.254 . S
H370 C343 0.949 . S
H371 C345 0.950 . S
H372 C352 0.949 . S
H373 C354 0.950 . S
C374 O390 1.251 . S
C374 O392 1.254 . S
N375 C376 1.333 . S
N375 C380 1.307 . S
N375 Zn381 2.020 . S
C376 N375 1.333 . S
C376 C377 1.379 . S
C376 H394 0.952 . S
C377 C376 1.379 . S
C377 C378 1.390 . S
C377 H404 0.949 . S
C378 C377 1.390 . S
C378 C379 1.357 . S
C379 C378 1.357 . S
C379 C380 1.370 . S
C379 H405 0.950 . S
C380 N375 1.307 . S
C380 C379 1.370 . S
C380 H398 0.948 . S
Zn381 N375 2.020 . S
Zn381 O390 2.039 . S
Zn381 O396 2.034 . S
Zn381 O400 2.025 . S
Zn381 O402 2.024 . S
C382 O401 1.246 . S
C382 O402 1.249 . S
N383 C384 1.307 . S
N383 C385 1.333 . S
N383 Zn389 2.020 . S
C384 N383 1.307 . S
C384 C388 1.370 . S
C384 H395 0.948 . S
C385 N383 1.333 . S
C385 C386 1.379 . S
C385 H393 0.952 . S
C386 C385 1.379 . S
C386 C387 1.390 . S
C386 H406 0.949 . S
C387 C386 1.390 . S
C387 C388 1.357 . S
C388 C384 1.370 . S
C388 C387 1.357 . S
C388 H407 0.950 . S
Zn389 N383 2.020 . S
Zn389 O392 2.025 . S
Zn389 O397 2.024 . S
Zn389 O399 2.039 . S
Zn389 O401 2.034 . S
O390 C374 1.251 . S
O390 Zn381 2.039 . S
C391 O396 1.246 . S
C391 O397 1.249 . S
O392 C374 1.254 . S
O392 Zn389 2.025 . S
H393 C385 0.952 . S
H394 C376 0.952 . S
H395 C384 0.948 . S
O396 Zn381 2.034 . S
O396 C391 1.246 . S
O397 Zn389 2.024 . S
O397 C391 1.249 . S
H398 C380 0.948 . S
O399 Zn389 2.039 . S
O399 C403 1.251 . S
O400 Zn381 2.025 . S
O400 C403 1.254 . S
O401 C382 1.246 . S
O401 Zn389 2.034 . S
O402 Zn381 2.024 . S
O402 C382 1.249 . S
C403 O399 1.251 . S
C403 O400 1.254 . S
H404 C377 0.949 . S
H405 C379 0.950 . S
H406 C386 0.949 . S
H407 C388 0.950 . S
C408 O424 1.251 . S
C408 O426 1.254 . S
N409 C410 1.333 . S
N409 C414 1.307 . S
N409 Zn415 2.020 . S
C410 N409 1.333 . S
C410 C411 1.379 . S
C410 H428 0.952 . S
C411 C410 1.379 . S
C411 C412 1.390 . S
C411 H438 0.949 . S
C412 C411 1.390 . S
C412 C413 1.357 . S
C413 C412 1.357 . S
C413 C414 1.370 . S
C413 H439 0.950 . S
C414 N409 1.307 . S
C414 C413 1.370 . S
C414 H432 0.948 . S
Zn415 N409 2.020 . S
Zn415 O424 2.039 . S
Zn415 O430 2.034 . S
Zn415 O434 2.025 . S
Zn415 O436 2.024 . S
C416 O435 1.246 . S
C416 O436 1.249 . S
N417 C418 1.307 . S
N417 C419 1.333 . S
N417 Zn423 2.020 . S
C418 N417 1.307 . S
C418 C422 1.370 . S
C418 H429 0.948 . S
C419 N417 1.333 . S
C419 C420 1.379 . S
C419 H427 0.952 . S
C420 C419 1.379 . S
C420 C421 1.390 . S
C420 H440 0.949 . S
C421 C420 1.390 . S
C421 C422 1.357 . S
C422 C418 1.370 . S
C422 C421 1.357 . S
C422 H441 0.950 . S
Zn423 N417 2.020 . S
Zn423 O426 2.025 . S
Zn423 O431 2.024 . S
Zn423 O433 2.039 . S
Zn423 O435 2.034 . S
O424 C408 1.251 . S
O424 Zn415 2.039 . S
C425 O430 1.246 . S
C425 O431 1.249 . S
O426 C408 1.254 . S
O426 Zn423 2.025 . S
H427 C419 0.952 . S
H428 C410 0.952 . S
H429 C418 0.948 . S
O430 Zn415 2.034 . S
O430 C425 1.246 . S
O431 Zn423 2.024 . S
O431 C425 1.249 . S
H432 C414 0.948 . S
O433 Zn423 2.039 . S
O433 C437 1.251 . S
O434 Zn415 2.025 . S
O434 C437 1.254 . S
O435 C416 1.246 . S
O435 Zn423 2.034 . S
O436 Zn415 2.024 . S
O436 C416 1.249 . S
C437 O433 1.251 . S
C437 O434 1.254 . S
H438 C411 0.949 . S
H439 C413 0.950 . S
H440 C420 0.949 . S
H441 C422 0.950 . S
C442 O458 1.251 . S
C442 O460 1.254 . S
N443 C444 1.333 . S
N443 C448 1.307 . S
N443 Zn449 2.020 . S
C444 N443 1.333 . S
C444 C445 1.379 . S
C444 H462 0.952 . S
C445 C444 1.379 . S
C445 C446 1.390 . S
C445 H472 0.949 . S
C446 C445 1.390 . S
C446 C447 1.357 . S
C447 C446 1.357 . S
C447 C448 1.370 . S
C447 H473 0.950 . S
C448 N443 1.307 . S
C448 C447 1.370 . S
C448 H466 0.948 . S
Zn449 N443 2.020 . S
Zn449 O458 2.039 . S
Zn449 O464 2.034 . S
Zn449 O468 2.025 . S
Zn449 O470 2.024 . S
C450 O469 1.246 . S
C450 O470 1.249 . S
N451 C452 1.307 . S
N451 C453 1.333 . S
N451 Zn457 2.020 . S
C452 N451 1.307 . S
C452 C456 1.370 . S
C452 H463 0.948 . S
C453 N451 1.333 . S
C453 C454 1.379 . S
C453 H461 0.952 . S
C454 C453 1.379 . S
C454 C455 1.390 . S
C454 H474 0.949 . S
C455 C454 1.390 . S
C455 C456 1.357 . S
C456 C452 1.370 . S
C456 C455 1.357 . S
C456 H475 0.950 . S
Zn457 N451 2.020 . S
Zn457 O460 2.025 . S
Zn457 O465 2.024 . S
Zn457 O467 2.039 . S
Zn457 O469 2.034 . S
O458 C442 1.251 . S
O458 Zn449 2.039 . S
C459 O464 1.246 . S
C459 O465 1.249 . S
O460 C442 1.254 . S
O460 Zn457 2.025 . S
H461 C453 0.952 . S
H462 C444 0.952 . S
H463 C452 0.948 . S
O464 Zn449 2.034 . S
O464 C459 1.246 . S
O465 Zn457 2.024 . S
O465 C459 1.249 . S
H466 C448 0.948 . S
O467 Zn457 2.039 . S
O467 C471 1.251 . S
O468 Zn449 2.025 . S
O468 C471 1.254 . S
O469 C450 1.246 . S
O469 Zn457 2.034 . S
O470 Zn449 2.024 . S
O470 C450 1.249 . S
C471 O467 1.251 . S
C471 O468 1.254 . S
H472 C445 0.949 . S
H473 C447 0.950 . S
H474 C454 0.949 . S
H475 C456 0.950 . S
C476 O492 1.251 . S
C476 O494 1.254 . S
N477 C478 1.333 . S
N477 C482 1.307 . S
N477 Zn483 2.020 . S
C478 N477 1.333 . S
C478 C479 1.379 . S
C478 H496 0.952 . S
C479 C478 1.379 . S
C479 C480 1.390 . S
C479 H506 0.949 . S
C480 C479 1.390 . S
C480 C481 1.357 . S
C481 C480 1.357 . S
C481 C482 1.370 . S
C481 H507 0.950 . S
C482 N477 1.307 . S
C482 C481 1.370 . S
C482 H500 0.948 . S
Zn483 N477 2.020 . S
Zn483 O492 2.039 . S
Zn483 O498 2.034 . S
Zn483 O502 2.025 . S
Zn483 O504 2.024 . S
C484 O503 1.246 . S
C484 O504 1.249 . S
N485 C486 1.307 . S
N485 C487 1.333 . S
N485 Zn491 2.020 . S
C486 N485 1.307 . S
C486 C490 1.370 . S
C486 H497 0.948 . S
C487 N485 1.333 . S
C487 C488 1.379 . S
C487 H495 0.952 . S
C488 C487 1.379 . S
C488 C489 1.390 . S
C488 H508 0.949 . S
C489 C488 1.390 . S
C489 C490 1.357 . S
C490 C486 1.370 . S
C490 C489 1.357 . S
C490 H509 0.950 . S
Zn491 N485 2.020 . S
Zn491 O494 2.025 . S
Zn491 O499 2.024 . S
Zn491 O501 2.039 . S
Zn491 O503 2.034 . S
O492 C476 1.251 . S
O492 Zn483 2.039 . S
C493 O498 1.246 . S
C493 O499 1.249 . S
O494 C476 1.254 . S
O494 Zn491 2.025 . S
H495 C487 0.952 . S
H496 C478 0.952 . S
H497 C486 0.948 . S
O498 Zn483 2.034 . S
O498 C493 1.246 . S
O499 Zn491 2.024 . S
O499 C493 1.249 . S
H500 C482 0.948 . S
O501 Zn491 2.039 . S
O501 C505 1.251 . S
O502 Zn483 2.025 . S
O502 C505 1.254 . S
O503 C484 1.246 . S
O503 Zn491 2.034 . S
O504 Zn483 2.024 . S
O504 C484 1.249 . S
C505 O501 1.251 . S
C505 O502 1.254 . S
H506 C479 0.949 . S
H507 C481 0.950 . S
H508 C488 0.949 . S
H509 C490 0.950 . S
C510 O526 1.251 . S
C510 O528 1.254 . S
N511 C512 1.333 . S
N511 C516 1.307 1_554 S
N511 Zn517 2.020 . S
C512 N511 1.333 . S
C512 C513 1.379 . S
C512 H530 0.952 . S
C513 C512 1.379 . S
C513 C514 1.390 . S
C513 H540 0.949 . S
C514 C513 1.390 . S
C514 C515 1.357 1_554 S
C515 C514 1.357 1_556 S
C515 C516 1.370 . S
C515 H541 0.950 . S
C516 N511 1.307 1_556 S
C516 C515 1.370 . S
C516 H534 0.948 . S
Zn517 N511 2.020 . S
Zn517 O526 2.039 . S
Zn517 O532 2.034 1_455 S
Zn517 O536 2.025 1_454 S
Zn517 O538 2.024 1_554 S
C518 O537 1.246 . S
C518 O538 1.249 . S
N519 C520 1.307 1_556 S
N519 C521 1.333 . S
N519 Zn525 2.020 1_556 S
C520 N519 1.307 1_554 S
C520 C524 1.370 . S
C520 H531 0.948 . S
C521 N519 1.333 . S
C521 C522 1.379 . S
C521 H529 0.952 . S
C522 C521 1.379 . S
C522 C523 1.390 . S
C522 H542 0.949 . S
C523 C522 1.390 . S
C523 C524 1.357 1_556 S
C524 C520 1.370 . S
C524 C523 1.357 1_554 S
C524 H543 0.950 . S
Zn525 N519 2.020 1_554 S
Zn525 O528 2.025 1_655 S
Zn525 O533 2.024 . S
Zn525 O535 2.039 1_554 S
Zn525 O537 2.034 1_654 S
O526 C510 1.251 . S
O526 Zn517 2.039 . S
C527 O532 1.246 . S
C527 O533 1.249 . S
O528 C510 1.254 . S
O528 Zn525 2.025 1_455 S
H529 C521 0.952 . S
H530 C512 0.952 . S
H531 C520 0.948 . S
O532 Zn517 2.034 1_655 S
O532 C527 1.246 . S
O533 Zn525 2.024 . S
O533 C527 1.249 . S
H534 C516 0.948 . S
O535 Zn525 2.039 1_556 S
O535 C539 1.251 . S
O536 Zn517 2.025 1_656 S
O536 C539 1.254 . S
O537 C518 1.246 . S
O537 Zn525 2.034 1_456 S
O538 Zn517 2.024 1_556 S
O538 C518 1.249 . S
C539 O535 1.251 . S
C539 O536 1.254 . S
H540 C513 0.949 . S
H541 C515 0.950 . S
H542 C522 0.949 . S
H543 C524 0.950 . S
C544 C545 1.369 . S
C544 C546 1.419 . S
C544 H548 0.930 . S
C545 C544 1.369 . S
C545 C554 1.429 . S
C546 C544 1.419 . S
C546 C547 1.363 . S
C546 H549 0.929 . S
C547 C546 1.363 . S
C547 C553 1.428 . S
H548 C544 0.930 . S
H549 C546 0.929 . S
S550 N551 1.613 . S
S550 N552 1.610 . S
N551 S550 1.613 . S
N551 C554 1.350 . S
N552 S550 1.610 . S
N552 C553 1.351 . S
C553 C547 1.428 . S
C553 N552 1.351 . S
C553 C554 1.434 . S
C554 C545 1.429 . S
C554 N551 1.350 . S
C554 C553 1.434 . S
C555 C556 1.369 . S
C555 C557 1.419 . S
C555 H559 0.930 . S
C556 C555 1.369 . S
C556 C565 1.429 . S
C557 C555 1.419 . S
C557 C558 1.363 . S
C557 H560 0.929 . S
C558 C557 1.363 . S
C558 C564 1.428 . S
H559 C555 0.930 . S
H560 C557 0.929 . S
S561 N562 1.613 . S
S561 N563 1.610 . S
N562 S561 1.613 . S
N562 C565 1.350 . S
N563 S561 1.610 . S
N563 C564 1.351 . S
C564 C558 1.428 . S
C564 N563 1.351 . S
C564 C565 1.434 . S
C565 C556 1.429 . S
C565 N562 1.350 . S
C565 C564 1.434 . S
C566 C567 1.369 . S
C566 C568 1.419 . S
C566 H570 0.930 . S
C567 C566 1.369 . S
C567 C576 1.429 . S
C568 C566 1.419 . S
C568 C569 1.363 . S
C568 H571 0.929 . S
C569 C568 1.363 . S
C569 C575 1.428 . S
H570 C566 0.930 . S
H571 C568 0.929 . S
S572 N573 1.613 . S
S572 N574 1.610 . S
N573 S572 1.613 . S
N573 C576 1.350 . S
N574 S572 1.610 . S
N574 C575 1.351 . S
C575 C569 1.428 . S
C575 N574 1.351 . S
C575 C576 1.434 . S
C576 C567 1.429 . S
C576 N573 1.350 . S
C576 C575 1.434 . S
C577 C578 1.369 . S
C577 C579 1.419 . S
C577 H581 0.930 . S
C578 C577 1.369 . S
C578 C587 1.429 . S
C579 C577 1.419 . S
C579 C580 1.363 . S
C579 H582 0.929 . S
C580 C579 1.363 . S
C580 C586 1.428 . S
H581 C577 0.930 . S
H582 C579 0.929 . S
S583 N584 1.613 . S
S583 N585 1.610 . S
N584 S583 1.613 . S
N584 C587 1.350 . S
N585 S583 1.610 . S
N585 C586 1.351 . S
C586 C580 1.428 . S
C586 N585 1.351 . S
C586 C587 1.434 . S
C587 C578 1.429 . S
C587 N584 1.350 . S
C587 C586 1.434 . S
C588 C589 1.369 . S
C588 C590 1.419 . S
C588 H592 0.930 . S
C589 C588 1.369 . S
C589 C598 1.429 . S
C590 C588 1.419 . S
C590 C591 1.363 . S
C590 H593 0.929 . S
C591 C590 1.363 . S
C591 C597 1.428 . S
H592 C588 0.930 . S
H593 C590 0.929 . S
S594 N595 1.613 . S
S594 N596 1.610 . S
N595 S594 1.613 . S
N595 C598 1.350 . S
N596 S594 1.610 . S
N596 C597 1.351 . S
C597 C591 1.428 . S
C597 N596 1.351 . S
C597 C598 1.434 . S
C598 C589 1.429 . S
C598 N595 1.350 . S
C598 C597 1.434 . S
C599 C600 1.369 . S
C599 C601 1.419 . S
C599 H603 0.930 . S
C600 C599 1.369 . S
C600 C609 1.429 . S
C601 C599 1.419 . S
C601 C602 1.363 . S
C601 H604 0.929 . S
C602 C601 1.363 . S
C602 C608 1.428 . S
H603 C599 0.930 . S
H604 C601 0.929 . S
S605 N606 1.613 1_545 S
S605 N607 1.610 . S
N606 S605 1.613 1_565 S
N606 C609 1.350 . S
N607 S605 1.610 . S
N607 C608 1.351 1_545 S
C608 C602 1.428 . S
C608 N607 1.351 1_565 S
C608 C609 1.434 . S
C609 C600 1.429 . S
C609 N606 1.350 . S
C609 C608 1.434 . S
C610 C611 1.369 . S
C610 C612 1.419 . S
C610 H614 0.930 . S
C611 C610 1.369 . S
C611 C620 1.429 . S
C612 C610 1.419 . S
C612 C613 1.363 . S
C612 H615 0.929 . S
C613 C612 1.363 . S
C613 C619 1.428 . S
H614 C610 0.930 . S
H615 C612 0.929 . S
S616 N617 1.613 . S
S616 N618 1.610 . S
N617 S616 1.613 . S
N617 C620 1.350 . S
N618 S616 1.610 . S
N618 C619 1.351 . S
C619 C613 1.428 . S
C619 N618 1.351 . S
C619 C620 1.434 . S
C620 C611 1.429 . S
C620 N617 1.350 . S
C620 C619 1.434 . S
C621 C622 1.369 . S
C621 C623 1.419 . S
C621 H625 0.930 . S
C622 C621 1.369 . S
C622 C631 1.429 . S
C623 C621 1.419 . S
C623 C624 1.363 . S
C623 H626 0.929 . S
C624 C623 1.363 . S
C624 C630 1.428 . S
H625 C621 0.930 . S
H626 C623 0.929 . S
S627 N628 1.613 . S
S627 N629 1.610 . S
N628 S627 1.613 . S
N628 C631 1.350 . S
N629 S627 1.610 . S
N629 C630 1.351 . S
C630 C624 1.428 . S
C630 N629 1.351 . S
C630 C631 1.434 . S
C631 C622 1.429 . S
C631 N628 1.350 . S
C631 C630 1.434 . S
C632 C633 1.369 . S
C632 C634 1.419 . S
C632 H636 0.930 . S
C633 C632 1.369 . S
C633 C642 1.429 . S
C634 C632 1.419 . S
C634 C635 1.363 . S
C634 H637 0.929 . S
C635 C634 1.363 . S
C635 C641 1.428 . S
H636 C632 0.930 . S
H637 C634 0.929 . S
S638 N639 1.613 . S
S638 N640 1.610 . S
N639 S638 1.613 . S
N639 C642 1.350 . S
N640 S638 1.610 . S
N640 C641 1.351 . S
C641 C635 1.428 . S
C641 N640 1.351 . S
C641 C642 1.434 . S
C642 C633 1.429 . S
C642 N639 1.350 . S
C642 C641 1.434 . S
C643 C644 1.369 . S
C643 C645 1.419 . S
C643 H647 0.930 . S
C644 C643 1.369 . S
C644 C653 1.429 . S
C645 C643 1.419 . S
C645 C646 1.363 . S
C645 H648 0.929 . S
C646 C645 1.363 . S
C646 C652 1.428 . S
H647 C643 0.930 . S
H648 C645 0.929 . S
S649 N650 1.613 . S
S649 N651 1.610 . S
N650 S649 1.613 . S
N650 C653 1.350 . S
N651 S649 1.610 . S
N651 C652 1.351 . S
C652 C646 1.428 . S
C652 N651 1.351 . S
C652 C653 1.434 . S
C653 C644 1.429 . S
C653 N650 1.350 . S
C653 C652 1.434 . S
C654 C655 1.369 . S
C654 C656 1.419 . S
C654 H658 0.930 . S
C655 C654 1.369 . S
C655 C664 1.429 . S
C656 C654 1.419 . S
C656 C657 1.363 . S
C656 H659 0.929 . S
C657 C656 1.363 . S
C657 C663 1.428 . S
H658 C654 0.930 . S
H659 C656 0.929 . S
S660 N661 1.613 . S
S660 N662 1.610 . S
N661 S660 1.613 . S
N661 C664 1.350 . S
N662 S660 1.610 . S
N662 C663 1.351 . S
C663 C657 1.428 . S
C663 N662 1.351 . S
C663 C664 1.434 . S
C664 C655 1.429 . S
C664 N661 1.350 . S
C664 C663 1.434 . S
C665 C666 1.369 . S
C665 C667 1.419 . S
C665 H669 0.930 . S
C666 C665 1.369 . S
C666 C675 1.429 . S
C667 C665 1.419 . S
C667 C668 1.363 . S
C667 H670 0.929 . S
C668 C667 1.363 . S
C668 C674 1.428 . S
H669 C665 0.930 . S
H670 C667 0.929 . S
S671 N672 1.613 . S
S671 N673 1.610 . S
N672 S671 1.613 . S
N672 C675 1.350 . S
N673 S671 1.610 . S
N673 C674 1.351 . S
C674 C668 1.428 . S
C674 N673 1.351 . S
C674 C675 1.434 . S
C675 C666 1.429 . S
C675 N672 1.350 . S
C675 C674 1.434 . S
C676 C677 1.369 . S
C676 C678 1.419 . S
C676 H680 0.930 . S
C677 C676 1.369 . S
C677 C686 1.429 . S
C678 C676 1.419 . S
C678 C679 1.363 . S
C678 H681 0.929 1_655 S
C679 C678 1.363 . S
C679 C685 1.428 . S
H680 C676 0.930 . S
H681 C678 0.929 1_455 S
S682 N683 1.613 . S
S682 N684 1.610 . S
N683 S682 1.613 . S
N683 C686 1.350 . S
N684 S682 1.610 . S
N684 C685 1.351 . S
C685 C679 1.428 . S
C685 N684 1.351 . S
C685 C686 1.434 . S
C686 C677 1.429 . S
C686 N683 1.350 . S
C686 C685 1.434 . S
C687 C688 1.369 . S
C687 C689 1.419 . S
C687 H691 0.930 . S
C688 C687 1.369 . S
C688 C697 1.429 . S
C689 C687 1.419 . S
C689 C690 1.363 . S
C689 H692 0.929 . S
C690 C689 1.363 . S
C690 C696 1.428 . S
H691 C687 0.930 . S
H692 C689 0.929 . S
S693 N694 1.613 . S
S693 N695 1.610 . S
N694 S693 1.613 . S
N694 C697 1.350 . S
N695 S693 1.610 . S
N695 C696 1.351 . S
C696 C690 1.428 . S
C696 N695 1.351 . S
C696 C697 1.434 . S
C697 C688 1.429 . S
C697 N694 1.350 . S
C697 C696 1.434 . S
C698 C699 1.369 . S
C698 C700 1.419 . S
C698 H702 0.930 . S
C699 C698 1.369 . S
C699 C708 1.429 . S
C700 C698 1.419 . S
C700 C701 1.363 . S
C700 H703 0.929 . S
C701 C700 1.363 . S
C701 C707 1.428 . S
H702 C698 0.930 . S
H703 C700 0.929 . S
S704 N705 1.613 . S
S704 N706 1.610 . S
N705 S704 1.613 . S
N705 C708 1.350 . S
N706 S704 1.610 . S
N706 C707 1.351 . S
C707 C701 1.428 . S
C707 N706 1.351 . S
C707 C708 1.434 . S
C708 C699 1.429 . S
C708 N705 1.350 . S
C708 C707 1.434 . S
C709 C710 1.369 . S
C709 C711 1.419 . S
C709 H713 0.930 . S
C710 C709 1.369 . S
C710 C719 1.429 . S
C711 C709 1.419 . S
C711 C712 1.363 . S
C711 H714 0.929 . S
C712 C711 1.363 . S
C712 C718 1.428 . S
H713 C709 0.930 . S
H714 C711 0.929 . S
S715 N716 1.613 . S
S715 N717 1.610 . S
N716 S715 1.613 . S
N716 C719 1.350 . S
N717 S715 1.610 . S
N717 C718 1.351 . S
C718 C712 1.428 . S
C718 N717 1.351 . S
C718 C719 1.434 . S
C719 C710 1.429 . S
C719 N716 1.350 . S
C719 C718 1.434 . S
C720 C721 1.369 . S
C720 C722 1.419 . S
C720 H724 0.930 . S
C721 C720 1.369 . S
C721 C730 1.429 . S
C722 C720 1.419 . S
C722 C723 1.363 . S
C722 H725 0.929 . S
C723 C722 1.363 . S
C723 C729 1.428 . S
H724 C720 0.930 . S
H725 C722 0.929 . S
S726 N727 1.613 . S
S726 N728 1.610 . S
N727 S726 1.613 . S
N727 C730 1.350 . S
N728 S726 1.610 . S
N728 C729 1.351 . S
C729 C723 1.428 . S
C729 N728 1.351 . S
C729 C730 1.434 . S
C730 C721 1.429 . S
C730 N727 1.350 . S
C730 C729 1.434 . S
C731 C732 1.369 . S
C731 C733 1.419 . S
C731 H735 0.930 . S
C732 C731 1.369 . S
C732 C741 1.429 . S
C733 C731 1.419 . S
C733 C734 1.363 . S
C733 H736 0.929 . S
C734 C733 1.363 . S
C734 C740 1.428 . S
H735 C731 0.930 . S
H736 C733 0.929 . S
S737 N738 1.613 . S
S737 N739 1.610 . S
N738 S737 1.613 . S
N738 C741 1.350 . S
N739 S737 1.610 . S
N739 C740 1.351 . S
C740 C734 1.428 . S
C740 N739 1.351 . S
C740 C741 1.434 . S
C741 C732 1.429 . S
C741 N738 1.350 . S
C741 C740 1.434 . S
C742 C743 1.369 . S
C742 C744 1.419 . S
C742 H746 0.930 . S
C743 C742 1.369 . S
C743 C752 1.429 . S
C744 C742 1.419 . S
C744 C745 1.363 . S
C744 H747 0.929 . S
C745 C744 1.363 . S
C745 C751 1.428 . S
H746 C742 0.930 . S
H747 C744 0.929 . S
S748 N749 1.613 . S
S748 N750 1.610 . S
N749 S748 1.613 . S
N749 C752 1.350 . S
N750 S748 1.610 . S
N750 C751 1.351 . S
C751 C745 1.428 . S
C751 N750 1.351 . S
C751 C752 1.434 . S
C752 C743 1.429 . S
C752 N749 1.350 . S
C752 C751 1.434 . S
C753 C754 1.369 . S
C753 C755 1.419 . S
C753 H757 0.930 . S
C754 C753 1.369 . S
C754 C763 1.429 . S
C755 C753 1.419 . S
C755 C756 1.363 . S
C755 H758 0.929 . S
C756 C755 1.363 . S
C756 C762 1.428 . S
H757 C753 0.930 . S
H758 C755 0.929 . S
S759 N760 1.613 . S
S759 N761 1.610 . S
N760 S759 1.613 . S
N760 C763 1.350 . S
N761 S759 1.610 . S
N761 C762 1.351 . S
C762 C756 1.428 . S
C762 N761 1.351 . S
C762 C763 1.434 . S
C763 C754 1.429 . S
C763 N760 1.350 . S
C763 C762 1.434 . S
C764 C765 1.369 . S
C764 C766 1.419 . S
C764 H768 0.930 . S
C765 C764 1.369 . S
C765 C774 1.429 . S
C766 C764 1.419 . S
C766 C767 1.363 . S
C766 H769 0.929 1_556 S
C767 C766 1.363 . S
C767 C773 1.428 . S
H768 C764 0.930 . S
H769 C766 0.929 1_554 S
S770 N771 1.613 . S
S770 N772 1.610 . S
N771 S770 1.613 . S
N771 C774 1.350 . S
N772 S770 1.610 . S
N772 C773 1.351 . S
C773 C767 1.428 . S
C773 N772 1.351 . S
C773 C774 1.434 . S
C774 C765 1.429 . S
C774 N771 1.350 . S
C774 C773 1.434 . S
C775 C776 1.369 . S
C775 C777 1.419 . S
C775 H779 0.930 . S
C776 C775 1.369 . S
C776 C785 1.429 . S
C777 C775 1.419 . S
C777 C778 1.363 . S
C777 H780 0.929 . S
C778 C777 1.363 . S
C778 C784 1.428 . S
H779 C775 0.930 . S
H780 C777 0.929 . S
S781 N782 1.613 . S
S781 N783 1.610 . S
N782 S781 1.613 . S
N782 C785 1.350 . S
N783 S781 1.610 . S
N783 C784 1.351 . S
C784 C778 1.428 . S
C784 N783 1.351 . S
C784 C785 1.434 . S
C785 C776 1.429 . S
C785 N782 1.350 . S
C785 C784 1.434 . S
C786 C787 1.369 . S
C786 C788 1.419 . S
C786 H790 0.930 . S
C787 C786 1.369 . S
C787 C796 1.429 . S
C788 C786 1.419 . S
C788 C789 1.363 . S
C788 H791 0.929 . S
C789 C788 1.363 . S
C789 C795 1.428 . S
H790 C786 0.930 . S
H791 C788 0.929 . S
S792 N793 1.613 . S
S792 N794 1.610 . S
N793 S792 1.613 . S
N793 C796 1.350 . S
N794 S792 1.610 . S
N794 C795 1.351 . S
C795 C789 1.428 . S
C795 N794 1.351 . S
C795 C796 1.434 . S
C796 C787 1.429 . S
C796 N793 1.350 . S
C796 C795 1.434 . S
C797 C798 1.369 . S
C797 C799 1.419 . S
C797 H801 0.930 . S
C798 C797 1.369 . S
C798 C807 1.429 . S
C799 C797 1.419 . S
C799 C800 1.363 . S
C799 H802 0.929 . S
C800 C799 1.363 . S
C800 C806 1.428 . S
H801 C797 0.930 . S
H802 C799 0.929 . S
S803 N804 1.613 . S
S803 N805 1.610 . S
N804 S803 1.613 . S
N804 C807 1.350 . S
N805 S803 1.610 . S
N805 C806 1.351 . S
C806 C800 1.428 . S
C806 N805 1.351 . S
C806 C807 1.434 . S
C807 C798 1.429 . S
C807 N804 1.350 . S
C807 C806 1.434 . S
C808 C809 1.369 . S
C808 C810 1.419 . S
C808 H812 0.930 . S
C809 C808 1.369 . S
C809 C818 1.429 . S
C810 C808 1.419 . S
C810 C811 1.363 . S
C810 H813 0.929 . S
C811 C810 1.363 . S
C811 C817 1.428 . S
H812 C808 0.930 . S
H813 C810 0.929 . S
S814 N815 1.613 . S
S814 N816 1.610 . S
N815 S814 1.613 . S
N815 C818 1.350 . S
N816 S814 1.610 . S
N816 C817 1.351 . S
C817 C811 1.428 . S
C817 N816 1.351 . S
C817 C818 1.434 . S
C818 C809 1.429 . S
C818 N815 1.350 . S
C818 C817 1.434 . S
C819 C820 1.369 . S
C819 C821 1.419 . S
C819 H823 0.930 . S
C820 C819 1.369 . S
C820 C829 1.429 . S
C821 C819 1.419 . S
C821 C822 1.363 . S
C821 H824 0.929 . S
C822 C821 1.363 . S
C822 C828 1.428 . S
H823 C819 0.930 . S
H824 C821 0.929 . S
S825 N826 1.613 . S
S825 N827 1.610 . S
N826 S825 1.613 . S
N826 C829 1.350 . S
N827 S825 1.610 . S
N827 C828 1.351 . S
C828 C822 1.428 . S
C828 N827 1.351 . S
C828 C829 1.434 . S
C829 C820 1.429 . S
C829 N826 1.350 . S
C829 C828 1.434 . S
C830 C831 1.369 . S
C830 C832 1.419 . S
C830 H834 0.930 . S
C831 C830 1.369 . S
C831 C840 1.429 . S
C832 C830 1.419 . S
C832 C833 1.363 . S
C832 H835 0.929 . S
C833 C832 1.363 . S
C833 C839 1.428 . S
H834 C830 0.930 . S
H835 C832 0.929 . S
S836 N837 1.613 . S
S836 N838 1.610 . S
N837 S836 1.613 . S
N837 C840 1.350 . S
N838 S836 1.610 . S
N838 C839 1.351 . S
C839 C833 1.428 . S
C839 N838 1.351 . S
C839 C840 1.434 . S
C840 C831 1.429 . S
C840 N837 1.350 . S
C840 C839 1.434 . S
C841 C842 1.369 . S
C841 C843 1.419 . S
C841 H845 0.930 . S
C842 C841 1.369 . S
C842 C851 1.429 . S
C843 C841 1.419 . S
C843 C844 1.363 . S
C843 H846 0.929 . S
C844 C843 1.363 . S
C844 C850 1.428 . S
H845 C841 0.930 . S
H846 C843 0.929 . S
S847 N848 1.613 . S
S847 N849 1.610 . S
N848 S847 1.613 . S
N848 C851 1.350 . S
N849 S847 1.610 . S
N849 C850 1.351 . S
C850 C844 1.428 . S
C850 N849 1.351 . S
C850 C851 1.434 . S
C851 C842 1.429 . S
C851 N848 1.350 . S
C851 C850 1.434 . S
C852 C853 1.369 . S
C852 C854 1.419 . S
C852 H856 0.930 1_565 S
C853 C852 1.369 . S
C853 C862 1.429 . S
C854 C852 1.419 . S
C854 C855 1.363 . S
C854 H857 0.929 . S
C855 C854 1.363 . S
C855 C861 1.428 . S
H856 C852 0.930 1_545 S
H857 C854 0.929 . S
S858 N859 1.613 . S
S858 N860 1.610 . S
N859 S858 1.613 . S
N859 C862 1.350 . S
N860 S858 1.610 . S
N860 C861 1.351 . S
C861 C855 1.428 . S
C861 N860 1.351 . S
C861 C862 1.434 . S
C862 C853 1.429 . S
C862 N859 1.350 . S
C862 C861 1.434 . S
C863 C864 1.369 . S
C863 C865 1.419 . S
C863 H867 0.930 . S
C864 C863 1.369 . S
C864 C873 1.429 . S
C865 C863 1.419 . S
C865 C866 1.363 . S
C865 H868 0.929 . S
C866 C865 1.363 . S
C866 C872 1.428 . S
H867 C863 0.930 . S
H868 C865 0.929 . S
S869 N870 1.613 . S
S869 N871 1.610 . S
N870 S869 1.613 . S
N870 C873 1.350 . S
N871 S869 1.610 . S
N871 C872 1.351 . S
C872 C866 1.428 . S
C872 N871 1.351 . S
C872 C873 1.434 . S
C873 C864 1.429 . S
C873 N870 1.350 . S
C873 C872 1.434 . S
C874 C875 1.369 . S
C874 C876 1.419 . S
C874 H878 0.930 . S
C875 C874 1.369 . S
C875 C884 1.429 . S
C876 C874 1.419 . S
C876 C877 1.363 . S
C876 H879 0.929 . S
C877 C876 1.363 . S
C877 C883 1.428 . S
H878 C874 0.930 . S
H879 C876 0.929 . S
S880 N881 1.613 . S
S880 N882 1.610 . S
N881 S880 1.613 . S
N881 C884 1.350 . S
N882 S880 1.610 . S
N882 C883 1.351 . S
C883 C877 1.428 . S
C883 N882 1.351 . S
C883 C884 1.434 . S
C884 C875 1.429 . S
C884 N881 1.350 . S
C884 C883 1.434 . S
C885 C886 1.369 . S
C885 C887 1.419 . S
C885 H889 0.930 . S
C886 C885 1.369 . S
C886 C895 1.429 . S
C887 C885 1.419 . S
C887 C888 1.363 . S
C887 H890 0.929 . S
C888 C887 1.363 . S
C888 C894 1.428 . S
H889 C885 0.930 . S
H890 C887 0.929 . S
S891 N892 1.613 . S
S891 N893 1.610 . S
N892 S891 1.613 . S
N892 C895 1.350 . S
N893 S891 1.610 . S
N893 C894 1.351 . S
C894 C888 1.428 . S
C894 N893 1.351 . S
C894 C895 1.434 . S
C895 C886 1.429 . S
C895 N892 1.350 . S
C895 C894 1.434 . S
C896 C897 1.369 . S
C896 C898 1.419 . S
C896 H900 0.930 . S
C897 C896 1.369 . S
C897 C906 1.429 . S
C898 C896 1.419 . S
C898 C899 1.363 . S
C898 H901 0.929 . S
C899 C898 1.363 . S
C899 C905 1.428 . S
H900 C896 0.930 . S
H901 C898 0.929 . S
S902 N903 1.613 . S
S902 N904 1.610 . S
N903 S902 1.613 . S
N903 C906 1.350 . S
N904 S902 1.610 . S
N904 C905 1.351 . S
C905 C899 1.428 . S
C905 N904 1.351 . S
C905 C906 1.434 . S
C906 C897 1.429 . S
C906 N903 1.350 . S
C906 C905 1.434 . S
C907 C908 1.369 . S
C907 C909 1.419 . S
C907 H911 0.930 . S
C908 C907 1.369 . S
C908 C917 1.429 . S
C909 C907 1.419 . S
C909 C910 1.363 . S
C909 H912 0.929 . S
C910 C909 1.363 . S
C910 C916 1.428 . S
H911 C907 0.930 . S
H912 C909 0.929 . S
S913 N914 1.613 1_655 S
S913 N915 1.610 . S
N914 S913 1.613 1_455 S
N914 C917 1.350 . S
N915 S913 1.610 . S
N915 C916 1.351 1_655 S
C916 C910 1.428 . S
C916 N915 1.351 1_455 S
C916 C917 1.434 . S
C917 C908 1.429 . S
C917 N914 1.350 . S
C917 C916 1.434 . S
C918 C919 1.369 . S
C918 C920 1.419 . S
C918 H922 0.930 . S
C919 C918 1.369 . S
C919 C928 1.429 . S
C920 C918 1.419 . S
C920 C921 1.363 . S
C920 H923 0.929 . S
C921 C920 1.363 . S
C921 C927 1.428 . S
H922 C918 0.930 . S
H923 C920 0.929 . S
S924 N925 1.613 . S
S924 N926 1.610 . S
N925 S924 1.613 . S
N925 C928 1.350 . S
N926 S924 1.610 . S
N926 C927 1.351 . S
C927 C921 1.428 . S
C927 N926 1.351 . S
C927 C928 1.434 . S
C928 C919 1.429 . S
C928 N925 1.350 . S
C928 C927 1.434 . S
C929 C930 1.369 . S
C929 C931 1.419 . S
C929 H933 0.930 . S
C930 C929 1.369 . S
C930 C939 1.429 . S
C931 C929 1.419 . S
C931 C932 1.363 . S
C931 H934 0.929 . S
C932 C931 1.363 . S
C932 C938 1.428 . S
H933 C929 0.930 . S
H934 C931 0.929 . S
S935 N936 1.613 . S
S935 N937 1.610 . S
N936 S935 1.613 . S
N936 C939 1.350 . S
N937 S935 1.610 . S
N937 C938 1.351 . S
C938 C932 1.428 . S
C938 N937 1.351 . S
C938 C939 1.434 . S
C939 C930 1.429 . S
C939 N936 1.350 . S
C939 C938 1.434 . S
C940 C941 1.369 . S
C940 C942 1.419 . S
C940 H944 0.930 . S
C941 C940 1.369 . S
C941 C950 1.429 . S
C942 C940 1.419 . S
C942 C943 1.363 . S
C942 H945 0.929 . S
C943 C942 1.363 . S
C943 C949 1.428 . S
H944 C940 0.930 . S
H945 C942 0.929 . S
S946 N947 1.613 . S
S946 N948 1.610 . S
N947 S946 1.613 . S
N947 C950 1.350 . S
N948 S946 1.610 . S
N948 C949 1.351 . S
C949 C943 1.428 . S
C949 N948 1.351 . S
C949 C950 1.434 . S
C950 C941 1.429 . S
C950 N947 1.350 . S
C950 C949 1.434 . S
C951 C952 1.369 . S
C951 C953 1.419 . S
C951 H955 0.930 . S
C952 C951 1.369 . S
C952 C961 1.429 . S
C953 C951 1.419 . S
C953 C954 1.363 . S
C953 H956 0.929 . S
C954 C953 1.363 . S
C954 C960 1.428 . S
H955 C951 0.930 . S
H956 C953 0.929 . S
S957 N958 1.613 . S
S957 N959 1.610 . S
N958 S957 1.613 . S
N958 C961 1.350 . S
N959 S957 1.610 . S
N959 C960 1.351 . S
C960 C954 1.428 . S
C960 N959 1.351 . S
C960 C961 1.434 . S
C961 C952 1.429 . S
C961 N958 1.350 . S
C961 C960 1.434 . S
C962 C963 1.369 . S
C962 C964 1.419 . S
C962 H966 0.930 . S
C963 C962 1.369 . S
C963 C972 1.429 . S
C964 C962 1.419 . S
C964 C965 1.363 . S
C964 H967 0.929 . S
C965 C964 1.363 . S
C965 C971 1.428 . S
H966 C962 0.930 . S
H967 C964 0.929 . S
S968 N969 1.613 . S
S968 N970 1.610 . S
N969 S968 1.613 . S
N969 C972 1.350 . S
N970 S968 1.610 . S
N970 C971 1.351 . S
C971 C965 1.428 . S
C971 N970 1.351 . S
C971 C972 1.434 . S
C972 C963 1.429 . S
C972 N969 1.350 . S
C972 C971 1.434 . S
C973 C974 1.369 . S
C973 C975 1.419 . S
C973 H977 0.930 . S
C974 C973 1.369 . S
C974 C983 1.429 . S
C975 C973 1.419 . S
C975 C976 1.363 . S
C975 H978 0.929 . S
C976 C975 1.363 . S
C976 C982 1.428 . S
H977 C973 0.930 . S
H978 C975 0.929 . S
S979 N980 1.613 . S
S979 N981 1.610 . S
N980 S979 1.613 . S
N980 C983 1.350 . S
N981 S979 1.610 . S
N981 C982 1.351 . S
C982 C976 1.428 . S
C982 N981 1.351 . S
C982 C983 1.434 . S
C983 C974 1.429 . S
C983 N980 1.350 . S
C983 C982 1.434 . S
C984 C985 1.369 . S
C984 C986 1.419 . S
C984 H988 0.930 . S
C985 C984 1.369 . S
C985 C994 1.429 . S
C986 C984 1.419 . S
C986 C987 1.363 . S
C986 H989 0.929 . S
C987 C986 1.363 . S
C987 C993 1.428 . S
H988 C984 0.930 . S
H989 C986 0.929 . S
S990 N991 1.613 . S
S990 N992 1.610 . S
N991 S990 1.613 . S
N991 C994 1.350 . S
N992 S990 1.610 . S
N992 C993 1.351 . S
C993 C987 1.428 . S
C993 N992 1.351 . S
C993 C994 1.434 . S
C994 C985 1.429 . S
C994 N991 1.350 . S
C994 C993 1.434 . S
C995 C996 1.369 . S
C995 C997 1.419 . S
C995 H999 0.930 . S
C996 C995 1.369 . S
C996 C1005 1.429 . S
C997 C995 1.419 . S
C997 C998 1.363 . S
C997 H1000 0.929 1_554 S
C998 C997 1.363 . S
C998 C1004 1.428 . S
H999 C995 0.930 . S
H1000 C997 0.929 1_556 S
S1001 N1002 1.613 . S
S1001 N1003 1.610 . S
N1002 S1001 1.613 . S
N1002 C1005 1.350 . S
N1003 S1001 1.610 . S
N1003 C1004 1.351 . S
C1004 C998 1.428 . S
C1004 N1003 1.351 . S
C1004 C1005 1.434 . S
C1005 C996 1.429 . S
C1005 N1002 1.350 . S
C1005 C1004 1.434 . S
C1006 C1007 1.369 . S
C1006 C1008 1.419 . S
C1006 H1010 0.930 . S
C1007 C1006 1.369 . S
C1007 C1016 1.429 . S
C1008 C1006 1.419 . S
C1008 C1009 1.363 . S
C1008 H1011 0.929 . S
C1009 C1008 1.363 . S
C1009 C1015 1.428 . S
H1010 C1006 0.930 . S
H1011 C1008 0.929 . S
S1012 N1013 1.613 . S
S1012 N1014 1.610 . S
N1013 S1012 1.613 . S
N1013 C1016 1.350 . S
N1014 S1012 1.610 . S
N1014 C1015 1.351 . S
C1015 C1009 1.428 . S
C1015 N1014 1.351 . S
C1015 C1016 1.434 . S
C1016 C1007 1.429 . S
C1016 N1013 1.350 . S
C1016 C1015 1.434 . S
C1017 C1018 1.369 . S
C1017 C1019 1.419 . S
C1017 H1021 0.930 . S
C1018 C1017 1.369 . S
C1018 C1027 1.429 . S
C1019 C1017 1.419 . S
C1019 C1020 1.363 . S
C1019 H1022 0.929 . S
C1020 C1019 1.363 . S
C1020 C1026 1.428 . S
H1021 C1017 0.930 . S
H1022 C1019 0.929 . S
S1023 N1024 1.613 . S
S1023 N1025 1.610 . S
N1024 S1023 1.613 . S
N1024 C1027 1.350 . S
N1025 S1023 1.610 . S
N1025 C1026 1.351 . S
C1026 C1020 1.428 . S
C1026 N1025 1.351 . S
C1026 C1027 1.434 . S
C1027 C1018 1.429 . S
C1027 N1024 1.350 . S
C1027 C1026 1.434 . S
C1028 C1029 1.369 . S
C1028 C1030 1.419 . S
C1028 H1032 0.930 . S
C1029 C1028 1.369 . S
C1029 C1038 1.429 . S
C1030 C1028 1.419 . S
C1030 C1031 1.363 . S
C1030 H1033 0.929 . S
C1031 C1030 1.363 . S
C1031 C1037 1.428 . S
H1032 C1028 0.930 . S
H1033 C1030 0.929 . S
S1034 N1035 1.613 . S
S1034 N1036 1.610 . S
N1035 S1034 1.613 . S
N1035 C1038 1.350 . S
N1036 S1034 1.610 . S
N1036 C1037 1.351 . S
C1037 C1031 1.428 . S
C1037 N1036 1.351 . S
C1037 C1038 1.434 . S
C1038 C1029 1.429 . S
C1038 N1035 1.350 . S
C1038 C1037 1.434 . S
C1039 C1040 1.369 . S
C1039 C1041 1.419 . S
C1039 H1043 0.930 . S
C1040 C1039 1.369 . S
C1040 C1049 1.429 . S
C1041 C1039 1.419 . S
C1041 C1042 1.363 . S
C1041 H1044 0.929 . S
C1042 C1041 1.363 . S
C1042 C1048 1.428 . S
H1043 C1039 0.930 . S
H1044 C1041 0.929 . S
S1045 N1046 1.613 . S
S1045 N1047 1.610 . S
N1046 S1045 1.613 . S
N1046 C1049 1.350 . S
N1047 S1045 1.610 . S
N1047 C1048 1.351 . S
C1048 C1042 1.428 . S
C1048 N1047 1.351 . S
C1048 C1049 1.434 . S
C1049 C1040 1.429 . S
C1049 N1046 1.350 . S
C1049 C1048 1.434 . S
C1050 C1051 1.369 . S
C1050 C1052 1.419 . S
C1050 H1054 0.930 . S
C1051 C1050 1.369 . S
C1051 C1060 1.429 . S
C1052 C1050 1.419 . S
C1052 C1053 1.363 . S
C1052 H1055 0.929 . S
C1053 C1052 1.363 . S
C1053 C1059 1.428 . S
H1054 C1050 0.930 . S
H1055 C1052 0.929 . S
S1056 N1057 1.613 . S
S1056 N1058 1.610 . S
N1057 S1056 1.613 . S
N1057 C1060 1.350 . S
N1058 S1056 1.610 . S
N1058 C1059 1.351 . S
C1059 C1053 1.428 . S
C1059 N1058 1.351 . S
C1059 C1060 1.434 . S
C1060 C1051 1.429 . S
C1060 N1057 1.350 . S
C1060 C1059 1.434 . S
C1061 C1062 1.369 . S
C1061 C1063 1.419 . S
C1061 H1065 0.930 . S
C1062 C1061 1.369 . S
C1062 C1071 1.429 . S
C1063 C1061 1.419 . S
C1063 C1064 1.363 . S
C1063 H1066 0.929 . S
C1064 C1063 1.363 . S
C1064 C1070 1.428 . S
H1065 C1061 0.930 . S
H1066 C1063 0.929 . S
S1067 N1068 1.613 . S
S1067 N1069 1.610 . S
N1068 S1067 1.613 . S
N1068 C1071 1.350 . S
N1069 S1067 1.610 . S
N1069 C1070 1.351 . S
C1070 C1064 1.428 . S
C1070 N1069 1.351 . S
C1070 C1071 1.434 . S
C1071 C1062 1.429 . S
C1071 N1068 1.350 . S
C1071 C1070 1.434 . S
C545 C110 0.700 . S
C547 C13 0.701 . S
C556 C17 1.631 . S
C558 C34 1.614 . S
C567 C81 1.241 . S
C569 C47 1.209 . S
C578 C131 1.697 . S
C580 C85 1.697 . S
C589 C165 1.724 . S
C591 C199 1.723 . S
C600 C174 1.216 . S
C602 C217 1.229 . S
C611 C204 1.585 . S
C613 C267 1.616 . S
C622 C144 0.706 . S
C624 C242 0.707 . S
C633 C314 1.584 . S
C635 C0 1.606 . S
C644 C357 2.588 . S
C646 C51 2.588 . S
C655 C68 1.588 . S
C657 C442 1.605 . S
C666 C276 1.290 . S
C668 C106 1.302 . S
C677 C378 1.283 . S
C679 C140 1.300 . S
C688 C476 1.583 . S
C690 C178 1.565 . S
C699 C221 2.569 . S
C701 C425 2.573 . S
C710 C510 1.588 . S
C712 C246 1.601 . S
C721 C280 0.692 . S
C723 C455 0.688 . S
C732 C335 1.668 . S
C734 C301 1.651 . S
C743 C353 1.230 . S
C745 C310 1.204 . S
C754 C489 0.702 . S
C756 C382 0.700 . S
C765 C421 1.215 . S
C767 C523 1.230 . S
C776 C391 0.703 . S
C778 C4 0.707 . S
C787 C437 1.637 . S
C789 C8 1.658 . S
C798 C412 1.216 . S
C800 C72 1.238 . S
C809 C76 1.664 . S
C811 C374 1.664 . S
C820 C306 1.662 . S
C822 C136 1.658 . S
C831 C319 1.213 . S
C833 C208 1.223 . S
C842 C450 1.628 . S
C844 C233 1.610 . S
C853 C153 0.684 . S
C855 C446 0.688 . S
C864 C187 1.564 . S
C866 C29 1.585 . S
C875 C348 2.573 . S
C877 C416 2.571 . S
C886 C97 1.589 . S
C888 C255 1.602 . S
C897 C285 1.298 . S
C899 C387 1.285 . S
C908 C115 1.300 . S
C910 C149 1.296 . S
C919 C323 1.589 . S
C921 C505 1.607 . S
C930 C212 2.590 . S
C932 C42 2.586 . S
C941 C539 1.585 . S
C943 C471 1.606 . S
C952 C289 0.711 . S
C954 C251 0.714 . S
C963 C272 1.724 . S
C965 C170 1.724 . S
C974 C344 1.227 . S
C976 C183 1.216 . S
C985 C119 0.706 . S
C987 C480 0.702 . S
C996 C38 1.216 . S
C998 C514 1.231 . S
C1007 C408 1.637 . S
C1009 C493 1.659 . S
C1018 C403 1.665 . S
C1020 C527 1.664 . S
C1029 C340 1.608 . S
C1031 C459 1.628 . S
C1040 C484 1.629 . S
C1042 C63 1.614 . S
C1051 C102 1.698 . S
C1053 C518 1.694 . S
C1062 C238 1.614 . S
C1064 C369 1.591 . S
