# Generated by pormake.
# Topology pcb, (4)-cn, num edge types: 1
# Building blocks:
#     Node 0, Type 0, BuildingBlock: QUQFOY_clean_sbu_1, # of connection points: 4
#     Node 1, Type 0, BuildingBlock: QUQFOY_clean_sbu_1, # of connection points: 4
#     Node 2, Type 0, BuildingBlock: QUQFOY_clean_sbu_1, # of connection points: 4
#     Node 3, Type 0, BuildingBlock: QUQFOY_clean_sbu_1, # of connection points: 4
#     Node 4, Type 0, BuildingBlock: QUQFOY_clean_sbu_1, # of connection points: 4
#     Node 5, Type 0, BuildingBlock: QUQFOY_clean_sbu_1, # of connection points: 4
#     Node 6, Type 0, BuildingBlock: QUQFOY_clean_sbu_1, # of connection points: 4
#     Node 7, Type 0, BuildingBlock: QUQFOY_clean_sbu_1, # of connection points: 4
#     Node 8, Type 0, BuildingBlock: QUQFOY_clean_sbu_1, # of connection points: 4
#     Node 9, Type 0, BuildingBlock: QUQFOY_clean_sbu_1, # of connection points: 4
#     Node 10, Type 0, BuildingBlock: QUQFOY_clean_sbu_1, # of connection points: 4
#     Node 11, Type 0, BuildingBlock: QUQFOY_clean_sbu_1, # of connection points: 4
#     Node 12, Type 0, BuildingBlock: QUQFOY_clean_sbu_1, # of connection points: 4
#     Node 13, Type 0, BuildingBlock: QUQFOY_clean_sbu_1, # of connection points: 4
#     Node 14, Type 0, BuildingBlock: QUQFOY_clean_sbu_1, # of connection points: 4
#     Node 15, Type 0, BuildingBlock: QUQFOY_clean_sbu_1, # of connection points: 4
#     Edge 16, Type (0, 0), BuildingBlock: CIFDUS_clean_linker_0, # of connection points: 2
#     Edge 17, Type (0, 0), BuildingBlock: CIFDUS_clean_linker_0, # of connection points: 2
#     Edge 18, Type (0, 0), BuildingBlock: CIFDUS_clean_linker_0, # of connection points: 2
#     Edge 19, Type (0, 0), BuildingBlock: CIFDUS_clean_linker_0, # of connection points: 2
#     Edge 20, Type (0, 0), BuildingBlock: CIFDUS_clean_linker_0, # of connection points: 2
#     Edge 21, Type (0, 0), BuildingBlock: CIFDUS_clean_linker_0, # of connection points: 2
#     Edge 22, Type (0, 0), BuildingBlock: CIFDUS_clean_linker_0, # of connection points: 2
#     Edge 23, Type (0, 0), BuildingBlock: CIFDUS_clean_linker_0, # of connection points: 2
#     Edge 24, Type (0, 0), BuildingBlock: CIFDUS_clean_linker_0, # of connection points: 2
#     Edge 25, Type (0, 0), BuildingBlock: CIFDUS_clean_linker_0, # of connection points: 2
#     Edge 26, Type (0, 0), BuildingBlock: CIFDUS_clean_linker_0, # of connection points: 2
#     Edge 27, Type (0, 0), BuildingBlock: CIFDUS_clean_linker_0, # of connection points: 2
#     Edge 28, Type (0, 0), BuildingBlock: CIFDUS_clean_linker_0, # of connection points: 2
#     Edge 29, Type (0, 0), BuildingBlock: CIFDUS_clean_linker_0, # of connection points: 2
#     Edge 30, Type (0, 0), BuildingBlock: CIFDUS_clean_linker_0, # of connection points: 2
#     Edge 31, Type (0, 0), BuildingBlock: CIFDUS_clean_linker_0, # of connection points: 2
#     Edge 32, Type (0, 0), BuildingBlock: CIFDUS_clean_linker_0, # of connection points: 2
#     Edge 33, Type (0, 0), BuildingBlock: CIFDUS_clean_linker_0, # of connection points: 2
#     Edge 34, Type (0, 0), BuildingBlock: CIFDUS_clean_linker_0, # of connection points: 2
#     Edge 35, Type (0, 0), BuildingBlock: CIFDUS_clean_linker_0, # of connection points: 2
#     Edge 36, Type (0, 0), BuildingBlock: CIFDUS_clean_linker_0, # of connection points: 2
#     Edge 37, Type (0, 0), BuildingBlock: CIFDUS_clean_linker_0, # of connection points: 2
#     Edge 38, Type (0, 0), BuildingBlock: CIFDUS_clean_linker_0, # of connection points: 2
#     Edge 39, Type (0, 0), BuildingBlock: CIFDUS_clean_linker_0, # of connection points: 2
#     Edge 40, Type (0, 0), BuildingBlock: CIFDUS_clean_linker_0, # of connection points: 2
#     Edge 41, Type (0, 0), BuildingBlock: CIFDUS_clean_linker_0, # of connection points: 2
#     Edge 42, Type (0, 0), BuildingBlock: CIFDUS_clean_linker_0, # of connection points: 2
#     Edge 43, Type (0, 0), BuildingBlock: CIFDUS_clean_linker_0, # of connection points: 2
#     Edge 44, Type (0, 0), BuildingBlock: CIFDUS_clean_linker_0, # of connection points: 2
#     Edge 45, Type (0, 0), BuildingBlock: CIFDUS_clean_linker_0, # of connection points: 2
#     Edge 46, Type (0, 0), BuildingBlock: CIFDUS_clean_linker_0, # of connection points: 2
#     Edge 47, Type (0, 0), BuildingBlock: CIFDUS_clean_linker_0, # of connection points: 2
# Relax obj value: 0.296
# Max RMSD: 0.247
# Mean RMSD: 0.192
data_MOF--net-pcb--node1-QUQFOY_clean_sbu_1--edge1-CIFDUS_clean_linker_0
_symmetry_space_group_name_H-M    P1
_symmetry_Int_Tables_number       1
_symmetry_cell_setting            triclinic
loop_
_symmetry_equiv_pos_as_xyz
'x, y, z'
_cell_length_a     40.388612
_cell_length_b     43.151947
_cell_length_c     43.577146
_cell_angle_alpha  94.203797
_cell_angle_beta   93.330009
_cell_angle_gamma 96.529485
loop_
_atom_site_label
_atom_site_type_symbol
_atom_site_fract_x
_atom_site_fract_y
_atom_site_fract_z
_atom_type_partial_charge
O0 O 0.09517 0.14879 0.17972 0.0
Cd1 Cd 0.14316 0.14016 0.19035 0.0
Cd2 Cd 0.14256 0.12532 0.12253 0.0
O3 O 0.09619 0.13937 0.12937 0.0
O4 O 0.15259 0.15722 0.23368 0.0
O5 O 0.17962 0.17625 0.19507 0.0
C6 C 0.17514 0.17721 0.22424 0.0
C7 C 0.15562 0.13037 0.07132 0.0
C8 C 0.08114 0.14775 0.15281 0.0
C9 C 0.16087 0.07725 0.16763 0.0
O10 O 0.15808 0.08595 0.14046 0.0
O11 O 0.15479 0.09498 0.19065 0.0
O12 O 0.13384 0.10865 0.0788 0.0
O13 O 0.17104 0.14927 0.09323 0.0
O14 O 0.80657 0.10722 0.16902 0.0
Cd15 Cd 0.82017 0.15487 0.17355 0.0
Cd16 Cd 0.82963 0.14313 0.10885 0.0
O17 O 0.81363 0.09809 0.11942 0.0
O18 O 0.80569 0.16742 0.21497 0.0
O19 O 0.78728 0.18678 0.17249 0.0
C20 C 0.78723 0.18586 0.20205 0.0
C21 C 0.82283 0.15336 0.05655 0.0
C22 C 0.80638 0.08821 0.1453 0.0
C23 C 0.88914 0.16888 0.1543 0.0
O24 O 0.87665 0.16092 0.12707 0.0
O25 O 0.87075 0.16847 0.17693 0.0
O26 O 0.84294 0.13462 0.06608 0.0
O27 O 0.80491 0.16579 0.07652 0.0
O28 O 0.89471 0.84558 0.17809 0.0
Cd29 Cd 0.84686 0.85647 0.18347 0.0
Cd30 Cd 0.83773 0.84099 0.11914 0.0
O31 O 0.88397 0.8272 0.12959 0.0
O32 O 0.83696 0.85173 0.227 0.0
O33 O 0.81142 0.82095 0.18757 0.0
C34 C 0.81538 0.82826 0.21699 0.0
C35 C 0.81257 0.8157 0.07309 0.0
C36 C 0.90375 0.83206 0.15361 0.0
C37 C 0.82916 0.90731 0.14513 0.0
O38 O 0.83088 0.88782 0.12216 0.0
O39 O 0.83396 0.89943 0.17241 0.0
O40 O 0.83938 0.83483 0.07398 0.0
O41 O 0.79932 0.81024 0.09864 0.0
O42 O 0.18722 0.88392 0.18098 0.0
Cd43 Cd 0.1695 0.83775 0.18494 0.0
Cd44 Cd 0.15514 0.83268 0.12468 0.0
O45 O 0.16765 0.88032 0.13238 0.0
O46 O 0.19214 0.81873 0.2193 0.0
O47 O 0.19351 0.80224 0.16996 0.0
C48 C 0.20124 0.79891 0.19866 0.0
C49 C 0.17529 0.8137 0.07856 0.0
C50 C 0.18131 0.89667 0.15617 0.0
C51 C 0.09835 0.81889 0.16494 0.0
O52 O 0.10851 0.81537 0.13793 0.0
O53 O 0.11888 0.82911 0.18754 0.0
O54 O 0.14859 0.8273 0.07886 0.0
O55 O 0.19002 0.80914 0.10461 0.0
O56 O 0.1737 0.80623 0.88076 0.0
Cd57 Cd 0.16404 0.82247 0.83811 0.0
Cd58 Cd 0.18181 0.87519 0.86965 0.0
O59 O 0.20385 0.8492 0.9014 0.0
O60 O 0.16013 0.786 0.80667 0.0
O61 O 0.20025 0.82571 0.80844 0.0
C62 C 0.18654 0.79914 0.79545 0.0
C63 C 0.20478 0.91492 0.84178 0.0
C64 C 0.19213 0.82077 0.90313 0.0
C65 C 0.11029 0.86148 0.85198 0.0
O66 O 0.13123 0.87609 0.87239 0.0
O67 O 0.11972 0.84141 0.83258 0.0
O68 O 0.20251 0.91947 0.8712 0.0
O69 O 0.19741 0.88681 0.82897 0.0
O70 O 0.10793 0.17832 0.82215 0.0
Cd71 Cd 0.15618 0.17314 0.83709 0.0
Cd72 Cd 0.13479 0.11525 0.82171 0.0
O73 O 0.09724 0.13238 0.79601 0.0
O74 O 0.18 0.21603 0.84051 0.0
O75 O 0.19221 0.17829 0.80732 0.0
C76 C 0.19769 0.20709 0.81858 0.0
C77 C 0.16842 0.0782 0.805 0.0
C78 C 0.08881 0.15927 0.80356 0.0
C79 C 0.14703 0.1333 0.8885 0.0
O80 O 0.12958 0.11443 0.86847 0.0
O81 O 0.16369 0.15762 0.88016 0.0
O82 O 0.13674 0.07097 0.80676 0.0
O83 O 0.18056 0.10731 0.80982 0.0
O84 O 0.87257 0.13557 0.75538 0.0
Cd85 Cd 0.82225 0.12959 0.76125 0.0
Cd86 Cd 0.84312 0.14255 0.82451 0.0
O87 O 0.88545 0.15791 0.80243 0.0
O88 O 0.79643 0.147 0.7278 0.0
O89 O 0.80142 0.16689 0.7766 0.0
C90 C 0.79003 0.16826 0.74839 0.0
C91 C 0.84682 0.15825 0.87781 0.0
C92 C 0.8939 0.14996 0.77555 0.0
C93 C 0.80886 0.07682 0.7977 0.0
O94 O 0.82435 0.09574 0.81888 0.0
O95 O 0.80286 0.08573 0.77105 0.0
O96 O 0.86689 0.14082 0.86548 0.0
O97 O 0.82463 0.16819 0.85976 0.0
O98 O 0.89306 0.8227 0.83016 0.0
Cd99 Cd 0.84426 0.81073 0.83797 0.0
Cd100 Cd 0.8492 0.86569 0.86839 0.0
O101 O 0.89985 0.86486 0.86249 0.0
O102 O 0.82561 0.78095 0.80316 0.0
O103 O 0.80759 0.82711 0.81378 0.0
C104 C 0.80557 0.80116 0.79666 0.0
C105 C 0.82811 0.91239 0.85895 0.0
C106 C 0.9119 0.84552 0.84407 0.0
C107 C 0.82389 0.80922 0.90102 0.0
O108 O 0.82612 0.83875 0.90014 0.0
O109 O 0.83308 0.79224 0.87883 0.0
O110 O 0.84512 0.90932 0.88426 0.0
O111 O 0.82268 0.88862 0.83881 0.0
O112 O 0.58918 0.65833 0.6689 0.0
Cd113 Cd 0.63818 0.65247 0.67653 0.0
Cd114 Cd 0.63117 0.62292 0.62118 0.0
O115 O 0.58116 0.62814 0.62561 0.0
O116 O 0.65652 0.68682 0.70709 0.0
O117 O 0.67452 0.68058 0.66002 0.0
C118 C 0.67657 0.69606 0.68672 0.0
C119 C 0.65079 0.63417 0.57358 0.0
C120 C 0.56984 0.64519 0.64662 0.0
C121 C 0.65873 0.58961 0.67408 0.0
O122 O 0.65432 0.59078 0.64508 0.0
O123 O 0.65092 0.61143 0.69237 0.0
O124 O 0.6331 0.60808 0.57726 0.0
O125 O 0.65796 0.654 0.59735 0.0
O126 O 0.30018 0.62083 0.67266 0.0
Cd127 Cd 0.31629 0.66437 0.65893 0.0
Cd128 Cd 0.30187 0.63507 0.60541 0.0
O129 O 0.27346 0.6027 0.62845 0.0
O130 O 0.31929 0.69367 0.6966 0.0
O131 O 0.28331 0.69579 0.65663 0.0
C132 C 0.29511 0.70641 0.68404 0.0
C133 C 0.28572 0.65912 0.56215 0.0
C134 C 0.28115 0.59938 0.65664 0.0
C135 C 0.37341 0.64992 0.62374 0.0
O136 O 0.35211 0.63081 0.60736 0.0
O137 O 0.3637 0.6693 0.64365 0.0
O138 O 0.28714 0.62934 0.56094 0.0
O139 O 0.29042 0.67492 0.58874 0.0
O140 O 0.39951 0.38923 0.74908 0.0
Cd141 Cd 0.34983 0.39325 0.75219 0.0
Cd142 Cd 0.3443 0.38468 0.6856 0.0
O143 O 0.39342 0.37907 0.69859 0.0
O144 O 0.33365 0.37593 0.79009 0.0
O145 O 0.31875 0.35403 0.74277 0.0
C146 C 0.31685 0.35362 0.77228 0.0
C147 C 0.33133 0.36717 0.63362 0.0
C148 C 0.41161 0.38192 0.72369 0.0
C149 C 0.32024 0.44235 0.72083 0.0
O150 O 0.32211 0.42469 0.69651 0.0
O151 O 0.33208 0.43534 0.74667 0.0
O152 O 0.35059 0.39249 0.64197 0.0
O153 O 0.31906 0.35107 0.65499 0.0
O154 O 0.69007 0.40583 0.71357 0.0
Cd155 Cd 0.66803 0.36057 0.71369 0.0
Cd156 Cd 0.65838 0.36058 0.64962 0.0
O157 O 0.68473 0.40365 0.6628 0.0
O158 O 0.68734 0.33902 0.74796 0.0
O159 O 0.69089 0.32444 0.69839 0.0
C160 C 0.69728 0.31997 0.72709 0.0
C161 C 0.66608 0.34658 0.59746 0.0
C162 C 0.69437 0.41857 0.68855 0.0
C163 C 0.59762 0.35281 0.68854 0.0
O164 O 0.60943 0.35309 0.66208 0.0
O165 O 0.61697 0.35544 0.71286 0.0
O166 O 0.64991 0.36932 0.60583 0.0
O167 O 0.67718 0.33039 0.61869 0.0
O168 O 0.66754 0.31294 0.40318 0.0
Cd169 Cd 0.65123 0.29841 0.35835 0.0
Cd170 Cd 0.64902 0.36218 0.35165 0.0
O171 O 0.66319 0.36287 0.3983 0.0
O172 O 0.66774 0.25762 0.3482 0.0
O173 O 0.6815 0.29992 0.32347 0.0
C174 C 0.68383 0.2707 0.32689 0.0
C175 C 0.66157 0.41005 0.32978 0.0
C176 C 0.66943 0.34093 0.41496 0.0
C177 C 0.58529 0.3158 0.33938 0.0
O178 O 0.6011 0.34266 0.33733 0.0
O179 O 0.60041 0.29371 0.34881 0.0
O180 O 0.63937 0.40613 0.34944 0.0
O181 O 0.67813 0.387 0.32275 0.0
O182 O 0.61342 0.70153 0.3382 0.0
Cd183 Cd 0.66194 0.69252 0.34547 0.0
Cd184 Cd 0.6362 0.63277 0.32682 0.0
O185 O 0.59852 0.65715 0.30996 0.0
O186 O 0.69196 0.73042 0.33835 0.0
O187 O 0.68806 0.68598 0.30848 0.0
C188 C 0.70069 0.7149 0.31425 0.0
C189 C 0.63839 0.58207 0.30388 0.0
C190 C 0.59202 0.68393 0.32044 0.0
C191 C 0.66132 0.65044 0.39433 0.0
O192 O 0.64394 0.63183 0.37405 0.0
O193 O 0.67454 0.67686 0.38735 0.0
O194 O 0.61282 0.58979 0.31744 0.0
O195 O 0.66274 0.60368 0.30161 0.0
O196 O 0.37812 0.64807 0.28537 0.0
Cd197 Cd 0.32898 0.63288 0.29124 0.0
Cd198 Cd 0.34762 0.65379 0.34906 0.0
O199 O 0.38667 0.6782 0.32885 0.0
O200 O 0.29916 0.64405 0.25635 0.0
O201 O 0.30196 0.66642 0.30406 0.0
C202 C 0.29025 0.66522 0.27575 0.0
C203 C 0.32092 0.67317 0.39151 0.0
C204 C 0.3967 0.66848 0.30309 0.0
C205 C 0.33575 0.58365 0.33217 0.0
O206 O 0.35025 0.60652 0.3499 0.0
O207 O 0.32028 0.58866 0.30705 0.0
O208 O 0.35213 0.66941 0.39377 0.0
O209 O 0.30532 0.66819 0.36466 0.0
O210 O 0.37651 0.28837 0.38662 0.0
Cd211 Cd 0.32907 0.29564 0.3972 0.0
Cd212 Cd 0.34747 0.3569 0.3859 0.0
O213 O 0.38694 0.33514 0.36957 0.0
O214 O 0.29876 0.2567 0.38659 0.0
O215 O 0.29684 0.29981 0.36176 0.0
C216 C 0.28565 0.27096 0.36474 0.0
C217 C 0.33882 0.40384 0.36409 0.0
C218 C 0.39538 0.3081 0.37344 0.0
C219 C 0.32945 0.34044 0.45094 0.0
O220 O 0.34052 0.36029 0.43274 0.0
O221 O 0.32164 0.312 0.4412 0.0
O222 O 0.36451 0.40136 0.38214 0.0
O223 O 0.31788 0.37908 0.35725 0.0
H224 H 0.27491 0.27932 0.30409 0.0
H225 H 0.23939 0.22358 0.37635 0.0
H226 H 0.20032 0.19093 0.33919 0.0
H227 H 0.17919 0.17613 0.28607 0.0
H228 H 0.21725 0.22885 0.21263 0.0
H229 H 0.25259 0.26486 0.25035 0.0
C230 C 0.25819 0.26031 0.31166 0.0
C231 C 0.25979 0.25381 0.3428 0.0
C232 C 0.23665 0.24096 0.28997 0.0
C233 C 0.23851 0.22889 0.35242 0.0
C234 C 0.21628 0.21021 0.33121 0.0
C235 C 0.19501 0.19562 0.27826 0.0
C236 C 0.19568 0.19982 0.24664 0.0
C237 C 0.21562 0.21568 0.29989 0.0
C238 C 0.21646 0.22507 0.23689 0.0
C239 C 0.23659 0.24566 0.25843 0.0
H240 H 0.70191 0.28152 0.26892 0.0
H241 H 0.71114 0.21849 0.34058 0.0
H242 H 0.74413 0.18705 0.30831 0.0
H243 H 0.76998 0.17713 0.25991 0.0
H244 H 0.75876 0.23783 0.18658 0.0
H245 H 0.7267 0.27043 0.21921 0.0
C246 C 0.71132 0.26098 0.27744 0.0
C247 C 0.70427 0.2524 0.30712 0.0
C248 C 0.72972 0.24254 0.25844 0.0
C249 C 0.71619 0.22553 0.31779 0.0
C250 C 0.73507 0.20754 0.29937 0.0
C251 C 0.76056 0.19752 0.25103 0.0
C252 C 0.76686 0.20517 0.22096 0.0
C253 C 0.74189 0.21577 0.26968 0.0
C254 C 0.75417 0.23143 0.20967 0.0
C255 C 0.73595 0.25011 0.22834 0.0
H256 H 0.78123 0.76991 0.20665 0.0
H257 H 0.8063 0.84647 0.2766 0.0
H258 H 0.7741 0.81758 0.31313 0.0
H259 H 0.73784 0.77132 0.32491 0.0
H260 H 0.71358 0.69385 0.25588 0.0
H261 H 0.74682 0.7222 0.21939 0.0
C262 C 0.77956 0.78025 0.22987 0.0
C263 C 0.79589 0.81036 0.23884 0.0
C264 C 0.76133 0.76331 0.25096 0.0
C265 C 0.79392 0.82333 0.26911 0.0
C266 C 0.77551 0.80684 0.29004 0.0
C267 C 0.73994 0.76053 0.30193 0.0
C268 C 0.72314 0.73061 0.29306 0.0
C269 C 0.75903 0.7769 0.28117 0.0
C270 C 0.72635 0.71686 0.2633 0.0
C271 C 0.7452 0.73311 0.24238 0.0
H272 H 0.2751 0.67937 0.21702 0.0
H273 H 0.25996 0.70582 0.31219 0.0
H274 H 0.23149 0.74963 0.29669 0.0
H275 H 0.21273 0.78159 0.25651 0.0
H276 H 0.22797 0.75588 0.16123 0.0
H277 H 0.25483 0.71082 0.17642 0.0
C278 C 0.26516 0.69447 0.2343 0.0
C279 C 0.26961 0.68929 0.2657 0.0
C280 C 0.24926 0.72002 0.22528 0.0
C281 C 0.25688 0.70927 0.28786 0.0
C282 C 0.24071 0.73443 0.27904 0.0
C283 C 0.22203 0.76623 0.23904 0.0
C284 C 0.21856 0.77225 0.20781 0.0
C285 C 0.23719 0.74029 0.24789 0.0
C286 C 0.23047 0.75188 0.18546 0.0
C287 C 0.24574 0.72604 0.19411 0.0
H288 H 0.2294 0.71205 0.68612 0.0
H289 H 0.32692 0.75374 0.72307 0.0
H290 H 0.30152 0.78916 0.75869 0.0
H291 H 0.25166 0.80442 0.7828 0.0
H292 H 0.15444 0.75813 0.75005 0.0
H293 H 0.17939 0.72841 0.70929 0.0
C294 C 0.24496 0.72939 0.70155 0.0
C295 C 0.27986 0.73062 0.70194 0.0
C296 C 0.23019 0.74851 0.72297 0.0
C297 C 0.29994 0.75258 0.72243 0.0
C298 C 0.28544 0.77269 0.74283 0.0
C299 C 0.23596 0.78815 0.76642 0.0
C300 C 0.20134 0.7834 0.76933 0.0
C301 C 0.25061 0.7703 0.74386 0.0
C302 C 0.18122 0.76199 0.74829 0.0
C303 C 0.19545 0.74504 0.725 0.0
H304 H 0.22481 0.26281 0.84632 0.0
H305 H 0.22595 0.20239 0.7631 0.0
H306 H 0.26316 0.24261 0.74116 0.0
H307 H 0.29349 0.29589 0.7451 0.0
H308 H 0.29336 0.35503 0.8294 0.0
H309 H 0.25746 0.31431 0.85145 0.0
C310 C 0.23332 0.25836 0.82342 0.0
C311 C 0.22249 0.22983 0.80623 0.0
C312 C 0.25468 0.28142 0.81111 0.0
C313 C 0.23402 0.22421 0.77677 0.0
C314 C 0.25513 0.24723 0.76418 0.0
C315 C 0.28556 0.2998 0.76828 0.0
C316 C 0.29578 0.32848 0.78551 0.0
C317 C 0.26527 0.27609 0.78102 0.0
C318 C 0.28577 0.33314 0.81567 0.0
C319 C 0.26523 0.3099 0.8283 0.0
H320 H 0.77271 0.2161 0.78599 0.0
H321 H 0.76517 0.17856 0.69091 0.0
H322 H 0.7362 0.22229 0.67588 0.0
H323 H 0.71358 0.27157 0.68958 0.0
H324 H 0.72059 0.30876 0.78474 0.0
H325 H 0.74927 0.26486 0.7998 0.0
C326 C 0.76463 0.2174 0.76199 0.0
C327 C 0.77115 0.19408 0.73963 0.0
C328 C 0.74801 0.24265 0.75346 0.0
C329 C 0.76047 0.19616 0.70863 0.0
C330 C 0.74395 0.22121 0.69998 0.0
C331 C 0.72146 0.27012 0.7136 0.0
C332 C 0.71505 0.29349 0.73596 0.0
C333 C 0.73774 0.24468 0.72217 0.0
C334 C 0.72522 0.29112 0.76703 0.0
C335 C 0.74162 0.266 0.77569 0.0
H336 H 0.80989 0.76779 0.74267 0.0
H337 H 0.74215 0.81622 0.79603 0.0
H338 H 0.69485 0.79125 0.76195 0.0
H339 H 0.67274 0.74799 0.72378 0.0
H340 H 0.74046 0.70006 0.66996 0.0
H341 H 0.78813 0.7331 0.6969 0.0
C342 C 0.78482 0.77343 0.74624 0.0
C343 C 0.77912 0.79308 0.772 0.0
C344 C 0.75792 0.75894 0.72669 0.0
C345 C 0.74686 0.80091 0.77633 0.0
C346 C 0.71987 0.7865 0.75701 0.0
C347 C 0.69793 0.74553 0.71738 0.0
C348 C 0.70342 0.72143 0.69556 0.0
C349 C 0.72503 0.76433 0.73312 0.0
C350 C 0.73588 0.71851 0.68687 0.0
C351 C 0.76308 0.73716 0.70245 0.0
H352 H 0.18131 0.16874 0.93705 0.0
H353 H 0.1137 0.08411 0.91413 0.0
H354 H 0.11229 0.07502 0.96858 0.0
H355 H 0.12803 0.0921 0.0225 0.0
H356 H 0.19483 0.17695 0.04629 0.0
H357 H 0.19907 0.18475 0.99148 0.0
C358 C 0.16636 0.14824 0.94394 0.0
C359 C 0.14744 0.12727 0.9215 0.0
C360 C 0.16553 0.14317 0.97536 0.0
C361 C 0.12836 0.10074 0.93086 0.0
C362 C 0.12754 0.09549 0.96201 0.0
C363 C 0.14372 0.11224 0.01578 0.0
C364 C 0.16094 0.13402 0.03845 0.0
C365 C 0.14571 0.11672 0.98442 0.0
C366 C 0.1813 0.15986 0.02928 0.0
C367 C 0.18362 0.16437 -0.00203 0.0
H368 H 0.79698 0.17255 0.91497 0.0
H369 H 0.90059 0.15629 0.91689 0.0
H370 H 0.90247 0.15547 0.97264 0.0
H371 H 0.87371 0.15371 0.01996 0.0
H372 H 0.77043 0.16994 0.02029 0.0
H373 H 0.76933 0.1766 0.96464 0.0
C374 C 0.82009 0.16954 0.92774 0.0
C375 C 0.84852 0.16414 0.91176 0.0
C376 C 0.82092 0.16857 0.96009 0.0
C377 C 0.87828 0.16015 0.92858 0.0
C378 C 0.87939 0.15958 0.96048 0.0
C379 C 0.85095 0.15888 0.0079 0.0
C380 C 0.82203 0.16075 0.02395 0.0
C381 C 0.85065 0.16274 0.9763 0.0
C382 C 0.79296 0.16818 0.00827 0.0
C383 C 0.79234 0.17191 0.97649 0.0
H384 H 0.77599 0.82552 0.93765 0.0
H385 H 0.85183 0.76335 0.92897 0.0
H386 H 0.84864 0.75287 0.98318 0.0
H387 H 0.8342 0.77198 0.03482 0.0
H388 H 0.75887 0.83447 0.0435 0.0
H389 H 0.7509 0.83352 0.98735 0.0
C390 C 0.79096 0.80888 0.94746 0.0
C391 C 0.81464 0.79575 0.92981 0.0
C392 C 0.78913 0.80319 0.97862 0.0
C393 C 0.83359 0.77385 0.94233 0.0
C394 C 0.83193 0.76803 0.97336 0.0
C395 C 0.81479 0.78395 0.02426 0.0
C396 C 0.79709 0.80324 0.04289 0.0
C397 C 0.81117 0.78398 0.99206 0.0
C398 C 0.77237 0.81915 0.02936 0.0
C399 C 0.76826 0.81903 0.9973 0.0
H400 H 0.14911 0.77615 0.02877 0.0
H401 H 0.23449 0.84112 0.06252 0.0
H402 H 0.25116 0.84606 0.00977 0.0
H403 H 0.23492 0.83921 0.95389 0.0
H404 H 0.15068 0.77203 0.92069 0.0
H405 H 0.14072 0.7599 0.97322 0.0
C406 C 0.17205 0.79039 0.02453 0.0
C407 C 0.19057 0.8083 0.04918 0.0
C408 C 0.18143 0.79303 0.99422 0.0
C409 C 0.22013 0.82689 0.04372 0.0
C410 C 0.22943 0.82997 0.01357 0.0
C411 C 0.21502 0.82126 0.9581 0.0
C412 C 0.19311 0.80718 0.93341 0.0
C413 C 0.20935 0.81427 0.98854 0.0
C414 C 0.16777 0.78354 0.93921 0.0
C415 C 0.16184 0.77669 0.96934 0.0
H416 H 0.03934 0.16328 0.19709 0.0
H417 H 0.04567 0.15134 0.09835 0.0
H418 H 0.98798 0.16164 0.09038 0.0
H419 H 0.9346 0.16908 0.11107 0.0
H420 H 0.92652 0.17855 0.20961 0.0
H421 H 0.98634 0.17511 0.21793 0.0
C422 C 0.02818 0.16315 0.17383 0.0
C423 C 0.04673 0.15606 0.14839 0.0
C424 C -0.00527 0.16879 0.16933 0.0
C425 C 0.03193 0.1563 0.1184 0.0
C426 C -0.00108 0.16229 0.11377 0.0
C427 C 0.9459 0.17089 0.13443 0.0
C428 C 0.92596 0.17365 0.15967 0.0
C429 C 0.97992 0.16787 0.13904 0.0
C430 C 0.94122 0.17629 0.18973 0.0
C431 C 0.97539 0.17407 0.19452 0.0
H432 H 0.8122 0.95212 0.18698 0.0
H433 H 0.82959 0.93474 0.09073 0.0
H434 H 0.82037 0.98821 0.0816 0.0
H435 H 0.81137 0.04091 0.10148 0.0
H436 H 0.79414 0.05869 0.19771 0.0
H437 H 0.79858 0.00399 0.20602 0.0
C438 C 0.81387 0.96 0.16399 0.0
C439 C 0.82199 0.93949 0.1397 0.0
C440 C 0.8084 0.99086 0.15879 0.0
C441 C 0.82358 0.95001 0.10995 0.0
C442 C 0.81828 0.98063 0.10465 0.0
C443 C 0.80802 0.03278 0.12418 0.0
C444 C 0.80273 0.05408 0.14895 0.0
C445 C 0.81116 0.00138 0.12897 0.0
C446 C 0.79836 0.04294 0.17819 0.0
C447 C 0.80111 0.01165 0.18305 0.0
H448 H 0.9523 0.83506 0.20048 0.0
H449 H 0.93232 0.80892 0.103 0.0
H450 H 0.98997 0.79884 0.09869 0.0
H451 H 0.0472 0.80219 0.12133 0.0
H452 H 0.06781 0.82885 0.21862 0.0
H453 H 0.00878 0.83329 0.22424 0.0
C454 C 0.96048 0.8269 0.17836 0.0
C455 C 0.93804 0.82322 0.15207 0.0
C456 C 0.99385 0.8212 0.17592 0.0
C457 C 0.94903 0.81225 0.12364 0.0
C458 C 0.98207 0.80645 0.12109 0.0
C459 C 0.03876 0.80845 0.14389 0.0
C460 C 0.06205 0.81555 0.16939 0.0
C461 C 0.00486 0.81152 0.14692 0.0
C462 C 0.05052 0.82343 0.19849 0.0
C463 C 0.01674 0.82616 0.20174 0.0
H464 H 0.17894 0.03532 0.12414 0.0
H465 H 0.16337 0.04771 0.22125 0.0
H466 H 0.17312 0.99354 0.22724 0.0
H467 H 0.18023 0.94113 0.20367 0.0
H468 H 0.19301 0.92894 0.10607 0.0
H469 H 0.19079 0.98468 0.10165 0.0
C470 C 0.17793 0.02633 0.14672 0.0
C471 C 0.16995 0.04548 0.1721 0.0
C472 C 0.18311 0.99513 0.14992 0.0
C473 C 0.16917 0.03344 0.20123 0.0
C474 C 0.17474 0.00244 0.20469 0.0
C475 C 0.18333 0.95087 0.18162 0.0
C476 C 0.18662 0.93098 0.15521 0.0
C477 C 0.18097 0.98285 0.17904 0.0
C478 C 0.19026 0.9438 0.1267 0.0
C479 C 0.18885 0.97563 0.12412 0.0
H480 H 0.96221 0.88331 0.87753 0.0
H481 H 0.94274 0.81413 0.79985 0.0
H482 H 0.00234 0.815 0.79406 0.0
H483 H 0.0598 0.8324 0.81297 0.0
H484 H 0.08033 0.90031 0.89152 0.0
H485 H 0.02052 0.90316 0.89476 0.0
C486 C 0.97102 0.86869 0.85916 0.0
C487 C 0.94803 0.84849 0.83936 0.0
C488 C 0.00551 0.86895 0.85613 0.0
C489 C 0.95987 0.82968 0.81564 0.0
C490 C 0.99398 0.83016 0.81225 0.0
C491 C 0.0513 0.84808 0.83066 0.0
C492 C 0.07452 0.8659 0.85211 0.0
C493 C 0.01699 0.84924 0.83269 0.0
C494 C 0.06298 0.8862 0.87477 0.0
C495 C 0.02877 0.88779 0.8767 0.0
H496 H 0.23913 0.97263 0.85672 0.0
H497 H 0.17538 0.91804 0.78482 0.0
H498 H 0.16257 0.96571 0.76229 0.0
H499 H 0.15936 0.02245 0.77071 0.0
H500 H 0.22516 0.07729 0.84082 0.0
H501 H 0.24799 0.03017 0.85588 0.0
C502 C 0.2235 0.9712 0.83543 0.0
C503 C 0.20767 0.94198 0.82283 0.0
C504 C 0.21622 -0.00122 0.82254 0.0
C505 C 0.18778 0.9403 0.79505 0.0
C506 C 0.18014 0.9676 0.7823 0.0
C507 C 0.17973 0.02417 0.78835 0.0
C508 C 0.19026 0.05308 0.80495 0.0
C509 C 0.19269 0.99695 0.79692 0.0
C510 C 0.21674 0.05522 0.82767 0.0
C511 C 0.2295 0.02821 0.83657 0.0
H512 H 0.04254 0.12711 0.76101 0.0
H513 H 0.05848 0.2084 0.82645 0.0
H514 H -0.00042 0.21523 0.82034 0.0
H515 H 0.94239 0.19365 0.80244 0.0
H516 H 0.9259 0.11311 0.73637 0.0
H517 H 0.9861 0.11085 0.73627 0.0
C518 C 0.03325 0.14666 0.77348 0.0
C519 C 0.05484 0.16677 0.79465 0.0
C520 C -0.00085 0.15049 0.76995 0.0
C521 C 0.04245 0.19231 0.81023 0.0
C522 C 0.00867 0.19622 0.80687 0.0
C523 C 0.95205 0.17604 0.78751 0.0
C524 C 0.92978 0.15332 0.76983 0.0
C525 C 0.98661 0.17476 0.78771 0.0
C526 C 0.94257 0.13087 0.75024 0.0
C527 C 0.97699 0.1294 0.75037 0.0
H528 H 0.8069 0.93178 0.8037 0.0
H529 H 0.82494 0.96169 0.90057 0.0
H530 H 0.81507 0.01467 0.89024 0.0
H531 H 0.8086 0.05356 0.85343 0.0
H532 H 0.79378 0.02539 0.75607 0.0
H533 H 0.79421 0.97053 0.76692 0.0
C534 C 0.80808 0.9498 0.82256 0.0
C535 C 0.81714 0.94295 0.85279 0.0
C536 C 0.80311 0.98052 0.81637 0.0
C537 C 0.81849 0.96647 0.87705 0.0
C538 C 0.81283 0.99678 0.87118 0.0
C539 C 0.80495 0.03541 0.83454 0.0
C540 C 0.80175 0.04358 0.80396 0.0
C541 C 0.80626 0.00425 0.84086 0.0
C542 C 0.79646 0.01974 0.77983 0.0
C543 C 0.79696 0.98839 0.78601 0.0
H544 H 0.68178 0.68835 0.44657 0.0
H545 H 0.64608 0.59268 0.41429 0.0
H546 H 0.64271 0.5788 0.46722 0.0
H547 H 0.64475 0.59459 0.52214 0.0
H548 H 0.67876 0.69023 0.55536 0.0
H549 H 0.68834 0.70325 0.5026 0.0
C550 C 0.67376 0.66439 0.45115 0.0
C551 C 0.66381 0.6417 0.42649 0.0
C552 C 0.67133 0.65658 0.48177 0.0
C553 C 0.6535 0.61072 0.43281 0.0
C554 C 0.65154 0.60271 0.46309 0.0
C555 C 0.65456 0.61825 0.51794 0.0
C556 C 0.66063 0.64149 0.54256 0.0
C557 C 0.65953 0.62561 0.48767 0.0
C558 C 0.67373 0.67193 0.53675 0.0
C559 C 0.6791 0.67941 0.50658 0.0
H560 H 0.24832 0.64164 0.50867 0.0
H561 H 0.32628 0.71065 0.55092 0.0
H562 H 0.34215 0.72503 0.50012 0.0
H563 H 0.34088 0.70991 0.44417 0.0
H564 H 0.26053 0.64347 0.4018 0.0
H565 H 0.23806 0.63654 0.45202 0.0
C566 C 0.26786 0.66069 0.50667 0.0
C567 C 0.28637 0.67486 0.5333 0.0
C568 C 0.27677 0.66889 0.47738 0.0
C569 C 0.31159 0.69956 0.53064 0.0
C570 C 0.32096 0.70751 0.50159 0.0
C571 C 0.31782 0.69477 0.44591 0.0
C572 C 0.30263 0.67686 0.41957 0.0
C573 C 0.30482 0.69117 0.47484 0.0
C574 C 0.27262 0.6575 0.42186 0.0
C575 C 0.25992 0.65331 0.4506 0.0
H576 H 0.30932 0.30464 0.49733 0.0
H577 H 0.34521 0.39922 0.47878 0.0
H578 H 0.34683 0.41577 0.53342 0.0
H579 H 0.34158 0.40312 0.58647 0.0
H580 H 0.306 0.30914 0.60646 0.0
H581 H 0.30038 0.29268 0.5511 0.0
C582 C 0.31724 0.32892 0.50522 0.0
C583 C 0.32746 0.35055 0.48392 0.0
C584 C 0.31828 0.33837 0.53688 0.0
C585 C 0.33743 0.38197 0.49457 0.0
C586 C 0.3384 0.39151 0.52586 0.0
C587 C 0.33244 0.37902 0.57878 0.0
C588 C 0.32459 0.35727 0.60048 0.0
C589 C 0.32946 0.36983 0.5472 0.0
C590 C 0.31228 0.32629 0.59014 0.0
C591 C 0.30919 0.31688 0.55853 0.0
H592 H 0.6794 0.29968 0.45856 0.0
H593 H 0.67129 0.39737 0.44787 0.0
H594 H 0.67118 0.40757 0.5035 0.0
H595 H 0.66843 0.38828 0.55461 0.0
H596 H 0.67742 0.29125 0.5667 0.0
H597 H 0.68226 0.28126 0.511 0.0
C598 C 0.6781 0.32329 0.4684 0.0
C599 C 0.67493 0.34763 0.44889 0.0
C600 C 0.67781 0.32905 0.5006 0.0
C601 C 0.67352 0.37811 0.46217 0.0
C602 C 0.67331 0.38399 0.49404 0.0
C603 C 0.67157 0.36493 0.54509 0.0
C604 C 0.67199 0.34039 0.56455 0.0
C605 C 0.67455 0.35952 0.51334 0.0
C606 C 0.67683 0.31045 0.55207 0.0
C607 C 0.67953 0.30476 0.52027 0.0
H608 H 0.52009 0.61907 0.60431 0.0
H609 H 0.53961 0.68319 0.68598 0.0
H610 H 0.48112 0.69177 0.6847 0.0
H611 H 0.42423 0.67992 0.66179 0.0
H612 H 0.40353 0.61486 0.58104 0.0
H613 H 0.46277 0.60813 0.58044 0.0
C614 C 0.51155 0.63496 0.62178 0.0
C615 C 0.53423 0.6503 0.64527 0.0
C616 C 0.47771 0.63974 0.62107 0.0
C617 C 0.52273 0.67089 0.6677 0.0
C618 C 0.48926 0.67591 0.667 0.0
C619 C 0.43265 0.66448 0.64384 0.0
C620 C 0.40948 0.6479 0.62154 0.0
C621 C 0.46652 0.66031 0.64394 0.0
C622 C 0.42086 0.62788 0.59854 0.0
C623 C 0.45471 0.62395 0.59822 0.0
H624 H 0.29868 0.58299 0.71397 0.0
H625 H 0.24928 0.54542 0.62636 0.0
H626 H 0.25313 0.49237 0.64083 0.0
H627 H 0.27935 0.45747 0.67418 0.0
H628 H 0.33058 0.49491 0.76095 0.0
H629 H 0.31692 0.5472 0.75105 0.0
C630 C 0.28799 0.56323 0.6983 0.0
C631 C 0.27443 0.56825 0.6688 0.0
C632 C 0.29119 0.53276 0.70638 0.0
C633 C 0.26023 0.54232 0.64905 0.0
C634 C 0.26265 0.51192 0.65721 0.0
C635 C 0.28709 0.47699 0.69117 0.0
C636 C 0.30661 0.47248 0.71793 0.0
C637 C 0.27956 0.50698 0.68513 0.0
C638 C 0.3158 0.49782 0.74004 0.0
C639 C 0.30811 0.52775 0.73432 0.0
H640 H 0.56513 0.36641 0.73998 0.0
H641 H 0.5483 0.33977 0.64234 0.0
H642 H 0.48919 0.34578 0.64496 0.0
H643 H 0.4431 0.3613 0.67416 0.0
H644 H 0.45971 0.38906 0.77159 0.0
H645 H 0.51823 0.37998 0.76975 0.0
C646 C 0.54847 0.3615 0.71934 0.0
C647 C 0.5612 0.35271 0.69099 0.0
C648 C 0.51458 0.36556 0.72087 0.0
C649 C 0.53923 0.34664 0.66445 0.0
C650 C 0.50543 0.35017 0.66589 0.0
C651 C 0.45944 0.36538 0.69506 0.0
C652 C 0.44702 0.3761 0.72293 0.0
C653 C 0.49299 0.36016 0.69385 0.0
C654 C 0.46859 0.38096 0.74979 0.0
C655 C 0.50206 0.37573 0.74877 0.0
H656 H 0.69802 0.55167 0.64547 0.0
H657 H 0.649 0.56589 0.72982 0.0
H658 H 0.66305 0.51542 0.74563 0.0
H659 H 0.68042 0.46374 0.73081 0.0
H660 H 0.72712 0.44938 0.64519 0.0
H661 H 0.72399 0.50384 0.63505 0.0
C662 C 0.69084 0.5439 0.66753 0.0
C663 C 0.6718 0.56198 0.68611 0.0
C664 C 0.69874 0.51489 0.67627 0.0
C665 C 0.66335 0.55212 0.71496 0.0
C666 C 0.67133 0.52327 0.72397 0.0
C667 C 0.69112 0.47291 0.71058 0.0
C668 C 0.70363 0.45259 0.68858 0.0
C669 C 0.68788 0.50393 0.70423 0.0
C670 C 0.71719 0.46463 0.66233 0.0
C671 C 0.71507 0.49566 0.65636 0.0
H672 H 0.43551 0.33917 0.33529 0.0
H673 H 0.42932 0.25999 0.39059 0.0
H674 H 0.48687 0.25215 0.38072 0.0
H675 H 0.54099 0.27217 0.36199 0.0
H676 H 0.54692 0.35246 0.30812 0.0
H677 H 0.48727 0.35503 0.31132 0.0
C678 C 0.4466 0.31997 0.34493 0.0
C679 C 0.42837 0.30057 0.3641 0.0
C680 C 0.47971 0.31581 0.33944 0.0
C681 C 0.4429 0.27544 0.37594 0.0
C682 C 0.47585 0.27098 0.37036 0.0
C683 C 0.52905 0.28971 0.35027 0.0
C684 C 0.54845 0.31233 0.33518 0.0
C685 C 0.49481 0.29161 0.3529 0.0
C686 C 0.53262 0.33496 0.32016 0.0
C687 C 0.49852 0.33656 0.3221 0.0
H688 H 0.61366 0.43783 0.3023 0.0
H689 H 0.71939 0.44934 0.32663 0.0
H690 H 0.72306 0.50441 0.31464 0.0
H691 H 0.69366 0.55103 0.3063 0.0
H692 H 0.58729 0.53817 0.28384 0.0
H693 H 0.58643 0.48174 0.28503 0.0
C694 C 0.63764 0.45225 0.30412 0.0
C695 C 0.66615 0.43996 0.31552 0.0
C696 C 0.63932 0.48367 0.29764 0.0
C697 C 0.69718 0.45851 0.31776 0.0
C698 C 0.69917 0.48999 0.31114 0.0
C699 C 0.67059 0.53571 0.30055 0.0
C700 C 0.64049 0.54867 0.29531 0.0
C701 C 0.6701 0.50316 0.30229 0.0
C702 C 0.61068 0.52867 0.28817 0.0
C703 C 0.61013 0.49643 0.28905 0.0
H704 H 0.54531 0.66064 0.27475 0.0
H705 H 0.56156 0.72577 0.35564 0.0
H706 H 0.5019 0.73065 0.35471 0.0
H707 H 0.44452 0.70972 0.33589 0.0
H708 H 0.42864 0.64458 0.25485 0.0
H709 H 0.48865 0.647 0.25056 0.0
C710 C 0.53587 0.67639 0.29179 0.0
C711 C 0.55771 0.69231 0.31557 0.0
C712 C 0.50151 0.6789 0.29129 0.0
C713 C 0.54524 0.71308 0.33718 0.0
C714 C 0.51106 0.71575 0.33679 0.0
C715 C 0.45413 0.69661 0.31688 0.0
C716 C 0.43204 0.67642 0.29621 0.0
C717 C 0.48882 0.69776 0.3147 0.0
C718 C 0.44498 0.66001 0.2714 0.0
C719 C 0.47939 0.66122 0.26897 0.0
H720 H 0.37144 0.45946 0.38586 0.0
H721 H 0.29385 0.41769 0.31834 0.0
H722 H 0.28587 0.46976 0.30181 0.0
H723 H 0.30138 0.52765 0.30711 0.0
H724 H 0.37803 0.56726 0.37691 0.0
H725 H 0.38576 0.51553 0.39188 0.0
C726 C 0.35283 0.46158 0.36738 0.0
C727 C 0.33346 0.43472 0.35319 0.0
C728 C 0.34813 0.49132 0.35846 0.0
C729 C 0.30917 0.43804 0.32959 0.0
C730 C 0.30462 0.4678 0.32016 0.0
C731 C 0.31972 0.52488 0.32557 0.0
C732 C 0.33904 0.55146 0.34079 0.0
C733 C 0.32399 0.4947 0.3345 0.0
C734 C 0.36263 0.54741 0.3648 0.0
C735 C 0.36722 0.51775 0.37341 0.0
loop_
_geom_bond_atom_site_label_1
_geom_bond_atom_site_label_2
_geom_bond_distance
_geom_bond_site_symmetry_2
_ccdc_geom_bond_type
O0 Cd1 2.223 . S
O0 C8 1.315 . S
Cd1 O0 2.223 . S
Cd1 O4 2.297 . S
Cd1 O5 2.439 . S
Cd1 O11 2.240 . S
Cd2 O3 2.240 . S
Cd2 O10 2.223 . S
Cd2 O12 2.297 . S
Cd2 O13 2.439 . S
O3 Cd2 2.240 . S
O3 C8 1.279 . S
O4 Cd1 2.297 . S
O4 C6 1.247 . S
O5 Cd1 2.439 . S
O5 C6 1.208 . S
C6 O4 1.247 . S
C6 O5 1.208 . S
C7 O12 1.247 . S
C7 O13 1.208 . S
C8 O0 1.315 . S
C8 O3 1.279 . S
C9 O10 1.315 . S
C9 O11 1.279 . S
O10 Cd2 2.223 . S
O10 C9 1.315 . S
O11 Cd1 2.240 . S
O11 C9 1.279 . S
O12 Cd2 2.297 . S
O12 C7 1.247 . S
O13 Cd2 2.439 . S
O13 C7 1.208 . S
O14 Cd15 2.223 . S
O14 C22 1.315 . S
Cd15 O14 2.223 . S
Cd15 O18 2.297 . S
Cd15 O19 2.439 . S
Cd15 O25 2.240 . S
Cd16 O17 2.240 . S
Cd16 O24 2.223 . S
Cd16 O26 2.297 . S
Cd16 O27 2.439 . S
O17 Cd16 2.240 . S
O17 C22 1.279 . S
O18 Cd15 2.297 . S
O18 C20 1.247 . S
O19 Cd15 2.439 . S
O19 C20 1.208 . S
C20 O18 1.247 . S
C20 O19 1.208 . S
C21 O26 1.247 . S
C21 O27 1.208 . S
C22 O14 1.315 . S
C22 O17 1.279 . S
C23 O24 1.315 . S
C23 O25 1.279 . S
O24 Cd16 2.223 . S
O24 C23 1.315 . S
O25 Cd15 2.240 . S
O25 C23 1.279 . S
O26 Cd16 2.297 . S
O26 C21 1.247 . S
O27 Cd16 2.439 . S
O27 C21 1.208 . S
O28 Cd29 2.223 . S
O28 C36 1.315 . S
Cd29 O28 2.223 . S
Cd29 O32 2.297 . S
Cd29 O33 2.439 . S
Cd29 O39 2.240 . S
Cd30 O31 2.240 . S
Cd30 O38 2.223 . S
Cd30 O40 2.297 . S
Cd30 O41 2.439 . S
O31 Cd30 2.240 . S
O31 C36 1.279 . S
O32 Cd29 2.297 . S
O32 C34 1.247 . S
O33 Cd29 2.439 . S
O33 C34 1.208 . S
C34 O32 1.247 . S
C34 O33 1.208 . S
C35 O40 1.247 . S
C35 O41 1.208 . S
C36 O28 1.315 . S
C36 O31 1.279 . S
C37 O38 1.315 . S
C37 O39 1.279 . S
O38 Cd30 2.223 . S
O38 C37 1.315 . S
O39 Cd29 2.240 . S
O39 C37 1.279 . S
O40 Cd30 2.297 . S
O40 C35 1.247 . S
O41 Cd30 2.439 . S
O41 C35 1.208 . S
O42 Cd43 2.223 . S
O42 C50 1.315 . S
Cd43 O42 2.223 . S
Cd43 O46 2.297 . S
Cd43 O47 2.439 . S
Cd43 O53 2.240 . S
Cd44 O45 2.240 . S
Cd44 O52 2.223 . S
Cd44 O54 2.297 . S
Cd44 O55 2.439 . S
O45 Cd44 2.240 . S
O45 C50 1.279 . S
O46 Cd43 2.297 . S
O46 C48 1.247 . S
O47 Cd43 2.439 . S
O47 C48 1.208 . S
C48 O46 1.247 . S
C48 O47 1.208 . S
C49 O54 1.247 . S
C49 O55 1.208 . S
C50 O42 1.315 . S
C50 O45 1.279 . S
C51 O52 1.315 . S
C51 O53 1.279 . S
O52 Cd44 2.223 . S
O52 C51 1.315 . S
O53 Cd43 2.240 . S
O53 C51 1.279 . S
O54 Cd44 2.297 . S
O54 C49 1.247 . S
O55 Cd44 2.439 . S
O55 C49 1.208 . S
O56 Cd57 2.223 . S
O56 C64 1.315 . S
Cd57 O56 2.223 . S
Cd57 O60 2.297 . S
Cd57 O61 2.439 . S
Cd57 O67 2.240 . S
Cd58 O59 2.240 . S
Cd58 O66 2.223 . S
Cd58 O68 2.297 . S
Cd58 O69 2.439 . S
O59 Cd58 2.240 . S
O59 C64 1.279 . S
O60 Cd57 2.297 . S
O60 C62 1.247 . S
O61 Cd57 2.439 . S
O61 C62 1.208 . S
C62 O60 1.247 . S
C62 O61 1.208 . S
C63 O68 1.247 . S
C63 O69 1.208 . S
C64 O56 1.315 . S
C64 O59 1.279 . S
C65 O66 1.315 . S
C65 O67 1.279 . S
O66 Cd58 2.223 . S
O66 C65 1.315 . S
O67 Cd57 2.240 . S
O67 C65 1.279 . S
O68 Cd58 2.297 . S
O68 C63 1.247 . S
O69 Cd58 2.439 . S
O69 C63 1.208 . S
O70 Cd71 2.223 . S
O70 C78 1.315 . S
Cd71 O70 2.223 . S
Cd71 O74 2.297 . S
Cd71 O75 2.439 . S
Cd71 O81 2.240 . S
Cd72 O73 2.240 . S
Cd72 O80 2.223 . S
Cd72 O82 2.297 . S
Cd72 O83 2.439 . S
O73 Cd72 2.240 . S
O73 C78 1.279 . S
O74 Cd71 2.297 . S
O74 C76 1.247 . S
O75 Cd71 2.439 . S
O75 C76 1.208 . S
C76 O74 1.247 . S
C76 O75 1.208 . S
C77 O82 1.247 . S
C77 O83 1.208 . S
C78 O70 1.315 . S
C78 O73 1.279 . S
C79 O80 1.315 . S
C79 O81 1.279 . S
O80 Cd72 2.223 . S
O80 C79 1.315 . S
O81 Cd71 2.240 . S
O81 C79 1.279 . S
O82 Cd72 2.297 . S
O82 C77 1.247 . S
O83 Cd72 2.439 . S
O83 C77 1.208 . S
O84 Cd85 2.223 . S
O84 C92 1.315 . S
Cd85 O84 2.223 . S
Cd85 O88 2.297 . S
Cd85 O89 2.439 . S
Cd85 O95 2.240 . S
Cd86 O87 2.240 . S
Cd86 O94 2.223 . S
Cd86 O96 2.297 . S
Cd86 O97 2.439 . S
O87 Cd86 2.240 . S
O87 C92 1.279 . S
O88 Cd85 2.297 . S
O88 C90 1.247 . S
O89 Cd85 2.439 . S
O89 C90 1.208 . S
C90 O88 1.247 . S
C90 O89 1.208 . S
C91 O96 1.247 . S
C91 O97 1.208 . S
C92 O84 1.315 . S
C92 O87 1.279 . S
C93 O94 1.315 . S
C93 O95 1.279 . S
O94 Cd86 2.223 . S
O94 C93 1.315 . S
O95 Cd85 2.240 . S
O95 C93 1.279 . S
O96 Cd86 2.297 . S
O96 C91 1.247 . S
O97 Cd86 2.439 . S
O97 C91 1.208 . S
O98 Cd99 2.223 . S
O98 C106 1.315 . S
Cd99 O98 2.223 . S
Cd99 O102 2.297 . S
Cd99 O103 2.439 . S
Cd99 O109 2.240 . S
Cd100 O101 2.240 . S
Cd100 O108 2.223 . S
Cd100 O110 2.297 . S
Cd100 O111 2.439 . S
O101 Cd100 2.240 . S
O101 C106 1.279 . S
O102 Cd99 2.297 . S
O102 C104 1.247 . S
O103 Cd99 2.439 . S
O103 C104 1.208 . S
C104 O102 1.247 . S
C104 O103 1.208 . S
C105 O110 1.247 . S
C105 O111 1.208 . S
C106 O98 1.315 . S
C106 O101 1.279 . S
C107 O108 1.315 . S
C107 O109 1.279 . S
O108 Cd100 2.223 . S
O108 C107 1.315 . S
O109 Cd99 2.240 . S
O109 C107 1.279 . S
O110 Cd100 2.297 . S
O110 C105 1.247 . S
O111 Cd100 2.439 . S
O111 C105 1.208 . S
O112 Cd113 2.223 . S
O112 C120 1.315 . S
Cd113 O112 2.223 . S
Cd113 O116 2.297 . S
Cd113 O117 2.439 . S
Cd113 O123 2.240 . S
Cd114 O115 2.240 . S
Cd114 O122 2.223 . S
Cd114 O124 2.297 . S
Cd114 O125 2.439 . S
O115 Cd114 2.240 . S
O115 C120 1.279 . S
O116 Cd113 2.297 . S
O116 C118 1.247 . S
O117 Cd113 2.439 . S
O117 C118 1.208 . S
C118 O116 1.247 . S
C118 O117 1.208 . S
C119 O124 1.247 . S
C119 O125 1.208 . S
C120 O112 1.315 . S
C120 O115 1.279 . S
C121 O122 1.315 . S
C121 O123 1.279 . S
O122 Cd114 2.223 . S
O122 C121 1.315 . S
O123 Cd113 2.240 . S
O123 C121 1.279 . S
O124 Cd114 2.297 . S
O124 C119 1.247 . S
O125 Cd114 2.439 . S
O125 C119 1.208 . S
O126 Cd127 2.223 . S
O126 C134 1.315 . S
Cd127 O126 2.223 . S
Cd127 O130 2.297 . S
Cd127 O131 2.439 . S
Cd127 O137 2.240 . S
Cd128 O129 2.240 . S
Cd128 O136 2.223 . S
Cd128 O138 2.297 . S
Cd128 O139 2.439 . S
O129 Cd128 2.240 . S
O129 C134 1.279 . S
O130 Cd127 2.297 . S
O130 C132 1.247 . S
O131 Cd127 2.439 . S
O131 C132 1.208 . S
C132 O130 1.247 . S
C132 O131 1.208 . S
C133 O138 1.247 . S
C133 O139 1.208 . S
C134 O126 1.315 . S
C134 O129 1.279 . S
C135 O136 1.315 . S
C135 O137 1.279 . S
O136 Cd128 2.223 . S
O136 C135 1.315 . S
O137 Cd127 2.240 . S
O137 C135 1.279 . S
O138 Cd128 2.297 . S
O138 C133 1.247 . S
O139 Cd128 2.439 . S
O139 C133 1.208 . S
O140 Cd141 2.223 . S
O140 C148 1.315 . S
Cd141 O140 2.223 . S
Cd141 O144 2.297 . S
Cd141 O145 2.439 . S
Cd141 O151 2.240 . S
Cd142 O143 2.240 . S
Cd142 O150 2.223 . S
Cd142 O152 2.297 . S
Cd142 O153 2.439 . S
O143 Cd142 2.240 . S
O143 C148 1.279 . S
O144 Cd141 2.297 . S
O144 C146 1.247 . S
O145 Cd141 2.439 . S
O145 C146 1.208 . S
C146 O144 1.247 . S
C146 O145 1.208 . S
C147 O152 1.247 . S
C147 O153 1.208 . S
C148 O140 1.315 . S
C148 O143 1.279 . S
C149 O150 1.315 . S
C149 O151 1.279 . S
O150 Cd142 2.223 . S
O150 C149 1.315 . S
O151 Cd141 2.240 . S
O151 C149 1.279 . S
O152 Cd142 2.297 . S
O152 C147 1.247 . S
O153 Cd142 2.439 . S
O153 C147 1.208 . S
O154 Cd155 2.223 . S
O154 C162 1.315 . S
Cd155 O154 2.223 . S
Cd155 O158 2.297 . S
Cd155 O159 2.439 . S
Cd155 O165 2.240 . S
Cd156 O157 2.240 . S
Cd156 O164 2.223 . S
Cd156 O166 2.297 . S
Cd156 O167 2.439 . S
O157 Cd156 2.240 . S
O157 C162 1.279 . S
O158 Cd155 2.297 . S
O158 C160 1.247 . S
O159 Cd155 2.439 . S
O159 C160 1.208 . S
C160 O158 1.247 . S
C160 O159 1.208 . S
C161 O166 1.247 . S
C161 O167 1.208 . S
C162 O154 1.315 . S
C162 O157 1.279 . S
C163 O164 1.315 . S
C163 O165 1.279 . S
O164 Cd156 2.223 . S
O164 C163 1.315 . S
O165 Cd155 2.240 . S
O165 C163 1.279 . S
O166 Cd156 2.297 . S
O166 C161 1.247 . S
O167 Cd156 2.439 . S
O167 C161 1.208 . S
O168 Cd169 2.223 . S
O168 C176 1.315 . S
Cd169 O168 2.223 . S
Cd169 O172 2.297 . S
Cd169 O173 2.439 . S
Cd169 O179 2.240 . S
Cd170 O171 2.240 . S
Cd170 O178 2.223 . S
Cd170 O180 2.297 . S
Cd170 O181 2.439 . S
O171 Cd170 2.240 . S
O171 C176 1.279 . S
O172 Cd169 2.297 . S
O172 C174 1.247 . S
O173 Cd169 2.439 . S
O173 C174 1.208 . S
C174 O172 1.247 . S
C174 O173 1.208 . S
C175 O180 1.247 . S
C175 O181 1.208 . S
C176 O168 1.315 . S
C176 O171 1.279 . S
C177 O178 1.315 . S
C177 O179 1.279 . S
O178 Cd170 2.223 . S
O178 C177 1.315 . S
O179 Cd169 2.240 . S
O179 C177 1.279 . S
O180 Cd170 2.297 . S
O180 C175 1.247 . S
O181 Cd170 2.439 . S
O181 C175 1.208 . S
O182 Cd183 2.223 . S
O182 C190 1.315 . S
Cd183 O182 2.223 . S
Cd183 O186 2.297 . S
Cd183 O187 2.439 . S
Cd183 O193 2.240 . S
Cd184 O185 2.240 . S
Cd184 O192 2.223 . S
Cd184 O194 2.297 . S
Cd184 O195 2.439 . S
O185 Cd184 2.240 . S
O185 C190 1.279 . S
O186 Cd183 2.297 . S
O186 C188 1.247 . S
O187 Cd183 2.439 . S
O187 C188 1.208 . S
C188 O186 1.247 . S
C188 O187 1.208 . S
C189 O194 1.247 . S
C189 O195 1.208 . S
C190 O182 1.315 . S
C190 O185 1.279 . S
C191 O192 1.315 . S
C191 O193 1.279 . S
O192 Cd184 2.223 . S
O192 C191 1.315 . S
O193 Cd183 2.240 . S
O193 C191 1.279 . S
O194 Cd184 2.297 . S
O194 C189 1.247 . S
O195 Cd184 2.439 . S
O195 C189 1.208 . S
O196 Cd197 2.223 . S
O196 C204 1.315 . S
Cd197 O196 2.223 . S
Cd197 O200 2.297 . S
Cd197 O201 2.439 . S
Cd197 O207 2.240 . S
Cd198 O199 2.240 . S
Cd198 O206 2.223 . S
Cd198 O208 2.297 . S
Cd198 O209 2.439 . S
O199 Cd198 2.240 . S
O199 C204 1.279 . S
O200 Cd197 2.297 . S
O200 C202 1.247 . S
O201 Cd197 2.439 . S
O201 C202 1.208 . S
C202 O200 1.247 . S
C202 O201 1.208 . S
C203 O208 1.247 . S
C203 O209 1.208 . S
C204 O196 1.315 . S
C204 O199 1.279 . S
C205 O206 1.315 . S
C205 O207 1.279 . S
O206 Cd198 2.223 . S
O206 C205 1.315 . S
O207 Cd197 2.240 . S
O207 C205 1.279 . S
O208 Cd198 2.297 . S
O208 C203 1.247 . S
O209 Cd198 2.439 . S
O209 C203 1.208 . S
O210 Cd211 2.223 . S
O210 C218 1.315 . S
Cd211 O210 2.223 . S
Cd211 O214 2.297 . S
Cd211 O215 2.439 . S
Cd211 O221 2.240 . S
Cd212 O213 2.240 . S
Cd212 O220 2.223 . S
Cd212 O222 2.297 . S
Cd212 O223 2.439 . S
O213 Cd212 2.240 . S
O213 C218 1.279 . S
O214 Cd211 2.297 . S
O214 C216 1.247 . S
O215 Cd211 2.439 . S
O215 C216 1.208 . S
C216 O214 1.247 . S
C216 O215 1.208 . S
C217 O222 1.247 . S
C217 O223 1.208 . S
C218 O210 1.315 . S
C218 O213 1.279 . S
C219 O220 1.315 . S
C219 O221 1.279 . S
O220 Cd212 2.223 . S
O220 C219 1.315 . S
O221 Cd211 2.240 . S
O221 C219 1.279 . S
O222 Cd212 2.297 . S
O222 C217 1.247 . S
O223 Cd212 2.439 . S
O223 C217 1.208 . S
H224 C230 0.930 . S
H225 C233 0.930 . S
H226 C234 0.930 . S
H227 C235 0.930 . S
H228 C238 0.930 . S
H229 C239 0.930 . S
C230 H224 0.930 . S
C230 C231 1.355 . S
C230 C232 1.415 . S
C231 C230 1.355 . S
C231 C233 1.419 . S
C232 C230 1.415 . S
C232 C237 1.425 . S
C232 C239 1.409 . S
C233 H225 0.930 . S
C233 C231 1.419 . S
C233 C234 1.362 . S
C234 H226 0.930 . S
C234 C233 1.362 . S
C234 C237 1.409 . S
C235 H227 0.930 . S
C235 C236 1.355 . S
C235 C237 1.415 . S
C236 C235 1.355 . S
C236 C238 1.419 . S
C237 C232 1.425 . S
C237 C234 1.409 . S
C237 C235 1.415 . S
C238 H228 0.930 . S
C238 C236 1.419 . S
C238 C239 1.362 . S
C239 H229 0.930 . S
C239 C232 1.409 . S
C239 C238 1.362 . S
H240 C246 0.930 . S
H241 C249 0.930 . S
H242 C250 0.930 . S
H243 C251 0.930 . S
H244 C254 0.930 . S
H245 C255 0.930 . S
C246 H240 0.930 . S
C246 C247 1.355 . S
C246 C248 1.415 . S
C247 C246 1.355 . S
C247 C249 1.419 . S
C248 C246 1.415 . S
C248 C253 1.425 . S
C248 C255 1.409 . S
C249 H241 0.930 . S
C249 C247 1.419 . S
C249 C250 1.362 . S
C250 H242 0.930 . S
C250 C249 1.362 . S
C250 C253 1.409 . S
C251 H243 0.930 . S
C251 C252 1.355 . S
C251 C253 1.415 . S
C252 C251 1.355 . S
C252 C254 1.419 . S
C253 C248 1.425 . S
C253 C250 1.409 . S
C253 C251 1.415 . S
C254 H244 0.930 . S
C254 C252 1.419 . S
C254 C255 1.362 . S
C255 H245 0.930 . S
C255 C248 1.409 . S
C255 C254 1.362 . S
H256 C262 0.930 . S
H257 C265 0.930 . S
H258 C266 0.930 . S
H259 C267 0.930 . S
H260 C270 0.930 . S
H261 C271 0.930 . S
C262 H256 0.930 . S
C262 C263 1.355 . S
C262 C264 1.415 . S
C263 C262 1.355 . S
C263 C265 1.419 . S
C264 C262 1.415 . S
C264 C269 1.425 . S
C264 C271 1.409 . S
C265 H257 0.930 . S
C265 C263 1.419 . S
C265 C266 1.362 . S
C266 H258 0.930 . S
C266 C265 1.362 . S
C266 C269 1.409 . S
C267 H259 0.930 . S
C267 C268 1.355 . S
C267 C269 1.415 . S
C268 C267 1.355 . S
C268 C270 1.419 . S
C269 C264 1.425 . S
C269 C266 1.409 . S
C269 C267 1.415 . S
C270 H260 0.930 . S
C270 C268 1.419 . S
C270 C271 1.362 . S
C271 H261 0.930 . S
C271 C264 1.409 . S
C271 C270 1.362 . S
H272 C278 0.930 . S
H273 C281 0.930 . S
H274 C282 0.930 . S
H275 C283 0.930 . S
H276 C286 0.930 . S
H277 C287 0.930 . S
C278 H272 0.930 . S
C278 C279 1.355 . S
C278 C280 1.415 . S
C279 C278 1.355 . S
C279 C281 1.419 . S
C280 C278 1.415 . S
C280 C285 1.425 . S
C280 C287 1.409 . S
C281 H273 0.930 . S
C281 C279 1.419 . S
C281 C282 1.362 . S
C282 H274 0.930 . S
C282 C281 1.362 . S
C282 C285 1.409 . S
C283 H275 0.930 . S
C283 C284 1.355 . S
C283 C285 1.415 . S
C284 C283 1.355 . S
C284 C286 1.419 . S
C285 C280 1.425 . S
C285 C282 1.409 . S
C285 C283 1.415 . S
C286 H276 0.930 . S
C286 C284 1.419 . S
C286 C287 1.362 . S
C287 H277 0.930 . S
C287 C280 1.409 . S
C287 C286 1.362 . S
H288 C294 0.930 . S
H289 C297 0.930 . S
H290 C298 0.930 . S
H291 C299 0.930 . S
H292 C302 0.930 . S
H293 C303 0.930 . S
C294 H288 0.930 . S
C294 C295 1.355 . S
C294 C296 1.415 . S
C295 C294 1.355 . S
C295 C297 1.419 . S
C296 C294 1.415 . S
C296 C301 1.425 . S
C296 C303 1.409 . S
C297 H289 0.930 . S
C297 C295 1.419 . S
C297 C298 1.362 . S
C298 H290 0.930 . S
C298 C297 1.362 . S
C298 C301 1.409 . S
C299 H291 0.930 . S
C299 C300 1.355 . S
C299 C301 1.415 . S
C300 C299 1.355 . S
C300 C302 1.419 . S
C301 C296 1.425 . S
C301 C298 1.409 . S
C301 C299 1.415 . S
C302 H292 0.930 . S
C302 C300 1.419 . S
C302 C303 1.362 . S
C303 H293 0.930 . S
C303 C296 1.409 . S
C303 C302 1.362 . S
H304 C310 0.930 . S
H305 C313 0.930 . S
H306 C314 0.930 . S
H307 C315 0.930 . S
H308 C318 0.930 . S
H309 C319 0.930 . S
C310 H304 0.930 . S
C310 C311 1.355 . S
C310 C312 1.415 . S
C311 C310 1.355 . S
C311 C313 1.419 . S
C312 C310 1.415 . S
C312 C317 1.425 . S
C312 C319 1.409 . S
C313 H305 0.930 . S
C313 C311 1.419 . S
C313 C314 1.362 . S
C314 H306 0.930 . S
C314 C313 1.362 . S
C314 C317 1.409 . S
C315 H307 0.930 . S
C315 C316 1.355 . S
C315 C317 1.415 . S
C316 C315 1.355 . S
C316 C318 1.419 . S
C317 C312 1.425 . S
C317 C314 1.409 . S
C317 C315 1.415 . S
C318 H308 0.930 . S
C318 C316 1.419 . S
C318 C319 1.362 . S
C319 H309 0.930 . S
C319 C312 1.409 . S
C319 C318 1.362 . S
H320 C326 0.930 . S
H321 C329 0.930 . S
H322 C330 0.930 . S
H323 C331 0.930 . S
H324 C334 0.930 . S
H325 C335 0.930 . S
C326 H320 0.930 . S
C326 C327 1.355 . S
C326 C328 1.415 . S
C327 C326 1.355 . S
C327 C329 1.419 . S
C328 C326 1.415 . S
C328 C333 1.425 . S
C328 C335 1.409 . S
C329 H321 0.930 . S
C329 C327 1.419 . S
C329 C330 1.362 . S
C330 H322 0.930 . S
C330 C329 1.362 . S
C330 C333 1.409 . S
C331 H323 0.930 . S
C331 C332 1.355 . S
C331 C333 1.415 . S
C332 C331 1.355 . S
C332 C334 1.419 . S
C333 C328 1.425 . S
C333 C330 1.409 . S
C333 C331 1.415 . S
C334 H324 0.930 . S
C334 C332 1.419 . S
C334 C335 1.362 . S
C335 H325 0.930 . S
C335 C328 1.409 . S
C335 C334 1.362 . S
H336 C342 0.930 . S
H337 C345 0.930 . S
H338 C346 0.930 . S
H339 C347 0.930 . S
H340 C350 0.930 . S
H341 C351 0.930 . S
C342 H336 0.930 . S
C342 C343 1.355 . S
C342 C344 1.415 . S
C343 C342 1.355 . S
C343 C345 1.419 . S
C344 C342 1.415 . S
C344 C349 1.425 . S
C344 C351 1.409 . S
C345 H337 0.930 . S
C345 C343 1.419 . S
C345 C346 1.362 . S
C346 H338 0.930 . S
C346 C345 1.362 . S
C346 C349 1.409 . S
C347 H339 0.930 . S
C347 C348 1.355 . S
C347 C349 1.415 . S
C348 C347 1.355 . S
C348 C350 1.419 . S
C349 C344 1.425 . S
C349 C346 1.409 . S
C349 C347 1.415 . S
C350 H340 0.930 . S
C350 C348 1.419 . S
C350 C351 1.362 . S
C351 H341 0.930 . S
C351 C344 1.409 . S
C351 C350 1.362 . S
H352 C358 0.930 . S
H353 C361 0.930 . S
H354 C362 0.930 . S
H355 C363 0.930 . S
H356 C366 0.930 . S
H357 C367 0.930 . S
C358 H352 0.930 . S
C358 C359 1.355 . S
C358 C360 1.415 . S
C359 C358 1.355 . S
C359 C361 1.419 . S
C360 C358 1.415 . S
C360 C365 1.425 . S
C360 C367 1.409 . S
C361 H353 0.930 . S
C361 C359 1.419 . S
C361 C362 1.362 . S
C362 H354 0.930 . S
C362 C361 1.362 . S
C362 C365 1.409 . S
C363 H355 0.930 . S
C363 C364 1.355 . S
C363 C365 1.415 1_554 S
C364 C363 1.355 . S
C364 C366 1.419 . S
C365 C360 1.425 . S
C365 C362 1.409 . S
C365 C363 1.415 1_556 S
C366 H356 0.930 . S
C366 C364 1.419 . S
C366 C367 1.362 1_554 S
C367 H357 0.930 . S
C367 C360 1.409 . S
C367 C366 1.362 1_556 S
H368 C374 0.930 . S
H369 C377 0.930 . S
H370 C378 0.930 . S
H371 C379 0.930 . S
H372 C382 0.930 . S
H373 C383 0.930 . S
C374 H368 0.930 . S
C374 C375 1.355 . S
C374 C376 1.415 1_556 S
C375 C374 1.355 . S
C375 C377 1.419 . S
C376 C374 1.415 1_554 S
C376 C381 1.425 . S
C376 C383 1.409 . S
C377 H369 0.930 . S
C377 C375 1.419 . S
C377 C378 1.362 1_556 S
C378 H370 0.930 . S
C378 C377 1.362 1_554 S
C378 C381 1.409 . S
C379 H371 0.930 . S
C379 C380 1.355 . S
C379 C381 1.415 . S
C380 C379 1.355 . S
C380 C382 1.419 . S
C381 C376 1.425 . S
C381 C378 1.409 . S
C381 C379 1.415 . S
C382 H372 0.930 . S
C382 C380 1.419 . S
C382 C383 1.362 . S
C383 H373 0.930 . S
C383 C376 1.409 . S
C383 C382 1.362 . S
H384 C390 0.930 . S
H385 C393 0.930 . S
H386 C394 0.930 . S
H387 C395 0.930 . S
H388 C398 0.930 . S
H389 C399 0.930 . S
C390 H384 0.930 . S
C390 C391 1.355 . S
C390 C392 1.415 . S
C391 C390 1.355 . S
C391 C393 1.419 . S
C392 C390 1.415 . S
C392 C397 1.426 1_556 S
C392 C399 1.409 1_556 S
C393 H385 0.930 . S
C393 C391 1.419 . S
C393 C394 1.362 . S
C394 H386 0.930 . S
C394 C393 1.362 . S
C394 C397 1.411 1_556 S
C395 H387 0.930 . S
C395 C396 1.355 . S
C395 C397 1.413 . S
C396 C395 1.355 . S
C396 C398 1.419 . S
C397 C392 1.426 1_554 S
C397 C394 1.411 1_554 S
C397 C395 1.413 . S
C398 H388 0.930 . S
C398 C396 1.419 . S
C398 C399 1.362 . S
C399 H389 0.930 . S
C399 C392 1.409 1_554 S
C399 C398 1.362 . S
H400 C406 0.930 . S
H401 C409 0.930 . S
H402 C410 0.930 1_556 S
H403 C411 0.930 . S
H404 C414 0.930 . S
H405 C415 0.930 . S
C406 H400 0.930 . S
C406 C407 1.355 . S
C406 C408 1.415 1_554 S
C407 C406 1.355 . S
C407 C409 1.419 . S
C408 C406 1.415 1_556 S
C408 C413 1.425 . S
C408 C415 1.409 . S
C409 H401 0.930 . S
C409 C407 1.419 . S
C409 C410 1.362 . S
C410 H402 0.930 1_554 S
C410 C409 1.362 . S
C410 C413 1.409 1_554 S
C411 H403 0.930 . S
C411 C412 1.355 . S
C411 C413 1.415 . S
C412 C411 1.355 . S
C412 C414 1.419 . S
C413 C408 1.425 . S
C413 C410 1.409 1_556 S
C413 C411 1.415 . S
C414 H404 0.930 . S
C414 C412 1.419 . S
C414 C415 1.362 . S
C415 H405 0.930 . S
C415 C408 1.409 . S
C415 C414 1.362 . S
H416 C422 0.930 . S
H417 C425 0.930 . S
H418 C426 0.930 . S
H419 C427 0.930 1_655 S
H420 C430 0.930 . S
H421 C431 0.930 . S
C422 H416 0.930 . S
C422 C423 1.355 . S
C422 C424 1.415 . S
C423 C422 1.355 . S
C423 C425 1.419 . S
C424 C422 1.415 . S
C424 C429 1.425 . S
C424 C431 1.426 . S
C425 H417 0.930 . S
C425 C423 1.419 . S
C425 C426 1.362 . S
C426 H418 0.930 . S
C426 C425 1.362 . S
C426 C429 1.409 . S
C427 H419 0.930 1_455 S
C427 C428 1.355 1_455 S
C427 C429 1.415 . S
C428 C427 1.355 1_655 S
C428 C430 1.419 . S
C429 C424 1.425 . S
C429 C426 1.409 . S
C429 C427 1.415 . S
C430 H420 0.930 . S
C430 C428 1.419 . S
C430 C431 1.342 1_655 S
C431 H421 0.930 . S
C431 C424 1.426 . S
C431 C430 1.342 1_455 S
H432 C438 0.930 . S
H433 C441 0.930 . S
H434 C442 0.930 . S
H435 C443 0.930 . S
H436 C446 0.930 . S
H437 C447 0.930 . S
C438 H432 0.930 . S
C438 C439 1.355 . S
C438 C440 1.415 1_565 S
C439 C438 1.355 . S
C439 C441 1.419 . S
C440 C438 1.415 1_545 S
C440 C445 1.425 . S
C440 C447 1.409 . S
C441 H433 0.930 . S
C441 C439 1.419 . S
C441 C442 1.362 1_565 S
C442 H434 0.930 . S
C442 C441 1.362 1_545 S
C442 C445 1.409 . S
C443 H435 0.930 . S
C443 C444 1.355 . S
C443 C445 1.415 . S
C444 C443 1.355 . S
C444 C446 1.419 . S
C445 C440 1.425 . S
C445 C442 1.409 . S
C445 C443 1.415 . S
C446 H436 0.930 . S
C446 C444 1.419 . S
C446 C447 1.362 . S
C447 H437 0.930 . S
C447 C440 1.409 . S
C447 C446 1.362 . S
H448 C454 0.930 . S
H449 C457 0.930 . S
H450 C458 0.930 . S
H451 C459 0.930 . S
H452 C462 0.930 . S
H453 C463 0.930 . S
C454 H448 0.930 . S
C454 C455 1.355 . S
C454 C456 1.415 . S
C455 C454 1.355 . S
C455 C457 1.419 . S
C456 C454 1.415 . S
C456 C461 1.425 . S
C456 C463 1.409 1_655 S
C457 H449 0.930 . S
C457 C455 1.419 . S
C457 C458 1.362 . S
C458 H450 0.930 . S
C458 C457 1.362 . S
C458 C461 1.409 . S
C459 H451 0.930 . S
C459 C460 1.355 . S
C459 C461 1.415 1_455 S
C460 C459 1.355 . S
C460 C462 1.419 . S
C461 C456 1.425 . S
C461 C458 1.409 . S
C461 C459 1.415 1_655 S
C462 H452 0.930 . S
C462 C460 1.419 . S
C462 C463 1.362 . S
C463 H453 0.930 . S
C463 C456 1.409 1_455 S
C463 C462 1.362 . S
H464 C470 0.930 . S
H465 C473 0.930 . S
H466 C474 0.930 . S
H467 C475 0.930 . S
H468 C478 0.930 . S
H469 C479 0.930 . S
C470 H464 0.930 . S
C470 C471 1.355 . S
C470 C472 1.415 1_545 S
C471 C470 1.355 . S
C471 C473 1.419 . S
C472 C470 1.415 1_565 S
C472 C477 1.425 . S
C472 C479 1.409 . S
C473 H465 0.930 . S
C473 C471 1.419 . S
C473 C474 1.362 1_545 S
C474 H466 0.930 . S
C474 C473 1.362 1_565 S
C474 C477 1.409 . S
C475 H467 0.930 . S
C475 C476 1.355 . S
C475 C477 1.415 . S
C476 C475 1.355 . S
C476 C478 1.419 . S
C477 C472 1.425 . S
C477 C474 1.409 . S
C477 C475 1.415 . S
C478 H468 0.930 . S
C478 C476 1.419 . S
C478 C479 1.362 . S
C479 H469 0.930 . S
C479 C472 1.409 . S
C479 C478 1.362 . S
H480 C486 0.930 . S
H481 C489 0.930 . S
H482 C490 0.930 . S
H483 C491 0.930 . S
H484 C494 0.930 . S
H485 C495 0.930 1_455 S
C486 H480 0.930 . S
C486 C487 1.355 . S
C486 C488 1.415 . S
C487 C486 1.355 . S
C487 C489 1.419 . S
C488 C486 1.415 . S
C488 C493 1.425 . S
C488 C495 1.424 . S
C489 H481 0.930 . S
C489 C487 1.419 . S
C489 C490 1.362 . S
C490 H482 0.930 . S
C490 C489 1.362 . S
C490 C493 1.409 . S
C491 H483 0.930 . S
C491 C492 1.355 1_655 S
C491 C493 1.415 . S
C492 C491 1.355 1_455 S
C492 C494 1.419 . S
C493 C488 1.425 . S
C493 C490 1.409 . S
C493 C491 1.415 . S
C494 H484 0.930 . S
C494 C492 1.419 . S
C494 C495 1.347 1_455 S
C495 H485 0.930 1_655 S
C495 C488 1.424 . S
C495 C494 1.347 1_655 S
H496 C502 0.930 . S
H497 C505 0.930 . S
H498 C506 0.930 . S
H499 C507 0.930 . S
H500 C510 0.930 . S
H501 C511 0.930 . S
C502 H496 0.930 . S
C502 C503 1.355 . S
C502 C504 1.415 . S
C503 C502 1.355 . S
C503 C505 1.419 . S
C504 C502 1.415 . S
C504 C509 1.425 . S
C504 C511 1.409 . S
C505 H497 0.930 . S
C505 C503 1.419 . S
C505 C506 1.362 . S
C506 H498 0.930 . S
C506 C505 1.362 . S
C506 C509 1.409 . S
C507 H499 0.930 . S
C507 C508 1.355 1_565 S
C507 C509 1.415 . S
C508 C507 1.355 1_545 S
C508 C510 1.419 . S
C509 C504 1.425 . S
C509 C506 1.409 . S
C509 C507 1.415 . S
C510 H500 0.930 . S
C510 C508 1.419 . S
C510 C511 1.362 1_545 S
C511 H501 0.930 . S
C511 C504 1.409 . S
C511 C510 1.362 1_565 S
H512 C518 0.930 . S
H513 C521 0.930 . S
H514 C522 0.930 . S
H515 C523 0.930 . S
H516 C526 0.930 . S
H517 C527 0.930 . S
C518 H512 0.930 . S
C518 C519 1.355 . S
C518 C520 1.415 . S
C519 C518 1.355 . S
C519 C521 1.419 . S
C520 C518 1.415 . S
C520 C525 1.425 . S
C520 C527 1.409 1_455 S
C521 H513 0.930 . S
C521 C519 1.419 . S
C521 C522 1.362 . S
C522 H514 0.930 . S
C522 C521 1.362 . S
C522 C525 1.409 . S
C523 H515 0.930 . S
C523 C524 1.355 . S
C523 C525 1.415 1_655 S
C524 C523 1.355 . S
C524 C526 1.419 . S
C525 C520 1.425 . S
C525 C522 1.409 . S
C525 C523 1.415 1_455 S
C526 H516 0.930 . S
C526 C524 1.419 . S
C526 C527 1.362 . S
C527 H517 0.930 . S
C527 C520 1.409 1_655 S
C527 C526 1.362 . S
H528 C534 0.930 . S
H529 C537 0.930 1_565 S
H530 C538 0.930 . S
H531 C539 0.930 . S
H532 C542 0.930 . S
H533 C543 0.930 . S
C534 H528 0.930 . S
C534 C535 1.355 1_545 S
C534 C536 1.415 . S
C535 C534 1.355 1_565 S
C535 C537 1.419 1_565 S
C536 C534 1.415 . S
C536 C541 1.425 . S
C536 C543 1.409 . S
C537 H529 0.930 1_545 S
C537 C535 1.419 1_545 S
C537 C538 1.362 . S
C538 H530 0.930 . S
C538 C537 1.362 . S
C538 C541 1.409 . S
C539 H531 0.930 . S
C539 C540 1.355 . S
C539 C541 1.415 . S
C540 C539 1.355 . S
C540 C542 1.419 . S
C541 C536 1.425 . S
C541 C538 1.409 . S
C541 C539 1.415 . S
C542 H532 0.930 . S
C542 C540 1.419 . S
C542 C543 1.362 . S
C543 H533 0.930 . S
C543 C536 1.409 . S
C543 C542 1.362 . S
H544 C550 0.930 . S
H545 C553 0.930 . S
H546 C554 0.930 . S
H547 C555 0.930 . S
H548 C558 0.930 . S
H549 C559 0.930 . S
C550 H544 0.930 . S
C550 C551 1.355 . S
C550 C552 1.415 . S
C551 C550 1.355 . S
C551 C553 1.419 . S
C552 C550 1.415 . S
C552 C557 1.425 . S
C552 C559 1.409 . S
C553 H545 0.930 . S
C553 C551 1.419 . S
C553 C554 1.362 . S
C554 H546 0.930 . S
C554 C553 1.362 . S
C554 C557 1.409 . S
C555 H547 0.930 . S
C555 C556 1.355 . S
C555 C557 1.415 . S
C556 C555 1.355 . S
C556 C558 1.419 . S
C557 C552 1.425 . S
C557 C554 1.409 . S
C557 C555 1.415 . S
C558 H548 0.930 . S
C558 C556 1.419 . S
C558 C559 1.362 . S
C559 H549 0.930 . S
C559 C552 1.409 . S
C559 C558 1.362 . S
H560 C566 0.930 . S
H561 C569 0.930 . S
H562 C570 0.930 . S
H563 C571 0.930 . S
H564 C574 0.930 . S
H565 C575 0.930 . S
C566 H560 0.930 . S
C566 C567 1.355 . S
C566 C568 1.415 . S
C567 C566 1.355 . S
C567 C569 1.419 . S
C568 C566 1.415 . S
C568 C573 1.425 . S
C568 C575 1.409 . S
C569 H561 0.930 . S
C569 C567 1.419 . S
C569 C570 1.362 . S
C570 H562 0.930 . S
C570 C569 1.362 . S
C570 C573 1.409 . S
C571 H563 0.930 . S
C571 C572 1.355 . S
C571 C573 1.415 . S
C572 C571 1.355 . S
C572 C574 1.419 . S
C573 C568 1.425 . S
C573 C570 1.409 . S
C573 C571 1.415 . S
C574 H564 0.930 . S
C574 C572 1.419 . S
C574 C575 1.362 . S
C575 H565 0.930 . S
C575 C568 1.409 . S
C575 C574 1.362 . S
H576 C582 0.930 . S
H577 C585 0.930 . S
H578 C586 0.930 . S
H579 C587 0.930 . S
H580 C590 0.930 . S
H581 C591 0.930 . S
C582 H576 0.930 . S
C582 C583 1.355 . S
C582 C584 1.415 . S
C583 C582 1.355 . S
C583 C585 1.419 . S
C584 C582 1.415 . S
C584 C589 1.425 . S
C584 C591 1.409 . S
C585 H577 0.930 . S
C585 C583 1.419 . S
C585 C586 1.362 . S
C586 H578 0.930 . S
C586 C585 1.362 . S
C586 C589 1.409 . S
C587 H579 0.930 . S
C587 C588 1.355 . S
C587 C589 1.415 . S
C588 C587 1.355 . S
C588 C590 1.419 . S
C589 C584 1.425 . S
C589 C586 1.409 . S
C589 C587 1.415 . S
C590 H580 0.930 . S
C590 C588 1.419 . S
C590 C591 1.362 . S
C591 H581 0.930 . S
C591 C584 1.409 . S
C591 C590 1.362 . S
H592 C598 0.930 . S
H593 C601 0.930 . S
H594 C602 0.930 . S
H595 C603 0.930 . S
H596 C606 0.930 . S
H597 C607 0.930 . S
C598 H592 0.930 . S
C598 C599 1.355 . S
C598 C600 1.415 . S
C599 C598 1.355 . S
C599 C601 1.419 . S
C600 C598 1.415 . S
C600 C605 1.425 . S
C600 C607 1.409 . S
C601 H593 0.930 . S
C601 C599 1.419 . S
C601 C602 1.362 . S
C602 H594 0.930 . S
C602 C601 1.362 . S
C602 C605 1.409 . S
C603 H595 0.930 . S
C603 C604 1.355 . S
C603 C605 1.415 . S
C604 C603 1.355 . S
C604 C606 1.419 . S
C605 C600 1.425 . S
C605 C602 1.409 . S
C605 C603 1.415 . S
C606 H596 0.930 . S
C606 C604 1.419 . S
C606 C607 1.362 . S
C607 H597 0.930 . S
C607 C600 1.409 . S
C607 C606 1.362 . S
H608 C614 0.930 . S
H609 C617 0.930 . S
H610 C618 0.930 . S
H611 C619 0.930 . S
H612 C622 0.930 . S
H613 C623 0.930 . S
C614 H608 0.930 . S
C614 C615 1.355 . S
C614 C616 1.415 . S
C615 C614 1.355 . S
C615 C617 1.419 . S
C616 C614 1.415 . S
C616 C621 1.425 . S
C616 C623 1.409 . S
C617 H609 0.930 . S
C617 C615 1.419 . S
C617 C618 1.362 . S
C618 H610 0.930 . S
C618 C617 1.362 . S
C618 C621 1.409 . S
C619 H611 0.930 . S
C619 C620 1.355 . S
C619 C621 1.415 . S
C620 C619 1.355 . S
C620 C622 1.419 . S
C621 C616 1.425 . S
C621 C618 1.409 . S
C621 C619 1.415 . S
C622 H612 0.930 . S
C622 C620 1.419 . S
C622 C623 1.362 . S
C623 H613 0.930 . S
C623 C616 1.409 . S
C623 C622 1.362 . S
H624 C630 0.930 . S
H625 C633 0.930 . S
H626 C634 0.930 . S
H627 C635 0.930 . S
H628 C638 0.930 . S
H629 C639 0.930 . S
C630 H624 0.930 . S
C630 C631 1.355 . S
C630 C632 1.415 . S
C631 C630 1.355 . S
C631 C633 1.419 . S
C632 C630 1.415 . S
C632 C637 1.425 . S
C632 C639 1.409 . S
C633 H625 0.930 . S
C633 C631 1.419 . S
C633 C634 1.362 . S
C634 H626 0.930 . S
C634 C633 1.362 . S
C634 C637 1.409 . S
C635 H627 0.930 . S
C635 C636 1.355 . S
C635 C637 1.415 . S
C636 C635 1.355 . S
C636 C638 1.419 . S
C637 C632 1.425 . S
C637 C634 1.409 . S
C637 C635 1.415 . S
C638 H628 0.930 . S
C638 C636 1.419 . S
C638 C639 1.362 . S
C639 H629 0.930 . S
C639 C632 1.409 . S
C639 C638 1.362 . S
H640 C646 0.930 . S
H641 C649 0.930 . S
H642 C650 0.930 . S
H643 C651 0.930 . S
H644 C654 0.930 . S
H645 C655 0.930 . S
C646 H640 0.930 . S
C646 C647 1.355 . S
C646 C648 1.415 . S
C647 C646 1.355 . S
C647 C649 1.419 . S
C648 C646 1.415 . S
C648 C653 1.425 . S
C648 C655 1.409 . S
C649 H641 0.930 . S
C649 C647 1.419 . S
C649 C650 1.362 . S
C650 H642 0.930 . S
C650 C649 1.362 . S
C650 C653 1.409 . S
C651 H643 0.930 . S
C651 C652 1.355 . S
C651 C653 1.415 . S
C652 C651 1.355 . S
C652 C654 1.419 . S
C653 C648 1.425 . S
C653 C650 1.409 . S
C653 C651 1.415 . S
C654 H644 0.930 . S
C654 C652 1.419 . S
C654 C655 1.362 . S
C655 H645 0.930 . S
C655 C648 1.409 . S
C655 C654 1.362 . S
H656 C662 0.930 . S
H657 C665 0.930 . S
H658 C666 0.930 . S
H659 C667 0.930 . S
H660 C670 0.930 . S
H661 C671 0.930 . S
C662 H656 0.930 . S
C662 C663 1.355 . S
C662 C664 1.415 . S
C663 C662 1.355 . S
C663 C665 1.419 . S
C664 C662 1.415 . S
C664 C669 1.425 . S
C664 C671 1.409 . S
C665 H657 0.930 . S
C665 C663 1.419 . S
C665 C666 1.362 . S
C666 H658 0.930 . S
C666 C665 1.362 . S
C666 C669 1.409 . S
C667 H659 0.930 . S
C667 C668 1.355 . S
C667 C669 1.415 . S
C668 C667 1.355 . S
C668 C670 1.419 . S
C669 C664 1.425 . S
C669 C666 1.409 . S
C669 C667 1.415 . S
C670 H660 0.930 . S
C670 C668 1.419 . S
C670 C671 1.362 . S
C671 H661 0.930 . S
C671 C664 1.409 . S
C671 C670 1.362 . S
H672 C678 0.930 . S
H673 C681 0.930 . S
H674 C682 0.930 . S
H675 C683 0.930 . S
H676 C686 0.930 . S
H677 C687 0.930 . S
C678 H672 0.930 . S
C678 C679 1.355 . S
C678 C680 1.415 . S
C679 C678 1.355 . S
C679 C681 1.419 . S
C680 C678 1.415 . S
C680 C685 1.425 . S
C680 C687 1.409 . S
C681 H673 0.930 . S
C681 C679 1.419 . S
C681 C682 1.362 . S
C682 H674 0.930 . S
C682 C681 1.362 . S
C682 C685 1.409 . S
C683 H675 0.930 . S
C683 C684 1.355 . S
C683 C685 1.415 . S
C684 C683 1.355 . S
C684 C686 1.419 . S
C685 C680 1.425 . S
C685 C682 1.409 . S
C685 C683 1.415 . S
C686 H676 0.930 . S
C686 C684 1.419 . S
C686 C687 1.362 . S
C687 H677 0.930 . S
C687 C680 1.409 . S
C687 C686 1.362 . S
H688 C694 0.930 . S
H689 C697 0.930 . S
H690 C698 0.930 . S
H691 C699 0.930 . S
H692 C702 0.930 . S
H693 C703 0.930 . S
C694 H688 0.930 . S
C694 C695 1.355 . S
C694 C696 1.415 . S
C695 C694 1.355 . S
C695 C697 1.419 . S
C696 C694 1.415 . S
C696 C701 1.425 . S
C696 C703 1.409 . S
C697 H689 0.930 . S
C697 C695 1.419 . S
C697 C698 1.362 . S
C698 H690 0.930 . S
C698 C697 1.362 . S
C698 C701 1.409 . S
C699 H691 0.930 . S
C699 C700 1.355 . S
C699 C701 1.415 . S
C700 C699 1.355 . S
C700 C702 1.419 . S
C701 C696 1.425 . S
C701 C698 1.409 . S
C701 C699 1.415 . S
C702 H692 0.930 . S
C702 C700 1.419 . S
C702 C703 1.362 . S
C703 H693 0.930 . S
C703 C696 1.409 . S
C703 C702 1.362 . S
H704 C710 0.930 . S
H705 C713 0.930 . S
H706 C714 0.930 . S
H707 C715 0.930 . S
H708 C718 0.930 . S
H709 C719 0.930 . S
C710 H704 0.930 . S
C710 C711 1.355 . S
C710 C712 1.415 . S
C711 C710 1.355 . S
C711 C713 1.419 . S
C712 C710 1.415 . S
C712 C717 1.425 . S
C712 C719 1.409 . S
C713 H705 0.930 . S
C713 C711 1.419 . S
C713 C714 1.362 . S
C714 H706 0.930 . S
C714 C713 1.362 . S
C714 C717 1.409 . S
C715 H707 0.930 . S
C715 C716 1.355 . S
C715 C717 1.415 . S
C716 C715 1.355 . S
C716 C718 1.419 . S
C717 C712 1.425 . S
C717 C714 1.409 . S
C717 C715 1.415 . S
C718 H708 0.930 . S
C718 C716 1.419 . S
C718 C719 1.362 . S
C719 H709 0.930 . S
C719 C712 1.409 . S
C719 C718 1.362 . S
H720 C726 0.930 . S
H721 C729 0.930 . S
H722 C730 0.930 . S
H723 C731 0.930 . S
H724 C734 0.930 . S
H725 C735 0.930 . S
C726 H720 0.930 . S
C726 C727 1.355 . S
C726 C728 1.415 . S
C727 C726 1.355 . S
C727 C729 1.419 . S
C728 C726 1.415 . S
C728 C733 1.425 . S
C728 C735 1.409 . S
C729 H721 0.930 . S
C729 C727 1.419 . S
C729 C730 1.362 . S
C730 H722 0.930 . S
C730 C729 1.362 . S
C730 C733 1.409 . S
C731 H723 0.930 . S
C731 C732 1.355 . S
C731 C733 1.415 . S
C732 C731 1.355 . S
C732 C734 1.419 . S
C733 C728 1.425 . S
C733 C730 1.409 . S
C733 C731 1.415 . S
C734 H724 0.930 . S
C734 C732 1.419 . S
C734 C735 1.362 . S
C735 H725 0.930 . S
C735 C728 1.409 . S
C735 C734 1.362 . S
C231 C216 1.161 . S
C236 C6 1.233 . S
C247 C174 1.285 . S
C252 C20 1.287 . S
C263 C34 1.308 . S
C268 C188 1.263 . S
C279 C202 1.374 . S
C284 C48 1.482 . S
C295 C132 1.275 . S
C300 C62 1.277 . S
C311 C76 1.272 . S
C316 C146 1.309 . S
C327 C90 1.321 . S
C332 C160 1.422 . S
C343 C104 1.202 . S
C348 C118 1.208 . S
C359 C79 2.019 . S
C364 C7 1.887 . S
C375 C91 1.310 . S
C380 C21 1.425 . S
C391 C107 1.506 . S
C396 C35 1.295 . S
C407 C49 1.545 . S
C412 C64 1.645 . S
C423 C8 1.321 . S
C428 C23 1.286 . S
C439 C37 1.435 . S
C444 C22 1.470 . S
C455 C36 1.469 . S
C460 C51 1.514 . S
C471 C9 1.752 . S
C476 C50 1.731 . S
C487 C106 1.562 . S
C492 C65 1.440 . S
C503 C63 1.390 . S
C508 C77 1.335 . S
C519 C78 1.578 . S
C524 C92 1.563 . S
C535 C105 1.556 . S
C540 C93 1.771 . S
C551 C191 1.999 . S
C556 C119 1.824 . S
C567 C133 1.416 . S
C572 C203 1.406 . S
C583 C219 1.476 . S
C588 C147 1.273 . S
C599 C176 1.646 . S
C604 C161 1.537 . S
C615 C120 1.318 . S
C620 C135 1.255 . S
C631 C134 1.455 . S
C636 C149 1.446 . S
C647 C163 1.488 . S
C652 C148 1.498 . S
C663 C121 1.748 . S
C668 C162 1.733 . S
C679 C218 1.568 . S
C684 C177 1.463 . S
C695 C175 1.342 . S
C700 C189 1.277 . S
C711 C190 1.577 . S
C716 C204 1.555 . S
C727 C217 1.641 . S
C732 C205 1.773 . S
