# Generated by pormake.
# Topology umm, (4)-cn, num edge types: 1
# Building blocks:
#     Node 0, Type 0, BuildingBlock: CEKHIL_clean_sbu_0, # of connection points: 4
#     Node 1, Type 0, BuildingBlock: CEKHIL_clean_sbu_0, # of connection points: 4
#     Node 2, Type 0, BuildingBlock: CEKHIL_clean_sbu_0, # of connection points: 4
#     Node 3, Type 0, BuildingBlock: CEKHIL_clean_sbu_0, # of connection points: 4
#     Node 4, Type 0, BuildingBlock: CEKHIL_clean_sbu_0, # of connection points: 4
#     Node 5, Type 0, BuildingBlock: CEKHIL_clean_sbu_0, # of connection points: 4
#     Node 6, Type 0, BuildingBlock: CEKHIL_clean_sbu_0, # of connection points: 4
#     Node 7, Type 0, BuildingBlock: CEKHIL_clean_sbu_0, # of connection points: 4
#     Node 8, Type 0, BuildingBlock: CEKHIL_clean_sbu_0, # of connection points: 4
#     Node 9, Type 0, BuildingBlock: CEKHIL_clean_sbu_0, # of connection points: 4
#     Node 10, Type 0, BuildingBlock: CEKHIL_clean_sbu_0, # of connection points: 4
#     Node 11, Type 0, BuildingBlock: CEKHIL_clean_sbu_0, # of connection points: 4
#     Edge 12, Type (0, 0), BuildingBlock: CIFDUS_clean_linker_0, # of connection points: 2
#     Edge 13, Type (0, 0), BuildingBlock: CIFDUS_clean_linker_0, # of connection points: 2
#     Edge 14, Type (0, 0), BuildingBlock: CIFDUS_clean_linker_0, # of connection points: 2
#     Edge 15, Type (0, 0), BuildingBlock: CIFDUS_clean_linker_0, # of connection points: 2
#     Edge 16, Type (0, 0), BuildingBlock: CIFDUS_clean_linker_0, # of connection points: 2
#     Edge 17, Type (0, 0), BuildingBlock: CIFDUS_clean_linker_0, # of connection points: 2
#     Edge 18, Type (0, 0), BuildingBlock: CIFDUS_clean_linker_0, # of connection points: 2
#     Edge 19, Type (0, 0), BuildingBlock: CIFDUS_clean_linker_0, # of connection points: 2
#     Edge 20, Type (0, 0), BuildingBlock: CIFDUS_clean_linker_0, # of connection points: 2
#     Edge 21, Type (0, 0), BuildingBlock: CIFDUS_clean_linker_0, # of connection points: 2
#     Edge 22, Type (0, 0), BuildingBlock: CIFDUS_clean_linker_0, # of connection points: 2
#     Edge 23, Type (0, 0), BuildingBlock: CIFDUS_clean_linker_0, # of connection points: 2
#     Edge 24, Type (0, 0), BuildingBlock: CIFDUS_clean_linker_0, # of connection points: 2
#     Edge 25, Type (0, 0), BuildingBlock: CIFDUS_clean_linker_0, # of connection points: 2
#     Edge 26, Type (0, 0), BuildingBlock: CIFDUS_clean_linker_0, # of connection points: 2
#     Edge 27, Type (0, 0), BuildingBlock: CIFDUS_clean_linker_0, # of connection points: 2
#     Edge 28, Type (0, 0), BuildingBlock: CIFDUS_clean_linker_0, # of connection points: 2
#     Edge 29, Type (0, 0), BuildingBlock: CIFDUS_clean_linker_0, # of connection points: 2
#     Edge 30, Type (0, 0), BuildingBlock: CIFDUS_clean_linker_0, # of connection points: 2
#     Edge 31, Type (0, 0), BuildingBlock: CIFDUS_clean_linker_0, # of connection points: 2
#     Edge 32, Type (0, 0), BuildingBlock: CIFDUS_clean_linker_0, # of connection points: 2
#     Edge 33, Type (0, 0), BuildingBlock: CIFDUS_clean_linker_0, # of connection points: 2
#     Edge 34, Type (0, 0), BuildingBlock: CIFDUS_clean_linker_0, # of connection points: 2
#     Edge 35, Type (0, 0), BuildingBlock: CIFDUS_clean_linker_0, # of connection points: 2
# Relax obj value: 0.134
# Max RMSD: 0.386
# Mean RMSD: 0.251
data_MOF--net-umm--node1-CEKHIL_clean_sbu_0--edge1-CIFDUS_clean_linker_0
_symmetry_space_group_name_H-M    P1
_symmetry_Int_Tables_number       1
_symmetry_cell_setting            triclinic
loop_
_symmetry_equiv_pos_as_xyz
'x, y, z'
_cell_length_a     45.829387
_cell_length_b     49.236754
_cell_length_c     24.236784
_cell_angle_alpha  90.005853
_cell_angle_beta   90.049132
_cell_angle_gamma 117.21739
loop_
_atom_site_label
_atom_site_type_symbol
_atom_site_fract_x
_atom_site_fract_y
_atom_site_fract_z
_atom_type_partial_charge
Co0 Co 0.43634 0.60108 0.07646 0.0
O1 O 0.40088 0.61111 0.07692 0.0
O2 O 0.39729 0.5672 0.0467 0.0
C3 C 0.45427 0.61707 0.16104 0.0
O4 O 0.46872 0.58352 0.07224 0.0
Co5 Co 0.50675 0.65476 0.08096 0.0
O6 O 0.51948 0.62153 0.0887 0.0
C7 C 0.46972 0.64212 0.97835 0.0
C8 C 0.3832 0.58464 0.05468 0.0
C9 C 0.49974 0.59345 0.08038 0.0
O10 O 0.44803 0.61788 0.00097 0.0
O11 O 0.49464 0.66201 0.00439 0.0
O12 O 0.42967 0.59029 0.15289 0.0
O13 O 0.46459 0.63489 0.11847 0.0
Co14 Co 0.87072 0.37127 0.40306 0.0
O15 O 0.83282 0.33203 0.40303 0.0
O16 O 0.88143 0.34023 0.37186 0.0
C17 C 0.86348 0.38527 0.4874 0.0
O18 O 0.91495 0.41068 0.39943 0.0
Co19 Co 0.85427 0.42601 0.40494 0.0
O20 O 0.90249 0.44956 0.4139 0.0
C21 C 0.84631 0.39264 0.30263 0.0
C22 C 0.85037 0.32129 0.37864 0.0
C23 C 0.92339 0.43949 0.40656 0.0
O24 O 0.86005 0.37844 0.32678 0.0
O25 O 0.83881 0.41146 0.32766 0.0
O26 O 0.87762 0.36776 0.48149 0.0
O27 O 0.85073 0.39005 0.4433 0.0
Co28 Co 0.48294 0.86274 0.74446 0.0
O29 O 0.48528 0.8246 0.74083 0.0
O30 O 0.5242 0.86854 0.71072 0.0
C31 C 0.46419 0.85763 0.83237 0.0
O32 O 0.48795 0.90677 0.74435 0.0
Co33 Co 0.4136 0.85744 0.75226 0.0
O34 O 0.43805 0.90173 0.76703 0.0
C35 C 0.43622 0.84915 0.6442 0.0
C36 C 0.51337 0.83916 0.7167 0.0
C37 C 0.46842 0.91833 0.75705 0.0
O38 O 0.46372 0.85559 0.66769 0.0
O39 O 0.41123 0.84681 0.67134 0.0
O40 O 0.49519 0.86734 0.82227 0.0
O41 O 0.44512 0.84747 0.78964 0.0
Co42 Co 0.60546 0.44387 0.09396 0.0
O43 O 0.6383 0.43049 0.08941 0.0
O44 O 0.64429 0.47528 0.05901 0.0
C45 C 0.59015 0.42976 0.18163 0.0
O46 O 0.57559 0.46431 0.09315 0.0
Co47 Co 0.53475 0.39341 0.10222 0.0
O48 O 0.52476 0.42801 0.11386 0.0
C49 C 0.56627 0.40507 -0.00523 0.0
C50 C 0.65579 0.45553 0.06273 0.0
C51 C 0.54506 0.4557 0.10391 0.0
O52 O 0.59039 0.42716 0.01826 0.0
O53 O 0.54083 0.38663 0.02154 0.0
O54 O 0.61569 0.45537 0.17026 0.0
O55 O 0.57723 0.41144 0.13998 0.0
Co56 Co 0.15228 0.6557 0.39894 0.0
O57 O 0.18915 0.69559 0.39655 0.0
O58 O 0.14153 0.68373 0.35643 0.0
C59 C 0.15623 0.64766 0.48983 0.0
O60 O 0.1088 0.61556 0.39607 0.0
Co61 Co 0.16901 0.60315 0.4207 0.0
O62 O 0.12084 0.57839 0.42546 0.0
C63 C 0.17909 0.62829 0.30963 0.0
C64 C 0.17182 0.70403 0.36561 0.0
C65 C 0.10018 0.5874 0.40968 0.0
O66 O 0.16656 0.64513 0.32729 0.0
O67 O 0.18459 0.61043 0.34154 0.0
O68 O 0.14135 0.66314 0.47299 0.0
O69 O 0.17162 0.64077 0.45171 0.0
Co70 Co 0.53389 0.15696 0.7436 0.0
O71 O 0.52951 0.19422 0.74156 0.0
O72 O 0.49196 0.14975 0.71074 0.0
C73 C 0.55331 0.16205 0.83148 0.0
O74 O 0.53041 0.11355 0.74122 0.0
Co75 Co 0.60371 0.16373 0.74979 0.0
O76 O 0.58124 0.11875 0.75651 0.0
C77 C 0.58047 0.17315 0.64296 0.0
C78 C 0.50149 0.17888 0.71737 0.0
C79 C 0.55067 0.10216 0.74828 0.0
O80 O 0.55275 0.16544 0.66659 0.0
O81 O 0.60578 0.17596 0.66977 0.0
O82 O 0.52213 0.1513 0.82157 0.0
O83 O 0.5721 0.17303 0.78866 0.0
Co84 Co 0.50491 0.6496 0.56946 0.0
O85 O 0.50547 0.68892 0.56771 0.0
O86 O 0.54241 0.67972 0.61103 0.0
C87 C 0.49196 0.63906 0.48083 0.0
O88 O 0.50736 0.60862 0.5755 0.0
Co89 Co 0.4577 0.58878 0.55685 0.0
O90 O 0.50727 0.60808 0.57555 0.0
C91 C 0.45483 0.61653 0.65859 0.0
C92 C 0.5309 0.69892 0.59952 0.0
C93 C 0.5255 0.59594 0.58759 0.0
O94 O 0.47947 0.63989 0.63921 0.0
O95 O 0.44048 0.59155 0.63156 0.0
O96 O 0.52234 0.65612 0.49536 0.0
O97 O 0.47008 0.62865 0.51954 0.0
Co98 Co 0.84641 0.44687 0.88061 0.0
O99 O 0.80072 0.43605 0.88131 0.0
O100 O 0.84047 0.4808 0.90822 0.0
C101 C 0.84812 0.42873 0.79716 0.0
O102 O 0.89608 0.4662 0.88399 0.0
Co103 Co 0.8692 0.39641 0.87771 0.0
O104 O 0.91372 0.43107 0.86861 0.0
C105 C 0.84095 0.40694 0.979 0.0
C106 C 0.80921 0.46286 0.90253 0.0
C107 C 0.91918 0.45861 0.87626 0.0
O108 O 0.84251 0.43128 0.95744 0.0
O109 O 0.84823 0.38829 0.95278 0.0
O110 O 0.84901 0.4554 0.80231 0.0
O111 O 0.84258 0.41268 0.84171 0.0
Co112 Co 0.37802 0.86827 0.21982 0.0
O113 O 0.3381 0.83014 0.21985 0.0
O114 O 0.34256 0.87327 0.25504 0.0
C115 C 0.39255 0.86615 0.13093 0.0
O116 O 0.41535 0.91231 0.22468 0.0
Co117 Co 0.44342 0.86622 0.20935 0.0
O118 O 0.46254 0.91113 0.20335 0.0
C119 C 0.41143 0.85249 0.31696 0.0
C120 C 0.32441 0.84418 0.24621 0.0
C121 C 0.44658 0.92582 0.215 0.0
O122 O 0.38949 0.85843 0.2951 0.0
O123 O 0.43523 0.85276 0.28899 0.0
O124 O 0.37119 0.87568 0.1433 0.0
O125 O 0.40157 0.8547 0.17196 0.0
Co126 Co 0.49722 0.36213 0.56983 0.0
O127 O 0.49794 0.32336 0.56767 0.0
O128 O 0.45911 0.33073 0.60827 0.0
C129 C 0.51154 0.3743 0.4809 0.0
O130 O 0.49046 0.40089 0.57857 0.0
Co131 Co 0.56336 0.4186 0.5578 0.0
O132 O 0.53595 0.43928 0.54276 0.0
C133 C 0.5454 0.39049 0.6663 0.0
C134 C 0.47187 0.31235 0.59785 0.0
C135 C 0.50704 0.42895 0.56204 0.0
O136 O 0.51932 0.3709 0.64291 0.0
O137 O 0.56834 0.41206 0.63937 0.0
O138 O 0.48119 0.3569 0.49455 0.0
O139 O 0.53277 0.381 0.52068 0.0
Co140 Co 0.18494 0.59402 0.88818 0.0
O141 O 0.23141 0.6125 0.89634 0.0
O142 O 0.19704 0.56634 0.92737 0.0
C143 C 0.18377 0.60512 0.79816 0.0
O144 O 0.13533 0.56821 0.88577 0.0
Co145 Co 0.15497 0.63757 0.86767 0.0
O146 O 0.11406 0.59907 0.85793 0.0
C147 C 0.17588 0.63302 0.97966 0.0
C148 C 0.22691 0.58827 0.92362 0.0
C149 C 0.11089 0.57284 0.87144 0.0
O150 O 0.18189 0.61166 0.96156 0.0
O151 O 0.16657 0.64836 0.94787 0.0
O152 O 0.18756 0.58165 0.81333 0.0
O153 O 0.18514 0.62347 0.83776 0.0
Co154 Co 0.64364 0.16138 0.22093 0.0
O155 O 0.68407 0.19926 0.22298 0.0
O156 O 0.67804 0.1557 0.25856 0.0
C157 C 0.63033 0.16362 0.1311 0.0
O158 O 0.60592 0.11752 0.22464 0.0
Co159 Co 0.57854 0.16385 0.20678 0.0
O160 O 0.55915 0.1189 0.20096 0.0
C161 C 0.6087 0.17691 0.31602 0.0
C162 C 0.69677 0.18476 0.25075 0.0
C163 C 0.57482 0.10412 0.21384 0.0
O164 O 0.63109 0.17123 0.2953 0.0
O165 O 0.58521 0.17657 0.28694 0.0
O166 O 0.65151 0.15407 0.14472 0.0
O167 O 0.62092 0.17515 0.17149 0.0
H168 H 0.42391 0.59093 0.2539 0.0
H169 H 0.5139 0.66387 0.19228 0.0
H170 H 0.53474 0.67685 0.28726 0.0
H171 H 0.5264 0.66686 0.38803 0.0
H172 H 0.43468 0.59399 0.44534 0.0
H173 H 0.41546 0.5814 0.35113 0.0
C174 C 0.44819 0.60964 0.26105 0.0
C175 C 0.4675 0.62636 0.21665 0.0
C176 C 0.45961 0.61687 0.31482 0.0
C177 C 0.49865 0.65079 0.22633 0.0
C178 C 0.51054 0.65808 0.28039 0.0
C179 C 0.50236 0.64814 0.37958 0.0
C180 C 0.48197 0.63135 0.42329 0.0
C181 C 0.49115 0.64117 0.325 0.0
C182 C 0.45075 0.60731 0.41227 0.0
C183 C 0.4397 0.60005 0.35849 0.0
H184 H 0.87162 0.36595 0.58775 0.0
H185 H 0.85 0.43272 0.50675 0.0
H186 H 0.84472 0.45293 0.59616 0.0
H187 H 0.8448 0.45066 0.69693 0.0
H188 H 0.8631 0.38197 0.77825 0.0
H189 H 0.87118 0.36336 0.6889 0.0
C190 C 0.86595 0.38504 0.58979 0.0
C191 C 0.86126 0.39794 0.54107 0.0
C192 C 0.86226 0.39605 0.64119 0.0
C193 C 0.85361 0.42243 0.54394 0.0
C194 C 0.85062 0.43398 0.59493 0.0
C195 C 0.85071 0.43171 0.69503 0.0
C196 C 0.85343 0.4177 0.74377 0.0
C197 C 0.85467 0.42082 0.64374 0.0
C198 C 0.86079 0.39301 0.74103 0.0
C199 C 0.86546 0.38241 0.69007 0.0
H200 H 0.41713 0.87214 0.87221 0.0
H201 H 0.48548 0.83915 0.92188 0.0
H202 H 0.46936 0.83805 0.01835 0.0
H203 H 0.43676 0.84787 0.08973 0.0
H204 H 0.37117 0.88427 0.0402 0.0
H205 H 0.38553 0.88313 0.94379 0.0
C206 C 0.42819 0.86445 0.9042 0.0
C207 C 0.45222 0.85545 0.8899 0.0
C208 C 0.41958 0.86487 0.96008 0.0
C209 C 0.46685 0.84612 0.93189 0.0
C210 C 0.4577 0.84555 -0.01287 0.0
C211 C 0.42563 0.85553 0.05784 0.0
C212 C 0.40276 0.86597 0.07254 0.0
C213 C 0.43429 0.85516 0.00195 0.0
C214 C 0.38877 0.876 0.03042 0.0
C215 C 0.39692 0.87532 0.97499 0.0
H216 H 0.53065 0.387 0.22149 0.0
H217 H 0.6266 0.45521 0.27242 0.0
H218 H 0.61118 0.44426 0.36886 0.0
H219 H 0.57056 0.41554 0.43974 0.0
H220 H 0.4736 0.34902 0.39018 0.0
H221 H 0.48913 0.35907 0.29318 0.0
C222 C 0.54813 0.39927 0.2538 0.0
C223 C 0.57975 0.42174 0.23969 0.0
C224 C 0.53891 0.39328 0.30976 0.0
C225 C 0.60205 0.43779 0.28202 0.0
C226 C 0.5933 0.43156 0.33737 0.0
C227 C 0.55286 0.40329 0.40769 0.0
C228 C 0.52107 0.38156 0.42226 0.0
C229 C 0.56181 0.40943 0.35183 0.0
C230 C 0.49829 0.366 0.38017 0.0
C231 C 0.50716 0.37164 0.32456 0.0
H232 H 0.18033 0.61191 0.53794 0.0
H233 H 0.13777 0.67176 0.576 0.0
H234 H 0.14325 0.66503 0.67454 0.0
H235 H 0.16037 0.64207 0.75095 0.0
H236 H 0.20057 0.58045 0.71189 0.0
H237 H 0.19588 0.58798 0.61371 0.0
C238 C 0.17224 0.62343 0.56783 0.0
C239 C 0.15878 0.64235 0.54951 0.0
C240 C 0.17513 0.61922 0.62467 0.0
C241 C 0.1482 0.65698 0.58886 0.0
C242 C 0.15139 0.65323 0.64538 0.0
C243 C 0.16821 0.63046 0.72085 0.0
C244 C 0.18095 0.61087 0.73883 0.0
C245 C 0.16491 0.63446 0.66391 0.0
C246 C 0.19064 0.59566 0.69929 0.0
C247 C 0.188 0.59994 0.64296 0.0
H248 H 0.58193 0.17619 0.08897 0.0
H249 H 0.65542 0.14914 0.04056 0.0
H250 H 0.63992 0.14791 0.944 0.0
H251 H 0.60478 0.1538 0.87192 0.0
H252 H 0.52883 0.17729 0.92099 0.0
H253 H 0.54611 0.18103 0.01729 0.0
C254 C 0.59459 0.17012 0.05728 0.0
C255 C 0.61996 0.16294 0.0724 0.0
C256 C 0.58518 0.16896 0.00133 0.0
C257 C 0.63584 0.15485 0.03051 0.0
C258 C 0.62703 0.15416 0.97498 0.0
C259 C 0.59227 0.15998 0.90374 0.0
C260 C 0.56569 0.16547 0.88919 0.0
C261 C 0.60172 0.16116 0.9597 0.0
C262 C 0.54934 0.17292 0.93106 0.0
C263 C 0.5592 0.17505 -0.01373 0.0
H264 H 0.35339 0.62029 0.06122 0.0
H265 H 0.33865 0.53228 0.00201 0.0
H266 H 0.2864 0.52384 0.95977 0.0
H267 H 0.24727 0.54402 0.93327 0.0
H268 H 0.26694 0.63426 -0.01252 0.0
H269 H 0.31497 0.63933 0.03826 0.0
C270 C 0.3387 0.59904 0.0396 0.0
C271 C 0.34991 0.57698 0.03456 0.0
C272 C 0.30966 0.59493 0.01415 0.0
C273 C 0.33049 0.54962 0.00641 0.0
C274 C 0.30073 0.54488 0.98209 0.0
C275 C 0.26202 0.56452 0.95679 0.0
C276 C 0.25397 0.58884 0.95663 0.0
C277 C 0.2904 0.56771 -0.01531 0.0
C278 C 0.2731 0.61546 -0.01326 0.0
C279 C 0.30046 0.61835 0.01583 0.0
H280 H 0.80409 0.26764 0.41955 0.0
H281 H 0.85557 0.31003 0.2703 0.0
H282 H 0.81254 0.27001 0.2152 0.0
H283 H 0.7557 0.22732 0.20995 0.0
H284 H 0.7076 0.18168 0.35966 0.0
H285 H 0.75387 0.21817 0.41427 0.0
C286 C 0.80661 0.26731 0.37508 0.0
C287 C 0.83293 0.29186 0.34899 0.0
C288 C 0.78198 0.24387 0.34379 0.0
C289 C 0.8357 0.29136 0.29135 0.0
C290 C 0.81083 0.26861 0.25979 0.0
C291 C 0.75589 0.22487 0.2544 0.0
C292 C 0.72816 0.202 0.28084 0.0
C293 C 0.78316 0.24544 0.28553 0.0
C294 C 0.72867 0.19901 0.33841 0.0
C295 C 0.75508 0.21999 0.36968 0.0
H296 H 0.52682 0.79551 0.76212 0.0
H297 H 0.53133 0.84202 0.60945 0.0
H298 H 0.54101 0.8039 0.55865 0.0
H299 H 0.54 0.75318 0.55679 0.0
H300 H 0.54036 0.70892 0.70986 0.0
H301 H 0.53773 0.75048 0.76162 0.0
C302 C 0.53109 0.79784 0.71797 0.0
C303 C 0.52842 0.8216 0.68953 0.0
C304 C 0.5373 0.77609 0.68915 0.0
C305 C 0.53369 0.82422 0.6323 0.0
C306 C 0.53892 0.80223 0.60319 0.0
C307 C 0.54083 0.75329 0.60152 0.0
C308 C 0.5405 0.72805 0.62948 0.0
C309 C 0.53972 0.77752 0.63099 0.0
C310 C 0.54113 0.72826 0.68741 0.0
C311 C 0.53921 0.75188 0.71701 0.0
H312 H 0.71918 0.50048 0.04786 0.0
H313 H 0.64801 0.41121 -0.00709 0.0
H314 H 0.68812 0.40786 0.93162 0.0
H315 H 0.74403 0.42764 0.90011 0.0
H316 H 0.81824 0.5143 0.96002 0.0
H317 H 0.77654 0.52162 0.01223 0.0
C318 C 0.71268 0.48056 0.02202 0.0
C319 C 0.68097 0.45605 0.0249 0.0
C320 C 0.73638 0.47826 -0.01204 0.0
C321 C 0.67252 0.43018 -0.00839 0.0
C322 C 0.69535 0.42825 0.95645 0.0
C323 C 0.75113 0.44839 0.9239 0.0
C324 C 0.78414 0.47032 0.92636 0.0
C325 C 0.72747 0.4518 0.95523 0.0
C326 C 0.79288 0.49707 0.95739 0.0
C327 C 0.76909 0.50116 -0.01246 0.0
H328 H 0.21269 0.75987 0.40611 0.0
H329 H 0.17165 0.71169 0.2547 0.0
H330 H 0.21472 0.75294 0.20186 0.0
H331 H 0.26929 0.79866 0.20101 0.0
H332 H 0.3078 0.8487 0.35187 0.0
H333 H 0.26035 0.81118 0.40274 0.0
C334 C 0.21239 0.75909 0.36136 0.0
C335 C 0.18901 0.73283 0.33427 0.0
C336 C 0.23715 0.78303 0.33134 0.0
C337 C 0.1891 0.73183 0.27639 0.0
C338 C 0.21403 0.75526 0.24624 0.0
C339 C 0.26668 0.80181 0.24469 0.0
C340 C 0.29204 0.82633 0.27276 0.0
C341 C 0.23896 0.78038 0.27351 0.0
C342 C 0.28848 0.83019 0.32933 0.0
C343 C 0.26147 0.80858 0.3585 0.0
H344 H 0.48929 0.22351 0.76204 0.0
H345 H 0.47792 0.17217 0.61268 0.0
H346 H 0.46327 0.20726 0.56202 0.0
H347 H 0.46196 0.25709 0.55795 0.0
H348 H 0.46765 0.30535 0.70887 0.0
H349 H 0.47581 0.26696 0.76138 0.0
C350 C 0.48261 0.2195 0.71877 0.0
C351 C 0.48477 0.19529 0.6911 0.0
C352 C 0.47345 0.23943 0.69015 0.0
C353 C 0.47615 0.19042 0.63502 0.0
C354 C 0.46803 0.21067 0.60593 0.0
C355 C 0.46351 0.25842 0.6026 0.0
C356 C 0.46404 0.28404 0.62949 0.0
C357 C 0.46761 0.23582 0.63269 0.0
C358 C 0.46668 0.28573 0.68726 0.0
C359 C 0.47176 0.26391 0.71726 0.0
H360 H 0.46667 0.53256 0.09856 0.0
H361 H 0.56346 0.60524 0.0649 0.0
H362 H 0.58624 0.56914 0.06955 0.0
H363 H 0.57868 0.51696 0.0839 0.0
H364 H 0.48172 0.44483 0.11989 0.0
H365 H 0.45923 0.48081 0.11383 0.0
C366 C 0.49271 0.54047 0.09185 0.0
C367 C 0.51328 0.57145 0.08127 0.0
C368 C 0.50573 0.51975 0.09536 0.0
C369 C 0.54707 0.58145 0.07333 0.0
C370 C 0.56014 0.56085 0.07596 0.0
C371 C 0.55267 0.50911 0.09062 0.0
C372 C 0.53206 0.47821 0.10235 0.0
C373 C 0.53972 0.52996 0.08723 0.0
C374 C 0.49833 0.46849 0.11088 0.0
C375 C 0.48531 0.48902 0.1073 0.0
H376 H 0.94705 0.50101 0.39673 0.0
H377 H 0.97924 0.43156 0.41418 0.0
H378 H 0.03645 0.47139 0.41634 0.0
H379 H 0.07687 0.52564 0.41489 0.0
H380 H 0.04449 0.59491 0.39623 0.0
H381 H 0.98741 0.55504 0.39297 0.0
C382 C 0.96645 0.49435 0.4011 0.0
C383 C 0.95858 0.46306 0.40567 0.0
C384 C 0.99918 0.51734 0.40216 0.0
C385 C 0.98436 0.45525 0.41055 0.0
C386 C 0.01709 0.47808 0.41193 0.0
C387 C 0.05743 0.53223 0.41019 0.0
C388 C 0.0652 0.56352 0.40618 0.0
C389 C 0.02473 0.50917 0.40806 0.0
C390 C 0.03945 0.57123 0.39945 0.0
C391 C 1.00678 0.54838 0.39767 0.0
H392 H 0.48931 0.05499 0.76902 0.0
H393 H 0.58732 0.07363 0.72109 0.0
H394 H 0.57155 0.01927 0.72003 0.0
H395 H 0.52989 0.96563 0.73336 0.0
H396 H 0.43234 0.9476 0.78425 0.0
H397 H 0.44804 1.00164 0.78358 0.0
C398 C 0.50711 0.04713 0.75797 0.0
C399 C 0.53942 0.06856 0.74525 0.0
C400 C 0.49806 0.01558 0.7582 0.0
C401 C 0.56224 0.0578 0.7315 0.0
C402 C 0.55329 0.02658 0.73081 0.0
C403 C 0.51212 0.9735 0.74451 0.0
C404 C 0.47994 0.95211 0.75859 0.0
C405 C 0.52128 1.00513 0.74441 0.0
C406 C 0.45736 0.96312 0.77295 0.0
C407 C 0.46622 0.99427 0.77257 0.0
H408 H 0.51896 0.55075 0.65975 0.0
H409 H 0.50672 0.56715 0.48876 0.0
H410 H 0.49489 0.51468 0.46557 0.0
H411 H 0.49471 0.46602 0.49265 0.0
H412 H 0.50196 0.44789 0.66449 0.0
H413 H 0.50811 0.49849 0.68894 0.0
C414 C 0.51317 0.54261 0.61762 0.0
C415 C 0.51415 0.56292 0.5759 0.0
C416 C 0.50523 0.51193 0.60484 0.0
C417 C 0.50624 0.55198 0.52155 0.0
C418 C 0.49948 0.52196 0.50827 0.0
C419 C 0.49606 0.47263 0.53564 0.0
C420 C 0.49722 0.45289 0.5768 0.0
C421 C 0.4996 0.50189 0.54937 0.0
C422 C 0.49999 0.46219 0.63221 0.0
C423 C 0.50416 0.49143 0.64609 0.0
H424 H 0.05439 0.57728 0.87092 0.0
H425 H 0.09167 0.51112 0.87606 0.0
H426 H 0.03539 0.46961 0.87809 0.0
H427 H 0.97559 0.45247 0.87761 0.0
H428 H 0.93984 0.51991 0.87445 0.0
H429 H 0.99582 0.56063 0.87249 0.0
C430 C 0.05037 0.5538 0.87215 0.0
C431 C 0.07723 0.54731 0.87276 0.0
C432 C 0.01823 0.53029 0.87378 0.0
C433 C 0.07142 0.51673 0.87537 0.0
C434 C 0.03927 0.49302 0.87649 0.0
C435 C 0.98005 0.47607 0.87641 0.0
C436 C 0.95345 0.48305 0.87594 0.0
C437 C 0.01247 0.49957 0.87557 0.0
C438 C 0.95973 0.51379 0.87488 0.0
C439 C 0.99177 0.53715 0.87366 0.0
H440 H 0.51293 0.95992 0.22042 0.0
H441 H 0.42317 0.96828 0.21569 0.0
H442 H 0.4551 0.02401 0.2156 0.0
H443 H 0.5083 0.07007 0.21446 0.0
H444 H 0.59801 0.06164 0.22076 0.0
H445 H 0.56605 1.00597 0.22274 0.0
C446 C 0.5002 0.97383 0.21934 0.0
C447 C 0.46553 0.95975 0.21758 0.0
C448 C 0.5187 1.00581 0.21949 0.0
C449 C 0.44969 0.97835 0.217 0.0
C450 C 0.46798 1.01024 0.21681 0.0
C451 C 0.52102 0.05616 0.21621 0.0
C452 C 0.5557 0.07021 0.21696 0.0
C453 C 0.50248 0.02418 0.21762 0.0
C454 C 0.57148 0.05161 0.22 0.0
C455 C 0.55318 0.01974 0.22105 0.0
H456 H 0.48223 0.66617 0.7243 0.0
H457 H 0.40902 0.57144 0.72342 0.0
H458 H 0.40433 0.57301 0.82374 0.0
H459 H 0.42663 0.59886 0.91054 0.0
H460 H 0.5048 0.69156 0.91169 0.0
H461 H 0.50213 0.69308 0.81097 0.0
C462 C 0.46493 0.64583 0.74573 0.0
C463 C 0.44642 0.61847 0.71655 0.0
C464 C 0.46371 0.64646 0.80312 0.0
C465 C 0.4237 0.59265 0.74498 0.0
C466 C 0.42121 0.59351 0.80226 0.0
C467 C 0.44294 0.61964 0.88911 0.0
C468 C 0.46625 0.64501 0.91854 0.0
C469 C 0.44204 0.61993 0.83165 0.0
C470 C 0.48695 0.67167 0.88991 0.0
C471 C 0.48538 0.67252 0.83249 0.0
H472 H 0.81764 0.41657 0.23157 0.0
H473 H 0.86525 0.35847 0.23808 0.0
H474 H 0.86356 0.35432 0.13872 0.0
H475 H 0.8545 0.37164 0.04947 0.0
H476 H 0.80927 0.43154 0.04084 0.0
H477 H 0.80378 0.43015 0.14105 0.0
C478 C 0.82726 0.40273 0.21125 0.0
C479 C 0.84164 0.38803 0.24249 0.0
C480 C 0.82689 0.40086 0.15346 0.0
C481 C 0.85385 0.37 0.21539 0.0
C482 C 0.8531 0.36767 0.1583 0.0
C483 C 0.84289 0.38392 0.0694 0.0
C484 C 0.83282 0.402 0.03803 0.0
C485 C 0.84047 0.38362 0.1269 0.0
C486 C 0.81776 0.41781 0.06438 0.0
C487 C 0.81461 0.41707 0.12164 0.0
H488 H 0.38527 0.84058 0.57454 0.0
H489 H 0.48431 0.85155 0.5748 0.0
H490 H 0.48479 0.85154 0.47451 0.0
H491 H 0.45861 0.85172 0.38591 0.0
H492 H 0.35977 0.84119 0.38538 0.0
H493 H 0.3578 0.8375 0.48562 0.0
C494 C 0.40684 0.84265 0.55275 0.0
C495 C 0.43472 0.84623 0.58278 0.0
C496 C 0.40716 0.84286 0.49452 0.0
C497 C 0.46243 0.84887 0.55331 0.0
C498 C 0.46281 0.84891 0.49565 0.0
C499 C 0.43648 0.84822 0.40759 0.0
C500 C 0.40952 0.84697 0.37771 0.0
C501 C 0.43552 0.8464 0.46571 0.0
C502 C 0.38109 0.84252 0.40695 0.0
C503 C 0.37989 0.84041 0.46453 0.0
H504 H 0.59718 0.42004 0.73856 0.0
H505 H 0.49368 0.35731 0.73266 0.0
H506 H 0.49137 0.35408 0.83205 0.0
H507 H 0.51747 0.37081 0.92216 0.0
H508 H 0.62031 0.43518 0.9298 0.0
H509 H 0.62391 0.4357 0.82978 0.0
C510 C 0.57426 0.40551 0.75905 0.0
C511 C 0.54593 0.38857 0.72753 0.0
C512 C 0.57275 0.40399 0.81723 0.0
C513 C 0.51628 0.37005 0.75521 0.0
C514 C 0.51471 0.36832 0.81249 0.0
C515 C 0.54075 0.38463 0.90203 0.0
C516 C 0.56845 0.40275 0.93387 0.0
C517 C 0.54268 0.38534 0.84407 0.0
C518 C 0.59842 0.4208 0.90668 0.0
C519 C 0.60058 0.42128 0.84918 0.0
H520 H 0.19796 0.6068 0.05765 0.0
H521 H 0.15922 0.67148 0.03884 0.0
H522 H 0.15914 0.67708 0.13901 0.0
H523 H 0.16657 0.6612 0.23133 0.0
H524 H 0.20394 0.59559 0.25088 0.0
H525 H 0.20812 0.59291 0.15054 0.0
C526 C 0.18962 0.62228 0.07523 0.0
C527 C 0.17835 0.63854 0.04035 0.0
C528 C 0.18927 0.62513 0.13295 0.0
C529 C 0.16795 0.65864 0.06433 0.0
C530 C 0.16782 0.66179 0.12171 0.0
C531 C 0.176 0.6465 0.21399 0.0
C532 C 0.18482 0.62851 0.24906 0.0
C533 C 0.17793 0.64479 0.15635 0.0
C534 C 0.1969 0.60964 0.22522 0.0
C535 C 0.19922 0.60805 0.16776 0.0
H536 H 0.63314 0.18789 0.57384 0.0
H537 H 0.5307 0.16674 0.57332 0.0
H538 H 0.53081 0.16827 0.47301 0.0
H539 H 0.55881 0.17213 0.38439 0.0
H540 H 0.6611 0.19306 0.38489 0.0
H541 H 0.66214 0.19539 0.4853 0.0
C542 C 0.61091 0.18389 0.55191 0.0
C543 C 0.58196 0.17698 0.58168 0.0
C544 C 0.61098 0.18466 0.4937 0.0
C545 C 0.55343 0.17199 0.55203 0.0
C546 C 0.55339 0.17282 0.49435 0.0
C547 C 0.58145 0.17766 0.40639 0.0
C548 C 0.60973 0.18212 0.37677 0.0
C549 C 0.58186 0.17866 0.46461 0.0
C550 C 0.6388 0.18913 0.40634 0.0
C551 C 0.63946 0.19048 0.46398 0.0
loop_
_geom_bond_atom_site_label_1
_geom_bond_atom_site_label_2
_geom_bond_distance
_geom_bond_site_symmetry_2
_ccdc_geom_bond_type
Co0 O1 2.216 . S
Co0 O2 2.091 . S
Co0 O4 2.004 . S
Co0 O10 2.021 1_554 S
Co0 O12 2.137 . S
Co0 O13 2.244 . S
O1 Co0 2.216 . S
O1 C8 1.247 . S
O2 Co0 2.091 . S
O2 C8 1.261 . S
C3 O12 1.247 . S
C3 O13 1.272 . S
O4 Co0 2.004 . S
O4 C9 1.259 . S
Co5 O6 2.061 . S
Co5 O11 2.052 1_554 S
Co5 O13 2.135 . S
O6 Co5 2.061 . S
O6 C9 1.235 . S
C7 O10 1.238 . S
C7 O11 1.241 . S
C8 O1 1.247 . S
C8 O2 1.261 . S
C9 O4 1.259 . S
C9 O6 1.235 . S
O10 Co0 2.021 1_556 S
O10 C7 1.238 . S
O11 Co5 2.052 1_556 S
O11 C7 1.241 . S
O12 Co0 2.137 . S
O12 C3 1.247 . S
O13 Co0 2.244 . S
O13 C3 1.272 . S
O13 Co5 2.135 . S
Co14 O15 2.216 . S
Co14 O16 2.091 . S
Co14 O18 2.004 . S
Co14 O24 2.021 . S
Co14 O26 2.137 . S
Co14 O27 2.244 . S
O15 Co14 2.216 . S
O15 C22 1.247 . S
O16 Co14 2.091 . S
O16 C22 1.261 . S
C17 O26 1.247 . S
C17 O27 1.272 . S
O18 Co14 2.004 . S
O18 C23 1.259 . S
Co19 O20 2.061 . S
Co19 O25 2.052 . S
Co19 O27 2.135 . S
O20 Co19 2.061 . S
O20 C23 1.235 . S
C21 O24 1.238 . S
C21 O25 1.241 . S
C22 O15 1.247 . S
C22 O16 1.261 . S
C23 O18 1.259 . S
C23 O20 1.235 . S
O24 Co14 2.021 . S
O24 C21 1.238 . S
O25 Co19 2.052 . S
O25 C21 1.241 . S
O26 Co14 2.137 . S
O26 C17 1.247 . S
O27 Co14 2.244 . S
O27 C17 1.272 . S
O27 Co19 2.135 . S
Co28 O29 2.216 . S
Co28 O30 2.091 . S
Co28 O32 2.004 . S
Co28 O38 2.021 . S
Co28 O40 2.137 . S
Co28 O41 2.244 . S
O29 Co28 2.216 . S
O29 C36 1.247 . S
O30 Co28 2.091 . S
O30 C36 1.261 . S
C31 O40 1.247 . S
C31 O41 1.272 . S
O32 Co28 2.004 . S
O32 C37 1.259 . S
Co33 O34 2.061 . S
Co33 O39 2.052 . S
Co33 O41 2.135 . S
O34 Co33 2.061 . S
O34 C37 1.235 . S
C35 O38 1.238 . S
C35 O39 1.241 . S
C36 O29 1.247 . S
C36 O30 1.261 . S
C37 O32 1.259 . S
C37 O34 1.235 . S
O38 Co28 2.021 . S
O38 C35 1.238 . S
O39 Co33 2.052 . S
O39 C35 1.241 . S
O40 Co28 2.137 . S
O40 C31 1.247 . S
O41 Co28 2.244 . S
O41 C31 1.272 . S
O41 Co33 2.135 . S
Co42 O43 2.216 . S
Co42 O44 2.091 . S
Co42 O46 2.004 . S
Co42 O52 2.021 1_554 S
Co42 O54 2.137 . S
Co42 O55 2.244 . S
O43 Co42 2.216 . S
O43 C50 1.247 . S
O44 Co42 2.091 . S
O44 C50 1.261 . S
C45 O54 1.247 . S
C45 O55 1.272 . S
O46 Co42 2.004 . S
O46 C51 1.259 . S
Co47 O48 2.061 . S
Co47 O53 2.052 1_554 S
Co47 O55 2.135 . S
O48 Co47 2.061 . S
O48 C51 1.235 . S
C49 O52 1.238 . S
C49 O53 1.241 . S
C50 O43 1.247 . S
C50 O44 1.261 . S
C51 O46 1.259 . S
C51 O48 1.235 . S
O52 Co42 2.021 1_556 S
O52 C49 1.238 . S
O53 Co47 2.052 1_556 S
O53 C49 1.241 . S
O54 Co42 2.137 . S
O54 C45 1.247 . S
O55 Co42 2.244 . S
O55 C45 1.272 . S
O55 Co47 2.135 . S
Co56 O57 2.216 . S
Co56 O58 2.091 . S
Co56 O60 2.004 . S
Co56 O66 2.021 . S
Co56 O68 2.137 . S
Co56 O69 2.244 . S
O57 Co56 2.216 . S
O57 C64 1.247 . S
O58 Co56 2.091 . S
O58 C64 1.261 . S
C59 O68 1.247 . S
C59 O69 1.272 . S
O60 Co56 2.004 . S
O60 C65 1.259 . S
Co61 O62 2.061 . S
Co61 O67 2.052 . S
Co61 O69 2.135 . S
O62 Co61 2.061 . S
O62 C65 1.235 . S
C63 O66 1.238 . S
C63 O67 1.241 . S
C64 O57 1.247 . S
C64 O58 1.261 . S
C65 O60 1.259 . S
C65 O62 1.235 . S
O66 Co56 2.021 . S
O66 C63 1.238 . S
O67 Co61 2.052 . S
O67 C63 1.241 . S
O68 Co56 2.137 . S
O68 C59 1.247 . S
O69 Co56 2.244 . S
O69 C59 1.272 . S
O69 Co61 2.135 . S
Co70 O71 2.216 . S
Co70 O72 2.091 . S
Co70 O74 2.004 . S
Co70 O80 2.021 . S
Co70 O82 2.137 . S
Co70 O83 2.244 . S
O71 Co70 2.216 . S
O71 C78 1.247 . S
O72 Co70 2.091 . S
O72 C78 1.261 . S
C73 O82 1.247 . S
C73 O83 1.272 . S
O74 Co70 2.004 . S
O74 C79 1.259 . S
Co75 O76 2.061 . S
Co75 O81 2.052 . S
Co75 O83 2.135 . S
O76 Co75 2.061 . S
O76 C79 1.235 . S
C77 O80 1.238 . S
C77 O81 1.241 . S
C78 O71 1.247 . S
C78 O72 1.261 . S
C79 O74 1.259 . S
C79 O76 1.235 . S
O80 Co70 2.021 . S
O80 C77 1.238 . S
O81 Co75 2.052 . S
O81 C77 1.241 . S
O82 Co70 2.137 . S
O82 C73 1.247 . S
O83 Co70 2.244 . S
O83 C73 1.272 . S
O83 Co75 2.135 . S
Co84 O85 2.216 . S
Co84 O86 2.091 . S
Co84 O88 2.004 . S
Co84 O94 2.021 . S
Co84 O96 2.137 . S
Co84 O97 2.244 . S
O85 Co84 2.216 . S
O85 C92 1.247 . S
O86 Co84 2.091 . S
O86 C92 1.261 . S
C87 O96 1.247 . S
C87 O97 1.272 . S
O88 Co84 2.004 . S
O88 C93 1.259 . S
Co89 O90 2.061 . S
Co89 O95 2.052 . S
Co89 O97 2.135 . S
O90 Co89 2.061 . S
O90 C93 1.235 . S
C91 O94 1.238 . S
C91 O95 1.241 . S
C92 O85 1.247 . S
C92 O86 1.261 . S
C93 O88 1.259 . S
C93 O90 1.235 . S
O94 Co84 2.021 . S
O94 C91 1.238 . S
O95 Co89 2.052 . S
O95 C91 1.241 . S
O96 Co84 2.137 . S
O96 C87 1.247 . S
O97 Co84 2.244 . S
O97 C87 1.272 . S
O97 Co89 2.135 . S
Co98 O99 2.216 . S
Co98 O100 2.091 . S
Co98 O102 2.004 . S
Co98 O108 2.021 1_556 S
Co98 O110 2.137 . S
Co98 O111 2.244 . S
O99 Co98 2.216 . S
O99 C106 1.247 . S
O100 Co98 2.091 . S
O100 C106 1.261 . S
C101 O110 1.247 . S
C101 O111 1.272 . S
O102 Co98 2.004 . S
O102 C107 1.259 . S
Co103 O104 2.061 . S
Co103 O109 2.052 1_556 S
Co103 O111 2.135 . S
O104 Co103 2.061 . S
O104 C107 1.235 . S
C105 O108 1.238 . S
C105 O109 1.241 . S
C106 O99 1.247 . S
C106 O100 1.261 . S
C107 O102 1.259 . S
C107 O104 1.235 . S
O108 Co98 2.021 1_554 S
O108 C105 1.238 . S
O109 Co103 2.052 1_554 S
O109 C105 1.241 . S
O110 Co98 2.137 . S
O110 C101 1.247 . S
O111 Co98 2.244 . S
O111 C101 1.272 . S
O111 Co103 2.135 . S
Co112 O113 2.216 . S
Co112 O114 2.091 . S
Co112 O116 2.004 . S
Co112 O122 2.021 . S
Co112 O124 2.137 . S
Co112 O125 2.244 . S
O113 Co112 2.216 . S
O113 C120 1.247 . S
O114 Co112 2.091 . S
O114 C120 1.261 . S
C115 O124 1.247 . S
C115 O125 1.272 . S
O116 Co112 2.004 . S
O116 C121 1.259 . S
Co117 O118 2.061 . S
Co117 O123 2.052 . S
Co117 O125 2.135 . S
O118 Co117 2.061 . S
O118 C121 1.235 . S
C119 O122 1.238 . S
C119 O123 1.241 . S
C120 O113 1.247 . S
C120 O114 1.261 . S
C121 O116 1.259 . S
C121 O118 1.235 . S
O122 Co112 2.021 . S
O122 C119 1.238 . S
O123 Co117 2.052 . S
O123 C119 1.241 . S
O124 Co112 2.137 . S
O124 C115 1.247 . S
O125 Co112 2.244 . S
O125 C115 1.272 . S
O125 Co117 2.135 . S
Co126 O127 2.216 . S
Co126 O128 2.091 . S
Co126 O130 2.004 . S
Co126 O136 2.021 . S
Co126 O138 2.137 . S
Co126 O139 2.244 . S
O127 Co126 2.216 . S
O127 C134 1.247 . S
O128 Co126 2.091 . S
O128 C134 1.261 . S
C129 O138 1.247 . S
C129 O139 1.272 . S
O130 Co126 2.004 . S
O130 C135 1.259 . S
Co131 O132 2.061 . S
Co131 O137 2.052 . S
Co131 O139 2.135 . S
O132 Co131 2.061 . S
O132 C135 1.235 . S
C133 O136 1.238 . S
C133 O137 1.241 . S
C134 O127 1.247 . S
C134 O128 1.261 . S
C135 O130 1.259 . S
C135 O132 1.235 . S
O136 Co126 2.021 . S
O136 C133 1.238 . S
O137 Co131 2.052 . S
O137 C133 1.241 . S
O138 Co126 2.137 . S
O138 C129 1.247 . S
O139 Co126 2.244 . S
O139 C129 1.272 . S
O139 Co131 2.135 . S
Co140 O141 2.216 . S
Co140 O142 2.091 . S
Co140 O144 2.004 . S
Co140 O150 2.021 1_556 S
Co140 O152 2.137 . S
Co140 O153 2.244 . S
O141 Co140 2.216 . S
O141 C148 1.247 . S
O142 Co140 2.091 . S
O142 C148 1.261 . S
C143 O152 1.247 . S
C143 O153 1.272 . S
O144 Co140 2.004 . S
O144 C149 1.259 . S
Co145 O146 2.061 . S
Co145 O151 2.052 1_556 S
Co145 O153 2.135 . S
O146 Co145 2.061 . S
O146 C149 1.235 . S
C147 O150 1.238 . S
C147 O151 1.241 . S
C148 O141 1.247 . S
C148 O142 1.261 . S
C149 O144 1.259 . S
C149 O146 1.235 . S
O150 Co140 2.021 1_554 S
O150 C147 1.238 . S
O151 Co145 2.052 1_554 S
O151 C147 1.241 . S
O152 Co140 2.137 . S
O152 C143 1.247 . S
O153 Co140 2.244 . S
O153 C143 1.272 . S
O153 Co145 2.135 . S
Co154 O155 2.216 . S
Co154 O156 2.091 . S
Co154 O158 2.004 . S
Co154 O164 2.021 . S
Co154 O166 2.137 . S
Co154 O167 2.244 . S
O155 Co154 2.216 . S
O155 C162 1.247 . S
O156 Co154 2.091 . S
O156 C162 1.261 . S
C157 O166 1.247 . S
C157 O167 1.272 . S
O158 Co154 2.004 . S
O158 C163 1.259 . S
Co159 O160 2.061 . S
Co159 O165 2.052 . S
Co159 O167 2.135 . S
O160 Co159 2.061 . S
O160 C163 1.235 . S
C161 O164 1.238 . S
C161 O165 1.241 . S
C162 O155 1.247 . S
C162 O156 1.261 . S
C163 O158 1.259 . S
C163 O160 1.235 . S
O164 Co154 2.021 . S
O164 C161 1.238 . S
O165 Co159 2.052 . S
O165 C161 1.241 . S
O166 Co154 2.137 . S
O166 C157 1.247 . S
O167 Co154 2.244 . S
O167 C157 1.272 . S
O167 Co159 2.135 . S
H168 C174 0.930 . S
H169 C177 0.930 . S
H170 C178 0.930 . S
H171 C179 0.930 . S
H172 C182 0.930 . S
H173 C183 0.930 . S
C174 H168 0.930 . S
C174 C175 1.355 . S
C174 C176 1.415 . S
C175 C174 1.355 . S
C175 C177 1.419 . S
C176 C174 1.415 . S
C176 C181 1.425 . S
C176 C183 1.409 . S
C177 H169 0.930 . S
C177 C175 1.419 . S
C177 C178 1.362 . S
C178 H170 0.930 . S
C178 C177 1.362 . S
C178 C181 1.409 . S
C179 H171 0.930 . S
C179 C180 1.355 . S
C179 C181 1.415 . S
C180 C179 1.355 . S
C180 C182 1.419 . S
C181 C176 1.425 . S
C181 C178 1.409 . S
C181 C179 1.415 . S
C182 H172 0.930 . S
C182 C180 1.419 . S
C182 C183 1.362 . S
C183 H173 0.930 . S
C183 C176 1.409 . S
C183 C182 1.362 . S
H184 C190 0.930 . S
H185 C193 0.930 . S
H186 C194 0.930 . S
H187 C195 0.930 . S
H188 C198 0.930 . S
H189 C199 0.930 . S
C190 H184 0.930 . S
C190 C191 1.355 . S
C190 C192 1.415 . S
C191 C190 1.355 . S
C191 C193 1.419 . S
C192 C190 1.415 . S
C192 C197 1.425 . S
C192 C199 1.409 . S
C193 H185 0.930 . S
C193 C191 1.419 . S
C193 C194 1.362 . S
C194 H186 0.930 . S
C194 C193 1.362 . S
C194 C197 1.409 . S
C195 H187 0.930 . S
C195 C196 1.355 . S
C195 C197 1.415 . S
C196 C195 1.355 . S
C196 C198 1.419 . S
C197 C192 1.425 . S
C197 C194 1.409 . S
C197 C195 1.415 . S
C198 H188 0.930 . S
C198 C196 1.419 . S
C198 C199 1.362 . S
C199 H189 0.930 . S
C199 C192 1.409 . S
C199 C198 1.362 . S
H200 C206 0.930 . S
H201 C209 0.930 . S
H202 C210 0.930 . S
H203 C211 0.930 . S
H204 C214 0.930 . S
H205 C215 0.930 . S
C206 H200 0.930 . S
C206 C207 1.355 . S
C206 C208 1.415 . S
C207 C206 1.355 . S
C207 C209 1.419 . S
C208 C206 1.415 . S
C208 C213 1.425 1_556 S
C208 C215 1.409 1_556 S
C209 H201 0.930 . S
C209 C207 1.419 . S
C209 C210 1.362 . S
C210 H202 0.930 . S
C210 C209 1.362 . S
C210 C213 1.409 1_556 S
C211 H203 0.930 . S
C211 C212 1.355 . S
C211 C213 1.415 . S
C212 C211 1.355 . S
C212 C214 1.419 . S
C213 C208 1.425 1_554 S
C213 C210 1.409 1_554 S
C213 C211 1.415 . S
C214 H204 0.930 . S
C214 C212 1.419 . S
C214 C215 1.362 . S
C215 H205 0.930 . S
C215 C208 1.409 1_554 S
C215 C214 1.362 . S
H216 C222 0.930 . S
H217 C225 0.930 . S
H218 C226 0.930 . S
H219 C227 0.930 . S
H220 C230 0.930 . S
H221 C231 0.930 . S
C222 H216 0.930 . S
C222 C223 1.355 . S
C222 C224 1.415 . S
C223 C222 1.355 . S
C223 C225 1.419 . S
C224 C222 1.415 . S
C224 C229 1.425 . S
C224 C231 1.409 . S
C225 H217 0.930 . S
C225 C223 1.419 . S
C225 C226 1.362 . S
C226 H218 0.930 . S
C226 C225 1.362 . S
C226 C229 1.409 . S
C227 H219 0.930 . S
C227 C228 1.355 . S
C227 C229 1.415 . S
C228 C227 1.355 . S
C228 C230 1.419 . S
C229 C224 1.425 . S
C229 C226 1.409 . S
C229 C227 1.415 . S
C230 H220 0.930 . S
C230 C228 1.419 . S
C230 C231 1.362 . S
C231 H221 0.930 . S
C231 C224 1.409 . S
C231 C230 1.362 . S
H232 C238 0.930 . S
H233 C241 0.930 . S
H234 C242 0.930 . S
H235 C243 0.930 . S
H236 C246 0.930 . S
H237 C247 0.930 . S
C238 H232 0.930 . S
C238 C239 1.355 . S
C238 C240 1.415 . S
C239 C238 1.355 . S
C239 C241 1.419 . S
C240 C238 1.415 . S
C240 C245 1.425 . S
C240 C247 1.409 . S
C241 H233 0.930 . S
C241 C239 1.419 . S
C241 C242 1.362 . S
C242 H234 0.930 . S
C242 C241 1.362 . S
C242 C245 1.409 . S
C243 H235 0.930 . S
C243 C244 1.355 . S
C243 C245 1.415 . S
C244 C243 1.355 . S
C244 C246 1.419 . S
C245 C240 1.425 . S
C245 C242 1.409 . S
C245 C243 1.415 . S
C246 H236 0.930 . S
C246 C244 1.419 . S
C246 C247 1.362 . S
C247 H237 0.930 . S
C247 C240 1.409 . S
C247 C246 1.362 . S
H248 C254 0.930 . S
H249 C257 0.930 . S
H250 C258 0.930 . S
H251 C259 0.930 . S
H252 C262 0.930 . S
H253 C263 0.930 . S
C254 H248 0.930 . S
C254 C255 1.355 . S
C254 C256 1.415 . S
C255 C254 1.355 . S
C255 C257 1.419 . S
C256 C254 1.415 . S
C256 C261 1.425 1_554 S
C256 C263 1.409 1_554 S
C257 H249 0.930 . S
C257 C255 1.419 . S
C257 C258 1.362 . S
C258 H250 0.930 . S
C258 C257 1.362 . S
C258 C261 1.409 1_554 S
C259 H251 0.930 . S
C259 C260 1.355 . S
C259 C261 1.415 . S
C260 C259 1.355 . S
C260 C262 1.419 . S
C261 C256 1.425 1_556 S
C261 C258 1.409 1_556 S
C261 C259 1.415 . S
C262 H252 0.930 . S
C262 C260 1.419 . S
C262 C263 1.362 . S
C263 H253 0.930 . S
C263 C256 1.409 1_556 S
C263 C262 1.362 . S
H264 C270 0.930 . S
H265 C273 0.930 . S
H266 C274 0.930 . S
H267 C275 0.930 . S
H268 C278 0.930 . S
H269 C279 0.930 . S
C270 H264 0.930 . S
C270 C271 1.355 . S
C270 C272 1.415 . S
C271 C270 1.355 . S
C271 C273 1.419 1_554 S
C272 C270 1.415 . S
C272 C277 1.425 1_554 S
C272 C279 1.409 . S
C273 H265 0.930 . S
C273 C271 1.419 1_556 S
C273 C274 1.362 . S
C274 H266 0.930 . S
C274 C273 1.362 . S
C274 C277 1.409 . S
C275 H267 0.930 . S
C275 C276 1.355 . S
C275 C277 1.415 . S
C276 C275 1.355 . S
C276 C278 1.419 1_556 S
C277 C272 1.425 1_556 S
C277 C274 1.409 . S
C277 C275 1.415 . S
C278 H268 0.930 . S
C278 C276 1.419 1_554 S
C278 C279 1.362 . S
C279 H269 0.930 . S
C279 C272 1.409 . S
C279 C278 1.362 . S
H280 C286 0.930 . S
H281 C289 0.930 . S
H282 C290 0.930 . S
H283 C291 0.930 . S
H284 C294 0.930 . S
H285 C295 0.930 . S
C286 H280 0.930 . S
C286 C287 1.355 . S
C286 C288 1.415 . S
C287 C286 1.355 . S
C287 C289 1.419 . S
C288 C286 1.415 . S
C288 C293 1.425 . S
C288 C295 1.409 . S
C289 H281 0.930 . S
C289 C287 1.419 . S
C289 C290 1.362 . S
C290 H282 0.930 . S
C290 C289 1.362 . S
C290 C293 1.409 . S
C291 H283 0.930 . S
C291 C292 1.355 . S
C291 C293 1.415 . S
C292 C291 1.355 . S
C292 C294 1.419 . S
C293 C288 1.425 . S
C293 C290 1.409 . S
C293 C291 1.415 . S
C294 H284 0.930 . S
C294 C292 1.419 . S
C294 C295 1.362 . S
C295 H285 0.930 . S
C295 C288 1.409 . S
C295 C294 1.362 . S
H296 C302 0.930 . S
H297 C305 0.930 . S
H298 C306 0.930 . S
H299 C307 0.930 . S
H300 C310 0.930 . S
H301 C311 0.930 . S
C302 H296 0.930 . S
C302 C303 1.355 . S
C302 C304 1.415 . S
C303 C302 1.355 . S
C303 C305 1.419 . S
C304 C302 1.415 . S
C304 C309 1.425 . S
C304 C311 1.409 . S
C305 H297 0.930 . S
C305 C303 1.419 . S
C305 C306 1.362 . S
C306 H298 0.930 . S
C306 C305 1.362 . S
C306 C309 1.409 . S
C307 H299 0.930 . S
C307 C308 1.355 . S
C307 C309 1.415 . S
C308 C307 1.355 . S
C308 C310 1.419 . S
C309 C304 1.425 . S
C309 C306 1.409 . S
C309 C307 1.415 . S
C310 H300 0.930 . S
C310 C308 1.419 . S
C310 C311 1.362 . S
C311 H301 0.930 . S
C311 C304 1.409 . S
C311 C310 1.362 . S
H312 C318 0.930 . S
H313 C321 0.930 . S
H314 C322 0.930 . S
H315 C323 0.930 . S
H316 C326 0.930 . S
H317 C327 0.930 . S
C318 H312 0.930 . S
C318 C319 1.355 . S
C318 C320 1.415 . S
C319 C318 1.355 . S
C319 C321 1.419 1_554 S
C320 C318 1.415 . S
C320 C325 1.425 1_554 S
C320 C327 1.409 . S
C321 H313 0.930 . S
C321 C319 1.419 1_556 S
C321 C322 1.362 . S
C322 H314 0.930 . S
C322 C321 1.362 . S
C322 C325 1.409 . S
C323 H315 0.930 . S
C323 C324 1.355 . S
C323 C325 1.415 . S
C324 C323 1.355 . S
C324 C326 1.419 1_556 S
C325 C320 1.425 1_556 S
C325 C322 1.409 . S
C325 C323 1.415 . S
C326 H316 0.930 . S
C326 C324 1.419 1_554 S
C326 C327 1.362 . S
C327 H317 0.930 . S
C327 C320 1.409 . S
C327 C326 1.362 . S
H328 C334 0.930 . S
H329 C337 0.930 . S
H330 C338 0.930 . S
H331 C339 0.930 . S
H332 C342 0.930 . S
H333 C343 0.930 . S
C334 H328 0.930 . S
C334 C335 1.355 . S
C334 C336 1.415 . S
C335 C334 1.355 . S
C335 C337 1.419 . S
C336 C334 1.415 . S
C336 C341 1.425 . S
C336 C343 1.409 . S
C337 H329 0.930 . S
C337 C335 1.419 . S
C337 C338 1.362 . S
C338 H330 0.930 . S
C338 C337 1.362 . S
C338 C341 1.409 . S
C339 H331 0.930 . S
C339 C340 1.355 . S
C339 C341 1.415 . S
C340 C339 1.355 . S
C340 C342 1.419 . S
C341 C336 1.425 . S
C341 C338 1.409 . S
C341 C339 1.415 . S
C342 H332 0.930 . S
C342 C340 1.419 . S
C342 C343 1.362 . S
C343 H333 0.930 . S
C343 C336 1.409 . S
C343 C342 1.362 . S
H344 C350 0.930 . S
H345 C353 0.930 . S
H346 C354 0.930 . S
H347 C355 0.930 . S
H348 C358 0.930 . S
H349 C359 0.930 . S
C350 H344 0.930 . S
C350 C351 1.355 . S
C350 C352 1.415 . S
C351 C350 1.355 . S
C351 C353 1.419 . S
C352 C350 1.415 . S
C352 C357 1.425 . S
C352 C359 1.409 . S
C353 H345 0.930 . S
C353 C351 1.419 . S
C353 C354 1.362 . S
C354 H346 0.930 . S
C354 C353 1.362 . S
C354 C357 1.409 . S
C355 H347 0.930 . S
C355 C356 1.355 . S
C355 C357 1.415 . S
C356 C355 1.355 . S
C356 C358 1.419 . S
C357 C352 1.425 . S
C357 C354 1.409 . S
C357 C355 1.415 . S
C358 H348 0.930 . S
C358 C356 1.419 . S
C358 C359 1.362 . S
C359 H349 0.930 . S
C359 C352 1.409 . S
C359 C358 1.362 . S
H360 C366 0.930 . S
H361 C369 0.930 . S
H362 C370 0.930 . S
H363 C371 0.930 . S
H364 C374 0.930 . S
H365 C375 0.930 . S
C366 H360 0.930 . S
C366 C367 1.355 . S
C366 C368 1.415 . S
C367 C366 1.355 . S
C367 C369 1.419 . S
C368 C366 1.415 . S
C368 C373 1.425 . S
C368 C375 1.409 . S
C369 H361 0.930 . S
C369 C367 1.419 . S
C369 C370 1.362 . S
C370 H362 0.930 . S
C370 C369 1.362 . S
C370 C373 1.409 . S
C371 H363 0.930 . S
C371 C372 1.355 . S
C371 C373 1.415 . S
C372 C371 1.355 . S
C372 C374 1.419 . S
C373 C368 1.425 . S
C373 C370 1.409 . S
C373 C371 1.415 . S
C374 H364 0.930 . S
C374 C372 1.419 . S
C374 C375 1.362 . S
C375 H365 0.930 . S
C375 C368 1.409 . S
C375 C374 1.362 . S
H376 C382 0.930 . S
H377 C385 0.930 . S
H378 C386 0.930 . S
H379 C387 0.930 . S
H380 C390 0.930 . S
H381 C391 0.930 . S
C382 H376 0.930 . S
C382 C383 1.355 . S
C382 C384 1.415 . S
C383 C382 1.355 . S
C383 C385 1.419 1_655 S
C384 C382 1.415 . S
C384 C389 1.425 1_655 S
C384 C391 1.409 . S
C385 H377 0.930 . S
C385 C383 1.419 1_455 S
C385 C386 1.362 . S
C386 H378 0.930 . S
C386 C385 1.362 . S
C386 C389 1.409 . S
C387 H379 0.930 . S
C387 C388 1.355 . S
C387 C389 1.415 . S
C388 C387 1.355 . S
C388 C390 1.419 1_455 S
C389 C384 1.425 1_455 S
C389 C386 1.409 . S
C389 C387 1.415 . S
C390 H380 0.930 . S
C390 C388 1.419 1_655 S
C390 C391 1.362 . S
C391 H381 0.930 . S
C391 C384 1.409 . S
C391 C390 1.362 . S
H392 C398 0.930 . S
H393 C401 0.930 . S
H394 C402 0.930 . S
H395 C403 0.930 . S
H396 C406 0.930 . S
H397 C407 0.930 . S
C398 H392 0.930 . S
C398 C399 1.355 . S
C398 C400 1.386 1_545 S
C399 C398 1.355 . S
C399 C401 1.419 . S
C400 C398 1.386 1_565 S
C400 C405 1.450 1_565 S
C400 C407 1.427 . S
C401 H393 0.930 . S
C401 C399 1.419 . S
C401 C402 1.362 . S
C402 H394 0.930 . S
C402 C401 1.362 . S
C402 C405 1.427 . S
C403 H395 0.930 . S
C403 C404 1.355 . S
C403 C405 1.386 1_565 S
C404 C403 1.355 . S
C404 C406 1.419 . S
C405 C400 1.450 1_545 S
C405 C402 1.427 . S
C405 C403 1.386 1_545 S
C406 H396 0.930 . S
C406 C404 1.419 . S
C406 C407 1.362 . S
C407 H397 0.930 . S
C407 C400 1.427 . S
C407 C406 1.362 . S
H408 C414 0.930 . S
H409 C417 0.930 . S
H410 C418 0.930 . S
H411 C419 0.930 . S
H412 C422 0.930 . S
H413 C423 0.930 . S
C414 H408 0.930 . S
C414 C415 1.355 . S
C414 C416 1.415 . S
C415 C414 1.355 . S
C415 C417 1.419 . S
C416 C414 1.415 . S
C416 C421 1.425 . S
C416 C423 1.409 . S
C417 H409 0.930 . S
C417 C415 1.419 . S
C417 C418 1.362 . S
C418 H410 0.930 . S
C418 C417 1.362 . S
C418 C421 1.409 . S
C419 H411 0.930 . S
C419 C420 1.355 . S
C419 C421 1.415 . S
C420 C419 1.355 . S
C420 C422 1.419 . S
C421 C416 1.425 . S
C421 C418 1.409 . S
C421 C419 1.415 . S
C422 H412 0.930 . S
C422 C420 1.419 . S
C422 C423 1.362 . S
C423 H413 0.930 . S
C423 C416 1.409 . S
C423 C422 1.362 . S
H424 C430 0.930 . S
H425 C433 0.930 . S
H426 C434 0.930 . S
H427 C435 0.930 . S
H428 C438 0.930 . S
H429 C439 0.930 . S
C430 H424 0.930 . S
C430 C431 1.355 . S
C430 C432 1.415 . S
C431 C430 1.355 . S
C431 C433 1.419 . S
C432 C430 1.415 . S
C432 C437 1.425 1_455 S
C432 C439 1.409 1_455 S
C433 H425 0.930 . S
C433 C431 1.419 . S
C433 C434 1.362 . S
C434 H426 0.930 . S
C434 C433 1.362 . S
C434 C437 1.409 1_455 S
C435 H427 0.930 . S
C435 C436 1.355 . S
C435 C437 1.415 . S
C436 C435 1.355 . S
C436 C438 1.419 . S
C437 C432 1.425 1_655 S
C437 C434 1.409 1_655 S
C437 C435 1.415 . S
C438 H428 0.930 . S
C438 C436 1.419 . S
C438 C439 1.362 . S
C439 H429 0.930 . S
C439 C432 1.409 1_655 S
C439 C438 1.362 . S
H440 C446 0.930 . S
H441 C449 0.930 . S
H442 C450 0.930 1_545 S
H443 C451 0.930 . S
H444 C454 0.930 . S
H445 C455 0.930 1_565 S
C446 H440 0.930 . S
C446 C447 1.355 . S
C446 C448 1.415 . S
C447 C446 1.355 . S
C447 C449 1.419 . S
C448 C446 1.415 . S
C448 C453 1.425 1_565 S
C448 C455 1.409 1_565 S
C449 H441 0.930 . S
C449 C447 1.419 . S
C449 C450 1.362 . S
C450 H442 0.930 1_565 S
C450 C449 1.362 . S
C450 C453 1.409 1_565 S
C451 H443 0.930 . S
C451 C452 1.355 . S
C451 C453 1.415 . S
C452 C451 1.355 . S
C452 C454 1.419 . S
C453 C448 1.425 1_545 S
C453 C450 1.409 1_545 S
C453 C451 1.415 . S
C454 H444 0.930 . S
C454 C452 1.419 . S
C454 C455 1.362 . S
C455 H445 0.930 1_545 S
C455 C448 1.409 1_545 S
C455 C454 1.362 . S
H456 C462 0.930 . S
H457 C465 0.930 . S
H458 C466 0.930 . S
H459 C467 0.930 . S
H460 C470 0.930 . S
H461 C471 0.930 . S
C462 H456 0.930 . S
C462 C463 1.355 . S
C462 C464 1.415 . S
C463 C462 1.355 . S
C463 C465 1.419 . S
C464 C462 1.415 . S
C464 C469 1.425 . S
C464 C471 1.409 . S
C465 H457 0.930 . S
C465 C463 1.419 . S
C465 C466 1.362 . S
C466 H458 0.930 . S
C466 C465 1.362 . S
C466 C469 1.409 . S
C467 H459 0.930 . S
C467 C468 1.355 . S
C467 C469 1.415 . S
C468 C467 1.355 . S
C468 C470 1.419 . S
C469 C464 1.425 . S
C469 C466 1.409 . S
C469 C467 1.415 . S
C470 H460 0.930 . S
C470 C468 1.419 . S
C470 C471 1.362 . S
C471 H461 0.930 . S
C471 C464 1.409 . S
C471 C470 1.362 . S
H472 C478 0.930 . S
H473 C481 0.930 . S
H474 C482 0.930 . S
H475 C483 0.930 . S
H476 C486 0.930 . S
H477 C487 0.930 . S
C478 H472 0.930 . S
C478 C479 1.355 . S
C478 C480 1.415 . S
C479 C478 1.355 . S
C479 C481 1.419 . S
C480 C478 1.415 . S
C480 C485 1.425 . S
C480 C487 1.409 . S
C481 H473 0.930 . S
C481 C479 1.419 . S
C481 C482 1.362 . S
C482 H474 0.930 . S
C482 C481 1.362 . S
C482 C485 1.409 . S
C483 H475 0.930 . S
C483 C484 1.355 . S
C483 C485 1.415 . S
C484 C483 1.355 . S
C484 C486 1.419 . S
C485 C480 1.425 . S
C485 C482 1.409 . S
C485 C483 1.415 . S
C486 H476 0.930 . S
C486 C484 1.419 . S
C486 C487 1.362 . S
C487 H477 0.930 . S
C487 C480 1.409 . S
C487 C486 1.362 . S
H488 C494 0.930 . S
H489 C497 0.930 . S
H490 C498 0.930 . S
H491 C499 0.930 . S
H492 C502 0.930 . S
H493 C503 0.930 . S
C494 H488 0.930 . S
C494 C495 1.355 . S
C494 C496 1.415 . S
C495 C494 1.355 . S
C495 C497 1.419 . S
C496 C494 1.415 . S
C496 C501 1.425 . S
C496 C503 1.409 . S
C497 H489 0.930 . S
C497 C495 1.419 . S
C497 C498 1.362 . S
C498 H490 0.930 . S
C498 C497 1.362 . S
C498 C501 1.409 . S
C499 H491 0.930 . S
C499 C500 1.355 . S
C499 C501 1.415 . S
C500 C499 1.355 . S
C500 C502 1.419 . S
C501 C496 1.425 . S
C501 C498 1.409 . S
C501 C499 1.415 . S
C502 H492 0.930 . S
C502 C500 1.419 . S
C502 C503 1.362 . S
C503 H493 0.930 . S
C503 C496 1.409 . S
C503 C502 1.362 . S
H504 C510 0.930 . S
H505 C513 0.930 . S
H506 C514 0.930 . S
H507 C515 0.930 . S
H508 C518 0.930 . S
H509 C519 0.930 . S
C510 H504 0.930 . S
C510 C511 1.355 . S
C510 C512 1.415 . S
C511 C510 1.355 . S
C511 C513 1.419 . S
C512 C510 1.415 . S
C512 C517 1.425 . S
C512 C519 1.409 . S
C513 H505 0.930 . S
C513 C511 1.419 . S
C513 C514 1.362 . S
C514 H506 0.930 . S
C514 C513 1.362 . S
C514 C517 1.409 . S
C515 H507 0.930 . S
C515 C516 1.355 . S
C515 C517 1.415 . S
C516 C515 1.355 . S
C516 C518 1.419 . S
C517 C512 1.425 . S
C517 C514 1.409 . S
C517 C515 1.415 . S
C518 H508 0.930 . S
C518 C516 1.419 . S
C518 C519 1.362 . S
C519 H509 0.930 . S
C519 C512 1.409 . S
C519 C518 1.362 . S
H520 C526 0.930 . S
H521 C529 0.930 . S
H522 C530 0.930 . S
H523 C531 0.930 . S
H524 C534 0.930 . S
H525 C535 0.930 . S
C526 H520 0.930 . S
C526 C527 1.355 . S
C526 C528 1.415 . S
C527 C526 1.355 . S
C527 C529 1.419 . S
C528 C526 1.415 . S
C528 C533 1.425 . S
C528 C535 1.409 . S
C529 H521 0.930 . S
C529 C527 1.419 . S
C529 C530 1.362 . S
C530 H522 0.930 . S
C530 C529 1.362 . S
C530 C533 1.409 . S
C531 H523 0.930 . S
C531 C532 1.355 . S
C531 C533 1.415 . S
C532 C531 1.355 . S
C532 C534 1.419 . S
C533 C528 1.425 . S
C533 C530 1.409 . S
C533 C531 1.415 . S
C534 H524 0.930 . S
C534 C532 1.419 . S
C534 C535 1.362 . S
C535 H525 0.930 . S
C535 C528 1.409 . S
C535 C534 1.362 . S
H536 C542 0.930 . S
H537 C545 0.930 . S
H538 C546 0.930 . S
H539 C547 0.930 . S
H540 C550 0.930 . S
H541 C551 0.930 . S
C542 H536 0.930 . S
C542 C543 1.355 . S
C542 C544 1.415 . S
C543 C542 1.355 . S
C543 C545 1.419 . S
C544 C542 1.415 . S
C544 C549 1.425 . S
C544 C551 1.409 . S
C545 H537 0.930 . S
C545 C543 1.419 . S
C545 C546 1.362 . S
C546 H538 0.930 . S
C546 C545 1.362 . S
C546 C549 1.409 . S
C547 H539 0.930 . S
C547 C548 1.355 . S
C547 C549 1.415 . S
C548 C547 1.355 . S
C548 C550 1.419 . S
C549 C544 1.425 . S
C549 C546 1.409 . S
C549 C547 1.415 . S
C550 H540 0.930 . S
C550 C548 1.419 . S
C550 C551 1.362 . S
C551 H541 0.930 . S
C551 C544 1.409 . S
C551 C550 1.362 . S
C175 C3 1.519 . S
C180 C87 1.542 . S
C191 C17 1.542 . S
C196 C101 1.520 . S
C207 C31 1.461 . S
C212 C115 1.442 . S
C223 C45 1.485 . S
C228 C129 1.509 . S
C239 C59 1.495 . S
C244 C143 1.493 . S
C255 C157 1.455 . S
C260 C73 1.481 . S
C271 C8 1.548 . S
C276 C148 1.553 . S
C287 C22 1.580 . S
C292 C162 1.641 . S
C303 C36 1.639 . S
C308 C92 1.575 . S
C319 C50 1.544 . S
C324 C106 1.544 . S
C335 C64 1.502 . S
C340 C120 1.625 . S
C351 C78 1.636 . S
C356 C134 1.504 . S
C367 C9 1.201 . S
C372 C51 1.201 . S
C383 C23 1.982 . S
C388 C65 1.981 . S
C399 C79 1.341 . S
C404 C37 1.342 . S
C415 C93 1.887 . S
C420 C135 1.888 . S
C431 C149 1.270 . S
C436 C107 1.268 . S
C447 C121 1.429 . S
C452 C163 1.429 . S
C463 C91 0.862 . S
C468 C7 0.923 . S
C479 C21 0.863 . S
C484 C105 0.880 . S
C495 C35 0.874 . S
C500 C119 0.859 . S
C511 C133 0.892 . S
C516 C49 0.830 . S
C527 C147 0.833 . S
C532 C63 0.911 . S
C543 C77 0.847 . S
C548 C161 0.903 . S
