# Generated by pormake.
# Topology snl, (6)-cn, num edge types: 1
# Building blocks:
#     Node 0, Type 0, BuildingBlock: BETFEN_clean_sbu_0, # of connection points: 6
#     Node 1, Type 0, BuildingBlock: BETFEN_clean_sbu_0, # of connection points: 6
#     Node 2, Type 0, BuildingBlock: BETFEN_clean_sbu_0, # of connection points: 6
#     Node 3, Type 0, BuildingBlock: BETFEN_clean_sbu_0, # of connection points: 6
#     Node 4, Type 0, BuildingBlock: BETFEN_clean_sbu_0, # of connection points: 6
#     Node 5, Type 0, BuildingBlock: BETFEN_clean_sbu_0, # of connection points: 6
#     Node 6, Type 0, BuildingBlock: BETFEN_clean_sbu_0, # of connection points: 6
#     Node 7, Type 0, BuildingBlock: BETFEN_clean_sbu_0, # of connection points: 6
#     Node 8, Type 0, BuildingBlock: BETFEN_clean_sbu_0, # of connection points: 6
#     Node 9, Type 0, BuildingBlock: BETFEN_clean_sbu_0, # of connection points: 6
#     Node 10, Type 0, BuildingBlock: BETFEN_clean_sbu_0, # of connection points: 6
#     Node 11, Type 0, BuildingBlock: BETFEN_clean_sbu_0, # of connection points: 6
#     Node 12, Type 0, BuildingBlock: BETFEN_clean_sbu_0, # of connection points: 6
#     Node 13, Type 0, BuildingBlock: BETFEN_clean_sbu_0, # of connection points: 6
#     Node 14, Type 0, BuildingBlock: BETFEN_clean_sbu_0, # of connection points: 6
#     Node 15, Type 0, BuildingBlock: BETFEN_clean_sbu_0, # of connection points: 6
#     Edge 16, Type (0, 0), BuildingBlock: XIVTED_clean_linker_0, # of connection points: 2
#     Edge 17, Type (0, 0), BuildingBlock: XIVTED_clean_linker_0, # of connection points: 2
#     Edge 18, Type (0, 0), BuildingBlock: XIVTED_clean_linker_0, # of connection points: 2
#     Edge 19, Type (0, 0), BuildingBlock: XIVTED_clean_linker_0, # of connection points: 2
#     Edge 20, Type (0, 0), BuildingBlock: XIVTED_clean_linker_0, # of connection points: 2
#     Edge 21, Type (0, 0), BuildingBlock: XIVTED_clean_linker_0, # of connection points: 2
#     Edge 22, Type (0, 0), BuildingBlock: XIVTED_clean_linker_0, # of connection points: 2
#     Edge 23, Type (0, 0), BuildingBlock: XIVTED_clean_linker_0, # of connection points: 2
#     Edge 24, Type (0, 0), BuildingBlock: XIVTED_clean_linker_0, # of connection points: 2
#     Edge 25, Type (0, 0), BuildingBlock: XIVTED_clean_linker_0, # of connection points: 2
#     Edge 26, Type (0, 0), BuildingBlock: XIVTED_clean_linker_0, # of connection points: 2
#     Edge 27, Type (0, 0), BuildingBlock: XIVTED_clean_linker_0, # of connection points: 2
#     Edge 28, Type (0, 0), BuildingBlock: XIVTED_clean_linker_0, # of connection points: 2
#     Edge 29, Type (0, 0), BuildingBlock: XIVTED_clean_linker_0, # of connection points: 2
#     Edge 30, Type (0, 0), BuildingBlock: XIVTED_clean_linker_0, # of connection points: 2
#     Edge 31, Type (0, 0), BuildingBlock: XIVTED_clean_linker_0, # of connection points: 2
#     Edge 32, Type (0, 0), BuildingBlock: XIVTED_clean_linker_0, # of connection points: 2
#     Edge 33, Type (0, 0), BuildingBlock: XIVTED_clean_linker_0, # of connection points: 2
#     Edge 34, Type (0, 0), BuildingBlock: XIVTED_clean_linker_0, # of connection points: 2
#     Edge 35, Type (0, 0), BuildingBlock: XIVTED_clean_linker_0, # of connection points: 2
#     Edge 36, Type (0, 0), BuildingBlock: XIVTED_clean_linker_0, # of connection points: 2
#     Edge 37, Type (0, 0), BuildingBlock: XIVTED_clean_linker_0, # of connection points: 2
#     Edge 38, Type (0, 0), BuildingBlock: XIVTED_clean_linker_0, # of connection points: 2
#     Edge 39, Type (0, 0), BuildingBlock: XIVTED_clean_linker_0, # of connection points: 2
#     Edge 40, Type (0, 0), BuildingBlock: XIVTED_clean_linker_0, # of connection points: 2
#     Edge 41, Type (0, 0), BuildingBlock: XIVTED_clean_linker_0, # of connection points: 2
#     Edge 42, Type (0, 0), BuildingBlock: XIVTED_clean_linker_0, # of connection points: 2
#     Edge 43, Type (0, 0), BuildingBlock: XIVTED_clean_linker_0, # of connection points: 2
#     Edge 44, Type (0, 0), BuildingBlock: XIVTED_clean_linker_0, # of connection points: 2
#     Edge 45, Type (0, 0), BuildingBlock: XIVTED_clean_linker_0, # of connection points: 2
#     Edge 46, Type (0, 0), BuildingBlock: XIVTED_clean_linker_0, # of connection points: 2
#     Edge 47, Type (0, 0), BuildingBlock: XIVTED_clean_linker_0, # of connection points: 2
#     Edge 48, Type (0, 0), BuildingBlock: XIVTED_clean_linker_0, # of connection points: 2
#     Edge 49, Type (0, 0), BuildingBlock: XIVTED_clean_linker_0, # of connection points: 2
#     Edge 50, Type (0, 0), BuildingBlock: XIVTED_clean_linker_0, # of connection points: 2
#     Edge 51, Type (0, 0), BuildingBlock: XIVTED_clean_linker_0, # of connection points: 2
#     Edge 52, Type (0, 0), BuildingBlock: XIVTED_clean_linker_0, # of connection points: 2
#     Edge 53, Type (0, 0), BuildingBlock: XIVTED_clean_linker_0, # of connection points: 2
#     Edge 54, Type (0, 0), BuildingBlock: XIVTED_clean_linker_0, # of connection points: 2
#     Edge 55, Type (0, 0), BuildingBlock: XIVTED_clean_linker_0, # of connection points: 2
#     Edge 56, Type (0, 0), BuildingBlock: XIVTED_clean_linker_0, # of connection points: 2
#     Edge 57, Type (0, 0), BuildingBlock: XIVTED_clean_linker_0, # of connection points: 2
#     Edge 58, Type (0, 0), BuildingBlock: XIVTED_clean_linker_0, # of connection points: 2
#     Edge 59, Type (0, 0), BuildingBlock: XIVTED_clean_linker_0, # of connection points: 2
#     Edge 60, Type (0, 0), BuildingBlock: XIVTED_clean_linker_0, # of connection points: 2
#     Edge 61, Type (0, 0), BuildingBlock: XIVTED_clean_linker_0, # of connection points: 2
#     Edge 62, Type (0, 0), BuildingBlock: XIVTED_clean_linker_0, # of connection points: 2
#     Edge 63, Type (0, 0), BuildingBlock: XIVTED_clean_linker_0, # of connection points: 2
# Relax obj value: 0.188
# Max RMSD: 0.219
# Mean RMSD: 0.219
data_MOF--net-snl--node1-BETFEN_clean_sbu_0--edge1-XIVTED_clean_linker_0
_symmetry_space_group_name_H-M    P1
_symmetry_Int_Tables_number       1
_symmetry_cell_setting            triclinic
loop_
_symmetry_equiv_pos_as_xyz
'x, y, z'
_cell_length_a     56.492729
_cell_length_b     58.245005
_cell_length_c     26.368755
_cell_angle_alpha  89.981326
_cell_angle_beta   89.964849
_cell_angle_gamma 89.954738
loop_
_atom_site_label
_atom_site_type_symbol
_atom_site_fract_x
_atom_site_fract_y
_atom_site_fract_z
_atom_type_partial_charge
Pr0 Pr 0.14554 0.627 0.05246 0.0
Pr1 Pr 0.12153 0.62372 0.15997 0.0
C2 C 0.15957 0.6143 0.95856 0.0
C3 C 0.15563 0.61789 0.90332 0.0
C4 C 0.16196 0.63839 0.87849 0.0
C5 C 0.15943 0.6405 0.82564 0.0
C6 C 0.15068 0.62211 0.79642 0.0
C7 C 0.14396 0.60184 0.82166 0.0
C8 C 0.14646 0.59976 0.87424 0.0
C9 C 0.13803 0.67218 0.08579 0.0
C10 C 0.08701 0.63532 0.06636 0.0
C11 C 0.10784 0.62214 0.25837 0.0
C12 C 0.11579 0.62383 0.31196 0.0
C13 C 0.11275 0.60477 0.3439 0.0
C14 C 0.11877 0.60589 0.39527 0.0
C15 C 0.12798 0.62619 0.4164 0.0
C16 C 0.13119 0.64531 0.3843 0.0
C17 C 0.12519 0.64414 0.33261 0.0
C18 C 0.12325 0.58316 0.10192 0.0
C19 C 0.17992 0.62726 0.15419 0.0
O20 O 0.14275 0.60387 0.98388 0.0
O21 O 0.17035 0.63028 0.98493 0.0
O22 O 0.13259 0.65422 0.11026 0.0
O23 O 0.14749 0.66704 0.04241 0.0
O24 O 0.09028 0.63894 0.11513 0.0
O25 O 0.10403 0.62729 0.03652 0.0
O26 O 0.10653 0.64078 0.23069 0.0
O27 O 0.11478 0.60416 0.23272 0.0
O28 O 0.14012 0.59717 0.10788 0.0
O29 O 0.10446 0.59022 0.12567 0.0
O30 O 0.17929 0.62235 0.10504 0.0
O31 O 0.16055 0.63112 0.18052 0.0
H32 H 0.1692 0.65267 0.89969 0.0
H33 H 0.16495 0.6563 0.80754 0.0
H34 H 0.13675 0.58746 0.80073 0.0
H35 H 0.14149 0.58372 0.89217 0.0
H36 H 0.10529 0.58897 0.32922 0.0
H37 H 0.11562 0.59094 0.41872 0.0
H38 H 0.13843 0.66116 0.39907 0.0
H39 H 0.12775 0.65917 0.30902 0.0
Pr40 Pr 0.64718 0.88605 0.47778 0.0
Pr41 Pr 0.62363 0.88964 0.37627 0.0
C42 C 0.66151 0.88951 0.57578 0.0
C43 C 0.65431 0.88893 0.63018 0.0
C44 C 0.65668 0.86864 0.65869 0.0
C45 C 0.65255 0.86859 0.71114 0.0
C46 C 0.64607 0.88888 0.73668 0.0
C47 C 0.64323 0.90908 0.70793 0.0
C48 C 0.64738 0.90913 0.65546 0.0
C49 C 0.64481 0.84367 0.42737 0.0
C50 C 0.58836 0.88041 0.469 0.0
C51 C 0.60985 0.8852 0.27828 0.0
C52 C 0.61761 0.88723 0.22439 0.0
C53 C 0.61519 0.90798 0.19753 0.0
C54 C 0.62016 0.90904 0.14541 0.0
C55 C 0.62757 0.88936 0.11865 0.0
C56 C 0.63047 0.86876 0.14588 0.0
C57 C 0.62549 0.8677 0.19788 0.0
C58 C 0.62569 0.93157 0.42945 0.0
C59 C 0.68213 0.89316 0.37966 0.0
O60 O 0.65522 0.90712 0.54814 0.0
O61 O 0.66166 0.87029 0.55024 0.0
O62 O 0.62804 0.85814 0.42976 0.0
O63 O 0.66354 0.85132 0.4503 0.0
O64 O 0.59155 0.876 0.42069 0.0
O65 O 0.60596 0.88785 0.49776 0.0
O66 O 0.61875 0.86843 0.30519 0.0
O67 O 0.60637 0.90388 0.30482 0.0
O68 O 0.6425 0.91725 0.42597 0.0
O69 O 0.60737 0.92476 0.40367 0.0
O70 O 0.68123 0.89498 0.42964 0.0
O71 O 0.66314 0.88897 0.3526 0.0
H72 H 0.66224 0.85282 0.64068 0.0
H73 H 0.6546 0.85263 0.73173 0.0
H74 H 0.63857 0.92511 0.72618 0.0
H75 H 0.64575 0.92517 0.63498 0.0
H76 H 0.60899 0.92334 0.21652 0.0
H77 H 0.61802 0.9253 0.126 0.0
H78 H 0.63579 0.85315 0.12668 0.0
H79 H 0.62722 0.85133 0.21704 0.0
Pr80 Pr 0.35802 0.39107 0.54526 0.0
Pr81 Pr 0.38244 0.39283 0.65403 0.0
C82 C 0.34432 0.40477 0.45186 0.0
C83 C 0.34715 0.40111 0.39654 0.0
C84 C 0.34563 0.37929 0.374 0.0
C85 C 0.34781 0.37683 0.32115 0.0
C86 C 0.35146 0.39614 0.28982 0.0
C87 C 0.35325 0.41786 0.3129 0.0
C88 C 0.35109 0.42028 0.36546 0.0
C89 C 0.36406 0.34552 0.57802 0.0
C90 C 0.41631 0.38173 0.55841 0.0
C91 C 0.3961 0.38823 0.75198 0.0
C92 C 0.38749 0.3885 0.80543 0.0
C93 C 0.3865 0.4091 0.83322 0.0
C94 C 0.38055 0.409 0.88486 0.0
C95 C 0.37557 0.38828 0.91029 0.0
C96 C 0.37616 0.36774 0.88221 0.0
C97 C 0.38209 0.36784 0.83057 0.0
C98 C 0.381 0.43427 0.59875 0.0
C99 C 0.32365 0.39616 0.64802 0.0
O100 O 0.36237 0.41364 0.47602 0.0
O101 O 0.33261 0.38954 0.47863 0.0
O102 O 0.37019 0.36331 0.60244 0.0
O103 O 0.35414 0.35124 0.53545 0.0
O104 O 0.41297 0.37755 0.60692 0.0
O105 O 0.39946 0.39033 0.52904 0.0
O106 O 0.39004 0.37089 0.72323 0.0
O107 O 0.39703 0.40767 0.72717 0.0
O108 O 0.36438 0.41984 0.60262 0.0
O109 O 0.39924 0.42772 0.62528 0.0
O110 O 0.32429 0.39676 0.59764 0.0
O111 O 0.3428 0.39374 0.67595 0.0
H112 H 0.34263 0.36418 0.39708 0.0
H113 H 0.3462 0.35986 0.30477 0.0
H114 H 0.35651 0.43307 0.29035 0.0
H115 H 0.35242 0.43728 0.38192 0.0
H116 H 0.39086 0.42531 0.81541 0.0
H117 H 0.38063 0.42514 0.90521 0.0
H118 H 0.37213 0.35148 0.90018 0.0
H119 H 0.38288 0.35162 0.81057 0.0
Pr120 Pr 0.85687 0.12987 0.98302 0.0
Pr121 Pr 0.88233 0.12987 0.86589 0.0
C122 C 0.84039 0.1162 0.07413 0.0
C123 C 0.84419 0.11927 0.1294 0.0
C124 C 0.84397 0.14104 0.15249 0.0
C125 C 0.84728 0.14319 0.20505 0.0
C126 C 0.85086 0.12365 0.23567 0.0
C127 C 0.8512 0.10195 0.21218 0.0
C128 C 0.84787 0.09982 0.15982 0.0
C129 C 0.86862 0.17469 0.95064 0.0
C130 C 0.91601 0.13284 0.96837 0.0
C131 C 0.89668 0.14209 0.77218 0.0
C132 C 0.89057 0.13952 0.71778 0.0
C133 C 0.89022 0.11801 0.69358 0.0
C134 C 0.88513 0.11637 0.64163 0.0
C135 C 0.88032 0.13619 0.61272 0.0
C136 C 0.88039 0.15761 0.63737 0.0
C137 C 0.88551 0.15924 0.68912 0.0
C138 C 0.87273 0.08573 0.90744 0.0
C139 C 0.82344 0.12999 0.87643 0.0
O140 O 0.85692 0.10514 0.04917 0.0
O141 O 0.83094 0.13319 0.04831 0.0
O142 O 0.87169 0.15609 0.92681 0.0
O143 O 0.85917 0.1702 0.99457 0.0
O144 O 0.9138 0.13791 0.91968 0.0
O145 O 0.89812 0.12649 0.99804 0.0
O146 O 0.8823 0.15459 0.79977 0.0
O147 O 0.90533 0.12428 0.79648 0.0
O148 O 0.86467 0.10506 0.91964 0.0
O149 O 0.88521 0.08847 0.8663 0.0
O150 O 0.82414 0.12585 0.92626 0.0
O151 O 0.84247 0.13365 0.84848 0.0
H152 H 0.84118 0.15638 0.13007 0.0
H153 H 0.84666 0.16016 0.22176 0.0
H154 H 0.85432 0.08654 0.23418 0.0
H155 H 0.84817 0.08285 0.14297 0.0
H156 H 0.89407 0.10247 0.71459 0.0
H157 H 0.88547 0.0996 0.62392 0.0
H158 H 0.87637 0.17321 0.61671 0.0
H159 H 0.88565 0.17604 0.7068 0.0
Pr160 Pr 0.14613 0.38616 0.97254 0.0
Pr161 Pr 0.12218 0.38647 0.8722 0.0
C162 C 0.16031 0.3932 0.06983 0.0
C163 C 0.15373 0.39156 0.1246 0.0
C164 C 0.15421 0.37048 0.15078 0.0
C165 C 0.15027 0.36959 0.20338 0.0
C166 C 0.14581 0.38975 0.2314 0.0
C167 C 0.14502 0.41076 0.20492 0.0
C168 C 0.14898 0.41164 0.15242 0.0
C169 C 0.1444 0.34224 0.9289 0.0
C170 C 0.08718 0.37884 0.9657 0.0
C171 C 0.10804 0.38302 0.77396 0.0
C172 C 0.11604 0.38427 0.71997 0.0
C173 C 0.1169 0.40536 0.69392 0.0
C174 C 0.12192 0.40616 0.64177 0.0
C175 C 0.12613 0.38588 0.614 0.0
C176 C 0.12581 0.36485 0.6404 0.0
C177 C 0.12076 0.36406 0.69251 0.0
C178 C 0.12381 0.42954 0.9211 0.0
C179 C 0.18031 0.38891 0.87329 0.0
O180 O 0.1501 0.40897 0.0421 0.0
O181 O 0.1645 0.37432 0.0446 0.0
O182 O 0.12724 0.35633 0.92909 0.0
O183 O 0.16287 0.3509 0.95106 0.0
O184 O 0.09023 0.37326 0.91787 0.0
O185 O 0.10491 0.38715 0.99295 0.0
O186 O 0.11474 0.36545 0.8013 0.0
O187 O 0.10685 0.40199 0.80025 0.0
O188 O 0.14109 0.41584 0.91696 0.0
O189 O 0.10497 0.42107 0.9 0.0
O190 O 0.17898 0.39591 0.92097 0.0
O191 O 0.16149 0.38104 0.85002 0.0
H192 H 0.15801 0.35465 0.13083 0.0
H193 H 0.15074 0.35305 0.22208 0.0
H194 H 0.14202 0.42672 0.22498 0.0
H195 H 0.14889 0.42821 0.13373 0.0
H196 H 0.11321 0.4213 0.71355 0.0
H197 H 0.12234 0.42272 0.62314 0.0
H198 H 0.12864 0.34883 0.62048 0.0
H199 H 0.11992 0.34748 0.71103 0.0
Pr200 Pr 0.85557 0.88782 0.04537 0.0
Pr201 Pr 0.87924 0.89154 0.146 0.0
C202 C 0.84087 0.89257 0.94781 0.0
C203 C 0.84756 0.891 0.89317 0.0
C204 C 0.84752 0.8699 0.86716 0.0
C205 C 0.85151 0.86904 0.8146 0.0
C206 C 0.85555 0.88926 0.78652 0.0
C207 C 0.85591 0.9103 0.81283 0.0
C208 C 0.85191 0.91115 0.86527 0.0
C209 C 0.86015 0.845 0.09335 0.0
C210 C 0.91485 0.88357 0.05345 0.0
C211 C 0.89344 0.89047 0.24442 0.0
C212 C 0.88536 0.89065 0.29835 0.0
C213 C 0.88383 0.9114 0.32548 0.0
C214 C 0.879 0.91147 0.37767 0.0
C215 C 0.87569 0.89078 0.40444 0.0
C216 C 0.87655 0.87005 0.37697 0.0
C217 C 0.88141 0.86998 0.32474 0.0
C218 C 0.8751 0.93358 0.09331 0.0
C219 C 0.82124 0.88958 0.14425 0.0
O220 O 0.84975 0.90933 0.97464 0.0
O221 O 0.8383 0.87367 0.97399 0.0
O222 O 0.87624 0.86019 0.09153 0.0
O223 O 0.84108 0.85194 0.07051 0.0
O224 O 0.91216 0.87965 0.10212 0.0
O225 O 0.89677 0.88989 0.02461 0.0
O226 O 0.88975 0.87205 0.21725 0.0
O227 O 0.89152 0.90934 0.21797 0.0
O228 O 0.85878 0.91882 0.09787 0.0
O229 O 0.89414 0.92689 0.1166 0.0
O230 O 0.82216 0.8963 0.09635 0.0
O231 O 0.84051 0.88319 0.16808 0.0
H232 H 0.84402 0.85403 0.88721 0.0
H233 H 0.85137 0.85248 0.79596 0.0
H234 H 0.85855 0.9263 0.79268 0.0
H235 H 0.85165 0.92775 0.88382 0.0
H236 H 0.88694 0.92765 0.30665 0.0
H237 H 0.8781 0.9278 0.39717 0.0
H238 H 0.87437 0.85375 0.39615 0.0
H239 H 0.88275 0.85364 0.30536 0.0
Pr240 Pr 0.35813 0.62801 0.48127 0.0
Pr241 Pr 0.38225 0.62988 0.36735 0.0
C242 C 0.34314 0.61345 0.57319 0.0
C243 C 0.347 0.6166 0.62865 0.0
C244 C 0.34019 0.63679 0.65412 0.0
C245 C 0.34339 0.6389 0.70673 0.0
C246 C 0.35337 0.62086 0.73522 0.0
C247 C 0.36016 0.60072 0.70955 0.0
C248 C 0.35695 0.59861 0.65711 0.0
C249 C 0.3669 0.67393 0.45235 0.0
C250 C 0.4164 0.63594 0.46706 0.0
C251 C 0.39457 0.64287 0.27266 0.0
C252 C 0.38895 0.63971 0.21812 0.0
C253 C 0.39573 0.61979 0.19172 0.0
C254 C 0.39119 0.61766 0.13968 0.0
C255 C 0.37991 0.63545 0.11276 0.0
C256 C 0.37308 0.65531 0.13937 0.0
C257 C 0.37763 0.65744 0.19129 0.0
C258 C 0.37839 0.58609 0.41169 0.0
C259 C 0.32362 0.62442 0.37702 0.0
O260 O 0.36008 0.60334 0.54751 0.0
O261 O 0.33253 0.62985 0.54762 0.0
O262 O 0.37097 0.65601 0.42691 0.0
O263 O 0.35791 0.66814 0.49589 0.0
O264 O 0.4128 0.64197 0.41942 0.0
O265 O 0.39962 0.62667 0.49579 0.0
O266 O 0.37898 0.65388 0.3003 0.0
O267 O 0.40509 0.62609 0.29708 0.0
O268 O 0.36387 0.60245 0.4163 0.0
O269 O 0.39457 0.59118 0.37827 0.0
O270 O 0.32452 0.62379 0.42752 0.0
O271 O 0.34246 0.62702 0.34802 0.0
H272 H 0.33224 0.65092 0.63356 0.0
H273 H 0.33764 0.65455 0.72519 0.0
H274 H 0.3682 0.58658 0.72991 0.0
H275 H 0.36223 0.58277 0.63873 0.0
H276 H 0.40477 0.60591 0.21105 0.0
H277 H 0.39702 0.60226 0.12034 0.0
H278 H 0.3641 0.66924 0.12013 0.0
H279 H 0.37242 0.67311 0.21043 0.0
Pr280 Pr 0.64867 0.12815 0.54153 0.0
Pr281 Pr 0.6236 0.12805 0.659 0.0
C282 C 0.66378 0.11378 0.44998 0.0
C283 C 0.65905 0.11674 0.39497 0.0
C284 C 0.66811 0.13557 0.36775 0.0
C285 C 0.66431 0.13748 0.3154 0.0
C286 C 0.65149 0.12056 0.289 0.0
C287 C 0.64234 0.10184 0.31641 0.0
C288 C 0.64616 0.09992 0.36862 0.0
C289 C 0.64034 0.17303 0.57702 0.0
C290 C 0.59014 0.13643 0.55683 0.0
C291 C 0.60987 0.14129 0.7522 0.0
C292 C 0.61559 0.13781 0.80664 0.0
C293 C 0.60636 0.11917 0.83419 0.0
C294 C 0.61097 0.11692 0.88619 0.0
C295 C 0.62479 0.13332 0.91186 0.0
C296 C 0.63422 0.15177 0.88404 0.0
C297 C 0.62961 0.15403 0.83222 0.0
C298 C 0.62899 0.08367 0.61531 0.0
C299 C 0.68211 0.12237 0.64795 0.0
O300 O 0.64764 0.10298 0.47656 0.0
O301 O 0.67381 0.13075 0.47473 0.0
O302 O 0.63658 0.15435 0.60025 0.0
O303 O 0.64883 0.1685 0.53216 0.0
O304 O 0.59284 0.13941 0.60627 0.0
O305 O 0.60734 0.1296 0.52574 0.0
O306 O 0.62557 0.15245 0.72504 0.0
O307 O 0.59941 0.12458 0.7273 0.0
O308 O 0.63503 0.10297 0.59882 0.0
O309 O 0.61951 0.08673 0.65991 0.0
O310 O 0.68131 0.12189 0.59736 0.0
O311 O 0.66343 0.12545 0.67722 0.0
H312 H 0.67835 0.14872 0.3867 0.0
H313 H 0.67188 0.15197 0.29545 0.0
H314 H 0.6321 0.08865 0.29757 0.0
H315 H 0.6391 0.0851 0.38834 0.0
H316 H 0.59529 0.10648 0.81583 0.0
H317 H 0.6032 0.10263 0.90653 0.0
H318 H 0.64522 0.16454 0.90231 0.0
H319 H 0.63687 0.16868 0.81227 0.0
Pr320 Pr 0.87868 0.38947 0.86715 0.0
Pr321 Pr 0.85649 0.38802 0.98659 0.0
C322 C 0.89352 0.37613 0.77488 0.0
C323 C 0.88826 0.37878 0.72055 0.0
C324 C 0.87766 0.39874 0.70118 0.0
C325 C 0.87297 0.40067 0.64916 0.0
C326 C 0.87876 0.38264 0.61575 0.0
C327 C 0.88904 0.36257 0.63576 0.0
C328 C 0.89375 0.3607 0.68757 0.0
C329 C 0.87063 0.43353 0.91014 0.0
C330 C 0.82063 0.39199 0.88279 0.0
C331 C 0.84036 0.40082 0.07839 0.0
C332 C 0.84459 0.39681 0.13293 0.0
C333 C 0.82525 0.39387 0.16566 0.0
C334 C 0.82876 0.39131 0.21789 0.0
C335 C 0.85174 0.39171 0.23851 0.0
C336 C 0.87111 0.3943 0.20537 0.0
C337 C 0.86759 0.39676 0.15315 0.0
C338 C 0.8674 0.34356 0.95173 0.0
C339 C 0.91538 0.38794 0.96602 0.0
O340 O 0.87808 0.36449 0.80166 0.0
O341 O 0.9024 0.39391 0.79882 0.0
O342 O 0.86617 0.41393 0.92732 0.0
O343 O 0.87931 0.43095 0.86461 0.0
O344 O 0.8226 0.39278 0.93321 0.0
O345 O 0.83864 0.38958 0.85149 0.0
O346 O 0.85673 0.41209 0.05341 0.0
O347 O 0.83081 0.38404 0.05231 0.0
O348 O 0.86962 0.36223 0.92753 0.0
O349 O 0.85951 0.3479 0.99711 0.0
O350 O 0.91192 0.38417 0.91709 0.0
O351 O 0.89797 0.39122 0.99935 0.0
H352 H 0.87312 0.41283 0.72618 0.0
H353 H 0.86519 0.41642 0.63504 0.0
H354 H 0.89327 0.34816 0.61145 0.0
H355 H 0.9017 0.34506 0.70195 0.0
H356 H 0.80736 0.3938 0.15085 0.0
H357 H 0.81345 0.38896 0.24207 0.0
H358 H 0.88903 0.39497 0.21985 0.0
H359 H 0.88285 0.39896 0.12873 0.0
Pr360 Pr 0.38397 0.1269 0.65737 0.0
Pr361 Pr 0.36002 0.12891 0.55161 0.0
C362 C 0.39675 0.12503 0.75649 0.0
C363 C 0.38848 0.12738 0.81003 0.0
C364 C 0.38272 0.10762 0.83816 0.0
C365 C 0.37712 0.10906 0.88982 0.0
C366 C 0.37721 0.13032 0.91522 0.0
C367 C 0.38266 0.15018 0.88691 0.0
C368 C 0.38827 0.14872 0.83504 0.0
C369 C 0.38366 0.08587 0.60075 0.0
C370 C 0.32565 0.12877 0.65262 0.0
C371 C 0.34649 0.11523 0.45794 0.0
C372 C 0.34952 0.11887 0.40258 0.0
C373 C 0.3513 0.14084 0.3808 0.0
C374 C 0.35366 0.14339 0.32794 0.0
C375 C 0.35418 0.12403 0.2958 0.0
C376 C 0.35269 0.10211 0.31815 0.0
C377 C 0.35039 0.0996 0.37072 0.0
C378 C 0.3648 0.17475 0.58255 0.0
C379 C 0.41841 0.13897 0.56456 0.0
O380 O 0.39951 0.14342 0.72845 0.0
O381 O 0.38901 0.10743 0.7307 0.0
O382 O 0.36626 0.09926 0.60672 0.0
O383 O 0.40236 0.09397 0.62308 0.0
O384 O 0.32653 0.12273 0.60417 0.0
O385 O 0.34486 0.13432 0.67781 0.0
O386 O 0.3643 0.10612 0.48251 0.0
O387 O 0.33491 0.13064 0.48443 0.0
O388 O 0.37154 0.1576 0.60869 0.0
O389 O 0.355 0.16827 0.54046 0.0
O390 O 0.41509 0.14268 0.61326 0.0
O391 O 0.40147 0.13056 0.53514 0.0
H392 H 0.38311 0.09083 0.82053 0.0
H393 H 0.37347 0.09332 0.91019 0.0
H394 H 0.38269 0.16689 0.90486 0.0
H395 H 0.39282 0.16428 0.8148 0.0
H396 H 0.35074 0.15601 0.40452 0.0
H397 H 0.35463 0.16053 0.3122 0.0
H398 H 0.35348 0.08678 0.295 0.0
H399 H 0.3492 0.08247 0.38658 0.0
Pr400 Pr 0.62266 0.62799 0.36603 0.0
Pr401 Pr 0.64741 0.62872 0.48405 0.0
C402 C 0.60896 0.64121 0.27286 0.0
C403 C 0.6144 0.6378 0.21851 0.0
C404 C 0.61527 0.61587 0.19634 0.0
C405 C 0.62023 0.61343 0.1445 0.0
C406 C 0.62455 0.63283 0.11396 0.0
C407 C 0.62383 0.65469 0.13654 0.0
C408 C 0.61877 0.65712 0.18814 0.0
C409 C 0.62888 0.58387 0.41031 0.0
C410 C 0.68118 0.62279 0.37805 0.0
C411 C 0.66243 0.61445 0.57574 0.0
C412 C 0.6579 0.61719 0.63067 0.0
C413 C 0.65769 0.63883 0.65425 0.0
C414 C 0.65373 0.64068 0.70659 0.0
C415 C 0.64979 0.62094 0.73631 0.0
C416 C 0.64993 0.59936 0.71239 0.0
C417 C 0.65397 0.59753 0.66025 0.0
C418 C 0.63973 0.6733 0.44636 0.0
C419 C 0.5887 0.63597 0.46793 0.0
O420 O 0.62492 0.65224 0.29947 0.0
O421 O 0.5986 0.62444 0.29782 0.0
O422 O 0.6348 0.6033 0.42618 0.0
O423 O 0.61914 0.58662 0.36586 0.0
O424 O 0.68019 0.62221 0.42863 0.0
O425 O 0.66263 0.62583 0.34841 0.0
O426 O 0.64615 0.6037 0.54954 0.0
O427 O 0.67228 0.63155 0.5511 0.0
O428 O 0.63498 0.65445 0.42486 0.0
O429 O 0.64901 0.66928 0.4907 0.0
O430 O 0.59145 0.63874 0.4184 0.0
O431 O 0.60602 0.62984 0.49939 0.0
H432 H 0.61214 0.60065 0.21894 0.0
H433 H 0.62089 0.59633 0.12842 0.0
H434 H 0.62673 0.67001 0.11412 0.0
H435 H 0.61814 0.6742 0.20436 0.0
H436 H 0.66056 0.65431 0.63233 0.0
H437 H 0.65349 0.65758 0.72368 0.0
H438 H 0.64731 0.58379 0.73412 0.0
H439 H 0.65416 0.58065 0.64297 0.0
Pr440 Pr 0.12077 0.88796 0.15494 0.0
Pr441 Pr 0.14526 0.88637 0.0544 0.0
C442 C 0.10633 0.88523 0.25313 0.0
C443 C 0.11436 0.88601 0.30713 0.0
C444 C 0.11622 0.90699 0.33333 0.0
C445 C 0.12128 0.90748 0.38546 0.0
C446 C 0.12454 0.887 0.4131 0.0
C447 C 0.12322 0.86605 0.38656 0.0
C448 C 0.11812 0.86557 0.33445 0.0
C449 C 0.1233 0.93056 0.1043 0.0
C450 C 0.17907 0.88882 0.15398 0.0
C451 C 0.15992 0.89239 0.95706 0.0
C452 C 0.15322 0.89113 0.90231 0.0
C453 C 0.15249 0.87007 0.87612 0.0
C454 C 0.14843 0.86941 0.82355 0.0
C455 C 0.14507 0.88978 0.79555 0.0
C456 C 0.1455 0.91079 0.82203 0.0
C457 C 0.14958 0.91145 0.87451 0.0
C458 C 0.1419 0.84298 0.10025 0.0
C459 C 0.08614 0.88034 0.06079 0.0
O460 O 0.11198 0.86733 0.22576 0.0
O461 O 0.10629 0.90426 0.22687 0.0
O462 O 0.14028 0.91652 0.10889 0.0
O463 O 0.10432 0.92273 0.12606 0.0
O464 O 0.17815 0.8955 0.10605 0.0
O465 O 0.15994 0.88172 0.17742 0.0
O466 O 0.15083 0.90881 0.98473 0.0
O467 O 0.16281 0.8733 0.98239 0.0
O468 O 0.12528 0.85762 0.09858 0.0
O469 O 0.16086 0.85074 0.07827 0.0
O470 O 0.08874 0.87523 0.10899 0.0
O471 O 0.10413 0.888 0.03332 0.0
H472 H 0.11328 0.92311 0.31381 0.0
H473 H 0.12249 0.92398 0.40418 0.0
H474 H 0.1253 0.84989 0.40636 0.0
H475 H 0.11651 0.84907 0.31583 0.0
H476 H 0.15541 0.85406 0.89604 0.0
H477 H 0.14794 0.85287 0.80485 0.0
H478 H 0.14338 0.92689 0.802 0.0
H479 H 0.15043 0.92799 0.89319 0.0
Pr480 Pr 0.87938 0.62624 0.15345 0.0
Pr481 Pr 0.85621 0.62916 0.04496 0.0
C482 C 0.89343 0.62651 0.25159 0.0
C483 C 0.8854 0.62715 0.30513 0.0
C484 C 0.89241 0.60938 0.33778 0.0
C485 C 0.88633 0.60981 0.38915 0.0
C486 C 0.8731 0.62811 0.40944 0.0
C487 C 0.8659 0.64589 0.37662 0.0
C488 C 0.87195 0.64541 0.32493 0.0
C489 C 0.87615 0.58488 0.0983 0.0
C490 C 0.82112 0.63009 0.14638 0.0
C491 C 0.84246 0.61606 0.9513 0.0
C492 C 0.8463 0.61967 0.89606 0.0
C493 C 0.83677 0.63867 0.87012 0.0
C494 C 0.83923 0.64064 0.81728 0.0
C495 C 0.8511 0.62357 0.78918 0.0
C496 C 0.86097 0.60486 0.81548 0.0
C497 C 0.85852 0.6029 0.86806 0.0
C498 C 0.86492 0.67443 0.07604 0.0
C499 C 0.91477 0.6359 0.06015 0.0
O500 O 0.89177 0.64513 0.22399 0.0
O501 O 0.88921 0.60775 0.22604 0.0
O502 O 0.86008 0.59991 0.10205 0.0
O503 O 0.89485 0.59109 0.12345 0.0
O504 O 0.82201 0.6254 0.09709 0.0
O505 O 0.84029 0.63336 0.17363 0.0
O506 O 0.85964 0.60617 0.97655 0.0
O507 O 0.83121 0.63179 0.97763 0.0
O508 O 0.86963 0.65658 0.10169 0.0
O509 O 0.85576 0.66905 0.03254 0.0
O510 O 0.91111 0.64028 0.10845 0.0
O511 O 0.89783 0.62778 0.0303 0.0
H512 H 0.90299 0.59523 0.32363 0.0
H513 H 0.89255 0.59601 0.41325 0.0
H514 H 0.85551 0.66014 0.39082 0.0
H515 H 0.86625 0.65937 0.30068 0.0
H516 H 0.82707 0.65182 0.89042 0.0
H517 H 0.83123 0.65519 0.79828 0.0
H518 H 0.87058 0.59158 0.79538 0.0
H519 H 0.86593 0.58797 0.88678 0.0
Pr520 Pr 0.12173 0.12539 0.86768 0.0
Pr521 Pr 0.1468 0.12456 0.97634 0.0
C522 C 0.10833 0.13256 0.77033 0.0
C523 C 0.11604 0.13034 0.71647 0.0
C524 C 0.1166 0.10892 0.69182 0.0
C525 C 0.1217 0.10744 0.63983 0.0
C526 C 0.12633 0.12731 0.61099 0.0
C527 C 0.12636 0.14865 0.63604 0.0
C528 C 0.12119 0.15014 0.68798 0.0
C529 C 0.12268 0.08302 0.9188 0.0
C530 C 0.18059 0.12008 0.8726 0.0
C531 C 0.16054 0.1099 0.06909 0.0
C532 C 0.15674 0.11353 0.1243 0.0
C533 C 0.15835 0.13531 0.14707 0.0
C534 C 0.15505 0.13788 0.19964 0.0
C535 C 0.14997 0.11874 0.23058 0.0
C536 C 0.1484 0.09701 0.2074 0.0
C537 C 0.15175 0.09447 0.15509 0.0
C538 C 0.14055 0.17075 0.94782 0.0
C539 C 0.08838 0.13378 0.96487 0.0
O540 O 0.11856 0.14826 0.79825 0.0
O541 O 0.10323 0.11387 0.79572 0.0
O542 O 0.13967 0.0971 0.91606 0.0
O543 O 0.10444 0.09044 0.89343 0.0
O544 O 0.18028 0.1195 0.92299 0.0
O545 O 0.16127 0.12251 0.84517 0.0
O546 O 0.14311 0.1006 0.04363 0.0
O547 O 0.17204 0.12559 0.04328 0.0
O548 O 0.13433 0.15335 0.92238 0.0
O549 O 0.1507 0.16431 0.98961 0.0
O550 O 0.09178 0.14023 0.91756 0.0
O551 O 0.10535 0.12408 0.99225 0.0
H552 H 0.11268 0.09329 0.71241 0.0
H553 H 0.12186 0.09066 0.62215 0.0
H554 H 0.12955 0.16437 0.61519 0.0
H555 H 0.12065 0.16693 0.70562 0.0
H556 H 0.16212 0.15036 0.12433 0.0
H557 H 0.15617 0.15491 0.21593 0.0
H558 H 0.14495 0.0818 0.22982 0.0
H559 H 0.15058 0.07747 0.13862 0.0
Pr560 Pr 0.62403 0.39166 0.65619 0.0
Pr561 Pr 0.64705 0.38778 0.54886 0.0
C562 C 0.61109 0.39403 0.75499 0.0
C563 C 0.61899 0.39189 0.80852 0.0
C564 C 0.61789 0.41134 0.83987 0.0
C565 C 0.62396 0.40999 0.89116 0.0
C566 C 0.63125 0.38907 0.91282 0.0
C567 C 0.63244 0.36952 0.88139 0.0
C568 C 0.6264 0.37091 0.82974 0.0
C569 C 0.62672 0.43255 0.59916 0.0
C570 C 0.68191 0.38595 0.64934 0.0
C571 C 0.66105 0.40005 0.45468 0.0
C572 C 0.65764 0.39613 0.39949 0.0
C573 C 0.66263 0.37496 0.37607 0.0
C574 C 0.66033 0.37246 0.32326 0.0
C575 C 0.65314 0.39109 0.29277 0.0
C576 C 0.6478 0.41206 0.31666 0.0
C577 C 0.65007 0.41454 0.36917 0.0
C578 C 0.63833 0.34258 0.5807 0.0
C579 C 0.58836 0.38166 0.56397 0.0
O580 O 0.6083 0.37554 0.72737 0.0
O581 O 0.61929 0.41145 0.72921 0.0
O582 O 0.64309 0.41786 0.60373 0.0
O583 O 0.60802 0.42612 0.62403 0.0
O584 O 0.68112 0.39185 0.60077 0.0
O585 O 0.66262 0.38188 0.67565 0.0
O586 O 0.64368 0.41006 0.47907 0.0
O587 O 0.67216 0.38453 0.48183 0.0
O588 O 0.63351 0.36038 0.60656 0.0
O589 O 0.6476 0.34802 0.53733 0.0
O590 O 0.5918 0.37783 0.61259 0.0
O591 O 0.60551 0.38915 0.53385 0.0
H592 H 0.61195 0.42767 0.82479 0.0
H593 H 0.62237 0.42532 0.91415 0.0
H594 H 0.63816 0.35317 0.89663 0.0
H595 H 0.62738 0.35557 0.80662 0.0
H596 H 0.66857 0.36044 0.39836 0.0
H597 H 0.66474 0.3561 0.30619 0.0
H598 H 0.6418 0.42667 0.29473 0.0
H599 H 0.64613 0.43105 0.38613 0.0
Pr600 Pr 0.38241 0.89 0.36796 0.0
Pr601 Pr 0.35845 0.89078 0.4765 0.0
C602 C 0.39525 0.88283 0.27027 0.0
C603 C 0.38741 0.88569 0.21665 0.0
C604 C 0.39312 0.90559 0.18899 0.0
C605 C 0.38765 0.9073 0.13723 0.0
C606 C 0.37649 0.88907 0.11156 0.0
C607 C 0.37042 0.86934 0.13951 0.0
C608 C 0.37584 0.86765 0.19124 0.0
C609 C 0.38195 0.93251 0.41856 0.0
C610 C 0.32374 0.89538 0.37442 0.0
C611 C 0.34521 0.90595 0.56909 0.0
C612 C 0.34892 0.90241 0.6244 0.0
C613 C 0.34228 0.88199 0.64912 0.0
C614 C 0.34499 0.87971 0.70185 0.0
C615 C 0.35433 0.8978 0.73116 0.0
C616 C 0.36121 0.91807 0.70605 0.0
C617 C 0.35847 0.92034 0.65351 0.0
C618 C 0.36554 0.8444 0.45047 0.0
C619 C 0.41636 0.88063 0.46388 0.0
O620 O 0.38436 0.86749 0.29807 0.0
O621 O 0.40136 0.90112 0.296 0.0
O622 O 0.36492 0.91845 0.41639 0.0
O623 O 0.40009 0.92492 0.39304 0.0
O624 O 0.32439 0.89521 0.42476 0.0
O625 O 0.34287 0.89342 0.34628 0.0
O626 O 0.36283 0.9148 0.54333 0.0
O627 O 0.33323 0.89052 0.54352 0.0
O628 O 0.371 0.8615 0.42306 0.0
O629 O 0.35625 0.85127 0.49285 0.0
O630 O 0.41244 0.87454 0.41656 0.0
O631 O 0.39993 0.89089 0.49172 0.0
H632 H 0.40232 0.9197 0.20702 0.0
H633 H 0.3929 0.92265 0.11697 0.0
H634 H 0.36153 0.85508 0.12135 0.0
H635 H 0.37135 0.85197 0.21111 0.0
H636 H 0.33476 0.86785 0.6279 0.0
H637 H 0.33927 0.86393 0.71976 0.0
H638 H 0.36886 0.93223 0.72695 0.0
H639 H 0.3637 0.9363 0.6356 0.0
H640 H 0.1613 0.58883 0.72637 0.0
H641 H 0.12047 0.66187 0.48356 0.0
H642 H 0.1366 0.65879 0.73685 0.0
H643 H 0.14832 0.59294 0.47628 0.0
H644 H 0.12746 0.66198 0.57534 0.0
H645 H 0.15732 0.59072 0.63446 0.0
C646 C 0.15492 0.6046 0.70943 0.0
C647 C 0.14906 0.62361 0.73981 0.0
C648 C 0.13212 0.64687 0.55358 0.0
C649 C 0.14469 0.62598 0.63356 0.0
C650 C 0.12827 0.64684 0.50103 0.0
C651 C 0.13361 0.62729 0.47185 0.0
C652 C 0.14141 0.62722 0.57736 0.0
C653 C 0.14346 0.60826 0.49705 0.0
C654 C 0.15279 0.60571 0.6567 0.0
C655 C 0.14143 0.64373 0.71516 0.0
N656 N 0.14693 0.60869 0.5481 0.0
N657 N 0.13934 0.64434 0.66361 0.0
H658 H 0.66177 0.86726 0.06194 0.0
H659 H 0.61301 0.91238 0.79367 0.0
H660 H 0.60183 0.91271 0.04637 0.0
H661 H 0.67227 0.86611 0.8091 0.0
H662 H 0.60907 0.91321 0.88602 0.0
H663 H 0.66621 0.86704 0.9697 0.0
C664 C 0.64949 0.87718 0.03925 0.0
C665 C 0.63133 0.88999 0.06239 0.0
C666 C 0.62293 0.90285 0.86923 0.0
C667 C 0.63648 0.88992 0.9561 0.0
C668 C 0.62527 0.90244 0.81636 0.0
C669 C 0.64301 0.88914 0.79315 0.0
C670 C 0.63846 0.8899 0.89955 0.0
C671 C 0.65811 0.87637 0.82492 0.0
C672 C 0.65212 0.87711 0.98644 0.0
C673 C 0.61627 0.90279 0.03063 0.0
N674 N 0.65551 0.8771 0.87627 0.0
N675 N 0.61914 0.90237 0.97933 0.0
H676 H 0.3332 0.42476 0.21676 0.0
H677 H 0.39018 0.35682 0.98186 0.0
H678 H 0.37384 0.36247 0.23361 0.0
H679 H 0.34973 0.41933 0.96664 0.0
H680 H 0.383 0.35754 0.0733 0.0
H681 H 0.338 0.42217 0.12499 0.0
C682 C 0.34323 0.41055 0.20126 0.0
C683 C 0.35331 0.39393 0.23338 0.0
C684 C 0.37563 0.37107 0.04995 0.0
C685 C 0.35868 0.39071 0.12746 0.0
C686 C 0.37959 0.3706 0.99753 0.0
C687 C 0.3706 0.38808 0.9661 0.0
C688 C 0.36256 0.38914 0.07149 0.0
C689 C 0.35734 0.40566 0.98916 0.0
C690 C 0.34584 0.40901 0.14865 0.0
C691 C 0.36562 0.37563 0.21059 0.0
N692 N 0.35378 0.40575 0.04025 0.0
N693 N 0.36805 0.37458 0.15918 0.0
H694 H 0.89528 0.16547 0.53747 0.0
H695 H 0.83398 0.09539 0.3112 0.0
H696 H 0.85483 0.10348 0.56037 0.0
H697 H 0.87556 0.15669 0.28859 0.0
H698 H 0.84085 0.09838 0.40241 0.0
H699 H 0.88738 0.163 0.44667 0.0
C700 C 0.88459 0.1514 0.52356 0.0
C701 C 0.87567 0.13469 0.55699 0.0
C702 C 0.84845 0.1112 0.37753 0.0
C703 C 0.86679 0.1316 0.45228 0.0
C704 C 0.84465 0.10945 0.32527 0.0
C705 C 0.85429 0.12575 0.29175 0.0
C706 C 0.86202 0.12941 0.39683 0.0
C707 C 0.86755 0.14383 0.31272 0.0
C708 C 0.8802 0.14993 0.4715 0.0
C709 C 0.86233 0.11663 0.53621 0.0
N710 N 0.87105 0.14512 0.36374 0.0
N711 N 0.85829 0.11558 0.48533 0.0
H712 H 0.11542 0.41544 0.29069 0.0
H713 H 0.15631 0.35953 0.55535 0.0
H714 H 0.16866 0.3625 0.30198 0.0
H715 H 0.10443 0.41366 0.54314 0.0
H716 H 0.16096 0.36011 0.46303 0.0
H717 H 0.1112 0.41486 0.3829 0.0
C718 C 0.12634 0.40373 0.31241 0.0
C719 C 0.14249 0.38903 0.28796 0.0
C720 C 0.14859 0.3719 0.48055 0.0
C721 C 0.13752 0.38814 0.39451 0.0
C722 C 0.14583 0.37151 0.53341 0.0
C723 C 0.12991 0.38656 0.55759 0.0
C724 C 0.13531 0.38739 0.45114 0.0
C725 C 0.11715 0.40193 0.5267 0.0
C726 C 0.12381 0.40334 0.36527 0.0
C727 C 0.15575 0.37397 0.31867 0.0
N728 N 0.12008 0.40189 0.47538 0.0
N729 N 0.15301 0.37396 0.37008 0.0
H730 H 0.83293 0.86174 0.71638 0.0
H731 H 0.89739 0.91832 0.47529 0.0
H732 H 0.88536 0.91537 0.72697 0.0
H733 H 0.84681 0.8631 0.46319 0.0
H734 H 0.89256 0.91776 0.56726 0.0
H735 H 0.83768 0.86179 0.62413 0.0
C736 C 0.8456 0.87341 0.69953 0.0
C737 C 0.85874 0.88859 0.73001 0.0
C738 C 0.88248 0.90577 0.54457 0.0
C739 C 0.86402 0.88895 0.62362 0.0
C740 C 0.88508 0.90619 0.49179 0.0
C741 C 0.87243 0.89079 0.46093 0.0
C742 C 0.86707 0.88984 0.56725 0.0
C743 C 0.85714 0.87516 0.48516 0.0
C744 C 0.84817 0.87353 0.64664 0.0
C745 C 0.87456 0.90357 0.70538 0.0
N746 N 0.85488 0.87512 0.53668 0.0
N747 N 0.87672 0.90336 0.65391 0.0
H748 H 0.34687 0.5877 0.80841 0.0
H749 H 0.38443 0.669 0.04013 0.0
H750 H 0.3673 0.65864 0.79066 0.0
H751 H 0.36585 0.59758 0.05789 0.0
H752 H 0.37733 0.6657 0.94912 0.0
H753 H 0.35317 0.59109 0.89974 0.0
C754 C 0.3528 0.60398 0.82356 0.0
C755 C 0.35663 0.62289 0.79137 0.0
C756 C 0.37479 0.65074 0.97287 0.0
C757 C 0.36365 0.62695 0.89661 0.0
C758 C 0.3787 0.65264 0.02502 0.0
C759 C 0.37569 0.63356 0.05702 0.0
C760 C 0.36779 0.62959 0.95217 0.0
C761 C 0.36867 0.6127 0.0348 0.0
C762 C 0.35627 0.60593 0.8759 0.0
C763 C 0.36386 0.64365 0.81374 0.0
N764 N 0.36494 0.61129 0.98388 0.0
N765 N 0.36717 0.64509 0.8648 0.0
H766 H 0.62491 0.16807 0.98214 0.0
H767 H 0.65289 0.08587 0.21841 0.0
H768 H 0.63396 0.09473 0.96897 0.0
H769 H 0.64194 0.15898 0.23168 0.0
H770 H 0.64638 0.08879 0.1271 0.0
H771 H 0.63187 0.16512 0.07323 0.0
C772 C 0.62852 0.15134 0.99829 0.0
C773 C 0.62891 0.13162 0.96759 0.0
C774 C 0.6454 0.10421 0.14995 0.0
C775 C 0.63664 0.12809 0.07245 0.0
C776 C 0.64898 0.10254 0.20225 0.0
C777 C 0.64788 0.12221 0.23307 0.0
C778 C 0.64069 0.12569 0.12799 0.0
C779 C 0.64322 0.14339 0.20955 0.0
C780 C 0.63235 0.14965 0.05047 0.0
C781 C 0.63323 0.11036 0.99107 0.0
N782 N 0.63977 0.14455 0.15855 0.0
N783 N 0.63696 0.10917 0.042 0.0
H784 H 0.88707 0.36877 0.28923 0.0
H785 H 0.84052 0.40198 0.56686 0.0
H786 H 0.82502 0.41045 0.31545 0.0
H787 H 0.90703 0.3679 0.53768 0.0
H788 H 0.83364 0.40427 0.47534 0.0
H789 H 0.89364 0.367 0.38056 0.0
C790 C 0.87486 0.37765 0.3141 0.0
C791 C 0.8555 0.38986 0.29434 0.0
C792 C 0.84974 0.3963 0.48902 0.0
C793 C 0.86279 0.38764 0.39947 0.0
C794 C 0.85375 0.3951 0.5413 0.0
C795 C 0.87436 0.38464 0.5602 0.0
C796 C 0.86643 0.38695 0.45529 0.0
C797 C 0.8907 0.37575 0.52509 0.0
C798 C 0.87857 0.37654 0.36637 0.0
C799 C 0.84003 0.4006 0.32879 0.0
N800 N 0.88636 0.37708 0.4745 0.0
N801 N 0.84402 0.39926 0.37958 0.0
H802 H 0.3313 0.09907 0.2222 0.0
H803 H 0.3984 0.1579 0.98736 0.0
H804 H 0.38134 0.15441 0.23989 0.0
H805 H 0.3452 0.10524 0.9716 0.0
H806 H 0.39175 0.15786 0.07913 0.0
H807 H 0.33588 0.10172 0.13037 0.0
C808 C 0.34334 0.11176 0.20688 0.0
C809 C 0.3561 0.1264 0.23929 0.0
C810 C 0.38147 0.14638 0.05556 0.0
C811 C 0.36129 0.12969 0.13317 0.0
C812 C 0.38514 0.14649 1.00294 0.0
C813 C 0.37244 0.13147 0.9712 0.0
C814 C 0.36499 0.13112 0.07701 0.0
C815 C 0.35576 0.11686 0.99423 0.0
C816 C 0.34584 0.11335 0.15421 0.0
C817 C 0.37102 0.14283 0.21668 0.0
N818 N 0.35261 0.11701 0.04545 0.0
N819 N 0.3733 0.14393 0.16519 0.0
H820 H 0.65703 0.65621 0.05611 0.0
H821 H 0.61805 0.59696 0.79477 0.0
H822 H 0.60292 0.60419 0.04539 0.0
H823 H 0.67229 0.64888 0.80518 0.0
H824 H 0.61253 0.59917 0.88652 0.0
H825 H 0.66318 0.65351 0.96454 0.0
C826 C 0.64639 0.64424 0.0345 0.0
C827 C 0.62933 0.63048 0.0586 0.0
C828 C 0.62565 0.61009 0.86879 0.0
C829 C 0.63639 0.62721 0.95347 0.0
C830 C 0.62889 0.60877 0.81635 0.0
C831 C 0.64574 0.6227 0.79206 0.0
C832 C 0.63935 0.62543 0.89748 0.0
C833 C 0.65894 0.63797 0.82206 0.0
C834 C 0.64998 0.64265 0.98219 0.0
C835 C 0.6164 0.61499 0.02864 0.0
N836 N 0.6555 0.63888 0.87312 0.0
N837 N 0.62013 0.61385 0.97771 0.0
H838 H 0.15344 0.8592 0.47146 0.0
H839 H 0.11608 0.91705 0.73654 0.0
H840 H 0.10431 0.91568 0.48424 0.0
H841 H 0.16623 0.86137 0.72475 0.0
H842 H 0.11164 0.91668 0.64437 0.0
H843 H 0.15827 0.85952 0.56373 0.0
C844 C 0.14359 0.87165 0.49351 0.0
C845 C 0.1284 0.88744 0.4695 0.0
C846 C 0.12362 0.90452 0.66188 0.0
C847 C 0.13403 0.88797 0.5759 0.0
C848 C 0.12627 0.90478 0.71472 0.0
C849 C 0.14162 0.88925 0.73902 0.0
C850 C 0.13639 0.88861 0.63252 0.0
C851 C 0.15396 0.87351 0.70819 0.0
C852 C 0.14646 0.87188 0.54635 0.0
C853 C 0.11646 0.90336 0.50054 0.0
N854 N 0.15111 0.87364 0.6568 0.0
N855 N 0.11948 0.90316 0.55183 0.0
H856 H 0.84648 0.5884 0.72079 0.0
H857 H 0.87367 0.66508 0.47481 0.0
H858 H 0.85913 0.66138 0.72816 0.0
H859 H 0.85969 0.59228 0.47078 0.0
H860 H 0.86684 0.66475 0.56663 0.0
H861 H 0.8503 0.59006 0.62884 0.0
C862 C 0.85019 0.6048 0.70315 0.0
C863 C 0.8527 0.62475 0.73263 0.0
C864 C 0.86518 0.64887 0.54559 0.0
C865 C 0.85681 0.62683 0.62643 0.0
C866 C 0.86893 0.64907 0.49304 0.0
C867 C 0.86743 0.62864 0.46482 0.0
C868 C 0.85985 0.62811 0.57026 0.0
C869 C 0.86148 0.60838 0.49086 0.0
C870 C 0.85221 0.60576 0.65042 0.0
C871 C 0.85693 0.64557 0.70714 0.0
N872 N 0.85801 0.60864 0.5419 0.0
N873 N 0.85897 0.64605 0.65561 0.0
H874 H 0.10357 0.09965 0.54208 0.0
H875 H 0.17378 0.14669 0.29822 0.0
H876 H 0.15751 0.15191 0.55106 0.0
H877 H 0.11785 0.09636 0.29153 0.0
H878 H 0.16824 0.14917 0.39028 0.0
H879 H 0.10923 0.09801 0.45041 0.0
C880 C 0.11678 0.11066 0.52495 0.0
C881 C 0.13012 0.12589 0.55479 0.0
C882 C 0.15717 0.1376 0.36862 0.0
C883 C 0.1365 0.12431 0.44884 0.0
C884 C 0.16022 0.13627 0.31589 0.0
C885 C 0.14637 0.12118 0.28669 0.0
C886 C 0.1401 0.12378 0.39262 0.0
C887 C 0.12928 0.10794 0.31223 0.0
C888 C 0.11988 0.10984 0.47234 0.0
C889 C 0.14662 0.14005 0.5298 0.0
N890 N 0.12669 0.10953 0.36344 0.0
N891 N 0.14936 0.13889 0.47845 0.0
H892 H 0.63639 0.35489 0.23525 0.0
H893 H 0.65532 0.4206 0.97052 0.0
H894 H 0.66653 0.42263 0.22098 0.0
H895 H 0.62046 0.3549 0.98178 0.0
H896 H 0.66189 0.42007 0.06187 0.0
H897 H 0.63289 0.35297 0.14256 0.0
C898 C 0.64242 0.3693 0.21274 0.0
C899 C 0.65159 0.38905 0.23628 0.0
C900 C 0.65286 0.4057 0.04448 0.0
C901 C 0.64752 0.38698 0.12994 0.0
C902 C 0.649 0.40603 0.99216 0.0
C903 C 0.63706 0.38788 0.96815 0.0
C904 C 0.64477 0.38707 0.07358 0.0
C905 C 0.62984 0.36923 0.99839 0.0
C906 C 0.6403 0.36823 0.15978 0.0
C907 C 0.65893 0.40722 0.20488 0.0
N908 N 0.63366 0.36938 0.04947 0.0
N909 N 0.6567 0.40576 0.15363 0.0
H910 H 0.36162 0.92619 0.05496 0.0
H911 H 0.36739 0.86 0.78795 0.0
H912 H 0.38109 0.85485 0.04011 0.0
H913 H 0.34663 0.93098 0.80377 0.0
H914 H 0.37166 0.85749 0.88014 0.0
H915 H 0.35563 0.92809 0.96321 0.0
C916 C 0.36471 0.91092 0.0325 0.0
C917 C 0.37194 0.89033 0.05567 0.0
C918 C 0.36616 0.87361 0.86344 0.0
C919 C 0.36491 0.89236 0.95001 0.0
C920 C 0.36357 0.87504 0.81068 0.0
C921 C 0.35672 0.89578 0.7876 0.0
C922 C 0.36185 0.89305 0.89372 0.0
C923 C 0.35236 0.91472 0.81942 0.0
C924 C 0.36116 0.91199 0.98 0.0
C925 C 0.37524 0.87104 0.02431 0.0
N926 N 0.35502 0.9129 0.87059 0.0
N927 N 0.37179 0.87255 0.97328 0.0
H928 H 0.16503 0.69696 0.15176 0.0
H929 H 0.10091 0.81746 0.09384 0.0
H930 H 0.10437 0.70239 0.05379 0.0
H931 H 0.17539 0.81145 0.12662 0.0
H932 H 0.0974 0.77534 0.09897 0.0
H933 H 0.16425 0.73891 0.16357 0.0
C934 C 0.15112 0.70694 0.13403 0.0
C935 C 0.1345 0.69624 0.10247 0.0
C936 C 0.11443 0.78331 0.10566 0.0
C937 C 0.13369 0.74419 0.11503 0.0
C938 C 0.11642 0.80733 0.10304 0.0
C939 C 0.13851 0.81798 0.10965 0.0
C940 C 0.13456 0.76986 0.1161 0.0
C941 C 0.15805 0.80395 0.12105 0.0
C942 C 0.15082 0.73088 0.14029 0.0
C943 C 0.11725 0.71001 0.07909 0.0
N944 N 0.15563 0.7807 0.12397 0.0
N945 N 0.11727 0.73325 0.0858 0.0
H946 H 0.56226 0.9087 0.53153 0.0
H947 H 0.44457 0.84402 0.44641 0.0
H948 H 0.55955 0.84467 0.44995 0.0
H949 H 0.44308 0.90889 0.52493 0.0
H950 H 0.48668 0.84074 0.46411 0.0
H951 H 0.51917 0.90611 0.54573 0.0
C952 C 0.55271 0.89378 0.51806 0.0
C953 C 0.5643 0.87693 0.48926 0.0
C954 C 0.47723 0.85561 0.47823 0.0
C955 C 0.51537 0.87397 0.50465 0.0
C956 C 0.45313 0.85743 0.46818 0.0
C957 C 0.44045 0.87684 0.48384 0.0
C958 C 0.48902 0.8736 0.50317 0.0
C959 C 0.45232 0.89364 0.51225 0.0
C960 C 0.52814 0.89239 0.52576 0.0
C961 C 0.55118 0.85811 0.47197 0.0
N962 N 0.47613 0.89188 0.52019 0.0
N963 N 0.52747 0.85726 0.47951 0.0
H964 H 0.32679 0.317 0.58164 0.0
H965 H 0.40108 0.20071 0.62541 0.0
H966 H 0.40159 0.31873 0.61249 0.0
H967 H 0.32916 0.20499 0.57216 0.0
H968 H 0.4014 0.24305 0.63551 0.0
H969 H 0.32685 0.27562 0.59454 0.0
C970 C 0.34322 0.30863 0.5921 0.0
C971 C 0.36414 0.32136 0.59633 0.0
C972 C 0.38547 0.23462 0.62243 0.0
C973 C 0.36467 0.27334 0.6094 0.0
C974 C 0.38522 0.21047 0.6171 0.0
C975 C 0.36501 0.19933 0.59807 0.0
C976 C 0.36524 0.24753 0.60926 0.0
C977 C 0.34512 0.21283 0.58689 0.0
C978 C 0.34332 0.28489 0.59913 0.0
C979 C 0.38499 0.30955 0.60956 0.0
N980 N 0.34577 0.236 0.59258 0.0
N981 N 0.38482 0.28613 0.61498 0.0
H982 H 0.94264 0.17111 0.97323 0.0
H983 H 0.06326 0.1021 0.02002 0.0
H984 H 0.94411 0.09885 1.00764 0.0
H985 H 0.058 0.16932 0.95262 0.0
H986 H 0.02031 0.10289 0.03652 0.0
H987 H 0.98526 0.17311 0.98834 0.0
C988 C 0.95197 0.15577 0.98522 0.0
C989 C 0.94001 0.13483 0.98945 0.0
C990 C 0.02869 0.11764 0.01912 0.0
C991 C 0.98892 0.13669 1.00492 0.0
C992 C 0.05317 0.11728 1.01012 0.0
C993 C 0.06406 0.13569 0.9849 0.0
C994 C 0.01525 0.13669 1.00335 0.0
C995 C 0.05021 0.15476 0.97196 0.0
C996 C 0.9763 0.15684 0.99348 0.0
C997 C 0.9528 0.11536 1.0046 0.0
N998 N 0.02657 0.15472 0.98111 0.0
N999 N 0.97672 0.11665 1.01103 0.0
H1000 H 0.1042 0.31554 0.91383 0.0
H1001 H 0.17814 0.19897 0.94527 0.0
H1002 H 0.18025 0.31136 0.92359 0.0
H1003 H 0.10328 0.19803 0.91483 0.0
H1004 H 0.1786 0.24032 0.93156 0.0
H1005 H 0.10253 0.27321 0.9088 0.0
C1006 C 0.12053 0.30578 0.91422 0.0
C1007 C 0.14241 0.31705 0.91961 0.0
C1008 C 0.16202 0.23123 0.92719 0.0
C1009 C 0.14063 0.2687 0.91411 0.0
C1010 C 0.1618 0.20753 0.93484 0.0
C1011 C 0.14072 0.19504 0.93073 0.0
C1012 C 0.14081 0.24294 0.91656 0.0
C1013 C 0.11999 0.20703 0.91762 0.0
C1014 C 0.11957 0.28162 0.91146 0.0
C1015 C 0.16297 0.3035 0.92 0.0
N1016 N 0.12047 0.2304 0.91167 0.0
N1017 N 0.16155 0.28023 0.91769 0.0
H1018 H 0.05756 0.84374 0.0721 0.0
H1019 H 0.9414 0.91274 0.99401 0.0
H1020 H 0.06053 0.9105 1.002 0.0
H1021 H 0.94278 0.84679 0.06795 0.0
H1022 H 0.98444 0.90959 0.97931 0.0
H1023 H 0.01552 0.84159 0.05282 0.0
C1024 C 0.04933 0.85778 0.05165 0.0
C1025 C 0.06239 0.87734 0.03878 0.0
C1026 C 0.97518 0.89559 0.99762 0.0
C1027 C 0.0139 0.87547 0.01802 0.0
C1028 C 0.95065 0.89731 1.00559 0.0
C1029 C 0.93872 0.88002 0.03237 0.0
C1030 C 0.98757 0.8764 0.01647 0.0
C1031 C 0.95143 0.86054 0.0474 0.0
C1032 C 0.02527 0.85663 0.04078 0.0
C1033 C 0.05098 0.89508 1.01231 0.0
N1034 N 0.97512 0.85936 0.03967 0.0
N1035 N 0.02718 0.89395 1.00365 0.0
H1036 H 0.39277 0.70227 0.51005 0.0
H1037 H 0.36327 0.81923 0.36038 0.0
H1038 H 0.35508 0.70054 0.36826 0.0
H1039 H 0.37945 0.81321 0.51946 0.0
H1040 H 0.36758 0.77696 0.35212 0.0
H1041 H 0.39687 0.74373 0.50203 0.0
C1042 C 0.38572 0.71066 0.47663 0.0
C1043 C 0.37358 0.69795 0.43991 0.0
C1044 C 0.37046 0.78503 0.38858 0.0
C1045 C 0.37742 0.74597 0.43108 0.0
C1046 C 0.36816 0.80912 0.39322 0.0
C1047 C 0.37098 0.81975 0.44076 0.0
C1048 C 0.37612 0.77172 0.43159 0.0
C1049 C 0.37701 0.80581 0.48216 0.0
C1050 C 0.38789 0.73442 0.47217 0.0
C1051 C 0.36474 0.70974 0.39729 0.0
N1052 N 0.37939 0.78275 0.47658 0.0
N1053 N 0.36651 0.7332 0.39433 0.0
H1054 H 0.56381 0.17406 0.57511 0.0
H1055 H 0.44286 0.11364 0.49356 0.0
H1056 H 0.562 0.10932 0.49623 0.0
H1057 H 0.44905 0.17238 0.59206 0.0
H1058 H 0.48561 0.11616 0.47569 0.0
H1059 H 0.52141 0.1784 0.56144 0.0
C1060 C 0.55446 0.16098 0.55384 0.0
C1061 C 0.56627 0.14126 0.53702 0.0
C1062 C 0.47747 0.12874 0.50038 0.0
C1063 C 0.51746 0.14566 0.52262 0.0
C1064 C 0.45309 0.12741 0.51029 0.0
C1065 C 0.44255 0.14271 0.54468 0.0
C1066 C 0.49114 0.14566 0.52469 0.0
C1067 C 0.45656 0.16009 0.56576 0.0
C1068 C 0.53021 0.16338 0.54626 0.0
C1069 C 0.55344 0.12482 0.5096 0.0
N1070 N 0.48009 0.16097 0.55574 0.0
N1071 N 0.52953 0.12715 0.50406 0.0
H1072 H 0.89959 0.20219 0.99876 0.0
H1073 H 0.85401 0.3185 0.86694 0.0
H1074 H 0.85219 0.20136 0.87109 0.0
H1075 H 0.89534 0.31449 1.00374 0.0
H1076 H 0.85859 0.2765 0.85618 0.0
H1077 H 0.90428 0.24359 0.98877 0.0
C1078 C 0.89063 0.21072 0.96768 0.0
C1079 C 0.87574 0.19827 0.9354 0.0
C1080 C 0.8671 0.28493 0.88788 0.0
C1081 C 0.88012 0.24624 0.9248 0.0
C1082 C 0.86471 0.30892 0.89368 0.0
C1083 C 0.87453 0.32001 0.93606 0.0
C1084 C 0.87951 0.27207 0.92463 0.0
C1085 C 0.88762 0.30669 0.97035 0.0
C1086 C 0.89311 0.23447 0.96219 0.0
C1087 C 0.86418 0.21029 0.89628 0.0
N1088 N 0.88963 0.2836 0.96402 0.0
N1089 N 0.86633 0.23367 0.89249 0.0
H1090 H 0.60352 0.81817 0.42397 0.0
H1091 H 0.6732 0.69811 0.39712 0.0
H1092 H 0.67922 0.812 0.40873 0.0
H1093 H 0.60181 0.70245 0.45329 0.0
H1094 H 0.67306 0.73975 0.38287 0.0
H1095 H 0.6002 0.77605 0.41792 0.0
C1096 C 0.61939 0.80802 0.41847 0.0
C1097 C 0.64171 0.81866 0.41705 0.0
C1098 C 0.65722 0.73161 0.39735 0.0
C1099 C 0.63804 0.77045 0.40994 0.0
C1100 C 0.65721 0.70779 0.40486 0.0
C1101 C 0.63732 0.69679 0.4253 0.0
C1102 C 0.63724 0.7447 0.41092 0.0
C1103 C 0.61732 0.71024 0.43634 0.0
C1104 C 0.61749 0.78397 0.4153 0.0
C1105 C 0.66167 0.80457 0.41026 0.0
N1106 N 0.61781 0.73349 0.42929 0.0
N1107 N 0.65937 0.78133 0.40707 0.0
H1108 H 0.8468 0.69811 0.1574 0.0
H1109 H 0.9008 0.82008 0.07642 0.0
H1110 H 0.89148 0.70601 0.02622 0.0
H1111 H 0.82901 0.8132 0.12949 0.0
H1112 H 0.90512 0.77798 0.08001 0.0
H1113 H 0.8478 0.74015 0.16983 0.0
C1114 C 0.85741 0.70862 0.13224 0.0
C1115 C 0.8693 0.69862 0.09107 0.0
C1116 C 0.88857 0.78577 0.09167 0.0
C1117 C 0.87056 0.74648 0.105 0.0
C1118 C 0.88615 0.80976 0.08995 0.0
C1119 C 0.86449 0.82014 0.10264 0.0
C1120 C 0.86943 0.77209 0.10754 0.0
C1121 C 0.84598 0.80588 0.11929 0.0
C1122 C 0.85778 0.73257 0.139 0.0
C1123 C 0.88227 0.71307 0.05871 0.0
N1124 N 0.84887 0.78264 0.1214 0.0
N1125 N 0.88264 0.73621 0.06641 0.0
H1126 H 0.65376 0.19835 0.66124 0.0
H1127 H 0.61104 0.3144 0.52505 0.0
H1128 H 0.61244 0.2019 0.52435 0.0
H1129 H 0.65255 0.31557 0.66185 0.0
H1130 H 0.60672 0.27293 0.53335 0.0
H1131 H 0.64926 0.24038 0.67126 0.0
C1132 C 0.64309 0.20785 0.6343 0.0
C1133 C 0.63326 0.19663 0.59211 0.0
C1134 C 0.61652 0.28211 0.56219 0.0
C1135 C 0.62842 0.24461 0.60262 0.0
C1136 C 0.61885 0.30589 0.55756 0.0
C1137 C 0.63194 0.31847 0.59303 0.0
C1138 C 0.6279 0.27043 0.60204 0.0
C1139 C 0.64198 0.30651 0.63408 0.0
C1140 C 0.64073 0.23186 0.63969 0.0
C1141 C 0.6202 0.20983 0.55756 0.0
N1142 N 0.64005 0.28309 0.63712 0.0
N1143 N 0.61828 0.23296 0.56343 0.0
H1144 H 0.95117 0.4055 0.91114 0.0
H1145 H 0.06622 0.40539 0.03994 0.0
H1146 H 0.93683 0.37338 0.05545 0.0
H1147 H 0.05251 0.34958 0.93651 0.0
H1148 H 0.02322 0.40838 0.056 0.0
H1149 H 0.99347 0.40243 0.92782 0.0
C1150 C 0.95692 0.39809 0.94679 0.0
C1151 C 0.94047 0.38937 0.98171 0.0
C1152 C 0.0299 0.39498 0.03137 0.0
C1153 C 0.98891 0.38609 1.00085 0.0
C1154 C 0.05432 0.39326 0.02211 0.0
C1155 C 0.06285 0.37742 0.98629 0.0
C1156 C 0.01426 0.38064 1.00485 0.0
C1157 C 0.04665 0.36227 0.9638 0.0
C1158 C 0.98102 0.39649 0.95622 0.0
C1159 C 0.94899 0.38025 0.02759 0.0
N1160 N 0.02312 0.36458 0.97261 0.0
N1161 N 0.97285 0.3784 0.03559 0.0
H1162 H 0.4423 0.60862 0.53247 0.0
H1163 H 0.56076 0.67227 0.44724 0.0
H1164 H 0.44572 0.67117 0.44535 0.0
H1165 H 0.56167 0.60863 0.53053 0.0
H1166 H 0.51843 0.67564 0.46271 0.0
H1167 H 0.48525 0.61155 0.54812 0.0
C1168 C 0.45197 0.62324 0.51778 0.0
C1169 C 0.4406 0.63949 0.4869 0.0
C1170 C 0.52779 0.66106 0.47846 0.0
C1171 C 0.48942 0.64289 0.50423 0.0
C1172 C 0.55201 0.65921 0.46976 0.0
C1173 C 0.56461 0.64012 0.48749 0.0
C1174 C 0.51579 0.64338 0.50409 0.0
C1175 C 0.5525 0.62367 0.51646 0.0
C1176 C 0.47646 0.62484 0.52641 0.0
C1177 C 0.45389 0.65805 0.46862 0.0
N1178 N 0.52859 0.62543 0.52308 0.0
N1179 N 0.47752 0.6591 0.4771 0.0
H1180 H 0.4436 0.34456 0.57538 0.0
H1181 H 0.5632 0.40829 0.49644 0.0
H1182 H 0.44385 0.41001 0.49924 0.0
H1183 H 0.55837 0.34749 0.58909 0.0
H1184 H 0.52036 0.4055 0.47934 0.0
H1185 H 0.48606 0.34126 0.56119 0.0
C1186 C 0.45263 0.35803 0.55464 0.0
C1187 C 0.44034 0.37761 0.53867 0.0
C1188 C 0.52882 0.39255 0.50256 0.0
C1189 C 0.48922 0.37443 0.52378 0.0
C1190 C 0.55323 0.39406 0.51203 0.0
C1191 C 0.56415 0.3782 0.54457 0.0
C1192 C 0.51554 0.37491 0.52542 0.0
C1193 C 0.55052 0.36021 0.56427 0.0
C1194 C 0.47691 0.35623 0.54676 0.0
C1195 C 0.45278 0.39459 0.51191 0.0
N1196 N 0.52698 0.35916 0.55468 0.0
N1197 N 0.47672 0.39285 0.50613 0.0
H1198 H 0.05885 0.67146 0.08749 0.0
H1199 H 0.94116 0.60846 0.99628 0.0
H1200 H 0.06043 0.60835 1.00236 0.0
H1201 H 0.94379 0.67108 0.08309 0.0
H1202 H 0.98428 0.61119 0.9828 0.0
H1203 H 0.01669 0.675 0.07037 0.0
C1204 C 0.05029 0.65853 0.06433 0.0
C1205 C 0.063 0.63953 0.04656 0.0
C1206 C 0.9753 0.62457 1.00384 0.0
C1207 C 0.0144 0.643 0.02796 0.0
C1208 C 0.95071 0.62309 1.01119 0.0
C1209 C 0.93907 0.63947 0.04122 0.0
C1210 C 0.98805 0.64262 0.0265 0.0
C1211 C 0.95219 0.65796 0.06019 0.0
C1212 C 0.02616 0.66049 0.05464 0.0
C1213 C 0.05115 0.62329 0.01657 0.0
N1214 N 0.97592 0.6589 0.05293 0.0
N1215 N 0.02733 0.62514 1.00898 0.0
H1216 H 0.16248 0.56127 0.06132 0.0
H1217 H 0.08652 0.45756 0.94307 0.0
H1218 H 0.08691 0.55439 0.07758 0.0
H1219 H 0.16236 0.45364 0.95854 0.0
H1220 H 0.08697 0.49484 0.98553 0.0
H1221 H 0.1635 0.52396 0.0171 0.0
C1222 C 0.14611 0.55198 0.05548 0.0
C1223 C 0.12457 0.56101 0.0734 0.0
C1224 C 0.10357 0.48591 0.97974 0.0
C1225 C 0.12558 0.51832 0.02253 0.0
C1226 C 0.10333 0.46457 0.9553 0.0
C1227 C 0.12443 0.45236 0.94706 0.0
C1228 C 0.12512 0.49549 0.99595 0.0
C1229 C 0.14565 0.46241 0.96406 0.0
C1230 C 0.14671 0.53064 0.03037 0.0
C1231 C 0.10393 0.54816 0.06467 0.0
N1232 N 0.14548 0.48339 0.98747 0.0
N1233 N 0.10495 0.52764 0.0399 0.0
H1234 H 0.72565 0.87367 0.39813 0.0
H1235 H 0.78079 0.916 0.13223 0.0
H1236 H 0.6884 0.91774 0.29388 0.0
H1237 H 0.81169 0.86341 0.22665 0.0
H1238 H 0.74754 0.91876 0.19243 0.0
H1239 H 0.7593 0.87268 0.3389 0.0
C1240 C 0.72486 0.88362 0.36345 0.0
C1241 C 0.70439 0.89591 0.35091 0.0
C1242 C 0.76157 0.90653 0.19967 0.0
C1243 C 0.74238 0.89457 0.28257 0.0
C1244 C 0.78039 0.90481 0.16504 0.0
C1245 C 0.79908 0.88955 0.17449 0.0
C1246 C 0.76154 0.89289 0.2439 0.0
C1247 C 0.7978 0.87562 0.21803 0.0
C1248 C 0.74388 0.88283 0.32928 0.0
C1249 C 0.70396 0.90807 0.30487 0.0
N1250 N 0.77951 0.87771 0.25109 0.0
N1251 N 0.7226 0.90707 0.27236 0.0
H1252 H 0.3469 0.44884 0.53083 0.0
H1253 H 0.39378 0.57742 0.50745 0.0
H1254 H 0.41129 0.47099 0.60339 0.0
H1255 H 0.36136 0.54429 0.37926 0.0
H1256 H 0.39351 0.54063 0.55318 0.0
H1257 H 0.34566 0.4854 0.48385 0.0
C1258 C 0.36083 0.4613 0.53677 0.0
C1259 C 0.37947 0.45657 0.57061 0.0
C1260 C 0.38637 0.5414 0.51511 0.0
C1261 C 0.37758 0.4989 0.51838 0.0
C1262 C 0.3863 0.56243 0.48924 0.0
C1263 C 0.37726 0.56398 0.43992 0.0
C1264 C 0.37716 0.52164 0.4917 0.0
C1265 C 0.36829 0.54386 0.41752 0.0
C1266 C 0.36006 0.48218 0.50999 0.0
C1267 C 0.39671 0.4737 0.57744 0.0
N1268 N 0.36832 0.52355 0.44365 0.0
N1269 N 0.39523 0.49408 0.55205 0.0
H1270 H 0.7826 0.10481 0.89397 0.0
H1271 H 0.72556 0.14135 0.62569 0.0
H1272 H 0.81339 0.1543 0.79163 0.0
H1273 H 0.68952 0.09889 0.73511 0.0
H1274 H 0.75971 0.14339 0.68328 0.0
H1275 H 0.74884 0.10088 0.83547 0.0
C1276 C 0.78206 0.11513 0.85981 0.0
C1277 C 0.80087 0.12983 0.84766 0.0
C1278 C 0.74442 0.1334 0.69443 0.0
C1279 C 0.76278 0.12508 0.78008 0.0
C1280 C 0.7251 0.13199 0.66118 0.0
C1281 C 0.70475 0.11993 0.67565 0.0
C1282 C 0.74336 0.12255 0.74224 0.0
C1283 C 0.70488 0.10846 0.72262 0.0
C1284 C 0.76296 0.11271 0.82611 0.0
C1285 C 0.7994 0.14257 0.80239 0.0
N1286 N 0.72378 0.11013 0.75427 0.0
N1287 N 0.78086 0.13981 0.7703 0.0
H1288 H 0.84176 0.57117 0.03013 0.0
H1289 H 0.885 0.44127 1.00759 0.0
H1290 H 0.90521 0.54734 0.10412 0.0
H1291 H 0.85541 0.47595 0.87811 0.0
H1292 H 0.88538 0.47791 0.05395 0.0
H1293 H 0.83966 0.53451 0.98361 0.0
C1294 C 0.85527 0.5583 0.03655 0.0
C1295 C 0.87391 0.56256 0.07061 0.0
C1296 C 0.87861 0.47747 0.01554 0.0
C1297 C 0.87106 0.52022 0.01888 0.0
C1298 C 0.87814 0.45652 0.9893 0.0
C1299 C 0.86985 0.45548 0.93918 0.0
C1300 C 0.87027 0.49757 0.99199 0.0
C1301 C 0.86188 0.47598 0.91675 0.0
C1302 C 0.85402 0.53738 1.01003 0.0
C1303 C 0.89064 0.54497 0.07798 0.0
N1304 N 0.86205 0.49612 0.9434 0.0
N1305 N 0.88871 0.52459 0.0528 0.0
H1306 H 0.18672 0.10054 0.78016 0.0
H1307 H 0.31706 0.15057 0.74194 0.0
H1308 H 0.22508 0.13626 0.89737 0.0
H1309 H 0.28331 0.10646 0.63218 0.0
H1310 H 0.28278 0.14691 0.797 0.0
H1311 H 0.22142 0.10276 0.72527 0.0
C1312 C 0.20261 0.10864 0.79462 0.0
C1313 C 0.203 0.11824 0.84354 0.0
C1314 C 0.28277 0.13801 0.76094 0.0
C1315 C 0.24279 0.12124 0.78011 0.0
C1316 C 0.30235 0.14015 0.72914 0.0
C1317 C 0.30323 0.12865 0.68223 0.0
C1318 C 0.26366 0.12427 0.74607 0.0
C1319 C 0.28343 0.11567 0.66782 0.0
C1320 C 0.22239 0.10995 0.76307 0.0
C1321 C 0.22407 0.12845 0.86019 0.0
N1322 N 0.26449 0.11375 0.69975 0.0
N1323 N 0.24305 0.12989 0.82831 0.0
H1324 H 0.61499 0.57596 0.50811 0.0
H1325 H 0.66053 0.44662 0.52967 0.0
H1326 H 0.6445 0.54168 0.378 0.0
H1327 H 0.59737 0.46975 0.60596 0.0
H1328 H 0.66183 0.48332 0.48301 0.0
H1329 H 0.6156 0.53935 0.55471 0.0
C1330 C 0.62201 0.5608 0.4897 0.0
C1331 C 0.62999 0.56193 0.43936 0.0
C1332 C 0.64771 0.48029 0.51 0.0
C1333 C 0.63073 0.5199 0.49241 0.0
C1334 C 0.64694 0.45935 0.53662 0.0
C1335 C 0.62861 0.45489 0.57137 0.0
C1336 C 0.63051 0.49726 0.51943 0.0
C1337 C 0.61171 0.47228 0.5793 0.0
C1338 C 0.62212 0.53987 0.51609 0.0
C1339 C 0.63823 0.54156 0.4168 0.0
N1340 N 0.61319 0.49267 0.554 0.0
N1341 N 0.63862 0.52144 0.44357 0.0
H1342 H 0.317 0.91756 0.28525 0.0
H1343 H 0.18777 0.86601 0.24185 0.0
H1344 H 0.27957 0.87808 0.39799 0.0
H1345 H 0.22062 0.91306 0.13672 0.0
H1346 H 0.22174 0.86949 0.29767 0.0
H1347 H 0.28212 0.91646 0.23078 0.0
C1348 C 0.30127 0.90887 0.29883 0.0
C1349 C 0.30119 0.89784 0.34627 0.0
C1350 C 0.22161 0.8791 0.2625 0.0
C1351 C 0.26124 0.89614 0.28333 0.0
C1352 C 0.2022 0.87709 0.23028 0.0
C1353 C 0.2012 0.8894 0.1844 0.0
C1354 C 0.24041 0.89354 0.2491 0.0
C1355 C 0.22063 0.9032 0.17153 0.0
C1356 C 0.28138 0.9082 0.26754 0.0
C1357 C 0.28033 0.88695 0.36194 0.0
N1358 N 0.23943 0.90496 0.20384 0.0
N1359 N 0.26126 0.88615 0.33027 0.0
H1360 H 0.59662 0.96884 0.41741 0.0
H1361 H 0.64364 0.04172 0.6505 0.0
H1362 H 0.6584 0.94672 0.49983 0.0
H1363 H 0.61619 0.07485 0.51695 0.0
H1364 H 0.64442 1.00495 0.60411 0.0
H1365 H 0.59868 1.00608 0.46084 0.0
C1366 C 0.61059 0.97175 0.44477 0.0
C1367 C 0.62727 0.95445 0.45513 0.0
C1368 C 0.63842 0.02032 0.58487 0.0
C1369 C 0.62939 0.99706 0.50598 0.0
C1370 C 0.6379 0.04126 0.61133 0.0
C1371 C 0.63022 0.06145 0.58726 0.0
C1372 C 0.63038 0.01934 0.53444 0.0
C1373 C 0.62278 0.05983 0.53654 0.0
C1374 C 0.61178 0.99307 0.46944 0.0
C1375 C 0.64503 0.95938 0.49091 0.0
N1376 N 0.62276 0.03916 0.51207 0.0
N1377 N 0.64544 0.98006 0.5155 0.0
H1378 H 0.2219 0.41272 0.89291 0.0
H1379 H 0.27922 0.38024 0.6222 0.0
H1380 H 0.18901 0.36803 0.78301 0.0
H1381 H 0.31717 0.416 0.73997 0.0
H1382 H 0.2443 0.37889 0.67791 0.0
H1383 H 0.2562 0.41644 0.83578 0.0
C1384 C 0.22195 0.40356 0.85718 0.0
C1385 C 0.20246 0.39015 0.84284 0.0
C1386 C 0.26023 0.38722 0.69135 0.0
C1387 C 0.24136 0.39454 0.77701 0.0
C1388 C 0.28004 0.38818 0.65929 0.0
C1389 C 0.3011 0.39817 0.6765 0.0
C1390 C 0.26149 0.3965 0.7407 0.0
C1391 C 0.30131 0.40795 0.7253 0.0
C1392 C 0.24143 0.40578 0.82439 0.0
C1393 C 0.20347 0.37876 0.79574 0.0
N1394 N 0.28191 0.40682 0.75565 0.0
N1395 N 0.22244 0.38128 0.76465 0.0
H1396 H 0.84084 0.94817 0.02549 0.0
H1397 H 0.88715 0.07755 1.00487 0.0
H1398 H 0.90404 0.97103 0.10164 0.0
H1399 H 0.85565 0.04397 0.87622 0.0
H1400 H 0.88634 0.0409 0.05136 0.0
H1401 H 0.83916 0.98519 0.98016 0.0
C1402 C 0.85433 0.96093 0.03278 0.0
C1403 C 0.87279 0.95629 0.06708 0.0
C1404 C 0.87938 0.04159 0.01313 0.0
C1405 C 0.87051 0.99902 0.01649 0.0
C1406 C 0.87958 0.06258 0.98685 0.0
C1407 C 0.87104 0.06394 0.93703 0.0
C1408 C 0.87023 0.02178 0.98978 0.0
C1409 C 0.86224 0.04371 0.91477 0.0
C1410 C 0.85335 0.98206 1.00688 0.0
C1411 C 0.88959 0.97371 0.07536 0.0
N1412 N 0.86185 0.02355 0.94137 0.0
N1413 N 0.88795 0.99425 0.05069 0.0
H1414 H 0.22279 0.60625 0.13262 0.0
H1415 H 0.27919 0.64029 0.40292 0.0
H1416 H 0.18792 0.64895 0.24369 0.0
H1417 H 0.31701 0.603 0.28711 0.0
H1418 H 0.24425 0.64109 0.34732 0.0
H1419 H 0.25725 0.60366 0.1894 0.0
C1420 C 0.22249 0.61531 0.16847 0.0
C1421 C 0.20238 0.6277 0.18341 0.0
C1422 C 0.26016 0.63256 0.33429 0.0
C1423 C 0.24141 0.62453 0.24891 0.0
C1424 C 0.27997 0.63191 0.3663 0.0
C1425 C 0.301 0.62174 0.34943 0.0
C1426 C 0.26146 0.62283 0.28536 0.0
C1427 C 0.30118 0.61128 0.30134 0.0
C1428 C 0.24204 0.61367 0.20112 0.0
C1429 C 0.20291 0.63896 0.23066 0.0
N1430 N 0.28181 0.61219 0.27097 0.0
N1431 N 0.22197 0.63702 0.26165 0.0
H1432 H 0.34385 0.95446 0.46285 0.0
H1433 H 0.4211 0.05883 0.57344 0.0
H1434 H 0.41873 0.96203 0.43635 0.0
H1435 H 0.345 0.06191 0.56408 0.0
H1436 H 0.42036 0.02186 0.52933 0.0
H1437 H 0.34363 0.99193 0.5061 0.0
C1438 C 0.36025 0.96397 0.46615 0.0
C1439 C 0.38134 0.95505 0.44571 0.0
C1440 C 0.40379 0.03058 0.53677 0.0
C1441 C 0.38125 0.99798 0.49563 0.0
C1442 C 0.40419 0.05173 0.56209 0.0
C1443 C 0.38308 0.06357 0.57263 0.0
C1444 C 0.38207 0.02081 0.52215 0.0
C1445 C 0.36172 0.05344 0.55677 0.0
C1446 C 0.3601 0.98541 0.49074 0.0
C1447 C 0.40203 0.96819 0.45128 0.0
N1448 N 0.36174 0.03263 0.53267 0.0
N1449 N 0.40148 0.98882 0.47575 0.0
H1450 H 0.81039 0.65852 0.22403 0.0
H1451 H 0.69021 0.59443 0.29937 0.0
H1452 H 0.78128 0.60286 0.13633 0.0
H1453 H 0.72266 0.6467 0.3915 0.0
H1454 H 0.7235 0.59658 0.24024 0.0
H1455 H 0.77758 0.65525 0.2836 0.0
C1456 C 0.79681 0.6458 0.21687 0.0
C1457 C 0.79856 0.63094 0.17503 0.0
C1458 C 0.72358 0.60738 0.27365 0.0
C1459 C 0.76104 0.62671 0.24422 0.0
C1460 C 0.70472 0.60599 0.30773 0.0
C1461 C 0.70386 0.62021 0.35069 0.0
C1462 C 0.74165 0.62344 0.28201 0.0
C1463 C 0.72287 0.63513 0.35938 0.0
C1464 C 0.77817 0.64381 0.25125 0.0
C1465 C 0.78047 0.61482 0.1677 0.0
N1466 N 0.74088 0.63652 0.32502 0.0
N1467 N 0.76255 0.613 0.20224 0.0
H1468 H 0.08551 0.05478 0.94083 0.0
H1469 H 0.16238 0.95337 0.0658 0.0
H1470 H 0.16095 0.06051 0.96138 0.0
H1471 H 0.08663 0.95917 0.08079 0.0
H1472 H 0.16293 0.99071 0.02168 0.0
H1473 H 0.08618 0.01808 0.98599 0.0
C1474 C 0.10226 0.0483 0.95481 0.0
C1475 C 0.1232 0.0608 0.94713 0.0
C1476 C 0.14622 0.98381 0.03476 0.0
C1477 C 0.12417 0.01838 0.99891 0.0
C1478 C 0.14588 0.96246 0.05985 0.0
C1479 C 0.12442 0.95309 0.07725 0.0
C1480 C 0.1249 0.99577 0.02632 0.0
C1481 C 0.10361 0.96569 0.06831 0.0
C1482 C 0.10263 0.02731 0.98076 0.0
C1483 C 0.14436 0.05148 0.9664 0.0
N1484 N 0.10436 0.98619 0.04342 0.0
N1485 N 0.14434 0.03081 0.99108 0.0
H1486 H 0.69317 0.35557 0.72304 0.0
H1487 H 0.80835 0.42405 0.81401 0.0
H1488 H 0.72072 0.41461 0.64411 0.0
H1489 H 0.78172 0.36397 0.89014 0.0
H1490 H 0.77525 0.42218 0.75441 0.0
H1491 H 0.72548 0.3583 0.78405 0.0
C1492 C 0.70634 0.36891 0.71805 0.0
C1493 C 0.70433 0.38485 0.67827 0.0
C1494 C 0.77636 0.40958 0.78451 0.0
C1495 C 0.74113 0.38849 0.74919 0.0
C1496 C 0.79506 0.41083 0.81898 0.0
C1497 C 0.79748 0.39437 0.85751 0.0
C1498 C 0.76009 0.39147 0.788 0.0
C1499 C 0.78016 0.37728 0.86167 0.0
C1500 C 0.72468 0.37057 0.75324 0.0
C1501 C 0.7218 0.4018 0.67377 0.0
N1502 N 0.76229 0.37614 0.82699 0.0
N1503 N 0.73937 0.40331 0.70914 0.0
loop_
_geom_bond_atom_site_label_1
_geom_bond_atom_site_label_2
_geom_bond_distance
_geom_bond_site_symmetry_2
_ccdc_geom_bond_type
Pr0 C2 2.880 . S
Pr0 O20 2.562 . S
Pr0 O21 2.490 . S
Pr0 O22 2.695 1_556 S
Pr0 O23 2.512 1_556 S
Pr0 O25 2.437 . S
Pr0 O28 2.436 1_556 S
Pr0 O30 2.438 1_556 S
Pr1 C11 2.880 . S
Pr1 O22 2.436 . S
Pr1 O24 2.438 . S
Pr1 O26 2.562 . S
Pr1 O27 2.490 . S
Pr1 O28 2.695 . S
Pr1 O29 2.512 . S
Pr1 O31 2.437 . S
C2 Pr0 2.880 . S
C2 C3 1.491 . S
C2 O20 1.254 . S
C2 O21 1.225 . S
C3 C2 1.491 . S
C3 C4 1.392 . S
C3 C8 1.356 . S
C4 C3 1.392 . S
C4 C5 1.368 . S
C4 H32 0.929 . S
C5 C4 1.368 . S
C5 C6 1.386 . S
C5 H33 0.929 . S
C6 C5 1.386 . S
C6 C7 1.373 . S
C7 C6 1.373 . S
C7 C8 1.409 . S
C7 H34 0.931 . S
C8 C3 1.356 . S
C8 C7 1.409 . S
C8 H35 0.930 . S
C9 O22 1.270 . S
C9 O23 1.248 . S
C10 O24 1.267 . S
C10 O25 1.278 1_554 S
C11 Pr1 2.880 . S
C11 C12 1.491 . S
C11 O26 1.254 . S
C11 O27 1.225 . S
C12 C11 1.491 . S
C12 C13 1.392 . S
C12 C17 1.356 . S
C13 C12 1.392 . S
C13 C14 1.368 . S
C13 H36 0.929 . S
C14 C13 1.368 . S
C14 C15 1.386 . S
C14 H37 0.929 . S
C15 C14 1.386 . S
C15 C16 1.373 . S
C16 C15 1.373 . S
C16 C17 1.409 . S
C16 H38 0.931 . S
C17 C12 1.356 . S
C17 C16 1.409 . S
C17 H39 0.930 . S
C18 O28 1.270 . S
C18 O29 1.248 . S
C19 O30 1.267 . S
C19 O31 1.278 . S
O20 Pr0 2.562 . S
O20 C2 1.254 . S
O21 Pr0 2.490 . S
O21 C2 1.225 . S
O22 Pr0 2.695 1_554 S
O22 Pr1 2.436 . S
O22 C9 1.270 . S
O23 Pr0 2.512 1_554 S
O23 C9 1.248 . S
O24 Pr1 2.438 . S
O24 C10 1.267 . S
O25 Pr0 2.437 . S
O25 C10 1.278 1_556 S
O26 Pr1 2.562 . S
O26 C11 1.254 . S
O27 Pr1 2.490 . S
O27 C11 1.225 . S
O28 Pr0 2.436 1_554 S
O28 Pr1 2.695 . S
O28 C18 1.270 . S
O29 Pr1 2.512 . S
O29 C18 1.248 . S
O30 Pr0 2.438 1_554 S
O30 C19 1.267 . S
O31 Pr1 2.437 . S
O31 C19 1.278 . S
H32 C4 0.929 . S
H33 C5 0.929 . S
H34 C7 0.931 . S
H35 C8 0.930 . S
H36 C13 0.929 . S
H37 C14 0.929 . S
H38 C16 0.931 . S
H39 C17 0.930 . S
Pr40 C42 2.880 . S
Pr40 O60 2.562 . S
Pr40 O61 2.490 . S
Pr40 O62 2.695 . S
Pr40 O63 2.512 . S
Pr40 O65 2.437 . S
Pr40 O68 2.436 . S
Pr40 O70 2.438 . S
Pr41 C51 2.880 . S
Pr41 O62 2.436 . S
Pr41 O64 2.438 . S
Pr41 O66 2.562 . S
Pr41 O67 2.490 . S
Pr41 O68 2.695 . S
Pr41 O69 2.512 . S
Pr41 O71 2.437 . S
C42 Pr40 2.880 . S
C42 C43 1.491 . S
C42 O60 1.254 . S
C42 O61 1.225 . S
C43 C42 1.491 . S
C43 C44 1.392 . S
C43 C48 1.356 . S
C44 C43 1.392 . S
C44 C45 1.368 . S
C44 H72 0.929 . S
C45 C44 1.368 . S
C45 C46 1.386 . S
C45 H73 0.929 . S
C46 C45 1.386 . S
C46 C47 1.373 . S
C47 C46 1.373 . S
C47 C48 1.409 . S
C47 H74 0.931 . S
C48 C43 1.356 . S
C48 C47 1.409 . S
C48 H75 0.930 . S
C49 O62 1.270 . S
C49 O63 1.248 . S
C50 O64 1.267 . S
C50 O65 1.278 . S
C51 Pr41 2.880 . S
C51 C52 1.491 . S
C51 O66 1.254 . S
C51 O67 1.225 . S
C52 C51 1.491 . S
C52 C53 1.392 . S
C52 C57 1.356 . S
C53 C52 1.392 . S
C53 C54 1.368 . S
C53 H76 0.929 . S
C54 C53 1.368 . S
C54 C55 1.386 . S
C54 H77 0.929 . S
C55 C54 1.386 . S
C55 C56 1.373 . S
C56 C55 1.373 . S
C56 C57 1.409 . S
C56 H78 0.931 . S
C57 C52 1.356 . S
C57 C56 1.409 . S
C57 H79 0.930 . S
C58 O68 1.270 . S
C58 O69 1.248 . S
C59 O70 1.267 . S
C59 O71 1.278 . S
O60 Pr40 2.562 . S
O60 C42 1.254 . S
O61 Pr40 2.490 . S
O61 C42 1.225 . S
O62 Pr40 2.695 . S
O62 Pr41 2.436 . S
O62 C49 1.270 . S
O63 Pr40 2.512 . S
O63 C49 1.248 . S
O64 Pr41 2.438 . S
O64 C50 1.267 . S
O65 Pr40 2.437 . S
O65 C50 1.278 . S
O66 Pr41 2.562 . S
O66 C51 1.254 . S
O67 Pr41 2.490 . S
O67 C51 1.225 . S
O68 Pr40 2.436 . S
O68 Pr41 2.695 . S
O68 C58 1.270 . S
O69 Pr41 2.512 . S
O69 C58 1.248 . S
O70 Pr40 2.438 . S
O70 C59 1.267 . S
O71 Pr41 2.437 . S
O71 C59 1.278 . S
H72 C44 0.929 . S
H73 C45 0.929 . S
H74 C47 0.931 . S
H75 C48 0.930 . S
H76 C53 0.929 . S
H77 C54 0.929 . S
H78 C56 0.931 . S
H79 C57 0.930 . S
Pr80 C82 2.880 . S
Pr80 O100 2.562 . S
Pr80 O101 2.490 . S
Pr80 O102 2.695 . S
Pr80 O103 2.512 . S
Pr80 O105 2.437 . S
Pr80 O108 2.436 . S
Pr80 O110 2.438 . S
Pr81 C91 2.880 . S
Pr81 O102 2.436 . S
Pr81 O104 2.438 . S
Pr81 O106 2.562 . S
Pr81 O107 2.490 . S
Pr81 O108 2.695 . S
Pr81 O109 2.512 . S
Pr81 O111 2.437 . S
C82 Pr80 2.880 . S
C82 C83 1.491 . S
C82 O100 1.254 . S
C82 O101 1.225 . S
C83 C82 1.491 . S
C83 C84 1.392 . S
C83 C88 1.356 . S
C84 C83 1.392 . S
C84 C85 1.368 . S
C84 H112 0.929 . S
C85 C84 1.368 . S
C85 C86 1.386 . S
C85 H113 0.929 . S
C86 C85 1.386 . S
C86 C87 1.373 . S
C87 C86 1.373 . S
C87 C88 1.409 . S
C87 H114 0.931 . S
C88 C83 1.356 . S
C88 C87 1.409 . S
C88 H115 0.930 . S
C89 O102 1.270 . S
C89 O103 1.248 . S
C90 O104 1.267 . S
C90 O105 1.278 . S
C91 Pr81 2.880 . S
C91 C92 1.491 . S
C91 O106 1.254 . S
C91 O107 1.225 . S
C92 C91 1.491 . S
C92 C93 1.392 . S
C92 C97 1.356 . S
C93 C92 1.392 . S
C93 C94 1.368 . S
C93 H116 0.929 . S
C94 C93 1.368 . S
C94 C95 1.386 . S
C94 H117 0.929 . S
C95 C94 1.386 . S
C95 C96 1.373 . S
C96 C95 1.373 . S
C96 C97 1.409 . S
C96 H118 0.931 . S
C97 C92 1.356 . S
C97 C96 1.409 . S
C97 H119 0.930 . S
C98 O108 1.270 . S
C98 O109 1.248 . S
C99 O110 1.267 . S
C99 O111 1.278 . S
O100 Pr80 2.562 . S
O100 C82 1.254 . S
O101 Pr80 2.490 . S
O101 C82 1.225 . S
O102 Pr80 2.695 . S
O102 Pr81 2.436 . S
O102 C89 1.270 . S
O103 Pr80 2.512 . S
O103 C89 1.248 . S
O104 Pr81 2.438 . S
O104 C90 1.267 . S
O105 Pr80 2.437 . S
O105 C90 1.278 . S
O106 Pr81 2.562 . S
O106 C91 1.254 . S
O107 Pr81 2.490 . S
O107 C91 1.225 . S
O108 Pr80 2.436 . S
O108 Pr81 2.695 . S
O108 C98 1.270 . S
O109 Pr81 2.512 . S
O109 C98 1.248 . S
O110 Pr80 2.438 . S
O110 C99 1.267 . S
O111 Pr81 2.437 . S
O111 C99 1.278 . S
H112 C84 0.929 . S
H113 C85 0.929 . S
H114 C87 0.931 . S
H115 C88 0.930 . S
H116 C93 0.929 . S
H117 C94 0.929 . S
H118 C96 0.931 . S
H119 C97 0.930 . S
Pr120 C122 2.880 . S
Pr120 O140 2.562 . S
Pr120 O141 2.490 . S
Pr120 O142 2.695 1_554 S
Pr120 O143 2.512 1_554 S
Pr120 O145 2.437 . S
Pr120 O148 2.436 1_554 S
Pr120 O150 2.438 1_554 S
Pr121 C131 2.880 . S
Pr121 O142 2.436 . S
Pr121 O144 2.438 . S
Pr121 O146 2.562 . S
Pr121 O147 2.490 . S
Pr121 O148 2.695 . S
Pr121 O149 2.512 . S
Pr121 O151 2.437 . S
C122 Pr120 2.880 . S
C122 C123 1.491 . S
C122 O140 1.254 . S
C122 O141 1.225 . S
C123 C122 1.491 . S
C123 C124 1.392 . S
C123 C128 1.356 . S
C124 C123 1.392 . S
C124 C125 1.368 . S
C124 H152 0.929 . S
C125 C124 1.368 . S
C125 C126 1.386 . S
C125 H153 0.929 . S
C126 C125 1.386 . S
C126 C127 1.373 . S
C127 C126 1.373 . S
C127 C128 1.409 . S
C127 H154 0.931 . S
C128 C123 1.356 . S
C128 C127 1.409 . S
C128 H155 0.930 . S
C129 O142 1.270 . S
C129 O143 1.248 . S
C130 O144 1.267 . S
C130 O145 1.278 1_556 S
C131 Pr121 2.880 . S
C131 C132 1.491 . S
C131 O146 1.254 . S
C131 O147 1.225 . S
C132 C131 1.491 . S
C132 C133 1.392 . S
C132 C137 1.356 . S
C133 C132 1.392 . S
C133 C134 1.368 . S
C133 H156 0.929 . S
C134 C133 1.368 . S
C134 C135 1.386 . S
C134 H157 0.929 . S
C135 C134 1.386 . S
C135 C136 1.373 . S
C136 C135 1.373 . S
C136 C137 1.409 . S
C136 H158 0.931 . S
C137 C132 1.356 . S
C137 C136 1.409 . S
C137 H159 0.930 . S
C138 O148 1.270 . S
C138 O149 1.248 . S
C139 O150 1.267 . S
C139 O151 1.278 . S
O140 Pr120 2.562 . S
O140 C122 1.254 . S
O141 Pr120 2.490 . S
O141 C122 1.225 . S
O142 Pr120 2.695 1_556 S
O142 Pr121 2.436 . S
O142 C129 1.270 . S
O143 Pr120 2.512 1_556 S
O143 C129 1.248 . S
O144 Pr121 2.438 . S
O144 C130 1.267 . S
O145 Pr120 2.437 . S
O145 C130 1.278 1_554 S
O146 Pr121 2.562 . S
O146 C131 1.254 . S
O147 Pr121 2.490 . S
O147 C131 1.225 . S
O148 Pr120 2.436 1_556 S
O148 Pr121 2.695 . S
O148 C138 1.270 . S
O149 Pr121 2.512 . S
O149 C138 1.248 . S
O150 Pr120 2.438 1_556 S
O150 C139 1.267 . S
O151 Pr121 2.437 . S
O151 C139 1.278 . S
H152 C124 0.929 . S
H153 C125 0.929 . S
H154 C127 0.931 . S
H155 C128 0.930 . S
H156 C133 0.929 . S
H157 C134 0.929 . S
H158 C136 0.931 . S
H159 C137 0.930 . S
Pr160 C162 2.880 . S
Pr160 O180 2.562 . S
Pr160 O181 2.490 . S
Pr160 O182 2.695 1_554 S
Pr160 O183 2.512 1_554 S
Pr160 O185 2.437 . S
Pr160 O188 2.436 1_554 S
Pr160 O190 2.438 1_554 S
Pr161 C171 2.880 . S
Pr161 O182 2.436 . S
Pr161 O184 2.438 . S
Pr161 O186 2.562 . S
Pr161 O187 2.490 . S
Pr161 O188 2.695 . S
Pr161 O189 2.512 . S
Pr161 O191 2.437 . S
C162 Pr160 2.880 . S
C162 C163 1.491 . S
C162 O180 1.254 . S
C162 O181 1.225 . S
C163 C162 1.491 . S
C163 C164 1.392 . S
C163 C168 1.356 . S
C164 C163 1.392 . S
C164 C165 1.368 . S
C164 H192 0.929 . S
C165 C164 1.368 . S
C165 C166 1.386 . S
C165 H193 0.929 . S
C166 C165 1.386 . S
C166 C167 1.373 . S
C167 C166 1.373 . S
C167 C168 1.409 . S
C167 H194 0.931 . S
C168 C163 1.356 . S
C168 C167 1.409 . S
C168 H195 0.930 . S
C169 O182 1.270 . S
C169 O183 1.248 . S
C170 O184 1.267 . S
C170 O185 1.278 1_556 S
C171 Pr161 2.880 . S
C171 C172 1.491 . S
C171 O186 1.254 . S
C171 O187 1.225 . S
C172 C171 1.491 . S
C172 C173 1.392 . S
C172 C177 1.356 . S
C173 C172 1.392 . S
C173 C174 1.368 . S
C173 H196 0.929 . S
C174 C173 1.368 . S
C174 C175 1.386 . S
C174 H197 0.929 . S
C175 C174 1.386 . S
C175 C176 1.373 . S
C176 C175 1.373 . S
C176 C177 1.409 . S
C176 H198 0.931 . S
C177 C172 1.356 . S
C177 C176 1.409 . S
C177 H199 0.930 . S
C178 O188 1.270 . S
C178 O189 1.248 . S
C179 O190 1.267 . S
C179 O191 1.278 . S
O180 Pr160 2.562 . S
O180 C162 1.254 . S
O181 Pr160 2.490 . S
O181 C162 1.225 . S
O182 Pr160 2.695 1_556 S
O182 Pr161 2.436 . S
O182 C169 1.270 . S
O183 Pr160 2.512 1_556 S
O183 C169 1.248 . S
O184 Pr161 2.438 . S
O184 C170 1.267 . S
O185 Pr160 2.437 . S
O185 C170 1.278 1_554 S
O186 Pr161 2.562 . S
O186 C171 1.254 . S
O187 Pr161 2.490 . S
O187 C171 1.225 . S
O188 Pr160 2.436 1_556 S
O188 Pr161 2.695 . S
O188 C178 1.270 . S
O189 Pr161 2.512 . S
O189 C178 1.248 . S
O190 Pr160 2.438 1_556 S
O190 C179 1.267 . S
O191 Pr161 2.437 . S
O191 C179 1.278 . S
H192 C164 0.929 . S
H193 C165 0.929 . S
H194 C167 0.931 . S
H195 C168 0.930 . S
H196 C173 0.929 . S
H197 C174 0.929 . S
H198 C176 0.931 . S
H199 C177 0.930 . S
Pr200 C202 2.880 . S
Pr200 O220 2.562 . S
Pr200 O221 2.490 . S
Pr200 O222 2.695 1_556 S
Pr200 O223 2.512 1_556 S
Pr200 O225 2.437 . S
Pr200 O228 2.436 1_556 S
Pr200 O230 2.438 1_556 S
Pr201 C211 2.880 . S
Pr201 O222 2.436 . S
Pr201 O224 2.438 . S
Pr201 O226 2.562 . S
Pr201 O227 2.490 . S
Pr201 O228 2.695 . S
Pr201 O229 2.512 . S
Pr201 O231 2.437 . S
C202 Pr200 2.880 . S
C202 C203 1.491 . S
C202 O220 1.254 . S
C202 O221 1.225 . S
C203 C202 1.491 . S
C203 C204 1.392 . S
C203 C208 1.356 . S
C204 C203 1.392 . S
C204 C205 1.368 . S
C204 H232 0.929 . S
C205 C204 1.368 . S
C205 C206 1.386 . S
C205 H233 0.929 . S
C206 C205 1.386 . S
C206 C207 1.373 . S
C207 C206 1.373 . S
C207 C208 1.409 . S
C207 H234 0.931 . S
C208 C203 1.356 . S
C208 C207 1.409 . S
C208 H235 0.930 . S
C209 O222 1.270 . S
C209 O223 1.248 . S
C210 O224 1.267 . S
C210 O225 1.278 1_554 S
C211 Pr201 2.880 . S
C211 C212 1.491 . S
C211 O226 1.254 . S
C211 O227 1.225 . S
C212 C211 1.491 . S
C212 C213 1.392 . S
C212 C217 1.356 . S
C213 C212 1.392 . S
C213 C214 1.368 . S
C213 H236 0.929 . S
C214 C213 1.368 . S
C214 C215 1.386 . S
C214 H237 0.929 . S
C215 C214 1.386 . S
C215 C216 1.373 . S
C216 C215 1.373 . S
C216 C217 1.409 . S
C216 H238 0.931 . S
C217 C212 1.356 . S
C217 C216 1.409 . S
C217 H239 0.930 . S
C218 O228 1.270 . S
C218 O229 1.248 . S
C219 O230 1.267 . S
C219 O231 1.278 . S
O220 Pr200 2.562 . S
O220 C202 1.254 . S
O221 Pr200 2.490 . S
O221 C202 1.225 . S
O222 Pr200 2.695 1_554 S
O222 Pr201 2.436 . S
O222 C209 1.270 . S
O223 Pr200 2.512 1_554 S
O223 C209 1.248 . S
O224 Pr201 2.438 . S
O224 C210 1.267 . S
O225 Pr200 2.437 . S
O225 C210 1.278 1_556 S
O226 Pr201 2.562 . S
O226 C211 1.254 . S
O227 Pr201 2.490 . S
O227 C211 1.225 . S
O228 Pr200 2.436 1_554 S
O228 Pr201 2.695 . S
O228 C218 1.270 . S
O229 Pr201 2.512 . S
O229 C218 1.248 . S
O230 Pr200 2.438 1_554 S
O230 C219 1.267 . S
O231 Pr201 2.437 . S
O231 C219 1.278 . S
H232 C204 0.929 . S
H233 C205 0.929 . S
H234 C207 0.931 . S
H235 C208 0.930 . S
H236 C213 0.929 . S
H237 C214 0.929 . S
H238 C216 0.931 . S
H239 C217 0.930 . S
Pr240 C242 2.880 . S
Pr240 O260 2.562 . S
Pr240 O261 2.490 . S
Pr240 O262 2.695 . S
Pr240 O263 2.512 . S
Pr240 O265 2.437 . S
Pr240 O268 2.436 . S
Pr240 O270 2.438 . S
Pr241 C251 2.880 . S
Pr241 O262 2.436 . S
Pr241 O264 2.438 . S
Pr241 O266 2.562 . S
Pr241 O267 2.490 . S
Pr241 O268 2.695 . S
Pr241 O269 2.512 . S
Pr241 O271 2.437 . S
C242 Pr240 2.880 . S
C242 C243 1.491 . S
C242 O260 1.254 . S
C242 O261 1.225 . S
C243 C242 1.491 . S
C243 C244 1.392 . S
C243 C248 1.356 . S
C244 C243 1.392 . S
C244 C245 1.368 . S
C244 H272 0.929 . S
C245 C244 1.368 . S
C245 C246 1.386 . S
C245 H273 0.929 . S
C246 C245 1.386 . S
C246 C247 1.373 . S
C247 C246 1.373 . S
C247 C248 1.409 . S
C247 H274 0.931 . S
C248 C243 1.356 . S
C248 C247 1.409 . S
C248 H275 0.930 . S
C249 O262 1.270 . S
C249 O263 1.248 . S
C250 O264 1.267 . S
C250 O265 1.278 . S
C251 Pr241 2.880 . S
C251 C252 1.491 . S
C251 O266 1.254 . S
C251 O267 1.225 . S
C252 C251 1.491 . S
C252 C253 1.392 . S
C252 C257 1.356 . S
C253 C252 1.392 . S
C253 C254 1.368 . S
C253 H276 0.929 . S
C254 C253 1.368 . S
C254 C255 1.386 . S
C254 H277 0.929 . S
C255 C254 1.386 . S
C255 C256 1.373 . S
C256 C255 1.373 . S
C256 C257 1.409 . S
C256 H278 0.931 . S
C257 C252 1.356 . S
C257 C256 1.409 . S
C257 H279 0.930 . S
C258 O268 1.270 . S
C258 O269 1.248 . S
C259 O270 1.267 . S
C259 O271 1.278 . S
O260 Pr240 2.562 . S
O260 C242 1.254 . S
O261 Pr240 2.490 . S
O261 C242 1.225 . S
O262 Pr240 2.695 . S
O262 Pr241 2.436 . S
O262 C249 1.270 . S
O263 Pr240 2.512 . S
O263 C249 1.248 . S
O264 Pr241 2.438 . S
O264 C250 1.267 . S
O265 Pr240 2.437 . S
O265 C250 1.278 . S
O266 Pr241 2.562 . S
O266 C251 1.254 . S
O267 Pr241 2.490 . S
O267 C251 1.225 . S
O268 Pr240 2.436 . S
O268 Pr241 2.695 . S
O268 C258 1.270 . S
O269 Pr241 2.512 . S
O269 C258 1.248 . S
O270 Pr240 2.438 . S
O270 C259 1.267 . S
O271 Pr241 2.437 . S
O271 C259 1.278 . S
H272 C244 0.929 . S
H273 C245 0.929 . S
H274 C247 0.931 . S
H275 C248 0.930 . S
H276 C253 0.929 . S
H277 C254 0.929 . S
H278 C256 0.931 . S
H279 C257 0.930 . S
Pr280 C282 2.880 . S
Pr280 O300 2.562 . S
Pr280 O301 2.490 . S
Pr280 O302 2.695 . S
Pr280 O303 2.512 . S
Pr280 O305 2.437 . S
Pr280 O308 2.436 . S
Pr280 O310 2.438 . S
Pr281 C291 2.880 . S
Pr281 O302 2.436 . S
Pr281 O304 2.438 . S
Pr281 O306 2.562 . S
Pr281 O307 2.490 . S
Pr281 O308 2.695 . S
Pr281 O309 2.512 . S
Pr281 O311 2.437 . S
C282 Pr280 2.880 . S
C282 C283 1.491 . S
C282 O300 1.254 . S
C282 O301 1.225 . S
C283 C282 1.491 . S
C283 C284 1.392 . S
C283 C288 1.356 . S
C284 C283 1.392 . S
C284 C285 1.368 . S
C284 H312 0.929 . S
C285 C284 1.368 . S
C285 C286 1.386 . S
C285 H313 0.929 . S
C286 C285 1.386 . S
C286 C287 1.373 . S
C287 C286 1.373 . S
C287 C288 1.409 . S
C287 H314 0.931 . S
C288 C283 1.356 . S
C288 C287 1.409 . S
C288 H315 0.930 . S
C289 O302 1.270 . S
C289 O303 1.248 . S
C290 O304 1.267 . S
C290 O305 1.278 . S
C291 Pr281 2.880 . S
C291 C292 1.491 . S
C291 O306 1.254 . S
C291 O307 1.225 . S
C292 C291 1.491 . S
C292 C293 1.392 . S
C292 C297 1.356 . S
C293 C292 1.392 . S
C293 C294 1.368 . S
C293 H316 0.929 . S
C294 C293 1.368 . S
C294 C295 1.386 . S
C294 H317 0.929 . S
C295 C294 1.386 . S
C295 C296 1.373 . S
C296 C295 1.373 . S
C296 C297 1.409 . S
C296 H318 0.931 . S
C297 C292 1.356 . S
C297 C296 1.409 . S
C297 H319 0.930 . S
C298 O308 1.270 . S
C298 O309 1.248 . S
C299 O310 1.267 . S
C299 O311 1.278 . S
O300 Pr280 2.562 . S
O300 C282 1.254 . S
O301 Pr280 2.490 . S
O301 C282 1.225 . S
O302 Pr280 2.695 . S
O302 Pr281 2.436 . S
O302 C289 1.270 . S
O303 Pr280 2.512 . S
O303 C289 1.248 . S
O304 Pr281 2.438 . S
O304 C290 1.267 . S
O305 Pr280 2.437 . S
O305 C290 1.278 . S
O306 Pr281 2.562 . S
O306 C291 1.254 . S
O307 Pr281 2.490 . S
O307 C291 1.225 . S
O308 Pr280 2.436 . S
O308 Pr281 2.695 . S
O308 C298 1.270 . S
O309 Pr281 2.512 . S
O309 C298 1.248 . S
O310 Pr280 2.438 . S
O310 C299 1.267 . S
O311 Pr281 2.437 . S
O311 C299 1.278 . S
H312 C284 0.929 . S
H313 C285 0.929 . S
H314 C287 0.931 . S
H315 C288 0.930 . S
H316 C293 0.929 . S
H317 C294 0.929 . S
H318 C296 0.931 . S
H319 C297 0.930 . S
Pr320 C322 2.880 . S
Pr320 O340 2.562 . S
Pr320 O341 2.490 . S
Pr320 O342 2.695 . S
Pr320 O343 2.512 . S
Pr320 O345 2.437 . S
Pr320 O348 2.436 . S
Pr320 O350 2.438 . S
Pr321 C331 2.880 . S
Pr321 O342 2.436 1_554 S
Pr321 O344 2.438 1_554 S
Pr321 O346 2.562 . S
Pr321 O347 2.490 . S
Pr321 O348 2.695 1_554 S
Pr321 O349 2.512 1_554 S
Pr321 O351 2.437 . S
C322 Pr320 2.880 . S
C322 C323 1.491 . S
C322 O340 1.254 . S
C322 O341 1.225 . S
C323 C322 1.491 . S
C323 C324 1.392 . S
C323 C328 1.356 . S
C324 C323 1.392 . S
C324 C325 1.368 . S
C324 H352 0.929 . S
C325 C324 1.368 . S
C325 C326 1.386 . S
C325 H353 0.929 . S
C326 C325 1.386 . S
C326 C327 1.373 . S
C327 C326 1.373 . S
C327 C328 1.409 . S
C327 H354 0.931 . S
C328 C323 1.356 . S
C328 C327 1.409 . S
C328 H355 0.930 . S
C329 O342 1.270 . S
C329 O343 1.248 . S
C330 O344 1.267 . S
C330 O345 1.278 . S
C331 Pr321 2.880 . S
C331 C332 1.491 . S
C331 O346 1.254 . S
C331 O347 1.225 . S
C332 C331 1.491 . S
C332 C333 1.392 . S
C332 C337 1.356 . S
C333 C332 1.392 . S
C333 C334 1.368 . S
C333 H356 0.929 . S
C334 C333 1.368 . S
C334 C335 1.386 . S
C334 H357 0.929 . S
C335 C334 1.386 . S
C335 C336 1.373 . S
C336 C335 1.373 . S
C336 C337 1.409 . S
C336 H358 0.931 . S
C337 C332 1.356 . S
C337 C336 1.409 . S
C337 H359 0.930 . S
C338 O348 1.270 . S
C338 O349 1.248 . S
C339 O350 1.267 . S
C339 O351 1.278 1_556 S
O340 Pr320 2.562 . S
O340 C322 1.254 . S
O341 Pr320 2.490 . S
O341 C322 1.225 . S
O342 Pr320 2.695 . S
O342 Pr321 2.436 1_556 S
O342 C329 1.270 . S
O343 Pr320 2.512 . S
O343 C329 1.248 . S
O344 Pr321 2.438 1_556 S
O344 C330 1.267 . S
O345 Pr320 2.437 . S
O345 C330 1.278 . S
O346 Pr321 2.562 . S
O346 C331 1.254 . S
O347 Pr321 2.490 . S
O347 C331 1.225 . S
O348 Pr320 2.436 . S
O348 Pr321 2.695 1_556 S
O348 C338 1.270 . S
O349 Pr321 2.512 1_556 S
O349 C338 1.248 . S
O350 Pr320 2.438 . S
O350 C339 1.267 . S
O351 Pr321 2.437 . S
O351 C339 1.278 1_554 S
H352 C324 0.929 . S
H353 C325 0.929 . S
H354 C327 0.931 . S
H355 C328 0.930 . S
H356 C333 0.929 . S
H357 C334 0.929 . S
H358 C336 0.931 . S
H359 C337 0.930 . S
Pr360 C362 2.880 . S
Pr360 O380 2.562 . S
Pr360 O381 2.490 . S
Pr360 O382 2.695 . S
Pr360 O383 2.512 . S
Pr360 O385 2.437 . S
Pr360 O388 2.436 . S
Pr360 O390 2.438 . S
Pr361 C371 2.880 . S
Pr361 O382 2.436 . S
Pr361 O384 2.438 . S
Pr361 O386 2.562 . S
Pr361 O387 2.490 . S
Pr361 O388 2.695 . S
Pr361 O389 2.512 . S
Pr361 O391 2.437 . S
C362 Pr360 2.880 . S
C362 C363 1.491 . S
C362 O380 1.254 . S
C362 O381 1.225 . S
C363 C362 1.491 . S
C363 C364 1.392 . S
C363 C368 1.356 . S
C364 C363 1.392 . S
C364 C365 1.368 . S
C364 H392 0.929 . S
C365 C364 1.368 . S
C365 C366 1.386 . S
C365 H393 0.929 . S
C366 C365 1.386 . S
C366 C367 1.373 . S
C367 C366 1.373 . S
C367 C368 1.409 . S
C367 H394 0.931 . S
C368 C363 1.356 . S
C368 C367 1.409 . S
C368 H395 0.930 . S
C369 O382 1.270 . S
C369 O383 1.248 . S
C370 O384 1.267 . S
C370 O385 1.278 . S
C371 Pr361 2.880 . S
C371 C372 1.491 . S
C371 O386 1.254 . S
C371 O387 1.225 . S
C372 C371 1.491 . S
C372 C373 1.392 . S
C372 C377 1.356 . S
C373 C372 1.392 . S
C373 C374 1.368 . S
C373 H396 0.929 . S
C374 C373 1.368 . S
C374 C375 1.386 . S
C374 H397 0.929 . S
C375 C374 1.386 . S
C375 C376 1.373 . S
C376 C375 1.373 . S
C376 C377 1.409 . S
C376 H398 0.931 . S
C377 C372 1.356 . S
C377 C376 1.409 . S
C377 H399 0.930 . S
C378 O388 1.270 . S
C378 O389 1.248 . S
C379 O390 1.267 . S
C379 O391 1.278 . S
O380 Pr360 2.562 . S
O380 C362 1.254 . S
O381 Pr360 2.490 . S
O381 C362 1.225 . S
O382 Pr360 2.695 . S
O382 Pr361 2.436 . S
O382 C369 1.270 . S
O383 Pr360 2.512 . S
O383 C369 1.248 . S
O384 Pr361 2.438 . S
O384 C370 1.267 . S
O385 Pr360 2.437 . S
O385 C370 1.278 . S
O386 Pr361 2.562 . S
O386 C371 1.254 . S
O387 Pr361 2.490 . S
O387 C371 1.225 . S
O388 Pr360 2.436 . S
O388 Pr361 2.695 . S
O388 C378 1.270 . S
O389 Pr361 2.512 . S
O389 C378 1.248 . S
O390 Pr360 2.438 . S
O390 C379 1.267 . S
O391 Pr361 2.437 . S
O391 C379 1.278 . S
H392 C364 0.929 . S
H393 C365 0.929 . S
H394 C367 0.931 . S
H395 C368 0.930 . S
H396 C373 0.929 . S
H397 C374 0.929 . S
H398 C376 0.931 . S
H399 C377 0.930 . S
Pr400 C402 2.880 . S
Pr400 O420 2.562 . S
Pr400 O421 2.490 . S
Pr400 O422 2.695 . S
Pr400 O423 2.512 . S
Pr400 O425 2.437 . S
Pr400 O428 2.436 . S
Pr400 O430 2.438 . S
Pr401 C411 2.880 . S
Pr401 O422 2.436 . S
Pr401 O424 2.438 . S
Pr401 O426 2.562 . S
Pr401 O427 2.490 . S
Pr401 O428 2.695 . S
Pr401 O429 2.512 . S
Pr401 O431 2.437 . S
C402 Pr400 2.880 . S
C402 C403 1.491 . S
C402 O420 1.254 . S
C402 O421 1.225 . S
C403 C402 1.491 . S
C403 C404 1.392 . S
C403 C408 1.356 . S
C404 C403 1.392 . S
C404 C405 1.368 . S
C404 H432 0.929 . S
C405 C404 1.368 . S
C405 C406 1.386 . S
C405 H433 0.929 . S
C406 C405 1.386 . S
C406 C407 1.373 . S
C407 C406 1.373 . S
C407 C408 1.409 . S
C407 H434 0.931 . S
C408 C403 1.356 . S
C408 C407 1.409 . S
C408 H435 0.930 . S
C409 O422 1.270 . S
C409 O423 1.248 . S
C410 O424 1.267 . S
C410 O425 1.278 . S
C411 Pr401 2.880 . S
C411 C412 1.491 . S
C411 O426 1.254 . S
C411 O427 1.225 . S
C412 C411 1.491 . S
C412 C413 1.392 . S
C412 C417 1.356 . S
C413 C412 1.392 . S
C413 C414 1.368 . S
C413 H436 0.929 . S
C414 C413 1.368 . S
C414 C415 1.386 . S
C414 H437 0.929 . S
C415 C414 1.386 . S
C415 C416 1.373 . S
C416 C415 1.373 . S
C416 C417 1.409 . S
C416 H438 0.931 . S
C417 C412 1.356 . S
C417 C416 1.409 . S
C417 H439 0.930 . S
C418 O428 1.270 . S
C418 O429 1.248 . S
C419 O430 1.267 . S
C419 O431 1.278 . S
O420 Pr400 2.562 . S
O420 C402 1.254 . S
O421 Pr400 2.490 . S
O421 C402 1.225 . S
O422 Pr400 2.695 . S
O422 Pr401 2.436 . S
O422 C409 1.270 . S
O423 Pr400 2.512 . S
O423 C409 1.248 . S
O424 Pr401 2.438 . S
O424 C410 1.267 . S
O425 Pr400 2.437 . S
O425 C410 1.278 . S
O426 Pr401 2.562 . S
O426 C411 1.254 . S
O427 Pr401 2.490 . S
O427 C411 1.225 . S
O428 Pr400 2.436 . S
O428 Pr401 2.695 . S
O428 C418 1.270 . S
O429 Pr401 2.512 . S
O429 C418 1.248 . S
O430 Pr400 2.438 . S
O430 C419 1.267 . S
O431 Pr401 2.437 . S
O431 C419 1.278 . S
H432 C404 0.929 . S
H433 C405 0.929 . S
H434 C407 0.931 . S
H435 C408 0.930 . S
H436 C413 0.929 . S
H437 C414 0.929 . S
H438 C416 0.931 . S
H439 C417 0.930 . S
Pr440 C442 2.880 . S
Pr440 O460 2.562 . S
Pr440 O461 2.490 . S
Pr440 O462 2.695 . S
Pr440 O463 2.512 . S
Pr440 O465 2.437 . S
Pr440 O468 2.436 . S
Pr440 O470 2.438 . S
Pr441 C451 2.880 . S
Pr441 O462 2.436 1_556 S
Pr441 O464 2.438 1_556 S
Pr441 O466 2.562 . S
Pr441 O467 2.490 . S
Pr441 O468 2.695 1_556 S
Pr441 O469 2.512 1_556 S
Pr441 O471 2.437 . S
C442 Pr440 2.880 . S
C442 C443 1.491 . S
C442 O460 1.254 . S
C442 O461 1.225 . S
C443 C442 1.491 . S
C443 C444 1.392 . S
C443 C448 1.356 . S
C444 C443 1.392 . S
C444 C445 1.368 . S
C444 H472 0.929 . S
C445 C444 1.368 . S
C445 C446 1.386 . S
C445 H473 0.929 . S
C446 C445 1.386 . S
C446 C447 1.373 . S
C447 C446 1.373 . S
C447 C448 1.409 . S
C447 H474 0.931 . S
C448 C443 1.356 . S
C448 C447 1.409 . S
C448 H475 0.930 . S
C449 O462 1.270 . S
C449 O463 1.248 . S
C450 O464 1.267 . S
C450 O465 1.278 . S
C451 Pr441 2.880 . S
C451 C452 1.491 . S
C451 O466 1.254 . S
C451 O467 1.225 . S
C452 C451 1.491 . S
C452 C453 1.392 . S
C452 C457 1.356 . S
C453 C452 1.392 . S
C453 C454 1.368 . S
C453 H476 0.929 . S
C454 C453 1.368 . S
C454 C455 1.386 . S
C454 H477 0.929 . S
C455 C454 1.386 . S
C455 C456 1.373 . S
C456 C455 1.373 . S
C456 C457 1.409 . S
C456 H478 0.931 . S
C457 C452 1.356 . S
C457 C456 1.409 . S
C457 H479 0.930 . S
C458 O468 1.270 . S
C458 O469 1.248 . S
C459 O470 1.267 . S
C459 O471 1.278 1_554 S
O460 Pr440 2.562 . S
O460 C442 1.254 . S
O461 Pr440 2.490 . S
O461 C442 1.225 . S
O462 Pr440 2.695 . S
O462 Pr441 2.436 1_554 S
O462 C449 1.270 . S
O463 Pr440 2.512 . S
O463 C449 1.248 . S
O464 Pr441 2.438 1_554 S
O464 C450 1.267 . S
O465 Pr440 2.437 . S
O465 C450 1.278 . S
O466 Pr441 2.562 . S
O466 C451 1.254 . S
O467 Pr441 2.490 . S
O467 C451 1.225 . S
O468 Pr440 2.436 . S
O468 Pr441 2.695 1_554 S
O468 C458 1.270 . S
O469 Pr441 2.512 1_554 S
O469 C458 1.248 . S
O470 Pr440 2.438 . S
O470 C459 1.267 . S
O471 Pr441 2.437 . S
O471 C459 1.278 1_556 S
H472 C444 0.929 . S
H473 C445 0.929 . S
H474 C447 0.931 . S
H475 C448 0.930 . S
H476 C453 0.929 . S
H477 C454 0.929 . S
H478 C456 0.931 . S
H479 C457 0.930 . S
Pr480 C482 2.880 . S
Pr480 O500 2.562 . S
Pr480 O501 2.490 . S
Pr480 O502 2.695 . S
Pr480 O503 2.512 . S
Pr480 O505 2.437 . S
Pr480 O508 2.436 . S
Pr480 O510 2.438 . S
Pr481 C491 2.880 . S
Pr481 O502 2.436 1_556 S
Pr481 O504 2.438 1_556 S
Pr481 O506 2.562 . S
Pr481 O507 2.490 . S
Pr481 O508 2.695 1_556 S
Pr481 O509 2.512 1_556 S
Pr481 O511 2.437 . S
C482 Pr480 2.880 . S
C482 C483 1.491 . S
C482 O500 1.254 . S
C482 O501 1.225 . S
C483 C482 1.491 . S
C483 C484 1.392 . S
C483 C488 1.356 . S
C484 C483 1.392 . S
C484 C485 1.368 . S
C484 H512 0.929 . S
C485 C484 1.368 . S
C485 C486 1.386 . S
C485 H513 0.929 . S
C486 C485 1.386 . S
C486 C487 1.373 . S
C487 C486 1.373 . S
C487 C488 1.409 . S
C487 H514 0.931 . S
C488 C483 1.356 . S
C488 C487 1.409 . S
C488 H515 0.930 . S
C489 O502 1.270 . S
C489 O503 1.248 . S
C490 O504 1.267 . S
C490 O505 1.278 . S
C491 Pr481 2.880 . S
C491 C492 1.491 . S
C491 O506 1.254 . S
C491 O507 1.225 . S
C492 C491 1.491 . S
C492 C493 1.392 . S
C492 C497 1.356 . S
C493 C492 1.392 . S
C493 C494 1.368 . S
C493 H516 0.929 . S
C494 C493 1.368 . S
C494 C495 1.386 . S
C494 H517 0.929 . S
C495 C494 1.386 . S
C495 C496 1.373 . S
C496 C495 1.373 . S
C496 C497 1.409 . S
C496 H518 0.931 . S
C497 C492 1.356 . S
C497 C496 1.409 . S
C497 H519 0.930 . S
C498 O508 1.270 . S
C498 O509 1.248 . S
C499 O510 1.267 . S
C499 O511 1.278 1_554 S
O500 Pr480 2.562 . S
O500 C482 1.254 . S
O501 Pr480 2.490 . S
O501 C482 1.225 . S
O502 Pr480 2.695 . S
O502 Pr481 2.436 1_554 S
O502 C489 1.270 . S
O503 Pr480 2.512 . S
O503 C489 1.248 . S
O504 Pr481 2.438 1_554 S
O504 C490 1.267 . S
O505 Pr480 2.437 . S
O505 C490 1.278 . S
O506 Pr481 2.562 . S
O506 C491 1.254 . S
O507 Pr481 2.490 . S
O507 C491 1.225 . S
O508 Pr480 2.436 . S
O508 Pr481 2.695 1_554 S
O508 C498 1.270 . S
O509 Pr481 2.512 1_554 S
O509 C498 1.248 . S
O510 Pr480 2.438 . S
O510 C499 1.267 . S
O511 Pr481 2.437 . S
O511 C499 1.278 1_556 S
H512 C484 0.929 . S
H513 C485 0.929 . S
H514 C487 0.931 . S
H515 C488 0.930 . S
H516 C493 0.929 . S
H517 C494 0.929 . S
H518 C496 0.931 . S
H519 C497 0.930 . S
Pr520 C522 2.880 . S
Pr520 O540 2.562 . S
Pr520 O541 2.490 . S
Pr520 O542 2.695 . S
Pr520 O543 2.512 . S
Pr520 O545 2.437 . S
Pr520 O548 2.436 . S
Pr520 O550 2.438 . S
Pr521 C531 2.880 . S
Pr521 O542 2.436 1_554 S
Pr521 O544 2.438 1_554 S
Pr521 O546 2.562 . S
Pr521 O547 2.490 . S
Pr521 O548 2.695 1_554 S
Pr521 O549 2.512 1_554 S
Pr521 O551 2.437 . S
C522 Pr520 2.880 . S
C522 C523 1.491 . S
C522 O540 1.254 . S
C522 O541 1.225 . S
C523 C522 1.491 . S
C523 C524 1.392 . S
C523 C528 1.356 . S
C524 C523 1.392 . S
C524 C525 1.368 . S
C524 H552 0.929 . S
C525 C524 1.368 . S
C525 C526 1.386 . S
C525 H553 0.929 . S
C526 C525 1.386 . S
C526 C527 1.373 . S
C527 C526 1.373 . S
C527 C528 1.409 . S
C527 H554 0.931 . S
C528 C523 1.356 . S
C528 C527 1.409 . S
C528 H555 0.930 . S
C529 O542 1.270 . S
C529 O543 1.248 . S
C530 O544 1.267 . S
C530 O545 1.278 . S
C531 Pr521 2.880 . S
C531 C532 1.491 . S
C531 O546 1.254 . S
C531 O547 1.225 . S
C532 C531 1.491 . S
C532 C533 1.392 . S
C532 C537 1.356 . S
C533 C532 1.392 . S
C533 C534 1.368 . S
C533 H556 0.929 . S
C534 C533 1.368 . S
C534 C535 1.386 . S
C534 H557 0.929 . S
C535 C534 1.386 . S
C535 C536 1.373 . S
C536 C535 1.373 . S
C536 C537 1.409 . S
C536 H558 0.931 . S
C537 C532 1.356 . S
C537 C536 1.409 . S
C537 H559 0.930 . S
C538 O548 1.270 . S
C538 O549 1.248 . S
C539 O550 1.267 . S
C539 O551 1.278 1_556 S
O540 Pr520 2.562 . S
O540 C522 1.254 . S
O541 Pr520 2.490 . S
O541 C522 1.225 . S
O542 Pr520 2.695 . S
O542 Pr521 2.436 1_556 S
O542 C529 1.270 . S
O543 Pr520 2.512 . S
O543 C529 1.248 . S
O544 Pr521 2.438 1_556 S
O544 C530 1.267 . S
O545 Pr520 2.437 . S
O545 C530 1.278 . S
O546 Pr521 2.562 . S
O546 C531 1.254 . S
O547 Pr521 2.490 . S
O547 C531 1.225 . S
O548 Pr520 2.436 . S
O548 Pr521 2.695 1_556 S
O548 C538 1.270 . S
O549 Pr521 2.512 1_556 S
O549 C538 1.248 . S
O550 Pr520 2.438 . S
O550 C539 1.267 . S
O551 Pr521 2.437 . S
O551 C539 1.278 1_554 S
H552 C524 0.929 . S
H553 C525 0.929 . S
H554 C527 0.931 . S
H555 C528 0.930 . S
H556 C533 0.929 . S
H557 C534 0.929 . S
H558 C536 0.931 . S
H559 C537 0.930 . S
Pr560 C562 2.880 . S
Pr560 O580 2.562 . S
Pr560 O581 2.490 . S
Pr560 O582 2.695 . S
Pr560 O583 2.512 . S
Pr560 O585 2.437 . S
Pr560 O588 2.436 . S
Pr560 O590 2.438 . S
Pr561 C571 2.880 . S
Pr561 O582 2.436 . S
Pr561 O584 2.438 . S
Pr561 O586 2.562 . S
Pr561 O587 2.490 . S
Pr561 O588 2.695 . S
Pr561 O589 2.512 . S
Pr561 O591 2.437 . S
C562 Pr560 2.880 . S
C562 C563 1.491 . S
C562 O580 1.254 . S
C562 O581 1.225 . S
C563 C562 1.491 . S
C563 C564 1.392 . S
C563 C568 1.356 . S
C564 C563 1.392 . S
C564 C565 1.368 . S
C564 H592 0.929 . S
C565 C564 1.368 . S
C565 C566 1.386 . S
C565 H593 0.929 . S
C566 C565 1.386 . S
C566 C567 1.373 . S
C567 C566 1.373 . S
C567 C568 1.409 . S
C567 H594 0.931 . S
C568 C563 1.356 . S
C568 C567 1.409 . S
C568 H595 0.930 . S
C569 O582 1.270 . S
C569 O583 1.248 . S
C570 O584 1.267 . S
C570 O585 1.278 . S
C571 Pr561 2.880 . S
C571 C572 1.491 . S
C571 O586 1.254 . S
C571 O587 1.225 . S
C572 C571 1.491 . S
C572 C573 1.392 . S
C572 C577 1.356 . S
C573 C572 1.392 . S
C573 C574 1.368 . S
C573 H596 0.929 . S
C574 C573 1.368 . S
C574 C575 1.386 . S
C574 H597 0.929 . S
C575 C574 1.386 . S
C575 C576 1.373 . S
C576 C575 1.373 . S
C576 C577 1.409 . S
C576 H598 0.931 . S
C577 C572 1.356 . S
C577 C576 1.409 . S
C577 H599 0.930 . S
C578 O588 1.270 . S
C578 O589 1.248 . S
C579 O590 1.267 . S
C579 O591 1.278 . S
O580 Pr560 2.562 . S
O580 C562 1.254 . S
O581 Pr560 2.490 . S
O581 C562 1.225 . S
O582 Pr560 2.695 . S
O582 Pr561 2.436 . S
O582 C569 1.270 . S
O583 Pr560 2.512 . S
O583 C569 1.248 . S
O584 Pr561 2.438 . S
O584 C570 1.267 . S
O585 Pr560 2.437 . S
O585 C570 1.278 . S
O586 Pr561 2.562 . S
O586 C571 1.254 . S
O587 Pr561 2.490 . S
O587 C571 1.225 . S
O588 Pr560 2.436 . S
O588 Pr561 2.695 . S
O588 C578 1.270 . S
O589 Pr561 2.512 . S
O589 C578 1.248 . S
O590 Pr560 2.438 . S
O590 C579 1.267 . S
O591 Pr561 2.437 . S
O591 C579 1.278 . S
H592 C564 0.929 . S
H593 C565 0.929 . S
H594 C567 0.931 . S
H595 C568 0.930 . S
H596 C573 0.929 . S
H597 C574 0.929 . S
H598 C576 0.931 . S
H599 C577 0.930 . S
Pr600 C602 2.880 . S
Pr600 O620 2.562 . S
Pr600 O621 2.490 . S
Pr600 O622 2.695 . S
Pr600 O623 2.512 . S
Pr600 O625 2.437 . S
Pr600 O628 2.436 . S
Pr600 O630 2.438 . S
Pr601 C611 2.880 . S
Pr601 O622 2.436 . S
Pr601 O624 2.438 . S
Pr601 O626 2.562 . S
Pr601 O627 2.490 . S
Pr601 O628 2.695 . S
Pr601 O629 2.512 . S
Pr601 O631 2.437 . S
C602 Pr600 2.880 . S
C602 C603 1.491 . S
C602 O620 1.254 . S
C602 O621 1.225 . S
C603 C602 1.491 . S
C603 C604 1.392 . S
C603 C608 1.356 . S
C604 C603 1.392 . S
C604 C605 1.368 . S
C604 H632 0.929 . S
C605 C604 1.368 . S
C605 C606 1.386 . S
C605 H633 0.929 . S
C606 C605 1.386 . S
C606 C607 1.373 . S
C607 C606 1.373 . S
C607 C608 1.409 . S
C607 H634 0.931 . S
C608 C603 1.356 . S
C608 C607 1.409 . S
C608 H635 0.930 . S
C609 O622 1.270 . S
C609 O623 1.248 . S
C610 O624 1.267 . S
C610 O625 1.278 . S
C611 Pr601 2.880 . S
C611 C612 1.491 . S
C611 O626 1.254 . S
C611 O627 1.225 . S
C612 C611 1.491 . S
C612 C613 1.392 . S
C612 C617 1.356 . S
C613 C612 1.392 . S
C613 C614 1.368 . S
C613 H636 0.929 . S
C614 C613 1.368 . S
C614 C615 1.386 . S
C614 H637 0.929 . S
C615 C614 1.386 . S
C615 C616 1.373 . S
C616 C615 1.373 . S
C616 C617 1.409 . S
C616 H638 0.931 . S
C617 C612 1.356 . S
C617 C616 1.409 . S
C617 H639 0.930 . S
C618 O628 1.270 . S
C618 O629 1.248 . S
C619 O630 1.267 . S
C619 O631 1.278 . S
O620 Pr600 2.562 . S
O620 C602 1.254 . S
O621 Pr600 2.490 . S
O621 C602 1.225 . S
O622 Pr600 2.695 . S
O622 Pr601 2.436 . S
O622 C609 1.270 . S
O623 Pr600 2.512 . S
O623 C609 1.248 . S
O624 Pr601 2.438 . S
O624 C610 1.267 . S
O625 Pr600 2.437 . S
O625 C610 1.278 . S
O626 Pr601 2.562 . S
O626 C611 1.254 . S
O627 Pr601 2.490 . S
O627 C611 1.225 . S
O628 Pr600 2.436 . S
O628 Pr601 2.695 . S
O628 C618 1.270 . S
O629 Pr601 2.512 . S
O629 C618 1.248 . S
O630 Pr600 2.438 . S
O630 C619 1.267 . S
O631 Pr601 2.437 . S
O631 C619 1.278 . S
H632 C604 0.929 . S
H633 C605 0.929 . S
H634 C607 0.931 . S
H635 C608 0.930 . S
H636 C613 0.929 . S
H637 C614 0.929 . S
H638 C616 0.931 . S
H639 C617 0.930 . S
H640 C646 0.930 . S
H641 C650 0.930 . S
H642 C655 0.929 . S
H643 C653 0.929 . S
H644 C648 0.929 . S
H645 C654 0.929 . S
C646 H640 0.930 . S
C646 C647 1.367 . S
C646 C654 1.378 . S
C647 C646 1.367 . S
C647 C655 1.433 . S
C648 H644 0.929 . S
C648 C650 1.378 . S
C648 C652 1.350 . S
C649 C652 1.463 . S
C649 C654 1.350 . S
C649 N657 1.427 . S
C650 H641 0.930 . S
C650 C648 1.378 . S
C650 C651 1.367 . S
C651 C650 1.367 . S
C651 C653 1.433 . S
C652 C648 1.350 . S
C652 C649 1.463 . S
C652 N656 1.427 . S
C653 H643 0.929 . S
C653 C651 1.433 . S
C653 N656 1.384 . S
C654 H645 0.929 . S
C654 C646 1.378 . S
C654 C649 1.350 . S
C655 H642 0.929 . S
C655 C647 1.433 . S
C655 N657 1.384 . S
N656 C652 1.427 . S
N656 C653 1.384 . S
N657 C649 1.427 . S
N657 C655 1.384 . S
H658 C664 0.930 . S
H659 C668 0.930 . S
H660 C673 0.929 . S
H661 C671 0.929 . S
H662 C666 0.929 . S
H663 C672 0.929 . S
C664 H658 0.930 . S
C664 C665 1.367 . S
C664 C672 1.378 1_554 S
C665 C664 1.367 . S
C665 C673 1.433 . S
C666 H662 0.929 . S
C666 C668 1.378 . S
C666 C670 1.350 . S
C667 C670 1.463 . S
C667 C672 1.350 . S
C667 N675 1.428 . S
C668 H659 0.930 . S
C668 C666 1.378 . S
C668 C669 1.367 . S
C669 C668 1.367 . S
C669 C671 1.433 . S
C670 C666 1.350 . S
C670 C667 1.463 . S
C670 N674 1.427 . S
C671 H661 0.929 . S
C671 C669 1.433 . S
C671 N674 1.384 . S
C672 H663 0.929 . S
C672 C664 1.378 1_556 S
C672 C667 1.350 . S
C673 H660 0.929 . S
C673 C665 1.433 . S
C673 N675 1.382 1_554 S
N674 C670 1.427 . S
N674 C671 1.384 . S
N675 C667 1.428 . S
N675 C673 1.382 1_556 S
H676 C682 0.930 . S
H677 C686 0.930 . S
H678 C691 0.929 . S
H679 C689 0.929 . S
H680 C684 0.929 1_554 S
H681 C690 0.929 . S
C682 H676 0.930 . S
C682 C683 1.367 . S
C682 C690 1.378 . S
C683 C682 1.367 . S
C683 C691 1.433 . S
C684 H680 0.929 1_556 S
C684 C686 1.378 . S
C684 C688 1.350 1_556 S
C685 C688 1.463 . S
C685 C690 1.350 . S
C685 N693 1.427 . S
C686 H677 0.930 . S
C686 C684 1.378 . S
C686 C687 1.367 . S
C687 C686 1.367 . S
C687 C689 1.433 . S
C688 C684 1.350 1_554 S
C688 C685 1.463 . S
C688 N692 1.427 . S
C689 H679 0.929 . S
C689 C687 1.433 . S
C689 N692 1.384 1_556 S
C690 H681 0.929 . S
C690 C682 1.378 . S
C690 C685 1.350 . S
C691 H678 0.929 . S
C691 C683 1.433 . S
C691 N693 1.384 . S
N692 C688 1.427 . S
N692 C689 1.384 1_554 S
N693 C685 1.427 . S
N693 C691 1.384 . S
H694 C700 0.930 . S
H695 C704 0.930 . S
H696 C709 0.929 . S
H697 C707 0.929 . S
H698 C702 0.929 . S
H699 C708 0.929 . S
C700 H694 0.930 . S
C700 C701 1.367 . S
C700 C708 1.378 . S
C701 C700 1.367 . S
C701 C709 1.433 . S
C702 H698 0.929 . S
C702 C704 1.378 . S
C702 C706 1.350 . S
C703 C706 1.463 . S
C703 C708 1.350 . S
C703 N711 1.427 . S
C704 H695 0.930 . S
C704 C702 1.378 . S
C704 C705 1.367 . S
C705 C704 1.367 . S
C705 C707 1.433 . S
C706 C702 1.350 . S
C706 C703 1.463 . S
C706 N710 1.427 . S
C707 H697 0.929 . S
C707 C705 1.433 . S
C707 N710 1.384 . S
C708 H699 0.929 . S
C708 C700 1.378 . S
C708 C703 1.350 . S
C709 H696 0.929 . S
C709 C701 1.433 . S
C709 N711 1.384 . S
N710 C706 1.427 . S
N710 C707 1.384 . S
N711 C703 1.427 . S
N711 C709 1.384 . S
H712 C718 0.930 . S
H713 C722 0.930 . S
H714 C727 0.929 . S
H715 C725 0.929 . S
H716 C720 0.929 . S
H717 C726 0.929 . S
C718 H712 0.930 . S
C718 C719 1.367 . S
C718 C726 1.378 . S
C719 C718 1.367 . S
C719 C727 1.433 . S
C720 H716 0.929 . S
C720 C722 1.378 . S
C720 C724 1.350 . S
C721 C724 1.463 . S
C721 C726 1.350 . S
C721 N729 1.427 . S
C722 H713 0.930 . S
C722 C720 1.378 . S
C722 C723 1.367 . S
C723 C722 1.367 . S
C723 C725 1.433 . S
C724 C720 1.350 . S
C724 C721 1.463 . S
C724 N728 1.427 . S
C725 H715 0.929 . S
C725 C723 1.433 . S
C725 N728 1.384 . S
C726 H717 0.929 . S
C726 C718 1.378 . S
C726 C721 1.350 . S
C727 H714 0.929 . S
C727 C719 1.433 . S
C727 N729 1.384 . S
N728 C724 1.427 . S
N728 C725 1.384 . S
N729 C721 1.427 . S
N729 C727 1.384 . S
H730 C736 0.930 . S
H731 C740 0.930 . S
H732 C745 0.929 . S
H733 C743 0.929 . S
H734 C738 0.929 . S
H735 C744 0.929 . S
C736 H730 0.930 . S
C736 C737 1.367 . S
C736 C744 1.378 . S
C737 C736 1.367 . S
C737 C745 1.433 . S
C738 H734 0.929 . S
C738 C740 1.378 . S
C738 C742 1.350 . S
C739 C742 1.463 . S
C739 C744 1.350 . S
C739 N747 1.427 . S
C740 H731 0.930 . S
C740 C738 1.378 . S
C740 C741 1.367 . S
C741 C740 1.367 . S
C741 C743 1.433 . S
C742 C738 1.350 . S
C742 C739 1.463 . S
C742 N746 1.427 . S
C743 H733 0.929 . S
C743 C741 1.433 . S
C743 N746 1.384 . S
C744 H735 0.929 . S
C744 C736 1.378 . S
C744 C739 1.350 . S
C745 H732 0.929 . S
C745 C737 1.433 . S
C745 N747 1.384 . S
N746 C742 1.427 . S
N746 C743 1.384 . S
N747 C739 1.427 . S
N747 C745 1.384 . S
H748 C754 0.930 . S
H749 C758 0.930 . S
H750 C763 0.929 . S
H751 C761 0.929 . S
H752 C756 0.929 . S
H753 C762 0.929 . S
C754 H748 0.930 . S
C754 C755 1.367 . S
C754 C762 1.378 . S
C755 C754 1.367 . S
C755 C763 1.433 . S
C756 H752 0.929 . S
C756 C758 1.378 1_556 S
C756 C760 1.350 . S
C757 C760 1.463 . S
C757 C762 1.350 . S
C757 N765 1.427 . S
C758 H749 0.930 . S
C758 C756 1.378 1_554 S
C758 C759 1.367 . S
C759 C758 1.367 . S
C759 C761 1.433 . S
C760 C756 1.350 . S
C760 C757 1.463 . S
C760 N764 1.427 . S
C761 H751 0.929 . S
C761 C759 1.433 . S
C761 N764 1.384 1_554 S
C762 H753 0.929 . S
C762 C754 1.378 . S
C762 C757 1.350 . S
C763 H750 0.929 . S
C763 C755 1.433 . S
C763 N765 1.384 . S
N764 C760 1.427 . S
N764 C761 1.384 1_556 S
N765 C757 1.427 . S
N765 C763 1.384 . S
H766 C772 0.930 . S
H767 C776 0.930 . S
H768 C781 0.929 . S
H769 C779 0.929 . S
H770 C774 0.929 . S
H771 C780 0.929 . S
C772 H766 0.930 . S
C772 C773 1.367 . S
C772 C780 1.378 1_556 S
C773 C772 1.367 . S
C773 C781 1.433 . S
C774 H770 0.929 . S
C774 C776 1.378 . S
C774 C778 1.350 . S
C775 C778 1.463 . S
C775 C780 1.350 . S
C775 N783 1.427 . S
C776 H767 0.930 . S
C776 C774 1.378 . S
C776 C777 1.367 . S
C777 C776 1.367 . S
C777 C779 1.433 . S
C778 C774 1.350 . S
C778 C775 1.463 . S
C778 N782 1.427 . S
C779 H769 0.929 . S
C779 C777 1.433 . S
C779 N782 1.384 . S
C780 H771 0.929 . S
C780 C772 1.378 1_554 S
C780 C775 1.350 . S
C781 H768 0.929 . S
C781 C773 1.433 . S
C781 N783 1.384 1_556 S
N782 C778 1.427 . S
N782 C779 1.384 . S
N783 C775 1.427 . S
N783 C781 1.384 1_554 S
H784 C790 0.930 . S
H785 C794 0.930 . S
H786 C799 0.929 . S
H787 C797 0.929 . S
H788 C792 0.929 . S
H789 C798 0.929 . S
C790 H784 0.930 . S
C790 C791 1.367 . S
C790 C798 1.378 . S
C791 C790 1.367 . S
C791 C799 1.433 . S
C792 H788 0.929 . S
C792 C794 1.378 . S
C792 C796 1.350 . S
C793 C796 1.463 . S
C793 C798 1.350 . S
C793 N801 1.427 . S
C794 H785 0.930 . S
C794 C792 1.378 . S
C794 C795 1.367 . S
C795 C794 1.367 . S
C795 C797 1.433 . S
C796 C792 1.350 . S
C796 C793 1.463 . S
C796 N800 1.427 . S
C797 H787 0.929 . S
C797 C795 1.433 . S
C797 N800 1.384 . S
C798 H789 0.929 . S
C798 C790 1.378 . S
C798 C793 1.350 . S
C799 H786 0.929 . S
C799 C791 1.433 . S
C799 N801 1.384 . S
N800 C796 1.427 . S
N800 C797 1.384 . S
N801 C793 1.427 . S
N801 C799 1.384 . S
H802 C808 0.930 . S
H803 C812 0.930 . S
H804 C817 0.929 . S
H805 C815 0.929 . S
H806 C810 0.929 1_554 S
H807 C816 0.929 . S
C808 H802 0.930 . S
C808 C809 1.367 . S
C808 C816 1.378 . S
C809 C808 1.367 . S
C809 C817 1.433 . S
C810 H806 0.929 1_556 S
C810 C812 1.378 . S
C810 C814 1.350 1_556 S
C811 C814 1.463 . S
C811 C816 1.350 . S
C811 N819 1.427 . S
C812 H803 0.930 . S
C812 C810 1.378 . S
C812 C813 1.367 . S
C813 C812 1.367 . S
C813 C815 1.433 . S
C814 C810 1.350 1_554 S
C814 C811 1.463 . S
C814 N818 1.427 . S
C815 H805 0.929 . S
C815 C813 1.433 . S
C815 N818 1.384 1_556 S
C816 H807 0.929 . S
C816 C808 1.378 . S
C816 C811 1.350 . S
C817 H804 0.929 . S
C817 C809 1.433 . S
C817 N819 1.384 . S
N818 C814 1.427 . S
N818 C815 1.384 1_554 S
N819 C811 1.427 . S
N819 C817 1.384 . S
H820 C826 0.930 . S
H821 C830 0.930 . S
H822 C835 0.929 . S
H823 C833 0.929 . S
H824 C828 0.929 . S
H825 C834 0.929 . S
C826 H820 0.930 . S
C826 C827 1.367 . S
C826 C834 1.378 1_554 S
C827 C826 1.367 . S
C827 C835 1.433 . S
C828 H824 0.929 . S
C828 C830 1.378 . S
C828 C832 1.350 . S
C829 C832 1.463 . S
C829 C834 1.350 . S
C829 N837 1.433 . S
C830 H821 0.930 . S
C830 C828 1.378 . S
C830 C831 1.367 . S
C831 C830 1.367 . S
C831 C833 1.433 . S
C832 C828 1.350 . S
C832 C829 1.463 . S
C832 N836 1.427 . S
C833 H823 0.929 . S
C833 C831 1.433 . S
C833 N836 1.384 . S
C834 H825 0.929 . S
C834 C826 1.378 1_556 S
C834 C829 1.350 . S
C835 H822 0.929 . S
C835 C827 1.433 . S
C835 N837 1.374 1_554 S
N836 C832 1.427 . S
N836 C833 1.384 . S
N837 C829 1.433 . S
N837 C835 1.374 1_556 S
H838 C844 0.930 . S
H839 C848 0.930 . S
H840 C853 0.929 . S
H841 C851 0.929 . S
H842 C846 0.929 . S
H843 C852 0.929 . S
C844 H838 0.930 . S
C844 C845 1.367 . S
C844 C852 1.378 . S
C845 C844 1.367 . S
C845 C853 1.433 . S
C846 H842 0.929 . S
C846 C848 1.378 . S
C846 C850 1.350 . S
C847 C850 1.463 . S
C847 C852 1.350 . S
C847 N855 1.427 . S
C848 H839 0.930 . S
C848 C846 1.378 . S
C848 C849 1.367 . S
C849 C848 1.367 . S
C849 C851 1.433 . S
C850 C846 1.350 . S
C850 C847 1.463 . S
C850 N854 1.427 . S
C851 H841 0.929 . S
C851 C849 1.433 . S
C851 N854 1.384 . S
C852 H843 0.929 . S
C852 C844 1.378 . S
C852 C847 1.350 . S
C853 H840 0.929 . S
C853 C845 1.433 . S
C853 N855 1.384 . S
N854 C850 1.427 . S
N854 C851 1.384 . S
N855 C847 1.427 . S
N855 C853 1.384 . S
H856 C862 0.930 . S
H857 C866 0.930 . S
H858 C871 0.929 . S
H859 C869 0.929 . S
H860 C864 0.929 . S
H861 C870 0.929 . S
C862 H856 0.930 . S
C862 C863 1.367 . S
C862 C870 1.378 . S
C863 C862 1.367 . S
C863 C871 1.433 . S
C864 H860 0.929 . S
C864 C866 1.378 . S
C864 C868 1.350 . S
C865 C868 1.463 . S
C865 C870 1.350 . S
C865 N873 1.427 . S
C866 H857 0.930 . S
C866 C864 1.378 . S
C866 C867 1.367 . S
C867 C866 1.367 . S
C867 C869 1.433 . S
C868 C864 1.350 . S
C868 C865 1.463 . S
C868 N872 1.427 . S
C869 H859 0.929 . S
C869 C867 1.433 . S
C869 N872 1.384 . S
C870 H861 0.929 . S
C870 C862 1.378 . S
C870 C865 1.350 . S
C871 H858 0.929 . S
C871 C863 1.433 . S
C871 N873 1.384 . S
N872 C868 1.427 . S
N872 C869 1.384 . S
N873 C865 1.427 . S
N873 C871 1.384 . S
H874 C880 0.930 . S
H875 C884 0.930 . S
H876 C889 0.929 . S
H877 C887 0.929 . S
H878 C882 0.929 . S
H879 C888 0.929 . S
C880 H874 0.930 . S
C880 C881 1.367 . S
C880 C888 1.378 . S
C881 C880 1.367 . S
C881 C889 1.433 . S
C882 H878 0.929 . S
C882 C884 1.378 . S
C882 C886 1.350 . S
C883 C886 1.463 . S
C883 C888 1.350 . S
C883 N891 1.427 . S
C884 H875 0.930 . S
C884 C882 1.378 . S
C884 C885 1.367 . S
C885 C884 1.367 . S
C885 C887 1.433 . S
C886 C882 1.350 . S
C886 C883 1.463 . S
C886 N890 1.427 . S
C887 H877 0.929 . S
C887 C885 1.433 . S
C887 N890 1.384 . S
C888 H879 0.929 . S
C888 C880 1.378 . S
C888 C883 1.350 . S
C889 H876 0.929 . S
C889 C881 1.433 . S
C889 N891 1.384 . S
N890 C886 1.427 . S
N890 C887 1.384 . S
N891 C883 1.427 . S
N891 C889 1.384 . S
H892 C898 0.930 . S
H893 C902 0.930 . S
H894 C907 0.929 . S
H895 C905 0.929 . S
H896 C900 0.929 . S
H897 C906 0.929 . S
C898 H892 0.930 . S
C898 C899 1.367 . S
C898 C906 1.378 . S
C899 C898 1.367 . S
C899 C907 1.433 . S
C900 H896 0.929 . S
C900 C902 1.378 1_554 S
C900 C904 1.350 . S
C901 C904 1.463 . S
C901 C906 1.350 . S
C901 N909 1.427 . S
C902 H893 0.930 . S
C902 C900 1.378 1_556 S
C902 C903 1.367 . S
C903 C902 1.367 . S
C903 C905 1.433 . S
C904 C900 1.350 . S
C904 C901 1.463 . S
C904 N908 1.427 . S
C905 H895 0.929 . S
C905 C903 1.433 . S
C905 N908 1.384 1_556 S
C906 H897 0.929 . S
C906 C898 1.378 . S
C906 C901 1.350 . S
C907 H894 0.929 . S
C907 C899 1.433 . S
C907 N909 1.384 . S
N908 C904 1.427 . S
N908 C905 1.384 1_554 S
N909 C901 1.427 . S
N909 C907 1.384 . S
H910 C916 0.930 . S
H911 C920 0.930 . S
H912 C925 0.929 . S
H913 C923 0.929 . S
H914 C918 0.929 . S
H915 C924 0.929 . S
C916 H910 0.930 . S
C916 C917 1.367 . S
C916 C924 1.378 1_554 S
C917 C916 1.367 . S
C917 C925 1.433 . S
C918 H914 0.929 . S
C918 C920 1.378 . S
C918 C922 1.350 . S
C919 C922 1.463 . S
C919 C924 1.350 . S
C919 N927 1.427 . S
C920 H911 0.930 . S
C920 C918 1.378 . S
C920 C921 1.367 . S
C921 C920 1.367 . S
C921 C923 1.433 . S
C922 C918 1.350 . S
C922 C919 1.463 . S
C922 N926 1.427 . S
C923 H913 0.929 . S
C923 C921 1.433 . S
C923 N926 1.384 . S
C924 H915 0.929 . S
C924 C916 1.378 1_556 S
C924 C919 1.350 . S
C925 H912 0.929 . S
C925 C917 1.433 . S
C925 N927 1.384 1_554 S
N926 C922 1.427 . S
N926 C923 1.384 . S
N927 C919 1.427 . S
N927 C925 1.384 1_556 S
H928 C934 0.930 . S
H929 C938 0.917 1_556 S
H930 C943 0.929 1_556 S
H931 C941 0.929 . S
H932 C936 0.916 1_556 S
H933 C942 0.929 . S
C934 H928 0.930 . S
C934 C935 1.367 . S
C934 C942 1.378 . S
C935 C934 1.367 . S
C935 C943 1.433 . S
C936 H932 0.916 1_554 S
C936 C938 1.378 . S
C936 C940 1.350 . S
C937 C940 1.463 . S
C937 C942 1.350 . S
C937 N945 1.427 . S
C938 H929 0.917 1_554 S
C938 C936 1.378 . S
C938 C939 1.367 . S
C939 C938 1.367 . S
C939 C941 1.433 . S
C940 C936 1.350 . S
C940 C937 1.463 . S
C940 N944 1.427 . S
C941 H931 0.929 . S
C941 C939 1.433 . S
C941 N944 1.384 . S
C942 H933 0.929 . S
C942 C934 1.378 . S
C942 C937 1.350 . S
C943 H930 0.929 1_554 S
C943 C935 1.433 . S
C943 N945 1.384 . S
N944 C940 1.427 . S
N944 C941 1.384 . S
N945 C937 1.427 . S
N945 C943 1.384 . S
H946 C952 0.930 . S
H947 C956 0.930 . S
H948 C961 0.929 . S
H949 C959 0.929 . S
H950 C954 0.929 . S
H951 C960 0.929 . S
C952 H946 0.930 . S
C952 C953 1.367 . S
C952 C960 1.378 . S
C953 C952 1.367 . S
C953 C961 1.433 . S
C954 H950 0.929 . S
C954 C956 1.378 . S
C954 C958 1.350 . S
C955 C958 1.463 . S
C955 C960 1.350 . S
C955 N963 1.427 . S
C956 H947 0.930 . S
C956 C954 1.378 . S
C956 C957 1.367 . S
C957 C956 1.367 . S
C957 C959 1.433 . S
C958 C954 1.350 . S
C958 C955 1.463 . S
C958 N962 1.427 . S
C959 H949 0.929 . S
C959 C957 1.433 . S
C959 N962 1.384 . S
C960 H951 0.929 . S
C960 C952 1.378 . S
C960 C955 1.350 . S
C961 H948 0.929 . S
C961 C953 1.433 . S
C961 N963 1.384 . S
N962 C958 1.427 . S
N962 C959 1.384 . S
N963 C955 1.427 . S
N963 C961 1.384 . S
H964 C970 0.930 . S
H965 C974 0.930 . S
H966 C979 0.929 . S
H967 C977 0.929 . S
H968 C972 0.929 . S
H969 C978 0.929 . S
C970 H964 0.930 . S
C970 C971 1.367 . S
C970 C978 1.378 . S
C971 C970 1.367 . S
C971 C979 1.433 . S
C972 H968 0.929 . S
C972 C974 1.378 . S
C972 C976 1.350 . S
C973 C976 1.463 . S
C973 C978 1.350 . S
C973 N981 1.427 . S
C974 H965 0.930 . S
C974 C972 1.378 . S
C974 C975 1.367 . S
C975 C974 1.367 . S
C975 C977 1.433 . S
C976 C972 1.350 . S
C976 C973 1.463 . S
C976 N980 1.427 . S
C977 H967 0.929 . S
C977 C975 1.433 . S
C977 N980 1.384 . S
C978 H969 0.929 . S
C978 C970 1.378 . S
C978 C973 1.350 . S
C979 H966 0.929 . S
C979 C971 1.433 . S
C979 N981 1.384 . S
N980 C976 1.427 . S
N980 C977 1.384 . S
N981 C973 1.427 . S
N981 C979 1.384 . S
H982 C988 0.930 . S
H983 C992 0.930 . S
H984 C997 0.929 . S
H985 C995 0.929 . S
H986 C990 0.929 . S
H987 C996 0.929 . S
C988 H982 0.930 . S
C988 C989 1.367 . S
C988 C996 1.378 . S
C989 C988 1.367 . S
C989 C997 1.433 1_554 S
C990 H986 0.929 . S
C990 C992 1.378 . S
C990 C994 1.350 1_556 S
C991 C994 1.463 1_655 S
C991 C996 1.350 . S
C991 N999 1.427 1_554 S
C992 H983 0.930 . S
C992 C990 1.378 . S
C992 C993 1.367 1_556 S
C993 C992 1.367 1_554 S
C993 C995 1.433 . S
C994 C990 1.350 1_554 S
C994 C991 1.463 1_455 S
C994 N998 1.427 . S
C995 H985 0.929 . S
C995 C993 1.433 . S
C995 N998 1.384 . S
C996 H987 0.929 . S
C996 C988 1.378 . S
C996 C991 1.350 . S
C997 H984 0.929 . S
C997 C989 1.433 1_556 S
C997 N999 1.384 . S
N998 C994 1.427 . S
N998 C995 1.384 . S
N999 C991 1.427 1_556 S
N999 C997 1.384 . S
H1000 C1006 0.930 . S
H1001 C1010 0.930 . S
H1002 C1015 0.929 . S
H1003 C1013 0.929 . S
H1004 C1008 0.929 . S
H1005 C1014 0.929 . S
C1006 H1000 0.930 . S
C1006 C1007 1.367 . S
C1006 C1014 1.378 . S
C1007 C1006 1.367 . S
C1007 C1015 1.433 . S
C1008 H1004 0.929 . S
C1008 C1010 1.378 . S
C1008 C1012 1.350 . S
C1009 C1012 1.463 . S
C1009 C1014 1.350 . S
C1009 N1017 1.427 . S
C1010 H1001 0.930 . S
C1010 C1008 1.378 . S
C1010 C1011 1.367 . S
C1011 C1010 1.367 . S
C1011 C1013 1.433 . S
C1012 C1008 1.350 . S
C1012 C1009 1.463 . S
C1012 N1016 1.427 . S
C1013 H1003 0.929 . S
C1013 C1011 1.433 . S
C1013 N1016 1.384 . S
C1014 H1005 0.929 . S
C1014 C1006 1.378 . S
C1014 C1009 1.350 . S
C1015 H1002 0.929 . S
C1015 C1007 1.433 . S
C1015 N1017 1.384 . S
N1016 C1012 1.427 . S
N1016 C1013 1.384 . S
N1017 C1009 1.427 . S
N1017 C1015 1.384 . S
H1018 C1024 0.930 . S
H1019 C1028 0.930 . S
H1020 C1033 0.929 . S
H1021 C1031 0.929 . S
H1022 C1026 0.929 . S
H1023 C1032 0.929 . S
C1024 H1018 0.930 . S
C1024 C1025 1.367 1_554 S
C1024 C1032 1.378 . S
C1025 C1024 1.367 1_556 S
C1025 C1033 1.433 . S
C1026 H1022 0.929 . S
C1026 C1028 1.378 . S
C1026 C1030 1.350 . S
C1027 C1030 1.463 1_455 S
C1027 C1032 1.350 1_556 S
C1027 N1035 1.427 . S
C1028 H1019 0.930 . S
C1028 C1026 1.378 . S
C1028 C1029 1.367 . S
C1029 C1028 1.367 . S
C1029 C1031 1.433 1_556 S
C1030 C1026 1.350 . S
C1030 C1027 1.463 1_655 S
C1030 N1034 1.427 1_556 S
C1031 H1021 0.929 . S
C1031 C1029 1.433 1_554 S
C1031 N1034 1.384 . S
C1032 H1023 0.929 . S
C1032 C1024 1.378 . S
C1032 C1027 1.350 1_554 S
C1033 H1020 0.929 . S
C1033 C1025 1.433 . S
C1033 N1035 1.384 . S
N1034 C1030 1.427 1_554 S
N1034 C1031 1.384 . S
N1035 C1027 1.427 . S
N1035 C1033 1.384 . S
H1036 C1042 0.930 . S
H1037 C1046 0.930 . S
H1038 C1051 0.929 . S
H1039 C1049 0.929 . S
H1040 C1044 0.929 . S
H1041 C1050 0.929 . S
C1042 H1036 0.930 . S
C1042 C1043 1.367 . S
C1042 C1050 1.378 . S
C1043 C1042 1.367 . S
C1043 C1051 1.433 . S
C1044 H1040 0.929 . S
C1044 C1046 1.378 . S
C1044 C1048 1.350 . S
C1045 C1048 1.463 . S
C1045 C1050 1.350 . S
C1045 N1053 1.427 . S
C1046 H1037 0.930 . S
C1046 C1044 1.378 . S
C1046 C1047 1.367 . S
C1047 C1046 1.367 . S
C1047 C1049 1.433 . S
C1048 C1044 1.350 . S
C1048 C1045 1.463 . S
C1048 N1052 1.427 . S
C1049 H1039 0.929 . S
C1049 C1047 1.433 . S
C1049 N1052 1.384 . S
C1050 H1041 0.929 . S
C1050 C1042 1.378 . S
C1050 C1045 1.350 . S
C1051 H1038 0.929 . S
C1051 C1043 1.433 . S
C1051 N1053 1.384 . S
N1052 C1048 1.427 . S
N1052 C1049 1.384 . S
N1053 C1045 1.427 . S
N1053 C1051 1.384 . S
H1054 C1060 0.930 . S
H1055 C1064 0.930 . S
H1056 C1069 0.929 . S
H1057 C1067 0.929 . S
H1058 C1062 0.929 . S
H1059 C1068 0.929 . S
C1060 H1054 0.930 . S
C1060 C1061 1.367 . S
C1060 C1068 1.378 . S
C1061 C1060 1.367 . S
C1061 C1069 1.433 . S
C1062 H1058 0.929 . S
C1062 C1064 1.378 . S
C1062 C1066 1.350 . S
C1063 C1066 1.463 . S
C1063 C1068 1.350 . S
C1063 N1071 1.427 . S
C1064 H1055 0.930 . S
C1064 C1062 1.378 . S
C1064 C1065 1.367 . S
C1065 C1064 1.367 . S
C1065 C1067 1.433 . S
C1066 C1062 1.350 . S
C1066 C1063 1.463 . S
C1066 N1070 1.427 . S
C1067 H1057 0.929 . S
C1067 C1065 1.433 . S
C1067 N1070 1.384 . S
C1068 H1059 0.929 . S
C1068 C1060 1.378 . S
C1068 C1063 1.350 . S
C1069 H1056 0.929 . S
C1069 C1061 1.433 . S
C1069 N1071 1.384 . S
N1070 C1066 1.427 . S
N1070 C1067 1.384 . S
N1071 C1063 1.427 . S
N1071 C1069 1.384 . S
H1072 C1078 0.930 . S
H1073 C1082 0.930 . S
H1074 C1087 0.929 . S
H1075 C1085 0.929 . S
H1076 C1080 0.929 . S
H1077 C1086 0.929 . S
C1078 H1072 0.930 . S
C1078 C1079 1.367 . S
C1078 C1086 1.378 . S
C1079 C1078 1.367 . S
C1079 C1087 1.433 . S
C1080 H1076 0.929 . S
C1080 C1082 1.378 . S
C1080 C1084 1.350 . S
C1081 C1084 1.463 . S
C1081 C1086 1.350 . S
C1081 N1089 1.427 . S
C1082 H1073 0.930 . S
C1082 C1080 1.378 . S
C1082 C1083 1.367 . S
C1083 C1082 1.367 . S
C1083 C1085 1.433 . S
C1084 C1080 1.350 . S
C1084 C1081 1.463 . S
C1084 N1088 1.427 . S
C1085 H1075 0.929 . S
C1085 C1083 1.433 . S
C1085 N1088 1.384 . S
C1086 H1077 0.929 . S
C1086 C1078 1.378 . S
C1086 C1081 1.350 . S
C1087 H1074 0.929 . S
C1087 C1079 1.433 . S
C1087 N1089 1.384 . S
N1088 C1084 1.427 . S
N1088 C1085 1.384 . S
N1089 C1081 1.427 . S
N1089 C1087 1.384 . S
H1090 C1096 0.930 . S
H1091 C1100 0.930 . S
H1092 C1105 0.929 . S
H1093 C1103 0.929 . S
H1094 C1098 0.929 . S
H1095 C1104 0.929 . S
C1096 H1090 0.930 . S
C1096 C1097 1.367 . S
C1096 C1104 1.378 . S
C1097 C1096 1.367 . S
C1097 C1105 1.433 . S
C1098 H1094 0.929 . S
C1098 C1100 1.378 . S
C1098 C1102 1.350 . S
C1099 C1102 1.463 . S
C1099 C1104 1.350 . S
C1099 N1107 1.427 . S
C1100 H1091 0.930 . S
C1100 C1098 1.378 . S
C1100 C1101 1.367 . S
C1101 C1100 1.367 . S
C1101 C1103 1.433 . S
C1102 C1098 1.350 . S
C1102 C1099 1.463 . S
C1102 N1106 1.427 . S
C1103 H1093 0.929 . S
C1103 C1101 1.433 . S
C1103 N1106 1.384 . S
C1104 H1095 0.929 . S
C1104 C1096 1.378 . S
C1104 C1099 1.350 . S
C1105 H1092 0.929 . S
C1105 C1097 1.433 . S
C1105 N1107 1.384 . S
N1106 C1102 1.427 . S
N1106 C1103 1.384 . S
N1107 C1099 1.427 . S
N1107 C1105 1.384 . S
H1108 C1114 0.930 . S
H1109 C1118 0.930 1_556 S
H1110 C1123 0.929 1_556 S
H1111 C1121 0.929 . S
H1112 C1116 0.929 1_556 S
H1113 C1122 0.929 . S
C1114 H1108 0.930 . S
C1114 C1115 1.367 . S
C1114 C1122 1.378 . S
C1115 C1114 1.367 . S
C1115 C1123 1.433 . S
C1116 H1112 0.929 1_554 S
C1116 C1118 1.378 . S
C1116 C1120 1.350 . S
C1117 C1120 1.463 . S
C1117 C1122 1.350 . S
C1117 N1125 1.427 . S
C1118 H1109 0.930 1_554 S
C1118 C1116 1.378 . S
C1118 C1119 1.367 . S
C1119 C1118 1.367 . S
C1119 C1121 1.433 . S
C1120 C1116 1.350 . S
C1120 C1117 1.463 . S
C1120 N1124 1.427 . S
C1121 H1111 0.929 . S
C1121 C1119 1.433 . S
C1121 N1124 1.384 . S
C1122 H1113 0.929 . S
C1122 C1114 1.378 . S
C1122 C1117 1.350 . S
C1123 H1110 0.929 1_554 S
C1123 C1115 1.433 . S
C1123 N1125 1.384 . S
N1124 C1120 1.427 . S
N1124 C1121 1.384 . S
N1125 C1117 1.427 . S
N1125 C1123 1.384 . S
H1126 C1132 0.930 . S
H1127 C1136 0.930 . S
H1128 C1141 0.929 . S
H1129 C1139 0.929 . S
H1130 C1134 0.929 . S
H1131 C1140 0.929 . S
C1132 H1126 0.930 . S
C1132 C1133 1.367 . S
C1132 C1140 1.378 . S
C1133 C1132 1.367 . S
C1133 C1141 1.433 . S
C1134 H1130 0.929 . S
C1134 C1136 1.378 . S
C1134 C1138 1.350 . S
C1135 C1138 1.463 . S
C1135 C1140 1.350 . S
C1135 N1143 1.427 . S
C1136 H1127 0.930 . S
C1136 C1134 1.378 . S
C1136 C1137 1.367 . S
C1137 C1136 1.367 . S
C1137 C1139 1.433 . S
C1138 C1134 1.350 . S
C1138 C1135 1.463 . S
C1138 N1142 1.427 . S
C1139 H1129 0.929 . S
C1139 C1137 1.433 . S
C1139 N1142 1.384 . S
C1140 H1131 0.929 . S
C1140 C1132 1.378 . S
C1140 C1135 1.350 . S
C1141 H1128 0.929 . S
C1141 C1133 1.433 . S
C1141 N1143 1.384 . S
N1142 C1138 1.427 . S
N1142 C1139 1.384 . S
N1143 C1135 1.427 . S
N1143 C1141 1.384 . S
H1144 C1150 0.930 . S
H1145 C1154 0.930 . S
H1146 C1159 0.929 . S
H1147 C1157 0.929 . S
H1148 C1152 0.929 . S
H1149 C1158 0.929 . S
C1150 H1144 0.930 . S
C1150 C1151 1.367 1_556 S
C1150 C1158 1.378 . S
C1151 C1150 1.367 1_554 S
C1151 C1159 1.433 . S
C1152 H1148 0.929 . S
C1152 C1154 1.378 . S
C1152 C1156 1.350 . S
C1153 C1156 1.463 1_655 S
C1153 C1158 1.350 1_554 S
C1153 N1161 1.427 . S
C1154 H1145 0.930 . S
C1154 C1152 1.378 . S
C1154 C1155 1.367 . S
C1155 C1154 1.367 . S
C1155 C1157 1.433 1_554 S
C1156 C1152 1.350 . S
C1156 C1153 1.463 1_455 S
C1156 N1160 1.427 1_554 S
C1157 H1147 0.929 . S
C1157 C1155 1.433 1_556 S
C1157 N1160 1.384 . S
C1158 H1149 0.929 . S
C1158 C1150 1.378 . S
C1158 C1153 1.350 1_556 S
C1159 H1146 0.929 . S
C1159 C1151 1.433 . S
C1159 N1161 1.384 . S
N1160 C1156 1.427 1_556 S
N1160 C1157 1.384 . S
N1161 C1153 1.427 . S
N1161 C1159 1.384 . S
H1162 C1168 0.930 . S
H1163 C1172 0.930 . S
H1164 C1177 0.929 . S
H1165 C1175 0.929 . S
H1166 C1170 0.929 . S
H1167 C1176 0.929 . S
C1168 H1162 0.930 . S
C1168 C1169 1.367 . S
C1168 C1176 1.378 . S
C1169 C1168 1.367 . S
C1169 C1177 1.433 . S
C1170 H1166 0.929 . S
C1170 C1172 1.378 . S
C1170 C1174 1.350 . S
C1171 C1174 1.463 . S
C1171 C1176 1.350 . S
C1171 N1179 1.427 . S
C1172 H1163 0.930 . S
C1172 C1170 1.378 . S
C1172 C1173 1.367 . S
C1173 C1172 1.367 . S
C1173 C1175 1.433 . S
C1174 C1170 1.350 . S
C1174 C1171 1.463 . S
C1174 N1178 1.427 . S
C1175 H1165 0.929 . S
C1175 C1173 1.433 . S
C1175 N1178 1.384 . S
C1176 H1167 0.929 . S
C1176 C1168 1.378 . S
C1176 C1171 1.350 . S
C1177 H1164 0.929 . S
C1177 C1169 1.433 . S
C1177 N1179 1.384 . S
N1178 C1174 1.427 . S
N1178 C1175 1.384 . S
N1179 C1171 1.427 . S
N1179 C1177 1.384 . S
H1180 C1186 0.930 . S
H1181 C1190 0.930 . S
H1182 C1195 0.929 . S
H1183 C1193 0.929 . S
H1184 C1188 0.929 . S
H1185 C1194 0.929 . S
C1186 H1180 0.930 . S
C1186 C1187 1.367 . S
C1186 C1194 1.378 . S
C1187 C1186 1.367 . S
C1187 C1195 1.433 . S
C1188 H1184 0.929 . S
C1188 C1190 1.378 . S
C1188 C1192 1.350 . S
C1189 C1192 1.463 . S
C1189 C1194 1.350 . S
C1189 N1197 1.427 . S
C1190 H1181 0.930 . S
C1190 C1188 1.378 . S
C1190 C1191 1.367 . S
C1191 C1190 1.367 . S
C1191 C1193 1.433 . S
C1192 C1188 1.350 . S
C1192 C1189 1.463 . S
C1192 N1196 1.427 . S
C1193 H1183 0.929 . S
C1193 C1191 1.433 . S
C1193 N1196 1.384 . S
C1194 H1185 0.929 . S
C1194 C1186 1.378 . S
C1194 C1189 1.350 . S
C1195 H1182 0.929 . S
C1195 C1187 1.433 . S
C1195 N1197 1.384 . S
N1196 C1192 1.427 . S
N1196 C1193 1.384 . S
N1197 C1189 1.427 . S
N1197 C1195 1.384 . S
H1198 C1204 0.930 . S
H1199 C1208 0.930 1_554 S
H1200 C1213 0.929 1_554 S
H1201 C1211 0.929 . S
H1202 C1206 0.929 1_554 S
H1203 C1212 0.929 . S
C1204 H1198 0.930 . S
C1204 C1205 1.367 . S
C1204 C1212 1.378 . S
C1205 C1204 1.367 . S
C1205 C1213 1.433 . S
C1206 H1202 0.929 1_556 S
C1206 C1208 1.378 . S
C1206 C1210 1.350 . S
C1207 C1210 1.463 1_455 S
C1207 C1212 1.350 . S
C1207 N1215 1.427 . S
C1208 H1199 0.930 1_556 S
C1208 C1206 1.378 . S
C1208 C1209 1.367 . S
C1209 C1208 1.367 . S
C1209 C1211 1.433 . S
C1210 C1206 1.350 . S
C1210 C1207 1.463 1_655 S
C1210 N1214 1.427 . S
C1211 H1201 0.929 . S
C1211 C1209 1.433 . S
C1211 N1214 1.384 . S
C1212 H1203 0.929 . S
C1212 C1204 1.378 . S
C1212 C1207 1.350 . S
C1213 H1200 0.929 1_556 S
C1213 C1205 1.433 . S
C1213 N1215 1.384 . S
N1214 C1210 1.427 . S
N1214 C1211 1.384 . S
N1215 C1207 1.427 . S
N1215 C1213 1.384 . S
H1216 C1222 0.930 . S
H1217 C1226 0.930 . S
H1218 C1231 0.929 . S
H1219 C1229 0.929 . S
H1220 C1224 0.929 . S
H1221 C1230 0.929 . S
C1222 H1216 0.930 . S
C1222 C1223 1.367 . S
C1222 C1230 1.378 . S
C1223 C1222 1.367 . S
C1223 C1231 1.433 . S
C1224 H1220 0.929 . S
C1224 C1226 1.378 . S
C1224 C1228 1.350 . S
C1225 C1228 1.463 1_554 S
C1225 C1230 1.350 . S
C1225 N1233 1.427 . S
C1226 H1217 0.930 . S
C1226 C1224 1.378 . S
C1226 C1227 1.367 . S
C1227 C1226 1.367 . S
C1227 C1229 1.433 . S
C1228 C1224 1.350 . S
C1228 C1225 1.463 1_556 S
C1228 N1232 1.427 . S
C1229 H1219 0.929 . S
C1229 C1227 1.433 . S
C1229 N1232 1.384 . S
C1230 H1221 0.929 . S
C1230 C1222 1.378 . S
C1230 C1225 1.350 . S
C1231 H1218 0.929 . S
C1231 C1223 1.433 . S
C1231 N1233 1.384 . S
N1232 C1228 1.427 . S
N1232 C1229 1.384 . S
N1233 C1225 1.427 . S
N1233 C1231 1.384 . S
H1234 C1240 0.930 . S
H1235 C1244 0.930 . S
H1236 C1249 0.929 . S
H1237 C1247 0.929 . S
H1238 C1242 0.929 . S
H1239 C1248 0.929 . S
C1240 H1234 0.930 . S
C1240 C1241 1.367 . S
C1240 C1248 1.378 . S
C1241 C1240 1.367 . S
C1241 C1249 1.433 . S
C1242 H1238 0.929 . S
C1242 C1244 1.378 . S
C1242 C1246 1.350 . S
C1243 C1246 1.463 . S
C1243 C1248 1.350 . S
C1243 N1251 1.427 . S
C1244 H1235 0.930 . S
C1244 C1242 1.378 . S
C1244 C1245 1.367 . S
C1245 C1244 1.367 . S
C1245 C1247 1.433 . S
C1246 C1242 1.350 . S
C1246 C1243 1.463 . S
C1246 N1250 1.427 . S
C1247 H1237 0.929 . S
C1247 C1245 1.433 . S
C1247 N1250 1.384 . S
C1248 H1239 0.929 . S
C1248 C1240 1.378 . S
C1248 C1243 1.350 . S
C1249 H1236 0.929 . S
C1249 C1241 1.433 . S
C1249 N1251 1.384 . S
N1250 C1246 1.427 . S
N1250 C1247 1.384 . S
N1251 C1243 1.427 . S
N1251 C1249 1.384 . S
H1252 C1258 0.930 . S
H1253 C1262 0.930 . S
H1254 C1267 0.929 . S
H1255 C1265 0.929 . S
H1256 C1260 0.929 . S
H1257 C1266 0.929 . S
C1258 H1252 0.930 . S
C1258 C1259 1.367 . S
C1258 C1266 1.378 . S
C1259 C1258 1.367 . S
C1259 C1267 1.433 . S
C1260 H1256 0.929 . S
C1260 C1262 1.378 . S
C1260 C1264 1.350 . S
C1261 C1264 1.463 . S
C1261 C1266 1.350 . S
C1261 N1269 1.427 . S
C1262 H1253 0.930 . S
C1262 C1260 1.378 . S
C1262 C1263 1.367 . S
C1263 C1262 1.367 . S
C1263 C1265 1.433 . S
C1264 C1260 1.350 . S
C1264 C1261 1.463 . S
C1264 N1268 1.427 . S
C1265 H1255 0.929 . S
C1265 C1263 1.433 . S
C1265 N1268 1.384 . S
C1266 H1257 0.929 . S
C1266 C1258 1.378 . S
C1266 C1261 1.350 . S
C1267 H1254 0.929 . S
C1267 C1259 1.433 . S
C1267 N1269 1.384 . S
N1268 C1264 1.427 . S
N1268 C1265 1.384 . S
N1269 C1261 1.427 . S
N1269 C1267 1.384 . S
H1270 C1276 0.930 . S
H1271 C1280 0.930 . S
H1272 C1285 0.929 . S
H1273 C1283 0.929 . S
H1274 C1278 0.929 . S
H1275 C1284 0.929 . S
C1276 H1270 0.930 . S
C1276 C1277 1.367 . S
C1276 C1284 1.378 . S
C1277 C1276 1.367 . S
C1277 C1285 1.433 . S
C1278 H1274 0.929 . S
C1278 C1280 1.378 . S
C1278 C1282 1.350 . S
C1279 C1282 1.463 . S
C1279 C1284 1.350 . S
C1279 N1287 1.427 . S
C1280 H1271 0.930 . S
C1280 C1278 1.378 . S
C1280 C1281 1.367 . S
C1281 C1280 1.367 . S
C1281 C1283 1.433 . S
C1282 C1278 1.350 . S
C1282 C1279 1.463 . S
C1282 N1286 1.427 . S
C1283 H1273 0.929 . S
C1283 C1281 1.433 . S
C1283 N1286 1.384 . S
C1284 H1275 0.929 . S
C1284 C1276 1.378 . S
C1284 C1279 1.350 . S
C1285 H1272 0.929 . S
C1285 C1277 1.433 . S
C1285 N1287 1.384 . S
N1286 C1282 1.427 . S
N1286 C1283 1.384 . S
N1287 C1279 1.427 . S
N1287 C1285 1.384 . S
H1288 C1294 0.930 . S
H1289 C1298 0.930 . S
H1290 C1303 0.929 . S
H1291 C1301 0.929 . S
H1292 C1296 0.929 . S
H1293 C1302 0.929 . S
C1294 H1288 0.930 . S
C1294 C1295 1.367 1_556 S
C1294 C1302 1.378 . S
C1295 C1294 1.367 1_554 S
C1295 C1303 1.433 . S
C1296 H1292 0.929 . S
C1296 C1298 1.378 . S
C1296 C1300 1.350 1_554 S
C1297 C1300 1.463 1_554 S
C1297 C1302 1.350 1_554 S
C1297 N1305 1.427 . S
C1298 H1289 0.930 . S
C1298 C1296 1.378 . S
C1298 C1299 1.367 1_554 S
C1299 C1298 1.367 1_556 S
C1299 C1301 1.433 . S
C1300 C1296 1.350 1_556 S
C1300 C1297 1.463 1_556 S
C1300 N1304 1.427 . S
C1301 H1291 0.929 . S
C1301 C1299 1.433 . S
C1301 N1304 1.384 . S
C1302 H1293 0.929 . S
C1302 C1294 1.378 . S
C1302 C1297 1.350 1_556 S
C1303 H1290 0.929 . S
C1303 C1295 1.433 . S
C1303 N1305 1.384 . S
N1304 C1300 1.427 . S
N1304 C1301 1.384 . S
N1305 C1297 1.427 . S
N1305 C1303 1.384 . S
H1306 C1312 0.930 . S
H1307 C1316 0.930 . S
H1308 C1321 0.929 . S
H1309 C1319 0.929 . S
H1310 C1314 0.929 . S
H1311 C1320 0.929 . S
C1312 H1306 0.930 . S
C1312 C1313 1.367 . S
C1312 C1320 1.378 . S
C1313 C1312 1.367 . S
C1313 C1321 1.433 . S
C1314 H1310 0.929 . S
C1314 C1316 1.378 . S
C1314 C1318 1.350 . S
C1315 C1318 1.463 . S
C1315 C1320 1.350 . S
C1315 N1323 1.427 . S
C1316 H1307 0.930 . S
C1316 C1314 1.378 . S
C1316 C1317 1.367 . S
C1317 C1316 1.367 . S
C1317 C1319 1.433 . S
C1318 C1314 1.350 . S
C1318 C1315 1.463 . S
C1318 N1322 1.427 . S
C1319 H1309 0.929 . S
C1319 C1317 1.433 . S
C1319 N1322 1.384 . S
C1320 H1311 0.929 . S
C1320 C1312 1.378 . S
C1320 C1315 1.350 . S
C1321 H1308 0.929 . S
C1321 C1313 1.433 . S
C1321 N1323 1.384 . S
N1322 C1318 1.427 . S
N1322 C1319 1.384 . S
N1323 C1315 1.427 . S
N1323 C1321 1.384 . S
H1324 C1330 0.930 . S
H1325 C1334 0.930 . S
H1326 C1339 0.929 . S
H1327 C1337 0.929 . S
H1328 C1332 0.929 . S
H1329 C1338 0.929 . S
C1330 H1324 0.930 . S
C1330 C1331 1.367 . S
C1330 C1338 1.378 . S
C1331 C1330 1.367 . S
C1331 C1339 1.433 . S
C1332 H1328 0.929 . S
C1332 C1334 1.378 . S
C1332 C1336 1.350 . S
C1333 C1336 1.463 . S
C1333 C1338 1.350 . S
C1333 N1341 1.427 . S
C1334 H1325 0.930 . S
C1334 C1332 1.378 . S
C1334 C1335 1.367 . S
C1335 C1334 1.367 . S
C1335 C1337 1.433 . S
C1336 C1332 1.350 . S
C1336 C1333 1.463 . S
C1336 N1340 1.427 . S
C1337 H1327 0.929 . S
C1337 C1335 1.433 . S
C1337 N1340 1.384 . S
C1338 H1329 0.929 . S
C1338 C1330 1.378 . S
C1338 C1333 1.350 . S
C1339 H1326 0.929 . S
C1339 C1331 1.433 . S
C1339 N1341 1.384 . S
N1340 C1336 1.427 . S
N1340 C1337 1.384 . S
N1341 C1333 1.427 . S
N1341 C1339 1.384 . S
H1342 C1348 0.930 . S
H1343 C1352 0.930 . S
H1344 C1357 0.929 . S
H1345 C1355 0.929 . S
H1346 C1350 0.929 . S
H1347 C1356 0.929 . S
C1348 H1342 0.930 . S
C1348 C1349 1.367 . S
C1348 C1356 1.378 . S
C1349 C1348 1.367 . S
C1349 C1357 1.433 . S
C1350 H1346 0.929 . S
C1350 C1352 1.378 . S
C1350 C1354 1.350 . S
C1351 C1354 1.463 . S
C1351 C1356 1.350 . S
C1351 N1359 1.427 . S
C1352 H1343 0.930 . S
C1352 C1350 1.378 . S
C1352 C1353 1.367 . S
C1353 C1352 1.367 . S
C1353 C1355 1.433 . S
C1354 C1350 1.350 . S
C1354 C1351 1.463 . S
C1354 N1358 1.427 . S
C1355 H1345 0.929 . S
C1355 C1353 1.433 . S
C1355 N1358 1.384 . S
C1356 H1347 0.929 . S
C1356 C1348 1.378 . S
C1356 C1351 1.350 . S
C1357 H1344 0.929 . S
C1357 C1349 1.433 . S
C1357 N1359 1.384 . S
N1358 C1354 1.427 . S
N1358 C1355 1.384 . S
N1359 C1351 1.427 . S
N1359 C1357 1.384 . S
H1360 C1366 0.930 . S
H1361 C1370 0.930 . S
H1362 C1375 0.929 . S
H1363 C1373 0.929 . S
H1364 C1368 0.929 . S
H1365 C1374 0.929 . S
C1366 H1360 0.930 . S
C1366 C1367 1.367 . S
C1366 C1374 1.378 . S
C1367 C1366 1.367 . S
C1367 C1375 1.433 . S
C1368 H1364 0.929 . S
C1368 C1370 1.378 . S
C1368 C1372 1.350 . S
C1369 C1372 1.463 1_565 S
C1369 C1374 1.350 . S
C1369 N1377 1.427 . S
C1370 H1361 0.930 . S
C1370 C1368 1.378 . S
C1370 C1371 1.367 . S
C1371 C1370 1.367 . S
C1371 C1373 1.433 . S
C1372 C1368 1.350 . S
C1372 C1369 1.463 1_545 S
C1372 N1376 1.427 . S
C1373 H1363 0.929 . S
C1373 C1371 1.433 . S
C1373 N1376 1.384 . S
C1374 H1365 0.929 . S
C1374 C1366 1.378 . S
C1374 C1369 1.350 . S
C1375 H1362 0.929 . S
C1375 C1367 1.433 . S
C1375 N1377 1.384 . S
N1376 C1372 1.427 . S
N1376 C1373 1.384 . S
N1377 C1369 1.427 . S
N1377 C1375 1.384 . S
H1378 C1384 0.930 . S
H1379 C1388 0.930 . S
H1380 C1393 0.929 . S
H1381 C1391 0.929 . S
H1382 C1386 0.929 . S
H1383 C1392 0.929 . S
C1384 H1378 0.930 . S
C1384 C1385 1.367 . S
C1384 C1392 1.378 . S
C1385 C1384 1.367 . S
C1385 C1393 1.433 . S
C1386 H1382 0.929 . S
C1386 C1388 1.378 . S
C1386 C1390 1.350 . S
C1387 C1390 1.463 . S
C1387 C1392 1.350 . S
C1387 N1395 1.427 . S
C1388 H1379 0.930 . S
C1388 C1386 1.378 . S
C1388 C1389 1.367 . S
C1389 C1388 1.367 . S
C1389 C1391 1.433 . S
C1390 C1386 1.350 . S
C1390 C1387 1.463 . S
C1390 N1394 1.427 . S
C1391 H1381 0.929 . S
C1391 C1389 1.433 . S
C1391 N1394 1.384 . S
C1392 H1383 0.929 . S
C1392 C1384 1.378 . S
C1392 C1387 1.350 . S
C1393 H1380 0.929 . S
C1393 C1385 1.433 . S
C1393 N1395 1.384 . S
N1394 C1390 1.427 . S
N1394 C1391 1.384 . S
N1395 C1387 1.427 . S
N1395 C1393 1.384 . S
H1396 C1402 0.930 . S
H1397 C1406 0.930 . S
H1398 C1411 0.929 . S
H1399 C1409 0.929 . S
H1400 C1404 0.929 . S
H1401 C1410 0.929 . S
C1402 H1396 0.930 . S
C1402 C1403 1.367 1_556 S
C1402 C1410 1.378 . S
C1403 C1402 1.367 1_554 S
C1403 C1411 1.433 . S
C1404 H1400 0.929 . S
C1404 C1406 1.378 . S
C1404 C1408 1.350 1_554 S
C1405 C1408 1.463 1_564 S
C1405 C1410 1.350 1_554 S
C1405 N1413 1.427 . S
C1406 H1397 0.930 . S
C1406 C1404 1.378 . S
C1406 C1407 1.367 1_554 S
C1407 C1406 1.367 1_556 S
C1407 C1409 1.433 . S
C1408 C1404 1.350 1_556 S
C1408 C1405 1.463 1_546 S
C1408 N1412 1.427 . S
C1409 H1399 0.929 . S
C1409 C1407 1.433 . S
C1409 N1412 1.384 . S
C1410 H1401 0.929 . S
C1410 C1402 1.378 . S
C1410 C1405 1.350 1_556 S
C1411 H1398 0.929 . S
C1411 C1403 1.433 . S
C1411 N1413 1.384 . S
N1412 C1408 1.427 . S
N1412 C1409 1.384 . S
N1413 C1405 1.427 . S
N1413 C1411 1.384 . S
H1414 C1420 0.930 . S
H1415 C1424 0.930 . S
H1416 C1429 0.929 . S
H1417 C1427 0.929 . S
H1418 C1422 0.929 . S
H1419 C1428 0.929 . S
C1420 H1414 0.930 . S
C1420 C1421 1.367 . S
C1420 C1428 1.378 . S
C1421 C1420 1.367 . S
C1421 C1429 1.433 . S
C1422 H1418 0.929 . S
C1422 C1424 1.378 . S
C1422 C1426 1.350 . S
C1423 C1426 1.463 . S
C1423 C1428 1.350 . S
C1423 N1431 1.427 . S
C1424 H1415 0.930 . S
C1424 C1422 1.378 . S
C1424 C1425 1.367 . S
C1425 C1424 1.367 . S
C1425 C1427 1.433 . S
C1426 C1422 1.350 . S
C1426 C1423 1.463 . S
C1426 N1430 1.427 . S
C1427 H1417 0.929 . S
C1427 C1425 1.433 . S
C1427 N1430 1.384 . S
C1428 H1419 0.929 . S
C1428 C1420 1.378 . S
C1428 C1423 1.350 . S
C1429 H1416 0.929 . S
C1429 C1421 1.433 . S
C1429 N1431 1.384 . S
N1430 C1426 1.427 . S
N1430 C1427 1.384 . S
N1431 C1423 1.427 . S
N1431 C1429 1.384 . S
H1432 C1438 0.930 . S
H1433 C1442 0.930 . S
H1434 C1447 0.929 . S
H1435 C1445 0.929 . S
H1436 C1440 0.929 . S
H1437 C1446 0.929 . S
C1438 H1432 0.930 . S
C1438 C1439 1.367 . S
C1438 C1446 1.378 . S
C1439 C1438 1.367 . S
C1439 C1447 1.433 . S
C1440 H1436 0.929 . S
C1440 C1442 1.378 . S
C1440 C1444 1.350 . S
C1441 C1444 1.463 1_565 S
C1441 C1446 1.350 . S
C1441 N1449 1.427 . S
C1442 H1433 0.930 . S
C1442 C1440 1.378 . S
C1442 C1443 1.367 . S
C1443 C1442 1.367 . S
C1443 C1445 1.433 . S
C1444 C1440 1.350 . S
C1444 C1441 1.463 1_545 S
C1444 N1448 1.427 . S
C1445 H1435 0.929 . S
C1445 C1443 1.433 . S
C1445 N1448 1.384 . S
C1446 H1437 0.929 . S
C1446 C1438 1.378 . S
C1446 C1441 1.350 . S
C1447 H1434 0.929 . S
C1447 C1439 1.433 . S
C1447 N1449 1.384 . S
N1448 C1444 1.427 . S
N1448 C1445 1.384 . S
N1449 C1441 1.427 . S
N1449 C1447 1.384 . S
H1450 C1456 0.930 . S
H1451 C1460 0.930 . S
H1452 C1465 0.929 . S
H1453 C1463 0.929 . S
H1454 C1458 0.929 . S
H1455 C1464 0.929 . S
C1456 H1450 0.930 . S
C1456 C1457 1.367 . S
C1456 C1464 1.378 . S
C1457 C1456 1.367 . S
C1457 C1465 1.433 . S
C1458 H1454 0.929 . S
C1458 C1460 1.378 . S
C1458 C1462 1.350 . S
C1459 C1462 1.463 . S
C1459 C1464 1.350 . S
C1459 N1467 1.427 . S
C1460 H1451 0.930 . S
C1460 C1458 1.378 . S
C1460 C1461 1.367 . S
C1461 C1460 1.367 . S
C1461 C1463 1.433 . S
C1462 C1458 1.350 . S
C1462 C1459 1.463 . S
C1462 N1466 1.427 . S
C1463 H1453 0.929 . S
C1463 C1461 1.433 . S
C1463 N1466 1.384 . S
C1464 H1455 0.929 . S
C1464 C1456 1.378 . S
C1464 C1459 1.350 . S
C1465 H1452 0.929 . S
C1465 C1457 1.433 . S
C1465 N1467 1.384 . S
N1466 C1462 1.427 . S
N1466 C1463 1.384 . S
N1467 C1459 1.427 . S
N1467 C1465 1.384 . S
H1468 C1474 0.930 . S
H1469 C1478 0.930 . S
H1470 C1483 0.929 . S
H1471 C1481 0.929 . S
H1472 C1476 0.929 . S
H1473 C1482 0.929 . S
C1474 H1468 0.930 . S
C1474 C1475 1.367 . S
C1474 C1482 1.378 1_556 S
C1475 C1474 1.367 . S
C1475 C1483 1.433 . S
C1476 H1472 0.929 . S
C1476 C1478 1.378 1_556 S
C1476 C1480 1.350 1_556 S
C1477 C1480 1.463 1_546 S
C1477 C1482 1.350 1_556 S
C1477 N1485 1.427 . S
C1478 H1469 0.930 . S
C1478 C1476 1.378 1_554 S
C1478 C1479 1.367 . S
C1479 C1478 1.367 . S
C1479 C1481 1.433 . S
C1480 C1476 1.350 1_554 S
C1480 C1477 1.463 1_564 S
C1480 N1484 1.427 . S
C1481 H1471 0.929 . S
C1481 C1479 1.433 . S
C1481 N1484 1.384 . S
C1482 H1473 0.929 . S
C1482 C1474 1.378 1_554 S
C1482 C1477 1.350 1_554 S
C1483 H1470 0.929 . S
C1483 C1475 1.433 . S
C1483 N1485 1.384 . S
N1484 C1480 1.427 . S
N1484 C1481 1.384 . S
N1485 C1477 1.427 . S
N1485 C1483 1.384 . S
H1486 C1492 0.930 . S
H1487 C1496 0.930 . S
H1488 C1501 0.929 . S
H1489 C1499 0.929 . S
H1490 C1494 0.929 . S
H1491 C1500 0.929 . S
C1492 H1486 0.930 . S
C1492 C1493 1.367 . S
C1492 C1500 1.378 . S
C1493 C1492 1.367 . S
C1493 C1501 1.433 . S
C1494 H1490 0.929 . S
C1494 C1496 1.378 . S
C1494 C1498 1.350 . S
C1495 C1498 1.463 . S
C1495 C1500 1.350 . S
C1495 N1503 1.427 . S
C1496 H1487 0.930 . S
C1496 C1494 1.378 . S
C1496 C1497 1.367 . S
C1497 C1496 1.367 . S
C1497 C1499 1.433 . S
C1498 C1494 1.350 . S
C1498 C1495 1.463 . S
C1498 N1502 1.427 . S
C1499 H1489 0.929 . S
C1499 C1497 1.433 . S
C1499 N1502 1.384 . S
C1500 H1491 0.929 . S
C1500 C1492 1.378 . S
C1500 C1495 1.350 . S
C1501 H1488 0.929 . S
C1501 C1493 1.433 . S
C1501 N1503 1.384 . S
N1502 C1498 1.427 . S
N1502 C1499 1.384 . S
N1503 C1495 1.427 . S
N1503 C1501 1.384 . S
C647 C6 1.596 . S
C651 C15 1.596 . S
C665 C55 1.600 . S
C669 C46 1.600 . S
C683 C86 1.591 . S
C687 C95 1.591 . S
C701 C135 1.591 . S
C705 C126 1.591 . S
C719 C166 1.599 . S
C723 C175 1.599 . S
C737 C206 1.593 . S
C741 C215 1.593 . S
C755 C246 1.594 . S
C759 C255 1.594 . S
C773 C295 1.596 . S
C777 C286 1.596 . S
C791 C335 1.602 . S
C795 C326 1.602 . S
C809 C375 1.591 . S
C813 C366 1.591 . S
C827 C406 1.599 . S
C831 C415 1.599 . S
C845 C446 1.599 . S
C849 C455 1.599 . S
C863 C495 1.596 . S
C867 C486 1.596 . S
C881 C526 1.592 . S
C885 C535 1.592 . S
C899 C575 1.597 . S
C903 C566 1.597 . S
C917 C606 1.598 . S
C921 C615 1.598 . S
C935 C9 1.478 . S
C939 C458 1.467 . S
C953 C50 2.073 . S
C957 C619 2.061 . S
C971 C89 1.472 . S
C975 C378 1.472 . S
C989 C130 2.073 1_554 S
C993 C539 2.062 1_554 S
C1007 C169 1.471 . S
C1011 C538 1.473 . S
C1025 C459 2.062 1_556 S
C1029 C210 2.073 1_556 S
C1043 C249 1.471 . S
C1047 C618 1.473 . S
C1061 C290 2.067 . S
C1065 C379 2.068 . S
C1079 C129 1.469 . S
C1083 C338 1.475 . S
C1097 C49 1.467 . S
C1101 C418 1.478 . S
C1115 C498 1.479 . S
C1119 C209 1.465 . S
C1133 C289 1.472 . S
C1137 C578 1.472 . S
C1151 C339 2.062 1_554 S
C1155 C170 2.073 1_554 S
C1169 C250 2.073 . S
C1173 C419 2.061 . S
C1187 C90 2.069 . S
C1191 C579 2.066 . S
C1205 C10 2.066 1_556 S
C1209 C499 2.069 1_556 S
C1223 C18 1.538 . S
C1227 C178 1.532 . S
C1241 C59 2.024 . S
C1245 C219 2.020 . S
C1259 C98 1.539 . S
C1263 C258 1.538 . S
C1277 C139 2.023 . S
C1281 C299 2.026 . S
C1295 C489 1.539 . S
C1299 C329 1.539 . S
C1313 C530 2.020 . S
C1317 C370 2.021 . S
C1331 C409 1.537 . S
C1335 C569 1.540 . S
C1349 C610 2.019 . S
C1353 C450 2.022 . S
C1367 C58 1.531 . S
C1371 C298 1.532 . S
C1385 C179 2.020 . S
C1389 C99 2.024 . S
C1403 C218 1.539 . S
C1407 C138 1.537 . S
C1421 C19 2.021 . S
C1425 C259 2.025 . S
C1439 C609 1.540 . S
C1443 C369 1.535 . S
C1457 C490 2.021 . S
C1461 C410 2.019 . S
C1475 C529 1.534 . S
C1479 C449 1.539 . S
C1493 C570 2.024 . S
C1497 C330 2.020 . S
