# Generated by pormake.
# Topology zfi, (5)-cn, num edge types: 1
# Building blocks:
#     Node 0, Type 0, BuildingBlock: XOMCOT_clean_sbu_0, # of connection points: 5
#     Node 1, Type 0, BuildingBlock: XOMCOT_clean_sbu_0, # of connection points: 5
#     Node 2, Type 0, BuildingBlock: XOMCOT_clean_sbu_0, # of connection points: 5
#     Node 3, Type 0, BuildingBlock: XOMCOT_clean_sbu_0, # of connection points: 5
#     Node 4, Type 0, BuildingBlock: XOMCOT_clean_sbu_0, # of connection points: 5
#     Node 5, Type 0, BuildingBlock: XOMCOT_clean_sbu_0, # of connection points: 5
#     Node 6, Type 0, BuildingBlock: XOMCOT_clean_sbu_0, # of connection points: 5
#     Node 7, Type 0, BuildingBlock: XOMCOT_clean_sbu_0, # of connection points: 5
#     Node 8, Type 0, BuildingBlock: XOMCOT_clean_sbu_0, # of connection points: 5
#     Node 9, Type 0, BuildingBlock: XOMCOT_clean_sbu_0, # of connection points: 5
#     Node 10, Type 0, BuildingBlock: XOMCOT_clean_sbu_0, # of connection points: 5
#     Node 11, Type 0, BuildingBlock: XOMCOT_clean_sbu_0, # of connection points: 5
#     Node 12, Type 0, BuildingBlock: XOMCOT_clean_sbu_0, # of connection points: 5
#     Node 13, Type 0, BuildingBlock: XOMCOT_clean_sbu_0, # of connection points: 5
#     Node 14, Type 0, BuildingBlock: XOMCOT_clean_sbu_0, # of connection points: 5
#     Node 15, Type 0, BuildingBlock: XOMCOT_clean_sbu_0, # of connection points: 5
#     Edge 16, Type (0, 0), BuildingBlock: MIFKUJ_clean_linker_0, # of connection points: 2
#     Edge 17, Type (0, 0), BuildingBlock: MIFKUJ_clean_linker_0, # of connection points: 2
#     Edge 18, Type (0, 0), BuildingBlock: MIFKUJ_clean_linker_0, # of connection points: 2
#     Edge 19, Type (0, 0), BuildingBlock: MIFKUJ_clean_linker_0, # of connection points: 2
#     Edge 20, Type (0, 0), BuildingBlock: MIFKUJ_clean_linker_0, # of connection points: 2
#     Edge 21, Type (0, 0), BuildingBlock: MIFKUJ_clean_linker_0, # of connection points: 2
#     Edge 22, Type (0, 0), BuildingBlock: MIFKUJ_clean_linker_0, # of connection points: 2
#     Edge 23, Type (0, 0), BuildingBlock: MIFKUJ_clean_linker_0, # of connection points: 2
#     Edge 24, Type (0, 0), BuildingBlock: MIFKUJ_clean_linker_0, # of connection points: 2
#     Edge 25, Type (0, 0), BuildingBlock: MIFKUJ_clean_linker_0, # of connection points: 2
#     Edge 26, Type (0, 0), BuildingBlock: MIFKUJ_clean_linker_0, # of connection points: 2
#     Edge 27, Type (0, 0), BuildingBlock: MIFKUJ_clean_linker_0, # of connection points: 2
#     Edge 28, Type (0, 0), BuildingBlock: MIFKUJ_clean_linker_0, # of connection points: 2
#     Edge 29, Type (0, 0), BuildingBlock: MIFKUJ_clean_linker_0, # of connection points: 2
#     Edge 30, Type (0, 0), BuildingBlock: MIFKUJ_clean_linker_0, # of connection points: 2
#     Edge 31, Type (0, 0), BuildingBlock: MIFKUJ_clean_linker_0, # of connection points: 2
#     Edge 32, Type (0, 0), BuildingBlock: MIFKUJ_clean_linker_0, # of connection points: 2
#     Edge 33, Type (0, 0), BuildingBlock: MIFKUJ_clean_linker_0, # of connection points: 2
#     Edge 34, Type (0, 0), BuildingBlock: MIFKUJ_clean_linker_0, # of connection points: 2
#     Edge 35, Type (0, 0), BuildingBlock: MIFKUJ_clean_linker_0, # of connection points: 2
#     Edge 36, Type (0, 0), BuildingBlock: MIFKUJ_clean_linker_0, # of connection points: 2
#     Edge 37, Type (0, 0), BuildingBlock: MIFKUJ_clean_linker_0, # of connection points: 2
#     Edge 38, Type (0, 0), BuildingBlock: MIFKUJ_clean_linker_0, # of connection points: 2
#     Edge 39, Type (0, 0), BuildingBlock: MIFKUJ_clean_linker_0, # of connection points: 2
#     Edge 40, Type (0, 0), BuildingBlock: MIFKUJ_clean_linker_0, # of connection points: 2
#     Edge 41, Type (0, 0), BuildingBlock: MIFKUJ_clean_linker_0, # of connection points: 2
#     Edge 42, Type (0, 0), BuildingBlock: MIFKUJ_clean_linker_0, # of connection points: 2
#     Edge 43, Type (0, 0), BuildingBlock: MIFKUJ_clean_linker_0, # of connection points: 2
#     Edge 44, Type (0, 0), BuildingBlock: MIFKUJ_clean_linker_0, # of connection points: 2
#     Edge 45, Type (0, 0), BuildingBlock: MIFKUJ_clean_linker_0, # of connection points: 2
#     Edge 46, Type (0, 0), BuildingBlock: MIFKUJ_clean_linker_0, # of connection points: 2
#     Edge 47, Type (0, 0), BuildingBlock: MIFKUJ_clean_linker_0, # of connection points: 2
#     Edge 48, Type (0, 0), BuildingBlock: MIFKUJ_clean_linker_0, # of connection points: 2
#     Edge 49, Type (0, 0), BuildingBlock: MIFKUJ_clean_linker_0, # of connection points: 2
#     Edge 50, Type (0, 0), BuildingBlock: MIFKUJ_clean_linker_0, # of connection points: 2
#     Edge 51, Type (0, 0), BuildingBlock: MIFKUJ_clean_linker_0, # of connection points: 2
#     Edge 52, Type (0, 0), BuildingBlock: MIFKUJ_clean_linker_0, # of connection points: 2
#     Edge 53, Type (0, 0), BuildingBlock: MIFKUJ_clean_linker_0, # of connection points: 2
#     Edge 54, Type (0, 0), BuildingBlock: MIFKUJ_clean_linker_0, # of connection points: 2
#     Edge 55, Type (0, 0), BuildingBlock: MIFKUJ_clean_linker_0, # of connection points: 2
# Relax obj value: 0.084
# Max RMSD: 0.116
# Mean RMSD: 0.116
data_MOF--net-zfi--node1-XOMCOT_clean_sbu_0--edge1-MIFKUJ_clean_linker_0
_symmetry_space_group_name_H-M    P1
_symmetry_Int_Tables_number       1
_symmetry_cell_setting            triclinic
loop_
_symmetry_equiv_pos_as_xyz
'x, y, z'
_cell_length_a     49.272646
_cell_length_b     49.31035
_cell_length_c     62.636303
_cell_angle_alpha  90.004048
_cell_angle_beta   89.815996
_cell_angle_gamma 89.921755
loop_
_atom_site_label
_atom_site_type_symbol
_atom_site_fract_x
_atom_site_fract_y
_atom_site_fract_z
_atom_type_partial_charge
Co0 Co 0.64907 0.06524 0.1097 0.0
C1 C 0.67385 0.12064 0.10524 0.0
C2 C 0.64115 0.11492 0.08335 0.0
C3 C 0.65157 0.14059 0.08047 0.0
N4 N 0.6556 0.10189 0.09849 0.0
N5 N 0.6723 0.14416 0.09416 0.0
H6 H 0.68732 0.11775 0.11862 0.0
H7 H 0.6237 0.10689 0.07517 0.0
C8 C 0.62625 0.05489 0.0647 0.0
O9 O 0.64923 0.06129 0.05528 0.0
N10 N 0.64231 0.02912 0.12101 0.0
C11 C 0.65682 0.01631 0.13622 0.0
C12 C 0.6479 0.98991 0.13783 0.0
C13 C 0.62482 0.01025 0.11358 0.0
N14 N 0.62799 0.98612 0.12344 0.0
C15 C 0.70596 0.06173 0.10212 0.0
C16 C 0.70593 0.01278 0.08073 0.0
C17 C 0.7306 0.02309 0.08836 0.0
C18 C 0.73042 0.04842 0.09836 0.0
C19 C 0.68165 0.02697 0.08476 0.0
N20 N 0.68177 0.05098 0.09579 0.0
H21 H 0.70661 0.07938 0.11205 0.0
H22 H 0.6627 0.01751 0.08046 0.0
H23 H 0.67362 0.02509 0.14486 0.0
H24 H 0.61061 0.01361 0.10076 0.0
O25 O 0.66528 0.07542 0.13663 0.0
O26 O 0.6217 0.07992 0.12889 0.0
O27 O 0.62402 0.05638 0.085 0.0
C28 C 0.64108 0.08244 0.14285 0.0
H29 H 0.64441 0.1554 0.06904 0.0
H30 H 0.65643 0.9743 0.14796 0.0
H31 H 0.70515 0.99305 0.07315 0.0
H32 H 0.74898 0.05712 0.10456 0.0
Co33 Co 0.45864 0.6488 0.11153 0.0
C34 C 0.40255 0.67176 0.10689 0.0
C35 C 0.409 0.63887 0.08523 0.0
C36 C 0.38309 0.64885 0.0823 0.0
N37 N 0.4217 0.65373 0.10026 0.0
N38 N 0.37902 0.66973 0.09586 0.0
H39 H 0.40522 0.68549 0.12012 0.0
H40 H 0.41747 0.6215 0.07712 0.0
C41 C 0.46956 0.62511 0.06695 0.0
O42 O 0.46208 0.64769 0.0575 0.0
N43 N 0.49494 0.64426 0.12309 0.0
C44 C 0.50773 0.66255 0.13549 0.0
C45 C 0.53469 0.65553 0.13701 0.0
C46 C 0.5143 0.6261 0.11746 0.0
N47 N 0.53882 0.63272 0.1256 0.0
C48 C 0.46054 0.70556 0.10313 0.0
C49 C 0.50961 0.70563 0.08168 0.0
C50 C 0.49906 0.73021 0.08929 0.0
C51 C 0.4737 0.73005 0.09931 0.0
C52 C 0.49569 0.68136 0.08586 0.0
N53 N 0.47167 0.68142 0.09697 0.0
H54 H 0.44284 0.70616 0.11308 0.0
H55 H 0.50555 0.66245 0.08188 0.0
H56 H 0.49848 0.68074 0.14186 0.0
H57 H 0.51107 0.60947 0.1065 0.0
O58 O 0.4474 0.66534 0.13818 0.0
O59 O 0.44521 0.62143 0.13102 0.0
O60 O 0.46876 0.62323 0.0873 0.0
C61 C 0.44137 0.64102 0.14464 0.0
H62 H 0.3685 0.64128 0.07089 0.0
H63 H 0.55026 0.66688 0.14526 0.0
H64 H 0.52943 0.70491 0.07416 0.0
H65 H 0.46496 0.74862 0.10556 0.0
Co66 Co 0.87228 0.45473 0.11299 0.0
C67 C 0.84473 0.40149 0.10368 0.0
C68 C 0.88677 0.40172 0.0949 0.0
C69 C 0.87663 0.37602 0.09161 0.0
N70 N 0.86676 0.4179 0.10232 0.0
N71 N 0.85017 0.37589 0.09712 0.0
H72 H 0.82546 0.40732 0.11037 0.0
H73 H 0.90763 0.40795 0.09273 0.0
C74 C 0.89632 0.45828 0.06786 0.0
O75 O 0.87581 0.44518 0.05939 0.0
N76 N 0.87837 0.49139 0.12353 0.0
C77 C 0.86902 0.50272 0.14175 0.0
C78 C 0.87736 0.52943 0.14255 0.0
C79 C 0.89192 0.51154 0.11345 0.0
N80 N 0.89157 0.53488 0.12465 0.0
C81 C 0.81514 0.46108 0.10915 0.0
C82 C 0.81513 0.50204 0.07916 0.0
C83 C 0.79055 0.49504 0.08918 0.0
C84 C 0.79085 0.47384 0.104 0.0
C85 C 0.83918 0.48825 0.08454 0.0
N86 N 0.83905 0.46795 0.09946 0.0
H87 H 0.81471 0.44699 0.12224 0.0
H88 H 0.85801 0.4953 0.07772 0.0
H89 H 0.85667 0.49256 0.15358 0.0
H90 H 0.90189 0.5095 0.09816 0.0
O91 O 0.857 0.44403 0.14023 0.0
O92 O 0.90051 0.44127 0.1319 0.0
O93 O 0.89666 0.46331 0.08785 0.0
C94 C 0.88145 0.43767 0.14605 0.0
H95 H 0.888 0.35866 0.0859 0.0
H96 H 0.87278 0.54388 0.15507 0.0
H97 H 0.81595 0.51861 0.06784 0.0
H98 H 0.77272 0.46835 0.11281 0.0
Co99 Co 0.06575 0.87054 0.10865 0.0
C100 C 0.12215 0.84707 0.10559 0.0
C101 C 0.11447 0.87517 0.08033 0.0
C102 C 0.14014 0.8646 0.07769 0.0
N103 N 0.10262 0.8637 0.09753 0.0
N104 N 0.14508 0.84668 0.0935 0.0
H105 H 0.11975 0.83557 0.12014 0.0
H106 H 0.10559 0.89051 0.07029 0.0
C107 C 0.05328 0.89278 0.06371 0.0
O108 O 0.05783 0.86937 0.05436 0.0
N109 N 0.02945 0.8776 0.11988 0.0
C110 C 0.01672 0.86382 0.1356 0.0
C111 C 0.99027 0.87285 0.13714 0.0
C112 C 0.01045 0.89479 0.11209 0.0
N113 N 0.98637 0.89208 0.12218 0.0
C114 C 0.06395 0.81386 0.10034 0.0
C115 C 0.01332 0.81267 0.08158 0.0
C116 C 0.0251 0.78824 0.08838 0.0
C117 C 0.05128 0.78906 0.0969 0.0
C118 C 0.02696 0.83727 0.08512 0.0
N119 N 0.05174 0.83775 0.09497 0.0
H120 H 0.08251 0.81363 0.10919 0.0
H121 H 0.01661 0.85595 0.0813 0.0
H122 H 0.02558 0.84746 0.14473 0.0
H123 H 0.01364 0.90843 0.09884 0.0
O124 O 0.07573 0.8545 0.13567 0.0
O125 O 0.08018 0.89801 0.12763 0.0
O126 O 0.05694 0.89545 0.0838 0.0
C127 C 0.08261 0.87875 0.14175 0.0
H128 H 0.15384 0.86964 0.06478 0.0
H129 H 0.97473 0.86487 0.14765 0.0
H130 H 0.99302 0.81299 0.07502 0.0
H131 H 0.06129 0.77069 0.10222 0.0
Co132 Co 0.14854 0.95413 0.3957 0.0
C133 C 0.17224 0.89813 0.39997 0.0
C134 C 0.14288 0.9061 0.42444 0.0
C135 C 0.15404 0.88089 0.42799 0.0
N136 N 0.15488 0.91755 0.40725 0.0
N137 N 0.17261 0.87593 0.41266 0.0
H138 H 0.1847 0.90014 0.38584 0.0
H139 H 0.12679 0.91494 0.43382 0.0
C140 C 0.12662 0.96701 0.44079 0.0
O141 O 0.15 0.96193 0.44999 0.0
N142 N 0.14222 0.99016 0.38411 0.0
C143 C 0.15817 1.0031 0.36989 0.0
C144 C 0.14966 0.02962 0.36822 0.0
C145 C 0.12409 1.009 0.39078 0.0
N146 N 0.12837 0.03342 0.38153 0.0
C147 C 0.20544 0.95633 0.40256 0.0
C148 C 0.20702 1.005 0.42421 0.0
C149 C 0.23162 0.99365 0.41695 0.0
C150 C 0.23034 0.96865 0.40634 0.0
C151 C 0.18227 0.99207 0.41974 0.0
N152 N 0.18164 0.96792 0.40899 0.0
H153 H 0.20546 0.93864 0.39262 0.0
H154 H 0.16363 1.00239 0.42385 0.0
H155 H 0.17565 0.99426 0.36204 0.0
H156 H 0.10908 1.00546 0.40307 0.0
O157 O 0.16432 0.9432 0.36875 0.0
O158 O 0.12075 0.93973 0.37694 0.0
O159 O 0.12383 0.96384 0.42064 0.0
C160 C 0.13999 0.93651 0.36283 0.0
H161 H 0.14873 0.86712 0.44079 0.0
H162 H 0.15901 0.04506 0.35839 0.0
H163 H 0.20663 0.02421 0.43254 0.0
H164 H 0.24822 0.95931 0.39946 0.0
Co165 Co 0.56447 0.14841 0.39688 0.0
C166 C 0.62039 0.17148 0.40209 0.0
C167 C 0.61371 0.13845 0.4236 0.0
C168 C 0.63931 0.14876 0.42716 0.0
N169 N 0.60122 0.15335 0.40842 0.0
N170 N 0.64347 0.16959 0.41364 0.0
H171 H 0.61785 0.18571 0.38915 0.0
H172 H 0.60538 0.12078 0.43134 0.0
C173 C 0.55394 0.12519 0.44159 0.0
O174 O 0.56258 0.14767 0.45053 0.0
N175 N 0.52847 0.14377 0.38494 0.0
C176 C 0.51529 0.16253 0.37322 0.0
C177 C 0.48885 0.15437 0.3705 0.0
C178 C 0.50997 0.12416 0.38891 0.0
N179 N 0.48555 0.13031 0.38037 0.0
C180 C 0.56234 0.20519 0.40618 0.0
C181 C 0.51346 0.2046 0.42783 0.0
C182 C 0.52455 0.22968 0.42176 0.0
C183 C 0.54975 0.22966 0.41137 0.0
C184 C 0.52698 0.18044 0.42254 0.0
N185 N 0.55104 0.18085 0.41154 0.0
H186 H 0.5799 0.20609 0.39608 0.0
H187 H 0.51697 0.16143 0.42585 0.0
H188 H 0.5239 0.18161 0.36805 0.0
H189 H 0.5137 0.10665 0.39888 0.0
O190 O 0.5757 0.1652 0.37035 0.0
O191 O 0.57845 0.12126 0.37731 0.0
O192 O 0.55398 0.12292 0.42121 0.0
C193 C 0.58194 0.14098 0.36373 0.0
H194 H 0.65398 0.14113 0.4385 0.0
H195 H 0.47298 0.16567 0.36253 0.0
H196 H 0.49392 0.20358 0.43575 0.0
H197 H 0.55874 0.24835 0.40568 0.0
Co198 Co 0.37013 0.56243 0.39701 0.0
C199 C 0.34587 0.61802 0.4018 0.0
C200 C 0.37864 0.6119 0.42359 0.0
C201 C 0.36814 0.63751 0.42679 0.0
N202 N 0.36411 0.59911 0.4084 0.0
N203 N 0.34741 0.64134 0.41313 0.0
H204 H 0.3319 0.61511 0.38876 0.0
H205 H 0.39626 0.6038 0.43153 0.0
C206 C 0.393 0.55204 0.44183 0.0
O207 O 0.37027 0.55948 0.45118 0.0
N208 N 0.37625 0.52634 0.38544 0.0
C209 C 0.35988 0.51318 0.37173 0.0
C210 C 0.36856 0.48672 0.36993 0.0
C211 C 0.39479 0.50771 0.39166 0.0
N212 N 0.39038 0.48319 0.38262 0.0
C213 C 0.31323 0.55955 0.40568 0.0
C214 C 0.314 0.51116 0.42783 0.0
C215 C 0.28888 0.5222 0.42182 0.0
C216 C 0.2888 0.54708 0.41108 0.0
C217 C 0.33813 0.52462 0.42238 0.0
N218 N 0.33761 0.54851 0.41125 0.0
H219 H 0.31226 0.57689 0.39541 0.0
H220 H 0.3572 0.51482 0.42591 0.0
H221 H 0.34205 0.52183 0.36435 0.0
H222 H 0.4102 0.51146 0.40351 0.0
O223 O 0.35377 0.57326 0.37028 0.0
O224 O 0.39751 0.57667 0.37786 0.0
O225 O 0.39521 0.55293 0.4215 0.0
C226 C 0.37806 0.57999 0.36407 0.0
H227 H 0.37566 0.65241 0.43799 0.0
H228 H 0.35896 0.47114 0.36043 0.0
H229 H 0.31505 0.49181 0.43596 0.0
H230 H 0.27004 0.55593 0.40538 0.0
Co231 Co 0.95611 0.36826 0.3996 0.0
C232 C 0.9003 0.3444 0.40387 0.0
C233 C 0.90666 0.37601 0.42669 0.0
C234 C 0.88111 0.36534 0.42983 0.0
N235 N 0.91927 0.36231 0.41085 0.0
N236 N 0.87714 0.34533 0.41553 0.0
H237 H 0.9032 0.33086 0.39049 0.0
H238 H 0.91487 0.39309 0.43524 0.0
C239 C 0.96686 0.39188 0.44432 0.0
O240 O 0.96016 0.36917 0.45395 0.0
N241 N 0.99232 0.37424 0.38815 0.0
C242 C 1.00587 0.35745 0.3749 0.0
C243 C 0.03233 0.36618 0.37318 0.0
C244 C 0.01068 0.3931 0.39414 0.0
N245 N 0.03542 0.38848 0.38544 0.0
C246 C 0.95872 0.31149 0.40886 0.0
C247 C 1.00782 0.31236 0.42995 0.0
C248 C 0.99679 0.28723 0.42402 0.0
C249 C 0.97147 0.28708 0.41396 0.0
C250 C 0.99409 0.33644 0.42483 0.0
N251 N 0.96995 0.3359 0.41406 0.0
H252 H 0.94102 0.31049 0.399 0.0
H253 H 1.00393 0.35551 0.4282 0.0
H254 H 0.9975 0.3393 0.36784 0.0
H255 H 1.00657 0.40891 0.40564 0.0
O256 O 0.9457 0.35165 0.37282 0.0
O257 O 0.94209 0.39542 0.38024 0.0
O258 O 0.96533 0.39377 0.424 0.0
C259 C 0.93916 0.3759 0.36644 0.0
H260 H 0.86639 0.37215 0.44153 0.0
H261 H 0.04821 0.35631 0.36407 0.0
H262 H 0.02745 0.31347 0.43762 0.0
H263 H 0.96251 0.26831 0.40845 0.0
Co264 Co 0.36743 0.95431 0.89994 0.0
C265 C 0.34331 0.89881 0.90523 0.0
C266 C 0.37757 0.90444 0.92561 0.0
C267 C 0.36772 0.87853 0.92856 0.0
N268 N 0.36184 0.91762 0.91137 0.0
N269 N 0.34601 0.87505 0.91583 0.0
H270 H 0.32893 0.90168 0.89247 0.0
H271 H 0.39555 0.91258 0.93303 0.0
C272 C 0.39078 0.96476 0.94469 0.0
O273 O 0.36825 0.9572 0.95424 0.0
N274 N 0.37313 0.99039 0.88833 0.0
C275 C 0.3565 1.00345 0.87473 0.0
C276 C 0.36483 0.03 0.87297 0.0
C277 C 0.39149 1.00916 0.89451 0.0
N278 N 0.38671 0.03366 0.88557 0.0
C279 C 0.31047 0.95714 0.90844 0.0
C280 C 0.3109 1.00555 0.93054 0.0
C281 C 0.28587 0.99458 0.92428 0.0
C282 C 0.28596 0.96966 0.91362 0.0
C283 C 0.33513 0.99195 0.92539 0.0
N284 N 0.33479 0.96807 0.91423 0.0
H285 H 0.30961 0.93992 0.89805 0.0
H286 H 0.35415 1.0017 0.92908 0.0
H287 H 0.33869 0.99468 0.86744 0.0
H288 H 0.40702 1.00551 0.9063 0.0
O289 O 0.35111 0.94336 0.8732 0.0
O290 O 0.39487 0.94023 0.88069 0.0
O291 O 0.39266 0.96397 0.92434 0.0
C292 C 0.37545 0.93688 0.86689 0.0
H293 H 0.37595 0.86343 0.9393 0.0
H294 H 0.35496 0.04555 0.86359 0.0
H295 H 0.31181 0.02495 0.93861 0.0
H296 H 0.26728 0.96085 0.90776 0.0
Co297 Co 0.55849 0.36702 0.89518 0.0
C298 C 0.61329 0.34232 0.9035 0.0
C299 C 0.61027 0.38288 0.91542 0.0
C300 C 0.63635 0.37358 0.91881 0.0
N301 N 0.59552 0.36314 0.90612 0.0
N302 N 0.63819 0.34798 0.91137 0.0
H303 H 0.60902 0.32398 0.89487 0.0
H304 H 0.60287 0.40305 0.91894 0.0
C305 C 0.55212 0.3922 0.93952 0.0
O306 O 0.56352 0.37108 0.94862 0.0
N307 N 0.52194 0.37076 0.88413 0.0
C308 C 0.50897 0.35206 0.87224 0.0
C309 C 0.48192 0.35888 0.87105 0.0
C310 C 0.50261 0.38889 0.88983 0.0
N311 N 0.47794 0.38195 0.88218 0.0
C312 C 0.55485 0.31002 0.90248 0.0
C313 C 0.51138 0.31131 0.93034 0.0
C314 C 0.52039 0.28616 0.92255 0.0
C315 C 0.54282 0.28579 0.90883 0.0
C316 C 0.52448 0.33524 0.9239 0.0
N317 N 0.54615 0.33446 0.91016 0.0
H318 H 0.56944 0.30896 0.88975 0.0
H319 H 0.51572 0.35437 0.92866 0.0
H320 H 0.51822 0.33383 0.86593 0.0
H321 H 0.50605 0.40583 0.90045 0.0
O322 O 0.56965 0.35056 0.86841 0.0
O323 O 0.57115 0.39448 0.87545 0.0
O324 O 0.54865 0.3927 0.91932 0.0
C325 C 0.57512 0.37495 0.86182 0.0
H326 H 0.65275 0.3849 0.92602 0.0
H327 H 0.46622 0.34727 0.86318 0.0
H328 H 0.49365 0.31259 0.94056 0.0
H329 H 0.54968 0.26704 0.90157 0.0
Co330 Co 0.14716 0.56277 0.89682 0.0
C331 C 0.17466 0.61626 0.90535 0.0
C332 C 0.13333 0.61556 0.91597 0.0
C333 C 0.14363 0.6412 0.91933 0.0
N334 N 0.15284 0.59966 0.90745 0.0
N335 N 0.16968 0.64163 0.91266 0.0
H336 H 0.19336 0.61075 0.8976 0.0
H337 H 0.11267 0.6092 0.91896 0.0
C338 C 0.12308 0.55883 0.94196 0.0
O339 O 0.14392 0.57131 0.95052 0.0
N340 N 0.14117 0.52619 0.88626 0.0
C341 C 0.15626 0.51292 0.87166 0.0
C342 C 0.14781 0.48629 0.8708 0.0
C343 C 0.12379 0.50742 0.89407 0.0
N344 N 0.12747 0.48274 0.88505 0.0
C345 C 0.20423 0.55646 0.90139 0.0
C346 C 0.20342 0.51457 0.93056 0.0
C347 C 0.22825 0.52179 0.92103 0.0
C348 C 0.22836 0.54345 0.90663 0.0
C349 C 0.17955 0.52856 0.92507 0.0
N350 N 0.18011 0.54938 0.91062 0.0
H351 H 0.20495 0.57068 0.88841 0.0
H352 H 0.16049 0.52119 0.93128 0.0
H353 H 0.17299 0.52165 0.86282 0.0
H354 H 0.10959 0.51134 0.90683 0.0
O355 O 0.16279 0.57311 0.86962 0.0
O356 O 0.11921 0.57627 0.87769 0.0
O357 O 0.12255 0.55425 0.9219 0.0
C358 C 0.13843 0.57953 0.86361 0.0
H359 H 0.13264 0.65827 0.92595 0.0
H360 H 0.15651 0.47074 0.86071 0.0
H361 H 0.20226 0.49761 0.9415 0.0
H362 H 0.24666 0.54907 0.8981 0.0
Co363 Co 0.95251 0.14944 0.89784 0.0
C364 C 0.89735 0.17531 0.90266 0.0
C365 C 0.90167 0.14031 0.92252 0.0
C366 C 0.87595 0.15075 0.92535 0.0
N367 N 0.91561 0.1561 0.90873 0.0
N368 N 0.87325 0.1729 0.91294 0.0
H369 H 0.90088 0.18995 0.89015 0.0
H370 H 0.90914 0.12186 0.92968 0.0
C371 C 0.96062 0.12595 0.94271 0.0
O372 O 0.95325 0.1488 0.95184 0.0
N373 N 0.98886 0.14252 0.88683 0.0
C374 C 1.00263 0.15845 0.8731 0.0
C375 C 0.0291 0.14955 0.87191 0.0
C376 C 1.00718 0.124 0.89368 0.0
N377 N 0.03207 0.12803 0.88504 0.0
C378 C 0.95663 0.20612 0.90705 0.0
C379 C 1.00479 0.20373 0.92937 0.0
C380 C 0.99442 0.22916 0.92351 0.0
C381 C 0.96962 0.23012 0.91278 0.0
C382 C 0.99062 0.18007 0.92385 0.0
N383 N 0.96691 0.18136 0.91253 0.0
H384 H 0.93959 0.20773 0.89657 0.0
H385 H 0.99979 0.16071 0.92743 0.0
H386 H 0.99442 0.1762 0.8653 0.0
H387 H 1.00293 0.10893 0.90574 0.0
O388 O 0.94308 0.16645 0.871 0.0
O389 O 0.93795 0.12278 0.87822 0.0
O390 O 0.96057 0.12379 0.92237 0.0
C391 C 0.93589 0.14248 0.86447 0.0
H392 H 0.86044 0.14256 0.93578 0.0
H393 H 0.04505 0.15882 0.86253 0.0
H394 H 0.02414 0.20211 0.93743 0.0
H395 H 0.96135 0.24925 0.90729 0.0
Co396 Co 0.87162 0.06455 0.61081 0.0
C397 C 0.84606 0.11977 0.60634 0.0
C398 C 0.87801 0.11379 0.58363 0.0
C399 C 0.86703 0.13916 0.58051 0.0
N400 N 0.8643 0.101 0.59937 0.0
N401 N 0.84679 0.14291 0.5947 0.0
H402 H 0.83255 0.11679 0.61976 0.0
H403 H 0.89547 0.10593 0.57525 0.0
C404 C 0.89442 0.05415 0.566 0.0
O405 O 0.8708 0.0592 0.55717 0.0
N406 N 0.87919 0.02868 0.62248 0.0
C407 C 0.86415 0.01568 0.63728 0.0
C408 C 0.8731 0.98932 0.6389 0.0
C409 C 0.89726 0.00997 0.61543 0.0
N410 N 0.89373 0.98556 0.62496 0.0
C411 C 0.81499 0.06044 0.6009 0.0
C412 C 0.81735 0.01002 0.5818 0.0
C413 C 0.79194 0.02121 0.58673 0.0
C414 C 0.79094 0.0471 0.59572 0.0
C415 C 0.84103 0.02452 0.58661 0.0
N416 N 0.83977 0.04926 0.59652 0.0
H417 H 0.81334 0.07871 0.61007 0.0
H418 H 0.86036 0.01496 0.58354 0.0
H419 H 0.84692 0.0243 0.6456 0.0
H420 H 0.91148 0.01353 0.60259 0.0
O421 O 0.85443 0.07453 0.63751 0.0
O422 O 0.89806 0.08013 0.63012 0.0
O423 O 0.89733 0.05621 0.58622 0.0
C424 C 0.87829 0.08229 0.64388 0.0
H425 H 0.87393 0.15399 0.56897 0.0
H426 H 0.86439 0.97396 0.64916 0.0
H427 H 0.81891 0.98985 0.57504 0.0
H428 H 0.77171 0.05608 0.60032 0.0
Co429 Co 0.4575 0.87095 0.61359 0.0
C430 C 0.40318 0.84525 0.60505 0.0
C431 C 0.40519 0.88631 0.59412 0.0
C432 C 0.37923 0.87672 0.5908 0.0
N433 N 0.42049 0.86647 0.60279 0.0
N434 N 0.37802 0.85082 0.59762 0.0
H435 H 0.40795 0.82662 0.6131 0.0
H436 H 0.41216 0.90672 0.59103 0.0
C437 C 0.46288 0.89593 0.569 0.0
O438 O 0.45017 0.87542 0.56014 0.0
N439 N 0.49401 0.87567 0.6244 0.0
C440 C 0.50839 0.85731 0.63554 0.0
C441 C 0.53502 0.86573 0.63645 0.0
C442 C 0.51199 0.89515 0.61892 0.0
N443 N 0.53738 0.88947 0.62582 0.0
C444 C 0.46205 0.81385 0.60712 0.0
C445 C 0.50541 0.81501 0.57915 0.0
C446 C 0.49685 0.78997 0.5874 0.0
C447 C 0.47444 0.78963 0.60112 0.0
C448 C 0.49177 0.83893 0.58509 0.0
N449 N 0.47025 0.83822 0.59898 0.0
H450 H 0.44758 0.8129 0.61994 0.0
H451 H 0.50006 0.85806 0.57988 0.0
H452 H 0.50046 0.83826 0.6414 0.0
H453 H 0.50676 0.91263 0.60942 0.0
O454 O 0.44661 0.85476 0.64047 0.0
O455 O 0.44457 0.8986 0.63318 0.0
O456 O 0.46707 0.89613 0.58911 0.0
C457 C 0.44076 0.87914 0.6469 0.0
H458 H 0.36248 0.88806 0.58409 0.0
H459 H 0.55157 0.85427 0.64331 0.0
H460 H 0.52313 0.81622 0.56893 0.0
H461 H 0.46792 0.77094 0.60864 0.0
Co462 Co 0.64879 0.45611 0.60998 0.0
C463 C 0.67291 0.40033 0.60586 0.0
C464 C 0.6426 0.40731 0.58211 0.0
C465 C 0.65355 0.3819 0.57893 0.0
N466 N 0.65537 0.4195 0.59857 0.0
N467 N 0.6727 0.37755 0.59383 0.0
H468 H 0.68567 0.40277 0.61972 0.0
H469 H 0.62595 0.41571 0.57315 0.0
C470 C 0.62761 0.46755 0.56467 0.0
O471 O 0.65079 0.46094 0.55561 0.0
N472 N 0.64221 0.49216 0.62154 0.0
C473 C 0.65786 0.505 0.63595 0.0
C474 C 0.6495 0.53159 0.6375 0.0
C475 C 0.62441 0.51114 0.61465 0.0
N476 N 0.62861 0.53554 0.62395 0.0
C477 C 0.70592 0.45893 0.60366 0.0
C478 C 0.70695 0.50804 0.58245 0.0
C479 C 0.73121 0.49734 0.59051 0.0
C480 C 0.73058 0.47208 0.60053 0.0
C481 C 0.68246 0.49413 0.58599 0.0
N482 N 0.68206 0.47002 0.59687 0.0
H483 H 0.70605 0.44113 0.61347 0.0
H484 H 0.66372 0.50391 0.58149 0.0
H485 H 0.67508 0.49607 0.64399 0.0
H486 H 0.60975 0.50774 0.60216 0.0
O487 O 0.66391 0.44514 0.6371 0.0
O488 O 0.62056 0.44167 0.62835 0.0
O489 O 0.62474 0.46581 0.58491 0.0
C490 C 0.6394 0.43835 0.64266 0.0
H491 H 0.64753 0.36751 0.56678 0.0
H492 H 0.65869 0.54697 0.64744 0.0
H493 H 0.70664 0.52782 0.57494 0.0
H494 H 0.74888 0.46334 0.60721 0.0
Co495 Co 0.06626 0.64985 0.60974 0.0
C496 C 0.12142 0.67524 0.60517 0.0
C497 C 0.11669 0.6414 0.58416 0.0
C498 C 0.14239 0.65193 0.58142 0.0
N499 N 0.10305 0.65645 0.59866 0.0
N500 N 0.14532 0.67338 0.59455 0.0
H501 H 0.11806 0.68926 0.61815 0.0
H502 H 0.10905 0.62345 0.57641 0.0
C503 C 0.05706 0.62664 0.56476 0.0
O504 O 0.06426 0.6494 0.55545 0.0
N505 N 0.03007 0.64306 0.62101 0.0
C506 C 0.01664 0.65835 0.63544 0.0
C507 C 0.99046 0.6488 0.63734 0.0
C508 C 0.01184 0.62445 0.61432 0.0
N509 N 0.98746 0.62766 0.6239 0.0
C510 C 0.06241 0.7067 0.60116 0.0
C511 C 0.01388 0.7051 0.57929 0.0
C512 C 0.02445 0.73034 0.58537 0.0
C513 C 0.04943 0.7309 0.59588 0.0
C514 C 0.028 0.68123 0.58441 0.0
N515 N 0.05189 0.68214 0.59551 0.0
H516 H 0.07966 0.70799 0.61145 0.0
H517 H 0.01867 0.662 0.58072 0.0
H518 H 0.02489 0.67599 0.64335 0.0
H519 H 0.01591 0.60928 0.60229 0.0
O520 O 0.07634 0.66629 0.63667 0.0
O521 O 0.08064 0.62267 0.62894 0.0
O522 O 0.05765 0.62459 0.5851 0.0
C523 C 0.08322 0.64207 0.64289 0.0
H524 H 0.15768 0.64434 0.5705 0.0
H525 H 0.97448 0.65759 0.64703 0.0
H526 H 0.99441 0.70377 0.57138 0.0
H527 H 0.05788 0.74984 0.60155 0.0
H528 H 0.61363 0.94597 0.15044 0.0
H529 H 0.59407 0.90201 0.14109 0.0
H530 H 0.59532 0.92436 0.07446 0.0
H531 H 0.6139 0.96879 0.08396 0.0
H532 H 0.55154 0.89818 0.0813 0.0
H533 H 0.64353 0.87979 0.09723 0.0
H534 H 0.68621 0.88085 0.11766 0.0
H535 H 0.64795 0.83766 0.16908 0.0
H536 H 0.60491 0.83667 0.14909 0.0
H537 H 0.52397 0.75696 0.05594 0.0
H538 H 0.54922 0.8001 0.0578 0.0
H539 H 0.5369 0.80229 0.12598 0.0
H540 H 0.51167 0.75978 0.12416 0.0
H541 H 0.59075 0.81467 0.11293 0.0
H542 H 0.49681 0.83852 0.09506 0.0
H543 H 0.45677 0.83591 0.0716 0.0
H544 H 0.50375 0.86729 0.01932 0.0
H545 H 0.54414 0.86981 0.04243 0.0
C546 C 0.60966 0.94146 0.13383 0.0
C547 C 0.61535 0.96073 0.11795 0.0
C548 C 0.59863 0.91628 0.12844 0.0
C549 C 0.59379 0.90946 0.10697 0.0
C550 C 0.59893 0.92898 0.09111 0.0
C551 C 0.6095 0.9544 0.09656 0.0
C552 C 0.58336 0.88203 0.10121 0.0
C553 C 0.56048 0.87994 0.08794 0.0
C554 C 0.59501 0.858 0.10965 0.0
C555 C 0.62092 0.85833 0.12171 0.0
C556 C 0.64416 0.87066 0.11295 0.0
C557 C 0.66843 0.87123 0.12445 0.0
C558 C 0.66978 0.85937 0.14467 0.0
C559 C 0.64687 0.84685 0.15342 0.0
C560 C 0.62254 0.84624 0.142 0.0
C561 C 0.52687 0.76668 0.07127 0.0
C562 C 0.51566 0.75528 0.08987 0.0
C563 C 0.54119 0.79126 0.07233 0.0
C564 C 0.5448 0.80444 0.09204 0.0
C565 C 0.53435 0.79251 0.11063 0.0
C566 C 0.51981 0.76831 0.10955 0.0
C567 C 0.55865 0.8311 0.09364 0.0
C568 C 0.58218 0.83299 0.1061 0.0
C569 C 0.54804 0.85479 0.08403 0.0
C570 C 0.52355 0.854 0.07038 0.0
C571 C 0.49863 0.8447 0.07853 0.0
C572 C 0.47587 0.84325 0.0653 0.0
C573 C 0.47778 0.85123 0.04394 0.0
C574 C 0.50235 0.86097 0.03583 0.0
C575 C 0.52516 0.86246 0.04899 0.0
H576 H 0.46017 0.85002 0.0337 0.0
H577 H 0.68858 0.85985 0.15355 0.0
H578 H 0.73857 0.47618 0.08547 0.0
H579 H 0.6966 0.50218 0.08843 0.0
H580 H 0.74265 0.57652 0.08971 0.0
H581 H 0.78491 0.5504 0.0876 0.0
H582 H 0.7076 0.57631 0.12124 0.0
H583 H 0.70143 0.55726 0.04668 0.0
H584 H 0.70074 0.52978 0.01381 0.0
H585 H 0.63138 0.48609 0.0371 0.0
H586 H 0.63195 0.51291 0.07029 0.0
H587 H 0.58707 0.65796 0.11983 0.0
H588 H 0.63073 0.63686 0.11107 0.0
H589 H 0.59316 0.5581 0.11284 0.0
H590 H 0.54906 0.5792 0.12057 0.0
H591 H 0.6249 0.56393 0.07754 0.0
H592 H 0.63349 0.57938 0.15308 0.0
H593 H 0.63324 0.60679 0.18601 0.0
H594 H 0.69692 0.65684 0.1607 0.0
H595 H 0.69729 0.62993 0.12748 0.0
C596 C 0.73978 0.4981 0.08608 0.0
C597 C 0.76516 0.51117 0.08641 0.0
C598 C 0.71569 0.513 0.08761 0.0
C599 C 0.71631 0.54141 0.08922 0.0
C600 C 0.74158 0.55463 0.0885 0.0
C601 C 0.76575 0.53968 0.08704 0.0
C602 C 0.69081 0.55695 0.0934 0.0
C603 C 0.68967 0.57394 0.11141 0.0
C604 C 0.66707 0.55341 0.08098 0.0
C605 C 0.66694 0.53694 0.06112 0.0
C606 C 0.68622 0.54159 0.04492 0.0
C607 C 0.68582 0.52615 0.0262 0.0
C608 C 0.66609 0.50614 0.0234 0.0
C609 C 0.6467 0.50154 0.03931 0.0
C610 C 0.64706 0.51686 0.05808 0.0
C611 C 0.58813 0.63611 0.11839 0.0
C612 C 0.56464 0.62019 0.12089 0.0
C613 C 0.61311 0.62407 0.11339 0.0
C614 C 0.61521 0.59581 0.11116 0.0
C615 C 0.59185 0.57991 0.11397 0.0
C616 C 0.56675 0.59196 0.11853 0.0
C617 C 0.64157 0.58274 0.10553 0.0
C618 C 0.64287 0.5663 0.08727 0.0
C619 C 0.66537 0.58666 0.11774 0.0
C620 C 0.6652 0.60283 0.1377 0.0
C621 C 0.64728 0.59637 0.15446 0.0
C622 C 0.64714 0.61179 0.17319 0.0
C623 C 0.66499 0.63359 0.17542 0.0
C624 C 0.68307 0.63998 0.15894 0.0
C625 C 0.68326 0.62464 0.14016 0.0
H626 H 0.66487 0.6455 0.18994 0.0
H627 H 0.66579 0.49425 0.00888 0.0
H628 H 0.99275 0.76534 0.05728 0.0
H629 H 0.96874 0.72164 0.05909 0.0
H630 H 0.99788 0.70992 0.12332 0.0
H631 H 0.02177 0.75298 0.12154 0.0
H632 H 1.0049 0.66505 0.10089 0.0
H633 H 0.93158 0.72969 0.11181 0.0
H634 H 0.9024 0.76825 0.10166 0.0
H635 H 0.87766 0.72589 0.04508 0.0
H636 H 0.90698 0.68721 0.05477 0.0
H637 H 0.91564 0.57151 0.15046 0.0
H638 H 0.93763 0.61402 0.1397 0.0
H639 H 0.91653 0.59853 0.07409 0.0
H640 H 0.89488 0.55574 0.08475 0.0
H641 H 0.90554 0.6548 0.09119 0.0
H642 H 0.97667 0.58976 0.08054 0.0
H643 H 1.00577 0.55091 0.09009 0.0
H644 H 0.0343 0.59384 0.14529 0.0
H645 H 1.00518 0.63288 0.13612 0.0
C646 C 0.99386 0.75343 0.07177 0.0
C647 C 1.00949 0.76242 0.08913 0.0
C648 C 0.98015 0.72849 0.07281 0.0
C649 C 0.98154 0.7124 0.09135 0.0
C650 C 0.99673 0.72172 0.10876 0.0
C651 C 0.01046 0.74638 0.10769 0.0
C652 C 0.96765 0.68567 0.09294 0.0
C653 C 0.98314 0.66294 0.09885 0.0
C654 C 0.93938 0.68253 0.08963 0.0
C655 C 0.9217 0.70571 0.08388 0.0
C656 C 0.92008 0.7287 0.09712 0.0
C657 C 0.90348 0.75055 0.09147 0.0
C658 C 0.88825 0.74955 0.07271 0.0
C659 C 0.88951 0.72666 0.05959 0.0
C660 C 0.9061 0.70476 0.06516 0.0
C661 C 0.91556 0.57728 0.13379 0.0
C662 C 0.90365 0.56031 0.11844 0.0
C663 C 0.92818 0.60146 0.12764 0.0
C664 C 0.92872 0.60934 0.1061 0.0
C665 C 0.91631 0.59278 0.09078 0.0
C666 C 0.90413 0.56832 0.09687 0.0
C667 C 0.94275 0.63469 0.09974 0.0
C668 C 0.92733 0.657 0.09293 0.0
C669 C 0.97109 0.63751 0.10212 0.0
C670 C 0.98856 0.6141 0.10777 0.0
C671 C 0.98897 0.59081 0.09482 0.0
C672 C 1.00552 0.56879 0.10012 0.0
C673 C 0.02181 0.56987 0.11833 0.0
C674 C 0.02165 0.59302 0.13121 0.0
C675 C 1.00517 0.61512 0.12594 0.0
H676 H 0.03461 0.5528 0.12242 0.0
H677 H 0.87542 0.76649 0.06836 0.0
H678 H 0.96773 0.90198 0.08237 0.0
H679 H 0.9235 0.92088 0.07264 0.0
H680 H 0.90358 0.92999 0.13945 0.0
H681 H 0.94726 0.9097 0.14905 0.0
H682 H 0.86194 0.91174 0.12064 0.0
H683 H 0.92397 0.98528 0.10311 0.0
H684 H 0.96357 1.00512 0.08464 0.0
H685 H 0.92872 0.98491 0.02396 0.0
H686 H 0.88898 0.96491 0.04206 0.0
H687 H 0.76256 0.01298 0.12253 0.0
H688 H 0.80506 0.9877 0.12387 0.0
H689 H 0.79875 0.97024 0.05661 0.0
H690 H 0.75566 0.99581 0.05518 0.0
H691 H 0.85182 0.98866 0.07023 0.0
H692 H 0.78699 0.92069 0.08832 0.0
H693 H 0.74735 0.9016 0.10713 0.0
H694 H 0.78782 0.9116 0.16721 0.0
H695 H 0.82756 0.93116 0.1488 0.0
C696 C 0.95394 0.90826 0.09493 0.0
C697 C 0.96094 0.90457 0.11648 0.0
C698 C 0.92866 0.91917 0.08937 0.0
C699 C 0.91016 0.9274 0.10527 0.0
C700 C 0.91733 0.92381 0.12682 0.0
C701 C 0.94232 0.91231 0.13235 0.0
C702 C 0.88314 0.93924 0.09969 0.0
C703 C 0.85988 0.92873 0.10977 0.0
C704 C 0.88003 0.96076 0.08482 0.0
C705 C 0.90361 0.97342 0.07394 0.0
C706 C 0.92479 0.98504 0.08583 0.0
C707 C 0.94725 0.99634 0.07542 0.0
C708 C 0.94867 0.9963 0.05314 0.0
C709 C 0.92758 0.98503 0.04121 0.0
C710 C 0.90506 0.97376 0.05153 0.0
C711 C 0.7702 1.00383 0.10798 0.0
C712 C 0.75587 1.00654 0.0887 0.0
C713 C 0.79445 0.98927 0.10879 0.0
C714 C 0.80508 0.97702 0.09037 0.0
C715 C 0.79089 0.97958 0.07102 0.0
C716 C 0.76627 0.994 0.07023 0.0
C717 C 0.83106 0.96171 0.0918 0.0
C718 C 0.854 0.97149 0.08092 0.0
C719 C 0.83397 0.9396 0.10601 0.0
C720 C 0.81021 0.92756 0.11716 0.0
C721 C 0.78737 0.919 0.10555 0.0
C722 C 0.76489 0.90806 0.11614 0.0
C723 C 0.76505 0.90542 0.13835 0.0
C724 C 0.78773 0.91366 0.15001 0.0
C725 C 0.81025 0.92464 0.1395 0.0
H726 H 0.74762 0.89696 0.14652 0.0
H727 H 0.96607 1.00505 0.04513 0.0
H728 H 0.97895 0.23676 0.43613 0.0
H729 H 1.00297 0.19354 0.43214 0.0
H730 H 0.07444 0.2362 0.41081 0.0
H731 H 0.05042 0.27938 0.41442 0.0
H732 H 0.06037 0.1972 0.3832 0.0
H733 H 0.07163 0.20405 0.45865 0.0
H734 H 0.05927 0.20828 0.49664 0.0
H735 H 0.01335 0.1345 0.49301 0.0
H736 H 0.02481 0.13016 0.45485 0.0
H737 H 0.14901 0.08423 0.37697 0.0
H738 H 0.12726 0.12697 0.38637 0.0
H739 H 0.05622 0.08376 0.40784 0.0
H740 H 0.07784 0.04071 0.39833 0.0
H741 H 0.07039 0.12292 0.43585 0.0
H742 H 0.0561 0.11751 0.36043 0.0
H743 H 0.06936 0.11173 0.32271 0.0
H744 H 0.12121 0.18143 0.32688 0.0
H745 H 0.10856 0.18741 0.36474 0.0
C746 C 0.99994 0.23695 0.43093 0.0
C747 C 0.01272 0.26156 0.42554 0.0
C748 C 0.0137 0.21223 0.42876 0.0
C749 C 0.04054 0.21156 0.42116 0.0
C750 C 0.05374 0.23618 0.4167 0.0
C751 C 0.04004 0.26091 0.41897 0.0
C752 C 0.05396 0.18528 0.41593 0.0
C753 C 0.06292 0.18113 0.39485 0.0
C754 C 0.05652 0.16388 0.43091 0.0
C755 C 0.04873 0.16704 0.45371 0.0
C756 C 0.05849 0.18898 0.46581 0.0
C757 C 0.05171 0.19134 0.48743 0.0
C758 C 0.03542 0.17175 0.49721 0.0
C759 C 0.02585 0.14974 0.48539 0.0
C760 C 0.03245 0.14735 0.46375 0.0
C761 C 0.12862 0.08368 0.38337 0.0
C762 C 0.11516 0.05885 0.38668 0.0
C763 C 0.11621 0.10825 0.38884 0.0
C764 C 0.08995 0.10867 0.39759 0.0
C765 C 0.07648 0.08397 0.40108 0.0
C766 C 0.08892 0.05933 0.39566 0.0
C767 C 0.07673 0.1349 0.40324 0.0
C768 C 0.06777 0.13901 0.42429 0.0
C769 C 0.074 0.15622 0.38827 0.0
C770 C 0.08158 0.15274 0.36548 0.0
C771 C 0.0705 0.13148 0.35335 0.0
C772 C 0.07787 0.12819 0.33194 0.0
C773 C 0.09617 0.14616 0.32242 0.0
C774 C 0.10707 0.1675 0.33428 0.0
C775 C 0.09978 0.17087 0.35572 0.0
H776 H 0.10185 0.14358 0.30584 0.0
H777 H 0.0303 0.17357 0.51396 0.0
H778 H 0.24064 0.04913 0.41717 0.0
H779 H 0.28376 0.07265 0.41397 0.0
H780 H 0.32591 0.99588 0.4134 0.0
H781 H 0.28344 0.97249 0.41956 0.0
H782 H 0.35748 0.02684 0.42963 0.0
H783 H 0.30624 0.03601 0.36558 0.0
H784 H 0.26699 0.04778 0.34304 0.0
H785 H 0.27429 0.13135 0.36139 0.0
H786 H 0.31339 0.12001 0.38427 0.0
H787 H 0.47666 0.07634 0.37798 0.0
H788 H 0.43338 0.05278 0.3838 0.0
H789 H 0.39446 0.12943 0.39717 0.0
H790 H 0.43729 0.15292 0.39013 0.0
H791 H 0.36199 0.09836 0.37407 0.0
H792 H 0.41968 0.08185 0.43744 0.0
H793 H 0.46384 0.06491 0.45037 0.0
H794 H 0.44682 0.98635 0.42406 0.0
H795 H 0.40284 1.00294 0.41068 0.0
C796 C 0.25904 0.03715 0.4171 0.0
C797 C 0.2581 1.00861 0.41808 0.0
C798 C 0.28384 0.05072 0.41475 0.0
C799 C 0.30825 0.03614 0.4124 0.0
C800 C 0.30753 1.00782 0.41476 0.0
C801 C 0.28292 0.99433 0.41793 0.0
C802 C 0.33433 0.05004 0.40678 0.0
C803 C 0.35828 0.04234 0.41737 0.0
C804 C 0.33596 0.07018 0.39061 0.0
C805 C 0.31254 0.07711 0.37681 0.0
C806 C 0.29936 0.05687 0.36491 0.0
C807 C 0.27716 0.06346 0.35207 0.0
C808 C 0.26811 0.09028 0.35084 0.0
C809 C 0.28129 0.11058 0.3624 0.0
C810 C 0.30348 0.10409 0.37529 0.0
C811 C 0.45877 0.08801 0.38211 0.0
C812 C 0.46025 0.11636 0.3837 0.0
C813 C 0.43408 0.07461 0.38551 0.0
C814 C 0.41067 0.08924 0.39146 0.0
C815 C 0.41215 0.11764 0.39268 0.0
C816 C 0.43662 0.13105 0.38871 0.0
C817 C 0.38475 0.07521 0.39698 0.0
C818 C 0.36089 0.08297 0.38642 0.0
C819 C 0.3834 0.05429 0.41245 0.0
C820 C 0.40811 0.04368 0.42295 0.0
C821 C 0.42528 0.0609 0.43461 0.0
C822 C 0.45035 0.05141 0.44188 0.0
C823 C 0.4582 0.02465 0.43782 0.0
C824 C 0.44077 1.00713 0.42701 0.0
C825 C 0.41575 0.01653 0.41965 0.0
H826 H 0.47776 0.01736 0.44308 0.0
H827 H 0.25091 0.09535 0.34089 0.0
H828 H 0.47042 0.23774 0.41408 0.0
H829 H 0.44658 0.28102 0.41082 0.0
H830 H 0.51941 0.32355 0.42883 0.0
H831 H 0.54321 0.28024 0.43276 0.0
H832 H 0.47422 0.34831 0.44523 0.0
H833 H 0.50437 0.31517 0.37695 0.0
H834 H 0.50861 0.28143 0.34807 0.0
H835 H 0.42206 0.28104 0.34032 0.0
H836 H 0.41728 0.3145 0.36939 0.0
H837 H 0.44154 0.47641 0.39812 0.0
H838 H 0.46367 0.43363 0.40754 0.0
H839 H 0.3924 0.38968 0.38788 0.0
H840 H 0.37013 0.43216 0.3786 0.0
H841 H 0.43701 0.36576 0.373 0.0
H842 H 0.40725 0.40186 0.44 0.0
H843 H 0.40361 0.43593 0.46865 0.0
H844 H 0.48933 0.43049 0.47955 0.0
H845 H 0.49381 0.39732 0.45036 0.0
C846 C 0.48119 0.25621 0.41799 0.0
C847 C 0.50883 0.25548 0.42353 0.0
C848 C 0.46759 0.28101 0.41588 0.0
C849 C 0.48135 0.3056 0.41915 0.0
C850 C 0.5084 0.30488 0.42607 0.0
C851 C 0.52203 0.28009 0.42819 0.0
C852 C 0.46825 0.33196 0.41374 0.0
C853 C 0.46632 0.35228 0.42939 0.0
C854 C 0.45761 0.33702 0.39314 0.0
C855 C 0.46045 0.31713 0.37549 0.0
C856 C 0.48623 0.30775 0.36919 0.0
C857 C 0.48874 0.28869 0.35277 0.0
C858 C 0.46561 0.27904 0.3424 0.0
C859 C 0.43994 0.2885 0.34839 0.0
C860 C 0.43733 0.30752 0.36482 0.0
C861 C 0.43049 0.45769 0.3959 0.0
C862 C 0.40397 0.4579 0.38754 0.0
C863 C 0.44319 0.4332 0.4013 0.0
C864 C 0.42962 0.40838 0.39862 0.0
C865 C 0.40334 0.40852 0.39005 0.0
C866 C 0.39065 0.43293 0.38463 0.0
C867 C 0.44274 0.38219 0.40452 0.0
C868 C 0.44479 0.36188 0.38889 0.0
C869 C 0.4535 0.37725 0.42514 0.0
C870 C 0.45091 0.39733 0.44272 0.0
C871 C 0.42543 0.40823 0.44827 0.0
C872 C 0.42323 0.42744 0.4646 0.0
C873 C 0.4463 0.4356 0.47578 0.0
C874 C 0.47158 0.42444 0.47071 0.0
C875 C 0.47397 0.40547 0.45423 0.0
H876 H 0.44459 0.45044 0.48845 0.0
H877 H 0.46759 0.26428 0.3297 0.0
H878 H 0.08666 0.36812 0.38295 0.0
H879 H 0.12878 0.39101 0.39223 0.0
H880 H 0.08377 0.46286 0.40942 0.0
H881 H 0.04143 0.44034 0.39947 0.0
H882 H 0.1282 0.47556 0.38652 0.0
H883 H 0.10918 0.42097 0.44777 0.0
H884 H 0.09793 0.37894 0.46717 0.0
H885 H 0.17166 0.34203 0.44469 0.0
H886 H 0.18317 0.38372 0.42489 0.0
H887 H 0.23915 0.54161 0.43421 0.0
H888 H 0.19539 0.5185 0.43161 0.0
H889 H 0.23606 0.44523 0.41163 0.0
H890 H 0.27992 0.46824 0.41418 0.0
H891 H 0.19276 0.43423 0.4378 0.0
H892 H 0.21022 0.48798 0.37503 0.0
H893 H 0.22139 0.52998 0.35555 0.0
H894 H 0.15009 0.56846 0.38105 0.0
H895 H 0.13872 0.52679 0.40097 0.0
C896 C 0.08561 0.38889 0.38842 0.0
C897 C 0.06049 0.40233 0.39041 0.0
C898 C 0.10978 0.40187 0.394 0.0
C899 C 0.10947 0.42854 0.40185 0.0
C900 C 0.08453 0.44222 0.40353 0.0
C901 C 0.0603 0.42924 0.39795 0.0
C902 C 0.13523 0.44219 0.40798 0.0
C903 C 0.14208 0.46674 0.39802 0.0
C904 C 0.15366 0.43045 0.42266 0.0
C905 C 0.14692 0.4054 0.43469 0.0
C906 C 0.12291 0.40382 0.44684 0.0
C907 C 0.11649 0.38007 0.45792 0.0
C908 C 0.13404 0.3578 0.45712 0.0
C909 C 0.15807 0.35928 0.44528 0.0
C910 C 0.16457 0.38298 0.43414 0.0
C911 C 0.23881 0.52046 0.42955 0.0
C912 C 0.26303 0.50685 0.42421 0.0
C913 C 0.21378 0.50729 0.42804 0.0
C914 C 0.21239 0.48029 0.421 0.0
C915 C 0.23662 0.4661 0.41703 0.0
C916 C 0.26171 0.47925 0.41859 0.0
C917 C 0.18571 0.46752 0.41629 0.0
C918 C 0.17875 0.44313 0.42646 0.0
C919 C 0.16713 0.4794 0.4018 0.0
C920 C 0.17378 0.50437 0.38966 0.0
C921 C 0.19703 0.50546 0.37661 0.0
C922 C 0.20339 0.5292 0.36547 0.0
C923 C 0.1865 0.5519 0.3671 0.0
C924 C 0.16318 0.55088 0.37983 0.0
C925 C 0.15676 0.5272 0.39104 0.0
H926 H 0.19146 0.57026 0.35847 0.0
H927 H 0.12903 0.33942 0.46572 0.0
H928 H 0.43803 0.04085 0.90044 0.0
H929 H 0.45958 0.08374 0.91018 0.0
H930 H 0.38715 0.12703 0.89202 0.0
H931 H 0.36546 0.08441 0.88239 0.0
H932 H 0.43082 0.15208 0.87707 0.0
H933 H 0.4031 0.11419 0.94371 0.0
H934 H 0.40019 0.07939 0.97184 0.0
H935 H 0.48603 0.08497 0.98196 0.0
H936 H 0.48981 0.11888 0.95325 0.0
H937 H 0.46552 0.27898 0.91949 0.0
H938 H 0.44116 0.23584 0.91737 0.0
H939 H 0.51553 0.19256 0.92986 0.0
H940 H 0.53995 0.23568 0.93228 0.0
H941 H 0.47018 0.16783 0.94884 0.0
H942 H 0.49782 0.20247 0.88011 0.0
H943 H 0.50075 0.23725 0.85192 0.0
H944 H 0.41386 0.23837 0.84685 0.0
H945 H 0.41041 0.20388 0.87529 0.0
C946 C 0.42662 0.05946 0.89861 0.0
C947 C 0.39995 0.05903 0.89059 0.0
C948 C 0.43898 0.084 0.9042 0.0
C949 C 0.4249 0.10864 0.90205 0.0
C950 C 0.39846 0.10832 0.89379 0.0
C951 C 0.38611 0.08384 0.88817 0.0
C952 C 0.43768 0.13486 0.9082 0.0
C953 C 0.43905 0.15559 0.89288 0.0
C954 C 0.44892 0.13935 0.92872 0.0
C955 C 0.44678 0.11886 0.94605 0.0
C956 C 0.42147 0.10771 0.95169 0.0
C957 C 0.41968 0.08807 0.96773 0.0
C958 C 0.443 0.07974 0.97854 0.0
C959 C 0.4681 0.09116 0.97339 0.0
C960 C 0.47008 0.11055 0.95719 0.0
C961 C 0.47652 0.26035 0.92249 0.0
C962 C 0.50471 0.26073 0.92592 0.0
C963 C 0.46261 0.23568 0.9211 0.0
C964 C 0.47662 0.21096 0.92311 0.0
C965 C 0.50433 0.21136 0.92817 0.0
C966 C 0.51828 0.236 0.92947 0.0
C967 C 0.46313 0.18489 0.91772 0.0
C968 C 0.46176 0.16423 0.93311 0.0
C969 C 0.4518 0.18037 0.89729 0.0
C970 C 0.45385 0.20081 0.87998 0.0
C971 C 0.47933 0.21027 0.87309 0.0
C972 C 0.48109 0.22992 0.85706 0.0
C973 C 0.4575 0.24007 0.84764 0.0
C974 C 0.43211 0.23052 0.85419 0.0
C975 C 0.43024 0.21092 0.87026 0.0
H976 H 0.4589 0.25528 0.83523 0.0
H977 H 0.4416 0.06457 0.99098 0.0
H978 H 0.42958 0.357 0.88833 0.0
H979 H 0.38625 0.37839 0.89762 0.0
H980 H 0.42435 0.45689 0.8956 0.0
H981 H 0.46809 0.43553 0.88722 0.0
H982 H 0.39339 0.45116 0.93122 0.0
H983 H 0.38313 0.43604 0.85576 0.0
H984 H 0.38251 0.4087 0.8228 0.0
H985 H 0.31896 0.35908 0.84883 0.0
H986 H 0.31946 0.38592 0.88208 0.0
H987 H 0.28047 0.54 0.92501 0.0
H988 H 0.3221 0.51358 0.92169 0.0
H989 H 0.27521 0.43979 0.9199 0.0
H990 H 0.23328 0.46633 0.92219 0.0
H991 H 0.30975 0.4397 0.88846 0.0
H992 H 0.31748 0.45851 0.96301 0.0
H993 H 0.31906 0.48593 0.99588 0.0
H994 H 0.38842 0.52896 0.97183 0.0
H995 H 0.38697 0.50219 0.93863 0.0
C996 C 0.4287 0.37885 0.88979 0.0
C997 C 0.45225 0.39462 0.88704 0.0
C998 C 0.40392 0.39105 0.89511 0.0
C999 C 0.40208 0.41932 0.89744 0.0
C1000 C 0.42548 0.43507 0.89437 0.0
C1001 C 0.45038 0.42287 0.88945 0.0
C1002 C 0.37595 0.43257 0.90343 0.0
C1003 C 0.37519 0.44897 0.92173 0.0
C1004 C 0.35191 0.42891 0.89148 0.0
C1005 C 0.35154 0.4128 0.87149 0.0
C1006 C 0.36918 0.41916 0.85453 0.0
C1007 C 0.36882 0.40378 0.83578 0.0
C1008 C 0.35077 0.38212 0.83375 0.0
C1009 C 0.33297 0.37584 0.85044 0.0
C1010 C 0.33327 0.39114 0.86923 0.0
C1011 C 0.27899 0.51811 0.92419 0.0
C1012 C 0.25346 0.50534 0.92372 0.0
C1013 C 0.3029 0.50296 0.92247 0.0
C1014 C 0.30195 0.47458 0.92062 0.0
C1015 C 0.27653 0.46164 0.92129 0.0
C1016 C 0.25254 0.47684 0.92286 0.0
C1017 C 0.32722 0.45881 0.91616 0.0
C1018 C 0.32787 0.44186 0.8981 0.0
C1019 C 0.35123 0.46208 0.92832 0.0
C1020 C 0.35191 0.47849 0.9482 0.0
C1021 C 0.33288 0.47402 0.96461 0.0
C1022 C 0.33379 0.48943 0.98333 0.0
C1023 C 0.35376 0.50923 0.98592 0.0
C1024 C 0.37291 0.51366 0.96979 0.0
C1025 C 0.37205 0.49837 0.95102 0.0
H1026 H 0.35445 0.52111 1.00044 0.0
H1027 H 0.35051 0.37024 0.81922 0.0
H1028 H 0.04682 0.238 0.9113 0.0
H1029 H 0.07026 0.28154 0.9088 0.0
H1030 H 1.00155 0.32124 0.93825 0.0
H1031 H 0.97768 0.27775 0.93994 0.0
H1032 H 0.01471 0.34827 0.9054 0.0
H1033 H 0.06644 0.31351 0.96343 0.0
H1034 H 0.09423 0.28044 0.98324 0.0
H1035 H 0.15556 0.28393 0.93446 0.0
H1036 H 0.12797 0.31676 0.9142 0.0
H1037 H 0.08042 0.47643 0.90778 0.0
H1038 H 0.05913 0.4341 0.91857 0.0
H1039 H 0.12166 0.38896 0.88586 0.0
H1040 H 0.14399 0.4311 0.87592 0.0
H1041 H 0.11102 0.36609 0.92322 0.0
H1042 H 0.05601 0.39902 0.86443 0.0
H1043 H 0.02765 0.43283 0.84587 0.0
H1044 H 0.97183 0.43361 0.89867 0.0
H1045 H 1.00002 0.4 0.91762 0.0
C1046 C 0.03704 0.25591 0.91775 0.0
C1047 C 0.01048 0.25447 0.92591 0.0
C1048 C 0.05046 0.28087 0.91633 0.0
C1049 C 0.03785 0.30486 0.92347 0.0
C1050 C 0.01175 0.30315 0.93254 0.0
C1051 C 0.99817 0.27828 0.93363 0.0
C1052 C 0.05083 0.33186 0.91987 0.0
C1053 C 0.03564 0.35224 0.90971 0.0
C1054 C 0.07831 0.33714 0.92505 0.0
C1055 C 0.09501 0.31744 0.93721 0.0
C1056 C 0.08576 0.30708 0.95685 0.0
C1057 C 0.1015 0.2884 0.96817 0.0
C1058 C 0.12662 0.28004 0.96009 0.0
C1059 C 0.13608 0.2904 0.94069 0.0
C1060 C 0.12042 0.30908 0.9293 0.0
C1061 C 0.08994 0.45763 0.90297 0.0
C1062 C 0.11411 0.45755 0.89084 0.0
C1063 C 0.07748 0.4333 0.90903 0.0
C1064 C 0.08853 0.40822 0.90281 0.0
C1065 C 0.11266 0.40801 0.89083 0.0
C1066 C 0.12529 0.4323 0.88493 0.0
C1067 C 0.07495 0.3822 0.90861 0.0
C1068 C 0.09004 0.36206 0.91913 0.0
C1069 C 0.04729 0.3772 0.90398 0.0
C1070 C 0.03023 0.39719 0.89249 0.0
C1071 C 0.03776 0.40652 0.87211 0.0
C1072 C 0.0217 0.42562 0.86152 0.0
C1073 C 0.99798 0.4354 0.8711 0.0
C1074 C 0.99021 0.42604 0.89127 0.0
C1075 C 1.0062 0.40694 0.90193 0.0
H1076 H 0.98559 0.45021 0.86289 0.0
H1077 H 0.13877 0.26557 0.96888 0.0
H1078 H 0.27678 0.04824 0.91552 0.0
H1079 H 0.23297 0.07129 0.91265 0.0
H1080 H 0.1923 0.99871 0.93397 0.0
H1081 H 0.23607 0.97551 0.93668 0.0
H1082 H 0.16922 0.01675 0.89909 0.0
H1083 H 0.19547 0.05725 0.96521 0.0
H1084 H 0.22545 0.08167 0.99009 0.0
H1085 H 0.2247 0.15129 0.94892 0.0
H1086 H 0.195 0.12715 0.92364 0.0
H1087 H 0.03798 0.07757 0.90217 0.0
H1088 H 0.08031 0.05532 0.91246 0.0
H1089 H 0.12565 0.12475 0.89057 0.0
H1090 H 0.08352 0.14752 0.88102 0.0
H1091 H 0.14524 0.10745 0.92774 0.0
H1092 H 0.12139 0.06586 0.86078 0.0
H1093 H 0.09163 0.04139 0.83575 0.0
H1094 H 0.08814 0.97366 0.87875 0.0
H1095 H 0.11761 0.99788 0.90417 0.0
C1096 C 0.25858 0.03742 0.92018 0.0
C1097 C 0.25994 0.01001 0.92632 0.0
C1098 C 0.23347 0.05062 0.91847 0.0
C1099 C 0.2092 0.0368 0.92312 0.0
C1100 C 0.21066 0.0098 0.93017 0.0
C1101 C 0.23571 0.99657 0.93177 0.0
C1102 C 0.1823 0.04976 0.91911 0.0
C1103 C 0.16383 0.03637 0.9057 0.0
C1104 C 0.17538 0.07568 0.92725 0.0
C1105 C 0.19319 0.09029 0.94244 0.0
C1106 C 0.20187 0.07769 0.96138 0.0
C1107 C 0.21878 0.0915 0.97557 0.0
C1108 C 0.22702 0.11799 0.97106 0.0
C1109 C 0.21832 0.13076 0.95238 0.0
C1110 C 0.20142 0.11703 0.93813 0.0
C1111 C 0.0569 0.08823 0.89964 0.0
C1112 C 0.05714 0.11437 0.89058 0.0
C1113 C 0.08117 0.07535 0.9054 0.0
C1114 C 0.10629 0.0882 0.9021 0.0
C1115 C 0.10659 0.11435 0.89325 0.0
C1116 C 0.08237 0.12725 0.88754 0.0
C1117 C 0.13231 0.07446 0.90768 0.0
C1118 C 0.15061 0.08773 0.92131 0.0
C1119 C 0.13911 0.04842 0.89976 0.0
C1120 C 0.12146 0.0338 0.88447 0.0
C1121 C 0.11411 0.04583 0.86497 0.0
C1122 C 0.09732 0.03199 0.8507 0.0
C1123 C 0.08794 1.00602 0.85568 0.0
C1124 C 0.09539 0.9938 0.87493 0.0
C1125 C 0.11214 1.00756 0.88926 0.0
H1126 H 0.07495 0.99534 0.84462 0.0
H1127 H 0.24012 0.12865 0.98207 0.0
H1128 H 0.04157 0.77943 0.57021 0.0
H1129 H 0.01812 0.82305 0.57325 0.0
H1130 H 0.94852 0.7828 0.6006 0.0
H1131 H 0.97166 0.73904 0.59699 0.0
H1132 H 0.93194 0.82327 0.57661 0.0
H1133 H 0.9982 0.81324 0.63193 0.0
H1134 H 0.04376 0.80485 0.64673 0.0
H1135 H 0.07467 0.87425 0.61318 0.0
H1136 H 0.02934 0.88281 0.59792 0.0
H1137 H 0.87501 0.93445 0.63264 0.0
H1138 H 0.89652 0.89177 0.62302 0.0
H1139 H 0.96308 0.93521 0.59419 0.0
H1140 H 0.94222 0.97824 0.60456 0.0
H1141 H 0.98135 0.89379 0.61744 0.0
H1142 H 0.91242 0.90486 0.56434 0.0
H1143 H 0.86607 0.9126 0.55089 0.0
H1144 H 0.83887 0.84022 0.58246 0.0
H1145 H 0.88503 0.83234 0.59631 0.0
C1146 C 0.02105 0.77986 0.57647 0.0
C1147 C 1.00849 0.75584 0.58344 0.0
C1148 C 1.00772 0.80482 0.57834 0.0
C1149 C 0.98179 0.80639 0.58769 0.0
C1150 C 0.96855 0.78221 0.59344 0.0
C1151 C 0.98175 0.75716 0.59129 0.0
C1152 C 0.96919 0.83321 0.59266 0.0
C1153 C 0.94265 0.83858 0.58572 0.0
C1154 C 0.98323 0.85345 0.60431 0.0
C1155 C 0.01045 0.84849 0.61361 0.0
C1156 C 0.01476 0.8266 0.6276 0.0
C1157 C 0.04053 0.82182 0.63608 0.0
C1158 C 0.06211 0.83896 0.63085 0.0
C1159 C 0.05794 0.86096 0.61718 0.0
C1160 C 0.03221 0.86579 0.60862 0.0
C1161 C 0.89437 0.93515 0.62451 0.0
C1162 C 0.90678 0.9601 0.61948 0.0
C1163 C 0.90651 0.91056 0.61873 0.0
C1164 C 0.93124 0.91017 0.60755 0.0
C1165 C 0.94392 0.93494 0.60271 0.0
C1166 C 0.93182 0.95961 0.60854 0.0
C1167 C 0.94411 0.88391 0.60135 0.0
C1168 C 0.97069 0.87859 0.60818 0.0
C1169 C 0.92994 0.86361 0.58985 0.0
C1170 C 0.90216 0.86819 0.58148 0.0
C1171 C 0.89651 0.89074 0.56851 0.0
C1172 C 0.87028 0.89512 0.5608 0.0
C1173 C 0.84951 0.87693 0.56585 0.0
C1174 C 0.85497 0.85431 0.57858 0.0
C1175 C 0.88118 0.84987 0.58634 0.0
H1176 H 0.8292 0.88035 0.55988 0.0
H1177 H 0.08205 0.83523 0.63744 0.0
H1178 H 0.74548 0.03323 0.56494 0.0
H1179 H 0.70175 0.00974 0.5673 0.0
H1180 H 0.7373 0.95079 0.60988 0.0
H1181 H 0.7813 0.9733 0.60635 0.0
H1182 H 0.70291 0.92603 0.58729 0.0
H1183 H 0.69829 0.01035 0.62668 0.0
H1184 H 0.70125 0.05997 0.63114 0.0
H1185 H 0.63947 0.07109 0.58372 0.0
H1186 H 0.63638 0.02152 0.57881 0.0
H1187 H 0.58645 0.88464 0.64541 0.0
H1188 H 0.629 0.90622 0.63511 0.0
H1189 H 0.58809 0.94895 0.58455 0.0
H1190 H 0.54554 0.92695 0.59421 0.0
H1191 H 0.62329 0.98193 0.60806 0.0
H1192 H 0.62552 0.89637 0.57179 0.0
H1193 H 0.62221 0.8466 0.56904 0.0
H1194 H 0.6886 0.83773 0.61274 0.0
H1195 H 0.69203 0.88746 0.61602 0.0
C1196 C 0.74397 0.01489 0.57438 0.0
C1197 C 0.76669 1.00498 0.5854 0.0
C1198 C 0.71892 1.00164 0.57596 0.0
C1199 C 0.71584 0.97886 0.58931 0.0
C1200 C 0.73894 0.96833 0.59955 0.0
C1201 C 0.76413 0.98116 0.5975 0.0
C1202 C 0.68856 0.96662 0.59341 0.0
C1203 C 0.68564 0.93831 0.59204 0.0
C1204 C 0.66561 0.98252 0.59916 0.0
C1205 C 0.66729 0.01228 0.60224 0.0
C1206 C 0.68544 0.0234 0.61714 0.0
C1207 C 0.68713 0.0515 0.61975 0.0
C1208 C 0.6706 0.06867 0.60769 0.0
C1209 C 0.65228 0.05777 0.59303 0.0
C1210 C 0.65054 0.02968 0.59034 0.0
C1211 C 0.58636 0.89842 0.63198 0.0
C1212 C 0.56228 0.90371 0.62063 0.0
C1213 C 0.6108 0.91084 0.62616 0.0
C1214 C 0.61181 0.92897 0.6089 0.0
C1215 C 0.58779 0.93499 0.5979 0.0
C1216 C 0.56335 0.92241 0.60359 0.0
C1217 C 0.63799 0.94148 0.60234 0.0
C1218 C 0.64062 0.96977 0.60321 0.0
C1219 C 0.66072 0.92557 0.59638 0.0
C1220 C 0.65888 0.89565 0.59429 0.0
C1221 C 0.63928 0.88381 0.58094 0.0
C1222 C 0.6374 0.8556 0.57927 0.0
C1223 C 0.65514 0.83901 0.59074 0.0
C1224 C 0.67485 0.8506 0.60387 0.0
C1225 C 0.67679 0.8788 0.60563 0.0
H1226 H 0.65365 0.81718 0.58943 0.0
H1227 H 0.67195 0.09042 0.60973 0.0
H1228 H 0.64978 0.58611 0.62833 0.0
H1229 H 0.62839 0.62909 0.6192 0.0
H1230 H 0.55702 0.58662 0.59785 0.0
H1231 H 0.57833 0.54329 0.60706 0.0
H1232 H 0.57041 0.62671 0.57033 0.0
H1233 H 0.55763 0.61915 0.64593 0.0
H1234 H 0.57148 0.61209 0.68331 0.0
H1235 H 0.62394 0.68141 0.67964 0.0
H1236 H 0.61069 0.68866 0.64211 0.0
H1237 H 0.47828 0.73975 0.57623 0.0
H1238 H 0.50283 0.69661 0.57868 0.0
H1239 H 0.57574 0.73959 0.59583 0.0
H1240 H 0.55126 0.78281 0.59329 0.0
H1241 H 0.56212 0.69943 0.62471 0.0
H1242 H 0.57288 0.70833 0.54949 0.0
H1243 H 0.55886 0.71528 0.51217 0.0
H1244 H 0.50994 0.64347 0.51499 0.0
H1245 H 0.52304 0.63638 0.55254 0.0
C1246 C 0.6294 0.58578 0.62197 0.0
C1247 C 0.61572 0.56108 0.61869 0.0
C1248 C 0.61721 0.61047 0.61665 0.0
C1249 C 0.59092 0.6112 0.60808 0.0
C1250 C 0.57731 0.58661 0.60445 0.0
C1251 C 0.58955 0.56182 0.60973 0.0
C1252 C 0.57769 0.63766 0.6031 0.0
C1253 C 0.56824 0.64248 0.5823 0.0
C1254 C 0.57542 0.65853 0.61855 0.0
C1255 C 0.58336 0.65428 0.64114 0.0
C1256 C 0.57228 0.63276 0.65304 0.0
C1257 C 0.57999 0.62874 0.67426 0.0
C1258 C 0.59863 0.64624 0.68383 0.0
C1259 C 0.60953 0.66784 0.6722 0.0
C1260 C 0.60191 0.67193 0.65096 0.0
C1261 C 0.49972 0.74 0.58 0.0
C1262 C 0.51288 0.76465 0.58449 0.0
C1263 C 0.51374 0.71536 0.58139 0.0
C1264 C 0.54113 0.71484 0.58749 0.0
C1265 C 0.55462 0.7395 0.5911 0.0
C1266 C 0.54069 0.7642 0.58944 0.0
C1267 C 0.55491 0.68855 0.59193 0.0
C1268 C 0.56436 0.68371 0.6127 0.0
C1269 C 0.55703 0.66769 0.57646 0.0
C1270 C 0.54871 0.67202 0.55396 0.0
C1271 C 0.55882 0.6942 0.54227 0.0
C1272 C 0.55106 0.69814 0.52105 0.0
C1273 C 0.53338 0.67989 0.51126 0.0
C1274 C 0.52347 0.65764 0.52266 0.0
C1275 C 0.53106 0.65366 0.54392 0.0
H1276 H 0.52744 0.68292 0.49481 0.0
H1277 H 0.60457 0.6431 0.70027 0.0
H1278 H 0.97133 0.60863 0.58538 0.0
H1279 H 0.92806 0.58652 0.57702 0.0
H1280 H 0.90394 0.59283 0.64306 0.0
H1281 H 0.94708 0.61515 0.65145 0.0
H1282 H 0.8952 0.54044 0.62376 0.0
H1283 H 0.87834 0.63582 0.6103 0.0
H1284 H 0.88769 0.6798 0.59308 0.0
H1285 H 0.87617 0.64382 0.53135 0.0
H1286 H 0.86714 0.59949 0.54821 0.0
H1287 H 0.75706 0.51381 0.62606 0.0
H1288 H 0.80095 0.53639 0.62884 0.0
H1289 H 0.80696 0.5392 0.56012 0.0
H1290 H 0.76217 0.51718 0.55736 0.0
H1291 H 0.82709 0.58469 0.577 0.0
H1292 H 0.84116 0.4907 0.58881 0.0
H1293 H 0.83307 0.44554 0.60444 0.0
H1294 H 0.85212 0.47637 0.66673 0.0
H1295 H 0.85991 0.52185 0.65152 0.0
C1296 C 0.9569 0.60506 0.59814 0.0
C1297 C 0.96257 0.61358 0.6191 0.0
C1298 C 0.93214 0.59261 0.59331 0.0
C1299 C 0.91275 0.58817 0.6094 0.0
C1300 C 0.91861 0.59612 0.63041 0.0
C1301 C 0.94317 0.60895 0.63517 0.0
C1302 C 0.88625 0.57534 0.60444 0.0
C1303 C 0.88019 0.5502 0.61371 0.0
C1304 C 0.86715 0.58761 0.59063 0.0
C1305 C 0.87238 0.61428 0.5805 0.0
C1306 C 0.87804 0.63723 0.59305 0.0
C1307 C 0.88324 0.66223 0.58335 0.0
C1308 C 0.88261 0.66459 0.56113 0.0
C1309 C 0.8767 0.64195 0.54856 0.0
C1310 C 0.87153 0.61689 0.55817 0.0
C1311 C 0.76766 0.51949 0.61154 0.0
C1312 C 0.75647 0.51356 0.5915 0.0
C1313 C 0.7928 0.53225 0.61313 0.0
C1314 C 0.80769 0.53885 0.5947 0.0
C1315 C 0.79598 0.53408 0.57457 0.0
C1316 C 0.77046 0.52155 0.57298 0.0
C1317 C 0.83567 0.54998 0.59678 0.0
C1318 C 0.84212 0.57475 0.58692 0.0
C1319 C 0.85539 0.53714 0.60979 0.0
C1320 C 0.85092 0.50975 0.61903 0.0
C1321 C 0.84345 0.48791 0.60586 0.0
C1322 C 0.83893 0.46224 0.61465 0.0
C1323 C 0.84203 0.4581 0.63657 0.0
C1324 C 0.84971 0.47961 0.64975 0.0
C1325 C 0.8542 0.50533 0.64105 0.0
H1326 H 0.83852 0.43821 0.64334 0.0
H1327 H 0.88664 0.68396 0.55366 0.0
H1328 H 0.65995 0.19631 0.08371 0.0
H1329 H 0.69001 0.2356 0.08475 0.0
H1330 H 0.75434 0.18546 0.10961 0.0
H1331 H 0.72429 0.14603 0.10865 0.0
H1332 H 0.75446 0.23235 0.12964 0.0
H1333 H 0.75179 0.20512 0.05702 0.0
H1334 H 0.73134 0.19269 0.02258 0.0
H1335 H 0.69716 0.27249 0.0169 0.0
H1336 H 0.71665 0.28515 0.05173 0.0
H1337 H 0.86323 0.32322 0.10443 0.0
H1338 H 0.83254 0.28419 0.10461 0.0
H1339 H 0.76516 0.33689 0.09028 0.0
H1340 H 0.79584 0.37611 0.09015 0.0
H1341 H 0.76717 0.28882 0.06483 0.0
H1342 H 0.77109 0.31461 0.139 0.0
H1343 H 0.79438 0.32558 0.17269 0.0
H1344 H 0.83051 0.24629 0.1736 0.0
H1345 H 0.80775 0.23499 0.13972 0.0
C1346 C 0.6805 0.19354 0.08933 0.0
C1347 C 0.68964 0.16781 0.09596 0.0
C1348 C 0.69774 0.21611 0.08992 0.0
C1349 C 0.7247 0.21357 0.09694 0.0
C1350 C 0.73368 0.18807 0.1041 0.0
C1351 C 0.7164 0.16548 0.10361 0.0
C1352 C 0.74353 0.23739 0.0966 0.0
C1353 C 0.75742 0.24445 0.11537 0.0
C1354 C 0.74736 0.25355 0.07807 0.0
C1355 C 0.73543 0.24598 0.05715 0.0
C1356 C 0.73965 0.21994 0.04857 0.0
C1357 C 0.72825 0.21286 0.02895 0.0
C1358 C 0.71298 0.23179 0.01753 0.0
C1359 C 0.70898 0.25783 0.02577 0.0
C1360 C 0.72014 0.26495 0.04549 0.0
C1361 C 0.84192 0.32651 0.10121 0.0
C1362 C 0.83201 0.35283 0.09727 0.0
C1363 C 0.82435 0.30418 0.10145 0.0
C1364 C 0.79648 0.30757 0.09755 0.0
C1365 C 0.78656 0.33376 0.09336 0.0
C1366 C 0.80407 0.35618 0.09342 0.0
C1367 C 0.77777 0.28378 0.09787 0.0
C1368 C 0.76402 0.27671 0.07908 0.0
C1369 C 0.77442 0.26737 0.11624 0.0
C1370 C 0.78792 0.27405 0.13671 0.0
C1371 C 0.78418 0.29959 0.14629 0.0
C1372 C 0.79725 0.30585 0.16544 0.0
C1373 C 0.81397 0.28667 0.17525 0.0
C1374 C 0.81758 0.26115 0.16596 0.0
C1375 C 0.80458 0.25479 0.1468 0.0
H1376 H 0.82408 0.29156 0.19008 0.0
H1377 H 0.70428 0.2263 1.00228 0.0
H1378 H 0.32739 0.65809 0.08303 0.0
H1379 H 0.2878 0.68789 0.08418 0.0
H1380 H 0.33582 0.75027 0.1139 0.0
H1381 H 0.37561 0.72073 0.11263 0.0
H1382 H 0.28653 0.74768 0.13243 0.0
H1383 H 0.32097 0.7516 0.06056 0.0
H1384 H 0.33558 0.73244 0.02602 0.0
H1385 H 0.25576 0.70012 0.01603 0.0
H1386 H 0.24084 0.71853 0.05077 0.0
H1387 H 0.19436 0.85259 0.07381 0.0
H1388 H 0.23344 0.8226 0.07591 0.0
H1389 H 0.19112 0.77219 0.12121 0.0
H1390 H 0.15136 0.80172 0.11884 0.0
H1391 H 0.238 0.76948 0.06532 0.0
H1392 H 0.24055 0.74463 0.15556 0.0
H1393 H 0.22929 0.7658 0.19019 0.0
H1394 H 0.23856 0.84489 0.16248 0.0
H1395 H 0.25023 0.82423 0.12778 0.0
C1396 C 0.32971 0.67815 0.08975 0.0
C1397 C 0.35503 0.68685 0.09762 0.0
C1398 C 0.3069 0.69523 0.09044 0.0
C1399 C 0.30873 0.72157 0.09892 0.0
C1400 C 0.33374 0.73008 0.10731 0.0
C1401 C 0.35658 0.71302 0.10661 0.0
C1402 C 0.28486 0.74048 0.09855 0.0
C1403 C 0.27585 0.7523 0.11775 0.0
C1404 C 0.27099 0.74697 0.0794 0.0
C1405 C 0.27988 0.73617 0.0584 0.0
C1406 C 0.30659 0.74021 0.05109 0.0
C1407 C 0.31493 0.72948 0.03147 0.0
C1408 C 0.29663 0.715 0.01887 0.0
C1409 C 0.26993 0.71129 0.02583 0.0
C1410 C 0.26153 0.72183 0.0455 0.0
C1411 C 0.19299 0.83513 0.08417 0.0
C1412 C 0.16916 0.82978 0.09601 0.0
C1413 C 0.21561 0.81793 0.08539 0.0
C1414 C 0.21539 0.79503 0.0987 0.0
C1415 C 0.19198 0.78983 0.11093 0.0
C1416 C 0.16916 0.80691 0.10958 0.0
C1417 C 0.23943 0.77638 0.09924 0.0
C1418 C 0.2485 0.76464 0.08004 0.0
C1419 C 0.25347 0.77019 0.11834 0.0
C1420 C 0.24599 0.78285 0.13902 0.0
C1421 C 0.24019 0.76654 0.15686 0.0
C1422 C 0.23376 0.77845 0.1765 0.0
C1423 C 0.23323 0.80666 0.17852 0.0
C1424 C 0.23894 0.82303 0.16087 0.0
C1425 C 0.2454 0.81123 0.1412 0.0
H1426 H 0.22852 0.81583 0.19378 0.0
H1427 H 0.30311 0.70667 1.0037 0.0
H1428 H 0.32088 0.66027 0.378 0.0
H1429 H 0.2908 0.69989 0.37602 0.0
H1430 H 0.30433 0.7158 0.44282 0.0
H1431 H 0.33409 0.67621 0.44494 0.0
H1432 H 0.25026 0.71871 0.43228 0.0
H1433 H 0.33518 0.7538 0.40496 0.0
H1434 H 0.37449 0.75431 0.38049 0.0
H1435 H 0.32113 0.76359 0.32691 0.0
H1436 H 0.28146 0.76276 0.35105 0.0
H1437 H 0.19587 0.84918 0.44544 0.0
H1438 H 0.22551 0.80958 0.44364 0.0
H1439 H 0.21878 0.8093 0.37495 0.0
H1440 H 0.19 0.85002 0.37679 0.0
H1441 H 0.26768 0.79663 0.38409 0.0
H1442 H 0.18305 0.76247 0.40957 0.0
H1443 H 0.14241 0.76037 0.4326 0.0
H1444 H 0.1927 0.74705 0.48745 0.0
H1445 H 0.23366 0.7492 0.4648 0.0
C1446 C 0.31739 0.67215 0.39228 0.0
C1447 C 0.33005 0.66502 0.41163 0.0
C1448 C 0.30032 0.69494 0.39109 0.0
C1449 C 0.29537 0.71103 0.40925 0.0
C1450 C 0.30783 0.70382 0.42857 0.0
C1451 C 0.32505 0.68125 0.42972 0.0
C1452 C 0.27696 0.73514 0.40835 0.0
C1453 C 0.25423 0.73587 0.4219 0.0
C1454 C 0.2815 0.75717 0.39427 0.0
C1455 C 0.30535 0.75794 0.37979 0.0
C1456 C 0.33182 0.75575 0.38794 0.0
C1457 C 0.35417 0.75613 0.37414 0.0
C1458 C 0.35031 0.7589 0.35215 0.0
C1459 C 0.32409 0.7614 0.34394 0.0
C1460 C 0.30167 0.761 0.35768 0.0
C1461 C 0.2006 0.8406 0.42996 0.0
C1462 C 0.19031 0.85255 0.41128 0.0
C1463 C 0.2175 0.8178 0.42891 0.0
C1464 C 0.22394 0.8057 0.40918 0.0
C1465 C 0.21409 0.81797 0.39042 0.0
C1466 C 0.1976 0.84124 0.39145 0.0
C1467 C 0.24102 0.78047 0.4083 0.0
C1468 C 0.26351 0.77945 0.3944 0.0
C1469 C 0.23602 0.75789 0.42182 0.0
C1470 C 0.21143 0.75621 0.43549 0.0
C1471 C 0.18545 0.75919 0.42656 0.0
C1472 C 0.16235 0.75795 0.43954 0.0
C1473 C 0.16498 0.75359 0.46148 0.0
C1474 C 0.1907 0.75036 0.47046 0.0
C1475 C 0.21386 0.75154 0.45755 0.0
H1476 H 0.14708 0.75269 0.47152 0.0
H1477 H 0.36763 0.75917 0.34149 0.0
H1478 H 0.84387 0.32933 0.44766 0.0
H1479 H 0.80469 0.29911 0.44533 0.0
H1480 H 0.8175 0.29097 0.37753 0.0
H1481 H 0.85689 0.32136 0.37977 0.0
H1482 H 0.76182 0.29961 0.38952 0.0
H1483 H 0.83624 0.24074 0.40784 0.0
H1484 H 0.87575 0.22644 0.42913 0.0
H1485 H 0.82561 0.2216 0.4852 0.0
H1486 H 0.78586 0.23625 0.46429 0.0
H1487 H 0.66637 0.1917 0.37817 0.0
H1488 H 0.7067 0.22069 0.37649 0.0
H1489 H 0.71384 0.21655 0.44509 0.0
H1490 H 0.67443 0.18656 0.44655 0.0
H1491 H 0.76105 0.21358 0.43054 0.0
H1492 H 0.68773 0.27458 0.41487 0.0
H1493 H 0.64744 0.29123 0.3956 0.0
H1494 H 0.6936 0.29502 0.33741 0.0
H1495 H 0.73409 0.27805 0.35629 0.0
C1496 C 0.83826 0.32134 0.4322 0.0
C1497 C 0.8536 0.32784 0.4139 0.0
C1498 C 0.81592 0.30388 0.43092 0.0
C1499 C 0.80816 0.29257 0.41128 0.0
C1500 C 0.82308 0.29938 0.39287 0.0
C1501 C 0.84572 0.31662 0.39419 0.0
C1502 C 0.78473 0.2734 0.41017 0.0
C1503 C 0.76176 0.28059 0.39822 0.0
C1504 C 0.78429 0.24891 0.42198 0.0
C1505 C 0.80812 0.23981 0.43452 0.0
C1506 C 0.83368 0.23681 0.42474 0.0
C1507 C 0.85611 0.22861 0.43673 0.0
C1508 C 0.85321 0.22316 0.45851 0.0
C1509 C 0.82784 0.22584 0.46833 0.0
C1510 C 0.80534 0.23406 0.45641 0.0
C1511 C 0.67657 0.19706 0.39286 0.0
C1512 C 0.66719 0.18683 0.41249 0.0
C1513 C 0.6996 0.2138 0.39193 0.0
C1514 C 0.71334 0.22143 0.41071 0.0
C1515 C 0.7039 0.21108 0.43031 0.0
C1516 C 0.68128 0.19389 0.43117 0.0
C1517 C 0.73764 0.23984 0.4101 0.0
C1518 C 0.76092 0.23252 0.42174 0.0
C1519 C 0.73812 0.26446 0.39831 0.0
C1520 C 0.71385 0.27477 0.38695 0.0
C1521 C 0.68923 0.27879 0.39794 0.0
C1522 C 0.66637 0.28831 0.38709 0.0
C1523 C 0.66794 0.29411 0.36529 0.0
C1524 C 0.6924 0.29048 0.3543 0.0
C1525 C 0.71532 0.28093 0.36506 0.0
H1526 H 0.65021 0.30147 0.35692 0.0
H1527 H 0.87061 0.21683 0.46777 0.0
H1528 H 0.15622 0.69495 0.90927 0.0
H1529 H 0.18697 0.73386 0.90918 0.0
H1530 H 0.25547 0.68 0.91539 0.0
H1531 H 0.22471 0.64091 0.91567 0.0
H1532 H 0.25887 0.72435 0.94267 0.0
H1533 H 0.2423 0.70847 0.86818 0.0
H1534 H 0.21393 0.70161 0.83628 0.0
H1535 H 0.17817 0.7803 0.84506 0.0
H1536 H 0.20605 0.78748 0.87721 0.0
H1537 H 0.36078 0.82251 0.92209 0.0
H1538 H 0.33164 0.78248 0.92072 0.0
H1539 H 0.2631 0.83317 0.90509 0.0
H1540 H 0.29241 0.8732 0.90595 0.0
H1541 H 0.26017 0.78953 0.88234 0.0
H1542 H 0.27329 0.80507 0.9573 0.0
H1543 H 0.30011 0.81289 0.98992 0.0
H1544 H 0.34055 0.73651 0.98107 0.0
H1545 H 0.31393 0.72822 0.94841 0.0
C1546 C 0.1778 0.69133 0.91074 0.0
C1547 C 0.18793 0.66469 0.91245 0.0
C1548 C 0.19542 0.71364 0.91053 0.0
C1549 C 0.22363 0.70995 0.91212 0.0
C1550 C 0.23382 0.68342 0.91409 0.0
C1551 C 0.21621 0.66105 0.91409 0.0
C1552 C 0.24242 0.73377 0.91175 0.0
C1553 C 0.25943 0.73838 0.92933 0.0
C1554 C 0.24272 0.75258 0.89465 0.0
C1555 C 0.22608 0.7484 0.87522 0.0
C1556 C 0.22823 0.72423 0.86341 0.0
C1557 C 0.21227 0.7203 0.84526 0.0
C1558 C 0.19421 0.74048 0.83868 0.0
C1559 C 0.19214 0.76467 0.85019 0.0
C1560 C 0.20804 0.76869 0.86837 0.0
C1561 C 0.3395 0.82517 0.91842 0.0
C1562 C 0.32897 0.85118 0.91423 0.0
C1563 C 0.32275 0.8022 0.91771 0.0
C1564 C 0.29488 0.80464 0.91322 0.0
C1565 C 0.28445 0.83057 0.90862 0.0
C1566 C 0.30127 0.85351 0.90908 0.0
C1567 C 0.27663 0.78028 0.91333 0.0
C1568 C 0.25969 0.77553 0.89569 0.0
C1569 C 0.27615 0.76149 0.9305 0.0
C1570 C 0.29181 0.76615 0.95033 0.0
C1571 C 0.28797 0.78999 0.96229 0.0
C1572 C 0.30309 0.79448 0.9808 0.0
C1573 C 0.32207 0.77525 0.98752 0.0
C1574 C 0.32586 0.75141 0.97582 0.0
C1575 C 0.31068 0.74674 0.95737 0.0
H1576 H 0.33381 0.7788 1.00183 0.0
H1577 H 0.18185 0.73739 0.82463 0.0
H1578 H 0.69108 0.36322 0.90826 0.0
H1579 H 0.73112 0.33363 0.90803 0.0
H1580 H 0.67943 0.26356 0.91397 0.0
H1581 H 0.63932 0.29308 0.91416 0.0
H1582 H 0.72403 0.26196 0.94167 0.0
H1583 H 0.70657 0.27747 0.86749 0.0
H1584 H 0.69861 0.30515 0.83544 0.0
H1585 H 0.77728 0.3415 0.84214 0.0
H1586 H 0.78546 0.31442 0.87463 0.0
H1587 H 0.82041 0.1592 0.91937 0.0
H1588 H 0.78095 0.18917 0.91871 0.0
H1589 H 0.83264 0.25675 0.90274 0.0
H1590 H 0.87224 0.22664 0.90308 0.0
H1591 H 0.78817 0.26046 0.88046 0.0
H1592 H 0.80575 0.24674 0.95482 0.0
H1593 H 0.81396 0.22039 0.98766 0.0
H1594 H 0.73622 0.18208 0.98119 0.0
H1595 H 0.72759 0.20812 0.94828 0.0
C1596 C 0.68823 0.34153 0.90961 0.0
C1597 C 0.66192 0.33056 0.91118 0.0
C1598 C 0.71115 0.3246 0.90936 0.0
C1599 C 0.70837 0.29628 0.91088 0.0
C1600 C 0.68216 0.2853 0.91274 0.0
C1601 C 0.65921 0.3022 0.9127 0.0
C1602 C 0.73274 0.27814 0.91051 0.0
C1603 C 0.73787 0.26139 0.92817 0.0
C1604 C 0.7513 0.27786 0.89318 0.0
C1605 C 0.7465 0.29413 0.87363 0.0
C1606 C 0.72207 0.29156 0.86226 0.0
C1607 C 0.71754 0.30712 0.84398 0.0
C1608 C 0.73742 0.32511 0.83672 0.0
C1609 C 0.76188 0.32757 0.84778 0.0
C1610 C 0.76647 0.31214 0.86615 0.0
C1611 C 0.82346 0.18044 0.91579 0.0
C1612 C 0.84965 0.19045 0.91142 0.0
C1613 C 0.80079 0.19766 0.91547 0.0
C1614 C 0.80367 0.22551 0.91112 0.0
C1615 C 0.82972 0.23543 0.90622 0.0
C1616 C 0.85241 0.21814 0.90636 0.0
C1617 C 0.77955 0.24414 0.91165 0.0
C1618 C 0.77443 0.26103 0.89402 0.0
C1619 C 0.76111 0.24475 0.92912 0.0
C1620 C 0.76615 0.22917 0.94897 0.0
C1621 C 0.79048 0.23258 0.96035 0.0
C1622 C 0.79518 0.21774 0.97899 0.0
C1623 C 0.77566 0.19951 0.98647 0.0
C1624 C 0.75134 0.19617 0.97537 0.0
C1625 C 0.7465 0.21102 0.95675 0.0
H1626 H 0.77935 0.18803 1.0009 0.0
H1627 H 0.7339 0.33708 0.82252 0.0
H1628 H 0.83159 0.1765 0.56272 0.0
H1629 H 0.80257 0.21643 0.56511 0.0
H1630 H 0.79288 0.20332 0.63279 0.0
H1631 H 0.82168 0.16274 0.63033 0.0
H1632 H 0.7462 0.21818 0.61709 0.0
H1633 H 0.83521 0.25455 0.61188 0.0
H1634 H 0.88138 0.26068 0.59739 0.0
H1635 H 0.84823 0.28796 0.53782 0.0
H1636 H 0.80183 0.28166 0.55185 0.0
H1637 H 0.69225 0.35451 0.63015 0.0
H1638 H 0.72208 0.31457 0.63276 0.0
H1639 H 0.72303 0.30784 0.56415 0.0
H1640 H 0.69306 0.34734 0.5615 0.0
H1641 H 0.77554 0.30463 0.58377 0.0
H1642 H 0.68587 0.26555 0.59017 0.0
H1643 H 0.64049 0.26045 0.60636 0.0
H1644 H 0.67679 0.24009 0.66651 0.0
H1645 H 0.72243 0.24545 0.65073 0.0
C1646 C 0.82353 0.1822 0.57818 0.0
C1647 C 0.8293 0.1665 0.59637 0.0
C1648 C 0.80689 0.20515 0.57954 0.0
C1649 C 0.79588 0.21346 0.59923 0.0
C1650 C 0.80116 0.19753 0.61741 0.0
C1651 C 0.81764 0.17429 0.616 0.0
C1652 C 0.77876 0.23859 0.60059 0.0
C1653 C 0.7529 0.23718 0.61012 0.0
C1654 C 0.78715 0.26353 0.59139 0.0
C1655 C 0.81503 0.26742 0.58287 0.0
C1656 C 0.83776 0.26168 0.59564 0.0
C1657 C 0.86398 0.26521 0.58751 0.0
C1658 C 0.86774 0.27465 0.56668 0.0
C1659 C 0.84528 0.28063 0.55394 0.0
C1660 C 0.81902 0.27711 0.56198 0.0
C1661 C 0.69886 0.3445 0.61565 0.0
C1662 C 0.69017 0.35403 0.59562 0.0
C1663 C 0.71581 0.32162 0.61716 0.0
C1664 C 0.72477 0.30813 0.59864 0.0
C1665 C 0.71638 0.31785 0.57865 0.0
C1666 C 0.69909 0.34034 0.57716 0.0
C1667 C 0.74301 0.28397 0.59991 0.0
C1668 C 0.76906 0.28564 0.59088 0.0
C1669 C 0.73496 0.25948 0.60986 0.0
C1670 C 0.70755 0.25623 0.61934 0.0
C1671 C 0.68418 0.26025 0.6069 0.0
C1672 C 0.65841 0.25725 0.61599 0.0
C1673 C 0.65575 0.25004 0.63747 0.0
C1674 C 0.67887 0.24573 0.64988 0.0
C1675 C 0.7047 0.24873 0.64087 0.0
H1676 H 0.63578 0.24772 0.64447 0.0
H1677 H 0.88805 0.27737 0.56042 0.0
H1678 H 0.325 0.86521 0.602 0.0
H1679 H 0.28544 0.83508 0.60219 0.0
H1680 H 0.33804 0.76599 0.59364 0.0
H1681 H 0.37768 0.79605 0.5935 0.0
H1682 H 0.29233 0.76564 0.56636 0.0
H1683 H 0.31194 0.77729 0.64118 0.0
H1684 H 0.32017 0.80396 0.67382 0.0
H1685 H 0.24112 0.84005 0.66856 0.0
H1686 H 0.23257 0.81389 0.63568 0.0
H1687 H 0.19811 0.66048 0.58662 0.0
H1688 H 0.23732 0.6907 0.58782 0.0
H1689 H 0.18546 0.75671 0.60749 0.0
H1690 H 0.14617 0.7264 0.60656 0.0
H1691 H 0.23063 0.7596 0.62892 0.0
H1692 H 0.20937 0.74907 0.55553 0.0
H1693 H 0.19978 0.72484 0.52203 0.0
H1694 H 0.27992 0.69056 0.52246 0.0
H1695 H 0.28972 0.71389 0.55642 0.0
C1696 C 0.32815 0.84363 0.60007 0.0
C1697 C 0.35458 0.83308 0.59777 0.0
C1698 C 0.30551 0.82638 0.60031 0.0
C1699 C 0.30869 0.79819 0.59804 0.0
C1700 C 0.33501 0.78763 0.59546 0.0
C1701 C 0.35769 0.80483 0.59553 0.0
C1702 C 0.28462 0.77973 0.5983 0.0
C1703 C 0.27905 0.764 0.58015 0.0
C1704 C 0.2667 0.77825 0.616 0.0
C1705 C 0.27173 0.79383 0.63585 0.0
C1706 C 0.2964 0.79108 0.64688 0.0
C1707 C 0.30111 0.80608 0.66544 0.0
C1708 C 0.28121 0.82374 0.67323 0.0
C1709 C 0.25653 0.82639 0.66249 0.0
C1710 C 0.25173 0.81147 0.6439 0.0
C1711 C 0.19498 0.68143 0.59115 0.0
C1712 C 0.16882 0.69095 0.59636 0.0
C1713 C 0.2175 0.69878 0.59181 0.0
C1714 C 0.21448 0.72627 0.59738 0.0
C1715 C 0.18849 0.73566 0.60312 0.0
C1716 C 0.16596 0.71825 0.60262 0.0
C1717 C 0.23833 0.74519 0.59699 0.0
C1718 C 0.24386 0.7611 0.6151 0.0
C1719 C 0.25599 0.74717 0.57909 0.0
C1720 C 0.25018 0.73302 0.55868 0.0
C1721 C 0.22488 0.73615 0.54862 0.0
C1722 C 0.21941 0.72261 0.52951 0.0
C1723 C 0.23924 0.70622 0.52008 0.0
C1724 C 0.26457 0.70326 0.52979 0.0
C1725 C 0.27007 0.71659 0.549 0.0
H1726 H 0.23499 0.69584 0.50524 0.0
H1727 H 0.28489 0.83534 0.6876 0.0
H1728 H 0.62309 0.04494 0.02141 0.0
H1729 H 0.58354 0.02971 1.00105 0.0
H1730 H 0.53532 0.03 0.05864 0.0
H1731 H 0.57473 0.04454 0.07906 0.0
H1732 H 0.52368 0.98676 0.0374 0.0
H1733 H 0.53166 0.08031 0.01906 0.0
H1734 H 0.55234 0.12237 0.0054 0.0
H1735 H 0.56245 0.08577 0.94368 0.0
H1736 H 0.54225 0.04329 0.95707 0.0
H1737 H 0.39369 0.97577 0.9878 0.0
H1738 H 0.43307 0.99159 0.00807 0.0
H1739 H 0.48155 0.99035 0.95062 0.0
H1740 H 0.44221 0.97541 0.93025 0.0
H1741 H 0.49312 0.0338 0.97179 0.0
H1742 H 0.48443 0.93957 0.99154 0.0
H1743 H 0.46008 0.89966 0.0056 0.0
H1744 H 0.4489 0.93992 0.06577 0.0
H1745 H 0.47276 0.98025 0.05196 0.0
C1746 C 0.60406 0.04183 0.02974 0.0
C1747 C 0.60222 0.04611 0.05192 0.0
C1748 C 0.58134 0.0332 0.01804 0.0
C1749 C 0.55613 0.02892 0.02817 0.0
C1750 C 0.55439 0.03306 0.05033 0.0
C1751 C 0.57705 0.04152 0.06202 0.0
C1752 C 0.53162 0.01992 0.01589 0.0
C1753 C 0.51687 0.99732 0.0232 0.0
C1754 C 0.52276 0.03323 0.99708 0.0
C1755 C 0.53583 0.05843 0.98918 0.0
C1756 C 0.53869 0.08106 1.00267 0.0
C1757 C 0.55022 0.10503 0.99495 0.0
C1758 C 0.5588 0.10671 0.97371 0.0
C1759 C 0.55587 0.08442 0.96015 0.0
C1760 C 0.5444 0.06038 0.9678 0.0
C1761 C 0.41274 0.9788 0.97949 0.0
C1762 C 0.41468 0.97409 0.95737 0.0
C1763 C 0.43537 0.98775 0.99114 0.0
C1764 C 0.46064 0.99178 0.98104 0.0
C1765 C 0.46245 0.98739 0.95891 0.0
C1766 C 0.43984 0.97871 0.94725 0.0
C1767 C 0.48519 1.00073 0.99332 0.0
C1768 C 0.49998 0.02327 0.98599 0.0
C1769 C 0.49396 0.98752 0.01221 0.0
C1770 C 0.4801 0.96305 0.02062 0.0
C1771 C 0.47663 0.93997 0.00772 0.0
C1772 C 0.4629 0.91729 0.01565 0.0
C1773 C 0.45282 0.91734 0.03652 0.0
C1774 C 0.45664 0.93996 0.04958 0.0
C1775 C 0.47025 0.96273 0.04171 0.0
H1776 H 0.44206 0.89984 0.04261 0.0
H1777 H 0.56765 0.12531 0.96774 0.0
H1778 H 0.47455 0.57223 0.08 0.0
H1779 H 0.4881 0.53281 0.05889 0.0
H1780 H 0.49925 0.58414 1.00378 0.0
H1781 H 0.48447 0.62347 0.02464 0.0
H1782 H 0.47568 0.54137 0.99145 0.0
H1783 H 0.55278 0.55499 0.03757 0.0
H1784 H 0.57803 0.55833 0.07128 0.0
H1785 H 0.55358 0.47757 0.08822 0.0
H1786 H 0.52729 0.47411 0.05494 0.0
H1787 H 0.54464 0.44458 0.92639 0.0
H1788 H 0.53073 0.48372 0.94766 0.0
H1789 H 0.52347 0.43242 1.00323 0.0
H1790 H 0.53908 0.39355 0.98218 0.0
H1791 H 0.54474 0.47511 0.0155 0.0
H1792 H 0.46719 0.46109 0.97026 0.0
H1793 H 0.44097 0.45729 0.93701 0.0
H1794 H 0.46507 0.53775 0.91893 0.0
H1795 H 0.49215 0.54173 0.95178 0.0
C1796 C 0.47994 0.57519 0.06338 0.0
C1797 C 0.47838 0.60115 0.05406 0.0
C1798 C 0.48794 0.55254 0.05132 0.0
C1799 C 0.4953 0.55528 0.02969 0.0
C1800 C 0.49377 0.58125 0.02039 0.0
C1801 C 0.48532 0.60384 0.03236 0.0
C1802 C 0.5036 0.53113 0.01651 0.0
C1803 C 0.4911 0.52712 0.99663 0.0
C1804 C 0.52301 0.51173 0.0234 0.0
C1805 C 0.53788 0.5144 0.04382 0.0
C1806 C 0.55248 0.53808 0.04861 0.0
C1807 C 0.56706 0.53995 0.06764 0.0
C1808 C 0.56759 0.51807 0.08184 0.0
C1809 C 0.55319 0.49446 0.07719 0.0
C1810 C 0.53837 0.49259 0.05829 0.0
C1811 C 0.54003 0.44162 0.94315 0.0
C1812 C 0.54299 0.41585 0.95257 0.0
C1813 C 0.53177 0.46407 0.95532 0.0
C1814 C 0.52534 0.46127 0.97713 0.0
C1815 C 0.52822 0.43542 0.9865 0.0
C1816 C 0.53713 0.41308 0.97443 0.0
C1817 C 0.51678 0.48527 0.99041 0.0
C1818 C 0.52926 0.48929 0.01031 0.0
C1819 C 0.49721 0.50457 0.98361 0.0
C1820 C 0.48188 0.50161 0.96342 0.0
C1821 C 0.46718 0.47784 0.95907 0.0
C1822 C 0.45209 0.4757 0.9403 0.0
C1823 C 0.45123 0.49735 0.92591 0.0
C1824 C 0.46574 0.52103 0.93011 0.0
C1825 C 0.48101 0.5232 0.94876 0.0
H1826 H 0.43926 0.49596 0.91153 0.0
H1827 H 0.57919 0.51923 0.09641 0.0
H1828 H 0.9013 0.45819 0.0239 0.0
H1829 H 0.93936 0.4752 1.00244 0.0
H1830 H 0.98203 0.49675 0.06002 0.0
H1831 H 0.94401 0.48062 0.08138 0.0
H1832 H 0.98741 0.53573 0.0335 0.0
H1833 H 0.9976 0.43908 0.02739 0.0
H1834 H 0.98443 0.39217 0.01859 0.0
H1835 H 0.97256 0.41488 0.9531 0.0
H1836 H 0.98524 0.46203 0.96156 0.0
H1837 H 0.1183 0.55843 0.98593 0.0
H1838 H 0.08006 0.54178 0.0074 0.0
H1839 H 0.03674 0.52168 0.94981 0.0
H1840 H 0.07481 0.53769 0.92843 0.0
H1841 H 0.03166 0.48198 0.97629 0.0
H1842 H 0.02266 0.57866 0.98254 0.0
H1843 H 0.03564 0.62551 0.99165 0.0
H1844 H 0.04508 0.60272 0.05739 0.0
H1845 H 0.03278 0.5556 0.0486 0.0
C1846 C 0.91882 0.46649 0.03198 0.0
C1847 C 0.91946 0.46796 0.05442 0.0
C1848 C 0.94072 0.4761 0.01967 0.0
C1849 C 0.96394 0.48704 0.02951 0.0
C1850 C 0.9645 0.48849 0.05191 0.0
C1851 C 0.94263 0.47914 0.06416 0.0
C1852 C 0.98744 0.49763 0.01671 0.0
C1853 C 0.99731 0.52377 0.02119 0.0
C1854 C 1.00011 0.48245 1.00021 0.0
C1855 C 0.99204 0.45418 0.99518 0.0
C1856 C 0.9919 0.43414 0.01116 0.0
C1857 C 0.98458 0.40749 0.00622 0.0
C1858 C 0.97758 0.40057 0.98532 0.0
C1859 C 0.97792 0.42028 0.96929 0.0
C1860 C 0.98516 0.44697 0.97416 0.0
C1861 C 0.1006 0.55054 0.97784 0.0
C1862 C 0.09981 0.5494 0.95539 0.0
C1863 C 0.07862 0.54112 0.99016 0.0
C1864 C 0.0552 0.53062 0.98032 0.0
C1865 C 0.05446 0.52956 0.95791 0.0
C1866 C 0.07637 0.5388 0.94565 0.0
C1867 C 0.03168 0.52008 0.99312 0.0
C1868 C 0.0218 0.49394 0.98862 0.0
C1869 C 0.01905 0.53523 0.00965 0.0
C1870 C 0.0272 0.56345 0.01483 0.0
C1871 C 0.02789 0.58353 0.99888 0.0
C1872 C 0.03507 0.61017 1.004 0.0
C1873 C 0.04131 0.61706 0.02506 0.0
C1874 C 0.04038 0.59734 0.04106 0.0
C1875 C 0.03334 0.57065 0.03601 0.0
H1876 H 0.04677 0.63772 0.029 0.0
H1877 H 0.97197 0.37991 0.98152 0.0
H1878 H 0.97072 0.07407 0.92915 0.0
H1879 H 0.98521 0.03508 0.95027 0.0
H1880 H 0.98456 0.08431 0.00714 0.0
H1881 H 0.96995 0.12363 0.98604 0.0
H1882 H 0.03055 0.05299 0.00449 0.0
H1883 H 0.9352 0.03897 0.99938 0.0
H1884 H 0.89078 0.03438 0.98177 0.0
H1885 H 0.92026 0.9658 0.94633 0.0
H1886 H 0.96502 0.97022 0.96352 0.0
H1887 H 0.0431 0.94429 0.07818 0.0
H1888 H 0.02659 0.98331 0.0581 0.0
H1889 H 0.02507 0.93517 1.00067 0.0
H1890 H 0.04127 0.89568 0.02079 0.0
H1891 H 0.97958 0.96629 0.00422 0.0
H1892 H 0.07554 0.98131 0.00909 0.0
H1893 H 0.11955 0.98592 0.02737 0.0
H1894 H 0.08835 0.0528 0.0639 0.0
H1895 H 0.04402 0.04835 0.04603 0.0
C1896 C 0.97353 0.07671 0.94617 0.0
C1897 C 0.96902 0.10211 0.95586 0.0
C1898 C 0.98176 0.05427 0.95826 0.0
C1899 C 0.98578 0.05657 0.98038 0.0
C1900 C 0.98155 0.08195 0.99012 0.0
C1901 C 0.97308 0.10442 0.97803 0.0
C1902 C 0.99481 0.03257 0.99316 0.0
C1903 C 0.01917 0.03418 0.00468 0.0
C1904 C 0.98037 1.00773 0.99309 0.0
C1905 C 0.95358 1.00515 0.98255 0.0
C1906 C 0.93232 0.02312 0.98764 0.0
C1907 C 0.90705 0.02048 0.97779 0.0
C1908 C 0.90273 0.99987 0.96289 0.0
C1909 C 0.92365 0.98179 0.95785 0.0
C1910 C 0.94897 0.98433 0.96766 0.0
C1911 C 0.03936 0.94188 0.06126 0.0
C1912 C 0.04375 0.91671 0.05113 0.0
C1913 C 0.02996 0.96435 0.04975 0.0
C1914 C 0.02488 0.96242 0.02775 0.0
C1915 C 0.0289 0.93727 0.0176 0.0
C1916 C 0.03831 0.9147 0.02913 0.0
C1917 C 0.01542 0.98665 0.01543 0.0
C1918 C 0.99098 0.98509 1.004 0.0
C1919 C 0.02975 0.01158 0.01563 0.0
C1920 C 0.05638 0.01432 0.02637 0.0
C1921 C 0.078 0.99686 0.02115 0.0
C1922 C 0.10301 0.99947 0.03141 0.0
C1923 C 0.10672 0.01959 0.04682 0.0
C1924 C 0.08544 0.0372 0.05197 0.0
C1925 C 0.06037 0.03466 0.04177 0.0
H1926 H 0.12611 0.02159 0.05474 0.0
H1927 H 0.88314 0.99785 0.95528 0.0
H1928 H 0.89492 0.03709 0.52422 0.0
H1929 H 0.93425 0.02336 0.50263 0.0
H1930 H 0.98731 0.04074 0.55544 0.0
H1931 H 0.94815 0.05407 0.57721 0.0
H1932 H 1.00666 0.06061 0.515 0.0
H1933 H 0.97221 0.97862 0.54673 0.0
H1934 H 0.93628 0.9457 0.55514 0.0
H1935 H 0.92493 0.93005 0.4883 0.0
H1936 H 0.96039 0.96355 0.47946 0.0
H1937 H 0.12608 0.98813 0.48146 0.0
H1938 H 0.08673 1.00428 0.50201 0.0
H1939 H 0.0339 0.98249 0.45006 0.0
H1940 H 0.07304 0.96677 0.42935 0.0
H1941 H 0.01387 0.96565 0.48939 0.0
H1942 H 0.05015 0.04443 0.45714 0.0
H1943 H 0.08436 0.07861 0.44766 0.0
H1944 H 0.08997 0.10298 0.51327 0.0
H1945 H 0.05701 0.06766 0.52345 0.0
C1946 C 0.91496 0.03812 0.53122 0.0
C1947 C 0.91829 0.04665 0.5525 0.0
C1948 C 0.93744 0.03022 0.51886 0.0
C1949 C 0.96379 0.03097 0.5274 0.0
C1950 C 0.96723 0.04005 0.54846 0.0
C1951 C 0.94475 0.04755 0.56093 0.0
C1952 C 0.98766 0.02139 0.51466 0.0
C1953 C 1.00849 0.03976 0.50965 0.0
C1954 C 0.98965 0.99438 0.50713 0.0
C1955 C 0.96875 0.97382 0.51242 0.0
C1956 C 0.96191 0.96833 0.53381 0.0
C1957 C 0.94163 0.94952 0.53866 0.0
C1958 C 0.92829 0.93576 0.52226 0.0
C1959 C 0.93526 0.94075 0.50098 0.0
C1960 C 0.95543 0.95967 0.49604 0.0
C1961 C 0.10608 0.98669 0.47443 0.0
C1962 C 0.1028 0.97611 0.45373 0.0
C1963 C 0.08359 0.99604 0.48617 0.0
C1964 C 0.05728 0.99471 0.47759 0.0
C1965 C 0.05393 0.98372 0.45708 0.0
C1966 C 0.0764 0.97481 0.44521 0.0
C1967 C 0.03323 1.00478 0.48989 0.0
C1968 C 0.01225 0.9865 0.49478 0.0
C1969 C 0.03107 0.03197 0.49714 0.0
C1970 C 0.05135 0.05296 0.49114 0.0
C1971 C 0.05903 0.05665 0.46966 0.0
C1972 C 0.07817 0.07632 0.46413 0.0
C1973 C 0.08923 0.09308 0.47982 0.0
C1974 C 0.0814 0.08997 0.50113 0.0
C1975 C 0.06262 0.06996 0.50681 0.0
H1976 H 0.10385 0.10849 0.47545 0.0
H1977 H 0.91256 0.92121 0.52601 0.0
H1978 H 0.55259 0.12154 0.48549 0.0
H1979 H 0.53821 0.08298 0.50744 0.0
H1980 H 0.52144 0.03694 0.45053 0.0
H1981 H 0.53522 0.07544 0.4285 0.0
H1982 H 0.48015 0.0326 0.47974 0.0
H1983 H 0.57818 0.02525 0.4809 0.0
H1984 H 0.6248 0.04102 0.48785 0.0
H1985 H 0.60515 0.05264 0.55406 0.0
H1986 H 0.55831 0.03728 0.54746 0.0
H1987 H 0.46297 0.90138 0.52519 0.0
H1988 H 0.47936 0.9398 0.50402 0.0
H1989 H 0.50124 0.98195 0.56178 0.0
H1990 H 0.48545 0.94353 0.58293 0.0
H1991 H 0.53974 0.98934 0.53343 0.0
H1992 H 0.44198 1.00259 0.53165 0.0
H1993 H 0.39458 0.98818 0.52587 0.0
H1994 H 0.41416 0.96512 0.46151 0.0
H1995 H 0.46179 0.97883 0.46716 0.0
C1996 C 0.54579 0.10324 0.4776 0.0
C1997 C 0.54511 0.10177 0.45513 0.0
C1998 C 0.53767 0.08109 0.49022 0.0
C1999 C 0.52875 0.05684 0.48073 0.0
C2000 C 0.52797 0.05539 0.45832 0.0
C2001 C 0.53603 0.07749 0.4457 0.0
C2002 C 0.51977 0.03311 0.49399 0.0
C2003 C 0.4935 0.02275 0.49101 0.0
C2004 C 0.53652 0.02096 0.5097 0.0
C2005 C 0.56464 0.03039 0.51363 0.0
C2006 C 0.58372 0.03141 0.4969 0.0
C2007 C 0.61021 0.04022 0.50079 0.0
C2008 C 0.61792 0.04788 0.52138 0.0
C2009 C 0.59916 0.04672 0.53813 0.0
C2010 C 0.57264 0.03795 0.53432 0.0
C2011 C 0.47123 0.91882 0.53341 0.0
C2012 C 0.47277 0.91922 0.55583 0.0
C2013 C 0.48051 0.94093 0.52126 0.0
C2014 C 0.49126 0.96416 0.53122 0.0
C2015 C 0.49309 0.96441 0.5536 0.0
C2016 C 0.48396 0.94232 0.56572 0.0
C2017 C 0.50048 0.98821 0.51844 0.0
C2018 C 0.52662 0.99884 0.52173 0.0
C2019 C 0.48367 1.00068 0.50299 0.0
C2020 C 0.45526 0.99198 0.49973 0.0
C2021 C 0.43613 0.99438 0.5163 0.0
C2022 C 0.40927 0.98629 0.51307 0.0
C2023 C 0.40134 0.97583 0.49331 0.0
C2024 C 0.42029 0.97333 0.47678 0.0
C2025 C 0.44718 0.98131 0.47996 0.0
H2026 H 0.38053 0.96961 0.49083 0.0
H2027 H 0.63845 0.05466 0.52437 0.0
H2028 H 0.39645 0.54487 0.48539 0.0
H2029 H 0.43603 0.53032 0.50607 0.0
H2030 H 0.48319 0.52469 0.44811 0.0
H2031 H 0.44379 0.53866 0.4274 0.0
H2032 H 0.49389 0.48285 0.47222 0.0
H2033 H 0.48748 0.57854 0.48369 0.0
H2034 H 0.46546 0.62133 0.49443 0.0
H2035 H 0.45782 0.5921 0.55873 0.0
H2036 H 0.47898 0.54872 0.54823 0.0
H2037 H 0.62475 0.4745 0.52102 0.0
H2038 H 0.58542 0.48896 0.49998 0.0
H2039 H 0.53745 0.49462 0.55752 0.0
H2040 H 0.57652 0.48062 0.57858 0.0
H2041 H 0.52759 0.53696 0.53333 0.0
H2042 H 0.53222 0.44095 0.52186 0.0
H2043 H 0.5519 0.39708 0.51096 0.0
H2044 H 0.56238 0.42673 0.44702 0.0
H2045 H 0.54319 0.47097 0.45762 0.0
C2046 C 0.41524 0.54056 0.47704 0.0
C2047 C 0.41684 0.54313 0.4547 0.0
C2048 C 0.43795 0.5323 0.48891 0.0
C2049 C 0.46286 0.52672 0.47874 0.0
C2050 C 0.46432 0.52888 0.45641 0.0
C2051 C 0.44168 0.537 0.44456 0.0
C2052 C 0.48748 0.51867 0.49121 0.0
C2053 C 0.50142 0.49487 0.48543 0.0
C2054 C 0.49718 0.53405 0.50873 0.0
C2055 C 0.48451 0.56019 0.51509 0.0
C2056 C 0.4808 0.58107 0.50006 0.0
C2057 C 0.46842 0.60542 0.5061 0.0
C2058 C 0.46016 0.6094 0.52723 0.0
C2059 C 0.46418 0.58897 0.54235 0.0
C2060 C 0.47628 0.56446 0.53635 0.0
C2061 C 0.60583 0.4788 0.5292 0.0
C2062 C 0.60392 0.47628 0.55154 0.0
C2063 C 0.58327 0.48699 0.51712 0.0
C2064 C 0.55823 0.49267 0.52708 0.0
C2065 C 0.55643 0.49042 0.54938 0.0
C2066 C 0.5789 0.48229 0.56143 0.0
C2067 C 0.53387 0.501 0.51443 0.0
C2068 C 0.52003 0.52491 0.52014 0.0
C2069 C 0.52424 0.48571 0.49686 0.0
C2070 C 0.53665 0.45944 0.49062 0.0
C2071 C 0.5391 0.43827 0.50555 0.0
C2072 C 0.55007 0.41329 0.4994 0.0
C2073 C 0.55848 0.40915 0.47833 0.0
C2074 C 0.55594 0.42999 0.46335 0.0
C2075 C 0.54505 0.45503 0.46943 0.0
H2076 H 0.56688 0.38977 0.47359 0.0
H2077 H 0.45076 0.62835 0.5319 0.0
H2078 H 0.04421 0.57573 0.57908 0.0
H2079 H 0.0293 0.53661 0.55843 0.0
H2080 H 0.0349 0.58352 0.50051 0.0
H2081 H 0.04963 0.62311 0.5212 0.0
H2082 H 0.9887 0.55382 0.50121 0.0
H2083 H 0.08296 0.53586 0.51275 0.0
H2084 H 0.12481 0.53042 0.5338 0.0
H2085 H 0.08815 0.46544 0.5692 0.0
H2086 H 0.04591 0.47075 0.54856 0.0
H2087 H 0.97959 0.4426 0.42943 0.0
H2088 H 0.99487 0.48197 0.44964 0.0
H2089 H 0.99006 0.43579 0.50797 0.0
H2090 H 0.97502 0.39598 0.48774 0.0
H2091 H 0.03611 0.46529 0.50678 0.0
H2092 H 0.94175 0.48346 0.49538 0.0
H2093 H 0.89989 0.48892 0.47434 0.0
H2094 H 0.93678 0.55349 0.43862 0.0
H2095 H 0.97902 0.54817 0.45927 0.0
C2096 C 0.04234 0.57786 0.56194 0.0
C2097 C 0.04828 0.60272 0.55186 0.0
C2098 C 0.03389 0.55531 0.5501 0.0
C2099 C 0.03124 0.55685 0.52781 0.0
C2100 C 0.03684 0.58171 0.51767 0.0
C2101 C 0.04538 0.60434 0.52953 0.0
C2102 C 0.02242 0.53258 0.51522 0.0
C2103 C 0.99934 0.53459 0.50219 0.0
C2104 C 0.03579 0.50717 0.51682 0.0
C2105 C 0.06117 0.50389 0.52925 0.0
C2106 C 0.08374 0.52056 0.52514 0.0
C2107 C 0.10755 0.51747 0.53698 0.0
C2108 C 0.10912 0.49764 0.55286 0.0
C2109 C 0.08689 0.48082 0.55691 0.0
C2110 C 0.06302 0.48384 0.54513 0.0
C2111 C 0.98172 0.44069 0.44657 0.0
C2112 C 0.97591 0.41597 0.45691 0.0
C2113 C 0.99038 0.46338 0.45815 0.0
C2114 C 0.99335 0.46212 0.48044 0.0
C2115 C 0.98788 0.4374 0.49081 0.0
C2116 C 0.97916 0.41463 0.47921 0.0
C2117 C 1.00236 0.48651 0.4928 0.0
C2118 C 0.02548 0.48452 0.50579 0.0
C2119 C 0.98902 0.51194 0.49115 0.0
C2120 C 0.96364 0.51523 0.47874 0.0
C2121 C 0.94102 0.49868 0.48293 0.0
C2122 C 0.91721 0.50178 0.47109 0.0
C2123 C 0.9157 0.52149 0.45512 0.0
C2124 C 0.93799 0.5382 0.45098 0.0
C2125 C 0.96186 0.53517 0.46276 0.0
H2126 H 0.89725 0.52386 0.44597 0.0
H2127 H 0.12757 0.49528 0.562 0.0
H2128 H 0.57867 0.17589 0.33005 0.0
H2129 H 0.58975 0.16684 0.29256 0.0
H2130 H 0.6161 0.08624 0.30917 0.0
H2131 H 0.60438 0.09483 0.34672 0.0
H2132 H 0.64943 0.13635 0.2768 0.0
H2133 H 0.57416 0.06888 0.28911 0.0
H2134 H 0.52832 0.0594 0.30324 0.0
H2135 H 0.49599 0.12548 0.26655 0.0
H2136 H 0.54177 0.13554 0.25248 0.0
H2137 H 0.67297 0.07317 0.17743 0.0
H2138 H 0.66366 0.08428 0.21464 0.0
H2139 H 0.58838 0.12245 0.19624 0.0
H2140 H 0.59704 0.10991 0.15892 0.0
H2141 H 0.57899 0.09624 0.23 0.0
H2142 H 0.64867 0.15895 0.21188 0.0
H2143 H 0.69274 0.17452 0.19775 0.0
H2144 H 0.73442 0.12645 0.2445 0.0
H2145 H 0.6906 0.11029 0.25873 0.0
C2146 C 0.587 0.15628 0.32578 0.0
C2147 C 0.59061 0.13604 0.34136 0.0
C2148 C 0.59326 0.15116 0.30435 0.0
C2149 C 0.60355 0.12584 0.29812 0.0
C2150 C 0.60799 0.10585 0.31368 0.0
C2151 C 0.60132 0.1108 0.3351 0.0
C2152 C 0.60902 0.12018 0.27525 0.0
C2153 C 0.63427 0.1272 0.26655 0.0
C2154 C 0.58879 0.10943 0.26179 0.0
C2155 C 0.56134 0.10312 0.26998 0.0
C2156 C 0.5573 0.08151 0.28423 0.0
C2157 C 0.53134 0.07601 0.29219 0.0
C2158 C 0.50926 0.09189 0.28585 0.0
C2159 C 0.5131 0.11323 0.27148 0.0
C2160 C 0.53904 0.11884 0.26351 0.0
C2161 C 0.65452 0.08413 0.18127 0.0
C2162 C 0.63582 0.09085 0.16521 0.0
C2163 C 0.64926 0.09064 0.20261 0.0
C2164 C 0.62555 0.10478 0.2084 0.0
C2165 C 0.60686 0.1116 0.1923 0.0
C2166 C 0.61186 0.10454 0.17094 0.0
C2167 C 0.61998 0.11163 0.23128 0.0
C2168 C 0.59447 0.10518 0.24005 0.0
C2169 C 0.63992 0.12346 0.2447 0.0
C2170 C 0.66634 0.13323 0.23625 0.0
C2171 C 0.66724 0.15156 0.21906 0.0
C2172 C 0.69217 0.16051 0.21104 0.0
C2173 C 0.71637 0.15144 0.22019 0.0
C2174 C 0.71567 0.13344 0.23741 0.0
C2175 C 0.69078 0.1244 0.24548 0.0
H2176 H 0.73565 0.15839 0.21395 0.0
H2177 H 0.48918 0.0876 0.29203 0.0
H2178 H 0.42718 0.58693 0.34435 0.0
H2179 H 0.43564 0.59954 0.30717 0.0
H2180 H 0.34945 0.60744 0.29679 0.0
H2181 H 0.34088 0.59406 0.33378 0.0
H2182 H 0.37025 0.58157 0.26497 0.0
H2183 H 0.39233 0.66372 0.30074 0.0
H2184 H 0.41468 0.69297 0.32731 0.0
H2185 H 0.49274 0.67132 0.30177 0.0
H2186 H 0.47086 0.64166 0.2752 0.0
H2187 H 0.42456 0.67821 0.17417 0.0
H2188 H 0.41089 0.66999 0.21118 0.0
H2189 H 0.42463 0.58424 0.20244 0.0
H2190 H 0.43738 0.59229 0.16523 0.0
H2191 H 0.43663 0.65222 0.2438 0.0
H2192 H 0.38456 0.54714 0.23456 0.0
H2193 H 0.35761 0.52211 0.20793 0.0
H2194 H 0.33112 0.59728 0.1803 0.0
H2195 H 0.3576 0.62275 0.20693 0.0
C2196 C 0.41004 0.59158 0.33419 0.0
C2197 C 0.38336 0.58953 0.34202 0.0
C2198 C 0.41491 0.59888 0.31292 0.0
C2199 C 0.39321 0.60472 0.29913 0.0
C2200 C 0.36655 0.60299 0.30704 0.0
C2201 C 0.36168 0.59544 0.32824 0.0
C2202 C 0.39825 0.6118 0.27631 0.0
C2203 C 0.38474 0.59706 0.26037 0.0
C2204 C 0.41669 0.63242 0.27018 0.0
C2205 C 0.42995 0.65028 0.2861 0.0
C2206 C 0.41427 0.66504 0.30088 0.0
C2207 C 0.42685 0.68172 0.31593 0.0
C2208 C 0.45511 0.68395 0.31626 0.0
C2209 C 0.47085 0.66955 0.30151 0.0
C2210 C 0.45836 0.65283 0.28643 0.0
C2211 C 0.42441 0.65757 0.18009 0.0
C2212 C 0.43191 0.63587 0.16674 0.0
C2213 C 0.4167 0.6529 0.20129 0.0
C2214 C 0.41646 0.62646 0.20966 0.0
C2215 C 0.42405 0.60477 0.19632 0.0
C2216 C 0.43144 0.6094 0.17504 0.0
C2217 C 0.40896 0.62167 0.23245 0.0
C2218 C 0.42207 0.63679 0.24839 0.0
C2219 C 0.38952 0.60198 0.23857 0.0
C2220 C 0.37329 0.58683 0.22262 0.0
C2221 C 0.3729 0.55832 0.22285 0.0
C2222 C 0.35772 0.54406 0.20775 0.0
C2223 C 0.34273 0.55809 0.19239 0.0
C2224 C 0.34282 0.58643 0.19215 0.0
C2225 C 0.35794 0.60079 0.20723 0.0
H2226 H 0.33101 0.54701 0.18071 0.0
H2227 H 0.46482 0.69688 0.32792 0.0
H2228 H 0.93077 0.4329 0.1659 0.0
H2229 H 0.93932 0.42055 0.20316 0.0
H2230 H 0.85345 0.40857 0.2131 0.0
H2231 H 0.8448 0.42171 0.17616 0.0
H2232 H 0.87198 0.43518 0.24494 0.0
H2233 H 0.8999 0.35452 0.20898 0.0
H2234 H 0.92502 0.32697 0.18264 0.0
H2235 H 1.00059 0.35256 0.20995 0.0
H2236 H 0.97592 0.38057 0.23629 0.0
H2237 H 0.92554 0.3388 0.33588 0.0
H2238 H 0.91383 0.34741 0.29855 0.0
H2239 H 0.92336 0.43338 0.30895 0.0
H2240 H 0.93417 0.4249 0.34641 0.0
H2241 H 0.94076 0.36724 0.26689 0.0
H2242 H 0.88342 0.46959 0.27622 0.0
H2243 H 0.85399 0.49281 0.30243 0.0
H2244 H 0.82939 0.41593 0.32815 0.0
H2245 H 0.85838 0.39225 0.30193 0.0
C2246 C 0.91376 0.4274 0.176 0.0
C2247 C 0.88712 0.42827 0.16808 0.0
C2248 C 0.91866 0.42026 0.19731 0.0
C2249 C 0.89706 0.41339 0.21102 0.0
C2250 C 0.87049 0.41388 0.20296 0.0
C2251 C 0.86557 0.42129 0.18177 0.0
C2252 C 0.90192 0.40648 0.2339 0.0
C2253 C 0.88703 0.4203 0.2497 0.0
C2254 C 0.92114 0.38669 0.24025 0.0
C2255 C 0.93606 0.36984 0.22448 0.0
C2256 C 0.92188 0.35443 0.20927 0.0
C2257 C 0.93604 0.33871 0.19436 0.0
C2258 C 0.96439 0.33807 0.19459 0.0
C2259 C 0.97863 0.35311 0.20978 0.0
C2260 C 0.96457 0.36888 0.22471 0.0
C2261 C 0.92485 0.35956 0.33026 0.0
C2262 C 0.9306 0.38118 0.34415 0.0
C2263 C 0.91829 0.36445 0.30886 0.0
C2264 C 0.91746 0.39107 0.30085 0.0
C2265 C 0.92329 0.41269 0.31475 0.0
C2266 C 0.92954 0.40782 0.3362 0.0
C2267 C 0.91104 0.39617 0.27792 0.0
C2268 C 0.92569 0.38209 0.26212 0.0
C2269 C 0.89101 0.41514 0.27154 0.0
C2270 C 0.87329 0.42918 0.28724 0.0
C2271 C 0.87165 0.45765 0.28742 0.0
C2272 C 0.85506 0.47088 0.30229 0.0
C2273 C 0.8399 0.45585 0.31699 0.0
C2274 C 0.84122 0.42755 0.31681 0.0
C2275 C 0.85775 0.41421 0.30196 0.0
H2276 H 0.82708 0.46614 0.3285 0.0
H2277 H 0.97531 0.32589 0.18303 0.0
H2278 H 0.17701 0.92677 0.33131 0.0
H2279 H 0.16833 0.91625 0.29386 0.0
H2280 H 0.08221 0.91556 0.30644 0.0
H2281 H 0.09077 0.92646 0.34401 0.0
H2282 H 0.14525 0.87552 0.27301 0.0
H2283 H 0.04941 0.94254 0.26324 0.0
H2284 H 0.02931 0.98381 0.27906 0.0
H2285 H 0.10854 0.01142 0.29729 0.0
H2286 H 0.12912 0.97055 0.2813 0.0
H2287 H 0.08059 0.84393 0.17549 0.0
H2288 H 0.09123 0.85331 0.21276 0.0
H2289 H 0.11389 0.93512 0.19608 0.0
H2290 H 0.10236 0.92605 0.15871 0.0
H2291 H 0.08511 0.93611 0.2311 0.0
H2292 H 0.16155 0.88455 0.20724 0.0
H2293 H 0.18449 0.84576 0.1901 0.0
H2294 H 0.15131 0.79205 0.23739 0.0
H2295 H 0.12767 0.83047 0.25455 0.0
C2296 C 0.1562 0.92418 0.32618 0.0
C2297 C 0.13456 0.9276 0.34064 0.0
C2298 C 0.15128 0.91809 0.30473 0.0
C2299 C 0.12462 0.91543 0.29721 0.0
C2300 C 0.10296 0.91791 0.31178 0.0
C2301 C 0.10788 0.924 0.33328 0.0
C2302 C 0.11958 0.91089 0.27404 0.0
C2303 C 0.13203 0.88872 0.26386 0.0
C2304 C 0.10289 0.92847 0.26191 0.0
C2305 C 0.09074 0.95333 0.27128 0.0
C2306 C 0.06253 0.95748 0.27055 0.0
C2307 C 0.05106 0.98079 0.27955 0.0
C2308 C 0.06763 1.00018 0.28924 0.0
C2309 C 0.09572 0.99635 0.28986 0.0
C2310 C 0.10729 0.9731 0.28084 0.0
C2311 C 0.08804 0.86388 0.17969 0.0
C2312 C 0.0908 0.88421 0.16409 0.0
C2313 C 0.09418 0.8692 0.20106 0.0
C2314 C 0.10374 0.89483 0.2073 0.0
C2315 C 0.10658 0.91518 0.19171 0.0
C2316 C 0.10013 0.90994 0.17033 0.0
C2317 C 0.11038 0.90043 0.2301 0.0
C2318 C 0.09827 0.92283 0.24022 0.0
C2319 C 0.12791 0.88342 0.24205 0.0
C2320 C 0.14265 0.86037 0.23207 0.0
C2321 C 0.15903 0.86445 0.21392 0.0
C2322 C 0.17216 0.84252 0.2042 0.0
C2323 C 0.16933 0.81644 0.21263 0.0
C2324 C 0.15345 0.81226 0.23086 0.0
C2325 C 0.14018 0.83411 0.24059 0.0
H2326 H 0.17943 0.79945 0.20506 0.0
H2327 H 0.05871 0.0182 0.29622 0.0
H2328 H 0.3385 0.92668 0.83546 0.0
H2329 H 0.34747 0.91451 0.79825 0.0
H2330 H 0.43356 0.91578 0.81056 0.0
H2331 H 0.42467 0.92737 0.8479 0.0
H2332 H 0.37166 0.94063 0.76755 0.0
H2333 H 0.4664 0.87152 0.77821 0.0
H2334 H 0.48465 0.83886 0.80434 0.0
H2335 H 0.40413 0.82317 0.82762 0.0
H2336 H 0.38536 0.85542 0.80144 0.0
H2337 H 0.43989 0.92751 0.66825 0.0
H2338 H 0.42708 0.93555 0.70547 0.0
H2339 H 0.40703 0.85084 0.71261 0.0
H2340 H 0.42097 0.84256 0.67567 0.0
H2341 H 0.43258 0.86531 0.74583 0.0
H2342 H 0.35744 0.90334 0.70827 0.0
H2343 H 0.33436 0.93229 0.68183 0.0
H2344 H 0.36683 1.00344 0.71186 0.0
H2345 H 0.39039 0.97489 0.73833 0.0
C2346 C 0.35934 0.92409 0.8303 0.0
C2347 C 0.38087 0.92789 0.84468 0.0
C2348 C 0.36445 0.91726 0.80897 0.0
C2349 C 0.39119 0.91404 0.80153 0.0
C2350 C 0.41273 0.91769 0.81592 0.0
C2351 C 0.40762 0.92439 0.83729 0.0
C2352 C 0.39656 0.90759 0.77862 0.0
C2353 C 0.38496 0.92413 0.76282 0.0
C2354 C 0.41343 0.88572 0.77231 0.0
C2355 C 0.42453 0.86611 0.788 0.0
C2356 C 0.45259 0.86103 0.78885 0.0
C2357 C 0.46302 0.8426 0.80368 0.0
C2358 C 0.44557 0.82902 0.81768 0.0
C2359 C 0.41764 0.83378 0.81683 0.0
C2360 C 0.4071 0.85216 0.80202 0.0
C2361 C 0.43257 0.91065 0.67772 0.0
C2362 C 0.43137 0.88442 0.66901 0.0
C2363 C 0.42513 0.91527 0.69901 0.0
C2364 C 0.4157 0.89389 0.71192 0.0
C2365 C 0.41427 0.86771 0.7031 0.0
C2366 C 0.42214 0.86301 0.68193 0.0
C2367 C 0.408 0.8986 0.73471 0.0
C2368 C 0.41923 0.88178 0.75053 0.0
C2369 C 0.39012 0.91971 0.741 0.0
C2370 C 0.37587 0.93696 0.72517 0.0
C2371 C 0.3598 0.92515 0.70915 0.0
C2372 C 0.34661 0.94149 0.69417 0.0
C2373 C 0.34918 0.96968 0.69513 0.0
C2374 C 0.36488 0.9816 0.71112 0.0
C2375 C 0.37813 0.96535 0.72613 0.0
H2376 H 0.33896 0.98229 0.68352 0.0
H2377 H 0.45369 0.81477 0.82916 0.0
H2378 H 0.58989 0.42499 0.65977 0.0
H2379 H 0.57981 0.41258 0.69683 0.0
H2380 H 0.66482 0.41879 0.71232 0.0
H2381 H 0.67506 0.43072 0.67532 0.0
H2382 H 0.64367 0.37617 0.73162 0.0
H2383 H 0.6204 0.46997 0.72432 0.0
H2384 H 0.59741 0.50951 0.70839 0.0
H2385 H 0.51981 0.47493 0.72365 0.0
H2386 H 0.54235 0.43496 0.73939 0.0
H2387 H 0.59205 0.42307 0.84469 0.0
H2388 H 0.60455 0.43237 0.80758 0.0
H2389 H 0.58932 0.34873 0.79134 0.0
H2390 H 0.57756 0.33918 0.82853 0.0
H2391 H 0.57684 0.43083 0.77257 0.0
H2392 H 0.62889 0.3294 0.74921 0.0
H2393 H 0.65641 0.29323 0.76567 0.0
H2394 H 0.68356 0.34887 0.81381 0.0
H2395 H 0.6566 0.38544 0.79743 0.0
C2396 C 0.60645 0.42347 0.67103 0.0
C2397 C 0.63325 0.42895 0.66462 0.0
C2398 C 0.60065 0.41651 0.69224 0.0
C2399 C 0.62152 0.41509 0.70747 0.0
C2400 C 0.64837 0.41976 0.70091 0.0
C2401 C 0.65418 0.42666 0.67973 0.0
C2402 C 0.61541 0.40946 0.73035 0.0
C2403 C 0.62897 0.38804 0.74056 0.0
C2404 C 0.59668 0.4253 0.74219 0.0
C2405 C 0.58306 0.44936 0.73283 0.0
C2406 C 0.59843 0.47071 0.72413 0.0
C2407 C 0.58548 0.49321 0.71516 0.0
C2408 C 0.55717 0.4947 0.71496 0.0
C2409 C 0.54174 0.47372 0.72379 0.0
C2410 C 0.55459 0.45115 0.73275 0.0
C2411 C 0.59161 0.4066 0.83325 0.0
C2412 C 0.58393 0.38036 0.83958 0.0
C2413 C 0.59865 0.41197 0.812 0.0
C2414 C 0.5981 0.39125 0.7966 0.0
C2415 C 0.59042 0.365 0.80293 0.0
C2416 C 0.58361 0.35956 0.82421 0.0
C2417 C 0.60491 0.3973 0.77387 0.0
C2418 C 0.59144 0.41881 0.76365 0.0
C2419 C 0.62422 0.38194 0.76217 0.0
C2420 C 0.64049 0.36008 0.77221 0.0
C2421 C 0.6408 0.33392 0.76327 0.0
C2422 C 0.65631 0.31335 0.77259 0.0
C2423 C 0.67169 0.31872 0.79079 0.0
C2424 C 0.6716 0.34469 0.79973 0.0
C2425 C 0.65618 0.36535 0.79045 0.0
H2426 H 0.68373 0.30276 0.79791 0.0
H2427 H 0.54718 0.51214 0.70801 0.0
H2428 H 0.09615 0.67901 0.67375 0.0
H2429 H 0.1075 0.67018 0.71112 0.0
H2430 H 0.099 0.58421 0.70015 0.0
H2431 H 0.08858 0.59292 0.66265 0.0
H2432 H 0.0804 0.64992 0.7424 0.0
H2433 H 0.13862 0.54803 0.73314 0.0
H2434 H 0.16861 0.52523 0.7071 0.0
H2435 H 0.19301 0.60248 0.68196 0.0
H2436 H 0.16346 0.62574 0.70802 0.0
H2437 H 0.08937 0.58413 0.84334 0.0
H2438 H 0.08129 0.59645 0.80601 0.0
H2439 H 0.16725 0.60865 0.79677 0.0
H2440 H 0.17545 0.59549 0.83377 0.0
H2441 H 0.14932 0.58231 0.76468 0.0
H2442 H 0.1204 0.66262 0.80065 0.0
H2443 H 0.09476 0.68992 0.82684 0.0
H2444 H 0.01972 0.66395 0.79885 0.0
H2445 H 0.04492 0.6362 0.77266 0.0
C2446 C 0.09701 0.65821 0.67926 0.0
C2447 C 0.09165 0.63665 0.6652 0.0
C2448 C 0.10336 0.65318 0.70067 0.0
C2449 C 0.10436 0.6265 0.70854 0.0
C2450 C 0.09895 0.60495 0.69447 0.0
C2451 C 0.09292 0.60996 0.673 0.0
C2452 C 0.11048 0.62126 0.73151 0.0
C2453 C 0.09551 0.63514 0.74724 0.0
C2454 C 0.13055 0.6024 0.738 0.0
C2455 C 0.14861 0.5886 0.7224 0.0
C2456 C 0.15046 0.56015 0.72211 0.0
C2457 C 0.16737 0.54714 0.70734 0.0
C2458 C 0.18263 0.56239 0.69284 0.0
C2459 C 0.1811 0.59069 0.69314 0.0
C2460 C 0.16425 0.60379 0.70789 0.0
C2461 C 0.1065 0.58966 0.83338 0.0
C2462 C 0.13304 0.58885 0.84152 0.0
C2463 C 0.10187 0.59679 0.81203 0.0
C2464 C 0.12363 0.60374 0.79849 0.0
C2465 C 0.15009 0.60329 0.80677 0.0
C2466 C 0.15475 0.59586 0.82799 0.0
C2467 C 0.11903 0.61073 0.77558 0.0
C2468 C 0.13424 0.59711 0.75986 0.0
C2469 C 0.09978 0.63044 0.76913 0.0
C2470 C 0.08455 0.64713 0.78482 0.0
C2471 C 0.09843 0.66257 0.80018 0.0
C2472 C 0.08398 0.67816 0.81501 0.0
C2473 C 0.05563 0.67862 0.81455 0.0
C2474 C 0.04168 0.66355 0.79921 0.0
C2475 C 0.05604 0.64791 0.78436 0.0
H2476 H 0.04447 0.69069 0.82604 0.0
H2477 H 0.19569 0.55229 0.68141 0.0
H2478 H 0.9485 0.17306 0.8297 0.0
H2479 H 0.93777 0.16398 0.79239 0.0
H2480 H 0.89316 0.0925 0.8112 0.0
H2481 H 0.90547 0.10072 0.84853 0.0
H2482 H 0.91888 0.08007 0.7783 0.0
H2483 H 0.86248 0.15603 0.79368 0.0
H2484 H 0.8506 0.20183 0.80648 0.0
H2485 H 0.90395 0.23704 0.75981 0.0
H2486 H 0.91645 0.19142 0.7469 0.0
H2487 H 0.84622 0.07251 0.67852 0.0
H2488 H 0.85517 0.08412 0.71588 0.0
H2489 H 0.92935 0.1239 0.6972 0.0
H2490 H 0.92097 0.1116 0.65974 0.0
H2491 H 0.8871 0.1524 0.72927 0.0
H2492 H 0.94293 0.07205 0.71568 0.0
H2493 H 0.94907 0.02515 0.70285 0.0
H2494 H 0.88854 0.99738 0.74719 0.0
H2495 H 0.88173 0.04424 0.76003 0.0
C2496 C 0.93622 0.15552 0.82589 0.0
C2497 C 0.92766 0.13769 0.84205 0.0
C2498 C 0.92992 0.1504 0.8045 0.0
C2499 C 0.91409 0.12782 0.79878 0.0
C2500 C 0.90536 0.11009 0.81503 0.0
C2501 C 0.91228 0.11484 0.83641 0.0
C2502 C 0.90747 0.12225 0.77587 0.0
C2503 C 0.9116 0.09594 0.76778 0.0
C2504 C 0.89809 0.14279 0.76178 0.0
C2505 C 0.89059 0.17028 0.76946 0.0
C2506 C 0.87183 0.17353 0.78624 0.0
C2507 C 0.86496 0.19946 0.7935 0.0
C2508 C 0.87656 0.22233 0.784 0.0
C2509 C 0.895 0.21931 0.76717 0.0
C2510 C 0.90197 0.19342 0.75986 0.0
C2511 C 0.86434 0.08393 0.68232 0.0
C2512 C 0.88291 0.09116 0.66619 0.0
C2513 C 0.86942 0.09049 0.70367 0.0
C2514 C 0.8929 0.10484 0.70926 0.0
C2515 C 0.91109 0.11284 0.69316 0.0
C2516 C 0.90632 0.10576 0.67182 0.0
C2517 C 0.89883 0.11057 0.73205 0.0
C2518 C 0.89442 0.13677 0.74001 0.0
C2519 C 0.90724 0.08985 0.74614 0.0
C2520 C 0.91161 0.06167 0.73863 0.0
C2521 C 0.93074 0.05598 0.72254 0.0
C2522 C 0.93439 0.02941 0.7153 0.0
C2523 C 0.91915 1.00831 0.72415 0.0
C2524 C 0.9003 0.01375 0.74032 0.0
C2525 C 0.89656 0.0403 0.7476 0.0
H2526 H 0.92199 0.98775 0.71852 0.0
H2527 H 0.87122 0.24239 0.78965 0.0
loop_
_geom_bond_atom_site_label_1
_geom_bond_atom_site_label_2
_geom_bond_distance
_geom_bond_site_symmetry_2
_ccdc_geom_bond_type
Co0 N4 2.148 . S
Co0 N10 2.087 1_545 S
Co0 N20 2.194 . S
Co0 O25 2.351 . S
Co0 O26 2.155 . S
Co0 O27 2.096 . S
C1 N4 1.301 . S
C1 N5 1.328 . S
C1 H6 0.930 . S
C2 C3 1.333 . S
C2 N4 1.317 . S
C2 H7 0.930 . S
C3 C2 1.333 . S
C3 N5 1.350 . S
C3 H29 0.931 . S
N4 Co0 2.148 . S
N4 C1 1.301 . S
N4 C2 1.317 . S
N5 C1 1.328 . S
N5 C3 1.350 . S
H6 C1 0.930 . S
H7 C2 0.930 . S
C8 O9 1.224 . S
C8 O27 1.247 . S
O9 C8 1.224 . S
N10 Co0 2.087 1_565 S
N10 C11 1.383 . S
N10 C13 1.335 . S
C11 N10 1.383 . S
C11 C12 1.363 . S
C11 H23 0.929 . S
C12 C11 1.363 . S
C12 N14 1.375 . S
C12 H30 0.931 . S
C13 N10 1.335 . S
C13 N14 1.347 . S
C13 H24 0.929 . S
N14 C12 1.375 . S
N14 C13 1.347 . S
C15 C18 1.365 . S
C15 N20 1.328 . S
C15 H21 0.929 . S
C16 C17 1.362 . S
C16 C19 1.378 . S
C16 H31 0.929 1_545 S
C17 C16 1.362 . S
C17 C18 1.366 . S
C18 C15 1.365 . S
C18 C17 1.366 . S
C18 H32 0.930 . S
C19 C16 1.378 . S
C19 N20 1.315 . S
C19 H22 0.930 . S
N20 Co0 2.194 . S
N20 C15 1.328 . S
N20 C19 1.315 . S
H21 C15 0.929 . S
H22 C19 0.930 . S
H23 C11 0.929 . S
H24 C13 0.929 . S
O25 Co0 2.351 . S
O25 C28 1.244 . S
O26 Co0 2.155 . S
O26 C28 1.240 . S
O27 Co0 2.096 . S
O27 C8 1.247 . S
C28 O25 1.244 . S
C28 O26 1.240 . S
H29 C3 0.931 . S
H30 C12 0.931 . S
H31 C16 0.929 1_565 S
H32 C18 0.930 . S
Co33 N37 2.148 . S
Co33 N43 2.128 . S
Co33 N53 2.194 . S
Co33 O58 2.351 . S
Co33 O59 2.155 . S
Co33 O60 2.096 . S
C34 N37 1.301 . S
C34 N38 1.328 . S
C34 H39 0.930 . S
C35 C36 1.333 . S
C35 N37 1.317 . S
C35 H40 0.930 . S
C36 C35 1.333 . S
C36 N38 1.350 . S
C36 H62 0.931 . S
N37 Co33 2.148 . S
N37 C34 1.301 . S
N37 C35 1.317 . S
N38 C34 1.328 . S
N38 C36 1.350 . S
H39 C34 0.930 . S
H40 C35 0.930 . S
C41 O42 1.224 . S
C41 O60 1.247 . S
O42 C41 1.224 . S
N43 Co33 2.128 . S
N43 C44 1.355 . S
N43 C46 1.311 . S
C44 N43 1.355 . S
C44 C45 1.363 . S
C44 H56 0.929 . S
C45 C44 1.363 . S
C45 N47 1.375 . S
C45 H63 0.931 . S
C46 N43 1.311 . S
C46 N47 1.347 . S
C46 H57 0.929 . S
N47 C45 1.375 . S
N47 C46 1.347 . S
C48 C51 1.365 . S
C48 N53 1.328 . S
C48 H54 0.929 . S
C49 C50 1.362 . S
C49 C52 1.378 . S
C49 H64 0.929 . S
C50 C49 1.362 . S
C50 C51 1.366 . S
C51 C48 1.365 . S
C51 C50 1.366 . S
C51 H65 0.930 . S
C52 C49 1.378 . S
C52 N53 1.315 . S
C52 H55 0.930 . S
N53 Co33 2.194 . S
N53 C48 1.328 . S
N53 C52 1.315 . S
H54 C48 0.929 . S
H55 C52 0.930 . S
H56 C44 0.929 . S
H57 C46 0.929 . S
O58 Co33 2.351 . S
O58 C61 1.244 . S
O59 Co33 2.155 . S
O59 C61 1.240 . S
O60 Co33 2.096 . S
O60 C41 1.247 . S
C61 O58 1.244 . S
C61 O59 1.240 . S
H62 C36 0.931 . S
H63 C45 0.931 . S
H64 C49 0.929 . S
H65 C51 0.930 . S
Co66 N70 2.148 . S
Co66 N76 2.128 . S
Co66 N86 2.194 . S
Co66 O91 2.351 . S
Co66 O92 2.155 . S
Co66 O93 2.096 . S
C67 N70 1.301 . S
C67 N71 1.328 . S
C67 H72 0.930 . S
C68 C69 1.333 . S
C68 N70 1.317 . S
C68 H73 0.930 . S
C69 C68 1.333 . S
C69 N71 1.350 . S
C69 H95 0.931 . S
N70 Co66 2.148 . S
N70 C67 1.301 . S
N70 C68 1.317 . S
N71 C67 1.328 . S
N71 C69 1.350 . S
H72 C67 0.930 . S
H73 C68 0.930 . S
C74 O75 1.224 . S
C74 O93 1.247 . S
O75 C74 1.224 . S
N76 Co66 2.128 . S
N76 C77 1.355 . S
N76 C79 1.311 . S
C77 N76 1.355 . S
C77 C78 1.363 . S
C77 H89 0.929 . S
C78 C77 1.363 . S
C78 N80 1.375 . S
C78 H96 0.931 . S
C79 N76 1.311 . S
C79 N80 1.347 . S
C79 H90 0.929 . S
N80 C78 1.375 . S
N80 C79 1.347 . S
C81 C84 1.365 . S
C81 N86 1.328 . S
C81 H87 0.929 . S
C82 C83 1.362 . S
C82 C85 1.378 . S
C82 H97 0.929 . S
C83 C82 1.362 . S
C83 C84 1.366 . S
C84 C81 1.365 . S
C84 C83 1.366 . S
C84 H98 0.930 . S
C85 C82 1.378 . S
C85 N86 1.315 . S
C85 H88 0.930 . S
N86 Co66 2.194 . S
N86 C81 1.328 . S
N86 C85 1.315 . S
H87 C81 0.929 . S
H88 C85 0.930 . S
H89 C77 0.929 . S
H90 C79 0.929 . S
O91 Co66 2.351 . S
O91 C94 1.244 . S
O92 Co66 2.155 . S
O92 C94 1.240 . S
O93 Co66 2.096 . S
O93 C74 1.247 . S
C94 O91 1.244 . S
C94 O92 1.240 . S
H95 C69 0.931 . S
H96 C78 0.931 . S
H97 C82 0.929 . S
H98 C84 0.930 . S
Co99 N103 2.148 . S
Co99 N109 2.087 1_455 S
Co99 N119 2.194 . S
Co99 O124 2.351 . S
Co99 O125 2.155 . S
Co99 O126 2.096 . S
C100 N103 1.301 . S
C100 N104 1.328 . S
C100 H105 0.930 . S
C101 C102 1.333 . S
C101 N103 1.317 . S
C101 H106 0.930 . S
C102 C101 1.333 . S
C102 N104 1.350 . S
C102 H128 0.931 . S
N103 Co99 2.148 . S
N103 C100 1.301 . S
N103 C101 1.317 . S
N104 C100 1.328 . S
N104 C102 1.350 . S
H105 C100 0.930 . S
H106 C101 0.930 . S
C107 O108 1.224 . S
C107 O126 1.247 . S
O108 C107 1.224 . S
N109 Co99 2.087 1_655 S
N109 C110 1.383 . S
N109 C112 1.335 . S
C110 N109 1.383 . S
C110 C111 1.363 . S
C110 H122 0.929 . S
C111 C110 1.363 . S
C111 N113 1.375 . S
C111 H129 0.931 . S
C112 N109 1.335 . S
C112 N113 1.347 . S
C112 H123 0.929 . S
N113 C111 1.375 . S
N113 C112 1.347 . S
C114 C117 1.365 . S
C114 N119 1.328 . S
C114 H120 0.929 . S
C115 C116 1.362 . S
C115 C118 1.378 . S
C115 H130 0.929 1_455 S
C116 C115 1.362 . S
C116 C117 1.366 . S
C117 C114 1.365 . S
C117 C116 1.366 . S
C117 H131 0.930 . S
C118 C115 1.378 . S
C118 N119 1.315 . S
C118 H121 0.930 . S
N119 Co99 2.194 . S
N119 C114 1.328 . S
N119 C118 1.315 . S
H120 C114 0.929 . S
H121 C118 0.930 . S
H122 C110 0.929 . S
H123 C112 0.929 . S
O124 Co99 2.351 . S
O124 C127 1.244 . S
O125 Co99 2.155 . S
O125 C127 1.240 . S
O126 Co99 2.096 . S
O126 C107 1.247 . S
C127 O124 1.244 . S
C127 O125 1.240 . S
H128 C102 0.931 . S
H129 C111 0.931 . S
H130 C115 0.929 1_655 S
H131 C117 0.930 . S
Co132 N136 2.148 . S
Co132 N142 2.087 1_565 S
Co132 N152 2.194 . S
Co132 O157 2.351 . S
Co132 O158 2.155 . S
Co132 O159 2.096 . S
C133 N136 1.301 . S
C133 N137 1.328 . S
C133 H138 0.930 . S
C134 C135 1.333 . S
C134 N136 1.317 . S
C134 H139 0.930 . S
C135 C134 1.333 . S
C135 N137 1.350 . S
C135 H161 0.931 . S
N136 Co132 2.148 . S
N136 C133 1.301 . S
N136 C134 1.317 . S
N137 C133 1.328 . S
N137 C135 1.350 . S
H138 C133 0.930 . S
H139 C134 0.930 . S
C140 O141 1.224 . S
C140 O159 1.247 . S
O141 C140 1.224 . S
N142 Co132 2.087 1_545 S
N142 C143 1.383 . S
N142 C145 1.335 . S
C143 N142 1.383 . S
C143 C144 1.363 . S
C143 H155 0.929 . S
C144 C143 1.363 . S
C144 N146 1.375 . S
C144 H162 0.931 . S
C145 N142 1.335 . S
C145 N146 1.347 . S
C145 H156 0.929 . S
N146 C144 1.375 . S
N146 C145 1.347 . S
C147 C150 1.365 . S
C147 N152 1.328 . S
C147 H153 0.929 . S
C148 C149 1.362 . S
C148 C151 1.378 . S
C148 H163 0.929 1_565 S
C149 C148 1.362 . S
C149 C150 1.366 . S
C150 C147 1.365 . S
C150 C149 1.366 . S
C150 H164 0.930 . S
C151 C148 1.378 . S
C151 N152 1.315 . S
C151 H154 0.930 . S
N152 Co132 2.194 . S
N152 C147 1.328 . S
N152 C151 1.315 . S
H153 C147 0.929 . S
H154 C151 0.930 . S
H155 C143 0.929 . S
H156 C145 0.929 . S
O157 Co132 2.351 . S
O157 C160 1.244 . S
O158 Co132 2.155 . S
O158 C160 1.240 . S
O159 Co132 2.096 . S
O159 C140 1.247 . S
C160 O157 1.244 . S
C160 O158 1.240 . S
H161 C135 0.931 . S
H162 C144 0.931 . S
H163 C148 0.929 1_545 S
H164 C150 0.930 . S
Co165 N169 2.148 . S
Co165 N175 2.128 . S
Co165 N185 2.194 . S
Co165 O190 2.351 . S
Co165 O191 2.155 . S
Co165 O192 2.096 . S
C166 N169 1.301 . S
C166 N170 1.328 . S
C166 H171 0.930 . S
C167 C168 1.333 . S
C167 N169 1.317 . S
C167 H172 0.930 . S
C168 C167 1.333 . S
C168 N170 1.350 . S
C168 H194 0.931 . S
N169 Co165 2.148 . S
N169 C166 1.301 . S
N169 C167 1.317 . S
N170 C166 1.328 . S
N170 C168 1.350 . S
H171 C166 0.930 . S
H172 C167 0.930 . S
C173 O174 1.224 . S
C173 O192 1.247 . S
O174 C173 1.224 . S
N175 Co165 2.128 . S
N175 C176 1.355 . S
N175 C178 1.311 . S
C176 N175 1.355 . S
C176 C177 1.363 . S
C176 H188 0.929 . S
C177 C176 1.363 . S
C177 N179 1.375 . S
C177 H195 0.931 . S
C178 N175 1.311 . S
C178 N179 1.347 . S
C178 H189 0.929 . S
N179 C177 1.375 . S
N179 C178 1.347 . S
C180 C183 1.365 . S
C180 N185 1.328 . S
C180 H186 0.929 . S
C181 C182 1.362 . S
C181 C184 1.378 . S
C181 H196 0.929 . S
C182 C181 1.362 . S
C182 C183 1.366 . S
C183 C180 1.365 . S
C183 C182 1.366 . S
C183 H197 0.930 . S
C184 C181 1.378 . S
C184 N185 1.315 . S
C184 H187 0.930 . S
N185 Co165 2.194 . S
N185 C180 1.328 . S
N185 C184 1.315 . S
H186 C180 0.929 . S
H187 C184 0.930 . S
H188 C176 0.929 . S
H189 C178 0.929 . S
O190 Co165 2.351 . S
O190 C193 1.244 . S
O191 Co165 2.155 . S
O191 C193 1.240 . S
O192 Co165 2.096 . S
O192 C173 1.247 . S
C193 O190 1.244 . S
C193 O191 1.240 . S
H194 C168 0.931 . S
H195 C177 0.931 . S
H196 C181 0.929 . S
H197 C183 0.930 . S
Co198 N202 2.148 . S
Co198 N208 2.128 . S
Co198 N218 2.194 . S
Co198 O223 2.351 . S
Co198 O224 2.155 . S
Co198 O225 2.096 . S
C199 N202 1.301 . S
C199 N203 1.328 . S
C199 H204 0.930 . S
C200 C201 1.333 . S
C200 N202 1.317 . S
C200 H205 0.930 . S
C201 C200 1.333 . S
C201 N203 1.350 . S
C201 H227 0.931 . S
N202 Co198 2.148 . S
N202 C199 1.301 . S
N202 C200 1.317 . S
N203 C199 1.328 . S
N203 C201 1.350 . S
H204 C199 0.930 . S
H205 C200 0.930 . S
C206 O207 1.224 . S
C206 O225 1.247 . S
O207 C206 1.224 . S
N208 Co198 2.128 . S
N208 C209 1.355 . S
N208 C211 1.311 . S
C209 N208 1.355 . S
C209 C210 1.363 . S
C209 H221 0.929 . S
C210 C209 1.363 . S
C210 N212 1.375 . S
C210 H228 0.931 . S
C211 N208 1.311 . S
C211 N212 1.347 . S
C211 H222 0.929 . S
N212 C210 1.375 . S
N212 C211 1.347 . S
C213 C216 1.365 . S
C213 N218 1.328 . S
C213 H219 0.929 . S
C214 C215 1.362 . S
C214 C217 1.378 . S
C214 H229 0.929 . S
C215 C214 1.362 . S
C215 C216 1.366 . S
C216 C213 1.365 . S
C216 C215 1.366 . S
C216 H230 0.930 . S
C217 C214 1.378 . S
C217 N218 1.315 . S
C217 H220 0.930 . S
N218 Co198 2.194 . S
N218 C213 1.328 . S
N218 C217 1.315 . S
H219 C213 0.929 . S
H220 C217 0.930 . S
H221 C209 0.929 . S
H222 C211 0.929 . S
O223 Co198 2.351 . S
O223 C226 1.244 . S
O224 Co198 2.155 . S
O224 C226 1.240 . S
O225 Co198 2.096 . S
O225 C206 1.247 . S
C226 O223 1.244 . S
C226 O224 1.240 . S
H227 C201 0.931 . S
H228 C210 0.931 . S
H229 C214 0.929 . S
H230 C216 0.930 . S
Co231 N235 2.148 . S
Co231 N241 2.087 1_655 S
Co231 N251 2.194 . S
Co231 O256 2.351 . S
Co231 O257 2.155 . S
Co231 O258 2.096 . S
C232 N235 1.301 . S
C232 N236 1.328 . S
C232 H237 0.930 . S
C233 C234 1.333 . S
C233 N235 1.317 . S
C233 H238 0.930 . S
C234 C233 1.333 . S
C234 N236 1.350 . S
C234 H260 0.931 . S
N235 Co231 2.148 . S
N235 C232 1.301 . S
N235 C233 1.317 . S
N236 C232 1.328 . S
N236 C234 1.350 . S
H237 C232 0.930 . S
H238 C233 0.930 . S
C239 O240 1.224 . S
C239 O258 1.247 . S
O240 C239 1.224 . S
N241 Co231 2.087 1_455 S
N241 C242 1.383 . S
N241 C244 1.335 . S
C242 N241 1.383 . S
C242 C243 1.363 . S
C242 H254 0.929 . S
C243 C242 1.363 . S
C243 N245 1.375 . S
C243 H261 0.931 . S
C244 N241 1.335 . S
C244 N245 1.347 . S
C244 H255 0.929 . S
N245 C243 1.375 . S
N245 C244 1.347 . S
C246 C249 1.365 . S
C246 N251 1.328 . S
C246 H252 0.929 . S
C247 C248 1.362 . S
C247 C250 1.378 . S
C247 H262 0.929 1_655 S
C248 C247 1.362 . S
C248 C249 1.366 . S
C249 C246 1.365 . S
C249 C248 1.366 . S
C249 H263 0.930 . S
C250 C247 1.378 . S
C250 N251 1.315 . S
C250 H253 0.930 . S
N251 Co231 2.194 . S
N251 C246 1.328 . S
N251 C250 1.315 . S
H252 C246 0.929 . S
H253 C250 0.930 . S
H254 C242 0.929 . S
H255 C244 0.929 . S
O256 Co231 2.351 . S
O256 C259 1.244 . S
O257 Co231 2.155 . S
O257 C259 1.240 . S
O258 Co231 2.096 . S
O258 C239 1.247 . S
C259 O256 1.244 . S
C259 O257 1.240 . S
H260 C234 0.931 . S
H261 C243 0.931 . S
H262 C247 0.929 1_455 S
H263 C249 0.930 . S
Co264 N268 2.148 . S
Co264 N274 2.087 1_565 S
Co264 N284 2.194 . S
Co264 O289 2.351 . S
Co264 O290 2.155 . S
Co264 O291 2.096 . S
C265 N268 1.301 . S
C265 N269 1.328 . S
C265 H270 0.930 . S
C266 C267 1.333 . S
C266 N268 1.317 . S
C266 H271 0.930 . S
C267 C266 1.333 . S
C267 N269 1.350 . S
C267 H293 0.931 . S
N268 Co264 2.148 . S
N268 C265 1.301 . S
N268 C266 1.317 . S
N269 C265 1.328 . S
N269 C267 1.350 . S
H270 C265 0.930 . S
H271 C266 0.930 . S
C272 O273 1.224 . S
C272 O291 1.247 . S
O273 C272 1.224 . S
N274 Co264 2.087 1_545 S
N274 C275 1.383 . S
N274 C277 1.335 . S
C275 N274 1.383 . S
C275 C276 1.363 . S
C275 H287 0.929 . S
C276 C275 1.363 . S
C276 N278 1.375 . S
C276 H294 0.931 . S
C277 N274 1.335 . S
C277 N278 1.347 . S
C277 H288 0.929 . S
N278 C276 1.375 . S
N278 C277 1.347 . S
C279 C282 1.365 . S
C279 N284 1.328 . S
C279 H285 0.929 . S
C280 C281 1.362 . S
C280 C283 1.378 . S
C280 H295 0.929 1_565 S
C281 C280 1.362 . S
C281 C282 1.366 . S
C282 C279 1.365 . S
C282 C281 1.366 . S
C282 H296 0.930 . S
C283 C280 1.378 . S
C283 N284 1.315 . S
C283 H286 0.930 . S
N284 Co264 2.194 . S
N284 C279 1.328 . S
N284 C283 1.315 . S
H285 C279 0.929 . S
H286 C283 0.930 . S
H287 C275 0.929 . S
H288 C277 0.929 . S
O289 Co264 2.351 . S
O289 C292 1.244 . S
O290 Co264 2.155 . S
O290 C292 1.240 . S
O291 Co264 2.096 . S
O291 C272 1.247 . S
C292 O289 1.244 . S
C292 O290 1.240 . S
H293 C267 0.931 . S
H294 C276 0.931 . S
H295 C280 0.929 1_545 S
H296 C282 0.930 . S
Co297 N301 2.148 . S
Co297 N307 2.128 . S
Co297 N317 2.194 . S
Co297 O322 2.351 . S
Co297 O323 2.155 . S
Co297 O324 2.096 . S
C298 N301 1.301 . S
C298 N302 1.328 . S
C298 H303 0.930 . S
C299 C300 1.333 . S
C299 N301 1.317 . S
C299 H304 0.930 . S
C300 C299 1.333 . S
C300 N302 1.350 . S
C300 H326 0.931 . S
N301 Co297 2.148 . S
N301 C298 1.301 . S
N301 C299 1.317 . S
N302 C298 1.328 . S
N302 C300 1.350 . S
H303 C298 0.930 . S
H304 C299 0.930 . S
C305 O306 1.224 . S
C305 O324 1.247 . S
O306 C305 1.224 . S
N307 Co297 2.128 . S
N307 C308 1.355 . S
N307 C310 1.311 . S
C308 N307 1.355 . S
C308 C309 1.363 . S
C308 H320 0.929 . S
C309 C308 1.363 . S
C309 N311 1.375 . S
C309 H327 0.931 . S
C310 N307 1.311 . S
C310 N311 1.347 . S
C310 H321 0.929 . S
N311 C309 1.375 . S
N311 C310 1.347 . S
C312 C315 1.365 . S
C312 N317 1.328 . S
C312 H318 0.929 . S
C313 C314 1.362 . S
C313 C316 1.378 . S
C313 H328 0.929 . S
C314 C313 1.362 . S
C314 C315 1.366 . S
C315 C312 1.365 . S
C315 C314 1.366 . S
C315 H329 0.930 . S
C316 C313 1.378 . S
C316 N317 1.315 . S
C316 H319 0.930 . S
N317 Co297 2.194 . S
N317 C312 1.328 . S
N317 C316 1.315 . S
H318 C312 0.929 . S
H319 C316 0.930 . S
H320 C308 0.929 . S
H321 C310 0.929 . S
O322 Co297 2.351 . S
O322 C325 1.244 . S
O323 Co297 2.155 . S
O323 C325 1.240 . S
O324 Co297 2.096 . S
O324 C305 1.247 . S
C325 O322 1.244 . S
C325 O323 1.240 . S
H326 C300 0.931 . S
H327 C309 0.931 . S
H328 C313 0.929 . S
H329 C315 0.930 . S
Co330 N334 2.148 . S
Co330 N340 2.128 . S
Co330 N350 2.194 . S
Co330 O355 2.351 . S
Co330 O356 2.155 . S
Co330 O357 2.096 . S
C331 N334 1.301 . S
C331 N335 1.328 . S
C331 H336 0.930 . S
C332 C333 1.333 . S
C332 N334 1.317 . S
C332 H337 0.930 . S
C333 C332 1.333 . S
C333 N335 1.350 . S
C333 H359 0.931 . S
N334 Co330 2.148 . S
N334 C331 1.301 . S
N334 C332 1.317 . S
N335 C331 1.328 . S
N335 C333 1.350 . S
H336 C331 0.930 . S
H337 C332 0.930 . S
C338 O339 1.224 . S
C338 O357 1.247 . S
O339 C338 1.224 . S
N340 Co330 2.128 . S
N340 C341 1.355 . S
N340 C343 1.311 . S
C341 N340 1.355 . S
C341 C342 1.363 . S
C341 H353 0.929 . S
C342 C341 1.363 . S
C342 N344 1.375 . S
C342 H360 0.931 . S
C343 N340 1.311 . S
C343 N344 1.347 . S
C343 H354 0.929 . S
N344 C342 1.375 . S
N344 C343 1.347 . S
C345 C348 1.365 . S
C345 N350 1.328 . S
C345 H351 0.929 . S
C346 C347 1.362 . S
C346 C349 1.378 . S
C346 H361 0.929 . S
C347 C346 1.362 . S
C347 C348 1.366 . S
C348 C345 1.365 . S
C348 C347 1.366 . S
C348 H362 0.930 . S
C349 C346 1.378 . S
C349 N350 1.315 . S
C349 H352 0.930 . S
N350 Co330 2.194 . S
N350 C345 1.328 . S
N350 C349 1.315 . S
H351 C345 0.929 . S
H352 C349 0.930 . S
H353 C341 0.929 . S
H354 C343 0.929 . S
O355 Co330 2.351 . S
O355 C358 1.244 . S
O356 Co330 2.155 . S
O356 C358 1.240 . S
O357 Co330 2.096 . S
O357 C338 1.247 . S
C358 O355 1.244 . S
C358 O356 1.240 . S
H359 C333 0.931 . S
H360 C342 0.931 . S
H361 C346 0.929 . S
H362 C348 0.930 . S
Co363 N367 2.148 . S
Co363 N373 2.087 1_655 S
Co363 N383 2.194 . S
Co363 O388 2.351 . S
Co363 O389 2.155 . S
Co363 O390 2.096 . S
C364 N367 1.301 . S
C364 N368 1.328 . S
C364 H369 0.930 . S
C365 C366 1.333 . S
C365 N367 1.317 . S
C365 H370 0.930 . S
C366 C365 1.333 . S
C366 N368 1.350 . S
C366 H392 0.931 . S
N367 Co363 2.148 . S
N367 C364 1.301 . S
N367 C365 1.317 . S
N368 C364 1.328 . S
N368 C366 1.350 . S
H369 C364 0.930 . S
H370 C365 0.930 . S
C371 O372 1.224 . S
C371 O390 1.247 . S
O372 C371 1.224 . S
N373 Co363 2.087 1_455 S
N373 C374 1.383 . S
N373 C376 1.335 . S
C374 N373 1.383 . S
C374 C375 1.363 . S
C374 H386 0.929 . S
C375 C374 1.363 . S
C375 N377 1.375 . S
C375 H393 0.931 . S
C376 N373 1.335 . S
C376 N377 1.347 . S
C376 H387 0.929 . S
N377 C375 1.375 . S
N377 C376 1.347 . S
C378 C381 1.365 . S
C378 N383 1.328 . S
C378 H384 0.929 . S
C379 C380 1.362 . S
C379 C382 1.378 . S
C379 H394 0.929 1_655 S
C380 C379 1.362 . S
C380 C381 1.366 . S
C381 C378 1.365 . S
C381 C380 1.366 . S
C381 H395 0.930 . S
C382 C379 1.378 . S
C382 N383 1.315 . S
C382 H385 0.930 . S
N383 Co363 2.194 . S
N383 C378 1.328 . S
N383 C382 1.315 . S
H384 C378 0.929 . S
H385 C382 0.930 . S
H386 C374 0.929 . S
H387 C376 0.929 . S
O388 Co363 2.351 . S
O388 C391 1.244 . S
O389 Co363 2.155 . S
O389 C391 1.240 . S
O390 Co363 2.096 . S
O390 C371 1.247 . S
C391 O388 1.244 . S
C391 O389 1.240 . S
H392 C366 0.931 . S
H393 C375 0.931 . S
H394 C379 0.929 1_455 S
H395 C381 0.930 . S
Co396 N400 2.148 . S
Co396 N406 2.087 1_545 S
Co396 N416 2.194 . S
Co396 O421 2.351 . S
Co396 O422 2.155 . S
Co396 O423 2.096 . S
C397 N400 1.301 . S
C397 N401 1.328 . S
C397 H402 0.930 . S
C398 C399 1.333 . S
C398 N400 1.317 . S
C398 H403 0.930 . S
C399 C398 1.333 . S
C399 N401 1.350 . S
C399 H425 0.931 . S
N400 Co396 2.148 . S
N400 C397 1.301 . S
N400 C398 1.317 . S
N401 C397 1.328 . S
N401 C399 1.350 . S
H402 C397 0.930 . S
H403 C398 0.930 . S
C404 O405 1.224 . S
C404 O423 1.247 . S
O405 C404 1.224 . S
N406 Co396 2.087 1_565 S
N406 C407 1.383 . S
N406 C409 1.335 . S
C407 N406 1.383 . S
C407 C408 1.363 . S
C407 H419 0.929 . S
C408 C407 1.363 . S
C408 N410 1.375 . S
C408 H426 0.931 . S
C409 N406 1.335 . S
C409 N410 1.347 . S
C409 H420 0.929 . S
N410 C408 1.375 . S
N410 C409 1.347 . S
C411 C414 1.365 . S
C411 N416 1.328 . S
C411 H417 0.929 . S
C412 C413 1.362 . S
C412 C415 1.378 . S
C412 H427 0.929 1_545 S
C413 C412 1.362 . S
C413 C414 1.366 . S
C414 C411 1.365 . S
C414 C413 1.366 . S
C414 H428 0.930 . S
C415 C412 1.378 . S
C415 N416 1.315 . S
C415 H418 0.930 . S
N416 Co396 2.194 . S
N416 C411 1.328 . S
N416 C415 1.315 . S
H417 C411 0.929 . S
H418 C415 0.930 . S
H419 C407 0.929 . S
H420 C409 0.929 . S
O421 Co396 2.351 . S
O421 C424 1.244 . S
O422 Co396 2.155 . S
O422 C424 1.240 . S
O423 Co396 2.096 . S
O423 C404 1.247 . S
C424 O421 1.244 . S
C424 O422 1.240 . S
H425 C399 0.931 . S
H426 C408 0.931 . S
H427 C412 0.929 1_565 S
H428 C414 0.930 . S
Co429 N433 2.148 . S
Co429 N439 2.128 . S
Co429 N449 2.194 . S
Co429 O454 2.351 . S
Co429 O455 2.155 . S
Co429 O456 2.096 . S
C430 N433 1.301 . S
C430 N434 1.328 . S
C430 H435 0.930 . S
C431 C432 1.333 . S
C431 N433 1.317 . S
C431 H436 0.930 . S
C432 C431 1.333 . S
C432 N434 1.350 . S
C432 H458 0.931 . S
N433 Co429 2.148 . S
N433 C430 1.301 . S
N433 C431 1.317 . S
N434 C430 1.328 . S
N434 C432 1.350 . S
H435 C430 0.930 . S
H436 C431 0.930 . S
C437 O438 1.224 . S
C437 O456 1.247 . S
O438 C437 1.224 . S
N439 Co429 2.128 . S
N439 C440 1.355 . S
N439 C442 1.311 . S
C440 N439 1.355 . S
C440 C441 1.363 . S
C440 H452 0.929 . S
C441 C440 1.363 . S
C441 N443 1.375 . S
C441 H459 0.931 . S
C442 N439 1.311 . S
C442 N443 1.347 . S
C442 H453 0.929 . S
N443 C441 1.375 . S
N443 C442 1.347 . S
C444 C447 1.365 . S
C444 N449 1.328 . S
C444 H450 0.929 . S
C445 C446 1.362 . S
C445 C448 1.378 . S
C445 H460 0.929 . S
C446 C445 1.362 . S
C446 C447 1.366 . S
C447 C444 1.365 . S
C447 C446 1.366 . S
C447 H461 0.930 . S
C448 C445 1.378 . S
C448 N449 1.315 . S
C448 H451 0.930 . S
N449 Co429 2.194 . S
N449 C444 1.328 . S
N449 C448 1.315 . S
H450 C444 0.929 . S
H451 C448 0.930 . S
H452 C440 0.929 . S
H453 C442 0.929 . S
O454 Co429 2.351 . S
O454 C457 1.244 . S
O455 Co429 2.155 . S
O455 C457 1.240 . S
O456 Co429 2.096 . S
O456 C437 1.247 . S
C457 O454 1.244 . S
C457 O455 1.240 . S
H458 C432 0.931 . S
H459 C441 0.931 . S
H460 C445 0.929 . S
H461 C447 0.930 . S
Co462 N466 2.148 . S
Co462 N472 2.128 . S
Co462 N482 2.194 . S
Co462 O487 2.351 . S
Co462 O488 2.155 . S
Co462 O489 2.096 . S
C463 N466 1.301 . S
C463 N467 1.328 . S
C463 H468 0.930 . S
C464 C465 1.333 . S
C464 N466 1.317 . S
C464 H469 0.930 . S
C465 C464 1.333 . S
C465 N467 1.350 . S
C465 H491 0.931 . S
N466 Co462 2.148 . S
N466 C463 1.301 . S
N466 C464 1.317 . S
N467 C463 1.328 . S
N467 C465 1.350 . S
H468 C463 0.930 . S
H469 C464 0.930 . S
C470 O471 1.224 . S
C470 O489 1.247 . S
O471 C470 1.224 . S
N472 Co462 2.128 . S
N472 C473 1.355 . S
N472 C475 1.311 . S
C473 N472 1.355 . S
C473 C474 1.363 . S
C473 H485 0.929 . S
C474 C473 1.363 . S
C474 N476 1.375 . S
C474 H492 0.931 . S
C475 N472 1.311 . S
C475 N476 1.347 . S
C475 H486 0.929 . S
N476 C474 1.375 . S
N476 C475 1.347 . S
C477 C480 1.365 . S
C477 N482 1.328 . S
C477 H483 0.929 . S
C478 C479 1.362 . S
C478 C481 1.378 . S
C478 H493 0.929 . S
C479 C478 1.362 . S
C479 C480 1.366 . S
C480 C477 1.365 . S
C480 C479 1.366 . S
C480 H494 0.930 . S
C481 C478 1.378 . S
C481 N482 1.315 . S
C481 H484 0.930 . S
N482 Co462 2.194 . S
N482 C477 1.328 . S
N482 C481 1.315 . S
H483 C477 0.929 . S
H484 C481 0.930 . S
H485 C473 0.929 . S
H486 C475 0.929 . S
O487 Co462 2.351 . S
O487 C490 1.244 . S
O488 Co462 2.155 . S
O488 C490 1.240 . S
O489 Co462 2.096 . S
O489 C470 1.247 . S
C490 O487 1.244 . S
C490 O488 1.240 . S
H491 C465 0.931 . S
H492 C474 0.931 . S
H493 C478 0.929 . S
H494 C480 0.930 . S
Co495 N499 2.148 . S
Co495 N505 2.087 1_455 S
Co495 N515 2.194 . S
Co495 O520 2.351 . S
Co495 O521 2.155 . S
Co495 O522 2.096 . S
C496 N499 1.301 . S
C496 N500 1.328 . S
C496 H501 0.930 . S
C497 C498 1.333 . S
C497 N499 1.317 . S
C497 H502 0.930 . S
C498 C497 1.333 . S
C498 N500 1.350 . S
C498 H524 0.931 . S
N499 Co495 2.148 . S
N499 C496 1.301 . S
N499 C497 1.317 . S
N500 C496 1.328 . S
N500 C498 1.350 . S
H501 C496 0.930 . S
H502 C497 0.930 . S
C503 O504 1.224 . S
C503 O522 1.247 . S
O504 C503 1.224 . S
N505 Co495 2.087 1_655 S
N505 C506 1.383 . S
N505 C508 1.335 . S
C506 N505 1.383 . S
C506 C507 1.363 . S
C506 H518 0.929 . S
C507 C506 1.363 . S
C507 N509 1.375 . S
C507 H525 0.931 . S
C508 N505 1.335 . S
C508 N509 1.347 . S
C508 H519 0.929 . S
N509 C507 1.375 . S
N509 C508 1.347 . S
C510 C513 1.365 . S
C510 N515 1.328 . S
C510 H516 0.929 . S
C511 C512 1.362 . S
C511 C514 1.378 . S
C511 H526 0.929 1_455 S
C512 C511 1.362 . S
C512 C513 1.366 . S
C513 C510 1.365 . S
C513 C512 1.366 . S
C513 H527 0.930 . S
C514 C511 1.378 . S
C514 N515 1.315 . S
C514 H517 0.930 . S
N515 Co495 2.194 . S
N515 C510 1.328 . S
N515 C514 1.315 . S
H516 C510 0.929 . S
H517 C514 0.930 . S
H518 C506 0.929 . S
H519 C508 0.929 . S
O520 Co495 2.351 . S
O520 C523 1.244 . S
O521 Co495 2.155 . S
O521 C523 1.240 . S
O522 Co495 2.096 . S
O522 C503 1.247 . S
C523 O520 1.244 . S
C523 O521 1.240 . S
H524 C498 0.931 . S
H525 C507 0.931 . S
H526 C511 0.929 1_655 S
H527 C513 0.930 . S
H528 C546 0.951 . S
H529 C548 0.951 . S
H530 C550 0.950 . S
H531 C551 0.950 . S
H532 C553 0.950 . S
H533 C556 0.950 . S
H534 C557 0.950 . S
H535 C559 0.950 . S
H536 C560 0.950 . S
H537 C561 0.951 . S
H538 C563 0.951 . S
H539 C565 0.950 . S
H540 C566 0.950 . S
H541 C568 0.950 . S
H542 C571 0.950 . S
H543 C572 0.950 . S
H544 C574 0.950 . S
H545 C575 0.950 . S
C546 H528 0.951 . S
C546 C547 1.366 . S
C546 C548 1.388 . S
C547 C546 1.366 . S
C547 C551 1.385 . S
C548 H529 0.951 . S
C548 C546 1.388 . S
C548 C549 1.366 . S
C549 C548 1.366 . S
C549 C550 1.414 . S
C549 C552 1.499 . S
C550 H530 0.950 . S
C550 C549 1.414 . S
C550 C551 1.374 . S
C551 H531 0.950 . S
C551 C547 1.385 . S
C551 C550 1.374 . S
C552 C549 1.499 . S
C552 C553 1.373 . S
C552 C554 1.389 . S
C553 H532 0.950 . S
C553 C552 1.373 . S
C553 C569 1.377 . S
C554 C552 1.389 . S
C554 C555 1.524 . S
C554 C568 1.377 . S
C555 C554 1.524 . S
C555 C556 1.397 . S
C555 C560 1.363 . S
C556 H533 0.950 . S
C556 C555 1.397 . S
C556 C557 1.334 . S
C557 H534 0.950 . S
C557 C556 1.334 . S
C557 C558 1.287 . S
C558 C557 1.287 . S
C558 C559 1.524 . S
C558 H577 0.913 . S
C559 H535 0.950 . S
C559 C558 1.524 . S
C559 C560 1.415 . S
C560 H536 0.950 . S
C560 C555 1.363 . S
C560 C559 1.415 . S
C561 H537 0.951 . S
C561 C562 1.366 . S
C561 C563 1.388 . S
C562 C561 1.366 . S
C562 C566 1.385 . S
C563 H538 0.951 . S
C563 C561 1.388 . S
C563 C564 1.366 . S
C564 C563 1.366 . S
C564 C565 1.414 . S
C564 C567 1.499 . S
C565 H539 0.950 . S
C565 C564 1.414 . S
C565 C566 1.374 . S
C566 H540 0.950 . S
C566 C562 1.385 . S
C566 C565 1.374 . S
C567 C564 1.499 . S
C567 C568 1.373 . S
C567 C569 1.389 . S
C568 H541 0.950 . S
C568 C554 1.377 . S
C568 C567 1.373 . S
C569 C553 1.377 . S
C569 C567 1.389 . S
C569 C570 1.524 . S
C570 C569 1.524 . S
C570 C571 1.397 . S
C570 C575 1.363 . S
C571 H542 0.950 . S
C571 C570 1.397 . S
C571 C572 1.334 . S
C572 H543 0.950 . S
C572 C571 1.334 . S
C572 C573 1.287 . S
C573 C572 1.287 . S
C573 C574 1.524 . S
C573 H576 0.999 . S
C574 H544 0.950 . S
C574 C573 1.524 . S
C574 C575 1.415 . S
C575 H545 0.950 . S
C575 C570 1.363 . S
C575 C574 1.415 . S
H576 C573 0.999 . S
H577 C558 0.913 . S
H578 C596 0.951 . S
H579 C598 0.951 . S
H580 C600 0.950 . S
H581 C601 0.950 . S
H582 C603 0.950 . S
H583 C606 0.950 . S
H584 C607 0.950 . S
H585 C609 0.950 . S
H586 C610 0.950 . S
H587 C611 0.951 . S
H588 C613 0.951 . S
H589 C615 0.950 . S
H590 C616 0.950 . S
H591 C618 0.950 . S
H592 C621 0.950 . S
H593 C622 0.950 . S
H594 C624 0.950 . S
H595 C625 0.950 . S
C596 H578 0.951 . S
C596 C597 1.366 . S
C596 C598 1.388 . S
C597 C596 1.366 . S
C597 C601 1.385 . S
C598 H579 0.951 . S
C598 C596 1.388 . S
C598 C599 1.366 . S
C599 C598 1.366 . S
C599 C600 1.414 . S
C599 C602 1.499 . S
C600 H580 0.950 . S
C600 C599 1.414 . S
C600 C601 1.374 . S
C601 H581 0.950 . S
C601 C597 1.385 . S
C601 C600 1.374 . S
C602 C599 1.499 . S
C602 C603 1.373 . S
C602 C604 1.389 . S
C603 H582 0.950 . S
C603 C602 1.373 . S
C603 C619 1.377 . S
C604 C602 1.389 . S
C604 C605 1.524 . S
C604 C618 1.377 . S
C605 C604 1.524 . S
C605 C606 1.397 . S
C605 C610 1.363 . S
C606 H583 0.950 . S
C606 C605 1.397 . S
C606 C607 1.334 . S
C607 H584 0.950 . S
C607 C606 1.334 . S
C607 C608 1.287 . S
C608 C607 1.287 . S
C608 C609 1.524 . S
C608 H627 0.913 . S
C609 H585 0.950 . S
C609 C608 1.524 . S
C609 C610 1.415 . S
C610 H586 0.950 . S
C610 C605 1.363 . S
C610 C609 1.415 . S
C611 H587 0.951 . S
C611 C612 1.366 . S
C611 C613 1.388 . S
C612 C611 1.366 . S
C612 C616 1.385 . S
C613 H588 0.951 . S
C613 C611 1.388 . S
C613 C614 1.366 . S
C614 C613 1.366 . S
C614 C615 1.414 . S
C614 C617 1.499 . S
C615 H589 0.950 . S
C615 C614 1.414 . S
C615 C616 1.374 . S
C616 H590 0.950 . S
C616 C612 1.385 . S
C616 C615 1.374 . S
C617 C614 1.499 . S
C617 C618 1.373 . S
C617 C619 1.389 . S
C618 H591 0.950 . S
C618 C604 1.377 . S
C618 C617 1.373 . S
C619 C603 1.377 . S
C619 C617 1.389 . S
C619 C620 1.524 . S
C620 C619 1.524 . S
C620 C621 1.397 . S
C620 C625 1.363 . S
C621 H592 0.950 . S
C621 C620 1.397 . S
C621 C622 1.334 . S
C622 H593 0.950 . S
C622 C621 1.334 . S
C622 C623 1.287 . S
C623 C622 1.287 . S
C623 C624 1.524 . S
C623 H626 0.999 . S
C624 H594 0.950 . S
C624 C623 1.524 . S
C624 C625 1.415 . S
C625 H595 0.950 . S
C625 C620 1.363 . S
C625 C624 1.415 . S
H626 C623 0.999 . S
H627 C608 0.913 . S
H628 C646 0.951 . S
H629 C648 0.951 . S
H630 C650 0.950 . S
H631 C651 0.950 . S
H632 C653 0.950 . S
H633 C656 0.950 . S
H634 C657 0.950 . S
H635 C659 0.950 . S
H636 C660 0.950 . S
H637 C661 0.951 . S
H638 C663 0.951 . S
H639 C665 0.950 . S
H640 C666 0.950 . S
H641 C668 0.950 . S
H642 C671 0.950 . S
H643 C672 0.950 . S
H644 C674 0.950 . S
H645 C675 0.950 . S
C646 H628 0.951 . S
C646 C647 1.366 . S
C646 C648 1.388 . S
C647 C646 1.366 . S
C647 C651 1.385 . S
C648 H629 0.951 . S
C648 C646 1.388 . S
C648 C649 1.366 . S
C649 C648 1.366 . S
C649 C650 1.414 . S
C649 C652 1.499 . S
C650 H630 0.950 . S
C650 C649 1.414 . S
C650 C651 1.374 . S
C651 H631 0.950 . S
C651 C647 1.385 . S
C651 C650 1.374 . S
C652 C649 1.499 . S
C652 C653 1.373 . S
C652 C654 1.389 . S
C653 H632 0.950 . S
C653 C652 1.373 . S
C653 C669 1.377 . S
C654 C652 1.389 . S
C654 C655 1.524 . S
C654 C668 1.377 . S
C655 C654 1.524 . S
C655 C656 1.397 . S
C655 C660 1.363 . S
C656 H633 0.950 . S
C656 C655 1.397 . S
C656 C657 1.334 . S
C657 H634 0.950 . S
C657 C656 1.334 . S
C657 C658 1.287 . S
C658 C657 1.287 . S
C658 C659 1.524 . S
C658 H677 0.913 . S
C659 H635 0.950 . S
C659 C658 1.524 . S
C659 C660 1.415 . S
C660 H636 0.950 . S
C660 C655 1.363 . S
C660 C659 1.415 . S
C661 H637 0.951 . S
C661 C662 1.366 . S
C661 C663 1.388 . S
C662 C661 1.366 . S
C662 C666 1.385 . S
C663 H638 0.951 . S
C663 C661 1.388 . S
C663 C664 1.366 . S
C664 C663 1.366 . S
C664 C665 1.414 . S
C664 C667 1.499 . S
C665 H639 0.950 . S
C665 C664 1.414 . S
C665 C666 1.374 . S
C666 H640 0.950 . S
C666 C662 1.385 . S
C666 C665 1.374 . S
C667 C664 1.499 . S
C667 C668 1.373 . S
C667 C669 1.389 . S
C668 H641 0.950 . S
C668 C654 1.377 . S
C668 C667 1.373 . S
C669 C653 1.377 . S
C669 C667 1.389 . S
C669 C670 1.524 . S
C670 C669 1.524 . S
C670 C671 1.397 . S
C670 C675 1.363 . S
C671 H642 0.950 . S
C671 C670 1.397 . S
C671 C672 1.334 . S
C672 H643 0.950 . S
C672 C671 1.334 . S
C672 C673 1.287 . S
C673 C672 1.287 . S
C673 C674 1.524 . S
C673 H676 0.999 1_655 S
C674 H644 0.950 . S
C674 C673 1.524 . S
C674 C675 1.415 . S
C675 H645 0.950 . S
C675 C670 1.363 . S
C675 C674 1.415 . S
H676 C673 0.999 1_455 S
H677 C658 0.913 . S
H678 C696 0.951 . S
H679 C698 0.951 . S
H680 C700 0.950 . S
H681 C701 0.950 . S
H682 C703 0.950 . S
H683 C706 0.950 . S
H684 C707 0.950 . S
H685 C709 0.950 . S
H686 C710 0.950 . S
H687 C711 0.951 . S
H688 C713 0.951 . S
H689 C715 0.950 . S
H690 C716 0.950 . S
H691 C718 0.950 . S
H692 C721 0.950 . S
H693 C722 0.950 . S
H694 C724 0.950 . S
H695 C725 0.950 . S
C696 H678 0.951 . S
C696 C697 1.366 . S
C696 C698 1.388 . S
C697 C696 1.366 . S
C697 C701 1.385 . S
C698 H679 0.951 . S
C698 C696 1.388 . S
C698 C699 1.366 . S
C699 C698 1.366 . S
C699 C700 1.414 . S
C699 C702 1.499 . S
C700 H680 0.950 . S
C700 C699 1.414 . S
C700 C701 1.374 . S
C701 H681 0.950 . S
C701 C697 1.385 . S
C701 C700 1.374 . S
C702 C699 1.499 . S
C702 C703 1.373 . S
C702 C704 1.389 . S
C703 H682 0.950 . S
C703 C702 1.373 . S
C703 C719 1.377 . S
C704 C702 1.389 . S
C704 C705 1.524 . S
C704 C718 1.377 . S
C705 C704 1.524 . S
C705 C706 1.397 . S
C705 C710 1.363 . S
C706 H683 0.950 . S
C706 C705 1.397 . S
C706 C707 1.334 . S
C707 H684 0.950 . S
C707 C706 1.334 . S
C707 C708 1.287 . S
C708 C707 1.287 . S
C708 C709 1.524 . S
C708 H727 0.913 1_565 S
C709 H685 0.950 . S
C709 C708 1.524 . S
C709 C710 1.415 . S
C710 H686 0.950 . S
C710 C705 1.363 . S
C710 C709 1.415 . S
C711 H687 0.951 . S
C711 C712 1.366 . S
C711 C713 1.388 . S
C712 C711 1.366 . S
C712 C716 1.385 . S
C713 H688 0.951 . S
C713 C711 1.388 . S
C713 C714 1.366 . S
C714 C713 1.366 . S
C714 C715 1.414 . S
C714 C717 1.499 . S
C715 H689 0.950 . S
C715 C714 1.414 . S
C715 C716 1.374 . S
C716 H690 0.950 . S
C716 C712 1.385 . S
C716 C715 1.374 . S
C717 C714 1.499 . S
C717 C718 1.373 . S
C717 C719 1.389 . S
C718 H691 0.950 . S
C718 C704 1.377 . S
C718 C717 1.373 . S
C719 C703 1.377 . S
C719 C717 1.389 . S
C719 C720 1.524 . S
C720 C719 1.524 . S
C720 C721 1.397 . S
C720 C725 1.363 . S
C721 H692 0.950 . S
C721 C720 1.397 . S
C721 C722 1.334 . S
C722 H693 0.950 . S
C722 C721 1.334 . S
C722 C723 1.287 . S
C723 C722 1.287 . S
C723 C724 1.524 . S
C723 H726 0.999 . S
C724 H694 0.950 . S
C724 C723 1.524 . S
C724 C725 1.415 . S
C725 H695 0.950 . S
C725 C720 1.363 . S
C725 C724 1.415 . S
H726 C723 0.999 . S
H727 C708 0.913 1_545 S
H728 C746 0.951 . S
H729 C748 0.951 . S
H730 C750 0.950 . S
H731 C751 0.950 . S
H732 C753 0.950 . S
H733 C756 0.950 . S
H734 C757 0.950 . S
H735 C759 0.950 . S
H736 C760 0.950 . S
H737 C761 0.951 . S
H738 C763 0.951 . S
H739 C765 0.950 . S
H740 C766 0.950 . S
H741 C768 0.950 . S
H742 C771 0.950 . S
H743 C772 0.950 . S
H744 C774 0.950 . S
H745 C775 0.950 . S
C746 H728 0.951 . S
C746 C747 1.366 1_655 S
C746 C748 1.388 1_655 S
C747 C746 1.366 1_455 S
C747 C751 1.385 . S
C748 H729 0.951 . S
C748 C746 1.388 1_455 S
C748 C749 1.366 . S
C749 C748 1.366 . S
C749 C750 1.414 . S
C749 C752 1.499 . S
C750 H730 0.950 . S
C750 C749 1.414 . S
C750 C751 1.374 . S
C751 H731 0.950 . S
C751 C747 1.385 . S
C751 C750 1.374 . S
C752 C749 1.499 . S
C752 C753 1.373 . S
C752 C754 1.389 . S
C753 H732 0.950 . S
C753 C752 1.373 . S
C753 C769 1.377 . S
C754 C752 1.389 . S
C754 C755 1.524 . S
C754 C768 1.377 . S
C755 C754 1.524 . S
C755 C756 1.397 . S
C755 C760 1.363 . S
C756 H733 0.950 . S
C756 C755 1.397 . S
C756 C757 1.334 . S
C757 H734 0.950 . S
C757 C756 1.334 . S
C757 C758 1.287 . S
C758 C757 1.287 . S
C758 C759 1.524 . S
C758 H777 0.913 . S
C759 H735 0.950 . S
C759 C758 1.524 . S
C759 C760 1.415 . S
C760 H736 0.950 . S
C760 C755 1.363 . S
C760 C759 1.415 . S
C761 H737 0.951 . S
C761 C762 1.366 . S
C761 C763 1.388 . S
C762 C761 1.366 . S
C762 C766 1.385 . S
C763 H738 0.951 . S
C763 C761 1.388 . S
C763 C764 1.366 . S
C764 C763 1.366 . S
C764 C765 1.414 . S
C764 C767 1.499 . S
C765 H739 0.950 . S
C765 C764 1.414 . S
C765 C766 1.374 . S
C766 H740 0.950 . S
C766 C762 1.385 . S
C766 C765 1.374 . S
C767 C764 1.499 . S
C767 C768 1.373 . S
C767 C769 1.389 . S
C768 H741 0.950 . S
C768 C754 1.377 . S
C768 C767 1.373 . S
C769 C753 1.377 . S
C769 C767 1.389 . S
C769 C770 1.524 . S
C770 C769 1.524 . S
C770 C771 1.397 . S
C770 C775 1.363 . S
C771 H742 0.950 . S
C771 C770 1.397 . S
C771 C772 1.334 . S
C772 H743 0.950 . S
C772 C771 1.334 . S
C772 C773 1.287 . S
C773 C772 1.287 . S
C773 C774 1.524 . S
C773 H776 0.999 . S
C774 H744 0.950 . S
C774 C773 1.524 . S
C774 C775 1.415 . S
C775 H745 0.950 . S
C775 C770 1.363 . S
C775 C774 1.415 . S
H776 C773 0.999 . S
H777 C758 0.913 . S
H778 C796 0.951 . S
H779 C798 0.951 . S
H780 C800 0.950 1_565 S
H781 C801 0.950 . S
H782 C803 0.950 . S
H783 C806 0.950 . S
H784 C807 0.950 . S
H785 C809 0.950 . S
H786 C810 0.950 . S
H787 C811 0.951 . S
H788 C813 0.951 . S
H789 C815 0.950 . S
H790 C816 0.950 . S
H791 C818 0.950 . S
H792 C821 0.950 . S
H793 C822 0.950 . S
H794 C824 0.950 . S
H795 C825 0.952 1_565 S
C796 H778 0.951 . S
C796 C797 1.366 . S
C796 C798 1.388 . S
C797 C796 1.366 . S
C797 C801 1.385 1_545 S
C798 H779 0.951 . S
C798 C796 1.388 . S
C798 C799 1.366 . S
C799 C798 1.366 . S
C799 C800 1.414 . S
C799 C802 1.499 . S
C800 H780 0.950 1_545 S
C800 C799 1.414 . S
C800 C801 1.374 1_545 S
C801 H781 0.950 . S
C801 C797 1.385 1_565 S
C801 C800 1.374 1_565 S
C802 C799 1.499 . S
C802 C803 1.373 . S
C802 C804 1.389 . S
C803 H782 0.950 . S
C803 C802 1.373 . S
C803 C819 1.377 . S
C804 C802 1.389 . S
C804 C805 1.524 . S
C804 C818 1.377 . S
C805 C804 1.524 . S
C805 C806 1.397 . S
C805 C810 1.363 . S
C806 H783 0.950 . S
C806 C805 1.397 . S
C806 C807 1.334 . S
C807 H784 0.950 . S
C807 C806 1.334 . S
C807 C808 1.287 . S
C808 C807 1.287 . S
C808 C809 1.524 . S
C808 H827 0.913 . S
C809 H785 0.950 . S
C809 C808 1.524 . S
C809 C810 1.415 . S
C810 H786 0.950 . S
C810 C805 1.363 . S
C810 C809 1.415 . S
C811 H787 0.951 . S
C811 C812 1.366 . S
C811 C813 1.388 . S
C812 C811 1.366 . S
C812 C816 1.385 . S
C813 H788 0.951 . S
C813 C811 1.388 . S
C813 C814 1.366 . S
C814 C813 1.366 . S
C814 C815 1.414 . S
C814 C817 1.499 . S
C815 H789 0.950 . S
C815 C814 1.414 . S
C815 C816 1.374 . S
C816 H790 0.950 . S
C816 C812 1.385 . S
C816 C815 1.374 . S
C817 C814 1.499 . S
C817 C818 1.373 . S
C817 C819 1.389 . S
C818 H791 0.950 . S
C818 C804 1.377 . S
C818 C817 1.373 . S
C819 C803 1.377 . S
C819 C817 1.389 . S
C819 C820 1.524 . S
C820 C819 1.524 . S
C820 C821 1.397 . S
C820 C825 1.359 . S
C821 H792 0.950 . S
C821 C820 1.397 . S
C821 C822 1.334 . S
C822 H793 0.950 . S
C822 C821 1.334 . S
C822 C823 1.260 1_545 S
C823 C822 1.260 1_565 S
C823 C824 1.538 . S
C823 H826 1.015 . S
C824 H794 0.950 . S
C824 C823 1.538 . S
C824 C825 1.417 1_565 S
C825 H795 0.952 1_545 S
C825 C820 1.359 . S
C825 C824 1.417 1_545 S
H826 C823 1.015 . S
H827 C808 0.913 . S
H828 C846 0.951 . S
H829 C848 0.951 . S
H830 C850 0.950 . S
H831 C851 0.950 . S
H832 C853 0.950 . S
H833 C856 0.950 . S
H834 C857 0.950 . S
H835 C859 0.950 . S
H836 C860 0.950 . S
H837 C861 0.951 . S
H838 C863 0.951 . S
H839 C865 0.950 . S
H840 C866 0.950 . S
H841 C868 0.950 . S
H842 C871 0.950 . S
H843 C872 0.950 . S
H844 C874 0.950 . S
H845 C875 0.950 . S
C846 H828 0.951 . S
C846 C847 1.366 . S
C846 C848 1.388 . S
C847 C846 1.366 . S
C847 C851 1.385 . S
C848 H829 0.951 . S
C848 C846 1.388 . S
C848 C849 1.366 . S
C849 C848 1.366 . S
C849 C850 1.414 . S
C849 C852 1.499 . S
C850 H830 0.950 . S
C850 C849 1.414 . S
C850 C851 1.374 . S
C851 H831 0.950 . S
C851 C847 1.385 . S
C851 C850 1.374 . S
C852 C849 1.499 . S
C852 C853 1.373 . S
C852 C854 1.389 . S
C853 H832 0.950 . S
C853 C852 1.373 . S
C853 C869 1.377 . S
C854 C852 1.389 . S
C854 C855 1.524 . S
C854 C868 1.377 . S
C855 C854 1.524 . S
C855 C856 1.397 . S
C855 C860 1.363 . S
C856 H833 0.950 . S
C856 C855 1.397 . S
C856 C857 1.334 . S
C857 H834 0.950 . S
C857 C856 1.334 . S
C857 C858 1.287 . S
C858 C857 1.287 . S
C858 C859 1.524 . S
C858 H877 0.913 . S
C859 H835 0.950 . S
C859 C858 1.524 . S
C859 C860 1.415 . S
C860 H836 0.950 . S
C860 C855 1.363 . S
C860 C859 1.415 . S
C861 H837 0.951 . S
C861 C862 1.366 . S
C861 C863 1.388 . S
C862 C861 1.366 . S
C862 C866 1.385 . S
C863 H838 0.951 . S
C863 C861 1.388 . S
C863 C864 1.366 . S
C864 C863 1.366 . S
C864 C865 1.414 . S
C864 C867 1.499 . S
C865 H839 0.950 . S
C865 C864 1.414 . S
C865 C866 1.374 . S
C866 H840 0.950 . S
C866 C862 1.385 . S
C866 C865 1.374 . S
C867 C864 1.499 . S
C867 C868 1.373 . S
C867 C869 1.389 . S
C868 H841 0.950 . S
C868 C854 1.377 . S
C868 C867 1.373 . S
C869 C853 1.377 . S
C869 C867 1.389 . S
C869 C870 1.524 . S
C870 C869 1.524 . S
C870 C871 1.397 . S
C870 C875 1.363 . S
C871 H842 0.950 . S
C871 C870 1.397 . S
C871 C872 1.334 . S
C872 H843 0.950 . S
C872 C871 1.334 . S
C872 C873 1.287 . S
C873 C872 1.287 . S
C873 C874 1.524 . S
C873 H876 0.999 . S
C874 H844 0.950 . S
C874 C873 1.524 . S
C874 C875 1.415 . S
C875 H845 0.950 . S
C875 C870 1.363 . S
C875 C874 1.415 . S
H876 C873 0.999 . S
H877 C858 0.913 . S
H878 C896 0.951 . S
H879 C898 0.951 . S
H880 C900 0.950 . S
H881 C901 0.950 . S
H882 C903 0.950 . S
H883 C906 0.950 . S
H884 C907 0.950 . S
H885 C909 0.950 . S
H886 C910 0.950 . S
H887 C911 0.951 . S
H888 C913 0.951 . S
H889 C915 0.950 . S
H890 C916 0.950 . S
H891 C918 0.950 . S
H892 C921 0.950 . S
H893 C922 0.950 . S
H894 C924 0.950 . S
H895 C925 0.950 . S
C896 H878 0.951 . S
C896 C897 1.366 . S
C896 C898 1.388 . S
C897 C896 1.366 . S
C897 C901 1.385 . S
C898 H879 0.951 . S
C898 C896 1.388 . S
C898 C899 1.366 . S
C899 C898 1.366 . S
C899 C900 1.414 . S
C899 C902 1.499 . S
C900 H880 0.950 . S
C900 C899 1.414 . S
C900 C901 1.374 . S
C901 H881 0.950 . S
C901 C897 1.385 . S
C901 C900 1.374 . S
C902 C899 1.499 . S
C902 C903 1.373 . S
C902 C904 1.389 . S
C903 H882 0.950 . S
C903 C902 1.373 . S
C903 C919 1.377 . S
C904 C902 1.389 . S
C904 C905 1.524 . S
C904 C918 1.377 . S
C905 C904 1.524 . S
C905 C906 1.397 . S
C905 C910 1.363 . S
C906 H883 0.950 . S
C906 C905 1.397 . S
C906 C907 1.334 . S
C907 H884 0.950 . S
C907 C906 1.334 . S
C907 C908 1.287 . S
C908 C907 1.287 . S
C908 C909 1.524 . S
C908 H927 0.913 . S
C909 H885 0.950 . S
C909 C908 1.524 . S
C909 C910 1.415 . S
C910 H886 0.950 . S
C910 C905 1.363 . S
C910 C909 1.415 . S
C911 H887 0.951 . S
C911 C912 1.366 . S
C911 C913 1.388 . S
C912 C911 1.366 . S
C912 C916 1.385 . S
C913 H888 0.951 . S
C913 C911 1.388 . S
C913 C914 1.366 . S
C914 C913 1.366 . S
C914 C915 1.414 . S
C914 C917 1.499 . S
C915 H889 0.950 . S
C915 C914 1.414 . S
C915 C916 1.374 . S
C916 H890 0.950 . S
C916 C912 1.385 . S
C916 C915 1.374 . S
C917 C914 1.499 . S
C917 C918 1.373 . S
C917 C919 1.389 . S
C918 H891 0.950 . S
C918 C904 1.377 . S
C918 C917 1.373 . S
C919 C903 1.377 . S
C919 C917 1.389 . S
C919 C920 1.524 . S
C920 C919 1.524 . S
C920 C921 1.397 . S
C920 C925 1.363 . S
C921 H892 0.950 . S
C921 C920 1.397 . S
C921 C922 1.334 . S
C922 H893 0.950 . S
C922 C921 1.334 . S
C922 C923 1.287 . S
C923 C922 1.287 . S
C923 C924 1.524 . S
C923 H926 0.999 . S
C924 H894 0.950 . S
C924 C923 1.524 . S
C924 C925 1.415 . S
C925 H895 0.950 . S
C925 C920 1.363 . S
C925 C924 1.415 . S
H926 C923 0.999 . S
H927 C908 0.913 . S
H928 C946 0.951 . S
H929 C948 0.951 . S
H930 C950 0.950 . S
H931 C951 0.950 . S
H932 C953 0.950 . S
H933 C956 0.950 . S
H934 C957 0.950 . S
H935 C959 0.950 . S
H936 C960 0.950 . S
H937 C961 0.951 . S
H938 C963 0.951 . S
H939 C965 0.950 . S
H940 C966 0.950 . S
H941 C968 0.950 . S
H942 C971 0.950 . S
H943 C972 0.950 . S
H944 C974 0.950 . S
H945 C975 0.950 . S
C946 H928 0.951 . S
C946 C947 1.366 . S
C946 C948 1.388 . S
C947 C946 1.366 . S
C947 C951 1.385 . S
C948 H929 0.951 . S
C948 C946 1.388 . S
C948 C949 1.366 . S
C949 C948 1.366 . S
C949 C950 1.414 . S
C949 C952 1.499 . S
C950 H930 0.950 . S
C950 C949 1.414 . S
C950 C951 1.374 . S
C951 H931 0.950 . S
C951 C947 1.385 . S
C951 C950 1.374 . S
C952 C949 1.499 . S
C952 C953 1.373 . S
C952 C954 1.389 . S
C953 H932 0.950 . S
C953 C952 1.373 . S
C953 C969 1.377 . S
C954 C952 1.389 . S
C954 C955 1.524 . S
C954 C968 1.377 . S
C955 C954 1.524 . S
C955 C956 1.397 . S
C955 C960 1.363 . S
C956 H933 0.950 . S
C956 C955 1.397 . S
C956 C957 1.334 . S
C957 H934 0.950 . S
C957 C956 1.334 . S
C957 C958 1.287 . S
C958 C957 1.287 . S
C958 C959 1.524 . S
C958 H977 0.913 . S
C959 H935 0.950 . S
C959 C958 1.524 . S
C959 C960 1.415 . S
C960 H936 0.950 . S
C960 C955 1.363 . S
C960 C959 1.415 . S
C961 H937 0.951 . S
C961 C962 1.366 . S
C961 C963 1.388 . S
C962 C961 1.366 . S
C962 C966 1.385 . S
C963 H938 0.951 . S
C963 C961 1.388 . S
C963 C964 1.366 . S
C964 C963 1.366 . S
C964 C965 1.414 . S
C964 C967 1.499 . S
C965 H939 0.950 . S
C965 C964 1.414 . S
C965 C966 1.374 . S
C966 H940 0.950 . S
C966 C962 1.385 . S
C966 C965 1.374 . S
C967 C964 1.499 . S
C967 C968 1.373 . S
C967 C969 1.389 . S
C968 H941 0.950 . S
C968 C954 1.377 . S
C968 C967 1.373 . S
C969 C953 1.377 . S
C969 C967 1.389 . S
C969 C970 1.524 . S
C970 C969 1.524 . S
C970 C971 1.397 . S
C970 C975 1.363 . S
C971 H942 0.950 . S
C971 C970 1.397 . S
C971 C972 1.334 . S
C972 H943 0.950 . S
C972 C971 1.334 . S
C972 C973 1.287 . S
C973 C972 1.287 . S
C973 C974 1.524 . S
C973 H976 0.999 . S
C974 H944 0.950 . S
C974 C973 1.524 . S
C974 C975 1.415 . S
C975 H945 0.950 . S
C975 C970 1.363 . S
C975 C974 1.415 . S
H976 C973 0.999 . S
H977 C958 0.913 . S
H978 C996 0.951 . S
H979 C998 0.951 . S
H980 C1000 0.950 . S
H981 C1001 0.950 . S
H982 C1003 0.950 . S
H983 C1006 0.950 . S
H984 C1007 0.950 . S
H985 C1009 0.950 . S
H986 C1010 0.950 . S
H987 C1011 0.951 . S
H988 C1013 0.951 . S
H989 C1015 0.950 . S
H990 C1016 0.950 . S
H991 C1018 0.950 . S
H992 C1021 0.950 . S
H993 C1022 0.950 . S
H994 C1024 0.950 . S
H995 C1025 0.950 . S
C996 H978 0.951 . S
C996 C997 1.366 . S
C996 C998 1.388 . S
C997 C996 1.366 . S
C997 C1001 1.385 . S
C998 H979 0.951 . S
C998 C996 1.388 . S
C998 C999 1.366 . S
C999 C998 1.366 . S
C999 C1000 1.414 . S
C999 C1002 1.499 . S
C1000 H980 0.950 . S
C1000 C999 1.414 . S
C1000 C1001 1.374 . S
C1001 H981 0.950 . S
C1001 C997 1.385 . S
C1001 C1000 1.374 . S
C1002 C999 1.499 . S
C1002 C1003 1.373 . S
C1002 C1004 1.389 . S
C1003 H982 0.950 . S
C1003 C1002 1.373 . S
C1003 C1019 1.377 . S
C1004 C1002 1.389 . S
C1004 C1005 1.524 . S
C1004 C1018 1.377 . S
C1005 C1004 1.524 . S
C1005 C1006 1.397 . S
C1005 C1010 1.363 . S
C1006 H983 0.950 . S
C1006 C1005 1.397 . S
C1006 C1007 1.334 . S
C1007 H984 0.950 . S
C1007 C1006 1.334 . S
C1007 C1008 1.287 . S
C1008 C1007 1.287 . S
C1008 C1009 1.524 . S
C1008 H1027 0.913 . S
C1009 H985 0.950 . S
C1009 C1008 1.524 . S
C1009 C1010 1.415 . S
C1010 H986 0.950 . S
C1010 C1005 1.363 . S
C1010 C1009 1.415 . S
C1011 H987 0.951 . S
C1011 C1012 1.366 . S
C1011 C1013 1.388 . S
C1012 C1011 1.366 . S
C1012 C1016 1.385 . S
C1013 H988 0.951 . S
C1013 C1011 1.388 . S
C1013 C1014 1.366 . S
C1014 C1013 1.366 . S
C1014 C1015 1.414 . S
C1014 C1017 1.499 . S
C1015 H989 0.950 . S
C1015 C1014 1.414 . S
C1015 C1016 1.374 . S
C1016 H990 0.950 . S
C1016 C1012 1.385 . S
C1016 C1015 1.374 . S
C1017 C1014 1.499 . S
C1017 C1018 1.373 . S
C1017 C1019 1.389 . S
C1018 H991 0.950 . S
C1018 C1004 1.377 . S
C1018 C1017 1.373 . S
C1019 C1003 1.377 . S
C1019 C1017 1.389 . S
C1019 C1020 1.524 . S
C1020 C1019 1.524 . S
C1020 C1021 1.397 . S
C1020 C1025 1.363 . S
C1021 H992 0.950 . S
C1021 C1020 1.397 . S
C1021 C1022 1.334 . S
C1022 H993 0.950 . S
C1022 C1021 1.334 . S
C1022 C1023 1.287 . S
C1023 C1022 1.287 . S
C1023 C1024 1.524 . S
C1023 H1026 0.999 . S
C1024 H994 0.950 . S
C1024 C1023 1.524 . S
C1024 C1025 1.415 . S
C1025 H995 0.950 . S
C1025 C1020 1.363 . S
C1025 C1024 1.415 . S
H1026 C1023 0.999 . S
H1027 C1008 0.913 . S
H1028 C1046 0.951 . S
H1029 C1048 0.951 . S
H1030 C1050 0.950 1_655 S
H1031 C1051 0.950 . S
H1032 C1053 0.950 . S
H1033 C1056 0.950 . S
H1034 C1057 0.950 . S
H1035 C1059 0.950 . S
H1036 C1060 0.950 . S
H1037 C1061 0.951 . S
H1038 C1063 0.951 . S
H1039 C1065 0.950 . S
H1040 C1066 0.950 . S
H1041 C1068 0.950 . S
H1042 C1071 0.950 . S
H1043 C1072 0.950 . S
H1044 C1074 0.950 . S
H1045 C1075 0.936 1_655 S
C1046 H1028 0.951 . S
C1046 C1047 1.366 . S
C1046 C1048 1.388 . S
C1047 C1046 1.366 . S
C1047 C1051 1.385 1_455 S
C1048 H1029 0.951 . S
C1048 C1046 1.388 . S
C1048 C1049 1.366 . S
C1049 C1048 1.366 . S
C1049 C1050 1.414 . S
C1049 C1052 1.499 . S
C1050 H1030 0.950 1_455 S
C1050 C1049 1.414 . S
C1050 C1051 1.374 1_455 S
C1051 H1031 0.950 . S
C1051 C1047 1.385 1_655 S
C1051 C1050 1.374 1_655 S
C1052 C1049 1.499 . S
C1052 C1053 1.373 . S
C1052 C1054 1.389 . S
C1053 H1032 0.950 . S
C1053 C1052 1.373 . S
C1053 C1069 1.377 . S
C1054 C1052 1.389 . S
C1054 C1055 1.524 . S
C1054 C1068 1.377 . S
C1055 C1054 1.524 . S
C1055 C1056 1.397 . S
C1055 C1060 1.363 . S
C1056 H1033 0.950 . S
C1056 C1055 1.397 . S
C1056 C1057 1.334 . S
C1057 H1034 0.950 . S
C1057 C1056 1.334 . S
C1057 C1058 1.287 . S
C1058 C1057 1.287 . S
C1058 C1059 1.524 . S
C1058 H1077 0.913 . S
C1059 H1035 0.950 . S
C1059 C1058 1.524 . S
C1059 C1060 1.415 . S
C1060 H1036 0.950 . S
C1060 C1055 1.363 . S
C1060 C1059 1.415 . S
C1061 H1037 0.951 . S
C1061 C1062 1.366 . S
C1061 C1063 1.388 . S
C1062 C1061 1.366 . S
C1062 C1066 1.385 . S
C1063 H1038 0.951 . S
C1063 C1061 1.388 . S
C1063 C1064 1.366 . S
C1064 C1063 1.366 . S
C1064 C1065 1.414 . S
C1064 C1067 1.499 . S
C1065 H1039 0.950 . S
C1065 C1064 1.414 . S
C1065 C1066 1.374 . S
C1066 H1040 0.950 . S
C1066 C1062 1.385 . S
C1066 C1065 1.374 . S
C1067 C1064 1.499 . S
C1067 C1068 1.373 . S
C1067 C1069 1.389 . S
C1068 H1041 0.950 . S
C1068 C1054 1.377 . S
C1068 C1067 1.373 . S
C1069 C1053 1.377 . S
C1069 C1067 1.389 . S
C1069 C1070 1.524 . S
C1070 C1069 1.524 . S
C1070 C1071 1.397 . S
C1070 C1075 1.397 . S
C1071 H1042 0.950 . S
C1071 C1070 1.397 . S
C1071 C1072 1.334 . S
C1072 H1043 0.950 . S
C1072 C1071 1.334 . S
C1072 C1073 1.287 . S
C1073 C1072 1.287 . S
C1073 C1074 1.524 1_455 S
C1073 H1076 0.999 1_455 S
C1074 H1044 0.950 . S
C1074 C1073 1.524 1_655 S
C1074 C1075 1.396 1_655 S
C1075 H1045 0.936 1_455 S
C1075 C1070 1.397 . S
C1075 C1074 1.396 1_455 S
H1076 C1073 0.999 1_655 S
H1077 C1058 0.913 . S
H1078 C1096 0.951 . S
H1079 C1098 0.951 . S
H1080 C1100 0.949 . S
H1081 C1101 0.950 . S
H1082 C1103 0.950 . S
H1083 C1106 0.950 . S
H1084 C1107 0.950 . S
H1085 C1109 0.950 . S
H1086 C1110 0.950 . S
H1087 C1111 0.951 . S
H1088 C1113 0.951 . S
H1089 C1115 0.950 . S
H1090 C1116 0.950 . S
H1091 C1118 0.950 . S
H1092 C1121 0.950 . S
H1093 C1122 0.950 . S
H1094 C1124 0.950 . S
H1095 C1125 0.950 . S
C1096 H1078 0.951 . S
C1096 C1097 1.366 . S
C1096 C1098 1.388 . S
C1097 C1096 1.366 . S
C1097 C1101 1.385 1_545 S
C1098 H1079 0.951 . S
C1098 C1096 1.388 . S
C1098 C1099 1.366 . S
C1099 C1098 1.366 . S
C1099 C1100 1.414 . S
C1099 C1102 1.499 . S
C1100 H1080 0.949 . S
C1100 C1099 1.414 . S
C1100 C1101 1.374 1_545 S
C1101 H1081 0.950 . S
C1101 C1097 1.385 1_565 S
C1101 C1100 1.374 1_565 S
C1102 C1099 1.499 . S
C1102 C1103 1.373 . S
C1102 C1104 1.389 . S
C1103 H1082 0.950 . S
C1103 C1102 1.373 . S
C1103 C1119 1.377 . S
C1104 C1102 1.389 . S
C1104 C1105 1.524 . S
C1104 C1118 1.377 . S
C1105 C1104 1.524 . S
C1105 C1106 1.397 . S
C1105 C1110 1.363 . S
C1106 H1083 0.950 . S
C1106 C1105 1.397 . S
C1106 C1107 1.334 . S
C1107 H1084 0.950 . S
C1107 C1106 1.334 . S
C1107 C1108 1.287 . S
C1108 C1107 1.287 . S
C1108 C1109 1.524 . S
C1108 H1127 0.913 . S
C1109 H1085 0.950 . S
C1109 C1108 1.524 . S
C1109 C1110 1.415 . S
C1110 H1086 0.950 . S
C1110 C1105 1.363 . S
C1110 C1109 1.415 . S
C1111 H1087 0.951 . S
C1111 C1112 1.366 . S
C1111 C1113 1.388 . S
C1112 C1111 1.366 . S
C1112 C1116 1.385 . S
C1113 H1088 0.951 . S
C1113 C1111 1.388 . S
C1113 C1114 1.366 . S
C1114 C1113 1.366 . S
C1114 C1115 1.414 . S
C1114 C1117 1.499 . S
C1115 H1089 0.950 . S
C1115 C1114 1.414 . S
C1115 C1116 1.374 . S
C1116 H1090 0.950 . S
C1116 C1112 1.385 . S
C1116 C1115 1.374 . S
C1117 C1114 1.499 . S
C1117 C1118 1.373 . S
C1117 C1119 1.389 . S
C1118 H1091 0.950 . S
C1118 C1104 1.377 . S
C1118 C1117 1.373 . S
C1119 C1103 1.377 . S
C1119 C1117 1.389 . S
C1119 C1120 1.524 . S
C1120 C1119 1.524 . S
C1120 C1121 1.397 . S
C1120 C1125 1.363 1_545 S
C1121 H1092 0.950 . S
C1121 C1120 1.397 . S
C1121 C1122 1.334 . S
C1122 H1093 0.950 . S
C1122 C1121 1.334 . S
C1122 C1123 1.287 1_545 S
C1123 C1122 1.287 1_565 S
C1123 C1124 1.524 . S
C1123 H1126 0.999 . S
C1124 H1094 0.950 . S
C1124 C1123 1.524 . S
C1124 C1125 1.415 . S
C1125 H1095 0.950 . S
C1125 C1120 1.363 1_565 S
C1125 C1124 1.415 . S
H1126 C1123 0.999 . S
H1127 C1108 0.913 . S
H1128 C1146 0.951 . S
H1129 C1148 0.951 1_455 S
H1130 C1150 0.950 . S
H1131 C1151 0.950 . S
H1132 C1153 0.950 . S
H1133 C1156 0.950 . S
H1134 C1157 0.950 . S
H1135 C1159 0.950 . S
H1136 C1160 0.950 . S
H1137 C1161 0.951 . S
H1138 C1163 0.951 . S
H1139 C1165 0.950 . S
H1140 C1166 0.950 . S
H1141 C1168 0.950 . S
H1142 C1171 0.950 . S
H1143 C1172 0.950 . S
H1144 C1174 0.950 . S
H1145 C1175 0.950 . S
C1146 H1128 0.951 . S
C1146 C1147 1.366 1_455 S
C1146 C1148 1.388 1_455 S
C1147 C1146 1.366 1_655 S
C1147 C1151 1.385 . S
C1148 H1129 0.951 1_655 S
C1148 C1146 1.388 1_655 S
C1148 C1149 1.366 . S
C1149 C1148 1.366 . S
C1149 C1150 1.414 . S
C1149 C1152 1.499 . S
C1150 H1130 0.950 . S
C1150 C1149 1.414 . S
C1150 C1151 1.374 . S
C1151 H1131 0.950 . S
C1151 C1147 1.385 . S
C1151 C1150 1.374 . S
C1152 C1149 1.499 . S
C1152 C1153 1.373 . S
C1152 C1154 1.389 . S
C1153 H1132 0.950 . S
C1153 C1152 1.373 . S
C1153 C1169 1.377 . S
C1154 C1152 1.389 . S
C1154 C1155 1.524 . S
C1154 C1168 1.377 . S
C1155 C1154 1.524 . S
C1155 C1156 1.397 . S
C1155 C1160 1.363 1_655 S
C1156 H1133 0.950 . S
C1156 C1155 1.397 . S
C1156 C1157 1.334 . S
C1157 H1134 0.950 . S
C1157 C1156 1.334 . S
C1157 C1158 1.287 1_655 S
C1158 C1157 1.287 1_455 S
C1158 C1159 1.524 . S
C1158 H1177 0.913 . S
C1159 H1135 0.950 . S
C1159 C1158 1.524 . S
C1159 C1160 1.415 . S
C1160 H1136 0.950 . S
C1160 C1155 1.363 1_455 S
C1160 C1159 1.415 . S
C1161 H1137 0.951 . S
C1161 C1162 1.366 . S
C1161 C1163 1.388 . S
C1162 C1161 1.366 . S
C1162 C1166 1.385 . S
C1163 H1138 0.951 . S
C1163 C1161 1.388 . S
C1163 C1164 1.366 . S
C1164 C1163 1.366 . S
C1164 C1165 1.414 . S
C1164 C1167 1.499 . S
C1165 H1139 0.950 . S
C1165 C1164 1.414 . S
C1165 C1166 1.374 . S
C1166 H1140 0.950 . S
C1166 C1162 1.385 . S
C1166 C1165 1.374 . S
C1167 C1164 1.499 . S
C1167 C1168 1.373 . S
C1167 C1169 1.389 . S
C1168 H1141 0.950 . S
C1168 C1154 1.377 . S
C1168 C1167 1.373 . S
C1169 C1153 1.377 . S
C1169 C1167 1.389 . S
C1169 C1170 1.524 . S
C1170 C1169 1.524 . S
C1170 C1171 1.397 . S
C1170 C1175 1.363 . S
C1171 H1142 0.950 . S
C1171 C1170 1.397 . S
C1171 C1172 1.334 . S
C1172 H1143 0.950 . S
C1172 C1171 1.334 . S
C1172 C1173 1.287 . S
C1173 C1172 1.287 . S
C1173 C1174 1.524 . S
C1173 H1176 0.999 . S
C1174 H1144 0.950 . S
C1174 C1173 1.524 . S
C1174 C1175 1.415 . S
C1175 H1145 0.950 . S
C1175 C1170 1.363 . S
C1175 C1174 1.415 . S
H1176 C1173 0.999 . S
H1177 C1158 0.913 . S
H1178 C1196 0.951 1_545 S
H1179 C1198 0.951 . S
H1180 C1200 0.950 . S
H1181 C1201 0.950 . S
H1182 C1203 0.950 . S
H1183 C1206 0.950 . S
H1184 C1207 0.950 . S
H1185 C1209 0.950 . S
H1186 C1210 0.950 1_565 S
H1187 C1211 0.951 . S
H1188 C1213 0.951 . S
H1189 C1215 0.950 . S
H1190 C1216 0.950 . S
H1191 C1218 0.950 . S
H1192 C1221 0.950 . S
H1193 C1222 0.950 . S
H1194 C1224 0.950 . S
H1195 C1225 0.950 . S
C1196 H1178 0.951 1_565 S
C1196 C1197 1.366 . S
C1196 C1198 1.388 . S
C1197 C1196 1.366 . S
C1197 C1201 1.385 . S
C1198 H1179 0.951 . S
C1198 C1196 1.388 . S
C1198 C1199 1.366 . S
C1199 C1198 1.366 . S
C1199 C1200 1.414 . S
C1199 C1202 1.499 . S
C1200 H1180 0.950 . S
C1200 C1199 1.414 . S
C1200 C1201 1.374 . S
C1201 H1181 0.950 . S
C1201 C1197 1.385 . S
C1201 C1200 1.374 . S
C1202 C1199 1.499 . S
C1202 C1203 1.373 . S
C1202 C1204 1.389 . S
C1203 H1182 0.950 . S
C1203 C1202 1.373 . S
C1203 C1219 1.377 . S
C1204 C1202 1.389 . S
C1204 C1205 1.484 1_565 S
C1204 C1218 1.377 . S
C1205 C1204 1.484 1_545 S
C1205 C1206 1.422 . S
C1205 C1210 1.378 . S
C1206 H1183 0.950 . S
C1206 C1205 1.422 . S
C1206 C1207 1.334 . S
C1207 H1184 0.950 . S
C1207 C1206 1.334 . S
C1207 C1208 1.287 . S
C1208 C1207 1.287 . S
C1208 C1209 1.524 . S
C1208 H1227 0.913 . S
C1209 H1185 0.950 . S
C1209 C1208 1.524 . S
C1209 C1210 1.415 . S
C1210 H1186 0.950 1_545 S
C1210 C1205 1.378 . S
C1210 C1209 1.415 . S
C1211 H1187 0.951 . S
C1211 C1212 1.366 . S
C1211 C1213 1.388 . S
C1212 C1211 1.366 . S
C1212 C1216 1.385 . S
C1213 H1188 0.951 . S
C1213 C1211 1.388 . S
C1213 C1214 1.366 . S
C1214 C1213 1.366 . S
C1214 C1215 1.414 . S
C1214 C1217 1.499 . S
C1215 H1189 0.950 . S
C1215 C1214 1.414 . S
C1215 C1216 1.374 . S
C1216 H1190 0.950 . S
C1216 C1212 1.385 . S
C1216 C1215 1.374 . S
C1217 C1214 1.499 . S
C1217 C1218 1.373 . S
C1217 C1219 1.389 . S
C1218 H1191 0.950 . S
C1218 C1204 1.377 . S
C1218 C1217 1.373 . S
C1219 C1203 1.377 . S
C1219 C1217 1.389 . S
C1219 C1220 1.524 . S
C1220 C1219 1.524 . S
C1220 C1221 1.397 . S
C1220 C1225 1.363 . S
C1221 H1192 0.950 . S
C1221 C1220 1.397 . S
C1221 C1222 1.334 . S
C1222 H1193 0.950 . S
C1222 C1221 1.334 . S
C1222 C1223 1.287 . S
C1223 C1222 1.287 . S
C1223 C1224 1.524 . S
C1223 H1226 0.999 . S
C1224 H1194 0.950 . S
C1224 C1223 1.524 . S
C1224 C1225 1.415 . S
C1225 H1195 0.950 . S
C1225 C1220 1.363 . S
C1225 C1224 1.415 . S
H1226 C1223 0.999 . S
H1227 C1208 0.913 . S
H1228 C1246 0.951 . S
H1229 C1248 0.951 . S
H1230 C1250 0.950 . S
H1231 C1251 0.950 . S
H1232 C1253 0.950 . S
H1233 C1256 0.950 . S
H1234 C1257 0.950 . S
H1235 C1259 0.950 . S
H1236 C1260 0.950 . S
H1237 C1261 0.951 . S
H1238 C1263 0.951 . S
H1239 C1265 0.950 . S
H1240 C1266 0.950 . S
H1241 C1268 0.950 . S
H1242 C1271 0.950 . S
H1243 C1272 0.950 . S
H1244 C1274 0.950 . S
H1245 C1275 0.950 . S
C1246 H1228 0.951 . S
C1246 C1247 1.366 . S
C1246 C1248 1.388 . S
C1247 C1246 1.366 . S
C1247 C1251 1.385 . S
C1248 H1229 0.951 . S
C1248 C1246 1.388 . S
C1248 C1249 1.366 . S
C1249 C1248 1.366 . S
C1249 C1250 1.414 . S
C1249 C1252 1.499 . S
C1250 H1230 0.950 . S
C1250 C1249 1.414 . S
C1250 C1251 1.374 . S
C1251 H1231 0.950 . S
C1251 C1247 1.385 . S
C1251 C1250 1.374 . S
C1252 C1249 1.499 . S
C1252 C1253 1.373 . S
C1252 C1254 1.389 . S
C1253 H1232 0.950 . S
C1253 C1252 1.373 . S
C1253 C1269 1.377 . S
C1254 C1252 1.389 . S
C1254 C1255 1.524 . S
C1254 C1268 1.377 . S
C1255 C1254 1.524 . S
C1255 C1256 1.397 . S
C1255 C1260 1.363 . S
C1256 H1233 0.950 . S
C1256 C1255 1.397 . S
C1256 C1257 1.334 . S
C1257 H1234 0.950 . S
C1257 C1256 1.334 . S
C1257 C1258 1.287 . S
C1258 C1257 1.287 . S
C1258 C1259 1.524 . S
C1258 H1277 0.913 . S
C1259 H1235 0.950 . S
C1259 C1258 1.524 . S
C1259 C1260 1.415 . S
C1260 H1236 0.950 . S
C1260 C1255 1.363 . S
C1260 C1259 1.415 . S
C1261 H1237 0.951 . S
C1261 C1262 1.366 . S
C1261 C1263 1.388 . S
C1262 C1261 1.366 . S
C1262 C1266 1.385 . S
C1263 H1238 0.951 . S
C1263 C1261 1.388 . S
C1263 C1264 1.366 . S
C1264 C1263 1.366 . S
C1264 C1265 1.414 . S
C1264 C1267 1.499 . S
C1265 H1239 0.950 . S
C1265 C1264 1.414 . S
C1265 C1266 1.374 . S
C1266 H1240 0.950 . S
C1266 C1262 1.385 . S
C1266 C1265 1.374 . S
C1267 C1264 1.499 . S
C1267 C1268 1.373 . S
C1267 C1269 1.389 . S
C1268 H1241 0.950 . S
C1268 C1254 1.377 . S
C1268 C1267 1.373 . S
C1269 C1253 1.377 . S
C1269 C1267 1.389 . S
C1269 C1270 1.524 . S
C1270 C1269 1.524 . S
C1270 C1271 1.397 . S
C1270 C1275 1.363 . S
C1271 H1242 0.950 . S
C1271 C1270 1.397 . S
C1271 C1272 1.334 . S
C1272 H1243 0.950 . S
C1272 C1271 1.334 . S
C1272 C1273 1.287 . S
C1273 C1272 1.287 . S
C1273 C1274 1.524 . S
C1273 H1276 0.999 . S
C1274 H1244 0.950 . S
C1274 C1273 1.524 . S
C1274 C1275 1.415 . S
C1275 H1245 0.950 . S
C1275 C1270 1.363 . S
C1275 C1274 1.415 . S
H1276 C1273 0.999 . S
H1277 C1258 0.913 . S
H1278 C1296 0.951 . S
H1279 C1298 0.951 . S
H1280 C1300 0.950 . S
H1281 C1301 0.950 . S
H1282 C1303 0.950 . S
H1283 C1306 0.950 . S
H1284 C1307 0.950 . S
H1285 C1309 0.950 . S
H1286 C1310 0.950 . S
H1287 C1311 0.951 . S
H1288 C1313 0.951 . S
H1289 C1315 0.950 . S
H1290 C1316 0.950 . S
H1291 C1318 0.950 . S
H1292 C1321 0.950 . S
H1293 C1322 0.950 . S
H1294 C1324 0.950 . S
H1295 C1325 0.950 . S
C1296 H1278 0.951 . S
C1296 C1297 1.366 . S
C1296 C1298 1.388 . S
C1297 C1296 1.366 . S
C1297 C1301 1.385 . S
C1298 H1279 0.951 . S
C1298 C1296 1.388 . S
C1298 C1299 1.366 . S
C1299 C1298 1.366 . S
C1299 C1300 1.414 . S
C1299 C1302 1.499 . S
C1300 H1280 0.950 . S
C1300 C1299 1.414 . S
C1300 C1301 1.374 . S
C1301 H1281 0.950 . S
C1301 C1297 1.385 . S
C1301 C1300 1.374 . S
C1302 C1299 1.499 . S
C1302 C1303 1.373 . S
C1302 C1304 1.389 . S
C1303 H1282 0.950 . S
C1303 C1302 1.373 . S
C1303 C1319 1.377 . S
C1304 C1302 1.389 . S
C1304 C1305 1.524 . S
C1304 C1318 1.377 . S
C1305 C1304 1.524 . S
C1305 C1306 1.397 . S
C1305 C1310 1.363 . S
C1306 H1283 0.950 . S
C1306 C1305 1.397 . S
C1306 C1307 1.334 . S
C1307 H1284 0.950 . S
C1307 C1306 1.334 . S
C1307 C1308 1.287 . S
C1308 C1307 1.287 . S
C1308 C1309 1.524 . S
C1308 H1327 0.913 . S
C1309 H1285 0.950 . S
C1309 C1308 1.524 . S
C1309 C1310 1.415 . S
C1310 H1286 0.950 . S
C1310 C1305 1.363 . S
C1310 C1309 1.415 . S
C1311 H1287 0.951 . S
C1311 C1312 1.366 . S
C1311 C1313 1.388 . S
C1312 C1311 1.366 . S
C1312 C1316 1.385 . S
C1313 H1288 0.951 . S
C1313 C1311 1.388 . S
C1313 C1314 1.366 . S
C1314 C1313 1.366 . S
C1314 C1315 1.414 . S
C1314 C1317 1.499 . S
C1315 H1289 0.950 . S
C1315 C1314 1.414 . S
C1315 C1316 1.374 . S
C1316 H1290 0.950 . S
C1316 C1312 1.385 . S
C1316 C1315 1.374 . S
C1317 C1314 1.499 . S
C1317 C1318 1.373 . S
C1317 C1319 1.389 . S
C1318 H1291 0.950 . S
C1318 C1304 1.377 . S
C1318 C1317 1.373 . S
C1319 C1303 1.377 . S
C1319 C1317 1.389 . S
C1319 C1320 1.524 . S
C1320 C1319 1.524 . S
C1320 C1321 1.397 . S
C1320 C1325 1.363 . S
C1321 H1292 0.950 . S
C1321 C1320 1.397 . S
C1321 C1322 1.334 . S
C1322 H1293 0.950 . S
C1322 C1321 1.334 . S
C1322 C1323 1.287 . S
C1323 C1322 1.287 . S
C1323 C1324 1.524 . S
C1323 H1326 0.999 . S
C1324 H1294 0.950 . S
C1324 C1323 1.524 . S
C1324 C1325 1.415 . S
C1325 H1295 0.950 . S
C1325 C1320 1.363 . S
C1325 C1324 1.415 . S
H1326 C1323 0.999 . S
H1327 C1308 0.913 . S
H1328 C1346 0.951 . S
H1329 C1348 0.951 . S
H1330 C1350 0.950 . S
H1331 C1351 0.950 . S
H1332 C1353 0.950 . S
H1333 C1356 0.950 . S
H1334 C1357 0.950 . S
H1335 C1359 0.950 . S
H1336 C1360 0.950 . S
H1337 C1361 0.951 . S
H1338 C1363 0.951 . S
H1339 C1365 0.950 . S
H1340 C1366 0.950 . S
H1341 C1368 0.950 . S
H1342 C1371 0.950 . S
H1343 C1372 0.950 . S
H1344 C1374 0.950 . S
H1345 C1375 0.950 . S
C1346 H1328 0.951 . S
C1346 C1347 1.366 . S
C1346 C1348 1.388 . S
C1347 C1346 1.366 . S
C1347 C1351 1.385 . S
C1348 H1329 0.951 . S
C1348 C1346 1.388 . S
C1348 C1349 1.366 . S
C1349 C1348 1.366 . S
C1349 C1350 1.414 . S
C1349 C1352 1.499 . S
C1350 H1330 0.950 . S
C1350 C1349 1.414 . S
C1350 C1351 1.374 . S
C1351 H1331 0.950 . S
C1351 C1347 1.385 . S
C1351 C1350 1.374 . S
C1352 C1349 1.499 . S
C1352 C1353 1.373 . S
C1352 C1354 1.389 . S
C1353 H1332 0.950 . S
C1353 C1352 1.373 . S
C1353 C1369 1.377 . S
C1354 C1352 1.389 . S
C1354 C1355 1.524 . S
C1354 C1368 1.377 . S
C1355 C1354 1.524 . S
C1355 C1356 1.397 . S
C1355 C1360 1.363 . S
C1356 H1333 0.950 . S
C1356 C1355 1.397 . S
C1356 C1357 1.334 . S
C1357 H1334 0.950 . S
C1357 C1356 1.334 . S
C1357 C1358 1.287 . S
C1358 C1357 1.287 . S
C1358 C1359 1.524 . S
C1358 H1377 0.913 . S
C1359 H1335 0.950 . S
C1359 C1358 1.524 . S
C1359 C1360 1.415 . S
C1360 H1336 0.950 . S
C1360 C1355 1.363 . S
C1360 C1359 1.415 . S
C1361 H1337 0.951 . S
C1361 C1362 1.366 . S
C1361 C1363 1.388 . S
C1362 C1361 1.366 . S
C1362 C1366 1.385 . S
C1363 H1338 0.951 . S
C1363 C1361 1.388 . S
C1363 C1364 1.366 . S
C1364 C1363 1.366 . S
C1364 C1365 1.414 . S
C1364 C1367 1.499 . S
C1365 H1339 0.950 . S
C1365 C1364 1.414 . S
C1365 C1366 1.374 . S
C1366 H1340 0.950 . S
C1366 C1362 1.385 . S
C1366 C1365 1.374 . S
C1367 C1364 1.499 . S
C1367 C1368 1.373 . S
C1367 C1369 1.389 . S
C1368 H1341 0.950 . S
C1368 C1354 1.377 . S
C1368 C1367 1.373 . S
C1369 C1353 1.377 . S
C1369 C1367 1.389 . S
C1369 C1370 1.524 . S
C1370 C1369 1.524 . S
C1370 C1371 1.397 . S
C1370 C1375 1.363 . S
C1371 H1342 0.950 . S
C1371 C1370 1.397 . S
C1371 C1372 1.334 . S
C1372 H1343 0.950 . S
C1372 C1371 1.334 . S
C1372 C1373 1.287 . S
C1373 C1372 1.287 . S
C1373 C1374 1.524 . S
C1373 H1376 0.999 . S
C1374 H1344 0.950 . S
C1374 C1373 1.524 . S
C1374 C1375 1.415 . S
C1375 H1345 0.950 . S
C1375 C1370 1.363 . S
C1375 C1374 1.415 . S
H1376 C1373 0.999 . S
H1377 C1358 0.913 . S
H1378 C1396 0.951 . S
H1379 C1398 0.951 . S
H1380 C1400 0.950 . S
H1381 C1401 0.950 . S
H1382 C1403 0.950 . S
H1383 C1406 0.950 . S
H1384 C1407 0.950 . S
H1385 C1409 0.950 . S
H1386 C1410 0.950 . S
H1387 C1411 0.951 . S
H1388 C1413 0.951 . S
H1389 C1415 0.950 . S
H1390 C1416 0.950 . S
H1391 C1418 0.950 . S
H1392 C1421 0.950 . S
H1393 C1422 0.950 . S
H1394 C1424 0.950 . S
H1395 C1425 0.950 . S
C1396 H1378 0.951 . S
C1396 C1397 1.366 . S
C1396 C1398 1.388 . S
C1397 C1396 1.366 . S
C1397 C1401 1.385 . S
C1398 H1379 0.951 . S
C1398 C1396 1.388 . S
C1398 C1399 1.366 . S
C1399 C1398 1.366 . S
C1399 C1400 1.414 . S
C1399 C1402 1.499 . S
C1400 H1380 0.950 . S
C1400 C1399 1.414 . S
C1400 C1401 1.374 . S
C1401 H1381 0.950 . S
C1401 C1397 1.385 . S
C1401 C1400 1.374 . S
C1402 C1399 1.499 . S
C1402 C1403 1.373 . S
C1402 C1404 1.389 . S
C1403 H1382 0.950 . S
C1403 C1402 1.373 . S
C1403 C1419 1.377 . S
C1404 C1402 1.389 . S
C1404 C1405 1.524 . S
C1404 C1418 1.377 . S
C1405 C1404 1.524 . S
C1405 C1406 1.397 . S
C1405 C1410 1.363 . S
C1406 H1383 0.950 . S
C1406 C1405 1.397 . S
C1406 C1407 1.334 . S
C1407 H1384 0.950 . S
C1407 C1406 1.334 . S
C1407 C1408 1.287 . S
C1408 C1407 1.287 . S
C1408 C1409 1.524 . S
C1408 H1427 0.913 . S
C1409 H1385 0.950 . S
C1409 C1408 1.524 . S
C1409 C1410 1.415 . S
C1410 H1386 0.950 . S
C1410 C1405 1.363 . S
C1410 C1409 1.415 . S
C1411 H1387 0.951 . S
C1411 C1412 1.366 . S
C1411 C1413 1.388 . S
C1412 C1411 1.366 . S
C1412 C1416 1.385 . S
C1413 H1388 0.951 . S
C1413 C1411 1.388 . S
C1413 C1414 1.366 . S
C1414 C1413 1.366 . S
C1414 C1415 1.414 . S
C1414 C1417 1.499 . S
C1415 H1389 0.950 . S
C1415 C1414 1.414 . S
C1415 C1416 1.374 . S
C1416 H1390 0.950 . S
C1416 C1412 1.385 . S
C1416 C1415 1.374 . S
C1417 C1414 1.499 . S
C1417 C1418 1.373 . S
C1417 C1419 1.389 . S
C1418 H1391 0.950 . S
C1418 C1404 1.377 . S
C1418 C1417 1.373 . S
C1419 C1403 1.377 . S
C1419 C1417 1.389 . S
C1419 C1420 1.524 . S
C1420 C1419 1.524 . S
C1420 C1421 1.397 . S
C1420 C1425 1.363 . S
C1421 H1392 0.950 . S
C1421 C1420 1.397 . S
C1421 C1422 1.334 . S
C1422 H1393 0.950 . S
C1422 C1421 1.334 . S
C1422 C1423 1.287 . S
C1423 C1422 1.287 . S
C1423 C1424 1.524 . S
C1423 H1426 0.999 . S
C1424 H1394 0.950 . S
C1424 C1423 1.524 . S
C1424 C1425 1.415 . S
C1425 H1395 0.950 . S
C1425 C1420 1.363 . S
C1425 C1424 1.415 . S
H1426 C1423 0.999 . S
H1427 C1408 0.913 . S
H1428 C1446 0.951 . S
H1429 C1448 0.951 . S
H1430 C1450 0.950 . S
H1431 C1451 0.950 . S
H1432 C1453 0.950 . S
H1433 C1456 0.950 . S
H1434 C1457 0.950 . S
H1435 C1459 0.950 . S
H1436 C1460 0.950 . S
H1437 C1461 0.951 . S
H1438 C1463 0.951 . S
H1439 C1465 0.950 . S
H1440 C1466 0.950 . S
H1441 C1468 0.950 . S
H1442 C1471 0.950 . S
H1443 C1472 0.950 . S
H1444 C1474 0.950 . S
H1445 C1475 0.950 . S
C1446 H1428 0.951 . S
C1446 C1447 1.366 . S
C1446 C1448 1.388 . S
C1447 C1446 1.366 . S
C1447 C1451 1.385 . S
C1448 H1429 0.951 . S
C1448 C1446 1.388 . S
C1448 C1449 1.366 . S
C1449 C1448 1.366 . S
C1449 C1450 1.414 . S
C1449 C1452 1.499 . S
C1450 H1430 0.950 . S
C1450 C1449 1.414 . S
C1450 C1451 1.374 . S
C1451 H1431 0.950 . S
C1451 C1447 1.385 . S
C1451 C1450 1.374 . S
C1452 C1449 1.499 . S
C1452 C1453 1.373 . S
C1452 C1454 1.389 . S
C1453 H1432 0.950 . S
C1453 C1452 1.373 . S
C1453 C1469 1.377 . S
C1454 C1452 1.389 . S
C1454 C1455 1.524 . S
C1454 C1468 1.377 . S
C1455 C1454 1.524 . S
C1455 C1456 1.397 . S
C1455 C1460 1.363 . S
C1456 H1433 0.950 . S
C1456 C1455 1.397 . S
C1456 C1457 1.334 . S
C1457 H1434 0.950 . S
C1457 C1456 1.334 . S
C1457 C1458 1.287 . S
C1458 C1457 1.287 . S
C1458 C1459 1.524 . S
C1458 H1477 0.913 . S
C1459 H1435 0.950 . S
C1459 C1458 1.524 . S
C1459 C1460 1.415 . S
C1460 H1436 0.950 . S
C1460 C1455 1.363 . S
C1460 C1459 1.415 . S
C1461 H1437 0.951 . S
C1461 C1462 1.366 . S
C1461 C1463 1.388 . S
C1462 C1461 1.366 . S
C1462 C1466 1.385 . S
C1463 H1438 0.951 . S
C1463 C1461 1.388 . S
C1463 C1464 1.366 . S
C1464 C1463 1.366 . S
C1464 C1465 1.414 . S
C1464 C1467 1.499 . S
C1465 H1439 0.950 . S
C1465 C1464 1.414 . S
C1465 C1466 1.374 . S
C1466 H1440 0.950 . S
C1466 C1462 1.385 . S
C1466 C1465 1.374 . S
C1467 C1464 1.499 . S
C1467 C1468 1.373 . S
C1467 C1469 1.389 . S
C1468 H1441 0.950 . S
C1468 C1454 1.377 . S
C1468 C1467 1.373 . S
C1469 C1453 1.377 . S
C1469 C1467 1.389 . S
C1469 C1470 1.524 . S
C1470 C1469 1.524 . S
C1470 C1471 1.397 . S
C1470 C1475 1.363 . S
C1471 H1442 0.950 . S
C1471 C1470 1.397 . S
C1471 C1472 1.334 . S
C1472 H1443 0.950 . S
C1472 C1471 1.334 . S
C1472 C1473 1.287 . S
C1473 C1472 1.287 . S
C1473 C1474 1.524 . S
C1473 H1476 0.999 . S
C1474 H1444 0.950 . S
C1474 C1473 1.524 . S
C1474 C1475 1.415 . S
C1475 H1445 0.950 . S
C1475 C1470 1.363 . S
C1475 C1474 1.415 . S
H1476 C1473 0.999 . S
H1477 C1458 0.913 . S
H1478 C1496 0.951 . S
H1479 C1498 0.951 . S
H1480 C1500 0.950 . S
H1481 C1501 0.950 . S
H1482 C1503 0.950 . S
H1483 C1506 0.950 . S
H1484 C1507 0.950 . S
H1485 C1509 0.950 . S
H1486 C1510 0.950 . S
H1487 C1511 0.951 . S
H1488 C1513 0.951 . S
H1489 C1515 0.950 . S
H1490 C1516 0.950 . S
H1491 C1518 0.950 . S
H1492 C1521 0.950 . S
H1493 C1522 0.950 . S
H1494 C1524 0.950 . S
H1495 C1525 0.950 . S
C1496 H1478 0.951 . S
C1496 C1497 1.366 . S
C1496 C1498 1.388 . S
C1497 C1496 1.366 . S
C1497 C1501 1.385 . S
C1498 H1479 0.951 . S
C1498 C1496 1.388 . S
C1498 C1499 1.366 . S
C1499 C1498 1.366 . S
C1499 C1500 1.414 . S
C1499 C1502 1.499 . S
C1500 H1480 0.950 . S
C1500 C1499 1.414 . S
C1500 C1501 1.374 . S
C1501 H1481 0.950 . S
C1501 C1497 1.385 . S
C1501 C1500 1.374 . S
C1502 C1499 1.499 . S
C1502 C1503 1.373 . S
C1502 C1504 1.389 . S
C1503 H1482 0.950 . S
C1503 C1502 1.373 . S
C1503 C1519 1.377 . S
C1504 C1502 1.389 . S
C1504 C1505 1.524 . S
C1504 C1518 1.377 . S
C1505 C1504 1.524 . S
C1505 C1506 1.397 . S
C1505 C1510 1.363 . S
C1506 H1483 0.950 . S
C1506 C1505 1.397 . S
C1506 C1507 1.334 . S
C1507 H1484 0.950 . S
C1507 C1506 1.334 . S
C1507 C1508 1.287 . S
C1508 C1507 1.287 . S
C1508 C1509 1.524 . S
C1508 H1527 0.913 . S
C1509 H1485 0.950 . S
C1509 C1508 1.524 . S
C1509 C1510 1.415 . S
C1510 H1486 0.950 . S
C1510 C1505 1.363 . S
C1510 C1509 1.415 . S
C1511 H1487 0.951 . S
C1511 C1512 1.366 . S
C1511 C1513 1.388 . S
C1512 C1511 1.366 . S
C1512 C1516 1.385 . S
C1513 H1488 0.951 . S
C1513 C1511 1.388 . S
C1513 C1514 1.366 . S
C1514 C1513 1.366 . S
C1514 C1515 1.414 . S
C1514 C1517 1.499 . S
C1515 H1489 0.950 . S
C1515 C1514 1.414 . S
C1515 C1516 1.374 . S
C1516 H1490 0.950 . S
C1516 C1512 1.385 . S
C1516 C1515 1.374 . S
C1517 C1514 1.499 . S
C1517 C1518 1.373 . S
C1517 C1519 1.389 . S
C1518 H1491 0.950 . S
C1518 C1504 1.377 . S
C1518 C1517 1.373 . S
C1519 C1503 1.377 . S
C1519 C1517 1.389 . S
C1519 C1520 1.524 . S
C1520 C1519 1.524 . S
C1520 C1521 1.397 . S
C1520 C1525 1.363 . S
C1521 H1492 0.950 . S
C1521 C1520 1.397 . S
C1521 C1522 1.334 . S
C1522 H1493 0.950 . S
C1522 C1521 1.334 . S
C1522 C1523 1.287 . S
C1523 C1522 1.287 . S
C1523 C1524 1.524 . S
C1523 H1526 0.999 . S
C1524 H1494 0.950 . S
C1524 C1523 1.524 . S
C1524 C1525 1.415 . S
C1525 H1495 0.950 . S
C1525 C1520 1.363 . S
C1525 C1524 1.415 . S
H1526 C1523 0.999 . S
H1527 C1508 0.913 . S
H1528 C1546 0.951 . S
H1529 C1548 0.951 . S
H1530 C1550 0.950 . S
H1531 C1551 0.950 . S
H1532 C1553 0.950 . S
H1533 C1556 0.950 . S
H1534 C1557 0.950 . S
H1535 C1559 0.950 . S
H1536 C1560 0.950 . S
H1537 C1561 0.951 . S
H1538 C1563 0.951 . S
H1539 C1565 0.950 . S
H1540 C1566 0.950 . S
H1541 C1568 0.950 . S
H1542 C1571 0.950 . S
H1543 C1572 0.950 . S
H1544 C1574 0.950 . S
H1545 C1575 0.950 . S
C1546 H1528 0.951 . S
C1546 C1547 1.366 . S
C1546 C1548 1.388 . S
C1547 C1546 1.366 . S
C1547 C1551 1.385 . S
C1548 H1529 0.951 . S
C1548 C1546 1.388 . S
C1548 C1549 1.366 . S
C1549 C1548 1.366 . S
C1549 C1550 1.414 . S
C1549 C1552 1.499 . S
C1550 H1530 0.950 . S
C1550 C1549 1.414 . S
C1550 C1551 1.374 . S
C1551 H1531 0.950 . S
C1551 C1547 1.385 . S
C1551 C1550 1.374 . S
C1552 C1549 1.499 . S
C1552 C1553 1.373 . S
C1552 C1554 1.389 . S
C1553 H1532 0.950 . S
C1553 C1552 1.373 . S
C1553 C1569 1.377 . S
C1554 C1552 1.389 . S
C1554 C1555 1.524 . S
C1554 C1568 1.377 . S
C1555 C1554 1.524 . S
C1555 C1556 1.397 . S
C1555 C1560 1.363 . S
C1556 H1533 0.950 . S
C1556 C1555 1.397 . S
C1556 C1557 1.334 . S
C1557 H1534 0.950 . S
C1557 C1556 1.334 . S
C1557 C1558 1.287 . S
C1558 C1557 1.287 . S
C1558 C1559 1.524 . S
C1558 H1577 0.913 . S
C1559 H1535 0.950 . S
C1559 C1558 1.524 . S
C1559 C1560 1.415 . S
C1560 H1536 0.950 . S
C1560 C1555 1.363 . S
C1560 C1559 1.415 . S
C1561 H1537 0.951 . S
C1561 C1562 1.366 . S
C1561 C1563 1.388 . S
C1562 C1561 1.366 . S
C1562 C1566 1.385 . S
C1563 H1538 0.951 . S
C1563 C1561 1.388 . S
C1563 C1564 1.366 . S
C1564 C1563 1.366 . S
C1564 C1565 1.414 . S
C1564 C1567 1.499 . S
C1565 H1539 0.950 . S
C1565 C1564 1.414 . S
C1565 C1566 1.374 . S
C1566 H1540 0.950 . S
C1566 C1562 1.385 . S
C1566 C1565 1.374 . S
C1567 C1564 1.499 . S
C1567 C1568 1.373 . S
C1567 C1569 1.389 . S
C1568 H1541 0.950 . S
C1568 C1554 1.377 . S
C1568 C1567 1.373 . S
C1569 C1553 1.377 . S
C1569 C1567 1.389 . S
C1569 C1570 1.524 . S
C1570 C1569 1.524 . S
C1570 C1571 1.397 . S
C1570 C1575 1.363 . S
C1571 H1542 0.950 . S
C1571 C1570 1.397 . S
C1571 C1572 1.334 . S
C1572 H1543 0.950 . S
C1572 C1571 1.334 . S
C1572 C1573 1.287 . S
C1573 C1572 1.287 . S
C1573 C1574 1.524 . S
C1573 H1576 0.999 . S
C1574 H1544 0.950 . S
C1574 C1573 1.524 . S
C1574 C1575 1.415 . S
C1575 H1545 0.950 . S
C1575 C1570 1.363 . S
C1575 C1574 1.415 . S
H1576 C1573 0.999 . S
H1577 C1558 0.913 . S
H1578 C1596 0.951 . S
H1579 C1598 0.951 . S
H1580 C1600 0.950 . S
H1581 C1601 0.950 . S
H1582 C1603 0.950 . S
H1583 C1606 0.950 . S
H1584 C1607 0.950 . S
H1585 C1609 0.950 . S
H1586 C1610 0.950 . S
H1587 C1611 0.951 . S
H1588 C1613 0.951 . S
H1589 C1615 0.950 . S
H1590 C1616 0.950 . S
H1591 C1618 0.950 . S
H1592 C1621 0.950 . S
H1593 C1622 0.950 . S
H1594 C1624 0.950 . S
H1595 C1625 0.950 . S
C1596 H1578 0.951 . S
C1596 C1597 1.366 . S
C1596 C1598 1.388 . S
C1597 C1596 1.366 . S
C1597 C1601 1.385 . S
C1598 H1579 0.951 . S
C1598 C1596 1.388 . S
C1598 C1599 1.366 . S
C1599 C1598 1.366 . S
C1599 C1600 1.414 . S
C1599 C1602 1.499 . S
C1600 H1580 0.950 . S
C1600 C1599 1.414 . S
C1600 C1601 1.374 . S
C1601 H1581 0.950 . S
C1601 C1597 1.385 . S
C1601 C1600 1.374 . S
C1602 C1599 1.499 . S
C1602 C1603 1.373 . S
C1602 C1604 1.389 . S
C1603 H1582 0.950 . S
C1603 C1602 1.373 . S
C1603 C1619 1.377 . S
C1604 C1602 1.389 . S
C1604 C1605 1.524 . S
C1604 C1618 1.377 . S
C1605 C1604 1.524 . S
C1605 C1606 1.397 . S
C1605 C1610 1.363 . S
C1606 H1583 0.950 . S
C1606 C1605 1.397 . S
C1606 C1607 1.334 . S
C1607 H1584 0.950 . S
C1607 C1606 1.334 . S
C1607 C1608 1.287 . S
C1608 C1607 1.287 . S
C1608 C1609 1.524 . S
C1608 H1627 0.913 . S
C1609 H1585 0.950 . S
C1609 C1608 1.524 . S
C1609 C1610 1.415 . S
C1610 H1586 0.950 . S
C1610 C1605 1.363 . S
C1610 C1609 1.415 . S
C1611 H1587 0.951 . S
C1611 C1612 1.366 . S
C1611 C1613 1.388 . S
C1612 C1611 1.366 . S
C1612 C1616 1.385 . S
C1613 H1588 0.951 . S
C1613 C1611 1.388 . S
C1613 C1614 1.366 . S
C1614 C1613 1.366 . S
C1614 C1615 1.414 . S
C1614 C1617 1.499 . S
C1615 H1589 0.950 . S
C1615 C1614 1.414 . S
C1615 C1616 1.374 . S
C1616 H1590 0.950 . S
C1616 C1612 1.385 . S
C1616 C1615 1.374 . S
C1617 C1614 1.499 . S
C1617 C1618 1.373 . S
C1617 C1619 1.389 . S
C1618 H1591 0.950 . S
C1618 C1604 1.377 . S
C1618 C1617 1.373 . S
C1619 C1603 1.377 . S
C1619 C1617 1.389 . S
C1619 C1620 1.524 . S
C1620 C1619 1.524 . S
C1620 C1621 1.397 . S
C1620 C1625 1.363 . S
C1621 H1592 0.950 . S
C1621 C1620 1.397 . S
C1621 C1622 1.334 . S
C1622 H1593 0.950 . S
C1622 C1621 1.334 . S
C1622 C1623 1.287 . S
C1623 C1622 1.287 . S
C1623 C1624 1.524 . S
C1623 H1626 0.999 . S
C1624 H1594 0.950 . S
C1624 C1623 1.524 . S
C1624 C1625 1.415 . S
C1625 H1595 0.950 . S
C1625 C1620 1.363 . S
C1625 C1624 1.415 . S
H1626 C1623 0.999 . S
H1627 C1608 0.913 . S
H1628 C1646 0.951 . S
H1629 C1648 0.951 . S
H1630 C1650 0.950 . S
H1631 C1651 0.950 . S
H1632 C1653 0.950 . S
H1633 C1656 0.950 . S
H1634 C1657 0.950 . S
H1635 C1659 0.950 . S
H1636 C1660 0.950 . S
H1637 C1661 0.951 . S
H1638 C1663 0.951 . S
H1639 C1665 0.950 . S
H1640 C1666 0.950 . S
H1641 C1668 0.950 . S
H1642 C1671 0.950 . S
H1643 C1672 0.950 . S
H1644 C1674 0.950 . S
H1645 C1675 0.950 . S
C1646 H1628 0.951 . S
C1646 C1647 1.366 . S
C1646 C1648 1.388 . S
C1647 C1646 1.366 . S
C1647 C1651 1.385 . S
C1648 H1629 0.951 . S
C1648 C1646 1.388 . S
C1648 C1649 1.366 . S
C1649 C1648 1.366 . S
C1649 C1650 1.414 . S
C1649 C1652 1.499 . S
C1650 H1630 0.950 . S
C1650 C1649 1.414 . S
C1650 C1651 1.374 . S
C1651 H1631 0.950 . S
C1651 C1647 1.385 . S
C1651 C1650 1.374 . S
C1652 C1649 1.499 . S
C1652 C1653 1.373 . S
C1652 C1654 1.389 . S
C1653 H1632 0.950 . S
C1653 C1652 1.373 . S
C1653 C1669 1.377 . S
C1654 C1652 1.389 . S
C1654 C1655 1.524 . S
C1654 C1668 1.377 . S
C1655 C1654 1.524 . S
C1655 C1656 1.397 . S
C1655 C1660 1.363 . S
C1656 H1633 0.950 . S
C1656 C1655 1.397 . S
C1656 C1657 1.334 . S
C1657 H1634 0.950 . S
C1657 C1656 1.334 . S
C1657 C1658 1.287 . S
C1658 C1657 1.287 . S
C1658 C1659 1.524 . S
C1658 H1677 0.913 . S
C1659 H1635 0.950 . S
C1659 C1658 1.524 . S
C1659 C1660 1.415 . S
C1660 H1636 0.950 . S
C1660 C1655 1.363 . S
C1660 C1659 1.415 . S
C1661 H1637 0.951 . S
C1661 C1662 1.366 . S
C1661 C1663 1.388 . S
C1662 C1661 1.366 . S
C1662 C1666 1.385 . S
C1663 H1638 0.951 . S
C1663 C1661 1.388 . S
C1663 C1664 1.366 . S
C1664 C1663 1.366 . S
C1664 C1665 1.414 . S
C1664 C1667 1.499 . S
C1665 H1639 0.950 . S
C1665 C1664 1.414 . S
C1665 C1666 1.374 . S
C1666 H1640 0.950 . S
C1666 C1662 1.385 . S
C1666 C1665 1.374 . S
C1667 C1664 1.499 . S
C1667 C1668 1.373 . S
C1667 C1669 1.389 . S
C1668 H1641 0.950 . S
C1668 C1654 1.377 . S
C1668 C1667 1.373 . S
C1669 C1653 1.377 . S
C1669 C1667 1.389 . S
C1669 C1670 1.524 . S
C1670 C1669 1.524 . S
C1670 C1671 1.397 . S
C1670 C1675 1.363 . S
C1671 H1642 0.950 . S
C1671 C1670 1.397 . S
C1671 C1672 1.334 . S
C1672 H1643 0.950 . S
C1672 C1671 1.334 . S
C1672 C1673 1.287 . S
C1673 C1672 1.287 . S
C1673 C1674 1.524 . S
C1673 H1676 0.999 . S
C1674 H1644 0.950 . S
C1674 C1673 1.524 . S
C1674 C1675 1.415 . S
C1675 H1645 0.950 . S
C1675 C1670 1.363 . S
C1675 C1674 1.415 . S
H1676 C1673 0.999 . S
H1677 C1658 0.913 . S
H1678 C1696 0.951 . S
H1679 C1698 0.951 . S
H1680 C1700 0.950 . S
H1681 C1701 0.950 . S
H1682 C1703 0.950 . S
H1683 C1706 0.950 . S
H1684 C1707 0.950 . S
H1685 C1709 0.950 . S
H1686 C1710 0.950 . S
H1687 C1711 0.951 . S
H1688 C1713 0.951 . S
H1689 C1715 0.950 . S
H1690 C1716 0.950 . S
H1691 C1718 0.950 . S
H1692 C1721 0.950 . S
H1693 C1722 0.950 . S
H1694 C1724 0.950 . S
H1695 C1725 0.950 . S
C1696 H1678 0.951 . S
C1696 C1697 1.366 . S
C1696 C1698 1.388 . S
C1697 C1696 1.366 . S
C1697 C1701 1.385 . S
C1698 H1679 0.951 . S
C1698 C1696 1.388 . S
C1698 C1699 1.366 . S
C1699 C1698 1.366 . S
C1699 C1700 1.414 . S
C1699 C1702 1.499 . S
C1700 H1680 0.950 . S
C1700 C1699 1.414 . S
C1700 C1701 1.374 . S
C1701 H1681 0.950 . S
C1701 C1697 1.385 . S
C1701 C1700 1.374 . S
C1702 C1699 1.499 . S
C1702 C1703 1.373 . S
C1702 C1704 1.389 . S
C1703 H1682 0.950 . S
C1703 C1702 1.373 . S
C1703 C1719 1.377 . S
C1704 C1702 1.389 . S
C1704 C1705 1.524 . S
C1704 C1718 1.377 . S
C1705 C1704 1.524 . S
C1705 C1706 1.397 . S
C1705 C1710 1.363 . S
C1706 H1683 0.950 . S
C1706 C1705 1.397 . S
C1706 C1707 1.334 . S
C1707 H1684 0.950 . S
C1707 C1706 1.334 . S
C1707 C1708 1.287 . S
C1708 C1707 1.287 . S
C1708 C1709 1.524 . S
C1708 H1727 0.913 . S
C1709 H1685 0.950 . S
C1709 C1708 1.524 . S
C1709 C1710 1.415 . S
C1710 H1686 0.950 . S
C1710 C1705 1.363 . S
C1710 C1709 1.415 . S
C1711 H1687 0.951 . S
C1711 C1712 1.366 . S
C1711 C1713 1.388 . S
C1712 C1711 1.366 . S
C1712 C1716 1.385 . S
C1713 H1688 0.951 . S
C1713 C1711 1.388 . S
C1713 C1714 1.366 . S
C1714 C1713 1.366 . S
C1714 C1715 1.414 . S
C1714 C1717 1.499 . S
C1715 H1689 0.950 . S
C1715 C1714 1.414 . S
C1715 C1716 1.374 . S
C1716 H1690 0.950 . S
C1716 C1712 1.385 . S
C1716 C1715 1.374 . S
C1717 C1714 1.499 . S
C1717 C1718 1.373 . S
C1717 C1719 1.389 . S
C1718 H1691 0.950 . S
C1718 C1704 1.377 . S
C1718 C1717 1.373 . S
C1719 C1703 1.377 . S
C1719 C1717 1.389 . S
C1719 C1720 1.524 . S
C1720 C1719 1.524 . S
C1720 C1721 1.397 . S
C1720 C1725 1.363 . S
C1721 H1692 0.950 . S
C1721 C1720 1.397 . S
C1721 C1722 1.334 . S
C1722 H1693 0.950 . S
C1722 C1721 1.334 . S
C1722 C1723 1.287 . S
C1723 C1722 1.287 . S
C1723 C1724 1.524 . S
C1723 H1726 0.999 . S
C1724 H1694 0.950 . S
C1724 C1723 1.524 . S
C1724 C1725 1.415 . S
C1725 H1695 0.950 . S
C1725 C1720 1.363 . S
C1725 C1724 1.415 . S
H1726 C1723 0.999 . S
H1727 C1708 0.913 . S
H1728 C1746 0.951 . S
H1729 C1748 0.951 . S
H1730 C1750 0.950 . S
H1731 C1751 0.950 1_565 S
H1732 C1753 0.950 . S
H1733 C1756 0.950 . S
H1734 C1757 0.950 . S
H1735 C1759 0.950 . S
H1736 C1760 0.950 . S
H1737 C1761 0.951 . S
H1738 C1763 0.951 . S
H1739 C1765 0.950 . S
H1740 C1766 0.950 1_545 S
H1741 C1768 0.950 . S
H1742 C1771 0.950 . S
H1743 C1772 0.950 . S
H1744 C1774 0.950 . S
H1745 C1775 0.950 . S
C1746 H1728 0.951 . S
C1746 C1747 1.366 . S
C1746 C1748 1.388 . S
C1747 C1746 1.366 . S
C1747 C1751 1.385 . S
C1748 H1729 0.951 . S
C1748 C1746 1.388 . S
C1748 C1749 1.366 . S
C1749 C1748 1.366 . S
C1749 C1750 1.414 1_545 S
C1749 C1752 1.499 . S
C1750 H1730 0.950 . S
C1750 C1749 1.414 1_565 S
C1750 C1751 1.374 1_565 S
C1751 H1731 0.950 1_545 S
C1751 C1747 1.385 . S
C1751 C1750 1.374 1_545 S
C1752 C1749 1.499 . S
C1752 C1753 1.393 1_545 S
C1752 C1754 1.389 . S
C1753 H1732 0.950 . S
C1753 C1752 1.393 1_565 S
C1753 C1769 1.357 1_554 S
C1754 C1752 1.389 . S
C1754 C1755 1.524 . S
C1754 C1768 1.357 1_554 S
C1755 C1754 1.524 . S
C1755 C1756 1.397 . S
C1755 C1760 1.363 . S
C1756 H1733 0.950 . S
C1756 C1755 1.397 . S
C1756 C1757 1.334 . S
C1757 H1734 0.950 . S
C1757 C1756 1.334 . S
C1757 C1758 1.287 . S
C1758 C1757 1.287 . S
C1758 C1759 1.524 . S
C1758 H1777 0.913 . S
C1759 H1735 0.950 . S
C1759 C1758 1.524 . S
C1759 C1760 1.415 . S
C1760 H1736 0.950 . S
C1760 C1755 1.363 . S
C1760 C1759 1.415 . S
C1761 H1737 0.951 . S
C1761 C1762 1.366 . S
C1761 C1763 1.388 . S
C1762 C1761 1.366 . S
C1762 C1766 1.385 . S
C1763 H1738 0.951 . S
C1763 C1761 1.388 . S
C1763 C1764 1.366 . S
C1764 C1763 1.366 . S
C1764 C1765 1.414 1_565 S
C1764 C1767 1.499 . S
C1765 H1739 0.950 . S
C1765 C1764 1.414 1_545 S
C1765 C1766 1.374 1_545 S
C1766 H1740 0.950 1_565 S
C1766 C1762 1.385 . S
C1766 C1765 1.374 1_565 S
C1767 C1764 1.499 . S
C1767 C1768 1.393 1_565 S
C1767 C1769 1.389 . S
C1768 H1741 0.950 . S
C1768 C1754 1.357 1_556 S
C1768 C1767 1.393 1_545 S
C1769 C1753 1.357 1_556 S
C1769 C1767 1.389 . S
C1769 C1770 1.524 . S
C1770 C1769 1.524 . S
C1770 C1771 1.397 . S
C1770 C1775 1.363 . S
C1771 H1742 0.950 . S
C1771 C1770 1.397 . S
C1771 C1772 1.334 . S
C1772 H1743 0.950 . S
C1772 C1771 1.334 . S
C1772 C1773 1.287 . S
C1773 C1772 1.287 . S
C1773 C1774 1.524 . S
C1773 H1776 0.999 . S
C1774 H1744 0.950 . S
C1774 C1773 1.524 . S
C1774 C1775 1.415 . S
C1775 H1745 0.950 . S
C1775 C1770 1.363 . S
C1775 C1774 1.415 . S
H1776 C1773 0.999 . S
H1777 C1758 0.913 . S
H1778 C1796 0.951 . S
H1779 C1798 0.951 . S
H1780 C1800 0.950 . S
H1781 C1801 0.950 . S
H1782 C1803 0.950 . S
H1783 C1806 0.950 . S
H1784 C1807 0.950 . S
H1785 C1809 0.950 . S
H1786 C1810 0.950 . S
H1787 C1811 0.951 . S
H1788 C1813 0.951 . S
H1789 C1815 0.950 . S
H1790 C1816 0.950 . S
H1791 C1818 0.950 . S
H1792 C1821 0.950 . S
H1793 C1822 0.950 . S
H1794 C1824 0.950 . S
H1795 C1825 0.950 . S
C1796 H1778 0.951 . S
C1796 C1797 1.366 . S
C1796 C1798 1.388 . S
C1797 C1796 1.366 . S
C1797 C1801 1.385 . S
C1798 H1779 0.951 . S
C1798 C1796 1.388 . S
C1798 C1799 1.366 . S
C1799 C1798 1.366 . S
C1799 C1800 1.414 . S
C1799 C1802 1.499 . S
C1800 H1780 0.950 . S
C1800 C1799 1.414 . S
C1800 C1801 1.374 . S
C1801 H1781 0.950 . S
C1801 C1797 1.385 . S
C1801 C1800 1.374 . S
C1802 C1799 1.499 . S
C1802 C1803 1.373 1_554 S
C1802 C1804 1.389 . S
C1803 H1782 0.950 . S
C1803 C1802 1.373 1_556 S
C1803 C1819 1.377 . S
C1804 C1802 1.389 . S
C1804 C1805 1.524 . S
C1804 C1818 1.377 . S
C1805 C1804 1.524 . S
C1805 C1806 1.397 . S
C1805 C1810 1.363 . S
C1806 H1783 0.950 . S
C1806 C1805 1.397 . S
C1806 C1807 1.334 . S
C1807 H1784 0.950 . S
C1807 C1806 1.334 . S
C1807 C1808 1.287 . S
C1808 C1807 1.287 . S
C1808 C1809 1.524 . S
C1808 H1827 0.913 . S
C1809 H1785 0.950 . S
C1809 C1808 1.524 . S
C1809 C1810 1.415 . S
C1810 H1786 0.950 . S
C1810 C1805 1.363 . S
C1810 C1809 1.415 . S
C1811 H1787 0.951 . S
C1811 C1812 1.366 . S
C1811 C1813 1.388 . S
C1812 C1811 1.366 . S
C1812 C1816 1.385 . S
C1813 H1788 0.951 . S
C1813 C1811 1.388 . S
C1813 C1814 1.366 . S
C1814 C1813 1.366 . S
C1814 C1815 1.414 . S
C1814 C1817 1.499 . S
C1815 H1789 0.950 . S
C1815 C1814 1.414 . S
C1815 C1816 1.374 . S
C1816 H1790 0.950 . S
C1816 C1812 1.385 . S
C1816 C1815 1.374 . S
C1817 C1814 1.499 . S
C1817 C1818 1.373 1_556 S
C1817 C1819 1.389 . S
C1818 H1791 0.950 . S
C1818 C1804 1.377 . S
C1818 C1817 1.373 1_554 S
C1819 C1803 1.377 . S
C1819 C1817 1.389 . S
C1819 C1820 1.524 . S
C1820 C1819 1.524 . S
C1820 C1821 1.397 . S
C1820 C1825 1.363 . S
C1821 H1792 0.950 . S
C1821 C1820 1.397 . S
C1821 C1822 1.334 . S
C1822 H1793 0.950 . S
C1822 C1821 1.334 . S
C1822 C1823 1.287 . S
C1823 C1822 1.287 . S
C1823 C1824 1.524 . S
C1823 H1826 0.999 . S
C1824 H1794 0.950 . S
C1824 C1823 1.524 . S
C1824 C1825 1.415 . S
C1825 H1795 0.950 . S
C1825 C1820 1.363 . S
C1825 C1824 1.415 . S
H1826 C1823 0.999 . S
H1827 C1808 0.913 . S
H1828 C1846 0.951 . S
H1829 C1848 0.951 . S
H1830 C1850 0.950 . S
H1831 C1851 0.950 . S
H1832 C1853 0.950 . S
H1833 C1856 0.950 1_554 S
H1834 C1857 0.950 . S
H1835 C1859 0.950 . S
H1836 C1860 0.950 . S
H1837 C1861 0.951 . S
H1838 C1863 0.951 . S
H1839 C1865 0.950 . S
H1840 C1866 0.950 . S
H1841 C1868 0.950 . S
H1842 C1871 0.950 1_556 S
H1843 C1872 0.950 . S
H1844 C1874 0.950 . S
H1845 C1875 0.950 . S
C1846 H1828 0.951 . S
C1846 C1847 1.366 . S
C1846 C1848 1.388 . S
C1847 C1846 1.366 . S
C1847 C1851 1.385 . S
C1848 H1829 0.951 . S
C1848 C1846 1.388 . S
C1848 C1849 1.366 . S
C1849 C1848 1.366 . S
C1849 C1850 1.414 . S
C1849 C1852 1.499 . S
C1850 H1830 0.950 . S
C1850 C1849 1.414 . S
C1850 C1851 1.374 . S
C1851 H1831 0.950 . S
C1851 C1847 1.385 . S
C1851 C1850 1.374 . S
C1852 C1849 1.499 . S
C1852 C1853 1.373 . S
C1852 C1854 1.389 1_554 S
C1853 H1832 0.950 . S
C1853 C1852 1.373 . S
C1853 C1869 1.377 1_655 S
C1854 C1852 1.389 1_556 S
C1854 C1855 1.524 . S
C1854 C1868 1.377 1_655 S
C1855 C1854 1.524 . S
C1855 C1856 1.397 . S
C1855 C1860 1.363 . S
C1856 H1833 0.950 1_556 S
C1856 C1855 1.397 . S
C1856 C1857 1.334 . S
C1857 H1834 0.950 . S
C1857 C1856 1.334 . S
C1857 C1858 1.287 . S
C1858 C1857 1.287 . S
C1858 C1859 1.524 . S
C1858 H1877 0.913 . S
C1859 H1835 0.950 . S
C1859 C1858 1.524 . S
C1859 C1860 1.415 . S
C1860 H1836 0.950 . S
C1860 C1855 1.363 . S
C1860 C1859 1.415 . S
C1861 H1837 0.951 . S
C1861 C1862 1.366 . S
C1861 C1863 1.388 . S
C1862 C1861 1.366 . S
C1862 C1866 1.385 . S
C1863 H1838 0.951 . S
C1863 C1861 1.388 . S
C1863 C1864 1.366 . S
C1864 C1863 1.366 . S
C1864 C1865 1.414 . S
C1864 C1867 1.499 . S
C1865 H1839 0.950 . S
C1865 C1864 1.414 . S
C1865 C1866 1.374 . S
C1866 H1840 0.950 . S
C1866 C1862 1.385 . S
C1866 C1865 1.374 . S
C1867 C1864 1.499 . S
C1867 C1868 1.373 . S
C1867 C1869 1.389 1_556 S
C1868 H1841 0.950 . S
C1868 C1854 1.377 1_455 S
C1868 C1867 1.373 . S
C1869 C1853 1.377 1_455 S
C1869 C1867 1.389 1_554 S
C1869 C1870 1.524 . S
C1870 C1869 1.524 . S
C1870 C1871 1.397 . S
C1870 C1875 1.363 . S
C1871 H1842 0.950 1_554 S
C1871 C1870 1.397 . S
C1871 C1872 1.334 . S
C1872 H1843 0.950 . S
C1872 C1871 1.334 . S
C1872 C1873 1.287 . S
C1873 C1872 1.287 . S
C1873 C1874 1.524 . S
C1873 H1876 0.999 . S
C1874 H1844 0.950 . S
C1874 C1873 1.524 . S
C1874 C1875 1.415 . S
C1875 H1845 0.950 . S
C1875 C1870 1.363 . S
C1875 C1874 1.415 . S
H1876 C1873 0.999 . S
H1877 C1858 0.913 . S
H1878 C1896 0.951 . S
H1879 C1898 0.951 . S
H1880 C1900 0.959 . S
H1881 C1901 0.950 1_455 S
H1882 C1903 0.950 . S
H1883 C1906 0.950 . S
H1884 C1907 0.950 . S
H1885 C1909 0.941 1_565 S
H1886 C1910 0.950 1_566 S
H1887 C1911 0.951 . S
H1888 C1913 0.951 . S
H1889 C1915 0.959 . S
H1890 C1916 0.950 1_655 S
H1891 C1918 0.950 . S
H1892 C1921 0.950 . S
H1893 C1922 0.950 . S
H1894 C1924 0.941 1_545 S
H1895 C1925 0.950 1_544 S
C1896 H1878 0.951 . S
C1896 C1897 1.366 . S
C1896 C1898 1.388 . S
C1897 C1896 1.366 . S
C1897 C1901 1.385 . S
C1898 H1879 0.951 . S
C1898 C1896 1.388 . S
C1898 C1899 1.366 . S
C1899 C1898 1.366 . S
C1899 C1900 1.408 1_655 S
C1899 C1902 1.499 . S
C1900 H1880 0.959 . S
C1900 C1899 1.408 1_455 S
C1900 C1901 1.371 1_455 S
C1901 H1881 0.950 1_655 S
C1901 C1897 1.385 . S
C1901 C1900 1.371 1_655 S
C1902 C1899 1.499 . S
C1902 C1903 1.373 1_655 S
C1902 C1904 1.389 1_556 S
C1903 H1882 0.950 . S
C1903 C1902 1.373 1_455 S
C1903 C1919 1.377 1_545 S
C1904 C1902 1.389 1_554 S
C1904 C1905 1.524 . S
C1904 C1918 1.377 1_545 S
C1905 C1904 1.524 . S
C1905 C1906 1.397 . S
C1905 C1910 1.363 . S
C1906 H1883 0.950 . S
C1906 C1905 1.397 . S
C1906 C1907 1.334 . S
C1907 H1884 0.950 . S
C1907 C1906 1.334 . S
C1907 C1908 1.287 . S
C1908 C1907 1.287 . S
C1908 C1909 1.524 . S
C1908 H1927 0.913 . S
C1909 H1885 0.941 1_545 S
C1909 C1908 1.524 . S
C1909 C1910 1.415 . S
C1910 H1886 0.950 1_544 S
C1910 C1905 1.363 . S
C1910 C1909 1.415 . S
C1911 H1887 0.951 . S
C1911 C1912 1.366 . S
C1911 C1913 1.388 . S
C1912 C1911 1.366 . S
C1912 C1916 1.385 . S
C1913 H1888 0.951 . S
C1913 C1911 1.388 . S
C1913 C1914 1.366 . S
C1914 C1913 1.366 . S
C1914 C1915 1.408 1_455 S
C1914 C1917 1.499 . S
C1915 H1889 0.959 . S
C1915 C1914 1.408 1_655 S
C1915 C1916 1.371 1_655 S
C1916 H1890 0.950 1_455 S
C1916 C1912 1.385 . S
C1916 C1915 1.371 1_455 S
C1917 C1914 1.499 . S
C1917 C1918 1.373 1_455 S
C1917 C1919 1.389 1_554 S
C1918 H1891 0.950 . S
C1918 C1904 1.377 1_565 S
C1918 C1917 1.373 1_655 S
C1919 C1903 1.377 1_565 S
C1919 C1917 1.389 1_556 S
C1919 C1920 1.524 . S
C1920 C1919 1.524 . S
C1920 C1921 1.397 . S
C1920 C1925 1.363 . S
C1921 H1892 0.950 . S
C1921 C1920 1.397 . S
C1921 C1922 1.334 . S
C1922 H1893 0.950 . S
C1922 C1921 1.334 . S
C1922 C1923 1.287 . S
C1923 C1922 1.287 . S
C1923 C1924 1.524 . S
C1923 H1926 0.999 . S
C1924 H1894 0.941 1_565 S
C1924 C1923 1.524 . S
C1924 C1925 1.415 . S
C1925 H1895 0.950 1_566 S
C1925 C1920 1.363 . S
C1925 C1924 1.415 . S
H1926 C1923 0.999 . S
H1927 C1908 0.913 . S
H1928 C1946 0.951 . S
H1929 C1948 0.951 . S
H1930 C1950 0.950 . S
H1931 C1951 0.950 . S
H1932 C1953 0.950 . S
H1933 C1956 0.950 . S
H1934 C1957 0.950 . S
H1935 C1959 0.950 . S
H1936 C1960 0.950 . S
H1937 C1961 0.951 . S
H1938 C1963 0.951 . S
H1939 C1965 0.950 . S
H1940 C1966 0.950 . S
H1941 C1968 0.950 . S
H1942 C1971 0.950 . S
H1943 C1972 0.950 . S
H1944 C1974 0.950 . S
H1945 C1975 0.950 . S
C1946 H1928 0.951 . S
C1946 C1947 1.366 . S
C1946 C1948 1.388 . S
C1947 C1946 1.366 . S
C1947 C1951 1.385 . S
C1948 H1929 0.951 . S
C1948 C1946 1.388 . S
C1948 C1949 1.366 . S
C1949 C1948 1.366 . S
C1949 C1950 1.414 . S
C1949 C1952 1.499 . S
C1950 H1930 0.950 . S
C1950 C1949 1.414 . S
C1950 C1951 1.374 . S
C1951 H1931 0.950 . S
C1951 C1947 1.385 . S
C1951 C1950 1.374 . S
C1952 C1949 1.499 . S
C1952 C1953 1.373 . S
C1952 C1954 1.389 1_545 S
C1953 H1932 0.950 . S
C1953 C1952 1.373 . S
C1953 C1969 1.377 1_655 S
C1954 C1952 1.389 1_565 S
C1954 C1955 1.524 . S
C1954 C1968 1.377 1_655 S
C1955 C1954 1.524 . S
C1955 C1956 1.397 . S
C1955 C1960 1.363 . S
C1956 H1933 0.950 . S
C1956 C1955 1.397 . S
C1956 C1957 1.334 . S
C1957 H1934 0.950 . S
C1957 C1956 1.334 . S
C1957 C1958 1.287 . S
C1958 C1957 1.287 . S
C1958 C1959 1.524 . S
C1958 H1977 0.913 . S
C1959 H1935 0.950 . S
C1959 C1958 1.524 . S
C1959 C1960 1.415 . S
C1960 H1936 0.950 . S
C1960 C1955 1.363 . S
C1960 C1959 1.415 . S
C1961 H1937 0.951 . S
C1961 C1962 1.366 . S
C1961 C1963 1.388 . S
C1962 C1961 1.366 . S
C1962 C1966 1.385 . S
C1963 H1938 0.951 . S
C1963 C1961 1.388 . S
C1963 C1964 1.366 . S
C1964 C1963 1.366 . S
C1964 C1965 1.414 . S
C1964 C1967 1.499 . S
C1965 H1939 0.950 . S
C1965 C1964 1.414 . S
C1965 C1966 1.374 . S
C1966 H1940 0.950 . S
C1966 C1962 1.385 . S
C1966 C1965 1.374 . S
C1967 C1964 1.499 . S
C1967 C1968 1.373 . S
C1967 C1969 1.389 1_565 S
C1968 H1941 0.950 . S
C1968 C1954 1.377 1_455 S
C1968 C1967 1.373 . S
C1969 C1953 1.377 1_455 S
C1969 C1967 1.389 1_545 S
C1969 C1970 1.524 . S
C1970 C1969 1.524 . S
C1970 C1971 1.397 . S
C1970 C1975 1.363 . S
C1971 H1942 0.950 . S
C1971 C1970 1.397 . S
C1971 C1972 1.334 . S
C1972 H1943 0.950 . S
C1972 C1971 1.334 . S
C1972 C1973 1.287 . S
C1973 C1972 1.287 . S
C1973 C1974 1.524 . S
C1973 H1976 0.999 . S
C1974 H1944 0.950 . S
C1974 C1973 1.524 . S
C1974 C1975 1.415 . S
C1975 H1945 0.950 . S
C1975 C1970 1.363 . S
C1975 C1974 1.415 . S
H1976 C1973 0.999 . S
H1977 C1958 0.913 . S
H1978 C1996 0.951 . S
H1979 C1998 0.951 . S
H1980 C2000 0.950 . S
H1981 C2001 0.950 . S
H1982 C2003 0.950 . S
H1983 C2006 0.950 . S
H1984 C2007 0.950 . S
H1985 C2009 0.950 . S
H1986 C2010 0.950 . S
H1987 C2011 0.951 . S
H1988 C2013 0.951 . S
H1989 C2015 0.950 . S
H1990 C2016 0.950 . S
H1991 C2018 0.950 . S
H1992 C2021 0.950 . S
H1993 C2022 0.950 . S
H1994 C2024 0.950 . S
H1995 C2025 0.950 . S
C1996 H1978 0.951 . S
C1996 C1997 1.366 . S
C1996 C1998 1.388 . S
C1997 C1996 1.366 . S
C1997 C2001 1.385 . S
C1998 H1979 0.951 . S
C1998 C1996 1.388 . S
C1998 C1999 1.366 . S
C1999 C1998 1.366 . S
C1999 C2000 1.414 . S
C1999 C2002 1.499 . S
C2000 H1980 0.950 . S
C2000 C1999 1.414 . S
C2000 C2001 1.374 . S
C2001 H1981 0.950 . S
C2001 C1997 1.385 . S
C2001 C2000 1.374 . S
C2002 C1999 1.499 . S
C2002 C2003 1.373 . S
C2002 C2004 1.389 . S
C2003 H1982 0.950 . S
C2003 C2002 1.373 . S
C2003 C2019 1.377 1_545 S
C2004 C2002 1.389 . S
C2004 C2005 1.524 . S
C2004 C2018 1.377 1_545 S
C2005 C2004 1.524 . S
C2005 C2006 1.397 . S
C2005 C2010 1.363 . S
C2006 H1983 0.950 . S
C2006 C2005 1.397 . S
C2006 C2007 1.334 . S
C2007 H1984 0.950 . S
C2007 C2006 1.334 . S
C2007 C2008 1.287 . S
C2008 C2007 1.287 . S
C2008 C2009 1.524 . S
C2008 H2027 0.913 . S
C2009 H1985 0.950 . S
C2009 C2008 1.524 . S
C2009 C2010 1.415 . S
C2010 H1986 0.950 . S
C2010 C2005 1.363 . S
C2010 C2009 1.415 . S
C2011 H1987 0.951 . S
C2011 C2012 1.366 . S
C2011 C2013 1.388 . S
C2012 C2011 1.366 . S
C2012 C2016 1.385 . S
C2013 H1988 0.951 . S
C2013 C2011 1.388 . S
C2013 C2014 1.366 . S
C2014 C2013 1.366 . S
C2014 C2015 1.414 . S
C2014 C2017 1.499 . S
C2015 H1989 0.950 . S
C2015 C2014 1.414 . S
C2015 C2016 1.374 . S
C2016 H1990 0.950 . S
C2016 C2012 1.385 . S
C2016 C2015 1.374 . S
C2017 C2014 1.499 . S
C2017 C2018 1.373 . S
C2017 C2019 1.389 . S
C2018 H1991 0.950 . S
C2018 C2004 1.377 1_565 S
C2018 C2017 1.373 . S
C2019 C2003 1.377 1_565 S
C2019 C2017 1.389 . S
C2019 C2020 1.524 . S
C2020 C2019 1.524 . S
C2020 C2021 1.397 . S
C2020 C2025 1.363 . S
C2021 H1992 0.950 . S
C2021 C2020 1.397 . S
C2021 C2022 1.334 . S
C2022 H1993 0.950 . S
C2022 C2021 1.334 . S
C2022 C2023 1.287 . S
C2023 C2022 1.287 . S
C2023 C2024 1.524 . S
C2023 H2026 0.999 . S
C2024 H1994 0.950 . S
C2024 C2023 1.524 . S
C2024 C2025 1.415 . S
C2025 H1995 0.950 . S
C2025 C2020 1.363 . S
C2025 C2024 1.415 . S
H2026 C2023 0.999 . S
H2027 C2008 0.913 . S
H2028 C2046 0.951 . S
H2029 C2048 0.951 . S
H2030 C2050 0.950 . S
H2031 C2051 0.950 . S
H2032 C2053 0.950 . S
H2033 C2056 0.950 . S
H2034 C2057 0.950 . S
H2035 C2059 0.950 . S
H2036 C2060 0.950 . S
H2037 C2061 0.951 . S
H2038 C2063 0.951 . S
H2039 C2065 0.950 . S
H2040 C2066 0.950 . S
H2041 C2068 0.950 . S
H2042 C2071 0.950 . S
H2043 C2072 0.950 . S
H2044 C2074 0.950 . S
H2045 C2075 0.950 . S
C2046 H2028 0.951 . S
C2046 C2047 1.366 . S
C2046 C2048 1.388 . S
C2047 C2046 1.366 . S
C2047 C2051 1.385 . S
C2048 H2029 0.951 . S
C2048 C2046 1.388 . S
C2048 C2049 1.366 . S
C2049 C2048 1.366 . S
C2049 C2050 1.414 . S
C2049 C2052 1.499 . S
C2050 H2030 0.950 . S
C2050 C2049 1.414 . S
C2050 C2051 1.374 . S
C2051 H2031 0.950 . S
C2051 C2047 1.385 . S
C2051 C2050 1.374 . S
C2052 C2049 1.499 . S
C2052 C2053 1.373 . S
C2052 C2054 1.389 . S
C2053 H2032 0.950 . S
C2053 C2052 1.373 . S
C2053 C2069 1.377 . S
C2054 C2052 1.389 . S
C2054 C2055 1.524 . S
C2054 C2068 1.377 . S
C2055 C2054 1.524 . S
C2055 C2056 1.397 . S
C2055 C2060 1.363 . S
C2056 H2033 0.950 . S
C2056 C2055 1.397 . S
C2056 C2057 1.334 . S
C2057 H2034 0.950 . S
C2057 C2056 1.334 . S
C2057 C2058 1.287 . S
C2058 C2057 1.287 . S
C2058 C2059 1.524 . S
C2058 H2077 0.913 . S
C2059 H2035 0.950 . S
C2059 C2058 1.524 . S
C2059 C2060 1.415 . S
C2060 H2036 0.950 . S
C2060 C2055 1.363 . S
C2060 C2059 1.415 . S
C2061 H2037 0.951 . S
C2061 C2062 1.366 . S
C2061 C2063 1.388 . S
C2062 C2061 1.366 . S
C2062 C2066 1.385 . S
C2063 H2038 0.951 . S
C2063 C2061 1.388 . S
C2063 C2064 1.366 . S
C2064 C2063 1.366 . S
C2064 C2065 1.414 . S
C2064 C2067 1.499 . S
C2065 H2039 0.950 . S
C2065 C2064 1.414 . S
C2065 C2066 1.374 . S
C2066 H2040 0.950 . S
C2066 C2062 1.385 . S
C2066 C2065 1.374 . S
C2067 C2064 1.499 . S
C2067 C2068 1.373 . S
C2067 C2069 1.389 . S
C2068 H2041 0.950 . S
C2068 C2054 1.377 . S
C2068 C2067 1.373 . S
C2069 C2053 1.377 . S
C2069 C2067 1.389 . S
C2069 C2070 1.524 . S
C2070 C2069 1.524 . S
C2070 C2071 1.397 . S
C2070 C2075 1.363 . S
C2071 H2042 0.950 . S
C2071 C2070 1.397 . S
C2071 C2072 1.334 . S
C2072 H2043 0.950 . S
C2072 C2071 1.334 . S
C2072 C2073 1.287 . S
C2073 C2072 1.287 . S
C2073 C2074 1.524 . S
C2073 H2076 0.999 . S
C2074 H2044 0.950 . S
C2074 C2073 1.524 . S
C2074 C2075 1.415 . S
C2075 H2045 0.950 . S
C2075 C2070 1.363 . S
C2075 C2074 1.415 . S
H2076 C2073 0.999 . S
H2077 C2058 0.913 . S
H2078 C2096 0.951 . S
H2079 C2098 0.951 . S
H2080 C2100 0.950 . S
H2081 C2101 0.950 1_655 S
H2082 C2103 0.950 . S
H2083 C2106 0.950 . S
H2084 C2107 0.950 . S
H2085 C2109 0.950 . S
H2086 C2110 0.950 . S
H2087 C2111 0.951 . S
H2088 C2113 0.951 . S
H2089 C2115 0.950 . S
H2090 C2116 0.950 1_455 S
H2091 C2118 0.950 . S
H2092 C2121 0.950 . S
H2093 C2122 0.950 . S
H2094 C2124 0.950 . S
H2095 C2125 0.950 . S
C2096 H2078 0.951 . S
C2096 C2097 1.366 . S
C2096 C2098 1.388 . S
C2097 C2096 1.366 . S
C2097 C2101 1.385 . S
C2098 H2079 0.951 . S
C2098 C2096 1.388 . S
C2098 C2099 1.366 . S
C2099 C2098 1.366 . S
C2099 C2100 1.414 1_455 S
C2099 C2102 1.499 . S
C2100 H2080 0.950 . S
C2100 C2099 1.414 1_655 S
C2100 C2101 1.374 1_655 S
C2101 H2081 0.950 1_455 S
C2101 C2097 1.385 . S
C2101 C2100 1.374 1_455 S
C2102 C2099 1.499 . S
C2102 C2103 1.373 1_455 S
C2102 C2104 1.389 . S
C2103 H2082 0.950 . S
C2103 C2102 1.373 1_655 S
C2103 C2119 1.377 . S
C2104 C2102 1.389 . S
C2104 C2105 1.524 . S
C2104 C2118 1.377 . S
C2105 C2104 1.524 . S
C2105 C2106 1.397 . S
C2105 C2110 1.363 . S
C2106 H2083 0.950 . S
C2106 C2105 1.397 . S
C2106 C2107 1.334 . S
C2107 H2084 0.950 . S
C2107 C2106 1.334 . S
C2107 C2108 1.287 . S
C2108 C2107 1.287 . S
C2108 C2109 1.524 . S
C2108 H2127 0.913 . S
C2109 H2085 0.950 . S
C2109 C2108 1.524 . S
C2109 C2110 1.415 . S
C2110 H2086 0.950 . S
C2110 C2105 1.363 . S
C2110 C2109 1.415 . S
C2111 H2087 0.951 . S
C2111 C2112 1.366 . S
C2111 C2113 1.388 . S
C2112 C2111 1.366 . S
C2112 C2116 1.385 . S
C2113 H2088 0.951 . S
C2113 C2111 1.388 . S
C2113 C2114 1.366 . S
C2114 C2113 1.366 . S
C2114 C2115 1.414 1_655 S
C2114 C2117 1.499 . S
C2115 H2089 0.950 . S
C2115 C2114 1.414 1_455 S
C2115 C2116 1.374 1_455 S
C2116 H2090 0.950 1_655 S
C2116 C2112 1.385 . S
C2116 C2115 1.374 1_655 S
C2117 C2114 1.499 . S
C2117 C2118 1.373 1_655 S
C2117 C2119 1.389 . S
C2118 H2091 0.950 . S
C2118 C2104 1.377 . S
C2118 C2117 1.373 1_455 S
C2119 C2103 1.377 . S
C2119 C2117 1.389 . S
C2119 C2120 1.524 . S
C2120 C2119 1.524 . S
C2120 C2121 1.397 . S
C2120 C2125 1.363 . S
C2121 H2092 0.950 . S
C2121 C2120 1.397 . S
C2121 C2122 1.334 . S
C2122 H2093 0.950 . S
C2122 C2121 1.334 . S
C2122 C2123 1.287 . S
C2123 C2122 1.287 . S
C2123 C2124 1.524 . S
C2123 H2126 0.999 . S
C2124 H2094 0.950 . S
C2124 C2123 1.524 . S
C2124 C2125 1.415 . S
C2125 H2095 0.950 . S
C2125 C2120 1.363 . S
C2125 C2124 1.415 . S
H2126 C2123 0.999 . S
H2127 C2108 0.913 . S
H2128 C2146 0.951 . S
H2129 C2148 0.951 . S
H2130 C2150 0.950 . S
H2131 C2151 0.950 . S
H2132 C2153 0.950 . S
H2133 C2156 0.950 . S
H2134 C2157 0.950 . S
H2135 C2159 0.950 . S
H2136 C2160 0.950 . S
H2137 C2161 0.951 . S
H2138 C2163 0.951 . S
H2139 C2165 0.950 . S
H2140 C2166 0.950 . S
H2141 C2168 0.950 . S
H2142 C2171 0.950 . S
H2143 C2172 0.950 . S
H2144 C2174 0.950 . S
H2145 C2175 0.950 . S
C2146 H2128 0.951 . S
C2146 C2147 1.366 . S
C2146 C2148 1.388 . S
C2147 C2146 1.366 . S
C2147 C2151 1.385 . S
C2148 H2129 0.951 . S
C2148 C2146 1.388 . S
C2148 C2149 1.366 . S
C2149 C2148 1.366 . S
C2149 C2150 1.414 . S
C2149 C2152 1.499 . S
C2150 H2130 0.950 . S
C2150 C2149 1.414 . S
C2150 C2151 1.374 . S
C2151 H2131 0.950 . S
C2151 C2147 1.385 . S
C2151 C2150 1.374 . S
C2152 C2149 1.499 . S
C2152 C2153 1.373 . S
C2152 C2154 1.389 . S
C2153 H2132 0.950 . S
C2153 C2152 1.373 . S
C2153 C2169 1.377 . S
C2154 C2152 1.389 . S
C2154 C2155 1.524 . S
C2154 C2168 1.377 . S
C2155 C2154 1.524 . S
C2155 C2156 1.397 . S
C2155 C2160 1.363 . S
C2156 H2133 0.950 . S
C2156 C2155 1.397 . S
C2156 C2157 1.334 . S
C2157 H2134 0.950 . S
C2157 C2156 1.334 . S
C2157 C2158 1.287 . S
C2158 C2157 1.287 . S
C2158 C2159 1.524 . S
C2158 H2177 0.913 . S
C2159 H2135 0.950 . S
C2159 C2158 1.524 . S
C2159 C2160 1.415 . S
C2160 H2136 0.950 . S
C2160 C2155 1.363 . S
C2160 C2159 1.415 . S
C2161 H2137 0.951 . S
C2161 C2162 1.366 . S
C2161 C2163 1.388 . S
C2162 C2161 1.366 . S
C2162 C2166 1.385 . S
C2163 H2138 0.951 . S
C2163 C2161 1.388 . S
C2163 C2164 1.366 . S
C2164 C2163 1.366 . S
C2164 C2165 1.414 . S
C2164 C2167 1.499 . S
C2165 H2139 0.950 . S
C2165 C2164 1.414 . S
C2165 C2166 1.374 . S
C2166 H2140 0.950 . S
C2166 C2162 1.385 . S
C2166 C2165 1.374 . S
C2167 C2164 1.499 . S
C2167 C2168 1.373 . S
C2167 C2169 1.389 . S
C2168 H2141 0.950 . S
C2168 C2154 1.377 . S
C2168 C2167 1.373 . S
C2169 C2153 1.377 . S
C2169 C2167 1.389 . S
C2169 C2170 1.524 . S
C2170 C2169 1.524 . S
C2170 C2171 1.397 . S
C2170 C2175 1.363 . S
C2171 H2142 0.950 . S
C2171 C2170 1.397 . S
C2171 C2172 1.334 . S
C2172 H2143 0.950 . S
C2172 C2171 1.334 . S
C2172 C2173 1.287 . S
C2173 C2172 1.287 . S
C2173 C2174 1.524 . S
C2173 H2176 0.999 . S
C2174 H2144 0.950 . S
C2174 C2173 1.524 . S
C2174 C2175 1.415 . S
C2175 H2145 0.950 . S
C2175 C2170 1.363 . S
C2175 C2174 1.415 . S
H2176 C2173 0.999 . S
H2177 C2158 0.913 . S
H2178 C2196 0.951 . S
H2179 C2198 0.951 . S
H2180 C2200 0.950 . S
H2181 C2201 0.950 . S
H2182 C2203 0.950 . S
H2183 C2206 0.950 . S
H2184 C2207 0.950 . S
H2185 C2209 0.950 . S
H2186 C2210 0.950 . S
H2187 C2211 0.951 . S
H2188 C2213 0.951 . S
H2189 C2215 0.950 . S
H2190 C2216 0.950 . S
H2191 C2218 0.950 . S
H2192 C2221 0.950 . S
H2193 C2222 0.950 . S
H2194 C2224 0.950 . S
H2195 C2225 0.950 . S
C2196 H2178 0.951 . S
C2196 C2197 1.366 . S
C2196 C2198 1.388 . S
C2197 C2196 1.366 . S
C2197 C2201 1.385 . S
C2198 H2179 0.951 . S
C2198 C2196 1.388 . S
C2198 C2199 1.366 . S
C2199 C2198 1.366 . S
C2199 C2200 1.414 . S
C2199 C2202 1.499 . S
C2200 H2180 0.950 . S
C2200 C2199 1.414 . S
C2200 C2201 1.374 . S
C2201 H2181 0.950 . S
C2201 C2197 1.385 . S
C2201 C2200 1.374 . S
C2202 C2199 1.499 . S
C2202 C2203 1.373 . S
C2202 C2204 1.389 . S
C2203 H2182 0.950 . S
C2203 C2202 1.373 . S
C2203 C2219 1.377 . S
C2204 C2202 1.389 . S
C2204 C2205 1.524 . S
C2204 C2218 1.377 . S
C2205 C2204 1.524 . S
C2205 C2206 1.397 . S
C2205 C2210 1.363 . S
C2206 H2183 0.950 . S
C2206 C2205 1.397 . S
C2206 C2207 1.334 . S
C2207 H2184 0.950 . S
C2207 C2206 1.334 . S
C2207 C2208 1.287 . S
C2208 C2207 1.287 . S
C2208 C2209 1.524 . S
C2208 H2227 0.913 . S
C2209 H2185 0.950 . S
C2209 C2208 1.524 . S
C2209 C2210 1.415 . S
C2210 H2186 0.950 . S
C2210 C2205 1.363 . S
C2210 C2209 1.415 . S
C2211 H2187 0.951 . S
C2211 C2212 1.366 . S
C2211 C2213 1.388 . S
C2212 C2211 1.366 . S
C2212 C2216 1.385 . S
C2213 H2188 0.951 . S
C2213 C2211 1.388 . S
C2213 C2214 1.366 . S
C2214 C2213 1.366 . S
C2214 C2215 1.414 . S
C2214 C2217 1.499 . S
C2215 H2189 0.950 . S
C2215 C2214 1.414 . S
C2215 C2216 1.374 . S
C2216 H2190 0.950 . S
C2216 C2212 1.385 . S
C2216 C2215 1.374 . S
C2217 C2214 1.499 . S
C2217 C2218 1.373 . S
C2217 C2219 1.389 . S
C2218 H2191 0.950 . S
C2218 C2204 1.377 . S
C2218 C2217 1.373 . S
C2219 C2203 1.377 . S
C2219 C2217 1.389 . S
C2219 C2220 1.524 . S
C2220 C2219 1.524 . S
C2220 C2221 1.397 . S
C2220 C2225 1.363 . S
C2221 H2192 0.950 . S
C2221 C2220 1.397 . S
C2221 C2222 1.334 . S
C2222 H2193 0.950 . S
C2222 C2221 1.334 . S
C2222 C2223 1.287 . S
C2223 C2222 1.287 . S
C2223 C2224 1.524 . S
C2223 H2226 0.999 . S
C2224 H2194 0.950 . S
C2224 C2223 1.524 . S
C2224 C2225 1.415 . S
C2225 H2195 0.950 . S
C2225 C2220 1.363 . S
C2225 C2224 1.415 . S
H2226 C2223 0.999 . S
H2227 C2208 0.913 . S
H2228 C2246 0.951 . S
H2229 C2248 0.951 . S
H2230 C2250 0.950 . S
H2231 C2251 0.950 . S
H2232 C2253 0.950 . S
H2233 C2256 0.950 . S
H2234 C2257 0.950 . S
H2235 C2259 0.950 1_455 S
H2236 C2260 0.950 . S
H2237 C2261 0.951 . S
H2238 C2263 0.951 . S
H2239 C2265 0.950 . S
H2240 C2266 0.950 . S
H2241 C2268 0.950 . S
H2242 C2271 0.950 . S
H2243 C2272 0.950 . S
H2244 C2274 0.950 . S
H2245 C2275 0.950 . S
C2246 H2228 0.951 . S
C2246 C2247 1.366 . S
C2246 C2248 1.388 . S
C2247 C2246 1.366 . S
C2247 C2251 1.385 . S
C2248 H2229 0.951 . S
C2248 C2246 1.388 . S
C2248 C2249 1.366 . S
C2249 C2248 1.366 . S
C2249 C2250 1.414 . S
C2249 C2252 1.499 . S
C2250 H2230 0.950 . S
C2250 C2249 1.414 . S
C2250 C2251 1.374 . S
C2251 H2231 0.950 . S
C2251 C2247 1.385 . S
C2251 C2250 1.374 . S
C2252 C2249 1.499 . S
C2252 C2253 1.373 . S
C2252 C2254 1.389 . S
C2253 H2232 0.950 . S
C2253 C2252 1.373 . S
C2253 C2269 1.377 . S
C2254 C2252 1.389 . S
C2254 C2255 1.524 . S
C2254 C2268 1.377 . S
C2255 C2254 1.524 . S
C2255 C2256 1.397 . S
C2255 C2260 1.363 . S
C2256 H2233 0.950 . S
C2256 C2255 1.397 . S
C2256 C2257 1.334 . S
C2257 H2234 0.950 . S
C2257 C2256 1.334 . S
C2257 C2258 1.287 . S
C2258 C2257 1.287 . S
C2258 C2259 1.524 . S
C2258 H2277 0.913 . S
C2259 H2235 0.950 1_655 S
C2259 C2258 1.524 . S
C2259 C2260 1.415 . S
C2260 H2236 0.950 . S
C2260 C2255 1.363 . S
C2260 C2259 1.415 . S
C2261 H2237 0.951 . S
C2261 C2262 1.366 . S
C2261 C2263 1.388 . S
C2262 C2261 1.366 . S
C2262 C2266 1.385 . S
C2263 H2238 0.951 . S
C2263 C2261 1.388 . S
C2263 C2264 1.366 . S
C2264 C2263 1.366 . S
C2264 C2265 1.414 . S
C2264 C2267 1.499 . S
C2265 H2239 0.950 . S
C2265 C2264 1.414 . S
C2265 C2266 1.374 . S
C2266 H2240 0.950 . S
C2266 C2262 1.385 . S
C2266 C2265 1.374 . S
C2267 C2264 1.499 . S
C2267 C2268 1.373 . S
C2267 C2269 1.389 . S
C2268 H2241 0.950 . S
C2268 C2254 1.377 . S
C2268 C2267 1.373 . S
C2269 C2253 1.377 . S
C2269 C2267 1.389 . S
C2269 C2270 1.524 . S
C2270 C2269 1.524 . S
C2270 C2271 1.397 . S
C2270 C2275 1.363 . S
C2271 H2242 0.950 . S
C2271 C2270 1.397 . S
C2271 C2272 1.334 . S
C2272 H2243 0.950 . S
C2272 C2271 1.334 . S
C2272 C2273 1.287 . S
C2273 C2272 1.287 . S
C2273 C2274 1.524 . S
C2273 H2276 0.999 . S
C2274 H2244 0.950 . S
C2274 C2273 1.524 . S
C2274 C2275 1.415 . S
C2275 H2245 0.950 . S
C2275 C2270 1.363 . S
C2275 C2274 1.415 . S
H2276 C2273 0.999 . S
H2277 C2258 0.913 . S
H2278 C2296 0.951 . S
H2279 C2298 0.951 . S
H2280 C2300 0.950 . S
H2281 C2301 0.950 . S
H2282 C2303 0.950 . S
H2283 C2306 0.950 . S
H2284 C2307 0.950 1_545 S
H2285 C2309 0.950 . S
H2286 C2310 0.950 . S
H2287 C2311 0.951 . S
H2288 C2313 0.951 . S
H2289 C2315 0.950 . S
H2290 C2316 0.950 . S
H2291 C2318 0.950 . S
H2292 C2321 0.950 . S
H2293 C2322 0.950 . S
H2294 C2324 0.950 . S
H2295 C2325 0.950 . S
C2296 H2278 0.951 . S
C2296 C2297 1.366 . S
C2296 C2298 1.388 . S
C2297 C2296 1.366 . S
C2297 C2301 1.385 . S
C2298 H2279 0.951 . S
C2298 C2296 1.388 . S
C2298 C2299 1.366 . S
C2299 C2298 1.366 . S
C2299 C2300 1.414 . S
C2299 C2302 1.499 . S
C2300 H2280 0.950 . S
C2300 C2299 1.414 . S
C2300 C2301 1.374 . S
C2301 H2281 0.950 . S
C2301 C2297 1.385 . S
C2301 C2300 1.374 . S
C2302 C2299 1.499 . S
C2302 C2303 1.373 . S
C2302 C2304 1.389 . S
C2303 H2282 0.950 . S
C2303 C2302 1.373 . S
C2303 C2319 1.377 . S
C2304 C2302 1.389 . S
C2304 C2305 1.524 . S
C2304 C2318 1.377 . S
C2305 C2304 1.524 . S
C2305 C2306 1.397 . S
C2305 C2310 1.363 . S
C2306 H2283 0.950 . S
C2306 C2305 1.397 . S
C2306 C2307 1.334 . S
C2307 H2284 0.950 1_565 S
C2307 C2306 1.334 . S
C2307 C2308 1.287 1_565 S
C2308 C2307 1.287 1_545 S
C2308 C2309 1.524 1_545 S
C2308 H2327 0.913 . S
C2309 H2285 0.950 . S
C2309 C2308 1.524 1_565 S
C2309 C2310 1.415 . S
C2310 H2286 0.950 . S
C2310 C2305 1.363 . S
C2310 C2309 1.415 . S
C2311 H2287 0.951 . S
C2311 C2312 1.366 . S
C2311 C2313 1.388 . S
C2312 C2311 1.366 . S
C2312 C2316 1.385 . S
C2313 H2288 0.951 . S
C2313 C2311 1.388 . S
C2313 C2314 1.366 . S
C2314 C2313 1.366 . S
C2314 C2315 1.414 . S
C2314 C2317 1.499 . S
C2315 H2289 0.950 . S
C2315 C2314 1.414 . S
C2315 C2316 1.374 . S
C2316 H2290 0.950 . S
C2316 C2312 1.385 . S
C2316 C2315 1.374 . S
C2317 C2314 1.499 . S
C2317 C2318 1.373 . S
C2317 C2319 1.389 . S
C2318 H2291 0.950 . S
C2318 C2304 1.377 . S
C2318 C2317 1.373 . S
C2319 C2303 1.377 . S
C2319 C2317 1.389 . S
C2319 C2320 1.524 . S
C2320 C2319 1.524 . S
C2320 C2321 1.397 . S
C2320 C2325 1.363 . S
C2321 H2292 0.950 . S
C2321 C2320 1.397 . S
C2321 C2322 1.334 . S
C2322 H2293 0.950 . S
C2322 C2321 1.334 . S
C2322 C2323 1.287 . S
C2323 C2322 1.287 . S
C2323 C2324 1.524 . S
C2323 H2326 0.999 . S
C2324 H2294 0.950 . S
C2324 C2323 1.524 . S
C2324 C2325 1.415 . S
C2325 H2295 0.950 . S
C2325 C2320 1.363 . S
C2325 C2324 1.415 . S
H2326 C2323 0.999 . S
H2327 C2308 0.913 . S
H2328 C2346 0.951 . S
H2329 C2348 0.951 . S
H2330 C2350 0.950 . S
H2331 C2351 0.950 . S
H2332 C2353 0.950 . S
H2333 C2356 0.950 . S
H2334 C2357 0.950 . S
H2335 C2359 0.950 . S
H2336 C2360 0.950 . S
H2337 C2361 0.951 . S
H2338 C2363 0.951 . S
H2339 C2365 0.950 . S
H2340 C2366 0.950 . S
H2341 C2368 0.950 . S
H2342 C2371 0.950 . S
H2343 C2372 0.950 . S
H2344 C2374 0.950 . S
H2345 C2375 0.950 . S
C2346 H2328 0.951 . S
C2346 C2347 1.366 . S
C2346 C2348 1.388 . S
C2347 C2346 1.366 . S
C2347 C2351 1.385 . S
C2348 H2329 0.951 . S
C2348 C2346 1.388 . S
C2348 C2349 1.366 . S
C2349 C2348 1.366 . S
C2349 C2350 1.414 . S
C2349 C2352 1.499 . S
C2350 H2330 0.950 . S
C2350 C2349 1.414 . S
C2350 C2351 1.374 . S
C2351 H2331 0.950 . S
C2351 C2347 1.385 . S
C2351 C2350 1.374 . S
C2352 C2349 1.499 . S
C2352 C2353 1.373 . S
C2352 C2354 1.389 . S
C2353 H2332 0.950 . S
C2353 C2352 1.373 . S
C2353 C2369 1.377 . S
C2354 C2352 1.389 . S
C2354 C2355 1.524 . S
C2354 C2368 1.377 . S
C2355 C2354 1.524 . S
C2355 C2356 1.397 . S
C2355 C2360 1.363 . S
C2356 H2333 0.950 . S
C2356 C2355 1.397 . S
C2356 C2357 1.334 . S
C2357 H2334 0.950 . S
C2357 C2356 1.334 . S
C2357 C2358 1.287 . S
C2358 C2357 1.287 . S
C2358 C2359 1.524 . S
C2358 H2377 0.913 . S
C2359 H2335 0.950 . S
C2359 C2358 1.524 . S
C2359 C2360 1.415 . S
C2360 H2336 0.950 . S
C2360 C2355 1.363 . S
C2360 C2359 1.415 . S
C2361 H2337 0.951 . S
C2361 C2362 1.366 . S
C2361 C2363 1.388 . S
C2362 C2361 1.366 . S
C2362 C2366 1.385 . S
C2363 H2338 0.951 . S
C2363 C2361 1.388 . S
C2363 C2364 1.366 . S
C2364 C2363 1.366 . S
C2364 C2365 1.414 . S
C2364 C2367 1.499 . S
C2365 H2339 0.950 . S
C2365 C2364 1.414 . S
C2365 C2366 1.374 . S
C2366 H2340 0.950 . S
C2366 C2362 1.385 . S
C2366 C2365 1.374 . S
C2367 C2364 1.499 . S
C2367 C2368 1.373 . S
C2367 C2369 1.389 . S
C2368 H2341 0.950 . S
C2368 C2354 1.377 . S
C2368 C2367 1.373 . S
C2369 C2353 1.377 . S
C2369 C2367 1.389 . S
C2369 C2370 1.524 . S
C2370 C2369 1.524 . S
C2370 C2371 1.397 . S
C2370 C2375 1.363 . S
C2371 H2342 0.950 . S
C2371 C2370 1.397 . S
C2371 C2372 1.334 . S
C2372 H2343 0.950 . S
C2372 C2371 1.334 . S
C2372 C2373 1.287 . S
C2373 C2372 1.287 . S
C2373 C2374 1.524 . S
C2373 H2376 0.999 . S
C2374 H2344 0.950 . S
C2374 C2373 1.524 . S
C2374 C2375 1.415 . S
C2375 H2345 0.950 . S
C2375 C2370 1.363 . S
C2375 C2374 1.415 . S
H2376 C2373 0.999 . S
H2377 C2358 0.913 . S
H2378 C2396 0.951 . S
H2379 C2398 0.951 . S
H2380 C2400 0.950 . S
H2381 C2401 0.950 . S
H2382 C2403 0.950 . S
H2383 C2406 0.950 . S
H2384 C2407 0.950 . S
H2385 C2409 0.950 . S
H2386 C2410 0.950 . S
H2387 C2411 0.951 . S
H2388 C2413 0.951 . S
H2389 C2415 0.950 . S
H2390 C2416 0.950 . S
H2391 C2418 0.950 . S
H2392 C2421 0.950 . S
H2393 C2422 0.950 . S
H2394 C2424 0.950 . S
H2395 C2425 0.950 . S
C2396 H2378 0.951 . S
C2396 C2397 1.366 . S
C2396 C2398 1.388 . S
C2397 C2396 1.366 . S
C2397 C2401 1.385 . S
C2398 H2379 0.951 . S
C2398 C2396 1.388 . S
C2398 C2399 1.366 . S
C2399 C2398 1.366 . S
C2399 C2400 1.414 . S
C2399 C2402 1.499 . S
C2400 H2380 0.950 . S
C2400 C2399 1.414 . S
C2400 C2401 1.374 . S
C2401 H2381 0.950 . S
C2401 C2397 1.385 . S
C2401 C2400 1.374 . S
C2402 C2399 1.499 . S
C2402 C2403 1.373 . S
C2402 C2404 1.389 . S
C2403 H2382 0.950 . S
C2403 C2402 1.373 . S
C2403 C2419 1.377 . S
C2404 C2402 1.389 . S
C2404 C2405 1.524 . S
C2404 C2418 1.377 . S
C2405 C2404 1.524 . S
C2405 C2406 1.397 . S
C2405 C2410 1.363 . S
C2406 H2383 0.950 . S
C2406 C2405 1.397 . S
C2406 C2407 1.334 . S
C2407 H2384 0.950 . S
C2407 C2406 1.334 . S
C2407 C2408 1.287 . S
C2408 C2407 1.287 . S
C2408 C2409 1.524 . S
C2408 H2427 0.913 . S
C2409 H2385 0.950 . S
C2409 C2408 1.524 . S
C2409 C2410 1.415 . S
C2410 H2386 0.950 . S
C2410 C2405 1.363 . S
C2410 C2409 1.415 . S
C2411 H2387 0.951 . S
C2411 C2412 1.366 . S
C2411 C2413 1.388 . S
C2412 C2411 1.366 . S
C2412 C2416 1.385 . S
C2413 H2388 0.951 . S
C2413 C2411 1.388 . S
C2413 C2414 1.366 . S
C2414 C2413 1.366 . S
C2414 C2415 1.414 . S
C2414 C2417 1.499 . S
C2415 H2389 0.950 . S
C2415 C2414 1.414 . S
C2415 C2416 1.374 . S
C2416 H2390 0.950 . S
C2416 C2412 1.385 . S
C2416 C2415 1.374 . S
C2417 C2414 1.499 . S
C2417 C2418 1.373 . S
C2417 C2419 1.389 . S
C2418 H2391 0.950 . S
C2418 C2404 1.377 . S
C2418 C2417 1.373 . S
C2419 C2403 1.377 . S
C2419 C2417 1.389 . S
C2419 C2420 1.524 . S
C2420 C2419 1.524 . S
C2420 C2421 1.397 . S
C2420 C2425 1.363 . S
C2421 H2392 0.950 . S
C2421 C2420 1.397 . S
C2421 C2422 1.334 . S
C2422 H2393 0.950 . S
C2422 C2421 1.334 . S
C2422 C2423 1.287 . S
C2423 C2422 1.287 . S
C2423 C2424 1.524 . S
C2423 H2426 0.999 . S
C2424 H2394 0.950 . S
C2424 C2423 1.524 . S
C2424 C2425 1.415 . S
C2425 H2395 0.950 . S
C2425 C2420 1.363 . S
C2425 C2424 1.415 . S
H2426 C2423 0.999 . S
H2427 C2408 0.913 . S
H2428 C2446 0.951 . S
H2429 C2448 0.951 . S
H2430 C2450 0.950 . S
H2431 C2451 0.950 . S
H2432 C2453 0.950 . S
H2433 C2456 0.950 . S
H2434 C2457 0.950 . S
H2435 C2459 0.950 . S
H2436 C2460 0.950 . S
H2437 C2461 0.951 . S
H2438 C2463 0.951 . S
H2439 C2465 0.950 . S
H2440 C2466 0.950 . S
H2441 C2468 0.950 . S
H2442 C2471 0.950 . S
H2443 C2472 0.950 . S
H2444 C2474 0.950 1_655 S
H2445 C2475 0.950 . S
C2446 H2428 0.951 . S
C2446 C2447 1.366 . S
C2446 C2448 1.388 . S
C2447 C2446 1.366 . S
C2447 C2451 1.385 . S
C2448 H2429 0.951 . S
C2448 C2446 1.388 . S
C2448 C2449 1.366 . S
C2449 C2448 1.366 . S
C2449 C2450 1.414 . S
C2449 C2452 1.499 . S
C2450 H2430 0.950 . S
C2450 C2449 1.414 . S
C2450 C2451 1.374 . S
C2451 H2431 0.950 . S
C2451 C2447 1.385 . S
C2451 C2450 1.374 . S
C2452 C2449 1.499 . S
C2452 C2453 1.373 . S
C2452 C2454 1.389 . S
C2453 H2432 0.950 . S
C2453 C2452 1.373 . S
C2453 C2469 1.377 . S
C2454 C2452 1.389 . S
C2454 C2455 1.524 . S
C2454 C2468 1.377 . S
C2455 C2454 1.524 . S
C2455 C2456 1.397 . S
C2455 C2460 1.363 . S
C2456 H2433 0.950 . S
C2456 C2455 1.397 . S
C2456 C2457 1.334 . S
C2457 H2434 0.950 . S
C2457 C2456 1.334 . S
C2457 C2458 1.287 . S
C2458 C2457 1.287 . S
C2458 C2459 1.524 . S
C2458 H2477 0.913 . S
C2459 H2435 0.950 . S
C2459 C2458 1.524 . S
C2459 C2460 1.415 . S
C2460 H2436 0.950 . S
C2460 C2455 1.363 . S
C2460 C2459 1.415 . S
C2461 H2437 0.951 . S
C2461 C2462 1.366 . S
C2461 C2463 1.388 . S
C2462 C2461 1.366 . S
C2462 C2466 1.385 . S
C2463 H2438 0.951 . S
C2463 C2461 1.388 . S
C2463 C2464 1.366 . S
C2464 C2463 1.366 . S
C2464 C2465 1.414 . S
C2464 C2467 1.499 . S
C2465 H2439 0.950 . S
C2465 C2464 1.414 . S
C2465 C2466 1.374 . S
C2466 H2440 0.950 . S
C2466 C2462 1.385 . S
C2466 C2465 1.374 . S
C2467 C2464 1.499 . S
C2467 C2468 1.373 . S
C2467 C2469 1.389 . S
C2468 H2441 0.950 . S
C2468 C2454 1.377 . S
C2468 C2467 1.373 . S
C2469 C2453 1.377 . S
C2469 C2467 1.389 . S
C2469 C2470 1.524 . S
C2470 C2469 1.524 . S
C2470 C2471 1.397 . S
C2470 C2475 1.363 . S
C2471 H2442 0.950 . S
C2471 C2470 1.397 . S
C2471 C2472 1.334 . S
C2472 H2443 0.950 . S
C2472 C2471 1.334 . S
C2472 C2473 1.287 . S
C2473 C2472 1.287 . S
C2473 C2474 1.524 . S
C2473 H2476 0.967 1_455 S
C2474 H2444 0.950 1_455 S
C2474 C2473 1.524 . S
C2474 C2475 1.415 . S
C2475 H2445 0.950 . S
C2475 C2470 1.363 . S
C2475 C2474 1.415 . S
H2476 C2473 0.967 1_655 S
H2477 C2458 0.913 . S
H2478 C2496 0.951 . S
H2479 C2498 0.951 . S
H2480 C2500 0.950 . S
H2481 C2501 0.950 . S
H2482 C2503 0.950 . S
H2483 C2506 0.950 . S
H2484 C2507 0.950 . S
H2485 C2509 0.950 . S
H2486 C2510 0.950 . S
H2487 C2511 0.951 . S
H2488 C2513 0.951 . S
H2489 C2515 0.950 . S
H2490 C2516 0.950 . S
H2491 C2518 0.950 . S
H2492 C2521 0.950 . S
H2493 C2522 0.950 1_565 S
H2494 C2524 0.950 . S
H2495 C2525 0.950 . S
C2496 H2478 0.951 . S
C2496 C2497 1.366 . S
C2496 C2498 1.388 . S
C2497 C2496 1.366 . S
C2497 C2501 1.385 . S
C2498 H2479 0.951 . S
C2498 C2496 1.388 . S
C2498 C2499 1.366 . S
C2499 C2498 1.366 . S
C2499 C2500 1.414 . S
C2499 C2502 1.499 . S
C2500 H2480 0.950 . S
C2500 C2499 1.414 . S
C2500 C2501 1.374 . S
C2501 H2481 0.950 . S
C2501 C2497 1.385 . S
C2501 C2500 1.374 . S
C2502 C2499 1.499 . S
C2502 C2503 1.373 . S
C2502 C2504 1.389 . S
C2503 H2482 0.950 . S
C2503 C2502 1.373 . S
C2503 C2519 1.377 . S
C2504 C2502 1.389 . S
C2504 C2505 1.524 . S
C2504 C2518 1.377 . S
C2505 C2504 1.524 . S
C2505 C2506 1.397 . S
C2505 C2510 1.363 . S
C2506 H2483 0.950 . S
C2506 C2505 1.397 . S
C2506 C2507 1.334 . S
C2507 H2484 0.950 . S
C2507 C2506 1.334 . S
C2507 C2508 1.287 . S
C2508 C2507 1.287 . S
C2508 C2509 1.524 . S
C2508 H2527 0.913 . S
C2509 H2485 0.950 . S
C2509 C2508 1.524 . S
C2509 C2510 1.415 . S
C2510 H2486 0.950 . S
C2510 C2505 1.363 . S
C2510 C2509 1.415 . S
C2511 H2487 0.951 . S
C2511 C2512 1.366 . S
C2511 C2513 1.388 . S
C2512 C2511 1.366 . S
C2512 C2516 1.385 . S
C2513 H2488 0.951 . S
C2513 C2511 1.388 . S
C2513 C2514 1.366 . S
C2514 C2513 1.366 . S
C2514 C2515 1.414 . S
C2514 C2517 1.499 . S
C2515 H2489 0.950 . S
C2515 C2514 1.414 . S
C2515 C2516 1.374 . S
C2516 H2490 0.950 . S
C2516 C2512 1.385 . S
C2516 C2515 1.374 . S
C2517 C2514 1.499 . S
C2517 C2518 1.373 . S
C2517 C2519 1.389 . S
C2518 H2491 0.950 . S
C2518 C2504 1.377 . S
C2518 C2517 1.373 . S
C2519 C2503 1.377 . S
C2519 C2517 1.389 . S
C2519 C2520 1.524 . S
C2520 C2519 1.524 . S
C2520 C2521 1.397 . S
C2520 C2525 1.363 . S
C2521 H2492 0.950 . S
C2521 C2520 1.397 . S
C2521 C2522 1.334 . S
C2522 H2493 0.950 1_545 S
C2522 C2521 1.334 . S
C2522 C2523 1.281 1_545 S
C2523 C2522 1.281 1_565 S
C2523 C2524 1.502 1_565 S
C2523 H2526 1.029 . S
C2524 H2494 0.950 . S
C2524 C2523 1.502 1_545 S
C2524 C2525 1.415 . S
C2525 H2495 0.950 . S
C2525 C2520 1.363 . S
C2525 C2524 1.415 . S
H2526 C2523 1.029 . S
H2527 C2508 0.913 . S
C547 N14 0.733 . S
C562 C50 0.732 . S
C597 C83 0.731 . S
C612 N47 0.732 . S
C647 C116 0.732 1_655 S
C662 N80 0.732 . S
C697 N113 0.732 . S
C712 C17 0.732 1_565 S
C747 C248 0.731 1_455 S
C762 N146 0.732 . S
C797 C149 0.732 1_545 S
C812 N179 0.732 . S
C847 C182 0.732 . S
C862 N212 0.732 . S
C897 N245 0.732 . S
C912 C215 0.732 . S
C947 N278 0.732 . S
C962 C314 0.732 . S
C997 N311 0.733 . S
C1012 C347 0.732 . S
C1047 C380 0.731 1_455 S
C1062 N344 0.732 . S
C1097 C281 0.732 1_545 S
C1112 N377 0.732 . S
C1147 C512 0.732 1_655 S
C1162 N410 0.732 . S
C1197 C413 0.732 1_565 S
C1212 N443 0.733 . S
C1247 N476 0.732 . S
C1262 C446 0.731 . S
C1297 N509 0.733 . S
C1312 C479 0.732 . S
C1347 N5 1.962 . S
C1362 N71 1.961 . S
C1397 N38 1.962 . S
C1412 N104 1.961 . S
C1447 N203 1.961 . S
C1462 N137 1.962 . S
C1497 N236 1.962 . S
C1512 N170 1.961 . S
C1547 N335 1.961 . S
C1562 N269 1.962 . S
C1597 N302 1.961 . S
C1612 N368 1.962 . S
C1647 N401 1.961 . S
C1662 N467 1.962 . S
C1697 N434 1.961 . S
C1712 N500 1.962 . S
C1747 C8 1.774 . S
C1762 C272 1.774 . S
C1797 C41 1.774 . S
C1812 C305 1.774 . S
C1847 C74 1.773 . S
C1862 C338 1.773 . S
C1897 C371 1.773 . S
C1912 C107 1.773 . S
C1947 C404 1.774 . S
C1962 C140 1.774 . S
C1997 C173 1.773 . S
C2012 C437 1.773 . S
C2047 C206 1.773 . S
C2062 C470 1.773 . S
C2097 C503 1.773 . S
C2112 C239 1.773 . S
C2147 C193 1.590 . S
C2162 C28 1.590 . S
C2197 C226 1.590 . S
C2212 C61 1.590 . S
C2247 C94 1.590 . S
C2262 C259 1.590 . S
C2297 C160 1.590 . S
C2312 C127 1.590 . S
C2347 C292 1.590 . S
C2362 C457 1.590 . S
C2397 C490 1.590 . S
C2412 C325 1.590 . S
C2447 C523 1.590 . S
C2462 C358 1.590 . S
C2497 C391 1.590 . S
C2512 C424 1.590 . S
