# Generated by pormake.
# Topology unw, (4)-cn, num edge types: 1
# Building blocks:
#     Node 0, Type 0, BuildingBlock: KOZSID_clean_sbu_0, # of connection points: 4
#     Node 1, Type 0, BuildingBlock: KOZSID_clean_sbu_0, # of connection points: 4
#     Node 2, Type 0, BuildingBlock: KOZSID_clean_sbu_0, # of connection points: 4
#     Node 3, Type 0, BuildingBlock: KOZSID_clean_sbu_0, # of connection points: 4
#     Node 4, Type 0, BuildingBlock: KOZSID_clean_sbu_0, # of connection points: 4
#     Node 5, Type 0, BuildingBlock: KOZSID_clean_sbu_0, # of connection points: 4
#     Node 6, Type 0, BuildingBlock: KOZSID_clean_sbu_0, # of connection points: 4
#     Node 7, Type 0, BuildingBlock: KOZSID_clean_sbu_0, # of connection points: 4
#     Node 8, Type 0, BuildingBlock: KOZSID_clean_sbu_0, # of connection points: 4
#     Node 9, Type 0, BuildingBlock: KOZSID_clean_sbu_0, # of connection points: 4
#     Node 10, Type 0, BuildingBlock: KOZSID_clean_sbu_0, # of connection points: 4
#     Node 11, Type 0, BuildingBlock: KOZSID_clean_sbu_0, # of connection points: 4
#     Node 12, Type 0, BuildingBlock: KOZSID_clean_sbu_0, # of connection points: 4
#     Node 13, Type 0, BuildingBlock: KOZSID_clean_sbu_0, # of connection points: 4
#     Node 14, Type 0, BuildingBlock: KOZSID_clean_sbu_0, # of connection points: 4
#     Node 15, Type 0, BuildingBlock: KOZSID_clean_sbu_0, # of connection points: 4
#     Node 16, Type 0, BuildingBlock: KOZSID_clean_sbu_0, # of connection points: 4
#     Node 17, Type 0, BuildingBlock: KOZSID_clean_sbu_0, # of connection points: 4
#     Node 18, Type 0, BuildingBlock: KOZSID_clean_sbu_0, # of connection points: 4
#     Node 19, Type 0, BuildingBlock: KOZSID_clean_sbu_0, # of connection points: 4
#     Node 20, Type 0, BuildingBlock: KOZSID_clean_sbu_0, # of connection points: 4
#     Node 21, Type 0, BuildingBlock: KOZSID_clean_sbu_0, # of connection points: 4
#     Node 22, Type 0, BuildingBlock: KOZSID_clean_sbu_0, # of connection points: 4
#     Node 23, Type 0, BuildingBlock: KOZSID_clean_sbu_0, # of connection points: 4
#     Edge 24, Type (0, 0), BuildingBlock: OJICUG_clean_linker_0, # of connection points: 2
#     Edge 25, Type (0, 0), BuildingBlock: OJICUG_clean_linker_0, # of connection points: 2
#     Edge 26, Type (0, 0), BuildingBlock: OJICUG_clean_linker_0, # of connection points: 2
#     Edge 27, Type (0, 0), BuildingBlock: OJICUG_clean_linker_0, # of connection points: 2
#     Edge 28, Type (0, 0), BuildingBlock: OJICUG_clean_linker_0, # of connection points: 2
#     Edge 29, Type (0, 0), BuildingBlock: OJICUG_clean_linker_0, # of connection points: 2
#     Edge 30, Type (0, 0), BuildingBlock: OJICUG_clean_linker_0, # of connection points: 2
#     Edge 31, Type (0, 0), BuildingBlock: OJICUG_clean_linker_0, # of connection points: 2
#     Edge 32, Type (0, 0), BuildingBlock: OJICUG_clean_linker_0, # of connection points: 2
#     Edge 33, Type (0, 0), BuildingBlock: OJICUG_clean_linker_0, # of connection points: 2
#     Edge 34, Type (0, 0), BuildingBlock: OJICUG_clean_linker_0, # of connection points: 2
#     Edge 35, Type (0, 0), BuildingBlock: OJICUG_clean_linker_0, # of connection points: 2
#     Edge 36, Type (0, 0), BuildingBlock: OJICUG_clean_linker_0, # of connection points: 2
#     Edge 37, Type (0, 0), BuildingBlock: OJICUG_clean_linker_0, # of connection points: 2
#     Edge 38, Type (0, 0), BuildingBlock: OJICUG_clean_linker_0, # of connection points: 2
#     Edge 39, Type (0, 0), BuildingBlock: OJICUG_clean_linker_0, # of connection points: 2
#     Edge 40, Type (0, 0), BuildingBlock: OJICUG_clean_linker_0, # of connection points: 2
#     Edge 41, Type (0, 0), BuildingBlock: OJICUG_clean_linker_0, # of connection points: 2
#     Edge 42, Type (0, 0), BuildingBlock: OJICUG_clean_linker_0, # of connection points: 2
#     Edge 43, Type (0, 0), BuildingBlock: OJICUG_clean_linker_0, # of connection points: 2
#     Edge 44, Type (0, 0), BuildingBlock: OJICUG_clean_linker_0, # of connection points: 2
#     Edge 45, Type (0, 0), BuildingBlock: OJICUG_clean_linker_0, # of connection points: 2
#     Edge 46, Type (0, 0), BuildingBlock: OJICUG_clean_linker_0, # of connection points: 2
#     Edge 47, Type (0, 0), BuildingBlock: OJICUG_clean_linker_0, # of connection points: 2
#     Edge 48, Type (0, 0), BuildingBlock: OJICUG_clean_linker_0, # of connection points: 2
#     Edge 49, Type (0, 0), BuildingBlock: OJICUG_clean_linker_0, # of connection points: 2
#     Edge 50, Type (0, 0), BuildingBlock: OJICUG_clean_linker_0, # of connection points: 2
#     Edge 51, Type (0, 0), BuildingBlock: OJICUG_clean_linker_0, # of connection points: 2
#     Edge 52, Type (0, 0), BuildingBlock: OJICUG_clean_linker_0, # of connection points: 2
#     Edge 53, Type (0, 0), BuildingBlock: OJICUG_clean_linker_0, # of connection points: 2
#     Edge 54, Type (0, 0), BuildingBlock: OJICUG_clean_linker_0, # of connection points: 2
#     Edge 55, Type (0, 0), BuildingBlock: OJICUG_clean_linker_0, # of connection points: 2
#     Edge 56, Type (0, 0), BuildingBlock: OJICUG_clean_linker_0, # of connection points: 2
#     Edge 57, Type (0, 0), BuildingBlock: OJICUG_clean_linker_0, # of connection points: 2
#     Edge 58, Type (0, 0), BuildingBlock: OJICUG_clean_linker_0, # of connection points: 2
#     Edge 59, Type (0, 0), BuildingBlock: OJICUG_clean_linker_0, # of connection points: 2
#     Edge 60, Type (0, 0), BuildingBlock: OJICUG_clean_linker_0, # of connection points: 2
#     Edge 61, Type (0, 0), BuildingBlock: OJICUG_clean_linker_0, # of connection points: 2
#     Edge 62, Type (0, 0), BuildingBlock: OJICUG_clean_linker_0, # of connection points: 2
#     Edge 63, Type (0, 0), BuildingBlock: OJICUG_clean_linker_0, # of connection points: 2
#     Edge 64, Type (0, 0), BuildingBlock: OJICUG_clean_linker_0, # of connection points: 2
#     Edge 65, Type (0, 0), BuildingBlock: OJICUG_clean_linker_0, # of connection points: 2
#     Edge 66, Type (0, 0), BuildingBlock: OJICUG_clean_linker_0, # of connection points: 2
#     Edge 67, Type (0, 0), BuildingBlock: OJICUG_clean_linker_0, # of connection points: 2
#     Edge 68, Type (0, 0), BuildingBlock: OJICUG_clean_linker_0, # of connection points: 2
#     Edge 69, Type (0, 0), BuildingBlock: OJICUG_clean_linker_0, # of connection points: 2
#     Edge 70, Type (0, 0), BuildingBlock: OJICUG_clean_linker_0, # of connection points: 2
#     Edge 71, Type (0, 0), BuildingBlock: OJICUG_clean_linker_0, # of connection points: 2
# Relax obj value: 0.349
# Max RMSD: 0.301
# Mean RMSD: 0.271
data_MOF--net-unw--node1-KOZSID_clean_sbu_0--edge1-OJICUG_clean_linker_0
_symmetry_space_group_name_H-M    P1
_symmetry_Int_Tables_number       1
_symmetry_cell_setting            triclinic
loop_
_symmetry_equiv_pos_as_xyz
'x, y, z'
_cell_length_a     49.070939
_cell_length_b     39.761644
_cell_length_c     42.174985
_cell_angle_alpha  89.999152
_cell_angle_beta   90.576693
_cell_angle_gamma 90.004491
loop_
_atom_site_label
_atom_site_type_symbol
_atom_site_fract_x
_atom_site_fract_y
_atom_site_fract_z
_atom_type_partial_charge
C0 C 0.12865 0.45371 0.21595 0.0
C1 C 0.10853 0.45674 0.1928 0.0
C2 C 0.09417 0.42675 0.19267 0.0
C3 C 0.10569 0.40731 0.21631 0.0
N4 N 0.12585 0.42379 0.23129 0.0
Co5 Co 0.14967 0.40539 0.26485 0.0
N6 N 0.14332 0.35877 0.25138 0.0
C7 C 0.12167 0.34829 0.23418 0.0
C8 C 0.12207 0.31407 0.22945 0.0
C9 C 0.14517 0.3027 0.24498 0.0
C10 C 0.15772 0.33067 0.25841 0.0
N11 N 0.17469 0.38872 0.29811 0.0
C12 C 0.18747 0.3587 0.30047 0.0
C13 C 0.20301 0.35736 0.32821 0.0
C14 C 0.19926 0.38744 0.34368 0.0
C15 C 0.18175 0.40556 0.32467 0.0
N16 N 0.15535 0.45208 0.27822 0.0
C17 C 0.16202 0.46249 0.3075 0.0
C18 C 0.1631 0.49705 0.30941 0.0
C19 C 0.1571 0.50855 0.27924 0.0
C20 C 0.15344 0.48024 0.26046 0.0
N21 N 0.11851 0.39993 0.2945 0.0
C22 C 0.07187 0.38148 0.33042 0.0
C23 C 0.09628 0.36337 0.33236 0.0
C24 C 0.11869 0.37242 0.31415 0.0
C25 C 0.07202 0.41066 0.31117 0.0
C26 C 0.09556 0.41958 0.29369 0.0
N27 N 0.18002 0.4082 0.23534 0.0
C28 C 0.22808 0.41236 0.22569 0.0
C29 C 0.22465 0.396 0.19631 0.0
C30 C 0.19817 0.38897 0.18584 0.0
C31 C 0.1763 0.39527 0.20557 0.0
C32 C 0.20539 0.41842 0.24484 0.0
H33 H 0.15651 0.38731 0.19738 0.0
H34 H 0.20847 0.4295 0.26798 0.0
H35 H 0.13578 0.35565 0.31524 0.0
H36 H 0.09481 0.44157 0.27864 0.0
C37 C 0.1041 0.3719 0.2192 0.0
C38 C 0.14897 0.47975 0.22575 0.0
C39 C 0.18185 0.32962 0.27972 0.0
C40 C 0.17412 0.43952 0.32882 0.0
H41 H 0.10442 0.47813 0.17769 0.0
H42 H 0.07841 0.41936 0.17595 0.0
H43 H 0.10777 0.29923 0.21565 0.0
H44 H 0.15183 0.2768 0.24654 0.0
H45 H 0.21506 0.33644 0.3369 0.0
H46 H 0.20852 0.39526 0.36588 0.0
H47 H 0.16957 0.51206 0.32953 0.0
H48 H 0.15691 0.53452 0.27156 0.0
H49 H 0.09823 0.34149 0.34747 0.0
H50 H 0.05389 0.42594 0.30864 0.0
H51 H 0.24818 0.41902 0.23444 0.0
H52 H 0.19431 0.37617 0.16359 0.0
C53 C 0.6191 0.09091 0.30191 0.0
C54 C 0.59959 0.09019 0.32538 0.0
C55 C 0.58429 0.11915 0.32173 0.0
C56 C 0.5953 0.13598 0.2963 0.0
N57 N 0.61624 0.11895 0.28384 0.0
Co58 Co 0.64109 0.1351 0.25066 0.0
N59 N 0.63187 0.18246 0.25871 0.0
C60 C 0.6092 0.19338 0.27317 0.0
C61 C 0.60833 0.22789 0.27502 0.0
C62 C 0.63176 0.23898 0.26062 0.0
C63 C 0.6457 0.21054 0.25068 0.0
N64 N 0.66674 0.15007 0.21791 0.0
C65 C 0.67824 0.18058 0.21387 0.0
C66 C 0.69493 0.1805 0.18741 0.0
C67 C 0.69347 0.14876 0.1746 0.0
C68 C 0.67603 0.13123 0.19378 0.0
N69 N 0.64995 0.08766 0.24267 0.0
C70 C 0.6603 0.07467 0.21598 0.0
C71 C 0.666 0.0409 0.21909 0.0
C72 C 0.65907 0.03264 0.2497 0.0
C73 C 0.64957 0.06193 0.26351 0.0
N74 N 0.61138 0.13433 0.21845 0.0
C75 C 0.56488 0.14419 0.17929 0.0
C76 C 0.58771 0.16496 0.17687 0.0
C77 C 0.61034 0.15987 0.19659 0.0
C78 C 0.56643 0.11703 0.20077 0.0
C79 C 0.59 0.11225 0.21978 0.0
N80 N 0.67016 0.13803 0.28259 0.0
C81 C 0.71764 0.13533 0.29714 0.0
C82 C 0.71258 0.15428 0.32454 0.0
C83 C 0.6857 0.16271 0.33157 0.0
C84 C 0.66488 0.15423 0.31048 0.0
C85 C 0.69607 0.12746 0.27638 0.0
H86 H 0.6446 0.16235 0.31613 0.0
H87 H 0.70046 0.11422 0.25468 0.0
H88 H 0.6263 0.17828 0.19519 0.0
H89 H 0.59046 0.09165 0.2365 0.0
C90 C 0.59232 0.17058 0.28959 0.0
C91 C 0.6402 0.06516 0.29628 0.0
C92 C 0.67106 0.21071 0.23218 0.0
C93 C 0.67154 0.09627 0.19319 0.0
H94 H 0.59715 0.07137 0.34365 0.0
H95 H 0.56857 0.1281 0.33745 0.0
H96 H 0.59315 0.24317 0.28663 0.0
H97 H 0.63785 0.26496 0.25779 0.0
H98 H 0.70651 0.20133 0.17798 0.0
H99 H 0.70448 0.13938 0.15432 0.0
H100 H 0.67614 0.02485 0.20216 0.0
H101 H 0.66148 0.0083 0.26087 0.0
H102 H 0.58754 0.18653 0.16118 0.0
H103 H 0.54935 0.10004 0.20335 0.0
H104 H 0.73822 0.12825 0.29094 0.0
H105 H 0.68089 0.17681 0.35277 0.0
C106 C 0.89737 0.55028 0.22076 0.0
C107 C 0.91328 0.55529 0.19429 0.0
C108 C 0.9282 0.58422 0.19995 0.0
C109 C 0.92064 0.59529 0.22959 0.0
N110 N 0.90225 0.57464 0.24268 0.0
Co111 Co 0.88141 0.58304 0.2816 0.0
N112 N 0.88808 0.63175 0.28 0.0
C113 C 0.90824 0.64676 0.26384 0.0
C114 C 0.90768 0.68114 0.26723 0.0
C115 C 0.88607 0.68774 0.2869 0.0
C116 C 0.87462 0.65691 0.29467 0.0
N117 N 0.85927 0.58994 0.31978 0.0
C118 C 0.84753 0.61832 0.33056 0.0
C119 C 0.83454 0.61234 0.35918 0.0
C120 C 0.83857 0.579 0.36632 0.0
C121 C 0.85381 0.56652 0.34187 0.0
N122 N 0.87532 0.5341 0.28327 0.0
C123 C 0.86925 0.51607 0.3092 0.0
C124 C 0.86473 0.48277 0.30223 0.0
C125 C 0.86778 0.48004 0.26997 0.0
C126 C 0.87413 0.51199 0.25891 0.0
N127 N 0.91504 0.57975 0.30863 0.0
C128 C 0.96559 0.59324 0.33963 0.0
C129 C 0.94117 0.60605 0.35113 0.0
C130 C 0.91661 0.59964 0.33527 0.0
C131 C 0.96404 0.57155 0.31323 0.0
C132 C 0.9385 0.56442 0.29861 0.0
N133 N 0.84875 0.58941 0.25491 0.0
C134 C 0.80005 0.58774 0.24626 0.0
C135 C 0.80233 0.6113 0.22155 0.0
C136 C 0.82828 0.62153 0.21259 0.0
C137 C 0.85097 0.61045 0.22938 0.0
C138 C 0.82366 0.57707 0.26276 0.0
H139 H 0.8703 0.62043 0.22235 0.0
H140 H 0.82159 0.56014 0.28263 0.0
H141 H 0.89939 0.61345 0.34367 0.0
H142 H 0.93808 0.5481 0.27815 0.0
C143 C 0.92341 0.62845 0.24126 0.0
C144 C 0.87846 0.52173 0.22559 0.0
C145 C 0.8518 0.65178 0.31675 0.0
C146 C 0.86003 0.53253 0.33651 0.0
H147 H 0.91353 0.54014 0.17298 0.0
H148 H 0.94118 0.59709 0.18327 0.0
H149 H 0.92055 0.69939 0.25561 0.0
H150 H 0.87946 0.71242 0.29437 0.0
H151 H 0.82399 0.63034 0.37388 0.0
H152 H 0.83086 0.56543 0.38659 0.0
H153 H 0.85765 0.46336 0.31815 0.0
H154 H 0.86475 0.45721 0.25662 0.0
H155 H 0.94121 0.62325 0.37107 0.0
H156 H 0.98243 0.56079 0.30353 0.0
H157 H 0.78022 0.57901 0.25375 0.0
H158 H 0.83105 0.6391 0.19323 0.0
C159 C 0.38285 0.94412 0.30038 0.0
C160 C 0.39981 0.9481 0.32651 0.0
C161 C 0.41704 0.92055 0.32699 0.0
C162 C 0.40979 0.90121 0.30108 0.0
N163 N 0.38936 0.91547 0.28444 0.0
Co164 Co 0.36865 0.89436 0.24932 0.0
N165 N 0.37929 0.84863 0.26191 0.0
C166 C 0.40092 0.84087 0.28034 0.0
C167 C 0.40343 0.80668 0.28456 0.0
C168 C 0.38217 0.79251 0.26753 0.0
C169 C 0.36776 0.81887 0.25381 0.0
N170 N 0.34677 0.8749 0.2144 0.0
C171 C 0.33703 0.84336 0.211 0.0
C172 C 0.32267 0.84025 0.18254 0.0
C173 C 0.32385 0.871 0.16777 0.0
C174 C 0.33879 0.89114 0.18787 0.0
N175 N 0.35811 0.94044 0.23692 0.0
C176 C 0.34967 0.95036 0.20799 0.0
C177 C 0.34176 0.98353 0.20761 0.0
C178 C 0.34509 0.99479 0.23825 0.0
C179 C 0.35503 0.96781 0.25573 0.0
N180 N 0.40146 0.89453 0.22126 0.0
C181 C 0.45244 0.87931 0.19255 0.0
C182 C 0.42899 0.86084 0.18549 0.0
C183 C 0.40429 0.86833 0.2002 0.0
C184 C 0.44943 0.90716 0.21302 0.0
C185 C 0.42372 0.91479 0.22649 0.0
N186 N 0.33717 0.89069 0.27759 0.0
C187 C 0.28935 0.8792 0.28449 0.0
C188 C 0.29476 0.86585 0.31473 0.0
C189 C 0.32118 0.86765 0.32681 0.0
C190 C 0.34197 0.87956 0.30788 0.0
C191 C 0.31087 0.8924 0.26654 0.0
H192 H 0.36223 0.87708 0.31732 0.0
H193 H 0.30653 0.90188 0.24304 0.0
H194 H 0.38822 0.8506 0.19598 0.0
H195 H 0.42232 0.93593 0.24248 0.0
C196 C 0.41495 0.86639 0.29737 0.0
C197 C 0.36129 0.96807 0.29001 0.0
C198 C 0.34406 0.81523 0.23216 0.0
C199 C 0.3417 0.92619 0.18546 0.0
H200 H 0.39925 0.96824 0.34375 0.0
H201 H 0.43145 0.91406 0.3456 0.0
H202 H 0.4182 0.79362 0.29926 0.0
H203 H 0.37775 0.76592 0.2655 0.0
H204 H 0.31284 0.81798 0.1731 0.0
H205 H 0.31423 0.87804 0.14554 0.0
H206 H 0.33232 0.9971 0.18815 0.0
H207 H 0.33988 0.01961 0.24662 0.0
H208 H 0.43006 0.83887 0.17036 0.0
H209 H 0.46693 0.92253 0.21912 0.0
H210 H 0.26892 0.87857 0.27455 0.0
H211 H 0.32619 0.85747 0.34999 0.0
C212 C 0.11305 0.55208 0.78772 0.0
C213 C 0.09752 0.55783 0.81437 0.0
C214 C 0.08319 0.5872 0.8087 0.0
C215 C 0.0907 0.59777 0.77888 0.0
N216 N 0.10849 0.57642 0.76569 0.0
Co217 Co 0.12916 0.58382 0.72648 0.0
N218 N 0.12355 0.63274 0.72781 0.0
C219 C 0.1038 0.64851 0.74404 0.0
C220 C 0.10498 0.68282 0.74033 0.0
C221 C 0.12654 0.68859 0.72036 0.0
C222 C 0.13734 0.65735 0.71275 0.0
N223 N 0.15117 0.58971 0.68804 0.0
C224 C 0.16341 0.61763 0.67692 0.0
C225 C 0.1761 0.61097 0.64824 0.0
C226 C 0.17131 0.57772 0.64139 0.0
C227 C 0.15598 0.56595 0.66606 0.0
N228 N 0.13412 0.53468 0.72505 0.0
C229 C 0.13954 0.51628 0.69914 0.0
C230 C 0.14328 0.48287 0.70623 0.0
C231 C 0.14043 0.48045 0.73854 0.0
C232 C 0.13499 0.51269 0.74952 0.0
N233 N 0.09529 0.5814 0.69982 0.0
C234 C 0.04483 0.59538 0.66886 0.0
C235 C 0.06934 0.60788 0.65729 0.0
C236 C 0.09387 0.6012 0.67312 0.0
C237 C 0.04623 0.57385 0.69539 0.0
C238 C 0.07171 0.5665 0.71001 0.0
N239 N 0.16211 0.58917 0.75284 0.0
C240 C 0.21037 0.58301 0.76272 0.0
C241 C 0.20914 0.60614 0.78799 0.0
C242 C 0.18372 0.61947 0.79566 0.0
C243 C 0.16076 0.61068 0.77809 0.0
C244 C 0.18655 0.57476 0.74547 0.0
H245 H 0.14194 0.62246 0.78455 0.0
H246 H 0.18794 0.55759 0.7257 0.0
H247 H 0.11124 0.61467 0.66462 0.0
H248 H 0.07204 0.5503 0.73057 0.0
C249 C 0.08849 0.63089 0.76696 0.0
C250 C 0.13127 0.52285 0.78285 0.0
C251 C 0.15982 0.65137 0.69038 0.0
C252 C 0.14898 0.53223 0.67168 0.0
H253 H 0.09715 0.54285 0.83578 0.0
H254 H 0.07066 0.60063 0.82545 0.0
H255 H 0.09256 0.70156 0.75192 0.0
H256 H 0.13353 0.713 0.71256 0.0
H257 H 0.1869 0.6285 0.6333 0.0
H258 H 0.17857 0.56373 0.62114 0.0
H259 H 0.14975 0.46311 0.69034 0.0
H260 H 0.14299 0.45757 0.75193 0.0
H261 H 0.06943 0.62496 0.63726 0.0
H262 H 0.02777 0.56336 0.70516 0.0
H263 H 0.22958 0.57183 0.756 0.0
H264 H 0.18152 0.6379 0.81436 0.0
C265 C 0.39072 0.09115 0.70537 0.0
C266 C 0.41026 0.09047 0.68192 0.0
C267 C 0.42555 0.11942 0.68561 0.0
C268 C 0.41451 0.13622 0.71105 0.0
N269 N 0.39356 0.11917 0.72347 0.0
Co270 Co 0.36869 0.13529 0.75664 0.0
N271 N 0.37793 0.18266 0.74866 0.0
C272 C 0.40061 0.1936 0.73422 0.0
C273 C 0.40149 0.22811 0.73242 0.0
C274 C 0.37806 0.23919 0.74683 0.0
C275 C 0.36411 0.21074 0.75672 0.0
N276 N 0.34302 0.15023 0.78939 0.0
C277 C 0.33153 0.18073 0.79346 0.0
C278 C 0.31483 0.18062 0.81991 0.0
C279 C 0.31627 0.14886 0.83268 0.0
C280 C 0.33371 0.13136 0.81348 0.0
N281 N 0.35981 0.08784 0.76457 0.0
C282 C 0.34945 0.07482 0.79124 0.0
C283 C 0.34375 0.04105 0.7881 0.0
C284 C 0.35071 0.03282 0.7575 0.0
C285 C 0.36022 0.06212 0.74371 0.0
N286 N 0.39839 0.13447 0.78887 0.0
C287 C 0.44487 0.14428 0.82805 0.0
C288 C 0.42205 0.16505 0.83049 0.0
C289 C 0.39942 0.15999 0.81076 0.0
C290 C 0.44333 0.11715 0.80656 0.0
C291 C 0.41975 0.11238 0.78754 0.0
N292 N 0.33965 0.13826 0.72469 0.0
C293 C 0.29218 0.1356 0.71009 0.0
C294 C 0.29727 0.15458 0.68272 0.0
C295 C 0.32415 0.163 0.67572 0.0
C296 C 0.34496 0.15449 0.69683 0.0
C297 C 0.31373 0.12769 0.73086 0.0
H298 H 0.36525 0.16262 0.6912 0.0
H299 H 0.30932 0.11442 0.75255 0.0
H300 H 0.38346 0.1784 0.81217 0.0
H301 H 0.41929 0.0918 0.7708 0.0
C302 C 0.41749 0.17081 0.71779 0.0
C303 C 0.36962 0.06537 0.71095 0.0
C304 C 0.33873 0.2109 0.7752 0.0
C305 C 0.3382 0.09639 0.81404 0.0
H306 H 0.41271 0.07168 0.66363 0.0
H307 H 0.44128 0.1284 0.66992 0.0
H308 H 0.41669 0.2434 0.72084 0.0
H309 H 0.37198 0.26516 0.74968 0.0
H310 H 0.30325 0.20144 0.82936 0.0
H311 H 0.30525 0.13945 0.85293 0.0
H312 H 0.3336 0.02498 0.80501 0.0
H313 H 0.34832 0.00848 0.74631 0.0
H314 H 0.42222 0.18661 0.84619 0.0
H315 H 0.4604 0.10015 0.80397 0.0
H316 H 0.27159 0.12851 0.71627 0.0
H317 H 0.32899 0.17713 0.65454 0.0
C318 C 0.88108 0.45384 0.79117 0.0
C319 C 0.90122 0.45695 0.81429 0.0
C320 C 0.91562 0.427 0.81443 0.0
C321 C 0.90411 0.4075 0.79084 0.0
N322 N 0.8839 0.4239 0.77586 0.0
Co323 Co 0.8601 0.40541 0.74233 0.0
N324 N 0.86655 0.35881 0.75583 0.0
C325 C 0.88823 0.34841 0.77303 0.0
C326 C 0.8879 0.3142 0.77778 0.0
C327 C 0.86481 0.30274 0.76228 0.0
C328 C 0.85221 0.33066 0.74883 0.0
N329 N 0.8351 0.38862 0.7091 0.0
C330 C 0.82238 0.35856 0.70677 0.0
C331 C 0.80684 0.35714 0.67904 0.0
C332 C 0.81052 0.38722 0.66354 0.0
C333 C 0.82799 0.40542 0.68253 0.0
N334 N 0.85432 0.45207 0.72893 0.0
C335 C 0.84762 0.46242 0.69964 0.0
C336 C 0.8465 0.49698 0.69769 0.0
C337 C 0.85251 0.50853 0.72783 0.0
C338 C 0.85621 0.48025 0.74666 0.0
N339 N 0.89126 0.40003 0.71267 0.0
C340 C 0.93792 0.3817 0.67674 0.0
C341 C 0.91354 0.36352 0.67482 0.0
C342 C 0.89112 0.3725 0.69304 0.0
C343 C 0.93771 0.41089 0.69598 0.0
C344 C 0.91417 0.41975 0.71346 0.0
N345 N 0.82976 0.40814 0.77186 0.0
C346 C 0.7817 0.41214 0.78154 0.0
C347 C 0.78518 0.3958 0.81092 0.0
C348 C 0.81168 0.38887 0.82138 0.0
C349 C 0.83352 0.39524 0.80164 0.0
C350 C 0.80437 0.41827 0.76237 0.0
H351 H 0.85333 0.38735 0.80983 0.0
H352 H 0.80125 0.42932 0.73923 0.0
H353 H 0.87406 0.35568 0.69196 0.0
H354 H 0.91488 0.44176 0.7285 0.0
C355 C 0.90576 0.37209 0.78797 0.0
C356 C 0.86072 0.47983 0.78136 0.0
C357 C 0.82807 0.32951 0.72754 0.0
C358 C 0.83556 0.4394 0.67835 0.0
H359 H 0.90532 0.47838 0.82935 0.0
H360 H 0.93142 0.41967 0.83114 0.0
H361 H 0.90223 0.29941 0.79159 0.0
H362 H 0.8582 0.27682 0.76075 0.0
H363 H 0.79485 0.33616 0.67036 0.0
H364 H 0.80125 0.39499 0.64133 0.0
H365 H 0.84002 0.51194 0.67755 0.0
H366 H 0.85269 0.53452 0.73547 0.0
H367 H 0.91163 0.34163 0.65972 0.0
H368 H 0.95582 0.42623 0.6985 0.0
H369 H 0.76158 0.41872 0.77279 0.0
H370 H 0.81557 0.3761 0.84364 0.0
C371 C 0.62669 0.94409 0.70686 0.0
C372 C 0.60983 0.94807 0.68064 0.0
C373 C 0.59257 0.92054 0.68009 0.0
C374 C 0.59971 0.90121 0.70605 0.0
N375 N 0.62008 0.91547 0.72279 0.0
Co376 Co 0.64063 0.89436 0.75803 0.0
N377 N 0.63002 0.84864 0.7454 0.0
C378 C 0.60846 0.84087 0.72687 0.0
C379 C 0.60599 0.80668 0.72262 0.0
C380 C 0.6272 0.79252 0.73974 0.0
C381 C 0.64155 0.81889 0.75353 0.0
N382 N 0.66234 0.87491 0.79309 0.0
C383 C 0.67207 0.84337 0.79653 0.0
C384 C 0.6863 0.84025 0.82507 0.0
C385 C 0.68505 0.871 0.83984 0.0
C386 C 0.6702 0.89114 0.81965 0.0
N387 N 0.65116 0.94044 0.77045 0.0
C388 C 0.65948 0.95037 0.79943 0.0
C389 C 0.66744 0.98353 0.79982 0.0
C390 C 0.66425 0.99476 0.76916 0.0
C391 C 0.65436 0.96778 0.75164 0.0
N392 N 0.6077 0.89458 0.7859 0.0
C393 C 0.55663 0.87965 0.81458 0.0
C394 C 0.58 0.86101 0.8216 0.0
C395 C 0.60474 0.86836 0.80692 0.0
C396 C 0.55976 0.90748 0.79411 0.0
C397 C 0.58552 0.91496 0.78065 0.0
N398 N 0.67224 0.89065 0.72995 0.0
C399 C 0.7201 0.87926 0.72327 0.0
C400 C 0.71483 0.86593 0.693 0.0
C401 C 0.68843 0.86764 0.6808 0.0
C402 C 0.66756 0.8795 0.69964 0.0
C403 C 0.69849 0.89239 0.74113 0.0
H404 H 0.64733 0.87699 0.6901 0.0
H405 H 0.70274 0.90187 0.76466 0.0
H406 H 0.62075 0.85054 0.81113 0.0
H407 H 0.58701 0.93609 0.76466 0.0
C408 C 0.59451 0.8664 0.70975 0.0
C409 C 0.64823 0.96803 0.71732 0.0
C410 C 0.66519 0.81527 0.77527 0.0
C411 C 0.66732 0.92621 0.82202 0.0
H412 H 0.61047 0.9682 0.66339 0.0
H413 H 0.57824 0.91405 0.6614 0.0
H414 H 0.59127 0.79362 0.70783 0.0
H415 H 0.63163 0.76594 0.74176 0.0
H416 H 0.69611 0.81799 0.83455 0.0
H417 H 0.6946 0.87804 0.86212 0.0
H418 H 0.67681 0.9971 0.81933 0.0
H419 H 0.66954 0.01957 0.7608 0.0
H420 H 0.57884 0.83904 0.83672 0.0
H421 H 0.54233 0.92297 0.78803 0.0
H422 H 0.7405 0.87869 0.7333 0.0
H423 H 0.68352 0.85747 0.65759 0.0
C424 C 0.29276 0.08419 0.38219 0.0
C425 C 0.31392 0.08409 0.40412 0.0
C426 C 0.31144 0.11336 0.42151 0.0
C427 C 0.28887 0.12973 0.40934 0.0
N428 N 0.27702 0.11209 0.38583 0.0
Co429 Co 0.24735 0.12795 0.35756 0.0
N430 N 0.25483 0.17563 0.36684 0.0
C431 C 0.26855 0.18694 0.39251 0.0
C432 C 0.26969 0.22147 0.39346 0.0
C433 C 0.25557 0.23224 0.36696 0.0
C434 C 0.2466 0.20362 0.35113 0.0
N435 N 0.21813 0.14243 0.32792 0.0
C436 C 0.21388 0.17274 0.31415 0.0
C437 C 0.19107 0.1716 0.29434 0.0
C438 C 0.18053 0.13971 0.29659 0.0
C439 C 0.19745 0.12304 0.3174 0.0
N440 N 0.24027 0.07993 0.34861 0.0
C441 C 0.21695 0.0669 0.33702 0.0
C442 C 0.21934 0.03317 0.33038 0.0
C443 C 0.24585 0.02483 0.33776 0.0
C444 C 0.25828 0.05398 0.34875 0.0
N445 N 0.22062 0.12897 0.39319 0.0
C446 C 0.18684 0.14311 0.4462 0.0
C447 C 0.18406 0.1606 0.41774 0.0
C448 C 0.20108 0.15375 0.3923 0.0
C449 C 0.20671 0.1174 0.44744 0.0
C450 C 0.22303 0.1103 0.42048 0.0
N451 N 0.27341 0.12999 0.32279 0.0
C452 C 0.2806 0.1335 0.2666 0.0
C453 C 0.30436 0.15237 0.27185 0.0
C454 C 0.31372 0.15681 0.3029 0.0
C455 C 0.29789 0.14567 0.32798 0.0
C456 C 0.2657 0.12183 0.29251 0.0
H457 H 0.30457 0.1522 0.35154 0.0
H458 H 0.24694 0.10841 0.28804 0.0
H459 H 0.19905 0.17055 0.37262 0.0
H460 H 0.23821 0.09067 0.42217 0.0
C461 C 0.28338 0.16445 0.41207 0.0
C462 C 0.28712 0.05716 0.35882 0.0
C463 C 0.2284 0.20386 0.32301 0.0
C464 C 0.19727 0.08831 0.32353 0.0
H465 H 0.32977 0.06534 0.40666 0.0
H466 H 0.32579 0.12283 0.439 0.0
H467 H 0.28016 0.23699 0.41079 0.0
H468 H 0.25204 0.25817 0.36026 0.0
H469 H 0.18251 0.1919 0.28034 0.0
H470 H 0.16308 0.12967 0.28385 0.0
H471 H 0.20446 0.01725 0.31864 0.0
H472 H 0.25496 1.00043 0.33414 0.0
H473 H 0.16967 0.18117 0.41557 0.0
H474 H 0.20977 0.10311 0.46903 0.0
H475 H 0.27306 0.129 0.24274 0.0
H476 H 0.33205 0.17113 0.30789 0.0
C477 C 0.90287 0.20865 0.44055 0.0
C478 C 0.91779 0.1794 0.43704 0.0
C479 C 0.93199 0.18278 0.40906 0.0
C480 C 0.92499 0.21392 0.39701 0.0
N481 N 0.90772 0.23014 0.41616 0.0
Co482 Co 0.88784 0.27215 0.40643 0.0
N483 N 0.8927 0.26691 0.36045 0.0
C484 C 0.9117 0.24743 0.34675 0.0
C485 C 0.91026 0.24893 0.31422 0.0
C486 C 0.88935 0.27096 0.30737 0.0
C487 C 0.8792 0.28199 0.3362 0.0
N488 N 0.86673 0.31352 0.39824 0.0
C489 C 0.85468 0.32423 0.37113 0.0
C490 C 0.84283 0.35564 0.37559 0.0
C491 C 0.84786 0.36461 0.40655 0.0
C492 C 0.86256 0.33844 0.41928 0.0
N493 N 0.8834 0.27709 0.45255 0.0
C494 C 0.87827 0.30566 0.46838 0.0
C495 C 0.87366 0.29983 0.50008 0.0
C496 C 0.87559 0.26551 0.50398 0.0
C497 C 0.88128 0.25235 0.47438 0.0
N498 N 0.92228 0.29902 0.40659 0.0
C499 C 0.97298 0.32969 0.39181 0.0
C500 C 0.94858 0.3412 0.37857 0.0
C501 C 0.92397 0.32551 0.38575 0.0
C502 C 0.97132 0.30338 0.4142 0.0
C503 C 0.94574 0.28887 0.42173 0.0
N504 N 0.85422 0.24575 0.4036 0.0
C505 C 0.8057 0.23993 0.40954 0.0
C506 C 0.80565 0.21144 0.38974 0.0
C507 C 0.83063 0.19973 0.37859 0.0
C508 C 0.85442 0.21707 0.38573 0.0
C509 C 0.83028 0.25666 0.41633 0.0
H510 H 0.8729 0.2079 0.37537 0.0
H511 H 0.82986 0.27901 0.43086 0.0
H512 H 0.90674 0.33379 0.37208 0.0
H513 H 0.94521 0.26837 0.43853 0.0
C514 C 0.9268 0.22388 0.36496 0.0
C515 C 0.8843 0.21646 0.46698 0.0
C516 C 0.85782 0.30784 0.34009 0.0
C517 C 0.86939 0.33415 0.45151 0.0
H518 H 0.9177 0.15765 0.45246 0.0
H519 H 0.94394 0.16353 0.39754 0.0
H520 H 0.92215 0.23467 0.29744 0.0
H521 H 0.88242 0.27793 0.28385 0.0
H522 H 0.83241 0.37101 0.35812 0.0
H523 H 0.84118 0.38724 0.41842 0.0
H524 H 0.86709 0.31786 0.51764 0.0
H525 H 0.8722 0.2517 0.5257 0.0
H526 H 0.94856 0.36087 0.36078 0.0
H527 H 0.98966 0.29362 0.42534 0.0
H528 H 0.78688 0.2497 0.41907 0.0
H529 H 0.83181 0.17833 0.36279 0.0
C530 C 0.79165 0.8857 0.42419 0.0
C531 C 0.81207 0.90965 0.42151 0.0
C532 C 0.80855 0.92471 0.39216 0.0
C533 C 0.78574 0.90998 0.37888 0.0
N534 N 0.77478 0.88727 0.39846 0.0
Co535 Co 0.74269 0.85902 0.38923 0.0
N536 N 0.74766 0.86245 0.34318 0.0
C537 C 0.76168 0.88706 0.32864 0.0
C538 C 0.76044 0.88416 0.29619 0.0
C539 C 0.74441 0.85636 0.29027 0.0
C540 C 0.73672 0.8436 0.31953 0.0
N541 N 0.71086 0.82974 0.38153 0.0
C542 C 0.70379 0.81214 0.35528 0.0
C543 C 0.68006 0.79394 0.3606 0.0
C544 C 0.67171 0.80162 0.39076 0.0
C545 C 0.69085 0.82368 0.40243 0.0
N546 N 0.73797 0.8563 0.43528 0.0
C547 C 0.71449 0.85089 0.4504 0.0
C548 C 0.71775 0.85258 0.48283 0.0
C549 C 0.74507 0.85897 0.48797 0.0
C550 C 0.75706 0.85978 0.45833 0.0
N551 N 0.71859 0.89915 0.38631 0.0
C552 C 0.6892 0.95822 0.37034 0.0
C553 C 0.68318 0.92741 0.35608 0.0
C554 C 0.69807 0.89875 0.36396 0.0
C555 C 0.70968 0.95861 0.39404 0.0
C556 C 0.72376 0.92864 0.40213 0.0
N557 N 0.76648 0.81965 0.38978 0.0
C558 C 0.77266 0.7599 0.39493 0.0
C559 C 0.79652 0.76182 0.37696 0.0
C560 C 0.80596 0.79329 0.36758 0.0
C561 C 0.79057 0.82167 0.37384 0.0
C562 C 0.75817 0.7894 0.40171 0.0
H563 H 0.79748 0.84502 0.36388 0.0
H564 H 0.73955 0.78758 0.41501 0.0
H565 H 0.69372 0.87673 0.35014 0.0
H566 H 0.73957 0.92966 0.42011 0.0
C567 C 0.77834 0.90946 0.3464 0.0
C568 C 0.78644 0.8634 0.45185 0.0
C569 C 0.71674 0.81616 0.32404 0.0
C570 C 0.69271 0.83571 0.43386 0.0
H571 H 0.82773 0.91583 0.43874 0.0
H572 H 0.822 0.94278 0.38121 0.0
H573 H 0.77036 0.89994 0.27887 0.0
H574 H 0.73857 0.84704 0.26707 0.0
H575 H 0.6694 0.77757 0.34417 0.0
H576 H 0.65411 0.79173 0.40289 0.0
H577 H 0.70262 0.84733 0.50066 0.0
H578 H 0.75522 0.86114 0.51078 0.0
H579 H 0.66804 0.92571 0.33726 0.0
H580 H 0.71504 0.98189 0.40585 0.0
H581 H 0.76493 0.73582 0.40278 0.0
H582 H 0.82417 0.79575 0.35343 0.0
C583 C 0.12462 0.79032 0.46028 0.0
C584 C 0.11176 0.8213 0.4607 0.0
C585 C 0.0992 0.82497 0.4317 0.0
C586 C 0.10516 0.79621 0.41503 0.0
N587 N 0.11967 0.77381 0.43243 0.0
Co588 Co 0.13771 0.73187 0.41635 0.0
N589 N 0.13109 0.74411 0.37107 0.0
C590 C 0.11796 0.7718 0.36043 0.0
C591 C 0.11897 0.77525 0.32807 0.0
C592 C 0.13404 0.74845 0.31768 0.0
C593 C 0.14125 0.72996 0.34436 0.0
N594 N 0.15506 0.68931 0.40164 0.0
C595 C 0.16121 0.67907 0.37203 0.0
C596 C 0.17236 0.64694 0.37215 0.0
C597 C 0.17386 0.63698 0.4031 0.0
C598 C 0.16343 0.66335 0.42001 0.0
N599 N 0.1459 0.72092 0.46167 0.0
C600 C 0.15594 0.69186 0.47345 0.0
C601 C 0.16274 0.6937 0.50509 0.0
C602 C 0.15778 0.72632 0.5136 0.0
C603 C 0.14822 0.74238 0.48657 0.0
N604 N 0.10165 0.70692 0.41664 0.0
C605 C 0.05798 0.66444 0.39619 0.0
C606 C 0.07755 0.65315 0.41821 0.0
C607 C 0.09895 0.67473 0.42822 0.0
C608 C 0.05895 0.69833 0.38781 0.0
C609 C 0.08014 0.71898 0.39889 0.0
N610 N 0.173 0.75641 0.41328 0.0
C611 C 0.22033 0.7555 0.39751 0.0
C612 C 0.21903 0.78964 0.38949 0.0
C613 C 0.19548 0.80734 0.39633 0.0
C614 C 0.17288 0.79045 0.40762 0.0
C615 C 0.19733 0.73964 0.41045 0.0
H616 H 0.15516 0.80564 0.40936 0.0
H617 H 0.19915 0.71347 0.41648 0.0
H618 H 0.11337 0.66448 0.44463 0.0
H619 H 0.07899 0.74438 0.39158 0.0
C620 C 0.10609 0.79469 0.3817 0.0
C621 C 0.14431 0.77875 0.48451 0.0
C622 C 0.15841 0.69972 0.34364 0.0
C623 C 0.16381 0.66603 0.45306 0.0
H624 H 0.11305 0.84038 0.47888 0.0
H625 H 0.08991 0.84772 0.42255 0.0
H626 H 0.11044 0.79535 0.31379 0.0
H627 H 0.1395 0.74344 0.29335 0.0
H628 H 0.17936 0.63255 0.35202 0.0
H629 H 0.18246 0.61381 0.41225 0.0
H630 H 0.1724 0.6745 0.51951 0.0
H631 H 0.16228 0.73762 0.53642 0.0
H632 H 0.07705 0.62745 0.42668 0.0
H633 H 0.04346 0.70896 0.37229 0.0
H634 H 0.23864 0.74109 0.39317 0.0
H635 H 0.19376 0.83386 0.39066 0.0
C636 C 0.21894 0.88505 0.58292 0.0
C637 C 0.1984 0.90879 0.58591 0.0
C638 C 0.202 0.92368 0.61531 0.0
C639 C 0.22497 0.90907 0.62834 0.0
N640 N 0.23594 0.8866 0.60853 0.0
Co641 Co 0.26824 0.85857 0.61734 0.0
N642 N 0.26349 0.86161 0.66344 0.0
C643 C 0.24942 0.88597 0.67825 0.0
C644 C 0.25082 0.8828 0.71067 0.0
C645 C 0.26702 0.85507 0.71628 0.0
C646 C 0.27462 0.84262 0.68687 0.0
N647 N 0.30029 0.82956 0.62462 0.0
C648 C 0.3076 0.81182 0.6507 0.0
C649 C 0.33145 0.79395 0.64512 0.0
C650 C 0.3396 0.80196 0.61495 0.0
C651 C 0.32024 0.82389 0.60355 0.0
N652 N 0.27272 0.85625 0.57123 0.0
C653 C 0.29615 0.85116 0.55591 0.0
C654 C 0.29268 0.85297 0.52351 0.0
C655 C 0.26528 0.8591 0.51862 0.0
C656 C 0.25347 0.85964 0.54836 0.0
N657 N 0.29211 0.89892 0.62037 0.0
C658 C 0.32115 0.95819 0.63662 0.0
C659 C 0.32743 0.92733 0.65063 0.0
C660 C 0.31272 0.89856 0.6426 0.0
C661 C 0.30058 0.95854 0.61302 0.0
C662 C 0.28668 0.92848 0.60479 0.0
N663 N 0.24469 0.81898 0.61669 0.0
C664 C 0.23874 0.75923 0.6111 0.0
C665 C 0.21492 0.76085 0.62916 0.0
C666 C 0.20539 0.79217 0.63884 0.0
C667 C 0.22066 0.8207 0.63276 0.0
C668 C 0.25309 0.7889 0.6045 0.0
H669 H 0.21368 0.8439 0.64295 0.0
H670 H 0.27169 0.78732 0.59112 0.0
H671 H 0.31727 0.87647 0.65625 0.0
H672 H 0.27079 0.92948 0.5869 0.0
C673 C 0.23254 0.90837 0.66077 0.0
C674 C 0.22411 0.86296 0.55509 0.0
C675 C 0.29469 0.81535 0.68201 0.0
C676 C 0.31813 0.8361 0.5722 0.0
H677 H 0.1826 0.91494 0.56883 0.0
H678 H 0.1885 0.94154 0.62648 0.0
H679 H 0.24091 0.89834 0.72818 0.0
H680 H 0.27301 0.84558 0.73937 0.0
H681 H 0.34229 0.77756 0.66137 0.0
H682 H 0.35721 0.79236 0.60265 0.0
H683 H 0.30773 0.84796 0.50553 0.0
H684 H 0.25498 0.86126 0.4959 0.0
H685 H 0.34264 0.92564 0.66937 0.0
H686 H 0.29501 0.98186 0.6014 0.0
H687 H 0.24656 0.73527 0.60304 0.0
H688 H 0.18722 0.79439 0.65308 0.0
C689 C 0.10707 0.20917 0.56683 0.0
C690 C 0.09214 0.17992 0.57032 0.0
C691 C 0.07793 0.1833 0.5983 0.0
C692 C 0.08492 0.21444 0.61035 0.0
N693 N 0.10221 0.23065 0.59122 0.0
Co694 Co 0.12208 0.27267 0.60095 0.0
N695 N 0.11718 0.26745 0.64693 0.0
C696 C 0.09816 0.24796 0.66061 0.0
C697 C 0.09958 0.24947 0.69314 0.0
C698 C 0.12048 0.27151 0.70001 0.0
C699 C 0.13066 0.28254 0.6712 0.0
N700 N 0.14317 0.31406 0.60916 0.0
C701 C 0.1552 0.32477 0.63629 0.0
C702 C 0.16705 0.35619 0.63183 0.0
C703 C 0.16204 0.36515 0.60087 0.0
C704 C 0.14736 0.33898 0.58812 0.0
N705 N 0.12656 0.27761 0.55484 0.0
C706 C 0.13171 0.30618 0.53901 0.0
C707 C 0.13633 0.30034 0.50732 0.0
C708 C 0.1344 0.26602 0.50342 0.0
C709 C 0.12869 0.25286 0.53302 0.0
N710 N 0.08764 0.29953 0.60074 0.0
C711 C 0.03691 0.33014 0.61544 0.0
C712 C 0.06129 0.34168 0.62872 0.0
C713 C 0.08591 0.32602 0.62158 0.0
C714 C 0.03861 0.30384 0.59304 0.0
C715 C 0.0642 0.28936 0.58555 0.0
N716 N 0.15569 0.24629 0.60382 0.0
C717 C 0.20421 0.24043 0.59783 0.0
C718 C 0.20424 0.21193 0.61762 0.0
C719 C 0.17927 0.20024 0.6288 0.0
C720 C 0.15548 0.21762 0.62169 0.0
C721 C 0.17963 0.25719 0.59108 0.0
H722 H 0.13701 0.20846 0.63206 0.0
H723 H 0.18006 0.27954 0.57655 0.0
H724 H 0.10313 0.3343 0.63527 0.0
H725 H 0.06477 0.26887 0.56875 0.0
C726 C 0.08308 0.22441 0.64239 0.0
C727 C 0.12565 0.21698 0.54041 0.0
C728 C 0.15204 0.30839 0.66732 0.0
C729 C 0.14057 0.33467 0.55588 0.0
H730 H 0.09224 0.15817 0.5549 0.0
H731 H 0.06596 0.16406 0.6098 0.0
H732 H 0.08768 0.23521 0.70992 0.0
H733 H 0.1274 0.27848 0.72354 0.0
H734 H 0.17745 0.37157 0.64932 0.0
H735 H 0.16874 0.38778 0.589 0.0
H736 H 0.14292 0.31837 0.48976 0.0
H737 H 0.13781 0.25221 0.4817 0.0
H738 H 0.06127 0.36134 0.64651 0.0
H739 H 0.02028 0.29407 0.58188 0.0
H740 H 0.22302 0.25018 0.58829 0.0
H741 H 0.17808 0.17883 0.64459 0.0
C742 C 0.71705 0.08402 0.62526 0.0
C743 C 0.6959 0.08395 0.60332 0.0
C744 C 0.69842 0.1132 0.58591 0.0
C745 C 0.72101 0.12953 0.59807 0.0
N746 N 0.73283 0.11189 0.62161 0.0
Co747 Co 0.76252 0.12773 0.64987 0.0
N748 N 0.7551 0.17541 0.64054 0.0
C749 C 0.74141 0.18673 0.61486 0.0
C750 C 0.74033 0.22125 0.61387 0.0
C751 C 0.75445 0.23203 0.64035 0.0
C752 C 0.76337 0.20341 0.65623 0.0
N753 N 0.79175 0.14219 0.6795 0.0
C754 C 0.79604 0.17251 0.69324 0.0
C755 C 0.81883 0.17133 0.71308 0.0
C756 C 0.82933 0.13941 0.71088 0.0
C757 C 0.8124 0.12276 0.69006 0.0
N758 N 0.76953 0.0797 0.65886 0.0
C759 C 0.79282 0.06663 0.67048 0.0
C760 C 0.79039 0.03292 0.67716 0.0
C761 C 0.76386 0.02463 0.66978 0.0
C762 C 0.75148 0.05379 0.65875 0.0
N763 N 0.78926 0.12867 0.61424 0.0
C764 C 0.82306 0.1427 0.56122 0.0
C765 C 0.82587 0.1602 0.58968 0.0
C766 C 0.80884 0.15339 0.61512 0.0
C767 C 0.80315 0.11704 0.56 0.0
C768 C 0.78682 0.10998 0.58696 0.0
N769 N 0.73645 0.12985 0.68463 0.0
C770 C 0.72923 0.13336 0.74081 0.0
C771 C 0.70549 0.15225 0.73554 0.0
C772 C 0.69616 0.15672 0.70448 0.0
C773 C 0.71199 0.14556 0.67941 0.0
C774 C 0.74414 0.12168 0.71491 0.0
H775 H 0.70533 0.15211 0.65584 0.0
H776 H 0.76288 0.10823 0.7194 0.0
H777 H 0.8109 0.1702 0.6348 0.0
H778 H 0.77161 0.09039 0.58528 0.0
C779 C 0.72655 0.16424 0.59532 0.0
C780 C 0.72265 0.05701 0.64866 0.0
C781 C 0.78158 0.20365 0.68435 0.0
C782 C 0.81253 0.08803 0.68396 0.0
H783 H 0.68002 0.06523 0.6008 0.0
H784 H 0.68409 0.12268 0.5684 0.0
H785 H 0.72989 0.23677 0.59652 0.0
H786 H 0.75803 0.25795 0.64702 0.0
H787 H 0.82741 0.19162 0.72708 0.0
H788 H 0.84675 0.12935 0.72364 0.0
H789 H 0.80524 0.01698 0.68892 0.0
H790 H 0.75472 1.00025 0.67342 0.0
H791 H 0.84029 0.18074 0.59184 0.0
H792 H 0.80006 0.10275 0.53841 0.0
H793 H 0.73674 0.12884 0.76467 0.0
H794 H 0.67784 0.17106 0.69948 0.0
C795 C 0.88568 0.79134 0.5473 0.0
C796 C 0.89842 0.82241 0.54701 0.0
C797 C 0.9105 0.82632 0.57625 0.0
C798 C 0.90441 0.79759 0.59291 0.0
N799 N 0.89028 0.775 0.57532 0.0
Co800 Co 0.87231 0.73293 0.59122 0.0
N801 N 0.87843 0.74525 0.63656 0.0
C802 C 0.89112 0.7732 0.64734 0.0
C803 C 0.8898 0.77665 0.67968 0.0
C804 C 0.87498 0.74957 0.68991 0.0
C805 C 0.86822 0.73093 0.66317 0.0
N806 N 0.85517 0.69015 0.60575 0.0
C807 C 0.84897 0.67975 0.63529 0.0
C808 C 0.83807 0.64749 0.63505 0.0
C809 C 0.83678 0.63759 0.60407 0.0
C810 C 0.84709 0.66413 0.58727 0.0
N811 N 0.86456 0.72187 0.5458 0.0
C812 C 0.85473 0.69275 0.53394 0.0
C813 C 0.84824 0.69449 0.50221 0.0
C814 C 0.8532 0.72711 0.4937 0.0
C815 C 0.86246 0.74326 0.52082 0.0
N816 N 0.90852 0.70837 0.59134 0.0
C817 C 0.95238 0.6663 0.61198 0.0
C818 C 0.9331 0.65495 0.58963 0.0
C819 C 0.9116 0.67632 0.57953 0.0
C820 C 0.95101 0.70008 0.62066 0.0
C821 C 0.92973 0.72054 0.6095 0.0
N822 N 0.8368 0.75714 0.59392 0.0
C823 C 0.78971 0.75588 0.61061 0.0
C824 C 0.79078 0.79018 0.61803 0.0
C825 C 0.81402 0.80809 0.61031 0.0
C826 C 0.83662 0.79131 0.59885 0.0
C827 C 0.81266 0.7401 0.59748 0.0
H828 H 0.85411 0.80679 0.59642 0.0
H829 H 0.81096 0.71381 0.59193 0.0
H830 H 0.89739 0.66602 0.56289 0.0
H831 H 0.93053 0.74588 0.61711 0.0
C832 C 0.90304 0.79618 0.62621 0.0
C833 C 0.86627 0.77965 0.52284 0.0
C834 C 0.85143 0.70038 0.66373 0.0
C835 C 0.84688 0.66684 0.55424 0.0
H836 H 0.89731 0.8414 0.52874 0.0
H837 H 0.91956 0.84917 0.58549 0.0
H838 H 0.898 0.79689 0.69404 0.0
H839 H 0.86939 0.74445 0.71419 0.0
H840 H 0.83109 0.63298 0.6551 0.0
H841 H 0.82842 0.61434 0.59482 0.0
H842 H 0.83881 0.6752 0.48768 0.0
H843 H 0.84892 0.73834 0.4708 0.0
H844 H 0.9339 0.62934 0.58096 0.0
H845 H 0.96625 0.71077 0.63648 0.0
H846 H 0.77161 0.74129 0.61556 0.0
H847 H 0.81556 0.83476 0.61543 0.0
C848 C 0.40344 0.31915 0.06831 0.0
C849 C 0.42119 0.34601 0.07135 0.0
C850 C 0.43672 0.33988 0.09829 0.0
C851 C 0.42761 0.30963 0.11022 0.0
N852 N 0.4077 0.2965 0.09198 0.0
Co853 Co 0.38458 0.25731 0.10223 0.0
N854 N 0.39338 0.25997 0.14778 0.0
C855 C 0.41509 0.27604 0.16041 0.0
C856 C 0.41611 0.27314 0.19287 0.0
C857 C 0.3939 0.25383 0.20081 0.0
C858 C 0.38052 0.24572 0.17265 0.0
N859 N 0.35998 0.21921 0.11104 0.0
C860 C 0.3491 0.20929 0.13879 0.0
C861 C 0.33374 0.18017 0.13452 0.0
C862 C 0.33534 0.17179 0.10304 0.0
C863 C 0.35158 0.19598 0.08981 0.0
N864 N 0.37638 0.25445 0.05653 0.0
C865 C 0.36741 0.22736 0.04052 0.0
C866 C 0.36177 0.23461 0.0092 0.0
C867 C 0.36714 0.26837 0.00575 0.0
C868 C 0.37576 0.27973 0.03524 0.0
N869 N 0.41611 0.22576 0.09868 0.0
C870 C 0.46527 0.19243 0.11592 0.0
C871 C 0.4399 0.18018 0.12524 0.0
C872 C 0.41606 0.19721 0.11704 0.0
C873 C 0.46515 0.21934 0.09408 0.0
C874 C 0.44031 0.23509 0.08521 0.0
N875 N 0.35423 0.28852 0.10854 0.0
C876 C 0.30628 0.30155 0.10871 0.0
C877 C 0.31123 0.32851 0.12952 0.0
C878 C 0.33805 0.33648 0.13745 0.0
C879 C 0.35905 0.31627 0.12692 0.0
C880 C 0.32824 0.28177 0.09836 0.0
H881 H 0.37915 0.32239 0.1353 0.0
H882 H 0.32416 0.26026 0.08341 0.0
H883 H 0.39812 0.18815 0.12841 0.0
H884 H 0.44112 0.25631 0.06929 0.0
C885 C 0.43085 0.29818 0.14174 0.0
C886 C 0.38268 0.31458 0.04303 0.0
C887 C 0.35642 0.2236 0.16988 0.0
C888 C 0.35666 0.20005 0.05731 0.0
H889 H 0.42221 0.36802 0.05632 0.0
H890 H 0.45119 0.35692 0.10927 0.0
H891 H 0.43055 0.28482 0.209 0.0
H892 H 0.38821 0.24673 0.2246 0.0
H893 H 0.32329 0.1657 0.1524 0.0
H894 H 0.32556 0.15078 0.09121 0.0
H895 H 0.35242 0.21821 0.99174 0.0
H896 H 0.36408 0.28318 0.98448 0.0
H897 H 0.43831 0.15841 0.14053 0.0
H898 H 0.48407 0.22948 0.08522 0.0
H899 H 0.28565 0.29479 0.10191 0.0
H900 H 0.34274 0.35742 0.15302 0.0
C901 C 0.39168 0.69592 0.91679 0.0
C902 C 0.41008 0.66969 0.91988 0.0
C903 C 0.42621 0.67051 0.89319 0.0
C904 C 0.41684 0.69714 0.87519 0.0
N905 N 0.39612 0.71304 0.88936 0.0
Co906 Co 0.37321 0.74876 0.8704 0.0
N907 N 0.38338 0.73673 0.82689 0.0
C908 C 0.4057 0.71916 0.81887 0.0
C909 C 0.40761 0.71517 0.78656 0.0
C910 C 0.38522 0.73148 0.77385 0.0
C911 C 0.37079 0.74457 0.79915 0.0
N912 N 0.34904 0.7839 0.85285 0.0
C913 C 0.33839 0.78684 0.82333 0.0
C914 C 0.32246 0.81567 0.82096 0.0
C915 C 0.32354 0.83119 0.85005 0.0
C916 C 0.34001 0.81113 0.86856 0.0
N917 N 0.36331 0.76083 0.91409 0.0
C918 C 0.3537 0.79064 0.92395 0.0
C919 C 0.34698 0.79015 0.95557 0.0
C920 C 0.35239 0.75794 0.96581 0.0
C921 C 0.36205 0.74055 0.93977 0.0
N922 N 0.40452 0.78124 0.87025 0.0
C923 C 0.4532 0.81844 0.85715 0.0
C924 C 0.42906 0.82308 0.83962 0.0
C925 C 0.40572 0.80411 0.84589 0.0
C926 C 0.4515 0.7961 0.88326 0.0
C927 C 0.42702 0.77824 0.88962 0.0
N928 N 0.34302 0.7164 0.86781 0.0
C929 C 0.29487 0.70448 0.86557 0.0
C930 C 0.29989 0.67429 0.84928 0.0
C931 C 0.32689 0.66449 0.84493 0.0
C932 C 0.348 0.68565 0.85448 0.0
C933 C 0.31679 0.72524 0.87467 0.0
H934 H 0.3684 0.67776 0.84921 0.0
H935 H 0.31253 0.74917 0.88567 0.0
H936 H 0.38922 0.80705 0.82928 0.0
H937 H 0.42682 0.76084 0.9093 0.0
C938 C 0.42104 0.70189 0.84237 0.0
C939 C 0.37019 0.70501 0.93979 0.0
C940 C 0.34597 0.76543 0.79639 0.0
C941 C 0.34377 0.81387 0.90156 0.0
H942 H 0.4112 0.6514 0.93883 0.0
H943 H 0.44138 0.65212 0.88658 0.0
H944 H 0.42274 0.70091 0.7738 0.0
H945 H 0.38007 0.73338 0.74891 0.0
H946 H 0.31167 0.82496 0.80023 0.0
H947 H 0.31294 0.85383 0.85706 0.0
H948 H 0.33711 0.80987 0.96892 0.0
H949 H 0.34887 0.74809 0.98934 0.0
H950 H 0.428 0.84072 0.82015 0.0
H951 H 0.46915 0.79128 0.89813 0.0
H952 H 0.2742 0.71286 0.86963 0.0
H953 H 0.33172 0.64106 0.83312 0.0
C954 C 0.21249 0.43566 0.88693 0.0
C955 C 0.19181 0.43163 0.90867 0.0
C956 C 0.19715 0.4019 0.9245 0.0
C957 C 0.2208 0.38944 0.91158 0.0
N958 N 0.23056 0.40993 0.88908 0.0
Co959 Co 0.26115 0.40039 0.86051 0.0
N960 N 0.25827 0.35156 0.86723 0.0
C961 C 0.24613 0.33676 0.89209 0.0
C962 C 0.24815 0.30231 0.89102 0.0
C963 C 0.26265 0.29533 0.86403 0.0
C964 C 0.26866 0.32601 0.84997 0.0
N965 N 0.2913 0.39207 0.83086 0.0
C966 C 0.29812 0.3635 0.81552 0.0
C967 C 0.32058 0.36896 0.79634 0.0
C968 C 0.32826 0.40188 0.80065 0.0
C969 C 0.31008 0.41479 0.82198 0.0
N970 N 0.26367 0.44946 0.85424 0.0
C971 C 0.28562 0.46641 0.84415 0.0
C972 C 0.28016 0.49997 0.83964 0.0
C973 C 0.25309 0.50403 0.84685 0.0
C974 C 0.24338 0.47256 0.85555 0.0
N975 N 0.28786 0.40148 0.89644 0.0
C976 C 0.32224 0.3901 0.94993 0.0
C977 C 0.32673 0.37398 0.9211 0.0
C978 C 0.30939 0.37947 0.8953 0.0
C979 C 0.30048 0.41325 0.9512 0.0
C980 C 0.28387 0.4191 0.92398 0.0
N981 N 0.23519 0.39674 0.82515 0.0
C982 C 0.2266 0.39837 0.76892 0.0
C983 C 0.20445 0.37646 0.77246 0.0
C984 C 0.1967 0.36721 0.80299 0.0
C985 C 0.21242 0.37736 0.82891 0.0
C986 C 0.24143 0.40877 0.79573 0.0
H987 H 0.20698 0.3677 0.85182 0.0
H988 H 0.2589 0.42484 0.79248 0.0
H989 H 0.31283 0.36383 0.87505 0.0
H990 H 0.26718 0.43672 0.92565 0.0
C991 C 0.22955 0.35567 0.91269 0.0
C992 C 0.21515 0.46425 0.86477 0.0
C993 C 0.28623 0.33025 0.82207 0.0
C994 C 0.30716 0.44887 0.83004 0.0
H995 H 0.17443 0.44795 0.91203 0.0
H996 H 0.18406 0.38955 0.9414 0.0
H997 H 0.23944 0.28433 0.9073 0.0
H998 H 0.26839 0.27054 0.85585 0.0
H999 H 0.33075 0.3509 0.78134 0.0
H1000 H 0.34463 0.41501 0.7889 0.0
H1001 H 0.29348 0.51872 0.82949 0.0
H1002 H 0.24212 0.5274 0.84476 0.0
H1003 H 0.34268 0.3553 0.91892 0.0
H1004 H 0.29611 0.42633 0.97309 0.0
H1005 H 0.23291 0.40646 0.7456 0.0
H1006 H 0.1797 0.35032 0.8067 0.0
C1007 C 0.6065 0.31902 0.93907 0.0
C1008 C 0.58877 0.34591 0.93604 0.0
C1009 C 0.57322 0.33979 0.90911 0.0
C1010 C 0.5823 0.30952 0.89719 0.0
N1011 N 0.60219 0.29637 0.91541 0.0
Co1012 Co 0.62527 0.25714 0.90516 0.0
N1013 N 0.61646 0.25981 0.85961 0.0
C1014 C 0.59475 0.27591 0.84699 0.0
C1015 C 0.59373 0.27302 0.81453 0.0
C1016 C 0.61593 0.25369 0.80658 0.0
C1017 C 0.6293 0.24557 0.83474 0.0
N1018 N 0.64983 0.21902 0.89634 0.0
C1019 C 0.66069 0.20909 0.86858 0.0
C1020 C 0.67603 0.17995 0.87285 0.0
C1021 C 0.67443 0.17156 0.90433 0.0
C1022 C 0.65822 0.19578 0.91757 0.0
N1023 N 0.63349 0.25427 0.95085 0.0
C1024 C 0.64243 0.22718 0.96686 0.0
C1025 C 0.6481 0.23442 0.99817 0.0
C1026 C 0.64276 0.2682 1.00162 0.0
C1027 C 0.63415 0.27956 0.97214 0.0
N1028 N 0.59371 0.22563 0.90872 0.0
C1029 C 0.54452 0.19239 0.89147 0.0
C1030 C 0.56987 0.18009 0.88216 0.0
C1031 C 0.59373 0.19708 0.89036 0.0
C1032 C 0.54467 0.21929 0.91331 0.0
C1033 C 0.56952 0.23501 0.92218 0.0
N1034 N 0.65565 0.28831 0.89883 0.0
C1035 C 0.70362 0.30128 0.89861 0.0
C1036 C 0.69868 0.32824 0.87781 0.0
C1037 C 0.67186 0.33624 0.8699 0.0
C1038 C 0.65084 0.31608 0.88044 0.0
C1039 C 0.68164 0.28153 0.90899 0.0
H1040 H 0.63075 0.32222 0.87209 0.0
H1041 H 0.68571 0.26002 0.92393 0.0
H1042 H 0.61166 0.188 0.879 0.0
H1043 H 0.56873 0.25623 0.93811 0.0
C1044 C 0.57903 0.29807 0.86567 0.0
C1045 C 0.62727 0.31442 0.96433 0.0
C1046 C 0.6534 0.22343 0.8375 0.0
C1047 C 0.65315 0.19985 0.95007 0.0
H1048 H 0.58779 0.36792 0.95107 0.0
H1049 H 0.55877 0.35685 0.89814 0.0
H1050 H 0.5793 0.28472 0.7984 0.0
H1051 H 0.6216 0.24659 0.78279 0.0
H1052 H 0.68646 0.16547 0.85496 0.0
H1053 H 0.68419 0.15055 0.91614 0.0
H1054 H 0.65744 0.21801 0.01563 0.0
H1055 H 0.64586 0.28301 0.02289 0.0
H1056 H 0.57145 0.15832 0.86688 0.0
H1057 H 0.52576 0.22946 0.92216 0.0
H1058 H 0.72424 0.29449 0.90539 0.0
H1059 H 0.66718 0.35719 0.85432 0.0
C1060 C 0.79249 0.58889 0.88427 0.0
C1061 C 0.81539 0.59336 0.90328 0.0
C1062 C 0.81156 0.62313 0.91961 0.0
C1063 C 0.78658 0.63537 0.90979 0.0
N1064 N 0.77461 0.61468 0.8887 0.0
Co1065 Co 0.74153 0.62471 0.86325 0.0
N1066 N 0.74527 0.67352 0.86912 0.0
C1067 C 0.75963 0.68832 0.89262 0.0
C1068 C 0.75774 0.7228 0.89137 0.0
C1069 C 0.741 0.72972 0.86573 0.0
C1070 C 0.73363 0.69899 0.85253 0.0
N1071 N 0.70896 0.63306 0.83652 0.0
C1072 C 0.70118 0.66142 0.82127 0.0
C1073 C 0.67745 0.65575 0.80376 0.0
C1074 C 0.66987 0.62304 0.80929 0.0
C1075 C 0.68943 0.61036 0.82946 0.0
N1076 N 0.73793 0.57572 0.85782 0.0
C1077 C 0.71508 0.55878 0.85038 0.0
C1078 C 0.71981 0.52487 0.8467 0.0
C1079 C 0.74737 0.52062 0.85169 0.0
C1080 C 0.75787 0.55227 0.85805 0.0
N1081 N 0.71812 0.62447 0.90187 0.0
C1082 C 0.68989 0.63837 0.95923 0.0
C1083 C 0.68239 0.6535 0.93055 0.0
C1084 C 0.69669 0.6467 0.90277 0.0
C1085 C 0.7114 0.61479 0.95828 0.0
C1086 C 0.72488 0.60775 0.92932 0.0
N1087 N 0.76466 0.628 0.82561 0.0
C1088 C 0.77103 0.62523 0.76905 0.0
C1089 C 0.79443 0.64555 0.7716 0.0
C1090 C 0.80317 0.65533 0.80177 0.0
C1091 C 0.78807 0.64657 0.82815 0.0
C1092 C 0.75658 0.61636 0.79648 0.0
H1093 H 0.79483 0.65656 0.85053 0.0
H1094 H 0.73839 0.60126 0.79406 0.0
H1095 H 0.69112 0.66157 0.88251 0.0
H1096 H 0.7415 0.58992 0.92951 0.0
C1097 C 0.778 0.66927 0.9115 0.0
C1098 C 0.78692 0.55995 0.8628 0.0
C1099 C 0.71397 0.6946 0.82604 0.0
C1100 C 0.69263 0.57634 0.83781 0.0
H1101 H 0.83324 0.57754 0.90472 0.0
H1102 H 0.82637 0.63571 0.93465 0.0
H1103 H 0.76799 0.74084 0.90655 0.0
H1104 H 0.73479 0.75448 0.85783 0.0
H1105 H 0.66646 0.6734 0.78889 0.0
H1106 H 0.65269 0.60982 0.79889 0.0
H1107 H 0.70552 0.50598 0.83846 0.0
H1108 H 0.75865 0.49736 0.84949 0.0
H1109 H 0.66644 0.67233 0.92977 0.0
H1110 H 0.718 0.60219 0.97977 0.0
H1111 H 0.76373 0.61676 0.74608 0.0
H1112 H 0.82085 0.67135 0.80498 0.0
C1113 C 0.61855 0.69576 0.09061 0.0
C1114 C 0.60071 0.66891 0.08795 0.0
C1115 C 0.58498 0.66924 0.11498 0.0
C1116 C 0.59404 0.69622 0.13273 0.0
N1117 N 0.61416 0.71279 0.11809 0.0
Co1118 Co 0.63655 0.74932 0.13646 0.0
N1119 N 0.62741 0.73696 0.18021 0.0
C1120 C 0.60567 0.71861 0.18877 0.0
C1121 C 0.60448 0.7145 0.22112 0.0
C1122 C 0.62673 0.73154 0.23328 0.0
C1123 C 0.64037 0.74515 0.20762 0.0
N1124 N 0.66012 0.78537 0.15345 0.0
C1125 C 0.67124 0.78866 0.1827 0.0
C1126 C 0.68653 0.81804 0.1847 0.0
C1127 C 0.68455 0.83353 0.15564 0.0
C1128 C 0.66822 0.8129 0.13751 0.0
N1129 N 0.64545 0.76163 0.09254 0.0
C1130 C 0.65424 0.79174 0.08241 0.0
C1131 C 0.66056 0.79134 0.05067 0.0
C1132 C 0.65578 0.7589 0.04064 0.0
C1133 C 0.64685 0.74129 0.06691 0.0
N1134 N 0.60458 0.78072 0.13723 0.0
C1135 C 0.55572 0.81749 0.1504 0.0
C1136 C 0.57979 0.82217 0.16803 0.0
C1137 C 0.6032 0.8034 0.16173 0.0
C1138 C 0.5575 0.79517 0.12428 0.0
C1139 C 0.58207 0.77748 0.1179 0.0
N1140 N 0.66754 0.71814 0.13843 0.0
C1141 C 0.71602 0.70911 0.14078 0.0
C1142 C 0.71229 0.67875 0.15738 0.0
C1143 C 0.68563 0.6673 0.16156 0.0
C1144 C 0.66371 0.68718 0.15186 0.0
C1145 C 0.69336 0.72834 0.13135 0.0
H1146 H 0.64361 0.67831 0.15739 0.0
H1147 H 0.69672 0.75232 0.12001 0.0
H1148 H 0.6197 0.8064 0.17835 0.0
H1149 H 0.5824 0.76012 0.0982 0.0
C1150 C 0.59031 0.70082 0.16565 0.0
C1151 C 0.6395 0.70547 0.06718 0.0
C1152 C 0.66475 0.76686 0.20976 0.0
C1153 C 0.66392 0.8154 0.10457 0.0
H1154 H 0.5997 0.65053 0.06907 0.0
H1155 H 0.57035 0.65034 0.12196 0.0
H1156 H 0.58993 0.69969 0.23426 0.0
H1157 H 0.63232 0.73358 0.25809 0.0
H1158 H 0.69751 0.82765 0.20517 0.0
H1159 H 0.69453 0.8565 0.14837 0.0
H1160 H 0.66981 0.81133 0.03708 0.0
H1161 H 0.65922 0.74907 0.01709 0.0
H1162 H 0.58077 0.83977 0.18754 0.0
H1163 H 0.53988 0.79029 0.10938 0.0
H1164 H 0.73627 0.71861 0.13614 0.0
H1165 H 0.68151 0.6442 0.17422 0.0
C1166 C 0.21727 0.58867 0.1228 0.0
C1167 C 0.19438 0.59311 0.10377 0.0
C1168 C 0.1982 0.62286 0.08742 0.0
C1169 C 0.22317 0.63513 0.09726 0.0
N1170 N 0.23514 0.61448 0.11837 0.0
Co1171 Co 0.2682 0.62455 0.14382 0.0
N1172 N 0.26443 0.67335 0.13793 0.0
C1173 C 0.25007 0.68813 0.11443 0.0
C1174 C 0.25191 0.72262 0.11569 0.0
C1175 C 0.26862 0.72956 0.14135 0.0
C1176 C 0.27602 0.69884 0.15454 0.0
N1177 N 0.30078 0.63295 0.17053 0.0
C1178 C 0.30854 0.66133 0.18578 0.0
C1179 C 0.33229 0.65571 0.20326 0.0
C1180 C 0.3399 0.62302 0.19773 0.0
C1181 C 0.32034 0.61029 0.17758 0.0
N1182 N 0.27183 0.57557 0.14928 0.0
C1183 C 0.2947 0.55867 0.15673 0.0
C1184 C 0.28998 0.52475 0.16045 0.0
C1185 C 0.26242 0.52048 0.15547 0.0
C1186 C 0.2519 0.55211 0.14908 0.0
N1187 N 0.29163 0.62431 0.1052 0.0
C1188 C 0.31997 0.638 0.04786 0.0
C1189 C 0.32733 0.65334 0.07649 0.0
C1190 C 0.31299 0.64663 0.10426 0.0
C1191 C 0.29851 0.61433 0.04887 0.0
C1192 C 0.28496 0.60742 0.07782 0.0
N1193 N 0.24508 0.62784 0.18146 0.0
C1194 C 0.23875 0.62512 0.23804 0.0
C1195 C 0.21533 0.64539 0.23549 0.0
C1196 C 0.20655 0.65511 0.20532 0.0
C1197 C 0.22164 0.64636 0.17893 0.0
C1198 C 0.25319 0.61624 0.2106 0.0
H1199 H 0.21486 0.65631 0.15655 0.0
H1200 H 0.2714 0.60118 0.21301 0.0
H1201 H 0.31847 0.66163 0.12447 0.0
H1202 H 0.26839 0.58952 0.07767 0.0
C1203 C 0.23172 0.66905 0.09554 0.0
C1204 C 0.22285 0.55976 0.1443 0.0
C1205 C 0.29567 0.69447 0.18105 0.0
C1206 C 0.31714 0.57625 0.16926 0.0
H1207 H 0.17654 0.57726 0.10233 0.0
H1208 H 0.18339 0.63542 0.07237 0.0
H1209 H 0.24163 0.74065 0.10052 0.0
H1210 H 0.27479 0.75433 0.14928 0.0
H1211 H 0.34326 0.67338 0.21812 0.0
H1212 H 0.35709 0.60982 0.20811 0.0
H1213 H 0.30428 0.50588 0.1687 0.0
H1214 H 0.25115 0.4972 0.15769 0.0
H1215 H 0.34322 0.67226 0.07723 0.0
H1216 H 0.292 0.60156 0.02743 0.0
H1217 H 0.24608 0.61668 0.261 0.0
H1218 H 0.18884 0.67108 0.20212 0.0
C1219 C 0.79771 0.43505 0.12058 0.0
C1220 C 0.81844 0.43092 0.09893 0.0
C1221 C 0.81305 0.40122 0.08307 0.0
C1222 C 0.78931 0.38888 0.09588 0.0
N1223 N 0.77955 0.4094 0.11834 0.0
Co1224 Co 0.7489 0.4 0.14685 0.0
N1225 N 0.75167 0.35116 0.14016 0.0
C1226 C 0.7638 0.3363 0.11533 0.0
C1227 C 0.76171 0.30185 0.11643 0.0
C1228 C 0.74717 0.29494 0.14341 0.0
C1229 C 0.74122 0.32566 0.15744 0.0
N1230 N 0.71869 0.39181 0.17645 0.0
C1231 C 0.7118 0.36328 0.19182 0.0
C1232 C 0.68933 0.36883 0.21096 0.0
C1233 C 0.68172 0.40176 0.20659 0.0
C1234 C 0.69995 0.41459 0.18528 0.0
N1235 N 0.74648 0.44906 0.15308 0.0
C1236 C 0.72454 0.46611 0.16305 0.0
C1237 C 0.73005 0.49968 0.16743 0.0
C1238 C 0.75714 0.50363 0.16026 0.0
C1239 C 0.76681 0.4721 0.15174 0.0
N1240 N 0.72224 0.40114 0.11088 0.0
C1241 C 0.68786 0.38985 0.05737 0.0
C1242 C 0.68331 0.37377 0.0862 0.0
C1243 C 0.70065 0.37921 0.11202 0.0
C1244 C 0.70968 0.41291 0.0561 0.0
C1245 C 0.7263 0.41872 0.08333 0.0
N1246 N 0.7748 0.39628 0.18225 0.0
C1247 C 0.78338 0.39797 0.23849 0.0
C1248 C 0.80548 0.37599 0.23498 0.0
C1249 C 0.8132 0.36664 0.20447 0.0
C1250 C 0.79752 0.37679 0.17853 0.0
C1251 C 0.76858 0.40838 0.21166 0.0
H1252 H 0.80295 0.36708 0.15565 0.0
H1253 H 0.75114 0.42451 0.21487 0.0
H1254 H 0.69715 0.36359 0.13227 0.0
H1255 H 0.74304 0.43627 0.08166 0.0
C1256 C 0.78047 0.35514 0.09476 0.0
C1257 C 0.79506 0.46366 0.14272 0.0
C1258 C 0.72364 0.32999 0.18533 0.0
C1259 C 0.70294 0.44866 0.17716 0.0
H1260 H 0.8359 0.44715 0.09565 0.0
H1261 H 0.82615 0.3888 0.06623 0.0
H1262 H 0.7704 0.28383 0.10017 0.0
H1263 H 0.74137 0.27019 0.1516 0.0
H1264 H 0.67911 0.35082 0.22596 0.0
H1265 H 0.66537 0.41496 0.2183 0.0
H1266 H 0.71674 0.51852 0.17745 0.0
H1267 H 0.76814 0.52698 0.1622 0.0
H1268 H 0.6673 0.35514 0.08839 0.0
H1269 H 0.71411 0.42595 0.03421 0.0
H1270 H 0.77708 0.40613 0.2618 0.0
H1271 H 0.83017 0.34969 0.2008 0.0
C1272 C 0.20722 0.5371 0.19673 0.0
C1273 C 0.20202 0.54125 0.16415 0.0
H1274 H 0.1969 0.51391 0.24014 0.0
C1275 C 0.17921 0.52432 0.15127 0.0
H1276 H 0.22496 0.54875 0.20759 0.0
C1277 C 0.16198 0.5045 0.17064 0.0
C1278 C 0.16686 0.50093 0.20366 0.0
H1279 H 0.17521 0.52514 0.12603 0.0
H1280 H 0.14533 0.49154 0.15917 0.0
C1281 C 0.19044 0.51714 0.2158 0.0
C1282 C 0.51412 0.15366 0.17744 0.0
C1283 C 0.53915 0.15329 0.16166 0.0
H1284 H 0.47217 0.1674 0.17646 0.0
C1285 C 0.53971 0.16521 0.13012 0.0
H1286 H 0.51293 0.1456 0.20192 0.0
C1287 C 0.51597 0.17746 0.11499 0.0
C1288 C 0.49093 0.1784 0.13102 0.0
H1289 H 0.55865 0.16533 0.11716 0.0
H1290 H 0.51731 0.18618 0.09075 0.0
C1291 C 0.49056 0.16626 0.16256 0.0
C1292 C 0.82322 0.51417 0.16147 0.0
C1293 C 0.81951 0.47907 0.15927 0.0
H1294 H 0.84454 0.55507 0.18411 0.0
C1295 C 0.83876 0.45838 0.17467 0.0
H1296 H 0.81049 0.53111 0.14787 0.0
C1297 C 0.85938 0.47226 0.19407 0.0
C1298 C 0.86091 0.50719 0.19939 0.0
H1299 H 0.83735 0.4313 0.17263 0.0
H1300 H 0.87378 0.45544 0.20543 0.0
C1301 C 0.84337 0.52803 0.18161 0.0
C1302 C 0.52557 0.84559 0.19222 0.0
C1303 C 0.52939 0.83496 0.16043 0.0
H1304 H 0.4994 0.86841 0.22673 0.0
C1305 C 0.50761 0.84102 0.13901 0.0
H1306 H 0.54083 0.84072 0.21029 0.0
C1307 C 0.48318 0.8564 0.14906 0.0
C1308 C 0.47969 0.86695 0.18076 0.0
H1309 H 0.50926 0.83389 0.11436 0.0
H1310 H 0.46681 0.85984 0.13195 0.0
C1311 C 0.50147 0.86161 0.202 0.0
C1312 C 0.17116 0.45926 0.83333 0.0
C1313 C 0.19065 0.47983 0.84846 0.0
H1314 H 0.13576 0.45653 0.8032 0.0
C1315 C 0.18705 0.51495 0.84632 0.0
H1316 H 0.17246 0.43217 0.83538 0.0
C1317 C 0.16676 0.52892 0.82646 0.0
C1318 C 0.14899 0.5082 0.80886 0.0
H1319 H 0.19995 0.53182 0.85979 0.0
H1320 H 0.16562 0.55596 0.82405 0.0
C1321 C 0.15041 0.47326 0.81421 0.0
C1322 C 0.4938 0.17748 0.89238 0.0
C1323 C 0.51884 0.1784 0.87635 0.0
H1324 H 0.45111 0.1654 0.8902 0.0
C1325 C 0.51921 0.16628 0.84481 0.0
H1326 H 0.49247 0.1862 0.91662 0.0
C1327 C 0.49564 0.15371 0.82992 0.0
C1328 C 0.47061 0.15336 0.84569 0.0
H1329 H 0.5376 0.16739 0.83092 0.0
H1330 H 0.49683 0.14566 0.80544 0.0
C1331 C 0.47005 0.16527 0.87724 0.0
C1332 C 0.80252 0.53724 0.81037 0.0
C1333 C 0.80775 0.54144 0.84295 0.0
H1334 H 0.81278 0.51398 0.76699 0.0
C1335 C 0.83057 0.52453 0.85582 0.0
H1336 H 0.78477 0.54887 0.79953 0.0
C1337 C 0.84777 0.50467 0.83646 0.0
C1338 C 0.84285 0.50105 0.80345 0.0
H1339 H 0.83459 0.52538 0.88105 0.0
H1340 H 0.86442 0.49172 0.84792 0.0
C1341 C 0.81927 0.51725 0.79131 0.0
C1342 C 0.5259 0.85693 0.85817 0.0
C1343 C 0.52934 0.86752 0.82648 0.0
H1344 H 0.49986 0.83455 0.89297 0.0
C1345 C 0.50742 0.86247 0.80536 0.0
H1346 H 0.54236 0.86018 0.87521 0.0
C1347 C 0.48325 0.84664 0.81524 0.0
C1348 C 0.47952 0.8359 0.84702 0.0
H1349 H 0.50941 0.86933 0.78064 0.0
H1350 H 0.46788 0.84197 0.79726 0.0
C1351 C 0.50143 0.84174 0.86832 0.0
C1352 C 0.1268 0.17841 0.49275 0.0
C1353 C 0.13958 0.19105 0.5202 0.0
H1354 H 0.13151 0.15275 0.44831 0.0
C1355 C 0.16739 0.18358 0.52515 0.0
H1356 H 0.10559 0.1842 0.48796 0.0
C1357 C 0.18235 0.16526 0.50249 0.0
C1358 C 0.16996 0.15441 0.474 0.0
H1359 H 0.17794 0.19346 0.54581 0.0
H1360 H 0.20402 0.16172 0.50624 0.0
C1361 C 0.14176 0.16044 0.46999 0.0
C1362 C 0.82757 0.16482 0.50492 0.0
C1363 C 0.83994 0.15396 0.53341 0.0
H1364 H 0.832 0.193 0.46159 0.0
C1365 C 0.86816 0.15996 0.53741 0.0
H1366 H 0.80589 0.16131 0.50118 0.0
C1367 C 0.88313 0.1779 0.51464 0.0
C1368 C 0.87035 0.19054 0.48718 0.0
H1369 H 0.8784 0.15226 0.5591 0.0
H1370 H 0.90434 0.18367 0.51943 0.0
C1371 C 0.84254 0.18311 0.48225 0.0
C1372 C 0.83628 0.84686 0.46624 0.0
C1373 C 0.80783 0.84257 0.46995 0.0
H1374 H 0.87686 0.83086 0.47935 0.0
C1375 C 0.79966 0.81644 0.49062 0.0
H1376 H 0.84425 0.86466 0.44949 0.0
C1377 C 0.81857 0.79738 0.50814 0.0
C1378 C 0.84672 0.80262 0.50527 0.0
H1379 H 0.77852 0.80959 0.49306 0.0
H1380 H 0.81106 0.77789 0.52376 0.0
C1381 C 0.85535 0.82731 0.48364 0.0
C1382 C 0.192 0.79687 0.49883 0.0
C1383 C 0.16384 0.80185 0.50196 0.0
H1384 H 0.23208 0.8094 0.5136 0.0
C1385 C 0.15521 0.82639 0.52373 0.0
H1386 H 0.19952 0.7775 0.48309 0.0
C1387 C 0.17427 0.84604 0.54104 0.0
C1388 C 0.20272 0.84202 0.53708 0.0
H1389 H 0.13371 0.82974 0.52821 0.0
H1390 H 0.16631 0.86371 0.55792 0.0
C1391 C 0.21092 0.81605 0.51625 0.0
C1392 C 0.68303 0.97781 0.67409 0.0
C1393 C 0.66367 0.99103 0.69512 0.0
H1394 H 0.71603 0.9879 0.64213 0.0
C1395 C 0.66179 0.02636 0.6975 0.0
H1396 H 0.68506 0.95083 0.67147 0.0
C1397 C 0.68001 0.04765 0.68124 0.0
C1398 C 0.70059 0.03433 0.66188 0.0
H1399 H 0.64684 0.03756 0.71298 0.0
H1400 H 0.67875 0.07457 0.68493 0.0
C1401 C 0.70108 0.99913 0.65758 0.0
C1402 C 0.99194 0.62531 0.60767 0.0
C1403 C 0.97386 0.64389 0.62651 0.0
H1404 H 0.02849 0.59544 0.6062 0.0
C1405 C 0.97769 0.64299 0.65971 0.0
H1406 H 0.98972 0.62554 0.5821 0.0
C1407 C 0.9995 0.62507 0.6736 0.0
C1408 C 0.0185 0.60806 0.65468 0.0
H1409 H 0.96411 0.6569 0.67497 0.0
H1410 H 1.00238 0.62613 0.69908 0.0
C1411 C 0.01414 0.60802 0.62153 0.0
C1412 C 0.37478 0.01543 0.67447 0.0
C1413 C 0.35878 0.04186 0.68609 0.0
H1414 H 0.37557 0.96867 0.64905 0.0
C1415 C 0.33092 0.04271 0.6778 0.0
H1416 H 0.39613 0.0137 0.68099 0.0
C1417 C 0.31905 0.01697 0.6594 0.0
C1418 C 0.33468 0.98938 0.64933 0.0
H1419 H 0.31803 0.06258 0.68683 0.0
H1420 H 0.29728 0.01752 0.65494 0.0
C1421 C 0.36289 0.98953 0.65634 0.0
C1422 C 0.00682 0.37858 0.63337 0.0
C1423 C 0.01036 0.34383 0.62772 0.0
H1424 H 0.98166 0.41784 0.65231 0.0
C1425 C 0.98972 0.32197 0.63778 0.0
H1426 H 0.02232 0.39627 0.62606 0.0
C1427 C 0.96669 0.33424 0.65367 0.0
C1428 C 0.96301 0.36903 0.65957 0.0
H1429 H 0.99195 0.29506 0.63471 0.0
H1430 H 0.95218 0.31594 0.66216 0.0
C1431 C 0.98351 0.39098 0.64883 0.0
C1432 C 0.64729 0.98928 0.35075 0.0
C1433 C 0.67549 0.98935 0.35778 0.0
H1434 H 0.61393 0.01325 0.32614 0.0
C1435 C 0.69098 0.01711 0.3478 0.0
H1436 H 0.63473 0.96828 0.35797 0.0
C1437 C 0.67899 0.0428 0.32945 0.0
C1438 C 0.65114 0.04173 0.32113 0.0
H1439 H 0.71275 0.01782 0.35228 0.0
H1440 H 0.69178 0.06279 0.32048 0.0
C1441 C 0.63527 0.01513 0.33268 0.0
C1442 C 0.01084 0.62303 0.33471 0.0
C1443 C 0.99199 0.60585 0.35368 0.0
H1444 H 0.04608 0.65513 0.33324 0.0
C1445 C 0.99646 0.60573 0.38681 0.0
H1446 H 0.00784 0.62418 0.30925 0.0
C1447 C 0.01866 0.62311 0.4006 0.0
C1448 C 0.03658 0.64188 0.38171 0.0
H1449 H 0.9822 0.59305 0.40218 0.0
H1450 H 0.02097 0.62329 0.42616 0.0
C1451 C 0.03263 0.64105 0.34853 0.0
C1452 C 0.34787 0.02642 0.30988 0.0
C1453 C 0.34595 0.9911 0.31228 0.0
H1454 H 0.33098 0.07465 0.32246 0.0
C1455 C 0.32661 0.97791 0.33336 0.0
H1456 H 0.36279 0.03759 0.29435 0.0
C1457 C 0.30861 0.99925 0.3499 0.0
C1458 C 0.30914 0.03446 0.34558 0.0
H1459 H 0.32456 0.95093 0.33598 0.0
H1460 H 0.29367 0.98806 0.36538 0.0
C1461 C 0.3297 0.04774 0.32618 0.0
C1462 C 0.04318 0.33395 0.35353 0.0
C1463 C 0.04681 0.36875 0.34761 0.0
H1464 H 0.01799 0.29472 0.37252 0.0
C1465 C 0.02627 0.39065 0.35835 0.0
H1466 H 0.05772 0.31569 0.34504 0.0
C1467 C 1.00299 0.37819 0.37384 0.0
C1468 C 0.9995 0.34344 0.3795 0.0
H1469 H 0.02808 0.41752 0.35487 0.0
H1470 H 0.98747 0.39586 0.38115 0.0
C1471 C 0.02018 0.32163 0.36943 0.0
C1472 C 0.64782 0.65544 0.99026 0.0
C1473 C 0.67625 0.64967 0.98948 0.0
H1474 H 0.61389 0.67689 0.01526 0.0
C1475 C 0.6917 0.65912 0.01638 0.0
H1476 H 0.63514 0.64861 0.9701 0.0
C1477 C 0.6794 0.67552 0.04225 0.0
C1478 C 0.6512 0.68234 0.0424 0.0
H1479 H 0.71359 0.65567 0.01664 0.0
H1480 H 0.69216 0.6841 0.06174 0.0
C1481 C 0.6355 0.67144 0.01631 0.0
C1482 C 0.36204 0.65536 0.01695 0.0
C1483 C 0.33367 0.64916 0.01759 0.0
H1484 H 0.39588 0.67717 0.99205 0.0
C1485 C 0.31827 0.65805 0.99048 0.0
H1486 H 0.37469 0.64894 0.03726 0.0
C1487 C 0.33055 0.67437 0.96455 0.0
C1488 C 0.35868 0.68168 0.96455 0.0
H1489 H 0.29642 0.65426 0.99008 0.0
H1490 H 0.3178 0.68256 0.94489 0.0
C1491 C 0.37434 0.67131 0.99086 0.0
C1492 C 0.32627 0.36696 0.00564 0.0
C1493 C 0.33896 0.37938 0.97827 0.0
H1494 H 0.33044 0.33688 0.04781 0.0
C1495 C 0.36744 0.37522 0.97571 0.0
H1496 H 0.3044 0.36915 0.00823 0.0
C1497 C 0.38241 0.35697 0.99856 0.0
C1498 C 0.36928 0.34234 0.02456 0.0
H1499 H 0.3779 0.38429 0.95489 0.0
H1500 H 0.40383 0.35213 0.99462 0.0
C1501 C 0.34121 0.34842 0.02833 0.0
C1502 C 0.6838 0.36666 1.00168 0.0
C1503 C 0.67113 0.37917 0.02903 0.0
H1504 H 0.67956 0.33652 0.95956 0.0
C1505 C 0.64263 0.37512 0.03158 0.0
H1506 H 0.70567 0.36875 0.99911 0.0
C1507 C 0.62762 0.35689 0.00874 0.0
C1508 C 0.64072 0.34217 0.98278 0.0
H1509 H 0.63218 0.38427 0.05237 0.0
H1510 H 0.60619 0.35214 0.01268 0.0
C1511 C 0.66881 0.34813 0.97902 0.0
C1512 C 0.21894 0.28601 0.278 0.0
C1513 C 0.1935 0.29662 0.28923 0.0
H1514 H 0.2501 0.24784 0.28005 0.0
C1515 C 0.18002 0.27713 0.31193 0.0
H1516 H 0.22981 0.30109 0.26087 0.0
C1517 C 0.19171 0.24736 0.32318 0.0
C1518 C 0.21696 0.23641 0.31172 0.0
H1519 H 0.16063 0.28527 0.32129 0.0
H1520 H 0.18097 0.23269 0.34075 0.0
C1521 C 0.23058 0.25592 0.2891 0.0
C1522 C 0.77873 0.161 0.37132 0.0
C1523 C 0.77999 0.1958 0.37767 0.0
H1524 H 0.75659 0.1206 0.34917 0.0
C1525 C 0.75783 0.21609 0.36853 0.0
H1526 H 0.7952 0.14446 0.37854 0.0
C1527 C 0.73564 0.20226 0.35215 0.0
C1528 C 0.73515 0.16788 0.34431 0.0
H1529 H 0.75823 0.243 0.3725 0.0
H1530 H 0.71936 0.21881 0.34434 0.0
C1531 C 0.75668 0.14726 0.3545 0.0
C1532 C 0.85227 0.70268 0.35155 0.0
C1533 C 0.83778 0.68055 0.33172 0.0
H1534 H 0.85029 0.74577 0.38199 0.0
C1535 C 0.80933 0.68337 0.32924 0.0
H1536 H 0.87411 0.70007 0.35473 0.0
C1537 C 0.79563 0.70873 0.34557 0.0
C1538 C 0.81024 0.73164 0.36452 0.0
H1539 H 0.79778 0.66593 0.31464 0.0
H1540 H 0.77377 0.71121 0.34248 0.0
C1541 C 0.83864 0.72828 0.36755 0.0
C1542 C 0.26924 0.85628 0.36482 0.0
C1543 C 0.27415 0.84731 0.33318 0.0
H1544 H 0.24813 0.84451 0.40771 0.0
C1545 C 0.26228 0.81785 0.32089 0.0
H1546 H 0.27853 0.87862 0.37493 0.0
C1547 C 0.24568 0.79775 0.33997 0.0
C1548 C 0.24051 0.80703 0.37148 0.0
H1549 H 0.2663 0.81006 0.29677 0.0
H1550 H 0.2362 0.77553 0.32986 0.0
C1551 C 0.25232 0.83654 0.38368 0.0
C1552 C 0.15935 0.70165 0.6548 0.0
C1553 C 0.17391 0.67967 0.67471 0.0
H1554 H 0.16121 0.74457 0.62416 0.0
C1555 C 0.20237 0.68237 0.67689 0.0
H1556 H 0.13748 0.69912 0.65187 0.0
C1557 C 0.21602 0.70762 0.66033 0.0
C1558 C 0.20133 0.7305 0.64144 0.0
H1559 H 0.21397 0.66502 0.69154 0.0
H1560 H 0.23789 0.71011 0.6633 0.0
C1561 C 0.17292 0.72711 0.63855 0.0
C1562 C 0.25316 0.14764 0.65274 0.0
C1563 C 0.27471 0.16823 0.66296 0.0
H1564 H 0.21464 0.14492 0.62872 0.0
C1565 C 0.27426 0.20262 0.65516 0.0
H1566 H 0.25323 0.12098 0.65804 0.0
C1567 C 0.25207 0.2165 0.63879 0.0
C1568 C 0.22989 0.19623 0.62964 0.0
H1569 H 0.29055 0.21914 0.66298 0.0
H1570 H 0.2517 0.24341 0.63487 0.0
C1571 C 0.23113 0.16142 0.63595 0.0
C1572 C 0.77928 0.25587 0.71803 0.0
C1573 C 0.79302 0.2362 0.69564 0.0
H1574 H 0.77993 0.30118 0.74605 0.0
C1575 C 0.81838 0.24704 0.68437 0.0
H1576 H 0.75968 0.2479 0.72692 0.0
C1577 C 0.83004 0.27683 0.6956 0.0
C1578 C 0.81644 0.29647 0.71809 0.0
H1579 H 0.8292 0.23226 0.66696 0.0
H1580 H 0.84951 0.28489 0.68638 0.0
C1581 C 0.7909 0.28598 0.72911 0.0
C1582 C 0.75749 0.83708 0.62407 0.0
C1583 C 0.76938 0.80758 0.6362 0.0
H1584 H 0.73115 0.879 0.6329 0.0
C1585 C 0.76419 0.79817 0.66767 0.0
H1586 H 0.76164 0.84513 0.60005 0.0
C1587 C 0.74751 0.81813 0.68679 0.0
C1588 C 0.73555 0.84757 0.67456 0.0
H1589 H 0.7737 0.77594 0.67772 0.0
H1590 H 0.74347 0.81023 0.71087 0.0
C1591 C 0.7405 0.85668 0.64296 0.0
C1592 C 0.34618 0.16786 0.24154 0.0
C1593 C 0.3179 0.17043 0.24572 0.0
H1594 H 0.38061 0.18266 0.21385 0.0
C1595 C 0.30278 0.19239 0.22628 0.0
H1596 H 0.35824 0.15117 0.25636 0.0
C1597 C 0.31569 0.21123 0.20284 0.0
C1598 C 0.34386 0.20818 0.19825 0.0
H1599 H 0.28101 0.19524 0.22947 0.0
H1600 H 0.30359 0.22752 0.18766 0.0
C1601 C 0.35901 0.18624 0.21768 0.0
C1602 C 0.81608 0.32453 0.30951 0.0
C1603 C 0.84461 0.32396 0.31215 0.0
H1604 H 0.7813 0.34209 0.28312 0.0
C1605 C 0.8602 0.34208 0.29024 0.0
H1606 H 0.8037 0.31129 0.32659 0.0
C1607 C 0.84749 0.35961 0.26546 0.0
C1608 C 0.81894 0.36003 0.26269 0.0
H1609 H 0.8822 0.34295 0.29252 0.0
H1610 H 0.85992 0.373 0.24853 0.0
C1611 C 0.80333 0.34251 0.28503 0.0
C1612 C 0.6635 0.79907 0.26036 0.0
C1613 C 0.67685 0.77575 0.24101 0.0
H1614 H 0.66608 0.83068 0.30143 0.0
C1615 C 0.70335 0.76528 0.24914 0.0
H1616 H 0.64339 0.8082 0.25391 0.0
C1617 C 0.71629 0.77795 0.27644 0.0
C1618 C 0.70296 0.80148 0.29565 0.0
H1619 H 0.71422 0.74799 0.23396 0.0
H1620 H 0.73681 0.76985 0.2823 0.0
C1621 C 0.67651 0.81202 0.28729 0.0
C1622 C 0.21529 0.6728 0.28921 0.0
C1623 C 0.20075 0.65854 0.26367 0.0
H1624 H 0.21304 0.69811 0.33411 0.0
C1625 C 0.17204 0.65963 0.26396 0.0
H1626 H 0.23737 0.67288 0.28945 0.0
C1627 C 0.15822 0.67446 0.28922 0.0
C1628 C 0.17281 0.68871 0.31459 0.0
H1629 H 0.16024 0.64871 0.2447 0.0
H1630 H 0.13614 0.67407 0.28936 0.0
C1631 C 0.20144 0.68777 0.3144 0.0
C1632 C 0.34773 0.79761 0.74578 0.0
C1633 C 0.33429 0.77412 0.76486 0.0
H1634 H 0.34531 0.8296 0.70495 0.0
C1635 C 0.30788 0.76359 0.75638 0.0
H1636 H 0.36774 0.80684 0.75252 0.0
C1637 C 0.29507 0.77646 0.72908 0.0
C1638 C 0.30845 0.80025 0.7102 0.0
H1639 H 0.29693 0.74618 0.77136 0.0
H1640 H 0.27459 0.76838 0.72303 0.0
C1641 C 0.33485 0.81075 0.71883 0.0
C1642 C 0.16242 0.36008 0.74201 0.0
C1643 C 0.19097 0.36049 0.74477 0.0
H1644 H 0.12769 0.34346 0.71495 0.0
C1645 C 0.20656 0.34298 0.7224 0.0
H1646 H 0.14999 0.37346 0.75895 0.0
C1647 C 0.19379 0.32503 0.69791 0.0
C1648 C 0.16527 0.32448 0.69527 0.0
H1649 H 0.22859 0.34255 0.7243 0.0
H1650 H 0.20616 0.31181 0.68081 0.0
C1651 C 0.14969 0.34257 0.71721 0.0
C1652 C 0.70706 0.19225 0.78112 0.0
C1653 C 0.69194 0.17031 0.76166 0.0
H1654 H 0.70624 0.22735 0.81977 0.0
C1655 C 0.66365 0.16775 0.76581 0.0
H1656 H 0.72882 0.19509 0.77796 0.0
C1657 C 0.65082 0.18611 0.78967 0.0
C1658 C 0.66596 0.20803 0.80913 0.0
H1659 H 0.6516 0.15107 0.75097 0.0
H1660 H 0.62922 0.18253 0.79348 0.0
C1661 C 0.69414 0.21108 0.80456 0.0
C1662 C 0.80836 0.68796 0.6927 0.0
C1663 C 0.83698 0.68913 0.69266 0.0
H1664 H 0.77242 0.6728 0.71751 0.0
C1665 C 0.85156 0.67495 0.71806 0.0
H1666 H 0.79677 0.69823 0.67295 0.0
C1667 C 0.83773 0.65999 0.74325 0.0
C1668 C 0.80903 0.65872 0.74343 0.0
H1669 H 0.87364 0.67474 0.71802 0.0
H1670 H 0.84952 0.64915 0.76254 0.0
C1671 C 0.79449 0.67287 0.71784 0.0
C1672 C 0.2698 0.36691 0.19521 0.0
C1673 C 0.24812 0.38201 0.17855 0.0
H1674 H 0.30624 0.33767 0.19266 0.0
C1675 C 0.24752 0.37972 0.14514 0.0
H1676 H 0.27064 0.3673 0.22088 0.0
C1677 C 0.26771 0.3619 0.12896 0.0
C1678 C 0.28906 0.34657 0.14585 0.0
H1679 H 0.23124 0.39132 0.13151 0.0
H1680 H 0.26678 0.36037 0.10332 0.0
C1681 C 0.29002 0.34951 0.17906 0.0
C1682 C 0.27925 0.64388 0.80276 0.0
C1683 C 0.2775 0.65419 0.83463 0.0
H1684 H 0.25918 0.62076 0.76305 0.0
C1685 C 0.25424 0.64558 0.85186 0.0
H1686 H 0.29691 0.65033 0.7888 0.0
C1687 C 0.23285 0.62788 0.83729 0.0
C1688 C 0.23392 0.61906 0.80489 0.0
H1689 H 0.25254 0.65267 0.87656 0.0
H1690 H 0.21512 0.62184 0.85126 0.0
C1691 C 0.2577 0.62664 0.78804 0.0
C1692 C 0.3261 0.29162 0.81942 0.0
C1693 C 0.29982 0.3002 0.80878 0.0
H1694 H 0.35923 0.25668 0.81636 0.0
C1695 C 0.28667 0.28006 0.78602 0.0
H1696 H 0.33636 0.30671 0.83729 0.0
C1697 C 0.29976 0.2515 0.77405 0.0
C1698 C 0.32612 0.24313 0.78459 0.0
H1699 H 0.2663 0.28625 0.7778 0.0
H1700 H 0.28919 0.23564 0.75704 0.0
C1701 C 0.33919 0.26334 0.80735 0.0
C1702 C 0.74219 0.36166 0.87832 0.0
C1703 C 0.72084 0.34627 0.86145 0.0
H1704 H 0.77862 0.39116 0.87572 0.0
C1705 C 0.71988 0.34915 0.82824 0.0
H1706 H 0.74311 0.36017 0.90396 0.0
C1707 C 0.74008 0.36657 0.81206 0.0
C1708 C 0.76174 0.38175 0.8287 0.0
H1709 H 0.70368 0.33727 0.81465 0.0
H1710 H 0.73924 0.36693 0.78639 0.0
C1711 C 0.76235 0.3795 0.86211 0.0
C1712 C 0.71524 0.74439 0.78933 0.0
C1713 C 0.70103 0.72466 0.81125 0.0
H1714 H 0.71452 0.7887 0.76004 0.0
C1715 C 0.67429 0.73366 0.81933 0.0
H1716 H 0.73595 0.738 0.78302 0.0
C1717 C 0.66186 0.76176 0.80557 0.0
C1718 C 0.67613 0.78173 0.78394 0.0
H1719 H 0.66314 0.7191 0.83662 0.0
H1720 H 0.64156 0.76886 0.81293 0.0
C1721 C 0.70291 0.77291 0.7759 0.0
C1722 C 0.75673 0.67928 0.18737 0.0
C1723 C 0.73559 0.66077 0.17298 0.0
H1724 H 0.79377 0.67814 0.21445 0.0
C1725 C 0.73601 0.62536 0.17581 0.0
H1726 H 0.75677 0.7065 0.18664 0.0
C1727 C 0.75713 0.60903 0.19244 0.0
C1728 C 0.77837 0.62775 0.20628 0.0
H1729 H 0.72014 0.6102 0.16495 0.0
H1730 H 0.75722 0.58183 0.19383 0.0
C1731 C 0.7778 0.66302 0.20369 0.0
C1732 C 0.30648 0.77267 0.23142 0.0
C1733 C 0.33323 0.78165 0.2234 0.0
H1734 H 0.27355 0.73761 0.2242 0.0
C1735 C 0.34756 0.76183 0.20171 0.0
H1736 H 0.29482 0.78834 0.24733 0.0
C1737 C 0.33522 0.73371 0.18787 0.0
C1738 C 0.30852 0.72455 0.19593 0.0
H1739 H 0.36783 0.76906 0.19437 0.0
H1740 H 0.34642 0.71926 0.17054 0.0
C1741 C 0.29424 0.74412 0.21791 0.0
C1742 C 0.68372 0.29146 0.18804 0.0
C1743 C 0.71002 0.29999 0.19866 0.0
H1744 H 0.65056 0.25656 0.19111 0.0
C1745 C 0.72316 0.27982 0.22139 0.0
H1746 H 0.67346 0.30658 0.17018 0.0
C1747 C 0.71006 0.25128 0.23335 0.0
C1748 C 0.68368 0.24295 0.22284 0.0
H1749 H 0.74356 0.28598 0.22958 0.0
H1750 H 0.72063 0.23538 0.25034 0.0
C1751 C 0.67061 0.26319 0.20011 0.0
loop_
_geom_bond_atom_site_label_1
_geom_bond_atom_site_label_2
_geom_bond_distance
_geom_bond_site_symmetry_2
_ccdc_geom_bond_type
C0 C1 1.443 . S
C0 N4 1.376 . S
C0 C38 1.389 . S
C1 C0 1.443 . S
C1 C2 1.340 . S
C1 H41 0.951 . S
C2 C1 1.340 . S
C2 C3 1.439 . S
C2 H42 0.950 . S
C3 C2 1.439 . S
C3 N4 1.374 . S
C3 C37 1.395 . S
N4 C0 1.376 . S
N4 C3 1.374 . S
N4 Co5 2.008 . S
Co5 N4 2.008 . S
Co5 N6 1.995 . S
Co5 N11 2.008 . S
Co5 N16 1.995 . S
Co5 N21 2.282 . S
Co5 N27 2.282 . S
N6 Co5 1.995 . S
N6 C7 1.376 . S
N6 C10 1.383 . S
C7 N6 1.376 . S
C7 C8 1.446 . S
C7 C37 1.391 . S
C8 C7 1.446 . S
C8 C9 1.339 . S
C8 H43 0.949 . S
C9 C8 1.339 . S
C9 C10 1.439 . S
C9 H44 0.950 . S
C10 N6 1.383 . S
C10 C9 1.439 . S
C10 C39 1.392 . S
N11 Co5 2.008 . S
N11 C12 1.376 . S
N11 C15 1.374 . S
C12 N11 1.376 . S
C12 C13 1.443 . S
C12 C39 1.389 . S
C13 C12 1.443 . S
C13 C14 1.340 . S
C13 H45 0.951 . S
C14 C13 1.340 . S
C14 C15 1.439 . S
C14 H46 0.950 . S
C15 N11 1.374 . S
C15 C14 1.439 . S
C15 C40 1.395 . S
N16 Co5 1.995 . S
N16 C17 1.376 . S
N16 C20 1.383 . S
C17 N16 1.376 . S
C17 C18 1.446 . S
C17 C40 1.391 . S
C18 C17 1.446 . S
C18 C19 1.339 . S
C18 H47 0.949 . S
C19 C18 1.339 . S
C19 C20 1.439 . S
C19 H48 0.950 . S
C20 N16 1.383 . S
C20 C19 1.439 . S
C20 C38 1.392 . S
N21 Co5 2.282 . S
N21 C24 1.332 . S
N21 C26 1.332 . S
C22 C23 1.386 . S
C22 C25 1.388 . S
C23 C22 1.386 . S
C23 C24 1.382 . S
C23 H49 0.950 . S
C24 N21 1.332 . S
C24 C23 1.382 . S
C24 H35 0.952 . S
C25 C22 1.388 . S
C25 C26 1.382 . S
C25 H50 0.950 . S
C26 N21 1.332 . S
C26 C25 1.382 . S
C26 H36 0.948 . S
N27 Co5 2.282 . S
N27 C31 1.332 . S
N27 C32 1.332 . S
C28 C29 1.388 . S
C28 C32 1.382 . S
C28 H51 0.950 . S
C29 C28 1.388 . S
C29 C30 1.386 . S
C30 C29 1.386 . S
C30 C31 1.382 . S
C30 H52 0.950 . S
C31 N27 1.332 . S
C31 C30 1.382 . S
C31 H33 0.952 . S
C32 N27 1.332 . S
C32 C28 1.382 . S
C32 H34 0.948 . S
H33 C31 0.952 . S
H34 C32 0.948 . S
H35 C24 0.952 . S
H36 C26 0.948 . S
C37 C3 1.395 . S
C37 C7 1.391 . S
C38 C0 1.389 . S
C38 C20 1.392 . S
C39 C10 1.392 . S
C39 C12 1.389 . S
C40 C15 1.395 . S
C40 C17 1.391 . S
H41 C1 0.951 . S
H42 C2 0.950 . S
H43 C8 0.949 . S
H44 C9 0.950 . S
H45 C13 0.951 . S
H46 C14 0.950 . S
H47 C18 0.949 . S
H48 C19 0.950 . S
H49 C23 0.950 . S
H50 C25 0.950 . S
H51 C28 0.950 . S
H52 C30 0.950 . S
C53 C54 1.443 . S
C53 N57 1.376 . S
C53 C91 1.389 . S
C54 C53 1.443 . S
C54 C55 1.340 . S
C54 H94 0.951 . S
C55 C54 1.340 . S
C55 C56 1.439 . S
C55 H95 0.950 . S
C56 C55 1.439 . S
C56 N57 1.374 . S
C56 C90 1.395 . S
N57 C53 1.376 . S
N57 C56 1.374 . S
N57 Co58 2.008 . S
Co58 N57 2.008 . S
Co58 N59 1.995 . S
Co58 N64 2.008 . S
Co58 N69 1.995 . S
Co58 N74 2.282 . S
Co58 N80 2.282 . S
N59 Co58 1.995 . S
N59 C60 1.376 . S
N59 C63 1.383 . S
C60 N59 1.376 . S
C60 C61 1.446 . S
C60 C90 1.391 . S
C61 C60 1.446 . S
C61 C62 1.339 . S
C61 H96 0.949 . S
C62 C61 1.339 . S
C62 C63 1.439 . S
C62 H97 0.950 . S
C63 N59 1.383 . S
C63 C62 1.439 . S
C63 C92 1.392 . S
N64 Co58 2.008 . S
N64 C65 1.376 . S
N64 C68 1.374 . S
C65 N64 1.376 . S
C65 C66 1.443 . S
C65 C92 1.389 . S
C66 C65 1.443 . S
C66 C67 1.340 . S
C66 H98 0.951 . S
C67 C66 1.340 . S
C67 C68 1.439 . S
C67 H99 0.950 . S
C68 N64 1.374 . S
C68 C67 1.439 . S
C68 C93 1.395 . S
N69 Co58 1.995 . S
N69 C70 1.376 . S
N69 C73 1.383 . S
C70 N69 1.376 . S
C70 C71 1.446 . S
C70 C93 1.391 . S
C71 C70 1.446 . S
C71 C72 1.339 . S
C71 H100 0.949 1_545 S
C72 C71 1.339 . S
C72 C73 1.439 . S
C72 H101 0.950 1_545 S
C73 N69 1.383 . S
C73 C72 1.439 . S
C73 C91 1.392 . S
N74 Co58 2.282 . S
N74 C77 1.332 . S
N74 C79 1.332 . S
C75 C76 1.386 . S
C75 C78 1.388 . S
C76 C75 1.386 . S
C76 C77 1.382 . S
C76 H102 0.950 . S
C77 N74 1.332 . S
C77 C76 1.382 . S
C77 H88 0.952 . S
C78 C75 1.388 . S
C78 C79 1.382 . S
C78 H103 0.950 . S
C79 N74 1.332 . S
C79 C78 1.382 . S
C79 H89 0.948 . S
N80 Co58 2.282 . S
N80 C84 1.332 . S
N80 C85 1.332 . S
C81 C82 1.388 . S
C81 C85 1.382 . S
C81 H104 0.950 . S
C82 C81 1.388 . S
C82 C83 1.386 . S
C83 C82 1.386 . S
C83 C84 1.382 . S
C83 H105 0.950 . S
C84 N80 1.332 . S
C84 C83 1.382 . S
C84 H86 0.952 . S
C85 N80 1.332 . S
C85 C81 1.382 . S
C85 H87 0.948 . S
H86 C84 0.952 . S
H87 C85 0.948 . S
H88 C77 0.952 . S
H89 C79 0.948 . S
C90 C56 1.395 . S
C90 C60 1.391 . S
C91 C53 1.389 . S
C91 C73 1.392 . S
C92 C63 1.392 . S
C92 C65 1.389 . S
C93 C68 1.395 . S
C93 C70 1.391 . S
H94 C54 0.951 . S
H95 C55 0.950 . S
H96 C61 0.949 . S
H97 C62 0.950 . S
H98 C66 0.951 . S
H99 C67 0.950 . S
H100 C71 0.949 1_565 S
H101 C72 0.950 1_565 S
H102 C76 0.950 . S
H103 C78 0.950 . S
H104 C81 0.950 . S
H105 C83 0.950 . S
C106 C107 1.443 . S
C106 N110 1.376 . S
C106 C144 1.389 . S
C107 C106 1.443 . S
C107 C108 1.340 . S
C107 H147 0.951 . S
C108 C107 1.340 . S
C108 C109 1.439 . S
C108 H148 0.950 . S
C109 C108 1.439 . S
C109 N110 1.374 . S
C109 C143 1.395 . S
N110 C106 1.376 . S
N110 C109 1.374 . S
N110 Co111 2.008 . S
Co111 N110 2.008 . S
Co111 N112 1.995 . S
Co111 N117 2.008 . S
Co111 N122 1.995 . S
Co111 N127 2.282 . S
Co111 N133 2.282 . S
N112 Co111 1.995 . S
N112 C113 1.376 . S
N112 C116 1.383 . S
C113 N112 1.376 . S
C113 C114 1.446 . S
C113 C143 1.391 . S
C114 C113 1.446 . S
C114 C115 1.339 . S
C114 H149 0.949 . S
C115 C114 1.339 . S
C115 C116 1.439 . S
C115 H150 0.950 . S
C116 N112 1.383 . S
C116 C115 1.439 . S
C116 C145 1.392 . S
N117 Co111 2.008 . S
N117 C118 1.376 . S
N117 C121 1.374 . S
C118 N117 1.376 . S
C118 C119 1.443 . S
C118 C145 1.389 . S
C119 C118 1.443 . S
C119 C120 1.340 . S
C119 H151 0.951 . S
C120 C119 1.340 . S
C120 C121 1.439 . S
C120 H152 0.950 . S
C121 N117 1.374 . S
C121 C120 1.439 . S
C121 C146 1.395 . S
N122 Co111 1.995 . S
N122 C123 1.376 . S
N122 C126 1.383 . S
C123 N122 1.376 . S
C123 C124 1.446 . S
C123 C146 1.391 . S
C124 C123 1.446 . S
C124 C125 1.339 . S
C124 H153 0.949 . S
C125 C124 1.339 . S
C125 C126 1.439 . S
C125 H154 0.950 . S
C126 N122 1.383 . S
C126 C125 1.439 . S
C126 C144 1.392 . S
N127 Co111 2.282 . S
N127 C130 1.332 . S
N127 C132 1.332 . S
C128 C129 1.386 . S
C128 C131 1.388 . S
C129 C128 1.386 . S
C129 C130 1.382 . S
C129 H155 0.950 . S
C130 N127 1.332 . S
C130 C129 1.382 . S
C130 H141 0.952 . S
C131 C128 1.388 . S
C131 C132 1.382 . S
C131 H156 0.950 . S
C132 N127 1.332 . S
C132 C131 1.382 . S
C132 H142 0.948 . S
N133 Co111 2.282 . S
N133 C137 1.332 . S
N133 C138 1.332 . S
C134 C135 1.388 . S
C134 C138 1.382 . S
C134 H157 0.950 . S
C135 C134 1.388 . S
C135 C136 1.386 . S
C136 C135 1.386 . S
C136 C137 1.382 . S
C136 H158 0.950 . S
C137 N133 1.332 . S
C137 C136 1.382 . S
C137 H139 0.952 . S
C138 N133 1.332 . S
C138 C134 1.382 . S
C138 H140 0.948 . S
H139 C137 0.952 . S
H140 C138 0.948 . S
H141 C130 0.952 . S
H142 C132 0.948 . S
C143 C109 1.395 . S
C143 C113 1.391 . S
C144 C106 1.389 . S
C144 C126 1.392 . S
C145 C116 1.392 . S
C145 C118 1.389 . S
C146 C121 1.395 . S
C146 C123 1.391 . S
H147 C107 0.951 . S
H148 C108 0.950 . S
H149 C114 0.949 . S
H150 C115 0.950 . S
H151 C119 0.951 . S
H152 C120 0.950 . S
H153 C124 0.949 . S
H154 C125 0.950 . S
H155 C129 0.950 . S
H156 C131 0.950 . S
H157 C134 0.950 . S
H158 C136 0.950 . S
C159 C160 1.443 . S
C159 N163 1.376 . S
C159 C197 1.389 . S
C160 C159 1.443 . S
C160 C161 1.340 . S
C160 H200 0.951 . S
C161 C160 1.340 . S
C161 C162 1.439 . S
C161 H201 0.950 . S
C162 C161 1.439 . S
C162 N163 1.374 . S
C162 C196 1.395 . S
N163 C159 1.376 . S
N163 C162 1.374 . S
N163 Co164 2.008 . S
Co164 N163 2.008 . S
Co164 N165 1.995 . S
Co164 N170 2.008 . S
Co164 N175 1.995 . S
Co164 N180 2.282 . S
Co164 N186 2.282 . S
N165 Co164 1.995 . S
N165 C166 1.376 . S
N165 C169 1.383 . S
C166 N165 1.376 . S
C166 C167 1.446 . S
C166 C196 1.391 . S
C167 C166 1.446 . S
C167 C168 1.339 . S
C167 H202 0.949 . S
C168 C167 1.339 . S
C168 C169 1.439 . S
C168 H203 0.950 . S
C169 N165 1.383 . S
C169 C168 1.439 . S
C169 C198 1.392 . S
N170 Co164 2.008 . S
N170 C171 1.376 . S
N170 C174 1.374 . S
C171 N170 1.376 . S
C171 C172 1.443 . S
C171 C198 1.389 . S
C172 C171 1.443 . S
C172 C173 1.340 . S
C172 H204 0.951 . S
C173 C172 1.340 . S
C173 C174 1.439 . S
C173 H205 0.950 . S
C174 N170 1.374 . S
C174 C173 1.439 . S
C174 C199 1.395 . S
N175 Co164 1.995 . S
N175 C176 1.376 . S
N175 C179 1.383 . S
C176 N175 1.376 . S
C176 C177 1.446 1_565 S
C176 C199 1.391 . S
C177 C176 1.446 1_545 S
C177 C178 1.339 . S
C177 H206 0.949 . S
C178 C177 1.339 . S
C178 C179 1.439 1_545 S
C178 H207 0.950 . S
C179 N175 1.383 . S
C179 C178 1.439 1_565 S
C179 C197 1.392 . S
N180 Co164 2.282 . S
N180 C183 1.332 . S
N180 C185 1.332 . S
C181 C182 1.386 . S
C181 C184 1.388 . S
C182 C181 1.386 . S
C182 C183 1.382 . S
C182 H208 0.950 . S
C183 N180 1.332 . S
C183 C182 1.382 . S
C183 H194 0.952 . S
C184 C181 1.388 . S
C184 C185 1.382 . S
C184 H209 0.950 . S
C185 N180 1.332 . S
C185 C184 1.382 . S
C185 H195 0.948 . S
N186 Co164 2.282 . S
N186 C190 1.332 . S
N186 C191 1.332 . S
C187 C188 1.388 . S
C187 C191 1.382 . S
C187 H210 0.950 . S
C188 C187 1.388 . S
C188 C189 1.386 . S
C189 C188 1.386 . S
C189 C190 1.382 . S
C189 H211 0.950 . S
C190 N186 1.332 . S
C190 C189 1.382 . S
C190 H192 0.952 . S
C191 N186 1.332 . S
C191 C187 1.382 . S
C191 H193 0.948 . S
H192 C190 0.952 . S
H193 C191 0.948 . S
H194 C183 0.952 . S
H195 C185 0.948 . S
C196 C162 1.395 . S
C196 C166 1.391 . S
C197 C159 1.389 . S
C197 C179 1.392 . S
C198 C169 1.392 . S
C198 C171 1.389 . S
C199 C174 1.395 . S
C199 C176 1.391 . S
H200 C160 0.951 . S
H201 C161 0.950 . S
H202 C167 0.949 . S
H203 C168 0.950 . S
H204 C172 0.951 . S
H205 C173 0.950 . S
H206 C177 0.949 . S
H207 C178 0.950 . S
H208 C182 0.950 . S
H209 C184 0.950 . S
H210 C187 0.950 . S
H211 C189 0.950 . S
C212 C213 1.443 . S
C212 N216 1.376 . S
C212 C250 1.389 . S
C213 C212 1.443 . S
C213 C214 1.340 . S
C213 H253 0.951 . S
C214 C213 1.340 . S
C214 C215 1.439 . S
C214 H254 0.950 . S
C215 C214 1.439 . S
C215 N216 1.374 . S
C215 C249 1.395 . S
N216 C212 1.376 . S
N216 C215 1.374 . S
N216 Co217 2.008 . S
Co217 N216 2.008 . S
Co217 N218 1.995 . S
Co217 N223 2.008 . S
Co217 N228 1.995 . S
Co217 N233 2.282 . S
Co217 N239 2.282 . S
N218 Co217 1.995 . S
N218 C219 1.376 . S
N218 C222 1.383 . S
C219 N218 1.376 . S
C219 C220 1.446 . S
C219 C249 1.391 . S
C220 C219 1.446 . S
C220 C221 1.339 . S
C220 H255 0.949 . S
C221 C220 1.339 . S
C221 C222 1.439 . S
C221 H256 0.950 . S
C222 N218 1.383 . S
C222 C221 1.439 . S
C222 C251 1.392 . S
N223 Co217 2.008 . S
N223 C224 1.376 . S
N223 C227 1.374 . S
C224 N223 1.376 . S
C224 C225 1.443 . S
C224 C251 1.389 . S
C225 C224 1.443 . S
C225 C226 1.340 . S
C225 H257 0.951 . S
C226 C225 1.340 . S
C226 C227 1.439 . S
C226 H258 0.950 . S
C227 N223 1.374 . S
C227 C226 1.439 . S
C227 C252 1.395 . S
N228 Co217 1.995 . S
N228 C229 1.376 . S
N228 C232 1.383 . S
C229 N228 1.376 . S
C229 C230 1.446 . S
C229 C252 1.391 . S
C230 C229 1.446 . S
C230 C231 1.339 . S
C230 H259 0.949 . S
C231 C230 1.339 . S
C231 C232 1.439 . S
C231 H260 0.950 . S
C232 N228 1.383 . S
C232 C231 1.439 . S
C232 C250 1.392 . S
N233 Co217 2.282 . S
N233 C236 1.332 . S
N233 C238 1.332 . S
C234 C235 1.386 . S
C234 C237 1.388 . S
C235 C234 1.386 . S
C235 C236 1.382 . S
C235 H261 0.950 . S
C236 N233 1.332 . S
C236 C235 1.382 . S
C236 H247 0.952 . S
C237 C234 1.388 . S
C237 C238 1.382 . S
C237 H262 0.950 . S
C238 N233 1.332 . S
C238 C237 1.382 . S
C238 H248 0.948 . S
N239 Co217 2.282 . S
N239 C243 1.332 . S
N239 C244 1.332 . S
C240 C241 1.388 . S
C240 C244 1.382 . S
C240 H263 0.950 . S
C241 C240 1.388 . S
C241 C242 1.386 . S
C242 C241 1.386 . S
C242 C243 1.382 . S
C242 H264 0.950 . S
C243 N239 1.332 . S
C243 C242 1.382 . S
C243 H245 0.952 . S
C244 N239 1.332 . S
C244 C240 1.382 . S
C244 H246 0.948 . S
H245 C243 0.952 . S
H246 C244 0.948 . S
H247 C236 0.952 . S
H248 C238 0.948 . S
C249 C215 1.395 . S
C249 C219 1.391 . S
C250 C212 1.389 . S
C250 C232 1.392 . S
C251 C222 1.392 . S
C251 C224 1.389 . S
C252 C227 1.395 . S
C252 C229 1.391 . S
H253 C213 0.951 . S
H254 C214 0.950 . S
H255 C220 0.949 . S
H256 C221 0.950 . S
H257 C225 0.951 . S
H258 C226 0.950 . S
H259 C230 0.949 . S
H260 C231 0.950 . S
H261 C235 0.950 . S
H262 C237 0.950 . S
H263 C240 0.950 . S
H264 C242 0.950 . S
C265 C266 1.443 . S
C265 N269 1.376 . S
C265 C303 1.389 . S
C266 C265 1.443 . S
C266 C267 1.340 . S
C266 H306 0.951 . S
C267 C266 1.340 . S
C267 C268 1.439 . S
C267 H307 0.950 . S
C268 C267 1.439 . S
C268 N269 1.374 . S
C268 C302 1.395 . S
N269 C265 1.376 . S
N269 C268 1.374 . S
N269 Co270 2.008 . S
Co270 N269 2.008 . S
Co270 N271 1.995 . S
Co270 N276 2.008 . S
Co270 N281 1.995 . S
Co270 N286 2.282 . S
Co270 N292 2.282 . S
N271 Co270 1.995 . S
N271 C272 1.376 . S
N271 C275 1.383 . S
C272 N271 1.376 . S
C272 C273 1.446 . S
C272 C302 1.391 . S
C273 C272 1.446 . S
C273 C274 1.339 . S
C273 H308 0.949 . S
C274 C273 1.339 . S
C274 C275 1.439 . S
C274 H309 0.950 . S
C275 N271 1.383 . S
C275 C274 1.439 . S
C275 C304 1.392 . S
N276 Co270 2.008 . S
N276 C277 1.376 . S
N276 C280 1.374 . S
C277 N276 1.376 . S
C277 C278 1.443 . S
C277 C304 1.389 . S
C278 C277 1.443 . S
C278 C279 1.340 . S
C278 H310 0.951 . S
C279 C278 1.340 . S
C279 C280 1.439 . S
C279 H311 0.950 . S
C280 N276 1.374 . S
C280 C279 1.439 . S
C280 C305 1.395 . S
N281 Co270 1.995 . S
N281 C282 1.376 . S
N281 C285 1.383 . S
C282 N281 1.376 . S
C282 C283 1.446 . S
C282 C305 1.391 . S
C283 C282 1.446 . S
C283 C284 1.339 . S
C283 H312 0.949 1_545 S
C284 C283 1.339 . S
C284 C285 1.439 . S
C284 H313 0.950 1_545 S
C285 N281 1.383 . S
C285 C284 1.439 . S
C285 C303 1.392 . S
N286 Co270 2.282 . S
N286 C289 1.332 . S
N286 C291 1.332 . S
C287 C288 1.386 . S
C287 C290 1.388 . S
C288 C287 1.386 . S
C288 C289 1.382 . S
C288 H314 0.950 . S
C289 N286 1.332 . S
C289 C288 1.382 . S
C289 H300 0.952 . S
C290 C287 1.388 . S
C290 C291 1.382 . S
C290 H315 0.950 . S
C291 N286 1.332 . S
C291 C290 1.382 . S
C291 H301 0.948 . S
N292 Co270 2.282 . S
N292 C296 1.332 . S
N292 C297 1.332 . S
C293 C294 1.388 . S
C293 C297 1.382 . S
C293 H316 0.950 . S
C294 C293 1.388 . S
C294 C295 1.386 . S
C295 C294 1.386 . S
C295 C296 1.382 . S
C295 H317 0.950 . S
C296 N292 1.332 . S
C296 C295 1.382 . S
C296 H298 0.952 . S
C297 N292 1.332 . S
C297 C293 1.382 . S
C297 H299 0.948 . S
H298 C296 0.952 . S
H299 C297 0.948 . S
H300 C289 0.952 . S
H301 C291 0.948 . S
C302 C268 1.395 . S
C302 C272 1.391 . S
C303 C265 1.389 . S
C303 C285 1.392 . S
C304 C275 1.392 . S
C304 C277 1.389 . S
C305 C280 1.395 . S
C305 C282 1.391 . S
H306 C266 0.951 . S
H307 C267 0.950 . S
H308 C273 0.949 . S
H309 C274 0.950 . S
H310 C278 0.951 . S
H311 C279 0.950 . S
H312 C283 0.949 1_565 S
H313 C284 0.950 1_565 S
H314 C288 0.950 . S
H315 C290 0.950 . S
H316 C293 0.950 . S
H317 C295 0.950 . S
C318 C319 1.443 . S
C318 N322 1.376 . S
C318 C356 1.389 . S
C319 C318 1.443 . S
C319 C320 1.340 . S
C319 H359 0.951 . S
C320 C319 1.340 . S
C320 C321 1.439 . S
C320 H360 0.950 . S
C321 C320 1.439 . S
C321 N322 1.374 . S
C321 C355 1.395 . S
N322 C318 1.376 . S
N322 C321 1.374 . S
N322 Co323 2.008 . S
Co323 N322 2.008 . S
Co323 N324 1.995 . S
Co323 N329 2.008 . S
Co323 N334 1.995 . S
Co323 N339 2.282 . S
Co323 N345 2.282 . S
N324 Co323 1.995 . S
N324 C325 1.376 . S
N324 C328 1.383 . S
C325 N324 1.376 . S
C325 C326 1.446 . S
C325 C355 1.391 . S
C326 C325 1.446 . S
C326 C327 1.339 . S
C326 H361 0.949 . S
C327 C326 1.339 . S
C327 C328 1.439 . S
C327 H362 0.950 . S
C328 N324 1.383 . S
C328 C327 1.439 . S
C328 C357 1.392 . S
N329 Co323 2.008 . S
N329 C330 1.376 . S
N329 C333 1.374 . S
C330 N329 1.376 . S
C330 C331 1.443 . S
C330 C357 1.389 . S
C331 C330 1.443 . S
C331 C332 1.340 . S
C331 H363 0.951 . S
C332 C331 1.340 . S
C332 C333 1.439 . S
C332 H364 0.950 . S
C333 N329 1.374 . S
C333 C332 1.439 . S
C333 C358 1.395 . S
N334 Co323 1.995 . S
N334 C335 1.376 . S
N334 C338 1.383 . S
C335 N334 1.376 . S
C335 C336 1.446 . S
C335 C358 1.391 . S
C336 C335 1.446 . S
C336 C337 1.339 . S
C336 H365 0.949 . S
C337 C336 1.339 . S
C337 C338 1.439 . S
C337 H366 0.950 . S
C338 N334 1.383 . S
C338 C337 1.439 . S
C338 C356 1.392 . S
N339 Co323 2.282 . S
N339 C342 1.332 . S
N339 C344 1.332 . S
C340 C341 1.386 . S
C340 C343 1.388 . S
C341 C340 1.386 . S
C341 C342 1.382 . S
C341 H367 0.950 . S
C342 N339 1.332 . S
C342 C341 1.382 . S
C342 H353 0.952 . S
C343 C340 1.388 . S
C343 C344 1.382 . S
C343 H368 0.950 . S
C344 N339 1.332 . S
C344 C343 1.382 . S
C344 H354 0.948 . S
N345 Co323 2.282 . S
N345 C349 1.332 . S
N345 C350 1.332 . S
C346 C347 1.388 . S
C346 C350 1.382 . S
C346 H369 0.950 . S
C347 C346 1.388 . S
C347 C348 1.386 . S
C348 C347 1.386 . S
C348 C349 1.382 . S
C348 H370 0.950 . S
C349 N345 1.332 . S
C349 C348 1.382 . S
C349 H351 0.952 . S
C350 N345 1.332 . S
C350 C346 1.382 . S
C350 H352 0.948 . S
H351 C349 0.952 . S
H352 C350 0.948 . S
H353 C342 0.952 . S
H354 C344 0.948 . S
C355 C321 1.395 . S
C355 C325 1.391 . S
C356 C318 1.389 . S
C356 C338 1.392 . S
C357 C328 1.392 . S
C357 C330 1.389 . S
C358 C333 1.395 . S
C358 C335 1.391 . S
H359 C319 0.951 . S
H360 C320 0.950 . S
H361 C326 0.949 . S
H362 C327 0.950 . S
H363 C331 0.951 . S
H364 C332 0.950 . S
H365 C336 0.949 . S
H366 C337 0.950 . S
H367 C341 0.950 . S
H368 C343 0.950 . S
H369 C346 0.950 . S
H370 C348 0.950 . S
C371 C372 1.443 . S
C371 N375 1.376 . S
C371 C409 1.389 . S
C372 C371 1.443 . S
C372 C373 1.340 . S
C372 H412 0.951 . S
C373 C372 1.340 . S
C373 C374 1.439 . S
C373 H413 0.950 . S
C374 C373 1.439 . S
C374 N375 1.374 . S
C374 C408 1.395 . S
N375 C371 1.376 . S
N375 C374 1.374 . S
N375 Co376 2.008 . S
Co376 N375 2.008 . S
Co376 N377 1.995 . S
Co376 N382 2.008 . S
Co376 N387 1.995 . S
Co376 N392 2.282 . S
Co376 N398 2.282 . S
N377 Co376 1.995 . S
N377 C378 1.376 . S
N377 C381 1.383 . S
C378 N377 1.376 . S
C378 C379 1.446 . S
C378 C408 1.391 . S
C379 C378 1.446 . S
C379 C380 1.339 . S
C379 H414 0.949 . S
C380 C379 1.339 . S
C380 C381 1.439 . S
C380 H415 0.950 . S
C381 N377 1.383 . S
C381 C380 1.439 . S
C381 C410 1.392 . S
N382 Co376 2.008 . S
N382 C383 1.376 . S
N382 C386 1.374 . S
C383 N382 1.376 . S
C383 C384 1.443 . S
C383 C410 1.389 . S
C384 C383 1.443 . S
C384 C385 1.340 . S
C384 H416 0.951 . S
C385 C384 1.340 . S
C385 C386 1.439 . S
C385 H417 0.950 . S
C386 N382 1.374 . S
C386 C385 1.439 . S
C386 C411 1.395 . S
N387 Co376 1.995 . S
N387 C388 1.376 . S
N387 C391 1.383 . S
C388 N387 1.376 . S
C388 C389 1.446 1_565 S
C388 C411 1.391 . S
C389 C388 1.446 1_545 S
C389 C390 1.339 . S
C389 H418 0.949 . S
C390 C389 1.339 . S
C390 C391 1.439 1_545 S
C390 H419 0.950 . S
C391 N387 1.383 . S
C391 C390 1.439 1_565 S
C391 C409 1.392 . S
N392 Co376 2.282 . S
N392 C395 1.332 . S
N392 C397 1.332 . S
C393 C394 1.386 . S
C393 C396 1.388 . S
C394 C393 1.386 . S
C394 C395 1.382 . S
C394 H420 0.950 . S
C395 N392 1.332 . S
C395 C394 1.382 . S
C395 H406 0.952 . S
C396 C393 1.388 . S
C396 C397 1.382 . S
C396 H421 0.950 . S
C397 N392 1.332 . S
C397 C396 1.382 . S
C397 H407 0.948 . S
N398 Co376 2.282 . S
N398 C402 1.332 . S
N398 C403 1.332 . S
C399 C400 1.388 . S
C399 C403 1.382 . S
C399 H422 0.950 . S
C400 C399 1.388 . S
C400 C401 1.386 . S
C401 C400 1.386 . S
C401 C402 1.382 . S
C401 H423 0.950 . S
C402 N398 1.332 . S
C402 C401 1.382 . S
C402 H404 0.952 . S
C403 N398 1.332 . S
C403 C399 1.382 . S
C403 H405 0.948 . S
H404 C402 0.952 . S
H405 C403 0.948 . S
H406 C395 0.952 . S
H407 C397 0.948 . S
C408 C374 1.395 . S
C408 C378 1.391 . S
C409 C371 1.389 . S
C409 C391 1.392 . S
C410 C381 1.392 . S
C410 C383 1.389 . S
C411 C386 1.395 . S
C411 C388 1.391 . S
H412 C372 0.951 . S
H413 C373 0.950 . S
H414 C379 0.949 . S
H415 C380 0.950 . S
H416 C384 0.951 . S
H417 C385 0.950 . S
H418 C389 0.949 . S
H419 C390 0.950 . S
H420 C394 0.950 . S
H421 C396 0.950 . S
H422 C399 0.950 . S
H423 C401 0.950 . S
C424 C425 1.443 . S
C424 N428 1.376 . S
C424 C462 1.389 . S
C425 C424 1.443 . S
C425 C426 1.340 . S
C425 H465 0.951 . S
C426 C425 1.340 . S
C426 C427 1.439 . S
C426 H466 0.950 . S
C427 C426 1.439 . S
C427 N428 1.374 . S
C427 C461 1.395 . S
N428 C424 1.376 . S
N428 C427 1.374 . S
N428 Co429 2.008 . S
Co429 N428 2.008 . S
Co429 N430 1.995 . S
Co429 N435 2.008 . S
Co429 N440 1.995 . S
Co429 N445 2.282 . S
Co429 N451 2.282 . S
N430 Co429 1.995 . S
N430 C431 1.376 . S
N430 C434 1.383 . S
C431 N430 1.376 . S
C431 C432 1.446 . S
C431 C461 1.391 . S
C432 C431 1.446 . S
C432 C433 1.339 . S
C432 H467 0.949 . S
C433 C432 1.339 . S
C433 C434 1.439 . S
C433 H468 0.950 . S
C434 N430 1.383 . S
C434 C433 1.439 . S
C434 C463 1.392 . S
N435 Co429 2.008 . S
N435 C436 1.376 . S
N435 C439 1.374 . S
C436 N435 1.376 . S
C436 C437 1.443 . S
C436 C463 1.389 . S
C437 C436 1.443 . S
C437 C438 1.340 . S
C437 H469 0.951 . S
C438 C437 1.340 . S
C438 C439 1.439 . S
C438 H470 0.950 . S
C439 N435 1.374 . S
C439 C438 1.439 . S
C439 C464 1.395 . S
N440 Co429 1.995 . S
N440 C441 1.376 . S
N440 C444 1.383 . S
C441 N440 1.376 . S
C441 C442 1.446 . S
C441 C464 1.391 . S
C442 C441 1.446 . S
C442 C443 1.339 . S
C442 H471 0.949 . S
C443 C442 1.339 . S
C443 C444 1.439 . S
C443 H472 0.950 . S
C444 N440 1.383 . S
C444 C443 1.439 . S
C444 C462 1.392 . S
N445 Co429 2.282 . S
N445 C448 1.332 . S
N445 C450 1.332 . S
C446 C447 1.386 . S
C446 C449 1.388 . S
C447 C446 1.386 . S
C447 C448 1.382 . S
C447 H473 0.950 . S
C448 N445 1.332 . S
C448 C447 1.382 . S
C448 H459 0.952 . S
C449 C446 1.388 . S
C449 C450 1.382 . S
C449 H474 0.950 . S
C450 N445 1.332 . S
C450 C449 1.382 . S
C450 H460 0.948 . S
N451 Co429 2.282 . S
N451 C455 1.332 . S
N451 C456 1.332 . S
C452 C453 1.388 . S
C452 C456 1.382 . S
C452 H475 0.950 . S
C453 C452 1.388 . S
C453 C454 1.386 . S
C454 C453 1.386 . S
C454 C455 1.382 . S
C454 H476 0.950 . S
C455 N451 1.332 . S
C455 C454 1.382 . S
C455 H457 0.952 . S
C456 N451 1.332 . S
C456 C452 1.382 . S
C456 H458 0.948 . S
H457 C455 0.952 . S
H458 C456 0.948 . S
H459 C448 0.952 . S
H460 C450 0.948 . S
C461 C427 1.395 . S
C461 C431 1.391 . S
C462 C424 1.389 . S
C462 C444 1.392 . S
C463 C434 1.392 . S
C463 C436 1.389 . S
C464 C439 1.395 . S
C464 C441 1.391 . S
H465 C425 0.951 . S
H466 C426 0.950 . S
H467 C432 0.949 . S
H468 C433 0.950 . S
H469 C437 0.951 . S
H470 C438 0.950 . S
H471 C442 0.949 . S
H472 C443 0.950 . S
H473 C447 0.950 . S
H474 C449 0.950 . S
H475 C452 0.950 . S
H476 C454 0.950 . S
C477 C478 1.443 . S
C477 N481 1.376 . S
C477 C515 1.389 . S
C478 C477 1.443 . S
C478 C479 1.340 . S
C478 H518 0.951 . S
C479 C478 1.340 . S
C479 C480 1.439 . S
C479 H519 0.950 . S
C480 C479 1.439 . S
C480 N481 1.374 . S
C480 C514 1.395 . S
N481 C477 1.376 . S
N481 C480 1.374 . S
N481 Co482 2.008 . S
Co482 N481 2.008 . S
Co482 N483 1.995 . S
Co482 N488 2.008 . S
Co482 N493 1.995 . S
Co482 N498 2.282 . S
Co482 N504 2.282 . S
N483 Co482 1.995 . S
N483 C484 1.376 . S
N483 C487 1.383 . S
C484 N483 1.376 . S
C484 C485 1.446 . S
C484 C514 1.391 . S
C485 C484 1.446 . S
C485 C486 1.339 . S
C485 H520 0.949 . S
C486 C485 1.339 . S
C486 C487 1.439 . S
C486 H521 0.950 . S
C487 N483 1.383 . S
C487 C486 1.439 . S
C487 C516 1.392 . S
N488 Co482 2.008 . S
N488 C489 1.376 . S
N488 C492 1.374 . S
C489 N488 1.376 . S
C489 C490 1.443 . S
C489 C516 1.389 . S
C490 C489 1.443 . S
C490 C491 1.340 . S
C490 H522 0.951 . S
C491 C490 1.340 . S
C491 C492 1.439 . S
C491 H523 0.950 . S
C492 N488 1.374 . S
C492 C491 1.439 . S
C492 C517 1.395 . S
N493 Co482 1.995 . S
N493 C494 1.376 . S
N493 C497 1.383 . S
C494 N493 1.376 . S
C494 C495 1.446 . S
C494 C517 1.391 . S
C495 C494 1.446 . S
C495 C496 1.339 . S
C495 H524 0.949 . S
C496 C495 1.339 . S
C496 C497 1.439 . S
C496 H525 0.950 . S
C497 N493 1.383 . S
C497 C496 1.439 . S
C497 C515 1.392 . S
N498 Co482 2.282 . S
N498 C501 1.332 . S
N498 C503 1.332 . S
C499 C500 1.386 . S
C499 C502 1.388 . S
C500 C499 1.386 . S
C500 C501 1.382 . S
C500 H526 0.950 . S
C501 N498 1.332 . S
C501 C500 1.382 . S
C501 H512 0.952 . S
C502 C499 1.388 . S
C502 C503 1.382 . S
C502 H527 0.950 . S
C503 N498 1.332 . S
C503 C502 1.382 . S
C503 H513 0.948 . S
N504 Co482 2.282 . S
N504 C508 1.332 . S
N504 C509 1.332 . S
C505 C506 1.388 . S
C505 C509 1.382 . S
C505 H528 0.950 . S
C506 C505 1.388 . S
C506 C507 1.386 . S
C507 C506 1.386 . S
C507 C508 1.382 . S
C507 H529 0.950 . S
C508 N504 1.332 . S
C508 C507 1.382 . S
C508 H510 0.952 . S
C509 N504 1.332 . S
C509 C505 1.382 . S
C509 H511 0.948 . S
H510 C508 0.952 . S
H511 C509 0.948 . S
H512 C501 0.952 . S
H513 C503 0.948 . S
C514 C480 1.395 . S
C514 C484 1.391 . S
C515 C477 1.389 . S
C515 C497 1.392 . S
C516 C487 1.392 . S
C516 C489 1.389 . S
C517 C492 1.395 . S
C517 C494 1.391 . S
H518 C478 0.951 . S
H519 C479 0.950 . S
H520 C485 0.949 . S
H521 C486 0.950 . S
H522 C490 0.951 . S
H523 C491 0.950 . S
H524 C495 0.949 . S
H525 C496 0.950 . S
H526 C500 0.950 . S
H527 C502 0.950 . S
H528 C505 0.950 . S
H529 C507 0.950 . S
C530 C531 1.443 . S
C530 N534 1.376 . S
C530 C568 1.389 . S
C531 C530 1.443 . S
C531 C532 1.340 . S
C531 H571 0.951 . S
C532 C531 1.340 . S
C532 C533 1.439 . S
C532 H572 0.950 . S
C533 C532 1.439 . S
C533 N534 1.374 . S
C533 C567 1.395 . S
N534 C530 1.376 . S
N534 C533 1.374 . S
N534 Co535 2.008 . S
Co535 N534 2.008 . S
Co535 N536 1.995 . S
Co535 N541 2.008 . S
Co535 N546 1.995 . S
Co535 N551 2.282 . S
Co535 N557 2.282 . S
N536 Co535 1.995 . S
N536 C537 1.376 . S
N536 C540 1.383 . S
C537 N536 1.376 . S
C537 C538 1.446 . S
C537 C567 1.391 . S
C538 C537 1.446 . S
C538 C539 1.339 . S
C538 H573 0.949 . S
C539 C538 1.339 . S
C539 C540 1.439 . S
C539 H574 0.950 . S
C540 N536 1.383 . S
C540 C539 1.439 . S
C540 C569 1.392 . S
N541 Co535 2.008 . S
N541 C542 1.376 . S
N541 C545 1.374 . S
C542 N541 1.376 . S
C542 C543 1.443 . S
C542 C569 1.389 . S
C543 C542 1.443 . S
C543 C544 1.340 . S
C543 H575 0.951 . S
C544 C543 1.340 . S
C544 C545 1.439 . S
C544 H576 0.950 . S
C545 N541 1.374 . S
C545 C544 1.439 . S
C545 C570 1.395 . S
N546 Co535 1.995 . S
N546 C547 1.376 . S
N546 C550 1.383 . S
C547 N546 1.376 . S
C547 C548 1.446 . S
C547 C570 1.391 . S
C548 C547 1.446 . S
C548 C549 1.339 . S
C548 H577 0.949 . S
C549 C548 1.339 . S
C549 C550 1.439 . S
C549 H578 0.950 . S
C550 N546 1.383 . S
C550 C549 1.439 . S
C550 C568 1.392 . S
N551 Co535 2.282 . S
N551 C554 1.332 . S
N551 C556 1.332 . S
C552 C553 1.386 . S
C552 C555 1.388 . S
C553 C552 1.386 . S
C553 C554 1.382 . S
C553 H579 0.950 . S
C554 N551 1.332 . S
C554 C553 1.382 . S
C554 H565 0.952 . S
C555 C552 1.388 . S
C555 C556 1.382 . S
C555 H580 0.950 . S
C556 N551 1.332 . S
C556 C555 1.382 . S
C556 H566 0.948 . S
N557 Co535 2.282 . S
N557 C561 1.332 . S
N557 C562 1.332 . S
C558 C559 1.388 . S
C558 C562 1.382 . S
C558 H581 0.950 . S
C559 C558 1.388 . S
C559 C560 1.386 . S
C560 C559 1.386 . S
C560 C561 1.382 . S
C560 H582 0.950 . S
C561 N557 1.332 . S
C561 C560 1.382 . S
C561 H563 0.952 . S
C562 N557 1.332 . S
C562 C558 1.382 . S
C562 H564 0.948 . S
H563 C561 0.952 . S
H564 C562 0.948 . S
H565 C554 0.952 . S
H566 C556 0.948 . S
C567 C533 1.395 . S
C567 C537 1.391 . S
C568 C530 1.389 . S
C568 C550 1.392 . S
C569 C540 1.392 . S
C569 C542 1.389 . S
C570 C545 1.395 . S
C570 C547 1.391 . S
H571 C531 0.951 . S
H572 C532 0.950 . S
H573 C538 0.949 . S
H574 C539 0.950 . S
H575 C543 0.951 . S
H576 C544 0.950 . S
H577 C548 0.949 . S
H578 C549 0.950 . S
H579 C553 0.950 . S
H580 C555 0.950 . S
H581 C558 0.950 . S
H582 C560 0.950 . S
C583 C584 1.443 . S
C583 N587 1.376 . S
C583 C621 1.389 . S
C584 C583 1.443 . S
C584 C585 1.340 . S
C584 H624 0.951 . S
C585 C584 1.340 . S
C585 C586 1.439 . S
C585 H625 0.950 . S
C586 C585 1.439 . S
C586 N587 1.374 . S
C586 C620 1.395 . S
N587 C583 1.376 . S
N587 C586 1.374 . S
N587 Co588 2.008 . S
Co588 N587 2.008 . S
Co588 N589 1.995 . S
Co588 N594 2.008 . S
Co588 N599 1.995 . S
Co588 N604 2.282 . S
Co588 N610 2.282 . S
N589 Co588 1.995 . S
N589 C590 1.376 . S
N589 C593 1.383 . S
C590 N589 1.376 . S
C590 C591 1.446 . S
C590 C620 1.391 . S
C591 C590 1.446 . S
C591 C592 1.339 . S
C591 H626 0.949 . S
C592 C591 1.339 . S
C592 C593 1.439 . S
C592 H627 0.950 . S
C593 N589 1.383 . S
C593 C592 1.439 . S
C593 C622 1.392 . S
N594 Co588 2.008 . S
N594 C595 1.376 . S
N594 C598 1.374 . S
C595 N594 1.376 . S
C595 C596 1.443 . S
C595 C622 1.389 . S
C596 C595 1.443 . S
C596 C597 1.340 . S
C596 H628 0.951 . S
C597 C596 1.340 . S
C597 C598 1.439 . S
C597 H629 0.950 . S
C598 N594 1.374 . S
C598 C597 1.439 . S
C598 C623 1.395 . S
N599 Co588 1.995 . S
N599 C600 1.376 . S
N599 C603 1.383 . S
C600 N599 1.376 . S
C600 C601 1.446 . S
C600 C623 1.391 . S
C601 C600 1.446 . S
C601 C602 1.339 . S
C601 H630 0.949 . S
C602 C601 1.339 . S
C602 C603 1.439 . S
C602 H631 0.950 . S
C603 N599 1.383 . S
C603 C602 1.439 . S
C603 C621 1.392 . S
N604 Co588 2.282 . S
N604 C607 1.332 . S
N604 C609 1.332 . S
C605 C606 1.386 . S
C605 C608 1.388 . S
C606 C605 1.386 . S
C606 C607 1.382 . S
C606 H632 0.950 . S
C607 N604 1.332 . S
C607 C606 1.382 . S
C607 H618 0.952 . S
C608 C605 1.388 . S
C608 C609 1.382 . S
C608 H633 0.950 . S
C609 N604 1.332 . S
C609 C608 1.382 . S
C609 H619 0.948 . S
N610 Co588 2.282 . S
N610 C614 1.332 . S
N610 C615 1.332 . S
C611 C612 1.388 . S
C611 C615 1.382 . S
C611 H634 0.950 . S
C612 C611 1.388 . S
C612 C613 1.386 . S
C613 C612 1.386 . S
C613 C614 1.382 . S
C613 H635 0.950 . S
C614 N610 1.332 . S
C614 C613 1.382 . S
C614 H616 0.952 . S
C615 N610 1.332 . S
C615 C611 1.382 . S
C615 H617 0.948 . S
H616 C614 0.952 . S
H617 C615 0.948 . S
H618 C607 0.952 . S
H619 C609 0.948 . S
C620 C586 1.395 . S
C620 C590 1.391 . S
C621 C583 1.389 . S
C621 C603 1.392 . S
C622 C593 1.392 . S
C622 C595 1.389 . S
C623 C598 1.395 . S
C623 C600 1.391 . S
H624 C584 0.951 . S
H625 C585 0.950 . S
H626 C591 0.949 . S
H627 C592 0.950 . S
H628 C596 0.951 . S
H629 C597 0.950 . S
H630 C601 0.949 . S
H631 C602 0.950 . S
H632 C606 0.950 . S
H633 C608 0.950 . S
H634 C611 0.950 . S
H635 C613 0.950 . S
C636 C637 1.443 . S
C636 N640 1.376 . S
C636 C674 1.389 . S
C637 C636 1.443 . S
C637 C638 1.340 . S
C637 H677 0.951 . S
C638 C637 1.340 . S
C638 C639 1.439 . S
C638 H678 0.950 . S
C639 C638 1.439 . S
C639 N640 1.374 . S
C639 C673 1.395 . S
N640 C636 1.376 . S
N640 C639 1.374 . S
N640 Co641 2.008 . S
Co641 N640 2.008 . S
Co641 N642 1.995 . S
Co641 N647 2.008 . S
Co641 N652 1.995 . S
Co641 N657 2.282 . S
Co641 N663 2.282 . S
N642 Co641 1.995 . S
N642 C643 1.376 . S
N642 C646 1.383 . S
C643 N642 1.376 . S
C643 C644 1.446 . S
C643 C673 1.391 . S
C644 C643 1.446 . S
C644 C645 1.339 . S
C644 H679 0.949 . S
C645 C644 1.339 . S
C645 C646 1.439 . S
C645 H680 0.950 . S
C646 N642 1.383 . S
C646 C645 1.439 . S
C646 C675 1.392 . S
N647 Co641 2.008 . S
N647 C648 1.376 . S
N647 C651 1.374 . S
C648 N647 1.376 . S
C648 C649 1.443 . S
C648 C675 1.389 . S
C649 C648 1.443 . S
C649 C650 1.340 . S
C649 H681 0.951 . S
C650 C649 1.340 . S
C650 C651 1.439 . S
C650 H682 0.950 . S
C651 N647 1.374 . S
C651 C650 1.439 . S
C651 C676 1.395 . S
N652 Co641 1.995 . S
N652 C653 1.376 . S
N652 C656 1.383 . S
C653 N652 1.376 . S
C653 C654 1.446 . S
C653 C676 1.391 . S
C654 C653 1.446 . S
C654 C655 1.339 . S
C654 H683 0.949 . S
C655 C654 1.339 . S
C655 C656 1.439 . S
C655 H684 0.950 . S
C656 N652 1.383 . S
C656 C655 1.439 . S
C656 C674 1.392 . S
N657 Co641 2.282 . S
N657 C660 1.332 . S
N657 C662 1.332 . S
C658 C659 1.386 . S
C658 C661 1.388 . S
C659 C658 1.386 . S
C659 C660 1.382 . S
C659 H685 0.950 . S
C660 N657 1.332 . S
C660 C659 1.382 . S
C660 H671 0.952 . S
C661 C658 1.388 . S
C661 C662 1.382 . S
C661 H686 0.950 . S
C662 N657 1.332 . S
C662 C661 1.382 . S
C662 H672 0.948 . S
N663 Co641 2.282 . S
N663 C667 1.332 . S
N663 C668 1.332 . S
C664 C665 1.388 . S
C664 C668 1.382 . S
C664 H687 0.950 . S
C665 C664 1.388 . S
C665 C666 1.386 . S
C666 C665 1.386 . S
C666 C667 1.382 . S
C666 H688 0.950 . S
C667 N663 1.332 . S
C667 C666 1.382 . S
C667 H669 0.952 . S
C668 N663 1.332 . S
C668 C664 1.382 . S
C668 H670 0.948 . S
H669 C667 0.952 . S
H670 C668 0.948 . S
H671 C660 0.952 . S
H672 C662 0.948 . S
C673 C639 1.395 . S
C673 C643 1.391 . S
C674 C636 1.389 . S
C674 C656 1.392 . S
C675 C646 1.392 . S
C675 C648 1.389 . S
C676 C651 1.395 . S
C676 C653 1.391 . S
H677 C637 0.951 . S
H678 C638 0.950 . S
H679 C644 0.949 . S
H680 C645 0.950 . S
H681 C649 0.951 . S
H682 C650 0.950 . S
H683 C654 0.949 . S
H684 C655 0.950 . S
H685 C659 0.950 . S
H686 C661 0.950 . S
H687 C664 0.950 . S
H688 C666 0.950 . S
C689 C690 1.443 . S
C689 N693 1.376 . S
C689 C727 1.389 . S
C690 C689 1.443 . S
C690 C691 1.340 . S
C690 H730 0.951 . S
C691 C690 1.340 . S
C691 C692 1.439 . S
C691 H731 0.950 . S
C692 C691 1.439 . S
C692 N693 1.374 . S
C692 C726 1.395 . S
N693 C689 1.376 . S
N693 C692 1.374 . S
N693 Co694 2.008 . S
Co694 N693 2.008 . S
Co694 N695 1.995 . S
Co694 N700 2.008 . S
Co694 N705 1.995 . S
Co694 N710 2.282 . S
Co694 N716 2.282 . S
N695 Co694 1.995 . S
N695 C696 1.376 . S
N695 C699 1.383 . S
C696 N695 1.376 . S
C696 C697 1.446 . S
C696 C726 1.391 . S
C697 C696 1.446 . S
C697 C698 1.339 . S
C697 H732 0.949 . S
C698 C697 1.339 . S
C698 C699 1.439 . S
C698 H733 0.950 . S
C699 N695 1.383 . S
C699 C698 1.439 . S
C699 C728 1.392 . S
N700 Co694 2.008 . S
N700 C701 1.376 . S
N700 C704 1.374 . S
C701 N700 1.376 . S
C701 C702 1.443 . S
C701 C728 1.389 . S
C702 C701 1.443 . S
C702 C703 1.340 . S
C702 H734 0.951 . S
C703 C702 1.340 . S
C703 C704 1.439 . S
C703 H735 0.950 . S
C704 N700 1.374 . S
C704 C703 1.439 . S
C704 C729 1.395 . S
N705 Co694 1.995 . S
N705 C706 1.376 . S
N705 C709 1.383 . S
C706 N705 1.376 . S
C706 C707 1.446 . S
C706 C729 1.391 . S
C707 C706 1.446 . S
C707 C708 1.339 . S
C707 H736 0.949 . S
C708 C707 1.339 . S
C708 C709 1.439 . S
C708 H737 0.950 . S
C709 N705 1.383 . S
C709 C708 1.439 . S
C709 C727 1.392 . S
N710 Co694 2.282 . S
N710 C713 1.332 . S
N710 C715 1.332 . S
C711 C712 1.386 . S
C711 C714 1.388 . S
C712 C711 1.386 . S
C712 C713 1.382 . S
C712 H738 0.950 . S
C713 N710 1.332 . S
C713 C712 1.382 . S
C713 H724 0.952 . S
C714 C711 1.388 . S
C714 C715 1.382 . S
C714 H739 0.950 . S
C715 N710 1.332 . S
C715 C714 1.382 . S
C715 H725 0.948 . S
N716 Co694 2.282 . S
N716 C720 1.332 . S
N716 C721 1.332 . S
C717 C718 1.388 . S
C717 C721 1.382 . S
C717 H740 0.950 . S
C718 C717 1.388 . S
C718 C719 1.386 . S
C719 C718 1.386 . S
C719 C720 1.382 . S
C719 H741 0.950 . S
C720 N716 1.332 . S
C720 C719 1.382 . S
C720 H722 0.952 . S
C721 N716 1.332 . S
C721 C717 1.382 . S
C721 H723 0.948 . S
H722 C720 0.952 . S
H723 C721 0.948 . S
H724 C713 0.952 . S
H725 C715 0.948 . S
C726 C692 1.395 . S
C726 C696 1.391 . S
C727 C689 1.389 . S
C727 C709 1.392 . S
C728 C699 1.392 . S
C728 C701 1.389 . S
C729 C704 1.395 . S
C729 C706 1.391 . S
H730 C690 0.951 . S
H731 C691 0.950 . S
H732 C697 0.949 . S
H733 C698 0.950 . S
H734 C702 0.951 . S
H735 C703 0.950 . S
H736 C707 0.949 . S
H737 C708 0.950 . S
H738 C712 0.950 . S
H739 C714 0.950 . S
H740 C717 0.950 . S
H741 C719 0.950 . S
C742 C743 1.443 . S
C742 N746 1.376 . S
C742 C780 1.389 . S
C743 C742 1.443 . S
C743 C744 1.340 . S
C743 H783 0.951 . S
C744 C743 1.340 . S
C744 C745 1.439 . S
C744 H784 0.950 . S
C745 C744 1.439 . S
C745 N746 1.374 . S
C745 C779 1.395 . S
N746 C742 1.376 . S
N746 C745 1.374 . S
N746 Co747 2.008 . S
Co747 N746 2.008 . S
Co747 N748 1.995 . S
Co747 N753 2.008 . S
Co747 N758 1.995 . S
Co747 N763 2.282 . S
Co747 N769 2.282 . S
N748 Co747 1.995 . S
N748 C749 1.376 . S
N748 C752 1.383 . S
C749 N748 1.376 . S
C749 C750 1.446 . S
C749 C779 1.391 . S
C750 C749 1.446 . S
C750 C751 1.339 . S
C750 H785 0.949 . S
C751 C750 1.339 . S
C751 C752 1.439 . S
C751 H786 0.950 . S
C752 N748 1.383 . S
C752 C751 1.439 . S
C752 C781 1.392 . S
N753 Co747 2.008 . S
N753 C754 1.376 . S
N753 C757 1.374 . S
C754 N753 1.376 . S
C754 C755 1.443 . S
C754 C781 1.389 . S
C755 C754 1.443 . S
C755 C756 1.340 . S
C755 H787 0.951 . S
C756 C755 1.340 . S
C756 C757 1.439 . S
C756 H788 0.950 . S
C757 N753 1.374 . S
C757 C756 1.439 . S
C757 C782 1.395 . S
N758 Co747 1.995 . S
N758 C759 1.376 . S
N758 C762 1.383 . S
C759 N758 1.376 . S
C759 C760 1.446 . S
C759 C782 1.391 . S
C760 C759 1.446 . S
C760 C761 1.339 . S
C760 H789 0.949 . S
C761 C760 1.339 . S
C761 C762 1.439 . S
C761 H790 0.950 . S
C762 N758 1.383 . S
C762 C761 1.439 . S
C762 C780 1.392 . S
N763 Co747 2.282 . S
N763 C766 1.332 . S
N763 C768 1.332 . S
C764 C765 1.386 . S
C764 C767 1.388 . S
C765 C764 1.386 . S
C765 C766 1.382 . S
C765 H791 0.950 . S
C766 N763 1.332 . S
C766 C765 1.382 . S
C766 H777 0.952 . S
C767 C764 1.388 . S
C767 C768 1.382 . S
C767 H792 0.950 . S
C768 N763 1.332 . S
C768 C767 1.382 . S
C768 H778 0.948 . S
N769 Co747 2.282 . S
N769 C773 1.332 . S
N769 C774 1.332 . S
C770 C771 1.388 . S
C770 C774 1.382 . S
C770 H793 0.950 . S
C771 C770 1.388 . S
C771 C772 1.386 . S
C772 C771 1.386 . S
C772 C773 1.382 . S
C772 H794 0.950 . S
C773 N769 1.332 . S
C773 C772 1.382 . S
C773 H775 0.952 . S
C774 N769 1.332 . S
C774 C770 1.382 . S
C774 H776 0.948 . S
H775 C773 0.952 . S
H776 C774 0.948 . S
H777 C766 0.952 . S
H778 C768 0.948 . S
C779 C745 1.395 . S
C779 C749 1.391 . S
C780 C742 1.389 . S
C780 C762 1.392 . S
C781 C752 1.392 . S
C781 C754 1.389 . S
C782 C757 1.395 . S
C782 C759 1.391 . S
H783 C743 0.951 . S
H784 C744 0.950 . S
H785 C750 0.949 . S
H786 C751 0.950 . S
H787 C755 0.951 . S
H788 C756 0.950 . S
H789 C760 0.949 . S
H790 C761 0.950 . S
H791 C765 0.950 . S
H792 C767 0.950 . S
H793 C770 0.950 . S
H794 C772 0.950 . S
C795 C796 1.443 . S
C795 N799 1.376 . S
C795 C833 1.389 . S
C796 C795 1.443 . S
C796 C797 1.340 . S
C796 H836 0.951 . S
C797 C796 1.340 . S
C797 C798 1.439 . S
C797 H837 0.950 . S
C798 C797 1.439 . S
C798 N799 1.374 . S
C798 C832 1.395 . S
N799 C795 1.376 . S
N799 C798 1.374 . S
N799 Co800 2.008 . S
Co800 N799 2.008 . S
Co800 N801 1.995 . S
Co800 N806 2.008 . S
Co800 N811 1.995 . S
Co800 N816 2.282 . S
Co800 N822 2.282 . S
N801 Co800 1.995 . S
N801 C802 1.376 . S
N801 C805 1.383 . S
C802 N801 1.376 . S
C802 C803 1.446 . S
C802 C832 1.391 . S
C803 C802 1.446 . S
C803 C804 1.339 . S
C803 H838 0.949 . S
C804 C803 1.339 . S
C804 C805 1.439 . S
C804 H839 0.950 . S
C805 N801 1.383 . S
C805 C804 1.439 . S
C805 C834 1.392 . S
N806 Co800 2.008 . S
N806 C807 1.376 . S
N806 C810 1.374 . S
C807 N806 1.376 . S
C807 C808 1.443 . S
C807 C834 1.389 . S
C808 C807 1.443 . S
C808 C809 1.340 . S
C808 H840 0.951 . S
C809 C808 1.340 . S
C809 C810 1.439 . S
C809 H841 0.950 . S
C810 N806 1.374 . S
C810 C809 1.439 . S
C810 C835 1.395 . S
N811 Co800 1.995 . S
N811 C812 1.376 . S
N811 C815 1.383 . S
C812 N811 1.376 . S
C812 C813 1.446 . S
C812 C835 1.391 . S
C813 C812 1.446 . S
C813 C814 1.339 . S
C813 H842 0.949 . S
C814 C813 1.339 . S
C814 C815 1.439 . S
C814 H843 0.950 . S
C815 N811 1.383 . S
C815 C814 1.439 . S
C815 C833 1.392 . S
N816 Co800 2.282 . S
N816 C819 1.332 . S
N816 C821 1.332 . S
C817 C818 1.386 . S
C817 C820 1.388 . S
C818 C817 1.386 . S
C818 C819 1.382 . S
C818 H844 0.950 . S
C819 N816 1.332 . S
C819 C818 1.382 . S
C819 H830 0.952 . S
C820 C817 1.388 . S
C820 C821 1.382 . S
C820 H845 0.950 . S
C821 N816 1.332 . S
C821 C820 1.382 . S
C821 H831 0.948 . S
N822 Co800 2.282 . S
N822 C826 1.332 . S
N822 C827 1.332 . S
C823 C824 1.388 . S
C823 C827 1.382 . S
C823 H846 0.950 . S
C824 C823 1.388 . S
C824 C825 1.386 . S
C825 C824 1.386 . S
C825 C826 1.382 . S
C825 H847 0.950 . S
C826 N822 1.332 . S
C826 C825 1.382 . S
C826 H828 0.952 . S
C827 N822 1.332 . S
C827 C823 1.382 . S
C827 H829 0.948 . S
H828 C826 0.952 . S
H829 C827 0.948 . S
H830 C819 0.952 . S
H831 C821 0.948 . S
C832 C798 1.395 . S
C832 C802 1.391 . S
C833 C795 1.389 . S
C833 C815 1.392 . S
C834 C805 1.392 . S
C834 C807 1.389 . S
C835 C810 1.395 . S
C835 C812 1.391 . S
H836 C796 0.951 . S
H837 C797 0.950 . S
H838 C803 0.949 . S
H839 C804 0.950 . S
H840 C808 0.951 . S
H841 C809 0.950 . S
H842 C813 0.949 . S
H843 C814 0.950 . S
H844 C818 0.950 . S
H845 C820 0.950 . S
H846 C823 0.950 . S
H847 C825 0.950 . S
C848 C849 1.443 . S
C848 N852 1.376 . S
C848 C886 1.389 . S
C849 C848 1.443 . S
C849 C850 1.340 . S
C849 H889 0.951 . S
C850 C849 1.340 . S
C850 C851 1.439 . S
C850 H890 0.950 . S
C851 C850 1.439 . S
C851 N852 1.374 . S
C851 C885 1.395 . S
N852 C848 1.376 . S
N852 C851 1.374 . S
N852 Co853 2.008 . S
Co853 N852 2.008 . S
Co853 N854 1.995 . S
Co853 N859 2.008 . S
Co853 N864 1.995 . S
Co853 N869 2.282 . S
Co853 N875 2.282 . S
N854 Co853 1.995 . S
N854 C855 1.376 . S
N854 C858 1.383 . S
C855 N854 1.376 . S
C855 C856 1.446 . S
C855 C885 1.391 . S
C856 C855 1.446 . S
C856 C857 1.339 . S
C856 H891 0.949 . S
C857 C856 1.339 . S
C857 C858 1.439 . S
C857 H892 0.950 . S
C858 N854 1.383 . S
C858 C857 1.439 . S
C858 C887 1.392 . S
N859 Co853 2.008 . S
N859 C860 1.376 . S
N859 C863 1.374 . S
C860 N859 1.376 . S
C860 C861 1.443 . S
C860 C887 1.389 . S
C861 C860 1.443 . S
C861 C862 1.340 . S
C861 H893 0.951 . S
C862 C861 1.340 . S
C862 C863 1.439 . S
C862 H894 0.950 . S
C863 N859 1.374 . S
C863 C862 1.439 . S
C863 C888 1.395 . S
N864 Co853 1.995 . S
N864 C865 1.376 . S
N864 C868 1.383 . S
C865 N864 1.376 . S
C865 C866 1.446 . S
C865 C888 1.391 . S
C866 C865 1.446 . S
C866 C867 1.339 . S
C866 H895 0.949 . S
C867 C866 1.339 . S
C867 C868 1.439 . S
C867 H896 0.950 . S
C868 N864 1.383 . S
C868 C867 1.439 . S
C868 C886 1.392 . S
N869 Co853 2.282 . S
N869 C872 1.332 . S
N869 C874 1.332 . S
C870 C871 1.386 . S
C870 C873 1.388 . S
C871 C870 1.386 . S
C871 C872 1.382 . S
C871 H897 0.950 . S
C872 N869 1.332 . S
C872 C871 1.382 . S
C872 H883 0.952 . S
C873 C870 1.388 . S
C873 C874 1.382 . S
C873 H898 0.950 . S
C874 N869 1.332 . S
C874 C873 1.382 . S
C874 H884 0.948 . S
N875 Co853 2.282 . S
N875 C879 1.332 . S
N875 C880 1.332 . S
C876 C877 1.388 . S
C876 C880 1.382 . S
C876 H899 0.950 . S
C877 C876 1.388 . S
C877 C878 1.386 . S
C878 C877 1.386 . S
C878 C879 1.382 . S
C878 H900 0.950 . S
C879 N875 1.332 . S
C879 C878 1.382 . S
C879 H881 0.952 . S
C880 N875 1.332 . S
C880 C876 1.382 . S
C880 H882 0.948 . S
H881 C879 0.952 . S
H882 C880 0.948 . S
H883 C872 0.952 . S
H884 C874 0.948 . S
C885 C851 1.395 . S
C885 C855 1.391 . S
C886 C848 1.389 . S
C886 C868 1.392 . S
C887 C858 1.392 . S
C887 C860 1.389 . S
C888 C863 1.395 . S
C888 C865 1.391 . S
H889 C849 0.951 . S
H890 C850 0.950 . S
H891 C856 0.949 . S
H892 C857 0.950 . S
H893 C861 0.951 . S
H894 C862 0.950 . S
H895 C866 0.949 . S
H896 C867 0.950 . S
H897 C871 0.950 . S
H898 C873 0.950 . S
H899 C876 0.950 . S
H900 C878 0.950 . S
C901 C902 1.443 . S
C901 N905 1.376 . S
C901 C939 1.389 . S
C902 C901 1.443 . S
C902 C903 1.340 . S
C902 H942 0.951 . S
C903 C902 1.340 . S
C903 C904 1.439 . S
C903 H943 0.950 . S
C904 C903 1.439 . S
C904 N905 1.374 . S
C904 C938 1.395 . S
N905 C901 1.376 . S
N905 C904 1.374 . S
N905 Co906 2.008 . S
Co906 N905 2.008 . S
Co906 N907 1.995 . S
Co906 N912 2.008 . S
Co906 N917 1.995 . S
Co906 N922 2.282 . S
Co906 N928 2.282 . S
N907 Co906 1.995 . S
N907 C908 1.376 . S
N907 C911 1.383 . S
C908 N907 1.376 . S
C908 C909 1.446 . S
C908 C938 1.391 . S
C909 C908 1.446 . S
C909 C910 1.339 . S
C909 H944 0.949 . S
C910 C909 1.339 . S
C910 C911 1.439 . S
C910 H945 0.950 . S
C911 N907 1.383 . S
C911 C910 1.439 . S
C911 C940 1.392 . S
N912 Co906 2.008 . S
N912 C913 1.376 . S
N912 C916 1.374 . S
C913 N912 1.376 . S
C913 C914 1.443 . S
C913 C940 1.389 . S
C914 C913 1.443 . S
C914 C915 1.340 . S
C914 H946 0.951 . S
C915 C914 1.340 . S
C915 C916 1.439 . S
C915 H947 0.950 . S
C916 N912 1.374 . S
C916 C915 1.439 . S
C916 C941 1.395 . S
N917 Co906 1.995 . S
N917 C918 1.376 . S
N917 C921 1.383 . S
C918 N917 1.376 . S
C918 C919 1.446 . S
C918 C941 1.391 . S
C919 C918 1.446 . S
C919 C920 1.339 . S
C919 H948 0.949 . S
C920 C919 1.339 . S
C920 C921 1.439 . S
C920 H949 0.950 . S
C921 N917 1.383 . S
C921 C920 1.439 . S
C921 C939 1.392 . S
N922 Co906 2.282 . S
N922 C925 1.332 . S
N922 C927 1.332 . S
C923 C924 1.386 . S
C923 C926 1.388 . S
C924 C923 1.386 . S
C924 C925 1.382 . S
C924 H950 0.950 . S
C925 N922 1.332 . S
C925 C924 1.382 . S
C925 H936 0.952 . S
C926 C923 1.388 . S
C926 C927 1.382 . S
C926 H951 0.950 . S
C927 N922 1.332 . S
C927 C926 1.382 . S
C927 H937 0.948 . S
N928 Co906 2.282 . S
N928 C932 1.332 . S
N928 C933 1.332 . S
C929 C930 1.388 . S
C929 C933 1.382 . S
C929 H952 0.950 . S
C930 C929 1.388 . S
C930 C931 1.386 . S
C931 C930 1.386 . S
C931 C932 1.382 . S
C931 H953 0.950 . S
C932 N928 1.332 . S
C932 C931 1.382 . S
C932 H934 0.952 . S
C933 N928 1.332 . S
C933 C929 1.382 . S
C933 H935 0.948 . S
H934 C932 0.952 . S
H935 C933 0.948 . S
H936 C925 0.952 . S
H937 C927 0.948 . S
C938 C904 1.395 . S
C938 C908 1.391 . S
C939 C901 1.389 . S
C939 C921 1.392 . S
C940 C911 1.392 . S
C940 C913 1.389 . S
C941 C916 1.395 . S
C941 C918 1.391 . S
H942 C902 0.951 . S
H943 C903 0.950 . S
H944 C909 0.949 . S
H945 C910 0.950 . S
H946 C914 0.951 . S
H947 C915 0.950 . S
H948 C919 0.949 . S
H949 C920 0.950 . S
H950 C924 0.950 . S
H951 C926 0.950 . S
H952 C929 0.950 . S
H953 C931 0.950 . S
C954 C955 1.443 . S
C954 N958 1.376 . S
C954 C992 1.389 . S
C955 C954 1.443 . S
C955 C956 1.340 . S
C955 H995 0.951 . S
C956 C955 1.340 . S
C956 C957 1.439 . S
C956 H996 0.950 . S
C957 C956 1.439 . S
C957 N958 1.374 . S
C957 C991 1.395 . S
N958 C954 1.376 . S
N958 C957 1.374 . S
N958 Co959 2.008 . S
Co959 N958 2.008 . S
Co959 N960 1.995 . S
Co959 N965 2.008 . S
Co959 N970 1.995 . S
Co959 N975 2.282 . S
Co959 N981 2.282 . S
N960 Co959 1.995 . S
N960 C961 1.376 . S
N960 C964 1.383 . S
C961 N960 1.376 . S
C961 C962 1.446 . S
C961 C991 1.391 . S
C962 C961 1.446 . S
C962 C963 1.339 . S
C962 H997 0.949 . S
C963 C962 1.339 . S
C963 C964 1.439 . S
C963 H998 0.950 . S
C964 N960 1.383 . S
C964 C963 1.439 . S
C964 C993 1.392 . S
N965 Co959 2.008 . S
N965 C966 1.376 . S
N965 C969 1.374 . S
C966 N965 1.376 . S
C966 C967 1.443 . S
C966 C993 1.389 . S
C967 C966 1.443 . S
C967 C968 1.340 . S
C967 H999 0.951 . S
C968 C967 1.340 . S
C968 C969 1.439 . S
C968 H1000 0.950 . S
C969 N965 1.374 . S
C969 C968 1.439 . S
C969 C994 1.395 . S
N970 Co959 1.995 . S
N970 C971 1.376 . S
N970 C974 1.383 . S
C971 N970 1.376 . S
C971 C972 1.446 . S
C971 C994 1.391 . S
C972 C971 1.446 . S
C972 C973 1.339 . S
C972 H1001 0.949 . S
C973 C972 1.339 . S
C973 C974 1.439 . S
C973 H1002 0.950 . S
C974 N970 1.383 . S
C974 C973 1.439 . S
C974 C992 1.392 . S
N975 Co959 2.282 . S
N975 C978 1.332 . S
N975 C980 1.332 . S
C976 C977 1.386 . S
C976 C979 1.388 . S
C977 C976 1.386 . S
C977 C978 1.382 . S
C977 H1003 0.950 . S
C978 N975 1.332 . S
C978 C977 1.382 . S
C978 H989 0.952 . S
C979 C976 1.388 . S
C979 C980 1.382 . S
C979 H1004 0.950 1_556 S
C980 N975 1.332 . S
C980 C979 1.382 . S
C980 H990 0.948 . S
N981 Co959 2.282 . S
N981 C985 1.332 . S
N981 C986 1.332 . S
C982 C983 1.388 . S
C982 C986 1.382 . S
C982 H1005 0.950 . S
C983 C982 1.388 . S
C983 C984 1.386 . S
C984 C983 1.386 . S
C984 C985 1.382 . S
C984 H1006 0.950 . S
C985 N981 1.332 . S
C985 C984 1.382 . S
C985 H987 0.952 . S
C986 N981 1.332 . S
C986 C982 1.382 . S
C986 H988 0.948 . S
H987 C985 0.952 . S
H988 C986 0.948 . S
H989 C978 0.952 . S
H990 C980 0.948 . S
C991 C957 1.395 . S
C991 C961 1.391 . S
C992 C954 1.389 . S
C992 C974 1.392 . S
C993 C964 1.392 . S
C993 C966 1.389 . S
C994 C969 1.395 . S
C994 C971 1.391 . S
H995 C955 0.951 . S
H996 C956 0.950 . S
H997 C962 0.949 . S
H998 C963 0.950 . S
H999 C967 0.951 . S
H1000 C968 0.950 . S
H1001 C972 0.949 . S
H1002 C973 0.950 . S
H1003 C977 0.950 . S
H1004 C979 0.950 1_554 S
H1005 C982 0.950 . S
H1006 C984 0.950 . S
C1007 C1008 1.443 . S
C1007 N1011 1.376 . S
C1007 C1045 1.389 . S
C1008 C1007 1.443 . S
C1008 C1009 1.340 . S
C1008 H1048 0.951 . S
C1009 C1008 1.340 . S
C1009 C1010 1.439 . S
C1009 H1049 0.950 . S
C1010 C1009 1.439 . S
C1010 N1011 1.374 . S
C1010 C1044 1.395 . S
N1011 C1007 1.376 . S
N1011 C1010 1.374 . S
N1011 Co1012 2.008 . S
Co1012 N1011 2.008 . S
Co1012 N1013 1.995 . S
Co1012 N1018 2.008 . S
Co1012 N1023 1.995 . S
Co1012 N1028 2.282 . S
Co1012 N1034 2.282 . S
N1013 Co1012 1.995 . S
N1013 C1014 1.376 . S
N1013 C1017 1.383 . S
C1014 N1013 1.376 . S
C1014 C1015 1.446 . S
C1014 C1044 1.391 . S
C1015 C1014 1.446 . S
C1015 C1016 1.339 . S
C1015 H1050 0.949 . S
C1016 C1015 1.339 . S
C1016 C1017 1.439 . S
C1016 H1051 0.950 . S
C1017 N1013 1.383 . S
C1017 C1016 1.439 . S
C1017 C1046 1.392 . S
N1018 Co1012 2.008 . S
N1018 C1019 1.376 . S
N1018 C1022 1.374 . S
C1019 N1018 1.376 . S
C1019 C1020 1.443 . S
C1019 C1046 1.389 . S
C1020 C1019 1.443 . S
C1020 C1021 1.340 . S
C1020 H1052 0.951 . S
C1021 C1020 1.340 . S
C1021 C1022 1.439 . S
C1021 H1053 0.950 . S
C1022 N1018 1.374 . S
C1022 C1021 1.439 . S
C1022 C1047 1.395 . S
N1023 Co1012 1.995 . S
N1023 C1024 1.376 . S
N1023 C1027 1.383 . S
C1024 N1023 1.376 . S
C1024 C1025 1.446 . S
C1024 C1047 1.391 . S
C1025 C1024 1.446 . S
C1025 C1026 1.339 . S
C1025 H1054 0.949 . S
C1026 C1025 1.339 . S
C1026 C1027 1.439 . S
C1026 H1055 0.950 . S
C1027 N1023 1.383 . S
C1027 C1026 1.439 . S
C1027 C1045 1.392 . S
N1028 Co1012 2.282 . S
N1028 C1031 1.332 . S
N1028 C1033 1.332 . S
C1029 C1030 1.386 . S
C1029 C1032 1.388 . S
C1030 C1029 1.386 . S
C1030 C1031 1.382 . S
C1030 H1056 0.950 . S
C1031 N1028 1.332 . S
C1031 C1030 1.382 . S
C1031 H1042 0.952 . S
C1032 C1029 1.388 . S
C1032 C1033 1.382 . S
C1032 H1057 0.950 . S
C1033 N1028 1.332 . S
C1033 C1032 1.382 . S
C1033 H1043 0.948 . S
N1034 Co1012 2.282 . S
N1034 C1038 1.332 . S
N1034 C1039 1.332 . S
C1035 C1036 1.388 . S
C1035 C1039 1.382 . S
C1035 H1058 0.950 . S
C1036 C1035 1.388 . S
C1036 C1037 1.386 . S
C1037 C1036 1.386 . S
C1037 C1038 1.382 . S
C1037 H1059 0.950 . S
C1038 N1034 1.332 . S
C1038 C1037 1.382 . S
C1038 H1040 0.952 . S
C1039 N1034 1.332 . S
C1039 C1035 1.382 . S
C1039 H1041 0.948 . S
H1040 C1038 0.952 . S
H1041 C1039 0.948 . S
H1042 C1031 0.952 . S
H1043 C1033 0.948 . S
C1044 C1010 1.395 . S
C1044 C1014 1.391 . S
C1045 C1007 1.389 . S
C1045 C1027 1.392 . S
C1046 C1017 1.392 . S
C1046 C1019 1.389 . S
C1047 C1022 1.395 . S
C1047 C1024 1.391 . S
H1048 C1008 0.951 . S
H1049 C1009 0.950 . S
H1050 C1015 0.949 . S
H1051 C1016 0.950 . S
H1052 C1020 0.951 . S
H1053 C1021 0.950 . S
H1054 C1025 0.949 . S
H1055 C1026 0.950 . S
H1056 C1030 0.950 . S
H1057 C1032 0.950 . S
H1058 C1035 0.950 . S
H1059 C1037 0.950 . S
C1060 C1061 1.443 . S
C1060 N1064 1.376 . S
C1060 C1098 1.389 . S
C1061 C1060 1.443 . S
C1061 C1062 1.340 . S
C1061 H1101 0.951 . S
C1062 C1061 1.340 . S
C1062 C1063 1.439 . S
C1062 H1102 0.950 . S
C1063 C1062 1.439 . S
C1063 N1064 1.374 . S
C1063 C1097 1.395 . S
N1064 C1060 1.376 . S
N1064 C1063 1.374 . S
N1064 Co1065 2.008 . S
Co1065 N1064 2.008 . S
Co1065 N1066 1.995 . S
Co1065 N1071 2.008 . S
Co1065 N1076 1.995 . S
Co1065 N1081 2.282 . S
Co1065 N1087 2.282 . S
N1066 Co1065 1.995 . S
N1066 C1067 1.376 . S
N1066 C1070 1.383 . S
C1067 N1066 1.376 . S
C1067 C1068 1.446 . S
C1067 C1097 1.391 . S
C1068 C1067 1.446 . S
C1068 C1069 1.339 . S
C1068 H1103 0.949 . S
C1069 C1068 1.339 . S
C1069 C1070 1.439 . S
C1069 H1104 0.950 . S
C1070 N1066 1.383 . S
C1070 C1069 1.439 . S
C1070 C1099 1.392 . S
N1071 Co1065 2.008 . S
N1071 C1072 1.376 . S
N1071 C1075 1.374 . S
C1072 N1071 1.376 . S
C1072 C1073 1.443 . S
C1072 C1099 1.389 . S
C1073 C1072 1.443 . S
C1073 C1074 1.340 . S
C1073 H1105 0.951 . S
C1074 C1073 1.340 . S
C1074 C1075 1.439 . S
C1074 H1106 0.950 . S
C1075 N1071 1.374 . S
C1075 C1074 1.439 . S
C1075 C1100 1.395 . S
N1076 Co1065 1.995 . S
N1076 C1077 1.376 . S
N1076 C1080 1.383 . S
C1077 N1076 1.376 . S
C1077 C1078 1.446 . S
C1077 C1100 1.391 . S
C1078 C1077 1.446 . S
C1078 C1079 1.339 . S
C1078 H1107 0.949 . S
C1079 C1078 1.339 . S
C1079 C1080 1.439 . S
C1079 H1108 0.950 . S
C1080 N1076 1.383 . S
C1080 C1079 1.439 . S
C1080 C1098 1.392 . S
N1081 Co1065 2.282 . S
N1081 C1084 1.332 . S
N1081 C1086 1.332 . S
C1082 C1083 1.386 . S
C1082 C1085 1.388 . S
C1083 C1082 1.386 . S
C1083 C1084 1.382 . S
C1083 H1109 0.950 . S
C1084 N1081 1.332 . S
C1084 C1083 1.382 . S
C1084 H1095 0.952 . S
C1085 C1082 1.388 . S
C1085 C1086 1.382 . S
C1085 H1110 0.950 . S
C1086 N1081 1.332 . S
C1086 C1085 1.382 . S
C1086 H1096 0.948 . S
N1087 Co1065 2.282 . S
N1087 C1091 1.332 . S
N1087 C1092 1.332 . S
C1088 C1089 1.388 . S
C1088 C1092 1.382 . S
C1088 H1111 0.950 . S
C1089 C1088 1.388 . S
C1089 C1090 1.386 . S
C1090 C1089 1.386 . S
C1090 C1091 1.382 . S
C1090 H1112 0.950 . S
C1091 N1087 1.332 . S
C1091 C1090 1.382 . S
C1091 H1093 0.952 . S
C1092 N1087 1.332 . S
C1092 C1088 1.382 . S
C1092 H1094 0.948 . S
H1093 C1091 0.952 . S
H1094 C1092 0.948 . S
H1095 C1084 0.952 . S
H1096 C1086 0.948 . S
C1097 C1063 1.395 . S
C1097 C1067 1.391 . S
C1098 C1060 1.389 . S
C1098 C1080 1.392 . S
C1099 C1070 1.392 . S
C1099 C1072 1.389 . S
C1100 C1075 1.395 . S
C1100 C1077 1.391 . S
H1101 C1061 0.951 . S
H1102 C1062 0.950 . S
H1103 C1068 0.949 . S
H1104 C1069 0.950 . S
H1105 C1073 0.951 . S
H1106 C1074 0.950 . S
H1107 C1078 0.949 . S
H1108 C1079 0.950 . S
H1109 C1083 0.950 . S
H1110 C1085 0.950 . S
H1111 C1088 0.950 . S
H1112 C1090 0.950 . S
C1113 C1114 1.443 . S
C1113 N1117 1.376 . S
C1113 C1151 1.389 . S
C1114 C1113 1.443 . S
C1114 C1115 1.340 . S
C1114 H1154 0.951 . S
C1115 C1114 1.340 . S
C1115 C1116 1.439 . S
C1115 H1155 0.950 . S
C1116 C1115 1.439 . S
C1116 N1117 1.374 . S
C1116 C1150 1.395 . S
N1117 C1113 1.376 . S
N1117 C1116 1.374 . S
N1117 Co1118 2.008 . S
Co1118 N1117 2.008 . S
Co1118 N1119 1.995 . S
Co1118 N1124 2.008 . S
Co1118 N1129 1.995 . S
Co1118 N1134 2.282 . S
Co1118 N1140 2.282 . S
N1119 Co1118 1.995 . S
N1119 C1120 1.376 . S
N1119 C1123 1.383 . S
C1120 N1119 1.376 . S
C1120 C1121 1.446 . S
C1120 C1150 1.391 . S
C1121 C1120 1.446 . S
C1121 C1122 1.339 . S
C1121 H1156 0.949 . S
C1122 C1121 1.339 . S
C1122 C1123 1.439 . S
C1122 H1157 0.950 . S
C1123 N1119 1.383 . S
C1123 C1122 1.439 . S
C1123 C1152 1.392 . S
N1124 Co1118 2.008 . S
N1124 C1125 1.376 . S
N1124 C1128 1.374 . S
C1125 N1124 1.376 . S
C1125 C1126 1.443 . S
C1125 C1152 1.389 . S
C1126 C1125 1.443 . S
C1126 C1127 1.340 . S
C1126 H1158 0.951 . S
C1127 C1126 1.340 . S
C1127 C1128 1.439 . S
C1127 H1159 0.950 . S
C1128 N1124 1.374 . S
C1128 C1127 1.439 . S
C1128 C1153 1.395 . S
N1129 Co1118 1.995 . S
N1129 C1130 1.376 . S
N1129 C1133 1.383 . S
C1130 N1129 1.376 . S
C1130 C1131 1.446 . S
C1130 C1153 1.391 . S
C1131 C1130 1.446 . S
C1131 C1132 1.339 . S
C1131 H1160 0.949 . S
C1132 C1131 1.339 . S
C1132 C1133 1.439 . S
C1132 H1161 0.950 . S
C1133 N1129 1.383 . S
C1133 C1132 1.439 . S
C1133 C1151 1.392 . S
N1134 Co1118 2.282 . S
N1134 C1137 1.332 . S
N1134 C1139 1.332 . S
C1135 C1136 1.386 . S
C1135 C1138 1.388 . S
C1136 C1135 1.386 . S
C1136 C1137 1.382 . S
C1136 H1162 0.950 . S
C1137 N1134 1.332 . S
C1137 C1136 1.382 . S
C1137 H1148 0.952 . S
C1138 C1135 1.388 . S
C1138 C1139 1.382 . S
C1138 H1163 0.950 . S
C1139 N1134 1.332 . S
C1139 C1138 1.382 . S
C1139 H1149 0.948 . S
N1140 Co1118 2.282 . S
N1140 C1144 1.332 . S
N1140 C1145 1.332 . S
C1141 C1142 1.388 . S
C1141 C1145 1.382 . S
C1141 H1164 0.950 . S
C1142 C1141 1.388 . S
C1142 C1143 1.386 . S
C1143 C1142 1.386 . S
C1143 C1144 1.382 . S
C1143 H1165 0.950 . S
C1144 N1140 1.332 . S
C1144 C1143 1.382 . S
C1144 H1146 0.952 . S
C1145 N1140 1.332 . S
C1145 C1141 1.382 . S
C1145 H1147 0.948 . S
H1146 C1144 0.952 . S
H1147 C1145 0.948 . S
H1148 C1137 0.952 . S
H1149 C1139 0.948 . S
C1150 C1116 1.395 . S
C1150 C1120 1.391 . S
C1151 C1113 1.389 . S
C1151 C1133 1.392 . S
C1152 C1123 1.392 . S
C1152 C1125 1.389 . S
C1153 C1128 1.395 . S
C1153 C1130 1.391 . S
H1154 C1114 0.951 . S
H1155 C1115 0.950 . S
H1156 C1121 0.949 . S
H1157 C1122 0.950 . S
H1158 C1126 0.951 . S
H1159 C1127 0.950 . S
H1160 C1131 0.949 . S
H1161 C1132 0.950 . S
H1162 C1136 0.950 . S
H1163 C1138 0.950 . S
H1164 C1141 0.950 . S
H1165 C1143 0.950 . S
C1166 C1167 1.443 . S
C1166 N1170 1.376 . S
C1166 C1204 1.389 . S
C1167 C1166 1.443 . S
C1167 C1168 1.340 . S
C1167 H1207 0.951 . S
C1168 C1167 1.340 . S
C1168 C1169 1.439 . S
C1168 H1208 0.950 . S
C1169 C1168 1.439 . S
C1169 N1170 1.374 . S
C1169 C1203 1.395 . S
N1170 C1166 1.376 . S
N1170 C1169 1.374 . S
N1170 Co1171 2.008 . S
Co1171 N1170 2.008 . S
Co1171 N1172 1.995 . S
Co1171 N1177 2.008 . S
Co1171 N1182 1.995 . S
Co1171 N1187 2.282 . S
Co1171 N1193 2.282 . S
N1172 Co1171 1.995 . S
N1172 C1173 1.376 . S
N1172 C1176 1.383 . S
C1173 N1172 1.376 . S
C1173 C1174 1.446 . S
C1173 C1203 1.391 . S
C1174 C1173 1.446 . S
C1174 C1175 1.339 . S
C1174 H1209 0.949 . S
C1175 C1174 1.339 . S
C1175 C1176 1.439 . S
C1175 H1210 0.950 . S
C1176 N1172 1.383 . S
C1176 C1175 1.439 . S
C1176 C1205 1.392 . S
N1177 Co1171 2.008 . S
N1177 C1178 1.376 . S
N1177 C1181 1.374 . S
C1178 N1177 1.376 . S
C1178 C1179 1.443 . S
C1178 C1205 1.389 . S
C1179 C1178 1.443 . S
C1179 C1180 1.340 . S
C1179 H1211 0.951 . S
C1180 C1179 1.340 . S
C1180 C1181 1.439 . S
C1180 H1212 0.950 . S
C1181 N1177 1.374 . S
C1181 C1180 1.439 . S
C1181 C1206 1.395 . S
N1182 Co1171 1.995 . S
N1182 C1183 1.376 . S
N1182 C1186 1.383 . S
C1183 N1182 1.376 . S
C1183 C1184 1.446 . S
C1183 C1206 1.391 . S
C1184 C1183 1.446 . S
C1184 C1185 1.339 . S
C1184 H1213 0.949 . S
C1185 C1184 1.339 . S
C1185 C1186 1.439 . S
C1185 H1214 0.950 . S
C1186 N1182 1.383 . S
C1186 C1185 1.439 . S
C1186 C1204 1.392 . S
N1187 Co1171 2.282 . S
N1187 C1190 1.332 . S
N1187 C1192 1.332 . S
C1188 C1189 1.386 . S
C1188 C1191 1.388 . S
C1189 C1188 1.386 . S
C1189 C1190 1.382 . S
C1189 H1215 0.950 . S
C1190 N1187 1.332 . S
C1190 C1189 1.382 . S
C1190 H1201 0.952 . S
C1191 C1188 1.388 . S
C1191 C1192 1.382 . S
C1191 H1216 0.950 . S
C1192 N1187 1.332 . S
C1192 C1191 1.382 . S
C1192 H1202 0.948 . S
N1193 Co1171 2.282 . S
N1193 C1197 1.332 . S
N1193 C1198 1.332 . S
C1194 C1195 1.388 . S
C1194 C1198 1.382 . S
C1194 H1217 0.950 . S
C1195 C1194 1.388 . S
C1195 C1196 1.386 . S
C1196 C1195 1.386 . S
C1196 C1197 1.382 . S
C1196 H1218 0.950 . S
C1197 N1193 1.332 . S
C1197 C1196 1.382 . S
C1197 H1199 0.952 . S
C1198 N1193 1.332 . S
C1198 C1194 1.382 . S
C1198 H1200 0.948 . S
H1199 C1197 0.952 . S
H1200 C1198 0.948 . S
H1201 C1190 0.952 . S
H1202 C1192 0.948 . S
C1203 C1169 1.395 . S
C1203 C1173 1.391 . S
C1204 C1166 1.389 . S
C1204 C1186 1.392 . S
C1205 C1176 1.392 . S
C1205 C1178 1.389 . S
C1206 C1181 1.395 . S
C1206 C1183 1.391 . S
H1207 C1167 0.951 . S
H1208 C1168 0.950 . S
H1209 C1174 0.949 . S
H1210 C1175 0.950 . S
H1211 C1179 0.951 . S
H1212 C1180 0.950 . S
H1213 C1184 0.949 . S
H1214 C1185 0.950 . S
H1215 C1189 0.950 . S
H1216 C1191 0.950 . S
H1217 C1194 0.950 . S
H1218 C1196 0.950 . S
C1219 C1220 1.443 . S
C1219 N1223 1.376 . S
C1219 C1257 1.389 . S
C1220 C1219 1.443 . S
C1220 C1221 1.340 . S
C1220 H1260 0.951 . S
C1221 C1220 1.340 . S
C1221 C1222 1.439 . S
C1221 H1261 0.950 . S
C1222 C1221 1.439 . S
C1222 N1223 1.374 . S
C1222 C1256 1.395 . S
N1223 C1219 1.376 . S
N1223 C1222 1.374 . S
N1223 Co1224 2.008 . S
Co1224 N1223 2.008 . S
Co1224 N1225 1.995 . S
Co1224 N1230 2.008 . S
Co1224 N1235 1.995 . S
Co1224 N1240 2.282 . S
Co1224 N1246 2.282 . S
N1225 Co1224 1.995 . S
N1225 C1226 1.376 . S
N1225 C1229 1.383 . S
C1226 N1225 1.376 . S
C1226 C1227 1.446 . S
C1226 C1256 1.391 . S
C1227 C1226 1.446 . S
C1227 C1228 1.339 . S
C1227 H1262 0.949 . S
C1228 C1227 1.339 . S
C1228 C1229 1.439 . S
C1228 H1263 0.950 . S
C1229 N1225 1.383 . S
C1229 C1228 1.439 . S
C1229 C1258 1.392 . S
N1230 Co1224 2.008 . S
N1230 C1231 1.376 . S
N1230 C1234 1.374 . S
C1231 N1230 1.376 . S
C1231 C1232 1.443 . S
C1231 C1258 1.389 . S
C1232 C1231 1.443 . S
C1232 C1233 1.340 . S
C1232 H1264 0.951 . S
C1233 C1232 1.340 . S
C1233 C1234 1.439 . S
C1233 H1265 0.950 . S
C1234 N1230 1.374 . S
C1234 C1233 1.439 . S
C1234 C1259 1.395 . S
N1235 Co1224 1.995 . S
N1235 C1236 1.376 . S
N1235 C1239 1.383 . S
C1236 N1235 1.376 . S
C1236 C1237 1.446 . S
C1236 C1259 1.391 . S
C1237 C1236 1.446 . S
C1237 C1238 1.339 . S
C1237 H1266 0.949 . S
C1238 C1237 1.339 . S
C1238 C1239 1.439 . S
C1238 H1267 0.950 . S
C1239 N1235 1.383 . S
C1239 C1238 1.439 . S
C1239 C1257 1.392 . S
N1240 Co1224 2.282 . S
N1240 C1243 1.332 . S
N1240 C1245 1.332 . S
C1241 C1242 1.386 . S
C1241 C1244 1.388 . S
C1242 C1241 1.386 . S
C1242 C1243 1.382 . S
C1242 H1268 0.950 . S
C1243 N1240 1.332 . S
C1243 C1242 1.382 . S
C1243 H1254 0.952 . S
C1244 C1241 1.388 . S
C1244 C1245 1.382 . S
C1244 H1269 0.950 1_554 S
C1245 N1240 1.332 . S
C1245 C1244 1.382 . S
C1245 H1255 0.948 . S
N1246 Co1224 2.282 . S
N1246 C1250 1.332 . S
N1246 C1251 1.332 . S
C1247 C1248 1.388 . S
C1247 C1251 1.382 . S
C1247 H1270 0.950 . S
C1248 C1247 1.388 . S
C1248 C1249 1.386 . S
C1249 C1248 1.386 . S
C1249 C1250 1.382 . S
C1249 H1271 0.950 . S
C1250 N1246 1.332 . S
C1250 C1249 1.382 . S
C1250 H1252 0.952 . S
C1251 N1246 1.332 . S
C1251 C1247 1.382 . S
C1251 H1253 0.948 . S
H1252 C1250 0.952 . S
H1253 C1251 0.948 . S
H1254 C1243 0.952 . S
H1255 C1245 0.948 . S
C1256 C1222 1.395 . S
C1256 C1226 1.391 . S
C1257 C1219 1.389 . S
C1257 C1239 1.392 . S
C1258 C1229 1.392 . S
C1258 C1231 1.389 . S
C1259 C1234 1.395 . S
C1259 C1236 1.391 . S
H1260 C1220 0.951 . S
H1261 C1221 0.950 . S
H1262 C1227 0.949 . S
H1263 C1228 0.950 . S
H1264 C1232 0.951 . S
H1265 C1233 0.950 . S
H1266 C1237 0.949 . S
H1267 C1238 0.950 . S
H1268 C1242 0.950 . S
H1269 C1244 0.950 1_556 S
H1270 C1247 0.950 . S
H1271 C1249 0.950 . S
C1272 C1273 1.387 . S
C1272 H1276 0.950 . S
C1272 C1281 1.390 . S
C1273 C1272 1.387 . S
C1273 C1275 1.387 . S
H1274 C1281 0.950 . S
C1275 C1273 1.387 . S
C1275 C1277 1.390 . S
C1275 H1279 0.950 . S
H1276 C1272 0.950 . S
C1277 C1275 1.390 . S
C1277 C1278 1.387 . S
C1277 H1280 0.950 . S
C1278 C1277 1.387 . S
C1278 C1281 1.387 . S
H1279 C1275 0.950 . S
H1280 C1277 0.950 . S
C1281 C1272 1.390 . S
C1281 H1274 0.950 . S
C1281 C1278 1.387 . S
C1282 C1283 1.387 . S
C1282 H1286 0.950 . S
C1282 C1291 1.390 . S
C1283 C1282 1.387 . S
C1283 C1285 1.387 . S
H1284 C1291 0.950 . S
C1285 C1283 1.387 . S
C1285 C1287 1.390 . S
C1285 H1289 0.950 . S
H1286 C1282 0.950 . S
C1287 C1285 1.390 . S
C1287 C1288 1.387 . S
C1287 H1290 0.950 . S
C1288 C1287 1.387 . S
C1288 C1291 1.387 . S
H1289 C1285 0.950 . S
H1290 C1287 0.950 . S
C1291 C1282 1.390 . S
C1291 H1284 0.950 . S
C1291 C1288 1.387 . S
C1292 C1293 1.387 . S
C1292 H1296 0.950 . S
C1292 C1301 1.390 . S
C1293 C1292 1.387 . S
C1293 C1295 1.387 . S
H1294 C1301 0.950 . S
C1295 C1293 1.387 . S
C1295 C1297 1.390 . S
C1295 H1299 0.950 . S
H1296 C1292 0.950 . S
C1297 C1295 1.390 . S
C1297 C1298 1.387 . S
C1297 H1300 0.950 . S
C1298 C1297 1.387 . S
C1298 C1301 1.387 . S
H1299 C1295 0.950 . S
H1300 C1297 0.950 . S
C1301 C1292 1.390 . S
C1301 H1294 0.950 . S
C1301 C1298 1.387 . S
C1302 C1303 1.387 . S
C1302 H1306 0.950 . S
C1302 C1311 1.390 . S
C1303 C1302 1.387 . S
C1303 C1305 1.387 . S
H1304 C1311 0.950 . S
C1305 C1303 1.387 . S
C1305 C1307 1.390 . S
C1305 H1309 0.950 . S
H1306 C1302 0.950 . S
C1307 C1305 1.390 . S
C1307 C1308 1.387 . S
C1307 H1310 0.950 . S
C1308 C1307 1.387 . S
C1308 C1311 1.387 . S
H1309 C1305 0.950 . S
H1310 C1307 0.950 . S
C1311 C1302 1.390 . S
C1311 H1304 0.950 . S
C1311 C1308 1.387 . S
C1312 C1313 1.387 . S
C1312 H1316 0.950 . S
C1312 C1321 1.390 . S
C1313 C1312 1.387 . S
C1313 C1315 1.387 . S
H1314 C1321 0.950 . S
C1315 C1313 1.387 . S
C1315 C1317 1.390 . S
C1315 H1319 0.950 . S
H1316 C1312 0.950 . S
C1317 C1315 1.390 . S
C1317 C1318 1.387 . S
C1317 H1320 0.950 . S
C1318 C1317 1.387 . S
C1318 C1321 1.387 . S
H1319 C1315 0.950 . S
H1320 C1317 0.950 . S
C1321 C1312 1.390 . S
C1321 H1314 0.950 . S
C1321 C1318 1.387 . S
C1322 C1323 1.387 . S
C1322 H1326 0.950 . S
C1322 C1331 1.390 . S
C1323 C1322 1.387 . S
C1323 C1325 1.387 . S
H1324 C1331 0.950 . S
C1325 C1323 1.387 . S
C1325 C1327 1.390 . S
C1325 H1329 0.950 . S
H1326 C1322 0.950 . S
C1327 C1325 1.390 . S
C1327 C1328 1.387 . S
C1327 H1330 0.950 . S
C1328 C1327 1.387 . S
C1328 C1331 1.387 . S
H1329 C1325 0.950 . S
H1330 C1327 0.950 . S
C1331 C1322 1.390 . S
C1331 H1324 0.950 . S
C1331 C1328 1.387 . S
C1332 C1333 1.387 . S
C1332 H1336 0.950 . S
C1332 C1341 1.390 . S
C1333 C1332 1.387 . S
C1333 C1335 1.387 . S
H1334 C1341 0.950 . S
C1335 C1333 1.387 . S
C1335 C1337 1.390 . S
C1335 H1339 0.950 . S
H1336 C1332 0.950 . S
C1337 C1335 1.390 . S
C1337 C1338 1.387 . S
C1337 H1340 0.950 . S
C1338 C1337 1.387 . S
C1338 C1341 1.387 . S
H1339 C1335 0.950 . S
H1340 C1337 0.950 . S
C1341 C1332 1.390 . S
C1341 H1334 0.950 . S
C1341 C1338 1.387 . S
C1342 C1343 1.387 . S
C1342 H1346 0.950 . S
C1342 C1351 1.390 . S
C1343 C1342 1.387 . S
C1343 C1345 1.387 . S
H1344 C1351 0.950 . S
C1345 C1343 1.387 . S
C1345 C1347 1.390 . S
C1345 H1349 0.950 . S
H1346 C1342 0.950 . S
C1347 C1345 1.390 . S
C1347 C1348 1.387 . S
C1347 H1350 0.950 . S
C1348 C1347 1.387 . S
C1348 C1351 1.387 . S
H1349 C1345 0.950 . S
H1350 C1347 0.950 . S
C1351 C1342 1.390 . S
C1351 H1344 0.950 . S
C1351 C1348 1.387 . S
C1352 C1353 1.387 . S
C1352 H1356 0.950 . S
C1352 C1361 1.390 . S
C1353 C1352 1.387 . S
C1353 C1355 1.387 . S
H1354 C1361 0.950 . S
C1355 C1353 1.387 . S
C1355 C1357 1.390 . S
C1355 H1359 0.950 . S
H1356 C1352 0.950 . S
C1357 C1355 1.390 . S
C1357 C1358 1.387 . S
C1357 H1360 0.950 . S
C1358 C1357 1.387 . S
C1358 C1361 1.387 . S
H1359 C1355 0.950 . S
H1360 C1357 0.950 . S
C1361 C1352 1.390 . S
C1361 H1354 0.950 . S
C1361 C1358 1.387 . S
C1362 C1363 1.387 . S
C1362 H1366 0.950 . S
C1362 C1371 1.390 . S
C1363 C1362 1.387 . S
C1363 C1365 1.387 . S
H1364 C1371 0.950 . S
C1365 C1363 1.387 . S
C1365 C1367 1.390 . S
C1365 H1369 0.950 . S
H1366 C1362 0.950 . S
C1367 C1365 1.390 . S
C1367 C1368 1.387 . S
C1367 H1370 0.950 . S
C1368 C1367 1.387 . S
C1368 C1371 1.387 . S
H1369 C1365 0.950 . S
H1370 C1367 0.950 . S
C1371 C1362 1.390 . S
C1371 H1364 0.950 . S
C1371 C1368 1.387 . S
C1372 C1373 1.387 . S
C1372 H1376 0.950 . S
C1372 C1381 1.390 . S
C1373 C1372 1.387 . S
C1373 C1375 1.387 . S
H1374 C1381 0.950 . S
C1375 C1373 1.387 . S
C1375 C1377 1.390 . S
C1375 H1379 0.950 . S
H1376 C1372 0.950 . S
C1377 C1375 1.390 . S
C1377 C1378 1.387 . S
C1377 H1380 0.950 . S
C1378 C1377 1.387 . S
C1378 C1381 1.387 . S
H1379 C1375 0.950 . S
H1380 C1377 0.950 . S
C1381 C1372 1.390 . S
C1381 H1374 0.950 . S
C1381 C1378 1.387 . S
C1382 C1383 1.387 . S
C1382 H1386 0.950 . S
C1382 C1391 1.390 . S
C1383 C1382 1.387 . S
C1383 C1385 1.387 . S
H1384 C1391 0.950 . S
C1385 C1383 1.387 . S
C1385 C1387 1.390 . S
C1385 H1389 0.950 . S
H1386 C1382 0.950 . S
C1387 C1385 1.390 . S
C1387 C1388 1.387 . S
C1387 H1390 0.950 . S
C1388 C1387 1.387 . S
C1388 C1391 1.387 . S
H1389 C1385 0.950 . S
H1390 C1387 0.950 . S
C1391 C1382 1.390 . S
C1391 H1384 0.950 . S
C1391 C1388 1.387 . S
C1392 C1393 1.387 . S
C1392 H1396 0.950 1_545 S
C1392 C1401 1.390 . S
C1393 C1392 1.387 . S
C1393 C1395 1.387 . S
H1394 C1401 0.950 . S
C1395 C1393 1.387 . S
C1395 C1397 1.390 . S
C1395 H1399 0.950 . S
H1396 C1392 0.950 1_565 S
C1397 C1395 1.390 . S
C1397 C1398 1.387 . S
C1397 H1400 0.950 . S
C1398 C1397 1.387 . S
C1398 C1401 1.387 . S
H1399 C1395 0.950 . S
H1400 C1397 0.950 . S
C1401 C1392 1.390 . S
C1401 H1394 0.950 . S
C1401 C1398 1.387 . S
C1402 C1403 1.387 1_455 S
C1402 H1406 0.950 . S
C1402 C1411 1.390 . S
C1403 C1402 1.387 1_655 S
C1403 C1405 1.387 . S
H1404 C1411 0.950 . S
C1405 C1403 1.387 . S
C1405 C1407 1.390 1_655 S
C1405 H1409 0.950 . S
H1406 C1402 0.950 . S
C1407 C1405 1.390 1_455 S
C1407 C1408 1.387 . S
C1407 H1410 0.950 . S
C1408 C1407 1.387 . S
C1408 C1411 1.387 . S
H1409 C1405 0.950 . S
H1410 C1407 0.950 . S
C1411 C1402 1.390 . S
C1411 H1404 0.950 . S
C1411 C1408 1.387 . S
C1412 C1413 1.387 1_565 S
C1412 H1416 0.950 . S
C1412 C1421 1.390 . S
C1413 C1412 1.387 1_545 S
C1413 C1415 1.385 1_545 S
H1414 C1421 0.950 . S
C1415 C1413 1.385 1_565 S
C1415 C1417 1.397 . S
C1415 H1419 0.945 1_565 S
H1416 C1412 0.950 . S
C1417 C1415 1.397 . S
C1417 C1418 1.387 . S
C1417 H1420 0.950 . S
C1418 C1417 1.387 . S
C1418 C1421 1.387 . S
H1419 C1415 0.945 1_545 S
H1420 C1417 0.950 . S
C1421 C1412 1.390 . S
C1421 H1414 0.950 . S
C1421 C1418 1.387 . S
C1422 C1423 1.387 . S
C1422 H1426 0.950 . S
C1422 C1431 1.390 . S
C1423 C1422 1.387 . S
C1423 C1425 1.387 . S
H1424 C1431 0.950 . S
C1425 C1423 1.387 . S
C1425 C1427 1.390 . S
C1425 H1429 0.950 . S
H1426 C1422 0.950 . S
C1427 C1425 1.390 . S
C1427 C1428 1.387 . S
C1427 H1430 0.950 . S
C1428 C1427 1.387 . S
C1428 C1431 1.387 . S
H1429 C1425 0.950 . S
H1430 C1427 0.950 . S
C1431 C1422 1.390 . S
C1431 H1424 0.950 . S
C1431 C1428 1.387 . S
C1432 C1433 1.387 . S
C1432 H1436 0.950 . S
C1432 C1441 1.390 . S
C1433 C1432 1.387 . S
C1433 C1435 1.387 . S
H1434 C1441 0.950 . S
C1435 C1433 1.387 . S
C1435 C1437 1.390 1_565 S
C1435 H1439 0.949 . S
H1436 C1432 0.950 . S
C1437 C1435 1.390 1_545 S
C1437 C1438 1.387 . S
C1437 H1440 0.950 . S
C1438 C1437 1.387 . S
C1438 C1441 1.387 1_545 S
H1439 C1435 0.949 . S
H1440 C1437 0.950 . S
C1441 C1432 1.390 . S
C1441 H1434 0.950 . S
C1441 C1438 1.387 1_565 S
C1442 C1443 1.387 . S
C1442 H1446 0.950 . S
C1442 C1451 1.390 . S
C1443 C1442 1.387 . S
C1443 C1445 1.387 . S
H1444 C1451 0.950 1_455 S
C1445 C1443 1.387 . S
C1445 C1447 1.390 . S
C1445 H1449 0.950 . S
H1446 C1442 0.950 . S
C1447 C1445 1.390 . S
C1447 C1448 1.387 1_655 S
C1447 H1450 0.942 1_655 S
C1448 C1447 1.387 1_455 S
C1448 C1451 1.387 1_455 S
H1449 C1445 0.950 . S
H1450 C1447 0.942 1_455 S
C1451 C1442 1.390 . S
C1451 H1444 0.950 1_655 S
C1451 C1448 1.387 1_655 S
C1452 C1453 1.387 . S
C1452 H1456 0.950 . S
C1452 C1461 1.390 . S
C1453 C1452 1.387 . S
C1453 C1455 1.387 . S
H1454 C1461 0.950 . S
C1455 C1453 1.387 . S
C1455 C1457 1.390 . S
C1455 H1459 0.950 1_545 S
H1456 C1452 0.950 . S
C1457 C1455 1.390 . S
C1457 C1458 1.387 . S
C1457 H1460 0.950 . S
C1458 C1457 1.387 . S
C1458 C1461 1.387 . S
H1459 C1455 0.950 1_565 S
H1460 C1457 0.950 . S
C1461 C1452 1.390 . S
C1461 H1454 0.950 . S
C1461 C1458 1.387 . S
C1462 C1463 1.387 . S
C1462 H1466 0.950 . S
C1462 C1471 1.390 . S
C1463 C1462 1.387 . S
C1463 C1465 1.387 . S
H1464 C1471 0.950 . S
C1465 C1463 1.387 . S
C1465 C1467 1.390 . S
C1465 H1469 0.950 . S
H1466 C1462 0.950 . S
C1467 C1465 1.390 . S
C1467 C1468 1.387 . S
C1467 H1470 0.950 . S
C1468 C1467 1.387 . S
C1468 C1471 1.387 . S
H1469 C1465 0.950 . S
H1470 C1467 0.950 . S
C1471 C1462 1.390 . S
C1471 H1464 0.950 . S
C1471 C1468 1.387 . S
C1472 C1473 1.387 . S
C1472 H1476 0.950 . S
C1472 C1481 1.390 . S
C1473 C1472 1.387 . S
C1473 C1475 1.387 . S
H1474 C1481 0.950 . S
C1475 C1473 1.387 . S
C1475 C1477 1.390 . S
C1475 H1479 0.950 . S
H1476 C1472 0.950 . S
C1477 C1475 1.390 . S
C1477 C1478 1.387 . S
C1477 H1480 0.950 . S
C1478 C1477 1.387 . S
C1478 C1481 1.387 . S
H1479 C1475 0.950 . S
H1480 C1477 0.950 . S
C1481 C1472 1.390 . S
C1481 H1474 0.950 . S
C1481 C1478 1.387 . S
C1482 C1483 1.387 . S
C1482 H1486 0.950 . S
C1482 C1491 1.390 . S
C1483 C1482 1.387 . S
C1483 C1485 1.387 . S
H1484 C1491 0.950 . S
C1485 C1483 1.387 . S
C1485 C1487 1.390 . S
C1485 H1489 0.950 . S
H1486 C1482 0.950 . S
C1487 C1485 1.390 . S
C1487 C1488 1.387 . S
C1487 H1490 0.950 . S
C1488 C1487 1.387 . S
C1488 C1491 1.387 . S
H1489 C1485 0.950 . S
H1490 C1487 0.950 . S
C1491 C1482 1.390 . S
C1491 H1484 0.950 . S
C1491 C1488 1.387 . S
C1492 C1493 1.387 . S
C1492 H1496 0.950 . S
C1492 C1501 1.390 . S
C1493 C1492 1.387 . S
C1493 C1495 1.387 . S
H1494 C1501 0.950 . S
C1495 C1493 1.387 . S
C1495 C1497 1.390 . S
C1495 H1499 0.950 . S
H1496 C1492 0.950 . S
C1497 C1495 1.390 . S
C1497 C1498 1.387 . S
C1497 H1500 0.950 . S
C1498 C1497 1.387 . S
C1498 C1501 1.387 . S
H1499 C1495 0.950 . S
H1500 C1497 0.950 . S
C1501 C1492 1.390 . S
C1501 H1494 0.950 . S
C1501 C1498 1.387 . S
C1502 C1503 1.387 . S
C1502 H1506 0.950 . S
C1502 C1511 1.390 . S
C1503 C1502 1.387 . S
C1503 C1505 1.387 . S
H1504 C1511 0.950 . S
C1505 C1503 1.387 . S
C1505 C1507 1.390 . S
C1505 H1509 0.950 . S
H1506 C1502 0.950 . S
C1507 C1505 1.390 . S
C1507 C1508 1.387 . S
C1507 H1510 0.950 . S
C1508 C1507 1.387 . S
C1508 C1511 1.387 . S
H1509 C1505 0.950 . S
H1510 C1507 0.950 . S
C1511 C1502 1.390 . S
C1511 H1504 0.950 . S
C1511 C1508 1.387 . S
C1512 C1513 1.387 . S
C1512 H1516 0.950 . S
C1512 C1521 1.390 . S
C1513 C1512 1.387 . S
C1513 C1515 1.387 . S
H1514 C1521 0.950 . S
C1515 C1513 1.387 . S
C1515 C1517 1.390 . S
C1515 H1519 0.950 . S
H1516 C1512 0.950 . S
C1517 C1515 1.390 . S
C1517 C1518 1.387 . S
C1517 H1520 0.950 . S
C1518 C1517 1.387 . S
C1518 C1521 1.387 . S
H1519 C1515 0.950 . S
H1520 C1517 0.950 . S
C1521 C1512 1.390 . S
C1521 H1514 0.950 . S
C1521 C1518 1.387 . S
C1522 C1523 1.387 . S
C1522 H1526 0.950 . S
C1522 C1531 1.390 . S
C1523 C1522 1.387 . S
C1523 C1525 1.387 . S
H1524 C1531 0.950 . S
C1525 C1523 1.387 . S
C1525 C1527 1.390 . S
C1525 H1529 0.950 . S
H1526 C1522 0.950 . S
C1527 C1525 1.390 . S
C1527 C1528 1.387 . S
C1527 H1530 0.950 . S
C1528 C1527 1.387 . S
C1528 C1531 1.387 . S
H1529 C1525 0.950 . S
H1530 C1527 0.950 . S
C1531 C1522 1.390 . S
C1531 H1524 0.950 . S
C1531 C1528 1.387 . S
C1532 C1533 1.387 . S
C1532 H1536 0.950 . S
C1532 C1541 1.390 . S
C1533 C1532 1.387 . S
C1533 C1535 1.387 . S
H1534 C1541 0.950 . S
C1535 C1533 1.387 . S
C1535 C1537 1.390 . S
C1535 H1539 0.950 . S
H1536 C1532 0.950 . S
C1537 C1535 1.390 . S
C1537 C1538 1.387 . S
C1537 H1540 0.950 . S
C1538 C1537 1.387 . S
C1538 C1541 1.387 . S
H1539 C1535 0.950 . S
H1540 C1537 0.950 . S
C1541 C1532 1.390 . S
C1541 H1534 0.950 . S
C1541 C1538 1.387 . S
C1542 C1543 1.387 . S
C1542 H1546 0.950 . S
C1542 C1551 1.390 . S
C1543 C1542 1.387 . S
C1543 C1545 1.387 . S
H1544 C1551 0.950 . S
C1545 C1543 1.387 . S
C1545 C1547 1.390 . S
C1545 H1549 0.950 . S
H1546 C1542 0.950 . S
C1547 C1545 1.390 . S
C1547 C1548 1.387 . S
C1547 H1550 0.950 . S
C1548 C1547 1.387 . S
C1548 C1551 1.387 . S
H1549 C1545 0.950 . S
H1550 C1547 0.950 . S
C1551 C1542 1.390 . S
C1551 H1544 0.950 . S
C1551 C1548 1.387 . S
C1552 C1553 1.387 . S
C1552 H1556 0.950 . S
C1552 C1561 1.390 . S
C1553 C1552 1.387 . S
C1553 C1555 1.387 . S
H1554 C1561 0.950 . S
C1555 C1553 1.387 . S
C1555 C1557 1.390 . S
C1555 H1559 0.950 . S
H1556 C1552 0.950 . S
C1557 C1555 1.390 . S
C1557 C1558 1.387 . S
C1557 H1560 0.950 . S
C1558 C1557 1.387 . S
C1558 C1561 1.387 . S
H1559 C1555 0.950 . S
H1560 C1557 0.950 . S
C1561 C1552 1.390 . S
C1561 H1554 0.950 . S
C1561 C1558 1.387 . S
C1562 C1563 1.387 . S
C1562 H1566 0.950 . S
C1562 C1571 1.390 . S
C1563 C1562 1.387 . S
C1563 C1565 1.387 . S
H1564 C1571 0.950 . S
C1565 C1563 1.387 . S
C1565 C1567 1.390 . S
C1565 H1569 0.950 . S
H1566 C1562 0.950 . S
C1567 C1565 1.390 . S
C1567 C1568 1.387 . S
C1567 H1570 0.950 . S
C1568 C1567 1.387 . S
C1568 C1571 1.387 . S
H1569 C1565 0.950 . S
H1570 C1567 0.950 . S
C1571 C1562 1.390 . S
C1571 H1564 0.950 . S
C1571 C1568 1.387 . S
C1572 C1573 1.387 . S
C1572 H1576 0.950 . S
C1572 C1581 1.390 . S
C1573 C1572 1.387 . S
C1573 C1575 1.387 . S
H1574 C1581 0.950 . S
C1575 C1573 1.387 . S
C1575 C1577 1.390 . S
C1575 H1579 0.950 . S
H1576 C1572 0.950 . S
C1577 C1575 1.390 . S
C1577 C1578 1.387 . S
C1577 H1580 0.950 . S
C1578 C1577 1.387 . S
C1578 C1581 1.387 . S
H1579 C1575 0.950 . S
H1580 C1577 0.950 . S
C1581 C1572 1.390 . S
C1581 H1574 0.950 . S
C1581 C1578 1.387 . S
C1582 C1583 1.387 . S
C1582 H1586 0.950 . S
C1582 C1591 1.390 . S
C1583 C1582 1.387 . S
C1583 C1585 1.387 . S
H1584 C1591 0.950 . S
C1585 C1583 1.387 . S
C1585 C1587 1.390 . S
C1585 H1589 0.950 . S
H1586 C1582 0.950 . S
C1587 C1585 1.390 . S
C1587 C1588 1.387 . S
C1587 H1590 0.950 . S
C1588 C1587 1.387 . S
C1588 C1591 1.387 . S
H1589 C1585 0.950 . S
H1590 C1587 0.950 . S
C1591 C1582 1.390 . S
C1591 H1584 0.950 . S
C1591 C1588 1.387 . S
C1592 C1593 1.387 . S
C1592 H1596 0.950 . S
C1592 C1601 1.390 . S
C1593 C1592 1.387 . S
C1593 C1595 1.387 . S
H1594 C1601 0.950 . S
C1595 C1593 1.387 . S
C1595 C1597 1.390 . S
C1595 H1599 0.950 . S
H1596 C1592 0.950 . S
C1597 C1595 1.390 . S
C1597 C1598 1.387 . S
C1597 H1600 0.950 . S
C1598 C1597 1.387 . S
C1598 C1601 1.387 . S
H1599 C1595 0.950 . S
H1600 C1597 0.950 . S
C1601 C1592 1.390 . S
C1601 H1594 0.950 . S
C1601 C1598 1.387 . S
C1602 C1603 1.387 . S
C1602 H1606 0.950 . S
C1602 C1611 1.390 . S
C1603 C1602 1.387 . S
C1603 C1605 1.387 . S
H1604 C1611 0.950 . S
C1605 C1603 1.387 . S
C1605 C1607 1.390 . S
C1605 H1609 0.950 . S
H1606 C1602 0.950 . S
C1607 C1605 1.390 . S
C1607 C1608 1.387 . S
C1607 H1610 0.950 . S
C1608 C1607 1.387 . S
C1608 C1611 1.387 . S
H1609 C1605 0.950 . S
H1610 C1607 0.950 . S
C1611 C1602 1.390 . S
C1611 H1604 0.950 . S
C1611 C1608 1.387 . S
C1612 C1613 1.387 . S
C1612 H1616 0.950 . S
C1612 C1621 1.390 . S
C1613 C1612 1.387 . S
C1613 C1615 1.387 . S
H1614 C1621 0.950 . S
C1615 C1613 1.387 . S
C1615 C1617 1.390 . S
C1615 H1619 0.950 . S
H1616 C1612 0.950 . S
C1617 C1615 1.390 . S
C1617 C1618 1.387 . S
C1617 H1620 0.950 . S
C1618 C1617 1.387 . S
C1618 C1621 1.387 . S
H1619 C1615 0.950 . S
H1620 C1617 0.950 . S
C1621 C1612 1.390 . S
C1621 H1614 0.950 . S
C1621 C1618 1.387 . S
C1622 C1623 1.387 . S
C1622 H1626 0.950 . S
C1622 C1631 1.390 . S
C1623 C1622 1.387 . S
C1623 C1625 1.387 . S
H1624 C1631 0.950 . S
C1625 C1623 1.387 . S
C1625 C1627 1.390 . S
C1625 H1629 0.950 . S
H1626 C1622 0.950 . S
C1627 C1625 1.390 . S
C1627 C1628 1.387 . S
C1627 H1630 0.950 . S
C1628 C1627 1.387 . S
C1628 C1631 1.387 . S
H1629 C1625 0.950 . S
H1630 C1627 0.950 . S
C1631 C1622 1.390 . S
C1631 H1624 0.950 . S
C1631 C1628 1.387 . S
C1632 C1633 1.387 . S
C1632 H1636 0.950 . S
C1632 C1641 1.390 . S
C1633 C1632 1.387 . S
C1633 C1635 1.387 . S
H1634 C1641 0.950 . S
C1635 C1633 1.387 . S
C1635 C1637 1.390 . S
C1635 H1639 0.950 . S
H1636 C1632 0.950 . S
C1637 C1635 1.390 . S
C1637 C1638 1.387 . S
C1637 H1640 0.950 . S
C1638 C1637 1.387 . S
C1638 C1641 1.387 . S
H1639 C1635 0.950 . S
H1640 C1637 0.950 . S
C1641 C1632 1.390 . S
C1641 H1634 0.950 . S
C1641 C1638 1.387 . S
C1642 C1643 1.387 . S
C1642 H1646 0.950 . S
C1642 C1651 1.390 . S
C1643 C1642 1.387 . S
C1643 C1645 1.387 . S
H1644 C1651 0.950 . S
C1645 C1643 1.387 . S
C1645 C1647 1.390 . S
C1645 H1649 0.950 . S
H1646 C1642 0.950 . S
C1647 C1645 1.390 . S
C1647 C1648 1.387 . S
C1647 H1650 0.950 . S
C1648 C1647 1.387 . S
C1648 C1651 1.387 . S
H1649 C1645 0.950 . S
H1650 C1647 0.950 . S
C1651 C1642 1.390 . S
C1651 H1644 0.950 . S
C1651 C1648 1.387 . S
C1652 C1653 1.387 . S
C1652 H1656 0.950 . S
C1652 C1661 1.390 . S
C1653 C1652 1.387 . S
C1653 C1655 1.387 . S
H1654 C1661 0.950 . S
C1655 C1653 1.387 . S
C1655 C1657 1.390 . S
C1655 H1659 0.950 . S
H1656 C1652 0.950 . S
C1657 C1655 1.390 . S
C1657 C1658 1.387 . S
C1657 H1660 0.950 . S
C1658 C1657 1.387 . S
C1658 C1661 1.387 . S
H1659 C1655 0.950 . S
H1660 C1657 0.950 . S
C1661 C1652 1.390 . S
C1661 H1654 0.950 . S
C1661 C1658 1.387 . S
C1662 C1663 1.387 . S
C1662 H1666 0.950 . S
C1662 C1671 1.390 . S
C1663 C1662 1.387 . S
C1663 C1665 1.387 . S
H1664 C1671 0.950 . S
C1665 C1663 1.387 . S
C1665 C1667 1.390 . S
C1665 H1669 0.950 . S
H1666 C1662 0.950 . S
C1667 C1665 1.390 . S
C1667 C1668 1.387 . S
C1667 H1670 0.950 . S
C1668 C1667 1.387 . S
C1668 C1671 1.387 . S
H1669 C1665 0.950 . S
H1670 C1667 0.950 . S
C1671 C1662 1.390 . S
C1671 H1664 0.950 . S
C1671 C1668 1.387 . S
C1672 C1673 1.387 . S
C1672 H1676 0.950 . S
C1672 C1681 1.390 . S
C1673 C1672 1.387 . S
C1673 C1675 1.387 . S
H1674 C1681 0.950 . S
C1675 C1673 1.387 . S
C1675 C1677 1.390 . S
C1675 H1679 0.950 . S
H1676 C1672 0.950 . S
C1677 C1675 1.390 . S
C1677 C1678 1.387 . S
C1677 H1680 0.950 . S
C1678 C1677 1.387 . S
C1678 C1681 1.387 . S
H1679 C1675 0.950 . S
H1680 C1677 0.950 . S
C1681 C1672 1.390 . S
C1681 H1674 0.950 . S
C1681 C1678 1.387 . S
C1682 C1683 1.387 . S
C1682 H1686 0.950 . S
C1682 C1691 1.390 . S
C1683 C1682 1.387 . S
C1683 C1685 1.387 . S
H1684 C1691 0.950 . S
C1685 C1683 1.387 . S
C1685 C1687 1.390 . S
C1685 H1689 0.950 . S
H1686 C1682 0.950 . S
C1687 C1685 1.390 . S
C1687 C1688 1.387 . S
C1687 H1690 0.950 . S
C1688 C1687 1.387 . S
C1688 C1691 1.387 . S
H1689 C1685 0.950 . S
H1690 C1687 0.950 . S
C1691 C1682 1.390 . S
C1691 H1684 0.950 . S
C1691 C1688 1.387 . S
C1692 C1693 1.387 . S
C1692 H1696 0.950 . S
C1692 C1701 1.390 . S
C1693 C1692 1.387 . S
C1693 C1695 1.387 . S
H1694 C1701 0.950 . S
C1695 C1693 1.387 . S
C1695 C1697 1.390 . S
C1695 H1699 0.950 . S
H1696 C1692 0.950 . S
C1697 C1695 1.390 . S
C1697 C1698 1.387 . S
C1697 H1700 0.950 . S
C1698 C1697 1.387 . S
C1698 C1701 1.387 . S
H1699 C1695 0.950 . S
H1700 C1697 0.950 . S
C1701 C1692 1.390 . S
C1701 H1694 0.950 . S
C1701 C1698 1.387 . S
C1702 C1703 1.387 . S
C1702 H1706 0.950 . S
C1702 C1711 1.390 . S
C1703 C1702 1.387 . S
C1703 C1705 1.387 . S
H1704 C1711 0.950 . S
C1705 C1703 1.387 . S
C1705 C1707 1.390 . S
C1705 H1709 0.950 . S
H1706 C1702 0.950 . S
C1707 C1705 1.390 . S
C1707 C1708 1.387 . S
C1707 H1710 0.950 . S
C1708 C1707 1.387 . S
C1708 C1711 1.387 . S
H1709 C1705 0.950 . S
H1710 C1707 0.950 . S
C1711 C1702 1.390 . S
C1711 H1704 0.950 . S
C1711 C1708 1.387 . S
C1712 C1713 1.387 . S
C1712 H1716 0.950 . S
C1712 C1721 1.390 . S
C1713 C1712 1.387 . S
C1713 C1715 1.387 . S
H1714 C1721 0.950 . S
C1715 C1713 1.387 . S
C1715 C1717 1.390 . S
C1715 H1719 0.950 . S
H1716 C1712 0.950 . S
C1717 C1715 1.390 . S
C1717 C1718 1.387 . S
C1717 H1720 0.950 . S
C1718 C1717 1.387 . S
C1718 C1721 1.387 . S
H1719 C1715 0.950 . S
H1720 C1717 0.950 . S
C1721 C1712 1.390 . S
C1721 H1714 0.950 . S
C1721 C1718 1.387 . S
C1722 C1723 1.387 . S
C1722 H1726 0.950 . S
C1722 C1731 1.390 . S
C1723 C1722 1.387 . S
C1723 C1725 1.387 . S
H1724 C1731 0.950 . S
C1725 C1723 1.387 . S
C1725 C1727 1.390 . S
C1725 H1729 0.950 . S
H1726 C1722 0.950 . S
C1727 C1725 1.390 . S
C1727 C1728 1.387 . S
C1727 H1730 0.950 . S
C1728 C1727 1.387 . S
C1728 C1731 1.387 . S
H1729 C1725 0.950 . S
H1730 C1727 0.950 . S
C1731 C1722 1.390 . S
C1731 H1724 0.950 . S
C1731 C1728 1.387 . S
C1732 C1733 1.387 . S
C1732 H1736 0.950 . S
C1732 C1741 1.390 . S
C1733 C1732 1.387 . S
C1733 C1735 1.387 . S
H1734 C1741 0.950 . S
C1735 C1733 1.387 . S
C1735 C1737 1.390 . S
C1735 H1739 0.950 . S
H1736 C1732 0.950 . S
C1737 C1735 1.390 . S
C1737 C1738 1.387 . S
C1737 H1740 0.950 . S
C1738 C1737 1.387 . S
C1738 C1741 1.387 . S
H1739 C1735 0.950 . S
H1740 C1737 0.950 . S
C1741 C1732 1.390 . S
C1741 H1734 0.950 . S
C1741 C1738 1.387 . S
C1742 C1743 1.387 . S
C1742 H1746 0.950 . S
C1742 C1751 1.390 . S
C1743 C1742 1.387 . S
C1743 C1745 1.387 . S
H1744 C1751 0.950 . S
C1745 C1743 1.387 . S
C1745 C1747 1.390 . S
C1745 H1749 0.950 . S
H1746 C1742 0.950 . S
C1747 C1745 1.390 . S
C1747 C1748 1.387 . S
C1747 H1750 0.950 . S
C1748 C1747 1.387 . S
C1748 C1751 1.387 . S
H1749 C1745 0.950 . S
H1750 C1747 0.950 . S
C1751 C1742 1.390 . S
C1751 H1744 0.950 . S
C1751 C1748 1.387 . S
C1273 C1204 2.210 . S
C1278 C38 2.254 . S
C1283 C75 2.114 . S
C1288 C870 2.204 . S
C1293 C1257 2.146 . S
C1298 C144 2.198 . S
C1303 C1135 2.302 . S
C1308 C181 2.195 . S
C1313 C992 2.144 . S
C1318 C250 2.198 . S
C1323 C1029 2.202 . S
C1328 C287 2.112 . S
C1333 C1098 2.211 . S
C1338 C356 2.254 . S
C1343 C393 2.193 . S
C1348 C923 2.300 . S
C1353 C727 2.205 . S
C1358 C446 2.323 . S
C1363 C764 2.325 . S
C1368 C515 2.207 . S
C1373 C568 2.383 . S
C1378 C833 2.251 . S
C1383 C621 2.254 . S
C1388 C674 2.385 . S
C1393 C409 2.237 1_545 S
C1398 C780 2.190 . S
C1403 C817 2.376 . S
C1408 C234 2.288 . S
C1413 C303 2.219 . S
C1418 C658 2.117 . S
C1423 C711 2.300 1_655 S
C1428 C340 2.223 . S
C1433 C552 2.117 . S
C1438 C91 2.220 . S
C1443 C128 2.291 . S
C1448 C605 2.377 . S
C1453 C197 2.237 1_545 S
C1458 C462 2.188 . S
C1463 C22 2.225 . S
C1468 C499 2.302 1_455 S
C1473 C1082 2.280 1_554 S
C1478 C1151 2.182 . S
C1483 C1188 2.280 1_556 S
C1488 C939 2.182 . S
C1493 C976 2.275 1_554 S
C1498 C886 2.162 . S
C1503 C1241 2.275 1_556 S
C1508 C1045 2.162 . S
C1513 C39 2.095 . S
C1518 C463 2.111 . S
C1523 C506 1.613 . S
C1528 C82 1.651 . S
C1533 C145 1.857 . S
C1538 C559 1.837 . S
C1543 C188 1.776 . S
C1548 C612 1.752 . S
C1553 C251 1.854 . S
C1558 C665 1.837 . S
C1563 C294 1.651 . S
C1568 C718 1.612 . S
C1573 C781 2.110 . S
C1578 C357 2.095 . S
C1583 C824 1.753 . S
C1588 C400 1.776 . S
C1593 C453 1.897 . S
C1598 C887 1.822 . S
C1603 C516 1.691 . S
C1608 C1248 1.775 . S
C1613 C1152 2.005 . S
C1618 C569 2.117 . S
C1623 C1195 1.734 . S
C1628 C622 1.663 . S
C1633 C940 2.007 . S
C1638 C675 2.116 . S
C1643 C983 1.775 . S
C1648 C728 1.691 . S
C1653 C771 1.896 . S
C1658 C1046 1.826 . S
C1663 C834 1.662 . S
C1668 C1089 1.734 . S
C1673 C29 1.594 . S
C1678 C877 1.575 . S
C1683 C930 1.705 . S
C1688 C241 1.657 . S
C1693 C993 2.126 . S
C1698 C304 2.092 . S
C1703 C1036 1.571 . S
C1708 C347 1.590 . S
C1713 C1099 2.127 . S
C1718 C410 2.113 . S
C1723 C1142 1.709 . S
C1728 C135 1.658 . S
C1733 C198 2.113 . S
C1738 C1205 2.129 . S
C1743 C1258 2.125 . S
C1748 C92 2.093 . S
