# Generated by pormake.
# Topology wjf, (4)-cn, num edge types: 1
# Building blocks:
#     Node 0, Type 0, BuildingBlock: ESEHIV_clean_sbu_0, # of connection points: 4
#     Node 1, Type 0, BuildingBlock: ESEHIV_clean_sbu_0, # of connection points: 4
#     Node 2, Type 0, BuildingBlock: ESEHIV_clean_sbu_0, # of connection points: 4
#     Node 3, Type 0, BuildingBlock: ESEHIV_clean_sbu_0, # of connection points: 4
#     Node 4, Type 0, BuildingBlock: ESEHIV_clean_sbu_0, # of connection points: 4
#     Node 5, Type 0, BuildingBlock: ESEHIV_clean_sbu_0, # of connection points: 4
#     Node 6, Type 0, BuildingBlock: ESEHIV_clean_sbu_0, # of connection points: 4
#     Node 7, Type 0, BuildingBlock: ESEHIV_clean_sbu_0, # of connection points: 4
#     Node 8, Type 0, BuildingBlock: ESEHIV_clean_sbu_0, # of connection points: 4
#     Node 9, Type 0, BuildingBlock: ESEHIV_clean_sbu_0, # of connection points: 4
#     Node 10, Type 0, BuildingBlock: ESEHIV_clean_sbu_0, # of connection points: 4
#     Node 11, Type 0, BuildingBlock: ESEHIV_clean_sbu_0, # of connection points: 4
#     Edge 12, Type (0, 0), BuildingBlock: XIVTED_clean_linker_0, # of connection points: 2
#     Edge 13, Type (0, 0), BuildingBlock: XIVTED_clean_linker_0, # of connection points: 2
#     Edge 14, Type (0, 0), BuildingBlock: XIVTED_clean_linker_0, # of connection points: 2
#     Edge 15, Type (0, 0), BuildingBlock: XIVTED_clean_linker_0, # of connection points: 2
#     Edge 16, Type (0, 0), BuildingBlock: XIVTED_clean_linker_0, # of connection points: 2
#     Edge 17, Type (0, 0), BuildingBlock: XIVTED_clean_linker_0, # of connection points: 2
#     Edge 18, Type (0, 0), BuildingBlock: XIVTED_clean_linker_0, # of connection points: 2
#     Edge 19, Type (0, 0), BuildingBlock: XIVTED_clean_linker_0, # of connection points: 2
#     Edge 20, Type (0, 0), BuildingBlock: XIVTED_clean_linker_0, # of connection points: 2
#     Edge 21, Type (0, 0), BuildingBlock: XIVTED_clean_linker_0, # of connection points: 2
#     Edge 22, Type (0, 0), BuildingBlock: XIVTED_clean_linker_0, # of connection points: 2
#     Edge 23, Type (0, 0), BuildingBlock: XIVTED_clean_linker_0, # of connection points: 2
#     Edge 24, Type (0, 0), BuildingBlock: XIVTED_clean_linker_0, # of connection points: 2
#     Edge 25, Type (0, 0), BuildingBlock: XIVTED_clean_linker_0, # of connection points: 2
#     Edge 26, Type (0, 0), BuildingBlock: XIVTED_clean_linker_0, # of connection points: 2
#     Edge 27, Type (0, 0), BuildingBlock: XIVTED_clean_linker_0, # of connection points: 2
#     Edge 28, Type (0, 0), BuildingBlock: XIVTED_clean_linker_0, # of connection points: 2
#     Edge 29, Type (0, 0), BuildingBlock: XIVTED_clean_linker_0, # of connection points: 2
#     Edge 30, Type (0, 0), BuildingBlock: XIVTED_clean_linker_0, # of connection points: 2
#     Edge 31, Type (0, 0), BuildingBlock: XIVTED_clean_linker_0, # of connection points: 2
#     Edge 32, Type (0, 0), BuildingBlock: XIVTED_clean_linker_0, # of connection points: 2
#     Edge 33, Type (0, 0), BuildingBlock: XIVTED_clean_linker_0, # of connection points: 2
#     Edge 34, Type (0, 0), BuildingBlock: XIVTED_clean_linker_0, # of connection points: 2
#     Edge 35, Type (0, 0), BuildingBlock: XIVTED_clean_linker_0, # of connection points: 2
# Relax obj value: 0.107
# Max RMSD: 0.236
# Mean RMSD: 0.236
data_MOF--net-wjf--node1-ESEHIV_clean_sbu_0--edge1-XIVTED_clean_linker_0
_symmetry_space_group_name_H-M    P1
_symmetry_Int_Tables_number       1
_symmetry_cell_setting            triclinic
loop_
_symmetry_equiv_pos_as_xyz
'x, y, z'
_cell_length_a     59.436796
_cell_length_b     59.447354
_cell_length_c     28.533734
_cell_angle_alpha  90.209624
_cell_angle_beta   89.714171
_cell_angle_gamma 120.05528
loop_
_atom_site_label
_atom_site_type_symbol
_atom_site_fract_x
_atom_site_fract_y
_atom_site_fract_z
_atom_type_partial_charge
Cu0 Cu 0.33556 0.39583 0.10304 0.0
N1 N 0.36457 0.4286 0.09432 0.0
N2 N 0.40602 0.46057 0.09217 0.0
C3 C 0.38907 0.43642 0.10781 0.0
C4 C 0.39141 0.46824 0.06839 0.0
C5 C 0.36588 0.44846 0.06974 0.0
O6 O 0.34194 0.38078 0.15838 0.0
C7 C 0.35042 0.37679 0.02583 0.0
O8 O 0.37301 0.38877 0.04708 0.0
H9 H 0.39431 0.4243 0.12778 0.0
H10 H 0.34952 0.44819 0.05275 0.0
N11 N 0.30693 0.40018 0.11263 0.0
N12 N 0.27012 0.40071 0.10044 0.0
C13 C 0.28728 0.39426 0.08277 0.0
C14 C 0.30223 0.41092 0.15027 0.0
C15 C 0.27944 0.41113 0.14299 0.0
C16 C 0.32472 0.36744 0.18899 0.0
O17 O 0.3004 0.36085 0.18141 0.0
H18 H 0.28564 0.38539 0.04882 0.0
H19 H 0.31467 0.41825 0.18068 0.0
O20 O 0.33078 0.37589 0.04581 0.0
H21 H 0.39871 0.48638 0.04965 0.0
H22 H 0.27078 0.41895 0.16666 0.0
Cu23 Cu 0.95282 0.33982 0.44073 0.0
N24 N 0.9465 0.36746 0.44157 0.0
N25 N 0.95427 0.40834 0.44114 0.0
C26 C 0.96471 0.39274 0.43864 0.0
C27 C 0.9284 0.39207 0.4457 0.0
C28 C 0.92368 0.36686 0.44602 0.0
O29 O 0.9748 0.34508 0.49498 0.0
C30 C 0.96975 0.32307 0.35826 0.0
O31 O 0.96127 0.30053 0.37899 0.0
H32 H 0.9852 0.39941 0.43439 0.0
H33 H 0.90498 0.34935 0.44962 0.0
N34 N 0.92125 0.3091 0.44961 0.0
N35 N 0.88398 0.27182 0.43926 0.0
C36 C 0.90507 0.29149 0.41816 0.0
C37 C 0.90984 0.30047 0.49162 0.0
C38 C 0.88698 0.27748 0.48544 0.0
C39 C 0.97521 0.32674 0.51724 0.0
O40 O 0.96355 0.30324 0.49918 0.0
H41 H 0.90877 0.29299 0.3808 0.0
H42 H 0.91764 0.31038 0.52452 0.0
O43 O 0.96857 0.34126 0.37978 0.0
H44 H 0.91391 0.39791 0.44942 0.0
H45 H 0.87334 0.2661 0.51277 0.0
Cu46 Cu 0.62848 0.95059 0.79 0.0
N47 N 0.59568 0.94761 0.79008 0.0
N48 N 0.56383 0.95714 0.78418 0.0
C49 C 0.58948 0.96575 0.77829 0.0
C50 C 0.55358 0.93245 0.79966 0.0
C51 C 0.57323 0.92668 0.80325 0.0
O52 O 0.64772 0.96992 0.84578 0.0
C53 C 0.6535 0.98582 0.71161 0.0
O54 O 0.65494 0.00443 0.73863 0.0
H55 H 0.60368 0.98506 0.76677 0.0
H56 H 0.57131 0.90852 0.815 0.0
N57 N 0.62366 0.91736 0.79782 0.0
N58 N 0.62064 0.87889 0.78439 0.0
C59 C 0.62404 0.90115 0.76513 0.0
C60 C 0.61982 0.90499 0.83898 0.0
C61 C 0.61795 0.88128 0.83085 0.0
C62 C 0.64595 0.98836 0.86503 0.0
O63 O 0.63402 0.99865 0.84277 0.0
H64 H 0.6273 0.90586 0.72821 0.0
H65 H 0.61858 0.9128 0.87258 0.0
O66 O 0.64451 0.96306 0.72836 0.0
H67 H 0.53333 0.91934 0.80786 0.0
H68 H 0.61465 0.86685 0.85713 0.0
Cu69 Cu 0.66931 0.62284 0.10526 0.0
N70 N 0.64114 0.58919 0.10391 0.0
N71 N 0.59984 0.55689 0.10271 0.0
C72 C 0.61604 0.58283 0.10581 0.0
C73 C 0.61556 0.54662 0.09887 0.0
C74 C 0.64104 0.56662 0.09956 0.0
O75 O 0.66415 0.63885 0.16094 0.0
C76 C 0.687 0.65661 1.02322 0.0
O77 O 0.71017 0.66916 0.04233 0.0
H78 H 0.60991 0.59708 0.10956 0.0
H79 H 0.65826 0.56489 0.09653 0.0
N80 N 0.69959 0.62108 0.11243 0.0
N81 N 0.73542 0.61865 0.09891 0.0
C82 C 0.71586 0.62087 0.07957 0.0
C83 C 0.70896 0.61868 0.15371 0.0
C84 C 0.73106 0.61734 0.1456 0.0
C85 C 0.68232 0.65732 0.18407 0.0
O86 O 0.70597 0.66943 0.16653 0.0
H87 H 0.71309 0.62186 0.04236 0.0
H88 H 0.70024 0.61793 0.18746 0.0
O89 O 0.66827 0.63825 0.04568 0.0
H90 H 0.60919 0.52619 0.0948 0.0
H91 H 0.74308 0.6158 0.17229 0.0
Cu92 Cu 0.06107 0.6734 0.44016 0.0
N93 N 0.0634 0.64359 0.43041 0.0
N94 N 0.05337 0.60204 0.42651 0.0
C95 C 0.04454 0.61862 0.43551 0.0
C96 C 0.0787 0.61725 0.41511 0.0
C97 C 0.08479 0.64283 0.41746 0.0
O98 O 0.04171 0.6699 0.49829 0.0
C99 C 0.02519 0.66294 0.36498 0.0
O100 O 0.00921 0.6421 0.38894 0.0
H101 H 0.02496 0.61282 0.44675 0.0
H102 H 0.10354 0.65975 0.41045 0.0
N103 N 0.0947 0.70152 0.4474 0.0
N104 N 0.13211 0.73814 0.43279 0.0
C105 C 0.10796 0.72119 0.41709 0.0
C106 C 0.11096 0.7061 0.48343 0.0
C107 C 0.13399 0.72864 0.47458 0.0
C108 C 0.04642 0.65969 0.53347 0.0
O109 O 0.06265 0.65096 0.52806 0.0
H110 H 0.09991 0.72303 0.38437 0.0
H111 H 0.10653 0.6938 0.51385 0.0
O112 O 0.04698 0.67926 0.38283 0.0
H113 H 0.09187 0.61041 0.40537 0.0
H114 H 0.15096 0.73703 0.49687 0.0
Cu115 Cu 0.40738 0.06513 0.75437 0.0
N116 N 0.43929 0.06697 0.74496 0.0
N117 N 0.47036 0.05621 0.74434 0.0
C118 C 0.44696 0.05077 0.76179 0.0
C119 C 0.47764 0.07685 0.71578 0.0
C120 C 0.45844 0.08338 0.71624 0.0
O121 O 0.3917 0.04471 0.81107 0.0
C122 C 0.38686 0.03068 0.67835 0.0
O123 O 0.39825 0.0196 0.69993 0.0
H124 H 0.43521 0.03498 0.78551 0.0
H125 H 0.45804 0.0985 0.69591 0.0
N126 N 0.41395 0.09903 0.76227 0.0
N127 N 0.41343 0.1361 0.75327 0.0
C128 C 0.40352 0.1112 0.73885 0.0
C129 C 0.43104 0.1167 0.79238 0.0
C130 C 0.43075 0.13955 0.78701 0.0
C131 C 0.38188 0.05178 0.84382 0.0
O132 O 0.37975 0.07254 0.83803 0.0
H133 H 0.38934 0.10209 0.71123 0.0
H134 H 0.44288 0.11313 0.81652 0.0
O135 O 0.38684 0.05001 0.69776 0.0
H136 H 0.49508 0.08602 0.69452 0.0
H137 H 0.44225 0.15724 0.80679 0.0
Cu138 Cu 0.62267 0.66441 0.60642 0.0
N139 N 0.58896 0.63673 0.61362 0.0
N140 N 0.55612 0.59589 0.61822 0.0
C141 C 0.57988 0.61194 0.60003 0.0
C142 C 0.55 0.61113 0.64405 0.0
C143 C 0.57029 0.63636 0.64102 0.0
O144 O 0.63654 0.6589 0.54821 0.0
C145 C 0.65867 0.68352 0.68498 0.0
O146 O 0.66922 0.70679 0.66624 0.0
H147 H 0.59117 0.60555 0.57995 0.0
H148 H 0.57197 0.65305 0.65953 0.0
N149 N 0.62123 0.69494 0.6006 0.0
N150 N 0.61902 0.7307 0.61604 0.0
C151 C 0.62041 0.71045 0.63433 0.0
C152 C 0.62011 0.70555 0.55979 0.0
C153 C 0.61885 0.72759 0.56911 0.0
C154 C 0.65671 0.67669 0.52781 0.0
O155 O 0.67086 0.69902 0.54929 0.0
H156 H 0.62048 0.70671 0.6714 0.0
H157 H 0.62021 0.69775 0.52554 0.0
O158 O 0.64068 0.66416 0.66321 0.0
H159 H 0.53252 0.60435 0.66491 0.0
H160 H 0.61824 0.7405 0.54316 0.0
Cu161 Cu 0.9558 0.62365 0.94337 0.0
N162 N 0.95077 0.59055 0.95335 0.0
N163 N 0.95797 0.55715 0.95736 0.0
C164 C 0.96747 0.58208 0.94382 0.0
C165 C 0.93435 0.54981 0.97607 0.0
C166 C 0.93 0.57045 0.97358 0.0
O167 O 0.97852 0.63808 0.88867 0.0
C168 C 0.99021 0.64714 1.02043 0.0
O169 O 1.00594 0.64194 0.99629 0.0
H170 H 0.98619 0.59405 0.92729 0.0
H171 H 0.91308 0.57096 0.98626 0.0
N172 N 0.92344 0.62013 0.93068 0.0
N173 N 0.88519 0.61816 0.94066 0.0
C174 C 0.90765 0.62297 0.96108 0.0
C175 C 0.91051 0.61307 0.8898 0.0
C176 C 0.88697 0.612 0.89575 0.0
C177 C 0.97709 0.6534 0.85923 0.0
O178 O 0.96204 0.66317 0.86859 0.0
H179 H 0.91256 0.62843 0.99742 0.0
H180 H 0.91764 0.60874 0.85805 0.0
O181 O 0.96883 0.64258 1.00214 0.0
H182 H 0.92134 0.53109 0.99158 0.0
H183 H 0.87206 0.60645 0.8694 0.0
Cu184 Cu 0.34279 0.95939 0.25759 0.0
N185 N 0.36408 0.94469 0.25685 0.0
N186 N 0.40081 0.94312 0.25805 0.0
C187 C 0.39005 0.95814 0.25128 0.0
C188 C 0.38082 0.91924 0.26817 0.0
C189 C 0.35812 0.92023 0.26718 0.0
O190 O 0.34991 0.97986 0.20041 0.0
C191 C 0.33586 0.98267 0.34156 0.0
O192 O 0.312 0.97443 0.32726 0.0
H193 H 0.40095 0.97888 0.24507 0.0
H194 H 0.33881 0.90449 0.27518 0.0
N195 N 0.30783 0.93348 0.2577 0.0
N196 N 0.26988 0.89843 0.2762 0.0
C197 C 0.2951 0.91377 0.28822 0.0
C198 C 0.29007 0.93069 0.2257 0.0
C199 C 0.2667 0.90909 0.23691 0.0
C200 C 0.34936 0.96839 0.16219 0.0
O201 O 0.34415 0.94416 0.16403 0.0
H202 H 0.30428 0.91054 0.31807 0.0
H203 H 0.2939 0.94347 0.19616 0.0
O204 O 0.3515 0.97952 0.31542 0.0
H205 H 0.38258 0.90248 0.27687 0.0
H206 H 0.24871 0.90198 0.21779 0.0
Cu207 Cu 0.38433 0.34061 0.60432 0.0
N208 N 0.41996 0.36421 0.60569 0.0
N209 N 0.45616 0.40302 0.60675 0.0
C210 C 0.43106 0.38942 0.59354 0.0
C211 C 0.46113 0.38573 0.62792 0.0
C212 C 0.43875 0.36174 0.62705 0.0
O213 O 0.37041 0.34639 0.54682 0.0
C214 C 0.35306 0.33079 0.68782 0.0
O215 O 0.33982 0.30641 0.67433 0.0
H216 H 0.42039 0.398 0.57861 0.0
H217 H 0.43601 0.34417 0.64339 0.0
N218 N 0.3776 0.30637 0.60353 0.0
N219 N 0.37634 0.26916 0.62128 0.0
C220 C 0.38555 0.29428 0.63345 0.0
C221 C 0.36281 0.2883 0.57166 0.0
C222 C 0.36202 0.26539 0.58241 0.0
C223 C 0.38204 0.34672 0.50895 0.0
O224 O 0.40238 0.34359 0.51138 0.0
H225 H 0.39744 0.30359 0.66388 0.0
H226 H 0.35328 0.2916 0.54249 0.0
O227 O 0.37077 0.34757 0.66131 0.0
H228 H 0.47928 0.39036 0.64459 0.0
H229 H 0.35204 0.24749 0.56257 0.0
Cu230 Cu 0.04366 0.38302 0.93818 0.0
N231 N 0.05187 0.41755 0.94154 0.0
N232 N 0.04639 0.45208 0.94449 0.0
C233 C 0.03475 0.42602 0.93926 0.0
C234 C 0.0719 0.46022 0.95014 0.0
C235 C 0.0752 0.43885 0.94836 0.0
O236 O 0.02324 0.36895 0.88123 0.0
C237 C 0.02655 0.34924 1.01959 0.0
O238 O 0.03882 0.338 1.00151 0.0
H239 H 0.01416 0.41318 0.93377 0.0
H240 H 0.09326 0.43879 0.95241 0.0
N241 N 0.07448 0.38214 0.93158 0.0
N242 N 0.11255 0.38441 0.94568 0.0
C243 C 0.09195 0.3851 0.9645 0.0
C244 C 0.08442 0.37973 0.8907 0.0
C245 C 0.10772 0.38095 0.89923 0.0
C246 C 0.01924 0.34817 0.86088 0.0
O247 O 0.02612 0.33293 0.88197 0.0
H248 H 0.08979 0.38827 1.00122 0.0
H249 H 0.07545 0.37753 0.85684 0.0
O250 O 0.02547 0.36701 0.99662 0.0
H251 H 0.08707 0.48007 0.95624 0.0
H252 H 0.12003 0.37927 0.87306 0.0
Cu253 Cu 0.66607 0.0496 0.2944 0.0
N254 N 0.63297 0.04298 0.31077 0.0
N255 N 0.58997 0.02585 0.31427 0.0
C256 C 0.61027 0.02883 0.28804 0.0
C257 C 0.60031 0.03869 0.35465 0.0
C258 C 0.62683 0.04928 0.35231 0.0
O259 O 0.66591 0.03809 0.23005 0.0
C260 C 0.66138 0.01382 0.3646 0.0
O261 O 0.63904 0.99846 0.34414 0.0
H262 H 0.60855 0.01994 0.25407 0.0
H263 H 0.64068 0.06009 0.37961 0.0
N264 N 0.68801 0.08548 0.29415 0.0
N265 N 0.72223 0.12503 0.30607 0.0
C266 C 0.71115 0.09937 0.31552 0.0
C267 C 0.68424 0.10282 0.27049 0.0
C268 C 0.7053 0.12724 0.27774 0.0
C269 C 0.66486 0.01758 0.21397 0.0
O270 O 0.66386 1.00003 0.24306 0.0
H271 H 0.71986 0.09073 0.33677 0.0
H272 H 0.66738 0.09796 0.24924 0.0
O273 O 0.67716 0.03537 0.34518 0.0
H274 H 0.5894 0.04002 0.38397 0.0
H275 H 0.70779 0.14523 0.26365 0.0
H276 H 0.37228 0.37468 0.21456 0.0
H277 H 0.33613 0.34511 0.48677 0.0
H278 H 0.29525 0.34887 0.26894 0.0
H279 H 0.40691 0.35488 0.42493 0.0
H280 H 0.32138 0.34878 0.40839 0.0
H281 H 0.38581 0.36934 0.29244 0.0
C282 C 0.35814 0.36771 0.24278 0.0
C283 C 0.33257 0.3622 0.23509 0.0
C284 C 0.34012 0.35009 0.41209 0.0
C285 C 0.34805 0.35635 0.32474 0.0
C286 C 0.3486 0.34812 0.45682 0.0
C287 C 0.37279 0.34968 0.46247 0.0
C288 C 0.35607 0.35388 0.37286 0.0
C289 C 0.38808 0.35349 0.42235 0.0
C290 C 0.36589 0.36469 0.28732 0.0
C291 C 0.31513 0.35326 0.27315 0.0
N292 N 0.37951 0.35552 0.37941 0.0
N293 N 0.32323 0.35078 0.31637 0.0
H294 H 0.99302 0.37085 0.57081 0.0
H295 H 0.00908 0.30626 0.80528 0.0
H296 H 0.97777 0.29188 0.57686 0.0
H297 H 0.01145 0.38001 0.80196 0.0
H298 H 0.99974 0.30126 0.72117 0.0
H299 H 1.00315 0.37562 0.65437 0.0
C300 C 0.99208 0.35457 0.58952 0.0
C301 C 0.98446 0.33089 0.56657 0.0
C302 C 1.00218 0.31847 0.73892 0.0
C303 C 0.99584 0.33618 0.66281 0.0
C304 C 0.00742 0.32131 0.78703 0.0
C305 C 0.01103 0.34358 0.81094 0.0
C306 C 1.00072 0.33814 0.71428 0.0
C307 C 0.00875 0.36246 0.78521 0.0
C308 C 0.9977 0.35727 0.63742 0.0
C309 C 0.98352 0.3105 0.59295 0.0
N310 N 1.00389 0.35937 0.73838 0.0
N311 N 0.98906 0.31359 0.6396 0.0
H312 H 0.64925 0.02945 0.91464 0.0
H313 H 0.66354 0.97686 0.16473 0.0
H314 H 0.65839 0.96229 0.9302 0.0
H315 H 0.66503 0.04953 0.14479 0.0
H316 H 0.66188 0.97101 0.07938 0.0
H317 H 0.65578 0.0373 0.99888 0.0
C318 C 0.65292 0.01649 0.93566 0.0
C319 C 0.65325 0.99516 0.9151 0.0
C320 C 0.6627 0.98829 0.09373 0.0
C321 C 0.66036 1.00383 1.01226 0.0
C322 C 0.6636 0.99162 0.14252 0.0
C323 C 0.66437 0.0137 0.16223 0.0
C324 C 0.66244 0.00709 0.06429 0.0
C325 C 0.66441 0.03216 0.13146 0.0
C326 C 0.65659 0.02096 0.98391 0.0
C327 C 0.65808 0.97905 0.94436 0.0
N328 N 0.66335 0.02838 0.08428 0.0
N329 N 0.6612 0.98358 0.99142 0.0
H330 H 0.63773 0.63028 0.23612 0.0
H331 H 0.69861 0.70982 0.47357 0.0
H332 H 0.7165 0.69432 0.24547 0.0
H333 H 0.62624 0.63697 0.46751 0.0
H334 H 0.7047 0.70623 0.38949 0.0
H335 H 0.63196 0.63489 0.3197 0.0
C336 C 0.65376 0.64552 0.25557 0.0
C337 C 0.67768 0.66192 0.23354 0.0
C338 C 0.68756 0.69098 0.40663 0.0
C339 C 0.67121 0.66714 0.32978 0.0
C340 C 0.68409 0.69297 0.4547 0.0
C341 C 0.66188 0.67365 0.47782 0.0
C342 C 0.66858 0.66964 0.38124 0.0
C343 C 0.64371 0.65231 0.45136 0.0
C344 C 0.65048 0.64801 0.30347 0.0
C345 C 0.69772 0.68122 0.26085 0.0
N346 N 0.64739 0.65096 0.40456 0.0
N347 N 0.69405 0.68327 0.30749 0.0
H348 H 0.97363 0.68033 0.78401 0.0
H349 H 0.05111 0.63607 0.61134 0.0
H350 H 0.00762 0.63423 0.8261 0.0
H351 H 0.01701 0.68126 0.56437 0.0
H352 H 0.03554 0.63604 0.69018 0.0
H353 H 0.99015 0.68234 0.70436 0.0
C354 C 0.98478 0.67084 0.77672 0.0
C355 C 0.9892 0.65706 0.81202 0.0
C356 C 0.03137 0.64597 0.66279 0.0
C357 C 0.00796 0.6591 0.72056 0.0
C358 C 0.04025 0.64597 0.61749 0.0
C359 C 0.03542 0.65872 0.58088 0.0
C360 C 0.01746 0.65884 0.67214 0.0
C361 C 0.02114 0.67113 0.59139 0.0
C362 C 0.99409 0.67191 0.7311 0.0
C363 C 1.00369 0.64509 0.80023 0.0
N364 N 0.01271 0.67093 0.63608 0.0
N365 N 0.01243 0.64632 0.75563 0.0
H366 H 0.35423 0.01595 0.1411 0.0
H367 H 0.38187 0.00709 0.86803 0.0
H368 H 0.35509 0.95038 0.07759 0.0
H369 H 0.36747 0.0661 0.92504 0.0
H370 H 0.37375 0.98702 0.94551 0.0
H371 H 0.36113 0.03596 0.06327 0.0
C372 C 0.35593 0.0058 0.11091 0.0
C373 C 0.35405 0.98143 0.11597 0.0
C374 C 0.37224 0.00429 0.94105 0.0
C375 C 0.36196 0.00417 0.02691 0.0
C376 C 0.37684 0.01576 0.89673 0.0
C377 C 0.37532 0.03832 0.88986 0.0
C378 C 0.36626 0.01555 0.97905 0.0
C379 C 0.36879 0.04868 0.92856 0.0
C380 C 0.35977 0.01717 0.06647 0.0
C381 C 0.35633 0.96914 0.07551 0.0
N382 N 0.36464 0.03731 0.97147 0.0
N383 N 0.36021 0.98064 0.03289 0.0
H384 H 0.11741 0.37674 0.03847 0.0
H385 H 0.2618 0.4011 1.00714 0.0
H386 H 0.15983 0.39843 0.90758 0.0
H387 H 0.22613 0.39422 0.14236 0.0
H388 H 0.2231 0.39704 0.96975 0.0
H389 H 0.15588 0.38074 0.07716 0.0
C390 C 0.13476 0.38247 1.01783 0.0
C391 C 0.13518 0.38711 0.96949 0.0
C392 C 0.22371 0.39643 1.00762 0.0
C393 C 0.17921 0.39137 1.01356 0.0
C394 C 0.24575 0.39855 0.02898 0.0
C395 C 0.24722 0.39799 0.07798 0.0
C396 C 0.20283 0.39353 0.03538 0.0
C397 C 0.22594 0.39504 0.10452 0.0
C398 C 0.1567 0.38463 0.03995 0.0
C399 C 0.15825 0.39416 0.94462 0.0
N400 N 0.20459 0.39285 0.08289 0.0
N401 N 0.17924 0.396 0.96688 0.0
H402 H 0.85406 0.22419 0.47751 0.0
H403 H 0.75352 0.17169 0.26444 0.0
H404 H 0.86427 0.26861 0.35204 0.0
H405 H 0.74736 0.12591 0.38595 0.0
H406 H 0.79441 0.20711 0.29481 0.0
H407 H 0.81548 0.18767 0.44333 0.0
C408 C 0.84816 0.22627 0.44272 0.0
C409 C 0.86228 0.2496 0.41778 0.0
C410 C 0.78416 0.18927 0.31473 0.0
C411 C 0.81805 0.2077 0.37818 0.0
C412 C 0.7607 0.16908 0.29756 0.0
C413 C 0.74684 0.14577 0.32278 0.0
C414 C 0.79383 0.18625 0.35761 0.0
C415 C 0.75741 0.14338 0.36509 0.0
C416 C 0.82618 0.20534 0.42309 0.0
C417 C 0.85402 0.25097 0.37241 0.0
N418 N 0.78016 0.16339 0.38125 0.0
N419 N 0.83232 0.23037 0.35419 0.0
H420 H 0.63356 0.84467 0.82052 0.0
H421 H 0.60054 0.76142 0.58414 0.0
H422 H 0.60704 0.86353 0.69408 0.0
H423 H 0.63561 0.74782 0.70485 0.0
H424 H 0.60092 0.79759 0.62518 0.0
H425 H 0.63241 0.80781 0.78021 0.0
C426 C 0.62735 0.841 0.78435 0.0
C427 C 0.62033 0.85725 0.76072 0.0
C428 C 0.60854 0.7867 0.64272 0.0
C429 C 0.61914 0.81509 0.71415 0.0
C430 C 0.60845 0.76605 0.61919 0.0
C431 C 0.61823 0.75152 0.64083 0.0
C432 C 0.6184 0.79295 0.68844 0.0
C433 C 0.62767 0.75824 0.68681 0.0
C434 C 0.62684 0.82001 0.76125 0.0
C435 C 0.61287 0.85174 0.71356 0.0
N436 N 0.62756 0.77847 0.70901 0.0
N437 N 0.61241 0.8311 0.6919 0.0
H438 H 0.76539 0.59975 0.13294 0.0
H439 H 0.85026 0.62849 0.89947 0.0
H440 H 0.75404 0.63542 1.01057 0.0
H441 H 0.8703 0.60845 0.03184 0.0
H442 H 0.813 0.62818 0.9372 0.0
H443 H 0.80195 0.59992 0.09413 0.0
C444 C 0.77059 0.60779 0.09803 0.0
C445 C 0.75657 0.61781 0.07532 0.0
C446 C 0.8256 0.62391 0.95798 0.0
C447 C 0.79849 0.61765 0.03014 0.0
C448 C 0.84678 0.62395 0.93642 0.0
C449 C 0.86345 0.61851 0.96255 0.0
C450 C 0.8209 0.61814 1.00593 0.0
C451 C 0.85819 0.61306 1.01046 0.0
C452 C 0.79149 0.60776 0.07575 0.0
C453 C 0.76405 0.62732 0.02946 0.0
N454 N 0.83734 0.61292 0.03053 0.0
N455 N 0.7845 0.62703 1.00841 0.0
H456 H 0.13639 0.74935 0.33958 0.0
H457 H 0.26796 0.88601 0.36839 0.0
H458 H 0.17332 0.78009 0.4729 0.0
H459 H 0.22725 0.85769 0.23742 0.0
H460 H 0.23442 0.84668 0.40705 0.0
H461 H 0.1701 0.78851 0.30141 0.0
C462 C 0.15145 0.76434 0.36097 0.0
C463 C 0.15188 0.76128 0.40968 0.0
C464 C 0.23283 0.8491 0.36985 0.0
C465 C 0.1909 0.80622 0.3659 0.0
C466 C 0.25207 0.8715 0.3477 0.0
C467 C 0.25043 0.87526 0.29957 0.0
C468 C 0.21183 0.83023 0.34366 0.0
C469 C 0.22916 0.85586 0.27467 0.0
C470 C 0.17083 0.78669 0.33905 0.0
C471 C 0.17227 0.78133 0.43527 0.0
N472 N 0.21076 0.83423 0.29696 0.0
N473 N 0.19093 0.8029 0.4131 0.0
H474 H 0.36917 0.12716 0.70927 0.0
H475 H 0.41811 0.27849 0.67419 0.0
H476 H 0.4435 0.18879 0.75742 0.0
H477 H 0.34566 0.21663 0.61997 0.0
H478 H 0.42672 0.24601 0.70888 0.0
H479 H 0.35948 0.15972 0.67912 0.0
C480 C 0.38353 0.1475 0.71337 0.0
C481 C 0.40725 0.15514 0.73587 0.0
C482 C 0.40891 0.23955 0.68946 0.0
C483 C 0.39611 0.19266 0.7018 0.0
C484 C 0.4039 0.25811 0.6699 0.0
C485 C 0.38119 0.25032 0.64385 0.0
C486 C 0.39104 0.21298 0.68307 0.0
C487 C 0.36363 0.22357 0.63903 0.0
C488 C 0.3779 0.16612 0.69637 0.0
C489 C 0.42486 0.18189 0.74084 0.0
N490 N 0.36894 0.20591 0.65834 0.0
N491 N 0.41896 0.19964 0.72387 0.0
H492 H 0.3862 0.37539 0.73448 0.0
H493 H 0.30696 0.3442 0.97387 0.0
H494 H 0.31418 0.30301 0.75231 0.0
H495 H 0.39064 0.38977 0.96536 0.0
H496 H 0.30586 0.33266 0.89054 0.0
H497 H 0.3843 0.38566 0.81669 0.0
C498 C 0.36978 0.36176 0.75548 0.0
C499 C 0.35036 0.33821 0.73638 0.0
C500 C 0.32439 0.34506 0.90721 0.0
C501 C 0.34814 0.34997 0.83088 0.0
C502 C 0.32506 0.35165 0.95463 0.0
C503 C 0.34894 0.36792 0.9767 0.0
C504 C 0.34772 0.35534 0.8816 0.0
C505 C 0.37179 0.37707 0.95004 0.0
C506 C 0.36884 0.36758 0.80256 0.0
C507 C 0.32963 0.32132 0.76561 0.0
N508 N 0.37058 0.37088 0.90392 0.0
N509 N 0.32902 0.32754 0.81148 0.0
H510 H 0.98166 0.36459 0.30132 0.0
H511 H 0.02293 0.31095 0.07855 0.0
H512 H 0.97821 0.29031 0.30156 0.0
H513 H 0.00773 0.37468 0.07292 0.0
H514 H 0.00919 0.30406 0.16099 0.0
H515 H 0.99449 0.36998 0.21899 0.0
C516 C 0.98372 0.34942 0.28419 0.0
C517 C 0.9788 0.32692 0.30864 0.0
C518 C 0.00874 0.31945 0.14157 0.0
C519 C 0.99354 0.33303 0.2137 0.0
C520 C 0.01656 0.32339 0.09446 0.0
C521 C 0.0165 0.34343 0.06856 0.0
C522 C 1.00107 0.33584 0.1632 0.0
C523 C 0.00807 0.35894 0.09125 0.0
C524 C 0.99094 0.35248 0.23696 0.0
C525 C 0.98176 0.30797 0.28422 0.0
N526 N 1.00088 0.35492 0.13717 0.0
N527 N 0.98898 0.31147 0.23817 0.0
H528 H 0.67786 0.0324 0.66428 0.0
H529 H 0.63702 0.96751 0.41171 0.0
H530 H 0.64208 0.94968 0.64203 0.0
H531 H 0.69377 0.04854 0.43085 0.0
H532 H 0.63847 0.96059 0.49588 0.0
H533 H 0.68364 0.03899 0.57931 0.0
C534 C 0.67142 0.01563 0.64164 0.0
C535 C 0.65939 0.99043 0.66054 0.0
C536 C 0.65089 0.97982 0.48163 0.0
C537 C 0.66566 0.99785 0.56296 0.0
C538 C 0.6501 0.98378 0.43349 0.0
C539 C 0.66531 0.00864 0.41402 0.0
C540 C 0.66662 1.00096 0.51094 0.0
C541 C 0.68181 0.02901 0.44416 0.0
C542 C 0.67477 0.01942 0.59308 0.0
C543 C 0.65147 0.96947 0.62925 0.0
N544 N 0.68176 0.0248 0.49112 0.0
N545 N 0.65447 0.97363 0.58215 0.0
H546 H 0.69774 0.71914 0.74203 0.0
H547 H 0.64406 0.62842 0.96872 0.0
H548 H 0.63385 0.64009 0.73985 0.0
H549 H 0.72076 0.69623 0.96467 0.0
H550 H 0.63834 0.63519 0.88648 0.0
H551 H 0.70533 0.71347 0.82461 0.0
C552 C 0.68544 0.70056 0.75871 0.0
C553 C 0.66512 0.68006 0.73378 0.0
C554 C 0.65644 0.64863 0.9035 0.0
C555 C 0.67346 0.67363 0.82843 0.0
C556 C 0.65968 0.64487 0.95068 0.0
C557 C 0.68297 0.66177 0.97386 0.0
C558 C 0.67648 0.6696 0.87901 0.0
C559 C 0.7025 0.68268 0.94828 0.0
C560 C 0.68978 0.69736 0.80586 0.0
C561 C 0.64978 0.65644 0.7574 0.0
N562 N 0.6988 0.68605 0.90226 0.0
N563 N 0.65415 0.65397 0.8033 0.0
H564 H 0.05966 0.69333 0.29682 0.0
H565 H 0.95551 0.64217 0.08909 0.0
H566 H 0.97849 0.63758 0.31875 0.0
H567 H 0.03673 0.66798 0.06684 0.0
H568 H 0.96369 0.64921 0.17352 0.0
H569 H 0.05133 0.69296 0.21274 0.0
C570 C 0.04 0.68132 0.28413 0.0
C571 C 0.01975 0.66535 0.31499 0.0
C572 C 0.97974 0.65356 0.15004 0.0
C573 C 0.01013 0.66498 0.21865 0.0
C574 C 0.97515 0.64972 0.10181 0.0
C575 C 0.99547 0.6544 0.07076 0.0
C576 C 1.00491 0.66259 0.16738 0.0
C577 C 0.02047 0.66399 0.08944 0.0
C578 C 0.03532 0.68102 0.23606 0.0
C579 C 0.99471 0.65009 0.29629 0.0
N580 N 0.02448 0.66777 0.13647 0.0
N581 N 0.9906 0.65027 0.24939 0.0
H582 H 0.31146 0.99885 0.40441 0.0
H583 H 0.39584 0.99946 0.62041 0.0
H584 H 0.37755 0.98767 0.3904 0.0
H585 H 0.35704 0.0444 0.62454 0.0
H586 H 0.38355 0.98914 0.53847 0.0
H587 H 0.32301 0.01093 0.48705 0.0
C588 C 0.32847 0.99911 0.41853 0.0
C589 C 0.34357 0.99225 0.39031 0.0
C590 C 0.37767 1.00123 0.55727 0.0
C591 C 0.35647 0.00547 0.48481 0.0
C592 C 0.38451 0.007 0.60426 0.0
C593 C 0.37751 0.02289 0.62954 0.0
C594 C 0.36334 0.01103 0.5352 0.0
C595 C 0.3629 0.03213 0.60638 0.0
C596 C 0.33502 0.006 0.46563 0.0
C597 C 0.36538 0.9929 0.41058 0.0
N598 N 0.35619 0.02599 0.5605 0.0
N599 N 0.37098 0.99909 0.45657 0.0
H600 H 0.43724 0.44013 0.10951 0.0
H601 H 0.56843 0.57646 0.08089 0.0
H602 H 0.43914 0.51264 0.0842 0.0
H603 H 0.56668 0.50597 0.12353 0.0
H604 H 0.52114 0.5532 0.08076 0.0
H605 H 0.48452 0.46368 0.11399 0.0
C606 C 0.44748 0.46101 0.10532 0.0
C607 C 0.43399 0.47435 0.09642 0.0
C608 C 0.53109 0.54282 0.09027 0.0
C609 C 0.48842 0.50146 0.10078 0.0
C610 C 0.5582 0.55616 0.09061 0.0
C611 C 0.57177 0.54326 0.1024 0.0
C612 C 0.51728 0.5163 0.10161 0.0
C613 C 0.55719 0.51672 0.1137 0.0
C614 C 0.47458 0.47445 0.10761 0.0
C615 C 0.44859 0.50143 0.09048 0.0
N616 N 0.53077 0.50413 0.11298 0.0
N617 N 0.47497 0.51405 0.09265 0.0
H618 H 0.07257 0.57009 0.44464 0.0
H619 H 0.93492 0.43977 0.41773 0.0
H620 H 1.00136 0.56993 0.41519 0.0
H621 H 1.00517 0.44144 0.4615 0.0
H622 H 0.95875 0.48723 0.41511 0.0
H623 H 0.04818 0.52277 0.44854 0.0
C624 C 0.05181 0.56011 0.43873 0.0
C625 C 0.03903 0.57406 0.42941 0.0
C626 C 0.96892 0.47717 0.42532 0.0
C627 C 0.01083 0.5197 0.43424 0.0
C628 C 0.95528 0.45002 0.42704 0.0
C629 C 0.96799 0.4364 0.43972 0.0
C630 C 0.99551 0.49087 0.43627 0.0
C631 C 0.99456 0.45091 0.45078 0.0
C632 C 0.03784 0.53305 0.44127 0.0
C633 C 0.01198 0.56002 0.4229 0.0
N634 N 0.00739 0.47727 0.44873 0.0
N635 N 0.9988 0.53361 0.42528 0.0
H636 H 0.58062 1.00219 0.73511 0.0
H637 H 0.4504 0.00705 0.77898 0.0
H638 H 0.51621 0.94554 0.81824 0.0
H639 H 0.52133 0.07228 0.7263 0.0
H640 H 0.47327 0.98303 0.78904 0.0
H641 H 0.55815 0.02676 0.72651 0.0
C642 C 0.56186 0.99486 0.75177 0.0
C643 C 0.55046 0.97161 0.77761 0.0
C644 C 0.48383 1.00264 0.77538 0.0
C645 C 0.5244 0.99968 0.76719 0.0
C646 C 0.47079 0.01652 0.76982 0.0
C647 C 0.48383 0.04191 0.75167 0.0
C648 C 0.51009 0.01406 0.76243 0.0
C649 C 0.51025 0.05272 0.73977 0.0
C650 C 0.54899 0.00894 0.74666 0.0
C651 C 0.52579 0.96307 0.79754 0.0
N652 N 0.52245 0.03873 0.74521 0.0
N653 N 0.51362 0.97707 0.79186 0.0
H654 H 0.5317 0.56266 0.6896 0.0
H655 H 0.46211 0.43533 0.53539 0.0
H656 H 0.54873 0.56573 0.54206 0.0
H657 H 0.48658 0.43389 0.67665 0.0
H658 H 0.48781 0.48316 0.5367 0.0
H659 H 0.50842 0.51501 0.68575 0.0
C660 C 0.53032 0.55322 0.65635 0.0
C661 C 0.542 0.56798 0.61603 0.0
C662 C 0.48768 0.4723 0.5672 0.0
C663 C 0.51537 0.51376 0.61128 0.0
C664 C 0.47304 0.44516 0.56649 0.0
C665 C 0.47245 0.43082 0.60586 0.0
C666 C 0.50112 0.48507 0.60807 0.0
C667 C 0.48684 0.4443 0.64545 0.0
C668 C 0.51727 0.52614 0.65424 0.0
C669 C 0.54 0.55491 0.57385 0.0
N670 N 0.50034 0.47072 0.6458 0.0
N671 N 0.52667 0.52846 0.57239 0.0
H672 H 0.93505 0.50443 0.95866 0.0
H673 H 0.06886 0.5042 0.92903 0.0
H674 H 0.00982 0.57451 0.94806 0.0
H675 H 0.9954 0.4359 0.96184 0.0
H676 H 0.04745 0.53013 0.93131 0.0
H677 H 0.95669 0.47887 0.95501 0.0
C678 C 0.95601 0.51452 0.95579 0.0
C679 C 0.97056 0.54178 0.95391 0.0
C680 C 0.03605 0.50945 0.93797 0.0
C681 C 0.99554 0.51243 0.94908 0.0
C682 C 0.04829 0.4946 0.93689 0.0
C683 C 0.034 0.4677 0.94523 0.0
C684 C 0.00927 0.49735 0.9473 0.0
C685 C 0.00725 0.45642 0.9545 0.0
C686 C 0.96837 0.49985 0.95348 0.0
C687 C 0.9977 0.55361 0.94918 0.0
N688 N 0.99581 0.47127 0.95527 0.0
N689 N 0.00929 0.53887 0.94698 0.0
H690 H 0.55089 0.99546 0.37326 0.0
H691 H 0.43911 0.97978 0.20412 0.0
H692 H 0.56721 0.02233 0.23041 0.0
H693 H 0.42485 0.92696 0.31831 0.0
H694 H 0.48604 0.99769 0.21419 0.0
H695 H 0.50437 0.97224 0.35568 0.0
C696 C 0.54459 0.99639 0.33814 0.0
C697 C 0.56277 0.01091 0.30326 0.0
C698 C 0.47261 0.98196 0.23662 0.0
C699 C 0.50969 0.98461 0.28293 0.0
C700 C 0.44591 0.97186 0.23104 0.0
C701 C 0.42817 0.95195 0.26052 0.0
C702 C 0.48158 0.97245 0.27262 0.0
C703 C 0.43789 0.94217 0.29467 0.0
C704 C 0.5181 0.98303 0.32803 0.0
C705 C 0.55371 0.01126 0.25813 0.0
N706 N 0.46396 0.95277 0.30023 0.0
N707 N 0.52772 0.99859 0.24935 0.0
loop_
_geom_bond_atom_site_label_1
_geom_bond_atom_site_label_2
_geom_bond_distance
_geom_bond_site_symmetry_2
_ccdc_geom_bond_type
Cu0 N1 1.999 . S
Cu0 O6 1.974 . S
Cu0 N11 1.985 . S
Cu0 O20 1.959 . S
N1 Cu0 1.999 . S
N1 C3 1.263 . S
N1 C5 1.389 . S
N2 C3 1.358 . S
N2 C4 1.400 . S
C3 N1 1.263 . S
C3 N2 1.358 . S
C3 H9 0.930 . S
C4 N2 1.400 . S
C4 C5 1.351 . S
C4 H21 0.930 . S
C5 N1 1.389 . S
C5 C4 1.351 . S
C5 H10 0.930 . S
O6 Cu0 1.974 . S
O6 C16 1.282 . S
C7 O8 1.261 1_556 S
C7 O20 1.251 1_556 S
O8 C7 1.261 1_554 S
H9 C3 0.930 . S
H10 C5 0.930 . S
N11 Cu0 1.985 . S
N11 C13 1.335 . S
N11 C14 1.390 . S
N12 C13 1.345 . S
N12 C15 1.336 . S
C13 N11 1.335 . S
C13 N12 1.345 . S
C13 H18 0.930 . S
C14 N11 1.390 . S
C14 C15 1.346 . S
C14 H19 0.930 . S
C15 N12 1.336 . S
C15 C14 1.346 . S
C15 H22 0.929 . S
C16 O6 1.282 . S
C16 O17 1.216 . S
O17 C16 1.216 . S
H18 C13 0.930 . S
H19 C14 0.930 . S
O20 Cu0 1.959 . S
O20 C7 1.251 1_554 S
H21 C4 0.930 . S
H22 C15 0.929 . S
Cu23 N24 1.999 . S
Cu23 O29 1.974 . S
Cu23 N34 1.985 . S
Cu23 O43 1.959 . S
N24 Cu23 1.999 . S
N24 C26 1.263 . S
N24 C28 1.389 . S
N25 C26 1.358 1_455 S
N25 C27 1.400 1_455 S
C26 N24 1.263 . S
C26 N25 1.358 1_655 S
C26 H32 0.930 1_655 S
C27 N25 1.400 1_655 S
C27 C28 1.351 . S
C27 H44 0.930 . S
C28 N24 1.389 . S
C28 C27 1.351 . S
C28 H33 0.930 . S
O29 Cu23 1.974 . S
O29 C39 1.282 . S
C30 O31 1.261 . S
C30 O43 1.251 . S
O31 C30 1.261 . S
H32 C26 0.930 1_455 S
H33 C28 0.930 . S
N34 Cu23 1.985 . S
N34 C36 1.335 . S
N34 C37 1.390 . S
N35 C36 1.345 . S
N35 C38 1.336 . S
C36 N34 1.335 . S
C36 N35 1.345 . S
C36 H41 0.930 . S
C37 N34 1.390 . S
C37 C38 1.346 . S
C37 H42 0.930 . S
C38 N35 1.336 . S
C38 C37 1.346 . S
C38 H45 0.929 . S
C39 O29 1.282 . S
C39 O40 1.216 . S
O40 C39 1.216 . S
H41 C36 0.930 . S
H42 C37 0.930 . S
O43 Cu23 1.959 . S
O43 C30 1.251 . S
H44 C27 0.930 . S
H45 C38 0.929 . S
Cu46 N47 1.999 . S
Cu46 O52 1.974 . S
Cu46 N57 1.985 . S
Cu46 O66 1.959 . S
N47 Cu46 1.999 . S
N47 C49 1.263 . S
N47 C51 1.389 . S
N48 C49 1.358 1_545 S
N48 C50 1.400 1_545 S
C49 N47 1.263 . S
C49 N48 1.358 1_565 S
C49 H55 0.930 1_565 S
C50 N48 1.400 1_565 S
C50 C51 1.351 . S
C50 H67 0.930 . S
C51 N47 1.389 . S
C51 C50 1.351 . S
C51 H56 0.930 . S
O52 Cu46 1.974 . S
O52 C62 1.282 . S
C53 O54 1.261 . S
C53 O66 1.251 . S
O54 C53 1.261 . S
H55 C49 0.930 1_545 S
H56 C51 0.930 . S
N57 Cu46 1.985 . S
N57 C59 1.335 . S
N57 C60 1.390 . S
N58 C59 1.345 . S
N58 C61 1.336 . S
C59 N57 1.335 . S
C59 N58 1.345 . S
C59 H64 0.930 . S
C60 N57 1.390 . S
C60 C61 1.346 . S
C60 H65 0.930 . S
C61 N58 1.336 . S
C61 C60 1.346 . S
C61 H68 0.929 . S
C62 O52 1.282 . S
C62 O63 1.216 . S
O63 C62 1.216 . S
H64 C59 0.930 . S
H65 C60 0.930 . S
O66 Cu46 1.959 . S
O66 C53 1.251 . S
H67 C50 0.930 . S
H68 C61 0.929 . S
Cu69 N70 1.999 . S
Cu69 O75 1.974 . S
Cu69 N80 1.985 . S
Cu69 O89 1.959 . S
N70 Cu69 1.999 . S
N70 C72 1.263 . S
N70 C74 1.389 . S
N71 C72 1.358 . S
N71 C73 1.400 . S
C72 N70 1.263 . S
C72 N71 1.358 . S
C72 H78 0.930 . S
C73 N71 1.400 . S
C73 C74 1.351 . S
C73 H90 0.930 . S
C74 N70 1.389 . S
C74 C73 1.351 . S
C74 H79 0.930 . S
O75 Cu69 1.974 . S
O75 C85 1.282 . S
C76 O77 1.261 1_556 S
C76 O89 1.251 1_556 S
O77 C76 1.261 1_554 S
H78 C72 0.930 . S
H79 C74 0.930 . S
N80 Cu69 1.985 . S
N80 C82 1.335 . S
N80 C83 1.390 . S
N81 C82 1.345 . S
N81 C84 1.336 . S
C82 N80 1.335 . S
C82 N81 1.345 . S
C82 H87 0.930 . S
C83 N80 1.390 . S
C83 C84 1.346 . S
C83 H88 0.930 . S
C84 N81 1.336 . S
C84 C83 1.346 . S
C84 H91 0.929 . S
C85 O75 1.282 . S
C85 O86 1.216 . S
O86 C85 1.216 . S
H87 C82 0.930 . S
H88 C83 0.930 . S
O89 Cu69 1.959 . S
O89 C76 1.251 1_554 S
H90 C73 0.930 . S
H91 C84 0.929 . S
Cu92 N93 1.999 . S
Cu92 O98 1.974 . S
Cu92 N103 1.985 . S
Cu92 O112 1.959 . S
N93 Cu92 1.999 . S
N93 C95 1.263 . S
N93 C97 1.389 . S
N94 C95 1.358 1_655 S
N94 C96 1.400 1_655 S
C95 N93 1.263 . S
C95 N94 1.358 1_455 S
C95 H101 0.930 1_455 S
C96 N94 1.400 1_455 S
C96 C97 1.351 . S
C96 H113 0.930 . S
C97 N93 1.389 . S
C97 C96 1.351 . S
C97 H102 0.930 . S
O98 Cu92 1.974 . S
O98 C108 1.282 . S
C99 O100 1.261 . S
C99 O112 1.251 . S
O100 C99 1.261 . S
H101 C95 0.930 1_655 S
H102 C97 0.930 . S
N103 Cu92 1.985 . S
N103 C105 1.335 . S
N103 C106 1.390 . S
N104 C105 1.345 . S
N104 C107 1.336 . S
C105 N103 1.335 . S
C105 N104 1.345 . S
C105 H110 0.930 . S
C106 N103 1.390 . S
C106 C107 1.346 . S
C106 H111 0.930 . S
C107 N104 1.336 . S
C107 C106 1.346 . S
C107 H114 0.929 . S
C108 O98 1.282 . S
C108 O109 1.216 . S
O109 C108 1.216 . S
H110 C105 0.930 . S
H111 C106 0.930 . S
O112 Cu92 1.959 . S
O112 C99 1.251 . S
H113 C96 0.930 . S
H114 C107 0.929 . S
Cu115 N116 1.999 . S
Cu115 O121 1.974 . S
Cu115 N126 1.985 . S
Cu115 O135 1.959 . S
N116 Cu115 1.999 . S
N116 C118 1.263 . S
N116 C120 1.389 . S
N117 C118 1.358 1_565 S
N117 C119 1.400 1_565 S
C118 N116 1.263 . S
C118 N117 1.358 1_545 S
C118 H124 0.930 1_545 S
C119 N117 1.400 1_545 S
C119 C120 1.351 . S
C119 H136 0.930 . S
C120 N116 1.389 . S
C120 C119 1.351 . S
C120 H125 0.930 . S
O121 Cu115 1.974 . S
O121 C131 1.282 . S
C122 O123 1.261 . S
C122 O135 1.251 . S
O123 C122 1.261 . S
H124 C118 0.930 1_565 S
H125 C120 0.930 . S
N126 Cu115 1.985 . S
N126 C128 1.335 . S
N126 C129 1.390 . S
N127 C128 1.345 . S
N127 C130 1.336 . S
C128 N126 1.335 . S
C128 N127 1.345 . S
C128 H133 0.930 . S
C129 N126 1.390 . S
C129 C130 1.346 . S
C129 H134 0.930 . S
C130 N127 1.336 . S
C130 C129 1.346 . S
C130 H137 0.929 . S
C131 O121 1.282 . S
C131 O132 1.216 . S
O132 C131 1.216 . S
H133 C128 0.930 . S
H134 C129 0.930 . S
O135 Cu115 1.959 . S
O135 C122 1.251 . S
H136 C119 0.930 . S
H137 C130 0.929 . S
Cu138 N139 1.999 . S
Cu138 O144 1.974 . S
Cu138 N149 1.985 . S
Cu138 O158 1.959 . S
N139 Cu138 1.999 . S
N139 C141 1.263 . S
N139 C143 1.389 . S
N140 C141 1.358 . S
N140 C142 1.400 . S
C141 N139 1.263 . S
C141 N140 1.358 . S
C141 H147 0.930 . S
C142 N140 1.400 . S
C142 C143 1.351 . S
C142 H159 0.930 . S
C143 N139 1.389 . S
C143 C142 1.351 . S
C143 H148 0.930 . S
O144 Cu138 1.974 . S
O144 C154 1.282 . S
C145 O146 1.261 . S
C145 O158 1.251 . S
O146 C145 1.261 . S
H147 C141 0.930 . S
H148 C143 0.930 . S
N149 Cu138 1.985 . S
N149 C151 1.335 . S
N149 C152 1.390 . S
N150 C151 1.345 . S
N150 C153 1.336 . S
C151 N149 1.335 . S
C151 N150 1.345 . S
C151 H156 0.930 . S
C152 N149 1.390 . S
C152 C153 1.346 . S
C152 H157 0.930 . S
C153 N150 1.336 . S
C153 C152 1.346 . S
C153 H160 0.929 . S
C154 O144 1.282 . S
C154 O155 1.216 . S
O155 C154 1.216 . S
H156 C151 0.930 . S
H157 C152 0.930 . S
O158 Cu138 1.959 . S
O158 C145 1.251 . S
H159 C142 0.930 . S
H160 C153 0.929 . S
Cu161 N162 1.999 . S
Cu161 O167 1.974 . S
Cu161 N172 1.985 . S
Cu161 O181 1.959 . S
N162 Cu161 1.999 . S
N162 C164 1.263 . S
N162 C166 1.389 . S
N163 C164 1.358 1_455 S
N163 C165 1.400 1_455 S
C164 N162 1.263 . S
C164 N163 1.358 1_655 S
C164 H170 0.930 1_655 S
C165 N163 1.400 1_655 S
C165 C166 1.351 . S
C165 H182 0.930 . S
C166 N162 1.389 . S
C166 C165 1.351 . S
C166 H171 0.930 . S
O167 Cu161 1.974 . S
O167 C177 1.282 . S
C168 O169 1.261 1_554 S
C168 O181 1.251 1_554 S
O169 C168 1.261 1_556 S
H170 C164 0.930 1_455 S
H171 C166 0.930 . S
N172 Cu161 1.985 . S
N172 C174 1.335 . S
N172 C175 1.390 . S
N173 C174 1.345 . S
N173 C176 1.336 . S
C174 N172 1.335 . S
C174 N173 1.345 . S
C174 H179 0.930 . S
C175 N172 1.390 . S
C175 C176 1.346 . S
C175 H180 0.930 . S
C176 N173 1.336 . S
C176 C175 1.346 . S
C176 H183 0.929 . S
C177 O167 1.282 . S
C177 O178 1.216 . S
O178 C177 1.216 . S
H179 C174 0.930 . S
H180 C175 0.930 . S
O181 Cu161 1.959 . S
O181 C168 1.251 1_556 S
H182 C165 0.930 . S
H183 C176 0.929 . S
Cu184 N185 1.999 . S
Cu184 O190 1.974 . S
Cu184 N195 1.985 . S
Cu184 O204 1.959 . S
N185 Cu184 1.999 . S
N185 C187 1.263 . S
N185 C189 1.389 . S
N186 C187 1.358 1_545 S
N186 C188 1.400 1_545 S
C187 N185 1.263 . S
C187 N186 1.358 1_565 S
C187 H193 0.930 1_565 S
C188 N186 1.400 1_565 S
C188 C189 1.351 . S
C188 H205 0.930 . S
C189 N185 1.389 . S
C189 C188 1.351 . S
C189 H194 0.930 . S
O190 Cu184 1.974 . S
O190 C200 1.282 . S
C191 O192 1.261 . S
C191 O204 1.251 . S
O192 C191 1.261 . S
H193 C187 0.930 1_545 S
H194 C189 0.930 . S
N195 Cu184 1.985 . S
N195 C197 1.335 . S
N195 C198 1.390 . S
N196 C197 1.345 . S
N196 C199 1.336 . S
C197 N195 1.335 . S
C197 N196 1.345 . S
C197 H202 0.930 . S
C198 N195 1.390 . S
C198 C199 1.346 . S
C198 H203 0.930 . S
C199 N196 1.336 . S
C199 C198 1.346 . S
C199 H206 0.929 . S
C200 O190 1.282 . S
C200 O201 1.216 . S
O201 C200 1.216 . S
H202 C197 0.930 . S
H203 C198 0.930 . S
O204 Cu184 1.959 . S
O204 C191 1.251 . S
H205 C188 0.930 . S
H206 C199 0.929 . S
Cu207 N208 1.999 . S
Cu207 O213 1.974 . S
Cu207 N218 1.985 . S
Cu207 O227 1.959 . S
N208 Cu207 1.999 . S
N208 C210 1.263 . S
N208 C212 1.389 . S
N209 C210 1.358 . S
N209 C211 1.400 . S
C210 N208 1.263 . S
C210 N209 1.358 . S
C210 H216 0.930 . S
C211 N209 1.400 . S
C211 C212 1.351 . S
C211 H228 0.930 . S
C212 N208 1.389 . S
C212 C211 1.351 . S
C212 H217 0.930 . S
O213 Cu207 1.974 . S
O213 C223 1.282 . S
C214 O215 1.261 . S
C214 O227 1.251 . S
O215 C214 1.261 . S
H216 C210 0.930 . S
H217 C212 0.930 . S
N218 Cu207 1.985 . S
N218 C220 1.335 . S
N218 C221 1.390 . S
N219 C220 1.345 . S
N219 C222 1.336 . S
C220 N218 1.335 . S
C220 N219 1.345 . S
C220 H225 0.930 . S
C221 N218 1.390 . S
C221 C222 1.346 . S
C221 H226 0.930 . S
C222 N219 1.336 . S
C222 C221 1.346 . S
C222 H229 0.929 . S
C223 O213 1.282 . S
C223 O224 1.216 . S
O224 C223 1.216 . S
H225 C220 0.930 . S
H226 C221 0.930 . S
O227 Cu207 1.959 . S
O227 C214 1.251 . S
H228 C211 0.930 . S
H229 C222 0.929 . S
Cu230 N231 1.999 . S
Cu230 O236 1.974 . S
Cu230 N241 1.985 . S
Cu230 O250 1.959 . S
N231 Cu230 1.999 . S
N231 C233 1.263 . S
N231 C235 1.389 . S
N232 C233 1.358 1_655 S
N232 C234 1.400 1_655 S
C233 N231 1.263 . S
C233 N232 1.358 1_455 S
C233 H239 0.930 1_455 S
C234 N232 1.400 1_455 S
C234 C235 1.351 . S
C234 H251 0.930 . S
C235 N231 1.389 . S
C235 C234 1.351 . S
C235 H240 0.930 . S
O236 Cu230 1.974 . S
O236 C246 1.282 . S
C237 O238 1.261 1_554 S
C237 O250 1.251 1_554 S
O238 C237 1.261 1_556 S
H239 C233 0.930 1_655 S
H240 C235 0.930 . S
N241 Cu230 1.985 . S
N241 C243 1.335 . S
N241 C244 1.390 . S
N242 C243 1.345 . S
N242 C245 1.336 . S
C243 N241 1.335 . S
C243 N242 1.345 . S
C243 H248 0.930 . S
C244 N241 1.390 . S
C244 C245 1.346 . S
C244 H249 0.930 . S
C245 N242 1.336 . S
C245 C244 1.346 . S
C245 H252 0.929 . S
C246 O236 1.282 . S
C246 O247 1.216 . S
O247 C246 1.216 . S
H248 C243 0.930 . S
H249 C244 0.930 . S
O250 Cu230 1.959 . S
O250 C237 1.251 1_556 S
H251 C234 0.930 . S
H252 C245 0.929 . S
Cu253 N254 1.999 . S
Cu253 O259 1.974 . S
Cu253 N264 1.985 . S
Cu253 O273 1.959 . S
N254 Cu253 1.999 . S
N254 C256 1.263 . S
N254 C258 1.389 . S
N255 C256 1.358 1_565 S
N255 C257 1.400 1_565 S
C256 N254 1.263 . S
C256 N255 1.358 1_545 S
C256 H262 0.930 1_545 S
C257 N255 1.400 1_545 S
C257 C258 1.351 . S
C257 H274 0.930 . S
C258 N254 1.389 . S
C258 C257 1.351 . S
C258 H263 0.930 . S
O259 Cu253 1.974 . S
O259 C269 1.282 . S
C260 O261 1.261 . S
C260 O273 1.251 . S
O261 C260 1.261 . S
H262 C256 0.930 1_565 S
H263 C258 0.930 . S
N264 Cu253 1.985 . S
N264 C266 1.335 . S
N264 C267 1.390 . S
N265 C266 1.345 . S
N265 C268 1.336 . S
C266 N264 1.335 . S
C266 N265 1.345 . S
C266 H271 0.930 . S
C267 N264 1.390 . S
C267 C268 1.346 . S
C267 H272 0.930 . S
C268 N265 1.336 . S
C268 C267 1.346 . S
C268 H275 0.929 . S
C269 O259 1.282 . S
C269 O270 1.216 . S
O270 C269 1.216 . S
H271 C266 0.930 . S
H272 C267 0.930 . S
O273 Cu253 1.959 . S
O273 C260 1.251 . S
H274 C257 0.930 . S
H275 C268 0.929 . S
H276 C282 0.930 . S
H277 C286 0.930 . S
H278 C291 0.929 . S
H279 C289 0.929 . S
H280 C284 0.929 . S
H281 C290 0.929 . S
C282 H276 0.930 . S
C282 C283 1.367 . S
C282 C290 1.378 . S
C283 C282 1.367 . S
C283 C291 1.433 . S
C284 H280 0.929 . S
C284 C286 1.378 . S
C284 C288 1.350 . S
C285 C288 1.463 . S
C285 C290 1.350 . S
C285 N293 1.427 . S
C286 H277 0.930 . S
C286 C284 1.378 . S
C286 C287 1.367 . S
C287 C286 1.367 . S
C287 C289 1.433 . S
C288 C284 1.350 . S
C288 C285 1.463 . S
C288 N292 1.427 . S
C289 H279 0.929 . S
C289 C287 1.433 . S
C289 N292 1.384 . S
C290 H281 0.929 . S
C290 C282 1.378 . S
C290 C285 1.350 . S
C291 H278 0.929 . S
C291 C283 1.433 . S
C291 N293 1.384 . S
N292 C288 1.427 . S
N292 C289 1.384 . S
N293 C285 1.427 . S
N293 C291 1.384 . S
H294 C300 0.930 . S
H295 C304 0.930 . S
H296 C309 0.929 . S
H297 C307 0.929 . S
H298 C302 0.929 . S
H299 C308 0.929 . S
C300 H294 0.930 . S
C300 C301 1.367 . S
C300 C308 1.378 . S
C301 C300 1.367 . S
C301 C309 1.433 . S
C302 H298 0.929 . S
C302 C304 1.378 . S
C302 C306 1.350 . S
C303 C306 1.463 1_655 S
C303 C308 1.350 . S
C303 N311 1.427 . S
C304 H295 0.930 . S
C304 C302 1.378 . S
C304 C305 1.367 . S
C305 C304 1.367 . S
C305 C307 1.433 . S
C306 C302 1.350 . S
C306 C303 1.463 1_455 S
C306 N310 1.427 . S
C307 H297 0.929 . S
C307 C305 1.433 . S
C307 N310 1.384 . S
C308 H299 0.929 . S
C308 C300 1.378 . S
C308 C303 1.350 . S
C309 H296 0.929 . S
C309 C301 1.433 . S
C309 N311 1.384 . S
N310 C306 1.427 . S
N310 C307 1.384 . S
N311 C303 1.427 . S
N311 C309 1.384 . S
H312 C318 0.930 . S
H313 C322 0.930 . S
H314 C327 0.929 . S
H315 C325 0.929 . S
H316 C320 0.929 . S
H317 C326 0.929 . S
C318 H312 0.930 . S
C318 C319 1.367 1_545 S
C318 C326 1.378 . S
C319 C318 1.367 1_565 S
C319 C327 1.433 . S
C320 H316 0.929 . S
C320 C322 1.378 . S
C320 C324 1.350 1_565 S
C321 C324 1.463 1_566 S
C321 C326 1.350 1_565 S
C321 N329 1.427 . S
C322 H313 0.930 . S
C322 C320 1.378 . S
C322 C323 1.367 1_565 S
C323 C322 1.367 1_545 S
C323 C325 1.433 . S
C324 C320 1.350 1_545 S
C324 C321 1.463 1_544 S
C324 N328 1.427 . S
C325 H315 0.929 . S
C325 C323 1.433 . S
C325 N328 1.384 . S
C326 H317 0.929 . S
C326 C318 1.378 . S
C326 C321 1.350 1_545 S
C327 H314 0.929 . S
C327 C319 1.433 . S
C327 N329 1.384 . S
N328 C324 1.427 . S
N328 C325 1.384 . S
N329 C321 1.427 . S
N329 C327 1.384 . S
H330 C336 0.930 . S
H331 C340 0.930 . S
H332 C345 0.929 . S
H333 C343 0.929 . S
H334 C338 0.929 . S
H335 C344 0.929 . S
C336 H330 0.930 . S
C336 C337 1.367 . S
C336 C344 1.378 . S
C337 C336 1.367 . S
C337 C345 1.433 . S
C338 H334 0.929 . S
C338 C340 1.378 . S
C338 C342 1.350 . S
C339 C342 1.463 . S
C339 C344 1.350 . S
C339 N347 1.427 . S
C340 H331 0.930 . S
C340 C338 1.378 . S
C340 C341 1.367 . S
C341 C340 1.367 . S
C341 C343 1.433 . S
C342 C338 1.350 . S
C342 C339 1.463 . S
C342 N346 1.427 . S
C343 H333 0.929 . S
C343 C341 1.433 . S
C343 N346 1.384 . S
C344 H335 0.929 . S
C344 C336 1.378 . S
C344 C339 1.350 . S
C345 H332 0.929 . S
C345 C337 1.433 . S
C345 N347 1.384 . S
N346 C342 1.427 . S
N346 C343 1.384 . S
N347 C339 1.427 . S
N347 C345 1.384 . S
H348 C354 0.930 . S
H349 C358 0.930 . S
H350 C363 0.929 . S
H351 C361 0.929 . S
H352 C356 0.929 . S
H353 C362 0.929 . S
C354 H348 0.930 . S
C354 C355 1.367 1_455 S
C354 C362 1.378 . S
C355 C354 1.367 1_655 S
C355 C363 1.433 . S
C356 H352 0.929 . S
C356 C358 1.378 . S
C356 C360 1.350 1_655 S
C357 C360 1.463 1_655 S
C357 C362 1.350 1_655 S
C357 N365 1.427 . S
C358 H349 0.930 . S
C358 C356 1.378 . S
C358 C359 1.367 1_655 S
C359 C358 1.367 1_455 S
C359 C361 1.433 . S
C360 C356 1.350 1_455 S
C360 C357 1.463 1_455 S
C360 N364 1.427 . S
C361 H351 0.929 . S
C361 C359 1.433 . S
C361 N364 1.384 . S
C362 H353 0.929 . S
C362 C354 1.378 . S
C362 C357 1.350 1_455 S
C363 H350 0.929 . S
C363 C355 1.433 . S
C363 N365 1.384 . S
N364 C360 1.427 . S
N364 C361 1.384 . S
N365 C357 1.427 . S
N365 C363 1.384 . S
H366 C372 0.930 . S
H367 C376 0.930 . S
H368 C381 0.929 . S
H369 C379 0.929 . S
H370 C374 0.929 . S
H371 C380 0.929 . S
C372 H366 0.930 . S
C372 C373 1.367 . S
C372 C380 1.378 . S
C373 C372 1.367 . S
C373 C381 1.433 1_565 S
C374 H370 0.929 . S
C374 C376 1.378 . S
C374 C378 1.350 . S
C375 C378 1.463 1_564 S
C375 C380 1.350 . S
C375 N383 1.427 1_565 S
C376 H367 0.930 . S
C376 C374 1.378 . S
C376 C377 1.367 . S
C377 C376 1.367 . S
C377 C379 1.433 1_545 S
C378 C374 1.350 . S
C378 C375 1.463 1_546 S
C378 N382 1.427 1_545 S
C379 H369 0.929 . S
C379 C377 1.433 1_565 S
C379 N382 1.384 . S
C380 H371 0.929 . S
C380 C372 1.378 . S
C380 C375 1.350 . S
C381 H368 0.929 . S
C381 C373 1.433 1_545 S
C381 N383 1.384 . S
N382 C378 1.427 1_565 S
N382 C379 1.384 . S
N383 C375 1.427 1_545 S
N383 C381 1.384 . S
H384 C390 0.930 . S
H385 C394 0.930 . S
H386 C399 0.929 . S
H387 C397 0.929 . S
H388 C392 0.929 . S
H389 C398 0.929 . S
C390 H384 0.930 . S
C390 C391 1.367 . S
C390 C398 1.378 . S
C391 C390 1.367 . S
C391 C399 1.433 . S
C392 H388 0.929 . S
C392 C394 1.378 . S
C392 C396 1.350 . S
C393 C396 1.463 1_556 S
C393 C398 1.350 . S
C393 N401 1.427 . S
C394 H385 0.930 . S
C394 C392 1.378 . S
C394 C395 1.367 . S
C395 C394 1.367 . S
C395 C397 1.433 . S
C396 C392 1.350 . S
C396 C393 1.463 1_554 S
C396 N400 1.427 . S
C397 H387 0.929 . S
C397 C395 1.433 . S
C397 N400 1.384 . S
C398 H389 0.929 . S
C398 C390 1.378 . S
C398 C393 1.350 . S
C399 H386 0.929 . S
C399 C391 1.433 . S
C399 N401 1.384 . S
N400 C396 1.427 . S
N400 C397 1.384 . S
N401 C393 1.427 . S
N401 C399 1.384 . S
H402 C408 0.930 . S
H403 C412 0.930 . S
H404 C417 0.929 . S
H405 C415 0.929 . S
H406 C410 0.929 . S
H407 C416 0.929 . S
C408 H402 0.930 . S
C408 C409 1.367 . S
C408 C416 1.378 . S
C409 C408 1.367 . S
C409 C417 1.433 . S
C410 H406 0.929 . S
C410 C412 1.378 . S
C410 C414 1.350 . S
C411 C414 1.463 . S
C411 C416 1.350 . S
C411 N419 1.427 . S
C412 H403 0.930 . S
C412 C410 1.378 . S
C412 C413 1.367 . S
C413 C412 1.367 . S
C413 C415 1.433 . S
C414 C410 1.350 . S
C414 C411 1.463 . S
C414 N418 1.427 . S
C415 H405 0.929 . S
C415 C413 1.433 . S
C415 N418 1.384 . S
C416 H407 0.929 . S
C416 C408 1.378 . S
C416 C411 1.350 . S
C417 H404 0.929 . S
C417 C409 1.433 . S
C417 N419 1.384 . S
N418 C414 1.427 . S
N418 C415 1.384 . S
N419 C411 1.427 . S
N419 C417 1.384 . S
H420 C426 0.930 . S
H421 C430 0.930 . S
H422 C435 0.929 . S
H423 C433 0.929 . S
H424 C428 0.929 . S
H425 C434 0.929 . S
C426 H420 0.930 . S
C426 C427 1.367 . S
C426 C434 1.378 . S
C427 C426 1.367 . S
C427 C435 1.433 . S
C428 H424 0.929 . S
C428 C430 1.378 . S
C428 C432 1.350 . S
C429 C432 1.463 . S
C429 C434 1.350 . S
C429 N437 1.427 . S
C430 H421 0.930 . S
C430 C428 1.378 . S
C430 C431 1.367 . S
C431 C430 1.367 . S
C431 C433 1.433 . S
C432 C428 1.350 . S
C432 C429 1.463 . S
C432 N436 1.427 . S
C433 H423 0.929 . S
C433 C431 1.433 . S
C433 N436 1.384 . S
C434 H425 0.929 . S
C434 C426 1.378 . S
C434 C429 1.350 . S
C435 H422 0.929 . S
C435 C427 1.433 . S
C435 N437 1.384 . S
N436 C432 1.427 . S
N436 C433 1.384 . S
N437 C429 1.427 . S
N437 C435 1.384 . S
H438 C444 0.930 . S
H439 C448 0.930 . S
H440 C453 0.929 . S
H441 C451 0.929 . S
H442 C446 0.929 . S
H443 C452 0.929 . S
C444 H438 0.930 . S
C444 C445 1.367 . S
C444 C452 1.378 . S
C445 C444 1.367 . S
C445 C453 1.433 1_554 S
C446 H442 0.929 . S
C446 C448 1.378 . S
C446 C450 1.350 . S
C447 C450 1.463 1_554 S
C447 C452 1.350 . S
C447 N455 1.427 1_554 S
C448 H439 0.930 . S
C448 C446 1.378 . S
C448 C449 1.367 . S
C449 C448 1.367 . S
C449 C451 1.433 1_556 S
C450 C446 1.350 . S
C450 C447 1.463 1_556 S
C450 N454 1.427 1_556 S
C451 H441 0.929 . S
C451 C449 1.433 1_554 S
C451 N454 1.384 . S
C452 H443 0.929 . S
C452 C444 1.378 . S
C452 C447 1.350 . S
C453 H440 0.929 . S
C453 C445 1.433 1_556 S
C453 N455 1.384 . S
N454 C450 1.427 1_554 S
N454 C451 1.384 . S
N455 C447 1.427 1_556 S
N455 C453 1.384 . S
H456 C462 0.930 . S
H457 C466 0.930 . S
H458 C471 0.929 . S
H459 C469 0.929 . S
H460 C464 0.929 . S
H461 C470 0.929 . S
C462 H456 0.930 . S
C462 C463 1.367 . S
C462 C470 1.378 . S
C463 C462 1.367 . S
C463 C471 1.433 . S
C464 H460 0.929 . S
C464 C466 1.378 . S
C464 C468 1.350 . S
C465 C468 1.463 . S
C465 C470 1.350 . S
C465 N473 1.427 . S
C466 H457 0.930 . S
C466 C464 1.378 . S
C466 C467 1.367 . S
C467 C466 1.367 . S
C467 C469 1.433 . S
C468 C464 1.350 . S
C468 C465 1.463 . S
C468 N472 1.427 . S
C469 H459 0.929 . S
C469 C467 1.433 . S
C469 N472 1.384 . S
C470 H461 0.929 . S
C470 C462 1.378 . S
C470 C465 1.350 . S
C471 H458 0.929 . S
C471 C463 1.433 . S
C471 N473 1.384 . S
N472 C468 1.427 . S
N472 C469 1.384 . S
N473 C465 1.427 . S
N473 C471 1.384 . S
H474 C480 0.930 . S
H475 C484 0.930 . S
H476 C489 0.929 . S
H477 C487 0.929 . S
H478 C482 0.929 . S
H479 C488 0.929 . S
C480 H474 0.930 . S
C480 C481 1.367 . S
C480 C488 1.378 . S
C481 C480 1.367 . S
C481 C489 1.433 . S
C482 H478 0.929 . S
C482 C484 1.378 . S
C482 C486 1.350 . S
C483 C486 1.463 . S
C483 C488 1.350 . S
C483 N491 1.427 . S
C484 H475 0.930 . S
C484 C482 1.378 . S
C484 C485 1.367 . S
C485 C484 1.367 . S
C485 C487 1.433 . S
C486 C482 1.350 . S
C486 C483 1.463 . S
C486 N490 1.427 . S
C487 H477 0.929 . S
C487 C485 1.433 . S
C487 N490 1.384 . S
C488 H479 0.929 . S
C488 C480 1.378 . S
C488 C483 1.350 . S
C489 H476 0.929 . S
C489 C481 1.433 . S
C489 N491 1.384 . S
N490 C486 1.427 . S
N490 C487 1.384 . S
N491 C483 1.427 . S
N491 C489 1.384 . S
H492 C498 0.930 . S
H493 C502 0.930 . S
H494 C507 0.929 . S
H495 C505 0.929 . S
H496 C500 0.929 . S
H497 C506 0.929 . S
C498 H492 0.930 . S
C498 C499 1.367 . S
C498 C506 1.378 . S
C499 C498 1.367 . S
C499 C507 1.433 . S
C500 H496 0.929 . S
C500 C502 1.378 . S
C500 C504 1.350 . S
C501 C504 1.463 . S
C501 C506 1.350 . S
C501 N509 1.427 . S
C502 H493 0.930 . S
C502 C500 1.378 . S
C502 C503 1.367 . S
C503 C502 1.367 . S
C503 C505 1.433 . S
C504 C500 1.350 . S
C504 C501 1.463 . S
C504 N508 1.427 . S
C505 H495 0.929 . S
C505 C503 1.433 . S
C505 N508 1.384 . S
C506 H497 0.929 . S
C506 C498 1.378 . S
C506 C501 1.350 . S
C507 H494 0.929 . S
C507 C499 1.433 . S
C507 N509 1.384 . S
N508 C504 1.427 . S
N508 C505 1.384 . S
N509 C501 1.427 . S
N509 C507 1.384 . S
H510 C516 0.930 . S
H511 C520 0.930 . S
H512 C525 0.929 . S
H513 C523 0.929 . S
H514 C518 0.939 1_655 S
H515 C524 0.939 1_455 S
C516 H510 0.930 . S
C516 C517 1.367 . S
C516 C524 1.378 . S
C517 C516 1.367 . S
C517 C525 1.433 . S
C518 H514 0.939 1_455 S
C518 C520 1.378 . S
C518 C522 1.350 . S
C519 C522 1.463 1_655 S
C519 C524 1.350 . S
C519 N527 1.427 . S
C520 H511 0.930 . S
C520 C518 1.378 . S
C520 C521 1.367 . S
C521 C520 1.367 . S
C521 C523 1.433 . S
C522 C518 1.350 . S
C522 C519 1.463 1_455 S
C522 N526 1.427 . S
C523 H513 0.929 . S
C523 C521 1.433 . S
C523 N526 1.384 . S
C524 H515 0.939 1_655 S
C524 C516 1.378 . S
C524 C519 1.350 . S
C525 H512 0.929 . S
C525 C517 1.433 . S
C525 N527 1.384 . S
N526 C522 1.427 . S
N526 C523 1.384 . S
N527 C519 1.427 . S
N527 C525 1.384 . S
H528 C534 0.930 . S
H529 C538 0.930 . S
H530 C543 0.929 . S
H531 C541 0.929 . S
H532 C536 0.929 . S
H533 C542 0.929 . S
C534 H528 0.930 . S
C534 C535 1.367 1_545 S
C534 C542 1.378 . S
C535 C534 1.367 1_565 S
C535 C543 1.433 . S
C536 H532 0.929 . S
C536 C538 1.378 . S
C536 C540 1.350 1_565 S
C537 C540 1.463 1_565 S
C537 C542 1.350 1_565 S
C537 N545 1.427 . S
C538 H529 0.930 . S
C538 C536 1.378 . S
C538 C539 1.367 1_565 S
C539 C538 1.367 1_545 S
C539 C541 1.433 . S
C540 C536 1.350 1_545 S
C540 C537 1.463 1_545 S
C540 N544 1.427 . S
C541 H531 0.929 . S
C541 C539 1.433 . S
C541 N544 1.384 . S
C542 H533 0.929 . S
C542 C534 1.378 . S
C542 C537 1.350 1_545 S
C543 H530 0.929 . S
C543 C535 1.433 . S
C543 N545 1.384 . S
N544 C540 1.427 . S
N544 C541 1.384 . S
N545 C537 1.427 . S
N545 C543 1.384 . S
H546 C552 0.930 . S
H547 C556 0.930 . S
H548 C561 0.929 . S
H549 C559 0.929 . S
H550 C554 0.929 . S
H551 C560 0.929 . S
C552 H546 0.930 . S
C552 C553 1.367 . S
C552 C560 1.378 . S
C553 C552 1.367 . S
C553 C561 1.433 . S
C554 H550 0.929 . S
C554 C556 1.378 . S
C554 C558 1.350 . S
C555 C558 1.463 . S
C555 C560 1.350 . S
C555 N563 1.427 . S
C556 H547 0.930 . S
C556 C554 1.378 . S
C556 C557 1.367 . S
C557 C556 1.367 . S
C557 C559 1.433 . S
C558 C554 1.350 . S
C558 C555 1.463 . S
C558 N562 1.427 . S
C559 H549 0.929 . S
C559 C557 1.433 . S
C559 N562 1.384 . S
C560 H551 0.929 . S
C560 C552 1.378 . S
C560 C555 1.350 . S
C561 H548 0.929 . S
C561 C553 1.433 . S
C561 N563 1.384 . S
N562 C558 1.427 . S
N562 C559 1.384 . S
N563 C555 1.427 . S
N563 C561 1.384 . S
H564 C570 0.930 . S
H565 C574 0.930 . S
H566 C579 0.929 . S
H567 C577 0.929 . S
H568 C572 0.929 . S
H569 C578 0.929 . S
C570 H564 0.930 . S
C570 C571 1.367 . S
C570 C578 1.378 . S
C571 C570 1.367 . S
C571 C579 1.433 1_455 S
C572 H568 0.929 . S
C572 C574 1.378 . S
C572 C576 1.350 . S
C573 C576 1.463 1_455 S
C573 C578 1.350 . S
C573 N581 1.427 1_455 S
C574 H565 0.930 . S
C574 C572 1.378 . S
C574 C575 1.367 . S
C575 C574 1.367 . S
C575 C577 1.433 1_655 S
C576 C572 1.350 . S
C576 C573 1.463 1_655 S
C576 N580 1.427 1_655 S
C577 H567 0.929 . S
C577 C575 1.433 1_455 S
C577 N580 1.384 . S
C578 H569 0.929 . S
C578 C570 1.378 . S
C578 C573 1.350 . S
C579 H566 0.929 . S
C579 C571 1.433 1_655 S
C579 N581 1.384 . S
N580 C576 1.427 1_455 S
N580 C577 1.384 . S
N581 C573 1.427 1_655 S
N581 C579 1.384 . S
H582 C588 0.930 . S
H583 C592 0.930 . S
H584 C597 0.929 . S
H585 C595 0.929 . S
H586 C590 0.929 . S
H587 C596 0.929 . S
C588 H582 0.930 . S
C588 C589 1.367 1_545 S
C588 C596 1.378 . S
C589 C588 1.367 1_565 S
C589 C597 1.433 . S
C590 H586 0.929 . S
C590 C592 1.378 . S
C590 C594 1.350 1_565 S
C591 C594 1.463 1_565 S
C591 C596 1.350 1_565 S
C591 N599 1.427 . S
C592 H583 0.930 . S
C592 C590 1.378 . S
C592 C593 1.367 1_565 S
C593 C592 1.367 1_545 S
C593 C595 1.433 . S
C594 C590 1.350 1_545 S
C594 C591 1.463 1_545 S
C594 N598 1.427 . S
C595 H585 0.929 . S
C595 C593 1.433 . S
C595 N598 1.384 . S
C596 H587 0.929 . S
C596 C588 1.378 . S
C596 C591 1.350 1_545 S
C597 H584 0.929 . S
C597 C589 1.433 . S
C597 N599 1.384 . S
N598 C594 1.427 . S
N598 C595 1.384 . S
N599 C591 1.427 . S
N599 C597 1.384 . S
H600 C606 0.930 . S
H601 C610 0.930 . S
H602 C615 0.929 . S
H603 C613 0.929 . S
H604 C608 0.929 . S
H605 C614 0.929 . S
C606 H600 0.930 . S
C606 C607 1.367 . S
C606 C614 1.378 . S
C607 C606 1.367 . S
C607 C615 1.433 . S
C608 H604 0.929 . S
C608 C610 1.378 . S
C608 C612 1.350 . S
C609 C612 1.463 . S
C609 C614 1.350 . S
C609 N617 1.427 . S
C610 H601 0.930 . S
C610 C608 1.378 . S
C610 C611 1.367 . S
C611 C610 1.367 . S
C611 C613 1.433 . S
C612 C608 1.350 . S
C612 C609 1.463 . S
C612 N616 1.427 . S
C613 H603 0.929 . S
C613 C611 1.433 . S
C613 N616 1.384 . S
C614 H605 0.929 . S
C614 C606 1.378 . S
C614 C609 1.350 . S
C615 H602 0.929 . S
C615 C607 1.433 . S
C615 N617 1.384 . S
N616 C612 1.427 . S
N616 C613 1.384 . S
N617 C609 1.427 . S
N617 C615 1.384 . S
H618 C624 0.930 . S
H619 C628 0.930 . S
H620 C633 0.929 . S
H621 C631 0.929 . S
H622 C626 0.929 . S
H623 C632 0.929 . S
C624 H618 0.930 . S
C624 C625 1.367 1_455 S
C624 C632 1.378 . S
C625 C624 1.367 1_655 S
C625 C633 1.433 . S
C626 H622 0.929 . S
C626 C628 1.378 . S
C626 C630 1.350 1_655 S
C627 C630 1.463 1_655 S
C627 C632 1.350 1_655 S
C627 N635 1.427 . S
C628 H619 0.930 . S
C628 C626 1.378 . S
C628 C629 1.367 1_655 S
C629 C628 1.367 1_455 S
C629 C631 1.433 . S
C630 C626 1.350 1_455 S
C630 C627 1.463 1_455 S
C630 N634 1.427 . S
C631 H621 0.929 . S
C631 C629 1.433 . S
C631 N634 1.384 . S
C632 H623 0.929 . S
C632 C624 1.378 . S
C632 C627 1.350 1_455 S
C633 H620 0.929 . S
C633 C625 1.433 . S
C633 N635 1.384 . S
N634 C630 1.427 . S
N634 C631 1.384 . S
N635 C627 1.427 . S
N635 C633 1.384 . S
H636 C642 0.930 . S
H637 C646 0.930 . S
H638 C651 0.929 . S
H639 C649 0.929 . S
H640 C644 0.929 . S
H641 C650 0.929 . S
C642 H636 0.930 . S
C642 C643 1.367 . S
C642 C650 1.378 . S
C643 C642 1.367 . S
C643 C651 1.433 1_545 S
C644 H640 0.929 . S
C644 C646 1.378 . S
C644 C648 1.350 . S
C645 C648 1.463 1_545 S
C645 C650 1.350 . S
C645 N653 1.427 1_545 S
C646 H637 0.930 . S
C646 C644 1.378 . S
C646 C647 1.367 . S
C647 C646 1.367 . S
C647 C649 1.433 1_565 S
C648 C644 1.350 . S
C648 C645 1.463 1_565 S
C648 N652 1.427 1_565 S
C649 H639 0.929 . S
C649 C647 1.433 1_545 S
C649 N652 1.384 . S
C650 H641 0.929 . S
C650 C642 1.378 . S
C650 C645 1.350 . S
C651 H638 0.929 . S
C651 C643 1.433 1_565 S
C651 N653 1.384 . S
N652 C648 1.427 1_545 S
N652 C649 1.384 . S
N653 C645 1.427 1_565 S
N653 C651 1.384 . S
H654 C660 0.930 . S
H655 C664 0.930 . S
H656 C669 0.929 . S
H657 C667 0.929 . S
H658 C662 0.929 . S
H659 C668 0.929 . S
C660 H654 0.930 . S
C660 C661 1.367 . S
C660 C668 1.378 . S
C661 C660 1.367 . S
C661 C669 1.433 . S
C662 H658 0.929 . S
C662 C664 1.378 . S
C662 C666 1.350 . S
C663 C666 1.463 . S
C663 C668 1.350 . S
C663 N671 1.427 . S
C664 H655 0.930 . S
C664 C662 1.378 . S
C664 C665 1.367 . S
C665 C664 1.367 . S
C665 C667 1.433 . S
C666 C662 1.350 . S
C666 C663 1.463 . S
C666 N670 1.427 . S
C667 H657 0.929 . S
C667 C665 1.433 . S
C667 N670 1.384 . S
C668 H659 0.929 . S
C668 C660 1.378 . S
C668 C663 1.350 . S
C669 H656 0.929 . S
C669 C661 1.433 . S
C669 N671 1.384 . S
N670 C666 1.427 . S
N670 C667 1.384 . S
N671 C663 1.427 . S
N671 C669 1.384 . S
H672 C678 0.930 . S
H673 C682 0.930 . S
H674 C687 0.929 . S
H675 C685 0.929 . S
H676 C680 0.929 . S
H677 C686 0.929 . S
C678 H672 0.930 . S
C678 C679 1.367 1_655 S
C678 C686 1.378 . S
C679 C678 1.367 1_455 S
C679 C687 1.433 . S
C680 H676 0.929 . S
C680 C682 1.378 . S
C680 C684 1.350 1_455 S
C681 C684 1.463 1_455 S
C681 C686 1.350 1_455 S
C681 N689 1.427 . S
C682 H673 0.930 . S
C682 C680 1.378 . S
C682 C683 1.367 1_455 S
C683 C682 1.367 1_655 S
C683 C685 1.433 . S
C684 C680 1.350 1_655 S
C684 C681 1.463 1_655 S
C684 N688 1.427 . S
C685 H675 0.929 . S
C685 C683 1.433 . S
C685 N688 1.384 . S
C686 H677 0.929 . S
C686 C678 1.378 . S
C686 C681 1.350 1_655 S
C687 H674 0.929 . S
C687 C679 1.433 . S
C687 N689 1.384 . S
N688 C684 1.427 . S
N688 C685 1.384 . S
N689 C681 1.427 . S
N689 C687 1.384 . S
H690 C696 0.930 . S
H691 C700 0.930 . S
H692 C705 0.929 1_545 S
H693 C703 0.929 1_565 S
H694 C698 0.929 . S
H695 C704 0.929 . S
C696 H690 0.930 . S
C696 C697 1.367 . S
C696 C704 1.378 . S
C697 C696 1.367 . S
C697 C705 1.433 . S
C698 H694 0.929 . S
C698 C700 1.378 . S
C698 C702 1.350 . S
C699 C702 1.463 1_565 S
C699 C704 1.350 . S
C699 N707 1.427 1_565 S
C700 H691 0.930 . S
C700 C698 1.378 . S
C700 C701 1.367 . S
C701 C700 1.367 . S
C701 C703 1.433 . S
C702 C698 1.350 . S
C702 C699 1.463 1_545 S
C702 N706 1.427 1_545 S
C703 H693 0.929 1_545 S
C703 C701 1.433 . S
C703 N706 1.384 1_545 S
C704 H695 0.929 . S
C704 C696 1.378 . S
C704 C699 1.350 . S
C705 H692 0.929 1_565 S
C705 C697 1.433 . S
C705 N707 1.384 1_565 S
N706 C702 1.427 1_565 S
N706 C703 1.384 1_565 S
N707 C699 1.427 1_545 S
N707 C705 1.384 1_545 S
C283 C16 1.519 . S
C287 C223 1.516 . S
C301 C39 1.517 . S
C305 C246 1.510 . S
C319 C62 1.509 . S
C323 C269 1.509 . S
C337 C85 1.517 . S
C341 C154 1.510 . S
C355 C177 1.508 . S
C359 C108 1.511 . S
C373 C200 1.515 . S
C377 C131 1.519 . S
C391 N242 2.192 . S
C395 N12 2.188 . S
C409 N35 2.192 . S
C413 N265 2.187 . S
C427 N58 2.188 . S
C431 N150 2.187 . S
C445 N81 2.187 . S
C449 N173 2.188 . S
C463 N104 2.194 . S
C467 N196 2.193 . S
C481 N127 2.194 . S
C485 N219 2.189 . S
C499 C214 1.592 . S
C503 C7 1.595 . S
C517 C30 1.590 . S
C521 C237 1.593 . S
C535 C53 1.589 . S
C539 C260 1.587 . S
C553 C145 1.595 . S
C557 C76 1.591 . S
C571 C99 1.596 . S
C575 C168 1.595 . S
C589 C191 1.589 . S
C593 C122 1.587 . S
C607 N2 2.138 . S
C611 N71 2.132 . S
C625 N94 2.129 . S
C629 N25 2.121 . S
C643 N48 2.138 . S
C647 N117 2.134 . S
C661 N140 2.123 . S
C665 N209 2.133 . S
C679 N163 2.127 . S
C683 N232 2.120 . S
C697 N255 2.126 . S
C701 N186 2.136 . S
