# Generated by pormake.
# Topology uny, (4)-cn, num edge types: 1
# Building blocks:
#     Node 0, Type 0, BuildingBlock: QUQFOY_clean_sbu_1, # of connection points: 4
#     Node 1, Type 0, BuildingBlock: QUQFOY_clean_sbu_1, # of connection points: 4
#     Node 2, Type 0, BuildingBlock: QUQFOY_clean_sbu_1, # of connection points: 4
#     Node 3, Type 0, BuildingBlock: QUQFOY_clean_sbu_1, # of connection points: 4
#     Node 4, Type 0, BuildingBlock: QUQFOY_clean_sbu_1, # of connection points: 4
#     Node 5, Type 0, BuildingBlock: QUQFOY_clean_sbu_1, # of connection points: 4
#     Node 6, Type 0, BuildingBlock: QUQFOY_clean_sbu_1, # of connection points: 4
#     Node 7, Type 0, BuildingBlock: QUQFOY_clean_sbu_1, # of connection points: 4
#     Node 8, Type 0, BuildingBlock: QUQFOY_clean_sbu_1, # of connection points: 4
#     Node 9, Type 0, BuildingBlock: QUQFOY_clean_sbu_1, # of connection points: 4
#     Node 10, Type 0, BuildingBlock: QUQFOY_clean_sbu_1, # of connection points: 4
#     Node 11, Type 0, BuildingBlock: QUQFOY_clean_sbu_1, # of connection points: 4
#     Node 12, Type 0, BuildingBlock: QUQFOY_clean_sbu_1, # of connection points: 4
#     Node 13, Type 0, BuildingBlock: QUQFOY_clean_sbu_1, # of connection points: 4
#     Node 14, Type 0, BuildingBlock: QUQFOY_clean_sbu_1, # of connection points: 4
#     Node 15, Type 0, BuildingBlock: QUQFOY_clean_sbu_1, # of connection points: 4
#     Node 16, Type 0, BuildingBlock: QUQFOY_clean_sbu_1, # of connection points: 4
#     Node 17, Type 0, BuildingBlock: QUQFOY_clean_sbu_1, # of connection points: 4
#     Edge 18, Type (0, 0), BuildingBlock: UVAHIK_clean_linker_0, # of connection points: 2
#     Edge 19, Type (0, 0), BuildingBlock: UVAHIK_clean_linker_0, # of connection points: 2
#     Edge 20, Type (0, 0), BuildingBlock: UVAHIK_clean_linker_0, # of connection points: 2
#     Edge 21, Type (0, 0), BuildingBlock: UVAHIK_clean_linker_0, # of connection points: 2
#     Edge 22, Type (0, 0), BuildingBlock: UVAHIK_clean_linker_0, # of connection points: 2
#     Edge 23, Type (0, 0), BuildingBlock: UVAHIK_clean_linker_0, # of connection points: 2
#     Edge 24, Type (0, 0), BuildingBlock: UVAHIK_clean_linker_0, # of connection points: 2
#     Edge 25, Type (0, 0), BuildingBlock: UVAHIK_clean_linker_0, # of connection points: 2
#     Edge 26, Type (0, 0), BuildingBlock: UVAHIK_clean_linker_0, # of connection points: 2
#     Edge 27, Type (0, 0), BuildingBlock: UVAHIK_clean_linker_0, # of connection points: 2
#     Edge 28, Type (0, 0), BuildingBlock: UVAHIK_clean_linker_0, # of connection points: 2
#     Edge 29, Type (0, 0), BuildingBlock: UVAHIK_clean_linker_0, # of connection points: 2
#     Edge 30, Type (0, 0), BuildingBlock: UVAHIK_clean_linker_0, # of connection points: 2
#     Edge 31, Type (0, 0), BuildingBlock: UVAHIK_clean_linker_0, # of connection points: 2
#     Edge 32, Type (0, 0), BuildingBlock: UVAHIK_clean_linker_0, # of connection points: 2
#     Edge 33, Type (0, 0), BuildingBlock: UVAHIK_clean_linker_0, # of connection points: 2
#     Edge 34, Type (0, 0), BuildingBlock: UVAHIK_clean_linker_0, # of connection points: 2
#     Edge 35, Type (0, 0), BuildingBlock: UVAHIK_clean_linker_0, # of connection points: 2
#     Edge 36, Type (0, 0), BuildingBlock: UVAHIK_clean_linker_0, # of connection points: 2
#     Edge 37, Type (0, 0), BuildingBlock: UVAHIK_clean_linker_0, # of connection points: 2
#     Edge 38, Type (0, 0), BuildingBlock: UVAHIK_clean_linker_0, # of connection points: 2
#     Edge 39, Type (0, 0), BuildingBlock: UVAHIK_clean_linker_0, # of connection points: 2
#     Edge 40, Type (0, 0), BuildingBlock: UVAHIK_clean_linker_0, # of connection points: 2
#     Edge 41, Type (0, 0), BuildingBlock: UVAHIK_clean_linker_0, # of connection points: 2
#     Edge 42, Type (0, 0), BuildingBlock: UVAHIK_clean_linker_0, # of connection points: 2
#     Edge 43, Type (0, 0), BuildingBlock: UVAHIK_clean_linker_0, # of connection points: 2
#     Edge 44, Type (0, 0), BuildingBlock: UVAHIK_clean_linker_0, # of connection points: 2
#     Edge 45, Type (0, 0), BuildingBlock: UVAHIK_clean_linker_0, # of connection points: 2
#     Edge 46, Type (0, 0), BuildingBlock: UVAHIK_clean_linker_0, # of connection points: 2
#     Edge 47, Type (0, 0), BuildingBlock: UVAHIK_clean_linker_0, # of connection points: 2
#     Edge 48, Type (0, 0), BuildingBlock: UVAHIK_clean_linker_0, # of connection points: 2
#     Edge 49, Type (0, 0), BuildingBlock: UVAHIK_clean_linker_0, # of connection points: 2
#     Edge 50, Type (0, 0), BuildingBlock: UVAHIK_clean_linker_0, # of connection points: 2
#     Edge 51, Type (0, 0), BuildingBlock: UVAHIK_clean_linker_0, # of connection points: 2
#     Edge 52, Type (0, 0), BuildingBlock: UVAHIK_clean_linker_0, # of connection points: 2
#     Edge 53, Type (0, 0), BuildingBlock: UVAHIK_clean_linker_0, # of connection points: 2
# Relax obj value: 0.078
# Max RMSD: 0.474
# Mean RMSD: 0.335
data_MOF--net-uny--node1-QUQFOY_clean_sbu_1--edge1-UVAHIK_clean_linker_0
_symmetry_space_group_name_H-M    P1
_symmetry_Int_Tables_number       1
_symmetry_cell_setting            triclinic
loop_
_symmetry_equiv_pos_as_xyz
'x, y, z'
_cell_length_a     60.190404
_cell_length_b     61.095059
_cell_length_c     6.5724721
_cell_angle_alpha  81.740659
_cell_angle_beta   91.699989
_cell_angle_gamma 119.78492
loop_
_atom_site_label
_atom_site_type_symbol
_atom_site_fract_x
_atom_site_fract_y
_atom_site_fract_z
_atom_type_partial_charge
O0 O 1.00907 0.16013 0.85627 0.0
Cd1 Cd 0.02671 0.19715 0.74547 0.0
Cd2 Cd 0.04553 0.19824 0.06165 0.0
O3 O 1.009 0.16924 0.16721 0.0
O4 O 0.99961 0.20345 0.62162 0.0
O5 O 0.01268 0.2115 0.93571 0.0
C6 C 0.99573 0.20811 0.80045 0.0
C7 C 0.07751 0.23885 0.04674 0.0
C8 C 1.00081 0.15302 0.04186 0.0
C9 C 0.07126 0.19177 0.74449 0.0
O10 O 0.06119 0.18201 0.92339 0.0
O11 O 0.06355 0.20532 0.63068 0.0
O12 O 0.07294 0.22291 0.21458 0.0
O13 O 0.06088 0.23315 0.90673 0.0
O14 O 0.86208 0.88168 0.0591 0.0
Cd15 Cd 0.85528 0.84687 0.09166 0.0
Cd16 Cd 0.86655 0.85567 0.70579 0.0
O17 O 0.85125 0.87977 0.73735 0.0
O18 O 0.81866 0.83086 0.21578 0.0
O19 O 0.82624 0.8312 0.89038 0.0
C20 C 0.81032 0.82813 0.03149 0.0
C21 C 0.85999 0.8139 0.71537 0.0
C22 C 0.85727 0.89148 0.89461 0.0
C23 C 0.91162 0.8745 0.90846 0.0
O24 O 0.90182 0.87904 0.75173 0.0
O25 O 0.89684 0.85722 0.05587 0.0
O26 O 0.85922 0.82663 0.54191 0.0
O27 O 0.86227 0.82368 0.87838 0.0
O28 O 0.19997 0.05445 0.21248 0.0
Cd29 Cd 0.21249 0.0374 0.05294 0.0
Cd30 Cd 0.21921 0.02179 0.39642 0.0
O31 O 0.22795 0.0595 0.44383 0.0
O32 O 0.23139 0.06424 0.81438 0.0
O33 O 0.25037 0.05429 0.07605 0.0
C34 C 0.25187 0.06985 0.91426 0.0
C35 C 0.23066 0.9915 0.36153 0.0
C36 C 0.21201 0.06566 0.35881 0.0
C37 C 0.16924 0.9922 0.2443 0.0
O38 O 0.18107 1.00138 0.40034 0.0
O39 O 0.18135 1.00026 0.06837 0.0
O40 O 0.22776 0.99614 0.54287 0.0
O41 O 0.23159 0.00709 0.20222 0.0
O42 O 0.06643 0.89626 0.06255 0.0
Cd43 Cd 0.05036 0.85838 0.08213 0.0
Cd44 Cd 0.03202 0.86102 0.69272 0.0
O45 O 0.06617 0.89928 0.72515 0.0
O46 O 0.07888 0.85259 0.19575 0.0
O47 O 0.06805 0.85015 0.87084 0.0
C48 C 0.0842 0.85129 0.00942 0.0
C49 C 0.9973 0.81183 0.72287 0.0
C50 C 0.07422 0.90936 0.88687 0.0
C51 C 1.00032 0.85447 0.10816 0.0
O52 O 1.00745 0.86508 0.92207 0.0
O53 O 0.01228 0.84388 0.20294 0.0
O54 O 0.99615 0.82917 0.60213 0.0
O55 O 0.01643 0.81908 0.83514 0.0
O56 O 0.21493 0.18524 0.91616 0.0
Cd57 Cd 0.22719 0.22156 0.89647 0.0
Cd58 Cd 0.21515 0.21281 0.27333 0.0
O59 O 0.2249 0.1842 0.24126 0.0
O60 O 0.26097 0.23126 0.75212 0.0
O61 O 0.25756 0.23224 0.08457 0.0
C62 C 0.2708 0.23256 0.93199 0.0
C63 C 0.22499 0.25392 0.32365 0.0
C64 C 0.21864 0.17378 0.07681 0.0
C65 C 0.17097 0.20039 0.05185 0.0
O66 O 0.17857 0.19486 0.22104 0.0
O67 O 0.18752 0.21525 0.90321 0.0
O68 O 0.21929 0.23605 0.47951 0.0
O69 O 0.22809 0.24936 0.14401 0.0
O70 O 0.86293 0.98801 0.70393 0.0
Cd71 Cd 0.85188 0.00865 0.83856 0.0
Cd72 Cd 0.85894 0.03265 0.4808 0.0
O73 O 0.85536 0.99861 0.39047 0.0
O74 O 0.83098 0.98171 0.07858 0.0
O75 O 0.8128 0.99496 0.83523 0.0
C76 C 0.81018 0.97876 -0.00428 0.0
C77 C 0.84411 0.0615 0.50839 0.0
C78 C 0.86125 0.98467 0.51923 0.0
C79 C 0.90363 0.05479 0.71405 0.0
O80 O 0.89595 0.05116 0.53539 0.0
O81 O 0.88743 0.04336 0.8697 0.0
O82 O 0.85241 0.06026 0.33263 0.0
O83 O 0.84106 0.04419 0.6614 0.0
O84 O 0.72664 0.52258 0.13103 0.0
Cd85 Cd 0.70775 0.53809 0.23105 0.0
Cd86 Cd 0.70079 0.54298 0.85449 0.0
O87 O 0.73798 0.54722 0.83044 0.0
O88 O 0.7301 0.55696 0.44355 0.0
O89 O 0.72737 0.57461 0.12853 0.0
C90 C 0.73996 0.5759 0.29422 0.0
C91 C 0.66927 0.55434 0.81421 0.0
C92 C 0.74047 0.53145 0.96672 0.0
C93 C 0.66674 0.49587 0.1056 0.0
O94 O 0.6803 0.50582 0.94099 0.0
O95 O 0.67011 0.50905 0.24978 0.0
O96 O 0.67701 0.54829 0.65959 0.0
O97 O 0.68263 0.55837 -0.02309 0.0
O98 O 0.53554 0.20381 0.50161 0.0
Cd99 Cd 0.5173 0.16606 0.54664 0.0
Cd100 Cd 0.52872 0.17006 0.17905 0.0
O101 O 0.52581 0.20278 0.17506 0.0
O102 O 0.48369 0.15727 0.69098 0.0
O103 O 0.48739 0.1547 0.36253 0.0
C104 C 0.47395 0.15479 0.51091 0.0
C105 C 0.51709 0.13348 0.05153 0.0
C106 C 0.53451 0.21503 0.32817 0.0
C107 C 0.5677 0.17235 0.44087 0.0
O108 O 0.56312 0.1801 0.26565 0.0
O109 O 0.54942 0.15985 0.57884 0.0
O110 O 0.5283 0.15536 0.93407 0.0
O111 O 0.50839 0.13207 0.23346 0.0
O112 O 0.84591 0.33615 0.61285 0.0
Cd113 Cd 0.88027 0.35663 0.73223 0.0
Cd114 Cd 0.89058 0.37031 0.35057 0.0
O115 O 0.86069 0.33385 0.31952 0.0
O116 O 0.88092 0.33277 -0.02979 0.0
O117 O 0.90299 0.3432 0.67349 0.0
C118 C 0.89362 0.32791 0.8457 0.0
C119 C 0.93073 0.40082 0.19834 0.0
C120 C 0.84209 0.32637 0.44952 0.0
C121 C 0.87572 0.39913 0.58666 0.0
O122 O 0.87389 0.38955 0.42537 0.0
O123 O 0.88462 0.39237 0.74658 0.0
O124 O 0.91035 0.39295 0.09379 0.0
O125 O 0.92885 0.38854 0.38064 0.0
O126 O 0.7241 0.21192 0.0639 0.0
Cd127 Cd 0.69684 0.17658 0.16608 0.0
Cd128 Cd 0.69035 0.17662 0.78555 0.0
O129 O 0.73028 0.20334 0.76441 0.0
O130 O 0.71711 0.16444 0.35843 0.0
O131 O 0.70763 0.15501 0.04321 0.0
C132 C 0.72118 0.15597 0.20116 0.0
C133 C 0.65944 0.13714 0.67899 0.0
C134 C 0.73748 0.21858 0.89872 0.0
C135 C 0.66226 0.19519 -0.00172 0.0
O136 O 0.67499 0.19813 0.8386 0.0
O137 O 0.66276 0.1807 0.15868 0.0
O138 O 0.67246 0.15743 0.54821 0.0
O139 O 0.66542 0.13826 0.86887 0.0
O140 O 0.83611 0.5123 0.74298 0.0
Cd141 Cd 0.87152 0.53201 0.84556 0.0
Cd142 Cd 0.88171 0.52774 0.51395 0.0
O143 O 0.84999 0.53325 0.43278 0.0
O144 O 0.86913 0.55628 -0.00365 0.0
O145 O 0.88762 0.56672 0.68137 0.0
C146 C 0.87734 0.57186 0.82427 0.0
C147 C 0.92421 0.54109 0.42464 0.0
C148 C 0.83136 0.51971 0.56653 0.0
C149 C 0.87241 0.48782 0.86647 0.0
O150 O 0.86763 0.49277 0.68282 0.0
O151 O 0.88194 0.50559 -0.02306 0.0
O152 O 0.90581 0.52829 0.30898 0.0
O153 O 0.91893 0.5499 0.57289 0.0
O154 O 0.52317 0.33895 0.1349 0.0
Cd155 Cd 0.51213 0.35926 0.28178 0.0
Cd156 Cd 0.54447 0.3975 0.02658 0.0
O157 O 0.55183 0.3689 0.91473 0.0
O158 O 0.47921 0.32952 0.40992 0.0
O159 O 0.48055 0.35543 0.13348 0.0
C160 C 0.46788 0.33388 0.25187 0.0
C161 C 0.53195 0.42659 -0.02134 0.0
C162 C 0.54057 0.34556 -0.0013 0.0
C163 C 0.55957 0.40264 0.46035 0.0
O164 O 0.56378 0.41293 0.27532 0.0
O165 O 0.53942 0.38062 0.5081 0.0
O166 O 0.55222 0.43104 0.87504 0.0
O167 O 0.51504 0.40308 0.04459 0.0
O168 O 0.34061 0.84582 0.85695 0.0
Cd169 Cd 0.36961 0.87762 0.73365 0.0
Cd170 Cd 0.38929 0.88808 0.1033 0.0
O171 O 0.3527 0.85413 0.17011 0.0
O172 O 0.34884 0.88335 0.51411 0.0
O173 O 0.35682 0.90003 0.80765 0.0
C174 C 0.34316 0.89411 0.6459 0.0
C175 C 0.41467 0.9234 0.27415 0.0
C176 C 0.33718 0.83938 0.04826 0.0
C177 C 0.40994 0.86251 0.90272 0.0
O178 O 0.41505 0.87842 0.02275 0.0
O179 O 0.39261 0.8592 0.77451 0.0
O180 O 0.40577 0.90044 0.3665 0.0
O181 O 0.40562 0.9264 0.09796 0.0
O182 O 0.21485 0.56586 0.22065 0.0
Cd183 Cd 0.19661 0.53051 0.38291 0.0
Cd184 Cd 0.20128 0.52414 0.03728 0.0
O185 O 0.19642 0.55526 0.93208 0.0
O186 O 0.17355 0.53235 0.58535 0.0
O187 O 0.15924 0.51109 0.32032 0.0
C188 C 0.15487 0.52045 0.46887 0.0
C189 C 0.1854 0.48318 0.96839 0.0
C190 C 0.20989 0.5724 0.04228 0.0
C191 C 0.24324 0.53156 0.31906 0.0
O192 O 0.23753 0.53674 0.13869 0.0
O193 O 0.22593 0.522 0.46439 0.0
O194 O 0.19868 0.50269 0.83037 0.0
O195 O 0.17771 0.48691 0.13493 0.0
O196 O 0.54033 0.71523 0.6971 0.0
Cd197 Cd 0.56247 0.70349 0.59752 0.0
Cd198 Cd 0.53289 0.66522 0.87672 0.0
O199 O 0.52522 0.6929 -0.0041 0.0
O200 O 0.59182 0.73964 0.51309 0.0
O201 O 0.59259 0.71477 0.78886 0.0
C202 C 0.60194 0.73755 0.68654 0.0
C203 C 0.54468 0.6353 0.91512 0.0
C204 C 0.52848 0.71179 0.86346 0.0
C205 C 0.51758 0.65877 0.43933 0.0
O206 O 0.51293 0.65128 0.63009 0.0
O207 O 0.53855 0.67948 0.37607 0.0
O208 O 0.52468 0.6312 0.02049 0.0
O209 O 0.56177 0.65877 0.84691 0.0
O210 O 0.39639 0.55141 0.00587 0.0
Cd211 Cd 0.37557 0.51609 0.11879 0.0
Cd212 Cd 0.3643 0.51162 0.73746 0.0
O213 O 0.40222 0.54269 0.7056 0.0
O214 O 0.40129 0.51311 0.30817 0.0
O215 O 0.3946 0.50118 -0.0026 0.0
C216 C 0.40865 0.50638 0.15542 0.0
C217 C 0.3402 0.46698 0.79422 0.0
C218 C 0.4084 0.55833 0.83522 0.0
C219 C 0.33307 0.52578 0.94164 0.0
O220 O 0.34234 0.52694 0.76763 0.0
O221 O 0.3398 0.51685 0.10719 0.0
O222 O 0.34725 0.479 0.60768 0.0
O223 O 0.34845 0.48014 0.94285 0.0
O224 O 0.55128 0.85221 0.41076 0.0
Cd225 Cd 0.57054 0.88879 0.32703 0.0
Cd226 Cd 0.55646 0.89794 0.67892 0.0
O227 O 0.54363 0.85727 0.72385 0.0
O228 O 0.59945 0.8864 0.2014 0.0
O229 O 0.6003 0.89627 0.51555 0.0
C230 C 0.61043 0.89019 0.37666 0.0
C231 C 0.56089 0.92436 0.91173 0.0
C232 C 0.5419 0.84291 0.59131 0.0
C233 C 0.52241 0.8951 0.37938 0.0
O234 O 0.53671 0.91097 0.49035 0.0
O235 O 0.53166 0.88296 0.30473 0.0
O236 O 0.54065 0.90242 0.91338 0.0
O237 O 0.58119 0.92852 0.81254 0.0
O238 O 0.18048 0.65718 0.36526 0.0
Cd239 Cd 0.18999 0.68013 0.58259 0.0
Cd240 Cd 0.20596 0.71602 0.21754 0.0
O241 O 0.21025 0.686 0.15058 0.0
O242 O 0.17729 0.65157 0.81724 0.0
O243 O 0.1564 0.6721 0.71371 0.0
C244 C 0.15614 0.65215 0.81519 0.0
C245 C 0.18906 0.74163 0.11819 0.0
C246 C 0.19867 0.66321 0.24183 0.0
C247 C 0.24612 0.72921 0.49673 0.0
O248 O 0.2385 0.73842 0.34552 0.0
O249 O 0.23053 0.7074 0.59962 0.0
O250 O 0.20471 0.74051 -0.00607 0.0
O251 O 0.17892 0.72407 0.27763 0.0
C252 C 0.31012 0.42391 0.68982 0.0
C253 C 0.32056 0.43967 0.84276 0.0
C254 C 0.28802 0.39989 0.73567 0.0
C255 C 0.22882 0.38161 0.05034 0.0
H256 H 0.20156 0.30641 0.76065 0.0
C257 C 0.11463 0.277 0.14646 0.0
C258 C 0.10291 0.26109 -0.00039 0.0
C259 C 0.13908 0.29764 0.10437 0.0
C260 C 0.20514 0.32335 0.82151 0.0
H261 H 0.31702 0.44177 0.16674 0.0
H262 H 0.27841 0.40071 0.24194 0.0
H263 H 0.25067 0.34039 0.79806 0.0
H264 H 0.10761 0.25259 0.69912 0.0
H265 H 0.15169 0.28879 0.62893 0.0
H266 H 0.16367 0.34965 0.02148 0.0
C267 C 0.28759 0.40649 0.08935 0.0
C268 C 0.23677 0.34458 0.85593 0.0
C269 C 0.30968 0.43014 0.04495 0.0
C270 C 0.11635 0.26535 0.81229 0.0
C271 C 0.14149 0.28574 0.77259 0.0
C272 C 0.1815 0.34975 -0.01057 0.0
C273 C 0.27602 0.39163 0.93376 0.0
C274 C 0.2488 0.37207 0.96322 0.0
C275 C 0.1529 0.30229 0.91786 0.0
C276 C 0.17874 0.32493 0.8848 0.0
H277 H 0.31811 0.43069 0.53333 0.0
H278 H 0.27909 0.38886 0.61229 0.0
H279 H 0.23768 0.3998 0.11029 0.0
H280 H 0.10482 0.27361 0.2931 0.0
H281 H 0.14746 0.30946 0.22391 0.0
C282 C 0.78019 0.84457 0.06365 0.0
C283 C 0.78699 0.82958 0.967 0.0
C284 C 0.76346 0.85244 -0.02747 0.0
C285 C 0.7072 0.83285 0.65697 0.0
H286 H 0.72354 0.90322 0.608 0.0
C287 C 0.62942 0.86121 0.38882 0.0
C288 C 0.63189 0.88443 0.4255 0.0
C289 C 0.64853 0.85471 0.44252 0.0
C290 C 0.71802 0.88332 0.62263 0.0
H291 H 0.78131 0.81137 0.69498 0.0
H292 H 0.7488 0.8219 0.55399 0.0
H293 H 0.75559 0.8916 0.71923 0.0
H294 H 0.65672 0.91884 0.55258 0.0
H295 H 0.69048 0.90856 0.63557 0.0
H296 H 0.67017 0.82417 0.55843 0.0
C297 C 0.75719 0.82819 0.69733 0.0
C298 C 0.73686 0.8767 0.68541 0.0
C299 C 0.77554 0.8218 0.78017 0.0
C300 C 0.65423 0.90096 0.51829 0.0
C301 C 0.67386 0.8949 0.56529 0.0
C302 C 0.68832 0.83942 0.59518 0.0
C303 C 0.75097 0.84385 0.79234 0.0
C304 C 0.73164 0.8513 0.70691 0.0
C305 C 0.67167 0.87158 0.52801 0.0
C306 C 0.69284 0.86473 0.5817 0.0
H307 H 0.78942 0.85202 0.20154 0.0
H308 H 0.76104 0.86607 0.04013 0.0
H309 H 0.70234 0.81307 0.67057 0.0
H310 H 0.61225 0.84759 0.32248 0.0
H311 H 0.64489 0.83636 0.41211 0.0
C312 C 0.2027 0.94446 0.40501 0.0
C313 C 0.22615 0.96603 0.33269 0.0
C314 C 0.19654 0.92025 0.36428 0.0
C315 C 0.22987 0.88581 0.20717 0.0
H316 H 0.16067 0.82851 0.2583 0.0
C317 C 0.20926 0.78854 0.00979 0.0
C318 C 0.1887 0.76588 0.11099 0.0
C319 C 0.21324 0.81228 0.04238 0.0
C320 C 0.18025 0.84407 0.2469 0.0
H321 H 0.26043 0.97958 0.14271 0.0
H322 H 0.25083 0.93739 0.08232 0.0
H323 H 0.1679 0.87001 0.29755 0.0
H324 H 0.15577 0.75061 0.32246 0.0
H325 H 0.16171 0.79201 0.37014 0.0
H326 H 0.2421 0.85981 0.15441 0.0
C327 C 0.23719 0.93864 0.17631 0.0
C328 C 0.18451 0.86842 0.26742 0.0
C329 C 0.24287 0.96306 0.2104 0.0
C330 C 0.17147 0.76767 0.23811 0.0
C331 C 0.17502 0.79158 0.26598 0.0
C332 C 0.22557 0.86156 0.18559 0.0
C333 C 0.21428 0.91653 0.25959 0.0
C334 C 0.20941 0.89 0.24371 0.0
C335 C 0.1962 0.8144 0.17028 0.0
C336 C 0.20071 0.84019 0.20378 0.0
H337 H 0.18877 0.94638 0.49022 0.0
H338 H 0.17825 0.90447 0.42569 0.0
H339 H 0.24952 0.90113 0.19677 0.0
H340 H 0.22341 0.78807 0.91504 0.0
H341 H 0.23015 0.82889 0.96843 0.0
C342 C 0.42953 0.29045 0.32848 0.0
C343 C 0.4435 0.31272 0.18817 0.0
C344 C 0.40994 0.26835 0.2643 0.0
C345 C 0.36773 0.23538 0.79347 0.0
H346 H 0.35539 0.15422 0.10203 0.0
C347 C 0.28099 0.11199 0.6885 0.0
C348 C 0.27434 0.09592 0.87923 0.0
C349 C 0.30113 0.13756 0.67056 0.0
C350 C 0.35854 0.17327 0.04175 0.0
H351 H 0.44678 0.32931 0.86741 0.0
H352 H 0.41255 0.28987 0.75483 0.0
H353 H 0.40532 0.22257 0.2528 0.0
H354 H 0.2815 0.09501 0.20388 0.0
H355 H 0.31396 0.13845 0.17803 0.0
H356 H 0.34055 0.18843 0.77971 0.0
C357 C 0.41696 0.28986 0.9152 0.0
C358 C 0.39068 0.21715 0.13799 0.0
C359 C 0.43634 0.31251 -0.01892 0.0
C360 C 0.28713 0.10621 0.05185 0.0
C361 C 0.30637 0.13147 0.0353 0.0
C362 C 0.34543 0.2061 0.72428 0.0
C363 C 0.40466 0.26711 0.05461 0.0
C364 C 0.38876 0.24141 -0.01104 0.0
C365 C 0.31514 0.14747 0.84368 0.0
C366 C 0.33964 0.17513 0.84456 0.0
H367 H 0.43475 0.28961 0.48692 0.0
H368 H 0.3998 0.25177 0.38024 0.0
H369 H 0.36791 0.25183 0.70512 0.0
H370 H 0.27068 0.10481 0.55368 0.0
H371 H 0.30499 0.14883 0.5216 0.0
C372 C 0.76173 0.15689 0.3359 0.0
C373 C 0.74404 0.1526 0.18026 0.0
C374 C 0.78561 0.15879 0.29617 0.0
C375 C 0.8324 0.17953 0.81025 0.0
H376 H 0.88089 0.16506 0.32881 0.0
C377 C 0.95144 0.19683 0.71639 0.0
C378 C 0.97035 0.20473 0.8596 0.0
C379 C 0.92655 0.19016 0.76877 0.0
C380 C 0.87174 0.17009 0.20405 0.0
H381 H 0.73767 0.14601 0.86251 0.0
H382 H 0.77862 0.14908 0.796 0.0
H383 H 0.82533 0.14579 0.34322 0.0
H384 H 0.97735 0.21088 0.17874 0.0
H385 H 0.93297 0.20063 0.26661 0.0
H386 H 0.89573 0.20804 0.65037 0.0
C387 C 0.77432 0.15121 0.94806 0.0
C388 C 0.83792 0.15861 0.21936 0.0
C389 C 0.75051 0.14911 -0.01228 0.0
C390 C 0.96331 0.20553 0.06161 0.0
C391 C 0.93783 0.19913 0.11402 0.0
C392 C 0.88159 0.19601 0.77692 0.0
C393 C 0.7926 0.15683 0.09916 0.0
C394 C 0.81956 0.16356 0.04338 0.0
C395 C 0.9191 0.19156 0.96596 0.0
C396 C 0.89253 0.18744 -0.00527 0.0
H397 H 0.75766 0.16001 0.48508 0.0
H398 H 0.79911 0.16325 0.41668 0.0
H399 H 0.81959 0.18272 0.70426 0.0
H400 H 0.95564 0.19514 0.56237 0.0
H401 H 0.91329 0.18427 0.64778 0.0
C402 C 0.86151 0.59851 0.94182 0.0
C403 C 0.87125 0.59271 0.78176 0.0
C404 C 0.85509 0.61752 0.90657 0.0
C405 C 0.84484 0.67332 0.57344 0.0
H406 H 0.87602 0.7172 0.14465 0.0
C407 C 0.84504 0.77179 0.60203 0.0
C408 C 0.85841 0.78889 0.73781 0.0
C409 C 0.84161 0.74725 0.63944 0.0
C410 C 0.86916 0.70635 0.01612 0.0
H411 H 0.87722 0.59901 0.45041 0.0
H412 H 0.86493 0.63115 0.38664 0.0
H413 H 0.88703 0.66147 -0.0126 0.0
H414 H 0.87931 0.79425 0.01859 0.0
H415 H 0.87479 0.75236 0.07712 0.0
H416 H 0.8297 0.70194 0.51548 0.0
C417 C 0.86469 0.62364 0.54459 0.0
C418 C 0.87576 0.66995 0.91642 0.0
C419 C 0.87165 0.60456 0.58056 0.0
C420 C 0.86878 0.78125 0.91019 0.0
C421 C 0.86595 0.75689 0.94507 0.0
C422 C 0.84133 0.69796 0.62459 0.0
C423 C 0.85833 0.63234 0.71055 0.0
C424 C 0.86077 0.65878 0.70885 0.0
C425 C 0.85239 0.73931 0.80975 0.0
C426 C 0.85225 0.71447 0.8288 0.0
H427 H 0.85953 0.58891 0.09784 0.0
H428 H 0.85008 0.62205 0.04323 0.0
H429 H 0.83017 0.66513 0.47394 0.0
H430 H 0.83657 0.77711 0.47008 0.0
H431 H 0.83037 0.73518 0.53001 0.0
C432 C 0.78076 0.60234 0.09425 0.0
C433 C 0.76759 0.59485 0.28401 0.0
C434 C 0.80663 0.62009 0.07267 0.0
C435 C 0.87572 0.67682 0.25841 0.0
H436 H 0.88606 0.71354 0.55974 0.0
C437 C 0.97725 0.76548 0.86945 0.0
C438 C 0.97635 0.78527 0.73891 0.0
C439 C 0.95559 0.74111 0.90113 0.0
C440 C 0.88248 0.70425 0.71987 0.0
H441 H 0.77282 0.59532 0.60864 0.0
H442 H 0.81709 0.62636 0.5724 0.0
H443 H 0.82001 0.66314 0.88706 0.0
H444 H 0.95296 0.7947 0.52813 0.0
H445 H 0.91537 0.75354 0.59149 0.0
H446 H 0.92062 0.70665 0.22059 0.0
C447 C 0.80822 0.62148 0.43197 0.0
C448 C 0.84004 0.67083 0.9294 0.0
C449 C 0.78196 0.60287 0.45627 0.0
C450 C 0.9542 0.77994 0.63087 0.0
C451 C 0.93258 0.75593 0.665 0.0
C452 C 0.90391 0.69999 0.12902 0.0
C453 C 0.82076 0.6337 0.23361 0.0
C454 C 0.84459 0.6613 0.16744 0.0
C455 C 0.93272 0.73645 0.8056 0.0
C456 C 0.90818 0.71333 0.87585 0.0
H457 H 0.77105 0.59443 0.95971 0.0
H458 H 0.81467 0.62439 0.91906 0.0
H459 H 0.88158 0.67018 0.39271 0.0
H460 H 0.99429 0.76901 0.95195 0.0
H461 H 0.95656 0.72629 0.00632 0.0
C462 C 0.31455 0.24196 0.0648 0.0
C463 C 0.29151 0.22596 -0.02346 0.0
C464 C 0.33281 0.23409 0.11574 0.0
C465 C 0.38403 0.20695 0.83021 0.0
H466 H 0.37328 0.16924 0.53529 0.0
C467 C 0.43754 0.14834 0.28264 0.0
C468 C 0.45073 0.15707 0.46075 0.0
C469 C 0.41959 0.15537 0.2055 0.0
C470 C 0.37432 0.17863 0.38042 0.0
H471 H 0.26819 0.18793 0.90134 0.0
H472 H 0.29823 0.17352 0.00906 0.0
H473 H 0.33758 0.18361 0.43984 0.0
H474 H 0.45523 0.18029 0.69584 0.0
H475 H 0.42425 0.19295 0.55628 0.0
H476 H 0.42082 0.19253 0.89678 0.0
C477 C 0.30371 0.19293 0.02071 0.0
C478 C 0.35221 0.18835 0.33067 0.0
C479 C 0.28623 0.2012 0.95937 0.0
C480 C 0.44486 0.17243 0.56294 0.0
C481 C 0.42711 0.1797 0.48376 0.0
C482 C 0.40309 0.19389 0.95483 0.0
C483 C 0.32829 0.20983 0.08338 0.0
C484 C 0.35004 0.20287 0.09435 0.0
C485 C 0.41452 0.17153 0.3033 0.0
C486 C 0.39727 0.18101 0.21294 0.0
H487 H 0.31867 0.26069 0.09059 0.0
H488 H 0.35079 0.24731 0.17449 0.0
H489 H 0.39683 0.20154 0.8546 0.0
H490 H 0.44183 0.13679 0.1982 0.0
H491 H 0.41012 0.14863 0.06645 0.0
C492 C 0.86775 0.10614 0.58687 0.0
C493 C 0.84442 0.08525 0.54587 0.0
C494 C 0.86919 0.12899 0.61971 0.0
C495 C 0.85484 0.18772 0.49268 0.0
H496 H 0.86643 0.2077 0.16023 0.0
C497 C 0.87036 0.28774 0.70483 0.0
C498 C 0.88711 0.30108 0.85137 0.0
C499 C 0.86211 0.26213 0.70286 0.0
C500 C 0.86128 0.20031 0.01928 0.0
H501 H 0.80369 0.07118 0.53139 0.0
H502 H 0.80625 0.11125 0.59503 0.0
H503 H 0.84953 0.13975 -0.01984 0.0
H504 H 0.90743 0.29765 0.12033 0.0
H505 H 0.89463 0.25262 0.10715 0.0
H506 H 0.86382 0.23068 0.44711 0.0
C507 C 0.82376 0.11045 0.5858 0.0
C508 C 0.85162 0.15766 0.89609 0.0
C509 C 0.8222 0.08735 0.552 0.0
C510 C 0.89501 0.28791 0.00212 0.0
C511 C 0.88732 0.26206 -0.00388 0.0
C512 C 0.86107 0.21571 0.57057 0.0
C513 C 0.84771 0.13249 0.60258 0.0
C514 C 0.85021 0.15871 0.64655 0.0
C515 C 0.87105 0.24905 0.84308 0.0
C516 C 0.86435 0.22269 0.81512 0.0
H517 H 0.88502 0.10472 0.59552 0.0
H518 H 0.88736 0.14407 0.65667 0.0
H519 H 0.85215 0.17101 0.55915 0.0
H520 H 0.86325 0.2971 0.59155 0.0
H521 H 0.84865 0.25267 0.58929 0.0
C522 C 0.76125 0.95331 0.01212 0.0
C523 C 0.78493 0.95502 0.06069 0.0
C524 C 0.73816 0.92959 0.04235 0.0
C525 C 0.71465 0.85728 0.17411 0.0
H526 H 0.65194 0.85199 0.96891 0.0
C527 C 0.63756 0.7608 0.92826 0.0
C528 C 0.61999 0.76089 0.78259 0.0
C529 C 0.65327 0.78251 0.02373 0.0
C530 C 0.66935 0.85264 0.02213 0.0
H531 H 0.80231 0.93303 0.19415 0.0
H532 H 0.76343 0.89305 0.2542 0.0
H533 H 0.68687 0.89287 0.01627 0.0
H534 H 0.60401 0.78378 0.63855 0.0
H535 H 0.62933 0.82012 0.80982 0.0
H536 H 0.69773 0.8174 0.17831 0.0
C537 C 0.76166 0.90908 0.18381 0.0
C538 C 0.68999 0.87685 0.05069 0.0
C539 C 0.78456 0.93265 0.15351 0.0
C540 C 0.61764 0.78292 0.74562 0.0
C541 C 0.63244 0.80413 0.84733 0.0
C542 C 0.69451 0.83332 0.1397 0.0
C543 C 0.73784 0.90649 0.11977 0.0
C544 C 0.71385 0.88008 0.11804 0.0
C545 C 0.65168 0.80517 -0.01844 0.0
C546 C 0.67153 0.83032 0.05481 0.0
H547 H 0.76063 0.97026 0.94554 0.0
H548 H 0.72085 0.92973 -0.00266 0.0
H549 H 0.73053 0.85717 0.25154 0.0
H550 H 0.6395 0.744 0.96655 0.0
H551 H 0.66665 0.78111 0.13023 0.0
C552 C 0.13193 0.87943 -0.02104 0.0
C553 C 0.11028 0.8563 0.94822 0.0
C554 C 0.15661 0.88562 0.91214 0.0
C555 C 0.19391 0.85561 0.72934 0.0
H556 H 0.25779 0.92514 0.69864 0.0
C557 C 0.29794 0.87715 0.52973 0.0
C558 C 0.31832 0.89439 0.63647 0.0
C559 C 0.27315 0.87373 0.54943 0.0
C560 C 0.23656 0.9055 0.72099 0.0
H561 H 0.09759 0.82204 0.81298 0.0
H562 H 0.14046 0.83186 0.70553 0.0
H563 H 0.22467 0.9073 0.74358 0.0
H564 H 0.328 0.92123 0.85096 0.0
H565 H 0.28526 0.916 0.87984 0.0
H566 H 0.22086 0.84434 0.66194 0.0
C567 C 0.13884 0.84545 0.78345 0.0
C568 C 0.20836 0.8997 0.76614 0.0
C569 C 0.11396 0.83967 0.84466 0.0
C570 C 0.3131 0.90838 0.76096 0.0
C571 C 0.28839 0.90537 0.77684 0.0
C572 C 0.21897 0.86032 0.69076 0.0
C573 C 0.16089 0.8684 0.81955 0.0
C574 C 0.18816 0.87454 0.76796 0.0
C575 C 0.26785 0.88805 0.67042 0.0
C576 C 0.24104 0.88429 0.69275 0.0
H577 H 0.12973 0.89312 0.05182 0.0
H578 H 0.17247 0.90377 0.9401 0.0
H579 H 0.1787 0.83613 0.73311 0.0
H580 H 0.30077 0.86522 0.43855 0.0
H581 H 0.25812 0.85936 0.4722 0.0
C582 C 0.24277 0.30118 0.30887 0.0
C583 C 0.22184 0.27625 0.33608 0.0
C584 C 0.23884 0.32223 0.267 0.0
C585 C 0.19866 0.35205 0.31437 0.0
H586 H 0.20763 0.40194 0.63869 0.0
C587 C 0.16937 0.43675 0.09929 0.0
C588 C 0.18437 0.45869 0.9564 0.0
C589 C 0.17271 0.41541 0.11292 0.0
C590 C 0.20581 0.38955 0.77952 0.0
H591 H 0.18046 0.25383 0.35547 0.0
H592 H 0.17387 0.29023 0.27939 0.0
H593 H 0.2226 0.36757 0.62394 0.0
H594 H 0.21456 0.47531 0.71591 0.0
H595 H 0.22136 0.43944 0.74725 0.0
H596 H 0.18595 0.382 0.36945 0.0
C597 C 0.1932 0.29383 0.28521 0.0
C598 C 0.21356 0.36648 0.76832 0.0
C599 C 0.19702 0.27287 0.33368 0.0
C600 C 0.20221 0.45858 0.82447 0.0
C601 C 0.20605 0.43773 0.84223 0.0
C602 C 0.19331 0.37711 0.24645 0.0
C603 C 0.214 0.31869 0.23309 0.0
C604 C 0.20927 0.34061 0.13818 0.0
C605 C 0.19151 0.41588 -0.01284 0.0
C606 C 0.19649 0.39414 0.00508 0.0
H607 H 0.26215 0.30436 0.31182 0.0
H608 H 0.25546 0.34112 0.24733 0.0
H609 H 0.19209 0.34087 0.46381 0.0
H610 H 0.15561 0.43636 0.20441 0.0
H611 H 0.16075 0.39877 0.22334 0.0
C612 C 0.95289 0.44396 -0.02103 0.0
C613 C 0.95432 0.42543 0.12476 0.0
C614 C 0.97412 0.4686 0.93133 0.0
C615 C 0.04523 0.50585 -0.0206 0.0
H616 H 0.03493 0.56409 0.92445 0.0
C617 C 0.13182 0.60678 -0.00832 0.0
C618 C 0.13153 0.62809 0.88092 0.0
C619 C 0.1098 0.58258 0.01578 0.0
C620 C 0.0384 0.54821 0.9364 0.0
H621 H 0.9794 0.41836 0.33215 0.0
H622 H 0.01653 0.46073 0.24461 0.0
H623 H 0.99816 0.52141 0.95303 0.0
H624 H 0.10739 0.64034 0.70842 0.0
H625 H 0.06926 0.59833 0.74611 0.0
H626 H 0.08528 0.53228 0.95785 0.0
C627 C 0.99905 0.45642 0.16674 0.0
C628 C 0.01707 0.52348 0.95504 0.0
C629 C 0.97771 0.43199 0.21727 0.0
C630 C 0.10826 0.62457 0.7995 0.0
C631 C 0.08626 0.60023 0.82089 0.0
C632 C 0.06651 0.53049 0.95944 0.0
C633 C 0.99755 0.47528 0.02524 0.0
C634 C 0.02014 0.50185 -0.01701 0.0
C635 C 0.0867 0.57865 0.92676 0.0
C636 C 0.0636 0.55221 0.94086 0.0
H637 H 0.93502 0.43977 0.9075 0.0
H638 H 0.97206 0.48243 0.82172 0.0
H639 H 0.04852 0.48985 -0.00868 0.0
H640 H 0.14941 0.60857 0.05342 0.0
H641 H 0.11119 0.56692 0.10273 0.0
C642 C 0.45569 0.5291 0.21943 0.0
C643 C 0.43465 0.50919 0.13986 0.0
C644 C 0.48086 0.53494 0.17289 0.0
C645 C 0.51792 0.50723 0.94959 0.0
H646 H 0.57547 0.5736 -0.00058 0.0
C647 C 0.62271 0.53267 0.7334 0.0
C648 C 0.64334 0.55186 0.82335 0.0
C649 C 0.59742 0.52711 0.7707 0.0
C650 C 0.5599 0.55471 -0.01381 0.0
H651 H 0.42383 0.48039 0.94212 0.0
H652 H 0.46704 0.48943 0.8691 0.0
H653 H 0.53291 0.56487 0.0745 0.0
H654 H 0.65326 0.57967 0.0288 0.0
H655 H 0.60988 0.57112 0.08635 0.0
H656 H 0.54498 0.4972 0.8591 0.0
C657 C 0.46462 0.50054 -0.0288 0.0
C658 C 0.53486 0.54959 0.0297 0.0
C659 C 0.43951 0.49522 0.013 0.0
C660 C 0.63797 0.56541 0.95074 0.0
C661 C 0.61278 0.5604 -0.01681 0.0
C662 C 0.54297 0.51237 0.9057 0.0
C663 C 0.48599 0.52039 0.05201 0.0
C664 C 0.51315 0.52583 0.00974 0.0
C665 C 0.59185 0.54127 0.89242 0.0
C666 C 0.56466 0.53603 0.92797 0.0
H667 H 0.45282 0.54107 0.30993 0.0
H668 H 0.49612 0.55098 0.23417 0.0
H669 H 0.50237 0.48838 0.93519 0.0
H670 H 0.62593 0.52101 0.64182 0.0
H671 H 0.58242 0.5115 0.70328 0.0
C672 C 0.54316 0.1167 0.92194 0.0
C673 C 0.51951 0.11206 0.00059 0.0
C674 C 0.54751 0.09653 0.90708 0.0
C675 C 0.51434 0.02523 0.95094 0.0
H676 H 0.58213 0.03644 0.07367 0.0
C677 C 0.53349 0.94132 0.0133 0.0
C678 C 0.55816 0.94561 -0.02965 0.0
C679 C 0.52919 0.96126 0.0368 0.0
C680 C 0.56321 0.03286 0.03288 0.0
H681 H 0.48204 0.08286 0.12882 0.0
H682 H 0.48916 0.04776 0.09829 0.0
H683 H 0.57392 0.07154 0.04752 0.0
H684 H 0.59778 0.97501 0.90697 0.0
H685 H 0.59041 0.01017 0.93282 0.0
H686 H 0.50362 0.98701 0.92831 0.0
C687 C 0.50446 0.06672 0.04617 0.0
C688 C 0.55841 0.05321 0.01934 0.0
C689 C 0.50019 0.0869 0.06245 0.0
C690 C 0.5786 0.97081 0.94721 0.0
C691 C 0.57422 0.9911 0.96244 0.0
C692 C 0.51923 0.00501 0.96068 0.0
C693 C 0.52841 0.07118 -0.0259 0.0
C694 C 0.53383 0.0497 -0.02064 0.0
C695 C 0.54927 0.98674 0.0041 0.0
C696 C 0.54383 0.00837 0.00135 0.0
H697 H 0.55893 0.136 0.88379 0.0
H698 H 0.56606 0.10095 0.84711 0.0
H699 H 0.49534 0.02176 0.9135 0.0
H700 H 0.51708 0.92249 0.01739 0.0
H701 H 0.50978 0.95642 0.07494 0.0
C702 C 0.4547 0.94026 0.47589 0.0
C703 C 0.43766 0.9449 0.34962 0.0
C704 C 0.47858 0.96046 0.5186 0.0
C705 C 0.51658 0.03262 0.47101 0.0
H706 H 0.57452 0.02136 0.52302 0.0
C707 C 0.61968 0.11781 0.47886 0.0
C708 C 0.6364 0.11452 0.61763 0.0
C709 C 0.59615 0.09692 0.44072 0.0
C710 C 0.55859 0.02492 0.51144 0.0
H711 H 0.43209 0.97455 0.17781 0.0
H712 H 0.47244 0.00932 0.26057 0.0
H713 H 0.53206 0.98588 0.48517 0.0
H714 H 0.64231 0.08648 0.81385 0.0
H715 H 0.60257 0.04989 0.73336 0.0
H716 H 0.54311 0.07168 0.49415 0.0
C717 C 0.46812 0.99036 0.32301 0.0
C718 C 0.53396 0.00436 0.49007 0.0
C719 C 0.44462 0.97024 0.27593 0.0
C720 C 0.62974 0.08967 0.70759 0.0
C721 C 0.60674 0.06865 0.6621 0.0
C722 C 0.54118 0.05317 0.4899 0.0
C723 C 0.48603 0.98598 0.43887 0.0
C724 C 0.51242 0.0078 0.46887 0.0
C725 C 0.58895 0.07194 0.53551 0.0
C726 C 0.56269 0.04977 0.51041 0.0
H727 H 0.45008 0.92091 0.53482 0.0
H728 H 0.49121 0.95593 0.61314 0.0
H729 H 0.50072 0.03626 0.46333 0.0
H730 H 0.62427 0.13672 0.40614 0.0
H731 H 0.58356 0.10045 0.3374 0.0
C732 C 0.97067 0.55826 0.51138 0.0
C733 C 0.9492 0.54165 0.41038 0.0
C734 C 0.99301 0.55627 0.51879 0.0
C735 C 0.01567 0.51019 0.47067 0.0
H736 H 0.083 0.57044 0.41955 0.0
C737 C 0.10814 0.50354 0.39766 0.0
C738 C 0.13045 0.52092 0.48516 0.0
C739 C 0.08602 0.50583 0.39467 0.0
C740 C 0.06442 0.55331 0.43661 0.0
H741 H 0.93429 0.50937 0.24349 0.0
H742 H 0.97254 0.50544 0.26136 0.0
H743 H 0.04506 0.575 0.40137 0.0
H744 H 0.14718 0.55491 0.6319 0.0
H745 H 0.10919 0.55937 0.62139 0.0
H746 H 0.03491 0.48849 0.50972 0.0
C747 C 0.97264 0.52056 0.32996 0.0
C748 C 0.04252 0.55597 0.42629 0.0
C749 C 0.95064 0.52295 0.31805 0.0
C750 C 0.13016 0.5408 0.56742 0.0
C751 C 0.10833 0.54354 0.55889 0.0
C752 C 0.03754 0.50753 0.48202 0.0
C753 C 0.99427 0.53722 0.42962 0.0
C754 C 0.01776 0.53445 0.44262 0.0
C755 C 0.08579 0.52605 0.47308 0.0
C756 C 0.06234 0.52902 0.46362 0.0
H757 H 0.97007 0.57254 0.5879 0.0
H758 H 1.00899 0.56918 0.60034 0.0
H759 H 0.99706 0.49308 0.4871 0.0
H760 H 0.10782 0.48827 0.32952 0.0
H761 H 0.06934 0.49204 0.32525 0.0
C762 C 0.55656 0.46609 0.14479 0.0
C763 C 0.5329 0.44687 0.08796 0.0
C764 C 0.55783 0.48361 0.26843 0.0
C765 C 0.51467 0.50671 0.47339 0.0
H766 H 0.58013 0.56843 0.45215 0.0
C767 C 0.51985 0.59401 0.77168 0.0
C768 C 0.54366 0.61419 0.81634 0.0
C769 C 0.51832 0.57544 0.65877 0.0
C770 C 0.56138 0.55175 0.46149 0.0
H771 H 0.49195 0.42917 0.1407 0.0
H772 H 0.49362 0.46007 0.33996 0.0
H773 H 0.57821 0.53145 0.36629 0.0
H774 H 0.58447 0.63195 0.75578 0.0
H775 H 0.58243 0.59951 0.57414 0.0
H776 H 0.49783 0.52703 0.56839 0.0
C777 C 0.51171 0.46247 0.29092 0.0
C778 C 0.56026 0.52952 0.41328 0.0
C779 C 0.51053 0.44463 0.17086 0.0
C780 C 0.56583 0.616 0.73388 0.0
C781 C 0.56441 0.59715 0.62465 0.0
C782 C 0.51577 0.52897 0.52106 0.0
C783 C 0.53545 0.48339 0.33352 0.0
C784 C 0.53688 0.50635 0.41501 0.0
C785 C 0.54061 0.57557 0.59261 0.0
C786 C 0.53916 0.55222 0.51781 0.0
H787 H 0.5743 0.46745 0.09615 0.0
H788 H 0.57672 0.49776 0.30452 0.0
H789 H 0.49595 0.48994 0.48359 0.0
H790 H 0.50217 0.59269 0.82145 0.0
H791 H 0.49933 0.56066 0.63184 0.0
C792 C 0.11327 0.1988 0.59516 0.0
C793 C 0.08788 0.1827 0.67321 0.0
C794 C 0.12923 0.18841 0.5675 0.0
C795 C 0.12296 0.12396 0.55139 0.0
H796 H 0.19644 0.15962 0.58866 0.0
C797 C 0.17551 0.0707 0.43322 0.0
C798 C 0.20195 0.08066 0.44231 0.0
C799 C 0.16357 0.08414 0.46712 0.0
C800 C 0.17592 0.14903 0.57905 0.0
H801 H 0.0602 0.14384 0.79938 0.0
H802 H 0.0864 0.12613 0.74727 0.0
H803 H 0.17258 0.18114 0.63399 0.0
H804 H 0.23721 0.11447 0.49108 0.0
H805 H 0.21651 0.13864 0.56137 0.0
H806 H 0.12422 0.09138 0.52201 0.0
C807 C 0.09442 0.14633 0.69536 0.0
C808 C 0.16216 0.16169 0.6031 0.0
C809 C 0.07916 0.15662 0.72787 0.0
C810 C 0.21659 0.10546 0.49132 0.0
C811 C 0.20443 0.11951 0.52794 0.0
C812 C 0.13623 0.11108 0.53851 0.0
C813 C 0.11973 0.1618 0.61388 0.0
C814 C 0.13541 0.14941 0.58607 0.0
C815 C 0.1774 0.109 0.51623 0.0
C816 C 0.16323 0.12324 0.54666 0.0
H817 H 0.12093 0.21921 0.56126 0.0
H818 H 0.14872 0.20115 0.5076 0.0
H819 H 0.10253 0.11348 0.53238 0.0
H820 H 0.16334 0.05173 0.40324 0.0
H821 H 0.14327 0.07409 0.44865 0.0
C822 C 0.96292 0.11237 0.18791 0.0
C823 C 0.98819 0.12578 0.11247 0.0
C824 C 0.94999 0.08582 0.21835 0.0
C825 C 0.95851 0.02956 0.12942 0.0
H826 H 0.88656 0.00314 0.05023 0.0
C827 C 0.89767 0.93095 0.86163 0.0
C828 C 0.87098 0.91911 0.87227 0.0
C829 C 0.913 0.95562 0.90582 0.0
C830 C 0.9065 0.00951 0.06962 0.0
H831 H 0.0202 0.12288 0.00753 0.0
H832 H 0.99853 0.07724 0.06391 0.0
H833 H 0.90935 0.04079 0.18713 0.0
H834 H 0.83875 0.92276 0.95247 0.0
H835 H 0.86413 0.96499 0.02968 0.0
H836 H 0.95458 0.99587 0.04071 0.0
C837 C 0.98804 0.08611 0.10623 0.0
C838 C 0.92014 0.03209 0.15054 0.0
C839 C 1.0007 0.1126 0.07211 0.0
C840 C 0.85939 0.93219 0.92852 0.0
C841 C 0.87457 0.95695 -0.02736 0.0
C842 C 0.94441 0.00585 0.06067 0.0
C843 C 0.96201 0.07198 0.17359 0.0
C844 C 0.94678 0.04386 0.16395 0.0
C845 C 0.90179 0.9694 0.96295 0.0
C846 C 0.91799 0.99552 0.02428 0.0
H847 H 0.95287 0.12233 0.21592 0.0
H848 H 0.93037 0.07673 0.27233 0.0
H849 H 0.97865 0.03655 0.15171 0.0
H850 H 0.90645 0.92074 0.81628 0.0
H851 H 0.93346 0.96351 0.89051 0.0
C852 C 0.95082 0.91722 0.89252 0.0
C853 C 0.93991 0.89053 0.89946 0.0
C854 C 0.97591 0.93457 0.81391 0.0
C855 C 0.02138 0.936 0.45484 0.0
H856 H 0.07465 0.99712 0.60958 0.0
C857 C 0.12316 0.95829 0.30532 0.0
C858 C 0.14198 0.98384 0.26109 0.0
C859 C 0.09837 0.95205 0.36609 0.0
C860 C 0.06003 0.97862 0.57693 0.0
H861 H 0.94714 0.86154 0.81906 0.0
H862 H 0.99115 0.89136 0.68812 0.0
H863 H 0.03198 0.97549 0.79797 0.0
H864 H 0.15015 0.02215 0.24124 0.0
H865 H 0.10759 0.01212 0.35523 0.0
H866 H 0.0483 0.93216 0.29174 0.0
C867 C 0.98024 0.89894 0.74805 0.0
C868 C 0.03549 0.96682 0.67945 0.0
C869 C 0.95507 0.88166 0.8257 0.0
C870 C 0.1358 0.00266 0.28149 0.0
C871 C 0.11143 0.99676 0.34533 0.0
C872 C 0.04578 0.94237 0.4007 0.0
C873 C 0.99091 0.92563 0.73854 0.0
C874 C 0.01639 0.94316 0.62958 0.0
C875 C 0.09232 0.97129 0.39069 0.0
C876 C 0.06599 0.96443 0.45672 0.0
H877 H 0.94008 0.92487 0.95069 0.0
H878 H 0.98322 0.95482 0.80807 0.0
H879 H 0.0135 0.94168 0.32486 0.0
H880 H 0.12769 0.94331 0.29865 0.0
H881 H 0.08423 0.93207 0.39984 0.0
C882 C 0.99482 0.88929 0.19165 0.0
C883 C 0.98522 0.86308 0.22008 0.0
C884 C 0.97953 0.89942 0.23174 0.0
C885 C 0.91361 0.88715 0.36509 0.0
H886 H 0.9521 0.95976 0.3657 0.0
C887 C 0.85929 0.9445 0.42711 0.0
C888 C 0.87334 0.97005 0.46034 0.0
C889 C 0.8719 0.93065 0.3987 0.0
C890 C 0.94029 0.93945 0.36928 0.0
H891 H 0.95121 0.82695 0.32505 0.0
H892 H 0.92631 0.84584 0.43771 0.0
H893 H 0.97391 0.93688 0.35696 0.0
H894 H 0.91088 0.99912 0.5286 0.0
H895 H 0.93263 0.97657 0.47637 0.0
H896 H 0.87981 0.8897 0.3934 0.0
C897 C 0.94544 0.85839 0.36945 0.0
C898 C 0.95334 0.92584 0.36184 0.0
C899 C 0.96006 0.84742 0.31028 0.0
C900 C 0.89972 0.98033 0.4845 0.0
C901 C 0.91235 0.96695 0.45311 0.0
C902 C 0.90034 0.90079 0.3725 0.0
C903 C 0.95519 0.88518 0.32902 0.0
C904 C 0.94043 0.89917 0.35913 0.0
C905 C 0.89901 0.94177 0.40605 0.0
C906 C 0.91325 0.92726 0.37903 0.0
H907 H 0.0133 0.90206 0.11206 0.0
H908 H 0.98588 0.91844 0.1612 0.0
H909 H 0.90253 0.86665 0.38585 0.0
H910 H 0.83862 0.9352 0.42293 0.0
H911 H 0.86006 0.91135 0.36819 0.0
C912 C 0.21773 0.13344 0.03495 0.0
C913 C 0.2054 0.1463 0.08338 0.0
C914 C 0.2032 0.10836 -0.00594 0.0
C915 C 0.133 0.05688 0.93307 0.0
H916 H 0.16897 0.02379 0.78075 0.0
C917 C 0.07699 0.94971 0.92151 0.0
C918 C 0.08908 0.9368 0.87108 0.0
C919 C 0.09076 0.97593 0.91659 0.0
C920 C 0.15794 0.03191 0.82571 0.0
H921 H 0.16949 0.14461 0.11508 0.0
H922 H 0.14389 0.10269 0.03063 0.0
H923 H 0.19213 0.06508 0.85673 0.0
H924 H 0.12447 0.9402 0.76778 0.0
H925 H 0.14781 0.98611 0.72598 0.0
H926 H 0.0984 0.02423 0.87947 0.0
C927 C 0.16425 0.11 0.0321 0.0
C928 C 0.17183 0.05633 0.87639 0.0
C929 C 0.17883 0.13444 0.08054 0.0
C930 C 0.11491 0.9502 0.80722 0.0
C931 C 0.12829 0.97678 0.78546 0.0
C932 C 0.11892 0.03236 0.88028 0.0
C933 C 0.17596 0.09606 -0.01146 0.0
C934 C 0.16002 0.06934 0.93675 0.0
C935 C 0.11641 0.99035 0.83935 0.0
C936 C 0.1311 0.01871 0.83814 0.0
H937 H 0.23845 0.14273 0.02622 0.0
H938 H 0.21405 0.09946 0.96316 0.0
H939 H 0.12204 0.06544 -0.02944 0.0
H940 H 0.05669 0.93948 0.96215 0.0
H941 H 0.08057 0.98443 -0.02805 0.0
C942 C 0.12882 0.19904 0.07966 0.0
C943 C 0.14261 0.18711 0.04048 0.0
C944 C 0.10304 0.18449 0.15466 0.0
C945 C 0.05148 0.11473 0.36703 0.0
H946 H 0.01772 0.15017 0.51068 0.0
C947 C 0.94567 0.05656 0.69173 0.0
C948 C 0.93193 0.06878 0.7288 0.0
C949 C 0.97222 0.07028 0.64601 0.0
C950 C 0.026 0.13919 0.47219 0.0
H951 H 0.13888 0.15027 0.03602 0.0
H952 H 0.09542 0.12535 0.15908 0.0
H953 H 0.05656 0.17305 0.31776 0.0
H954 H 0.93524 0.10554 0.72686 0.0
H955 H 0.98004 0.12962 0.63187 0.0
H956 H 0.02044 0.0806 0.52256 0.0
C957 C 0.10381 0.14576 0.14374 0.0
C958 C 0.04916 0.15289 0.3543 0.0
C959 C 0.1294 0.16032 0.06959 0.0
C960 C 0.94542 0.09534 0.71169 0.0
C961 C 0.97177 0.10929 0.65592 0.0
C962 C 0.0277 0.10077 0.47946 0.0
C963 C 0.08991 0.15731 0.19523 0.0
C964 C 0.06294 0.14135 0.29955 0.0
C965 C 0.98602 0.09726 0.61822 0.0
C966 C 0.01378 0.11252 0.52962 0.0
H967 H 0.1385 0.21962 0.06862 0.0
H968 H 0.0944 0.19523 0.19165 0.0
H969 H 0.06065 0.1041 0.33789 0.0
H970 H 0.9356 0.03624 0.68876 0.0
H971 H 0.98105 0.05928 0.61853 0.0
C972 C 0.78201 0.53211 0.92721 0.0
C973 C 0.75529 0.51898 0.93476 0.0
C974 C 0.79524 0.51867 -0.02207 0.0
C975 C 0.7822 0.4508 0.19781 0.0
H976 H 0.85309 0.49065 0.31622 0.0
C977 C 0.83531 0.39943 0.5676 0.0
C978 C 0.86183 0.413 0.58889 0.0
C979 C 0.82165 0.41199 0.50836 0.0
C980 C 0.83334 0.47853 0.28764 0.0
H981 H 0.72154 0.48177 -0.0102 0.0
H982 H 0.7432 0.45871 0.07839 0.0
H983 H 0.83322 0.51074 0.12916 0.0
H984 H 0.89552 0.45019 0.54227 0.0
H985 H 0.87325 0.47205 0.41503 0.0
H986 H 0.78239 0.41824 0.35338 0.0
C987 C 0.7551 0.47898 0.03476 0.0
C988 C 0.82154 0.49059 0.17412 0.0
C989 C 0.74222 0.49234 -0.01837 0.0
C990 C 0.87479 0.43944 0.54142 0.0
C991 C 0.86143 0.45205 0.46948 0.0
C992 C 0.79412 0.43855 0.30976 0.0
C993 C 0.782 0.49175 0.04153 0.0
C994 C 0.7955 0.47743 0.13136 0.0
C995 C 0.83441 0.43873 0.45157 0.0
C996 C 0.82024 0.4521 0.35599 0.0
H997 H 0.79259 0.55276 0.89782 0.0
H998 H 0.81577 0.53013 -0.02431 0.0
H999 H 0.7624 0.43877 0.16702 0.0
H1000 H 0.82513 0.37879 0.59002 0.0
H1001 H 0.80127 0.40003 0.49976 0.0
C1002 C 0.54236 0.25718 0.53796 0.0
C1003 C 0.54299 0.2439 0.31519 0.0
C1004 C 0.54977 0.28754 0.54753 0.0
C1005 C 0.5672 0.35278 0.38345 0.0
H1006 H 0.63986 0.37936 0.39316 0.0
C1007 C 0.62734 0.45576 0.08498 0.0
C1008 C 0.65259 0.46836 0.13864 0.0
C1009 C 0.61471 0.42948 0.09595 0.0
C1010 C 0.6196 0.37217 0.37607 0.0
H1011 H 0.5485 0.24392 0.95806 0.0
H1012 H 0.55493 0.27457 -0.00211 0.0
H1013 H 0.60988 0.33414 0.51539 0.0
H1014 H 0.68637 0.46499 0.19251 0.0
H1015 H 0.66365 0.41859 0.23467 0.0
H1016 H 0.57449 0.38553 0.19285 0.0
C1017 C 0.55934 0.29192 0.00658 0.0
C1018 C 0.60228 0.34643 0.45549 0.0
C1019 C 0.55045 0.25915 0.0646 0.0
C1020 C 0.666 0.45494 0.17237 0.0
C1021 C 0.65292 0.42832 0.19538 0.0
C1022 C 0.58344 0.37638 0.27325 0.0
C1023 C 0.55953 0.3103 0.33945 0.0
C1024 C 0.57584 0.33601 0.41611 0.0
C1025 C 0.62627 0.41497 0.17828 0.0
C1026 C 0.61009 0.38724 0.26619 0.0
H1027 H 0.54265 0.24996 0.42002 0.0
H1028 H 0.5443 0.29224 0.67878 0.0
H1029 H 0.54723 0.34607 0.41042 0.0
H1030 H 0.61765 0.46622 0.0284 0.0
H1031 H 0.5962 0.42117 0.03194 0.0
C1032 C 0.80512 0.28557 0.36334 0.0
C1033 C 0.81527 0.31058 0.40204 0.0
C1034 C 0.77856 0.27026 0.34814 0.0
C1035 C 0.71655 0.27347 0.36738 0.0
H1036 H 0.68708 0.20073 0.44695 0.0
C1037 C 0.60821 0.21199 0.40682 0.0
C1038 C 0.59498 0.18597 0.48647 0.0
C1039 C 0.6346 0.22531 0.38144 0.0
C1040 C 0.69463 0.22081 0.42729 0.0
H1041 H 0.80625 0.33945 0.45519 0.0
H1042 H 0.76136 0.31407 0.42831 0.0
H1043 H 0.73235 0.22691 0.41234 0.0
H1044 H 0.59943 0.15355 0.60289 0.0
H1045 H 0.64618 0.17789 0.58038 0.0
H1046 H 0.6794 0.26738 0.41296 0.0
C1047 C 0.77263 0.30536 0.40327 0.0
C1048 C 0.72122 0.23635 0.40227 0.0
C1049 C 0.79881 0.32023 0.42185 0.0
C1050 C 0.60912 0.1739 0.55039 0.0
C1051 C 0.63616 0.18807 0.53497 0.0
C1052 C 0.6902 0.25786 0.40479 0.0
C1053 C 0.76166 0.27981 0.36907 0.0
C1054 C 0.73291 0.2631 0.3723 0.0
C1055 C 0.6495 0.21449 0.45492 0.0
C1056 C 0.67839 0.23103 0.43161 0.0
H1057 H 0.81752 0.27763 0.3514 0.0
H1058 H 0.77172 0.25107 0.31869 0.0
H1059 H 0.72362 0.29372 0.33812 0.0
H1060 H 0.59795 0.2217 0.34523 0.0
H1061 H 0.64305 0.24347 0.28475 0.0
C1062 C 0.62415 0.20239 0.96564 0.0
C1063 C 0.65053 0.21192 -0.01196 0.0
C1064 C 0.6149 0.21887 0.88302 0.0
C1065 C 0.6303 0.27205 0.47965 0.0
H1066 H 0.58299 0.28367 0.73115 0.0
C1067 C 0.58287 0.33608 0.01771 0.0
C1068 C 0.55052 0.32671 0.00639 0.0
C1069 C 0.59676 0.31911 0.14772 0.0
C1070 C 0.59254 0.27668 0.65042 0.0
H1071 H 0.68707 0.24673 0.96228 0.0
H1072 H 0.67149 0.27475 0.79986 0.0
H1073 H 0.59904 0.25927 0.93689 0.0
H1074 H 0.50621 0.29448 0.08601 0.0
H1075 H 0.51118 0.25816 0.30684 0.0
H1076 H 0.62087 0.28599 0.18827 0.0
C1077 C 0.65795 0.25471 0.84647 0.0
C1078 C 0.60388 0.26468 0.77325 0.0
C1079 C 0.66693 0.23851 0.93762 0.0
C1080 C 0.52564 0.29807 0.10344 0.0
C1081 C 0.52913 0.27516 0.24503 0.0
C1082 C 0.61529 0.27953 0.35016 0.0
C1083 C 0.63191 0.24492 0.8101 0.0
C1084 C 0.62229 0.26097 0.68688 0.0
C1085 C 0.57774 0.28846 0.28956 0.0
C1086 C 0.59399 0.27964 0.43174 0.0
H1087 H 0.61088 0.1821 0.00046 0.0
H1088 H 0.59456 0.21084 0.86123 0.0
H1089 H 0.64779 0.27473 0.41639 0.0
H1090 H 0.59617 0.35535 0.94843 0.0
H1091 H 0.61744 0.32806 0.14657 0.0
C1092 C 0.74057 0.26011 0.83773 0.0
C1093 C 0.75353 0.24641 0.8448 0.0
C1094 C 0.75305 0.28573 0.8602 0.0
C1095 C 0.81907 0.34002 0.96919 0.0
H1096 H 0.77852 0.37215 0.01137 0.0
C1097 C 0.87146 0.44742 0.02322 0.0
C1098 C 0.85875 0.46075 0.95471 0.0
C1099 C 0.85787 0.42066 0.05957 0.0
C1100 C 0.79077 0.3642 -0.00316 0.0
H1101 H 0.79047 0.24904 0.87781 0.0
H1102 H 0.81344 0.29426 0.89623 0.0
H1103 H 0.75868 0.33093 0.92558 0.0
H1104 H 0.82232 0.45704 0.86701 0.0
H1105 H 0.79877 0.41187 0.93369 0.0
H1106 H 0.85101 0.37335 0.0464 0.0
C1107 C 0.79307 0.28555 0.87993 0.0
C1108 C 0.77894 0.3395 0.94689 0.0
C1109 C 0.78004 0.25934 0.86418 0.0
C1110 C 0.8324 0.44711 0.927 0.0
C1111 C 0.81875 0.42065 0.96725 0.0
C1112 C 0.83093 0.36479 0.01807 0.0
C1113 C 0.77968 0.29923 0.88744 0.0
C1114 C 0.7928 0.32668 0.92947 0.0
C1115 C 0.83121 0.40652 0.02765 0.0
C1116 C 0.81738 0.37801 0.02384 0.0
H1117 H 0.72019 0.2504 0.82037 0.0
H1118 H 0.74106 0.2942 0.85715 0.0
H1119 H 0.8309 0.3314 -0.02799 0.0
H1120 H 0.89201 0.45755 0.03855 0.0
H1121 H 0.86901 0.41156 0.1015 0.0
C1122 C 0.59478 0.39985 0.66415 0.0
C1123 C 0.58287 0.41398 0.58698 0.0
C1124 C 0.62113 0.41158 0.69506 0.0
C1125 C 0.68253 0.47697 0.61247 0.0
H1126 H 0.71179 0.43446 0.55327 0.0
C1127 C 0.79273 0.52341 0.45172 0.0
C1128 C 0.80397 0.50857 0.52094 0.0
C1129 C 0.76583 0.51214 0.45371 0.0
C1130 C 0.70452 0.44698 0.57589 0.0
H1131 H 0.5903 0.45254 0.49704 0.0
H1132 H 0.63542 0.47306 0.55186 0.0
H1133 H 0.66722 0.4151 0.63157 0.0
H1134 H 0.79612 0.47059 0.64679 0.0
H1135 H 0.75061 0.45114 0.64739 0.0
H1136 H 0.72028 0.50883 0.56252 0.0
C1137 C 0.62479 0.45259 0.58966 0.0
C1138 C 0.67817 0.43556 0.62272 0.0
C1139 C 0.59829 0.44072 0.56072 0.0
C1140 C 0.78799 0.4824 0.58657 0.0
C1141 C 0.76145 0.47111 0.58472 0.0
C1142 C 0.70906 0.48837 0.57313 0.0
C1143 C 0.63717 0.43819 0.6464 0.0
C1144 C 0.66626 0.45029 0.63674 0.0
C1145 C 0.74955 0.48573 0.52364 0.0
C1146 C 0.72072 0.47368 0.55262 0.0
H1147 H 0.58465 0.37941 0.68003 0.0
H1148 H 0.62875 0.39923 0.74992 0.0
H1149 H 0.67499 0.48955 0.61875 0.0
H1150 H 0.80461 0.5438 0.40594 0.0
H1151 H 0.75811 0.52454 0.40548 0.0
C1152 C 0.54168 0.75773 0.71589 0.0
C1153 C 0.52049 0.73174 0.87472 0.0
C1154 C 0.53627 0.78092 0.61602 0.0
C1155 C 0.44928 0.76566 0.55169 0.0
H1156 H 0.48837 0.83611 0.35602 0.0
C1157 C 0.407 0.81886 -0.0108 0.0
C1158 C 0.4217 0.84569 0.94601 0.0
C1159 C 0.41733 0.80413 0.09157 0.0
C1160 C 0.47487 0.81677 0.41518 0.0
H1161 H 0.47942 0.70735 0.06159 0.0
H1162 H 0.45715 0.73666 -0.02585 0.0
H1163 H 0.49217 0.82004 0.70807 0.0
H1164 H 0.46009 0.87727 0.94445 0.0
H1165 H 0.47887 0.85229 0.09205 0.0
H1166 H 0.42188 0.763 0.32261 0.0
C1167 C 0.47642 0.744 0.91231 0.0
C1168 C 0.479 0.80718 0.6106 0.0
C1169 C 0.49108 0.72562 0.96877 0.0
C1170 C 0.44776 0.85686 -0.01504 0.0
C1171 C 0.45846 0.84217 0.07592 0.0
C1172 C 0.43942 0.77588 0.38859 0.0
C1173 C 0.49103 0.77281 0.7434 0.0
C1174 C 0.47166 0.78156 0.6523 0.0
C1175 C 0.44308 0.81577 0.14989 0.0
C1176 C 0.45297 0.80222 0.30989 0.0
H1177 H 0.55965 0.75971 0.66732 0.0
H1178 H 0.55117 0.79561 0.50377 0.0
H1179 H 0.43882 0.74562 0.59879 0.0
H1180 H 0.38734 0.80912 0.94874 0.0
H1181 H 0.40453 0.78389 0.13424 0.0
C1182 C 0.21418 0.61386 0.87409 0.0
C1183 C 0.22521 0.59955 0.95932 0.0
C1184 C 0.22905 0.64049 0.83861 0.0
C1185 C 0.29506 0.69556 0.9527 0.0
H1186 H 0.25161 0.72474 -0.01755 0.0
C1187 C 0.33885 0.80041 0.09965 0.0
C1188 C 0.32372 0.81172 0.10456 0.0
C1189 C 0.32847 0.77497 0.07498 0.0
C1190 C 0.26476 0.71775 -0.02319 0.0
H1191 H 0.26041 0.60119 0.05839 0.0
H1192 H 0.28579 0.64667 0.00949 0.0
H1193 H 0.23454 0.68383 0.89644 0.0
H1194 H 0.28575 0.80608 0.06068 0.0
H1195 H 0.26677 0.76216 0.02311 0.0
H1196 H 0.32592 0.72971 0.03263 0.0
C1197 C 0.26621 0.63846 0.96414 0.0
C1198 C 0.25455 0.69362 0.92091 0.0
C1199 C 0.25146 0.61202 -0.00423 0.0
C1200 C 0.29757 0.79721 0.07671 0.0
C1201 C 0.28681 0.77154 0.05277 0.0
C1202 C 0.30579 0.72033 0.00388 0.0
C1203 C 0.25504 0.65345 0.89515 0.0
C1204 C 0.26885 0.68151 0.9126 0.0
C1205 C 0.302 0.7596 0.05193 0.0
C1206 C 0.2908 0.73222 0.01451 0.0
H1207 H 0.19401 0.60465 0.84232 0.0
H1208 H 0.21964 0.65052 0.76821 0.0
H1209 H 0.30761 0.68776 0.9459 0.0
H1210 H 0.35925 0.81204 0.10555 0.0
H1211 H 0.3418 0.76811 0.06975 0.0
C1212 C 0.4815 0.65974 0.24287 0.0
C1213 C 0.49426 0.64634 0.31515 0.0
C1214 C 0.45488 0.6474 0.22231 0.0
C1215 C 0.39478 0.58071 0.30972 0.0
H1216 H 0.36203 0.62098 0.32308 0.0
C1217 C 0.28321 0.52945 0.41702 0.0
C1218 C 0.27095 0.54352 0.3569 0.0
C1219 C 0.31018 0.54181 0.41933 0.0
C1220 C 0.37025 0.60896 0.31324 0.0
H1221 H 0.48806 0.60832 0.4088 0.0
H1222 H 0.44283 0.58653 0.36066 0.0
H1223 H 0.4071 0.64186 0.26467 0.0
H1224 H 0.27718 0.5811 0.24651 0.0
H1225 H 0.3228 0.60253 0.24942 0.0
H1226 H 0.358 0.54786 0.36154 0.0
C1227 C 0.45275 0.60699 0.32262 0.0
C1228 C 0.397 0.62134 0.27801 0.0
C1229 C 0.47941 0.61958 0.34655 0.0
C1230 C 0.28609 0.56989 0.29817 0.0
C1231 C 0.31275 0.5823 0.30324 0.0
C1232 C 0.36803 0.56836 0.33871 0.0
C1233 C 0.43947 0.62065 0.27026 0.0
C1234 C 0.41017 0.60752 0.27758 0.0
C1235 C 0.32574 0.56864 0.36102 0.0
C1236 C 0.35493 0.58207 0.34105 0.0
H1237 H 0.4914 0.68016 0.22934 0.0
H1238 H 0.44668 0.65941 0.17541 0.0
H1239 H 0.40312 0.56862 0.32208 0.0
H1240 H 0.27207 0.50891 0.45625 0.0
H1241 H 0.31841 0.5298 0.46151 0.0
C1242 C 0.23893 0.66268 0.34244 0.0
C1243 C 0.2132 0.64946 0.29089 0.0
C1244 C 0.25246 0.64987 0.40458 0.0
C1245 C 0.24078 0.58277 0.59764 0.0
H1246 H 0.3141 0.61947 0.63192 0.0
C1247 C 0.29189 0.52673 0.923 0.0
C1248 C 0.31841 0.53939 0.94192 0.0
C1249 C 0.27925 0.5405 0.85895 0.0
C1250 C 0.2935 0.60856 0.63104 0.0
H1251 H 0.18023 0.61193 0.30003 0.0
H1252 H 0.20212 0.58939 0.42224 0.0
H1253 H 0.29316 0.64114 0.46755 0.0
H1254 H 0.35232 0.57649 0.91245 0.0
H1255 H 0.33114 0.60047 0.81117 0.0
H1256 H 0.2406 0.55039 0.75754 0.0
C1257 C 0.2136 0.60982 0.39553 0.0
C1258 C 0.28117 0.62138 0.53253 0.0
C1259 C 0.20051 0.62283 0.3244 0.0
C1260 C 0.33184 0.56612 0.90001 0.0
C1261 C 0.31935 0.57999 0.83821 0.0
C1262 C 0.2529 0.57011 0.69765 0.0
C1263 C 0.24016 0.62295 0.43335 0.0
C1264 C 0.25427 0.60889 0.51783 0.0
C1265 C 0.29272 0.56758 0.80969 0.0
C1266 C 0.2796 0.58243 0.71768 0.0
H1267 H 0.24856 0.68309 0.33954 0.0
H1268 H 0.27218 0.66142 0.44124 0.0
H1269 H 0.22035 0.57169 0.59359 0.0
H1270 H 0.2811 0.50609 0.9447 0.0
H1271 H 0.25908 0.52917 0.83677 0.0
C1272 C 0.44706 0.60049 0.82109 0.0
C1273 C 0.42157 0.58562 0.77502 0.0
C1274 C 0.45745 0.62673 0.81114 0.0
C1275 C 0.44152 0.6799 0.69063 0.0
H1276 H 0.51088 0.71515 0.459 0.0
C1277 C 0.51476 0.79989 0.4247 0.0
C1278 C 0.52836 0.81502 0.6348 0.0
C1279 C 0.50065 0.76833 0.40968 0.0
C1280 C 0.49188 0.70569 0.53164 0.0
H1281 H 0.3858 0.58505 0.72483 0.0
H1282 H 0.40376 0.63059 0.69385 0.0
H1283 H 0.49158 0.67186 0.62512 0.0
H1284 H 0.54067 0.81402 -0.01419 0.0
H1285 H 0.52368 0.76361 0.08372 0.0
H1286 H 0.44454 0.71577 0.66007 0.0
C1287 C 0.41637 0.62288 0.73047 0.0
C1288 C 0.48032 0.68037 0.61832 0.0
C1289 C 0.40606 0.59676 0.74347 0.0
C1290 C 0.53093 0.80186 0.87079 0.0
C1291 C 0.52044 0.77033 0.92852 0.0
C1292 C 0.45471 0.70632 0.63525 0.0
C1293 C 0.44263 0.63849 0.75201 0.0
C1294 C 0.45492 0.66659 0.69382 0.0
C1295 C 0.49924 0.7468 0.61363 0.0
C1296 C 0.4812 0.71961 0.57885 0.0
H1297 H 0.45855 0.59179 0.87234 0.0
H1298 H 0.47674 0.63759 0.85875 0.0
H1299 H 0.42168 0.67061 0.74479 0.0
H1300 H 0.51518 0.81176 0.28423 0.0
H1301 H 0.4908 0.76155 0.27345 0.0
C1302 C 0.28433 0.76953 0.56908 0.0
C1303 C 0.27382 0.74407 0.53981 0.0
C1304 C 0.31078 0.78505 0.58532 0.0
C1305 C 0.37527 0.78626 0.57704 0.0
H1306 H 0.39858 0.85741 0.39613 0.0
C1307 C 0.48347 0.86189 0.58836 0.0
C1308 C 0.49421 0.88252 0.43026 0.0
C1309 C 0.45693 0.84478 0.60254 0.0
C1310 C 0.393 0.83786 0.44747 0.0
H1311 H 0.28328 0.71522 0.4941 0.0
H1312 H 0.32948 0.74233 0.51326 0.0
H1313 H 0.35433 0.82861 0.47068 0.0
H1314 H 0.48515 0.90909 0.24386 0.0
H1315 H 0.43927 0.8832 0.31394 0.0
H1316 H 0.41479 0.79664 0.58768 0.0
C1317 C 0.31737 0.75028 0.5362 0.0
C1318 C 0.36684 0.82078 0.49031 0.0
C1319 C 0.29064 0.73455 0.52373 0.0
C1320 C 0.47775 0.89101 0.34239 0.0
C1321 C 0.45091 0.87562 0.38061 0.0
C1322 C 0.40188 0.804 0.55436 0.0
C1323 C 0.32816 0.77613 0.56391 0.0
C1324 C 0.35703 0.79442 0.54876 0.0
C1325 C 0.43991 0.85041 0.48876 0.0
C1326 C 0.41141 0.83054 0.49357 0.0
H1327 H 0.27198 0.77758 0.57875 0.0
H1328 H 0.31726 0.80419 0.61433 0.0
H1329 H 0.36926 0.76634 0.62378 0.0
H1330 H 0.49593 0.85749 0.68552 0.0
H1331 H 0.44983 0.82705 0.70547 0.0
loop_
_geom_bond_atom_site_label_1
_geom_bond_atom_site_label_2
_geom_bond_distance
_geom_bond_site_symmetry_2
_ccdc_geom_bond_type
O0 Cd1 2.223 1_655 S
O0 C8 1.315 1_556 S
Cd1 O0 2.223 1_455 S
Cd1 O4 2.297 1_455 S
Cd1 O5 2.439 1_455 S
Cd1 O11 2.240 . S
Cd2 O3 2.240 . S
Cd2 O10 2.223 . S
Cd2 O12 2.297 . S
Cd2 O13 2.439 . S
O3 Cd2 2.240 . S
O3 C8 1.279 1_455 S
O4 Cd1 2.297 1_655 S
O4 C6 1.247 . S
O5 Cd1 2.439 1_655 S
O5 C6 1.208 . S
C6 O4 1.247 . S
C6 O5 1.208 . S
C7 O12 1.247 . S
C7 O13 1.208 . S
C8 O0 1.315 1_554 S
C8 O3 1.279 1_655 S
C9 O10 1.315 1_556 S
C9 O11 1.279 . S
O10 Cd2 2.223 . S
O10 C9 1.315 1_554 S
O11 Cd1 2.240 . S
O11 C9 1.279 . S
O12 Cd2 2.297 . S
O12 C7 1.247 . S
O13 Cd2 2.439 . S
O13 C7 1.208 . S
O14 Cd15 2.223 . S
O14 C22 1.315 1_554 S
Cd15 O14 2.223 . S
Cd15 O18 2.297 . S
Cd15 O19 2.439 . S
Cd15 O25 2.240 . S
Cd16 O17 2.240 . S
Cd16 O24 2.223 . S
Cd16 O26 2.297 . S
Cd16 O27 2.439 . S
O17 Cd16 2.240 . S
O17 C22 1.279 . S
O18 Cd15 2.297 . S
O18 C20 1.247 . S
O19 Cd15 2.439 . S
O19 C20 1.208 . S
C20 O18 1.247 . S
C20 O19 1.208 . S
C21 O26 1.247 . S
C21 O27 1.208 . S
C22 O14 1.315 1_556 S
C22 O17 1.279 . S
C23 O24 1.315 1_554 S
C23 O25 1.279 . S
O24 Cd16 2.223 . S
O24 C23 1.315 1_556 S
O25 Cd15 2.240 . S
O25 C23 1.279 . S
O26 Cd16 2.297 . S
O26 C21 1.247 . S
O27 Cd16 2.439 . S
O27 C21 1.208 . S
O28 Cd29 2.223 1_554 S
O28 C36 1.315 . S
Cd29 O28 2.223 1_556 S
Cd29 O32 2.297 . S
Cd29 O33 2.439 . S
Cd29 O39 2.240 . S
Cd30 O31 2.240 . S
Cd30 O38 2.223 1_545 S
Cd30 O40 2.297 1_545 S
Cd30 O41 2.439 . S
O31 Cd30 2.240 . S
O31 C36 1.279 . S
O32 Cd29 2.297 . S
O32 C34 1.247 . S
O33 Cd29 2.439 . S
O33 C34 1.208 . S
C34 O32 1.247 . S
C34 O33 1.208 . S
C35 O40 1.247 . S
C35 O41 1.208 1_565 S
C36 O28 1.315 . S
C36 O31 1.279 . S
C37 O38 1.315 1_546 S
C37 O39 1.279 . S
O38 Cd30 2.223 1_565 S
O38 C37 1.315 1_564 S
O39 Cd29 2.240 . S
O39 C37 1.279 . S
O40 Cd30 2.297 1_565 S
O40 C35 1.247 . S
O41 Cd30 2.439 . S
O41 C35 1.208 1_545 S
O42 Cd43 2.223 . S
O42 C50 1.315 1_554 S
Cd43 O42 2.223 . S
Cd43 O46 2.297 . S
Cd43 O47 2.439 . S
Cd43 O53 2.240 . S
Cd44 O45 2.240 . S
Cd44 O52 2.223 1_455 S
Cd44 O54 2.297 1_455 S
Cd44 O55 2.439 1_455 S
O45 Cd44 2.240 . S
O45 C50 1.279 . S
O46 Cd43 2.297 . S
O46 C48 1.247 . S
O47 Cd43 2.439 . S
O47 C48 1.208 . S
C48 O46 1.247 . S
C48 O47 1.208 . S
C49 O54 1.247 . S
C49 O55 1.208 . S
C50 O42 1.315 1_556 S
C50 O45 1.279 . S
C51 O52 1.315 1_554 S
C51 O53 1.279 1_655 S
O52 Cd44 2.223 1_655 S
O52 C51 1.315 1_556 S
O53 Cd43 2.240 . S
O53 C51 1.279 1_455 S
O54 Cd44 2.297 1_655 S
O54 C49 1.247 . S
O55 Cd44 2.439 1_655 S
O55 C49 1.208 . S
O56 Cd57 2.223 . S
O56 C64 1.315 1_556 S
Cd57 O56 2.223 . S
Cd57 O60 2.297 . S
Cd57 O61 2.439 . S
Cd57 O67 2.240 . S
Cd58 O59 2.240 . S
Cd58 O66 2.223 . S
Cd58 O68 2.297 . S
Cd58 O69 2.439 . S
O59 Cd58 2.240 . S
O59 C64 1.279 . S
O60 Cd57 2.297 . S
O60 C62 1.247 . S
O61 Cd57 2.439 . S
O61 C62 1.208 . S
C62 O60 1.247 . S
C62 O61 1.208 . S
C63 O68 1.247 . S
C63 O69 1.208 . S
C64 O56 1.315 1_554 S
C64 O59 1.279 . S
C65 O66 1.315 1_556 S
C65 O67 1.279 . S
O66 Cd58 2.223 . S
O66 C65 1.315 1_554 S
O67 Cd57 2.240 . S
O67 C65 1.279 . S
O68 Cd58 2.297 . S
O68 C63 1.247 . S
O69 Cd58 2.439 . S
O69 C63 1.208 . S
O70 Cd71 2.223 1_556 S
O70 C78 1.315 . S
Cd71 O70 2.223 1_554 S
Cd71 O74 2.297 . S
Cd71 O75 2.439 . S
Cd71 O81 2.240 1_565 S
Cd72 O73 2.288 . S
Cd72 O80 2.223 . S
Cd72 O82 2.297 . S
Cd72 O83 2.439 . S
O73 Cd72 2.288 . S
O73 C78 1.239 1_545 S
O74 Cd71 2.297 . S
O74 C76 1.247 . S
O75 Cd71 2.439 . S
O75 C76 1.208 . S
C76 O74 1.247 . S
C76 O75 1.208 . S
C77 O82 1.247 . S
C77 O83 1.208 . S
C78 O70 1.315 . S
C78 O73 1.239 1_565 S
C79 O80 1.315 1_554 S
C79 O81 1.279 . S
O80 Cd72 2.223 . S
O80 C79 1.315 1_556 S
O81 Cd71 2.240 1_545 S
O81 C79 1.279 . S
O82 Cd72 2.297 . S
O82 C77 1.247 . S
O83 Cd72 2.439 . S
O83 C77 1.208 . S
O84 Cd85 2.223 . S
O84 C92 1.315 1_554 S
Cd85 O84 2.223 . S
Cd85 O88 2.297 . S
Cd85 O89 2.439 . S
Cd85 O95 2.240 . S
Cd86 O87 2.240 . S
Cd86 O94 2.223 . S
Cd86 O96 2.297 . S
Cd86 O97 2.439 . S
O87 Cd86 2.240 . S
O87 C92 1.279 . S
O88 Cd85 2.297 . S
O88 C90 1.247 . S
O89 Cd85 2.439 . S
O89 C90 1.208 . S
C90 O88 1.247 . S
C90 O89 1.208 . S
C91 O96 1.247 . S
C91 O97 1.208 . S
C92 O84 1.315 1_556 S
C92 O87 1.279 . S
C93 O94 1.315 1_554 S
C93 O95 1.279 . S
O94 Cd86 2.223 . S
O94 C93 1.315 1_556 S
O95 Cd85 2.240 . S
O95 C93 1.279 . S
O96 Cd86 2.297 . S
O96 C91 1.247 . S
O97 Cd86 2.439 . S
O97 C91 1.208 . S
O98 Cd99 2.223 . S
O98 C106 1.315 . S
Cd99 O98 2.223 . S
Cd99 O102 2.297 . S
Cd99 O103 2.439 . S
Cd99 O109 2.240 . S
Cd100 O101 2.240 . S
Cd100 O108 2.223 . S
Cd100 O110 2.297 . S
Cd100 O111 2.439 . S
O101 Cd100 2.240 . S
O101 C106 1.279 . S
O102 Cd99 2.297 . S
O102 C104 1.247 . S
O103 Cd99 2.439 . S
O103 C104 1.208 . S
C104 O102 1.247 . S
C104 O103 1.208 . S
C105 O110 1.247 . S
C105 O111 1.208 . S
C106 O98 1.315 . S
C106 O101 1.279 . S
C107 O108 1.315 . S
C107 O109 1.279 . S
O108 Cd100 2.223 . S
O108 C107 1.315 . S
O109 Cd99 2.240 . S
O109 C107 1.279 . S
O110 Cd100 2.297 . S
O110 C105 1.247 . S
O111 Cd100 2.439 . S
O111 C105 1.208 . S
O112 Cd113 2.223 . S
O112 C120 1.315 . S
Cd113 O112 2.223 . S
Cd113 O116 2.297 1_556 S
Cd113 O117 2.439 . S
Cd113 O123 2.240 . S
Cd114 O115 2.240 . S
Cd114 O122 2.223 . S
Cd114 O124 2.297 . S
Cd114 O125 2.439 . S
O115 Cd114 2.240 . S
O115 C120 1.279 . S
O116 Cd113 2.297 1_554 S
O116 C118 1.247 1_554 S
O117 Cd113 2.439 . S
O117 C118 1.208 . S
C118 O116 1.247 1_556 S
C118 O117 1.208 . S
C119 O124 1.247 . S
C119 O125 1.208 . S
C120 O112 1.315 . S
C120 O115 1.279 . S
C121 O122 1.315 . S
C121 O123 1.279 . S
O122 Cd114 2.223 . S
O122 C121 1.315 . S
O123 Cd113 2.240 . S
O123 C121 1.279 . S
O124 Cd114 2.297 . S
O124 C119 1.247 . S
O125 Cd114 2.439 . S
O125 C119 1.208 . S
O126 Cd127 2.223 . S
O126 C134 1.315 1_554 S
Cd127 O126 2.223 . S
Cd127 O130 2.297 . S
Cd127 O131 2.439 . S
Cd127 O137 2.240 . S
Cd128 O129 2.240 . S
Cd128 O136 2.223 . S
Cd128 O138 2.297 . S
Cd128 O139 2.439 . S
O129 Cd128 2.240 . S
O129 C134 1.279 . S
O130 Cd127 2.297 . S
O130 C132 1.247 . S
O131 Cd127 2.439 . S
O131 C132 1.208 . S
C132 O130 1.247 . S
C132 O131 1.208 . S
C133 O138 1.247 . S
C133 O139 1.208 . S
C134 O126 1.315 1_556 S
C134 O129 1.279 . S
C135 O136 1.315 1_554 S
C135 O137 1.279 . S
O136 Cd128 2.223 . S
O136 C135 1.315 1_556 S
O137 Cd127 2.240 . S
O137 C135 1.279 . S
O138 Cd128 2.297 . S
O138 C133 1.247 . S
O139 Cd128 2.439 . S
O139 C133 1.208 . S
O140 Cd141 2.223 1_556 S
O140 C148 1.315 . S
Cd141 O140 2.223 1_554 S
Cd141 O144 2.297 . S
Cd141 O145 2.439 1_554 S
Cd141 O151 2.240 1_554 S
Cd142 O143 2.240 . S
Cd142 O150 2.223 . S
Cd142 O152 2.297 . S
Cd142 O153 2.439 . S
O143 Cd142 2.240 . S
O143 C148 1.279 . S
O144 Cd141 2.297 . S
O144 C146 1.247 1_554 S
O145 Cd141 2.439 1_556 S
O145 C146 1.208 . S
C146 O144 1.247 1_556 S
C146 O145 1.208 . S
C147 O152 1.247 . S
C147 O153 1.208 . S
C148 O140 1.315 . S
C148 O143 1.279 . S
C149 O150 1.315 . S
C149 O151 1.279 . S
O150 Cd142 2.223 . S
O150 C149 1.315 . S
O151 Cd141 2.240 1_556 S
O151 C149 1.279 . S
O152 Cd142 2.297 . S
O152 C147 1.247 . S
O153 Cd142 2.439 . S
O153 C147 1.208 . S
O154 Cd155 2.223 . S
O154 C162 1.315 . S
Cd155 O154 2.223 . S
Cd155 O158 2.297 . S
Cd155 O159 2.439 . S
Cd155 O165 2.240 . S
Cd156 O157 2.240 . S
Cd156 O164 2.223 1_556 S
Cd156 O166 2.297 . S
Cd156 O167 2.439 . S
O157 Cd156 2.240 . S
O157 C162 1.279 1_556 S
O158 Cd155 2.297 . S
O158 C160 1.247 . S
O159 Cd155 2.439 . S
O159 C160 1.208 . S
C160 O158 1.247 . S
C160 O159 1.208 . S
C161 O166 1.247 . S
C161 O167 1.208 . S
C162 O154 1.315 . S
C162 O157 1.279 1_554 S
C163 O164 1.315 . S
C163 O165 1.279 . S
O164 Cd156 2.223 1_554 S
O164 C163 1.315 . S
O165 Cd155 2.240 . S
O165 C163 1.279 . S
O166 Cd156 2.297 . S
O166 C161 1.247 . S
O167 Cd156 2.439 . S
O167 C161 1.208 . S
O168 Cd169 2.223 . S
O168 C176 1.315 1_556 S
Cd169 O168 2.223 . S
Cd169 O172 2.297 . S
Cd169 O173 2.439 . S
Cd169 O179 2.240 . S
Cd170 O171 2.240 . S
Cd170 O178 2.223 . S
Cd170 O180 2.297 . S
Cd170 O181 2.439 . S
O171 Cd170 2.240 . S
O171 C176 1.279 . S
O172 Cd169 2.297 . S
O172 C174 1.247 . S
O173 Cd169 2.439 . S
O173 C174 1.208 . S
C174 O172 1.247 . S
C174 O173 1.208 . S
C175 O180 1.247 . S
C175 O181 1.208 . S
C176 O168 1.315 1_554 S
C176 O171 1.279 . S
C177 O178 1.315 1_556 S
C177 O179 1.279 . S
O178 Cd170 2.223 . S
O178 C177 1.315 1_554 S
O179 Cd169 2.240 . S
O179 C177 1.279 . S
O180 Cd170 2.297 . S
O180 C175 1.247 . S
O181 Cd170 2.439 . S
O181 C175 1.208 . S
O182 Cd183 2.223 . S
O182 C190 1.315 . S
Cd183 O182 2.223 . S
Cd183 O186 2.297 . S
Cd183 O187 2.439 . S
Cd183 O193 2.240 . S
Cd184 O185 2.240 . S
Cd184 O192 2.223 1_556 S
Cd184 O194 2.297 . S
Cd184 O195 2.439 1_556 S
O185 Cd184 2.240 . S
O185 C190 1.279 1_556 S
O186 Cd183 2.297 . S
O186 C188 1.247 . S
O187 Cd183 2.439 . S
O187 C188 1.208 . S
C188 O186 1.247 . S
C188 O187 1.208 . S
C189 O194 1.247 . S
C189 O195 1.208 1_556 S
C190 O182 1.315 . S
C190 O185 1.279 1_554 S
C191 O192 1.315 . S
C191 O193 1.279 . S
O192 Cd184 2.223 1_554 S
O192 C191 1.315 . S
O193 Cd183 2.240 . S
O193 C191 1.279 . S
O194 Cd184 2.297 . S
O194 C189 1.247 . S
O195 Cd184 2.439 1_554 S
O195 C189 1.208 1_554 S
O196 Cd197 2.223 . S
O196 C204 1.315 . S
Cd197 O196 2.223 . S
Cd197 O200 2.297 . S
Cd197 O201 2.439 . S
Cd197 O207 2.240 . S
Cd198 O199 2.240 . S
Cd198 O206 2.223 1_554 S
Cd198 O208 2.297 . S
Cd198 O209 2.439 1_554 S
O199 Cd198 2.240 . S
O199 C204 1.279 1_554 S
O200 Cd197 2.297 . S
O200 C202 1.247 . S
O201 Cd197 2.439 . S
O201 C202 1.208 . S
C202 O200 1.247 . S
C202 O201 1.208 . S
C203 O208 1.247 . S
C203 O209 1.208 1_554 S
C204 O196 1.315 . S
C204 O199 1.279 1_556 S
C205 O206 1.315 . S
C205 O207 1.279 . S
O206 Cd198 2.223 1_556 S
O206 C205 1.315 . S
O207 Cd197 2.240 . S
O207 C205 1.279 . S
O208 Cd198 2.297 . S
O208 C203 1.247 . S
O209 Cd198 2.439 1_556 S
O209 C203 1.208 1_556 S
O210 Cd211 2.223 . S
O210 C218 1.315 1_554 S
Cd211 O210 2.223 . S
Cd211 O214 2.297 . S
Cd211 O215 2.439 . S
Cd211 O221 2.240 . S
Cd212 O213 2.240 . S
Cd212 O220 2.223 . S
Cd212 O222 2.297 . S
Cd212 O223 2.439 . S
O213 Cd212 2.240 . S
O213 C218 1.279 . S
O214 Cd211 2.297 . S
O214 C216 1.247 . S
O215 Cd211 2.439 . S
O215 C216 1.208 . S
C216 O214 1.247 . S
C216 O215 1.208 . S
C217 O222 1.247 . S
C217 O223 1.208 . S
C218 O210 1.315 1_556 S
C218 O213 1.279 . S
C219 O220 1.315 1_554 S
C219 O221 1.279 . S
O220 Cd212 2.223 . S
O220 C219 1.315 1_556 S
O221 Cd211 2.240 . S
O221 C219 1.279 . S
O222 Cd212 2.297 . S
O222 C217 1.247 . S
O223 Cd212 2.439 . S
O223 C217 1.208 . S
O224 Cd225 2.223 . S
O224 C232 1.315 . S
Cd225 O224 2.223 . S
Cd225 O228 2.297 . S
Cd225 O229 2.439 . S
Cd225 O235 2.240 . S
Cd226 O227 2.240 . S
Cd226 O234 2.223 . S
Cd226 O236 2.297 . S
Cd226 O237 2.439 . S
O227 Cd226 2.240 . S
O227 C232 1.279 . S
O228 Cd225 2.297 . S
O228 C230 1.247 . S
O229 Cd225 2.439 . S
O229 C230 1.208 . S
C230 O228 1.247 . S
C230 O229 1.208 . S
C231 O236 1.247 . S
C231 O237 1.208 . S
C232 O224 1.315 . S
C232 O227 1.279 . S
C233 O234 1.315 . S
C233 O235 1.279 . S
O234 Cd226 2.223 . S
O234 C233 1.315 . S
O235 Cd225 2.240 . S
O235 C233 1.279 . S
O236 Cd226 2.297 . S
O236 C231 1.247 . S
O237 Cd226 2.439 . S
O237 C231 1.208 . S
O238 Cd239 2.223 . S
O238 C246 1.315 . S
Cd239 O238 2.223 . S
Cd239 O242 2.297 . S
Cd239 O243 2.439 . S
Cd239 O249 2.240 . S
Cd240 O241 2.240 . S
Cd240 O248 2.223 . S
Cd240 O250 2.297 1_554 S
Cd240 O251 2.439 . S
O241 Cd240 2.240 . S
O241 C246 1.279 . S
O242 Cd239 2.297 . S
O242 C244 1.247 . S
O243 Cd239 2.439 . S
O243 C244 1.208 . S
C244 O242 1.247 . S
C244 O243 1.208 . S
C245 O250 1.247 1_554 S
C245 O251 1.208 . S
C246 O238 1.315 . S
C246 O241 1.279 . S
C247 O248 1.315 . S
C247 O249 1.279 . S
O248 Cd240 2.223 . S
O248 C247 1.315 . S
O249 Cd239 2.240 . S
O249 C247 1.279 . S
O250 Cd240 2.297 1_556 S
O250 C245 1.247 1_556 S
O251 Cd240 2.439 . S
O251 C245 1.208 . S
C252 C253 1.349 . S
C252 C254 1.327 . S
C252 H277 0.950 . S
C253 C252 1.349 . S
C253 C269 1.349 1_556 S
C254 C252 1.327 . S
C254 C273 1.429 . S
C254 H278 0.950 . S
C255 C272 1.574 . S
C255 C274 1.368 1_554 S
C255 H279 0.949 . S
H256 C260 0.949 . S
C257 C258 1.349 . S
C257 C259 1.327 . S
C257 H280 0.950 . S
C258 C257 1.349 . S
C258 C270 1.347 1_554 S
C259 C257 1.327 . S
C259 C275 1.429 . S
C259 H281 0.950 . S
C260 H256 0.949 . S
C260 C268 1.574 . S
C260 C276 1.368 1_556 S
H261 C269 0.950 . S
H262 C267 0.950 . S
H263 C268 0.949 . S
H264 C270 0.952 . S
H265 C271 0.950 . S
H266 C272 0.949 . S
C267 H262 0.950 . S
C267 C269 1.327 . S
C267 C273 1.429 1_554 S
C268 C260 1.574 . S
C268 H263 0.949 . S
C268 C274 1.368 . S
C269 C253 1.349 1_554 S
C269 H261 0.950 . S
C269 C267 1.327 . S
C270 C258 1.347 1_556 S
C270 H264 0.952 . S
C270 C271 1.327 . S
C271 H265 0.950 . S
C271 C270 1.327 . S
C271 C275 1.429 1_556 S
C272 C255 1.574 . S
C272 H266 0.949 . S
C272 C276 1.368 . S
C273 C254 1.429 . S
C273 C267 1.429 1_556 S
C273 C274 1.523 . S
C274 C255 1.368 1_556 S
C274 C268 1.368 . S
C274 C273 1.523 . S
C275 C259 1.429 . S
C275 C271 1.429 1_554 S
C275 C276 1.523 . S
C276 C260 1.368 1_554 S
C276 C272 1.368 . S
C276 C275 1.523 . S
H277 C252 0.950 . S
H278 C254 0.950 . S
H279 C255 0.949 . S
H280 C257 0.950 . S
H281 C259 0.950 . S
C282 C283 1.349 . S
C282 C284 1.327 . S
C282 H307 0.950 . S
C283 C282 1.349 . S
C283 C299 1.348 1_554 S
C284 C282 1.327 . S
C284 C303 1.429 . S
C284 H308 0.950 . S
C285 C302 1.574 . S
C285 C304 1.368 . S
C285 H309 0.949 . S
H286 C290 0.949 1_554 S
C287 C288 1.349 . S
C287 C289 1.327 . S
C287 H310 0.950 . S
C288 C287 1.349 . S
C288 C300 1.349 . S
C289 C287 1.327 . S
C289 C305 1.429 . S
C289 H311 0.950 . S
C290 H286 0.949 1_556 S
C290 C298 1.574 1_556 S
C290 C306 1.368 . S
H291 C299 0.950 . S
H292 C297 0.950 . S
H293 C298 0.949 . S
H294 C300 0.950 . S
H295 C301 0.950 . S
H296 C302 0.949 . S
C297 H292 0.950 . S
C297 C299 1.327 . S
C297 C303 1.429 1_556 S
C298 C290 1.574 1_554 S
C298 H293 0.949 . S
C298 C304 1.368 1_554 S
C299 C283 1.348 1_556 S
C299 H291 0.950 . S
C299 C297 1.327 . S
C300 C288 1.349 . S
C300 H294 0.950 . S
C300 C301 1.327 . S
C301 H295 0.950 . S
C301 C300 1.327 . S
C301 C305 1.429 . S
C302 C285 1.574 . S
C302 H296 0.949 . S
C302 C306 1.368 . S
C303 C284 1.429 . S
C303 C297 1.429 1_554 S
C303 C304 1.523 1_554 S
C304 C285 1.368 . S
C304 C298 1.368 1_556 S
C304 C303 1.523 1_556 S
C305 C289 1.429 . S
C305 C301 1.429 . S
C305 C306 1.523 . S
C306 C290 1.368 . S
C306 C302 1.368 . S
C306 C305 1.523 . S
H307 C282 0.950 . S
H308 C284 0.950 . S
H309 C285 0.949 . S
H310 C287 0.950 . S
H311 C289 0.950 . S
C312 C313 1.349 . S
C312 C314 1.327 . S
C312 H337 0.950 . S
C313 C312 1.349 . S
C313 C329 1.349 1_554 S
C314 C312 1.327 . S
C314 C333 1.429 . S
C314 H338 0.950 . S
C315 C332 1.574 . S
C315 C334 1.368 1_556 S
C315 H339 0.949 . S
H316 C320 0.949 . S
C317 C318 1.349 1_556 S
C317 C319 1.327 . S
C317 H340 0.950 . S
C318 C317 1.349 1_554 S
C318 C330 1.349 . S
C319 C317 1.327 . S
C319 C335 1.429 1_556 S
C319 H341 0.950 . S
C320 H316 0.949 . S
C320 C328 1.574 . S
C320 C336 1.368 . S
H321 C329 0.950 . S
H322 C327 0.950 . S
H323 C328 0.949 . S
H324 C330 0.950 . S
H325 C331 0.950 . S
H326 C332 0.949 . S
C327 H322 0.950 . S
C327 C329 1.327 . S
C327 C333 1.429 1_556 S
C328 C320 1.574 . S
C328 H323 0.949 . S
C328 C334 1.368 . S
C329 C313 1.349 1_556 S
C329 H321 0.950 . S
C329 C327 1.327 . S
C330 C318 1.349 . S
C330 H324 0.950 . S
C330 C331 1.327 . S
C331 H325 0.950 . S
C331 C330 1.327 . S
C331 C335 1.429 . S
C332 C315 1.574 . S
C332 H326 0.949 . S
C332 C336 1.368 1_556 S
C333 C314 1.429 . S
C333 C327 1.429 1_554 S
C333 C334 1.523 . S
C334 C315 1.368 1_554 S
C334 C328 1.368 . S
C334 C333 1.523 . S
C335 C319 1.429 1_554 S
C335 C331 1.429 . S
C335 C336 1.523 . S
C336 C320 1.368 . S
C336 C332 1.368 1_554 S
C336 C335 1.523 . S
H337 C312 0.950 . S
H338 C314 0.950 . S
H339 C315 0.949 . S
H340 C317 0.950 . S
H341 C319 0.950 . S
C342 C343 1.349 . S
C342 C344 1.327 . S
C342 H367 0.950 . S
C343 C342 1.349 . S
C343 C359 1.349 1_554 S
C344 C342 1.327 . S
C344 C363 1.429 . S
C344 H368 0.950 . S
C345 C362 1.574 . S
C345 C364 1.368 1_556 S
C345 H369 0.949 . S
H346 C350 0.949 . S
C347 C348 1.349 . S
C347 C349 1.327 . S
C347 H370 0.950 . S
C348 C347 1.349 . S
C348 C360 1.349 1_556 S
C349 C347 1.327 . S
C349 C365 1.429 . S
C349 H371 0.950 . S
C350 H346 0.949 . S
C350 C358 1.574 . S
C350 C366 1.368 1_554 S
H351 C359 0.950 . S
H352 C357 0.950 . S
H353 C358 0.949 . S
H354 C360 0.950 . S
H355 C361 0.950 . S
H356 C362 0.949 . S
C357 H352 0.950 . S
C357 C359 1.327 . S
C357 C363 1.429 1_556 S
C358 C350 1.574 . S
C358 H353 0.949 . S
C358 C364 1.368 . S
C359 C343 1.349 1_556 S
C359 H351 0.950 . S
C359 C357 1.327 . S
C360 C348 1.349 1_554 S
C360 H354 0.950 . S
C360 C361 1.327 . S
C361 H355 0.950 . S
C361 C360 1.327 . S
C361 C365 1.429 1_554 S
C362 C345 1.574 . S
C362 H356 0.949 . S
C362 C366 1.368 . S
C363 C344 1.429 . S
C363 C357 1.429 1_554 S
C363 C364 1.523 . S
C364 C345 1.368 1_554 S
C364 C358 1.368 . S
C364 C363 1.523 . S
C365 C349 1.429 . S
C365 C361 1.429 1_556 S
C365 C366 1.523 . S
C366 C350 1.368 1_556 S
C366 C362 1.368 . S
C366 C365 1.523 . S
H367 C342 0.950 . S
H368 C344 0.950 . S
H369 C345 0.949 . S
H370 C347 0.950 . S
H371 C349 0.950 . S
C372 C373 1.349 . S
C372 C374 1.327 . S
C372 H397 0.950 . S
C373 C372 1.349 . S
C373 C389 1.349 . S
C374 C372 1.327 . S
C374 C393 1.429 . S
C374 H398 0.950 . S
C375 C392 1.574 . S
C375 C394 1.368 1_556 S
C375 H399 0.949 . S
H376 C380 0.949 . S
C377 C378 1.349 . S
C377 C379 1.327 . S
C377 H400 0.950 . S
C378 C377 1.349 . S
C378 C390 1.349 1_556 S
C379 C377 1.327 . S
C379 C395 1.429 1_556 S
C379 H401 0.950 . S
C380 H376 0.949 . S
C380 C388 1.574 . S
C380 C396 1.368 . S
H381 C389 0.950 1_556 S
H382 C387 0.950 1_556 S
H383 C388 0.949 . S
H384 C390 0.950 . S
H385 C391 0.950 . S
H386 C392 0.949 . S
C387 H382 0.950 1_554 S
C387 C389 1.327 . S
C387 C393 1.429 . S
C388 C380 1.574 . S
C388 H383 0.949 . S
C388 C394 1.368 . S
C389 C373 1.349 . S
C389 H381 0.950 1_554 S
C389 C387 1.327 . S
C390 C378 1.349 1_554 S
C390 H384 0.950 . S
C390 C391 1.327 . S
C391 H385 0.950 . S
C391 C390 1.327 . S
C391 C395 1.429 . S
C392 C375 1.574 . S
C392 H386 0.949 . S
C392 C396 1.368 1_556 S
C393 C374 1.429 . S
C393 C387 1.429 . S
C393 C394 1.523 . S
C394 C375 1.368 1_554 S
C394 C388 1.368 . S
C394 C393 1.523 . S
C395 C379 1.429 1_554 S
C395 C391 1.429 . S
C395 C396 1.523 . S
C396 C380 1.368 . S
C396 C392 1.368 1_554 S
C396 C395 1.523 . S
H397 C372 0.950 . S
H398 C374 0.950 . S
H399 C375 0.949 . S
H400 C377 0.950 . S
H401 C379 0.950 . S
C402 C403 1.349 1_554 S
C402 C404 1.327 . S
C402 H427 0.950 . S
C403 C402 1.349 1_556 S
C403 C419 1.349 . S
C404 C402 1.327 . S
C404 C423 1.429 1_554 S
C404 H428 0.950 . S
C405 C422 1.574 . S
C405 C424 1.368 . S
C405 H429 0.949 . S
H406 C410 0.949 . S
C407 C408 1.349 . S
C407 C409 1.327 . S
C407 H430 0.950 . S
C408 C407 1.349 . S
C408 C420 1.349 . S
C409 C407 1.327 . S
C409 C425 1.429 . S
C409 H431 0.950 . S
C410 H406 0.949 . S
C410 C418 1.574 . S
C410 C426 1.368 1_554 S
H411 C419 0.950 . S
H412 C417 0.950 . S
H413 C418 0.949 . S
H414 C420 0.950 1_554 S
H415 C421 0.950 1_554 S
H416 C422 0.949 . S
C417 H412 0.950 . S
C417 C419 1.327 . S
C417 C423 1.429 . S
C418 C410 1.574 . S
C418 H413 0.949 . S
C418 C424 1.368 1_554 S
C419 C403 1.349 . S
C419 H411 0.950 . S
C419 C417 1.327 . S
C420 C408 1.349 . S
C420 H414 0.950 1_556 S
C420 C421 1.327 . S
C421 H415 0.950 1_556 S
C421 C420 1.327 . S
C421 C425 1.429 . S
C422 C405 1.574 . S
C422 H416 0.949 . S
C422 C426 1.368 . S
C423 C404 1.429 1_556 S
C423 C417 1.429 . S
C423 C424 1.523 . S
C424 C405 1.368 . S
C424 C418 1.368 1_556 S
C424 C423 1.523 . S
C425 C409 1.429 . S
C425 C421 1.429 . S
C425 C426 1.523 . S
C426 C410 1.368 1_556 S
C426 C422 1.368 . S
C426 C425 1.523 . S
H427 C402 0.950 . S
H428 C404 0.950 . S
H429 C405 0.949 . S
H430 C407 0.950 . S
H431 C409 0.950 . S
C432 C433 1.349 1_556 S
C432 C434 1.327 . S
C432 H457 0.950 . S
C433 C432 1.349 1_554 S
C433 C449 1.349 . S
C434 C432 1.327 . S
C434 C453 1.429 1_556 S
C434 H458 0.950 . S
C435 C452 1.574 . S
C435 C454 1.368 . S
C435 H459 0.949 . S
H436 C440 0.949 . S
C437 C438 1.349 1_554 S
C437 C439 1.327 . S
C437 H460 0.950 . S
C438 C437 1.349 1_556 S
C438 C450 1.349 . S
C439 C437 1.327 . S
C439 C455 1.429 1_554 S
C439 H461 0.950 . S
C440 H436 0.949 . S
C440 C448 1.574 . S
C440 C456 1.368 . S
H441 C449 0.950 . S
H442 C447 0.950 . S
H443 C448 0.949 . S
H444 C450 0.950 . S
H445 C451 0.950 . S
H446 C452 0.949 . S
C447 H442 0.950 . S
C447 C449 1.327 . S
C447 C453 1.429 . S
C448 C440 1.574 . S
C448 H443 0.949 . S
C448 C454 1.368 1_556 S
C449 C433 1.349 . S
C449 H441 0.950 . S
C449 C447 1.327 . S
C450 C438 1.349 . S
C450 H444 0.950 . S
C450 C451 1.327 . S
C451 H445 0.950 . S
C451 C450 1.327 . S
C451 C455 1.429 . S
C452 C435 1.574 . S
C452 H446 0.949 . S
C452 C456 1.368 1_554 S
C453 C434 1.429 1_554 S
C453 C447 1.429 . S
C453 C454 1.523 . S
C454 C435 1.368 . S
C454 C448 1.368 1_554 S
C454 C453 1.523 . S
C455 C439 1.429 1_556 S
C455 C451 1.429 . S
C455 C456 1.523 . S
C456 C440 1.368 . S
C456 C452 1.368 1_556 S
C456 C455 1.523 . S
H457 C432 0.950 . S
H458 C434 0.950 . S
H459 C435 0.949 . S
H460 C437 0.950 . S
H461 C439 0.950 . S
C462 C463 1.349 . S
C462 C464 1.327 1_556 S
C462 H487 0.950 1_556 S
C463 C462 1.349 . S
C463 C479 1.349 . S
C464 C462 1.327 1_554 S
C464 C483 1.429 1_554 S
C464 H488 0.950 . S
C465 C482 1.574 1_556 S
C465 C484 1.368 1_556 S
C465 H489 0.949 . S
H466 C470 0.949 . S
C467 C468 1.349 . S
C467 C469 1.327 . S
C467 H490 0.950 . S
C468 C467 1.349 . S
C468 C480 1.349 . S
C469 C467 1.327 . S
C469 C485 1.429 . S
C469 H491 0.950 . S
C470 H466 0.949 . S
C470 C478 1.574 . S
C470 C486 1.368 . S
H471 C479 0.950 . S
H472 C477 0.950 . S
H473 C478 0.949 . S
H474 C480 0.950 . S
H475 C481 0.950 . S
H476 C482 0.949 1_556 S
C477 H472 0.950 . S
C477 C479 1.327 . S
C477 C483 1.429 . S
C478 C470 1.574 . S
C478 H473 0.949 . S
C478 C484 1.368 . S
C479 C463 1.349 . S
C479 H471 0.950 . S
C479 C477 1.327 . S
C480 C468 1.349 . S
C480 H474 0.950 . S
C480 C481 1.327 . S
C481 H475 0.950 . S
C481 C480 1.327 . S
C481 C485 1.429 . S
C482 C465 1.574 1_554 S
C482 H476 0.949 1_554 S
C482 C486 1.368 . S
C483 C464 1.429 1_556 S
C483 C477 1.429 . S
C483 C484 1.523 1_556 S
C484 C465 1.368 1_554 S
C484 C478 1.368 . S
C484 C483 1.523 1_554 S
C485 C469 1.429 . S
C485 C481 1.429 . S
C485 C486 1.523 . S
C486 C470 1.368 . S
C486 C482 1.368 . S
C486 C485 1.523 . S
H487 C462 0.950 1_554 S
H488 C464 0.950 . S
H489 C465 0.949 . S
H490 C467 0.950 . S
H491 C469 0.950 . S
C492 C493 1.349 1_554 S
C492 C494 1.327 . S
C492 H517 0.950 . S
C493 C492 1.349 1_556 S
C493 C509 1.349 . S
C494 C492 1.327 . S
C494 C513 1.429 1_554 S
C494 H518 0.950 . S
C495 C512 1.574 . S
C495 C514 1.368 . S
C495 H519 0.949 . S
H496 C500 0.949 . S
C497 C498 1.349 . S
C497 C499 1.327 . S
C497 H520 0.950 . S
C498 C497 1.349 . S
C498 C510 1.349 1_556 S
C499 C497 1.327 . S
C499 C515 1.429 . S
C499 H521 0.950 . S
C500 H496 0.949 . S
C500 C508 1.574 . S
C500 C516 1.368 1_554 S
H501 C509 0.950 . S
H502 C507 0.950 . S
H503 C508 0.949 . S
H504 C510 0.950 . S
H505 C511 0.950 . S
H506 C512 0.949 . S
C507 H502 0.950 . S
C507 C509 1.327 . S
C507 C513 1.429 . S
C508 C500 1.574 . S
C508 H503 0.949 . S
C508 C514 1.368 1_554 S
C509 C493 1.349 . S
C509 H501 0.950 . S
C509 C507 1.327 . S
C510 C498 1.349 1_554 S
C510 H504 0.950 . S
C510 C511 1.327 . S
C511 H505 0.950 . S
C511 C510 1.327 . S
C511 C515 1.429 1_554 S
C512 C495 1.574 . S
C512 H506 0.949 . S
C512 C516 1.368 . S
C513 C494 1.429 1_556 S
C513 C507 1.429 . S
C513 C514 1.523 . S
C514 C495 1.368 . S
C514 C508 1.368 1_556 S
C514 C513 1.523 . S
C515 C499 1.429 . S
C515 C511 1.429 1_556 S
C515 C516 1.523 . S
C516 C500 1.368 1_556 S
C516 C512 1.368 . S
C516 C515 1.523 . S
H517 C492 0.950 . S
H518 C494 0.950 . S
H519 C495 0.949 . S
H520 C497 0.950 . S
H521 C499 0.950 . S
C522 C523 1.349 . S
C522 C524 1.327 . S
C522 H547 0.950 . S
C523 C522 1.349 . S
C523 C539 1.349 . S
C524 C522 1.327 . S
C524 C543 1.429 . S
C524 H548 0.950 . S
C525 C542 1.574 1_554 S
C525 C544 1.368 . S
C525 H549 0.949 . S
H526 C530 0.949 . S
C527 C528 1.349 . S
C527 C529 1.327 . S
C527 H550 0.950 . S
C528 C527 1.349 . S
C528 C540 1.349 . S
C529 C527 1.327 . S
C529 C545 1.429 . S
C529 H551 0.950 . S
C530 H526 0.949 . S
C530 C538 1.574 1_556 S
C530 C546 1.368 . S
H531 C539 0.950 . S
H532 C537 0.950 . S
H533 C538 0.949 . S
H534 C540 0.950 . S
H535 C541 0.950 . S
H536 C542 0.949 . S
C537 H532 0.950 . S
C537 C539 1.327 . S
C537 C543 1.429 . S
C538 C530 1.574 1_554 S
C538 H533 0.949 . S
C538 C544 1.368 . S
C539 C523 1.349 . S
C539 H531 0.950 . S
C539 C537 1.327 . S
C540 C528 1.349 . S
C540 H534 0.950 . S
C540 C541 1.327 . S
C541 H535 0.950 . S
C541 C540 1.327 . S
C541 C545 1.429 . S
C542 C525 1.574 1_556 S
C542 H536 0.949 . S
C542 C546 1.368 . S
C543 C524 1.429 . S
C543 C537 1.429 . S
C543 C544 1.523 . S
C544 C525 1.368 . S
C544 C538 1.368 . S
C544 C543 1.523 . S
C545 C529 1.429 . S
C545 C541 1.429 . S
C545 C546 1.523 . S
C546 C530 1.368 . S
C546 C542 1.368 . S
C546 C545 1.523 . S
H547 C522 0.950 . S
H548 C524 0.950 . S
H549 C525 0.949 . S
H550 C527 0.950 . S
H551 C529 0.950 . S
C552 C553 1.349 . S
C552 C554 1.327 . S
C552 H577 0.950 . S
C553 C552 1.349 . S
C553 C569 1.349 1_554 S
C554 C552 1.327 . S
C554 C573 1.429 1_554 S
C554 H578 0.950 . S
C555 C572 1.574 . S
C555 C574 1.368 . S
C555 H579 0.949 . S
H556 C560 0.949 . S
C557 C558 1.349 . S
C557 C559 1.327 . S
C557 H580 0.950 . S
C558 C557 1.349 . S
C558 C570 1.349 . S
C559 C557 1.327 . S
C559 C575 1.429 . S
C559 H581 0.950 . S
C560 H556 0.949 . S
C560 C568 1.574 . S
C560 C576 1.368 . S
H561 C569 0.950 . S
H562 C567 0.950 . S
H563 C568 0.949 1_554 S
H564 C570 0.950 . S
H565 C571 0.950 . S
H566 C572 0.949 . S
C567 H562 0.950 . S
C567 C569 1.327 . S
C567 C573 1.429 . S
C568 C560 1.574 . S
C568 H563 0.949 1_556 S
C568 C574 1.368 . S
C569 C553 1.349 1_556 S
C569 H561 0.950 . S
C569 C567 1.327 . S
C570 C558 1.349 . S
C570 H564 0.950 . S
C570 C571 1.327 . S
C571 H565 0.950 . S
C571 C570 1.327 . S
C571 C575 1.429 . S
C572 C555 1.574 . S
C572 H566 0.949 . S
C572 C576 1.368 . S
C573 C554 1.429 1_556 S
C573 C567 1.429 . S
C573 C574 1.523 . S
C574 C555 1.368 . S
C574 C568 1.368 . S
C574 C573 1.523 . S
C575 C559 1.429 . S
C575 C571 1.429 . S
C575 C576 1.523 . S
C576 C560 1.368 . S
C576 C572 1.368 . S
C576 C575 1.523 . S
H577 C552 0.950 . S
H578 C554 0.950 . S
H579 C555 0.949 . S
H580 C557 0.950 . S
H581 C559 0.950 . S
C582 C583 1.350 . S
C582 C584 1.327 1_554 S
C582 H607 0.948 1_554 S
C583 C582 1.350 . S
C583 C599 1.349 . S
C584 C582 1.327 1_556 S
C584 C603 1.429 1_556 S
C584 H608 0.950 . S
C585 C602 1.574 . S
C585 C604 1.368 . S
C585 H609 0.949 . S
H586 C590 0.949 . S
C587 C588 1.349 1_554 S
C587 C589 1.327 . S
C587 H610 0.950 . S
C588 C587 1.349 1_556 S
C588 C600 1.349 . S
C589 C587 1.327 . S
C589 C605 1.429 . S
C589 H611 0.950 . S
C590 H586 0.949 . S
C590 C598 1.574 . S
C590 C606 1.368 1_556 S
H591 C599 0.950 . S
H592 C597 0.950 . S
H593 C598 0.949 . S
H594 C600 0.950 . S
H595 C601 0.950 . S
H596 C602 0.949 . S
C597 H592 0.950 . S
C597 C599 1.327 . S
C597 C603 1.429 . S
C598 C590 1.574 . S
C598 H593 0.949 . S
C598 C604 1.368 1_556 S
C599 C583 1.349 . S
C599 H591 0.950 . S
C599 C597 1.327 . S
C600 C588 1.349 . S
C600 H594 0.950 . S
C600 C601 1.327 . S
C601 H595 0.950 . S
C601 C600 1.327 . S
C601 C605 1.429 1_556 S
C602 C585 1.574 . S
C602 H596 0.949 . S
C602 C606 1.368 . S
C603 C584 1.429 1_554 S
C603 C597 1.429 . S
C603 C604 1.523 . S
C604 C585 1.368 . S
C604 C598 1.368 1_554 S
C604 C603 1.523 . S
C605 C589 1.429 . S
C605 C601 1.429 1_554 S
C605 C606 1.523 . S
C606 C590 1.368 1_554 S
C606 C602 1.368 . S
C606 C605 1.523 . S
H607 C582 0.948 1_556 S
H608 C584 0.950 . S
H609 C585 0.949 . S
H610 C587 0.950 . S
H611 C589 0.950 . S
C612 C613 1.349 . S
C612 C614 1.327 . S
C612 H637 0.950 . S
C613 C612 1.349 . S
C613 C629 1.349 . S
C614 C612 1.327 . S
C614 C633 1.429 . S
C614 H638 0.950 . S
C615 C632 1.574 . S
C615 C634 1.368 . S
C615 H639 0.949 . S
H616 C620 0.949 . S
C617 C618 1.349 . S
C617 C619 1.327 . S
C617 H640 0.950 . S
C618 C617 1.349 . S
C618 C630 1.349 . S
C619 C617 1.327 . S
C619 C635 1.429 . S
C619 H641 0.950 . S
C620 H616 0.949 . S
C620 C628 1.589 . S
C620 C636 1.368 . S
H621 C629 0.950 . S
H622 C627 0.950 . S
H623 C628 0.918 1_655 S
H624 C630 0.950 . S
H625 C631 0.950 . S
H626 C632 0.949 . S
C627 H622 0.950 . S
C627 C629 1.327 . S
C627 C633 1.429 . S
C628 C620 1.589 . S
C628 H623 0.918 1_455 S
C628 C634 1.388 1_556 S
C629 C613 1.349 . S
C629 H621 0.950 . S
C629 C627 1.327 . S
C630 C618 1.349 . S
C630 H624 0.950 . S
C630 C631 1.327 . S
C631 H625 0.950 . S
C631 C630 1.327 . S
C631 C635 1.429 . S
C632 C615 1.574 . S
C632 H626 0.949 . S
C632 C636 1.368 1_554 S
C633 C614 1.429 . S
C633 C627 1.429 . S
C633 C634 1.523 1_655 S
C634 C615 1.368 . S
C634 C628 1.388 1_554 S
C634 C633 1.523 1_455 S
C635 C619 1.429 . S
C635 C631 1.429 . S
C635 C636 1.523 . S
C636 C620 1.368 . S
C636 C632 1.368 1_556 S
C636 C635 1.523 . S
H637 C612 0.950 . S
H638 C614 0.950 . S
H639 C615 0.949 . S
H640 C617 0.950 . S
H641 C619 0.950 . S
C642 C643 1.349 . S
C642 C644 1.327 . S
C642 H667 0.950 . S
C643 C642 1.349 . S
C643 C659 1.349 . S
C644 C642 1.327 . S
C644 C663 1.429 . S
C644 H668 0.950 . S
C645 C662 1.574 . S
C645 C664 1.368 1_556 S
C645 H669 0.949 . S
H646 C650 0.949 . S
C647 C648 1.349 . S
C647 C649 1.327 . S
C647 H670 0.950 . S
C648 C647 1.349 . S
C648 C660 1.349 . S
C649 C647 1.327 . S
C649 C665 1.429 . S
C649 H671 0.950 . S
C650 H646 0.949 . S
C650 C658 1.574 . S
C650 C666 1.368 1_554 S
H651 C659 0.950 . S
H652 C657 0.950 1_556 S
H653 C658 0.949 . S
H654 C660 0.950 . S
H655 C661 0.950 1_554 S
H656 C662 0.949 . S
C657 H652 0.950 1_554 S
C657 C659 1.327 . S
C657 C663 1.429 . S
C658 C650 1.574 . S
C658 H653 0.949 . S
C658 C664 1.368 . S
C659 C643 1.349 . S
C659 H651 0.950 . S
C659 C657 1.327 . S
C660 C648 1.349 . S
C660 H654 0.950 . S
C660 C661 1.327 . S
C661 H655 0.950 1_556 S
C661 C660 1.327 . S
C661 C665 1.429 . S
C662 C645 1.574 . S
C662 H656 0.949 . S
C662 C666 1.368 . S
C663 C644 1.429 . S
C663 C657 1.429 . S
C663 C664 1.523 . S
C664 C645 1.368 1_554 S
C664 C658 1.368 . S
C664 C663 1.523 . S
C665 C649 1.429 . S
C665 C661 1.429 . S
C665 C666 1.523 . S
C666 C650 1.368 1_556 S
C666 C662 1.368 . S
C666 C665 1.523 . S
H667 C642 0.950 . S
H668 C644 0.950 . S
H669 C645 0.949 . S
H670 C647 0.950 . S
H671 C649 0.950 . S
C672 C673 1.349 . S
C672 C674 1.327 1_554 S
C672 H697 0.950 1_554 S
C673 C672 1.349 . S
C673 C689 1.349 . S
C674 C672 1.327 1_556 S
C674 C693 1.429 1_556 S
C674 H698 0.950 . S
C675 C692 1.577 . S
C675 C694 1.368 . S
C675 H699 0.949 . S
H676 C680 0.949 . S
C677 C678 1.349 . S
C677 C679 1.327 1_556 S
C677 H700 0.950 1_556 S
C678 C677 1.349 . S
C678 C690 1.349 . S
C679 C677 1.327 1_554 S
C679 C695 1.429 1_554 S
C679 H701 0.950 . S
C680 H676 0.949 . S
C680 C688 1.574 . S
C680 C696 1.368 . S
H681 C689 0.950 . S
H682 C687 0.950 . S
H683 C688 0.949 . S
H684 C690 0.950 . S
H685 C691 0.951 . S
H686 C692 0.947 1_565 S
C687 H682 0.950 . S
C687 C689 1.327 . S
C687 C693 1.429 . S
C688 C680 1.574 . S
C688 H683 0.949 . S
C688 C694 1.368 1_556 S
C689 C673 1.349 . S
C689 H681 0.950 . S
C689 C687 1.327 . S
C690 C678 1.349 . S
C690 H684 0.950 . S
C690 C691 1.327 . S
C691 H685 0.951 . S
C691 C690 1.327 . S
C691 C695 1.429 . S
C692 C675 1.577 . S
C692 H686 0.947 1_545 S
C692 C696 1.368 1_554 S
C693 C674 1.429 1_554 S
C693 C687 1.429 . S
C693 C694 1.523 . S
C694 C675 1.368 . S
C694 C688 1.368 1_554 S
C694 C693 1.523 . S
C695 C679 1.429 1_556 S
C695 C691 1.429 . S
C695 C696 1.523 1_565 S
C696 C680 1.368 . S
C696 C692 1.368 1_556 S
C696 C695 1.523 1_545 S
H697 C672 0.950 1_556 S
H698 C674 0.950 . S
H699 C675 0.949 . S
H700 C677 0.950 1_554 S
H701 C679 0.950 . S
C702 C703 1.349 . S
C702 C704 1.327 . S
C702 H727 0.950 . S
C703 C702 1.349 . S
C703 C719 1.349 . S
C704 C702 1.327 . S
C704 C723 1.429 . S
C704 H728 0.950 . S
C705 C722 1.574 . S
C705 C724 1.368 . S
C705 H729 0.949 . S
H706 C710 0.949 . S
C707 C708 1.349 . S
C707 C709 1.327 . S
C707 H730 0.950 . S
C708 C707 1.349 . S
C708 C720 1.349 . S
C709 C707 1.327 . S
C709 C725 1.429 . S
C709 H731 0.950 . S
C710 H706 0.949 . S
C710 C718 1.582 . S
C710 C726 1.368 . S
H711 C719 0.950 . S
H712 C717 0.989 . S
H713 C718 0.935 1_565 S
H714 C720 0.950 . S
H715 C721 0.950 . S
H716 C722 0.949 . S
C717 H712 0.989 . S
C717 C719 1.327 . S
C717 C723 1.429 . S
C718 C710 1.582 . S
C718 H713 0.935 1_545 S
C718 C724 1.375 . S
C719 C703 1.349 . S
C719 H711 0.950 . S
C719 C717 1.327 . S
C720 C708 1.349 . S
C720 H714 0.950 . S
C720 C721 1.327 . S
C721 H715 0.950 . S
C721 C720 1.327 . S
C721 C725 1.429 . S
C722 C705 1.574 . S
C722 H716 0.949 . S
C722 C726 1.368 . S
C723 C704 1.429 . S
C723 C717 1.429 . S
C723 C724 1.523 1_565 S
C724 C705 1.368 . S
C724 C718 1.375 . S
C724 C723 1.523 1_545 S
C725 C709 1.429 . S
C725 C721 1.429 . S
C725 C726 1.523 . S
C726 C710 1.368 . S
C726 C722 1.368 . S
C726 C725 1.523 . S
H727 C702 0.950 . S
H728 C704 0.950 . S
H729 C705 0.949 . S
H730 C707 0.950 . S
H731 C709 0.950 . S
C732 C733 1.349 . S
C732 C734 1.327 . S
C732 H757 0.950 . S
C733 C732 1.349 . S
C733 C749 1.349 . S
C734 C732 1.327 . S
C734 C753 1.429 . S
C734 H758 0.950 . S
C735 C752 1.574 . S
C735 C754 1.368 . S
C735 H759 0.949 1_455 S
H736 C740 0.949 . S
C737 C738 1.349 . S
C737 C739 1.327 . S
C737 H760 0.950 . S
C738 C737 1.349 . S
C738 C750 1.349 . S
C739 C737 1.327 . S
C739 C755 1.429 . S
C739 H761 0.950 . S
C740 H736 0.949 . S
C740 C748 1.574 . S
C740 C756 1.368 . S
H741 C749 0.950 . S
H742 C747 0.950 . S
H743 C748 0.949 . S
H744 C750 0.950 . S
H745 C751 0.950 . S
H746 C752 0.949 . S
C747 H742 0.950 . S
C747 C749 1.327 . S
C747 C753 1.429 . S
C748 C740 1.574 . S
C748 H743 0.949 . S
C748 C754 1.368 . S
C749 C733 1.349 . S
C749 H741 0.950 . S
C749 C747 1.327 . S
C750 C738 1.349 . S
C750 H744 0.950 . S
C750 C751 1.327 . S
C751 H745 0.950 . S
C751 C750 1.327 . S
C751 C755 1.429 . S
C752 C735 1.574 . S
C752 H746 0.949 . S
C752 C756 1.368 . S
C753 C734 1.429 . S
C753 C747 1.429 . S
C753 C754 1.523 1_655 S
C754 C735 1.368 . S
C754 C748 1.368 . S
C754 C753 1.523 1_455 S
C755 C739 1.429 . S
C755 C751 1.429 . S
C755 C756 1.523 . S
C756 C740 1.368 . S
C756 C752 1.368 . S
C756 C755 1.523 . S
H757 C732 0.950 . S
H758 C734 0.950 . S
H759 C735 0.949 1_655 S
H760 C737 0.950 . S
H761 C739 0.950 . S
C762 C763 1.349 . S
C762 C764 1.327 . S
C762 H787 0.950 . S
C763 C762 1.349 . S
C763 C779 1.349 1_554 S
C764 C762 1.327 . S
C764 C783 1.429 . S
C764 H788 0.950 . S
C765 C782 1.574 . S
C765 C784 1.368 . S
C765 H789 0.949 . S
H766 C770 0.949 . S
C767 C768 1.349 . S
C767 C769 1.327 . S
C767 H790 0.950 . S
C768 C767 1.349 . S
C768 C780 1.349 . S
C769 C767 1.327 . S
C769 C785 1.429 . S
C769 H791 0.950 . S
C770 H766 0.949 . S
C770 C778 1.574 . S
C770 C786 1.368 . S
H771 C779 0.950 . S
H772 C777 0.950 . S
H773 C778 0.949 . S
H774 C780 0.950 1_554 S
H775 C781 0.950 . S
H776 C782 0.949 . S
C777 H772 0.950 . S
C777 C779 1.327 1_554 S
C777 C783 1.429 . S
C778 C770 1.574 . S
C778 H773 0.949 . S
C778 C784 1.368 . S
C779 C763 1.349 1_556 S
C779 H771 0.950 . S
C779 C777 1.327 1_556 S
C780 C768 1.349 . S
C780 H774 0.950 1_556 S
C780 C781 1.327 . S
C781 H775 0.950 . S
C781 C780 1.327 . S
C781 C785 1.429 . S
C782 C765 1.574 . S
C782 H776 0.949 . S
C782 C786 1.368 . S
C783 C764 1.429 . S
C783 C777 1.429 . S
C783 C784 1.523 . S
C784 C765 1.368 . S
C784 C778 1.368 . S
C784 C783 1.523 . S
C785 C769 1.429 . S
C785 C781 1.429 . S
C785 C786 1.523 . S
C786 C770 1.368 . S
C786 C782 1.368 . S
C786 C785 1.523 . S
H787 C762 0.950 . S
H788 C764 0.950 . S
H789 C765 0.949 . S
H790 C767 0.950 . S
H791 C769 0.950 . S
C792 C793 1.349 . S
C792 C794 1.327 . S
C792 H817 0.950 . S
C793 C792 1.349 . S
C793 C809 1.349 . S
C794 C792 1.327 . S
C794 C813 1.429 . S
C794 H818 0.950 . S
C795 C812 1.574 . S
C795 C814 1.368 . S
C795 H819 0.949 . S
H796 C800 0.949 . S
C797 C798 1.349 . S
C797 C799 1.327 . S
C797 H820 0.950 . S
C798 C797 1.349 . S
C798 C810 1.349 . S
C799 C797 1.327 . S
C799 C815 1.429 . S
C799 H821 0.950 . S
C800 H796 0.949 . S
C800 C808 1.574 . S
C800 C816 1.368 . S
H801 C809 0.950 . S
H802 C807 0.950 . S
H803 C808 0.949 . S
H804 C810 0.950 . S
H805 C811 0.950 . S
H806 C812 0.949 . S
C807 H802 0.950 . S
C807 C809 1.327 . S
C807 C813 1.429 . S
C808 C800 1.574 . S
C808 H803 0.949 . S
C808 C814 1.368 . S
C809 C793 1.349 . S
C809 H801 0.950 . S
C809 C807 1.327 . S
C810 C798 1.349 . S
C810 H804 0.950 . S
C810 C811 1.327 . S
C811 H805 0.950 . S
C811 C810 1.327 . S
C811 C815 1.429 . S
C812 C795 1.574 . S
C812 H806 0.949 . S
C812 C816 1.368 . S
C813 C794 1.429 . S
C813 C807 1.429 . S
C813 C814 1.523 . S
C814 C795 1.368 . S
C814 C808 1.368 . S
C814 C813 1.523 . S
C815 C799 1.429 . S
C815 C811 1.429 . S
C815 C816 1.523 . S
C816 C800 1.368 . S
C816 C812 1.368 . S
C816 C815 1.523 . S
H817 C792 0.950 . S
H818 C794 0.950 . S
H819 C795 0.949 . S
H820 C797 0.950 . S
H821 C799 0.950 . S
C822 C823 1.349 . S
C822 C824 1.327 . S
C822 H847 0.950 . S
C823 C822 1.349 . S
C823 C839 1.349 1_655 S
C824 C822 1.327 . S
C824 C843 1.429 . S
C824 H848 0.950 . S
C825 C842 1.574 . S
C825 C844 1.368 1_556 S
C825 H849 0.949 . S
H826 C830 0.950 . S
C827 C828 1.349 . S
C827 C829 1.327 . S
C827 H850 0.950 . S
C828 C827 1.349 . S
C828 C840 1.349 . S
C829 C827 1.327 . S
C829 C845 1.429 . S
C829 H851 0.950 . S
C830 H826 0.950 . S
C830 C838 1.570 1_565 S
C830 C846 1.370 1_554 S
H831 C839 0.950 1_556 S
H832 C837 0.950 . S
H833 C838 0.949 . S
H834 C840 0.950 1_554 S
H835 C841 0.950 . S
H836 C842 0.949 . S
C837 H832 0.950 . S
C837 C839 1.327 1_656 S
C837 C843 1.429 1_556 S
C838 C830 1.570 1_545 S
C838 H833 0.949 . S
C838 C844 1.368 . S
C839 C823 1.349 1_455 S
C839 H831 0.950 1_554 S
C839 C837 1.327 1_454 S
C840 C828 1.349 . S
C840 H834 0.950 1_556 S
C840 C841 1.327 1_556 S
C841 H835 0.950 . S
C841 C840 1.327 1_554 S
C841 C845 1.429 1_554 S
C842 C825 1.574 . S
C842 H836 0.949 . S
C842 C846 1.368 1_545 S
C843 C824 1.429 . S
C843 C837 1.429 1_554 S
C843 C844 1.523 . S
C844 C825 1.368 1_554 S
C844 C838 1.368 . S
C844 C843 1.523 . S
C845 C829 1.429 . S
C845 C841 1.429 1_556 S
C845 C846 1.523 . S
C846 C830 1.370 1_556 S
C846 C842 1.368 1_565 S
C846 C845 1.523 . S
H847 C822 0.950 . S
H848 C824 0.950 . S
H849 C825 0.949 . S
H850 C827 0.950 . S
H851 C829 0.950 . S
C852 C853 1.349 . S
C852 C854 1.327 . S
C852 H877 0.950 . S
C853 C852 1.349 . S
C853 C869 1.349 1_554 S
C854 C852 1.327 . S
C854 C873 1.429 1_554 S
C854 H878 0.950 . S
C855 C872 1.574 1_655 S
C855 C874 1.368 1_655 S
C855 H879 0.949 . S
H856 C860 0.949 . S
C857 C858 1.349 . S
C857 C859 1.327 1_556 S
C857 H880 0.950 . S
C858 C857 1.349 . S
C858 C870 1.349 1_556 S
C859 C857 1.327 1_554 S
C859 C875 1.429 . S
C859 H881 0.950 1_554 S
C860 H856 0.949 . S
C860 C868 1.574 . S
C860 C876 1.368 . S
H861 C869 0.950 . S
H862 C867 0.950 . S
H863 C868 0.949 . S
H864 C870 0.950 1_545 S
H865 C871 0.950 . S
H866 C872 0.949 . S
C867 H862 0.950 . S
C867 C869 1.327 . S
C867 C873 1.429 . S
C868 C860 1.574 . S
C868 H863 0.949 . S
C868 C874 1.368 . S
C869 C853 1.349 1_556 S
C869 H861 0.950 . S
C869 C867 1.327 . S
C870 C858 1.349 1_554 S
C870 H864 0.950 1_565 S
C870 C871 1.327 . S
C871 H865 0.950 . S
C871 C870 1.327 . S
C871 C875 1.429 . S
C872 C855 1.574 1_455 S
C872 H866 0.949 . S
C872 C876 1.368 . S
C873 C854 1.429 1_556 S
C873 C867 1.429 . S
C873 C874 1.523 1_655 S
C874 C855 1.368 1_455 S
C874 C868 1.368 . S
C874 C873 1.523 1_455 S
C875 C859 1.429 . S
C875 C871 1.429 . S
C875 C876 1.523 . S
C876 C860 1.368 . S
C876 C872 1.368 . S
C876 C875 1.523 . S
H877 C852 0.950 . S
H878 C854 0.950 . S
H879 C855 0.949 . S
H880 C857 0.950 . S
H881 C859 0.950 1_556 S
C882 C883 1.349 . S
C882 C884 1.327 . S
C882 H907 0.950 1_655 S
C883 C882 1.349 . S
C883 C899 1.349 . S
C884 C882 1.327 . S
C884 C903 1.429 . S
C884 H908 0.950 . S
C885 C902 1.574 . S
C885 C904 1.368 . S
C885 H909 0.949 . S
H886 C890 0.949 . S
C887 C888 1.349 . S
C887 C889 1.327 . S
C887 H910 0.950 . S
C888 C887 1.349 . S
C888 C900 1.349 . S
C889 C887 1.327 . S
C889 C905 1.429 . S
C889 H911 0.950 . S
C890 H886 0.949 . S
C890 C898 1.574 . S
C890 C906 1.368 . S
H891 C899 0.950 . S
H892 C897 0.950 . S
H893 C898 0.949 . S
H894 C900 0.950 . S
H895 C901 0.950 . S
H896 C902 0.949 . S
C897 H892 0.950 . S
C897 C899 1.327 . S
C897 C903 1.429 . S
C898 C890 1.574 . S
C898 H893 0.949 . S
C898 C904 1.368 . S
C899 C883 1.349 . S
C899 H891 0.950 . S
C899 C897 1.327 . S
C900 C888 1.349 . S
C900 H894 0.950 . S
C900 C901 1.327 . S
C901 H895 0.950 . S
C901 C900 1.327 . S
C901 C905 1.429 . S
C902 C885 1.574 . S
C902 H896 0.949 . S
C902 C906 1.368 . S
C903 C884 1.429 . S
C903 C897 1.429 . S
C903 C904 1.523 . S
C904 C885 1.368 . S
C904 C898 1.368 . S
C904 C903 1.523 . S
C905 C889 1.429 . S
C905 C901 1.429 . S
C905 C906 1.523 . S
C906 C890 1.368 . S
C906 C902 1.368 . S
C906 C905 1.523 . S
H907 C882 0.950 1_455 S
H908 C884 0.950 . S
H909 C885 0.949 . S
H910 C887 0.950 . S
H911 C889 0.950 . S
C912 C913 1.349 . S
C912 C914 1.327 1_554 S
C912 H937 0.950 1_554 S
C913 C912 1.349 . S
C913 C929 1.349 . S
C914 C912 1.327 1_556 S
C914 C933 1.429 1_556 S
C914 H938 0.950 . S
C915 C932 1.574 . S
C915 C934 1.368 . S
C915 H939 0.949 . S
H916 C920 0.949 . S
C917 C918 1.349 . S
C917 C919 1.327 1_556 S
C917 H940 0.950 1_556 S
C918 C917 1.349 . S
C918 C930 1.349 . S
C919 C917 1.327 1_554 S
C919 C935 1.429 1_554 S
C919 H941 0.950 . S
C920 H916 0.949 . S
C920 C928 1.574 . S
C920 C936 1.368 . S
H921 C929 0.950 . S
H922 C927 0.950 . S
H923 C928 0.949 . S
H924 C930 0.950 . S
H925 C931 0.950 . S
H926 C932 0.949 1_565 S
C927 H922 0.950 . S
C927 C929 1.327 . S
C927 C933 1.429 . S
C928 C920 1.574 . S
C928 H923 0.949 . S
C928 C934 1.368 1_556 S
C929 C913 1.349 . S
C929 H921 0.950 . S
C929 C927 1.327 . S
C930 C918 1.349 . S
C930 H924 0.950 . S
C930 C931 1.327 . S
C931 H925 0.950 . S
C931 C930 1.327 . S
C931 C935 1.429 . S
C932 C915 1.574 . S
C932 H926 0.949 1_545 S
C932 C936 1.368 1_554 S
C933 C914 1.429 1_554 S
C933 C927 1.429 . S
C933 C934 1.523 . S
C934 C915 1.368 . S
C934 C928 1.368 1_554 S
C934 C933 1.523 . S
C935 C919 1.429 1_556 S
C935 C931 1.429 . S
C935 C936 1.523 1_565 S
C936 C920 1.368 . S
C936 C932 1.368 1_556 S
C936 C935 1.523 1_545 S
H937 C912 0.950 1_556 S
H938 C914 0.950 . S
H939 C915 0.949 . S
H940 C917 0.950 1_554 S
H941 C919 0.950 . S
C942 C943 1.349 . S
C942 C944 1.327 1_556 S
C942 H967 0.950 . S
C943 C942 1.349 . S
C943 C959 1.349 . S
C944 C942 1.327 1_554 S
C944 C963 1.429 . S
C944 H968 0.950 . S
C945 C962 1.574 . S
C945 C964 1.368 . S
C945 H969 0.949 . S
H946 C950 0.949 . S
C947 C948 1.349 . S
C947 C949 1.327 . S
C947 H970 0.950 . S
C948 C947 1.349 . S
C948 C960 1.349 . S
C949 C947 1.327 . S
C949 C965 1.429 . S
C949 H971 0.950 . S
C950 H946 0.949 . S
C950 C958 1.574 . S
C950 C966 1.368 . S
H951 C959 0.950 . S
H952 C957 0.950 . S
H953 C958 0.949 . S
H954 C960 0.950 . S
H955 C961 0.950 . S
H956 C962 0.949 . S
C957 H952 0.950 . S
C957 C959 1.327 1_554 S
C957 C963 1.429 . S
C958 C950 1.574 . S
C958 H953 0.949 . S
C958 C964 1.368 . S
C959 C943 1.349 . S
C959 H951 0.950 . S
C959 C957 1.327 1_556 S
C960 C948 1.349 . S
C960 H954 0.950 . S
C960 C961 1.327 . S
C961 H955 0.950 . S
C961 C960 1.327 . S
C961 C965 1.429 . S
C962 C945 1.574 . S
C962 H956 0.949 . S
C962 C966 1.368 . S
C963 C944 1.429 . S
C963 C957 1.429 . S
C963 C964 1.523 . S
C964 C945 1.368 . S
C964 C958 1.368 . S
C964 C963 1.523 . S
C965 C949 1.429 . S
C965 C961 1.429 . S
C965 C966 1.523 1_655 S
C966 C950 1.368 . S
C966 C962 1.368 . S
C966 C965 1.523 1_455 S
H967 C942 0.950 . S
H968 C944 0.950 . S
H969 C945 0.949 . S
H970 C947 0.950 . S
H971 C949 0.950 . S
C972 C973 1.349 1_554 S
C972 C974 1.327 . S
C972 H997 0.950 . S
C973 C972 1.349 1_556 S
C973 C989 1.349 . S
C974 C972 1.327 . S
C974 C993 1.429 . S
C974 H998 0.950 . S
C975 C992 1.574 . S
C975 C994 1.368 . S
C975 H999 0.949 1_554 S
H976 C980 0.949 . S
C977 C978 1.349 . S
C977 C979 1.327 . S
C977 H1000 0.950 . S
C978 C977 1.349 . S
C978 C990 1.349 . S
C979 C977 1.327 . S
C979 C995 1.429 . S
C979 H1001 0.950 . S
C980 H976 0.949 . S
C980 C988 1.574 . S
C980 C996 1.368 . S
H981 C989 0.950 . S
H982 C987 0.950 . S
H983 C988 0.949 . S
H984 C990 0.950 1_554 S
H985 C991 0.950 . S
H986 C992 0.949 . S
C987 H982 0.950 . S
C987 C989 1.327 . S
C987 C993 1.429 1_556 S
C988 C980 1.574 . S
C988 H983 0.949 . S
C988 C994 1.368 . S
C989 C973 1.349 . S
C989 H981 0.950 . S
C989 C987 1.327 . S
C990 C978 1.349 . S
C990 H984 0.950 1_556 S
C990 C991 1.327 . S
C991 H985 0.950 . S
C991 C990 1.327 . S
C991 C995 1.429 . S
C992 C975 1.574 . S
C992 H986 0.949 . S
C992 C996 1.368 . S
C993 C974 1.429 . S
C993 C987 1.429 1_554 S
C993 C994 1.523 . S
C994 C975 1.368 . S
C994 C988 1.368 . S
C994 C993 1.523 . S
C995 C979 1.429 . S
C995 C991 1.429 . S
C995 C996 1.523 . S
C996 C980 1.368 . S
C996 C992 1.368 . S
C996 C995 1.523 . S
H997 C972 0.950 . S
H998 C974 0.950 . S
H999 C975 0.949 1_556 S
H1000 C977 0.950 . S
H1001 C979 0.950 . S
C1002 C1003 1.349 . S
C1002 C1004 1.327 . S
C1002 H1027 0.950 . S
C1003 C1002 1.349 . S
C1003 C1019 1.349 . S
C1004 C1002 1.327 . S
C1004 C1023 1.429 . S
C1004 H1028 0.950 . S
C1005 C1022 1.574 . S
C1005 C1024 1.368 . S
C1005 H1029 0.949 1_554 S
H1006 C1010 0.949 . S
C1007 C1008 1.349 . S
C1007 C1009 1.327 . S
C1007 H1030 0.950 1_554 S
C1008 C1007 1.349 . S
C1008 C1020 1.349 . S
C1009 C1007 1.327 . S
C1009 C1025 1.429 . S
C1009 H1031 0.950 1_554 S
C1010 H1006 0.949 . S
C1010 C1018 1.574 . S
C1010 C1026 1.368 . S
H1011 C1019 0.950 1_556 S
H1012 C1017 0.950 1_556 S
H1013 C1018 0.949 . S
H1014 C1020 0.950 . S
H1015 C1021 0.950 . S
H1016 C1022 0.949 1_556 S
C1017 H1012 0.950 1_554 S
C1017 C1019 1.327 . S
C1017 C1023 1.429 . S
C1018 C1010 1.574 . S
C1018 H1013 0.949 . S
C1018 C1024 1.368 . S
C1019 C1003 1.349 . S
C1019 H1011 0.950 1_554 S
C1019 C1017 1.327 . S
C1020 C1008 1.349 . S
C1020 H1014 0.950 . S
C1020 C1021 1.327 . S
C1021 H1015 0.950 . S
C1021 C1020 1.327 . S
C1021 C1025 1.429 . S
C1022 C1005 1.574 . S
C1022 H1016 0.949 1_554 S
C1022 C1026 1.368 . S
C1023 C1004 1.429 . S
C1023 C1017 1.429 . S
C1023 C1024 1.523 . S
C1024 C1005 1.368 . S
C1024 C1018 1.368 . S
C1024 C1023 1.523 . S
C1025 C1009 1.429 . S
C1025 C1021 1.429 . S
C1025 C1026 1.523 . S
C1026 C1010 1.368 . S
C1026 C1022 1.368 . S
C1026 C1025 1.523 . S
H1027 C1002 0.950 . S
H1028 C1004 0.950 . S
H1029 C1005 0.949 1_556 S
H1030 C1007 0.950 1_556 S
H1031 C1009 0.950 1_556 S
C1032 C1033 1.349 . S
C1032 C1034 1.327 . S
C1032 H1057 0.950 . S
C1033 C1032 1.349 . S
C1033 C1049 1.349 . S
C1034 C1032 1.327 . S
C1034 C1053 1.429 . S
C1034 H1058 0.950 . S
C1035 C1052 1.574 . S
C1035 C1054 1.368 . S
C1035 H1059 0.949 . S
H1036 C1040 0.949 . S
C1037 C1038 1.349 . S
C1037 C1039 1.327 . S
C1037 H1060 0.950 . S
C1038 C1037 1.349 . S
C1038 C1050 1.349 . S
C1039 C1037 1.327 . S
C1039 C1055 1.429 . S
C1039 H1061 0.950 . S
C1040 H1036 0.949 . S
C1040 C1048 1.574 . S
C1040 C1056 1.368 . S
H1041 C1049 0.950 . S
H1042 C1047 0.950 . S
H1043 C1048 0.949 . S
H1044 C1050 0.950 . S
H1045 C1051 0.950 . S
H1046 C1052 0.949 . S
C1047 H1042 0.950 . S
C1047 C1049 1.327 . S
C1047 C1053 1.429 . S
C1048 C1040 1.574 . S
C1048 H1043 0.949 . S
C1048 C1054 1.368 . S
C1049 C1033 1.349 . S
C1049 H1041 0.950 . S
C1049 C1047 1.327 . S
C1050 C1038 1.349 . S
C1050 H1044 0.950 . S
C1050 C1051 1.327 . S
C1051 H1045 0.950 . S
C1051 C1050 1.327 . S
C1051 C1055 1.429 . S
C1052 C1035 1.574 . S
C1052 H1046 0.949 . S
C1052 C1056 1.368 . S
C1053 C1034 1.429 . S
C1053 C1047 1.429 . S
C1053 C1054 1.523 . S
C1054 C1035 1.368 . S
C1054 C1048 1.368 . S
C1054 C1053 1.523 . S
C1055 C1039 1.429 . S
C1055 C1051 1.429 . S
C1055 C1056 1.523 . S
C1056 C1040 1.368 . S
C1056 C1052 1.368 . S
C1056 C1055 1.523 . S
H1057 C1032 0.950 . S
H1058 C1034 0.950 . S
H1059 C1035 0.949 . S
H1060 C1037 0.950 . S
H1061 C1039 0.950 . S
C1062 C1063 1.349 . S
C1062 C1064 1.327 1_554 S
C1062 H1087 0.950 . S
C1063 C1062 1.349 . S
C1063 C1079 1.349 1_554 S
C1064 C1062 1.327 1_556 S
C1064 C1083 1.429 . S
C1064 H1088 0.950 . S
C1065 C1082 1.574 . S
C1065 C1084 1.368 . S
C1065 H1089 0.949 . S
H1066 C1070 0.949 . S
C1067 C1068 1.349 1_556 S
C1067 C1069 1.327 1_556 S
C1067 H1090 0.950 . S
C1068 C1067 1.349 1_554 S
C1068 C1080 1.349 . S
C1069 C1067 1.327 1_554 S
C1069 C1085 1.429 . S
C1069 H1091 0.950 . S
C1070 H1066 0.949 . S
C1070 C1078 1.574 . S
C1070 C1086 1.368 . S
H1071 C1079 0.950 . S
H1072 C1077 0.950 . S
H1073 C1078 0.949 . S
H1074 C1080 0.950 . S
H1075 C1081 0.950 . S
H1076 C1082 0.949 . S
C1077 H1072 0.950 . S
C1077 C1079 1.327 . S
C1077 C1083 1.429 . S
C1078 C1070 1.574 . S
C1078 H1073 0.949 . S
C1078 C1084 1.368 . S
C1079 C1063 1.349 1_556 S
C1079 H1071 0.950 . S
C1079 C1077 1.327 . S
C1080 C1068 1.349 . S
C1080 H1074 0.950 . S
C1080 C1081 1.327 . S
C1081 H1075 0.950 . S
C1081 C1080 1.327 . S
C1081 C1085 1.429 . S
C1082 C1065 1.574 . S
C1082 H1076 0.949 . S
C1082 C1086 1.368 . S
C1083 C1064 1.429 . S
C1083 C1077 1.429 . S
C1083 C1084 1.523 . S
C1084 C1065 1.368 . S
C1084 C1078 1.368 . S
C1084 C1083 1.523 . S
C1085 C1069 1.429 . S
C1085 C1081 1.429 . S
C1085 C1086 1.523 . S
C1086 C1070 1.368 . S
C1086 C1082 1.368 . S
C1086 C1085 1.523 . S
H1087 C1062 0.950 . S
H1088 C1064 0.950 . S
H1089 C1065 0.949 . S
H1090 C1067 0.950 . S
H1091 C1069 0.950 . S
C1092 C1093 1.349 . S
C1092 C1094 1.327 . S
C1092 H1117 0.950 . S
C1093 C1092 1.349 . S
C1093 C1109 1.349 1_556 S
C1094 C1092 1.327 . S
C1094 C1113 1.429 . S
C1094 H1118 0.950 . S
C1095 C1112 1.574 . S
C1095 C1114 1.368 1_554 S
C1095 H1119 0.949 . S
H1096 C1100 0.949 . S
C1097 C1098 1.349 1_554 S
C1097 C1099 1.327 . S
C1097 H1120 0.950 . S
C1098 C1097 1.349 1_556 S
C1098 C1110 1.349 . S
C1099 C1097 1.327 . S
C1099 C1115 1.429 1_554 S
C1099 H1121 0.950 . S
C1100 H1096 0.949 . S
C1100 C1108 1.574 . S
C1100 C1116 1.368 . S
H1101 C1109 0.950 . S
H1102 C1107 0.950 . S
H1103 C1108 0.949 . S
H1104 C1110 0.950 . S
H1105 C1111 0.950 . S
H1106 C1112 0.949 . S
C1107 H1102 0.950 . S
C1107 C1109 1.327 . S
C1107 C1113 1.429 1_554 S
C1108 C1100 1.574 . S
C1108 H1103 0.949 . S
C1108 C1114 1.368 . S
C1109 C1093 1.349 1_554 S
C1109 H1101 0.950 . S
C1109 C1107 1.327 . S
C1110 C1098 1.349 . S
C1110 H1104 0.950 . S
C1110 C1111 1.327 . S
C1111 H1105 0.950 . S
C1111 C1110 1.327 . S
C1111 C1115 1.429 . S
C1112 C1095 1.574 . S
C1112 H1106 0.949 . S
C1112 C1116 1.368 1_554 S
C1113 C1094 1.429 . S
C1113 C1107 1.429 1_556 S
C1113 C1114 1.523 . S
C1114 C1095 1.368 1_556 S
C1114 C1108 1.368 . S
C1114 C1113 1.523 . S
C1115 C1099 1.429 1_556 S
C1115 C1111 1.429 . S
C1115 C1116 1.523 . S
C1116 C1100 1.368 . S
C1116 C1112 1.368 1_556 S
C1116 C1115 1.523 . S
H1117 C1092 0.950 . S
H1118 C1094 0.950 . S
H1119 C1095 0.949 . S
H1120 C1097 0.950 . S
H1121 C1099 0.950 . S
C1122 C1123 1.349 . S
C1122 C1124 1.327 . S
C1122 H1147 0.950 . S
C1123 C1122 1.349 . S
C1123 C1139 1.349 . S
C1124 C1122 1.327 . S
C1124 C1143 1.429 . S
C1124 H1148 0.950 . S
C1125 C1142 1.574 . S
C1125 C1144 1.368 . S
C1125 H1149 0.949 . S
H1126 C1130 0.949 . S
C1127 C1128 1.349 . S
C1127 C1129 1.327 . S
C1127 H1150 0.950 . S
C1128 C1127 1.349 . S
C1128 C1140 1.349 . S
C1129 C1127 1.327 . S
C1129 C1145 1.429 . S
C1129 H1151 0.950 . S
C1130 H1126 0.949 . S
C1130 C1138 1.574 . S
C1130 C1146 1.368 . S
H1131 C1139 0.950 . S
H1132 C1137 0.950 . S
H1133 C1138 0.949 . S
H1134 C1140 0.950 . S
H1135 C1141 0.950 . S
H1136 C1142 0.949 . S
C1137 H1132 0.950 . S
C1137 C1139 1.327 . S
C1137 C1143 1.429 . S
C1138 C1130 1.574 . S
C1138 H1133 0.949 . S
C1138 C1144 1.368 . S
C1139 C1123 1.349 . S
C1139 H1131 0.950 . S
C1139 C1137 1.327 . S
C1140 C1128 1.349 . S
C1140 H1134 0.950 . S
C1140 C1141 1.327 . S
C1141 H1135 0.950 . S
C1141 C1140 1.327 . S
C1141 C1145 1.429 . S
C1142 C1125 1.574 . S
C1142 H1136 0.949 . S
C1142 C1146 1.368 . S
C1143 C1124 1.429 . S
C1143 C1137 1.429 . S
C1143 C1144 1.523 . S
C1144 C1125 1.368 . S
C1144 C1138 1.368 . S
C1144 C1143 1.523 . S
C1145 C1129 1.429 . S
C1145 C1141 1.429 . S
C1145 C1146 1.523 . S
C1146 C1130 1.368 . S
C1146 C1142 1.368 . S
C1146 C1145 1.523 . S
H1147 C1122 0.950 . S
H1148 C1124 0.950 . S
H1149 C1125 0.949 . S
H1150 C1127 0.950 . S
H1151 C1129 0.950 . S
C1152 C1153 1.349 . S
C1152 C1154 1.327 . S
C1152 H1177 0.950 . S
C1153 C1152 1.349 . S
C1153 C1169 1.349 . S
C1154 C1152 1.327 . S
C1154 C1173 1.429 . S
C1154 H1178 0.950 . S
C1155 C1172 1.574 . S
C1155 C1174 1.368 . S
C1155 H1179 0.949 . S
H1156 C1160 0.949 . S
C1157 C1158 1.349 . S
C1157 C1159 1.327 1_556 S
C1157 H1180 0.950 . S
C1158 C1157 1.349 . S
C1158 C1170 1.349 1_556 S
C1159 C1157 1.327 1_554 S
C1159 C1175 1.429 . S
C1159 H1181 0.950 . S
C1160 H1156 0.949 . S
C1160 C1168 1.574 . S
C1160 C1176 1.368 . S
H1161 C1169 0.950 . S
H1162 C1167 0.950 . S
H1163 C1168 0.949 . S
H1164 C1170 0.950 1_556 S
H1165 C1171 0.950 . S
H1166 C1172 0.949 . S
C1167 H1162 0.950 . S
C1167 C1169 1.327 . S
C1167 C1173 1.429 . S
C1168 C1160 1.574 . S
C1168 H1163 0.949 . S
C1168 C1174 1.368 . S
C1169 C1153 1.349 . S
C1169 H1161 0.950 . S
C1169 C1167 1.327 . S
C1170 C1158 1.349 1_554 S
C1170 H1164 0.950 1_554 S
C1170 C1171 1.327 . S
C1171 H1165 0.950 . S
C1171 C1170 1.327 . S
C1171 C1175 1.429 . S
C1172 C1155 1.574 . S
C1172 H1166 0.949 . S
C1172 C1176 1.368 . S
C1173 C1154 1.429 . S
C1173 C1167 1.429 . S
C1173 C1174 1.523 . S
C1174 C1155 1.368 . S
C1174 C1168 1.368 . S
C1174 C1173 1.523 . S
C1175 C1159 1.429 . S
C1175 C1171 1.429 . S
C1175 C1176 1.523 . S
C1176 C1160 1.368 . S
C1176 C1172 1.368 . S
C1176 C1175 1.523 . S
H1177 C1152 0.950 . S
H1178 C1154 0.950 . S
H1179 C1155 0.949 . S
H1180 C1157 0.950 . S
H1181 C1159 0.950 . S
C1182 C1183 1.349 . S
C1182 C1184 1.327 . S
C1182 H1207 0.950 . S
C1183 C1182 1.349 . S
C1183 C1199 1.349 1_556 S
C1184 C1182 1.327 . S
C1184 C1203 1.429 . S
C1184 H1208 0.950 . S
C1185 C1202 1.574 . S
C1185 C1204 1.368 . S
C1185 H1209 0.949 . S
H1186 C1190 0.949 . S
C1187 C1188 1.349 . S
C1187 C1189 1.327 . S
C1187 H1210 0.950 . S
C1188 C1187 1.349 . S
C1188 C1200 1.349 1_554 S
C1189 C1187 1.327 . S
C1189 C1205 1.429 . S
C1189 H1211 0.950 . S
C1190 H1186 0.949 . S
C1190 C1198 1.574 . S
C1190 C1206 1.368 1_556 S
H1191 C1199 0.950 . S
H1192 C1197 0.950 . S
H1193 C1198 0.949 . S
H1194 C1200 0.950 . S
H1195 C1201 0.950 . S
H1196 C1202 0.949 . S
C1197 H1192 0.950 . S
C1197 C1199 1.327 . S
C1197 C1203 1.429 1_554 S
C1198 C1190 1.574 . S
C1198 H1193 0.949 . S
C1198 C1204 1.368 1_556 S
C1199 C1183 1.349 1_554 S
C1199 H1191 0.950 . S
C1199 C1197 1.327 . S
C1200 C1188 1.349 1_556 S
C1200 H1194 0.950 . S
C1200 C1201 1.327 . S
C1201 H1195 0.950 . S
C1201 C1200 1.327 . S
C1201 C1205 1.429 1_556 S
C1202 C1185 1.574 . S
C1202 H1196 0.949 . S
C1202 C1206 1.368 . S
C1203 C1184 1.429 . S
C1203 C1197 1.429 1_556 S
C1203 C1204 1.523 1_556 S
C1204 C1185 1.368 . S
C1204 C1198 1.368 1_554 S
C1204 C1203 1.523 1_554 S
C1205 C1189 1.429 . S
C1205 C1201 1.429 1_554 S
C1205 C1206 1.523 . S
C1206 C1190 1.368 1_554 S
C1206 C1202 1.368 . S
C1206 C1205 1.523 . S
H1207 C1182 0.950 . S
H1208 C1184 0.950 . S
H1209 C1185 0.949 . S
H1210 C1187 0.950 . S
H1211 C1189 0.950 . S
C1212 C1213 1.349 . S
C1212 C1214 1.327 . S
C1212 H1237 0.950 . S
C1213 C1212 1.349 . S
C1213 C1229 1.349 . S
C1214 C1212 1.327 . S
C1214 C1233 1.429 . S
C1214 H1238 0.950 . S
C1215 C1232 1.574 . S
C1215 C1234 1.368 . S
C1215 H1239 0.949 . S
H1216 C1220 0.949 . S
C1217 C1218 1.349 . S
C1217 C1219 1.327 . S
C1217 H1240 0.950 . S
C1218 C1217 1.349 . S
C1218 C1230 1.349 . S
C1219 C1217 1.327 . S
C1219 C1235 1.429 . S
C1219 H1241 0.950 . S
C1220 H1216 0.949 . S
C1220 C1228 1.574 . S
C1220 C1236 1.368 . S
H1221 C1229 0.950 . S
H1222 C1227 0.950 . S
H1223 C1228 0.949 . S
H1224 C1230 0.950 . S
H1225 C1231 0.950 . S
H1226 C1232 0.949 . S
C1227 H1222 0.950 . S
C1227 C1229 1.327 . S
C1227 C1233 1.429 . S
C1228 C1220 1.574 . S
C1228 H1223 0.949 . S
C1228 C1234 1.368 . S
C1229 C1213 1.349 . S
C1229 H1221 0.950 . S
C1229 C1227 1.327 . S
C1230 C1218 1.349 . S
C1230 H1224 0.950 . S
C1230 C1231 1.327 . S
C1231 H1225 0.950 . S
C1231 C1230 1.327 . S
C1231 C1235 1.429 . S
C1232 C1215 1.574 . S
C1232 H1226 0.949 . S
C1232 C1236 1.368 . S
C1233 C1214 1.429 . S
C1233 C1227 1.429 . S
C1233 C1234 1.523 . S
C1234 C1215 1.368 . S
C1234 C1228 1.368 . S
C1234 C1233 1.523 . S
C1235 C1219 1.429 . S
C1235 C1231 1.429 . S
C1235 C1236 1.523 . S
C1236 C1220 1.368 . S
C1236 C1232 1.368 . S
C1236 C1235 1.523 . S
H1237 C1212 0.950 . S
H1238 C1214 0.950 . S
H1239 C1215 0.949 . S
H1240 C1217 0.950 . S
H1241 C1219 0.950 . S
C1242 C1243 1.349 . S
C1242 C1244 1.327 . S
C1242 H1267 0.950 . S
C1243 C1242 1.349 . S
C1243 C1259 1.349 . S
C1244 C1242 1.327 . S
C1244 C1263 1.429 . S
C1244 H1268 0.950 . S
C1245 C1262 1.574 . S
C1245 C1264 1.368 . S
C1245 H1269 0.949 . S
H1246 C1250 0.949 1_554 S
C1247 C1248 1.349 1_556 S
C1247 C1249 1.327 . S
C1247 H1270 0.950 . S
C1248 C1247 1.349 1_554 S
C1248 C1260 1.349 . S
C1249 C1247 1.327 . S
C1249 C1265 1.429 . S
C1249 H1271 0.950 . S
C1250 H1246 0.949 1_556 S
C1250 C1258 1.574 . S
C1250 C1266 1.368 . S
H1251 C1259 0.950 1_556 S
H1252 C1257 0.950 . S
H1253 C1258 0.949 . S
H1254 C1260 0.950 . S
H1255 C1261 0.950 . S
H1256 C1262 0.949 . S
C1257 H1252 0.950 . S
C1257 C1259 1.327 . S
C1257 C1263 1.429 . S
C1258 C1250 1.574 . S
C1258 H1253 0.949 . S
C1258 C1264 1.368 . S
C1259 C1243 1.349 . S
C1259 H1251 0.950 1_554 S
C1259 C1257 1.327 . S
C1260 C1248 1.349 . S
C1260 H1254 0.950 . S
C1260 C1261 1.327 . S
C1261 H1255 0.950 . S
C1261 C1260 1.327 . S
C1261 C1265 1.429 1_554 S
C1262 C1245 1.574 . S
C1262 H1256 0.949 . S
C1262 C1266 1.368 . S
C1263 C1244 1.429 . S
C1263 C1257 1.429 . S
C1263 C1264 1.523 . S
C1264 C1245 1.368 . S
C1264 C1258 1.368 . S
C1264 C1263 1.523 . S
C1265 C1249 1.429 . S
C1265 C1261 1.429 1_556 S
C1265 C1266 1.523 . S
C1266 C1250 1.368 . S
C1266 C1262 1.368 . S
C1266 C1265 1.523 . S
H1267 C1242 0.950 . S
H1268 C1244 0.950 . S
H1269 C1245 0.949 . S
H1270 C1247 0.950 . S
H1271 C1249 0.950 . S
C1272 C1273 1.349 . S
C1272 C1274 1.327 . S
C1272 H1297 0.950 1_556 S
C1273 C1272 1.349 . S
C1273 C1289 1.349 . S
C1274 C1272 1.327 . S
C1274 C1293 1.429 . S
C1274 H1298 0.950 1_556 S
C1275 C1292 1.574 . S
C1275 C1294 1.368 . S
C1275 H1299 0.949 . S
H1276 C1280 0.949 1_554 S
C1277 C1278 1.349 . S
C1277 C1279 1.327 . S
C1277 H1300 0.950 . S
C1278 C1277 1.349 . S
C1278 C1290 1.349 . S
C1279 C1277 1.327 . S
C1279 C1295 1.429 . S
C1279 H1301 0.950 . S
C1280 H1276 0.949 1_556 S
C1280 C1288 1.574 . S
C1280 C1296 1.368 . S
H1281 C1289 0.950 . S
H1282 C1287 0.950 . S
H1283 C1288 0.949 1_554 S
H1284 C1290 0.950 1_554 S
H1285 C1291 0.950 1_554 S
H1286 C1292 0.949 . S
C1287 H1282 0.950 . S
C1287 C1289 1.327 . S
C1287 C1293 1.429 . S
C1288 C1280 1.574 . S
C1288 H1283 0.949 1_556 S
C1288 C1294 1.368 . S
C1289 C1273 1.349 . S
C1289 H1281 0.950 . S
C1289 C1287 1.327 . S
C1290 C1278 1.349 . S
C1290 H1284 0.950 1_556 S
C1290 C1291 1.327 . S
C1291 H1285 0.950 1_556 S
C1291 C1290 1.327 . S
C1291 C1295 1.429 . S
C1292 C1275 1.574 . S
C1292 H1286 0.949 . S
C1292 C1296 1.368 . S
C1293 C1274 1.429 . S
C1293 C1287 1.429 . S
C1293 C1294 1.523 . S
C1294 C1275 1.368 . S
C1294 C1288 1.368 . S
C1294 C1293 1.523 . S
C1295 C1279 1.429 . S
C1295 C1291 1.429 . S
C1295 C1296 1.523 . S
C1296 C1280 1.368 . S
C1296 C1292 1.368 . S
C1296 C1295 1.523 . S
H1297 C1272 0.950 1_554 S
H1298 C1274 0.950 1_554 S
H1299 C1275 0.949 . S
H1300 C1277 0.950 . S
H1301 C1279 0.950 . S
C1302 C1303 1.349 . S
C1302 C1304 1.327 . S
C1302 H1327 0.950 . S
C1303 C1302 1.349 . S
C1303 C1319 1.349 . S
C1304 C1302 1.327 . S
C1304 C1323 1.429 . S
C1304 H1328 0.950 . S
C1305 C1322 1.574 . S
C1305 C1324 1.368 . S
C1305 H1329 0.949 . S
H1306 C1310 0.949 . S
C1307 C1308 1.349 . S
C1307 C1309 1.327 . S
C1307 H1330 0.950 . S
C1308 C1307 1.349 . S
C1308 C1320 1.349 . S
C1309 C1307 1.327 . S
C1309 C1325 1.429 . S
C1309 H1331 0.950 . S
C1310 H1306 0.949 . S
C1310 C1318 1.574 . S
C1310 C1326 1.368 . S
H1311 C1319 0.950 . S
H1312 C1317 0.950 . S
H1313 C1318 0.949 . S
H1314 C1320 0.950 . S
H1315 C1321 0.950 . S
H1316 C1322 0.949 . S
C1317 H1312 0.950 . S
C1317 C1319 1.327 . S
C1317 C1323 1.429 . S
C1318 C1310 1.574 . S
C1318 H1313 0.949 . S
C1318 C1324 1.368 . S
C1319 C1303 1.349 . S
C1319 H1311 0.950 . S
C1319 C1317 1.327 . S
C1320 C1308 1.349 . S
C1320 H1314 0.950 . S
C1320 C1321 1.327 . S
C1321 H1315 0.950 . S
C1321 C1320 1.327 . S
C1321 C1325 1.429 . S
C1322 C1305 1.574 . S
C1322 H1316 0.949 . S
C1322 C1326 1.368 . S
C1323 C1304 1.429 . S
C1323 C1317 1.429 . S
C1323 C1324 1.523 . S
C1324 C1305 1.368 . S
C1324 C1318 1.368 . S
C1324 C1323 1.523 . S
C1325 C1309 1.429 . S
C1325 C1321 1.429 . S
C1325 C1326 1.523 . S
C1326 C1310 1.368 . S
C1326 C1322 1.368 . S
C1326 C1325 1.523 . S
H1327 C1302 0.950 . S
H1328 C1304 0.950 . S
H1329 C1305 0.949 . S
H1330 C1307 0.950 . S
H1331 C1309 0.950 . S
C253 C217 1.588 . S
C258 C7 1.584 . S
C283 C20 1.990 . S
C288 C230 2.022 . S
C313 C35 1.787 . S
C318 C245 1.775 . S
C343 C160 1.841 . S
C348 C34 1.815 . S
C373 C132 1.840 . S
C378 C6 1.862 . S
C403 C146 1.605 . S
C408 C21 1.604 . S
C433 C90 1.588 . S
C438 C49 1.584 . S
C463 C62 1.971 . S
C468 C104 2.003 . S
C493 C77 1.778 . S
C498 C118 1.767 . S
C523 C76 1.819 . S
C528 C202 1.844 . S
C553 C48 1.863 . S
C558 C174 1.841 . S
C583 C63 1.634 . S
C588 C189 1.634 . S
C613 C119 1.622 . S
C618 C244 1.622 . S
C643 C216 1.821 . S
C648 C91 1.821 . S
C673 C105 1.601 . S
C678 C231 1.601 . S
C703 C175 1.547 . S
C708 C133 1.546 . S
C733 C147 1.510 . S
C738 C188 1.509 . S
C763 C161 2.220 1_554 S
C768 C203 2.220 1_556 S
C793 C9 0.985 . S
C798 C36 0.985 . S
C823 C8 0.882 . S
C828 C22 0.879 . S
C853 C23 1.390 . S
C858 C37 1.434 1_565 S
C883 C51 0.985 . S
C888 C78 0.985 . S
C913 C64 0.884 . S
C918 C50 0.890 . S
C943 C65 1.390 . S
C948 C79 1.429 1_556 S
C973 C92 1.154 . S
C978 C121 1.146 . S
C1003 C106 0.894 . S
C1008 C93 0.876 . S
C1033 C120 1.026 . S
C1038 C107 0.983 . S
C1063 C135 1.472 . S
C1068 C162 1.447 . S
C1093 C134 0.868 . S
C1098 C149 0.861 . S
C1123 C163 0.846 . S
C1128 C148 0.854 . S
C1153 C204 1.439 . S
C1158 C177 1.460 . S
C1183 C190 0.868 1_556 S
C1188 C176 0.877 . S
C1213 C205 0.857 . S
C1218 C191 0.866 . S
C1243 C246 1.151 . S
C1248 C219 1.161 . S
C1273 C218 0.876 . S
C1278 C232 0.893 . S
C1303 C247 1.030 . S
C1308 C233 0.986 . S
