# Generated by pormake.
# Topology cag, (4)-cn, num edge types: 1
# Building blocks:
#     Node 0, Type 0, BuildingBlock: CEKHIL_clean_sbu_0, # of connection points: 4
#     Node 1, Type 0, BuildingBlock: CEKHIL_clean_sbu_0, # of connection points: 4
#     Node 2, Type 0, BuildingBlock: CEKHIL_clean_sbu_0, # of connection points: 4
#     Node 3, Type 0, BuildingBlock: CEKHIL_clean_sbu_0, # of connection points: 4
#     Node 4, Type 0, BuildingBlock: CEKHIL_clean_sbu_0, # of connection points: 4
#     Node 5, Type 0, BuildingBlock: CEKHIL_clean_sbu_0, # of connection points: 4
#     Node 6, Type 0, BuildingBlock: CEKHIL_clean_sbu_0, # of connection points: 4
#     Node 7, Type 0, BuildingBlock: CEKHIL_clean_sbu_0, # of connection points: 4
#     Node 8, Type 0, BuildingBlock: CEKHIL_clean_sbu_0, # of connection points: 4
#     Node 9, Type 0, BuildingBlock: CEKHIL_clean_sbu_0, # of connection points: 4
#     Node 10, Type 0, BuildingBlock: CEKHIL_clean_sbu_0, # of connection points: 4
#     Node 11, Type 0, BuildingBlock: CEKHIL_clean_sbu_0, # of connection points: 4
#     Node 12, Type 0, BuildingBlock: CEKHIL_clean_sbu_0, # of connection points: 4
#     Node 13, Type 0, BuildingBlock: CEKHIL_clean_sbu_0, # of connection points: 4
#     Node 14, Type 0, BuildingBlock: CEKHIL_clean_sbu_0, # of connection points: 4
#     Node 15, Type 0, BuildingBlock: CEKHIL_clean_sbu_0, # of connection points: 4
#     Edge 16, Type (0, 0), BuildingBlock: KIFKEQ_clean_linker_1, # of connection points: 2
#     Edge 17, Type (0, 0), BuildingBlock: KIFKEQ_clean_linker_1, # of connection points: 2
#     Edge 18, Type (0, 0), BuildingBlock: KIFKEQ_clean_linker_1, # of connection points: 2
#     Edge 19, Type (0, 0), BuildingBlock: KIFKEQ_clean_linker_1, # of connection points: 2
#     Edge 20, Type (0, 0), BuildingBlock: KIFKEQ_clean_linker_1, # of connection points: 2
#     Edge 21, Type (0, 0), BuildingBlock: KIFKEQ_clean_linker_1, # of connection points: 2
#     Edge 22, Type (0, 0), BuildingBlock: KIFKEQ_clean_linker_1, # of connection points: 2
#     Edge 23, Type (0, 0), BuildingBlock: KIFKEQ_clean_linker_1, # of connection points: 2
#     Edge 24, Type (0, 0), BuildingBlock: KIFKEQ_clean_linker_1, # of connection points: 2
#     Edge 25, Type (0, 0), BuildingBlock: KIFKEQ_clean_linker_1, # of connection points: 2
#     Edge 26, Type (0, 0), BuildingBlock: KIFKEQ_clean_linker_1, # of connection points: 2
#     Edge 27, Type (0, 0), BuildingBlock: KIFKEQ_clean_linker_1, # of connection points: 2
#     Edge 28, Type (0, 0), BuildingBlock: KIFKEQ_clean_linker_1, # of connection points: 2
#     Edge 29, Type (0, 0), BuildingBlock: KIFKEQ_clean_linker_1, # of connection points: 2
#     Edge 30, Type (0, 0), BuildingBlock: KIFKEQ_clean_linker_1, # of connection points: 2
#     Edge 31, Type (0, 0), BuildingBlock: KIFKEQ_clean_linker_1, # of connection points: 2
#     Edge 32, Type (0, 0), BuildingBlock: KIFKEQ_clean_linker_1, # of connection points: 2
#     Edge 33, Type (0, 0), BuildingBlock: KIFKEQ_clean_linker_1, # of connection points: 2
#     Edge 34, Type (0, 0), BuildingBlock: KIFKEQ_clean_linker_1, # of connection points: 2
#     Edge 35, Type (0, 0), BuildingBlock: KIFKEQ_clean_linker_1, # of connection points: 2
#     Edge 36, Type (0, 0), BuildingBlock: KIFKEQ_clean_linker_1, # of connection points: 2
#     Edge 37, Type (0, 0), BuildingBlock: KIFKEQ_clean_linker_1, # of connection points: 2
#     Edge 38, Type (0, 0), BuildingBlock: KIFKEQ_clean_linker_1, # of connection points: 2
#     Edge 39, Type (0, 0), BuildingBlock: KIFKEQ_clean_linker_1, # of connection points: 2
#     Edge 40, Type (0, 0), BuildingBlock: KIFKEQ_clean_linker_1, # of connection points: 2
#     Edge 41, Type (0, 0), BuildingBlock: KIFKEQ_clean_linker_1, # of connection points: 2
#     Edge 42, Type (0, 0), BuildingBlock: KIFKEQ_clean_linker_1, # of connection points: 2
#     Edge 43, Type (0, 0), BuildingBlock: KIFKEQ_clean_linker_1, # of connection points: 2
#     Edge 44, Type (0, 0), BuildingBlock: KIFKEQ_clean_linker_1, # of connection points: 2
#     Edge 45, Type (0, 0), BuildingBlock: KIFKEQ_clean_linker_1, # of connection points: 2
#     Edge 46, Type (0, 0), BuildingBlock: KIFKEQ_clean_linker_1, # of connection points: 2
#     Edge 47, Type (0, 0), BuildingBlock: KIFKEQ_clean_linker_1, # of connection points: 2
# Relax obj value: 0.094
# Max RMSD: 0.132
# Mean RMSD: 0.131
data_MOF--net-cag--node1-CEKHIL_clean_sbu_0--edge1-KIFKEQ_clean_linker_1
_symmetry_space_group_name_H-M    P1
_symmetry_Int_Tables_number       1
_symmetry_cell_setting            triclinic
loop_
_symmetry_equiv_pos_as_xyz
'x, y, z'
_cell_length_a     44.541333
_cell_length_b     49.294339
_cell_length_c     40.760684
_cell_angle_alpha  90.001892
_cell_angle_beta   89.976282
_cell_angle_gamma 90.016855
loop_
_atom_site_label
_atom_site_type_symbol
_atom_site_fract_x
_atom_site_fract_y
_atom_site_fract_z
_atom_type_partial_charge
Co0 Co 0.32497 0.13874 0.08001 0.0
O1 O 0.28685 0.15045 0.06178 0.0
O2 O 0.32804 0.17545 0.06428 0.0
C3 C 0.32633 0.09797 0.05474 0.0
O4 O 0.36874 0.13436 0.09384 0.0
Co5 Co 0.33309 0.0884 0.12453 0.0
O6 O 0.37675 0.0937 0.11695 0.0
C7 C 0.30307 0.13734 0.15032 0.0
C8 C 0.30032 0.17316 0.05484 0.0
C9 C 0.38646 0.11592 0.10503 0.0
O10 O 0.31206 0.15132 0.12542 0.0
O11 O 0.30674 0.11168 0.15281 0.0
O12 O 0.33437 0.1198 0.03914 0.0
O13 O 0.31578 0.1017 0.08391 0.0
Co14 Co 0.18627 0.87033 0.57962 0.0
O15 O 0.22522 0.86064 0.56217 0.0
O16 O 0.18559 0.83361 0.56304 0.0
C17 C 0.18341 0.91136 0.55507 0.0
O18 O 0.14209 0.87293 0.59277 0.0
Co19 Co 0.1758 0.91983 0.6251 0.0
O20 O 0.13255 0.91298 0.61689 0.0
C21 C 0.20748 0.87157 0.65016 0.0
C22 C 0.21341 0.83737 0.55454 0.0
C23 C 0.1237 0.8907 0.60432 0.0
O24 O 0.19907 0.85763 0.62499 0.0
O25 O 0.20294 0.89708 0.65306 0.0
O26 O 0.17663 0.88947 0.5389 0.0
O27 O 0.19369 0.90761 0.58432 0.0
Co28 Co 0.32442 0.8689 0.93277 0.0
O29 O 0.28527 0.85928 0.94972 0.0
O30 O 0.32495 0.83232 0.94984 0.0
C31 C 0.32685 0.9101 0.95692 0.0
O32 O 0.36881 0.87149 0.92025 0.0
Co33 Co 0.33544 0.91805 0.88692 0.0
O34 O 0.37851 0.91157 0.89629 0.0
C35 C 0.30601 0.86889 0.86094 0.0
C36 C 0.29702 0.83611 0.95785 0.0
C37 C 0.38729 0.88934 0.90899 0.0
O38 O 0.3123 0.85568 0.88738 0.0
O39 O 0.31128 0.8942 0.85713 0.0
O40 O 0.33347 0.88833 0.97337 0.0
O41 O 0.31695 0.90616 0.92753 0.0
Co42 Co 0.18692 0.14063 0.43382 0.0
O43 O 0.22619 0.14987 0.45078 0.0
O44 O 0.18685 0.17721 0.45089 0.0
C45 C 0.18393 0.09943 0.45795 0.0
O46 O 0.14249 0.1385 0.42134 0.0
Co47 Co 0.17529 0.09159 0.38797 0.0
O48 O 0.1323 0.09853 0.39738 0.0
C49 C 0.20565 0.14031 0.36208 0.0
C50 C 0.21472 0.17316 0.4589 0.0
C51 C 0.12378 0.12084 0.4101 0.0
O52 O 0.19925 0.15368 0.38839 0.0
O53 O 0.20016 0.11503 0.35838 0.0
O54 O 0.17759 0.12126 0.47443 0.0
O55 O 0.19391 0.10329 0.42857 0.0
Co56 Co 0.67446 0.87618 0.91284 0.0
O57 O 0.71376 0.87923 0.89229 0.0
O58 O 0.67267 0.86497 0.86742 0.0
C59 C 0.67507 0.91711 0.93831 0.0
O60 O 0.62969 0.87177 0.92301 0.0
Co61 Co 0.66221 0.87747 0.98792 0.0
O62 O 0.61949 0.88162 0.9756 0.0
C63 C 0.68726 0.82785 0.95726 0.0
C64 C 0.70103 0.87081 0.86541 0.0
C65 C 0.61096 0.87621 0.94652 0.0
O66 O 0.68422 0.83784 0.92812 0.0
O67 O 0.68129 0.84101 0.98352 0.0
O68 O 0.66807 0.9154 0.90738 0.0
O69 O 0.68324 0.89472 0.95192 0.0
Co70 Co 0.83715 0.13046 0.41278 0.0
O71 O 0.79828 0.1256 0.39182 0.0
O72 O 0.83853 0.14241 0.3676 0.0
C73 C 0.83888 0.08929 0.43764 0.0
O74 O 0.88144 0.13707 0.42356 0.0
Co75 Co 0.84847 0.12898 0.48808 0.0
O76 O 0.89166 0.1284 0.47646 0.0
C77 C 0.81485 0.17428 0.45788 0.0
C78 C 0.81059 0.13515 0.36526 0.0
C79 C 0.90015 0.13393 0.44738 0.0
O80 O 0.82439 0.16782 0.42896 0.0
O81 O 0.81959 0.15975 0.48337 0.0
O82 O 0.84611 0.09159 0.4068 0.0
O83 O 0.82929 0.11114 0.45132 0.0
Co84 Co 0.67401 0.12969 0.09953 0.0
O85 O 0.71356 0.12712 0.11958 0.0
O86 O 0.67249 0.14082 0.14497 0.0
C87 C 0.67493 0.08882 0.07396 0.0
O88 O 0.62906 0.13351 0.08999 0.0
Co89 Co 0.66103 0.12843 0.02463 0.0
O90 O 0.61854 0.12352 0.03752 0.0
C91 C 0.68584 0.17823 0.05506 0.0
C92 C 0.70095 0.13535 0.14662 0.0
C93 C 0.6102 0.12873 0.06672 0.0
O94 O 0.68309 0.16818 0.08421 0.0
O95 O 0.67982 0.16504 0.02885 0.0
O96 O 0.66825 0.09041 0.10499 0.0
O97 O 0.68265 0.11133 0.0603 0.0
Co98 Co 0.83668 0.87703 0.59888 0.0
O99 O 0.7973 0.88018 0.61929 0.0
O100 O 0.83826 0.86576 0.64427 0.0
C101 C 0.83653 0.91793 0.57338 0.0
O102 O 0.88146 0.87249 0.58898 0.0
Co103 Co 0.84932 0.87827 0.52385 0.0
O104 O 0.89195 0.88253 0.53651 0.0
C105 C 0.82384 0.82876 0.55438 0.0
C106 C 0.80992 0.87164 0.64618 0.0
C107 C 0.90031 0.87706 0.56563 0.0
O108 O 0.82681 0.83873 0.58354 0.0
O109 O 0.82999 0.84191 0.52816 0.0
O110 O 0.84327 0.91621 0.60438 0.0
O111 O 0.82823 0.89558 0.55975 0.0
Co112 Co 0.82389 0.63781 0.07951 0.0
O113 O 0.78501 0.64737 0.06181 0.0
O114 O 0.8244 0.67465 0.06331 0.0
C115 C 0.82718 0.59695 0.05458 0.0
O116 O 0.86799 0.63538 0.09303 0.0
Co117 Co 0.83441 0.58798 0.12449 0.0
O118 O 0.87766 0.59524 0.11687 0.0
C119 C 0.80131 0.63557 0.14934 0.0
C120 C 0.79669 0.67077 0.05451 0.0
C121 C 0.88643 0.61765 0.10458 0.0
O122 O 0.81053 0.65002 0.12493 0.0
O123 O 0.80588 0.61001 0.15162 0.0
O124 O 0.83398 0.61897 0.03867 0.0
O125 O 0.81671 0.60049 0.08378 0.0
Co126 Co 0.68568 0.36998 0.5795 0.0
O127 O 0.72367 0.35798 0.56121 0.0
O128 O 0.68233 0.33322 0.56403 0.0
C129 C 0.68452 0.41065 0.554 0.0
O130 O 0.64198 0.37463 0.59346 0.0
Co131 Co 0.67794 0.42056 0.62372 0.0
O132 O 0.63422 0.41542 0.61637 0.0
C133 C 0.70796 0.37166 0.64958 0.0
C134 C 0.71004 0.33531 0.55448 0.0
C135 C 0.62437 0.39319 0.6046 0.0
O136 O 0.69862 0.35754 0.62494 0.0
O137 O 0.70452 0.39736 0.65181 0.0
O138 O 0.6763 0.38881 0.53854 0.0
O139 O 0.6951 0.40698 0.58315 0.0
Co140 Co 0.82361 0.36782 0.93309 0.0
O141 O 0.78441 0.35832 0.95008 0.0
O142 O 0.82397 0.33123 0.95009 0.0
C143 C 0.82637 0.40901 0.95725 0.0
O144 O 0.86801 0.37021 0.92058 0.0
Co145 Co 0.83495 0.41697 0.8873 0.0
O146 O 0.87796 0.41035 0.89691 0.0
C147 C 0.80513 0.36802 0.86126 0.0
C148 C 0.79607 0.33509 0.95814 0.0
C149 C 0.88661 0.38804 0.90952 0.0
O150 O 0.81138 0.35473 0.88766 0.0
O151 O 0.81057 0.39331 0.85751 0.0
O152 O 0.83281 0.3872 0.97371 0.0
O153 O 0.81638 0.40513 0.92789 0.0
Co154 Co 0.68543 0.63981 0.43206 0.0
O155 O 0.72473 0.64961 0.44839 0.0
O156 O 0.68488 0.67634 0.44925 0.0
C157 C 0.68363 0.59856 0.45618 0.0
O158 O 0.64087 0.63699 0.42028 0.0
Co159 Co 0.67398 0.59058 0.38643 0.0
O160 O 0.63108 0.59673 0.39682 0.0
C161 C 0.70153 0.64034 0.3594 0.0
C162 C 0.71292 0.67268 0.45683 0.0
C163 C 0.62234 0.619 0.40948 0.0
O164 O 0.69681 0.6532 0.38649 0.0
O165 O 0.69579 0.61513 0.35538 0.0
O166 O 0.67707 0.62028 0.47276 0.0
O167 O 0.6931 0.60256 0.42663 0.0
Co168 Co 0.17335 0.37781 0.91322 0.0
O169 O 0.21246 0.38174 0.89244 0.0
O170 O 0.17162 0.36637 0.86789 0.0
C171 C 0.17255 0.41889 0.93829 0.0
O172 O 0.12889 0.37208 0.92385 0.0
Co173 Co 0.16178 0.3792 0.98847 0.0
O174 O 0.11862 0.38028 0.97685 0.0
C175 C 0.19471 0.33356 0.95803 0.0
C176 C 0.19978 0.37286 0.86576 0.0
C177 C 0.11015 0.37516 0.94766 0.0
O178 O 0.18515 0.34013 0.92917 0.0
O179 O 0.19026 0.34815 0.98355 0.0
O180 O 0.16541 0.41682 0.90742 0.0
O181 O 0.1816 0.39682 0.95193 0.0
Co182 Co 0.33525 0.63164 0.41322 0.0
O183 O 0.296 0.62874 0.39258 0.0
O184 O 0.33719 0.64298 0.36785 0.0
C185 C 0.33442 0.59063 0.43846 0.0
O186 O 0.37998 0.63595 0.42355 0.0
Co187 Co 0.34724 0.63008 0.48832 0.0
O188 O 0.39002 0.62607 0.47615 0.0
C189 C 0.32249 0.67988 0.45779 0.0
C190 C 0.30883 0.63721 0.36577 0.0
C191 C 0.39864 0.63153 0.44711 0.0
O192 O 0.32557 0.66995 0.42863 0.0
O193 O 0.32832 0.66662 0.48402 0.0
O194 O 0.34155 0.59243 0.40757 0.0
O195 O 0.32629 0.613 0.45217 0.0
Co196 Co 0.17348 0.63139 0.0993 0.0
O197 O 0.21286 0.62833 0.11966 0.0
O198 O 0.17187 0.64265 0.14468 0.0
C199 C 0.17381 0.59048 0.07382 0.0
O200 O 0.12869 0.63584 0.08945 0.0
Co201 Co 0.16084 0.63013 0.02431 0.0
O202 O 0.11819 0.62591 0.03697 0.0
C203 C 0.18623 0.67967 0.05481 0.0
C204 C 0.20023 0.63684 0.14656 0.0
C205 C 0.10983 0.63133 0.06611 0.0
O206 O 0.18325 0.6697 0.08396 0.0
O207 O 0.18012 0.66652 0.02859 0.0
O208 O 0.16702 0.59219 0.10482 0.0
O209 O 0.182 0.61285 0.06017 0.0
Co210 Co 0.33682 0.37817 0.59994 0.0
O211 O 0.2972 0.37984 0.62005 0.0
O212 O 0.33887 0.36772 0.64556 0.0
C213 C 0.33483 0.41883 0.57401 0.0
O214 O 0.38182 0.37525 0.59028 0.0
Co215 Co 0.34963 0.37919 0.525 0.0
O216 O 0.39209 0.38473 0.53761 0.0
C217 C 0.32578 0.32922 0.55602 0.0
C218 C 0.31025 0.37243 0.64718 0.0
C219 C 0.40057 0.37999 0.56687 0.0
O220 O 0.32867 0.3394 0.58508 0.0
O221 O 0.33133 0.3424 0.52966 0.0
O222 O 0.34156 0.41755 0.60503 0.0
O223 O 0.32761 0.3961 0.56053 0.0
H224 H 0.3267 0.21759 0.02784 0.0
H225 H 0.24079 0.17781 0.03778 0.0
H226 H 0.30324 0.25403 0.99702 0.0
H227 H 0.21691 0.21503 0.00765 0.0
H228 H 0.18488 0.28117 0.93614 0.0
H229 H 0.21147 0.24017 0.95504 0.0
H230 H 0.27117 0.29049 0.01236 0.0
H231 H 0.24526 0.33062 0.99332 0.0
C232 C 0.30272 0.21668 0.02359 0.0
C233 C 0.28554 0.19501 0.03575 0.0
C234 C 0.28924 0.23761 1.00584 0.0
C235 C 0.25809 0.23766 1.00008 0.0
C236 C 0.24098 0.21553 0.01136 0.0
C237 C 0.25459 0.19436 0.02894 0.0
C238 C 0.20422 0.28327 0.95203 0.0
C239 C 0.21309 0.30899 0.96326 0.0
C240 C 0.2192 0.25988 0.96319 0.0
C241 C 0.24346 0.26199 0.98532 0.0
C242 C 0.25296 0.28795 0.99504 0.0
C243 C 0.23799 0.31103 0.98421 0.0
H244 H 0.34337 0.7174 0.50019 0.0
H245 H 0.27407 0.70396 0.42812 0.0
H246 H 0.31771 0.75804 0.51913 0.0
H247 H 0.248 0.745 0.44719 0.0
H248 H 0.19265 0.78928 0.52993 0.0
H249 H 0.22076 0.75486 0.49973 0.0
H250 H 0.30063 0.80425 0.50615 0.0
H251 H 0.27257 0.83861 0.53657 0.0
C252 C 0.32302 0.72366 0.48776 0.0
C253 C 0.3107 0.70759 0.46268 0.0
C254 C 0.30831 0.74698 0.49859 0.0
C255 C 0.28064 0.75464 0.48491 0.0
C256 C 0.26914 0.73944 0.45845 0.0
C257 C 0.2842 0.71618 0.44723 0.0
C258 C 0.21619 0.79284 0.52483 0.0
C259 C 0.23044 0.81657 0.53597 0.0
C260 C 0.23222 0.77325 0.50717 0.0
C261 C 0.26292 0.77684 0.5004 0.0
C262 C 0.27704 0.8008 0.51111 0.0
C263 C 0.26097 0.82046 0.52858 0.0
H264 H 0.31734 0.78799 0.98284 0.0
H265 H 0.23783 0.83777 0.97559 0.0
H266 H 0.28884 0.75387 0.01312 0.0
H267 H 0.20941 0.80373 1.00612 0.0
H268 H 0.16576 0.71735 0.0124 0.0
H269 H 0.19188 0.75774 0.99342 0.0
H270 H 0.26139 0.74419 0.06545 0.0
H271 H 0.23487 0.70338 0.08453 0.0
C272 C 0.29381 0.79171 0.98783 0.0
C273 C 0.27978 0.81547 0.97648 0.0
C274 C 0.27756 0.77229 1.00554 0.0
C275 C 0.24686 0.7761 0.01216 0.0
C276 C 0.23298 0.8001 1.00127 0.0
C277 C 0.24926 0.81959 0.98373 0.0
C278 C 0.18617 0.72345 0.02484 0.0
C279 C 0.1983 0.70729 0.04993 0.0
C280 C 0.20115 0.74663 0.01398 0.0
C281 C 0.22889 0.75406 0.02767 0.0
C282 C 0.2402 0.73879 0.05418 0.0
C283 C 0.22489 0.71567 0.0654 0.0
H284 H 0.34654 0.29156 0.51365 0.0
H285 H 0.27757 0.30514 0.58611 0.0
H286 H 0.32048 0.25114 0.49461 0.0
H287 H 0.25113 0.26434 0.56698 0.0
H288 H 0.19478 0.22122 0.48438 0.0
H289 H 0.22354 0.25509 0.51473 0.0
H290 H 0.30277 0.20504 0.50679 0.0
H291 H 0.27405 0.17123 0.47619 0.0
C292 C 0.3262 0.28534 0.52618 0.0
C293 C 0.31408 0.30142 0.55138 0.0
C294 C 0.31125 0.26215 0.51527 0.0
C295 C 0.28353 0.25464 0.529 0.0
C296 C 0.27229 0.26979 0.55566 0.0
C297 C 0.28758 0.29291 0.56693 0.0
C298 C 0.21832 0.2174 0.48916 0.0
C299 C 0.23219 0.19365 0.47755 0.0
C300 C 0.23473 0.23668 0.50693 0.0
C301 C 0.26544 0.23274 0.51333 0.0
C302 C 0.27919 0.20877 0.50213 0.0
C303 C 0.26273 0.18941 0.48455 0.0
H304 H 0.73771 0.66921 0.03589 0.0
H305 H 0.81726 0.71914 0.03048 0.0
H306 H 0.70967 0.70348 1.00535 0.0
H307 H 0.78916 0.75347 1.00014 0.0
H308 H 0.73621 0.80422 0.92808 0.0
H309 H 0.76244 0.76332 0.94733 0.0
H310 H 0.69198 0.7495 0.01823 0.0
H311 H 0.66616 0.79 0.99911 0.0
C312 C 0.74924 0.68747 0.02816 0.0
C313 C 0.77965 0.69156 0.03591 0.0
C314 C 0.73317 0.70709 0.0106 0.0
C315 C 0.74719 0.73119 1.00019 0.0
C316 C 0.77779 0.73498 0.00735 0.0
C317 C 0.7938 0.71544 0.02509 0.0
C318 C 0.72596 0.79185 0.94698 0.0
C319 C 0.69918 0.80018 0.9621 0.0
C320 C 0.74111 0.76868 0.95831 0.0
C321 C 0.72944 0.7533 0.98455 0.0
C322 C 0.70153 0.76069 0.99787 0.0
C323 C 0.68671 0.78393 0.98693 0.0
H324 H 0.76489 0.17735 0.49427 0.0
H325 H 0.82408 0.2265 0.43519 0.0
H326 H 0.73911 0.21758 0.51332 0.0
H327 H 0.79763 0.26758 0.45413 0.0
H328 H 0.76939 0.33055 0.53666 0.0
H329 H 0.79298 0.29309 0.50669 0.0
H330 H 0.70663 0.25384 0.49791 0.0
H331 H 0.68343 0.29056 0.52854 0.0
C332 C 0.77193 0.19689 0.48476 0.0
C333 C 0.79646 0.19883 0.46325 0.0
C334 C 0.75703 0.22002 0.4956 0.0
C335 C 0.76626 0.24591 0.48534 0.0
C336 C 0.79013 0.24792 0.46269 0.0
C337 C 0.80502 0.22448 0.45152 0.0
C338 C 0.75551 0.3139 0.52826 0.0
C339 C 0.72464 0.31328 0.53552 0.0
C340 C 0.76896 0.29259 0.51077 0.0
C341 C 0.75175 0.27032 0.50006 0.0
C342 C 0.72069 0.27038 0.50629 0.0
C343 C 0.70737 0.29146 0.52392 0.0
H344 H 0.81644 0.28713 0.98345 0.0
H345 H 0.73672 0.33655 0.97549 0.0
H346 H 0.78797 0.25296 0.01366 0.0
H347 H 0.7083 0.30244 1.00594 0.0
H348 H 0.66521 0.21571 0.01242 0.0
H349 H 0.69107 0.25624 0.99344 0.0
H350 H 0.76037 0.24335 0.06588 0.0
H351 H 0.73412 0.20241 0.08498 0.0
C352 C 0.79286 0.29076 0.98826 0.0
C353 C 0.77878 0.31444 0.97674 0.0
C354 C 0.77663 0.27131 1.00594 0.0
C355 C 0.74587 0.275 0.01235 0.0
C356 C 0.73191 0.29891 1.00126 0.0
C357 C 0.7482 0.31844 0.98377 0.0
C358 C 0.68551 0.22199 0.02495 0.0
C359 C 0.69767 0.20596 0.05017 0.0
C360 C 0.70034 0.24525 0.01409 0.0
C361 C 0.72796 0.25291 0.02789 0.0
C362 C 0.73927 0.23778 0.05452 0.0
C363 C 0.7241 0.21458 0.06575 0.0
H364 H 0.77507 0.80509 0.58394 0.0
H365 H 0.84442 0.79108 0.51203 0.0
H366 H 0.74853 0.76436 0.56468 0.0
H367 H 0.81826 0.7508 0.49284 0.0
H368 H 0.77215 0.671 0.47436 0.0
H369 H 0.80059 0.7049 0.50506 0.0
H370 H 0.72117 0.75475 0.51247 0.0
H371 H 0.69265 0.72074 0.48206 0.0
C372 C 0.7851 0.7928 0.56482 0.0
C373 C 0.81176 0.80115 0.54947 0.0
C374 C 0.76977 0.76973 0.55349 0.0
C375 C 0.78113 0.75448 0.52697 0.0
C376 C 0.80894 0.76188 0.51341 0.0
C377 C 0.82395 0.785 0.52438 0.0
C378 C 0.76073 0.68916 0.48261 0.0
C379 C 0.7302 0.69329 0.47545 0.0
C380 C 0.77702 0.70857 0.50025 0.0
C381 C 0.76315 0.73252 0.51132 0.0
C382 C 0.73244 0.73636 0.50476 0.0
C383 C 0.71618 0.71701 0.48697 0.0
H384 H 0.34761 0.08401 0.99401 0.0
H385 H 0.31199 0.04981 0.08349 0.0
H386 H 0.35092 0.03856 0.97028 0.0
H387 H 0.31472 0.0046 0.05966 0.0
H388 H 0.34645 0.92425 0.01817 0.0
H389 H 0.34942 0.96975 0.0417 0.0
H390 H 0.31693 1.00361 0.95062 0.0
H391 H 0.31456 0.95828 0.92698 0.0
C392 C 0.34055 0.06679 0.00862 0.0
C393 C 0.32946 0.07049 0.04057 0.0
C394 C 0.3423 0.04077 0.99498 0.0
C395 C 0.33304 0.01791 0.01304 0.0
C396 C 0.32243 0.02167 0.04521 0.0
C397 C 0.32067 0.04764 0.0588 0.0
C398 C 0.34016 0.94144 1.00313 0.0
C399 C 0.33015 0.93767 0.97078 0.0
C400 C 0.34171 0.9675 0.01665 0.0
C401 C 0.33329 0.99035 0.9981 0.0
C402 C 0.32393 0.98654 0.96548 0.0
C403 C 0.32237 0.96051 0.95199 0.0
H404 H 0.1627 0.9254 0.49414 0.0
H405 H 0.19631 0.95956 0.58453 0.0
H406 H 0.15932 0.97091 0.4706 0.0
H407 H 0.19359 0.00482 0.56089 0.0
H408 H 0.16334 0.08532 0.51888 0.0
H409 H 0.15968 0.0398 0.54226 0.0
H410 H 0.19327 0.00588 0.45164 0.0
H411 H 0.19626 0.05121 0.42814 0.0
C412 C 0.16927 0.94262 0.509 0.0
C413 C 0.17987 0.93889 0.54113 0.0
C414 C 0.16749 0.96868 0.49547 0.0
C415 C 0.17627 0.99156 0.51381 0.0
C416 C 0.18626 0.98776 0.5462 0.0
C417 C 0.18802 0.96175 0.55969 0.0
C418 C 0.16971 0.0681 0.50391 0.0
C419 C 0.18021 0.07186 0.47174 0.0
C420 C 0.16777 0.04203 0.51734 0.0
C421 C 0.1763 0.01915 0.49889 0.0
C422 C 0.18615 0.02296 0.46644 0.0
C423 C 0.18806 0.04899 0.45302 0.0
H424 H 0.65533 0.96737 0.91831 0.0
H425 H 0.6883 0.92382 1.00287 0.0
H426 H 0.6519 0.00874 0.95137 0.0
H427 H 0.68559 0.96495 0.03549 0.0
H428 H 0.68757 0.08231 0.0092 0.0
H429 H 0.68491 0.04118 0.97655 0.0
H430 H 0.65247 0.99705 0.06103 0.0
H431 H 0.65586 0.0384 0.0941 0.0
C432 C 0.66184 0.96663 0.9439 0.0
C433 C 0.67218 0.94234 0.95789 0.0
C434 C 0.65999 0.99033 0.96285 0.0
C435 C 0.66849 0.99025 0.99619 0.0
C436 C 0.67839 0.96577 0.01013 0.0
C437 C 0.68019 0.94218 0.99127 0.0
C438 C 0.67975 0.06387 0.02087 0.0
C439 C 0.67208 0.06361 0.05436 0.0
C440 C 0.67798 0.04028 1.00199 0.0
C441 C 0.66845 0.01571 0.01603 0.0
C442 C 0.66028 0.01553 0.04947 0.0
C443 C 0.6621 0.03922 0.06844 0.0
H444 H 0.8588 0.03904 0.4173 0.0
H445 H 0.82662 0.08253 0.50231 0.0
H446 H 0.86213 0.99754 0.45029 0.0
H447 H 0.8293 0.04144 0.53475 0.0
H448 H 0.85729 0.96786 0.59328 0.0
H449 H 0.86208 0.00899 0.56002 0.0
H450 H 0.8284 0.96548 0.47568 0.0
H451 H 0.8243 0.92455 0.50854 0.0
C452 C 0.85255 0.03977 0.44297 0.0
C453 C 0.84237 0.06406 0.45709 0.0
C454 C 0.85433 0.016 0.46187 0.0
C455 C 0.84599 0.01609 0.49528 0.0
C456 C 0.83639 0.0406 0.50936 0.0
C457 C 0.83462 0.0642 0.49056 0.0
C458 C 0.85108 0.96712 0.56761 0.0
C459 C 0.84027 0.94298 0.55365 0.0
C460 C 0.85373 0.99068 0.54852 0.0
C461 C 0.84559 0.99061 0.51508 0.0
C462 C 0.83533 0.96627 0.50112 0.0
C463 C 0.83272 0.9428 0.52013 0.0
H464 H 0.84744 0.42315 0.01793 0.0
H465 H 0.81386 0.45723 0.92751 0.0
H466 H 0.85136 0.46867 0.04122 0.0
H467 H 0.8171 0.50258 0.95094 0.0
H468 H 0.84772 0.58314 0.99342 0.0
H469 H 0.85112 0.53767 0.9697 0.0
H470 H 0.81744 0.50349 0.06014 0.0
H471 H 0.81469 0.54866 0.08392 0.0
C472 C 0.84098 0.44036 1.00301 0.0
C473 C 0.8302 0.43659 0.97096 0.0
C474 C 0.84308 0.46644 0.01639 0.0
C475 C 0.83442 0.48932 0.99802 0.0
C476 C 0.82432 0.4855 0.96566 0.0
C477 C 0.82225 0.45946 0.9523 0.0
C478 C 0.8413 0.56586 0.00826 0.0
C479 C 0.83084 0.56949 0.04048 0.0
C480 C 0.84308 0.53982 0.99464 0.0
C481 C 0.83448 0.51689 0.01298 0.0
C482 C 0.82465 0.52059 0.04544 0.0
C483 C 0.82287 0.54656 0.05902 0.0
H484 H 0.69915 0.4588 0.58257 0.0
H485 H 0.66316 0.42459 0.49329 0.0
H486 H 0.69646 0.50398 0.55871 0.0
H487 H 0.6599 0.47004 0.46952 0.0
H488 H 0.66445 0.58431 0.51756 0.0
H489 H 0.66166 0.53879 0.54102 0.0
H490 H 0.69376 0.50505 0.44967 0.0
H491 H 0.69594 0.55043 0.42609 0.0
C492 C 0.6904 0.46096 0.55791 0.0
C493 C 0.68148 0.43811 0.53975 0.0
C494 C 0.68866 0.48692 0.54431 0.0
C495 C 0.67795 0.49068 0.51219 0.0
C496 C 0.66859 0.46782 0.49419 0.0
C497 C 0.67032 0.4418 0.50784 0.0
C498 C 0.6707 0.56714 0.50245 0.0
C499 C 0.68053 0.57096 0.47004 0.0
C500 C 0.66926 0.54107 0.51593 0.0
C501 C 0.67761 0.51825 0.49728 0.0
C502 C 0.68682 0.5221 0.46461 0.0
C503 C 0.68826 0.54815 0.45115 0.0
H504 H 0.1862 0.58384 0.00902 0.0
H505 H 0.15374 0.54036 0.0939 0.0
H506 H 0.18271 0.5428 0.9763 0.0
H507 H 0.14955 0.49909 0.06077 0.0
H508 H 0.18528 0.42567 1.00289 0.0
H509 H 0.18255 0.46679 0.03538 0.0
H510 H 0.14922 0.51056 0.95109 0.0
H511 H 0.15262 0.4691 0.91809 0.0
C512 C 0.17803 0.56553 0.02067 0.0
C513 C 0.17042 0.56534 0.05418 0.0
C514 C 0.17578 0.54199 1.00175 0.0
C515 C 0.16582 0.51756 0.01578 0.0
C516 C 0.15767 0.51747 0.04922 0.0
C517 C 0.15996 0.54111 0.06823 0.0
C518 C 0.17719 0.444 0.99121 0.0
C519 C 0.1693 0.44412 0.95779 0.0
C520 C 0.17539 0.4676 0.01002 0.0
C521 C 0.16562 0.49207 0.99599 0.0
C522 C 0.15718 0.49214 0.96263 0.0
C523 C 0.159 0.46839 0.94372 0.0
H524 H 0.32088 0.58375 0.50291 0.0
H525 H 0.35393 0.54034 0.41825 0.0
H526 H 0.32335 0.54253 0.53535 0.0
H527 H 0.35712 0.49886 0.45115 0.0
H528 H 0.32183 0.42513 0.50925 0.0
H529 H 0.3242 0.46626 0.47647 0.0
H530 H 0.35667 0.51062 0.56074 0.0
H531 H 0.35356 0.46934 0.59388 0.0
C532 C 0.32895 0.5654 0.49125 0.0
C533 C 0.3371 0.56532 0.4579 0.0
C534 C 0.3306 0.54175 0.51001 0.0
C535 C 0.3405 0.5173 0.496 0.0
C536 C 0.34905 0.51726 0.46268 0.0
C537 C 0.34735 0.54103 0.44382 0.0
C538 C 0.32957 0.44363 0.52083 0.0
C539 C 0.33733 0.44399 0.55428 0.0
C540 C 0.33117 0.46722 0.50189 0.0
C541 C 0.34063 0.49184 0.51585 0.0
C542 C 0.34889 0.4921 0.54924 0.0
C543 C 0.34723 0.46844 0.56825 0.0
H544 H 0.56374 0.1322 0.02309 0.0
H545 H 0.58248 0.12603 0.12684 0.0
H546 H 0.51006 0.13103 0.03457 0.0
H547 H 0.52854 0.12477 0.13823 0.0
H548 H 0.43148 0.08691 0.13479 0.0
H549 H 0.48561 0.09199 0.12724 0.0
H550 H 0.47036 0.15951 0.06194 0.0
H551 H 0.41629 0.15458 0.06944 0.0
C552 C 0.55644 0.1307 0.04837 0.0
C553 C 0.5775 0.12917 0.07403 0.0
C554 C 0.52563 0.1302 0.05495 0.0
C555 C 0.51505 0.12783 0.08731 0.0
C556 C 0.53603 0.12644 0.11303 0.0
C557 C 0.56691 0.12732 0.10649 0.0
C558 C 0.43964 0.10301 0.11904 0.0
C559 C 0.41944 0.12027 0.10264 0.0
C560 C 0.47068 0.10599 0.11486 0.0
C561 C 0.48224 0.12606 0.09387 0.0
C562 C 0.46211 0.14367 0.07802 0.0
C563 C 0.43111 0.14093 0.0825 0.0
H564 H 0.94675 0.8744 0.52177 0.0
H565 H 0.92806 0.87792 0.62574 0.0
H566 H 1.00044 0.8752 0.53322 0.0
H567 H 0.98197 0.87875 0.6371 0.0
H568 H 0.07807 0.91768 0.63547 0.0
H569 H 0.02414 0.91194 0.62763 0.0
H570 H 0.04084 0.84685 0.55918 0.0
H571 H 0.09485 0.85251 0.56693 0.0
C572 C 0.95406 0.8752 0.54709 0.0
C573 C 0.93301 0.87617 0.57282 0.0
C574 C 0.98487 0.87547 0.55364 0.0
C575 C 0.99545 0.87703 0.58606 0.0
C576 C 0.97448 0.87772 0.61185 0.0
C577 C 0.94361 0.87711 0.60532 0.0
C578 C 0.0703 0.90196 0.61896 0.0
C579 C 0.09088 0.88563 0.60174 0.0
C580 C 0.03935 0.89859 0.61462 0.0
C581 C 0.02823 0.87902 0.59269 0.0
C582 C 0.04874 0.86228 0.57602 0.0
C583 C 0.0797 0.86543 0.58064 0.0
H584 H 0.43285 0.91617 0.87763 0.0
H585 H 0.41622 0.85147 0.94685 0.0
H586 H 0.48677 0.9105 0.88529 0.0
H587 H 0.4703 0.84586 0.95443 0.0
H588 H 0.56482 0.87352 0.99078 0.0
H589 H 0.51105 0.87413 0.97979 0.0
H590 H 0.52877 0.87739 0.87575 0.0
H591 H 0.58275 0.87678 0.88664 0.0
C592 C 0.44066 0.90057 0.89428 0.0
C593 C 0.42012 0.88435 0.91172 0.0
C594 C 0.47161 0.89723 0.89851 0.0
C595 C 0.48281 0.87779 0.92054 0.0
C596 C 0.46234 0.86118 0.93749 0.0
C597 C 0.43135 0.8643 0.93299 0.0
C598 C 0.55734 0.87422 0.96552 0.0
C599 C 0.5782 0.8752 0.9396 0.0
C600 C 0.52647 0.87438 0.95924 0.0
C601 C 0.51564 0.87581 0.92691 0.0
C602 C 0.53644 0.87647 0.90094 0.0
C603 C 0.56736 0.87598 0.9072 0.0
H604 H 0.09525 0.15909 0.44787 0.0
H605 H 0.07791 0.09433 0.37894 0.0
H606 H 0.04122 0.16522 0.45546 0.0
H607 H 0.02408 0.1005 0.38662 0.0
H608 H 0.92854 0.13392 0.38761 0.0
H609 H 0.9825 0.13364 0.37685 0.0
H610 H 0.99995 0.13773 0.48089 0.0
H611 H 0.94612 0.13806 0.49176 0.0
C612 C 0.07998 0.14636 0.43407 0.0
C613 C 0.091 0.12615 0.41287 0.0
C614 C 0.04902 0.14977 0.43859 0.0
C615 C 0.02836 0.13331 0.4217 0.0
C616 C 0.03937 0.11369 0.39977 0.0
C617 C 0.07028 0.11005 0.39553 0.0
C618 C 0.94385 0.13505 0.40821 0.0
C619 C 0.9329 0.1359 0.44058 0.0
C620 C 0.97478 0.13474 0.40202 0.0
C621 C 0.99552 0.13559 0.42802 0.0
C622 C 0.98459 0.1373 0.46031 0.0
C623 C 0.95369 0.13732 0.46653 0.0
H624 H 0.06339 0.63409 0.02229 0.0
H625 H 0.08207 0.63047 0.12624 0.0
H626 H 0.0097 0.63339 0.03379 0.0
H627 H 0.02817 0.62975 0.13765 0.0
H628 H 0.93202 0.59081 0.13592 0.0
H629 H 0.98595 0.59662 0.12819 0.0
H630 H 0.96932 0.66175 0.0598 0.0
H631 H 0.91529 0.65602 0.06744 0.0
C632 C 0.05608 0.63329 0.04762 0.0
C633 C 0.07713 0.63226 0.07333 0.0
C634 C 0.02527 0.63308 0.0542 0.0
C635 C 0.01468 0.63153 0.08662 0.0
C636 C 0.03565 0.63078 0.11239 0.0
C637 C 0.06653 0.63133 0.10583 0.0
C638 C 0.93981 0.60657 0.11946 0.0
C639 C 0.91924 0.62287 0.1022 0.0
C640 C 0.97075 0.60998 0.11518 0.0
C641 C 0.98189 0.62956 0.09327 0.0
C642 C 0.9614 0.64631 0.07661 0.0
C643 C 0.93044 0.64312 0.08117 0.0
H644 H 0.59437 0.35445 0.56937 0.0
H645 H 0.5795 0.42255 0.63417 0.0
H646 H 0.54028 0.34968 0.56198 0.0
H647 H 0.52533 0.41762 0.62673 0.0
H648 H 0.42836 0.3834 0.62686 0.0
H649 H 0.48232 0.38494 0.6381 0.0
H650 H 0.50067 0.37814 0.53444 0.0
H651 H 0.44698 0.3767 0.52311 0.0
C652 C 0.57961 0.36824 0.58234 0.0
C653 C 0.59138 0.38897 0.60229 0.0
C654 C 0.5486 0.36558 0.57792 0.0
C655 C 0.52856 0.38335 0.59364 0.0
C656 C 0.5402 0.40351 0.61445 0.0
C657 C 0.57126 0.40641 0.61857 0.0
C658 C 0.44391 0.38208 0.60648 0.0
C659 C 0.43328 0.37996 0.57407 0.0
C660 C 0.4748 0.38311 0.61293 0.0
C661 C 0.49573 0.38161 0.58716 0.0
C662 C 0.48512 0.37905 0.55485 0.0
C663 C 0.4543 0.3784 0.54836 0.0
H664 H 0.064 0.37102 0.99186 0.0
H665 H 0.08198 0.37584 0.88782 0.0
H666 H 0.01021 0.37144 0.98079 0.0
H667 H 0.02806 0.37623 0.87686 0.0
H668 H 0.93244 0.41507 0.87888 0.0
H669 H 0.98627 0.40917 0.8868 0.0
H670 H 0.96924 0.34388 0.95488 0.0
H671 H 0.91522 0.34973 0.94706 0.0
C672 C 0.05653 0.37196 0.96661 0.0
C673 C 0.07741 0.3735 0.94075 0.0
C674 C 0.02565 0.37203 0.96027 0.0
C675 C 0.01486 0.37393 0.92796 0.0
C676 C 0.03569 0.37498 0.90204 0.0
C677 C 0.06659 0.37461 0.90834 0.0
C678 C 0.9401 0.39928 0.89536 0.0
C679 C 0.91941 0.38294 0.91242 0.0
C680 C 0.97101 0.39581 0.89973 0.0
C681 C 0.98204 0.3761 0.92153 0.0
C682 C 0.96142 0.35939 0.93813 0.0
C683 C 0.93047 0.36266 0.93348 0.0
H684 H 0.5768 0.59216 0.37824 0.0
H685 H 0.59343 0.65663 0.44777 0.0
H686 H 0.52291 0.59773 0.38604 0.0
H687 H 0.53932 0.66214 0.45551 0.0
H688 H 0.44464 0.63414 0.49154 0.0
H689 H 0.49846 0.63372 0.48067 0.0
H690 H 0.48102 0.6309 0.37657 0.0
H691 H 0.42702 0.63131 0.38733 0.0
C692 C 0.56899 0.60768 0.39501 0.0
C693 C 0.58953 0.62388 0.41247 0.0
C694 C 0.53806 0.61096 0.39931 0.0
C695 C 0.52685 0.63032 0.42145 0.0
C696 C 0.5473 0.64689 0.43848 0.0
C697 C 0.57829 0.64383 0.43388 0.0
C698 C 0.4522 0.63357 0.46629 0.0
C699 C 0.43142 0.63265 0.44031 0.0
C700 C 0.48309 0.63353 0.46008 0.0
C701 C 0.494 0.63227 0.42777 0.0
C702 C 0.47329 0.63169 0.40175 0.0
C703 C 0.44235 0.63205 0.40793 0.0
H704 H 0.32614 0.17061 0.19764 0.0
H705 H 0.2447 0.13159 0.16569 0.0
H706 H 0.30229 0.18173 0.25033 0.0
H707 H 0.22082 0.14243 0.21781 0.0
H708 H 0.17874 0.16537 0.31065 0.0
H709 H 0.20179 0.17497 0.25731 0.0
H710 H 0.28836 0.15222 0.2964 0.0
H711 H 0.26518 0.14319 0.34962 0.0
C712 C 0.30278 0.16537 0.20148 0.0
C713 C 0.28705 0.15057 0.17762 0.0
C714 C 0.2892 0.17144 0.23171 0.0
C715 C 0.25962 0.1629 0.23846 0.0
C716 C 0.24341 0.14973 0.21346 0.0
C717 C 0.25706 0.14346 0.18354 0.0
C718 C 0.20288 0.16362 0.30807 0.0
C719 C 0.22032 0.15395 0.33421 0.0
C720 C 0.21607 0.16879 0.27748 0.0
C721 C 0.24692 0.16408 0.27237 0.0
C722 C 0.26465 0.1564 0.29942 0.0
C723 C 0.25142 0.15123 0.32997 0.0
H724 H 0.24653 0.86379 0.84916 0.0
H725 H 0.33359 0.8455 0.80884 0.0
H726 H 0.22335 0.85465 0.79598 0.0
H727 H 0.31057 0.8357 0.75559 0.0
H728 H 0.1858 0.83694 0.69689 0.0
H729 H 0.21031 0.82573 0.74919 0.0
H730 H 0.29008 0.86808 0.71713 0.0
H731 H 0.26559 0.87895 0.66542 0.0
C732 C 0.26048 0.85654 0.82921 0.0
C733 C 0.29172 0.85501 0.83303 0.0
C734 C 0.24725 0.85131 0.79868 0.0
C735 C 0.26511 0.84471 0.77129 0.0
C736 C 0.29619 0.84106 0.77601 0.0
C737 C 0.30938 0.84635 0.80655 0.0
C738 C 0.20896 0.84285 0.70074 0.0
C739 C 0.22403 0.8585 0.67715 0.0
C740 C 0.2229 0.83672 0.73075 0.0
C741 C 0.25218 0.84606 0.73752 0.0
C742 C 0.26776 0.86014 0.71275 0.0
C743 C 0.25375 0.86644 0.68307 0.0
H744 H 0.75993 0.88355 0.85269 0.0
H745 H 0.67913 0.85458 0.80587 0.0
H746 H 0.78576 0.88304 0.79981 0.0
H747 H 0.70503 0.85356 0.75318 0.0
H748 H 0.75099 0.88442 0.65892 0.0
H749 H 0.72505 0.88346 0.71176 0.0
H750 H 0.80562 0.85342 0.75814 0.0
H751 H 0.83161 0.85487 0.70555 0.0
C752 C 0.74774 0.87683 0.83118 0.0
C753 C 0.71743 0.86912 0.83361 0.0
C754 C 0.7626 0.87642 0.8008 0.0
C755 C 0.74754 0.86832 0.77201 0.0
C756 C 0.71729 0.86032 0.77461 0.0
C757 C 0.70247 0.86071 0.80496 0.0
C758 C 0.76311 0.87749 0.68037 0.0
C759 C 0.79341 0.86975 0.67791 0.0
C760 C 0.7482 0.87682 0.71071 0.0
C761 C 0.76319 0.86843 0.73943 0.0
C762 C 0.79341 0.8604 0.73678 0.0
C763 C 0.80829 0.86104 0.70648 0.0
H764 H 0.7522 0.12086 0.35231 0.0
H765 H 0.83189 0.15287 0.30604 0.0
H766 H 0.72621 0.12172 0.29955 0.0
H767 H 0.80582 0.15417 0.25346 0.0
H768 H 0.76026 0.12369 0.15864 0.0
H769 H 0.78646 0.12436 0.21132 0.0
H770 H 0.70539 0.15201 0.25893 0.0
H771 H 0.67918 0.15088 0.20647 0.0
C772 C 0.76412 0.12828 0.33094 0.0
C773 C 0.79416 0.13678 0.33349 0.0
C774 C 0.74916 0.1289 0.30065 0.0
C775 C 0.76386 0.13798 0.27205 0.0
C776 C 0.79386 0.14669 0.27475 0.0
C777 C 0.80877 0.14612 0.30503 0.0
C778 C 0.74809 0.13005 0.18032 0.0
C779 C 0.71759 0.1372 0.17825 0.0
C780 C 0.76314 0.13054 0.21058 0.0
C781 C 0.74808 0.13815 0.23958 0.0
C782 C 0.71766 0.14563 0.23732 0.0
C783 C 0.70265 0.14518 0.20711 0.0
H784 H 0.76001 0.65303 0.34844 0.0
H785 H 0.67193 0.65684 0.30513 0.0
H786 H 0.78272 0.66138 0.29468 0.0
H787 H 0.6943 0.66605 0.25152 0.0
H788 H 0.74558 0.62148 0.16748 0.0
H789 H 0.7199 0.63297 0.21814 0.0
H790 H 0.79203 0.68768 0.24377 0.0
H791 H 0.81785 0.67588 0.19226 0.0
C792 C 0.74553 0.65704 0.32764 0.0
C793 C 0.71428 0.65452 0.33081 0.0
C794 C 0.75849 0.66178 0.29679 0.0
C795 C 0.74036 0.66396 0.2686 0.0
C796 C 0.70895 0.66402 0.27258 0.0
C797 C 0.69607 0.65905 0.30331 0.0
C798 C 0.75546 0.63664 0.18344 0.0
C799 C 0.78351 0.64795 0.17594 0.0
C800 C 0.7407 0.64335 0.21251 0.0
C801 C 0.75383 0.6613 0.23519 0.0
C802 C 0.78134 0.67372 0.2269 0.0
C803 C 0.79598 0.66722 0.19734 0.0
H804 H 0.68577 0.33694 0.696 0.0
H805 H 0.76591 0.37897 0.66565 0.0
H806 H 0.70976 0.32559 0.74857 0.0
H807 H 0.78991 0.36787 0.71756 0.0
H808 H 0.74565 0.36357 0.84903 0.0
H809 H 0.72268 0.3547 0.79566 0.0
H810 H 0.8099 0.33484 0.75592 0.0
H811 H 0.83271 0.3443 0.80936 0.0
C812 C 0.70889 0.34282 0.70015 0.0
C813 C 0.7242 0.35854 0.6768 0.0
C814 C 0.72254 0.33661 0.7303 0.0
C815 C 0.75178 0.34586 0.73742 0.0
C816 C 0.76761 0.36 0.7129 0.0
C817 C 0.75388 0.36644 0.6831 0.0
C818 C 0.75962 0.35617 0.82919 0.0
C819 C 0.79082 0.35426 0.83327 0.0
C820 C 0.74652 0.3511 0.79855 0.0
C821 C 0.76447 0.34432 0.7713 0.0
C822 C 0.79546 0.34033 0.77624 0.0
C823 C 0.80852 0.34542 0.8069 0.0
H824 H 0.25104 0.36002 0.65803 0.0
H825 H 0.33277 0.38185 0.70803 0.0
H826 H 0.22482 0.3577 0.71042 0.0
H827 H 0.30644 0.38205 0.7601 0.0
H828 H 0.25958 0.36327 0.85518 0.0
H829 H 0.28582 0.36064 0.80287 0.0
H830 H 0.20277 0.3792 0.75238 0.0
H831 H 0.17654 0.37928 0.80457 0.0
C832 C 0.26329 0.36463 0.6803 0.0
C833 C 0.29396 0.37098 0.67893 0.0
C834 C 0.2482 0.3636 0.71054 0.0
C835 C 0.26315 0.36979 0.74022 0.0
C836 C 0.29394 0.3764 0.73842 0.0
C837 C 0.30916 0.37656 0.70834 0.0
C838 C 0.24703 0.36656 0.83276 0.0
C839 C 0.21602 0.37138 0.83398 0.0
C840 C 0.26211 0.36535 0.80255 0.0
C841 C 0.24678 0.36986 0.77266 0.0
C842 C 0.21562 0.37491 0.77427 0.0
C843 C 0.20045 0.37523 0.8044 0.0
H844 H 0.33087 0.65357 0.30632 0.0
H845 H 0.24994 0.6246 0.35295 0.0
H846 H 0.30506 0.65475 0.2536 0.0
H847 H 0.2242 0.62528 0.30005 0.0
H848 H 0.17852 0.65365 0.20591 0.0
H849 H 0.20447 0.65506 0.25849 0.0
H850 H 0.28504 0.62493 0.21209 0.0
H851 H 0.25913 0.62403 0.15926 0.0
C852 C 0.30752 0.64748 0.30536 0.0
C853 C 0.29249 0.63902 0.33396 0.0
C854 C 0.29275 0.64796 0.275 0.0
C855 C 0.2625 0.64002 0.27235 0.0
C856 C 0.24737 0.63187 0.3011 0.0
C857 C 0.26217 0.63136 0.33148 0.0
C858 C 0.20184 0.64746 0.20683 0.0
C859 C 0.21672 0.63873 0.17826 0.0
C860 C 0.21669 0.64807 0.23713 0.0
C861 C 0.24689 0.63999 0.23977 0.0
C862 C 0.2619 0.6316 0.21105 0.0
C863 C 0.24701 0.63097 0.18071 0.0
loop_
_geom_bond_atom_site_label_1
_geom_bond_atom_site_label_2
_geom_bond_distance
_geom_bond_site_symmetry_2
_ccdc_geom_bond_type
Co0 O1 2.216 . S
Co0 O2 2.091 . S
Co0 O4 2.004 . S
Co0 O10 2.021 . S
Co0 O12 2.137 . S
Co0 O13 2.244 . S
O1 Co0 2.216 . S
O1 C8 1.247 . S
O2 Co0 2.091 . S
O2 C8 1.261 . S
C3 O12 1.247 . S
C3 O13 1.272 . S
O4 Co0 2.004 . S
O4 C9 1.259 . S
Co5 O6 2.061 . S
Co5 O11 2.052 . S
Co5 O13 2.135 . S
O6 Co5 2.061 . S
O6 C9 1.235 . S
C7 O10 1.238 . S
C7 O11 1.241 . S
C8 O1 1.247 . S
C8 O2 1.261 . S
C9 O4 1.259 . S
C9 O6 1.235 . S
O10 Co0 2.021 . S
O10 C7 1.238 . S
O11 Co5 2.052 . S
O11 C7 1.241 . S
O12 Co0 2.137 . S
O12 C3 1.247 . S
O13 Co0 2.244 . S
O13 C3 1.272 . S
O13 Co5 2.135 . S
Co14 O15 2.216 . S
Co14 O16 2.091 . S
Co14 O18 2.004 . S
Co14 O24 2.021 . S
Co14 O26 2.137 . S
Co14 O27 2.244 . S
O15 Co14 2.216 . S
O15 C22 1.247 . S
O16 Co14 2.091 . S
O16 C22 1.261 . S
C17 O26 1.247 . S
C17 O27 1.272 . S
O18 Co14 2.004 . S
O18 C23 1.259 . S
Co19 O20 2.061 . S
Co19 O25 2.052 . S
Co19 O27 2.135 . S
O20 Co19 2.061 . S
O20 C23 1.235 . S
C21 O24 1.238 . S
C21 O25 1.241 . S
C22 O15 1.247 . S
C22 O16 1.261 . S
C23 O18 1.259 . S
C23 O20 1.235 . S
O24 Co14 2.021 . S
O24 C21 1.238 . S
O25 Co19 2.052 . S
O25 C21 1.241 . S
O26 Co14 2.137 . S
O26 C17 1.247 . S
O27 Co14 2.244 . S
O27 C17 1.272 . S
O27 Co19 2.135 . S
Co28 O29 2.216 . S
Co28 O30 2.091 . S
Co28 O32 2.004 . S
Co28 O38 2.021 . S
Co28 O40 2.137 . S
Co28 O41 2.244 . S
O29 Co28 2.216 . S
O29 C36 1.247 . S
O30 Co28 2.091 . S
O30 C36 1.261 . S
C31 O40 1.247 . S
C31 O41 1.272 . S
O32 Co28 2.004 . S
O32 C37 1.259 . S
Co33 O34 2.061 . S
Co33 O39 2.052 . S
Co33 O41 2.135 . S
O34 Co33 2.061 . S
O34 C37 1.235 . S
C35 O38 1.238 . S
C35 O39 1.241 . S
C36 O29 1.247 . S
C36 O30 1.261 . S
C37 O32 1.259 . S
C37 O34 1.235 . S
O38 Co28 2.021 . S
O38 C35 1.238 . S
O39 Co33 2.052 . S
O39 C35 1.241 . S
O40 Co28 2.137 . S
O40 C31 1.247 . S
O41 Co28 2.244 . S
O41 C31 1.272 . S
O41 Co33 2.135 . S
Co42 O43 2.216 . S
Co42 O44 2.091 . S
Co42 O46 2.004 . S
Co42 O52 2.021 . S
Co42 O54 2.137 . S
Co42 O55 2.244 . S
O43 Co42 2.216 . S
O43 C50 1.247 . S
O44 Co42 2.091 . S
O44 C50 1.261 . S
C45 O54 1.247 . S
C45 O55 1.272 . S
O46 Co42 2.004 . S
O46 C51 1.259 . S
Co47 O48 2.061 . S
Co47 O53 2.052 . S
Co47 O55 2.135 . S
O48 Co47 2.061 . S
O48 C51 1.235 . S
C49 O52 1.238 . S
C49 O53 1.241 . S
C50 O43 1.247 . S
C50 O44 1.261 . S
C51 O46 1.259 . S
C51 O48 1.235 . S
O52 Co42 2.021 . S
O52 C49 1.238 . S
O53 Co47 2.052 . S
O53 C49 1.241 . S
O54 Co42 2.137 . S
O54 C45 1.247 . S
O55 Co42 2.244 . S
O55 C45 1.272 . S
O55 Co47 2.135 . S
Co56 O57 2.216 . S
Co56 O58 2.091 . S
Co56 O60 2.004 . S
Co56 O66 2.021 . S
Co56 O68 2.137 . S
Co56 O69 2.244 . S
O57 Co56 2.216 . S
O57 C64 1.247 . S
O58 Co56 2.091 . S
O58 C64 1.261 . S
C59 O68 1.247 . S
C59 O69 1.272 . S
O60 Co56 2.004 . S
O60 C65 1.259 . S
Co61 O62 2.061 . S
Co61 O67 2.052 . S
Co61 O69 2.135 . S
O62 Co61 2.061 . S
O62 C65 1.235 . S
C63 O66 1.238 . S
C63 O67 1.241 . S
C64 O57 1.247 . S
C64 O58 1.261 . S
C65 O60 1.259 . S
C65 O62 1.235 . S
O66 Co56 2.021 . S
O66 C63 1.238 . S
O67 Co61 2.052 . S
O67 C63 1.241 . S
O68 Co56 2.137 . S
O68 C59 1.247 . S
O69 Co56 2.244 . S
O69 C59 1.272 . S
O69 Co61 2.135 . S
Co70 O71 2.216 . S
Co70 O72 2.091 . S
Co70 O74 2.004 . S
Co70 O80 2.021 . S
Co70 O82 2.137 . S
Co70 O83 2.244 . S
O71 Co70 2.216 . S
O71 C78 1.247 . S
O72 Co70 2.091 . S
O72 C78 1.261 . S
C73 O82 1.247 . S
C73 O83 1.272 . S
O74 Co70 2.004 . S
O74 C79 1.259 . S
Co75 O76 2.061 . S
Co75 O81 2.052 . S
Co75 O83 2.135 . S
O76 Co75 2.061 . S
O76 C79 1.235 . S
C77 O80 1.238 . S
C77 O81 1.241 . S
C78 O71 1.247 . S
C78 O72 1.261 . S
C79 O74 1.259 . S
C79 O76 1.235 . S
O80 Co70 2.021 . S
O80 C77 1.238 . S
O81 Co75 2.052 . S
O81 C77 1.241 . S
O82 Co70 2.137 . S
O82 C73 1.247 . S
O83 Co70 2.244 . S
O83 C73 1.272 . S
O83 Co75 2.135 . S
Co84 O85 2.216 . S
Co84 O86 2.091 . S
Co84 O88 2.004 . S
Co84 O94 2.021 . S
Co84 O96 2.137 . S
Co84 O97 2.244 . S
O85 Co84 2.216 . S
O85 C92 1.247 . S
O86 Co84 2.091 . S
O86 C92 1.261 . S
C87 O96 1.247 . S
C87 O97 1.272 . S
O88 Co84 2.004 . S
O88 C93 1.259 . S
Co89 O90 2.061 . S
Co89 O95 2.052 . S
Co89 O97 2.135 . S
O90 Co89 2.061 . S
O90 C93 1.235 . S
C91 O94 1.238 . S
C91 O95 1.241 . S
C92 O85 1.247 . S
C92 O86 1.261 . S
C93 O88 1.259 . S
C93 O90 1.235 . S
O94 Co84 2.021 . S
O94 C91 1.238 . S
O95 Co89 2.052 . S
O95 C91 1.241 . S
O96 Co84 2.137 . S
O96 C87 1.247 . S
O97 Co84 2.244 . S
O97 C87 1.272 . S
O97 Co89 2.135 . S
Co98 O99 2.216 . S
Co98 O100 2.091 . S
Co98 O102 2.004 . S
Co98 O108 2.021 . S
Co98 O110 2.137 . S
Co98 O111 2.244 . S
O99 Co98 2.216 . S
O99 C106 1.247 . S
O100 Co98 2.091 . S
O100 C106 1.261 . S
C101 O110 1.247 . S
C101 O111 1.272 . S
O102 Co98 2.004 . S
O102 C107 1.259 . S
Co103 O104 2.061 . S
Co103 O109 2.052 . S
Co103 O111 2.135 . S
O104 Co103 2.061 . S
O104 C107 1.235 . S
C105 O108 1.238 . S
C105 O109 1.241 . S
C106 O99 1.247 . S
C106 O100 1.261 . S
C107 O102 1.259 . S
C107 O104 1.235 . S
O108 Co98 2.021 . S
O108 C105 1.238 . S
O109 Co103 2.052 . S
O109 C105 1.241 . S
O110 Co98 2.137 . S
O110 C101 1.247 . S
O111 Co98 2.244 . S
O111 C101 1.272 . S
O111 Co103 2.135 . S
Co112 O113 2.216 . S
Co112 O114 2.091 . S
Co112 O116 2.004 . S
Co112 O122 2.021 . S
Co112 O124 2.137 . S
Co112 O125 2.244 . S
O113 Co112 2.216 . S
O113 C120 1.247 . S
O114 Co112 2.091 . S
O114 C120 1.261 . S
C115 O124 1.247 . S
C115 O125 1.272 . S
O116 Co112 2.004 . S
O116 C121 1.259 . S
Co117 O118 2.061 . S
Co117 O123 2.052 . S
Co117 O125 2.135 . S
O118 Co117 2.061 . S
O118 C121 1.235 . S
C119 O122 1.238 . S
C119 O123 1.241 . S
C120 O113 1.247 . S
C120 O114 1.261 . S
C121 O116 1.259 . S
C121 O118 1.235 . S
O122 Co112 2.021 . S
O122 C119 1.238 . S
O123 Co117 2.052 . S
O123 C119 1.241 . S
O124 Co112 2.137 . S
O124 C115 1.247 . S
O125 Co112 2.244 . S
O125 C115 1.272 . S
O125 Co117 2.135 . S
Co126 O127 2.216 . S
Co126 O128 2.091 . S
Co126 O130 2.004 . S
Co126 O136 2.021 . S
Co126 O138 2.137 . S
Co126 O139 2.244 . S
O127 Co126 2.216 . S
O127 C134 1.247 . S
O128 Co126 2.091 . S
O128 C134 1.261 . S
C129 O138 1.247 . S
C129 O139 1.272 . S
O130 Co126 2.004 . S
O130 C135 1.259 . S
Co131 O132 2.061 . S
Co131 O137 2.052 . S
Co131 O139 2.135 . S
O132 Co131 2.061 . S
O132 C135 1.235 . S
C133 O136 1.238 . S
C133 O137 1.241 . S
C134 O127 1.247 . S
C134 O128 1.261 . S
C135 O130 1.259 . S
C135 O132 1.235 . S
O136 Co126 2.021 . S
O136 C133 1.238 . S
O137 Co131 2.052 . S
O137 C133 1.241 . S
O138 Co126 2.137 . S
O138 C129 1.247 . S
O139 Co126 2.244 . S
O139 C129 1.272 . S
O139 Co131 2.135 . S
Co140 O141 2.216 . S
Co140 O142 2.091 . S
Co140 O144 2.004 . S
Co140 O150 2.021 . S
Co140 O152 2.137 . S
Co140 O153 2.244 . S
O141 Co140 2.216 . S
O141 C148 1.247 . S
O142 Co140 2.091 . S
O142 C148 1.261 . S
C143 O152 1.247 . S
C143 O153 1.272 . S
O144 Co140 2.004 . S
O144 C149 1.259 . S
Co145 O146 2.061 . S
Co145 O151 2.052 . S
Co145 O153 2.135 . S
O146 Co145 2.061 . S
O146 C149 1.235 . S
C147 O150 1.238 . S
C147 O151 1.241 . S
C148 O141 1.247 . S
C148 O142 1.261 . S
C149 O144 1.259 . S
C149 O146 1.235 . S
O150 Co140 2.021 . S
O150 C147 1.238 . S
O151 Co145 2.052 . S
O151 C147 1.241 . S
O152 Co140 2.137 . S
O152 C143 1.247 . S
O153 Co140 2.244 . S
O153 C143 1.272 . S
O153 Co145 2.135 . S
Co154 O155 2.216 . S
Co154 O156 2.091 . S
Co154 O158 2.004 . S
Co154 O164 2.021 . S
Co154 O166 2.137 . S
Co154 O167 2.244 . S
O155 Co154 2.216 . S
O155 C162 1.247 . S
O156 Co154 2.091 . S
O156 C162 1.261 . S
C157 O166 1.247 . S
C157 O167 1.272 . S
O158 Co154 2.004 . S
O158 C163 1.259 . S
Co159 O160 2.061 . S
Co159 O165 2.052 . S
Co159 O167 2.135 . S
O160 Co159 2.061 . S
O160 C163 1.235 . S
C161 O164 1.238 . S
C161 O165 1.241 . S
C162 O155 1.247 . S
C162 O156 1.261 . S
C163 O158 1.259 . S
C163 O160 1.235 . S
O164 Co154 2.021 . S
O164 C161 1.238 . S
O165 Co159 2.052 . S
O165 C161 1.241 . S
O166 Co154 2.137 . S
O166 C157 1.247 . S
O167 Co154 2.244 . S
O167 C157 1.272 . S
O167 Co159 2.135 . S
Co168 O169 2.216 . S
Co168 O170 2.091 . S
Co168 O172 2.004 . S
Co168 O178 2.021 . S
Co168 O180 2.137 . S
Co168 O181 2.244 . S
O169 Co168 2.216 . S
O169 C176 1.247 . S
O170 Co168 2.091 . S
O170 C176 1.261 . S
C171 O180 1.247 . S
C171 O181 1.272 . S
O172 Co168 2.004 . S
O172 C177 1.259 . S
Co173 O174 2.061 . S
Co173 O179 2.052 . S
Co173 O181 2.135 . S
O174 Co173 2.061 . S
O174 C177 1.235 . S
C175 O178 1.238 . S
C175 O179 1.241 . S
C176 O169 1.247 . S
C176 O170 1.261 . S
C177 O172 1.259 . S
C177 O174 1.235 . S
O178 Co168 2.021 . S
O178 C175 1.238 . S
O179 Co173 2.052 . S
O179 C175 1.241 . S
O180 Co168 2.137 . S
O180 C171 1.247 . S
O181 Co168 2.244 . S
O181 C171 1.272 . S
O181 Co173 2.135 . S
Co182 O183 2.216 . S
Co182 O184 2.091 . S
Co182 O186 2.004 . S
Co182 O192 2.021 . S
Co182 O194 2.137 . S
Co182 O195 2.244 . S
O183 Co182 2.216 . S
O183 C190 1.247 . S
O184 Co182 2.091 . S
O184 C190 1.261 . S
C185 O194 1.247 . S
C185 O195 1.272 . S
O186 Co182 2.004 . S
O186 C191 1.259 . S
Co187 O188 2.061 . S
Co187 O193 2.052 . S
Co187 O195 2.135 . S
O188 Co187 2.061 . S
O188 C191 1.235 . S
C189 O192 1.238 . S
C189 O193 1.241 . S
C190 O183 1.247 . S
C190 O184 1.261 . S
C191 O186 1.259 . S
C191 O188 1.235 . S
O192 Co182 2.021 . S
O192 C189 1.238 . S
O193 Co187 2.052 . S
O193 C189 1.241 . S
O194 Co182 2.137 . S
O194 C185 1.247 . S
O195 Co182 2.244 . S
O195 C185 1.272 . S
O195 Co187 2.135 . S
Co196 O197 2.216 . S
Co196 O198 2.091 . S
Co196 O200 2.004 . S
Co196 O206 2.021 . S
Co196 O208 2.137 . S
Co196 O209 2.244 . S
O197 Co196 2.216 . S
O197 C204 1.247 . S
O198 Co196 2.091 . S
O198 C204 1.261 . S
C199 O208 1.247 . S
C199 O209 1.272 . S
O200 Co196 2.004 . S
O200 C205 1.259 . S
Co201 O202 2.061 . S
Co201 O207 2.052 . S
Co201 O209 2.135 . S
O202 Co201 2.061 . S
O202 C205 1.235 . S
C203 O206 1.238 . S
C203 O207 1.241 . S
C204 O197 1.247 . S
C204 O198 1.261 . S
C205 O200 1.259 . S
C205 O202 1.235 . S
O206 Co196 2.021 . S
O206 C203 1.238 . S
O207 Co201 2.052 . S
O207 C203 1.241 . S
O208 Co196 2.137 . S
O208 C199 1.247 . S
O209 Co196 2.244 . S
O209 C199 1.272 . S
O209 Co201 2.135 . S
Co210 O211 2.216 . S
Co210 O212 2.091 . S
Co210 O214 2.004 . S
Co210 O220 2.021 . S
Co210 O222 2.137 . S
Co210 O223 2.244 . S
O211 Co210 2.216 . S
O211 C218 1.247 . S
O212 Co210 2.091 . S
O212 C218 1.261 . S
C213 O222 1.247 . S
C213 O223 1.272 . S
O214 Co210 2.004 . S
O214 C219 1.259 . S
Co215 O216 2.061 . S
Co215 O221 2.052 . S
Co215 O223 2.135 . S
O216 Co215 2.061 . S
O216 C219 1.235 . S
C217 O220 1.238 . S
C217 O221 1.241 . S
C218 O211 1.247 . S
C218 O212 1.261 . S
C219 O214 1.259 . S
C219 O216 1.235 . S
O220 Co210 2.021 . S
O220 C217 1.238 . S
O221 Co215 2.052 . S
O221 C217 1.241 . S
O222 Co210 2.137 . S
O222 C213 1.247 . S
O223 Co210 2.244 . S
O223 C213 1.272 . S
O223 Co215 2.135 . S
H224 C232 0.953 . S
H225 C237 0.950 . S
H226 C234 0.950 . S
H227 C236 0.950 . S
H228 C238 0.950 . S
H229 C240 0.950 1_554 S
H230 C242 0.950 . S
H231 C243 0.950 . S
C232 H224 0.953 . S
C232 C233 1.378 1_556 S
C232 C234 1.395 . S
C233 C232 1.378 1_554 S
C233 C237 1.393 . S
C234 H226 0.950 . S
C234 C232 1.395 . S
C234 C235 1.400 . S
C235 C234 1.400 . S
C235 C236 1.398 1_556 S
C235 C241 1.491 . S
C236 H227 0.950 . S
C236 C235 1.398 1_554 S
C236 C237 1.391 . S
C237 H225 0.950 . S
C237 C233 1.393 . S
C237 C236 1.391 . S
C238 H228 0.950 . S
C238 C239 1.386 . S
C238 C240 1.391 . S
C239 C238 1.386 . S
C239 C243 1.393 . S
C240 H229 0.950 1_556 S
C240 C238 1.391 . S
C240 C241 1.400 . S
C241 C235 1.491 . S
C241 C240 1.400 . S
C241 C242 1.398 . S
C242 H230 0.950 . S
C242 C241 1.398 . S
C242 C243 1.391 . S
C243 H231 0.950 . S
C243 C239 1.393 . S
C243 C242 1.391 . S
H244 C252 0.950 . S
H245 C257 0.950 . S
H246 C254 0.950 . S
H247 C256 0.950 . S
H248 C258 0.950 . S
H249 C260 0.950 . S
H250 C262 0.950 . S
H251 C263 0.950 . S
C252 H244 0.950 . S
C252 C253 1.386 . S
C252 C254 1.391 . S
C253 C252 1.386 . S
C253 C257 1.393 . S
C254 H246 0.950 . S
C254 C252 1.391 . S
C254 C255 1.400 . S
C255 C254 1.400 . S
C255 C256 1.398 . S
C255 C261 1.491 . S
C256 H247 0.950 . S
C256 C255 1.398 . S
C256 C257 1.391 . S
C257 H245 0.950 . S
C257 C253 1.393 . S
C257 C256 1.391 . S
C258 H248 0.950 . S
C258 C259 1.386 . S
C258 C260 1.391 . S
C259 C258 1.386 . S
C259 C263 1.393 . S
C260 H249 0.950 . S
C260 C258 1.391 . S
C260 C261 1.400 . S
C261 C255 1.491 . S
C261 C260 1.400 . S
C261 C262 1.398 . S
C262 H250 0.950 . S
C262 C261 1.398 . S
C262 C263 1.391 . S
C263 H251 0.950 . S
C263 C259 1.393 . S
C263 C262 1.391 . S
H264 C272 0.950 . S
H265 C277 0.950 . S
H266 C274 0.950 . S
H267 C276 0.950 . S
H268 C278 0.950 . S
H269 C280 0.950 . S
H270 C282 0.950 1_556 S
H271 C283 0.950 . S
C272 H264 0.950 . S
C272 C273 1.386 . S
C272 C274 1.391 . S
C273 C272 1.386 . S
C273 C277 1.393 . S
C274 H266 0.950 . S
C274 C272 1.391 . S
C274 C275 1.400 1_556 S
C275 C274 1.400 1_554 S
C275 C276 1.398 . S
C275 C281 1.491 . S
C276 H267 0.950 . S
C276 C275 1.398 . S
C276 C277 1.391 1_554 S
C277 H265 0.950 . S
C277 C273 1.393 . S
C277 C276 1.391 1_556 S
C278 H268 0.950 . S
C278 C279 1.386 . S
C278 C280 1.391 . S
C279 C278 1.386 . S
C279 C283 1.393 . S
C280 H269 0.950 . S
C280 C278 1.391 . S
C280 C281 1.400 . S
C281 C275 1.491 . S
C281 C280 1.400 . S
C281 C282 1.398 . S
C282 H270 0.950 1_554 S
C282 C281 1.398 . S
C282 C283 1.391 . S
C283 H271 0.950 . S
C283 C279 1.393 . S
C283 C282 1.391 . S
H284 C292 0.950 . S
H285 C297 0.950 . S
H286 C294 0.950 . S
H287 C296 0.950 . S
H288 C298 0.950 . S
H289 C300 0.950 . S
H290 C302 0.950 . S
H291 C303 0.950 . S
C292 H284 0.950 . S
C292 C293 1.386 . S
C292 C294 1.391 . S
C293 C292 1.386 . S
C293 C297 1.393 . S
C294 H286 0.950 . S
C294 C292 1.391 . S
C294 C295 1.400 . S
C295 C294 1.400 . S
C295 C296 1.398 . S
C295 C301 1.491 . S
C296 H287 0.950 . S
C296 C295 1.398 . S
C296 C297 1.391 . S
C297 H285 0.950 . S
C297 C293 1.393 . S
C297 C296 1.391 . S
C298 H288 0.950 . S
C298 C299 1.386 . S
C298 C300 1.391 . S
C299 C298 1.386 . S
C299 C303 1.393 . S
C300 H289 0.950 . S
C300 C298 1.391 . S
C300 C301 1.400 . S
C301 C295 1.491 . S
C301 C300 1.400 . S
C301 C302 1.398 . S
C302 H290 0.950 . S
C302 C301 1.398 . S
C302 C303 1.391 . S
C303 H291 0.950 . S
C303 C299 1.393 . S
C303 C302 1.391 . S
H304 C312 0.950 . S
H305 C317 0.950 . S
H306 C314 0.950 . S
H307 C316 0.950 . S
H308 C318 0.950 . S
H309 C320 0.950 . S
H310 C322 0.950 . S
H311 C323 0.950 . S
C312 H304 0.950 . S
C312 C313 1.386 . S
C312 C314 1.391 1_554 S
C313 C312 1.386 . S
C313 C317 1.393 . S
C314 H306 0.950 . S
C314 C312 1.391 1_556 S
C314 C315 1.402 . S
C315 C314 1.402 . S
C315 C316 1.378 1_556 S
C315 C321 1.509 . S
C316 H307 0.950 . S
C316 C315 1.378 1_554 S
C316 C317 1.391 . S
C317 H305 0.950 . S
C317 C313 1.393 . S
C317 C316 1.391 . S
C318 H308 0.950 . S
C318 C319 1.386 . S
C318 C320 1.391 . S
C319 C318 1.386 . S
C319 C323 1.393 . S
C320 H309 0.950 . S
C320 C318 1.391 . S
C320 C321 1.400 . S
C321 C315 1.509 . S
C321 C320 1.400 . S
C321 C322 1.398 . S
C322 H310 0.950 . S
C322 C321 1.398 . S
C322 C323 1.391 . S
C323 H311 0.950 . S
C323 C319 1.393 . S
C323 C322 1.391 . S
H324 C332 0.950 . S
H325 C337 0.950 . S
H326 C334 0.950 . S
H327 C336 0.950 . S
H328 C338 0.950 . S
H329 C340 0.950 . S
H330 C342 0.950 . S
H331 C343 0.950 . S
C332 H324 0.950 . S
C332 C333 1.386 . S
C332 C334 1.391 . S
C333 C332 1.386 . S
C333 C337 1.393 . S
C334 H326 0.950 . S
C334 C332 1.391 . S
C334 C335 1.400 . S
C335 C334 1.400 . S
C335 C336 1.398 . S
C335 C341 1.491 . S
C336 H327 0.950 . S
C336 C335 1.398 . S
C336 C337 1.391 . S
C337 H325 0.950 . S
C337 C333 1.393 . S
C337 C336 1.391 . S
C338 H328 0.950 . S
C338 C339 1.386 . S
C338 C340 1.391 . S
C339 C338 1.386 . S
C339 C343 1.393 . S
C340 H329 0.950 . S
C340 C338 1.391 . S
C340 C341 1.400 . S
C341 C335 1.491 . S
C341 C340 1.400 . S
C341 C342 1.398 . S
C342 H330 0.950 . S
C342 C341 1.398 . S
C342 C343 1.391 . S
C343 H331 0.950 . S
C343 C339 1.393 . S
C343 C342 1.391 . S
H344 C352 0.950 . S
H345 C357 0.950 . S
H346 C354 0.950 . S
H347 C356 0.950 1_554 S
H348 C358 0.950 . S
H349 C360 0.950 . S
H350 C362 0.950 . S
H351 C363 0.950 . S
C352 H344 0.950 . S
C352 C353 1.386 . S
C352 C354 1.391 . S
C353 C352 1.386 . S
C353 C357 1.393 . S
C354 H346 0.950 . S
C354 C352 1.391 . S
C354 C355 1.400 1_556 S
C355 C354 1.400 1_554 S
C355 C356 1.398 1_554 S
C355 C361 1.491 . S
C356 H347 0.950 1_556 S
C356 C355 1.398 1_556 S
C356 C357 1.391 . S
C357 H345 0.950 . S
C357 C353 1.393 . S
C357 C356 1.391 . S
C358 H348 0.950 . S
C358 C359 1.386 . S
C358 C360 1.391 . S
C359 C358 1.386 . S
C359 C363 1.393 . S
C360 H349 0.950 . S
C360 C358 1.391 . S
C360 C361 1.400 . S
C361 C355 1.491 . S
C361 C360 1.400 . S
C361 C362 1.398 . S
C362 H350 0.950 . S
C362 C361 1.398 . S
C362 C363 1.391 . S
C363 H351 0.950 . S
C363 C359 1.393 . S
C363 C362 1.391 . S
H364 C372 0.950 . S
H365 C377 0.950 . S
H366 C374 0.950 . S
H367 C376 0.950 . S
H368 C378 0.950 . S
H369 C380 0.950 . S
H370 C382 0.950 . S
H371 C383 0.950 . S
C372 H364 0.950 . S
C372 C373 1.386 . S
C372 C374 1.391 . S
C373 C372 1.386 . S
C373 C377 1.393 . S
C374 H366 0.950 . S
C374 C372 1.391 . S
C374 C375 1.400 . S
C375 C374 1.400 . S
C375 C376 1.398 . S
C375 C381 1.491 . S
C376 H367 0.950 . S
C376 C375 1.398 . S
C376 C377 1.391 . S
C377 H365 0.950 . S
C377 C373 1.393 . S
C377 C376 1.391 . S
C378 H368 0.950 . S
C378 C379 1.386 . S
C378 C380 1.391 . S
C379 C378 1.386 . S
C379 C383 1.393 . S
C380 H369 0.950 . S
C380 C378 1.391 . S
C380 C381 1.400 . S
C381 C375 1.491 . S
C381 C380 1.400 . S
C381 C382 1.398 . S
C382 H370 0.950 . S
C382 C381 1.398 . S
C382 C383 1.391 . S
C383 H371 0.950 . S
C383 C379 1.393 . S
C383 C382 1.391 . S
H384 C392 0.950 . S
H385 C397 0.950 . S
H386 C394 0.950 . S
H387 C396 0.950 . S
H388 C398 0.950 . S
H389 C400 0.950 . S
H390 C402 0.950 . S
H391 C403 0.950 . S
C392 H384 0.950 . S
C392 C393 1.386 1_556 S
C392 C394 1.391 . S
C393 C392 1.386 1_554 S
C393 C397 1.393 . S
C394 H386 0.950 . S
C394 C392 1.391 . S
C394 C395 1.400 1_556 S
C395 C394 1.400 1_554 S
C395 C396 1.398 . S
C395 C401 1.491 1_544 S
C396 H387 0.950 . S
C396 C395 1.398 . S
C396 C397 1.391 . S
C397 H385 0.950 . S
C397 C393 1.393 . S
C397 C396 1.391 . S
C398 H388 0.950 . S
C398 C399 1.386 1_554 S
C398 C400 1.391 . S
C399 C398 1.386 1_556 S
C399 C403 1.393 . S
C400 H389 0.950 . S
C400 C398 1.391 . S
C400 C401 1.400 1_554 S
C401 C395 1.491 1_566 S
C401 C400 1.400 1_556 S
C401 C402 1.398 . S
C402 H390 0.950 . S
C402 C401 1.398 . S
C402 C403 1.391 . S
C403 H391 0.950 . S
C403 C399 1.393 . S
C403 C402 1.391 . S
H404 C412 0.950 . S
H405 C417 0.950 . S
H406 C414 0.950 . S
H407 C416 0.950 . S
H408 C418 0.950 . S
H409 C420 0.950 . S
H410 C422 0.950 . S
H411 C423 0.950 . S
C412 H404 0.950 . S
C412 C413 1.386 . S
C412 C414 1.391 . S
C413 C412 1.386 . S
C413 C417 1.393 . S
C414 H406 0.950 . S
C414 C412 1.391 . S
C414 C415 1.400 . S
C415 C414 1.400 . S
C415 C416 1.398 . S
C415 C421 1.491 1_565 S
C416 H407 0.950 . S
C416 C415 1.398 . S
C416 C417 1.391 . S
C417 H405 0.950 . S
C417 C413 1.393 . S
C417 C416 1.391 . S
C418 H408 0.950 . S
C418 C419 1.386 . S
C418 C420 1.391 . S
C419 C418 1.386 . S
C419 C423 1.393 . S
C420 H409 0.950 . S
C420 C418 1.391 . S
C420 C421 1.400 . S
C421 C415 1.491 1_545 S
C421 C420 1.400 . S
C421 C422 1.398 . S
C422 H410 0.950 . S
C422 C421 1.398 . S
C422 C423 1.391 . S
C423 H411 0.950 . S
C423 C419 1.393 . S
C423 C422 1.391 . S
H424 C432 0.950 . S
H425 C437 0.950 . S
H426 C434 0.950 . S
H427 C436 0.950 . S
H428 C438 0.950 . S
H429 C440 0.950 . S
H430 C442 0.950 . S
H431 C443 0.950 . S
C432 H424 0.950 . S
C432 C433 1.386 . S
C432 C434 1.391 . S
C433 C432 1.386 . S
C433 C437 1.393 . S
C434 H426 0.950 . S
C434 C432 1.391 . S
C434 C435 1.400 . S
C435 C434 1.400 . S
C435 C436 1.398 . S
C435 C441 1.491 1_566 S
C436 H427 0.950 . S
C436 C435 1.398 . S
C436 C437 1.391 . S
C437 H425 0.950 . S
C437 C433 1.393 . S
C437 C436 1.391 . S
C438 H428 0.950 . S
C438 C439 1.386 . S
C438 C440 1.391 . S
C439 C438 1.386 . S
C439 C443 1.393 . S
C440 H429 0.950 . S
C440 C438 1.391 . S
C440 C441 1.400 . S
C441 C435 1.491 1_544 S
C441 C440 1.400 . S
C441 C442 1.398 . S
C442 H430 0.950 . S
C442 C441 1.398 . S
C442 C443 1.391 . S
C443 H431 0.950 . S
C443 C439 1.393 . S
C443 C442 1.391 . S
H444 C452 0.950 . S
H445 C457 0.950 . S
H446 C454 0.950 1_565 S
H447 C456 0.950 . S
H448 C458 0.950 . S
H449 C460 0.950 1_545 S
H450 C462 0.950 . S
H451 C463 0.950 . S
C452 H444 0.950 . S
C452 C453 1.386 . S
C452 C454 1.391 . S
C453 C452 1.386 . S
C453 C457 1.393 . S
C454 H446 0.950 1_545 S
C454 C452 1.391 . S
C454 C455 1.400 . S
C455 C454 1.400 . S
C455 C456 1.398 . S
C455 C461 1.491 1_545 S
C456 H447 0.950 . S
C456 C455 1.398 . S
C456 C457 1.391 . S
C457 H445 0.950 . S
C457 C453 1.393 . S
C457 C456 1.391 . S
C458 H448 0.950 . S
C458 C459 1.386 . S
C458 C460 1.391 . S
C459 C458 1.386 . S
C459 C463 1.393 . S
C460 H449 0.950 1_565 S
C460 C458 1.391 . S
C460 C461 1.400 . S
C461 C455 1.491 1_565 S
C461 C460 1.400 . S
C461 C462 1.398 . S
C462 H450 0.950 . S
C462 C461 1.398 . S
C462 C463 1.391 . S
C463 H451 0.950 . S
C463 C459 1.393 . S
C463 C462 1.391 . S
H464 C472 0.950 1_554 S
H465 C477 0.950 . S
H466 C474 0.950 . S
H467 C476 0.950 . S
H468 C478 0.950 1_556 S
H469 C480 0.950 . S
H470 C482 0.950 . S
H471 C483 0.950 . S
C472 H464 0.950 1_556 S
C472 C473 1.386 . S
C472 C474 1.391 1_556 S
C473 C472 1.386 . S
C473 C477 1.393 . S
C474 H466 0.950 . S
C474 C472 1.391 1_554 S
C474 C475 1.400 1_554 S
C475 C474 1.400 1_556 S
C475 C476 1.398 . S
C475 C481 1.491 1_556 S
C476 H467 0.950 . S
C476 C475 1.398 . S
C476 C477 1.391 . S
C477 H465 0.950 . S
C477 C473 1.393 . S
C477 C476 1.391 . S
C478 H468 0.950 1_554 S
C478 C479 1.386 . S
C478 C480 1.391 1_554 S
C479 C478 1.386 . S
C479 C483 1.393 . S
C480 H469 0.950 . S
C480 C478 1.391 1_556 S
C480 C481 1.400 1_556 S
C481 C475 1.491 1_554 S
C481 C480 1.400 1_554 S
C481 C482 1.398 . S
C482 H470 0.950 . S
C482 C481 1.398 . S
C482 C483 1.391 . S
C483 H471 0.950 . S
C483 C479 1.393 . S
C483 C482 1.391 . S
H484 C492 0.950 . S
H485 C497 0.950 . S
H486 C494 0.950 . S
H487 C496 0.950 . S
H488 C498 0.950 . S
H489 C500 0.950 . S
H490 C502 0.950 . S
H491 C503 0.950 . S
C492 H484 0.950 . S
C492 C493 1.386 . S
C492 C494 1.391 . S
C493 C492 1.386 . S
C493 C497 1.393 . S
C494 H486 0.950 . S
C494 C492 1.391 . S
C494 C495 1.400 . S
C495 C494 1.400 . S
C495 C496 1.398 . S
C495 C501 1.491 . S
C496 H487 0.950 . S
C496 C495 1.398 . S
C496 C497 1.391 . S
C497 H485 0.950 . S
C497 C493 1.393 . S
C497 C496 1.391 . S
C498 H488 0.950 . S
C498 C499 1.386 . S
C498 C500 1.391 . S
C499 C498 1.386 . S
C499 C503 1.393 . S
C500 H489 0.950 . S
C500 C498 1.391 . S
C500 C501 1.400 . S
C501 C495 1.491 . S
C501 C500 1.400 . S
C501 C502 1.398 . S
C502 H490 0.950 . S
C502 C501 1.398 . S
C502 C503 1.391 . S
C503 H491 0.950 . S
C503 C499 1.393 . S
C503 C502 1.391 . S
H504 C512 0.950 . S
H505 C517 0.950 . S
H506 C514 0.950 1_556 S
H507 C516 0.950 . S
H508 C518 0.950 . S
H509 C520 0.950 1_554 S
H510 C522 0.950 . S
H511 C523 0.950 . S
C512 H504 0.950 . S
C512 C513 1.386 . S
C512 C514 1.391 . S
C513 C512 1.386 . S
C513 C517 1.393 . S
C514 H506 0.950 1_554 S
C514 C512 1.391 . S
C514 C515 1.400 . S
C515 C514 1.400 . S
C515 C516 1.398 . S
C515 C521 1.491 1_554 S
C516 H507 0.950 . S
C516 C515 1.398 . S
C516 C517 1.391 . S
C517 H505 0.950 . S
C517 C513 1.393 . S
C517 C516 1.391 . S
C518 H508 0.950 . S
C518 C519 1.386 . S
C518 C520 1.391 . S
C519 C518 1.386 . S
C519 C523 1.393 . S
C520 H509 0.950 1_556 S
C520 C518 1.391 . S
C520 C521 1.400 . S
C521 C515 1.491 1_556 S
C521 C520 1.400 . S
C521 C522 1.398 . S
C522 H510 0.950 . S
C522 C521 1.398 . S
C522 C523 1.391 . S
C523 H511 0.950 . S
C523 C519 1.393 . S
C523 C522 1.391 . S
H524 C532 0.950 . S
H525 C537 0.950 . S
H526 C534 0.950 . S
H527 C536 0.950 . S
H528 C538 0.950 . S
H529 C540 0.950 . S
H530 C542 0.950 . S
H531 C543 0.950 . S
C532 H524 0.950 . S
C532 C533 1.386 . S
C532 C534 1.391 . S
C533 C532 1.386 . S
C533 C537 1.393 . S
C534 H526 0.950 . S
C534 C532 1.391 . S
C534 C535 1.400 . S
C535 C534 1.400 . S
C535 C536 1.398 . S
C535 C541 1.491 . S
C536 H527 0.950 . S
C536 C535 1.398 . S
C536 C537 1.391 . S
C537 H525 0.950 . S
C537 C533 1.393 . S
C537 C536 1.391 . S
C538 H528 0.950 . S
C538 C539 1.386 . S
C538 C540 1.391 . S
C539 C538 1.386 . S
C539 C543 1.393 . S
C540 H529 0.950 . S
C540 C538 1.391 . S
C540 C541 1.400 . S
C541 C535 1.491 . S
C541 C540 1.400 . S
C541 C542 1.398 . S
C542 H530 0.950 . S
C542 C541 1.398 . S
C542 C543 1.391 . S
C543 H531 0.950 . S
C543 C539 1.393 . S
C543 C542 1.391 . S
H544 C552 0.950 . S
H545 C557 0.950 . S
H546 C554 0.950 . S
H547 C556 0.950 . S
H548 C558 0.950 . S
H549 C560 0.950 . S
H550 C562 0.950 . S
H551 C563 0.950 . S
C552 H544 0.950 . S
C552 C553 1.386 . S
C552 C554 1.391 . S
C553 C552 1.386 . S
C553 C557 1.393 . S
C554 H546 0.950 . S
C554 C552 1.391 . S
C554 C555 1.400 . S
C555 C554 1.400 . S
C555 C556 1.398 . S
C555 C561 1.491 . S
C556 H547 0.950 . S
C556 C555 1.398 . S
C556 C557 1.391 . S
C557 H545 0.950 . S
C557 C553 1.393 . S
C557 C556 1.391 . S
C558 H548 0.950 . S
C558 C559 1.386 . S
C558 C560 1.391 . S
C559 C558 1.386 . S
C559 C563 1.393 . S
C560 H549 0.950 . S
C560 C558 1.391 . S
C560 C561 1.400 . S
C561 C555 1.491 . S
C561 C560 1.400 . S
C561 C562 1.398 . S
C562 H550 0.950 . S
C562 C561 1.398 . S
C562 C563 1.391 . S
C563 H551 0.950 . S
C563 C559 1.393 . S
C563 C562 1.391 . S
H564 C572 0.950 . S
H565 C577 0.950 . S
H566 C574 0.950 1_455 S
H567 C576 0.950 1_455 S
H568 C578 0.950 . S
H569 C580 0.950 . S
H570 C582 0.950 . S
H571 C583 0.950 . S
C572 H564 0.950 . S
C572 C573 1.386 . S
C572 C574 1.391 . S
C573 C572 1.386 . S
C573 C577 1.393 . S
C574 H566 0.950 1_655 S
C574 C572 1.391 . S
C574 C575 1.400 1_655 S
C575 C574 1.400 1_455 S
C575 C576 1.398 1_455 S
C575 C581 1.491 . S
C576 H567 0.950 1_655 S
C576 C575 1.398 1_655 S
C576 C577 1.391 . S
C577 H565 0.950 . S
C577 C573 1.393 . S
C577 C576 1.391 . S
C578 H568 0.950 . S
C578 C579 1.386 . S
C578 C580 1.391 . S
C579 C578 1.386 . S
C579 C583 1.393 . S
C580 H569 0.950 . S
C580 C578 1.391 . S
C580 C581 1.400 . S
C581 C575 1.491 . S
C581 C580 1.400 . S
C581 C582 1.398 . S
C582 H570 0.950 . S
C582 C581 1.398 . S
C582 C583 1.391 . S
C583 H571 0.950 . S
C583 C579 1.393 . S
C583 C582 1.391 . S
H584 C592 0.950 . S
H585 C597 0.950 . S
H586 C594 0.950 . S
H587 C596 0.950 . S
H588 C598 0.950 . S
H589 C600 0.950 . S
H590 C602 0.950 . S
H591 C603 0.950 . S
C592 H584 0.950 . S
C592 C593 1.386 . S
C592 C594 1.391 . S
C593 C592 1.386 . S
C593 C597 1.393 . S
C594 H586 0.950 . S
C594 C592 1.391 . S
C594 C595 1.400 . S
C595 C594 1.400 . S
C595 C596 1.398 . S
C595 C601 1.491 . S
C596 H587 0.950 . S
C596 C595 1.398 . S
C596 C597 1.391 . S
C597 H585 0.950 . S
C597 C593 1.393 . S
C597 C596 1.391 . S
C598 H588 0.950 . S
C598 C599 1.386 . S
C598 C600 1.391 . S
C599 C598 1.386 . S
C599 C603 1.393 . S
C600 H589 0.950 . S
C600 C598 1.391 . S
C600 C601 1.400 . S
C601 C595 1.491 . S
C601 C600 1.400 . S
C601 C602 1.398 . S
C602 H590 0.950 . S
C602 C601 1.398 . S
C602 C603 1.391 . S
C603 H591 0.950 . S
C603 C599 1.393 . S
C603 C602 1.391 . S
H604 C612 0.950 . S
H605 C617 0.950 . S
H606 C614 0.950 . S
H607 C616 0.950 . S
H608 C618 0.950 . S
H609 C620 0.950 1_455 S
H610 C622 0.950 1_455 S
H611 C623 0.950 . S
C612 H604 0.950 . S
C612 C613 1.386 . S
C612 C614 1.391 . S
C613 C612 1.386 . S
C613 C617 1.393 . S
C614 H606 0.950 . S
C614 C612 1.391 . S
C614 C615 1.400 . S
C615 C614 1.400 . S
C615 C616 1.398 . S
C615 C621 1.491 . S
C616 H607 0.950 . S
C616 C615 1.398 . S
C616 C617 1.391 . S
C617 H605 0.950 . S
C617 C613 1.393 . S
C617 C616 1.391 . S
C618 H608 0.950 . S
C618 C619 1.386 . S
C618 C620 1.391 . S
C619 C618 1.386 . S
C619 C623 1.393 . S
C620 H609 0.950 1_655 S
C620 C618 1.391 . S
C620 C621 1.400 1_655 S
C621 C615 1.491 . S
C621 C620 1.400 1_455 S
C621 C622 1.398 1_455 S
C622 H610 0.950 1_655 S
C622 C621 1.398 1_655 S
C622 C623 1.391 . S
C623 H611 0.950 . S
C623 C619 1.393 . S
C623 C622 1.391 . S
H624 C632 0.950 . S
H625 C637 0.950 . S
H626 C634 0.950 1_655 S
H627 C636 0.950 1_655 S
H628 C638 0.950 . S
H629 C640 0.950 . S
H630 C642 0.950 . S
H631 C643 0.950 . S
C632 H624 0.950 . S
C632 C633 1.386 . S
C632 C634 1.391 . S
C633 C632 1.386 . S
C633 C637 1.393 . S
C634 H626 0.950 1_455 S
C634 C632 1.391 . S
C634 C635 1.400 1_455 S
C635 C634 1.400 1_655 S
C635 C636 1.398 1_655 S
C635 C641 1.491 . S
C636 H627 0.950 1_455 S
C636 C635 1.398 1_455 S
C636 C637 1.391 . S
C637 H625 0.950 . S
C637 C633 1.393 . S
C637 C636 1.391 . S
C638 H628 0.950 . S
C638 C639 1.386 . S
C638 C640 1.391 . S
C639 C638 1.386 . S
C639 C643 1.393 . S
C640 H629 0.950 . S
C640 C638 1.391 . S
C640 C641 1.400 . S
C641 C635 1.491 . S
C641 C640 1.400 . S
C641 C642 1.398 . S
C642 H630 0.950 . S
C642 C641 1.398 . S
C642 C643 1.391 . S
C643 H631 0.950 . S
C643 C639 1.393 . S
C643 C642 1.391 . S
H644 C652 0.950 . S
H645 C657 0.950 . S
H646 C654 0.950 . S
H647 C656 0.950 . S
H648 C658 0.950 . S
H649 C660 0.950 . S
H650 C662 0.950 . S
H651 C663 0.950 . S
C652 H644 0.950 . S
C652 C653 1.386 . S
C652 C654 1.391 . S
C653 C652 1.386 . S
C653 C657 1.393 . S
C654 H646 0.950 . S
C654 C652 1.391 . S
C654 C655 1.400 . S
C655 C654 1.400 . S
C655 C656 1.398 . S
C655 C661 1.491 . S
C656 H647 0.950 . S
C656 C655 1.398 . S
C656 C657 1.391 . S
C657 H645 0.950 . S
C657 C653 1.393 . S
C657 C656 1.391 . S
C658 H648 0.950 . S
C658 C659 1.386 . S
C658 C660 1.391 . S
C659 C658 1.386 . S
C659 C663 1.393 . S
C660 H649 0.950 . S
C660 C658 1.391 . S
C660 C661 1.400 . S
C661 C655 1.491 . S
C661 C660 1.400 . S
C661 C662 1.398 . S
C662 H650 0.950 . S
C662 C661 1.398 . S
C662 C663 1.391 . S
C663 H651 0.950 . S
C663 C659 1.393 . S
C663 C662 1.391 . S
H664 C672 0.950 . S
H665 C677 0.950 . S
H666 C674 0.950 1_655 S
H667 C676 0.950 1_655 S
H668 C678 0.950 . S
H669 C680 0.950 . S
H670 C682 0.950 . S
H671 C683 0.950 . S
C672 H664 0.950 . S
C672 C673 1.386 . S
C672 C674 1.391 . S
C673 C672 1.386 . S
C673 C677 1.393 . S
C674 H666 0.950 1_455 S
C674 C672 1.391 . S
C674 C675 1.400 1_455 S
C675 C674 1.400 1_655 S
C675 C676 1.398 1_655 S
C675 C681 1.491 . S
C676 H667 0.950 1_455 S
C676 C675 1.398 1_455 S
C676 C677 1.391 . S
C677 H665 0.950 . S
C677 C673 1.393 . S
C677 C676 1.391 . S
C678 H668 0.950 . S
C678 C679 1.386 . S
C678 C680 1.391 . S
C679 C678 1.386 . S
C679 C683 1.393 . S
C680 H669 0.950 . S
C680 C678 1.391 . S
C680 C681 1.400 . S
C681 C675 1.491 . S
C681 C680 1.400 . S
C681 C682 1.398 . S
C682 H670 0.950 . S
C682 C681 1.398 . S
C682 C683 1.391 . S
C683 H671 0.950 . S
C683 C679 1.393 . S
C683 C682 1.391 . S
H684 C692 0.950 . S
H685 C697 0.950 . S
H686 C694 0.950 . S
H687 C696 0.950 . S
H688 C698 0.950 . S
H689 C700 0.950 . S
H690 C702 0.950 . S
H691 C703 0.950 . S
C692 H684 0.950 . S
C692 C693 1.386 . S
C692 C694 1.391 . S
C693 C692 1.386 . S
C693 C697 1.393 . S
C694 H686 0.950 . S
C694 C692 1.391 . S
C694 C695 1.400 . S
C695 C694 1.400 . S
C695 C696 1.398 . S
C695 C701 1.491 . S
C696 H687 0.950 . S
C696 C695 1.398 . S
C696 C697 1.391 . S
C697 H685 0.950 . S
C697 C693 1.393 . S
C697 C696 1.391 . S
C698 H688 0.950 . S
C698 C699 1.386 . S
C698 C700 1.391 . S
C699 C698 1.386 . S
C699 C703 1.393 . S
C700 H689 0.950 . S
C700 C698 1.391 . S
C700 C701 1.400 . S
C701 C695 1.491 . S
C701 C700 1.400 . S
C701 C702 1.398 . S
C702 H690 0.950 . S
C702 C701 1.398 . S
C702 C703 1.391 . S
C703 H691 0.950 . S
C703 C699 1.393 . S
C703 C702 1.391 . S
H704 C712 0.950 . S
H705 C717 0.950 . S
H706 C714 0.950 . S
H707 C716 0.950 . S
H708 C718 0.950 . S
H709 C720 0.950 . S
H710 C722 0.950 . S
H711 C723 0.950 . S
C712 H704 0.950 . S
C712 C713 1.386 . S
C712 C714 1.391 . S
C713 C712 1.386 . S
C713 C717 1.393 . S
C714 H706 0.950 . S
C714 C712 1.391 . S
C714 C715 1.400 . S
C715 C714 1.400 . S
C715 C716 1.398 . S
C715 C721 1.491 . S
C716 H707 0.950 . S
C716 C715 1.398 . S
C716 C717 1.391 . S
C717 H705 0.950 . S
C717 C713 1.393 . S
C717 C716 1.391 . S
C718 H708 0.950 . S
C718 C719 1.386 . S
C718 C720 1.391 . S
C719 C718 1.386 . S
C719 C723 1.393 . S
C720 H709 0.950 . S
C720 C718 1.391 . S
C720 C721 1.400 . S
C721 C715 1.491 . S
C721 C720 1.400 . S
C721 C722 1.398 . S
C722 H710 0.950 . S
C722 C721 1.398 . S
C722 C723 1.391 . S
C723 H711 0.950 . S
C723 C719 1.393 . S
C723 C722 1.391 . S
H724 C732 0.950 . S
H725 C737 0.950 . S
H726 C734 0.950 . S
H727 C736 0.950 . S
H728 C738 0.950 . S
H729 C740 0.950 . S
H730 C742 0.950 . S
H731 C743 0.950 . S
C732 H724 0.950 . S
C732 C733 1.386 . S
C732 C734 1.391 . S
C733 C732 1.386 . S
C733 C737 1.393 . S
C734 H726 0.950 . S
C734 C732 1.391 . S
C734 C735 1.400 . S
C735 C734 1.400 . S
C735 C736 1.398 . S
C735 C741 1.491 . S
C736 H727 0.950 . S
C736 C735 1.398 . S
C736 C737 1.391 . S
C737 H725 0.950 . S
C737 C733 1.393 . S
C737 C736 1.391 . S
C738 H728 0.950 . S
C738 C739 1.386 . S
C738 C740 1.391 . S
C739 C738 1.386 . S
C739 C743 1.393 . S
C740 H729 0.950 . S
C740 C738 1.391 . S
C740 C741 1.400 . S
C741 C735 1.491 . S
C741 C740 1.400 . S
C741 C742 1.398 . S
C742 H730 0.950 . S
C742 C741 1.398 . S
C742 C743 1.391 . S
C743 H731 0.950 . S
C743 C739 1.393 . S
C743 C742 1.391 . S
H744 C752 0.950 . S
H745 C757 0.950 . S
H746 C754 0.950 . S
H747 C756 0.950 . S
H748 C758 0.950 . S
H749 C760 0.950 . S
H750 C762 0.950 . S
H751 C763 0.950 . S
C752 H744 0.950 . S
C752 C753 1.386 . S
C752 C754 1.391 . S
C753 C752 1.386 . S
C753 C757 1.393 . S
C754 H746 0.950 . S
C754 C752 1.391 . S
C754 C755 1.400 . S
C755 C754 1.400 . S
C755 C756 1.398 . S
C755 C761 1.491 . S
C756 H747 0.950 . S
C756 C755 1.398 . S
C756 C757 1.391 . S
C757 H745 0.950 . S
C757 C753 1.393 . S
C757 C756 1.391 . S
C758 H748 0.950 . S
C758 C759 1.386 . S
C758 C760 1.391 . S
C759 C758 1.386 . S
C759 C763 1.393 . S
C760 H749 0.950 . S
C760 C758 1.391 . S
C760 C761 1.400 . S
C761 C755 1.491 . S
C761 C760 1.400 . S
C761 C762 1.398 . S
C762 H750 0.950 . S
C762 C761 1.398 . S
C762 C763 1.391 . S
C763 H751 0.950 . S
C763 C759 1.393 . S
C763 C762 1.391 . S
H764 C772 0.950 . S
H765 C777 0.950 . S
H766 C774 0.950 . S
H767 C776 0.950 . S
H768 C778 0.950 . S
H769 C780 0.950 . S
H770 C782 0.950 . S
H771 C783 0.950 . S
C772 H764 0.950 . S
C772 C773 1.386 . S
C772 C774 1.391 . S
C773 C772 1.386 . S
C773 C777 1.393 . S
C774 H766 0.950 . S
C774 C772 1.391 . S
C774 C775 1.400 . S
C775 C774 1.400 . S
C775 C776 1.398 . S
C775 C781 1.491 . S
C776 H767 0.950 . S
C776 C775 1.398 . S
C776 C777 1.391 . S
C777 H765 0.950 . S
C777 C773 1.393 . S
C777 C776 1.391 . S
C778 H768 0.950 . S
C778 C779 1.386 . S
C778 C780 1.391 . S
C779 C778 1.386 . S
C779 C783 1.393 . S
C780 H769 0.950 . S
C780 C778 1.391 . S
C780 C781 1.400 . S
C781 C775 1.491 . S
C781 C780 1.400 . S
C781 C782 1.398 . S
C782 H770 0.950 . S
C782 C781 1.398 . S
C782 C783 1.391 . S
C783 H771 0.950 . S
C783 C779 1.393 . S
C783 C782 1.391 . S
H784 C792 0.950 . S
H785 C797 0.950 . S
H786 C794 0.950 . S
H787 C796 0.950 . S
H788 C798 0.950 . S
H789 C800 0.950 . S
H790 C802 0.950 . S
H791 C803 0.950 . S
C792 H784 0.950 . S
C792 C793 1.386 . S
C792 C794 1.391 . S
C793 C792 1.386 . S
C793 C797 1.393 . S
C794 H786 0.950 . S
C794 C792 1.391 . S
C794 C795 1.400 . S
C795 C794 1.400 . S
C795 C796 1.398 . S
C795 C801 1.491 . S
C796 H787 0.950 . S
C796 C795 1.398 . S
C796 C797 1.391 . S
C797 H785 0.950 . S
C797 C793 1.393 . S
C797 C796 1.391 . S
C798 H788 0.950 . S
C798 C799 1.386 . S
C798 C800 1.391 . S
C799 C798 1.386 . S
C799 C803 1.393 . S
C800 H789 0.950 . S
C800 C798 1.391 . S
C800 C801 1.400 . S
C801 C795 1.491 . S
C801 C800 1.400 . S
C801 C802 1.398 . S
C802 H790 0.950 . S
C802 C801 1.398 . S
C802 C803 1.391 . S
C803 H791 0.950 . S
C803 C799 1.393 . S
C803 C802 1.391 . S
H804 C812 0.950 . S
H805 C817 0.950 . S
H806 C814 0.950 . S
H807 C816 0.950 . S
H808 C818 0.950 . S
H809 C820 0.950 . S
H810 C822 0.950 . S
H811 C823 0.950 . S
C812 H804 0.950 . S
C812 C813 1.386 . S
C812 C814 1.391 . S
C813 C812 1.386 . S
C813 C817 1.393 . S
C814 H806 0.950 . S
C814 C812 1.391 . S
C814 C815 1.400 . S
C815 C814 1.400 . S
C815 C816 1.398 . S
C815 C821 1.491 . S
C816 H807 0.950 . S
C816 C815 1.398 . S
C816 C817 1.391 . S
C817 H805 0.950 . S
C817 C813 1.393 . S
C817 C816 1.391 . S
C818 H808 0.950 . S
C818 C819 1.386 . S
C818 C820 1.391 . S
C819 C818 1.386 . S
C819 C823 1.393 . S
C820 H809 0.950 . S
C820 C818 1.391 . S
C820 C821 1.400 . S
C821 C815 1.491 . S
C821 C820 1.400 . S
C821 C822 1.398 . S
C822 H810 0.950 . S
C822 C821 1.398 . S
C822 C823 1.391 . S
C823 H811 0.950 . S
C823 C819 1.393 . S
C823 C822 1.391 . S
H824 C832 0.950 . S
H825 C837 0.950 . S
H826 C834 0.950 . S
H827 C836 0.950 . S
H828 C838 0.950 . S
H829 C840 0.950 . S
H830 C842 0.950 . S
H831 C843 0.950 . S
C832 H824 0.950 . S
C832 C833 1.386 . S
C832 C834 1.391 . S
C833 C832 1.386 . S
C833 C837 1.393 . S
C834 H826 0.950 . S
C834 C832 1.391 . S
C834 C835 1.400 . S
C835 C834 1.400 . S
C835 C836 1.398 . S
C835 C841 1.491 . S
C836 H827 0.950 . S
C836 C835 1.398 . S
C836 C837 1.391 . S
C837 H825 0.950 . S
C837 C833 1.393 . S
C837 C836 1.391 . S
C838 H828 0.950 . S
C838 C839 1.386 . S
C838 C840 1.391 . S
C839 C838 1.386 . S
C839 C843 1.393 . S
C840 H829 0.950 . S
C840 C838 1.391 . S
C840 C841 1.400 . S
C841 C835 1.491 . S
C841 C840 1.400 . S
C841 C842 1.398 . S
C842 H830 0.950 . S
C842 C841 1.398 . S
C842 C843 1.391 . S
C843 H831 0.950 . S
C843 C839 1.393 . S
C843 C842 1.391 . S
H844 C852 0.950 . S
H845 C857 0.950 . S
H846 C854 0.950 . S
H847 C856 0.950 . S
H848 C858 0.950 . S
H849 C860 0.950 . S
H850 C862 0.950 . S
H851 C863 0.950 . S
C852 H844 0.950 . S
C852 C853 1.386 . S
C852 C854 1.391 . S
C853 C852 1.386 . S
C853 C857 1.393 . S
C854 H846 0.950 . S
C854 C852 1.391 . S
C854 C855 1.400 . S
C855 C854 1.400 . S
C855 C856 1.398 . S
C855 C861 1.491 . S
C856 H847 0.950 . S
C856 C855 1.398 . S
C856 C857 1.391 . S
C857 H845 0.950 . S
C857 C853 1.393 . S
C857 C856 1.391 . S
C858 H848 0.950 . S
C858 C859 1.386 . S
C858 C860 1.391 . S
C859 C858 1.386 . S
C859 C863 1.393 . S
C860 H849 0.950 . S
C860 C858 1.391 . S
C860 C861 1.400 . S
C861 C855 1.491 . S
C861 C860 1.400 . S
C861 C862 1.398 . S
C862 H850 0.950 . S
C862 C861 1.398 . S
C862 C863 1.391 . S
C863 H851 0.950 . S
C863 C859 1.393 . S
C863 C862 1.391 . S
C233 C8 1.506 . S
C239 C175 1.471 . S
C253 C189 1.482 . S
C259 C22 1.505 . S
C273 C36 1.495 . S
C279 C203 1.463 . S
C293 C217 1.481 . S
C299 C50 1.506 . S
C313 C120 1.504 . S
C319 C63 1.484 . S
C333 C77 1.469 . S
C339 C134 1.505 . S
C353 C148 1.498 . S
C359 C91 1.462 . S
C373 C105 1.462 . S
C379 C162 1.500 . S
C393 C3 1.532 . S
C399 C31 1.538 . S
C413 C17 1.530 . S
C419 C45 1.536 . S
C433 C59 1.537 . S
C439 C87 1.537 . S
C453 C73 1.537 . S
C459 C101 1.539 . S
C473 C143 1.529 . S
C479 C115 1.533 . S
C493 C129 1.539 . S
C499 C157 1.537 . S
C513 C199 1.540 . S
C519 C171 1.537 . S
C533 C185 1.542 . S
C539 C213 1.539 . S
C553 C93 1.517 . S
C559 C9 1.535 . S
C573 C107 1.516 . S
C579 C23 1.536 . S
C593 C37 1.528 . S
C599 C65 1.526 . S
C613 C51 1.533 . S
C619 C79 1.520 . S
C633 C205 1.517 . S
C639 C121 1.536 . S
C653 C135 1.533 . S
C659 C219 1.517 . S
C673 C177 1.514 . S
C679 C149 1.536 . S
C693 C163 1.529 . S
C699 C191 1.528 . S
C713 C7 1.283 . S
C719 C49 1.258 . S
C733 C35 1.265 . S
C739 C21 1.263 . S
C753 C64 1.622 . S
C759 C106 1.622 . S
C773 C78 1.620 . S
C779 C92 1.621 . S
C793 C161 1.260 . S
C799 C119 1.284 . S
C813 C133 1.271 . S
C819 C147 1.279 . S
C833 C218 1.624 . S
C839 C176 1.624 . S
C853 C190 1.621 . S
C859 C204 1.621 . S
