# Generated by pormake.
# Topology ukd, (4)-cn, num edge types: 1
# Building blocks:
#     Node 0, Type 0, BuildingBlock: NAHDIM_clean_sbu_0, # of connection points: 4
#     Node 1, Type 0, BuildingBlock: NAHDIM_clean_sbu_0, # of connection points: 4
#     Node 2, Type 0, BuildingBlock: NAHDIM_clean_sbu_0, # of connection points: 4
#     Node 3, Type 0, BuildingBlock: NAHDIM_clean_sbu_0, # of connection points: 4
#     Node 4, Type 0, BuildingBlock: NAHDIM_clean_sbu_0, # of connection points: 4
#     Node 5, Type 0, BuildingBlock: NAHDIM_clean_sbu_0, # of connection points: 4
#     Node 6, Type 0, BuildingBlock: NAHDIM_clean_sbu_0, # of connection points: 4
#     Node 7, Type 0, BuildingBlock: NAHDIM_clean_sbu_0, # of connection points: 4
#     Node 8, Type 0, BuildingBlock: NAHDIM_clean_sbu_0, # of connection points: 4
#     Node 9, Type 0, BuildingBlock: NAHDIM_clean_sbu_0, # of connection points: 4
#     Node 10, Type 0, BuildingBlock: NAHDIM_clean_sbu_0, # of connection points: 4
#     Node 11, Type 0, BuildingBlock: NAHDIM_clean_sbu_0, # of connection points: 4
#     Node 12, Type 0, BuildingBlock: NAHDIM_clean_sbu_0, # of connection points: 4
#     Node 13, Type 0, BuildingBlock: NAHDIM_clean_sbu_0, # of connection points: 4
#     Node 14, Type 0, BuildingBlock: NAHDIM_clean_sbu_0, # of connection points: 4
#     Node 15, Type 0, BuildingBlock: NAHDIM_clean_sbu_0, # of connection points: 4
#     Node 16, Type 0, BuildingBlock: NAHDIM_clean_sbu_0, # of connection points: 4
#     Node 17, Type 0, BuildingBlock: NAHDIM_clean_sbu_0, # of connection points: 4
#     Node 18, Type 0, BuildingBlock: NAHDIM_clean_sbu_0, # of connection points: 4
#     Node 19, Type 0, BuildingBlock: NAHDIM_clean_sbu_0, # of connection points: 4
#     Node 20, Type 0, BuildingBlock: NAHDIM_clean_sbu_0, # of connection points: 4
#     Node 21, Type 0, BuildingBlock: NAHDIM_clean_sbu_0, # of connection points: 4
#     Node 22, Type 0, BuildingBlock: NAHDIM_clean_sbu_0, # of connection points: 4
#     Node 23, Type 0, BuildingBlock: NAHDIM_clean_sbu_0, # of connection points: 4
#     Node 24, Type 0, BuildingBlock: NAHDIM_clean_sbu_0, # of connection points: 4
#     Node 25, Type 0, BuildingBlock: NAHDIM_clean_sbu_0, # of connection points: 4
#     Node 26, Type 0, BuildingBlock: NAHDIM_clean_sbu_0, # of connection points: 4
#     Node 27, Type 0, BuildingBlock: NAHDIM_clean_sbu_0, # of connection points: 4
#     Node 28, Type 0, BuildingBlock: NAHDIM_clean_sbu_0, # of connection points: 4
#     Node 29, Type 0, BuildingBlock: NAHDIM_clean_sbu_0, # of connection points: 4
#     Node 30, Type 0, BuildingBlock: NAHDIM_clean_sbu_0, # of connection points: 4
#     Node 31, Type 0, BuildingBlock: NAHDIM_clean_sbu_0, # of connection points: 4
#     Edge 32, Type (0, 0), None
#     Edge 33, Type (0, 0), None
#     Edge 34, Type (0, 0), None
#     Edge 35, Type (0, 0), None
#     Edge 36, Type (0, 0), None
#     Edge 37, Type (0, 0), None
#     Edge 38, Type (0, 0), None
#     Edge 39, Type (0, 0), None
#     Edge 40, Type (0, 0), None
#     Edge 41, Type (0, 0), None
#     Edge 42, Type (0, 0), None
#     Edge 43, Type (0, 0), None
#     Edge 44, Type (0, 0), None
#     Edge 45, Type (0, 0), None
#     Edge 46, Type (0, 0), None
#     Edge 47, Type (0, 0), None
#     Edge 48, Type (0, 0), None
#     Edge 49, Type (0, 0), None
#     Edge 50, Type (0, 0), None
#     Edge 51, Type (0, 0), None
#     Edge 52, Type (0, 0), None
#     Edge 53, Type (0, 0), None
#     Edge 54, Type (0, 0), None
#     Edge 55, Type (0, 0), None
#     Edge 56, Type (0, 0), None
#     Edge 57, Type (0, 0), None
#     Edge 58, Type (0, 0), None
#     Edge 59, Type (0, 0), None
#     Edge 60, Type (0, 0), None
#     Edge 61, Type (0, 0), None
#     Edge 62, Type (0, 0), None
#     Edge 63, Type (0, 0), None
#     Edge 64, Type (0, 0), None
#     Edge 65, Type (0, 0), None
#     Edge 66, Type (0, 0), None
#     Edge 67, Type (0, 0), None
#     Edge 68, Type (0, 0), None
#     Edge 69, Type (0, 0), None
#     Edge 70, Type (0, 0), None
#     Edge 71, Type (0, 0), None
#     Edge 72, Type (0, 0), None
#     Edge 73, Type (0, 0), None
#     Edge 74, Type (0, 0), None
#     Edge 75, Type (0, 0), None
#     Edge 76, Type (0, 0), None
#     Edge 77, Type (0, 0), None
#     Edge 78, Type (0, 0), None
#     Edge 79, Type (0, 0), None
#     Edge 80, Type (0, 0), None
#     Edge 81, Type (0, 0), None
#     Edge 82, Type (0, 0), None
#     Edge 83, Type (0, 0), None
#     Edge 84, Type (0, 0), None
#     Edge 85, Type (0, 0), None
#     Edge 86, Type (0, 0), None
#     Edge 87, Type (0, 0), None
#     Edge 88, Type (0, 0), None
#     Edge 89, Type (0, 0), None
#     Edge 90, Type (0, 0), None
#     Edge 91, Type (0, 0), None
#     Edge 92, Type (0, 0), None
#     Edge 93, Type (0, 0), None
#     Edge 94, Type (0, 0), None
#     Edge 95, Type (0, 0), None
# Relax obj value: 0.158
# Max RMSD: 0.195
# Mean RMSD: 0.195
data_MOF--net-ukd--node1-NAHDIM_clean_sbu_0--edge1-none
_symmetry_space_group_name_H-M    P1
_symmetry_Int_Tables_number       1
_symmetry_cell_setting            triclinic
loop_
_symmetry_equiv_pos_as_xyz
'x, y, z'
_cell_length_a     19.992153
_cell_length_b     19.99163
_cell_length_c     32.682827
_cell_angle_alpha  90.000842
_cell_angle_beta   90.000005
_cell_angle_gamma 90.00036
loop_
_atom_site_label
_atom_site_type_symbol
_atom_site_fract_x
_atom_site_fract_y
_atom_site_fract_z
_atom_type_partial_charge
C0 C 0.36559 0.16174 0.36197 0.0
O1 O 0.35749 0.15754 0.32218 0.0
O2 O 0.25268 0.25748 0.30029 0.0
Zn3 Zn 0.23553 0.21346 0.35485 0.0
O4 O 0.18714 0.12539 0.35036 0.0
C5 C 0.17916 0.33557 0.38888 0.0
O6 O 0.22992 0.36503 0.37083 0.0
O7 O 0.32141 0.19128 0.3833 0.0
C8 C 0.12478 0.12421 0.34322 0.0
O9 O 0.09396 0.18004 0.33355 0.0
C10 C 0.24068 0.22944 0.26624 0.0
O11 O 0.21669 0.16832 0.26541 0.0
O12 O 0.17456 0.27232 0.38802 0.0
C13 C 0.08292 0.11561 0.61198 0.0
O14 O 0.08711 0.10751 0.57219 0.0
O15 O 0.98717 0.00271 0.5503 0.0
Zn16 Zn 0.0312 0.98555 0.60485 0.0
O17 O 0.11927 0.93716 0.60036 0.0
C18 C 0.90908 0.92918 0.63889 0.0
O19 O 0.87963 0.97995 0.62083 0.0
O20 O 0.05338 0.07143 0.63331 0.0
C21 C 0.12045 0.8748 0.59322 0.0
O22 O 0.06461 0.84397 0.58355 0.0
C23 C 0.01522 0.99071 0.51624 0.0
O24 O 0.07633 0.96671 0.51541 0.0
O25 O 0.97234 0.92458 0.63802 0.0
C26 C 0.12905 0.83292 0.86197 0.0
O27 O 0.13715 0.83712 0.82218 0.0
O28 O 0.24196 0.73718 0.80029 0.0
Zn29 Zn 0.25911 0.78121 0.85485 0.0
O30 O 0.3075 0.86928 0.85036 0.0
C31 C 0.31548 0.65909 0.88889 0.0
O32 O 0.26472 0.62964 0.87083 0.0
O33 O 0.17323 0.80339 0.8833 0.0
C34 C 0.36986 0.87046 0.84322 0.0
O35 O 0.40068 0.81462 0.83355 0.0
C36 C 0.25395 0.76523 0.76624 0.0
O37 O 0.27794 0.82634 0.76541 0.0
O38 O 0.32008 0.72235 0.88802 0.0
C39 C 0.41172 0.87905 0.11198 0.0
O40 O 0.40752 0.88716 0.07219 0.0
O41 O 0.50747 0.99196 0.0503 0.0
Zn42 Zn 0.46344 0.00912 0.10485 0.0
O43 O 0.37537 0.0575 0.10036 0.0
C44 C 0.58556 0.06549 0.13889 0.0
O45 O 0.61501 0.01472 0.12083 0.0
O46 O 0.44126 0.92324 0.13331 0.0
C47 C 0.3742 0.11987 0.09322 0.0
O48 O 0.43003 0.15069 0.08355 0.0
C49 C 0.47942 0.00396 0.01624 0.0
O50 O 0.41832 0.02796 0.01541 0.0
O51 O 0.5223 0.07009 0.13802 0.0
C52 C 0.3656 0.83291 0.13226 0.0
O53 O 0.35754 0.83709 0.17205 0.0
O54 O 0.25268 0.73719 0.19393 0.0
Zn55 Zn 0.23552 0.78122 0.13938 0.0
O56 O 0.18713 0.86929 0.14387 0.0
C57 C 0.17916 0.65911 0.10533 0.0
O58 O 0.22993 0.62965 0.12339 0.0
O59 O 0.3214 0.80341 0.11092 0.0
C60 C 0.12477 0.87046 0.15101 0.0
O61 O 0.09395 0.81463 0.16067 0.0
C62 C 0.24068 0.76523 0.22799 0.0
O63 O 0.2167 0.82635 0.22882 0.0
O64 O 0.17456 0.72236 0.1062 0.0
C65 C 0.41174 0.11562 0.38225 0.0
O66 O 0.40755 0.10756 0.42205 0.0
O67 O 0.50746 0.0027 0.44392 0.0
Zn68 Zn 0.46344 0.98554 0.38937 0.0
O69 O 0.37537 0.93715 0.39386 0.0
C70 C 0.58555 0.92918 0.35533 0.0
O71 O 0.615 0.97995 0.37339 0.0
O72 O 0.44125 0.07142 0.36092 0.0
C73 C 0.37419 0.87479 0.40101 0.0
O74 O 0.43003 0.84397 0.41067 0.0
C75 C 0.47942 0.99071 0.47798 0.0
O76 O 0.41831 0.96671 0.47882 0.0
O77 O 0.52229 0.92458 0.3562 0.0
C78 C 0.12904 0.16176 0.63226 0.0
O79 O 0.1371 0.15758 0.67205 0.0
O80 O 0.24197 0.25748 0.69393 0.0
Zn81 Zn 0.25912 0.21345 0.63938 0.0
O82 O 0.30751 0.12538 0.64387 0.0
C83 C 0.31548 0.33556 0.60533 0.0
O84 O 0.26471 0.36502 0.62339 0.0
O85 O 0.17324 0.19126 0.61093 0.0
C86 C 0.36987 0.12421 0.65101 0.0
O87 O 0.40069 0.18004 0.66067 0.0
C88 C 0.25395 0.22943 0.72799 0.0
O89 O 0.27794 0.16832 0.72882 0.0
O90 O 0.32008 0.27231 0.6062 0.0
C91 C 0.0829 0.87904 0.88225 0.0
O92 O 0.08708 0.88711 0.92205 0.0
O93 O 0.98717 0.99196 0.94392 0.0
Zn94 Zn 0.0312 0.00912 0.88937 0.0
O95 O 0.11927 0.05751 0.89386 0.0
C96 C 0.90909 0.06549 0.85533 0.0
O97 O 0.87964 0.01472 0.87338 0.0
O98 O 0.05339 0.92324 0.86092 0.0
C99 C 0.12045 0.11988 0.90101 0.0
O100 O 0.06461 0.1507 0.91067 0.0
C101 C 0.01522 0.00396 0.97798 0.0
O102 O 0.07633 0.02795 0.97882 0.0
O103 O 0.97235 0.07009 0.8562 0.0
C104 C 0.62905 0.83293 0.63224 0.0
O105 O 0.63715 0.83713 0.67203 0.0
O106 O 0.74195 0.73718 0.69392 0.0
Zn107 Zn 0.75911 0.78121 0.63937 0.0
O108 O 0.8075 0.86927 0.64386 0.0
C109 C 0.81548 0.65909 0.60534 0.0
O110 O 0.76472 0.62964 0.62339 0.0
O111 O 0.67323 0.80339 0.61092 0.0
C112 C 0.86986 0.87045 0.65101 0.0
O113 O 0.90069 0.81462 0.66068 0.0
C114 C 0.75395 0.76523 0.72798 0.0
O115 O 0.77795 0.82634 0.72881 0.0
O116 O 0.82008 0.72234 0.6062 0.0
C117 C 0.91172 0.87906 0.38225 0.0
O118 O 0.90752 0.88716 0.42204 0.0
O119 O 0.00747 0.99196 0.44393 0.0
Zn120 Zn 0.96344 0.00912 0.38938 0.0
O121 O 0.87538 0.05751 0.39386 0.0
C122 C 0.08556 0.06548 0.35533 0.0
O123 O 0.11503 0.0147 0.37338 0.0
O124 O 0.94126 0.92324 0.36092 0.0
C125 C 0.8742 0.11987 0.401 0.0
O126 O 0.93003 0.1507 0.41067 0.0
C127 C 0.97942 0.00396 0.47799 0.0
O128 O 0.91831 0.02796 0.47882 0.0
O129 O 0.02231 0.07009 0.35621 0.0
C130 C 0.86559 0.16174 0.13224 0.0
O131 O 0.85749 0.15754 0.17204 0.0
O132 O 0.75269 0.25748 0.19392 0.0
Zn133 Zn 0.73553 0.21346 0.13937 0.0
O134 O 0.68714 0.12539 0.14385 0.0
C135 C 0.67916 0.33558 0.10534 0.0
O136 O 0.72992 0.36503 0.12339 0.0
O137 O 0.82141 0.19128 0.11092 0.0
C138 C 0.62478 0.12422 0.15101 0.0
O139 O 0.59395 0.18005 0.16068 0.0
C140 C 0.74069 0.22944 0.22798 0.0
O141 O 0.7167 0.16832 0.22881 0.0
O142 O 0.67456 0.27232 0.1062 0.0
C143 C 0.58292 0.11561 0.88225 0.0
O144 O 0.58712 0.1075 0.92204 0.0
O145 O 0.48717 0.0027 0.94393 0.0
Zn146 Zn 0.5312 0.98555 0.88938 0.0
O147 O 0.61926 0.93716 0.89386 0.0
C148 C 0.40908 0.92919 0.85533 0.0
O149 O 0.37961 0.97996 0.87338 0.0
O150 O 0.55338 0.07143 0.86092 0.0
C151 C 0.62044 0.87479 0.901 0.0
O152 O 0.56461 0.84397 0.91067 0.0
C153 C 0.51522 0.9907 0.97799 0.0
O154 O 0.57633 0.9667 0.97882 0.0
O155 O 0.47233 0.92458 0.85621 0.0
C156 C 0.62904 0.16176 0.86197 0.0
O157 O 0.6371 0.15757 0.82217 0.0
O158 O 0.74196 0.25748 0.8003 0.0
Zn159 Zn 0.75912 0.21345 0.85485 0.0
O160 O 0.80751 0.12538 0.85036 0.0
C161 C 0.81548 0.33557 0.88889 0.0
O162 O 0.76471 0.36502 0.87084 0.0
O163 O 0.67324 0.19126 0.8833 0.0
C164 C 0.86987 0.12421 0.84321 0.0
O165 O 0.9007 0.18004 0.83354 0.0
C166 C 0.75395 0.22943 0.76624 0.0
O167 O 0.77794 0.16832 0.76541 0.0
O168 O 0.82008 0.27231 0.88802 0.0
C169 C 0.5829 0.87905 0.61196 0.0
O170 O 0.58709 0.88711 0.57217 0.0
O171 O 0.48718 0.99197 0.55029 0.0
Zn172 Zn 0.53121 0.00913 0.60484 0.0
O173 O 0.61927 0.05752 0.60036 0.0
C174 C 0.40909 0.06547 0.63889 0.0
O175 O 0.37963 0.0147 0.62085 0.0
O176 O 0.55339 0.92325 0.6333 0.0
C177 C 0.62045 0.11988 0.59322 0.0
O178 O 0.56461 0.1507 0.58355 0.0
C179 C 0.51522 0.00396 0.51623 0.0
O180 O 0.57633 0.02796 0.5154 0.0
O181 O 0.47234 0.07009 0.63802 0.0
C182 C 0.8656 0.83291 0.36197 0.0
O183 O 0.85754 0.83709 0.32217 0.0
O184 O 0.75268 0.73718 0.3003 0.0
Zn185 Zn 0.73552 0.78122 0.35485 0.0
O186 O 0.68713 0.86928 0.35036 0.0
C187 C 0.67916 0.6591 0.38889 0.0
O188 O 0.72993 0.62965 0.37084 0.0
O189 O 0.8214 0.80341 0.3833 0.0
C190 C 0.62477 0.87045 0.34321 0.0
O191 O 0.59394 0.81462 0.33354 0.0
C192 C 0.74069 0.76523 0.26624 0.0
O193 O 0.71671 0.82635 0.26541 0.0
O194 O 0.67456 0.72235 0.38802 0.0
C195 C 0.91174 0.11562 0.11196 0.0
O196 O 0.90755 0.10756 0.07217 0.0
O197 O 0.00746 0.0027 0.05029 0.0
Zn198 Zn 0.96343 0.98554 0.10484 0.0
O199 O 0.87537 0.93715 0.10036 0.0
C200 C 0.08555 0.92919 0.13889 0.0
O201 O 0.11502 0.97997 0.12085 0.0
O202 O 0.94125 0.07142 0.1333 0.0
C203 C 0.87419 0.87478 0.09321 0.0
O204 O 0.93003 0.84396 0.08355 0.0
C205 C 0.97942 0.9907 0.01623 0.0
O206 O 0.91831 0.96671 0.0154 0.0
O207 O 0.0223 0.92458 0.13802 0.0
C208 C 0.8656 0.66174 0.86197 0.0
O209 O 0.8575 0.65754 0.82218 0.0
O210 O 0.75269 0.75748 0.80029 0.0
Zn211 Zn 0.73553 0.71346 0.85484 0.0
O212 O 0.68715 0.62539 0.85036 0.0
C213 C 0.67918 0.83558 0.88889 0.0
O214 O 0.72994 0.86504 0.87084 0.0
O215 O 0.82141 0.69128 0.8833 0.0
C216 C 0.62479 0.62421 0.84322 0.0
O217 O 0.59396 0.68004 0.83355 0.0
C218 C 0.74069 0.72943 0.76623 0.0
O219 O 0.71669 0.66832 0.7654 0.0
O220 O 0.67457 0.77232 0.88801 0.0
C221 C 0.58291 0.61562 0.11198 0.0
O222 O 0.58711 0.60751 0.07219 0.0
O223 O 0.48717 0.5027 0.0503 0.0
Zn224 Zn 0.53119 0.48555 0.10485 0.0
O225 O 0.61926 0.43716 0.10037 0.0
C226 C 0.40908 0.42918 0.13889 0.0
O227 O 0.37962 0.47994 0.12083 0.0
O228 O 0.55337 0.57143 0.13331 0.0
C229 C 0.62043 0.3748 0.09322 0.0
O230 O 0.56461 0.34396 0.08354 0.0
C231 C 0.51522 0.49071 0.01624 0.0
O232 O 0.57633 0.46672 0.01541 0.0
O233 O 0.47233 0.42458 0.13802 0.0
C234 C 0.62904 0.33292 0.36197 0.0
O235 O 0.63714 0.33712 0.32218 0.0
O236 O 0.74195 0.23718 0.30029 0.0
Zn237 Zn 0.75911 0.28121 0.35485 0.0
O238 O 0.80749 0.36928 0.35036 0.0
C239 C 0.81546 0.15909 0.38889 0.0
O240 O 0.7647 0.12962 0.37084 0.0
O241 O 0.67323 0.30339 0.3833 0.0
C242 C 0.86985 0.37046 0.34322 0.0
O243 O 0.90068 0.31462 0.33355 0.0
C244 C 0.75395 0.26523 0.26623 0.0
O245 O 0.77794 0.32635 0.26541 0.0
O246 O 0.82007 0.22235 0.38802 0.0
C247 C 0.91173 0.37905 0.61198 0.0
O248 O 0.90753 0.38716 0.57219 0.0
O249 O 0.00747 0.49196 0.5503 0.0
Zn250 Zn 0.96345 0.50912 0.60485 0.0
O251 O 0.87538 0.55751 0.60037 0.0
C252 C 0.08557 0.56549 0.63889 0.0
O253 O 0.11502 0.51472 0.62083 0.0
O254 O 0.94127 0.42324 0.63331 0.0
C255 C 0.87421 0.61987 0.59322 0.0
O256 O 0.93003 0.6507 0.58354 0.0
C257 C 0.97942 0.50396 0.51624 0.0
O258 O 0.91831 0.52795 0.51541 0.0
O259 O 0.02231 0.57009 0.63802 0.0
C260 C 0.86561 0.33291 0.63226 0.0
O261 O 0.85755 0.33709 0.67205 0.0
O262 O 0.75268 0.23719 0.69393 0.0
Zn263 Zn 0.73553 0.28122 0.63938 0.0
O264 O 0.68714 0.36929 0.64387 0.0
C265 C 0.67918 0.1591 0.60533 0.0
O266 O 0.72995 0.12964 0.62337 0.0
O267 O 0.82141 0.30341 0.61093 0.0
C268 C 0.62478 0.37046 0.65101 0.0
O269 O 0.59396 0.31463 0.66067 0.0
C270 C 0.74069 0.26524 0.72799 0.0
O271 O 0.7167 0.32635 0.72882 0.0
O272 O 0.67456 0.22236 0.60621 0.0
C273 C 0.91175 0.61562 0.88225 0.0
O274 O 0.90756 0.60756 0.92205 0.0
O275 O 0.00747 0.5027 0.94392 0.0
Zn276 Zn 0.96344 0.48554 0.88937 0.0
O277 O 0.87538 0.43715 0.89386 0.0
C278 C 0.08555 0.42918 0.85533 0.0
O279 O 0.11501 0.47995 0.87339 0.0
O280 O 0.94125 0.57142 0.86092 0.0
C281 C 0.87421 0.37479 0.90101 0.0
O282 O 0.93003 0.34396 0.91068 0.0
C283 C 0.97942 0.49071 0.97798 0.0
O284 O 0.91831 0.46672 0.97881 0.0
O285 O 0.0223 0.42458 0.8562 0.0
C286 C 0.62903 0.66176 0.13226 0.0
O287 O 0.63709 0.65758 0.17205 0.0
O288 O 0.74196 0.75748 0.19393 0.0
Zn289 Zn 0.75911 0.71345 0.13938 0.0
O290 O 0.8075 0.62538 0.14387 0.0
C291 C 0.81546 0.83556 0.10533 0.0
O292 O 0.76469 0.86503 0.12337 0.0
O293 O 0.67323 0.69126 0.11093 0.0
C294 C 0.86986 0.6242 0.15101 0.0
O295 O 0.90068 0.68004 0.16067 0.0
C296 C 0.75395 0.72943 0.22799 0.0
O297 O 0.77793 0.66831 0.22882 0.0
O298 O 0.82008 0.77231 0.10621 0.0
C299 C 0.58289 0.37904 0.38225 0.0
O300 O 0.58708 0.38711 0.42205 0.0
O301 O 0.48717 0.49197 0.44392 0.0
Zn302 Zn 0.5312 0.50912 0.38937 0.0
O303 O 0.61926 0.55751 0.39386 0.0
C304 C 0.40909 0.56549 0.35533 0.0
O305 O 0.37963 0.51472 0.37338 0.0
O306 O 0.55339 0.42324 0.36092 0.0
C307 C 0.62043 0.61988 0.40101 0.0
O308 O 0.56461 0.65071 0.41069 0.0
C309 C 0.51522 0.50396 0.47798 0.0
O310 O 0.57633 0.52794 0.47881 0.0
O311 O 0.47234 0.57009 0.3562 0.0
C312 C 0.12904 0.33293 0.13224 0.0
O313 O 0.13714 0.33712 0.17203 0.0
O314 O 0.24194 0.23719 0.19393 0.0
Zn315 Zn 0.2591 0.28121 0.13937 0.0
O316 O 0.30749 0.36927 0.14386 0.0
C317 C 0.31546 0.15909 0.10533 0.0
O318 O 0.2647 0.12962 0.12338 0.0
O319 O 0.17323 0.30339 0.11092 0.0
C320 C 0.36985 0.37045 0.15101 0.0
O321 O 0.40069 0.31462 0.16068 0.0
C322 C 0.25394 0.26523 0.22799 0.0
O323 O 0.27794 0.32634 0.22881 0.0
O324 O 0.32007 0.22234 0.1062 0.0
C325 C 0.41173 0.37905 0.88225 0.0
O326 O 0.40753 0.38716 0.92204 0.0
O327 O 0.50747 0.49197 0.94393 0.0
Zn328 Zn 0.46345 0.50912 0.88938 0.0
O329 O 0.37538 0.55751 0.89386 0.0
C330 C 0.58557 0.56547 0.85533 0.0
O331 O 0.61503 0.51471 0.87338 0.0
O332 O 0.44127 0.42324 0.86092 0.0
C333 C 0.37421 0.61987 0.90101 0.0
O334 O 0.43003 0.65071 0.91068 0.0
C335 C 0.47942 0.50396 0.97799 0.0
O336 O 0.41831 0.52795 0.97882 0.0
O337 O 0.52231 0.57009 0.85621 0.0
C338 C 0.3656 0.66174 0.63224 0.0
O339 O 0.3575 0.65755 0.67204 0.0
O340 O 0.25269 0.75748 0.69393 0.0
Zn341 Zn 0.23554 0.71346 0.63937 0.0
O342 O 0.18715 0.62539 0.64385 0.0
C343 C 0.17918 0.83558 0.60533 0.0
O344 O 0.22994 0.86505 0.62338 0.0
O345 O 0.32142 0.69128 0.61092 0.0
C346 C 0.12479 0.62422 0.65101 0.0
O347 O 0.09395 0.68005 0.66068 0.0
C348 C 0.2407 0.72943 0.72798 0.0
O349 O 0.21671 0.66832 0.72881 0.0
O350 O 0.17457 0.77233 0.6062 0.0
C351 C 0.08291 0.61561 0.38225 0.0
O352 O 0.08711 0.6075 0.42204 0.0
O353 O 0.98717 0.5027 0.44393 0.0
Zn354 Zn 0.03119 0.48555 0.38938 0.0
O355 O 0.11926 0.43715 0.39386 0.0
C356 C 0.90907 0.42919 0.35533 0.0
O357 O 0.87961 0.47996 0.37338 0.0
O358 O 0.05337 0.57143 0.36092 0.0
C359 C 0.12043 0.37479 0.40101 0.0
O360 O 0.06461 0.34396 0.41068 0.0
C361 C 0.01522 0.4907 0.47799 0.0
O362 O 0.07633 0.46671 0.47882 0.0
O363 O 0.97233 0.42458 0.35621 0.0
C364 C 0.12903 0.66176 0.36197 0.0
O365 O 0.13709 0.65757 0.32217 0.0
O366 O 0.24195 0.75748 0.3003 0.0
Zn367 Zn 0.25911 0.71345 0.35485 0.0
O368 O 0.3075 0.62538 0.35036 0.0
C369 C 0.31546 0.83557 0.38889 0.0
O370 O 0.26469 0.86503 0.37085 0.0
O371 O 0.17323 0.69126 0.3833 0.0
C372 C 0.36986 0.62421 0.34321 0.0
O373 O 0.40069 0.68004 0.33354 0.0
C374 C 0.25394 0.72943 0.26624 0.0
O375 O 0.27793 0.66832 0.2654 0.0
O376 O 0.32007 0.77231 0.38802 0.0
C377 C 0.0829 0.37905 0.11196 0.0
O378 O 0.08708 0.38711 0.07217 0.0
O379 O 0.98717 0.49197 0.05029 0.0
Zn380 Zn 0.0312 0.50912 0.10484 0.0
O381 O 0.11926 0.55752 0.10036 0.0
C382 C 0.90908 0.56547 0.13889 0.0
O383 O 0.87962 0.5147 0.12085 0.0
O384 O 0.05339 0.42324 0.1333 0.0
C385 C 0.12043 0.61988 0.09321 0.0
O386 O 0.06461 0.65071 0.08354 0.0
C387 C 0.01522 0.50396 0.01623 0.0
O388 O 0.07633 0.52795 0.0154 0.0
O389 O 0.97234 0.57009 0.13802 0.0
C390 C 0.36561 0.33291 0.86197 0.0
O391 O 0.35755 0.33709 0.82217 0.0
O392 O 0.25269 0.23719 0.8003 0.0
Zn393 Zn 0.23553 0.28122 0.85485 0.0
O394 O 0.18714 0.36928 0.85036 0.0
C395 C 0.17918 0.1591 0.88889 0.0
O396 O 0.22995 0.12963 0.87085 0.0
O397 O 0.32141 0.3034 0.8833 0.0
C398 C 0.12478 0.37045 0.84321 0.0
O399 O 0.09395 0.31462 0.83354 0.0
C400 C 0.2407 0.26524 0.76624 0.0
O401 O 0.21672 0.32635 0.76541 0.0
O402 O 0.17457 0.22235 0.88802 0.0
C403 C 0.41175 0.61562 0.61196 0.0
O404 O 0.40756 0.60756 0.57217 0.0
O405 O 0.50747 0.5027 0.55029 0.0
Zn406 Zn 0.46344 0.48554 0.60484 0.0
O407 O 0.37538 0.43715 0.60036 0.0
C408 C 0.58556 0.4292 0.63889 0.0
O409 O 0.61502 0.47997 0.62085 0.0
O410 O 0.44125 0.57142 0.6333 0.0
C411 C 0.37421 0.37478 0.59321 0.0
O412 O 0.43003 0.34395 0.58354 0.0
C413 C 0.47942 0.4907 0.51623 0.0
O414 O 0.4183 0.46672 0.5154 0.0
O415 O 0.5223 0.42458 0.63802 0.0
loop_
_geom_bond_atom_site_label_1
_geom_bond_atom_site_label_2
_geom_bond_distance
_geom_bond_site_symmetry_2
_ccdc_geom_bond_type
C0 O1 1.160 . S
C0 O7 1.185 . S
O1 C0 1.160 . S
O2 Zn3 1.899 . S
O2 C10 1.284 . S
Zn3 O2 1.899 . S
Zn3 O4 2.032 . S
Zn3 O7 2.086 . S
Zn3 O12 1.977 . S
O4 Zn3 2.032 . S
O4 C8 1.278 . S
C5 O6 1.203 . S
C5 O12 1.267 . S
O6 C5 1.203 . S
O7 C0 1.185 . S
O7 Zn3 2.086 . S
C8 O4 1.278 . S
C8 O9 1.211 . S
O9 C8 1.211 . S
C10 O2 1.284 . S
C10 O11 1.273 . S
O11 C10 1.273 . S
O12 Zn3 1.977 . S
O12 C5 1.267 . S
C13 O14 1.160 . S
C13 O20 1.185 . S
O14 C13 1.160 . S
O15 Zn16 1.899 1_545 S
O15 C23 1.284 1_545 S
Zn16 O15 1.899 1_565 S
Zn16 O17 2.032 . S
Zn16 O20 2.086 1_565 S
Zn16 O25 1.977 1_455 S
O17 Zn16 2.032 . S
O17 C21 1.278 . S
C18 O19 1.203 . S
C18 O25 1.267 . S
O19 C18 1.203 . S
O20 C13 1.185 . S
O20 Zn16 2.086 1_545 S
C21 O17 1.278 . S
C21 O22 1.211 . S
O22 C21 1.211 . S
C23 O15 1.284 1_565 S
C23 O24 1.273 . S
O24 C23 1.273 . S
O25 Zn16 1.977 1_655 S
O25 C18 1.267 . S
C26 O27 1.160 . S
C26 O33 1.185 . S
O27 C26 1.160 . S
O28 Zn29 1.899 . S
O28 C36 1.284 . S
Zn29 O28 1.899 . S
Zn29 O30 2.032 . S
Zn29 O33 2.086 . S
Zn29 O38 1.977 . S
O30 Zn29 2.032 . S
O30 C34 1.278 . S
C31 O32 1.203 . S
C31 O38 1.267 . S
O32 C31 1.203 . S
O33 C26 1.185 . S
O33 Zn29 2.086 . S
C34 O30 1.278 . S
C34 O35 1.211 . S
O35 C34 1.211 . S
C36 O28 1.284 . S
C36 O37 1.273 . S
O37 C36 1.273 . S
O38 Zn29 1.977 . S
O38 C31 1.267 . S
C39 O40 1.160 . S
C39 O46 1.185 . S
O40 C39 1.160 . S
O41 Zn42 1.899 1_565 S
O41 C49 1.284 1_565 S
Zn42 O41 1.899 1_545 S
Zn42 O43 2.032 . S
Zn42 O46 2.086 1_545 S
Zn42 O51 1.977 . S
O43 Zn42 2.032 . S
O43 C47 1.278 . S
C44 O45 1.203 . S
C44 O51 1.267 . S
O45 C44 1.203 . S
O46 C39 1.185 . S
O46 Zn42 2.086 1_565 S
C47 O43 1.278 . S
C47 O48 1.211 . S
O48 C47 1.211 . S
C49 O41 1.284 1_545 S
C49 O50 1.273 . S
O50 C49 1.273 . S
O51 Zn42 1.977 . S
O51 C44 1.267 . S
C52 O53 1.160 . S
C52 O59 1.185 . S
O53 C52 1.160 . S
O54 Zn55 1.899 . S
O54 C62 1.284 . S
Zn55 O54 1.899 . S
Zn55 O56 2.032 . S
Zn55 O59 2.086 . S
Zn55 O64 1.977 . S
O56 Zn55 2.032 . S
O56 C60 1.278 . S
C57 O58 1.203 . S
C57 O64 1.267 . S
O58 C57 1.203 . S
O59 C52 1.185 . S
O59 Zn55 2.086 . S
C60 O56 1.278 . S
C60 O61 1.211 . S
O61 C60 1.211 . S
C62 O54 1.284 . S
C62 O63 1.273 . S
O63 C62 1.273 . S
O64 Zn55 1.977 . S
O64 C57 1.267 . S
C65 O66 1.160 . S
C65 O72 1.185 . S
O66 C65 1.160 . S
O67 Zn68 1.899 1_545 S
O67 C75 1.284 1_545 S
Zn68 O67 1.899 1_565 S
Zn68 O69 2.032 . S
Zn68 O72 2.086 1_565 S
Zn68 O77 1.977 . S
O69 Zn68 2.032 . S
O69 C73 1.278 . S
C70 O71 1.203 . S
C70 O77 1.267 . S
O71 C70 1.203 . S
O72 C65 1.185 . S
O72 Zn68 2.086 1_545 S
C73 O69 1.278 . S
C73 O74 1.211 . S
O74 C73 1.211 . S
C75 O67 1.284 1_565 S
C75 O76 1.273 . S
O76 C75 1.273 . S
O77 Zn68 1.977 . S
O77 C70 1.267 . S
C78 O79 1.160 . S
C78 O85 1.185 . S
O79 C78 1.160 . S
O80 Zn81 1.899 . S
O80 C88 1.284 . S
Zn81 O80 1.899 . S
Zn81 O82 2.032 . S
Zn81 O85 2.086 . S
Zn81 O90 1.977 . S
O82 Zn81 2.032 . S
O82 C86 1.278 . S
C83 O84 1.203 . S
C83 O90 1.267 . S
O84 C83 1.203 . S
O85 C78 1.185 . S
O85 Zn81 2.086 . S
C86 O82 1.278 . S
C86 O87 1.211 . S
O87 C86 1.211 . S
C88 O80 1.284 . S
C88 O89 1.273 . S
O89 C88 1.273 . S
O90 Zn81 1.977 . S
O90 C83 1.267 . S
C91 O92 1.160 . S
C91 O98 1.185 . S
O92 C91 1.160 . S
O93 Zn94 1.899 1_565 S
O93 C101 1.284 1_565 S
Zn94 O93 1.899 1_545 S
Zn94 O95 2.032 . S
Zn94 O98 2.086 1_545 S
Zn94 O103 1.977 1_455 S
O95 Zn94 2.032 . S
O95 C99 1.278 . S
C96 O97 1.203 . S
C96 O103 1.267 . S
O97 C96 1.203 . S
O98 C91 1.185 . S
O98 Zn94 2.086 1_565 S
C99 O95 1.278 . S
C99 O100 1.211 . S
O100 C99 1.211 . S
C101 O93 1.284 1_545 S
C101 O102 1.273 . S
O102 C101 1.273 . S
O103 Zn94 1.977 1_655 S
O103 C96 1.267 . S
C104 O105 1.160 . S
C104 O111 1.185 . S
O105 C104 1.160 . S
O106 Zn107 1.899 . S
O106 C114 1.284 . S
Zn107 O106 1.899 . S
Zn107 O108 2.032 . S
Zn107 O111 2.086 . S
Zn107 O116 1.977 . S
O108 Zn107 2.032 . S
O108 C112 1.278 . S
C109 O110 1.203 . S
C109 O116 1.267 . S
O110 C109 1.203 . S
O111 C104 1.185 . S
O111 Zn107 2.086 . S
C112 O108 1.278 . S
C112 O113 1.211 . S
O113 C112 1.211 . S
C114 O106 1.284 . S
C114 O115 1.273 . S
O115 C114 1.273 . S
O116 Zn107 1.977 . S
O116 C109 1.267 . S
C117 O118 1.160 . S
C117 O124 1.185 . S
O118 C117 1.160 . S
O119 Zn120 1.899 1_565 S
O119 C127 1.284 1_565 S
Zn120 O119 1.899 1_545 S
Zn120 O121 2.032 . S
Zn120 O124 2.086 1_545 S
Zn120 O129 1.977 1_655 S
O121 Zn120 2.032 . S
O121 C125 1.278 . S
C122 O123 1.203 . S
C122 O129 1.267 . S
O123 C122 1.203 . S
O124 C117 1.185 . S
O124 Zn120 2.086 1_565 S
C125 O121 1.278 . S
C125 O126 1.211 . S
O126 C125 1.211 . S
C127 O119 1.284 1_545 S
C127 O128 1.273 . S
O128 C127 1.273 . S
O129 Zn120 1.977 1_455 S
O129 C122 1.267 . S
C130 O131 1.160 . S
C130 O137 1.185 . S
O131 C130 1.160 . S
O132 Zn133 1.899 . S
O132 C140 1.284 . S
Zn133 O132 1.899 . S
Zn133 O134 2.032 . S
Zn133 O137 2.086 . S
Zn133 O142 1.977 . S
O134 Zn133 2.032 . S
O134 C138 1.278 . S
C135 O136 1.203 . S
C135 O142 1.267 . S
O136 C135 1.203 . S
O137 C130 1.185 . S
O137 Zn133 2.086 . S
C138 O134 1.278 . S
C138 O139 1.211 . S
O139 C138 1.211 . S
C140 O132 1.284 . S
C140 O141 1.273 . S
O141 C140 1.273 . S
O142 Zn133 1.977 . S
O142 C135 1.267 . S
C143 O144 1.160 . S
C143 O150 1.185 . S
O144 C143 1.160 . S
O145 Zn146 1.899 1_545 S
O145 C153 1.284 1_545 S
Zn146 O145 1.899 1_565 S
Zn146 O147 2.032 . S
Zn146 O150 2.086 1_565 S
Zn146 O155 1.977 . S
O147 Zn146 2.032 . S
O147 C151 1.278 . S
C148 O149 1.203 . S
C148 O155 1.267 . S
O149 C148 1.203 . S
O150 C143 1.185 . S
O150 Zn146 2.086 1_545 S
C151 O147 1.278 . S
C151 O152 1.211 . S
O152 C151 1.211 . S
C153 O145 1.284 1_565 S
C153 O154 1.273 . S
O154 C153 1.273 . S
O155 Zn146 1.977 . S
O155 C148 1.267 . S
C156 O157 1.160 . S
C156 O163 1.185 . S
O157 C156 1.160 . S
O158 Zn159 1.899 . S
O158 C166 1.284 . S
Zn159 O158 1.899 . S
Zn159 O160 2.032 . S
Zn159 O163 2.086 . S
Zn159 O168 1.977 . S
O160 Zn159 2.032 . S
O160 C164 1.278 . S
C161 O162 1.203 . S
C161 O168 1.267 . S
O162 C161 1.203 . S
O163 C156 1.185 . S
O163 Zn159 2.086 . S
C164 O160 1.278 . S
C164 O165 1.211 . S
O165 C164 1.211 . S
C166 O158 1.284 . S
C166 O167 1.273 . S
O167 C166 1.273 . S
O168 Zn159 1.977 . S
O168 C161 1.267 . S
C169 O170 1.160 . S
C169 O176 1.185 . S
O170 C169 1.160 . S
O171 Zn172 1.899 1_565 S
O171 C179 1.284 1_565 S
Zn172 O171 1.899 1_545 S
Zn172 O173 2.032 . S
Zn172 O176 2.086 1_545 S
Zn172 O181 1.977 . S
O173 Zn172 2.032 . S
O173 C177 1.278 . S
C174 O175 1.203 . S
C174 O181 1.267 . S
O175 C174 1.203 . S
O176 C169 1.185 . S
O176 Zn172 2.086 1_565 S
C177 O173 1.278 . S
C177 O178 1.211 . S
O178 C177 1.211 . S
C179 O171 1.284 1_545 S
C179 O180 1.273 . S
O180 C179 1.273 . S
O181 Zn172 1.977 . S
O181 C174 1.267 . S
C182 O183 1.160 . S
C182 O189 1.185 . S
O183 C182 1.160 . S
O184 Zn185 1.899 . S
O184 C192 1.284 . S
Zn185 O184 1.899 . S
Zn185 O186 2.032 . S
Zn185 O189 2.086 . S
Zn185 O194 1.977 . S
O186 Zn185 2.032 . S
O186 C190 1.278 . S
C187 O188 1.203 . S
C187 O194 1.267 . S
O188 C187 1.203 . S
O189 C182 1.185 . S
O189 Zn185 2.086 . S
C190 O186 1.278 . S
C190 O191 1.211 . S
O191 C190 1.211 . S
C192 O184 1.284 . S
C192 O193 1.273 . S
O193 C192 1.273 . S
O194 Zn185 1.977 . S
O194 C187 1.267 . S
C195 O196 1.160 . S
C195 O202 1.185 . S
O196 C195 1.160 . S
O197 Zn198 1.899 1_545 S
O197 C205 1.284 1_545 S
Zn198 O197 1.899 1_565 S
Zn198 O199 2.032 . S
Zn198 O202 2.086 1_565 S
Zn198 O207 1.977 1_655 S
O199 Zn198 2.032 . S
O199 C203 1.278 . S
C200 O201 1.203 . S
C200 O207 1.267 . S
O201 C200 1.203 . S
O202 C195 1.185 . S
O202 Zn198 2.086 1_545 S
C203 O199 1.278 . S
C203 O204 1.211 . S
O204 C203 1.211 . S
C205 O197 1.284 1_565 S
C205 O206 1.273 . S
O206 C205 1.273 . S
O207 Zn198 1.977 1_455 S
O207 C200 1.267 . S
C208 O209 1.160 . S
C208 O215 1.185 . S
O209 C208 1.160 . S
O210 Zn211 1.899 . S
O210 C218 1.284 . S
Zn211 O210 1.899 . S
Zn211 O212 2.032 . S
Zn211 O215 2.086 . S
Zn211 O220 1.977 . S
O212 Zn211 2.032 . S
O212 C216 1.278 . S
C213 O214 1.203 . S
C213 O220 1.267 . S
O214 C213 1.203 . S
O215 C208 1.185 . S
O215 Zn211 2.086 . S
C216 O212 1.278 . S
C216 O217 1.211 . S
O217 C216 1.211 . S
C218 O210 1.284 . S
C218 O219 1.273 . S
O219 C218 1.273 . S
O220 Zn211 1.977 . S
O220 C213 1.267 . S
C221 O222 1.160 . S
C221 O228 1.185 . S
O222 C221 1.160 . S
O223 Zn224 1.899 . S
O223 C231 1.284 . S
Zn224 O223 1.899 . S
Zn224 O225 2.032 . S
Zn224 O228 2.086 . S
Zn224 O233 1.977 . S
O225 Zn224 2.032 . S
O225 C229 1.278 . S
C226 O227 1.203 . S
C226 O233 1.267 . S
O227 C226 1.203 . S
O228 C221 1.185 . S
O228 Zn224 2.086 . S
C229 O225 1.278 . S
C229 O230 1.211 . S
O230 C229 1.211 . S
C231 O223 1.284 . S
C231 O232 1.273 . S
O232 C231 1.273 . S
O233 Zn224 1.977 . S
O233 C226 1.267 . S
C234 O235 1.160 . S
C234 O241 1.185 . S
O235 C234 1.160 . S
O236 Zn237 1.899 . S
O236 C244 1.284 . S
Zn237 O236 1.899 . S
Zn237 O238 2.032 . S
Zn237 O241 2.086 . S
Zn237 O246 1.977 . S
O238 Zn237 2.032 . S
O238 C242 1.278 . S
C239 O240 1.203 . S
C239 O246 1.267 . S
O240 C239 1.203 . S
O241 C234 1.185 . S
O241 Zn237 2.086 . S
C242 O238 1.278 . S
C242 O243 1.211 . S
O243 C242 1.211 . S
C244 O236 1.284 . S
C244 O245 1.273 . S
O245 C244 1.273 . S
O246 Zn237 1.977 . S
O246 C239 1.267 . S
C247 O248 1.160 . S
C247 O254 1.185 . S
O248 C247 1.160 . S
O249 Zn250 1.899 . S
O249 C257 1.284 . S
Zn250 O249 1.899 . S
Zn250 O251 2.032 . S
Zn250 O254 2.086 . S
Zn250 O259 1.977 1_655 S
O251 Zn250 2.032 . S
O251 C255 1.278 . S
C252 O253 1.203 . S
C252 O259 1.267 . S
O253 C252 1.203 . S
O254 C247 1.185 . S
O254 Zn250 2.086 . S
C255 O251 1.278 . S
C255 O256 1.211 . S
O256 C255 1.211 . S
C257 O249 1.284 . S
C257 O258 1.273 . S
O258 C257 1.273 . S
O259 Zn250 1.977 1_455 S
O259 C252 1.267 . S
C260 O261 1.160 . S
C260 O267 1.185 . S
O261 C260 1.160 . S
O262 Zn263 1.899 . S
O262 C270 1.284 . S
Zn263 O262 1.899 . S
Zn263 O264 2.032 . S
Zn263 O267 2.086 . S
Zn263 O272 1.977 . S
O264 Zn263 2.032 . S
O264 C268 1.278 . S
C265 O266 1.203 . S
C265 O272 1.267 . S
O266 C265 1.203 . S
O267 C260 1.185 . S
O267 Zn263 2.086 . S
C268 O264 1.278 . S
C268 O269 1.211 . S
O269 C268 1.211 . S
C270 O262 1.284 . S
C270 O271 1.273 . S
O271 C270 1.273 . S
O272 Zn263 1.977 . S
O272 C265 1.267 . S
C273 O274 1.160 . S
C273 O280 1.185 . S
O274 C273 1.160 . S
O275 Zn276 1.899 . S
O275 C283 1.284 . S
Zn276 O275 1.899 . S
Zn276 O277 2.032 . S
Zn276 O280 2.086 . S
Zn276 O285 1.977 1_655 S
O277 Zn276 2.032 . S
O277 C281 1.278 . S
C278 O279 1.203 . S
C278 O285 1.267 . S
O279 C278 1.203 . S
O280 C273 1.185 . S
O280 Zn276 2.086 . S
C281 O277 1.278 . S
C281 O282 1.211 . S
O282 C281 1.211 . S
C283 O275 1.284 . S
C283 O284 1.273 . S
O284 C283 1.273 . S
O285 Zn276 1.977 1_455 S
O285 C278 1.267 . S
C286 O287 1.160 . S
C286 O293 1.185 . S
O287 C286 1.160 . S
O288 Zn289 1.899 . S
O288 C296 1.284 . S
Zn289 O288 1.899 . S
Zn289 O290 2.032 . S
Zn289 O293 2.086 . S
Zn289 O298 1.977 . S
O290 Zn289 2.032 . S
O290 C294 1.278 . S
C291 O292 1.203 . S
C291 O298 1.267 . S
O292 C291 1.203 . S
O293 C286 1.185 . S
O293 Zn289 2.086 . S
C294 O290 1.278 . S
C294 O295 1.211 . S
O295 C294 1.211 . S
C296 O288 1.284 . S
C296 O297 1.273 . S
O297 C296 1.273 . S
O298 Zn289 1.977 . S
O298 C291 1.267 . S
C299 O300 1.160 . S
C299 O306 1.185 . S
O300 C299 1.160 . S
O301 Zn302 1.899 . S
O301 C309 1.284 . S
Zn302 O301 1.899 . S
Zn302 O303 2.032 . S
Zn302 O306 2.086 . S
Zn302 O311 1.977 . S
O303 Zn302 2.032 . S
O303 C307 1.278 . S
C304 O305 1.203 . S
C304 O311 1.267 . S
O305 C304 1.203 . S
O306 C299 1.185 . S
O306 Zn302 2.086 . S
C307 O303 1.278 . S
C307 O308 1.211 . S
O308 C307 1.211 . S
C309 O301 1.284 . S
C309 O310 1.273 . S
O310 C309 1.273 . S
O311 Zn302 1.977 . S
O311 C304 1.267 . S
C312 O313 1.160 . S
C312 O319 1.185 . S
O313 C312 1.160 . S
O314 Zn315 1.899 . S
O314 C322 1.284 . S
Zn315 O314 1.899 . S
Zn315 O316 2.032 . S
Zn315 O319 2.086 . S
Zn315 O324 1.977 . S
O316 Zn315 2.032 . S
O316 C320 1.278 . S
C317 O318 1.203 . S
C317 O324 1.267 . S
O318 C317 1.203 . S
O319 C312 1.185 . S
O319 Zn315 2.086 . S
C320 O316 1.278 . S
C320 O321 1.211 . S
O321 C320 1.211 . S
C322 O314 1.284 . S
C322 O323 1.273 . S
O323 C322 1.273 . S
O324 Zn315 1.977 . S
O324 C317 1.267 . S
C325 O326 1.160 . S
C325 O332 1.185 . S
O326 C325 1.160 . S
O327 Zn328 1.899 . S
O327 C335 1.284 . S
Zn328 O327 1.899 . S
Zn328 O329 2.032 . S
Zn328 O332 2.086 . S
Zn328 O337 1.977 . S
O329 Zn328 2.032 . S
O329 C333 1.278 . S
C330 O331 1.203 . S
C330 O337 1.267 . S
O331 C330 1.203 . S
O332 C325 1.185 . S
O332 Zn328 2.086 . S
C333 O329 1.278 . S
C333 O334 1.211 . S
O334 C333 1.211 . S
C335 O327 1.284 . S
C335 O336 1.273 . S
O336 C335 1.273 . S
O337 Zn328 1.977 . S
O337 C330 1.267 . S
C338 O339 1.160 . S
C338 O345 1.185 . S
O339 C338 1.160 . S
O340 Zn341 1.899 . S
O340 C348 1.284 . S
Zn341 O340 1.899 . S
Zn341 O342 2.032 . S
Zn341 O345 2.086 . S
Zn341 O350 1.977 . S
O342 Zn341 2.032 . S
O342 C346 1.278 . S
C343 O344 1.203 . S
C343 O350 1.267 . S
O344 C343 1.203 . S
O345 C338 1.185 . S
O345 Zn341 2.086 . S
C346 O342 1.278 . S
C346 O347 1.211 . S
O347 C346 1.211 . S
C348 O340 1.284 . S
C348 O349 1.273 . S
O349 C348 1.273 . S
O350 Zn341 1.977 . S
O350 C343 1.267 . S
C351 O352 1.160 . S
C351 O358 1.185 . S
O352 C351 1.160 . S
O353 Zn354 1.899 . S
O353 C361 1.284 . S
Zn354 O353 1.899 . S
Zn354 O355 2.032 . S
Zn354 O358 2.086 . S
Zn354 O363 1.977 1_455 S
O355 Zn354 2.032 . S
O355 C359 1.278 . S
C356 O357 1.203 . S
C356 O363 1.267 . S
O357 C356 1.203 . S
O358 C351 1.185 . S
O358 Zn354 2.086 . S
C359 O355 1.278 . S
C359 O360 1.211 . S
O360 C359 1.211 . S
C361 O353 1.284 . S
C361 O362 1.273 . S
O362 C361 1.273 . S
O363 Zn354 1.977 1_655 S
O363 C356 1.267 . S
C364 O365 1.160 . S
C364 O371 1.185 . S
O365 C364 1.160 . S
O366 Zn367 1.899 . S
O366 C374 1.284 . S
Zn367 O366 1.899 . S
Zn367 O368 2.032 . S
Zn367 O371 2.086 . S
Zn367 O376 1.977 . S
O368 Zn367 2.032 . S
O368 C372 1.278 . S
C369 O370 1.203 . S
C369 O376 1.267 . S
O370 C369 1.203 . S
O371 C364 1.185 . S
O371 Zn367 2.086 . S
C372 O368 1.278 . S
C372 O373 1.211 . S
O373 C372 1.211 . S
C374 O366 1.284 . S
C374 O375 1.273 . S
O375 C374 1.273 . S
O376 Zn367 1.977 . S
O376 C369 1.267 . S
C377 O378 1.160 . S
C377 O384 1.185 . S
O378 C377 1.160 . S
O379 Zn380 1.899 . S
O379 C387 1.284 . S
Zn380 O379 1.899 . S
Zn380 O381 2.032 . S
Zn380 O384 2.086 . S
Zn380 O389 1.977 1_455 S
O381 Zn380 2.032 . S
O381 C385 1.278 . S
C382 O383 1.203 . S
C382 O389 1.267 . S
O383 C382 1.203 . S
O384 C377 1.185 . S
O384 Zn380 2.086 . S
C385 O381 1.278 . S
C385 O386 1.211 . S
O386 C385 1.211 . S
C387 O379 1.284 . S
C387 O388 1.273 . S
O388 C387 1.273 . S
O389 Zn380 1.977 1_655 S
O389 C382 1.267 . S
C390 O391 1.160 . S
C390 O397 1.185 . S
O391 C390 1.160 . S
O392 Zn393 1.899 . S
O392 C400 1.284 . S
Zn393 O392 1.899 . S
Zn393 O394 2.032 . S
Zn393 O397 2.086 . S
Zn393 O402 1.977 . S
O394 Zn393 2.032 . S
O394 C398 1.278 . S
C395 O396 1.203 . S
C395 O402 1.267 . S
O396 C395 1.203 . S
O397 C390 1.185 . S
O397 Zn393 2.086 . S
C398 O394 1.278 . S
C398 O399 1.211 . S
O399 C398 1.211 . S
C400 O392 1.284 . S
C400 O401 1.273 . S
O401 C400 1.273 . S
O402 Zn393 1.977 . S
O402 C395 1.267 . S
C403 O404 1.160 . S
C403 O410 1.185 . S
O404 C403 1.160 . S
O405 Zn406 1.899 . S
O405 C413 1.284 . S
Zn406 O405 1.899 . S
Zn406 O407 2.032 . S
Zn406 O410 2.086 . S
Zn406 O415 1.977 . S
O407 Zn406 2.032 . S
O407 C411 1.278 . S
C408 O409 1.203 . S
C408 O415 1.267 . S
O409 C408 1.203 . S
O410 C403 1.185 . S
O410 Zn406 2.086 . S
C411 O407 1.278 . S
C411 O412 1.211 . S
O412 C411 1.211 . S
C413 O405 1.284 . S
C413 O414 1.273 . S
O414 C413 1.273 . S
O415 Zn406 1.977 . S
O415 C408 1.267 . S
C359 C5 1.558 . S
C18 C112 1.558 . S
C333 C31 1.558 . S
C44 C138 1.558 . S
C57 C385 1.558 . S
C70 C190 1.558 . S
C83 C411 1.558 . S
C96 C164 1.558 . S
C255 C109 1.558 . S
C8 C122 1.558 . S
C229 C135 1.558 . S
C148 C34 1.558 . S
C281 C161 1.558 . S
C86 C174 1.558 . S
C187 C307 1.558 . S
C60 C200 1.558 . S
C213 C151 1.558 . S
C226 C320 1.558 . S
C125 C239 1.558 . S
C346 C252 1.558 . S
C177 C265 1.558 . S
C398 C278 1.558 . S
C203 C291 1.558 . S
C304 C372 1.558 . S
C47 C317 1.558 . S
C330 C216 1.558 . S
C343 C21 1.558 . S
C356 C242 1.558 . S
C369 C73 1.558 . S
C382 C294 1.558 . S
C395 C99 1.558 . S
C408 C268 1.558 . S
C322 C10 1.641 . S
C23 C127 1.641 1_465 S
C348 C36 1.641 . S
C49 C153 1.641 1_544 S
C374 C62 1.641 . S
C75 C179 1.641 1_565 S
C400 C88 1.641 . S
C101 C205 1.641 1_446 S
C114 C218 1.641 . S
C140 C244 1.641 . S
C166 C270 1.641 . S
C192 C296 1.641 . S
C231 C335 1.641 1_554 S
C361 C257 1.641 1_455 S
C387 C283 1.641 1_454 S
C309 C413 1.641 . S
C0 C65 1.033 . S
C13 C78 1.033 . S
C26 C91 1.033 . S
C52 C39 1.033 . S
C104 C169 1.033 . S
C117 C182 1.033 . S
C130 C195 1.033 . S
C143 C156 1.033 . S
C208 C273 1.033 . S
C286 C221 1.033 . S
C234 C299 1.033 . S
C247 C260 1.033 . S
C377 C312 1.033 . S
C325 C390 1.033 . S
C403 C338 1.033 . S
C351 C364 1.033 . S
