# Generated by pormake.
# Topology sxb, (6)-cn, num edge types: 1
# Building blocks:
#     Node 0, Type 0, BuildingBlock: NUHQIS_clean_sbu_0, # of connection points: 6
#     Node 1, Type 0, BuildingBlock: NUHQIS_clean_sbu_0, # of connection points: 6
#     Node 2, Type 0, BuildingBlock: NUHQIS_clean_sbu_0, # of connection points: 6
#     Node 3, Type 0, BuildingBlock: NUHQIS_clean_sbu_0, # of connection points: 6
#     Edge 4, Type (0, 0), BuildingBlock: TEMPAE_clean_linker_10, # of connection points: 2
#     Edge 5, Type (0, 0), BuildingBlock: TEMPAE_clean_linker_10, # of connection points: 2
#     Edge 6, Type (0, 0), BuildingBlock: TEMPAE_clean_linker_10, # of connection points: 2
#     Edge 7, Type (0, 0), BuildingBlock: TEMPAE_clean_linker_10, # of connection points: 2
#     Edge 8, Type (0, 0), BuildingBlock: TEMPAE_clean_linker_10, # of connection points: 2
#     Edge 9, Type (0, 0), BuildingBlock: TEMPAE_clean_linker_10, # of connection points: 2
#     Edge 10, Type (0, 0), BuildingBlock: TEMPAE_clean_linker_10, # of connection points: 2
#     Edge 11, Type (0, 0), BuildingBlock: TEMPAE_clean_linker_10, # of connection points: 2
#     Edge 12, Type (0, 0), BuildingBlock: TEMPAE_clean_linker_10, # of connection points: 2
#     Edge 13, Type (0, 0), BuildingBlock: TEMPAE_clean_linker_10, # of connection points: 2
#     Edge 14, Type (0, 0), BuildingBlock: TEMPAE_clean_linker_10, # of connection points: 2
#     Edge 15, Type (0, 0), BuildingBlock: TEMPAE_clean_linker_10, # of connection points: 2
# Relax obj value: 0.071
# Max RMSD: 0.162
# Mean RMSD: 0.162
data_MOF--net-sxb--node1-NUHQIS_clean_sbu_0--edge1-TEMPAE_clean_linker_10
_symmetry_space_group_name_H-M    P1
_symmetry_Int_Tables_number       1
_symmetry_cell_setting            triclinic
loop_
_symmetry_equiv_pos_as_xyz
'x, y, z'
_cell_length_a     24.528706
_cell_length_b     17.595965
_cell_length_c     30.763831
_cell_angle_alpha  89.727463
_cell_angle_beta   96.51367
_cell_angle_gamma 90.175204
loop_
_atom_site_label
_atom_site_type_symbol
_atom_site_fract_x
_atom_site_fract_y
_atom_site_fract_z
_atom_type_partial_charge
Tb0 Tb 0.99472 0.901 0.0031 0.0
Eu1 Eu 0.09148 0.03609 0.00932 0.0
C2 C 0.04121 0.96509 0.92088 0.0
C3 C 0.11781 0.86036 0.01286 0.0
C4 C 0.85224 0.83743 -0.00181 0.0
C5 C 0.75622 0.83171 0.96726 0.0
C6 C 0.81082 0.80767 0.96771 0.0
C7 C 0.83796 0.89197 0.02817 0.0
C8 C 0.78351 0.916 0.02773 0.0
C9 C 0.74179 0.88668 -0.00288 0.0
C10 C 0.91053 0.81677 -0.00398 0.0
O11 O 1.02784 0.9117 0.07183 0.0
O12 O 0.05501 0.03718 0.0731 0.0
O13 O 1.01105 0.09614 0.98987 0.0
O14 O 0.95809 0.00589 0.01976 0.0
C15 C 0.04001 0.97557 0.09317 0.0
O16 O 0.16209 0.09058 0.04659 0.0
O17 O 0.14158 0.11907 0.97832 0.0
O18 O 0.08807 -0.02273 0.94461 0.0
O19 O 0.99634 0.95569 0.93971 0.0
O20 O 0.0697 0.84135 -0.00752 0.0
O21 O 0.12483 0.92455 0.03393 0.0
C22 C 0.96439 0.07338 0.003 0.0
O23 O 0.93232 0.84455 0.96273 0.0
O24 O 0.9439 0.82322 0.03194 0.0
C25 C 0.23597 0.10602 0.00462 0.0
C26 C 0.34642 0.06475 -0.0032 0.0
C27 C 0.33417 0.13004 0.02032 0.0
C28 C 0.27958 0.1504 0.02412 0.0
C29 C 0.24779 0.04178 0.98047 0.0
C30 C 0.30221 0.02181 0.9763 0.0
C31 C 0.17868 0.12306 0.01224 0.0
H32 H 0.72526 0.80686 0.94363 0.0
H33 H 0.82079 0.76614 0.94397 0.0
H34 H 0.86907 0.91722 0.05154 0.0
H35 H 0.77435 0.95889 0.05088 0.0
H36 H 0.3667 0.16436 0.03701 0.0
H37 H 0.27148 0.19993 0.04315 0.0
H38 H 0.21489 0.00621 0.96534 0.0
H39 H 0.30947 0.97232 0.95709 0.0
Tb40 Tb 0.07174 0.92428 0.50985 0.0
Eu41 Eu 0.97401 0.05777 0.50109 0.0
C42 C 1.02282 -0.0163 0.592 0.0
C43 C 0.94738 0.88028 0.49993 0.0
C44 C 0.21467 0.86051 0.51449 0.0
C45 C 0.29493 0.93784 0.53882 0.0
C46 C 0.24034 0.91735 0.54169 0.0
C47 C 0.24495 0.82481 0.48432 0.0
C48 C 0.29961 0.84581 0.48118 0.0
C49 C 0.32522 0.90279 0.50836 0.0
C50 C 0.15595 0.84101 0.51603 0.0
O51 O 0.06908 -0.02311 0.44565 0.0
O52 O 0.97768 0.00307 0.43552 0.0
O53 O 0.05194 0.11814 0.48931 0.0
O54 O 0.10651 0.03303 0.53065 0.0
C55 C 1.02384 -0.01131 0.41955 0.0
O56 O 0.90957 0.11971 0.46048 0.0
O57 O 0.91932 0.13535 0.53049 0.0
O58 O 1.01042 0.04822 0.5715 0.0
O59 O 0.03459 0.92248 0.57062 0.0
O60 O 0.99635 0.86129 0.49 0.0
O61 O 0.93634 0.94686 0.51544 0.0
C62 C 0.1 0.0968 0.5086 0.0
O63 O 0.13345 0.86614 0.54955 0.0
O64 O 0.12358 0.85024 0.47977 0.0
C65 C 0.82868 0.12376 0.49507 0.0
C66 C 0.71748 0.07799 0.49329 0.0
C67 C 0.73208 0.14069 0.46834 0.0
C68 C 0.78719 0.16297 0.46902 0.0
C69 C 0.81424 0.06119 0.51997 0.0
C70 C 0.75939 0.03872 0.51917 0.0
C71 C 0.88709 0.14444 0.49408 0.0
H72 H 0.31301 -0.0173 0.55976 0.0
H73 H 0.21806 0.94705 0.56485 0.0
H74 H 0.22606 0.78132 0.46278 0.0
H75 H 0.32189 0.81728 0.45758 0.0
H76 H 0.70104 0.17173 0.44764 0.0
H77 H 0.79742 0.21061 0.449 0.0
H78 H 0.84547 0.02912 0.53987 0.0
H79 H 0.74981 -0.00928 0.53914 0.0
Tb80 Tb 0.48943 0.398 0.97531 0.0
Eu81 Eu 0.58726 0.53187 0.9851 0.0
C82 C 0.53753 0.46571 0.89531 0.0
C83 C 0.61189 0.35732 0.98799 0.0
C84 C 0.34837 0.33014 0.97296 0.0
C85 C 0.25058 0.31907 0.94885 0.0
C86 C 0.30482 0.29543 0.94678 0.0
C87 C 0.33661 0.3877 0.00203 0.0
C88 C 0.28249 0.41126 0.00416 0.0
C89 C 0.23877 0.37812 0.97712 0.0
C90 C 0.40591 0.31243 0.9665 0.0
O91 O 0.51666 0.40871 0.0453 0.0
O92 O 0.55184 0.53086 0.04914 0.0
O93 O 0.50779 0.59644 0.97061 0.0
O94 O 0.45224 0.50133 -0.00647 0.0
C95 C 0.53274 0.47029 0.06766 0.0
O96 O 0.65764 0.58273 0.02446 0.0
O97 O 0.64059 0.61324 0.95614 0.0
O98 O 0.5843 0.47497 0.91959 0.0
O99 O 0.49206 0.45763 0.91339 0.0
O100 O 0.56516 0.33922 0.96515 0.0
O101 O 0.6162 0.41944 0.01099 0.0
C102 C 0.46099 0.57214 0.98291 0.0
O103 O 0.42456 0.34848 0.93424 0.0
O104 O 0.44168 0.31284 0.00123 0.0
C105 C 0.73399 0.59788 0.98535 0.0
C106 C 0.84493 0.55679 0.98024 0.0
C107 C 0.83177 0.61866 0.00602 0.0
C108 C 0.77691 0.63872 0.00864 0.0
C109 C 0.74681 0.53642 0.95938 0.0
C110 C 0.80157 0.51634 0.95669 0.0
C111 C 0.67625 0.61556 -0.00893 0.0
H112 H 0.21786 0.29146 0.92807 0.0
H113 H 0.31287 0.25116 0.92402 0.0
H114 H 0.36943 0.41598 0.02234 0.0
H115 H 0.27507 0.4572 0.026 0.0
H116 H 0.86379 0.65047 0.02516 0.0
H117 H 0.76798 0.68548 0.02948 0.0
H118 H 0.7144 0.50313 0.94165 0.0
H119 H 0.80987 0.46884 0.93621 0.0
Tb120 Tb 0.57375 0.40881 0.48725 0.0
Eu121 Eu 0.47476 0.5374 0.47775 0.0
C122 C 0.52462 0.47183 0.56726 0.0
C123 C 0.45185 0.3593 0.47447 0.0
C124 C 0.71586 0.34263 0.49367 0.0
C125 C 0.81217 0.3358 0.52296 0.0
C126 C 0.75734 0.3146 0.52467 0.0
C127 C 0.7301 0.39232 0.46086 0.0
C128 C 0.78484 0.41346 0.45907 0.0
C129 C 0.82666 0.38591 0.49026 0.0
C130 C 0.65774 0.32507 0.49803 0.0
O131 O 0.54281 0.41312 0.41785 0.0
O132 O 0.50765 0.53458 0.41271 0.0
O133 O 0.55439 0.60224 0.49311 0.0
O134 O 0.6093 0.51224 0.46602 0.0
C135 C 0.52549 0.47331 0.39461 0.0
O136 O 0.40541 0.5924 0.43937 0.0
O137 O 0.42423 0.61978 0.50795 0.0
O138 O 0.47769 0.47886 0.543 0.0
O139 O 0.57008 0.46798 0.54891 0.0
O140 O 0.49964 0.34576 0.49702 0.0
O141 O 0.44047 0.42485 0.45538 0.0
C142 C 0.60078 0.5815 0.47895 0.0
O143 O 0.63746 0.35976 0.52975 0.0
O144 O 0.62368 0.32625 0.46231 0.0
C145 C 0.33017 0.60698 0.47959 0.0
C146 C 0.22032 0.56116 0.4845 0.0
C147 C 0.23356 0.60983 0.45081 0.0
C148 C 0.28789 0.6327 0.4485 0.0
C149 C 0.31695 0.55915 0.51368 0.0
C150 C 0.26251 0.53699 0.51629 0.0
C151 C 0.38796 0.62389 0.47345 0.0
H152 H 0.84303 0.31416 0.54787 0.0
H153 H 0.74723 0.27695 0.55057 0.0
H154 H 0.69883 0.41581 0.43689 0.0
H155 H 0.79433 0.45148 0.43317 0.0
H156 H 0.20185 0.63 0.42611 0.0
H157 H 0.2971 0.66911 0.42177 0.0
H158 H 0.3488 0.53727 0.53771 0.0
H159 H 0.25366 0.49891 0.54237 0.0
C160 C 0.4014 0.68286 0.95906 0.0
C161 C 0.41604 0.62408 0.98871 0.0
C162 C 0.35213 0.72245 0.96097 0.0
C163 C 0.31727 0.70131 -0.00721 0.0
C164 C 0.33311 0.64369 0.0236 0.0
C165 C 0.38261 0.60644 0.02146 0.0
C166 C 0.33698 0.78589 0.92878 0.0
C167 C 0.29765 0.6209 0.05866 0.0
C168 C 0.21709 0.8388 0.03209 0.0
C169 C 0.16729 0.81509 0.00908 0.0
C170 C 0.26641 0.80409 0.02578 0.0
C171 C 0.26592 0.74264 -0.00359 0.0
C172 C 0.21578 0.71671 0.97382 0.0
C173 C 0.16684 0.75409 0.98004 0.0
C174 C 0.31815 0.83252 0.05221 0.0
C175 C 0.21382 0.64889 0.94378 0.0
H176 H 0.42727 0.69595 0.93367 0.0
H177 H 0.3945 0.56152 0.04489 0.0
H178 H 0.30133 0.76816 0.90556 0.0
H179 H 0.32453 0.83698 0.94611 0.0
H180 H 0.3714 0.80144 0.90987 0.0
H181 H 0.31461 0.57151 0.07833 0.0
H182 H 0.29397 0.66932 0.08109 0.0
H183 H 0.25567 0.60622 0.04366 0.0
H184 H 0.21808 0.8857 0.05491 0.0
H185 H 0.12861 0.73635 0.96181 0.0
H186 H 0.35619 0.81529 0.03868 0.0
H187 H 0.31973 0.8097 0.08602 0.0
H188 H 0.31762 0.89552 0.05453 0.0
H189 H 0.1717 0.63711 0.92789 0.0
H190 H 0.22889 0.59767 0.9626 0.0
H191 H 0.24132 0.65844 0.91801 0.0
C192 C 0.71123 0.34156 0.00892 0.0
C193 C 0.66244 0.31332 0.98636 0.0
C194 C 0.76096 0.3048 0.00747 0.0
C195 C 0.7621 0.23706 0.98325 0.0
C196 C 0.71328 0.20778 0.96016 0.0
C197 C 0.66375 0.2471 0.96153 0.0
C198 C 0.81104 0.33704 0.03451 0.0
C199 C 0.71319 0.13408 0.93525 0.0
C200 C 0.90409 0.17159 0.96396 0.0
C201 C 0.91582 0.12193 -0.00065 0.0
C202 C 0.85309 0.20824 0.9573 0.0
C203 C 0.8135 0.19351 0.98645 0.0
C204 C 0.8257 0.14419 0.0225 0.0
C205 C 0.87684 0.10937 0.02862 0.0
C206 C 0.84168 0.26322 0.91961 0.0
C207 C 0.78503 0.12892 0.05498 0.0
H208 H 0.7111 0.39298 0.0282 0.0
H209 H 0.62633 0.22598 0.9435 0.0
H210 H 0.81055 0.31876 0.06904 0.0
H211 H 0.8502 0.31797 0.02353 0.0
H212 H 0.81016 0.40018 0.03398 0.0
H213 H 0.67215 0.12045 0.91785 0.0
H214 H 0.74347 0.13704 0.9111 0.0
H215 H 0.7258 0.08676 0.95816 0.0
H216 H 0.93407 0.18027 0.94107 0.0
H217 H 0.88606 0.071 0.05616 0.0
H218 H 0.8305 0.31958 0.93194 0.0
H219 H 0.80615 0.24279 0.89712 0.0
H220 H 0.87752 0.2704 0.90089 0.0
H221 H 0.7753 0.18258 0.07119 0.0
H222 H 0.8008 0.08757 0.08074 0.0
H223 H 0.7461 0.10657 0.03777 0.0
C224 C 0.16047 0.21091 0.51031 0.0
C225 C 0.15007 0.13515 0.49904 0.0
C226 C 0.21139 0.24385 0.50476 0.0
C227 C 0.25184 0.19947 0.48724 0.0
C228 C 0.24043 0.12358 0.47449 0.0
C229 C 0.18973 0.09206 0.481 0.0
C230 C 0.22232 0.32531 0.51846 0.0
C231 C 0.28174 0.07581 0.45405 0.0
C232 C 0.36379 0.30839 0.43988 0.0
C233 C 0.40619 0.30551 0.47445 0.0
C234 C 0.31373 0.27211 0.44311 0.0
C235 C 0.30611 0.23238 0.48194 0.0
C236 C 0.34999 0.22511 0.51586 0.0
C237 C 0.39994 0.26176 0.51162 0.0
C238 C 0.26826 0.27951 0.40585 0.0
C239 C 0.34321 0.18213 0.5575 0.0
H240 H 0.12982 0.24314 0.52494 0.0
H241 H 0.18103 0.03328 0.47215 0.0
H242 H 0.25762 0.32773 0.5444 0.0
H243 H 0.23353 0.35943 0.49038 0.0
H244 H 0.18622 0.35211 0.53095 0.0
H245 H 0.26634 0.01746 0.44622 0.0
H246 H 0.292 0.10315 0.42344 0.0
H247 H 0.32039 0.07189 0.47643 0.0
H248 H 0.36896 0.34198 0.41097 0.0
H249 H 0.43265 0.26026 0.53846 0.0
H250 H 0.23484 0.3151 0.41623 0.0
H251 H 0.2504 0.22299 0.39682 0.0
H252 H 0.28273 0.30593 0.37634 0.0
H253 H 0.31199 0.21079 0.57507 0.0
H254 H 0.38218 0.1785 0.57965 0.0
H255 H 0.32818 0.1237 0.54982 0.0
C256 C 0.85457 0.85969 0.46432 0.0
C257 C 0.90027 0.83025 0.4902 0.0
C258 C 0.80403 0.82254 0.46131 0.0
C259 C 0.79946 0.75402 0.48479 0.0
C260 C 0.84614 0.72264 0.50999 0.0
C261 C 0.89642 0.76152 0.51244 0.0
C262 C 0.75616 0.85753 0.43296 0.0
C263 C 0.84256 0.65024 0.53604 0.0
C264 C 0.65869 0.68942 0.50976 0.0
C265 C 0.64653 0.63473 0.47729 0.0
C266 C 0.70835 0.72989 0.51235 0.0
C267 C 0.74613 0.71428 0.48194 0.0
C268 C 0.73276 0.66137 0.44807 0.0
C269 C 0.68297 0.62249 0.44605 0.0
C270 C 0.72109 0.78752 0.54825 0.0
C271 C 0.77155 0.6446 0.41455 0.0
H272 H 0.85799 0.91358 0.44749 0.0
H273 H 0.93175 0.74031 0.53331 0.0
H274 H 0.71597 0.84181 0.44368 0.0
H275 H 0.75948 0.92054 0.43257 0.0
H276 H 0.75669 0.83748 0.39887 0.0
H277 H 0.88368 0.62481 0.54531 0.0
H278 H 0.82416 0.66313 0.56649 0.0
H279 H 0.81588 0.60758 0.51761 0.0
H280 H 0.63066 0.69821 0.5341 0.0
H281 H 0.67323 0.58046 0.42065 0.0
H282 H 0.73682 0.84094 0.53491 0.0
H283 H 0.75371 0.76489 0.5728 0.0
H284 H 0.68452 0.80092 0.56504 0.0
H285 H 0.77669 0.69626 0.39459 0.0
H286 H 0.75662 0.59757 0.3923 0.0
H287 H 0.81263 0.62927 0.43108 0.0
C288 C 0.44733 0.09319 -0.0065 0.0
C289 C 0.40475 0.03988 -0.00502 0.0
C290 C 0.50227 0.07015 -0.00692 0.0
C291 C 0.51545 -0.00829 -0.00585 0.0
C292 C 0.47277 0.93759 -0.00464 0.0
C293 C 0.41827 0.96224 -0.00443 0.0
C294 C 0.54636 0.12984 -0.0083 0.0
C295 C 0.48444 0.85332 -0.00368 0.0
C296 C 0.65081 0.92583 0.95635 0.0
C297 C 0.68378 0.91398 -0.00377 0.0
C298 C 0.59629 0.95151 0.95514 0.0
C299 C 0.57386 0.96619 -0.00526 0.0
C300 C 0.607 0.95498 0.03506 0.0
C301 C 0.66127 0.92896 0.03532 0.0
C302 C 0.56258 0.96273 0.91143 0.0
C303 C 0.58479 0.96941 0.07806 0.0
H304 H 0.43774 0.1532 -0.00775 0.0
H305 H 0.3863 0.92024 -0.003 0.0
H306 H 0.57604 0.1259 0.02165 0.0
H307 H 0.56955 0.11966 0.96338 0.0
H308 H 0.52936 0.18834 0.9892 0.0
H309 H 0.49531 0.83537 0.96387 0.0
H310 H 0.51978 0.83968 0.02087 0.0
H311 H 0.44853 0.81941 0.00408 0.0
H312 H 0.66785 0.91589 0.92589 0.0
H313 H 0.68583 0.91916 0.06638 0.0
H314 H 0.54786 0.02226 0.90816 0.0
H315 H 0.52581 0.92545 0.90922 0.0
H316 H 0.58613 0.94986 0.88358 0.0
H317 H 0.56972 0.02869 0.07907 0.0
H318 H 0.61612 0.95997 0.10658 0.0
H319 H 0.54935 0.93125 0.08128 0.0
C320 C 0.40074 0.93948 0.46324 0.0
C321 C 0.3828 0.92732 0.50446 0.0
C322 C 0.45439 0.96505 0.45926 0.0
C323 C 0.49128 -0.02171 0.49738 0.0
C324 C 0.47348 0.96564 0.53903 0.0
C325 C 0.41953 0.94068 0.54207 0.0
C326 C 0.47177 -0.02243 0.41426 0.0
C327 C 0.51164 -0.02206 0.58047 0.0
C328 C 0.64566 0.97525 0.49152 0.0
C329 C 0.65903 0.0529 0.4923 0.0
C330 C 0.59125 0.95023 0.49194 0.0
C331 C 0.54879 0.00413 0.49383 0.0
C332 C 0.56174 0.0827 0.49382 0.0
C333 C 0.61659 0.10608 0.49299 0.0
C334 C 0.57992 0.86584 0.4916 0.0
C335 C 0.51782 0.14215 0.4956 0.0
H336 H 0.37243 0.93038 0.43403 0.0
H337 H 0.40622 0.93072 0.57403 0.0
H338 H 0.48589 0.03706 0.41091 0.0
H339 H 0.50688 0.93998 0.40962 0.0
H340 H 0.43802 0.96597 0.38787 0.0
H341 H 0.49134 0.96663 0.61036 0.0
H342 H 0.54774 0.94 0.58079 0.0
H343 H 0.52711 0.0373 0.58168 0.0
H344 H 0.67786 0.93366 0.49047 0.0
H345 H 0.62641 0.1661 0.49405 0.0
H346 H 0.54023 0.85189 0.47228 0.0
H347 H 0.57793 0.84594 0.52567 0.0
H348 H 0.61287 0.83381 0.47784 0.0
H349 H 0.484 0.13289 0.46899 0.0
H350 H 0.53407 0.20065 0.49257 0.0
H351 H 0.49994 0.1374 0.52706 0.0
C352 C 0.91718 0.45542 0.97939 0.0
C353 C 0.90338 0.53282 0.97916 0.0
C354 C 0.97186 0.43138 0.97986 0.0
C355 C 1.01426 0.486 0.97887 0.0
C356 C 1.00074 0.56434 0.97815 0.0
C357 C 0.94566 0.58677 0.97854 0.0
C358 C 0.98367 0.34717 0.98097 0.0
C359 C 0.04443 0.62453 0.9766 0.0
C360 C 0.16092 0.42339 0.01726 0.0
C361 C 0.18142 0.40654 0.97761 0.0
C362 C 0.10698 0.45006 0.01812 0.0
C363 C 0.07256 0.46095 0.97837 0.0
C364 C 0.09325 0.44498 0.93823 0.0
C365 C 0.14721 0.41785 0.93833 0.0
C366 C 0.08628 0.4647 0.06167 0.0
C367 C 0.05816 0.45598 0.89511 0.0
H368 H 0.88522 0.41317 0.9799 0.0
H369 H 0.93561 0.64672 0.97765 0.0
H370 H 0.98751 0.32738 0.94726 0.0
H371 H 1.02259 0.3339 0.00157 0.0
H372 H 0.9501 0.31448 -0.00624 0.0
H373 H 1.02743 0.68297 0.97676 0.0
H374 H 0.07626 0.61813 0.00501 0.0
H375 H 0.06511 0.61741 0.94662 0.0
H376 H 0.18676 0.41423 0.0478 0.0
H377 H 0.16288 0.40625 0.90749 0.0
H378 H 0.05119 0.4263 0.06568 0.0
H379 H 0.07107 0.52388 0.0629 0.0
H380 H 0.1185 0.45557 0.0896 0.0
H381 H 1.02224 0.41718 0.89335 0.0
H382 H 0.08108 0.44472 0.86668 0.0
H383 H 0.04218 0.51495 0.89249 0.0
C384 C 0.13264 0.50597 0.44774 0.0
C385 C 0.16294 0.53407 0.48572 0.0
C386 C 0.07839 0.48025 0.44822 0.0
C387 C 0.05348 0.48341 0.48752 0.0
C388 C 0.08397 0.51145 0.52603 0.0
C389 C 0.13843 0.53595 0.52474 0.0
C390 C 0.04762 0.45003 0.40656 0.0
C391 C 0.05886 0.5163 0.56851 0.0
C392 C 0.8973 0.486 0.4788 0.0
C393 C 0.88487 0.41059 0.48921 0.0
C394 C 0.95181 0.51051 0.47826 0.0
C395 C 0.99532 0.45826 0.48816 0.0
C396 C 0.98314 0.38192 0.49838 0.0
C397 C 0.92822 0.35913 0.49889 0.0
C398 C 0.96277 0.59262 0.46757 0.0
C399 C 1.02813 0.3241 0.50853 0.0
H400 H 0.15168 0.50331 0.41766 0.0
H401 H 0.16158 0.55794 0.55412 0.0
H402 H 0.03335 0.39116 0.41186 0.0
H403 H 1.01064 0.48517 0.39712 0.0
H404 H 0.07317 0.44988 0.37897 0.0
H405 H 0.08813 0.53883 0.59563 0.0
H406 H 1.02229 0.55373 0.56427 0.0
H407 H 0.04477 0.45924 0.578 0.0
H408 H 0.86435 0.52643 0.47165 0.0
H409 H 0.91922 0.30058 0.50637 0.0
H410 H 0.98976 0.59644 0.44105 0.0
H411 H 0.98451 0.62082 0.49677 0.0
H412 H 0.9244 0.62444 0.45724 0.0
H413 H 0.05153 0.31792 0.47994 0.0
H414 H 1.01199 0.26742 0.51681 0.0
H415 H 0.05739 0.34376 0.53639 0.0
C416 C 0.07471 0.97162 0.35428 0.0
C417 C 1.02543 -0.0127 0.37157 0.0
C418 C 0.07701 0.96977 0.30895 0.0
C419 C 1.0289 -0.01591 0.28017 0.0
C420 C 0.97904 9e-05 0.29734 0.0
C421 C 0.97787 0.00142 0.34285 0.0
C422 C 0.13094 0.95235 0.29187 0.0
C423 C 0.92693 0.0158 0.26761 0.0
C424 C 0.04656 0.04598 0.16415 0.0
C425 C 0.0369 -0.02214 0.14097 0.0
C426 C 0.04361 0.04896 0.2094 0.0
C427 C 0.03087 -0.01781 0.23206 0.0
C428 C 1.02084 0.91334 0.20888 0.0
C429 C 1.02389 0.91202 0.16361 0.0
C430 C 0.05435 0.12351 0.23301 0.0
C431 C 1.00724 0.84094 0.23196 0.0
H432 H 0.11169 0.9606 0.37617 0.0
H433 H 0.93961 0.01359 0.35589 0.0
H434 H 0.12655 0.90107 0.2709 0.0
H435 H 0.14286 0.00011 0.27122 0.0
H436 H 0.16459 0.94248 0.31862 0.0
H437 H 0.89159 0.02761 0.28615 0.0
H438 H 0.933 0.06532 0.24621 0.0
H439 H 0.91653 0.96636 0.24597 0.0
H440 H 0.05639 0.09725 0.14697 0.0
H441 H 1.01626 0.85912 0.14604 0.0
H442 H 0.08998 0.1177 0.25843 0.0
H443 H 1.01842 0.1392 0.24993 0.0
H444 H 0.06283 0.17056 0.21049 0.0
H445 H 0.04136 0.82604 0.25736 0.0
H446 H 0.99991 0.79232 0.20911 0.0
H447 H 0.97008 0.84926 0.24884 0.0
C448 C 0.98826 0.95321 0.84687 0.0
C449 C 0.03839 0.96582 0.87262 0.0
C450 C 0.98474 0.9551 0.80107 0.0
C451 C 0.03249 0.97003 0.78058 0.0
C452 C 0.08329 -0.01769 0.80634 0.0
C453 C 0.08565 -0.02003 0.85209 0.0
C454 C 0.9299 0.94148 0.7746 0.0
C455 C 0.13507 -0.00161 0.78557 0.0
C456 C 0.03513 0.91094 0.66244 0.0
C457 C 1.02425 -0.02002 0.64017 0.0
C458 C 0.03765 0.9068 0.70815 0.0
C459 C 1.02924 0.97332 0.73214 0.0
C460 C 1.018 0.0431 0.7099 0.0
C461 C 1.01555 0.04558 0.66415 0.0
C462 C 0.04954 0.83131 0.73079 0.0
C463 C 1.00891 0.11523 0.73448 0.0
H464 H 0.95156 0.94207 0.86247 0.0
H465 H 0.12457 -0.01029 0.87173 0.0
H466 H 0.91818 -0.00809 0.75388 0.0
H467 H 0.93275 0.89262 0.75231 0.0
H468 H 0.8968 0.92975 0.79556 0.0
H469 H 0.17135 0.00617 0.81026 0.0
H470 H 0.14346 0.95097 0.76367 0.0
H471 H 0.12974 0.05052 0.76512 0.0
H472 H 0.04182 0.8599 0.6442 0.0
H473 H 1.00718 0.09919 0.64725 0.0
H474 H 1.01574 0.81599 0.75031 0.0
H475 H 0.08761 0.83552 0.75386 0.0
H476 H 0.05452 0.78474 0.70731 0.0
H477 H 0.97397 0.10766 0.75406 0.0
H478 H 1.0003 0.16478 0.71227 0.0
H479 H 0.04572 0.12816 0.75769 0.0
C480 C 0.49194 0.52142 0.31988 0.0
C481 C 0.52571 0.47184 0.34662 0.0
C482 C 0.49157 0.52067 0.27426 0.0
C483 C 0.52654 0.47007 0.25503 0.0
C484 C 0.56091 0.4201 0.28187 0.0
C485 C 0.55972 0.42112 0.32737 0.0
C486 C 0.45375 0.57398 0.24664 0.0
C487 C 0.59942 0.36625 0.26258 0.0
C488 C 0.49546 0.42089 0.13467 0.0
C489 C 0.53065 0.4706 0.11547 0.0
C490 C 0.49326 0.42061 0.18006 0.0
C491 C 0.5278 0.47028 0.20685 0.0
C492 C 0.5636 0.52031 0.18765 0.0
C493 C 0.56422 0.52035 0.14212 0.0
C494 C 0.45382 0.36748 0.19933 0.0
C495 C 0.60159 0.57334 0.21522 0.0
H496 H 0.46524 0.56034 0.33458 0.0
H497 H 0.58618 0.38306 0.34793 0.0
H498 H 0.47812 0.61348 0.22826 0.0
H499 H 0.42655 0.54119 0.2222 0.0
H500 H 0.42783 0.60804 0.26658 0.0
H501 H 0.62365 0.33132 0.28799 0.0
H502 H 0.57585 0.32762 0.23898 0.0
H503 H 0.62823 0.39883 0.24424 0.0
H504 H 0.46908 0.38279 0.11414 0.0
H505 H 0.59179 0.55854 0.12747 0.0
H506 H 0.4256 0.40046 0.21774 0.0
H507 H 0.47677 0.32794 0.22286 0.0
H508 H 0.42899 0.33353 0.17389 0.0
H509 H 0.5774 0.61249 0.23365 0.0
H510 H 0.6276 0.60777 0.19525 0.0
H511 H 0.62873 0.54021 0.23963 0.0
C512 C 0.49013 0.42467 0.6354 0.0
C513 C 0.5265 0.47077 0.61518 0.0
C514 C 0.4924 0.42158 0.68118 0.0
C515 C 0.53032 0.46833 0.70705 0.0
C516 C 0.56635 0.51624 0.68651 0.0
C517 C 0.56482 0.51558 0.64076 0.0
C518 C 0.45481 0.36756 0.70186 0.0
C519 C 0.60587 0.56906 0.71278 0.0
C520 C 0.49734 0.51155 0.82212 0.0
C521 C 0.53578 0.46643 0.84741 0.0
C522 C 0.49588 0.51396 0.77638 0.0
C523 C 0.53212 0.46746 0.75557 0.0
C524 C 0.57019 0.42042 0.78115 0.0
C525 C 0.57239 0.4218 0.82694 0.0
C526 C 0.45621 0.5671 0.75044 0.0
C527 C 0.60801 0.36785 0.76015 0.0
H528 H 0.46088 0.38955 0.61538 0.0
H529 H 0.59262 0.55159 0.62485 0.0
H530 H 0.47928 0.32945 0.72536 0.0
H531 H 0.42659 0.39984 0.72057 0.0
H532 H 0.4299 0.33213 0.67719 0.0
H533 H 0.62928 0.60517 0.69165 0.0
H534 H 0.58313 0.60653 0.73334 0.0
H535 H 0.63544 0.5358 0.73519 0.0
H536 H 0.46937 0.54642 0.83825 0.0
H537 H 0.60175 0.38648 0.84677 0.0
H538 H 0.42674 0.53417 0.72783 0.0
H539 H 0.47884 0.60566 0.73012 0.0
H540 H 0.4327 0.60206 0.77179 0.0
H541 H 0.58368 0.3301 0.73646 0.0
H542 H 0.6331 0.33203 0.7846 0.0
H543 H 0.63606 0.4013 0.7416 0.0
loop_
_geom_bond_atom_site_label_1
_geom_bond_atom_site_label_2
_geom_bond_distance
_geom_bond_site_symmetry_2
_ccdc_geom_bond_type
Tb0 C10 2.825 . S
Tb0 O11 2.347 1_556 S
Tb0 O14 2.366 1_565 S
Tb0 O19 2.418 . S
Tb0 O20 2.384 1_655 S
Tb0 O23 2.479 . S
Tb0 O24 2.471 1_556 S
Eu1 O12 2.418 . S
Eu1 O13 2.384 1_455 S
Eu1 O16 2.479 . S
Eu1 O17 2.471 1_554 S
Eu1 O18 2.347 1_554 S
Eu1 O21 2.366 1_545 S
Eu1 C31 2.825 . S
C2 O18 1.259 1_665 S
C2 O19 1.265 . S
C3 O20 1.255 1_554 S
C3 O21 1.265 . S
C4 C6 1.367 1_554 S
C4 C7 1.390 . S
C4 C10 1.503 1_554 S
C5 C6 1.384 . S
C5 C9 1.387 1_556 S
C5 H32 0.930 . S
C6 C4 1.367 1_556 S
C6 C5 1.384 . S
C6 H33 0.931 . S
C7 C4 1.390 . S
C7 C8 1.390 . S
C7 H34 0.930 . S
C8 C7 1.390 . S
C8 C9 1.391 . S
C8 H35 0.930 . S
C9 C5 1.387 1_554 S
C9 C8 1.391 . S
C10 Tb0 2.825 . S
C10 C4 1.503 1_556 S
C10 O23 1.238 . S
C10 O24 1.247 1_556 S
O11 Tb0 2.347 1_554 S
O11 C15 1.259 1_665 S
O12 Eu1 2.418 . S
O12 C15 1.265 . S
O13 Eu1 2.384 1_655 S
O13 C22 1.255 1_554 S
O14 Tb0 2.366 1_545 S
O14 C22 1.265 . S
C15 O11 1.259 1_445 S
C15 O12 1.265 . S
O16 Eu1 2.479 . S
O16 C31 1.238 . S
O17 Eu1 2.471 1_556 S
O17 C31 1.247 1_556 S
O18 Eu1 2.347 1_556 S
O18 C2 1.259 1_445 S
O19 Tb0 2.418 . S
O19 C2 1.265 . S
O20 Tb0 2.384 1_455 S
O20 C3 1.255 1_556 S
O21 Eu1 2.366 1_565 S
O21 C3 1.265 . S
C22 O13 1.255 1_556 S
C22 O14 1.265 . S
O23 Tb0 2.479 . S
O23 C10 1.238 . S
O24 Tb0 2.471 1_554 S
O24 C10 1.247 1_554 S
C25 C28 1.371 1_556 S
C25 C29 1.385 . S
C25 C31 1.504 1_556 S
C26 C27 1.387 1_556 S
C26 C30 1.391 . S
C27 C26 1.387 1_554 S
C27 C28 1.384 . S
C27 H36 0.930 . S
C28 C25 1.371 1_554 S
C28 C27 1.384 . S
C28 H37 0.931 . S
C29 C25 1.385 . S
C29 C30 1.390 . S
C29 H38 0.930 . S
C30 C26 1.391 . S
C30 C29 1.390 . S
C30 H39 0.930 . S
C31 Eu1 2.825 . S
C31 O16 1.238 . S
C31 O17 1.247 1_554 S
C31 C25 1.504 1_554 S
H32 C5 0.930 . S
H33 C6 0.931 . S
H34 C7 0.930 . S
H35 C8 0.930 . S
H36 C27 0.930 . S
H37 C28 0.931 . S
H38 C29 0.930 . S
H39 C30 0.930 . S
Tb40 C50 2.825 . S
Tb40 O51 2.347 . S
Tb40 O54 2.366 1_565 S
Tb40 O59 2.418 . S
Tb40 O60 2.384 1_455 S
Tb40 O63 2.479 . S
Tb40 O64 2.471 . S
Eu41 O52 2.418 . S
Eu41 O53 2.384 1_655 S
Eu41 O56 2.479 . S
Eu41 O57 2.471 . S
Eu41 O58 2.347 . S
Eu41 O61 2.366 1_545 S
Eu41 C71 2.825 . S
C42 O58 1.259 1_465 S
C42 O59 1.265 . S
C43 O60 1.255 . S
C43 O61 1.265 . S
C44 C46 1.380 . S
C44 C47 1.374 . S
C44 C50 1.507 . S
C45 C46 1.384 . S
C45 C49 1.387 . S
C45 H72 0.930 . S
C46 C44 1.380 . S
C46 C45 1.384 . S
C46 H73 0.931 . S
C47 C44 1.374 . S
C47 C48 1.390 . S
C47 H74 0.930 . S
C48 C47 1.390 . S
C48 C49 1.391 . S
C48 H75 0.930 . S
C49 C45 1.387 . S
C49 C48 1.391 . S
C50 Tb40 2.825 . S
C50 C44 1.507 . S
C50 O63 1.238 . S
C50 O64 1.247 . S
O51 Tb40 2.347 . S
O51 C55 1.259 1_465 S
O52 Eu41 2.418 . S
O52 C55 1.265 . S
O53 Eu41 2.384 1_455 S
O53 C62 1.255 . S
O54 Tb40 2.366 1_545 S
O54 C62 1.265 . S
C55 O51 1.259 1_645 S
C55 O52 1.265 . S
O56 Eu41 2.479 . S
O56 C71 1.238 . S
O57 Eu41 2.471 . S
O57 C71 1.247 . S
O58 Eu41 2.347 . S
O58 C42 1.259 1_645 S
O59 Tb40 2.418 . S
O59 C42 1.265 . S
O60 Tb40 2.384 1_655 S
O60 C43 1.255 . S
O61 Eu41 2.366 1_565 S
O61 C43 1.265 . S
C62 O53 1.255 . S
C62 O54 1.265 . S
O63 Tb40 2.479 . S
O63 C50 1.238 . S
O64 Tb40 2.471 . S
O64 C50 1.247 . S
C65 C68 1.380 . S
C65 C69 1.374 . S
C65 C71 1.507 . S
C66 C67 1.387 . S
C66 C70 1.391 . S
C67 C66 1.387 . S
C67 C68 1.384 . S
C67 H76 0.930 . S
C68 C65 1.380 . S
C68 C67 1.384 . S
C68 H77 0.931 . S
C69 C65 1.374 . S
C69 C70 1.390 . S
C69 H78 0.930 . S
C70 C66 1.391 . S
C70 C69 1.390 . S
C70 H79 0.930 . S
C71 Eu41 2.825 . S
C71 O56 1.238 . S
C71 O57 1.247 . S
C71 C65 1.507 . S
H72 C45 0.930 . S
H73 C46 0.931 . S
H74 C47 0.930 . S
H75 C48 0.930 . S
H76 C67 0.930 . S
H77 C68 0.931 . S
H78 C69 0.930 . S
H79 C70 0.930 . S
Tb80 C90 2.825 . S
Tb80 O91 2.347 1_556 S
Tb80 O94 2.366 . S
Tb80 O99 2.418 . S
Tb80 O100 2.384 . S
Tb80 O103 2.479 . S
Tb80 O104 2.471 1_556 S
Eu81 O92 2.418 . S
Eu81 O93 2.384 . S
Eu81 O96 2.479 . S
Eu81 O97 2.471 1_554 S
Eu81 O98 2.347 1_554 S
Eu81 O101 2.366 . S
Eu81 C111 2.825 . S
C82 O98 1.259 . S
C82 O99 1.265 . S
C83 O100 1.255 1_554 S
C83 O101 1.265 . S
C84 C86 1.367 1_554 S
C84 C87 1.390 . S
C84 C90 1.503 1_554 S
C85 C86 1.384 . S
C85 C89 1.387 1_556 S
C85 H112 0.930 . S
C86 C84 1.367 1_556 S
C86 C85 1.384 . S
C86 H113 0.931 . S
C87 C84 1.390 . S
C87 C88 1.390 . S
C87 H114 0.930 . S
C88 C87 1.390 . S
C88 C89 1.391 . S
C88 H115 0.930 . S
C89 C85 1.387 1_554 S
C89 C88 1.391 . S
C90 Tb80 2.825 . S
C90 C84 1.503 1_556 S
C90 O103 1.238 . S
C90 O104 1.247 1_556 S
O91 Tb80 2.347 1_554 S
O91 C95 1.259 . S
O92 Eu81 2.418 . S
O92 C95 1.265 . S
O93 Eu81 2.384 . S
O93 C102 1.255 1_554 S
O94 Tb80 2.366 . S
O94 C102 1.265 . S
C95 O91 1.259 . S
C95 O92 1.265 . S
O96 Eu81 2.479 . S
O96 C111 1.238 . S
O97 Eu81 2.471 1_556 S
O97 C111 1.247 1_556 S
O98 Eu81 2.347 1_556 S
O98 C82 1.259 . S
O99 Tb80 2.418 . S
O99 C82 1.265 . S
O100 Tb80 2.384 . S
O100 C83 1.255 1_556 S
O101 Eu81 2.366 . S
O101 C83 1.265 . S
C102 O93 1.255 1_556 S
C102 O94 1.265 . S
O103 Tb80 2.479 . S
O103 C90 1.238 . S
O104 Tb80 2.471 1_554 S
O104 C90 1.247 1_554 S
C105 C108 1.371 1_556 S
C105 C109 1.385 . S
C105 C111 1.504 1_556 S
C106 C107 1.387 1_556 S
C106 C110 1.391 . S
C107 C106 1.387 1_554 S
C107 C108 1.384 . S
C107 H116 0.930 . S
C108 C105 1.371 1_554 S
C108 C107 1.384 . S
C108 H117 0.931 . S
C109 C105 1.385 . S
C109 C110 1.390 . S
C109 H118 0.930 . S
C110 C106 1.391 . S
C110 C109 1.390 . S
C110 H119 0.930 . S
C111 Eu81 2.825 . S
C111 O96 1.238 . S
C111 O97 1.247 1_554 S
C111 C105 1.504 1_554 S
H112 C85 0.930 . S
H113 C86 0.931 . S
H114 C87 0.930 . S
H115 C88 0.930 . S
H116 C107 0.930 . S
H117 C108 0.931 . S
H118 C109 0.930 . S
H119 C110 0.930 . S
Tb120 C130 2.825 . S
Tb120 O131 2.347 . S
Tb120 O134 2.366 . S
Tb120 O139 2.418 . S
Tb120 O140 2.384 . S
Tb120 O143 2.479 . S
Tb120 O144 2.471 . S
Eu121 O132 2.418 . S
Eu121 O133 2.384 . S
Eu121 O136 2.479 . S
Eu121 O137 2.471 . S
Eu121 O138 2.347 . S
Eu121 O141 2.366 . S
Eu121 C151 2.825 . S
C122 O138 1.259 . S
C122 O139 1.265 . S
C123 O140 1.255 . S
C123 O141 1.265 . S
C124 C126 1.380 . S
C124 C127 1.374 . S
C124 C130 1.507 . S
C125 C126 1.384 . S
C125 C129 1.387 . S
C125 H152 0.930 . S
C126 C124 1.380 . S
C126 C125 1.384 . S
C126 H153 0.931 . S
C127 C124 1.374 . S
C127 C128 1.390 . S
C127 H154 0.930 . S
C128 C127 1.390 . S
C128 C129 1.391 . S
C128 H155 0.930 . S
C129 C125 1.387 . S
C129 C128 1.391 . S
C130 Tb120 2.825 . S
C130 C124 1.507 . S
C130 O143 1.238 . S
C130 O144 1.247 . S
O131 Tb120 2.347 . S
O131 C135 1.259 . S
O132 Eu121 2.418 . S
O132 C135 1.265 . S
O133 Eu121 2.384 . S
O133 C142 1.255 . S
O134 Tb120 2.366 . S
O134 C142 1.265 . S
C135 O131 1.259 . S
C135 O132 1.265 . S
O136 Eu121 2.479 . S
O136 C151 1.238 . S
O137 Eu121 2.471 . S
O137 C151 1.247 . S
O138 Eu121 2.347 . S
O138 C122 1.259 . S
O139 Tb120 2.418 . S
O139 C122 1.265 . S
O140 Tb120 2.384 . S
O140 C123 1.255 . S
O141 Eu121 2.366 . S
O141 C123 1.265 . S
C142 O133 1.255 . S
C142 O134 1.265 . S
O143 Tb120 2.479 . S
O143 C130 1.238 . S
O144 Tb120 2.471 . S
O144 C130 1.247 . S
C145 C148 1.380 . S
C145 C149 1.374 . S
C145 C151 1.507 . S
C146 C147 1.387 . S
C146 C150 1.391 . S
C147 C146 1.387 . S
C147 C148 1.384 . S
C147 H156 0.930 . S
C148 C145 1.380 . S
C148 C147 1.384 . S
C148 H157 0.931 . S
C149 C145 1.374 . S
C149 C150 1.390 . S
C149 H158 0.930 . S
C150 C146 1.391 . S
C150 C149 1.390 . S
C150 H159 0.930 . S
C151 Eu121 2.825 . S
C151 O136 1.238 . S
C151 O137 1.247 . S
C151 C145 1.507 . S
H152 C125 0.930 . S
H153 C126 0.931 . S
H154 C127 0.930 . S
H155 C128 0.930 . S
H156 C147 0.930 . S
H157 C148 0.931 . S
H158 C149 0.930 . S
H159 C150 0.930 . S
C160 C161 1.391 . S
C160 C162 1.394 . S
C160 H176 0.931 . S
C161 C160 1.391 . S
C161 C165 1.376 1_556 S
C162 C160 1.394 . S
C162 C163 1.369 . S
C162 C166 1.531 . S
C163 C162 1.369 . S
C163 C164 1.410 1_556 S
C163 C171 1.503 . S
C164 C163 1.410 1_554 S
C164 C165 1.392 . S
C164 C167 1.511 . S
C165 C161 1.376 1_554 S
C165 C164 1.392 . S
C165 H177 0.929 . S
C166 C162 1.531 . S
C166 H178 0.960 . S
C166 H179 0.962 . S
C166 H180 0.960 . S
C167 C164 1.511 . S
C167 H181 0.961 . S
C167 H182 0.961 . S
C167 H183 0.961 . S
C168 C169 1.370 . S
C168 C170 1.363 . S
C168 H184 0.931 . S
C169 C168 1.370 . S
C169 C173 1.408 1_554 S
C170 C168 1.363 . S
C170 C171 1.370 1_554 S
C170 C174 1.524 . S
C171 C163 1.503 . S
C171 C170 1.370 1_556 S
C171 C172 1.403 . S
C172 C171 1.403 . S
C172 C173 1.404 . S
C172 C175 1.539 . S
C173 C169 1.408 1_556 S
C173 C172 1.404 . S
C173 H185 0.930 . S
C174 C170 1.524 . S
C174 H186 0.956 . S
C174 H187 0.961 . S
C174 H188 0.961 . S
C175 C172 1.539 . S
C175 H189 0.958 . S
C175 H190 0.961 . S
C175 H191 0.960 . S
H176 C160 0.931 . S
H177 C165 0.929 . S
H178 C166 0.960 . S
H179 C166 0.962 . S
H180 C166 0.960 . S
H181 C167 0.961 . S
H182 C167 0.961 . S
H183 C167 0.961 . S
H184 C168 0.931 . S
H185 C173 0.930 . S
H186 C174 0.956 . S
H187 C174 0.961 . S
H188 C174 0.961 . S
H189 C175 0.958 . S
H190 C175 0.961 . S
H191 C175 0.960 . S
C192 C193 1.391 . S
C192 C194 1.394 . S
C192 H208 0.931 . S
C193 C192 1.391 . S
C193 C197 1.376 . S
C194 C192 1.394 . S
C194 C195 1.369 . S
C194 C198 1.531 . S
C195 C194 1.369 . S
C195 C196 1.410 . S
C195 C203 1.503 . S
C196 C195 1.410 . S
C196 C197 1.392 . S
C196 C199 1.511 . S
C197 C193 1.376 . S
C197 C196 1.392 . S
C197 H209 0.929 . S
C198 C194 1.531 . S
C198 H210 0.960 . S
C198 H211 0.962 1_554 S
C198 H212 0.960 . S
C199 C196 1.511 . S
C199 H213 0.961 . S
C199 H214 0.961 . S
C199 H215 0.961 . S
C200 C201 1.370 . S
C200 C202 1.363 . S
C200 H216 0.931 . S
C201 C200 1.370 . S
C201 C205 1.408 1_556 S
C202 C200 1.363 . S
C202 C203 1.370 1_556 S
C202 C206 1.524 . S
C203 C195 1.503 . S
C203 C202 1.370 1_554 S
C203 C204 1.403 . S
C204 C203 1.403 . S
C204 C205 1.404 . S
C204 C207 1.539 . S
C205 C201 1.408 1_554 S
C205 C204 1.404 . S
C205 H217 0.930 . S
C206 C202 1.524 . S
C206 H218 0.956 . S
C206 H219 0.961 . S
C206 H220 0.961 . S
C207 C204 1.539 . S
C207 H221 0.958 . S
C207 H222 0.961 . S
C207 H223 0.960 . S
H208 C192 0.931 . S
H209 C197 0.929 . S
H210 C198 0.960 . S
H211 C198 0.962 1_556 S
H212 C198 0.960 . S
H213 C199 0.961 . S
H214 C199 0.961 . S
H215 C199 0.961 . S
H216 C200 0.931 . S
H217 C205 0.930 . S
H218 C206 0.956 . S
H219 C206 0.961 . S
H220 C206 0.961 . S
H221 C207 0.958 . S
H222 C207 0.961 . S
H223 C207 0.960 . S
C224 C225 1.391 . S
C224 C226 1.394 . S
C224 H240 0.931 . S
C225 C224 1.391 . S
C225 C229 1.376 . S
C226 C224 1.394 . S
C226 C227 1.369 . S
C226 C230 1.531 . S
C227 C226 1.369 . S
C227 C228 1.410 . S
C227 C235 1.503 . S
C228 C227 1.410 . S
C228 C229 1.392 . S
C228 C231 1.511 . S
C229 C225 1.376 . S
C229 C228 1.392 . S
C229 H241 0.929 . S
C230 C226 1.531 . S
C230 H242 0.960 . S
C230 H243 0.962 . S
C230 H244 0.960 . S
C231 C228 1.511 . S
C231 H245 0.961 . S
C231 H246 0.961 . S
C231 H247 0.961 . S
C232 C233 1.370 . S
C232 C234 1.363 . S
C232 H248 0.931 . S
C233 C232 1.370 . S
C233 C237 1.408 . S
C234 C232 1.363 . S
C234 C235 1.370 . S
C234 C238 1.524 . S
C235 C227 1.503 . S
C235 C234 1.370 . S
C235 C236 1.403 . S
C236 C235 1.403 . S
C236 C237 1.404 . S
C236 C239 1.539 . S
C237 C233 1.408 . S
C237 C236 1.404 . S
C237 H249 0.930 . S
C238 C234 1.524 . S
C238 H250 0.956 . S
C238 H251 0.961 . S
C238 H252 0.961 . S
C239 C236 1.539 . S
C239 H253 0.958 . S
C239 H254 0.961 . S
C239 H255 0.960 . S
H240 C224 0.931 . S
H241 C229 0.929 . S
H242 C230 0.960 . S
H243 C230 0.962 . S
H244 C230 0.960 . S
H245 C231 0.961 . S
H246 C231 0.961 . S
H247 C231 0.961 . S
H248 C232 0.931 . S
H249 C237 0.930 . S
H250 C238 0.956 . S
H251 C238 0.961 . S
H252 C238 0.961 . S
H253 C239 0.958 . S
H254 C239 0.961 . S
H255 C239 0.960 . S
C256 C257 1.391 . S
C256 C258 1.394 . S
C256 H272 0.931 . S
C257 C256 1.391 . S
C257 C261 1.376 . S
C258 C256 1.394 . S
C258 C259 1.369 . S
C258 C262 1.531 . S
C259 C258 1.369 . S
C259 C260 1.410 . S
C259 C267 1.503 . S
C260 C259 1.410 . S
C260 C261 1.392 . S
C260 C263 1.511 . S
C261 C257 1.376 . S
C261 C260 1.392 . S
C261 H273 0.929 . S
C262 C258 1.531 . S
C262 H274 0.960 . S
C262 H275 0.962 . S
C262 H276 0.960 . S
C263 C260 1.511 . S
C263 H277 0.961 . S
C263 H278 0.961 . S
C263 H279 0.961 . S
C264 C265 1.370 . S
C264 C266 1.363 . S
C264 H280 0.931 . S
C265 C264 1.370 . S
C265 C269 1.408 . S
C266 C264 1.363 . S
C266 C267 1.370 . S
C266 C270 1.524 . S
C267 C259 1.503 . S
C267 C266 1.370 . S
C267 C268 1.403 . S
C268 C267 1.403 . S
C268 C269 1.404 . S
C268 C271 1.539 . S
C269 C265 1.408 . S
C269 C268 1.404 . S
C269 H281 0.930 . S
C270 C266 1.524 . S
C270 H282 0.956 . S
C270 H283 0.961 . S
C270 H284 0.961 . S
C271 C268 1.539 . S
C271 H285 0.958 . S
C271 H286 0.961 . S
C271 H287 0.960 . S
H272 C256 0.931 . S
H273 C261 0.929 . S
H274 C262 0.960 . S
H275 C262 0.962 . S
H276 C262 0.960 . S
H277 C263 0.961 . S
H278 C263 0.961 . S
H279 C263 0.961 . S
H280 C264 0.931 . S
H281 C269 0.930 . S
H282 C270 0.956 . S
H283 C270 0.961 . S
H284 C270 0.961 . S
H285 C271 0.958 . S
H286 C271 0.961 . S
H287 C271 0.960 . S
C288 C289 1.391 1_554 S
C288 C290 1.394 . S
C288 H304 0.931 . S
C289 C288 1.391 1_556 S
C289 C293 1.376 . S
C290 C288 1.394 . S
C290 C291 1.369 . S
C290 C294 1.531 . S
C291 C290 1.369 . S
C291 C292 1.410 1_544 S
C291 C299 1.503 1_545 S
C292 C291 1.410 1_566 S
C292 C293 1.392 1_565 S
C292 C295 1.511 . S
C293 C289 1.376 . S
C293 C292 1.392 1_545 S
C293 H305 0.929 1_545 S
C294 C290 1.531 . S
C294 H306 0.960 . S
C294 H307 0.962 . S
C294 H308 0.960 . S
C295 C292 1.511 . S
C295 H309 0.961 . S
C295 H310 0.961 . S
C295 H311 0.961 . S
C296 C297 1.370 1_556 S
C296 C298 1.363 1_565 S
C296 H312 0.931 . S
C297 C296 1.370 1_554 S
C297 C301 1.408 . S
C298 C296 1.363 1_545 S
C298 C299 1.370 1_546 S
C298 C302 1.524 . S
C299 C291 1.503 1_565 S
C299 C298 1.370 1_564 S
C299 C300 1.403 . S
C300 C299 1.403 . S
C300 C301 1.404 . S
C300 C303 1.539 . S
C301 C297 1.408 . S
C301 C300 1.404 . S
C301 H313 0.930 . S
C302 C298 1.524 . S
C302 H314 0.956 . S
C302 H315 0.961 . S
C302 H316 0.961 . S
C303 C300 1.539 . S
C303 H317 0.958 . S
C303 H318 0.961 . S
C303 H319 0.960 . S
H304 C288 0.931 . S
H305 C293 0.929 1_565 S
H306 C294 0.960 . S
H307 C294 0.962 . S
H308 C294 0.960 . S
H309 C295 0.961 . S
H310 C295 0.961 . S
H311 C295 0.961 . S
H312 C296 0.931 . S
H313 C301 0.930 . S
H314 C302 0.956 . S
H315 C302 0.961 . S
H316 C302 0.961 . S
H317 C303 0.958 . S
H318 C303 0.961 . S
H319 C303 0.960 . S
C320 C321 1.391 . S
C320 C322 1.394 1_565 S
C320 H336 0.931 . S
C321 C320 1.391 . S
C321 C325 1.376 . S
C322 C320 1.394 1_545 S
C322 C323 1.369 1_545 S
C322 C326 1.531 . S
C323 C322 1.369 1_565 S
C323 C324 1.410 . S
C323 C331 1.503 1_565 S
C324 C323 1.410 . S
C324 C325 1.392 . S
C324 C327 1.511 . S
C325 C321 1.376 . S
C325 C324 1.392 . S
C325 H337 0.929 . S
C326 C322 1.531 . S
C326 H338 0.960 . S
C326 H339 0.962 . S
C326 H340 0.960 . S
C327 C324 1.511 . S
C327 H341 0.961 . S
C327 H342 0.961 . S
C327 H343 0.961 . S
C328 C329 1.370 . S
C328 C330 1.363 1_545 S
C328 H344 0.931 1_545 S
C329 C328 1.370 . S
C329 C333 1.408 . S
C330 C328 1.363 1_565 S
C330 C331 1.370 1_565 S
C330 C334 1.524 . S
C331 C323 1.503 1_545 S
C331 C330 1.370 1_545 S
C331 C332 1.403 . S
C332 C331 1.403 . S
C332 C333 1.404 . S
C332 C335 1.539 . S
C333 C329 1.408 . S
C333 C332 1.404 . S
C333 H345 0.930 . S
C334 C330 1.524 . S
C334 H346 0.956 . S
C334 H347 0.961 . S
C334 H348 0.961 . S
C335 C332 1.539 . S
C335 H349 0.958 . S
C335 H350 0.961 . S
C335 H351 0.960 . S
H336 C320 0.931 . S
H337 C325 0.929 . S
H338 C326 0.960 . S
H339 C326 0.962 . S
H340 C326 0.960 . S
H341 C327 0.961 . S
H342 C327 0.961 . S
H343 C327 0.961 . S
H344 C328 0.931 1_565 S
H345 C333 0.930 . S
H346 C334 0.956 . S
H347 C334 0.961 . S
H348 C334 0.961 . S
H349 C335 0.958 . S
H350 C335 0.961 . S
H351 C335 0.960 . S
C352 C353 1.391 . S
C352 C354 1.394 . S
C352 H368 0.931 . S
C353 C352 1.391 . S
C353 C357 1.376 1_556 S
C354 C352 1.394 . S
C354 C355 1.369 . S
C354 C358 1.531 . S
C355 C354 1.369 . S
C355 C356 1.410 1_556 S
C355 C363 1.503 1_655 S
C356 C355 1.410 1_554 S
C356 C357 1.392 . S
C356 C359 1.511 1_655 S
C357 C353 1.376 1_554 S
C357 C356 1.392 . S
C357 H369 0.929 . S
C358 C354 1.531 . S
C358 H370 0.960 . S
C358 H371 0.962 . S
C358 H372 0.960 . S
C359 C356 1.511 1_455 S
C359 H373 0.961 1_455 S
C359 H374 0.961 . S
C359 H375 0.961 . S
C360 C361 1.370 . S
C360 C362 1.363 . S
C360 H376 0.931 . S
C361 C360 1.370 . S
C361 C365 1.408 1_554 S
C362 C360 1.363 . S
C362 C363 1.370 1_554 S
C362 C366 1.524 1_455 S
C363 C355 1.503 1_455 S
C363 C362 1.370 1_556 S
C363 C364 1.403 . S
C364 C363 1.403 . S
C364 C365 1.404 . S
C364 C367 1.539 . S
C365 C361 1.408 1_556 S
C365 C364 1.404 . S
C365 H377 0.930 . S
C366 C362 1.524 1_655 S
C366 H378 0.956 . S
C366 H379 0.961 . S
C366 H380 0.961 1_655 S
C367 C364 1.539 . S
C367 H381 0.958 . S
C367 H382 0.961 . S
C367 H383 0.960 . S
H368 C352 0.931 . S
H369 C357 0.929 . S
H370 C358 0.960 . S
H371 C358 0.962 . S
H372 C358 0.960 . S
H373 C359 0.961 1_655 S
H374 C359 0.961 . S
H375 C359 0.961 . S
H376 C360 0.931 . S
H377 C365 0.930 . S
H378 C366 0.956 . S
H379 C366 0.961 . S
H380 C366 0.961 1_455 S
H381 C367 0.958 . S
H382 C367 0.961 . S
H383 C367 0.960 . S
C384 C385 1.391 . S
C384 C386 1.394 . S
C384 H400 0.931 . S
C385 C384 1.391 . S
C385 C389 1.376 . S
C386 C384 1.394 . S
C386 C387 1.369 . S
C386 C390 1.531 . S
C387 C386 1.369 . S
C387 C388 1.410 . S
C387 C395 1.503 1_455 S
C388 C387 1.410 . S
C388 C389 1.392 . S
C388 C391 1.511 . S
C389 C385 1.376 . S
C389 C388 1.392 . S
C389 H401 0.929 . S
C390 C386 1.531 . S
C390 H402 0.960 1_455 S
C390 H403 0.962 1_455 S
C390 H404 0.960 . S
C391 C388 1.511 . S
C391 H405 0.961 . S
C391 H406 0.961 . S
C391 H407 0.961 . S
C392 C393 1.370 . S
C392 C394 1.363 . S
C392 H408 0.931 . S
C393 C392 1.370 . S
C393 C397 1.408 . S
C394 C392 1.363 . S
C394 C395 1.370 . S
C394 C398 1.524 . S
C395 C387 1.503 1_655 S
C395 C394 1.370 . S
C395 C396 1.403 . S
C396 C395 1.403 . S
C396 C397 1.404 . S
C396 C399 1.539 1_655 S
C397 C393 1.408 . S
C397 C396 1.404 . S
C397 H409 0.930 . S
C398 C394 1.524 . S
C398 H410 0.956 . S
C398 H411 0.961 . S
C398 H412 0.961 . S
C399 C396 1.539 1_455 S
C399 H413 0.958 . S
C399 H414 0.961 . S
C399 H415 0.960 . S
H400 C384 0.931 . S
H401 C389 0.929 . S
H402 C390 0.960 1_655 S
H403 C390 0.962 1_655 S
H404 C390 0.960 . S
H405 C391 0.961 . S
H406 C391 0.961 . S
H407 C391 0.961 . S
H408 C392 0.931 . S
H409 C397 0.930 . S
H410 C398 0.956 . S
H411 C398 0.961 . S
H412 C398 0.961 . S
H413 C399 0.958 . S
H414 C399 0.961 . S
H415 C399 0.960 . S
C416 C417 1.391 1_455 S
C416 C418 1.394 . S
C416 H432 0.931 . S
C417 C416 1.391 1_655 S
C417 C421 1.376 . S
C418 C416 1.394 . S
C418 C419 1.376 . S
C418 C422 1.531 . S
C419 C418 1.376 . S
C419 C420 1.401 1_455 S
C419 C427 1.502 . S
C420 C419 1.401 1_655 S
C420 C421 1.392 . S
C420 C423 1.511 . S
C421 C417 1.376 . S
C421 C420 1.392 . S
C421 H433 0.929 . S
C422 C418 1.531 . S
C422 H434 0.960 . S
C422 H435 0.962 1_565 S
C422 H436 0.960 . S
C423 C420 1.511 . S
C423 H437 0.963 . S
C423 H438 0.961 . S
C423 H439 0.961 . S
C424 C425 1.370 1_545 S
C424 C426 1.363 . S
C424 H440 0.931 . S
C425 C424 1.370 1_565 S
C425 C429 1.408 . S
C426 C424 1.363 . S
C426 C427 1.372 1_545 S
C426 C430 1.524 . S
C427 C419 1.502 . S
C427 C426 1.372 1_565 S
C427 C428 1.404 . S
C428 C427 1.404 . S
C428 C429 1.404 . S
C428 C431 1.539 1_455 S
C429 C425 1.408 . S
C429 C428 1.404 . S
C429 H441 0.929 . S
C430 C426 1.524 . S
C430 H442 0.956 . S
C430 H443 0.961 1_455 S
C430 H444 0.961 1_455 S
C431 C428 1.539 1_655 S
C431 H445 0.958 1_655 S
C431 H446 0.961 . S
C431 H447 0.960 . S
H432 C416 0.931 . S
H433 C421 0.929 . S
H434 C422 0.960 . S
H435 C422 0.962 1_545 S
H436 C422 0.960 . S
H437 C423 0.963 . S
H438 C423 0.961 . S
H439 C423 0.961 . S
H440 C424 0.931 . S
H441 C429 0.929 . S
H442 C430 0.956 . S
H443 C430 0.961 1_655 S
H444 C430 0.961 1_655 S
H445 C431 0.958 1_455 S
H446 C431 0.961 . S
H447 C431 0.960 . S
C448 C449 1.391 1_655 S
C448 C450 1.394 . S
C448 H464 0.931 . S
C449 C448 1.391 1_455 S
C449 C453 1.376 1_545 S
C450 C448 1.394 . S
C450 C451 1.369 1_655 S
C450 C454 1.531 . S
C451 C450 1.369 1_455 S
C451 C452 1.410 1_545 S
C451 C459 1.503 . S
C452 C451 1.410 1_565 S
C452 C453 1.392 . S
C452 C455 1.511 . S
C453 C449 1.376 1_565 S
C453 C452 1.392 . S
C453 H465 0.929 . S
C454 C450 1.531 . S
C454 H466 0.960 . S
C454 H467 0.962 . S
C454 H468 0.960 . S
C455 C452 1.511 . S
C455 H469 0.961 . S
C455 H470 0.961 . S
C455 H471 0.961 . S
C456 C457 1.370 1_665 S
C456 C458 1.363 . S
C456 H472 0.931 . S
C457 C456 1.370 1_445 S
C457 C461 1.408 . S
C458 C456 1.363 . S
C458 C459 1.370 1_665 S
C458 C462 1.524 . S
C459 C451 1.503 . S
C459 C458 1.370 1_445 S
C459 C460 1.403 . S
C460 C459 1.403 . S
C460 C461 1.404 . S
C460 C463 1.539 . S
C461 C457 1.408 . S
C461 C460 1.404 . S
C461 H473 0.930 . S
C462 C458 1.524 . S
C462 H474 0.956 . S
C462 H475 0.961 . S
C462 H476 0.961 . S
C463 C460 1.539 . S
C463 H477 0.958 . S
C463 H478 0.961 . S
C463 H479 0.960 . S
H464 C448 0.931 . S
H465 C453 0.929 . S
H466 C454 0.960 . S
H467 C454 0.962 . S
H468 C454 0.960 . S
H469 C455 0.961 . S
H470 C455 0.961 . S
H471 C455 0.961 . S
H472 C456 0.931 . S
H473 C461 0.930 . S
H474 C462 0.956 . S
H475 C462 0.961 . S
H476 C462 0.961 . S
H477 C463 0.958 . S
H478 C463 0.961 . S
H479 C463 0.960 . S
C480 C481 1.391 . S
C480 C482 1.394 . S
C480 H496 0.931 . S
C481 C480 1.391 . S
C481 C485 1.376 . S
C482 C480 1.394 . S
C482 C483 1.369 . S
C482 C486 1.531 . S
C483 C482 1.369 . S
C483 C484 1.410 . S
C483 C491 1.503 . S
C484 C483 1.410 . S
C484 C485 1.392 . S
C484 C487 1.511 . S
C485 C481 1.376 . S
C485 C484 1.392 . S
C485 H497 0.929 . S
C486 C482 1.531 . S
C486 H498 0.960 . S
C486 H499 0.962 . S
C486 H500 0.960 . S
C487 C484 1.511 . S
C487 H501 0.961 . S
C487 H502 0.961 . S
C487 H503 0.961 . S
C488 C489 1.370 . S
C488 C490 1.363 . S
C488 H504 0.931 . S
C489 C488 1.370 . S
C489 C493 1.408 . S
C490 C488 1.363 . S
C490 C491 1.370 . S
C490 C494 1.524 . S
C491 C483 1.503 . S
C491 C490 1.370 . S
C491 C492 1.403 . S
C492 C491 1.403 . S
C492 C493 1.404 . S
C492 C495 1.539 . S
C493 C489 1.408 . S
C493 C492 1.404 . S
C493 H505 0.930 . S
C494 C490 1.524 . S
C494 H506 0.956 . S
C494 H507 0.961 . S
C494 H508 0.961 . S
C495 C492 1.539 . S
C495 H509 0.958 . S
C495 H510 0.961 . S
C495 H511 0.960 . S
H496 C480 0.931 . S
H497 C485 0.929 . S
H498 C486 0.960 . S
H499 C486 0.962 . S
H500 C486 0.960 . S
H501 C487 0.961 . S
H502 C487 0.961 . S
H503 C487 0.961 . S
H504 C488 0.931 . S
H505 C493 0.930 . S
H506 C494 0.956 . S
H507 C494 0.961 . S
H508 C494 0.961 . S
H509 C495 0.958 . S
H510 C495 0.961 . S
H511 C495 0.960 . S
C512 C513 1.391 . S
C512 C514 1.394 . S
C512 H528 0.931 . S
C513 C512 1.391 . S
C513 C517 1.376 . S
C514 C512 1.394 . S
C514 C515 1.369 . S
C514 C518 1.531 . S
C515 C514 1.369 . S
C515 C516 1.410 . S
C515 C523 1.503 . S
C516 C515 1.410 . S
C516 C517 1.392 . S
C516 C519 1.511 . S
C517 C513 1.376 . S
C517 C516 1.392 . S
C517 H529 0.929 . S
C518 C514 1.531 . S
C518 H530 0.960 . S
C518 H531 0.962 . S
C518 H532 0.960 . S
C519 C516 1.511 . S
C519 H533 0.961 . S
C519 H534 0.961 . S
C519 H535 0.961 . S
C520 C521 1.370 . S
C520 C522 1.363 . S
C520 H536 0.931 . S
C521 C520 1.370 . S
C521 C525 1.408 . S
C522 C520 1.363 . S
C522 C523 1.370 . S
C522 C526 1.524 . S
C523 C515 1.503 . S
C523 C522 1.370 . S
C523 C524 1.403 . S
C524 C523 1.403 . S
C524 C525 1.404 . S
C524 C527 1.539 . S
C525 C521 1.408 . S
C525 C524 1.404 . S
C525 H537 0.930 . S
C526 C522 1.524 . S
C526 H538 0.956 . S
C526 H539 0.961 . S
C526 H540 0.961 . S
C527 C524 1.539 . S
C527 H541 0.958 . S
C527 H542 0.961 . S
C527 H543 0.960 . S
H528 C512 0.931 . S
H529 C517 0.929 . S
H530 C518 0.960 . S
H531 C518 0.962 . S
H532 C518 0.960 . S
H533 C519 0.961 . S
H534 C519 0.961 . S
H535 C519 0.961 . S
H536 C520 0.931 . S
H537 C525 0.930 . S
H538 C526 0.956 . S
H539 C526 0.961 . S
H540 C526 0.961 . S
H541 C527 0.958 . S
H542 C527 0.961 . S
H543 C527 0.960 . S
C161 C102 1.591 . S
C169 C3 1.612 . S
C193 C83 1.606 . S
C201 C22 1.602 . S
C225 C62 1.597 . S
C233 C123 1.608 . S
C257 C43 1.617 . S
C265 C142 1.599 . S
C289 C26 1.395 . S
C297 C9 1.436 . S
C321 C49 1.392 . S
C329 C66 1.436 . S
C353 C106 1.447 . S
C361 C89 1.413 . S
C385 C146 1.392 . S
C393 C129 1.436 . S
C417 C55 1.485 1_565 S
C425 C15 1.478 1_565 S
C449 C2 1.491 1_445 S
C457 C42 1.471 1_545 S
C481 C135 1.470 . S
C489 C95 1.460 . S
C513 C122 1.443 . S
C521 C82 1.471 . S
