# Generated by pormake.
# Topology lcy-e, (6)-cn, num edge types: 1
# Building blocks:
#     Node 0, Type 0, BuildingBlock: PAMTOO_clean_sbu_0, # of connection points: 6
#     Node 1, Type 0, BuildingBlock: PAMTOO_clean_sbu_0, # of connection points: 6
#     Node 2, Type 0, BuildingBlock: PAMTOO_clean_sbu_0, # of connection points: 6
#     Node 3, Type 0, BuildingBlock: PAMTOO_clean_sbu_0, # of connection points: 6
#     Node 4, Type 0, BuildingBlock: PAMTOO_clean_sbu_0, # of connection points: 6
#     Node 5, Type 0, BuildingBlock: PAMTOO_clean_sbu_0, # of connection points: 6
#     Node 6, Type 0, BuildingBlock: PAMTOO_clean_sbu_0, # of connection points: 6
#     Node 7, Type 0, BuildingBlock: PAMTOO_clean_sbu_0, # of connection points: 6
#     Node 8, Type 0, BuildingBlock: PAMTOO_clean_sbu_0, # of connection points: 6
#     Node 9, Type 0, BuildingBlock: PAMTOO_clean_sbu_0, # of connection points: 6
#     Node 10, Type 0, BuildingBlock: PAMTOO_clean_sbu_0, # of connection points: 6
#     Node 11, Type 0, BuildingBlock: PAMTOO_clean_sbu_0, # of connection points: 6
#     Edge 12, Type (0, 0), BuildingBlock: AJUNOK_clean_linker_0, # of connection points: 2
#     Edge 13, Type (0, 0), BuildingBlock: AJUNOK_clean_linker_0, # of connection points: 2
#     Edge 14, Type (0, 0), BuildingBlock: AJUNOK_clean_linker_0, # of connection points: 2
#     Edge 15, Type (0, 0), BuildingBlock: AJUNOK_clean_linker_0, # of connection points: 2
#     Edge 16, Type (0, 0), BuildingBlock: AJUNOK_clean_linker_0, # of connection points: 2
#     Edge 17, Type (0, 0), BuildingBlock: AJUNOK_clean_linker_0, # of connection points: 2
#     Edge 18, Type (0, 0), BuildingBlock: AJUNOK_clean_linker_0, # of connection points: 2
#     Edge 19, Type (0, 0), BuildingBlock: AJUNOK_clean_linker_0, # of connection points: 2
#     Edge 20, Type (0, 0), BuildingBlock: AJUNOK_clean_linker_0, # of connection points: 2
#     Edge 21, Type (0, 0), BuildingBlock: AJUNOK_clean_linker_0, # of connection points: 2
#     Edge 22, Type (0, 0), BuildingBlock: AJUNOK_clean_linker_0, # of connection points: 2
#     Edge 23, Type (0, 0), BuildingBlock: AJUNOK_clean_linker_0, # of connection points: 2
#     Edge 24, Type (0, 0), BuildingBlock: AJUNOK_clean_linker_0, # of connection points: 2
#     Edge 25, Type (0, 0), BuildingBlock: AJUNOK_clean_linker_0, # of connection points: 2
#     Edge 26, Type (0, 0), BuildingBlock: AJUNOK_clean_linker_0, # of connection points: 2
#     Edge 27, Type (0, 0), BuildingBlock: AJUNOK_clean_linker_0, # of connection points: 2
#     Edge 28, Type (0, 0), BuildingBlock: AJUNOK_clean_linker_0, # of connection points: 2
#     Edge 29, Type (0, 0), BuildingBlock: AJUNOK_clean_linker_0, # of connection points: 2
#     Edge 30, Type (0, 0), BuildingBlock: AJUNOK_clean_linker_0, # of connection points: 2
#     Edge 31, Type (0, 0), BuildingBlock: AJUNOK_clean_linker_0, # of connection points: 2
#     Edge 32, Type (0, 0), BuildingBlock: AJUNOK_clean_linker_0, # of connection points: 2
#     Edge 33, Type (0, 0), BuildingBlock: AJUNOK_clean_linker_0, # of connection points: 2
#     Edge 34, Type (0, 0), BuildingBlock: AJUNOK_clean_linker_0, # of connection points: 2
#     Edge 35, Type (0, 0), BuildingBlock: AJUNOK_clean_linker_0, # of connection points: 2
#     Edge 36, Type (0, 0), BuildingBlock: AJUNOK_clean_linker_0, # of connection points: 2
#     Edge 37, Type (0, 0), BuildingBlock: AJUNOK_clean_linker_0, # of connection points: 2
#     Edge 38, Type (0, 0), BuildingBlock: AJUNOK_clean_linker_0, # of connection points: 2
#     Edge 39, Type (0, 0), BuildingBlock: AJUNOK_clean_linker_0, # of connection points: 2
#     Edge 40, Type (0, 0), BuildingBlock: AJUNOK_clean_linker_0, # of connection points: 2
#     Edge 41, Type (0, 0), BuildingBlock: AJUNOK_clean_linker_0, # of connection points: 2
#     Edge 42, Type (0, 0), BuildingBlock: AJUNOK_clean_linker_0, # of connection points: 2
#     Edge 43, Type (0, 0), BuildingBlock: AJUNOK_clean_linker_0, # of connection points: 2
#     Edge 44, Type (0, 0), BuildingBlock: AJUNOK_clean_linker_0, # of connection points: 2
#     Edge 45, Type (0, 0), BuildingBlock: AJUNOK_clean_linker_0, # of connection points: 2
#     Edge 46, Type (0, 0), BuildingBlock: AJUNOK_clean_linker_0, # of connection points: 2
#     Edge 47, Type (0, 0), BuildingBlock: AJUNOK_clean_linker_0, # of connection points: 2
# Relax obj value: 0.146
# Max RMSD: 0.315
# Mean RMSD: 0.296
data_MOF--net-lcy-e--node1-PAMTOO_clean_sbu_0--edge1-AJUNOK_clean_linker_0
_symmetry_space_group_name_H-M    P1
_symmetry_Int_Tables_number       1
_symmetry_cell_setting            triclinic
loop_
_symmetry_equiv_pos_as_xyz
'x, y, z'
_cell_length_a     34.949401
_cell_length_b     34.329199
_cell_length_c     35.524402
_cell_angle_alpha  89.945626
_cell_angle_beta   89.910288
_cell_angle_gamma 89.477418
loop_
_atom_site_label
_atom_site_type_symbol
_atom_site_fract_x
_atom_site_fract_y
_atom_site_fract_z
_atom_type_partial_charge
Dy0 Dy 0.13358 0.28881 0.46428 0.0
Dy1 Dy 0.15993 0.22302 0.5266 0.0
C2 C 0.20329 0.22916 0.45021 0.0
O3 O 0.08351 0.25086 0.47262 0.0
O4 O 0.11763 0.19598 0.48657 0.0
O5 O 0.10711 0.30076 0.41069 0.0
O6 O 0.13058 0.34817 0.44346 0.0
O7 O 0.1062 0.24809 0.54874 0.0
O8 O 0.11115 0.30851 0.52162 0.0
O9 O 0.18527 0.28106 0.54399 0.0
O10 O 0.19004 0.30687 0.48509 0.0
O11 O 0.16896 0.20238 0.58343 0.0
O12 O 0.18088 0.1644 0.53607 0.0
C13 C 0.0861 0.2129 0.47426 0.0
O14 O 0.17218 0.24476 0.43539 0.0
O15 O 0.20792 0.22771 0.48666 0.0
C16 C 0.1366 0.35224 0.37683 0.0
C17 C 0.16952 0.38242 0.31012 0.0
C18 C 0.16682 0.34199 0.31553 0.0
C19 C 0.15048 0.32701 0.34854 0.0
C20 C 0.14067 0.39252 0.37199 0.0
C21 C 0.15717 0.40743 0.33918 0.0
C22 C 0.117 0.33734 0.41092 0.0
C23 C 0.09991 0.28565 0.54952 0.0
C24 C 0.19671 0.30911 0.52116 0.0
C25 C 0.15359 0.13512 0.58995 0.0
C26 C 0.111 0.07396 0.62244 0.0
C27 C 0.10263 0.113 0.63138 0.0
C28 C 0.12355 0.14328 0.61522 0.0
C29 C 0.16179 0.09609 0.58082 0.0
C30 C 0.14066 0.0658 0.59681 0.0
C31 C 0.17611 0.16675 0.57243 0.0
H32 H 0.1763 0.32199 0.29379 0.0
H33 H 0.14817 0.29573 0.35157 0.0
H34 H 0.13062 0.41257 0.39346 0.0
H35 H 0.15988 0.43871 0.33636 0.0
H36 H 0.07994 0.12009 0.65111 0.0
H37 H 0.11626 0.17302 0.62272 0.0
H38 H 0.18479 0.08897 0.56145 0.0
H39 H 0.14823 0.03597 0.58997 0.0
Dy40 Dy 0.04691 0.90039 0.78194 0.0
Dy41 Dy 0.98278 0.87619 0.71941 0.0
C42 C 0.06083 0.83119 0.72315 0.0
O43 O 0.04196 0.95066 0.74317 0.0
O44 O 0.02469 0.91648 0.69095 0.0
O45 O 0.10122 0.92626 0.79503 0.0
O46 O 0.06613 0.90261 0.83982 0.0
O47 O 0.9651 0.93375 0.74119 0.0
O48 O 0.98922 0.9251 0.80005 0.0
O49 O 0.96451 0.85181 0.77626 0.0
O50 O 0.02491 0.84268 0.79846 0.0
O51 O 0.92471 0.87531 0.69833 0.0
O52 O 0.97053 0.84757 0.66688 0.0
C53 C 0.03989 0.94754 0.70651 0.0
O54 O 0.07651 0.86144 0.73956 0.0
O55 O 0.02373 0.8269 0.72261 0.0
C56 C 0.13356 0.89563 0.8461 0.0
C57 C 0.19943 0.86071 0.87817 0.0
C58 C 0.19807 0.86871 0.83943 0.0
C59 C 0.16547 0.88607 0.82352 0.0
C60 C 0.13454 0.88643 0.88457 0.0
C61 C 0.167 0.86893 0.90038 0.0
C62 C 0.09964 0.91606 0.83039 0.0
C63 C 0.96253 0.93937 0.77744 0.0
C64 C 0.98812 0.83718 0.80178 0.0
C65 C 0.92141 0.87667 0.63165 0.0
C66 C 0.89613 0.90964 0.56316 0.0
C67 C 0.91303 0.93314 0.59086 0.0
C68 C 0.92574 0.91673 0.62484 0.0
C69 C 0.90543 0.85312 0.60377 0.0
C70 C 0.89293 0.8694 0.56987 0.0
C71 C 0.93479 0.85854 0.66683 0.0
H72 H 0.22261 0.8626 0.82166 0.0
H73 H 0.1656 0.89253 0.79368 0.0
H74 H 0.11033 0.89322 0.90256 0.0
H75 H 0.1669 0.86222 0.93019 0.0
H76 H 0.91535 0.96429 0.58677 0.0
H77 H 0.93855 0.93529 0.64591 0.0
H78 H 0.90244 0.82207 0.60829 0.0
H79 H 0.88025 0.85052 0.54898 0.0
Dy80 Dy 0.39901 0.73029 0.96455 0.0
Dy81 Dy 0.3787 0.79583 0.02972 0.0
C82 C 0.33141 0.7936 0.95465 0.0
O83 O 0.44874 0.76942 0.96712 0.0
O84 O 0.41757 0.82449 0.98733 0.0
O85 O 0.42407 0.71687 0.91066 0.0
O86 O 0.39851 0.67086 0.9438 0.0
O87 O 0.43521 0.77029 0.04343 0.0
O88 O 0.42287 0.70974 0.02086 0.0
O89 O 0.35226 0.73802 0.04672 0.0
O90 O 0.34232 0.71556 0.98726 0.0
O91 O 0.37746 0.81415 0.08792 0.0
O92 O 0.35669 0.85292 0.04411 0.0
C93 C 0.44612 0.80736 0.96941 0.0
O94 O 0.35985 0.7751 0.93777 0.0
O95 O 0.32906 0.79536 0.99136 0.0
C96 C 0.39233 0.6669 0.87724 0.0
C97 C 0.35938 0.63853 0.81014 0.0
C98 C 0.36194 0.6788 0.81645 0.0
C99 C 0.3783 0.69289 0.8497 0.0
C100 C 0.38829 0.62676 0.87157 0.0
C101 C 0.37178 0.61272 0.83851 0.0
C102 C 0.41254 0.68086 0.91116 0.0
C103 C 0.43875 0.73253 0.04631 0.0
C104 C 0.33756 0.712 0.02353 0.0
C105 C 0.38825 0.88198 0.09516 0.0
C106 C 0.42967 0.94534 0.12442 0.0
C107 C 0.44852 0.91029 0.11501 0.0
C108 C 0.42801 0.87891 0.10037 0.0
C109 C 0.36955 0.91717 0.10383 0.0
C110 C 0.39007 0.94863 0.11823 0.0
C111 C 0.36608 0.84945 0.07946 0.0
H112 H 0.35241 0.69932 0.79518 0.0
H113 H 0.38064 0.72409 0.85344 0.0
H114 H 0.39853 0.60617 0.89248 0.0
H115 H 0.36924 0.58153 0.83487 0.0
H116 H 0.4791 0.90717 0.11906 0.0
H117 H 0.4432 0.85227 0.09321 0.0
H118 H 0.33897 0.92027 0.0996 0.0
H119 H 0.37484 0.97524 0.12539 0.0
Dy120 Dy 0.48777 0.12295 0.27801 0.0
Dy121 Dy 0.54965 0.15046 0.2151 0.0
C122 C 0.47224 0.19441 0.22272 0.0
O123 O 0.49625 0.07224 0.24053 0.0
O124 O 0.50888 0.10798 0.18802 0.0
O125 O 0.43354 0.09601 0.28954 0.0
O126 O 0.46747 0.11877 0.33547 0.0
O127 O 0.57245 0.09479 0.23676 0.0
O128 O 0.54606 0.09898 0.29555 0.0
O129 O 0.56912 0.17379 0.2719 0.0
O130 O 0.50945 0.17984 0.2974 0.0
O131 O 0.6066 0.15599 0.1919 0.0
O132 O 0.55755 0.17891 0.16148 0.0
C133 C 0.49775 0.07531 0.20392 0.0
O134 O 0.45764 0.16197 0.23596 0.0
O135 O 0.50919 0.19942 0.22306 0.0
C136 C 0.39989 0.12617 0.34011 0.0
C137 C 0.33407 0.16308 0.37059 0.0
C138 C 0.33498 0.15189 0.33257 0.0
C139 C 0.36758 0.1337 0.31744 0.0
C140 C 0.39912 0.13792 0.37791 0.0
C141 C 0.36671 0.1563 0.39291 0.0
C142 C 0.43415 0.10564 0.32507 0.0
C143 C 0.57415 0.08764 0.27286 0.0
C144 C 0.5462 0.18625 0.29913 0.0
C145 C 0.60752 0.15246 0.12501 0.0
C146 C 0.63325 0.11934 0.05668 0.0
C147 C 0.62773 0.0958 0.08862 0.0
C148 C 0.6149 0.11222 0.12254 0.0
C149 C 0.61174 0.17569 0.09284 0.0
C150 C 0.62431 0.1593 0.05897 0.0
C151 C 0.594 0.17066 0.16026 0.0
H152 H 0.31013 0.15608 0.3148 0.0
H153 H 0.36715 0.12504 0.28814 0.0
H154 H 0.42351 0.13256 0.39604 0.0
H155 H 0.36702 0.16486 0.42225 0.0
H156 H 0.63443 0.06495 0.08765 0.0
H157 H 0.61114 0.09358 0.14687 0.0
H158 H 0.60548 0.20664 0.09397 0.0
H159 H 0.62758 0.17801 0.03463 0.0
Dy160 Dy 0.65612 0.29538 0.47025 0.0
Dy161 Dy 0.63083 0.2313 0.53291 0.0
C162 C 0.58457 0.30763 0.52509 0.0
O163 O 0.70636 0.28778 0.50743 0.0
O164 O 0.67173 0.27381 0.55993 0.0
O165 O 0.67938 0.35236 0.45955 0.0
O166 O 0.66173 0.316 0.41297 0.0
O167 O 0.68563 0.20852 0.51153 0.0
O168 O 0.68172 0.23646 0.45298 0.0
O169 O 0.60844 0.21118 0.47578 0.0
O170 O 0.60155 0.27159 0.44929 0.0
O171 O 0.62467 0.17335 0.55597 0.0
O172 O 0.60488 0.22362 0.58752 0.0
C173 C 0.70362 0.28575 0.54404 0.0
O174 O 0.61584 0.32421 0.51226 0.0
O175 O 0.58127 0.26996 0.52319 0.0
C176 C 0.65251 0.38402 0.40697 0.0
C177 C 0.61401 0.44855 0.37465 0.0
C178 C 0.59481 0.42366 0.39971 0.0
C179 C 0.61394 0.39164 0.41578 0.0
C180 C 0.67181 0.40902 0.38243 0.0
C181 C 0.65277 0.44094 0.3664 0.0
C182 C 0.67305 0.35047 0.42343 0.0
C183 C 0.69323 0.20786 0.47556 0.0
C184 C 0.59567 0.23406 0.4484 0.0
C185 C 0.63076 0.17158 0.6223 0.0
C186 C 0.66613 0.14358 0.68854 0.0
C187 C 0.68803 0.16133 0.66015 0.0
C188 C 0.67044 0.17533 0.62729 0.0
C189 C 0.60881 0.15465 0.65083 0.0
C190 C 0.6263 0.14076 0.68361 0.0
C191 C 0.61167 0.18624 0.58813 0.0
H192 H 0.56482 0.42833 0.40611 0.0
H193 H 0.5986 0.37262 0.4348 0.0
H194 H 0.70161 0.40374 0.3755 0.0
H195 H 0.66837 0.45967 0.34733 0.0
H196 H 0.71881 0.16334 0.66284 0.0
H197 H 0.6878 0.1887 0.60562 0.0
H198 H 0.57812 0.15195 0.64767 0.0
H199 H 0.60867 0.12737 0.70504 0.0
Dy200 Dy 0.98373 0.39775 0.71633 0.0
Dy201 Dy 0.04738 0.37226 0.78041 0.0
C202 C 0.97161 0.32616 0.77302 0.0
O203 O 0.99068 0.44885 0.75321 0.0
O204 O 1.00488 0.41449 0.80629 0.0
O205 O 0.92736 0.42165 0.70546 0.0
O206 O 0.96322 0.40243 0.6591 0.0
O207 O 0.06891 0.42697 0.75616 0.0
O208 O 0.04166 0.42132 0.6977 0.0
O209 O 0.06618 0.34638 0.72413 0.0
O210 O 1.00667 0.34077 0.69849 0.0
O211 O 0.10481 0.36693 0.80261 0.0
O212 O 0.0564 0.34856 0.83614 0.0
C213 C 0.99144 0.44618 0.78987 0.0
O214 O 0.95573 0.35791 0.75889 0.0
O215 O 1.0088 0.32228 0.77393 0.0
C216 C 0.89622 0.39225 0.65412 0.0
C217 C 0.83276 0.35202 0.62447 0.0
C218 C 0.86683 0.33191 0.63339 0.0
C219 C 0.89823 0.35181 0.6482 0.0
C220 C 0.86196 0.41219 0.64609 0.0
C221 C 0.83048 0.39226 0.63151 0.0
C222 C 0.92906 0.41384 0.66957 0.0
C223 C 0.06974 0.43311 0.71987 0.0
C224 C 0.04354 0.33462 0.69658 0.0
C225 C 0.10741 0.37764 0.86864 0.0
C226 C 0.13476 0.4184 0.93221 0.0
C227 C 0.1244 0.43857 0.89919 0.0
C228 C 0.11072 0.4184 0.86774 0.0
C229 C 0.11686 0.35757 0.90182 0.0
C230 C 0.1303 0.37775 0.93335 0.0
C231 C 0.09294 0.35588 0.8358 0.0
H232 H 0.86922 0.3008 0.62874 0.0
H233 H 0.92413 0.33564 0.65484 0.0
H234 H 0.85965 0.44329 0.65084 0.0
H235 H 0.80465 0.40849 0.6248 0.0
H236 H 0.12704 0.46995 0.89768 0.0
H237 H 0.10288 0.43461 0.84269 0.0
H238 H 0.11408 0.3262 0.90326 0.0
H239 H 0.13818 0.36145 0.95833 0.0
Dy240 Dy 0.87394 0.72594 0.96822 0.0
Dy241 Dy 0.89952 0.78678 0.03324 0.0
C242 C 0.94589 0.71034 0.02069 0.0
O243 O 0.82399 0.7325 1.00568 0.0
O244 O 0.85787 0.74377 0.05902 0.0
O245 O 0.85041 0.66954 0.95571 0.0
O246 O 0.86809 0.70762 0.91031 0.0
O247 O 0.8456 0.81187 1.01194 0.0
O248 O 0.84893 0.78535 0.95265 0.0
O249 O 0.92263 0.80873 0.97699 0.0
O250 O 0.92914 0.74928 0.94868 0.0
O251 O 0.90631 0.84409 0.0573 0.0
O252 O 0.92558 0.79287 0.08792 0.0
C253 C 0.8269 0.7307 0.04223 0.0
O254 O 0.91361 0.6951 1.00909 0.0
O255 O 0.94926 0.74805 0.02296 0.0
C256 C 0.87985 0.63946 0.90279 0.0
C257 C 0.92093 0.57646 0.8703 0.0
C258 C 0.8984 0.57075 0.90256 0.0
C259 C 0.87799 0.60188 0.91857 0.0
C260 C 0.90257 0.64512 0.87058 0.0
C261 C 0.92287 0.61399 0.85456 0.0
C262 C 0.85806 0.67237 0.91983 0.0
C263 C 0.83753 0.81317 0.97607 0.0
C264 C 0.93587 0.78659 0.94932 0.0
C265 C 0.90143 0.84504 0.12381 0.0
C266 C 0.86849 0.87505 0.19033 0.0
C267 C 0.84507 0.86215 0.16081 0.0
C268 C 0.86145 0.84721 0.12772 0.0
C269 C 0.92472 0.85642 0.1538 0.0
C270 C 0.90843 0.87115 0.18682 0.0
C271 C 0.91945 0.83036 0.0891 0.0
H272 H 0.89566 0.54199 0.91479 0.0
H273 H 0.86046 0.59639 0.94314 0.0
H274 H 0.90457 0.67357 0.85755 0.0
H275 H 0.93996 0.61922 0.82963 0.0
H276 H 0.81423 0.86487 0.16282 0.0
H277 H 0.84298 0.83794 0.10502 0.0
H278 H 0.9556 0.85432 0.15152 0.0
H279 H 0.92711 0.88027 0.20941 0.0
Dy280 Dy 0.48241 0.64782 0.28021 0.0
Dy281 Dy 0.54553 0.62231 0.21683 0.0
C282 C 0.53945 0.57524 0.29178 0.0
O283 O 0.5209 0.69814 0.27367 0.0
O284 O 0.57398 0.66268 0.25841 0.0
O285 O 0.47203 0.67307 0.33488 0.0
O286 O 0.42447 0.6526 0.30147 0.0
O287 O 0.52219 0.67922 0.19838 0.0
O288 O 0.46263 0.6714 0.22344 0.0
O289 O 0.48789 0.59719 0.19927 0.0
O290 O 0.46259 0.59146 0.25832 0.0
O291 O 0.56651 0.61883 0.15957 0.0
O292 O 0.60089 0.59638 0.2056 0.0
C293 C 0.55815 0.69454 0.27235 0.0
O294 O 0.52524 0.60693 0.30755 0.0
O295 O 0.54016 0.57189 0.25515 0.0
C296 C 0.42098 0.64286 0.36788 0.0
C297 C 0.39103 0.60456 0.43201 0.0
C298 C 0.42787 0.62055 0.43285 0.0
C299 C 0.44269 0.63949 0.40115 0.0
C300 C 0.38439 0.62631 0.36694 0.0
C301 C 0.36968 0.6073 0.39854 0.0
C302 C 0.4358 0.66423 0.3346 0.0
C303 C 0.48526 0.68504 0.19671 0.0
C304 C 0.46043 0.58501 0.22215 0.0
C305 C 0.63406 0.62385 0.15446 0.0
C306 C 0.69988 0.65884 0.12341 0.0
C307 C 0.67202 0.68168 0.14191 0.0
C308 C 0.6393 0.6643 0.15733 0.0
C309 C 0.66249 0.60095 0.13731 0.0
C310 C 0.69511 0.61821 0.12207 0.0
C311 C 0.59975 0.60477 0.16983 0.0
H312 H 0.44474 0.61962 0.45839 0.0
H313 H 0.47093 0.65206 0.40301 0.0
H314 H 0.36689 0.62844 0.34186 0.0
H315 H 0.34123 0.59513 0.39696 0.0
H316 H 0.67498 0.71302 0.1434 0.0
H317 H 0.61791 0.68243 0.17103 0.0
H318 H 0.65929 0.56964 0.1354 0.0
H319 H 0.71643 0.59978 0.10864 0.0
Dy320 Dy 0.28833 0.4719 0.10713 0.0
Dy321 Dy 0.2252 0.53678 0.13484 0.0
C322 C 0.23305 0.45886 0.17841 0.0
O323 O 0.25068 0.48218 0.05816 0.0
O324 O 0.19758 0.49573 0.09302 0.0
O325 O 0.29731 0.41402 0.08477 0.0
O326 O 0.34582 0.45054 0.09744 0.0
O327 O 0.24839 0.5607 0.08212 0.0
O328 O 0.30731 0.53094 0.08471 0.0
O329 O 0.28298 0.55453 0.15921 0.0
O330 O 0.31154 0.49413 0.16054 0.0
O331 O 0.20379 0.59552 0.14268 0.0
O332 O 0.16868 0.54631 0.15789 0.0
C333 C 0.21352 0.48467 0.06108 0.0
O334 O 0.24676 0.44308 0.14736 0.0
O335 O 0.2323 0.49656 0.1827 0.0
C336 C 0.35206 0.38279 0.11099 0.0
C337 C 0.38606 0.32043 0.15143 0.0
C338 C 0.35214 0.31476 0.13111 0.0
C339 C 0.33537 0.3456 0.11101 0.0
C340 C 0.38585 0.38841 0.13162 0.0
C341 C 0.40258 0.35763 0.15161 0.0
C342 C 0.3343 0.41541 0.08957 0.0
C343 C 0.28499 0.56057 0.07481 0.0
C344 C 0.31192 0.53126 0.16859 0.0
C345 C 0.13731 0.6 0.13062 0.0
C346 C 0.07418 0.62894 0.08934 0.0
C347 C 0.10768 0.61659 0.07071 0.0
C348 C 0.13893 0.60214 0.09116 0.0
C349 C 0.10369 0.61159 0.14924 0.0
C350 C 0.07233 0.62587 0.12877 0.0
C351 C 0.16969 0.5838 0.15227 0.0
H352 H 0.33921 0.28624 0.12982 0.0
H353 H 0.3095 0.3402 0.09516 0.0
H354 H 0.3996 0.41656 0.13222 0.0
H355 H 0.42876 0.36284 0.16704 0.0
H356 H 0.10968 0.61813 0.04031 0.0
H357 H 0.16435 0.59258 0.07617 0.0
H358 H 0.10171 0.60964 0.17962 0.0
H359 H 0.04692 0.63533 0.14382 0.0
Dy360 Dy 0.72583 0.9862 0.86327 0.0
Dy361 Dy 0.79058 0.04957 0.88719 0.0
C362 C 0.71224 0.04838 0.92967 0.0
O363 O 0.73338 0.02443 0.81394 0.0
O364 O 0.75027 0.07911 0.84599 0.0
O365 O 0.67057 0.97508 0.83893 0.0
O366 O 0.70624 0.92684 0.85772 0.0
O367 O 0.80999 0.02474 0.83307 0.0
O368 O 0.78424 0.96482 0.84296 0.0
O369 O 0.80543 0.99112 0.91457 0.0
O370 O 0.74438 0.9696 0.9203 0.0
O371 O 0.84945 0.0679 0.89187 0.0
O372 O 0.80334 0.1058 0.91069 0.0
C373 C 0.73538 0.06234 0.81611 0.0
O374 O 0.69657 0.03111 0.90043 0.0
O375 O 0.74931 0.04866 0.93413 0.0
C376 C 0.63922 0.92091 0.86647 0.0
C377 C 0.57499 0.88692 0.90148 0.0
C378 C 0.57734 0.92755 0.89774 0.0
C379 C 0.60915 0.94443 0.8804 0.0
C380 C 0.63733 0.88043 0.87122 0.0
C381 C 0.60575 0.86363 0.88883 0.0
C382 C 0.6723 0.93789 0.84648 0.0
C383 C 0.81115 0.98709 0.82839 0.0
C384 C 0.78074 0.96516 0.92738 0.0
C385 C 0.85658 0.13578 0.88347 0.0
C386 C 0.88801 0.20054 0.846 0.0
C387 C 0.86491 0.17408 0.82639 0.0
C388 C 0.84925 0.14194 0.84503 0.0
C389 C 0.87906 0.16238 0.90318 0.0
C390 C 0.89467 0.19443 0.88463 0.0
C391 C 0.83983 0.10266 0.90367 0.0
H392 H 0.55414 0.9462 0.90732 0.0
H393 H 0.60986 0.97582 0.87749 0.0
H394 H 0.66021 0.8617 0.86102 0.0
H395 H 0.60524 0.83229 0.89226 0.0
H396 H 0.85978 0.17766 0.79652 0.0
H397 H 0.83166 0.12174 0.82946 0.0
H398 H 0.88462 0.15831 0.93293 0.0
H399 H 0.91219 0.21443 0.9005 0.0
Dy400 Dy 0.74301 0.97038 0.38629 0.0
Dy401 Dy 0.80774 0.03507 0.36299 0.0
C402 C 0.80017 0.95903 0.3165 0.0
O403 O 0.78116 0.97522 0.43531 0.0
O404 O 0.83507 0.99147 0.40286 0.0
O405 O 0.73132 0.91309 0.40828 0.0
O406 O 0.68449 0.95097 0.39135 0.0
O407 O 0.78581 0.05457 0.41782 0.0
O408 O 0.72603 0.02888 0.41214 0.0
O409 O 0.75014 0.05599 0.34038 0.0
O410 O 0.72264 0.99614 0.33306 0.0
O411 O 0.82815 0.09389 0.35635 0.0
O412 O 0.86462 0.04482 0.34128 0.0
C413 C 0.8184 0.97651 0.43281 0.0
O414 O 0.78535 0.94193 0.34629 0.0
O415 O 0.8002 0.99691 0.31382 0.0
C416 C 0.67723 0.88328 0.38189 0.0
C417 C 0.64325 0.82006 0.34407 0.0
C418 C 0.67065 0.84318 0.32576 0.0
C419 C 0.68753 0.87456 0.34456 0.0
C420 C 0.65026 0.8601 0.40027 0.0
C421 C 0.63341 0.82883 0.38157 0.0
C422 C 0.69462 0.91604 0.40218 0.0
C423 C 0.74909 0.05668 0.42411 0.0
C424 C 0.72223 0.03378 0.3277 0.0
C425 C 0.89491 0.09883 0.36906 0.0
C426 C 0.95731 0.12983 0.40931 0.0
C427 C 0.91954 0.13688 0.42135 0.0
C428 C 0.88864 0.12138 0.40157 0.0
C429 C 0.93268 0.09151 0.35724 0.0
C430 C 0.96359 0.10677 0.37721 0.0
C431 C 0.86272 0.08225 0.34751 0.0
H432 H 0.67833 0.83759 0.29671 0.0
H433 H 0.70839 0.89219 0.32992 0.0
H434 H 0.64212 0.86625 0.42912 0.0
H435 H 0.61253 0.81148 0.39647 0.0
H436 H 0.91394 0.15462 0.44599 0.0
H437 H 0.85991 0.12728 0.41166 0.0
H438 H 0.93826 0.07419 0.33231 0.0
H439 H 0.99236 0.10149 0.36691 0.0
Dy440 Dy 0.2383 0.54857 0.61033 0.0
Dy441 Dy 0.30404 0.48475 0.63558 0.0
C442 C 0.2965 0.56372 0.67826 0.0
O443 O 0.27647 0.54183 0.56123 0.0
O444 O 0.33075 0.52615 0.5937 0.0
O445 O 0.22483 0.60405 0.58498 0.0
O446 O 0.17926 0.56794 0.60689 0.0
O447 O 0.28074 0.46205 0.58245 0.0
O448 O 0.22079 0.4892 0.58778 0.0
O449 O 0.24693 0.46586 0.66037 0.0
O450 O 0.22104 0.52664 0.66601 0.0
O451 O 0.32682 0.42625 0.6414 0.0
O452 O 0.35979 0.47567 0.66016 0.0
C453 C 0.31375 0.54035 0.56352 0.0
O454 O 0.28044 0.57927 0.64821 0.0
O455 O 0.29816 0.52601 0.68277 0.0
C456 C 0.17247 0.63629 0.61463 0.0
C457 C 0.13983 0.70191 0.65091 0.0
C458 C 0.17969 0.69857 0.64675 0.0
C459 C 0.19589 0.66607 0.62878 0.0
C460 C 0.13277 0.63914 0.61978 0.0
C461 C 0.11664 0.67143 0.63795 0.0
C462 C 0.18876 0.60231 0.59438 0.0
C463 C 0.24397 0.46096 0.57611 0.0
C464 C 0.21903 0.48923 0.67205 0.0
C465 C 0.39413 0.42318 0.63428 0.0
C466 C 0.45995 0.39283 0.59848 0.0
C467 C 0.43098 0.41097 0.57719 0.0
C468 C 0.39822 0.42604 0.595 0.0
C469 C 0.42371 0.40656 0.65561 0.0
C470 C 0.45637 0.3916 0.6379 0.0
C471 C 0.35986 0.43837 0.65357 0.0
H472 H 0.19824 0.72151 0.65659 0.0
H473 H 0.2267 0.66454 0.62565 0.0
H474 H 0.11415 0.61642 0.60954 0.0
H475 H 0.08589 0.67267 0.64166 0.0
H476 H 0.43306 0.41222 0.54679 0.0
H477 H 0.37584 0.43938 0.57814 0.0
H478 H 0.42134 0.40475 0.68598 0.0
H479 H 0.47854 0.37821 0.65497 0.0
C480 C 0.20492 0.38128 0.51363 0.0
C481 C 0.20942 0.34741 0.53606 0.0
C482 C 0.21429 0.41843 0.52719 0.0
C483 C 0.22886 0.42309 0.56355 0.0
H484 H 0.19372 0.37931 0.4853 0.0
H485 H 0.21105 0.44344 0.50881 0.0
S486 S 0.24654 0.34471 0.63366 0.0
N487 N 0.22925 0.32167 0.59671 0.0
N488 N 0.24768 0.39121 0.62184 0.0
C489 C 0.2335 0.38973 0.5863 0.0
C490 C 0.22353 0.35199 0.5727 0.0
C491 C 0.86061 0.97932 0.77845 0.0
C492 C 0.84792 0.97072 0.81497 0.0
C493 C 0.89814 0.97029 0.76704 0.0
C494 C 0.92493 0.95343 0.79211 0.0
H495 H 0.84146 0.99348 0.75864 0.0
H496 H 0.90614 0.97664 0.73823 0.0
S497 S 0.90688 0.92974 0.8924 0.0
N498 N 0.86543 0.94664 0.87686 0.0
N499 N 0.93636 0.93118 0.85611 0.0
C500 C 0.91286 0.94607 0.82918 0.0
C501 C 0.87429 0.95429 0.84041 0.0
C502 C 0.32795 0.64027 1.01464 0.0
C503 C 0.32365 0.6738 0.03752 0.0
C504 C 0.31721 0.60314 0.02731 0.0
C505 C 0.30123 0.59827 0.06311 0.0
H506 H 0.34007 0.6425 0.98668 0.0
H507 H 0.32045 0.57839 1.00865 0.0
S508 S 0.28408 0.67575 0.13423 0.0
N509 N 0.30299 0.69898 0.09808 0.0
N510 N 0.28171 0.62958 0.1215 0.0
C511 C 0.29675 0.63133 0.08628 0.0
C512 C 0.30826 0.66899 0.07363 0.0
C513 C 0.64443 0.07455 0.26464 0.0
C514 C 0.61146 0.07321 0.28784 0.0
C515 C 0.68075 0.06366 0.27809 0.0
C516 C 0.68551 0.05086 0.31519 0.0
H517 H 0.64243 0.0844 0.23573 0.0
H518 H 0.70503 0.06438 0.25912 0.0
S519 S 0.60945 0.04193 0.38769 0.0
N520 N 0.58673 0.05841 0.35012 0.0
N521 N 0.65473 0.03714 0.37506 0.0
C522 C 0.65307 0.04931 0.33872 0.0
C523 C 0.61614 0.06073 0.32518 0.0
C524 C 0.74084 0.1661 0.44081 0.0
C525 C 0.70625 0.16987 0.46038 0.0
C526 C 0.75456 0.12919 0.42987 0.0
C527 C 0.73382 0.09478 0.43745 0.0
H528 H 0.75782 0.19161 0.43479 0.0
H529 H 0.78159 0.12775 0.41498 0.0
S530 S 0.64024 0.08975 0.48597 0.0
N531 N 0.65089 0.13651 0.48606 0.0
N532 N 0.67614 0.06755 0.46433 0.0
C533 C 0.69866 0.09846 0.45604 0.0
C534 C 0.68511 0.13587 0.4679 0.0
C535 C 0.11137 0.48299 0.68912 0.0
C536 C 0.10693 0.44565 0.70424 0.0
C537 C 0.14786 0.49684 0.67955 0.0
C538 C 0.1813 0.47372 0.68433 0.0
H539 H 0.08671 0.50201 0.68571 0.0
H540 H 0.14968 0.526 0.6681 0.0
S541 S 0.18444 0.3734 0.7227 0.0
N542 N 0.13866 0.38568 0.72379 0.0
N543 N 0.20689 0.41129 0.70481 0.0
C544 C 0.17695 0.43602 0.69881 0.0
C545 C 0.13988 0.42217 0.70907 0.0
C546 C 0.83125 0.92141 0.95583 0.0
C547 C 0.79393 0.92643 0.94189 0.0
C548 C 0.84527 0.88432 0.96585 0.0
C549 C 0.82273 0.85076 0.96188 0.0
H550 H 0.84984 0.94628 0.95886 0.0
H551 H 0.87411 0.88183 0.97682 0.0
S552 S 0.72226 0.84749 0.93004 0.0
N553 N 0.73372 0.89396 0.92732 0.0
N554 N 0.761 0.8247 0.9454 0.0
C555 C 0.78532 0.85514 0.94883 0.0
C556 C 0.77065 0.89288 0.93918 0.0
C557 C 0.38917 0.57799 0.22853 0.0
C558 C 0.42303 0.57085 0.20754 0.0
C559 C 0.35294 0.56671 0.21537 0.0
C560 C 0.3492 0.54718 0.18101 0.0
H561 H 0.39048 0.59288 0.25535 0.0
H562 H 0.32792 0.57242 0.23261 0.0
S563 S 0.42793 0.52273 0.1144 0.0
N564 N 0.44968 0.54433 0.14984 0.0
N565 N 0.38204 0.52222 0.12554 0.0
C566 C 0.38262 0.54015 0.15958 0.0
C567 C 0.41938 0.55221 0.17268 0.0
C568 C 0.53861 0.22533 0.35816 0.0
C569 C 0.56119 0.20002 0.33593 0.0
C570 C 0.54906 0.23483 0.39521 0.0
C571 C 0.58166 0.2182 0.41216 0.0
H572 H 0.51259 0.23801 0.34677 0.0
H573 H 0.53157 0.25556 0.41069 0.0
S574 S 0.65081 0.15061 0.36638 0.0
N575 N 0.61827 0.1591 0.33364 0.0
N576 N 0.63701 0.17597 0.40355 0.0
C577 C 0.60432 0.19265 0.39044 0.0
C578 C 0.59435 0.18384 0.35228 0.0
C579 C 0.05065 0.3177 0.59064 0.0
C580 C 0.08738 0.30184 0.58612 0.0
C581 C 0.03676 0.32747 0.62659 0.0
C582 C 0.0592 0.32211 0.65942 0.0
H583 H 0.03214 0.32147 0.56645 0.0
H584 H 1.00808 0.33951 0.6285 0.0
S585 S 0.15783 0.28185 0.66205 0.0
N586 N 0.14615 0.28116 0.61703 0.0
N587 N 0.12037 0.30037 0.68434 0.0
C588 C 0.0963 0.30695 0.65499 0.0
C589 C 0.11024 0.29654 0.61844 0.0
C590 C 0.93875 0.8352 0.85356 0.0
C591 C 0.97406 0.82229 0.8387 0.0
C592 C 0.9278 0.82609 0.89074 0.0
C593 C 0.95148 0.80328 0.91419 0.0
H594 H 0.91972 0.85304 0.83663 0.0
H595 H 0.9 0.83579 0.90075 0.0
S596 S 0.04532 0.75993 0.88845 0.0
N597 N 0.03204 0.78436 0.85051 0.0
N598 N 1.01061 0.76634 0.91947 0.0
C599 C 0.98628 0.78947 0.89947 0.0
C600 C 0.99777 0.79918 0.86201 0.0
C601 C 0.48985 0.72806 0.14031 0.0
C602 C 0.47008 0.69891 0.16005 0.0
C603 C 0.48046 0.7376 0.103 0.0
C604 C 0.4519 0.7174 0.08331 0.0
H605 H 0.51296 0.74353 0.15382 0.0
H606 H 0.49572 0.7611 0.08941 0.0
S607 S 0.39241 0.63773 0.12177 0.0
N608 N 0.42058 0.64983 0.15707 0.0
N609 N 0.40401 0.66662 0.08644 0.0
C610 C 0.43228 0.68776 0.10249 0.0
C611 C 0.44104 0.67887 0.14097 0.0
C612 C 0.21845 0.38561 0.25761 0.0
C613 C 0.18385 0.39887 0.27391 0.0
C614 C 0.23363 0.40353 0.22515 0.0
C615 C 0.21466 0.43528 0.20817 0.0
H616 H 0.23461 0.36227 0.27083 0.0
H617 H 0.26111 0.39375 0.21442 0.0
S618 S 0.12038 0.4767 0.23594 0.0
N619 N 0.12895 0.44235 0.26743 0.0
N620 N 0.1577 0.47626 0.20742 0.0
C621 C 0.17914 0.4472 0.22296 0.0
C622 C 0.16366 0.42895 0.25556 0.0
C623 C 0.84085 0.91651 0.51952 0.0
C624 C 0.8784 0.92697 0.52888 0.0
C625 C 0.82243 0.93235 0.48815 0.0
C626 C 0.84065 0.9594 0.46444 0.0
H627 H 0.82517 0.89629 0.53703 0.0
H628 H 0.79339 0.92322 0.48258 0.0
S629 S 0.93945 0.99606 0.47595 0.0
N630 N 0.93374 0.96563 0.51157 0.0
N631 N 0.89879 0.99572 0.45225 0.0
C632 C 0.87846 0.9699 0.47304 0.0
C633 C 0.89731 0.95378 0.50541 0.0
C634 C 0.29519 0.61835 0.72546 0.0
C635 C 0.31489 0.58768 0.7075 0.0
C636 C 0.31022 0.63581 0.75811 0.0
C637 C 0.34533 0.62307 0.7736 0.0
H638 H 0.26723 0.62744 0.71546 0.0
H639 H 0.29353 0.65821 0.77219 0.0
S640 S 0.41061 0.54833 0.73295 0.0
N641 N 0.37303 0.54853 0.70487 0.0
N642 N 0.40139 0.5815 0.76541 0.0
C643 C 0.36624 0.59425 0.75423 0.0
C644 C 0.35098 0.57652 0.72139 0.0
C645 C 0.63721 0.06879 1.00511 0.0
C646 C 0.65118 0.103 0.02203 0.0
C647 C 0.65563 0.05207 0.97361 0.0
C648 C 0.68896 0.06871 0.95857 0.0
H649 H 0.61218 0.05466 0.01658 0.0
H650 H 0.64474 0.02518 0.96204 0.0
S651 S 0.73629 0.15878 0.99168 0.0
N652 N 0.69978 0.15316 0.02062 0.0
N653 N 0.73399 0.12215 0.96176 0.0
C654 C 0.70245 0.10341 0.97465 0.0
C655 C 0.6837 0.12044 1.00629 0.0
C656 C 0.67484 0.08624 0.73071 0.0
C657 C 0.68462 0.12471 0.7217 0.0
C658 C 0.69139 0.06692 0.76131 0.0
C659 C 0.71845 0.08517 0.78461 0.0
H660 H 0.65445 0.07058 0.71361 0.0
H661 H 0.68259 0.03726 0.76673 0.0
S662 S 0.75396 0.18602 0.7734 0.0
N663 N 0.72308 0.18077 0.7386 0.0
N664 N 0.75433 0.14423 0.79654 0.0
C665 C 0.72847 0.12381 0.7762 0.0
C666 C 0.71169 0.14355 0.74458 0.0
C667 C 0.15667 0.45102 0.0327 0.0
C668 C 0.1904 0.47258 0.02811 0.0
C669 C 0.1382 0.43423 1.0015 0.0
C670 C 0.15237 0.43914 0.96462 0.0
H671 H 0.14551 0.44553 0.06065 0.0
H672 H 0.11302 0.41674 1.00631 0.0
S673 S 0.23814 0.4955 0.93738 0.0
N674 N 0.23596 0.49969 0.98363 0.0
N675 N 0.20122 0.46857 0.92539 0.0
C676 C 0.18507 0.46208 0.95964 0.0
C677 C 0.20407 0.47868 0.99127 0.0
C678 C 0.8064 0.89883 0.2761 0.0
C679 C 0.81866 0.93647 0.28571 0.0
C680 C 0.82246 0.87887 0.24512 0.0
C681 C 0.85175 0.89566 0.22331 0.0
H682 H 0.78371 0.88513 0.29198 0.0
H683 H 0.81202 0.85014 0.23824 0.0
S684 S 0.89465 0.99296 0.23739 0.0
N685 N 0.8626 0.98916 0.27128 0.0
N686 N 0.89218 0.9519 0.21348 0.0
C687 C 0.86451 0.93295 0.23304 0.0
C688 C 0.84814 0.95326 0.26415 0.0
C689 C 0.31768 0.58446 0.50811 0.0
C690 C 0.33579 0.55683 0.53158 0.0
C691 C 0.33601 0.5997 0.47646 0.0
C692 C 0.37329 0.58793 0.46656 0.0
H693 H 0.28889 0.59462 0.5142 0.0
H694 H 0.32077 0.6211 0.45963 0.0
S695 S 0.43341 0.51588 0.5181 0.0
N696 N 0.39334 0.51829 0.54279 0.0
N697 N 0.42785 0.54664 0.48266 0.0
C698 C 0.39211 0.56064 0.48992 0.0
C699 C 0.37337 0.54517 0.52254 0.0
C700 C 0.25494 0.17995 0.44185 0.0
C701 C 0.23368 0.21122 0.4267 0.0
C702 C 0.28654 0.16424 0.42295 0.0
C703 C 0.29862 0.17927 0.38814 0.0
H704 H 0.24736 0.16764 0.46893 0.0
H705 H 0.30188 0.14022 0.43599 0.0
S706 S 0.25232 0.26065 0.33579 0.0
N707 N 0.22605 0.25605 0.37423 0.0
N708 N 0.28624 0.22691 0.33869 0.0
C709 C 0.277 0.20986 0.37197 0.0
C710 C 0.24436 0.22575 0.39125 0.0
C711 C 0.08913 0.04239 0.68179 0.0
C712 C 0.09096 0.04191 0.64232 0.0
C713 C 0.07213 0.01203 0.70182 0.0
C714 C 0.05597 0.97974 0.68338 0.0
H715 H 0.10173 0.06607 0.69743 0.0
H716 H 0.07217 0.01393 0.7323 0.0
S717 S 0.05083 0.96604 0.57983 0.0
N718 N 0.07358 1.00766 0.58509 0.0
N719 N 0.04137 0.95033 0.6228 0.0
C720 C 0.05678 0.97931 0.64372 0.0
C721 C 0.07439 1.01037 0.62323 0.0
C722 C 0.25428 0.81248 0.8811 0.0
C723 C 0.23502 0.84535 0.8959 0.0
C724 C 0.28662 0.79648 0.89922 0.0
C725 C 0.30053 0.81281 0.93277 0.0
H726 H 0.24359 0.79836 0.85602 0.0
H727 H 0.29985 0.77041 0.88774 0.0
S728 S 0.2641 0.9025 0.97951 0.0
N729 N 0.23512 0.89618 0.94344 0.0
N730 N 0.29514 0.86604 0.97766 0.0
C731 C 0.28264 0.84676 0.94666 0.0
C732 C 0.25007 0.86304 0.92822 0.0
C733 C 0.46503 0.04742 0.14716 0.0
C734 C 0.48481 0.0417 0.18121 0.0
C735 C 0.4479 0.01601 0.12839 0.0
C736 C 0.45065 0.97775 0.14262 0.0
H737 H 0.46132 0.07652 0.13584 0.0
H738 H 0.43188 0.02174 0.10286 0.0
S739 S 0.50169 0.94697 0.22927 0.0
N740 N 0.50792 0.99453 0.22722 0.0
N741 N 0.476 0.93583 0.19191 0.0
C742 C 0.47171 0.97151 0.17575 0.0
C743 C 0.48871 1.0034 0.19503 0.0
C744 C 0.76285 0.3349 0.62013 0.0
C745 C 0.8004 0.33172 0.60582 0.0
C746 C 0.73166 0.31822 0.60114 0.0
C747 C 0.73688 0.29853 0.56676 0.0
H748 H 0.75751 0.35082 0.64595 0.0
H749 H 0.70316 0.32218 0.61263 0.0
S750 S 0.82962 0.28072 0.51824 0.0
N751 N 0.84103 0.30608 0.55598 0.0
N752 N 0.7828 0.27512 0.52028 0.0
C753 C 0.77443 0.29429 0.55278 0.0
C754 C 0.80608 0.31077 0.57229 0.0
C755 C 0.95141 0.50657 0.79318 0.0
C756 C 0.97452 0.47885 0.81193 0.0
C757 C 0.93457 0.53787 0.81235 0.0
C758 C 0.94 0.543 0.85117 0.0
H759 H 0.94579 0.50403 0.76331 0.0
H760 H 0.91662 0.55797 0.79662 0.0
S761 S 0.99951 0.48023 0.91339 0.0
N762 N 1.00295 0.45941 0.8716 0.0
N763 N 0.97124 0.51864 0.90772 0.0
C764 C 0.9632 0.51579 0.87043 0.0
C765 C 0.98047 0.48368 0.85081 0.0
C766 C 0.7882 0.72033 0.10172 0.0
C767 C 0.79518 0.71192 0.0635 0.0
C768 C 0.75712 0.70352 0.12108 0.0
C769 C 0.73241 0.6772 0.10305 0.0
H770 H 0.80645 0.74046 0.1166 0.0
H771 H 0.7526 0.71084 0.15041 0.0
S772 S 0.73823 0.64516 1.00351 0.0
N773 N 0.7746 0.67494 1.00867 0.0
N774 N 0.71672 0.64409 0.04484 0.0
C775 C 0.73923 0.66851 0.06501 0.0
C776 C 0.77045 0.68563 0.04532 0.0
C777 C 0.59735 0.48448 0.31575 0.0
C778 C 0.59352 0.48091 0.35496 0.0
C779 C 0.57944 0.51478 0.29599 0.0
C780 C 0.55692 0.54321 0.31447 0.0
H781 H 0.61429 0.46348 0.30003 0.0
H782 H 0.58379 0.51599 0.26581 0.0
S783 S 0.53715 0.54678 0.41713 0.0
N784 N 0.56513 0.5081 0.41183 0.0
N785 N 0.53124 0.56529 0.37456 0.0
C786 C 0.55248 0.53989 0.35376 0.0
C787 C 0.5707 0.50866 0.37398 0.0
C788 C 0.44539 0.28152 0.16265 0.0
C789 C 0.40625 0.28724 0.16989 0.0
C790 C 0.46593 0.25126 0.17971 0.0
C791 C 0.4483 0.22513 0.20479 0.0
H792 H 0.46037 0.30056 0.14337 0.0
H793 H 0.49605 0.24833 0.1729 0.0
S794 S 0.34639 0.22782 0.23404 0.0
N795 N 0.35043 0.26463 0.2043 0.0
N796 N 0.38923 0.20716 0.23632 0.0
C797 C 0.409 0.23012 0.21211 0.0
C798 C 0.38794 0.26127 0.19468 0.0
C799 C 0.9671 0.26774 0.81432 0.0
C800 C 0.94855 0.29471 0.79042 0.0
C801 C 0.94718 0.23763 0.8318 0.0
C802 C 0.90776 0.23282 0.82615 0.0
H803 H 0.99744 0.26994 0.82003 0.0
H804 H 0.96297 0.21769 0.84977 0.0
S805 S 0.84539 0.29475 0.76587 0.0
N806 N 0.88825 0.31423 0.76161 0.0
N807 N 0.85059 0.2573 0.79475 0.0
C808 C 0.88866 0.25918 0.80208 0.0
C809 C 0.90906 0.29025 0.78429 0.0
C810 C 1.00414 0.63381 0.07313 0.0
C811 C 0.04192 0.64692 0.06805 0.0
C812 C 0.97302 0.65282 0.05567 0.0
C813 C 0.97866 0.68601 0.0332 0.0
H814 H 0.99858 0.60913 0.0913 0.0
H815 H 0.94431 0.64269 0.06133 0.0
S816 S 0.07192 0.73069 1.00932 0.0
N817 N 0.08313 0.69398 0.03738 0.0
N818 N 0.02491 0.72976 1.00501 0.0
C819 C 0.01636 0.69849 0.02687 0.0
C820 C 0.04793 0.67894 0.04418 0.0
C821 C 0.58292 0.78657 0.32598 0.0
C822 C 0.62301 0.78824 0.32393 0.0
C823 C 0.56265 0.75655 0.30875 0.0
C824 C 0.58143 0.7265 0.28872 0.0
H825 H 0.56695 0.80878 0.34108 0.0
H826 H 0.53178 0.75684 0.31173 0.0
S827 S 0.68637 0.7178 0.27411 0.0
N828 N 0.68105 0.75763 0.29974 0.0
N829 N 0.64282 0.701 0.26708 0.0
C830 C 0.6216 0.72804 0.28589 0.0
C831 C 0.64237 0.75895 0.30345 0.0
C832 C 0.54703 0.36986 0.53673 0.0
C833 C 0.55344 0.33001 0.54412 0.0
C834 C 0.5165 0.39028 0.55401 0.0
C835 C 0.49197 0.37165 0.57975 0.0
H836 H 0.56527 0.38517 0.51709 0.0
H837 H 0.51226 0.42085 0.5475 0.0
S838 S 0.49638 0.26802 0.60898 0.0
N839 N 0.53236 0.27303 0.57935 0.0
N840 N 0.47568 0.31131 0.61126 0.0
C841 C 0.49821 0.33203 0.5874 0.0
C842 C 0.52877 0.31126 0.56977 0.0
C843 C 0.13519 0.75254 0.70227 0.0
C844 C 0.12211 0.73743 0.66771 0.0
C845 C 0.11653 0.78436 0.71963 0.0
C846 C 0.08417 0.80178 0.70299 0.0
H847 H 0.15913 0.73885 0.71658 0.0
H848 H 0.12641 0.79422 0.74686 0.0
S849 S 0.04257 0.77749 0.61001 0.0
N850 N 0.07785 0.74573 0.61554 0.0
N851 N 0.04257 0.8046 0.64834 0.0
C852 C 0.07221 0.78827 0.66763 0.0
C853 C 0.09122 0.75632 0.64994 0.0
C854 C 0.4923 0.86309 0.96777 0.0
C855 C 0.47613 0.83031 0.95052 0.0
C856 C 0.52393 0.88188 0.9515 0.0
C857 C 0.54012 0.86858 0.9174 0.0
H858 H 0.48144 0.8733 0.99462 0.0
H859 H 0.5365 0.90621 0.96625 0.0
S860 S 0.50393 0.78786 0.85831 0.0
N861 N 0.47593 0.78794 0.89576 0.0
N862 N 0.53447 0.82358 0.86494 0.0
C863 C 0.52269 0.83717 0.89902 0.0
C864 C 0.49092 0.81798 0.91564 0.0
C865 C 0.98847 0.18975 0.43366 0.0
C866 C 0.98978 0.14925 0.42835 0.0
C867 C 0.01945 0.20959 0.44917 0.0
C868 C 0.05317 0.18983 0.46027 0.0
H869 H 0.96363 0.20647 0.42479 0.0
H870 H 0.01694 0.24094 0.45192 0.0
S871 S 0.06951 0.08291 0.45531 0.0
N872 N 0.02633 0.08944 0.4374 0.0
N873 N 0.08483 0.1267 0.46678 0.0
C874 C 0.05437 0.14901 0.45624 0.0
C875 C 0.0227 0.12877 0.44016 0.0
loop_
_geom_bond_atom_site_label_1
_geom_bond_atom_site_label_2
_geom_bond_distance
_geom_bond_site_symmetry_2
_ccdc_geom_bond_type
Dy0 O3 2.307 . S
Dy0 O5 2.395 . S
Dy0 O6 2.379 . S
Dy0 O8 2.339 . S
Dy0 O10 2.298 . S
Dy0 O14 2.275 . S
Dy0 C22 2.738 . S
Dy1 O4 2.298 . S
Dy1 O7 2.275 . S
Dy1 O9 2.307 . S
Dy1 O11 2.395 . S
Dy1 O12 2.379 . S
Dy1 O15 2.339 . S
Dy1 C31 2.738 . S
C2 O14 1.254 . S
C2 O15 1.257 . S
O3 Dy0 2.307 . S
O3 C13 1.266 . S
O4 Dy1 2.298 . S
O4 C13 1.236 . S
O5 Dy0 2.395 . S
O5 C22 1.255 . S
O6 Dy0 2.379 . S
O6 C22 1.249 . S
O7 Dy1 2.275 . S
O7 C23 1.254 . S
O8 Dy0 2.339 . S
O8 C23 1.257 . S
O9 Dy1 2.307 . S
O9 C24 1.266 . S
O10 Dy0 2.298 . S
O10 C24 1.236 . S
O11 Dy1 2.395 . S
O11 C31 1.255 . S
O12 Dy1 2.379 . S
O12 C31 1.249 . S
C13 O3 1.266 . S
C13 O4 1.236 . S
O14 Dy0 2.275 . S
O14 C2 1.254 . S
O15 Dy1 2.339 . S
O15 C2 1.257 . S
C16 C19 1.344 . S
C16 C20 1.328 . S
C16 C22 1.516 . S
C17 C18 1.304 . S
C17 C21 1.323 . S
C18 C17 1.304 . S
C18 C19 1.371 . S
C18 H32 0.930 . S
C19 C16 1.344 . S
C19 C18 1.371 . S
C19 H33 0.931 . S
C20 C16 1.328 . S
C20 C21 1.433 . S
C20 H34 0.931 . S
C21 C17 1.323 . S
C21 C20 1.433 . S
C21 H35 0.933 . S
C22 Dy0 2.738 . S
C22 O5 1.255 . S
C22 O6 1.249 . S
C22 C16 1.516 . S
C23 O7 1.254 . S
C23 O8 1.257 . S
C24 O9 1.266 . S
C24 O10 1.236 . S
C25 C28 1.344 . S
C25 C29 1.328 . S
C25 C31 1.516 . S
C26 C27 1.304 . S
C26 C30 1.323 . S
C27 C26 1.304 . S
C27 C28 1.371 . S
C27 H36 0.930 . S
C28 C25 1.344 . S
C28 C27 1.371 . S
C28 H37 0.931 . S
C29 C25 1.328 . S
C29 C30 1.433 . S
C29 H38 0.931 . S
C30 C26 1.323 . S
C30 C29 1.433 . S
C30 H39 0.933 . S
C31 Dy1 2.738 . S
C31 O11 1.255 . S
C31 O12 1.249 . S
C31 C25 1.516 . S
H32 C18 0.930 . S
H33 C19 0.931 . S
H34 C20 0.931 . S
H35 C21 0.933 . S
H36 C27 0.930 . S
H37 C28 0.931 . S
H38 C29 0.931 . S
H39 C30 0.933 . S
Dy40 O43 2.307 . S
Dy40 O45 2.395 . S
Dy40 O46 2.379 . S
Dy40 O48 2.339 . S
Dy40 O50 2.298 . S
Dy40 O54 2.275 . S
Dy40 C62 2.738 . S
Dy41 O44 2.298 1_655 S
Dy41 O47 2.275 . S
Dy41 O49 2.307 . S
Dy41 O51 2.395 . S
Dy41 O52 2.379 . S
Dy41 O55 2.339 1_655 S
Dy41 C71 2.738 . S
C42 O54 1.254 . S
C42 O55 1.257 . S
O43 Dy40 2.307 . S
O43 C53 1.266 . S
O44 Dy41 2.298 1_455 S
O44 C53 1.236 . S
O45 Dy40 2.395 . S
O45 C62 1.255 . S
O46 Dy40 2.379 . S
O46 C62 1.249 . S
O47 Dy41 2.275 . S
O47 C63 1.254 . S
O48 Dy40 2.339 . S
O48 C63 1.257 1_455 S
O49 Dy41 2.307 . S
O49 C64 1.266 . S
O50 Dy40 2.298 . S
O50 C64 1.236 1_455 S
O51 Dy41 2.395 . S
O51 C71 1.255 . S
O52 Dy41 2.379 . S
O52 C71 1.249 . S
C53 O43 1.266 . S
C53 O44 1.236 . S
O54 Dy40 2.275 . S
O54 C42 1.254 . S
O55 Dy41 2.339 1_455 S
O55 C42 1.257 . S
C56 C59 1.344 . S
C56 C60 1.328 . S
C56 C62 1.516 . S
C57 C58 1.304 . S
C57 C61 1.323 . S
C58 C57 1.304 . S
C58 C59 1.371 . S
C58 H72 0.930 . S
C59 C56 1.344 . S
C59 C58 1.371 . S
C59 H73 0.931 . S
C60 C56 1.328 . S
C60 C61 1.433 . S
C60 H74 0.931 . S
C61 C57 1.323 . S
C61 C60 1.433 . S
C61 H75 0.933 . S
C62 Dy40 2.738 . S
C62 O45 1.255 . S
C62 O46 1.249 . S
C62 C56 1.516 . S
C63 O47 1.254 . S
C63 O48 1.257 1_655 S
C64 O49 1.266 . S
C64 O50 1.236 1_655 S
C65 C68 1.344 . S
C65 C69 1.328 . S
C65 C71 1.516 . S
C66 C67 1.304 . S
C66 C70 1.323 . S
C67 C66 1.304 . S
C67 C68 1.371 . S
C67 H76 0.930 . S
C68 C65 1.344 . S
C68 C67 1.371 . S
C68 H77 0.931 . S
C69 C65 1.328 . S
C69 C70 1.433 . S
C69 H78 0.931 . S
C70 C66 1.323 . S
C70 C69 1.433 . S
C70 H79 0.933 . S
C71 Dy41 2.738 . S
C71 O51 1.255 . S
C71 O52 1.249 . S
C71 C65 1.516 . S
H72 C58 0.930 . S
H73 C59 0.931 . S
H74 C60 0.931 . S
H75 C61 0.933 . S
H76 C67 0.930 . S
H77 C68 0.931 . S
H78 C69 0.931 . S
H79 C70 0.933 . S
Dy80 O83 2.307 . S
Dy80 O85 2.395 . S
Dy80 O86 2.379 . S
Dy80 O88 2.339 . S
Dy80 O90 2.298 . S
Dy80 O94 2.275 . S
Dy80 C102 2.738 . S
Dy81 O84 2.298 1_554 S
Dy81 O87 2.275 . S
Dy81 O89 2.307 . S
Dy81 O91 2.395 . S
Dy81 O92 2.379 . S
Dy81 O95 2.339 1_554 S
Dy81 C111 2.738 . S
C82 O94 1.254 . S
C82 O95 1.257 . S
O83 Dy80 2.307 . S
O83 C93 1.266 . S
O84 Dy81 2.298 1_556 S
O84 C93 1.236 . S
O85 Dy80 2.395 . S
O85 C102 1.255 . S
O86 Dy80 2.379 . S
O86 C102 1.249 . S
O87 Dy81 2.275 . S
O87 C103 1.254 . S
O88 Dy80 2.339 . S
O88 C103 1.257 1_556 S
O89 Dy81 2.307 . S
O89 C104 1.266 1_554 S
O90 Dy80 2.298 . S
O90 C104 1.236 . S
O91 Dy81 2.395 . S
O91 C111 1.255 . S
O92 Dy81 2.379 . S
O92 C111 1.249 . S
C93 O83 1.266 . S
C93 O84 1.236 . S
O94 Dy80 2.275 . S
O94 C82 1.254 . S
O95 Dy81 2.339 1_556 S
O95 C82 1.257 . S
C96 C99 1.344 . S
C96 C100 1.328 . S
C96 C102 1.516 . S
C97 C98 1.304 . S
C97 C101 1.323 . S
C98 C97 1.304 . S
C98 C99 1.371 . S
C98 H112 0.930 . S
C99 C96 1.344 . S
C99 C98 1.371 . S
C99 H113 0.931 . S
C100 C96 1.328 . S
C100 C101 1.433 . S
C100 H114 0.931 . S
C101 C97 1.323 . S
C101 C100 1.433 . S
C101 H115 0.933 . S
C102 Dy80 2.738 . S
C102 O85 1.255 . S
C102 O86 1.249 . S
C102 C96 1.516 . S
C103 O87 1.254 . S
C103 O88 1.257 1_554 S
C104 O89 1.266 1_556 S
C104 O90 1.236 . S
C105 C108 1.344 . S
C105 C109 1.328 . S
C105 C111 1.516 . S
C106 C107 1.304 . S
C106 C110 1.323 . S
C107 C106 1.304 . S
C107 C108 1.371 . S
C107 H116 0.930 . S
C108 C105 1.344 . S
C108 C107 1.371 . S
C108 H117 0.931 . S
C109 C105 1.328 . S
C109 C110 1.433 . S
C109 H118 0.931 . S
C110 C106 1.323 . S
C110 C109 1.433 . S
C110 H119 0.933 . S
C111 Dy81 2.738 . S
C111 O91 1.255 . S
C111 O92 1.249 . S
C111 C105 1.516 . S
H112 C98 0.930 . S
H113 C99 0.931 . S
H114 C100 0.931 . S
H115 C101 0.933 . S
H116 C107 0.930 . S
H117 C108 0.931 . S
H118 C109 0.931 . S
H119 C110 0.933 . S
Dy120 O123 2.307 . S
Dy120 O125 2.395 . S
Dy120 O126 2.379 . S
Dy120 O128 2.339 . S
Dy120 O130 2.298 . S
Dy120 O134 2.275 . S
Dy120 C142 2.738 . S
Dy121 O124 2.298 . S
Dy121 O127 2.275 . S
Dy121 O129 2.307 . S
Dy121 O131 2.395 . S
Dy121 O132 2.379 . S
Dy121 O135 2.339 . S
Dy121 C151 2.738 . S
C122 O134 1.254 . S
C122 O135 1.257 . S
O123 Dy120 2.307 . S
O123 C133 1.266 . S
O124 Dy121 2.298 . S
O124 C133 1.236 . S
O125 Dy120 2.395 . S
O125 C142 1.255 . S
O126 Dy120 2.379 . S
O126 C142 1.249 . S
O127 Dy121 2.275 . S
O127 C143 1.254 . S
O128 Dy120 2.339 . S
O128 C143 1.257 . S
O129 Dy121 2.307 . S
O129 C144 1.266 . S
O130 Dy120 2.298 . S
O130 C144 1.236 . S
O131 Dy121 2.395 . S
O131 C151 1.255 . S
O132 Dy121 2.379 . S
O132 C151 1.249 . S
C133 O123 1.266 . S
C133 O124 1.236 . S
O134 Dy120 2.275 . S
O134 C122 1.254 . S
O135 Dy121 2.339 . S
O135 C122 1.257 . S
C136 C139 1.344 . S
C136 C140 1.328 . S
C136 C142 1.516 . S
C137 C138 1.304 . S
C137 C141 1.323 . S
C138 C137 1.304 . S
C138 C139 1.371 . S
C138 H152 0.930 . S
C139 C136 1.344 . S
C139 C138 1.371 . S
C139 H153 0.931 . S
C140 C136 1.328 . S
C140 C141 1.433 . S
C140 H154 0.931 . S
C141 C137 1.323 . S
C141 C140 1.433 . S
C141 H155 0.933 . S
C142 Dy120 2.738 . S
C142 O125 1.255 . S
C142 O126 1.249 . S
C142 C136 1.516 . S
C143 O127 1.254 . S
C143 O128 1.257 . S
C144 O129 1.266 . S
C144 O130 1.236 . S
C145 C148 1.344 . S
C145 C149 1.328 . S
C145 C151 1.516 . S
C146 C147 1.304 . S
C146 C150 1.323 . S
C147 C146 1.304 . S
C147 C148 1.371 . S
C147 H156 0.930 . S
C148 C145 1.344 . S
C148 C147 1.371 . S
C148 H157 0.931 . S
C149 C145 1.328 . S
C149 C150 1.433 . S
C149 H158 0.931 . S
C150 C146 1.323 . S
C150 C149 1.433 . S
C150 H159 0.933 . S
C151 Dy121 2.738 . S
C151 O131 1.255 . S
C151 O132 1.249 . S
C151 C145 1.516 . S
H152 C138 0.930 . S
H153 C139 0.931 . S
H154 C140 0.931 . S
H155 C141 0.933 . S
H156 C147 0.930 . S
H157 C148 0.931 . S
H158 C149 0.931 . S
H159 C150 0.933 . S
Dy160 O163 2.307 . S
Dy160 O165 2.395 . S
Dy160 O166 2.379 . S
Dy160 O168 2.339 . S
Dy160 O170 2.298 . S
Dy160 O174 2.275 . S
Dy160 C182 2.738 . S
Dy161 O164 2.298 . S
Dy161 O167 2.275 . S
Dy161 O169 2.307 . S
Dy161 O171 2.395 . S
Dy161 O172 2.379 . S
Dy161 O175 2.339 . S
Dy161 C191 2.738 . S
C162 O174 1.254 . S
C162 O175 1.257 . S
O163 Dy160 2.307 . S
O163 C173 1.266 . S
O164 Dy161 2.298 . S
O164 C173 1.236 . S
O165 Dy160 2.395 . S
O165 C182 1.255 . S
O166 Dy160 2.379 . S
O166 C182 1.249 . S
O167 Dy161 2.275 . S
O167 C183 1.254 . S
O168 Dy160 2.339 . S
O168 C183 1.257 . S
O169 Dy161 2.307 . S
O169 C184 1.266 . S
O170 Dy160 2.298 . S
O170 C184 1.236 . S
O171 Dy161 2.395 . S
O171 C191 1.255 . S
O172 Dy161 2.379 . S
O172 C191 1.249 . S
C173 O163 1.266 . S
C173 O164 1.236 . S
O174 Dy160 2.275 . S
O174 C162 1.254 . S
O175 Dy161 2.339 . S
O175 C162 1.257 . S
C176 C179 1.344 . S
C176 C180 1.328 . S
C176 C182 1.516 . S
C177 C178 1.304 . S
C177 C181 1.323 . S
C178 C177 1.304 . S
C178 C179 1.371 . S
C178 H192 0.930 . S
C179 C176 1.344 . S
C179 C178 1.371 . S
C179 H193 0.931 . S
C180 C176 1.328 . S
C180 C181 1.433 . S
C180 H194 0.931 . S
C181 C177 1.323 . S
C181 C180 1.433 . S
C181 H195 0.933 . S
C182 Dy160 2.738 . S
C182 O165 1.255 . S
C182 O166 1.249 . S
C182 C176 1.516 . S
C183 O167 1.254 . S
C183 O168 1.257 . S
C184 O169 1.266 . S
C184 O170 1.236 . S
C185 C188 1.344 . S
C185 C189 1.328 . S
C185 C191 1.516 . S
C186 C187 1.304 . S
C186 C190 1.323 . S
C187 C186 1.304 . S
C187 C188 1.371 . S
C187 H196 0.930 . S
C188 C185 1.344 . S
C188 C187 1.371 . S
C188 H197 0.931 . S
C189 C185 1.328 . S
C189 C190 1.433 . S
C189 H198 0.931 . S
C190 C186 1.323 . S
C190 C189 1.433 . S
C190 H199 0.933 . S
C191 Dy161 2.738 . S
C191 O171 1.255 . S
C191 O172 1.249 . S
C191 C185 1.516 . S
H192 C178 0.930 . S
H193 C179 0.931 . S
H194 C180 0.931 . S
H195 C181 0.933 . S
H196 C187 0.930 . S
H197 C188 0.931 . S
H198 C189 0.931 . S
H199 C190 0.933 . S
Dy200 O203 2.307 . S
Dy200 O205 2.395 . S
Dy200 O206 2.379 . S
Dy200 O208 2.339 . S
Dy200 O210 2.298 . S
Dy200 O214 2.275 . S
Dy200 C222 2.738 . S
Dy201 O204 2.298 1_455 S
Dy201 O207 2.275 . S
Dy201 O209 2.307 . S
Dy201 O211 2.395 . S
Dy201 O212 2.379 . S
Dy201 O215 2.339 1_455 S
Dy201 C231 2.738 . S
C202 O214 1.254 . S
C202 O215 1.257 . S
O203 Dy200 2.307 . S
O203 C213 1.266 . S
O204 Dy201 2.298 1_655 S
O204 C213 1.236 . S
O205 Dy200 2.395 . S
O205 C222 1.255 . S
O206 Dy200 2.379 . S
O206 C222 1.249 . S
O207 Dy201 2.275 . S
O207 C223 1.254 . S
O208 Dy200 2.339 . S
O208 C223 1.257 1_655 S
O209 Dy201 2.307 . S
O209 C224 1.266 . S
O210 Dy200 2.298 . S
O210 C224 1.236 1_655 S
O211 Dy201 2.395 . S
O211 C231 1.255 . S
O212 Dy201 2.379 . S
O212 C231 1.249 . S
C213 O203 1.266 . S
C213 O204 1.236 . S
O214 Dy200 2.275 . S
O214 C202 1.254 . S
O215 Dy201 2.339 1_655 S
O215 C202 1.257 . S
C216 C219 1.344 . S
C216 C220 1.328 . S
C216 C222 1.516 . S
C217 C218 1.304 . S
C217 C221 1.323 . S
C218 C217 1.304 . S
C218 C219 1.371 . S
C218 H232 0.930 . S
C219 C216 1.344 . S
C219 C218 1.371 . S
C219 H233 0.931 . S
C220 C216 1.328 . S
C220 C221 1.433 . S
C220 H234 0.931 . S
C221 C217 1.323 . S
C221 C220 1.433 . S
C221 H235 0.933 . S
C222 Dy200 2.738 . S
C222 O205 1.255 . S
C222 O206 1.249 . S
C222 C216 1.516 . S
C223 O207 1.254 . S
C223 O208 1.257 1_455 S
C224 O209 1.266 . S
C224 O210 1.236 1_455 S
C225 C228 1.344 . S
C225 C229 1.328 . S
C225 C231 1.516 . S
C226 C227 1.304 . S
C226 C230 1.323 . S
C227 C226 1.304 . S
C227 C228 1.371 . S
C227 H236 0.930 . S
C228 C225 1.344 . S
C228 C227 1.371 . S
C228 H237 0.931 . S
C229 C225 1.328 . S
C229 C230 1.433 . S
C229 H238 0.931 . S
C230 C226 1.323 . S
C230 C229 1.433 . S
C230 H239 0.933 . S
C231 Dy201 2.738 . S
C231 O211 1.255 . S
C231 O212 1.249 . S
C231 C225 1.516 . S
H232 C218 0.930 . S
H233 C219 0.931 . S
H234 C220 0.931 . S
H235 C221 0.933 . S
H236 C227 0.930 . S
H237 C228 0.931 . S
H238 C229 0.931 . S
H239 C230 0.933 . S
Dy240 O243 2.307 1_556 S
Dy240 O245 2.395 . S
Dy240 O246 2.379 . S
Dy240 O248 2.339 . S
Dy240 O250 2.298 . S
Dy240 O254 2.275 1_556 S
Dy240 C262 2.738 . S
Dy241 O244 2.298 . S
Dy241 O247 2.275 1_554 S
Dy241 O249 2.307 1_554 S
Dy241 O251 2.395 . S
Dy241 O252 2.379 . S
Dy241 O255 2.339 . S
Dy241 C271 2.738 . S
C242 O254 1.254 . S
C242 O255 1.257 . S
O243 Dy240 2.307 1_554 S
O243 C253 1.266 . S
O244 Dy241 2.298 . S
O244 C253 1.236 . S
O245 Dy240 2.395 . S
O245 C262 1.255 . S
O246 Dy240 2.379 . S
O246 C262 1.249 . S
O247 Dy241 2.275 1_556 S
O247 C263 1.254 . S
O248 Dy240 2.339 . S
O248 C263 1.257 . S
O249 Dy241 2.307 1_556 S
O249 C264 1.266 . S
O250 Dy240 2.298 . S
O250 C264 1.236 . S
O251 Dy241 2.395 . S
O251 C271 1.255 . S
O252 Dy241 2.379 . S
O252 C271 1.249 . S
C253 O243 1.266 . S
C253 O244 1.236 . S
O254 Dy240 2.275 1_554 S
O254 C242 1.254 . S
O255 Dy241 2.339 . S
O255 C242 1.257 . S
C256 C259 1.344 . S
C256 C260 1.328 . S
C256 C262 1.516 . S
C257 C258 1.304 . S
C257 C261 1.323 . S
C258 C257 1.304 . S
C258 C259 1.371 . S
C258 H272 0.930 . S
C259 C256 1.344 . S
C259 C258 1.371 . S
C259 H273 0.931 . S
C260 C256 1.328 . S
C260 C261 1.433 . S
C260 H274 0.931 . S
C261 C257 1.323 . S
C261 C260 1.433 . S
C261 H275 0.933 . S
C262 Dy240 2.738 . S
C262 O245 1.255 . S
C262 O246 1.249 . S
C262 C256 1.516 . S
C263 O247 1.254 . S
C263 O248 1.257 . S
C264 O249 1.266 . S
C264 O250 1.236 . S
C265 C268 1.344 . S
C265 C269 1.328 . S
C265 C271 1.516 . S
C266 C267 1.304 . S
C266 C270 1.323 . S
C267 C266 1.304 . S
C267 C268 1.371 . S
C267 H276 0.930 . S
C268 C265 1.344 . S
C268 C267 1.371 . S
C268 H277 0.931 . S
C269 C265 1.328 . S
C269 C270 1.433 . S
C269 H278 0.931 . S
C270 C266 1.323 . S
C270 C269 1.433 . S
C270 H279 0.933 . S
C271 Dy241 2.738 . S
C271 O251 1.255 . S
C271 O252 1.249 . S
C271 C265 1.516 . S
H272 C258 0.930 . S
H273 C259 0.931 . S
H274 C260 0.931 . S
H275 C261 0.933 . S
H276 C267 0.930 . S
H277 C268 0.931 . S
H278 C269 0.931 . S
H279 C270 0.933 . S
Dy280 O283 2.307 . S
Dy280 O285 2.395 . S
Dy280 O286 2.379 . S
Dy280 O288 2.339 . S
Dy280 O290 2.298 . S
Dy280 O294 2.275 . S
Dy280 C302 2.738 . S
Dy281 O284 2.298 . S
Dy281 O287 2.275 . S
Dy281 O289 2.307 . S
Dy281 O291 2.395 . S
Dy281 O292 2.379 . S
Dy281 O295 2.339 . S
Dy281 C311 2.738 . S
C282 O294 1.254 . S
C282 O295 1.257 . S
O283 Dy280 2.307 . S
O283 C293 1.266 . S
O284 Dy281 2.298 . S
O284 C293 1.236 . S
O285 Dy280 2.395 . S
O285 C302 1.255 . S
O286 Dy280 2.379 . S
O286 C302 1.249 . S
O287 Dy281 2.275 . S
O287 C303 1.254 . S
O288 Dy280 2.339 . S
O288 C303 1.257 . S
O289 Dy281 2.307 . S
O289 C304 1.266 . S
O290 Dy280 2.298 . S
O290 C304 1.236 . S
O291 Dy281 2.395 . S
O291 C311 1.255 . S
O292 Dy281 2.379 . S
O292 C311 1.249 . S
C293 O283 1.266 . S
C293 O284 1.236 . S
O294 Dy280 2.275 . S
O294 C282 1.254 . S
O295 Dy281 2.339 . S
O295 C282 1.257 . S
C296 C299 1.344 . S
C296 C300 1.328 . S
C296 C302 1.516 . S
C297 C298 1.304 . S
C297 C301 1.323 . S
C298 C297 1.304 . S
C298 C299 1.371 . S
C298 H312 0.930 . S
C299 C296 1.344 . S
C299 C298 1.371 . S
C299 H313 0.931 . S
C300 C296 1.328 . S
C300 C301 1.433 . S
C300 H314 0.931 . S
C301 C297 1.323 . S
C301 C300 1.433 . S
C301 H315 0.933 . S
C302 Dy280 2.738 . S
C302 O285 1.255 . S
C302 O286 1.249 . S
C302 C296 1.516 . S
C303 O287 1.254 . S
C303 O288 1.257 . S
C304 O289 1.266 . S
C304 O290 1.236 . S
C305 C308 1.344 . S
C305 C309 1.328 . S
C305 C311 1.516 . S
C306 C307 1.304 . S
C306 C310 1.323 . S
C307 C306 1.304 . S
C307 C308 1.371 . S
C307 H316 0.930 . S
C308 C305 1.344 . S
C308 C307 1.371 . S
C308 H317 0.931 . S
C309 C305 1.328 . S
C309 C310 1.433 . S
C309 H318 0.931 . S
C310 C306 1.323 . S
C310 C309 1.433 . S
C310 H319 0.933 . S
C311 Dy281 2.738 . S
C311 O291 1.255 . S
C311 O292 1.249 . S
C311 C305 1.516 . S
H312 C298 0.930 . S
H313 C299 0.931 . S
H314 C300 0.931 . S
H315 C301 0.933 . S
H316 C307 0.930 . S
H317 C308 0.931 . S
H318 C309 0.931 . S
H319 C310 0.933 . S
Dy320 O323 2.307 . S
Dy320 O325 2.395 . S
Dy320 O326 2.379 . S
Dy320 O328 2.339 . S
Dy320 O330 2.298 . S
Dy320 O334 2.275 . S
Dy320 C342 2.738 . S
Dy321 O324 2.298 . S
Dy321 O327 2.275 . S
Dy321 O329 2.307 . S
Dy321 O331 2.395 . S
Dy321 O332 2.379 . S
Dy321 O335 2.339 . S
Dy321 C351 2.738 . S
C322 O334 1.254 . S
C322 O335 1.257 . S
O323 Dy320 2.307 . S
O323 C333 1.266 . S
O324 Dy321 2.298 . S
O324 C333 1.236 . S
O325 Dy320 2.395 . S
O325 C342 1.255 . S
O326 Dy320 2.379 . S
O326 C342 1.249 . S
O327 Dy321 2.275 . S
O327 C343 1.254 . S
O328 Dy320 2.339 . S
O328 C343 1.257 . S
O329 Dy321 2.307 . S
O329 C344 1.266 . S
O330 Dy320 2.298 . S
O330 C344 1.236 . S
O331 Dy321 2.395 . S
O331 C351 1.255 . S
O332 Dy321 2.379 . S
O332 C351 1.249 . S
C333 O323 1.266 . S
C333 O324 1.236 . S
O334 Dy320 2.275 . S
O334 C322 1.254 . S
O335 Dy321 2.339 . S
O335 C322 1.257 . S
C336 C339 1.344 . S
C336 C340 1.328 . S
C336 C342 1.516 . S
C337 C338 1.304 . S
C337 C341 1.323 . S
C338 C337 1.304 . S
C338 C339 1.371 . S
C338 H352 0.930 . S
C339 C336 1.344 . S
C339 C338 1.371 . S
C339 H353 0.931 . S
C340 C336 1.328 . S
C340 C341 1.433 . S
C340 H354 0.931 . S
C341 C337 1.323 . S
C341 C340 1.433 . S
C341 H355 0.933 . S
C342 Dy320 2.738 . S
C342 O325 1.255 . S
C342 O326 1.249 . S
C342 C336 1.516 . S
C343 O327 1.254 . S
C343 O328 1.257 . S
C344 O329 1.266 . S
C344 O330 1.236 . S
C345 C348 1.344 . S
C345 C349 1.328 . S
C345 C351 1.516 . S
C346 C347 1.304 . S
C346 C350 1.323 . S
C347 C346 1.304 . S
C347 C348 1.371 . S
C347 H356 0.930 . S
C348 C345 1.344 . S
C348 C347 1.371 . S
C348 H357 0.931 . S
C349 C345 1.328 . S
C349 C350 1.433 . S
C349 H358 0.931 . S
C350 C346 1.323 . S
C350 C349 1.433 . S
C350 H359 0.933 . S
C351 Dy321 2.738 . S
C351 O331 1.255 . S
C351 O332 1.249 . S
C351 C345 1.516 . S
H352 C338 0.930 . S
H353 C339 0.931 . S
H354 C340 0.931 . S
H355 C341 0.933 . S
H356 C347 0.930 . S
H357 C348 0.931 . S
H358 C349 0.931 . S
H359 C350 0.933 . S
Dy360 O363 2.307 1_565 S
Dy360 O365 2.395 . S
Dy360 O366 2.379 . S
Dy360 O368 2.339 . S
Dy360 O370 2.298 . S
Dy360 O374 2.275 1_565 S
Dy360 C382 2.738 . S
Dy361 O364 2.298 . S
Dy361 O367 2.275 1_545 S
Dy361 O369 2.307 1_545 S
Dy361 O371 2.395 . S
Dy361 O372 2.379 . S
Dy361 O375 2.339 . S
Dy361 C391 2.738 . S
C362 O374 1.254 . S
C362 O375 1.257 . S
O363 Dy360 2.307 1_545 S
O363 C373 1.266 . S
O364 Dy361 2.298 . S
O364 C373 1.236 . S
O365 Dy360 2.395 . S
O365 C382 1.255 . S
O366 Dy360 2.379 . S
O366 C382 1.249 . S
O367 Dy361 2.275 1_565 S
O367 C383 1.254 . S
O368 Dy360 2.339 . S
O368 C383 1.257 . S
O369 Dy361 2.307 1_565 S
O369 C384 1.266 . S
O370 Dy360 2.298 . S
O370 C384 1.236 . S
O371 Dy361 2.395 . S
O371 C391 1.255 . S
O372 Dy361 2.379 . S
O372 C391 1.249 . S
C373 O363 1.266 . S
C373 O364 1.236 . S
O374 Dy360 2.275 1_545 S
O374 C362 1.254 . S
O375 Dy361 2.339 . S
O375 C362 1.257 . S
C376 C379 1.344 . S
C376 C380 1.328 . S
C376 C382 1.516 . S
C377 C378 1.304 . S
C377 C381 1.323 . S
C378 C377 1.304 . S
C378 C379 1.371 . S
C378 H392 0.930 . S
C379 C376 1.344 . S
C379 C378 1.371 . S
C379 H393 0.931 . S
C380 C376 1.328 . S
C380 C381 1.433 . S
C380 H394 0.931 . S
C381 C377 1.323 . S
C381 C380 1.433 . S
C381 H395 0.933 . S
C382 Dy360 2.738 . S
C382 O365 1.255 . S
C382 O366 1.249 . S
C382 C376 1.516 . S
C383 O367 1.254 . S
C383 O368 1.257 . S
C384 O369 1.266 . S
C384 O370 1.236 . S
C385 C388 1.344 . S
C385 C389 1.328 . S
C385 C391 1.516 . S
C386 C387 1.304 . S
C386 C390 1.323 . S
C387 C386 1.304 . S
C387 C388 1.371 . S
C387 H396 0.930 . S
C388 C385 1.344 . S
C388 C387 1.371 . S
C388 H397 0.931 . S
C389 C385 1.328 . S
C389 C390 1.433 . S
C389 H398 0.931 . S
C390 C386 1.323 . S
C390 C389 1.433 . S
C390 H399 0.933 . S
C391 Dy361 2.738 . S
C391 O371 1.255 . S
C391 O372 1.249 . S
C391 C385 1.516 . S
H392 C378 0.930 . S
H393 C379 0.931 . S
H394 C380 0.931 . S
H395 C381 0.933 . S
H396 C387 0.930 . S
H397 C388 0.931 . S
H398 C389 0.931 . S
H399 C390 0.933 . S
Dy400 O403 2.307 . S
Dy400 O405 2.395 . S
Dy400 O406 2.379 . S
Dy400 O408 2.324 1_565 S
Dy400 O410 2.298 . S
Dy400 O414 2.275 . S
Dy400 C422 2.738 . S
Dy401 O404 2.298 1_545 S
Dy401 O407 2.275 . S
Dy401 O409 2.307 . S
Dy401 O411 2.395 . S
Dy401 O412 2.379 . S
Dy401 O415 2.339 1_545 S
Dy401 C431 2.738 . S
C402 O414 1.254 . S
C402 O415 1.257 . S
O403 Dy400 2.307 . S
O403 C413 1.266 . S
O404 Dy401 2.298 1_565 S
O404 C413 1.236 . S
O405 Dy400 2.395 . S
O405 C422 1.255 . S
O406 Dy400 2.379 . S
O406 C422 1.249 . S
O407 Dy401 2.275 . S
O407 C423 1.254 . S
O408 Dy400 2.324 1_545 S
O408 C423 1.274 . S
O409 Dy401 2.307 . S
O409 C424 1.266 . S
O410 Dy400 2.298 . S
O410 C424 1.236 1_565 S
O411 Dy401 2.395 . S
O411 C431 1.255 . S
O412 Dy401 2.379 . S
O412 C431 1.249 . S
C413 O403 1.266 . S
C413 O404 1.236 . S
O414 Dy400 2.275 . S
O414 C402 1.254 . S
O415 Dy401 2.339 1_565 S
O415 C402 1.257 . S
C416 C419 1.344 . S
C416 C420 1.328 . S
C416 C422 1.516 . S
C417 C418 1.304 . S
C417 C421 1.323 . S
C418 C417 1.304 . S
C418 C419 1.371 . S
C418 H432 0.930 . S
C419 C416 1.344 . S
C419 C418 1.371 . S
C419 H433 0.931 . S
C420 C416 1.328 . S
C420 C421 1.433 . S
C420 H434 0.931 . S
C421 C417 1.323 . S
C421 C420 1.433 . S
C421 H435 0.933 . S
C422 Dy400 2.738 . S
C422 O405 1.255 . S
C422 O406 1.249 . S
C422 C416 1.516 . S
C423 O407 1.254 . S
C423 O408 1.274 . S
C424 O409 1.266 . S
C424 O410 1.236 1_545 S
C425 C428 1.344 . S
C425 C429 1.328 . S
C425 C431 1.516 . S
C426 C427 1.304 . S
C426 C430 1.323 . S
C427 C426 1.304 . S
C427 C428 1.371 . S
C427 H436 0.930 . S
C428 C425 1.344 . S
C428 C427 1.371 . S
C428 H437 0.931 . S
C429 C425 1.328 . S
C429 C430 1.433 . S
C429 H438 0.931 . S
C430 C426 1.323 . S
C430 C429 1.433 . S
C430 H439 0.933 . S
C431 Dy401 2.738 . S
C431 O411 1.255 . S
C431 O412 1.249 . S
C431 C425 1.516 . S
H432 C418 0.930 . S
H433 C419 0.931 . S
H434 C420 0.931 . S
H435 C421 0.933 . S
H436 C427 0.930 . S
H437 C428 0.931 . S
H438 C429 0.931 . S
H439 C430 0.933 . S
Dy440 O443 2.307 . S
Dy440 O445 2.395 . S
Dy440 O446 2.379 . S
Dy440 O448 2.339 . S
Dy440 O450 2.298 . S
Dy440 O454 2.275 . S
Dy440 C462 2.738 . S
Dy441 O444 2.298 . S
Dy441 O447 2.275 . S
Dy441 O449 2.307 . S
Dy441 O451 2.395 . S
Dy441 O452 2.379 . S
Dy441 O455 2.339 . S
Dy441 C471 2.738 . S
C442 O454 1.254 . S
C442 O455 1.257 . S
O443 Dy440 2.307 . S
O443 C453 1.266 . S
O444 Dy441 2.298 . S
O444 C453 1.236 . S
O445 Dy440 2.395 . S
O445 C462 1.255 . S
O446 Dy440 2.379 . S
O446 C462 1.249 . S
O447 Dy441 2.275 . S
O447 C463 1.254 . S
O448 Dy440 2.339 . S
O448 C463 1.257 . S
O449 Dy441 2.307 . S
O449 C464 1.266 . S
O450 Dy440 2.298 . S
O450 C464 1.236 . S
O451 Dy441 2.395 . S
O451 C471 1.255 . S
O452 Dy441 2.379 . S
O452 C471 1.249 . S
C453 O443 1.266 . S
C453 O444 1.236 . S
O454 Dy440 2.275 . S
O454 C442 1.254 . S
O455 Dy441 2.339 . S
O455 C442 1.257 . S
C456 C459 1.344 . S
C456 C460 1.328 . S
C456 C462 1.516 . S
C457 C458 1.304 . S
C457 C461 1.323 . S
C458 C457 1.304 . S
C458 C459 1.371 . S
C458 H472 0.930 . S
C459 C456 1.344 . S
C459 C458 1.371 . S
C459 H473 0.931 . S
C460 C456 1.328 . S
C460 C461 1.433 . S
C460 H474 0.931 . S
C461 C457 1.323 . S
C461 C460 1.433 . S
C461 H475 0.933 . S
C462 Dy440 2.738 . S
C462 O445 1.255 . S
C462 O446 1.249 . S
C462 C456 1.516 . S
C463 O447 1.254 . S
C463 O448 1.257 . S
C464 O449 1.266 . S
C464 O450 1.236 . S
C465 C468 1.344 . S
C465 C469 1.328 . S
C465 C471 1.516 . S
C466 C467 1.304 . S
C466 C470 1.323 . S
C467 C466 1.304 . S
C467 C468 1.371 . S
C467 H476 0.930 . S
C468 C465 1.344 . S
C468 C467 1.371 . S
C468 H477 0.931 . S
C469 C465 1.328 . S
C469 C470 1.433 . S
C469 H478 0.931 . S
C470 C466 1.323 . S
C470 C469 1.433 . S
C470 H479 0.933 . S
C471 Dy441 2.738 . S
C471 O451 1.255 . S
C471 O452 1.249 . S
C471 C465 1.516 . S
H472 C458 0.930 . S
H473 C459 0.931 . S
H474 C460 0.931 . S
H475 C461 0.933 . S
H476 C467 0.930 . S
H477 C468 0.931 . S
H478 C469 0.931 . S
H479 C470 0.933 . S
C480 C481 1.369 . S
C480 C482 1.419 . S
C480 H484 0.930 . S
C481 C480 1.369 . S
C481 C490 1.429 . S
C482 C480 1.419 . S
C482 C483 1.363 . S
C482 H485 0.929 . S
C483 C482 1.363 . S
C483 C489 1.428 . S
H484 C480 0.930 . S
H485 C482 0.929 . S
S486 N487 1.613 . S
S486 N488 1.610 . S
N487 S486 1.613 . S
N487 C490 1.350 . S
N488 S486 1.610 . S
N488 C489 1.351 . S
C489 C483 1.428 . S
C489 N488 1.351 . S
C489 C490 1.434 . S
C490 C481 1.429 . S
C490 N487 1.350 . S
C490 C489 1.434 . S
C491 C492 1.369 . S
C491 C493 1.419 . S
C491 H495 0.930 . S
C492 C491 1.369 . S
C492 C501 1.429 . S
C493 C491 1.419 . S
C493 C494 1.363 . S
C493 H496 0.929 . S
C494 C493 1.363 . S
C494 C500 1.428 . S
H495 C491 0.930 . S
H496 C493 0.929 . S
S497 N498 1.610 1_545 S
S497 N499 1.601 1_545 S
N498 S497 1.610 1_565 S
N498 C501 1.350 . S
N499 S497 1.601 1_565 S
N499 C500 1.351 . S
C500 C494 1.428 . S
C500 N499 1.351 . S
C500 C501 1.434 . S
C501 C492 1.429 . S
C501 N498 1.350 . S
C501 C500 1.434 . S
C502 C503 1.369 1_556 S
C502 C504 1.419 1_556 S
C502 H506 0.930 . S
C503 C502 1.369 1_554 S
C503 C512 1.429 . S
C504 C502 1.419 1_554 S
C504 C505 1.363 . S
C504 H507 0.929 1_554 S
C505 C504 1.363 . S
C505 C511 1.428 . S
H506 C502 0.930 . S
H507 C504 0.929 1_556 S
S508 N509 1.613 . S
S508 N510 1.610 . S
N509 S508 1.613 . S
N509 C512 1.350 . S
N510 S508 1.610 . S
N510 C511 1.351 . S
C511 C505 1.428 . S
C511 N510 1.351 . S
C511 C512 1.434 . S
C512 C503 1.429 . S
C512 N509 1.350 . S
C512 C511 1.434 . S
C513 C514 1.369 . S
C513 C515 1.419 . S
C513 H517 0.930 . S
C514 C513 1.369 . S
C514 C523 1.429 . S
C515 C513 1.419 . S
C515 C516 1.363 . S
C515 H518 0.929 . S
C516 C515 1.363 . S
C516 C522 1.428 1_545 S
H517 C513 0.930 . S
H518 C515 0.929 . S
S519 N520 1.613 . S
S519 N521 1.610 . S
N520 S519 1.613 . S
N520 C523 1.350 1_565 S
N521 S519 1.610 . S
N521 C522 1.351 . S
C522 C516 1.428 1_565 S
C522 N521 1.351 . S
C522 C523 1.434 1_565 S
C523 C514 1.429 . S
C523 N520 1.350 1_545 S
C523 C522 1.434 1_545 S
C524 C525 1.369 . S
C524 C526 1.419 . S
C524 H528 0.930 . S
C525 C524 1.369 . S
C525 C534 1.429 . S
C526 C524 1.419 . S
C526 C527 1.363 . S
C526 H529 0.929 . S
C527 C526 1.363 . S
C527 C533 1.428 . S
H528 C524 0.930 . S
H529 C526 0.929 . S
S530 N531 1.613 . S
S530 N532 1.610 . S
N531 S530 1.613 . S
N531 C534 1.350 . S
N532 S530 1.610 . S
N532 C533 1.351 . S
C533 C527 1.428 . S
C533 N532 1.351 . S
C533 C534 1.434 . S
C534 C525 1.429 . S
C534 N531 1.350 . S
C534 C533 1.434 . S
C535 C536 1.369 . S
C535 C537 1.419 . S
C535 H539 0.930 . S
C536 C535 1.369 . S
C536 C545 1.429 . S
C537 C535 1.419 . S
C537 C538 1.363 . S
C537 H540 0.929 . S
C538 C537 1.363 . S
C538 C544 1.428 . S
H539 C535 0.930 . S
H540 C537 0.929 . S
S541 N542 1.613 . S
S541 N543 1.610 . S
N542 S541 1.613 . S
N542 C545 1.350 . S
N543 S541 1.610 . S
N543 C544 1.351 . S
C544 C538 1.428 . S
C544 N543 1.351 . S
C544 C545 1.434 . S
C545 C536 1.429 . S
C545 N542 1.350 . S
C545 C544 1.434 . S
C546 C547 1.369 . S
C546 C548 1.419 . S
C546 H550 0.930 . S
C547 C546 1.369 . S
C547 C556 1.429 . S
C548 C546 1.419 . S
C548 C549 1.363 . S
C548 H551 0.929 . S
C549 C548 1.363 . S
C549 C555 1.428 . S
H550 C546 0.930 . S
H551 C548 0.929 . S
S552 N553 1.613 . S
S552 N554 1.610 . S
N553 S552 1.613 . S
N553 C556 1.350 . S
N554 S552 1.610 . S
N554 C555 1.351 . S
C555 C549 1.428 . S
C555 N554 1.351 . S
C555 C556 1.434 . S
C556 C547 1.429 . S
C556 N553 1.350 . S
C556 C555 1.434 . S
C557 C558 1.369 . S
C557 C559 1.419 . S
C557 H561 0.930 . S
C558 C557 1.369 . S
C558 C567 1.429 . S
C559 C557 1.419 . S
C559 C560 1.363 . S
C559 H562 0.929 . S
C560 C559 1.363 . S
C560 C566 1.428 . S
H561 C557 0.930 . S
H562 C559 0.929 . S
S563 N564 1.613 . S
S563 N565 1.610 . S
N564 S563 1.613 . S
N564 C567 1.350 . S
N565 S563 1.610 . S
N565 C566 1.351 . S
C566 C560 1.428 . S
C566 N565 1.351 . S
C566 C567 1.434 . S
C567 C558 1.429 . S
C567 N564 1.350 . S
C567 C566 1.434 . S
C568 C569 1.369 . S
C568 C570 1.419 . S
C568 H572 0.930 . S
C569 C568 1.369 . S
C569 C578 1.429 . S
C570 C568 1.419 . S
C570 C571 1.363 . S
C570 H573 0.929 . S
C571 C570 1.363 . S
C571 C577 1.428 . S
H572 C568 0.930 . S
H573 C570 0.929 . S
S574 N575 1.613 . S
S574 N576 1.610 . S
N575 S574 1.613 . S
N575 C578 1.350 . S
N576 S574 1.610 . S
N576 C577 1.351 . S
C577 C571 1.428 . S
C577 N576 1.351 . S
C577 C578 1.434 . S
C578 C569 1.429 . S
C578 N575 1.350 . S
C578 C577 1.434 . S
C579 C580 1.369 . S
C579 C581 1.419 1_455 S
C579 H583 0.930 1_455 S
C580 C579 1.369 . S
C580 C589 1.429 . S
C581 C579 1.419 1_655 S
C581 C582 1.363 1_655 S
C581 H584 0.929 . S
C582 C581 1.363 1_455 S
C582 C588 1.428 . S
H583 C579 0.930 1_655 S
H584 C581 0.929 . S
S585 N586 1.613 . S
S585 N587 1.610 . S
N586 S585 1.613 . S
N586 C589 1.350 . S
N587 S585 1.610 . S
N587 C588 1.351 . S
C588 C582 1.428 . S
C588 N587 1.351 . S
C588 C589 1.434 . S
C589 C580 1.429 . S
C589 N586 1.350 . S
C589 C588 1.434 . S
C590 C591 1.369 . S
C590 C592 1.419 . S
C590 H594 0.930 . S
C591 C590 1.369 . S
C591 C600 1.429 1_655 S
C592 C590 1.419 . S
C592 C593 1.363 . S
C592 H595 0.929 . S
C593 C592 1.363 . S
C593 C599 1.429 1_655 S
H594 C590 0.930 . S
H595 C592 0.929 . S
S596 N597 1.613 . S
S596 N598 1.610 . S
N597 S596 1.613 . S
N597 C600 1.350 . S
N598 S596 1.610 . S
N598 C599 1.350 . S
C599 C593 1.429 1_455 S
C599 N598 1.350 . S
C599 C600 1.434 . S
C600 C591 1.429 1_455 S
C600 N597 1.350 . S
C600 C599 1.434 . S
C601 C602 1.369 . S
C601 C603 1.419 . S
C601 H605 0.930 . S
C602 C601 1.369 . S
C602 C611 1.429 . S
C603 C601 1.419 . S
C603 C604 1.363 . S
C603 H606 0.929 . S
C604 C603 1.363 . S
C604 C610 1.428 . S
H605 C601 0.930 . S
H606 C603 0.929 . S
S607 N608 1.613 . S
S607 N609 1.610 . S
N608 S607 1.613 . S
N608 C611 1.350 . S
N609 S607 1.610 . S
N609 C610 1.351 . S
C610 C604 1.428 . S
C610 N609 1.351 . S
C610 C611 1.434 . S
C611 C602 1.429 . S
C611 N608 1.350 . S
C611 C610 1.434 . S
C612 C613 1.369 . S
C612 C614 1.419 . S
C612 H616 0.930 . S
C613 C612 1.369 . S
C613 C622 1.429 . S
C614 C612 1.419 . S
C614 C615 1.363 . S
C614 H617 0.929 . S
C615 C614 1.363 . S
C615 C621 1.428 . S
H616 C612 0.930 . S
H617 C614 0.929 . S
S618 N619 1.613 . S
S618 N620 1.610 . S
N619 S618 1.613 . S
N619 C622 1.350 . S
N620 S618 1.610 . S
N620 C621 1.351 . S
C621 C615 1.428 . S
C621 N620 1.351 . S
C621 C622 1.434 . S
C622 C613 1.429 . S
C622 N619 1.350 . S
C622 C621 1.434 . S
C623 C624 1.369 . S
C623 C625 1.419 . S
C623 H627 0.930 . S
C624 C623 1.369 . S
C624 C633 1.429 . S
C625 C623 1.419 . S
C625 C626 1.363 . S
C625 H628 0.929 . S
C626 C625 1.363 . S
C626 C632 1.428 . S
H627 C623 0.930 . S
H628 C625 0.929 . S
S629 N630 1.611 . S
S629 N631 1.610 . S
N630 S629 1.611 . S
N630 C633 1.352 1_545 S
N631 S629 1.610 . S
N631 C632 1.351 1_545 S
C632 C626 1.428 . S
C632 N631 1.351 1_565 S
C632 C633 1.434 . S
C633 C624 1.429 . S
C633 N630 1.352 1_565 S
C633 C632 1.434 . S
C634 C635 1.369 . S
C634 C636 1.419 . S
C634 H638 0.930 . S
C635 C634 1.369 . S
C635 C644 1.429 . S
C636 C634 1.419 . S
C636 C637 1.363 . S
C636 H639 0.929 . S
C637 C636 1.363 . S
C637 C643 1.428 . S
H638 C634 0.930 . S
H639 C636 0.929 . S
S640 N641 1.613 . S
S640 N642 1.610 . S
N641 S640 1.613 . S
N641 C644 1.350 . S
N642 S640 1.610 . S
N642 C643 1.351 . S
C643 C637 1.428 . S
C643 N642 1.351 . S
C643 C644 1.434 . S
C644 C635 1.429 . S
C644 N641 1.350 . S
C644 C643 1.434 . S
C645 C646 1.369 . S
C645 C647 1.419 1_554 S
C645 H649 0.930 . S
C646 C645 1.369 . S
C646 C655 1.429 1_554 S
C647 C645 1.419 1_556 S
C647 C648 1.363 . S
C647 H650 0.906 1_545 S
C648 C647 1.363 . S
C648 C654 1.428 . S
H649 C645 0.930 . S
H650 C647 0.906 1_565 S
S651 N652 1.613 1_556 S
S651 N653 1.610 . S
N652 S651 1.613 1_554 S
N652 C655 1.350 1_554 S
N653 S651 1.610 . S
N653 C654 1.351 . S
C654 C648 1.428 . S
C654 N653 1.351 . S
C654 C655 1.434 . S
C655 C646 1.429 1_556 S
C655 N652 1.350 1_556 S
C655 C654 1.434 . S
C656 C657 1.369 . S
C656 C658 1.419 . S
C656 H660 0.930 . S
C657 C656 1.369 . S
C657 C666 1.429 . S
C658 C656 1.419 . S
C658 C659 1.363 . S
C658 H661 0.929 . S
C659 C658 1.363 . S
C659 C665 1.428 . S
H660 C656 0.930 . S
H661 C658 0.929 . S
S662 N663 1.613 . S
S662 N664 1.610 . S
N663 S662 1.613 . S
N663 C666 1.350 . S
N664 S662 1.610 . S
N664 C665 1.351 . S
C665 C659 1.428 . S
C665 N664 1.351 . S
C665 C666 1.434 . S
C666 C657 1.429 . S
C666 N663 1.350 . S
C666 C665 1.434 . S
C667 C668 1.369 . S
C667 C669 1.419 1_554 S
C667 H671 0.930 . S
C668 C667 1.369 . S
C668 C677 1.429 1_554 S
C669 C667 1.419 1_556 S
C669 C670 1.363 . S
C669 H672 0.929 . S
C670 C669 1.363 . S
C670 C676 1.428 . S
H671 C667 0.930 . S
H672 C669 0.929 . S
S673 N674 1.613 . S
S673 N675 1.610 . S
N674 S673 1.613 . S
N674 C677 1.350 . S
N675 S673 1.610 . S
N675 C676 1.351 . S
C676 C670 1.428 . S
C676 N675 1.351 . S
C676 C677 1.434 . S
C677 C668 1.429 1_556 S
C677 N674 1.350 . S
C677 C676 1.434 . S
C678 C679 1.369 . S
C678 C680 1.419 . S
C678 H682 0.930 . S
C679 C678 1.369 . S
C679 C688 1.429 . S
C680 C678 1.419 . S
C680 C681 1.363 . S
C680 H683 0.929 . S
C681 C680 1.363 . S
C681 C687 1.428 . S
H682 C678 0.930 . S
H683 C680 0.929 . S
S684 N685 1.604 1_545 S
S684 N686 1.610 1_545 S
N685 S684 1.604 1_565 S
N685 C688 1.371 . S
N686 S684 1.610 1_565 S
N686 C687 1.351 . S
C687 C681 1.428 . S
C687 N686 1.351 . S
C687 C688 1.434 . S
C688 C679 1.429 . S
C688 N685 1.371 . S
C688 C687 1.434 . S
C689 C690 1.369 . S
C689 C691 1.419 . S
C689 H693 0.930 . S
C690 C689 1.369 . S
C690 C699 1.429 . S
C691 C689 1.419 . S
C691 C692 1.363 . S
C691 H694 0.929 . S
C692 C691 1.363 . S
C692 C698 1.428 . S
H693 C689 0.930 . S
H694 C691 0.929 . S
S695 N696 1.613 . S
S695 N697 1.610 . S
N696 S695 1.613 . S
N696 C699 1.350 . S
N697 S695 1.610 . S
N697 C698 1.351 . S
C698 C692 1.428 . S
C698 N697 1.351 . S
C698 C699 1.434 . S
C699 C690 1.429 . S
C699 N696 1.350 . S
C699 C698 1.434 . S
C700 C701 1.369 . S
C700 C702 1.419 . S
C700 H704 0.930 . S
C701 C700 1.369 . S
C701 C710 1.429 . S
C702 C700 1.419 . S
C702 C703 1.363 . S
C702 H705 0.929 . S
C703 C702 1.363 . S
C703 C709 1.428 . S
H704 C700 0.930 . S
H705 C702 0.929 . S
S706 N707 1.613 . S
S706 N708 1.610 . S
N707 S706 1.613 . S
N707 C710 1.350 . S
N708 S706 1.610 . S
N708 C709 1.351 . S
C709 C703 1.428 . S
C709 N708 1.351 . S
C709 C710 1.434 . S
C710 C701 1.429 . S
C710 N707 1.350 . S
C710 C709 1.434 . S
C711 C712 1.369 . S
C711 C713 1.419 1_545 S
C711 H715 0.930 . S
C712 C711 1.369 . S
C712 C721 1.429 1_545 S
C713 C711 1.419 1_565 S
C713 C714 1.363 . S
C713 H716 0.929 1_455 S
C714 C713 1.363 . S
C714 C720 1.428 . S
H715 C711 0.930 . S
H716 C713 0.929 1_655 S
S717 N718 1.613 . S
S717 N719 1.610 . S
N718 S717 1.613 . S
N718 C721 1.350 . S
N719 S717 1.610 . S
N719 C720 1.351 . S
C720 C714 1.428 . S
C720 N719 1.351 . S
C720 C721 1.434 . S
C721 C712 1.429 1_565 S
C721 N718 1.350 . S
C721 C720 1.434 . S
C722 C723 1.369 . S
C722 C724 1.419 . S
C722 H726 0.930 . S
C723 C722 1.369 . S
C723 C732 1.429 . S
C724 C722 1.419 . S
C724 C725 1.363 . S
C724 H727 0.929 . S
C725 C724 1.363 . S
C725 C731 1.428 . S
H726 C722 0.930 . S
H727 C724 0.929 . S
S728 N729 1.613 . S
S728 N730 1.610 . S
N729 S728 1.613 . S
N729 C732 1.350 . S
N730 S728 1.610 . S
N730 C731 1.351 . S
C731 C725 1.428 . S
C731 N730 1.351 . S
C731 C732 1.434 . S
C732 C723 1.429 . S
C732 N729 1.350 . S
C732 C731 1.434 . S
C733 C734 1.369 . S
C733 C735 1.419 1_545 S
C733 H737 0.930 . S
C734 C733 1.369 . S
C734 C743 1.429 1_545 S
C735 C733 1.419 1_565 S
C735 C736 1.363 . S
C735 H738 0.929 . S
C736 C735 1.363 . S
C736 C742 1.428 . S
H737 C733 0.930 . S
H738 C735 0.929 . S
S739 N740 1.613 . S
S739 N741 1.610 . S
N740 S739 1.613 . S
N740 C743 1.350 . S
N741 S739 1.610 . S
N741 C742 1.351 . S
C742 C736 1.428 . S
C742 N741 1.351 . S
C742 C743 1.434 . S
C743 C734 1.429 1_565 S
C743 N740 1.350 . S
C743 C742 1.434 . S
C744 C745 1.369 . S
C744 C746 1.419 . S
C744 H748 0.930 . S
C745 C744 1.369 . S
C745 C754 1.429 . S
C746 C744 1.419 . S
C746 C747 1.363 . S
C746 H749 0.929 . S
C747 C746 1.363 . S
C747 C753 1.428 . S
H748 C744 0.930 . S
H749 C746 0.929 . S
S750 N751 1.613 . S
S750 N752 1.610 . S
N751 S750 1.613 . S
N751 C754 1.350 . S
N752 S750 1.610 . S
N752 C753 1.351 . S
C753 C747 1.428 . S
C753 N752 1.351 . S
C753 C754 1.434 . S
C754 C745 1.429 . S
C754 N751 1.350 . S
C754 C753 1.434 . S
C755 C756 1.369 . S
C755 C757 1.419 . S
C755 H759 0.930 . S
C756 C755 1.369 . S
C756 C765 1.429 . S
C757 C755 1.419 . S
C757 C758 1.363 . S
C757 H760 0.929 . S
C758 C757 1.363 . S
C758 C764 1.428 . S
H759 C755 0.930 . S
H760 C757 0.929 . S
S761 N762 1.613 . S
S761 N763 1.610 . S
N762 S761 1.613 . S
N762 C765 1.350 1_455 S
N763 S761 1.610 . S
N763 C764 1.351 1_455 S
C764 C758 1.428 . S
C764 N763 1.351 1_655 S
C764 C765 1.434 . S
C765 C756 1.429 . S
C765 N762 1.350 1_655 S
C765 C764 1.434 . S
C766 C767 1.369 . S
C766 C768 1.419 . S
C766 H770 0.930 . S
C767 C766 1.369 . S
C767 C776 1.429 . S
C768 C766 1.419 . S
C768 C769 1.363 . S
C768 H771 0.929 . S
C769 C768 1.363 . S
C769 C775 1.428 . S
H770 C766 0.930 . S
H771 C768 0.929 . S
S772 N773 1.613 . S
S772 N774 1.610 . S
N773 S772 1.613 . S
N773 C776 1.350 . S
N774 S772 1.610 . S
N774 C775 1.351 . S
C775 C769 1.428 . S
C775 N774 1.351 . S
C775 C776 1.434 . S
C776 C767 1.429 . S
C776 N773 1.350 . S
C776 C775 1.434 . S
C777 C778 1.369 . S
C777 C779 1.419 . S
C777 H781 0.930 . S
C778 C777 1.369 . S
C778 C787 1.429 . S
C779 C777 1.419 . S
C779 C780 1.363 . S
C779 H782 0.929 . S
C780 C779 1.363 . S
C780 C786 1.428 . S
H781 C777 0.930 . S
H782 C779 0.929 . S
S783 N784 1.613 . S
S783 N785 1.610 . S
N784 S783 1.613 . S
N784 C787 1.350 . S
N785 S783 1.610 . S
N785 C786 1.351 . S
C786 C780 1.428 . S
C786 N785 1.351 . S
C786 C787 1.434 . S
C787 C778 1.429 . S
C787 N784 1.350 . S
C787 C786 1.434 . S
C788 C789 1.369 . S
C788 C790 1.419 . S
C788 H792 0.930 . S
C789 C788 1.369 . S
C789 C798 1.429 . S
C790 C788 1.419 . S
C790 C791 1.363 . S
C790 H793 0.929 . S
C791 C790 1.363 . S
C791 C797 1.428 . S
H792 C788 0.930 . S
H793 C790 0.929 . S
S794 N795 1.613 . S
S794 N796 1.610 . S
N795 S794 1.613 . S
N795 C798 1.350 . S
N796 S794 1.610 . S
N796 C797 1.351 . S
C797 C791 1.428 . S
C797 N796 1.351 . S
C797 C798 1.434 . S
C798 C789 1.429 . S
C798 N795 1.350 . S
C798 C797 1.434 . S
C799 C800 1.369 . S
C799 C801 1.419 . S
C799 H803 0.930 . S
C800 C799 1.369 . S
C800 C809 1.429 . S
C801 C799 1.419 . S
C801 C802 1.363 . S
C801 H804 0.929 . S
C802 C801 1.363 . S
C802 C808 1.428 . S
H803 C799 0.930 . S
H804 C801 0.929 . S
S805 N806 1.613 . S
S805 N807 1.610 . S
N806 S805 1.613 . S
N806 C809 1.350 . S
N807 S805 1.610 . S
N807 C808 1.351 . S
C808 C802 1.428 . S
C808 N807 1.351 . S
C808 C809 1.434 . S
C809 C800 1.429 . S
C809 N806 1.350 . S
C809 C808 1.434 . S
C810 C811 1.369 . S
C810 C812 1.419 1_455 S
C810 H814 0.930 . S
C811 C810 1.369 . S
C811 C820 1.429 . S
C812 C810 1.419 1_655 S
C812 C813 1.363 . S
C812 H815 0.929 . S
C813 C812 1.363 . S
C813 C819 1.428 . S
H814 C810 0.930 . S
H815 C812 0.929 . S
S816 N817 1.613 . S
S816 N818 1.610 1_455 S
N817 S816 1.613 . S
N817 C820 1.350 . S
N818 S816 1.610 1_655 S
N818 C819 1.351 . S
C819 C813 1.428 . S
C819 N818 1.351 . S
C819 C820 1.434 1_655 S
C820 C811 1.429 . S
C820 N817 1.350 . S
C820 C819 1.434 1_455 S
C821 C822 1.369 . S
C821 C823 1.419 . S
C821 H825 0.930 . S
C822 C821 1.369 . S
C822 C831 1.429 . S
C823 C821 1.419 . S
C823 C824 1.363 . S
C823 H826 0.929 . S
C824 C823 1.363 . S
C824 C830 1.428 . S
H825 C821 0.930 . S
H826 C823 0.929 . S
S827 N828 1.613 . S
S827 N829 1.610 . S
N828 S827 1.613 . S
N828 C831 1.350 . S
N829 S827 1.610 . S
N829 C830 1.351 . S
C830 C824 1.428 . S
C830 N829 1.351 . S
C830 C831 1.434 . S
C831 C822 1.429 . S
C831 N828 1.350 . S
C831 C830 1.434 . S
C832 C833 1.369 . S
C832 C834 1.419 . S
C832 H836 0.930 . S
C833 C832 1.369 . S
C833 C842 1.429 . S
C834 C832 1.419 . S
C834 C835 1.363 . S
C834 H837 0.929 . S
C835 C834 1.363 . S
C835 C841 1.428 . S
H836 C832 0.930 . S
H837 C834 0.929 . S
S838 N839 1.613 . S
S838 N840 1.610 . S
N839 S838 1.613 . S
N839 C842 1.350 . S
N840 S838 1.610 . S
N840 C841 1.351 . S
C841 C835 1.428 . S
C841 N840 1.351 . S
C841 C842 1.434 . S
C842 C833 1.429 . S
C842 N839 1.350 . S
C842 C841 1.434 . S
C843 C844 1.369 . S
C843 C845 1.419 . S
C843 H847 0.930 . S
C844 C843 1.369 . S
C844 C853 1.429 . S
C845 C843 1.419 . S
C845 C846 1.363 . S
C845 H848 0.929 . S
C846 C845 1.363 . S
C846 C852 1.428 . S
H847 C843 0.930 . S
H848 C845 0.929 . S
S849 N850 1.613 . S
S849 N851 1.610 . S
N850 S849 1.613 . S
N850 C853 1.350 . S
N851 S849 1.610 . S
N851 C852 1.351 . S
C852 C846 1.428 . S
C852 N851 1.351 . S
C852 C853 1.434 . S
C853 C844 1.429 . S
C853 N850 1.350 . S
C853 C852 1.434 . S
C854 C855 1.369 . S
C854 C856 1.419 . S
C854 H858 0.930 . S
C855 C854 1.369 . S
C855 C864 1.429 . S
C856 C854 1.419 . S
C856 C857 1.363 . S
C856 H859 0.929 . S
C857 C856 1.363 . S
C857 C863 1.428 . S
H858 C854 0.930 . S
H859 C856 0.929 . S
S860 N861 1.613 . S
S860 N862 1.610 . S
N861 S860 1.613 . S
N861 C864 1.350 . S
N862 S860 1.610 . S
N862 C863 1.351 . S
C863 C857 1.428 . S
C863 N862 1.351 . S
C863 C864 1.434 . S
C864 C855 1.429 . S
C864 N861 1.350 . S
C864 C863 1.434 . S
C865 C866 1.369 . S
C865 C867 1.419 . S
C865 H869 0.930 . S
C866 C865 1.369 . S
C866 C875 1.429 . S
C867 C865 1.419 . S
C867 C868 1.363 1_655 S
C867 H870 0.929 . S
C868 C867 1.363 1_455 S
C868 C874 1.428 . S
H869 C865 0.930 . S
H870 C867 0.929 . S
S871 N872 1.613 . S
S871 N873 1.610 . S
N872 S871 1.613 . S
N872 C875 1.350 1_455 S
N873 S871 1.610 . S
N873 C874 1.351 . S
C874 C868 1.428 . S
C874 N873 1.351 . S
C874 C875 1.434 1_455 S
C875 C866 1.429 . S
C875 N872 1.350 1_655 S
C875 C874 1.434 1_655 S
C481 C24 1.479 . S
C483 C463 1.562 . S
C492 C383 1.857 . S
C494 C63 1.856 . S
C503 C104 1.526 1_554 S
C505 C343 1.574 . S
C514 C143 1.806 . S
C516 C424 1.729 . S
C525 C183 1.935 . S
C527 C423 1.950 . S
C536 C223 1.707 . S
C538 C464 1.660 . S
C547 C384 1.721 . S
C549 C263 1.803 . S
C558 C304 1.572 . S
C560 C344 1.570 . S
C569 C144 1.614 . S
C571 C184 1.646 . S
C580 C23 1.869 . S
C582 C224 1.804 . S
C591 C64 1.766 . S
C593 C264 1.756 . S
C602 C303 1.886 . S
C604 C103 1.882 . S
C613 C17 1.815 . S
C615 C322 1.834 . S
C624 C66 1.625 . S
C626 C413 1.638 . S
C635 C442 2.257 . S
C637 C97 2.232 . S
C646 C146 1.359 . S
C648 C362 1.319 . S
C657 C186 1.790 . S
C659 C373 1.801 . S
C668 C333 1.718 . S
C670 C226 1.717 . S
C679 C402 1.285 . S
C681 C266 1.341 . S
C690 C453 2.177 . S
C692 C297 2.020 . S
C701 C2 2.058 . S
C703 C137 2.038 . S
C712 C26 1.551 . S
C714 C53 1.556 . S
C723 C57 2.077 . S
C725 C82 2.082 . S
C734 C133 1.711 . S
C736 C106 1.709 . S
C745 C217 1.730 . S
C747 C173 1.841 . S
C756 C213 1.651 . S
C758 C257 1.549 . S
C767 C253 1.672 . S
C769 C306 1.668 . S
C778 C177 1.654 . S
C780 C282 1.681 . S
C789 C337 1.574 . S
C791 C122 1.564 . S
C800 C202 1.506 . S
C802 C386 1.559 . S
C811 C346 1.135 . S
C813 C242 1.093 . S
C822 C417 1.946 . S
C824 C293 2.083 . S
C833 C162 1.585 . S
C835 C466 1.660 . S
C844 C457 1.775 . S
C846 C42 1.782 . S
C855 C93 2.021 . S
C857 C377 1.902 . S
C866 C426 1.369 . S
C868 C13 1.376 . S
