# Generated by pormake.
# Topology npo, (4)-cn, num edge types: 1
# Building blocks:
#     Node 0, Type 0, BuildingBlock: NAHDIM_clean_sbu_0, # of connection points: 4
#     Node 1, Type 0, BuildingBlock: NAHDIM_clean_sbu_0, # of connection points: 4
#     Node 2, Type 0, BuildingBlock: NAHDIM_clean_sbu_0, # of connection points: 4
#     Node 3, Type 0, BuildingBlock: NAHDIM_clean_sbu_0, # of connection points: 4
#     Node 4, Type 0, BuildingBlock: NAHDIM_clean_sbu_0, # of connection points: 4
#     Node 5, Type 0, BuildingBlock: NAHDIM_clean_sbu_0, # of connection points: 4
#     Edge 6, Type (0, 0), BuildingBlock: XUDNAN_clean_linker_2, # of connection points: 2
#     Edge 7, Type (0, 0), BuildingBlock: XUDNAN_clean_linker_2, # of connection points: 2
#     Edge 8, Type (0, 0), BuildingBlock: XUDNAN_clean_linker_2, # of connection points: 2
#     Edge 9, Type (0, 0), BuildingBlock: XUDNAN_clean_linker_2, # of connection points: 2
#     Edge 10, Type (0, 0), BuildingBlock: XUDNAN_clean_linker_2, # of connection points: 2
#     Edge 11, Type (0, 0), BuildingBlock: XUDNAN_clean_linker_2, # of connection points: 2
#     Edge 12, Type (0, 0), BuildingBlock: XUDNAN_clean_linker_2, # of connection points: 2
#     Edge 13, Type (0, 0), BuildingBlock: XUDNAN_clean_linker_2, # of connection points: 2
#     Edge 14, Type (0, 0), BuildingBlock: XUDNAN_clean_linker_2, # of connection points: 2
#     Edge 15, Type (0, 0), BuildingBlock: XUDNAN_clean_linker_2, # of connection points: 2
#     Edge 16, Type (0, 0), BuildingBlock: XUDNAN_clean_linker_2, # of connection points: 2
#     Edge 17, Type (0, 0), BuildingBlock: XUDNAN_clean_linker_2, # of connection points: 2
# Relax obj value: 0.248
# Max RMSD: 0.225
# Mean RMSD: 0.223
data_MOF--net-npo--node1-NAHDIM_clean_sbu_0--edge1-XUDNAN_clean_linker_2
_symmetry_space_group_name_H-M    P1
_symmetry_Int_Tables_number       1
_symmetry_cell_setting            triclinic
loop_
_symmetry_equiv_pos_as_xyz
'x, y, z'
_cell_length_a     41.253776
_cell_length_b     43.276791
_cell_length_c     25.110285
_cell_angle_alpha  92.291509
_cell_angle_beta   89.833512
_cell_angle_gamma 118.67863
loop_
_atom_site_label
_atom_site_type_symbol
_atom_site_fract_x
_atom_site_fract_y
_atom_site_fract_z
_atom_type_partial_charge
C0 C 0.53223 0.06186 0.37729 0.0
O1 O 0.56005 0.06787 0.34604 0.0
O2 O 0.56189 0.11125 0.26357 0.0
Zn3 Zn 0.50938 0.08691 0.28812 0.0
O4 O 0.47943 0.04677 0.23591 0.0
C5 C 0.46795 0.1238 0.2604 0.0
O6 O 0.44716 0.09559 0.23024 0.0
O7 O 0.50684 0.06809 0.36114 0.0
C8 C 0.48457 0.05144 0.18632 0.0
O9 O 0.50826 0.08285 0.17047 0.0
C10 C 0.58512 0.13847 0.29026 0.0
O11 O 0.57428 0.14855 0.33372 0.0
O12 O 0.49345 0.12427 0.28927 0.0
C13 C 0.47114 0.5656 0.57332 0.0
O14 O 0.43717 0.55483 0.58913 0.0
O15 O 0.43538 0.57465 0.69622 0.0
Zn16 Zn 0.48952 0.59397 0.68223 0.0
O17 O 0.50814 0.57009 0.73129 0.0
C18 C 0.50971 0.65604 0.74698 0.0
O19 O 0.49799 0.63275 0.78414 0.0
O20 O 0.49792 0.58333 0.60586 0.0
C21 C 0.53698 0.58478 0.76088 0.0
O22 O 0.55871 0.61899 0.75999 0.0
C23 C 0.41972 0.59199 0.68105 0.0
O24 O 0.43873 0.62035 0.65391 0.0
O25 O 0.51134 0.64612 0.69916 0.0
C26 C 0.90093 0.42447 0.35249 0.0
O27 O 0.86828 0.42264 0.35596 0.0
O28 O 0.84757 0.42669 0.2426 0.0
Zn29 Zn 0.87764 0.40166 0.24353 0.0
O30 O 0.90802 0.41191 0.17766 0.0
C31 C 0.82729 0.32974 0.20593 0.0
O32 O 0.83905 0.3415 0.15843 0.0
O33 O 0.91086 0.4169 0.30812 0.0
C34 C 0.92583 0.39554 0.16575 0.0
O35 O 0.92391 0.37107 0.19694 0.0
C36 C 0.85815 0.45735 0.22601 0.0
O37 O 0.89203 0.47576 0.209 0.0
O38 O 0.84107 0.3503 0.24683 0.0
C39 C 0.46521 0.93093 0.7048 0.0
O40 O 0.48537 0.92611 0.74051 0.0
O41 O 0.43088 0.8465 0.76313 0.0
Zn42 Zn 0.4062 0.8772 0.76225 0.0
O43 O 0.41207 0.90184 0.83421 0.0
C44 C 0.32518 0.84044 0.77168 0.0
O45 O 0.33121 0.85619 0.81915 0.0
O46 O 0.43021 0.91318 0.7066 0.0
C47 C 0.40359 0.88503 0.87691 0.0
O48 O 0.39016 0.85064 0.87411 0.0
C49 C 0.45691 0.85188 0.7955 0.0
O50 O 0.46902 0.87868 0.83033 0.0
O51 O 0.35229 0.84616 0.74183 0.0
C52 C 0.5548 0.47935 0.08836 0.0
O53 O 0.5621 0.5025 0.12817 0.0
O54 O 0.6083 0.45055 0.18846 0.0
Zn55 Zn 0.5549 0.43613 0.1724 0.0
O56 O 0.53483 0.45896 0.2245 0.0
C57 C 0.53216 0.3695 0.21713 0.0
O58 O 0.55764 0.38987 0.25256 0.0
O59 O 0.55008 0.44885 0.0978 0.0
C60 C 0.55349 0.47979 0.26313 0.0
O61 O 0.58817 0.48761 0.27021 0.0
C62 C 0.63575 0.47942 0.17576 0.0
O63 O 0.63003 0.50271 0.15143 0.0
O64 O 0.52541 0.38348 0.17809 0.0
C65 C 0.06703 0.49131 0.84224 0.0
O66 O 0.08342 0.4789 0.80962 0.0
O67 O 0.14622 0.54367 0.77118 0.0
Zn68 Zn 0.09863 0.54578 0.77029 0.0
O69 O 0.07163 0.52053 0.70273 0.0
C70 C 0.11155 0.6122 0.72924 0.0
O71 O 0.09762 0.59276 0.68523 0.0
O72 O 0.06914 0.52095 0.83353 0.0
C73 C 0.03857 0.51301 0.69171 0.0
O74 O 0.02008 0.5218 0.72622 0.0
C75 C 0.17167 0.56267 0.73989 0.0
O76 O 0.16618 0.58317 0.70813 0.0
O77 O 0.11226 0.59733 0.77159 0.0
H78 H 0.51082 0.18789 0.31159 0.0
H79 H 0.42172 0.13469 0.19453 0.0
H80 H 0.42486 0.19167 0.17583 0.0
H81 H 0.48494 0.25507 0.35998 0.0
H82 H 0.53259 0.28866 0.36731 0.0
H83 H 0.51993 0.24315 0.37613 0.0
H84 H 0.56699 0.24707 0.30453 0.0
H85 H 0.57954 0.2924 0.2951 0.0
H86 H 0.56372 0.26108 0.23903 0.0
H87 H 0.44288 0.25534 0.16238 0.0
H88 H 0.47244 0.32019 0.15822 0.0
H89 H 0.54922 0.33116 0.28473 0.0
C90 C 0.49131 0.188 0.28293 0.0
C91 C 0.46593 0.15676 0.25463 0.0
C92 C 0.44127 0.15823 0.21693 0.0
C93 C 0.44286 0.19049 0.20601 0.0
C94 C 0.46903 0.22094 0.23346 0.0
C95 C 0.49252 0.21988 0.27159 0.0
C96 C 0.5198 0.25652 0.29296 0.0
C97 C 0.51395 0.26111 0.35264 0.0
C98 C 0.55987 0.26473 0.28223 0.0
C99 C 0.50869 0.27847 0.25983 0.0
C100 C 0.4792 0.25751 0.22599 0.0
C101 C 0.4656 0.27199 0.1893 0.0
C102 C 0.48266 0.30884 0.18709 0.0
C103 C 0.513 0.33075 0.22135 0.0
C104 C 0.52579 0.31519 0.25848 0.0
H105 H 0.37855 0.62316 0.65325 0.0
H106 H 0.37374 0.53669 0.74116 0.0
H107 H 0.30977 0.52006 0.7669 0.0
H108 H 0.32716 0.64724 0.74495 0.0
H109 H 0.30369 0.6574 0.69368 0.0
H110 H 0.349 0.66235 0.68197 0.0
H111 H 0.32417 0.62091 0.59747 0.0
H112 H 0.27881 0.61593 0.60862 0.0
H113 H 0.28513 0.57753 0.60251 0.0
H114 H 0.24664 0.51353 0.78406 0.0
H115 H 0.18817 0.5162 0.78852 0.0
H116 H 0.23458 0.60643 0.68808 0.0
C117 C 0.36406 0.60063 0.67775 0.0
C118 C 0.38109 0.58117 0.69514 0.0
C119 C 0.36117 0.55192 0.72727 0.0
C120 C 0.32488 0.54232 0.74218 0.0
C121 C 0.30898 0.5622 0.72453 0.0
C122 C 0.32788 0.59064 0.69283 0.0
C123 C 0.30451 0.60755 0.67886 0.0
C124 C 0.32214 0.6459 0.70122 0.0
C125 C 0.29775 0.60533 0.61827 0.0
C126 C 0.26943 0.5841 0.70755 0.0
C127 C 0.2726 0.55822 0.73391 0.0
C128 C 0.24378 0.53361 0.76347 0.0
C129 C 0.21073 0.53538 0.76584 0.0
C130 C 0.2068 0.56143 0.73849 0.0
C131 C 0.23665 0.58609 0.70919 0.0
H132 H 0.64236 0.19504 0.34185 0.0
H133 H 0.61346 0.13046 0.19493 0.0
H134 H 0.67537 0.16947 0.16011 0.0
H135 H 0.68978 0.2761 0.28404 0.0
H136 H 0.72484 0.29629 0.33576 0.0
H137 H 0.67992 0.26116 0.35111 0.0
H138 H 0.70996 0.22568 0.38859 0.0
H139 H 0.75508 0.26081 0.37338 0.0
H140 H 0.74049 0.21659 0.34734 0.0
H141 H 0.73774 0.21943 0.13764 0.0
H142 H 0.79607 0.27535 0.13056 0.0
H143 H 0.7843 0.30558 0.29341 0.0
C144 C 0.64922 0.18871 0.3027 0.0
C145 C 0.62312 0.15972 0.27112 0.0
C146 C 0.63311 0.15247 0.21995 0.0
C147 C 0.66821 0.17444 0.19984 0.0
C148 C 0.69308 0.20322 0.23169 0.0
C149 C 0.68412 0.21017 0.28224 0.0
C150 C 0.71488 0.24383 0.3073 0.0
C151 C 0.70155 0.27093 0.32028 0.0
C152 C 0.73106 0.23626 0.3571 0.0
C153 C 0.74213 0.25533 0.26237 0.0
C154 C 0.72923 0.23151 0.21917 0.0
C155 C 0.74845 0.23796 0.17156 0.0
C156 C 0.78148 0.26979 0.16785 0.0
C157 C 0.79488 0.29464 0.21156 0.0
C158 C 0.77518 0.28685 0.25961 0.0
H159 H 0.44907 0.8025 0.71739 0.0
H160 H 0.50031 0.84629 0.87252 0.0
H161 H 0.52443 0.80397 0.87363 0.0
H162 H 0.4206 0.71345 0.74158 0.0
H163 H 0.43012 0.70251 0.67548 0.0
H164 H 0.41862 0.73746 0.68576 0.0
H165 H 0.47947 0.78072 0.64067 0.0
H166 H 0.49122 0.74585 0.63044 0.0
H167 H 0.52296 0.78632 0.66574 0.0
H168 H 0.53687 0.75265 0.86227 0.0
H169 H 0.53948 0.698 0.83663 0.0
H170 H 0.48488 0.69113 0.68604 0.0
C171 C 0.46564 0.8034 0.7514 0.0
C172 C 0.47277 0.82764 0.79493 0.0
C173 C 0.4946 0.82802 0.83864 0.0
C174 C 0.50844 0.8041 0.83964 0.0
C175 C 0.50068 0.78038 0.79625 0.0
C176 C 0.48008 0.78007 0.7527 0.0
C177 C 0.47488 0.7513 0.71181 0.0
C178 C 0.43362 0.72461 0.70319 0.0
C179 C 0.49324 0.767 0.65905 0.0
C180 C 0.49516 0.73505 0.73964 0.0
C181 C 0.50969 0.75206 0.78844 0.0
C182 C 0.52643 0.73962 0.82362 0.0
C183 C 0.52783 0.70868 0.80881 0.0
C184 C 0.51324 0.69107 0.75894 0.0
C185 C 0.49738 0.70483 0.72362 0.0
H186 H 0.65647 0.43629 0.22509 0.0
H187 H 0.70092 0.53636 0.1484 0.0
H188 H 0.76403 0.54435 0.15971 0.0
H189 H 0.73297 0.46215 0.32153 0.0
H190 H 0.73041 0.41937 0.31616 0.0
H191 H 0.68934 0.42339 0.30653 0.0
H192 H 0.67832 0.39105 0.21382 0.0
H193 H 0.7193 0.38699 0.2231 0.0
H194 H 0.71439 0.40788 0.16527 0.0
H195 H 0.82181 0.53876 0.17279 0.0
H196 H 0.86903 0.51995 0.18653 0.0
H197 H 0.78583 0.42389 0.25494 0.0
C198 C 0.67947 0.46017 0.21134 0.0
C199 C 0.67377 0.48572 0.1859 0.0
C200 C 0.70464 0.51646 0.16816 0.0
C201 C 0.74059 0.52127 0.17449 0.0
C202 C 0.74515 0.49524 0.19898 0.0
C203 C 0.7154 0.46539 0.21738 0.0
C204 C 0.7273 0.44037 0.23957 0.0
C205 C 0.71955 0.43609 0.29951 0.0
C206 C 0.70873 0.40447 0.20857 0.0
C207 C 0.7683 0.46034 0.22951 0.0
C208 C 0.77823 0.49208 0.20656 0.0
C209 C 0.81443 0.51415 0.19133 0.0
C210 C 0.84104 0.50325 0.19924 0.0
C211 C 0.83117 0.4705 0.22188 0.0
C212 C 0.79441 0.44919 0.23784 0.0
H213 H 0.27165 0.7957 0.83637 0.0
H214 H 0.29562 0.82156 0.67091 0.0
H215 H 0.23567 0.77043 0.6436 0.0
H216 H 0.23902 0.70746 0.81411 0.0
H217 H 0.20391 0.69319 0.86412 0.0
H218 H 0.24399 0.73588 0.87153 0.0
H219 H 0.20195 0.76507 0.87922 0.0
H220 H 0.16159 0.72228 0.87175 0.0
H221 H 0.16815 0.75647 0.8274 0.0
H222 H 0.17759 0.71305 0.63356 0.0
H223 H 0.12975 0.6511 0.64012 0.0
H224 H 0.14551 0.66055 0.81203 0.0
C225 C 0.26358 0.79129 0.79459 0.0
C226 C 0.28775 0.8128 0.75571 0.0
C227 C 0.27716 0.80549 0.70122 0.0
C228 C 0.2431 0.77669 0.68545 0.0
C229 C 0.2202 0.75537 0.72468 0.0
C230 C 0.23011 0.7622 0.77816 0.0
C231 C 0.20358 0.73236 0.81157 0.0
C232 C 0.22384 0.71628 0.84208 0.0
C233 C 0.18257 0.7448 0.84974 0.0
C234 C 0.17812 0.70702 0.76834 0.0
C235 C 0.18749 0.72123 0.71871 0.0
C236 C 0.16965 0.70183 0.67226 0.0
C237 C 0.14245 0.6666 0.67644 0.0
C238 C 0.1339 0.65093 0.72662 0.0
C239 C 0.15118 0.67185 0.77319 0.0
H240 H 0.44083 0.95639 0.89754 0.0
H241 H 0.37984 0.85676 0.97423 0.0
H242 H 0.391 0.88879 0.06169 0.0
H243 H 0.51068 -0.00245 -0.00268 0.0
H244 H 0.51467 0.04063 0.99162 0.0
H245 H 0.49977 0.00996 0.9349 0.0
H246 H 0.44027 0.01567 0.92631 0.0
H247 H 0.455 0.04637 0.98308 0.0
H248 H 0.41057 0.00722 0.98282 0.0
H249 H 0.41056 0.93168 0.141 0.0
H250 H 0.43891 0.98202 0.20652 0.0
H251 H 0.48788 0.05322 0.07749 0.0
C252 C 0.42947 0.94128 0.93263 0.0
C253 C 0.40933 0.90409 0.92909 0.0
C254 C 0.39534 0.88529 0.97603 0.0
C255 C 0.40143 0.90323 0.02584 0.0
C256 C 0.42159 0.93992 0.02793 0.0
C257 C 0.43547 0.95872 0.98258 0.0
C258 C 0.45766 -0.00212 -0.00416 0.0
C259 C 0.49809 0.01234 0.97893 0.0
C260 C 0.43979 0.01796 0.97051 0.0
C261 C 0.45448 -0.00182 0.05585 0.0
C262 C 0.43329 0.96454 0.07358 0.0
C263 C 0.42708 0.95816 0.12758 0.0
C264 C 0.44329 0.98693 0.16447 0.0
C265 C 0.46563 0.02155 0.14714 0.0
C266 C 0.47091 0.02711 0.09204 0.0
H267 H 0.58444 0.52279 0.35252 0.0
H268 H 0.48203 0.46773 0.26009 0.0
H269 H 0.45114 0.48784 0.32626 0.0
H270 H 0.54494 0.50184 0.4784 0.0
H271 H 0.57589 0.5438 0.51074 0.0
H272 H 0.59093 0.52789 0.45371 0.0
H273 H 0.60695 0.58522 0.40554 0.0
H274 H 0.59199 0.60138 0.46256 0.0
H275 H 0.57203 0.5985 0.39758 0.0
H276 H 0.43013 0.50982 0.40547 0.0
H277 H 0.42044 0.53233 0.49248 0.0
H278 H 0.53659 0.57356 0.53316 0.0
C279 C 0.55565 0.51535 0.34577 0.0
C280 C 0.53567 0.4937 0.30109 0.0
C281 C 0.49795 0.48434 0.29397 0.0
C282 C 0.48016 0.49571 0.33126 0.0
C283 C 0.50052 0.51661 0.37522 0.0
C284 C 0.53747 0.52651 0.38254 0.0
C285 C 0.55253 0.54765 0.43458 0.0
C286 C 0.5669 0.52918 0.47153 0.0
C287 C 0.58266 0.58543 0.42444 0.0
C288 C 0.51799 0.5472 0.45606 0.0
C289 C 0.4884 0.52946 0.42095 0.0
C290 C 0.45317 0.52412 0.43306 0.0
C291 C 0.44794 0.53695 0.48264 0.0
C292 C 0.47777 0.55481 0.51957 0.0
C293 C 0.51332 0.56036 0.5056 0.0
H294 H 0.0249 0.50627 0.91264 0.0
H295 H 0.0646 0.43127 0.87747 0.0
H296 H 0.03265 0.39841 0.9563 0.0
H297 H 0.03363 0.5083 0.05474 0.0
H298 H 0.9921 0.51125 0.06693 0.0
H299 H 0.01793 0.52877 0.00751 0.0
H300 H 0.95929 0.48996 0.94948 0.0
H301 H 0.93328 0.47235 0.00874 0.0
H302 H 0.93488 0.44297 0.95713 0.0
H303 H -0.00248 0.37445 0.0401 0.0
H304 H 0.96007 0.36015 0.12144 0.0
H305 H 0.94249 0.45017 0.10045 0.0
C306 C 0.02686 0.48292 0.92145 0.0
C307 C 0.04729 0.47137 0.88894 0.0
C308 C 0.04906 0.44061 0.90176 0.0
C309 C 0.03106 0.42178 0.94649 0.0
C310 C 0.01126 0.43395 0.97779 0.0
C311 C 0.00891 0.46371 0.96574 0.0
C312 C 0.98571 0.47111 0.00573 0.0
C313 C 0.00873 0.50698 0.03549 0.0
C314 C 0.95125 0.46895 0.97864 0.0
C315 C 0.97552 0.44094 0.04225 0.0
C316 C 0.9906 0.41985 0.02557 0.0
C317 C 0.98543 0.39068 0.05347 0.0
C318 C 0.96418 0.3828 0.09964 0.0
C319 C 0.94827 0.40396 0.11719 0.0
C320 C 0.95409 0.43335 0.08792 0.0
H321 H 0.4714 0.02905 0.43987 0.0
H322 H 0.58832 0.0607 0.43302 0.0
H323 H 0.58463 0.03384 0.51927 0.0
H324 H 0.46712 0.04152 0.58417 0.0
H325 H 0.42243 0.00307 0.58867 0.0
H326 H 0.43491 0.02732 0.52858 0.0
H327 H 0.42103 0.97023 0.47352 0.0
H328 H 0.40857 0.94584 0.53337 0.0
H329 H 0.4439 0.94547 0.49138 0.0
H330 H 0.56785 0.0018 0.60436 0.0
H331 H 0.53856 0.96435 0.68042 0.0
H332 H 0.43212 0.95186 0.63019 0.0
C333 C 0.49633 0.03078 0.4569 0.0
C334 C 0.5302 0.04713 0.42997 0.0
C335 C 0.56208 0.0483 0.45303 0.0
C336 C 0.5603 0.03325 0.50208 0.0
C337 C 0.52641 0.01701 0.52736 0.0
C338 C 0.49496 0.01554 0.50552 0.0
C339 C 0.46152 0.99464 0.53919 0.0
C340 C 0.44556 0.01805 0.56148 0.0
C341 C 0.43203 0.96212 0.50747 0.0
C342 C 0.47901 0.9842 0.58298 0.0
C343 C 0.51653 -0.00226 0.57576 0.0
C344 C 0.53852 0.99117 0.61058 0.0
C345 C 0.52161 0.96988 0.65368 0.0
C346 C 0.48305 0.95514 0.66122 0.0
C347 C 0.46165 0.96273 0.62553 0.0
H348 H 0.57017 0.6075 0.85912 0.0
H349 H 0.51532 0.51454 0.75327 0.0
H350 H 0.51836 0.47785 0.824 0.0
H351 H 0.63022 0.58075 0.93171 0.0
H352 H 0.62424 0.59891 -0.0055 0.0
H353 H 0.62257 0.61844 0.93321 0.0
H354 H 0.55805 0.61059 0.95767 0.0
H355 H 0.55933 0.59074 0.01868 0.0
H356 H 0.52137 0.56736 0.97193 0.0
H357 H 0.52322 0.45081 0.90784 0.0
H358 H 0.52812 0.43498 -0.00025 0.0
H359 H 0.57679 0.54525 0.0522 0.0
C360 C 0.55979 0.57959 0.85041 0.0
C361 C 0.54296 0.56382 0.80066 0.0
C362 C 0.52855 0.52706 0.79114 0.0
C363 C 0.53022 0.50607 0.83096 0.0
C364 C 0.54613 0.52225 0.88013 0.0
C365 C 0.56066 0.55817 0.89004 0.0
C366 C 0.57307 0.56849 0.94772 0.0
C367 C 0.61502 0.5931 0.95202 0.0
C368 C 0.55166 0.58527 0.97562 0.0
C369 C 0.5626 0.5327 0.96889 0.0
C370 C 0.54762 0.50646 0.9291 0.0
C371 C 0.53514 0.47115 0.93928 0.0
C372 C 0.53797 0.46242 0.9916 0.0
C373 C 0.55272 0.48886 0.03312 0.0
C374 C 0.56529 0.52443 0.02136 0.0
H375 H 0.97137 0.49953 0.64953 0.0
H376 H 0.06909 0.48931 0.61455 0.0
H377 H 0.04359 0.46415 0.52501 0.0
H378 H 0.90535 0.41873 0.57797 0.0
H379 H 0.87805 0.43784 0.55414 0.0
H380 H 0.90324 0.45374 0.61654 0.0
H381 H 0.93612 0.51723 0.58264 0.0
H382 H 0.91116 0.50152 0.5201 0.0
H383 H 0.96094 0.52566 0.52105 0.0
H384 H 0.00914 0.4425 0.43842 0.0
H385 H 0.96703 0.42452 0.36025 0.0
H386 H 0.89144 0.44844 0.45113 0.0
C387 C 0.98725 0.49169 0.62325 0.0
C388 C 0.02221 0.49636 0.6391 0.0
C389 C 0.04224 0.486 0.60333 0.0
C390 C 0.028 0.47165 0.55237 0.0
C391 C -0.00631 0.46776 0.5378 0.0
C392 C 0.97347 0.47734 0.57213 0.0
C393 C 0.93771 0.47117 0.54592 0.0
C394 C 0.9041 0.44373 0.5754 0.0
C395 C 0.93643 0.50597 0.54221 0.0
C396 C 0.94119 0.45689 0.49139 0.0
C397 C 0.97367 0.45512 0.48764 0.0
C398 C 0.9835 0.44356 0.44089 0.0
C399 C 0.95943 0.43349 0.39669 0.0
C400 C 0.92591 0.43501 0.39959 0.0
C401 C 0.91674 0.4468 0.44772 0.0
loop_
_geom_bond_atom_site_label_1
_geom_bond_atom_site_label_2
_geom_bond_distance
_geom_bond_site_symmetry_2
_ccdc_geom_bond_type
C0 O1 1.160 . S
C0 O7 1.185 . S
O1 C0 1.160 . S
O2 Zn3 1.899 . S
O2 C10 1.284 . S
Zn3 O2 1.899 . S
Zn3 O4 2.032 . S
Zn3 O7 2.086 . S
Zn3 O12 1.977 . S
O4 Zn3 2.032 . S
O4 C8 1.278 . S
C5 O6 1.203 . S
C5 O12 1.267 . S
O6 C5 1.203 . S
O7 C0 1.185 . S
O7 Zn3 2.086 . S
C8 O4 1.278 . S
C8 O9 1.211 . S
O9 C8 1.211 . S
C10 O2 1.284 . S
C10 O11 1.273 . S
O11 C10 1.273 . S
O12 Zn3 1.977 . S
O12 C5 1.267 . S
C13 O14 1.160 . S
C13 O20 1.185 . S
O14 C13 1.160 . S
O15 Zn16 1.899 . S
O15 C23 1.284 . S
Zn16 O15 1.899 . S
Zn16 O17 2.032 . S
Zn16 O20 2.086 . S
Zn16 O25 1.977 . S
O17 Zn16 2.032 . S
O17 C21 1.278 . S
C18 O19 1.203 . S
C18 O25 1.267 . S
O19 C18 1.203 . S
O20 C13 1.185 . S
O20 Zn16 2.086 . S
C21 O17 1.278 . S
C21 O22 1.211 . S
O22 C21 1.211 . S
C23 O15 1.284 . S
C23 O24 1.273 . S
O24 C23 1.273 . S
O25 Zn16 1.977 . S
O25 C18 1.267 . S
C26 O27 1.160 . S
C26 O33 1.185 . S
O27 C26 1.160 . S
O28 Zn29 1.899 . S
O28 C36 1.284 . S
Zn29 O28 1.899 . S
Zn29 O30 2.032 . S
Zn29 O33 2.086 . S
Zn29 O38 1.977 . S
O30 Zn29 2.032 . S
O30 C34 1.278 . S
C31 O32 1.203 . S
C31 O38 1.267 . S
O32 C31 1.203 . S
O33 C26 1.185 . S
O33 Zn29 2.086 . S
C34 O30 1.278 . S
C34 O35 1.211 . S
O35 C34 1.211 . S
C36 O28 1.284 . S
C36 O37 1.273 . S
O37 C36 1.273 . S
O38 Zn29 1.977 . S
O38 C31 1.267 . S
C39 O40 1.160 . S
C39 O46 1.185 . S
O40 C39 1.160 . S
O41 Zn42 1.899 . S
O41 C49 1.284 . S
Zn42 O41 1.899 . S
Zn42 O43 2.032 . S
Zn42 O46 2.086 . S
Zn42 O51 1.977 . S
O43 Zn42 2.032 . S
O43 C47 1.278 . S
C44 O45 1.203 . S
C44 O51 1.267 . S
O45 C44 1.203 . S
O46 C39 1.185 . S
O46 Zn42 2.086 . S
C47 O43 1.278 . S
C47 O48 1.211 . S
O48 C47 1.211 . S
C49 O41 1.284 . S
C49 O50 1.273 . S
O50 C49 1.273 . S
O51 Zn42 1.977 . S
O51 C44 1.267 . S
C52 O53 1.160 . S
C52 O59 1.185 . S
O53 C52 1.160 . S
O54 Zn55 1.899 . S
O54 C62 1.284 . S
Zn55 O54 1.899 . S
Zn55 O56 2.032 . S
Zn55 O59 2.086 . S
Zn55 O64 1.977 . S
O56 Zn55 2.032 . S
O56 C60 1.278 . S
C57 O58 1.203 . S
C57 O64 1.267 . S
O58 C57 1.203 . S
O59 C52 1.185 . S
O59 Zn55 2.086 . S
C60 O56 1.278 . S
C60 O61 1.211 . S
O61 C60 1.211 . S
C62 O54 1.284 . S
C62 O63 1.273 . S
O63 C62 1.273 . S
O64 Zn55 1.977 . S
O64 C57 1.267 . S
C65 O66 1.160 . S
C65 O72 1.185 . S
O66 C65 1.160 . S
O67 Zn68 1.899 . S
O67 C75 1.284 . S
Zn68 O67 1.899 . S
Zn68 O69 2.032 . S
Zn68 O72 2.086 . S
Zn68 O77 1.977 . S
O69 Zn68 2.032 . S
O69 C73 1.278 . S
C70 O71 1.203 . S
C70 O77 1.267 . S
O71 C70 1.203 . S
O72 C65 1.185 . S
O72 Zn68 2.086 . S
C73 O69 1.278 . S
C73 O74 1.211 . S
O74 C73 1.211 . S
C75 O67 1.284 . S
C75 O76 1.273 . S
O76 C75 1.273 . S
O77 Zn68 1.977 . S
O77 C70 1.267 . S
H78 C90 0.930 . S
H79 C92 0.930 . S
H80 C93 0.930 . S
H81 C97 0.959 . S
H82 C97 0.959 . S
H83 C97 0.961 . S
H84 C98 0.960 . S
H85 C98 0.961 . S
H86 C98 0.959 . S
H87 C101 0.929 . S
H88 C102 0.931 . S
H89 C104 0.930 . S
C90 H78 0.930 . S
C90 C91 1.399 . S
C90 C95 1.399 . S
C91 C90 1.399 . S
C91 C92 1.376 . S
C92 H79 0.930 . S
C92 C91 1.376 . S
C92 C93 1.388 . S
C93 H80 0.930 . S
C93 C92 1.388 . S
C93 C94 1.390 . S
C94 C93 1.390 . S
C94 C95 1.394 . S
C94 C100 1.465 . S
C95 C90 1.399 . S
C95 C94 1.394 . S
C95 C96 1.516 . S
C96 C95 1.516 . S
C96 C97 1.502 . S
C96 C98 1.561 . S
C96 C99 1.526 . S
C97 H81 0.959 . S
C97 H82 0.959 . S
C97 H83 0.961 . S
C97 C96 1.502 . S
C98 H84 0.960 . S
C98 H85 0.961 . S
C98 H86 0.959 . S
C98 C96 1.561 . S
C99 C96 1.526 . S
C99 C100 1.396 . S
C99 C104 1.390 . S
C100 C94 1.465 . S
C100 C99 1.396 . S
C100 C101 1.399 . S
C101 H87 0.929 . S
C101 C100 1.399 . S
C101 C102 1.385 . S
C102 H88 0.931 . S
C102 C101 1.385 . S
C102 C103 1.389 . S
C103 C102 1.389 . S
C103 C104 1.387 . S
C104 H89 0.930 . S
C104 C99 1.390 . S
C104 C103 1.387 . S
H105 C117 0.930 . S
H106 C119 0.930 . S
H107 C120 0.930 . S
H108 C124 0.959 . S
H109 C124 0.959 . S
H110 C124 0.961 . S
H111 C125 0.960 . S
H112 C125 0.961 . S
H113 C125 0.959 . S
H114 C128 0.929 . S
H115 C129 0.931 . S
H116 C131 0.930 . S
C117 H105 0.930 . S
C117 C118 1.399 . S
C117 C122 1.399 . S
C118 C117 1.399 . S
C118 C119 1.376 . S
C119 H106 0.930 . S
C119 C118 1.376 . S
C119 C120 1.388 . S
C120 H107 0.930 . S
C120 C119 1.388 . S
C120 C121 1.390 . S
C121 C120 1.390 . S
C121 C122 1.394 . S
C121 C127 1.465 . S
C122 C117 1.399 . S
C122 C121 1.394 . S
C122 C123 1.516 . S
C123 C122 1.516 . S
C123 C124 1.502 . S
C123 C125 1.561 . S
C123 C126 1.526 . S
C124 H108 0.959 . S
C124 H109 0.959 . S
C124 H110 0.961 . S
C124 C123 1.502 . S
C125 H111 0.960 . S
C125 H112 0.961 . S
C125 H113 0.959 . S
C125 C123 1.561 . S
C126 C123 1.526 . S
C126 C127 1.396 . S
C126 C131 1.390 . S
C127 C121 1.465 . S
C127 C126 1.396 . S
C127 C128 1.399 . S
C128 H114 0.929 . S
C128 C127 1.399 . S
C128 C129 1.385 . S
C129 H115 0.931 . S
C129 C128 1.385 . S
C129 C130 1.389 . S
C130 C129 1.389 . S
C130 C131 1.387 . S
C131 H116 0.930 . S
C131 C126 1.390 . S
C131 C130 1.387 . S
H132 C144 0.930 . S
H133 C146 0.930 . S
H134 C147 0.930 . S
H135 C151 0.959 . S
H136 C151 0.959 . S
H137 C151 0.961 . S
H138 C152 0.960 . S
H139 C152 0.961 . S
H140 C152 0.959 . S
H141 C155 0.929 . S
H142 C156 0.931 . S
H143 C158 0.930 . S
C144 H132 0.930 . S
C144 C145 1.399 . S
C144 C149 1.399 . S
C145 C144 1.399 . S
C145 C146 1.376 . S
C146 H133 0.930 . S
C146 C145 1.376 . S
C146 C147 1.388 . S
C147 H134 0.930 . S
C147 C146 1.388 . S
C147 C148 1.390 . S
C148 C147 1.390 . S
C148 C149 1.394 . S
C148 C154 1.465 . S
C149 C144 1.399 . S
C149 C148 1.394 . S
C149 C150 1.516 . S
C150 C149 1.516 . S
C150 C151 1.502 . S
C150 C152 1.561 . S
C150 C153 1.526 . S
C151 H135 0.959 . S
C151 H136 0.959 . S
C151 H137 0.961 . S
C151 C150 1.502 . S
C152 H138 0.960 . S
C152 H139 0.961 . S
C152 H140 0.959 . S
C152 C150 1.561 . S
C153 C150 1.526 . S
C153 C154 1.396 . S
C153 C158 1.390 . S
C154 C148 1.465 . S
C154 C153 1.396 . S
C154 C155 1.399 . S
C155 H141 0.929 . S
C155 C154 1.399 . S
C155 C156 1.385 . S
C156 H142 0.931 . S
C156 C155 1.385 . S
C156 C157 1.389 . S
C157 C156 1.389 . S
C157 C158 1.387 . S
C158 H143 0.930 . S
C158 C153 1.390 . S
C158 C157 1.387 . S
H159 C171 0.930 . S
H160 C173 0.930 . S
H161 C174 0.930 . S
H162 C178 0.959 . S
H163 C178 0.959 . S
H164 C178 0.961 . S
H165 C179 0.960 . S
H166 C179 0.961 . S
H167 C179 0.959 . S
H168 C182 0.929 . S
H169 C183 0.931 . S
H170 C185 0.930 . S
C171 H159 0.930 . S
C171 C172 1.399 . S
C171 C176 1.399 . S
C172 C171 1.399 . S
C172 C173 1.376 . S
C173 H160 0.930 . S
C173 C172 1.376 . S
C173 C174 1.388 . S
C174 H161 0.930 . S
C174 C173 1.388 . S
C174 C175 1.390 . S
C175 C174 1.390 . S
C175 C176 1.394 . S
C175 C181 1.465 . S
C176 C171 1.399 . S
C176 C175 1.394 . S
C176 C177 1.516 . S
C177 C176 1.516 . S
C177 C178 1.502 . S
C177 C179 1.561 . S
C177 C180 1.526 . S
C178 H162 0.959 . S
C178 H163 0.959 . S
C178 H164 0.961 . S
C178 C177 1.502 . S
C179 H165 0.960 . S
C179 H166 0.961 . S
C179 H167 0.959 . S
C179 C177 1.561 . S
C180 C177 1.526 . S
C180 C181 1.396 . S
C180 C185 1.390 . S
C181 C175 1.465 . S
C181 C180 1.396 . S
C181 C182 1.399 . S
C182 H168 0.929 . S
C182 C181 1.399 . S
C182 C183 1.385 . S
C183 H169 0.931 . S
C183 C182 1.385 . S
C183 C184 1.389 . S
C184 C183 1.389 . S
C184 C185 1.387 . S
C185 H170 0.930 . S
C185 C180 1.390 . S
C185 C184 1.387 . S
H186 C198 0.930 . S
H187 C200 0.930 . S
H188 C201 0.930 . S
H189 C205 0.959 . S
H190 C205 0.959 . S
H191 C205 0.961 . S
H192 C206 0.960 . S
H193 C206 0.961 . S
H194 C206 0.959 . S
H195 C209 0.929 . S
H196 C210 0.931 . S
H197 C212 0.930 . S
C198 H186 0.930 . S
C198 C199 1.399 . S
C198 C203 1.399 . S
C199 C198 1.399 . S
C199 C200 1.376 . S
C200 H187 0.930 . S
C200 C199 1.376 . S
C200 C201 1.388 . S
C201 H188 0.930 . S
C201 C200 1.388 . S
C201 C202 1.390 . S
C202 C201 1.390 . S
C202 C203 1.394 . S
C202 C208 1.465 . S
C203 C198 1.399 . S
C203 C202 1.394 . S
C203 C204 1.516 . S
C204 C203 1.516 . S
C204 C205 1.502 . S
C204 C206 1.561 . S
C204 C207 1.526 . S
C205 H189 0.959 . S
C205 H190 0.959 . S
C205 H191 0.961 . S
C205 C204 1.502 . S
C206 H192 0.960 . S
C206 H193 0.961 . S
C206 H194 0.959 . S
C206 C204 1.561 . S
C207 C204 1.526 . S
C207 C208 1.396 . S
C207 C212 1.390 . S
C208 C202 1.465 . S
C208 C207 1.396 . S
C208 C209 1.399 . S
C209 H195 0.929 . S
C209 C208 1.399 . S
C209 C210 1.385 . S
C210 H196 0.931 . S
C210 C209 1.385 . S
C210 C211 1.389 . S
C211 C210 1.389 . S
C211 C212 1.387 . S
C212 H197 0.930 . S
C212 C207 1.390 . S
C212 C211 1.387 . S
H213 C225 0.930 . S
H214 C227 0.930 . S
H215 C228 0.930 . S
H216 C232 0.959 . S
H217 C232 0.959 . S
H218 C232 0.961 . S
H219 C233 0.960 . S
H220 C233 0.961 . S
H221 C233 0.959 . S
H222 C236 0.929 . S
H223 C237 0.931 . S
H224 C239 0.930 . S
C225 H213 0.930 . S
C225 C226 1.399 . S
C225 C230 1.399 . S
C226 C225 1.399 . S
C226 C227 1.376 . S
C227 H214 0.930 . S
C227 C226 1.376 . S
C227 C228 1.388 . S
C228 H215 0.930 . S
C228 C227 1.388 . S
C228 C229 1.390 . S
C229 C228 1.390 . S
C229 C230 1.394 . S
C229 C235 1.465 . S
C230 C225 1.399 . S
C230 C229 1.394 . S
C230 C231 1.516 . S
C231 C230 1.516 . S
C231 C232 1.502 . S
C231 C233 1.561 . S
C231 C234 1.526 . S
C232 H216 0.959 . S
C232 H217 0.959 . S
C232 H218 0.961 . S
C232 C231 1.502 . S
C233 H219 0.960 . S
C233 H220 0.961 . S
C233 H221 0.959 . S
C233 C231 1.561 . S
C234 C231 1.526 . S
C234 C235 1.396 . S
C234 C239 1.390 . S
C235 C229 1.465 . S
C235 C234 1.396 . S
C235 C236 1.399 . S
C236 H222 0.929 . S
C236 C235 1.399 . S
C236 C237 1.385 . S
C237 H223 0.931 . S
C237 C236 1.385 . S
C237 C238 1.389 . S
C238 C237 1.389 . S
C238 C239 1.387 . S
C239 H224 0.930 . S
C239 C234 1.390 . S
C239 C238 1.387 . S
H240 C252 0.930 . S
H241 C254 0.930 . S
H242 C255 0.930 . S
H243 C259 0.959 . S
H244 C259 0.959 . S
H245 C259 0.961 . S
H246 C260 0.960 . S
H247 C260 0.961 . S
H248 C260 0.959 . S
H249 C263 0.929 . S
H250 C264 0.931 . S
H251 C266 0.930 . S
C252 H240 0.930 . S
C252 C253 1.399 . S
C252 C257 1.399 . S
C253 C252 1.399 . S
C253 C254 1.376 . S
C254 H241 0.930 . S
C254 C253 1.376 . S
C254 C255 1.388 . S
C255 H242 0.930 . S
C255 C254 1.388 . S
C255 C256 1.390 . S
C256 C255 1.390 . S
C256 C257 1.394 . S
C256 C262 1.465 1_566 S
C257 C252 1.399 . S
C257 C256 1.394 . S
C257 C258 1.516 1_565 S
C258 C257 1.516 1_545 S
C258 C259 1.502 . S
C258 C260 1.561 . S
C258 C261 1.526 1_556 S
C259 H243 0.959 . S
C259 H244 0.959 . S
C259 H245 0.961 . S
C259 C258 1.502 . S
C260 H246 0.960 . S
C260 H247 0.961 . S
C260 H248 0.959 . S
C260 C258 1.561 . S
C261 C258 1.526 1_554 S
C261 C262 1.396 . S
C261 C266 1.390 . S
C262 C256 1.465 1_544 S
C262 C261 1.396 . S
C262 C263 1.399 1_545 S
C263 H249 0.929 . S
C263 C262 1.399 1_565 S
C263 C264 1.385 1_565 S
C264 H250 0.931 . S
C264 C263 1.385 1_545 S
C264 C265 1.389 . S
C265 C264 1.389 . S
C265 C266 1.387 . S
C266 H251 0.930 . S
C266 C261 1.390 . S
C266 C265 1.387 . S
H267 C279 0.930 . S
H268 C281 0.930 . S
H269 C282 0.930 . S
H270 C286 0.959 . S
H271 C286 0.959 . S
H272 C286 0.961 . S
H273 C287 0.960 . S
H274 C287 0.961 . S
H275 C287 0.959 . S
H276 C290 0.929 . S
H277 C291 0.931 . S
H278 C293 0.930 . S
C279 H267 0.930 . S
C279 C280 1.399 . S
C279 C284 1.399 . S
C280 C279 1.399 . S
C280 C281 1.376 . S
C281 H268 0.930 . S
C281 C280 1.376 . S
C281 C282 1.388 . S
C282 H269 0.930 . S
C282 C281 1.388 . S
C282 C283 1.390 . S
C283 C282 1.390 . S
C283 C284 1.394 . S
C283 C289 1.465 . S
C284 C279 1.399 . S
C284 C283 1.394 . S
C284 C285 1.516 . S
C285 C284 1.516 . S
C285 C286 1.502 . S
C285 C287 1.561 . S
C285 C288 1.526 . S
C286 H270 0.959 . S
C286 H271 0.959 . S
C286 H272 0.961 . S
C286 C285 1.502 . S
C287 H273 0.960 . S
C287 H274 0.961 . S
C287 H275 0.959 . S
C287 C285 1.561 . S
C288 C285 1.526 . S
C288 C289 1.396 . S
C288 C293 1.390 . S
C289 C283 1.465 . S
C289 C288 1.396 . S
C289 C290 1.399 . S
C290 H276 0.929 . S
C290 C289 1.399 . S
C290 C291 1.385 . S
C291 H277 0.931 . S
C291 C290 1.385 . S
C291 C292 1.389 . S
C292 C291 1.389 . S
C292 C293 1.387 . S
C293 H278 0.930 . S
C293 C288 1.390 . S
C293 C292 1.387 . S
H294 C306 0.930 . S
H295 C308 0.930 . S
H296 C309 0.930 . S
H297 C313 0.959 . S
H298 C313 0.959 . S
H299 C313 0.961 . S
H300 C314 0.960 . S
H301 C314 0.961 . S
H302 C314 0.959 . S
H303 C317 0.929 . S
H304 C318 0.931 . S
H305 C320 0.930 . S
C306 H294 0.930 . S
C306 C307 1.399 . S
C306 C311 1.410 . S
C307 C306 1.399 . S
C307 C308 1.376 . S
C308 H295 0.930 . S
C308 C307 1.376 . S
C308 C309 1.388 1_455 S
C309 H296 0.930 . S
C309 C308 1.388 1_655 S
C309 C310 1.390 . S
C310 C309 1.390 . S
C310 C311 1.398 1_655 S
C310 C316 1.465 1_556 S
C311 C306 1.410 . S
C311 C310 1.398 1_455 S
C311 C312 1.501 1_556 S
C312 C311 1.501 1_554 S
C312 C313 1.502 . S
C312 C314 1.561 . S
C312 C315 1.526 1_455 S
C313 H297 0.959 . S
C313 H298 0.959 . S
C313 H299 0.961 . S
C313 C312 1.502 . S
C314 H300 0.960 . S
C314 H301 0.961 . S
C314 H302 0.959 . S
C314 C312 1.561 . S
C315 C312 1.526 1_655 S
C315 C316 1.396 . S
C315 C320 1.390 . S
C316 C310 1.465 1_554 S
C316 C315 1.396 . S
C316 C317 1.399 . S
C317 H303 0.929 . S
C317 C316 1.399 . S
C317 C318 1.385 . S
C318 H304 0.931 . S
C318 C317 1.385 . S
C318 C319 1.389 . S
C319 C318 1.389 . S
C319 C320 1.387 . S
C320 H305 0.930 . S
C320 C315 1.390 . S
C320 C319 1.387 . S
H321 C333 0.930 . S
H322 C335 0.930 . S
H323 C336 0.930 . S
H324 C340 0.959 . S
H325 C340 0.959 . S
H326 C340 0.961 . S
H327 C341 0.960 . S
H328 C341 0.961 . S
H329 C341 0.959 1_565 S
H330 C344 0.929 . S
H331 C345 0.931 . S
H332 C347 0.930 . S
C333 H321 0.930 . S
C333 C334 1.399 . S
C333 C338 1.399 . S
C334 C333 1.399 . S
C334 C335 1.376 . S
C335 H322 0.930 . S
C335 C334 1.376 . S
C335 C336 1.388 1_545 S
C336 H323 0.930 . S
C336 C335 1.388 1_565 S
C336 C337 1.390 . S
C337 C336 1.390 . S
C337 C338 1.394 1_565 S
C337 C343 1.465 . S
C338 C333 1.399 . S
C338 C337 1.394 1_545 S
C338 C339 1.516 . S
C339 C338 1.516 . S
C339 C340 1.502 . S
C339 C341 1.561 . S
C339 C342 1.526 1_545 S
C340 H324 0.959 . S
C340 H325 0.959 . S
C340 H326 0.961 . S
C340 C339 1.502 . S
C341 H327 0.960 . S
C341 H328 0.961 . S
C341 H329 0.959 1_545 S
C341 C339 1.561 . S
C342 C339 1.526 1_565 S
C342 C343 1.396 . S
C342 C347 1.390 . S
C343 C337 1.465 . S
C343 C342 1.396 . S
C343 C344 1.399 . S
C344 H330 0.929 . S
C344 C343 1.399 . S
C344 C345 1.385 . S
C345 H331 0.931 . S
C345 C344 1.385 . S
C345 C346 1.389 . S
C346 C345 1.389 . S
C346 C347 1.387 . S
C347 H332 0.930 . S
C347 C342 1.390 . S
C347 C346 1.387 . S
H348 C360 0.930 . S
H349 C362 0.930 . S
H350 C363 0.930 . S
H351 C367 0.959 . S
H352 C367 0.959 . S
H353 C367 0.961 . S
H354 C368 0.960 1_556 S
H355 C368 0.961 . S
H356 C368 0.959 . S
H357 C371 0.929 . S
H358 C372 0.931 . S
H359 C374 0.930 . S
C360 H348 0.930 . S
C360 C361 1.399 . S
C360 C365 1.399 . S
C361 C360 1.399 . S
C361 C362 1.376 . S
C362 H349 0.930 . S
C362 C361 1.376 . S
C362 C363 1.388 . S
C363 H350 0.930 . S
C363 C362 1.388 . S
C363 C364 1.390 . S
C364 C363 1.390 . S
C364 C365 1.394 . S
C364 C370 1.465 1_556 S
C365 C360 1.399 . S
C365 C364 1.394 . S
C365 C366 1.516 . S
C366 C365 1.516 . S
C366 C367 1.502 . S
C366 C368 1.561 1_556 S
C366 C369 1.526 1_556 S
C367 H351 0.959 . S
C367 H352 0.959 . S
C367 H353 0.961 . S
C367 C366 1.502 . S
C368 H354 0.960 1_554 S
C368 H355 0.961 . S
C368 H356 0.959 . S
C368 C366 1.561 1_554 S
C369 C366 1.526 1_554 S
C369 C370 1.396 . S
C369 C374 1.390 . S
C370 C364 1.465 1_554 S
C370 C369 1.396 . S
C370 C371 1.399 . S
C371 H357 0.929 . S
C371 C370 1.399 . S
C371 C372 1.385 . S
C372 H358 0.931 . S
C372 C371 1.385 . S
C372 C373 1.389 . S
C373 C372 1.389 . S
C373 C374 1.387 . S
C374 H359 0.930 . S
C374 C369 1.390 . S
C374 C373 1.387 . S
H375 C387 0.930 . S
H376 C389 0.930 . S
H377 C390 0.930 . S
H378 C394 0.959 . S
H379 C394 0.959 . S
H380 C394 0.961 . S
H381 C395 0.960 . S
H382 C395 0.961 . S
H383 C395 0.959 . S
H384 C398 0.900 1_455 S
H385 C399 0.931 . S
H386 C401 0.930 . S
C387 H375 0.930 . S
C387 C388 1.399 . S
C387 C392 1.399 . S
C388 C387 1.399 . S
C388 C389 1.376 . S
C389 H376 0.930 . S
C389 C388 1.376 . S
C389 C390 1.388 . S
C390 H377 0.930 . S
C390 C389 1.388 . S
C390 C391 1.390 . S
C391 C390 1.390 . S
C391 C392 1.394 . S
C391 C397 1.465 . S
C392 C387 1.399 . S
C392 C391 1.394 . S
C392 C393 1.516 1_455 S
C393 C392 1.516 1_655 S
C393 C394 1.502 . S
C393 C395 1.561 1_655 S
C393 C396 1.526 . S
C394 H378 0.959 . S
C394 H379 0.959 . S
C394 H380 0.961 . S
C394 C393 1.502 . S
C395 H381 0.960 . S
C395 H382 0.961 . S
C395 H383 0.959 . S
C395 C393 1.561 1_455 S
C396 C393 1.526 . S
C396 C397 1.396 1_655 S
C396 C401 1.390 . S
C397 C391 1.465 . S
C397 C396 1.396 1_455 S
C397 C398 1.409 1_455 S
C398 H384 0.900 1_655 S
C398 C397 1.409 1_655 S
C398 C399 1.406 . S
C399 H385 0.931 . S
C399 C398 1.406 . S
C399 C400 1.389 . S
C400 C399 1.389 . S
C400 C401 1.387 . S
C401 H386 0.930 . S
C401 C396 1.390 . S
C401 C400 1.387 . S
C91 C5 0.846 . S
C103 C57 0.870 . S
C118 C23 0.952 . S
C130 C75 0.995 . S
C145 C10 0.953 . S
C157 C31 0.870 . S
C172 C49 0.989 . S
C184 C18 0.982 . S
C199 C62 1.030 . S
C211 C36 0.996 . S
C226 C44 0.885 . S
C238 C70 0.848 . S
C253 C47 1.266 . S
C265 C8 1.300 . S
C280 C60 1.324 . S
C292 C13 1.306 . S
C307 C65 1.345 . S
C319 C34 1.304 . S
C334 C0 1.351 . S
C346 C39 1.296 . S
C361 C21 1.327 . S
C373 C52 1.353 . S
C388 C73 1.331 . S
C400 C26 1.365 . S
