# Generated by pormake.
# Topology son, (6)-cn, num edge types: 1
# Building blocks:
#     Node 0, Type 0, BuildingBlock: BETDIP_clean_sbu_0, # of connection points: 6
#     Node 1, Type 0, BuildingBlock: BETDIP_clean_sbu_0, # of connection points: 6
#     Node 2, Type 0, BuildingBlock: BETDIP_clean_sbu_0, # of connection points: 6
#     Node 3, Type 0, BuildingBlock: BETDIP_clean_sbu_0, # of connection points: 6
#     Node 4, Type 0, BuildingBlock: BETDIP_clean_sbu_0, # of connection points: 6
#     Node 5, Type 0, BuildingBlock: BETDIP_clean_sbu_0, # of connection points: 6
#     Node 6, Type 0, BuildingBlock: BETDIP_clean_sbu_0, # of connection points: 6
#     Node 7, Type 0, BuildingBlock: BETDIP_clean_sbu_0, # of connection points: 6
#     Node 8, Type 0, BuildingBlock: BETDIP_clean_sbu_0, # of connection points: 6
#     Node 9, Type 0, BuildingBlock: BETDIP_clean_sbu_0, # of connection points: 6
#     Node 10, Type 0, BuildingBlock: BETDIP_clean_sbu_0, # of connection points: 6
#     Node 11, Type 0, BuildingBlock: BETDIP_clean_sbu_0, # of connection points: 6
#     Node 12, Type 0, BuildingBlock: BETDIP_clean_sbu_0, # of connection points: 6
#     Node 13, Type 0, BuildingBlock: BETDIP_clean_sbu_0, # of connection points: 6
#     Node 14, Type 0, BuildingBlock: BETDIP_clean_sbu_0, # of connection points: 6
#     Node 15, Type 0, BuildingBlock: BETDIP_clean_sbu_0, # of connection points: 6
#     Node 16, Type 0, BuildingBlock: BETDIP_clean_sbu_0, # of connection points: 6
#     Node 17, Type 0, BuildingBlock: BETDIP_clean_sbu_0, # of connection points: 6
#     Node 18, Type 0, BuildingBlock: BETDIP_clean_sbu_0, # of connection points: 6
#     Node 19, Type 0, BuildingBlock: BETDIP_clean_sbu_0, # of connection points: 6
#     Node 20, Type 0, BuildingBlock: BETDIP_clean_sbu_0, # of connection points: 6
#     Node 21, Type 0, BuildingBlock: BETDIP_clean_sbu_0, # of connection points: 6
#     Node 22, Type 0, BuildingBlock: BETDIP_clean_sbu_0, # of connection points: 6
#     Node 23, Type 0, BuildingBlock: BETDIP_clean_sbu_0, # of connection points: 6
#     Node 24, Type 0, BuildingBlock: BETDIP_clean_sbu_0, # of connection points: 6
#     Node 25, Type 0, BuildingBlock: BETDIP_clean_sbu_0, # of connection points: 6
#     Node 26, Type 0, BuildingBlock: BETDIP_clean_sbu_0, # of connection points: 6
#     Node 27, Type 0, BuildingBlock: BETDIP_clean_sbu_0, # of connection points: 6
#     Node 28, Type 0, BuildingBlock: BETDIP_clean_sbu_0, # of connection points: 6
#     Node 29, Type 0, BuildingBlock: BETDIP_clean_sbu_0, # of connection points: 6
#     Node 30, Type 0, BuildingBlock: BETDIP_clean_sbu_0, # of connection points: 6
#     Node 31, Type 0, BuildingBlock: BETDIP_clean_sbu_0, # of connection points: 6
#     Edge 32, Type (0, 0), BuildingBlock: AJUNOK_clean_linker_0, # of connection points: 2
#     Edge 33, Type (0, 0), BuildingBlock: AJUNOK_clean_linker_0, # of connection points: 2
#     Edge 34, Type (0, 0), BuildingBlock: AJUNOK_clean_linker_0, # of connection points: 2
#     Edge 35, Type (0, 0), BuildingBlock: AJUNOK_clean_linker_0, # of connection points: 2
#     Edge 36, Type (0, 0), BuildingBlock: AJUNOK_clean_linker_0, # of connection points: 2
#     Edge 37, Type (0, 0), BuildingBlock: AJUNOK_clean_linker_0, # of connection points: 2
#     Edge 38, Type (0, 0), BuildingBlock: AJUNOK_clean_linker_0, # of connection points: 2
#     Edge 39, Type (0, 0), BuildingBlock: AJUNOK_clean_linker_0, # of connection points: 2
#     Edge 40, Type (0, 0), BuildingBlock: AJUNOK_clean_linker_0, # of connection points: 2
#     Edge 41, Type (0, 0), BuildingBlock: AJUNOK_clean_linker_0, # of connection points: 2
#     Edge 42, Type (0, 0), BuildingBlock: AJUNOK_clean_linker_0, # of connection points: 2
#     Edge 43, Type (0, 0), BuildingBlock: AJUNOK_clean_linker_0, # of connection points: 2
#     Edge 44, Type (0, 0), BuildingBlock: AJUNOK_clean_linker_0, # of connection points: 2
#     Edge 45, Type (0, 0), BuildingBlock: AJUNOK_clean_linker_0, # of connection points: 2
#     Edge 46, Type (0, 0), BuildingBlock: AJUNOK_clean_linker_0, # of connection points: 2
#     Edge 47, Type (0, 0), BuildingBlock: AJUNOK_clean_linker_0, # of connection points: 2
#     Edge 48, Type (0, 0), BuildingBlock: AJUNOK_clean_linker_0, # of connection points: 2
#     Edge 49, Type (0, 0), BuildingBlock: AJUNOK_clean_linker_0, # of connection points: 2
#     Edge 50, Type (0, 0), BuildingBlock: AJUNOK_clean_linker_0, # of connection points: 2
#     Edge 51, Type (0, 0), BuildingBlock: AJUNOK_clean_linker_0, # of connection points: 2
#     Edge 52, Type (0, 0), BuildingBlock: AJUNOK_clean_linker_0, # of connection points: 2
#     Edge 53, Type (0, 0), BuildingBlock: AJUNOK_clean_linker_0, # of connection points: 2
#     Edge 54, Type (0, 0), BuildingBlock: AJUNOK_clean_linker_0, # of connection points: 2
#     Edge 55, Type (0, 0), BuildingBlock: AJUNOK_clean_linker_0, # of connection points: 2
#     Edge 56, Type (0, 0), BuildingBlock: AJUNOK_clean_linker_0, # of connection points: 2
#     Edge 57, Type (0, 0), BuildingBlock: AJUNOK_clean_linker_0, # of connection points: 2
#     Edge 58, Type (0, 0), BuildingBlock: AJUNOK_clean_linker_0, # of connection points: 2
#     Edge 59, Type (0, 0), BuildingBlock: AJUNOK_clean_linker_0, # of connection points: 2
#     Edge 60, Type (0, 0), BuildingBlock: AJUNOK_clean_linker_0, # of connection points: 2
#     Edge 61, Type (0, 0), BuildingBlock: AJUNOK_clean_linker_0, # of connection points: 2
#     Edge 62, Type (0, 0), BuildingBlock: AJUNOK_clean_linker_0, # of connection points: 2
#     Edge 63, Type (0, 0), BuildingBlock: AJUNOK_clean_linker_0, # of connection points: 2
#     Edge 64, Type (0, 0), BuildingBlock: AJUNOK_clean_linker_0, # of connection points: 2
#     Edge 65, Type (0, 0), BuildingBlock: AJUNOK_clean_linker_0, # of connection points: 2
#     Edge 66, Type (0, 0), BuildingBlock: AJUNOK_clean_linker_0, # of connection points: 2
#     Edge 67, Type (0, 0), BuildingBlock: AJUNOK_clean_linker_0, # of connection points: 2
#     Edge 68, Type (0, 0), BuildingBlock: AJUNOK_clean_linker_0, # of connection points: 2
#     Edge 69, Type (0, 0), BuildingBlock: AJUNOK_clean_linker_0, # of connection points: 2
#     Edge 70, Type (0, 0), BuildingBlock: AJUNOK_clean_linker_0, # of connection points: 2
#     Edge 71, Type (0, 0), BuildingBlock: AJUNOK_clean_linker_0, # of connection points: 2
#     Edge 72, Type (0, 0), BuildingBlock: AJUNOK_clean_linker_0, # of connection points: 2
#     Edge 73, Type (0, 0), BuildingBlock: AJUNOK_clean_linker_0, # of connection points: 2
#     Edge 74, Type (0, 0), BuildingBlock: AJUNOK_clean_linker_0, # of connection points: 2
#     Edge 75, Type (0, 0), BuildingBlock: AJUNOK_clean_linker_0, # of connection points: 2
#     Edge 76, Type (0, 0), BuildingBlock: AJUNOK_clean_linker_0, # of connection points: 2
#     Edge 77, Type (0, 0), BuildingBlock: AJUNOK_clean_linker_0, # of connection points: 2
#     Edge 78, Type (0, 0), BuildingBlock: AJUNOK_clean_linker_0, # of connection points: 2
#     Edge 79, Type (0, 0), BuildingBlock: AJUNOK_clean_linker_0, # of connection points: 2
#     Edge 80, Type (0, 0), BuildingBlock: AJUNOK_clean_linker_0, # of connection points: 2
#     Edge 81, Type (0, 0), BuildingBlock: AJUNOK_clean_linker_0, # of connection points: 2
#     Edge 82, Type (0, 0), BuildingBlock: AJUNOK_clean_linker_0, # of connection points: 2
#     Edge 83, Type (0, 0), BuildingBlock: AJUNOK_clean_linker_0, # of connection points: 2
#     Edge 84, Type (0, 0), BuildingBlock: AJUNOK_clean_linker_0, # of connection points: 2
#     Edge 85, Type (0, 0), BuildingBlock: AJUNOK_clean_linker_0, # of connection points: 2
#     Edge 86, Type (0, 0), BuildingBlock: AJUNOK_clean_linker_0, # of connection points: 2
#     Edge 87, Type (0, 0), BuildingBlock: AJUNOK_clean_linker_0, # of connection points: 2
#     Edge 88, Type (0, 0), BuildingBlock: AJUNOK_clean_linker_0, # of connection points: 2
#     Edge 89, Type (0, 0), BuildingBlock: AJUNOK_clean_linker_0, # of connection points: 2
#     Edge 90, Type (0, 0), BuildingBlock: AJUNOK_clean_linker_0, # of connection points: 2
#     Edge 91, Type (0, 0), BuildingBlock: AJUNOK_clean_linker_0, # of connection points: 2
#     Edge 92, Type (0, 0), BuildingBlock: AJUNOK_clean_linker_0, # of connection points: 2
#     Edge 93, Type (0, 0), BuildingBlock: AJUNOK_clean_linker_0, # of connection points: 2
#     Edge 94, Type (0, 0), BuildingBlock: AJUNOK_clean_linker_0, # of connection points: 2
#     Edge 95, Type (0, 0), BuildingBlock: AJUNOK_clean_linker_0, # of connection points: 2
#     Edge 96, Type (0, 0), BuildingBlock: AJUNOK_clean_linker_0, # of connection points: 2
#     Edge 97, Type (0, 0), BuildingBlock: AJUNOK_clean_linker_0, # of connection points: 2
#     Edge 98, Type (0, 0), BuildingBlock: AJUNOK_clean_linker_0, # of connection points: 2
#     Edge 99, Type (0, 0), BuildingBlock: AJUNOK_clean_linker_0, # of connection points: 2
#     Edge 100, Type (0, 0), BuildingBlock: AJUNOK_clean_linker_0, # of connection points: 2
#     Edge 101, Type (0, 0), BuildingBlock: AJUNOK_clean_linker_0, # of connection points: 2
#     Edge 102, Type (0, 0), BuildingBlock: AJUNOK_clean_linker_0, # of connection points: 2
#     Edge 103, Type (0, 0), BuildingBlock: AJUNOK_clean_linker_0, # of connection points: 2
#     Edge 104, Type (0, 0), BuildingBlock: AJUNOK_clean_linker_0, # of connection points: 2
#     Edge 105, Type (0, 0), BuildingBlock: AJUNOK_clean_linker_0, # of connection points: 2
#     Edge 106, Type (0, 0), BuildingBlock: AJUNOK_clean_linker_0, # of connection points: 2
#     Edge 107, Type (0, 0), BuildingBlock: AJUNOK_clean_linker_0, # of connection points: 2
#     Edge 108, Type (0, 0), BuildingBlock: AJUNOK_clean_linker_0, # of connection points: 2
#     Edge 109, Type (0, 0), BuildingBlock: AJUNOK_clean_linker_0, # of connection points: 2
#     Edge 110, Type (0, 0), BuildingBlock: AJUNOK_clean_linker_0, # of connection points: 2
#     Edge 111, Type (0, 0), BuildingBlock: AJUNOK_clean_linker_0, # of connection points: 2
#     Edge 112, Type (0, 0), BuildingBlock: AJUNOK_clean_linker_0, # of connection points: 2
#     Edge 113, Type (0, 0), BuildingBlock: AJUNOK_clean_linker_0, # of connection points: 2
#     Edge 114, Type (0, 0), BuildingBlock: AJUNOK_clean_linker_0, # of connection points: 2
#     Edge 115, Type (0, 0), BuildingBlock: AJUNOK_clean_linker_0, # of connection points: 2
#     Edge 116, Type (0, 0), BuildingBlock: AJUNOK_clean_linker_0, # of connection points: 2
#     Edge 117, Type (0, 0), BuildingBlock: AJUNOK_clean_linker_0, # of connection points: 2
#     Edge 118, Type (0, 0), BuildingBlock: AJUNOK_clean_linker_0, # of connection points: 2
#     Edge 119, Type (0, 0), BuildingBlock: AJUNOK_clean_linker_0, # of connection points: 2
#     Edge 120, Type (0, 0), BuildingBlock: AJUNOK_clean_linker_0, # of connection points: 2
#     Edge 121, Type (0, 0), BuildingBlock: AJUNOK_clean_linker_0, # of connection points: 2
#     Edge 122, Type (0, 0), BuildingBlock: AJUNOK_clean_linker_0, # of connection points: 2
#     Edge 123, Type (0, 0), BuildingBlock: AJUNOK_clean_linker_0, # of connection points: 2
#     Edge 124, Type (0, 0), BuildingBlock: AJUNOK_clean_linker_0, # of connection points: 2
#     Edge 125, Type (0, 0), BuildingBlock: AJUNOK_clean_linker_0, # of connection points: 2
#     Edge 126, Type (0, 0), BuildingBlock: AJUNOK_clean_linker_0, # of connection points: 2
#     Edge 127, Type (0, 0), BuildingBlock: AJUNOK_clean_linker_0, # of connection points: 2
# Relax obj value: 0.213
# Max RMSD: 0.234
# Mean RMSD: 0.231
data_MOF--net-son--node1-BETDIP_clean_sbu_0--edge1-AJUNOK_clean_linker_0
_symmetry_space_group_name_H-M    P1
_symmetry_Int_Tables_number       1
_symmetry_cell_setting            triclinic
loop_
_symmetry_equiv_pos_as_xyz
'x, y, z'
_cell_length_a     62.60219
_cell_length_b     36.341725
_cell_length_c     20.377474
_cell_angle_alpha  90.053163
_cell_angle_beta   89.992138
_cell_angle_gamma 90.033292
loop_
_atom_site_label
_atom_site_type_symbol
_atom_site_fract_x
_atom_site_fract_y
_atom_site_fract_z
_atom_type_partial_charge
Tb0 Tb 0.30641 0.28397 0.20093 0.0
Tb1 Tb 0.27658 0.25512 0.30704 0.0
C2 C 0.32215 0.30098 0.0911 0.0
C3 C 0.31427 0.29683 1.02265 0.0
C4 C 0.29937 0.26935 1.00626 0.0
C5 C 0.29214 0.2652 0.94161 0.0
C6 C 0.29908 0.28928 0.89223 0.0
C7 C 0.31336 0.31771 0.90883 0.0
C8 C 0.321 0.32129 0.97341 0.0
C9 C 0.30002 0.33079 0.30054 0.0
C10 C 0.25778 0.26926 0.16595 0.0
C11 C 0.25699 0.25067 0.41518 0.0
C12 C 0.26231 0.25732 0.48528 0.0
C13 C 0.27192 0.29013 0.50662 0.0
C14 C 0.2771 0.29535 0.57288 0.0
C15 C 0.27327 0.26743 0.61918 0.0
C16 C 0.26419 0.23417 0.59759 0.0
C17 C 0.25859 0.22933 0.53149 0.0
C18 C 0.28859 0.19738 0.23612 0.0
C19 C 0.32743 0.25287 0.32221 0.0
O20 O 0.32696 0.27064 0.12275 0.0
O21 O 0.31136 0.3239 0.12788 0.0
O22 O 0.28605 0.30941 0.27518 0.0
O23 O 0.31754 0.32701 0.26727 0.0
O24 O 0.27703 0.27932 0.14933 0.0
O25 O 0.2527 0.25926 0.22694 0.0
O26 O 0.25532 0.27887 0.3754 0.0
O27 O 0.26734 0.22352 0.38814 0.0
O28 O 0.29421 0.23081 0.22723 0.0
O29 O 0.27528 0.19677 0.28442 0.0
O30 O 0.30863 0.25727 0.35137 0.0
O31 O 0.32972 0.25569 0.25821 0.0
H32 H 0.29321 0.2511 0.04342 0.0
H33 H 0.28093 0.24337 0.93026 0.0
H34 H 0.31889 0.33673 0.87159 0.0
H35 H 0.33215 0.34317 0.9849 0.0
H36 H 0.27574 0.31151 0.47211 0.0
H37 H 0.28452 0.32097 0.58772 0.0
H38 H 0.26106 0.21216 0.63209 0.0
H39 H 0.25136 0.20359 0.51636 0.0
Tb40 Tb 0.91952 0.98407 0.20185 0.0
Tb41 Tb 0.94985 0.00914 0.30627 0.0
C42 C 0.90595 0.96142 0.09269 0.0
C43 C 0.91212 0.96789 1.02321 0.0
C44 C 0.9195 1.00236 1.00179 0.0
C45 C 0.92666 1.00733 0.93715 0.0
C46 C 0.92704 0.97768 0.89275 0.0
C47 C 0.91973 0.9431 0.9143 0.0
C48 C 0.91232 0.9383 0.97875 0.0
C49 C 0.92693 0.93472 0.29717 0.0
C50 C 0.96598 1.00653 0.16162 0.0
C51 C 0.97009 0.00993 0.41397 0.0
C52 C 0.96454 1.00476 0.48453 0.0
C53 C 0.95806 0.9705 0.50955 0.0
C54 C 0.95286 0.96638 0.57605 0.0
C55 C 0.9538 0.99656 0.61924 0.0
C56 C 0.96013 0.03092 0.59428 0.0
C57 C 0.96561 0.03489 0.52789 0.0
C58 C 0.93833 0.06971 0.24354 0.0
C59 C 0.89876 0.0141 0.32339 0.0
O60 O 0.89705 0.98868 0.12532 0.0
O61 O 0.92035 0.94421 0.12762 0.0
O62 O 0.94066 0.95599 0.27081 0.0
O63 O 0.90883 0.94081 0.26868 0.0
O64 O 0.94567 1.00635 0.14726 0.0
O65 O 0.9727 1.00313 0.22344 0.0
O66 O 0.96942 0.98153 0.37462 0.0
O67 O 0.962 0.03899 0.38626 0.0
O68 O 0.93186 0.03713 0.23028 0.0
O69 O 0.95227 0.06756 0.2899 0.0
O70 O 0.91772 1.00834 0.35118 0.0
O71 O 0.89598 0.01133 0.25947 0.0
H72 H 0.92009 0.02527 1.0354 0.0
H73 H 0.93234 0.03422 0.92225 0.0
H74 H 0.91962 0.91978 0.88114 0.0
H75 H 0.90701 0.91128 0.99419 0.0
H76 H 0.95684 0.94691 0.47784 0.0
H77 H 0.94773 0.93965 0.59349 0.0
H78 H 0.96116 0.05463 0.62639 0.0
H79 H 0.97071 0.06163 0.51038 0.0
Tb80 Tb 0.30854 0.97531 0.12966 0.0
Tb81 Tb 0.27747 1.00285 1.0224 0.0
C82 C 0.32583 0.96069 0.23782 0.0
C83 C 0.31879 0.96382 0.30759 0.0
C84 C 0.32345 0.9955 0.3446 0.0
C85 C 0.31629 0.9989 0.40949 0.0
C86 C 0.3042 0.97078 0.43917 0.0
C87 C 0.30011 0.93861 0.40292 0.0
C88 C 0.30728 0.93517 0.338 0.0
C89 C 0.30236 0.92887 1.02966 0.0
C90 C 0.2599 0.99088 0.16646 0.0
C91 C 0.25726 1.00128 0.91553 0.0
C92 C 0.264 0.99606 0.84595 0.0
C93 C 0.25846 0.96398 0.81125 0.0
C94 C 0.26446 0.95949 0.74527 0.0
C95 C 0.27609 0.98708 0.71238 0.0
C96 C 0.28195 0.0188 0.7476 0.0
C97 C 0.27592 0.02333 0.81321 0.0
C98 C 0.29055 0.0602 0.09251 0.0
C99 C 0.32817 1.00767 1.00497 0.0
O100 O 0.32925 0.99148 0.20568 0.0
O101 O 0.31582 0.93624 0.20179 0.0
O102 O 0.28833 0.94982 0.05576 0.0
O103 O 0.31973 0.93225 0.06376 0.0
O104 O 0.2791 0.97982 0.18282 0.0
O105 O 0.25455 1.00008 0.10518 0.0
O106 O 0.2587 0.97293 0.95487 0.0
O107 O 0.2636 0.03155 0.94418 0.0
O108 O 0.2956 0.0266 0.09983 0.0
O109 O 0.27748 0.06204 0.04337 0.0
O110 O 0.30921 1.00342 0.97656 0.0
O111 O 0.33099 1.00396 0.06884 0.0
H112 H 0.33261 0.01782 0.32338 0.0
H113 H 0.32038 0.02355 0.43662 0.0
H114 H 0.291 0.91632 0.42439 0.0
H115 H 0.30358 0.91012 0.31147 0.0
H116 H 0.24925 0.94252 0.83494 0.0
H117 H 0.25966 0.93472 0.71961 0.0
H118 H 0.29142 0.04014 0.72458 0.0
H119 H 0.28067 0.04834 0.83817 0.0
Tb120 Tb 0.91619 0.28877 0.12896 0.0
Tb121 Tb 0.94763 0.26414 1.02906 0.0
C122 C 0.89852 0.30055 0.23804 0.0
C123 C 0.9058 0.2964 0.30749 0.0
C124 C 0.91214 0.26209 0.33301 0.0
C125 C 0.91897 0.25881 0.39842 0.0
C126 C 0.9197 0.28969 0.44022 0.0
C127 C 0.91383 0.32411 0.41407 0.0
C128 C 0.90686 0.32737 0.34881 0.0
C129 C 0.92381 0.33851 1.03528 0.0
C130 C 0.96466 0.27995 0.17052 0.0
C131 C 0.96594 0.25629 0.9191 0.0
C132 C 0.95982 0.26202 0.84883 0.0
C133 C 0.95403 0.29685 0.82479 0.0
C134 C 0.94801 0.30176 0.75906 0.0
C135 C 0.94722 0.27178 0.71528 0.0
C136 C 0.95344 0.23695 0.73899 0.0
C137 C 0.95965 0.23218 0.80479 0.0
C138 C 0.93839 0.21206 0.1147 0.0
C139 C 0.89692 0.26079 1.00237 0.0
O140 O 0.89564 0.27041 0.2037 0.0
O141 O 0.90797 0.32624 0.20365 0.0
O142 O 0.93763 0.31739 0.0617 0.0
O143 O 0.90576 0.33358 0.06532 0.0
O144 O 0.94455 0.28273 0.18651 0.0
O145 O 0.97084 0.27549 0.10844 0.0
O146 O 0.96811 0.28541 0.95651 0.0
O147 O 0.9561 0.22973 0.94995 0.0
O148 O 0.92537 0.23542 0.09135 0.0
O149 O 0.95666 0.2158 0.0855 0.0
O150 O 0.91655 0.2644 0.97903 0.0
O151 O 0.89272 0.26504 0.06524 0.0
H152 H 0.91181 0.23765 0.30257 0.0
H153 H 0.92339 0.23187 0.41658 0.0
H154 H 0.91478 0.34871 0.44392 0.0
H155 H 0.90238 0.35425 0.33049 0.0
H156 H 0.95401 0.32042 0.85674 0.0
H157 H 0.94406 0.32924 0.74259 0.0
H158 H 0.95313 0.21316 0.70697 0.0
H159 H 0.96419 0.20498 0.82142 0.0
Tb160 Tb 0.70162 0.76331 0.76633 0.0
Tb161 Tb 0.66773 0.73999 0.87179 0.0
C162 C 0.72192 0.75835 0.65967 0.0
C163 C 0.71552 0.75325 0.58935 0.0
C164 C 0.71321 0.71801 0.56145 0.0
C165 C 0.70688 0.71367 0.49564 0.0
C166 C 0.70309 0.7445 0.45534 0.0
C167 C 0.70585 0.7797 0.48301 0.0
C168 C 0.71194 0.78401 0.54883 0.0
C169 C 0.68933 0.82192 0.83515 0.0
C170 C 0.65117 0.77257 0.74286 0.0
C171 C 0.6498 0.72859 0.98034 0.0
C172 C 0.65727 0.73031 0.05009 0.0
C173 C 0.65985 0.76412 0.08279 0.0
C174 C 0.66772 0.7655 0.14727 0.0
C175 C 0.67293 0.73307 0.18164 0.0
C176 C 0.66974 0.69916 0.14949 0.0
C177 C 0.66214 0.69782 0.08464 0.0
C178 C 0.67361 0.69299 0.77271 0.0
C179 C 0.71702 0.74906 0.91185 0.0
O180 O 0.71936 0.73062 0.70013 0.0
O181 O 0.71647 0.78955 0.68691 0.0
O182 O 0.68336 0.78874 0.84116 0.0
O183 O 0.70317 0.82271 0.78777 0.0
O184 O 0.67047 0.76634 0.71826 0.0
O185 O 0.64688 0.76956 0.80633 0.0
O186 O 0.64814 0.75977 0.94794 0.0
O187 O 0.65814 0.7024 0.94416 0.0
O188 O 0.68785 0.71271 0.80059 0.0
O189 O 0.65593 0.69737 0.8051 0.0
O190 O 0.6972 0.74044 0.92633 0.0
O191 O 0.72345 0.75751 0.85109 0.0
H192 H 0.71632 0.69372 0.59045 0.0
H193 H 0.70463 0.68609 0.47674 0.0
H194 H 0.7034 0.80412 0.45354 0.0
H195 H 0.71393 0.81162 0.56789 0.0
H196 H 0.65588 0.78967 0.05846 0.0
H197 H 0.6699 0.79217 0.17006 0.0
H198 H 0.67279 0.67351 0.17471 0.0
H199 H 0.66002 0.67122 0.06151 0.0
Tb200 Tb 0.02949 1.00827 0.7712 0.0
Tb201 Tb 0.05988 0.03535 0.8779 0.0
C202 C 0.00969 1.00528 0.66312 0.0
C203 C 0.01514 0.01136 0.59278 0.0
C204 C 0.02143 0.04594 0.56878 0.0
C205 C 0.02696 0.05061 0.50262 0.0
C206 C 0.02659 0.02063 0.45896 0.0
C207 C 0.02032 0.986 0.48282 0.0
C208 C 0.01448 0.98151 0.54877 0.0
C209 C 0.04133 0.94982 0.84051 0.0
C210 C 0.08055 1.00558 0.75534 0.0
C211 C 0.07564 0.05467 0.98607 0.0
C212 C 0.06966 0.04865 0.05587 0.0
C213 C 0.06552 0.01332 0.08099 0.0
C214 C 0.0586 1.00878 0.14603 0.0
C215 C 0.05525 0.03941 0.18708 0.0
C216 C 0.0598 0.07466 0.16212 0.0
C217 C 0.06691 0.07918 0.09738 0.0
C218 C 0.05184 0.08369 0.78126 0.0
C219 C 0.01248 0.01445 0.91622 0.0
O220 O 0.00887 0.0336 0.70288 0.0
O221 O 0.01913 0.97728 0.69046 0.0
O222 O 0.04741 0.98299 0.84862 0.0
O223 O 0.02758 0.9499 0.79337 0.0
O224 O 0.06165 0.01063 0.72686 0.0
O225 O 0.08303 1.00762 0.81939 0.0
O226 O 0.08263 0.02631 0.95217 0.0
O227 O 0.06223 0.07489 0.95244 0.0
O228 O 0.03853 0.06159 0.80735 0.0
O229 O 0.06982 0.07953 0.81166 0.0
O230 O 0.03241 0.01949 0.93313 0.0
O231 O 0.00623 0.0133 0.85347 0.0
H232 H 0.02235 0.06929 0.60109 0.0
H233 H 0.03197 0.07755 0.48589 0.0
H234 H 0.01973 0.96245 0.45023 0.0
H235 H 0.00955 0.95453 0.56556 0.0
H236 H 0.06734 0.9892 0.05024 0.0
H237 H 0.05546 0.98127 0.16392 0.0
H238 H 0.05798 0.0988 0.19278 0.0
H239 H 0.07004 0.10671 0.07937 0.0
Tb240 Tb 0.69739 0.018 0.05249 0.0
Tb241 Tb 0.66549 0.04165 0.94814 0.0
C242 C 0.71577 0.01782 0.16265 0.0
C243 C 0.70813 0.02309 0.23119 0.0
C244 C 0.69333 0.05056 0.24803 0.0
C245 C 0.68642 0.0549 0.31312 0.0
C246 C 0.69367 0.03107 0.36279 0.0
C247 C 0.70737 1.00205 0.34487 0.0
C248 C 0.71451 0.99821 0.27996 0.0
C249 C 0.6877 0.95859 0.98278 0.0
C250 C 0.64724 1.00502 0.0694 0.0
C251 C 0.64756 0.05678 0.84075 0.0
C252 C 0.65342 0.05181 0.77074 0.0
C253 C 0.66756 0.02392 0.75082 0.0
C254 C 0.67387 0.0209 0.68494 0.0
C255 C 0.66633 0.04591 0.63752 0.0
C256 C 0.65195 0.07351 0.65762 0.0
C257 C 0.64563 0.07646 0.72348 0.0
C258 C 0.67069 0.09012 0.04695 0.0
C259 C 0.71453 0.02964 0.90915 0.0
O260 O 0.71589 0.04621 0.12294 0.0
O261 O 0.70862 0.98832 0.1337 0.0
O262 O 0.68047 0.99104 0.97452 0.0
O263 O 0.7015 0.9599 1.02985 0.0
O264 O 0.66566 0.01387 0.09728 0.0
O265 O 0.64407 0.0091 1.00597 0.0
O266 O 0.64346 0.02695 0.87476 0.0
O267 O 0.65945 0.08005 0.87351 0.0
O268 O 0.68522 0.07057 1.02001 0.0
O269 O 0.65307 0.08327 1.01591 0.0
O270 O 0.69455 0.03571 0.89294 0.0
O271 O 0.7206 0.02419 0.97123 0.0
H272 H 0.68668 0.06807 0.21078 0.0
H273 H 0.67501 0.07641 0.32422 0.0
H274 H 0.71275 0.98245 0.38123 0.0
H275 H 0.72492 0.97549 0.26757 0.0
H276 H 0.67401 1.00479 0.78631 0.0
H277 H 0.68507 0.9995 0.67139 0.0
H278 H 0.64544 0.09274 0.62233 0.0
H279 H 0.63475 0.09825 0.73762 0.0
Tb280 Tb 0.02735 0.75215 0.0495 0.0
Tb281 Tb 0.05882 0.73062 0.95008 0.0
C282 C 0.00873 0.7566 0.15966 0.0
C283 C 0.01504 0.75156 0.23006 0.0
C284 C 0.01534 0.71649 0.25931 0.0
C285 C 0.02145 0.71189 0.3251 0.0
C286 C 0.02734 0.7423 0.36396 0.0
C287 C 0.02641 0.77754 0.3354 0.0
C288 C 0.0204 0.78209 0.26944 0.0
C289 C 0.03449 0.80673 0.967 0.0
C290 C 0.07795 0.76173 0.07395 0.0
C291 C 0.07672 0.71792 0.84148 0.0
C292 C 0.06951 0.72125 0.77163 0.0
C293 C 0.06711 0.75577 0.74108 0.0
C294 C 0.0601 0.7584 0.67572 0.0
C295 C 0.05535 0.72663 0.63878 0.0
C296 C 0.05753 0.69216 0.66963 0.0
C297 C 0.06461 0.68952 0.73488 0.0
C298 C 0.0523 0.68028 0.0445 0.0
C299 C 0.01071 0.73696 0.90693 0.0
O300 O 0.00823 0.7274 0.12205 0.0
O301 O 0.01699 0.78473 0.12886 0.0
O302 O 0.04854 0.78401 0.98743 0.0
O303 O 0.01641 0.79934 0.99523 0.0
O304 O 0.05863 0.75627 0.09879 0.0
O305 O 0.08183 0.75721 1.01109 0.0
O306 O 0.07949 0.74838 0.87496 0.0
O307 O 0.06732 0.69256 0.87673 0.0
O308 O 0.03818 0.6999 1.01648 0.0
O309 O 0.07042 0.68738 1.01636 0.0
O310 O 0.03085 0.73647 0.89113 0.0
O311 O 0.00445 0.74005 0.96922 0.0
H312 H 0.01082 0.69248 0.23143 0.0
H313 H 0.02137 0.68444 0.34574 0.0
H314 H 0.03068 0.80163 0.36384 0.0
H315 H 0.01996 0.80963 0.24923 0.0
H316 H 0.07064 0.7809 0.76758 0.0
H317 H 0.05868 0.78541 0.65373 0.0
H318 H 0.05354 0.66709 0.64359 0.0
H319 H 0.06614 0.66249 0.75679 0.0
Tb320 Tb 0.30942 0.78854 0.69159 0.0
Tb321 Tb 0.2761 0.76331 0.79798 0.0
C322 C 0.32715 0.79843 0.5824 0.0
C323 C 0.31952 0.79558 0.51298 0.0
C324 C 0.32184 0.76264 0.47735 0.0
C325 C 0.31418 0.75965 0.41284 0.0
C326 C 0.30396 0.78951 0.38198 0.0
C327 C 0.30208 0.82273 0.41695 0.0
C328 C 0.30971 0.82573 0.48154 0.0
C329 C 0.30194 0.83628 0.78827 0.0
C330 C 0.26023 0.77797 0.65321 0.0
C331 C 0.25524 0.76662 0.90386 0.0
C332 C 0.26137 0.76992 0.97463 0.0
C333 C 0.26046 0.80393 1.00754 0.0
C334 C 0.26646 0.80687 0.07386 0.0
C335 C 0.27353 0.77585 0.10933 0.0
C336 C 0.27428 0.74184 0.0762 0.0
C337 C 0.26814 0.73886 1.01026 0.0
C338 C 0.28981 0.70556 0.72892 0.0
C339 C 0.32671 0.75846 0.82234 0.0
O340 O 0.32885 0.76767 0.61597 0.0
O341 O 0.31903 0.82516 0.6178 0.0
O342 O 0.28838 0.8146 0.7619 0.0
O343 O 0.31962 0.83351 0.75519 0.0
O344 O 0.27988 0.78728 0.63811 0.0
O345 O 0.25408 0.76855 0.71371 0.0
O346 O 0.25852 0.79516 0.86586 0.0
O347 O 0.26041 0.73591 0.87445 0.0
O348 O 0.29495 0.73911 0.72329 0.0
O349 O 0.27605 0.70378 0.7764 0.0
O350 O 0.30721 0.76267 0.84685 0.0
O351 O 0.33105 0.76211 0.75898 0.0
H352 H 0.32956 0.73901 0.49937 0.0
H353 H 0.31645 0.73395 0.38684 0.0
H354 H 0.29437 0.84629 0.3947 0.0
H355 H 0.30774 0.85167 0.50699 0.0
H356 H 0.255 0.82832 0.9821 0.0
H357 H 0.26536 0.83349 0.09752 0.0
H358 H 0.28022 0.71744 0.10048 0.0
H359 H 0.26903 0.7121 0.98702 0.0
Tb360 Tb 0.91822 0.48245 0.70196 0.0
Tb361 Tb 0.95048 0.51004 0.80753 0.0
C362 C 0.90095 0.46648 0.59402 0.0
C363 C 0.90755 0.46963 0.52374 0.0
C364 C 0.91045 0.50405 0.49358 0.0
C365 C 0.91764 0.50657 0.4285 0.0
C366 C 0.92181 0.47475 0.39104 0.0
C367 C 0.91818 0.44027 0.42066 0.0
C368 C 0.9113 0.43777 0.48617 0.0
C369 C 0.9249 0.43675 0.80247 0.0
C370 C 0.96724 0.49629 0.66362 0.0
C371 C 0.97039 0.51012 0.91544 0.0
C372 C 0.96434 0.50394 0.9856 0.0
C373 C 0.96152 0.46835 1.01103 0.0
C374 C 0.95509 0.46285 0.07623 0.0
C375 C 0.9518 0.4929 0.11868 0.0
C376 C 0.95509 0.52859 0.09369 0.0
C377 C 0.96123 0.53401 1.02815 0.0
C378 C 0.93783 0.56666 0.73491 0.0
C379 C 0.89986 0.51707 0.82625 0.0
O380 O 0.89699 0.49705 0.62639 0.0
O381 O 0.91176 0.44284 0.62948 0.0
O382 O 0.93882 0.45727 0.77498 0.0
O383 O 0.90716 0.44021 0.77025 0.0
O384 O 0.94755 0.48747 0.64799 0.0
O385 O 0.97322 0.5048 0.72475 0.0
O386 O 0.96994 0.48194 0.87523 0.0
O387 O 0.96258 0.53964 0.88795 0.0
O388 O 0.9323 0.53318 0.73002 0.0
O389 O 0.95144 0.56882 0.78266 0.0
O390 O 0.91884 0.51118 0.85327 0.0
O391 O 0.89633 0.51261 0.76275 0.0
H392 H 0.90726 0.52916 0.52037 0.0
H393 H 0.92016 0.53363 0.4077 0.0
H394 H 0.92043 0.41509 0.39313 0.0
H395 H 0.9089 0.4108 0.50757 0.0
H396 H 0.96413 0.44465 0.98046 0.0
H397 H 0.95234 0.43496 0.09287 0.0
H398 H 0.95299 0.55242 0.12496 0.0
H399 H 0.9636 0.56188 1.01078 0.0
Tb400 Tb 0.30944 0.48297 0.62322 0.0
Tb401 Tb 0.27691 0.50779 0.52017 0.0
C402 C 0.32613 0.46385 0.73071 0.0
C403 C 0.31987 0.46701 0.80118 0.0
C404 C 0.30956 0.49848 0.82536 0.0
C405 C 0.30369 0.50125 0.89163 0.0
C406 C 0.30715 0.47188 0.93563 0.0
C407 C 0.3167 0.43961 0.9104 0.0
C408 C 0.3232 0.43744 0.84438 0.0
C409 C 0.30178 0.4351 0.52588 0.0
C410 C 0.26111 0.49811 0.66525 0.0
C411 C 0.25739 0.50494 0.41147 0.0
C412 C 0.26405 0.49865 0.34171 0.0
C413 C 0.2686 0.46323 0.31753 0.0
C414 C 0.2756 0.45796 0.25266 0.0
C415 C 0.27788 0.48798 0.20964 0.0
C416 C 0.27263 0.52329 0.23304 0.0
C417 C 0.26592 0.52856 0.29816 0.0
C418 C 0.28882 0.56759 0.5858 0.0
C419 C 0.32769 0.51548 0.49857 0.0
O420 O 0.33126 0.49422 0.69935 0.0
O421 O 0.31408 0.44228 0.69499 0.0
O422 O 0.28819 0.45565 0.55451 0.0
O423 O 0.32005 0.44043 0.55416 0.0
O424 O 0.28123 0.49292 0.68011 0.0
O425 O 0.25441 0.5026 0.60354 0.0
O426 O 0.25841 0.47733 0.45264 0.0
O427 O 0.26409 0.53537 0.43856 0.0
O428 O 0.29544 0.53471 0.59544 0.0
O429 O 0.2746 0.5664 0.53973 0.0
O430 O 0.30848 0.50914 0.47332 0.0
O431 O 0.3316 0.51196 0.56195 0.0
H432 H 0.30571 0.52077 0.79272 0.0
H433 H 0.29632 0.52655 0.90809 0.0
H434 H 0.31875 0.41555 0.94097 0.0
H435 H 0.33051 0.41229 0.82675 0.0
H436 H 0.26672 0.43951 0.34863 0.0
H437 H 0.27898 0.43027 0.23594 0.0
H438 H 0.27405 0.54701 0.2012 0.0
H439 H 0.26223 0.5562 0.31451 0.0
Tb440 Tb 0.91929 0.78382 0.62085 0.0
Tb441 Tb 0.952 0.75903 0.51555 0.0
C442 C 0.90147 0.79827 0.72858 0.0
C443 C 0.90735 0.79316 0.79908 0.0
C444 C 0.90796 0.75813 0.82838 0.0
C445 C 0.91435 0.75389 0.89402 0.0
C446 C 0.92073 0.78444 0.9321 0.0
C447 C 0.91929 0.81959 0.90324 0.0
C448 C 0.91271 0.82386 0.83784 0.0
C449 C 0.92697 0.83199 0.52425 0.0
C450 C 0.96777 0.7687 0.66168 0.0
C451 C 0.972 0.76161 0.40786 0.0
C452 C 0.96507 0.76437 0.33777 0.0
C453 C 0.96676 0.79781 0.3034 0.0
C454 C 0.95997 0.8006 0.23786 0.0
C455 C 0.95144 0.76992 0.20462 0.0
C456 C 0.94985 0.73645 0.23896 0.0
C457 C 0.95664 0.73366 0.30436 0.0
C458 C 0.93922 0.70022 0.58177 0.0
C459 C 0.90112 0.75174 0.4946 0.0
O460 O 0.89713 0.76875 0.69367 0.0
O461 O 0.91309 0.82199 0.69577 0.0
O462 O 0.94054 0.81087 0.55169 0.0
O463 O 0.9089 0.82755 0.55431 0.0
O464 O 0.94776 0.77499 0.67701 0.0
O465 O 0.97434 0.76382 0.59979 0.0
O466 O 0.96884 0.79026 0.44543 0.0
O467 O 0.96744 0.7311 0.43863 0.0
O468 O 0.93333 0.73337 0.59011 0.0
O469 O 0.95317 0.70005 0.53486 0.0
O470 O 0.92032 0.75722 0.46828 0.0
O471 O 0.89754 0.75515 0.55812 0.0
H472 H 0.90358 0.73385 0.80063 0.0
H473 H 0.91408 0.72653 0.91486 0.0
H474 H 0.92396 0.84392 0.93041 0.0
H475 H 0.91224 0.85129 0.81713 0.0
H476 H 0.9734 0.82187 0.32716 0.0
H477 H 0.9616 0.82676 0.21291 0.0
H478 H 0.94299 0.71241 0.21564 0.0
H479 H 0.9551 0.70735 0.32883 0.0
Tb480 Tb 0.69628 0.26354 0.26752 0.0
Tb481 Tb 0.66412 0.24506 0.36692 0.0
C482 C 0.71508 0.26449 0.15759 0.0
C483 C 0.7086 0.26046 0.0873 0.0
C484 C 0.69809 0.22885 0.06365 0.0
C485 C 0.69211 0.22597 0.9973 0.0
C486 C 0.69631 0.25476 0.95283 0.0
C487 C 0.70708 0.28612 0.97647 0.0
C488 C 0.71311 0.28892 0.04268 0.0
C489 C 0.69017 0.31937 0.34749 0.0
C490 C 0.64557 0.27441 0.24157 0.0
C491 C 0.64632 0.23248 0.47572 0.0
C492 C 0.65358 0.23669 0.54514 0.0
C493 C 0.66477 0.26815 0.56629 0.0
C494 C 0.67205 0.27115 0.63133 0.0
C495 C 0.66833 0.24283 0.67716 0.0
C496 C 0.6575 0.21106 0.65549 0.0
C497 C 0.65019 0.20809 0.59043 0.0
C498 C 0.67022 0.19357 0.27386 0.0
C499 C 0.71203 0.25082 0.41165 0.0
O500 O 0.7141 0.2354 0.19547 0.0
O501 O 0.70824 0.29396 0.18773 0.0
O502 O 0.6755 0.29751 0.32775 0.0
O503 O 0.70814 0.31076 0.31965 0.0
O504 O 0.66503 0.26847 0.21802 0.0
O505 O 0.64146 0.27151 0.30466 0.0
O506 O 0.6432 0.26259 0.44157 0.0
O507 O 0.65625 0.20733 0.4414 0.0
O508 O 0.68445 0.21269 0.30242 0.0
O509 O 0.65212 0.20172 0.30106 0.0
O510 O 0.69182 0.253 0.42613 0.0
O511 O 0.71862 0.25075 0.34934 0.0
H512 H 0.69432 0.20641 0.0964 0.0
H513 H 0.68377 0.20147 0.98109 0.0
H514 H 0.7111 0.30846 0.94356 0.0
H515 H 0.72144 0.3134 0.05901 0.0
H516 H 0.66811 0.29037 0.53239 0.0
H517 H 0.68085 0.29555 0.64552 0.0
H518 H 0.65438 0.18865 0.68918 0.0
H519 H 0.6419 0.1833 0.5754 0.0
Tb520 Tb 0.02647 0.50901 0.27392 0.0
Tb521 Tb 0.05822 0.53268 0.37341 0.0
C522 C 0.00799 0.50195 0.1641 0.0
C523 C 0.01431 0.50609 0.09349 0.0
C524 C 0.014 0.5405 0.0619 0.0
C525 C 0.01975 0.54394 0.99552 0.0
C526 C 0.02605 0.51303 0.9584 0.0
C527 C 0.02637 0.47858 0.99014 0.0
C528 C 0.02041 0.47514 0.05632 0.0
C529 C 0.03566 0.45567 0.3573 0.0
C530 C 0.07724 0.50528 0.2462 0.0
C531 C 0.07604 0.54454 0.48231 0.0
C532 C 0.06885 0.53982 0.55198 0.0
C533 C 0.07007 0.50542 0.58355 0.0
C534 C 0.06285 0.501 0.64834 0.0
C535 C 0.05414 0.53078 0.68363 0.0
C536 C 0.05324 0.56532 0.65247 0.0
C537 C 0.06049 0.56978 0.58766 0.0
C538 C 0.05113 0.58244 0.279 0.0
C539 C 0.00989 0.5238 0.41632 0.0
O540 O 0.00668 0.53164 0.20045 0.0
O541 O 0.01684 0.47485 0.19618 0.0
O542 O 0.04873 0.4795 0.33529 0.0
O543 O 0.01742 0.46019 0.32834 0.0
O544 O 0.0575 0.50844 0.22348 0.0
O545 O 0.08156 0.50898 0.30913 0.0
O546 O 0.07917 0.51463 0.4475 0.0
O547 O 0.06635 0.57006 0.44813 0.0
O548 O 0.03712 0.56192 0.30612 0.0
O549 O 0.06906 0.57718 0.30941 0.0
O550 O 0.03006 0.52587 0.43181 0.0
O551 O 0.00349 0.52023 0.35425 0.0
H552 H 0.00912 0.56482 0.08825 0.0
H553 H 0.01905 0.5709 0.97307 0.0
H554 H 0.03168 0.4542 0.96438 0.0
H555 H 0.02076 0.4481 0.07859 0.0
H556 H 0.07661 0.48176 0.55824 0.0
H557 H 0.06437 0.47422 0.67111 0.0
H558 H 0.04668 0.58891 0.67799 0.0
H559 H 0.05941 0.59676 0.56535 0.0
Tb560 Tb 0.69946 0.52307 0.54635 0.0
Tb561 Tb 0.66674 0.54533 0.44221 0.0
C562 C 0.71954 0.52418 0.6542 0.0
C563 C 0.71372 0.52928 0.72493 0.0
C564 C 0.712 0.56435 0.75362 0.0
C565 C 0.70612 0.56849 0.81984 0.0
C566 C 0.7024 0.53753 0.85997 0.0
C567 C 0.70477 0.50242 0.83158 0.0
C568 C 0.71033 0.49837 0.76528 0.0
C569 C 0.69061 0.46349 0.47632 0.0
C570 C 0.64942 0.50765 0.56438 0.0
C571 C 0.64953 0.55901 0.33338 0.0
C572 C 0.65711 0.55528 0.26421 0.0
C573 C 0.66438 0.52143 0.2389 0.0
C574 C 0.67217 0.51892 0.17436 0.0
C575 C 0.67318 0.55021 0.1338 0.0
C576 C 0.66598 0.584 0.15919 0.0
C577 C 0.658 0.58648 0.22347 0.0
C578 C 0.67181 0.59364 0.54083 0.0
C579 C 0.71571 0.53592 0.40171 0.0
O580 O 0.71853 0.55241 0.61433 0.0
O581 O 0.71215 0.49443 0.6265 0.0
O582 O 0.68262 0.49545 0.46868 0.0
O583 O 0.70454 0.46562 0.52299 0.0
O584 O 0.66789 0.51681 0.59201 0.0
O585 O 0.64587 0.51224 0.50113 0.0
O586 O 0.64592 0.52871 0.36669 0.0
O587 O 0.65945 0.58382 0.36872 0.0
O588 O 0.6864 0.57458 0.51332 0.0
O589 O 0.6541 0.58669 0.51017 0.0
O590 O 0.69576 0.54241 0.38626 0.0
O591 O 0.72201 0.52967 0.46334 0.0
H592 H 0.71535 0.58863 0.72505 0.0
H593 H 0.70419 0.59604 0.83913 0.0
H594 H 0.7025 0.47786 0.86084 0.0
H595 H 0.71208 0.47082 0.74567 0.0
H596 H 0.66421 0.49689 0.26901 0.0
H597 H 0.67768 0.49252 0.15636 0.0
H598 H 0.66625 0.60847 0.12893 0.0
H599 H 0.65261 0.61294 0.24153 0.0
Tb600 Tb 0.02504 0.25795 0.55837 0.0
Tb601 Tb 0.05702 0.23095 0.45226 0.0
C602 C 0.00507 0.25749 0.66627 0.0
C603 C 0.01104 0.25159 0.73656 0.0
C604 C 0.01423 0.21614 0.76233 0.0
C605 C 0.02069 0.21113 0.82765 0.0
C606 C 0.02407 0.2415 0.86934 0.0
C607 C 0.02 0.27692 0.84441 0.0
C608 C 0.01358 0.28189 0.77902 0.0
C609 C 0.03731 0.31513 0.48669 0.0
C610 C 0.07589 0.26469 0.57585 0.0
C611 C 0.07424 0.2151 0.34439 0.0
C612 C 0.06785 0.21924 0.27431 0.0
C613 C 0.0626 0.2537 0.24735 0.0
C614 C 0.05591 0.25669 0.18182 0.0
C615 C 0.05434 0.22534 0.14131 0.0
C616 C 0.05958 0.1909 0.16857 0.0
C617 C 0.06631 0.18794 0.23403 0.0
C618 C 0.05023 0.18475 0.5523 0.0
C619 C 0.00826 0.24588 0.41383 0.0
O620 O 0.00574 0.2293 0.62609 0.0
O621 O 0.01272 0.28716 0.63882 0.0
O622 O 0.04302 0.28178 0.48064 0.0
O623 O 0.02384 0.31673 0.53483 0.0
O624 O 0.05692 0.2591 0.60352 0.0
O625 O 0.07904 0.26091 0.51219 0.0
O626 O 0.07869 0.24517 0.37765 0.0
O627 O 0.06288 0.19172 0.37877 0.0
O628 O 0.03642 0.20536 0.52478 0.0
O629 O 0.06801 0.18844 0.52034 0.0
O630 O 0.028 0.23776 0.39795 0.0
O631 O 0.00223 0.25313 0.47547 0.0
H632 H 0.01175 0.19221 0.73209 0.0
H633 H 0.02294 0.18336 0.84559 0.0
H634 H 0.02223 0.30096 0.87513 0.0
H635 H 0.0108 0.3096 0.76145 0.0
H636 H 0.06358 0.2784 0.27689 0.0
H637 H 0.05211 0.28369 0.16269 0.0
H638 H 0.05793 0.16599 0.13989 0.0
H639 H 0.07001 0.16097 0.25356 0.0
Tb640 Tb 0.80895 0.28563 0.69343 0.0
Tb641 Tb 0.77562 0.2618 0.79818 0.0
C642 C 0.82753 0.297 0.58552 0.0
C643 C 0.82193 0.29124 0.51511 0.0
C644 C 0.81062 0.25994 0.49383 0.0
C645 C 0.80477 0.25587 0.42757 0.0
C646 C 0.80996 0.28305 0.38078 0.0
C647 C 0.82126 0.31436 0.40252 0.0
C648 C 0.82721 0.31829 0.46864 0.0
C649 C 0.80189 0.33465 0.78992 0.0
C650 C 0.75977 0.27608 0.65336 0.0
C651 C 0.75634 0.26089 0.90721 0.0
C652 C 0.76333 0.2662 0.97662 0.0
C653 C 0.77571 0.29656 0.99618 0.0
C654 C 0.78305 0.29988 0.06105 0.0
C655 C 0.77867 0.27242 0.10803 0.0
C656 C 0.76607 0.2422 0.08839 0.0
C657 C 0.75852 0.23917 1.02369 0.0
C658 C 0.78763 0.20295 0.72872 0.0
C659 C 0.82621 0.25485 0.82111 0.0
O660 O 0.83071 0.26759 0.62167 0.0
O661 O 0.81637 0.32205 0.61659 0.0
O662 O 0.78806 0.31358 0.7632 0.0
O663 O 0.81976 0.32991 0.75873 0.0
O664 O 0.78 0.28003 0.63808 0.0
O665 O 0.75319 0.27048 0.71511 0.0
O666 O 0.75644 0.28933 0.86771 0.0
O667 O 0.76391 0.23161 0.87842 0.0
O668 O 0.79418 0.23589 0.72394 0.0
O669 O 0.7727 0.20334 0.77264 0.0
O670 O 0.80701 0.26157 0.84599 0.0
O671 O 0.83014 0.25686 0.75767 0.0
H672 H 0.80605 0.23879 0.52854 0.0
H673 H 0.79605 0.23145 0.41302 0.0
H674 H 0.82498 0.33648 0.36885 0.0
H675 H 0.83565 0.34292 0.48375 0.0
H676 H 0.78 0.31754 0.96124 0.0
H677 H 0.79217 0.3241 0.07426 0.0
H678 H 0.76234 0.22042 0.12277 0.0
H679 H 0.74908 0.21535 1.01015 0.0
Tb680 Tb 0.4183 0.98203 0.70005 0.0
Tb681 Tb 0.45143 0.00928 0.80423 0.0
C682 C 0.40109 0.96882 0.59114 0.0
C683 C 0.40849 0.97281 0.52159 0.0
C684 C 0.40666 1.00652 0.48809 0.0
C685 C 0.41407 0.01026 0.42338 0.0
C686 C 0.42361 0.98046 0.3902 0.0
C687 C 0.42512 0.94657 0.42329 0.0
C688 C 0.41766 0.94279 0.48796 0.0
C689 C 0.42684 0.9352 0.79765 0.0
C690 C 0.46719 0.99614 0.65951 0.0
C691 C 0.47134 1.00703 0.91182 0.0
C692 C 0.46456 1.00323 0.98191 0.0
C693 C 0.46667 0.96946 1.015 0.0
C694 C 0.46046 0.96587 0.08099 0.0
C695 C 0.45209 0.99606 0.11599 0.0
C696 C 0.44985 0.02976 0.08264 0.0
C697 C 0.45608 0.03335 1.01681 0.0
C698 C 0.43752 0.06615 0.73414 0.0
C699 C 0.40059 0.01249 0.82874 0.0
O700 O 0.39757 0.99914 0.62476 0.0
O701 O 0.41083 0.94373 0.62644 0.0
O702 O 0.44 0.95699 0.76972 0.0
O703 O 0.40877 0.93775 0.76667 0.0
O704 O 0.44743 0.9872 0.64497 0.0
O705 O 0.47362 1.00417 0.7204 0.0
O706 O 0.46868 0.97843 0.87362 0.0
O707 O 0.46627 0.03759 0.88183 0.0
O708 O 0.43222 0.03256 0.72936 0.0
O709 O 0.45147 0.06838 0.78105 0.0
O710 O 0.42026 0.00975 0.85249 0.0
O711 O 0.39612 1.00836 0.76568 0.0
H712 H 0.3995 0.03016 0.51181 0.0
H713 H 0.41206 0.03649 0.39901 0.0
H714 H 0.43232 0.92299 0.39942 0.0
H715 H 0.41921 0.9163 0.51179 0.0
H716 H 0.47333 0.94581 0.99003 0.0
H717 H 0.46255 0.93954 0.10496 0.0
H718 H 0.44295 0.05338 0.1071 0.0
H719 H 0.45415 0.05984 0.99328 0.0
Tb720 Tb 0.80911 0.98332 0.62766 0.0
Tb721 Tb 0.77564 1.00188 0.52261 0.0
C722 C 0.82687 0.97136 0.73624 0.0
C723 C 0.81942 0.97289 0.80585 0.0
C724 C 0.81401 1.00632 0.83664 0.0
C725 C 0.80671 1.00684 0.90184 0.0
C726 C 0.80463 0.97402 0.93808 0.0
C727 C 0.8097 0.94061 0.9068 0.0
C728 C 0.81711 0.94009 0.84183 0.0
C729 C 0.80332 0.93302 0.53321 0.0
C730 C 0.76003 0.99298 0.66858 0.0
C731 C 0.75599 0.99368 0.41561 0.0
C732 C 0.76301 0.9895 0.34585 0.0
C733 C 0.76586 0.95452 0.31753 0.0
C734 C 0.77231 0.95079 0.25184 0.0
C735 C 0.77574 0.982 0.2123 0.0
C736 C 0.77234 0.01695 0.24008 0.0
C737 C 0.76618 0.02066 0.30592 0.0
C738 C 0.78516 0.06393 0.58441 0.0
C739 C 0.826 0.01428 0.49891 0.0
O740 O 0.82889 1.0025 0.704 0.0
O741 O 0.81818 0.94554 0.70014 0.0
O742 O 0.78906 0.9526 0.5608 0.0
O743 O 0.82127 0.9402 0.56226 0.0
O744 O 0.78012 0.98744 0.68403 0.0
O745 O 0.75346 0.99698 0.60663 0.0
O746 O 0.7598 0.96655 0.45624 0.0
O747 O 0.75955 0.0256 0.44294 0.0
O748 O 0.79315 0.03224 0.59574 0.0
O749 O 0.77158 0.06032 0.53696 0.0
O750 O 0.80684 1.00656 0.47466 0.0
O751 O 0.83019 0.01236 0.56242 0.0
H752 H 0.81539 0.03213 0.81046 0.0
H753 H 0.80294 0.03308 0.92425 0.0
H754 H 0.80773 0.91473 0.93235 0.0
H755 H 0.82091 0.91385 0.81943 0.0
H756 H 0.76273 0.93 0.34581 0.0
H757 H 0.77426 0.92341 0.23166 0.0
H758 H 0.7748 0.04155 0.2111 0.0
H759 H 0.76377 0.04809 0.32537 0.0
Tb760 Tb 0.41953 0.28415 0.62063 0.0
Tb761 Tb 0.45211 0.25947 0.51405 0.0
C762 C 0.40179 0.29764 0.72935 0.0
C763 C 0.40825 0.29416 0.79934 0.0
C764 C 0.42614 0.27321 0.81773 0.0
C765 C 0.43256 0.27116 0.88353 0.0
C766 C 0.42136 0.29027 0.93242 0.0
C767 C 0.40338 0.31112 0.91442 0.0
C768 C 0.39694 0.31316 0.84841 0.0
C769 C 0.42652 0.33232 0.52374 0.0
C770 C 0.46865 0.27052 0.65788 0.0
C771 C 0.47187 0.26385 0.40639 0.0
C772 C 0.4648 0.26814 0.33668 0.0
C773 C 0.46436 0.30287 0.30616 0.0
C774 C 0.4573 0.30666 0.241 0.0
C775 C 0.45056 0.27581 0.20454 0.0
C776 C 0.45157 0.24102 0.23455 0.0
C777 C 0.45851 0.23725 0.29958 0.0
C778 C 0.4394 0.2004 0.58098 0.0
C779 C 0.40132 0.25388 0.4925 0.0
O780 O 0.39887 0.26702 0.69623 0.0
O781 O 0.41238 0.32211 0.69521 0.0
O782 O 0.44029 0.31109 0.55016 0.0
O783 O 0.40884 0.32842 0.55621 0.0
O784 O 0.44901 0.27948 0.67347 0.0
O785 O 0.47476 0.26301 0.59665 0.0
O786 O 0.46927 0.29189 0.44609 0.0
O787 O 0.4669 0.23283 0.43495 0.0
O788 O 0.43359 0.23369 0.58921 0.0
O789 O 0.45304 0.2002 0.53305 0.0
O790 O 0.42071 0.25811 0.46728 0.0
O791 O 0.39732 0.25714 0.55596 0.0
H792 H 0.43521 0.25828 0.78147 0.0
H793 H 0.44621 0.25437 0.8964 0.0
H794 H 0.39441 0.32598 0.95138 0.0
H795 H 0.38317 0.32972 0.83564 0.0
H796 H 0.46939 0.32718 0.33271 0.0
H797 H 0.45683 0.33388 0.21942 0.0
H798 H 0.4472 0.21649 0.20748 0.0
H799 H 0.45903 0.20991 0.32062 0.0
Tb800 Tb 0.20044 0.76668 0.2643 0.0
Tb801 Tb 0.16905 0.74024 0.37259 0.0
C802 C 0.21969 0.76654 0.15558 0.0
C803 C 0.21285 0.76011 0.08632 0.0
C804 C 0.21071 0.72439 0.0607 0.0
C805 C 0.20356 0.71861 0.99634 0.0
C806 C 0.19862 0.74854 0.9554 0.0
C807 C 0.20107 0.78435 0.98056 0.0
C808 C 0.20812 0.79006 0.04506 0.0
C809 C 0.18907 0.82403 0.33767 0.0
C810 C 0.14994 0.7726 0.2473 0.0
C811 C 0.15044 0.72947 0.48094 0.0
C812 C 0.15672 0.7315 0.55098 0.0
C813 C 0.17725 0.74324 0.56916 0.0
C814 C 0.18339 0.74417 0.63509 0.0
C815 C 0.16904 0.73374 0.68457 0.0
C816 C 0.14829 0.72271 0.66681 0.0
C817 C 0.14223 0.72133 0.60043 0.0
C818 C 0.17496 0.69322 0.27327 0.0
C819 C 0.21864 0.74996 0.40521 0.0
O820 O 0.21959 0.7385 0.19598 0.0
O821 O 0.21217 0.79618 0.18349 0.0
O822 O 0.18322 0.79072 0.34336 0.0
O823 O 0.20206 0.82552 0.28832 0.0
O824 O 0.16879 0.76706 0.2195 0.0
O825 O 0.14681 0.76894 0.31096 0.0
O826 O 0.14986 0.76075 0.44897 0.0
O827 O 0.15954 0.7034 0.4464 0.0
O828 O 0.18903 0.71412 0.29907 0.0
O829 O 0.15741 0.69713 0.30659 0.0
O830 O 0.19949 0.73822 0.42124 0.0
O831 O 0.22367 0.76164 0.34511 0.0
H832 H 0.21435 0.70082 0.09047 0.0
H833 H 0.20157 0.69062 0.97907 0.0
H834 H 0.19763 0.80805 0.95016 0.0
H835 H 0.20984 0.81804 0.06264 0.0
H836 H 0.18855 0.75207 0.53267 0.0
H837 H 0.19929 0.75358 0.64761 0.0
H838 H 0.13688 0.71473 0.70418 0.0
H839 H 0.12626 0.7123 0.58772 0.0
Tb840 Tb 0.5252 1.00473 0.26656 0.0
Tb841 Tb 0.55962 0.02481 0.37153 0.0
C842 C 0.50547 0.01301 0.15959 0.0
C843 C 0.51226 0.01453 0.08927 0.0
C844 C 0.51223 0.04811 0.05495 0.0
C845 C 0.51875 0.04982 0.98901 0.0
C846 C 0.52536 0.01792 0.95519 0.0
C847 C 0.52521 0.98431 0.9896 0.0
C848 C 0.51876 0.98263 0.05549 0.0
C849 C 0.53618 0.94427 0.3321 0.0
C850 C 0.57553 0.99084 0.24353 0.0
C851 C 0.57802 0.03473 0.47985 0.0
C852 C 0.57085 0.03226 0.54983 0.0
C853 C 0.5712 0.99857 0.58386 0.0
C854 C 0.56394 0.99624 0.64893 0.0
C855 C 0.556 0.02746 0.68196 0.0
C856 C 0.5562 0.06134 0.64854 0.0
C857 C 0.5635 0.06371 0.58348 0.0
C858 C 0.55347 0.07332 0.27473 0.0
C859 C 0.51018 0.02018 0.41158 0.0
O860 O 0.51129 0.04042 0.19726 0.0
O861 O 0.50725 0.98143 0.18985 0.0
O862 O 0.54305 0.97689 0.3402 0.0
O863 O 0.5221 0.94557 0.28539 0.0
O864 O 0.55643 0.99849 0.21836 0.0
O865 O 0.5797 0.99369 0.30692 0.0
O866 O 0.57931 1.00387 0.44634 0.0
O867 O 0.5698 0.06146 0.4448 0.0
O868 O 0.5394 0.05399 0.30369 0.0
O869 O 0.57162 0.0671 0.30359 0.0
O870 O 0.53038 0.02468 0.42693 0.0
O871 O 0.50345 0.01346 0.35053 0.0
H872 H 0.50714 0.07317 0.07916 0.0
H873 H 0.5184 0.07617 0.96426 0.0
H874 H 0.53064 0.95925 0.96626 0.0
H875 H 0.51903 0.95621 0.07999 0.0
H876 H 0.57704 0.97385 0.56021 0.0
H877 H 0.56475 0.96991 0.67358 0.0
H878 H 0.55033 0.086 0.67232 0.0
H879 H 0.56317 0.09024 0.55932 0.0
Tb880 Tb 0.20483 0.01623 0.56013 0.0
Tb881 Tb 0.17155 0.03986 0.45391 0.0
C882 C 0.22522 0.02196 0.66625 0.0
C883 C 0.21859 0.02536 0.7364 0.0
C884 C 0.22087 0.05898 0.76996 0.0
C885 C 0.21443 0.06244 0.83571 0.0
C886 C 0.2057 0.03226 0.86979 0.0
C887 C 0.20384 0.99847 0.83665 0.0
C888 C 0.21006 0.99511 0.77081 0.0
C889 C 0.19195 0.95732 0.49362 0.0
C890 C 0.15416 1.00883 0.58332 0.0
C891 C 0.1539 0.04947 0.34461 0.0
C892 C 0.16174 0.04715 0.27536 0.0
C893 C 0.16159 0.01359 0.24072 0.0
C894 C 0.16903 0.01166 0.17578 0.0
C895 C 0.17668 0.04325 0.14343 0.0
C896 C 0.17705 0.0767 0.17827 0.0
C897 C 0.1696 0.07867 0.24312 0.0
C898 C 0.17827 0.08795 0.55106 0.0
C899 C 0.22053 0.02858 0.4144 0.0
O900 O 0.22125 0.04995 0.62763 0.0
O901 O 0.2213 0.99058 0.63719 0.0
O902 O 0.18629 0.99059 0.48607 0.0
O903 O 0.20566 0.95675 0.5414 0.0
O904 O 0.17361 0.01342 0.60809 0.0
O905 O 0.14992 0.01245 0.51999 0.0
O906 O 0.15244 0.01858 0.37789 0.0
O907 O 0.16166 0.07638 0.38037 0.0
O908 O 0.19213 0.06707 0.52406 0.0
O909 O 0.16058 0.08409 0.51839 0.0
O910 O 0.20104 0.039 0.39978 0.0
O911 O 0.2267 0.01983 0.47519 0.0
H912 H 0.2276 0.08269 0.74527 0.0
H913 H 0.21645 0.08869 0.86011 0.0
H914 H 0.19718 0.97472 0.86137 0.0
H915 H 0.20816 0.96866 0.74699 0.0
H916 H 0.15566 0.98873 0.26367 0.0
H917 H 0.16845 0.98547 0.15043 0.0
H918 H 0.18325 0.10144 0.15556 0.0
H919 H 0.17004 0.105 0.26803 0.0
Tb920 Tb 0.52956 0.74972 0.55114 0.0
Tb921 Tb 0.55992 0.7212 0.44568 0.0
C922 C 0.51126 0.75339 0.66122 0.0
C923 C 0.51827 0.7461 0.72958 0.0
C924 C 0.53428 0.72025 0.74383 0.0
C925 C 0.5407 0.71381 0.80881 0.0
C926 C 0.53184 0.73421 0.86085 0.0
C927 C 0.5169 0.76189 0.84585 0.0
C928 C 0.5102 0.7677 0.781 0.0
C929 C 0.54063 0.80686 0.47704 0.0
C930 C 0.57985 0.75699 0.56635 0.0
C931 C 0.57701 0.70302 0.33804 0.0
C932 C 0.57062 0.70641 0.26809 0.0
C933 C 0.55472 0.7314 0.24917 0.0
C934 C 0.54845 0.7345 0.18347 0.0
C935 C 0.5578 0.71228 0.13481 0.0
C936 C 0.57354 0.6867 0.15383 0.0
C937 C 0.57988 0.68382 0.21986 0.0
C938 C 0.55433 0.67509 0.54717 0.0
C939 C 0.51094 0.73634 0.40988 0.0
O940 O 0.50914 0.72535 0.62105 0.0
O941 O 0.52079 0.78108 0.63315 0.0
O942 O 0.54672 0.77358 0.47058 0.0
O943 O 0.52755 0.80809 0.52599 0.0
O944 O 0.56131 0.75026 0.59497 0.0
O945 O 0.58266 0.75208 0.50277 0.0
O946 O 0.58134 0.73373 0.36933 0.0
O947 O 0.56525 0.68088 0.37351 0.0
O948 O 0.54003 0.69544 0.52084 0.0
O949 O 0.57176 0.67975 0.51397 0.0
O950 O 0.53025 0.72595 0.39308 0.0
O951 O 0.50578 0.74519 0.47145 0.0
H952 H 0.54224 0.70578 0.70466 0.0
H953 H 0.55298 0.69351 0.81814 0.0
H954 H 0.51021 0.77883 0.88444 0.0
H955 H 0.49866 0.78918 0.77095 0.0
H956 H 0.54707 0.74842 0.2854 0.0
H957 H 0.53611 0.75412 0.17073 0.0
H958 H 0.58119 0.66936 0.11754 0.0
H959 H 0.59205 0.664 0.23322 0.0
Tb960 Tb 0.80955 0.79016 0.19635 0.0
Tb961 Tb 0.77746 0.7632 0.3024 0.0
C962 C 0.82626 0.80431 0.08712 0.0
C963 C 0.81875 0.80035 1.01812 0.0
C964 C 0.809 0.76777 0.99561 0.0
C965 C 0.80157 0.765 0.93078 0.0
C966 C 0.8034 0.79487 0.88724 0.0
C967 C 0.8129 0.82754 0.91001 0.0
C968 C 0.82053 0.8302 0.97463 0.0
C969 C 0.80375 0.83679 0.29641 0.0
C970 C 0.76041 0.77716 0.15887 0.0
C971 C 0.75708 0.76119 0.40944 0.0
C972 C 0.76247 0.76747 0.48004 0.0
C973 C 0.76387 0.80297 0.50692 0.0
C974 C 0.77031 0.80838 0.5722 0.0
C975 C 0.77436 0.77823 0.61398 0.0
C976 C 0.77196 0.74259 0.58758 0.0
C977 C 0.76629 0.73732 0.52166 0.0
C978 C 0.78986 0.70647 0.22902 0.0
C979 C 0.82811 0.75655 0.32128 0.0
O980 O 0.83019 0.77401 0.12021 0.0
O981 O 0.81602 0.82875 0.12243 0.0
O982 O 0.78944 0.81619 0.2705 0.0
O983 O 0.82108 0.83298 0.26219 0.0
O984 O 0.78007 0.78599 0.14307 0.0
O985 O 0.75459 0.76852 0.22001 0.0
O986 O 0.75662 0.78944 0.36934 0.0
O987 O 0.76625 0.73272 0.38239 0.0
O988 O 0.79535 0.73988 0.22455 0.0
O989 O 0.77632 0.70437 0.2768 0.0
O990 O 0.80911 0.76266 0.34823 0.0
O991 O 0.83161 0.76058 0.25766 0.0
H992 H 0.80702 0.74446 1.02813 0.0
H993 H 0.79415 0.73958 0.91479 0.0
H994 H 0.81471 0.85086 0.87747 0.0
H995 H 0.8278 0.85572 0.99075 0.0
H996 H 0.75993 0.82663 0.47763 0.0
H997 H 0.77241 0.83635 0.58915 0.0
H998 H 0.77434 0.71851 0.61793 0.0
H999 H 0.76479 0.70946 0.50332 0.0
Tb1000 Tb 0.41936 0.48385 0.19806 0.0
Tb1001 Tb 0.45103 0.50728 0.3033 0.0
C1002 C 0.40397 0.46421 0.08953 0.0
C1003 C 0.4108 0.46829 1.01963 0.0
C1004 C 0.40482 0.49905 0.98204 0.0
C1005 C 0.41187 0.50294 0.91699 0.0
C1006 C 0.42484 0.47591 0.88755 0.0
C1007 C 0.43037 0.44473 0.92452 0.0
C1008 C 0.42347 0.44098 0.9896 0.0
C1009 C 0.42582 0.43461 0.29418 0.0
C1010 C 0.46704 0.50399 0.15817 0.0
C1011 C 0.47127 0.50254 0.4101 0.0
C1012 C 0.4645 0.49819 0.47975 0.0
C1013 C 0.46907 0.46563 0.51422 0.0
C1014 C 0.46317 0.46174 0.58035 0.0
C1015 C 0.45247 0.49031 0.61353 0.0
C1016 C 0.44741 0.52244 0.57835 0.0
C1017 C 0.45346 0.52645 0.51263 0.0
C1018 C 0.43855 0.56799 0.24137 0.0
C1019 C 0.4001 0.51521 0.32244 0.0
O1020 O 0.39745 0.49369 0.12131 0.0
O1021 O 0.41628 0.44338 0.12588 0.0
O1022 O 0.43998 0.45507 0.26739 0.0
O1023 O 0.408 0.44108 0.26429 0.0
O1024 O 0.44686 0.5006 0.14236 0.0
O1025 O 0.47369 0.50255 0.22026 0.0
O1026 O 0.46801 0.47466 0.37092 0.0
O1027 O 0.4666 0.53365 0.38158 0.0
O1028 O 0.43255 0.53506 0.22983 0.0
O1029 O 0.45254 0.56665 0.28808 0.0
O1030 O 0.41917 0.50915 0.34944 0.0
O1031 O 0.39679 0.51201 0.25866 0.0
H1032 H 0.39463 0.52007 1.00281 0.0
H1033 H 0.40691 0.52691 0.88937 0.0
H1034 H 0.44028 0.42337 0.90333 0.0
H1035 H 0.42819 0.4166 1.01649 0.0
H1036 H 0.47751 0.44333 0.49025 0.0
H1037 H 0.46732 0.4366 0.60584 0.0
H1038 H 0.43856 0.54452 0.60145 0.0
H1039 H 0.44936 0.55177 0.48765 0.0
Tb1040 Tb 0.80664 0.48505 0.11764 0.0
Tb1041 Tb 0.77562 0.512 1.0129 0.0
C1042 C 0.82269 0.46647 0.22618 0.0
C1043 C 0.81578 0.47081 0.29565 0.0
C1044 C 0.80244 0.49999 0.31491 0.0
C1045 C 0.79586 0.50376 0.38034 0.0
C1046 C 0.80181 0.47762 0.42764 0.0
C1047 C 0.81461 0.44774 0.40817 0.0
C1048 C 0.82166 0.44453 0.3429 0.0
C1049 C 0.80073 0.4385 1.01717 0.0
C1050 C 0.75809 0.50155 0.15601 0.0
C1051 C 0.75614 0.51304 0.90435 0.0
C1052 C 0.76234 0.50687 0.83451 0.0
C1053 C 0.76813 0.47199 0.81085 0.0
C1054 C 0.77436 0.467 0.74537 0.0
C1055 C 0.77462 0.49677 0.70114 0.0
C1056 C 0.76891 0.53179 0.72495 0.0
C1057 C 0.76288 0.53674 0.79068 0.0
C1058 C 0.78734 0.57051 0.08196 0.0
C1059 C 0.82637 0.51926 0.99657 0.0
O1060 O 0.82816 0.49645 0.19434 0.0
O1061 O 0.81075 0.44474 0.19036 0.0
O1062 O 0.78648 0.45857 0.04434 0.0
O1063 O 0.81839 0.44333 0.04914 0.0
O1064 O 0.77775 0.49332 0.17203 0.0
O1065 O 0.75225 0.50821 0.09422 0.0
O1066 O 0.75572 0.48488 0.94455 0.0
O1067 O 0.76463 0.54195 0.93187 0.0
O1068 O 0.79349 0.53739 0.09097 0.0
O1069 O 0.7737 0.5704 1.03442 0.0
O1070 O 0.80756 0.51314 0.96838 0.0
O1071 O 0.82926 0.51522 0.06025 0.0
H1072 H 0.79682 0.51963 0.27924 0.0
H1073 H 0.7857 0.5267 0.39374 0.0
H1074 H 0.81936 0.42711 0.44364 0.0
H1075 H 0.83159 0.42135 0.32921 0.0
H1076 H 0.76804 0.44855 0.84293 0.0
H1077 H 0.7793 0.43982 0.72981 0.0
H1078 H 0.76875 0.55536 0.69248 0.0
H1079 H 0.75847 0.56404 0.80719 0.0
Tb1080 Tb 0.4176 0.79131 0.13002 0.0
Tb1081 Tb 0.44828 0.76064 1.02506 0.0
C1082 C 0.40089 0.80823 0.23817 0.0
C1083 C 0.40727 0.80297 0.30776 0.0
C1084 C 0.41768 0.77077 0.32877 0.0
C1085 C 0.42399 0.76673 0.39447 0.0
C1086 C 0.42011 0.79479 0.44073 0.0
C1087 C 0.41018 0.82735 0.419 0.0
C1088 C 0.40379 0.83131 0.3534 0.0
C1089 C 0.42618 0.83805 1.03196 0.0
C1090 C 0.46593 0.77194 0.1683 0.0
C1091 C 0.46688 0.75497 0.91577 0.0
C1092 C 0.46026 0.76228 0.84681 0.0
C1093 C 0.44968 0.7948 0.82884 0.0
C1094 C 0.44328 0.80085 0.76379 0.0
C1095 C 0.44674 0.77397 0.7151 0.0
C1096 C 0.45707 0.74112 0.73339 0.0
C1097 C 0.46363 0.7353 0.79844 0.0
C1098 C 0.43399 0.7049 0.0977 0.0
C1099 C 0.39772 0.76152 1.00429 0.0
O1100 O 0.39559 0.77872 0.20457 0.0
O1101 O 0.41302 0.83062 0.20425 0.0
O1102 O 0.43932 0.81527 0.05771 0.0
O1103 O 0.40842 0.83587 0.06444 0.0
O1104 O 0.44649 0.78195 0.18437 0.0
O1105 O 0.47157 0.76384 0.10667 0.0
O1106 O 0.46959 0.78301 0.9556 0.0
O1107 O 0.45674 0.72801 0.94421 0.0
O1108 O 0.42936 0.73878 0.10265 0.0
O1109 O 0.44776 0.70198 0.05076 0.0
O1110 O 0.41699 0.76527 0.97838 0.0
O1111 O 0.39424 0.76539 0.06784 0.0
H1112 H 0.42097 0.74873 0.29442 0.0
H1113 H 0.43172 0.7414 0.40923 0.0
H1114 H 0.40756 0.85003 0.45254 0.0
H1115 H 0.39624 0.85673 0.33815 0.0
H1116 H 0.4461 0.81536 0.86517 0.0
H1117 H 0.43568 0.82673 0.75171 0.0
H1118 H 0.45989 0.71966 0.69752 0.0
H1119 H 0.47147 0.70967 0.81096 0.0
Tb1120 Tb 0.19937 0.2601 0.77616 0.0
Tb1121 Tb 0.1683 0.23786 0.87669 0.0
C1122 C 0.2178 0.26599 0.6662 0.0
C1123 C 0.21169 0.26069 0.59603 0.0
C1124 C 0.20262 0.22766 0.57326 0.0
C1125 C 0.19736 0.22302 0.5068 0.0
C1126 C 0.20087 0.25148 0.46122 0.0
C1127 C 0.20958 0.28481 0.48428 0.0
C1128 C 0.21503 0.28926 0.55069 0.0
C1129 C 0.19074 0.31507 0.85737 0.0
C1130 C 0.14858 0.26408 0.75033 0.0
C1131 C 0.15091 0.22582 0.98631 0.0
C1132 C 0.15868 0.22956 0.0552 0.0
C1133 C 0.17054 0.26042 0.07562 0.0
C1134 C 0.17809 0.26328 0.14029 0.0
C1135 C 0.17429 0.23505 0.18603 0.0
C1136 C 0.16276 0.20383 0.1653 0.0
C1137 C 0.15501 0.20119 0.10072 0.0
C1138 C 0.17547 0.18623 0.78495 0.0
C1139 C 0.21649 0.24559 0.91749 0.0
O1140 O 0.21919 0.2368 0.70368 0.0
O1141 O 0.20861 0.29335 0.69659 0.0
O1142 O 0.17748 0.291 0.83703 0.0
O1143 O 0.20893 0.3094 0.8287 0.0
O1144 O 0.16811 0.25964 0.72648 0.0
O1145 O 0.14469 0.26124 0.81357 0.0
O1146 O 0.14807 0.25614 0.9526 0.0
O1147 O 0.16028 0.20042 0.95125 0.0
O1148 O 0.18943 0.20733 0.81083 0.0
O1149 O 0.15748 0.19261 0.81433 0.0
O1150 O 0.19643 0.24549 0.93393 0.0
O1151 O 0.22266 0.24832 0.85518 0.0
H1152 H 0.19945 0.20543 0.60679 0.0
H1153 H 0.19015 0.19734 0.49138 0.0
H1154 H 0.21251 0.3073 0.45064 0.0
H1155 H 0.22203 0.31504 0.5666 0.0
H1156 H 0.17412 0.28232 0.04155 0.0
H1157 H 0.1871 0.28747 0.15442 0.0
H1158 H 0.15942 0.18171 0.19939 0.0
H1159 H 0.14614 0.17689 0.08626 0.0
Tb1160 Tb 0.52815 0.5043 0.76601 0.0
Tb1161 Tb 0.56322 0.52272 0.86895 0.0
C1162 C 0.50879 0.51268 0.65818 0.0
C1163 C 0.516 0.51664 0.58828 0.0
C1164 C 0.52002 0.55147 0.56063 0.0
C1165 C 0.52708 0.55495 0.49537 0.0
C1166 C 0.52998 0.5237 0.45538 0.0
C1167 C 0.52543 0.48896 0.48246 0.0
C1168 C 0.51877 0.48546 0.54801 0.0
C1169 C 0.53813 0.44304 0.83094 0.0
C1170 C 0.5788 0.48955 0.74161 0.0
C1171 C 0.5806 0.53793 0.97712 0.0
C1172 C 0.57388 0.53531 0.04744 0.0
C1173 C 0.56659 0.5022 0.0754 0.0
C1174 C 0.55975 0.50096 0.14118 0.0
C1175 C 0.55993 0.53278 0.18098 0.0
C1176 C 0.56693 0.56597 0.15236 0.0
C1177 C 0.57393 0.56712 0.08686 0.0
C1178 C 0.5561 0.57264 0.77409 0.0
C1179 C 0.51479 0.51364 0.91364 0.0
O1180 O 0.51293 0.53977 0.6987 0.0
O1181 O 0.51189 0.48073 0.686 0.0
O1182 O 0.54627 0.47499 0.83692 0.0
O1183 O 0.52291 0.44592 0.78796 0.0
O1184 O 0.55958 0.49802 0.71777 0.0
O1185 O 0.58336 0.49175 0.80485 0.0
O1186 O 0.58436 0.50728 0.94462 0.0
O1187 O 0.57001 0.56184 0.94174 0.0
O1188 O 0.54237 0.55309 0.80396 0.0
O1189 O 0.57452 0.56529 0.8001 0.0
O1190 O 0.53527 0.51206 0.92659 0.0
O1191 O 0.50723 0.5151 0.85217 0.0
H1192 H 0.51767 0.57615 0.58941 0.0
H1193 H 0.53001 0.58222 0.47593 0.0
H1194 H 0.52744 0.4643 0.45323 0.0
H1195 H 0.51569 0.45815 0.56704 0.0
H1196 H 0.56604 0.47722 0.04641 0.0
H1197 H 0.55446 0.47488 0.16106 0.0
H1198 H 0.56669 0.59137 0.18016 0.0
H1199 H 0.57916 0.59317 0.06662 0.0
Tb1200 Tb 0.20017 0.51528 0.05333 0.0
Tb1201 Tb 0.1686 0.54259 0.94786 0.0
C1202 C 0.22007 0.51384 0.16126 0.0
C1203 C 0.21436 0.51988 0.23169 0.0
C1204 C 0.21298 0.55538 0.25873 0.0
C1205 C 0.20721 0.56065 0.32456 0.0
C1206 C 0.2025 0.53048 0.36535 0.0
C1207 C 0.20452 0.49485 0.33894 0.0
C1208 C 0.21042 0.48964 0.27315 0.0
C1209 C 0.18878 0.45826 0.97938 0.0
C1210 C 0.14953 0.5081 0.0702 0.0
C1211 C 0.15169 0.55734 0.83933 0.0
C1212 C 0.15919 0.55363 0.77016 0.0
C1213 C 0.16221 0.51894 0.74072 0.0
C1214 C 0.16959 0.51607 0.6759 0.0
C1215 C 0.17414 0.54776 0.63869 0.0
C1216 C 0.1715 0.58239 0.66863 0.0
C1217 C 0.16401 0.58527 0.73328 0.0
C1218 C 0.17475 0.58862 0.04861 0.0
C1219 C 0.21744 0.53017 0.91003 0.0
O1220 O 0.22025 0.54217 0.12141 0.0
O1221 O 0.21154 0.48497 0.13352 0.0
O1222 O 0.18276 0.4915 0.97398 0.0
O1223 O 0.20207 0.45678 1.02786 0.0
O1224 O 0.16833 0.51398 0.09851 0.0
O1225 O 0.14667 0.51177 1.00649 0.0
O1226 O 0.14772 0.52695 0.87204 0.0
O1227 O 0.16179 0.58174 0.87518 0.0
O1228 O 0.18884 0.56836 1.02135 0.0
O1229 O 0.15707 0.58457 1.01617 0.0
O1230 O 0.19792 0.53954 0.89421 0.0
O1231 O 0.22312 0.52115 0.9712 0.0
H1232 H 0.21636 0.57914 0.22913 0.0
H1233 H 0.20654 0.58847 0.34356 0.0
H1234 H 0.20117 0.47092 0.36886 0.0
H1235 H 0.21173 0.46179 0.25457 0.0
H1236 H 0.15886 0.4939 0.76763 0.0
H1237 H 0.17144 0.48896 0.65454 0.0
H1238 H 0.1754 0.60737 0.64229 0.0
H1239 H 0.1621 0.61238 0.75466 0.0
Tb1240 Tb 0.52394 0.2453 0.04963 0.0
Tb1241 Tb 0.55605 0.22218 0.94596 0.0
C1242 C 0.50388 0.24457 0.15748 0.0
C1243 C 0.51022 0.2385 0.22757 0.0
C1244 C 0.50776 0.20418 0.25874 0.0
C1245 C 0.51439 0.19907 0.32421 0.0
C1246 C 0.52352 0.22826 0.36023 0.0
C1247 C 0.52503 0.26288 0.32987 0.0
C1248 C 0.51854 0.26791 0.26479 0.0
C1249 C 0.53257 0.30508 0.97968 0.0
C1250 C 0.57397 0.25965 0.06697 0.0
C1251 C 0.5732 0.2076 0.83717 0.0
C1252 C 0.56586 0.2104 0.76738 0.0
C1253 C 0.56638 0.24409 0.73333 0.0
C1254 C 0.5595 0.24633 0.66786 0.0
C1255 C 0.55196 0.21498 0.63438 0.0
C1256 C 0.55115 0.18141 0.66859 0.0
C1257 C 0.55814 0.17909 0.73399 0.0
C1258 C 0.55167 0.17447 0.04568 0.0
C1259 C 0.50738 0.23221 0.90558 0.0
O1260 O 0.50404 0.21671 0.11659 0.0
O1261 O 0.51173 0.27405 0.13016 0.0
O1262 O 0.54055 0.27305 0.97098 0.0
O1263 O 0.51919 0.30285 1.02771 0.0
O1264 O 0.55553 0.25091 0.09512 0.0
O1265 O 0.57716 0.25536 1.00355 0.0
O1266 O 0.57665 0.23832 0.86947 0.0
O1267 O 0.56346 0.18309 0.87355 0.0
O1268 O 0.53681 0.19313 1.01847 0.0
O1269 O 0.56918 0.1815 1.01413 0.0
O1270 O 0.52705 0.22363 0.89052 0.0
O1271 O 0.50129 0.23996 0.96679 0.0
H1272 H 0.50069 0.18129 0.23263 0.0
H1273 H 0.51267 0.17214 0.34631 0.0
H1274 H 0.53117 0.28636 0.35667 0.0
H1275 H 0.52009 0.29512 0.24369 0.0
H1276 H 0.5721 0.26884 0.75718 0.0
H1277 H 0.55997 0.27278 0.64344 0.0
H1278 H 0.54549 0.15673 0.64431 0.0
H1279 H 0.55754 0.15264 0.7584 0.0
C1280 C 0.2286 0.22316 1.02627 0.0
C1281 C 0.23068 0.24924 0.9751 0.0
C1282 C 0.23525 0.23084 0.09102 0.0
C1283 C 0.24371 0.2654 0.1077 0.0
H1284 H 0.22116 0.1968 1.01636 0.0
H1285 H 0.2345 0.2092 0.12749 0.0
S1286 S 0.25094 0.34437 0.99365 0.0
N1287 N 0.24081 0.31155 0.94699 0.0
N1288 N 0.25305 0.32646 0.06785 0.0
C1289 C 0.24525 0.29203 0.05727 0.0
C1290 C 0.23893 0.28386 0.99139 0.0
C1291 C 0.98197 0.03323 0.98863 0.0
C1292 C -0.00158 1.00845 0.97393 0.0
C1293 C 0.97288 0.03431 0.05185 0.0
C1294 C 0.97989 0.01086 0.10316 0.0
H1295 H 0.97667 0.0528 0.95204 0.0
H1296 H 0.95989 0.05343 0.06049 0.0
S1297 S 0.02187 0.93988 0.08891 0.0
N1298 N 0.02132 0.95975 1.01609 0.0
N1299 N 0.00356 0.9611 0.13331 0.0
C1300 C -0.00382 0.9859 0.08893 0.0
C1301 C 0.00549 0.98481 1.02481 0.0
C1302 C 0.23308 0.045 0.30169 0.0
C1303 C 0.23345 0.02012 0.35506 0.0
C1304 C 0.23956 0.03448 0.23805 0.0
C1305 C 0.24624 0.99832 0.22466 0.0
H1306 H 0.22734 0.07281 0.30907 0.0
H1307 H 0.24018 0.05517 0.19983 0.0
S1308 S 0.24755 0.9213 0.34432 0.0
N1309 N 0.2394 0.95688 0.38815 0.0
N1310 N 0.25158 0.93705 0.26932 0.0
C1311 C 0.24605 0.97295 0.27711 0.0
C1312 C 0.23974 0.9838 0.34192 0.0
C1313 C 0.98267 0.28432 0.34785 0.0
C1314 C -0.00549 0.25178 0.35505 0.0
C1315 C 0.97477 0.29507 0.28594 0.0
C1316 C 0.97869 0.2742 0.22837 0.0
H1317 H 0.98014 0.30223 0.38966 0.0
H1318 H 0.96505 0.31969 0.28321 0.0
S1319 S 0.00727 0.1853 0.22161 0.0
N1320 N 0.00867 0.19763 0.29951 0.0
N1321 N -0.00591 0.21845 0.18406 0.0
C1322 C -0.00966 0.24161 0.23512 0.0
C1323 C -0.00198 0.23022 0.29808 0.0
C1324 C 0.72798 0.73051 1.02538 0.0
C1325 C 0.73053 0.7546 0.97128 0.0
C1326 C 0.73592 0.73915 0.08837 0.0
C1327 C 0.74639 0.77268 0.10036 0.0
H1328 H 0.71944 0.7048 1.01907 0.0
H1329 H 0.73458 0.71888 0.12709 0.0
S1330 S 0.75522 0.84717 0.9784 0.0
N1331 N 0.74302 0.81455 0.9361 0.0
N1332 N 0.75787 0.83096 0.05361 0.0
C1333 C 0.74853 0.79737 0.04716 0.0
C1334 C 0.74073 0.78832 0.98302 0.0
C1335 C 0.7502 0.98085 0.78587 0.0
C1336 C 0.74622 1.00029 0.72681 0.0
C1337 C 0.74148 0.99206 0.84654 0.0
C1338 C 0.72864 0.02362 0.85108 0.0
H1339 H 0.76047 0.95685 0.78529 0.0
H1340 H 0.74419 0.97517 0.88953 0.0
S1341 S 0.71501 0.0865 0.71317 0.0
N1342 N 0.72957 0.05399 0.67841 0.0
N1343 N 0.71334 0.07538 0.79157 0.0
C1344 C 0.725 0.04382 0.79271 0.0
C1345 C 0.73363 0.03208 0.73095 0.0
C1346 C -0.00726 0.73021 0.72987 0.0
C1347 C 0.98138 0.76312 0.72085 0.0
C1348 C 0.00039 0.72004 0.79249 0.0
C1349 C -0.00344 0.7418 0.84907 0.0
H1350 H -0.00481 0.71169 0.68886 0.0
H1351 H 0.00993 0.69527 0.79652 0.0
S1352 S 0.9691 0.83174 0.85097 0.0
N1353 N 0.9677 0.8184 0.7736 0.0
N1354 N 0.98168 0.79862 0.89042 0.0
C1355 C 0.9853 0.77466 0.84049 0.0
C1356 C 0.97792 0.78547 0.77681 0.0
C1357 C 0.23228 0.72933 0.51403 0.0
C1358 C 0.23258 0.75582 0.46323 0.0
C1359 C 0.23926 0.73766 0.57804 0.0
C1360 C 0.24664 0.773 0.59429 0.0
H1361 H 0.22591 0.7021 0.50459 0.0
H1362 H 0.23954 0.71594 0.61444 0.0
S1363 S 0.25002 0.85276 0.4809 0.0
N1364 N 0.24039 0.81922 0.4348 0.0
N1365 N 0.25383 0.83477 0.55438 0.0
C1366 C 0.24705 0.79971 0.54403 0.0
C1367 C 0.24006 0.79117 0.47882 0.0
C1368 C -0.00901 0.53482 0.59178 0.0
C1369 C 0.98111 0.50089 0.60485 0.0
C1370 C -0.00156 0.54345 0.52821 0.0
C1371 C -0.00408 0.51895 0.47464 0.0
H1372 H -0.00776 0.55536 0.63016 0.0
H1373 H 0.00669 0.56936 0.52106 0.0
S1374 S 0.97311 0.42509 0.48481 0.0
N1375 N 0.97045 0.44172 0.55979 0.0
N1376 N 0.98448 0.45807 0.44134 0.0
C1377 C 0.98645 0.48477 0.4876 0.0
C1378 C 0.97913 0.47576 0.55224 0.0
C1379 C 0.23539 0.5354 0.73224 0.0
C1380 C 0.2475 0.50327 0.72437 0.0
C1381 C 0.2274 0.54556 0.79431 0.0
C1382 C 0.23118 0.52413 0.85134 0.0
H1383 H 0.23274 0.55352 0.69084 0.0
H1384 H 0.2177 0.57019 0.79745 0.0
S1385 S 0.26101 0.43644 0.85631 0.0
N1386 N 0.26258 0.44961 0.77886 0.0
N1387 N 0.24699 0.46841 0.8943 0.0
C1388 C 0.24315 0.49192 0.84391 0.0
C1389 C 0.2513 0.48153 0.78088 0.0
C1390 C 0.72845 0.24911 0.59129 0.0
C1391 C 0.74562 0.27378 0.59418 0.0
C1392 C 0.71906 0.2396 0.53067 0.0
C1393 C 0.72607 0.25486 0.47028 0.0
H1394 H 0.72277 0.23588 0.6356 0.0
H1395 H 0.7058 0.22042 0.53124 0.0
S1396 S 0.76698 0.32757 0.45286 0.0
N1397 N 0.76715 0.31753 0.53187 0.0
N1398 N 0.74899 0.30016 0.41948 0.0
C1399 C 0.74231 0.2812 0.47306 0.0
C1400 C 0.75199 0.29078 0.53451 0.0
C1401 C 0.72647 0.55193 0.28692 0.0
C1402 C 0.72934 0.52933 0.34293 0.0
C1403 C 0.73399 0.54156 0.22425 0.0
C1404 C 0.74427 0.50766 0.21451 0.0
H1405 H 0.71792 0.57772 0.29147 0.0
H1406 H 0.73243 0.56074 0.18388 0.0
S1407 S 0.75426 0.43692 0.34259 0.0
N1408 N 0.7424 0.47073 0.38277 0.0
N1409 N 0.7561 0.45079 0.26569 0.0
C1410 C 0.74674 0.48447 0.26971 0.0
C1411 C 0.73951 0.49539 0.33355 0.0
C1412 C 0.47783 0.97658 0.54687 0.0
C1413 C 0.48068 1.0012 0.60009 0.0
C1414 C 0.48548 0.98449 0.48345 0.0
C1415 C 0.49619 0.01756 0.47022 0.0
H1416 H 0.46921 0.95104 0.55416 0.0
H1417 H 0.48379 0.96388 0.44532 0.0
S1418 S 0.50603 0.0931 0.58962 0.0
N1419 N 0.49365 0.06127 0.63327 0.0
N1420 N 0.50846 0.07597 0.51483 0.0
C1421 C 0.4988 0.04275 0.52255 0.0
C1422 C 0.49104 0.03463 0.58716 0.0
C1423 C 0.49008 0.22795 0.72787 0.0
C1424 C 0.48202 0.26343 0.71659 0.0
C1425 C 0.49628 0.21678 0.7913 0.0
C1426 C 0.49435 0.24031 0.84644 0.0
H1427 H 0.49079 0.20819 0.68807 0.0
H1428 H 0.50315 0.18961 0.79713 0.0
S1429 S 0.47476 0.33642 0.84223 0.0
N1430 N 0.4728 0.3223 0.76547 0.0
N1431 N 0.48461 0.30135 0.88391 0.0
C1432 C 0.48651 0.2759 0.83543 0.0
C1433 C 0.48041 0.28741 0.77091 0.0
C1434 C 0.49063 0.73187 0.23421 0.0
C1435 C 0.47981 0.76539 0.2266 0.0
C1436 C 0.49903 0.72135 0.29559 0.0
C1437 C 0.49686 0.74366 0.35231 0.0
H1438 H 0.49199 0.71306 0.19314 0.0
H1439 H 0.50776 0.69566 0.29843 0.0
S1440 S 0.47094 0.83521 0.3576 0.0
N1441 N 0.46792 0.82151 0.28085 0.0
N1442 N 0.48393 0.80176 0.39513 0.0
C1443 C 0.48616 0.77728 0.34516 0.0
C1444 C 0.47772 0.78814 0.28272 0.0
C1445 C 0.50862 0.48824 1.02608 0.0
C1446 C 0.50137 0.51096 0.97393 0.0
C1447 C 0.49865 0.48785 0.08796 0.0
C1448 C 0.48123 0.5108 0.10093 0.0
H1449 H 0.52219 0.47019 1.01886 0.0
H1450 H 0.50408 0.46848 0.12473 0.0
S1451 S 0.45845 0.58033 0.98679 0.0
N1452 N 0.47742 0.56022 0.94336 0.0
N1453 N 0.45847 0.55972 0.05901 0.0
C1454 C 0.47449 0.53498 0.05052 0.0
C1455 C 0.48456 0.53505 0.98733 0.0
C1456 C 0.36324 0.23778 0.46939 0.0
C1457 C 0.3832 0.25017 0.44671 0.0
C1458 C 0.34534 0.23764 0.42817 0.0
C1459 C 0.34682 0.24989 0.3629 0.0
H1460 H 0.36131 0.2287 0.51967 0.0
H1461 H 0.33018 0.22844 0.44792 0.0
S1462 S 0.3952 0.28731 0.28091 0.0
N1463 N 0.40326 0.27592 0.3551 0.0
N1464 N 0.36971 0.27594 0.2781 0.0
C1465 C 0.36676 0.26197 0.33936 0.0
C1466 C 0.38495 0.26201 0.38116 0.0
C1467 C 0.86483 0.02444 0.47624 0.0
C1468 C 0.84391 0.01976 0.45236 0.0
C1469 C 0.88242 0.02404 0.43384 0.0
C1470 C 0.87979 0.01903 0.36586 0.0
H1471 H 0.8678 0.02715 0.52838 0.0
H1472 H 0.89823 0.02663 0.45496 0.0
S1473 S 0.82823 1.00808 0.2775 0.0
N1474 N 0.8215 0.01219 0.35536 0.0
N1475 N 0.85448 0.01127 0.27604 0.0
C1476 C 0.85889 0.01609 0.34085 0.0
C1477 C 0.84097 0.01653 0.38399 0.0
C1478 C 0.36216 0.02439 0.85422 0.0
C1479 C 0.3828 0.0153 0.87607 0.0
C1480 C 0.34465 0.02315 0.89689 0.0
C1481 C 0.34715 0.01276 0.96294 0.0
H1482 H 0.3594 0.03178 0.80344 0.0
H1483 H 0.32899 0.02966 0.87749 0.0
S1484 S 0.3979 0.98601 0.04469 0.0
N1485 N 0.40476 0.99572 0.96856 0.0
N1486 N 0.37195 0.99337 0.04835 0.0
C1487 C 0.3678 1.0045 0.9859 0.0
C1488 C 0.38561 1.00578 0.94256 0.0
C1489 C 0.8409 0.25564 0.93456 0.0
C1490 C 0.84432 0.25069 0.86685 0.0
C1491 C 0.858 0.25749 0.97834 0.0
C1492 C 0.87918 0.25446 0.95616 0.0
H1493 H 0.82495 0.25959 0.95398 0.0
H1494 H 0.85452 0.26266 1.02961 0.0
S1495 S 0.89667 0.23621 0.78489 0.0
N1496 N 0.87041 0.23905 0.78054 0.0
N1497 N 0.90261 0.24255 0.86294 0.0
C1498 C 0.88281 0.24732 0.88915 0.0
C1499 C 0.86536 0.24539 0.84447 0.0
C1500 C 0.59494 0.76996 0.67701 0.0
C1501 C 0.5981 0.76687 0.6088 0.0
C1502 C 0.61212 0.77455 0.71987 0.0
C1503 C 0.63318 0.77622 0.6963 0.0
H1504 H 0.57913 0.76737 0.69818 0.0
H1505 H 0.60883 0.77488 0.77206 0.0
S1506 S 0.64981 0.77516 0.52123 0.0
N1507 N 0.62366 0.76995 0.51905 0.0
N1508 N 0.65606 0.7789 0.59954 0.0
C1509 C 0.63646 0.77605 0.62781 0.0
C1510 C 0.6189 0.77123 0.58409 0.0
C1511 C 0.09792 0.99407 0.64692 0.0
C1512 C 0.09985 1.00249 0.714 0.0
C1513 C 0.11574 0.99468 0.6054 0.0
C1514 C 0.13615 1.00379 0.62941 0.0
H1515 H 0.08246 0.98769 0.62591 0.0
H1516 H 0.11335 0.98878 0.5538 0.0
S1517 S 0.14978 0.02831 0.80163 0.0
N1518 N 0.12389 0.02006 0.80281 0.0
N1519 N 0.15727 0.02108 0.72516 0.0
C1520 C 0.13841 0.01124 0.69692 0.0
C1521 C 0.12029 0.01067 0.73911 0.0
C1522 C 0.63201 0.99417 0.18048 0.0
C1523 C 0.62919 0.99435 0.11203 0.0
C1524 C 0.61467 0.98994 0.22279 0.0
C1525 C 0.59377 0.98592 0.19837 0.0
H1526 H 0.64758 0.99907 0.20203 0.0
H1527 H 0.61765 0.99212 0.27501 0.0
S1528 S 0.5784 0.97732 1.0231 0.0
N1529 N 0.60439 0.98465 1.02161 0.0
N1530 N 0.57165 0.97692 0.10138 0.0
C1531 C 0.59096 0.98275 0.13009 0.0
C1532 C 0.6087 0.98695 0.08685 0.0
C1533 C 0.09342 0.7643 0.18608 0.0
C1534 C 0.09575 0.77046 0.11838 0.0
C1535 C 0.11084 0.76743 0.22841 0.0
C1536 C 0.1312 0.77679 0.20446 0.0
H1537 H 0.07829 0.75527 0.20633 0.0
H1538 H 0.10849 0.76047 0.27959 0.0
S1539 S 0.14479 0.8025 1.03325 0.0
N1540 N 0.11925 0.79133 1.03063 0.0
N1541 N 0.15209 0.79713 0.11045 0.0
C1542 C 0.13339 0.78579 0.13772 0.0
C1543 C 0.11563 0.78261 0.09456 0.0
C1544 C 0.36569 0.76017 0.84695 0.0
C1545 C 0.34468 0.75432 0.86888 0.0
C1546 C 0.38275 0.76137 0.89103 0.0
C1547 C 0.37951 0.75676 0.95894 0.0
H1548 H 0.36902 0.76525 0.79558 0.0
H1549 H 0.3985 0.76712 0.87153 0.0
S1550 S 0.32797 0.73639 0.04099 0.0
N1551 N 0.3218 0.7407 0.96264 0.0
N1552 N 0.35398 0.74305 0.04547 0.0
C1553 C 0.35875 0.7492 0.98133 0.0
C1554 C 0.34132 0.74792 0.93634 0.0
C1555 C 0.86061 0.52195 0.84427 0.0
C1556 C 0.88144 0.524 0.86981 0.0
C1557 C 0.84283 0.52255 0.88557 0.0
C1558 C 0.84517 0.52522 0.95408 0.0
H1559 H 0.85793 0.51817 0.79219 0.0
H1560 H 0.82721 0.51921 0.86348 0.0
S1561 S 0.89617 0.53759 0.04485 0.0
N1562 N 0.90334 0.53349 0.9673 0.0
N1563 N 0.86986 0.53459 0.04506 0.0
C1564 C 0.86583 0.53008 0.97997 0.0
C1565 C 0.88398 0.52946 0.9378 0.0
C1566 C 0.36686 0.52038 0.47724 0.0
C1567 C 0.34582 0.52131 0.45315 0.0
C1568 C 0.38435 0.52025 0.4346 0.0
C1569 C 0.38151 0.52109 0.36611 0.0
H1570 H 0.36995 0.5182 0.5294 0.0
H1571 H 0.40018 0.51805 0.45575 0.0
S1572 S 0.32968 0.52886 0.27808 0.0
N1573 N 0.32315 0.52701 0.35641 0.0
N1574 N 0.35599 0.52673 0.27629 0.0
C1575 C 0.36058 0.52444 0.3414 0.0
C1576 C 0.34275 0.52456 0.3849 0.0
C1577 C 0.86744 0.75225 0.34047 0.0
C1578 C 0.8465 0.7495 0.36506 0.0
C1579 C 0.88511 0.7509 0.3824 0.0
C1580 C 0.88253 0.7467 0.45058 0.0
H1581 H 0.87029 0.75708 0.28876 0.0
H1582 H 0.90082 0.7548 0.36123 0.0
S1583 S 0.83111 0.73269 0.53864 0.0
N1584 N 0.82426 0.73825 0.46114 0.0
N1585 N 0.85741 0.73564 0.53993 0.0
C1586 C 0.86172 0.7414 0.47532 0.0
C1587 C 0.84373 0.74284 0.43258 0.0
C1588 C 0.6065 0.27635 0.2199 0.0
C1589 C 0.62751 0.27848 0.19565 0.0
C1590 C 0.58917 0.27225 0.17752 0.0
C1591 C 0.59213 0.27024 0.10922 0.0
H1592 H 0.6034 0.27584 0.27219 0.0
H1593 H 0.57344 0.26902 0.19898 0.0
S1594 S 0.64359 0.28112 1.02031 0.0
N1595 N 0.65008 0.28324 0.09867 0.0
N1596 N 0.61743 0.27563 1.01874 0.0
C1597 C 0.61286 0.27549 0.08397 0.0
C1598 C 0.63057 0.27961 0.12728 0.0
C1599 C 0.11592 0.49574 0.2226 0.0
C1600 C 0.09502 0.50114 0.19922 0.0
C1601 C 0.1334 0.49629 0.17997 0.0
C1602 C 0.13064 0.50223 0.11232 0.0
H1603 H 0.11894 0.49212 0.27453 0.0
H1604 H 0.14923 0.49313 0.2007 0.0
S1605 S 0.079 0.51541 1.02545 0.0
N1606 N 0.07241 0.51062 0.1033 0.0
N1607 N 0.10522 0.51152 1.02324 0.0
C1608 C 0.10972 0.50588 0.08775 0.0
C1609 C 0.09192 0.50538 0.1312 0.0
C1610 C 0.63491 0.49392 0.67549 0.0
C1611 C 0.63167 0.49559 0.60727 0.0
C1612 C 0.61784 0.48866 0.71853 0.0
C1613 C 0.59678 0.48508 0.69517 0.0
H1614 H 0.6506 0.49849 0.69642 0.0
H1615 H 0.62113 0.48982 0.77067 0.0
S1616 S 0.58029 0.48006 0.52035 0.0
N1617 N 0.60627 0.48748 0.51778 0.0
N1618 N 0.57407 0.47791 0.59896 0.0
C1619 C 0.59357 0.48313 0.62687 0.0
C1620 C 0.61104 0.48834 0.58285 0.0
C1621 C 0.10949 0.26851 0.72945 0.0
C1622 C 0.13048 0.26916 0.70485 0.0
C1623 C 0.09193 0.26898 0.68732 0.0
C1624 C 0.09463 0.27012 0.61884 0.0
H1625 H 0.10649 0.26633 0.78165 0.0
H1626 H 0.07615 0.26704 0.70889 0.0
S1627 S 0.14633 0.27704 0.5297 0.0
N1628 N 0.15303 0.27459 0.60785 0.0
N1629 N 0.11999 0.27555 0.52843 0.0
C1630 C 0.11553 0.27302 0.5936 0.0
C1631 C 0.13346 0.27248 0.63666 0.0
C1632 C 0.29209 0.24713 0.72226 0.0
C1633 C 0.27907 0.27285 0.68958 0.0
C1634 C 0.29836 0.25256 0.7879 0.0
C1635 C 0.29189 0.28392 0.82324 0.0
H1636 H 0.29779 0.22295 0.69653 0.0
H1637 H 0.3086 0.23232 0.81096 0.0
S1638 S 0.25532 0.35656 0.76324 0.0
N1639 N 0.25829 0.3289 0.69964 0.0
N1640 N 0.27024 0.33928 0.82258 0.0
C1641 C 0.27836 0.30922 0.79185 0.0
C1642 C 0.27192 0.30364 0.72517 0.0
C1643 C 0.93272 0.01583 0.71891 0.0
C1644 C 0.94787 0.99225 0.68985 0.0
C1645 C 0.92629 0.01125 0.78461 0.0
C1646 C 0.93477 0.98293 0.82394 0.0
H1647 H 0.92543 0.03752 0.69019 0.0
H1648 H 0.91425 0.02956 0.80439 0.0
S1649 S 0.97711 0.91726 0.77398 0.0
N1650 N 0.97253 0.94171 0.70725 0.0
N1651 N 0.96064 0.93326 0.83057 0.0
C1652 C 0.95047 0.96001 0.79611 0.0
C1653 C 0.95696 0.96462 0.72923 0.0
C1654 C 0.29813 0.9459 0.55338 0.0
C1655 C 0.29605 0.97488 0.50787 0.0
C1656 C 0.29132 0.94978 0.61887 0.0
C1657 C 0.28227 0.98288 0.64176 0.0
H1658 H 0.30553 0.92026 0.53872 0.0
H1659 H 0.29369 0.92696 0.65225 0.0
S1660 S 0.27094 0.06561 0.54057 0.0
N1661 N 0.28236 0.03656 0.4891 0.0
N1662 N 0.27026 0.04429 0.61203 0.0
C1663 C 0.27959 0.01171 0.59626 0.0
C1664 C 0.28628 1.0076 0.52951 0.0
C1665 C 0.94425 0.26392 0.52753 0.0
C1666 C 0.9265 0.28583 0.5107 0.0
C1667 C 0.95071 0.25937 0.59326 0.0
C1668 C 0.93987 0.27677 0.64546 0.0
H1669 H 0.95341 0.25033 0.48946 0.0
H1670 H 0.96445 0.24226 0.60307 0.0
S1671 S 0.89108 0.3343 0.62886 0.0
N1672 N 0.8973 0.32316 0.55266 0.0
N1673 N 0.90947 0.31493 0.67545 0.0
C1674 C 0.92188 0.29835 0.62938 0.0
C1675 C 0.91524 0.30284 0.56244 0.0
C1676 C 0.67195 0.76012 0.29591 0.0
C1677 C 0.68099 0.7349 0.25124 0.0
C1678 C 0.67922 0.76297 0.361 0.0
C1679 C 0.69575 0.74044 0.38533 0.0
H1680 H 0.65891 0.77774 0.28072 0.0
H1681 H 0.67161 0.78293 0.3927 0.0
S1682 S 0.72594 0.67135 0.28792 0.0
N1683 N 0.70833 0.68814 0.23562 0.0
N1684 N 0.72159 0.69288 0.35806 0.0
C1685 C 0.70504 0.71512 0.34125 0.0
C1686 C 0.69777 0.71248 0.27449 0.0
C1687 C 0.05621 1.0074 0.2969 0.0
C1688 C 0.04726 0.03453 0.25584 0.0
C1689 C 0.04928 1.00279 0.36207 0.0
C1690 C 0.03322 0.02527 0.38909 0.0
H1691 H 0.06896 0.98996 0.27891 0.0
H1692 H 0.05685 0.9819 0.39199 0.0
S1693 S 0.00288 0.09744 0.30089 0.0
N1694 N 0.02009 0.08204 0.24592 0.0
N1695 N 0.00758 0.07395 0.36865 0.0
C1696 C 0.02383 0.05195 0.34839 0.0
C1697 C 0.03071 0.05644 0.28185 0.0
C1698 C 0.67358 1.00858 0.53555 0.0
C1699 C 0.67341 0.043 0.56744 0.0
C1700 C 0.68005 1.00503 0.46973 0.0
C1701 C 0.68666 0.03574 0.4327 0.0
H1702 H 0.66839 0.98414 0.56145 0.0
H1703 H 0.6796 0.97798 0.44742 0.0
S1704 S 0.69078 0.13172 0.49438 0.0
N1705 N 0.68154 0.10821 0.55763 0.0
N1706 N 0.69365 0.10158 0.43432 0.0
C1707 C 0.68683 0.07029 0.46422 0.0
C1708 C 0.68024 0.0739 0.53131 0.0
C1709 C 0.0262 0.75998 0.48415 0.0
C1710 C 0.03445 0.73739 0.43387 0.0
C1711 C 0.03284 0.75611 0.5499 0.0
C1712 C 0.04818 0.72964 0.56847 0.0
H1713 H 0.01436 0.78071 0.47274 0.0
H1714 H 0.02576 0.77389 0.58661 0.0
S1715 S 0.0761 0.6656 0.45499 0.0
N1716 N 0.05957 0.68866 0.40713 0.0
N1717 N 0.07221 0.68173 0.52982 0.0
C1718 C 0.05672 0.70713 0.51852 0.0
C1719 C 0.04986 0.71093 0.45165 0.0
C1720 C 0.29258 0.8099 0.20086 0.0
C1721 C 0.28057 0.77916 0.17986 0.0
C1722 C 0.29982 0.8133 0.26607 0.0
C1723 C 0.29546 0.78607 0.31341 0.0
H1724 H 0.29688 0.83127 0.16628 0.0
H1725 H 0.30932 0.83712 0.27912 0.0
S1726 S 0.26307 0.70182 0.28676 0.0
N1727 N 0.26373 0.72186 0.21414 0.0
N1728 N 0.27704 0.72866 0.33601 0.0
C1729 C 0.28306 0.75568 0.29377 0.0
C1730 C 0.27575 0.7521 0.22738 0.0
C1731 C 0.92095 0.50513 0.27948 0.0
C1732 C 0.92954 0.47797 0.32126 0.0
C1733 C 0.92823 0.50969 0.21467 0.0
C1734 C 0.94446 0.48731 0.18818 0.0
H1735 H 0.90826 0.52293 0.2967 0.0
H1736 H 0.92084 0.53076 0.18479 0.0
S1737 S 0.97305 0.41286 0.27694 0.0
N1738 N 0.95562 0.42863 0.33084 0.0
N1739 N 0.96941 0.43751 0.20989 0.0
C1740 C 0.95326 0.46002 0.22924 0.0
C1741 C 0.94578 0.45527 0.29529 0.0
C1742 C 0.28117 0.49426 1.02244 0.0
C1743 C 0.29998 0.47477 1.00633 0.0
C1744 C 0.27427 0.49837 0.08772 0.0
C1745 C 0.28553 0.48266 0.14043 0.0
H1746 H 0.2715 0.50653 0.98433 0.0
H1747 H 0.25985 0.5139 0.09682 0.0
S1748 S 0.33647 0.43098 0.12753 0.0
N1749 N 0.33048 0.44141 0.05085 0.0
N1750 N 0.31692 0.44793 0.17272 0.0
C1751 C 0.30432 0.46304 0.12561 0.0
C1752 C 0.31163 0.45935 0.05905 0.0
C1753 C 0.92358 0.80607 0.0502 0.0
C1754 C 0.92884 0.77997 1.00138 0.0
C1755 C 0.93106 0.80279 0.11511 0.0
C1756 C 0.94394 0.773 0.1348 0.0
H1757 H 0.9133 0.82912 0.03858 0.0
H1758 H 0.92636 0.8235 0.15055 0.0
S1759 S 0.96333 0.69782 1.02656 0.0
N1760 N 0.94898 0.72419 0.97758 0.0
N1761 N 0.96202 0.71723 0.09968 0.0
C1762 C 0.94936 0.7467 0.08676 0.0
C1763 C 0.94209 0.75036 1.02029 0.0
C1764 C 0.6862 0.21731 0.77918 0.0
C1765 C 0.67553 0.24648 0.74735 0.0
C1766 C 0.69287 0.22015 0.84517 0.0
C1767 C 0.68921 0.2523 0.88239 0.0
H1768 H 0.68962 0.19215 0.75265 0.0
H1769 H 0.70117 0.19707 0.86701 0.0
S1770 S 0.66037 0.3354 0.8243 0.0
N1771 N 0.66061 0.30779 0.75992 0.0
N1772 N 0.67315 0.31315 0.88295 0.0
C1773 C 0.67837 0.28147 0.85134 0.0
C1774 C 0.67156 0.27856 0.78429 0.0
C1775 C 0.04544 0.54716 0.86774 0.0
C1776 C 0.03274 0.51704 0.88762 0.0
C1777 C 0.05207 0.55155 0.8021 0.0
C1778 C 0.04638 0.526 0.75299 0.0
H1779 H 0.05067 0.56732 0.90348 0.0
H1780 H 0.0621 0.57487 0.79 0.0
S1781 S 0.01198 0.44382 0.777 0.0
N1782 N 0.01399 0.46204 0.85098 0.0
N1783 N 0.02615 0.47064 0.72826 0.0
C1784 C 0.0334 0.49612 0.77176 0.0
C1785 C 0.02671 0.49153 0.83866 0.0
C1786 C 0.67259 0.52093 1.02168 0.0
C1787 C 0.68121 0.54736 0.0647 0.0
C1788 C 0.67949 0.51813 0.95613 0.0
C1789 C 0.69553 0.54138 0.93051 0.0
H1790 H 0.66008 0.50261 0.03853 0.0
H1791 H 0.6719 0.49782 0.92495 0.0
S1792 S 0.72464 0.61323 1.02502 0.0
N1793 N 0.70732 0.59622 0.07809 0.0
N1794 N 0.72075 0.59042 0.95587 0.0
C1795 C 0.7046 0.56752 0.97364 0.0
C1796 C 0.69736 0.57061 0.04029 0.0
C1797 C 0.02234 0.25579 0.99065 0.0
C1798 C 0.03189 0.23642 0.93838 0.0
C1799 C 0.02954 0.25183 0.05567 0.0
C1800 C 0.04684 0.22863 0.07151 0.0
H1801 H 0.00906 0.27407 0.98139 0.0
H1802 H 0.02134 0.26695 0.09396 0.0
S1803 S 0.07874 0.17421 0.95204 0.0
N1804 N 0.06033 0.19447 0.90672 0.0
N1805 N 0.07412 0.18757 1.02819 0.0
C1806 C 0.05676 0.20948 1.01953 0.0
C1807 C 0.04927 0.21327 0.95335 0.0
C1808 C 0.77423 0.26534 0.23096 0.0
C1809 C 0.78719 0.27503 0.17705 0.0
C1810 C 0.78181 0.26737 0.29593 0.0
C1811 C 0.80266 0.27965 0.31055 0.0
H1812 H 0.75792 0.25645 0.22312 0.0
H1813 H 0.77106 0.25963 0.33508 0.0
S1814 S 0.84398 0.3043 0.18724 0.0
N1815 N 0.82269 0.29435 0.1429 0.0
N1816 N 0.83672 0.29887 0.26452 0.0
C1817 C 0.81597 0.28867 0.25706 0.0
C1818 C 0.80831 0.28626 0.19073 0.0
C1819 C 0.42684 0.95765 0.27321 0.0
C1820 C 0.43161 0.98452 0.32103 0.0
C1821 C 0.43363 0.96143 0.2076 0.0
C1822 C 0.44548 0.99229 0.18664 0.0
H1823 H 0.4174 0.93376 0.28625 0.0
H1824 H 0.42915 0.9403 0.17269 0.0
S1825 S 0.46404 0.06877 0.29369 0.0
N1826 N 0.45037 0.04175 0.34346 0.0
N1827 N 0.46275 0.04916 0.22069 0.0
C1828 C 0.45072 0.01899 0.23431 0.0
C1829 C 0.44392 0.01503 0.30115 0.0
C1830 C 0.77967 0.99674 1.02672 0.0
C1831 C 0.79721 0.97476 1.00814 0.0
C1832 C 0.77274 0.99862 0.09237 0.0
C1833 C 0.78293 0.97842 0.14241 0.0
H1834 H 0.77112 0.01256 0.99014 0.0
H1835 H 0.75922 0.01601 0.10398 0.0
S1836 S 0.83042 0.91851 0.12106 0.0
N1837 N 0.82521 0.93362 0.04636 0.0
N1838 N 0.81197 0.9367 0.16899 0.0
C1839 C 0.80044 0.95627 0.12458 0.0
C1840 C 0.80761 0.95455 0.05781 0.0
C1841 C 0.44706 0.30466 1.024 0.0
C1842 C 0.42819 0.28746 1.00224 0.0
C1843 C 0.45404 0.30118 0.08946 0.0
C1844 C 0.44263 0.2798 0.13541 0.0
H1845 H 0.45644 0.32101 0.99021 0.0
H1846 H 0.46871 0.3148 0.10384 0.0
S1847 S 0.3921 0.2293 0.10212 0.0
N1848 N 0.39811 0.24879 1.0313 0.0
N1849 N 0.41129 0.24139 0.15343 0.0
C1850 C 0.42373 0.26241 0.11373 0.0
C1851 C 0.4165 0.2665 0.04749 0.0
C1852 C 0.17272 0.76223 0.86404 0.0
C1853 C 0.19071 0.74272 0.88691 0.0
C1854 C 0.16533 0.75824 0.79925 0.0
C1855 C 0.17586 0.73507 0.75446 0.0
H1856 H 0.16427 0.78081 0.89648 0.0
H1857 H 0.15162 0.77415 0.78358 0.0
S1858 S 0.22313 0.67688 0.78926 0.0
N1859 N 0.21836 0.69826 0.85932 0.0
N1860 N 0.2047 0.69148 0.73752 0.0
C1861 C 0.19364 0.71502 0.77667 0.0
C1862 C 0.20097 0.7186 0.84285 0.0
C1863 C 0.5533 0.05138 0.79847 0.0
C1864 C 0.54768 0.0248 0.75103 0.0
C1865 C 0.54599 0.04902 0.86376 0.0
C1866 C 0.53273 0.01992 0.88489 0.0
H1867 H 0.56377 0.07396 0.78539 0.0
H1868 H 0.55114 0.06989 0.89829 0.0
S1869 S 0.51191 0.94475 0.7787 0.0
N1870 N 0.5268 0.96978 0.72902 0.0
N1871 N 0.5136 0.96472 0.85129 0.0
C1872 C 0.52679 0.9934 0.83762 0.0
C1873 C 0.53408 0.99602 0.77103 0.0
C1874 C 0.20467 0.00997 0.98716 0.0
C1875 C 0.19839 0.0359 0.9395 0.0
C1876 C 0.19779 0.0127 0.05278 0.0
C1877 C 0.18411 0.04124 0.07352 0.0
H1878 H 0.21509 0.98743 0.97376 0.0
H1879 H 0.20333 0.99236 0.08767 0.0
S1880 S 0.16094 0.11348 0.96635 0.0
N1881 N 0.17653 0.08955 0.91688 0.0
N1882 N 0.16329 0.09433 0.03942 0.0
C1883 C 0.17737 0.06689 1.026 0.0
C1884 C 0.18454 0.06428 0.95935 0.0
C1885 C 0.54435 0.75749 0.97082 0.0
C1886 C 0.5386 0.72765 0.93033 0.0
C1887 C 0.5506 0.75218 0.0364 0.0
C1888 C 0.5514 0.71679 0.06451 0.0
H1889 H 0.54421 0.78524 0.95148 0.0
H1890 H 0.55502 0.77604 0.06526 0.0
S1891 S 0.53597 0.62974 0.98168 0.0
N1892 N 0.5329 0.66153 0.92457 0.0
N1893 N 0.54463 0.65161 0.04763 0.0
C1894 C 0.54545 0.68671 1.02489 0.0
C1895 C 0.53907 0.69212 0.958 0.0
C1896 C 0.79635 0.75903 0.7124 0.0
C1897 C 0.7814 0.78346 0.68418 0.0
C1898 C 0.80317 0.76275 0.77784 0.0
C1899 C 0.79579 0.79159 0.81789 0.0
H1900 H 0.80314 0.7369 0.68355 0.0
H1901 H 0.81464 0.74318 0.79696 0.0
S1902 S 0.7561 0.86252 0.77068 0.0
N1903 N 0.75859 0.83667 0.70445 0.0
N1904 N 0.77266 0.84495 0.8253 0.0
C1905 C 0.78108 0.81649 0.79065 0.0
C1906 C 0.77361 0.81216 0.72452 0.0
C1907 C 0.43009 0.45064 0.77331 0.0
C1908 C 0.43242 0.47987 0.81826 0.0
C1909 C 0.43683 0.45398 0.70766 0.0
C1910 C 0.44633 0.48662 0.68429 0.0
H1911 H 0.4226 0.42517 0.78866 0.0
H1912 H 0.43415 0.43106 0.67465 0.0
S1913 S 0.45846 0.56959 0.78413 0.0
N1914 N 0.4462 0.54157 0.83559 0.0
N1915 N 0.45943 0.5475 0.71339 0.0
C1916 C 0.44941 0.51555 0.7294 0.0
C1917 C 0.44231 0.51228 0.79591 0.0
C1918 C 0.80116 0.51256 0.53409 0.0
C1919 C 0.79469 0.4818 0.49711 0.0
C1920 C 0.79463 0.5172 0.59969 0.0
C1921 C 0.78109 0.49153 0.63082 0.0
H1922 H 0.81159 0.53298 0.51233 0.0
H1923 H 0.80049 0.5409 0.62645 0.0
S1924 S 0.75776 0.40845 0.55259 0.0
N1925 N 0.77322 0.42624 0.49509 0.0
N1926 N 0.76005 0.4358 0.61685 0.0
C1927 C 0.77403 0.4612 0.59345 0.0
C1928 C 0.78103 0.45614 0.5271 0.0
C1929 C 0.45313 0.77066 0.59281 0.0
C1930 C 0.43959 0.77993 0.64558 0.0
C1931 C 0.44676 0.77556 0.52719 0.0
C1932 C 0.42656 0.79012 0.51116 0.0
H1933 H 0.46891 0.75975 0.60219 0.0
H1934 H 0.45786 0.76812 0.48869 0.0
S1935 S 0.38428 0.81596 0.63056 0.0
N1936 N 0.40444 0.80244 0.67681 0.0
N1937 N 0.39257 0.81187 0.55397 0.0
C1938 C 0.41275 0.79918 0.56339 0.0
C1939 C 0.41922 0.79407 0.63027 0.0
C1940 C 0.17685 0.27067 0.29193 0.0
C1941 C 0.18179 0.23881 0.25555 0.0
C1942 C 0.1832 0.27461 0.35785 0.0
C1943 C 0.19487 0.24691 0.39035 0.0
H1944 H 0.16762 0.29253 0.26959 0.0
H1945 H 0.17857 0.29932 0.38396 0.0
S1946 S 0.21397 0.15984 0.31488 0.0
N1947 N 0.20036 0.18014 0.25567 0.0
N1948 N 0.21249 0.18761 0.37895 0.0
C1949 C 0.20041 0.21529 0.35394 0.0
C1950 C 0.19384 0.21124 0.28686 0.0
C1951 C 0.52714 0.50844 0.33444 0.0
C1952 C 0.53772 0.52706 0.38575 0.0
C1953 C 0.53428 0.51068 0.26894 0.0
C1954 C 0.55253 0.53132 0.25147 0.0
H1955 H 0.51306 0.49216 0.34487 0.0
H1956 H 0.52526 0.49628 0.23153 0.0
S1957 S 0.58713 0.58278 0.36833 0.0
N1958 N 0.56799 0.56557 0.41489 0.0
N1959 N 0.5817 0.56917 0.29278 0.0
C1960 C 0.56344 0.54971 0.30263 0.0
C1961 C 0.55601 0.5477 0.36927 0.0
C1962 C 0.20388 0.51422 0.48586 0.0
C1963 C 0.19537 0.53599 0.43495 0.0
C1964 C 0.19716 0.51849 0.55133 0.0
C1965 C 0.18148 0.54452 0.56888 0.0
H1966 H 0.21592 0.49373 0.47519 0.0
H1967 H 0.20441 0.50131 0.5886 0.0
S1968 S 0.15276 0.60634 0.45371 0.0
N1969 N 0.16958 0.5834 0.40657 0.0
N1970 N 0.15685 0.59114 0.52899 0.0
C1971 C 0.17267 0.56624 0.5184 0.0
C1972 C 0.1796 0.56202 0.45178 0.0
C1973 C 0.51887 0.20511 0.47681 0.0
C1974 C 0.53145 0.22315 0.42923 0.0
C1975 C 0.52562 0.20226 0.5427 0.0
C1976 C 0.54525 0.21725 0.56379 0.0
H1977 H 0.50347 0.1938 0.46343 0.0
H1978 H 0.51517 0.18885 0.57769 0.0
S1979 S 0.58551 0.26243 0.45701 0.0
N1980 N 0.56548 0.25293 0.40708 0.0
N1981 N 0.57803 0.24764 0.53007 0.0
C1982 C 0.55829 0.2341 0.51621 0.0
C1983 C 0.55146 0.23699 0.44932 0.0
C1984 C 0.31747 0.40128 0.42988 0.0
C1985 C 0.29911 0.41014 0.46659 0.0
C1986 C 0.31691 0.37658 0.3766 0.0
C1987 C 0.2981 0.35854 0.35634 0.0
H1988 H 0.3327 0.41358 0.4425 0.0
H1989 H 0.33163 0.37144 0.35067 0.0
S1990 S 0.24466 0.37462 0.4306 0.0
N1991 N 0.26089 0.39968 0.47653 0.0
N1992 N 0.25972 0.35513 0.37364 0.0
C1993 C 0.27923 0.36837 0.39031 0.0
C1994 C 0.27981 0.39339 0.44609 0.0
C1995 C 0.91039 0.86616 0.43044 0.0
C1996 C 0.92921 0.85621 0.46389 0.0
C1997 C 0.91049 0.8904 0.37665 0.0
C1998 C 0.92929 0.90681 0.35241 0.0
H1999 H 0.89512 0.85523 0.4462 0.0
H2000 H 0.89539 0.89651 0.3537 0.0
S2001 S 0.9837 0.88751 0.41697 0.0
N2002 N 0.96778 0.86434 0.46686 0.0
N2003 N 0.96803 0.90709 0.36179 0.0
C2004 C 0.94857 0.89557 0.38261 0.0
C2005 C 0.94848 0.87123 0.43923 0.0
C2006 C 0.28182 0.89568 0.93545 0.0
C2007 C 0.301 0.90418 0.96924 0.0
C2008 C 0.28165 0.87312 0.87791 0.0
C2009 C 0.30061 0.85742 0.85242 0.0
H2010 H 0.2668 0.90614 0.9536 0.0
H2011 H 0.26666 0.86859 0.85271 0.0
S2012 S 0.35453 0.86664 0.92623 0.0
N2013 N 0.33919 0.89207 0.97376 0.0
N2014 N 0.33862 0.84968 0.86955 0.0
C2015 C 0.31955 0.86443 0.88755 0.0
C2016 C 0.31979 0.88751 0.94479 0.0
C2017 C 0.90759 0.40357 0.8962 0.0
C2018 C 0.92665 0.41318 0.86356 0.0
C2019 C 0.90731 0.38004 0.95103 0.0
C2020 C 0.92609 0.36449 0.97738 0.0
H2021 H 0.89243 0.4142 0.8789 0.0
H2022 H 0.89192 0.3737 0.97259 0.0
S2023 S 0.98073 0.38066 0.91172 0.0
N2024 N 0.96513 0.40415 0.86138 0.0
N2025 N 0.96478 0.36218 0.96747 0.0
C2026 C 0.94549 0.37442 0.94649 0.0
C2027 C 0.94572 0.39803 0.88901 0.0
C2028 C 0.69317 0.65292 0.68686 0.0
C2029 C 0.67472 0.67156 0.70887 0.0
C2030 C 0.69268 0.62911 0.63105 0.0
C2031 C 0.67365 0.62216 0.59562 0.0
H2032 H 0.70798 0.656 0.71377 0.0
H2033 H 0.70734 0.61613 0.61591 0.0
S2034 S 0.62237 0.67173 0.62318 0.0
N2035 N 0.63788 0.68611 0.68328 0.0
N2036 N 0.63696 0.64242 0.58053 0.0
C2037 C 0.65566 0.64322 0.61435 0.0
C2038 C 0.65618 0.66732 0.67039 0.0
C2039 C 0.06767 0.12781 0.70049 0.0
C2040 C 0.04911 0.11078 0.72503 0.0
C2041 C 0.0674 0.15185 0.64643 0.0
C2042 C 0.0484 0.16098 0.61318 0.0
H2043 H 0.08286 0.12231 0.7234 0.0
H2044 H 0.0825 0.1633 0.63029 0.0
S2045 S -0.00561 0.12769 0.66064 0.0
N2046 N 0.01039 0.10859 0.71554 0.0
N2047 N 0.00993 0.15168 0.61084 0.0
C2048 C 0.02936 0.1453 0.63804 0.0
C2049 C 0.02966 0.12097 0.69465 0.0
C2050 C 0.69086 0.12617 0.1388 0.0
C2051 C 0.67248 0.12008 0.09963 0.0
C2052 C 0.69058 0.15033 0.19428 0.0
C2053 C 0.67213 0.17062 0.21163 0.0
H2054 H 0.70536 0.11133 0.12825 0.0
H2055 H 0.70474 0.15238 0.22457 0.0
S2056 S 0.62256 0.17545 0.11205 0.0
N2057 N 0.63715 0.14404 0.07442 0.0
N2058 N 0.63677 0.18871 0.17588 0.0
C2059 C 0.6546 0.16777 0.1686 0.0
C2060 C 0.65479 0.14312 0.11322 0.0
C2061 C 0.06901 0.64281 0.13466 0.0
C2062 C 0.05017 0.65496 0.10356 0.0
C2063 C 0.06869 0.61962 0.19006 0.0
C2064 C 0.0495 0.60688 0.21861 0.0
H2065 H 0.08444 0.6515 0.11624 0.0
H2066 H 0.08392 0.61159 0.21078 0.0
S2067 S -0.00479 0.62976 0.15677 0.0
N2068 N 0.01138 0.65091 0.1048 0.0
N2069 N 0.01076 0.60916 0.21113 0.0
C2070 C 0.03036 0.61868 0.18832 0.0
C2071 C 0.0307 0.64215 0.1306 0.0
C2072 C 0.81828 0.39998 0.92964 0.0
C2073 C 0.79912 0.41239 0.95881 0.0
C2074 C 0.81856 0.37518 0.8763 0.0
C2075 C 0.7997 0.36113 0.84767 0.0
H2076 H 0.83351 0.40954 0.94829 0.0
H2077 H 0.83399 0.36685 0.85736 0.0
S2078 S 0.74484 0.3843 0.90437 0.0
N2079 N 0.76045 0.40689 0.95604 0.0
N2080 N 0.7609 0.36338 0.8518 0.0
C2081 C 0.78026 0.37371 0.8753 0.0
C2082 C 0.78 0.39828 0.93173 0.0
C2083 C 0.4105 0.90645 0.89751 0.0
C2084 C 0.42913 0.91339 0.8608 0.0
C2085 C 0.41046 0.88336 0.95294 0.0
C2086 C 0.4289 0.86493 0.97525 0.0
H2087 H 0.39549 0.91881 0.88291 0.0
H2088 H 0.3955 0.87957 0.97844 0.0
S2089 S 0.48286 0.87651 0.90206 0.0
N2090 N 0.46725 0.90119 0.85365 0.0
N2091 N 0.46729 0.8595 0.9602 0.0
C2092 C 0.44811 0.87342 0.94194 0.0
C2093 C 0.44815 0.89691 0.88415 0.0
C2094 C 0.78373 0.86825 0.39288 0.0
C2095 C 0.80226 0.86336 0.35421 0.0
C2096 C 0.7836 0.8913 0.44981 0.0
C2097 C 0.80193 0.91112 0.46981 0.0
H2098 H 0.76918 0.85441 0.37893 0.0
H2099 H 0.76916 0.89312 0.47882 0.0
S2100 S 0.85308 0.91481 0.37827 0.0
N2101 N 0.83853 0.8852 0.33634 0.0
N2102 N 0.83811 0.92787 0.44046 0.0
C2103 C 0.82 0.90827 0.42902 0.0
C2104 C 0.82019 0.88487 0.37205 0.0
C2105 C 0.44692 0.37216 0.43771 0.0
C2106 C 0.42796 0.35572 0.46187 0.0
C2107 C 0.44672 0.39685 0.38289 0.0
C2108 C 0.42749 0.40696 0.35067 0.0
H2109 H 0.46196 0.36653 0.46189 0.0
H2110 H 0.46176 0.40779 0.36577 0.0
S2111 S 0.374 0.36802 0.38999 0.0
N2112 N 0.38992 0.34898 0.44435 0.0
N2113 N 0.38932 0.39494 0.34526 0.0
C2114 C 0.40874 0.38933 0.37337 0.0
C2115 C 0.40902 0.36418 0.4278 0.0
C2116 C 0.15773 0.62827 0.13487 0.0
C2117 C 0.17673 0.61482 0.10637 0.0
C2118 C 0.15777 0.65343 0.18749 0.0
C2119 C 0.17682 0.66685 0.2157 0.0
H2120 H 0.14238 0.61925 0.11627 0.0
H2121 H 0.14246 0.66252 0.20624 0.0
S2122 S 0.23145 0.64079 0.16069 0.0
N2123 N 0.21552 0.6184 0.1096 0.0
N2124 N 0.2156 0.6631 0.21211 0.0
C2125 C 0.19612 0.65338 0.18865 0.0
C2126 C 0.19608 0.62813 0.13336 0.0
C2127 C 0.53327 0.11775 0.19831 0.0
C2128 C 0.55124 0.09558 0.21217 0.0
C2129 C 0.53274 0.14171 0.14292 0.0
C2130 C 0.55026 0.14527 0.09948 0.0
H2131 H 0.51973 0.11733 0.23138 0.0
H2132 H 0.51857 0.15761 0.13475 0.0
S2133 S 0.59844 0.08528 0.10366 0.0
N2134 N 0.58521 0.07392 0.17059 0.0
N2135 N 0.58415 0.11775 0.06792 0.0
C2136 C 0.56743 0.12067 0.11012 0.0
C2137 C 0.56797 0.09646 0.16603 0.0
C2138 C 0.19784 0.12744 0.63915 0.0
C2139 C 0.17936 0.10929 0.61532 0.0
C2140 C 0.19709 0.15118 0.69528 0.0
C2141 C 0.17777 0.1583 0.72935 0.0
H2142 H 0.21279 0.12446 0.613 0.0
H2143 H 0.2116 0.16487 0.71063 0.0
S2144 S 0.12584 0.11279 0.69333 0.0
N2145 N 0.14193 0.0971 0.63594 0.0
N2146 N 0.14041 0.14085 0.7384 0.0
C2147 C 0.15967 0.13842 0.70786 0.0
C2148 C 0.16047 0.11445 0.65175 0.0
C2149 C 0.53582 0.6188 0.70042 0.0
C2150 C 0.55335 0.59503 0.71172 0.0
C2151 C 0.53517 0.64303 0.6452 0.0
C2152 C 0.55226 0.64536 0.59983 0.0
H2153 H 0.52284 0.61962 0.73553 0.0
H2154 H 0.52155 0.66093 0.63975 0.0
S2155 S 0.59877 0.58158 0.59724 0.0
N2156 N 0.58612 0.57097 0.66561 0.0
N2157 N 0.58484 0.61512 0.56359 0.0
C2158 C 0.56875 0.61914 0.60782 0.0
C2159 C 0.56939 0.59472 0.66335 0.0
C2160 C 0.2907 0.12856 0.23275 0.0
C2161 C 0.29462 0.16259 0.20089 0.0
C2162 C 0.29174 0.0946 0.19932 0.0
C2163 C 0.29649 0.09318 0.13214 0.0
H2164 H 0.28569 0.12819 0.28364 0.0
H2165 H 0.28713 0.06973 0.22501 0.0
S2166 S 0.31092 0.17294 1.0273 0.0
N2167 N 0.30605 0.19155 0.09984 0.0
N2168 N 0.30715 0.12822 0.03611 0.0
C2169 C 0.30182 0.12657 0.10066 0.0
C2170 C 0.30118 0.1611 0.13518 0.0
C2171 C 0.94127 0.17273 0.21352 0.0
C2172 C 0.93296 0.17761 0.15036 0.0
C2173 C 0.94151 0.138 0.24351 0.0
C2174 C 0.93375 0.10607 0.21155 0.0
H2175 H 0.9486 0.19571 0.23896 0.0
H2176 H 0.9488 0.13605 0.2916 0.0
S2177 S 0.90896 0.10463 0.04646 0.0
N2178 N 0.9157 0.1482 0.05736 0.0
N2179 N 0.91606 0.08267 0.11411 0.0
C2180 C 0.92435 0.11087 0.14948 0.0
C2181 C 0.92406 0.14662 0.11874 0.0
C2182 C 0.67963 0.92277 0.87845 0.0
C2183 C 0.68309 0.92356 0.94657 0.0
C2184 C 0.68023 0.88918 0.84322 0.0
C2185 C 0.68361 0.85502 0.87489 0.0
H2186 H 0.67796 0.9483 0.85164 0.0
H2187 H 0.67894 0.8901 0.79023 0.0
S2188 S 0.69304 0.84204 0.05256 0.0
N2189 N 0.68964 0.88684 0.04437 0.0
N2190 N 0.69003 0.82443 0.97841 0.0
C2191 C 0.68592 0.85535 0.94321 0.0
C2192 C 0.68584 0.88941 0.97886 0.0
C2193 C 0.02263 0.90376 0.90773 0.0
C2194 C 0.04232 0.9178 0.886 0.0
C2195 C 0.02074 0.86847 0.93453 0.0
C2196 C 0.03837 0.84455 0.93979 0.0
H2197 H 0.0082 0.9199 0.90174 0.0
H2198 H 0.00499 0.85966 0.94981 0.0
S2199 S 0.09376 0.8672 0.88876 0.0
N2200 N 0.08004 0.90479 0.87092 0.0
N2201 N 0.07656 0.83791 0.92148 0.0
C2202 C 0.05839 0.85822 0.9193 0.0
C2203 C 0.06034 0.89482 0.89221 0.0
C2204 C 0.28826 0.67067 0.62287 0.0
C2205 C 0.29566 0.67315 0.68765 0.0
C2206 C 0.28743 0.63654 0.58991 0.0
C2207 C 0.29414 0.60327 0.6198 0.0
H2208 H 0.2816 0.69473 0.59911 0.0
H2209 H 0.28049 0.63609 0.54122 0.0
S2210 S 0.31814 0.59641 0.78547 0.0
N2211 N 0.3118 0.64033 0.77851 0.0
N2212 N 0.31108 0.57664 0.71559 0.0
C2213 C 0.30322 0.60603 0.68262 0.0
C2214 C 0.30368 0.64078 0.71674 0.0
C2215 C 0.92907 0.66653 0.68609 0.0
C2216 C 0.9334 0.66607 0.61846 0.0
C2217 C 0.92882 0.63351 0.72275 0.0
C2218 C 0.93229 0.59882 0.69298 0.0
H2219 H 0.92746 0.69255 0.71161 0.0
H2220 H 0.92699 0.6353 0.77553 0.0
S2221 S 0.94348 0.58275 0.51706 0.0
N2222 N 0.94043 0.62773 0.52288 0.0
N2223 N 0.93952 0.56639 0.59165 0.0
C2224 C 0.9353 0.59794 0.62496 0.0
C2225 C 0.93596 0.6314 0.58784 0.0
C2226 C 0.70693 0.40663 0.43404 0.0
C2227 C 0.68868 0.4291 0.43636 0.0
C2228 C 0.7066 0.3715 0.40651 0.0
C2229 C 0.68789 0.35609 0.38022 0.0
H2230 H 0.72188 0.41608 0.4547 0.0
H2231 H 0.7214 0.35617 0.40614 0.0
S2232 S 0.63512 0.40265 0.37431 0.0
N2233 N 0.65088 0.43325 0.41011 0.0
N2234 N 0.65015 0.36632 0.35795 0.0
C2235 C 0.66922 0.37793 0.38191 0.0
C2236 C 0.66965 0.4146 0.40982 0.0
C2237 C 0.04834 0.381 0.48151 0.0
C2238 C 0.04322 0.34823 0.44761 0.0
C2239 C 0.04781 0.41566 0.45045 0.0
C2240 C 0.04163 0.41902 0.38451 0.0
H2241 H 0.05159 0.38005 0.53372 0.0
H2242 H 0.0507 0.44015 0.47952 0.0
S2243 S 0.02727 0.34197 0.27298 0.0
N2244 N 0.03271 0.32156 0.34346 0.0
N2245 N 0.03116 0.38642 0.28535 0.0
C2246 C 0.03736 0.38637 0.34924 0.0
C2247 C 0.03832 0.35104 0.38063 0.0
C2248 C 0.80543 0.11018 0.65751 0.0
C2249 C 0.78731 0.09978 0.62065 0.0
C2250 C 0.80664 0.14537 0.68819 0.0
C2251 C 0.78992 0.17138 0.68238 0.0
H2252 H 0.81857 0.09109 0.66307 0.0
H2253 H 0.82031 0.15165 0.71879 0.0
S2254 S 0.73852 0.15661 0.59641 0.0
N2255 N 0.75197 0.11838 0.58345 0.0
N2256 N 0.75449 0.18294 0.6404 0.0
C2257 C 0.77195 0.16099 0.64594 0.0
C2258 C 0.7706 0.12573 0.61528 0.0
C2259 C 0.43816 0.13146 0.58908 0.0
C2260 C 0.43381 0.16607 0.6183 0.0
C2261 C 0.43709 0.09825 0.62488 0.0
C2262 C 0.43187 0.09823 0.69188 0.0
H2263 H 0.44344 0.1301 0.5385 0.0
H2264 H 0.44196 0.0729 0.60118 0.0
S2265 S 0.41713 0.18009 0.7909 0.0
N2266 N 0.42226 0.19714 0.71739 0.0
N2267 N 0.42086 0.13522 0.78506 0.0
C2268 C 0.42639 0.13221 0.72082 0.0
C2269 C 0.42713 0.16596 0.68405 0.0
C2270 C 0.18372 0.92474 0.3869 0.0
C2271 C 0.18599 0.92371 0.45544 0.0
C2272 C 0.1832 0.89193 0.34968 0.0
C2273 C 0.18432 0.85681 0.37945 0.0
H2274 H 0.18392 0.95092 0.3615 0.0
H2275 H 0.18292 0.89412 0.29666 0.0
S2276 S 0.18896 0.83919 0.55767 0.0
N2277 N 0.18843 0.8845 0.55184 0.0
N2278 N 0.18675 0.82343 0.48191 0.0
C2279 C 0.18524 0.85548 0.44808 0.0
C2280 C 0.18627 0.88878 0.48593 0.0
C2281 C 0.5488 0.87439 0.46741 0.0
C2282 C 0.54518 0.84014 0.43604 0.0
C2283 C 0.54764 0.90821 0.43309 0.0
C2284 C 0.54218 0.90919 0.3662 0.0
H2285 H 0.55157 0.87515 0.51988 0.0
H2286 H 0.5496 0.9337 0.46007 0.0
S2287 S 0.53154 0.82767 0.26073 0.0
N2288 N 0.53655 0.80996 0.33372 0.0
N2289 N 0.5341 0.87262 0.26927 0.0
C2290 C 0.53936 0.87508 0.33385 0.0
C2291 C 0.5409 0.84083 0.36861 0.0
C2292 C 0.78822 0.67302 0.12189 0.0
C2293 C 0.79541 0.67439 0.18697 0.0
C2294 C 0.78698 0.63932 0.08788 0.0
C2295 C 0.79301 0.60549 0.1171 0.0
H2296 H 0.78199 0.69762 0.09877 0.0
H2297 H 0.78023 0.63966 0.03893 0.0
S2298 S 0.81574 0.59542 0.2838 0.0
N2299 N 0.81033 0.63978 0.27783 0.0
N2300 N 0.80885 0.57687 0.21277 0.0
C2301 C 0.8018 0.60706 0.18034 0.0
C2302 C 0.80269 0.64135 0.21553 0.0
C2303 C 0.44006 0.63695 0.2363 0.0
C2304 C 0.43265 0.60357 0.20839 0.0
C2305 C 0.43811 0.67099 0.20366 0.0
C2306 C 0.42871 0.67326 0.14132 0.0
H2307 H 0.44843 0.63667 0.28283 0.0
H2308 H 0.44548 0.69512 0.22521 0.0
S2309 S 0.404 0.59576 0.04998 0.0
N2310 N 0.41316 0.5763 0.11765 0.0
N2311 N 0.4102 0.63987 0.05522 0.0
C2312 C 0.42002 0.64066 0.1146 0.0
C2313 C 0.42172 0.60599 0.14838 0.0
C2314 C 0.17729 0.35769 0.94575 0.0
C2315 C 0.18502 0.35271 0.88167 0.0
C2316 C 0.17659 0.39294 0.9749 0.0
C2317 C 0.18291 0.42489 0.94059 0.0
H2318 H 0.17318 0.334 0.97516 0.0
H2319 H 0.17221 0.39494 1.02622 0.0
S2320 S 0.20218 0.42741 0.76881 0.0
N2321 N 0.19778 0.38327 0.78299 0.0
N2322 N 0.19563 0.44927 0.83706 0.0
C2323 C 0.18916 0.42061 0.87487 0.0
C2324 C 0.19042 0.38462 0.84567 0.0
C2325 C 0.5532 0.34869 0.90258 0.0
C2326 C 0.53526 0.34042 0.9419 0.0
C2327 C 0.55517 0.38333 0.87043 0.0
C2328 C 0.53927 0.41081 0.87635 0.0
H2329 H 0.56571 0.32839 0.89655 0.0
H2330 H 0.5688 0.38808 0.8388 0.0
S2331 S 0.48863 0.40239 0.96943 0.0
N2332 N 0.50122 0.36335 0.98351 0.0
N2333 N 0.50453 0.42599 0.92057 0.0
C2334 C 0.5213 0.40248 0.91457 0.0
C2335 C 0.51945 0.36808 0.94805 0.0
loop_
_geom_bond_atom_site_label_1
_geom_bond_atom_site_label_2
_geom_bond_distance
_geom_bond_site_symmetry_2
_ccdc_geom_bond_type
Tb0 C2 2.809 . S
Tb0 O20 2.484 . S
Tb0 O21 2.440 . S
Tb0 O22 2.658 . S
Tb0 O23 2.409 . S
Tb0 O24 2.378 . S
Tb0 O28 2.325 . S
Tb0 O31 2.341 . S
Tb1 C11 2.809 . S
Tb1 O22 2.325 . S
Tb1 O25 2.341 . S
Tb1 O26 2.484 . S
Tb1 O27 2.440 . S
Tb1 O28 2.658 . S
Tb1 O29 2.409 . S
Tb1 O30 2.378 . S
C2 Tb0 2.809 . S
C2 C3 1.514 1_554 S
C2 O20 1.248 . S
C2 O21 1.266 . S
C3 C2 1.514 1_556 S
C3 C4 1.359 . S
C3 C8 1.348 . S
C4 C3 1.359 . S
C4 C5 1.380 . S
C4 H32 0.929 . S
C5 C4 1.380 . S
C5 C6 1.347 . S
C5 H33 0.931 . S
C6 C5 1.347 . S
C6 C7 1.369 . S
C7 C6 1.369 . S
C7 C8 1.408 . S
C7 H34 0.930 . S
C8 C3 1.348 . S
C8 C7 1.408 . S
C8 H35 0.930 . S
C9 O22 1.281 . S
C9 O23 1.254 . S
C10 O24 1.236 . S
C10 O25 1.266 . S
C11 Tb1 2.809 . S
C11 C12 1.514 . S
C11 O26 1.248 . S
C11 O27 1.266 . S
C12 C11 1.514 . S
C12 C13 1.359 . S
C12 C17 1.348 . S
C13 C12 1.359 . S
C13 C14 1.380 . S
C13 H36 0.929 . S
C14 C13 1.380 . S
C14 C15 1.347 . S
C14 H37 0.931 . S
C15 C14 1.347 . S
C15 C16 1.369 . S
C16 C15 1.369 . S
C16 C17 1.408 . S
C16 H38 0.930 . S
C17 C12 1.348 . S
C17 C16 1.408 . S
C17 H39 0.930 . S
C18 O28 1.281 . S
C18 O29 1.254 . S
C19 O30 1.236 . S
C19 O31 1.266 . S
O20 Tb0 2.484 . S
O20 C2 1.248 . S
O21 Tb0 2.440 . S
O21 C2 1.266 . S
O22 Tb0 2.658 . S
O22 Tb1 2.325 . S
O22 C9 1.281 . S
O23 Tb0 2.409 . S
O23 C9 1.254 . S
O24 Tb0 2.378 . S
O24 C10 1.236 . S
O25 Tb1 2.341 . S
O25 C10 1.266 . S
O26 Tb1 2.484 . S
O26 C11 1.248 . S
O27 Tb1 2.440 . S
O27 C11 1.266 . S
O28 Tb0 2.325 . S
O28 Tb1 2.658 . S
O28 C18 1.281 . S
O29 Tb1 2.409 . S
O29 C18 1.254 . S
O30 Tb1 2.378 . S
O30 C19 1.236 . S
O31 Tb0 2.341 . S
O31 C19 1.266 . S
H32 C4 0.929 . S
H33 C5 0.931 . S
H34 C7 0.930 . S
H35 C8 0.930 . S
H36 C13 0.929 . S
H37 C14 0.931 . S
H38 C16 0.930 . S
H39 C17 0.930 . S
Tb40 C42 2.809 . S
Tb40 O60 2.484 1_565 S
Tb40 O61 2.440 . S
Tb40 O62 2.658 . S
Tb40 O63 2.409 . S
Tb40 O64 2.378 . S
Tb40 O68 2.325 1_565 S
Tb40 O71 2.341 . S
Tb41 C51 2.809 . S
Tb41 O62 2.325 1_545 S
Tb41 O65 2.341 . S
Tb41 O66 2.484 1_545 S
Tb41 O67 2.440 . S
Tb41 O68 2.658 . S
Tb41 O69 2.409 . S
Tb41 O70 2.378 . S
C42 Tb40 2.809 . S
C42 C43 1.514 1_554 S
C42 O60 1.248 1_565 S
C42 O61 1.266 . S
C43 C42 1.514 1_556 S
C43 C44 1.359 . S
C43 C48 1.348 . S
C44 C43 1.359 . S
C44 C45 1.380 . S
C44 H72 0.929 1_565 S
C45 C44 1.380 . S
C45 C46 1.347 . S
C45 H73 0.931 1_565 S
C46 C45 1.347 . S
C46 C47 1.369 . S
C47 C46 1.369 . S
C47 C48 1.408 . S
C47 H74 0.930 . S
C48 C43 1.348 . S
C48 C47 1.408 . S
C48 H75 0.930 . S
C49 O62 1.281 . S
C49 O63 1.254 . S
C50 O64 1.236 . S
C50 O65 1.266 1_565 S
C51 Tb41 2.809 . S
C51 C52 1.514 . S
C51 O66 1.248 1_545 S
C51 O67 1.266 . S
C52 C51 1.514 . S
C52 C53 1.359 . S
C52 C57 1.348 . S
C53 C52 1.359 . S
C53 C54 1.380 . S
C53 H76 0.929 1_545 S
C54 C53 1.380 . S
C54 C55 1.347 . S
C54 H77 0.931 1_545 S
C55 C54 1.347 . S
C55 C56 1.369 . S
C56 C55 1.369 . S
C56 C57 1.408 . S
C56 H78 0.930 . S
C57 C52 1.348 . S
C57 C56 1.408 . S
C57 H79 0.930 . S
C58 O68 1.281 . S
C58 O69 1.254 . S
C59 O70 1.236 . S
C59 O71 1.266 1_545 S
O60 Tb40 2.484 1_545 S
O60 C42 1.248 1_545 S
O61 Tb40 2.440 . S
O61 C42 1.266 . S
O62 Tb40 2.658 . S
O62 Tb41 2.325 1_565 S
O62 C49 1.281 . S
O63 Tb40 2.409 . S
O63 C49 1.254 . S
O64 Tb40 2.378 . S
O64 C50 1.236 . S
O65 Tb41 2.341 . S
O65 C50 1.266 1_545 S
O66 Tb41 2.484 1_565 S
O66 C51 1.248 1_565 S
O67 Tb41 2.440 . S
O67 C51 1.266 . S
O68 Tb40 2.325 1_545 S
O68 Tb41 2.658 . S
O68 C58 1.281 . S
O69 Tb41 2.409 . S
O69 C58 1.254 . S
O70 Tb41 2.378 . S
O70 C59 1.236 . S
O71 Tb40 2.341 . S
O71 C59 1.266 1_565 S
H72 C44 0.929 1_545 S
H73 C45 0.931 1_545 S
H74 C47 0.930 . S
H75 C48 0.930 . S
H76 C53 0.929 1_565 S
H77 C54 0.931 1_565 S
H78 C56 0.930 . S
H79 C57 0.930 . S
Tb80 C82 2.809 . S
Tb80 O100 2.484 1_565 S
Tb80 O101 2.440 . S
Tb80 O102 2.658 1_554 S
Tb80 O103 2.409 . S
Tb80 O104 2.378 . S
Tb80 O108 2.325 1_565 S
Tb80 O111 2.341 . S
Tb81 C91 2.809 . S
Tb81 O102 2.325 1_545 S
Tb81 O105 2.341 1_556 S
Tb81 O106 2.484 1_545 S
Tb81 O107 2.440 . S
Tb81 O108 2.658 1_556 S
Tb81 O109 2.409 1_556 S
Tb81 O110 2.378 . S
C82 Tb80 2.809 . S
C82 C83 1.514 . S
C82 O100 1.248 1_565 S
C82 O101 1.266 . S
C83 C82 1.514 . S
C83 C84 1.359 . S
C83 C88 1.348 . S
C84 C83 1.359 . S
C84 C85 1.380 . S
C84 H112 0.929 1_565 S
C85 C84 1.380 . S
C85 C86 1.347 . S
C85 H113 0.931 1_565 S
C86 C85 1.347 . S
C86 C87 1.369 . S
C87 C86 1.369 . S
C87 C88 1.408 . S
C87 H114 0.930 . S
C88 C83 1.348 . S
C88 C87 1.408 . S
C88 H115 0.930 . S
C89 O102 1.281 1_554 S
C89 O103 1.254 . S
C90 O104 1.236 . S
C90 O105 1.266 1_565 S
C91 Tb81 2.809 . S
C91 C92 1.514 . S
C91 O106 1.248 1_545 S
C91 O107 1.266 . S
C92 C91 1.514 . S
C92 C93 1.359 . S
C92 C97 1.348 . S
C93 C92 1.359 . S
C93 C94 1.380 . S
C93 H116 0.929 1_545 S
C94 C93 1.380 . S
C94 C95 1.347 . S
C94 H117 0.931 1_545 S
C95 C94 1.347 . S
C95 C96 1.369 . S
C96 C95 1.369 . S
C96 C97 1.408 . S
C96 H118 0.930 . S
C97 C92 1.348 . S
C97 C96 1.408 . S
C97 H119 0.930 . S
C98 O108 1.281 . S
C98 O109 1.254 . S
C99 O110 1.236 . S
C99 O111 1.266 1_546 S
O100 Tb80 2.484 1_545 S
O100 C82 1.248 1_545 S
O101 Tb80 2.440 . S
O101 C82 1.266 . S
O102 Tb80 2.658 1_556 S
O102 Tb81 2.325 1_565 S
O102 C89 1.281 1_556 S
O103 Tb80 2.409 . S
O103 C89 1.254 . S
O104 Tb80 2.378 . S
O104 C90 1.236 . S
O105 Tb81 2.341 1_554 S
O105 C90 1.266 1_545 S
O106 Tb81 2.484 1_565 S
O106 C91 1.248 1_565 S
O107 Tb81 2.440 . S
O107 C91 1.266 . S
O108 Tb80 2.325 1_545 S
O108 Tb81 2.658 1_554 S
O108 C98 1.281 . S
O109 Tb81 2.409 1_554 S
O109 C98 1.254 . S
O110 Tb81 2.378 . S
O110 C99 1.236 . S
O111 Tb80 2.341 . S
O111 C99 1.266 1_564 S
H112 C84 0.929 1_545 S
H113 C85 0.931 1_545 S
H114 C87 0.930 . S
H115 C88 0.930 . S
H116 C93 0.929 1_565 S
H117 C94 0.931 1_565 S
H118 C96 0.930 . S
H119 C97 0.930 . S
Tb120 C122 2.809 . S
Tb120 O140 2.484 . S
Tb120 O141 2.440 . S
Tb120 O142 2.658 1_554 S
Tb120 O143 2.409 . S
Tb120 O144 2.378 . S
Tb120 O148 2.325 . S
Tb120 O151 2.341 . S
Tb121 C131 2.809 . S
Tb121 O142 2.325 . S
Tb121 O145 2.341 1_556 S
Tb121 O146 2.484 . S
Tb121 O147 2.440 . S
Tb121 O148 2.658 1_556 S
Tb121 O149 2.409 1_556 S
Tb121 O150 2.378 . S
C122 Tb120 2.809 . S
C122 C123 1.514 . S
C122 O140 1.248 . S
C122 O141 1.266 . S
C123 C122 1.514 . S
C123 C124 1.359 . S
C123 C128 1.348 . S
C124 C123 1.359 . S
C124 C125 1.380 . S
C124 H152 0.929 . S
C125 C124 1.380 . S
C125 C126 1.347 . S
C125 H153 0.931 . S
C126 C125 1.347 . S
C126 C127 1.369 . S
C127 C126 1.369 . S
C127 C128 1.408 . S
C127 H154 0.930 . S
C128 C123 1.348 . S
C128 C127 1.408 . S
C128 H155 0.930 . S
C129 O142 1.281 1_554 S
C129 O143 1.254 . S
C130 O144 1.236 . S
C130 O145 1.266 . S
C131 Tb121 2.809 . S
C131 C132 1.514 . S
C131 O146 1.248 . S
C131 O147 1.266 . S
C132 C131 1.514 . S
C132 C133 1.359 . S
C132 C137 1.348 . S
C133 C132 1.359 . S
C133 C134 1.380 . S
C133 H156 0.929 . S
C134 C133 1.380 . S
C134 C135 1.347 . S
C134 H157 0.931 . S
C135 C134 1.347 . S
C135 C136 1.369 . S
C136 C135 1.369 . S
C136 C137 1.408 . S
C136 H158 0.930 . S
C137 C132 1.348 . S
C137 C136 1.408 . S
C137 H159 0.930 . S
C138 O148 1.281 . S
C138 O149 1.254 . S
C139 O150 1.236 . S
C139 O151 1.266 1_556 S
O140 Tb120 2.484 . S
O140 C122 1.248 . S
O141 Tb120 2.440 . S
O141 C122 1.266 . S
O142 Tb120 2.658 1_556 S
O142 Tb121 2.325 . S
O142 C129 1.281 1_556 S
O143 Tb120 2.409 . S
O143 C129 1.254 . S
O144 Tb120 2.378 . S
O144 C130 1.236 . S
O145 Tb121 2.341 1_554 S
O145 C130 1.266 . S
O146 Tb121 2.484 . S
O146 C131 1.248 . S
O147 Tb121 2.440 . S
O147 C131 1.266 . S
O148 Tb120 2.325 . S
O148 Tb121 2.658 1_554 S
O148 C138 1.281 . S
O149 Tb121 2.409 1_554 S
O149 C138 1.254 . S
O150 Tb121 2.378 . S
O150 C139 1.236 . S
O151 Tb120 2.341 . S
O151 C139 1.266 1_554 S
H152 C124 0.929 . S
H153 C125 0.931 . S
H154 C127 0.930 . S
H155 C128 0.930 . S
H156 C133 0.929 . S
H157 C134 0.931 . S
H158 C136 0.930 . S
H159 C137 0.930 . S
Tb160 C162 2.809 . S
Tb160 O180 2.484 . S
Tb160 O181 2.440 . S
Tb160 O182 2.658 . S
Tb160 O183 2.409 . S
Tb160 O184 2.378 . S
Tb160 O188 2.325 . S
Tb160 O191 2.341 . S
Tb161 C171 2.809 . S
Tb161 O182 2.325 . S
Tb161 O185 2.341 . S
Tb161 O186 2.484 . S
Tb161 O187 2.440 . S
Tb161 O188 2.658 . S
Tb161 O189 2.409 . S
Tb161 O190 2.378 . S
C162 Tb160 2.809 . S
C162 C163 1.514 . S
C162 O180 1.248 . S
C162 O181 1.266 . S
C163 C162 1.514 . S
C163 C164 1.359 . S
C163 C168 1.348 . S
C164 C163 1.359 . S
C164 C165 1.380 . S
C164 H192 0.929 . S
C165 C164 1.380 . S
C165 C166 1.347 . S
C165 H193 0.931 . S
C166 C165 1.347 . S
C166 C167 1.369 . S
C167 C166 1.369 . S
C167 C168 1.408 . S
C167 H194 0.930 . S
C168 C163 1.348 . S
C168 C167 1.408 . S
C168 H195 0.930 . S
C169 O182 1.281 . S
C169 O183 1.254 . S
C170 O184 1.236 . S
C170 O185 1.266 . S
C171 Tb161 2.809 . S
C171 C172 1.514 1_556 S
C171 O186 1.248 . S
C171 O187 1.266 . S
C172 C171 1.514 1_554 S
C172 C173 1.359 . S
C172 C177 1.348 . S
C173 C172 1.359 . S
C173 C174 1.380 . S
C173 H196 0.929 . S
C174 C173 1.380 . S
C174 C175 1.347 . S
C174 H197 0.931 . S
C175 C174 1.347 . S
C175 C176 1.369 . S
C176 C175 1.369 . S
C176 C177 1.408 . S
C176 H198 0.930 . S
C177 C172 1.348 . S
C177 C176 1.408 . S
C177 H199 0.930 . S
C178 O188 1.281 . S
C178 O189 1.254 . S
C179 O190 1.236 . S
C179 O191 1.266 . S
O180 Tb160 2.484 . S
O180 C162 1.248 . S
O181 Tb160 2.440 . S
O181 C162 1.266 . S
O182 Tb160 2.658 . S
O182 Tb161 2.325 . S
O182 C169 1.281 . S
O183 Tb160 2.409 . S
O183 C169 1.254 . S
O184 Tb160 2.378 . S
O184 C170 1.236 . S
O185 Tb161 2.341 . S
O185 C170 1.266 . S
O186 Tb161 2.484 . S
O186 C171 1.248 . S
O187 Tb161 2.440 . S
O187 C171 1.266 . S
O188 Tb160 2.325 . S
O188 Tb161 2.658 . S
O188 C178 1.281 . S
O189 Tb161 2.409 . S
O189 C178 1.254 . S
O190 Tb161 2.378 . S
O190 C179 1.236 . S
O191 Tb160 2.341 . S
O191 C179 1.266 . S
H192 C164 0.929 . S
H193 C165 0.931 . S
H194 C167 0.930 . S
H195 C168 0.930 . S
H196 C173 0.929 . S
H197 C174 0.931 . S
H198 C176 0.930 . S
H199 C177 0.930 . S
Tb200 C202 2.809 . S
Tb200 O220 2.484 1_565 S
Tb200 O221 2.440 . S
Tb200 O222 2.658 . S
Tb200 O223 2.409 . S
Tb200 O224 2.378 . S
Tb200 O228 2.325 1_565 S
Tb200 O231 2.341 . S
Tb201 C211 2.809 . S
Tb201 O222 2.325 1_545 S
Tb201 O225 2.341 . S
Tb201 O226 2.484 1_545 S
Tb201 O227 2.440 . S
Tb201 O228 2.658 . S
Tb201 O229 2.409 . S
Tb201 O230 2.378 . S
C202 Tb200 2.809 . S
C202 C203 1.514 . S
C202 O220 1.248 1_565 S
C202 O221 1.266 . S
C203 C202 1.514 . S
C203 C204 1.359 . S
C203 C208 1.348 . S
C204 C203 1.359 . S
C204 C205 1.380 . S
C204 H232 0.929 1_565 S
C205 C204 1.380 . S
C205 C206 1.347 . S
C205 H233 0.931 1_565 S
C206 C205 1.347 . S
C206 C207 1.369 . S
C207 C206 1.369 . S
C207 C208 1.408 . S
C207 H234 0.930 . S
C208 C203 1.348 . S
C208 C207 1.408 . S
C208 H235 0.930 . S
C209 O222 1.281 . S
C209 O223 1.254 . S
C210 O224 1.236 . S
C210 O225 1.266 1_565 S
C211 Tb201 2.809 . S
C211 C212 1.514 1_556 S
C211 O226 1.248 1_545 S
C211 O227 1.266 . S
C212 C211 1.514 1_554 S
C212 C213 1.359 . S
C212 C217 1.348 . S
C213 C212 1.359 . S
C213 C214 1.380 . S
C213 H236 0.929 1_545 S
C214 C213 1.380 . S
C214 C215 1.347 . S
C214 H237 0.931 1_545 S
C215 C214 1.347 . S
C215 C216 1.369 . S
C216 C215 1.369 . S
C216 C217 1.408 . S
C216 H238 0.930 . S
C217 C212 1.348 . S
C217 C216 1.408 . S
C217 H239 0.930 . S
C218 O228 1.281 . S
C218 O229 1.254 . S
C219 O230 1.236 . S
C219 O231 1.266 1_545 S
O220 Tb200 2.484 1_545 S
O220 C202 1.248 1_545 S
O221 Tb200 2.440 . S
O221 C202 1.266 . S
O222 Tb200 2.658 . S
O222 Tb201 2.325 1_565 S
O222 C209 1.281 . S
O223 Tb200 2.409 . S
O223 C209 1.254 . S
O224 Tb200 2.378 . S
O224 C210 1.236 . S
O225 Tb201 2.341 . S
O225 C210 1.266 1_545 S
O226 Tb201 2.484 1_565 S
O226 C211 1.248 1_565 S
O227 Tb201 2.440 . S
O227 C211 1.266 . S
O228 Tb200 2.325 1_545 S
O228 Tb201 2.658 . S
O228 C218 1.281 . S
O229 Tb201 2.409 . S
O229 C218 1.254 . S
O230 Tb201 2.378 . S
O230 C219 1.236 . S
O231 Tb200 2.341 . S
O231 C219 1.266 1_565 S
H232 C204 0.929 1_545 S
H233 C205 0.931 1_545 S
H234 C207 0.930 . S
H235 C208 0.930 . S
H236 C213 0.929 1_565 S
H237 C214 0.931 1_565 S
H238 C216 0.930 . S
H239 C217 0.930 . S
Tb240 C242 2.809 . S
Tb240 O260 2.484 1_565 S
Tb240 O261 2.440 . S
Tb240 O262 2.658 1_554 S
Tb240 O263 2.409 1_554 S
Tb240 O264 2.378 . S
Tb240 O268 2.325 1_565 S
Tb240 O271 2.341 1_554 S
Tb241 C251 2.809 . S
Tb241 O262 2.325 1_545 S
Tb241 O265 2.341 . S
Tb241 O266 2.484 1_545 S
Tb241 O267 2.440 . S
Tb241 O268 2.658 1_556 S
Tb241 O269 2.409 . S
Tb241 O270 2.378 . S
C242 Tb240 2.809 . S
C242 C243 1.514 . S
C242 O260 1.248 1_565 S
C242 O261 1.266 . S
C243 C242 1.514 . S
C243 C244 1.359 . S
C243 C248 1.348 . S
C244 C243 1.359 . S
C244 C245 1.380 . S
C244 H272 0.929 1_565 S
C245 C244 1.380 . S
C245 C246 1.347 . S
C245 H273 0.931 1_565 S
C246 C245 1.347 . S
C246 C247 1.369 . S
C247 C246 1.369 . S
C247 C248 1.408 . S
C247 H274 0.930 . S
C248 C243 1.348 . S
C248 C247 1.408 . S
C248 H275 0.930 . S
C249 O262 1.281 . S
C249 O263 1.254 . S
C250 O264 1.236 . S
C250 O265 1.266 1_564 S
C251 Tb241 2.809 . S
C251 C252 1.514 . S
C251 O266 1.248 1_545 S
C251 O267 1.266 . S
C252 C251 1.514 . S
C252 C253 1.359 . S
C252 C257 1.348 . S
C253 C252 1.359 . S
C253 C254 1.380 . S
C253 H276 0.929 1_545 S
C254 C253 1.380 . S
C254 C255 1.347 . S
C254 H277 0.931 1_545 S
C255 C254 1.347 . S
C255 C256 1.369 . S
C256 C255 1.369 . S
C256 C257 1.408 . S
C256 H278 0.930 . S
C257 C252 1.348 . S
C257 C256 1.408 . S
C257 H279 0.930 . S
C258 O268 1.281 1_556 S
C258 O269 1.254 . S
C259 O270 1.236 . S
C259 O271 1.266 1_545 S
O260 Tb240 2.484 1_545 S
O260 C242 1.248 1_545 S
O261 Tb240 2.440 . S
O261 C242 1.266 . S
O262 Tb240 2.658 1_556 S
O262 Tb241 2.325 1_565 S
O262 C249 1.281 . S
O263 Tb240 2.409 1_556 S
O263 C249 1.254 . S
O264 Tb240 2.378 . S
O264 C250 1.236 . S
O265 Tb241 2.341 . S
O265 C250 1.266 1_546 S
O266 Tb241 2.484 1_565 S
O266 C251 1.248 1_565 S
O267 Tb241 2.440 . S
O267 C251 1.266 . S
O268 Tb240 2.325 1_545 S
O268 Tb241 2.658 1_554 S
O268 C258 1.281 1_554 S
O269 Tb241 2.409 . S
O269 C258 1.254 . S
O270 Tb241 2.378 . S
O270 C259 1.236 . S
O271 Tb240 2.341 1_556 S
O271 C259 1.266 1_565 S
H272 C244 0.929 1_545 S
H273 C245 0.931 1_545 S
H274 C247 0.930 . S
H275 C248 0.930 . S
H276 C253 0.929 1_565 S
H277 C254 0.931 1_565 S
H278 C256 0.930 . S
H279 C257 0.930 . S
Tb280 C282 2.809 . S
Tb280 O300 2.484 . S
Tb280 O301 2.440 . S
Tb280 O302 2.658 1_554 S
Tb280 O303 2.409 1_554 S
Tb280 O304 2.378 . S
Tb280 O308 2.325 . S
Tb280 O311 2.341 1_554 S
Tb281 C291 2.809 . S
Tb281 O302 2.325 . S
Tb281 O305 2.341 . S
Tb281 O306 2.484 . S
Tb281 O307 2.440 . S
Tb281 O308 2.658 1_556 S
Tb281 O309 2.409 . S
Tb281 O310 2.378 . S
C282 Tb280 2.809 . S
C282 C283 1.514 . S
C282 O300 1.248 . S
C282 O301 1.266 . S
C283 C282 1.514 . S
C283 C284 1.359 . S
C283 C288 1.348 . S
C284 C283 1.359 . S
C284 C285 1.380 . S
C284 H312 0.929 . S
C285 C284 1.380 . S
C285 C286 1.347 . S
C285 H313 0.931 . S
C286 C285 1.347 . S
C286 C287 1.369 . S
C287 C286 1.369 . S
C287 C288 1.408 . S
C287 H314 0.930 . S
C288 C283 1.348 . S
C288 C287 1.408 . S
C288 H315 0.930 . S
C289 O302 1.281 . S
C289 O303 1.254 . S
C290 O304 1.236 . S
C290 O305 1.266 1_554 S
C291 Tb281 2.809 . S
C291 C292 1.514 . S
C291 O306 1.248 . S
C291 O307 1.266 . S
C292 C291 1.514 . S
C292 C293 1.359 . S
C292 C297 1.348 . S
C293 C292 1.359 . S
C293 C294 1.380 . S
C293 H316 0.929 . S
C294 C293 1.380 . S
C294 C295 1.347 . S
C294 H317 0.931 . S
C295 C294 1.347 . S
C295 C296 1.369 . S
C296 C295 1.369 . S
C296 C297 1.408 . S
C296 H318 0.930 . S
C297 C292 1.348 . S
C297 C296 1.408 . S
C297 H319 0.930 . S
C298 O308 1.281 1_556 S
C298 O309 1.254 . S
C299 O310 1.236 . S
C299 O311 1.266 . S
O300 Tb280 2.484 . S
O300 C282 1.248 . S
O301 Tb280 2.440 . S
O301 C282 1.266 . S
O302 Tb280 2.658 1_556 S
O302 Tb281 2.325 . S
O302 C289 1.281 . S
O303 Tb280 2.409 1_556 S
O303 C289 1.254 . S
O304 Tb280 2.378 . S
O304 C290 1.236 . S
O305 Tb281 2.341 . S
O305 C290 1.266 1_556 S
O306 Tb281 2.484 . S
O306 C291 1.248 . S
O307 Tb281 2.440 . S
O307 C291 1.266 . S
O308 Tb280 2.325 . S
O308 Tb281 2.658 1_554 S
O308 C298 1.281 1_554 S
O309 Tb281 2.409 . S
O309 C298 1.254 . S
O310 Tb281 2.378 . S
O310 C299 1.236 . S
O311 Tb280 2.341 1_556 S
O311 C299 1.266 . S
H312 C284 0.929 . S
H313 C285 0.931 . S
H314 C287 0.930 . S
H315 C288 0.930 . S
H316 C293 0.929 . S
H317 C294 0.931 . S
H318 C296 0.930 . S
H319 C297 0.930 . S
Tb320 C322 2.809 . S
Tb320 O340 2.484 . S
Tb320 O341 2.440 . S
Tb320 O342 2.658 . S
Tb320 O343 2.409 . S
Tb320 O344 2.378 . S
Tb320 O348 2.325 . S
Tb320 O351 2.341 . S
Tb321 C331 2.809 . S
Tb321 O342 2.325 . S
Tb321 O345 2.341 . S
Tb321 O346 2.484 . S
Tb321 O347 2.440 . S
Tb321 O348 2.658 . S
Tb321 O349 2.409 . S
Tb321 O350 2.378 . S
C322 Tb320 2.809 . S
C322 C323 1.514 . S
C322 O340 1.248 . S
C322 O341 1.266 . S
C323 C322 1.514 . S
C323 C324 1.359 . S
C323 C328 1.348 . S
C324 C323 1.359 . S
C324 C325 1.380 . S
C324 H352 0.929 . S
C325 C324 1.380 . S
C325 C326 1.347 . S
C325 H353 0.931 . S
C326 C325 1.347 . S
C326 C327 1.369 . S
C327 C326 1.369 . S
C327 C328 1.408 . S
C327 H354 0.930 . S
C328 C323 1.348 . S
C328 C327 1.408 . S
C328 H355 0.930 . S
C329 O342 1.281 . S
C329 O343 1.254 . S
C330 O344 1.236 . S
C330 O345 1.266 . S
C331 Tb321 2.809 . S
C331 C332 1.514 . S
C331 O346 1.248 . S
C331 O347 1.266 . S
C332 C331 1.514 . S
C332 C333 1.359 1_556 S
C332 C337 1.348 1_556 S
C333 C332 1.359 1_554 S
C333 C334 1.380 . S
C333 H356 0.929 . S
C334 C333 1.380 . S
C334 C335 1.347 . S
C334 H357 0.931 . S
C335 C334 1.347 . S
C335 C336 1.369 . S
C336 C335 1.369 . S
C336 C337 1.408 . S
C336 H358 0.930 . S
C337 C332 1.348 1_554 S
C337 C336 1.408 . S
C337 H359 0.930 1_554 S
C338 O348 1.281 . S
C338 O349 1.254 . S
C339 O350 1.236 . S
C339 O351 1.266 . S
O340 Tb320 2.484 . S
O340 C322 1.248 . S
O341 Tb320 2.440 . S
O341 C322 1.266 . S
O342 Tb320 2.658 . S
O342 Tb321 2.325 . S
O342 C329 1.281 . S
O343 Tb320 2.409 . S
O343 C329 1.254 . S
O344 Tb320 2.378 . S
O344 C330 1.236 . S
O345 Tb321 2.341 . S
O345 C330 1.266 . S
O346 Tb321 2.484 . S
O346 C331 1.248 . S
O347 Tb321 2.440 . S
O347 C331 1.266 . S
O348 Tb320 2.325 . S
O348 Tb321 2.658 . S
O348 C338 1.281 . S
O349 Tb321 2.409 . S
O349 C338 1.254 . S
O350 Tb321 2.378 . S
O350 C339 1.236 . S
O351 Tb320 2.341 . S
O351 C339 1.266 . S
H352 C324 0.929 . S
H353 C325 0.931 . S
H354 C327 0.930 . S
H355 C328 0.930 . S
H356 C333 0.929 . S
H357 C334 0.931 . S
H358 C336 0.930 . S
H359 C337 0.930 1_556 S
Tb360 C362 2.809 . S
Tb360 O380 2.484 . S
Tb360 O381 2.440 . S
Tb360 O382 2.658 . S
Tb360 O383 2.409 . S
Tb360 O384 2.378 . S
Tb360 O388 2.325 . S
Tb360 O391 2.341 . S
Tb361 C371 2.809 . S
Tb361 O382 2.325 . S
Tb361 O385 2.341 . S
Tb361 O386 2.484 . S
Tb361 O387 2.440 . S
Tb361 O388 2.658 . S
Tb361 O389 2.409 . S
Tb361 O390 2.378 . S
C362 Tb360 2.809 . S
C362 C363 1.514 . S
C362 O380 1.248 . S
C362 O381 1.266 . S
C363 C362 1.514 . S
C363 C364 1.359 . S
C363 C368 1.348 . S
C364 C363 1.359 . S
C364 C365 1.380 . S
C364 H392 0.929 . S
C365 C364 1.380 . S
C365 C366 1.347 . S
C365 H393 0.931 . S
C366 C365 1.347 . S
C366 C367 1.369 . S
C367 C366 1.369 . S
C367 C368 1.408 . S
C367 H394 0.930 . S
C368 C363 1.348 . S
C368 C367 1.408 . S
C368 H395 0.930 . S
C369 O382 1.281 . S
C369 O383 1.254 . S
C370 O384 1.236 . S
C370 O385 1.266 . S
C371 Tb361 2.809 . S
C371 C372 1.514 . S
C371 O386 1.248 . S
C371 O387 1.266 . S
C372 C371 1.514 . S
C372 C373 1.359 1_556 S
C372 C377 1.348 1_556 S
C373 C372 1.359 1_554 S
C373 C374 1.380 . S
C373 H396 0.929 . S
C374 C373 1.380 . S
C374 C375 1.347 . S
C374 H397 0.931 . S
C375 C374 1.347 . S
C375 C376 1.369 . S
C376 C375 1.369 . S
C376 C377 1.408 . S
C376 H398 0.930 . S
C377 C372 1.348 1_554 S
C377 C376 1.408 . S
C377 H399 0.930 1_554 S
C378 O388 1.281 . S
C378 O389 1.254 . S
C379 O390 1.236 . S
C379 O391 1.266 . S
O380 Tb360 2.484 . S
O380 C362 1.248 . S
O381 Tb360 2.440 . S
O381 C362 1.266 . S
O382 Tb360 2.658 . S
O382 Tb361 2.325 . S
O382 C369 1.281 . S
O383 Tb360 2.409 . S
O383 C369 1.254 . S
O384 Tb360 2.378 . S
O384 C370 1.236 . S
O385 Tb361 2.341 . S
O385 C370 1.266 . S
O386 Tb361 2.484 . S
O386 C371 1.248 . S
O387 Tb361 2.440 . S
O387 C371 1.266 . S
O388 Tb360 2.325 . S
O388 Tb361 2.658 . S
O388 C378 1.281 . S
O389 Tb361 2.409 . S
O389 C378 1.254 . S
O390 Tb361 2.378 . S
O390 C379 1.236 . S
O391 Tb360 2.341 . S
O391 C379 1.266 . S
H392 C364 0.929 . S
H393 C365 0.931 . S
H394 C367 0.930 . S
H395 C368 0.930 . S
H396 C373 0.929 . S
H397 C374 0.931 . S
H398 C376 0.930 . S
H399 C377 0.930 1_556 S
Tb400 C402 2.809 . S
Tb400 O420 2.484 . S
Tb400 O421 2.440 . S
Tb400 O422 2.658 . S
Tb400 O423 2.409 . S
Tb400 O424 2.378 . S
Tb400 O428 2.325 . S
Tb400 O431 2.341 . S
Tb401 C411 2.809 . S
Tb401 O422 2.325 . S
Tb401 O425 2.341 . S
Tb401 O426 2.484 . S
Tb401 O427 2.440 . S
Tb401 O428 2.658 . S
Tb401 O429 2.409 . S
Tb401 O430 2.378 . S
C402 Tb400 2.809 . S
C402 C403 1.514 . S
C402 O420 1.248 . S
C402 O421 1.266 . S
C403 C402 1.514 . S
C403 C404 1.359 . S
C403 C408 1.348 . S
C404 C403 1.359 . S
C404 C405 1.380 . S
C404 H432 0.929 . S
C405 C404 1.380 . S
C405 C406 1.347 . S
C405 H433 0.931 . S
C406 C405 1.347 . S
C406 C407 1.369 . S
C407 C406 1.369 . S
C407 C408 1.408 . S
C407 H434 0.930 . S
C408 C403 1.348 . S
C408 C407 1.408 . S
C408 H435 0.930 . S
C409 O422 1.281 . S
C409 O423 1.254 . S
C410 O424 1.236 . S
C410 O425 1.266 . S
C411 Tb401 2.809 . S
C411 C412 1.514 . S
C411 O426 1.248 . S
C411 O427 1.266 . S
C412 C411 1.514 . S
C412 C413 1.359 . S
C412 C417 1.348 . S
C413 C412 1.359 . S
C413 C414 1.380 . S
C413 H436 0.929 . S
C414 C413 1.380 . S
C414 C415 1.347 . S
C414 H437 0.931 . S
C415 C414 1.347 . S
C415 C416 1.369 . S
C416 C415 1.369 . S
C416 C417 1.408 . S
C416 H438 0.930 . S
C417 C412 1.348 . S
C417 C416 1.408 . S
C417 H439 0.930 . S
C418 O428 1.281 . S
C418 O429 1.254 . S
C419 O430 1.236 . S
C419 O431 1.266 . S
O420 Tb400 2.484 . S
O420 C402 1.248 . S
O421 Tb400 2.440 . S
O421 C402 1.266 . S
O422 Tb400 2.658 . S
O422 Tb401 2.325 . S
O422 C409 1.281 . S
O423 Tb400 2.409 . S
O423 C409 1.254 . S
O424 Tb400 2.378 . S
O424 C410 1.236 . S
O425 Tb401 2.341 . S
O425 C410 1.266 . S
O426 Tb401 2.484 . S
O426 C411 1.248 . S
O427 Tb401 2.440 . S
O427 C411 1.266 . S
O428 Tb400 2.325 . S
O428 Tb401 2.658 . S
O428 C418 1.281 . S
O429 Tb401 2.409 . S
O429 C418 1.254 . S
O430 Tb401 2.378 . S
O430 C419 1.236 . S
O431 Tb400 2.341 . S
O431 C419 1.266 . S
H432 C404 0.929 . S
H433 C405 0.931 . S
H434 C407 0.930 . S
H435 C408 0.930 . S
H436 C413 0.929 . S
H437 C414 0.931 . S
H438 C416 0.930 . S
H439 C417 0.930 . S
Tb440 C442 2.809 . S
Tb440 O460 2.484 . S
Tb440 O461 2.440 . S
Tb440 O462 2.658 . S
Tb440 O463 2.409 . S
Tb440 O464 2.378 . S
Tb440 O468 2.325 . S
Tb440 O471 2.341 . S
Tb441 C451 2.809 . S
Tb441 O462 2.325 . S
Tb441 O465 2.341 . S
Tb441 O466 2.484 . S
Tb441 O467 2.440 . S
Tb441 O468 2.658 . S
Tb441 O469 2.409 . S
Tb441 O470 2.378 . S
C442 Tb440 2.809 . S
C442 C443 1.514 . S
C442 O460 1.248 . S
C442 O461 1.266 . S
C443 C442 1.514 . S
C443 C444 1.359 . S
C443 C448 1.348 . S
C444 C443 1.359 . S
C444 C445 1.380 . S
C444 H472 0.929 . S
C445 C444 1.380 . S
C445 C446 1.347 . S
C445 H473 0.931 . S
C446 C445 1.347 . S
C446 C447 1.369 . S
C447 C446 1.369 . S
C447 C448 1.408 . S
C447 H474 0.930 . S
C448 C443 1.348 . S
C448 C447 1.408 . S
C448 H475 0.930 . S
C449 O462 1.281 . S
C449 O463 1.254 . S
C450 O464 1.236 . S
C450 O465 1.266 . S
C451 Tb441 2.809 . S
C451 C452 1.514 . S
C451 O466 1.248 . S
C451 O467 1.266 . S
C452 C451 1.514 . S
C452 C453 1.359 . S
C452 C457 1.348 . S
C453 C452 1.359 . S
C453 C454 1.380 . S
C453 H476 0.929 . S
C454 C453 1.380 . S
C454 C455 1.347 . S
C454 H477 0.931 . S
C455 C454 1.347 . S
C455 C456 1.369 . S
C456 C455 1.369 . S
C456 C457 1.408 . S
C456 H478 0.930 . S
C457 C452 1.348 . S
C457 C456 1.408 . S
C457 H479 0.930 . S
C458 O468 1.281 . S
C458 O469 1.254 . S
C459 O470 1.236 . S
C459 O471 1.266 . S
O460 Tb440 2.484 . S
O460 C442 1.248 . S
O461 Tb440 2.440 . S
O461 C442 1.266 . S
O462 Tb440 2.658 . S
O462 Tb441 2.325 . S
O462 C449 1.281 . S
O463 Tb440 2.409 . S
O463 C449 1.254 . S
O464 Tb440 2.378 . S
O464 C450 1.236 . S
O465 Tb441 2.341 . S
O465 C450 1.266 . S
O466 Tb441 2.484 . S
O466 C451 1.248 . S
O467 Tb441 2.440 . S
O467 C451 1.266 . S
O468 Tb440 2.325 . S
O468 Tb441 2.658 . S
O468 C458 1.281 . S
O469 Tb441 2.409 . S
O469 C458 1.254 . S
O470 Tb441 2.378 . S
O470 C459 1.236 . S
O471 Tb440 2.341 . S
O471 C459 1.266 . S
H472 C444 0.929 . S
H473 C445 0.931 . S
H474 C447 0.930 . S
H475 C448 0.930 . S
H476 C453 0.929 . S
H477 C454 0.931 . S
H478 C456 0.930 . S
H479 C457 0.930 . S
Tb480 C482 2.809 . S
Tb480 O500 2.484 . S
Tb480 O501 2.440 . S
Tb480 O502 2.658 . S
Tb480 O503 2.409 . S
Tb480 O504 2.378 . S
Tb480 O508 2.325 . S
Tb480 O511 2.341 . S
Tb481 C491 2.809 . S
Tb481 O502 2.325 . S
Tb481 O505 2.341 . S
Tb481 O506 2.484 . S
Tb481 O507 2.440 . S
Tb481 O508 2.658 . S
Tb481 O509 2.409 . S
Tb481 O510 2.378 . S
C482 Tb480 2.809 . S
C482 C483 1.514 . S
C482 O500 1.248 . S
C482 O501 1.266 . S
C483 C482 1.514 . S
C483 C484 1.359 1_554 S
C483 C488 1.348 1_554 S
C484 C483 1.359 1_556 S
C484 C485 1.380 . S
C484 H512 0.929 . S
C485 C484 1.380 . S
C485 C486 1.347 . S
C485 H513 0.931 . S
C486 C485 1.347 . S
C486 C487 1.369 . S
C487 C486 1.369 . S
C487 C488 1.408 . S
C487 H514 0.930 . S
C488 C483 1.348 1_556 S
C488 C487 1.408 . S
C488 H515 0.930 1_556 S
C489 O502 1.281 . S
C489 O503 1.254 . S
C490 O504 1.236 . S
C490 O505 1.266 . S
C491 Tb481 2.809 . S
C491 C492 1.514 . S
C491 O506 1.248 . S
C491 O507 1.266 . S
C492 C491 1.514 . S
C492 C493 1.359 . S
C492 C497 1.348 . S
C493 C492 1.359 . S
C493 C494 1.380 . S
C493 H516 0.929 . S
C494 C493 1.380 . S
C494 C495 1.347 . S
C494 H517 0.931 . S
C495 C494 1.347 . S
C495 C496 1.369 . S
C496 C495 1.369 . S
C496 C497 1.408 . S
C496 H518 0.930 . S
C497 C492 1.348 . S
C497 C496 1.408 . S
C497 H519 0.930 . S
C498 O508 1.281 . S
C498 O509 1.254 . S
C499 O510 1.236 . S
C499 O511 1.266 . S
O500 Tb480 2.484 . S
O500 C482 1.248 . S
O501 Tb480 2.440 . S
O501 C482 1.266 . S
O502 Tb480 2.658 . S
O502 Tb481 2.325 . S
O502 C489 1.281 . S
O503 Tb480 2.409 . S
O503 C489 1.254 . S
O504 Tb480 2.378 . S
O504 C490 1.236 . S
O505 Tb481 2.341 . S
O505 C490 1.266 . S
O506 Tb481 2.484 . S
O506 C491 1.248 . S
O507 Tb481 2.440 . S
O507 C491 1.266 . S
O508 Tb480 2.325 . S
O508 Tb481 2.658 . S
O508 C498 1.281 . S
O509 Tb481 2.409 . S
O509 C498 1.254 . S
O510 Tb481 2.378 . S
O510 C499 1.236 . S
O511 Tb480 2.341 . S
O511 C499 1.266 . S
H512 C484 0.929 . S
H513 C485 0.931 . S
H514 C487 0.930 . S
H515 C488 0.930 1_554 S
H516 C493 0.929 . S
H517 C494 0.931 . S
H518 C496 0.930 . S
H519 C497 0.930 . S
Tb520 C522 2.809 . S
Tb520 O540 2.484 . S
Tb520 O541 2.440 . S
Tb520 O542 2.658 . S
Tb520 O543 2.409 . S
Tb520 O544 2.378 . S
Tb520 O548 2.325 . S
Tb520 O551 2.341 . S
Tb521 C531 2.809 . S
Tb521 O542 2.325 . S
Tb521 O545 2.341 . S
Tb521 O546 2.484 . S
Tb521 O547 2.440 . S
Tb521 O548 2.658 . S
Tb521 O549 2.409 . S
Tb521 O550 2.378 . S
C522 Tb520 2.809 . S
C522 C523 1.514 . S
C522 O540 1.248 . S
C522 O541 1.266 . S
C523 C522 1.514 . S
C523 C524 1.359 1_554 S
C523 C528 1.348 1_554 S
C524 C523 1.359 1_556 S
C524 C525 1.380 . S
C524 H552 0.929 . S
C525 C524 1.380 . S
C525 C526 1.347 . S
C525 H553 0.931 . S
C526 C525 1.347 . S
C526 C527 1.369 . S
C527 C526 1.369 . S
C527 C528 1.408 . S
C527 H554 0.930 . S
C528 C523 1.348 1_556 S
C528 C527 1.408 . S
C528 H555 0.930 1_556 S
C529 O542 1.281 . S
C529 O543 1.254 . S
C530 O544 1.236 . S
C530 O545 1.266 . S
C531 Tb521 2.809 . S
C531 C532 1.514 . S
C531 O546 1.248 . S
C531 O547 1.266 . S
C532 C531 1.514 . S
C532 C533 1.359 . S
C532 C537 1.348 . S
C533 C532 1.359 . S
C533 C534 1.380 . S
C533 H556 0.929 . S
C534 C533 1.380 . S
C534 C535 1.347 . S
C534 H557 0.931 . S
C535 C534 1.347 . S
C535 C536 1.369 . S
C536 C535 1.369 . S
C536 C537 1.408 . S
C536 H558 0.930 . S
C537 C532 1.348 . S
C537 C536 1.408 . S
C537 H559 0.930 . S
C538 O548 1.281 . S
C538 O549 1.254 . S
C539 O550 1.236 . S
C539 O551 1.266 . S
O540 Tb520 2.484 . S
O540 C522 1.248 . S
O541 Tb520 2.440 . S
O541 C522 1.266 . S
O542 Tb520 2.658 . S
O542 Tb521 2.325 . S
O542 C529 1.281 . S
O543 Tb520 2.409 . S
O543 C529 1.254 . S
O544 Tb520 2.378 . S
O544 C530 1.236 . S
O545 Tb521 2.341 . S
O545 C530 1.266 . S
O546 Tb521 2.484 . S
O546 C531 1.248 . S
O547 Tb521 2.440 . S
O547 C531 1.266 . S
O548 Tb520 2.325 . S
O548 Tb521 2.658 . S
O548 C538 1.281 . S
O549 Tb521 2.409 . S
O549 C538 1.254 . S
O550 Tb521 2.378 . S
O550 C539 1.236 . S
O551 Tb520 2.341 . S
O551 C539 1.266 . S
H552 C524 0.929 . S
H553 C525 0.931 . S
H554 C527 0.930 . S
H555 C528 0.930 1_554 S
H556 C533 0.929 . S
H557 C534 0.931 . S
H558 C536 0.930 . S
H559 C537 0.930 . S
Tb560 C562 2.809 . S
Tb560 O580 2.484 . S
Tb560 O581 2.440 . S
Tb560 O582 2.658 . S
Tb560 O583 2.409 . S
Tb560 O584 2.378 . S
Tb560 O588 2.325 . S
Tb560 O591 2.341 . S
Tb561 C571 2.809 . S
Tb561 O582 2.325 . S
Tb561 O585 2.341 . S
Tb561 O586 2.484 . S
Tb561 O587 2.440 . S
Tb561 O588 2.658 . S
Tb561 O589 2.409 . S
Tb561 O590 2.378 . S
C562 Tb560 2.809 . S
C562 C563 1.514 . S
C562 O580 1.248 . S
C562 O581 1.266 . S
C563 C562 1.514 . S
C563 C564 1.359 . S
C563 C568 1.348 . S
C564 C563 1.359 . S
C564 C565 1.380 . S
C564 H592 0.929 . S
C565 C564 1.380 . S
C565 C566 1.347 . S
C565 H593 0.931 . S
C566 C565 1.347 . S
C566 C567 1.369 . S
C567 C566 1.369 . S
C567 C568 1.408 . S
C567 H594 0.930 . S
C568 C563 1.348 . S
C568 C567 1.408 . S
C568 H595 0.930 . S
C569 O582 1.281 . S
C569 O583 1.254 . S
C570 O584 1.236 . S
C570 O585 1.266 . S
C571 Tb561 2.809 . S
C571 C572 1.514 . S
C571 O586 1.248 . S
C571 O587 1.266 . S
C572 C571 1.514 . S
C572 C573 1.359 . S
C572 C577 1.348 . S
C573 C572 1.359 . S
C573 C574 1.380 . S
C573 H596 0.929 . S
C574 C573 1.380 . S
C574 C575 1.347 . S
C574 H597 0.931 . S
C575 C574 1.347 . S
C575 C576 1.369 . S
C576 C575 1.369 . S
C576 C577 1.408 . S
C576 H598 0.930 . S
C577 C572 1.348 . S
C577 C576 1.408 . S
C577 H599 0.930 . S
C578 O588 1.281 . S
C578 O589 1.254 . S
C579 O590 1.236 . S
C579 O591 1.266 . S
O580 Tb560 2.484 . S
O580 C562 1.248 . S
O581 Tb560 2.440 . S
O581 C562 1.266 . S
O582 Tb560 2.658 . S
O582 Tb561 2.325 . S
O582 C569 1.281 . S
O583 Tb560 2.409 . S
O583 C569 1.254 . S
O584 Tb560 2.378 . S
O584 C570 1.236 . S
O585 Tb561 2.341 . S
O585 C570 1.266 . S
O586 Tb561 2.484 . S
O586 C571 1.248 . S
O587 Tb561 2.440 . S
O587 C571 1.266 . S
O588 Tb560 2.325 . S
O588 Tb561 2.658 . S
O588 C578 1.281 . S
O589 Tb561 2.409 . S
O589 C578 1.254 . S
O590 Tb561 2.378 . S
O590 C579 1.236 . S
O591 Tb560 2.341 . S
O591 C579 1.266 . S
H592 C564 0.929 . S
H593 C565 0.931 . S
H594 C567 0.930 . S
H595 C568 0.930 . S
H596 C573 0.929 . S
H597 C574 0.931 . S
H598 C576 0.930 . S
H599 C577 0.930 . S
Tb600 C602 2.809 . S
Tb600 O620 2.484 . S
Tb600 O621 2.440 . S
Tb600 O622 2.658 . S
Tb600 O623 2.409 . S
Tb600 O624 2.378 . S
Tb600 O628 2.325 . S
Tb600 O631 2.341 . S
Tb601 C611 2.809 . S
Tb601 O622 2.325 . S
Tb601 O625 2.341 . S
Tb601 O626 2.484 . S
Tb601 O627 2.440 . S
Tb601 O628 2.658 . S
Tb601 O629 2.409 . S
Tb601 O630 2.378 . S
C602 Tb600 2.809 . S
C602 C603 1.514 . S
C602 O620 1.248 . S
C602 O621 1.266 . S
C603 C602 1.514 . S
C603 C604 1.359 . S
C603 C608 1.348 . S
C604 C603 1.359 . S
C604 C605 1.380 . S
C604 H632 0.929 . S
C605 C604 1.380 . S
C605 C606 1.347 . S
C605 H633 0.931 . S
C606 C605 1.347 . S
C606 C607 1.369 . S
C607 C606 1.369 . S
C607 C608 1.408 . S
C607 H634 0.930 . S
C608 C603 1.348 . S
C608 C607 1.408 . S
C608 H635 0.930 . S
C609 O622 1.281 . S
C609 O623 1.254 . S
C610 O624 1.236 . S
C610 O625 1.266 . S
C611 Tb601 2.809 . S
C611 C612 1.514 . S
C611 O626 1.248 . S
C611 O627 1.266 . S
C612 C611 1.514 . S
C612 C613 1.359 . S
C612 C617 1.348 . S
C613 C612 1.359 . S
C613 C614 1.380 . S
C613 H636 0.929 . S
C614 C613 1.380 . S
C614 C615 1.347 . S
C614 H637 0.931 . S
C615 C614 1.347 . S
C615 C616 1.369 . S
C616 C615 1.369 . S
C616 C617 1.408 . S
C616 H638 0.930 . S
C617 C612 1.348 . S
C617 C616 1.408 . S
C617 H639 0.930 . S
C618 O628 1.281 . S
C618 O629 1.254 . S
C619 O630 1.236 . S
C619 O631 1.266 . S
O620 Tb600 2.484 . S
O620 C602 1.248 . S
O621 Tb600 2.440 . S
O621 C602 1.266 . S
O622 Tb600 2.658 . S
O622 Tb601 2.325 . S
O622 C609 1.281 . S
O623 Tb600 2.409 . S
O623 C609 1.254 . S
O624 Tb600 2.378 . S
O624 C610 1.236 . S
O625 Tb601 2.341 . S
O625 C610 1.266 . S
O626 Tb601 2.484 . S
O626 C611 1.248 . S
O627 Tb601 2.440 . S
O627 C611 1.266 . S
O628 Tb600 2.325 . S
O628 Tb601 2.658 . S
O628 C618 1.281 . S
O629 Tb601 2.409 . S
O629 C618 1.254 . S
O630 Tb601 2.378 . S
O630 C619 1.236 . S
O631 Tb600 2.341 . S
O631 C619 1.266 . S
H632 C604 0.929 . S
H633 C605 0.931 . S
H634 C607 0.930 . S
H635 C608 0.930 . S
H636 C613 0.929 . S
H637 C614 0.931 . S
H638 C616 0.930 . S
H639 C617 0.930 . S
Tb640 C642 2.809 . S
Tb640 O660 2.484 . S
Tb640 O661 2.440 . S
Tb640 O662 2.658 . S
Tb640 O663 2.409 . S
Tb640 O664 2.378 . S
Tb640 O668 2.325 . S
Tb640 O671 2.341 . S
Tb641 C651 2.809 . S
Tb641 O662 2.325 . S
Tb641 O665 2.341 . S
Tb641 O666 2.484 . S
Tb641 O667 2.440 . S
Tb641 O668 2.658 . S
Tb641 O669 2.409 . S
Tb641 O670 2.378 . S
C642 Tb640 2.809 . S
C642 C643 1.514 . S
C642 O660 1.248 . S
C642 O661 1.266 . S
C643 C642 1.514 . S
C643 C644 1.359 . S
C643 C648 1.348 . S
C644 C643 1.359 . S
C644 C645 1.380 . S
C644 H672 0.929 . S
C645 C644 1.380 . S
C645 C646 1.347 . S
C645 H673 0.931 . S
C646 C645 1.347 . S
C646 C647 1.369 . S
C647 C646 1.369 . S
C647 C648 1.408 . S
C647 H674 0.930 . S
C648 C643 1.348 . S
C648 C647 1.408 . S
C648 H675 0.930 . S
C649 O662 1.281 . S
C649 O663 1.254 . S
C650 O664 1.236 . S
C650 O665 1.266 . S
C651 Tb641 2.809 . S
C651 C652 1.514 . S
C651 O666 1.248 . S
C651 O667 1.266 . S
C652 C651 1.514 . S
C652 C653 1.359 1_556 S
C652 C657 1.348 1_556 S
C653 C652 1.359 1_554 S
C653 C654 1.380 . S
C653 H676 0.929 . S
C654 C653 1.380 . S
C654 C655 1.347 . S
C654 H677 0.931 . S
C655 C654 1.347 . S
C655 C656 1.369 . S
C656 C655 1.369 . S
C656 C657 1.408 . S
C656 H678 0.930 . S
C657 C652 1.348 1_554 S
C657 C656 1.408 . S
C657 H679 0.930 1_554 S
C658 O668 1.281 . S
C658 O669 1.254 . S
C659 O670 1.236 . S
C659 O671 1.266 . S
O660 Tb640 2.484 . S
O660 C642 1.248 . S
O661 Tb640 2.440 . S
O661 C642 1.266 . S
O662 Tb640 2.658 . S
O662 Tb641 2.325 . S
O662 C649 1.281 . S
O663 Tb640 2.409 . S
O663 C649 1.254 . S
O664 Tb640 2.378 . S
O664 C650 1.236 . S
O665 Tb641 2.341 . S
O665 C650 1.266 . S
O666 Tb641 2.484 . S
O666 C651 1.248 . S
O667 Tb641 2.440 . S
O667 C651 1.266 . S
O668 Tb640 2.325 . S
O668 Tb641 2.658 . S
O668 C658 1.281 . S
O669 Tb641 2.409 . S
O669 C658 1.254 . S
O670 Tb641 2.378 . S
O670 C659 1.236 . S
O671 Tb640 2.341 . S
O671 C659 1.266 . S
H672 C644 0.929 . S
H673 C645 0.931 . S
H674 C647 0.930 . S
H675 C648 0.930 . S
H676 C653 0.929 . S
H677 C654 0.931 . S
H678 C656 0.930 . S
H679 C657 0.930 1_556 S
Tb680 C682 2.809 . S
Tb680 O700 2.484 1_565 S
Tb680 O701 2.440 . S
Tb680 O702 2.658 . S
Tb680 O703 2.409 . S
Tb680 O704 2.378 . S
Tb680 O708 2.325 1_565 S
Tb680 O711 2.341 . S
Tb681 C691 2.809 . S
Tb681 O702 2.325 1_545 S
Tb681 O705 2.341 . S
Tb681 O706 2.484 1_545 S
Tb681 O707 2.440 . S
Tb681 O708 2.658 . S
Tb681 O709 2.409 . S
Tb681 O710 2.378 . S
C682 Tb680 2.809 . S
C682 C683 1.514 . S
C682 O700 1.248 1_565 S
C682 O701 1.266 . S
C683 C682 1.514 . S
C683 C684 1.359 . S
C683 C688 1.348 . S
C684 C683 1.359 . S
C684 C685 1.380 . S
C684 H712 0.929 1_565 S
C685 C684 1.380 . S
C685 C686 1.347 . S
C685 H713 0.931 1_565 S
C686 C685 1.347 . S
C686 C687 1.369 . S
C687 C686 1.369 . S
C687 C688 1.408 . S
C687 H714 0.930 . S
C688 C683 1.348 . S
C688 C687 1.408 . S
C688 H715 0.930 . S
C689 O702 1.281 . S
C689 O703 1.254 . S
C690 O704 1.236 . S
C690 O705 1.266 1_565 S
C691 Tb681 2.809 . S
C691 C692 1.514 . S
C691 O706 1.248 1_545 S
C691 O707 1.266 . S
C692 C691 1.514 . S
C692 C693 1.359 1_556 S
C692 C697 1.348 1_556 S
C693 C692 1.359 1_554 S
C693 C694 1.380 . S
C693 H716 0.929 1_545 S
C694 C693 1.380 . S
C694 C695 1.347 . S
C694 H717 0.931 1_545 S
C695 C694 1.347 . S
C695 C696 1.369 . S
C696 C695 1.369 . S
C696 C697 1.408 . S
C696 H718 0.930 . S
C697 C692 1.348 1_554 S
C697 C696 1.408 . S
C697 H719 0.930 1_554 S
C698 O708 1.281 . S
C698 O709 1.254 . S
C699 O710 1.236 . S
C699 O711 1.266 1_545 S
O700 Tb680 2.484 1_545 S
O700 C682 1.248 1_545 S
O701 Tb680 2.440 . S
O701 C682 1.266 . S
O702 Tb680 2.658 . S
O702 Tb681 2.325 1_565 S
O702 C689 1.281 . S
O703 Tb680 2.409 . S
O703 C689 1.254 . S
O704 Tb680 2.378 . S
O704 C690 1.236 . S
O705 Tb681 2.341 . S
O705 C690 1.266 1_545 S
O706 Tb681 2.484 1_565 S
O706 C691 1.248 1_565 S
O707 Tb681 2.440 . S
O707 C691 1.266 . S
O708 Tb680 2.325 1_545 S
O708 Tb681 2.658 . S
O708 C698 1.281 . S
O709 Tb681 2.409 . S
O709 C698 1.254 . S
O710 Tb681 2.378 . S
O710 C699 1.236 . S
O711 Tb680 2.341 . S
O711 C699 1.266 1_565 S
H712 C684 0.929 1_545 S
H713 C685 0.931 1_545 S
H714 C687 0.930 . S
H715 C688 0.930 . S
H716 C693 0.929 1_565 S
H717 C694 0.931 1_565 S
H718 C696 0.930 . S
H719 C697 0.930 1_556 S
Tb720 C722 2.809 . S
Tb720 O740 2.484 1_565 S
Tb720 O741 2.440 . S
Tb720 O742 2.658 . S
Tb720 O743 2.409 . S
Tb720 O744 2.378 . S
Tb720 O748 2.325 1_565 S
Tb720 O751 2.341 . S
Tb721 C731 2.809 . S
Tb721 O742 2.325 1_545 S
Tb721 O745 2.341 . S
Tb721 O746 2.484 1_545 S
Tb721 O747 2.440 . S
Tb721 O748 2.658 . S
Tb721 O749 2.409 . S
Tb721 O750 2.378 . S
C722 Tb720 2.809 . S
C722 C723 1.514 . S
C722 O740 1.248 1_565 S
C722 O741 1.266 . S
C723 C722 1.514 . S
C723 C724 1.359 . S
C723 C728 1.348 . S
C724 C723 1.359 . S
C724 C725 1.380 . S
C724 H752 0.929 1_565 S
C725 C724 1.380 . S
C725 C726 1.347 . S
C725 H753 0.931 1_565 S
C726 C725 1.347 . S
C726 C727 1.369 . S
C727 C726 1.369 . S
C727 C728 1.408 . S
C727 H754 0.930 . S
C728 C723 1.348 . S
C728 C727 1.408 . S
C728 H755 0.930 . S
C729 O742 1.281 . S
C729 O743 1.254 . S
C730 O744 1.236 . S
C730 O745 1.266 1_565 S
C731 Tb721 2.809 . S
C731 C732 1.514 . S
C731 O746 1.248 1_545 S
C731 O747 1.266 . S
C732 C731 1.514 . S
C732 C733 1.359 . S
C732 C737 1.348 . S
C733 C732 1.359 . S
C733 C734 1.380 . S
C733 H756 0.929 1_545 S
C734 C733 1.380 . S
C734 C735 1.347 . S
C734 H757 0.931 1_545 S
C735 C734 1.347 . S
C735 C736 1.369 . S
C736 C735 1.369 . S
C736 C737 1.408 . S
C736 H758 0.930 . S
C737 C732 1.348 . S
C737 C736 1.408 . S
C737 H759 0.930 . S
C738 O748 1.281 . S
C738 O749 1.254 . S
C739 O750 1.236 . S
C739 O751 1.266 1_545 S
O740 Tb720 2.484 1_545 S
O740 C722 1.248 1_545 S
O741 Tb720 2.440 . S
O741 C722 1.266 . S
O742 Tb720 2.658 . S
O742 Tb721 2.325 1_565 S
O742 C729 1.281 . S
O743 Tb720 2.409 . S
O743 C729 1.254 . S
O744 Tb720 2.378 . S
O744 C730 1.236 . S
O745 Tb721 2.341 . S
O745 C730 1.266 1_545 S
O746 Tb721 2.484 1_565 S
O746 C731 1.248 1_565 S
O747 Tb721 2.440 . S
O747 C731 1.266 . S
O748 Tb720 2.325 1_545 S
O748 Tb721 2.658 . S
O748 C738 1.281 . S
O749 Tb721 2.409 . S
O749 C738 1.254 . S
O750 Tb721 2.378 . S
O750 C739 1.236 . S
O751 Tb720 2.341 . S
O751 C739 1.266 1_565 S
H752 C724 0.929 1_545 S
H753 C725 0.931 1_545 S
H754 C727 0.930 . S
H755 C728 0.930 . S
H756 C733 0.929 1_565 S
H757 C734 0.931 1_565 S
H758 C736 0.930 . S
H759 C737 0.930 . S
Tb760 C762 2.809 . S
Tb760 O780 2.484 . S
Tb760 O781 2.440 . S
Tb760 O782 2.658 . S
Tb760 O783 2.409 . S
Tb760 O784 2.378 . S
Tb760 O788 2.325 . S
Tb760 O791 2.341 . S
Tb761 C771 2.809 . S
Tb761 O782 2.325 . S
Tb761 O785 2.341 . S
Tb761 O786 2.484 . S
Tb761 O787 2.440 . S
Tb761 O788 2.658 . S
Tb761 O789 2.409 . S
Tb761 O790 2.378 . S
C762 Tb760 2.809 . S
C762 C763 1.514 . S
C762 O780 1.248 . S
C762 O781 1.266 . S
C763 C762 1.514 . S
C763 C764 1.359 . S
C763 C768 1.348 . S
C764 C763 1.359 . S
C764 C765 1.380 . S
C764 H792 0.929 . S
C765 C764 1.380 . S
C765 C766 1.347 . S
C765 H793 0.931 . S
C766 C765 1.347 . S
C766 C767 1.369 . S
C767 C766 1.369 . S
C767 C768 1.408 . S
C767 H794 0.930 . S
C768 C763 1.348 . S
C768 C767 1.408 . S
C768 H795 0.930 . S
C769 O782 1.281 . S
C769 O783 1.254 . S
C770 O784 1.236 . S
C770 O785 1.266 . S
C771 Tb761 2.809 . S
C771 C772 1.514 . S
C771 O786 1.248 . S
C771 O787 1.266 . S
C772 C771 1.514 . S
C772 C773 1.359 . S
C772 C777 1.348 . S
C773 C772 1.359 . S
C773 C774 1.380 . S
C773 H796 0.929 . S
C774 C773 1.380 . S
C774 C775 1.347 . S
C774 H797 0.931 . S
C775 C774 1.347 . S
C775 C776 1.369 . S
C776 C775 1.369 . S
C776 C777 1.408 . S
C776 H798 0.930 . S
C777 C772 1.348 . S
C777 C776 1.408 . S
C777 H799 0.930 . S
C778 O788 1.281 . S
C778 O789 1.254 . S
C779 O790 1.236 . S
C779 O791 1.266 . S
O780 Tb760 2.484 . S
O780 C762 1.248 . S
O781 Tb760 2.440 . S
O781 C762 1.266 . S
O782 Tb760 2.658 . S
O782 Tb761 2.325 . S
O782 C769 1.281 . S
O783 Tb760 2.409 . S
O783 C769 1.254 . S
O784 Tb760 2.378 . S
O784 C770 1.236 . S
O785 Tb761 2.341 . S
O785 C770 1.266 . S
O786 Tb761 2.484 . S
O786 C771 1.248 . S
O787 Tb761 2.440 . S
O787 C771 1.266 . S
O788 Tb760 2.325 . S
O788 Tb761 2.658 . S
O788 C778 1.281 . S
O789 Tb761 2.409 . S
O789 C778 1.254 . S
O790 Tb761 2.378 . S
O790 C779 1.236 . S
O791 Tb760 2.341 . S
O791 C779 1.266 . S
H792 C764 0.929 . S
H793 C765 0.931 . S
H794 C767 0.930 . S
H795 C768 0.930 . S
H796 C773 0.929 . S
H797 C774 0.931 . S
H798 C776 0.930 . S
H799 C777 0.930 . S
Tb800 C802 2.809 . S
Tb800 O820 2.484 . S
Tb800 O821 2.440 . S
Tb800 O822 2.658 . S
Tb800 O823 2.409 . S
Tb800 O824 2.378 . S
Tb800 O828 2.325 . S
Tb800 O831 2.341 . S
Tb801 C811 2.809 . S
Tb801 O822 2.325 . S
Tb801 O825 2.341 . S
Tb801 O826 2.484 . S
Tb801 O827 2.440 . S
Tb801 O828 2.658 . S
Tb801 O829 2.409 . S
Tb801 O830 2.378 . S
C802 Tb800 2.809 . S
C802 C803 1.514 . S
C802 O820 1.248 . S
C802 O821 1.266 . S
C803 C802 1.514 . S
C803 C804 1.359 1_554 S
C803 C808 1.348 1_554 S
C804 C803 1.359 1_556 S
C804 C805 1.380 . S
C804 H832 0.929 . S
C805 C804 1.380 . S
C805 C806 1.347 . S
C805 H833 0.931 . S
C806 C805 1.347 . S
C806 C807 1.369 . S
C807 C806 1.369 . S
C807 C808 1.408 . S
C807 H834 0.930 . S
C808 C803 1.348 1_556 S
C808 C807 1.408 . S
C808 H835 0.930 1_556 S
C809 O822 1.281 . S
C809 O823 1.254 . S
C810 O824 1.236 . S
C810 O825 1.266 . S
C811 Tb801 2.809 . S
C811 C812 1.514 . S
C811 O826 1.248 . S
C811 O827 1.266 . S
C812 C811 1.514 . S
C812 C813 1.359 . S
C812 C817 1.348 . S
C813 C812 1.359 . S
C813 C814 1.380 . S
C813 H836 0.929 . S
C814 C813 1.380 . S
C814 C815 1.347 . S
C814 H837 0.931 . S
C815 C814 1.347 . S
C815 C816 1.369 . S
C816 C815 1.369 . S
C816 C817 1.408 . S
C816 H838 0.930 . S
C817 C812 1.348 . S
C817 C816 1.408 . S
C817 H839 0.930 . S
C818 O828 1.281 . S
C818 O829 1.254 . S
C819 O830 1.236 . S
C819 O831 1.266 . S
O820 Tb800 2.484 . S
O820 C802 1.248 . S
O821 Tb800 2.440 . S
O821 C802 1.266 . S
O822 Tb800 2.658 . S
O822 Tb801 2.325 . S
O822 C809 1.281 . S
O823 Tb800 2.409 . S
O823 C809 1.254 . S
O824 Tb800 2.378 . S
O824 C810 1.236 . S
O825 Tb801 2.341 . S
O825 C810 1.266 . S
O826 Tb801 2.484 . S
O826 C811 1.248 . S
O827 Tb801 2.440 . S
O827 C811 1.266 . S
O828 Tb800 2.325 . S
O828 Tb801 2.658 . S
O828 C818 1.281 . S
O829 Tb801 2.409 . S
O829 C818 1.254 . S
O830 Tb801 2.378 . S
O830 C819 1.236 . S
O831 Tb800 2.341 . S
O831 C819 1.266 . S
H832 C804 0.929 . S
H833 C805 0.931 . S
H834 C807 0.930 . S
H835 C808 0.930 1_554 S
H836 C813 0.929 . S
H837 C814 0.931 . S
H838 C816 0.930 . S
H839 C817 0.930 . S
Tb840 C842 2.809 . S
Tb840 O860 2.484 1_565 S
Tb840 O861 2.440 . S
Tb840 O862 2.658 . S
Tb840 O863 2.409 . S
Tb840 O864 2.378 . S
Tb840 O868 2.325 1_565 S
Tb840 O871 2.341 . S
Tb841 C851 2.809 . S
Tb841 O862 2.325 1_545 S
Tb841 O865 2.341 . S
Tb841 O866 2.484 1_545 S
Tb841 O867 2.440 . S
Tb841 O868 2.658 . S
Tb841 O869 2.409 . S
Tb841 O870 2.378 . S
C842 Tb840 2.809 . S
C842 C843 1.514 . S
C842 O860 1.248 1_565 S
C842 O861 1.266 . S
C843 C842 1.514 . S
C843 C844 1.359 1_554 S
C843 C848 1.348 1_554 S
C844 C843 1.359 1_556 S
C844 C845 1.380 . S
C844 H872 0.929 1_565 S
C845 C844 1.380 . S
C845 C846 1.347 . S
C845 H873 0.931 1_565 S
C846 C845 1.347 . S
C846 C847 1.369 . S
C847 C846 1.369 . S
C847 C848 1.408 . S
C847 H874 0.930 . S
C848 C843 1.348 1_556 S
C848 C847 1.408 . S
C848 H875 0.930 1_556 S
C849 O862 1.281 . S
C849 O863 1.254 . S
C850 O864 1.236 . S
C850 O865 1.266 1_565 S
C851 Tb841 2.809 . S
C851 C852 1.514 . S
C851 O866 1.248 1_545 S
C851 O867 1.266 . S
C852 C851 1.514 . S
C852 C853 1.359 . S
C852 C857 1.348 . S
C853 C852 1.359 . S
C853 C854 1.380 . S
C853 H876 0.929 1_545 S
C854 C853 1.380 . S
C854 C855 1.347 . S
C854 H877 0.931 1_545 S
C855 C854 1.347 . S
C855 C856 1.369 . S
C856 C855 1.369 . S
C856 C857 1.408 . S
C856 H878 0.930 . S
C857 C852 1.348 . S
C857 C856 1.408 . S
C857 H879 0.930 . S
C858 O868 1.281 . S
C858 O869 1.254 . S
C859 O870 1.236 . S
C859 O871 1.266 1_545 S
O860 Tb840 2.484 1_545 S
O860 C842 1.248 1_545 S
O861 Tb840 2.440 . S
O861 C842 1.266 . S
O862 Tb840 2.658 . S
O862 Tb841 2.325 1_565 S
O862 C849 1.281 . S
O863 Tb840 2.409 . S
O863 C849 1.254 . S
O864 Tb840 2.378 . S
O864 C850 1.236 . S
O865 Tb841 2.341 . S
O865 C850 1.266 1_545 S
O866 Tb841 2.484 1_565 S
O866 C851 1.248 1_565 S
O867 Tb841 2.440 . S
O867 C851 1.266 . S
O868 Tb840 2.325 1_545 S
O868 Tb841 2.658 . S
O868 C858 1.281 . S
O869 Tb841 2.409 . S
O869 C858 1.254 . S
O870 Tb841 2.378 . S
O870 C859 1.236 . S
O871 Tb840 2.341 . S
O871 C859 1.266 1_565 S
H872 C844 0.929 1_545 S
H873 C845 0.931 1_545 S
H874 C847 0.930 . S
H875 C848 0.930 1_554 S
H876 C853 0.929 1_565 S
H877 C854 0.931 1_565 S
H878 C856 0.930 . S
H879 C857 0.930 . S
Tb880 C882 2.809 . S
Tb880 O900 2.484 1_565 S
Tb880 O901 2.440 . S
Tb880 O902 2.658 . S
Tb880 O903 2.409 . S
Tb880 O904 2.378 . S
Tb880 O908 2.325 1_565 S
Tb880 O911 2.341 . S
Tb881 C891 2.809 . S
Tb881 O902 2.325 1_545 S
Tb881 O905 2.341 . S
Tb881 O906 2.484 1_545 S
Tb881 O907 2.440 . S
Tb881 O908 2.658 . S
Tb881 O909 2.409 . S
Tb881 O910 2.378 . S
C882 Tb880 2.809 . S
C882 C883 1.514 . S
C882 O900 1.248 1_565 S
C882 O901 1.266 . S
C883 C882 1.514 . S
C883 C884 1.359 . S
C883 C888 1.348 . S
C884 C883 1.359 . S
C884 C885 1.380 . S
C884 H912 0.929 1_565 S
C885 C884 1.380 . S
C885 C886 1.347 . S
C885 H913 0.931 1_565 S
C886 C885 1.347 . S
C886 C887 1.369 . S
C887 C886 1.369 . S
C887 C888 1.408 . S
C887 H914 0.930 . S
C888 C883 1.348 . S
C888 C887 1.408 . S
C888 H915 0.930 . S
C889 O902 1.281 . S
C889 O903 1.254 . S
C890 O904 1.236 . S
C890 O905 1.266 1_565 S
C891 Tb881 2.809 . S
C891 C892 1.514 . S
C891 O906 1.248 1_545 S
C891 O907 1.266 . S
C892 C891 1.514 . S
C892 C893 1.359 . S
C892 C897 1.348 . S
C893 C892 1.359 . S
C893 C894 1.380 . S
C893 H916 0.929 1_545 S
C894 C893 1.380 . S
C894 C895 1.347 . S
C894 H917 0.931 1_545 S
C895 C894 1.347 . S
C895 C896 1.369 . S
C896 C895 1.369 . S
C896 C897 1.408 . S
C896 H918 0.930 . S
C897 C892 1.348 . S
C897 C896 1.408 . S
C897 H919 0.930 . S
C898 O908 1.281 . S
C898 O909 1.254 . S
C899 O910 1.236 . S
C899 O911 1.266 1_545 S
O900 Tb880 2.484 1_545 S
O900 C882 1.248 1_545 S
O901 Tb880 2.440 . S
O901 C882 1.266 . S
O902 Tb880 2.658 . S
O902 Tb881 2.325 1_565 S
O902 C889 1.281 . S
O903 Tb880 2.409 . S
O903 C889 1.254 . S
O904 Tb880 2.378 . S
O904 C890 1.236 . S
O905 Tb881 2.341 . S
O905 C890 1.266 1_545 S
O906 Tb881 2.484 1_565 S
O906 C891 1.248 1_565 S
O907 Tb881 2.440 . S
O907 C891 1.266 . S
O908 Tb880 2.325 1_545 S
O908 Tb881 2.658 . S
O908 C898 1.281 . S
O909 Tb881 2.409 . S
O909 C898 1.254 . S
O910 Tb881 2.378 . S
O910 C899 1.236 . S
O911 Tb880 2.341 . S
O911 C899 1.266 1_565 S
H912 C884 0.929 1_545 S
H913 C885 0.931 1_545 S
H914 C887 0.930 . S
H915 C888 0.930 . S
H916 C893 0.929 1_565 S
H917 C894 0.931 1_565 S
H918 C896 0.930 . S
H919 C897 0.930 . S
Tb920 C922 2.809 . S
Tb920 O940 2.484 . S
Tb920 O941 2.440 . S
Tb920 O942 2.658 . S
Tb920 O943 2.409 . S
Tb920 O944 2.378 . S
Tb920 O948 2.325 . S
Tb920 O951 2.341 . S
Tb921 C931 2.809 . S
Tb921 O942 2.325 . S
Tb921 O945 2.341 . S
Tb921 O946 2.484 . S
Tb921 O947 2.440 . S
Tb921 O948 2.658 . S
Tb921 O949 2.409 . S
Tb921 O950 2.378 . S
C922 Tb920 2.809 . S
C922 C923 1.514 . S
C922 O940 1.248 . S
C922 O941 1.266 . S
C923 C922 1.514 . S
C923 C924 1.359 . S
C923 C928 1.348 . S
C924 C923 1.359 . S
C924 C925 1.380 . S
C924 H952 0.929 . S
C925 C924 1.380 . S
C925 C926 1.347 . S
C925 H953 0.931 . S
C926 C925 1.347 . S
C926 C927 1.369 . S
C927 C926 1.369 . S
C927 C928 1.408 . S
C927 H954 0.930 . S
C928 C923 1.348 . S
C928 C927 1.408 . S
C928 H955 0.930 . S
C929 O942 1.281 . S
C929 O943 1.254 . S
C930 O944 1.236 . S
C930 O945 1.266 . S
C931 Tb921 2.809 . S
C931 C932 1.514 . S
C931 O946 1.248 . S
C931 O947 1.266 . S
C932 C931 1.514 . S
C932 C933 1.359 . S
C932 C937 1.348 . S
C933 C932 1.359 . S
C933 C934 1.380 . S
C933 H956 0.929 . S
C934 C933 1.380 . S
C934 C935 1.347 . S
C934 H957 0.931 . S
C935 C934 1.347 . S
C935 C936 1.369 . S
C936 C935 1.369 . S
C936 C937 1.408 . S
C936 H958 0.930 . S
C937 C932 1.348 . S
C937 C936 1.408 . S
C937 H959 0.930 . S
C938 O948 1.281 . S
C938 O949 1.254 . S
C939 O950 1.236 . S
C939 O951 1.266 . S
O940 Tb920 2.484 . S
O940 C922 1.248 . S
O941 Tb920 2.440 . S
O941 C922 1.266 . S
O942 Tb920 2.658 . S
O942 Tb921 2.325 . S
O942 C929 1.281 . S
O943 Tb920 2.409 . S
O943 C929 1.254 . S
O944 Tb920 2.378 . S
O944 C930 1.236 . S
O945 Tb921 2.341 . S
O945 C930 1.266 . S
O946 Tb921 2.484 . S
O946 C931 1.248 . S
O947 Tb921 2.440 . S
O947 C931 1.266 . S
O948 Tb920 2.325 . S
O948 Tb921 2.658 . S
O948 C938 1.281 . S
O949 Tb921 2.409 . S
O949 C938 1.254 . S
O950 Tb921 2.378 . S
O950 C939 1.236 . S
O951 Tb920 2.341 . S
O951 C939 1.266 . S
H952 C924 0.929 . S
H953 C925 0.931 . S
H954 C927 0.930 . S
H955 C928 0.930 . S
H956 C933 0.929 . S
H957 C934 0.931 . S
H958 C936 0.930 . S
H959 C937 0.930 . S
Tb960 C962 2.809 . S
Tb960 O980 2.484 . S
Tb960 O981 2.440 . S
Tb960 O982 2.658 . S
Tb960 O983 2.409 . S
Tb960 O984 2.378 . S
Tb960 O988 2.325 . S
Tb960 O991 2.341 . S
Tb961 C971 2.809 . S
Tb961 O982 2.325 . S
Tb961 O985 2.341 . S
Tb961 O986 2.484 . S
Tb961 O987 2.440 . S
Tb961 O988 2.658 . S
Tb961 O989 2.409 . S
Tb961 O990 2.378 . S
C962 Tb960 2.809 . S
C962 C963 1.514 1_554 S
C962 O980 1.248 . S
C962 O981 1.266 . S
C963 C962 1.514 1_556 S
C963 C964 1.359 . S
C963 C968 1.348 . S
C964 C963 1.359 . S
C964 C965 1.380 . S
C964 H992 0.929 . S
C965 C964 1.380 . S
C965 C966 1.347 . S
C965 H993 0.931 . S
C966 C965 1.347 . S
C966 C967 1.369 . S
C967 C966 1.369 . S
C967 C968 1.408 . S
C967 H994 0.930 . S
C968 C963 1.348 . S
C968 C967 1.408 . S
C968 H995 0.930 . S
C969 O982 1.281 . S
C969 O983 1.254 . S
C970 O984 1.236 . S
C970 O985 1.266 . S
C971 Tb961 2.809 . S
C971 C972 1.514 . S
C971 O986 1.248 . S
C971 O987 1.266 . S
C972 C971 1.514 . S
C972 C973 1.359 . S
C972 C977 1.348 . S
C973 C972 1.359 . S
C973 C974 1.380 . S
C973 H996 0.929 . S
C974 C973 1.380 . S
C974 C975 1.347 . S
C974 H997 0.931 . S
C975 C974 1.347 . S
C975 C976 1.369 . S
C976 C975 1.369 . S
C976 C977 1.408 . S
C976 H998 0.930 . S
C977 C972 1.348 . S
C977 C976 1.408 . S
C977 H999 0.930 . S
C978 O988 1.281 . S
C978 O989 1.254 . S
C979 O990 1.236 . S
C979 O991 1.266 . S
O980 Tb960 2.484 . S
O980 C962 1.248 . S
O981 Tb960 2.440 . S
O981 C962 1.266 . S
O982 Tb960 2.658 . S
O982 Tb961 2.325 . S
O982 C969 1.281 . S
O983 Tb960 2.409 . S
O983 C969 1.254 . S
O984 Tb960 2.378 . S
O984 C970 1.236 . S
O985 Tb961 2.341 . S
O985 C970 1.266 . S
O986 Tb961 2.484 . S
O986 C971 1.248 . S
O987 Tb961 2.440 . S
O987 C971 1.266 . S
O988 Tb960 2.325 . S
O988 Tb961 2.658 . S
O988 C978 1.281 . S
O989 Tb961 2.409 . S
O989 C978 1.254 . S
O990 Tb961 2.378 . S
O990 C979 1.236 . S
O991 Tb960 2.341 . S
O991 C979 1.266 . S
H992 C964 0.929 . S
H993 C965 0.931 . S
H994 C967 0.930 . S
H995 C968 0.930 . S
H996 C973 0.929 . S
H997 C974 0.931 . S
H998 C976 0.930 . S
H999 C977 0.930 . S
Tb1000 C1002 2.809 . S
Tb1000 O1020 2.484 . S
Tb1000 O1021 2.440 . S
Tb1000 O1022 2.658 . S
Tb1000 O1023 2.409 . S
Tb1000 O1024 2.378 . S
Tb1000 O1028 2.325 . S
Tb1000 O1031 2.341 . S
Tb1001 C1011 2.809 . S
Tb1001 O1022 2.325 . S
Tb1001 O1025 2.341 . S
Tb1001 O1026 2.484 . S
Tb1001 O1027 2.440 . S
Tb1001 O1028 2.658 . S
Tb1001 O1029 2.409 . S
Tb1001 O1030 2.378 . S
C1002 Tb1000 2.809 . S
C1002 C1003 1.514 1_554 S
C1002 O1020 1.248 . S
C1002 O1021 1.266 . S
C1003 C1002 1.514 1_556 S
C1003 C1004 1.359 . S
C1003 C1008 1.348 . S
C1004 C1003 1.359 . S
C1004 C1005 1.380 . S
C1004 H1032 0.929 . S
C1005 C1004 1.380 . S
C1005 C1006 1.347 . S
C1005 H1033 0.931 . S
C1006 C1005 1.347 . S
C1006 C1007 1.369 . S
C1007 C1006 1.369 . S
C1007 C1008 1.408 . S
C1007 H1034 0.930 . S
C1008 C1003 1.348 . S
C1008 C1007 1.408 . S
C1008 H1035 0.930 . S
C1009 O1022 1.281 . S
C1009 O1023 1.254 . S
C1010 O1024 1.236 . S
C1010 O1025 1.266 . S
C1011 Tb1001 2.809 . S
C1011 C1012 1.514 . S
C1011 O1026 1.248 . S
C1011 O1027 1.266 . S
C1012 C1011 1.514 . S
C1012 C1013 1.359 . S
C1012 C1017 1.348 . S
C1013 C1012 1.359 . S
C1013 C1014 1.380 . S
C1013 H1036 0.929 . S
C1014 C1013 1.380 . S
C1014 C1015 1.347 . S
C1014 H1037 0.931 . S
C1015 C1014 1.347 . S
C1015 C1016 1.369 . S
C1016 C1015 1.369 . S
C1016 C1017 1.408 . S
C1016 H1038 0.930 . S
C1017 C1012 1.348 . S
C1017 C1016 1.408 . S
C1017 H1039 0.930 . S
C1018 O1028 1.281 . S
C1018 O1029 1.254 . S
C1019 O1030 1.236 . S
C1019 O1031 1.266 . S
O1020 Tb1000 2.484 . S
O1020 C1002 1.248 . S
O1021 Tb1000 2.440 . S
O1021 C1002 1.266 . S
O1022 Tb1000 2.658 . S
O1022 Tb1001 2.325 . S
O1022 C1009 1.281 . S
O1023 Tb1000 2.409 . S
O1023 C1009 1.254 . S
O1024 Tb1000 2.378 . S
O1024 C1010 1.236 . S
O1025 Tb1001 2.341 . S
O1025 C1010 1.266 . S
O1026 Tb1001 2.484 . S
O1026 C1011 1.248 . S
O1027 Tb1001 2.440 . S
O1027 C1011 1.266 . S
O1028 Tb1000 2.325 . S
O1028 Tb1001 2.658 . S
O1028 C1018 1.281 . S
O1029 Tb1001 2.409 . S
O1029 C1018 1.254 . S
O1030 Tb1001 2.378 . S
O1030 C1019 1.236 . S
O1031 Tb1000 2.341 . S
O1031 C1019 1.266 . S
H1032 C1004 0.929 . S
H1033 C1005 0.931 . S
H1034 C1007 0.930 . S
H1035 C1008 0.930 . S
H1036 C1013 0.929 . S
H1037 C1014 0.931 . S
H1038 C1016 0.930 . S
H1039 C1017 0.930 . S
Tb1040 C1042 2.809 . S
Tb1040 O1060 2.484 . S
Tb1040 O1061 2.440 . S
Tb1040 O1062 2.658 1_554 S
Tb1040 O1063 2.409 . S
Tb1040 O1064 2.378 . S
Tb1040 O1068 2.325 . S
Tb1040 O1071 2.341 . S
Tb1041 C1051 2.809 . S
Tb1041 O1062 2.325 . S
Tb1041 O1065 2.341 1_556 S
Tb1041 O1066 2.484 . S
Tb1041 O1067 2.440 . S
Tb1041 O1068 2.658 1_556 S
Tb1041 O1069 2.409 1_556 S
Tb1041 O1070 2.378 . S
C1042 Tb1040 2.809 . S
C1042 C1043 1.514 . S
C1042 O1060 1.248 . S
C1042 O1061 1.266 . S
C1043 C1042 1.514 . S
C1043 C1044 1.359 . S
C1043 C1048 1.348 . S
C1044 C1043 1.359 . S
C1044 C1045 1.380 . S
C1044 H1072 0.929 . S
C1045 C1044 1.380 . S
C1045 C1046 1.347 . S
C1045 H1073 0.931 . S
C1046 C1045 1.347 . S
C1046 C1047 1.369 . S
C1047 C1046 1.369 . S
C1047 C1048 1.408 . S
C1047 H1074 0.930 . S
C1048 C1043 1.348 . S
C1048 C1047 1.408 . S
C1048 H1075 0.930 . S
C1049 O1062 1.281 1_554 S
C1049 O1063 1.254 . S
C1050 O1064 1.236 . S
C1050 O1065 1.266 . S
C1051 Tb1041 2.809 . S
C1051 C1052 1.514 . S
C1051 O1066 1.248 . S
C1051 O1067 1.266 . S
C1052 C1051 1.514 . S
C1052 C1053 1.359 . S
C1052 C1057 1.348 . S
C1053 C1052 1.359 . S
C1053 C1054 1.380 . S
C1053 H1076 0.929 . S
C1054 C1053 1.380 . S
C1054 C1055 1.347 . S
C1054 H1077 0.931 . S
C1055 C1054 1.347 . S
C1055 C1056 1.369 . S
C1056 C1055 1.369 . S
C1056 C1057 1.408 . S
C1056 H1078 0.930 . S
C1057 C1052 1.348 . S
C1057 C1056 1.408 . S
C1057 H1079 0.930 . S
C1058 O1068 1.281 . S
C1058 O1069 1.254 . S
C1059 O1070 1.236 . S
C1059 O1071 1.266 1_556 S
O1060 Tb1040 2.484 . S
O1060 C1042 1.248 . S
O1061 Tb1040 2.440 . S
O1061 C1042 1.266 . S
O1062 Tb1040 2.658 1_556 S
O1062 Tb1041 2.325 . S
O1062 C1049 1.281 1_556 S
O1063 Tb1040 2.409 . S
O1063 C1049 1.254 . S
O1064 Tb1040 2.378 . S
O1064 C1050 1.236 . S
O1065 Tb1041 2.341 1_554 S
O1065 C1050 1.266 . S
O1066 Tb1041 2.484 . S
O1066 C1051 1.248 . S
O1067 Tb1041 2.440 . S
O1067 C1051 1.266 . S
O1068 Tb1040 2.325 . S
O1068 Tb1041 2.658 1_554 S
O1068 C1058 1.281 . S
O1069 Tb1041 2.409 1_554 S
O1069 C1058 1.254 . S
O1070 Tb1041 2.378 . S
O1070 C1059 1.236 . S
O1071 Tb1040 2.341 . S
O1071 C1059 1.266 1_554 S
H1072 C1044 0.929 . S
H1073 C1045 0.931 . S
H1074 C1047 0.930 . S
H1075 C1048 0.930 . S
H1076 C1053 0.929 . S
H1077 C1054 0.931 . S
H1078 C1056 0.930 . S
H1079 C1057 0.930 . S
Tb1080 C1082 2.809 . S
Tb1080 O1100 2.484 . S
Tb1080 O1101 2.440 . S
Tb1080 O1102 2.658 1_554 S
Tb1080 O1103 2.409 . S
Tb1080 O1104 2.378 . S
Tb1080 O1108 2.325 . S
Tb1080 O1111 2.341 . S
Tb1081 C1091 2.809 . S
Tb1081 O1102 2.325 . S
Tb1081 O1105 2.341 1_556 S
Tb1081 O1106 2.484 . S
Tb1081 O1107 2.440 . S
Tb1081 O1108 2.658 1_556 S
Tb1081 O1109 2.409 1_556 S
Tb1081 O1110 2.378 . S
C1082 Tb1080 2.809 . S
C1082 C1083 1.514 . S
C1082 O1100 1.248 . S
C1082 O1101 1.266 . S
C1083 C1082 1.514 . S
C1083 C1084 1.359 . S
C1083 C1088 1.348 . S
C1084 C1083 1.359 . S
C1084 C1085 1.380 . S
C1084 H1112 0.929 . S
C1085 C1084 1.380 . S
C1085 C1086 1.347 . S
C1085 H1113 0.931 . S
C1086 C1085 1.347 . S
C1086 C1087 1.369 . S
C1087 C1086 1.369 . S
C1087 C1088 1.408 . S
C1087 H1114 0.930 . S
C1088 C1083 1.348 . S
C1088 C1087 1.408 . S
C1088 H1115 0.930 . S
C1089 O1102 1.281 1_554 S
C1089 O1103 1.254 . S
C1090 O1104 1.236 . S
C1090 O1105 1.266 . S
C1091 Tb1081 2.809 . S
C1091 C1092 1.514 . S
C1091 O1106 1.248 . S
C1091 O1107 1.266 . S
C1092 C1091 1.514 . S
C1092 C1093 1.359 . S
C1092 C1097 1.348 . S
C1093 C1092 1.359 . S
C1093 C1094 1.380 . S
C1093 H1116 0.929 . S
C1094 C1093 1.380 . S
C1094 C1095 1.347 . S
C1094 H1117 0.931 . S
C1095 C1094 1.347 . S
C1095 C1096 1.369 . S
C1096 C1095 1.369 . S
C1096 C1097 1.408 . S
C1096 H1118 0.930 . S
C1097 C1092 1.348 . S
C1097 C1096 1.408 . S
C1097 H1119 0.930 . S
C1098 O1108 1.281 . S
C1098 O1109 1.254 . S
C1099 O1110 1.236 . S
C1099 O1111 1.266 1_556 S
O1100 Tb1080 2.484 . S
O1100 C1082 1.248 . S
O1101 Tb1080 2.440 . S
O1101 C1082 1.266 . S
O1102 Tb1080 2.658 1_556 S
O1102 Tb1081 2.325 . S
O1102 C1089 1.281 1_556 S
O1103 Tb1080 2.409 . S
O1103 C1089 1.254 . S
O1104 Tb1080 2.378 . S
O1104 C1090 1.236 . S
O1105 Tb1081 2.341 1_554 S
O1105 C1090 1.266 . S
O1106 Tb1081 2.484 . S
O1106 C1091 1.248 . S
O1107 Tb1081 2.440 . S
O1107 C1091 1.266 . S
O1108 Tb1080 2.325 . S
O1108 Tb1081 2.658 1_554 S
O1108 C1098 1.281 . S
O1109 Tb1081 2.409 1_554 S
O1109 C1098 1.254 . S
O1110 Tb1081 2.378 . S
O1110 C1099 1.236 . S
O1111 Tb1080 2.341 . S
O1111 C1099 1.266 1_554 S
H1112 C1084 0.929 . S
H1113 C1085 0.931 . S
H1114 C1087 0.930 . S
H1115 C1088 0.930 . S
H1116 C1093 0.929 . S
H1117 C1094 0.931 . S
H1118 C1096 0.930 . S
H1119 C1097 0.930 . S
Tb1120 C1122 2.809 . S
Tb1120 O1140 2.484 . S
Tb1120 O1141 2.440 . S
Tb1120 O1142 2.658 . S
Tb1120 O1143 2.409 . S
Tb1120 O1144 2.378 . S
Tb1120 O1148 2.325 . S
Tb1120 O1151 2.341 . S
Tb1121 C1131 2.809 . S
Tb1121 O1142 2.325 . S
Tb1121 O1145 2.341 . S
Tb1121 O1146 2.484 . S
Tb1121 O1147 2.440 . S
Tb1121 O1148 2.658 . S
Tb1121 O1149 2.409 . S
Tb1121 O1150 2.378 . S
C1122 Tb1120 2.809 . S
C1122 C1123 1.514 . S
C1122 O1140 1.248 . S
C1122 O1141 1.266 . S
C1123 C1122 1.514 . S
C1123 C1124 1.359 . S
C1123 C1128 1.348 . S
C1124 C1123 1.359 . S
C1124 C1125 1.380 . S
C1124 H1152 0.929 . S
C1125 C1124 1.380 . S
C1125 C1126 1.347 . S
C1125 H1153 0.931 . S
C1126 C1125 1.347 . S
C1126 C1127 1.369 . S
C1127 C1126 1.369 . S
C1127 C1128 1.408 . S
C1127 H1154 0.930 . S
C1128 C1123 1.348 . S
C1128 C1127 1.408 . S
C1128 H1155 0.930 . S
C1129 O1142 1.281 . S
C1129 O1143 1.254 . S
C1130 O1144 1.236 . S
C1130 O1145 1.266 . S
C1131 Tb1121 2.809 . S
C1131 C1132 1.514 1_556 S
C1131 O1146 1.248 . S
C1131 O1147 1.266 . S
C1132 C1131 1.514 1_554 S
C1132 C1133 1.359 . S
C1132 C1137 1.348 . S
C1133 C1132 1.359 . S
C1133 C1134 1.380 . S
C1133 H1156 0.929 . S
C1134 C1133 1.380 . S
C1134 C1135 1.347 . S
C1134 H1157 0.931 . S
C1135 C1134 1.347 . S
C1135 C1136 1.369 . S
C1136 C1135 1.369 . S
C1136 C1137 1.408 . S
C1136 H1158 0.930 . S
C1137 C1132 1.348 . S
C1137 C1136 1.408 . S
C1137 H1159 0.930 . S
C1138 O1148 1.281 . S
C1138 O1149 1.254 . S
C1139 O1150 1.236 . S
C1139 O1151 1.266 . S
O1140 Tb1120 2.484 . S
O1140 C1122 1.248 . S
O1141 Tb1120 2.440 . S
O1141 C1122 1.266 . S
O1142 Tb1120 2.658 . S
O1142 Tb1121 2.325 . S
O1142 C1129 1.281 . S
O1143 Tb1120 2.409 . S
O1143 C1129 1.254 . S
O1144 Tb1120 2.378 . S
O1144 C1130 1.236 . S
O1145 Tb1121 2.341 . S
O1145 C1130 1.266 . S
O1146 Tb1121 2.484 . S
O1146 C1131 1.248 . S
O1147 Tb1121 2.440 . S
O1147 C1131 1.266 . S
O1148 Tb1120 2.325 . S
O1148 Tb1121 2.658 . S
O1148 C1138 1.281 . S
O1149 Tb1121 2.409 . S
O1149 C1138 1.254 . S
O1150 Tb1121 2.378 . S
O1150 C1139 1.236 . S
O1151 Tb1120 2.341 . S
O1151 C1139 1.266 . S
H1152 C1124 0.929 . S
H1153 C1125 0.931 . S
H1154 C1127 0.930 . S
H1155 C1128 0.930 . S
H1156 C1133 0.929 . S
H1157 C1134 0.931 . S
H1158 C1136 0.930 . S
H1159 C1137 0.930 . S
Tb1160 C1162 2.809 . S
Tb1160 O1180 2.484 . S
Tb1160 O1181 2.440 . S
Tb1160 O1182 2.658 . S
Tb1160 O1183 2.409 . S
Tb1160 O1184 2.378 . S
Tb1160 O1188 2.325 . S
Tb1160 O1191 2.341 . S
Tb1161 C1171 2.809 . S
Tb1161 O1182 2.325 . S
Tb1161 O1185 2.341 . S
Tb1161 O1186 2.484 . S
Tb1161 O1187 2.440 . S
Tb1161 O1188 2.658 . S
Tb1161 O1189 2.409 . S
Tb1161 O1190 2.378 . S
C1162 Tb1160 2.809 . S
C1162 C1163 1.514 . S
C1162 O1180 1.248 . S
C1162 O1181 1.266 . S
C1163 C1162 1.514 . S
C1163 C1164 1.359 . S
C1163 C1168 1.348 . S
C1164 C1163 1.359 . S
C1164 C1165 1.380 . S
C1164 H1192 0.929 . S
C1165 C1164 1.380 . S
C1165 C1166 1.347 . S
C1165 H1193 0.931 . S
C1166 C1165 1.347 . S
C1166 C1167 1.369 . S
C1167 C1166 1.369 . S
C1167 C1168 1.408 . S
C1167 H1194 0.930 . S
C1168 C1163 1.348 . S
C1168 C1167 1.408 . S
C1168 H1195 0.930 . S
C1169 O1182 1.281 . S
C1169 O1183 1.254 . S
C1170 O1184 1.236 . S
C1170 O1185 1.266 . S
C1171 Tb1161 2.809 . S
C1171 C1172 1.514 1_556 S
C1171 O1186 1.248 . S
C1171 O1187 1.266 . S
C1172 C1171 1.514 1_554 S
C1172 C1173 1.359 . S
C1172 C1177 1.348 . S
C1173 C1172 1.359 . S
C1173 C1174 1.380 . S
C1173 H1196 0.929 . S
C1174 C1173 1.380 . S
C1174 C1175 1.347 . S
C1174 H1197 0.931 . S
C1175 C1174 1.347 . S
C1175 C1176 1.369 . S
C1176 C1175 1.369 . S
C1176 C1177 1.408 . S
C1176 H1198 0.930 . S
C1177 C1172 1.348 . S
C1177 C1176 1.408 . S
C1177 H1199 0.930 . S
C1178 O1188 1.281 . S
C1178 O1189 1.254 . S
C1179 O1190 1.236 . S
C1179 O1191 1.266 . S
O1180 Tb1160 2.484 . S
O1180 C1162 1.248 . S
O1181 Tb1160 2.440 . S
O1181 C1162 1.266 . S
O1182 Tb1160 2.658 . S
O1182 Tb1161 2.325 . S
O1182 C1169 1.281 . S
O1183 Tb1160 2.409 . S
O1183 C1169 1.254 . S
O1184 Tb1160 2.378 . S
O1184 C1170 1.236 . S
O1185 Tb1161 2.341 . S
O1185 C1170 1.266 . S
O1186 Tb1161 2.484 . S
O1186 C1171 1.248 . S
O1187 Tb1161 2.440 . S
O1187 C1171 1.266 . S
O1188 Tb1160 2.325 . S
O1188 Tb1161 2.658 . S
O1188 C1178 1.281 . S
O1189 Tb1161 2.409 . S
O1189 C1178 1.254 . S
O1190 Tb1161 2.378 . S
O1190 C1179 1.236 . S
O1191 Tb1160 2.341 . S
O1191 C1179 1.266 . S
H1192 C1164 0.929 . S
H1193 C1165 0.931 . S
H1194 C1167 0.930 . S
H1195 C1168 0.930 . S
H1196 C1173 0.929 . S
H1197 C1174 0.931 . S
H1198 C1176 0.930 . S
H1199 C1177 0.930 . S
Tb1200 C1202 2.809 . S
Tb1200 O1220 2.484 . S
Tb1200 O1221 2.440 . S
Tb1200 O1222 2.658 1_554 S
Tb1200 O1223 2.409 1_554 S
Tb1200 O1224 2.378 . S
Tb1200 O1228 2.325 . S
Tb1200 O1231 2.341 1_554 S
Tb1201 C1211 2.809 . S
Tb1201 O1222 2.325 . S
Tb1201 O1225 2.341 . S
Tb1201 O1226 2.484 . S
Tb1201 O1227 2.440 . S
Tb1201 O1228 2.658 1_556 S
Tb1201 O1229 2.409 . S
Tb1201 O1230 2.378 . S
C1202 Tb1200 2.809 . S
C1202 C1203 1.514 . S
C1202 O1220 1.248 . S
C1202 O1221 1.266 . S
C1203 C1202 1.514 . S
C1203 C1204 1.359 . S
C1203 C1208 1.348 . S
C1204 C1203 1.359 . S
C1204 C1205 1.380 . S
C1204 H1232 0.929 . S
C1205 C1204 1.380 . S
C1205 C1206 1.347 . S
C1205 H1233 0.931 . S
C1206 C1205 1.347 . S
C1206 C1207 1.369 . S
C1207 C1206 1.369 . S
C1207 C1208 1.408 . S
C1207 H1234 0.930 . S
C1208 C1203 1.348 . S
C1208 C1207 1.408 . S
C1208 H1235 0.930 . S
C1209 O1222 1.281 . S
C1209 O1223 1.254 . S
C1210 O1224 1.236 . S
C1210 O1225 1.266 1_554 S
C1211 Tb1201 2.809 . S
C1211 C1212 1.514 . S
C1211 O1226 1.248 . S
C1211 O1227 1.266 . S
C1212 C1211 1.514 . S
C1212 C1213 1.359 . S
C1212 C1217 1.348 . S
C1213 C1212 1.359 . S
C1213 C1214 1.380 . S
C1213 H1236 0.929 . S
C1214 C1213 1.380 . S
C1214 C1215 1.347 . S
C1214 H1237 0.931 . S
C1215 C1214 1.347 . S
C1215 C1216 1.369 . S
C1216 C1215 1.369 . S
C1216 C1217 1.408 . S
C1216 H1238 0.930 . S
C1217 C1212 1.348 . S
C1217 C1216 1.408 . S
C1217 H1239 0.930 . S
C1218 O1228 1.281 1_556 S
C1218 O1229 1.254 . S
C1219 O1230 1.236 . S
C1219 O1231 1.266 . S
O1220 Tb1200 2.484 . S
O1220 C1202 1.248 . S
O1221 Tb1200 2.440 . S
O1221 C1202 1.266 . S
O1222 Tb1200 2.658 1_556 S
O1222 Tb1201 2.325 . S
O1222 C1209 1.281 . S
O1223 Tb1200 2.409 1_556 S
O1223 C1209 1.254 . S
O1224 Tb1200 2.378 . S
O1224 C1210 1.236 . S
O1225 Tb1201 2.341 . S
O1225 C1210 1.266 1_556 S
O1226 Tb1201 2.484 . S
O1226 C1211 1.248 . S
O1227 Tb1201 2.440 . S
O1227 C1211 1.266 . S
O1228 Tb1200 2.325 . S
O1228 Tb1201 2.658 1_554 S
O1228 C1218 1.281 1_554 S
O1229 Tb1201 2.409 . S
O1229 C1218 1.254 . S
O1230 Tb1201 2.378 . S
O1230 C1219 1.236 . S
O1231 Tb1200 2.341 1_556 S
O1231 C1219 1.266 . S
H1232 C1204 0.929 . S
H1233 C1205 0.931 . S
H1234 C1207 0.930 . S
H1235 C1208 0.930 . S
H1236 C1213 0.929 . S
H1237 C1214 0.931 . S
H1238 C1216 0.930 . S
H1239 C1217 0.930 . S
Tb1240 C1242 2.809 . S
Tb1240 O1260 2.484 . S
Tb1240 O1261 2.440 . S
Tb1240 O1262 2.658 1_554 S
Tb1240 O1263 2.409 1_554 S
Tb1240 O1264 2.378 . S
Tb1240 O1268 2.325 . S
Tb1240 O1271 2.341 1_554 S
Tb1241 C1251 2.809 . S
Tb1241 O1262 2.325 . S
Tb1241 O1265 2.341 . S
Tb1241 O1266 2.484 . S
Tb1241 O1267 2.440 . S
Tb1241 O1268 2.658 1_556 S
Tb1241 O1269 2.409 . S
Tb1241 O1270 2.378 . S
C1242 Tb1240 2.809 . S
C1242 C1243 1.514 . S
C1242 O1260 1.248 . S
C1242 O1261 1.266 . S
C1243 C1242 1.514 . S
C1243 C1244 1.359 . S
C1243 C1248 1.348 . S
C1244 C1243 1.359 . S
C1244 C1245 1.380 . S
C1244 H1272 0.929 . S
C1245 C1244 1.380 . S
C1245 C1246 1.347 . S
C1245 H1273 0.931 . S
C1246 C1245 1.347 . S
C1246 C1247 1.369 . S
C1247 C1246 1.369 . S
C1247 C1248 1.408 . S
C1247 H1274 0.930 . S
C1248 C1243 1.348 . S
C1248 C1247 1.408 . S
C1248 H1275 0.930 . S
C1249 O1262 1.281 . S
C1249 O1263 1.254 . S
C1250 O1264 1.236 . S
C1250 O1265 1.266 1_554 S
C1251 Tb1241 2.809 . S
C1251 C1252 1.514 . S
C1251 O1266 1.248 . S
C1251 O1267 1.266 . S
C1252 C1251 1.514 . S
C1252 C1253 1.359 . S
C1252 C1257 1.348 . S
C1253 C1252 1.359 . S
C1253 C1254 1.380 . S
C1253 H1276 0.929 . S
C1254 C1253 1.380 . S
C1254 C1255 1.347 . S
C1254 H1277 0.931 . S
C1255 C1254 1.347 . S
C1255 C1256 1.369 . S
C1256 C1255 1.369 . S
C1256 C1257 1.408 . S
C1256 H1278 0.930 . S
C1257 C1252 1.348 . S
C1257 C1256 1.408 . S
C1257 H1279 0.930 . S
C1258 O1268 1.281 1_556 S
C1258 O1269 1.254 . S
C1259 O1270 1.236 . S
C1259 O1271 1.266 . S
O1260 Tb1240 2.484 . S
O1260 C1242 1.248 . S
O1261 Tb1240 2.440 . S
O1261 C1242 1.266 . S
O1262 Tb1240 2.658 1_556 S
O1262 Tb1241 2.325 . S
O1262 C1249 1.281 . S
O1263 Tb1240 2.409 1_556 S
O1263 C1249 1.254 . S
O1264 Tb1240 2.378 . S
O1264 C1250 1.236 . S
O1265 Tb1241 2.341 . S
O1265 C1250 1.266 1_556 S
O1266 Tb1241 2.484 . S
O1266 C1251 1.248 . S
O1267 Tb1241 2.440 . S
O1267 C1251 1.266 . S
O1268 Tb1240 2.325 . S
O1268 Tb1241 2.658 1_554 S
O1268 C1258 1.281 1_554 S
O1269 Tb1241 2.409 . S
O1269 C1258 1.254 . S
O1270 Tb1241 2.378 . S
O1270 C1259 1.236 . S
O1271 Tb1240 2.341 1_556 S
O1271 C1259 1.266 . S
H1272 C1244 0.929 . S
H1273 C1245 0.931 . S
H1274 C1247 0.930 . S
H1275 C1248 0.930 . S
H1276 C1253 0.929 . S
H1277 C1254 0.931 . S
H1278 C1256 0.930 . S
H1279 C1257 0.930 . S
C1280 C1281 1.369 . S
C1280 C1282 1.419 1_556 S
C1280 H1284 0.930 . S
C1281 C1280 1.369 . S
C1281 C1290 1.429 . S
C1282 C1280 1.419 1_554 S
C1282 C1283 1.363 . S
C1282 H1285 0.929 . S
C1283 C1282 1.363 . S
C1283 C1289 1.428 . S
H1284 C1280 0.930 . S
H1285 C1282 0.929 . S
S1286 N1287 1.613 1_554 S
S1286 N1288 1.610 . S
N1287 S1286 1.613 1_556 S
N1287 C1290 1.350 . S
N1288 S1286 1.610 . S
N1288 C1289 1.351 . S
C1289 C1283 1.428 . S
C1289 N1288 1.351 . S
C1289 C1290 1.434 1_554 S
C1290 C1281 1.429 . S
C1290 N1287 1.350 . S
C1290 C1289 1.434 1_556 S
C1291 C1292 1.369 1_655 S
C1291 C1293 1.417 1_546 S
C1291 H1295 0.930 . S
C1292 C1291 1.369 1_455 S
C1292 C1301 1.425 1_545 S
C1293 C1291 1.417 1_564 S
C1293 C1294 1.364 . S
C1293 H1296 0.929 . S
C1294 C1293 1.364 . S
C1294 C1300 1.428 1_655 S
H1295 C1291 0.930 . S
H1296 C1293 0.929 . S
S1297 N1298 1.613 1_554 S
S1297 N1299 1.610 . S
N1298 S1297 1.613 1_556 S
N1298 C1301 1.352 . S
N1299 S1297 1.610 . S
N1299 C1300 1.351 . S
C1300 C1294 1.428 1_455 S
C1300 N1299 1.351 . S
C1300 C1301 1.437 1_554 S
C1301 C1292 1.425 1_565 S
C1301 N1298 1.352 . S
C1301 C1300 1.437 1_556 S
C1302 C1303 1.369 . S
C1302 C1304 1.419 . S
C1302 H1306 0.930 . S
C1303 C1302 1.369 . S
C1303 C1312 1.429 1_545 S
C1304 C1302 1.419 . S
C1304 C1305 1.363 1_545 S
C1304 H1307 0.929 . S
C1305 C1304 1.363 1_565 S
C1305 C1311 1.428 . S
H1306 C1302 0.930 . S
H1307 C1304 0.929 . S
S1308 N1309 1.613 . S
S1308 N1310 1.610 . S
N1309 S1308 1.613 . S
N1309 C1312 1.350 . S
N1310 S1308 1.610 . S
N1310 C1311 1.351 . S
C1311 C1305 1.428 . S
C1311 N1310 1.351 . S
C1311 C1312 1.434 . S
C1312 C1303 1.429 1_565 S
C1312 N1309 1.350 . S
C1312 C1311 1.434 . S
C1313 C1314 1.369 . S
C1313 C1315 1.419 . S
C1313 H1317 0.930 . S
C1314 C1313 1.369 . S
C1314 C1323 1.429 1_455 S
C1315 C1313 1.419 . S
C1315 C1316 1.363 1_455 S
C1315 H1318 0.929 . S
C1316 C1315 1.363 1_655 S
C1316 C1322 1.428 . S
H1317 C1313 0.930 . S
H1318 C1315 0.929 . S
S1319 N1320 1.613 . S
S1319 N1321 1.610 . S
N1320 S1319 1.613 . S
N1320 C1323 1.350 . S
N1321 S1319 1.610 . S
N1321 C1322 1.351 . S
C1322 C1316 1.428 . S
C1322 N1321 1.351 . S
C1322 C1323 1.434 . S
C1323 C1314 1.429 1_655 S
C1323 N1320 1.350 . S
C1323 C1322 1.434 . S
C1324 C1325 1.369 . S
C1324 C1326 1.419 1_556 S
C1324 H1328 0.930 . S
C1325 C1324 1.369 . S
C1325 C1334 1.429 . S
C1326 C1324 1.419 1_554 S
C1326 C1327 1.363 . S
C1326 H1329 0.929 . S
C1327 C1326 1.363 . S
C1327 C1333 1.428 . S
H1328 C1324 0.930 . S
H1329 C1326 0.929 . S
S1330 N1331 1.613 1_554 S
S1330 N1332 1.610 . S
N1331 S1330 1.613 1_556 S
N1331 C1334 1.350 . S
N1332 S1330 1.610 . S
N1332 C1333 1.351 . S
C1333 C1327 1.428 . S
C1333 N1332 1.351 . S
C1333 C1334 1.434 1_554 S
C1334 C1325 1.429 . S
C1334 N1331 1.350 . S
C1334 C1333 1.434 1_556 S
C1335 C1336 1.369 . S
C1335 C1337 1.419 . S
C1335 H1339 0.930 . S
C1336 C1335 1.369 . S
C1336 C1345 1.429 1_565 S
C1337 C1335 1.419 . S
C1337 C1338 1.363 1_565 S
C1337 H1340 0.929 . S
C1338 C1337 1.363 1_545 S
C1338 C1344 1.428 . S
H1339 C1335 0.930 . S
H1340 C1337 0.929 . S
S1341 N1342 1.613 . S
S1341 N1343 1.610 . S
N1342 S1341 1.613 . S
N1342 C1345 1.350 . S
N1343 S1341 1.610 . S
N1343 C1344 1.351 . S
C1344 C1338 1.428 . S
C1344 N1343 1.351 . S
C1344 C1345 1.434 . S
C1345 C1336 1.429 1_545 S
C1345 N1342 1.350 . S
C1345 C1344 1.434 . S
C1346 C1347 1.369 1_455 S
C1346 C1348 1.419 . S
C1346 H1350 0.930 . S
C1347 C1346 1.369 1_655 S
C1347 C1356 1.429 . S
C1348 C1346 1.419 . S
C1348 C1349 1.363 . S
C1348 H1351 0.929 . S
C1349 C1348 1.363 . S
C1349 C1355 1.428 1_455 S
H1350 C1346 0.930 . S
H1351 C1348 0.929 . S
S1352 N1353 1.613 . S
S1352 N1354 1.610 . S
N1353 S1352 1.613 . S
N1353 C1356 1.350 . S
N1354 S1352 1.610 . S
N1354 C1355 1.351 . S
C1355 C1349 1.428 1_655 S
C1355 N1354 1.351 . S
C1355 C1356 1.434 . S
C1356 C1347 1.429 . S
C1356 N1353 1.350 . S
C1356 C1355 1.434 . S
C1357 C1358 1.369 . S
C1357 C1359 1.419 . S
C1357 H1361 0.930 . S
C1358 C1357 1.369 . S
C1358 C1367 1.429 . S
C1359 C1357 1.419 . S
C1359 C1360 1.363 . S
C1359 H1362 0.929 . S
C1360 C1359 1.363 . S
C1360 C1366 1.428 . S
H1361 C1357 0.930 . S
H1362 C1359 0.929 . S
S1363 N1364 1.613 . S
S1363 N1365 1.610 . S
N1364 S1363 1.613 . S
N1364 C1367 1.350 . S
N1365 S1363 1.610 . S
N1365 C1366 1.351 . S
C1366 C1360 1.428 . S
C1366 N1365 1.351 . S
C1366 C1367 1.434 . S
C1367 C1358 1.429 . S
C1367 N1364 1.350 . S
C1367 C1366 1.434 . S
C1368 C1369 1.369 1_455 S
C1368 C1370 1.419 . S
C1368 H1372 0.930 . S
C1369 C1368 1.369 1_655 S
C1369 C1378 1.429 . S
C1370 C1368 1.419 . S
C1370 C1371 1.363 . S
C1370 H1373 0.929 . S
C1371 C1370 1.363 . S
C1371 C1377 1.428 1_455 S
H1372 C1368 0.930 . S
H1373 C1370 0.929 . S
S1374 N1375 1.613 . S
S1374 N1376 1.610 . S
N1375 S1374 1.613 . S
N1375 C1378 1.350 . S
N1376 S1374 1.610 . S
N1376 C1377 1.351 . S
C1377 C1371 1.428 1_655 S
C1377 N1376 1.351 . S
C1377 C1378 1.434 . S
C1378 C1369 1.429 . S
C1378 N1375 1.350 . S
C1378 C1377 1.434 . S
C1379 C1380 1.369 . S
C1379 C1381 1.419 . S
C1379 H1383 0.930 . S
C1380 C1379 1.369 . S
C1380 C1389 1.429 . S
C1381 C1379 1.419 . S
C1381 C1382 1.363 . S
C1381 H1384 0.929 . S
C1382 C1381 1.363 . S
C1382 C1388 1.428 . S
H1383 C1379 0.930 . S
H1384 C1381 0.929 . S
S1385 N1386 1.613 . S
S1385 N1387 1.610 . S
N1386 S1385 1.613 . S
N1386 C1389 1.350 . S
N1387 S1385 1.610 . S
N1387 C1388 1.351 . S
C1388 C1382 1.428 . S
C1388 N1387 1.351 . S
C1388 C1389 1.434 . S
C1389 C1380 1.429 . S
C1389 N1386 1.350 . S
C1389 C1388 1.434 . S
C1390 C1391 1.369 . S
C1390 C1392 1.419 . S
C1390 H1394 0.930 . S
C1391 C1390 1.369 . S
C1391 C1400 1.429 . S
C1392 C1390 1.419 . S
C1392 C1393 1.363 . S
C1392 H1395 0.929 . S
C1393 C1392 1.363 . S
C1393 C1399 1.428 . S
H1394 C1390 0.930 . S
H1395 C1392 0.929 . S
S1396 N1397 1.613 . S
S1396 N1398 1.610 . S
N1397 S1396 1.613 . S
N1397 C1400 1.350 . S
N1398 S1396 1.610 . S
N1398 C1399 1.351 . S
C1399 C1393 1.428 . S
C1399 N1398 1.351 . S
C1399 C1400 1.434 . S
C1400 C1391 1.429 . S
C1400 N1397 1.350 . S
C1400 C1399 1.434 . S
C1401 C1402 1.369 . S
C1401 C1403 1.419 . S
C1401 H1405 0.930 . S
C1402 C1401 1.369 . S
C1402 C1411 1.429 . S
C1403 C1401 1.419 . S
C1403 C1404 1.363 . S
C1403 H1406 0.929 . S
C1404 C1403 1.363 . S
C1404 C1410 1.428 . S
H1405 C1401 0.930 . S
H1406 C1403 0.929 . S
S1407 N1408 1.613 . S
S1407 N1409 1.610 . S
N1408 S1407 1.613 . S
N1408 C1411 1.350 . S
N1409 S1407 1.610 . S
N1409 C1410 1.351 . S
C1410 C1404 1.428 . S
C1410 N1409 1.351 . S
C1410 C1411 1.434 . S
C1411 C1402 1.429 . S
C1411 N1408 1.350 . S
C1411 C1410 1.434 . S
C1412 C1413 1.369 . S
C1412 C1414 1.419 . S
C1412 H1416 0.930 . S
C1413 C1412 1.369 . S
C1413 C1422 1.429 1_565 S
C1414 C1412 1.419 . S
C1414 C1415 1.363 1_565 S
C1414 H1417 0.929 . S
C1415 C1414 1.363 1_545 S
C1415 C1421 1.428 . S
H1416 C1412 0.930 . S
H1417 C1414 0.929 . S
S1418 N1419 1.613 . S
S1418 N1420 1.610 . S
N1419 S1418 1.613 . S
N1419 C1422 1.350 . S
N1420 S1418 1.610 . S
N1420 C1421 1.351 . S
C1421 C1415 1.428 . S
C1421 N1420 1.351 . S
C1421 C1422 1.434 . S
C1422 C1413 1.429 1_545 S
C1422 N1419 1.350 . S
C1422 C1421 1.434 . S
C1423 C1424 1.369 . S
C1423 C1425 1.419 . S
C1423 H1427 0.930 . S
C1424 C1423 1.369 . S
C1424 C1433 1.429 . S
C1425 C1423 1.419 . S
C1425 C1426 1.363 . S
C1425 H1428 0.929 . S
C1426 C1425 1.363 . S
C1426 C1432 1.428 . S
H1427 C1423 0.930 . S
H1428 C1425 0.929 . S
S1429 N1430 1.613 . S
S1429 N1431 1.610 . S
N1430 S1429 1.613 . S
N1430 C1433 1.350 . S
N1431 S1429 1.610 . S
N1431 C1432 1.351 . S
C1432 C1426 1.428 . S
C1432 N1431 1.351 . S
C1432 C1433 1.434 . S
C1433 C1424 1.429 . S
C1433 N1430 1.350 . S
C1433 C1432 1.434 . S
C1434 C1435 1.369 . S
C1434 C1436 1.419 . S
C1434 H1438 0.930 . S
C1435 C1434 1.369 . S
C1435 C1444 1.429 . S
C1436 C1434 1.419 . S
C1436 C1437 1.363 . S
C1436 H1439 0.929 . S
C1437 C1436 1.363 . S
C1437 C1443 1.428 . S
H1438 C1434 0.930 . S
H1439 C1436 0.929 . S
S1440 N1441 1.613 . S
S1440 N1442 1.610 . S
N1441 S1440 1.613 . S
N1441 C1444 1.350 . S
N1442 S1440 1.610 . S
N1442 C1443 1.351 . S
C1443 C1437 1.428 . S
C1443 N1442 1.351 . S
C1443 C1444 1.434 . S
C1444 C1435 1.429 . S
C1444 N1441 1.350 . S
C1444 C1443 1.434 . S
C1445 C1446 1.369 . S
C1445 C1447 1.419 1_556 S
C1445 H1449 0.930 . S
C1446 C1445 1.369 . S
C1446 C1455 1.429 . S
C1447 C1445 1.419 1_554 S
C1447 C1448 1.363 . S
C1447 H1450 0.929 . S
C1448 C1447 1.363 . S
C1448 C1454 1.428 . S
H1449 C1445 0.930 . S
H1450 C1447 0.929 . S
S1451 N1452 1.613 . S
S1451 N1453 1.610 1_556 S
N1452 S1451 1.613 . S
N1452 C1455 1.350 . S
N1453 S1451 1.610 1_554 S
N1453 C1454 1.351 . S
C1454 C1448 1.428 . S
C1454 N1453 1.351 . S
C1454 C1455 1.434 1_554 S
C1455 C1446 1.429 . S
C1455 N1452 1.350 . S
C1455 C1454 1.434 1_556 S
C1456 C1457 1.369 . S
C1456 C1458 1.419 . S
C1456 H1460 0.930 . S
C1457 C1456 1.369 . S
C1457 C1466 1.429 . S
C1458 C1456 1.419 . S
C1458 C1459 1.363 . S
C1458 H1461 0.929 . S
C1459 C1458 1.363 . S
C1459 C1465 1.428 . S
H1460 C1456 0.930 . S
H1461 C1458 0.929 . S
S1462 N1463 1.613 . S
S1462 N1464 1.610 . S
N1463 S1462 1.613 . S
N1463 C1466 1.350 . S
N1464 S1462 1.610 . S
N1464 C1465 1.351 . S
C1465 C1459 1.428 . S
C1465 N1464 1.351 . S
C1465 C1466 1.434 . S
C1466 C1457 1.429 . S
C1466 N1463 1.350 . S
C1466 C1465 1.434 . S
C1467 C1468 1.369 . S
C1467 C1469 1.419 . S
C1467 H1471 0.930 . S
C1468 C1467 1.369 . S
C1468 C1477 1.429 1_545 S
C1469 C1467 1.419 . S
C1469 C1470 1.363 . S
C1469 H1472 0.929 . S
C1470 C1469 1.363 . S
C1470 C1476 1.428 1_545 S
H1471 C1467 0.930 . S
H1472 C1469 0.929 . S
S1473 N1474 1.613 . S
S1473 N1475 1.610 . S
N1474 S1473 1.613 . S
N1474 C1477 1.350 . S
N1475 S1473 1.610 . S
N1475 C1476 1.351 . S
C1476 C1470 1.428 1_565 S
C1476 N1475 1.351 . S
C1476 C1477 1.434 . S
C1477 C1468 1.429 1_565 S
C1477 N1474 1.350 . S
C1477 C1476 1.434 . S
C1478 C1479 1.369 . S
C1478 C1480 1.419 . S
C1478 H1482 0.930 . S
C1479 C1478 1.369 . S
C1479 C1488 1.429 1_545 S
C1480 C1478 1.419 . S
C1480 C1481 1.363 . S
C1480 H1483 0.929 . S
C1481 C1480 1.363 . S
C1481 C1487 1.428 1_545 S
H1482 C1478 0.930 . S
H1483 C1480 0.929 . S
S1484 N1485 1.613 . S
S1484 N1486 1.610 . S
N1485 S1484 1.613 . S
N1485 C1488 1.350 . S
N1486 S1484 1.610 . S
N1486 C1487 1.351 . S
C1487 C1481 1.428 1_565 S
C1487 N1486 1.351 . S
C1487 C1488 1.434 . S
C1488 C1479 1.429 1_565 S
C1488 N1485 1.350 . S
C1488 C1487 1.434 . S
C1489 C1490 1.369 . S
C1489 C1491 1.419 . S
C1489 H1493 0.930 . S
C1490 C1489 1.369 . S
C1490 C1499 1.429 . S
C1491 C1489 1.419 . S
C1491 C1492 1.363 . S
C1491 H1494 0.929 . S
C1492 C1491 1.363 . S
C1492 C1498 1.428 . S
H1493 C1489 0.930 . S
H1494 C1491 0.929 . S
S1495 N1496 1.613 . S
S1495 N1497 1.610 . S
N1496 S1495 1.613 . S
N1496 C1499 1.350 . S
N1497 S1495 1.610 . S
N1497 C1498 1.351 . S
C1498 C1492 1.428 . S
C1498 N1497 1.351 . S
C1498 C1499 1.434 . S
C1499 C1490 1.429 . S
C1499 N1496 1.350 . S
C1499 C1498 1.434 . S
C1500 C1501 1.369 . S
C1500 C1502 1.419 . S
C1500 H1504 0.930 . S
C1501 C1500 1.369 . S
C1501 C1510 1.429 . S
C1502 C1500 1.419 . S
C1502 C1503 1.363 . S
C1502 H1505 0.929 . S
C1503 C1502 1.363 . S
C1503 C1509 1.428 . S
H1504 C1500 0.930 . S
H1505 C1502 0.929 . S
S1506 N1507 1.613 . S
S1506 N1508 1.610 . S
N1507 S1506 1.613 . S
N1507 C1510 1.350 . S
N1508 S1506 1.610 . S
N1508 C1509 1.351 . S
C1509 C1503 1.428 . S
C1509 N1508 1.351 . S
C1509 C1510 1.434 . S
C1510 C1501 1.429 . S
C1510 N1507 1.350 . S
C1510 C1509 1.434 . S
C1511 C1512 1.369 . S
C1511 C1513 1.419 . S
C1511 H1515 0.930 . S
C1512 C1511 1.369 . S
C1512 C1521 1.429 1_565 S
C1513 C1511 1.419 . S
C1513 C1514 1.363 . S
C1513 H1516 0.929 . S
C1514 C1513 1.363 . S
C1514 C1520 1.428 1_565 S
H1515 C1511 0.930 . S
H1516 C1513 0.929 . S
S1517 N1518 1.613 . S
S1517 N1519 1.610 . S
N1518 S1517 1.613 . S
N1518 C1521 1.350 . S
N1519 S1517 1.610 . S
N1519 C1520 1.351 . S
C1520 C1514 1.428 1_545 S
C1520 N1519 1.351 . S
C1520 C1521 1.434 . S
C1521 C1512 1.429 1_545 S
C1521 N1518 1.350 . S
C1521 C1520 1.434 . S
C1522 C1523 1.369 1_545 S
C1522 C1524 1.419 . S
C1522 H1526 0.930 . S
C1523 C1522 1.369 1_565 S
C1523 C1532 1.429 . S
C1524 C1522 1.419 . S
C1524 C1525 1.363 1_545 S
C1524 H1527 0.929 . S
C1525 C1524 1.363 1_565 S
C1525 C1531 1.428 . S
H1526 C1522 0.930 . S
H1527 C1524 0.929 . S
S1528 N1529 1.613 . S
S1528 N1530 1.610 . S
N1529 S1528 1.613 . S
N1529 C1532 1.350 . S
N1530 S1528 1.610 . S
N1530 C1531 1.351 . S
C1531 C1525 1.428 . S
C1531 N1530 1.351 . S
C1531 C1532 1.434 . S
C1532 C1523 1.429 . S
C1532 N1529 1.350 . S
C1532 C1531 1.434 . S
C1533 C1534 1.369 . S
C1533 C1535 1.419 . S
C1533 H1537 0.930 . S
C1534 C1533 1.369 . S
C1534 C1543 1.429 . S
C1535 C1533 1.419 . S
C1535 C1536 1.363 . S
C1535 H1538 0.929 . S
C1536 C1535 1.363 . S
C1536 C1542 1.428 . S
H1537 C1533 0.930 . S
H1538 C1535 0.929 . S
S1539 N1540 1.613 1_556 S
S1539 N1541 1.610 1_556 S
N1540 S1539 1.613 1_554 S
N1540 C1543 1.350 . S
N1541 S1539 1.610 1_554 S
N1541 C1542 1.351 . S
C1542 C1536 1.428 . S
C1542 N1541 1.351 . S
C1542 C1543 1.434 . S
C1543 C1534 1.429 . S
C1543 N1540 1.350 . S
C1543 C1542 1.434 . S
C1544 C1545 1.369 . S
C1544 C1546 1.419 . S
C1544 H1548 0.930 . S
C1545 C1544 1.369 . S
C1545 C1554 1.429 . S
C1546 C1544 1.419 . S
C1546 C1547 1.363 . S
C1546 H1549 0.929 . S
C1547 C1546 1.363 . S
C1547 C1553 1.428 . S
H1548 C1544 0.930 . S
H1549 C1546 0.929 . S
S1550 N1551 1.613 . S
S1550 N1552 1.610 . S
N1551 S1550 1.613 . S
N1551 C1554 1.350 . S
N1552 S1550 1.610 . S
N1552 C1553 1.351 . S
C1553 C1547 1.428 . S
C1553 N1552 1.351 . S
C1553 C1554 1.434 . S
C1554 C1545 1.429 . S
C1554 N1551 1.350 . S
C1554 C1553 1.434 . S
C1555 C1556 1.369 . S
C1555 C1557 1.419 . S
C1555 H1559 0.930 . S
C1556 C1555 1.369 . S
C1556 C1565 1.429 . S
C1557 C1555 1.419 . S
C1557 C1558 1.363 . S
C1557 H1560 0.929 . S
C1558 C1557 1.363 . S
C1558 C1564 1.428 . S
H1559 C1555 0.930 . S
H1560 C1557 0.929 . S
S1561 N1562 1.613 . S
S1561 N1563 1.610 . S
N1562 S1561 1.613 . S
N1562 C1565 1.350 . S
N1563 S1561 1.610 . S
N1563 C1564 1.351 . S
C1564 C1558 1.428 . S
C1564 N1563 1.351 . S
C1564 C1565 1.434 . S
C1565 C1556 1.429 . S
C1565 N1562 1.350 . S
C1565 C1564 1.434 . S
C1566 C1567 1.369 . S
C1566 C1568 1.419 . S
C1566 H1570 0.930 . S
C1567 C1566 1.369 . S
C1567 C1576 1.429 . S
C1568 C1566 1.419 . S
C1568 C1569 1.363 . S
C1568 H1571 0.929 . S
C1569 C1568 1.363 . S
C1569 C1575 1.428 . S
H1570 C1566 0.930 . S
H1571 C1568 0.929 . S
S1572 N1573 1.613 . S
S1572 N1574 1.610 . S
N1573 S1572 1.613 . S
N1573 C1576 1.350 . S
N1574 S1572 1.610 . S
N1574 C1575 1.351 . S
C1575 C1569 1.428 . S
C1575 N1574 1.351 . S
C1575 C1576 1.434 . S
C1576 C1567 1.429 . S
C1576 N1573 1.350 . S
C1576 C1575 1.434 . S
C1577 C1578 1.369 . S
C1577 C1579 1.419 . S
C1577 H1581 0.930 . S
C1578 C1577 1.369 . S
C1578 C1587 1.429 . S
C1579 C1577 1.419 . S
C1579 C1580 1.363 . S
C1579 H1582 0.929 . S
C1580 C1579 1.363 . S
C1580 C1586 1.428 . S
H1581 C1577 0.930 . S
H1582 C1579 0.929 . S
S1583 N1584 1.613 . S
S1583 N1585 1.610 . S
N1584 S1583 1.613 . S
N1584 C1587 1.350 . S
N1585 S1583 1.610 . S
N1585 C1586 1.351 . S
C1586 C1580 1.428 . S
C1586 N1585 1.351 . S
C1586 C1587 1.434 . S
C1587 C1578 1.429 . S
C1587 N1584 1.350 . S
C1587 C1586 1.434 . S
C1588 C1589 1.369 . S
C1588 C1590 1.419 . S
C1588 H1592 0.930 . S
C1589 C1588 1.369 . S
C1589 C1598 1.429 . S
C1590 C1588 1.419 . S
C1590 C1591 1.363 . S
C1590 H1593 0.929 . S
C1591 C1590 1.363 . S
C1591 C1597 1.428 . S
H1592 C1588 0.930 . S
H1593 C1590 0.929 . S
S1594 N1595 1.613 . S
S1594 N1596 1.610 . S
N1595 S1594 1.613 . S
N1595 C1598 1.350 . S
N1596 S1594 1.610 . S
N1596 C1597 1.351 . S
C1597 C1591 1.428 . S
C1597 N1596 1.351 . S
C1597 C1598 1.434 . S
C1598 C1589 1.429 . S
C1598 N1595 1.350 . S
C1598 C1597 1.434 . S
C1599 C1600 1.369 . S
C1599 C1601 1.419 . S
C1599 H1603 0.930 . S
C1600 C1599 1.369 . S
C1600 C1609 1.429 . S
C1601 C1599 1.419 . S
C1601 C1602 1.363 . S
C1601 H1604 0.929 . S
C1602 C1601 1.363 . S
C1602 C1608 1.428 . S
H1603 C1599 0.930 . S
H1604 C1601 0.929 . S
S1605 N1606 1.613 1_556 S
S1605 N1607 1.610 1_556 S
N1606 S1605 1.613 1_554 S
N1606 C1609 1.350 . S
N1607 S1605 1.610 1_554 S
N1607 C1608 1.351 . S
C1608 C1602 1.428 . S
C1608 N1607 1.351 . S
C1608 C1609 1.434 . S
C1609 C1600 1.429 . S
C1609 N1606 1.350 . S
C1609 C1608 1.434 . S
C1610 C1611 1.369 . S
C1610 C1612 1.419 . S
C1610 H1614 0.930 . S
C1611 C1610 1.369 . S
C1611 C1620 1.429 . S
C1612 C1610 1.419 . S
C1612 C1613 1.363 . S
C1612 H1615 0.929 . S
C1613 C1612 1.363 . S
C1613 C1619 1.428 . S
H1614 C1610 0.930 . S
H1615 C1612 0.929 . S
S1616 N1617 1.613 . S
S1616 N1618 1.610 . S
N1617 S1616 1.613 . S
N1617 C1620 1.350 . S
N1618 S1616 1.610 . S
N1618 C1619 1.351 . S
C1619 C1613 1.428 . S
C1619 N1618 1.351 . S
C1619 C1620 1.434 . S
C1620 C1611 1.429 . S
C1620 N1617 1.350 . S
C1620 C1619 1.434 . S
C1621 C1622 1.369 . S
C1621 C1623 1.419 . S
C1621 H1625 0.930 . S
C1622 C1621 1.369 . S
C1622 C1631 1.429 . S
C1623 C1621 1.419 . S
C1623 C1624 1.363 . S
C1623 H1626 0.929 . S
C1624 C1623 1.363 . S
C1624 C1630 1.428 . S
H1625 C1621 0.930 . S
H1626 C1623 0.929 . S
S1627 N1628 1.613 . S
S1627 N1629 1.610 . S
N1628 S1627 1.613 . S
N1628 C1631 1.350 . S
N1629 S1627 1.610 . S
N1629 C1630 1.351 . S
C1630 C1624 1.428 . S
C1630 N1629 1.351 . S
C1630 C1631 1.434 . S
C1631 C1622 1.429 . S
C1631 N1628 1.350 . S
C1631 C1630 1.434 . S
C1632 C1633 1.369 . S
C1632 C1634 1.419 . S
C1632 H1636 0.930 . S
C1633 C1632 1.369 . S
C1633 C1642 1.429 . S
C1634 C1632 1.419 . S
C1634 C1635 1.363 . S
C1634 H1637 0.929 . S
C1635 C1634 1.363 . S
C1635 C1641 1.428 . S
H1636 C1632 0.930 . S
H1637 C1634 0.929 . S
S1638 N1639 1.613 . S
S1638 N1640 1.610 . S
N1639 S1638 1.613 . S
N1639 C1642 1.350 . S
N1640 S1638 1.610 . S
N1640 C1641 1.351 . S
C1641 C1635 1.428 . S
C1641 N1640 1.351 . S
C1641 C1642 1.434 . S
C1642 C1633 1.429 . S
C1642 N1639 1.350 . S
C1642 C1641 1.434 . S
C1643 C1644 1.369 . S
C1643 C1645 1.419 . S
C1643 H1647 0.930 . S
C1644 C1643 1.369 . S
C1644 C1653 1.429 1_545 S
C1645 C1643 1.419 . S
C1645 C1646 1.363 1_545 S
C1645 H1648 0.929 . S
C1646 C1645 1.363 1_565 S
C1646 C1652 1.428 . S
H1647 C1643 0.930 . S
H1648 C1645 0.929 . S
S1649 N1650 1.613 . S
S1649 N1651 1.610 . S
N1650 S1649 1.613 . S
N1650 C1653 1.350 . S
N1651 S1649 1.610 . S
N1651 C1652 1.351 . S
C1652 C1646 1.428 . S
C1652 N1651 1.351 . S
C1652 C1653 1.434 . S
C1653 C1644 1.429 1_565 S
C1653 N1650 1.350 . S
C1653 C1652 1.434 . S
C1654 C1655 1.369 . S
C1654 C1656 1.419 . S
C1654 H1658 0.930 . S
C1655 C1654 1.369 . S
C1655 C1664 1.429 1_565 S
C1656 C1654 1.419 . S
C1656 C1657 1.363 1_565 S
C1656 H1659 0.929 . S
C1657 C1656 1.363 1_545 S
C1657 C1663 1.428 . S
H1658 C1654 0.930 . S
H1659 C1656 0.929 . S
S1660 N1661 1.613 . S
S1660 N1662 1.610 . S
N1661 S1660 1.613 . S
N1661 C1664 1.350 . S
N1662 S1660 1.610 . S
N1662 C1663 1.351 . S
C1663 C1657 1.428 . S
C1663 N1662 1.351 . S
C1663 C1664 1.434 . S
C1664 C1655 1.429 1_545 S
C1664 N1661 1.350 . S
C1664 C1663 1.434 . S
C1665 C1666 1.369 . S
C1665 C1667 1.419 . S
C1665 H1669 0.930 . S
C1666 C1665 1.369 . S
C1666 C1675 1.429 . S
C1667 C1665 1.419 . S
C1667 C1668 1.363 . S
C1667 H1670 0.929 . S
C1668 C1667 1.363 . S
C1668 C1674 1.428 . S
H1669 C1665 0.930 . S
H1670 C1667 0.929 . S
S1671 N1672 1.613 . S
S1671 N1673 1.610 . S
N1672 S1671 1.613 . S
N1672 C1675 1.350 . S
N1673 S1671 1.610 . S
N1673 C1674 1.351 . S
C1674 C1668 1.428 . S
C1674 N1673 1.351 . S
C1674 C1675 1.434 . S
C1675 C1666 1.429 . S
C1675 N1672 1.350 . S
C1675 C1674 1.434 . S
C1676 C1677 1.369 . S
C1676 C1678 1.419 . S
C1676 H1680 0.930 . S
C1677 C1676 1.369 . S
C1677 C1686 1.429 . S
C1678 C1676 1.419 . S
C1678 C1679 1.363 . S
C1678 H1681 0.929 . S
C1679 C1678 1.363 . S
C1679 C1685 1.428 . S
H1680 C1676 0.930 . S
H1681 C1678 0.929 . S
S1682 N1683 1.613 . S
S1682 N1684 1.610 . S
N1683 S1682 1.613 . S
N1683 C1686 1.350 . S
N1684 S1682 1.610 . S
N1684 C1685 1.351 . S
C1685 C1679 1.428 . S
C1685 N1684 1.351 . S
C1685 C1686 1.434 . S
C1686 C1677 1.429 . S
C1686 N1683 1.350 . S
C1686 C1685 1.434 . S
C1687 C1688 1.369 1_565 S
C1687 C1689 1.419 . S
C1687 H1691 0.930 . S
C1688 C1687 1.369 1_545 S
C1688 C1697 1.429 . S
C1689 C1687 1.419 . S
C1689 C1690 1.363 . S
C1689 H1692 0.929 . S
C1690 C1689 1.363 . S
C1690 C1696 1.428 1_565 S
H1691 C1687 0.930 . S
H1692 C1689 0.929 . S
S1693 N1694 1.613 . S
S1693 N1695 1.610 . S
N1694 S1693 1.613 . S
N1694 C1697 1.350 . S
N1695 S1693 1.610 . S
N1695 C1696 1.351 . S
C1696 C1690 1.428 1_545 S
C1696 N1695 1.351 . S
C1696 C1697 1.434 . S
C1697 C1688 1.429 . S
C1697 N1694 1.350 . S
C1697 C1696 1.434 . S
C1698 C1699 1.369 1_565 S
C1698 C1700 1.419 . S
C1698 H1702 0.930 . S
C1699 C1698 1.369 1_545 S
C1699 C1708 1.429 . S
C1700 C1698 1.419 . S
C1700 C1701 1.363 . S
C1700 H1703 0.929 . S
C1701 C1700 1.363 . S
C1701 C1707 1.428 1_565 S
H1702 C1698 0.930 . S
H1703 C1700 0.929 . S
S1704 N1705 1.613 . S
S1704 N1706 1.610 . S
N1705 S1704 1.613 . S
N1705 C1708 1.350 . S
N1706 S1704 1.610 . S
N1706 C1707 1.351 . S
C1707 C1701 1.428 1_545 S
C1707 N1706 1.351 . S
C1707 C1708 1.434 . S
C1708 C1699 1.429 . S
C1708 N1705 1.350 . S
C1708 C1707 1.434 . S
C1709 C1710 1.369 . S
C1709 C1711 1.419 . S
C1709 H1713 0.930 . S
C1710 C1709 1.369 . S
C1710 C1719 1.429 . S
C1711 C1709 1.419 . S
C1711 C1712 1.363 . S
C1711 H1714 0.929 . S
C1712 C1711 1.363 . S
C1712 C1718 1.428 . S
H1713 C1709 0.930 . S
H1714 C1711 0.929 . S
S1715 N1716 1.613 . S
S1715 N1717 1.610 . S
N1716 S1715 1.613 . S
N1716 C1719 1.350 . S
N1717 S1715 1.610 . S
N1717 C1718 1.351 . S
C1718 C1712 1.428 . S
C1718 N1717 1.351 . S
C1718 C1719 1.434 . S
C1719 C1710 1.429 . S
C1719 N1716 1.350 . S
C1719 C1718 1.434 . S
C1720 C1721 1.369 . S
C1720 C1722 1.419 . S
C1720 H1724 0.930 . S
C1721 C1720 1.369 . S
C1721 C1730 1.429 . S
C1722 C1720 1.419 . S
C1722 C1723 1.363 . S
C1722 H1725 0.929 . S
C1723 C1722 1.363 . S
C1723 C1729 1.428 . S
H1724 C1720 0.930 . S
H1725 C1722 0.929 . S
S1726 N1727 1.613 . S
S1726 N1728 1.610 . S
N1727 S1726 1.613 . S
N1727 C1730 1.350 . S
N1728 S1726 1.610 . S
N1728 C1729 1.351 . S
C1729 C1723 1.428 . S
C1729 N1728 1.351 . S
C1729 C1730 1.434 . S
C1730 C1721 1.429 . S
C1730 N1727 1.350 . S
C1730 C1729 1.434 . S
C1731 C1732 1.369 . S
C1731 C1733 1.419 . S
C1731 H1735 0.930 . S
C1732 C1731 1.369 . S
C1732 C1741 1.429 . S
C1733 C1731 1.419 . S
C1733 C1734 1.363 . S
C1733 H1736 0.929 . S
C1734 C1733 1.363 . S
C1734 C1740 1.428 . S
H1735 C1731 0.930 . S
H1736 C1733 0.929 . S
S1737 N1738 1.613 1_455 S
S1737 N1739 1.610 1_455 S
N1738 S1737 1.613 1_655 S
N1738 C1741 1.350 . S
N1739 S1737 1.610 1_655 S
N1739 C1740 1.351 . S
C1740 C1734 1.428 . S
C1740 N1739 1.351 . S
C1740 C1741 1.434 . S
C1741 C1732 1.429 . S
C1741 N1738 1.350 . S
C1741 C1740 1.434 . S
C1742 C1743 1.369 . S
C1742 C1744 1.419 1_556 S
C1742 H1746 0.930 . S
C1743 C1742 1.369 . S
C1743 C1752 1.429 1_556 S
C1744 C1742 1.419 1_554 S
C1744 C1745 1.363 . S
C1744 H1747 0.929 . S
C1745 C1744 1.363 . S
C1745 C1751 1.428 . S
H1746 C1742 0.930 . S
H1747 C1744 0.929 . S
S1748 N1749 1.613 . S
S1748 N1750 1.610 . S
N1749 S1748 1.613 . S
N1749 C1752 1.350 . S
N1750 S1748 1.610 . S
N1750 C1751 1.351 . S
C1751 C1745 1.428 . S
C1751 N1750 1.351 . S
C1751 C1752 1.434 . S
C1752 C1743 1.429 1_554 S
C1752 N1749 1.350 . S
C1752 C1751 1.434 . S
C1753 C1754 1.369 1_554 S
C1753 C1755 1.419 . S
C1753 H1757 0.930 . S
C1754 C1753 1.369 1_556 S
C1754 C1763 1.429 . S
C1755 C1753 1.419 . S
C1755 C1756 1.363 . S
C1755 H1758 0.929 . S
C1756 C1755 1.363 . S
C1756 C1762 1.428 . S
H1757 C1753 0.930 . S
H1758 C1755 0.929 . S
S1759 N1760 1.613 . S
S1759 N1761 1.610 . S
N1760 S1759 1.613 . S
N1760 C1763 1.350 . S
N1761 S1759 1.610 . S
N1761 C1762 1.351 1_556 S
C1762 C1756 1.428 . S
C1762 N1761 1.351 1_554 S
C1762 C1763 1.434 1_554 S
C1763 C1754 1.429 . S
C1763 N1760 1.350 . S
C1763 C1762 1.434 1_556 S
C1764 C1765 1.369 . S
C1764 C1766 1.419 . S
C1764 H1768 0.930 . S
C1765 C1764 1.369 . S
C1765 C1774 1.429 . S
C1766 C1764 1.419 . S
C1766 C1767 1.363 . S
C1766 H1769 0.929 . S
C1767 C1766 1.363 . S
C1767 C1773 1.428 . S
H1768 C1764 0.930 . S
H1769 C1766 0.929 . S
S1770 N1771 1.613 . S
S1770 N1772 1.610 . S
N1771 S1770 1.613 . S
N1771 C1774 1.350 . S
N1772 S1770 1.610 . S
N1772 C1773 1.351 . S
C1773 C1767 1.428 . S
C1773 N1772 1.351 . S
C1773 C1774 1.434 . S
C1774 C1765 1.429 . S
C1774 N1771 1.350 . S
C1774 C1773 1.434 . S
C1775 C1776 1.369 . S
C1775 C1777 1.419 . S
C1775 H1779 0.930 . S
C1776 C1775 1.369 . S
C1776 C1785 1.429 . S
C1777 C1775 1.419 . S
C1777 C1778 1.363 . S
C1777 H1780 0.929 . S
C1778 C1777 1.363 . S
C1778 C1784 1.428 . S
H1779 C1775 0.930 . S
H1780 C1777 0.929 . S
S1781 N1782 1.613 . S
S1781 N1783 1.610 . S
N1782 S1781 1.613 . S
N1782 C1785 1.350 . S
N1783 S1781 1.610 . S
N1783 C1784 1.351 . S
C1784 C1778 1.428 . S
C1784 N1783 1.351 . S
C1784 C1785 1.434 . S
C1785 C1776 1.429 . S
C1785 N1782 1.350 . S
C1785 C1784 1.434 . S
C1786 C1787 1.369 . S
C1786 C1788 1.419 1_554 S
C1786 H1790 0.930 . S
C1787 C1786 1.369 . S
C1787 C1796 1.429 1_554 S
C1788 C1786 1.419 1_556 S
C1788 C1789 1.363 . S
C1788 H1791 0.929 . S
C1789 C1788 1.363 . S
C1789 C1795 1.428 . S
H1790 C1786 0.930 . S
H1791 C1788 0.929 . S
S1792 N1793 1.613 . S
S1792 N1794 1.610 . S
N1793 S1792 1.613 . S
N1793 C1796 1.350 . S
N1794 S1792 1.610 . S
N1794 C1795 1.351 . S
C1795 C1789 1.428 . S
C1795 N1794 1.351 . S
C1795 C1796 1.434 . S
C1796 C1787 1.429 1_556 S
C1796 N1793 1.350 . S
C1796 C1795 1.434 . S
C1797 C1798 1.369 . S
C1797 C1799 1.419 1_556 S
C1797 H1801 0.930 . S
C1798 C1797 1.369 . S
C1798 C1807 1.429 . S
C1799 C1797 1.419 1_554 S
C1799 C1800 1.363 . S
C1799 H1802 0.929 . S
C1800 C1799 1.363 . S
C1800 C1806 1.428 1_554 S
H1801 C1797 0.930 . S
H1802 C1799 0.929 . S
S1803 N1804 1.613 . S
S1803 N1805 1.610 . S
N1804 S1803 1.613 . S
N1804 C1807 1.350 . S
N1805 S1803 1.610 . S
N1805 C1806 1.351 . S
C1806 C1800 1.428 1_556 S
C1806 N1805 1.351 . S
C1806 C1807 1.434 . S
C1807 C1798 1.429 . S
C1807 N1804 1.350 . S
C1807 C1806 1.434 . S
C1808 C1809 1.369 . S
C1808 C1810 1.419 . S
C1808 H1812 0.930 . S
C1809 C1808 1.369 . S
C1809 C1818 1.429 . S
C1810 C1808 1.419 . S
C1810 C1811 1.363 . S
C1810 H1813 0.929 . S
C1811 C1810 1.363 . S
C1811 C1817 1.428 . S
H1812 C1808 0.930 . S
H1813 C1810 0.929 . S
S1814 N1815 1.613 . S
S1814 N1816 1.610 . S
N1815 S1814 1.613 . S
N1815 C1818 1.350 . S
N1816 S1814 1.610 . S
N1816 C1817 1.351 . S
C1817 C1811 1.428 . S
C1817 N1816 1.351 . S
C1817 C1818 1.434 . S
C1818 C1809 1.429 . S
C1818 N1815 1.350 . S
C1818 C1817 1.434 . S
C1819 C1820 1.369 . S
C1819 C1821 1.419 1_565 S
C1819 H1823 0.930 . S
C1820 C1819 1.369 . S
C1820 C1829 1.429 . S
C1821 C1819 1.419 1_545 S
C1821 C1822 1.363 . S
C1821 H1824 0.929 . S
C1822 C1821 1.363 . S
C1822 C1828 1.428 . S
H1823 C1819 0.930 . S
H1824 C1821 0.929 . S
S1825 N1826 1.613 1_545 S
S1825 N1827 1.610 . S
N1826 S1825 1.613 1_565 S
N1826 C1829 1.350 . S
N1827 S1825 1.610 . S
N1827 C1828 1.351 . S
C1828 C1822 1.428 . S
C1828 N1827 1.351 . S
C1828 C1829 1.434 1_545 S
C1829 C1820 1.429 . S
C1829 N1826 1.350 . S
C1829 C1828 1.434 1_565 S
C1830 C1831 1.369 . S
C1830 C1832 1.419 1_566 S
C1830 H1834 0.930 . S
C1831 C1830 1.369 . S
C1831 C1840 1.429 1_556 S
C1832 C1830 1.419 1_544 S
C1832 C1833 1.363 . S
C1832 H1835 0.929 . S
C1833 C1832 1.363 . S
C1833 C1839 1.428 . S
H1834 C1830 0.930 . S
H1835 C1832 0.929 . S
S1836 N1837 1.613 . S
S1836 N1838 1.610 1_565 S
N1837 S1836 1.613 . S
N1837 C1840 1.350 . S
N1838 S1836 1.610 1_545 S
N1838 C1839 1.351 . S
C1839 C1833 1.428 . S
C1839 N1838 1.351 . S
C1839 C1840 1.434 1_545 S
C1840 C1831 1.429 1_554 S
C1840 N1837 1.350 . S
C1840 C1839 1.434 1_565 S
C1841 C1842 1.369 1_554 S
C1841 C1843 1.419 . S
C1841 H1845 0.930 1_554 S
C1842 C1841 1.369 1_556 S
C1842 C1851 1.429 1_556 S
C1843 C1841 1.419 . S
C1843 C1844 1.363 . S
C1843 H1846 0.929 . S
C1844 C1843 1.363 . S
C1844 C1850 1.428 . S
H1845 C1841 0.930 1_556 S
H1846 C1843 0.929 . S
S1847 N1848 1.613 1_554 S
S1847 N1849 1.610 . S
N1848 S1847 1.613 1_556 S
N1848 C1851 1.350 1_556 S
N1849 S1847 1.610 . S
N1849 C1850 1.351 . S
C1850 C1844 1.428 . S
C1850 N1849 1.351 . S
C1850 C1851 1.434 . S
C1851 C1842 1.429 1_554 S
C1851 N1848 1.350 1_554 S
C1851 C1850 1.434 . S
C1852 C1853 1.369 . S
C1852 C1854 1.419 . S
C1852 H1856 0.930 . S
C1853 C1852 1.369 . S
C1853 C1862 1.429 . S
C1854 C1852 1.419 . S
C1854 C1855 1.363 . S
C1854 H1857 0.929 . S
C1855 C1854 1.363 . S
C1855 C1861 1.428 . S
H1856 C1852 0.930 . S
H1857 C1854 0.929 . S
S1858 N1859 1.613 . S
S1858 N1860 1.610 . S
N1859 S1858 1.613 . S
N1859 C1862 1.350 . S
N1860 S1858 1.610 . S
N1860 C1861 1.351 . S
C1861 C1855 1.428 . S
C1861 N1860 1.351 . S
C1861 C1862 1.434 . S
C1862 C1853 1.429 . S
C1862 N1859 1.350 . S
C1862 C1861 1.434 . S
C1863 C1864 1.369 . S
C1863 C1865 1.419 1_545 S
C1863 H1867 0.930 . S
C1864 C1863 1.369 . S
C1864 C1873 1.429 . S
C1865 C1863 1.419 1_565 S
C1865 C1866 1.363 . S
C1865 H1868 0.929 . S
C1866 C1865 1.363 . S
C1866 C1872 1.428 . S
H1867 C1863 0.930 . S
H1868 C1865 0.929 . S
S1869 N1870 1.613 1_565 S
S1869 N1871 1.610 . S
N1870 S1869 1.613 1_545 S
N1870 C1873 1.350 . S
N1871 S1869 1.610 . S
N1871 C1872 1.351 . S
C1872 C1866 1.428 . S
C1872 N1871 1.351 . S
C1872 C1873 1.434 1_565 S
C1873 C1864 1.429 . S
C1873 N1870 1.350 . S
C1873 C1872 1.434 1_545 S
C1874 C1875 1.369 . S
C1874 C1876 1.419 1_566 S
C1874 H1878 0.930 . S
C1875 C1874 1.369 . S
C1875 C1884 1.429 . S
C1876 C1874 1.419 1_544 S
C1876 C1877 1.363 . S
C1876 H1879 0.929 . S
C1877 C1876 1.363 . S
C1877 C1883 1.428 1_554 S
H1878 C1874 0.930 . S
H1879 C1876 0.929 . S
S1880 N1881 1.613 . S
S1880 N1882 1.610 . S
N1881 S1880 1.613 . S
N1881 C1884 1.350 1_545 S
N1882 S1880 1.610 . S
N1882 C1883 1.351 . S
C1883 C1877 1.428 1_556 S
C1883 N1882 1.351 . S
C1883 C1884 1.434 1_545 S
C1884 C1875 1.429 . S
C1884 N1881 1.350 1_565 S
C1884 C1883 1.434 1_565 S
C1885 C1886 1.369 . S
C1885 C1887 1.419 1_556 S
C1885 H1889 0.930 . S
C1886 C1885 1.369 . S
C1886 C1895 1.429 . S
C1887 C1885 1.419 1_554 S
C1887 C1888 1.363 . S
C1887 H1890 0.929 . S
C1888 C1887 1.363 . S
C1888 C1894 1.428 1_554 S
H1889 C1885 0.930 . S
H1890 C1887 0.929 . S
S1891 N1892 1.613 . S
S1891 N1893 1.610 . S
N1892 S1891 1.613 . S
N1892 C1895 1.350 . S
N1893 S1891 1.610 . S
N1893 C1894 1.351 . S
C1894 C1888 1.428 1_556 S
C1894 N1893 1.351 . S
C1894 C1895 1.434 . S
C1895 C1886 1.429 . S
C1895 N1892 1.350 . S
C1895 C1894 1.434 . S
C1896 C1897 1.369 . S
C1896 C1898 1.419 . S
C1896 H1900 0.930 . S
C1897 C1896 1.369 . S
C1897 C1906 1.429 . S
C1898 C1896 1.419 . S
C1898 C1899 1.363 . S
C1898 H1901 0.929 . S
C1899 C1898 1.363 . S
C1899 C1905 1.428 . S
H1900 C1896 0.930 . S
H1901 C1898 0.929 . S
S1902 N1903 1.613 . S
S1902 N1904 1.610 . S
N1903 S1902 1.613 . S
N1903 C1906 1.350 . S
N1904 S1902 1.610 . S
N1904 C1905 1.351 . S
C1905 C1899 1.428 . S
C1905 N1904 1.351 . S
C1905 C1906 1.434 . S
C1906 C1897 1.429 . S
C1906 N1903 1.350 . S
C1906 C1905 1.434 . S
C1907 C1908 1.369 . S
C1907 C1909 1.419 . S
C1907 H1911 0.930 . S
C1908 C1907 1.369 . S
C1908 C1917 1.429 . S
C1909 C1907 1.419 . S
C1909 C1910 1.363 . S
C1909 H1912 0.929 . S
C1910 C1909 1.363 . S
C1910 C1916 1.428 . S
H1911 C1907 0.930 . S
H1912 C1909 0.929 . S
S1913 N1914 1.613 . S
S1913 N1915 1.610 . S
N1914 S1913 1.613 . S
N1914 C1917 1.350 . S
N1915 S1913 1.610 . S
N1915 C1916 1.351 . S
C1916 C1910 1.428 . S
C1916 N1915 1.351 . S
C1916 C1917 1.434 . S
C1917 C1908 1.429 . S
C1917 N1914 1.350 . S
C1917 C1916 1.434 . S
C1918 C1919 1.369 . S
C1918 C1920 1.419 . S
C1918 H1922 0.930 . S
C1919 C1918 1.369 . S
C1919 C1928 1.429 . S
C1920 C1918 1.419 . S
C1920 C1921 1.363 . S
C1920 H1923 0.929 . S
C1921 C1920 1.363 . S
C1921 C1927 1.428 . S
H1922 C1918 0.930 . S
H1923 C1920 0.929 . S
S1924 N1925 1.613 . S
S1924 N1926 1.610 . S
N1925 S1924 1.613 . S
N1925 C1928 1.350 . S
N1926 S1924 1.610 . S
N1926 C1927 1.351 . S
C1927 C1921 1.428 . S
C1927 N1926 1.351 . S
C1927 C1928 1.434 . S
C1928 C1919 1.429 . S
C1928 N1925 1.350 . S
C1928 C1927 1.434 . S
C1929 C1930 1.369 . S
C1929 C1931 1.419 . S
C1929 H1933 0.930 . S
C1930 C1929 1.369 . S
C1930 C1939 1.429 . S
C1931 C1929 1.419 . S
C1931 C1932 1.363 . S
C1931 H1934 0.929 . S
C1932 C1931 1.363 . S
C1932 C1938 1.428 . S
H1933 C1929 0.930 . S
H1934 C1931 0.929 . S
S1935 N1936 1.613 . S
S1935 N1937 1.610 . S
N1936 S1935 1.613 . S
N1936 C1939 1.350 . S
N1937 S1935 1.610 . S
N1937 C1938 1.351 . S
C1938 C1932 1.428 . S
C1938 N1937 1.351 . S
C1938 C1939 1.434 . S
C1939 C1930 1.429 . S
C1939 N1936 1.350 . S
C1939 C1938 1.434 . S
C1940 C1941 1.369 . S
C1940 C1942 1.419 . S
C1940 H1944 0.930 . S
C1941 C1940 1.369 . S
C1941 C1950 1.429 . S
C1942 C1940 1.419 . S
C1942 C1943 1.363 . S
C1942 H1945 0.929 . S
C1943 C1942 1.363 . S
C1943 C1949 1.428 . S
H1944 C1940 0.930 . S
H1945 C1942 0.929 . S
S1946 N1947 1.613 . S
S1946 N1948 1.610 . S
N1947 S1946 1.613 . S
N1947 C1950 1.350 . S
N1948 S1946 1.610 . S
N1948 C1949 1.351 . S
C1949 C1943 1.428 . S
C1949 N1948 1.351 . S
C1949 C1950 1.434 . S
C1950 C1941 1.429 . S
C1950 N1947 1.350 . S
C1950 C1949 1.434 . S
C1951 C1952 1.369 . S
C1951 C1953 1.419 . S
C1951 H1955 0.930 . S
C1952 C1951 1.369 . S
C1952 C1961 1.429 . S
C1953 C1951 1.419 . S
C1953 C1954 1.363 . S
C1953 H1956 0.929 . S
C1954 C1953 1.363 . S
C1954 C1960 1.428 . S
H1955 C1951 0.930 . S
H1956 C1953 0.929 . S
S1957 N1958 1.613 . S
S1957 N1959 1.610 . S
N1958 S1957 1.613 . S
N1958 C1961 1.350 . S
N1959 S1957 1.610 . S
N1959 C1960 1.351 . S
C1960 C1954 1.428 . S
C1960 N1959 1.351 . S
C1960 C1961 1.434 . S
C1961 C1952 1.429 . S
C1961 N1958 1.350 . S
C1961 C1960 1.434 . S
C1962 C1963 1.369 . S
C1962 C1964 1.419 . S
C1962 H1966 0.930 . S
C1963 C1962 1.369 . S
C1963 C1972 1.429 . S
C1964 C1962 1.419 . S
C1964 C1965 1.363 . S
C1964 H1967 0.929 . S
C1965 C1964 1.363 . S
C1965 C1971 1.428 . S
H1966 C1962 0.930 . S
H1967 C1964 0.929 . S
S1968 N1969 1.613 . S
S1968 N1970 1.610 . S
N1969 S1968 1.613 . S
N1969 C1972 1.350 . S
N1970 S1968 1.610 . S
N1970 C1971 1.351 . S
C1971 C1965 1.428 . S
C1971 N1970 1.351 . S
C1971 C1972 1.434 . S
C1972 C1963 1.429 . S
C1972 N1969 1.350 . S
C1972 C1971 1.434 . S
C1973 C1974 1.369 . S
C1973 C1975 1.419 . S
C1973 H1977 0.930 . S
C1974 C1973 1.369 . S
C1974 C1983 1.429 . S
C1975 C1973 1.419 . S
C1975 C1976 1.363 . S
C1975 H1978 0.929 . S
C1976 C1975 1.363 . S
C1976 C1982 1.428 . S
H1977 C1973 0.930 . S
H1978 C1975 0.929 . S
S1979 N1980 1.613 . S
S1979 N1981 1.610 . S
N1980 S1979 1.613 . S
N1980 C1983 1.350 . S
N1981 S1979 1.610 . S
N1981 C1982 1.351 . S
C1982 C1976 1.428 . S
C1982 N1981 1.351 . S
C1982 C1983 1.434 . S
C1983 C1974 1.429 . S
C1983 N1980 1.350 . S
C1983 C1982 1.434 . S
C1984 C1985 1.369 . S
C1984 C1986 1.419 . S
C1984 H1988 0.930 . S
C1985 C1984 1.369 . S
C1985 C1994 1.429 . S
C1986 C1984 1.419 . S
C1986 C1987 1.363 . S
C1986 H1989 0.929 . S
C1987 C1986 1.363 . S
C1987 C1993 1.428 . S
H1988 C1984 0.930 . S
H1989 C1986 0.929 . S
S1990 N1991 1.613 . S
S1990 N1992 1.610 . S
N1991 S1990 1.613 . S
N1991 C1994 1.350 . S
N1992 S1990 1.610 . S
N1992 C1993 1.351 . S
C1993 C1987 1.428 . S
C1993 N1992 1.351 . S
C1993 C1994 1.434 . S
C1994 C1985 1.429 . S
C1994 N1991 1.350 . S
C1994 C1993 1.434 . S
C1995 C1996 1.369 . S
C1995 C1997 1.419 . S
C1995 H1999 0.930 . S
C1996 C1995 1.369 . S
C1996 C2005 1.429 . S
C1997 C1995 1.419 . S
C1997 C1998 1.363 . S
C1997 H2000 0.929 . S
C1998 C1997 1.363 . S
C1998 C2004 1.428 . S
H1999 C1995 0.930 . S
H2000 C1997 0.929 . S
S2001 N2002 1.613 . S
S2001 N2003 1.610 . S
N2002 S2001 1.613 . S
N2002 C2005 1.350 . S
N2003 S2001 1.610 . S
N2003 C2004 1.351 . S
C2004 C1998 1.428 . S
C2004 N2003 1.351 . S
C2004 C2005 1.434 . S
C2005 C1996 1.429 . S
C2005 N2002 1.350 . S
C2005 C2004 1.434 . S
C2006 C2007 1.369 . S
C2006 C2008 1.419 . S
C2006 H2010 0.930 . S
C2007 C2006 1.369 . S
C2007 C2016 1.429 . S
C2008 C2006 1.419 . S
C2008 C2009 1.363 . S
C2008 H2011 0.929 . S
C2009 C2008 1.363 . S
C2009 C2015 1.428 . S
H2010 C2006 0.930 . S
H2011 C2008 0.929 . S
S2012 N2013 1.613 . S
S2012 N2014 1.610 . S
N2013 S2012 1.613 . S
N2013 C2016 1.350 . S
N2014 S2012 1.610 . S
N2014 C2015 1.351 . S
C2015 C2009 1.428 . S
C2015 N2014 1.351 . S
C2015 C2016 1.434 . S
C2016 C2007 1.429 . S
C2016 N2013 1.350 . S
C2016 C2015 1.434 . S
C2017 C2018 1.369 . S
C2017 C2019 1.419 . S
C2017 H2021 0.930 . S
C2018 C2017 1.369 . S
C2018 C2027 1.429 . S
C2019 C2017 1.419 . S
C2019 C2020 1.363 . S
C2019 H2022 0.929 . S
C2020 C2019 1.363 . S
C2020 C2026 1.428 . S
H2021 C2017 0.930 . S
H2022 C2019 0.929 . S
S2023 N2024 1.613 . S
S2023 N2025 1.610 . S
N2024 S2023 1.613 . S
N2024 C2027 1.350 . S
N2025 S2023 1.610 . S
N2025 C2026 1.351 . S
C2026 C2020 1.428 . S
C2026 N2025 1.351 . S
C2026 C2027 1.434 . S
C2027 C2018 1.429 . S
C2027 N2024 1.350 . S
C2027 C2026 1.434 . S
C2028 C2029 1.369 . S
C2028 C2030 1.419 . S
C2028 H2032 0.930 . S
C2029 C2028 1.369 . S
C2029 C2038 1.429 . S
C2030 C2028 1.419 . S
C2030 C2031 1.363 . S
C2030 H2033 0.929 . S
C2031 C2030 1.363 . S
C2031 C2037 1.428 . S
H2032 C2028 0.930 . S
H2033 C2030 0.929 . S
S2034 N2035 1.613 . S
S2034 N2036 1.610 . S
N2035 S2034 1.613 . S
N2035 C2038 1.350 . S
N2036 S2034 1.610 . S
N2036 C2037 1.351 . S
C2037 C2031 1.428 . S
C2037 N2036 1.351 . S
C2037 C2038 1.434 . S
C2038 C2029 1.429 . S
C2038 N2035 1.350 . S
C2038 C2037 1.434 . S
C2039 C2040 1.369 . S
C2039 C2041 1.419 . S
C2039 H2043 0.930 . S
C2040 C2039 1.369 . S
C2040 C2049 1.429 . S
C2041 C2039 1.419 . S
C2041 C2042 1.363 . S
C2041 H2044 0.929 . S
C2042 C2041 1.363 . S
C2042 C2048 1.428 . S
H2043 C2039 0.930 . S
H2044 C2041 0.929 . S
S2045 N2046 1.613 . S
S2045 N2047 1.610 . S
N2046 S2045 1.613 . S
N2046 C2049 1.350 . S
N2047 S2045 1.610 . S
N2047 C2048 1.351 . S
C2048 C2042 1.428 . S
C2048 N2047 1.351 . S
C2048 C2049 1.434 . S
C2049 C2040 1.429 . S
C2049 N2046 1.350 . S
C2049 C2048 1.434 . S
C2050 C2051 1.369 . S
C2050 C2052 1.419 . S
C2050 H2054 0.930 . S
C2051 C2050 1.369 . S
C2051 C2060 1.429 . S
C2052 C2050 1.419 . S
C2052 C2053 1.363 . S
C2052 H2055 0.929 . S
C2053 C2052 1.363 . S
C2053 C2059 1.428 . S
H2054 C2050 0.930 . S
H2055 C2052 0.929 . S
S2056 N2057 1.613 . S
S2056 N2058 1.610 . S
N2057 S2056 1.613 . S
N2057 C2060 1.350 . S
N2058 S2056 1.610 . S
N2058 C2059 1.351 . S
C2059 C2053 1.428 . S
C2059 N2058 1.351 . S
C2059 C2060 1.434 . S
C2060 C2051 1.429 . S
C2060 N2057 1.350 . S
C2060 C2059 1.434 . S
C2061 C2062 1.369 . S
C2061 C2063 1.419 . S
C2061 H2065 0.930 . S
C2062 C2061 1.369 . S
C2062 C2071 1.429 . S
C2063 C2061 1.419 . S
C2063 C2064 1.363 . S
C2063 H2066 0.929 . S
C2064 C2063 1.363 . S
C2064 C2070 1.428 . S
H2065 C2061 0.930 . S
H2066 C2063 0.929 . S
S2067 N2068 1.613 . S
S2067 N2069 1.610 . S
N2068 S2067 1.613 . S
N2068 C2071 1.350 . S
N2069 S2067 1.610 . S
N2069 C2070 1.351 . S
C2070 C2064 1.428 . S
C2070 N2069 1.351 . S
C2070 C2071 1.434 . S
C2071 C2062 1.429 . S
C2071 N2068 1.350 . S
C2071 C2070 1.434 . S
C2072 C2073 1.369 . S
C2072 C2074 1.419 . S
C2072 H2076 0.930 . S
C2073 C2072 1.369 . S
C2073 C2082 1.429 . S
C2074 C2072 1.419 . S
C2074 C2075 1.363 . S
C2074 H2077 0.929 . S
C2075 C2074 1.363 . S
C2075 C2081 1.428 . S
H2076 C2072 0.930 . S
H2077 C2074 0.929 . S
S2078 N2079 1.613 . S
S2078 N2080 1.610 . S
N2079 S2078 1.613 . S
N2079 C2082 1.350 . S
N2080 S2078 1.610 . S
N2080 C2081 1.351 . S
C2081 C2075 1.428 . S
C2081 N2080 1.351 . S
C2081 C2082 1.434 . S
C2082 C2073 1.429 . S
C2082 N2079 1.350 . S
C2082 C2081 1.434 . S
C2083 C2084 1.369 . S
C2083 C2085 1.419 . S
C2083 H2087 0.930 . S
C2084 C2083 1.369 . S
C2084 C2093 1.429 . S
C2085 C2083 1.419 . S
C2085 C2086 1.363 . S
C2085 H2088 0.929 . S
C2086 C2085 1.363 . S
C2086 C2092 1.428 . S
H2087 C2083 0.930 . S
H2088 C2085 0.929 . S
S2089 N2090 1.613 . S
S2089 N2091 1.610 . S
N2090 S2089 1.613 . S
N2090 C2093 1.350 . S
N2091 S2089 1.610 . S
N2091 C2092 1.351 . S
C2092 C2086 1.428 . S
C2092 N2091 1.351 . S
C2092 C2093 1.434 . S
C2093 C2084 1.429 . S
C2093 N2090 1.350 . S
C2093 C2092 1.434 . S
C2094 C2095 1.369 . S
C2094 C2096 1.419 . S
C2094 H2098 0.930 . S
C2095 C2094 1.369 . S
C2095 C2104 1.429 . S
C2096 C2094 1.419 . S
C2096 C2097 1.363 . S
C2096 H2099 0.929 . S
C2097 C2096 1.363 . S
C2097 C2103 1.428 . S
H2098 C2094 0.930 . S
H2099 C2096 0.929 . S
S2100 N2101 1.613 . S
S2100 N2102 1.610 . S
N2101 S2100 1.613 . S
N2101 C2104 1.350 . S
N2102 S2100 1.610 . S
N2102 C2103 1.351 . S
C2103 C2097 1.428 . S
C2103 N2102 1.351 . S
C2103 C2104 1.434 . S
C2104 C2095 1.429 . S
C2104 N2101 1.350 . S
C2104 C2103 1.434 . S
C2105 C2106 1.369 . S
C2105 C2107 1.419 . S
C2105 H2109 0.930 . S
C2106 C2105 1.369 . S
C2106 C2115 1.429 . S
C2107 C2105 1.419 . S
C2107 C2108 1.363 . S
C2107 H2110 0.929 . S
C2108 C2107 1.363 . S
C2108 C2114 1.428 . S
H2109 C2105 0.930 . S
H2110 C2107 0.929 . S
S2111 N2112 1.613 . S
S2111 N2113 1.610 . S
N2112 S2111 1.613 . S
N2112 C2115 1.350 . S
N2113 S2111 1.610 . S
N2113 C2114 1.351 . S
C2114 C2108 1.428 . S
C2114 N2113 1.351 . S
C2114 C2115 1.434 . S
C2115 C2106 1.429 . S
C2115 N2112 1.350 . S
C2115 C2114 1.434 . S
C2116 C2117 1.369 . S
C2116 C2118 1.419 . S
C2116 H2120 0.930 . S
C2117 C2116 1.369 . S
C2117 C2126 1.429 . S
C2118 C2116 1.419 . S
C2118 C2119 1.363 . S
C2118 H2121 0.929 . S
C2119 C2118 1.363 . S
C2119 C2125 1.428 . S
H2120 C2116 0.930 . S
H2121 C2118 0.929 . S
S2122 N2123 1.613 . S
S2122 N2124 1.610 . S
N2123 S2122 1.613 . S
N2123 C2126 1.350 . S
N2124 S2122 1.610 . S
N2124 C2125 1.351 . S
C2125 C2119 1.428 . S
C2125 N2124 1.351 . S
C2125 C2126 1.434 . S
C2126 C2117 1.429 . S
C2126 N2123 1.350 . S
C2126 C2125 1.434 . S
C2127 C2128 1.369 . S
C2127 C2129 1.419 . S
C2127 H2131 0.930 . S
C2128 C2127 1.369 . S
C2128 C2137 1.429 . S
C2129 C2127 1.419 . S
C2129 C2130 1.363 . S
C2129 H2132 0.929 . S
C2130 C2129 1.363 . S
C2130 C2136 1.428 . S
H2131 C2127 0.930 . S
H2132 C2129 0.929 . S
S2133 N2134 1.613 . S
S2133 N2135 1.610 . S
N2134 S2133 1.613 . S
N2134 C2137 1.350 . S
N2135 S2133 1.610 . S
N2135 C2136 1.351 . S
C2136 C2130 1.428 . S
C2136 N2135 1.351 . S
C2136 C2137 1.434 . S
C2137 C2128 1.429 . S
C2137 N2134 1.350 . S
C2137 C2136 1.434 . S
C2138 C2139 1.369 . S
C2138 C2140 1.419 . S
C2138 H2142 0.930 . S
C2139 C2138 1.369 . S
C2139 C2148 1.429 . S
C2140 C2138 1.419 . S
C2140 C2141 1.363 . S
C2140 H2143 0.929 . S
C2141 C2140 1.363 . S
C2141 C2147 1.428 . S
H2142 C2138 0.930 . S
H2143 C2140 0.929 . S
S2144 N2145 1.613 . S
S2144 N2146 1.610 . S
N2145 S2144 1.613 . S
N2145 C2148 1.350 . S
N2146 S2144 1.610 . S
N2146 C2147 1.351 . S
C2147 C2141 1.428 . S
C2147 N2146 1.351 . S
C2147 C2148 1.434 . S
C2148 C2139 1.429 . S
C2148 N2145 1.350 . S
C2148 C2147 1.434 . S
C2149 C2150 1.369 . S
C2149 C2151 1.419 . S
C2149 H2153 0.930 . S
C2150 C2149 1.369 . S
C2150 C2159 1.429 . S
C2151 C2149 1.419 . S
C2151 C2152 1.363 . S
C2151 H2154 0.929 . S
C2152 C2151 1.363 . S
C2152 C2158 1.428 . S
H2153 C2149 0.930 . S
H2154 C2151 0.929 . S
S2155 N2156 1.613 . S
S2155 N2157 1.610 . S
N2156 S2155 1.613 . S
N2156 C2159 1.350 . S
N2157 S2155 1.610 . S
N2157 C2158 1.351 . S
C2158 C2152 1.428 . S
C2158 N2157 1.351 . S
C2158 C2159 1.434 . S
C2159 C2150 1.429 . S
C2159 N2156 1.350 . S
C2159 C2158 1.434 . S
C2160 C2161 1.369 . S
C2160 C2162 1.419 . S
C2160 H2164 0.930 . S
C2161 C2160 1.369 . S
C2161 C2170 1.429 . S
C2162 C2160 1.419 . S
C2162 C2163 1.363 . S
C2162 H2165 0.929 . S
C2163 C2162 1.363 . S
C2163 C2169 1.428 . S
H2164 C2160 0.930 . S
H2165 C2162 0.929 . S
S2166 N2167 1.613 . S
S2166 N2168 1.610 . S
N2167 S2166 1.613 . S
N2167 C2170 1.350 . S
N2168 S2166 1.610 . S
N2168 C2169 1.351 . S
C2169 C2163 1.428 . S
C2169 N2168 1.351 . S
C2169 C2170 1.434 . S
C2170 C2161 1.429 . S
C2170 N2167 1.350 . S
C2170 C2169 1.434 . S
C2171 C2172 1.369 . S
C2171 C2173 1.419 . S
C2171 H2175 0.930 . S
C2172 C2171 1.369 . S
C2172 C2181 1.429 . S
C2173 C2171 1.419 . S
C2173 C2174 1.363 . S
C2173 H2176 0.929 . S
C2174 C2173 1.363 . S
C2174 C2180 1.428 . S
H2175 C2171 0.930 . S
H2176 C2173 0.929 . S
S2177 N2178 1.613 . S
S2177 N2179 1.610 . S
N2178 S2177 1.613 . S
N2178 C2181 1.350 . S
N2179 S2177 1.610 . S
N2179 C2180 1.351 . S
C2180 C2174 1.428 . S
C2180 N2179 1.351 . S
C2180 C2181 1.434 . S
C2181 C2172 1.429 . S
C2181 N2178 1.350 . S
C2181 C2180 1.434 . S
C2182 C2183 1.369 . S
C2182 C2184 1.419 . S
C2182 H2186 0.930 . S
C2183 C2182 1.369 . S
C2183 C2192 1.429 . S
C2184 C2182 1.419 . S
C2184 C2185 1.363 . S
C2184 H2187 0.929 . S
C2185 C2184 1.363 . S
C2185 C2191 1.428 . S
H2186 C2182 0.930 . S
H2187 C2184 0.929 . S
S2188 N2189 1.613 . S
S2188 N2190 1.610 . S
N2189 S2188 1.613 . S
N2189 C2192 1.350 . S
N2190 S2188 1.610 . S
N2190 C2191 1.351 . S
C2191 C2185 1.428 . S
C2191 N2190 1.351 . S
C2191 C2192 1.434 . S
C2192 C2183 1.429 . S
C2192 N2189 1.350 . S
C2192 C2191 1.434 . S
C2193 C2194 1.369 . S
C2193 C2195 1.419 . S
C2193 H2197 0.930 . S
C2194 C2193 1.369 . S
C2194 C2203 1.429 . S
C2195 C2193 1.419 . S
C2195 C2196 1.363 . S
C2195 H2198 0.929 . S
C2196 C2195 1.363 . S
C2196 C2202 1.428 . S
H2197 C2193 0.930 . S
H2198 C2195 0.929 . S
S2199 N2200 1.613 . S
S2199 N2201 1.610 . S
N2200 S2199 1.613 . S
N2200 C2203 1.350 . S
N2201 S2199 1.610 . S
N2201 C2202 1.351 . S
C2202 C2196 1.428 . S
C2202 N2201 1.351 . S
C2202 C2203 1.434 . S
C2203 C2194 1.429 . S
C2203 N2200 1.350 . S
C2203 C2202 1.434 . S
C2204 C2205 1.369 . S
C2204 C2206 1.419 . S
C2204 H2208 0.930 . S
C2205 C2204 1.369 . S
C2205 C2214 1.429 . S
C2206 C2204 1.419 . S
C2206 C2207 1.363 . S
C2206 H2209 0.929 . S
C2207 C2206 1.363 . S
C2207 C2213 1.428 . S
H2208 C2204 0.930 . S
H2209 C2206 0.929 . S
S2210 N2211 1.613 . S
S2210 N2212 1.610 . S
N2211 S2210 1.613 . S
N2211 C2214 1.350 . S
N2212 S2210 1.610 . S
N2212 C2213 1.351 . S
C2213 C2207 1.428 . S
C2213 N2212 1.351 . S
C2213 C2214 1.434 . S
C2214 C2205 1.429 . S
C2214 N2211 1.350 . S
C2214 C2213 1.434 . S
C2215 C2216 1.369 . S
C2215 C2217 1.419 . S
C2215 H2219 0.930 . S
C2216 C2215 1.369 . S
C2216 C2225 1.429 . S
C2217 C2215 1.419 . S
C2217 C2218 1.363 . S
C2217 H2220 0.929 . S
C2218 C2217 1.363 . S
C2218 C2224 1.428 . S
H2219 C2215 0.930 . S
H2220 C2217 0.929 . S
S2221 N2222 1.613 . S
S2221 N2223 1.610 . S
N2222 S2221 1.613 . S
N2222 C2225 1.350 . S
N2223 S2221 1.610 . S
N2223 C2224 1.351 . S
C2224 C2218 1.428 . S
C2224 N2223 1.351 . S
C2224 C2225 1.434 . S
C2225 C2216 1.429 . S
C2225 N2222 1.350 . S
C2225 C2224 1.434 . S
C2226 C2227 1.369 . S
C2226 C2228 1.419 . S
C2226 H2230 0.930 . S
C2227 C2226 1.369 . S
C2227 C2236 1.429 . S
C2228 C2226 1.419 . S
C2228 C2229 1.363 . S
C2228 H2231 0.929 . S
C2229 C2228 1.363 . S
C2229 C2235 1.428 . S
H2230 C2226 0.930 . S
H2231 C2228 0.929 . S
S2232 N2233 1.613 . S
S2232 N2234 1.610 . S
N2233 S2232 1.613 . S
N2233 C2236 1.350 . S
N2234 S2232 1.610 . S
N2234 C2235 1.351 . S
C2235 C2229 1.428 . S
C2235 N2234 1.351 . S
C2235 C2236 1.434 . S
C2236 C2227 1.429 . S
C2236 N2233 1.350 . S
C2236 C2235 1.434 . S
C2237 C2238 1.369 . S
C2237 C2239 1.419 . S
C2237 H2241 0.930 . S
C2238 C2237 1.369 . S
C2238 C2247 1.429 . S
C2239 C2237 1.419 . S
C2239 C2240 1.363 . S
C2239 H2242 0.929 . S
C2240 C2239 1.363 . S
C2240 C2246 1.428 . S
H2241 C2237 0.930 . S
H2242 C2239 0.929 . S
S2243 N2244 1.613 . S
S2243 N2245 1.610 . S
N2244 S2243 1.613 . S
N2244 C2247 1.350 . S
N2245 S2243 1.610 . S
N2245 C2246 1.351 . S
C2246 C2240 1.428 . S
C2246 N2245 1.351 . S
C2246 C2247 1.434 . S
C2247 C2238 1.429 . S
C2247 N2244 1.350 . S
C2247 C2246 1.434 . S
C2248 C2249 1.369 . S
C2248 C2250 1.419 . S
C2248 H2252 0.930 . S
C2249 C2248 1.369 . S
C2249 C2258 1.429 . S
C2250 C2248 1.419 . S
C2250 C2251 1.363 . S
C2250 H2253 0.929 . S
C2251 C2250 1.363 . S
C2251 C2257 1.428 . S
H2252 C2248 0.930 . S
H2253 C2250 0.929 . S
S2254 N2255 1.613 . S
S2254 N2256 1.610 . S
N2255 S2254 1.613 . S
N2255 C2258 1.350 . S
N2256 S2254 1.610 . S
N2256 C2257 1.351 . S
C2257 C2251 1.428 . S
C2257 N2256 1.351 . S
C2257 C2258 1.434 . S
C2258 C2249 1.429 . S
C2258 N2255 1.350 . S
C2258 C2257 1.434 . S
C2259 C2260 1.369 . S
C2259 C2261 1.419 . S
C2259 H2263 0.930 . S
C2260 C2259 1.369 . S
C2260 C2269 1.429 . S
C2261 C2259 1.419 . S
C2261 C2262 1.363 . S
C2261 H2264 0.929 . S
C2262 C2261 1.363 . S
C2262 C2268 1.428 . S
H2263 C2259 0.930 . S
H2264 C2261 0.929 . S
S2265 N2266 1.613 . S
S2265 N2267 1.610 . S
N2266 S2265 1.613 . S
N2266 C2269 1.350 . S
N2267 S2265 1.610 . S
N2267 C2268 1.351 . S
C2268 C2262 1.428 . S
C2268 N2267 1.351 . S
C2268 C2269 1.434 . S
C2269 C2260 1.429 . S
C2269 N2266 1.350 . S
C2269 C2268 1.434 . S
C2270 C2271 1.369 . S
C2270 C2272 1.419 . S
C2270 H2274 0.930 . S
C2271 C2270 1.369 . S
C2271 C2280 1.429 . S
C2272 C2270 1.419 . S
C2272 C2273 1.363 . S
C2272 H2275 0.929 . S
C2273 C2272 1.363 . S
C2273 C2279 1.428 . S
H2274 C2270 0.930 . S
H2275 C2272 0.929 . S
S2276 N2277 1.613 . S
S2276 N2278 1.610 . S
N2277 S2276 1.613 . S
N2277 C2280 1.350 . S
N2278 S2276 1.610 . S
N2278 C2279 1.351 . S
C2279 C2273 1.428 . S
C2279 N2278 1.351 . S
C2279 C2280 1.434 . S
C2280 C2271 1.429 . S
C2280 N2277 1.350 . S
C2280 C2279 1.434 . S
C2281 C2282 1.369 . S
C2281 C2283 1.419 . S
C2281 H2285 0.930 . S
C2282 C2281 1.369 . S
C2282 C2291 1.429 . S
C2283 C2281 1.419 . S
C2283 C2284 1.363 . S
C2283 H2286 0.929 . S
C2284 C2283 1.363 . S
C2284 C2290 1.428 . S
H2285 C2281 0.930 . S
H2286 C2283 0.929 . S
S2287 N2288 1.613 . S
S2287 N2289 1.610 . S
N2288 S2287 1.613 . S
N2288 C2291 1.350 . S
N2289 S2287 1.610 . S
N2289 C2290 1.351 . S
C2290 C2284 1.428 . S
C2290 N2289 1.351 . S
C2290 C2291 1.434 . S
C2291 C2282 1.429 . S
C2291 N2288 1.350 . S
C2291 C2290 1.434 . S
C2292 C2293 1.369 . S
C2292 C2294 1.419 . S
C2292 H2296 0.930 . S
C2293 C2292 1.369 . S
C2293 C2302 1.429 . S
C2294 C2292 1.419 . S
C2294 C2295 1.363 . S
C2294 H2297 0.929 . S
C2295 C2294 1.363 . S
C2295 C2301 1.428 . S
H2296 C2292 0.930 . S
H2297 C2294 0.929 . S
S2298 N2299 1.613 . S
S2298 N2300 1.610 . S
N2299 S2298 1.613 . S
N2299 C2302 1.350 . S
N2300 S2298 1.610 . S
N2300 C2301 1.351 . S
C2301 C2295 1.428 . S
C2301 N2300 1.351 . S
C2301 C2302 1.434 . S
C2302 C2293 1.429 . S
C2302 N2299 1.350 . S
C2302 C2301 1.434 . S
C2303 C2304 1.369 . S
C2303 C2305 1.419 . S
C2303 H2307 0.930 . S
C2304 C2303 1.369 . S
C2304 C2313 1.429 . S
C2305 C2303 1.419 . S
C2305 C2306 1.363 . S
C2305 H2308 0.929 . S
C2306 C2305 1.363 . S
C2306 C2312 1.428 . S
H2307 C2303 0.930 . S
H2308 C2305 0.929 . S
S2309 N2310 1.613 . S
S2309 N2311 1.610 . S
N2310 S2309 1.613 . S
N2310 C2313 1.350 . S
N2311 S2309 1.610 . S
N2311 C2312 1.351 . S
C2312 C2306 1.428 . S
C2312 N2311 1.351 . S
C2312 C2313 1.434 . S
C2313 C2304 1.429 . S
C2313 N2310 1.350 . S
C2313 C2312 1.434 . S
C2314 C2315 1.369 . S
C2314 C2316 1.419 . S
C2314 H2318 0.930 . S
C2315 C2314 1.369 . S
C2315 C2324 1.429 . S
C2316 C2314 1.419 . S
C2316 C2317 1.363 . S
C2316 H2319 0.929 . S
C2317 C2316 1.363 . S
C2317 C2323 1.428 . S
H2318 C2314 0.930 . S
H2319 C2316 0.929 . S
S2320 N2321 1.613 . S
S2320 N2322 1.610 . S
N2321 S2320 1.613 . S
N2321 C2324 1.350 . S
N2322 S2320 1.610 . S
N2322 C2323 1.351 . S
C2323 C2317 1.428 . S
C2323 N2322 1.351 . S
C2323 C2324 1.434 . S
C2324 C2315 1.429 . S
C2324 N2321 1.350 . S
C2324 C2323 1.434 . S
C2325 C2326 1.369 . S
C2325 C2327 1.419 . S
C2325 H2329 0.930 . S
C2326 C2325 1.369 . S
C2326 C2335 1.429 . S
C2327 C2325 1.419 . S
C2327 C2328 1.363 . S
C2327 H2330 0.929 . S
C2328 C2327 1.363 . S
C2328 C2334 1.428 . S
H2329 C2325 0.930 . S
H2330 C2327 0.929 . S
S2331 N2332 1.613 . S
S2331 N2333 1.610 . S
N2332 S2331 1.613 . S
N2332 C2335 1.350 . S
N2333 S2331 1.610 . S
N2333 C2334 1.351 . S
C2334 C2328 1.428 . S
C2334 N2333 1.351 . S
C2334 C2335 1.434 . S
C2335 C2326 1.429 . S
C2335 N2332 1.350 . S
C2335 C2334 1.434 . S
C1281 C1139 1.916 . S
C1283 C10 1.921 . S
C1292 C219 1.919 . S
C1294 C50 1.926 . S
C1303 C899 1.924 . S
C1305 C90 1.922 . S
C1314 C619 1.919 . S
C1316 C130 1.918 . S
C1325 C179 1.919 . S
C1327 C970 1.918 . S
C1336 C730 1.921 . S
C1338 C259 1.924 . S
C1347 C450 1.917 . S
C1349 C299 1.920 . S
C1358 C819 1.916 . S
C1360 C330 1.920 . S
C1369 C370 1.919 . S
C1371 C539 1.921 . S
C1380 C410 1.921 . S
C1382 C1219 1.920 . S
C1391 C650 1.918 . S
C1393 C499 1.919 . S
C1402 C579 1.920 . S
C1404 C1050 1.920 . S
C1413 C690 1.925 . S
C1415 C859 1.921 . S
C1424 C770 1.919 . S
C1426 C1259 1.919 . S
C1435 C1090 1.917 . S
C1437 C939 1.920 . S
C1446 C1179 1.923 . S
C1448 C1010 1.918 . S
C1457 C779 1.579 . S
C1459 C19 1.578 . S
C1468 C739 1.567 . S
C1470 C59 1.564 . S
C1479 C699 1.567 . S
C1481 C99 1.564 . S
C1490 C659 1.578 . S
C1492 C139 1.579 . S
C1501 C930 1.575 . S
C1503 C170 1.580 . S
C1512 C210 1.566 . S
C1514 C890 1.566 . S
C1523 C250 1.563 . S
C1525 C850 1.567 . S
C1534 C290 1.575 . S
C1536 C810 1.580 . S
C1545 C339 1.598 . S
C1547 C1099 1.594 . S
C1556 C379 1.572 . S
C1558 C1059 1.571 . S
C1567 C419 1.574 . S
C1569 C1019 1.571 . S
C1578 C979 1.598 . S
C1580 C459 1.595 . S
C1589 C490 1.594 . S
C1591 C1250 1.597 . S
C1600 C530 1.573 . S
C1602 C1210 1.570 . S
C1611 C570 1.569 . S
C1613 C1170 1.574 . S
C1622 C1130 1.599 . S
C1624 C610 1.594 . S
C1633 C15 1.585 . S
C1635 C6 1.596 . S
C1644 C55 1.553 . S
C1646 C46 1.565 . S
C1655 C86 1.553 . S
C1657 C95 1.565 . S
C1666 C126 1.597 . S
C1668 C135 1.587 . S
C1677 C175 1.596 . S
C1679 C166 1.588 . S
C1688 C215 1.566 . S
C1690 C206 1.555 . S
C1699 C255 1.567 . S
C1701 C246 1.555 . S
C1710 C286 1.585 . S
C1712 C295 1.596 . S
C1721 C335 1.614 . S
C1723 C326 1.612 . S
C1732 C366 1.578 . S
C1734 C375 1.581 . S
C1743 C406 1.585 . S
C1745 C415 1.577 . S
C1754 C446 1.607 . S
C1756 C455 1.618 . S
C1765 C495 1.607 . S
C1767 C486 1.617 . S
C1776 C526 1.586 . S
C1778 C535 1.576 . S
C1787 C575 1.587 . S
C1789 C566 1.575 . S
C1798 C606 1.606 . S
C1800 C615 1.618 . S
C1809 C655 1.589 . S
C1811 C646 1.594 . S
C1820 C686 1.554 . S
C1822 C695 1.564 . S
C1831 C726 1.566 . S
C1833 C735 1.556 . S
C1842 C766 1.593 . S
C1844 C775 1.590 . S
C1853 C806 1.588 . S
C1855 C815 1.594 . S
C1864 C855 1.558 . S
C1866 C846 1.562 . S
C1875 C886 1.554 . S
C1877 C895 1.565 . S
C1886 C926 1.586 . S
C1888 C935 1.596 . S
C1897 C975 1.606 . S
C1899 C966 1.618 . S
C1908 C1006 1.576 . S
C1910 C1015 1.584 . S
C1919 C1046 1.584 . S
C1921 C1055 1.577 . S
C1930 C1095 1.608 . S
C1932 C1086 1.617 . S
C1941 C1135 1.618 . S
C1943 C1126 1.609 . S
C1952 C1166 1.574 . S
C1954 C1175 1.585 . S
C1963 C1206 1.574 . S
C1965 C1215 1.585 . S
C1974 C1246 1.616 . S
C1976 C1255 1.610 . S
C1985 C409 2.335 . S
C1987 C9 2.340 . S
C1996 C449 2.285 . S
C1998 C49 2.275 . S
C2007 C89 2.278 1_556 S
C2009 C329 2.278 . S
C2018 C369 2.337 . S
C2020 C129 2.338 1_556 S
C2029 C178 2.337 . S
C2031 C578 2.333 . S
C2040 C218 2.276 . S
C2042 C618 2.281 . S
C2051 C258 2.279 1_554 S
C2053 C498 2.279 . S
C2062 C298 2.337 1_554 S
C2064 C538 2.336 . S
C2073 C1049 2.337 1_556 S
C2075 C649 2.341 . S
C2084 C689 2.279 . S
C2086 C1089 2.279 1_556 S
C2095 C969 2.280 . S
C2097 C729 2.274 . S
C2106 C769 2.336 . S
C2108 C1009 2.333 . S
C2117 C1218 2.338 1_554 S
C2119 C818 2.339 . S
C2128 C858 2.275 . S
C2130 C1258 2.280 1_554 S
C2139 C898 2.275 . S
C2141 C1138 2.278 . S
C2150 C1178 2.334 . S
C2152 C938 2.337 . S
C2161 C18 1.132 . S
C2163 C98 1.131 . S
C2172 C138 1.135 . S
C2174 C58 1.129 . S
C2183 C249 1.124 . S
C2185 C169 1.132 . S
C2194 C209 1.130 . S
C2196 C289 1.136 . S
C2205 C338 1.061 . S
C2207 C418 1.055 . S
C2216 C458 1.056 . S
C2218 C378 1.051 . S
C2227 C569 1.057 . S
C2229 C489 1.057 . S
C2238 C609 1.055 . S
C2240 C529 1.054 . S
C2249 C738 1.122 . S
C2251 C658 1.131 . S
C2260 C778 1.132 . S
C2262 C698 1.131 . S
C2271 C889 1.127 . S
C2273 C809 1.134 . S
C2282 C929 1.136 . S
C2284 C849 1.133 . S
C2293 C978 1.061 . S
C2295 C1058 1.057 . S
C2304 C1018 1.052 . S
C2306 C1098 1.058 . S
C2315 C1129 1.052 . S
C2317 C1209 1.049 . S
C2326 C1249 1.051 . S
C2328 C1169 1.050 . S
