# Generated by pormake.
# Topology pts-e, (5)-cn, num edge types: 1
# Building blocks:
#     Node 0, Type 0, BuildingBlock: BEQFEK_clean_sbu_0, # of connection points: 5
#     Node 1, Type 0, BuildingBlock: BEQFEK_clean_sbu_0, # of connection points: 5
#     Node 2, Type 0, BuildingBlock: BEQFEK_clean_sbu_0, # of connection points: 5
#     Node 3, Type 0, BuildingBlock: BEQFEK_clean_sbu_0, # of connection points: 5
#     Node 4, Type 0, BuildingBlock: BEQFEK_clean_sbu_0, # of connection points: 5
#     Node 5, Type 0, BuildingBlock: BEQFEK_clean_sbu_0, # of connection points: 5
#     Node 6, Type 0, BuildingBlock: BEQFEK_clean_sbu_0, # of connection points: 5
#     Node 7, Type 0, BuildingBlock: BEQFEK_clean_sbu_0, # of connection points: 5
#     Edge 8, Type (0, 0), None
#     Edge 9, Type (0, 0), None
#     Edge 10, Type (0, 0), None
#     Edge 11, Type (0, 0), None
#     Edge 12, Type (0, 0), None
#     Edge 13, Type (0, 0), None
#     Edge 14, Type (0, 0), None
#     Edge 15, Type (0, 0), None
#     Edge 16, Type (0, 0), None
#     Edge 17, Type (0, 0), None
#     Edge 18, Type (0, 0), None
#     Edge 19, Type (0, 0), None
#     Edge 20, Type (0, 0), None
#     Edge 21, Type (0, 0), None
#     Edge 22, Type (0, 0), None
#     Edge 23, Type (0, 0), None
#     Edge 24, Type (0, 0), None
#     Edge 25, Type (0, 0), None
#     Edge 26, Type (0, 0), None
#     Edge 27, Type (0, 0), None
# Relax obj value: 0.458
# Max RMSD: 0.252
# Mean RMSD: 0.252
data_MOF--net-pts-e--node1-BEQFEK_clean_sbu_0--edge1-none
_symmetry_space_group_name_H-M    P1
_symmetry_Int_Tables_number       1
_symmetry_cell_setting            triclinic
loop_
_symmetry_equiv_pos_as_xyz
'x, y, z'
_cell_length_a     19.12592
_cell_length_b     19.125876
_cell_length_c     23.781115
_cell_angle_alpha  90.0026
_cell_angle_beta   89.997358
_cell_angle_gamma 89.99094
loop_
_atom_site_label
_atom_site_type_symbol
_atom_site_fract_x
_atom_site_fract_y
_atom_site_fract_z
_atom_type_partial_charge
Co0 Co 0.18566 1.00036 0.16789 0.0
Co1 Co 0.30785 0.05904 0.22532 0.0
C2 C 0.18059 0.1319 0.25408 0.0
O3 O 0.15461 0.08022 0.22611 0.0
O4 O 0.24728 0.1402 0.25465 0.0
C5 C 0.09001 0.0468 0.10083 0.0
O6 O 0.1318 0.10034 0.10898 0.0
C7 C 0.45797 0.086 0.25671 0.0
C8 C 0.48969 0.97686 0.27401 0.0
C9 C 0.51568 0.04374 0.26871 0.0
N10 N 0.40079 0.04518 0.2541 0.0
N11 N 0.42038 0.9803 0.26545 0.0
C12 C 0.45782 0.16247 0.2437 0.0
H13 H 0.4045 0.18023 0.232 0.0
H14 H 0.49491 0.17361 0.20895 0.0
H15 H 0.47576 0.19196 0.28121 0.0
C16 C 0.27448 1.00074 0.06938 0.0
N17 N 0.26344 1.01539 0.12368 0.0
N18 N 0.31366 0.0542 0.14344 0.0
C19 C 0.35465 0.07259 0.09906 0.0
C20 C 0.33095 0.03898 0.04987 0.0
C21 C 0.22729 0.95521 0.0353 0.0
H22 H 0.21175 0.90875 0.06032 0.0
H23 H 0.17943 0.98473 0.02531 0.0
H24 H 0.25276 0.93841 0.9956 0.0
O25 O 0.19792 0.91198 0.2001 0.0
O26 O 0.2585 0.97408 0.26028 0.0
H27 H 0.45697 0.10047 0.12605 0.0
H28 H 0.43142 0.13958 0.06003 0.0
C29 C 0.41291 0.12429 0.10253 0.0
H30 H 0.39518 0.17119 0.12599 0.0
H31 H 0.38706 0.9372 0.26428 0.0
O32 O 0.10892 0.98771 0.11837 0.0
C33 C 0.22335 0.91916 0.24823 0.0
Co34 Co 0.10571 0.18561 0.66786 0.0
Co35 Co 0.04709 0.30784 0.72532 0.0
C36 C 0.97421 0.18061 0.75409 0.0
O37 O 1.02587 0.1546 0.7261 0.0
O38 O 0.96592 0.2473 0.75467 0.0
C39 C 0.05922 0.08996 0.60081 0.0
O40 O 1.00568 0.13177 0.60897 0.0
C41 C 1.02016 0.45798 0.75672 0.0
C42 C 0.12931 0.48964 0.77399 0.0
C43 C 0.06243 0.51566 0.76871 0.0
N44 N 0.06097 0.40078 0.7541 0.0
N45 N 0.12585 0.42033 0.76544 0.0
C46 C 0.94369 0.45786 0.74373 0.0
H47 H 0.92591 0.40455 0.73203 0.0
H48 H 0.93254 0.49496 0.70898 0.0
H49 H 0.91421 0.47582 0.78124 0.0
C50 C 0.10534 0.27445 0.56937 0.0
N51 N 0.09069 0.26341 0.62367 0.0
N52 N 0.0519 0.31365 0.64344 0.0
C53 C 0.03352 0.35466 0.59907 0.0
C54 C 0.06712 0.33094 0.54987 0.0
C55 C 0.15086 0.22724 0.53529 0.0
H56 H 0.19734 0.2117 0.56029 0.0
H57 H 0.12135 0.17938 0.52531 0.0
H58 H 0.16764 0.25269 0.49557 0.0
O59 O 0.19409 0.1978 0.70006 0.0
O60 O 0.13206 0.25847 0.76025 0.0
H61 H 1.00569 0.45699 0.62608 0.0
H62 H 0.96655 0.43148 0.56005 0.0
C63 C 0.98184 0.41296 0.60255 0.0
H64 H 0.93494 0.39526 0.62601 0.0
H65 H 0.16895 0.38699 0.76426 0.0
O66 O 0.11832 0.10887 0.61832 0.0
C67 C 0.18697 0.22327 0.74818 0.0
Co68 Co 0.92054 0.10569 0.16781 0.0
Co69 Co 0.79831 0.04716 0.22531 0.0
C70 C 0.92555 0.97424 0.25407 0.0
O71 O 0.95156 1.02587 0.22606 0.0
O72 O 0.85885 0.96599 0.25467 0.0
C73 C 1.01613 0.05909 0.10075 0.0
O74 O 0.97437 1.00553 0.10895 0.0
C75 C 0.64818 1.02025 0.25669 0.0
C76 C 0.61648 0.1294 0.27398 0.0
C77 C 0.59047 0.06253 0.26864 0.0
N78 N 0.70537 0.06105 0.2541 0.0
N79 N 0.68579 0.12593 0.26544 0.0
C80 C 0.64832 0.94377 0.24372 0.0
H81 H 0.70164 0.92599 0.23202 0.0
H82 H 0.61122 0.93259 0.20899 0.0
H83 H 0.63039 0.91431 0.28125 0.0
C84 C 0.83164 0.10539 0.06937 0.0
N85 N 0.8427 0.09073 0.12366 0.0
N86 N 0.79247 0.05194 0.14343 0.0
C87 C 0.75145 0.03358 0.09907 0.0
C88 C 0.77515 0.06718 0.04987 0.0
C89 C 0.87883 0.15091 0.03528 0.0
H90 H 0.89434 0.1974 0.06029 0.0
H91 H 0.92669 0.1214 0.02532 0.0
H92 H 0.85337 0.16769 0.99557 0.0
O93 O 0.90843 0.19408 0.20002 0.0
O94 O 0.84767 0.13215 0.2602 0.0
H95 H 0.64913 1.00576 0.12609 0.0
H96 H 0.67463 0.96662 0.06006 0.0
C97 C 0.69316 0.98191 0.10256 0.0
H98 H 0.71087 0.935 0.12601 0.0
H99 H 0.71913 0.16903 0.2643 0.0
O100 O 0.99724 0.11822 0.11823 0.0
C101 C 0.8829 0.18702 0.24812 0.0
Co102 Co 1.00042 0.9205 0.66784 0.0
Co103 Co 0.05905 0.79829 0.72531 0.0
C104 C 0.13192 0.92553 0.75406 0.0
O105 O 0.08027 0.95153 0.72607 0.0
O106 O 0.14021 0.85883 0.75465 0.0
C107 C 0.04695 1.01608 0.60076 0.0
O108 O 0.10052 0.97433 0.60896 0.0
C109 C 0.08595 0.64815 0.75669 0.0
C110 C 0.9768 0.61651 0.774 0.0
C111 C 0.04366 0.59047 0.76864 0.0
N112 N 0.04515 0.70536 0.7541 0.0
N113 N 0.98027 0.68582 0.76546 0.0
C114 C 0.16243 0.64826 0.7437 0.0
H115 H 0.18021 0.70156 0.73201 0.0
H116 H 0.17359 0.61115 0.70896 0.0
H117 H 0.19189 0.63031 0.78122 0.0
C118 C 1.00076 0.83161 0.56938 0.0
N119 N 1.01542 0.84268 0.62367 0.0
N120 N 0.05424 0.79246 0.64343 0.0
C121 C 0.07263 0.75145 0.59906 0.0
C122 C 0.03901 0.77514 0.54987 0.0
C123 C 0.95522 0.8788 0.5353 0.0
H124 H 0.90875 0.89434 0.56031 0.0
H125 H 0.98473 0.92665 0.52531 0.0
H126 H 0.93843 0.85333 0.49559 0.0
O127 O 0.91204 0.90836 0.70006 0.0
O128 O 0.97407 0.84768 0.76023 0.0
H129 H 0.10052 0.64912 0.62604 0.0
H130 H 0.13967 0.67469 0.56003 0.0
C131 C 0.12435 0.69319 0.60254 0.0
H132 H 0.17123 0.7109 0.62601 0.0
H133 H 0.93718 0.71917 0.76432 0.0
O134 O 0.98783 0.99721 0.61827 0.0
C135 C 0.91917 0.88289 0.74817 0.0
Co136 Co 0.18562 0.1057 0.87334 0.0
Co137 Co 0.30785 0.04711 0.81583 0.0
C138 C 0.18061 0.97423 0.78708 0.0
O139 O 0.1546 1.02587 0.81509 0.0
O140 O 0.24731 0.96596 0.78647 0.0
C141 C 0.08995 0.05922 0.94041 0.0
O142 O 0.13176 1.00568 0.9323 0.0
C143 C 0.45797 1.02017 0.78438 0.0
C144 C 0.48964 0.12933 0.76716 0.0
C145 C 0.51566 0.06244 0.7724 0.0
N146 N 0.40078 0.061 0.78704 0.0
N147 N 0.42034 0.12588 0.77573 0.0
C148 C 0.45784 0.94369 0.79733 0.0
H149 H 0.40452 0.92591 0.80901 0.0
H150 H 0.49492 0.9325 0.83207 0.0
H151 H 0.4758 0.91425 0.7598 0.0
C152 C 0.27439 0.10511 0.97186 0.0
N153 N 0.26342 0.09063 0.91752 0.0
N154 N 0.31367 0.05186 0.89771 0.0
C155 C 0.35465 0.03334 0.94206 0.0
C156 C 0.33079 0.06673 0.99128 0.0
C157 C 0.22718 0.15055 1.00601 0.0
H158 H 0.21164 0.19708 0.98108 0.0
H159 H 0.17934 0.121 1.01594 0.0
H160 H 0.25263 0.16724 0.04575 0.0
O161 O 0.1978 0.19411 0.84116 0.0
O162 O 0.25849 0.13209 0.78094 0.0
H163 H 0.45697 1.00549 0.91501 0.0
H164 H 0.43145 0.96626 0.981 0.0
C165 C 0.41292 0.98164 0.93852 0.0
H166 H 0.39519 0.93478 0.91502 0.0
H167 H 0.38701 0.16899 0.77693 0.0
O168 O 0.10887 0.11831 0.92287 0.0
C169 C 0.22331 0.18699 0.79305 0.0
Co170 Co 1.00037 0.18569 0.37331 0.0
Co171 Co 0.05902 0.30788 0.31583 0.0
C172 C 0.13188 0.18061 0.28709 0.0
O173 O 0.08022 0.15463 0.31507 0.0
O174 O 0.14017 0.2473 0.28649 0.0
C175 C 0.0468 0.09001 0.44039 0.0
O176 O 0.10034 0.13181 0.43228 0.0
C177 C 0.08599 0.45798 0.28439 0.0
C178 C 0.97684 0.48971 0.26714 0.0
C179 C 0.04373 0.51569 0.2724 0.0
N180 N 0.04515 0.40081 0.28704 0.0
N181 N 0.98028 0.42041 0.27571 0.0
C182 C 0.16247 0.45781 0.29735 0.0
H183 H 0.18023 0.40449 0.30903 0.0
H184 H 0.17366 0.49489 0.3321 0.0
H185 H 0.19193 0.47575 0.25983 0.0
C186 C 1.00097 0.27445 0.47185 0.0
N187 N 1.01545 0.26347 0.41751 0.0
N188 N 0.05424 0.3137 0.39771 0.0
C189 C 0.07277 0.35466 0.44206 0.0
C190 C 0.03937 0.33082 0.49128 0.0
C191 C 0.95553 0.22725 0.506 0.0
H192 H 0.90901 0.2117 0.48106 0.0
H193 H 0.98508 0.17941 0.51594 0.0
H194 H 0.93882 0.25272 0.54573 0.0
O195 O 0.91197 0.19794 0.34111 0.0
O196 O 0.97405 0.25854 0.28091 0.0
H197 H 0.10067 0.45696 0.41503 0.0
H198 H 0.13987 0.4314 0.48103 0.0
C199 C 0.1245 0.41289 0.43854 0.0
H200 H 0.17135 0.39513 0.41504 0.0
H201 H 0.93716 0.38709 0.27691 0.0
O202 O 0.98772 0.10893 0.42283 0.0
C203 C 0.91913 0.22341 0.293 0.0
Co204 Co 0.92048 1.00044 0.87336 0.0
Co205 Co 0.79826 0.05905 0.81584 0.0
C206 C 0.92551 0.13192 0.7871 0.0
O207 O 0.95151 0.08028 0.81512 0.0
O208 O 0.85881 0.14019 0.78649 0.0
C209 C 1.01607 0.04696 0.94046 0.0
O210 O 0.97432 0.10054 0.93231 0.0
C211 C 0.64814 0.08595 0.78441 0.0
C212 C 0.61649 0.9768 0.76715 0.0
C213 C 0.59046 0.04367 0.77247 0.0
N214 N 0.70534 0.04515 0.78704 0.0
N215 N 0.68579 0.98026 0.77571 0.0
C216 C 0.64826 0.16244 0.79735 0.0
H217 H 0.70157 0.18023 0.80903 0.0
H218 H 0.61117 0.17365 0.83209 0.0
H219 H 0.63031 0.19187 0.75981 0.0
C220 C 0.83165 1.00101 0.97186 0.0
N221 N 0.84265 1.0155 0.91752 0.0
N222 N 0.79242 0.0543 0.89772 0.0
C223 C 0.75144 0.07283 0.94206 0.0
C224 C 0.77527 0.03942 0.99128 0.0
C225 C 0.87884 0.95555 1.006 0.0
H226 H 0.89439 0.90902 0.98106 0.0
H227 H 0.92668 0.9851 1.01595 0.0
H228 H 0.85337 0.93885 0.04573 0.0
O229 O 0.90833 0.91204 0.84116 0.0
O230 O 0.84764 0.97406 0.78095 0.0
H231 H 0.64913 0.10074 0.91505 0.0
H232 H 0.67471 0.13998 0.98102 0.0
C233 C 0.69321 0.12457 0.93853 0.0
H234 H 0.71096 0.17141 0.91501 0.0
H235 H 0.71914 0.93717 0.77687 0.0
O236 O 0.9972 0.98786 0.92293 0.0
C237 C 0.88282 0.91916 0.79305 0.0
Co238 Co 0.10567 0.92053 0.37338 0.0
Co239 Co 0.04716 0.79829 0.31584 0.0
C240 C 0.97424 0.92554 0.2871 0.0
O241 O 1.02585 0.95155 0.31513 0.0
O242 O 0.96601 0.85885 0.28647 0.0
C243 C 0.05908 1.01613 0.44048 0.0
O244 O 1.00551 0.97438 0.43232 0.0
C245 C 1.02024 0.64819 0.28441 0.0
C246 C 0.1294 0.61648 0.26716 0.0
C247 C 0.06253 0.59048 0.27247 0.0
N248 N 0.06106 0.70537 0.28704 0.0
N249 N 0.12594 0.68578 0.27572 0.0
C250 C 0.94375 0.64835 0.29733 0.0
H251 H 0.92597 0.70167 0.30901 0.0
H252 H 0.93253 0.61126 0.33206 0.0
H253 H 0.91433 0.63042 0.25979 0.0
C254 C 0.10515 0.83169 0.47186 0.0
N255 N 0.09065 0.84269 0.41753 0.0
N256 N 0.05188 0.79245 0.39772 0.0
C257 C 0.03338 0.75146 0.44206 0.0
C258 C 0.06677 0.77529 0.49128 0.0
C259 C 0.15058 0.87888 0.50602 0.0
H260 H 0.19712 0.8944 0.48109 0.0
H261 H 0.12103 0.92673 0.51594 0.0
H262 H 0.16726 0.85342 0.54576 0.0
O263 O 0.19408 0.90842 0.3412 0.0
O264 O 0.13217 0.84765 0.28099 0.0
H265 H 1.00554 0.64915 0.415 0.0
H266 H 0.96631 0.67467 0.481 0.0
C267 C 0.98168 0.6932 0.43851 0.0
H268 H 0.93482 0.71094 0.41502 0.0
H269 H 0.16905 0.71911 0.2769 0.0
O270 O 0.11819 0.99724 0.42297 0.0
C271 C 0.18703 0.88286 0.29311 0.0
loop_
_geom_bond_atom_site_label_1
_geom_bond_atom_site_label_2
_geom_bond_distance
_geom_bond_site_symmetry_2
_ccdc_geom_bond_type
Co0 O3 1.970 . S
Co0 N17 1.989 . S
Co0 O25 1.967 1_545 S
Co0 O32 1.920 . S
Co1 O4 1.966 . S
Co1 N10 2.022 . S
Co1 N18 1.993 . S
Co1 O26 1.941 1_545 S
C2 O3 1.258 . S
C2 O4 1.263 . S
O3 Co0 1.970 . S
O3 C2 1.258 . S
O4 Co1 1.966 . S
O4 C2 1.263 . S
C5 O6 1.235 . S
C5 O32 1.289 . S
O6 C5 1.235 . S
C7 C9 1.400 . S
C7 N10 1.351 . S
C7 C12 1.501 . S
C8 C9 1.387 1_565 S
C8 N11 1.341 . S
C9 C7 1.400 . S
C9 C8 1.387 1_545 S
N10 Co1 2.022 . S
N10 C7 1.351 . S
N10 N11 1.365 1_545 S
N11 C8 1.341 . S
N11 N10 1.365 1_565 S
N11 H31 0.862 . S
C12 C7 1.501 . S
C12 H13 0.961 . S
C12 H14 0.961 . S
C12 H15 0.960 . S
H13 C12 0.961 . S
H14 C12 0.961 . S
H15 C12 0.960 . S
C16 N17 1.342 . S
C16 C20 1.401 . S
C16 C21 1.499 . S
N17 Co0 1.989 . S
N17 C16 1.342 . S
N17 N18 1.388 . S
N18 Co1 1.993 . S
N18 N17 1.388 . S
N18 C19 1.346 . S
C19 N18 1.346 . S
C19 C20 1.396 . S
C19 C29 1.510 . S
C20 C16 1.401 . S
C20 C19 1.396 . S
C21 C16 1.499 . S
C21 H22 0.959 . S
C21 H23 0.960 . S
C21 H24 0.961 1_545 S
H22 C21 0.959 . S
H23 C21 0.960 . S
H24 C21 0.961 1_565 S
O25 Co0 1.967 1_565 S
O25 C33 1.258 . S
O26 Co1 1.941 1_565 S
O26 C33 1.266 . S
H27 C29 0.959 1_565 S
H28 C29 0.961 . S
C29 C19 1.510 . S
C29 H27 0.959 1_545 S
C29 H28 0.961 . S
C29 H30 0.960 . S
H30 C29 0.960 . S
H31 N11 0.862 . S
O32 Co0 1.920 . S
O32 C5 1.289 . S
C33 O25 1.258 . S
C33 O26 1.266 . S
Co34 O37 1.970 1_455 S
Co34 N51 1.989 . S
Co34 O59 1.967 . S
Co34 O66 1.920 . S
Co35 O38 1.966 1_455 S
Co35 N44 2.022 . S
Co35 N52 1.993 . S
Co35 O60 1.941 . S
C36 O37 1.258 . S
C36 O38 1.263 . S
O37 Co34 1.970 1_655 S
O37 C36 1.258 . S
O38 Co35 1.966 1_655 S
O38 C36 1.263 . S
C39 O40 1.235 . S
C39 O66 1.289 1_655 S
O40 C39 1.235 . S
C41 C43 1.400 1_655 S
C41 N44 1.351 1_655 S
C41 C46 1.501 . S
C42 C43 1.387 . S
C42 N45 1.341 . S
C43 C41 1.400 1_455 S
C43 C42 1.387 . S
N44 Co35 2.022 . S
N44 C41 1.351 1_455 S
N44 N45 1.365 . S
N45 C42 1.341 . S
N45 N44 1.365 . S
N45 H65 0.862 . S
C46 C41 1.501 . S
C46 H47 0.961 . S
C46 H48 0.961 . S
C46 H49 0.960 . S
H47 C46 0.961 . S
H48 C46 0.961 . S
H49 C46 0.960 . S
C50 N51 1.342 . S
C50 C54 1.401 . S
C50 C55 1.499 . S
N51 Co34 1.989 . S
N51 C50 1.342 . S
N51 N52 1.388 . S
N52 Co35 1.993 . S
N52 N51 1.388 . S
N52 C53 1.346 . S
C53 N52 1.346 . S
C53 C54 1.396 . S
C53 C63 1.510 . S
C54 C50 1.401 . S
C54 C53 1.396 . S
C55 C50 1.499 . S
C55 H56 0.959 . S
C55 H57 0.960 . S
C55 H58 0.961 . S
H56 C55 0.959 . S
H57 C55 0.960 . S
H58 C55 0.961 . S
O59 Co34 1.967 . S
O59 C67 1.258 . S
O60 Co35 1.941 . S
O60 C67 1.266 . S
H61 C63 0.959 . S
H62 C63 0.961 1_655 S
C63 C53 1.510 . S
C63 H61 0.959 . S
C63 H62 0.961 1_455 S
C63 H64 0.960 . S
H64 C63 0.960 . S
H65 N45 0.862 . S
O66 Co34 1.920 . S
O66 C39 1.289 1_455 S
C67 O59 1.258 . S
C67 O60 1.266 . S
Co68 O71 1.970 1_545 S
Co68 N85 1.989 . S
Co68 O93 1.967 . S
Co68 O100 1.920 1_655 S
Co69 O72 1.966 1_545 S
Co69 N78 2.022 . S
Co69 N86 1.993 . S
Co69 O94 1.941 . S
C70 O71 1.258 . S
C70 O72 1.263 . S
O71 Co68 1.970 1_565 S
O71 C70 1.258 . S
O72 Co69 1.966 1_565 S
O72 C70 1.263 . S
C73 O74 1.235 . S
C73 O100 1.289 1_565 S
O74 C73 1.235 . S
C75 C77 1.400 1_565 S
C75 N78 1.351 1_565 S
C75 C80 1.501 . S
C76 C77 1.387 . S
C76 N79 1.341 . S
C77 C75 1.400 1_545 S
C77 C76 1.387 . S
N78 Co69 2.022 . S
N78 C75 1.351 1_545 S
N78 N79 1.365 . S
N79 C76 1.341 . S
N79 N78 1.365 . S
N79 H99 0.862 . S
C80 C75 1.501 . S
C80 H81 0.961 . S
C80 H82 0.961 . S
C80 H83 0.960 . S
H81 C80 0.961 . S
H82 C80 0.961 . S
H83 C80 0.960 . S
C84 N85 1.342 . S
C84 C88 1.401 . S
C84 C89 1.499 . S
N85 Co68 1.989 . S
N85 C84 1.342 . S
N85 N86 1.388 . S
N86 Co69 1.993 . S
N86 N85 1.388 . S
N86 C87 1.346 . S
C87 N86 1.346 . S
C87 C88 1.396 . S
C87 C97 1.510 . S
C88 C84 1.401 . S
C88 C87 1.396 . S
C89 C84 1.499 . S
C89 H90 0.959 . S
C89 H91 0.960 . S
C89 H92 0.961 . S
H90 C89 0.959 . S
H91 C89 0.960 . S
H92 C89 0.961 . S
O93 Co68 1.967 . S
O93 C101 1.258 . S
O94 Co69 1.941 . S
O94 C101 1.266 . S
H95 C97 0.959 . S
H96 C97 0.961 1_565 S
C97 C87 1.510 . S
C97 H95 0.959 . S
C97 H96 0.961 1_545 S
C97 H98 0.960 . S
H98 C97 0.960 . S
H99 N79 0.862 . S
O100 Co68 1.920 1_455 S
O100 C73 1.289 1_545 S
C101 O93 1.258 . S
C101 O94 1.266 . S
Co102 O105 1.970 . S
Co102 N119 1.989 . S
Co102 O127 1.967 1_455 S
Co102 O134 1.920 1_565 S
Co103 O106 1.966 . S
Co103 N112 2.022 . S
Co103 N120 1.993 . S
Co103 O128 1.941 1_455 S
C104 O105 1.258 . S
C104 O106 1.263 . S
O105 Co102 1.970 . S
O105 C104 1.258 . S
O106 Co103 1.966 . S
O106 C104 1.263 . S
C107 O108 1.235 . S
C107 O134 1.289 . S
O108 C107 1.235 . S
C109 C111 1.400 . S
C109 N112 1.351 . S
C109 C114 1.501 . S
C110 C111 1.387 1_655 S
C110 N113 1.341 . S
C111 C109 1.400 . S
C111 C110 1.387 1_455 S
N112 Co103 2.022 . S
N112 C109 1.351 . S
N112 N113 1.365 1_455 S
N113 C110 1.341 . S
N113 N112 1.365 1_655 S
N113 H133 0.862 . S
C114 C109 1.501 . S
C114 H115 0.961 . S
C114 H116 0.961 . S
C114 H117 0.960 . S
H115 C114 0.961 . S
H116 C114 0.961 . S
H117 C114 0.960 . S
C118 N119 1.342 . S
C118 C122 1.401 . S
C118 C123 1.499 . S
N119 Co102 1.989 . S
N119 C118 1.342 . S
N119 N120 1.388 . S
N120 Co103 1.993 . S
N120 N119 1.388 . S
N120 C121 1.346 . S
C121 N120 1.346 . S
C121 C122 1.396 . S
C121 C131 1.510 . S
C122 C118 1.401 . S
C122 C121 1.396 . S
C123 C118 1.499 . S
C123 H124 0.959 . S
C123 H125 0.960 . S
C123 H126 0.961 1_455 S
H124 C123 0.959 . S
H125 C123 0.960 . S
H126 C123 0.961 1_655 S
O127 Co102 1.967 1_655 S
O127 C135 1.258 . S
O128 Co103 1.941 1_655 S
O128 C135 1.266 . S
H129 C131 0.959 1_655 S
H130 C131 0.961 . S
C131 C121 1.510 . S
C131 H129 0.959 1_455 S
C131 H130 0.961 . S
C131 H132 0.960 . S
H132 C131 0.960 . S
H133 N113 0.862 . S
O134 Co102 1.920 1_545 S
O134 C107 1.289 . S
C135 O127 1.258 . S
C135 O128 1.266 . S
Co136 O139 1.970 1_545 S
Co136 N153 1.989 . S
Co136 O161 1.967 . S
Co136 O168 1.920 . S
Co137 O140 1.966 1_545 S
Co137 N146 2.022 . S
Co137 N154 1.993 . S
Co137 O162 1.941 . S
C138 O139 1.258 . S
C138 O140 1.263 . S
O139 Co136 1.970 1_565 S
O139 C138 1.258 . S
O140 Co137 1.966 1_565 S
O140 C138 1.263 . S
C141 O142 1.235 . S
C141 O168 1.289 1_565 S
O142 C141 1.235 . S
C143 C145 1.400 1_565 S
C143 N146 1.351 1_565 S
C143 C148 1.501 . S
C144 C145 1.387 . S
C144 N147 1.341 . S
C145 C143 1.400 1_545 S
C145 C144 1.387 . S
N146 Co137 2.022 . S
N146 C143 1.351 1_545 S
N146 N147 1.365 . S
N147 C144 1.341 . S
N147 N146 1.365 . S
N147 H167 0.862 . S
C148 C143 1.501 . S
C148 H149 0.961 . S
C148 H150 0.961 . S
C148 H151 0.960 . S
H149 C148 0.961 . S
H150 C148 0.961 . S
H151 C148 0.960 . S
C152 N153 1.342 . S
C152 C156 1.401 . S
C152 C157 1.499 . S
N153 Co136 1.989 . S
N153 C152 1.342 . S
N153 N154 1.388 . S
N154 Co137 1.993 . S
N154 N153 1.388 . S
N154 C155 1.346 . S
C155 N154 1.346 . S
C155 C156 1.396 . S
C155 C165 1.510 . S
C156 C152 1.401 . S
C156 C155 1.396 . S
C157 C152 1.499 . S
C157 H158 0.959 . S
C157 H159 0.960 . S
C157 H160 0.961 . S
H158 C157 0.959 . S
H159 C157 0.960 . S
H160 C157 0.961 . S
O161 Co136 1.967 . S
O161 C169 1.258 . S
O162 Co137 1.941 . S
O162 C169 1.266 . S
H163 C165 0.959 . S
H164 C165 0.961 1_565 S
C165 C155 1.510 . S
C165 H163 0.959 . S
C165 H164 0.961 1_545 S
C165 H166 0.960 . S
H166 C165 0.960 . S
H167 N147 0.862 . S
O168 Co136 1.920 . S
O168 C141 1.289 1_545 S
C169 O161 1.258 . S
C169 O162 1.266 . S
Co170 O173 1.970 . S
Co170 N187 1.989 . S
Co170 O195 1.967 1_455 S
Co170 O202 1.920 . S
Co171 O174 1.966 . S
Co171 N180 2.022 . S
Co171 N188 1.993 . S
Co171 O196 1.941 1_455 S
C172 O173 1.258 . S
C172 O174 1.263 . S
O173 Co170 1.970 . S
O173 C172 1.258 . S
O174 Co171 1.966 . S
O174 C172 1.263 . S
C175 O176 1.235 . S
C175 O202 1.289 . S
O176 C175 1.235 . S
C177 C179 1.400 . S
C177 N180 1.351 . S
C177 C182 1.501 . S
C178 C179 1.387 1_655 S
C178 N181 1.341 . S
C179 C177 1.400 . S
C179 C178 1.387 1_455 S
N180 Co171 2.022 . S
N180 C177 1.351 . S
N180 N181 1.365 1_455 S
N181 C178 1.341 . S
N181 N180 1.365 1_655 S
N181 H201 0.862 . S
C182 C177 1.501 . S
C182 H183 0.961 . S
C182 H184 0.961 . S
C182 H185 0.960 . S
H183 C182 0.961 . S
H184 C182 0.961 . S
H185 C182 0.960 . S
C186 N187 1.342 . S
C186 C190 1.401 . S
C186 C191 1.499 . S
N187 Co170 1.989 . S
N187 C186 1.342 . S
N187 N188 1.388 . S
N188 Co171 1.993 . S
N188 N187 1.388 . S
N188 C189 1.346 . S
C189 N188 1.346 . S
C189 C190 1.396 . S
C189 C199 1.510 . S
C190 C186 1.401 . S
C190 C189 1.396 . S
C191 C186 1.499 . S
C191 H192 0.959 . S
C191 H193 0.960 . S
C191 H194 0.961 1_455 S
H192 C191 0.959 . S
H193 C191 0.960 . S
H194 C191 0.961 1_655 S
O195 Co170 1.967 1_655 S
O195 C203 1.258 . S
O196 Co171 1.941 1_655 S
O196 C203 1.266 . S
H197 C199 0.959 1_655 S
H198 C199 0.961 . S
C199 C189 1.510 . S
C199 H197 0.959 1_455 S
C199 H198 0.961 . S
C199 H200 0.960 . S
H200 C199 0.960 . S
H201 N181 0.862 . S
O202 Co170 1.920 . S
O202 C175 1.289 . S
C203 O195 1.258 . S
C203 O196 1.266 . S
Co204 O207 1.970 . S
Co204 N221 1.989 . S
Co204 O229 1.967 1_545 S
Co204 O236 1.920 1_655 S
Co205 O208 1.966 . S
Co205 N214 2.022 . S
Co205 N222 1.993 . S
Co205 O230 1.941 1_545 S
C206 O207 1.258 . S
C206 O208 1.263 . S
O207 Co204 1.970 . S
O207 C206 1.258 . S
O208 Co205 1.966 . S
O208 C206 1.263 . S
C209 O210 1.235 . S
C209 O236 1.289 . S
O210 C209 1.235 . S
C211 C213 1.400 . S
C211 N214 1.351 . S
C211 C216 1.501 . S
C212 C213 1.387 1_565 S
C212 N215 1.341 . S
C213 C211 1.400 . S
C213 C212 1.387 1_545 S
N214 Co205 2.022 . S
N214 C211 1.351 . S
N214 N215 1.365 1_545 S
N215 C212 1.341 . S
N215 N214 1.365 1_565 S
N215 H235 0.862 . S
C216 C211 1.501 . S
C216 H217 0.961 . S
C216 H218 0.961 . S
C216 H219 0.960 . S
H217 C216 0.961 . S
H218 C216 0.961 . S
H219 C216 0.960 . S
C220 N221 1.342 . S
C220 C224 1.401 . S
C220 C225 1.499 . S
N221 Co204 1.989 . S
N221 C220 1.342 . S
N221 N222 1.388 . S
N222 Co205 1.993 . S
N222 N221 1.388 . S
N222 C223 1.346 . S
C223 N222 1.346 . S
C223 C224 1.396 . S
C223 C233 1.510 . S
C224 C220 1.401 . S
C224 C223 1.396 . S
C225 C220 1.499 . S
C225 H226 0.959 . S
C225 H227 0.960 . S
C225 H228 0.961 1_545 S
H226 C225 0.959 . S
H227 C225 0.960 . S
H228 C225 0.961 1_565 S
O229 Co204 1.967 1_565 S
O229 C237 1.258 . S
O230 Co205 1.941 1_565 S
O230 C237 1.266 . S
H231 C233 0.959 1_565 S
H232 C233 0.961 . S
C233 C223 1.510 . S
C233 H231 0.959 1_545 S
C233 H232 0.961 . S
C233 H234 0.960 . S
H234 C233 0.960 . S
H235 N215 0.862 . S
O236 Co204 1.920 1_455 S
O236 C209 1.289 . S
C237 O229 1.258 . S
C237 O230 1.266 . S
Co238 O241 1.970 1_455 S
Co238 N255 1.989 . S
Co238 O263 1.967 . S
Co238 O270 1.920 1_565 S
Co239 O242 1.966 1_455 S
Co239 N248 2.022 . S
Co239 N256 1.993 . S
Co239 O264 1.941 . S
C240 O241 1.258 . S
C240 O242 1.263 . S
O241 Co238 1.970 1_655 S
O241 C240 1.258 . S
O242 Co239 1.966 1_655 S
O242 C240 1.263 . S
C243 O244 1.235 . S
C243 O270 1.289 1_655 S
O244 C243 1.235 . S
C245 C247 1.400 1_655 S
C245 N248 1.351 1_655 S
C245 C250 1.501 . S
C246 C247 1.387 . S
C246 N249 1.341 . S
C247 C245 1.400 1_455 S
C247 C246 1.387 . S
N248 Co239 2.022 . S
N248 C245 1.351 1_455 S
N248 N249 1.365 . S
N249 C246 1.341 . S
N249 N248 1.365 . S
N249 H269 0.862 . S
C250 C245 1.501 . S
C250 H251 0.961 . S
C250 H252 0.961 . S
C250 H253 0.960 . S
H251 C250 0.961 . S
H252 C250 0.961 . S
H253 C250 0.960 . S
C254 N255 1.342 . S
C254 C258 1.401 . S
C254 C259 1.499 . S
N255 Co238 1.989 . S
N255 C254 1.342 . S
N255 N256 1.388 . S
N256 Co239 1.993 . S
N256 N255 1.388 . S
N256 C257 1.346 . S
C257 N256 1.346 . S
C257 C258 1.396 . S
C257 C267 1.510 . S
C258 C254 1.401 . S
C258 C257 1.396 . S
C259 C254 1.499 . S
C259 H260 0.959 . S
C259 H261 0.960 . S
C259 H262 0.961 . S
H260 C259 0.959 . S
H261 C259 0.960 . S
H262 C259 0.961 . S
O263 Co238 1.967 . S
O263 C271 1.258 . S
O264 Co239 1.941 . S
O264 C271 1.266 . S
H265 C267 0.959 . S
H266 C267 0.961 1_655 S
C267 C257 1.510 . S
C267 H265 0.959 . S
C267 H266 0.961 1_455 S
C267 H268 0.960 . S
H268 C267 0.960 . S
H269 N249 0.862 . S
O270 Co238 1.920 1_545 S
O270 C243 1.289 1_455 S
C271 O263 1.258 . S
C271 O264 1.266 . S
C20 C156 1.898 1_554 S
C190 C54 1.898 . S
C88 C224 1.898 1_554 S
C258 C122 1.898 . S
C172 C2 2.349 . S
C206 C36 2.349 . S
C70 C240 2.349 . S
C138 C104 2.349 . S
C135 C237 2.126 . S
C33 C271 2.126 . S
C67 C169 2.126 . S
C101 C203 2.126 . S
C5 C73 2.157 1_545 S
C39 C107 2.159 1_655 S
C209 C141 2.159 1_545 S
C243 C175 2.157 1_655 S
C9 C77 1.432 . S
C111 C43 1.434 . S
C145 C213 1.434 . S
C179 C247 1.432 . S
