# Generated by pormake.
# Topology uoq, (4)-cn, num edge types: 1
# Building blocks:
#     Node 0, Type 0, BuildingBlock: UXUYUI_clean_sbu_0, # of connection points: 4
#     Node 1, Type 0, BuildingBlock: UXUYUI_clean_sbu_0, # of connection points: 4
#     Node 2, Type 0, BuildingBlock: UXUYUI_clean_sbu_0, # of connection points: 4
#     Node 3, Type 0, BuildingBlock: UXUYUI_clean_sbu_0, # of connection points: 4
#     Node 4, Type 0, BuildingBlock: UXUYUI_clean_sbu_0, # of connection points: 4
#     Node 5, Type 0, BuildingBlock: UXUYUI_clean_sbu_0, # of connection points: 4
#     Node 6, Type 0, BuildingBlock: UXUYUI_clean_sbu_0, # of connection points: 4
#     Node 7, Type 0, BuildingBlock: UXUYUI_clean_sbu_0, # of connection points: 4
#     Node 8, Type 0, BuildingBlock: UXUYUI_clean_sbu_0, # of connection points: 4
#     Node 9, Type 0, BuildingBlock: UXUYUI_clean_sbu_0, # of connection points: 4
#     Node 10, Type 0, BuildingBlock: UXUYUI_clean_sbu_0, # of connection points: 4
#     Node 11, Type 0, BuildingBlock: UXUYUI_clean_sbu_0, # of connection points: 4
#     Edge 12, Type (0, 0), BuildingBlock: KIFKEQ_clean_linker_1, # of connection points: 2
#     Edge 13, Type (0, 0), BuildingBlock: KIFKEQ_clean_linker_1, # of connection points: 2
#     Edge 14, Type (0, 0), BuildingBlock: KIFKEQ_clean_linker_1, # of connection points: 2
#     Edge 15, Type (0, 0), BuildingBlock: KIFKEQ_clean_linker_1, # of connection points: 2
#     Edge 16, Type (0, 0), BuildingBlock: KIFKEQ_clean_linker_1, # of connection points: 2
#     Edge 17, Type (0, 0), BuildingBlock: KIFKEQ_clean_linker_1, # of connection points: 2
#     Edge 18, Type (0, 0), BuildingBlock: KIFKEQ_clean_linker_1, # of connection points: 2
#     Edge 19, Type (0, 0), BuildingBlock: KIFKEQ_clean_linker_1, # of connection points: 2
#     Edge 20, Type (0, 0), BuildingBlock: KIFKEQ_clean_linker_1, # of connection points: 2
#     Edge 21, Type (0, 0), BuildingBlock: KIFKEQ_clean_linker_1, # of connection points: 2
#     Edge 22, Type (0, 0), BuildingBlock: KIFKEQ_clean_linker_1, # of connection points: 2
#     Edge 23, Type (0, 0), BuildingBlock: KIFKEQ_clean_linker_1, # of connection points: 2
#     Edge 24, Type (0, 0), BuildingBlock: KIFKEQ_clean_linker_1, # of connection points: 2
#     Edge 25, Type (0, 0), BuildingBlock: KIFKEQ_clean_linker_1, # of connection points: 2
#     Edge 26, Type (0, 0), BuildingBlock: KIFKEQ_clean_linker_1, # of connection points: 2
#     Edge 27, Type (0, 0), BuildingBlock: KIFKEQ_clean_linker_1, # of connection points: 2
#     Edge 28, Type (0, 0), BuildingBlock: KIFKEQ_clean_linker_1, # of connection points: 2
#     Edge 29, Type (0, 0), BuildingBlock: KIFKEQ_clean_linker_1, # of connection points: 2
#     Edge 30, Type (0, 0), BuildingBlock: KIFKEQ_clean_linker_1, # of connection points: 2
#     Edge 31, Type (0, 0), BuildingBlock: KIFKEQ_clean_linker_1, # of connection points: 2
#     Edge 32, Type (0, 0), BuildingBlock: KIFKEQ_clean_linker_1, # of connection points: 2
#     Edge 33, Type (0, 0), BuildingBlock: KIFKEQ_clean_linker_1, # of connection points: 2
#     Edge 34, Type (0, 0), BuildingBlock: KIFKEQ_clean_linker_1, # of connection points: 2
#     Edge 35, Type (0, 0), BuildingBlock: KIFKEQ_clean_linker_1, # of connection points: 2
# Relax obj value: 0.147
# Max RMSD: 0.104
# Mean RMSD: 0.104
data_MOF--net-uoq--node1-UXUYUI_clean_sbu_0--edge1-KIFKEQ_clean_linker_1
_symmetry_space_group_name_H-M    P1
_symmetry_Int_Tables_number       1
_symmetry_cell_setting            triclinic
loop_
_symmetry_equiv_pos_as_xyz
'x, y, z'
_cell_length_a     85.635947
_cell_length_b     85.643115
_cell_length_c     35.748507
_cell_angle_alpha  89.987707
_cell_angle_beta   90.007684
_cell_angle_gamma 119.99365
loop_
_atom_site_label
_atom_site_type_symbol
_atom_site_fract_x
_atom_site_fract_y
_atom_site_fract_z
_atom_type_partial_charge
Li0 Li 0.294 0.44614 0.28199 0.0
Li1 Li 0.31053 0.4332 0.25344 0.0
Li2 Li 0.32302 0.46667 0.25265 0.0
Li3 Li 0.29554 0.44531 0.21405 0.0
C4 C 0.32163 0.44968 0.33196 0.0
N5 N 0.32939 0.44827 0.40655 0.0
C6 C 0.31642 0.4331 0.34905 0.0
C7 C 0.33103 0.46556 0.35274 0.0
C8 C 0.32041 0.43267 0.38679 0.0
C9 C 0.33474 0.46457 0.39043 0.0
C10 C 0.27376 0.40705 0.25822 0.0
C11 C 0.25342 0.37623 0.24025 0.0
N12 N 0.2527 0.37102 0.27646 0.0
C13 C 0.27269 0.40142 0.29528 0.0
C14 C 0.26395 0.39439 0.23048 0.0
C15 C 0.26201 0.38314 0.30393 0.0
C16 C 0.26113 0.43204 0.32335 0.0
N17 N 0.279 0.44455 0.32328 0.0
C18 C 0.27646 0.45525 0.38338 0.0
C19 C 0.28663 0.45632 0.35208 0.0
C20 C 0.25814 0.44206 0.38493 0.0
C21 C 0.25038 0.43052 0.35413 0.0
H22 H 0.25524 0.42316 0.29963 0.0
H23 H 0.30059 0.46673 0.35063 0.0
C24 C 0.33638 0.4251 0.2743 0.0
N25 N 0.31924 0.41673 0.26089 0.0
C26 C 0.34412 0.41508 0.28667 0.0
C27 C 0.31687 0.38787 0.26908 0.0
C28 C 0.30956 0.39848 0.25717 0.0
C29 C 0.33421 0.39618 0.28501 0.0
H30 H 0.34381 0.43964 0.27672 0.0
H31 H 0.29603 0.39207 0.24608 0.0
C32 C 0.29117 0.47415 0.26266 0.0
N33 N 0.27311 0.48898 0.29871 0.0
C34 C 0.2728 0.46735 0.25608 0.0
C35 C 0.30039 0.48854 0.28742 0.0
C36 C 0.2639 0.47501 0.27464 0.0
C37 C 0.29101 0.49585 0.30539 0.0
C38 C 0.32313 0.44166 0.17963 0.0
C39 C 0.33841 0.45043 0.15696 0.0
C40 C 0.30974 0.42406 0.17108 0.0
C41 C 0.34003 0.44142 0.12592 0.0
C42 C 0.31185 0.41551 0.13982 0.0
N43 N 0.32682 0.42429 0.11807 0.0
C44 C 0.35812 0.48813 0.27703 0.0
C45 C 0.34649 0.50508 0.24794 0.0
C46 C 0.37353 0.50387 0.28832 0.0
N47 N 0.34478 0.48901 0.25825 0.0
C48 C 0.36189 0.52123 0.25815 0.0
C49 C 0.37537 0.52067 0.27954 0.0
H50 H 0.35639 0.47515 0.28475 0.0
H51 H 0.33562 0.50536 0.23313 0.0
C52 C 0.26391 0.43394 0.17276 0.0
N53 N 0.28216 0.44278 0.16938 0.0
C54 C 0.25311 0.43283 0.14243 0.0
C55 C 0.28003 0.44932 0.10506 0.0
C56 C 0.29035 0.45032 0.13634 0.0
C57 C 0.26114 0.44073 0.10809 0.0
H58 H 0.25775 0.42807 0.19937 0.0
H59 H 0.30491 0.45743 0.13445 0.0
O60 O 0.31814 0.45045 0.2948 0.0
O61 O 0.28418 0.42486 0.24901 0.0
O62 O 0.3 0.46651 0.24552 0.0
O63 O 0.32134 0.45033 0.21004 0.0
H64 H 0.30956 0.42069 0.33333 0.0
H65 H 0.33516 0.47853 0.34006 0.0
H66 H 0.31644 0.41992 0.40034 0.0
H67 H 0.34186 0.47675 0.40689 0.0
H68 H 0.24583 0.36627 0.21905 0.0
H69 H 0.27988 0.41106 0.31718 0.0
H70 H 0.26451 0.39855 0.20168 0.0
H71 H 0.26109 0.3786 0.33251 0.0
H72 H 0.28285 0.46476 0.40603 0.0
H73 H 0.23626 0.42023 0.35414 0.0
H74 H 0.35766 0.42207 0.29801 0.0
H75 H 0.30878 0.37333 0.26722 0.0
H76 H 0.26546 0.45615 0.23718 0.0
H77 H 0.31455 0.4938 0.29321 0.0
H78 H 0.24967 0.46982 0.26999 0.0
H79 H 0.29794 0.50691 0.32481 0.0
H80 H 0.3489 0.46406 0.16327 0.0
H81 H 0.29786 0.41708 0.18835 0.0
H82 H 0.35178 0.44804 0.10808 0.0
H83 H 0.30159 0.40189 0.13286 0.0
H84 H 0.38374 0.50294 0.30445 0.0
H85 H 0.36286 0.53398 0.25097 0.0
H86 H 0.2386 0.42591 0.14586 0.0
H87 H 0.28677 0.45571 0.07918 0.0
Li88 Li 0.85098 0.29383 0.61732 0.0
Li89 Li 0.87907 0.30999 0.58598 0.0
Li90 Li 0.85924 0.32275 0.5882 0.0
Li91 Li 0.85178 0.29452 0.54883 0.0
C92 C 0.87927 0.31743 0.66239 0.0
N93 N 0.89629 0.31657 0.72742 0.0
C94 C 0.8832 0.30363 0.66836 0.0
C95 C 0.88392 0.33074 0.68963 0.0
C96 C 0.89184 0.30344 0.70135 0.0
C97 C 0.89253 0.33008 0.7223 0.0
C98 C 0.86844 0.27304 0.57229 0.0
C99 C 0.88015 0.26202 0.52407 0.0
N100 N 0.88226 0.2515 0.54977 0.0
C101 C 0.87054 0.26198 0.59816 0.0
C102 C 0.87312 0.27295 0.53489 0.0
C103 C 0.87762 0.25125 0.58625 0.0
C104 C 0.83122 0.26118 0.65783 0.0
N105 N 0.83861 0.27937 0.65944 0.0
C106 C 0.82826 0.27761 0.72215 0.0
C107 C 0.83726 0.28769 0.69064 0.0
C108 C 0.82047 0.25878 0.72143 0.0
C109 C 0.82198 0.25054 0.68869 0.0
H110 H 0.83243 0.25496 0.63251 0.0
H111 H 0.84304 0.30217 0.69091 0.0
C112 C 0.91403 0.33602 0.60269 0.0
N113 N 0.90451 0.3185 0.59167 0.0
C114 C 0.93202 0.34364 0.61353 0.0
C115 C 0.93041 0.31519 0.60097 0.0
C116 C 0.91241 0.30812 0.59 0.0
C117 C 0.94037 0.33309 0.61376 0.0
H118 H 0.9074 0.34392 0.60446 0.0
H119 H 0.90469 0.29419 0.58168 0.0
C120 C 0.82018 0.29154 0.60203 0.0
N121 N 0.78868 0.27485 0.64316 0.0
C122 C 0.80751 0.27344 0.59557 0.0
C123 C 0.81681 0.30119 0.62927 0.0
C124 C 0.79167 0.26523 0.61671 0.0
C125 C 0.80079 0.2925 0.64979 0.0
C126 C 0.8882 0.33181 0.52737 0.0
C127 C 0.89617 0.35039 0.53319 0.0
C128 C 0.89715 0.32512 0.50572 0.0
C129 C 0.91314 0.36193 0.51786 0.0
C130 C 0.9141 0.33709 0.49091 0.0
N131 N 0.92169 0.3551 0.49726 0.0
C132 C 0.87138 0.35707 0.61601 0.0
C133 C 0.84387 0.34582 0.58276 0.0
C134 C 0.87057 0.37225 0.62712 0.0
N135 N 0.85801 0.34411 0.59485 0.0
C136 C 0.84259 0.36092 0.59302 0.0
C137 C 0.85587 0.37416 0.61621 0.0
H138 H 0.88251 0.35538 0.62497 0.0
H139 H 0.83331 0.33518 0.56632 0.0
C140 C 0.82928 0.26272 0.50903 0.0
N141 N 0.83968 0.28089 0.5052 0.0
C142 C 0.8194 0.25205 0.47871 0.0
C143 C 0.83136 0.27894 0.44073 0.0
C144 C 0.84099 0.28912 0.47189 0.0
C145 C 0.82025 0.26011 0.44391 0.0
H146 H 0.8285 0.25654 0.53587 0.0
H147 H 0.8494 0.3036 0.46961 0.0
O148 O 0.87087 0.31793 0.63018 0.0
O149 O 0.8614 0.28352 0.58354 0.0
O150 O 0.83604 0.29966 0.58252 0.0
O151 O 0.87174 0.3203 0.54275 0.0
H152 H 0.87969 0.2932 0.64771 0.0
H153 H 0.88084 0.34144 0.68569 0.0
H154 H 0.895 0.29286 0.70623 0.0
H155 H 0.8962 0.34031 0.7436 0.0
H156 H 0.88388 0.26186 0.49523 0.0
H157 H 0.86676 0.26169 0.62714 0.0
H158 H 0.87127 0.28113 0.51437 0.0
H159 H 0.87941 0.24269 0.606 0.0
H160 H 0.82713 0.28446 0.74657 0.0
H161 H 0.81623 0.23606 0.68708 0.0
H162 H 0.93917 0.3576 0.62238 0.0
H163 H 0.93619 0.30646 0.60094 0.0
H164 H 0.80997 0.26576 0.57475 0.0
H165 H 0.82658 0.31515 0.63494 0.0
H166 H 0.78179 0.2512 0.61217 0.0
H167 H 0.79805 0.29976 0.67112 0.0
H168 H 0.88939 0.35584 0.54952 0.0
H169 H 0.89115 0.31084 0.50059 0.0
H170 H 0.9195 0.37632 0.52236 0.0
H171 H 0.92123 0.33207 0.47435 0.0
H172 H 0.88124 0.38228 0.64449 0.0
H173 H 0.83099 0.36188 0.58421 0.0
H174 H 0.81088 0.23767 0.48281 0.0
H175 H 0.83267 0.28575 0.41441 0.0
Li176 Li 0.57041 0.87746 0.92127 0.0
Li177 Li 0.55837 0.84756 0.94843 0.0
Li178 Li 0.55704 0.85056 0.88295 0.0
Li179 Li 0.53645 0.85537 0.92162 0.0
C180 C 0.5945 0.86822 0.89316 0.0
N181 N 0.62528 0.88455 0.84968 0.0
C182 C 0.60933 0.86632 0.90228 0.0
C183 C 0.59532 0.87841 0.86193 0.0
C184 C 0.62478 0.87469 0.87995 0.0
C185 C 0.61099 0.88656 0.84029 0.0
C186 C 0.5532 0.86616 1.00141 0.0
C187 C 0.53705 0.85326 0.05879 0.0
N188 N 0.55262 0.86304 0.07835 0.0
C189 C 0.56901 0.87616 0.02205 0.0
C190 C 0.53706 0.85467 0.01985 0.0
C191 C 0.56844 0.87437 0.06095 0.0
C192 C 0.58113 0.91406 0.92364 0.0
N193 N 0.58723 0.90231 0.92891 0.0
C194 C 0.61502 0.92581 0.95383 0.0
C195 C 0.60387 0.90781 0.94335 0.0
C196 C 0.6089 0.93822 0.94975 0.0
C197 C 0.59178 0.93214 0.93385 0.0
H198 H 0.56768 0.9092 0.9128 0.0
H199 H 0.60824 0.8981 0.9479 0.0
C200 C 0.54629 0.82085 0.00373 0.0
N201 N 0.56122 0.83535 0.98963 0.0
C202 C 0.54745 0.81248 0.03621 0.0
C203 C 0.57938 0.83409 0.0389 0.0
C204 C 0.57761 0.84199 0.00619 0.0
C205 C 0.56412 0.81921 0.05454 0.0
H206 H 0.53341 0.81603 0.99008 0.0
H207 H 0.58918 0.85375 0.99456 0.0
C208 C 0.54492 0.87278 0.84775 0.0
N209 N 0.53005 0.87639 0.782 0.0
C210 C 0.52676 0.86093 0.83964 0.0
C211 C 0.55545 0.88662 0.82267 0.0
C212 C 0.51951 0.86294 0.80619 0.0
C213 C 0.5477 0.88817 0.78949 0.0
C214 C 0.53183 0.81713 0.89769 0.0
C215 C 0.53974 0.80663 0.9055 0.0
C216 C 0.51871 0.81168 0.86974 0.0
C217 C 0.5345 0.79091 0.88491 0.0
C218 C 0.51387 0.7959 0.84973 0.0
N219 N 0.52181 0.78593 0.85765 0.0
C220 C 0.56873 0.83085 0.8403 0.0
C221 C 0.5512 0.83952 0.80411 0.0
C222 C 0.56984 0.82094 0.8104 0.0
N223 N 0.55932 0.83972 0.83696 0.0
C224 C 0.55207 0.82987 0.77335 0.0
C225 C 0.56129 0.82018 0.77633 0.0
H226 H 0.57488 0.83094 0.86677 0.0
H227 H 0.54369 0.84647 0.80169 0.0
C228 C 0.51528 0.86946 0.94594 0.0
N229 N 0.51416 0.85419 0.93191 0.0
C230 C 0.49988 0.8693 0.95916 0.0
C231 C 0.4823 0.83783 0.94202 0.0
C232 C 0.49813 0.83855 0.92948 0.0
C233 C 0.48315 0.85328 0.95777 0.0
H234 H 0.52828 0.88162 0.94795 0.0
H235 H 0.49772 0.82652 0.91888 0.0
O236 O 0.57932 0.86006 0.91485 0.0
O237 O 0.5536 0.86726 0.96326 0.0
O238 O 0.55221 0.87127 0.88065 0.0
O239 O 0.53713 0.83281 0.9169 0.0
H240 H 0.6089 0.85846 0.92639 0.0
H241 H 0.58398 0.87999 0.85439 0.0
H242 H 0.63636 0.87333 0.88669 0.0
H243 H 0.61179 0.89448 0.81602 0.0
H244 H 0.52469 0.84433 0.07344 0.0
H245 H 0.58162 0.88503 0.00812 0.0
H246 H 0.52473 0.84674 0.00421 0.0
H247 H 0.5806 0.88193 0.07729 0.0
H248 H 0.62817 0.92988 0.96553 0.0
H249 H 0.58632 0.94106 0.93072 0.0
H250 H 0.53539 0.80089 0.04688 0.0
H251 H 0.59244 0.83987 0.05232 0.0
H252 H 0.5184 0.8502 0.85872 0.0
H253 H 0.56945 0.89611 0.82881 0.0
H254 H 0.50551 0.85379 0.79945 0.0
H255 H 0.55571 0.89877 0.76975 0.0
H256 H 0.55003 0.81073 0.92679 0.0
H257 H 0.51246 0.81964 0.86329 0.0
H258 H 0.54061 0.78273 0.89046 0.0
H259 H 0.50384 0.79159 0.82783 0.0
H260 H 0.57686 0.8135 0.81446 0.0
H261 H 0.54549 0.82996 0.74756 0.0
H262 H 0.50107 0.88153 0.9708 0.0
H263 H 0.46968 0.82518 0.94078 0.0
Li264 Li 0.71047 0.5582 0.282 0.0
Li265 Li 0.69219 0.56854 0.25283 0.0
Li266 Li 0.68143 0.53603 0.25498 0.0
Li267 Li 0.70851 0.55685 0.21432 0.0
C268 C 0.68155 0.55447 0.33181 0.0
N269 N 0.67157 0.55775 0.40369 0.0
C270 C 0.68506 0.57127 0.34524 0.0
C271 C 0.67285 0.53933 0.355 0.0
C272 C 0.67994 0.57265 0.38163 0.0
C273 C 0.66796 0.54127 0.39123 0.0
C274 C 0.73435 0.59062 0.2628 0.0
C275 C 0.76627 0.60257 0.27117 0.0
N276 N 0.76626 0.6133 0.29921 0.0
C277 C 0.73466 0.60184 0.29154 0.0
C278 C 0.75027 0.59103 0.25236 0.0
C279 C 0.75093 0.61319 0.30966 0.0
C280 C 0.73971 0.5571 0.31625 0.0
N281 N 0.72702 0.56197 0.32197 0.0
C282 C 0.73762 0.57134 0.38432 0.0
C283 C 0.72604 0.5693 0.35497 0.0
C284 C 0.75057 0.56602 0.37965 0.0
C285 C 0.75167 0.559 0.34483 0.0
H286 H 0.74051 0.55168 0.28946 0.0
H287 H 0.71634 0.57363 0.3587 0.0
C288 C 0.66519 0.57631 0.26942 0.0
N289 N 0.68262 0.58437 0.25783 0.0
C290 C 0.65757 0.58666 0.28026 0.0
C291 C 0.68572 0.61354 0.26541 0.0
C292 C 0.69285 0.60261 0.25488 0.0
C293 C 0.66799 0.60556 0.27928 0.0
H294 H 0.65746 0.56178 0.2719 0.0
H295 H 0.70674 0.60867 0.2459 0.0
C296 C 0.7051 0.52296 0.26663 0.0
N297 N 0.70401 0.49349 0.3008 0.0
C298 C 0.71012 0.5121 0.24679 0.0
C299 C 0.69955 0.51885 0.30383 0.0
C300 C 0.70947 0.49725 0.26456 0.0
C301 C 0.69909 0.5039 0.32063 0.0
C302 C 0.67192 0.55598 0.19288 0.0
C303 C 0.65316 0.54576 0.19564 0.0
C304 C 0.67991 0.57232 0.17344 0.0
C305 C 0.64266 0.55214 0.17902 0.0
C306 C 0.66895 0.57825 0.15725 0.0
N307 N 0.65071 0.56813 0.16036 0.0
C308 C 0.64674 0.51403 0.28061 0.0
C309 C 0.65868 0.49724 0.25226 0.0
C310 C 0.63121 0.49826 0.29122 0.0
N311 N 0.66022 0.51328 0.26221 0.0
C312 C 0.64322 0.48105 0.26199 0.0
C313 C 0.6293 0.48139 0.28228 0.0
H314 H 0.6483 0.52698 0.28802 0.0
H315 H 0.66953 0.497 0.23734 0.0
C316 C 0.73456 0.55319 0.17511 0.0
N317 N 0.72183 0.55808 0.17036 0.0
C318 C 0.74509 0.55349 0.145 0.0
C319 C 0.72938 0.56402 0.10542 0.0
C320 C 0.71905 0.56344 0.13639 0.0
C321 C 0.74257 0.55892 0.10948 0.0
H322 H 0.73659 0.54912 0.20249 0.0
H323 H 0.7088 0.56718 0.13325 0.0
O324 O 0.68606 0.55272 0.29587 0.0
O325 O 0.71846 0.57902 0.24553 0.0
O326 O 0.70553 0.53745 0.2495 0.0
O327 O 0.68244 0.55017 0.20974 0.0
H328 H 0.69196 0.5832 0.32808 0.0
H329 H 0.66982 0.52617 0.34516 0.0
H330 H 0.68267 0.58558 0.39237 0.0
H331 H 0.66124 0.52966 0.40942 0.0
H332 H 0.77868 0.60294 0.26356 0.0
H333 H 0.72244 0.60161 0.3001 0.0
H334 H 0.75024 0.5824 0.23024 0.0
H335 H 0.75136 0.62185 0.33213 0.0
H336 H 0.73612 0.57669 0.41067 0.0
H337 H 0.76166 0.55504 0.33965 0.0
H338 H 0.64377 0.57993 0.29017 0.0
H339 H 0.69424 0.62806 0.26437 0.0
H340 H 0.7144 0.51507 0.2179 0.0
H341 H 0.69578 0.52719 0.31962 0.0
H342 H 0.71328 0.48871 0.24953 0.0
H343 H 0.69484 0.50058 0.34944 0.0
H344 H 0.64678 0.53308 0.21063 0.0
H345 H 0.69444 0.5805 0.17149 0.0
H346 H 0.62811 0.54441 0.18103 0.0
H347 H 0.67494 0.59094 0.14235 0.0
H348 H 0.62109 0.49935 0.3073 0.0
H349 H 0.64226 0.46842 0.25386 0.0
H350 H 0.75527 0.54972 0.14965 0.0
H351 H 0.72685 0.56813 0.0785 0.0
Li352 Li 0.15301 0.70993 0.62177 0.0
Li353 Li 0.12506 0.69304 0.59034 0.0
Li354 Li 0.14527 0.68088 0.59398 0.0
Li355 Li 0.15233 0.70864 0.55318 0.0
C356 C 0.12505 0.68646 0.6675 0.0
N357 N 0.10831 0.68779 0.73254 0.0
C358 C 0.12026 0.69972 0.67218 0.0
C359 C 0.12137 0.6739 0.69598 0.0
C360 C 0.11179 0.70016 0.70521 0.0
C361 C 0.1129 0.67479 0.72864 0.0
C362 C 0.13468 0.72949 0.5752 0.0
C363 C 0.1228 0.73991 0.52611 0.0
N364 N 0.11976 0.74991 0.55155 0.0
C365 C 0.13165 0.74004 0.60077 0.0
C366 C 0.1304 0.72956 0.5375 0.0
C367 C 0.12401 0.75019 0.5883 0.0
C368 C 0.17299 0.74311 0.66065 0.0
N369 N 0.16525 0.7249 0.66346 0.0
C370 C 0.1751 0.72732 0.72676 0.0
C371 C 0.16625 0.71691 0.69553 0.0
C372 C 0.18327 0.74615 0.72474 0.0
C373 C 0.18225 0.75409 0.69112 0.0
H374 H 0.17208 0.74907 0.63466 0.0
H375 H 0.16034 0.70243 0.69671 0.0
C376 C 0.09058 0.66714 0.60993 0.0
N377 N 0.09945 0.68396 0.59487 0.0
C378 C 0.07238 0.65912 0.61918 0.0
C379 C 0.07236 0.68564 0.59634 0.0
C380 C 0.09068 0.6932 0.5875 0.0
C381 C 0.06301 0.66844 0.61286 0.0
H382 H 0.09784 0.66011 0.61591 0.0
H383 H 0.09785 0.70653 0.57558 0.0
C384 C 0.18394 0.71214 0.60793 0.0
N385 N 0.21508 0.72858 0.6503 0.0
C386 C 0.19695 0.7301 0.6012 0.0
C387 C 0.18679 0.7025 0.63607 0.0
C388 C 0.2126 0.73818 0.62297 0.0
C389 C 0.20262 0.71106 0.6572 0.0
C390 C 0.11636 0.67135 0.53221 0.0
C391 C 0.10718 0.65305 0.54148 0.0
C392 C 0.10863 0.67798 0.50692 0.0
C393 C 0.09024 0.64173 0.52584 0.0
C394 C 0.09166 0.66624 0.49189 0.0
N395 N 0.08288 0.64851 0.50162 0.0
C396 C 0.13378 0.64694 0.62336 0.0
C397 C 0.16083 0.65801 0.5885 0.0
C398 C 0.13473 0.63181 0.63428 0.0
N399 N 0.14684 0.65975 0.60138 0.0
C400 C 0.16225 0.64296 0.59857 0.0
C401 C 0.14925 0.6298 0.62236 0.0
H402 H 0.12276 0.64865 0.63296 0.0
H403 H 0.17113 0.66854 0.57139 0.0
C404 C 0.1753 0.74008 0.51297 0.0
N405 N 0.1643 0.72199 0.50916 0.0
C406 C 0.1851 0.75059 0.48241 0.0
C407 C 0.17169 0.72374 0.44414 0.0
C408 C 0.16223 0.71371 0.47559 0.0
C409 C 0.18349 0.74244 0.44741 0.0
H410 H 0.17653 0.74634 0.53992 0.0
H411 H 0.15337 0.69929 0.47334 0.0
O412 O 0.1334 0.68577 0.63536 0.0
O413 O 0.14231 0.71961 0.58696 0.0
O414 O 0.16827 0.70415 0.5878 0.0
O415 O 0.13278 0.6827 0.54796 0.0
H416 H 0.12299 0.70952 0.6505 0.0
H417 H 0.12512 0.66363 0.69302 0.0
H418 H 0.10797 0.71034 0.70912 0.0
H419 H 0.10999 0.66517 0.75092 0.0
H420 H 0.11935 0.74002 0.49704 0.0
H421 H 0.1352 0.74042 0.62995 0.0
H422 H 0.13292 0.72175 0.51721 0.0
H423 H 0.1215 0.75834 0.60782 0.0
H424 H 0.17589 0.72074 0.75199 0.0
H425 H 0.18841 0.76858 0.68858 0.0
H426 H 0.06592 0.646 0.63243 0.0
H427 H 0.06565 0.69325 0.59057 0.0
H428 H 0.19492 0.73777 0.57967 0.0
H429 H 0.17676 0.68865 0.64195 0.0
H430 H 0.22274 0.75211 0.61822 0.0
H431 H 0.20495 0.7038 0.67923 0.0
H432 H 0.113 0.64766 0.56082 0.0
H433 H 0.11562 0.69203 0.49902 0.0
H434 H 0.08293 0.62756 0.53302 0.0
H435 H 0.08547 0.67121 0.47247 0.0
H436 H 0.12427 0.62184 0.65211 0.0
H437 H 0.17371 0.64195 0.58896 0.0
H438 H 0.19379 0.76498 0.48611 0.0
H439 H 0.17012 0.71688 0.41778 0.0
Li440 Li 0.4459 0.15527 0.95018 0.0
Li441 Li 0.43313 0.12502 0.92414 0.0
Li442 Li 0.46719 0.14679 0.92216 0.0
Li443 Li 0.44617 0.1515 0.88465 0.0
C444 C 0.45274 0.13793 0.00309 0.0
N445 N 0.45678 0.1437 0.07938 0.0
C446 C 0.43803 0.1284 0.02693 0.0
C447 C 0.46953 0.15034 0.01802 0.0
C448 C 0.44034 0.13153 0.06543 0.0
C449 C 0.4713 0.15306 0.05667 0.0
C450 C 0.40883 0.13433 0.89775 0.0
C451 C 0.39131 0.11601 0.84576 0.0
N452 N 0.37712 0.11777 0.85722 0.0
C453 C 0.39409 0.13597 0.90902 0.0
C454 C 0.40745 0.12427 0.8659 0.0
C455 C 0.37817 0.12749 0.88816 0.0
C456 C 0.45842 0.18266 0.00461 0.0
N457 N 0.44351 0.16788 0.99123 0.0
C458 C 0.42554 0.16928 0.04075 0.0
C459 C 0.42724 0.16115 0.00833 0.0
C460 C 0.44076 0.18447 0.05558 0.0
C461 C 0.45733 0.19125 0.03681 0.0
H462 H 0.47122 0.18755 0.99058 0.0
H463 H 0.4157 0.14917 0.99731 0.0
C464 C 0.41986 0.08782 0.91855 0.0
N465 N 0.41608 0.10031 0.93253 0.0
C466 C 0.40943 0.06974 0.92887 0.0
C467 C 0.39108 0.0776 0.96701 0.0
C468 C 0.40181 0.09555 0.95569 0.0
C469 C 0.3951 0.06446 0.9543 0.0
H470 H 0.43142 0.09203 0.9005 0.0
H471 H 0.39927 0.10584 0.96673 0.0
C472 C 0.4721 0.18497 0.89707 0.0
N473 N 0.48221 0.21575 0.85537 0.0
C474 C 0.46537 0.19639 0.90595 0.0
C475 C 0.4841 0.18928 0.86718 0.0
C476 C 0.47063 0.21188 0.88451 0.0
C477 C 0.48899 0.20487 0.84636 0.0
C478 C 0.4568 0.12821 0.84884 0.0
C479 C 0.47478 0.13944 0.83845 0.0
C480 C 0.44525 0.11412 0.8252 0.0
C481 C 0.48085 0.13658 0.80426 0.0
C482 C 0.45183 0.11172 0.79121 0.0
N483 N 0.46934 0.12291 0.78153 0.0
C484 C 0.48838 0.13338 0.94987 0.0
C485 C 0.50575 0.16228 0.92238 0.0
C486 C 0.50397 0.13359 0.96199 0.0
N487 N 0.48953 0.14767 0.93091 0.0
C488 C 0.52174 0.16291 0.93336 0.0
C489 C 0.5209 0.14856 0.95405 0.0
H490 H 0.47528 0.12204 0.95662 0.0
H491 H 0.50627 0.17362 0.9079 0.0
C492 C 0.43515 0.17202 0.84318 0.0
N493 N 0.44325 0.16192 0.83869 0.0
C494 C 0.43394 0.1819 0.81334 0.0
C495 C 0.44845 0.17006 0.77385 0.0
C496 C 0.44966 0.16063 0.80466 0.0
C497 C 0.44079 0.18112 0.77818 0.0
H498 H 0.43012 0.17285 0.87041 0.0
H499 H 0.45611 0.1527 0.80131 0.0
O500 O 0.45061 0.13552 0.96523 0.0
O501 O 0.42447 0.14258 0.91801 0.0
O502 O 0.46675 0.16951 0.91719 0.0
O503 O 0.45066 0.1306 0.88246 0.0
H504 H 0.42492 0.11885 0.01581 0.0
H505 H 0.48102 0.15799 0.99992 0.0
H506 H 0.42905 0.12432 0.08421 0.0
H507 H 0.48418 0.1627 0.0686 0.0
H508 H 0.39007 0.1082 0.82101 0.0
H509 H 0.39496 0.14372 0.93365 0.0
H510 H 0.41871 0.12293 0.85671 0.0
H511 H 0.36665 0.12864 0.89655 0.0
H512 H 0.41257 0.16343 0.05455 0.0
H513 H 0.46935 0.20307 0.0469 0.0
H514 H 0.41285 0.06007 0.91772 0.0
H515 H 0.38031 0.07425 0.98688 0.0
H516 H 0.45593 0.19318 0.92872 0.0
H517 H 0.4894 0.18059 0.85979 0.0
H518 H 0.46542 0.22076 0.89089 0.0
H519 H 0.49815 0.20829 0.82296 0.0
H520 H 0.48391 0.15033 0.8564 0.0
H521 H 0.43136 0.1051 0.83303 0.0
H522 H 0.49471 0.14525 0.79579 0.0
H523 H 0.44302 0.10092 0.77259 0.0
H524 H 0.50281 0.12224 0.97772 0.0
H525 H 0.53459 0.17473 0.92701 0.0
H526 H 0.42777 0.19013 0.81778 0.0
H527 H 0.45398 0.16918 0.74722 0.0
Li528 Li 0.5371 0.68358 0.41196 0.0
Li529 Li 0.55707 0.70975 0.45255 0.0
Li530 Li 0.55661 0.71217 0.38385 0.0
Li531 Li 0.56935 0.69464 0.41222 0.0
C532 C 0.53029 0.71698 0.40666 0.0
N533 N 0.51867 0.73946 0.37823 0.0
C534 C 0.53407 0.73274 0.4257 0.0
C535 C 0.52039 0.71255 0.37339 0.0
C536 C 0.52812 0.74395 0.41083 0.0
C537 C 0.51471 0.72412 0.35939 0.0
C538 C 0.56026 0.68215 0.48667 0.0
C539 C 0.58578 0.69327 0.52827 0.0
N540 N 0.57644 0.6785 0.55034 0.0
C541 C 0.5509 0.66709 0.50974 0.0
C542 C 0.57782 0.69536 0.49598 0.0
C543 C 0.55932 0.66549 0.54182 0.0
C544 C 0.51415 0.64607 0.4054 0.0
N545 N 0.5143 0.66201 0.40712 0.0
C546 C 0.48313 0.64748 0.3903 0.0
C547 C 0.49911 0.66291 0.40088 0.0
C548 C 0.48296 0.63112 0.3857 0.0
C549 C 0.49859 0.63041 0.39417 0.0
H550 H 0.52641 0.64574 0.41076 0.0
H551 H 0.49956 0.67573 0.40264 0.0
C552 C 0.5701 0.74089 0.49698 0.0
N553 N 0.55962 0.72264 0.49797 0.0
C554 C 0.57126 0.75127 0.52814 0.0
C555 C 0.55127 0.72385 0.56134 0.0
C556 C 0.55038 0.71399 0.52936 0.0
C557 C 0.56163 0.74281 0.56092 0.0
H558 H 0.57709 0.74745 0.47145 0.0
H559 H 0.54206 0.69946 0.52937 0.0
C560 C 0.54425 0.67384 0.34639 0.0
N561 N 0.52507 0.6431 0.30356 0.0
C562 C 0.5494 0.66071 0.34537 0.0
C563 C 0.52941 0.67137 0.32532 0.0
C564 C 0.53953 0.64527 0.32357 0.0
C565 C 0.51985 0.65571 0.30399 0.0
C566 C 0.59527 0.73283 0.4101 0.0
C567 C 0.60113 0.73678 0.37303 0.0
C568 C 0.60752 0.74152 0.43918 0.0
C569 C 0.61923 0.74911 0.36565 0.0
C570 C 0.62551 0.75378 0.43066 0.0
N571 N 0.63095 0.75729 0.39438 0.0
C572 C 0.56531 0.74583 0.3509 0.0
C573 C 0.55647 0.72154 0.30859 0.0
C574 C 0.56753 0.75749 0.32143 0.0
N575 N 0.55971 0.7282 0.34396 0.0
C576 C 0.55846 0.73266 0.27838 0.0
C577 C 0.56406 0.75091 0.28453 0.0
H578 H 0.56807 0.75082 0.37933 0.0
H579 H 0.55238 0.70758 0.30377 0.0
C580 C 0.58766 0.67442 0.42464 0.0
N581 N 0.58712 0.6875 0.40403 0.0
C582 C 0.59865 0.66744 0.41358 0.0
C583 C 0.60849 0.68765 0.36066 0.0
C584 C 0.59728 0.69415 0.3726 0.0
C585 C 0.60902 0.67383 0.38075 0.0
H586 H 0.57891 0.66867 0.44853 0.0
H587 H 0.59598 0.70384 0.35559 0.0
O588 O 0.53633 0.70602 0.42037 0.0
O589 O 0.55208 0.68398 0.45544 0.0
O590 O 0.55356 0.68893 0.36814 0.0
O591 O 0.57753 0.721 0.41798 0.0
H592 H 0.54156 0.73633 0.45161 0.0
H593 H 0.51735 0.70044 0.35824 0.0
H594 H 0.53104 0.75623 0.4252 0.0
H595 H 0.5072 0.72093 0.33349 0.0
H596 H 0.59938 0.70338 0.53577 0.0
H597 H 0.53726 0.65677 0.50294 0.0
H598 H 0.58524 0.70702 0.47836 0.0
H599 H 0.55225 0.6539 0.55994 0.0
H600 H 0.4713 0.64851 0.38401 0.0
H601 H 0.49888 0.61796 0.39129 0.0
H602 H 0.57917 0.76581 0.52604 0.0
H603 H 0.54382 0.71666 0.58603 0.0
H604 H 0.56075 0.66226 0.36151 0.0
H605 H 0.52512 0.68127 0.32587 0.0
H606 H 0.54332 0.63498 0.32271 0.0
H607 H 0.50825 0.65356 0.28789 0.0
H608 H 0.59187 0.73026 0.35012 0.0
H609 H 0.6032 0.73889 0.46807 0.0
H610 H 0.62396 0.75219 0.33707 0.0
H611 H 0.63514 0.76056 0.4529 0.0
H612 H 0.5721 0.77152 0.32741 0.0
H613 H 0.55542 0.72692 0.25053 0.0
H614 H 0.59829 0.65653 0.42957 0.0
H615 H 0.61628 0.69309 0.33531 0.0
Li616 Li 0.8497 0.55766 0.78441 0.0
Li617 Li 0.85358 0.53696 0.74535 0.0
Li618 Li 0.87525 0.57005 0.74533 0.0
Li619 Li 0.84559 0.55903 0.71692 0.0
C620 C 0.87077 0.54811 0.82219 0.0
N621 N 0.87242 0.53966 0.89611 0.0
C622 C 0.86332 0.53011 0.83314 0.0
C623 C 0.87928 0.56182 0.84869 0.0
C624 C 0.86425 0.52611 0.87069 0.0
C625 C 0.8799 0.55727 0.88598 0.0
C626 C 0.81606 0.53208 0.77183 0.0
C627 C 0.79379 0.51023 0.81378 0.0
N628 N 0.786 0.52066 0.81671 0.0
C629 C 0.80781 0.54257 0.7752 0.0
C630 C 0.80902 0.51578 0.79128 0.0
C631 C 0.79264 0.53657 0.79806 0.0
C632 C 0.83767 0.5742 0.83717 0.0
N633 N 0.83973 0.55961 0.83176 0.0
C634 C 0.82346 0.54611 0.88819 0.0
C635 C 0.83303 0.5458 0.85681 0.0
C636 C 0.82059 0.56073 0.8939 0.0
C637 C 0.82815 0.57506 0.86818 0.0
H638 H 0.84274 0.58486 0.81655 0.0
H639 H 0.83435 0.5341 0.85166 0.0
C640 C 0.86776 0.51439 0.73217 0.0
N641 N 0.85197 0.51437 0.73577 0.0
C642 C 0.8678 0.49881 0.72091 0.0
C643 C 0.83526 0.48336 0.71785 0.0
C644 C 0.83587 0.49931 0.72891 0.0
C645 C 0.8514 0.48299 0.71331 0.0
H646 H 0.88038 0.52672 0.73699 0.0
H647 H 0.82354 0.49981 0.73095 0.0
C648 C 0.87029 0.59725 0.75295 0.0
N649 N 0.89587 0.63348 0.75325 0.0
C650 C 0.8724 0.60792 0.72167 0.0
C651 C 0.88101 0.60504 0.78455 0.0
C652 C 0.88545 0.6262 0.72233 0.0
C653 C 0.89392 0.62336 0.78411 0.0
C654 C 0.86174 0.54478 0.66928 0.0
C655 C 0.87604 0.54894 0.64489 0.0
C656 C 0.84433 0.5312 0.65986 0.0
C657 C 0.87269 0.53941 0.61136 0.0
C658 C 0.84154 0.52198 0.62609 0.0
N659 N 0.85565 0.52624 0.60273 0.0
C660 C 0.91323 0.58935 0.75992 0.0
C661 C 0.90385 0.5953 0.70187 0.0
C662 C 0.93134 0.60011 0.74975 0.0
N663 N 0.89996 0.58702 0.73579 0.0
C664 C 0.92173 0.60626 0.6907 0.0
C665 C 0.93578 0.60852 0.71446 0.0
H666 H 0.90974 0.58241 0.78653 0.0
H667 H 0.89301 0.59288 0.68294 0.0
C668 C 0.81553 0.55402 0.67339 0.0
N669 N 0.8338 0.56231 0.67527 0.0
C670 C 0.80717 0.55565 0.64129 0.0
C671 C 0.83658 0.57397 0.6134 0.0
C672 C 0.84437 0.57216 0.6462 0.0
C673 C 0.81774 0.56561 0.61068 0.0
H674 H 0.80741 0.54579 0.69638 0.0
H675 H 0.85887 0.57834 0.64827 0.0
O676 O 0.87006 0.55228 0.78555 0.0
O677 O 0.83117 0.53794 0.75024 0.0
O678 O 0.85788 0.57924 0.75258 0.0
O679 O 0.86484 0.55396 0.70226 0.0
H680 H 0.85673 0.51933 0.81297 0.0
H681 H 0.88532 0.57582 0.84058 0.0
H682 H 0.85844 0.51224 0.87963 0.0
H683 H 0.88634 0.56774 0.90684 0.0
H684 H 0.78825 0.49769 0.82913 0.0
H685 H 0.8133 0.5554 0.76096 0.0
H686 H 0.8154 0.50764 0.78955 0.0
H687 H 0.78622 0.54463 0.80117 0.0
H688 H 0.81808 0.53483 0.9074 0.0
H689 H 0.82611 0.5865 0.87105 0.0
H690 H 0.88061 0.49935 0.71708 0.0
H691 H 0.82229 0.4715 0.71267 0.0
H692 H 0.86412 0.60214 0.6971 0.0
H693 H 0.87943 0.59698 0.80906 0.0
H694 H 0.88732 0.63461 0.69823 0.0
H695 H 0.9024 0.62954 0.80829 0.0
H696 H 0.88959 0.55942 0.65184 0.0
H697 H 0.83311 0.5278 0.67844 0.0
H698 H 0.88363 0.54248 0.59219 0.0
H699 H 0.82815 0.51142 0.61845 0.0
H700 H 0.94176 0.60158 0.76899 0.0
H701 H 0.9245 0.61223 0.66305 0.0
H702 H 0.79258 0.54876 0.63998 0.0
H703 H 0.84518 0.5818 0.59042 0.0
Li704 Li 0.32065 0.85532 0.08381 0.0
Li705 Li 0.29183 0.84801 0.12077 0.0
Li706 Li 0.29197 0.84734 0.05269 0.0
Li707 Li 0.30822 0.87584 0.08405 0.0
C708 C 0.28906 0.81632 0.06857 0.0
N709 N 0.27209 0.7848 0.02755 0.0
C710 C 0.27174 0.80272 0.0784 0.0
C711 C 0.29781 0.81386 0.03807 0.0
C712 C 0.26338 0.78688 0.05727 0.0
C713 C 0.28898 0.79784 0.01762 0.0
C714 C 0.32452 0.8832 0.14922 0.0
C715 C 0.32056 0.90382 0.18855 0.0
N716 N 0.33877 0.91464 0.19038 0.0
C717 C 0.34319 0.89447 0.15158 0.0
C718 C 0.31308 0.88783 0.16791 0.0
C719 C 0.35014 0.91033 0.17251 0.0
C720 C 0.35742 0.86985 0.07023 0.0
N721 N 0.3423 0.85441 0.08042 0.0
C722 C 0.35775 0.83774 0.07541 0.0
C723 C 0.34225 0.83858 0.08388 0.0
C724 C 0.37338 0.85331 0.06301 0.0
C725 C 0.37314 0.86959 0.06118 0.0
H726 H 0.35696 0.88218 0.06727 0.0
H727 H 0.33 0.8265 0.09201 0.0
C728 C 0.25989 0.82562 0.16076 0.0
N729 N 0.27802 0.83641 0.16445 0.0
C730 C 0.24937 0.81587 0.1914 0.0
C731 C 0.27631 0.82892 0.22939 0.0
C732 C 0.28633 0.83832 0.19792 0.0
C733 C 0.25755 0.81731 0.22637 0.0
H734 H 0.25366 0.8243 0.13374 0.0
H735 H 0.30078 0.84701 0.20008 0.0
C736 C 0.32485 0.87337 0.00863 0.0
N737 N 0.3425 0.88612 0.94113 0.0
C738 C 0.32449 0.88765 0.99043 0.0
C739 C 0.33418 0.86557 0.99236 0.0
C740 C 0.3335 0.8939 0.95637 0.0
C741 C 0.34301 0.8722 0.95826 0.0
C742 C 0.27204 0.86499 0.06744 0.0
C743 C 0.27646 0.87113 0.03064 0.0
C744 C 0.25772 0.86539 0.08522 0.0
C745 C 0.26654 0.87771 0.01225 0.0
C746 C 0.24812 0.87208 0.0659 0.0
N747 N 0.2527 0.87806 0.03012 0.0
C748 C 0.25917 0.82419 0.01518 0.0
C749 C 0.28496 0.8363 0.97625 0.0
C750 C 0.2481 0.81446 0.98515 0.0
N751 N 0.27726 0.83477 0.01027 0.0
C752 C 0.27444 0.82703 0.94546 0.0
C753 C 0.25573 0.81578 0.94962 0.0
H754 H 0.25337 0.82314 0.0426 0.0
H755 H 0.29929 0.84457 0.97282 0.0
C756 C 0.33523 0.91073 0.07139 0.0
N757 N 0.3173 0.90126 0.07912 0.0
C758 C 0.3434 0.92879 0.06085 0.0
C759 C 0.31471 0.92745 0.068 0.0
C760 C 0.30707 0.90934 0.07871 0.0
C761 C 0.33302 0.93727 0.05782 0.0
H762 H 0.34303 0.90397 0.07176 0.0
H763 H 0.29287 0.90163 0.08519 0.0
O764 O 0.29724 0.83216 0.08812 0.0
O765 O 0.31743 0.86786 0.12814 0.0
O766 O 0.31633 0.86721 0.04235 0.0
O767 O 0.28154 0.85849 0.08612 0.0
H768 H 0.26477 0.80443 0.10187 0.0
H769 H 0.31115 0.82432 0.02992 0.0
H770 H 0.24994 0.77627 0.06442 0.0
H771 H 0.29553 0.7958 0.99377 0.0
H772 H 0.31188 0.90763 0.20303 0.0
H773 H 0.3522 0.89105 0.13716 0.0
H774 H 0.29859 0.87926 0.16616 0.0
H775 H 0.36456 0.91924 0.17447 0.0
H776 H 0.35737 0.82495 0.07791 0.0
H777 H 0.38469 0.88189 0.05125 0.0
H778 H 0.23505 0.80695 0.1874 0.0
H779 H 0.28321 0.83075 0.25578 0.0
H780 H 0.31737 0.89391 0.00238 0.0
H781 H 0.33443 0.85436 0.00565 0.0
H782 H 0.33334 0.90496 0.94207 0.0
H783 H 0.35024 0.86626 0.94538 0.0
H784 H 0.28738 0.87077 0.01638 0.0
H785 H 0.25411 0.86062 0.1137 0.0
H786 H 0.26984 0.88253 0.98377 0.0
H787 H 0.23703 0.87252 0.07934 0.0
H788 H 0.23379 0.80579 0.98991 0.0
H789 H 0.28095 0.8288 0.9186 0.0
H790 H 0.35764 0.93589 0.05419 0.0
H791 H 0.30618 0.93341 0.06608 0.0
Li792 Li 0.46642 0.31851 0.41494 0.0
Li793 Li 0.44625 0.29207 0.45476 0.0
Li794 Li 0.44656 0.2903 0.3859 0.0
Li795 Li 0.43427 0.30793 0.41569 0.0
C796 C 0.47286 0.285 0.40745 0.0
N797 N 0.48448 0.26283 0.37732 0.0
C798 C 0.46952 0.2693 0.42617 0.0
C799 C 0.48233 0.28954 0.37364 0.0
C800 C 0.47546 0.25825 0.41045 0.0
C801 C 0.48802 0.27813 0.35878 0.0
C802 C 0.4435 0.31961 0.49044 0.0
C803 C 0.41824 0.30803 0.53282 0.0
N804 N 0.42739 0.32297 0.55452 0.0
C805 C 0.45268 0.33483 0.51316 0.0
C806 C 0.42616 0.30608 0.50033 0.0
C807 C 0.44429 0.33629 0.54544 0.0
C808 C 0.48985 0.35601 0.41062 0.0
N809 N 0.4894 0.33991 0.41046 0.0
C810 C 0.52033 0.35423 0.39182 0.0
C811 C 0.50434 0.33882 0.40246 0.0
C812 C 0.52076 0.3708 0.38905 0.0
C813 C 0.50543 0.37169 0.3995 0.0
H814 H 0.47778 0.35649 0.41734 0.0
H815 H 0.50366 0.32588 0.40277 0.0
C816 C 0.43357 0.26033 0.4969 0.0
N817 N 0.44351 0.2786 0.49944 0.0
C818 C 0.4323 0.24953 0.52737 0.0
C819 C 0.45082 0.27653 0.56323 0.0
C820 C 0.45197 0.28683 0.53181 0.0
C821 C 0.44113 0.25761 0.561 0.0
H822 H 0.42708 0.25414 0.47074 0.0
H823 H 0.45992 0.30138 0.53302 0.0
C824 C 0.45943 0.32919 0.35048 0.0
N825 N 0.47899 0.3605 0.30948 0.0
C826 C 0.45481 0.34271 0.35147 0.0
C827 C 0.47394 0.33158 0.32835 0.0
C828 C 0.46486 0.35843 0.33057 0.0
C829 C 0.48369 0.34752 0.30797 0.0
C830 C 0.40799 0.26999 0.41174 0.0
C831 C 0.40225 0.26707 0.3745 0.0
C832 C 0.3956 0.2607 0.44025 0.0
C833 C 0.38413 0.25511 0.36643 0.0
C834 C 0.37759 0.24884 0.43104 0.0
N835 N 0.37227 0.24633 0.39463 0.0
C836 C 0.43781 0.25689 0.35185 0.0
C837 C 0.44632 0.28135 0.31014 0.0
C838 C 0.4358 0.24545 0.32208 0.0
N839 N 0.44321 0.27451 0.34536 0.0
C840 C 0.44451 0.27045 0.27963 0.0
C841 C 0.43925 0.25224 0.28535 0.0
H842 H 0.43517 0.25176 0.38019 0.0
H843 H 0.45026 0.2953 0.30569 0.0
C844 C 0.41592 0.32788 0.43116 0.0
N845 N 0.4167 0.31547 0.40864 0.0
C846 C 0.4051 0.33522 0.42146 0.0
C847 C 0.39587 0.31681 0.3658 0.0
C848 C 0.40691 0.30989 0.37649 0.0
C849 C 0.39511 0.32992 0.38804 0.0
H850 H 0.42429 0.33279 0.45577 0.0
H851 H 0.40846 0.30081 0.35796 0.0
O852 O 0.46682 0.29581 0.42205 0.0
O853 O 0.45164 0.31794 0.459 0.0
O854 O 0.44996 0.31383 0.37138 0.0
O855 O 0.42573 0.28144 0.42028 0.0
H856 H 0.46242 0.26565 0.45254 0.0
H857 H 0.48503 0.30161 0.35872 0.0
H858 H 0.47289 0.24601 0.42458 0.0
H859 H 0.4952 0.2814 0.33245 0.0
H860 H 0.40481 0.29768 0.54078 0.0
H861 H 0.46614 0.34539 0.5059 0.0
H862 H 0.41888 0.29426 0.48305 0.0
H863 H 0.45123 0.348 0.56328 0.0
H864 H 0.5319 0.35304 0.38396 0.0
H865 H 0.50534 0.38428 0.39809 0.0
H866 H 0.42458 0.235 0.52459 0.0
H867 H 0.45792 0.28328 0.58857 0.0
H868 H 0.44375 0.34125 0.36853 0.0
H869 H 0.47782 0.32138 0.32735 0.0
H870 H 0.46147 0.36902 0.33127 0.0
H871 H 0.49505 0.3496 0.29105 0.0
H872 H 0.41165 0.27405 0.35203 0.0
H873 H 0.39983 0.26255 0.46921 0.0
H874 H 0.3795 0.25281 0.33773 0.0
H875 H 0.36785 0.2416 0.45283 0.0
H876 H 0.43148 0.23145 0.32774 0.0
H877 H 0.4475 0.27633 0.25191 0.0
H878 H 0.40492 0.34529 0.43948 0.0
H879 H 0.38877 0.31263 0.33938 0.0
Li880 Li 0.14935 0.46566 0.74653 0.0
Li881 Li 0.15444 0.44498 0.78438 0.0
Li882 Li 0.15827 0.44476 0.71882 0.0
Li883 Li 0.12805 0.43161 0.74462 0.0
C884 C 0.18784 0.47115 0.77138 0.0
N885 N 0.21906 0.48175 0.81183 0.0
C886 C 0.19919 0.46435 0.76238 0.0
C887 C 0.19245 0.48348 0.80071 0.0
C888 C 0.2149 0.46986 0.78319 0.0
C889 C 0.20826 0.48862 0.82092 0.0
C890 C 0.1311 0.45566 0.81959 0.0
C891 C 0.11488 0.45148 0.8773 0.0
N892 N 0.12621 0.46908 0.88613 0.0
C893 C 0.1425 0.47374 0.82911 0.0
C894 C 0.11708 0.44446 0.84372 0.0
C895 C 0.13984 0.48025 0.86292 0.0
C896 C 0.135 0.48729 0.72569 0.0
N897 N 0.15032 0.48802 0.73824 0.0
C898 C 0.16692 0.51999 0.73 0.0
C899 C 0.16611 0.50391 0.74082 0.0
C900 C 0.15141 0.51959 0.71588 0.0
C901 C 0.13524 0.50299 0.71426 0.0
H902 H 0.12272 0.47439 0.7235 0.0
H903 H 0.17816 0.50401 0.75022 0.0
C904 C 0.17517 0.43433 0.82646 0.0
N905 N 0.16501 0.44238 0.83048 0.0
C906 C 0.18505 0.4333 0.85652 0.0
C907 C 0.17326 0.44809 0.89519 0.0
C908 C 0.16376 0.44902 0.86422 0.0
C909 C 0.18437 0.44041 0.89154 0.0
H910 H 0.17609 0.42922 0.79938 0.0
H911 H 0.1557 0.45535 0.86727 0.0
C912 C 0.14071 0.45097 0.66551 0.0
N913 N 0.1465 0.45462 0.5892 0.0
C914 C 0.13271 0.43579 0.64239 0.0
C915 C 0.15157 0.46803 0.64982 0.0
C916 C 0.13584 0.43791 0.60388 0.0
C917 C 0.15433 0.46958 0.61117 0.0
C918 C 0.13787 0.4078 0.7718 0.0
C919 C 0.14052 0.39347 0.76221 0.0
C920 C 0.12708 0.40616 0.80254 0.0
C921 C 0.1323 0.37771 0.7836 0.0
C922 C 0.1191 0.39019 0.82324 0.0
N923 N 0.12185 0.37641 0.81341 0.0
C924 C 0.18498 0.4584 0.66344 0.0
C925 C 0.16678 0.42653 0.6635 0.0
C926 C 0.19433 0.45781 0.63206 0.0
N927 N 0.17149 0.44291 0.6783 0.0
C928 C 0.17581 0.4253 0.63209 0.0
C929 C 0.18976 0.44109 0.61589 0.0
H930 H 0.18823 0.47124 0.67563 0.0
H931 H 0.15585 0.41447 0.67581 0.0
C932 C 0.09052 0.41727 0.7503 0.0
N933 N 0.10344 0.41412 0.73628 0.0
C934 C 0.07247 0.40616 0.74029 0.0
C935 C 0.08133 0.38859 0.70211 0.0
C936 C 0.0992 0.39993 0.71319 0.0
C937 C 0.06773 0.39184 0.71521 0.0
H938 H 0.09434 0.42883 0.76812 0.0
H939 H 0.10979 0.39782 0.70231 0.0
O940 O 0.17218 0.46558 0.75189 0.0
O941 O 0.13328 0.44907 0.78635 0.0
O942 O 0.13828 0.44911 0.7034 0.0
O943 O 0.14589 0.4233 0.75106 0.0
H944 H 0.19577 0.45469 0.73997 0.0
H945 H 0.18385 0.48889 0.80806 0.0
H946 H 0.22374 0.4646 0.77672 0.0
H947 H 0.21192 0.49804 0.84387 0.0
H948 H 0.10412 0.44296 0.89631 0.0
H949 H 0.15336 0.48261 0.81081 0.0
H950 H 0.10796 0.4305 0.83659 0.0
H951 H 0.14862 0.49419 0.87072 0.0
H952 H 0.17969 0.53249 0.73133 0.0
H953 H 0.12294 0.50212 0.70391 0.0
H954 H 0.19358 0.42749 0.8519 0.0
H955 H 0.17193 0.45344 0.92168 0.0
H956 H 0.12438 0.42249 0.65411 0.0
H957 H 0.15799 0.47991 0.66733 0.0
H958 H 0.12984 0.42627 0.58567 0.0
H959 H 0.16278 0.48268 0.59866 0.0
H960 H 0.14886 0.39455 0.7385 0.0
H961 H 0.12492 0.41709 0.81044 0.0
H962 H 0.13424 0.36652 0.7765 0.0
H963 H 0.11072 0.38875 0.84712 0.0
H964 H 0.20478 0.47033 0.62016 0.0
H965 H 0.17196 0.41214 0.62075 0.0
H966 H 0.06246 0.40927 0.7507 0.0
H967 H 0.07822 0.37761 0.68298 0.0
Li968 Li 0.71061 0.1545 0.11851 0.0
Li969 Li 0.68405 0.14766 0.07856 0.0
Li970 Li 0.69563 0.12684 0.07899 0.0
Li971 Li 0.71263 0.1571 0.04945 0.0
C972 C 0.68362 0.12401 0.15402 0.0
N973 N 0.68103 0.10544 0.21907 0.0
C974 C 0.6701 0.12055 0.18003 0.0
C975 C 0.69582 0.11803 0.16106 0.0
C976 C 0.66901 0.11114 0.21277 0.0
C977 C 0.69429 0.10866 0.19409 0.0
C978 C 0.71683 0.1883 0.07323 0.0
C979 C 0.72325 0.21138 0.02727 0.0
N980 N 0.73826 0.22299 0.04675 0.0
C981 C 0.73224 0.20051 0.09296 0.0
C982 C 0.7122 0.19381 0.04028 0.0
C983 C 0.74293 0.21798 0.07907 0.0
C984 C 0.74187 0.17274 0.16287 0.0
N985 N 0.72363 0.16522 0.16365 0.0
C986 C 0.72491 0.17549 0.22644 0.0
C987 C 0.71503 0.16632 0.19464 0.0
C988 C 0.74384 0.18374 0.22628 0.0
C989 C 0.75226 0.1821 0.19392 0.0
H990 H 0.7484 0.17198 0.13761 0.0
H991 H 0.70053 0.16035 0.19444 0.0
C992 C 0.64646 0.13279 0.0714 0.0
N993 N 0.66232 0.14861 0.07402 0.0
C994 C 0.63072 0.13273 0.06101 0.0
C995 C 0.64756 0.16531 0.05962 0.0
C996 C 0.66308 0.16473 0.0693 0.0
C997 C 0.63126 0.14914 0.05431 0.0
H998 H 0.64624 0.12017 0.0756 0.0
H999 H 0.67583 0.17711 0.07174 0.0
C1000 C 0.73427 0.14 0.07741 0.0
N1001 N 0.75971 0.12971 0.06493 0.0
C1002 C 0.73956 0.13895 0.04093 0.0
C1003 C 0.74212 0.13606 0.10757 0.0
C1004 C 0.75237 0.13365 0.0352 0.0
C1005 C 0.7549 0.13081 0.10067 0.0
C1006 C 0.67459 0.13084 0.01253 0.0
C1007 C 0.66158 0.11255 0.01059 0.0
C1008 C 0.67228 0.14334 0.99158 0.0
C1009 C 0.64635 0.10711 0.98817 0.0
C1010 C 0.65684 0.13737 0.96959 0.0
N1011 N 0.64429 0.11953 0.96837 0.0
C1012 C 0.6736 0.08871 0.08937 0.0
C1013 C 0.69691 0.09784 0.04454 0.0
C1014 C 0.66647 0.07065 0.07898 0.0
N1015 N 0.68849 0.1019 0.07188 0.0
C1016 C 0.69035 0.07999 0.03351 0.0
C1017 C 0.67465 0.0661 0.05011 0.0
H1018 H 0.66665 0.09225 0.10993 0.0
H1019 H 0.70819 0.10851 0.02986 0.0
C1020 C 0.74502 0.18381 0.01434 0.0
N1021 N 0.72799 0.16994 0.00856 0.0
C1022 C 0.75584 0.19346 0.98397 0.0
C1023 C 0.73164 0.17385 0.9424 0.0
C1024 C 0.72131 0.16468 0.97349 0.0
C1025 C 0.74909 0.18862 0.94737 0.0
H1026 H 0.75013 0.18748 0.04254 0.0
H1027 H 0.70795 0.15328 0.96959 0.0
O1028 O 0.68501 0.13344 0.12214 0.0
O1029 O 0.70633 0.17105 0.08612 0.0
O1030 O 0.72197 0.14548 0.08367 0.0
O1031 O 0.68943 0.13649 0.03493 0.0
H1032 H 0.66058 0.12515 0.175 0.0
H1033 H 0.70626 0.12049 0.1411 0.0
H1034 H 0.65862 0.10838 0.23319 0.0
H1035 H 0.70363 0.10393 0.19986 0.0
H1036 H 0.7199 0.21576 1.00164 0.0
H1037 H 0.73596 0.19657 0.11865 0.0
H1038 H 0.70031 0.18458 0.0247 0.0
H1039 H 0.75494 0.22754 0.09397 0.0
H1040 H 0.71777 0.17618 0.25082 0.0
H1041 H 0.76679 0.18846 0.19208 0.0
H1042 H 0.61833 0.12 0.05754 0.0
H1043 H 0.64847 0.17822 0.05466 0.0
H1044 H 0.73366 0.14195 0.01723 0.0
H1045 H 0.73846 0.1371 0.13604 0.0
H1046 H 0.75648 0.13265 0.0071 0.0
H1047 H 0.76104 0.12767 0.12375 0.0
H1048 H 0.66311 0.10266 0.02642 0.0
H1049 H 0.68219 0.15752 0.99262 0.0
H1050 H 0.63613 0.09301 0.9866 0.0
H1051 H 0.65481 0.14692 0.95356 0.0
H1052 H 0.65415 0.0605 0.09213 0.0
H1053 H 0.69726 0.0772 0.01142 0.0
H1054 H 0.76918 0.20478 0.98915 0.0
H1055 H 0.72605 0.16933 0.91473 0.0
H1056 H 0.33364 0.36625 0.25562 0.0
H1057 H 0.35177 0.40164 0.35148 0.0
H1058 H 0.34753 0.34965 0.28155 0.0
H1059 H 0.36534 0.38499 0.37766 0.0
H1060 H 0.40602 0.36581 0.39064 0.0
H1061 H 0.39055 0.38097 0.36644 0.0
H1062 H 0.34603 0.32972 0.33106 0.0
H1063 H 0.3617 0.31453 0.35502 0.0
C1064 C 0.34042 0.37035 0.2824 0.0
C1065 C 0.3418 0.3854 0.30125 0.0
C1066 C 0.34835 0.36082 0.29735 0.0
C1067 C 0.35773 0.36607 0.33159 0.0
C1068 C 0.35862 0.38081 0.35083 0.0
C1069 C 0.35081 0.39036 0.33583 0.0
C1070 C 0.39281 0.35772 0.37823 0.0
C1071 C 0.38507 0.33893 0.37498 0.0
C1072 C 0.38392 0.36643 0.36428 0.0
C1073 C 0.36698 0.35659 0.34684 0.0
C1074 C 0.35915 0.33776 0.34384 0.0
C1075 C 0.3681 0.32904 0.35769 0.0
H1076 H 0.95544 0.3557 0.67361 0.0
H1077 H 0.9675 0.32725 0.58897 0.0
H1078 H 0.98589 0.36871 0.69766 0.0
H1079 H 0.99779 0.33946 0.61465 0.0
H1080 H 0.05662 0.382 0.64305 0.0
H1081 H 0.02588 0.36683 0.61896 0.0
H1082 H 0.00555 0.36213 0.73154 0.0
H1083 H 0.03636 0.37774 0.75535 0.0
C1084 C 0.96459 0.35221 0.66002 0.0
C1085 C 0.95899 0.34055 0.62897 0.0
C1086 C 0.98203 0.35945 0.67432 0.0
C1087 C 0.99438 0.35512 0.65828 0.0
C1088 C 0.98874 0.34328 0.6275 0.0
C1089 C 0.97127 0.3361 0.613 0.0
C1090 C 0.04555 0.37749 0.66268 0.0
C1091 C 0.04892 0.38114 0.7011 0.0
C1092 C 0.02789 0.36876 0.64888 0.0
C1093 C 0.01314 0.36332 0.6732 0.0
C1094 C 0.01654 0.36646 0.71181 0.0
C1095 C 0.0342 0.37534 0.72555 0.0
H1096 H 0.61274 0.96912 0.91792 0.0
H1097 H 0.62972 0.95023 0.01315 0.0
H1098 H 0.62886 0.99964 0.94264 0.0
H1099 H 0.64669 0.98095 0.03683 0.0
H1100 H 0.65737 0.03431 0.08972 0.0
H1101 H 0.64208 0.00365 0.06515 0.0
H1102 H 0.65816 0.02455 0.95313 0.0
H1103 H 0.67249 0.0551 0.97735 0.0
C1104 C 0.61999 0.97147 0.94404 0.0
C1105 C 0.61985 0.95713 0.96352 0.0
C1106 C 0.62945 0.98906 0.95803 0.0
C1107 C 0.63912 0.99284 0.9918 0.0
C1108 C 0.63922 0.97854 0.011 0.0
C1109 C 0.62969 0.96093 0.99709 0.0
C1110 C 0.65755 0.03237 0.05982 0.0
C1111 C 0.66621 0.04726 0.03561 0.0
C1112 C 0.64895 0.01475 0.04574 0.0
C1113 C 0.64883 0.01156 0.00708 0.0
C1114 C 0.65774 0.02645 0.98298 0.0
C1115 C 0.66623 0.04403 0.99701 0.0
H1116 H 0.67088 0.63657 0.25012 0.0
H1117 H 0.64855 0.59983 0.34336 0.0
H1118 H 0.65818 0.65441 0.27531 0.0
H1119 H 0.63551 0.6173 0.36791 0.0
H1120 H 0.62854 0.66188 0.42037 0.0
H1121 H 0.64398 0.64651 0.3963 0.0
H1122 H 0.62811 0.65101 0.28395 0.0
H1123 H 0.61255 0.66615 0.30789 0.0
C1124 C 0.66332 0.63235 0.27601 0.0
C1125 C 0.6606 0.6167 0.29455 0.0
C1126 C 0.65593 0.64247 0.2903 0.0
C1127 C 0.6458 0.63726 0.3236 0.0
C1128 C 0.64337 0.6218 0.34241 0.0
C1129 C 0.65066 0.61165 0.32806 0.0
C1130 C 0.62831 0.65956 0.39055 0.0
C1131 C 0.6193 0.6653 0.36614 0.0
C1132 C 0.63717 0.65076 0.37674 0.0
C1133 C 0.63728 0.64752 0.33818 0.0
C1134 C 0.62855 0.65354 0.31372 0.0
C1135 C 0.61963 0.66226 0.32751 0.0
H1136 H 0.95295 0.6406 0.67631 0.0
H1137 H 0.96151 0.5988 0.72209 0.0
H1138 H 0.98348 0.65559 0.65034 0.0
H1139 H 0.99204 0.61392 0.69679 0.0
H1140 H 0.03611 0.63315 0.60814 0.0
H1141 H 0.00569 0.61947 0.63348 0.0
H1142 H 0.01586 0.67174 0.67036 0.0
H1143 H 0.04651 0.68548 0.64556 0.0
C1144 C 0.96138 0.63468 0.68101 0.0
C1145 C 0.9548 0.6185 0.70125 0.0
C1146 C 0.97889 0.64332 0.66634 0.0
C1147 C 0.99012 0.63587 0.67126 0.0
C1148 C 0.98364 0.61988 0.69209 0.0
C1149 C 0.96621 0.61133 0.70699 0.0
C1150 C 0.03193 0.64176 0.62178 0.0
C1151 C 0.04387 0.66042 0.62507 0.0
C1152 C 0.01448 0.6339 0.63632 0.0
C1153 C 0.00843 0.64449 0.65431 0.0
C1154 C 0.0201 0.66323 0.65648 0.0
C1155 C 0.03764 0.67111 0.64212 0.0
H1156 H 0.35678 0.95155 0.99976 0.0
H1157 H 0.3275 0.96501 0.07968 0.0
H1158 H 0.37102 0.98201 0.9749 0.0
H1159 H 0.3417 0.99564 0.05421 0.0
H1160 H 0.35892 0.04353 0.97078 0.0
H1161 H 0.34324 0.01286 0.99605 0.0
H1162 H 0.39338 0.01232 0.99692 0.0
H1163 H 0.40906 0.04286 0.97243 0.0
C1164 C 0.35349 0.96105 0.01232 0.0
C1165 C 0.34118 0.95586 0.04219 0.0
C1166 C 0.36163 0.97853 0.99792 0.0
C1167 C 0.35763 0.99131 0.01279 0.0
C1168 C 0.34497 0.98606 0.042 0.0
C1169 C 0.33685 0.96852 0.05659 0.0
C1170 C 0.36662 0.03691 0.9766 0.0
C1171 C 0.38525 0.04566 0.96912 0.0
C1172 C 0.35762 0.01934 0.99109 0.0
C1173 C 0.36704 0.01011 0.99823 0.0
C1174 C 0.38565 0.01891 0.99104 0.0
C1175 C 0.39464 0.03644 0.9768 0.0
H1176 H 0.20115 0.46607 0.94628 0.0
H1177 H 0.19309 0.41442 0.90977 0.0
H1178 H 0.2194 0.46586 0.99834 0.0
H1179 H 0.21192 0.41464 0.96121 0.0
H1180 H 0.26324 0.43289 0.03451 0.0
H1181 H 0.24465 0.43267 0.98216 0.0
H1182 H 0.21508 0.4479 0.05728 0.0
H1183 H 0.23365 0.44818 0.10945 0.0
C1184 C 0.20308 0.45458 0.94942 0.0
C1185 C 0.19549 0.44022 0.92365 0.0
C1186 C 0.21365 0.45453 0.97924 0.0
C1187 C 0.21712 0.44025 0.98387 0.0
C1188 C 0.20967 0.42595 0.95812 0.0
C1189 C 0.19891 0.42587 0.92853 0.0
C1190 C 0.2528 0.43624 0.03976 0.0
C1191 C 0.24988 0.44051 0.07612 0.0
C1192 C 0.24208 0.43598 0.00988 0.0
C1193 C 0.2284 0.44027 0.0156 0.0
C1194 C 0.22558 0.44466 0.05192 0.0
C1195 C 0.23612 0.44467 0.08184 0.0
H1196 H 0.81311 0.22621 0.42365 0.0
H1197 H 0.80258 0.26861 0.39062 0.0
H1198 H 0.7943 0.20752 0.37251 0.0
H1199 H 0.78453 0.25027 0.33829 0.0
H1200 H 0.73804 0.20614 0.27197 0.0
H1201 H 0.75623 0.22408 0.32453 0.0
H1202 H 0.79335 0.20453 0.30609 0.0
H1203 H 0.77465 0.18586 0.25479 0.0
C1204 C 0.80681 0.23159 0.40548 0.0
C1205 C 0.80937 0.24896 0.4115 0.0
C1206 C 0.79617 0.22092 0.37578 0.0
C1207 C 0.78783 0.22732 0.35114 0.0
C1208 C 0.79052 0.24476 0.35694 0.0
C1209 C 0.80111 0.25541 0.38671 0.0
C1210 C 0.74992 0.20542 0.27945 0.0
C1211 C 0.75481 0.19447 0.25902 0.0
C1212 C 0.76053 0.21595 0.30932 0.0
C1213 C 0.77637 0.21589 0.31958 0.0
C1214 C 0.78118 0.20483 0.29933 0.0
C1215 C 0.77054 0.19426 0.26953 0.0
H1216 H 0.53424 0.8 0.72629 0.0
H1217 H 0.589 0.81475 0.75435 0.0
H1218 H 0.53468 0.78169 0.67479 0.0
H1219 H 0.58904 0.79553 0.7043 0.0
H1220 H 0.59 0.77445 0.5876 0.0
H1221 H 0.58989 0.79322 0.63851 0.0
H1222 H 0.53408 0.75437 0.66121 0.0
H1223 H 0.53386 0.73617 0.6088 0.0
C1224 C 0.54641 0.79941 0.72148 0.0
C1225 C 0.56161 0.80898 0.74458 0.0
C1226 C 0.54656 0.78863 0.69221 0.0
C1227 C 0.56186 0.78699 0.6853 0.0
C1228 C 0.57707 0.79658 0.70838 0.0
C1229 C 0.57696 0.80745 0.73751 0.0
C1230 C 0.57763 0.76996 0.60315 0.0
C1231 C 0.56191 0.75376 0.59376 0.0
C1232 C 0.57764 0.78065 0.63279 0.0
C1233 C 0.56196 0.7754 0.65412 0.0
C1234 C 0.54634 0.75904 0.64514 0.0
C1235 C 0.54629 0.74842 0.61534 0.0
H1236 H 0.75227 0.53388 0.09126 0.0
H1237 H 0.75803 0.58451 0.05429 0.0
H1238 H 0.7712 0.53464 0.03965 0.0
H1239 H 0.7766 0.58501 1.00186 0.0
H1240 H 0.82558 0.58906 0.93841 0.0
H1241 H 0.80652 0.58872 0.98957 0.0
H1242 H 0.77046 0.53181 0.97181 0.0
H1243 H 0.78937 0.53215 0.92061 0.0
C1244 C 0.75758 0.54519 0.07212 0.0
C1245 C 0.75366 0.55917 0.07705 0.0
C1246 C 0.7683 0.54553 0.04226 0.0
C1247 C 0.77544 0.55988 0.01654 0.0
C1248 C 0.77147 0.57384 0.02135 0.0
C1249 C 0.76066 0.57346 0.05117 0.0
C1250 C 0.81352 0.5765 0.94523 0.0
C1251 C 0.80912 0.56061 0.92547 0.0
C1252 C 0.80257 0.57631 0.97456 0.0
C1253 C 0.78697 0.56022 0.98492 0.0
C1254 C 0.78254 0.54437 0.96505 0.0
C1255 C 0.79344 0.54456 0.9357 0.0
H1256 H 0.17245 0.74074 0.37469 0.0
H1257 H 0.21898 0.76888 0.44634 0.0
H1258 H 0.19028 0.75875 0.32141 0.0
H1259 H 0.23667 0.78708 0.39334 0.0
H1260 H 0.26722 0.80126 0.28118 0.0
H1261 H 0.2494 0.78337 0.33422 0.0
H1262 H 0.20512 0.7904 0.29871 0.0
H1263 H 0.22304 0.80863 0.246 0.0
C1264 C 0.18649 0.75073 0.37905 0.0
C1265 C 0.19427 0.75338 0.41481 0.0
C1266 C 0.19666 0.76117 0.34861 0.0
C1267 C 0.21491 0.77437 0.3531 0.0
C1268 C 0.2227 0.77693 0.38882 0.0
C1269 C 0.2125 0.76662 0.41929 0.0
C1270 C 0.25379 0.79925 0.28487 0.0
C1271 C 0.24665 0.80649 0.25915 0.0
C1272 C 0.24354 0.78891 0.31529 0.0
C1273 C 0.22581 0.78542 0.32072 0.0
C1274 C 0.21863 0.79261 0.29506 0.0
C1275 C 0.22893 0.80306 0.26476 0.0
H1276 H 0.45097 0.21683 0.77867 0.0
H1277 H 0.42983 0.1704 0.70623 0.0
H1278 H 0.45112 0.23528 0.72661 0.0
H1279 H 0.42919 0.18855 0.65433 0.0
H1280 H 0.4472 0.22925 0.55955 0.0
H1281 H 0.44718 0.211 0.61178 0.0
H1282 H 0.4335 0.24188 0.68704 0.0
H1283 H 0.43432 0.26059 0.63472 0.0
C1284 C 0.44612 0.21053 0.75164 0.0
C1285 C 0.44039 0.19218 0.74651 0.0
C1286 C 0.44611 0.22108 0.72174 0.0
C1287 C 0.44015 0.2135 0.68598 0.0
C1288 C 0.43423 0.19504 0.68111 0.0
C1289 C 0.4345 0.18456 0.71091 0.0
C1290 C 0.44412 0.23206 0.58728 0.0
C1291 C 0.44073 0.24633 0.59303 0.0
C1292 C 0.44401 0.22153 0.6173 0.0
C1293 C 0.44027 0.22481 0.6539 0.0
C1294 C 0.43677 0.23908 0.65951 0.0
C1295 C 0.43714 0.24978 0.62949 0.0
H1296 H 0.22585 0.46098 0.6011 0.0
H1297 H 0.17563 0.41934 0.55436 0.0
H1298 H 0.2417 0.46049 0.54508 0.0
H1299 H 0.19167 0.41826 0.49886 0.0
H1300 H 0.2241 0.43737 0.38835 0.0
H1301 H 0.20718 0.4363 0.44429 0.0
H1302 H 0.25097 0.44167 0.51357 0.0
H1303 H 0.26788 0.44297 0.45778 0.0
C1304 C 0.21819 0.45169 0.57888 0.0
C1305 C 0.19947 0.44024 0.58219 0.0
C1306 C 0.22731 0.45125 0.54692 0.0
C1307 C 0.21796 0.43928 0.5175 0.0
C1308 C 0.19924 0.42774 0.52086 0.0
C1309 C 0.1901 0.42821 0.55286 0.0
C1310 C 0.22999 0.43814 0.41557 0.0
C1311 C 0.24737 0.44042 0.4187 0.0
C1312 C 0.22031 0.4375 0.44762 0.0
C1313 C 0.22778 0.43904 0.48342 0.0
C1314 C 0.24497 0.44084 0.48644 0.0
C1315 C 0.25466 0.44156 0.45447 0.0
H1316 H 0.78816 0.2273 0.72276 0.0
H1317 H 0.83046 0.26565 0.79488 0.0
H1318 H 0.77138 0.20995 0.77746 0.0
H1319 H 0.81347 0.24854 0.84963 0.0
H1320 H 0.78535 0.20256 0.93573 0.0
H1321 H 0.80302 0.21912 0.8811 0.0
H1322 H 0.75512 0.21429 0.82992 0.0
H1323 H 0.73752 0.198 0.88451 0.0
C1324 C 0.79393 0.23194 0.75028 0.0
C1325 C 0.8106 0.24785 0.75454 0.0
C1326 C 0.78424 0.22212 0.78161 0.0
C1327 C 0.79107 0.22794 0.81784 0.0
C1328 C 0.80791 0.24365 0.82206 0.0
C1329 C 0.81755 0.25353 0.79075 0.0
C1330 C 0.77863 0.20519 0.91298 0.0
C1331 C 0.76 0.19888 0.91446 0.0
C1332 C 0.78874 0.21463 0.88167 0.0
C1333 C 0.78043 0.2179 0.85113 0.0
C1334 C 0.76184 0.21168 0.8527 0.0
C1335 C 0.75176 0.20234 0.88401 0.0
H1336 H 0.54009 0.80651 0.11258 0.0
H1337 H 0.59124 0.81307 0.0768 0.0
H1338 H 0.54137 0.7913 0.16894 0.0
H1339 H 0.59301 0.79873 0.13427 0.0
H1340 H 0.57791 0.75163 0.21518 0.0
H1341 H 0.57876 0.76921 0.16105 0.0
H1342 H 0.55647 0.79552 0.2276 0.0
H1343 H 0.5547 0.77717 0.28133 0.0
C1344 C 0.55165 0.80475 0.11678 0.0
C1345 C 0.56547 0.81084 0.08992 0.0
C1346 C 0.55251 0.79627 0.14943 0.0
C1347 C 0.56729 0.79376 0.15618 0.0
C1348 C 0.58132 0.80023 0.12974 0.0
C1349 C 0.58041 0.80864 0.09697 0.0
C1350 C 0.57308 0.76109 0.21824 0.0
C1351 C 0.56605 0.76284 0.25251 0.0
C1352 C 0.57381 0.77137 0.1873 0.0
C1353 C 0.56763 0.78376 0.18988 0.0
C1354 C 0.56111 0.78592 0.22448 0.0
C1355 C 0.5603 0.77556 0.25543 0.0
H1356 H 0.76619 0.59275 0.43239 0.0
H1357 H 0.7617 0.54214 0.399 0.0
H1358 H 0.78331 0.59344 0.48749 0.0
H1359 H 0.77929 0.54319 0.45358 0.0
H1360 H 0.82546 0.5607 0.53906 0.0
H1361 H 0.81063 0.56193 0.48151 0.0
H1362 H 0.77562 0.57432 0.54622 0.0
H1363 H 0.79052 0.57321 0.60368 0.0
C1364 C 0.76885 0.58178 0.43672 0.0
C1365 C 0.7624 0.5673 0.41136 0.0
C1366 C 0.7787 0.58223 0.46823 0.0
C1367 C 0.78253 0.56833 0.47486 0.0
C1368 C 0.77666 0.55417 0.44894 0.0
C1369 C 0.76664 0.55362 0.41761 0.0
C1370 C 0.81471 0.56386 0.54088 0.0
C1371 C 0.80912 0.56687 0.57577 0.0
C1372 C 0.80615 0.56442 0.50804 0.0
C1373 C 0.79201 0.56824 0.50945 0.0
C1374 C 0.78661 0.57152 0.5443 0.0
C1375 C 0.79501 0.57073 0.57716 0.0
H1376 H 0.21712 0.77544 0.726 0.0
H1377 H 0.17176 0.74191 0.7971 0.0
H1378 H 0.23426 0.79268 0.78072 0.0
H1379 H 0.18888 0.75919 0.85182 0.0
H1380 H 0.22131 0.80814 0.93222 0.0
H1381 H 0.20324 0.79173 0.87785 0.0
H1382 H 0.24665 0.78426 0.83824 0.0
H1383 H 0.26447 0.79993 0.89303 0.0
C1384 C 0.21077 0.77193 0.75327 0.0
C1385 C 0.19317 0.75735 0.75742 0.0
C1386 C 0.22059 0.78168 0.78455 0.0
C1387 C 0.21289 0.7772 0.82044 0.0
C1388 C 0.19509 0.76296 0.82443 0.0
C1389 C 0.18536 0.75304 0.79323 0.0
C1390 C 0.22693 0.80279 0.91225 0.0
C1391 C 0.24444 0.8055 0.91701 0.0
C1392 C 0.2166 0.79349 0.88103 0.0
C1393 C 0.22364 0.78692 0.85374 0.0
C1394 C 0.24103 0.78949 0.85854 0.0
C1395 C 0.25125 0.79854 0.88992 0.0
H1396 H 0.4134 0.19025 0.07764 0.0
H1397 H 0.46512 0.19813 0.11299 0.0
H1398 H 0.41149 0.20471 0.13478 0.0
H1399 H 0.46366 0.21343 0.16907 0.0
H1400 H 0.44955 0.2267 0.28181 0.0
H1401 H 0.44842 0.20877 0.22785 0.0
H1402 H 0.42527 0.2343 0.16146 0.0
H1403 H 0.42552 0.25149 0.21582 0.0
C1404 C 0.42434 0.19501 0.09764 0.0
C1405 C 0.43945 0.1931 0.0906 0.0
C1406 C 0.42334 0.20349 0.13021 0.0
C1407 C 0.43745 0.21031 0.15649 0.0
C1408 C 0.45245 0.20817 0.14968 0.0
C1409 C 0.45341 0.19963 0.1172 0.0
C1410 C 0.44391 0.22823 0.25588 0.0
C1411 C 0.43771 0.2406 0.2531 0.0
C1412 C 0.44348 0.21812 0.2248 0.0
C1413 C 0.43688 0.22017 0.19021 0.0
C1414 C 0.43029 0.23224 0.18771 0.0
C1415 C 0.43066 0.24229 0.21879 0.0
H1416 H 0.38644 0.52777 0.35183 0.0
H1417 H 0.39892 0.55116 0.24128 0.0
H1418 H 0.41218 0.55501 0.37728 0.0
H1419 H 0.42493 0.5784 0.26674 0.0
H1420 H 0.48173 0.61084 0.32608 0.0
H1421 H 0.45524 0.58462 0.29942 0.0
H1422 H 0.42159 0.58923 0.38347 0.0
H1423 H 0.44808 0.61567 0.40981 0.0
C1424 C 0.39475 0.53876 0.33301 0.0
C1425 C 0.39079 0.53739 0.29459 0.0
C1426 C 0.40937 0.55435 0.34759 0.0
C1427 C 0.42051 0.56876 0.32394 0.0
C1428 C 0.41657 0.56742 0.28549 0.0
C1429 C 0.4017 0.55193 0.27099 0.0
C1430 C 0.46866 0.60619 0.33886 0.0
C1431 C 0.4669 0.61515 0.3701 0.0
C1432 C 0.45353 0.59133 0.32344 0.0
C1433 C 0.43641 0.58495 0.3394 0.0
C1434 C 0.43466 0.59387 0.37076 0.0
C1435 C 0.44976 0.60896 0.38573 0.0
H1436 H 0.82899 0.45849 0.66099 0.0
H1437 H 0.87352 0.46995 0.73459 0.0
H1438 H 0.82899 0.43167 0.63847 0.0
H1439 H 0.87429 0.44388 0.71032 0.0
H1440 H 0.86058 0.38661 0.68773 0.0
H1441 H 0.85855 0.41213 0.71158 0.0
H1442 H 0.84562 0.42226 0.60053 0.0
H1443 H 0.84716 0.39627 0.577 0.0
C1444 C 0.83875 0.45529 0.67251 0.0
C1445 C 0.85123 0.46643 0.69975 0.0
C1446 C 0.83893 0.44002 0.65913 0.0
C1447 C 0.85166 0.43555 0.67245 0.0
C1448 C 0.86411 0.4467 0.69972 0.0
C1449 C 0.86384 0.46185 0.7133 0.0
C1450 C 0.85736 0.39433 0.66841 0.0
C1451 C 0.85417 0.38954 0.63043 0.0
C1452 C 0.85624 0.40902 0.68204 0.0
C1453 C 0.85208 0.41943 0.65798 0.0
C1454 C 0.84864 0.41445 0.62002 0.0
C1455 C 0.84958 0.3996 0.60644 0.0
H1456 H 0.44937 0.83849 0.92735 0.0
H1457 H 0.48021 0.86635 0.02527 0.0
H1458 H 0.42288 0.83804 0.95389 0.0
H1459 H 0.45371 0.86545 0.05245 0.0
H1460 H 0.40912 0.87874 0.07184 0.0
H1461 H 0.43524 0.87844 0.04625 0.0
H1462 H 0.40051 0.82522 1.00102 0.0
H1463 H 0.37428 0.82605 0.02443 0.0
C1464 C 0.45041 0.84435 0.95473 0.0
C1465 C 0.46688 0.85258 0.9741 0.0
C1466 C 0.43522 0.84403 0.97008 0.0
C1467 C 0.4361 0.85176 0.00537 0.0
C1468 C 0.45257 0.85971 0.02492 0.0
C1469 C 0.46777 0.86019 0.00939 0.0
C1470 C 0.407 0.86702 0.05618 0.0
C1471 C 0.38951 0.85246 0.05014 0.0
C1472 C 0.42205 0.86674 0.04189 0.0
C1473 C 0.42005 0.8518 0.02145 0.0
C1474 C 0.40259 0.83707 0.0161 0.0
C1475 C 0.38752 0.83742 0.03012 0.0
H1476 H 0.62743 0.44994 0.30603 0.0
H1477 H 0.59437 0.47431 0.28817 0.0
H1478 H 0.60128 0.42285 0.32961 0.0
H1479 H 0.56868 0.44793 0.31456 0.0
H1480 H 0.52114 0.39222 0.33263 0.0
H1481 H 0.54712 0.41798 0.30441 0.0
H1482 H 0.58228 0.41142 0.38179 0.0
H1483 H 0.55619 0.38508 0.40866 0.0
C1484 C 0.6146 0.44954 0.30694 0.0
C1485 C 0.61313 0.46444 0.29521 0.0
C1486 C 0.59962 0.43407 0.32114 0.0
C1487 C 0.58279 0.43314 0.32439 0.0
C1488 C 0.58129 0.44796 0.31216 0.0
C1489 C 0.59618 0.46329 0.29751 0.0
C1490 C 0.53445 0.39639 0.34365 0.0
C1491 C 0.53668 0.38678 0.37298 0.0
C1492 C 0.54937 0.4112 0.32758 0.0
C1493 C 0.56691 0.41696 0.34084 0.0
C1494 C 0.56908 0.40727 0.37032 0.0
C1495 C 0.55413 0.39225 0.38598 0.0
H1496 H 0.14475 0.61678 0.6935 0.0
H1497 H 0.15764 0.60789 0.58159 0.0
H1498 H 0.14624 0.59061 0.71558 0.0
H1499 H 0.15938 0.58174 0.60385 0.0
H1500 H 0.13694 0.52382 0.65123 0.0
H1501 H 0.13757 0.55098 0.62828 0.0
H1502 H 0.16855 0.58032 0.72502 0.0
H1503 H 0.16769 0.55303 0.7483 0.0
C1504 C 0.14792 0.60922 0.67362 0.0
C1505 C 0.15095 0.6143 0.63575 0.0
C1506 C 0.14895 0.59434 0.68635 0.0
C1507 C 0.15291 0.58411 0.66145 0.0
C1508 C 0.15615 0.5893 0.62363 0.0
C1509 C 0.15529 0.60432 0.61094 0.0
C1510 C 0.14381 0.53605 0.66769 0.0
C1511 C 0.15216 0.53626 0.70171 0.0
C1512 C 0.14435 0.55165 0.65433 0.0
C1513 C 0.15311 0.56778 0.67484 0.0
C1514 C 0.16158 0.56805 0.70874 0.0
C1515 C 0.16119 0.55247 0.72194 0.0
H1516 H 0.61581 0.16804 0.08154 0.0
H1517 H 0.61066 0.13091 0.99433 0.0
H1518 H 0.58926 0.16849 0.057 0.0
H1519 H 0.58432 0.13156 0.9695 0.0
H1520 H 0.55128 0.15577 0.91527 0.0
H1521 H 0.57835 0.15627 0.93958 0.0
H1522 H 0.55493 0.14402 0.0501 0.0
H1523 H 0.52783 0.14325 0.02575 0.0
C1524 C 0.609 0.16003 0.05711 0.0
C1525 C 0.61515 0.14935 0.03993 0.0
C1526 C 0.59384 0.16024 0.04317 0.0
C1527 C 0.58481 0.15009 0.01135 0.0
C1528 C 0.59112 0.13959 0.99393 0.0
C1529 C 0.60605 0.1391 0.00828 0.0
C1530 C 0.552 0.15325 0.94475 0.0
C1531 C 0.53749 0.14939 0.96864 0.0
C1532 C 0.56739 0.15345 0.95858 0.0
C1533 C 0.56868 0.15018 0.99668 0.0
C1534 C 0.5543 0.14667 0.02067 0.0
C1535 C 0.53879 0.14612 0.00672 0.0
loop_
_geom_bond_atom_site_label_1
_geom_bond_atom_site_label_2
_geom_bond_distance
_geom_bond_site_symmetry_2
_ccdc_geom_bond_type
Li0 N17 1.990 . S
Li0 O60 1.956 . S
Li0 O61 1.970 . S
Li0 O62 1.961 . S
Li1 N25 1.990 . S
Li1 O60 1.970 . S
Li1 O61 1.956 . S
Li1 O63 1.961 . S
Li2 N47 1.990 . S
Li2 O60 1.961 . S
Li2 O62 1.956 . S
Li2 O63 1.970 . S
Li3 N53 1.990 . S
Li3 O61 1.961 . S
Li3 O62 1.970 . S
Li3 O63 1.956 . S
C4 C6 1.348 . S
C4 C7 1.356 . S
C4 O60 1.325 . S
N5 C8 1.314 . S
N5 C9 1.279 . S
C6 C4 1.348 . S
C6 C8 1.353 . S
C6 H64 0.929 . S
C7 C4 1.356 . S
C7 C9 1.358 . S
C7 H65 0.930 . S
C8 N5 1.314 . S
C8 C6 1.353 . S
C8 H66 0.930 . S
C9 N5 1.279 . S
C9 C7 1.358 . S
C9 H67 0.930 . S
C10 C13 1.348 . S
C10 C14 1.356 . S
C10 O61 1.325 . S
C11 N12 1.279 . S
C11 C14 1.358 . S
C11 H68 0.930 . S
N12 C11 1.279 . S
N12 C15 1.314 . S
C13 C10 1.348 . S
C13 C15 1.353 . S
C13 H69 0.929 . S
C14 C10 1.356 . S
C14 C11 1.358 . S
C14 H70 0.930 . S
C15 N12 1.314 . S
C15 C13 1.353 . S
C15 H71 0.930 . S
C16 N17 1.314 . S
C16 C21 1.353 . S
C16 H22 0.930 . S
N17 Li0 1.990 . S
N17 C16 1.314 . S
N17 C19 1.279 . S
C18 C19 1.358 . S
C18 C20 1.356 . S
C18 H72 0.930 . S
C19 N17 1.279 . S
C19 C18 1.358 . S
C19 H23 0.930 . S
C20 C18 1.356 . S
C20 C21 1.348 . S
C21 C16 1.353 . S
C21 C20 1.348 . S
C21 H73 0.929 . S
H22 C16 0.930 . S
H23 C19 0.930 . S
C24 N25 1.314 . S
C24 C26 1.353 . S
C24 H30 0.930 . S
N25 Li1 1.990 . S
N25 C24 1.314 . S
N25 C28 1.279 . S
C26 C24 1.353 . S
C26 C29 1.348 . S
C26 H74 0.929 . S
C27 C28 1.358 . S
C27 C29 1.356 . S
C27 H75 0.930 . S
C28 N25 1.279 . S
C28 C27 1.358 . S
C28 H31 0.930 . S
C29 C26 1.348 . S
C29 C27 1.356 . S
H30 C24 0.930 . S
H31 C28 0.930 . S
C32 C34 1.348 . S
C32 C35 1.356 . S
C32 O62 1.325 . S
N33 C36 1.314 . S
N33 C37 1.279 . S
C34 C32 1.348 . S
C34 C36 1.353 . S
C34 H76 0.929 . S
C35 C32 1.356 . S
C35 C37 1.358 . S
C35 H77 0.930 . S
C36 N33 1.314 . S
C36 C34 1.353 . S
C36 H78 0.930 . S
C37 N33 1.279 . S
C37 C35 1.358 . S
C37 H79 0.930 . S
C38 C39 1.348 . S
C38 C40 1.356 . S
C38 O63 1.325 . S
C39 C38 1.348 . S
C39 C41 1.353 . S
C39 H80 0.929 . S
C40 C38 1.356 . S
C40 C42 1.358 . S
C40 H81 0.930 . S
C41 C39 1.353 . S
C41 N43 1.314 . S
C41 H82 0.930 . S
C42 C40 1.358 . S
C42 N43 1.279 . S
C42 H83 0.930 . S
N43 C41 1.314 . S
N43 C42 1.279 . S
C44 C46 1.353 . S
C44 N47 1.314 . S
C44 H50 0.930 . S
C45 N47 1.279 . S
C45 C48 1.358 . S
C45 H51 0.930 . S
C46 C44 1.353 . S
C46 C49 1.348 . S
C46 H84 0.929 . S
N47 Li2 1.990 . S
N47 C44 1.314 . S
N47 C45 1.279 . S
C48 C45 1.358 . S
C48 C49 1.356 . S
C48 H85 0.930 . S
C49 C46 1.348 . S
C49 C48 1.356 . S
H50 C44 0.930 . S
H51 C45 0.930 . S
C52 N53 1.314 . S
C52 C54 1.353 . S
C52 H58 0.930 . S
N53 Li3 1.990 . S
N53 C52 1.314 . S
N53 C56 1.279 . S
C54 C52 1.353 . S
C54 C57 1.348 . S
C54 H86 0.929 . S
C55 C56 1.358 . S
C55 C57 1.356 . S
C55 H87 0.930 . S
C56 N53 1.279 . S
C56 C55 1.358 . S
C56 H59 0.930 . S
C57 C54 1.348 . S
C57 C55 1.356 . S
H58 C52 0.930 . S
H59 C56 0.930 . S
O60 Li0 1.956 . S
O60 Li1 1.970 . S
O60 Li2 1.961 . S
O60 C4 1.325 . S
O61 Li0 1.970 . S
O61 Li1 1.956 . S
O61 Li3 1.961 . S
O61 C10 1.325 . S
O62 Li0 1.961 . S
O62 Li2 1.956 . S
O62 Li3 1.970 . S
O62 C32 1.325 . S
O63 Li1 1.961 . S
O63 Li2 1.970 . S
O63 Li3 1.956 . S
O63 C38 1.325 . S
H64 C6 0.929 . S
H65 C7 0.930 . S
H66 C8 0.930 . S
H67 C9 0.930 . S
H68 C11 0.930 . S
H69 C13 0.929 . S
H70 C14 0.930 . S
H71 C15 0.930 . S
H72 C18 0.930 . S
H73 C21 0.929 . S
H74 C26 0.929 . S
H75 C27 0.930 . S
H76 C34 0.929 . S
H77 C35 0.930 . S
H78 C36 0.930 . S
H79 C37 0.930 . S
H80 C39 0.929 . S
H81 C40 0.930 . S
H82 C41 0.930 . S
H83 C42 0.930 . S
H84 C46 0.929 . S
H85 C48 0.930 . S
H86 C54 0.929 . S
H87 C55 0.930 . S
Li88 N105 1.990 . S
Li88 O148 1.956 . S
Li88 O149 1.970 . S
Li88 O150 1.961 . S
Li89 N113 1.990 . S
Li89 O148 1.970 . S
Li89 O149 1.956 . S
Li89 O151 1.961 . S
Li90 N135 1.990 . S
Li90 O148 1.961 . S
Li90 O150 1.956 . S
Li90 O151 1.970 . S
Li91 N141 1.990 . S
Li91 O149 1.961 . S
Li91 O150 1.970 . S
Li91 O151 1.956 . S
C92 C94 1.348 . S
C92 C95 1.356 . S
C92 O148 1.325 . S
N93 C96 1.314 . S
N93 C97 1.279 . S
C94 C92 1.348 . S
C94 C96 1.353 . S
C94 H152 0.929 . S
C95 C92 1.356 . S
C95 C97 1.358 . S
C95 H153 0.930 . S
C96 N93 1.314 . S
C96 C94 1.353 . S
C96 H154 0.930 . S
C97 N93 1.279 . S
C97 C95 1.358 . S
C97 H155 0.930 . S
C98 C101 1.348 . S
C98 C102 1.356 . S
C98 O149 1.325 . S
C99 N100 1.279 . S
C99 C102 1.358 . S
C99 H156 0.930 . S
N100 C99 1.279 . S
N100 C103 1.314 . S
C101 C98 1.348 . S
C101 C103 1.353 . S
C101 H157 0.929 . S
C102 C98 1.356 . S
C102 C99 1.358 . S
C102 H158 0.930 . S
C103 N100 1.314 . S
C103 C101 1.353 . S
C103 H159 0.930 . S
C104 N105 1.314 . S
C104 C109 1.353 . S
C104 H110 0.930 . S
N105 Li88 1.990 . S
N105 C104 1.314 . S
N105 C107 1.279 . S
C106 C107 1.358 . S
C106 C108 1.356 . S
C106 H160 0.930 . S
C107 N105 1.279 . S
C107 C106 1.358 . S
C107 H111 0.930 . S
C108 C106 1.356 . S
C108 C109 1.348 . S
C109 C104 1.353 . S
C109 C108 1.348 . S
C109 H161 0.929 . S
H110 C104 0.930 . S
H111 C107 0.930 . S
C112 N113 1.314 . S
C112 C114 1.353 . S
C112 H118 0.930 . S
N113 Li89 1.990 . S
N113 C112 1.314 . S
N113 C116 1.279 . S
C114 C112 1.353 . S
C114 C117 1.348 . S
C114 H162 0.929 . S
C115 C116 1.358 . S
C115 C117 1.356 . S
C115 H163 0.930 . S
C116 N113 1.279 . S
C116 C115 1.358 . S
C116 H119 0.930 . S
C117 C114 1.348 . S
C117 C115 1.356 . S
H118 C112 0.930 . S
H119 C116 0.930 . S
C120 C122 1.348 . S
C120 C123 1.356 . S
C120 O150 1.325 . S
N121 C124 1.314 . S
N121 C125 1.279 . S
C122 C120 1.348 . S
C122 C124 1.353 . S
C122 H164 0.929 . S
C123 C120 1.356 . S
C123 C125 1.358 . S
C123 H165 0.930 . S
C124 N121 1.314 . S
C124 C122 1.353 . S
C124 H166 0.930 . S
C125 N121 1.279 . S
C125 C123 1.358 . S
C125 H167 0.930 . S
C126 C127 1.348 . S
C126 C128 1.356 . S
C126 O151 1.325 . S
C127 C126 1.348 . S
C127 C129 1.353 . S
C127 H168 0.929 . S
C128 C126 1.356 . S
C128 C130 1.358 . S
C128 H169 0.930 . S
C129 C127 1.353 . S
C129 N131 1.314 . S
C129 H170 0.930 . S
C130 C128 1.358 . S
C130 N131 1.279 . S
C130 H171 0.930 . S
N131 C129 1.314 . S
N131 C130 1.279 . S
C132 C134 1.353 . S
C132 N135 1.314 . S
C132 H138 0.930 . S
C133 N135 1.279 . S
C133 C136 1.358 . S
C133 H139 0.930 . S
C134 C132 1.353 . S
C134 C137 1.348 . S
C134 H172 0.929 . S
N135 Li90 1.990 . S
N135 C132 1.314 . S
N135 C133 1.279 . S
C136 C133 1.358 . S
C136 C137 1.356 . S
C136 H173 0.930 . S
C137 C134 1.348 . S
C137 C136 1.356 . S
H138 C132 0.930 . S
H139 C133 0.930 . S
C140 N141 1.314 . S
C140 C142 1.353 . S
C140 H146 0.930 . S
N141 Li91 1.990 . S
N141 C140 1.314 . S
N141 C144 1.279 . S
C142 C140 1.353 . S
C142 C145 1.348 . S
C142 H174 0.929 . S
C143 C144 1.358 . S
C143 C145 1.356 . S
C143 H175 0.930 . S
C144 N141 1.279 . S
C144 C143 1.358 . S
C144 H147 0.930 . S
C145 C142 1.348 . S
C145 C143 1.356 . S
H146 C140 0.930 . S
H147 C144 0.930 . S
O148 Li88 1.956 . S
O148 Li89 1.970 . S
O148 Li90 1.961 . S
O148 C92 1.325 . S
O149 Li88 1.970 . S
O149 Li89 1.956 . S
O149 Li91 1.961 . S
O149 C98 1.325 . S
O150 Li88 1.961 . S
O150 Li90 1.956 . S
O150 Li91 1.970 . S
O150 C120 1.325 . S
O151 Li89 1.961 . S
O151 Li90 1.970 . S
O151 Li91 1.956 . S
O151 C126 1.325 . S
H152 C94 0.929 . S
H153 C95 0.930 . S
H154 C96 0.930 . S
H155 C97 0.930 . S
H156 C99 0.930 . S
H157 C101 0.929 . S
H158 C102 0.930 . S
H159 C103 0.930 . S
H160 C106 0.930 . S
H161 C109 0.929 . S
H162 C114 0.929 . S
H163 C115 0.930 . S
H164 C122 0.929 . S
H165 C123 0.930 . S
H166 C124 0.930 . S
H167 C125 0.930 . S
H168 C127 0.929 . S
H169 C128 0.930 . S
H170 C129 0.930 . S
H171 C130 0.930 . S
H172 C134 0.929 . S
H173 C136 0.930 . S
H174 C142 0.929 . S
H175 C143 0.930 . S
Li176 N193 1.990 . S
Li176 O236 1.956 . S
Li176 O237 1.970 . S
Li176 O238 1.961 . S
Li177 N201 1.990 1_556 S
Li177 O236 1.970 . S
Li177 O237 1.956 . S
Li177 O239 1.961 . S
Li178 N223 1.990 . S
Li178 O236 1.961 . S
Li178 O238 1.956 . S
Li178 O239 1.970 . S
Li179 N229 1.990 . S
Li179 O237 1.961 . S
Li179 O238 1.970 . S
Li179 O239 1.956 . S
C180 C182 1.348 . S
C180 C183 1.356 . S
C180 O236 1.325 . S
N181 C184 1.314 . S
N181 C185 1.279 . S
C182 C180 1.348 . S
C182 C184 1.353 . S
C182 H240 0.929 . S
C183 C180 1.356 . S
C183 C185 1.358 . S
C183 H241 0.930 . S
C184 N181 1.314 . S
C184 C182 1.353 . S
C184 H242 0.930 . S
C185 N181 1.279 . S
C185 C183 1.358 . S
C185 H243 0.930 . S
C186 C189 1.348 . S
C186 C190 1.356 . S
C186 O237 1.325 1_554 S
C187 N188 1.279 . S
C187 C190 1.358 . S
C187 H244 0.930 . S
N188 C187 1.279 . S
N188 C191 1.314 . S
C189 C186 1.348 . S
C189 C191 1.353 . S
C189 H245 0.929 . S
C190 C186 1.356 . S
C190 C187 1.358 . S
C190 H246 0.930 . S
C191 N188 1.314 . S
C191 C189 1.353 . S
C191 H247 0.930 . S
C192 N193 1.314 . S
C192 C197 1.353 . S
C192 H198 0.930 . S
N193 Li176 1.990 . S
N193 C192 1.314 . S
N193 C195 1.279 . S
C194 C195 1.358 . S
C194 C196 1.356 . S
C194 H248 0.930 . S
C195 N193 1.279 . S
C195 C194 1.358 . S
C195 H199 0.930 . S
C196 C194 1.356 . S
C196 C197 1.348 . S
C197 C192 1.353 . S
C197 C196 1.348 . S
C197 H249 0.929 . S
H198 C192 0.930 . S
H199 C195 0.930 . S
C200 N201 1.314 . S
C200 C202 1.353 . S
C200 H206 0.930 1_554 S
N201 Li177 1.990 1_554 S
N201 C200 1.314 . S
N201 C204 1.279 . S
C202 C200 1.353 . S
C202 C205 1.348 . S
C202 H250 0.929 . S
C203 C204 1.358 . S
C203 C205 1.356 . S
C203 H251 0.930 . S
C204 N201 1.279 . S
C204 C203 1.358 . S
C204 H207 0.930 . S
C205 C202 1.348 . S
C205 C203 1.356 . S
H206 C200 0.930 1_556 S
H207 C204 0.930 . S
C208 C210 1.348 . S
C208 C211 1.356 . S
C208 O238 1.325 . S
N209 C212 1.314 . S
N209 C213 1.279 . S
C210 C208 1.348 . S
C210 C212 1.353 . S
C210 H252 0.929 . S
C211 C208 1.356 . S
C211 C213 1.358 . S
C211 H253 0.930 . S
C212 N209 1.314 . S
C212 C210 1.353 . S
C212 H254 0.930 . S
C213 N209 1.279 . S
C213 C211 1.358 . S
C213 H255 0.930 . S
C214 C215 1.348 . S
C214 C216 1.356 . S
C214 O239 1.325 . S
C215 C214 1.348 . S
C215 C217 1.353 . S
C215 H256 0.929 . S
C216 C214 1.356 . S
C216 C218 1.358 . S
C216 H257 0.930 . S
C217 C215 1.353 . S
C217 N219 1.314 . S
C217 H258 0.930 . S
C218 C216 1.358 . S
C218 N219 1.279 . S
C218 H259 0.930 . S
N219 C217 1.314 . S
N219 C218 1.279 . S
C220 C222 1.353 . S
C220 N223 1.314 . S
C220 H226 0.930 . S
C221 N223 1.279 . S
C221 C224 1.358 . S
C221 H227 0.930 . S
C222 C220 1.353 . S
C222 C225 1.348 . S
C222 H260 0.929 . S
N223 Li178 1.990 . S
N223 C220 1.314 . S
N223 C221 1.279 . S
C224 C221 1.358 . S
C224 C225 1.356 . S
C224 H261 0.930 . S
C225 C222 1.348 . S
C225 C224 1.356 . S
H226 C220 0.930 . S
H227 C221 0.930 . S
C228 N229 1.314 . S
C228 C230 1.353 . S
C228 H234 0.930 . S
N229 Li179 1.990 . S
N229 C228 1.314 . S
N229 C232 1.279 . S
C230 C228 1.353 . S
C230 C233 1.348 . S
C230 H262 0.929 . S
C231 C232 1.358 . S
C231 C233 1.356 . S
C231 H263 0.930 . S
C232 N229 1.279 . S
C232 C231 1.358 . S
C232 H235 0.930 . S
C233 C230 1.348 . S
C233 C231 1.356 . S
H234 C228 0.930 . S
H235 C232 0.930 . S
O236 Li176 1.956 . S
O236 Li177 1.970 . S
O236 Li178 1.961 . S
O236 C180 1.325 . S
O237 Li176 1.970 . S
O237 Li177 1.956 . S
O237 Li179 1.961 . S
O237 C186 1.325 1_556 S
O238 Li176 1.961 . S
O238 Li178 1.956 . S
O238 Li179 1.970 . S
O238 C208 1.325 . S
O239 Li177 1.961 . S
O239 Li178 1.970 . S
O239 Li179 1.956 . S
O239 C214 1.325 . S
H240 C182 0.929 . S
H241 C183 0.930 . S
H242 C184 0.930 . S
H243 C185 0.930 . S
H244 C187 0.930 . S
H245 C189 0.929 . S
H246 C190 0.930 . S
H247 C191 0.930 . S
H248 C194 0.930 . S
H249 C197 0.929 . S
H250 C202 0.929 . S
H251 C203 0.930 . S
H252 C210 0.929 . S
H253 C211 0.930 . S
H254 C212 0.930 . S
H255 C213 0.930 . S
H256 C215 0.929 . S
H257 C216 0.930 . S
H258 C217 0.930 . S
H259 C218 0.930 . S
H260 C222 0.929 . S
H261 C224 0.930 . S
H262 C230 0.929 . S
H263 C231 0.930 . S
Li264 N281 1.990 . S
Li264 O324 1.956 . S
Li264 O325 1.970 . S
Li264 O326 1.961 . S
Li265 N289 1.990 . S
Li265 O324 1.970 . S
Li265 O325 1.956 . S
Li265 O327 1.961 . S
Li266 N311 1.990 . S
Li266 O324 1.961 . S
Li266 O326 1.956 . S
Li266 O327 1.970 . S
Li267 N317 1.990 . S
Li267 O325 1.961 . S
Li267 O326 1.970 . S
Li267 O327 1.956 . S
C268 C270 1.348 . S
C268 C271 1.356 . S
C268 O324 1.325 . S
N269 C272 1.314 . S
N269 C273 1.279 . S
C270 C268 1.348 . S
C270 C272 1.353 . S
C270 H328 0.929 . S
C271 C268 1.356 . S
C271 C273 1.358 . S
C271 H329 0.930 . S
C272 N269 1.314 . S
C272 C270 1.353 . S
C272 H330 0.930 . S
C273 N269 1.279 . S
C273 C271 1.358 . S
C273 H331 0.930 . S
C274 C277 1.348 . S
C274 C278 1.356 . S
C274 O325 1.325 . S
C275 N276 1.279 . S
C275 C278 1.358 . S
C275 H332 0.930 . S
N276 C275 1.279 . S
N276 C279 1.314 . S
C277 C274 1.348 . S
C277 C279 1.353 . S
C277 H333 0.929 . S
C278 C274 1.356 . S
C278 C275 1.358 . S
C278 H334 0.930 . S
C279 N276 1.314 . S
C279 C277 1.353 . S
C279 H335 0.930 . S
C280 N281 1.314 . S
C280 C285 1.353 . S
C280 H286 0.930 . S
N281 Li264 1.990 . S
N281 C280 1.314 . S
N281 C283 1.279 . S
C282 C283 1.358 . S
C282 C284 1.356 . S
C282 H336 0.930 . S
C283 N281 1.279 . S
C283 C282 1.358 . S
C283 H287 0.930 . S
C284 C282 1.356 . S
C284 C285 1.348 . S
C285 C280 1.353 . S
C285 C284 1.348 . S
C285 H337 0.929 . S
H286 C280 0.930 . S
H287 C283 0.930 . S
C288 N289 1.314 . S
C288 C290 1.353 . S
C288 H294 0.930 . S
N289 Li265 1.990 . S
N289 C288 1.314 . S
N289 C292 1.279 . S
C290 C288 1.353 . S
C290 C293 1.348 . S
C290 H338 0.929 . S
C291 C292 1.358 . S
C291 C293 1.356 . S
C291 H339 0.930 . S
C292 N289 1.279 . S
C292 C291 1.358 . S
C292 H295 0.930 . S
C293 C290 1.348 . S
C293 C291 1.356 . S
H294 C288 0.930 . S
H295 C292 0.930 . S
C296 C298 1.348 . S
C296 C299 1.356 . S
C296 O326 1.325 . S
N297 C300 1.314 . S
N297 C301 1.279 . S
C298 C296 1.348 . S
C298 C300 1.353 . S
C298 H340 0.929 . S
C299 C296 1.356 . S
C299 C301 1.358 . S
C299 H341 0.930 . S
C300 N297 1.314 . S
C300 C298 1.353 . S
C300 H342 0.930 . S
C301 N297 1.279 . S
C301 C299 1.358 . S
C301 H343 0.930 . S
C302 C303 1.348 . S
C302 C304 1.356 . S
C302 O327 1.325 . S
C303 C302 1.348 . S
C303 C305 1.353 . S
C303 H344 0.929 . S
C304 C302 1.356 . S
C304 C306 1.358 . S
C304 H345 0.930 . S
C305 C303 1.353 . S
C305 N307 1.314 . S
C305 H346 0.930 . S
C306 C304 1.358 . S
C306 N307 1.279 . S
C306 H347 0.930 . S
N307 C305 1.314 . S
N307 C306 1.279 . S
C308 C310 1.353 . S
C308 N311 1.314 . S
C308 H314 0.930 . S
C309 N311 1.279 . S
C309 C312 1.358 . S
C309 H315 0.930 . S
C310 C308 1.353 . S
C310 C313 1.348 . S
C310 H348 0.929 . S
N311 Li266 1.990 . S
N311 C308 1.314 . S
N311 C309 1.279 . S
C312 C309 1.358 . S
C312 C313 1.356 . S
C312 H349 0.930 . S
C313 C310 1.348 . S
C313 C312 1.356 . S
H314 C308 0.930 . S
H315 C309 0.930 . S
C316 N317 1.314 . S
C316 C318 1.353 . S
C316 H322 0.930 . S
N317 Li267 1.990 . S
N317 C316 1.314 . S
N317 C320 1.279 . S
C318 C316 1.353 . S
C318 C321 1.348 . S
C318 H350 0.929 . S
C319 C320 1.358 . S
C319 C321 1.356 . S
C319 H351 0.930 . S
C320 N317 1.279 . S
C320 C319 1.358 . S
C320 H323 0.930 . S
C321 C318 1.348 . S
C321 C319 1.356 . S
H322 C316 0.930 . S
H323 C320 0.930 . S
O324 Li264 1.956 . S
O324 Li265 1.970 . S
O324 Li266 1.961 . S
O324 C268 1.325 . S
O325 Li264 1.970 . S
O325 Li265 1.956 . S
O325 Li267 1.961 . S
O325 C274 1.325 . S
O326 Li264 1.961 . S
O326 Li266 1.956 . S
O326 Li267 1.970 . S
O326 C296 1.325 . S
O327 Li265 1.961 . S
O327 Li266 1.970 . S
O327 Li267 1.956 . S
O327 C302 1.325 . S
H328 C270 0.929 . S
H329 C271 0.930 . S
H330 C272 0.930 . S
H331 C273 0.930 . S
H332 C275 0.930 . S
H333 C277 0.929 . S
H334 C278 0.930 . S
H335 C279 0.930 . S
H336 C282 0.930 . S
H337 C285 0.929 . S
H338 C290 0.929 . S
H339 C291 0.930 . S
H340 C298 0.929 . S
H341 C299 0.930 . S
H342 C300 0.930 . S
H343 C301 0.930 . S
H344 C303 0.929 . S
H345 C304 0.930 . S
H346 C305 0.930 . S
H347 C306 0.930 . S
H348 C310 0.929 . S
H349 C312 0.930 . S
H350 C318 0.929 . S
H351 C319 0.930 . S
Li352 N369 1.990 . S
Li352 O412 1.956 . S
Li352 O413 1.970 . S
Li352 O414 1.961 . S
Li353 N377 1.990 . S
Li353 O412 1.970 . S
Li353 O413 1.956 . S
Li353 O415 1.961 . S
Li354 N399 1.990 . S
Li354 O412 1.961 . S
Li354 O414 1.956 . S
Li354 O415 1.970 . S
Li355 N405 1.990 . S
Li355 O413 1.961 . S
Li355 O414 1.970 . S
Li355 O415 1.956 . S
C356 C358 1.348 . S
C356 C359 1.356 . S
C356 O412 1.325 . S
N357 C360 1.314 . S
N357 C361 1.279 . S
C358 C356 1.348 . S
C358 C360 1.353 . S
C358 H416 0.929 . S
C359 C356 1.356 . S
C359 C361 1.358 . S
C359 H417 0.930 . S
C360 N357 1.314 . S
C360 C358 1.353 . S
C360 H418 0.930 . S
C361 N357 1.279 . S
C361 C359 1.358 . S
C361 H419 0.930 . S
C362 C365 1.348 . S
C362 C366 1.356 . S
C362 O413 1.325 . S
C363 N364 1.279 . S
C363 C366 1.358 . S
C363 H420 0.930 . S
N364 C363 1.279 . S
N364 C367 1.314 . S
C365 C362 1.348 . S
C365 C367 1.353 . S
C365 H421 0.929 . S
C366 C362 1.356 . S
C366 C363 1.358 . S
C366 H422 0.930 . S
C367 N364 1.314 . S
C367 C365 1.353 . S
C367 H423 0.930 . S
C368 N369 1.314 . S
C368 C373 1.353 . S
C368 H374 0.930 . S
N369 Li352 1.990 . S
N369 C368 1.314 . S
N369 C371 1.279 . S
C370 C371 1.358 . S
C370 C372 1.356 . S
C370 H424 0.930 . S
C371 N369 1.279 . S
C371 C370 1.358 . S
C371 H375 0.930 . S
C372 C370 1.356 . S
C372 C373 1.348 . S
C373 C368 1.353 . S
C373 C372 1.348 . S
C373 H425 0.929 . S
H374 C368 0.930 . S
H375 C371 0.930 . S
C376 N377 1.314 . S
C376 C378 1.353 . S
C376 H382 0.930 . S
N377 Li353 1.990 . S
N377 C376 1.314 . S
N377 C380 1.279 . S
C378 C376 1.353 . S
C378 C381 1.348 . S
C378 H426 0.929 . S
C379 C380 1.358 . S
C379 C381 1.356 . S
C379 H427 0.930 . S
C380 N377 1.279 . S
C380 C379 1.358 . S
C380 H383 0.930 . S
C381 C378 1.348 . S
C381 C379 1.356 . S
H382 C376 0.930 . S
H383 C380 0.930 . S
C384 C386 1.348 . S
C384 C387 1.356 . S
C384 O414 1.325 . S
N385 C388 1.314 . S
N385 C389 1.279 . S
C386 C384 1.348 . S
C386 C388 1.353 . S
C386 H428 0.929 . S
C387 C384 1.356 . S
C387 C389 1.358 . S
C387 H429 0.930 . S
C388 N385 1.314 . S
C388 C386 1.353 . S
C388 H430 0.930 . S
C389 N385 1.279 . S
C389 C387 1.358 . S
C389 H431 0.930 . S
C390 C391 1.348 . S
C390 C392 1.356 . S
C390 O415 1.325 . S
C391 C390 1.348 . S
C391 C393 1.353 . S
C391 H432 0.929 . S
C392 C390 1.356 . S
C392 C394 1.358 . S
C392 H433 0.930 . S
C393 C391 1.353 . S
C393 N395 1.314 . S
C393 H434 0.930 . S
C394 C392 1.358 . S
C394 N395 1.279 . S
C394 H435 0.930 . S
N395 C393 1.314 . S
N395 C394 1.279 . S
C396 C398 1.353 . S
C396 N399 1.314 . S
C396 H402 0.930 . S
C397 N399 1.279 . S
C397 C400 1.358 . S
C397 H403 0.930 . S
C398 C396 1.353 . S
C398 C401 1.348 . S
C398 H436 0.929 . S
N399 Li354 1.990 . S
N399 C396 1.314 . S
N399 C397 1.279 . S
C400 C397 1.358 . S
C400 C401 1.356 . S
C400 H437 0.930 . S
C401 C398 1.348 . S
C401 C400 1.356 . S
H402 C396 0.930 . S
H403 C397 0.930 . S
C404 N405 1.314 . S
C404 C406 1.353 . S
C404 H410 0.930 . S
N405 Li355 1.990 . S
N405 C404 1.314 . S
N405 C408 1.279 . S
C406 C404 1.353 . S
C406 C409 1.348 . S
C406 H438 0.929 . S
C407 C408 1.358 . S
C407 C409 1.356 . S
C407 H439 0.930 . S
C408 N405 1.279 . S
C408 C407 1.358 . S
C408 H411 0.930 . S
C409 C406 1.348 . S
C409 C407 1.356 . S
H410 C404 0.930 . S
H411 C408 0.930 . S
O412 Li352 1.956 . S
O412 Li353 1.970 . S
O412 Li354 1.961 . S
O412 C356 1.325 . S
O413 Li352 1.970 . S
O413 Li353 1.956 . S
O413 Li355 1.961 . S
O413 C362 1.325 . S
O414 Li352 1.961 . S
O414 Li354 1.956 . S
O414 Li355 1.970 . S
O414 C384 1.325 . S
O415 Li353 1.961 . S
O415 Li354 1.970 . S
O415 Li355 1.956 . S
O415 C390 1.325 . S
H416 C358 0.929 . S
H417 C359 0.930 . S
H418 C360 0.930 . S
H419 C361 0.930 . S
H420 C363 0.930 . S
H421 C365 0.929 . S
H422 C366 0.930 . S
H423 C367 0.930 . S
H424 C370 0.930 . S
H425 C373 0.929 . S
H426 C378 0.929 . S
H427 C379 0.930 . S
H428 C386 0.929 . S
H429 C387 0.930 . S
H430 C388 0.930 . S
H431 C389 0.930 . S
H432 C391 0.929 . S
H433 C392 0.930 . S
H434 C393 0.930 . S
H435 C394 0.930 . S
H436 C398 0.929 . S
H437 C400 0.930 . S
H438 C406 0.929 . S
H439 C407 0.930 . S
Li440 N457 1.990 1_556 S
Li440 O500 1.956 . S
Li440 O501 1.970 . S
Li440 O502 1.961 . S
Li441 N465 1.990 . S
Li441 O500 1.970 . S
Li441 O501 1.956 . S
Li441 O503 1.961 . S
Li442 N487 1.990 . S
Li442 O500 1.961 . S
Li442 O502 1.956 . S
Li442 O503 1.970 . S
Li443 N493 1.990 . S
Li443 O501 1.961 . S
Li443 O502 1.970 . S
Li443 O503 1.956 . S
C444 C446 1.348 . S
C444 C447 1.356 . S
C444 O500 1.325 1_554 S
N445 C448 1.314 . S
N445 C449 1.279 . S
C446 C444 1.348 . S
C446 C448 1.353 . S
C446 H504 0.929 . S
C447 C444 1.356 . S
C447 C449 1.358 . S
C447 H505 0.930 . S
C448 N445 1.314 . S
C448 C446 1.353 . S
C448 H506 0.930 . S
C449 N445 1.279 . S
C449 C447 1.358 . S
C449 H507 0.930 . S
C450 C453 1.348 . S
C450 C454 1.356 . S
C450 O501 1.325 . S
C451 N452 1.279 . S
C451 C454 1.358 . S
C451 H508 0.930 . S
N452 C451 1.279 . S
N452 C455 1.314 . S
C453 C450 1.348 . S
C453 C455 1.353 . S
C453 H509 0.929 . S
C454 C450 1.356 . S
C454 C451 1.358 . S
C454 H510 0.930 . S
C455 N452 1.314 . S
C455 C453 1.353 . S
C455 H511 0.930 . S
C456 N457 1.314 . S
C456 C461 1.353 . S
C456 H462 0.930 1_554 S
N457 Li440 1.990 1_554 S
N457 C456 1.314 . S
N457 C459 1.279 . S
C458 C459 1.358 . S
C458 C460 1.356 . S
C458 H512 0.930 . S
C459 N457 1.279 . S
C459 C458 1.358 . S
C459 H463 0.930 . S
C460 C458 1.356 . S
C460 C461 1.348 . S
C461 C456 1.353 . S
C461 C460 1.348 . S
C461 H513 0.929 . S
H462 C456 0.930 1_556 S
H463 C459 0.930 . S
C464 N465 1.314 . S
C464 C466 1.353 . S
C464 H470 0.930 . S
N465 Li441 1.990 . S
N465 C464 1.314 . S
N465 C468 1.279 . S
C466 C464 1.353 . S
C466 C469 1.348 . S
C466 H514 0.929 . S
C467 C468 1.358 . S
C467 C469 1.356 . S
C467 H515 0.930 . S
C468 N465 1.279 . S
C468 C467 1.358 . S
C468 H471 0.930 . S
C469 C466 1.348 . S
C469 C467 1.356 . S
H470 C464 0.930 . S
H471 C468 0.930 . S
C472 C474 1.348 . S
C472 C475 1.356 . S
C472 O502 1.325 . S
N473 C476 1.314 . S
N473 C477 1.279 . S
C474 C472 1.348 . S
C474 C476 1.353 . S
C474 H516 0.929 . S
C475 C472 1.356 . S
C475 C477 1.358 . S
C475 H517 0.930 . S
C476 N473 1.314 . S
C476 C474 1.353 . S
C476 H518 0.930 . S
C477 N473 1.279 . S
C477 C475 1.358 . S
C477 H519 0.930 . S
C478 C479 1.348 . S
C478 C480 1.356 . S
C478 O503 1.325 . S
C479 C478 1.348 . S
C479 C481 1.353 . S
C479 H520 0.929 . S
C480 C478 1.356 . S
C480 C482 1.358 . S
C480 H521 0.930 . S
C481 C479 1.353 . S
C481 N483 1.314 . S
C481 H522 0.930 . S
C482 C480 1.358 . S
C482 N483 1.279 . S
C482 H523 0.930 . S
N483 C481 1.314 . S
N483 C482 1.279 . S
C484 C486 1.353 . S
C484 N487 1.314 . S
C484 H490 0.930 . S
C485 N487 1.279 . S
C485 C488 1.358 . S
C485 H491 0.930 . S
C486 C484 1.353 . S
C486 C489 1.348 . S
C486 H524 0.929 . S
N487 Li442 1.990 . S
N487 C484 1.314 . S
N487 C485 1.279 . S
C488 C485 1.358 . S
C488 C489 1.356 . S
C488 H525 0.930 . S
C489 C486 1.348 . S
C489 C488 1.356 . S
H490 C484 0.930 . S
H491 C485 0.930 . S
C492 N493 1.314 . S
C492 C494 1.353 . S
C492 H498 0.930 . S
N493 Li443 1.990 . S
N493 C492 1.314 . S
N493 C496 1.279 . S
C494 C492 1.353 . S
C494 C497 1.348 . S
C494 H526 0.929 . S
C495 C496 1.358 . S
C495 C497 1.356 . S
C495 H527 0.930 . S
C496 N493 1.279 . S
C496 C495 1.358 . S
C496 H499 0.930 . S
C497 C494 1.348 . S
C497 C495 1.356 . S
H498 C492 0.930 . S
H499 C496 0.930 . S
O500 Li440 1.956 . S
O500 Li441 1.970 . S
O500 Li442 1.961 . S
O500 C444 1.325 1_556 S
O501 Li440 1.970 . S
O501 Li441 1.956 . S
O501 Li443 1.961 . S
O501 C450 1.325 . S
O502 Li440 1.961 . S
O502 Li442 1.956 . S
O502 Li443 1.970 . S
O502 C472 1.325 . S
O503 Li441 1.961 . S
O503 Li442 1.970 . S
O503 Li443 1.956 . S
O503 C478 1.325 . S
H504 C446 0.929 . S
H505 C447 0.930 . S
H506 C448 0.930 . S
H507 C449 0.930 . S
H508 C451 0.930 . S
H509 C453 0.929 . S
H510 C454 0.930 . S
H511 C455 0.930 . S
H512 C458 0.930 . S
H513 C461 0.929 . S
H514 C466 0.929 . S
H515 C467 0.930 . S
H516 C474 0.929 . S
H517 C475 0.930 . S
H518 C476 0.930 . S
H519 C477 0.930 . S
H520 C479 0.929 . S
H521 C480 0.930 . S
H522 C481 0.930 . S
H523 C482 0.930 . S
H524 C486 0.929 . S
H525 C488 0.930 . S
H526 C494 0.929 . S
H527 C495 0.930 . S
Li528 N545 1.990 . S
Li528 O588 1.956 . S
Li528 O589 1.970 . S
Li528 O590 1.961 . S
Li529 N553 1.990 . S
Li529 O588 1.970 . S
Li529 O589 1.956 . S
Li529 O591 1.961 . S
Li530 N575 1.990 . S
Li530 O588 1.961 . S
Li530 O590 1.956 . S
Li530 O591 1.970 . S
Li531 N581 1.990 . S
Li531 O589 1.961 . S
Li531 O590 1.970 . S
Li531 O591 1.956 . S
C532 C534 1.348 . S
C532 C535 1.356 . S
C532 O588 1.325 . S
N533 C536 1.314 . S
N533 C537 1.279 . S
C534 C532 1.348 . S
C534 C536 1.353 . S
C534 H592 0.929 . S
C535 C532 1.356 . S
C535 C537 1.358 . S
C535 H593 0.930 . S
C536 N533 1.314 . S
C536 C534 1.353 . S
C536 H594 0.930 . S
C537 N533 1.279 . S
C537 C535 1.358 . S
C537 H595 0.930 . S
C538 C541 1.348 . S
C538 C542 1.356 . S
C538 O589 1.325 . S
C539 N540 1.279 . S
C539 C542 1.358 . S
C539 H596 0.930 . S
N540 C539 1.279 . S
N540 C543 1.314 . S
C541 C538 1.348 . S
C541 C543 1.353 . S
C541 H597 0.929 . S
C542 C538 1.356 . S
C542 C539 1.358 . S
C542 H598 0.930 . S
C543 N540 1.314 . S
C543 C541 1.353 . S
C543 H599 0.930 . S
C544 N545 1.314 . S
C544 C549 1.353 . S
C544 H550 0.930 . S
N545 Li528 1.990 . S
N545 C544 1.314 . S
N545 C547 1.279 . S
C546 C547 1.358 . S
C546 C548 1.356 . S
C546 H600 0.930 . S
C547 N545 1.279 . S
C547 C546 1.358 . S
C547 H551 0.930 . S
C548 C546 1.356 . S
C548 C549 1.348 . S
C549 C544 1.353 . S
C549 C548 1.348 . S
C549 H601 0.929 . S
H550 C544 0.930 . S
H551 C547 0.930 . S
C552 N553 1.314 . S
C552 C554 1.353 . S
C552 H558 0.930 . S
N553 Li529 1.990 . S
N553 C552 1.314 . S
N553 C556 1.279 . S
C554 C552 1.353 . S
C554 C557 1.348 . S
C554 H602 0.929 . S
C555 C556 1.358 . S
C555 C557 1.356 . S
C555 H603 0.930 . S
C556 N553 1.279 . S
C556 C555 1.358 . S
C556 H559 0.930 . S
C557 C554 1.348 . S
C557 C555 1.356 . S
H558 C552 0.930 . S
H559 C556 0.930 . S
C560 C562 1.348 . S
C560 C563 1.356 . S
C560 O590 1.325 . S
N561 C564 1.314 . S
N561 C565 1.279 . S
C562 C560 1.348 . S
C562 C564 1.353 . S
C562 H604 0.929 . S
C563 C560 1.356 . S
C563 C565 1.358 . S
C563 H605 0.930 . S
C564 N561 1.314 . S
C564 C562 1.353 . S
C564 H606 0.930 . S
C565 N561 1.279 . S
C565 C563 1.358 . S
C565 H607 0.930 . S
C566 C567 1.348 . S
C566 C568 1.356 . S
C566 O591 1.325 . S
C567 C566 1.348 . S
C567 C569 1.353 . S
C567 H608 0.929 . S
C568 C566 1.356 . S
C568 C570 1.358 . S
C568 H609 0.930 . S
C569 C567 1.353 . S
C569 N571 1.314 . S
C569 H610 0.930 . S
C570 C568 1.358 . S
C570 N571 1.279 . S
C570 H611 0.930 . S
N571 C569 1.314 . S
N571 C570 1.279 . S
C572 C574 1.353 . S
C572 N575 1.314 . S
C572 H578 0.930 . S
C573 N575 1.279 . S
C573 C576 1.358 . S
C573 H579 0.930 . S
C574 C572 1.353 . S
C574 C577 1.348 . S
C574 H612 0.929 . S
N575 Li530 1.990 . S
N575 C572 1.314 . S
N575 C573 1.279 . S
C576 C573 1.358 . S
C576 C577 1.356 . S
C576 H613 0.930 . S
C577 C574 1.348 . S
C577 C576 1.356 . S
H578 C572 0.930 . S
H579 C573 0.930 . S
C580 N581 1.314 . S
C580 C582 1.353 . S
C580 H586 0.930 . S
N581 Li531 1.990 . S
N581 C580 1.314 . S
N581 C584 1.279 . S
C582 C580 1.353 . S
C582 C585 1.348 . S
C582 H614 0.929 . S
C583 C584 1.358 . S
C583 C585 1.356 . S
C583 H615 0.930 . S
C584 N581 1.279 . S
C584 C583 1.358 . S
C584 H587 0.930 . S
C585 C582 1.348 . S
C585 C583 1.356 . S
H586 C580 0.930 . S
H587 C584 0.930 . S
O588 Li528 1.956 . S
O588 Li529 1.970 . S
O588 Li530 1.961 . S
O588 C532 1.325 . S
O589 Li528 1.970 . S
O589 Li529 1.956 . S
O589 Li531 1.961 . S
O589 C538 1.325 . S
O590 Li528 1.961 . S
O590 Li530 1.956 . S
O590 Li531 1.970 . S
O590 C560 1.325 . S
O591 Li529 1.961 . S
O591 Li530 1.970 . S
O591 Li531 1.956 . S
O591 C566 1.325 . S
H592 C534 0.929 . S
H593 C535 0.930 . S
H594 C536 0.930 . S
H595 C537 0.930 . S
H596 C539 0.930 . S
H597 C541 0.929 . S
H598 C542 0.930 . S
H599 C543 0.930 . S
H600 C546 0.930 . S
H601 C549 0.929 . S
H602 C554 0.929 . S
H603 C555 0.930 . S
H604 C562 0.929 . S
H605 C563 0.930 . S
H606 C564 0.930 . S
H607 C565 0.930 . S
H608 C567 0.929 . S
H609 C568 0.930 . S
H610 C569 0.930 . S
H611 C570 0.930 . S
H612 C574 0.929 . S
H613 C576 0.930 . S
H614 C582 0.929 . S
H615 C583 0.930 . S
Li616 N633 1.990 . S
Li616 O676 1.956 . S
Li616 O677 1.970 . S
Li616 O678 1.961 . S
Li617 N641 1.990 . S
Li617 O676 1.970 . S
Li617 O677 1.956 . S
Li617 O679 1.961 . S
Li618 N663 1.990 . S
Li618 O676 1.961 . S
Li618 O678 1.956 . S
Li618 O679 1.970 . S
Li619 N669 1.990 . S
Li619 O677 1.961 . S
Li619 O678 1.970 . S
Li619 O679 1.956 . S
C620 C622 1.348 . S
C620 C623 1.356 . S
C620 O676 1.325 . S
N621 C624 1.314 . S
N621 C625 1.279 . S
C622 C620 1.348 . S
C622 C624 1.353 . S
C622 H680 0.929 . S
C623 C620 1.356 . S
C623 C625 1.358 . S
C623 H681 0.930 . S
C624 N621 1.314 . S
C624 C622 1.353 . S
C624 H682 0.930 . S
C625 N621 1.279 . S
C625 C623 1.358 . S
C625 H683 0.930 . S
C626 C629 1.348 . S
C626 C630 1.356 . S
C626 O677 1.325 . S
C627 N628 1.279 . S
C627 C630 1.358 . S
C627 H684 0.930 . S
N628 C627 1.279 . S
N628 C631 1.314 . S
C629 C626 1.348 . S
C629 C631 1.353 . S
C629 H685 0.929 . S
C630 C626 1.356 . S
C630 C627 1.358 . S
C630 H686 0.930 . S
C631 N628 1.314 . S
C631 C629 1.353 . S
C631 H687 0.930 . S
C632 N633 1.314 . S
C632 C637 1.353 . S
C632 H638 0.930 . S
N633 Li616 1.990 . S
N633 C632 1.314 . S
N633 C635 1.279 . S
C634 C635 1.358 . S
C634 C636 1.356 . S
C634 H688 0.930 . S
C635 N633 1.279 . S
C635 C634 1.358 . S
C635 H639 0.930 . S
C636 C634 1.356 . S
C636 C637 1.348 . S
C637 C632 1.353 . S
C637 C636 1.348 . S
C637 H689 0.929 . S
H638 C632 0.930 . S
H639 C635 0.930 . S
C640 N641 1.314 . S
C640 C642 1.353 . S
C640 H646 0.930 . S
N641 Li617 1.990 . S
N641 C640 1.314 . S
N641 C644 1.279 . S
C642 C640 1.353 . S
C642 C645 1.348 . S
C642 H690 0.929 . S
C643 C644 1.358 . S
C643 C645 1.356 . S
C643 H691 0.930 . S
C644 N641 1.279 . S
C644 C643 1.358 . S
C644 H647 0.930 . S
C645 C642 1.348 . S
C645 C643 1.356 . S
H646 C640 0.930 . S
H647 C644 0.930 . S
C648 C650 1.348 . S
C648 C651 1.356 . S
C648 O678 1.325 . S
N649 C652 1.314 . S
N649 C653 1.279 . S
C650 C648 1.348 . S
C650 C652 1.353 . S
C650 H692 0.929 . S
C651 C648 1.356 . S
C651 C653 1.358 . S
C651 H693 0.930 . S
C652 N649 1.314 . S
C652 C650 1.353 . S
C652 H694 0.930 . S
C653 N649 1.279 . S
C653 C651 1.358 . S
C653 H695 0.930 . S
C654 C655 1.348 . S
C654 C656 1.356 . S
C654 O679 1.325 . S
C655 C654 1.348 . S
C655 C657 1.353 . S
C655 H696 0.929 . S
C656 C654 1.356 . S
C656 C658 1.358 . S
C656 H697 0.930 . S
C657 C655 1.353 . S
C657 N659 1.314 . S
C657 H698 0.930 . S
C658 C656 1.358 . S
C658 N659 1.279 . S
C658 H699 0.930 . S
N659 C657 1.314 . S
N659 C658 1.279 . S
C660 C662 1.353 . S
C660 N663 1.314 . S
C660 H666 0.930 . S
C661 N663 1.279 . S
C661 C664 1.358 . S
C661 H667 0.930 . S
C662 C660 1.353 . S
C662 C665 1.348 . S
C662 H700 0.929 . S
N663 Li618 1.990 . S
N663 C660 1.314 . S
N663 C661 1.279 . S
C664 C661 1.358 . S
C664 C665 1.356 . S
C664 H701 0.930 . S
C665 C662 1.348 . S
C665 C664 1.356 . S
H666 C660 0.930 . S
H667 C661 0.930 . S
C668 N669 1.314 . S
C668 C670 1.353 . S
C668 H674 0.930 . S
N669 Li619 1.990 . S
N669 C668 1.314 . S
N669 C672 1.279 . S
C670 C668 1.353 . S
C670 C673 1.348 . S
C670 H702 0.929 . S
C671 C672 1.358 . S
C671 C673 1.356 . S
C671 H703 0.930 . S
C672 N669 1.279 . S
C672 C671 1.358 . S
C672 H675 0.930 . S
C673 C670 1.348 . S
C673 C671 1.356 . S
H674 C668 0.930 . S
H675 C672 0.930 . S
O676 Li616 1.956 . S
O676 Li617 1.970 . S
O676 Li618 1.961 . S
O676 C620 1.325 . S
O677 Li616 1.970 . S
O677 Li617 1.956 . S
O677 Li619 1.961 . S
O677 C626 1.325 . S
O678 Li616 1.961 . S
O678 Li618 1.956 . S
O678 Li619 1.970 . S
O678 C648 1.325 . S
O679 Li617 1.961 . S
O679 Li618 1.970 . S
O679 Li619 1.956 . S
O679 C654 1.325 . S
H680 C622 0.929 . S
H681 C623 0.930 . S
H682 C624 0.930 . S
H683 C625 0.930 . S
H684 C627 0.930 . S
H685 C629 0.929 . S
H686 C630 0.930 . S
H687 C631 0.930 . S
H688 C634 0.930 . S
H689 C637 0.929 . S
H690 C642 0.929 . S
H691 C643 0.930 . S
H692 C650 0.929 . S
H693 C651 0.930 . S
H694 C652 0.930 . S
H695 C653 0.930 . S
H696 C655 0.929 . S
H697 C656 0.930 . S
H698 C657 0.930 . S
H699 C658 0.930 . S
H700 C662 0.929 . S
H701 C664 0.930 . S
H702 C670 0.929 . S
H703 C671 0.930 . S
Li704 N721 1.990 . S
Li704 O764 1.956 . S
Li704 O765 1.970 . S
Li704 O766 1.961 . S
Li705 N729 1.990 . S
Li705 O764 1.970 . S
Li705 O765 1.956 . S
Li705 O767 1.961 . S
Li706 N751 1.990 1_554 S
Li706 O764 1.961 . S
Li706 O766 1.956 . S
Li706 O767 1.970 . S
Li707 N757 1.990 . S
Li707 O765 1.961 . S
Li707 O766 1.970 . S
Li707 O767 1.956 . S
C708 C710 1.348 . S
C708 C711 1.356 . S
C708 O764 1.325 . S
N709 C712 1.314 . S
N709 C713 1.279 . S
C710 C708 1.348 . S
C710 C712 1.353 . S
C710 H768 0.929 . S
C711 C708 1.356 . S
C711 C713 1.358 . S
C711 H769 0.930 . S
C712 N709 1.314 . S
C712 C710 1.353 . S
C712 H770 0.930 . S
C713 N709 1.279 . S
C713 C711 1.358 . S
C713 H771 0.930 . S
C714 C717 1.348 . S
C714 C718 1.356 . S
C714 O765 1.325 . S
C715 N716 1.279 . S
C715 C718 1.358 . S
C715 H772 0.930 . S
N716 C715 1.279 . S
N716 C719 1.314 . S
C717 C714 1.348 . S
C717 C719 1.353 . S
C717 H773 0.929 . S
C718 C714 1.356 . S
C718 C715 1.358 . S
C718 H774 0.930 . S
C719 N716 1.314 . S
C719 C717 1.353 . S
C719 H775 0.930 . S
C720 N721 1.314 . S
C720 C725 1.353 . S
C720 H726 0.930 . S
N721 Li704 1.990 . S
N721 C720 1.314 . S
N721 C723 1.279 . S
C722 C723 1.358 . S
C722 C724 1.356 . S
C722 H776 0.930 . S
C723 N721 1.279 . S
C723 C722 1.358 . S
C723 H727 0.930 . S
C724 C722 1.356 . S
C724 C725 1.348 . S
C725 C720 1.353 . S
C725 C724 1.348 . S
C725 H777 0.929 . S
H726 C720 0.930 . S
H727 C723 0.930 . S
C728 N729 1.314 . S
C728 C730 1.353 . S
C728 H734 0.930 . S
N729 Li705 1.990 . S
N729 C728 1.314 . S
N729 C732 1.279 . S
C730 C728 1.353 . S
C730 C733 1.348 . S
C730 H778 0.929 . S
C731 C732 1.358 . S
C731 C733 1.356 . S
C731 H779 0.930 . S
C732 N729 1.279 . S
C732 C731 1.358 . S
C732 H735 0.930 . S
C733 C730 1.348 . S
C733 C731 1.356 . S
H734 C728 0.930 . S
H735 C732 0.930 . S
C736 C738 1.348 . S
C736 C739 1.356 . S
C736 O766 1.325 1_556 S
N737 C740 1.314 . S
N737 C741 1.279 . S
C738 C736 1.348 . S
C738 C740 1.353 . S
C738 H780 0.929 . S
C739 C736 1.356 . S
C739 C741 1.358 . S
C739 H781 0.930 . S
C740 N737 1.314 . S
C740 C738 1.353 . S
C740 H782 0.930 . S
C741 N737 1.279 . S
C741 C739 1.358 . S
C741 H783 0.930 . S
C742 C743 1.348 . S
C742 C744 1.356 . S
C742 O767 1.325 . S
C743 C742 1.348 . S
C743 C745 1.353 . S
C743 H784 0.929 . S
C744 C742 1.356 . S
C744 C746 1.358 . S
C744 H785 0.930 . S
C745 C743 1.353 . S
C745 N747 1.314 . S
C745 H786 0.930 . S
C746 C744 1.358 . S
C746 N747 1.279 . S
C746 H787 0.930 . S
N747 C745 1.314 . S
N747 C746 1.279 . S
C748 C750 1.353 . S
C748 N751 1.314 . S
C748 H754 0.930 1_556 S
C749 N751 1.279 . S
C749 C752 1.358 . S
C749 H755 0.930 . S
C750 C748 1.353 . S
C750 C753 1.348 . S
C750 H788 0.929 . S
N751 Li706 1.990 1_556 S
N751 C748 1.314 . S
N751 C749 1.279 . S
C752 C749 1.358 . S
C752 C753 1.356 . S
C752 H789 0.930 . S
C753 C750 1.348 . S
C753 C752 1.356 . S
H754 C748 0.930 1_554 S
H755 C749 0.930 . S
C756 N757 1.314 . S
C756 C758 1.353 . S
C756 H762 0.930 . S
N757 Li707 1.990 . S
N757 C756 1.314 . S
N757 C760 1.279 . S
C758 C756 1.353 . S
C758 C761 1.348 . S
C758 H790 0.929 . S
C759 C760 1.358 . S
C759 C761 1.356 . S
C759 H791 0.930 . S
C760 N757 1.279 . S
C760 C759 1.358 . S
C760 H763 0.930 . S
C761 C758 1.348 . S
C761 C759 1.356 . S
H762 C756 0.930 . S
H763 C760 0.930 . S
O764 Li704 1.956 . S
O764 Li705 1.970 . S
O764 Li706 1.961 . S
O764 C708 1.325 . S
O765 Li704 1.970 . S
O765 Li705 1.956 . S
O765 Li707 1.961 . S
O765 C714 1.325 . S
O766 Li704 1.961 . S
O766 Li706 1.956 . S
O766 Li707 1.970 . S
O766 C736 1.325 1_554 S
O767 Li705 1.961 . S
O767 Li706 1.970 . S
O767 Li707 1.956 . S
O767 C742 1.325 . S
H768 C710 0.929 . S
H769 C711 0.930 . S
H770 C712 0.930 . S
H771 C713 0.930 . S
H772 C715 0.930 . S
H773 C717 0.929 . S
H774 C718 0.930 . S
H775 C719 0.930 . S
H776 C722 0.930 . S
H777 C725 0.929 . S
H778 C730 0.929 . S
H779 C731 0.930 . S
H780 C738 0.929 . S
H781 C739 0.930 . S
H782 C740 0.930 . S
H783 C741 0.930 . S
H784 C743 0.929 . S
H785 C744 0.930 . S
H786 C745 0.930 . S
H787 C746 0.930 . S
H788 C750 0.929 . S
H789 C752 0.930 . S
H790 C758 0.929 . S
H791 C759 0.930 . S
Li792 N809 1.990 . S
Li792 O852 1.956 . S
Li792 O853 1.970 . S
Li792 O854 1.961 . S
Li793 N817 1.990 . S
Li793 O852 1.970 . S
Li793 O853 1.956 . S
Li793 O855 1.961 . S
Li794 N839 1.990 . S
Li794 O852 1.961 . S
Li794 O854 1.956 . S
Li794 O855 1.970 . S
Li795 N845 1.990 . S
Li795 O853 1.961 . S
Li795 O854 1.970 . S
Li795 O855 1.956 . S
C796 C798 1.348 . S
C796 C799 1.356 . S
C796 O852 1.325 . S
N797 C800 1.314 . S
N797 C801 1.279 . S
C798 C796 1.348 . S
C798 C800 1.353 . S
C798 H856 0.929 . S
C799 C796 1.356 . S
C799 C801 1.358 . S
C799 H857 0.930 . S
C800 N797 1.314 . S
C800 C798 1.353 . S
C800 H858 0.930 . S
C801 N797 1.279 . S
C801 C799 1.358 . S
C801 H859 0.930 . S
C802 C805 1.348 . S
C802 C806 1.356 . S
C802 O853 1.325 . S
C803 N804 1.279 . S
C803 C806 1.358 . S
C803 H860 0.930 . S
N804 C803 1.279 . S
N804 C807 1.314 . S
C805 C802 1.348 . S
C805 C807 1.353 . S
C805 H861 0.929 . S
C806 C802 1.356 . S
C806 C803 1.358 . S
C806 H862 0.930 . S
C807 N804 1.314 . S
C807 C805 1.353 . S
C807 H863 0.930 . S
C808 N809 1.314 . S
C808 C813 1.353 . S
C808 H814 0.930 . S
N809 Li792 1.990 . S
N809 C808 1.314 . S
N809 C811 1.279 . S
C810 C811 1.358 . S
C810 C812 1.356 . S
C810 H864 0.930 . S
C811 N809 1.279 . S
C811 C810 1.358 . S
C811 H815 0.930 . S
C812 C810 1.356 . S
C812 C813 1.348 . S
C813 C808 1.353 . S
C813 C812 1.348 . S
C813 H865 0.929 . S
H814 C808 0.930 . S
H815 C811 0.930 . S
C816 N817 1.314 . S
C816 C818 1.353 . S
C816 H822 0.930 . S
N817 Li793 1.990 . S
N817 C816 1.314 . S
N817 C820 1.279 . S
C818 C816 1.353 . S
C818 C821 1.348 . S
C818 H866 0.929 . S
C819 C820 1.358 . S
C819 C821 1.356 . S
C819 H867 0.930 . S
C820 N817 1.279 . S
C820 C819 1.358 . S
C820 H823 0.930 . S
C821 C818 1.348 . S
C821 C819 1.356 . S
H822 C816 0.930 . S
H823 C820 0.930 . S
C824 C826 1.348 . S
C824 C827 1.356 . S
C824 O854 1.325 . S
N825 C828 1.314 . S
N825 C829 1.279 . S
C826 C824 1.348 . S
C826 C828 1.353 . S
C826 H868 0.929 . S
C827 C824 1.356 . S
C827 C829 1.358 . S
C827 H869 0.930 . S
C828 N825 1.314 . S
C828 C826 1.353 . S
C828 H870 0.930 . S
C829 N825 1.279 . S
C829 C827 1.358 . S
C829 H871 0.930 . S
C830 C831 1.348 . S
C830 C832 1.356 . S
C830 O855 1.325 . S
C831 C830 1.348 . S
C831 C833 1.353 . S
C831 H872 0.929 . S
C832 C830 1.356 . S
C832 C834 1.358 . S
C832 H873 0.930 . S
C833 C831 1.353 . S
C833 N835 1.314 . S
C833 H874 0.930 . S
C834 C832 1.358 . S
C834 N835 1.279 . S
C834 H875 0.930 . S
N835 C833 1.314 . S
N835 C834 1.279 . S
C836 C838 1.353 . S
C836 N839 1.314 . S
C836 H842 0.930 . S
C837 N839 1.279 . S
C837 C840 1.358 . S
C837 H843 0.930 . S
C838 C836 1.353 . S
C838 C841 1.348 . S
C838 H876 0.929 . S
N839 Li794 1.990 . S
N839 C836 1.314 . S
N839 C837 1.279 . S
C840 C837 1.358 . S
C840 C841 1.356 . S
C840 H877 0.930 . S
C841 C838 1.348 . S
C841 C840 1.356 . S
H842 C836 0.930 . S
H843 C837 0.930 . S
C844 N845 1.314 . S
C844 C846 1.353 . S
C844 H850 0.930 . S
N845 Li795 1.990 . S
N845 C844 1.314 . S
N845 C848 1.279 . S
C846 C844 1.353 . S
C846 C849 1.348 . S
C846 H878 0.929 . S
C847 C848 1.358 . S
C847 C849 1.356 . S
C847 H879 0.930 . S
C848 N845 1.279 . S
C848 C847 1.358 . S
C848 H851 0.930 . S
C849 C846 1.348 . S
C849 C847 1.356 . S
H850 C844 0.930 . S
H851 C848 0.930 . S
O852 Li792 1.956 . S
O852 Li793 1.970 . S
O852 Li794 1.961 . S
O852 C796 1.325 . S
O853 Li792 1.970 . S
O853 Li793 1.956 . S
O853 Li795 1.961 . S
O853 C802 1.325 . S
O854 Li792 1.961 . S
O854 Li794 1.956 . S
O854 Li795 1.970 . S
O854 C824 1.325 . S
O855 Li793 1.961 . S
O855 Li794 1.970 . S
O855 Li795 1.956 . S
O855 C830 1.325 . S
H856 C798 0.929 . S
H857 C799 0.930 . S
H858 C800 0.930 . S
H859 C801 0.930 . S
H860 C803 0.930 . S
H861 C805 0.929 . S
H862 C806 0.930 . S
H863 C807 0.930 . S
H864 C810 0.930 . S
H865 C813 0.929 . S
H866 C818 0.929 . S
H867 C819 0.930 . S
H868 C826 0.929 . S
H869 C827 0.930 . S
H870 C828 0.930 . S
H871 C829 0.930 . S
H872 C831 0.929 . S
H873 C832 0.930 . S
H874 C833 0.930 . S
H875 C834 0.930 . S
H876 C838 0.929 . S
H877 C840 0.930 . S
H878 C846 0.929 . S
H879 C847 0.930 . S
Li880 N897 1.990 . S
Li880 O940 1.956 . S
Li880 O941 1.970 . S
Li880 O942 1.961 . S
Li881 N905 1.990 . S
Li881 O940 1.970 . S
Li881 O941 1.956 . S
Li881 O943 1.961 . S
Li882 N927 1.990 . S
Li882 O940 1.961 . S
Li882 O942 1.956 . S
Li882 O943 1.970 . S
Li883 N933 1.990 . S
Li883 O941 1.961 . S
Li883 O942 1.970 . S
Li883 O943 1.956 . S
C884 C886 1.348 . S
C884 C887 1.356 . S
C884 O940 1.325 . S
N885 C888 1.314 . S
N885 C889 1.279 . S
C886 C884 1.348 . S
C886 C888 1.353 . S
C886 H944 0.929 . S
C887 C884 1.356 . S
C887 C889 1.358 . S
C887 H945 0.930 . S
C888 N885 1.314 . S
C888 C886 1.353 . S
C888 H946 0.930 . S
C889 N885 1.279 . S
C889 C887 1.358 . S
C889 H947 0.930 . S
C890 C893 1.348 . S
C890 C894 1.356 . S
C890 O941 1.325 . S
C891 N892 1.279 . S
C891 C894 1.358 . S
C891 H948 0.930 . S
N892 C891 1.279 . S
N892 C895 1.314 . S
C893 C890 1.348 . S
C893 C895 1.353 . S
C893 H949 0.929 . S
C894 C890 1.356 . S
C894 C891 1.358 . S
C894 H950 0.930 . S
C895 N892 1.314 . S
C895 C893 1.353 . S
C895 H951 0.930 . S
C896 N897 1.314 . S
C896 C901 1.353 . S
C896 H902 0.930 . S
N897 Li880 1.990 . S
N897 C896 1.314 . S
N897 C899 1.279 . S
C898 C899 1.358 . S
C898 C900 1.356 . S
C898 H952 0.930 . S
C899 N897 1.279 . S
C899 C898 1.358 . S
C899 H903 0.930 . S
C900 C898 1.356 . S
C900 C901 1.348 . S
C901 C896 1.353 . S
C901 C900 1.348 . S
C901 H953 0.929 . S
H902 C896 0.930 . S
H903 C899 0.930 . S
C904 N905 1.314 . S
C904 C906 1.353 . S
C904 H910 0.930 . S
N905 Li881 1.990 . S
N905 C904 1.314 . S
N905 C908 1.279 . S
C906 C904 1.353 . S
C906 C909 1.348 . S
C906 H954 0.929 . S
C907 C908 1.358 . S
C907 C909 1.356 . S
C907 H955 0.930 . S
C908 N905 1.279 . S
C908 C907 1.358 . S
C908 H911 0.930 . S
C909 C906 1.348 . S
C909 C907 1.356 . S
H910 C904 0.930 . S
H911 C908 0.930 . S
C912 C914 1.348 . S
C912 C915 1.356 . S
C912 O942 1.325 . S
N913 C916 1.314 . S
N913 C917 1.279 . S
C914 C912 1.348 . S
C914 C916 1.353 . S
C914 H956 0.929 . S
C915 C912 1.356 . S
C915 C917 1.358 . S
C915 H957 0.930 . S
C916 N913 1.314 . S
C916 C914 1.353 . S
C916 H958 0.930 . S
C917 N913 1.279 . S
C917 C915 1.358 . S
C917 H959 0.930 . S
C918 C919 1.348 . S
C918 C920 1.356 . S
C918 O943 1.325 . S
C919 C918 1.348 . S
C919 C921 1.353 . S
C919 H960 0.929 . S
C920 C918 1.356 . S
C920 C922 1.358 . S
C920 H961 0.930 . S
C921 C919 1.353 . S
C921 N923 1.314 . S
C921 H962 0.930 . S
C922 C920 1.358 . S
C922 N923 1.279 . S
C922 H963 0.930 . S
N923 C921 1.314 . S
N923 C922 1.279 . S
C924 C926 1.353 . S
C924 N927 1.314 . S
C924 H930 0.930 . S
C925 N927 1.279 . S
C925 C928 1.358 . S
C925 H931 0.930 . S
C926 C924 1.353 . S
C926 C929 1.348 . S
C926 H964 0.929 . S
N927 Li882 1.990 . S
N927 C924 1.314 . S
N927 C925 1.279 . S
C928 C925 1.358 . S
C928 C929 1.356 . S
C928 H965 0.930 . S
C929 C926 1.348 . S
C929 C928 1.356 . S
H930 C924 0.930 . S
H931 C925 0.930 . S
C932 N933 1.314 . S
C932 C934 1.353 . S
C932 H938 0.930 . S
N933 Li883 1.990 . S
N933 C932 1.314 . S
N933 C936 1.279 . S
C934 C932 1.353 . S
C934 C937 1.348 . S
C934 H966 0.929 . S
C935 C936 1.358 . S
C935 C937 1.356 . S
C935 H967 0.930 . S
C936 N933 1.279 . S
C936 C935 1.358 . S
C936 H939 0.930 . S
C937 C934 1.348 . S
C937 C935 1.356 . S
H938 C932 0.930 . S
H939 C936 0.930 . S
O940 Li880 1.956 . S
O940 Li881 1.970 . S
O940 Li882 1.961 . S
O940 C884 1.325 . S
O941 Li880 1.970 . S
O941 Li881 1.956 . S
O941 Li883 1.961 . S
O941 C890 1.325 . S
O942 Li880 1.961 . S
O942 Li882 1.956 . S
O942 Li883 1.970 . S
O942 C912 1.325 . S
O943 Li881 1.961 . S
O943 Li882 1.970 . S
O943 Li883 1.956 . S
O943 C918 1.325 . S
H944 C886 0.929 . S
H945 C887 0.930 . S
H946 C888 0.930 . S
H947 C889 0.930 . S
H948 C891 0.930 . S
H949 C893 0.929 . S
H950 C894 0.930 . S
H951 C895 0.930 . S
H952 C898 0.930 . S
H953 C901 0.929 . S
H954 C906 0.929 . S
H955 C907 0.930 . S
H956 C914 0.929 . S
H957 C915 0.930 . S
H958 C916 0.930 . S
H959 C917 0.930 . S
H960 C919 0.929 . S
H961 C920 0.930 . S
H962 C921 0.930 . S
H963 C922 0.930 . S
H964 C926 0.929 . S
H965 C928 0.930 . S
H966 C934 0.929 . S
H967 C935 0.930 . S
Li968 N985 1.990 . S
Li968 O1028 1.956 . S
Li968 O1029 1.970 . S
Li968 O1030 1.961 . S
Li969 N993 1.990 . S
Li969 O1028 1.970 . S
Li969 O1029 1.956 . S
Li969 O1031 1.961 . S
Li970 N1015 1.990 . S
Li970 O1028 1.961 . S
Li970 O1030 1.956 . S
Li970 O1031 1.970 . S
Li971 N1021 1.990 1_554 S
Li971 O1029 1.961 . S
Li971 O1030 1.970 . S
Li971 O1031 1.956 . S
C972 C974 1.348 . S
C972 C975 1.356 . S
C972 O1028 1.325 . S
N973 C976 1.314 . S
N973 C977 1.279 . S
C974 C972 1.348 . S
C974 C976 1.353 . S
C974 H1032 0.929 . S
C975 C972 1.356 . S
C975 C977 1.358 . S
C975 H1033 0.930 . S
C976 N973 1.314 . S
C976 C974 1.353 . S
C976 H1034 0.930 . S
C977 N973 1.279 . S
C977 C975 1.358 . S
C977 H1035 0.930 . S
C978 C981 1.348 . S
C978 C982 1.356 . S
C978 O1029 1.325 . S
C979 N980 1.279 . S
C979 C982 1.358 . S
C979 H1036 0.930 . S
N980 C979 1.279 . S
N980 C983 1.314 . S
C981 C978 1.348 . S
C981 C983 1.353 . S
C981 H1037 0.929 . S
C982 C978 1.356 . S
C982 C979 1.358 . S
C982 H1038 0.930 . S
C983 N980 1.314 . S
C983 C981 1.353 . S
C983 H1039 0.930 . S
C984 N985 1.314 . S
C984 C989 1.353 . S
C984 H990 0.930 . S
N985 Li968 1.990 . S
N985 C984 1.314 . S
N985 C987 1.279 . S
C986 C987 1.358 . S
C986 C988 1.356 . S
C986 H1040 0.930 . S
C987 N985 1.279 . S
C987 C986 1.358 . S
C987 H991 0.930 . S
C988 C986 1.356 . S
C988 C989 1.348 . S
C989 C984 1.353 . S
C989 C988 1.348 . S
C989 H1041 0.929 . S
H990 C984 0.930 . S
H991 C987 0.930 . S
C992 N993 1.314 . S
C992 C994 1.353 . S
C992 H998 0.930 . S
N993 Li969 1.990 . S
N993 C992 1.314 . S
N993 C996 1.279 . S
C994 C992 1.353 . S
C994 C997 1.348 . S
C994 H1042 0.929 . S
C995 C996 1.358 . S
C995 C997 1.356 . S
C995 H1043 0.930 . S
C996 N993 1.279 . S
C996 C995 1.358 . S
C996 H999 0.930 . S
C997 C994 1.348 . S
C997 C995 1.356 . S
H998 C992 0.930 . S
H999 C996 0.930 . S
C1000 C1002 1.348 . S
C1000 C1003 1.356 . S
C1000 O1030 1.325 . S
N1001 C1004 1.314 . S
N1001 C1005 1.279 . S
C1002 C1000 1.348 . S
C1002 C1004 1.353 . S
C1002 H1044 0.929 . S
C1003 C1000 1.356 . S
C1003 C1005 1.358 . S
C1003 H1045 0.930 . S
C1004 N1001 1.314 . S
C1004 C1002 1.353 . S
C1004 H1046 0.930 . S
C1005 N1001 1.279 . S
C1005 C1003 1.358 . S
C1005 H1047 0.930 . S
C1006 C1007 1.348 . S
C1006 C1008 1.356 . S
C1006 O1031 1.325 1_556 S
C1007 C1006 1.348 . S
C1007 C1009 1.353 . S
C1007 H1048 0.929 . S
C1008 C1006 1.356 . S
C1008 C1010 1.358 . S
C1008 H1049 0.930 . S
C1009 C1007 1.353 . S
C1009 N1011 1.314 . S
C1009 H1050 0.930 . S
C1010 C1008 1.358 . S
C1010 N1011 1.279 . S
C1010 H1051 0.930 . S
N1011 C1009 1.314 . S
N1011 C1010 1.279 . S
C1012 C1014 1.353 . S
C1012 N1015 1.314 . S
C1012 H1018 0.930 . S
C1013 N1015 1.279 . S
C1013 C1016 1.358 . S
C1013 H1019 0.930 . S
C1014 C1012 1.353 . S
C1014 C1017 1.348 . S
C1014 H1052 0.929 . S
N1015 Li970 1.990 . S
N1015 C1012 1.314 . S
N1015 C1013 1.279 . S
C1016 C1013 1.358 . S
C1016 C1017 1.356 . S
C1016 H1053 0.930 . S
C1017 C1014 1.348 . S
C1017 C1016 1.356 . S
H1018 C1012 0.930 . S
H1019 C1013 0.930 . S
C1020 N1021 1.314 . S
C1020 C1022 1.353 . S
C1020 H1026 0.930 1_556 S
N1021 Li971 1.990 1_556 S
N1021 C1020 1.314 . S
N1021 C1024 1.279 . S
C1022 C1020 1.353 . S
C1022 C1025 1.348 . S
C1022 H1054 0.929 . S
C1023 C1024 1.358 . S
C1023 C1025 1.356 . S
C1023 H1055 0.930 . S
C1024 N1021 1.279 . S
C1024 C1023 1.358 . S
C1024 H1027 0.930 . S
C1025 C1022 1.348 . S
C1025 C1023 1.356 . S
H1026 C1020 0.930 1_554 S
H1027 C1024 0.930 . S
O1028 Li968 1.956 . S
O1028 Li969 1.970 . S
O1028 Li970 1.961 . S
O1028 C972 1.325 . S
O1029 Li968 1.970 . S
O1029 Li969 1.956 . S
O1029 Li971 1.961 . S
O1029 C978 1.325 . S
O1030 Li968 1.961 . S
O1030 Li970 1.956 . S
O1030 Li971 1.970 . S
O1030 C1000 1.325 . S
O1031 Li969 1.961 . S
O1031 Li970 1.970 . S
O1031 Li971 1.956 . S
O1031 C1006 1.325 1_554 S
H1032 C974 0.929 . S
H1033 C975 0.930 . S
H1034 C976 0.930 . S
H1035 C977 0.930 . S
H1036 C979 0.930 . S
H1037 C981 0.929 . S
H1038 C982 0.930 . S
H1039 C983 0.930 . S
H1040 C986 0.930 . S
H1041 C989 0.929 . S
H1042 C994 0.929 . S
H1043 C995 0.930 . S
H1044 C1002 0.929 . S
H1045 C1003 0.930 . S
H1046 C1004 0.930 . S
H1047 C1005 0.930 . S
H1048 C1007 0.929 . S
H1049 C1008 0.930 . S
H1050 C1009 0.930 . S
H1051 C1010 0.930 . S
H1052 C1014 0.929 . S
H1053 C1016 0.930 . S
H1054 C1022 0.929 . S
H1055 C1023 0.930 . S
H1056 C1064 0.950 . S
H1057 C1069 0.950 . S
H1058 C1066 0.950 . S
H1059 C1068 0.950 . S
H1060 C1070 0.950 . S
H1061 C1072 0.950 . S
H1062 C1074 0.950 . S
H1063 C1075 0.950 . S
C1064 H1056 0.950 . S
C1064 C1065 1.386 . S
C1064 C1066 1.391 . S
C1065 C1064 1.386 . S
C1065 C1069 1.393 . S
C1066 H1058 0.950 . S
C1066 C1064 1.391 . S
C1066 C1067 1.400 . S
C1067 C1066 1.400 . S
C1067 C1068 1.398 . S
C1067 C1073 1.491 . S
C1068 H1059 0.950 . S
C1068 C1067 1.398 . S
C1068 C1069 1.391 . S
C1069 H1057 0.950 . S
C1069 C1065 1.393 . S
C1069 C1068 1.391 . S
C1070 H1060 0.950 . S
C1070 C1071 1.386 . S
C1070 C1072 1.391 . S
C1071 C1070 1.386 . S
C1071 C1075 1.393 . S
C1072 H1061 0.950 . S
C1072 C1070 1.391 . S
C1072 C1073 1.400 . S
C1073 C1067 1.491 . S
C1073 C1072 1.400 . S
C1073 C1074 1.398 . S
C1074 H1062 0.950 . S
C1074 C1073 1.398 . S
C1074 C1075 1.391 . S
C1075 H1063 0.950 . S
C1075 C1071 1.393 . S
C1075 C1074 1.391 . S
H1076 C1084 0.950 . S
H1077 C1089 0.950 . S
H1078 C1086 0.950 . S
H1079 C1088 0.950 . S
H1080 C1090 0.950 . S
H1081 C1092 0.950 . S
H1082 C1094 0.950 . S
H1083 C1095 0.950 . S
C1084 H1076 0.950 . S
C1084 C1085 1.386 . S
C1084 C1086 1.391 . S
C1085 C1084 1.386 . S
C1085 C1089 1.393 . S
C1086 H1078 0.950 . S
C1086 C1084 1.391 . S
C1086 C1087 1.400 . S
C1087 C1086 1.400 . S
C1087 C1088 1.398 . S
C1087 C1093 1.491 1_655 S
C1088 H1079 0.950 . S
C1088 C1087 1.398 . S
C1088 C1089 1.391 . S
C1089 H1077 0.950 . S
C1089 C1085 1.393 . S
C1089 C1088 1.391 . S
C1090 H1080 0.950 . S
C1090 C1091 1.386 . S
C1090 C1092 1.391 . S
C1091 C1090 1.386 . S
C1091 C1095 1.393 . S
C1092 H1081 0.950 . S
C1092 C1090 1.391 . S
C1092 C1093 1.400 . S
C1093 C1087 1.491 1_455 S
C1093 C1092 1.400 . S
C1093 C1094 1.398 . S
C1094 H1082 0.950 . S
C1094 C1093 1.398 . S
C1094 C1095 1.391 . S
C1095 H1083 0.950 . S
C1095 C1091 1.393 . S
C1095 C1094 1.391 . S
H1096 C1104 0.950 . S
H1097 C1109 0.950 . S
H1098 C1106 0.950 . S
H1099 C1108 0.950 . S
H1100 C1110 0.950 . S
H1101 C1112 0.950 . S
H1102 C1114 0.950 . S
H1103 C1115 0.950 . S
C1104 H1096 0.950 . S
C1104 C1105 1.386 . S
C1104 C1106 1.391 . S
C1105 C1104 1.386 . S
C1105 C1109 1.393 1_556 S
C1106 H1098 0.950 . S
C1106 C1104 1.391 . S
C1106 C1107 1.400 . S
C1107 C1106 1.400 . S
C1107 C1108 1.398 1_556 S
C1107 C1113 1.491 1_566 S
C1108 H1099 0.950 . S
C1108 C1107 1.398 1_554 S
C1108 C1109 1.391 . S
C1109 H1097 0.950 . S
C1109 C1105 1.393 1_554 S
C1109 C1108 1.391 . S
C1110 H1100 0.950 . S
C1110 C1111 1.386 . S
C1110 C1112 1.391 . S
C1111 C1110 1.386 . S
C1111 C1115 1.393 1_554 S
C1112 H1101 0.950 . S
C1112 C1110 1.391 . S
C1112 C1113 1.400 . S
C1113 C1107 1.491 1_544 S
C1113 C1112 1.400 . S
C1113 C1114 1.398 1_554 S
C1114 H1102 0.950 . S
C1114 C1113 1.398 1_556 S
C1114 C1115 1.391 . S
C1115 H1103 0.950 . S
C1115 C1111 1.393 1_556 S
C1115 C1114 1.391 . S
H1116 C1124 0.950 . S
H1117 C1129 0.950 . S
H1118 C1126 0.950 . S
H1119 C1128 0.950 . S
H1120 C1130 0.950 . S
H1121 C1132 0.950 . S
H1122 C1134 0.950 . S
H1123 C1135 0.950 . S
C1124 H1116 0.950 . S
C1124 C1125 1.386 . S
C1124 C1126 1.391 . S
C1125 C1124 1.386 . S
C1125 C1129 1.393 . S
C1126 H1118 0.950 . S
C1126 C1124 1.391 . S
C1126 C1127 1.400 . S
C1127 C1126 1.400 . S
C1127 C1128 1.398 . S
C1127 C1133 1.491 . S
C1128 H1119 0.950 . S
C1128 C1127 1.398 . S
C1128 C1129 1.391 . S
C1129 H1117 0.950 . S
C1129 C1125 1.393 . S
C1129 C1128 1.391 . S
C1130 H1120 0.950 . S
C1130 C1131 1.386 . S
C1130 C1132 1.391 . S
C1131 C1130 1.386 . S
C1131 C1135 1.393 . S
C1132 H1121 0.950 . S
C1132 C1130 1.391 . S
C1132 C1133 1.400 . S
C1133 C1127 1.491 . S
C1133 C1132 1.400 . S
C1133 C1134 1.398 . S
C1134 H1122 0.950 . S
C1134 C1133 1.398 . S
C1134 C1135 1.391 . S
C1135 H1123 0.950 . S
C1135 C1131 1.393 . S
C1135 C1134 1.391 . S
H1136 C1144 0.950 . S
H1137 C1149 0.950 . S
H1138 C1146 0.950 . S
H1139 C1148 0.950 . S
H1140 C1150 0.950 . S
H1141 C1152 0.950 . S
H1142 C1154 0.950 . S
H1143 C1155 0.950 . S
C1144 H1136 0.950 . S
C1144 C1145 1.386 . S
C1144 C1146 1.391 . S
C1145 C1144 1.386 . S
C1145 C1149 1.393 . S
C1146 H1138 0.950 . S
C1146 C1144 1.391 . S
C1146 C1147 1.400 . S
C1147 C1146 1.400 . S
C1147 C1148 1.398 . S
C1147 C1153 1.491 1_655 S
C1148 H1139 0.950 . S
C1148 C1147 1.398 . S
C1148 C1149 1.391 . S
C1149 H1137 0.950 . S
C1149 C1145 1.393 . S
C1149 C1148 1.391 . S
C1150 H1140 0.950 . S
C1150 C1151 1.386 . S
C1150 C1152 1.391 . S
C1151 C1150 1.386 . S
C1151 C1155 1.393 . S
C1152 H1141 0.950 . S
C1152 C1150 1.391 . S
C1152 C1153 1.400 . S
C1153 C1147 1.491 1_455 S
C1153 C1152 1.400 . S
C1153 C1154 1.398 . S
C1154 H1142 0.950 . S
C1154 C1153 1.398 . S
C1154 C1155 1.391 . S
C1155 H1143 0.950 . S
C1155 C1151 1.393 . S
C1155 C1154 1.391 . S
H1156 C1164 0.950 . S
H1157 C1169 0.950 . S
H1158 C1166 0.950 . S
H1159 C1168 0.950 . S
H1160 C1170 0.950 . S
H1161 C1172 0.950 . S
H1162 C1174 0.950 . S
H1163 C1175 0.950 . S
C1164 H1156 0.950 . S
C1164 C1165 1.386 . S
C1164 C1166 1.391 . S
C1165 C1164 1.386 . S
C1165 C1169 1.393 . S
C1166 H1158 0.950 . S
C1166 C1164 1.391 . S
C1166 C1167 1.400 . S
C1167 C1166 1.400 . S
C1167 C1168 1.398 . S
C1167 C1173 1.491 1_564 S
C1168 H1159 0.950 . S
C1168 C1167 1.398 . S
C1168 C1169 1.391 . S
C1169 H1157 0.950 . S
C1169 C1165 1.393 . S
C1169 C1168 1.391 . S
C1170 H1160 0.950 . S
C1170 C1171 1.386 . S
C1170 C1172 1.391 . S
C1171 C1170 1.386 . S
C1171 C1175 1.393 . S
C1172 H1161 0.950 . S
C1172 C1170 1.391 . S
C1172 C1173 1.400 . S
C1173 C1167 1.491 1_546 S
C1173 C1172 1.400 . S
C1173 C1174 1.398 . S
C1174 H1162 0.950 . S
C1174 C1173 1.398 . S
C1174 C1175 1.391 . S
C1175 H1163 0.950 . S
C1175 C1171 1.393 . S
C1175 C1174 1.391 . S
H1176 C1184 0.950 . S
H1177 C1189 0.950 . S
H1178 C1186 0.950 1_554 S
H1179 C1188 0.950 . S
H1180 C1190 0.950 . S
H1181 C1192 0.950 1_556 S
H1182 C1194 0.950 . S
H1183 C1195 0.950 . S
C1184 H1176 0.950 . S
C1184 C1185 1.386 . S
C1184 C1186 1.391 . S
C1185 C1184 1.386 . S
C1185 C1189 1.393 . S
C1186 H1178 0.950 1_556 S
C1186 C1184 1.391 . S
C1186 C1187 1.400 . S
C1187 C1186 1.400 . S
C1187 C1188 1.398 . S
C1187 C1193 1.491 1_556 S
C1188 H1179 0.950 . S
C1188 C1187 1.398 . S
C1188 C1189 1.391 . S
C1189 H1177 0.950 . S
C1189 C1185 1.393 . S
C1189 C1188 1.391 . S
C1190 H1180 0.950 . S
C1190 C1191 1.386 . S
C1190 C1192 1.391 . S
C1191 C1190 1.386 . S
C1191 C1195 1.393 . S
C1192 H1181 0.950 1_554 S
C1192 C1190 1.391 . S
C1192 C1193 1.400 . S
C1193 C1187 1.491 1_554 S
C1193 C1192 1.400 . S
C1193 C1194 1.398 . S
C1194 H1182 0.950 . S
C1194 C1193 1.398 . S
C1194 C1195 1.391 . S
C1195 H1183 0.950 . S
C1195 C1191 1.393 . S
C1195 C1194 1.391 . S
H1196 C1204 0.950 . S
H1197 C1209 0.950 . S
H1198 C1206 0.950 . S
H1199 C1208 0.950 . S
H1200 C1210 0.950 . S
H1201 C1212 0.950 . S
H1202 C1214 0.950 . S
H1203 C1215 0.950 . S
C1204 H1196 0.950 . S
C1204 C1205 1.386 . S
C1204 C1206 1.391 . S
C1205 C1204 1.386 . S
C1205 C1209 1.393 . S
C1206 H1198 0.950 . S
C1206 C1204 1.391 . S
C1206 C1207 1.400 . S
C1207 C1206 1.400 . S
C1207 C1208 1.398 . S
C1207 C1213 1.491 . S
C1208 H1199 0.950 . S
C1208 C1207 1.398 . S
C1208 C1209 1.391 . S
C1209 H1197 0.950 . S
C1209 C1205 1.393 . S
C1209 C1208 1.391 . S
C1210 H1200 0.950 . S
C1210 C1211 1.386 . S
C1210 C1212 1.391 . S
C1211 C1210 1.386 . S
C1211 C1215 1.393 . S
C1212 H1201 0.950 . S
C1212 C1210 1.391 . S
C1212 C1213 1.400 . S
C1213 C1207 1.491 . S
C1213 C1212 1.400 . S
C1213 C1214 1.398 . S
C1214 H1202 0.950 . S
C1214 C1213 1.398 . S
C1214 C1215 1.391 . S
C1215 H1203 0.950 . S
C1215 C1211 1.393 . S
C1215 C1214 1.391 . S
H1216 C1224 0.950 . S
H1217 C1229 0.950 . S
H1218 C1226 0.950 . S
H1219 C1228 0.950 . S
H1220 C1230 0.950 . S
H1221 C1232 0.950 . S
H1222 C1234 0.950 . S
H1223 C1235 0.950 . S
C1224 H1216 0.950 . S
C1224 C1225 1.386 . S
C1224 C1226 1.391 . S
C1225 C1224 1.386 . S
C1225 C1229 1.393 . S
C1226 H1218 0.950 . S
C1226 C1224 1.391 . S
C1226 C1227 1.400 . S
C1227 C1226 1.400 . S
C1227 C1228 1.398 . S
C1227 C1233 1.491 . S
C1228 H1219 0.950 . S
C1228 C1227 1.398 . S
C1228 C1229 1.391 . S
C1229 H1217 0.950 . S
C1229 C1225 1.393 . S
C1229 C1228 1.391 . S
C1230 H1220 0.950 . S
C1230 C1231 1.386 . S
C1230 C1232 1.391 . S
C1231 C1230 1.386 . S
C1231 C1235 1.393 . S
C1232 H1221 0.950 . S
C1232 C1230 1.391 . S
C1232 C1233 1.400 . S
C1233 C1227 1.491 . S
C1233 C1232 1.400 . S
C1233 C1234 1.398 . S
C1234 H1222 0.950 . S
C1234 C1233 1.398 . S
C1234 C1235 1.391 . S
C1235 H1223 0.950 . S
C1235 C1231 1.393 . S
C1235 C1234 1.391 . S
H1236 C1244 0.950 . S
H1237 C1249 0.950 . S
H1238 C1246 0.950 . S
H1239 C1248 0.950 1_556 S
H1240 C1250 0.950 . S
H1241 C1252 0.950 . S
H1242 C1254 0.950 1_554 S
H1243 C1255 0.950 . S
C1244 H1236 0.950 . S
C1244 C1245 1.386 . S
C1244 C1246 1.391 . S
C1245 C1244 1.386 . S
C1245 C1249 1.393 . S
C1246 H1238 0.950 . S
C1246 C1244 1.391 . S
C1246 C1247 1.400 . S
C1247 C1246 1.400 . S
C1247 C1248 1.398 . S
C1247 C1253 1.491 1_554 S
C1248 H1239 0.950 1_554 S
C1248 C1247 1.398 . S
C1248 C1249 1.391 . S
C1249 H1237 0.950 . S
C1249 C1245 1.393 . S
C1249 C1248 1.391 . S
C1250 H1240 0.950 . S
C1250 C1251 1.386 . S
C1250 C1252 1.391 . S
C1251 C1250 1.386 . S
C1251 C1255 1.393 . S
C1252 H1241 0.950 . S
C1252 C1250 1.391 . S
C1252 C1253 1.400 . S
C1253 C1247 1.491 1_556 S
C1253 C1252 1.400 . S
C1253 C1254 1.398 . S
C1254 H1242 0.950 1_556 S
C1254 C1253 1.398 . S
C1254 C1255 1.391 . S
C1255 H1243 0.950 . S
C1255 C1251 1.393 . S
C1255 C1254 1.391 . S
H1256 C1264 0.950 . S
H1257 C1269 0.950 . S
H1258 C1266 0.950 . S
H1259 C1268 0.950 . S
H1260 C1270 0.950 . S
H1261 C1272 0.950 . S
H1262 C1274 0.950 . S
H1263 C1275 0.950 . S
C1264 H1256 0.950 . S
C1264 C1265 1.386 . S
C1264 C1266 1.391 . S
C1265 C1264 1.386 . S
C1265 C1269 1.393 . S
C1266 H1258 0.950 . S
C1266 C1264 1.391 . S
C1266 C1267 1.400 . S
C1267 C1266 1.400 . S
C1267 C1268 1.398 . S
C1267 C1273 1.491 . S
C1268 H1259 0.950 . S
C1268 C1267 1.398 . S
C1268 C1269 1.391 . S
C1269 H1257 0.950 . S
C1269 C1265 1.393 . S
C1269 C1268 1.391 . S
C1270 H1260 0.950 . S
C1270 C1271 1.386 . S
C1270 C1272 1.391 . S
C1271 C1270 1.386 . S
C1271 C1275 1.393 . S
C1272 H1261 0.950 . S
C1272 C1270 1.391 . S
C1272 C1273 1.400 . S
C1273 C1267 1.491 . S
C1273 C1272 1.400 . S
C1273 C1274 1.398 . S
C1274 H1262 0.950 . S
C1274 C1273 1.398 . S
C1274 C1275 1.391 . S
C1275 H1263 0.950 . S
C1275 C1271 1.393 . S
C1275 C1274 1.391 . S
H1276 C1284 0.950 . S
H1277 C1289 0.950 . S
H1278 C1286 0.950 . S
H1279 C1288 0.950 . S
H1280 C1290 0.950 . S
H1281 C1292 0.950 . S
H1282 C1294 0.950 . S
H1283 C1295 0.950 . S
C1284 H1276 0.950 . S
C1284 C1285 1.386 . S
C1284 C1286 1.391 . S
C1285 C1284 1.386 . S
C1285 C1289 1.393 . S
C1286 H1278 0.950 . S
C1286 C1284 1.391 . S
C1286 C1287 1.400 . S
C1287 C1286 1.400 . S
C1287 C1288 1.398 . S
C1287 C1293 1.491 . S
C1288 H1279 0.950 . S
C1288 C1287 1.398 . S
C1288 C1289 1.391 . S
C1289 H1277 0.950 . S
C1289 C1285 1.393 . S
C1289 C1288 1.391 . S
C1290 H1280 0.950 . S
C1290 C1291 1.386 . S
C1290 C1292 1.391 . S
C1291 C1290 1.386 . S
C1291 C1295 1.393 . S
C1292 H1281 0.950 . S
C1292 C1290 1.391 . S
C1292 C1293 1.400 . S
C1293 C1287 1.491 . S
C1293 C1292 1.400 . S
C1293 C1294 1.398 . S
C1294 H1282 0.950 . S
C1294 C1293 1.398 . S
C1294 C1295 1.391 . S
C1295 H1283 0.950 . S
C1295 C1291 1.393 . S
C1295 C1294 1.391 . S
H1296 C1304 0.950 . S
H1297 C1309 0.950 . S
H1298 C1306 0.950 . S
H1299 C1308 0.950 . S
H1300 C1310 0.950 . S
H1301 C1312 0.950 . S
H1302 C1314 0.950 . S
H1303 C1315 0.950 . S
C1304 H1296 0.950 . S
C1304 C1305 1.386 . S
C1304 C1306 1.391 . S
C1305 C1304 1.386 . S
C1305 C1309 1.393 . S
C1306 H1298 0.950 . S
C1306 C1304 1.391 . S
C1306 C1307 1.400 . S
C1307 C1306 1.400 . S
C1307 C1308 1.398 . S
C1307 C1313 1.491 . S
C1308 H1299 0.950 . S
C1308 C1307 1.398 . S
C1308 C1309 1.391 . S
C1309 H1297 0.950 . S
C1309 C1305 1.393 . S
C1309 C1308 1.391 . S
C1310 H1300 0.950 . S
C1310 C1311 1.386 . S
C1310 C1312 1.391 . S
C1311 C1310 1.386 . S
C1311 C1315 1.393 . S
C1312 H1301 0.950 . S
C1312 C1310 1.391 . S
C1312 C1313 1.400 . S
C1313 C1307 1.491 . S
C1313 C1312 1.400 . S
C1313 C1314 1.398 . S
C1314 H1302 0.950 . S
C1314 C1313 1.398 . S
C1314 C1315 1.391 . S
C1315 H1303 0.950 . S
C1315 C1311 1.393 . S
C1315 C1314 1.391 . S
H1316 C1324 0.950 . S
H1317 C1329 0.950 . S
H1318 C1326 0.950 . S
H1319 C1328 0.950 . S
H1320 C1330 0.950 . S
H1321 C1332 0.950 . S
H1322 C1334 0.950 . S
H1323 C1335 0.950 . S
C1324 H1316 0.950 . S
C1324 C1325 1.386 . S
C1324 C1326 1.391 . S
C1325 C1324 1.386 . S
C1325 C1329 1.393 . S
C1326 H1318 0.950 . S
C1326 C1324 1.391 . S
C1326 C1327 1.400 . S
C1327 C1326 1.400 . S
C1327 C1328 1.398 . S
C1327 C1333 1.491 . S
C1328 H1319 0.950 . S
C1328 C1327 1.398 . S
C1328 C1329 1.391 . S
C1329 H1317 0.950 . S
C1329 C1325 1.393 . S
C1329 C1328 1.391 . S
C1330 H1320 0.950 . S
C1330 C1331 1.386 . S
C1330 C1332 1.391 . S
C1331 C1330 1.386 . S
C1331 C1335 1.393 . S
C1332 H1321 0.950 . S
C1332 C1330 1.391 . S
C1332 C1333 1.400 . S
C1333 C1327 1.491 . S
C1333 C1332 1.400 . S
C1333 C1334 1.398 . S
C1334 H1322 0.950 . S
C1334 C1333 1.398 . S
C1334 C1335 1.391 . S
C1335 H1323 0.950 . S
C1335 C1331 1.393 . S
C1335 C1334 1.391 . S
H1336 C1344 0.950 . S
H1337 C1349 0.950 . S
H1338 C1346 0.950 . S
H1339 C1348 0.950 . S
H1340 C1350 0.950 . S
H1341 C1352 0.950 . S
H1342 C1354 0.950 . S
H1343 C1355 0.950 . S
C1344 H1336 0.950 . S
C1344 C1345 1.386 . S
C1344 C1346 1.391 . S
C1345 C1344 1.386 . S
C1345 C1349 1.393 . S
C1346 H1338 0.950 . S
C1346 C1344 1.391 . S
C1346 C1347 1.400 . S
C1347 C1346 1.400 . S
C1347 C1348 1.398 . S
C1347 C1353 1.491 . S
C1348 H1339 0.950 . S
C1348 C1347 1.398 . S
C1348 C1349 1.391 . S
C1349 H1337 0.950 . S
C1349 C1345 1.393 . S
C1349 C1348 1.391 . S
C1350 H1340 0.950 . S
C1350 C1351 1.386 . S
C1350 C1352 1.391 . S
C1351 C1350 1.386 . S
C1351 C1355 1.393 . S
C1352 H1341 0.950 . S
C1352 C1350 1.391 . S
C1352 C1353 1.400 . S
C1353 C1347 1.491 . S
C1353 C1352 1.400 . S
C1353 C1354 1.398 . S
C1354 H1342 0.950 . S
C1354 C1353 1.398 . S
C1354 C1355 1.391 . S
C1355 H1343 0.950 . S
C1355 C1351 1.393 . S
C1355 C1354 1.391 . S
H1356 C1364 0.950 . S
H1357 C1369 0.950 . S
H1358 C1366 0.950 . S
H1359 C1368 0.950 . S
H1360 C1370 0.950 . S
H1361 C1372 0.950 . S
H1362 C1374 0.950 . S
H1363 C1375 0.950 . S
C1364 H1356 0.950 . S
C1364 C1365 1.386 . S
C1364 C1366 1.391 . S
C1365 C1364 1.386 . S
C1365 C1369 1.393 . S
C1366 H1358 0.950 . S
C1366 C1364 1.391 . S
C1366 C1367 1.400 . S
C1367 C1366 1.400 . S
C1367 C1368 1.398 . S
C1367 C1373 1.491 . S
C1368 H1359 0.950 . S
C1368 C1367 1.398 . S
C1368 C1369 1.391 . S
C1369 H1357 0.950 . S
C1369 C1365 1.393 . S
C1369 C1368 1.391 . S
C1370 H1360 0.950 . S
C1370 C1371 1.386 . S
C1370 C1372 1.391 . S
C1371 C1370 1.386 . S
C1371 C1375 1.393 . S
C1372 H1361 0.950 . S
C1372 C1370 1.391 . S
C1372 C1373 1.400 . S
C1373 C1367 1.491 . S
C1373 C1372 1.400 . S
C1373 C1374 1.398 . S
C1374 H1362 0.950 . S
C1374 C1373 1.398 . S
C1374 C1375 1.391 . S
C1375 H1363 0.950 . S
C1375 C1371 1.393 . S
C1375 C1374 1.391 . S
H1376 C1384 0.950 . S
H1377 C1389 0.950 . S
H1378 C1386 0.950 . S
H1379 C1388 0.950 . S
H1380 C1390 0.950 . S
H1381 C1392 0.950 . S
H1382 C1394 0.950 . S
H1383 C1395 0.950 . S
C1384 H1376 0.950 . S
C1384 C1385 1.386 . S
C1384 C1386 1.391 . S
C1385 C1384 1.386 . S
C1385 C1389 1.393 . S
C1386 H1378 0.950 . S
C1386 C1384 1.391 . S
C1386 C1387 1.400 . S
C1387 C1386 1.400 . S
C1387 C1388 1.398 . S
C1387 C1393 1.491 . S
C1388 H1379 0.950 . S
C1388 C1387 1.398 . S
C1388 C1389 1.391 . S
C1389 H1377 0.950 . S
C1389 C1385 1.393 . S
C1389 C1388 1.391 . S
C1390 H1380 0.950 . S
C1390 C1391 1.386 . S
C1390 C1392 1.391 . S
C1391 C1390 1.386 . S
C1391 C1395 1.393 . S
C1392 H1381 0.950 . S
C1392 C1390 1.391 . S
C1392 C1393 1.400 . S
C1393 C1387 1.491 . S
C1393 C1392 1.400 . S
C1393 C1394 1.398 . S
C1394 H1382 0.950 . S
C1394 C1393 1.398 . S
C1394 C1395 1.391 . S
C1395 H1383 0.950 . S
C1395 C1391 1.393 . S
C1395 C1394 1.391 . S
H1396 C1404 0.950 . S
H1397 C1409 0.950 . S
H1398 C1406 0.950 . S
H1399 C1408 0.950 . S
H1400 C1410 0.950 . S
H1401 C1412 0.950 . S
H1402 C1414 0.950 . S
H1403 C1415 0.950 . S
C1404 H1396 0.950 . S
C1404 C1405 1.386 . S
C1404 C1406 1.391 . S
C1405 C1404 1.386 . S
C1405 C1409 1.393 . S
C1406 H1398 0.950 . S
C1406 C1404 1.391 . S
C1406 C1407 1.400 . S
C1407 C1406 1.400 . S
C1407 C1408 1.398 . S
C1407 C1413 1.491 . S
C1408 H1399 0.950 . S
C1408 C1407 1.398 . S
C1408 C1409 1.391 . S
C1409 H1397 0.950 . S
C1409 C1405 1.393 . S
C1409 C1408 1.391 . S
C1410 H1400 0.950 . S
C1410 C1411 1.386 . S
C1410 C1412 1.391 . S
C1411 C1410 1.386 . S
C1411 C1415 1.393 . S
C1412 H1401 0.950 . S
C1412 C1410 1.391 . S
C1412 C1413 1.400 . S
C1413 C1407 1.491 . S
C1413 C1412 1.400 . S
C1413 C1414 1.398 . S
C1414 H1402 0.950 . S
C1414 C1413 1.398 . S
C1414 C1415 1.391 . S
C1415 H1403 0.950 . S
C1415 C1411 1.393 . S
C1415 C1414 1.391 . S
H1416 C1424 0.950 . S
H1417 C1429 0.950 . S
H1418 C1426 0.950 . S
H1419 C1428 0.950 . S
H1420 C1430 0.950 . S
H1421 C1432 0.950 . S
H1422 C1434 0.950 . S
H1423 C1435 0.950 . S
C1424 H1416 0.950 . S
C1424 C1425 1.386 . S
C1424 C1426 1.391 . S
C1425 C1424 1.386 . S
C1425 C1429 1.393 . S
C1426 H1418 0.950 . S
C1426 C1424 1.391 . S
C1426 C1427 1.400 . S
C1427 C1426 1.400 . S
C1427 C1428 1.398 . S
C1427 C1433 1.491 . S
C1428 H1419 0.950 . S
C1428 C1427 1.398 . S
C1428 C1429 1.391 . S
C1429 H1417 0.950 . S
C1429 C1425 1.393 . S
C1429 C1428 1.391 . S
C1430 H1420 0.950 . S
C1430 C1431 1.386 . S
C1430 C1432 1.391 . S
C1431 C1430 1.386 . S
C1431 C1435 1.393 . S
C1432 H1421 0.950 . S
C1432 C1430 1.391 . S
C1432 C1433 1.400 . S
C1433 C1427 1.491 . S
C1433 C1432 1.400 . S
C1433 C1434 1.398 . S
C1434 H1422 0.950 . S
C1434 C1433 1.398 . S
C1434 C1435 1.391 . S
C1435 H1423 0.950 . S
C1435 C1431 1.393 . S
C1435 C1434 1.391 . S
H1436 C1444 0.950 . S
H1437 C1449 0.950 . S
H1438 C1446 0.950 . S
H1439 C1448 0.950 . S
H1440 C1450 0.950 . S
H1441 C1452 0.950 . S
H1442 C1454 0.950 . S
H1443 C1455 0.950 . S
C1444 H1436 0.950 . S
C1444 C1445 1.386 . S
C1444 C1446 1.391 . S
C1445 C1444 1.386 . S
C1445 C1449 1.393 . S
C1446 H1438 0.950 . S
C1446 C1444 1.391 . S
C1446 C1447 1.400 . S
C1447 C1446 1.400 . S
C1447 C1448 1.398 . S
C1447 C1453 1.491 . S
C1448 H1439 0.950 . S
C1448 C1447 1.398 . S
C1448 C1449 1.391 . S
C1449 H1437 0.950 . S
C1449 C1445 1.393 . S
C1449 C1448 1.391 . S
C1450 H1440 0.950 . S
C1450 C1451 1.386 . S
C1450 C1452 1.391 . S
C1451 C1450 1.386 . S
C1451 C1455 1.393 . S
C1452 H1441 0.950 . S
C1452 C1450 1.391 . S
C1452 C1453 1.400 . S
C1453 C1447 1.491 . S
C1453 C1452 1.400 . S
C1453 C1454 1.398 . S
C1454 H1442 0.950 . S
C1454 C1453 1.398 . S
C1454 C1455 1.391 . S
C1455 H1443 0.950 . S
C1455 C1451 1.393 . S
C1455 C1454 1.391 . S
H1456 C1464 0.950 . S
H1457 C1469 0.950 . S
H1458 C1466 0.950 . S
H1459 C1468 0.950 . S
H1460 C1470 0.950 . S
H1461 C1472 0.950 . S
H1462 C1474 0.950 . S
H1463 C1475 0.950 . S
C1464 H1456 0.950 . S
C1464 C1465 1.386 . S
C1464 C1466 1.391 . S
C1465 C1464 1.386 . S
C1465 C1469 1.393 1_556 S
C1466 H1458 0.950 . S
C1466 C1464 1.391 . S
C1466 C1467 1.400 . S
C1467 C1466 1.400 . S
C1467 C1468 1.398 1_556 S
C1467 C1473 1.491 1_556 S
C1468 H1459 0.950 . S
C1468 C1467 1.398 1_554 S
C1468 C1469 1.391 . S
C1469 H1457 0.950 . S
C1469 C1465 1.393 1_554 S
C1469 C1468 1.391 . S
C1470 H1460 0.950 . S
C1470 C1471 1.386 . S
C1470 C1472 1.391 . S
C1471 C1470 1.386 . S
C1471 C1475 1.393 1_554 S
C1472 H1461 0.950 . S
C1472 C1470 1.391 . S
C1472 C1473 1.400 . S
C1473 C1467 1.491 1_554 S
C1473 C1472 1.400 . S
C1473 C1474 1.398 1_554 S
C1474 H1462 0.950 . S
C1474 C1473 1.398 1_556 S
C1474 C1475 1.391 . S
C1475 H1463 0.950 . S
C1475 C1471 1.393 1_556 S
C1475 C1474 1.391 . S
H1476 C1484 0.950 . S
H1477 C1489 0.950 . S
H1478 C1486 0.950 . S
H1479 C1488 0.950 . S
H1480 C1490 0.950 . S
H1481 C1492 0.950 . S
H1482 C1494 0.950 . S
H1483 C1495 0.950 . S
C1484 H1476 0.950 . S
C1484 C1485 1.386 . S
C1484 C1486 1.391 . S
C1485 C1484 1.386 . S
C1485 C1489 1.393 . S
C1486 H1478 0.950 . S
C1486 C1484 1.391 . S
C1486 C1487 1.400 . S
C1487 C1486 1.400 . S
C1487 C1488 1.398 . S
C1487 C1493 1.491 . S
C1488 H1479 0.950 . S
C1488 C1487 1.398 . S
C1488 C1489 1.391 . S
C1489 H1477 0.950 . S
C1489 C1485 1.393 . S
C1489 C1488 1.391 . S
C1490 H1480 0.950 . S
C1490 C1491 1.386 . S
C1490 C1492 1.391 . S
C1491 C1490 1.386 . S
C1491 C1495 1.393 . S
C1492 H1481 0.950 . S
C1492 C1490 1.391 . S
C1492 C1493 1.400 . S
C1493 C1487 1.491 . S
C1493 C1492 1.400 . S
C1493 C1494 1.398 . S
C1494 H1482 0.950 . S
C1494 C1493 1.398 . S
C1494 C1495 1.391 . S
C1495 H1483 0.950 . S
C1495 C1491 1.393 . S
C1495 C1494 1.391 . S
H1496 C1504 0.950 . S
H1497 C1509 0.950 . S
H1498 C1506 0.950 . S
H1499 C1508 0.950 . S
H1500 C1510 0.950 . S
H1501 C1512 0.950 . S
H1502 C1514 0.950 . S
H1503 C1515 0.950 . S
C1504 H1496 0.950 . S
C1504 C1505 1.386 . S
C1504 C1506 1.391 . S
C1505 C1504 1.386 . S
C1505 C1509 1.393 . S
C1506 H1498 0.950 . S
C1506 C1504 1.391 . S
C1506 C1507 1.400 . S
C1507 C1506 1.400 . S
C1507 C1508 1.398 . S
C1507 C1513 1.491 . S
C1508 H1499 0.950 . S
C1508 C1507 1.398 . S
C1508 C1509 1.391 . S
C1509 H1497 0.950 . S
C1509 C1505 1.393 . S
C1509 C1508 1.391 . S
C1510 H1500 0.950 . S
C1510 C1511 1.386 . S
C1510 C1512 1.391 . S
C1511 C1510 1.386 . S
C1511 C1515 1.393 . S
C1512 H1501 0.950 . S
C1512 C1510 1.391 . S
C1512 C1513 1.400 . S
C1513 C1507 1.491 . S
C1513 C1512 1.400 . S
C1513 C1514 1.398 . S
C1514 H1502 0.950 . S
C1514 C1513 1.398 . S
C1514 C1515 1.391 . S
C1515 H1503 0.950 . S
C1515 C1511 1.393 . S
C1515 C1514 1.391 . S
H1516 C1524 0.950 . S
H1517 C1529 0.950 . S
H1518 C1526 0.950 . S
H1519 C1528 0.950 . S
H1520 C1530 0.950 . S
H1521 C1532 0.950 . S
H1522 C1534 0.950 . S
H1523 C1535 0.950 . S
C1524 H1516 0.950 . S
C1524 C1525 1.386 . S
C1524 C1526 1.391 . S
C1525 C1524 1.386 . S
C1525 C1529 1.393 1_554 S
C1526 H1518 0.950 . S
C1526 C1524 1.391 . S
C1526 C1527 1.400 . S
C1527 C1526 1.400 . S
C1527 C1528 1.398 1_554 S
C1527 C1533 1.491 1_554 S
C1528 H1519 0.950 . S
C1528 C1527 1.398 1_556 S
C1528 C1529 1.391 . S
C1529 H1517 0.950 . S
C1529 C1525 1.393 1_556 S
C1529 C1528 1.391 . S
C1530 H1520 0.950 . S
C1530 C1531 1.386 . S
C1530 C1532 1.391 . S
C1531 C1530 1.386 . S
C1531 C1535 1.393 1_556 S
C1532 H1521 0.950 . S
C1532 C1530 1.391 . S
C1532 C1533 1.400 . S
C1533 C1527 1.491 1_556 S
C1533 C1532 1.400 . S
C1533 C1534 1.398 1_556 S
C1534 H1522 0.950 . S
C1534 C1533 1.398 1_554 S
C1534 C1535 1.391 . S
C1535 H1523 0.950 . S
C1535 C1531 1.393 1_554 S
C1535 C1534 1.391 . S
C1065 C29 1.402 . S
C1071 C849 1.404 . S
C1085 C117 1.400 . S
C1091 C937 1.390 . S
C1105 C196 1.393 . S
C1111 C1017 1.404 . S
C1125 C293 1.396 . S
C1131 C585 1.405 . S
C1145 C665 1.400 . S
C1151 C381 1.405 . S
C1165 C761 1.393 . S
C1171 C469 1.391 . S
C1185 C909 1.968 . S
C1191 C57 1.966 . S
C1205 C145 1.964 . S
C1211 C988 1.964 . S
C1225 C225 1.968 . S
C1231 C557 1.968 . S
C1245 C321 1.967 . S
C1251 C636 1.969 . S
C1265 C409 1.966 . S
C1271 C733 1.964 . S
C1285 C497 1.965 . S
C1291 C821 1.968 . S
C1305 C929 0.216 . S
C1311 C20 0.157 . S
C1325 C108 0.232 . S
C1331 C1025 0.174 . S
C1345 C205 0.223 . S
C1351 C577 0.244 . S
C1365 C284 0.156 . S
C1371 C673 0.214 . S
C1385 C372 0.234 . S
C1391 C753 0.177 . S
C1405 C460 0.165 . S
C1411 C841 0.161 . S
C1425 C49 1.672 . S
C1431 C548 1.675 . S
C1445 C645 1.668 . S
C1451 C137 1.669 . S
C1465 C233 1.671 . S
C1471 C724 1.669 . S
C1485 C313 1.668 . S
C1491 C812 1.670 . S
C1505 C401 1.671 . S
C1511 C900 1.674 . S
C1525 C997 1.673 . S
C1531 C489 1.670 . S
