# Generated by pormake.
# Topology umy, (4)-cn, num edge types: 1
# Building blocks:
#     Node 0, Type 0, BuildingBlock: QUQFOY_clean_sbu_3, # of connection points: 4
#     Node 1, Type 0, BuildingBlock: QUQFOY_clean_sbu_3, # of connection points: 4
#     Node 2, Type 0, BuildingBlock: QUQFOY_clean_sbu_3, # of connection points: 4
#     Node 3, Type 0, BuildingBlock: QUQFOY_clean_sbu_3, # of connection points: 4
#     Node 4, Type 0, BuildingBlock: QUQFOY_clean_sbu_3, # of connection points: 4
#     Node 5, Type 0, BuildingBlock: QUQFOY_clean_sbu_3, # of connection points: 4
#     Node 6, Type 0, BuildingBlock: QUQFOY_clean_sbu_3, # of connection points: 4
#     Node 7, Type 0, BuildingBlock: QUQFOY_clean_sbu_3, # of connection points: 4
#     Node 8, Type 0, BuildingBlock: QUQFOY_clean_sbu_3, # of connection points: 4
#     Node 9, Type 0, BuildingBlock: QUQFOY_clean_sbu_3, # of connection points: 4
#     Node 10, Type 0, BuildingBlock: QUQFOY_clean_sbu_3, # of connection points: 4
#     Node 11, Type 0, BuildingBlock: QUQFOY_clean_sbu_3, # of connection points: 4
#     Edge 12, Type (0, 0), BuildingBlock: EZIPEK_clean_linker_0, # of connection points: 2
#     Edge 13, Type (0, 0), BuildingBlock: EZIPEK_clean_linker_0, # of connection points: 2
#     Edge 14, Type (0, 0), BuildingBlock: EZIPEK_clean_linker_0, # of connection points: 2
#     Edge 15, Type (0, 0), BuildingBlock: EZIPEK_clean_linker_0, # of connection points: 2
#     Edge 16, Type (0, 0), BuildingBlock: EZIPEK_clean_linker_0, # of connection points: 2
#     Edge 17, Type (0, 0), BuildingBlock: EZIPEK_clean_linker_0, # of connection points: 2
#     Edge 18, Type (0, 0), BuildingBlock: EZIPEK_clean_linker_0, # of connection points: 2
#     Edge 19, Type (0, 0), BuildingBlock: EZIPEK_clean_linker_0, # of connection points: 2
#     Edge 20, Type (0, 0), BuildingBlock: EZIPEK_clean_linker_0, # of connection points: 2
#     Edge 21, Type (0, 0), BuildingBlock: EZIPEK_clean_linker_0, # of connection points: 2
#     Edge 22, Type (0, 0), BuildingBlock: EZIPEK_clean_linker_0, # of connection points: 2
#     Edge 23, Type (0, 0), BuildingBlock: EZIPEK_clean_linker_0, # of connection points: 2
#     Edge 24, Type (0, 0), BuildingBlock: EZIPEK_clean_linker_0, # of connection points: 2
#     Edge 25, Type (0, 0), BuildingBlock: EZIPEK_clean_linker_0, # of connection points: 2
#     Edge 26, Type (0, 0), BuildingBlock: EZIPEK_clean_linker_0, # of connection points: 2
#     Edge 27, Type (0, 0), BuildingBlock: EZIPEK_clean_linker_0, # of connection points: 2
#     Edge 28, Type (0, 0), BuildingBlock: EZIPEK_clean_linker_0, # of connection points: 2
#     Edge 29, Type (0, 0), BuildingBlock: EZIPEK_clean_linker_0, # of connection points: 2
#     Edge 30, Type (0, 0), BuildingBlock: EZIPEK_clean_linker_0, # of connection points: 2
#     Edge 31, Type (0, 0), BuildingBlock: EZIPEK_clean_linker_0, # of connection points: 2
#     Edge 32, Type (0, 0), BuildingBlock: EZIPEK_clean_linker_0, # of connection points: 2
#     Edge 33, Type (0, 0), BuildingBlock: EZIPEK_clean_linker_0, # of connection points: 2
#     Edge 34, Type (0, 0), BuildingBlock: EZIPEK_clean_linker_0, # of connection points: 2
#     Edge 35, Type (0, 0), BuildingBlock: EZIPEK_clean_linker_0, # of connection points: 2
# Relax obj value: 0.101
# Max RMSD: 0.074
# Mean RMSD: 0.074
data_MOF--net-umy--node1-QUQFOY_clean_sbu_3--edge1-EZIPEK_clean_linker_0
_symmetry_space_group_name_H-M    P1
_symmetry_Int_Tables_number       1
_symmetry_cell_setting            triclinic
loop_
_symmetry_equiv_pos_as_xyz
'x, y, z'
_cell_length_a     30.649924
_cell_length_b     30.083899
_cell_length_c     39.645974
_cell_angle_alpha  89.779249
_cell_angle_beta   90.501783
_cell_angle_gamma 121.07212
loop_
_atom_site_label
_atom_site_type_symbol
_atom_site_fract_x
_atom_site_fract_y
_atom_site_fract_z
_atom_type_partial_charge
C0 C 0.92099 0.2098 0.12841 0.0
O1 O 0.94098 0.18401 0.11914 0.0
Cd2 Cd 0.02571 0.2246 0.09797 0.0
O3 O 0.94338 0.25869 0.12367 0.0
Cd4 Cd 0.02203 0.33011 0.09701 0.0
C5 C 0.08301 0.31411 0.16286 0.0
O6 O 0.03251 0.28076 0.05298 0.0
O7 O 0.09794 0.35664 0.06258 0.0
O8 O -0.02685 0.36309 0.06864 0.0
C9 C 0.07742 0.31544 0.04513 0.0
O10 O 0.07388 0.27251 0.14819 0.0
C11 C 0.00173 0.40926 0.07922 0.0
O12 O 0.06861 0.34328 0.14994 0.0
O13 O 0.03839 0.41794 0.09872 0.0
C14 C 0.67673 0.93652 0.29825 0.0
O15 O 0.72422 0.95804 0.29305 0.0
Cd16 Cd 0.77755 0.04249 0.26929 0.0
O17 O 0.65242 0.95866 0.28958 0.0
Cd18 Cd 0.67347 0.04401 0.2661 0.0
C19 C 0.7544 0.10471 0.33233 0.0
O20 O 0.73316 0.0531 0.22285 0.0
O21 O 0.73043 0.12194 0.23372 0.0
O22 O 0.59443 0.00747 0.23324 0.0
C23 C 0.74747 0.09972 0.21561 0.0
O24 O 0.78636 0.09647 0.31767 0.0
C25 C 0.57913 0.0344 0.24788 0.0
O26 O 0.71019 0.08828 0.31989 0.0
O27 O 0.60706 0.06454 0.27135 0.0
C28 C 0.71747 0.70372 0.46798 0.0
O29 O 0.74245 0.7522 0.46226 0.0
Cd30 Cd 0.70729 0.80108 0.43922 0.0
O31 O 0.67023 0.67624 0.46065 0.0
Cd32 Cd 0.60293 0.69093 0.43821 0.0
C33 C 0.62249 0.77287 0.50314 0.0
O34 O 0.65148 0.75224 0.39355 0.0
O35 O 0.57767 0.74161 0.40412 0.0
O36 O 0.56377 0.60711 0.40988 0.0
C37 C 0.61728 0.76244 0.3861 0.0
O38 O 0.66191 0.80703 0.48761 0.0
C39 C 0.51964 0.59153 0.42142 0.0
O40 O 0.59532 0.72691 0.49167 0.0
O41 O 0.51489 0.62134 0.44165 0.0
C42 C -0.00624 0.75156 0.63036 0.0
O43 O -0.02849 0.77583 0.62223 0.0
Cd44 Cd 0.886 0.73276 0.60097 0.0
O45 O -0.0271 0.70297 0.62509 0.0
Cd46 Cd 0.89449 0.63036 0.59909 0.0
C47 C 0.83116 0.64173 0.66479 0.0
O48 O 0.88088 0.67867 0.55527 0.0
O49 O 0.81788 0.60122 0.56428 0.0
O50 O 0.94597 0.60133 0.57072 0.0
C51 C 0.83636 0.64276 0.54729 0.0
O52 O 0.8379 0.68267 0.65031 0.0
C53 C 0.91917 0.55482 0.581 0.0
O54 O 0.84818 0.61491 0.65203 0.0
O55 O 0.88215 0.54413 0.60029 0.0
C56 C 0.23459 0.02826 0.79423 0.0
O57 O 0.18914 0.00856 0.7836 0.0
Cd58 Cd 0.1396 0.92154 0.7637 0.0
O59 O 0.25849 0.00411 0.79158 0.0
Cd60 Cd 0.2448 0.92192 0.76651 0.0
C61 C 0.16339 0.86313 0.83092 0.0
O62 O 0.18739 0.91105 0.7206 0.0
O63 O 0.18912 0.84252 0.73404 0.0
O64 O 0.32597 0.96064 0.7366 0.0
C65 C 0.17262 0.86408 0.71446 0.0
O66 O 0.13265 0.87255 0.81513 0.0
C67 C 0.34069 0.93341 0.75191 0.0
O68 O 0.20715 0.87716 0.8192 0.0
O69 O 0.31181 0.90278 0.77465 0.0
C70 C 0.1897 0.25247 0.96222 0.0
O71 O 0.16458 0.20599 0.95171 0.0
Cd72 Cd 0.20463 0.16075 0.93227 0.0
O73 O 0.23809 0.27948 0.95982 0.0
Cd74 Cd 0.30879 0.27207 0.93531 0.0
C75 C 0.28753 0.19037 -5e-05 0.0
O76 O 0.26286 0.21274 0.88931 0.0
O77 O 0.33561 0.22185 0.90211 0.0
O78 O 0.34453 0.35654 0.9079 0.0
C79 C 0.29706 0.20242 0.88271 0.0
O80 O 0.24779 0.15732 -0.01621 0.0
C81 C 0.38934 0.37329 0.91912 0.0
O82 O 0.31678 0.23587 -0.01152 0.0
O83 O 0.39585 0.34403 0.93905 0.0
C84 C 0.71957 0.02825 0.66538 0.0
O85 O 0.74522 0.00693 0.67181 0.0
Cd86 Cd 0.71118 0.92162 0.69418 0.0
O87 O 0.67236 0.0058 0.67251 0.0
Cd88 Cd 0.60573 0.92118 0.69653 0.0
C89 C 0.62294 0.85978 0.63067 0.0
O90 O 0.65646 0.9113 0.73995 0.0
O91 O 0.58349 0.84297 0.72948 0.0
O92 O 0.56447 0.95844 0.72889 0.0
C93 C 0.62397 0.86462 0.74712 0.0
O94 O 0.66418 0.86944 0.64514 0.0
C95 C 0.52184 0.932 0.71382 0.0
O96 O 0.59472 0.87487 0.64336 0.0
O97 O 0.51892 0.9019 0.69041 0.0
C98 C 0.6939 0.75209 0.82667 0.0
O99 O 0.74122 0.77726 0.83345 0.0
Cd100 Cd 0.78611 0.73734 0.85471 0.0
O101 O 0.66646 0.70366 0.83288 0.0
Cd102 Cd 0.67541 0.63292 0.85838 0.0
C103 C 0.74989 0.64468 0.79221 0.0
O104 O 0.73836 0.68429 0.90128 0.0
O105 O 0.72498 0.60724 0.89354 0.0
O106 O 0.59478 0.60126 0.88769 0.0
C107 C 0.74724 0.6492 0.91016 0.0
O108 O 0.78436 0.68649 0.80606 0.0
C109 C 0.57575 0.55479 0.87759 0.0
O110 O 0.70608 0.61756 0.80541 0.0
O111 O 0.60244 0.54527 0.85795 0.0
C112 C 0.92139 0.71266 -0.00311 0.0
O113 O 0.94227 0.7587 0.00808 0.0
Cd114 Cd 0.02816 0.80478 0.02825 0.0
O115 O 0.94338 0.68653 -0.00068 0.0
Cd116 Cd 0.02175 0.69446 0.02478 0.0
C117 C 0.08107 0.77719 0.96052 0.0
O118 O 0.03542 0.75285 0.07098 0.0
O119 O 0.09977 0.74553 0.05861 0.0
O120 O -0.02736 0.60938 0.05154 0.0
C121 C 0.08047 0.76429 0.07782 0.0
O122 O 0.07416 0.80949 0.97676 0.0
C123 C 0.00059 0.59309 0.0403 0.0
O124 O 0.06548 0.73181 0.97187 0.0
O125 O 0.03669 0.62299 0.02082 0.0
C126 C 0.19426 0.94034 0.16536 0.0
O127 O 0.16922 0.9606 0.17545 0.0
Cd128 Cd 0.20761 0.04727 0.19637 0.0
O129 O 0.24259 0.96392 0.1685 0.0
Cd130 Cd 0.31276 0.04604 0.19337 0.0
C131 C 0.28954 0.10655 0.12961 0.0
O132 O 0.26691 0.05662 0.23904 0.0
O133 O 0.33938 0.12429 0.22718 0.0
O134 O 0.3549 0.00683 0.22308 0.0
C135 C 0.30035 0.1032 0.24579 0.0
O136 O 0.24989 0.09752 0.14561 0.0
C137 C 0.39692 0.03393 0.20782 0.0
O138 O 0.31894 0.09173 0.14098 0.0
O139 O 0.39875 0.06457 0.185 0.0
C140 C 0.23222 0.21272 0.32774 0.0
O141 O 0.18443 0.1848 0.33186 0.0
Cd142 Cd 0.13272 0.21631 0.35394 0.0
O143 O 0.25656 0.2602 0.33659 0.0
Cd144 Cd 0.23702 0.32409 0.35988 0.0
C145 C 0.16141 0.30672 0.2921 0.0
O146 O 0.17472 0.27022 0.40223 0.0
O147 O 0.18212 0.34451 0.39214 0.0
O148 O 0.31714 0.36186 0.3911 0.0
C149 C 0.1628 0.30355 0.40973 0.0
O150 O 0.12773 0.26481 0.30599 0.0
C151 C 0.33346 0.40756 0.38032 0.0
O152 O 0.20545 0.33467 0.30527 0.0
O153 O 0.30525 0.41414 0.3598 0.0
C154 C -0.00621 0.24564 0.4986 0.0
O155 O -0.02936 0.19941 0.50959 0.0
Cd156 Cd 0.88562 0.15791 0.53038 0.0
O157 O -0.02527 0.27444 0.50137 0.0
Cd158 Cd 0.89927 0.27172 0.52678 0.0
C159 C 0.83533 0.19049 0.46243 0.0
O160 O 0.8832 0.21226 0.57311 0.0
O161 O 0.82162 0.22438 0.55999 0.0
O162 O 0.95148 0.35669 0.55348 0.0
C163 C 0.83904 0.20362 0.57946 0.0
O164 O 0.84032 0.15676 0.47874 0.0
C165 C 0.92437 0.37422 0.54212 0.0
O166 O 0.8532 0.23616 0.47393 0.0
O167 O 0.88776 0.34515 0.52242 0.0
C168 C -0.00459 0.53121 0.0851 0.0
C169 C -0.00671 0.54232 0.05047 0.0
C170 C -0.00559 0.46444 0.03431 0.0
C171 C -0.00623 0.45191 0.06895 0.0
N172 N -0.0201 0.46569 0.12677 0.0
N173 N -0.02247 0.513 -0.00729 0.0
C174 C -0.01014 0.4829 0.09419 0.0
C175 C -0.01144 0.50679 0.02524 0.0
N176 N 0.0059 0.56784 0.10924 0.0
N177 N 0.00368 0.43811 0.01013 0.0
H178 H -0.02798 0.5431 -0.01466 0.0
H179 H -0.03129 0.48547 0.9739 0.0
H180 H 0.00942 0.40757 0.01552 0.0
H181 H 0.01027 0.44961 -0.01504 0.0
H182 H 0.01355 0.56372 0.13434 0.0
H183 H 0.01174 0.60445 0.10387 0.0
H184 H -0.02832 0.4843 0.14559 0.0
H185 H -0.02545 0.4299 0.1342 0.0
C186 C 0.48529 -0.01449 0.23384 0.0
C187 C 0.5323 0.03329 0.23685 0.0
C188 C 0.48883 0.08068 0.22498 0.0
C189 C 0.44315 0.03313 0.2179 0.0
N190 N 0.40055 0.94048 0.20923 0.0
N191 N 0.58063 0.12575 0.22643 0.0
C192 C 0.44202 -0.01453 0.22054 0.0
C193 C 0.53465 0.08075 0.22986 0.0
N194 N 0.48124 0.94048 0.24494 0.0
N195 N 0.48831 0.12557 0.22873 0.0
H196 H 0.61539 0.12734 0.22812 0.0
H197 H 0.58406 0.16031 0.2181 0.0
H198 H 0.45514 0.12713 0.22726 0.0
H199 H 0.51988 0.16011 0.23715 0.0
H200 H 0.4466 0.90551 0.24647 0.0
H201 H 0.51158 0.93898 0.25575 0.0
H202 H 0.39991 0.90561 0.20745 0.0
H203 H 0.36867 0.93903 0.19849 0.0
C204 C 0.46206 0.53152 0.37601 0.0
C205 C 0.47482 0.54171 0.41077 0.0
C206 C 0.39426 0.46381 0.42587 0.0
C207 C 0.38335 0.45168 0.3911 0.0
N208 N 0.41281 0.46671 0.33359 0.0
N209 N 0.45924 0.51129 0.46831 0.0
C210 C 0.41913 0.4833 0.3663 0.0
C211 C 0.44279 0.50587 0.43559 0.0
N212 N 0.48891 0.56883 0.35233 0.0
N213 N 0.35755 0.43718 0.44952 0.0
H214 H 0.49514 0.541 0.4762 0.0
H215 H 0.4395 0.48343 0.4868 0.0
H216 H 0.32092 0.40696 0.44355 0.0
H217 H 0.36188 0.44827 0.47477 0.0
H218 H 0.47753 0.56518 0.32715 0.0
H219 H 0.51967 0.60553 0.3582 0.0
H220 H 0.44043 0.48592 0.31518 0.0
H221 H 0.38243 0.43091 0.32564 0.0
C222 C 0.93508 0.48378 0.59611 0.0
C223 C 0.92968 0.51403 0.5708 0.0
C224 C 0.93688 0.46072 0.52727 0.0
C225 C 0.93277 0.42525 0.55248 0.0
N226 N 0.92136 0.39969 0.61125 0.0
N227 N 0.91957 0.52796 0.51181 0.0
C228 C 0.93079 0.43609 0.58709 0.0
C229 C 0.92968 0.50214 0.53617 0.0
N230 N 0.94504 0.50103 0.62872 0.0
N231 N 0.94829 0.45511 0.4949 0.0
H232 H 0.91283 0.5578 0.51703 0.0
H233 H 0.91339 0.51671 0.48657 0.0
H234 H 0.95475 0.42565 0.48775 0.0
H235 H 0.95655 0.48261 0.47612 0.0
H236 H 0.95422 0.48302 0.64763 0.0
H237 H 0.94946 0.53642 0.63606 0.0
H238 H 0.9137 0.40353 0.63627 0.0
H239 H 0.91654 0.36352 0.606 0.0
C240 C 0.43037 0.88609 0.73083 0.0
C241 C 0.47631 0.93344 0.72432 0.0
C242 C 0.43487 -0.01838 0.73984 0.0
C243 C 0.38755 0.9341 0.74205 0.0
N244 N 0.33862 0.84179 0.7309 0.0
N245 N 0.51985 0.02635 0.71652 0.0
C246 C 0.38477 0.88647 0.73508 0.0
C247 C 0.47803 -0.01863 0.72717 0.0
N248 N 0.43041 0.84089 0.73441 0.0
N249 N 0.43921 0.02668 0.75098 0.0
H250 H 0.55169 0.0277 0.70622 0.0
H251 H 0.52091 0.06147 0.71484 0.0
H252 H 0.40886 0.02831 0.76124 0.0
H253 H 0.47401 0.06143 0.7531 0.0
H254 H 0.39864 0.80636 0.74242 0.0
H255 H 0.46341 0.83904 0.73321 0.0
H256 H 0.33498 0.80721 0.72254 0.0
H257 H 0.30401 0.8405 0.73194 0.0
C258 C 0.46563 0.45978 0.93296 0.0
C259 C 0.43314 0.42361 0.90824 0.0
C260 C 0.4884 0.48131 0.86371 0.0
C261 C 0.5249 0.51279 0.88849 0.0
N262 N 0.55126 0.5282 0.94708 0.0
N263 N 0.41744 0.39617 0.84982 0.0
C264 C 0.51422 0.50145 0.9233 0.0
C265 C 0.44515 0.4335 0.87346 0.0
N266 N 0.44967 0.4548 0.96558 0.0
N267 N 0.49457 0.49755 0.83092 0.0
H268 H 0.38632 0.35981 0.85566 0.0
H269 H 0.42828 0.39944 0.82467 0.0
H270 H 0.52533 0.533 0.823 0.0
H271 H 0.46663 0.47857 0.8124 0.0
H272 H 0.46972 0.48286 -0.01599 0.0
H273 H 0.41381 0.42524 0.97337 0.0
H274 H 0.5471 0.5175 0.97241 0.0
H275 H 0.58788 0.55822 0.94126 0.0
C276 C 0.13886 0.28504 0.03912 0.0
C277 C 0.1086 0.30269 0.02367 0.0
C278 C 0.13683 0.29373 0.96772 0.0
C279 C 0.16328 0.27174 -0.01691 0.0
N280 N 0.18357 0.23877 0.0326 0.0
N281 N 0.07463 0.32027 0.97376 0.0
C282 C 0.16291 0.26552 0.0186 0.0
C283 C 0.10644 0.30612 -0.01195 0.0
N284 N 0.14491 0.28726 0.07342 0.0
N285 N 0.14161 0.30353 0.93383 0.0
H286 H 0.05331 0.33135 -0.01201 0.0
H287 H 0.067 0.31826 0.948 0.0
H288 H 0.16305 0.29413 0.91833 0.0
H289 H 0.1275 0.32411 0.92142 0.0
H290 H 0.17123 0.28085 0.08586 0.0
H291 H 0.12642 0.29944 0.08951 0.0
H292 H 0.17935 0.22763 0.05782 0.0
H293 H 0.20161 0.22378 0.01847 0.0
C294 C 0.7838 0.12461 0.15754 0.0
C295 C 0.7911 0.13011 0.193 0.0
C296 C 0.88227 0.19215 0.1856 0.0
C297 C 0.87561 0.18407 0.15018 0.0
N298 N 0.82221 0.1402 0.10205 0.0
N299 N 0.84688 0.16421 0.24149 0.0
C300 C 0.82691 0.1496 0.136 0.0
C301 C 0.84018 0.16295 0.20724 0.0
N302 N 0.73546 0.09662 0.14456 0.0
N303 N 0.92911 0.22757 0.19854 0.0
H304 H 0.81692 0.14432 0.25827 0.0
H305 H 0.88228 0.1821 0.25347 0.0
H306 H -0.0381 0.24649 0.18396 0.0
H307 H 0.93534 0.24043 0.22342 0.0
H308 H 0.72672 0.0951 0.11902 0.0
H309 H 0.70322 0.07751 0.15971 0.0
H310 H 0.78909 0.11135 0.0904 0.0
H311 H 0.85265 0.15964 0.08548 0.0
C312 C 0.63629 0.80016 0.32777 0.0
C313 C 0.62751 0.80462 0.36232 0.0
C314 C 0.63486 0.8883 0.35129 0.0
C315 C 0.65136 0.88767 0.31799 0.0
N316 N 0.66831 0.84358 0.27406 0.0
N317 N 0.62769 0.85703 0.40839 0.0
C318 C 0.65206 0.84359 0.30606 0.0
C319 C 0.62876 0.84953 0.37444 0.0
N320 N 0.62819 0.754 0.31561 0.0
N321 N 0.6253 0.92594 0.36111 0.0
H322 H 0.62536 0.83072 0.42651 0.0
H323 H 0.63458 0.89182 0.41884 0.0
H324 H 0.62939 0.95555 0.34541 0.0
H325 H 0.60811 0.92474 0.38393 0.0
H326 H 0.629 0.74649 0.29008 0.0
H327 H 0.61654 0.72149 0.33086 0.0
H328 H 0.67593 0.81578 0.26516 0.0
H329 H 0.67612 0.87285 0.25667 0.0
C330 C 0.72894 0.66327 0.52006 0.0
C331 C 0.74314 0.68035 0.48629 0.0
C332 C 0.81385 0.66432 0.49107 0.0
C333 C 0.80329 0.65373 0.52589 0.0
N334 N 0.75663 0.65226 0.57508 0.0
N335 N 0.79956 0.69876 0.4394 0.0
C336 C 0.76211 0.65513 0.54078 0.0
C337 C 0.78577 0.68127 0.47169 0.0
N338 N 0.68401 0.65517 0.53262 0.0
N339 N 0.8498 0.65683 0.47643 0.0
H340 H 0.77765 0.70765 0.42366 0.0
H341 H 0.83365 0.70657 0.42862 0.0
H342 H 0.87105 0.64459 0.49 0.0
H343 H 0.85595 0.65878 0.45055 0.0
H344 H 0.66917 0.63704 0.55565 0.0
H345 H 0.65898 0.66205 0.51898 0.0
H346 H 0.73121 0.65944 0.58768 0.0
H347 H 0.78088 0.64782 0.59145 0.0
C348 C 0.03628 0.76999 0.68667 0.0
C349 C 0.04044 0.77836 0.65129 0.0
C350 C 0.13256 0.83842 0.65704 0.0
C351 C 0.1277 0.83279 0.69259 0.0
N352 N 0.07474 0.7991 0.74193 0.0
N353 N 0.09027 0.82306 0.60249 0.0
C354 C 0.07958 0.79977 0.70761 0.0
C355 C 0.08801 0.81332 0.63634 0.0
N356 N -0.00933 0.7337 0.70031 0.0
N357 N 0.17995 0.86663 0.64317 0.0
H358 H 0.05869 0.80369 0.58649 0.0
H359 H 0.12248 0.8522 0.59045 0.0
H360 H 0.2132 0.88566 0.65772 0.0
H361 H 0.1869 0.8683 0.61742 0.0
H362 H -0.01345 0.72061 0.72508 0.0
H363 H 0.95696 0.71421 0.68633 0.0
H364 H 0.03996 0.78111 0.75433 0.0
H365 H 0.10548 0.81986 0.75828 0.0
C366 C 0.24468 0.06519 0.85173 0.0
C367 C 0.25503 0.07372 0.81672 0.0
C368 C 0.29416 0.16745 0.82487 0.0
C369 C 0.28582 0.15891 0.86007 0.0
N370 N 0.26228 0.10153 0.90802 0.0
N371 N 0.29533 0.13183 0.7701 0.0
C372 C 0.26406 0.10833 0.87382 0.0
C373 C 0.28164 0.12463 0.8033 0.0
N374 N 0.21424 0.01581 0.86368 0.0
N375 N 0.31299 0.21626 0.81212 0.0
H376 H 0.28594 0.101 0.75377 0.0
H377 H 0.31889 0.16807 0.75929 0.0
H378 H 0.32422 0.24864 0.82742 0.0
H379 H 0.31498 0.22444 0.78647 0.0
H380 H 0.20025 0.00741 0.88818 0.0
H381 H 0.19944 -0.01709 0.84844 0.0
H382 H 0.25236 0.06639 0.91951 0.0
H383 H 0.27477 0.13199 0.92514 0.0
C384 C 0.66404 0.81559 0.82288 0.0
C385 C 0.6721 0.77815 0.80716 0.0
C386 C 0.64916 0.79794 0.75211 0.0
C387 C 0.63857 0.83349 0.76803 0.0
N388 N 0.62886 0.87167 0.81852 0.0
N389 N 0.66693 0.72867 0.7579 0.0
C390 C 0.64409 0.84113 0.80345 0.0
C391 C 0.6626 0.76755 0.77214 0.0
N392 N 0.67616 0.82715 0.85624 0.0
N393 N 0.64938 0.79547 0.71765 0.0
H394 H 0.68063 0.70824 0.771 0.0
H395 H 0.65408 0.71436 0.73368 0.0
H396 H 0.63991 0.81711 0.70198 0.0
H397 H 0.66281 0.77524 0.70435 0.0
H398 H 0.67682 0.85807 0.86842 0.0
H399 H 0.68835 0.80729 0.87155 0.0
H400 H 0.62694 0.87491 0.84451 0.0
H401 H 0.61441 0.8911 0.80493 0.0
C402 C 0.78392 0.65538 0.96796 0.0
C403 C 0.79081 0.66161 0.93254 0.0
C404 C 0.88296 0.70217 0.93976 0.0
C405 C 0.87598 0.69333 0.97501 0.0
N406 N 0.82064 0.65593 0.02271 0.0
N407 N 0.84476 0.68151 0.88399 0.0
C408 C 0.8266 0.66818 -0.01083 0.0
C409 C 0.83971 0.68204 0.91821 0.0
N410 N 0.73683 0.63829 -0.01877 0.0
N411 N 0.93101 0.73176 0.92702 0.0
H412 H 0.81407 0.66785 0.86729 0.0
H413 H 0.87863 0.69043 0.87226 0.0
H414 H -0.03616 0.74726 0.94193 0.0
H415 H 0.93837 0.74462 0.90214 0.0
H416 H 0.7301 0.63807 0.00694 0.0
H417 H 0.70458 0.62696 0.96628 0.0
H418 H 0.7854 0.63314 0.03411 0.0
H419 H 0.85137 0.66565 0.03885 0.0
C420 C 0.14434 0.8438 0.1569 0.0
C421 C 0.16817 0.8945 0.14317 0.0
C422 C 0.14139 0.85891 0.08624 0.0
C423 C 0.11304 0.80842 0.10027 0.0
N424 N 0.08399 0.75173 0.14854 0.0
N425 N 0.1841 0.95151 0.09582 0.0
C426 C 0.11362 0.80048 0.13553 0.0
C427 C 0.16548 0.90241 0.10809 0.0
N428 N 0.15169 0.83727 0.19018 0.0
N429 N 0.14573 0.86527 0.05201 0.0
H430 H 0.20253 -0.01534 0.11088 0.0
H431 H 0.17788 0.95938 0.07123 0.0
H432 H 0.12759 0.83449 0.03506 0.0
H433 H 0.17063 0.90044 0.04035 0.0
H434 H 0.1395 0.80131 0.2012 0.0
H435 H 0.17334 0.86845 0.20641 0.0
H436 H 0.07831 0.74387 0.17424 0.0
H437 H 0.06257 0.71902 0.13342 0.0
C438 C 0.28562 0.17678 0.25451 0.0
C439 C 0.28834 0.13462 0.26815 0.0
C440 C 0.25873 0.14675 0.32271 0.0
C441 C 0.25852 0.19051 0.30937 0.0
N442 N 0.28505 0.25528 0.26534 0.0
N443 N 0.28676 0.08502 0.31647 0.0
C444 C 0.27669 0.2084 0.2763 0.0
C445 C 0.27762 0.1212 0.30269 0.0
N446 N 0.28771 0.18447 0.22038 0.0
N447 N 0.24048 0.12945 0.35439 0.0
H448 H 0.30079 0.06582 0.30249 0.0
H449 H 0.28452 0.07705 0.34218 0.0
H450 H 0.23004 0.14953 0.37064 0.0
H451 H 0.23363 0.0942 0.36405 0.0
H452 H 0.27994 0.21084 0.20885 0.0
H453 H 0.2916 0.16074 0.20314 0.0
H454 H 0.30332 0.27225 0.24276 0.0
H455 H 0.27872 0.27991 0.28004 0.0
C456 C 0.12952 0.3014 0.46755 0.0
C457 C 0.12003 0.29036 0.43259 0.0
C458 C 0.02851 0.25337 0.44095 0.0
C459 C 0.03772 0.2621 0.47618 0.0
N460 N 0.09463 0.28949 0.524 0.0
N461 N 0.06197 0.25495 0.38536 0.0
C462 C 0.08765 0.28487 0.48979 0.0
C463 C 0.06988 0.26627 0.41908 0.0
N464 N 0.17868 0.32881 0.4792 0.0
N465 N -0.01995 0.23309 0.4285 0.0
H466 H 0.09158 0.26693 0.36825 0.0
H467 H 0.02637 0.23214 0.37413 0.0
H468 H 0.94831 0.22035 0.44384 0.0
H469 H -0.02911 0.23056 0.40301 0.0
H470 H 0.18887 0.34275 0.50373 0.0
H471 H 0.21005 0.34063 0.4636 0.0
H472 H 0.12912 0.3008 0.53604 0.0
H473 H 0.06482 0.27909 0.54078 0.0
C474 C 0.76384 0.1147 0.58868 0.0
C475 C 0.805 0.1611 0.60239 0.0
C476 C 0.78627 0.12243 0.6589 0.0
C477 C 0.74408 0.07667 0.64528 0.0
N478 N 0.68583 0.03339 0.59873 0.0
N479 N 0.85048 0.21336 0.65071 0.0
C480 C 0.73041 0.07438 0.61073 0.0
C481 C 0.81476 0.16626 0.63763 0.0
N482 N 0.75866 0.10758 0.55448 0.0
N483 N 0.79947 0.12354 0.69205 0.0
H484 H 0.87201 0.24606 0.63572 0.0
H485 H 0.85613 0.22124 0.67644 0.0
H486 H 0.77734 0.09345 0.70879 0.0
H487 H 0.83323 0.15307 0.70266 0.0
H488 H 0.73333 0.07221 0.54307 0.0
H489 H 0.78292 0.13551 0.53724 0.0
H490 H 0.67122 0.03264 0.57478 0.0
H491 H 0.66083 0.00201 0.61353 0.0
C492 C 0.10923 0.33207 0.25748 0.0
C493 C 0.14912 0.3214 0.25926 0.0
C494 C 0.1566 0.32733 0.19776 0.0
C495 C 0.11041 0.32727 0.19573 0.0
N496 N 0.04243 0.33083 0.22375 0.0
N497 N 0.2102 0.30676 0.23116 0.0
C498 C 0.0871 0.33111 0.22559 0.0
C499 C 0.17337 0.31943 0.22945 0.0
N500 N 0.09297 0.34359 0.28635 0.0
N501 N 0.18453 0.33544 0.16927 0.0
H502 H 0.22372 0.30088 0.25388 0.0
H503 H 0.22476 0.29844 0.21007 0.0
H504 H 0.17356 0.34262 0.14585 0.0
H505 H 0.22083 0.34054 0.16944 0.0
H506 H 0.06752 0.35674 0.28659 0.0
H507 H 0.10874 0.34472 0.31001 0.0
H508 H 0.0202 0.32632 0.24467 0.0
H509 H 0.02583 0.33251 0.20116 0.0
C510 C 0.83534 0.20261 0.3993 0.0
C511 C 0.80937 0.17572 0.42907 0.0
C512 C 0.74286 0.10512 0.39505 0.0
C513 C 0.76882 0.13176 0.3653 0.0
N514 N 0.83108 0.21133 0.33864 0.0
N515 N 0.73141 0.11063 0.45497 0.0
C516 C 0.81226 0.18242 0.36733 0.0
C517 C 0.76073 0.12995 0.42677 0.0
N518 N 0.88321 0.24551 0.40124 0.0
N519 N 0.7032 0.05494 0.39333 0.0
H520 H 0.74311 0.12886 0.47842 0.0
H521 H 0.6937 0.08006 0.4544 0.0
H522 H 0.68899 0.03509 0.37068 0.0
H523 H 0.68698 0.03163 0.41448 0.0
H524 H 0.90633 0.26243 0.38031 0.0
H525 H 0.90167 0.26246 0.42388 0.0
H526 H 0.85958 0.25039 0.33871 0.0
H527 H 0.81462 0.1976 0.31491 0.0
C528 C 0.60543 0.8541 0.56798 0.0
C529 C 0.60877 0.83075 0.59836 0.0
C530 C 0.61188 0.76321 0.56615 0.0
C531 C 0.60982 0.78722 0.53574 0.0
N532 N 0.58942 0.8453 0.50759 0.0
N533 N 0.5982 0.75489 0.62656 0.0
C534 C 0.60157 0.8294 0.53667 0.0
C535 C 0.60633 0.78247 0.59743 0.0
N536 N 0.60892 0.90122 0.56873 0.0
N537 N 0.6224 0.72429 0.56541 0.0
H538 H 0.59267 0.76766 0.64968 0.0
H539 H 0.59149 0.71725 0.62721 0.0
H540 H 0.62642 0.70871 0.54312 0.0
H541 H 0.63073 0.70993 0.5869 0.0
H542 H 0.61379 0.92333 0.54726 0.0
H543 H 0.60972 0.91976 0.59099 0.0
H544 H 0.57826 0.87264 0.50696 0.0
H545 H 0.58554 0.82723 0.48442 0.0
C546 C 0.82827 0.62573 0.72756 0.0
C547 C 0.80345 0.62646 0.69728 0.0
C548 C 0.73545 0.62572 0.72981 0.0
C549 C 0.76198 0.62845 0.76004 0.0
N550 N 0.82327 0.61398 0.78835 0.0
N551 N 0.72627 0.60933 0.66949 0.0
C552 C 0.80507 0.62279 0.75905 0.0
C553 C 0.75456 0.62057 0.69846 0.0
N554 N 0.87516 0.63078 0.72645 0.0
N555 N 0.69383 0.63105 0.73072 0.0
H556 H 0.73909 0.60406 0.6464 0.0
H557 H 0.68847 0.59993 0.66889 0.0
H558 H 0.67689 0.6323 0.75303 0.0
H559 H 0.6774 0.63676 0.70931 0.0
H560 H 0.89814 0.63786 0.74765 0.0
H561 H 0.89248 0.63027 0.70413 0.0
H562 H 0.85164 0.60473 0.78924 0.0
H563 H 0.80629 0.61077 0.81166 0.0
C564 C 0.10273 0.78684 0.86564 0.0
C565 C 0.14775 0.83639 0.86392 0.0
C566 C 0.15588 0.83778 0.92554 0.0
C567 C 0.10648 0.793 0.92735 0.0
N568 N 0.03099 0.72546 0.89915 0.0
N569 N 0.2168 0.91096 0.89226 0.0
C570 C 0.07961 0.76712 0.89743 0.0
C571 C 0.17475 0.86214 0.89385 0.0
N572 N 0.08274 0.75824 0.83685 0.0
N573 N 0.18507 0.85637 0.95414 0.0
H574 H 0.23289 0.92999 0.86969 0.0
H575 H 0.23387 0.93422 0.9134 0.0
H576 H 0.17254 0.83872 0.97764 0.0
H577 H 0.22325 0.88582 0.95409 0.0
H578 H 0.05284 0.71977 0.83675 0.0
H579 H 0.09946 0.77129 0.81327 0.0
H580 H 0.00726 0.7095 0.87815 0.0
H581 H 0.01276 0.70876 0.92176 0.0
C582 C 0.29928 0.10688 0.06656 0.0
C583 C 0.29984 0.13302 0.0965 0.0
C584 C 0.2993 0.20133 0.06297 0.0
C585 C 0.29865 0.17515 0.03303 0.0
N586 N 0.31276 0.11206 0.00613 0.0
N587 N 0.31535 0.21162 0.12326 0.0
C588 C 0.30339 0.13076 0.03481 0.0
C589 C 0.30465 0.18241 0.09467 0.0
N590 N 0.29198 0.05809 0.06817 0.0
N591 N 0.29197 0.24243 0.0614 0.0
H592 H 0.32075 0.19921 0.14669 0.0
H593 H 0.32412 0.24999 0.12319 0.0
H594 H 0.28881 0.25842 0.03885 0.0
H595 H 0.2854 0.2585 0.08256 0.0
H596 H 0.28446 0.03462 0.04707 0.0
H597 H 0.28982 0.03926 0.09073 0.0
H598 H 0.32154 0.08291 0.00616 0.0
H599 H 0.31694 0.12939 -0.01742 0.0
loop_
_geom_bond_atom_site_label_1
_geom_bond_atom_site_label_2
_geom_bond_distance
_geom_bond_site_symmetry_2
_ccdc_geom_bond_type
C0 O1 1.306 . S
C0 O3 1.160 . S
O1 C0 1.306 . S
O1 Cd2 2.228 1_655 S
Cd2 O1 2.228 1_455 S
Cd2 O6 2.273 . S
Cd2 O10 2.277 . S
O3 C0 1.160 . S
O3 Cd4 2.203 1_655 S
Cd4 O3 2.203 1_455 S
Cd4 O6 2.411 . S
Cd4 O7 2.333 . S
Cd4 O8 2.352 . S
Cd4 O12 2.277 . S
Cd4 O13 2.356 . S
C5 O10 1.209 . S
C5 O12 1.226 . S
O6 Cd2 2.273 . S
O6 Cd4 2.411 . S
O6 C9 1.320 . S
O7 Cd4 2.333 . S
O7 C9 1.214 . S
O8 Cd4 2.352 . S
O8 C11 1.258 . S
C9 O6 1.320 . S
C9 O7 1.214 . S
O10 Cd2 2.277 . S
O10 C5 1.209 . S
C11 O8 1.258 . S
C11 O13 1.282 . S
O12 Cd4 2.277 . S
O12 C5 1.226 . S
O13 Cd4 2.356 . S
O13 C11 1.282 . S
C14 O15 1.306 . S
C14 O17 1.160 . S
O15 C14 1.306 . S
O15 Cd16 2.228 1_565 S
Cd16 O15 2.228 1_545 S
Cd16 O20 2.273 . S
Cd16 O24 2.277 . S
O17 C14 1.160 . S
O17 Cd18 2.203 1_565 S
Cd18 O17 2.203 1_545 S
Cd18 O20 2.411 . S
Cd18 O21 2.333 . S
Cd18 O22 2.352 . S
Cd18 O26 2.277 . S
Cd18 O27 2.356 . S
C19 O24 1.209 . S
C19 O26 1.226 . S
O20 Cd16 2.273 . S
O20 Cd18 2.411 . S
O20 C23 1.320 . S
O21 Cd18 2.333 . S
O21 C23 1.214 . S
O22 Cd18 2.352 . S
O22 C25 1.258 . S
C23 O20 1.320 . S
C23 O21 1.214 . S
O24 Cd16 2.277 . S
O24 C19 1.209 . S
C25 O22 1.258 . S
C25 O27 1.282 . S
O26 Cd18 2.277 . S
O26 C19 1.226 . S
O27 Cd18 2.356 . S
O27 C25 1.282 . S
C28 O29 1.306 . S
C28 O31 1.160 . S
O29 C28 1.306 . S
O29 Cd30 2.228 . S
Cd30 O29 2.228 . S
Cd30 O34 2.273 . S
Cd30 O38 2.277 . S
O31 C28 1.160 . S
O31 Cd32 2.203 . S
Cd32 O31 2.203 . S
Cd32 O34 2.411 . S
Cd32 O35 2.333 . S
Cd32 O36 2.352 . S
Cd32 O40 2.277 . S
Cd32 O41 2.356 . S
C33 O38 1.209 . S
C33 O40 1.226 . S
O34 Cd30 2.273 . S
O34 Cd32 2.411 . S
O34 C37 1.320 . S
O35 Cd32 2.333 . S
O35 C37 1.214 . S
O36 Cd32 2.352 . S
O36 C39 1.258 . S
C37 O34 1.320 . S
C37 O35 1.214 . S
O38 Cd30 2.277 . S
O38 C33 1.209 . S
C39 O36 1.258 . S
C39 O41 1.282 . S
O40 Cd32 2.277 . S
O40 C33 1.226 . S
O41 Cd32 2.356 . S
O41 C39 1.282 . S
C42 O43 1.306 . S
C42 O45 1.160 . S
O43 C42 1.306 . S
O43 Cd44 2.228 1_455 S
Cd44 O43 2.228 1_655 S
Cd44 O48 2.273 . S
Cd44 O52 2.277 . S
O45 C42 1.160 . S
O45 Cd46 2.203 1_455 S
Cd46 O45 2.203 1_655 S
Cd46 O48 2.411 . S
Cd46 O49 2.333 . S
Cd46 O50 2.352 . S
Cd46 O54 2.277 . S
Cd46 O55 2.356 . S
C47 O52 1.209 . S
C47 O54 1.226 . S
O48 Cd44 2.273 . S
O48 Cd46 2.411 . S
O48 C51 1.320 . S
O49 Cd46 2.333 . S
O49 C51 1.214 . S
O50 Cd46 2.352 . S
O50 C53 1.258 . S
C51 O48 1.320 . S
C51 O49 1.214 . S
O52 Cd44 2.277 . S
O52 C47 1.209 . S
C53 O50 1.258 . S
C53 O55 1.282 . S
O54 Cd46 2.277 . S
O54 C47 1.226 . S
O55 Cd46 2.356 . S
O55 C53 1.282 . S
C56 O57 1.306 . S
C56 O59 1.160 . S
O57 C56 1.306 . S
O57 Cd58 2.228 1_545 S
Cd58 O57 2.228 1_565 S
Cd58 O62 2.273 . S
Cd58 O66 2.277 . S
O59 C56 1.160 . S
O59 Cd60 2.203 1_545 S
Cd60 O59 2.203 1_565 S
Cd60 O62 2.411 . S
Cd60 O63 2.333 . S
Cd60 O64 2.352 . S
Cd60 O68 2.277 . S
Cd60 O69 2.356 . S
C61 O66 1.209 . S
C61 O68 1.226 . S
O62 Cd58 2.273 . S
O62 Cd60 2.411 . S
O62 C65 1.320 . S
O63 Cd60 2.333 . S
O63 C65 1.214 . S
O64 Cd60 2.352 . S
O64 C67 1.258 . S
C65 O62 1.320 . S
C65 O63 1.214 . S
O66 Cd58 2.277 . S
O66 C61 1.209 . S
C67 O64 1.258 . S
C67 O69 1.282 . S
O68 Cd60 2.277 . S
O68 C61 1.226 . S
O69 Cd60 2.356 . S
O69 C67 1.282 . S
C70 O71 1.306 . S
C70 O73 1.160 . S
O71 C70 1.306 . S
O71 Cd72 2.228 . S
Cd72 O71 2.228 . S
Cd72 O76 2.273 . S
Cd72 O80 2.277 1_556 S
O73 C70 1.160 . S
O73 Cd74 2.203 . S
Cd74 O73 2.203 . S
Cd74 O76 2.411 . S
Cd74 O77 2.333 . S
Cd74 O78 2.352 . S
Cd74 O82 2.277 1_556 S
Cd74 O83 2.356 . S
C75 O80 1.209 . S
C75 O82 1.226 . S
O76 Cd72 2.273 . S
O76 Cd74 2.411 . S
O76 C79 1.320 . S
O77 Cd74 2.333 . S
O77 C79 1.214 . S
O78 Cd74 2.352 . S
O78 C81 1.258 . S
C79 O76 1.320 . S
C79 O77 1.214 . S
O80 Cd72 2.277 1_554 S
O80 C75 1.209 . S
C81 O78 1.258 . S
C81 O83 1.282 . S
O82 Cd74 2.277 1_554 S
O82 C75 1.226 . S
O83 Cd74 2.356 . S
O83 C81 1.282 . S
C84 O85 1.306 . S
C84 O87 1.160 . S
O85 C84 1.306 . S
O85 Cd86 2.228 1_545 S
Cd86 O85 2.228 1_565 S
Cd86 O90 2.273 . S
Cd86 O94 2.277 . S
O87 C84 1.160 . S
O87 Cd88 2.203 1_545 S
Cd88 O87 2.203 1_565 S
Cd88 O90 2.411 . S
Cd88 O91 2.333 . S
Cd88 O92 2.352 . S
Cd88 O96 2.277 . S
Cd88 O97 2.356 . S
C89 O94 1.209 . S
C89 O96 1.226 . S
O90 Cd86 2.273 . S
O90 Cd88 2.411 . S
O90 C93 1.320 . S
O91 Cd88 2.333 . S
O91 C93 1.214 . S
O92 Cd88 2.352 . S
O92 C95 1.258 . S
C93 O90 1.320 . S
C93 O91 1.214 . S
O94 Cd86 2.277 . S
O94 C89 1.209 . S
C95 O92 1.258 . S
C95 O97 1.282 . S
O96 Cd88 2.277 . S
O96 C89 1.226 . S
O97 Cd88 2.356 . S
O97 C95 1.282 . S
C98 O99 1.306 . S
C98 O101 1.160 . S
O99 C98 1.306 . S
O99 Cd100 2.228 . S
Cd100 O99 2.228 . S
Cd100 O104 2.273 . S
Cd100 O108 2.277 . S
O101 C98 1.160 . S
O101 Cd102 2.203 . S
Cd102 O101 2.203 . S
Cd102 O104 2.411 . S
Cd102 O105 2.333 . S
Cd102 O106 2.352 . S
Cd102 O110 2.277 . S
Cd102 O111 2.356 . S
C103 O108 1.209 . S
C103 O110 1.226 . S
O104 Cd100 2.273 . S
O104 Cd102 2.411 . S
O104 C107 1.320 . S
O105 Cd102 2.333 . S
O105 C107 1.214 . S
O106 Cd102 2.352 . S
O106 C109 1.258 . S
C107 O104 1.320 . S
C107 O105 1.214 . S
O108 Cd100 2.277 . S
O108 C103 1.209 . S
C109 O106 1.258 . S
C109 O111 1.282 . S
O110 Cd102 2.277 . S
O110 C103 1.226 . S
O111 Cd102 2.356 . S
O111 C109 1.282 . S
C112 O113 1.306 . S
C112 O115 1.160 . S
O113 C112 1.306 . S
O113 Cd114 2.228 1_655 S
Cd114 O113 2.228 1_455 S
Cd114 O118 2.273 . S
Cd114 O122 2.277 1_554 S
O115 C112 1.160 . S
O115 Cd116 2.203 1_655 S
Cd116 O115 2.203 1_455 S
Cd116 O118 2.411 . S
Cd116 O119 2.333 . S
Cd116 O120 2.352 . S
Cd116 O124 2.277 1_554 S
Cd116 O125 2.356 . S
C117 O122 1.209 . S
C117 O124 1.226 . S
O118 Cd114 2.273 . S
O118 Cd116 2.411 . S
O118 C121 1.320 . S
O119 Cd116 2.333 . S
O119 C121 1.214 . S
O120 Cd116 2.352 . S
O120 C123 1.258 . S
C121 O118 1.320 . S
C121 O119 1.214 . S
O122 Cd114 2.277 1_556 S
O122 C117 1.209 . S
C123 O120 1.258 . S
C123 O125 1.282 . S
O124 Cd116 2.277 1_556 S
O124 C117 1.226 . S
O125 Cd116 2.356 . S
O125 C123 1.282 . S
C126 O127 1.306 . S
C126 O129 1.160 . S
O127 C126 1.306 . S
O127 Cd128 2.228 1_565 S
Cd128 O127 2.228 1_545 S
Cd128 O132 2.273 . S
Cd128 O136 2.277 . S
O129 C126 1.160 . S
O129 Cd130 2.203 1_565 S
Cd130 O129 2.203 1_545 S
Cd130 O132 2.411 . S
Cd130 O133 2.333 . S
Cd130 O134 2.352 . S
Cd130 O138 2.277 . S
Cd130 O139 2.356 . S
C131 O136 1.209 . S
C131 O138 1.226 . S
O132 Cd128 2.273 . S
O132 Cd130 2.411 . S
O132 C135 1.320 . S
O133 Cd130 2.333 . S
O133 C135 1.214 . S
O134 Cd130 2.352 . S
O134 C137 1.258 . S
C135 O132 1.320 . S
C135 O133 1.214 . S
O136 Cd128 2.277 . S
O136 C131 1.209 . S
C137 O134 1.258 . S
C137 O139 1.282 . S
O138 Cd130 2.277 . S
O138 C131 1.226 . S
O139 Cd130 2.356 . S
O139 C137 1.282 . S
C140 O141 1.306 . S
C140 O143 1.160 . S
O141 C140 1.306 . S
O141 Cd142 2.228 . S
Cd142 O141 2.228 . S
Cd142 O146 2.273 . S
Cd142 O150 2.277 . S
O143 C140 1.160 . S
O143 Cd144 2.203 . S
Cd144 O143 2.203 . S
Cd144 O146 2.411 . S
Cd144 O147 2.333 . S
Cd144 O148 2.352 . S
Cd144 O152 2.277 . S
Cd144 O153 2.356 . S
C145 O150 1.209 . S
C145 O152 1.226 . S
O146 Cd142 2.273 . S
O146 Cd144 2.411 . S
O146 C149 1.320 . S
O147 Cd144 2.333 . S
O147 C149 1.214 . S
O148 Cd144 2.352 . S
O148 C151 1.258 . S
C149 O146 1.320 . S
C149 O147 1.214 . S
O150 Cd142 2.277 . S
O150 C145 1.209 . S
C151 O148 1.258 . S
C151 O153 1.282 . S
O152 Cd144 2.277 . S
O152 C145 1.226 . S
O153 Cd144 2.356 . S
O153 C151 1.282 . S
C154 O155 1.306 . S
C154 O157 1.160 . S
O155 C154 1.306 . S
O155 Cd156 2.228 1_455 S
Cd156 O155 2.228 1_655 S
Cd156 O160 2.273 . S
Cd156 O164 2.277 . S
O157 C154 1.160 . S
O157 Cd158 2.203 1_455 S
Cd158 O157 2.203 1_655 S
Cd158 O160 2.411 . S
Cd158 O161 2.333 . S
Cd158 O162 2.352 . S
Cd158 O166 2.277 . S
Cd158 O167 2.356 . S
C159 O164 1.209 . S
C159 O166 1.226 . S
O160 Cd156 2.273 . S
O160 Cd158 2.411 . S
O160 C163 1.320 . S
O161 Cd158 2.333 . S
O161 C163 1.214 . S
O162 Cd158 2.352 . S
O162 C165 1.258 . S
C163 O160 1.320 . S
C163 O161 1.214 . S
O164 Cd156 2.277 . S
O164 C159 1.209 . S
C165 O162 1.258 . S
C165 O167 1.282 . S
O166 Cd158 2.277 . S
O166 C159 1.226 . S
O167 Cd158 2.356 . S
O167 C165 1.282 . S
C168 C169 1.363 . S
C168 C174 1.379 . S
C168 N176 1.356 . S
C169 C168 1.363 . S
C169 C175 1.363 . S
C170 C171 1.363 . S
C170 C175 1.379 . S
C170 N177 1.356 1_455 S
C171 C170 1.363 . S
C171 C174 1.363 . S
N172 C174 1.356 . S
N172 H184 0.984 . S
N172 H185 0.985 . S
N173 C175 1.356 1_655 S
N173 H178 0.984 . S
N173 H179 0.985 . S
C174 C168 1.379 . S
C174 C171 1.363 . S
C174 N172 1.356 . S
C175 C169 1.363 . S
C175 C170 1.379 . S
C175 N173 1.356 1_455 S
N176 C168 1.356 . S
N176 H182 0.984 . S
N176 H183 0.984 . S
N177 C170 1.356 1_655 S
N177 H180 0.984 . S
N177 H181 0.985 . S
H178 N173 0.984 . S
H179 N173 0.985 . S
H180 N177 0.984 . S
H181 N177 0.985 . S
H182 N176 0.984 . S
H183 N176 0.984 . S
H184 N172 0.984 . S
H185 N172 0.985 . S
C186 C187 1.363 1_565 S
C186 C192 1.379 . S
C186 N194 1.356 . S
C187 C186 1.363 1_545 S
C187 C193 1.363 . S
C188 C189 1.363 . S
C188 C193 1.379 . S
C188 N195 1.356 . S
C189 C188 1.363 . S
C189 C192 1.363 1_545 S
N190 C192 1.356 . S
N190 H202 0.984 . S
N190 H203 0.985 . S
N191 C193 1.356 . S
N191 H196 0.984 . S
N191 H197 0.985 . S
C192 C186 1.379 . S
C192 C189 1.363 1_565 S
C192 N190 1.356 . S
C193 C187 1.363 . S
C193 C188 1.379 . S
C193 N191 1.356 . S
N194 C186 1.356 . S
N194 H200 0.984 . S
N194 H201 0.984 . S
N195 C188 1.356 . S
N195 H198 0.984 . S
N195 H199 0.985 . S
H196 N191 0.984 . S
H197 N191 0.985 . S
H198 N195 0.984 . S
H199 N195 0.985 . S
H200 N194 0.984 . S
H201 N194 0.984 . S
H202 N190 0.984 . S
H203 N190 0.985 . S
C204 C205 1.363 . S
C204 C210 1.379 . S
C204 N212 1.356 . S
C205 C204 1.363 . S
C205 C211 1.363 . S
C206 C207 1.363 . S
C206 C211 1.379 . S
C206 N213 1.356 . S
C207 C206 1.363 . S
C207 C210 1.363 . S
N208 C210 1.356 . S
N208 H220 0.984 . S
N208 H221 0.985 . S
N209 C211 1.356 . S
N209 H214 0.984 . S
N209 H215 0.985 . S
C210 C204 1.379 . S
C210 C207 1.363 . S
C210 N208 1.356 . S
C211 C205 1.363 . S
C211 C206 1.379 . S
C211 N209 1.356 . S
N212 C204 1.356 . S
N212 H218 0.984 . S
N212 H219 0.984 . S
N213 C206 1.356 . S
N213 H216 0.984 . S
N213 H217 0.985 . S
H214 N209 0.984 . S
H215 N209 0.985 . S
H216 N213 0.984 . S
H217 N213 0.985 . S
H218 N212 0.984 . S
H219 N212 0.984 . S
H220 N208 0.984 . S
H221 N208 0.985 . S
C222 C223 1.363 . S
C222 C228 1.379 . S
C222 N230 1.356 . S
C223 C222 1.363 . S
C223 C229 1.363 . S
C224 C225 1.363 . S
C224 C229 1.379 . S
C224 N231 1.356 . S
C225 C224 1.363 . S
C225 C228 1.363 . S
N226 C228 1.356 . S
N226 H238 0.984 1_655 S
N226 H239 0.985 . S
N227 C229 1.356 . S
N227 H232 0.984 . S
N227 H233 0.985 . S
C228 C222 1.379 . S
C228 C225 1.363 . S
C228 N226 1.356 . S
C229 C223 1.363 . S
C229 C224 1.379 . S
C229 N227 1.356 . S
N230 C222 1.356 . S
N230 H236 0.984 1_655 S
N230 H237 0.984 . S
N231 C224 1.356 . S
N231 H234 0.984 . S
N231 H235 0.985 . S
H232 N227 0.984 . S
H233 N227 0.985 . S
H234 N231 0.984 . S
H235 N231 0.985 . S
H236 N230 0.984 1_455 S
H237 N230 0.984 . S
H238 N226 0.984 1_455 S
H239 N226 0.985 . S
C240 C241 1.363 . S
C240 C246 1.379 . S
C240 N248 1.356 . S
C241 C240 1.363 . S
C241 C247 1.363 1_565 S
C242 C243 1.363 1_545 S
C242 C247 1.379 . S
C242 N249 1.356 . S
C243 C242 1.363 1_565 S
C243 C246 1.363 . S
N244 C246 1.356 . S
N244 H256 0.984 . S
N244 H257 0.985 . S
N245 C247 1.356 . S
N245 H250 0.984 . S
N245 H251 0.985 . S
C246 C240 1.379 . S
C246 C243 1.363 . S
C246 N244 1.356 . S
C247 C241 1.363 1_545 S
C247 C242 1.379 . S
C247 N245 1.356 . S
N248 C240 1.356 . S
N248 H254 0.984 . S
N248 H255 0.984 . S
N249 C242 1.356 . S
N249 H252 0.984 . S
N249 H253 0.985 . S
H250 N245 0.984 . S
H251 N245 0.985 . S
H252 N249 0.984 . S
H253 N249 0.985 . S
H254 N248 0.984 . S
H255 N248 0.984 . S
H256 N244 0.984 . S
H257 N244 0.985 . S
C258 C259 1.363 . S
C258 C264 1.379 . S
C258 N266 1.356 . S
C259 C258 1.363 . S
C259 C265 1.363 . S
C260 C261 1.363 . S
C260 C265 1.379 . S
C260 N267 1.356 . S
C261 C260 1.363 . S
C261 C264 1.363 . S
N262 C264 1.356 . S
N262 H274 0.984 . S
N262 H275 0.985 . S
N263 C265 1.356 . S
N263 H268 0.984 . S
N263 H269 0.985 . S
C264 C258 1.379 . S
C264 C261 1.363 . S
C264 N262 1.356 . S
C265 C259 1.363 . S
C265 C260 1.379 . S
C265 N263 1.356 . S
N266 C258 1.356 . S
N266 H272 0.982 . S
N266 H273 0.984 . S
N267 C260 1.356 . S
N267 H270 0.984 . S
N267 H271 0.985 . S
H268 N263 0.984 . S
H269 N263 0.985 . S
H270 N267 0.984 . S
H271 N267 0.985 . S
H272 N266 0.982 . S
H273 N266 0.984 . S
H274 N262 0.984 . S
H275 N262 0.985 . S
C276 C277 1.363 . S
C276 C282 1.379 . S
C276 N284 1.356 . S
C277 C276 1.363 . S
C277 C283 1.363 . S
C278 C279 1.363 . S
C278 C283 1.379 . S
C278 N285 1.356 1_554 S
C279 C278 1.363 . S
C279 C282 1.363 . S
N280 C282 1.356 . S
N280 H292 0.984 . S
N280 H293 0.985 . S
N281 C283 1.356 . S
N281 H286 0.984 . S
N281 H287 0.985 . S
C282 C276 1.379 . S
C282 C279 1.363 . S
C282 N280 1.356 . S
C283 C277 1.363 . S
C283 C278 1.379 . S
C283 N281 1.356 . S
N284 C276 1.356 . S
N284 H290 0.984 . S
N284 H291 0.984 . S
N285 C278 1.356 1_556 S
N285 H288 0.984 . S
N285 H289 0.985 . S
H286 N281 0.984 . S
H287 N281 0.985 . S
H288 N285 0.984 . S
H289 N285 0.985 . S
H290 N284 0.984 . S
H291 N284 0.984 . S
H292 N280 0.984 . S
H293 N280 0.985 . S
C294 C295 1.363 . S
C294 C300 1.379 . S
C294 N302 1.356 . S
C295 C294 1.363 . S
C295 C301 1.363 . S
C296 C297 1.363 . S
C296 C301 1.379 . S
C296 N303 1.356 . S
C297 C296 1.363 . S
C297 C300 1.363 . S
N298 C300 1.356 . S
N298 H310 0.984 . S
N298 H311 0.985 . S
N299 C301 1.356 . S
N299 H304 0.984 . S
N299 H305 0.985 . S
C300 C294 1.379 . S
C300 C297 1.363 . S
C300 N298 1.356 . S
C301 C295 1.363 . S
C301 C296 1.379 . S
C301 N299 1.356 . S
N302 C294 1.356 . S
N302 H308 0.984 . S
N302 H309 0.984 . S
N303 C296 1.356 . S
N303 H306 0.984 . S
N303 H307 0.985 . S
H304 N299 0.984 . S
H305 N299 0.985 . S
H306 N303 0.984 . S
H307 N303 0.985 . S
H308 N302 0.984 . S
H309 N302 0.984 . S
H310 N298 0.984 . S
H311 N298 0.985 . S
C312 C313 1.363 . S
C312 C318 1.379 . S
C312 N320 1.356 . S
C313 C312 1.363 . S
C313 C319 1.363 . S
C314 C315 1.363 . S
C314 C319 1.379 . S
C314 N321 1.356 . S
C315 C314 1.363 . S
C315 C318 1.363 . S
N316 C318 1.356 . S
N316 H328 0.984 . S
N316 H329 0.985 . S
N317 C319 1.356 . S
N317 H322 0.984 . S
N317 H323 0.985 . S
C318 C312 1.379 . S
C318 C315 1.363 . S
C318 N316 1.356 . S
C319 C313 1.363 . S
C319 C314 1.379 . S
C319 N317 1.356 . S
N320 C312 1.356 . S
N320 H326 0.984 . S
N320 H327 0.984 . S
N321 C314 1.356 . S
N321 H324 0.984 . S
N321 H325 0.985 . S
H322 N317 0.984 . S
H323 N317 0.985 . S
H324 N321 0.984 . S
H325 N321 0.985 . S
H326 N320 0.984 . S
H327 N320 0.984 . S
H328 N316 0.984 . S
H329 N316 0.985 . S
C330 C331 1.363 . S
C330 C336 1.379 . S
C330 N338 1.356 . S
C331 C330 1.363 . S
C331 C337 1.363 . S
C332 C333 1.363 . S
C332 C337 1.379 . S
C332 N339 1.356 . S
C333 C332 1.363 . S
C333 C336 1.363 . S
N334 C336 1.356 . S
N334 H346 0.984 . S
N334 H347 0.985 . S
N335 C337 1.356 . S
N335 H340 0.984 . S
N335 H341 0.985 . S
C336 C330 1.379 . S
C336 C333 1.363 . S
C336 N334 1.356 . S
C337 C331 1.363 . S
C337 C332 1.379 . S
C337 N335 1.356 . S
N338 C330 1.356 . S
N338 H344 0.984 . S
N338 H345 0.984 . S
N339 C332 1.356 . S
N339 H342 0.984 . S
N339 H343 0.985 . S
H340 N335 0.984 . S
H341 N335 0.985 . S
H342 N339 0.984 . S
H343 N339 0.985 . S
H344 N338 0.984 . S
H345 N338 0.984 . S
H346 N334 0.984 . S
H347 N334 0.985 . S
C348 C349 1.363 . S
C348 C354 1.379 . S
C348 N356 1.356 . S
C349 C348 1.363 . S
C349 C355 1.363 . S
C350 C351 1.363 . S
C350 C355 1.379 . S
C350 N357 1.356 . S
C351 C350 1.363 . S
C351 C354 1.363 . S
N352 C354 1.356 . S
N352 H364 0.984 . S
N352 H365 0.985 . S
N353 C355 1.356 . S
N353 H358 0.984 . S
N353 H359 0.985 . S
C354 C348 1.379 . S
C354 C351 1.363 . S
C354 N352 1.356 . S
C355 C349 1.363 . S
C355 C350 1.379 . S
C355 N353 1.356 . S
N356 C348 1.356 . S
N356 H362 0.984 . S
N356 H363 0.984 . S
N357 C350 1.356 . S
N357 H360 0.984 . S
N357 H361 0.985 . S
H358 N353 0.984 . S
H359 N353 0.985 . S
H360 N357 0.984 . S
H361 N357 0.985 . S
H362 N356 0.984 . S
H363 N356 0.984 . S
H364 N352 0.984 . S
H365 N352 0.985 . S
C366 C367 1.363 . S
C366 C372 1.379 . S
C366 N374 1.356 . S
C367 C366 1.363 . S
C367 C373 1.363 . S
C368 C369 1.363 . S
C368 C373 1.379 . S
C368 N375 1.356 . S
C369 C368 1.363 . S
C369 C372 1.363 . S
N370 C372 1.356 . S
N370 H382 0.984 . S
N370 H383 0.985 . S
N371 C373 1.356 . S
N371 H376 0.984 . S
N371 H377 0.985 . S
C372 C366 1.379 . S
C372 C369 1.363 . S
C372 N370 1.356 . S
C373 C367 1.363 . S
C373 C368 1.379 . S
C373 N371 1.356 . S
N374 C366 1.356 . S
N374 H380 0.984 . S
N374 H381 0.984 . S
N375 C368 1.356 . S
N375 H378 0.984 . S
N375 H379 0.985 . S
H376 N371 0.984 . S
H377 N371 0.985 . S
H378 N375 0.984 . S
H379 N375 0.985 . S
H380 N374 0.984 . S
H381 N374 0.984 . S
H382 N370 0.984 . S
H383 N370 0.985 . S
C384 C385 1.363 . S
C384 C390 1.379 . S
C384 N392 1.356 . S
C385 C384 1.363 . S
C385 C391 1.363 . S
C386 C387 1.363 . S
C386 C391 1.379 . S
C386 N393 1.356 . S
C387 C386 1.363 . S
C387 C390 1.363 . S
N388 C390 1.356 . S
N388 H400 0.984 . S
N388 H401 0.985 . S
N389 C391 1.356 . S
N389 H394 0.984 . S
N389 H395 0.985 . S
C390 C384 1.379 . S
C390 C387 1.363 . S
C390 N388 1.356 . S
C391 C385 1.363 . S
C391 C386 1.379 . S
C391 N389 1.356 . S
N392 C384 1.356 . S
N392 H398 0.984 . S
N392 H399 0.984 . S
N393 C386 1.356 . S
N393 H396 0.984 . S
N393 H397 0.985 . S
H394 N389 0.984 . S
H395 N389 0.985 . S
H396 N393 0.984 . S
H397 N393 0.985 . S
H398 N392 0.984 . S
H399 N392 0.984 . S
H400 N388 0.984 . S
H401 N388 0.985 . S
C402 C403 1.363 . S
C402 C408 1.379 . S
C402 N410 1.356 . S
C403 C402 1.363 . S
C403 C409 1.363 . S
C404 C405 1.363 . S
C404 C409 1.379 . S
C404 N411 1.356 . S
C405 C404 1.363 . S
C405 C408 1.363 . S
N406 C408 1.356 1_554 S
N406 H418 0.984 . S
N406 H419 0.985 . S
N407 C409 1.356 . S
N407 H412 0.984 . S
N407 H413 0.985 . S
C408 C402 1.379 . S
C408 C405 1.363 . S
C408 N406 1.356 1_556 S
C409 C403 1.363 . S
C409 C404 1.379 . S
C409 N407 1.356 . S
N410 C402 1.356 . S
N410 H416 0.984 . S
N410 H417 0.984 . S
N411 C404 1.356 . S
N411 H414 0.984 . S
N411 H415 0.985 . S
H412 N407 0.984 . S
H413 N407 0.985 . S
H414 N411 0.984 . S
H415 N411 0.985 . S
H416 N410 0.984 . S
H417 N410 0.984 . S
H418 N406 0.984 . S
H419 N406 0.985 . S
C420 C421 1.363 . S
C420 C426 1.379 . S
C420 N428 1.356 . S
C421 C420 1.363 . S
C421 C427 1.363 . S
C422 C423 1.363 . S
C422 C427 1.379 . S
C422 N429 1.356 . S
C423 C422 1.363 . S
C423 C426 1.363 . S
N424 C426 1.356 . S
N424 H436 0.984 . S
N424 H437 0.985 . S
N425 C427 1.356 . S
N425 H430 0.984 . S
N425 H431 0.985 . S
C426 C420 1.379 . S
C426 C423 1.363 . S
C426 N424 1.356 . S
C427 C421 1.363 . S
C427 C422 1.379 . S
C427 N425 1.356 . S
N428 C420 1.356 . S
N428 H434 0.984 . S
N428 H435 0.984 . S
N429 C422 1.356 . S
N429 H432 0.984 . S
N429 H433 0.985 . S
H430 N425 0.984 . S
H431 N425 0.985 . S
H432 N429 0.984 . S
H433 N429 0.985 . S
H434 N428 0.984 . S
H435 N428 0.984 . S
H436 N424 0.984 . S
H437 N424 0.985 . S
C438 C439 1.363 . S
C438 C444 1.379 . S
C438 N446 1.356 . S
C439 C438 1.363 . S
C439 C445 1.363 . S
C440 C441 1.363 . S
C440 C445 1.379 . S
C440 N447 1.356 . S
C441 C440 1.363 . S
C441 C444 1.363 . S
N442 C444 1.356 . S
N442 H454 0.984 . S
N442 H455 0.985 . S
N443 C445 1.356 . S
N443 H448 0.984 . S
N443 H449 0.985 . S
C444 C438 1.379 . S
C444 C441 1.363 . S
C444 N442 1.356 . S
C445 C439 1.363 . S
C445 C440 1.379 . S
C445 N443 1.356 . S
N446 C438 1.356 . S
N446 H452 0.984 . S
N446 H453 0.984 . S
N447 C440 1.356 . S
N447 H450 0.984 . S
N447 H451 0.985 . S
H448 N443 0.984 . S
H449 N443 0.985 . S
H450 N447 0.984 . S
H451 N447 0.985 . S
H452 N446 0.984 . S
H453 N446 0.984 . S
H454 N442 0.984 . S
H455 N442 0.985 . S
C456 C457 1.363 . S
C456 C462 1.379 . S
C456 N464 1.356 . S
C457 C456 1.363 . S
C457 C463 1.363 . S
C458 C459 1.363 . S
C458 C463 1.379 . S
C458 N465 1.356 . S
C459 C458 1.363 . S
C459 C462 1.363 . S
N460 C462 1.356 . S
N460 H472 0.984 . S
N460 H473 0.985 . S
N461 C463 1.356 . S
N461 H466 0.984 . S
N461 H467 0.985 . S
C462 C456 1.379 . S
C462 C459 1.363 . S
C462 N460 1.356 . S
C463 C457 1.363 . S
C463 C458 1.379 . S
C463 N461 1.356 . S
N464 C456 1.356 . S
N464 H470 0.984 . S
N464 H471 0.984 . S
N465 C458 1.356 . S
N465 H468 0.984 . S
N465 H469 0.985 . S
H466 N461 0.984 . S
H467 N461 0.985 . S
H468 N465 0.984 . S
H469 N465 0.985 . S
H470 N464 0.984 . S
H471 N464 0.984 . S
H472 N460 0.984 . S
H473 N460 0.985 . S
C474 C475 1.363 . S
C474 C480 1.379 . S
C474 N482 1.356 . S
C475 C474 1.363 . S
C475 C481 1.363 . S
C476 C477 1.363 . S
C476 C481 1.379 . S
C476 N483 1.356 . S
C477 C476 1.363 . S
C477 C480 1.363 . S
N478 C480 1.356 . S
N478 H490 0.984 . S
N478 H491 0.985 . S
N479 C481 1.356 . S
N479 H484 0.984 . S
N479 H485 0.985 . S
C480 C474 1.379 . S
C480 C477 1.363 . S
C480 N478 1.356 . S
C481 C475 1.363 . S
C481 C476 1.379 . S
C481 N479 1.356 . S
N482 C474 1.356 . S
N482 H488 0.984 . S
N482 H489 0.984 . S
N483 C476 1.356 . S
N483 H486 0.984 . S
N483 H487 0.985 . S
H484 N479 0.984 . S
H485 N479 0.985 . S
H486 N483 0.984 . S
H487 N483 0.985 . S
H488 N482 0.984 . S
H489 N482 0.984 . S
H490 N478 0.984 . S
H491 N478 0.985 . S
C492 C493 1.363 . S
C492 C498 1.379 . S
C492 N500 1.356 . S
C493 C492 1.363 . S
C493 C499 1.363 . S
C494 C495 1.363 . S
C494 C499 1.379 . S
C494 N501 1.356 . S
C495 C494 1.363 . S
C495 C498 1.363 . S
N496 C498 1.356 . S
N496 H508 0.984 . S
N496 H509 0.985 . S
N497 C499 1.356 . S
N497 H502 0.984 . S
N497 H503 0.985 . S
C498 C492 1.379 . S
C498 C495 1.363 . S
C498 N496 1.356 . S
C499 C493 1.363 . S
C499 C494 1.379 . S
C499 N497 1.356 . S
N500 C492 1.356 . S
N500 H506 0.984 . S
N500 H507 0.984 . S
N501 C494 1.356 . S
N501 H504 0.984 . S
N501 H505 0.985 . S
H502 N497 0.984 . S
H503 N497 0.985 . S
H504 N501 0.984 . S
H505 N501 0.985 . S
H506 N500 0.984 . S
H507 N500 0.984 . S
H508 N496 0.984 . S
H509 N496 0.985 . S
C510 C511 1.363 . S
C510 C516 1.379 . S
C510 N518 1.356 . S
C511 C510 1.363 . S
C511 C517 1.363 . S
C512 C513 1.363 . S
C512 C517 1.379 . S
C512 N519 1.356 . S
C513 C512 1.363 . S
C513 C516 1.363 . S
N514 C516 1.356 . S
N514 H526 0.984 . S
N514 H527 0.985 . S
N515 C517 1.356 . S
N515 H520 0.984 . S
N515 H521 0.985 . S
C516 C510 1.379 . S
C516 C513 1.363 . S
C516 N514 1.356 . S
C517 C511 1.363 . S
C517 C512 1.379 . S
C517 N515 1.356 . S
N518 C510 1.356 . S
N518 H524 0.984 . S
N518 H525 0.984 . S
N519 C512 1.356 . S
N519 H522 0.984 . S
N519 H523 0.985 . S
H520 N515 0.984 . S
H521 N515 0.985 . S
H522 N519 0.984 . S
H523 N519 0.985 . S
H524 N518 0.984 . S
H525 N518 0.984 . S
H526 N514 0.984 . S
H527 N514 0.985 . S
C528 C529 1.363 . S
C528 C534 1.379 . S
C528 N536 1.356 . S
C529 C528 1.363 . S
C529 C535 1.363 . S
C530 C531 1.363 . S
C530 C535 1.379 . S
C530 N537 1.356 . S
C531 C530 1.363 . S
C531 C534 1.363 . S
N532 C534 1.356 . S
N532 H544 0.984 . S
N532 H545 0.985 . S
N533 C535 1.356 . S
N533 H538 0.984 . S
N533 H539 0.985 . S
C534 C528 1.379 . S
C534 C531 1.363 . S
C534 N532 1.356 . S
C535 C529 1.363 . S
C535 C530 1.379 . S
C535 N533 1.356 . S
N536 C528 1.356 . S
N536 H542 0.984 . S
N536 H543 0.984 . S
N537 C530 1.356 . S
N537 H540 0.984 . S
N537 H541 0.985 . S
H538 N533 0.984 . S
H539 N533 0.985 . S
H540 N537 0.984 . S
H541 N537 0.985 . S
H542 N536 0.984 . S
H543 N536 0.984 . S
H544 N532 0.984 . S
H545 N532 0.985 . S
C546 C547 1.363 . S
C546 C552 1.379 . S
C546 N554 1.356 . S
C547 C546 1.363 . S
C547 C553 1.363 . S
C548 C549 1.363 . S
C548 C553 1.379 . S
C548 N555 1.356 . S
C549 C548 1.363 . S
C549 C552 1.363 . S
N550 C552 1.356 . S
N550 H562 0.984 . S
N550 H563 0.985 . S
N551 C553 1.356 . S
N551 H556 0.984 . S
N551 H557 0.985 . S
C552 C546 1.379 . S
C552 C549 1.363 . S
C552 N550 1.356 . S
C553 C547 1.363 . S
C553 C548 1.379 . S
C553 N551 1.356 . S
N554 C546 1.356 . S
N554 H560 0.984 . S
N554 H561 0.984 . S
N555 C548 1.356 . S
N555 H558 0.984 . S
N555 H559 0.985 . S
H556 N551 0.984 . S
H557 N551 0.985 . S
H558 N555 0.984 . S
H559 N555 0.985 . S
H560 N554 0.984 . S
H561 N554 0.984 . S
H562 N550 0.984 . S
H563 N550 0.985 . S
C564 C565 1.363 . S
C564 C570 1.379 . S
C564 N572 1.356 . S
C565 C564 1.363 . S
C565 C571 1.363 . S
C566 C567 1.363 . S
C566 C571 1.379 . S
C566 N573 1.356 . S
C567 C566 1.363 . S
C567 C570 1.363 . S
N568 C570 1.356 . S
N568 H580 0.984 . S
N568 H581 0.985 . S
N569 C571 1.356 . S
N569 H574 0.984 . S
N569 H575 0.985 . S
C570 C564 1.379 . S
C570 C567 1.363 . S
C570 N568 1.356 . S
C571 C565 1.363 . S
C571 C566 1.379 . S
C571 N569 1.356 . S
N572 C564 1.356 . S
N572 H578 0.984 . S
N572 H579 0.984 . S
N573 C566 1.356 . S
N573 H576 0.987 . S
N573 H577 0.985 . S
H574 N569 0.984 . S
H575 N569 0.985 . S
H576 N573 0.987 . S
H577 N573 0.985 . S
H578 N572 0.984 . S
H579 N572 0.984 . S
H580 N568 0.984 . S
H581 N568 0.985 . S
C582 C583 1.363 . S
C582 C588 1.379 . S
C582 N590 1.356 . S
C583 C582 1.363 . S
C583 C589 1.363 . S
C584 C585 1.363 . S
C584 C589 1.379 . S
C584 N591 1.356 . S
C585 C584 1.363 . S
C585 C588 1.363 . S
N586 C588 1.356 . S
N586 H598 0.984 . S
N586 H599 0.987 . S
N587 C589 1.356 . S
N587 H592 0.984 . S
N587 H593 0.985 . S
C588 C582 1.379 . S
C588 C585 1.363 . S
C588 N586 1.356 . S
C589 C583 1.363 . S
C589 C584 1.379 . S
C589 N587 1.356 . S
N590 C582 1.356 . S
N590 H596 0.984 . S
N590 H597 0.984 . S
N591 C584 1.356 . S
N591 H594 0.984 . S
N591 H595 0.985 . S
H592 N587 0.984 . S
H593 N587 0.985 . S
H594 N591 0.984 . S
H595 N591 0.985 . S
H596 N590 0.984 . S
H597 N590 0.984 . S
H598 N586 0.984 . S
H599 N586 0.987 . S
C169 C123 1.453 . S
C171 C11 1.453 . S
C187 C25 1.453 . S
C189 C137 1.453 . S
C205 C39 1.453 . S
C207 C151 1.453 . S
C223 C53 1.453 . S
C225 C165 1.453 . S
C241 C95 1.453 . S
C243 C67 1.453 . S
C259 C81 1.453 . S
C261 C109 1.453 . S
C277 C9 1.545 . S
C279 C70 1.512 1_554 S
C295 C23 1.545 . S
C297 C0 1.512 . S
C313 C37 1.545 . S
C315 C14 1.512 . S
C331 C28 1.512 . S
C333 C51 1.545 . S
C349 C42 1.512 . S
C351 C65 1.545 . S
C367 C56 1.512 . S
C369 C79 1.545 . S
C385 C98 1.512 . S
C387 C93 1.545 . S
C403 C107 1.545 . S
C405 C112 1.512 1_556 S
C421 C126 1.512 . S
C423 C121 1.545 . S
C439 C135 1.545 . S
C441 C140 1.512 . S
C457 C149 1.545 . S
C459 C154 1.512 . S
C475 C163 1.545 . S
C477 C84 1.512 . S
C493 C145 1.345 . S
C495 C5 1.345 . S
C511 C159 1.345 . S
C513 C19 1.345 . S
C529 C89 1.345 . S
C531 C33 1.345 . S
C547 C47 1.345 . S
C549 C103 1.345 . S
C565 C61 1.345 . S
C567 C117 1.345 . S
C583 C131 1.345 . S
C585 C75 1.345 . S
