# Generated by pormake.
# Topology mok, (4)-cn, num edge types: 1
# Building blocks:
#     Node 0, Type 0, BuildingBlock: QUQFOY_clean_sbu_3, # of connection points: 4
#     Node 1, Type 0, BuildingBlock: QUQFOY_clean_sbu_3, # of connection points: 4
#     Node 2, Type 0, BuildingBlock: QUQFOY_clean_sbu_3, # of connection points: 4
#     Node 3, Type 0, BuildingBlock: QUQFOY_clean_sbu_3, # of connection points: 4
#     Node 4, Type 0, BuildingBlock: QUQFOY_clean_sbu_3, # of connection points: 4
#     Node 5, Type 0, BuildingBlock: QUQFOY_clean_sbu_3, # of connection points: 4
#     Node 6, Type 0, BuildingBlock: QUQFOY_clean_sbu_3, # of connection points: 4
#     Node 7, Type 0, BuildingBlock: QUQFOY_clean_sbu_3, # of connection points: 4
#     Edge 8, Type (0, 0), BuildingBlock: OJICUG_clean_linker_0, # of connection points: 2
#     Edge 9, Type (0, 0), BuildingBlock: OJICUG_clean_linker_0, # of connection points: 2
#     Edge 10, Type (0, 0), BuildingBlock: OJICUG_clean_linker_0, # of connection points: 2
#     Edge 11, Type (0, 0), BuildingBlock: OJICUG_clean_linker_0, # of connection points: 2
#     Edge 12, Type (0, 0), BuildingBlock: OJICUG_clean_linker_0, # of connection points: 2
#     Edge 13, Type (0, 0), BuildingBlock: OJICUG_clean_linker_0, # of connection points: 2
#     Edge 14, Type (0, 0), BuildingBlock: OJICUG_clean_linker_0, # of connection points: 2
#     Edge 15, Type (0, 0), BuildingBlock: OJICUG_clean_linker_0, # of connection points: 2
#     Edge 16, Type (0, 0), BuildingBlock: OJICUG_clean_linker_0, # of connection points: 2
#     Edge 17, Type (0, 0), BuildingBlock: OJICUG_clean_linker_0, # of connection points: 2
#     Edge 18, Type (0, 0), BuildingBlock: OJICUG_clean_linker_0, # of connection points: 2
#     Edge 19, Type (0, 0), BuildingBlock: OJICUG_clean_linker_0, # of connection points: 2
#     Edge 20, Type (0, 0), BuildingBlock: OJICUG_clean_linker_0, # of connection points: 2
#     Edge 21, Type (0, 0), BuildingBlock: OJICUG_clean_linker_0, # of connection points: 2
#     Edge 22, Type (0, 0), BuildingBlock: OJICUG_clean_linker_0, # of connection points: 2
#     Edge 23, Type (0, 0), BuildingBlock: OJICUG_clean_linker_0, # of connection points: 2
# Relax obj value: 0.012
# Max RMSD: 0.032
# Mean RMSD: 0.032
data_MOF--net-mok--node1-QUQFOY_clean_sbu_3--edge1-OJICUG_clean_linker_0
_symmetry_space_group_name_H-M    P1
_symmetry_Int_Tables_number       1
_symmetry_cell_setting            triclinic
loop_
_symmetry_equiv_pos_as_xyz
'x, y, z'
_cell_length_a     40.547537
_cell_length_b     13.038811
_cell_length_c     20.954513
_cell_angle_alpha  89.999118
_cell_angle_beta   89.9722
_cell_angle_gamma 90.03303
loop_
_atom_site_label
_atom_site_type_symbol
_atom_site_fract_x
_atom_site_fract_y
_atom_site_fract_z
_atom_type_partial_charge
C0 C 0.6091 0.43069 0.12477 0.0
O1 O 0.61711 0.50551 0.08917 0.0
Cd2 Cd 0.62653 0.48457 0.97675 0.0
O3 O 0.60286 0.3431 0.10109 0.0
Cd4 Cd 0.59781 0.25545 -0.0011 0.0
C5 C 0.68054 0.28 -0.01778 0.0
O6 O 0.57962 0.39755 0.93432 0.0
O7 O 0.59358 0.25969 0.88369 0.0
O8 O 0.54389 0.19894 0.0319 0.0
C9 C 0.58249 0.35057 0.88162 0.0
O10 O 0.67524 0.37492 0.97204 0.0
C11 C 0.54974 0.10392 0.02566 0.0
O12 O 0.65689 0.2189 -0.00484 0.0
O13 O 0.57872 0.07846 0.0085 0.0
C14 C 0.3861 0.47917 0.12691 0.0
O15 O 0.37798 0.40439 0.09139 0.0
Cd16 Cd 0.36843 0.42503 -0.02098 0.0
O17 O 0.39238 0.5667 0.10317 0.0
Cd18 Cd 0.39732 0.65402 0.00083 0.0
C19 C 0.31455 0.62982 -0.0152 0.0
O20 O 0.41537 0.51164 0.93629 0.0
O21 O 0.40139 0.64941 0.88561 0.0
O22 O 0.45132 0.7107 0.03324 0.0
C23 C 0.41248 0.55854 0.88356 0.0
O24 O 0.31977 0.53487 0.9746 0.0
C25 C 0.44546 0.80568 0.02681 0.0
O26 O 0.33827 0.69079 -0.00249 0.0
O27 O 0.41644 0.83104 0.0099 0.0
C28 C 0.60905 0.4792 0.39785 0.0
O29 O 0.6171 0.40441 0.4334 0.0
Cd30 Cd 0.62662 0.42513 0.54577 0.0
O31 O 0.60282 0.56675 0.42158 0.0
Cd32 Cd 0.59786 0.65408 0.52391 0.0
C33 C 0.68063 0.6298 0.53996 0.0
O34 O 0.57973 0.51179 0.58851 0.0
O35 O 0.59383 0.64952 0.63915 0.0
O36 O 0.54389 0.71073 0.49147 0.0
C37 C 0.58267 0.5587 0.64122 0.0
O38 O 0.67535 0.53487 0.55019 0.0
C39 C 0.54978 0.80571 0.4979 0.0
O40 O 0.65695 0.6908 0.52722 0.0
O41 O 0.5788 0.83109 0.51482 0.0
C42 C 0.3863 0.43068 0.4 0.0
O43 O 0.37834 0.5055 0.43562 0.0
Cd44 Cd 0.36892 0.48459 0.54805 0.0
O45 O 0.39249 0.34307 0.42366 0.0
Cd46 Cd 0.39754 0.25535 0.52584 0.0
C47 C 0.31482 0.28006 0.54249 0.0
O48 O 0.41576 0.3974 0.59047 0.0
O49 O 0.40175 0.25952 0.64106 0.0
O50 O 0.45146 0.19889 0.49285 0.0
C51 C 0.41285 0.35041 0.64317 0.0
O52 O 0.32016 0.37496 0.55269 0.0
C53 C 0.44557 0.10387 0.49907 0.0
O54 O 0.33844 0.21892 0.52956 0.0
O55 O 0.41659 0.07837 0.51621 0.0
C56 C 0.10903 0.93081 0.1282 0.0
O57 O 0.11715 0.00564 0.0927 0.0
Cd58 Cd 0.12665 -0.01443 -0.01974 0.0
O59 O 0.10273 0.84333 0.10443 0.0
Cd60 Cd 0.09776 0.75647 0.00195 0.0
C61 C 0.18053 0.78077 -0.01453 0.0
O62 O 0.07972 0.89906 0.93755 0.0
O63 O 0.09372 0.76137 0.88678 0.0
O64 O 0.04375 0.69948 0.03415 0.0
C65 C 0.08264 0.85223 0.8848 0.0
O66 O 0.1753 0.87575 0.9754 0.0
C67 C 0.04965 0.60455 0.02756 0.0
O68 O 0.15683 0.71977 -0.00171 0.0
O69 O 0.0787 0.57937 0.01072 0.0
C70 C 0.88619 -0.02116 0.12335 0.0
O71 O 0.87818 0.90405 0.08773 0.0
Cd72 Cd 0.86871 0.92545 0.97536 0.0
O73 O 0.89239 0.06648 0.09969 0.0
Cd74 Cd 0.89742 0.15464 -0.00233 0.0
C75 C 0.81467 0.12993 -0.01854 0.0
O76 O 0.9156 0.01278 0.93293 0.0
O77 O 0.90169 0.15077 0.88242 0.0
O78 O 0.9513 0.21104 0.03086 0.0
C79 C 0.91274 0.05986 0.88026 0.0
O80 O 0.81997 0.03505 0.97113 0.0
C81 C 0.94544 0.30608 0.02483 0.0
O82 O 0.83834 0.19102 -0.00572 0.0
O83 O 0.91649 0.33161 0.00761 0.0
C84 C 0.10903 -0.02079 0.40129 0.0
O85 O 0.11699 0.9044 0.43691 0.0
Cd86 Cd 0.12647 0.92579 0.54928 0.0
O87 O 0.10287 0.06685 0.42494 0.0
Cd88 Cd 0.09785 0.15504 0.52694 0.0
C89 C 0.18059 0.13026 0.54315 0.0
O90 O 0.07964 0.01321 0.59172 0.0
O91 O 0.0936 0.15121 0.6422 0.0
O92 O 0.04397 0.21124 0.49374 0.0
C93 C 0.08252 0.0603 0.64438 0.0
O94 O 0.17525 0.03539 0.55348 0.0
C95 C 0.04983 0.30631 0.49976 0.0
O96 O 0.15696 0.19139 0.53033 0.0
O97 O 0.07879 0.33195 0.51697 0.0
C98 C 0.88626 0.93044 0.39643 0.0
O99 O 0.8782 0.00528 0.43195 0.0
Cd100 Cd 0.86872 -0.01478 0.5444 0.0
O101 O 0.89253 0.84294 0.4202 0.0
Cd102 Cd 0.89749 0.75609 0.52268 0.0
C103 C 0.81475 0.78043 0.53919 0.0
O104 O 0.9156 0.89864 0.5871 0.0
O105 O 0.90153 0.76095 0.63785 0.0
O106 O 0.9515 0.69929 0.49043 0.0
C107 C 0.91266 0.8518 0.63985 0.0
O108 O 0.82003 0.8754 0.54926 0.0
C109 C 0.9456 0.60434 0.49704 0.0
O110 O 0.83841 0.71939 0.52636 0.0
O111 O 0.91656 0.57904 0.51389 0.0
C112 C 0.77394 0.27433 -0.01997 0.0
C113 C 0.78039 0.16853 -0.01997 0.0
H114 H 0.7374 0.39244 -0.01984 0.0
C115 C 0.75369 0.09954 -0.02034 0.0
H116 H 0.79393 0.32947 -0.01988 0.0
C117 C 0.72126 0.13557 -0.01978 0.0
C118 C 0.71482 0.24137 -0.01957 0.0
H119 H 0.7578 0.01746 -0.0202 0.0
H120 H 0.70127 0.08045 -0.01956 0.0
C121 C 0.74151 0.31036 -0.02013 0.0
C122 C 0.24152 0.81075 -0.01685 0.0
C123 C 0.21478 0.74193 -0.0163 0.0
H124 H 0.29395 0.8295 -0.01656 0.0
C125 C 0.22115 0.63608 -0.01652 0.0
H126 H 0.23747 0.89285 -0.01655 0.0
C127 C 0.25356 0.59984 -0.01705 0.0
C128 C 0.28029 0.66866 -0.01666 0.0
H129 H 0.20112 0.58109 -0.01632 0.0
H130 H 0.25761 0.51774 -0.01691 0.0
C131 C 0.27392 0.7745 -0.01667 0.0
C132 C 0.77403 0.63584 0.54122 0.0
C133 C 0.78047 0.74167 0.54099 0.0
H134 H 0.7375 0.51758 0.54164 0.0
C135 C 0.75378 0.81055 0.54153 0.0
H136 H 0.79403 0.58079 0.54101 0.0
C137 C 0.72135 0.77439 0.54138 0.0
C138 C 0.71491 0.66856 0.54139 0.0
H139 H 0.75788 0.89264 0.54122 0.0
H140 H 0.70135 0.82944 0.54127 0.0
C141 C 0.7416 0.59968 0.54178 0.0
C142 C 0.24155 0.09975 0.54497 0.0
C143 C 0.2149 0.1688 0.54458 0.0
H144 H 0.29397 0.08054 0.54422 0.0
C145 C 0.22141 0.27459 0.5446 0.0
H146 H 0.2374 0.01769 0.54481 0.0
C147 C 0.25386 0.31055 0.54478 0.0
C148 C 0.28051 0.2415 0.54423 0.0
H149 H 0.20145 0.32976 0.5445 0.0
H150 H 0.25802 0.39262 0.5445 0.0
C151 C 0.274 0.13571 0.54444 0.0
C152 C 0.60756 0.35689 0.23457 0.0
C153 C 0.60789 0.44351 0.19456 0.0
H154 H 0.6079 0.30017 0.33036 0.0
C155 C 0.60777 0.54168 0.2219 0.0
H156 H 0.60774 0.2801 0.21484 0.0
C157 C 0.60752 0.55303 0.28806 0.0
C158 C 0.60785 0.46641 0.32807 0.0
H159 H 0.6079 0.60975 0.19226 0.0
H160 H 0.60768 0.62982 0.30779 0.0
C161 C 0.60777 0.36824 0.30072 0.0
C162 C 0.38743 0.36821 0.22404 0.0
C163 C 0.38737 0.46638 0.19669 0.0
H164 H 0.38749 0.28008 0.30993 0.0
C165 C 0.38778 0.55301 0.2367 0.0
H166 H 0.38722 0.30014 0.19441 0.0
C167 C 0.3876 0.54167 0.30286 0.0
C168 C 0.38746 0.4435 0.33021 0.0
H169 H 0.38764 0.6298 0.21697 0.0
H170 H 0.38753 0.60974 0.3325 0.0
C171 C 0.3877 0.35687 0.2902 0.0
C172 C 0.41793 0.39794 0.82012 0.0
C173 C 0.41688 0.50547 0.82235 0.0
H174 H 0.41738 0.26424 0.76102 0.0
C175 C 0.41771 0.56167 0.76523 0.0
H176 H 0.41742 0.35282 0.86353 0.0
C177 C 0.41805 0.51104 0.70665 0.0
C178 C 0.4171 0.40351 0.70441 0.0
H179 H 0.41721 0.64474 0.76575 0.0
H180 H 0.41761 0.55617 0.66325 0.0
C181 C 0.41781 0.34732 0.76155 0.0
C182 C 0.57725 0.51119 0.81815 0.0
C183 C 0.57819 0.40365 0.82038 0.0
H184 H 0.57804 0.64489 0.75905 0.0
C185 C 0.57742 0.34746 0.76326 0.0
H186 H 0.57773 0.55631 0.86155 0.0
C187 C 0.57724 0.39809 0.70468 0.0
C188 C 0.57829 0.50562 0.70245 0.0
H189 H 0.57784 0.26438 0.76378 0.0
H190 H 0.57771 0.35296 0.66127 0.0
C191 C 0.57753 0.56181 0.75957 0.0
C192 C 0.10778 0.04168 0.22536 0.0
C193 C 0.10781 0.94353 0.19799 0.0
H194 H 0.10779 0.12979 0.31123 0.0
C195 C 0.10743 0.85688 0.23798 0.0
H196 H 0.10796 0.10977 0.19573 0.0
C197 C 0.10766 0.8682 0.30415 0.0
C198 C 0.10783 -0.03364 0.3315 0.0
H199 H 0.10755 0.7801 0.21823 0.0
H200 H 0.10775 0.80012 0.33378 0.0
C201 C 0.10756 0.053 0.2915 0.0
C202 C 0.88754 0.0413 0.29928 0.0
C203 C 0.88746 0.94315 0.32664 0.0
H204 H 0.88755 0.12941 0.2134 0.0
C205 C 0.88778 0.8565 0.28665 0.0
H206 H 0.8874 0.10939 0.3289 0.0
C207 C 0.88753 0.86782 0.22049 0.0
C208 C 0.88741 -0.03401 0.19313 0.0
H209 H 0.88763 0.77972 0.3064 0.0
H210 H 0.88739 0.79975 0.19085 0.0
C211 C 0.88773 0.05262 0.23313 0.0
C212 C 0.91785 0.84875 0.75816 0.0
C213 C 0.91701 0.90495 0.70104 0.0
H214 H 0.91769 0.85419 0.86013 0.0
C215 C 0.91796 0.01249 0.70328 0.0
H216 H 0.91743 0.76567 0.75763 0.0
C217 C 0.91775 0.0631 0.76187 0.0
C218 C 0.91706 0.00687 0.81899 0.0
H219 H 0.91742 0.05761 0.65987 0.0
H220 H 0.91724 0.14617 0.7624 0.0
C221 C 0.91811 0.89935 0.81673 0.0
C222 C 0.0774 0.84918 0.7665 0.0
C223 C 0.07829 0.90538 0.82361 0.0
H224 H 0.07752 0.85462 0.66453 0.0
C225 C 0.07737 0.01292 0.82137 0.0
H226 H 0.07779 0.7661 0.76703 0.0
C227 C 0.07757 0.06353 0.76278 0.0
C228 C 0.07822 0.00731 0.70566 0.0
H229 H 0.07794 0.05804 0.86478 0.0
H230 H 0.0781 0.1466 0.76225 0.0
C231 C 0.07714 0.89978 0.70792 0.0
C232 C 0.50511 0.8503 0.03542 0.0
C233 C 0.47198 0.88205 0.03398 0.0
H234 H 0.55584 0.8959 0.03358 0.0
C235 C 0.4647 -0.01281 0.03502 0.0
H236 H 0.51146 0.76961 0.03467 0.0
C237 C 0.49012 0.05936 0.0352 0.0
C238 C 0.52325 0.02759 0.03339 0.0
H239 H 0.43939 0.01375 0.03424 0.0
H240 H 0.48377 0.14003 0.0343 0.0
C241 C 0.53053 0.92246 0.03464 0.0
C242 C 0.49014 0.85028 0.48929 0.0
C243 C 0.52328 0.88207 0.49073 0.0
H244 H 0.43942 0.89584 0.49113 0.0
C245 C 0.53059 -0.01279 0.48971 0.0
H246 H 0.48377 0.76959 0.49003 0.0
C247 C 0.50518 0.05936 0.48954 0.0
C248 C 0.47205 0.02756 0.49135 0.0
H249 H 0.5559 0.01379 0.4905 0.0
H250 H 0.51156 0.14004 0.49045 0.0
C251 C 0.46474 0.92243 0.49007 0.0
C252 C 0.03043 0.42294 0.03511 0.0
C253 C 0.02313 0.52807 0.03437 0.0
H254 H 0.01141 0.27006 0.03375 0.0
C255 C 0.98999 0.55974 0.03568 0.0
H256 H 0.05575 0.39645 0.03441 0.0
C257 C 0.96459 0.48751 0.03448 0.0
C258 C 0.9719 0.38242 0.03292 0.0
H259 H 0.98362 0.64041 0.03514 0.0
H260 H 0.93928 0.51402 0.03334 0.0
C261 C 0.00503 0.35071 0.03487 0.0
C262 C 0.99024 0.35068 0.48973 0.0
C263 C 0.02337 0.38253 0.49167 0.0
H264 H 0.93952 0.39619 0.49019 0.0
C265 C 0.03067 0.48766 0.4901 0.0
H266 H 0.98387 0.27 0.49086 0.0
C267 C 0.00526 0.55977 0.4889 0.0
C268 C 0.97212 0.52796 0.49022 0.0
H269 H 0.05598 0.51428 0.49124 0.0
H270 H 0.01163 0.64047 0.48942 0.0
C271 C 0.96483 0.4228 0.48948 0.0
loop_
_geom_bond_atom_site_label_1
_geom_bond_atom_site_label_2
_geom_bond_distance
_geom_bond_site_symmetry_2
_ccdc_geom_bond_type
C0 O1 1.306 . S
C0 O3 1.160 . S
O1 C0 1.306 . S
O1 Cd2 2.228 . S
Cd2 O1 2.228 . S
Cd2 O6 2.273 1_554 S
Cd2 O10 2.277 . S
O3 C0 1.160 . S
O3 Cd4 2.203 . S
Cd4 O3 2.203 . S
Cd4 O6 2.411 1_554 S
Cd4 O7 2.333 1_554 S
Cd4 O8 2.352 . S
Cd4 O12 2.277 . S
Cd4 O13 2.356 . S
C5 O10 1.209 . S
C5 O12 1.226 . S
O6 Cd2 2.273 1_556 S
O6 Cd4 2.411 1_556 S
O6 C9 1.320 . S
O7 Cd4 2.333 1_556 S
O7 C9 1.214 . S
O8 Cd4 2.352 . S
O8 C11 1.258 . S
C9 O6 1.320 . S
C9 O7 1.214 . S
O10 Cd2 2.277 . S
O10 C5 1.209 . S
C11 O8 1.258 . S
C11 O13 1.282 . S
O12 Cd4 2.277 . S
O12 C5 1.226 . S
O13 Cd4 2.356 . S
O13 C11 1.282 . S
C14 O15 1.306 . S
C14 O17 1.160 . S
O15 C14 1.306 . S
O15 Cd16 2.228 . S
Cd16 O15 2.228 . S
Cd16 O20 2.273 1_554 S
Cd16 O24 2.277 . S
O17 C14 1.160 . S
O17 Cd18 2.203 . S
Cd18 O17 2.203 . S
Cd18 O20 2.411 1_554 S
Cd18 O21 2.333 1_554 S
Cd18 O22 2.352 . S
Cd18 O26 2.277 . S
Cd18 O27 2.356 . S
C19 O24 1.209 . S
C19 O26 1.226 . S
O20 Cd16 2.273 1_556 S
O20 Cd18 2.411 1_556 S
O20 C23 1.320 . S
O21 Cd18 2.333 1_556 S
O21 C23 1.214 . S
O22 Cd18 2.352 . S
O22 C25 1.258 . S
C23 O20 1.320 . S
C23 O21 1.214 . S
O24 Cd16 2.277 . S
O24 C19 1.209 . S
C25 O22 1.258 . S
C25 O27 1.282 . S
O26 Cd18 2.277 . S
O26 C19 1.226 . S
O27 Cd18 2.356 . S
O27 C25 1.282 . S
C28 O29 1.306 . S
C28 O31 1.160 . S
O29 C28 1.306 . S
O29 Cd30 2.228 . S
Cd30 O29 2.228 . S
Cd30 O34 2.273 . S
Cd30 O38 2.277 . S
O31 C28 1.160 . S
O31 Cd32 2.203 . S
Cd32 O31 2.203 . S
Cd32 O34 2.411 . S
Cd32 O35 2.333 . S
Cd32 O36 2.352 . S
Cd32 O40 2.277 . S
Cd32 O41 2.356 . S
C33 O38 1.209 . S
C33 O40 1.226 . S
O34 Cd30 2.273 . S
O34 Cd32 2.411 . S
O34 C37 1.320 . S
O35 Cd32 2.333 . S
O35 C37 1.214 . S
O36 Cd32 2.352 . S
O36 C39 1.258 . S
C37 O34 1.320 . S
C37 O35 1.214 . S
O38 Cd30 2.277 . S
O38 C33 1.209 . S
C39 O36 1.258 . S
C39 O41 1.282 . S
O40 Cd32 2.277 . S
O40 C33 1.226 . S
O41 Cd32 2.356 . S
O41 C39 1.282 . S
C42 O43 1.306 . S
C42 O45 1.160 . S
O43 C42 1.306 . S
O43 Cd44 2.228 . S
Cd44 O43 2.228 . S
Cd44 O48 2.273 . S
Cd44 O52 2.277 . S
O45 C42 1.160 . S
O45 Cd46 2.203 . S
Cd46 O45 2.203 . S
Cd46 O48 2.411 . S
Cd46 O49 2.333 . S
Cd46 O50 2.352 . S
Cd46 O54 2.277 . S
Cd46 O55 2.356 . S
C47 O52 1.209 . S
C47 O54 1.226 . S
O48 Cd44 2.273 . S
O48 Cd46 2.411 . S
O48 C51 1.320 . S
O49 Cd46 2.333 . S
O49 C51 1.214 . S
O50 Cd46 2.352 . S
O50 C53 1.258 . S
C51 O48 1.320 . S
C51 O49 1.214 . S
O52 Cd44 2.277 . S
O52 C47 1.209 . S
C53 O50 1.258 . S
C53 O55 1.282 . S
O54 Cd46 2.277 . S
O54 C47 1.226 . S
O55 Cd46 2.356 . S
O55 C53 1.282 . S
C56 O57 1.306 1_565 S
C56 O59 1.160 . S
O57 C56 1.306 1_545 S
O57 Cd58 2.228 . S
Cd58 O57 2.228 . S
Cd58 O62 2.273 1_544 S
Cd58 O66 2.277 1_545 S
O59 C56 1.160 . S
O59 Cd60 2.203 . S
Cd60 O59 2.203 . S
Cd60 O62 2.411 1_554 S
Cd60 O63 2.333 1_554 S
Cd60 O64 2.352 . S
Cd60 O68 2.277 . S
Cd60 O69 2.356 . S
C61 O66 1.209 . S
C61 O68 1.226 . S
O62 Cd58 2.273 1_566 S
O62 Cd60 2.411 1_556 S
O62 C65 1.320 . S
O63 Cd60 2.333 1_556 S
O63 C65 1.214 . S
O64 Cd60 2.352 . S
O64 C67 1.258 . S
C65 O62 1.320 . S
C65 O63 1.214 . S
O66 Cd58 2.277 1_565 S
O66 C61 1.209 . S
C67 O64 1.258 . S
C67 O69 1.282 . S
O68 Cd60 2.277 . S
O68 C61 1.226 . S
O69 Cd60 2.356 . S
O69 C67 1.282 . S
C70 O71 1.306 1_545 S
C70 O73 1.160 . S
O71 C70 1.306 1_565 S
O71 Cd72 2.228 . S
Cd72 O71 2.228 . S
Cd72 O76 2.273 1_564 S
Cd72 O80 2.277 1_565 S
O73 C70 1.160 . S
O73 Cd74 2.203 . S
Cd74 O73 2.203 . S
Cd74 O76 2.411 1_554 S
Cd74 O77 2.333 1_554 S
Cd74 O78 2.352 . S
Cd74 O82 2.277 . S
Cd74 O83 2.356 . S
C75 O80 1.209 . S
C75 O82 1.226 . S
O76 Cd72 2.273 1_546 S
O76 Cd74 2.411 1_556 S
O76 C79 1.320 . S
O77 Cd74 2.333 1_556 S
O77 C79 1.214 . S
O78 Cd74 2.352 . S
O78 C81 1.258 . S
C79 O76 1.320 . S
C79 O77 1.214 . S
O80 Cd72 2.277 1_545 S
O80 C75 1.209 . S
C81 O78 1.258 . S
C81 O83 1.282 . S
O82 Cd74 2.277 . S
O82 C75 1.226 . S
O83 Cd74 2.356 . S
O83 C81 1.282 . S
C84 O85 1.306 1_545 S
C84 O87 1.160 . S
O85 C84 1.306 1_565 S
O85 Cd86 2.228 . S
Cd86 O85 2.228 . S
Cd86 O90 2.273 1_565 S
Cd86 O94 2.277 1_565 S
O87 C84 1.160 . S
O87 Cd88 2.203 . S
Cd88 O87 2.203 . S
Cd88 O90 2.411 . S
Cd88 O91 2.333 . S
Cd88 O92 2.352 . S
Cd88 O96 2.277 . S
Cd88 O97 2.356 . S
C89 O94 1.209 . S
C89 O96 1.226 . S
O90 Cd86 2.273 1_545 S
O90 Cd88 2.411 . S
O90 C93 1.320 . S
O91 Cd88 2.333 . S
O91 C93 1.214 . S
O92 Cd88 2.352 . S
O92 C95 1.258 . S
C93 O90 1.320 . S
C93 O91 1.214 . S
O94 Cd86 2.277 1_545 S
O94 C89 1.209 . S
C95 O92 1.258 . S
C95 O97 1.282 . S
O96 Cd88 2.277 . S
O96 C89 1.226 . S
O97 Cd88 2.356 . S
O97 C95 1.282 . S
C98 O99 1.306 1_565 S
C98 O101 1.160 . S
O99 C98 1.306 1_545 S
O99 Cd100 2.228 . S
Cd100 O99 2.228 . S
Cd100 O104 2.273 1_545 S
Cd100 O108 2.277 1_545 S
O101 C98 1.160 . S
O101 Cd102 2.203 . S
Cd102 O101 2.203 . S
Cd102 O104 2.411 . S
Cd102 O105 2.333 . S
Cd102 O106 2.352 . S
Cd102 O110 2.277 . S
Cd102 O111 2.356 . S
C103 O108 1.209 . S
C103 O110 1.226 . S
O104 Cd100 2.273 1_565 S
O104 Cd102 2.411 . S
O104 C107 1.320 . S
O105 Cd102 2.333 . S
O105 C107 1.214 . S
O106 Cd102 2.352 . S
O106 C109 1.258 . S
C107 O104 1.320 . S
C107 O105 1.214 . S
O108 Cd100 2.277 1_565 S
O108 C103 1.209 . S
C109 O106 1.258 . S
C109 O111 1.282 . S
O110 Cd102 2.277 . S
O110 C103 1.226 . S
O111 Cd102 2.356 . S
O111 C109 1.282 . S
C112 C113 1.387 . S
C112 H116 0.950 . S
C112 C121 1.390 . S
C113 C112 1.387 . S
C113 C115 1.387 1_554 S
H114 C121 0.950 . S
C115 C113 1.387 1_556 S
C115 C117 1.390 . S
C115 H119 0.950 . S
H116 C112 0.950 . S
C117 C115 1.390 . S
C117 C118 1.387 1_556 S
C117 H120 0.950 . S
C118 C117 1.387 1_554 S
C118 C121 1.387 . S
H119 C115 0.950 . S
H120 C117 0.950 . S
C121 C112 1.390 . S
C121 H114 0.950 . S
C121 C118 1.387 . S
C122 C123 1.387 . S
C122 H126 0.950 . S
C122 C131 1.390 . S
C123 C122 1.387 . S
C123 C125 1.387 1_554 S
H124 C131 0.950 . S
C125 C123 1.387 1_556 S
C125 C127 1.390 . S
C125 H129 0.950 . S
H126 C122 0.950 . S
C127 C125 1.390 . S
C127 C128 1.387 1_556 S
C127 H130 0.950 . S
C128 C127 1.387 1_554 S
C128 C131 1.387 . S
H129 C125 0.950 . S
H130 C127 0.950 . S
C131 C122 1.390 . S
C131 H124 0.950 . S
C131 C128 1.387 . S
C132 C133 1.387 . S
C132 H136 0.950 . S
C132 C141 1.390 . S
C133 C132 1.387 . S
C133 C135 1.387 . S
H134 C141 0.950 . S
C135 C133 1.387 . S
C135 C137 1.390 . S
C135 H139 0.950 . S
H136 C132 0.950 . S
C137 C135 1.390 . S
C137 C138 1.387 . S
C137 H140 0.950 . S
C138 C137 1.387 . S
C138 C141 1.387 . S
H139 C135 0.950 . S
H140 C137 0.950 . S
C141 C132 1.390 . S
C141 H134 0.950 . S
C141 C138 1.387 . S
C142 C143 1.387 . S
C142 H146 0.950 . S
C142 C151 1.390 . S
C143 C142 1.387 . S
C143 C145 1.387 . S
H144 C151 0.950 . S
C145 C143 1.387 . S
C145 C147 1.390 . S
C145 H149 0.950 . S
H146 C142 0.950 . S
C147 C145 1.390 . S
C147 C148 1.387 . S
C147 H150 0.950 . S
C148 C147 1.387 . S
C148 C151 1.387 . S
H149 C145 0.950 . S
H150 C147 0.950 . S
C151 C142 1.390 . S
C151 H144 0.950 . S
C151 C148 1.387 . S
C152 C153 1.387 . S
C152 H156 0.950 . S
C152 C161 1.390 . S
C153 C152 1.387 . S
C153 C155 1.387 . S
H154 C161 0.950 . S
C155 C153 1.387 . S
C155 C157 1.390 . S
C155 H159 0.950 . S
H156 C152 0.950 . S
C157 C155 1.390 . S
C157 C158 1.387 . S
C157 H160 0.950 . S
C158 C157 1.387 . S
C158 C161 1.387 . S
H159 C155 0.950 . S
H160 C157 0.950 . S
C161 C152 1.390 . S
C161 H154 0.950 . S
C161 C158 1.387 . S
C162 C163 1.387 . S
C162 H166 0.950 . S
C162 C171 1.390 . S
C163 C162 1.387 . S
C163 C165 1.387 . S
H164 C171 0.950 . S
C165 C163 1.387 . S
C165 C167 1.390 . S
C165 H169 0.950 . S
H166 C162 0.950 . S
C167 C165 1.390 . S
C167 C168 1.387 . S
C167 H170 0.950 . S
C168 C167 1.387 . S
C168 C171 1.387 . S
H169 C165 0.950 . S
H170 C167 0.950 . S
C171 C162 1.390 . S
C171 H164 0.950 . S
C171 C168 1.387 . S
C172 C173 1.387 . S
C172 H176 0.950 . S
C172 C181 1.390 . S
C173 C172 1.387 . S
C173 C175 1.387 . S
H174 C181 0.950 . S
C175 C173 1.387 . S
C175 C177 1.390 . S
C175 H179 0.950 . S
H176 C172 0.950 . S
C177 C175 1.390 . S
C177 C178 1.387 . S
C177 H180 0.950 . S
C178 C177 1.387 . S
C178 C181 1.387 . S
H179 C175 0.950 . S
H180 C177 0.950 . S
C181 C172 1.390 . S
C181 H174 0.950 . S
C181 C178 1.387 . S
C182 C183 1.387 . S
C182 H186 0.950 . S
C182 C191 1.390 . S
C183 C182 1.387 . S
C183 C185 1.387 . S
H184 C191 0.950 . S
C185 C183 1.387 . S
C185 C187 1.390 . S
C185 H189 0.950 . S
H186 C182 0.950 . S
C187 C185 1.390 . S
C187 C188 1.387 . S
C187 H190 0.950 . S
C188 C187 1.387 . S
C188 C191 1.387 . S
H189 C185 0.950 . S
H190 C187 0.950 . S
C191 C182 1.390 . S
C191 H184 0.950 . S
C191 C188 1.387 . S
C192 C193 1.387 . S
C192 H196 0.950 . S
C192 C201 1.390 1_565 S
C193 C192 1.387 . S
C193 C195 1.387 . S
H194 C201 0.950 . S
C195 C193 1.387 . S
C195 C197 1.390 1_565 S
C195 H199 0.950 . S
H196 C192 0.950 . S
C197 C195 1.390 1_545 S
C197 C198 1.387 . S
C197 H200 0.950 . S
C198 C197 1.387 . S
C198 C201 1.387 . S
H199 C195 0.950 . S
H200 C197 0.950 . S
C201 C192 1.390 1_545 S
C201 H194 0.950 . S
C201 C198 1.387 . S
C202 C203 1.387 . S
C202 H206 0.950 . S
C202 C211 1.390 1_565 S
C203 C202 1.387 . S
C203 C205 1.387 . S
H204 C211 0.950 . S
C205 C203 1.387 . S
C205 C207 1.390 1_565 S
C205 H209 0.950 . S
H206 C202 0.950 . S
C207 C205 1.390 1_545 S
C207 C208 1.387 . S
C207 H210 0.950 . S
C208 C207 1.387 . S
C208 C211 1.387 . S
H209 C205 0.950 . S
H210 C207 0.950 . S
C211 C202 1.390 1_545 S
C211 H204 0.950 . S
C211 C208 1.387 . S
C212 C213 1.387 . S
C212 H216 0.950 . S
C212 C221 1.390 1_565 S
C213 C212 1.387 . S
C213 C215 1.387 . S
H214 C221 0.950 . S
C215 C213 1.387 . S
C215 C217 1.390 1_565 S
C215 H219 0.950 . S
H216 C212 0.950 . S
C217 C215 1.390 1_545 S
C217 C218 1.387 . S
C217 H220 0.950 . S
C218 C217 1.387 . S
C218 C221 1.387 . S
H219 C215 0.950 . S
H220 C217 0.950 . S
C221 C212 1.390 1_545 S
C221 H214 0.950 . S
C221 C218 1.387 . S
C222 C223 1.387 . S
C222 H226 0.950 . S
C222 C231 1.390 1_565 S
C223 C222 1.387 . S
C223 C225 1.387 . S
H224 C231 0.950 . S
C225 C223 1.387 . S
C225 C227 1.390 1_565 S
C225 H229 0.950 . S
H226 C222 0.950 . S
C227 C225 1.390 1_545 S
C227 C228 1.387 . S
C227 H230 0.950 . S
C228 C227 1.387 . S
C228 C231 1.387 . S
H229 C225 0.950 . S
H230 C227 0.950 . S
C231 C222 1.390 1_545 S
C231 H224 0.950 . S
C231 C228 1.387 . S
C232 C233 1.387 . S
C232 H236 0.950 . S
C232 C241 1.390 1_565 S
C233 C232 1.387 . S
C233 C235 1.387 1_554 S
H234 C241 0.950 . S
C235 C233 1.387 1_556 S
C235 C237 1.390 1_565 S
C235 H239 0.950 . S
H236 C232 0.950 . S
C237 C235 1.390 1_545 S
C237 C238 1.387 1_556 S
C237 H240 0.950 . S
C238 C237 1.387 1_554 S
C238 C241 1.387 . S
H239 C235 0.950 . S
H240 C237 0.950 . S
C241 C232 1.390 1_545 S
C241 H234 0.950 . S
C241 C238 1.387 . S
C242 C243 1.387 . S
C242 H246 0.950 . S
C242 C251 1.390 1_565 S
C243 C242 1.387 . S
C243 C245 1.387 . S
H244 C251 0.950 . S
C245 C243 1.387 . S
C245 C247 1.390 1_565 S
C245 H249 0.950 . S
H246 C242 0.950 . S
C247 C245 1.390 1_545 S
C247 C248 1.387 . S
C247 H250 0.950 . S
C248 C247 1.387 . S
C248 C251 1.387 . S
H249 C245 0.950 . S
H250 C247 0.950 . S
C251 C242 1.390 1_545 S
C251 H244 0.950 . S
C251 C248 1.387 . S
C252 C253 1.387 1_556 S
C252 H256 0.950 . S
C252 C261 1.390 1_455 S
C253 C252 1.387 1_554 S
C253 C255 1.387 . S
H254 C261 0.950 . S
C255 C253 1.387 . S
C255 C257 1.390 1_455 S
C255 H259 0.950 . S
H256 C252 0.950 . S
C257 C255 1.390 1_655 S
C257 C258 1.387 . S
C257 H260 0.950 . S
C258 C257 1.387 . S
C258 C261 1.387 1_554 S
H259 C255 0.950 . S
H260 C257 0.950 . S
C261 C252 1.390 1_655 S
C261 H254 0.950 . S
C261 C258 1.387 1_556 S
C262 C263 1.387 . S
C262 H266 0.950 . S
C262 C271 1.390 1_455 S
C263 C262 1.387 . S
C263 C265 1.387 . S
H264 C271 0.950 . S
C265 C263 1.387 . S
C265 C267 1.390 1_455 S
C265 H269 0.950 . S
H266 C262 0.950 . S
C267 C265 1.390 1_655 S
C267 C268 1.387 . S
C267 H270 0.950 . S
C268 C267 1.387 . S
C268 C271 1.387 . S
H269 C265 0.950 . S
H270 C267 0.950 . S
C271 C262 1.390 1_655 S
C271 H264 0.950 . S
C271 C268 1.387 . S
C113 C75 1.500 . S
C118 C5 1.500 . S
C123 C61 1.500 . S
C128 C19 1.500 . S
C133 C103 1.500 . S
C138 C33 1.500 . S
C143 C89 1.500 . S
C148 C47 1.500 . S
C153 C0 1.445 . S
C158 C28 1.445 . S
C163 C14 1.445 . S
C168 C42 1.445 . S
C173 C23 1.441 . S
C178 C51 1.441 . S
C183 C9 1.440 . S
C188 C37 1.440 . S
C193 C56 1.445 . S
C198 C84 1.445 . S
C203 C98 1.445 . S
C208 C70 1.445 . S
C213 C107 1.440 . S
C218 C79 1.440 . S
C223 C65 1.440 . S
C228 C93 1.440 . S
C233 C25 1.497 . S
C238 C11 1.497 . S
C243 C39 1.497 . S
C248 C53 1.497 . S
C253 C67 1.498 . S
C258 C81 1.498 . S
C263 C95 1.498 . S
C268 C109 1.498 . S
