# Generated by pormake.
# Topology wio, (6)-cn, num edge types: 1
# Building blocks:
#     Node 0, Type 0, BuildingBlock: CUWYAW_clean_sbu_0, # of connection points: 6
#     Node 1, Type 0, BuildingBlock: CUWYAW_clean_sbu_0, # of connection points: 6
#     Node 2, Type 0, BuildingBlock: CUWYAW_clean_sbu_0, # of connection points: 6
#     Node 3, Type 0, BuildingBlock: CUWYAW_clean_sbu_0, # of connection points: 6
#     Node 4, Type 0, BuildingBlock: CUWYAW_clean_sbu_0, # of connection points: 6
#     Node 5, Type 0, BuildingBlock: CUWYAW_clean_sbu_0, # of connection points: 6
#     Node 6, Type 0, BuildingBlock: CUWYAW_clean_sbu_0, # of connection points: 6
#     Node 7, Type 0, BuildingBlock: CUWYAW_clean_sbu_0, # of connection points: 6
#     Node 8, Type 0, BuildingBlock: CUWYAW_clean_sbu_0, # of connection points: 6
#     Node 9, Type 0, BuildingBlock: CUWYAW_clean_sbu_0, # of connection points: 6
#     Node 10, Type 0, BuildingBlock: CUWYAW_clean_sbu_0, # of connection points: 6
#     Node 11, Type 0, BuildingBlock: CUWYAW_clean_sbu_0, # of connection points: 6
#     Node 12, Type 0, BuildingBlock: CUWYAW_clean_sbu_0, # of connection points: 6
#     Node 13, Type 0, BuildingBlock: CUWYAW_clean_sbu_0, # of connection points: 6
#     Node 14, Type 0, BuildingBlock: CUWYAW_clean_sbu_0, # of connection points: 6
#     Node 15, Type 0, BuildingBlock: CUWYAW_clean_sbu_0, # of connection points: 6
#     Node 16, Type 0, BuildingBlock: CUWYAW_clean_sbu_0, # of connection points: 6
#     Node 17, Type 0, BuildingBlock: CUWYAW_clean_sbu_0, # of connection points: 6
#     Node 18, Type 0, BuildingBlock: CUWYAW_clean_sbu_0, # of connection points: 6
#     Node 19, Type 0, BuildingBlock: CUWYAW_clean_sbu_0, # of connection points: 6
#     Node 20, Type 0, BuildingBlock: CUWYAW_clean_sbu_0, # of connection points: 6
#     Node 21, Type 0, BuildingBlock: CUWYAW_clean_sbu_0, # of connection points: 6
#     Node 22, Type 0, BuildingBlock: CUWYAW_clean_sbu_0, # of connection points: 6
#     Node 23, Type 0, BuildingBlock: CUWYAW_clean_sbu_0, # of connection points: 6
#     Node 24, Type 0, BuildingBlock: CUWYAW_clean_sbu_0, # of connection points: 6
#     Node 25, Type 0, BuildingBlock: CUWYAW_clean_sbu_0, # of connection points: 6
#     Node 26, Type 0, BuildingBlock: CUWYAW_clean_sbu_0, # of connection points: 6
#     Node 27, Type 0, BuildingBlock: CUWYAW_clean_sbu_0, # of connection points: 6
#     Node 28, Type 0, BuildingBlock: CUWYAW_clean_sbu_0, # of connection points: 6
#     Node 29, Type 0, BuildingBlock: CUWYAW_clean_sbu_0, # of connection points: 6
#     Node 30, Type 0, BuildingBlock: CUWYAW_clean_sbu_0, # of connection points: 6
#     Node 31, Type 0, BuildingBlock: CUWYAW_clean_sbu_0, # of connection points: 6
#     Edge 32, Type (0, 0), BuildingBlock: CIFDUS_clean_linker_0, # of connection points: 2
#     Edge 33, Type (0, 0), BuildingBlock: CIFDUS_clean_linker_0, # of connection points: 2
#     Edge 34, Type (0, 0), BuildingBlock: CIFDUS_clean_linker_0, # of connection points: 2
#     Edge 35, Type (0, 0), BuildingBlock: CIFDUS_clean_linker_0, # of connection points: 2
#     Edge 36, Type (0, 0), BuildingBlock: CIFDUS_clean_linker_0, # of connection points: 2
#     Edge 37, Type (0, 0), BuildingBlock: CIFDUS_clean_linker_0, # of connection points: 2
#     Edge 38, Type (0, 0), BuildingBlock: CIFDUS_clean_linker_0, # of connection points: 2
#     Edge 39, Type (0, 0), BuildingBlock: CIFDUS_clean_linker_0, # of connection points: 2
#     Edge 40, Type (0, 0), BuildingBlock: CIFDUS_clean_linker_0, # of connection points: 2
#     Edge 41, Type (0, 0), BuildingBlock: CIFDUS_clean_linker_0, # of connection points: 2
#     Edge 42, Type (0, 0), BuildingBlock: CIFDUS_clean_linker_0, # of connection points: 2
#     Edge 43, Type (0, 0), BuildingBlock: CIFDUS_clean_linker_0, # of connection points: 2
#     Edge 44, Type (0, 0), BuildingBlock: CIFDUS_clean_linker_0, # of connection points: 2
#     Edge 45, Type (0, 0), BuildingBlock: CIFDUS_clean_linker_0, # of connection points: 2
#     Edge 46, Type (0, 0), BuildingBlock: CIFDUS_clean_linker_0, # of connection points: 2
#     Edge 47, Type (0, 0), BuildingBlock: CIFDUS_clean_linker_0, # of connection points: 2
#     Edge 48, Type (0, 0), BuildingBlock: CIFDUS_clean_linker_0, # of connection points: 2
#     Edge 49, Type (0, 0), BuildingBlock: CIFDUS_clean_linker_0, # of connection points: 2
#     Edge 50, Type (0, 0), BuildingBlock: CIFDUS_clean_linker_0, # of connection points: 2
#     Edge 51, Type (0, 0), BuildingBlock: CIFDUS_clean_linker_0, # of connection points: 2
#     Edge 52, Type (0, 0), BuildingBlock: CIFDUS_clean_linker_0, # of connection points: 2
#     Edge 53, Type (0, 0), BuildingBlock: CIFDUS_clean_linker_0, # of connection points: 2
#     Edge 54, Type (0, 0), BuildingBlock: CIFDUS_clean_linker_0, # of connection points: 2
#     Edge 55, Type (0, 0), BuildingBlock: CIFDUS_clean_linker_0, # of connection points: 2
#     Edge 56, Type (0, 0), BuildingBlock: CIFDUS_clean_linker_0, # of connection points: 2
#     Edge 57, Type (0, 0), BuildingBlock: CIFDUS_clean_linker_0, # of connection points: 2
#     Edge 58, Type (0, 0), BuildingBlock: CIFDUS_clean_linker_0, # of connection points: 2
#     Edge 59, Type (0, 0), BuildingBlock: CIFDUS_clean_linker_0, # of connection points: 2
#     Edge 60, Type (0, 0), BuildingBlock: CIFDUS_clean_linker_0, # of connection points: 2
#     Edge 61, Type (0, 0), BuildingBlock: CIFDUS_clean_linker_0, # of connection points: 2
#     Edge 62, Type (0, 0), BuildingBlock: CIFDUS_clean_linker_0, # of connection points: 2
#     Edge 63, Type (0, 0), BuildingBlock: CIFDUS_clean_linker_0, # of connection points: 2
#     Edge 64, Type (0, 0), BuildingBlock: CIFDUS_clean_linker_0, # of connection points: 2
#     Edge 65, Type (0, 0), BuildingBlock: CIFDUS_clean_linker_0, # of connection points: 2
#     Edge 66, Type (0, 0), BuildingBlock: CIFDUS_clean_linker_0, # of connection points: 2
#     Edge 67, Type (0, 0), BuildingBlock: CIFDUS_clean_linker_0, # of connection points: 2
#     Edge 68, Type (0, 0), BuildingBlock: CIFDUS_clean_linker_0, # of connection points: 2
#     Edge 69, Type (0, 0), BuildingBlock: CIFDUS_clean_linker_0, # of connection points: 2
#     Edge 70, Type (0, 0), BuildingBlock: CIFDUS_clean_linker_0, # of connection points: 2
#     Edge 71, Type (0, 0), BuildingBlock: CIFDUS_clean_linker_0, # of connection points: 2
#     Edge 72, Type (0, 0), BuildingBlock: CIFDUS_clean_linker_0, # of connection points: 2
#     Edge 73, Type (0, 0), BuildingBlock: CIFDUS_clean_linker_0, # of connection points: 2
#     Edge 74, Type (0, 0), BuildingBlock: CIFDUS_clean_linker_0, # of connection points: 2
#     Edge 75, Type (0, 0), BuildingBlock: CIFDUS_clean_linker_0, # of connection points: 2
#     Edge 76, Type (0, 0), BuildingBlock: CIFDUS_clean_linker_0, # of connection points: 2
#     Edge 77, Type (0, 0), BuildingBlock: CIFDUS_clean_linker_0, # of connection points: 2
#     Edge 78, Type (0, 0), BuildingBlock: CIFDUS_clean_linker_0, # of connection points: 2
#     Edge 79, Type (0, 0), BuildingBlock: CIFDUS_clean_linker_0, # of connection points: 2
#     Edge 80, Type (0, 0), BuildingBlock: CIFDUS_clean_linker_0, # of connection points: 2
#     Edge 81, Type (0, 0), BuildingBlock: CIFDUS_clean_linker_0, # of connection points: 2
#     Edge 82, Type (0, 0), BuildingBlock: CIFDUS_clean_linker_0, # of connection points: 2
#     Edge 83, Type (0, 0), BuildingBlock: CIFDUS_clean_linker_0, # of connection points: 2
#     Edge 84, Type (0, 0), BuildingBlock: CIFDUS_clean_linker_0, # of connection points: 2
#     Edge 85, Type (0, 0), BuildingBlock: CIFDUS_clean_linker_0, # of connection points: 2
#     Edge 86, Type (0, 0), BuildingBlock: CIFDUS_clean_linker_0, # of connection points: 2
#     Edge 87, Type (0, 0), BuildingBlock: CIFDUS_clean_linker_0, # of connection points: 2
#     Edge 88, Type (0, 0), BuildingBlock: CIFDUS_clean_linker_0, # of connection points: 2
#     Edge 89, Type (0, 0), BuildingBlock: CIFDUS_clean_linker_0, # of connection points: 2
#     Edge 90, Type (0, 0), BuildingBlock: CIFDUS_clean_linker_0, # of connection points: 2
#     Edge 91, Type (0, 0), BuildingBlock: CIFDUS_clean_linker_0, # of connection points: 2
#     Edge 92, Type (0, 0), BuildingBlock: CIFDUS_clean_linker_0, # of connection points: 2
#     Edge 93, Type (0, 0), BuildingBlock: CIFDUS_clean_linker_0, # of connection points: 2
#     Edge 94, Type (0, 0), BuildingBlock: CIFDUS_clean_linker_0, # of connection points: 2
#     Edge 95, Type (0, 0), BuildingBlock: CIFDUS_clean_linker_0, # of connection points: 2
#     Edge 96, Type (0, 0), BuildingBlock: CIFDUS_clean_linker_0, # of connection points: 2
#     Edge 97, Type (0, 0), BuildingBlock: CIFDUS_clean_linker_0, # of connection points: 2
#     Edge 98, Type (0, 0), BuildingBlock: CIFDUS_clean_linker_0, # of connection points: 2
#     Edge 99, Type (0, 0), BuildingBlock: CIFDUS_clean_linker_0, # of connection points: 2
#     Edge 100, Type (0, 0), BuildingBlock: CIFDUS_clean_linker_0, # of connection points: 2
#     Edge 101, Type (0, 0), BuildingBlock: CIFDUS_clean_linker_0, # of connection points: 2
#     Edge 102, Type (0, 0), BuildingBlock: CIFDUS_clean_linker_0, # of connection points: 2
#     Edge 103, Type (0, 0), BuildingBlock: CIFDUS_clean_linker_0, # of connection points: 2
#     Edge 104, Type (0, 0), BuildingBlock: CIFDUS_clean_linker_0, # of connection points: 2
#     Edge 105, Type (0, 0), BuildingBlock: CIFDUS_clean_linker_0, # of connection points: 2
#     Edge 106, Type (0, 0), BuildingBlock: CIFDUS_clean_linker_0, # of connection points: 2
#     Edge 107, Type (0, 0), BuildingBlock: CIFDUS_clean_linker_0, # of connection points: 2
#     Edge 108, Type (0, 0), BuildingBlock: CIFDUS_clean_linker_0, # of connection points: 2
#     Edge 109, Type (0, 0), BuildingBlock: CIFDUS_clean_linker_0, # of connection points: 2
#     Edge 110, Type (0, 0), BuildingBlock: CIFDUS_clean_linker_0, # of connection points: 2
#     Edge 111, Type (0, 0), BuildingBlock: CIFDUS_clean_linker_0, # of connection points: 2
#     Edge 112, Type (0, 0), BuildingBlock: CIFDUS_clean_linker_0, # of connection points: 2
#     Edge 113, Type (0, 0), BuildingBlock: CIFDUS_clean_linker_0, # of connection points: 2
#     Edge 114, Type (0, 0), BuildingBlock: CIFDUS_clean_linker_0, # of connection points: 2
#     Edge 115, Type (0, 0), BuildingBlock: CIFDUS_clean_linker_0, # of connection points: 2
#     Edge 116, Type (0, 0), BuildingBlock: CIFDUS_clean_linker_0, # of connection points: 2
#     Edge 117, Type (0, 0), BuildingBlock: CIFDUS_clean_linker_0, # of connection points: 2
#     Edge 118, Type (0, 0), BuildingBlock: CIFDUS_clean_linker_0, # of connection points: 2
#     Edge 119, Type (0, 0), BuildingBlock: CIFDUS_clean_linker_0, # of connection points: 2
#     Edge 120, Type (0, 0), BuildingBlock: CIFDUS_clean_linker_0, # of connection points: 2
#     Edge 121, Type (0, 0), BuildingBlock: CIFDUS_clean_linker_0, # of connection points: 2
#     Edge 122, Type (0, 0), BuildingBlock: CIFDUS_clean_linker_0, # of connection points: 2
#     Edge 123, Type (0, 0), BuildingBlock: CIFDUS_clean_linker_0, # of connection points: 2
#     Edge 124, Type (0, 0), BuildingBlock: CIFDUS_clean_linker_0, # of connection points: 2
#     Edge 125, Type (0, 0), BuildingBlock: CIFDUS_clean_linker_0, # of connection points: 2
#     Edge 126, Type (0, 0), BuildingBlock: CIFDUS_clean_linker_0, # of connection points: 2
#     Edge 127, Type (0, 0), BuildingBlock: CIFDUS_clean_linker_0, # of connection points: 2
# Relax obj value: 0.189
# Max RMSD: 0.234
# Mean RMSD: 0.234
data_MOF--net-wio--node1-CUWYAW_clean_sbu_0--edge1-CIFDUS_clean_linker_0
_symmetry_space_group_name_H-M    P1
_symmetry_Int_Tables_number       1
_symmetry_cell_setting            triclinic
loop_
_symmetry_equiv_pos_as_xyz
'x, y, z'
_cell_length_a     56.760562
_cell_length_b     56.787731
_cell_length_c     47.814649
_cell_angle_alpha  90.0922
_cell_angle_beta   90.029882
_cell_angle_gamma 89.946693
loop_
_atom_site_label
_atom_site_type_symbol
_atom_site_fract_x
_atom_site_fract_y
_atom_site_fract_z
_atom_type_partial_charge
C0 C 0.06443 0.13941 0.32193 0.0
Eu1 Eu 0.10326 0.12278 0.3 0.0
C2 C 0.04821 0.1352 0.34552 0.0
C3 C 0.04626 0.11294 0.35798 0.0
C4 C 0.02952 0.109 0.37897 0.0
C5 C 0.01447 0.12726 0.388 0.0
C6 C 0.01722 0.14977 0.37623 0.0
C7 C 0.0339 0.15366 0.35515 0.0
C8 C 0.11084 0.07959 0.27632 0.0
C9 C 0.13362 0.09289 0.34638 0.0
C10 C 0.19533 0.09692 0.27156 0.0
Eu11 Eu 0.15453 0.11214 0.28879 0.0
C12 C 0.21525 0.10232 0.25317 0.0
C13 C 0.23601 0.08931 0.25639 0.0
C14 C 0.25513 0.09319 0.23872 0.0
C15 C 0.25383 0.11019 0.21745 0.0
C16 C 0.2332 0.12379 0.21479 0.0
C17 C 0.21395 0.11983 0.23254 0.0
C18 C 0.14698 0.15303 0.31663 0.0
C19 C 0.12319 0.13644 0.23912 0.0
O20 O 0.08541 0.14729 0.3282 0.0
O21 O 0.06489 0.12357 0.30204 0.0
O22 O 0.09252 0.09262 0.27113 0.0
O23 O 0.1233 0.08952 0.29456 0.0
O24 O 0.11518 0.1068 0.34199 0.0
O25 O 0.14943 0.08954 0.32658 0.0
O26 O 0.17535 0.09119 0.25965 0.0
O27 O 0.19263 0.11043 0.29346 0.0
O28 O 0.16481 0.13929 0.32087 0.0
O29 O 0.13473 0.14554 0.29637 0.0
O30 O 0.14286 0.12562 0.24645 0.0
O31 O 0.10564 0.13963 0.257 0.0
H32 H 0.05734 0.09851 0.35109 0.0
H33 H 0.02808 0.09153 0.38786 0.0
H34 H 1.00583 0.16416 0.38248 0.0
H35 H 0.03522 0.17101 0.34587 0.0
H36 H 0.23733 0.07586 0.27238 0.0
H37 H 0.27088 0.08266 0.24149 0.0
H38 H 0.23167 0.13688 0.19844 0.0
H39 H 0.19801 0.13011 0.22992 0.0
C40 C 0.13214 0.81068 0.57206 0.0
Eu41 Eu 0.1473 0.8509 0.55225 0.0
C42 C 0.13603 0.79437 0.59575 0.0
C43 C 0.1176 0.77966 0.60453 0.0
C44 C 0.12114 0.76312 0.62588 0.0
C45 C 0.14328 0.76086 0.63885 0.0
C46 C 0.1615 0.77625 0.6306 0.0
C47 C 0.15791 0.79284 0.60932 0.0
C48 C 0.19068 0.86148 0.53127 0.0
C49 C 0.17252 0.88156 0.6028 0.0
C50 C 0.16721 0.94511 0.52902 0.0
Eu51 Eu 0.15569 0.90269 0.54467 0.0
C52 C 0.16315 0.96124 0.50545 0.0
C53 C 0.15894 0.98515 0.51092 0.0
C54 C 0.15536 1.00096 0.48895 0.0
C55 C 0.15597 0.9931 0.46108 0.0
C56 C 0.15971 0.969 0.4557 0.0
C57 C 0.16329 0.95321 0.47769 0.0
C58 C 0.1148 0.89237 0.57092 0.0
C59 C 0.13611 0.87191 0.49132 0.0
O60 O 0.12252 0.83099 0.57799 0.0
O61 O 0.14895 0.81249 0.55347 0.0
O62 O 0.17864 0.84296 0.52414 0.0
O63 O 0.17987 0.87253 0.55013 0.0
O64 O 0.16211 0.86162 0.59524 0.0
O65 O 0.17471 0.89938 0.5854 0.0
O66 O 0.18039 0.92655 0.52441 0.0
O67 O 0.14886 0.94045 0.5445 0.0
O68 O 0.12827 0.90997 0.57717 0.0
O69 O 0.12281 0.88131 0.54986 0.0
O70 O 0.14636 0.8913 0.50057 0.0
O71 O 0.13194 0.85396 0.5083 0.0
H72 H 0.10053 0.78062 0.59443 0.0
H73 H 0.10679 0.75149 0.63146 0.0
H74 H 0.17868 0.77526 0.64039 0.0
H75 H 0.17232 0.80421 0.60316 0.0
H76 H 0.15871 0.99165 0.53224 0.0
H77 H 0.1528 0.01942 0.49377 0.0
H78 H 0.16 0.96235 0.43446 0.0
H79 H 0.16638 0.93481 0.47298 0.0
C80 C 0.45436 0.87196 0.82909 0.0
Eu81 Eu 0.41859 0.8922 0.80421 0.0
C82 C 0.4716 0.87568 0.85175 0.0
C83 C 0.47325 0.8973 0.86581 0.0
C84 C 0.49061 0.90074 0.88628 0.0
C85 C 0.50664 0.88262 0.89309 0.0
C86 C 0.50434 0.86075 0.87951 0.0
C87 C 0.48701 0.85735 0.85903 0.0
C88 C 0.41678 0.93636 0.78136 0.0
C89 C 0.38722 0.9243 0.84789 0.0
C90 C 0.33066 0.92279 0.76531 0.0
Eu91 Eu 0.36941 0.90728 0.78818 0.0
C92 C 0.31211 0.91347 0.74686 0.0
C93 C 0.30738 0.88923 0.74542 0.0
C94 C 0.2892 0.88078 0.72834 0.0
C95 C 0.27549 0.89644 0.71234 0.0
C96 C 0.28064 0.92068 0.7136 0.0
C97 C 0.29872 0.92909 0.73075 0.0
C98 C 0.37196 0.86471 0.81419 0.0
C99 C 0.40237 0.88228 0.74128 0.0
O100 O 0.43241 0.86886 0.83655 0.0
O101 O 0.45636 0.88533 0.80695 0.0
O102 O 0.43444 0.92197 0.77853 0.0
O103 O 0.40187 0.92732 0.79754 0.0
O104 O 0.40449 0.90864 0.84509 0.0
O105 O 0.37359 0.92968 0.82644 0.0
O106 O 0.35148 0.92565 0.75413 0.0
O107 O 0.3317 0.91378 0.79041 0.0
O108 O 0.35484 0.87948 0.81724 0.0
O109 O 0.38606 0.87219 0.79586 0.0
O110 O 0.38513 0.89719 0.74647 0.0
O111 O 0.41616 0.87433 0.76151 0.0
H112 H 0.46137 0.9116 0.86066 0.0
H113 H 0.49164 0.9177 0.89658 0.0
H114 H 0.51647 0.84651 0.88396 0.0
H115 H 0.48594 0.8405 0.84844 0.0
H116 H 0.31763 0.87686 0.75766 0.0
H117 H 0.28566 0.86205 0.72799 0.0
H118 H 0.27084 0.93321 0.7011 0.0
H119 H 0.30224 0.94783 0.73145 0.0
C120 C 0.39315 0.20848 0.07058 0.0
Eu121 Eu 0.37807 0.16782 0.05176 0.0
C122 C 0.3889 0.22708 0.09196 0.0
C123 C 0.38176 0.24957 0.08323 0.0
C124 C 0.37913 0.26793 0.10251 0.0
C125 C 0.38365 0.26441 0.13117 0.0
C126 C 0.39105 0.24194 0.13996 0.0
C127 C 0.39363 0.22347 0.12058 0.0
C128 C 0.33519 0.15735 1.02871 0.0
C129 C 0.34983 0.139 0.10134 0.0
C130 C 0.35737 0.0734 1.03026 0.0
Eu131 Eu 0.36926 0.11602 0.04505 0.0
C132 C 0.35936 0.05664 1.0068 0.0
C133 C 0.38075 0.05299 0.9926 0.0
C134 C 0.38231 0.03597 0.97145 0.0
C135 C 0.36249 0.02251 0.964 0.0
C136 C 0.3411 0.02644 0.97809 0.0
C137 C 0.33959 0.04328 0.99931 0.0
C138 C 0.40876 0.12634 0.07441 0.0
C139 C 0.39053 0.14539 0.99195 0.0
O140 O 0.4013 0.18813 0.07898 0.0
O141 O 0.37789 0.20635 0.05022 0.0
O142 O 0.34761 0.17571 1.02207 0.0
O143 O 0.34534 0.14657 0.04823 0.0
O144 O 0.36125 0.15847 0.09411 0.0
O145 O 0.3483 0.12087 0.08416 0.0
O146 O 0.3437 0.09172 1.02662 0.0
O147 O 0.37667 0.07847 0.04392 0.0
O148 O 0.39455 0.10919 0.08004 0.0
O149 O 0.40222 0.137 0.05234 0.0
O150 O 0.37938 0.12653 1.00108 0.0
O151 O 0.39499 0.16337 1.00884 0.0
H152 H 0.37847 0.25307 0.0613 0.0
H153 H 0.37381 0.28506 0.09484 0.0
H154 H 0.39454 0.23855 0.16186 0.0
H155 H 0.39946 0.20643 0.12803 0.0
H156 H 0.39625 0.06316 0.99792 0.0
H157 H 0.39893 0.03353 0.96068 0.0
H158 H 0.32557 0.01623 0.97295 0.0
H159 H 0.32298 0.04573 1.01011 0.0
C160 C 0.06595 0.8788 0.24503 0.0
Eu161 Eu 0.10607 0.89523 0.26364 0.0
C162 C 0.04962 0.88273 0.22144 0.0
C163 C 0.03497 0.86433 0.21241 0.0
C164 C 0.01853 0.86797 0.19096 0.0
C165 C 0.01637 0.89017 0.17822 0.0
C166 C 0.03171 0.90835 0.18669 0.0
C167 C 0.04822 0.90465 0.20802 0.0
C168 C 0.11603 0.93914 0.28337 0.0
C169 C 0.13475 0.92079 0.21172 0.0
C170 C 0.20081 0.9153 0.28267 0.0
Eu171 Eu 0.15761 0.90476 0.26901 0.0
C172 C 0.21633 0.91115 0.30665 0.0
C173 C 0.2408 0.91091 0.30276 0.0
C174 C 0.25582 0.90604 0.3252 0.0
C175 C 0.2465 0.90136 0.35183 0.0
C176 C 0.2219 0.90122 0.35547 0.0
C177 C 0.20695 0.90608 0.33306 0.0
C178 C 0.14732 0.86343 0.24366 0.0
C179 C 0.12797 0.88841 0.32447 0.0
O180 O 0.0864 0.86963 0.23876 0.0
O181 O 0.06762 0.89559 0.2637 0.0
O182 O 0.09765 0.92704 0.29075 0.0
O183 O 0.12698 0.92836 0.26439 0.0
O184 O 0.11531 0.9099 0.2201 0.0
O185 O 0.15295 0.92363 0.22847 0.0
O186 O 0.18297 0.92957 0.28658 0.0
O187 O 0.19501 0.89646 0.26868 0.0
O188 O 0.16395 0.87757 0.23614 0.0
O189 O 0.13688 0.87123 0.26529 0.0
O190 O 0.14652 0.89917 0.31393 0.0
O191 O 0.11033 0.88156 0.30826 0.0
H192 H 0.0359 0.84723 0.22238 0.0
H193 H 1.00688 0.85368 0.18514 0.0
H194 H 0.0307 0.92557 0.17707 0.0
H195 H 0.0596 0.91901 0.21436 0.0
H196 H 0.24829 0.91453 0.28237 0.0
H197 H 0.27469 0.90652 0.32187 0.0
H198 H 0.21422 0.89741 0.37569 0.0
H199 H 0.1881 0.90585 0.33641 0.0
C200 C 0.39125 0.81413 0.49857 0.0
Eu201 Eu 0.37466 0.854 0.51799 0.0
C202 C 0.38698 0.79766 0.4751 0.0
C203 C 0.40515 0.78267 0.46609 0.0
C204 C 0.40125 0.76627 0.44461 0.0
C205 C 0.37901 0.76446 0.43177 0.0
C206 C 0.36105 0.78007 0.44032 0.0
C207 C 0.36501 0.79653 0.4617 0.0
C208 C 0.33129 0.86231 0.54089 0.0
C209 C 0.34421 0.88075 0.46891 0.0
C210 C 0.347 0.94698 0.53792 0.0
Eu211 Eu 0.36283 0.90547 0.52415 0.0
C212 C 0.35248 0.96739 0.55553 0.0
C213 C 0.37033 0.96659 0.5758 0.0
C214 C 0.37434 0.98607 0.59315 0.0
C215 C 0.36049 1.00652 0.59042 0.0
C216 C 0.34318 1.00738 0.56941 0.0
C217 C 0.33922 0.98797 0.55215 0.0
C218 C 0.40386 0.89718 0.49699 0.0
C219 C 0.38834 0.87857 0.57652 0.0
O220 O 0.39986 0.83473 0.49203 0.0
O221 O 0.37497 0.81554 0.51787 0.0
O222 O 0.34483 0.84487 0.54812 0.0
O223 O 0.34092 0.87349 0.52136 0.0
O224 O 0.35874 0.86311 0.47477 0.0
O225 O 0.34028 0.89752 0.48735 0.0
O226 O 0.34089 0.92758 0.55078 0.0
O227 O 0.361 0.94324 0.51669 0.0
O228 O 0.38946 0.91411 0.49097 0.0
O229 O 0.39682 0.88615 0.51841 0.0
O230 O 0.37663 0.89705 0.56716 0.0
O231 O 0.39193 0.8597 0.56068 0.0
H232 H 0.42229 0.78336 0.47604 0.0
H233 H 0.4154 0.75445 0.43876 0.0
H234 H 0.34381 0.7794 0.43064 0.0
H235 H 0.35081 0.80815 0.46802 0.0
H236 H 0.3808 0.95081 0.57852 0.0
H237 H 0.38765 0.98483 0.60932 0.0
H238 H 0.33243 0.02298 0.56661 0.0
H239 H 0.3255 0.9889 0.53642 0.0
C240 C 0.45853 0.13949 0.74537 0.0
Eu241 Eu 0.41899 0.12181 0.76402 0.0
C242 C 0.47594 0.13558 0.72288 0.0
C243 C 0.48896 0.15472 0.71266 0.0
C244 C 0.50641 0.15135 0.69232 0.0
C245 C 0.51126 0.12869 0.68188 0.0
C246 C 0.49761 0.10964 0.69156 0.0
C247 C 0.48008 0.11306 0.7118 0.0
C248 C 0.41018 0.07715 0.78214 0.0
C249 C 0.38986 0.09663 0.71229 0.0
C250 C 0.32422 0.10025 0.78338 0.0
Eu251 Eu 0.36739 0.11161 0.77054 0.0
C252 C 0.308 0.10233 0.80706 0.0
C253 C 0.28379 0.10414 0.80181 0.0
C254 C 0.26797 0.10707 0.82388 0.0
C255 C 0.27617 0.10815 0.85156 0.0
C256 C 0.30052 0.10641 0.85674 0.0
C257 C 0.31635 0.10361 0.83463 0.0
C258 C 0.37696 0.15337 0.74588 0.0
C259 C 0.3976 0.12732 0.82554 0.0
O260 O 0.43775 0.14695 0.73763 0.0
O261 O 0.45737 0.12367 0.7652 0.0
O262 O 0.42919 0.08883 0.7882 0.0
O263 O 0.39823 0.0886 0.76464 0.0
O264 O 0.4091 0.10813 0.72023 0.0
O265 O 0.37221 0.09311 0.72971 0.0
O266 O 0.34212 0.0859 0.78617 0.0
O267 O 0.33002 0.12007 0.7715 0.0
O268 O 0.36043 0.13911 0.73829 0.0
O269 O 0.38784 0.14536 0.76709 0.0
O270 O 0.37905 0.1163 0.81532 0.0
O271 O 0.41475 0.13483 0.80902 0.0
H272 H 0.48594 0.17227 0.72084 0.0
H273 H 0.51668 0.16635 0.68553 0.0
H274 H 0.50067 0.09201 0.68368 0.0
H275 H 0.47003 0.09807 0.71909 0.0
H276 H 0.27712 0.10334 0.78059 0.0
H277 H 0.2493 0.10811 0.81933 0.0
H278 H 0.30734 0.10745 0.87787 0.0
H279 H 0.33504 0.10255 0.83904 0.0
C280 C 0.13602 0.20685 0.99047 0.0
Eu281 Eu 0.15075 0.16742 1.013 0.0
C282 C 0.14063 0.22443 0.96806 0.0
C283 C 0.14938 0.24673 0.97531 0.0
C284 C 0.15209 0.26428 0.95508 0.0
C285 C 0.14602 0.26012 0.92694 0.0
C286 C 0.13711 0.23782 0.91963 0.0
C287 C 0.13444 0.22016 0.93995 0.0
C288 C 0.19433 0.15913 0.03565 0.0
C289 C 0.17847 0.13454 0.96716 0.0
C290 C 0.16985 0.07537 0.04514 0.0
Eu291 Eu 0.15925 0.11694 1.02559 0.0
C292 C 0.15942 0.05703 0.06304 0.0
C293 C 0.14789 0.0626 0.0882 0.0
C294 C 0.1391 0.04465 0.10531 0.0
C295 C 0.14158 0.02085 0.09751 0.0
C296 C 0.15246 0.0155 0.07184 0.0
C297 C 0.16133 0.03341 0.05485 0.0
C298 C 0.11739 0.1251 0.9996 0.0
C299 C 0.1404 0.15085 0.07552 0.0
O300 O 0.12832 0.18603 0.98321 0.0
O301 O 0.15071 0.20592 1.01152 0.0
O302 O 0.18178 0.17777 0.04065 0.0
O303 O 0.18387 0.14651 1.01795 0.0
O304 O 0.16487 0.15329 0.97095 0.0
O305 O 0.18224 0.11975 0.98791 0.0
O306 O 0.17627 0.09508 0.05714 0.0
O307 O 0.15978 0.07871 1.02093 0.0
O308 O 0.13062 0.10696 0.99539 0.0
O309 O 0.12592 0.13774 1.01896 0.0
O310 O 0.15165 0.13147 0.06849 0.0
O311 O 0.13466 0.16688 0.05666 0.0
H312 H 0.15379 0.2508 0.99683 0.0
H313 H 0.15858 0.28135 0.96165 0.0
H314 H 0.13239 0.23394 0.89816 0.0
H315 H 0.12731 0.20329 0.93365 0.0
H316 H 0.14603 0.08074 0.09488 0.0
H317 H 0.13104 0.04941 0.12505 0.0
H318 H 0.15433 0.99741 0.06496 0.0
H319 H 0.16996 0.02877 0.0354 0.0
C320 C 0.82351 0.91747 0.79368 0.0
Eu321 Eu 0.86446 0.9037 0.775 0.0
C322 C 0.80487 0.90903 0.81245 0.0
C323 C 0.80917 0.89116 0.83205 0.0
C324 C 0.79119 0.88372 0.85002 0.0
C325 C 0.7686 0.89392 0.84852 0.0
C326 C 0.76434 0.91138 0.82827 0.0
C327 C 0.78233 0.91888 0.81048 0.0
C328 C 0.87118 0.8618 0.74879 0.0
C329 C 0.89637 0.88141 0.82537 0.0
C330 C 0.95355 0.87498 0.74093 0.0
Eu331 Eu 0.91517 0.8924 0.76331 0.0
C332 C 0.97026 0.879 0.71775 0.0
C333 C 0.973 0.9013 0.70561 0.0
C334 C 0.9902 0.90499 0.68505 0.0
C335 C 1.00498 0.88644 0.67616 0.0
C336 C 1.00146 0.86392 0.6876 0.0
C337 C 0.9843 0.86028 0.70822 0.0
C338 C 0.90881 0.93642 0.78557 0.0
C339 C 0.88445 0.92219 0.71693 0.0
O340 O 0.84355 0.92344 0.80525 0.0
O341 O 0.82631 0.90561 0.7705 0.0
O342 O 0.85358 0.87571 0.74421 0.0
O343 O 0.88382 0.86976 0.76846 0.0
O344 O 0.87715 0.89279 0.81776 0.0
O345 O 0.91326 0.87653 0.80711 0.0
O346 O 0.93232 0.86816 0.73413 0.0
O347 O 0.95352 0.89032 0.76137 0.0
O348 O 0.92689 0.92303 0.79066 0.0
O349 O 0.89574 0.92625 0.76808 0.0
O350 O 0.90269 0.90796 0.72119 0.0
O351 O 0.86903 0.92607 0.73703 0.0
H352 H 0.82643 0.88315 0.83358 0.0
H353 H 0.79516 0.87041 0.86552 0.0
H354 H 0.74707 0.91932 0.82619 0.0
H355 H 0.77864 0.93249 0.79523 0.0
H356 H 0.96217 0.91595 0.71242 0.0
H357 H 0.9922 0.92249 0.6764 0.0
H358 H 0.0126 0.84931 0.68149 0.0
H359 H 0.9824 0.8429 0.71726 0.0
C360 C 0.85163 0.07062 0.53525 0.0
Eu361 Eu 0.86412 0.11288 0.51995 0.0
C362 C 0.85591 0.0544 0.55861 0.0
C363 C 0.85647 0.0301 0.55345 0.0
C364 C 0.86041 0.01427 0.57532 0.0
C365 C 0.86375 0.02255 0.60274 0.0
C366 C 0.86366 0.04699 0.60772 0.0
C367 C 0.85984 0.0628 0.58582 0.0
C368 C 0.906 0.12114 0.49472 0.0
C369 C 0.88351 0.1427 0.57353 0.0
C370 C 0.89245 0.20353 0.49357 0.0
Eu371 Eu 0.87542 0.16382 0.51252 0.0
C372 C 0.88838 0.22212 0.47231 0.0
C373 C 0.8847 0.24534 0.48133 0.0
C374 C 0.8815 0.2635 0.46202 0.0
C375 C 0.88199 0.25899 0.43308 0.0
C376 C 0.88614 0.23579 0.42392 0.0
C377 C 0.88924 0.2175 0.44335 0.0
C378 C 0.83164 0.15595 0.53384 0.0
C379 C 0.84746 0.13488 0.46233 0.0
O380 O 0.83913 0.08949 0.54052 0.0
O381 O 0.86974 0.07493 0.5193 0.0
O382 O 0.8915 0.10466 0.48759 0.0
O383 O 0.89826 0.13242 0.51568 0.0
O384 O 0.87122 0.12461 0.5643 0.0
O385 O 0.89082 0.15941 0.55633 0.0
O386 O 0.8994 0.18278 0.48494 0.0
O387 O 0.87749 0.20223 0.51431 0.0
O388 O 0.84485 0.17361 0.54096 0.0
O389 O 0.84151 0.14436 0.51471 0.0
O390 O 0.85997 0.15378 0.46936 0.0
O391 O 0.84403 0.11766 0.48031 0.0
H392 H 0.85363 0.02334 0.53251 0.0
H393 H 0.86016 0.99556 0.57091 0.0
H394 H 0.86646 0.05388 0.6286 0.0
H395 H 0.8598 0.08152 0.59019 0.0
H396 H 0.88436 0.2495 0.50345 0.0
H397 H 0.87869 0.28121 0.46981 0.0
H398 H 0.88647 0.23172 0.40179 0.0
H399 H 0.89224 0.19979 0.43569 0.0
C400 C 0.70065 0.09821 0.27967 0.0
Eu401 Eu 0.65779 0.11244 0.26932 0.0
C402 C 0.71942 0.1016 0.30048 0.0
C403 C 0.7377 0.08511 0.30197 0.0
C404 C 0.75579 0.08783 0.3215 0.0
C405 C 0.7559 0.1071 0.34006 0.0
C406 C 0.73768 0.12386 0.3382 0.0
C407 C 0.71956 0.12112 0.31855 0.0
C408 C 0.64717 0.15392 0.24478 0.0
C409 C 0.63355 0.13335 0.3268 0.0
C410 C 0.56462 0.13957 0.25395 0.0
Eu411 Eu 0.60596 0.12357 0.26942 0.0
C412 C 0.54777 0.13638 0.23046 0.0
C413 C 0.53427 0.15559 0.22111 0.0
C414 C 0.51747 0.15275 0.19978 0.0
C415 C 0.5137 0.13057 0.18743 0.0
C416 C 0.52786 0.11153 0.19624 0.0
C417 C 0.54473 0.11442 0.21742 0.0
C418 C 0.6168 0.07969 0.28858 0.0
C419 C 0.63034 0.09746 0.2147 0.0
O420 O 0.68187 0.0868 0.28788 0.0
O421 O 0.69562 0.11636 0.264 0.0
O422 O 0.66354 0.1397 0.23643 0.0
O423 O 0.63765 0.14642 0.26711 0.0
O424 O 0.65124 0.1225 0.3143 0.0
O425 O 0.61381 0.13826 0.31308 0.0
O426 O 0.58448 0.15002 0.24802 0.0
O427 O 0.56752 0.12188 0.27112 0.0
O428 O 0.60012 0.09273 0.29901 0.0
O429 O 0.62602 0.09003 0.26809 0.0
O430 O 0.61203 0.10917 0.22495 0.0
O431 O 0.64944 0.09365 0.22961 0.0
H432 H 0.73798 0.07005 0.28802 0.0
H433 H 0.76971 0.07478 0.32211 0.0
H434 H 0.73712 0.13875 0.35237 0.0
H435 H 0.70562 0.13413 0.31754 0.0
H436 H 0.5364 0.17275 0.23071 0.0
H437 H 0.50682 0.16773 0.19371 0.0
H438 H 0.52569 0.09427 0.18694 0.0
H439 H 0.55514 0.09938 0.22388 0.0
C440 C 0.66211 0.94308 0.04808 0.0
Eu441 Eu 0.65444 0.9007 1.02922 0.0
C442 C 0.65141 0.96073 0.06677 0.0
C443 C 0.64325 0.95491 0.09362 0.0
C444 C 0.63437 0.97245 0.11133 0.0
C445 C 0.63343 0.99607 0.10245 0.0
C446 C 0.64082 1.00158 0.07517 0.0
C447 C 0.64979 0.9841 0.05759 0.0
C448 C 0.6156 0.8885 0.99975 0.0
C449 C 0.63763 0.86569 0.07975 0.0
C450 C 0.6426 0.8074 0.99688 0.0
Eu451 Eu 0.65177 0.84914 1.01757 0.0
C452 C 0.63859 0.79411 0.97042 0.0
C453 C 0.65753 0.78655 0.95364 0.0
C454 C 0.65379 0.77112 0.93111 0.0
C455 C 0.63105 0.76272 0.9249 0.0
C456 C 0.61202 0.77113 0.94097 0.0
C457 C 0.61575 0.78654 0.96345 0.0
C458 C 0.69265 0.86285 0.043 0.0
C459 C 0.67461 0.88404 0.97105 0.0
O460 O 0.67111 0.92412 0.05946 0.0
O461 O 0.65077 0.9387 1.02487 0.0
O462 O 0.62708 0.90795 0.99666 0.0
O463 O 0.62397 0.8767 1.01997 0.0
O464 O 0.6421 0.88736 0.0714 0.0
O465 O 0.63924 0.84744 0.06261 0.0
O466 O 0.62631 0.8222 1.00509 0.0
O467 O 0.66387 0.81499 1.00225 0.0
O468 O 0.68162 0.84337 0.04852 0.0
O469 O 0.68195 0.87351 1.02376 0.0
O470 O 0.66256 0.86437 0.97506 0.0
O471 O 0.67764 0.89929 0.99151 0.0
H472 H 0.64414 0.93694 0.10112 0.0
H473 H 0.62904 0.96763 0.13229 0.0
H474 H 0.63998 0.01949 0.06749 0.0
H475 H 0.6558 0.98891 0.03686 0.0
H476 H 0.6754 0.79184 0.95848 0.0
H477 H 0.6689 0.76489 0.91942 0.0
H478 H 0.59422 0.76534 0.93659 0.0
H479 H 0.60078 0.79189 0.976 0.0
C480 C 0.82483 0.10355 0.78428 0.0
Eu481 Eu 0.86917 0.11435 0.79063 0.0
C482 C 0.80444 0.10943 0.76661 0.0
C483 C 0.80537 0.12764 0.7468 0.0
C484 C 0.78666 0.13096 0.72801 0.0
C485 C 0.76697 0.11591 0.7286 0.0
C486 C 0.76586 0.09829 0.74918 0.0
C487 C 0.7844 0.09512 0.768 0.0
C488 C 0.88668 0.15635 0.80948 0.0
C489 C 0.9011 0.13115 0.73886 0.0
C490 C 0.96568 0.12447 0.81724 0.0
Eu491 Eu 0.92317 0.11596 0.79879 0.0
C492 C 0.97908 0.12574 0.84391 0.0
C493 C 0.99585 0.14363 0.84793 0.0
C494 C 0.01115 0.14314 0.87103 0.0
C495 C 0.01012 0.12457 0.89042 0.0
C496 C 0.99242 0.10742 0.88719 0.0
C497 C 0.97702 0.10803 0.86429 0.0
C498 C 0.90696 0.07664 0.7717 0.0
C499 C 0.89115 0.09178 0.84748 0.0
O500 O 0.84209 0.09254 0.77164 0.0
O501 O 0.83223 0.11959 0.80194 0.0
O502 O 0.86913 0.1546 0.79215 0.0
O503 O 0.89336 0.13604 0.81621 0.0
O504 O 0.88154 0.12047 0.74666 0.0
O505 O 0.91872 0.13482 0.7567 0.0
O506 O 0.95036 0.14118 0.81192 0.0
O507 O 0.95827 0.10363 0.80944 0.0
O508 O 0.92705 0.08675 0.76653 0.0
O509 O 0.89737 0.08748 0.79162 0.0
O510 O 0.91232 0.09942 0.84013 0.0
O511 O 0.87235 0.09498 0.83156 0.0
H512 H 0.82084 0.13873 0.74529 0.0
H513 H 0.78808 0.14452 0.71219 0.0
H514 H 0.75085 0.08655 0.75024 0.0
H515 H 0.78343 0.08093 0.78309 0.0
H516 H 0.99781 0.15747 0.83253 0.0
H517 H 0.02467 0.1565 0.87281 0.0
H518 H 0.99102 0.093 0.90191 0.0
H519 H 0.96414 0.0941 0.86197 0.0
C520 C 0.67492 0.07621 0.53019 0.0
Eu521 Eu 0.66005 0.11754 0.54638 0.0
C522 C 0.67175 0.05885 0.50763 0.0
C523 C 0.65027 0.05655 0.49325 0.0
C524 C 0.64761 0.03923 0.47258 0.0
C525 C 0.66644 0.02411 0.46585 0.0
C526 C 0.68787 0.0266 0.48034 0.0
C527 C 0.69047 0.04378 0.50101 0.0
C528 C 0.61885 0.12509 0.57339 0.0
C529 C 0.63775 0.14767 0.49412 0.0
C530 C 0.63139 0.20901 0.57387 0.0
Eu531 Eu 0.64805 0.16902 0.55491 0.0
C532 C 0.63038 0.22476 0.59868 0.0
C533 C 0.65074 0.23268 0.61263 0.0
C534 C 0.64905 0.24953 0.63414 0.0
C535 C 0.62701 0.25888 0.64199 0.0
C536 C 0.60668 0.25013 0.62869 0.0
C537 C 0.60837 0.23335 0.60733 0.0
C538 C 0.69119 0.16058 0.532 0.0
C539 C 0.67608 0.13991 0.60439 0.0
O540 O 0.68559 0.09588 0.52374 0.0
O541 O 0.65711 0.07939 0.54708 0.0
O542 O 0.63327 0.10807 0.57895 0.0
O543 O 0.62604 0.13686 0.55257 0.0
O544 O 0.64999 0.12917 0.50253 0.0
O545 O 0.63187 0.16482 0.51158 0.0
O546 O 0.61997 0.18907 0.5753 0.0
O547 O 0.6513 0.20711 0.56026 0.0
O548 O 0.67774 0.17802 0.52453 0.0
O549 O 0.68164 0.14941 0.55157 0.0
O550 O 0.66229 0.15807 0.59811 0.0
O551 O 0.68055 0.12325 0.58584 0.0
H552 H 0.6356 0.06808 0.49804 0.0
H553 H 0.63099 0.03791 0.46156 0.0
H554 H 0.70262 0.01507 0.47587 0.0
H555 H 0.70711 0.04521 0.512 0.0
H556 H 0.66797 0.22633 0.60647 0.0
H557 H 0.66507 0.25593 0.64381 0.0
H558 H 0.58939 0.25659 0.63447 0.0
H559 H 0.59241 0.2275 0.59701 0.0
C560 C 0.69771 0.91568 0.2743 0.0
Eu561 Eu 0.65645 0.90424 0.29386 0.0
C562 C 0.71541 0.90701 0.2543 0.0
C563 C 0.71968 0.88284 0.25059 0.0
C564 C 0.73739 0.87519 0.23233 0.0
C565 C 0.75106 0.8916 0.21742 0.0
C566 C 0.74627 0.91576 0.22084 0.0
C567 C 0.72869 0.92336 0.23915 0.0
C568 C 0.64718 0.86428 0.32267 0.0
C569 C 0.62312 0.88261 0.24415 0.0
C570 C 0.56521 0.88256 0.32726 0.0
Eu571 Eu 0.60501 0.89687 0.30554 0.0
C572 C 0.549 0.88648 0.351 0.0
C573 C 0.53583 0.86748 0.3613 0.0
C574 C 0.51859 0.871 0.38183 0.0
C575 C 0.51409 0.89369 0.3924 0.0
C576 C 0.52807 0.91255 0.38287 0.0
C577 C 0.54538 0.90899 0.3624 0.0
C578 C 0.615 0.93913 0.28085 0.0
C579 C 0.63721 0.92557 0.35137 0.0
O580 O 0.67794 0.9236 0.26379 0.0
O581 O 0.69463 0.90325 0.29699 0.0
O582 O 0.66562 0.87729 0.32635 0.0
O583 O 0.63499 0.87192 0.30236 0.0
O584 O 0.64373 0.89139 0.25151 0.0
O585 O 0.60545 0.88085 0.26205 0.0
O586 O 0.58555 0.8728 0.33275 0.0
O587 O 0.56678 0.89923 0.30851 0.0
O588 O 0.59602 0.92704 0.27595 0.0
O589 O 0.62674 0.92892 0.29952 0.0
O590 O 0.6179 0.91288 0.3471 0.0
O591 O 0.65324 0.92766 0.33152 0.0
H592 H 0.70953 0.86989 0.26203 0.0
H593 H 0.74065 0.85648 0.23026 0.0
H594 H 0.75602 0.92887 0.2092 0.0
H595 H 0.72554 0.94208 0.2416 0.0
H596 H 0.53837 0.84996 0.35279 0.0
H597 H 0.50806 0.85613 0.38848 0.0
H598 H 0.5253 0.93019 0.39086 0.0
H599 H 0.55549 0.9239 0.35499 0.0
C600 C 0.85311 0.94733 1.03217 0.0
Eu601 Eu 0.86616 0.90505 0.04684 0.0
C602 C 0.85571 0.96364 1.00845 0.0
C603 C 0.86242 0.98699 1.0138 0.0
C604 C 0.86529 1.00292 0.99185 0.0
C605 C 0.86131 0.99583 0.9641 0.0
C606 C 0.85465 0.97238 0.95873 0.0
C607 C 0.85199 0.95637 0.98071 0.0
C608 C 0.9085 0.89642 0.07063 0.0
C609 C 0.88338 0.87511 0.99194 0.0
C610 C 0.8944 0.81382 0.0714 0.0
Eu611 Eu 0.87741 0.85372 0.05285 0.0
C612 C 0.89015 0.7968 0.09422 0.0
C613 C 0.9089 0.78313 0.10442 0.0
C614 C 0.90501 0.76587 0.12485 0.0
C615 C 0.88222 0.76186 0.13534 0.0
C616 C 0.86364 0.77625 0.12579 0.0
C617 C 0.86757 0.79358 0.10551 0.0
C618 C 0.83295 0.86252 0.03405 0.0
C619 C 0.85219 0.88246 0.10506 0.0
O620 O 0.83994 0.92864 1.02865 0.0
O621 O 0.87233 0.94288 0.04619 0.0
O622 O 0.89434 0.91314 0.07801 0.0
O623 O 0.9003 0.88517 0.04981 0.0
O624 O 0.87181 0.89337 1.00211 0.0
O625 O 0.89117 0.85812 1.00844 0.0
O626 O 0.90263 0.83442 0.07871 0.0
O627 O 0.87832 0.81533 0.05186 0.0
O628 O 0.84571 0.84488 1.02563 0.0
O629 O 0.84372 0.87368 0.05283 0.0
O630 O 0.86327 0.86316 0.09654 0.0
O631 O 0.84854 0.90044 0.08824 0.0
H632 H 0.86541 0.99293 0.03506 0.0
H633 H 0.87019 0.02091 0.99662 0.0
H634 H 0.8517 0.96638 0.9375 0.0
H635 H 0.84706 0.93836 0.976 0.0
H636 H 0.9265 0.78544 0.09611 0.0
H637 H 0.91965 0.75502 0.13156 0.0
H638 H 0.84593 0.77383 0.1337 0.0
H639 H 0.85289 0.80414 0.09826 0.0
C640 C 0.55709 0.63373 0.82106 0.0
Eu641 Eu 0.59885 0.62362 0.80116 0.0
C642 C 0.54362 0.63397 0.84769 0.0
C643 C 0.52749 0.65224 0.85301 0.0
C644 C 0.51189 0.65093 0.87574 0.0
C645 C 0.51197 0.63119 0.89346 0.0
C646 C 0.52911 0.61361 0.88905 0.0
C647 C 0.54479 0.61501 0.8665 0.0
C648 C 0.61224 0.58267 0.77528 0.0
C649 C 0.6316 0.59978 0.84937 0.0
C650 C 0.69532 0.60923 0.78029 0.0
Eu651 Eu 0.65135 0.61955 0.79018 0.0
C652 C 0.71442 0.61677 0.76123 0.0
C653 C 0.7217 0.64039 0.75932 0.0
C654 C 0.7396 0.64689 0.74065 0.0
C655 C 0.75053 0.62995 0.72343 0.0
C656 C 0.74311 0.60636 0.72548 0.0
C657 C 0.72539 0.59987 0.74422 0.0
C658 C 0.63622 0.6634 0.806 0.0
C659 C 0.61818 0.6359 0.73997 0.0
O660 O 0.5736 0.64956 0.81757 0.0
O661 O 0.56303 0.61311 0.81109 0.0
O662 O 0.59303 0.59414 0.76947 0.0
O663 O 0.62291 0.59324 0.7946 0.0
O664 O 0.61038 0.60759 0.84247 0.0
O665 O 0.64984 0.60191 0.83236 0.0
O666 O 0.67759 0.59826 0.76855 0.0
O667 O 0.68866 0.62386 0.79999 0.0
O668 O 0.65183 0.65964 0.78669 0.0
O669 O 0.62965 0.64395 0.81568 0.0
O670 O 0.63653 0.62286 0.7467 0.0
O671 O 0.60268 0.64261 0.75915 0.0
H672 H 0.52622 0.66704 0.83881 0.0
H673 H 0.49883 0.66467 0.87843 0.0
H674 H 0.52979 0.59828 0.90249 0.0
H675 H 0.55715 0.60074 0.86312 0.0
H676 H 0.71353 0.65385 0.77214 0.0
H677 H 0.74495 0.66517 0.73986 0.0
H678 H 0.75066 0.59287 0.7122 0.0
H679 H 0.72003 0.58158 0.7452 0.0
C680 C 0.62469 0.31196 0.07207 0.0
Eu681 Eu 0.64179 0.35034 0.04982 0.0
C682 C 0.62891 0.29635 0.0963 0.0
C683 C 0.61038 0.28264 0.10688 0.0
C684 C 0.61448 0.26609 0.12809 0.0
C685 C 0.63727 0.26284 0.13897 0.0
C686 C 0.65557 0.27743 0.12918 0.0
C687 C 0.65143 0.29405 0.10812 0.0
C688 C 0.68503 0.35991 1.02773 0.0
C689 C 0.66842 0.38349 0.09719 0.0
C690 C 0.67308 0.44328 1.01842 0.0
Eu691 Eu 0.65297 0.40525 0.03674 0.0
C692 C 0.66875 0.46276 0.99848 0.0
C693 C 0.65677 0.48333 1.00675 0.0
C694 C 0.65406 0.50215 0.98813 0.0
C695 C 0.66349 0.50085 0.96099 0.0
C696 C 0.67517 0.48016 0.95267 0.0
C697 C 0.67785 0.4614 0.97121 0.0
C698 C 0.60771 0.39878 0.05522 0.0
C699 C 0.63018 0.37154 0.98803 0.0
O700 O 0.61644 0.33301 0.07739 0.0
O701 O 0.64081 0.31206 0.05247 0.0
O702 O 0.6744 0.33971 1.02516 0.0
O703 O 0.67338 0.37262 0.04429 0.0
O704 O 0.65804 0.36309 0.09103 0.0
O705 O 0.66953 0.40126 0.07926 0.0
O706 O 0.67661 0.42232 1.00755 0.0
O707 O 0.66046 0.4427 0.04144 0.0
O708 O 0.61635 0.41932 0.04913 0.0
O709 O 0.62329 0.38383 0.04963 0.0
O710 O 0.64207 0.39079 0.99479 0.0
O711 O 0.62553 0.35444 1.00626 0.0
H712 H 0.59284 0.28422 0.09812 0.0
H713 H 0.60006 0.25506 0.13498 0.0
H714 H 0.67328 0.27558 0.13737 0.0
H715 H 0.66595 0.30463 0.10053 0.0
H716 H 0.64978 0.48506 1.02773 0.0
H717 H 0.64515 0.51794 0.9952 0.0
H718 H 0.68233 0.47847 0.93177 0.0
H719 H 0.68734 0.44591 0.9642 0.0
C720 C 0.95357 0.37995 0.31662 0.0
Eu721 Eu 0.91258 0.39481 0.29844 0.0
C722 C 0.97205 0.38415 0.33815 0.0
C723 C 0.99504 0.38938 0.3294 0.0
C724 C 0.01324 0.3922 0.34886 0.0
C725 C 1.00903 0.38982 0.37775 0.0
C726 C 0.98602 0.38432 0.38658 0.0
C727 C 0.9677 0.38155 0.367 0.0
C728 C 0.90158 0.43768 0.27646 0.0
C729 C 0.88366 0.42272 0.34882 0.0
C730 C 0.81678 0.41141 0.28045 0.0
Eu731 Eu 0.86077 0.40293 0.29285 0.0
C732 C 0.79986 0.41003 0.25722 0.0
C733 C 0.77654 0.40361 0.26308 0.0
C734 C 0.7599 0.40206 0.24163 0.0
C735 C 0.7663 0.40702 0.21389 0.0
C736 C 0.78979 0.41327 0.20802 0.0
C737 C 0.80649 0.41468 0.22951 0.0
C738 C 0.87254 0.36331 0.32097 0.0
C739 C 0.89054 0.3865 0.23791 0.0
O740 O 0.93338 0.37119 0.32469 0.0
O741 O 0.95113 0.39564 0.29683 0.0
O742 O 0.91991 0.42544 0.26912 0.0
O743 O 0.89096 0.42734 0.29596 0.0
O744 O 0.90322 0.4115 0.34117 0.0
O745 O 0.86535 0.42397 0.3319 0.0
O746 O 0.83341 0.42734 0.27907 0.0
O747 O 0.8243 0.39132 0.29022 0.0
O748 O 0.85596 0.37769 0.32816 0.0
O749 O 0.88238 0.37012 0.29856 0.0
O750 O 0.87202 0.39765 0.24802 0.0
O751 O 0.90797 0.37966 0.25447 0.0
H752 H 0.99904 0.39106 0.30733 0.0
H753 H 0.03076 0.39602 0.34117 0.0
H754 H 0.9821 0.38251 0.40864 0.0
H755 H 0.95021 0.37732 0.37448 0.0
H756 H 0.77114 0.39989 0.28436 0.0
H757 H 0.74192 0.39743 0.24683 0.0
H758 H 0.79529 0.41693 0.18678 0.0
H759 H 0.82449 0.4194 0.2245 0.0
C760 C 0.88829 0.7055 0.5716 0.0
Eu761 Eu 0.87236 0.66547 0.55206 0.0
C762 C 0.88413 0.72212 0.59494 0.0
C763 C 0.86188 0.72436 0.60746 0.0
C764 C 0.85809 0.74119 0.62849 0.0
C765 C 0.8765 0.75604 0.63753 0.0
C766 C 0.89895 0.7531 0.62558 0.0
C767 C 0.90269 0.73634 0.60447 0.0
C768 C 0.82879 0.65593 0.53119 0.0
C769 C 0.8465 0.63583 0.60286 0.0
C770 C 0.84847 0.5719 0.52957 0.0
Eu771 Eu 0.86245 0.61382 0.54455 0.0
C772 C 0.85149 0.55398 0.5077 0.0
C773 C 0.83573 0.53507 0.50686 0.0
C774 C 0.83833 0.51734 0.48689 0.0
C775 C 0.85679 0.51817 0.4673 0.0
C776 C 0.87276 0.5371 0.46832 0.0
C777 C 0.87009 0.55496 0.48838 0.0
C778 C 0.90399 0.62312 0.57002 0.0
C779 C 0.88316 0.64382 0.49127 0.0
O780 O 0.89724 0.68502 0.57813 0.0
O781 O 0.87189 0.70389 0.55244 0.0
O782 O 0.84132 0.674 0.52376 0.0
O783 O 0.83927 0.64472 0.55015 0.0
O784 O 0.85754 0.65537 0.59521 0.0
O785 O 0.84368 0.61803 0.58546 0.0
O786 O 0.83729 0.59122 0.52272 0.0
O787 O 0.86663 0.57579 0.54572 0.0
O788 O 0.89038 0.60563 0.57624 0.0
O789 O 0.89587 0.63438 0.54925 0.0
O790 O 0.87241 0.62468 0.50045 0.0
O791 O 0.88779 0.66168 0.50829 0.0
H792 H 0.84735 0.71337 0.60071 0.0
H793 H 0.84066 0.74274 0.6375 0.0
H794 H 0.91346 0.76432 0.63181 0.0
H795 H 0.92003 0.73482 0.59516 0.0
H796 H 0.82141 0.53396 0.52177 0.0
H797 H 0.82591 0.50287 0.48686 0.0
H798 H 0.88699 0.53833 0.45331 0.0
H799 H 0.88247 0.56947 0.48882 0.0
C800 C 0.55677 0.38965 0.74358 0.0
Eu801 Eu 0.5986 0.40066 0.76244 0.0
C802 C 0.54327 0.38928 0.71701 0.0
C803 C 0.54531 0.40765 0.6975 0.0
C804 C 0.52972 0.40916 0.67486 0.0
C805 C 0.51186 0.39225 0.67107 0.0
C806 C 0.51087 0.37303 0.68953 0.0
C807 C 0.52637 0.37164 0.71237 0.0
C808 C 0.61148 0.4422 0.78688 0.0
C809 C 0.62997 0.42456 0.71321 0.0
C810 C 0.69519 0.41713 0.77883 0.0
Eu811 Eu 0.65111 0.40543 0.77203 0.0
C812 C 0.71527 0.41165 0.79716 0.0
C813 C 0.73446 0.42712 0.79773 0.0
C814 C 0.75264 0.42394 0.81707 0.0
C815 C 0.75198 0.40518 0.83621 0.0
C816 C 0.73317 0.38908 0.83483 0.0
C817 C 0.71485 0.39238 0.81552 0.0
C818 C 0.63634 0.3612 0.75742 0.0
C819 C 0.61898 0.39066 0.82388 0.0
O820 O 0.57365 0.37414 0.74684 0.0
O821 O 0.56239 0.41039 0.75342 0.0
O822 O 0.59285 0.43028 0.79383 0.0
O823 O 0.62222 0.43151 0.76763 0.0
O824 O 0.60889 0.41685 0.7207 0.0
O825 O 0.64856 0.42232 0.72963 0.0
O826 O 0.67761 0.42816 0.79077 0.0
O827 O 0.68824 0.40071 0.76144 0.0
O828 O 0.65217 0.36538 0.77639 0.0
O829 O 0.62935 0.38045 0.74753 0.0
O830 O 0.63743 0.40303 0.81599 0.0
O831 O 0.60299 0.38348 0.80549 0.0
H832 H 0.5583 0.42141 0.70038 0.0
H833 H 0.53107 0.42406 0.66084 0.0
H834 H 0.49724 0.35982 0.68728 0.0
H835 H 0.52445 0.35731 0.72713 0.0
H836 H 0.73506 0.44211 0.78375 0.0
H837 H 0.76699 0.4365 0.81748 0.0
H838 H 0.73209 0.37461 0.84949 0.0
H839 H 0.70004 0.38035 0.81548 0.0
C840 C 0.88561 0.30978 0.99007 0.0
Eu841 Eu 0.86923 0.34934 1.01058 0.0
C842 C 0.8831 0.29404 0.96554 0.0
C843 C 0.88792 0.26997 0.96865 0.0
C844 C 0.88681 0.25472 0.94567 0.0
C845 C 0.88088 0.26316 0.91888 0.0
C846 C 0.87566 0.28731 0.91591 0.0
C847 C 0.8768 0.3026 0.939 0.0
C848 C 0.82569 0.35666 0.03299 0.0
C849 C 0.841 0.37888 0.96177 0.0
C850 C 0.84305 0.44165 0.03641 0.0
Eu851 Eu 0.85785 0.40038 1.01984 0.0
C852 C 0.84802 0.46073 0.05636 0.0
C853 C 0.86653 0.45936 0.0758 0.0
C854 C 0.87036 0.47786 0.09479 0.0
C855 C 0.85564 0.49784 0.09459 0.0
C856 C 0.83754 0.49921 0.07456 0.0
C857 C 0.83378 0.48084 0.05569 0.0
C858 C 0.8995 0.39276 0.99355 0.0
C859 C 0.8807 0.37013 0.07166 0.0
O860 O 0.8953 0.33034 0.98582 0.0
O861 O 0.86792 0.31087 1.00751 0.0
O862 O 0.83939 0.33919 0.03962 0.0
O863 O 0.83533 0.36891 1.01428 0.0
O864 O 0.85461 0.36054 0.9677 0.0
O865 O 0.83671 0.39522 0.98073 0.0
O866 O 0.83519 0.42178 0.04661 0.0
O867 O 0.85826 0.4386 1.01624 0.0
O868 O 0.88537 0.41001 0.98801 0.0
O869 O 0.89183 0.38095 1.01405 0.0
O870 O 0.86958 0.38929 0.06315 0.0
O871 O 0.88505 0.35245 0.05426 0.0
H872 H 0.89276 0.26296 0.98892 0.0
H873 H 0.89047 0.23621 0.94897 0.0
H874 H 0.87115 0.2945 0.89564 0.0
H875 H 0.87303 0.32113 0.93605 0.0
H876 H 0.87777 0.44395 0.07647 0.0
H877 H 0.88432 0.47623 0.11012 0.0
H878 H 0.82611 0.51447 0.07361 0.0
H879 H 0.81955 0.48227 0.04066 0.0
C880 C 0.95373 0.63562 0.24525 0.0
Eu881 Eu 0.91284 0.62072 0.26345 0.0
C882 C 0.96969 0.63245 0.22105 0.0
C883 C 0.98479 0.65086 0.21321 0.0
C884 C 1.00105 0.64785 0.19141 0.0
C885 C 1.00262 0.62626 0.17706 0.0
C886 C 0.98681 0.60812 0.18434 0.0
C887 C 0.97049 0.6112 0.20605 0.0
C888 C 0.90156 0.57789 0.28498 0.0
C889 C 0.88415 0.59333 0.21255 0.0
C890 C 0.81707 0.60375 0.27974 0.0
Eu891 Eu 0.8611 0.61293 0.26845 0.0
C892 C 0.79902 0.60662 0.30141 0.0
C893 C 0.80147 0.62316 0.32308 0.0
C894 C 0.78334 0.62621 0.34263 0.0
C895 C 0.76263 0.61269 0.34079 0.0
C896 C 0.76035 0.59627 0.31891 0.0
C897 C 0.77839 0.59328 0.29943 0.0
C898 C 0.8731 0.65307 0.24153 0.0
C899 C 0.89065 0.62867 0.32418 0.0
O900 O 0.93385 0.64649 0.24045 0.0
O901 O 0.95119 0.61775 0.26221 0.0
O902 O 0.91971 0.59014 0.29294 0.0
O903 O 0.89113 0.58829 0.26532 0.0
O904 O 0.90355 0.6048 0.22021 0.0
O905 O 0.86602 0.59167 0.22963 0.0
O906 O 0.83425 0.58897 0.28474 0.0
O907 O 0.8242 0.62299 0.26752 0.0
O908 O 0.85646 0.63899 0.23383 0.0
O909 O 0.88282 0.64569 0.26377 0.0
O910 O 0.8716 0.61882 0.31352 0.0
O911 O 0.90874 0.63456 0.30812 0.0
H912 H 0.98438 0.66746 0.22441 0.0
H913 H 0.01304 0.6621 0.18656 0.0
H914 H 0.9873 0.59137 0.17349 0.0
H915 H 0.95881 0.59683 0.21144 0.0
H916 H 0.81732 0.63368 0.32481 0.0
H917 H 0.78569 0.63879 0.35945 0.0
H918 H 0.74452 0.58577 0.31676 0.0
H919 H 0.77614 0.58063 0.28265 0.0
C920 C 0.62933 0.70719 0.49991 0.0
Eu921 Eu 0.64498 0.6661 0.51654 0.0
C922 C 0.6335 0.72558 0.47831 0.0
C923 C 0.63984 0.74837 0.48682 0.0
C924 C 0.64302 0.76634 0.46718 0.0
C925 C 0.63984 0.76209 0.43839 0.0
C926 C 0.63316 0.73933 0.42982 0.0
C927 C 0.63008 0.72125 0.44955 0.0
C928 C 0.68832 0.65596 0.53792 0.0
C929 C 0.67283 0.63985 0.46407 0.0
C930 C 0.66869 0.57177 0.532 0.0
Eu931 Eu 0.65582 0.61443 0.51911 0.0
C932 C 0.66491 0.55509 0.55508 0.0
C933 C 0.65995 0.53145 0.5489 0.0
C934 C 0.65641 0.51522 0.57042 0.0
C935 C 0.65797 0.52236 0.59849 0.0
C936 C 0.66258 0.54614 0.60464 0.0
C937 C 0.66593 0.5624 0.58312 0.0
C938 C 0.61508 0.62474 0.49261 0.0
C939 C 0.63305 0.63994 0.57416 0.0
O940 O 0.62046 0.68707 0.49175 0.0
O941 O 0.64529 0.7046 0.51943 0.0
O942 O 0.67512 0.67307 0.54692 0.0
O943 O 0.67846 0.64597 0.51759 0.0
O944 O 0.66075 0.65854 0.47281 0.0
O945 O 0.67592 0.62137 0.48022 0.0
O946 O 0.6815 0.59042 0.53733 0.0
O947 O 0.65021 0.57652 0.51672 0.0
O948 O 0.62961 0.60841 0.48489 0.0
O949 O 0.62205 0.63454 0.515 0.0
O950 O 0.64531 0.62239 0.56347 0.0
O951 O 0.62807 0.65892 0.55914 0.0
H952 H 0.64221 0.75237 0.5088 0.0
H953 H 0.64781 0.78371 0.47463 0.0
H954 H 0.63074 0.73539 0.40784 0.0
H955 H 0.62501 0.70392 0.44224 0.0
H956 H 0.65897 0.52552 0.52738 0.0
H957 H 0.65306 0.49697 0.56512 0.0
H958 H 0.66359 0.55215 0.62613 0.0
H959 H 0.66943 0.58062 0.58844 0.0
C960 C 0.32789 0.41698 0.29243 0.0
Eu961 Eu 0.37044 0.40783 0.275 0.0
C962 C 0.31139 0.40865 0.31391 0.0
C963 C 0.2871 0.4099 0.30879 0.0
C964 C 0.27102 0.40345 0.32953 0.0
C965 C 0.27903 0.39574 0.35578 0.0
C966 C 0.30343 0.39359 0.36042 0.0
C967 C 0.31949 0.39995 0.33963 0.0
C968 C 0.38127 0.36962 0.24361 0.0
C969 C 0.40292 0.38701 0.32587 0.0
C970 C 0.4634 0.39092 0.24545 0.0
Eu971 Eu 0.42184 0.40235 0.26509 0.0
C972 C 0.47765 0.38868 0.21949 0.0
C973 C 0.48456 0.40851 0.20392 0.0
C974 C 0.50057 0.40625 0.18172 0.0
C975 C 0.51011 0.38414 0.17456 0.0
C976 C 0.50245 0.36423 0.18953 0.0
C977 C 0.4865 0.3665 0.21172 0.0
C978 C 0.41035 0.4438 0.29096 0.0
C979 C 0.38958 0.42926 0.21843 0.0
O980 O 0.34663 0.42822 0.30123 0.0
O981 O 0.3325 0.40227 0.27213 0.0
O982 O 0.36313 0.383 0.23966 0.0
O983 O 0.39272 0.37623 0.26506 0.0
O984 O 0.38201 0.39405 0.31725 0.0
O985 O 0.42151 0.38737 0.30918 0.0
O986 O 0.44648 0.3757 0.24952 0.0
O987 O 0.45785 0.41203 0.25416 0.0
O988 O 0.42868 0.43111 0.29723 0.0
O989 O 0.39923 0.43393 0.27139 0.0
O990 O 0.40852 0.41599 0.22258 0.0
O991 O 0.37378 0.43188 0.23837 0.0
H992 H 0.28057 0.41645 0.28897 0.0
H993 H 0.25236 0.40549 0.32545 0.0
H994 H 0.3101 0.38746 0.38036 0.0
H995 H 0.33818 0.39856 0.34389 0.0
H996 H 0.47821 0.4259 0.2094 0.0
H997 H 0.50619 0.42203 0.17093 0.0
H998 H 0.50908 0.34687 0.18439 0.0
H999 H 0.48159 0.35091 0.22338 0.0
C1000 C 0.34776 0.57771 0.03908 0.0
Eu1001 Eu 0.36025 0.61996 1.0236 0.0
C1002 C 0.35147 0.56038 0.06147 0.0
C1003 C 0.37295 0.55875 0.07598 0.0
C1004 C 0.37615 0.5414 0.09644 0.0
C1005 C 0.35787 0.52559 0.10281 0.0
C1006 C 0.33645 0.52737 0.08816 0.0
C1007 C 0.33331 0.54457 0.0677 0.0
C1008 C 0.40224 0.62917 0.99893 0.0
C1009 C 0.37805 0.65137 0.07666 0.0
C1010 C 0.38392 0.71175 0.99589 0.0
Eu1011 Eu 0.36934 0.67116 1.0152 0.0
C1012 C 0.37932 0.7292 0.97341 0.0
C1013 C 0.37203 0.75201 0.98074 0.0
C1014 C 0.36873 0.76926 0.96026 0.0
C1015 C 0.37274 0.76424 0.93181 0.0
C1016 C 0.38019 0.74142 0.92442 0.0
C1017 C 0.3834 0.72406 0.94498 0.0
C1018 C 0.3253 0.66147 0.03518 0.0
C1019 C 0.34455 0.64042 0.96476 0.0
O1020 O 0.33573 0.59664 0.04538 0.0
O1021 O 0.3657 0.58208 1.02283 0.0
O1022 O 0.38867 0.61169 0.99265 0.0
O1023 O 0.39375 0.64085 1.01924 0.0
O1024 O 0.36688 0.63245 0.06778 0.0
O1025 O 0.38441 0.66826 0.05921 0.0
O1026 O 0.39313 0.69148 0.9888 0.0
O1027 O 0.36811 0.70968 1.01561 0.0
O1028 O 0.33776 0.67952 0.04286 0.0
O1029 O 0.33625 0.65014 1.01667 0.0
O1030 O 0.35626 0.65978 0.97167 0.0
O1031 O 0.34096 0.62355 0.98316 0.0
H1032 H 0.3872 0.57083 0.07146 0.0
H1033 H 0.39274 0.54062 0.10761 0.0
H1034 H 0.32212 0.5153 0.09239 0.0
H1035 H 0.31669 0.54546 0.05657 0.0
H1036 H 0.36912 0.75662 1.00246 0.0
H1037 H 0.36335 0.78672 0.96681 0.0
H1038 H 0.38327 0.7369 0.90271 0.0
H1039 H 0.38919 0.70669 0.93858 0.0
C1040 C 0.19702 0.59487 0.78785 0.0
Eu1041 Eu 0.1563 0.61092 0.77117 0.0
C1042 C 0.21687 0.60047 0.80626 0.0
C1043 C 0.2161 0.61953 0.82493 0.0
C1044 C 0.23498 0.62365 0.84317 0.0
C1045 C 0.25475 0.60866 0.84297 0.0
C1046 C 0.25563 0.59007 0.82354 0.0
C1047 C 0.23684 0.58603 0.80537 0.0
C1048 C 0.14927 0.65425 0.74871 0.0
C1049 C 0.12318 0.62865 0.8229 0.0
C1050 C 0.06662 0.64142 0.73833 0.0
Eu1051 Eu 0.10473 0.62269 0.75966 0.0
C1052 C 0.04939 0.6373 0.71571 0.0
C1053 C 0.03517 0.65596 0.70647 0.0
C1054 C 0.01771 0.6522 0.68621 0.0
C1055 C 0.01408 0.62962 0.67486 0.0
C1056 C 0.02898 0.61112 0.68352 0.0
C1057 C 0.04649 0.61493 0.7037 0.0
C1058 C 0.11188 0.5778 0.77842 0.0
C1059 C 0.13604 0.59605 0.71123 0.0
O1060 O 0.17704 0.58963 0.79995 0.0
O1061 O 0.19432 0.6082 0.76587 0.0
O1062 O 0.16761 0.64129 0.74427 0.0
O1063 O 0.13626 0.64481 0.76705 0.0
O1064 O 0.14246 0.61763 0.81468 0.0
O1065 O 0.10684 0.63566 0.80489 0.0
O1066 O 0.08795 0.64724 0.73069 0.0
O1067 O 0.06651 0.62655 0.75922 0.0
O1068 O 0.09243 0.58949 0.78215 0.0
O1069 O 0.125 0.58932 0.76232 0.0
O1070 O 0.11736 0.60935 0.71673 0.0
O1071 O 0.15162 0.59117 0.73092 0.0
H1072 H 0.20076 0.63088 0.82576 0.0
H1073 H 0.23376 0.63797 0.85809 0.0
H1074 H 0.27073 0.57842 0.82269 0.0
H1075 H 0.23774 0.57134 0.79091 0.0
H1076 H 0.03721 0.67339 0.71541 0.0
H1077 H 1.00647 0.66677 0.68025 0.0
H1078 H 0.02689 0.59359 0.67495 0.0
H1079 H 0.05747 0.60034 0.7103 0.0
C1080 C 0.16627 0.44401 0.53387 0.0
Eu1081 Eu 0.15383 0.40125 0.52022 0.0
C1082 C 0.16483 0.46205 0.55586 0.0
C1083 C 0.18293 0.47869 0.55782 0.0
C1084 C 0.18153 0.49703 0.5772 0.0
C1085 C 0.16192 0.4991 0.59499 0.0
C1086 C 0.14376 0.48232 0.59304 0.0
C1087 C 0.14523 0.46387 0.57364 0.0
C1088 C 0.11355 0.39307 0.49112 0.0
C1089 C 0.13329 0.37136 0.57275 0.0
C1090 C 0.1259 0.31106 0.49165 0.0
Eu1091 Eu 0.14262 0.35054 0.51178 0.0
C1092 C 0.13094 0.29261 0.47041 0.0
C1093 C 0.12896 0.29696 0.4415 0.0
C1094 C 0.13279 0.27883 0.42202 0.0
C1095 C 0.13876 0.25601 0.43103 0.0
C1096 C 0.14053 0.25174 0.45994 0.0
C1097 C 0.1366 0.26976 0.47933 0.0
C1098 C 0.18602 0.35742 0.53533 0.0
C1099 C 0.17383 0.37848 0.46418 0.0
O1100 O 0.17945 0.42555 0.53864 0.0
O1101 O 0.14675 0.43883 0.5208 0.0
O1102 O 0.12894 0.40896 0.48487 0.0
O1103 O 0.11975 0.38205 0.51298 0.0
O1104 O 0.14581 0.38953 0.56428 0.0
O1105 O 0.12627 0.35488 0.55502 0.0
O1106 O 0.11942 0.33189 0.48286 0.0
O1107 O 0.13991 0.31219 0.51334 0.0
O1108 O 0.17223 0.33984 0.54111 0.0
O1109 O 0.17663 0.3697 0.51647 0.0
O1110 O 0.16027 0.36003 0.46974 0.0
O1111 O 0.17617 0.39575 0.4824 0.0
H1112 H 0.19807 0.47768 0.54407 0.0
H1113 H 0.19569 0.50979 0.578 0.0
H1114 H 0.1286 0.48329 0.60674 0.0
H1115 H 0.13103 0.45117 0.57239 0.0
H1116 H 0.12442 0.31434 0.43389 0.0
H1117 H 0.13143 0.28274 0.39992 0.0
H1118 H 0.14472 0.2343 0.46765 0.0
H1119 H 0.13784 0.26575 0.50143 0.0
C1120 C 0.32117 0.60528 0.27282 0.0
Eu1121 Eu 0.36165 0.61898 0.29254 0.0
C1122 C 0.30394 0.61289 0.25163 0.0
C1123 C 0.29775 0.63671 0.24848 0.0
C1124 C 0.28044 0.64332 0.22918 0.0
C1125 C 0.26912 0.62627 0.21256 0.0
C1126 C 0.27591 0.60253 0.21532 0.0
C1127 C 0.29307 0.59592 0.23473 0.0
C1128 C 0.37033 0.66051 0.31826 0.0
C1129 C 0.39405 0.6406 0.2419 0.0
C1130 C 0.45272 0.64464 0.32493 0.0
Eu1131 Eu 0.41371 0.62818 0.30338 0.0
C1132 C 0.46981 0.63991 0.34749 0.0
C1133 C 0.47341 0.6171 0.35788 0.0
C1134 C 0.49086 0.61292 0.378 0.0
C1135 C 0.50497 0.63148 0.38819 0.0
C1136 C 0.5006 0.65443 0.37848 0.0
C1137 C 0.48322 0.65857 0.35829 0.0
C1138 C 0.40429 0.58433 0.28234 0.0
C1139 C 0.3817 0.60234 0.35167 0.0
O1140 O 0.34134 0.59723 0.26354 0.0
O1141 O 0.32345 0.61872 0.2949 0.0
O1142 O 0.3516 0.64795 0.32216 0.0
O1143 O 0.3828 0.65178 0.29881 0.0
O1144 O 0.37407 0.63082 0.2499 0.0
O1145 O 0.41181 0.64366 0.25952 0.0
O1146 O 0.43174 0.65161 0.33262 0.0
O1147 O 0.45209 0.62974 0.30401 0.0
O1148 O 0.4239 0.5956 0.27821 0.0
O1149 O 0.39215 0.59573 0.29966 0.0
O1150 O 0.40151 0.61357 0.3456 0.0
O1151 O 0.36484 0.59934 0.333 0.0
H1152 H 0.30603 0.65017 0.26118 0.0
H1153 H 0.27559 0.66173 0.22771 0.0
H1154 H 0.26801 0.58898 0.2024 0.0
H1155 H 0.29774 0.57749 0.23669 0.0
H1156 H 0.46304 0.60249 0.35007 0.0
H1157 H 0.49355 0.59508 0.38532 0.0
H1158 H 0.51125 0.66906 0.38565 0.0
H1159 H 0.48061 0.67633 0.35061 0.0
C1160 C 0.16313 0.57085 1.02365 0.0
Eu1161 Eu 0.15035 0.61263 0.04069 0.0
C1162 C 0.15476 0.55233 1.00462 0.0
C1163 C 0.13789 0.55705 0.98393 0.0
C1164 C 0.13028 0.5391 0.96598 0.0
C1165 C 0.13931 0.5161 0.96861 0.0
C1166 C 0.15578 0.51144 0.98992 0.0
C1167 C 0.16346 0.52941 1.00768 0.0
C1168 C 0.10899 0.62172 0.06676 0.0
C1169 C 0.12892 0.64386 0.98889 0.0
C1170 C 0.12594 0.70432 0.07013 0.0
Eu1171 Eu 0.14135 0.66435 0.04979 0.0
C1172 C 0.13069 0.72248 0.0918 0.0
C1173 C 0.13611 0.74547 0.0833 0.0
C1174 C 0.13972 0.76331 0.103 0.0
C1175 C 0.13791 0.7587 0.13184 0.0
C1176 C 0.13205 0.73577 0.14045 0.0
C1177 C 0.12852 0.7178 0.12063 0.0
C1178 C 0.18475 0.65445 1.0277 0.0
C1179 C 0.16808 0.63381 0.09867 0.0
O1180 O 0.17063 0.59041 1.01226 0.0
O1181 O 0.1502 0.57454 0.0458 0.0
O1182 O 0.12206 0.6035 0.07141 0.0
O1183 O 0.11723 0.6337 0.04664 0.0
O1184 O 0.13907 0.62418 0.99736 0.0
O1185 O 0.12529 0.66166 1.0063 0.0
O1186 O 0.11842 0.68369 0.07833 0.0
O1187 O 0.14062 0.70285 0.0491 0.0
O1188 O 0.17278 0.67339 1.02224 0.0
O1189 O 0.17414 0.64301 0.0463 0.0
O1190 O 0.15641 0.6533 0.09231 0.0
O1191 O 0.17113 0.61678 0.08027 0.0
H1192 H 0.13075 0.57461 0.98157 0.0
H1193 H 0.11776 0.54337 0.94965 0.0
H1194 H 0.1628 0.49388 0.99287 0.0
H1195 H 0.17626 0.52541 1.02382 0.0
H1196 H 0.13744 0.74973 0.06127 0.0
H1197 H 0.14382 0.78085 0.09558 0.0
H1198 H 0.13065 0.73162 0.16249 0.0
H1199 H 0.1241 0.70031 0.12791 0.0
C1200 C 0.1888 0.42115 0.76681 0.0
Eu1201 Eu 0.14895 0.40574 0.78684 0.0
C1202 C 0.20776 0.41323 0.74804 0.0
C1203 C 0.20344 0.3975 0.72597 0.0
C1204 C 0.22192 0.39003 0.70871 0.0
C1205 C 0.24506 0.39811 0.71333 0.0
C1206 C 0.24926 0.41361 0.73577 0.0
C1207 C 0.23078 0.42109 0.75291 0.0
C1208 C 0.14412 0.3637 0.81309 0.0
C1209 C 0.11693 0.38152 0.73781 0.0
C1210 C 0.06087 0.37523 0.82326 0.0
Eu1211 Eu 0.09862 0.39316 0.80011 0.0
C1212 C 0.0439 0.37958 0.84614 0.0
C1213 C 0.03998 0.40229 0.85677 0.0
C1214 C 0.02246 0.40618 0.87693 0.0
C1215 C 1.00854 0.38743 0.88693 0.0
C1216 C 0.01321 0.36458 0.87695 0.0
C1217 C 0.03067 0.36073 0.85673 0.0
C1218 C 0.10345 0.43716 0.77773 0.0
C1219 C 0.13037 0.42194 0.8464 0.0
O1220 O 0.16829 0.4259 0.75556 0.0
O1221 O 0.18698 0.40972 0.79038 0.0
O1222 O 0.16176 0.37779 0.8164 0.0
O1223 O 0.13056 0.37135 0.79412 0.0
O1224 O 0.13611 0.3933 0.74465 0.0
O1225 O 0.1003 0.37688 0.75646 0.0
O1226 O 0.08232 0.36938 0.83041 0.0
O1227 O 0.0604 0.38977 0.80208 0.0
O1228 O 0.08552 0.42345 0.77343 0.0
O1229 O 0.11721 0.42748 0.79492 0.0
O1230 O 0.11157 0.4086 0.8419 0.0
O1231 O 0.1455 0.42658 0.82628 0.0
H1232 H 0.1858 0.39108 0.72205 0.0
H1233 H 0.21801 0.37831 0.69143 0.0
H1234 H 0.26688 0.41989 0.7402 0.0
H1235 H 0.23449 0.43302 0.77006 0.0
H1236 H 0.05014 0.41708 0.84909 0.0
H1237 H 0.0196 0.42396 0.88444 0.0
H1238 H 1.00274 0.34978 0.88392 0.0
H1239 H 0.03345 0.34305 0.84883 0.0
C1240 C 0.34879 0.44449 0.51671 0.0
Eu1241 Eu 0.36218 0.4044 0.53774 0.0
C1242 C 0.3573 0.46235 0.49691 0.0
C1243 C 0.38113 0.46896 0.49594 0.0
C1244 C 0.38847 0.48705 0.47814 0.0
C1245 C 0.37211 0.49875 0.46095 0.0
C1246 C 0.34839 0.49154 0.46148 0.0
C1247 C 0.34107 0.47358 0.47936 0.0
C1248 C 0.40443 0.39617 0.56227 0.0
C1249 C 0.38174 0.36922 0.48886 0.0
C1250 C 0.38799 0.31486 0.57607 0.0
Eu1251 Eu 0.37083 0.35272 0.55234 0.0
C1252 C 0.38449 0.29831 0.59952 0.0
C1253 C 0.40366 0.28484 0.60897 0.0
C1254 C 0.40067 0.26788 0.62993 0.0
C1255 C 0.37837 0.26398 0.64186 0.0
C1256 C 0.35936 0.2782 0.63304 0.0
C1257 C 0.3624 0.2952 0.61209 0.0
C1258 C 0.32693 0.36143 0.5312 0.0
C1259 C 0.34515 0.38743 0.59827 0.0
O1260 O 0.34253 0.42413 0.5062 0.0
O1261 O 0.3604 0.44252 0.54022 0.0
O1262 O 0.3925 0.41544 0.565 0.0
O1263 O 0.39471 0.38284 0.5444 0.0
O1264 O 0.37228 0.3897 0.49546 0.0
O1265 O 0.38512 0.35238 0.50766 0.0
O1266 O 0.39459 0.33625 0.58249 0.0
O1267 O 0.37264 0.31441 0.55563 0.0
O1268 O 0.33777 0.34132 0.52895 0.0
O1269 O 0.33867 0.37457 0.54715 0.0
O1270 O 0.35648 0.36733 0.59381 0.0
O1271 O 0.34221 0.40309 0.57819 0.0
H1272 H 0.39401 0.46042 0.50924 0.0
H1273 H 0.40683 0.49221 0.4783 0.0
H1274 H 0.33542 0.49975 0.44803 0.0
H1275 H 0.32264 0.4686 0.47969 0.0
H1276 H 0.4209 0.28705 0.59961 0.0
H1277 H 0.41562 0.25716 0.63594 0.0
H1278 H 0.34201 0.27593 0.64203 0.0
H1279 H 0.34742 0.30559 0.60535 0.0
H1280 H 0.27494 0.15037 0.19801 0.0
H1281 H 0.27644 0.07458 0.19099 0.0
H1282 H 0.30806 0.07699 0.15679 0.0
H1283 H 0.33369 0.10029 0.12715 0.0
H1284 H 0.33245 0.17612 0.13218 0.0
H1285 H 0.30268 0.17406 0.16932 0.0
C1286 C 0.28224 0.13444 0.18893 0.0
C1287 C 0.27339 0.11232 0.19706 0.0
C1288 C 0.30053 0.13594 0.16912 0.0
C1289 C 0.28313 0.09179 0.18535 0.0
C1290 C 0.30116 0.09314 0.16572 0.0
C1291 C 0.3271 0.11641 0.13653 0.0
C1292 C 0.33513 0.13831 0.12682 0.0
C1293 C 0.30982 0.11508 0.1573 0.0
C1294 C 0.32663 0.15902 0.13941 0.0
C1295 C 0.30945 0.15784 0.16044 0.0
H1296 H 0.1637 0.05679 0.35419 0.0
H1297 H 0.10594 0.09333 0.39391 0.0
H1298 H 0.10767 0.06555 0.4332 0.0
H1299 H 0.12547 0.03031 0.45561 0.0
H1300 H 0.18269 0.99434 0.41402 0.0
H1301 H 0.18089 0.02237 0.37567 0.0
C1302 C 0.1515 0.05894 0.37145 0.0
C1303 C 0.13482 0.0773 0.37117 0.0
C1304 C 0.15233 0.0428 0.39346 0.0
C1305 C 0.11905 0.07946 0.39367 0.0
C1306 C 0.12 0.06353 0.41607 0.0
C1307 C 0.1376 0.02872 0.4382 0.0
C1308 C 0.15413 0.01015 0.43765 0.0
C1309 C 0.13654 0.04506 0.41611 0.0
C1310 C 0.16956 1.00817 0.4148 0.0
C1311 C 0.16868 0.02432 0.39295 0.0
H1312 H 0.23245 0.9164 0.70404 0.0
H1313 H 0.27483 0.85672 0.67949 0.0
H1314 H 0.24424 0.8443 0.64667 0.0
H1315 H 0.20737 0.85294 0.62111 0.0
H1316 H 0.1676 0.91508 0.64229 0.0
H1317 H 0.19495 0.92387 0.68046 0.0
C1318 C 0.23505 0.90068 0.6915 0.0
C1319 C 0.25607 0.8877 0.69407 0.0
C1320 C 0.21771 0.89402 0.67213 0.0
C1321 C 0.25881 0.86703 0.67812 0.0
C1322 C 0.24136 0.85996 0.6592 0.0
C1323 C 0.20443 0.86799 0.63466 0.0
C1324 C 0.18544 0.88322 0.62934 0.0
C1325 C 0.22095 0.87359 0.6556 0.0
C1326 C 0.18199 0.90302 0.64642 0.0
C1327 C 0.19773 0.90815 0.668 0.0
H1328 H 0.35248 0.95507 0.86009 0.0
H1329 H 0.41776 0.92727 0.89262 0.0
H1330 H 0.41592 0.95529 0.93165 0.0
H1331 H 0.39629 0.98888 0.95543 0.0
H1332 H 0.33144 0.01639 0.9214 0.0
H1333 H 0.33272 0.98733 0.88386 0.0
C1334 C 0.36632 0.95496 0.87575 0.0
C1335 C 0.38529 0.93912 0.87333 0.0
C1336 C 0.3653 0.97123 0.89774 0.0
C1337 C 0.40291 0.9392 0.894 0.0
C1338 C 0.40194 0.95533 0.91622 0.0
C1339 C 0.38253 0.98853 0.93969 0.0
C1340 C 0.36377 1.00476 0.9412 0.0
C1341 C 0.38336 0.97166 0.91808 0.0
C1342 C 0.34591 1.00395 0.92087 0.0
C1343 C 0.34667 0.98738 0.89936 0.0
H1344 H 0.30316 0.90347 0.46405 0.0
H1345 H 0.34948 0.85666 0.41882 0.0
H1346 H 0.32285 0.85845 0.37814 0.0
H1347 H 0.28674 0.8747 0.35547 0.0
H1348 H 0.24167 0.92135 0.40287 0.0
H1349 H 0.26761 0.91798 0.44307 0.0
C1350 C 0.30769 0.89366 0.44532 0.0
C1351 C 0.32852 0.88027 0.44424 0.0
C1352 C 0.29244 0.89469 0.42253 0.0
C1353 C 0.33363 0.86725 0.42002 0.0
C1354 C 0.31843 0.86831 0.39684 0.0
C1355 C 0.28271 0.88413 0.37462 0.0
C1356 C 0.26227 0.89823 0.37622 0.0
C1357 C 0.29787 0.88222 0.39781 0.0
C1358 C 0.25706 0.91014 0.40121 0.0
C1359 C 0.27197 0.90837 0.42415 0.0
H1360 H 0.40071 0.02741 0.61014 0.0
H1361 H 0.32487 0.02944 0.61664 0.0
H1362 H 0.32748 0.05983 0.65241 0.0
H1363 H 0.35101 0.08326 0.68452 0.0
H1364 H 0.42686 0.08123 0.67998 0.0
H1365 H 0.42458 0.05378 0.64039 0.0
C1366 C 0.38481 0.03462 0.61936 0.0
C1367 C 0.36263 0.02614 0.61078 0.0
C1368 C 0.38642 0.0521 0.64017 0.0
C1369 C 0.34213 0.03582 0.62263 0.0
C1370 C 0.3436 0.05313 0.6432 0.0
C1371 C 0.36708 0.07705 0.67465 0.0
C1372 C 0.38905 0.08402 0.68529 0.0
C1373 C 0.36561 0.06106 0.65244 0.0
C1374 C 0.40971 0.07614 0.67208 0.0
C1375 C 0.40841 0.06028 0.64964 0.0
H1376 H 0.21437 0.10413 0.96017 0.0
H1377 H 0.17666 0.1598 0.91797 0.0
H1378 H 0.20359 0.15637 0.87798 0.0
H1379 H 0.23857 0.13796 0.85584 0.0
H1380 H 0.27604 0.08315 0.89986 0.0
H1381 H 0.2485 0.08616 0.93876 0.0
C1382 C 0.21178 0.11549 0.94221 0.0
C1383 C 0.1934 0.13212 0.94199 0.0
C1384 C 0.22745 0.11372 0.91981 0.0
C1385 C 0.19061 0.14678 0.91859 0.0
C1386 C 0.20604 0.14486 0.8958 0.0
C1387 C 0.24055 0.1266 0.87391 0.0
C1388 C 0.25934 0.11039 0.87505 0.0
C1389 C 0.22462 0.12846 0.89629 0.0
C1390 C 0.26192 0.09596 0.89867 0.0
C1391 C 0.2461 0.09756 0.92081 0.0
H1392 H 0.10372 0.95324 0.1925 0.0
H1393 H 0.16847 0.91738 0.17245 0.0
H1394 H 0.17521 0.94418 0.13331 0.0
H1395 H 0.16532 0.98052 0.10887 0.0
H1396 H 0.10176 0.01824 0.1301 0.0
H1397 H 0.09208 0.98832 0.16503 0.0
C1398 C 0.11886 0.95095 0.17892 0.0
C1399 C 0.13545 0.93327 0.18488 0.0
C1400 C 0.12313 0.9671 0.15721 0.0
C1401 C 0.15541 0.93076 0.16786 0.0
C1402 C 0.15934 0.94619 0.1457 0.0
C1403 C 0.14904 0.98196 0.12061 0.0
C1404 C 0.13434 1.00166 0.11687 0.0
C1405 C 0.14372 0.96485 0.14075 0.0
C1406 C 0.11357 1.00343 0.1328 0.0
C1407 C 0.10795 0.98625 0.15267 0.0
H1408 H 0.73785 0.9231 0.87469 0.0
H1409 H 0.75741 0.84986 0.86831 0.0
H1410 H 0.72802 0.83971 0.90375 0.0
H1411 H 0.69836 0.85223 0.93884 0.0
H1412 H 0.6804 0.92582 0.94551 0.0
H1413 H 0.70694 0.93514 0.90699 0.0
C1414 C 0.73541 0.90483 0.88057 0.0
C1415 C 0.74986 0.8873 0.86882 0.0
C1416 C 0.7186 0.89917 0.90094 0.0
C1417 C 0.74674 0.86378 0.87726 0.0
C1418 C 0.72983 0.85793 0.89741 0.0
C1419 C 0.6999 0.87017 0.93132 0.0
C1420 C 0.6874 0.88833 0.94477 0.0
C1421 C 0.71584 0.87554 0.90967 0.0
C1422 C 0.68985 0.91159 0.93535 0.0
C1423 C 0.7051 0.91695 0.91345 0.0
H1424 H 0.89079 0.98264 0.60584 0.0
H1425 H 0.84107 0.02478 0.65253 0.0
H1426 H 0.84303 0.99714 0.69131 0.0
H1427 H 0.85811 0.96131 0.71163 0.0
H1428 H 0.9088 0.91874 0.66705 0.0
H1429 H 0.90695 0.9462 0.62739 0.0
C1430 C 0.88036 0.98566 0.6245 0.0
C1431 C 0.86584 1.00578 0.62635 0.0
C1432 C 0.88158 0.96961 0.64687 0.0
C1433 C 0.85261 0.00964 0.65073 0.0
C1434 C 0.85358 0.99376 0.67283 0.0
C1435 C 0.86871 0.95777 0.69323 0.0
C1436 C 0.88338 0.93779 0.69218 0.0
C1437 C 0.86789 0.97371 0.67104 0.0
C1438 C 0.89724 0.9339 0.66829 0.0
C1439 C 0.89621 0.94961 0.64568 0.0
H1440 H 0.78032 0.14625 0.35754 0.0
H1441 H 0.77263 0.07166 0.37253 0.0
H1442 H 0.80204 0.07359 0.40944 0.0
H1443 H 0.82827 0.09632 0.43898 0.0
H1444 H 0.83583 0.17114 0.42648 0.0
H1445 H 0.80842 0.1692 0.38676 0.0
C1446 C 0.78509 0.13046 0.36895 0.0
C1447 C 0.77429 0.10881 0.36216 0.0
C1448 C 0.80203 0.13169 0.39047 0.0
C1449 C 0.78086 0.08847 0.37696 0.0
C1450 C 0.79761 0.08955 0.3982 0.0
C1451 C 0.8241 0.11226 0.42751 0.0
C1452 C 0.83394 0.13388 0.43584 0.0
C1453 C 0.80812 0.11105 0.40526 0.0
C1454 C 0.82855 0.15425 0.42045 0.0
C1455 C 0.81273 0.15316 0.3979 0.0
H1456 H 0.65407 0.03876 0.10874 0.0
H1457 H 0.59743 0.99604 0.14089 0.0
H1458 H 0.58882 0.02603 0.17627 0.0
H1459 H 0.60008 0.0627 0.20084 0.0
H1460 H 0.65848 0.1035 0.17009 0.0
H1461 H 0.66307 0.07654 0.13052 0.0
C1462 C 0.63944 0.03622 0.12298 0.0
C1463 C 0.62646 0.01514 0.12216 0.0
C1464 C 0.63477 0.05337 0.14335 0.0
C1465 C 0.6079 0.01197 0.14128 0.0
C1466 C 0.60288 0.02917 0.16141 0.0
C1467 C 0.61325 0.06599 0.18488 0.0
C1468 C 0.6287 0.08513 0.18785 0.0
C1469 C 0.61651 0.04974 0.163 0.0
C1470 C 0.64621 0.08901 0.16774 0.0
C1471 C 0.64898 0.07349 0.14536 0.0
H1472 H 0.74276 0.15444 0.70915 0.0
H1473 H 0.75047 0.07943 0.69787 0.0
H1474 H 0.72173 0.0801 0.66002 0.0
H1475 H 0.6959 0.10196 0.6287 0.0
H1476 H 0.68717 0.1769 0.63919 0.0
H1477 H 0.71444 0.17628 0.67902 0.0
C1478 C 0.73804 0.1383 0.69839 0.0
C1479 C 0.74872 0.11691 0.70632 0.0
C1480 C 0.72127 0.13877 0.67662 0.0
C1481 C 0.74234 0.09606 0.69237 0.0
C1482 C 0.72596 0.09643 0.67065 0.0
C1483 C 0.69977 0.11817 0.63984 0.0
C1484 C 0.68962 0.13946 0.63089 0.0
C1485 C 0.71548 0.11767 0.66246 0.0
C1486 C 0.69465 0.16024 0.64574 0.0
C1487 C 0.71039 0.15991 0.66837 0.0
H1488 H 0.62983 0.99372 0.45611 0.0
H1489 H 0.69808 0.01438 0.42483 0.0
H1490 H 0.6955 0.98472 0.38813 0.0
H1491 H 0.67395 0.95369 0.36444 0.0
H1492 H 0.60514 0.93293 0.39383 0.0
H1493 H 0.60798 0.96173 0.43197 0.0
C1494 C 0.64404 0.99177 0.44114 0.0
C1495 C 0.66418 1.00619 0.44331 0.0
C1496 C 0.64244 0.97461 0.41991 0.0
C1497 C 0.68255 1.00332 0.42391 0.0
C1498 C 0.68106 0.98642 0.40284 0.0
C1499 C 0.65953 0.95527 0.37921 0.0
C1500 C 0.63934 0.94112 0.37621 0.0
C1501 C 0.66113 0.972 0.40066 0.0
C1502 C 0.62095 0.94349 0.39569 0.0
C1503 C 0.62251 0.96006 0.4174 0.0
H1504 H 0.81722 0.85347 0.12116 0.0
H1505 H 0.85814 0.91342 0.14729 0.0
H1506 H 0.83145 0.91999 0.18676 0.0
H1507 H 0.79423 0.91139 0.21036 0.0
H1508 H 0.7507 0.85417 0.18102 0.0
H1509 H 0.78066 0.8436 0.14651 0.0
C1510 C 0.82057 0.86749 0.13607 0.0
C1511 C 0.8397 0.88274 0.13187 0.0
C1512 C 0.80445 0.87186 0.15778 0.0
C1513 C 0.84365 0.90132 0.15061 0.0
C1514 C 0.8283 0.90519 0.17293 0.0
C1515 C 0.79126 0.8966 0.19642 0.0
C1516 C 0.7701 0.88378 0.19812 0.0
C1517 C 0.80822 0.89106 0.17614 0.0
C1518 C 0.76685 0.86429 0.18032 0.0
C1519 C 0.78393 0.8583 0.16046 0.0
H1520 H 0.85498 0.06252 0.85926 0.0
H1521 H 0.92197 0.08632 0.89133 0.0
H1522 H 0.91848 0.05892 0.93066 0.0
H1523 H 0.89676 0.0273 0.95505 0.0
H1524 H 0.83061 1.00293 0.92125 0.0
H1525 H 0.83356 0.03136 0.88319 0.0
C1526 C 0.86875 0.06199 0.87498 0.0
C1527 C 0.88862 0.07663 0.87247 0.0
C1528 C 0.86688 0.04589 0.89704 0.0
C1529 C 0.90644 0.07532 0.89283 0.0
C1530 C 0.90448 0.05962 0.91526 0.0
C1531 C 0.88295 0.02836 0.93941 0.0
C1532 C 0.8635 0.01302 0.94092 0.0
C1533 C 0.88484 0.04468 0.91744 0.0
C1534 C 0.84587 0.01434 0.92036 0.0
C1535 C 0.84747 0.03069 0.8987 0.0
H1536 H 0.79013 0.60537 0.70938 0.0
H1537 H 0.75288 0.6698 0.69092 0.0
H1538 H 0.78158 0.67915 0.65455 0.0
H1539 H 0.81512 0.66702 0.62464 0.0
H1540 H 0.84943 0.60065 0.64043 0.0
H1541 H 0.82415 0.59405 0.68106 0.0
C1542 C 0.78818 0.62145 0.69739 0.0
C1543 C 0.76914 0.6367 0.70285 0.0
C1544 C 0.80433 0.62638 0.67594 0.0
C1545 C 0.76739 0.65776 0.68745 0.0
C1546 C 0.78374 0.66307 0.66646 0.0
C1547 C 0.81737 0.65145 0.63749 0.0
C1548 C 0.83424 0.63445 0.62994 0.0
C1549 C 0.80204 0.6473 0.66014 0.0
C1550 C 0.83666 0.61402 0.64614 0.0
C1551 C 0.82213 0.61019 0.66923 0.0
H1552 H 0.6714 0.57807 0.86725 0.0
H1553 H 0.59809 0.58801 0.88839 0.0
H1554 H 0.60182 0.55917 0.92607 0.0
H1555 H 0.62516 0.52862 0.95035 0.0
H1556 H 0.6981 0.51854 0.9278 0.0
H1557 H 0.69511 0.54978 0.89311 0.0
C1558 C 0.65624 0.57423 0.88026 0.0
C1559 C 0.63446 0.58514 0.8748 0.0
C1560 C 0.65835 0.5573 0.90142 0.0
C1561 C 0.61509 0.57987 0.89203 0.0
C1562 C 0.61717 0.56328 0.91351 0.0
C1563 C 0.64046 0.53352 0.93809 0.0
C1564 C 0.66175 0.52107 0.94142 0.0
C1565 C 0.63859 0.5515 0.91799 0.0
C1566 C 0.68139 0.52752 0.92527 0.0
C1567 C 0.67974 0.54548 0.90554 0.0
H1568 H 0.69822 0.41889 0.11095 0.0
H1569 H 0.67196 0.35217 0.14093 0.0
H1570 H 0.6996 0.35386 0.18025 0.0
H1571 H 0.73279 0.37339 0.20454 0.0
H1572 H 0.75944 0.43926 0.17268 0.0
H1573 H 0.73022 0.43853 0.13527 0.0
C1574 C 0.69824 0.40475 0.12617 0.0
C1575 C 0.68293 0.38542 0.12292 0.0
C1576 C 0.71452 0.40552 0.14816 0.0
C1577 C 0.68347 0.36729 0.1429 0.0
C1578 C 0.69936 0.36819 0.16532 0.0
C1579 C 0.73205 0.38766 0.18951 0.0
C1580 C 0.74836 0.40631 0.19129 0.0
C1581 C 0.71522 0.38707 0.16791 0.0
C1582 C 0.74735 0.42455 0.17152 0.0
C1583 C 0.73054 0.42422 0.15025 0.0
H1584 H 0.89613 0.4945 0.44919 0.0
H1585 H 0.82113 0.50055 0.4359 0.0
H1586 H 0.8228 0.47003 0.40021 0.0
H1587 H 0.84528 0.44272 0.37185 0.0
H1588 H 0.92051 0.43663 0.38272 0.0
H1589 H 0.91898 0.46575 0.42069 0.0
C1590 C 0.88022 0.48916 0.43835 0.0
C1591 C 0.85851 0.49974 0.4453 0.0
C1592 C 0.8813 0.4715 0.41764 0.0
C1593 C 0.83799 0.4925 0.43126 0.0
C1594 C 0.83893 0.47508 0.41078 0.0
C1595 C 0.86142 0.44758 0.38257 0.0
C1596 C 0.883 0.43757 0.37433 0.0
C1597 C 0.86045 0.46455 0.40377 0.0
C1598 C 0.90363 0.44397 0.38871 0.0
C1599 C 0.90278 0.46078 0.41026 0.0
H1600 H 0.77703 0.36669 0.85417 0.0
H1601 H 0.76647 0.44082 0.86974 0.0
H1602 H 0.79425 0.4394 0.90854 0.0
H1603 H 0.82006 0.41707 0.93935 0.0
H1604 H 0.83152 0.34297 0.9247 0.0
H1605 H 0.80519 0.34445 0.88404 0.0
C1606 C 0.7809 0.38248 0.86607 0.0
C1607 C 0.76972 0.40384 0.85904 0.0
C1608 C 0.79708 0.38158 0.88844 0.0
C1609 C 0.77503 0.42424 0.87449 0.0
C1610 C 0.79084 0.42343 0.89677 0.0
C1611 C 0.81696 0.40122 0.92718 0.0
C1612 C 0.82761 0.37991 0.93518 0.0
C1613 C 0.80179 0.4022 0.90407 0.0
C1614 C 0.8236 0.35964 0.91896 0.0
C1615 C 0.80841 0.36045 0.89582 0.0
H1616 H 0.84556 0.57513 0.18825 0.0
H1617 H 0.92117 0.57776 0.1798 0.0
H1618 H 0.91923 0.54832 0.14213 0.0
H1619 H 0.89575 0.52006 0.11341 0.0
H1620 H 0.82029 0.51764 0.12447 0.0
H1621 H 0.82256 0.54854 0.15959 0.0
C1622 C 0.86169 0.56945 0.1781 0.0
C1623 C 0.88349 0.57857 0.18694 0.0
C1624 C 0.86046 0.5523 0.15711 0.0
C1625 C 0.90413 0.57114 0.17329 0.0
C1626 C 0.90303 0.55413 0.15194 0.0
C1627 C 0.87987 0.52632 0.12361 0.0
C1628 C 0.85785 0.51662 0.11617 0.0
C1629 C 0.88128 0.54425 0.14402 0.0
C1630 C 0.8374 0.525 0.12944 0.0
C1631 C 0.83867 0.54264 0.14961 0.0
H1632 H 0.74342 0.65277 0.36341 0.0
H1633 H 0.73984 0.57685 0.36649 0.0
H1634 H 0.70955 0.57904 0.40234 0.0
H1635 H 0.68599 0.60199 0.43465 0.0
H1636 H 0.68968 0.67782 0.43424 0.0
H1637 H 0.71765 0.67627 0.39502 0.0
C1638 C 0.73598 0.63676 0.372 0.0
C1639 C 0.74387 0.61466 0.36227 0.0
C1640 C 0.71853 0.63813 0.39288 0.0
C1641 C 0.7339 0.59405 0.37334 0.0
C1642 C 0.71663 0.59527 0.39392 0.0
C1643 C 0.69272 0.61825 0.42583 0.0
C1644 C 0.68598 0.63997 0.43743 0.0
C1645 C 0.70903 0.61715 0.404 0.0
C1646 C 0.69455 0.66088 0.42555 0.0
C1647 C 0.71071 0.65996 0.40336 0.0
H1648 H 0.66453 0.45585 0.70312 0.0
H1649 H 0.60041 0.42787 0.66774 0.0
H1650 H 0.60364 0.45546 0.62848 0.0
H1651 H 0.62431 0.48851 0.60518 0.0
H1652 H 0.68724 0.51705 0.64285 0.0
H1653 H 0.68469 0.48831 0.68056 0.0
C1654 C 0.65138 0.45546 0.68666 0.0
C1655 C 0.63241 0.43959 0.68815 0.0
C1656 C 0.65301 0.47169 0.66479 0.0
C1657 C 0.61527 0.4398 0.66695 0.0
C1658 C 0.61708 0.45562 0.64459 0.0
C1659 C 0.63749 0.48828 0.62161 0.0
C1660 C 0.65592 0.50488 0.62132 0.0
C1661 C 0.6358 0.47179 0.64343 0.0
C1662 C 0.67276 0.50463 0.64283 0.0
C1663 C 0.6714 0.48813 0.66428 0.0
H1664 H 0.21654 0.39827 0.46383 0.0
H1665 H 0.16964 0.35691 0.41254 0.0
H1666 H 0.19858 0.3579 0.37417 0.0
H1667 H 0.23694 0.37198 0.35516 0.0
H1668 H 0.28316 0.41235 0.40862 0.0
H1669 H 0.25473 0.40997 0.44653 0.0
C1670 C 0.21246 0.38952 0.44423 0.0
C1671 C 0.19077 0.37795 0.44075 0.0
C1672 C 0.22915 0.38987 0.42281 0.0
C1673 C 0.18614 0.36615 0.41553 0.0
C1674 C 0.20267 0.36673 0.39369 0.0
C1675 C 0.24073 0.38016 0.37517 0.0
C1676 C 0.26215 0.39231 0.37908 0.0
C1677 C 0.22418 0.37876 0.39704 0.0
C1678 C 0.26699 0.40264 0.40517 0.0
C1679 C 0.25066 0.40146 0.4268 0.0
H1680 H 0.3521 0.45591 0.2046 0.0
H1681 H 0.4216 0.4367 0.17586 0.0
H1682 H 0.41801 0.46492 0.13723 0.0
H1683 H 0.39531 0.4962 0.11274 0.0
H1684 H 0.32638 0.51522 0.1436 0.0
H1685 H 0.32971 0.48596 0.18052 0.0
C1686 C 0.36652 0.45771 0.18988 0.0
C1687 C 0.38714 0.44422 0.19321 0.0
C1688 C 0.36448 0.4741 0.16822 0.0
C1689 C 0.40549 0.44679 0.17374 0.0
C1690 C 0.40349 0.46303 0.15177 0.0
C1691 C 0.38111 0.49396 0.12766 0.0
C1692 C 0.36056 0.50781 0.12534 0.0
C1693 C 0.38315 0.47702 0.14902 0.0
C1694 C 0.34221 0.50459 0.14466 0.0
C1695 C 0.34413 0.48791 0.16584 0.0
H1696 H 0.27727 0.64881 0.86022 0.0
H1697 H 0.2742 0.57373 0.87384 0.0
H1698 H 0.30377 0.57688 0.91049 0.0
H1699 H 0.32839 0.60089 0.94066 0.0
H1700 H 0.33154 0.67612 0.92905 0.0
H1701 H 0.30441 0.67297 0.88922 0.0
C1702 C 0.28317 0.63319 0.87122 0.0
C1703 C 0.27357 0.61107 0.8643 0.0
C1704 C 0.30022 0.63513 0.89249 0.0
C1705 C 0.2815 0.59091 0.8785 0.0
C1706 C 0.29834 0.5927 0.89956 0.0
C1707 C 0.32335 0.61662 0.92927 0.0
C1708 C 0.33175 0.63872 0.93793 0.0
C1709 C 0.30756 0.6147 0.90693 0.0
C1710 C 0.32533 0.65888 0.92273 0.0
C1711 C 0.30967 0.6571 0.90013 0.0
H1712 H 0.17432 0.57379 0.69117 0.0
H1713 H 0.10106 0.58694 0.67278 0.0
H1714 H 0.10272 0.55838 0.63429 0.0
H1715 H 0.12448 0.52738 0.60833 0.0
H1716 H 0.19733 0.51395 0.62893 0.0
H1717 H 0.19627 0.54486 0.66424 0.0
C1718 C 0.15872 0.57063 0.67859 0.0
C1719 C 0.13755 0.58233 0.68497 0.0
C1720 C 0.15968 0.5539 0.65711 0.0
C1721 C 0.11761 0.57823 0.66824 0.0
C1722 C 0.1185 0.56173 0.64641 0.0
C1723 C 0.14007 0.53123 0.62062 0.0
C1724 C 0.16094 0.51833 0.61604 0.0
C1725 C 0.13931 0.54904 0.64111 0.0
C1726 C 0.18112 0.52373 0.63183 0.0
C1727 C 0.18051 0.54136 0.6521 0.0
H1728 H 0.20146 0.66387 0.11723 0.0
H1729 H 0.16554 0.59925 0.13708 0.0
H1730 H 0.19269 0.59221 0.17598 0.0
H1731 H 0.22849 0.6027 0.20151 0.0
H1732 H 0.26718 0.66515 0.17853 0.0
H1733 H 0.23706 0.67498 0.14393 0.0
C1734 C 0.19933 0.64861 0.13062 0.0
C1735 C 0.18144 0.63225 0.12485 0.0
C1736 C 0.21569 0.64416 0.15206 0.0
C1737 C 0.17908 0.61215 0.14159 0.0
C1738 C 0.19468 0.60807 0.16361 0.0
C1739 C 0.23045 0.61841 0.18886 0.0
C1740 C 0.25022 0.63302 0.19251 0.0
C1741 C 0.21342 0.62362 0.16853 0.0
C1742 C 0.25209 0.65364 0.17637 0.0
C1743 C 0.23491 0.65923 0.15645 0.0
H1744 H 0.0981 0.44677 0.87675 0.0
H1745 H 0.17103 0.42559 0.87466 0.0
H1746 H 0.17991 0.4518 0.91375 0.0
H1747 H 0.168 0.48357 0.94489 0.0
H1748 H 0.09555 0.50656 0.94656 0.0
H1749 H 0.08547 0.47719 0.91097 0.0
C1750 C 0.11574 0.44752 0.88544 0.0
C1751 C 0.13389 0.43423 0.87315 0.0
C1752 C 0.12091 0.46333 0.90735 0.0
C1753 C 0.15682 0.43565 0.88401 0.0
C1754 C 0.16193 0.45072 0.9062 0.0
C1755 C 0.14988 0.48187 0.93797 0.0
C1756 C 0.13259 0.4973 0.9484 0.0
C1757 C 0.14427 0.4651 0.9175 0.0
C1758 C 0.1093 0.49513 0.93863 0.0
C1759 C 0.10348 0.47823 0.9184 0.0
H1760 H 0.31771 0.35596 0.62594 0.0
H1761 H 0.34164 0.42796 0.62733 0.0
H1762 H 0.31368 0.43725 0.66457 0.0
H1763 H 0.27981 0.42605 0.69299 0.0
H1764 H 0.25412 0.3546 0.69054 0.0
H1765 H 0.28502 0.34402 0.65712 0.0
C1766 C 0.31717 0.37347 0.63502 0.0
C1767 C 0.3318 0.39124 0.62426 0.0
C1768 C 0.30036 0.37892 0.6557 0.0
C1769 C 0.3306 0.41403 0.63554 0.0
C1770 C 0.31452 0.41938 0.65665 0.0
C1771 C 0.28121 0.40803 0.6856 0.0
C1772 C 0.26461 0.39118 0.69425 0.0
C1773 C 0.29889 0.40214 0.66633 0.0
C1774 C 0.26646 0.36802 0.68395 0.0
C1775 C 0.28423 0.36192 0.66498 0.0
H1776 H 0.34865 0.53959 0.45117 0.0
H1777 H 0.41235 0.50228 0.42942 0.0
H1778 H 0.42295 0.53352 0.39666 0.0
H1779 H 0.41196 0.56941 0.3706 0.0
H1780 H 0.34624 0.60407 0.38912 0.0
H1781 H 0.33857 0.57606 0.42688 0.0
C1782 C 0.36483 0.53823 0.43923 0.0
C1783 C 0.37952 0.51847 0.44254 0.0
C1784 C 0.37048 0.5559 0.41994 0.0
C1785 C 0.40075 0.51733 0.4274 0.0
C1786 C 0.40678 0.53514 0.40856 0.0
C1787 C 0.39634 0.57113 0.38354 0.0
C1788 C 0.37982 0.58885 0.37766 0.0
C1789 C 0.39155 0.55428 0.40427 0.0
C1790 C 0.35926 0.59066 0.39374 0.0
C1791 C 0.35482 0.57457 0.4151 0.0
H1792 H 0.11421 0.24412 0.38338 0.0
H1793 H 0.17475 0.22446 0.43282 0.0
H1794 H 0.1825 0.19144 0.40161 0.0
H1795 H 0.17182 0.1675 0.36126 0.0
H1796 H 0.11177 0.18625 0.31075 0.0
H1797 H 0.10413 0.22032 0.34124 0.0
C1798 C 0.12921 0.23273 0.38712 0.0
C1799 C 0.14374 0.23669 0.41065 0.0
C1800 C 0.1336 0.21357 0.36898 0.0
C1801 C 0.16303 0.22163 0.41525 0.0
C1802 C 0.16756 0.20278 0.39731 0.0
C1803 C 0.15708 0.17907 0.35678 0.0
C1804 C 0.14229 0.17427 0.33387 0.0
C1805 C 0.15287 0.19846 0.37431 0.0
C1806 C 0.12332 0.18948 0.32838 0.0
C1807 C 0.11899 0.20896 0.3458 0.0
H1808 H 0.09635 0.9189 0.61185 0.0
H1809 H 0.083 0.85574 0.56432 0.0
H1810 H 0.04753 0.84825 0.59252 0.0
H1811 H 0.02082 0.85961 0.63176 0.0
H1812 H 0.03513 0.92353 0.67775 0.0
H1813 H 0.0695 0.93093 0.64875 0.0
C1814 C 0.08569 0.90348 0.60748 0.0
C1815 C 0.0925 0.88773 0.5862 0.0
C1816 C 0.06538 0.89952 0.62348 0.0
C1817 C 0.0783 0.868 0.58076 0.0
C1818 C 0.05801 0.86377 0.59687 0.0
C1819 C 0.03147 0.87515 0.63538 0.0
C1820 C 0.02521 0.89105 0.65694 0.0
C1821 C 0.05146 0.87935 0.61849 0.0
C1822 C 0.03916 0.9112 0.66113 0.0
C1823 C 0.05898 0.91537 0.64466 0.0
H1824 H 0.34358 0.85057 0.85601 0.0
H1825 H 0.40722 0.83133 0.81242 0.0
H1826 H 0.41283 0.79795 0.84438 0.0
H1827 H 0.4002 0.77518 0.88618 0.0
H1828 H 0.33615 0.79516 0.92875 0.0
H1829 H 0.3302 0.82725 0.89576 0.0
C1830 C 0.35864 0.83901 0.85334 0.0
C1831 C 0.37507 0.84354 0.832 0.0
C1832 C 0.36172 0.82001 0.87176 0.0
C1833 C 0.39441 0.82832 0.82881 0.0
C1834 C 0.3976 0.80923 0.84709 0.0
C1835 C 0.38482 0.7864 0.88803 0.0
C1836 C 0.36878 0.78283 0.91021 0.0
C1837 C 0.38146 0.80502 0.86885 0.0
C1838 C 0.34902 0.7977 0.91231 0.0
C1839 C 0.34552 0.81602 0.89334 0.0
H1840 H 0.42458 0.09995 0.11699 0.0
H1841 H 0.44145 0.16257 0.07032 0.0
H1842 H 0.47543 0.16971 0.10123 0.0
H1843 H 0.50004 0.15805 0.14243 0.0
H1844 H 0.48239 0.09447 0.18716 0.0
H1845 H 0.44923 0.08774 0.15593 0.0
C1846 C 0.43568 0.11519 0.1134 0.0
C1847 C 0.43027 0.13085 0.09148 0.0
C1848 C 0.45517 0.11894 0.13095 0.0
C1849 C 0.44505 0.15034 0.08714 0.0
C1850 C 0.46449 0.15439 0.10484 0.0
C1851 C 0.48891 0.14274 0.1453 0.0
C1852 C 0.49391 0.12672 0.16717 0.0
C1853 C 0.46967 0.13885 0.12699 0.0
C1854 C 0.47933 0.1069 0.17038 0.0
C1855 C 0.46021 0.10309 0.15259 0.0
H1856 H 0.17202 0.84706 0.20029 0.0
H1857 H 0.11195 0.83014 0.25157 0.0
H1858 H 0.10396 0.79546 0.22198 0.0
H1859 H 0.11357 0.77097 0.17982 0.0
H1860 H 0.17447 0.78925 0.13031 0.0
H1861 H 0.18262 0.82237 0.16105 0.0
C1862 C 0.15717 0.8358 0.20522 0.0
C1863 C 0.14242 0.84138 0.22794 0.0
C1864 C 0.15283 0.81613 0.1883 0.0
C1865 C 0.12344 0.82639 0.23404 0.0
C1866 C 0.11892 0.80656 0.21712 0.0
C1867 C 0.12873 0.78209 0.17599 0.0
C1868 C 0.14319 0.77777 0.15244 0.0
C1869 C 0.1334 0.80138 0.19394 0.0
C1870 C 0.16276 0.79239 0.14782 0.0
C1871 C 0.16753 0.81131 0.16549 0.0
H1872 H 0.4995 0.86761 0.43772 0.0
H1873 H 0.48219 0.9293 0.38917 0.0
H1874 H 0.44726 0.93583 0.41764 0.0
H1875 H 0.42077 0.9235 0.4549 0.0
H1876 H 0.4374 0.86257 0.50483 0.0
H1877 H 0.47329 0.85609 0.4771 0.0
C1878 C 0.48808 0.88249 0.43343 0.0
C1879 C 0.49361 0.898 0.41132 0.0
C1880 C 0.46781 0.88617 0.44998 0.0
C1881 C 0.47868 0.9173 0.40625 0.0
C1882 C 0.45855 0.92096 0.4224 0.0
C1883 C 0.43226 0.90881 0.45986 0.0
C1884 C 0.42627 0.89335 0.48169 0.0
C1885 C 0.45285 0.90544 0.44413 0.0
C1886 C 0.44148 0.87456 0.48793 0.0
C1887 C 0.46201 0.87091 0.4721 0.0
H1888 H 0.40637 0.24872 0.68564 0.0
H1889 H 0.3417 0.2333 0.64159 0.0
H1890 H 0.33553 0.19885 0.67072 0.0
H1891 H 0.34894 0.17207 0.70678 0.0
H1892 H 0.41296 0.18615 0.75235 0.0
H1893 H 0.41904 0.22208 0.72446 0.0
C1894 C 0.39092 0.23783 0.68249 0.0
C1895 C 0.37446 0.2438 0.66139 0.0
C1896 C 0.38744 0.21773 0.69943 0.0
C1897 C 0.35445 0.22952 0.65784 0.0
C1898 C 0.35098 0.20964 0.67438 0.0
C1899 C 0.36425 0.18298 0.71083 0.0
C1900 C 0.38067 0.17622 0.7314 0.0
C1901 C 0.36742 0.20348 0.69498 0.0
C1902 C 0.40019 0.1908 0.73647 0.0
C1903 C 0.40362 0.21134 0.7205 0.0
H1904 H 0.09578 0.09392 0.96615 0.0
H1905 H 0.08891 0.16482 0.99734 0.0
H1906 H 0.05503 0.1713 0.96614 0.0
H1907 H 0.02825 0.1568 0.92815 0.0
H1908 H 0.03509 0.08486 0.90003 0.0
H1909 H 0.06788 0.07875 0.93201 0.0
C1910 C 0.08683 0.11081 0.96634 0.0
C1911 C 0.09522 0.12904 0.98365 0.0
C1912 C 0.06727 0.11417 0.94882 0.0
C1913 C 0.0831 0.15063 0.98389 0.0
C1914 C 0.0637 0.15429 0.96605 0.0
C1915 C 0.03689 0.13979 0.92921 0.0
C1916 C 0.02913 0.12128 0.91168 0.0
C1917 C 0.0558 0.13625 0.94807 0.0
C1918 C 0.04044 0.0993 0.91343 0.0
C1919 C 0.05931 0.09581 0.93164 0.0
H1920 H 0.84378 0.84465 0.70761 0.0
H1921 H 0.90792 0.83005 0.7527 0.0
H1922 H 0.91531 0.79582 0.72241 0.0
H1923 H 0.90371 0.7706 0.68206 0.0
H1924 H 0.83892 0.7858 0.63829 0.0
H1925 H 0.83147 0.81897 0.66937 0.0
C1926 C 0.85936 0.83394 0.71097 0.0
C1927 C 0.87545 0.84009 0.73217 0.0
C1928 C 0.86331 0.8143 0.69371 0.0
C1929 C 0.89541 0.82587 0.73632 0.0
C1930 C 0.89959 0.80629 0.71902 0.0
C1931 C 0.88797 0.78119 0.67936 0.0
C1932 C 0.87186 0.77556 0.65781 0.0
C1933 C 0.88375 0.80044 0.69743 0.0
C1934 C 0.85145 0.78939 0.65485 0.0
C1935 C 0.84724 0.80852 0.67252 0.0
H1936 H 0.99927 0.15382 0.43277 0.0
H1937 H 0.98485 0.08975 0.38715 0.0
H1938 H 0.95093 0.08209 0.41685 0.0
H1939 H 0.9243 0.09415 0.45407 0.0
H1940 H 0.93797 0.15746 0.50118 0.0
H1941 H 0.97315 0.16496 0.47255 0.0
C1942 C 0.98871 0.13818 0.42942 0.0
C1943 C 0.99472 0.12235 0.40772 0.0
C1944 C 0.96902 0.13383 0.44669 0.0
C1945 C 0.98094 0.10205 0.40386 0.0
C1946 C 0.96138 0.09772 0.42073 0.0
C1947 C 0.935 0.10958 0.45824 0.0
C1948 C 0.92834 0.12542 0.47947 0.0
C1949 C 0.95515 0.11356 0.44197 0.0
C1950 C 0.94258 0.14514 0.48476 0.0
C1951 C 0.96269 0.1494 0.46839 0.0
H1952 H 0.61277 0.24822 0.18573 0.0
H1953 H 0.67347 0.23194 0.13483 0.0
H1954 H 0.68188 0.19768 0.16361 0.0
H1955 H 0.67153 0.17149 0.20166 0.0
H1956 H 0.61215 0.1871 0.25472 0.0
H1957 H 0.60358 0.22239 0.22664 0.0
C1958 C 0.62785 0.23717 0.18106 0.0
C1959 C 0.64253 0.24278 0.15814 0.0
C1960 C 0.63273 0.21732 0.19793 0.0
C1961 C 0.6621 0.22834 0.1525 0.0
C1962 C 0.66684 0.20861 0.16885 0.0
C1963 C 0.65671 0.1826 0.20729 0.0
C1964 C 0.64223 0.1764 0.22999 0.0
C1965 C 0.65222 0.20285 0.19142 0.0
C1966 C 0.62334 0.19124 0.23708 0.0
C1967 C 0.6185 0.21145 0.22105 0.0
H1968 H 0.52474 0.85353 0.93401 0.0
H1969 H 0.53413 0.92173 0.89575 0.0
H1970 H 0.5679 0.92931 0.92574 0.0
H1971 H 0.59546 0.91654 0.96152 0.0
H1972 H 0.58713 0.8489 1.00106 0.0
H1973 H 0.55244 0.84098 0.97165 0.0
C1974 C 0.5342 0.87003 0.93225 0.0
C1975 C 0.5267 0.8871 0.91265 0.0
C1976 C 0.55388 0.87432 0.94963 0.0
C1977 C 0.53912 0.90845 0.91088 0.0
C1978 C 0.55861 0.91275 0.9279 0.0
C1979 C 0.58606 0.90004 0.96388 0.0
C1980 C 0.594 0.88325 0.98335 0.0
C1981 C 0.56619 0.89581 0.94719 0.0
C1982 C 0.5815 0.86204 0.98611 0.0
C1983 C 0.56165 0.85757 0.96931 0.0
H1984 H 0.91125 0.22728 0.90671 0.0
H1985 H 0.84887 0.26195 0.87564 0.0
H1986 H 0.84648 0.23357 0.83719 0.0
H1987 H 0.86048 0.1969 0.81426 0.0
H1988 H 0.92154 0.16145 0.84767 0.0
H1989 H 0.92607 0.19203 0.88302 0.0
C1990 C 0.89703 0.22863 0.89164 0.0
C1991 C 0.88015 0.24669 0.89438 0.0
C1992 C 0.89555 0.21203 0.86981 0.0
C1993 C 0.86222 0.24838 0.8741 0.0
C1994 C 0.86076 0.23204 0.85213 0.0
C1995 C 0.875 0.19612 0.82899 0.0
C1996 C 0.89078 0.17694 0.8281 0.0
C1997 C 0.87713 0.21355 0.84997 0.0
C1998 C 0.90931 0.17608 0.84759 0.0
C1999 C 0.91181 0.1935 0.86803 0.0
H2000 H 0.52455 0.15457 0.63585 0.0
H2001 H 0.54396 0.09382 0.68495 0.0
H2002 H 0.57828 0.0874 0.6554 0.0
H2003 H 0.60349 0.09941 0.61681 0.0
H2004 H 0.58464 0.15923 0.56611 0.0
H2005 H 0.54957 0.16584 0.59524 0.0
C2006 C 0.53632 0.13994 0.64004 0.0
C2007 C 0.53155 0.12464 0.66261 0.0
C2008 C 0.55621 0.13629 0.62283 0.0
C2009 C 0.54691 0.10565 0.66756 0.0
C2010 C 0.56668 0.10205 0.65077 0.0
C2011 C 0.5917 0.11389 0.61199 0.0
C2012 C 0.59688 0.12904 0.58956 0.0
C2013 C 0.57156 0.1173 0.6285 0.0
C2014 C 0.58127 0.14756 0.58353 0.0
C2015 C 0.56118 0.15125 0.60013 0.0
H2016 H 0.67267 0.84938 0.36655 0.0
H2017 H 0.6107 0.83203 0.31867 0.0
H2018 H 0.60305 0.79842 0.3498 0.0
H2019 H 0.61389 0.77446 0.3917 0.0
H2020 H 0.67642 0.79292 0.43828 0.0
H2021 H 0.6839 0.82552 0.40658 0.0
C2022 C 0.65748 0.83824 0.36275 0.0
C2023 C 0.64221 0.84332 0.34035 0.0
C2024 C 0.65329 0.81911 0.38064 0.0
C2025 C 0.62266 0.82862 0.33584 0.0
C2026 C 0.61833 0.80938 0.35364 0.0
C2027 C 0.62924 0.78552 0.39474 0.0
C2028 C 0.64443 0.78129 0.41766 0.0
C2029 C 0.6335 0.80449 0.37625 0.0
C2030 C 0.66417 0.79592 0.42127 0.0
C2031 C 0.66856 0.81455 0.40303 0.0
H2032 H 0.92726 0.92367 0.11051 0.0
H2033 H 0.94037 0.85968 0.06446 0.0
H2034 H 0.97529 0.85197 0.09361 0.0
H2035 H 1.00119 0.86312 0.13377 0.0
H2036 H 0.98729 0.92806 0.17792 0.0
H2037 H 0.95375 0.93584 0.14764 0.0
C2038 C 0.93778 0.90804 0.10665 0.0
C2039 C 0.93096 0.89203 0.08567 0.0
C2040 C 0.95775 0.90396 0.12317 0.0
C2041 C 0.94502 0.87209 0.08076 0.0
C2042 C 0.96499 0.86773 0.09742 0.0
C2043 C 0.99082 0.87898 0.13665 0.0
C2044 C 0.99685 0.89502 0.15813 0.0
C2045 C 0.97136 0.88343 0.11898 0.0
C2046 C 0.98334 0.91559 0.16141 0.0
C2047 C 0.96402 0.91999 0.1442 0.0
H2048 H 0.61022 0.67155 0.8526 0.0
H2049 H 0.65987 0.70477 0.79705 0.0
H2050 H 0.66194 0.739 0.8282 0.0
H2051 H 0.6516 0.75835 0.87301 0.0
H2052 H 0.60248 0.7242 0.92862 0.0
H2053 H 0.59809 0.6918 0.89562 0.0
C2054 C 0.62126 0.68642 0.8471 0.0
C2055 C 0.63497 0.68553 0.82258 0.0
C2056 C 0.62257 0.7059 0.86527 0.0
C2057 C 0.64914 0.70497 0.81578 0.0
C2058 C 0.65042 0.72452 0.83368 0.0
C2059 C 0.63991 0.74384 0.87789 0.0
C2060 C 0.62741 0.74386 0.90341 0.0
C2061 C 0.63758 0.72498 0.85881 0.0
C2062 C 0.6121 0.72496 0.90909 0.0
C2063 C 0.60968 0.70626 0.89027 0.0
H2064 H 0.60157 0.37004 0.10019 0.0
H2065 H 0.56639 0.42188 0.0496 0.0
H2066 H 0.53236 0.42114 0.08104 0.0
H2067 H 0.51358 0.40735 0.12443 0.0
H2068 H 0.5496 0.35635 0.17591 0.0
H2069 H 0.5818 0.35449 0.14224 0.0
C2070 C 0.58606 0.38038 0.09545 0.0
C2071 C 0.58615 0.39542 0.07214 0.0
C2072 C 0.56673 0.38016 0.11398 0.0
C2073 C 0.56652 0.40989 0.0672 0.0
C2074 C 0.54712 0.40955 0.08525 0.0
C2075 C 0.52845 0.39581 0.12833 0.0
C2076 C 0.52901 0.38204 0.15283 0.0
C2077 C 0.54719 0.39506 0.10901 0.0
C2078 C 0.54839 0.36695 0.15716 0.0
C2079 C 0.56698 0.36598 0.13797 0.0
H2080 H 0.84921 0.34866 0.36624 0.0
H2081 H 0.90708 0.32932 0.31254 0.0
H2082 H 0.91487 0.2946 0.34201 0.0
H2083 H 0.90547 0.27042 0.38434 0.0
H2084 H 0.84698 0.29124 0.43657 0.0
H2085 H 0.83918 0.32468 0.40627 0.0
C2086 C 0.86354 0.33687 0.36079 0.0
C2087 C 0.87763 0.34166 0.33728 0.0
C2088 C 0.8678 0.31719 0.37768 0.0
C2089 C 0.89603 0.32608 0.33059 0.0
C2090 C 0.90045 0.30624 0.34745 0.0
C2091 C 0.89092 0.2822 0.38887 0.0
C2092 C 0.877 0.27844 0.41297 0.0
C2093 C 0.88649 0.30167 0.37121 0.0
C2094 C 0.85824 0.29391 0.41856 0.0
C2095 C 0.85368 0.31302 0.40116 0.0
H2096 H 0.92237 0.59684 0.6112 0.0
H2097 H 0.93586 0.65952 0.56309 0.0
H2098 H 0.97137 0.66718 0.59118 0.0
H2099 H 0.99812 0.65612 0.63042 0.0
H2100 H 0.9838 0.59266 0.67704 0.0
H2101 H 0.94929 0.58509 0.64822 0.0
C2102 C 0.93309 0.61218 0.60669 0.0
C2103 C 0.92631 0.62776 0.58528 0.0
C2104 C 0.95343 0.61624 0.62264 0.0
C2105 C 0.94054 0.6474 0.57964 0.0
C2106 C 0.96086 0.65173 0.59569 0.0
C2107 C 0.98743 0.64065 0.63422 0.0
C2108 C 0.9937 0.62493 0.65589 0.0
C2109 C 0.96739 0.63634 0.61744 0.0
C2110 C 0.97972 0.60486 0.66032 0.0
C2111 C 0.95983 0.60058 0.64396 0.0
H2112 H 0.6096 0.35228 0.71166 0.0
H2113 H 0.66073 0.32011 0.76629 0.0
H2114 H 0.66221 0.28536 0.73583 0.0
H2115 H 0.65035 0.26493 0.69207 0.0
H2116 H 0.59948 0.29805 0.63769 0.0
H2117 H 0.59649 0.33136 0.6696 0.0
C2118 C 0.62086 0.33755 0.71712 0.0
C2119 C 0.63508 0.33885 0.74121 0.0
C2120 C 0.6218 0.31777 0.69937 0.0
C2121 C 0.64958 0.31958 0.74791 0.0
C2122 C 0.65052 0.29974 0.73039 0.0
C2123 C 0.63864 0.27944 0.68722 0.0
C2124 C 0.62512 0.27881 0.66243 0.0
C2125 C 0.637 0.29879 0.70577 0.0
C2126 C 0.60986 0.29776 0.65671 0.0
C2127 C 0.6082 0.31696 0.67491 0.0
H2128 H 0.9162 0.41866 0.95089 0.0
H2129 H 0.93269 0.3577 1.00083 0.0
H2130 H 0.9681 0.35063 0.97245 0.0
H2131 H 0.99401 0.36168 0.93261 0.0
H2132 H 0.97675 0.42325 0.88379 0.0
H2133 H 0.94228 0.43036 0.91287 0.0
C2134 C 0.92756 0.40384 0.95571 0.0
C2135 C 0.92166 0.38857 0.97777 0.0
C2136 C 0.94787 0.40008 0.93953 0.0
C2137 C 0.93668 0.36956 0.98378 0.0
C2138 C 0.95695 0.36557 0.96757 0.0
C2139 C 0.98269 0.37664 0.92835 0.0
C2140 C 0.98815 0.39196 0.906 0.0
C2141 C 0.96265 0.38065 0.94523 0.0
C2142 C 0.97333 0.41138 0.90102 0.0
C2143 C 0.95345 0.41538 0.91754 0.0
H2144 H 0.90712 0.74711 0.18177 0.0
H2145 H 0.84655 0.73039 0.13082 0.0
H2146 H 0.83854 0.696 0.15952 0.0
H2147 H 0.84896 0.67006 0.19784 0.0
H2148 H 0.90842 0.68598 0.25068 0.0
H2149 H 0.91677 0.7212 0.22243 0.0
C2150 C 0.89217 0.73592 0.17702 0.0
C2151 C 0.87737 0.74148 0.15417 0.0
C2152 C 0.88755 0.71598 0.19383 0.0
C2153 C 0.858 0.72684 0.14845 0.0
C2154 C 0.85348 0.70704 0.16476 0.0
C2155 C 0.86377 0.68121 0.20335 0.0
C2156 C 0.87825 0.6752 0.22615 0.0
C2157 C 0.86816 0.7014 0.18734 0.0
C2158 C 0.89717 0.69004 0.23305 0.0
C2159 C 0.90188 0.7102 0.2169 0.0
H2160 H 0.59789 0.5996 0.44973 0.0
H2161 H 0.58171 0.6594 0.50198 0.0
H2162 H 0.54581 0.66675 0.47449 0.0
H2163 H 0.51957 0.65636 0.43455 0.0
H2164 H 0.53664 0.5958 0.38368 0.0
H2165 H 0.57145 0.58836 0.41203 0.0
C2166 C 0.5865 0.61424 0.45526 0.0
C2167 C 0.5926 0.62911 0.47768 0.0
C2168 C 0.56597 0.61812 0.43965 0.0
C2169 C 0.57752 0.64784 0.48466 0.0
C2170 C 0.557 0.65199 0.46895 0.0
C2171 C 0.53092 0.64153 0.42973 0.0
C2172 C 0.52537 0.62661 0.40699 0.0
C2173 C 0.55113 0.63732 0.44621 0.0
C2174 C 0.54019 0.60735 0.40123 0.0
C2175 C 0.56024 0.60317 0.41732 0.0
H2176 H 0.41138 0.27768 0.17608 0.0
H2177 H 0.34723 0.29549 0.1323 0.0
H2178 H 0.34131 0.32909 0.16306 0.0
H2179 H 0.35431 0.35399 0.2014 0.0
H2180 H 0.41758 0.33701 0.24703 0.0
H2181 H 0.42386 0.30253 0.21666 0.0
C2182 C 0.39601 0.2888 0.17347 0.0
C2183 C 0.37993 0.28412 0.15153 0.0
C2184 C 0.39259 0.30831 0.19148 0.0
C2185 C 0.36016 0.29884 0.14849 0.0
C2186 C 0.35667 0.31805 0.1662 0.0
C2187 C 0.3695 0.34276 0.20487 0.0
C2188 C 0.38554 0.34819 0.22639 0.0
C2189 C 0.37283 0.32307 0.18755 0.0
C2190 C 0.40504 0.33334 0.23052 0.0
C2191 C 0.40858 0.3136 0.21316 0.0
H2192 H 0.49392 0.66187 0.93306 0.0
H2193 H 0.48582 0.59176 0.89941 0.0
H2194 H 0.45217 0.58498 0.92981 0.0
H2195 H 0.42387 0.59919 0.96401 0.0
H2196 H 0.43179 0.66811 1.00062 0.0
H2197 H 0.46662 0.67516 0.97115 0.0
C2198 C 0.48482 0.6451 0.93258 0.0
C2199 C 0.49249 0.62731 0.91395 0.0
C2200 C 0.46538 0.64115 0.9505 0.0
C2201 C 0.48058 0.60563 0.9137 0.0
C2202 C 0.4612 0.60176 0.93099 0.0
C2203 C 0.43324 0.61576 0.96575 0.0
C2204 C 0.42489 0.63331 0.98407 0.0
C2205 C 0.45331 0.61943 0.94921 0.0
C2206 C 0.43756 0.65447 0.98634 0.0
C2207 C 0.45751 0.65846 0.9695 0.0
H2208 H 0.11515 0.74492 0.68201 0.0
H2209 H 0.18185 0.73253 0.64113 0.0
H2210 H 0.18959 0.69952 0.67215 0.0
H2211 H 0.17715 0.67315 0.70936 0.0
H2212 H 0.11111 0.68466 0.75171 0.0
H2213 H 0.10329 0.71888 0.72158 0.0
C2214 C 0.13137 0.73499 0.67993 0.0
C2215 C 0.14794 0.7414 0.6592 0.0
C2216 C 0.13577 0.71577 0.69798 0.0
C2217 C 0.16895 0.72838 0.65705 0.0
C2218 C 0.17334 0.70933 0.67469 0.0
C2219 C 0.16104 0.68317 0.7122 0.0
C2220 C 0.14456 0.67611 0.73252 0.0
C2221 C 0.15685 0.70278 0.69505 0.0
C2222 C 0.12393 0.68949 0.73598 0.0
C2223 C 0.11951 0.70908 0.71877 0.0
H2224 H 0.02027 0.36446 0.4253 0.0
H2225 H 0.04196 0.42452 0.37641 0.0
H2226 H 0.07554 0.43056 0.40717 0.0
H2227 H 0.09948 0.41857 0.44689 0.0
H2228 H 0.07877 0.35926 0.4973 0.0
H2229 H 0.04408 0.35323 0.46722 0.0
C2230 C 0.03223 0.37899 0.42157 0.0
C2231 C 0.02864 0.39382 0.3982 0.0
C2232 C 0.05175 0.38246 0.43957 0.0
C2233 C 0.04444 0.41251 0.39375 0.0
C2234 C 0.06365 0.41608 0.41145 0.0
C2235 C 0.08738 0.40432 0.45145 0.0
C2236 C 0.09182 0.3893 0.47425 0.0
C2237 C 0.06761 0.40106 0.4342 0.0
C2238 C 0.07583 0.37102 0.47984 0.0
C2239 C 0.05599 0.3676 0.46262 0.0
H2240 H 0.40645 0.74903 0.38772 0.0
H2241 H 0.3403 0.7364 0.42965 0.0
H2242 H 0.33186 0.70405 0.39778 0.0
H2243 H 0.34344 0.67847 0.35929 0.0
H2244 H 0.40878 0.69046 0.3157 0.0
H2245 H 0.41746 0.72377 0.347 0.0
C2246 C 0.3902 0.73917 0.38984 0.0
C2247 C 0.37399 0.74531 0.4111 0.0
C2248 C 0.38537 0.72039 0.37126 0.0
C2249 C 0.35294 0.73242 0.41333 0.0
C2250 C 0.34814 0.71376 0.3952 0.0
C2251 C 0.35958 0.68839 0.35645 0.0
C2252 C 0.37561 0.68174 0.3354 0.0
C2253 C 0.36424 0.70752 0.37424 0.0
C2254 C 0.3963 0.69498 0.33197 0.0
C2255 C 0.40121 0.71406 0.34984 0.0
H2256 H 0.08976 0.59319 0.10508 0.0
H2257 H 0.07891 0.66025 0.06495 0.0
H2258 H 0.04481 0.66775 0.09548 0.0
H2259 H 0.01875 0.65531 0.1349 0.0
H2260 H 0.03035 0.58743 0.17314 0.0
H2261 H 0.06325 0.5801 0.14175 0.0
C2262 C 0.07991 0.60946 0.10281 0.0
C2263 C 0.08712 0.62631 0.08301 0.0
C2264 C 0.06036 0.61344 0.12011 0.0
C2265 C 0.07395 0.64713 0.08025 0.0
C2266 C 0.05443 0.65137 0.0977 0.0
C2267 C 0.02848 0.63891 0.13629 0.0
C2268 C 0.02192 0.6219 0.15641 0.0
C2269 C 0.0476 0.63472 0.11797 0.0
C2270 C 0.03465 0.60068 0.1577 0.0
C2271 C 0.05363 0.59652 0.13985 0.0
H2272 H 0.17378 0.34746 0.85235 0.0
H2273 H 0.10778 0.33124 0.81212 0.0
H2274 H 0.10266 0.29719 0.84328 0.0
H2275 H 0.11658 0.273 0.88356 0.0
H2276 H 0.18333 0.28988 0.92204 0.0
H2277 H 0.18847 0.32265 0.88996 0.0
C2278 C 0.15828 0.33644 0.8502 0.0
C2279 C 0.14105 0.34205 0.83011 0.0
C2280 C 0.15557 0.31701 0.86803 0.0
C2281 C 0.12119 0.32744 0.82758 0.0
C2282 C 0.11831 0.30797 0.84539 0.0
C2283 C 0.13237 0.28369 0.88469 0.0
C2284 C 0.1494 0.27906 0.90558 0.0
C2285 C 0.13531 0.30269 0.86593 0.0
C2286 C 0.16969 0.29323 0.90671 0.0
C2287 C 0.17273 0.31196 0.88823 0.0
H2288 H 0.49332 0.36146 0.6321 0.0
H2289 H 0.48698 0.43238 0.6638 0.0
H2290 H 0.45398 0.43974 0.63248 0.0
H2291 H 0.42591 0.42592 0.5977 0.0
H2292 H 0.43249 0.35619 0.56289 0.0
H2293 H 0.46628 0.3484 0.59375 0.0
C2294 C 0.48473 0.37852 0.63197 0.0
C2295 C 0.49269 0.39638 0.65028 0.0
C2296 C 0.46572 0.38279 0.61351 0.0
C2297 C 0.48147 0.41845 0.64976 0.0
C2298 C 0.46247 0.42264 0.63194 0.0
C2299 C 0.43477 0.40901 0.59667 0.0
C2300 C 0.42628 0.39144 0.57849 0.0
C2301 C 0.45435 0.40493 0.61394 0.0
C2302 C 0.43828 0.36981 0.57717 0.0
C2303 C 0.45767 0.36542 0.59475 0.0
H2304 H 0.13044 0.04682 0.31042 0.0
H2305 H 0.09078 0.05417 0.234 0.0
H2306 H 0.0893 0.01115 0.22903 0.0
H2307 H 0.09858 0.97134 0.24726 0.0
H2308 H 0.13607 0.96442 0.32515 0.0
H2309 H 0.13899 1.00744 0.32902 0.0
C2310 C 0.12162 0.03905 0.29255 0.0
C2311 C 0.11088 0.05367 0.27243 0.0
C2312 C 0.12026 0.01439 0.29036 0.0
C2313 C 0.09922 0.04327 0.24966 0.0
C2314 C 0.09832 0.0187 0.24689 0.0
C2315 C 0.10728 0.97938 0.26508 0.0
C2316 C 0.11702 0.96497 0.28603 0.0
C2317 C 0.10861 1.00409 0.26724 0.0
C2318 C 0.12835 0.97532 0.30898 0.0
C2319 C 0.13007 0.99985 0.3111 0.0
H2320 H 0.22302 0.85592 0.57232 0.0
H2321 H 0.21605 0.86921 0.48405 0.0
H2322 H 0.25907 0.87181 0.47956 0.0
H2323 H 0.29851 0.86973 0.50078 0.0
H2324 H 0.30593 0.85298 0.5882 0.0
H2325 H 0.26284 0.85215 0.59323 0.0
C2326 C 0.23103 0.85938 0.55216 0.0
C2327 C 0.21656 0.86252 0.52852 0.0
C2328 C 0.25574 0.86017 0.5497 0.0
C2329 C 0.22694 0.86673 0.50242 0.0
C2330 C 0.25148 0.86824 0.49992 0.0
C2331 C 0.2907 0.86609 0.52098 0.0
C2332 C 0.30534 0.86175 0.54423 0.0
C2333 C 0.26603 0.86495 0.52341 0.0
C2334 C 0.29499 0.85646 0.5701 0.0
C2335 C 0.27039 0.856 0.57293 0.0
H2336 H 0.38341 0.96953 0.7918 0.0
H2337 H 0.45517 0.96144 0.76378 0.0
H2338 H 0.45998 1.00427 0.76307 0.0
H2339 H 0.44392 0.04428 0.7713 0.0
H2340 H 0.37172 0.05212 0.79731 0.0
H2341 H 0.36698 0.00929 0.79835 0.0
C2342 C 0.40006 0.97714 0.78536 0.0
C2343 C 0.41893 0.96227 0.77795 0.0
C2344 C 0.40269 1.0018 0.78501 0.0
C2345 C 0.44034 0.97244 0.76952 0.0
C2346 C 0.44315 0.99696 0.76928 0.0
C2347 C 0.42726 0.03652 0.77747 0.0
C2348 C 0.40822 0.05126 0.78457 0.0
C2349 C 0.42453 0.01183 0.77727 0.0
C2350 C 0.38657 0.0411 0.79185 0.0
C2351 C 0.38387 0.01661 0.79239 0.0
H2352 H 0.22738 0.14935 0.99618 0.0
H2353 H 0.21933 0.16888 0.08277 0.0
H2354 H 0.26231 0.16913 0.08861 0.0
H2355 H 0.30227 0.16435 0.06873 0.0
H2356 H 0.31033 0.14883 0.98106 0.0
H2357 H 0.26732 0.14647 0.97576 0.0
C2358 C 0.23508 0.15351 1.01635 0.0
C2359 C 0.22027 0.15881 0.03918 0.0
C2360 C 0.25979 0.15448 1.0192 0.0
C2361 C 0.23042 0.16466 0.06502 0.0
C2362 C 0.25496 0.16482 0.06831 0.0
C2363 C 0.29452 0.1605 0.04849 0.0
C2364 C 0.3093 0.15667 1.02527 0.0
C2365 C 0.26982 0.15987 0.04552 0.0
C2366 C 0.29921 0.15188 0.99911 0.0
C2367 C 0.27466 0.15049 0.99615 0.0
H2368 H 0.93346 0.04451 0.7984 0.0
H2369 H 0.8744 0.05129 0.74245 0.0
H2370 H 0.86892 1.00833 0.7428 0.0
H2371 H 0.88104 0.96895 0.7594 0.0
H2372 H 0.93992 0.96253 0.81598 0.0
H2373 H 0.94506 1.00529 0.81565 0.0
C2374 C 0.91959 0.03646 0.78603 0.0
C2375 C 0.90466 0.0508 0.76989 0.0
C2376 C 0.9163 0.01192 0.78691 0.0
C2377 C 0.88632 0.04043 0.75458 0.0
C2378 C 0.88312 0.01595 0.75498 0.0
C2379 C 0.89489 0.9769 0.77181 0.0
C2380 C 0.91013 0.96249 0.78768 0.0
C2381 C 0.89795 1.00152 0.77118 0.0
C2382 C 0.92797 0.97316 0.80363 0.0
C2383 C 0.93099 0.99761 0.80332 0.0
H2384 H 0.72508 0.15673 0.57122 0.0
H2385 H 0.71462 0.16335 0.48233 0.0
H2386 H 0.75741 0.16105 0.47479 0.0
H2387 H 0.79785 0.15735 0.49387 0.0
H2388 H 0.80812 0.15543 0.58312 0.0
H2389 H 0.76533 0.15563 0.59038 0.0
C2390 C 0.73223 0.15765 0.55021 0.0
C2391 C 0.71688 0.16 0.52727 0.0
C2392 C 0.75675 0.15713 0.54623 0.0
C2393 C 0.72622 0.16156 0.5002 0.0
C2394 C 0.75062 0.16019 0.49594 0.0
C2395 C 0.79061 0.15689 0.51486 0.0
C2396 C 0.80592 0.15605 0.53801 0.0
C2397 C 0.76605 0.15797 0.51882 0.0
C2398 C 0.79655 0.15594 0.56511 0.0
C2399 C 0.77215 0.15607 0.56921 0.0
H2400 H 0.61703 0.04684 0.2474 0.0
H2401 H 0.61739 0.05471 0.33704 0.0
H2402 H 0.61822 0.01173 0.34253 0.0
H2403 H 0.61812 0.97195 0.32167 0.0
H2404 H 0.61307 0.96403 0.23224 0.0
H2405 H 0.61465 1.00702 0.22659 0.0
C2406 C 0.61737 0.03908 0.26811 0.0
C2407 C 0.61742 0.05381 0.29185 0.0
C2408 C 0.6169 0.01442 0.27102 0.0
C2409 C 0.61743 0.04365 0.31856 0.0
C2410 C 0.6179 0.01913 0.32165 0.0
C2411 C 0.61746 0.97969 0.30096 0.0
C2412 C 0.61577 0.96497 0.27731 0.0
C2413 C 0.61755 1.00434 0.29803 0.0
C2414 C 0.61447 0.9751 0.25064 0.0
C2415 C 0.61539 0.99962 0.24746 0.0
H2416 H 0.725 0.85894 1.00208 0.0
H2417 H 0.71775 0.86996 0.09081 0.0
H2418 H 0.7608 0.87248 0.09564 0.0
H2419 H 0.80047 0.87077 0.07445 0.0
H2420 H 0.80765 0.85527 0.98661 0.0
H2421 H 0.76464 0.85544 0.98131 0.0
C2422 C 0.73294 0.862 1.02242 0.0
C2423 C 0.71843 0.86453 0.04607 0.0
C2424 C 0.75761 0.86263 1.02506 0.0
C2425 C 0.72871 0.86809 0.07239 0.0
C2426 C 0.75326 0.86953 0.0751 0.0
C2427 C 0.79256 0.86756 0.05415 0.0
C2428 C 0.80708 0.86323 1.03083 0.0
C2429 C 0.76787 0.86676 0.05158 0.0
C2430 C 0.79673 0.85869 1.00475 0.0
C2431 C 0.7722 0.85877 1.00176 0.0
H2432 H 0.60502 0.55078 0.81613 0.0
H2433 H 0.62242 0.55674 0.72876 0.0
H2434 H 0.62562 0.51365 0.72517 0.0
H2435 H 0.62262 0.47429 0.74689 0.0
H2436 H 0.60149 0.46832 0.83318 0.0
H2437 H 0.60074 0.51139 0.83743 0.0
C2438 C 0.60948 0.54255 0.79632 0.0
C2439 C 0.61353 0.55675 0.77269 0.0
C2440 C 0.6107 0.51783 0.79436 0.0
C2441 C 0.61917 0.54606 0.74711 0.0
C2442 C 0.62105 0.52148 0.74514 0.0
C2443 C 0.61808 0.48245 0.7667 0.0
C2444 C 0.61242 0.46818 0.78987 0.0
C2445 C 0.6168 0.50718 0.76862 0.0
C2446 C 0.60607 0.47896 0.81519 0.0
C2447 C 0.60557 0.50355 0.81757 0.0
H2448 H 0.79236 0.38418 1.00813 0.0
H2449 H 0.80079 0.32679 0.0663 0.0
H2450 H 0.75801 0.32237 0.06922 0.0
H2451 H 0.71808 0.33402 0.05414 0.0
H2452 H 0.70952 0.39143 0.99634 0.0
H2453 H 0.75238 0.39659 0.99411 0.0
C2454 C 0.78483 0.37085 1.02164 0.0
C2455 C 0.79977 0.35578 0.03693 0.0
C2456 C 0.76018 0.36825 1.023 0.0
C2457 C 0.78971 0.33859 0.05431 0.0
C2458 C 0.76524 0.33598 0.05589 0.0
C2459 C 0.72571 0.34752 0.04092 0.0
C2460 C 0.71083 0.36224 1.02522 0.0
C2461 C 0.75031 0.35049 0.04005 0.0
C2462 C 0.72071 0.37997 1.00858 0.0
C2463 C 0.74519 0.38289 1.00733 0.0
H2464 H 0.89949 0.54536 0.24379 0.0
H2465 H 0.90209 0.55289 0.33343 0.0
H2466 H 0.90078 0.50989 0.33875 0.0
H2467 H 0.89975 0.47022 0.31765 0.0
H2468 H 0.90193 0.46269 0.228 0.0
H2469 H 0.9005 0.50569 0.22268 0.0
C2470 C 0.89963 0.53752 0.26447 0.0
C2471 C 0.90057 0.5521 0.28827 0.0
C2472 C 0.8998 0.51287 0.26723 0.0
C2473 C 0.90125 0.54189 0.31492 0.0
C2474 C 0.90051 0.51737 0.31791 0.0
C2475 C 0.89979 0.47806 0.29697 0.0
C2476 C 0.90064 0.46348 0.27317 0.0
C2477 C 0.89989 0.5027 0.29421 0.0
C2478 C 0.90117 0.47369 0.24651 0.0
C2479 C 0.90036 0.4982 0.24353 0.0
H2480 H 0.72135 0.65219 0.49748 0.0
H2481 H 0.71301 0.65951 0.58665 0.0
H2482 H 0.75601 0.65887 0.59265 0.0
H2483 H 0.79599 0.65668 0.57216 0.0
H2484 H 0.80409 0.65397 0.48263 0.0
H2485 H 0.76113 0.65233 0.4769 0.0
C2486 C 0.72899 0.65353 0.51823 0.0
C2487 C 0.71416 0.6556 0.5417 0.0
C2488 C 0.75362 0.65403 0.52131 0.0
C2489 C 0.72417 0.65782 0.56839 0.0
C2490 C 0.7487 0.65744 0.57176 0.0
C2491 C 0.78825 0.65567 0.55144 0.0
C2492 C 0.80299 0.65519 0.52778 0.0
C2493 C 0.76359 0.65561 0.54836 0.0
C2494 C 0.79295 0.65429 0.50103 0.0
C2495 C 0.76846 0.65334 0.4978 0.0
H2496 H 0.42809 0.55235 0.31335 0.0
H2497 H 0.37608 0.5586 0.24819 0.0
H2498 H 0.37214 0.51556 0.24629 0.0
H2499 H 0.38414 0.4762 0.26262 0.0
H2500 H 0.43622 0.46986 0.32791 0.0
H2501 H 0.43913 0.51283 0.33085 0.0
C2502 C 0.41606 0.54417 0.29863 0.0
C2503 C 0.4027 0.55842 0.28052 0.0
C2504 C 0.4137 0.51946 0.29798 0.0
C2505 C 0.38674 0.54784 0.26198 0.0
C2506 C 0.38443 0.52329 0.26103 0.0
C2507 C 0.39596 0.48419 0.2777 0.0
C2508 C 0.41 0.46977 0.29502 0.0
C2509 C 0.39785 0.50891 0.27889 0.0
C2510 C 0.42525 0.48051 0.31436 0.0
C2511 C 0.42701 0.50509 0.31593 0.0
H2512 H 0.2929 0.64384 0.99876 0.0
H2513 H 0.2996 0.67701 0.07954 0.0
H2514 H 0.25662 0.67709 0.08482 0.0
H2515 H 0.21697 0.66883 0.06567 0.0
H2516 H 0.21022 0.63808 0.9837 0.0
H2517 H 0.25332 0.63608 0.9794 0.0
C2518 C 0.28494 0.65091 1.01761 0.0
C2519 C 0.29939 0.66029 0.03886 0.0
C2520 C 0.26021 0.65155 1.02007 0.0
C2521 C 0.28883 0.6697 0.06296 0.0
C2522 C 0.26427 0.66979 0.06593 0.0
C2523 C 0.22505 0.66173 0.0469 0.0
C2524 C 0.21064 0.65365 1.02495 0.0
C2525 C 0.24977 0.66099 0.04451 0.0
C2526 C 0.22109 0.64448 1.00072 0.0
C2527 C 0.24568 0.64329 0.99834 0.0
H2528 H 0.13727 0.46974 0.78945 0.0
H2529 H 0.06603 0.46289 0.75908 0.0
H2530 H 0.0618 0.5057 0.75831 0.0
H2531 H 0.07808 0.54533 0.76706 0.0
H2532 H 0.15014 0.55236 0.79392 0.0
H2533 H 0.15429 0.50945 0.79568 0.0
C2534 C 0.12089 0.47766 0.78247 0.0
C2535 C 0.10196 0.46311 0.77447 0.0
C2536 C 0.11863 0.50237 0.78184 0.0
C2537 C 0.08089 0.47363 0.76533 0.0
C2538 C 0.0784 0.49815 0.76503 0.0
C2539 C 0.09458 0.5374 0.77358 0.0
C2540 C 0.11367 0.55191 0.78092 0.0
C2541 C 0.09705 0.5127 0.77352 0.0
C2542 C 0.13517 0.5415 0.78853 0.0
C2543 C 0.13755 0.51697 0.7894 0.0
H2544 H 0.21939 0.38755 0.5153 0.0
H2545 H 0.21104 0.32413 0.5638 0.0
H2546 H 0.2538 0.31919 0.5657 0.0
H2547 H 0.29374 0.33222 0.5524 0.0
H2548 H 0.30235 0.39646 0.50582 0.0
H2549 H 0.25944 0.40156 0.50377 0.0
C2550 C 0.22694 0.37273 0.52641 0.0
C2551 C 0.21198 0.35613 0.5392 0.0
C2552 C 0.25162 0.36996 0.52735 0.0
C2553 C 0.22209 0.33714 0.55373 0.0
C2554 C 0.24657 0.33423 0.5547 0.0
C2555 C 0.28613 0.34719 0.54159 0.0
C2556 C 0.30105 0.36373 0.52878 0.0
C2557 C 0.2615 0.35033 0.54126 0.0
C2558 C 0.29113 0.38341 0.51553 0.0
C2559 C 0.26663 0.38636 0.51448 0.0
H2560 H 0.1014 0.14965 0.10998 0.0
H2561 H 0.17643 0.16105 0.10917 0.0
H2562 H 0.17757 0.15953 0.16014 0.0
H2563 H 0.15823 0.15037 0.2045 0.0
H2564 H 0.08318 0.13923 0.20683 0.0
H2565 H 0.08091 0.14552 0.15609 0.0
C2566 C 0.11778 0.15258 0.12112 0.0
C2567 C 0.13879 0.15578 0.10588 0.0
C2568 C 0.11836 0.15136 0.15073 0.0
C2569 C 0.16003 0.15893 0.12049 0.0
C2570 C 0.16072 0.15785 0.14964 0.0
C2571 C 0.14129 0.14967 0.194 0.0
C2572 C 0.12094 0.14412 0.20944 0.0
C2573 C 0.14015 0.15335 0.16492 0.0
C2574 C 0.09912 0.14354 0.1955 0.0
C2575 C 0.09785 0.147 0.16641 0.0
H2576 H 0.137 0.90768 0.45374 0.0
H2577 H 0.12207 0.83344 0.4594 0.0
H2578 H 0.11612 0.83182 0.40849 0.0
H2579 H 0.11787 0.85147 0.36125 0.0
H2580 H 0.13485 0.92544 0.35787 0.0
H2581 H 0.13723 0.92712 0.40859 0.0
C2582 C 0.13242 0.89105 0.44404 0.0
C2583 C 0.13024 0.87068 0.46068 0.0
C2584 C 0.1294 0.89021 0.41482 0.0
C2585 C 0.12391 0.84946 0.44735 0.0
C2586 C 0.12058 0.84852 0.41811 0.0
C2587 C 0.12169 0.86796 0.37174 0.0
C2588 C 0.12611 0.88836 0.35563 0.0
C2589 C 0.1236 0.86875 0.40144 0.0
C2590 C 0.13139 0.90951 0.36962 0.0
C2591 C 0.13282 0.9105 0.39872 0.0
H2592 H 0.41087 0.91162 0.69887 0.0
H2593 H 0.40055 0.83823 0.71717 0.0
H2594 H 0.39765 0.82946 0.66679 0.0
H2595 H 0.39319 0.84406 0.61745 0.0
H2596 H 0.40417 0.91799 0.60126 0.0
H2597 H 0.41198 0.92505 0.65045 0.0
C2598 C 0.4086 0.8936 0.69176 0.0
C2599 C 0.40604 0.87559 0.71159 0.0
C2600 C 0.40681 0.88884 0.66297 0.0
C2601 C 0.4029 0.85234 0.70222 0.0
C2602 C 0.40102 0.8474 0.67341 0.0
C2603 C 0.39788 0.86154 0.62466 0.0
C2604 C 0.39771 0.88053 0.60559 0.0
C2605 C 0.40227 0.86565 0.65351 0.0
C2606 C 0.40375 0.90312 0.61541 0.0
C2607 C 0.40825 0.90723 0.64363 0.0
H2608 H 0.40898 0.16423 0.86188 0.0
H2609 H 0.39042 0.0906 0.85923 0.0
H2610 H 0.38842 0.08937 0.90997 0.0
H2611 H 0.38897 0.10924 0.95488 0.0
H2612 H 0.40574 0.18317 0.95984 0.0
H2613 H 0.4116 0.18419 0.9089 0.0
C2614 C 0.40492 0.1479 0.87253 0.0
C2615 C 0.39985 0.1275 0.85664 0.0
C2616 C 0.40324 0.14738 0.90223 0.0
C2617 C 0.3943 0.10655 0.87083 0.0
C2618 C 0.39311 0.10582 0.89993 0.0
C2619 C 0.39407 0.12566 0.94503 0.0
C2620 C 0.39673 0.14614 0.96145 0.0
C2621 C 0.39705 0.12617 0.91582 0.0
C2622 C 0.40356 0.16708 0.94794 0.0
C2623 C 0.40682 0.16768 0.91869 0.0
H2624 H 0.86133 0.88028 0.86352 0.0
H2625 H 0.93611 0.86874 0.85592 0.0
H2626 H 0.93897 0.86357 0.90692 0.0
H2627 H 0.92013 0.86571 0.95466 0.0
H2628 H 0.84538 0.87903 0.95961 0.0
H2629 H 0.84265 0.87999 0.90891 0.0
C2630 C 0.87833 0.87645 0.87279 0.0
C2631 C 0.89849 0.87511 0.85569 0.0
C2632 C 0.87984 0.87391 0.90195 0.0
C2633 C 0.92025 0.86986 0.86841 0.0
C2634 C 0.92189 0.86703 0.89768 0.0
C2635 C 0.90327 0.86842 0.94451 0.0
C2636 C 0.88296 0.87236 0.96098 0.0
C2637 C 0.90183 0.86947 0.91483 0.0
C2638 C 0.86126 0.87609 0.9475 0.0
C2639 C 0.85966 0.87667 0.91845 0.0
H2640 H 0.86514 0.13821 0.70279 0.0
H2641 H 0.94099 0.13926 0.70675 0.0
H2642 H 0.94279 0.14532 0.65584 0.0
H2643 H 0.92229 0.14668 0.60909 0.0
H2644 H 0.84638 0.14425 0.60741 0.0
H2645 H 0.84514 0.14256 0.65822 0.0
C2646 C 0.88216 0.13994 0.69268 0.0
C2647 C 0.9029 0.13803 0.70872 0.0
C2648 C 0.88301 0.14315 0.66353 0.0
C2649 C 0.9247 0.14067 0.69506 0.0
C2650 C 0.92572 0.14402 0.66585 0.0
C2651 C 0.90556 0.14631 0.61999 0.0
C2652 C 0.88439 0.14573 0.60443 0.0
C2653 C 0.90496 0.14482 0.64968 0.0
C2654 C 0.86285 0.14482 0.61885 0.0
C2655 C 0.86213 0.14374 0.64795 0.0
H2656 H 0.66821 0.14091 0.45213 0.0
H2657 H 0.59556 0.15808 0.46767 0.0
H2658 H 0.58728 0.15628 0.41705 0.0
H2659 H 0.60085 0.1472 0.36791 0.0
H2660 H 0.6748 0.13233 0.35502 0.0
H2661 H 0.68224 0.13612 0.40442 0.0
C2662 C 0.65057 0.14446 0.44443 0.0
C2663 C 0.63252 0.14943 0.46363 0.0
C2664 C 0.64611 0.14373 0.41549 0.0
C2665 C 0.60982 0.15429 0.4533 0.0
C2666 C 0.60509 0.15313 0.42433 0.0
C2667 C 0.6186 0.14511 0.37588 0.0
C2668 C 0.63707 0.13905 0.35726 0.0
C2669 C 0.62308 0.14753 0.40508 0.0
C2670 C 0.65999 0.13658 0.36836 0.0
C2671 C 0.66441 0.13876 0.39688 0.0
H2672 H 0.60705 0.8891 0.11394 0.0
H2673 H 0.66015 0.83488 0.11393 0.0
H2674 H 0.65981 0.83418 0.16519 0.0
H2675 H 0.64711 0.85205 0.21026 0.0
H2676 H 0.59126 0.90342 0.21018 0.0
H2677 H 0.58969 0.90209 0.15899 0.0
C2678 C 0.61809 0.87673 0.1252 0.0
C2679 C 0.63358 0.86201 0.11015 0.0
C2680 C 0.6174 0.87607 0.15473 0.0
C2681 C 0.64787 0.84614 0.125 0.0
C2682 C 0.64782 0.8459 0.15434 0.0
C2683 C 0.63421 0.86246 0.19899 0.0
C2684 C 0.61923 0.87775 0.21396 0.0
C2685 C 0.63304 0.86117 0.16948 0.0
C2686 C 0.60271 0.89129 0.19914 0.0
C2687 C 0.60196 0.89067 0.16984 0.0
H2688 H 0.6179 0.60502 0.69769 0.0
H2689 H 0.61225 0.6792 0.71474 0.0
H2690 H 0.61451 0.68772 0.66426 0.0
H2691 H 0.62219 0.67364 0.61508 0.0
H2692 H 0.62619 0.59863 0.6004 0.0
H2693 H 0.62029 0.59101 0.64962 0.0
C2694 C 0.6167 0.62305 0.6903 0.0
C2695 C 0.61492 0.64143 0.70984 0.0
C2696 C 0.61796 0.6277 0.66147 0.0
C2697 C 0.61338 0.66471 0.70004 0.0
C2698 C 0.61487 0.66956 0.67117 0.0
C2699 C 0.6213 0.65567 0.62262 0.0
C2700 C 0.62517 0.63681 0.60381 0.0
C2701 C 0.61773 0.65118 0.65159 0.0
C2702 C 0.62384 0.61361 0.61418 0.0
C2703 C 0.62039 0.60913 0.64248 0.0
H2704 H 0.61674 0.35136 0.85815 0.0
H2705 H 0.61297 0.42719 0.85822 0.0
H2706 H 0.61362 0.42772 0.90916 0.0
H2707 H 0.61955 0.40737 0.95332 0.0
H2708 H 0.62446 0.33167 0.9553 0.0
H2709 H 0.6187 0.33024 0.9043 0.0
C2710 C 0.61542 0.36787 0.86946 0.0
C2711 C 0.61463 0.38925 0.85444 0.0
C2712 C 0.6163 0.36809 0.89914 0.0
C2713 C 0.61342 0.41056 0.86931 0.0
C2714 C 0.61393 0.41088 0.89846 0.0
C2715 C 0.61908 0.39046 0.94271 0.0
C2716 C 0.62268 0.36967 0.95816 0.0
C2717 C 0.61604 0.38986 0.91354 0.0
C2718 C 0.62168 0.34796 0.94401 0.0
C2719 C 0.61855 0.34717 0.91477 0.0
H2720 H 0.88197 0.40609 0.10899 0.0
H2721 H 0.8941 0.3313 0.10307 0.0
H2722 H 0.90051 0.32952 0.15389 0.0
H2723 H 0.89946 0.34921 0.20115 0.0
H2724 H 0.88588 0.4239 0.20479 0.0
H2725 H 0.88346 0.42568 0.15408 0.0
C2726 C 0.88619 0.38933 0.11861 0.0
C2727 C 0.88735 0.36883 0.10199 0.0
C2728 C 0.88957 0.38842 0.14776 0.0
C2729 C 0.89309 0.34741 0.11516 0.0
C2730 C 0.89666 0.34638 0.14433 0.0
C2731 C 0.89644 0.36587 0.19071 0.0
C2732 C 0.8929 0.38645 0.20685 0.0
C2733 C 0.89454 0.36674 0.16104 0.0
C2734 C 0.88865 0.40784 0.19296 0.0
C2735 C 0.88719 0.40888 0.16389 0.0
H2736 H 0.90213 0.66482 0.36166 0.0
H2737 H 0.88255 0.59155 0.35684 0.0
H2738 H 0.88005 0.5894 0.40754 0.0
H2739 H 0.8806 0.60841 0.45307 0.0
H2740 H 0.89874 0.6819 0.46007 0.0
H2741 H 0.90471 0.68383 0.40922 0.0
C2742 C 0.89771 0.64836 0.37183 0.0
C2743 C 0.89253 0.62833 0.35533 0.0
C2744 C 0.89578 0.6473 0.4015 0.0
C2745 C 0.88654 0.60722 0.36891 0.0
C2746 C 0.88505 0.60596 0.39799 0.0
C2747 C 0.88601 0.62492 0.44368 0.0
C2748 C 0.88905 0.64502 0.46067 0.0
C2749 C 0.88916 0.62594 0.41447 0.0
C2750 C 0.89624 0.66609 0.44773 0.0
C2751 C 0.8996 0.66722 0.41853 0.0
H2752 H 0.37131 0.36349 0.35826 0.0
H2753 H 0.43956 0.39655 0.36135 0.0
H2754 H 0.44032 0.39216 0.41237 0.0
H2755 H 0.41939 0.38267 0.45681 0.0
H2756 H 0.35212 0.34783 0.45298 0.0
H2757 H 0.3532 0.34887 0.4018 0.0
C2758 C 0.38657 0.3693 0.37005 0.0
C2759 C 0.40534 0.38041 0.35595 0.0
C2760 C 0.387 0.36643 0.39938 0.0
C2761 C 0.42499 0.38777 0.37158 0.0
C2762 C 0.42534 0.38541 0.40083 0.0
C2763 C 0.40539 0.37462 0.44468 0.0
C2764 C 0.38585 0.3648 0.45864 0.0
C2765 C 0.40621 0.37523 0.41507 0.0
C2766 C 0.36754 0.35499 0.4427 0.0
C2767 C 0.36806 0.35581 0.41343 0.0
H2768 H 0.35842 0.64915 0.20564 0.0
H2769 H 0.43424 0.64686 0.2101 0.0
H2770 H 0.43658 0.65243 0.15921 0.0
H2771 H 0.41649 0.6541 0.11242 0.0
H2772 H 0.34058 0.65543 0.10984 0.0
H2773 H 0.33888 0.65429 0.16075 0.0
C2774 C 0.37554 0.6501 0.19563 0.0
C2775 C 0.39612 0.64735 0.21179 0.0
C2776 C 0.3767 0.65309 0.16646 0.0
C2777 C 0.41809 0.64894 0.19829 0.0
C2778 C 0.41942 0.652 0.1691 0.0
C2779 C 0.39969 0.65472 0.12315 0.0
C2780 C 0.37865 0.65501 0.1074 0.0
C2781 C 0.3988 0.65361 0.1528 0.0
C2782 C 0.35696 0.65534 0.12152 0.0
C2783 C 0.35597 0.65457 0.15065 0.0
H2784 H 0.1173 0.66665 0.85907 0.0
H2785 H 0.12059 0.59084 0.85563 0.0
H2786 H 0.12055 0.58878 0.90651 0.0
H2787 H 0.12332 0.60817 0.95177 0.0
H2788 H 0.12117 0.68388 0.95724 0.0
H2789 H 0.11672 0.68637 0.9062 0.0
C2790 C 0.11743 0.64975 0.86957 0.0
C2791 C 0.11881 0.62887 0.85356 0.0
C2792 C 0.11789 0.64867 0.89926 0.0
C2793 C 0.11942 0.60711 0.86746 0.0
C2794 C 0.11951 0.60591 0.89659 0.0
C2795 C 0.12166 0.62528 0.94196 0.0
C2796 C 0.1228 0.64579 0.95851 0.0
C2797 C 0.11935 0.62654 0.91269 0.0
C2798 C 0.12031 0.66775 0.94518 0.0
C2799 C 0.11789 0.66918 0.91589 0.0
H2800 H 0.15213 0.37124 0.70198 0.0
H2801 H 0.0765 0.37607 0.70604 0.0
H2802 H 0.07414 0.37096 0.65499 0.0
H2803 H 0.09443 0.36937 0.60819 0.0
H2804 H 0.17031 0.36588 0.60627 0.0
H2805 H 0.17175 0.36619 0.65718 0.0
C2806 C 0.13507 0.37097 0.6918 0.0
C2807 C 0.11456 0.3743 0.70788 0.0
C2808 C 0.13394 0.36839 0.66259 0.0
C2809 C 0.09259 0.37347 0.69427 0.0
C2810 C 0.09127 0.37073 0.66499 0.0
C2811 C 0.11116 0.36814 0.61905 0.0
C2812 C 0.13229 0.36752 0.60346 0.0
C2813 C 0.11191 0.36875 0.64875 0.0
C2814 C 0.15386 0.36631 0.61779 0.0
C2815 C 0.15471 0.36656 0.64692 0.0
loop_
_geom_bond_atom_site_label_1
_geom_bond_atom_site_label_2
_geom_bond_distance
_geom_bond_site_symmetry_2
_ccdc_geom_bond_type
C0 Eu1 2.835 . S
C0 C2 1.500 . S
C0 O20 1.257 . S
C0 O21 1.260 . S
Eu1 C0 2.835 . S
Eu1 O20 2.473 . S
Eu1 O21 2.480 . S
Eu1 O22 2.430 . S
Eu1 O23 2.670 . S
Eu1 O24 2.394 . S
Eu1 O29 2.355 . S
Eu1 O31 2.374 . S
C2 C0 1.500 . S
C2 C3 1.377 . S
C2 C7 1.377 . S
C3 C2 1.377 . S
C3 C4 1.395 . S
C3 H32 0.931 . S
C4 C3 1.395 . S
C4 C5 1.383 . S
C4 H33 0.931 1_455 S
C5 C4 1.383 . S
C5 C6 1.394 . S
C6 C5 1.394 . S
C6 C7 1.378 . S
C6 H34 0.931 . S
C7 C2 1.377 . S
C7 C6 1.378 . S
C7 H35 0.931 . S
C8 O22 1.259 . S
C8 O23 1.270 . S
C9 O24 1.251 . S
C9 O25 1.251 . S
C10 Eu11 2.835 . S
C10 C12 1.500 . S
C10 O26 1.257 . S
C10 O27 1.260 . S
Eu11 C10 2.835 . S
Eu11 O23 2.355 . S
Eu11 O25 2.374 . S
Eu11 O26 2.473 . S
Eu11 O27 2.480 . S
Eu11 O28 2.430 . S
Eu11 O29 2.670 . S
Eu11 O30 2.394 . S
C12 C10 1.500 . S
C12 C13 1.377 . S
C12 C17 1.377 . S
C13 C12 1.377 . S
C13 C14 1.395 . S
C13 H36 0.931 . S
C14 C13 1.395 . S
C14 C15 1.383 . S
C14 H37 0.931 . S
C15 C14 1.383 . S
C15 C16 1.394 . S
C16 C15 1.394 . S
C16 C17 1.378 . S
C16 H38 0.931 . S
C17 C12 1.377 . S
C17 C16 1.378 . S
C17 H39 0.931 . S
C18 O28 1.259 . S
C18 O29 1.270 . S
C19 O30 1.251 . S
C19 O31 1.251 . S
O20 C0 1.257 . S
O20 Eu1 2.473 . S
O21 C0 1.260 . S
O21 Eu1 2.480 . S
O22 Eu1 2.430 . S
O22 C8 1.259 . S
O23 Eu1 2.670 . S
O23 C8 1.270 . S
O23 Eu11 2.355 . S
O24 Eu1 2.394 . S
O24 C9 1.251 . S
O25 C9 1.251 . S
O25 Eu11 2.374 . S
O26 C10 1.257 . S
O26 Eu11 2.473 . S
O27 C10 1.260 . S
O27 Eu11 2.480 . S
O28 Eu11 2.430 . S
O28 C18 1.259 . S
O29 Eu1 2.355 . S
O29 Eu11 2.670 . S
O29 C18 1.270 . S
O30 Eu11 2.394 . S
O30 C19 1.251 . S
O31 Eu1 2.374 . S
O31 C19 1.251 . S
H32 C3 0.931 . S
H33 C4 0.931 1_655 S
H34 C6 0.931 . S
H35 C7 0.931 . S
H36 C13 0.931 . S
H37 C14 0.931 . S
H38 C16 0.931 . S
H39 C17 0.931 . S
C40 Eu41 2.835 . S
C40 C42 1.500 . S
C40 O60 1.257 . S
C40 O61 1.260 . S
Eu41 C40 2.835 . S
Eu41 O60 2.473 . S
Eu41 O61 2.480 . S
Eu41 O62 2.430 . S
Eu41 O63 2.670 . S
Eu41 O64 2.394 . S
Eu41 O69 2.355 . S
Eu41 O71 2.374 . S
C42 C40 1.500 . S
C42 C43 1.377 . S
C42 C47 1.377 . S
C43 C42 1.377 . S
C43 C44 1.395 . S
C43 H72 0.931 . S
C44 C43 1.395 . S
C44 C45 1.383 . S
C44 H73 0.931 . S
C45 C44 1.383 . S
C45 C46 1.394 . S
C46 C45 1.394 . S
C46 C47 1.378 . S
C46 H74 0.931 . S
C47 C42 1.377 . S
C47 C46 1.378 . S
C47 H75 0.931 . S
C48 O62 1.259 . S
C48 O63 1.270 . S
C49 O64 1.251 . S
C49 O65 1.251 . S
C50 Eu51 2.835 . S
C50 C52 1.500 . S
C50 O66 1.257 . S
C50 O67 1.260 . S
Eu51 C50 2.835 . S
Eu51 O63 2.355 . S
Eu51 O65 2.374 . S
Eu51 O66 2.473 . S
Eu51 O67 2.480 . S
Eu51 O68 2.430 . S
Eu51 O69 2.670 . S
Eu51 O70 2.394 . S
C52 C50 1.500 . S
C52 C53 1.377 . S
C52 C57 1.377 . S
C53 C52 1.377 . S
C53 C54 1.395 . S
C53 H76 0.931 . S
C54 C53 1.395 . S
C54 C55 1.383 . S
C54 H77 0.931 1_565 S
C55 C54 1.383 . S
C55 C56 1.394 . S
C56 C55 1.394 . S
C56 C57 1.378 . S
C56 H78 0.931 . S
C57 C52 1.377 . S
C57 C56 1.378 . S
C57 H79 0.931 . S
C58 O68 1.259 . S
C58 O69 1.270 . S
C59 O70 1.251 . S
C59 O71 1.251 . S
O60 C40 1.257 . S
O60 Eu41 2.473 . S
O61 C40 1.260 . S
O61 Eu41 2.480 . S
O62 Eu41 2.430 . S
O62 C48 1.259 . S
O63 Eu41 2.670 . S
O63 C48 1.270 . S
O63 Eu51 2.355 . S
O64 Eu41 2.394 . S
O64 C49 1.251 . S
O65 C49 1.251 . S
O65 Eu51 2.374 . S
O66 C50 1.257 . S
O66 Eu51 2.473 . S
O67 C50 1.260 . S
O67 Eu51 2.480 . S
O68 Eu51 2.430 . S
O68 C58 1.259 . S
O69 Eu41 2.355 . S
O69 Eu51 2.670 . S
O69 C58 1.270 . S
O70 Eu51 2.394 . S
O70 C59 1.251 . S
O71 Eu41 2.374 . S
O71 C59 1.251 . S
H72 C43 0.931 . S
H73 C44 0.931 . S
H74 C46 0.931 . S
H75 C47 0.931 . S
H76 C53 0.931 . S
H77 C54 0.931 1_545 S
H78 C56 0.931 . S
H79 C57 0.931 . S
C80 Eu81 2.835 . S
C80 C82 1.500 . S
C80 O100 1.257 . S
C80 O101 1.260 . S
Eu81 C80 2.835 . S
Eu81 O100 2.473 . S
Eu81 O101 2.480 . S
Eu81 O102 2.430 . S
Eu81 O103 2.670 . S
Eu81 O104 2.394 . S
Eu81 O109 2.355 . S
Eu81 O111 2.374 . S
C82 C80 1.500 . S
C82 C83 1.377 . S
C82 C87 1.377 . S
C83 C82 1.377 . S
C83 C84 1.395 . S
C83 H112 0.931 . S
C84 C83 1.395 . S
C84 C85 1.383 . S
C84 H113 0.931 . S
C85 C84 1.383 . S
C85 C86 1.394 . S
C86 C85 1.394 . S
C86 C87 1.378 . S
C86 H114 0.931 . S
C87 C82 1.377 . S
C87 C86 1.378 . S
C87 H115 0.931 . S
C88 O102 1.259 . S
C88 O103 1.270 . S
C89 O104 1.251 . S
C89 O105 1.251 . S
C90 Eu91 2.835 . S
C90 C92 1.500 . S
C90 O106 1.257 . S
C90 O107 1.260 . S
Eu91 C90 2.835 . S
Eu91 O103 2.355 . S
Eu91 O105 2.374 . S
Eu91 O106 2.473 . S
Eu91 O107 2.480 . S
Eu91 O108 2.430 . S
Eu91 O109 2.670 . S
Eu91 O110 2.394 . S
C92 C90 1.500 . S
C92 C93 1.377 . S
C92 C97 1.377 . S
C93 C92 1.377 . S
C93 C94 1.395 . S
C93 H116 0.931 . S
C94 C93 1.395 . S
C94 C95 1.383 . S
C94 H117 0.931 . S
C95 C94 1.383 . S
C95 C96 1.394 . S
C96 C95 1.394 . S
C96 C97 1.378 . S
C96 H118 0.931 . S
C97 C92 1.377 . S
C97 C96 1.378 . S
C97 H119 0.931 . S
C98 O108 1.259 . S
C98 O109 1.270 . S
C99 O110 1.251 . S
C99 O111 1.251 . S
O100 C80 1.257 . S
O100 Eu81 2.473 . S
O101 C80 1.260 . S
O101 Eu81 2.480 . S
O102 Eu81 2.430 . S
O102 C88 1.259 . S
O103 Eu81 2.670 . S
O103 C88 1.270 . S
O103 Eu91 2.355 . S
O104 Eu81 2.394 . S
O104 C89 1.251 . S
O105 C89 1.251 . S
O105 Eu91 2.374 . S
O106 C90 1.257 . S
O106 Eu91 2.473 . S
O107 C90 1.260 . S
O107 Eu91 2.480 . S
O108 Eu91 2.430 . S
O108 C98 1.259 . S
O109 Eu81 2.355 . S
O109 Eu91 2.670 . S
O109 C98 1.270 . S
O110 Eu91 2.394 . S
O110 C99 1.251 . S
O111 Eu81 2.374 . S
O111 C99 1.251 . S
H112 C83 0.931 . S
H113 C84 0.931 . S
H114 C86 0.931 . S
H115 C87 0.931 . S
H116 C93 0.931 . S
H117 C94 0.931 . S
H118 C96 0.931 . S
H119 C97 0.931 . S
C120 Eu121 2.835 . S
C120 C122 1.500 . S
C120 O140 1.257 . S
C120 O141 1.260 . S
Eu121 C120 2.835 . S
Eu121 O140 2.473 . S
Eu121 O141 2.480 . S
Eu121 O142 2.430 . S
Eu121 O143 2.670 . S
Eu121 O144 2.394 . S
Eu121 O149 2.355 . S
Eu121 O151 2.374 1_554 S
C122 C120 1.500 . S
C122 C123 1.377 . S
C122 C127 1.377 . S
C123 C122 1.377 . S
C123 C124 1.395 . S
C123 H152 0.931 . S
C124 C123 1.395 . S
C124 C125 1.383 . S
C124 H153 0.931 . S
C125 C124 1.383 . S
C125 C126 1.394 . S
C126 C125 1.394 . S
C126 C127 1.378 . S
C126 H154 0.931 . S
C127 C122 1.377 . S
C127 C126 1.378 . S
C127 H155 0.931 . S
C128 O142 1.259 . S
C128 O143 1.270 . S
C129 O144 1.251 . S
C129 O145 1.251 . S
C130 Eu131 2.835 1_556 S
C130 C132 1.500 . S
C130 O146 1.257 . S
C130 O147 1.260 . S
Eu131 C130 2.835 1_554 S
Eu131 O143 2.355 . S
Eu131 O145 2.374 . S
Eu131 O146 2.473 1_554 S
Eu131 O147 2.480 1_554 S
Eu131 O148 2.430 . S
Eu131 O149 2.670 . S
Eu131 O150 2.394 1_554 S
C132 C130 1.500 . S
C132 C133 1.377 . S
C132 C137 1.377 . S
C133 C132 1.377 . S
C133 C134 1.395 . S
C133 H156 0.931 . S
C134 C133 1.395 . S
C134 C135 1.383 . S
C134 H157 0.931 1_545 S
C135 C134 1.383 . S
C135 C136 1.394 . S
C136 C135 1.394 . S
C136 C137 1.378 . S
C136 H158 0.931 . S
C137 C132 1.377 . S
C137 C136 1.378 . S
C137 H159 0.931 . S
C138 O148 1.259 . S
C138 O149 1.270 . S
C139 O150 1.251 . S
C139 O151 1.251 . S
O140 C120 1.257 . S
O140 Eu121 2.473 . S
O141 C120 1.260 . S
O141 Eu121 2.480 . S
O142 Eu121 2.430 . S
O142 C128 1.259 . S
O143 Eu121 2.670 . S
O143 C128 1.270 . S
O143 Eu131 2.355 . S
O144 Eu121 2.394 . S
O144 C129 1.251 . S
O145 C129 1.251 . S
O145 Eu131 2.374 . S
O146 C130 1.257 . S
O146 Eu131 2.473 1_556 S
O147 C130 1.260 . S
O147 Eu131 2.480 1_556 S
O148 Eu131 2.430 . S
O148 C138 1.259 . S
O149 Eu121 2.355 . S
O149 Eu131 2.670 . S
O149 C138 1.270 . S
O150 Eu131 2.394 1_556 S
O150 C139 1.251 . S
O151 Eu121 2.374 1_556 S
O151 C139 1.251 . S
H152 C123 0.931 . S
H153 C124 0.931 . S
H154 C126 0.931 . S
H155 C127 0.931 . S
H156 C133 0.931 . S
H157 C134 0.931 1_565 S
H158 C136 0.931 . S
H159 C137 0.931 . S
C160 Eu161 2.835 . S
C160 C162 1.500 . S
C160 O180 1.257 . S
C160 O181 1.260 . S
Eu161 C160 2.835 . S
Eu161 O180 2.473 . S
Eu161 O181 2.480 . S
Eu161 O182 2.430 . S
Eu161 O183 2.670 . S
Eu161 O184 2.394 . S
Eu161 O189 2.355 . S
Eu161 O191 2.374 . S
C162 C160 1.500 . S
C162 C163 1.377 . S
C162 C167 1.377 . S
C163 C162 1.377 . S
C163 C164 1.395 . S
C163 H192 0.931 . S
C164 C163 1.395 . S
C164 C165 1.383 . S
C164 H193 0.931 1_455 S
C165 C164 1.383 . S
C165 C166 1.394 . S
C166 C165 1.394 . S
C166 C167 1.378 . S
C166 H194 0.931 . S
C167 C162 1.377 . S
C167 C166 1.378 . S
C167 H195 0.931 . S
C168 O182 1.259 . S
C168 O183 1.270 . S
C169 O184 1.251 . S
C169 O185 1.251 . S
C170 Eu171 2.835 . S
C170 C172 1.500 . S
C170 O186 1.257 . S
C170 O187 1.260 . S
Eu171 C170 2.835 . S
Eu171 O183 2.355 . S
Eu171 O185 2.374 . S
Eu171 O186 2.473 . S
Eu171 O187 2.480 . S
Eu171 O188 2.430 . S
Eu171 O189 2.670 . S
Eu171 O190 2.394 . S
C172 C170 1.500 . S
C172 C173 1.377 . S
C172 C177 1.377 . S
C173 C172 1.377 . S
C173 C174 1.395 . S
C173 H196 0.931 . S
C174 C173 1.395 . S
C174 C175 1.383 . S
C174 H197 0.931 . S
C175 C174 1.383 . S
C175 C176 1.394 . S
C176 C175 1.394 . S
C176 C177 1.378 . S
C176 H198 0.931 . S
C177 C172 1.377 . S
C177 C176 1.378 . S
C177 H199 0.931 . S
C178 O188 1.259 . S
C178 O189 1.270 . S
C179 O190 1.251 . S
C179 O191 1.251 . S
O180 C160 1.257 . S
O180 Eu161 2.473 . S
O181 C160 1.260 . S
O181 Eu161 2.480 . S
O182 Eu161 2.430 . S
O182 C168 1.259 . S
O183 Eu161 2.670 . S
O183 C168 1.270 . S
O183 Eu171 2.355 . S
O184 Eu161 2.394 . S
O184 C169 1.251 . S
O185 C169 1.251 . S
O185 Eu171 2.374 . S
O186 C170 1.257 . S
O186 Eu171 2.473 . S
O187 C170 1.260 . S
O187 Eu171 2.480 . S
O188 Eu171 2.430 . S
O188 C178 1.259 . S
O189 Eu161 2.355 . S
O189 Eu171 2.670 . S
O189 C178 1.270 . S
O190 Eu171 2.394 . S
O190 C179 1.251 . S
O191 Eu161 2.374 . S
O191 C179 1.251 . S
H192 C163 0.931 . S
H193 C164 0.931 1_655 S
H194 C166 0.931 . S
H195 C167 0.931 . S
H196 C173 0.931 . S
H197 C174 0.931 . S
H198 C176 0.931 . S
H199 C177 0.931 . S
C200 Eu201 2.835 . S
C200 C202 1.500 . S
C200 O220 1.257 . S
C200 O221 1.260 . S
Eu201 C200 2.835 . S
Eu201 O220 2.473 . S
Eu201 O221 2.480 . S
Eu201 O222 2.430 . S
Eu201 O223 2.670 . S
Eu201 O224 2.394 . S
Eu201 O229 2.355 . S
Eu201 O231 2.374 . S
C202 C200 1.500 . S
C202 C203 1.377 . S
C202 C207 1.377 . S
C203 C202 1.377 . S
C203 C204 1.395 . S
C203 H232 0.931 . S
C204 C203 1.395 . S
C204 C205 1.383 . S
C204 H233 0.931 . S
C205 C204 1.383 . S
C205 C206 1.394 . S
C206 C205 1.394 . S
C206 C207 1.378 . S
C206 H234 0.931 . S
C207 C202 1.377 . S
C207 C206 1.378 . S
C207 H235 0.931 . S
C208 O222 1.259 . S
C208 O223 1.270 . S
C209 O224 1.251 . S
C209 O225 1.251 . S
C210 Eu211 2.835 . S
C210 C212 1.500 . S
C210 O226 1.257 . S
C210 O227 1.260 . S
Eu211 C210 2.835 . S
Eu211 O223 2.355 . S
Eu211 O225 2.374 . S
Eu211 O226 2.473 . S
Eu211 O227 2.480 . S
Eu211 O228 2.430 . S
Eu211 O229 2.670 . S
Eu211 O230 2.394 . S
C212 C210 1.500 . S
C212 C213 1.377 . S
C212 C217 1.377 . S
C213 C212 1.377 . S
C213 C214 1.395 . S
C213 H236 0.931 . S
C214 C213 1.395 . S
C214 C215 1.383 . S
C214 H237 0.931 1_565 S
C215 C214 1.383 . S
C215 C216 1.394 . S
C216 C215 1.394 . S
C216 C217 1.378 . S
C216 H238 0.931 . S
C217 C212 1.377 . S
C217 C216 1.378 . S
C217 H239 0.931 . S
C218 O228 1.259 . S
C218 O229 1.270 . S
C219 O230 1.251 . S
C219 O231 1.251 . S
O220 C200 1.257 . S
O220 Eu201 2.473 . S
O221 C200 1.260 . S
O221 Eu201 2.480 . S
O222 Eu201 2.430 . S
O222 C208 1.259 . S
O223 Eu201 2.670 . S
O223 C208 1.270 . S
O223 Eu211 2.355 . S
O224 Eu201 2.394 . S
O224 C209 1.251 . S
O225 C209 1.251 . S
O225 Eu211 2.374 . S
O226 C210 1.257 . S
O226 Eu211 2.473 . S
O227 C210 1.260 . S
O227 Eu211 2.480 . S
O228 Eu211 2.430 . S
O228 C218 1.259 . S
O229 Eu201 2.355 . S
O229 Eu211 2.670 . S
O229 C218 1.270 . S
O230 Eu211 2.394 . S
O230 C219 1.251 . S
O231 Eu201 2.374 . S
O231 C219 1.251 . S
H232 C203 0.931 . S
H233 C204 0.931 . S
H234 C206 0.931 . S
H235 C207 0.931 . S
H236 C213 0.931 . S
H237 C214 0.931 1_545 S
H238 C216 0.931 . S
H239 C217 0.931 . S
C240 Eu241 2.835 . S
C240 C242 1.500 . S
C240 O260 1.257 . S
C240 O261 1.260 . S
Eu241 C240 2.835 . S
Eu241 O260 2.473 . S
Eu241 O261 2.480 . S
Eu241 O262 2.430 . S
Eu241 O263 2.670 . S
Eu241 O264 2.394 . S
Eu241 O269 2.355 . S
Eu241 O271 2.374 . S
C242 C240 1.500 . S
C242 C243 1.377 . S
C242 C247 1.377 . S
C243 C242 1.377 . S
C243 C244 1.395 . S
C243 H272 0.931 . S
C244 C243 1.395 . S
C244 C245 1.383 . S
C244 H273 0.931 . S
C245 C244 1.383 . S
C245 C246 1.394 . S
C246 C245 1.394 . S
C246 C247 1.378 . S
C246 H274 0.931 . S
C247 C242 1.377 . S
C247 C246 1.378 . S
C247 H275 0.931 . S
C248 O262 1.259 . S
C248 O263 1.270 . S
C249 O264 1.251 . S
C249 O265 1.251 . S
C250 Eu251 2.835 . S
C250 C252 1.500 . S
C250 O266 1.257 . S
C250 O267 1.260 . S
Eu251 C250 2.835 . S
Eu251 O263 2.355 . S
Eu251 O265 2.374 . S
Eu251 O266 2.473 . S
Eu251 O267 2.480 . S
Eu251 O268 2.430 . S
Eu251 O269 2.670 . S
Eu251 O270 2.394 . S
C252 C250 1.500 . S
C252 C253 1.377 . S
C252 C257 1.377 . S
C253 C252 1.377 . S
C253 C254 1.395 . S
C253 H276 0.931 . S
C254 C253 1.395 . S
C254 C255 1.383 . S
C254 H277 0.931 . S
C255 C254 1.383 . S
C255 C256 1.394 . S
C256 C255 1.394 . S
C256 C257 1.378 . S
C256 H278 0.931 . S
C257 C252 1.377 . S
C257 C256 1.378 . S
C257 H279 0.931 . S
C258 O268 1.259 . S
C258 O269 1.270 . S
C259 O270 1.251 . S
C259 O271 1.251 . S
O260 C240 1.257 . S
O260 Eu241 2.473 . S
O261 C240 1.260 . S
O261 Eu241 2.480 . S
O262 Eu241 2.430 . S
O262 C248 1.259 . S
O263 Eu241 2.670 . S
O263 C248 1.270 . S
O263 Eu251 2.355 . S
O264 Eu241 2.394 . S
O264 C249 1.251 . S
O265 C249 1.251 . S
O265 Eu251 2.374 . S
O266 C250 1.257 . S
O266 Eu251 2.473 . S
O267 C250 1.260 . S
O267 Eu251 2.480 . S
O268 Eu251 2.430 . S
O268 C258 1.259 . S
O269 Eu241 2.355 . S
O269 Eu251 2.670 . S
O269 C258 1.270 . S
O270 Eu251 2.394 . S
O270 C259 1.251 . S
O271 Eu241 2.374 . S
O271 C259 1.251 . S
H272 C243 0.931 . S
H273 C244 0.931 . S
H274 C246 0.931 . S
H275 C247 0.931 . S
H276 C253 0.931 . S
H277 C254 0.931 . S
H278 C256 0.931 . S
H279 C257 0.931 . S
C280 Eu281 2.835 . S
C280 C282 1.500 . S
C280 O300 1.257 . S
C280 O301 1.260 . S
Eu281 C280 2.835 . S
Eu281 O300 2.473 . S
Eu281 O301 2.480 . S
Eu281 O302 2.430 . S
Eu281 O303 2.670 . S
Eu281 O304 2.394 . S
Eu281 O309 2.355 . S
Eu281 O311 2.374 1_556 S
C282 C280 1.500 . S
C282 C283 1.377 . S
C282 C287 1.377 . S
C283 C282 1.377 . S
C283 C284 1.395 . S
C283 H312 0.931 . S
C284 C283 1.395 . S
C284 C285 1.383 . S
C284 H313 0.931 . S
C285 C284 1.383 . S
C285 C286 1.394 . S
C286 C285 1.394 . S
C286 C287 1.378 . S
C286 H314 0.931 . S
C287 C282 1.377 . S
C287 C286 1.378 . S
C287 H315 0.931 . S
C288 O302 1.259 . S
C288 O303 1.270 . S
C289 O304 1.251 . S
C289 O305 1.251 . S
C290 Eu291 2.835 1_554 S
C290 C292 1.500 . S
C290 O306 1.257 . S
C290 O307 1.260 . S
Eu291 C290 2.835 1_556 S
Eu291 O303 2.355 . S
Eu291 O305 2.374 . S
Eu291 O306 2.473 1_556 S
Eu291 O307 2.480 1_556 S
Eu291 O308 2.430 . S
Eu291 O309 2.670 . S
Eu291 O310 2.394 1_556 S
C292 C290 1.500 . S
C292 C293 1.377 . S
C292 C297 1.377 . S
C293 C292 1.377 . S
C293 C294 1.395 . S
C293 H316 0.931 . S
C294 C293 1.395 . S
C294 C295 1.383 . S
C294 H317 0.931 1_545 S
C295 C294 1.383 . S
C295 C296 1.394 . S
C296 C295 1.394 . S
C296 C297 1.378 . S
C296 H318 0.931 . S
C297 C292 1.377 . S
C297 C296 1.378 . S
C297 H319 0.931 . S
C298 O308 1.259 . S
C298 O309 1.270 . S
C299 O310 1.251 . S
C299 O311 1.251 . S
O300 C280 1.257 . S
O300 Eu281 2.473 . S
O301 C280 1.260 . S
O301 Eu281 2.480 . S
O302 Eu281 2.430 . S
O302 C288 1.259 . S
O303 Eu281 2.670 . S
O303 C288 1.270 . S
O303 Eu291 2.355 . S
O304 Eu281 2.394 . S
O304 C289 1.251 . S
O305 C289 1.251 . S
O305 Eu291 2.374 . S
O306 C290 1.257 . S
O306 Eu291 2.473 1_554 S
O307 C290 1.260 . S
O307 Eu291 2.480 1_554 S
O308 Eu291 2.430 . S
O308 C298 1.259 . S
O309 Eu281 2.355 . S
O309 Eu291 2.670 . S
O309 C298 1.270 . S
O310 Eu291 2.394 1_554 S
O310 C299 1.251 . S
O311 Eu281 2.374 1_554 S
O311 C299 1.251 . S
H312 C283 0.931 . S
H313 C284 0.931 . S
H314 C286 0.931 . S
H315 C287 0.931 . S
H316 C293 0.931 . S
H317 C294 0.931 1_565 S
H318 C296 0.931 . S
H319 C297 0.931 . S
C320 Eu321 2.835 . S
C320 C322 1.500 . S
C320 O340 1.257 . S
C320 O341 1.260 . S
Eu321 C320 2.835 . S
Eu321 O340 2.473 . S
Eu321 O341 2.480 . S
Eu321 O342 2.430 . S
Eu321 O343 2.670 . S
Eu321 O344 2.394 . S
Eu321 O349 2.355 . S
Eu321 O351 2.374 . S
C322 C320 1.500 . S
C322 C323 1.377 . S
C322 C327 1.377 . S
C323 C322 1.377 . S
C323 C324 1.395 . S
C323 H352 0.931 . S
C324 C323 1.395 . S
C324 C325 1.383 . S
C324 H353 0.931 . S
C325 C324 1.383 . S
C325 C326 1.394 . S
C326 C325 1.394 . S
C326 C327 1.378 . S
C326 H354 0.931 . S
C327 C322 1.377 . S
C327 C326 1.378 . S
C327 H355 0.931 . S
C328 O342 1.259 . S
C328 O343 1.270 . S
C329 O344 1.251 . S
C329 O345 1.251 . S
C330 Eu331 2.835 . S
C330 C332 1.500 . S
C330 O346 1.257 . S
C330 O347 1.260 . S
Eu331 C330 2.835 . S
Eu331 O343 2.355 . S
Eu331 O345 2.374 . S
Eu331 O346 2.473 . S
Eu331 O347 2.480 . S
Eu331 O348 2.430 . S
Eu331 O349 2.670 . S
Eu331 O350 2.394 . S
C332 C330 1.500 . S
C332 C333 1.377 . S
C332 C337 1.377 . S
C333 C332 1.377 . S
C333 C334 1.395 . S
C333 H356 0.931 . S
C334 C333 1.395 . S
C334 C335 1.383 . S
C334 H357 0.931 1_655 S
C335 C334 1.383 . S
C335 C336 1.394 . S
C336 C335 1.394 . S
C336 C337 1.378 . S
C336 H358 0.931 . S
C337 C332 1.377 . S
C337 C336 1.378 . S
C337 H359 0.931 . S
C338 O348 1.259 . S
C338 O349 1.270 . S
C339 O350 1.251 . S
C339 O351 1.251 . S
O340 C320 1.257 . S
O340 Eu321 2.473 . S
O341 C320 1.260 . S
O341 Eu321 2.480 . S
O342 Eu321 2.430 . S
O342 C328 1.259 . S
O343 Eu321 2.670 . S
O343 C328 1.270 . S
O343 Eu331 2.355 . S
O344 Eu321 2.394 . S
O344 C329 1.251 . S
O345 C329 1.251 . S
O345 Eu331 2.374 . S
O346 C330 1.257 . S
O346 Eu331 2.473 . S
O347 C330 1.260 . S
O347 Eu331 2.480 . S
O348 Eu331 2.430 . S
O348 C338 1.259 . S
O349 Eu321 2.355 . S
O349 Eu331 2.670 . S
O349 C338 1.270 . S
O350 Eu331 2.394 . S
O350 C339 1.251 . S
O351 Eu321 2.374 . S
O351 C339 1.251 . S
H352 C323 0.931 . S
H353 C324 0.931 . S
H354 C326 0.931 . S
H355 C327 0.931 . S
H356 C333 0.931 . S
H357 C334 0.931 1_455 S
H358 C336 0.931 . S
H359 C337 0.931 . S
C360 Eu361 2.835 . S
C360 C362 1.500 . S
C360 O380 1.257 . S
C360 O381 1.260 . S
Eu361 C360 2.835 . S
Eu361 O380 2.473 . S
Eu361 O381 2.480 . S
Eu361 O382 2.430 . S
Eu361 O383 2.670 . S
Eu361 O384 2.394 . S
Eu361 O389 2.355 . S
Eu361 O391 2.374 . S
C362 C360 1.500 . S
C362 C363 1.377 . S
C362 C367 1.377 . S
C363 C362 1.377 . S
C363 C364 1.395 . S
C363 H392 0.931 . S
C364 C363 1.395 . S
C364 C365 1.383 . S
C364 H393 0.931 1_545 S
C365 C364 1.383 . S
C365 C366 1.394 . S
C366 C365 1.394 . S
C366 C367 1.378 . S
C366 H394 0.931 . S
C367 C362 1.377 . S
C367 C366 1.378 . S
C367 H395 0.931 . S
C368 O382 1.259 . S
C368 O383 1.270 . S
C369 O384 1.251 . S
C369 O385 1.251 . S
C370 Eu371 2.835 . S
C370 C372 1.500 . S
C370 O386 1.257 . S
C370 O387 1.260 . S
Eu371 C370 2.835 . S
Eu371 O383 2.355 . S
Eu371 O385 2.374 . S
Eu371 O386 2.473 . S
Eu371 O387 2.480 . S
Eu371 O388 2.430 . S
Eu371 O389 2.670 . S
Eu371 O390 2.394 . S
C372 C370 1.500 . S
C372 C373 1.377 . S
C372 C377 1.377 . S
C373 C372 1.377 . S
C373 C374 1.395 . S
C373 H396 0.931 . S
C374 C373 1.395 . S
C374 C375 1.383 . S
C374 H397 0.931 . S
C375 C374 1.383 . S
C375 C376 1.394 . S
C376 C375 1.394 . S
C376 C377 1.378 . S
C376 H398 0.931 . S
C377 C372 1.377 . S
C377 C376 1.378 . S
C377 H399 0.931 . S
C378 O388 1.259 . S
C378 O389 1.270 . S
C379 O390 1.251 . S
C379 O391 1.251 . S
O380 C360 1.257 . S
O380 Eu361 2.473 . S
O381 C360 1.260 . S
O381 Eu361 2.480 . S
O382 Eu361 2.430 . S
O382 C368 1.259 . S
O383 Eu361 2.670 . S
O383 C368 1.270 . S
O383 Eu371 2.355 . S
O384 Eu361 2.394 . S
O384 C369 1.251 . S
O385 C369 1.251 . S
O385 Eu371 2.374 . S
O386 C370 1.257 . S
O386 Eu371 2.473 . S
O387 C370 1.260 . S
O387 Eu371 2.480 . S
O388 Eu371 2.430 . S
O388 C378 1.259 . S
O389 Eu361 2.355 . S
O389 Eu371 2.670 . S
O389 C378 1.270 . S
O390 Eu371 2.394 . S
O390 C379 1.251 . S
O391 Eu361 2.374 . S
O391 C379 1.251 . S
H392 C363 0.931 . S
H393 C364 0.931 1_565 S
H394 C366 0.931 . S
H395 C367 0.931 . S
H396 C373 0.931 . S
H397 C374 0.931 . S
H398 C376 0.931 . S
H399 C377 0.931 . S
C400 Eu401 2.835 . S
C400 C402 1.500 . S
C400 O420 1.257 . S
C400 O421 1.260 . S
Eu401 C400 2.835 . S
Eu401 O420 2.473 . S
Eu401 O421 2.480 . S
Eu401 O422 2.430 . S
Eu401 O423 2.670 . S
Eu401 O424 2.394 . S
Eu401 O429 2.355 . S
Eu401 O431 2.374 . S
C402 C400 1.500 . S
C402 C403 1.377 . S
C402 C407 1.377 . S
C403 C402 1.377 . S
C403 C404 1.395 . S
C403 H432 0.931 . S
C404 C403 1.395 . S
C404 C405 1.383 . S
C404 H433 0.931 . S
C405 C404 1.383 . S
C405 C406 1.394 . S
C406 C405 1.394 . S
C406 C407 1.378 . S
C406 H434 0.931 . S
C407 C402 1.377 . S
C407 C406 1.378 . S
C407 H435 0.931 . S
C408 O422 1.259 . S
C408 O423 1.270 . S
C409 O424 1.251 . S
C409 O425 1.251 . S
C410 Eu411 2.835 . S
C410 C412 1.500 . S
C410 O426 1.257 . S
C410 O427 1.260 . S
Eu411 C410 2.835 . S
Eu411 O423 2.355 . S
Eu411 O425 2.374 . S
Eu411 O426 2.473 . S
Eu411 O427 2.480 . S
Eu411 O428 2.430 . S
Eu411 O429 2.670 . S
Eu411 O430 2.394 . S
C412 C410 1.500 . S
C412 C413 1.377 . S
C412 C417 1.377 . S
C413 C412 1.377 . S
C413 C414 1.395 . S
C413 H436 0.931 . S
C414 C413 1.395 . S
C414 C415 1.383 . S
C414 H437 0.931 . S
C415 C414 1.383 . S
C415 C416 1.394 . S
C416 C415 1.394 . S
C416 C417 1.378 . S
C416 H438 0.931 . S
C417 C412 1.377 . S
C417 C416 1.378 . S
C417 H439 0.931 . S
C418 O428 1.259 . S
C418 O429 1.270 . S
C419 O430 1.251 . S
C419 O431 1.251 . S
O420 C400 1.257 . S
O420 Eu401 2.473 . S
O421 C400 1.260 . S
O421 Eu401 2.480 . S
O422 Eu401 2.430 . S
O422 C408 1.259 . S
O423 Eu401 2.670 . S
O423 C408 1.270 . S
O423 Eu411 2.355 . S
O424 Eu401 2.394 . S
O424 C409 1.251 . S
O425 C409 1.251 . S
O425 Eu411 2.374 . S
O426 C410 1.257 . S
O426 Eu411 2.473 . S
O427 C410 1.260 . S
O427 Eu411 2.480 . S
O428 Eu411 2.430 . S
O428 C418 1.259 . S
O429 Eu401 2.355 . S
O429 Eu411 2.670 . S
O429 C418 1.270 . S
O430 Eu411 2.394 . S
O430 C419 1.251 . S
O431 Eu401 2.374 . S
O431 C419 1.251 . S
H432 C403 0.931 . S
H433 C404 0.931 . S
H434 C406 0.931 . S
H435 C407 0.931 . S
H436 C413 0.931 . S
H437 C414 0.931 . S
H438 C416 0.931 . S
H439 C417 0.931 . S
C440 Eu441 2.835 1_554 S
C440 C442 1.500 . S
C440 O460 1.257 . S
C440 O461 1.260 . S
Eu441 C440 2.835 1_556 S
Eu441 O460 2.473 1_556 S
Eu441 O461 2.480 1_556 S
Eu441 O462 2.430 . S
Eu441 O463 2.670 . S
Eu441 O464 2.394 1_556 S
Eu441 O469 2.355 . S
Eu441 O471 2.374 . S
C442 C440 1.500 . S
C442 C443 1.377 . S
C442 C447 1.377 . S
C443 C442 1.377 . S
C443 C444 1.395 . S
C443 H472 0.931 . S
C444 C443 1.395 . S
C444 C445 1.383 . S
C444 H473 0.931 1_565 S
C445 C444 1.383 . S
C445 C446 1.394 . S
C446 C445 1.394 . S
C446 C447 1.378 . S
C446 H474 0.931 . S
C447 C442 1.377 . S
C447 C446 1.378 . S
C447 H475 0.931 . S
C448 O462 1.259 . S
C448 O463 1.270 . S
C449 O464 1.251 . S
C449 O465 1.251 . S
C450 Eu451 2.835 . S
C450 C452 1.500 . S
C450 O466 1.257 . S
C450 O467 1.260 . S
Eu451 C450 2.835 . S
Eu451 O463 2.355 . S
Eu451 O465 2.374 1_556 S
Eu451 O466 2.473 . S
Eu451 O467 2.480 . S
Eu451 O468 2.430 . S
Eu451 O469 2.670 . S
Eu451 O470 2.394 . S
C452 C450 1.500 . S
C452 C453 1.377 . S
C452 C457 1.377 . S
C453 C452 1.377 . S
C453 C454 1.395 . S
C453 H476 0.931 . S
C454 C453 1.395 . S
C454 C455 1.383 . S
C454 H477 0.931 . S
C455 C454 1.383 . S
C455 C456 1.394 . S
C456 C455 1.394 . S
C456 C457 1.378 . S
C456 H478 0.931 . S
C457 C452 1.377 . S
C457 C456 1.378 . S
C457 H479 0.931 . S
C458 O468 1.259 . S
C458 O469 1.270 . S
C459 O470 1.251 . S
C459 O471 1.251 . S
O460 C440 1.257 . S
O460 Eu441 2.473 1_554 S
O461 C440 1.260 . S
O461 Eu441 2.480 1_554 S
O462 Eu441 2.430 . S
O462 C448 1.259 . S
O463 Eu441 2.670 . S
O463 C448 1.270 . S
O463 Eu451 2.355 . S
O464 Eu441 2.394 1_554 S
O464 C449 1.251 . S
O465 C449 1.251 . S
O465 Eu451 2.374 1_554 S
O466 C450 1.257 . S
O466 Eu451 2.473 . S
O467 C450 1.260 . S
O467 Eu451 2.480 . S
O468 Eu451 2.430 . S
O468 C458 1.259 . S
O469 Eu441 2.355 . S
O469 Eu451 2.670 . S
O469 C458 1.270 . S
O470 Eu451 2.394 . S
O470 C459 1.251 . S
O471 Eu441 2.374 . S
O471 C459 1.251 . S
H472 C443 0.931 . S
H473 C444 0.931 1_545 S
H474 C446 0.931 . S
H475 C447 0.931 . S
H476 C453 0.931 . S
H477 C454 0.931 . S
H478 C456 0.931 . S
H479 C457 0.931 . S
C480 Eu481 2.835 . S
C480 C482 1.500 . S
C480 O500 1.257 . S
C480 O501 1.260 . S
Eu481 C480 2.835 . S
Eu481 O500 2.473 . S
Eu481 O501 2.480 . S
Eu481 O502 2.430 . S
Eu481 O503 2.670 . S
Eu481 O504 2.394 . S
Eu481 O509 2.355 . S
Eu481 O511 2.374 . S
C482 C480 1.500 . S
C482 C483 1.377 . S
C482 C487 1.377 . S
C483 C482 1.377 . S
C483 C484 1.395 . S
C483 H512 0.931 . S
C484 C483 1.395 . S
C484 C485 1.383 . S
C484 H513 0.931 . S
C485 C484 1.383 . S
C485 C486 1.394 . S
C486 C485 1.394 . S
C486 C487 1.378 . S
C486 H514 0.931 . S
C487 C482 1.377 . S
C487 C486 1.378 . S
C487 H515 0.931 . S
C488 O502 1.259 . S
C488 O503 1.270 . S
C489 O504 1.251 . S
C489 O505 1.251 . S
C490 Eu491 2.835 . S
C490 C492 1.500 . S
C490 O506 1.257 . S
C490 O507 1.260 . S
Eu491 C490 2.835 . S
Eu491 O503 2.355 . S
Eu491 O505 2.374 . S
Eu491 O506 2.473 . S
Eu491 O507 2.480 . S
Eu491 O508 2.430 . S
Eu491 O509 2.670 . S
Eu491 O510 2.394 . S
C492 C490 1.500 . S
C492 C493 1.377 . S
C492 C497 1.377 . S
C493 C492 1.377 . S
C493 C494 1.395 . S
C493 H516 0.931 . S
C494 C493 1.395 . S
C494 C495 1.383 . S
C494 H517 0.931 1_655 S
C495 C494 1.383 . S
C495 C496 1.394 . S
C496 C495 1.394 . S
C496 C497 1.378 . S
C496 H518 0.931 . S
C497 C492 1.377 . S
C497 C496 1.378 . S
C497 H519 0.931 . S
C498 O508 1.259 . S
C498 O509 1.270 . S
C499 O510 1.251 . S
C499 O511 1.251 . S
O500 C480 1.257 . S
O500 Eu481 2.473 . S
O501 C480 1.260 . S
O501 Eu481 2.480 . S
O502 Eu481 2.430 . S
O502 C488 1.259 . S
O503 Eu481 2.670 . S
O503 C488 1.270 . S
O503 Eu491 2.355 . S
O504 Eu481 2.394 . S
O504 C489 1.251 . S
O505 C489 1.251 . S
O505 Eu491 2.374 . S
O506 C490 1.257 . S
O506 Eu491 2.473 . S
O507 C490 1.260 . S
O507 Eu491 2.480 . S
O508 Eu491 2.430 . S
O508 C498 1.259 . S
O509 Eu481 2.355 . S
O509 Eu491 2.670 . S
O509 C498 1.270 . S
O510 Eu491 2.394 . S
O510 C499 1.251 . S
O511 Eu481 2.374 . S
O511 C499 1.251 . S
H512 C483 0.931 . S
H513 C484 0.931 . S
H514 C486 0.931 . S
H515 C487 0.931 . S
H516 C493 0.931 . S
H517 C494 0.931 1_455 S
H518 C496 0.931 . S
H519 C497 0.931 . S
C520 Eu521 2.835 . S
C520 C522 1.500 . S
C520 O540 1.257 . S
C520 O541 1.260 . S
Eu521 C520 2.835 . S
Eu521 O540 2.473 . S
Eu521 O541 2.480 . S
Eu521 O542 2.430 . S
Eu521 O543 2.670 . S
Eu521 O544 2.394 . S
Eu521 O549 2.355 . S
Eu521 O551 2.374 . S
C522 C520 1.500 . S
C522 C523 1.377 . S
C522 C527 1.377 . S
C523 C522 1.377 . S
C523 C524 1.395 . S
C523 H552 0.931 . S
C524 C523 1.395 . S
C524 C525 1.383 . S
C524 H553 0.931 1_545 S
C525 C524 1.383 . S
C525 C526 1.394 . S
C526 C525 1.394 . S
C526 C527 1.378 . S
C526 H554 0.931 . S
C527 C522 1.377 . S
C527 C526 1.378 . S
C527 H555 0.931 . S
C528 O542 1.259 . S
C528 O543 1.270 . S
C529 O544 1.251 . S
C529 O545 1.251 . S
C530 Eu531 2.835 . S
C530 C532 1.500 . S
C530 O546 1.257 . S
C530 O547 1.260 . S
Eu531 C530 2.835 . S
Eu531 O543 2.355 . S
Eu531 O545 2.374 . S
Eu531 O546 2.473 . S
Eu531 O547 2.480 . S
Eu531 O548 2.430 . S
Eu531 O549 2.670 . S
Eu531 O550 2.394 . S
C532 C530 1.500 . S
C532 C533 1.377 . S
C532 C537 1.377 . S
C533 C532 1.377 . S
C533 C534 1.395 . S
C533 H556 0.931 . S
C534 C533 1.395 . S
C534 C535 1.383 . S
C534 H557 0.931 . S
C535 C534 1.383 . S
C535 C536 1.394 . S
C536 C535 1.394 . S
C536 C537 1.378 . S
C536 H558 0.931 . S
C537 C532 1.377 . S
C537 C536 1.378 . S
C537 H559 0.931 . S
C538 O548 1.259 . S
C538 O549 1.270 . S
C539 O550 1.251 . S
C539 O551 1.251 . S
O540 C520 1.257 . S
O540 Eu521 2.473 . S
O541 C520 1.260 . S
O541 Eu521 2.480 . S
O542 Eu521 2.430 . S
O542 C528 1.259 . S
O543 Eu521 2.670 . S
O543 C528 1.270 . S
O543 Eu531 2.355 . S
O544 Eu521 2.394 . S
O544 C529 1.251 . S
O545 C529 1.251 . S
O545 Eu531 2.374 . S
O546 C530 1.257 . S
O546 Eu531 2.473 . S
O547 C530 1.260 . S
O547 Eu531 2.480 . S
O548 Eu531 2.430 . S
O548 C538 1.259 . S
O549 Eu521 2.355 . S
O549 Eu531 2.670 . S
O549 C538 1.270 . S
O550 Eu531 2.394 . S
O550 C539 1.251 . S
O551 Eu521 2.374 . S
O551 C539 1.251 . S
H552 C523 0.931 . S
H553 C524 0.931 1_565 S
H554 C526 0.931 . S
H555 C527 0.931 . S
H556 C533 0.931 . S
H557 C534 0.931 . S
H558 C536 0.931 . S
H559 C537 0.931 . S
C560 Eu561 2.835 . S
C560 C562 1.500 . S
C560 O580 1.257 . S
C560 O581 1.260 . S
Eu561 C560 2.835 . S
Eu561 O580 2.473 . S
Eu561 O581 2.480 . S
Eu561 O582 2.430 . S
Eu561 O583 2.670 . S
Eu561 O584 2.394 . S
Eu561 O589 2.355 . S
Eu561 O591 2.374 . S
C562 C560 1.500 . S
C562 C563 1.377 . S
C562 C567 1.377 . S
C563 C562 1.377 . S
C563 C564 1.395 . S
C563 H592 0.931 . S
C564 C563 1.395 . S
C564 C565 1.383 . S
C564 H593 0.931 . S
C565 C564 1.383 . S
C565 C566 1.394 . S
C566 C565 1.394 . S
C566 C567 1.378 . S
C566 H594 0.931 . S
C567 C562 1.377 . S
C567 C566 1.378 . S
C567 H595 0.931 . S
C568 O582 1.259 . S
C568 O583 1.270 . S
C569 O584 1.251 . S
C569 O585 1.251 . S
C570 Eu571 2.835 . S
C570 C572 1.500 . S
C570 O586 1.257 . S
C570 O587 1.260 . S
Eu571 C570 2.835 . S
Eu571 O583 2.355 . S
Eu571 O585 2.374 . S
Eu571 O586 2.473 . S
Eu571 O587 2.480 . S
Eu571 O588 2.430 . S
Eu571 O589 2.670 . S
Eu571 O590 2.394 . S
C572 C570 1.500 . S
C572 C573 1.377 . S
C572 C577 1.377 . S
C573 C572 1.377 . S
C573 C574 1.395 . S
C573 H596 0.931 . S
C574 C573 1.395 . S
C574 C575 1.383 . S
C574 H597 0.931 . S
C575 C574 1.383 . S
C575 C576 1.394 . S
C576 C575 1.394 . S
C576 C577 1.378 . S
C576 H598 0.931 . S
C577 C572 1.377 . S
C577 C576 1.378 . S
C577 H599 0.931 . S
C578 O588 1.259 . S
C578 O589 1.270 . S
C579 O590 1.251 . S
C579 O591 1.251 . S
O580 C560 1.257 . S
O580 Eu561 2.473 . S
O581 C560 1.260 . S
O581 Eu561 2.480 . S
O582 Eu561 2.430 . S
O582 C568 1.259 . S
O583 Eu561 2.670 . S
O583 C568 1.270 . S
O583 Eu571 2.355 . S
O584 Eu561 2.394 . S
O584 C569 1.251 . S
O585 C569 1.251 . S
O585 Eu571 2.374 . S
O586 C570 1.257 . S
O586 Eu571 2.473 . S
O587 C570 1.260 . S
O587 Eu571 2.480 . S
O588 Eu571 2.430 . S
O588 C578 1.259 . S
O589 Eu561 2.355 . S
O589 Eu571 2.670 . S
O589 C578 1.270 . S
O590 Eu571 2.394 . S
O590 C579 1.251 . S
O591 Eu561 2.374 . S
O591 C579 1.251 . S
H592 C563 0.931 . S
H593 C564 0.931 . S
H594 C566 0.931 . S
H595 C567 0.931 . S
H596 C573 0.931 . S
H597 C574 0.931 . S
H598 C576 0.931 . S
H599 C577 0.931 . S
C600 Eu601 2.835 1_556 S
C600 C602 1.500 . S
C600 O620 1.257 . S
C600 O621 1.260 . S
Eu601 C600 2.835 1_554 S
Eu601 O620 2.473 1_554 S
Eu601 O621 2.480 1_554 S
Eu601 O622 2.430 . S
Eu601 O623 2.670 . S
Eu601 O624 2.394 1_554 S
Eu601 O629 2.355 . S
Eu601 O631 2.374 . S
C602 C600 1.500 . S
C602 C603 1.377 . S
C602 C607 1.377 . S
C603 C602 1.377 . S
C603 C604 1.395 . S
C603 H632 0.931 . S
C604 C603 1.395 . S
C604 C605 1.383 . S
C604 H633 0.931 1_565 S
C605 C604 1.383 . S
C605 C606 1.394 . S
C606 C605 1.394 . S
C606 C607 1.378 . S
C606 H634 0.931 . S
C607 C602 1.377 . S
C607 C606 1.378 . S
C607 H635 0.931 . S
C608 O622 1.259 . S
C608 O623 1.270 . S
C609 O624 1.251 . S
C609 O625 1.251 . S
C610 Eu611 2.835 . S
C610 C612 1.500 . S
C610 O626 1.257 . S
C610 O627 1.260 . S
Eu611 C610 2.835 . S
Eu611 O623 2.355 . S
Eu611 O625 2.374 1_554 S
Eu611 O626 2.473 . S
Eu611 O627 2.480 . S
Eu611 O628 2.430 . S
Eu611 O629 2.670 . S
Eu611 O630 2.394 . S
C612 C610 1.500 . S
C612 C613 1.377 . S
C612 C617 1.377 . S
C613 C612 1.377 . S
C613 C614 1.395 . S
C613 H636 0.931 . S
C614 C613 1.395 . S
C614 C615 1.383 . S
C614 H637 0.931 . S
C615 C614 1.383 . S
C615 C616 1.394 . S
C616 C615 1.394 . S
C616 C617 1.378 . S
C616 H638 0.931 . S
C617 C612 1.377 . S
C617 C616 1.378 . S
C617 H639 0.931 . S
C618 O628 1.259 . S
C618 O629 1.270 . S
C619 O630 1.251 . S
C619 O631 1.251 . S
O620 C600 1.257 . S
O620 Eu601 2.473 1_556 S
O621 C600 1.260 . S
O621 Eu601 2.480 1_556 S
O622 Eu601 2.430 . S
O622 C608 1.259 . S
O623 Eu601 2.670 . S
O623 C608 1.270 . S
O623 Eu611 2.355 . S
O624 Eu601 2.394 1_556 S
O624 C609 1.251 . S
O625 C609 1.251 . S
O625 Eu611 2.374 1_556 S
O626 C610 1.257 . S
O626 Eu611 2.473 . S
O627 C610 1.260 . S
O627 Eu611 2.480 . S
O628 Eu611 2.430 . S
O628 C618 1.259 . S
O629 Eu601 2.355 . S
O629 Eu611 2.670 . S
O629 C618 1.270 . S
O630 Eu611 2.394 . S
O630 C619 1.251 . S
O631 Eu601 2.374 . S
O631 C619 1.251 . S
H632 C603 0.931 . S
H633 C604 0.931 1_545 S
H634 C606 0.931 . S
H635 C607 0.931 . S
H636 C613 0.931 . S
H637 C614 0.931 . S
H638 C616 0.931 . S
H639 C617 0.931 . S
C640 Eu641 2.835 . S
C640 C642 1.500 . S
C640 O660 1.257 . S
C640 O661 1.260 . S
Eu641 C640 2.835 . S
Eu641 O660 2.473 . S
Eu641 O661 2.480 . S
Eu641 O662 2.430 . S
Eu641 O663 2.670 . S
Eu641 O664 2.394 . S
Eu641 O669 2.355 . S
Eu641 O671 2.374 . S
C642 C640 1.500 . S
C642 C643 1.377 . S
C642 C647 1.377 . S
C643 C642 1.377 . S
C643 C644 1.395 . S
C643 H672 0.931 . S
C644 C643 1.395 . S
C644 C645 1.383 . S
C644 H673 0.931 . S
C645 C644 1.383 . S
C645 C646 1.394 . S
C646 C645 1.394 . S
C646 C647 1.378 . S
C646 H674 0.931 . S
C647 C642 1.377 . S
C647 C646 1.378 . S
C647 H675 0.931 . S
C648 O662 1.259 . S
C648 O663 1.270 . S
C649 O664 1.251 . S
C649 O665 1.251 . S
C650 Eu651 2.835 . S
C650 C652 1.500 . S
C650 O666 1.257 . S
C650 O667 1.260 . S
Eu651 C650 2.835 . S
Eu651 O663 2.355 . S
Eu651 O665 2.374 . S
Eu651 O666 2.473 . S
Eu651 O667 2.480 . S
Eu651 O668 2.430 . S
Eu651 O669 2.670 . S
Eu651 O670 2.394 . S
C652 C650 1.500 . S
C652 C653 1.377 . S
C652 C657 1.377 . S
C653 C652 1.377 . S
C653 C654 1.395 . S
C653 H676 0.931 . S
C654 C653 1.395 . S
C654 C655 1.383 . S
C654 H677 0.931 . S
C655 C654 1.383 . S
C655 C656 1.394 . S
C656 C655 1.394 . S
C656 C657 1.378 . S
C656 H678 0.931 . S
C657 C652 1.377 . S
C657 C656 1.378 . S
C657 H679 0.931 . S
C658 O668 1.259 . S
C658 O669 1.270 . S
C659 O670 1.251 . S
C659 O671 1.251 . S
O660 C640 1.257 . S
O660 Eu641 2.473 . S
O661 C640 1.260 . S
O661 Eu641 2.480 . S
O662 Eu641 2.430 . S
O662 C648 1.259 . S
O663 Eu641 2.670 . S
O663 C648 1.270 . S
O663 Eu651 2.355 . S
O664 Eu641 2.394 . S
O664 C649 1.251 . S
O665 C649 1.251 . S
O665 Eu651 2.374 . S
O666 C650 1.257 . S
O666 Eu651 2.473 . S
O667 C650 1.260 . S
O667 Eu651 2.480 . S
O668 Eu651 2.430 . S
O668 C658 1.259 . S
O669 Eu641 2.355 . S
O669 Eu651 2.670 . S
O669 C658 1.270 . S
O670 Eu651 2.394 . S
O670 C659 1.251 . S
O671 Eu641 2.374 . S
O671 C659 1.251 . S
H672 C643 0.931 . S
H673 C644 0.931 . S
H674 C646 0.931 . S
H675 C647 0.931 . S
H676 C653 0.931 . S
H677 C654 0.931 . S
H678 C656 0.931 . S
H679 C657 0.931 . S
C680 Eu681 2.835 . S
C680 C682 1.500 . S
C680 O700 1.257 . S
C680 O701 1.260 . S
Eu681 C680 2.835 . S
Eu681 O700 2.473 . S
Eu681 O701 2.480 . S
Eu681 O702 2.430 . S
Eu681 O703 2.670 . S
Eu681 O704 2.394 . S
Eu681 O709 2.355 . S
Eu681 O711 2.374 1_554 S
C682 C680 1.500 . S
C682 C683 1.377 . S
C682 C687 1.377 . S
C683 C682 1.377 . S
C683 C684 1.395 . S
C683 H712 0.931 . S
C684 C683 1.395 . S
C684 C685 1.383 . S
C684 H713 0.931 . S
C685 C684 1.383 . S
C685 C686 1.394 . S
C686 C685 1.394 . S
C686 C687 1.378 . S
C686 H714 0.931 . S
C687 C682 1.377 . S
C687 C686 1.378 . S
C687 H715 0.931 . S
C688 O702 1.259 . S
C688 O703 1.270 . S
C689 O704 1.251 . S
C689 O705 1.251 . S
C690 Eu691 2.835 1_556 S
C690 C692 1.500 . S
C690 O706 1.257 . S
C690 O707 1.260 . S
Eu691 C690 2.835 1_554 S
Eu691 O703 2.355 . S
Eu691 O705 2.374 . S
Eu691 O706 2.473 1_554 S
Eu691 O707 2.480 1_554 S
Eu691 O708 2.430 . S
Eu691 O709 2.670 . S
Eu691 O710 2.394 1_554 S
C692 C690 1.500 . S
C692 C693 1.377 . S
C692 C697 1.377 . S
C693 C692 1.377 . S
C693 C694 1.395 . S
C693 H716 0.931 . S
C694 C693 1.395 . S
C694 C695 1.383 . S
C694 H717 0.931 . S
C695 C694 1.383 . S
C695 C696 1.394 . S
C696 C695 1.394 . S
C696 C697 1.378 . S
C696 H718 0.931 . S
C697 C692 1.377 . S
C697 C696 1.378 . S
C697 H719 0.931 . S
C698 O708 1.259 . S
C698 O709 1.270 . S
C699 O710 1.251 . S
C699 O711 1.251 . S
O700 C680 1.257 . S
O700 Eu681 2.473 . S
O701 C680 1.260 . S
O701 Eu681 2.480 . S
O702 Eu681 2.430 . S
O702 C688 1.259 . S
O703 Eu681 2.670 . S
O703 C688 1.270 . S
O703 Eu691 2.355 . S
O704 Eu681 2.394 . S
O704 C689 1.251 . S
O705 C689 1.251 . S
O705 Eu691 2.374 . S
O706 C690 1.257 . S
O706 Eu691 2.473 1_556 S
O707 C690 1.260 . S
O707 Eu691 2.480 1_556 S
O708 Eu691 2.430 . S
O708 C698 1.259 . S
O709 Eu681 2.355 . S
O709 Eu691 2.670 . S
O709 C698 1.270 . S
O710 Eu691 2.394 1_556 S
O710 C699 1.251 . S
O711 Eu681 2.374 1_556 S
O711 C699 1.251 . S
H712 C683 0.931 . S
H713 C684 0.931 . S
H714 C686 0.931 . S
H715 C687 0.931 . S
H716 C693 0.931 . S
H717 C694 0.931 . S
H718 C696 0.931 . S
H719 C697 0.931 . S
C720 Eu721 2.835 . S
C720 C722 1.500 . S
C720 O740 1.257 . S
C720 O741 1.260 . S
Eu721 C720 2.835 . S
Eu721 O740 2.473 . S
Eu721 O741 2.480 . S
Eu721 O742 2.430 . S
Eu721 O743 2.670 . S
Eu721 O744 2.394 . S
Eu721 O749 2.355 . S
Eu721 O751 2.374 . S
C722 C720 1.500 . S
C722 C723 1.377 . S
C722 C727 1.377 . S
C723 C722 1.377 . S
C723 C724 1.395 . S
C723 H752 0.931 . S
C724 C723 1.395 . S
C724 C725 1.383 . S
C724 H753 0.931 1_655 S
C725 C724 1.383 . S
C725 C726 1.394 . S
C726 C725 1.394 . S
C726 C727 1.378 . S
C726 H754 0.931 . S
C727 C722 1.377 . S
C727 C726 1.378 . S
C727 H755 0.931 . S
C728 O742 1.259 . S
C728 O743 1.270 . S
C729 O744 1.251 . S
C729 O745 1.251 . S
C730 Eu731 2.835 . S
C730 C732 1.500 . S
C730 O746 1.257 . S
C730 O747 1.260 . S
Eu731 C730 2.835 . S
Eu731 O743 2.355 . S
Eu731 O745 2.374 . S
Eu731 O746 2.473 . S
Eu731 O747 2.480 . S
Eu731 O748 2.430 . S
Eu731 O749 2.670 . S
Eu731 O750 2.394 . S
C732 C730 1.500 . S
C732 C733 1.377 . S
C732 C737 1.377 . S
C733 C732 1.377 . S
C733 C734 1.395 . S
C733 H756 0.931 . S
C734 C733 1.395 . S
C734 C735 1.383 . S
C734 H757 0.931 . S
C735 C734 1.383 . S
C735 C736 1.394 . S
C736 C735 1.394 . S
C736 C737 1.378 . S
C736 H758 0.931 . S
C737 C732 1.377 . S
C737 C736 1.378 . S
C737 H759 0.931 . S
C738 O748 1.259 . S
C738 O749 1.270 . S
C739 O750 1.251 . S
C739 O751 1.251 . S
O740 C720 1.257 . S
O740 Eu721 2.473 . S
O741 C720 1.260 . S
O741 Eu721 2.480 . S
O742 Eu721 2.430 . S
O742 C728 1.259 . S
O743 Eu721 2.670 . S
O743 C728 1.270 . S
O743 Eu731 2.355 . S
O744 Eu721 2.394 . S
O744 C729 1.251 . S
O745 C729 1.251 . S
O745 Eu731 2.374 . S
O746 C730 1.257 . S
O746 Eu731 2.473 . S
O747 C730 1.260 . S
O747 Eu731 2.480 . S
O748 Eu731 2.430 . S
O748 C738 1.259 . S
O749 Eu721 2.355 . S
O749 Eu731 2.670 . S
O749 C738 1.270 . S
O750 Eu731 2.394 . S
O750 C739 1.251 . S
O751 Eu721 2.374 . S
O751 C739 1.251 . S
H752 C723 0.931 . S
H753 C724 0.931 1_455 S
H754 C726 0.931 . S
H755 C727 0.931 . S
H756 C733 0.931 . S
H757 C734 0.931 . S
H758 C736 0.931 . S
H759 C737 0.931 . S
C760 Eu761 2.835 . S
C760 C762 1.500 . S
C760 O780 1.257 . S
C760 O781 1.260 . S
Eu761 C760 2.835 . S
Eu761 O780 2.473 . S
Eu761 O781 2.480 . S
Eu761 O782 2.430 . S
Eu761 O783 2.670 . S
Eu761 O784 2.394 . S
Eu761 O789 2.355 . S
Eu761 O791 2.374 . S
C762 C760 1.500 . S
C762 C763 1.377 . S
C762 C767 1.377 . S
C763 C762 1.377 . S
C763 C764 1.395 . S
C763 H792 0.931 . S
C764 C763 1.395 . S
C764 C765 1.383 . S
C764 H793 0.931 . S
C765 C764 1.383 . S
C765 C766 1.394 . S
C766 C765 1.394 . S
C766 C767 1.378 . S
C766 H794 0.931 . S
C767 C762 1.377 . S
C767 C766 1.378 . S
C767 H795 0.931 . S
C768 O782 1.259 . S
C768 O783 1.270 . S
C769 O784 1.251 . S
C769 O785 1.251 . S
C770 Eu771 2.835 . S
C770 C772 1.500 . S
C770 O786 1.257 . S
C770 O787 1.260 . S
Eu771 C770 2.835 . S
Eu771 O783 2.355 . S
Eu771 O785 2.374 . S
Eu771 O786 2.473 . S
Eu771 O787 2.480 . S
Eu771 O788 2.430 . S
Eu771 O789 2.670 . S
Eu771 O790 2.394 . S
C772 C770 1.500 . S
C772 C773 1.377 . S
C772 C777 1.377 . S
C773 C772 1.377 . S
C773 C774 1.395 . S
C773 H796 0.931 . S
C774 C773 1.395 . S
C774 C775 1.383 . S
C774 H797 0.931 . S
C775 C774 1.383 . S
C775 C776 1.394 . S
C776 C775 1.394 . S
C776 C777 1.378 . S
C776 H798 0.931 . S
C777 C772 1.377 . S
C777 C776 1.378 . S
C777 H799 0.931 . S
C778 O788 1.259 . S
C778 O789 1.270 . S
C779 O790 1.251 . S
C779 O791 1.251 . S
O780 C760 1.257 . S
O780 Eu761 2.473 . S
O781 C760 1.260 . S
O781 Eu761 2.480 . S
O782 Eu761 2.430 . S
O782 C768 1.259 . S
O783 Eu761 2.670 . S
O783 C768 1.270 . S
O783 Eu771 2.355 . S
O784 Eu761 2.394 . S
O784 C769 1.251 . S
O785 C769 1.251 . S
O785 Eu771 2.374 . S
O786 C770 1.257 . S
O786 Eu771 2.473 . S
O787 C770 1.260 . S
O787 Eu771 2.480 . S
O788 Eu771 2.430 . S
O788 C778 1.259 . S
O789 Eu761 2.355 . S
O789 Eu771 2.670 . S
O789 C778 1.270 . S
O790 Eu771 2.394 . S
O790 C779 1.251 . S
O791 Eu761 2.374 . S
O791 C779 1.251 . S
H792 C763 0.931 . S
H793 C764 0.931 . S
H794 C766 0.931 . S
H795 C767 0.931 . S
H796 C773 0.931 . S
H797 C774 0.931 . S
H798 C776 0.931 . S
H799 C777 0.931 . S
C800 Eu801 2.835 . S
C800 C802 1.500 . S
C800 O820 1.257 . S
C800 O821 1.260 . S
Eu801 C800 2.835 . S
Eu801 O820 2.473 . S
Eu801 O821 2.480 . S
Eu801 O822 2.430 . S
Eu801 O823 2.670 . S
Eu801 O824 2.394 . S
Eu801 O829 2.355 . S
Eu801 O831 2.374 . S
C802 C800 1.500 . S
C802 C803 1.377 . S
C802 C807 1.377 . S
C803 C802 1.377 . S
C803 C804 1.395 . S
C803 H832 0.931 . S
C804 C803 1.395 . S
C804 C805 1.383 . S
C804 H833 0.931 . S
C805 C804 1.383 . S
C805 C806 1.394 . S
C806 C805 1.394 . S
C806 C807 1.378 . S
C806 H834 0.931 . S
C807 C802 1.377 . S
C807 C806 1.378 . S
C807 H835 0.931 . S
C808 O822 1.259 . S
C808 O823 1.270 . S
C809 O824 1.251 . S
C809 O825 1.251 . S
C810 Eu811 2.835 . S
C810 C812 1.500 . S
C810 O826 1.257 . S
C810 O827 1.260 . S
Eu811 C810 2.835 . S
Eu811 O823 2.355 . S
Eu811 O825 2.374 . S
Eu811 O826 2.473 . S
Eu811 O827 2.480 . S
Eu811 O828 2.430 . S
Eu811 O829 2.670 . S
Eu811 O830 2.394 . S
C812 C810 1.500 . S
C812 C813 1.377 . S
C812 C817 1.377 . S
C813 C812 1.377 . S
C813 C814 1.395 . S
C813 H836 0.931 . S
C814 C813 1.395 . S
C814 C815 1.383 . S
C814 H837 0.931 . S
C815 C814 1.383 . S
C815 C816 1.394 . S
C816 C815 1.394 . S
C816 C817 1.378 . S
C816 H838 0.931 . S
C817 C812 1.377 . S
C817 C816 1.378 . S
C817 H839 0.931 . S
C818 O828 1.259 . S
C818 O829 1.270 . S
C819 O830 1.251 . S
C819 O831 1.251 . S
O820 C800 1.257 . S
O820 Eu801 2.473 . S
O821 C800 1.260 . S
O821 Eu801 2.480 . S
O822 Eu801 2.430 . S
O822 C808 1.259 . S
O823 Eu801 2.670 . S
O823 C808 1.270 . S
O823 Eu811 2.355 . S
O824 Eu801 2.394 . S
O824 C809 1.251 . S
O825 C809 1.251 . S
O825 Eu811 2.374 . S
O826 C810 1.257 . S
O826 Eu811 2.473 . S
O827 C810 1.260 . S
O827 Eu811 2.480 . S
O828 Eu811 2.430 . S
O828 C818 1.259 . S
O829 Eu801 2.355 . S
O829 Eu811 2.670 . S
O829 C818 1.270 . S
O830 Eu811 2.394 . S
O830 C819 1.251 . S
O831 Eu801 2.374 . S
O831 C819 1.251 . S
H832 C803 0.931 . S
H833 C804 0.931 . S
H834 C806 0.931 . S
H835 C807 0.931 . S
H836 C813 0.931 . S
H837 C814 0.931 . S
H838 C816 0.931 . S
H839 C817 0.931 . S
C840 Eu841 2.835 . S
C840 C842 1.500 . S
C840 O860 1.257 . S
C840 O861 1.260 . S
Eu841 C840 2.835 . S
Eu841 O860 2.473 . S
Eu841 O861 2.480 . S
Eu841 O862 2.430 . S
Eu841 O863 2.670 . S
Eu841 O864 2.394 . S
Eu841 O869 2.355 . S
Eu841 O871 2.374 1_556 S
C842 C840 1.500 . S
C842 C843 1.377 . S
C842 C847 1.377 . S
C843 C842 1.377 . S
C843 C844 1.395 . S
C843 H872 0.931 . S
C844 C843 1.395 . S
C844 C845 1.383 . S
C844 H873 0.931 . S
C845 C844 1.383 . S
C845 C846 1.394 . S
C846 C845 1.394 . S
C846 C847 1.378 . S
C846 H874 0.931 . S
C847 C842 1.377 . S
C847 C846 1.378 . S
C847 H875 0.931 . S
C848 O862 1.259 . S
C848 O863 1.270 . S
C849 O864 1.251 . S
C849 O865 1.251 . S
C850 Eu851 2.835 1_554 S
C850 C852 1.500 . S
C850 O866 1.257 . S
C850 O867 1.260 . S
Eu851 C850 2.835 1_556 S
Eu851 O863 2.355 . S
Eu851 O865 2.374 . S
Eu851 O866 2.473 1_556 S
Eu851 O867 2.480 1_556 S
Eu851 O868 2.430 . S
Eu851 O869 2.670 . S
Eu851 O870 2.394 1_556 S
C852 C850 1.500 . S
C852 C853 1.377 . S
C852 C857 1.377 . S
C853 C852 1.377 . S
C853 C854 1.395 . S
C853 H876 0.931 . S
C854 C853 1.395 . S
C854 C855 1.383 . S
C854 H877 0.931 . S
C855 C854 1.383 . S
C855 C856 1.394 . S
C856 C855 1.394 . S
C856 C857 1.378 . S
C856 H878 0.931 . S
C857 C852 1.377 . S
C857 C856 1.378 . S
C857 H879 0.931 . S
C858 O868 1.259 . S
C858 O869 1.270 . S
C859 O870 1.251 . S
C859 O871 1.251 . S
O860 C840 1.257 . S
O860 Eu841 2.473 . S
O861 C840 1.260 . S
O861 Eu841 2.480 . S
O862 Eu841 2.430 . S
O862 C848 1.259 . S
O863 Eu841 2.670 . S
O863 C848 1.270 . S
O863 Eu851 2.355 . S
O864 Eu841 2.394 . S
O864 C849 1.251 . S
O865 C849 1.251 . S
O865 Eu851 2.374 . S
O866 C850 1.257 . S
O866 Eu851 2.473 1_554 S
O867 C850 1.260 . S
O867 Eu851 2.480 1_554 S
O868 Eu851 2.430 . S
O868 C858 1.259 . S
O869 Eu841 2.355 . S
O869 Eu851 2.670 . S
O869 C858 1.270 . S
O870 Eu851 2.394 1_554 S
O870 C859 1.251 . S
O871 Eu841 2.374 1_554 S
O871 C859 1.251 . S
H872 C843 0.931 . S
H873 C844 0.931 . S
H874 C846 0.931 . S
H875 C847 0.931 . S
H876 C853 0.931 . S
H877 C854 0.931 . S
H878 C856 0.931 . S
H879 C857 0.931 . S
C880 Eu881 2.835 . S
C880 C882 1.500 . S
C880 O900 1.257 . S
C880 O901 1.260 . S
Eu881 C880 2.835 . S
Eu881 O900 2.473 . S
Eu881 O901 2.480 . S
Eu881 O902 2.430 . S
Eu881 O903 2.670 . S
Eu881 O904 2.394 . S
Eu881 O909 2.355 . S
Eu881 O911 2.374 . S
C882 C880 1.500 . S
C882 C883 1.377 . S
C882 C887 1.377 . S
C883 C882 1.377 . S
C883 C884 1.395 . S
C883 H912 0.931 . S
C884 C883 1.395 . S
C884 C885 1.383 . S
C884 H913 0.931 1_655 S
C885 C884 1.383 . S
C885 C886 1.394 . S
C886 C885 1.394 . S
C886 C887 1.378 . S
C886 H914 0.931 . S
C887 C882 1.377 . S
C887 C886 1.378 . S
C887 H915 0.931 . S
C888 O902 1.259 . S
C888 O903 1.270 . S
C889 O904 1.251 . S
C889 O905 1.251 . S
C890 Eu891 2.835 . S
C890 C892 1.500 . S
C890 O906 1.257 . S
C890 O907 1.260 . S
Eu891 C890 2.835 . S
Eu891 O903 2.355 . S
Eu891 O905 2.374 . S
Eu891 O906 2.473 . S
Eu891 O907 2.480 . S
Eu891 O908 2.430 . S
Eu891 O909 2.670 . S
Eu891 O910 2.394 . S
C892 C890 1.500 . S
C892 C893 1.377 . S
C892 C897 1.377 . S
C893 C892 1.377 . S
C893 C894 1.395 . S
C893 H916 0.931 . S
C894 C893 1.395 . S
C894 C895 1.383 . S
C894 H917 0.931 . S
C895 C894 1.383 . S
C895 C896 1.394 . S
C896 C895 1.394 . S
C896 C897 1.378 . S
C896 H918 0.931 . S
C897 C892 1.377 . S
C897 C896 1.378 . S
C897 H919 0.931 . S
C898 O908 1.259 . S
C898 O909 1.270 . S
C899 O910 1.251 . S
C899 O911 1.251 . S
O900 C880 1.257 . S
O900 Eu881 2.473 . S
O901 C880 1.260 . S
O901 Eu881 2.480 . S
O902 Eu881 2.430 . S
O902 C888 1.259 . S
O903 Eu881 2.670 . S
O903 C888 1.270 . S
O903 Eu891 2.355 . S
O904 Eu881 2.394 . S
O904 C889 1.251 . S
O905 C889 1.251 . S
O905 Eu891 2.374 . S
O906 C890 1.257 . S
O906 Eu891 2.473 . S
O907 C890 1.260 . S
O907 Eu891 2.480 . S
O908 Eu891 2.430 . S
O908 C898 1.259 . S
O909 Eu881 2.355 . S
O909 Eu891 2.670 . S
O909 C898 1.270 . S
O910 Eu891 2.394 . S
O910 C899 1.251 . S
O911 Eu881 2.374 . S
O911 C899 1.251 . S
H912 C883 0.931 . S
H913 C884 0.931 1_455 S
H914 C886 0.931 . S
H915 C887 0.931 . S
H916 C893 0.931 . S
H917 C894 0.931 . S
H918 C896 0.931 . S
H919 C897 0.931 . S
C920 Eu921 2.835 . S
C920 C922 1.500 . S
C920 O940 1.257 . S
C920 O941 1.260 . S
Eu921 C920 2.835 . S
Eu921 O940 2.473 . S
Eu921 O941 2.480 . S
Eu921 O942 2.430 . S
Eu921 O943 2.670 . S
Eu921 O944 2.394 . S
Eu921 O949 2.355 . S
Eu921 O951 2.374 . S
C922 C920 1.500 . S
C922 C923 1.377 . S
C922 C927 1.377 . S
C923 C922 1.377 . S
C923 C924 1.395 . S
C923 H952 0.931 . S
C924 C923 1.395 . S
C924 C925 1.383 . S
C924 H953 0.931 . S
C925 C924 1.383 . S
C925 C926 1.394 . S
C926 C925 1.394 . S
C926 C927 1.378 . S
C926 H954 0.931 . S
C927 C922 1.377 . S
C927 C926 1.378 . S
C927 H955 0.931 . S
C928 O942 1.259 . S
C928 O943 1.270 . S
C929 O944 1.251 . S
C929 O945 1.251 . S
C930 Eu931 2.835 . S
C930 C932 1.500 . S
C930 O946 1.257 . S
C930 O947 1.260 . S
Eu931 C930 2.835 . S
Eu931 O943 2.355 . S
Eu931 O945 2.374 . S
Eu931 O946 2.473 . S
Eu931 O947 2.480 . S
Eu931 O948 2.430 . S
Eu931 O949 2.670 . S
Eu931 O950 2.394 . S
C932 C930 1.500 . S
C932 C933 1.377 . S
C932 C937 1.377 . S
C933 C932 1.377 . S
C933 C934 1.395 . S
C933 H956 0.931 . S
C934 C933 1.395 . S
C934 C935 1.383 . S
C934 H957 0.931 . S
C935 C934 1.383 . S
C935 C936 1.394 . S
C936 C935 1.394 . S
C936 C937 1.378 . S
C936 H958 0.931 . S
C937 C932 1.377 . S
C937 C936 1.378 . S
C937 H959 0.931 . S
C938 O948 1.259 . S
C938 O949 1.270 . S
C939 O950 1.251 . S
C939 O951 1.251 . S
O940 C920 1.257 . S
O940 Eu921 2.473 . S
O941 C920 1.260 . S
O941 Eu921 2.480 . S
O942 Eu921 2.430 . S
O942 C928 1.259 . S
O943 Eu921 2.670 . S
O943 C928 1.270 . S
O943 Eu931 2.355 . S
O944 Eu921 2.394 . S
O944 C929 1.251 . S
O945 C929 1.251 . S
O945 Eu931 2.374 . S
O946 C930 1.257 . S
O946 Eu931 2.473 . S
O947 C930 1.260 . S
O947 Eu931 2.480 . S
O948 Eu931 2.430 . S
O948 C938 1.259 . S
O949 Eu921 2.355 . S
O949 Eu931 2.670 . S
O949 C938 1.270 . S
O950 Eu931 2.394 . S
O950 C939 1.251 . S
O951 Eu921 2.374 . S
O951 C939 1.251 . S
H952 C923 0.931 . S
H953 C924 0.931 . S
H954 C926 0.931 . S
H955 C927 0.931 . S
H956 C933 0.931 . S
H957 C934 0.931 . S
H958 C936 0.931 . S
H959 C937 0.931 . S
C960 Eu961 2.835 . S
C960 C962 1.500 . S
C960 O980 1.257 . S
C960 O981 1.260 . S
Eu961 C960 2.835 . S
Eu961 O980 2.473 . S
Eu961 O981 2.480 . S
Eu961 O982 2.430 . S
Eu961 O983 2.670 . S
Eu961 O984 2.394 . S
Eu961 O989 2.355 . S
Eu961 O991 2.374 . S
C962 C960 1.500 . S
C962 C963 1.377 . S
C962 C967 1.377 . S
C963 C962 1.377 . S
C963 C964 1.395 . S
C963 H992 0.931 . S
C964 C963 1.395 . S
C964 C965 1.383 . S
C964 H993 0.931 . S
C965 C964 1.383 . S
C965 C966 1.394 . S
C966 C965 1.394 . S
C966 C967 1.378 . S
C966 H994 0.931 . S
C967 C962 1.377 . S
C967 C966 1.378 . S
C967 H995 0.931 . S
C968 O982 1.259 . S
C968 O983 1.270 . S
C969 O984 1.251 . S
C969 O985 1.251 . S
C970 Eu971 2.835 . S
C970 C972 1.500 . S
C970 O986 1.257 . S
C970 O987 1.260 . S
Eu971 C970 2.835 . S
Eu971 O983 2.355 . S
Eu971 O985 2.374 . S
Eu971 O986 2.473 . S
Eu971 O987 2.480 . S
Eu971 O988 2.430 . S
Eu971 O989 2.670 . S
Eu971 O990 2.394 . S
C972 C970 1.500 . S
C972 C973 1.377 . S
C972 C977 1.377 . S
C973 C972 1.377 . S
C973 C974 1.395 . S
C973 H996 0.931 . S
C974 C973 1.395 . S
C974 C975 1.383 . S
C974 H997 0.931 . S
C975 C974 1.383 . S
C975 C976 1.394 . S
C976 C975 1.394 . S
C976 C977 1.378 . S
C976 H998 0.931 . S
C977 C972 1.377 . S
C977 C976 1.378 . S
C977 H999 0.931 . S
C978 O988 1.259 . S
C978 O989 1.270 . S
C979 O990 1.251 . S
C979 O991 1.251 . S
O980 C960 1.257 . S
O980 Eu961 2.473 . S
O981 C960 1.260 . S
O981 Eu961 2.480 . S
O982 Eu961 2.430 . S
O982 C968 1.259 . S
O983 Eu961 2.670 . S
O983 C968 1.270 . S
O983 Eu971 2.355 . S
O984 Eu961 2.394 . S
O984 C969 1.251 . S
O985 C969 1.251 . S
O985 Eu971 2.374 . S
O986 C970 1.257 . S
O986 Eu971 2.473 . S
O987 C970 1.260 . S
O987 Eu971 2.480 . S
O988 Eu971 2.430 . S
O988 C978 1.259 . S
O989 Eu961 2.355 . S
O989 Eu971 2.670 . S
O989 C978 1.270 . S
O990 Eu971 2.394 . S
O990 C979 1.251 . S
O991 Eu961 2.374 . S
O991 C979 1.251 . S
H992 C963 0.931 . S
H993 C964 0.931 . S
H994 C966 0.931 . S
H995 C967 0.931 . S
H996 C973 0.931 . S
H997 C974 0.931 . S
H998 C976 0.931 . S
H999 C977 0.931 . S
C1000 Eu1001 2.835 1_554 S
C1000 C1002 1.500 . S
C1000 O1020 1.257 . S
C1000 O1021 1.260 . S
Eu1001 C1000 2.835 1_556 S
Eu1001 O1020 2.473 1_556 S
Eu1001 O1021 2.480 1_556 S
Eu1001 O1022 2.430 . S
Eu1001 O1023 2.670 . S
Eu1001 O1024 2.394 1_556 S
Eu1001 O1029 2.355 . S
Eu1001 O1031 2.374 . S
C1002 C1000 1.500 . S
C1002 C1003 1.377 . S
C1002 C1007 1.377 . S
C1003 C1002 1.377 . S
C1003 C1004 1.395 . S
C1003 H1032 0.931 . S
C1004 C1003 1.395 . S
C1004 C1005 1.383 . S
C1004 H1033 0.931 . S
C1005 C1004 1.383 . S
C1005 C1006 1.394 . S
C1006 C1005 1.394 . S
C1006 C1007 1.378 . S
C1006 H1034 0.931 . S
C1007 C1002 1.377 . S
C1007 C1006 1.378 . S
C1007 H1035 0.931 . S
C1008 O1022 1.259 . S
C1008 O1023 1.270 . S
C1009 O1024 1.251 . S
C1009 O1025 1.251 . S
C1010 Eu1011 2.835 . S
C1010 C1012 1.500 . S
C1010 O1026 1.257 . S
C1010 O1027 1.260 . S
Eu1011 C1010 2.835 . S
Eu1011 O1023 2.355 . S
Eu1011 O1025 2.374 1_556 S
Eu1011 O1026 2.473 . S
Eu1011 O1027 2.480 . S
Eu1011 O1028 2.430 . S
Eu1011 O1029 2.670 . S
Eu1011 O1030 2.394 . S
C1012 C1010 1.500 . S
C1012 C1013 1.377 . S
C1012 C1017 1.377 . S
C1013 C1012 1.377 . S
C1013 C1014 1.395 . S
C1013 H1036 0.931 . S
C1014 C1013 1.395 . S
C1014 C1015 1.383 . S
C1014 H1037 0.931 . S
C1015 C1014 1.383 . S
C1015 C1016 1.394 . S
C1016 C1015 1.394 . S
C1016 C1017 1.378 . S
C1016 H1038 0.931 . S
C1017 C1012 1.377 . S
C1017 C1016 1.378 . S
C1017 H1039 0.931 . S
C1018 O1028 1.259 . S
C1018 O1029 1.270 . S
C1019 O1030 1.251 . S
C1019 O1031 1.251 . S
O1020 C1000 1.257 . S
O1020 Eu1001 2.473 1_554 S
O1021 C1000 1.260 . S
O1021 Eu1001 2.480 1_554 S
O1022 Eu1001 2.430 . S
O1022 C1008 1.259 . S
O1023 Eu1001 2.670 . S
O1023 C1008 1.270 . S
O1023 Eu1011 2.355 . S
O1024 Eu1001 2.394 1_554 S
O1024 C1009 1.251 . S
O1025 C1009 1.251 . S
O1025 Eu1011 2.374 1_554 S
O1026 C1010 1.257 . S
O1026 Eu1011 2.473 . S
O1027 C1010 1.260 . S
O1027 Eu1011 2.480 . S
O1028 Eu1011 2.430 . S
O1028 C1018 1.259 . S
O1029 Eu1001 2.355 . S
O1029 Eu1011 2.670 . S
O1029 C1018 1.270 . S
O1030 Eu1011 2.394 . S
O1030 C1019 1.251 . S
O1031 Eu1001 2.374 . S
O1031 C1019 1.251 . S
H1032 C1003 0.931 . S
H1033 C1004 0.931 . S
H1034 C1006 0.931 . S
H1035 C1007 0.931 . S
H1036 C1013 0.931 . S
H1037 C1014 0.931 . S
H1038 C1016 0.931 . S
H1039 C1017 0.931 . S
C1040 Eu1041 2.835 . S
C1040 C1042 1.500 . S
C1040 O1060 1.257 . S
C1040 O1061 1.260 . S
Eu1041 C1040 2.835 . S
Eu1041 O1060 2.473 . S
Eu1041 O1061 2.480 . S
Eu1041 O1062 2.430 . S
Eu1041 O1063 2.670 . S
Eu1041 O1064 2.394 . S
Eu1041 O1069 2.355 . S
Eu1041 O1071 2.374 . S
C1042 C1040 1.500 . S
C1042 C1043 1.377 . S
C1042 C1047 1.377 . S
C1043 C1042 1.377 . S
C1043 C1044 1.395 . S
C1043 H1072 0.931 . S
C1044 C1043 1.395 . S
C1044 C1045 1.383 . S
C1044 H1073 0.931 . S
C1045 C1044 1.383 . S
C1045 C1046 1.394 . S
C1046 C1045 1.394 . S
C1046 C1047 1.378 . S
C1046 H1074 0.931 . S
C1047 C1042 1.377 . S
C1047 C1046 1.378 . S
C1047 H1075 0.931 . S
C1048 O1062 1.259 . S
C1048 O1063 1.270 . S
C1049 O1064 1.251 . S
C1049 O1065 1.251 . S
C1050 Eu1051 2.835 . S
C1050 C1052 1.500 . S
C1050 O1066 1.257 . S
C1050 O1067 1.260 . S
Eu1051 C1050 2.835 . S
Eu1051 O1063 2.355 . S
Eu1051 O1065 2.374 . S
Eu1051 O1066 2.473 . S
Eu1051 O1067 2.480 . S
Eu1051 O1068 2.430 . S
Eu1051 O1069 2.670 . S
Eu1051 O1070 2.394 . S
C1052 C1050 1.500 . S
C1052 C1053 1.377 . S
C1052 C1057 1.377 . S
C1053 C1052 1.377 . S
C1053 C1054 1.395 . S
C1053 H1076 0.931 . S
C1054 C1053 1.395 . S
C1054 C1055 1.383 . S
C1054 H1077 0.931 1_455 S
C1055 C1054 1.383 . S
C1055 C1056 1.394 . S
C1056 C1055 1.394 . S
C1056 C1057 1.378 . S
C1056 H1078 0.931 . S
C1057 C1052 1.377 . S
C1057 C1056 1.378 . S
C1057 H1079 0.931 . S
C1058 O1068 1.259 . S
C1058 O1069 1.270 . S
C1059 O1070 1.251 . S
C1059 O1071 1.251 . S
O1060 C1040 1.257 . S
O1060 Eu1041 2.473 . S
O1061 C1040 1.260 . S
O1061 Eu1041 2.480 . S
O1062 Eu1041 2.430 . S
O1062 C1048 1.259 . S
O1063 Eu1041 2.670 . S
O1063 C1048 1.270 . S
O1063 Eu1051 2.355 . S
O1064 Eu1041 2.394 . S
O1064 C1049 1.251 . S
O1065 C1049 1.251 . S
O1065 Eu1051 2.374 . S
O1066 C1050 1.257 . S
O1066 Eu1051 2.473 . S
O1067 C1050 1.260 . S
O1067 Eu1051 2.480 . S
O1068 Eu1051 2.430 . S
O1068 C1058 1.259 . S
O1069 Eu1041 2.355 . S
O1069 Eu1051 2.670 . S
O1069 C1058 1.270 . S
O1070 Eu1051 2.394 . S
O1070 C1059 1.251 . S
O1071 Eu1041 2.374 . S
O1071 C1059 1.251 . S
H1072 C1043 0.931 . S
H1073 C1044 0.931 . S
H1074 C1046 0.931 . S
H1075 C1047 0.931 . S
H1076 C1053 0.931 . S
H1077 C1054 0.931 1_655 S
H1078 C1056 0.931 . S
H1079 C1057 0.931 . S
C1080 Eu1081 2.835 . S
C1080 C1082 1.500 . S
C1080 O1100 1.257 . S
C1080 O1101 1.260 . S
Eu1081 C1080 2.835 . S
Eu1081 O1100 2.473 . S
Eu1081 O1101 2.480 . S
Eu1081 O1102 2.430 . S
Eu1081 O1103 2.670 . S
Eu1081 O1104 2.394 . S
Eu1081 O1109 2.355 . S
Eu1081 O1111 2.374 . S
C1082 C1080 1.500 . S
C1082 C1083 1.377 . S
C1082 C1087 1.377 . S
C1083 C1082 1.377 . S
C1083 C1084 1.395 . S
C1083 H1112 0.931 . S
C1084 C1083 1.395 . S
C1084 C1085 1.383 . S
C1084 H1113 0.931 . S
C1085 C1084 1.383 . S
C1085 C1086 1.394 . S
C1086 C1085 1.394 . S
C1086 C1087 1.378 . S
C1086 H1114 0.931 . S
C1087 C1082 1.377 . S
C1087 C1086 1.378 . S
C1087 H1115 0.931 . S
C1088 O1102 1.259 . S
C1088 O1103 1.270 . S
C1089 O1104 1.251 . S
C1089 O1105 1.251 . S
C1090 Eu1091 2.835 . S
C1090 C1092 1.500 . S
C1090 O1106 1.257 . S
C1090 O1107 1.260 . S
Eu1091 C1090 2.835 . S
Eu1091 O1103 2.355 . S
Eu1091 O1105 2.374 . S
Eu1091 O1106 2.473 . S
Eu1091 O1107 2.480 . S
Eu1091 O1108 2.430 . S
Eu1091 O1109 2.670 . S
Eu1091 O1110 2.394 . S
C1092 C1090 1.500 . S
C1092 C1093 1.377 . S
C1092 C1097 1.377 . S
C1093 C1092 1.377 . S
C1093 C1094 1.395 . S
C1093 H1116 0.931 . S
C1094 C1093 1.395 . S
C1094 C1095 1.383 . S
C1094 H1117 0.931 . S
C1095 C1094 1.383 . S
C1095 C1096 1.394 . S
C1096 C1095 1.394 . S
C1096 C1097 1.378 . S
C1096 H1118 0.931 . S
C1097 C1092 1.377 . S
C1097 C1096 1.378 . S
C1097 H1119 0.931 . S
C1098 O1108 1.259 . S
C1098 O1109 1.270 . S
C1099 O1110 1.251 . S
C1099 O1111 1.251 . S
O1100 C1080 1.257 . S
O1100 Eu1081 2.473 . S
O1101 C1080 1.260 . S
O1101 Eu1081 2.480 . S
O1102 Eu1081 2.430 . S
O1102 C1088 1.259 . S
O1103 Eu1081 2.670 . S
O1103 C1088 1.270 . S
O1103 Eu1091 2.355 . S
O1104 Eu1081 2.394 . S
O1104 C1089 1.251 . S
O1105 C1089 1.251 . S
O1105 Eu1091 2.374 . S
O1106 C1090 1.257 . S
O1106 Eu1091 2.473 . S
O1107 C1090 1.260 . S
O1107 Eu1091 2.480 . S
O1108 Eu1091 2.430 . S
O1108 C1098 1.259 . S
O1109 Eu1081 2.355 . S
O1109 Eu1091 2.670 . S
O1109 C1098 1.270 . S
O1110 Eu1091 2.394 . S
O1110 C1099 1.251 . S
O1111 Eu1081 2.374 . S
O1111 C1099 1.251 . S
H1112 C1083 0.931 . S
H1113 C1084 0.931 . S
H1114 C1086 0.931 . S
H1115 C1087 0.931 . S
H1116 C1093 0.931 . S
H1117 C1094 0.931 . S
H1118 C1096 0.931 . S
H1119 C1097 0.931 . S
C1120 Eu1121 2.835 . S
C1120 C1122 1.500 . S
C1120 O1140 1.257 . S
C1120 O1141 1.260 . S
Eu1121 C1120 2.835 . S
Eu1121 O1140 2.473 . S
Eu1121 O1141 2.480 . S
Eu1121 O1142 2.430 . S
Eu1121 O1143 2.670 . S
Eu1121 O1144 2.394 . S
Eu1121 O1149 2.355 . S
Eu1121 O1151 2.374 . S
C1122 C1120 1.500 . S
C1122 C1123 1.377 . S
C1122 C1127 1.377 . S
C1123 C1122 1.377 . S
C1123 C1124 1.395 . S
C1123 H1152 0.931 . S
C1124 C1123 1.395 . S
C1124 C1125 1.383 . S
C1124 H1153 0.931 . S
C1125 C1124 1.383 . S
C1125 C1126 1.394 . S
C1126 C1125 1.394 . S
C1126 C1127 1.378 . S
C1126 H1154 0.931 . S
C1127 C1122 1.377 . S
C1127 C1126 1.378 . S
C1127 H1155 0.931 . S
C1128 O1142 1.259 . S
C1128 O1143 1.270 . S
C1129 O1144 1.251 . S
C1129 O1145 1.251 . S
C1130 Eu1131 2.835 . S
C1130 C1132 1.500 . S
C1130 O1146 1.257 . S
C1130 O1147 1.260 . S
Eu1131 C1130 2.835 . S
Eu1131 O1143 2.355 . S
Eu1131 O1145 2.374 . S
Eu1131 O1146 2.473 . S
Eu1131 O1147 2.480 . S
Eu1131 O1148 2.430 . S
Eu1131 O1149 2.670 . S
Eu1131 O1150 2.394 . S
C1132 C1130 1.500 . S
C1132 C1133 1.377 . S
C1132 C1137 1.377 . S
C1133 C1132 1.377 . S
C1133 C1134 1.395 . S
C1133 H1156 0.931 . S
C1134 C1133 1.395 . S
C1134 C1135 1.383 . S
C1134 H1157 0.931 . S
C1135 C1134 1.383 . S
C1135 C1136 1.394 . S
C1136 C1135 1.394 . S
C1136 C1137 1.378 . S
C1136 H1158 0.931 . S
C1137 C1132 1.377 . S
C1137 C1136 1.378 . S
C1137 H1159 0.931 . S
C1138 O1148 1.259 . S
C1138 O1149 1.270 . S
C1139 O1150 1.251 . S
C1139 O1151 1.251 . S
O1140 C1120 1.257 . S
O1140 Eu1121 2.473 . S
O1141 C1120 1.260 . S
O1141 Eu1121 2.480 . S
O1142 Eu1121 2.430 . S
O1142 C1128 1.259 . S
O1143 Eu1121 2.670 . S
O1143 C1128 1.270 . S
O1143 Eu1131 2.355 . S
O1144 Eu1121 2.394 . S
O1144 C1129 1.251 . S
O1145 C1129 1.251 . S
O1145 Eu1131 2.374 . S
O1146 C1130 1.257 . S
O1146 Eu1131 2.473 . S
O1147 C1130 1.260 . S
O1147 Eu1131 2.480 . S
O1148 Eu1131 2.430 . S
O1148 C1138 1.259 . S
O1149 Eu1121 2.355 . S
O1149 Eu1131 2.670 . S
O1149 C1138 1.270 . S
O1150 Eu1131 2.394 . S
O1150 C1139 1.251 . S
O1151 Eu1121 2.374 . S
O1151 C1139 1.251 . S
H1152 C1123 0.931 . S
H1153 C1124 0.931 . S
H1154 C1126 0.931 . S
H1155 C1127 0.931 . S
H1156 C1133 0.931 . S
H1157 C1134 0.931 . S
H1158 C1136 0.931 . S
H1159 C1137 0.931 . S
C1160 Eu1161 2.835 1_556 S
C1160 C1162 1.500 . S
C1160 O1180 1.257 . S
C1160 O1181 1.260 . S
Eu1161 C1160 2.835 1_554 S
Eu1161 O1180 2.473 1_554 S
Eu1161 O1181 2.480 1_554 S
Eu1161 O1182 2.430 . S
Eu1161 O1183 2.670 . S
Eu1161 O1184 2.394 1_554 S
Eu1161 O1189 2.355 . S
Eu1161 O1191 2.374 . S
C1162 C1160 1.500 . S
C1162 C1163 1.377 . S
C1162 C1167 1.377 . S
C1163 C1162 1.377 . S
C1163 C1164 1.395 . S
C1163 H1192 0.931 . S
C1164 C1163 1.395 . S
C1164 C1165 1.383 . S
C1164 H1193 0.931 . S
C1165 C1164 1.383 . S
C1165 C1166 1.394 . S
C1166 C1165 1.394 . S
C1166 C1167 1.378 . S
C1166 H1194 0.931 . S
C1167 C1162 1.377 . S
C1167 C1166 1.378 . S
C1167 H1195 0.931 . S
C1168 O1182 1.259 . S
C1168 O1183 1.270 . S
C1169 O1184 1.251 . S
C1169 O1185 1.251 . S
C1170 Eu1171 2.835 . S
C1170 C1172 1.500 . S
C1170 O1186 1.257 . S
C1170 O1187 1.260 . S
Eu1171 C1170 2.835 . S
Eu1171 O1183 2.355 . S
Eu1171 O1185 2.374 1_554 S
Eu1171 O1186 2.473 . S
Eu1171 O1187 2.480 . S
Eu1171 O1188 2.430 . S
Eu1171 O1189 2.670 . S
Eu1171 O1190 2.394 . S
C1172 C1170 1.500 . S
C1172 C1173 1.377 . S
C1172 C1177 1.377 . S
C1173 C1172 1.377 . S
C1173 C1174 1.395 . S
C1173 H1196 0.931 . S
C1174 C1173 1.395 . S
C1174 C1175 1.383 . S
C1174 H1197 0.931 . S
C1175 C1174 1.383 . S
C1175 C1176 1.394 . S
C1176 C1175 1.394 . S
C1176 C1177 1.378 . S
C1176 H1198 0.931 . S
C1177 C1172 1.377 . S
C1177 C1176 1.378 . S
C1177 H1199 0.931 . S
C1178 O1188 1.259 . S
C1178 O1189 1.270 . S
C1179 O1190 1.251 . S
C1179 O1191 1.251 . S
O1180 C1160 1.257 . S
O1180 Eu1161 2.473 1_556 S
O1181 C1160 1.260 . S
O1181 Eu1161 2.480 1_556 S
O1182 Eu1161 2.430 . S
O1182 C1168 1.259 . S
O1183 Eu1161 2.670 . S
O1183 C1168 1.270 . S
O1183 Eu1171 2.355 . S
O1184 Eu1161 2.394 1_556 S
O1184 C1169 1.251 . S
O1185 C1169 1.251 . S
O1185 Eu1171 2.374 1_556 S
O1186 C1170 1.257 . S
O1186 Eu1171 2.473 . S
O1187 C1170 1.260 . S
O1187 Eu1171 2.480 . S
O1188 Eu1171 2.430 . S
O1188 C1178 1.259 . S
O1189 Eu1161 2.355 . S
O1189 Eu1171 2.670 . S
O1189 C1178 1.270 . S
O1190 Eu1171 2.394 . S
O1190 C1179 1.251 . S
O1191 Eu1161 2.374 . S
O1191 C1179 1.251 . S
H1192 C1163 0.931 . S
H1193 C1164 0.931 . S
H1194 C1166 0.931 . S
H1195 C1167 0.931 . S
H1196 C1173 0.931 . S
H1197 C1174 0.931 . S
H1198 C1176 0.931 . S
H1199 C1177 0.931 . S
C1200 Eu1201 2.835 . S
C1200 C1202 1.500 . S
C1200 O1220 1.257 . S
C1200 O1221 1.260 . S
Eu1201 C1200 2.835 . S
Eu1201 O1220 2.473 . S
Eu1201 O1221 2.480 . S
Eu1201 O1222 2.430 . S
Eu1201 O1223 2.670 . S
Eu1201 O1224 2.394 . S
Eu1201 O1229 2.355 . S
Eu1201 O1231 2.374 . S
C1202 C1200 1.500 . S
C1202 C1203 1.377 . S
C1202 C1207 1.377 . S
C1203 C1202 1.377 . S
C1203 C1204 1.395 . S
C1203 H1232 0.931 . S
C1204 C1203 1.395 . S
C1204 C1205 1.383 . S
C1204 H1233 0.931 . S
C1205 C1204 1.383 . S
C1205 C1206 1.394 . S
C1206 C1205 1.394 . S
C1206 C1207 1.378 . S
C1206 H1234 0.931 . S
C1207 C1202 1.377 . S
C1207 C1206 1.378 . S
C1207 H1235 0.931 . S
C1208 O1222 1.259 . S
C1208 O1223 1.270 . S
C1209 O1224 1.251 . S
C1209 O1225 1.251 . S
C1210 Eu1211 2.835 . S
C1210 C1212 1.500 . S
C1210 O1226 1.257 . S
C1210 O1227 1.260 . S
Eu1211 C1210 2.835 . S
Eu1211 O1223 2.355 . S
Eu1211 O1225 2.374 . S
Eu1211 O1226 2.473 . S
Eu1211 O1227 2.480 . S
Eu1211 O1228 2.430 . S
Eu1211 O1229 2.670 . S
Eu1211 O1230 2.394 . S
C1212 C1210 1.500 . S
C1212 C1213 1.377 . S
C1212 C1217 1.377 . S
C1213 C1212 1.377 . S
C1213 C1214 1.395 . S
C1213 H1236 0.931 . S
C1214 C1213 1.395 . S
C1214 C1215 1.383 . S
C1214 H1237 0.931 1_455 S
C1215 C1214 1.383 . S
C1215 C1216 1.394 . S
C1216 C1215 1.394 . S
C1216 C1217 1.378 . S
C1216 H1238 0.931 . S
C1217 C1212 1.377 . S
C1217 C1216 1.378 . S
C1217 H1239 0.931 . S
C1218 O1228 1.259 . S
C1218 O1229 1.270 . S
C1219 O1230 1.251 . S
C1219 O1231 1.251 . S
O1220 C1200 1.257 . S
O1220 Eu1201 2.473 . S
O1221 C1200 1.260 . S
O1221 Eu1201 2.480 . S
O1222 Eu1201 2.430 . S
O1222 C1208 1.259 . S
O1223 Eu1201 2.670 . S
O1223 C1208 1.270 . S
O1223 Eu1211 2.355 . S
O1224 Eu1201 2.394 . S
O1224 C1209 1.251 . S
O1225 C1209 1.251 . S
O1225 Eu1211 2.374 . S
O1226 C1210 1.257 . S
O1226 Eu1211 2.473 . S
O1227 C1210 1.260 . S
O1227 Eu1211 2.480 . S
O1228 Eu1211 2.430 . S
O1228 C1218 1.259 . S
O1229 Eu1201 2.355 . S
O1229 Eu1211 2.670 . S
O1229 C1218 1.270 . S
O1230 Eu1211 2.394 . S
O1230 C1219 1.251 . S
O1231 Eu1201 2.374 . S
O1231 C1219 1.251 . S
H1232 C1203 0.931 . S
H1233 C1204 0.931 . S
H1234 C1206 0.931 . S
H1235 C1207 0.931 . S
H1236 C1213 0.931 . S
H1237 C1214 0.931 1_655 S
H1238 C1216 0.931 . S
H1239 C1217 0.931 . S
C1240 Eu1241 2.835 . S
C1240 C1242 1.500 . S
C1240 O1260 1.257 . S
C1240 O1261 1.260 . S
Eu1241 C1240 2.835 . S
Eu1241 O1260 2.473 . S
Eu1241 O1261 2.480 . S
Eu1241 O1262 2.430 . S
Eu1241 O1263 2.670 . S
Eu1241 O1264 2.394 . S
Eu1241 O1269 2.355 . S
Eu1241 O1271 2.374 . S
C1242 C1240 1.500 . S
C1242 C1243 1.377 . S
C1242 C1247 1.377 . S
C1243 C1242 1.377 . S
C1243 C1244 1.395 . S
C1243 H1272 0.931 . S
C1244 C1243 1.395 . S
C1244 C1245 1.383 . S
C1244 H1273 0.931 . S
C1245 C1244 1.383 . S
C1245 C1246 1.394 . S
C1246 C1245 1.394 . S
C1246 C1247 1.378 . S
C1246 H1274 0.931 . S
C1247 C1242 1.377 . S
C1247 C1246 1.378 . S
C1247 H1275 0.931 . S
C1248 O1262 1.259 . S
C1248 O1263 1.270 . S
C1249 O1264 1.251 . S
C1249 O1265 1.251 . S
C1250 Eu1251 2.835 . S
C1250 C1252 1.500 . S
C1250 O1266 1.257 . S
C1250 O1267 1.260 . S
Eu1251 C1250 2.835 . S
Eu1251 O1263 2.355 . S
Eu1251 O1265 2.374 . S
Eu1251 O1266 2.473 . S
Eu1251 O1267 2.480 . S
Eu1251 O1268 2.430 . S
Eu1251 O1269 2.670 . S
Eu1251 O1270 2.394 . S
C1252 C1250 1.500 . S
C1252 C1253 1.377 . S
C1252 C1257 1.377 . S
C1253 C1252 1.377 . S
C1253 C1254 1.395 . S
C1253 H1276 0.931 . S
C1254 C1253 1.395 . S
C1254 C1255 1.383 . S
C1254 H1277 0.931 . S
C1255 C1254 1.383 . S
C1255 C1256 1.394 . S
C1256 C1255 1.394 . S
C1256 C1257 1.378 . S
C1256 H1278 0.931 . S
C1257 C1252 1.377 . S
C1257 C1256 1.378 . S
C1257 H1279 0.931 . S
C1258 O1268 1.259 . S
C1258 O1269 1.270 . S
C1259 O1270 1.251 . S
C1259 O1271 1.251 . S
O1260 C1240 1.257 . S
O1260 Eu1241 2.473 . S
O1261 C1240 1.260 . S
O1261 Eu1241 2.480 . S
O1262 Eu1241 2.430 . S
O1262 C1248 1.259 . S
O1263 Eu1241 2.670 . S
O1263 C1248 1.270 . S
O1263 Eu1251 2.355 . S
O1264 Eu1241 2.394 . S
O1264 C1249 1.251 . S
O1265 C1249 1.251 . S
O1265 Eu1251 2.374 . S
O1266 C1250 1.257 . S
O1266 Eu1251 2.473 . S
O1267 C1250 1.260 . S
O1267 Eu1251 2.480 . S
O1268 Eu1251 2.430 . S
O1268 C1258 1.259 . S
O1269 Eu1241 2.355 . S
O1269 Eu1251 2.670 . S
O1269 C1258 1.270 . S
O1270 Eu1251 2.394 . S
O1270 C1259 1.251 . S
O1271 Eu1241 2.374 . S
O1271 C1259 1.251 . S
H1272 C1243 0.931 . S
H1273 C1244 0.931 . S
H1274 C1246 0.931 . S
H1275 C1247 0.931 . S
H1276 C1253 0.931 . S
H1277 C1254 0.931 . S
H1278 C1256 0.931 . S
H1279 C1257 0.931 . S
H1280 C1286 0.930 . S
H1281 C1289 0.930 . S
H1282 C1290 0.930 . S
H1283 C1291 0.930 . S
H1284 C1294 0.930 . S
H1285 C1295 0.930 . S
C1286 H1280 0.930 . S
C1286 C1287 1.355 . S
C1286 C1288 1.415 . S
C1287 C1286 1.355 . S
C1287 C1289 1.419 . S
C1288 C1286 1.415 . S
C1288 C1293 1.425 . S
C1288 C1295 1.409 . S
C1289 H1281 0.930 . S
C1289 C1287 1.419 . S
C1289 C1290 1.362 . S
C1290 H1282 0.930 . S
C1290 C1289 1.362 . S
C1290 C1293 1.409 . S
C1291 H1283 0.930 . S
C1291 C1292 1.355 . S
C1291 C1293 1.415 . S
C1292 C1291 1.355 . S
C1292 C1294 1.419 . S
C1293 C1288 1.425 . S
C1293 C1290 1.409 . S
C1293 C1291 1.415 . S
C1294 H1284 0.930 . S
C1294 C1292 1.419 . S
C1294 C1295 1.362 . S
C1295 H1285 0.930 . S
C1295 C1288 1.409 . S
C1295 C1294 1.362 . S
H1296 C1302 0.930 . S
H1297 C1305 0.930 . S
H1298 C1306 0.930 . S
H1299 C1307 0.930 . S
H1300 C1310 0.930 . S
H1301 C1311 0.930 . S
C1302 H1296 0.930 . S
C1302 C1303 1.355 . S
C1302 C1304 1.415 . S
C1303 C1302 1.355 . S
C1303 C1305 1.419 . S
C1304 C1302 1.415 . S
C1304 C1309 1.425 . S
C1304 C1311 1.409 . S
C1305 H1297 0.930 . S
C1305 C1303 1.419 . S
C1305 C1306 1.362 . S
C1306 H1298 0.930 . S
C1306 C1305 1.362 . S
C1306 C1309 1.409 . S
C1307 H1299 0.930 . S
C1307 C1308 1.355 . S
C1307 C1309 1.415 . S
C1308 C1307 1.355 . S
C1308 C1310 1.419 . S
C1309 C1304 1.425 . S
C1309 C1306 1.409 . S
C1309 C1307 1.415 . S
C1310 H1300 0.930 . S
C1310 C1308 1.419 . S
C1310 C1311 1.362 . S
C1311 H1301 0.930 . S
C1311 C1304 1.409 . S
C1311 C1310 1.362 . S
H1312 C1318 0.930 . S
H1313 C1321 0.930 . S
H1314 C1322 0.930 . S
H1315 C1323 0.930 . S
H1316 C1326 0.930 . S
H1317 C1327 0.930 . S
C1318 H1312 0.930 . S
C1318 C1319 1.355 . S
C1318 C1320 1.415 . S
C1319 C1318 1.355 . S
C1319 C1321 1.419 . S
C1320 C1318 1.415 . S
C1320 C1325 1.425 . S
C1320 C1327 1.409 . S
C1321 H1313 0.930 . S
C1321 C1319 1.419 . S
C1321 C1322 1.362 . S
C1322 H1314 0.930 . S
C1322 C1321 1.362 . S
C1322 C1325 1.409 . S
C1323 H1315 0.930 . S
C1323 C1324 1.355 . S
C1323 C1325 1.415 . S
C1324 C1323 1.355 . S
C1324 C1326 1.419 . S
C1325 C1320 1.425 . S
C1325 C1322 1.409 . S
C1325 C1323 1.415 . S
C1326 H1316 0.930 . S
C1326 C1324 1.419 . S
C1326 C1327 1.362 . S
C1327 H1317 0.930 . S
C1327 C1320 1.409 . S
C1327 C1326 1.362 . S
H1328 C1334 0.930 . S
H1329 C1337 0.930 . S
H1330 C1338 0.930 . S
H1331 C1339 0.930 . S
H1332 C1342 0.930 . S
H1333 C1343 0.930 . S
C1334 H1328 0.930 . S
C1334 C1335 1.355 . S
C1334 C1336 1.415 . S
C1335 C1334 1.355 . S
C1335 C1337 1.419 . S
C1336 C1334 1.415 . S
C1336 C1341 1.425 . S
C1336 C1343 1.409 . S
C1337 H1329 0.930 . S
C1337 C1335 1.419 . S
C1337 C1338 1.362 . S
C1338 H1330 0.930 . S
C1338 C1337 1.362 . S
C1338 C1341 1.409 . S
C1339 H1331 0.930 . S
C1339 C1340 1.355 . S
C1339 C1341 1.415 . S
C1340 C1339 1.355 . S
C1340 C1342 1.419 1_565 S
C1341 C1336 1.425 . S
C1341 C1338 1.409 . S
C1341 C1339 1.415 . S
C1342 H1332 0.930 . S
C1342 C1340 1.419 1_545 S
C1342 C1343 1.362 1_545 S
C1343 H1333 0.930 . S
C1343 C1336 1.409 . S
C1343 C1342 1.362 1_565 S
H1344 C1350 0.930 . S
H1345 C1353 0.930 . S
H1346 C1354 0.930 . S
H1347 C1355 0.930 . S
H1348 C1358 0.930 . S
H1349 C1359 0.930 . S
C1350 H1344 0.930 . S
C1350 C1351 1.355 . S
C1350 C1352 1.415 . S
C1351 C1350 1.355 . S
C1351 C1353 1.419 . S
C1352 C1350 1.415 . S
C1352 C1357 1.425 . S
C1352 C1359 1.409 . S
C1353 H1345 0.930 . S
C1353 C1351 1.419 . S
C1353 C1354 1.362 . S
C1354 H1346 0.930 . S
C1354 C1353 1.362 . S
C1354 C1357 1.409 . S
C1355 H1347 0.930 . S
C1355 C1356 1.355 . S
C1355 C1357 1.415 . S
C1356 C1355 1.355 . S
C1356 C1358 1.419 . S
C1357 C1352 1.425 . S
C1357 C1354 1.409 . S
C1357 C1355 1.415 . S
C1358 H1348 0.930 . S
C1358 C1356 1.419 . S
C1358 C1359 1.362 . S
C1359 H1349 0.930 . S
C1359 C1352 1.409 . S
C1359 C1358 1.362 . S
H1360 C1366 0.930 . S
H1361 C1369 0.930 . S
H1362 C1370 0.930 . S
H1363 C1371 0.930 . S
H1364 C1374 0.930 . S
H1365 C1375 0.930 . S
C1366 H1360 0.930 . S
C1366 C1367 1.355 . S
C1366 C1368 1.415 . S
C1367 C1366 1.355 . S
C1367 C1369 1.419 1_545 S
C1368 C1366 1.415 . S
C1368 C1373 1.425 . S
C1368 C1375 1.409 . S
C1369 H1361 0.930 . S
C1369 C1367 1.419 1_565 S
C1369 C1370 1.362 1_565 S
C1370 H1362 0.930 . S
C1370 C1369 1.362 1_545 S
C1370 C1373 1.409 . S
C1371 H1363 0.930 . S
C1371 C1372 1.355 . S
C1371 C1373 1.415 . S
C1372 C1371 1.355 . S
C1372 C1374 1.419 . S
C1373 C1368 1.425 . S
C1373 C1370 1.409 . S
C1373 C1371 1.415 . S
C1374 H1364 0.930 . S
C1374 C1372 1.419 . S
C1374 C1375 1.362 . S
C1375 H1365 0.930 . S
C1375 C1368 1.409 . S
C1375 C1374 1.362 . S
H1376 C1382 0.930 . S
H1377 C1385 0.930 . S
H1378 C1386 0.930 . S
H1379 C1387 0.930 . S
H1380 C1390 0.930 . S
H1381 C1391 0.930 . S
C1382 H1376 0.930 . S
C1382 C1383 1.355 . S
C1382 C1384 1.415 . S
C1383 C1382 1.355 . S
C1383 C1385 1.419 . S
C1384 C1382 1.415 . S
C1384 C1389 1.425 . S
C1384 C1391 1.409 . S
C1385 H1377 0.930 . S
C1385 C1383 1.419 . S
C1385 C1386 1.362 . S
C1386 H1378 0.930 . S
C1386 C1385 1.362 . S
C1386 C1389 1.409 . S
C1387 H1379 0.930 . S
C1387 C1388 1.355 . S
C1387 C1389 1.415 . S
C1388 C1387 1.355 . S
C1388 C1390 1.419 . S
C1389 C1384 1.425 . S
C1389 C1386 1.409 . S
C1389 C1387 1.415 . S
C1390 H1380 0.930 . S
C1390 C1388 1.419 . S
C1390 C1391 1.362 . S
C1391 H1381 0.930 . S
C1391 C1384 1.409 . S
C1391 C1390 1.362 . S
H1392 C1398 0.930 . S
H1393 C1401 0.930 . S
H1394 C1402 0.930 . S
H1395 C1403 0.930 1_545 S
H1396 C1406 0.930 . S
H1397 C1407 0.930 . S
C1398 H1392 0.930 . S
C1398 C1399 1.355 . S
C1398 C1400 1.415 . S
C1399 C1398 1.355 . S
C1399 C1401 1.419 . S
C1400 C1398 1.415 . S
C1400 C1405 1.425 . S
C1400 C1407 1.409 . S
C1401 H1393 0.930 . S
C1401 C1399 1.419 . S
C1401 C1402 1.362 . S
C1402 H1394 0.930 . S
C1402 C1401 1.362 . S
C1402 C1405 1.409 . S
C1403 H1395 0.930 1_565 S
C1403 C1404 1.355 . S
C1403 C1405 1.415 . S
C1404 C1403 1.355 . S
C1404 C1406 1.419 . S
C1405 C1400 1.425 . S
C1405 C1402 1.409 . S
C1405 C1403 1.415 . S
C1406 H1396 0.930 . S
C1406 C1404 1.419 . S
C1406 C1407 1.362 . S
C1407 H1397 0.930 . S
C1407 C1400 1.409 . S
C1407 C1406 1.362 . S
H1408 C1414 0.930 . S
H1409 C1417 0.930 . S
H1410 C1418 0.930 . S
H1411 C1419 0.930 . S
H1412 C1422 0.930 . S
H1413 C1423 0.930 . S
C1414 H1408 0.930 . S
C1414 C1415 1.355 . S
C1414 C1416 1.415 . S
C1415 C1414 1.355 . S
C1415 C1417 1.419 . S
C1416 C1414 1.415 . S
C1416 C1421 1.425 . S
C1416 C1423 1.409 . S
C1417 H1409 0.930 . S
C1417 C1415 1.419 . S
C1417 C1418 1.362 . S
C1418 H1410 0.930 . S
C1418 C1417 1.362 . S
C1418 C1421 1.409 . S
C1419 H1411 0.930 . S
C1419 C1420 1.355 . S
C1419 C1421 1.415 . S
C1420 C1419 1.355 . S
C1420 C1422 1.419 . S
C1421 C1416 1.425 . S
C1421 C1418 1.409 . S
C1421 C1419 1.415 . S
C1422 H1412 0.930 . S
C1422 C1420 1.419 . S
C1422 C1423 1.362 . S
C1423 H1413 0.930 . S
C1423 C1416 1.409 . S
C1423 C1422 1.362 . S
H1424 C1430 0.930 . S
H1425 C1433 0.930 . S
H1426 C1434 0.930 . S
H1427 C1435 0.930 . S
H1428 C1438 0.930 . S
H1429 C1439 0.930 . S
C1430 H1424 0.930 . S
C1430 C1431 1.355 . S
C1430 C1432 1.415 . S
C1431 C1430 1.355 . S
C1431 C1433 1.419 . S
C1432 C1430 1.415 . S
C1432 C1437 1.425 . S
C1432 C1439 1.409 . S
C1433 H1425 0.930 . S
C1433 C1431 1.419 . S
C1433 C1434 1.362 . S
C1434 H1426 0.930 . S
C1434 C1433 1.362 . S
C1434 C1437 1.409 . S
C1435 H1427 0.930 . S
C1435 C1436 1.355 . S
C1435 C1437 1.415 . S
C1436 C1435 1.355 . S
C1436 C1438 1.419 . S
C1437 C1432 1.425 . S
C1437 C1434 1.409 . S
C1437 C1435 1.415 . S
C1438 H1428 0.930 . S
C1438 C1436 1.419 . S
C1438 C1439 1.362 . S
C1439 H1429 0.930 . S
C1439 C1432 1.409 . S
C1439 C1438 1.362 . S
H1440 C1446 0.930 . S
H1441 C1449 0.930 . S
H1442 C1450 0.930 . S
H1443 C1451 0.930 . S
H1444 C1454 0.930 . S
H1445 C1455 0.930 . S
C1446 H1440 0.930 . S
C1446 C1447 1.355 . S
C1446 C1448 1.415 . S
C1447 C1446 1.355 . S
C1447 C1449 1.419 . S
C1448 C1446 1.415 . S
C1448 C1453 1.425 . S
C1448 C1455 1.409 . S
C1449 H1441 0.930 . S
C1449 C1447 1.419 . S
C1449 C1450 1.362 . S
C1450 H1442 0.930 . S
C1450 C1449 1.362 . S
C1450 C1453 1.409 . S
C1451 H1443 0.930 . S
C1451 C1452 1.355 . S
C1451 C1453 1.415 . S
C1452 C1451 1.355 . S
C1452 C1454 1.419 . S
C1453 C1448 1.425 . S
C1453 C1450 1.409 . S
C1453 C1451 1.415 . S
C1454 H1444 0.930 . S
C1454 C1452 1.419 . S
C1454 C1455 1.362 . S
C1455 H1445 0.930 . S
C1455 C1448 1.409 . S
C1455 C1454 1.362 . S
H1456 C1462 0.930 . S
H1457 C1465 0.930 . S
H1458 C1466 0.930 . S
H1459 C1467 0.930 . S
H1460 C1470 0.930 . S
H1461 C1471 0.930 . S
C1462 H1456 0.930 . S
C1462 C1463 1.355 . S
C1462 C1464 1.415 . S
C1463 C1462 1.355 . S
C1463 C1465 1.419 . S
C1464 C1462 1.415 . S
C1464 C1469 1.425 . S
C1464 C1471 1.409 . S
C1465 H1457 0.930 . S
C1465 C1463 1.419 . S
C1465 C1466 1.362 . S
C1466 H1458 0.930 . S
C1466 C1465 1.362 . S
C1466 C1469 1.409 . S
C1467 H1459 0.930 . S
C1467 C1468 1.355 . S
C1467 C1469 1.415 . S
C1468 C1467 1.355 . S
C1468 C1470 1.419 . S
C1469 C1464 1.425 . S
C1469 C1466 1.409 . S
C1469 C1467 1.415 . S
C1470 H1460 0.930 . S
C1470 C1468 1.419 . S
C1470 C1471 1.362 . S
C1471 H1461 0.930 . S
C1471 C1464 1.409 . S
C1471 C1470 1.362 . S
H1472 C1478 0.930 . S
H1473 C1481 0.930 . S
H1474 C1482 0.930 . S
H1475 C1483 0.930 . S
H1476 C1486 0.930 . S
H1477 C1487 0.930 . S
C1478 H1472 0.930 . S
C1478 C1479 1.355 . S
C1478 C1480 1.415 . S
C1479 C1478 1.355 . S
C1479 C1481 1.419 . S
C1480 C1478 1.415 . S
C1480 C1485 1.425 . S
C1480 C1487 1.409 . S
C1481 H1473 0.930 . S
C1481 C1479 1.419 . S
C1481 C1482 1.362 . S
C1482 H1474 0.930 . S
C1482 C1481 1.362 . S
C1482 C1485 1.409 . S
C1483 H1475 0.930 . S
C1483 C1484 1.355 . S
C1483 C1485 1.415 . S
C1484 C1483 1.355 . S
C1484 C1486 1.419 . S
C1485 C1480 1.425 . S
C1485 C1482 1.409 . S
C1485 C1483 1.415 . S
C1486 H1476 0.930 . S
C1486 C1484 1.419 . S
C1486 C1487 1.362 . S
C1487 H1477 0.930 . S
C1487 C1480 1.409 . S
C1487 C1486 1.362 . S
H1488 C1494 0.930 . S
H1489 C1497 0.930 1_545 S
H1490 C1498 0.930 . S
H1491 C1499 0.930 . S
H1492 C1502 0.930 . S
H1493 C1503 0.930 . S
C1494 H1488 0.930 . S
C1494 C1495 1.355 . S
C1494 C1496 1.415 . S
C1495 C1494 1.355 . S
C1495 C1497 1.419 . S
C1496 C1494 1.415 . S
C1496 C1501 1.425 . S
C1496 C1503 1.409 . S
C1497 H1489 0.930 1_565 S
C1497 C1495 1.419 . S
C1497 C1498 1.362 . S
C1498 H1490 0.930 . S
C1498 C1497 1.362 . S
C1498 C1501 1.409 . S
C1499 H1491 0.930 . S
C1499 C1500 1.355 . S
C1499 C1501 1.415 . S
C1500 C1499 1.355 . S
C1500 C1502 1.419 . S
C1501 C1496 1.425 . S
C1501 C1498 1.409 . S
C1501 C1499 1.415 . S
C1502 H1492 0.930 . S
C1502 C1500 1.419 . S
C1502 C1503 1.362 . S
C1503 H1493 0.930 . S
C1503 C1496 1.409 . S
C1503 C1502 1.362 . S
H1504 C1510 0.930 . S
H1505 C1513 0.930 . S
H1506 C1514 0.930 . S
H1507 C1515 0.930 . S
H1508 C1518 0.930 . S
H1509 C1519 0.930 . S
C1510 H1504 0.930 . S
C1510 C1511 1.355 . S
C1510 C1512 1.415 . S
C1511 C1510 1.355 . S
C1511 C1513 1.419 . S
C1512 C1510 1.415 . S
C1512 C1517 1.425 . S
C1512 C1519 1.409 . S
C1513 H1505 0.930 . S
C1513 C1511 1.419 . S
C1513 C1514 1.362 . S
C1514 H1506 0.930 . S
C1514 C1513 1.362 . S
C1514 C1517 1.409 . S
C1515 H1507 0.930 . S
C1515 C1516 1.355 . S
C1515 C1517 1.415 . S
C1516 C1515 1.355 . S
C1516 C1518 1.419 . S
C1517 C1512 1.425 . S
C1517 C1514 1.409 . S
C1517 C1515 1.415 . S
C1518 H1508 0.930 . S
C1518 C1516 1.419 . S
C1518 C1519 1.362 . S
C1519 H1509 0.930 . S
C1519 C1512 1.409 . S
C1519 C1518 1.362 . S
H1520 C1526 0.930 . S
H1521 C1529 0.930 . S
H1522 C1530 0.930 . S
H1523 C1531 0.930 . S
H1524 C1534 0.930 . S
H1525 C1535 0.930 . S
C1526 H1520 0.930 . S
C1526 C1527 1.355 . S
C1526 C1528 1.415 . S
C1527 C1526 1.355 . S
C1527 C1529 1.419 . S
C1528 C1526 1.415 . S
C1528 C1533 1.425 . S
C1528 C1535 1.409 . S
C1529 H1521 0.930 . S
C1529 C1527 1.419 . S
C1529 C1530 1.362 . S
C1530 H1522 0.930 . S
C1530 C1529 1.362 . S
C1530 C1533 1.409 . S
C1531 H1523 0.930 . S
C1531 C1532 1.355 . S
C1531 C1533 1.415 . S
C1532 C1531 1.355 . S
C1532 C1534 1.419 . S
C1533 C1528 1.425 . S
C1533 C1530 1.409 . S
C1533 C1531 1.415 . S
C1534 H1524 0.930 . S
C1534 C1532 1.419 . S
C1534 C1535 1.362 . S
C1535 H1525 0.930 . S
C1535 C1528 1.409 . S
C1535 C1534 1.362 . S
H1536 C1542 0.930 . S
H1537 C1545 0.930 . S
H1538 C1546 0.930 . S
H1539 C1547 0.930 . S
H1540 C1550 0.930 . S
H1541 C1551 0.930 . S
C1542 H1536 0.930 . S
C1542 C1543 1.355 . S
C1542 C1544 1.415 . S
C1543 C1542 1.355 . S
C1543 C1545 1.419 . S
C1544 C1542 1.415 . S
C1544 C1549 1.425 . S
C1544 C1551 1.409 . S
C1545 H1537 0.930 . S
C1545 C1543 1.419 . S
C1545 C1546 1.362 . S
C1546 H1538 0.930 . S
C1546 C1545 1.362 . S
C1546 C1549 1.409 . S
C1547 H1539 0.930 . S
C1547 C1548 1.355 . S
C1547 C1549 1.415 . S
C1548 C1547 1.355 . S
C1548 C1550 1.419 . S
C1549 C1544 1.425 . S
C1549 C1546 1.409 . S
C1549 C1547 1.415 . S
C1550 H1540 0.930 . S
C1550 C1548 1.419 . S
C1550 C1551 1.362 . S
C1551 H1541 0.930 . S
C1551 C1544 1.409 . S
C1551 C1550 1.362 . S
H1552 C1558 0.930 . S
H1553 C1561 0.930 . S
H1554 C1562 0.930 . S
H1555 C1563 0.930 . S
H1556 C1566 0.930 . S
H1557 C1567 0.930 . S
C1558 H1552 0.930 . S
C1558 C1559 1.355 . S
C1558 C1560 1.415 . S
C1559 C1558 1.355 . S
C1559 C1561 1.419 . S
C1560 C1558 1.415 . S
C1560 C1565 1.425 . S
C1560 C1567 1.409 . S
C1561 H1553 0.930 . S
C1561 C1559 1.419 . S
C1561 C1562 1.362 . S
C1562 H1554 0.930 . S
C1562 C1561 1.362 . S
C1562 C1565 1.409 . S
C1563 H1555 0.930 . S
C1563 C1564 1.355 . S
C1563 C1565 1.415 . S
C1564 C1563 1.355 . S
C1564 C1566 1.419 . S
C1565 C1560 1.425 . S
C1565 C1562 1.409 . S
C1565 C1563 1.415 . S
C1566 H1556 0.930 . S
C1566 C1564 1.419 . S
C1566 C1567 1.362 . S
C1567 H1557 0.930 . S
C1567 C1560 1.409 . S
C1567 C1566 1.362 . S
H1568 C1574 0.930 . S
H1569 C1577 0.930 . S
H1570 C1578 0.930 . S
H1571 C1579 0.930 . S
H1572 C1582 0.930 . S
H1573 C1583 0.930 . S
C1574 H1568 0.930 . S
C1574 C1575 1.355 . S
C1574 C1576 1.415 . S
C1575 C1574 1.355 . S
C1575 C1577 1.419 . S
C1576 C1574 1.415 . S
C1576 C1581 1.425 . S
C1576 C1583 1.409 . S
C1577 H1569 0.930 . S
C1577 C1575 1.419 . S
C1577 C1578 1.362 . S
C1578 H1570 0.930 . S
C1578 C1577 1.362 . S
C1578 C1581 1.409 . S
C1579 H1571 0.930 . S
C1579 C1580 1.355 . S
C1579 C1581 1.415 . S
C1580 C1579 1.355 . S
C1580 C1582 1.419 . S
C1581 C1576 1.425 . S
C1581 C1578 1.409 . S
C1581 C1579 1.415 . S
C1582 H1572 0.930 . S
C1582 C1580 1.419 . S
C1582 C1583 1.362 . S
C1583 H1573 0.930 . S
C1583 C1576 1.409 . S
C1583 C1582 1.362 . S
H1584 C1590 0.930 . S
H1585 C1593 0.930 . S
H1586 C1594 0.930 . S
H1587 C1595 0.930 . S
H1588 C1598 0.930 . S
H1589 C1599 0.930 . S
C1590 H1584 0.930 . S
C1590 C1591 1.355 . S
C1590 C1592 1.415 . S
C1591 C1590 1.355 . S
C1591 C1593 1.419 . S
C1592 C1590 1.415 . S
C1592 C1597 1.425 . S
C1592 C1599 1.409 . S
C1593 H1585 0.930 . S
C1593 C1591 1.419 . S
C1593 C1594 1.362 . S
C1594 H1586 0.930 . S
C1594 C1593 1.362 . S
C1594 C1597 1.409 . S
C1595 H1587 0.930 . S
C1595 C1596 1.355 . S
C1595 C1597 1.415 . S
C1596 C1595 1.355 . S
C1596 C1598 1.419 . S
C1597 C1592 1.425 . S
C1597 C1594 1.409 . S
C1597 C1595 1.415 . S
C1598 H1588 0.930 . S
C1598 C1596 1.419 . S
C1598 C1599 1.362 . S
C1599 H1589 0.930 . S
C1599 C1592 1.409 . S
C1599 C1598 1.362 . S
H1600 C1606 0.930 . S
H1601 C1609 0.930 . S
H1602 C1610 0.930 . S
H1603 C1611 0.930 . S
H1604 C1614 0.930 . S
H1605 C1615 0.930 . S
C1606 H1600 0.930 . S
C1606 C1607 1.355 . S
C1606 C1608 1.415 . S
C1607 C1606 1.355 . S
C1607 C1609 1.419 . S
C1608 C1606 1.415 . S
C1608 C1613 1.425 . S
C1608 C1615 1.409 . S
C1609 H1601 0.930 . S
C1609 C1607 1.419 . S
C1609 C1610 1.362 . S
C1610 H1602 0.930 . S
C1610 C1609 1.362 . S
C1610 C1613 1.409 . S
C1611 H1603 0.930 . S
C1611 C1612 1.355 . S
C1611 C1613 1.415 . S
C1612 C1611 1.355 . S
C1612 C1614 1.419 . S
C1613 C1608 1.425 . S
C1613 C1610 1.409 . S
C1613 C1611 1.415 . S
C1614 H1604 0.930 . S
C1614 C1612 1.419 . S
C1614 C1615 1.362 . S
C1615 H1605 0.930 . S
C1615 C1608 1.409 . S
C1615 C1614 1.362 . S
H1616 C1622 0.930 . S
H1617 C1625 0.930 . S
H1618 C1626 0.930 . S
H1619 C1627 0.930 . S
H1620 C1630 0.930 . S
H1621 C1631 0.930 . S
C1622 H1616 0.930 . S
C1622 C1623 1.355 . S
C1622 C1624 1.415 . S
C1623 C1622 1.355 . S
C1623 C1625 1.419 . S
C1624 C1622 1.415 . S
C1624 C1629 1.425 . S
C1624 C1631 1.409 . S
C1625 H1617 0.930 . S
C1625 C1623 1.419 . S
C1625 C1626 1.362 . S
C1626 H1618 0.930 . S
C1626 C1625 1.362 . S
C1626 C1629 1.409 . S
C1627 H1619 0.930 . S
C1627 C1628 1.355 . S
C1627 C1629 1.415 . S
C1628 C1627 1.355 . S
C1628 C1630 1.419 . S
C1629 C1624 1.425 . S
C1629 C1626 1.409 . S
C1629 C1627 1.415 . S
C1630 H1620 0.930 . S
C1630 C1628 1.419 . S
C1630 C1631 1.362 . S
C1631 H1621 0.930 . S
C1631 C1624 1.409 . S
C1631 C1630 1.362 . S
H1632 C1638 0.930 . S
H1633 C1641 0.930 . S
H1634 C1642 0.930 . S
H1635 C1643 0.930 . S
H1636 C1646 0.930 . S
H1637 C1647 0.930 . S
C1638 H1632 0.930 . S
C1638 C1639 1.355 . S
C1638 C1640 1.415 . S
C1639 C1638 1.355 . S
C1639 C1641 1.419 . S
C1640 C1638 1.415 . S
C1640 C1645 1.425 . S
C1640 C1647 1.409 . S
C1641 H1633 0.930 . S
C1641 C1639 1.419 . S
C1641 C1642 1.362 . S
C1642 H1634 0.930 . S
C1642 C1641 1.362 . S
C1642 C1645 1.409 . S
C1643 H1635 0.930 . S
C1643 C1644 1.355 . S
C1643 C1645 1.415 . S
C1644 C1643 1.355 . S
C1644 C1646 1.419 . S
C1645 C1640 1.425 . S
C1645 C1642 1.409 . S
C1645 C1643 1.415 . S
C1646 H1636 0.930 . S
C1646 C1644 1.419 . S
C1646 C1647 1.362 . S
C1647 H1637 0.930 . S
C1647 C1640 1.409 . S
C1647 C1646 1.362 . S
H1648 C1654 0.930 . S
H1649 C1657 0.930 . S
H1650 C1658 0.930 . S
H1651 C1659 0.930 . S
H1652 C1662 0.930 . S
H1653 C1663 0.930 . S
C1654 H1648 0.930 . S
C1654 C1655 1.355 . S
C1654 C1656 1.415 . S
C1655 C1654 1.355 . S
C1655 C1657 1.419 . S
C1656 C1654 1.415 . S
C1656 C1661 1.425 . S
C1656 C1663 1.409 . S
C1657 H1649 0.930 . S
C1657 C1655 1.419 . S
C1657 C1658 1.362 . S
C1658 H1650 0.930 . S
C1658 C1657 1.362 . S
C1658 C1661 1.409 . S
C1659 H1651 0.930 . S
C1659 C1660 1.355 . S
C1659 C1661 1.415 . S
C1660 C1659 1.355 . S
C1660 C1662 1.419 . S
C1661 C1656 1.425 . S
C1661 C1658 1.409 . S
C1661 C1659 1.415 . S
C1662 H1652 0.930 . S
C1662 C1660 1.419 . S
C1662 C1663 1.362 . S
C1663 H1653 0.930 . S
C1663 C1656 1.409 . S
C1663 C1662 1.362 . S
H1664 C1670 0.930 . S
H1665 C1673 0.930 . S
H1666 C1674 0.930 . S
H1667 C1675 0.930 . S
H1668 C1678 0.930 . S
H1669 C1679 0.930 . S
C1670 H1664 0.930 . S
C1670 C1671 1.355 . S
C1670 C1672 1.415 . S
C1671 C1670 1.355 . S
C1671 C1673 1.419 . S
C1672 C1670 1.415 . S
C1672 C1677 1.425 . S
C1672 C1679 1.409 . S
C1673 H1665 0.930 . S
C1673 C1671 1.419 . S
C1673 C1674 1.362 . S
C1674 H1666 0.930 . S
C1674 C1673 1.362 . S
C1674 C1677 1.409 . S
C1675 H1667 0.930 . S
C1675 C1676 1.355 . S
C1675 C1677 1.415 . S
C1676 C1675 1.355 . S
C1676 C1678 1.419 . S
C1677 C1672 1.425 . S
C1677 C1674 1.409 . S
C1677 C1675 1.415 . S
C1678 H1668 0.930 . S
C1678 C1676 1.419 . S
C1678 C1679 1.362 . S
C1679 H1669 0.930 . S
C1679 C1672 1.409 . S
C1679 C1678 1.362 . S
H1680 C1686 0.930 . S
H1681 C1689 0.930 . S
H1682 C1690 0.930 . S
H1683 C1691 0.930 . S
H1684 C1694 0.930 . S
H1685 C1695 0.930 . S
C1686 H1680 0.930 . S
C1686 C1687 1.355 . S
C1686 C1688 1.415 . S
C1687 C1686 1.355 . S
C1687 C1689 1.419 . S
C1688 C1686 1.415 . S
C1688 C1693 1.425 . S
C1688 C1695 1.409 . S
C1689 H1681 0.930 . S
C1689 C1687 1.419 . S
C1689 C1690 1.362 . S
C1690 H1682 0.930 . S
C1690 C1689 1.362 . S
C1690 C1693 1.409 . S
C1691 H1683 0.930 . S
C1691 C1692 1.355 . S
C1691 C1693 1.415 . S
C1692 C1691 1.355 . S
C1692 C1694 1.419 . S
C1693 C1688 1.425 . S
C1693 C1690 1.409 . S
C1693 C1691 1.415 . S
C1694 H1684 0.930 . S
C1694 C1692 1.419 . S
C1694 C1695 1.362 . S
C1695 H1685 0.930 . S
C1695 C1688 1.409 . S
C1695 C1694 1.362 . S
H1696 C1702 0.930 . S
H1697 C1705 0.930 . S
H1698 C1706 0.930 . S
H1699 C1707 0.930 . S
H1700 C1710 0.930 . S
H1701 C1711 0.930 . S
C1702 H1696 0.930 . S
C1702 C1703 1.355 . S
C1702 C1704 1.415 . S
C1703 C1702 1.355 . S
C1703 C1705 1.419 . S
C1704 C1702 1.415 . S
C1704 C1709 1.425 . S
C1704 C1711 1.409 . S
C1705 H1697 0.930 . S
C1705 C1703 1.419 . S
C1705 C1706 1.362 . S
C1706 H1698 0.930 . S
C1706 C1705 1.362 . S
C1706 C1709 1.409 . S
C1707 H1699 0.930 . S
C1707 C1708 1.355 . S
C1707 C1709 1.415 . S
C1708 C1707 1.355 . S
C1708 C1710 1.419 . S
C1709 C1704 1.425 . S
C1709 C1706 1.409 . S
C1709 C1707 1.415 . S
C1710 H1700 0.930 . S
C1710 C1708 1.419 . S
C1710 C1711 1.362 . S
C1711 H1701 0.930 . S
C1711 C1704 1.409 . S
C1711 C1710 1.362 . S
H1712 C1718 0.930 . S
H1713 C1721 0.930 . S
H1714 C1722 0.930 . S
H1715 C1723 0.930 . S
H1716 C1726 0.930 . S
H1717 C1727 0.930 . S
C1718 H1712 0.930 . S
C1718 C1719 1.355 . S
C1718 C1720 1.415 . S
C1719 C1718 1.355 . S
C1719 C1721 1.419 . S
C1720 C1718 1.415 . S
C1720 C1725 1.425 . S
C1720 C1727 1.409 . S
C1721 H1713 0.930 . S
C1721 C1719 1.419 . S
C1721 C1722 1.362 . S
C1722 H1714 0.930 . S
C1722 C1721 1.362 . S
C1722 C1725 1.409 . S
C1723 H1715 0.930 . S
C1723 C1724 1.355 . S
C1723 C1725 1.415 . S
C1724 C1723 1.355 . S
C1724 C1726 1.419 . S
C1725 C1720 1.425 . S
C1725 C1722 1.409 . S
C1725 C1723 1.415 . S
C1726 H1716 0.930 . S
C1726 C1724 1.419 . S
C1726 C1727 1.362 . S
C1727 H1717 0.930 . S
C1727 C1720 1.409 . S
C1727 C1726 1.362 . S
H1728 C1734 0.930 . S
H1729 C1737 0.930 . S
H1730 C1738 0.930 . S
H1731 C1739 0.930 . S
H1732 C1742 0.930 . S
H1733 C1743 0.930 . S
C1734 H1728 0.930 . S
C1734 C1735 1.355 . S
C1734 C1736 1.415 . S
C1735 C1734 1.355 . S
C1735 C1737 1.419 . S
C1736 C1734 1.415 . S
C1736 C1741 1.425 . S
C1736 C1743 1.409 . S
C1737 H1729 0.930 . S
C1737 C1735 1.419 . S
C1737 C1738 1.362 . S
C1738 H1730 0.930 . S
C1738 C1737 1.362 . S
C1738 C1741 1.409 . S
C1739 H1731 0.930 . S
C1739 C1740 1.355 . S
C1739 C1741 1.415 . S
C1740 C1739 1.355 . S
C1740 C1742 1.419 . S
C1741 C1736 1.425 . S
C1741 C1738 1.409 . S
C1741 C1739 1.415 . S
C1742 H1732 0.930 . S
C1742 C1740 1.419 . S
C1742 C1743 1.362 . S
C1743 H1733 0.930 . S
C1743 C1736 1.409 . S
C1743 C1742 1.362 . S
H1744 C1750 0.930 . S
H1745 C1753 0.930 . S
H1746 C1754 0.930 . S
H1747 C1755 0.930 . S
H1748 C1758 0.930 . S
H1749 C1759 0.930 . S
C1750 H1744 0.930 . S
C1750 C1751 1.355 . S
C1750 C1752 1.415 . S
C1751 C1750 1.355 . S
C1751 C1753 1.419 . S
C1752 C1750 1.415 . S
C1752 C1757 1.425 . S
C1752 C1759 1.409 . S
C1753 H1745 0.930 . S
C1753 C1751 1.419 . S
C1753 C1754 1.362 . S
C1754 H1746 0.930 . S
C1754 C1753 1.362 . S
C1754 C1757 1.409 . S
C1755 H1747 0.930 . S
C1755 C1756 1.355 . S
C1755 C1757 1.415 . S
C1756 C1755 1.355 . S
C1756 C1758 1.419 . S
C1757 C1752 1.425 . S
C1757 C1754 1.409 . S
C1757 C1755 1.415 . S
C1758 H1748 0.930 . S
C1758 C1756 1.419 . S
C1758 C1759 1.362 . S
C1759 H1749 0.930 . S
C1759 C1752 1.409 . S
C1759 C1758 1.362 . S
H1760 C1766 0.930 . S
H1761 C1769 0.930 . S
H1762 C1770 0.930 . S
H1763 C1771 0.930 . S
H1764 C1774 0.930 . S
H1765 C1775 0.930 . S
C1766 H1760 0.930 . S
C1766 C1767 1.355 . S
C1766 C1768 1.415 . S
C1767 C1766 1.355 . S
C1767 C1769 1.419 . S
C1768 C1766 1.415 . S
C1768 C1773 1.425 . S
C1768 C1775 1.409 . S
C1769 H1761 0.930 . S
C1769 C1767 1.419 . S
C1769 C1770 1.362 . S
C1770 H1762 0.930 . S
C1770 C1769 1.362 . S
C1770 C1773 1.409 . S
C1771 H1763 0.930 . S
C1771 C1772 1.355 . S
C1771 C1773 1.415 . S
C1772 C1771 1.355 . S
C1772 C1774 1.419 . S
C1773 C1768 1.425 . S
C1773 C1770 1.409 . S
C1773 C1771 1.415 . S
C1774 H1764 0.930 . S
C1774 C1772 1.419 . S
C1774 C1775 1.362 . S
C1775 H1765 0.930 . S
C1775 C1768 1.409 . S
C1775 C1774 1.362 . S
H1776 C1782 0.930 . S
H1777 C1785 0.930 . S
H1778 C1786 0.930 . S
H1779 C1787 0.930 . S
H1780 C1790 0.930 . S
H1781 C1791 0.930 . S
C1782 H1776 0.930 . S
C1782 C1783 1.355 . S
C1782 C1784 1.415 . S
C1783 C1782 1.355 . S
C1783 C1785 1.419 . S
C1784 C1782 1.415 . S
C1784 C1789 1.425 . S
C1784 C1791 1.409 . S
C1785 H1777 0.930 . S
C1785 C1783 1.419 . S
C1785 C1786 1.362 . S
C1786 H1778 0.930 . S
C1786 C1785 1.362 . S
C1786 C1789 1.409 . S
C1787 H1779 0.930 . S
C1787 C1788 1.355 . S
C1787 C1789 1.415 . S
C1788 C1787 1.355 . S
C1788 C1790 1.419 . S
C1789 C1784 1.425 . S
C1789 C1786 1.409 . S
C1789 C1787 1.415 . S
C1790 H1780 0.930 . S
C1790 C1788 1.419 . S
C1790 C1791 1.362 . S
C1791 H1781 0.930 . S
C1791 C1784 1.409 . S
C1791 C1790 1.362 . S
H1792 C1798 0.930 . S
H1793 C1801 0.930 . S
H1794 C1802 0.930 . S
H1795 C1803 0.930 . S
H1796 C1806 0.930 . S
H1797 C1807 0.930 . S
C1798 H1792 0.930 . S
C1798 C1799 1.355 . S
C1798 C1800 1.415 . S
C1799 C1798 1.355 . S
C1799 C1801 1.419 . S
C1800 C1798 1.415 . S
C1800 C1805 1.425 . S
C1800 C1807 1.409 . S
C1801 H1793 0.930 . S
C1801 C1799 1.419 . S
C1801 C1802 1.362 . S
C1802 H1794 0.930 . S
C1802 C1801 1.362 . S
C1802 C1805 1.409 . S
C1803 H1795 0.930 . S
C1803 C1804 1.355 . S
C1803 C1805 1.415 . S
C1804 C1803 1.355 . S
C1804 C1806 1.419 . S
C1805 C1800 1.425 . S
C1805 C1802 1.409 . S
C1805 C1803 1.415 . S
C1806 H1796 0.930 . S
C1806 C1804 1.419 . S
C1806 C1807 1.362 . S
C1807 H1797 0.930 . S
C1807 C1800 1.409 . S
C1807 C1806 1.362 . S
H1808 C1814 0.930 . S
H1809 C1817 0.930 . S
H1810 C1818 0.930 . S
H1811 C1819 0.930 . S
H1812 C1822 0.930 . S
H1813 C1823 0.930 . S
C1814 H1808 0.930 . S
C1814 C1815 1.355 . S
C1814 C1816 1.415 . S
C1815 C1814 1.355 . S
C1815 C1817 1.419 . S
C1816 C1814 1.415 . S
C1816 C1821 1.425 . S
C1816 C1823 1.409 . S
C1817 H1809 0.930 . S
C1817 C1815 1.419 . S
C1817 C1818 1.362 . S
C1818 H1810 0.930 . S
C1818 C1817 1.362 . S
C1818 C1821 1.409 . S
C1819 H1811 0.930 . S
C1819 C1820 1.355 . S
C1819 C1821 1.415 . S
C1820 C1819 1.355 . S
C1820 C1822 1.419 . S
C1821 C1816 1.425 . S
C1821 C1818 1.409 . S
C1821 C1819 1.415 . S
C1822 H1812 0.930 . S
C1822 C1820 1.419 . S
C1822 C1823 1.362 . S
C1823 H1813 0.930 . S
C1823 C1816 1.409 . S
C1823 C1822 1.362 . S
H1824 C1830 0.930 . S
H1825 C1833 0.930 . S
H1826 C1834 0.930 . S
H1827 C1835 0.930 . S
H1828 C1838 0.930 . S
H1829 C1839 0.930 . S
C1830 H1824 0.930 . S
C1830 C1831 1.355 . S
C1830 C1832 1.415 . S
C1831 C1830 1.355 . S
C1831 C1833 1.419 . S
C1832 C1830 1.415 . S
C1832 C1837 1.425 . S
C1832 C1839 1.409 . S
C1833 H1825 0.930 . S
C1833 C1831 1.419 . S
C1833 C1834 1.362 . S
C1834 H1826 0.930 . S
C1834 C1833 1.362 . S
C1834 C1837 1.409 . S
C1835 H1827 0.930 . S
C1835 C1836 1.355 . S
C1835 C1837 1.415 . S
C1836 C1835 1.355 . S
C1836 C1838 1.419 . S
C1837 C1832 1.425 . S
C1837 C1834 1.409 . S
C1837 C1835 1.415 . S
C1838 H1828 0.930 . S
C1838 C1836 1.419 . S
C1838 C1839 1.362 . S
C1839 H1829 0.930 . S
C1839 C1832 1.409 . S
C1839 C1838 1.362 . S
H1840 C1846 0.930 . S
H1841 C1849 0.930 . S
H1842 C1850 0.930 . S
H1843 C1851 0.930 . S
H1844 C1854 0.930 . S
H1845 C1855 0.930 . S
C1846 H1840 0.930 . S
C1846 C1847 1.355 . S
C1846 C1848 1.415 . S
C1847 C1846 1.355 . S
C1847 C1849 1.419 . S
C1848 C1846 1.415 . S
C1848 C1853 1.425 . S
C1848 C1855 1.409 . S
C1849 H1841 0.930 . S
C1849 C1847 1.419 . S
C1849 C1850 1.362 . S
C1850 H1842 0.930 . S
C1850 C1849 1.362 . S
C1850 C1853 1.409 . S
C1851 H1843 0.930 . S
C1851 C1852 1.355 . S
C1851 C1853 1.415 . S
C1852 C1851 1.355 . S
C1852 C1854 1.419 . S
C1853 C1848 1.425 . S
C1853 C1850 1.409 . S
C1853 C1851 1.415 . S
C1854 H1844 0.930 . S
C1854 C1852 1.419 . S
C1854 C1855 1.362 . S
C1855 H1845 0.930 . S
C1855 C1848 1.409 . S
C1855 C1854 1.362 . S
H1856 C1862 0.930 . S
H1857 C1865 0.930 . S
H1858 C1866 0.930 . S
H1859 C1867 0.930 . S
H1860 C1870 0.930 . S
H1861 C1871 0.930 . S
C1862 H1856 0.930 . S
C1862 C1863 1.355 . S
C1862 C1864 1.415 . S
C1863 C1862 1.355 . S
C1863 C1865 1.419 . S
C1864 C1862 1.415 . S
C1864 C1869 1.425 . S
C1864 C1871 1.409 . S
C1865 H1857 0.930 . S
C1865 C1863 1.419 . S
C1865 C1866 1.362 . S
C1866 H1858 0.930 . S
C1866 C1865 1.362 . S
C1866 C1869 1.409 . S
C1867 H1859 0.930 . S
C1867 C1868 1.355 . S
C1867 C1869 1.415 . S
C1868 C1867 1.355 . S
C1868 C1870 1.419 . S
C1869 C1864 1.425 . S
C1869 C1866 1.409 . S
C1869 C1867 1.415 . S
C1870 H1860 0.930 . S
C1870 C1868 1.419 . S
C1870 C1871 1.362 . S
C1871 H1861 0.930 . S
C1871 C1864 1.409 . S
C1871 C1870 1.362 . S
H1872 C1878 0.930 . S
H1873 C1881 0.930 . S
H1874 C1882 0.930 . S
H1875 C1883 0.930 . S
H1876 C1886 0.930 . S
H1877 C1887 0.930 . S
C1878 H1872 0.930 . S
C1878 C1879 1.355 . S
C1878 C1880 1.415 . S
C1879 C1878 1.355 . S
C1879 C1881 1.419 . S
C1880 C1878 1.415 . S
C1880 C1885 1.425 . S
C1880 C1887 1.409 . S
C1881 H1873 0.930 . S
C1881 C1879 1.419 . S
C1881 C1882 1.362 . S
C1882 H1874 0.930 . S
C1882 C1881 1.362 . S
C1882 C1885 1.409 . S
C1883 H1875 0.930 . S
C1883 C1884 1.355 . S
C1883 C1885 1.415 . S
C1884 C1883 1.355 . S
C1884 C1886 1.419 . S
C1885 C1880 1.425 . S
C1885 C1882 1.409 . S
C1885 C1883 1.415 . S
C1886 H1876 0.930 . S
C1886 C1884 1.419 . S
C1886 C1887 1.362 . S
C1887 H1877 0.930 . S
C1887 C1880 1.409 . S
C1887 C1886 1.362 . S
H1888 C1894 0.930 . S
H1889 C1897 0.930 . S
H1890 C1898 0.930 . S
H1891 C1899 0.930 . S
H1892 C1902 0.930 . S
H1893 C1903 0.930 . S
C1894 H1888 0.930 . S
C1894 C1895 1.355 . S
C1894 C1896 1.415 . S
C1895 C1894 1.355 . S
C1895 C1897 1.419 . S
C1896 C1894 1.415 . S
C1896 C1901 1.425 . S
C1896 C1903 1.409 . S
C1897 H1889 0.930 . S
C1897 C1895 1.419 . S
C1897 C1898 1.362 . S
C1898 H1890 0.930 . S
C1898 C1897 1.362 . S
C1898 C1901 1.409 . S
C1899 H1891 0.930 . S
C1899 C1900 1.355 . S
C1899 C1901 1.415 . S
C1900 C1899 1.355 . S
C1900 C1902 1.419 . S
C1901 C1896 1.425 . S
C1901 C1898 1.409 . S
C1901 C1899 1.415 . S
C1902 H1892 0.930 . S
C1902 C1900 1.419 . S
C1902 C1903 1.362 . S
C1903 H1893 0.930 . S
C1903 C1896 1.409 . S
C1903 C1902 1.362 . S
H1904 C1910 0.930 . S
H1905 C1913 0.930 . S
H1906 C1914 0.930 . S
H1907 C1915 0.930 . S
H1908 C1918 0.930 1_655 S
H1909 C1919 0.930 . S
C1910 H1904 0.930 . S
C1910 C1911 1.355 . S
C1910 C1912 1.415 . S
C1911 C1910 1.355 . S
C1911 C1913 1.419 . S
C1912 C1910 1.415 . S
C1912 C1917 1.425 . S
C1912 C1919 1.409 . S
C1913 H1905 0.930 . S
C1913 C1911 1.419 . S
C1913 C1914 1.362 . S
C1914 H1906 0.930 . S
C1914 C1913 1.362 . S
C1914 C1917 1.409 . S
C1915 H1907 0.930 . S
C1915 C1916 1.355 . S
C1915 C1917 1.415 . S
C1916 C1915 1.355 . S
C1916 C1918 1.419 . S
C1917 C1912 1.425 . S
C1917 C1914 1.409 . S
C1917 C1915 1.415 . S
C1918 H1908 0.930 1_455 S
C1918 C1916 1.419 . S
C1918 C1919 1.362 . S
C1919 H1909 0.930 . S
C1919 C1912 1.409 . S
C1919 C1918 1.362 . S
H1920 C1926 0.930 . S
H1921 C1929 0.930 . S
H1922 C1930 0.930 . S
H1923 C1931 0.930 . S
H1924 C1934 0.930 . S
H1925 C1935 0.930 . S
C1926 H1920 0.930 . S
C1926 C1927 1.355 . S
C1926 C1928 1.415 . S
C1927 C1926 1.355 . S
C1927 C1929 1.419 . S
C1928 C1926 1.415 . S
C1928 C1933 1.425 . S
C1928 C1935 1.409 . S
C1929 H1921 0.930 . S
C1929 C1927 1.419 . S
C1929 C1930 1.362 . S
C1930 H1922 0.930 . S
C1930 C1929 1.362 . S
C1930 C1933 1.409 . S
C1931 H1923 0.930 . S
C1931 C1932 1.355 . S
C1931 C1933 1.415 . S
C1932 C1931 1.355 . S
C1932 C1934 1.419 . S
C1933 C1928 1.425 . S
C1933 C1930 1.409 . S
C1933 C1931 1.415 . S
C1934 H1924 0.930 . S
C1934 C1932 1.419 . S
C1934 C1935 1.362 . S
C1935 H1925 0.930 . S
C1935 C1928 1.409 . S
C1935 C1934 1.362 . S
H1936 C1942 0.930 . S
H1937 C1945 0.930 . S
H1938 C1946 0.930 . S
H1939 C1947 0.930 . S
H1940 C1950 0.930 . S
H1941 C1951 0.930 . S
C1942 H1936 0.930 . S
C1942 C1943 1.355 . S
C1942 C1944 1.415 . S
C1943 C1942 1.355 . S
C1943 C1945 1.419 . S
C1944 C1942 1.415 . S
C1944 C1949 1.425 . S
C1944 C1951 1.409 . S
C1945 H1937 0.930 . S
C1945 C1943 1.419 . S
C1945 C1946 1.362 . S
C1946 H1938 0.930 . S
C1946 C1945 1.362 . S
C1946 C1949 1.409 . S
C1947 H1939 0.930 . S
C1947 C1948 1.355 . S
C1947 C1949 1.415 . S
C1948 C1947 1.355 . S
C1948 C1950 1.419 . S
C1949 C1944 1.425 . S
C1949 C1946 1.409 . S
C1949 C1947 1.415 . S
C1950 H1940 0.930 . S
C1950 C1948 1.419 . S
C1950 C1951 1.362 . S
C1951 H1941 0.930 . S
C1951 C1944 1.409 . S
C1951 C1950 1.362 . S
H1952 C1958 0.930 . S
H1953 C1961 0.930 . S
H1954 C1962 0.930 . S
H1955 C1963 0.930 . S
H1956 C1966 0.930 . S
H1957 C1967 0.930 . S
C1958 H1952 0.930 . S
C1958 C1959 1.355 . S
C1958 C1960 1.415 . S
C1959 C1958 1.355 . S
C1959 C1961 1.419 . S
C1960 C1958 1.415 . S
C1960 C1965 1.425 . S
C1960 C1967 1.409 . S
C1961 H1953 0.930 . S
C1961 C1959 1.419 . S
C1961 C1962 1.362 . S
C1962 H1954 0.930 . S
C1962 C1961 1.362 . S
C1962 C1965 1.409 . S
C1963 H1955 0.930 . S
C1963 C1964 1.355 . S
C1963 C1965 1.415 . S
C1964 C1963 1.355 . S
C1964 C1966 1.419 . S
C1965 C1960 1.425 . S
C1965 C1962 1.409 . S
C1965 C1963 1.415 . S
C1966 H1956 0.930 . S
C1966 C1964 1.419 . S
C1966 C1967 1.362 . S
C1967 H1957 0.930 . S
C1967 C1960 1.409 . S
C1967 C1966 1.362 . S
H1968 C1974 0.930 . S
H1969 C1977 0.930 . S
H1970 C1978 0.930 . S
H1971 C1979 0.930 . S
H1972 C1982 0.930 . S
H1973 C1983 0.930 . S
C1974 H1968 0.930 . S
C1974 C1975 1.355 . S
C1974 C1976 1.415 . S
C1975 C1974 1.355 . S
C1975 C1977 1.419 . S
C1976 C1974 1.415 . S
C1976 C1981 1.425 . S
C1976 C1983 1.409 . S
C1977 H1969 0.930 . S
C1977 C1975 1.419 . S
C1977 C1978 1.362 . S
C1978 H1970 0.930 . S
C1978 C1977 1.362 . S
C1978 C1981 1.409 . S
C1979 H1971 0.930 . S
C1979 C1980 1.355 . S
C1979 C1981 1.415 . S
C1980 C1979 1.355 . S
C1980 C1982 1.419 . S
C1981 C1976 1.425 . S
C1981 C1978 1.409 . S
C1981 C1979 1.415 . S
C1982 H1972 0.930 . S
C1982 C1980 1.419 . S
C1982 C1983 1.362 . S
C1983 H1973 0.930 . S
C1983 C1976 1.409 . S
C1983 C1982 1.362 . S
H1984 C1990 0.930 . S
H1985 C1993 0.930 . S
H1986 C1994 0.930 . S
H1987 C1995 0.930 . S
H1988 C1998 0.930 . S
H1989 C1999 0.930 . S
C1990 H1984 0.930 . S
C1990 C1991 1.355 . S
C1990 C1992 1.415 . S
C1991 C1990 1.355 . S
C1991 C1993 1.419 . S
C1992 C1990 1.415 . S
C1992 C1997 1.425 . S
C1992 C1999 1.409 . S
C1993 H1985 0.930 . S
C1993 C1991 1.419 . S
C1993 C1994 1.362 . S
C1994 H1986 0.930 . S
C1994 C1993 1.362 . S
C1994 C1997 1.409 . S
C1995 H1987 0.930 . S
C1995 C1996 1.355 . S
C1995 C1997 1.415 . S
C1996 C1995 1.355 . S
C1996 C1998 1.419 . S
C1997 C1992 1.425 . S
C1997 C1994 1.409 . S
C1997 C1995 1.415 . S
C1998 H1988 0.930 . S
C1998 C1996 1.419 . S
C1998 C1999 1.362 . S
C1999 H1989 0.930 . S
C1999 C1992 1.409 . S
C1999 C1998 1.362 . S
H2000 C2006 0.930 . S
H2001 C2009 0.930 . S
H2002 C2010 0.930 . S
H2003 C2011 0.930 . S
H2004 C2014 0.930 . S
H2005 C2015 0.930 . S
C2006 H2000 0.930 . S
C2006 C2007 1.355 . S
C2006 C2008 1.415 . S
C2007 C2006 1.355 . S
C2007 C2009 1.419 . S
C2008 C2006 1.415 . S
C2008 C2013 1.425 . S
C2008 C2015 1.409 . S
C2009 H2001 0.930 . S
C2009 C2007 1.419 . S
C2009 C2010 1.362 . S
C2010 H2002 0.930 . S
C2010 C2009 1.362 . S
C2010 C2013 1.409 . S
C2011 H2003 0.930 . S
C2011 C2012 1.355 . S
C2011 C2013 1.415 . S
C2012 C2011 1.355 . S
C2012 C2014 1.419 . S
C2013 C2008 1.425 . S
C2013 C2010 1.409 . S
C2013 C2011 1.415 . S
C2014 H2004 0.930 . S
C2014 C2012 1.419 . S
C2014 C2015 1.362 . S
C2015 H2005 0.930 . S
C2015 C2008 1.409 . S
C2015 C2014 1.362 . S
H2016 C2022 0.930 . S
H2017 C2025 0.930 . S
H2018 C2026 0.930 . S
H2019 C2027 0.930 . S
H2020 C2030 0.930 . S
H2021 C2031 0.930 . S
C2022 H2016 0.930 . S
C2022 C2023 1.355 . S
C2022 C2024 1.415 . S
C2023 C2022 1.355 . S
C2023 C2025 1.419 . S
C2024 C2022 1.415 . S
C2024 C2029 1.425 . S
C2024 C2031 1.409 . S
C2025 H2017 0.930 . S
C2025 C2023 1.419 . S
C2025 C2026 1.362 . S
C2026 H2018 0.930 . S
C2026 C2025 1.362 . S
C2026 C2029 1.409 . S
C2027 H2019 0.930 . S
C2027 C2028 1.355 . S
C2027 C2029 1.415 . S
C2028 C2027 1.355 . S
C2028 C2030 1.419 . S
C2029 C2024 1.425 . S
C2029 C2026 1.409 . S
C2029 C2027 1.415 . S
C2030 H2020 0.930 . S
C2030 C2028 1.419 . S
C2030 C2031 1.362 . S
C2031 H2021 0.930 . S
C2031 C2024 1.409 . S
C2031 C2030 1.362 . S
H2032 C2038 0.930 . S
H2033 C2041 0.930 . S
H2034 C2042 0.930 . S
H2035 C2043 0.930 . S
H2036 C2046 0.930 1_455 S
H2037 C2047 0.930 . S
C2038 H2032 0.930 . S
C2038 C2039 1.355 . S
C2038 C2040 1.415 . S
C2039 C2038 1.355 . S
C2039 C2041 1.419 . S
C2040 C2038 1.415 . S
C2040 C2045 1.425 . S
C2040 C2047 1.409 . S
C2041 H2033 0.930 . S
C2041 C2039 1.419 . S
C2041 C2042 1.362 . S
C2042 H2034 0.930 . S
C2042 C2041 1.362 . S
C2042 C2045 1.409 . S
C2043 H2035 0.930 . S
C2043 C2044 1.355 . S
C2043 C2045 1.415 . S
C2044 C2043 1.355 . S
C2044 C2046 1.419 . S
C2045 C2040 1.425 . S
C2045 C2042 1.409 . S
C2045 C2043 1.415 . S
C2046 H2036 0.930 1_655 S
C2046 C2044 1.419 . S
C2046 C2047 1.362 . S
C2047 H2037 0.930 . S
C2047 C2040 1.409 . S
C2047 C2046 1.362 . S
H2048 C2054 0.930 . S
H2049 C2057 0.930 . S
H2050 C2058 0.930 . S
H2051 C2059 0.930 . S
H2052 C2062 0.930 . S
H2053 C2063 0.930 . S
C2054 H2048 0.930 . S
C2054 C2055 1.355 . S
C2054 C2056 1.415 . S
C2055 C2054 1.355 . S
C2055 C2057 1.419 . S
C2056 C2054 1.415 . S
C2056 C2061 1.425 . S
C2056 C2063 1.409 . S
C2057 H2049 0.930 . S
C2057 C2055 1.419 . S
C2057 C2058 1.362 . S
C2058 H2050 0.930 . S
C2058 C2057 1.362 . S
C2058 C2061 1.409 . S
C2059 H2051 0.930 . S
C2059 C2060 1.355 . S
C2059 C2061 1.415 . S
C2060 C2059 1.355 . S
C2060 C2062 1.419 . S
C2061 C2056 1.425 . S
C2061 C2058 1.409 . S
C2061 C2059 1.415 . S
C2062 H2052 0.930 . S
C2062 C2060 1.419 . S
C2062 C2063 1.362 . S
C2063 H2053 0.930 . S
C2063 C2056 1.409 . S
C2063 C2062 1.362 . S
H2064 C2070 0.930 . S
H2065 C2073 0.930 . S
H2066 C2074 0.930 . S
H2067 C2075 0.930 . S
H2068 C2078 0.930 . S
H2069 C2079 0.930 . S
C2070 H2064 0.930 . S
C2070 C2071 1.355 . S
C2070 C2072 1.415 . S
C2071 C2070 1.355 . S
C2071 C2073 1.419 . S
C2072 C2070 1.415 . S
C2072 C2077 1.425 . S
C2072 C2079 1.409 . S
C2073 H2065 0.930 . S
C2073 C2071 1.419 . S
C2073 C2074 1.362 . S
C2074 H2066 0.930 . S
C2074 C2073 1.362 . S
C2074 C2077 1.409 . S
C2075 H2067 0.930 . S
C2075 C2076 1.355 . S
C2075 C2077 1.415 . S
C2076 C2075 1.355 . S
C2076 C2078 1.419 . S
C2077 C2072 1.425 . S
C2077 C2074 1.409 . S
C2077 C2075 1.415 . S
C2078 H2068 0.930 . S
C2078 C2076 1.419 . S
C2078 C2079 1.362 . S
C2079 H2069 0.930 . S
C2079 C2072 1.409 . S
C2079 C2078 1.362 . S
H2080 C2086 0.930 . S
H2081 C2089 0.930 . S
H2082 C2090 0.930 . S
H2083 C2091 0.930 . S
H2084 C2094 0.930 . S
H2085 C2095 0.930 . S
C2086 H2080 0.930 . S
C2086 C2087 1.355 . S
C2086 C2088 1.415 . S
C2087 C2086 1.355 . S
C2087 C2089 1.419 . S
C2088 C2086 1.415 . S
C2088 C2093 1.425 . S
C2088 C2095 1.409 . S
C2089 H2081 0.930 . S
C2089 C2087 1.419 . S
C2089 C2090 1.362 . S
C2090 H2082 0.930 . S
C2090 C2089 1.362 . S
C2090 C2093 1.409 . S
C2091 H2083 0.930 . S
C2091 C2092 1.355 . S
C2091 C2093 1.415 . S
C2092 C2091 1.355 . S
C2092 C2094 1.419 . S
C2093 C2088 1.425 . S
C2093 C2090 1.409 . S
C2093 C2091 1.415 . S
C2094 H2084 0.930 . S
C2094 C2092 1.419 . S
C2094 C2095 1.362 . S
C2095 H2085 0.930 . S
C2095 C2088 1.409 . S
C2095 C2094 1.362 . S
H2096 C2102 0.930 . S
H2097 C2105 0.930 . S
H2098 C2106 0.930 . S
H2099 C2107 0.930 . S
H2100 C2110 0.930 1_455 S
H2101 C2111 0.930 . S
C2102 H2096 0.930 . S
C2102 C2103 1.355 . S
C2102 C2104 1.415 . S
C2103 C2102 1.355 . S
C2103 C2105 1.419 . S
C2104 C2102 1.415 . S
C2104 C2109 1.425 . S
C2104 C2111 1.409 . S
C2105 H2097 0.930 . S
C2105 C2103 1.419 . S
C2105 C2106 1.362 . S
C2106 H2098 0.930 . S
C2106 C2105 1.362 . S
C2106 C2109 1.409 . S
C2107 H2099 0.930 . S
C2107 C2108 1.355 . S
C2107 C2109 1.415 . S
C2108 C2107 1.355 . S
C2108 C2110 1.419 . S
C2109 C2104 1.425 . S
C2109 C2106 1.409 . S
C2109 C2107 1.415 . S
C2110 H2100 0.930 1_655 S
C2110 C2108 1.419 . S
C2110 C2111 1.362 . S
C2111 H2101 0.930 . S
C2111 C2104 1.409 . S
C2111 C2110 1.362 . S
H2112 C2118 0.930 . S
H2113 C2121 0.930 . S
H2114 C2122 0.930 . S
H2115 C2123 0.930 . S
H2116 C2126 0.930 . S
H2117 C2127 0.930 . S
C2118 H2112 0.930 . S
C2118 C2119 1.355 . S
C2118 C2120 1.415 . S
C2119 C2118 1.355 . S
C2119 C2121 1.419 . S
C2120 C2118 1.415 . S
C2120 C2125 1.425 . S
C2120 C2127 1.409 . S
C2121 H2113 0.930 . S
C2121 C2119 1.419 . S
C2121 C2122 1.362 . S
C2122 H2114 0.930 . S
C2122 C2121 1.362 . S
C2122 C2125 1.409 . S
C2123 H2115 0.930 . S
C2123 C2124 1.355 . S
C2123 C2125 1.415 . S
C2124 C2123 1.355 . S
C2124 C2126 1.419 . S
C2125 C2120 1.425 . S
C2125 C2122 1.409 . S
C2125 C2123 1.415 . S
C2126 H2116 0.930 . S
C2126 C2124 1.419 . S
C2126 C2127 1.362 . S
C2127 H2117 0.930 . S
C2127 C2120 1.409 . S
C2127 C2126 1.362 . S
H2128 C2134 0.930 . S
H2129 C2137 0.930 . S
H2130 C2138 0.930 . S
H2131 C2139 0.930 . S
H2132 C2142 0.930 . S
H2133 C2143 0.930 . S
C2134 H2128 0.930 . S
C2134 C2135 1.355 . S
C2134 C2136 1.415 . S
C2135 C2134 1.355 . S
C2135 C2137 1.419 . S
C2136 C2134 1.415 . S
C2136 C2141 1.425 . S
C2136 C2143 1.409 . S
C2137 H2129 0.930 . S
C2137 C2135 1.419 . S
C2137 C2138 1.362 . S
C2138 H2130 0.930 . S
C2138 C2137 1.362 . S
C2138 C2141 1.409 . S
C2139 H2131 0.930 . S
C2139 C2140 1.355 . S
C2139 C2141 1.415 . S
C2140 C2139 1.355 . S
C2140 C2142 1.419 . S
C2141 C2136 1.425 . S
C2141 C2138 1.409 . S
C2141 C2139 1.415 . S
C2142 H2132 0.930 . S
C2142 C2140 1.419 . S
C2142 C2143 1.362 . S
C2143 H2133 0.930 . S
C2143 C2136 1.409 . S
C2143 C2142 1.362 . S
H2144 C2150 0.930 . S
H2145 C2153 0.930 . S
H2146 C2154 0.930 . S
H2147 C2155 0.930 . S
H2148 C2158 0.930 . S
H2149 C2159 0.930 . S
C2150 H2144 0.930 . S
C2150 C2151 1.355 . S
C2150 C2152 1.415 . S
C2151 C2150 1.355 . S
C2151 C2153 1.419 . S
C2152 C2150 1.415 . S
C2152 C2157 1.425 . S
C2152 C2159 1.409 . S
C2153 H2145 0.930 . S
C2153 C2151 1.419 . S
C2153 C2154 1.362 . S
C2154 H2146 0.930 . S
C2154 C2153 1.362 . S
C2154 C2157 1.409 . S
C2155 H2147 0.930 . S
C2155 C2156 1.355 . S
C2155 C2157 1.415 . S
C2156 C2155 1.355 . S
C2156 C2158 1.419 . S
C2157 C2152 1.425 . S
C2157 C2154 1.409 . S
C2157 C2155 1.415 . S
C2158 H2148 0.930 . S
C2158 C2156 1.419 . S
C2158 C2159 1.362 . S
C2159 H2149 0.930 . S
C2159 C2152 1.409 . S
C2159 C2158 1.362 . S
H2160 C2166 0.930 . S
H2161 C2169 0.930 . S
H2162 C2170 0.930 . S
H2163 C2171 0.930 . S
H2164 C2174 0.930 . S
H2165 C2175 0.930 . S
C2166 H2160 0.930 . S
C2166 C2167 1.355 . S
C2166 C2168 1.415 . S
C2167 C2166 1.355 . S
C2167 C2169 1.419 . S
C2168 C2166 1.415 . S
C2168 C2173 1.425 . S
C2168 C2175 1.409 . S
C2169 H2161 0.930 . S
C2169 C2167 1.419 . S
C2169 C2170 1.362 . S
C2170 H2162 0.930 . S
C2170 C2169 1.362 . S
C2170 C2173 1.409 . S
C2171 H2163 0.930 . S
C2171 C2172 1.355 . S
C2171 C2173 1.415 . S
C2172 C2171 1.355 . S
C2172 C2174 1.419 . S
C2173 C2168 1.425 . S
C2173 C2170 1.409 . S
C2173 C2171 1.415 . S
C2174 H2164 0.930 . S
C2174 C2172 1.419 . S
C2174 C2175 1.362 . S
C2175 H2165 0.930 . S
C2175 C2168 1.409 . S
C2175 C2174 1.362 . S
H2176 C2182 0.930 . S
H2177 C2185 0.930 . S
H2178 C2186 0.930 . S
H2179 C2187 0.930 . S
H2180 C2190 0.930 . S
H2181 C2191 0.930 . S
C2182 H2176 0.930 . S
C2182 C2183 1.355 . S
C2182 C2184 1.415 . S
C2183 C2182 1.355 . S
C2183 C2185 1.419 . S
C2184 C2182 1.415 . S
C2184 C2189 1.425 . S
C2184 C2191 1.409 . S
C2185 H2177 0.930 . S
C2185 C2183 1.419 . S
C2185 C2186 1.362 . S
C2186 H2178 0.930 . S
C2186 C2185 1.362 . S
C2186 C2189 1.409 . S
C2187 H2179 0.930 . S
C2187 C2188 1.355 . S
C2187 C2189 1.415 . S
C2188 C2187 1.355 . S
C2188 C2190 1.419 . S
C2189 C2184 1.425 . S
C2189 C2186 1.409 . S
C2189 C2187 1.415 . S
C2190 H2180 0.930 . S
C2190 C2188 1.419 . S
C2190 C2191 1.362 . S
C2191 H2181 0.930 . S
C2191 C2184 1.409 . S
C2191 C2190 1.362 . S
H2192 C2198 0.930 . S
H2193 C2201 0.930 . S
H2194 C2202 0.930 . S
H2195 C2203 0.930 . S
H2196 C2206 0.930 . S
H2197 C2207 0.930 . S
C2198 H2192 0.930 . S
C2198 C2199 1.355 . S
C2198 C2200 1.415 . S
C2199 C2198 1.355 . S
C2199 C2201 1.419 . S
C2200 C2198 1.415 . S
C2200 C2205 1.425 . S
C2200 C2207 1.409 . S
C2201 H2193 0.930 . S
C2201 C2199 1.419 . S
C2201 C2202 1.362 . S
C2202 H2194 0.930 . S
C2202 C2201 1.362 . S
C2202 C2205 1.409 . S
C2203 H2195 0.930 . S
C2203 C2204 1.355 . S
C2203 C2205 1.415 . S
C2204 C2203 1.355 . S
C2204 C2206 1.419 . S
C2205 C2200 1.425 . S
C2205 C2202 1.409 . S
C2205 C2203 1.415 . S
C2206 H2196 0.930 . S
C2206 C2204 1.419 . S
C2206 C2207 1.362 . S
C2207 H2197 0.930 . S
C2207 C2200 1.409 . S
C2207 C2206 1.362 . S
H2208 C2214 0.930 . S
H2209 C2217 0.930 . S
H2210 C2218 0.930 . S
H2211 C2219 0.930 . S
H2212 C2222 0.930 . S
H2213 C2223 0.930 . S
C2214 H2208 0.930 . S
C2214 C2215 1.355 . S
C2214 C2216 1.415 . S
C2215 C2214 1.355 . S
C2215 C2217 1.419 . S
C2216 C2214 1.415 . S
C2216 C2221 1.425 . S
C2216 C2223 1.409 . S
C2217 H2209 0.930 . S
C2217 C2215 1.419 . S
C2217 C2218 1.362 . S
C2218 H2210 0.930 . S
C2218 C2217 1.362 . S
C2218 C2221 1.409 . S
C2219 H2211 0.930 . S
C2219 C2220 1.355 . S
C2219 C2221 1.415 . S
C2220 C2219 1.355 . S
C2220 C2222 1.419 . S
C2221 C2216 1.425 . S
C2221 C2218 1.409 . S
C2221 C2219 1.415 . S
C2222 H2212 0.930 . S
C2222 C2220 1.419 . S
C2222 C2223 1.362 . S
C2223 H2213 0.930 . S
C2223 C2216 1.409 . S
C2223 C2222 1.362 . S
H2224 C2230 0.930 . S
H2225 C2233 0.930 . S
H2226 C2234 0.930 . S
H2227 C2235 0.930 . S
H2228 C2238 0.930 . S
H2229 C2239 0.930 . S
C2230 H2224 0.930 . S
C2230 C2231 1.355 . S
C2230 C2232 1.415 . S
C2231 C2230 1.355 . S
C2231 C2233 1.419 . S
C2232 C2230 1.415 . S
C2232 C2237 1.425 . S
C2232 C2239 1.409 . S
C2233 H2225 0.930 . S
C2233 C2231 1.419 . S
C2233 C2234 1.362 . S
C2234 H2226 0.930 . S
C2234 C2233 1.362 . S
C2234 C2237 1.409 . S
C2235 H2227 0.930 . S
C2235 C2236 1.355 . S
C2235 C2237 1.415 . S
C2236 C2235 1.355 . S
C2236 C2238 1.419 . S
C2237 C2232 1.425 . S
C2237 C2234 1.409 . S
C2237 C2235 1.415 . S
C2238 H2228 0.930 . S
C2238 C2236 1.419 . S
C2238 C2239 1.362 . S
C2239 H2229 0.930 . S
C2239 C2232 1.409 . S
C2239 C2238 1.362 . S
H2240 C2246 0.930 . S
H2241 C2249 0.930 . S
H2242 C2250 0.930 . S
H2243 C2251 0.930 . S
H2244 C2254 0.930 . S
H2245 C2255 0.930 . S
C2246 H2240 0.930 . S
C2246 C2247 1.355 . S
C2246 C2248 1.415 . S
C2247 C2246 1.355 . S
C2247 C2249 1.419 . S
C2248 C2246 1.415 . S
C2248 C2253 1.425 . S
C2248 C2255 1.409 . S
C2249 H2241 0.930 . S
C2249 C2247 1.419 . S
C2249 C2250 1.362 . S
C2250 H2242 0.930 . S
C2250 C2249 1.362 . S
C2250 C2253 1.409 . S
C2251 H2243 0.930 . S
C2251 C2252 1.355 . S
C2251 C2253 1.415 . S
C2252 C2251 1.355 . S
C2252 C2254 1.419 . S
C2253 C2248 1.425 . S
C2253 C2250 1.409 . S
C2253 C2251 1.415 . S
C2254 H2244 0.930 . S
C2254 C2252 1.419 . S
C2254 C2255 1.362 . S
C2255 H2245 0.930 . S
C2255 C2248 1.409 . S
C2255 C2254 1.362 . S
H2256 C2262 0.930 . S
H2257 C2265 0.930 . S
H2258 C2266 0.930 . S
H2259 C2267 0.930 . S
H2260 C2270 0.930 1_655 S
H2261 C2271 0.930 . S
C2262 H2256 0.930 . S
C2262 C2263 1.355 . S
C2262 C2264 1.415 . S
C2263 C2262 1.355 . S
C2263 C2265 1.419 . S
C2264 C2262 1.415 . S
C2264 C2269 1.425 . S
C2264 C2271 1.409 . S
C2265 H2257 0.930 . S
C2265 C2263 1.419 . S
C2265 C2266 1.362 . S
C2266 H2258 0.930 . S
C2266 C2265 1.362 . S
C2266 C2269 1.409 . S
C2267 H2259 0.930 . S
C2267 C2268 1.355 . S
C2267 C2269 1.415 . S
C2268 C2267 1.355 . S
C2268 C2270 1.419 . S
C2269 C2264 1.425 . S
C2269 C2266 1.409 . S
C2269 C2267 1.415 . S
C2270 H2260 0.930 1_455 S
C2270 C2268 1.419 . S
C2270 C2271 1.362 . S
C2271 H2261 0.930 . S
C2271 C2264 1.409 . S
C2271 C2270 1.362 . S
H2272 C2278 0.930 . S
H2273 C2281 0.930 . S
H2274 C2282 0.930 . S
H2275 C2283 0.930 . S
H2276 C2286 0.930 . S
H2277 C2287 0.930 . S
C2278 H2272 0.930 . S
C2278 C2279 1.355 . S
C2278 C2280 1.415 . S
C2279 C2278 1.355 . S
C2279 C2281 1.419 . S
C2280 C2278 1.415 . S
C2280 C2285 1.425 . S
C2280 C2287 1.409 . S
C2281 H2273 0.930 . S
C2281 C2279 1.419 . S
C2281 C2282 1.362 . S
C2282 H2274 0.930 . S
C2282 C2281 1.362 . S
C2282 C2285 1.409 . S
C2283 H2275 0.930 . S
C2283 C2284 1.355 . S
C2283 C2285 1.415 . S
C2284 C2283 1.355 . S
C2284 C2286 1.419 . S
C2285 C2280 1.425 . S
C2285 C2282 1.409 . S
C2285 C2283 1.415 . S
C2286 H2276 0.930 . S
C2286 C2284 1.419 . S
C2286 C2287 1.362 . S
C2287 H2277 0.930 . S
C2287 C2280 1.409 . S
C2287 C2286 1.362 . S
H2288 C2294 0.930 . S
H2289 C2297 0.930 . S
H2290 C2298 0.930 . S
H2291 C2299 0.930 . S
H2292 C2302 0.930 . S
H2293 C2303 0.930 . S
C2294 H2288 0.930 . S
C2294 C2295 1.355 . S
C2294 C2296 1.415 . S
C2295 C2294 1.355 . S
C2295 C2297 1.419 . S
C2296 C2294 1.415 . S
C2296 C2301 1.425 . S
C2296 C2303 1.409 . S
C2297 H2289 0.930 . S
C2297 C2295 1.419 . S
C2297 C2298 1.362 . S
C2298 H2290 0.930 . S
C2298 C2297 1.362 . S
C2298 C2301 1.409 . S
C2299 H2291 0.930 . S
C2299 C2300 1.355 . S
C2299 C2301 1.415 . S
C2300 C2299 1.355 . S
C2300 C2302 1.419 . S
C2301 C2296 1.425 . S
C2301 C2298 1.409 . S
C2301 C2299 1.415 . S
C2302 H2292 0.930 . S
C2302 C2300 1.419 . S
C2302 C2303 1.362 . S
C2303 H2293 0.930 . S
C2303 C2296 1.409 . S
C2303 C2302 1.362 . S
H2304 C2310 0.930 . S
H2305 C2313 0.930 . S
H2306 C2314 0.930 . S
H2307 C2315 0.930 . S
H2308 C2318 0.930 . S
H2309 C2319 0.930 . S
C2310 H2304 0.930 . S
C2310 C2311 1.355 . S
C2310 C2312 1.415 . S
C2311 C2310 1.355 . S
C2311 C2313 1.419 . S
C2312 C2310 1.415 . S
C2312 C2317 1.425 1_545 S
C2312 C2319 1.409 1_545 S
C2313 H2305 0.930 . S
C2313 C2311 1.419 . S
C2313 C2314 1.362 . S
C2314 H2306 0.930 . S
C2314 C2313 1.362 . S
C2314 C2317 1.409 1_545 S
C2315 H2307 0.930 . S
C2315 C2316 1.355 . S
C2315 C2317 1.415 . S
C2316 C2315 1.355 . S
C2316 C2318 1.419 . S
C2317 C2312 1.425 1_565 S
C2317 C2314 1.409 1_565 S
C2317 C2315 1.415 . S
C2318 H2308 0.930 . S
C2318 C2316 1.419 . S
C2318 C2319 1.362 . S
C2319 H2309 0.930 . S
C2319 C2312 1.409 1_565 S
C2319 C2318 1.362 . S
H2320 C2326 0.930 . S
H2321 C2329 0.930 . S
H2322 C2330 0.930 . S
H2323 C2331 0.930 . S
H2324 C2334 0.930 . S
H2325 C2335 0.930 . S
C2326 H2320 0.930 . S
C2326 C2327 1.355 . S
C2326 C2328 1.415 . S
C2327 C2326 1.355 . S
C2327 C2329 1.419 . S
C2328 C2326 1.415 . S
C2328 C2333 1.425 . S
C2328 C2335 1.409 . S
C2329 H2321 0.930 . S
C2329 C2327 1.419 . S
C2329 C2330 1.362 . S
C2330 H2322 0.930 . S
C2330 C2329 1.362 . S
C2330 C2333 1.409 . S
C2331 H2323 0.930 . S
C2331 C2332 1.355 . S
C2331 C2333 1.415 . S
C2332 C2331 1.355 . S
C2332 C2334 1.419 . S
C2333 C2328 1.425 . S
C2333 C2330 1.409 . S
C2333 C2331 1.415 . S
C2334 H2324 0.930 . S
C2334 C2332 1.419 . S
C2334 C2335 1.362 . S
C2335 H2325 0.930 . S
C2335 C2328 1.409 . S
C2335 C2334 1.362 . S
H2336 C2342 0.930 . S
H2337 C2345 0.930 . S
H2338 C2346 0.930 . S
H2339 C2347 0.930 . S
H2340 C2350 0.930 . S
H2341 C2351 0.930 . S
C2342 H2336 0.930 . S
C2342 C2343 1.355 . S
C2342 C2344 1.415 . S
C2343 C2342 1.355 . S
C2343 C2345 1.419 . S
C2344 C2342 1.415 . S
C2344 C2349 1.425 1_565 S
C2344 C2351 1.409 1_565 S
C2345 H2337 0.930 . S
C2345 C2343 1.419 . S
C2345 C2346 1.362 . S
C2346 H2338 0.930 . S
C2346 C2345 1.362 . S
C2346 C2349 1.409 1_565 S
C2347 H2339 0.930 . S
C2347 C2348 1.355 . S
C2347 C2349 1.415 . S
C2348 C2347 1.355 . S
C2348 C2350 1.419 . S
C2349 C2344 1.425 1_545 S
C2349 C2346 1.409 1_545 S
C2349 C2347 1.415 . S
C2350 H2340 0.930 . S
C2350 C2348 1.419 . S
C2350 C2351 1.362 . S
C2351 H2341 0.930 . S
C2351 C2344 1.409 1_545 S
C2351 C2350 1.362 . S
H2352 C2358 0.930 . S
H2353 C2361 0.930 . S
H2354 C2362 0.930 . S
H2355 C2363 0.930 . S
H2356 C2366 0.930 . S
H2357 C2367 0.930 . S
C2358 H2352 0.930 . S
C2358 C2359 1.355 1_556 S
C2358 C2360 1.415 . S
C2359 C2358 1.355 1_554 S
C2359 C2361 1.419 . S
C2360 C2358 1.415 . S
C2360 C2365 1.425 1_556 S
C2360 C2367 1.409 . S
C2361 H2353 0.930 . S
C2361 C2359 1.419 . S
C2361 C2362 1.362 . S
C2362 H2354 0.930 . S
C2362 C2361 1.362 . S
C2362 C2365 1.409 . S
C2363 H2355 0.930 . S
C2363 C2364 1.355 1_554 S
C2363 C2365 1.415 . S
C2364 C2363 1.355 1_556 S
C2364 C2366 1.419 . S
C2365 C2360 1.425 1_554 S
C2365 C2362 1.409 . S
C2365 C2363 1.415 . S
C2366 H2356 0.930 . S
C2366 C2364 1.419 . S
C2366 C2367 1.362 . S
C2367 H2357 0.930 . S
C2367 C2360 1.409 . S
C2367 C2366 1.362 . S
H2368 C2374 0.930 . S
H2369 C2377 0.930 . S
H2370 C2378 0.930 . S
H2371 C2379 0.930 . S
H2372 C2382 0.930 . S
H2373 C2383 0.930 . S
C2374 H2368 0.930 . S
C2374 C2375 1.355 . S
C2374 C2376 1.415 . S
C2375 C2374 1.355 . S
C2375 C2377 1.419 . S
C2376 C2374 1.415 . S
C2376 C2381 1.425 1_545 S
C2376 C2383 1.409 1_545 S
C2377 H2369 0.930 . S
C2377 C2375 1.419 . S
C2377 C2378 1.362 . S
C2378 H2370 0.930 . S
C2378 C2377 1.362 . S
C2378 C2381 1.409 1_545 S
C2379 H2371 0.930 . S
C2379 C2380 1.355 . S
C2379 C2381 1.415 . S
C2380 C2379 1.355 . S
C2380 C2382 1.419 . S
C2381 C2376 1.425 1_565 S
C2381 C2378 1.409 1_565 S
C2381 C2379 1.415 . S
C2382 H2372 0.930 . S
C2382 C2380 1.419 . S
C2382 C2383 1.362 . S
C2383 H2373 0.930 . S
C2383 C2376 1.409 1_565 S
C2383 C2382 1.362 . S
H2384 C2390 0.930 . S
H2385 C2393 0.930 . S
H2386 C2394 0.930 . S
H2387 C2395 0.930 . S
H2388 C2398 0.930 . S
H2389 C2399 0.930 . S
C2390 H2384 0.930 . S
C2390 C2391 1.355 . S
C2390 C2392 1.415 . S
C2391 C2390 1.355 . S
C2391 C2393 1.419 . S
C2392 C2390 1.415 . S
C2392 C2397 1.425 . S
C2392 C2399 1.409 . S
C2393 H2385 0.930 . S
C2393 C2391 1.419 . S
C2393 C2394 1.362 . S
C2394 H2386 0.930 . S
C2394 C2393 1.362 . S
C2394 C2397 1.409 . S
C2395 H2387 0.930 . S
C2395 C2396 1.355 . S
C2395 C2397 1.415 . S
C2396 C2395 1.355 . S
C2396 C2398 1.419 . S
C2397 C2392 1.425 . S
C2397 C2394 1.409 . S
C2397 C2395 1.415 . S
C2398 H2388 0.930 . S
C2398 C2396 1.419 . S
C2398 C2399 1.362 . S
C2399 H2389 0.930 . S
C2399 C2392 1.409 . S
C2399 C2398 1.362 . S
H2400 C2406 0.930 . S
H2401 C2409 0.930 . S
H2402 C2410 0.930 . S
H2403 C2411 0.930 . S
H2404 C2414 0.930 . S
H2405 C2415 0.930 . S
C2406 H2400 0.930 . S
C2406 C2407 1.355 . S
C2406 C2408 1.415 . S
C2407 C2406 1.355 . S
C2407 C2409 1.419 . S
C2408 C2406 1.415 . S
C2408 C2413 1.425 1_545 S
C2408 C2415 1.409 1_545 S
C2409 H2401 0.930 . S
C2409 C2407 1.419 . S
C2409 C2410 1.362 . S
C2410 H2402 0.930 . S
C2410 C2409 1.362 . S
C2410 C2413 1.409 1_545 S
C2411 H2403 0.930 . S
C2411 C2412 1.355 . S
C2411 C2413 1.415 . S
C2412 C2411 1.355 . S
C2412 C2414 1.419 . S
C2413 C2408 1.425 1_565 S
C2413 C2410 1.409 1_565 S
C2413 C2411 1.415 . S
C2414 H2404 0.930 . S
C2414 C2412 1.419 . S
C2414 C2415 1.362 . S
C2415 H2405 0.930 . S
C2415 C2408 1.409 1_565 S
C2415 C2414 1.362 . S
H2416 C2422 0.930 . S
H2417 C2425 0.930 . S
H2418 C2426 0.930 . S
H2419 C2427 0.930 . S
H2420 C2430 0.930 . S
H2421 C2431 0.930 . S
C2422 H2416 0.930 . S
C2422 C2423 1.324 1_554 S
C2422 C2424 1.415 . S
C2423 C2422 1.324 1_556 S
C2423 C2425 1.459 . S
C2424 C2422 1.415 . S
C2424 C2429 1.425 1_554 S
C2424 C2431 1.409 . S
C2425 H2417 0.930 . S
C2425 C2423 1.459 . S
C2425 C2426 1.362 . S
C2426 H2418 0.930 . S
C2426 C2425 1.362 . S
C2426 C2429 1.409 . S
C2427 H2419 0.930 . S
C2427 C2428 1.324 1_556 S
C2427 C2429 1.415 . S
C2428 C2427 1.324 1_554 S
C2428 C2430 1.459 . S
C2429 C2424 1.425 1_556 S
C2429 C2426 1.409 . S
C2429 C2427 1.415 . S
C2430 H2420 0.930 . S
C2430 C2428 1.459 . S
C2430 C2431 1.362 . S
C2431 H2421 0.930 . S
C2431 C2424 1.409 . S
C2431 C2430 1.362 . S
H2432 C2438 0.930 . S
H2433 C2441 0.930 . S
H2434 C2442 0.930 . S
H2435 C2443 0.930 . S
H2436 C2446 0.930 . S
H2437 C2447 0.930 . S
C2438 H2432 0.930 . S
C2438 C2439 1.355 . S
C2438 C2440 1.415 . S
C2439 C2438 1.355 . S
C2439 C2441 1.419 . S
C2440 C2438 1.415 . S
C2440 C2445 1.425 . S
C2440 C2447 1.409 . S
C2441 H2433 0.930 . S
C2441 C2439 1.419 . S
C2441 C2442 1.362 . S
C2442 H2434 0.930 . S
C2442 C2441 1.362 . S
C2442 C2445 1.409 . S
C2443 H2435 0.930 . S
C2443 C2444 1.355 . S
C2443 C2445 1.415 . S
C2444 C2443 1.355 . S
C2444 C2446 1.419 . S
C2445 C2440 1.425 . S
C2445 C2442 1.409 . S
C2445 C2443 1.415 . S
C2446 H2436 0.930 . S
C2446 C2444 1.419 . S
C2446 C2447 1.362 . S
C2447 H2437 0.930 . S
C2447 C2440 1.409 . S
C2447 C2446 1.362 . S
H2448 C2454 0.930 . S
H2449 C2457 0.930 . S
H2450 C2458 0.930 . S
H2451 C2459 0.930 . S
H2452 C2462 0.930 . S
H2453 C2463 0.930 . S
C2454 H2448 0.930 . S
C2454 C2455 1.355 1_556 S
C2454 C2456 1.415 . S
C2455 C2454 1.355 1_554 S
C2455 C2457 1.419 . S
C2456 C2454 1.415 . S
C2456 C2461 1.425 1_556 S
C2456 C2463 1.409 . S
C2457 H2449 0.930 . S
C2457 C2455 1.419 . S
C2457 C2458 1.362 . S
C2458 H2450 0.930 . S
C2458 C2457 1.362 . S
C2458 C2461 1.409 . S
C2459 H2451 0.930 . S
C2459 C2460 1.355 1_554 S
C2459 C2461 1.415 . S
C2460 C2459 1.355 1_556 S
C2460 C2462 1.419 . S
C2461 C2456 1.425 1_554 S
C2461 C2458 1.409 . S
C2461 C2459 1.415 . S
C2462 H2452 0.930 . S
C2462 C2460 1.419 . S
C2462 C2463 1.362 . S
C2463 H2453 0.930 . S
C2463 C2456 1.409 . S
C2463 C2462 1.362 . S
H2464 C2470 0.930 . S
H2465 C2473 0.930 . S
H2466 C2474 0.930 . S
H2467 C2475 0.930 . S
H2468 C2478 0.930 . S
H2469 C2479 0.930 . S
C2470 H2464 0.930 . S
C2470 C2471 1.355 . S
C2470 C2472 1.415 . S
C2471 C2470 1.355 . S
C2471 C2473 1.419 . S
C2472 C2470 1.415 . S
C2472 C2477 1.425 . S
C2472 C2479 1.409 . S
C2473 H2465 0.930 . S
C2473 C2471 1.419 . S
C2473 C2474 1.362 . S
C2474 H2466 0.930 . S
C2474 C2473 1.362 . S
C2474 C2477 1.409 . S
C2475 H2467 0.930 . S
C2475 C2476 1.355 . S
C2475 C2477 1.415 . S
C2476 C2475 1.355 . S
C2476 C2478 1.419 . S
C2477 C2472 1.425 . S
C2477 C2474 1.409 . S
C2477 C2475 1.415 . S
C2478 H2468 0.930 . S
C2478 C2476 1.419 . S
C2478 C2479 1.362 . S
C2479 H2469 0.930 . S
C2479 C2472 1.409 . S
C2479 C2478 1.362 . S
H2480 C2486 0.930 . S
H2481 C2489 0.930 . S
H2482 C2490 0.930 . S
H2483 C2491 0.930 . S
H2484 C2494 0.930 . S
H2485 C2495 0.930 . S
C2486 H2480 0.930 . S
C2486 C2487 1.355 . S
C2486 C2488 1.415 . S
C2487 C2486 1.355 . S
C2487 C2489 1.419 . S
C2488 C2486 1.415 . S
C2488 C2493 1.425 . S
C2488 C2495 1.409 . S
C2489 H2481 0.930 . S
C2489 C2487 1.419 . S
C2489 C2490 1.362 . S
C2490 H2482 0.930 . S
C2490 C2489 1.362 . S
C2490 C2493 1.409 . S
C2491 H2483 0.930 . S
C2491 C2492 1.355 . S
C2491 C2493 1.415 . S
C2492 C2491 1.355 . S
C2492 C2494 1.419 . S
C2493 C2488 1.425 . S
C2493 C2490 1.409 . S
C2493 C2491 1.415 . S
C2494 H2484 0.930 . S
C2494 C2492 1.419 . S
C2494 C2495 1.362 . S
C2495 H2485 0.930 . S
C2495 C2488 1.409 . S
C2495 C2494 1.362 . S
H2496 C2502 0.930 . S
H2497 C2505 0.930 . S
H2498 C2506 0.930 . S
H2499 C2507 0.930 . S
H2500 C2510 0.930 . S
H2501 C2511 0.930 . S
C2502 H2496 0.930 . S
C2502 C2503 1.355 . S
C2502 C2504 1.415 . S
C2503 C2502 1.355 . S
C2503 C2505 1.419 . S
C2504 C2502 1.415 . S
C2504 C2509 1.425 . S
C2504 C2511 1.409 . S
C2505 H2497 0.930 . S
C2505 C2503 1.419 . S
C2505 C2506 1.362 . S
C2506 H2498 0.930 . S
C2506 C2505 1.362 . S
C2506 C2509 1.409 . S
C2507 H2499 0.930 . S
C2507 C2508 1.355 . S
C2507 C2509 1.415 . S
C2508 C2507 1.355 . S
C2508 C2510 1.419 . S
C2509 C2504 1.425 . S
C2509 C2506 1.409 . S
C2509 C2507 1.415 . S
C2510 H2500 0.930 . S
C2510 C2508 1.419 . S
C2510 C2511 1.362 . S
C2511 H2501 0.930 . S
C2511 C2504 1.409 . S
C2511 C2510 1.362 . S
H2512 C2518 0.930 . S
H2513 C2521 0.930 . S
H2514 C2522 0.930 . S
H2515 C2523 0.930 . S
H2516 C2526 0.930 . S
H2517 C2527 0.930 . S
C2518 H2512 0.930 . S
C2518 C2519 1.355 1_556 S
C2518 C2520 1.415 . S
C2519 C2518 1.355 1_554 S
C2519 C2521 1.419 . S
C2520 C2518 1.415 . S
C2520 C2525 1.425 1_556 S
C2520 C2527 1.409 . S
C2521 H2513 0.930 . S
C2521 C2519 1.419 . S
C2521 C2522 1.362 . S
C2522 H2514 0.930 . S
C2522 C2521 1.362 . S
C2522 C2525 1.409 . S
C2523 H2515 0.930 . S
C2523 C2524 1.355 1_554 S
C2523 C2525 1.415 . S
C2524 C2523 1.355 1_556 S
C2524 C2526 1.419 . S
C2525 C2520 1.425 1_554 S
C2525 C2522 1.409 . S
C2525 C2523 1.415 . S
C2526 H2516 0.930 . S
C2526 C2524 1.419 . S
C2526 C2527 1.362 . S
C2527 H2517 0.930 . S
C2527 C2520 1.409 . S
C2527 C2526 1.362 . S
H2528 C2534 0.930 . S
H2529 C2537 0.930 . S
H2530 C2538 0.930 . S
H2531 C2539 0.930 . S
H2532 C2542 0.930 . S
H2533 C2543 0.930 . S
C2534 H2528 0.930 . S
C2534 C2535 1.355 . S
C2534 C2536 1.415 . S
C2535 C2534 1.355 . S
C2535 C2537 1.419 . S
C2536 C2534 1.415 . S
C2536 C2541 1.425 . S
C2536 C2543 1.409 . S
C2537 H2529 0.930 . S
C2537 C2535 1.419 . S
C2537 C2538 1.362 . S
C2538 H2530 0.930 . S
C2538 C2537 1.362 . S
C2538 C2541 1.409 . S
C2539 H2531 0.930 . S
C2539 C2540 1.355 . S
C2539 C2541 1.415 . S
C2540 C2539 1.355 . S
C2540 C2542 1.419 . S
C2541 C2536 1.425 . S
C2541 C2538 1.409 . S
C2541 C2539 1.415 . S
C2542 H2532 0.930 . S
C2542 C2540 1.419 . S
C2542 C2543 1.362 . S
C2543 H2533 0.930 . S
C2543 C2536 1.409 . S
C2543 C2542 1.362 . S
H2544 C2550 0.930 . S
H2545 C2553 0.930 . S
H2546 C2554 0.930 . S
H2547 C2555 0.930 . S
H2548 C2558 0.930 . S
H2549 C2559 0.930 . S
C2550 H2544 0.930 . S
C2550 C2551 1.355 . S
C2550 C2552 1.415 . S
C2551 C2550 1.355 . S
C2551 C2553 1.419 . S
C2552 C2550 1.415 . S
C2552 C2557 1.425 . S
C2552 C2559 1.409 . S
C2553 H2545 0.930 . S
C2553 C2551 1.419 . S
C2553 C2554 1.362 . S
C2554 H2546 0.930 . S
C2554 C2553 1.362 . S
C2554 C2557 1.409 . S
C2555 H2547 0.930 . S
C2555 C2556 1.355 . S
C2555 C2557 1.415 . S
C2556 C2555 1.355 . S
C2556 C2558 1.419 . S
C2557 C2552 1.425 . S
C2557 C2554 1.409 . S
C2557 C2555 1.415 . S
C2558 H2548 0.930 . S
C2558 C2556 1.419 . S
C2558 C2559 1.362 . S
C2559 H2549 0.930 . S
C2559 C2552 1.409 . S
C2559 C2558 1.362 . S
H2560 C2566 0.930 . S
H2561 C2569 0.930 . S
H2562 C2570 0.930 . S
H2563 C2571 0.930 . S
H2564 C2574 0.930 . S
H2565 C2575 0.930 . S
C2566 H2560 0.930 . S
C2566 C2567 1.355 . S
C2566 C2568 1.415 . S
C2567 C2566 1.355 . S
C2567 C2569 1.419 . S
C2568 C2566 1.415 . S
C2568 C2573 1.425 . S
C2568 C2575 1.409 . S
C2569 H2561 0.930 . S
C2569 C2567 1.419 . S
C2569 C2570 1.362 . S
C2570 H2562 0.930 . S
C2570 C2569 1.362 . S
C2570 C2573 1.409 . S
C2571 H2563 0.930 . S
C2571 C2572 1.355 . S
C2571 C2573 1.415 . S
C2572 C2571 1.355 . S
C2572 C2574 1.419 . S
C2573 C2568 1.425 . S
C2573 C2570 1.409 . S
C2573 C2571 1.415 . S
C2574 H2564 0.930 . S
C2574 C2572 1.419 . S
C2574 C2575 1.362 . S
C2575 H2565 0.930 . S
C2575 C2568 1.409 . S
C2575 C2574 1.362 . S
H2576 C2582 0.930 . S
H2577 C2585 0.930 . S
H2578 C2586 0.930 . S
H2579 C2587 0.930 . S
H2580 C2590 0.930 . S
H2581 C2591 0.930 . S
C2582 H2576 0.930 . S
C2582 C2583 1.355 . S
C2582 C2584 1.415 . S
C2583 C2582 1.355 . S
C2583 C2585 1.419 . S
C2584 C2582 1.415 . S
C2584 C2589 1.425 . S
C2584 C2591 1.409 . S
C2585 H2577 0.930 . S
C2585 C2583 1.419 . S
C2585 C2586 1.362 . S
C2586 H2578 0.930 . S
C2586 C2585 1.362 . S
C2586 C2589 1.409 . S
C2587 H2579 0.930 . S
C2587 C2588 1.355 . S
C2587 C2589 1.415 . S
C2588 C2587 1.355 . S
C2588 C2590 1.419 . S
C2589 C2584 1.425 . S
C2589 C2586 1.409 . S
C2589 C2587 1.415 . S
C2590 H2580 0.930 . S
C2590 C2588 1.419 . S
C2590 C2591 1.362 . S
C2591 H2581 0.930 . S
C2591 C2584 1.409 . S
C2591 C2590 1.362 . S
H2592 C2598 0.930 . S
H2593 C2601 0.930 . S
H2594 C2602 0.930 . S
H2595 C2603 0.930 . S
H2596 C2606 0.930 . S
H2597 C2607 0.930 . S
C2598 H2592 0.930 . S
C2598 C2599 1.355 . S
C2598 C2600 1.415 . S
C2599 C2598 1.355 . S
C2599 C2601 1.419 . S
C2600 C2598 1.415 . S
C2600 C2605 1.425 . S
C2600 C2607 1.409 . S
C2601 H2593 0.930 . S
C2601 C2599 1.419 . S
C2601 C2602 1.362 . S
C2602 H2594 0.930 . S
C2602 C2601 1.362 . S
C2602 C2605 1.409 . S
C2603 H2595 0.930 . S
C2603 C2604 1.355 . S
C2603 C2605 1.415 . S
C2604 C2603 1.355 . S
C2604 C2606 1.419 . S
C2605 C2600 1.425 . S
C2605 C2602 1.409 . S
C2605 C2603 1.415 . S
C2606 H2596 0.930 . S
C2606 C2604 1.419 . S
C2606 C2607 1.362 . S
C2607 H2597 0.930 . S
C2607 C2600 1.409 . S
C2607 C2606 1.362 . S
H2608 C2614 0.930 . S
H2609 C2617 0.930 . S
H2610 C2618 0.930 . S
H2611 C2619 0.930 . S
H2612 C2622 0.930 . S
H2613 C2623 0.930 . S
C2614 H2608 0.930 . S
C2614 C2615 1.355 . S
C2614 C2616 1.415 . S
C2615 C2614 1.355 . S
C2615 C2617 1.419 . S
C2616 C2614 1.415 . S
C2616 C2621 1.425 . S
C2616 C2623 1.409 . S
C2617 H2609 0.930 . S
C2617 C2615 1.419 . S
C2617 C2618 1.362 . S
C2618 H2610 0.930 . S
C2618 C2617 1.362 . S
C2618 C2621 1.409 . S
C2619 H2611 0.930 . S
C2619 C2620 1.355 . S
C2619 C2621 1.415 . S
C2620 C2619 1.355 . S
C2620 C2622 1.419 . S
C2621 C2616 1.425 . S
C2621 C2618 1.409 . S
C2621 C2619 1.415 . S
C2622 H2612 0.930 . S
C2622 C2620 1.419 . S
C2622 C2623 1.362 . S
C2623 H2613 0.930 . S
C2623 C2616 1.409 . S
C2623 C2622 1.362 . S
H2624 C2630 0.930 . S
H2625 C2633 0.930 . S
H2626 C2634 0.930 . S
H2627 C2635 0.930 . S
H2628 C2638 0.930 . S
H2629 C2639 0.930 . S
C2630 H2624 0.930 . S
C2630 C2631 1.355 . S
C2630 C2632 1.415 . S
C2631 C2630 1.355 . S
C2631 C2633 1.419 . S
C2632 C2630 1.415 . S
C2632 C2637 1.425 . S
C2632 C2639 1.409 . S
C2633 H2625 0.930 . S
C2633 C2631 1.419 . S
C2633 C2634 1.362 . S
C2634 H2626 0.930 . S
C2634 C2633 1.362 . S
C2634 C2637 1.409 . S
C2635 H2627 0.930 . S
C2635 C2636 1.355 . S
C2635 C2637 1.415 . S
C2636 C2635 1.355 . S
C2636 C2638 1.419 . S
C2637 C2632 1.425 . S
C2637 C2634 1.409 . S
C2637 C2635 1.415 . S
C2638 H2628 0.930 . S
C2638 C2636 1.419 . S
C2638 C2639 1.362 . S
C2639 H2629 0.930 . S
C2639 C2632 1.409 . S
C2639 C2638 1.362 . S
H2640 C2646 0.930 . S
H2641 C2649 0.930 . S
H2642 C2650 0.930 . S
H2643 C2651 0.930 . S
H2644 C2654 0.930 . S
H2645 C2655 0.930 . S
C2646 H2640 0.930 . S
C2646 C2647 1.355 . S
C2646 C2648 1.415 . S
C2647 C2646 1.355 . S
C2647 C2649 1.419 . S
C2648 C2646 1.415 . S
C2648 C2653 1.425 . S
C2648 C2655 1.409 . S
C2649 H2641 0.930 . S
C2649 C2647 1.419 . S
C2649 C2650 1.362 . S
C2650 H2642 0.930 . S
C2650 C2649 1.362 . S
C2650 C2653 1.409 . S
C2651 H2643 0.930 . S
C2651 C2652 1.355 . S
C2651 C2653 1.415 . S
C2652 C2651 1.355 . S
C2652 C2654 1.419 . S
C2653 C2648 1.425 . S
C2653 C2650 1.409 . S
C2653 C2651 1.415 . S
C2654 H2644 0.930 . S
C2654 C2652 1.419 . S
C2654 C2655 1.362 . S
C2655 H2645 0.930 . S
C2655 C2648 1.409 . S
C2655 C2654 1.362 . S
H2656 C2662 0.930 . S
H2657 C2665 0.930 . S
H2658 C2666 0.930 . S
H2659 C2667 0.930 . S
H2660 C2670 0.930 . S
H2661 C2671 0.930 . S
C2662 H2656 0.930 . S
C2662 C2663 1.355 . S
C2662 C2664 1.415 . S
C2663 C2662 1.355 . S
C2663 C2665 1.419 . S
C2664 C2662 1.415 . S
C2664 C2669 1.425 . S
C2664 C2671 1.409 . S
C2665 H2657 0.930 . S
C2665 C2663 1.419 . S
C2665 C2666 1.362 . S
C2666 H2658 0.930 . S
C2666 C2665 1.362 . S
C2666 C2669 1.409 . S
C2667 H2659 0.930 . S
C2667 C2668 1.355 . S
C2667 C2669 1.415 . S
C2668 C2667 1.355 . S
C2668 C2670 1.419 . S
C2669 C2664 1.425 . S
C2669 C2666 1.409 . S
C2669 C2667 1.415 . S
C2670 H2660 0.930 . S
C2670 C2668 1.419 . S
C2670 C2671 1.362 . S
C2671 H2661 0.930 . S
C2671 C2664 1.409 . S
C2671 C2670 1.362 . S
H2672 C2678 0.930 . S
H2673 C2681 0.930 . S
H2674 C2682 0.930 . S
H2675 C2683 0.930 . S
H2676 C2686 0.930 . S
H2677 C2687 0.930 . S
C2678 H2672 0.930 . S
C2678 C2679 1.355 . S
C2678 C2680 1.415 . S
C2679 C2678 1.355 . S
C2679 C2681 1.419 . S
C2680 C2678 1.415 . S
C2680 C2685 1.425 . S
C2680 C2687 1.409 . S
C2681 H2673 0.930 . S
C2681 C2679 1.419 . S
C2681 C2682 1.362 . S
C2682 H2674 0.930 . S
C2682 C2681 1.362 . S
C2682 C2685 1.409 . S
C2683 H2675 0.930 . S
C2683 C2684 1.355 . S
C2683 C2685 1.415 . S
C2684 C2683 1.355 . S
C2684 C2686 1.419 . S
C2685 C2680 1.425 . S
C2685 C2682 1.409 . S
C2685 C2683 1.415 . S
C2686 H2676 0.930 . S
C2686 C2684 1.419 . S
C2686 C2687 1.362 . S
C2687 H2677 0.930 . S
C2687 C2680 1.409 . S
C2687 C2686 1.362 . S
H2688 C2694 0.930 . S
H2689 C2697 0.930 . S
H2690 C2698 0.930 . S
H2691 C2699 0.930 . S
H2692 C2702 0.930 . S
H2693 C2703 0.930 . S
C2694 H2688 0.930 . S
C2694 C2695 1.355 . S
C2694 C2696 1.415 . S
C2695 C2694 1.355 . S
C2695 C2697 1.419 . S
C2696 C2694 1.415 . S
C2696 C2701 1.425 . S
C2696 C2703 1.409 . S
C2697 H2689 0.930 . S
C2697 C2695 1.419 . S
C2697 C2698 1.362 . S
C2698 H2690 0.930 . S
C2698 C2697 1.362 . S
C2698 C2701 1.409 . S
C2699 H2691 0.930 . S
C2699 C2700 1.355 . S
C2699 C2701 1.415 . S
C2700 C2699 1.355 . S
C2700 C2702 1.419 . S
C2701 C2696 1.425 . S
C2701 C2698 1.409 . S
C2701 C2699 1.415 . S
C2702 H2692 0.930 . S
C2702 C2700 1.419 . S
C2702 C2703 1.362 . S
C2703 H2693 0.930 . S
C2703 C2696 1.409 . S
C2703 C2702 1.362 . S
H2704 C2710 0.930 . S
H2705 C2713 0.930 . S
H2706 C2714 0.930 . S
H2707 C2715 0.930 . S
H2708 C2718 0.930 . S
H2709 C2719 0.930 . S
C2710 H2704 0.930 . S
C2710 C2711 1.355 . S
C2710 C2712 1.415 . S
C2711 C2710 1.355 . S
C2711 C2713 1.419 . S
C2712 C2710 1.415 . S
C2712 C2717 1.425 . S
C2712 C2719 1.409 . S
C2713 H2705 0.930 . S
C2713 C2711 1.419 . S
C2713 C2714 1.362 . S
C2714 H2706 0.930 . S
C2714 C2713 1.362 . S
C2714 C2717 1.409 . S
C2715 H2707 0.930 . S
C2715 C2716 1.355 . S
C2715 C2717 1.415 . S
C2716 C2715 1.355 . S
C2716 C2718 1.419 . S
C2717 C2712 1.425 . S
C2717 C2714 1.409 . S
C2717 C2715 1.415 . S
C2718 H2708 0.930 . S
C2718 C2716 1.419 . S
C2718 C2719 1.362 . S
C2719 H2709 0.930 . S
C2719 C2712 1.409 . S
C2719 C2718 1.362 . S
H2720 C2726 0.930 . S
H2721 C2729 0.930 . S
H2722 C2730 0.930 . S
H2723 C2731 0.930 . S
H2724 C2734 0.930 . S
H2725 C2735 0.930 . S
C2726 H2720 0.930 . S
C2726 C2727 1.355 . S
C2726 C2728 1.415 . S
C2727 C2726 1.355 . S
C2727 C2729 1.419 . S
C2728 C2726 1.415 . S
C2728 C2733 1.425 . S
C2728 C2735 1.409 . S
C2729 H2721 0.930 . S
C2729 C2727 1.419 . S
C2729 C2730 1.362 . S
C2730 H2722 0.930 . S
C2730 C2729 1.362 . S
C2730 C2733 1.409 . S
C2731 H2723 0.930 . S
C2731 C2732 1.355 . S
C2731 C2733 1.415 . S
C2732 C2731 1.355 . S
C2732 C2734 1.419 . S
C2733 C2728 1.425 . S
C2733 C2730 1.409 . S
C2733 C2731 1.415 . S
C2734 H2724 0.930 . S
C2734 C2732 1.419 . S
C2734 C2735 1.362 . S
C2735 H2725 0.930 . S
C2735 C2728 1.409 . S
C2735 C2734 1.362 . S
H2736 C2742 0.930 . S
H2737 C2745 0.930 . S
H2738 C2746 0.930 . S
H2739 C2747 0.930 . S
H2740 C2750 0.930 . S
H2741 C2751 0.930 . S
C2742 H2736 0.930 . S
C2742 C2743 1.355 . S
C2742 C2744 1.415 . S
C2743 C2742 1.355 . S
C2743 C2745 1.419 . S
C2744 C2742 1.415 . S
C2744 C2749 1.425 . S
C2744 C2751 1.409 . S
C2745 H2737 0.930 . S
C2745 C2743 1.419 . S
C2745 C2746 1.362 . S
C2746 H2738 0.930 . S
C2746 C2745 1.362 . S
C2746 C2749 1.409 . S
C2747 H2739 0.930 . S
C2747 C2748 1.355 . S
C2747 C2749 1.415 . S
C2748 C2747 1.355 . S
C2748 C2750 1.419 . S
C2749 C2744 1.425 . S
C2749 C2746 1.409 . S
C2749 C2747 1.415 . S
C2750 H2740 0.930 . S
C2750 C2748 1.419 . S
C2750 C2751 1.362 . S
C2751 H2741 0.930 . S
C2751 C2744 1.409 . S
C2751 C2750 1.362 . S
H2752 C2758 0.930 . S
H2753 C2761 0.930 . S
H2754 C2762 0.930 . S
H2755 C2763 0.930 . S
H2756 C2766 0.930 . S
H2757 C2767 0.930 . S
C2758 H2752 0.930 . S
C2758 C2759 1.355 . S
C2758 C2760 1.415 . S
C2759 C2758 1.355 . S
C2759 C2761 1.419 . S
C2760 C2758 1.415 . S
C2760 C2765 1.425 . S
C2760 C2767 1.409 . S
C2761 H2753 0.930 . S
C2761 C2759 1.419 . S
C2761 C2762 1.362 . S
C2762 H2754 0.930 . S
C2762 C2761 1.362 . S
C2762 C2765 1.409 . S
C2763 H2755 0.930 . S
C2763 C2764 1.355 . S
C2763 C2765 1.415 . S
C2764 C2763 1.355 . S
C2764 C2766 1.419 . S
C2765 C2760 1.425 . S
C2765 C2762 1.409 . S
C2765 C2763 1.415 . S
C2766 H2756 0.930 . S
C2766 C2764 1.419 . S
C2766 C2767 1.362 . S
C2767 H2757 0.930 . S
C2767 C2760 1.409 . S
C2767 C2766 1.362 . S
H2768 C2774 0.930 . S
H2769 C2777 0.930 . S
H2770 C2778 0.930 . S
H2771 C2779 0.930 . S
H2772 C2782 0.930 . S
H2773 C2783 0.930 . S
C2774 H2768 0.930 . S
C2774 C2775 1.355 . S
C2774 C2776 1.415 . S
C2775 C2774 1.355 . S
C2775 C2777 1.419 . S
C2776 C2774 1.415 . S
C2776 C2781 1.425 . S
C2776 C2783 1.409 . S
C2777 H2769 0.930 . S
C2777 C2775 1.419 . S
C2777 C2778 1.362 . S
C2778 H2770 0.930 . S
C2778 C2777 1.362 . S
C2778 C2781 1.409 . S
C2779 H2771 0.930 . S
C2779 C2780 1.355 . S
C2779 C2781 1.415 . S
C2780 C2779 1.355 . S
C2780 C2782 1.419 . S
C2781 C2776 1.425 . S
C2781 C2778 1.409 . S
C2781 C2779 1.415 . S
C2782 H2772 0.930 . S
C2782 C2780 1.419 . S
C2782 C2783 1.362 . S
C2783 H2773 0.930 . S
C2783 C2776 1.409 . S
C2783 C2782 1.362 . S
H2784 C2790 0.930 . S
H2785 C2793 0.930 . S
H2786 C2794 0.930 . S
H2787 C2795 0.930 . S
H2788 C2798 0.930 . S
H2789 C2799 0.930 . S
C2790 H2784 0.930 . S
C2790 C2791 1.355 . S
C2790 C2792 1.415 . S
C2791 C2790 1.355 . S
C2791 C2793 1.419 . S
C2792 C2790 1.415 . S
C2792 C2797 1.425 . S
C2792 C2799 1.409 . S
C2793 H2785 0.930 . S
C2793 C2791 1.419 . S
C2793 C2794 1.362 . S
C2794 H2786 0.930 . S
C2794 C2793 1.362 . S
C2794 C2797 1.409 . S
C2795 H2787 0.930 . S
C2795 C2796 1.355 . S
C2795 C2797 1.415 . S
C2796 C2795 1.355 . S
C2796 C2798 1.419 . S
C2797 C2792 1.425 . S
C2797 C2794 1.409 . S
C2797 C2795 1.415 . S
C2798 H2788 0.930 . S
C2798 C2796 1.419 . S
C2798 C2799 1.362 . S
C2799 H2789 0.930 . S
C2799 C2792 1.409 . S
C2799 C2798 1.362 . S
H2800 C2806 0.930 . S
H2801 C2809 0.930 . S
H2802 C2810 0.930 . S
H2803 C2811 0.930 . S
H2804 C2814 0.930 . S
H2805 C2815 0.930 . S
C2806 H2800 0.930 . S
C2806 C2807 1.355 . S
C2806 C2808 1.415 . S
C2807 C2806 1.355 . S
C2807 C2809 1.419 . S
C2808 C2806 1.415 . S
C2808 C2813 1.425 . S
C2808 C2815 1.409 . S
C2809 H2801 0.930 . S
C2809 C2807 1.419 . S
C2809 C2810 1.362 . S
C2810 H2802 0.930 . S
C2810 C2809 1.362 . S
C2810 C2813 1.409 . S
C2811 H2803 0.930 . S
C2811 C2812 1.355 . S
C2811 C2813 1.415 . S
C2812 C2811 1.355 . S
C2812 C2814 1.419 . S
C2813 C2808 1.425 . S
C2813 C2810 1.409 . S
C2813 C2811 1.415 . S
C2814 H2804 0.930 . S
C2814 C2812 1.419 . S
C2814 C2815 1.362 . S
C2815 H2805 0.930 . S
C2815 C2808 1.409 . S
C2815 C2814 1.362 . S
C1287 C15 1.094 . S
C1292 C129 0.987 . S
C1303 C9 1.025 . S
C1308 C55 1.100 1_545 S
C1319 C95 1.065 . S
C1324 C49 1.066 . S
C1335 C89 1.097 . S
C1340 C135 1.077 1_565 S
C1351 C209 0.982 . S
C1356 C175 1.091 . S
C1367 C215 1.066 1_545 S
C1372 C249 1.078 . S
C1383 C289 1.005 . S
C1388 C255 1.098 . S
C1399 C169 0.984 . S
C1404 C295 1.079 1_565 S
C1415 C325 1.088 . S
C1420 C459 0.979 . S
C1431 C365 1.098 1_565 S
C1436 C339 1.047 . S
C1447 C405 1.091 . S
C1452 C379 0.981 . S
C1463 C445 1.071 1_545 S
C1468 C419 1.003 . S
C1479 C485 1.077 . S
C1484 C539 1.097 . S
C1495 C525 1.087 1_565 S
C1500 C579 1.089 . S
C1511 C619 1.001 . S
C1516 C565 1.071 . S
C1527 C499 1.065 . S
C1532 C605 1.096 1_545 S
C1543 C655 1.065 . S
C1548 C769 1.033 . S
C1559 C649 0.984 . S
C1564 C695 1.093 . S
C1575 C689 1.068 . S
C1580 C735 1.095 . S
C1591 C775 1.099 . S
C1596 C729 1.007 . S
C1607 C815 1.099 . S
C1612 C849 1.008 . S
C1623 C889 1.097 . S
C1628 C855 1.080 . S
C1639 C895 1.065 . S
C1644 C929 1.069 . S
C1655 C809 1.020 . S
C1660 C935 1.099 . S
C1671 C1099 1.006 . S
C1676 C965 1.098 . S
C1687 C979 1.095 . S
C1692 C1005 1.074 . S
C1703 C1045 1.075 . S
C1708 C1019 1.096 . S
C1719 C1059 1.002 . S
C1724 C1085 1.098 . S
C1735 C1179 1.007 . S
C1740 C1125 1.070 . S
C1751 C1219 0.992 . S
C1756 C1165 1.096 . S
C1767 C1259 0.983 . S
C1772 C1205 1.092 . S
C1783 C1245 1.064 . S
C1788 C1139 1.045 . S
C1799 C1095 1.581 . S
C1804 C18 1.480 . S
C1815 C58 1.549 . S
C1820 C335 1.597 1_455 S
C1831 C98 1.535 . S
C1836 C1015 1.611 . S
C1847 C138 1.483 . S
C1852 C415 1.595 . S
C1863 C178 1.523 . S
C1868 C1175 1.609 . S
C1879 C575 1.607 . S
C1884 C218 1.513 . S
C1895 C1255 1.606 . S
C1900 C258 1.508 . S
C1911 C298 1.493 . S
C1916 C495 1.600 1_455 S
C1927 C328 1.517 . S
C1932 C765 1.585 . S
C1943 C5 1.606 1_655 S
C1948 C368 1.559 . S
C1959 C685 1.603 . S
C1964 C408 1.499 . S
C1975 C85 1.605 . S
C1980 C448 1.558 . S
C1991 C845 1.588 . S
C1996 C488 1.474 . S
C2007 C245 1.603 . S
C2012 C528 1.500 . S
C2023 C568 1.558 . S
C2028 C925 1.605 . S
C2039 C608 1.514 . S
C2044 C165 1.607 1_655 S
C2055 C658 1.476 . S
C2060 C455 1.583 . S
C2071 C698 1.484 . S
C2076 C975 1.581 . S
C2087 C738 1.540 . S
C2092 C375 1.612 . S
C2103 C778 1.488 . S
C2108 C1055 1.598 1_655 S
C2119 C818 1.475 . S
C2124 C535 1.584 . S
C2135 C858 1.531 . S
C2140 C1215 1.589 1_655 S
C2151 C615 1.598 . S
C2156 C898 1.488 . S
C2167 C938 1.540 . S
C2172 C1135 1.592 . S
C2183 C125 1.610 . S
C2188 C968 1.528 . S
C2199 C645 1.600 . S
C2204 C1008 1.492 . S
C2215 C45 1.593 . S
C2220 C1048 1.479 . S
C2231 C725 1.612 1_455 S
C2236 C1088 1.549 . S
C2247 C205 1.600 . S
C2252 C1128 1.493 . S
C2263 C1168 1.515 . S
C2268 C885 1.608 1_455 S
C2279 C1208 1.552 . S
C2284 C285 1.611 . S
C2295 C805 1.603 . S
C2300 C1248 1.557 . S
C2311 C8 1.125 . S
C2316 C168 1.084 . S
C2327 C48 1.121 . S
C2332 C208 1.095 . S
C2343 C88 1.034 . S
C2348 C248 1.108 . S
C2359 C288 1.127 1_554 S
C2364 C128 1.080 1_556 S
C2375 C498 1.088 . S
C2380 C338 1.124 . S
C2391 C538 1.125 . S
C2396 C378 1.086 . S
C2407 C418 1.109 . S
C2412 C578 1.110 . S
C2423 C458 1.067 . S
C2428 C618 1.043 . S
C2439 C648 1.037 . S
C2444 C808 1.068 . S
C2455 C848 1.102 1_554 S
C2460 C688 1.116 1_556 S
C2471 C888 1.031 . S
C2476 C728 1.098 . S
C2487 C928 1.120 . S
C2492 C768 1.044 . S
C2503 C1138 1.114 . S
C2508 C978 1.105 . S
C2519 C1018 1.103 1_554 S
C2524 C1178 1.115 1_556 S
C2535 C1218 1.037 . S
C2540 C1058 1.067 . S
C2551 C1098 1.079 . S
C2556 C1258 1.127 . S
C2567 C299 2.593 . S
C2572 C19 2.597 . S
C2583 C59 2.608 . S
C2588 C179 2.604 . S
C2599 C99 2.603 . S
C2604 C219 2.608 . S
C2615 C259 2.598 . S
C2620 C139 2.605 . S
C2631 C329 2.606 . S
C2636 C609 2.598 . S
C2647 C489 2.597 . S
C2652 C369 2.593 . S
C2663 C529 2.608 . S
C2668 C409 2.603 . S
C2679 C449 2.593 . S
C2684 C569 2.595 . S
C2695 C659 2.608 . S
C2700 C939 2.606 . S
C2711 C819 2.595 . S
C2716 C699 2.593 . S
C2727 C859 2.596 . S
C2732 C739 2.593 . S
C2743 C899 2.596 . S
C2748 C779 2.603 . S
C2759 C969 2.598 . S
C2764 C1249 2.605 . S
C2775 C1129 2.602 . S
C2780 C1009 2.595 . S
C2791 C1049 2.605 . S
C2796 C1169 2.608 . S
C2807 C1209 2.603 . S
C2812 C1089 2.596 . S
