# Generated by pormake.
# Topology reo, (8)-cn, num edge types: 1
# Building blocks:
#     Node 0, Type 0, BuildingBlock: LIZSOE_clean_sbu_0, # of connection points: 8
#     Node 1, Type 0, BuildingBlock: LIZSOE_clean_sbu_0, # of connection points: 8
#     Node 2, Type 0, BuildingBlock: LIZSOE_clean_sbu_0, # of connection points: 8
#     Edge 3, Type (0, 0), BuildingBlock: ZUJKAS_clean_linker_0, # of connection points: 2
#     Edge 4, Type (0, 0), BuildingBlock: ZUJKAS_clean_linker_0, # of connection points: 2
#     Edge 5, Type (0, 0), BuildingBlock: ZUJKAS_clean_linker_0, # of connection points: 2
#     Edge 6, Type (0, 0), BuildingBlock: ZUJKAS_clean_linker_0, # of connection points: 2
#     Edge 7, Type (0, 0), BuildingBlock: ZUJKAS_clean_linker_0, # of connection points: 2
#     Edge 8, Type (0, 0), BuildingBlock: ZUJKAS_clean_linker_0, # of connection points: 2
#     Edge 9, Type (0, 0), BuildingBlock: ZUJKAS_clean_linker_0, # of connection points: 2
#     Edge 10, Type (0, 0), BuildingBlock: ZUJKAS_clean_linker_0, # of connection points: 2
#     Edge 11, Type (0, 0), BuildingBlock: ZUJKAS_clean_linker_0, # of connection points: 2
#     Edge 12, Type (0, 0), BuildingBlock: ZUJKAS_clean_linker_0, # of connection points: 2
#     Edge 13, Type (0, 0), BuildingBlock: ZUJKAS_clean_linker_0, # of connection points: 2
#     Edge 14, Type (0, 0), BuildingBlock: ZUJKAS_clean_linker_0, # of connection points: 2
# Relax obj value: 0.274
# Max RMSD: 0.268
# Mean RMSD: 0.232
data_MOF--net-reo--node1-LIZSOE_clean_sbu_0--edge1-ZUJKAS_clean_linker_0
_symmetry_space_group_name_H-M    P1
_symmetry_Int_Tables_number       1
_symmetry_cell_setting            triclinic
loop_
_symmetry_equiv_pos_as_xyz
'x, y, z'
_cell_length_a     34.931861
_cell_length_b     29.962688
_cell_length_c     25.51759
_cell_angle_alpha  91.53197
_cell_angle_beta   100.74345
_cell_angle_gamma 110.58435
loop_
_atom_site_label
_atom_site_type_symbol
_atom_site_fract_x
_atom_site_fract_y
_atom_site_fract_z
_atom_type_partial_charge
Co0 Co 0.06986 0.01513 0.46744 0.0
N1 N 0.11603 0.04387 0.43759 0.0
C2 C 0.14119 0.09038 0.44468 0.0
N3 N 0.17139 0.05257 0.39992 0.0
C4 C 0.1351 0.02154 0.41031 0.0
C5 C 0.17484 0.09583 0.42142 0.0
Co6 Co 0.9341 0.00685 0.61905 0.0
N7 N 0.88909 0.97816 0.65042 0.0
N8 N 0.83615 0.97228 0.69136 0.0
C9 C 0.83352 0.92777 0.67574 0.0
C10 C 0.86606 0.93144 0.65063 0.0
C11 C 0.87008 1.00218 0.67509 0.0
Co12 Co 0.00183 0.01091 0.54295 0.0
C13 C 0.99122 0.05855 0.64493 0.0
H14 H 0.8719 0.90202 0.63261 0.0
O15 O 0.02547 0.98222 0.49045 0.0
O16 O 0.94477 0.98084 0.49542 0.0
O17 O 0.00828 0.07047 0.50586 0.0
O18 O 0.05901 0.04106 0.59069 0.0
O19 O 0.10236 0.0407 0.53599 0.0
O20 O 0.90139 0.97753 0.55115 0.0
O21 O 0.97788 0.03952 0.59489 0.0
O22 O 0.9517 0.95406 0.63227 0.0
O23 O 0.05502 0.07023 0.45806 0.0
O24 O 0.0343 0.9882 0.4059 0.0
O25 O -0.00461 0.9513 0.58048 0.0
O26 O 0.96908 0.0384 0.67956 0.0
C27 C 0.03104 0.08927 0.47283 0.0
C28 C 0.88348 0.05569 0.67884 0.0
H29 H 0.90082 0.07007 0.64696 0.0
H30 H 0.85608 0.06685 0.67537 0.0
H31 H 0.90473 0.0711 0.71824 0.0
C32 C 0.90794 0.97057 0.5046 0.0
C33 C 0.09578 0.04921 0.58205 0.0
H34 H 0.13623 0.11831 0.46707 0.0
H35 H 0.1324 0.95067 0.42528 0.0
H36 H 0.12388 0.96018 0.35502 0.0
H37 H 0.08366 0.95287 0.39237 0.0
C38 C 0.11765 0.96844 0.39451 0.0
C39 C 0.01249 0.96539 0.4396 0.0
C40 C 0.97496 0.93443 0.61652 0.0
H41 H 0.20067 0.1291 0.42178 0.0
H42 H 0.80958 0.89487 0.68183 0.0
Co43 Co 0.50942 0.12807 0.06996 0.0
N44 N 0.51032 0.18847 0.05295 0.0
C45 C 0.5116 0.20526 1.00452 0.0
N46 N 0.49414 0.25486 0.05237 0.0
C47 C 0.50078 0.22022 0.08173 0.0
C48 C 0.50159 0.24583 1.00403 0.0
Co49 Co 0.4999 0.90424 1.01393 0.0
N50 N 0.50048 0.84383 1.02945 0.0
N51 N 0.51885 0.77907 0.03713 0.0
C52 C 0.47769 0.76517 0.03623 0.0
C53 C 0.46647 0.80488 0.03126 0.0
C54 C 0.53219 0.82693 0.03382 0.0
Co55 Co 0.50399 0.0161 0.04197 0.0
C56 C 0.53223 0.95513 0.97165 0.0
H57 H 0.43504 0.80485 1.02663 0.0
O58 O 0.50413 0.07034 0.08956 0.0
O59 O 0.54945 0.00857 0.09836 0.0
O60 O 0.54764 0.06073 1.00781 0.0
O61 O 0.45883 0.02352 0.98574 0.0
O62 O 0.47004 0.10101 1.00409 0.0
O63 O 0.54158 0.93248 0.07674 0.0
O64 O 0.5037 0.96173 0.99464 0.0
O65 O 0.45957 0.89818 0.05465 0.0
O66 O 0.55379 0.13486 0.03617 0.0
O67 O 0.46763 0.11668 0.10328 0.0
O68 O 0.46008 0.97144 0.0758 0.0
O69 O 0.53747 0.9145 0.97384 0.0
C70 C 0.56512 0.10621 1.01098 0.0
C71 C 0.57702 0.85716 0.03407 0.0
H72 H 0.58592 0.89404 0.05253 0.0
H73 H 0.59857 0.84109 0.05636 0.0
H74 H 0.58166 0.85912 0.99224 0.0
C75 C 0.55952 0.97177 0.10678 0.0
C76 C 0.45088 0.06124 0.97511 0.0
H77 H 0.5163 0.1871 0.97043 0.0
H78 H 0.4673 0.19627 0.14445 0.0
H79 H 0.5081 0.25444 0.16029 0.0
H80 H 0.52096 0.20076 0.15979 0.0
C81 C 0.49938 0.21795 0.14005 0.0
C82 C 0.47373 0.07665 0.10845 0.0
C83 C 0.44628 0.92617 0.07754 0.0
H84 H 0.4967 0.26484 0.96942 0.0
H85 H 0.45683 0.72851 0.03591 0.0
Co86 Co 0.07521 0.45913 0.04754 0.0
N87 N 0.12144 0.44522 0.08135 0.0
C88 C 0.11665 0.40549 0.10718 0.0
N89 N 0.18251 0.43335 0.09962 0.0
C90 C 0.16231 0.46175 0.07762 0.0
C91 C 0.1538 0.39813 0.11823 0.0
Co92 Co 0.92567 0.54917 1.0304 0.0
N93 N 0.87925 0.56038 0.99554 0.0
N94 N 0.82045 0.57649 0.98423 0.0
C95 C 0.82226 0.55681 0.93713 0.0
C96 C 0.85847 0.54701 0.94415 0.0
C97 C 0.85526 0.57797 1.01908 0.0
Co98 Co 0.00258 0.50767 0.03825 0.0
C99 C 0.97879 0.58894 0.08297 0.0
H100 H 0.86798 0.52916 0.91442 0.0
O101 O 0.03305 0.46949 1.00925 0.0
O102 O 0.00643 0.54564 0.97372 0.0
O103 O 0.0547 0.55867 0.07758 0.0
O104 O -0.00134 0.46945 0.10316 0.0
O105 O 0.04815 0.4377 0.10374 0.0
O106 O 0.94992 0.56488 0.96956 0.0
O107 O 0.97062 0.54331 0.06889 0.0
O108 O 0.90023 0.48545 1.00314 0.0
O109 O 0.1002 0.52164 0.08319 0.0
O110 O 0.09539 0.48013 0.9902 0.0
O111 O 0.94998 0.45598 0.99811 0.0
O112 O 0.95358 0.60869 0.05874 0.0
C113 C 0.09118 0.55801 0.09328 0.0
C114 C 0.86446 0.59237 0.07812 0.0
H115 H 0.88162 0.63166 0.08577 0.0
H116 H 0.8351 0.58354 0.09318 0.0
H117 H 0.88433 0.57422 0.10027 0.0
C118 C 0.98099 0.56464 0.9506 0.0
C119 C 0.0187 0.44294 0.1228 0.0
H120 H 0.08713 0.38099 0.11377 0.0
H121 H 0.17654 0.49001 1.00461 0.0
H122 H 0.21588 0.51979 0.06326 0.0
H123 H 0.16752 0.53073 0.0499 0.0
C124 C 0.18168 0.50317 0.04735 0.0
C125 C 0.05622 0.47415 0.97313 0.0
C126 C 0.91163 0.45181 0.9897 0.0
H127 H 0.1586 0.36718 0.13489 0.0
H128 H 0.79858 0.54914 0.90063 0.0
H129 H 0.9865 0.34695 0.11286 0.0
H130 H 0.98071 0.29413 0.18446 0.0
H131 H 0.01939 0.41629 0.30169 0.0
H132 H 0.02542 0.46966 0.22916 0.0
H133 H 0.06624 0.36017 0.32481 0.0
H134 H 0.89952 0.24336 0.28173 0.0
H135 H 0.92125 0.2461 0.22303 0.0
H136 H 0.91826 0.29953 0.25313 0.0
C137 C 0.99223 0.36237 0.15379 0.0
C138 C 0.00549 0.41223 0.16545 0.0
C139 C 0.9889 0.3321 0.19479 0.0
C140 C -0.00104 0.35091 0.24868 0.0
C141 C 0.01097 0.40079 0.26043 0.0
H142 H 0.97903 0.13801 0.48642 0.0
H143 H 0.97123 0.20595 0.43984 0.0
C144 C 0.01402 0.43124 0.21906 0.0
C145 C 0.00135 0.31873 0.29196 0.0
H146 H 0.94763 0.2102 0.3316 0.0
C147 C 0.04003 0.32787 0.32696 0.0
C148 C 0.96719 0.27668 0.29552 0.0
C149 C 0.92412 0.26609 0.26169 0.0
C150 C 0.04609 0.29491 0.36289 0.0
C151 C 0.0128 0.25111 0.36341 0.0
C152 C 0.97342 0.24335 0.33084 0.0
C153 C 0.01896 0.21166 0.39443 0.0
C154 C 0.08839 0.3071 0.39944 0.0
C155 C 0.04823 0.19196 0.38446 0.0
C156 C 0.05278 0.15325 0.41094 0.0
C157 C 0.02795 0.1328 0.448 0.0
C158 C -0.00116 0.15285 0.4584 0.0
C159 C -0.00574 0.19168 0.43168 0.0
H160 H 0.10522 0.3465 0.40725 0.0
H161 H 0.0856 0.2919 0.43838 0.0
H162 H 0.10766 0.29202 0.37994 0.0
H163 H 0.06698 0.20579 0.35505 0.0
H164 H 0.0753 0.13876 0.4014 0.0
H165 H 0.90909 0.98193 0.39847 0.0
H166 H 0.85064 0.98183 0.32853 0.0
H167 H 0.76661 0.933 0.43668 0.0
H168 H 0.82479 0.93384 0.50708 0.0
H169 H 0.77402 0.91642 0.27768 0.0
H170 H 0.75384 0.05917 0.3996 0.0
H171 H 0.79861 0.04147 0.41632 0.0
H172 H 0.74994 0.0067 0.43383 0.0
C173 C 0.87802 0.97008 0.40706 0.0
C174 C 0.87178 0.95857 0.45871 0.0
C175 C 0.84467 0.97036 0.36708 0.0
C176 C 0.80454 0.95899 0.378 0.0
C177 C 0.79757 0.94342 0.42794 0.0
H178 H 0.5703 0.89734 0.1574 0.0
H179 H 0.63092 0.89746 0.22247 0.0
C180 C 0.83084 0.94343 0.46798 0.0
C181 C 0.77037 0.9653 0.33821 0.0
H182 H 0.70013 0.02217 0.32219 0.0
C183 C 0.75801 0.93971 0.2873 0.0
C184 C 0.75019 0.99673 0.35025 0.0
C185 C 0.76407 0.02799 0.40275 0.0
C186 C 0.72495 0.94322 0.24888 0.0
C187 C 0.70306 0.97233 0.26216 0.0
C188 C 0.7165 0.99938 0.31229 0.0
C189 C 0.6652 0.97359 0.22529 0.0
C190 C 0.71399 0.91589 0.19427 0.0
C191 C 0.66315 0.0169 0.20746 0.0
C192 C 0.62795 0.01711 0.17061 0.0
C193 C 0.5944 0.97396 0.15109 0.0
C194 C 0.59589 0.93114 0.17105 0.0
C195 C 0.6307 0.93104 0.20797 0.0
H196 H 0.7411 0.90842 0.18487 0.0
H197 H 0.68838 0.88095 0.19362 0.0
H198 H 0.70331 0.9359 0.16233 0.0
H199 H 0.68926 0.05029 0.22086 0.0
H200 H 0.62772 0.0506 0.15585 0.0
H201 H 0.04241 0.89942 0.4826 0.0
H202 H 0.03916 0.82718 0.43239 0.0
H203 H 0.94191 0.8398 0.30888 0.0
H204 H 0.94777 0.91446 0.35723 0.0
H205 H -0.00529 0.74258 0.39088 0.0
H206 H 0.02374 0.84912 0.21957 0.0
H207 H 0.02287 0.87542 0.28332 0.0
H208 H 0.97474 0.8446 0.23526 0.0
C209 C 0.01898 0.88567 0.44587 0.0
C210 C -0.00486 0.91277 0.42419 0.0
C211 C 0.01758 0.84448 0.41655 0.0
C212 C 0.99169 0.82871 0.36517 0.0
C213 C 0.96376 0.85214 0.34699 0.0
H214 H 0.95206 0.56299 0.17389 0.0
H215 H 0.95855 0.62003 0.24768 0.0
C216 C 0.96615 0.89424 0.37548 0.0
C217 C -0.00367 0.79067 0.32938 0.0
H218 H 0.00726 0.7657 0.20249 0.0
C219 C -0.00231 0.74786 0.34975 0.0
C220 C 0.0019 0.79752 0.27602 0.0
C221 C 0.00626 0.84436 0.25249 0.0
C222 C 0.00336 0.71185 0.31836 0.0
C223 C 0.00588 0.71732 0.26376 0.0
C224 C 0.00517 0.76051 0.24389 0.0
C225 C 0.0081 0.67904 0.22566 0.0
C226 C 0.00798 0.66922 0.34511 0.0
C227 C 0.03424 0.69156 0.18818 0.0
C228 C 0.02947 0.65892 0.14459 0.0
C229 C -0.00045 0.61215 0.13814 0.0
C230 C 0.97673 0.59798 0.17873 0.0
C231 C 0.98026 0.63112 0.22117 0.0
H232 H 0.02207 0.67903 0.38855 0.0
H233 H 0.9766 0.64104 0.34162 0.0
H234 H 0.02778 0.65417 0.32668 0.0
H235 H 0.05633 0.72786 0.19019 0.0
H236 H 0.04623 0.67184 0.1131 0.0
H237 H 0.39687 0.01046 0.0681 0.0
H238 H 0.34145 0.9819 0.1188 0.0
H239 H 0.43127 0.04971 0.26495 0.0
H240 H 0.48711 0.07249 0.21493 0.0
H241 H 0.37303 0.98567 0.29218 0.0
H242 H 0.29631 0.07883 0.14747 0.0
H243 H 0.29824 0.02577 0.11619 0.0
H244 H 0.34608 0.07552 0.1439 0.0
C245 C 0.40504 0.01618 0.11149 0.0
C246 C 0.44639 0.04239 0.13784 0.0
C247 C 0.37316 1.00125 0.14038 0.0
C248 C 0.38157 0.01591 0.19544 0.0
C249 C 0.42354 0.03818 0.22246 0.0
H250 H 0.21677 0.11183 0.33795 0.0
H251 H 0.26799 0.09952 0.29235 0.0
C252 C 0.45568 0.05088 0.1939 0.0
C253 C 0.34722 0.01411 0.22356 0.0
H254 H 0.26168 0.046 0.21521 0.0
C255 C 0.34877 0.99908 0.2754 0.0
C256 C 0.31577 0.0324 0.20232 0.0
C257 C 0.31421 0.0545 0.14975 0.0
C258 C 0.32115 1.00352 0.30718 0.0
C259 C 0.28895 0.02041 0.2852 0.0
C260 C 0.28625 0.03321 0.23245 0.0
C261 C 0.25926 0.02831 0.31646 0.0
C262 C 0.32867 0.99266 0.3648 0.0
C263 C 0.23747 0.99312 0.34649 0.0
C264 C 0.20977 1.00141 0.37528 0.0
C265 C 0.20093 0.04377 0.37189 0.0
C266 C 0.22253 0.07871 0.34144 0.0
C267 C 0.2516 0.07138 0.31474 0.0
H268 H 0.36166 0.99603 0.37965 0.0
H269 H 0.32142 0.01705 0.39153 0.0
H270 H 0.3086 0.95516 0.36783 0.0
H271 H 0.24167 0.95906 0.34778 0.0
H272 H 0.19584 0.97465 0.40046 0.0
H273 H 0.93937 0.89284 0.6985 0.0
H274 H 0.94999 0.8277 0.74677 0.0
H275 H 0.03233 0.81495 0.64564 0.0
H276 H 0.02176 0.88057 0.59643 0.0
H277 H 0.97345 0.72496 0.66402 0.0
H278 H 0.05739 0.83876 0.85466 0.0
H279 H 0.00835 0.8448 0.8278 0.0
H280 H 0.04985 0.86341 0.7914 0.0
C281 C 0.95968 0.87628 0.68609 0.0
C282 C 0.97983 0.89242 0.64346 0.0
C283 C 0.96594 0.83908 0.71417 0.0
C284 C 0.99259 0.81689 0.70067 0.0
C285 C 0.01189 0.83176 0.65717 0.0
H286 H 0.05594 0.62465 0.93041 0.0
H287 H 0.0651 0.68381 0.86408 0.0
C288 C 0.00577 0.86931 0.62902 0.0
C289 C -0.00025 0.77812 0.73217 0.0
H290 H 0.03048 0.75405 0.8602 0.0
C291 C 0.98647 0.73145 0.70677 0.0
C292 C 0.01742 0.78649 0.78785 0.0
C293 C 0.03448 0.83616 0.81702 0.0
C294 C 0.98819 0.69267 0.73605 0.0
C295 C 0.00322 0.70056 0.79237 0.0
C296 C 0.0187 0.74769 0.81717 0.0
C297 C -0.0007 0.6603 0.827 0.0
C298 C 0.97333 0.64344 0.7064 0.0
C299 C 0.95955 0.62671 0.82773 0.0
C300 C 0.95436 0.59317 0.86542 0.0
C301 C 0.98874 0.59212 0.90348 0.0
C302 C 0.02893 0.62395 0.90106 0.0
C303 C 0.03411 0.65806 0.86346 0.0
H304 H 0.9765 0.64555 0.66392 0.0
H305 H 0.99104 0.62174 0.72565 0.0
H306 H 0.93974 0.62464 0.70658 0.0
H307 H 0.93206 0.62805 0.80103 0.0
H308 H 0.92298 0.56939 0.86637 0.0
H309 H 0.38378 0.98192 0.92557 0.0
H310 H 0.3221 0.98088 0.86042 0.0
H311 H 0.37729 0.13423 0.86021 0.0
H312 H 0.43824 0.1357 0.92563 0.0
H313 H 0.297 0.10589 0.87351 0.0
H314 H 0.30753 0.99668 0.70122 0.0
H315 H 0.30681 0.96854 0.76246 0.0
H316 H 0.35023 0.0219 0.75831 0.0
C317 C 0.38305 0.01525 0.91085 0.0
C318 C 0.41596 0.05886 0.93075 0.0
C319 C 0.34778 0.01463 0.87364 0.0
C320 C 0.34517 0.05749 0.85521 0.0
C321 C 0.37852 0.10076 0.87399 0.0
H322 H 0.17817 0.0906 0.57885 0.0
H323 H 0.23795 0.09594 0.64899 0.0
C324 C 0.41346 0.10148 0.91131 0.0
C325 C 0.30729 0.05805 0.81787 0.0
H326 H 0.24727 0.0171 0.69231 0.0
C327 C 0.28607 0.08645 0.83386 0.0
C328 C 0.2933 0.033 0.76605 0.0
C329 C 0.3158 1.00363 0.74564 0.0
C330 C 0.25143 0.09073 0.79934 0.0
C331 C 0.23719 0.06525 0.74777 0.0
C332 C 0.2582 0.03656 0.73195 0.0
C333 C 0.20132 0.06861 0.70863 0.0
C334 C 0.23116 0.12351 0.81779 0.0
C335 C 0.16092 0.05317 0.71946 0.0
C336 C 0.12654 0.0506 0.67946 0.0
C337 C 0.13203 0.06273 0.62778 0.0
C338 C 0.17283 0.08077 0.61815 0.0
C339 C 0.20705 0.08364 0.65813 0.0
H340 H 0.25202 0.14941 0.85228 0.0
H341 H 0.22251 0.14381 0.78477 0.0
H342 H 0.20219 0.10172 0.83073 0.0
H343 H 0.15565 0.04076 0.7579 0.0
H344 H 0.09549 0.03612 0.68798 0.0
H345 H 0.98646 0.39252 0.94652 0.0
H346 H 0.97333 0.32888 0.8761 0.0
H347 H 0.07951 0.41875 0.81675 0.0
H348 H 0.08968 0.48397 0.88362 0.0
H349 H 0.0301 0.36187 0.73727 0.0
H350 H 0.04063 0.24807 0.9021 0.0
H351 H -0.00428 0.26467 0.89729 0.0
H352 H 0.04753 0.31007 0.91449 0.0
C353 C 0.00501 0.4 0.9161 0.0
C354 C 0.0385 0.44402 0.92039 0.0
C355 C -0.00137 0.3627 0.87688 0.0
C356 C 0.02669 0.36763 0.84228 0.0
C357 C 0.05762 0.41315 0.84311 0.0
H358 H 0.05719 0.10689 0.7267 0.0
H359 H 0.0712 0.18671 0.76964 0.0
C360 C 0.06322 0.45085 0.88129 0.0
C361 C 0.02614 0.32505 0.80854 0.0
H362 H 0.02341 0.20989 0.81412 0.0
C363 C 0.02881 0.32873 0.75428 0.0
C364 C 0.02585 0.28181 0.8304 0.0
C365 C 0.02777 0.27605 0.88935 0.0
C366 C 0.03053 0.2908 0.72161 0.0
C367 C 0.02772 0.24659 0.74273 0.0
C368 C 0.02541 0.2432 0.7971 0.0
C369 C 0.02634 0.20299 0.70992 0.0
C370 C 0.03683 0.29956 0.66536 0.0
C371 C -0.00147 0.18584 0.65992 0.0
C372 C 0.99226 0.14106 0.63393 0.0
C373 C 0.01244 0.11126 0.65801 0.0
C374 C 0.04203 0.1294 0.70628 0.0
C375 C 0.04932 0.17484 0.73145 0.0
H376 H 0.05413 0.33812 0.66252 0.0
H377 H 0.05436 0.27856 0.65167 0.0
H378 H 0.00588 0.28927 0.6377 0.0
H379 H 0.97918 0.20525 0.64258 0.0
H380 H 0.96804 0.12753 0.5979 0.0
H381 H 0.60982 0.01872 1.01322 0.0
H382 H 0.66556 0.04555 0.96301 0.0
H383 H 0.57473 0.98413 0.81579 0.0
H384 H 0.51903 0.96208 0.86574 0.0
H385 H 0.68782 0.98758 0.92065 0.0
H386 H 0.64943 0.08846 0.75608 0.0
H387 H 0.61579 0.07026 0.80318 0.0
H388 H 0.60849 0.03076 0.74481 0.0
C389 C 0.60156 0.01441 0.96979 0.0
C390 C 0.55987 0.99019 0.94318 0.0
C391 C 0.63356 0.02869 0.94101 0.0
C392 C 0.62482 0.0171 0.88512 0.0
C393 C 0.58273 0.99535 0.85833 0.0
H394 H 0.75202 0.93325 0.66641 0.0
H395 H 0.70298 0.95013 0.71419 0.0
C396 C 0.55061 0.98285 0.887 0.0
C397 C 0.65945 0.0194 0.85713 0.0
H398 H 0.69334 0.0418 0.73954 0.0
C399 C 0.68942 1.00074 0.88165 0.0
C400 C 0.66162 0.03546 0.80549 0.0
C401 C 0.63218 0.05767 0.77642 0.0
C402 C 0.72016 0.99622 0.85576 0.0
C403 C 0.72137 0.01089 0.80379 0.0
C404 C 0.69228 0.03051 0.77946 0.0
C405 C 0.75115 1.00345 0.77308 0.0
C406 C 0.75001 0.97375 0.88327 0.0
C407 C 0.79442 0.02816 0.79005 0.0
C408 C 0.82237 0.01845 0.76286 0.0
C409 C 0.80752 0.98407 0.71808 0.0
C410 C 0.76419 0.95986 0.70082 0.0
C411 C 0.73624 0.96969 0.72784 0.0
H412 H 0.7403 0.95666 0.91916 0.0
H413 H 0.7524 0.94632 0.85523 0.0
H414 H 0.7816 1.00181 0.89634 0.0
H415 H 0.80656 0.05443 0.82479 0.0
H416 H 0.85562 0.03687 0.77766 0.0
H417 H 0.26058 0.49349 0.14562 0.0
H418 H 0.32653 0.48347 0.13761 0.0
H419 H 0.25637 0.35635 1.02819 0.0
H420 H 0.19117 0.36684 0.03604 0.0
H421 H 0.34725 0.40551 0.16611 0.0
H422 H 0.34976 0.42576 0.9522 0.0
H423 H 0.31723 0.44638 0.98634 0.0
H424 H 0.30024 0.38444 0.96055 0.0
C425 C 0.25973 0.4642 0.11906 0.0
C426 C 0.22128 0.4311 0.09101 0.0
C427 C 0.29715 0.45838 0.11456 0.0
C428 C 0.29645 0.41963 0.08152 0.0
C429 C 0.25787 0.3872 0.05277 0.0
H430 H 0.42485 0.23168 0.09395 0.0
H431 H 0.38499 0.28196 0.10645 0.0
C432 C 0.22067 0.39292 0.05749 0.0
C433 C 0.3351 0.40967 0.0808 0.0
H434 H 0.38773 0.37794 0.99527 0.0
C435 C 0.35673 0.40056 0.12892 0.0
C436 C 0.34797 0.40388 0.03247 0.0
C437 C 0.32783 0.41615 0.98008 0.0
C438 C 0.38871 0.38232 0.12935 0.0
C439 C 0.39891 0.37237 0.08033 0.0
C440 C 0.37955 0.38498 0.03279 0.0
C441 C 0.42586 0.34405 0.07679 0.0
C442 C 0.41039 0.37244 0.18215 0.0
C443 C 0.46182 0.36186 0.05504 0.0
C444 C 0.48511 0.3331 0.04855 0.0
C445 C 0.47275 0.28616 0.06362 0.0
C446 C 0.43651 0.26845 0.08479 0.0
C447 C 0.41345 0.2971 0.09149 0.0
H448 H 0.40947 0.3959 0.21599 0.0
H449 H 0.3941 0.33471 0.18927 0.0
H450 H 0.44351 0.37782 0.18212 0.0
H451 H 0.47155 0.39773 0.0426 0.0
H452 H 0.51245 0.34714 0.03112 0.0
H453 H 0.1617 0.56476 0.16487 0.0
H454 H 0.22368 0.63694 0.19627 0.0
H455 H 0.16055 0.72182 0.10973 0.0
H456 H 0.09831 0.65002 0.0796 0.0
H457 H 0.26446 0.68165 0.12657 0.0
H458 H 0.22582 0.81445 0.2386 0.0
H459 H 0.19276 0.75178 0.22705 0.0
H460 H 0.18866 0.79174 0.17653 0.0
C461 C 0.16068 0.59911 0.15405 0.0
C462 C 0.12529 0.60199 0.11993 0.0
C463 C 0.19599 0.64031 0.17217 0.0
C464 C 0.19669 0.68495 0.15589 0.0
C465 C 0.16044 0.68816 0.12426 0.0
H466 H 0.36539 0.91711 0.04697 0.0
H467 H 0.30656 0.86435 0.08226 0.0
C468 C 0.12488 0.64702 0.10676 0.0
C469 C 0.23706 0.72561 0.16263 0.0
H470 H 0.28344 0.847 0.1921 0.0
C471 C 0.26901 0.71755 0.14237 0.0
C472 C 0.24288 0.77254 0.18279 0.0
C473 C 0.21078 0.783 0.20796 0.0
C474 C 0.3055 0.75536 0.13866 0.0
C475 C 0.31039 0.80254 0.15625 0.0
C476 C 0.27943 0.81066 0.17872 0.0
C477 C 0.3455 0.84361 0.1457 0.0
C478 C 0.33745 0.74488 0.1129 0.0
C479 C 0.38668 0.8507 0.17124 0.0
C480 C 0.42012 0.88062 0.15103 0.0
C481 C 0.41262 0.90425 0.10578 0.0
C482 C 0.37166 0.89983 0.08261 0.0
C483 C 0.33821 0.86987 0.10276 0.0
H484 H 0.32606 0.70723 0.09468 0.0
H485 H 0.34587 0.76908 0.08127 0.0
H486 H 0.36634 0.75126 0.14364 0.0
H487 H 0.39274 0.83046 0.20426 0.0
H488 H 0.45163 0.88327 0.16883 0.0
H489 H 0.64152 0.16639 0.06025 0.0
H490 H 0.70168 0.20422 1.01981 0.0
H491 H 0.6295 0.13173 0.86543 0.0
H492 H 0.56884 0.09327 0.90617 0.0
H493 H 0.74595 0.16563 0.96389 0.0
H494 H 0.66834 0.27006 0.83492 0.0
H495 H 0.64489 0.23792 0.88654 0.0
H496 H 0.64548 0.20572 0.8265 0.0
C497 C 0.63872 0.15826 1.01775 0.0
C498 C 0.60108 0.12693 0.98617 0.0
C499 C 0.67304 0.17948 0.99474 0.0
C500 C 0.6701 0.17022 0.93961 0.0
C501 C 0.6324 0.13878 0.90794 0.0
H502 H 0.9175 0.3787 0.92754 0.0
H503 H 0.86162 0.30176 0.89129 0.0
C504 C 0.59797 0.11707 0.93115 0.0
C505 C 0.70624 0.19693 0.91632 0.0
H506 H 0.74108 0.29953 0.85637 0.0
C507 C 0.74506 0.19412 0.93888 0.0
C508 C 0.70462 0.23311 0.88248 0.0
C509 C 0.66372 0.23726 0.85615 0.0
C510 C 0.7825 0.23095 0.93575 0.0
C511 C 0.78062 0.27066 0.90816 0.0
C512 C 0.74213 0.26924 0.87815 0.0
C513 C 0.8143 0.31816 0.92315 0.0
C514 C 0.82319 0.22996 0.96746 0.0
C515 C 0.80593 0.35314 0.95163 0.0
C516 C 0.8375 0.39663 0.97211 0.0
C517 C 0.87844 0.40614 0.96501 0.0
C518 C 0.88663 0.37178 0.93493 0.0
C519 C 0.85469 0.32801 0.91391 0.0
H520 H 0.81881 0.19684 0.98802 0.0
H521 H 0.84499 0.23205 0.94028 0.0
H522 H 0.83808 0.26136 0.99814 0.0
H523 H 0.77504 0.34618 0.95962 0.0
H524 H 0.82993 0.42226 0.9949 0.0
H525 H 0.82595 0.6621 1.02702 0.0
H526 H 0.76798 0.68545 0.0421 0.0
H527 H 0.68099 0.54274 0.98188 0.0
H528 H 0.73906 0.52045 0.96455 0.0
H529 H 0.6514 0.60317 0.93995 0.0
H530 H 0.70284 0.66112 0.15659 0.0
H531 H 0.74262 0.69382 0.12217 0.0
H532 H 0.72809 0.62978 0.12224 0.0
C533 C 0.79442 0.63582 1.01767 0.0
C534 C 0.78667 0.58954 0.99504 0.0
C535 C 0.76135 0.64891 1.0267 0.0
C536 C 0.72007 0.61552 1.01448 0.0
C537 C 0.7125 0.56907 0.99205 0.0
H538 H 0.52697 0.71221 0.10275 0.0
H539 H 0.57043 0.66334 0.09804 0.0
C540 C 0.74551 0.55633 0.98207 0.0
C541 C 0.6846 0.63015 1.02121 0.0
H542 H 0.65281 0.69212 0.10744 0.0
C543 C 0.65145 0.62189 0.97696 0.0
C544 C 0.6838 0.65353 0.06978 0.0
C545 C 0.71604 0.65953 0.12049 0.0
C546 C 0.61893 0.63865 0.97896 0.0
C547 C 0.62032 0.66602 1.02583 0.0
C548 C 0.65207 0.67188 0.07114 0.0
C549 C 0.59138 0.6922 1.02708 0.0
C550 C 0.58359 0.62702 0.93055 0.0
C551 C 0.58858 0.72431 0.98881 0.0
C552 C 0.56356 0.75137 0.99117 0.0
C553 C 0.54179 0.74806 0.03276 0.0
C554 C 0.54374 0.71534 0.07055 0.0
C555 C 0.5686 0.68774 0.06792 0.0
H556 H 0.57847 0.59236 0.90823 0.0
H557 H 0.5539 0.62503 0.94191 0.0
H558 H 0.59174 0.65524 0.9029 0.0
H559 H 0.6065 0.72931 0.95765 0.0
H560 H 0.56168 0.77554 0.96088 0.0
loop_
_geom_bond_atom_site_label_1
_geom_bond_atom_site_label_2
_geom_bond_distance
_geom_bond_site_symmetry_2
_ccdc_geom_bond_type
Co0 N1 2.034 . S
Co0 O15 2.262 1_545 S
Co0 O19 1.958 . S
Co0 O23 1.950 . S
Co0 O24 2.057 1_545 S
N1 Co0 2.034 . S
N1 C2 1.366 . S
N1 C4 1.332 . S
C2 N1 1.366 . S
C2 C5 1.377 . S
C2 H34 0.931 . S
N3 C4 1.346 . S
N3 C5 1.337 . S
C4 N1 1.332 . S
C4 N3 1.346 . S
C4 C38 1.361 . S
C5 C2 1.377 . S
C5 N3 1.337 . S
C5 H41 0.930 . S
Co6 N7 2.034 . S
Co6 O20 1.950 . S
Co6 O21 2.262 1_565 S
Co6 O22 1.958 . S
Co6 O26 2.057 1_565 S
N7 Co6 2.034 . S
N7 C10 1.366 . S
N7 C11 1.332 . S
N8 C9 1.337 . S
N8 C11 1.346 . S
C9 N8 1.337 . S
C9 C10 1.377 . S
C9 H42 0.930 . S
C10 N7 1.366 . S
C10 C9 1.377 . S
C10 H14 0.931 . S
C11 N7 1.332 . S
C11 N8 1.346 . S
C11 C28 1.361 1_565 S
Co12 O15 2.097 1_545 S
Co12 O16 2.065 1_445 S
Co12 O17 2.065 . S
Co12 O18 2.042 . S
Co12 O21 2.097 1_455 S
Co12 O25 2.042 1_445 S
C13 O21 1.253 . S
C13 O26 1.263 . S
H14 C10 0.931 . S
O15 Co0 2.262 1_565 S
O15 Co12 2.097 1_565 S
O15 C39 1.253 . S
O16 Co12 2.065 1_665 S
O16 C32 1.221 . S
O17 Co12 2.065 . S
O17 C27 1.221 . S
O18 Co12 2.042 . S
O18 C33 1.237 . S
O19 Co0 1.958 . S
O19 C33 1.278 . S
O20 Co6 1.950 . S
O20 C32 1.277 . S
O21 Co6 2.262 1_545 S
O21 Co12 2.097 1_655 S
O21 C13 1.253 . S
O22 Co6 1.958 . S
O22 C40 1.278 . S
O23 Co0 1.950 . S
O23 C27 1.277 . S
O24 Co0 2.057 1_565 S
O24 C39 1.263 . S
O25 Co12 2.042 1_665 S
O25 C40 1.237 . S
O26 Co6 2.057 1_545 S
O26 C13 1.263 . S
C27 O17 1.221 . S
C27 O23 1.277 . S
C28 C11 1.361 1_545 S
C28 H29 0.960 . S
C28 H30 0.961 . S
C28 H31 0.961 . S
H29 C28 0.960 . S
H30 C28 0.961 . S
H31 C28 0.961 . S
C32 O16 1.221 . S
C32 O20 1.277 . S
C33 O18 1.237 . S
C33 O19 1.278 . S
H34 C2 0.931 . S
H35 C38 0.961 . S
H36 C38 0.961 . S
H37 C38 0.960 . S
C38 C4 1.361 . S
C38 H35 0.961 . S
C38 H36 0.961 . S
C38 H37 0.960 . S
C39 O15 1.253 . S
C39 O24 1.263 . S
C40 O22 1.278 . S
C40 O25 1.237 . S
H41 C5 0.930 . S
H42 C9 0.930 . S
Co43 N44 2.034 1_554 S
Co43 O58 2.262 . S
Co43 O62 1.958 1_554 S
Co43 O66 1.950 . S
Co43 O67 2.057 . S
N44 Co43 2.034 1_556 S
N44 C45 1.366 . S
N44 C47 1.332 1_556 S
C45 N44 1.366 . S
C45 C48 1.377 . S
C45 H77 0.931 . S
N46 C47 1.346 . S
N46 C48 1.337 1_554 S
C47 N44 1.332 1_554 S
C47 N46 1.346 . S
C47 C81 1.361 . S
C48 C45 1.377 . S
C48 N46 1.337 1_556 S
C48 H84 0.930 . S
Co49 N50 2.034 . S
Co49 O63 1.950 . S
Co49 O64 2.262 1_554 S
Co49 O65 1.958 1_554 S
Co49 O69 2.057 1_554 S
N50 Co49 2.034 . S
N50 C53 1.366 . S
N50 C54 1.332 . S
N51 C52 1.337 . S
N51 C54 1.346 . S
C52 N51 1.337 . S
C52 C53 1.377 . S
C52 H85 0.930 . S
C53 N50 1.366 . S
C53 C52 1.377 . S
C53 H57 0.931 . S
C54 N50 1.332 . S
C54 N51 1.346 . S
C54 C71 1.361 . S
Co55 O58 2.097 . S
Co55 O59 2.065 . S
Co55 O60 2.065 . S
Co55 O61 2.042 1_554 S
Co55 O64 2.097 1_544 S
Co55 O68 2.042 1_545 S
C56 O64 1.253 . S
C56 O69 1.263 . S
H57 C53 0.931 . S
O58 Co43 2.262 . S
O58 Co55 2.097 . S
O58 C82 1.253 . S
O59 Co55 2.065 . S
O59 C75 1.221 1_545 S
O60 Co55 2.065 . S
O60 C70 1.221 . S
O61 Co55 2.042 1_556 S
O61 C76 1.237 . S
O62 Co43 1.958 1_556 S
O62 C76 1.278 . S
O63 Co49 1.950 . S
O63 C75 1.277 . S
O64 Co49 2.262 1_556 S
O64 Co55 2.097 1_566 S
O64 C56 1.253 . S
O65 Co49 1.958 1_556 S
O65 C83 1.278 1_556 S
O66 Co43 1.950 . S
O66 C70 1.277 . S
O67 Co43 2.057 . S
O67 C82 1.263 . S
O68 Co55 2.042 1_565 S
O68 C83 1.237 . S
O69 Co49 2.057 1_556 S
O69 C56 1.263 . S
C70 O60 1.221 . S
C70 O66 1.277 . S
C71 C54 1.361 . S
C71 H72 0.960 . S
C71 H73 0.961 . S
C71 H74 0.961 . S
H72 C71 0.960 . S
H73 C71 0.961 . S
H74 C71 0.961 . S
C75 O59 1.221 1_565 S
C75 O63 1.277 . S
C76 O61 1.237 . S
C76 O62 1.278 . S
H77 C45 0.931 . S
H78 C81 0.961 . S
H79 C81 0.961 . S
H80 C81 0.960 . S
C81 C47 1.361 . S
C81 H78 0.961 . S
C81 H79 0.961 . S
C81 H80 0.960 . S
C82 O58 1.253 . S
C82 O67 1.263 . S
C83 O65 1.278 1_554 S
C83 O68 1.237 . S
H84 C48 0.930 . S
H85 C52 0.930 . S
Co86 N87 2.034 . S
Co86 O101 2.262 1_554 S
Co86 O105 1.958 . S
Co86 O109 1.950 . S
Co86 O110 2.057 1_554 S
N87 Co86 2.034 . S
N87 C88 1.366 . S
N87 C90 1.332 . S
C88 N87 1.366 . S
C88 C91 1.377 . S
C88 H120 0.931 . S
N89 C90 1.346 . S
N89 C91 1.337 . S
C90 N87 1.332 . S
C90 N89 1.346 . S
C90 C124 1.361 1_554 S
C91 C88 1.377 . S
C91 N89 1.337 . S
C91 H127 0.930 . S
Co92 N93 2.034 1_554 S
Co92 O106 1.950 1_554 S
Co92 O107 2.262 . S
Co92 O108 1.958 . S
Co92 O112 2.057 . S
N93 Co92 2.034 1_556 S
N93 C96 1.366 . S
N93 C97 1.332 . S
N94 C95 1.337 . S
N94 C97 1.346 . S
C95 N94 1.337 . S
C95 C96 1.377 . S
C95 H128 0.930 . S
C96 N93 1.366 . S
C96 C95 1.377 . S
C96 H100 0.931 . S
C97 N93 1.332 . S
C97 N94 1.346 . S
C97 C114 1.361 . S
Co98 O101 2.097 1_554 S
Co98 O102 2.069 1_554 S
Co98 O103 2.065 . S
Co98 O104 2.042 . S
Co98 O107 2.097 1_455 S
Co98 O111 2.042 1_455 S
C99 O107 1.253 . S
C99 O112 1.263 . S
H100 C96 0.931 . S
O101 Co86 2.262 1_556 S
O101 Co98 2.097 1_556 S
O101 C125 1.253 . S
O102 Co98 2.069 1_556 S
O102 C118 1.210 1_455 S
O103 Co98 2.065 . S
O103 C113 1.221 . S
O104 Co98 2.042 . S
O104 C119 1.237 . S
O105 Co86 1.958 . S
O105 C119 1.278 . S
O106 Co92 1.950 1_556 S
O106 C118 1.277 . S
O107 Co92 2.262 . S
O107 Co98 2.097 1_655 S
O107 C99 1.253 . S
O108 Co92 1.958 . S
O108 C126 1.278 . S
O109 Co86 1.950 . S
O109 C113 1.277 . S
O110 Co86 2.057 1_556 S
O110 C125 1.263 . S
O111 Co98 2.042 1_655 S
O111 C126 1.238 . S
O112 Co92 2.057 . S
O112 C99 1.263 . S
C113 O103 1.221 . S
C113 O109 1.277 . S
C114 C97 1.361 . S
C114 H115 0.960 . S
C114 H116 0.961 . S
C114 H117 0.961 1_556 S
H115 C114 0.960 . S
H116 C114 0.961 . S
H117 C114 0.961 1_554 S
C118 O102 1.210 1_655 S
C118 O106 1.277 . S
C119 O104 1.237 . S
C119 O105 1.278 . S
H120 C88 0.931 . S
H121 C124 0.961 . S
H122 C124 0.961 . S
H123 C124 0.960 . S
C124 C90 1.361 1_556 S
C124 H121 0.961 . S
C124 H122 0.961 . S
C124 H123 0.960 . S
C125 O101 1.253 . S
C125 O110 1.263 . S
C126 O108 1.278 . S
C126 O111 1.238 . S
H127 C91 0.930 . S
H128 C95 0.930 . S
H129 C137 0.929 . S
H130 C139 0.930 . S
H131 C141 0.930 . S
H132 C144 0.929 . S
H133 C147 0.930 . S
H134 C149 0.960 . S
H135 C149 0.960 . S
H136 C149 0.960 . S
C137 H129 0.929 . S
C137 C138 1.377 . S
C137 C139 1.384 . S
C138 C137 1.377 . S
C138 C144 1.390 . S
C139 H130 0.930 . S
C139 C137 1.384 . S
C139 C140 1.372 . S
C140 C139 1.372 . S
C140 C141 1.400 . S
C140 C145 1.490 . S
C141 H131 0.930 . S
C141 C140 1.400 . S
C141 C144 1.386 . S
H142 C158 0.930 . S
H143 C159 0.931 . S
C144 H132 0.929 . S
C144 C138 1.390 . S
C144 C141 1.386 . S
C145 C140 1.490 . S
C145 C147 1.395 . S
C145 C148 1.403 . S
H146 C152 0.930 1_655 S
C147 H133 0.930 . S
C147 C145 1.395 . S
C147 C150 1.403 . S
C148 C145 1.403 . S
C148 C149 1.524 1_455 S
C148 C152 1.400 . S
C149 H134 0.960 . S
C149 H135 0.960 . S
C149 H136 0.960 . S
C149 C148 1.524 1_655 S
C150 C147 1.403 . S
C150 C151 1.392 . S
C150 C154 1.495 . S
C151 C150 1.392 . S
C151 C152 1.385 . S
C151 C153 1.478 . S
C152 H146 0.930 1_455 S
C152 C148 1.400 . S
C152 C151 1.385 . S
C153 C151 1.478 . S
C153 C155 1.381 . S
C153 C159 1.383 . S
C154 C150 1.495 . S
C154 H160 0.959 . S
C154 H161 0.961 . S
C154 H162 0.960 . S
C155 C153 1.381 . S
C155 C156 1.394 . S
C155 H163 0.930 . S
C156 C155 1.394 . S
C156 C157 1.383 . S
C156 H164 0.929 . S
C157 C156 1.383 . S
C157 C158 1.377 . S
C158 H142 0.930 . S
C158 C157 1.377 . S
C158 C159 1.379 . S
C159 H143 0.931 . S
C159 C153 1.383 . S
C159 C158 1.379 . S
H160 C154 0.959 . S
H161 C154 0.961 . S
H162 C154 0.960 . S
H163 C155 0.930 . S
H164 C156 0.929 . S
H165 C173 0.929 . S
H166 C175 0.930 . S
H167 C177 0.930 . S
H168 C180 0.929 . S
H169 C183 0.930 . S
H170 C185 0.960 . S
H171 C185 0.960 . S
H172 C185 0.960 1_565 S
C173 H165 0.929 . S
C173 C174 1.377 1_545 S
C173 C175 1.384 . S
C174 C173 1.377 1_565 S
C174 C180 1.390 . S
C175 H166 0.930 . S
C175 C173 1.384 . S
C175 C176 1.372 1_545 S
C176 C175 1.372 1_565 S
C176 C177 1.400 . S
C176 C181 1.490 . S
C177 H167 0.930 . S
C177 C176 1.400 . S
C177 C180 1.386 . S
H178 C194 0.930 . S
H179 C195 0.931 . S
C180 H168 0.929 . S
C180 C174 1.390 . S
C180 C177 1.386 . S
C181 C176 1.490 . S
C181 C183 1.395 . S
C181 C184 1.403 1_565 S
H182 C188 0.930 . S
C183 H169 0.930 . S
C183 C181 1.395 . S
C183 C186 1.403 . S
C184 C181 1.403 1_545 S
C184 C185 1.524 . S
C184 C188 1.400 . S
C185 H170 0.960 . S
C185 H171 0.960 . S
C185 H172 0.960 1_545 S
C185 C184 1.524 . S
C186 C183 1.403 . S
C186 C187 1.392 . S
C186 C190 1.495 . S
C187 C186 1.392 . S
C187 C188 1.385 1_565 S
C187 C189 1.478 . S
C188 H182 0.930 . S
C188 C184 1.400 . S
C188 C187 1.385 1_545 S
C189 C187 1.478 . S
C189 C191 1.381 1_565 S
C189 C195 1.383 . S
C190 C186 1.495 . S
C190 H196 0.959 . S
C190 H197 0.961 . S
C190 H198 0.960 . S
C191 C189 1.381 1_545 S
C191 C192 1.394 . S
C191 H199 0.930 . S
C192 C191 1.394 . S
C192 C193 1.389 . S
C192 H200 0.929 . S
C193 C192 1.389 . S
C193 C194 1.362 1_545 S
C194 H178 0.930 . S
C194 C193 1.362 1_565 S
C194 C195 1.379 . S
C195 H179 0.931 . S
C195 C189 1.383 . S
C195 C194 1.379 . S
H196 C190 0.959 . S
H197 C190 0.961 . S
H198 C190 0.960 . S
H199 C191 0.930 . S
H200 C192 0.929 . S
H201 C209 0.929 . S
H202 C211 0.930 . S
H203 C213 0.930 . S
H204 C216 0.929 . S
H205 C219 0.930 . S
H206 C221 0.960 . S
H207 C221 0.960 . S
H208 C221 0.960 . S
C209 H201 0.929 . S
C209 C210 1.377 . S
C209 C211 1.384 . S
C210 C209 1.377 . S
C210 C216 1.390 1_455 S
C211 H202 0.930 . S
C211 C209 1.384 . S
C211 C212 1.372 . S
C212 C211 1.372 . S
C212 C213 1.400 1_455 S
C212 C217 1.490 . S
C213 H203 0.930 . S
C213 C212 1.400 1_655 S
C213 C216 1.386 . S
H214 C230 0.930 . S
H215 C231 0.931 . S
C216 H204 0.929 . S
C216 C210 1.390 1_655 S
C216 C213 1.386 . S
C217 C212 1.490 . S
C217 C219 1.395 . S
C217 C220 1.403 1_455 S
H218 C224 0.930 . S
C219 H205 0.930 . S
C219 C217 1.395 . S
C219 C222 1.403 . S
C220 C217 1.403 1_655 S
C220 C221 1.524 . S
C220 C224 1.400 . S
C221 H206 0.960 . S
C221 H207 0.960 . S
C221 H208 0.960 . S
C221 C220 1.524 . S
C222 C219 1.403 . S
C222 C223 1.392 . S
C222 C226 1.495 . S
C223 C222 1.392 . S
C223 C224 1.385 1_455 S
C223 C225 1.478 . S
C224 H218 0.930 . S
C224 C220 1.400 . S
C224 C223 1.385 1_655 S
C225 C223 1.478 . S
C225 C227 1.381 . S
C225 C231 1.383 1_455 S
C226 C222 1.495 . S
C226 H232 0.959 . S
C226 H233 0.961 . S
C226 H234 0.960 . S
C227 C225 1.381 . S
C227 C228 1.394 . S
C227 H235 0.930 . S
C228 C227 1.394 . S
C228 C229 1.383 . S
C228 H236 0.929 . S
C229 C228 1.383 . S
C229 C230 1.377 1_455 S
C230 H214 0.930 . S
C230 C229 1.377 1_655 S
C230 C231 1.379 . S
C231 H215 0.931 . S
C231 C225 1.383 1_655 S
C231 C230 1.379 . S
H232 C226 0.959 . S
H233 C226 0.961 . S
H234 C226 0.960 . S
H235 C227 0.930 . S
H236 C228 0.929 . S
H237 C245 0.929 . S
H238 C247 0.930 . S
H239 C249 0.930 . S
H240 C252 0.929 . S
H241 C255 0.930 1_565 S
H242 C257 0.960 . S
H243 C257 0.960 . S
H244 C257 0.960 . S
C245 H237 0.929 . S
C245 C246 1.377 1_565 S
C245 C247 1.384 . S
C246 C245 1.377 1_545 S
C246 C252 1.390 . S
C247 H238 0.930 . S
C247 C245 1.384 . S
C247 C248 1.372 1_565 S
C248 C247 1.372 1_545 S
C248 C249 1.400 . S
C248 C253 1.490 . S
C249 H239 0.930 . S
C249 C248 1.400 . S
C249 C252 1.386 . S
H250 C266 0.930 . S
H251 C267 0.931 . S
C252 H240 0.929 . S
C252 C246 1.390 . S
C252 C249 1.386 . S
C253 C248 1.490 . S
C253 C255 1.395 . S
C253 C256 1.403 . S
H254 C260 0.930 . S
C255 H241 0.930 1_545 S
C255 C253 1.395 . S
C255 C258 1.403 . S
C256 C253 1.403 . S
C256 C257 1.524 . S
C256 C260 1.400 . S
C257 H242 0.960 . S
C257 H243 0.960 . S
C257 H244 0.960 . S
C257 C256 1.524 . S
C258 C255 1.403 . S
C258 C259 1.392 . S
C258 C262 1.495 1_545 S
C259 C258 1.392 . S
C259 C260 1.385 . S
C259 C261 1.478 . S
C260 H254 0.930 . S
C260 C256 1.400 . S
C260 C259 1.385 . S
C261 C259 1.478 . S
C261 C263 1.381 1_545 S
C261 C267 1.383 . S
C262 C258 1.495 1_565 S
C262 H268 0.959 . S
C262 H269 0.961 . S
C262 H270 0.960 . S
C263 C261 1.381 1_565 S
C263 C264 1.394 1_565 S
C263 H271 0.930 . S
C264 C263 1.394 1_545 S
C264 C265 1.383 . S
C264 H272 0.929 1_545 S
C265 C264 1.383 . S
C265 C266 1.377 . S
C266 H250 0.930 . S
C266 C265 1.377 . S
C266 C267 1.379 . S
C267 H251 0.931 . S
C267 C261 1.383 . S
C267 C266 1.379 . S
H268 C262 0.959 . S
H269 C262 0.961 . S
H270 C262 0.960 . S
H271 C263 0.930 . S
H272 C264 0.929 1_565 S
H273 C281 0.929 . S
H274 C283 0.930 . S
H275 C285 0.930 . S
H276 C288 0.929 . S
H277 C291 0.930 . S
H278 C293 0.960 . S
H279 C293 0.960 . S
H280 C293 0.960 . S
C281 H273 0.929 . S
C281 C282 1.377 . S
C281 C283 1.384 . S
C282 C281 1.377 . S
C282 C288 1.390 1_655 S
C283 H274 0.930 . S
C283 C281 1.384 . S
C283 C284 1.372 . S
C284 C283 1.372 . S
C284 C285 1.400 1_655 S
C284 C289 1.490 . S
C285 H275 0.930 . S
C285 C284 1.400 1_455 S
C285 C288 1.386 . S
H286 C302 0.930 . S
H287 C303 0.931 . S
C288 H276 0.929 . S
C288 C282 1.390 1_455 S
C288 C285 1.386 . S
C289 C284 1.490 . S
C289 C291 1.395 . S
C289 C292 1.403 . S
H290 C296 0.930 . S
C291 H277 0.930 . S
C291 C289 1.395 . S
C291 C294 1.403 . S
C292 C289 1.403 . S
C292 C293 1.524 . S
C292 C296 1.400 . S
C293 H278 0.960 . S
C293 H279 0.960 . S
C293 H280 0.960 . S
C293 C292 1.524 . S
C294 C291 1.403 . S
C294 C295 1.392 . S
C294 C298 1.495 1_655 S
C295 C294 1.392 . S
C295 C296 1.385 . S
C295 C297 1.478 . S
C296 H290 0.930 . S
C296 C292 1.400 . S
C296 C295 1.385 . S
C297 C295 1.478 . S
C297 C299 1.381 . S
C297 C303 1.383 1_655 S
C298 C294 1.495 1_455 S
C298 H304 0.959 . S
C298 H305 0.961 . S
C298 H306 0.960 1_455 S
C299 C297 1.381 . S
C299 C300 1.394 . S
C299 H307 0.930 . S
C300 C299 1.394 . S
C300 C301 1.383 . S
C300 H308 0.929 . S
C301 C300 1.383 . S
C301 C302 1.377 1_655 S
C302 H286 0.930 . S
C302 C301 1.377 1_455 S
C302 C303 1.379 . S
C303 H287 0.931 . S
C303 C297 1.383 1_455 S
C303 C302 1.379 . S
H304 C298 0.959 . S
H305 C298 0.961 . S
H306 C298 0.960 1_655 S
H307 C299 0.930 . S
H308 C300 0.929 . S
H309 C317 0.929 . S
H310 C319 0.930 . S
H311 C321 0.930 . S
H312 C324 0.929 . S
H313 C327 0.930 1_565 S
H314 C329 0.960 . S
H315 C329 0.960 . S
H316 C329 0.960 . S
C317 H309 0.929 . S
C317 C318 1.377 1_565 S
C317 C319 1.384 . S
C318 C317 1.377 1_545 S
C318 C324 1.390 . S
C319 H310 0.930 . S
C319 C317 1.384 . S
C319 C320 1.372 1_565 S
C320 C319 1.372 1_545 S
C320 C321 1.400 . S
C320 C325 1.490 . S
C321 H311 0.930 . S
C321 C320 1.400 . S
C321 C324 1.386 . S
H322 C338 0.930 . S
H323 C339 0.931 . S
C324 H312 0.929 . S
C324 C318 1.390 . S
C324 C321 1.386 . S
C325 C320 1.490 . S
C325 C327 1.395 . S
C325 C328 1.403 . S
H326 C332 0.930 . S
C327 H313 0.930 1_545 S
C327 C325 1.395 . S
C327 C330 1.403 . S
C328 C325 1.403 . S
C328 C329 1.524 . S
C328 C332 1.400 . S
C329 H314 0.960 . S
C329 H315 0.960 . S
C329 H316 0.960 . S
C329 C328 1.524 . S
C330 C327 1.403 . S
C330 C331 1.392 . S
C330 C334 1.495 1_545 S
C331 C330 1.392 . S
C331 C332 1.385 . S
C331 C333 1.478 . S
C332 H326 0.930 . S
C332 C328 1.400 . S
C332 C331 1.385 . S
C333 C331 1.478 . S
C333 C335 1.381 1_545 S
C333 C339 1.383 . S
C334 C330 1.495 1_565 S
C334 H340 0.959 . S
C334 H341 0.961 1_565 S
C334 H342 0.960 . S
C335 C333 1.381 1_565 S
C335 C336 1.394 . S
C335 H343 0.930 . S
C336 C335 1.394 . S
C336 C337 1.383 1_565 S
C336 H344 0.929 . S
C337 C336 1.383 1_545 S
C337 C338 1.377 . S
C338 H322 0.930 . S
C338 C337 1.377 . S
C338 C339 1.379 . S
C339 H323 0.931 . S
C339 C333 1.383 . S
C339 C338 1.379 . S
H340 C334 0.959 . S
H341 C334 0.961 1_545 S
H342 C334 0.960 . S
H343 C335 0.930 . S
H344 C336 0.929 . S
H345 C353 0.929 . S
H346 C355 0.930 . S
H347 C357 0.930 . S
H348 C360 0.929 . S
H349 C363 0.930 . S
H350 C365 0.960 . S
H351 C365 0.960 . S
H352 C365 0.960 . S
C353 H345 0.929 . S
C353 C354 1.377 1_655 S
C353 C355 1.384 . S
C354 C353 1.377 1_455 S
C354 C360 1.390 . S
C355 H346 0.930 . S
C355 C353 1.384 . S
C355 C356 1.372 1_655 S
C356 C355 1.372 1_455 S
C356 C357 1.400 . S
C356 C361 1.490 . S
C357 H347 0.930 . S
C357 C356 1.400 . S
C357 C360 1.386 . S
H358 C374 0.930 . S
H359 C375 0.931 . S
C360 H348 0.929 . S
C360 C354 1.390 . S
C360 C357 1.386 . S
C361 C356 1.490 . S
C361 C363 1.395 1_455 S
C361 C364 1.403 . S
H362 C368 0.930 . S
C363 H349 0.930 . S
C363 C361 1.395 1_655 S
C363 C366 1.403 . S
C364 C361 1.403 . S
C364 C365 1.524 . S
C364 C368 1.400 . S
C365 H350 0.960 . S
C365 H351 0.960 . S
C365 H352 0.960 . S
C365 C364 1.524 . S
C366 C363 1.403 . S
C366 C367 1.392 1_655 S
C366 C370 1.495 . S
C367 C366 1.392 1_455 S
C367 C368 1.385 . S
C367 C369 1.478 . S
C368 H362 0.930 . S
C368 C364 1.400 . S
C368 C367 1.385 . S
C369 C367 1.478 . S
C369 C371 1.381 1_455 S
C369 C375 1.383 . S
C370 C366 1.495 . S
C370 H376 0.959 . S
C370 H377 0.961 . S
C370 H378 0.960 . S
C371 C369 1.381 1_655 S
C371 C372 1.394 . S
C371 H379 0.930 . S
C372 C371 1.394 . S
C372 C373 1.383 1_655 S
C372 H380 0.929 . S
C373 C372 1.383 1_455 S
C373 C374 1.377 . S
C374 H358 0.930 . S
C374 C373 1.377 . S
C374 C375 1.379 . S
C375 H359 0.931 . S
C375 C369 1.383 . S
C375 C374 1.379 . S
H376 C370 0.959 . S
H377 C370 0.961 . S
H378 C370 0.960 . S
H379 C371 0.930 . S
H380 C372 0.929 . S
H381 C389 0.929 . S
H382 C391 0.930 . S
H383 C393 0.930 . S
H384 C396 0.929 . S
H385 C399 0.930 . S
H386 C401 0.960 . S
H387 C401 0.960 1_545 S
H388 C401 0.960 . S
C389 H381 0.929 . S
C389 C390 1.377 1_545 S
C389 C391 1.384 . S
C390 C389 1.377 1_565 S
C390 C396 1.390 . S
C391 H382 0.930 . S
C391 C389 1.384 . S
C391 C392 1.372 1_545 S
C392 C391 1.372 1_565 S
C392 C393 1.400 . S
C392 C397 1.490 . S
C393 H383 0.930 . S
C393 C392 1.400 . S
C393 C396 1.386 . S
H394 C410 0.930 . S
H395 C411 0.931 . S
C396 H384 0.929 . S
C396 C390 1.390 . S
C396 C393 1.386 . S
C397 C392 1.490 . S
C397 C399 1.395 . S
C397 C400 1.403 . S
H398 C404 0.930 . S
C399 H385 0.930 . S
C399 C397 1.395 . S
C399 C402 1.403 . S
C400 C397 1.403 . S
C400 C401 1.524 . S
C400 C404 1.400 . S
C401 H386 0.960 . S
C401 H387 0.960 1_565 S
C401 H388 0.960 . S
C401 C400 1.524 . S
C402 C399 1.403 . S
C402 C403 1.392 . S
C402 C406 1.495 . S
C403 C402 1.392 . S
C403 C404 1.385 . S
C403 C405 1.478 . S
C404 H398 0.930 . S
C404 C400 1.400 . S
C404 C403 1.385 . S
C405 C403 1.478 . S
C405 C407 1.381 1_565 S
C405 C411 1.383 . S
C406 C402 1.495 . S
C406 H412 0.959 . S
C406 H413 0.961 . S
C406 H414 0.960 1_565 S
C407 C405 1.381 1_545 S
C407 C408 1.394 . S
C407 H415 0.930 . S
C408 C407 1.394 . S
C408 C409 1.383 1_545 S
C408 H416 0.929 . S
C409 C408 1.383 1_565 S
C409 C410 1.377 . S
C410 H394 0.930 . S
C410 C409 1.377 . S
C410 C411 1.379 . S
C411 H395 0.931 . S
C411 C405 1.383 . S
C411 C410 1.379 . S
H412 C406 0.959 . S
H413 C406 0.961 . S
H414 C406 0.960 1_545 S
H415 C407 0.930 . S
H416 C408 0.929 . S
H417 C425 0.929 . S
H418 C427 0.930 . S
H419 C429 0.930 . S
H420 C432 0.929 . S
H421 C435 0.930 . S
H422 C437 0.960 1_556 S
H423 C437 0.960 1_556 S
H424 C437 0.960 . S
C425 H417 0.929 . S
C425 C426 1.377 1_556 S
C425 C427 1.384 . S
C426 C425 1.377 1_554 S
C426 C432 1.390 . S
C427 H418 0.930 . S
C427 C425 1.384 . S
C427 C428 1.372 1_556 S
C428 C427 1.372 1_554 S
C428 C429 1.400 . S
C428 C433 1.490 . S
C429 H419 0.930 . S
C429 C428 1.400 . S
C429 C432 1.386 . S
H430 C446 0.930 . S
H431 C447 0.931 . S
C432 H420 0.929 . S
C432 C426 1.390 . S
C432 C429 1.386 . S
C433 C428 1.490 . S
C433 C435 1.395 . S
C433 C436 1.403 . S
H434 C440 0.930 . S
C435 H421 0.930 . S
C435 C433 1.395 . S
C435 C438 1.403 . S
C436 C433 1.403 . S
C436 C437 1.524 . S
C436 C440 1.400 . S
C437 H422 0.960 1_554 S
C437 H423 0.960 1_554 S
C437 H424 0.960 . S
C437 C436 1.524 . S
C438 C435 1.403 . S
C438 C439 1.392 . S
C438 C442 1.495 . S
C439 C438 1.392 . S
C439 C440 1.385 . S
C439 C441 1.478 . S
C440 H434 0.930 . S
C440 C436 1.400 . S
C440 C439 1.385 . S
C441 C439 1.478 . S
C441 C443 1.381 1_554 S
C441 C447 1.383 . S
C442 C438 1.495 . S
C442 H448 0.959 . S
C442 H449 0.961 . S
C442 H450 0.960 . S
C443 C441 1.381 1_556 S
C443 C444 1.394 . S
C443 H451 0.930 . S
C444 C443 1.394 . S
C444 C445 1.383 1_556 S
C444 H452 0.929 . S
C445 C444 1.383 1_554 S
C445 C446 1.377 . S
C446 H430 0.930 . S
C446 C445 1.377 . S
C446 C447 1.379 . S
C447 H431 0.931 . S
C447 C441 1.383 . S
C447 C446 1.379 . S
H448 C442 0.959 . S
H449 C442 0.961 . S
H450 C442 0.960 . S
H451 C443 0.930 . S
H452 C444 0.929 . S
H453 C461 0.929 . S
H454 C463 0.930 . S
H455 C465 0.930 1_556 S
H456 C468 0.929 1_556 S
H457 C471 0.930 . S
H458 C473 0.960 . S
H459 C473 0.960 . S
H460 C473 0.960 . S
C461 H453 0.929 . S
C461 C462 1.377 . S
C461 C463 1.384 . S
C462 C461 1.377 . S
C462 C468 1.390 . S
C463 H454 0.930 . S
C463 C461 1.384 . S
C463 C464 1.372 . S
C464 C463 1.372 . S
C464 C465 1.400 . S
C464 C469 1.490 . S
C465 H455 0.930 1_554 S
C465 C464 1.400 . S
C465 C468 1.386 . S
H466 C482 0.930 . S
H467 C483 0.931 . S
C468 H456 0.929 1_554 S
C468 C462 1.390 . S
C468 C465 1.386 . S
C469 C464 1.490 . S
C469 C471 1.395 1_554 S
C469 C472 1.403 . S
H470 C476 0.930 . S
C471 H457 0.930 . S
C471 C469 1.395 1_556 S
C471 C474 1.403 . S
C472 C469 1.403 . S
C472 C473 1.524 . S
C472 C476 1.400 . S
C473 H458 0.960 . S
C473 H459 0.960 . S
C473 H460 0.960 . S
C473 C472 1.524 . S
C474 C471 1.403 . S
C474 C475 1.392 1_556 S
C474 C478 1.495 . S
C475 C474 1.392 1_554 S
C475 C476 1.385 . S
C475 C477 1.478 . S
C476 H470 0.930 . S
C476 C472 1.400 . S
C476 C475 1.385 . S
C477 C475 1.478 . S
C477 C479 1.381 . S
C477 C483 1.383 1_554 S
C478 C474 1.495 . S
C478 H484 0.959 . S
C478 H485 0.961 . S
C478 H486 0.960 . S
C479 C477 1.381 . S
C479 C480 1.394 . S
C479 H487 0.930 . S
C480 C479 1.394 . S
C480 C481 1.384 . S
C480 H488 0.929 . S
C481 C480 1.384 . S
C481 C482 1.376 1_554 S
C482 H466 0.930 . S
C482 C481 1.376 1_556 S
C482 C483 1.379 . S
C483 H467 0.931 . S
C483 C477 1.383 1_556 S
C483 C482 1.379 . S
H484 C478 0.959 . S
H485 C478 0.961 . S
H486 C478 0.960 . S
H487 C479 0.930 . S
H488 C480 0.929 . S
H489 C497 0.929 . S
H490 C499 0.930 . S
H491 C501 0.930 . S
H492 C504 0.929 . S
H493 C507 0.930 . S
H494 C509 0.960 . S
H495 C509 0.960 . S
H496 C509 0.960 . S
C497 H489 0.929 . S
C497 C498 1.377 . S
C497 C499 1.384 . S
C498 C497 1.377 . S
C498 C504 1.390 1_554 S
C499 H490 0.930 . S
C499 C497 1.384 . S
C499 C500 1.372 . S
C500 C499 1.372 . S
C500 C501 1.400 1_554 S
C500 C505 1.490 . S
C501 H491 0.930 . S
C501 C500 1.400 1_556 S
C501 C504 1.386 . S
H502 C518 0.930 . S
H503 C519 0.931 . S
C504 H492 0.929 . S
C504 C498 1.390 1_556 S
C504 C501 1.386 . S
C505 C500 1.490 . S
C505 C507 1.395 . S
C505 C508 1.403 1_554 S
H506 C512 0.930 . S
C507 H493 0.930 . S
C507 C505 1.395 . S
C507 C510 1.403 . S
C508 C505 1.403 1_556 S
C508 C509 1.524 . S
C508 C512 1.400 . S
C509 H494 0.960 . S
C509 H495 0.960 . S
C509 H496 0.960 . S
C509 C508 1.524 . S
C510 C507 1.403 . S
C510 C511 1.392 . S
C510 C514 1.495 . S
C511 C510 1.392 . S
C511 C512 1.385 1_554 S
C511 C513 1.478 . S
C512 H506 0.930 . S
C512 C508 1.400 . S
C512 C511 1.385 1_556 S
C513 C511 1.478 . S
C513 C515 1.381 . S
C513 C519 1.383 1_554 S
C514 C510 1.495 . S
C514 H520 0.959 . S
C514 H521 0.961 . S
C514 H522 0.960 . S
C515 C513 1.381 . S
C515 C516 1.394 . S
C515 H523 0.930 . S
C516 C515 1.394 . S
C516 C517 1.383 . S
C516 H524 0.929 . S
C517 C516 1.383 . S
C517 C518 1.377 1_554 S
C518 H502 0.930 . S
C518 C517 1.377 1_556 S
C518 C519 1.379 . S
C519 H503 0.931 . S
C519 C513 1.383 1_556 S
C519 C518 1.379 . S
H520 C514 0.959 . S
H521 C514 0.961 . S
H522 C514 0.960 . S
H523 C515 0.930 . S
H524 C516 0.929 . S
H525 C533 0.929 . S
H526 C535 0.930 . S
H527 C537 0.930 . S
H528 C540 0.929 . S
H529 C543 0.930 . S
H530 C545 0.960 . S
H531 C545 0.960 . S
H532 C545 0.960 . S
C533 H525 0.929 . S
C533 C534 1.377 . S
C533 C535 1.384 . S
C534 C533 1.377 . S
C534 C540 1.390 1_556 S
C535 H526 0.930 . S
C535 C533 1.384 . S
C535 C536 1.373 . S
C536 C535 1.373 . S
C536 C537 1.399 1_556 S
C536 C541 1.489 1_556 S
C537 H527 0.930 . S
C537 C536 1.399 1_554 S
C537 C540 1.386 . S
H538 C554 0.930 . S
H539 C555 0.931 . S
C540 H528 0.929 . S
C540 C534 1.390 1_554 S
C540 C537 1.386 . S
C541 C536 1.489 1_554 S
C541 C543 1.395 1_554 S
C541 C544 1.403 . S
H542 C548 0.930 . S
C543 H529 0.930 . S
C543 C541 1.395 1_556 S
C543 C546 1.403 . S
C544 C541 1.403 . S
C544 C545 1.524 . S
C544 C548 1.400 . S
C545 H530 0.960 . S
C545 H531 0.960 . S
C545 H532 0.960 . S
C545 C544 1.524 . S
C546 C543 1.403 . S
C546 C547 1.396 . S
C546 C550 1.495 . S
C547 C546 1.396 . S
C547 C548 1.382 1_556 S
C547 C549 1.477 1_556 S
C548 H542 0.930 . S
C548 C544 1.400 . S
C548 C547 1.382 1_554 S
C549 C547 1.477 1_554 S
C549 C551 1.381 . S
C549 C555 1.383 . S
C550 C546 1.495 . S
C550 H556 0.959 . S
C550 H557 0.961 . S
C550 H558 0.960 . S
C551 C549 1.381 . S
C551 C552 1.394 . S
C551 H559 0.930 . S
C552 C551 1.394 . S
C552 C553 1.383 . S
C552 H560 0.929 . S
C553 C552 1.383 . S
C553 C554 1.377 . S
C554 H538 0.930 . S
C554 C553 1.377 . S
C554 C555 1.379 . S
C555 H539 0.931 . S
C555 C549 1.383 . S
C555 C554 1.379 . S
H556 C550 0.959 . S
H557 C550 0.961 . S
H558 C550 0.960 . S
H559 C551 0.930 . S
H560 C552 0.929 . S
C138 C119 1.592 . S
C157 C27 1.646 . S
C174 C32 1.202 . S
C193 C75 1.132 1_545 S
C210 C39 1.666 . S
C229 C99 1.682 1_455 S
C246 C82 1.101 . S
C265 N3 1.246 . S
C282 C40 1.645 . S
C301 C118 1.626 . S
C318 C76 0.955 . S
C337 C33 0.985 . S
C354 C125 1.722 . S
C373 C13 1.750 1_455 S
C390 C56 1.082 . S
C409 N8 1.179 . S
C426 N89 0.745 . S
C445 N46 0.773 . S
C462 C113 0.395 . S
C481 C83 0.363 . S
C498 C70 0.375 . S
C517 C126 0.438 . S
C534 N94 0.669 . S
C553 N51 0.679 . S
