# Generated by pormake.
# Topology tfs, (6)-cn, num edge types: 1
# Building blocks:
#     Node 0, Type 0, BuildingBlock: GEDQOX_clean_sbu_0, # of connection points: 6
#     Node 1, Type 0, BuildingBlock: GEDQOX_clean_sbu_0, # of connection points: 6
#     Node 2, Type 0, BuildingBlock: GEDQOX_clean_sbu_0, # of connection points: 6
#     Node 3, Type 0, BuildingBlock: GEDQOX_clean_sbu_0, # of connection points: 6
#     Node 4, Type 0, BuildingBlock: GEDQOX_clean_sbu_0, # of connection points: 6
#     Node 5, Type 0, BuildingBlock: GEDQOX_clean_sbu_0, # of connection points: 6
#     Edge 6, Type (0, 0), BuildingBlock: MIFKUJ_clean_linker_0, # of connection points: 2
#     Edge 7, Type (0, 0), BuildingBlock: MIFKUJ_clean_linker_0, # of connection points: 2
#     Edge 8, Type (0, 0), BuildingBlock: MIFKUJ_clean_linker_0, # of connection points: 2
#     Edge 9, Type (0, 0), BuildingBlock: MIFKUJ_clean_linker_0, # of connection points: 2
#     Edge 10, Type (0, 0), BuildingBlock: MIFKUJ_clean_linker_0, # of connection points: 2
#     Edge 11, Type (0, 0), BuildingBlock: MIFKUJ_clean_linker_0, # of connection points: 2
#     Edge 12, Type (0, 0), BuildingBlock: MIFKUJ_clean_linker_0, # of connection points: 2
#     Edge 13, Type (0, 0), BuildingBlock: MIFKUJ_clean_linker_0, # of connection points: 2
#     Edge 14, Type (0, 0), BuildingBlock: MIFKUJ_clean_linker_0, # of connection points: 2
#     Edge 15, Type (0, 0), BuildingBlock: MIFKUJ_clean_linker_0, # of connection points: 2
#     Edge 16, Type (0, 0), BuildingBlock: MIFKUJ_clean_linker_0, # of connection points: 2
#     Edge 17, Type (0, 0), BuildingBlock: MIFKUJ_clean_linker_0, # of connection points: 2
#     Edge 18, Type (0, 0), BuildingBlock: MIFKUJ_clean_linker_0, # of connection points: 2
#     Edge 19, Type (0, 0), BuildingBlock: MIFKUJ_clean_linker_0, # of connection points: 2
#     Edge 20, Type (0, 0), BuildingBlock: MIFKUJ_clean_linker_0, # of connection points: 2
#     Edge 21, Type (0, 0), BuildingBlock: MIFKUJ_clean_linker_0, # of connection points: 2
#     Edge 22, Type (0, 0), BuildingBlock: MIFKUJ_clean_linker_0, # of connection points: 2
#     Edge 23, Type (0, 0), BuildingBlock: MIFKUJ_clean_linker_0, # of connection points: 2
# Relax obj value: 0.528
# Max RMSD: 0.401
# Mean RMSD: 0.334
data_MOF--net-tfs--node1-GEDQOX_clean_sbu_0--edge1-MIFKUJ_clean_linker_0
_symmetry_space_group_name_H-M    P1
_symmetry_Int_Tables_number       1
_symmetry_cell_setting            triclinic
loop_
_symmetry_equiv_pos_as_xyz
'x, y, z'
_cell_length_a     58.191417
_cell_length_b     62.337936
_cell_length_c     17.129762
_cell_angle_alpha  96.086428
_cell_angle_beta   88.722381
_cell_angle_gamma 114.60846
loop_
_atom_site_label
_atom_site_type_symbol
_atom_site_fract_x
_atom_site_fract_y
_atom_site_fract_z
_atom_type_partial_charge
Nd0 Nd 0.24806 0.40268 0.00719 0.0
Nd1 Nd 0.29764 0.4201 0.91042 0.0
C2 C 0.213 0.38728 0.11366 0.0
C3 C 0.19558 0.36518 0.14491 0.0
C4 C 0.19897 0.36158 0.2226 0.0
C5 C 0.1811 0.3422 0.25645 0.0
C6 C 0.15937 0.32611 0.21339 0.0
C7 C 0.15661 0.32913 0.13445 0.0
C8 C 0.17452 0.34846 0.10054 0.0
C9 C 0.24313 0.3855 0.85084 0.0
C10 C 0.28625 0.37562 0.00868 0.0
C11 C 0.32958 0.43377 0.7947 0.0
C12 C 0.34519 0.45685 0.76537 0.0
C13 C 0.3348 0.46726 0.71554 0.0
C14 C 0.34857 0.4907 0.69905 0.0
C15 C 0.37296 0.50417 0.73211 0.0
C16 C 0.38396 0.49297 0.77647 0.0
C17 C 0.37033 0.46957 0.7923 0.0
C18 C 0.30447 0.43581 0.0665 0.0
C19 C 0.26511 0.45346 0.93936 0.0
O20 O 0.23714 0.39438 0.12889 0.0
O21 O 0.20826 0.39086 0.04295 0.0
O22 O 0.22619 0.39078 0.88804 0.0
O23 O 0.26073 0.38824 0.89722 0.0
O24 O 0.26779 0.38003 0.04216 0.0
O25 O 0.2983 0.38607 0.9473 0.0
O26 O 0.30502 0.42572 0.78498 0.0
O27 O 0.33613 0.4307 0.86395 0.0
O28 O 0.32189 0.43263 0.02433 0.0
O29 O 0.28605 0.43342 0.02368 0.0
O30 O 0.28207 0.44856 0.897 0.0
O31 O 0.25186 0.43988 -0.00699 0.0
H32 H 0.21506 0.37419 0.25808 0.0
H33 H 0.1839 0.34023 0.31713 0.0
H34 H 0.13993 0.31727 0.09997 0.0
H35 H 0.17134 0.35072 0.04049 0.0
H36 H 0.31566 0.4577 0.69209 0.0
H37 H 0.33971 0.49858 0.66321 0.0
H38 H 0.40254 0.50268 0.80381 0.0
H39 H 0.37906 0.46191 0.8295 0.0
Nd40 Nd 0.83247 0.26659 0.68803 0.0
Nd41 Nd 0.78263 0.25106 0.78656 0.0
C42 C 0.86673 0.27549 0.57804 0.0
C43 C 0.88637 0.26781 0.55042 0.0
C44 C 0.88649 0.24655 0.57025 0.0
C45 C 0.90668 0.24068 0.54843 0.0
C46 C 0.92704 0.25627 0.50819 0.0
C47 C 0.92657 0.27728 0.4875 0.0
C48 C 0.90631 0.28294 0.50815 0.0
C49 C 0.83672 0.25531 0.83523 0.0
C50 C 0.79166 0.21003 0.67725 0.0
C51 C 0.74871 0.24396 0.89737 0.0
C52 C 0.7322 0.25552 0.92438 0.0
C53 C 0.73301 0.27499 0.88845 0.0
C54 C 0.71549 0.28448 0.90774 0.0
C55 C 0.69691 0.27465 0.96332 0.0
C56 C 0.69696 0.25589 0.00208 0.0
C57 C 0.71449 0.24631 0.98244 0.0
C58 C 0.7791 0.26271 0.63887 0.0
C59 C 0.82206 0.30789 0.7937 0.0
O60 O 0.84317 0.26019 0.56555 0.0
O61 O 0.87096 0.28731 0.64786 0.0
O62 O 0.85553 0.27072 0.80089 0.0
O63 O 0.81807 0.24522 0.7889 0.0
O64 O 0.80954 0.22704 0.64199 0.0
O65 O 0.78124 0.21462 0.74263 0.0
O66 O 0.77295 0.25662 0.91072 0.0
O67 O 0.74349 0.23282 0.82639 0.0
O68 O 0.76017 0.2467 0.67103 0.0
O69 O 0.79729 0.27257 0.68662 0.0
O70 O 0.80406 0.29112 0.82926 0.0
O71 O 0.83308 0.30288 0.73038 0.0
H72 H 0.87123 0.23475 0.60336 0.0
H73 H 0.90679 0.22443 0.56498 0.0
H74 H 0.9421 0.28947 0.4562 0.0
H75 H 0.90652 0.29944 0.49281 0.0
H76 H 0.74671 0.28237 0.8438 0.0
H77 H 0.71602 0.29911 0.87767 0.0
H78 H 0.68274 0.24791 0.04474 0.0
H79 H 0.71373 0.2313 0.01075 0.0
Nd80 Nd 0.60723 0.86413 0.23884 0.0
Nd81 Nd 0.57808 0.81426 0.29224 0.0
C82 C 0.62797 0.9047 0.17589 0.0
C83 C 0.6454 0.92931 0.20408 0.0
C84 C 0.66897 0.93466 0.23976 0.0
C85 C 0.68387 0.95773 0.27354 0.0
C86 C 0.67533 0.97575 0.27311 0.0
C87 C 0.65215 0.97051 0.2352 0.0
C88 C 0.63742 0.94757 0.20074 0.0
C89 C 0.603 0.86345 0.39813 0.0
C90 C 0.6394 0.83823 0.30493 0.0
C91 C 0.55567 0.77222 0.34258 0.0
C92 C 0.53543 0.75107 0.30111 0.0
C93 C 0.53842 0.72981 0.28737 0.0
C94 C 0.52251 0.7114 0.23347 0.0
C95 C 0.50352 0.71403 0.19127 0.0
C96 C 0.49984 0.73494 0.20784 0.0
C97 C 0.51562 0.75325 0.26209 0.0
C98 C 0.58538 0.81508 0.13379 0.0
C99 C 0.54497 0.83832 0.22686 0.0
O100 O 0.63709 0.88863 0.16762 0.0
O101 O 0.60564 0.89701 0.20713 0.0
O102 O 0.6217 0.87923 0.36485 0.0
O103 O 0.58616 0.85092 0.34752 0.0
O104 O 0.63967 0.85275 0.25344 0.0
O105 O 0.61832 0.82504 0.33867 0.0
O106 O 0.54988 0.78991 0.3681 0.0
O107 O 0.57742 0.77919 0.30777 0.0
O108 O 0.56466 0.80102 0.16366 0.0
O109 O 0.60125 0.82758 0.18654 0.0
O110 O 0.54534 0.82406 0.27768 0.0
O111 O 0.56588 0.85264 0.19442 0.0
H112 H 0.67558 0.92092 0.24365 0.0
H113 H 0.70159 0.96124 0.30273 0.0
H114 H 0.64525 0.98413 0.23313 0.0
H115 H 0.61936 0.9439 0.17343 0.0
H116 H 0.55394 0.72793 0.31488 0.0
H117 H 0.52562 0.69538 0.22309 0.0
H118 H 0.48566 0.73776 0.17587 0.0
H119 H 0.51319 0.76964 0.26998 0.0
Nd120 Nd 0.87008 0.67547 0.54637 0.0
Nd121 Nd 0.89063 0.64585 0.63923 0.0
C122 C 0.85962 0.69949 0.44486 0.0
C123 C 0.84339 0.71183 0.43316 0.0
C124 C 0.83352 0.71036 0.35785 0.0
C125 C 0.81954 0.72325 0.34405 0.0
C126 C 0.81534 0.738 0.40534 0.0
C127 C 0.82496 0.73917 0.48105 0.0
C128 C 0.83878 0.72614 0.49492 0.0
C129 C 0.87824 0.68879 0.70335 0.0
C130 C 0.93082 0.687 0.55174 0.0
C131 C 0.90203 0.62342 0.74426 0.0
C132 C 0.8918 0.59963 0.7708 0.0
C133 C 0.90318 0.59549 0.83528 0.0
C134 C 0.89507 0.57253 0.8572 0.0
C135 C 0.8753 0.55336 0.8152 0.0
C136 C 0.86329 0.55777 0.75235 0.0
C137 C 0.87158 0.58072 0.73003 0.0
C138 C 0.88121 0.63204 0.48176 0.0
C139 C 0.82846 0.63143 0.62814 0.0
O140 O 0.84885 0.67629 0.44099 0.0
O141 O 0.8773 0.70927 0.49976 0.0
O142 O 0.85973 0.68972 0.66491 0.0
O143 O 0.89213 0.68252 0.65811 0.0
O144 O 0.91139 0.68483 0.50749 0.0
O145 O 0.92732 0.67732 0.61832 0.0
O146 O 0.88891 0.63598 0.76043 0.0
O147 O 0.91086 0.62495 0.67311 0.0
O148 O 0.89985 0.63089 0.51872 0.0
O149 O 0.86822 0.63874 0.52891 0.0
O150 O 0.84751 0.62863 0.65994 0.0
O151 O 0.83189 0.64734 0.5785 0.0
H152 H 0.83699 0.69952 0.30935 0.0
H153 H 0.81251 0.72209 0.28503 0.0
H154 H 0.8217 0.75009 0.52967 0.0
H155 H 0.84612 0.72749 0.55367 0.0
H156 H 0.91876 0.60992 0.86751 0.0
H157 H 0.90452 0.5697 0.90627 0.0
H158 H 0.84817 0.54335 0.71842 0.0
H159 H 0.86256 0.58366 0.68008 0.0
Nd160 Nd 0.24308 0.8241 0.27773 0.0
Nd161 Nd 0.23069 0.77209 0.19317 0.0
C162 C 0.26104 0.865 0.36835 0.0
C163 C 0.25969 0.88813 0.38305 0.0
C164 C 0.26665 0.90081 0.45759 0.0
C165 C 0.26933 0.92426 0.47038 0.0
C166 C 0.26506 0.93549 0.40867 0.0
C167 C 0.25675 0.92222 0.33495 0.0
C168 C 0.25411 0.89874 0.32223 0.0
C169 C 0.22568 0.81615 0.1266 0.0
C170 C 0.18492 0.78549 0.26878 0.0
C171 C 0.21557 0.7306 0.10741 0.0
C172 C 0.22366 0.71098 0.09231 0.0
C173 C 0.22852 0.70406 0.01526 0.0
C174 C 0.23522 0.68494 -0.00053 0.0
C175 C 0.23694 0.67221 0.06045 0.0
C176 C 0.23244 0.67939 0.13771 0.0
C177 C 0.22597 0.69861 0.15355 0.0
C178 C 0.24969 0.78166 0.34284 0.0
C179 C 0.28875 0.80943 0.20325 0.0
O180 O 0.24166 0.84621 0.38718 0.0
O181 O 0.27129 0.86111 0.30272 0.0
O182 O 0.22295 0.83183 0.17776 0.0
O183 O 0.23988 0.80797 0.15385 0.0
O184 O 0.20158 0.80492 0.30866 0.0
O185 O 0.19159 0.7726 0.21409 0.0
O186 O 0.22981 0.75068 0.07998 0.0
O187 O 0.20695 0.73352 0.17723 0.0
O188 O 0.25312 0.76615 0.29295 0.0
O189 O 0.23451 0.78867 0.31603 0.0
O190 O 0.27214 0.79012 0.16316 0.0
O191 O 0.28207 0.82303 0.25504 0.0
H192 H 0.27109 0.8929 0.50518 0.0
H193 H 0.27598 0.93394 0.52763 0.0
H194 H 0.25287 0.93017 0.28654 0.0
H195 H 0.24858 0.88917 0.26427 0.0
H196 H 0.22683 0.71329 0.96704 0.0
H197 H 0.23838 0.6797 0.93929 0.0
H198 H 0.23394 0.67012 0.18603 0.0
H199 H 0.22255 0.70359 0.21373 0.0
Nd200 Nd 0.44839 0.30581 0.66846 0.0
Nd201 Nd 0.47738 0.3602 0.69562 0.0
C202 C 0.43383 0.25955 0.63232 0.0
C203 C 0.41236 0.23601 0.61647 0.0
C204 C 0.39805 0.22932 0.54589 0.0
C205 C 0.38032 0.20587 0.5274 0.0
C206 C 0.37657 0.18861 0.57894 0.0
C207 C 0.39025 0.1956 0.65074 0.0
C208 C 0.40796 0.21898 0.66911 0.0
C209 C 0.43422 0.32673 0.79936 0.0
C210 C 0.42098 0.33604 0.60687 0.0
C211 C 0.49728 0.40697 0.72622 0.0
C212 C 0.52303 0.42634 0.73255 0.0
C213 C 0.54173 0.42622 0.78287 0.0
C214 C 0.56636 0.44408 0.78416 0.0
C215 C 0.57291 0.46232 0.7347 0.0
C216 C 0.55398 0.46247 0.68523 0.0
C217 C 0.52935 0.44476 0.68448 0.0
C218 C 0.49317 0.33895 0.56943 0.0
C219 C 0.50259 0.32954 0.76535 0.0
O220 O 0.43914 0.27463 0.57975 0.0
O221 O 0.43766 0.26978 0.70448 0.0
O222 O 0.41863 0.30786 0.75696 0.0
O223 O 0.45618 0.33247 0.77411 0.0
O224 O 0.42197 0.31518 0.59824 0.0
O225 O 0.43786 0.35463 0.65016 0.0
O226 O 0.49035 0.39253 0.78103 0.0
O227 O 0.48986 0.39597 0.65593 0.0
O228 O 0.50832 0.35679 0.61629 0.0
O229 O 0.47063 0.33355 0.58954 0.0
O230 O 0.50009 0.34965 0.77858 0.0
O231 O 0.48812 0.31231 0.71287 0.0
H232 H 0.40105 0.24199 0.50383 0.0
H233 H 0.36989 0.20114 0.472 0.0
H234 H 0.38817 0.18275 0.69131 0.0
H235 H 0.41896 0.22353 0.72339 0.0
H236 H 0.53746 0.41221 0.82054 0.0
H237 H 0.58027 0.44352 0.82388 0.0
H238 H 0.5583 0.47592 0.64529 0.0
H239 H 0.5153 0.44516 0.6449 0.0
H240 H 0.42543 0.37551 0.54162 0.0
H241 H 0.39692 0.37816 0.44454 0.0
H242 H 0.34421 0.30616 0.47096 0.0
H243 H 0.37354 0.30307 0.56448 0.0
H244 H 0.3479 0.30853 0.32971 0.0
H245 H 0.33251 0.35731 0.52888 0.0
H246 H 0.33633 0.3886 0.63504 0.0
H247 H 0.37199 0.44191 0.47867 0.0
H248 H 0.36892 0.41102 0.37182 0.0
H249 H 0.26051 0.34002 0.09906 0.0
H250 H 0.27903 0.32761 0.20319 0.0
H251 H 0.35367 0.37121 0.12796 0.0
H252 H 0.33541 0.38308 0.0226 0.0
H253 H 0.33188 0.37925 0.29908 0.0
H254 H 0.34263 0.32155 0.0982 0.0
H255 H 0.32623 0.28597 0.00297 0.0
H256 H 0.28382 0.24426 0.18345 0.0
H257 H 0.29977 0.27975 0.28008 0.0
C258 C 0.4075 0.36045 0.52797 0.0
C259 C 0.40168 0.33908 0.56042 0.0
C260 C 0.3911 0.36199 0.47257 0.0
C261 C 0.3682 0.3424 0.45029 0.0
C262 C 0.3618 0.32147 0.48634 0.0
C263 C 0.37849 0.31975 0.54017 0.0
C264 C 0.35235 0.34301 0.38414 0.0
C265 C 0.34409 0.32392 0.32422 0.0
C266 C 0.34692 0.36286 0.37646 0.0
C267 C 0.35077 0.38175 0.4423 0.0
C268 C 0.34168 0.37572 0.5174 0.0
C269 C 0.34356 0.3934 0.57766 0.0
C270 C 0.35446 0.41723 0.56368 0.0
C271 C 0.3636 0.42344 0.48948 0.0
C272 C 0.36181 0.40584 0.42903 0.0
C273 C 0.28086 0.34607 0.10257 0.0
C274 C 0.29656 0.36236 0.0524 0.0
C275 C 0.29136 0.33906 0.16222 0.0
C276 C 0.31765 0.34847 0.17286 0.0
C277 C 0.33333 0.36354 0.11987 0.0
C278 C 0.32286 0.37014 0.05922 0.0
C279 C 0.32877 0.34547 0.24517 0.0
C280 C 0.33585 0.36404 0.306 0.0
C281 C 0.33182 0.32467 0.25555 0.0
C282 C 0.32228 0.30347 0.19659 0.0
C283 C 0.32966 0.30493 0.11783 0.0
C284 C 0.32047 0.28471 0.06345 0.0
C285 C 0.30394 0.26287 0.08706 0.0
C286 C 0.29661 0.26119 0.16519 0.0
C287 C 0.30575 0.28136 0.21981 0.0
H288 H 0.29685 0.24724 0.04485 0.0
H289 H 0.35576 0.43088 0.61027 0.0
H290 H 0.12942 0.27993 0.15693 0.0
H291 H 0.0899 0.25328 0.21251 0.0
H292 H 0.10183 0.30521 0.41283 0.0
H293 H 0.14108 0.33169 0.35822 0.0
H294 H 0.0789 0.26107 0.45614 0.0
H295 H 0.0691 0.30454 0.24603 0.0
H296 H 0.07378 0.31507 0.10991 0.0
H297 H 0.03158 0.24182 0.02393 0.0
H298 H 1.02696 0.23085 0.15966 0.0
H299 H 0.97459 0.28299 0.56327 0.0
H300 H 1.01324 0.27944 0.52005 0.0
H301 H 0.96908 0.2162 0.36773 0.0
H302 H 0.93008 0.21971 0.41203 0.0
H303 H 1.00531 0.25037 0.29035 0.0
H304 H 1.00382 0.21114 0.5119 0.0
H305 H 0.99859 0.20303 0.65044 0.0
H306 H 0.06111 0.26967 0.71865 0.0
H307 H 0.06652 0.27838 0.58072 0.0
C308 C 0.1238 0.28544 0.21352 0.0
C309 C 0.13823 0.30804 0.25271 0.0
C310 C 0.10129 0.27017 0.2453 0.0
C311 C 0.09272 0.27742 0.31622 0.0
C312 C 0.10808 0.29919 0.35816 0.0
C313 C 0.13059 0.31435 0.32676 0.0
C314 C 0.06653 0.2643 0.34224 0.0
C315 C 0.06273 0.25851 0.4199 0.0
C316 C 0.04535 0.26023 0.29402 0.0
C317 C 0.04799 0.26684 0.21268 0.0
C318 C 0.06097 0.29068 0.19799 0.0
C319 C 0.0636 0.29672 0.12098 0.0
C320 C 0.05306 0.27911 0.05829 0.0
C321 C 0.0398 0.25543 0.07253 0.0
C322 C 0.03718 0.24928 0.14945 0.0
C323 C 0.97316 0.26802 0.52205 0.0
C324 C 0.94957 0.25164 0.49067 0.0
C325 C 0.99518 0.26588 0.49779 0.0
C326 C 0.99403 0.2474 0.44125 0.0
C327 C 0.97033 0.23044 0.41198 0.0
C328 C 0.94815 0.23242 0.4372 0.0
C329 C 1.01779 0.24827 0.40561 0.0
C330 C 1.0212 0.25186 0.32597 0.0
C331 C 0.03858 0.25054 0.45237 0.0
C332 C 0.03555 0.24542 0.5357 0.0
C333 C 1.01638 0.22414 0.55644 0.0
C334 C 1.01339 0.21943 0.63491 0.0
C335 C 0.02951 0.23582 0.69331 0.0
C336 C 0.04867 0.25696 0.67333 0.0
C337 C 0.05173 0.26178 0.59494 0.0
H338 H 1.02716 0.23214 0.75404 0.0
H339 H 0.0551 0.28382 -0.0013 0.0
H340 H 0.74589 0.17348 0.69371 0.0
H341 H 0.73026 0.13303 0.62885 0.0
H342 H 0.8021 0.14972 0.51767 0.0
H343 H 0.81775 0.19041 0.58248 0.0
H344 H 0.76456 0.12706 0.41343 0.0
H345 H 0.78411 0.11361 0.66646 0.0
H346 H 0.78445 0.11592 0.81102 0.0
H347 H 0.70362 0.07804 0.80698 0.0
H348 H 0.70274 0.07579 0.66237 0.0
H349 H 0.72614 1.00391 0.26828 0.0
H350 H 0.74964 0.04331 0.33966 0.0
H351 H 0.68065 0.04051 0.44562 0.0
H352 H 0.65715 1.00129 0.37464 0.0
H353 H 0.72142 0.05546 0.55315 0.0
H354 H 0.70267 0.07244 0.29916 0.0
H355 H 0.70315 0.07032 0.15462 0.0
H356 H 0.78433 0.10153 0.16188 0.0
H357 H 0.78433 0.1035 0.30655 0.0
C358 C 0.75846 0.16846 0.6562 0.0
C359 C 0.78296 0.18514 0.64241 0.0
C360 C 0.74953 0.1453 0.61925 0.0
C361 C 0.76505 0.13822 0.56876 0.0
C362 C 0.78975 0.15476 0.55622 0.0
C363 C 0.79865 0.17799 0.59297 0.0
C364 C 0.75497 0.1139 0.52656 0.0
C365 C 0.75559 0.11138 0.44417 0.0
C366 C 0.74294 0.09342 0.56644 0.0
C367 C 0.74335 0.09469 0.6535 0.0
C368 C 0.76638 0.10593 0.69639 0.0
C369 C 0.76668 0.1072 0.77836 0.0
C370 C 0.74407 0.09717 0.81817 0.0
C371 C 0.72112 0.08581 0.77606 0.0
C372 C 0.72071 0.0845 0.69407 0.0
C373 C 0.71605 1.01172 0.30697 0.0
C374 C 0.6898 0.99962 0.31553 0.0
C375 C 0.72945 0.03422 0.34741 0.0
C376 C 0.71684 0.04484 0.39767 0.0
C377 C 0.69072 0.03263 0.40711 0.0
C378 C 0.6773 1.01032 0.36607 0.0
C379 C 0.73067 0.06876 0.44035 0.0
C380 C 0.73072 0.07117 0.52274 0.0
C381 C 0.74348 0.08909 0.40054 0.0
C382 C 0.74349 0.08782 0.3136 0.0
C383 C 0.72062 0.07861 0.26991 0.0
C384 C 0.72081 0.07749 0.18796 0.0
C385 C 0.74375 0.08571 0.14906 0.0
C386 C 0.76657 0.09512 0.19207 0.0
C387 C 0.76649 0.09624 0.27404 0.0
H388 H 0.74386 0.08485 0.08562 0.0
H389 H 0.74434 0.09817 0.88164 0.0
H390 H 0.82714 0.78453 0.45668 0.0
H391 H 0.80271 0.80739 0.43637 0.0
H392 H 0.74676 0.74636 0.30076 0.0
H393 H 0.77132 0.72356 0.31989 0.0
H394 H 0.75396 0.78505 0.23514 0.0
H395 H 0.73879 0.76112 0.49679 0.0
H396 H 0.75068 0.75802 0.63107 0.0
H397 H 0.78481 0.83399 0.67732 0.0
H398 H 0.77339 0.83753 0.54284 0.0
H399 H 0.64474 0.81085 0.41039 0.0
H400 H 0.67976 0.80008 0.42563 0.0
H401 H 0.72193 0.84731 0.25581 0.0
H402 H 0.68614 0.85757 0.23767 0.0
H403 H 0.7262 0.82029 0.47155 0.0
H404 H 0.7581 0.82296 0.15214 0.0
H405 H 0.74155 0.82202 0.01974 0.0
H406 H 0.666 0.78096 0.09143 0.0
H407 H 0.68215 0.78137 0.22381 0.0
C408 C 0.80962 0.77599 0.42256 0.0
C409 C 0.80102 0.75217 0.3905 0.0
C410 C 0.79571 0.7891 0.41081 0.0
C411 C 0.77272 0.77852 0.36783 0.0
C412 C 0.76447 0.75494 0.33391 0.0
C413 C 0.7785 0.7419 0.34502 0.0
C414 C 0.75654 0.79152 0.36144 0.0
C415 C 0.74804 0.79291 0.28681 0.0
C416 C 0.74863 0.80167 0.42874 0.0
C417 C 0.75552 0.79959 0.50953 0.0
C418 C 0.74901 0.77716 0.53542 0.0
C419 C 0.75563 0.77533 0.61157 0.0
C420 C 0.76857 0.7958 0.66261 0.0
C421 C 0.77484 0.81815 0.63766 0.0
C422 C 0.7683 0.82008 0.5615 0.0
C423 C 0.66148 0.81916 0.37647 0.0
C424 C 0.66244 0.83481 0.32177 0.0
C425 C 0.68163 0.81305 0.38569 0.0
C426 C 0.70338 0.82254 0.34098 0.0
C427 C 0.70513 0.83937 0.28983 0.0
C428 C 0.68474 0.84534 0.27988 0.0
C429 C 0.7232 0.81345 0.34538 0.0
C430 C 0.73249 0.81285 0.41969 0.0
C431 C 0.7312 0.80341 0.27795 0.0
C432 C 0.72132 0.80245 0.19802 0.0
C433 C 0.73798 0.81364 0.13946 0.0
C434 C 0.72866 0.81321 0.06447 0.0
C435 C 0.70273 0.80151 0.04728 0.0
C436 C 0.68607 0.79008 0.10489 0.0
C437 C 0.6953 0.7904 0.17989 0.0
H438 H 0.69555 0.80127 -0.01071 0.0
H439 H 0.77367 0.79435 0.72157 0.0
H440 H 0.16027 0.81127 0.33808 0.0
H441 H 0.11664 0.7962 0.38276 0.0
H442 H 0.1051 0.72516 0.29113 0.0
H443 H 0.1485 0.7402 0.24542 0.0
H444 H 0.06453 0.73113 0.26338 0.0
H445 H 0.11724 0.74453 0.49095 0.0
H446 H 0.15287 0.76814 0.58342 0.0
H447 H 0.12121 0.81884 0.63959 0.0
H448 H 0.08536 0.79551 0.54731 0.0
H449 H 0.97464 0.68874 0.61379 0.0
H450 H 1.01722 0.70697 0.56287 0.0
H451 H 0.98901 0.73233 0.37853 0.0
H452 H 0.94612 0.71298 0.4273 0.0
H453 H 0.04964 0.7492 0.54407 0.0
H454 H 1.02355 0.73339 0.21062 0.0
H455 H 0.98924 0.70595 0.11957 0.0
H456 H 0.96849 0.65269 0.27951 0.0
H457 H 1.00335 0.67944 0.3701 0.0
C458 C 0.14842 0.79245 0.3276 0.0
C459 C 0.15794 0.77689 0.28933 0.0
C460 C 0.12348 0.78384 0.35308 0.0
C461 C 0.10767 0.75944 0.34171 0.0
C462 C 0.11689 0.74403 0.30076 0.0
C463 C 0.14173 0.75267 0.27465 0.0
C464 C 0.08185 0.74981 0.37451 0.0
C465 C 0.06123 0.73515 0.32466 0.0
C466 C 0.07758 0.75461 0.45487 0.0
C467 C 0.09874 0.76839 0.51183 0.0
C468 C 0.11791 0.76075 0.52293 0.0
C469 C 0.13812 0.77405 0.57535 0.0
C470 C 0.13936 0.79503 0.61711 0.0
C471 C 0.12024 0.80261 0.60709 0.0
C472 C 0.09993 0.78931 0.55495 0.0
C473 C 0.97748 0.69825 0.56249 0.0
C474 C 0.95695 0.69939 0.52418 0.0
C475 C 1.0019 0.70877 0.53359 0.0
C476 C 1.00637 0.72081 0.46613 0.0
C477 C 0.98603 0.72275 0.42966 0.0
C478 C 0.96154 0.71185 0.45778 0.0
C479 C 0.03214 0.73058 0.43278 0.0
C480 C 0.05281 0.74528 0.4826 0.0
C481 C 0.03651 0.72518 0.35279 0.0
C482 C 1.01589 0.7086 0.29773 0.0
C483 C 1.01181 0.71576 0.22613 0.0
C484 C 0.9923 0.70029 0.17448 0.0
C485 C 0.97659 0.67764 0.19395 0.0
C486 C 0.98061 0.67028 0.26463 0.0
C487 C 1.00032 0.68556 0.31603 0.0
H488 H 0.96133 0.66579 0.15421 0.0
H489 H 0.15512 0.80539 0.65727 0.0
H490 H 0.25657 0.96143 0.53724 0.0
H491 H 0.2714 1.00454 0.56019 0.0
H492 H 0.30216 1.0113 0.32803 0.0
H493 H 0.2883 0.96839 0.3058 0.0
H494 H 0.33613 0.0408 0.43323 0.0
H495 H 0.24907 0.0213 0.37562 0.0
H496 H 0.20292 1.0007 0.38922 0.0
H497 H 0.20981 0.03069 0.62967 0.0
H498 H 0.25607 0.05122 0.61783 0.0
H499 H 0.37211 0.16333 0.43501 0.0
H500 H 0.34862 0.12068 0.40066 0.0
H501 H 0.321 0.11312 0.6364 0.0
H502 H 0.34386 0.15599 0.6707 0.0
H503 H 0.28444 0.08426 0.52722 0.0
H504 H 0.37119 0.10196 0.58683 0.0
H505 H 0.41742 0.12246 0.57476 0.0
H506 H 0.41089 0.09532 0.3313 0.0
H507 H 0.36455 0.07492 0.34167 0.0
C508 C 0.26641 0.97208 0.49092 0.0
C509 C 0.27127 0.96138 0.4197 0.0
C510 C 0.27466 0.99673 0.50384 0.0
C511 C 0.28778 1.0112 0.44564 0.0
C512 C 0.29204 1.00052 0.37377 0.0
C513 C 0.28386 0.97591 0.36087 0.0
C514 C 0.29861 0.03752 0.46143 0.0
C515 C 0.32469 0.0503 0.45241 0.0
C516 C 0.28389 0.04992 0.48875 0.0
C517 C 0.25607 0.03762 0.49602 0.0
C518 C 0.24077 0.02335 0.43159 0.0
C519 C 0.21458 1.01171 0.43894 0.0
C520 C 0.20345 0.01433 0.51032 0.0
C521 C 0.21847 0.02865 0.57444 0.0
C522 C 0.24467 0.04031 0.56742 0.0
C523 C 0.36058 0.15273 0.47916 0.0
C524 C 0.36003 0.1631 0.55584 0.0
C525 C 0.34734 0.12828 0.45957 0.0
C526 C 0.33338 0.11365 0.51631 0.0
C527 C 0.33175 0.12406 0.59179 0.0
C528 C 0.345 0.14853 0.61146 0.0
C529 C 0.32183 0.08741 0.49824 0.0
C530 C 0.29574 0.07469 0.50735 0.0
C531 C 0.33652 0.07498 0.47112 0.0
C532 C 0.36438 0.08712 0.46483 0.0
C533 C 0.3796 0.10052 0.53057 0.0
C534 C 0.40582 0.1121 0.52406 0.0
C535 C 0.41708 0.11025 0.45226 0.0
C536 C 0.40213 0.09676 0.38685 0.0
C537 C 0.37589 0.08518 0.39302 0.0
H538 H 0.43738 0.11922 0.44734 0.0
H539 H 0.18317 1.00531 0.51589 0.0
H540 H 0.27345 0.66725 0.9657 0.0
H541 H 0.2823 0.63205 0.93838 0.0
H542 H 0.22147 0.59407 0.08825 0.0
H543 H 0.21297 0.62924 0.11682 0.0
H544 H 0.26004 0.58523 0.11632 0.0
H545 H 0.21644 0.58615 0.88158 0.0
H546 H 0.2094 0.60312 0.76554 0.0
H547 H 0.28124 0.60946 0.67626 0.0
H548 H 0.28885 0.5928 0.79239 0.0
H549 H 0.22848 0.46593 0.00129 0.0
H550 H 0.22797 0.50495 0.01387 0.0
H551 H 0.29673 0.53217 0.88386 0.0
H552 H 0.29747 0.49282 0.87081 0.0
H553 H 0.26114 0.54923 0.84443 0.0
H554 H 0.29981 0.5412 0.07656 0.0
H555 H 0.30358 0.52218 0.19143 0.0
H556 H 0.23678 0.52691 0.28664 0.0
H557 H 0.23241 0.54566 0.17149 0.0
C558 C 0.26194 0.65134 -0.00747 0.0
C559 C 0.24253 0.65101 0.04349 0.0
C560 C 0.26698 0.63122 0.97681 0.0
C561 C 0.2524 0.61027 0.01064 0.0
C562 C 0.23309 0.61002 0.06171 0.0
C563 C 0.22824 0.63015 0.07808 0.0
C564 C 0.25705 0.58851 -0.00656 0.0
C565 C 0.26008 0.57729 0.05685 0.0
C566 C 0.25786 0.57844 0.91579 0.0
C567 C 0.25335 0.58852 0.84611 0.0
C568 C 0.23083 0.59136 0.83753 0.0
C569 C 0.22672 0.60088 0.77169 0.0
C570 C 0.2449 0.60745 0.7137 0.0
C571 C 0.26721 0.60443 0.72133 0.0
C572 C 0.27143 0.59494 0.78712 0.0
C573 C 0.24344 0.48009 0.97461 0.0
C574 C 0.2632 0.4763 0.93586 0.0
C575 C 0.24313 0.50244 0.98213 0.0
C576 C 0.26264 0.52157 0.95156 0.0
C577 C 0.28164 0.51765 0.90864 0.0
C578 C 0.28198 0.49515 0.90103 0.0
C579 C 0.26328 0.54568 0.96733 0.0
C580 C 0.2614 0.55738 0.90382 0.0
C581 C 0.26309 0.55599 0.04502 0.0
C582 C 0.26577 0.54481 0.11488 0.0
C583 C 0.28586 0.53811 0.12164 0.0
C584 C 0.2881 0.52736 0.1869 0.0
C585 C 0.27042 0.52332 0.24633 0.0
C586 C 0.25048 0.53006 0.24057 0.0
C587 C 0.24814 0.54078 0.17529 0.0
H588 H 0.27219 0.515 0.29685 0.0
H589 H 0.24168 0.6148 0.66274 0.0
H590 H 0.52049 0.34918 0.91435 0.0
H591 H 0.54921 0.34027 -0.00532 0.0
H592 H 0.55442 0.29181 0.80264 0.0
H593 H 0.52513 0.29988 0.72407 0.0
H594 H 0.55043 0.27317 0.93589 0.0
H595 H 0.60072 0.35205 0.84461 0.0
H596 H 0.60945 0.39419 0.83976 0.0
H597 H 0.61418 0.40557 0.09172 0.0
H598 H 0.60525 0.36342 0.09787 0.0
H599 H 0.66886 0.27992 0.84938 0.0
H600 H 0.63304 0.29056 0.86443 0.0
H601 H 0.64151 0.29715 0.11638 0.0
H602 H 0.67762 0.28612 0.10169 0.0
H603 H 0.63444 0.33756 0.01414 0.0
H604 H 0.5963 0.25952 0.09672 0.0
H605 H 0.58914 0.21756 0.09345 0.0
H606 H 0.56167 0.20444 0.85474 0.0
H607 H 0.56906 0.24642 0.85619 0.0
C608 C 0.52795 0.33674 0.8894 0.0
C609 C 0.52089 0.32541 0.81269 0.0
C610 C 0.54423 0.33161 0.9354 0.0
C611 C 0.55411 0.3155 0.9045 0.0
C612 C 0.54689 0.30416 0.82804 0.0
C613 C 0.53033 0.30893 0.78284 0.0
C614 C 0.57296 0.31094 0.94863 0.0
C615 C 0.56869 0.28727 0.95406 0.0
C616 C 0.59641 0.32935 0.9756 0.0
C617 C 0.60214 0.35465 0.97171 0.0
C618 C 0.60356 0.36357 0.89889 0.0
C619 C 0.60853 0.38742 0.89592 0.0
C620 C 0.61231 0.40254 0.9654 0.0
C621 C 0.61121 0.39384 0.03797 0.0
C622 C 0.60622 0.36999 0.04125 0.0
C623 C 0.66336 0.28392 0.90805 0.0
C624 C 0.67608 0.28235 0.97438 0.0
C625 C 0.64285 0.28988 0.91654 0.0
C626 C 0.63474 0.29457 -0.00859 0.0
C627 C 0.6476 0.29355 0.05818 0.0
C628 C 0.66806 0.2872 0.0497 0.0
C629 C 0.61224 0.29981 -0.00317 0.0
C630 C 0.61578 0.32354 -0.0 0.0
C631 C 0.58808 0.28148 0.97775 0.0
C632 C 0.58337 0.25615 0.97651 0.0
C633 C 0.58893 0.24773 0.04334 0.0
C634 C 0.58479 0.22393 0.04184 0.0
C635 C 0.57499 0.20835 0.97389 0.0
C636 C 0.56926 0.21652 0.90734 0.0
C637 C 0.57338 0.24032 0.90852 0.0
H638 H 0.5718 0.18993 0.97284 0.0
H639 H 0.61613 0.42099 0.96298 0.0
H640 H 0.52037 0.68846 0.08363 0.0
H641 H 0.49621 0.65841 0.97852 0.0
H642 H 0.42945 0.66921 0.04358 0.0
H643 H 0.45322 0.69847 0.1518 0.0
H644 H 0.41814 0.62444 0.02333 0.0
H645 H 0.46174 0.68798 0.87114 0.0
H646 H 0.49781 0.72125 0.82211 0.0
H647 H 0.53129 0.67388 0.73598 0.0
H648 H 0.49562 0.64036 0.78557 0.0
H649 H 0.35063 0.53538 0.74103 0.0
H650 H 0.37127 0.57776 0.78182 0.0
H651 H 0.44404 0.57491 0.77012 0.0
H652 H 0.42372 0.53278 0.72335 0.0
H653 H 0.44799 0.61973 0.75095 0.0
H654 H 0.40887 0.55984 0.93683 0.0
H655 H 0.37163 0.52598 0.97833 0.0
H656 H 0.32883 0.56817 -0.00595 0.0
H657 H 0.36582 0.60216 0.95276 0.0
C658 C 0.50048 0.6843 0.07629 0.0
C659 C 0.48871 0.69578 0.12681 0.0
C660 C 0.48678 0.6674 0.01503 0.0
C661 C 0.46109 0.66183 0.00204 0.0
C662 C 0.4493 0.67335 0.05199 0.0
C663 C 0.46295 0.69015 0.11371 0.0
C664 C 0.44615 0.64261 0.9405 0.0
C665 C 0.42441 0.62381 0.96334 0.0
C666 C 0.45439 0.6415 0.86218 0.0
C667 C 0.47603 0.66165 0.83264 0.0
C668 C 0.47689 0.68467 0.84237 0.0
C669 C 0.49725 0.70358 0.81434 0.0
C670 C 0.51684 0.69969 0.77604 0.0
C671 C 0.5161 0.67687 0.76567 0.0
C672 C 0.49579 0.6579 0.79365 0.0
C673 C 0.37109 0.54387 0.74299 0.0
C674 C 0.38547 0.53042 0.73155 0.0
C675 C 0.38288 0.56818 0.76704 0.0
C676 C 0.40908 0.57925 0.78203 0.0
C677 C 0.42373 0.56663 0.76025 0.0
C678 C 0.41202 0.54243 0.73454 0.0
C679 C 0.42044 0.60173 0.83465 0.0
C680 C 0.44154 0.6209 0.81049 0.0
C681 C 0.41164 0.60338 0.91182 0.0
C682 C 0.39001 0.58346 0.94168 0.0
C683 C 0.39154 0.56188 0.94976 0.0
C684 C 0.37048 0.54266 0.97312 0.0
C685 C 0.34788 0.5449 -0.0109 0.0
C686 C 0.34635 0.56643 0.98222 0.0
C687 C 0.36737 0.5857 0.95901 0.0
H688 H 0.33157 0.52993 0.00664 0.0
H689 H 0.53257 0.71435 0.75428 0.0
H690 H 0.90755 0.53318 0.84091 0.0
H691 H 0.89695 0.49158 0.85579 0.0
H692 H 0.81755 0.4758 0.84237 0.0
H693 H 0.82803 0.51761 0.8273 0.0
H694 H 0.8337 0.45181 0.96114 0.0
H695 H 0.83822 0.46416 0.68589 0.0
H696 H 0.85842 0.48489 0.57121 0.0
H697 H 0.92274 0.46961 0.60516 0.0
H698 H 0.90307 0.44911 0.72092 0.0
H699 H 0.78951 0.32654 0.85203 0.0
H700 H 0.79758 0.36855 0.87243 0.0
H701 H 0.87552 0.38775 0.81075 0.0
H702 H 0.8671 0.34578 0.78681 0.0
H703 H 0.85827 0.41042 0.73328 0.0
H704 H 0.85498 0.39766 0.00585 0.0
H705 H 0.83595 0.3769 0.12156 0.0
H706 H 0.77148 0.39261 0.09678 0.0
H707 H 0.79004 0.41333 0.98048 0.0
C708 C 0.88782 0.521 0.84286 0.0
C709 C 0.86861 0.52865 0.83269 0.0
C710 C 0.88181 0.49723 0.8512 0.0
C711 C 0.85649 0.48066 0.85006 0.0
C712 C 0.8372 0.48838 0.84373 0.0
C713 C 0.84321 0.51217 0.83446 0.0
C714 C 0.85046 0.45504 0.84723 0.0
C715 C 0.83878 0.44259 0.91115 0.0
C716 C 0.85756 0.44325 0.7826 0.0
C717 C 0.86928 0.45533 0.7125 0.0
C718 C 0.85676 0.4654 0.6693 0.0
C719 C 0.8681 0.47708 0.60404 0.0
C720 C 0.89188 0.47862 0.58103 0.0
C721 C 0.90433 0.46843 0.62312 0.0
C722 C 0.8931 0.45677 0.68852 0.0
C723 C 0.80846 0.3398 0.84447 0.0
C724 C 0.82771 0.33301 0.81799 0.0
C725 C 0.8131 0.36383 0.85629 0.0
C726 C 0.83724 0.38146 0.84361 0.0
C727 C 0.85671 0.37456 0.82051 0.0
C728 C 0.85194 0.35059 0.80714 0.0
C729 C 0.84189 0.40694 0.84806 0.0
C730 C 0.85322 0.41945 0.78386 0.0
C731 C 0.83469 0.41873 0.91288 0.0
C732 C 0.82382 0.40689 0.98411 0.0
C733 C 0.83671 0.39663 0.02494 0.0
C734 C 0.82602 0.38489 0.09067 0.0
C735 C 0.80249 0.38337 0.11635 0.0
C736 C 0.78969 0.39377 0.07674 0.0
C737 C 0.80032 0.40558 0.01105 0.0
H738 H 0.79419 0.37416 0.167 0.0
H739 H 0.90062 0.48766 0.53048 0.0
H740 H 0.31005 0.7784 0.16638 0.0
H741 H 0.35509 0.78722 0.16057 0.0
H742 H 0.3738 0.86185 0.214 0.0
H743 H 0.32856 0.8531 0.22115 0.0
H744 H 0.4037 0.84818 0.08749 0.0
H745 H 0.37856 0.83855 0.35625 0.0
H746 H 0.35053 0.8178 0.4598 0.0
H747 H 0.36543 0.75646 0.39429 0.0
H748 H 0.39317 0.7767 0.28927 0.0
H749 H 0.5334 0.87499 0.19481 0.0
H750 H 0.49082 0.87361 0.18112 0.0
H751 H 0.45835 0.7981 0.19704 0.0
H752 H 0.50047 0.79966 0.21373 0.0
H753 H 0.43608 0.8169 0.29343 0.0
H754 H 0.45904 0.8243 0.02207 0.0
H755 H 0.48523 0.84298 0.91216 0.0
H756 H 0.4738 0.90625 0.97605 0.0
H757 H 0.44779 0.88805 0.08702 0.0
C758 C 0.32373 0.79671 0.17604 0.0
C759 C 0.31587 0.81508 0.19434 0.0
C760 C 0.34942 0.80171 0.17266 0.0
C761 C 0.36769 0.82517 0.18685 0.0
C762 C 0.35993 0.84366 0.20249 0.0
C763 C 0.33417 0.83863 0.20712 0.0
C764 C 0.39476 0.82991 0.19136 0.0
C765 C 0.41101 0.84171 0.13304 0.0
C766 C 0.40401 0.82109 0.25018 0.0
C767 C 0.38778 0.80907 0.31445 0.0
C768 C 0.37571 0.82057 0.36353 0.0
C769 C 0.35989 0.80891 0.42254 0.0
C770 C 0.35616 0.78581 0.43352 0.0
C771 C 0.36832 0.77435 0.38567 0.0
C772 C 0.3841 0.78591 0.32642 0.0
C773 C 0.51712 0.8581 0.19399 0.0
C774 C 0.52013 0.83747 0.20602 0.0
C775 C 0.4928 0.85729 0.1861 0.0
C776 C 0.47128 0.83573 0.18831 0.0
C777 C 0.47456 0.81499 0.19611 0.0
C778 C 0.49866 0.81588 0.20543 0.0
C779 C 0.44523 0.83464 0.18799 0.0
C780 C 0.42905 0.82358 0.24779 0.0
C781 C 0.4361 0.84396 0.13001 0.0
C782 C 0.45173 0.85492 0.06339 0.0
C783 C 0.4623 0.84227 0.01309 0.0
C784 C 0.47707 0.85276 0.95052 0.0
C785 C 0.48125 0.87582 0.93729 0.0
C786 C 0.47059 0.88841 -0.01353 0.0
C787 C 0.45582 0.87801 0.04917 0.0
H788 H 0.49268 0.8839 0.88881 0.0
H789 H 0.34389 0.7768 0.4792 0.0
H790 H 0.78502 0.63788 0.61451 0.0
H791 H 0.74171 0.60987 0.63844 0.0
H792 H 0.7695 0.55963 0.70132 0.0
H793 H 0.81275 0.58748 0.67782 0.0
H794 H 0.72874 0.53919 0.59845 0.0
H795 H 0.75156 0.59058 0.84027 0.0
H796 H 0.76701 0.62923 0.92149 0.0
H797 H 0.705 0.64151 0.83774 0.0
H798 H 0.68946 0.60315 0.75485 0.0
H799 H 0.61697 0.4566 0.74768 0.0
H800 H 0.66023 0.4861 0.73758 0.0
H801 H 0.63257 0.53873 0.70171 0.0
H802 H 0.58927 0.50971 0.71652 0.0
H803 H 0.67344 0.55845 0.79134 0.0
H804 H 0.65119 0.50896 0.54654 0.0
H805 H 0.63574 0.47132 0.45987 0.0
H806 H 0.69616 0.45648 0.54267 0.0
H807 H 0.71178 0.4939 0.63066 0.0
C808 C 0.78189 0.62091 0.6338 0.0
C809 C 0.80232 0.61497 0.64492 0.0
C810 C 0.75716 0.60496 0.64769 0.0
C811 C 0.7524 0.58273 0.67232 0.0
C812 C 0.77275 0.57671 0.68266 0.0
C813 C 0.79748 0.59273 0.66975 0.0
C814 C 0.72619 0.56552 0.6859 0.0
C815 C 0.71675 0.54327 0.64138 0.0
C816 C 0.71034 0.57112 0.74032 0.0
C817 C 0.7195 0.59409 0.79078 0.0
C818 C 0.74135 0.60161 0.83872 0.0
C819 C 0.7501 0.62345 0.88511 0.0
C820 C 0.73702 0.63782 0.88467 0.0
C821 C 0.71513 0.63036 0.83795 0.0
C822 C 0.70634 0.60858 0.79126 0.0
C823 C 0.62002 0.47454 0.73917 0.0
C824 C 0.59946 0.48063 0.73235 0.0
C825 C 0.64483 0.49136 0.73235 0.0
C826 C 0.64971 0.51455 0.71715 0.0
C827 C 0.62933 0.52092 0.7128 0.0
C828 C 0.60451 0.50418 0.72043 0.0
C829 C 0.67595 0.532 0.70402 0.0
C830 C 0.68541 0.55433 0.74846 0.0
C831 C 0.69178 0.52658 0.64884 0.0
C832 C 0.6825 0.50412 0.59575 0.0
C833 C 0.66108 0.49759 0.54667 0.0
C834 C 0.6523 0.47631 0.49725 0.0
C835 C 0.66492 0.46149 0.49591 0.0
C836 C 0.68638 0.46796 0.54385 0.0
C837 C 0.69522 0.48921 0.59346 0.0
H838 H 0.6581 0.44502 0.45761 0.0
H839 H 0.74382 0.65471 0.92063 0.0
H840 H 0.21868 0.39904 0.7459 0.0
H841 H 0.23004 0.40566 0.6094 0.0
H842 H 0.28621 0.37796 0.6275 0.0
H843 H 0.27472 0.37108 0.76397 0.0
H844 H 0.2767 0.43671 0.5727 0.0
H845 H 0.29545 0.3569 0.42631 0.0
H846 H 0.28029 0.31387 0.43175 0.0
H847 H 0.20937 0.31064 0.51992 0.0
H848 H 0.22408 0.35364 0.51412 0.0
H849 H 0.33298 0.42292 0.15893 0.0
H850 H 0.32592 0.41518 0.29666 0.0
H851 H 0.26478 0.43729 0.30203 0.0
H852 H 0.27202 0.44547 0.1649 0.0
H853 H 0.28097 0.38177 0.34703 0.0
H854 H 0.26145 0.46131 0.48468 0.0
H855 H 0.27692 0.50424 0.47447 0.0
H856 H 0.34886 0.50699 0.39888 0.0
H857 H 0.3339 0.46413 0.40928 0.0
C858 C 0.23294 0.39375 0.72005 0.0
C859 C 0.24605 0.38481 0.76532 0.0
C860 C 0.23952 0.39767 0.64237 0.0
C861 C 0.25909 0.39247 0.60873 0.0
C862 C 0.27097 0.38197 0.65225 0.0
C863 C 0.26441 0.37807 0.73005 0.0
C864 C 0.26871 0.40034 0.53144 0.0
C865 C 0.2773 0.42461 0.52307 0.0
C866 C 0.27049 0.38467 0.46786 0.0
C867 C 0.26125 0.35872 0.47198 0.0
C868 C 0.27674 0.34707 0.44753 0.0
C869 C 0.26816 0.32264 0.45035 0.0
C870 C 0.24394 0.30955 0.4769 0.0
C871 C 0.22822 0.32085 0.50013 0.0
C872 C 0.23673 0.3453 0.49734 0.0
C873 C 0.31845 0.42667 0.19015 0.0
C874 C 0.30293 0.43469 0.15166 0.0
C875 C 0.31432 0.42204 0.26838 0.0
C876 C 0.29481 0.42558 0.30907 0.0
C877 C 0.2801 0.43467 0.27171 0.0
C878 C 0.28419 0.43926 0.19351 0.0
C879 C 0.28826 0.4179 0.38823 0.0
C880 C 0.28045 0.39378 0.39708 0.0
C881 C 0.28716 0.43361 0.45233 0.0
C882 C 0.29646 0.45947 0.44712 0.0
C883 C 0.2806 0.4711 0.46621 0.0
C884 C 0.28927 0.49541 0.46028 0.0
C885 C 0.31383 0.50832 0.43583 0.0
C886 C 0.3298 0.49695 0.4175 0.0
C887 C 0.32122 0.47264 0.42321 0.0
H888 H 0.32049 0.52713 0.43119 0.0
H889 H 0.2373 0.29062 0.47899 0.0
H890 H 0.74596 0.23611 0.51856 0.0
H891 H 0.75509 0.2366 0.37751 0.0
H892 H 0.82835 0.29403 0.43099 0.0
H893 H 0.81909 0.2944 0.57027 0.0
H894 H 0.78211 0.28555 0.28098 0.0
H895 H 0.86266 0.25731 0.33053 0.0
H896 H 0.8738 0.23079 0.40316 0.0
H897 H 0.79508 0.18767 0.43461 0.0
H898 H 0.78351 0.21329 0.35928 0.0
H899 H 0.87008 0.2858 0.94835 0.0
H900 H 0.86141 0.29043 0.08875 0.0
H901 H 0.78844 0.23136 0.05133 0.0
H902 H 0.79748 0.22569 0.91275 0.0
H903 H 0.83556 0.2433 0.19313 0.0
H904 H 0.75505 0.27333 0.15018 0.0
H905 H 0.74386 0.29784 0.06792 0.0
H906 H 0.82195 0.33591 0.01475 0.0
H907 H 0.83384 0.31292 0.10127 0.0
C908 C 0.76369 0.24917 0.49973 0.0
C909 C 0.78199 0.26497 0.55477 0.0
C910 C 0.7689 0.24938 0.41973 0.0
C911 C 0.79253 0.26506 0.39518 0.0
C912 C 0.81014 0.28169 0.44965 0.0
C913 C 0.80479 0.28183 0.52894 0.0
C914 C 0.79983 0.26348 0.31334 0.0
C915 C 0.7935 0.27608 0.26105 0.0
C916 C 0.81546 0.25184 0.28944 0.0
C917 C 0.82223 0.23766 0.34125 0.0
C918 C 0.84774 0.24235 0.35394 0.0
C919 C 0.85414 0.22738 0.39522 0.0
C920 C 0.83521 0.20782 0.42506 0.0
C921 C 0.8098 0.20309 0.41305 0.0
C922 C 0.80329 0.21785 0.37099 0.0
C923 C 0.85246 0.27353 0.97066 0.0
C924 C 0.83418 0.25569 0.92017 0.0
C925 C 0.84743 0.2764 0.0501 0.0
C926 C 0.8239 0.26186 0.07835 0.0
C927 C 0.80638 0.24313 0.02916 0.0
C928 C 0.81165 0.23984 0.95057 0.0
C929 C 0.81768 0.26513 0.16039 0.0
C930 C 0.82428 0.2529 0.21299 0.0
C931 C 0.80229 0.27709 0.18412 0.0
C932 C 0.7953 0.29081 0.13057 0.0
C933 C 0.76987 0.28691 0.12095 0.0
C934 C 0.7634 0.30068 0.07396 0.0
C935 C 0.78211 0.31816 0.03511 0.0
C936 C 0.80741 0.32217 0.04412 0.0
C937 C 0.81405 0.3088 0.09237 0.0
H938 H 0.77703 0.32877 -0.00124 0.0
H939 H 0.84024 0.19616 0.45648 0.0
H940 H 0.63232 0.82213 0.08498 0.0
H941 H 0.64538 0.81839 0.94956 0.0
H942 H 0.56803 0.79454 0.86868 0.0
H943 H 0.55472 0.79713 0.00458 0.0
H944 H 0.5944 0.77574 0.77002 0.0
H945 H 0.606 0.85561 0.89874 0.0
H946 H 0.62436 0.88876 0.00343 0.0
H947 H 0.69857 0.8926 0.95353 0.0
H948 H 0.68054 0.85953 0.84803 0.0
H949 H 0.56743 0.83176 0.48256 0.0
H950 H 0.57476 0.81362 0.59357 0.0
H951 H 0.65533 0.85414 0.57679 0.0
H952 H 0.64794 0.87331 0.46934 0.0
H953 H 0.64298 0.85921 0.71547 0.0
H954 H 0.62649 0.79148 0.53833 0.0
H955 H 0.60572 0.75914 0.43302 0.0
H956 H 0.53909 0.73144 0.57043 0.0
H957 H 0.55911 0.76389 0.67567 0.0
C958 C 0.61808 0.81568 0.03817 0.0
C959 C 0.59265 0.81058 0.05395 0.0
C960 C 0.62552 0.81329 0.96126 0.0
C961 C 0.60773 0.80664 0.89949 0.0
C962 C 0.58201 0.79967 0.91583 0.0
C963 C 0.57447 0.80148 -0.00699 0.0
C964 C 0.61603 0.81171 0.8193 0.0
C965 C 0.60524 0.79387 0.75715 0.0
C966 C 0.63109 0.83523 0.80342 0.0
C967 C 0.64196 0.85507 0.86635 0.0
C968 C 0.62622 0.86354 0.91036 0.0
C969 C 0.63656 0.88229 0.96973 0.0
C970 C 0.66262 0.89272 0.98544 0.0
C971 C 0.67839 0.88448 0.94143 0.0
C972 C 0.66814 0.86578 0.88172 0.0
C973 C 0.58663 0.83688 0.50335 0.0
C974 C 0.60705 0.85417 0.46889 0.0
C975 C 0.59088 0.82613 0.5653 0.0
C976 C 0.61567 0.8321 0.5921 0.0
C977 C 0.63609 0.84916 0.55662 0.0
C978 C 0.6318 0.86035 0.49619 0.0
C979 C 0.61982 0.8235 0.665 0.0
C980 C 0.63316 0.84075 0.7263 0.0
C981 C 0.60692 0.79946 0.67947 0.0
C982 C 0.59442 0.78018 0.61523 0.0
C983 C 0.60732 0.77865 0.54585 0.0
C984 C 0.59567 0.76026 0.48614 0.0
C985 C 0.57116 0.74319 0.4953 0.0
C986 C 0.55812 0.74462 0.56363 0.0
C987 C 0.56963 0.76301 0.62337 0.0
H988 H 0.56229 0.72876 0.44971 0.0
H989 H 0.67058 0.90722 0.03155 0.0
H990 H 0.92103 0.64614 0.38236 0.0
H991 H 0.92041 0.65847 0.25113 0.0
H992 H 0.84005 0.63851 0.26733 0.0
H993 H 0.84055 0.62576 0.39656 0.0
H994 H 0.84991 0.62378 0.13075 0.0
H995 H 0.88174 0.69802 0.29159 0.0
H996 H 0.90874 0.73289 0.38123 0.0
H997 H 0.97284 0.74147 0.23812 0.0
H998 H 0.94607 0.70697 0.14702 0.0
H999 H 0.83932 0.68134 0.8038 0.0
H1000 H 0.83868 0.67277 0.94061 0.0
H1001 H 0.91702 0.68404 0.92714 0.0
H1002 H 0.91781 0.69284 0.79146 0.0
H1003 H 0.9065 0.70418 0.06388 0.0
H1004 H 0.86959 0.6282 0.89987 0.0
H1005 H 0.83808 0.59766 0.80686 0.0
H1006 H 0.77866 0.59443 0.96446 0.0
H1007 H 0.80963 0.62563 0.0566 0.0
C1008 C 0.90321 0.6438 0.35655 0.0
C1009 C 0.88077 0.63487 0.39847 0.0
C1010 C 0.90294 0.65127 0.28265 0.0
C1011 C 0.88025 0.64977 0.25051 0.0
C1012 C 0.85775 0.63989 0.29132 0.0
C1013 C 0.85801 0.63246 0.36466 0.0
C1014 C 0.87949 0.65765 0.17306 0.0
C1015 C 0.86209 0.64148 0.11651 0.0
C1016 C 0.89545 0.68067 0.15454 0.0
C1017 C 0.91206 0.69966 0.21355 0.0
C1018 C 0.90169 0.70709 0.28021 0.0
C1019 C 0.91684 0.72697 0.33061 0.0
C1020 C 0.94244 0.73941 0.31522 0.0
C1021 C 0.953 0.73187 0.24984 0.0
C1022 C 0.93785 0.7122 0.19881 0.0
C1023 C 0.85649 0.68249 0.83092 0.0
C1024 C 0.87861 0.68763 0.78784 0.0
C1025 C 0.85603 0.67736 0.90838 0.0
C1026 C 0.87769 0.67741 0.94287 0.0
C1027 C 0.90012 0.68383 0.90104 0.0
C1028 C 0.90057 0.68888 0.8239 0.0
C1029 C 0.87718 0.67026 0.022 0.0
C1030 C 0.89434 0.68653 0.07862 0.0
C1031 C 0.86056 0.64755 0.04128 0.0
C1032 C 0.84188 0.62951 0.98427 0.0
C1033 C 0.84974 0.62131 0.91367 0.0
C1034 C 0.832 0.60385 0.86131 0.0
C1035 C 0.8064 0.59415 0.87965 0.0
C1036 C 0.79846 0.60204 0.95008 0.0
C1037 C 0.81609 0.61968 0.00221 0.0
H1038 H 0.79274 0.58038 0.83969 0.0
H1039 H 0.95414 0.75478 0.35434 0.0
H1040 H 0.252 0.75651 0.45988 0.0
H1041 H 0.25855 0.77205 0.5992 0.0
H1042 H 0.28093 0.84307 0.53582 0.0
H1043 H 0.27444 0.8276 0.39796 0.0
H1044 H 0.29423 0.80903 0.70621 0.0
H1045 H 0.24014 0.86339 0.64087 0.0
H1046 H 0.21149 0.86635 0.54267 0.0
H1047 H 0.1855 0.79197 0.46692 0.0
H1048 H 0.21369 0.78852 0.56553 0.0
H1049 H 0.23287 0.85429 0.04924 0.0
H1050 H 0.24579 0.85787 0.91202 0.0
H1051 H 0.22985 0.78336 0.88022 0.0
H1052 H 0.21667 0.77971 0.01622 0.0
H1053 H 0.22277 0.83184 0.76234 0.0
H1054 H 0.2853 0.78108 0.81188 0.0
H1055 H 0.31217 0.77815 0.91579 0.0
H1056 H 0.32008 0.84562 0.03018 0.0
H1057 H 0.29369 0.84924 0.92619 0.0
C1058 C 0.25948 0.7755 0.47595 0.0
C1059 C 0.26213 0.79092 0.41938 0.0
C1060 C 0.26319 0.78436 0.5551 0.0
C1061 C 0.26957 0.80857 0.57689 0.0
C1062 C 0.27564 0.82431 0.51964 0.0
C1063 C 0.27179 0.81544 0.44107 0.0
C1064 C 0.26488 0.81628 0.65694 0.0
C1065 C 0.27874 0.81414 0.71888 0.0
C1066 C 0.2452 0.82379 0.67242 0.0
C1067 C 0.22931 0.82581 0.60967 0.0
C1068 C 0.22839 0.84771 0.60294 0.0
C1069 C 0.21213 0.84944 0.54759 0.0
C1070 C 0.19663 0.82935 0.49885 0.0
C1071 C 0.19755 0.80753 0.5047 0.0
C1072 C 0.2137 0.80568 0.56022 0.0
C1073 C 0.23114 0.83854 0.01172 0.0
C1074 C 0.22423 0.81676 0.04245 0.0
C1075 C 0.23881 0.84068 0.93416 0.0
C1076 C 0.23958 0.82106 0.88809 0.0
C1077 C 0.23 0.79879 0.91636 0.0
C1078 C 0.22231 0.79665 -0.00665 0.0
C1079 C 0.25139 0.82355 0.81148 0.0
C1080 C 0.23889 0.8276 0.75005 0.0
C1081 C 0.27232 0.81787 0.79664 0.0
C1082 C 0.28742 0.8154 0.86114 0.0
C1083 C 0.2928 0.79533 0.85908 0.0
C1084 C 0.30796 0.79355 0.91798 0.0
C1085 C 0.3179 0.81174 0.97923 0.0
C1086 C 0.31238 0.83157 0.98254 0.0
C1087 C 0.29727 0.83347 0.9237 0.0
H1088 H 0.33006 0.81055 0.02367 0.0
H1089 H 0.18396 0.83075 0.45651 0.0
H1090 H 0.47032 0.29954 0.46738 0.0
H1091 H 0.46812 0.29911 0.32487 0.0
H1092 H 0.52463 0.37125 0.34176 0.0
H1093 H 0.52771 0.37147 0.48389 0.0
H1094 H 0.46753 0.35784 0.30872 0.0
H1095 H 0.54002 0.34876 0.21941 0.0
H1096 H 0.57222 0.33286 0.19761 0.0
H1097 H 0.51635 0.26773 0.08466 0.0
H1098 H 0.48365 0.28307 0.10681 0.0
H1099 H 0.45533 0.36871 0.88907 0.0
H1100 H 0.46689 0.37302 0.02817 0.0
H1101 H 0.42079 0.29849 0.03829 0.0
H1102 H 0.40875 0.29419 0.89971 0.0
H1103 H 0.47822 0.31777 0.05387 0.0
H1104 H 0.40537 0.3298 0.15304 0.0
H1105 H 0.37651 0.34937 0.17519 0.0
H1106 H 0.43779 0.41382 0.26829 0.0
H1107 H 0.46739 0.39487 0.24497 0.0
C1108 C 0.48331 0.31479 0.44013 0.0
C1109 C 0.49891 0.3356 0.48631 0.0
C1110 C 0.48213 0.31451 0.35876 0.0
C1111 C 0.49618 0.33518 0.32324 0.0
C1112 C 0.51392 0.35506 0.36827 0.0
C1113 C 0.51557 0.35516 0.4495 0.0
C1114 C 0.4866 0.33809 0.24817 0.0
C1115 C 0.47025 0.34952 0.25244 0.0
C1116 C 0.49003 0.3269 0.17577 0.0
C1117 C 0.50922 0.31693 0.16624 0.0
C1118 C 0.53444 0.33086 0.19138 0.0
C1119 C 0.55283 0.322 0.17851 0.0
C1120 C 0.54629 0.29923 0.14039 0.0
C1121 C 0.52135 0.28531 0.11468 0.0
C1122 C 0.50287 0.29409 0.12735 0.0
C1123 C 0.44652 0.35358 0.92227 0.0
C1124 C 0.43131 0.33113 0.88398 0.0
C1125 C 0.45324 0.35604 0.00147 0.0
C1126 C 0.44492 0.336 0.04264 0.0
C1127 C 0.42734 0.31412 0.00701 0.0
C1128 C 0.42028 0.31174 0.9281 0.0
C1129 C 0.45846 0.33678 0.11522 0.0
C1130 C 0.47563 0.32617 0.11013 0.0
C1131 C 0.45621 0.34917 0.18668 0.0
C1132 C 0.4387 0.36099 0.19595 0.0
C1133 C 0.41284 0.34828 0.17673 0.0
C1134 C 0.39629 0.35923 0.19001 0.0
C1135 C 0.40521 0.38279 0.22308 0.0
C1136 C 0.43086 0.39556 0.24252 0.0
C1137 C 0.44757 0.38475 0.22914 0.0
H1138 H 0.39224 0.39111 0.23383 0.0
H1139 H 0.56057 0.29243 0.13045 0.0
loop_
_geom_bond_atom_site_label_1
_geom_bond_atom_site_label_2
_geom_bond_distance
_geom_bond_site_symmetry_2
_ccdc_geom_bond_type
Nd0 C2 2.836 . S
Nd0 O20 2.500 . S
Nd0 O21 2.492 1_554 S
Nd0 O22 2.487 1_554 S
Nd0 O23 2.682 1_554 S
Nd0 O24 2.410 1_554 S
Nd0 O29 2.414 . S
Nd0 O31 2.424 1_554 S
Nd1 C11 2.836 1_554 S
Nd1 O23 2.414 1_554 S
Nd1 O25 2.424 . S
Nd1 O26 2.500 1_554 S
Nd1 O27 2.492 . S
Nd1 O28 2.487 . S
Nd1 O29 2.682 . S
Nd1 O30 2.410 . S
C2 Nd0 2.836 . S
C2 C3 1.498 . S
C2 O20 1.258 . S
C2 O21 1.239 1_554 S
C3 C2 1.498 . S
C3 C4 1.366 . S
C3 C8 1.407 . S
C4 C3 1.366 . S
C4 C5 1.392 . S
C4 H32 0.930 . S
C5 C4 1.392 . S
C5 C6 1.398 . S
C5 H33 0.929 . S
C6 C5 1.398 . S
C6 C7 1.352 . S
C7 C6 1.352 . S
C7 C8 1.384 . S
C7 H34 0.930 1_554 S
C8 C3 1.407 . S
C8 C7 1.384 . S
C8 H35 0.929 1_554 S
C9 O22 1.241 . S
C9 O23 1.273 . S
C10 O24 1.251 1_554 S
C10 O25 1.268 . S
C11 Nd1 2.836 1_556 S
C11 C12 1.498 . S
C11 O26 1.258 . S
C11 O27 1.239 1_556 S
C12 C11 1.498 . S
C12 C13 1.366 . S
C12 C17 1.407 1_556 S
C13 C12 1.366 . S
C13 C14 1.392 . S
C13 H36 0.930 . S
C14 C13 1.392 . S
C14 C15 1.398 . S
C14 H37 0.929 . S
C15 C14 1.398 . S
C15 C16 1.352 . S
C16 C15 1.352 . S
C16 C17 1.384 1_556 S
C16 H38 0.930 1_556 S
C17 C12 1.407 1_554 S
C17 C16 1.384 1_554 S
C17 H39 0.929 . S
C18 O28 1.241 . S
C18 O29 1.273 . S
C19 O30 1.251 1_556 S
C19 O31 1.268 . S
O20 Nd0 2.500 . S
O20 C2 1.258 . S
O21 Nd0 2.492 1_556 S
O21 C2 1.239 1_556 S
O22 Nd0 2.487 1_556 S
O22 C9 1.241 . S
O23 Nd0 2.682 1_556 S
O23 Nd1 2.414 1_556 S
O23 C9 1.273 . S
O24 Nd0 2.410 1_556 S
O24 C10 1.251 1_556 S
O25 Nd1 2.424 . S
O25 C10 1.268 . S
O26 Nd1 2.500 1_556 S
O26 C11 1.258 . S
O27 Nd1 2.492 . S
O27 C11 1.239 1_554 S
O28 Nd1 2.487 . S
O28 C18 1.241 . S
O29 Nd0 2.414 . S
O29 Nd1 2.682 . S
O29 C18 1.273 . S
O30 Nd1 2.410 . S
O30 C19 1.251 1_554 S
O31 Nd0 2.424 1_556 S
O31 C19 1.268 . S
H32 C4 0.930 . S
H33 C5 0.929 . S
H34 C7 0.930 1_556 S
H35 C8 0.929 1_556 S
H36 C13 0.930 . S
H37 C14 0.929 . S
H38 C16 0.930 1_554 S
H39 C17 0.929 . S
Nd40 C42 2.836 . S
Nd40 O60 2.500 . S
Nd40 O61 2.492 . S
Nd40 O62 2.487 1_556 S
Nd40 O63 2.682 . S
Nd40 O64 2.410 . S
Nd40 O69 2.414 . S
Nd40 O71 2.424 . S
Nd41 C51 2.836 . S
Nd41 O63 2.414 . S
Nd41 O65 2.424 . S
Nd41 O66 2.500 . S
Nd41 O67 2.492 . S
Nd41 O68 2.487 . S
Nd41 O69 2.682 . S
Nd41 O70 2.410 . S
C42 Nd40 2.836 . S
C42 C43 1.498 . S
C42 O60 1.258 . S
C42 O61 1.239 . S
C43 C42 1.498 . S
C43 C44 1.366 . S
C43 C48 1.407 . S
C44 C43 1.366 . S
C44 C45 1.392 . S
C44 H72 0.930 . S
C45 C44 1.392 . S
C45 C46 1.398 . S
C45 H73 0.929 . S
C46 C45 1.398 . S
C46 C47 1.352 . S
C47 C46 1.352 . S
C47 C48 1.384 . S
C47 H74 0.930 . S
C48 C43 1.407 . S
C48 C47 1.384 . S
C48 H75 0.929 . S
C49 O62 1.241 . S
C49 O63 1.273 1_554 S
C50 O64 1.251 . S
C50 O65 1.268 . S
C51 Nd41 2.836 . S
C51 C52 1.498 . S
C51 O66 1.258 . S
C51 O67 1.239 . S
C52 C51 1.498 . S
C52 C53 1.366 1_556 S
C52 C57 1.407 . S
C53 C52 1.366 1_554 S
C53 C54 1.392 . S
C53 H76 0.930 . S
C54 C53 1.392 . S
C54 C55 1.398 1_554 S
C54 H77 0.929 . S
C55 C54 1.398 1_556 S
C55 C56 1.352 . S
C56 C55 1.352 . S
C56 C57 1.384 . S
C56 H78 0.930 . S
C57 C52 1.407 . S
C57 C56 1.384 . S
C57 H79 0.929 . S
C58 O68 1.241 . S
C58 O69 1.273 . S
C59 O70 1.251 . S
C59 O71 1.268 . S
O60 Nd40 2.500 . S
O60 C42 1.258 . S
O61 Nd40 2.492 . S
O61 C42 1.239 . S
O62 Nd40 2.487 1_554 S
O62 C49 1.241 . S
O63 Nd40 2.682 . S
O63 Nd41 2.414 . S
O63 C49 1.273 1_556 S
O64 Nd40 2.410 . S
O64 C50 1.251 . S
O65 Nd41 2.424 . S
O65 C50 1.268 . S
O66 Nd41 2.500 . S
O66 C51 1.258 . S
O67 Nd41 2.492 . S
O67 C51 1.239 . S
O68 Nd41 2.487 . S
O68 C58 1.241 . S
O69 Nd40 2.414 . S
O69 Nd41 2.682 . S
O69 C58 1.273 . S
O70 Nd41 2.410 . S
O70 C59 1.251 . S
O71 Nd40 2.424 . S
O71 C59 1.268 . S
H72 C44 0.930 . S
H73 C45 0.929 . S
H74 C47 0.930 . S
H75 C48 0.929 . S
H76 C53 0.930 . S
H77 C54 0.929 . S
H78 C56 0.930 . S
H79 C57 0.929 . S
Nd80 C82 2.836 . S
Nd80 O100 2.500 1_554 S
Nd80 O101 2.492 . S
Nd80 O102 2.487 . S
Nd80 O103 2.682 . S
Nd80 O104 2.410 . S
Nd80 O109 2.414 1_554 S
Nd80 O111 2.424 . S
Nd81 C91 2.836 . S
Nd81 O103 2.414 1_556 S
Nd81 O105 2.424 1_556 S
Nd81 O106 2.500 1_556 S
Nd81 O107 2.492 . S
Nd81 O108 2.487 . S
Nd81 O109 2.682 . S
Nd81 O110 2.410 . S
C82 Nd80 2.836 . S
C82 C83 1.498 . S
C82 O100 1.258 1_554 S
C82 O101 1.239 . S
C83 C82 1.498 . S
C83 C84 1.366 . S
C83 C88 1.407 . S
C84 C83 1.366 . S
C84 C85 1.392 . S
C84 H112 0.930 1_554 S
C85 C84 1.392 . S
C85 C86 1.398 . S
C85 H113 0.929 1_554 S
C86 C85 1.398 . S
C86 C87 1.352 . S
C87 C86 1.352 . S
C87 C88 1.384 . S
C87 H114 0.930 . S
C88 C83 1.407 . S
C88 C87 1.384 . S
C88 H115 0.929 . S
C89 O102 1.241 . S
C89 O103 1.273 . S
C90 O104 1.251 . S
C90 O105 1.268 . S
C91 Nd81 2.836 . S
C91 C92 1.498 . S
C91 O106 1.258 1_556 S
C91 O107 1.239 . S
C92 C91 1.498 . S
C92 C93 1.366 . S
C92 C97 1.407 . S
C93 C92 1.366 . S
C93 C94 1.392 . S
C93 H116 0.930 1_556 S
C94 C93 1.392 . S
C94 C95 1.398 . S
C94 H117 0.929 1_556 S
C95 C94 1.398 . S
C95 C96 1.352 . S
C96 C95 1.352 . S
C96 C97 1.384 . S
C96 H118 0.930 . S
C97 C92 1.407 . S
C97 C96 1.384 . S
C97 H119 0.929 . S
C98 O108 1.241 . S
C98 O109 1.273 . S
C99 O110 1.251 . S
C99 O111 1.268 1_556 S
O100 Nd80 2.500 1_556 S
O100 C82 1.258 1_556 S
O101 Nd80 2.492 . S
O101 C82 1.239 . S
O102 Nd80 2.487 . S
O102 C89 1.241 . S
O103 Nd80 2.682 . S
O103 Nd81 2.414 1_554 S
O103 C89 1.273 . S
O104 Nd80 2.410 . S
O104 C90 1.251 . S
O105 Nd81 2.424 1_554 S
O105 C90 1.268 . S
O106 Nd81 2.500 1_554 S
O106 C91 1.258 1_554 S
O107 Nd81 2.492 . S
O107 C91 1.239 . S
O108 Nd81 2.487 . S
O108 C98 1.241 . S
O109 Nd80 2.414 1_556 S
O109 Nd81 2.682 . S
O109 C98 1.273 . S
O110 Nd81 2.410 . S
O110 C99 1.251 . S
O111 Nd80 2.424 . S
O111 C99 1.268 1_554 S
H112 C84 0.930 1_556 S
H113 C85 0.929 1_556 S
H114 C87 0.930 . S
H115 C88 0.929 . S
H116 C93 0.930 1_554 S
H117 C94 0.929 1_554 S
H118 C96 0.930 . S
H119 C97 0.929 . S
Nd120 C122 2.836 . S
Nd120 O140 2.500 . S
Nd120 O141 2.492 . S
Nd120 O142 2.487 . S
Nd120 O143 2.682 . S
Nd120 O144 2.410 . S
Nd120 O149 2.414 . S
Nd120 O151 2.424 . S
Nd121 C131 2.836 . S
Nd121 O143 2.414 . S
Nd121 O145 2.424 . S
Nd121 O146 2.500 . S
Nd121 O147 2.492 . S
Nd121 O148 2.487 . S
Nd121 O149 2.682 . S
Nd121 O150 2.410 . S
C122 Nd120 2.836 . S
C122 C123 1.498 . S
C122 O140 1.258 . S
C122 O141 1.239 . S
C123 C122 1.498 . S
C123 C124 1.366 . S
C123 C128 1.407 . S
C124 C123 1.366 . S
C124 C125 1.392 . S
C124 H152 0.930 . S
C125 C124 1.392 . S
C125 C126 1.398 . S
C125 H153 0.929 . S
C126 C125 1.398 . S
C126 C127 1.352 . S
C127 C126 1.352 . S
C127 C128 1.384 . S
C127 H154 0.930 . S
C128 C123 1.407 . S
C128 C127 1.384 . S
C128 H155 0.929 . S
C129 O142 1.241 . S
C129 O143 1.273 . S
C130 O144 1.251 . S
C130 O145 1.268 . S
C131 Nd121 2.836 . S
C131 C132 1.498 . S
C131 O146 1.258 . S
C131 O147 1.239 . S
C132 C131 1.498 . S
C132 C133 1.366 . S
C132 C137 1.407 . S
C133 C132 1.366 . S
C133 C134 1.392 . S
C133 H156 0.930 . S
C134 C133 1.392 . S
C134 C135 1.398 . S
C134 H157 0.929 1_556 S
C135 C134 1.398 . S
C135 C136 1.352 . S
C136 C135 1.352 . S
C136 C137 1.384 . S
C136 H158 0.930 . S
C137 C132 1.407 . S
C137 C136 1.384 . S
C137 H159 0.929 . S
C138 O148 1.241 . S
C138 O149 1.273 . S
C139 O150 1.251 . S
C139 O151 1.268 . S
O140 Nd120 2.500 . S
O140 C122 1.258 . S
O141 Nd120 2.492 . S
O141 C122 1.239 . S
O142 Nd120 2.487 . S
O142 C129 1.241 . S
O143 Nd120 2.682 . S
O143 Nd121 2.414 . S
O143 C129 1.273 . S
O144 Nd120 2.410 . S
O144 C130 1.251 . S
O145 Nd121 2.424 . S
O145 C130 1.268 . S
O146 Nd121 2.500 . S
O146 C131 1.258 . S
O147 Nd121 2.492 . S
O147 C131 1.239 . S
O148 Nd121 2.487 . S
O148 C138 1.241 . S
O149 Nd120 2.414 . S
O149 Nd121 2.682 . S
O149 C138 1.273 . S
O150 Nd121 2.410 . S
O150 C139 1.251 . S
O151 Nd120 2.424 . S
O151 C139 1.268 . S
H152 C124 0.930 . S
H153 C125 0.929 . S
H154 C127 0.930 . S
H155 C128 0.929 . S
H156 C133 0.930 . S
H157 C134 0.929 1_554 S
H158 C136 0.930 . S
H159 C137 0.929 . S
Nd160 C162 2.836 . S
Nd160 O180 2.500 . S
Nd160 O181 2.492 . S
Nd160 O182 2.487 1_554 S
Nd160 O183 2.682 1_554 S
Nd160 O184 2.410 . S
Nd160 O189 2.414 . S
Nd160 O191 2.424 . S
Nd161 C171 2.836 1_554 S
Nd161 O183 2.414 1_554 S
Nd161 O185 2.424 . S
Nd161 O186 2.500 1_554 S
Nd161 O187 2.492 . S
Nd161 O188 2.487 . S
Nd161 O189 2.682 . S
Nd161 O190 2.410 . S
C162 Nd160 2.836 . S
C162 C163 1.498 . S
C162 O180 1.258 . S
C162 O181 1.239 . S
C163 C162 1.498 . S
C163 C164 1.366 . S
C163 C168 1.407 . S
C164 C163 1.366 . S
C164 C165 1.392 . S
C164 H192 0.930 . S
C165 C164 1.392 . S
C165 C166 1.398 . S
C165 H193 0.929 . S
C166 C165 1.398 . S
C166 C167 1.352 . S
C167 C166 1.352 . S
C167 C168 1.384 . S
C167 H194 0.930 . S
C168 C163 1.407 . S
C168 C167 1.384 . S
C168 H195 0.929 . S
C169 O182 1.241 . S
C169 O183 1.273 . S
C170 O184 1.251 . S
C170 O185 1.268 . S
C171 Nd161 2.836 1_556 S
C171 C172 1.498 . S
C171 O186 1.258 . S
C171 O187 1.239 1_556 S
C172 C171 1.498 . S
C172 C173 1.366 . S
C172 C177 1.407 1_556 S
C173 C172 1.366 . S
C173 C174 1.392 . S
C173 H196 0.930 . S
C174 C173 1.392 . S
C174 C175 1.398 . S
C174 H197 0.929 . S
C175 C174 1.398 . S
C175 C176 1.352 . S
C176 C175 1.352 . S
C176 C177 1.384 1_556 S
C176 H198 0.930 1_556 S
C177 C172 1.407 1_554 S
C177 C176 1.384 1_554 S
C177 H199 0.929 . S
C178 O188 1.241 . S
C178 O189 1.273 . S
C179 O190 1.251 . S
C179 O191 1.268 . S
O180 Nd160 2.500 . S
O180 C162 1.258 . S
O181 Nd160 2.492 . S
O181 C162 1.239 . S
O182 Nd160 2.487 1_556 S
O182 C169 1.241 . S
O183 Nd160 2.682 1_556 S
O183 Nd161 2.414 1_556 S
O183 C169 1.273 . S
O184 Nd160 2.410 . S
O184 C170 1.251 . S
O185 Nd161 2.424 . S
O185 C170 1.268 . S
O186 Nd161 2.500 1_556 S
O186 C171 1.258 . S
O187 Nd161 2.492 . S
O187 C171 1.239 1_554 S
O188 Nd161 2.487 . S
O188 C178 1.241 . S
O189 Nd160 2.414 . S
O189 Nd161 2.682 . S
O189 C178 1.273 . S
O190 Nd161 2.410 . S
O190 C179 1.251 . S
O191 Nd160 2.424 . S
O191 C179 1.268 . S
H192 C164 0.930 . S
H193 C165 0.929 . S
H194 C167 0.930 . S
H195 C168 0.929 . S
H196 C173 0.930 . S
H197 C174 0.929 . S
H198 C176 0.930 1_554 S
H199 C177 0.929 . S
Nd200 C202 2.836 . S
Nd200 O220 2.500 . S
Nd200 O221 2.492 . S
Nd200 O222 2.487 . S
Nd200 O223 2.682 . S
Nd200 O224 2.410 . S
Nd200 O229 2.414 . S
Nd200 O231 2.424 . S
Nd201 C211 2.836 . S
Nd201 O223 2.414 . S
Nd201 O225 2.424 . S
Nd201 O226 2.500 . S
Nd201 O227 2.492 . S
Nd201 O228 2.487 . S
Nd201 O229 2.682 . S
Nd201 O230 2.410 . S
C202 Nd200 2.836 . S
C202 C203 1.498 . S
C202 O220 1.258 . S
C202 O221 1.239 . S
C203 C202 1.498 . S
C203 C204 1.366 . S
C203 C208 1.407 . S
C204 C203 1.366 . S
C204 C205 1.392 . S
C204 H232 0.930 . S
C205 C204 1.392 . S
C205 C206 1.398 . S
C205 H233 0.929 . S
C206 C205 1.398 . S
C206 C207 1.352 . S
C207 C206 1.352 . S
C207 C208 1.384 . S
C207 H234 0.930 . S
C208 C203 1.407 . S
C208 C207 1.384 . S
C208 H235 0.929 . S
C209 O222 1.241 . S
C209 O223 1.273 . S
C210 O224 1.251 . S
C210 O225 1.268 . S
C211 Nd201 2.836 . S
C211 C212 1.498 . S
C211 O226 1.258 . S
C211 O227 1.239 . S
C212 C211 1.498 . S
C212 C213 1.366 . S
C212 C217 1.407 . S
C213 C212 1.366 . S
C213 C214 1.392 1_556 S
C213 H236 0.930 1_556 S
C214 C213 1.392 1_554 S
C214 C215 1.398 1_554 S
C214 H237 0.929 . S
C215 C214 1.398 1_556 S
C215 C216 1.352 . S
C216 C215 1.352 . S
C216 C217 1.384 . S
C216 H238 0.930 . S
C217 C212 1.407 . S
C217 C216 1.384 . S
C217 H239 0.929 . S
C218 O228 1.241 . S
C218 O229 1.273 . S
C219 O230 1.251 . S
C219 O231 1.268 . S
O220 Nd200 2.500 . S
O220 C202 1.258 . S
O221 Nd200 2.492 . S
O221 C202 1.239 . S
O222 Nd200 2.487 . S
O222 C209 1.241 . S
O223 Nd200 2.682 . S
O223 Nd201 2.414 . S
O223 C209 1.273 . S
O224 Nd200 2.410 . S
O224 C210 1.251 . S
O225 Nd201 2.424 . S
O225 C210 1.268 . S
O226 Nd201 2.500 . S
O226 C211 1.258 . S
O227 Nd201 2.492 . S
O227 C211 1.239 . S
O228 Nd201 2.487 . S
O228 C218 1.241 . S
O229 Nd200 2.414 . S
O229 Nd201 2.682 . S
O229 C218 1.273 . S
O230 Nd201 2.410 . S
O230 C219 1.251 . S
O231 Nd200 2.424 . S
O231 C219 1.268 . S
H232 C204 0.930 . S
H233 C205 0.929 . S
H234 C207 0.930 . S
H235 C208 0.929 . S
H236 C213 0.930 1_554 S
H237 C214 0.929 . S
H238 C216 0.930 . S
H239 C217 0.929 . S
H240 C258 0.951 . S
H241 C260 0.951 . S
H242 C262 0.950 . S
H243 C263 0.950 . S
H244 C265 0.950 . S
H245 C268 0.950 . S
H246 C269 0.950 . S
H247 C271 0.950 . S
H248 C272 0.950 . S
H249 C273 0.951 . S
H250 C275 0.951 . S
H251 C277 0.950 . S
H252 C278 0.950 . S
H253 C280 0.950 . S
H254 C283 0.950 . S
H255 C284 0.950 . S
H256 C286 0.950 . S
H257 C287 0.950 . S
C258 H240 0.951 . S
C258 C259 1.366 . S
C258 C260 1.388 . S
C259 C258 1.366 . S
C259 C263 1.385 . S
C260 H241 0.951 . S
C260 C258 1.388 . S
C260 C261 1.366 . S
C261 C260 1.366 . S
C261 C262 1.414 . S
C261 C264 1.499 . S
C262 H242 0.950 . S
C262 C261 1.414 . S
C262 C263 1.374 . S
C263 H243 0.950 . S
C263 C259 1.385 . S
C263 C262 1.374 . S
C264 C261 1.499 . S
C264 C265 1.373 . S
C264 C266 1.389 . S
C265 H244 0.950 . S
C265 C264 1.373 . S
C265 C281 1.377 . S
C266 C264 1.389 . S
C266 C267 1.524 . S
C266 C280 1.377 . S
C267 C266 1.524 . S
C267 C268 1.397 . S
C267 C272 1.363 . S
C268 H245 0.950 . S
C268 C267 1.397 . S
C268 C269 1.334 . S
C269 H246 0.950 . S
C269 C268 1.334 . S
C269 C270 1.287 . S
C270 C269 1.287 . S
C270 C271 1.524 . S
C270 H289 0.913 . S
C271 H247 0.950 . S
C271 C270 1.524 . S
C271 C272 1.415 . S
C272 H248 0.950 . S
C272 C267 1.363 . S
C272 C271 1.415 . S
C273 H249 0.951 . S
C273 C274 1.366 . S
C273 C275 1.388 . S
C274 C273 1.366 . S
C274 C278 1.385 . S
C275 H250 0.951 . S
C275 C273 1.388 . S
C275 C276 1.366 . S
C276 C275 1.366 . S
C276 C277 1.414 . S
C276 C279 1.499 . S
C277 H251 0.950 . S
C277 C276 1.414 . S
C277 C278 1.374 . S
C278 H252 0.950 . S
C278 C274 1.385 . S
C278 C277 1.374 . S
C279 C276 1.499 . S
C279 C280 1.373 . S
C279 C281 1.389 . S
C280 H253 0.950 . S
C280 C266 1.377 . S
C280 C279 1.373 . S
C281 C265 1.377 . S
C281 C279 1.389 . S
C281 C282 1.524 . S
C282 C281 1.524 . S
C282 C283 1.397 . S
C282 C287 1.363 . S
C283 H254 0.950 . S
C283 C282 1.397 . S
C283 C284 1.334 . S
C284 H255 0.950 . S
C284 C283 1.334 . S
C284 C285 1.287 . S
C285 C284 1.287 . S
C285 C286 1.524 . S
C285 H288 0.999 . S
C286 H256 0.950 . S
C286 C285 1.524 . S
C286 C287 1.415 . S
C287 H257 0.950 . S
C287 C282 1.363 . S
C287 C286 1.415 . S
H288 C285 0.999 . S
H289 C270 0.913 . S
H290 C308 0.951 . S
H291 C310 0.951 . S
H292 C312 0.950 . S
H293 C313 0.950 . S
H294 C315 0.950 . S
H295 C318 0.950 . S
H296 C319 0.950 . S
H297 C321 0.950 . S
H298 C322 0.950 . S
H299 C323 0.951 . S
H300 C325 0.954 . S
H301 C327 0.950 . S
H302 C328 0.950 . S
H303 C330 0.950 . S
H304 C333 0.950 . S
H305 C334 0.950 . S
H306 C336 0.950 . S
H307 C337 0.950 . S
C308 H290 0.951 . S
C308 C309 1.366 . S
C308 C310 1.388 . S
C309 C308 1.366 . S
C309 C313 1.385 . S
C310 H291 0.951 . S
C310 C308 1.388 . S
C310 C311 1.366 . S
C311 C310 1.366 . S
C311 C312 1.414 . S
C311 C314 1.499 . S
C312 H292 0.950 . S
C312 C311 1.414 . S
C312 C313 1.374 . S
C313 H293 0.950 . S
C313 C309 1.385 . S
C313 C312 1.374 . S
C314 C311 1.499 . S
C314 C315 1.373 . S
C314 C316 1.389 . S
C315 H294 0.950 . S
C315 C314 1.373 . S
C315 C331 1.377 . S
C316 C314 1.389 . S
C316 C317 1.524 . S
C316 C330 1.377 1_455 S
C317 C316 1.524 . S
C317 C318 1.397 . S
C317 C322 1.363 1_455 S
C318 H295 0.950 . S
C318 C317 1.397 . S
C318 C319 1.334 . S
C319 H296 0.950 . S
C319 C318 1.334 . S
C319 C320 1.287 . S
C320 C319 1.287 . S
C320 C321 1.524 1_455 S
C320 H339 0.913 . S
C321 H297 0.950 . S
C321 C320 1.524 1_655 S
C321 C322 1.415 . S
C322 H298 0.950 . S
C322 C317 1.363 1_655 S
C322 C321 1.415 . S
C323 H299 0.951 . S
C323 C324 1.366 . S
C323 C325 1.388 . S
C324 C323 1.366 . S
C324 C328 1.385 . S
C325 H300 0.954 . S
C325 C323 1.388 . S
C325 C326 1.366 . S
C326 C325 1.366 . S
C326 C327 1.414 . S
C326 C329 1.499 . S
C327 H301 0.950 . S
C327 C326 1.414 . S
C327 C328 1.374 . S
C328 H302 0.950 . S
C328 C324 1.385 . S
C328 C327 1.374 . S
C329 C326 1.499 . S
C329 C330 1.373 . S
C329 C331 1.389 1_655 S
C330 H303 0.950 . S
C330 C316 1.377 1_655 S
C330 C329 1.373 . S
C331 C315 1.377 . S
C331 C329 1.389 1_455 S
C331 C332 1.524 . S
C332 C331 1.524 . S
C332 C333 1.397 1_455 S
C332 C337 1.363 . S
C333 H304 0.950 . S
C333 C332 1.397 1_655 S
C333 C334 1.334 . S
C334 H305 0.950 . S
C334 C333 1.334 . S
C334 C335 1.251 1_655 S
C335 C334 1.251 1_455 S
C335 C336 1.552 . S
C335 H338 1.011 . S
C336 H306 0.950 . S
C336 C335 1.552 . S
C336 C337 1.415 . S
C337 H307 0.950 . S
C337 C332 1.363 . S
C337 C336 1.415 . S
H338 C335 1.011 . S
H339 C320 0.913 . S
H340 C358 0.951 . S
H341 C360 0.951 . S
H342 C362 0.950 . S
H343 C363 0.950 . S
H344 C365 0.950 . S
H345 C368 0.950 . S
H346 C369 0.950 . S
H347 C371 0.950 . S
H348 C372 0.950 . S
H349 C373 0.951 . S
H350 C375 0.951 . S
H351 C377 0.950 . S
H352 C378 0.950 1_565 S
H353 C380 0.950 . S
H354 C383 0.950 . S
H355 C384 0.950 . S
H356 C386 0.950 . S
H357 C387 0.950 . S
C358 H340 0.951 . S
C358 C359 1.366 . S
C358 C360 1.388 . S
C359 C358 1.366 . S
C359 C363 1.385 . S
C360 H341 0.951 . S
C360 C358 1.388 . S
C360 C361 1.366 . S
C361 C360 1.366 . S
C361 C362 1.414 . S
C361 C364 1.499 . S
C362 H342 0.950 . S
C362 C361 1.414 . S
C362 C363 1.374 . S
C363 H343 0.950 . S
C363 C359 1.385 . S
C363 C362 1.374 . S
C364 C361 1.499 . S
C364 C365 1.373 . S
C364 C366 1.389 . S
C365 H344 0.950 . S
C365 C364 1.373 . S
C365 C381 1.377 . S
C366 C364 1.389 . S
C366 C367 1.524 . S
C366 C380 1.377 . S
C367 C366 1.524 . S
C367 C368 1.397 . S
C367 C372 1.363 . S
C368 H345 0.950 . S
C368 C367 1.397 . S
C368 C369 1.334 . S
C369 H346 0.950 . S
C369 C368 1.334 . S
C369 C370 1.287 . S
C370 C369 1.287 . S
C370 C371 1.524 . S
C370 H389 0.913 . S
C371 H347 0.950 . S
C371 C370 1.524 . S
C371 C372 1.415 . S
C372 H348 0.950 . S
C372 C367 1.363 . S
C372 C371 1.415 . S
C373 H349 0.951 . S
C373 C374 1.366 . S
C373 C375 1.388 . S
C374 C373 1.366 . S
C374 C378 1.385 . S
C375 H350 0.951 . S
C375 C373 1.388 . S
C375 C376 1.366 . S
C376 C375 1.366 . S
C376 C377 1.414 . S
C376 C379 1.499 . S
C377 H351 0.950 . S
C377 C376 1.414 . S
C377 C378 1.374 . S
C378 H352 0.950 1_545 S
C378 C374 1.385 . S
C378 C377 1.374 . S
C379 C376 1.499 . S
C379 C380 1.373 . S
C379 C381 1.389 . S
C380 H353 0.950 . S
C380 C366 1.377 . S
C380 C379 1.373 . S
C381 C365 1.377 . S
C381 C379 1.389 . S
C381 C382 1.524 . S
C382 C381 1.524 . S
C382 C383 1.397 . S
C382 C387 1.363 . S
C383 H354 0.950 . S
C383 C382 1.397 . S
C383 C384 1.334 . S
C384 H355 0.950 . S
C384 C383 1.334 . S
C384 C385 1.287 . S
C385 C384 1.287 . S
C385 C386 1.524 . S
C385 H388 0.999 . S
C386 H356 0.950 . S
C386 C385 1.524 . S
C386 C387 1.415 . S
C387 H357 0.950 . S
C387 C382 1.363 . S
C387 C386 1.415 . S
H388 C385 0.999 . S
H389 C370 0.913 . S
H390 C408 0.951 . S
H391 C410 0.951 . S
H392 C412 0.950 . S
H393 C413 0.950 . S
H394 C415 0.950 . S
H395 C418 0.950 . S
H396 C419 0.950 . S
H397 C421 0.950 . S
H398 C422 0.950 . S
H399 C423 0.951 . S
H400 C425 0.951 . S
H401 C427 0.950 . S
H402 C428 0.950 . S
H403 C430 0.950 . S
H404 C433 0.950 . S
H405 C434 0.950 . S
H406 C436 0.950 . S
H407 C437 0.950 . S
C408 H390 0.951 . S
C408 C409 1.366 . S
C408 C410 1.388 . S
C409 C408 1.366 . S
C409 C413 1.385 . S
C410 H391 0.951 . S
C410 C408 1.388 . S
C410 C411 1.366 . S
C411 C410 1.366 . S
C411 C412 1.414 . S
C411 C414 1.499 . S
C412 H392 0.950 . S
C412 C411 1.414 . S
C412 C413 1.374 . S
C413 H393 0.950 . S
C413 C409 1.385 . S
C413 C412 1.374 . S
C414 C411 1.499 . S
C414 C415 1.373 . S
C414 C416 1.389 . S
C415 H394 0.950 . S
C415 C414 1.373 . S
C415 C431 1.377 . S
C416 C414 1.389 . S
C416 C417 1.524 . S
C416 C430 1.377 . S
C417 C416 1.524 . S
C417 C418 1.397 . S
C417 C422 1.363 . S
C418 H395 0.950 . S
C418 C417 1.397 . S
C418 C419 1.334 . S
C419 H396 0.950 . S
C419 C418 1.334 . S
C419 C420 1.287 . S
C420 C419 1.287 . S
C420 C421 1.524 . S
C420 H439 0.913 . S
C421 H397 0.950 . S
C421 C420 1.524 . S
C421 C422 1.415 . S
C422 H398 0.950 . S
C422 C417 1.363 . S
C422 C421 1.415 . S
C423 H399 0.951 . S
C423 C424 1.366 . S
C423 C425 1.388 . S
C424 C423 1.366 . S
C424 C428 1.385 . S
C425 H400 0.951 . S
C425 C423 1.388 . S
C425 C426 1.366 . S
C426 C425 1.366 . S
C426 C427 1.414 . S
C426 C429 1.499 . S
C427 H401 0.950 . S
C427 C426 1.414 . S
C427 C428 1.374 . S
C428 H402 0.950 . S
C428 C424 1.385 . S
C428 C427 1.374 . S
C429 C426 1.499 . S
C429 C430 1.373 . S
C429 C431 1.389 . S
C430 H403 0.950 . S
C430 C416 1.377 . S
C430 C429 1.373 . S
C431 C415 1.377 . S
C431 C429 1.389 . S
C431 C432 1.524 . S
C432 C431 1.524 . S
C432 C433 1.397 . S
C432 C437 1.363 . S
C433 H404 0.950 . S
C433 C432 1.397 . S
C433 C434 1.334 . S
C434 H405 0.950 . S
C434 C433 1.334 . S
C434 C435 1.287 . S
C435 C434 1.287 . S
C435 C436 1.524 . S
C435 H438 0.999 . S
C436 H406 0.950 . S
C436 C435 1.524 . S
C436 C437 1.415 . S
C437 H407 0.950 . S
C437 C432 1.363 . S
C437 C436 1.415 . S
H438 C435 0.999 . S
H439 C420 0.913 . S
H440 C458 0.951 . S
H441 C460 0.951 . S
H442 C462 0.950 . S
H443 C463 0.950 . S
H444 C465 0.950 . S
H445 C468 0.950 . S
H446 C469 0.950 . S
H447 C471 0.950 . S
H448 C472 0.950 . S
H449 C473 0.951 . S
H450 C475 0.951 . S
H451 C477 0.950 . S
H452 C478 0.950 . S
H453 C480 0.950 . S
H454 C483 0.950 . S
H455 C484 0.950 . S
H456 C486 0.950 . S
H457 C487 0.950 . S
C458 H440 0.951 . S
C458 C459 1.366 . S
C458 C460 1.388 . S
C459 C458 1.366 . S
C459 C463 1.385 . S
C460 H441 0.951 . S
C460 C458 1.388 . S
C460 C461 1.366 . S
C461 C460 1.366 . S
C461 C462 1.414 . S
C461 C464 1.499 . S
C462 H442 0.950 . S
C462 C461 1.414 . S
C462 C463 1.374 . S
C463 H443 0.950 . S
C463 C459 1.385 . S
C463 C462 1.374 . S
C464 C461 1.499 . S
C464 C465 1.373 . S
C464 C466 1.389 . S
C465 H444 0.950 . S
C465 C464 1.373 . S
C465 C481 1.377 . S
C466 C464 1.389 . S
C466 C467 1.524 . S
C466 C480 1.377 . S
C467 C466 1.524 . S
C467 C468 1.397 . S
C467 C472 1.363 . S
C468 H445 0.950 . S
C468 C467 1.397 . S
C468 C469 1.334 . S
C469 H446 0.950 . S
C469 C468 1.334 . S
C469 C470 1.287 . S
C470 C469 1.287 . S
C470 C471 1.524 . S
C470 H489 0.913 . S
C471 H447 0.950 . S
C471 C470 1.524 . S
C471 C472 1.415 . S
C472 H448 0.950 . S
C472 C467 1.363 . S
C472 C471 1.415 . S
C473 H449 0.951 . S
C473 C474 1.366 . S
C473 C475 1.388 . S
C474 C473 1.366 . S
C474 C478 1.385 . S
C475 H450 0.951 . S
C475 C473 1.388 . S
C475 C476 1.366 . S
C476 C475 1.366 . S
C476 C477 1.414 . S
C476 C479 1.499 1_655 S
C477 H451 0.950 . S
C477 C476 1.414 . S
C477 C478 1.374 . S
C478 H452 0.950 . S
C478 C474 1.385 . S
C478 C477 1.374 . S
C479 C476 1.499 1_455 S
C479 C480 1.373 . S
C479 C481 1.389 . S
C480 H453 0.950 . S
C480 C466 1.377 . S
C480 C479 1.373 . S
C481 C465 1.377 . S
C481 C479 1.389 . S
C481 C482 1.524 . S
C482 C481 1.524 . S
C482 C483 1.397 1_455 S
C482 C487 1.363 . S
C483 H454 0.950 . S
C483 C482 1.397 1_655 S
C483 C484 1.334 . S
C484 H455 0.950 . S
C484 C483 1.334 . S
C484 C485 1.287 . S
C485 C484 1.287 . S
C485 C486 1.524 1_655 S
C485 H488 0.999 . S
C486 H456 0.950 . S
C486 C485 1.524 1_455 S
C486 C487 1.415 . S
C487 H457 0.950 . S
C487 C482 1.363 . S
C487 C486 1.415 . S
H488 C485 0.999 . S
H489 C470 0.913 . S
H490 C508 0.951 . S
H491 C510 0.951 . S
H492 C512 0.950 1_545 S
H493 C513 0.950 . S
H494 C515 0.950 . S
H495 C518 0.950 . S
H496 C519 0.950 . S
H497 C521 0.950 . S
H498 C522 0.950 . S
H499 C523 0.951 . S
H500 C525 0.951 . S
H501 C527 0.950 . S
H502 C528 0.950 . S
H503 C530 0.950 . S
H504 C533 0.950 . S
H505 C534 0.950 . S
H506 C536 0.950 . S
H507 C537 0.950 . S
C508 H490 0.951 . S
C508 C509 1.366 . S
C508 C510 1.388 . S
C509 C508 1.366 . S
C509 C513 1.385 . S
C510 H491 0.951 . S
C510 C508 1.388 . S
C510 C511 1.366 . S
C511 C510 1.366 . S
C511 C512 1.414 . S
C511 C514 1.499 1_565 S
C512 H492 0.950 1_565 S
C512 C511 1.414 . S
C512 C513 1.374 . S
C513 H493 0.950 . S
C513 C509 1.385 . S
C513 C512 1.374 . S
C514 C511 1.499 1_545 S
C514 C515 1.373 . S
C514 C516 1.389 . S
C515 H494 0.950 . S
C515 C514 1.373 . S
C515 C531 1.377 . S
C516 C514 1.389 . S
C516 C517 1.524 . S
C516 C530 1.377 . S
C517 C516 1.524 . S
C517 C518 1.397 . S
C517 C522 1.363 . S
C518 H495 0.950 . S
C518 C517 1.397 . S
C518 C519 1.334 1_545 S
C519 H496 0.950 . S
C519 C518 1.334 1_565 S
C519 C520 1.287 . S
C520 C519 1.287 . S
C520 C521 1.524 . S
C520 H539 0.913 . S
C521 H497 0.950 . S
C521 C520 1.524 . S
C521 C522 1.415 1_565 S
C522 H498 0.950 . S
C522 C517 1.363 . S
C522 C521 1.415 1_545 S
C523 H499 0.951 . S
C523 C524 1.366 . S
C523 C525 1.388 . S
C524 C523 1.366 . S
C524 C528 1.385 . S
C525 H500 0.951 . S
C525 C523 1.388 . S
C525 C526 1.366 . S
C526 C525 1.366 . S
C526 C527 1.414 . S
C526 C529 1.499 . S
C527 H501 0.950 . S
C527 C526 1.414 . S
C527 C528 1.374 . S
C528 H502 0.950 . S
C528 C524 1.385 . S
C528 C527 1.374 . S
C529 C526 1.499 . S
C529 C530 1.373 . S
C529 C531 1.389 . S
C530 H503 0.950 . S
C530 C516 1.377 . S
C530 C529 1.373 . S
C531 C515 1.377 . S
C531 C529 1.389 . S
C531 C532 1.524 . S
C532 C531 1.524 . S
C532 C533 1.397 . S
C532 C537 1.363 . S
C533 H504 0.950 . S
C533 C532 1.397 . S
C533 C534 1.334 . S
C534 H505 0.950 . S
C534 C533 1.334 . S
C534 C535 1.287 . S
C535 C534 1.287 . S
C535 C536 1.524 . S
C535 H538 0.999 . S
C536 H506 0.950 . S
C536 C535 1.524 . S
C536 C537 1.415 . S
C537 H507 0.950 . S
C537 C532 1.363 . S
C537 C536 1.415 . S
H538 C535 0.999 . S
H539 C520 0.913 . S
H540 C558 0.951 . S
H541 C560 0.951 . S
H542 C562 0.950 1_554 S
H543 C563 0.950 1_554 S
H544 C565 0.950 1_554 S
H545 C568 0.950 . S
H546 C569 0.950 . S
H547 C571 0.950 . S
H548 C572 0.950 . S
H549 C573 0.951 . S
H550 C575 0.951 . S
H551 C577 0.950 . S
H552 C578 0.950 . S
H553 C580 0.950 . S
H554 C583 0.950 . S
H555 C584 0.950 . S
H556 C586 0.950 . S
H557 C587 0.950 . S
C558 H540 0.951 . S
C558 C559 1.366 . S
C558 C560 1.388 . S
C559 C558 1.366 . S
C559 C563 1.385 . S
C560 H541 0.951 . S
C560 C558 1.388 . S
C560 C561 1.366 . S
C561 C560 1.366 . S
C561 C562 1.414 . S
C561 C564 1.499 . S
C562 H542 0.950 1_556 S
C562 C561 1.414 . S
C562 C563 1.374 . S
C563 H543 0.950 1_556 S
C563 C559 1.385 . S
C563 C562 1.374 . S
C564 C561 1.499 . S
C564 C565 1.373 . S
C564 C566 1.389 . S
C565 H544 0.950 1_556 S
C565 C564 1.373 . S
C565 C581 1.377 1_556 S
C566 C564 1.389 . S
C566 C567 1.524 . S
C566 C580 1.377 . S
C567 C566 1.524 . S
C567 C568 1.397 . S
C567 C572 1.363 . S
C568 H545 0.950 . S
C568 C567 1.397 . S
C568 C569 1.334 . S
C569 H546 0.950 . S
C569 C568 1.334 . S
C569 C570 1.287 . S
C570 C569 1.287 . S
C570 C571 1.524 . S
C570 H589 0.913 . S
C571 H547 0.950 . S
C571 C570 1.524 . S
C571 C572 1.415 . S
C572 H548 0.950 . S
C572 C567 1.363 . S
C572 C571 1.415 . S
C573 H549 0.951 . S
C573 C574 1.366 1_554 S
C573 C575 1.388 . S
C574 C573 1.366 1_556 S
C574 C578 1.385 . S
C575 H550 0.951 . S
C575 C573 1.388 . S
C575 C576 1.366 1_554 S
C576 C575 1.366 1_556 S
C576 C577 1.414 . S
C576 C579 1.499 . S
C577 H551 0.950 . S
C577 C576 1.414 . S
C577 C578 1.374 . S
C578 H552 0.950 . S
C578 C574 1.385 . S
C578 C577 1.374 . S
C579 C576 1.499 . S
C579 C580 1.373 . S
C579 C581 1.389 1_556 S
C580 H553 0.950 . S
C580 C566 1.377 . S
C580 C579 1.373 . S
C581 C565 1.377 1_554 S
C581 C579 1.389 1_554 S
C581 C582 1.524 . S
C582 C581 1.524 . S
C582 C583 1.397 . S
C582 C587 1.363 . S
C583 H554 0.950 . S
C583 C582 1.397 . S
C583 C584 1.334 . S
C584 H555 0.950 . S
C584 C583 1.334 . S
C584 C585 1.287 . S
C585 C584 1.287 . S
C585 C586 1.524 . S
C585 H588 0.999 . S
C586 H556 0.950 . S
C586 C585 1.524 . S
C586 C587 1.415 . S
C587 H557 0.950 . S
C587 C582 1.363 . S
C587 C586 1.415 . S
H588 C585 0.999 . S
H589 C570 0.913 . S
H590 C608 0.951 1_554 S
H591 C610 0.951 1_554 S
H592 C612 0.950 . S
H593 C613 0.950 . S
H594 C615 0.950 . S
H595 C618 0.950 . S
H596 C619 0.950 . S
H597 C621 0.950 . S
H598 C622 0.950 . S
H599 C623 0.951 . S
H600 C625 0.951 . S
H601 C627 0.950 . S
H602 C628 0.950 . S
H603 C630 0.950 1_554 S
H604 C633 0.950 . S
H605 C634 0.950 . S
H606 C636 0.950 . S
H607 C637 0.950 . S
C608 H590 0.951 1_556 S
C608 C609 1.366 . S
C608 C610 1.388 . S
C609 C608 1.366 . S
C609 C613 1.385 . S
C610 H591 0.951 1_556 S
C610 C608 1.388 . S
C610 C611 1.366 . S
C611 C610 1.366 . S
C611 C612 1.414 . S
C611 C614 1.499 . S
C612 H592 0.950 . S
C612 C611 1.414 . S
C612 C613 1.374 . S
C613 H593 0.950 . S
C613 C609 1.385 . S
C613 C612 1.374 . S
C614 C611 1.499 . S
C614 C615 1.373 . S
C614 C616 1.389 . S
C615 H594 0.950 . S
C615 C614 1.373 . S
C615 C631 1.377 . S
C616 C614 1.389 . S
C616 C617 1.524 . S
C616 C630 1.377 . S
C617 C616 1.524 . S
C617 C618 1.397 . S
C617 C622 1.363 1_556 S
C618 H595 0.950 . S
C618 C617 1.397 . S
C618 C619 1.334 . S
C619 H596 0.950 . S
C619 C618 1.334 . S
C619 C620 1.287 1_556 S
C620 C619 1.287 1_554 S
C620 C621 1.524 . S
C620 H639 0.913 . S
C621 H597 0.950 . S
C621 C620 1.524 . S
C621 C622 1.415 . S
C622 H598 0.950 . S
C622 C617 1.363 1_554 S
C622 C621 1.415 . S
C623 H599 0.951 . S
C623 C624 1.366 . S
C623 C625 1.388 . S
C624 C623 1.366 . S
C624 C628 1.385 1_556 S
C625 H600 0.951 . S
C625 C623 1.388 . S
C625 C626 1.366 . S
C626 C625 1.366 . S
C626 C627 1.414 1_556 S
C626 C629 1.499 . S
C627 H601 0.950 . S
C627 C626 1.414 1_554 S
C627 C628 1.374 . S
C628 H602 0.950 . S
C628 C624 1.385 1_554 S
C628 C627 1.374 . S
C629 C626 1.499 . S
C629 C630 1.373 . S
C629 C631 1.389 . S
C630 H603 0.950 1_556 S
C630 C616 1.377 . S
C630 C629 1.373 . S
C631 C615 1.377 . S
C631 C629 1.389 . S
C631 C632 1.524 . S
C632 C631 1.524 . S
C632 C633 1.397 . S
C632 C637 1.363 . S
C633 H604 0.950 . S
C633 C632 1.397 . S
C633 C634 1.334 . S
C634 H605 0.950 . S
C634 C633 1.334 . S
C634 C635 1.287 . S
C635 C634 1.287 . S
C635 C636 1.524 . S
C635 H638 0.999 . S
C636 H606 0.950 . S
C636 C635 1.524 . S
C636 C637 1.415 . S
C637 H607 0.950 . S
C637 C632 1.363 . S
C637 C636 1.415 . S
H638 C635 0.999 . S
H639 C620 0.913 . S
H640 C658 0.951 . S
H641 C660 0.951 . S
H642 C662 0.950 . S
H643 C663 0.950 . S
H644 C665 0.950 . S
H645 C668 0.950 . S
H646 C669 0.950 . S
H647 C671 0.950 . S
H648 C672 0.950 . S
H649 C673 0.951 . S
H650 C675 0.951 . S
H651 C677 0.950 . S
H652 C678 0.950 . S
H653 C680 0.950 . S
H654 C683 0.950 . S
H655 C684 0.950 . S
H656 C686 0.950 . S
H657 C687 0.950 . S
C658 H640 0.951 . S
C658 C659 1.366 . S
C658 C660 1.388 . S
C659 C658 1.366 . S
C659 C663 1.385 . S
C660 H641 0.951 . S
C660 C658 1.388 . S
C660 C661 1.366 . S
C661 C660 1.366 . S
C661 C662 1.414 . S
C661 C664 1.499 . S
C662 H642 0.950 . S
C662 C661 1.414 . S
C662 C663 1.374 . S
C663 H643 0.950 . S
C663 C659 1.385 . S
C663 C662 1.374 . S
C664 C661 1.499 . S
C664 C665 1.373 . S
C664 C666 1.389 . S
C665 H644 0.950 . S
C665 C664 1.373 . S
C665 C681 1.377 . S
C666 C664 1.389 . S
C666 C667 1.524 . S
C666 C680 1.377 . S
C667 C666 1.524 . S
C667 C668 1.397 . S
C667 C672 1.363 . S
C668 H645 0.950 . S
C668 C667 1.397 . S
C668 C669 1.334 . S
C669 H646 0.950 . S
C669 C668 1.334 . S
C669 C670 1.287 . S
C670 C669 1.287 . S
C670 C671 1.524 . S
C670 H689 0.913 . S
C671 H647 0.950 . S
C671 C670 1.524 . S
C671 C672 1.415 . S
C672 H648 0.950 . S
C672 C667 1.363 . S
C672 C671 1.415 . S
C673 H649 0.951 . S
C673 C674 1.366 . S
C673 C675 1.388 . S
C674 C673 1.366 . S
C674 C678 1.385 . S
C675 H650 0.951 . S
C675 C673 1.388 . S
C675 C676 1.366 . S
C676 C675 1.366 . S
C676 C677 1.414 . S
C676 C679 1.499 . S
C677 H651 0.950 . S
C677 C676 1.414 . S
C677 C678 1.374 . S
C678 H652 0.950 . S
C678 C674 1.385 . S
C678 C677 1.374 . S
C679 C676 1.499 . S
C679 C680 1.373 . S
C679 C681 1.389 . S
C680 H653 0.950 . S
C680 C666 1.377 . S
C680 C679 1.373 . S
C681 C665 1.377 . S
C681 C679 1.389 . S
C681 C682 1.524 . S
C682 C681 1.524 . S
C682 C683 1.397 1_556 S
C682 C687 1.363 . S
C683 H654 0.950 . S
C683 C682 1.397 1_554 S
C683 C684 1.334 . S
C684 H655 0.950 . S
C684 C683 1.334 . S
C684 C685 1.287 . S
C685 C684 1.287 . S
C685 C686 1.524 1_554 S
C685 H688 0.999 . S
C686 H656 0.950 . S
C686 C685 1.524 1_556 S
C686 C687 1.415 . S
C687 H657 0.950 . S
C687 C682 1.363 . S
C687 C686 1.415 . S
H688 C685 0.999 . S
H689 C670 0.913 . S
H690 C708 0.951 . S
H691 C710 0.951 . S
H692 C712 0.950 . S
H693 C713 0.950 . S
H694 C715 0.950 . S
H695 C718 0.950 . S
H696 C719 0.950 . S
H697 C721 0.950 . S
H698 C722 0.950 . S
H699 C723 0.951 . S
H700 C725 0.951 . S
H701 C727 0.950 . S
H702 C728 0.950 . S
H703 C730 0.950 . S
H704 C733 0.950 . S
H705 C734 0.950 . S
H706 C736 0.950 . S
H707 C737 0.950 1_556 S
C708 H690 0.951 . S
C708 C709 1.366 . S
C708 C710 1.388 . S
C709 C708 1.366 . S
C709 C713 1.385 . S
C710 H691 0.951 . S
C710 C708 1.388 . S
C710 C711 1.366 . S
C711 C710 1.366 . S
C711 C712 1.414 . S
C711 C714 1.499 . S
C712 H692 0.950 . S
C712 C711 1.414 . S
C712 C713 1.374 . S
C713 H693 0.950 . S
C713 C709 1.385 . S
C713 C712 1.374 . S
C714 C711 1.499 . S
C714 C715 1.373 . S
C714 C716 1.389 . S
C715 H694 0.950 . S
C715 C714 1.373 . S
C715 C731 1.377 . S
C716 C714 1.389 . S
C716 C717 1.524 . S
C716 C730 1.377 . S
C717 C716 1.524 . S
C717 C718 1.397 . S
C717 C722 1.363 . S
C718 H695 0.950 . S
C718 C717 1.397 . S
C718 C719 1.334 . S
C719 H696 0.950 . S
C719 C718 1.334 . S
C719 C720 1.287 . S
C720 C719 1.287 . S
C720 C721 1.524 . S
C720 H739 0.913 . S
C721 H697 0.950 . S
C721 C720 1.524 . S
C721 C722 1.415 . S
C722 H698 0.950 . S
C722 C717 1.363 . S
C722 C721 1.415 . S
C723 H699 0.951 . S
C723 C724 1.366 . S
C723 C725 1.388 . S
C724 C723 1.366 . S
C724 C728 1.385 . S
C725 H700 0.951 . S
C725 C723 1.388 . S
C725 C726 1.366 . S
C726 C725 1.366 . S
C726 C727 1.414 . S
C726 C729 1.499 . S
C727 H701 0.950 . S
C727 C726 1.414 . S
C727 C728 1.374 . S
C728 H702 0.950 . S
C728 C724 1.385 . S
C728 C727 1.374 . S
C729 C726 1.499 . S
C729 C730 1.373 . S
C729 C731 1.389 . S
C730 H703 0.950 . S
C730 C716 1.377 . S
C730 C729 1.373 . S
C731 C715 1.377 . S
C731 C729 1.389 . S
C731 C732 1.524 1_556 S
C732 C731 1.524 1_554 S
C732 C733 1.397 . S
C732 C737 1.363 . S
C733 H704 0.950 . S
C733 C732 1.397 . S
C733 C734 1.334 . S
C734 H705 0.950 . S
C734 C733 1.334 . S
C734 C735 1.287 . S
C735 C734 1.287 . S
C735 C736 1.524 . S
C735 H738 0.999 . S
C736 H706 0.950 . S
C736 C735 1.524 . S
C736 C737 1.415 . S
C737 H707 0.950 1_554 S
C737 C732 1.363 . S
C737 C736 1.415 . S
H738 C735 0.999 . S
H739 C720 0.913 . S
H740 C758 0.951 . S
H741 C760 0.951 . S
H742 C762 0.951 1_554 S
H743 C763 0.950 1_554 S
H744 C765 0.950 . S
H745 C768 0.950 . S
H746 C769 0.950 . S
H747 C771 0.950 . S
H748 C772 0.950 . S
H749 C773 0.951 . S
H750 C775 0.951 . S
H751 C777 0.950 . S
H752 C778 0.950 . S
H753 C780 0.950 . S
H754 C783 0.950 . S
H755 C784 0.950 . S
H756 C786 0.950 . S
H757 C787 0.950 . S
C758 H740 0.951 . S
C758 C759 1.366 . S
C758 C760 1.388 . S
C759 C758 1.366 . S
C759 C763 1.384 . S
C760 H741 0.951 . S
C760 C758 1.388 . S
C760 C761 1.366 . S
C761 C760 1.366 . S
C761 C762 1.414 . S
C761 C764 1.499 . S
C762 H742 0.951 1_556 S
C762 C761 1.414 . S
C762 C763 1.374 . S
C763 H743 0.950 1_556 S
C763 C759 1.384 . S
C763 C762 1.374 . S
C764 C761 1.499 . S
C764 C765 1.373 . S
C764 C766 1.389 1_556 S
C765 H744 0.950 . S
C765 C764 1.373 . S
C765 C781 1.377 . S
C766 C764 1.389 1_554 S
C766 C767 1.524 . S
C766 C780 1.377 . S
C767 C766 1.524 . S
C767 C768 1.397 . S
C767 C772 1.363 . S
C768 H745 0.950 . S
C768 C767 1.397 . S
C768 C769 1.334 . S
C769 H746 0.950 . S
C769 C768 1.334 . S
C769 C770 1.287 . S
C770 C769 1.287 . S
C770 C771 1.524 . S
C770 H789 0.913 . S
C771 H747 0.950 . S
C771 C770 1.524 . S
C771 C772 1.415 . S
C772 H748 0.950 . S
C772 C767 1.363 . S
C772 C771 1.415 . S
C773 H749 0.951 . S
C773 C774 1.366 . S
C773 C775 1.388 . S
C774 C773 1.366 . S
C774 C778 1.385 . S
C775 H750 0.951 . S
C775 C773 1.388 . S
C775 C776 1.366 . S
C776 C775 1.366 . S
C776 C777 1.414 . S
C776 C779 1.499 . S
C777 H751 0.950 . S
C777 C776 1.414 . S
C777 C778 1.374 . S
C778 H752 0.950 . S
C778 C774 1.385 . S
C778 C777 1.374 . S
C779 C776 1.499 . S
C779 C780 1.373 1_556 S
C779 C781 1.389 . S
C780 H753 0.950 . S
C780 C766 1.377 . S
C780 C779 1.373 1_554 S
C781 C765 1.377 . S
C781 C779 1.389 . S
C781 C782 1.524 . S
C782 C781 1.524 . S
C782 C783 1.397 . S
C782 C787 1.363 . S
C783 H754 0.950 . S
C783 C782 1.397 . S
C783 C784 1.334 . S
C784 H755 0.950 . S
C784 C783 1.334 . S
C784 C785 1.287 . S
C785 C784 1.287 . S
C785 C786 1.524 . S
C785 H788 0.999 . S
C786 H756 0.950 . S
C786 C785 1.524 . S
C786 C787 1.415 . S
C787 H757 0.950 . S
C787 C782 1.363 . S
C787 C786 1.415 . S
H788 C785 0.999 . S
H789 C770 0.913 . S
H790 C808 0.951 . S
H791 C810 0.951 . S
H792 C812 0.950 . S
H793 C813 0.950 . S
H794 C815 0.950 . S
H795 C818 0.950 1_554 S
H796 C819 0.950 . S
H797 C821 0.950 . S
H798 C822 0.950 . S
H799 C823 0.951 . S
H800 C825 0.951 1_554 S
H801 C827 0.950 . S
H802 C828 0.950 . S
H803 C830 0.950 . S
H804 C833 0.950 . S
H805 C834 0.950 . S
H806 C836 0.950 . S
H807 C837 0.950 . S
C808 H790 0.951 . S
C808 C809 1.366 . S
C808 C810 1.388 . S
C809 C808 1.366 . S
C809 C813 1.385 . S
C810 H791 0.951 . S
C810 C808 1.388 . S
C810 C811 1.366 . S
C811 C810 1.366 . S
C811 C812 1.414 . S
C811 C814 1.499 . S
C812 H792 0.950 . S
C812 C811 1.414 . S
C812 C813 1.374 . S
C813 H793 0.950 . S
C813 C809 1.385 . S
C813 C812 1.374 . S
C814 C811 1.499 . S
C814 C815 1.373 . S
C814 C816 1.389 . S
C815 H794 0.950 . S
C815 C814 1.373 . S
C815 C831 1.377 . S
C816 C814 1.389 . S
C816 C817 1.524 . S
C816 C830 1.377 . S
C817 C816 1.524 . S
C817 C818 1.397 . S
C817 C822 1.363 . S
C818 H795 0.950 1_556 S
C818 C817 1.397 . S
C818 C819 1.334 1_556 S
C819 H796 0.950 . S
C819 C818 1.334 1_554 S
C819 C820 1.287 1_554 S
C820 C819 1.287 1_556 S
C820 C821 1.524 . S
C820 H839 0.913 . S
C821 H797 0.950 . S
C821 C820 1.524 . S
C821 C822 1.415 . S
C822 H798 0.950 . S
C822 C817 1.363 . S
C822 C821 1.415 . S
C823 H799 0.951 . S
C823 C824 1.366 1_554 S
C823 C825 1.388 1_554 S
C824 C823 1.366 1_556 S
C824 C828 1.385 . S
C825 H800 0.951 1_556 S
C825 C823 1.388 1_556 S
C825 C826 1.366 . S
C826 C825 1.366 . S
C826 C827 1.414 . S
C826 C829 1.499 . S
C827 H801 0.950 . S
C827 C826 1.414 . S
C827 C828 1.374 . S
C828 H802 0.950 . S
C828 C824 1.385 . S
C828 C827 1.374 . S
C829 C826 1.499 . S
C829 C830 1.373 . S
C829 C831 1.389 . S
C830 H803 0.950 . S
C830 C816 1.377 . S
C830 C829 1.373 . S
C831 C815 1.377 . S
C831 C829 1.389 . S
C831 C832 1.524 . S
C832 C831 1.524 . S
C832 C833 1.397 . S
C832 C837 1.363 . S
C833 H804 0.950 . S
C833 C832 1.397 . S
C833 C834 1.334 . S
C834 H805 0.950 . S
C834 C833 1.334 . S
C834 C835 1.287 . S
C835 C834 1.287 . S
C835 C836 1.524 . S
C835 H838 0.999 . S
C836 H806 0.950 . S
C836 C835 1.524 . S
C836 C837 1.415 . S
C837 H807 0.950 . S
C837 C832 1.363 . S
C837 C836 1.415 . S
H838 C835 0.999 . S
H839 C820 0.913 . S
H840 C858 0.951 . S
H841 C860 0.951 . S
H842 C862 0.950 . S
H843 C863 0.950 . S
H844 C865 0.950 . S
H845 C868 0.950 . S
H846 C869 0.950 . S
H847 C871 0.950 . S
H848 C872 0.950 . S
H849 C873 0.951 . S
H850 C875 0.951 . S
H851 C877 0.950 . S
H852 C878 0.950 . S
H853 C880 0.950 . S
H854 C883 0.950 . S
H855 C884 0.950 . S
H856 C886 0.950 . S
H857 C887 0.950 . S
C858 H840 0.951 . S
C858 C859 1.366 . S
C858 C860 1.388 . S
C859 C858 1.366 . S
C859 C863 1.385 . S
C860 H841 0.951 . S
C860 C858 1.388 . S
C860 C861 1.366 . S
C861 C860 1.366 . S
C861 C862 1.414 . S
C861 C864 1.499 . S
C862 H842 0.950 . S
C862 C861 1.414 . S
C862 C863 1.374 . S
C863 H843 0.950 . S
C863 C859 1.385 . S
C863 C862 1.374 . S
C864 C861 1.499 . S
C864 C865 1.373 . S
C864 C866 1.389 . S
C865 H844 0.950 . S
C865 C864 1.373 . S
C865 C881 1.377 . S
C866 C864 1.389 . S
C866 C867 1.524 . S
C866 C880 1.377 . S
C867 C866 1.524 . S
C867 C868 1.397 . S
C867 C872 1.363 . S
C868 H845 0.950 . S
C868 C867 1.397 . S
C868 C869 1.334 . S
C869 H846 0.950 . S
C869 C868 1.334 . S
C869 C870 1.287 . S
C870 C869 1.287 . S
C870 C871 1.524 . S
C870 H889 0.913 . S
C871 H847 0.950 . S
C871 C870 1.524 . S
C871 C872 1.415 . S
C872 H848 0.950 . S
C872 C867 1.363 . S
C872 C871 1.415 . S
C873 H849 0.951 . S
C873 C874 1.366 . S
C873 C875 1.388 . S
C874 C873 1.366 . S
C874 C878 1.385 . S
C875 H850 0.951 . S
C875 C873 1.388 . S
C875 C876 1.366 . S
C876 C875 1.366 . S
C876 C877 1.414 . S
C876 C879 1.499 . S
C877 H851 0.950 . S
C877 C876 1.414 . S
C877 C878 1.374 . S
C878 H852 0.950 . S
C878 C874 1.385 . S
C878 C877 1.374 . S
C879 C876 1.499 . S
C879 C880 1.373 . S
C879 C881 1.389 . S
C880 H853 0.950 . S
C880 C866 1.377 . S
C880 C879 1.373 . S
C881 C865 1.377 . S
C881 C879 1.389 . S
C881 C882 1.524 . S
C882 C881 1.524 . S
C882 C883 1.397 . S
C882 C887 1.363 . S
C883 H854 0.950 . S
C883 C882 1.397 . S
C883 C884 1.334 . S
C884 H855 0.950 . S
C884 C883 1.334 . S
C884 C885 1.287 . S
C885 C884 1.287 . S
C885 C886 1.524 . S
C885 H888 0.999 . S
C886 H856 0.950 . S
C886 C885 1.524 . S
C886 C887 1.415 . S
C887 H857 0.950 . S
C887 C882 1.363 . S
C887 C886 1.415 . S
H888 C885 0.999 . S
H889 C870 0.913 . S
H890 C908 0.951 . S
H891 C910 0.951 . S
H892 C912 0.950 . S
H893 C913 0.950 . S
H894 C915 0.950 . S
H895 C918 0.950 . S
H896 C919 0.950 . S
H897 C921 0.950 . S
H898 C922 0.950 . S
H899 C923 0.951 . S
H900 C925 0.951 . S
H901 C927 0.950 . S
H902 C928 0.950 . S
H903 C930 0.950 . S
H904 C933 0.950 . S
H905 C934 0.950 . S
H906 C936 0.950 . S
H907 C937 0.950 . S
C908 H890 0.951 . S
C908 C909 1.366 . S
C908 C910 1.388 . S
C909 C908 1.366 . S
C909 C913 1.385 . S
C910 H891 0.951 . S
C910 C908 1.388 . S
C910 C911 1.366 . S
C911 C910 1.366 . S
C911 C912 1.414 . S
C911 C914 1.499 . S
C912 H892 0.950 . S
C912 C911 1.414 . S
C912 C913 1.374 . S
C913 H893 0.950 . S
C913 C909 1.385 . S
C913 C912 1.374 . S
C914 C911 1.499 . S
C914 C915 1.373 . S
C914 C916 1.389 . S
C915 H894 0.950 . S
C915 C914 1.373 . S
C915 C931 1.377 . S
C916 C914 1.389 . S
C916 C917 1.524 . S
C916 C930 1.377 . S
C917 C916 1.524 . S
C917 C918 1.397 . S
C917 C922 1.363 . S
C918 H895 0.950 . S
C918 C917 1.397 . S
C918 C919 1.334 . S
C919 H896 0.950 . S
C919 C918 1.334 . S
C919 C920 1.287 . S
C920 C919 1.287 . S
C920 C921 1.524 . S
C920 H939 0.913 . S
C921 H897 0.950 . S
C921 C920 1.524 . S
C921 C922 1.415 . S
C922 H898 0.950 . S
C922 C917 1.363 . S
C922 C921 1.415 . S
C923 H899 0.951 . S
C923 C924 1.366 . S
C923 C925 1.388 . S
C924 C923 1.366 . S
C924 C928 1.385 . S
C925 H900 0.951 . S
C925 C923 1.388 . S
C925 C926 1.366 . S
C926 C925 1.366 . S
C926 C927 1.414 . S
C926 C929 1.499 . S
C927 H901 0.950 . S
C927 C926 1.414 . S
C927 C928 1.374 . S
C928 H902 0.950 . S
C928 C924 1.385 . S
C928 C927 1.374 . S
C929 C926 1.499 . S
C929 C930 1.373 . S
C929 C931 1.389 . S
C930 H903 0.950 . S
C930 C916 1.377 . S
C930 C929 1.373 . S
C931 C915 1.377 . S
C931 C929 1.389 . S
C931 C932 1.524 . S
C932 C931 1.524 . S
C932 C933 1.397 . S
C932 C937 1.363 . S
C933 H904 0.950 . S
C933 C932 1.397 . S
C933 C934 1.334 . S
C934 H905 0.950 . S
C934 C933 1.334 . S
C934 C935 1.287 . S
C935 C934 1.287 . S
C935 C936 1.524 . S
C935 H938 0.999 . S
C936 H906 0.950 . S
C936 C935 1.524 . S
C936 C937 1.415 . S
C937 H907 0.950 . S
C937 C932 1.363 . S
C937 C936 1.415 . S
H938 C935 0.999 . S
H939 C920 0.913 . S
H940 C958 0.951 . S
H941 C960 0.951 . S
H942 C962 0.950 . S
H943 C963 0.950 . S
H944 C965 0.950 . S
H945 C968 0.950 . S
H946 C969 0.950 . S
H947 C971 0.950 . S
H948 C972 0.950 . S
H949 C973 0.951 . S
H950 C975 0.951 . S
H951 C977 0.950 . S
H952 C978 0.950 . S
H953 C980 0.950 . S
H954 C983 0.950 . S
H955 C984 0.950 . S
H956 C986 0.950 . S
H957 C987 0.950 . S
C958 H940 0.951 . S
C958 C959 1.366 . S
C958 C960 1.388 . S
C959 C958 1.366 . S
C959 C963 1.385 . S
C960 H941 0.951 . S
C960 C958 1.388 . S
C960 C961 1.366 . S
C961 C960 1.366 . S
C961 C962 1.414 . S
C961 C964 1.499 . S
C962 H942 0.950 . S
C962 C961 1.414 . S
C962 C963 1.374 . S
C963 H943 0.950 . S
C963 C959 1.385 . S
C963 C962 1.374 . S
C964 C961 1.499 . S
C964 C965 1.373 . S
C964 C966 1.389 . S
C965 H944 0.950 . S
C965 C964 1.373 . S
C965 C981 1.377 . S
C966 C964 1.389 . S
C966 C967 1.524 . S
C966 C980 1.377 . S
C967 C966 1.524 . S
C967 C968 1.397 . S
C967 C972 1.363 . S
C968 H945 0.950 . S
C968 C967 1.397 . S
C968 C969 1.334 . S
C969 H946 0.950 . S
C969 C968 1.334 . S
C969 C970 1.287 . S
C970 C969 1.287 . S
C970 C971 1.524 . S
C970 H989 0.913 . S
C971 H947 0.950 . S
C971 C970 1.524 . S
C971 C972 1.415 . S
C972 H948 0.950 . S
C972 C967 1.363 . S
C972 C971 1.415 . S
C973 H949 0.951 . S
C973 C974 1.366 . S
C973 C975 1.388 . S
C974 C973 1.366 . S
C974 C978 1.385 . S
C975 H950 0.951 . S
C975 C973 1.388 . S
C975 C976 1.366 . S
C976 C975 1.366 . S
C976 C977 1.414 . S
C976 C979 1.499 . S
C977 H951 0.950 . S
C977 C976 1.414 . S
C977 C978 1.374 . S
C978 H952 0.950 . S
C978 C974 1.385 . S
C978 C977 1.374 . S
C979 C976 1.499 . S
C979 C980 1.373 . S
C979 C981 1.389 . S
C980 H953 0.950 . S
C980 C966 1.377 . S
C980 C979 1.373 . S
C981 C965 1.377 . S
C981 C979 1.389 . S
C981 C982 1.524 . S
C982 C981 1.524 . S
C982 C983 1.397 . S
C982 C987 1.363 . S
C983 H954 0.950 . S
C983 C982 1.397 . S
C983 C984 1.334 . S
C984 H955 0.950 . S
C984 C983 1.334 . S
C984 C985 1.287 . S
C985 C984 1.287 . S
C985 C986 1.524 . S
C985 H988 0.999 . S
C986 H956 0.950 . S
C986 C985 1.524 . S
C986 C987 1.415 . S
C987 H957 0.950 . S
C987 C982 1.363 . S
C987 C986 1.415 . S
H988 C985 0.999 . S
H989 C970 0.913 . S
H990 C1008 0.951 . S
H991 C1010 0.951 . S
H992 C1012 0.950 . S
H993 C1013 0.950 . S
H994 C1015 0.950 . S
H995 C1018 0.950 . S
H996 C1019 0.950 . S
H997 C1021 0.950 . S
H998 C1022 0.950 . S
H999 C1023 0.951 1_556 S
H1000 C1025 0.951 . S
H1001 C1027 0.950 . S
H1002 C1028 0.950 1_556 S
H1003 C1030 0.950 . S
H1004 C1033 0.950 . S
H1005 C1034 0.950 . S
H1006 C1036 0.950 . S
H1007 C1037 0.950 . S
C1008 H990 0.951 . S
C1008 C1009 1.366 . S
C1008 C1010 1.388 . S
C1009 C1008 1.366 . S
C1009 C1013 1.385 . S
C1010 H991 0.951 . S
C1010 C1008 1.388 . S
C1010 C1011 1.366 . S
C1011 C1010 1.366 . S
C1011 C1012 1.414 . S
C1011 C1014 1.499 . S
C1012 H992 0.950 . S
C1012 C1011 1.414 . S
C1012 C1013 1.374 . S
C1013 H993 0.950 . S
C1013 C1009 1.385 . S
C1013 C1012 1.374 . S
C1014 C1011 1.499 . S
C1014 C1015 1.373 . S
C1014 C1016 1.389 . S
C1015 H994 0.950 . S
C1015 C1014 1.373 . S
C1015 C1031 1.377 . S
C1016 C1014 1.389 . S
C1016 C1017 1.524 . S
C1016 C1030 1.377 . S
C1017 C1016 1.524 . S
C1017 C1018 1.397 . S
C1017 C1022 1.363 . S
C1018 H995 0.950 . S
C1018 C1017 1.397 . S
C1018 C1019 1.334 . S
C1019 H996 0.950 . S
C1019 C1018 1.334 . S
C1019 C1020 1.287 . S
C1020 C1019 1.287 . S
C1020 C1021 1.524 . S
C1020 H1039 0.913 . S
C1021 H997 0.950 . S
C1021 C1020 1.524 . S
C1021 C1022 1.415 . S
C1022 H998 0.950 . S
C1022 C1017 1.363 . S
C1022 C1021 1.415 . S
C1023 H999 0.951 1_554 S
C1023 C1024 1.366 1_554 S
C1023 C1025 1.388 . S
C1024 C1023 1.366 1_556 S
C1024 C1028 1.385 1_556 S
C1025 H1000 0.951 . S
C1025 C1023 1.388 . S
C1025 C1026 1.366 . S
C1026 C1025 1.366 . S
C1026 C1027 1.414 . S
C1026 C1029 1.499 . S
C1027 H1001 0.950 . S
C1027 C1026 1.414 . S
C1027 C1028 1.374 . S
C1028 H1002 0.950 1_554 S
C1028 C1024 1.385 1_554 S
C1028 C1027 1.374 . S
C1029 C1026 1.499 . S
C1029 C1030 1.373 . S
C1029 C1031 1.389 . S
C1030 H1003 0.950 . S
C1030 C1016 1.377 . S
C1030 C1029 1.373 . S
C1031 C1015 1.377 . S
C1031 C1029 1.389 . S
C1031 C1032 1.524 . S
C1032 C1031 1.524 . S
C1032 C1033 1.397 . S
C1032 C1037 1.363 . S
C1033 H1004 0.950 . S
C1033 C1032 1.397 . S
C1033 C1034 1.334 . S
C1034 H1005 0.950 . S
C1034 C1033 1.334 . S
C1034 C1035 1.287 . S
C1035 C1034 1.287 . S
C1035 C1036 1.524 . S
C1035 H1038 0.999 . S
C1036 H1006 0.950 . S
C1036 C1035 1.524 . S
C1036 C1037 1.415 . S
C1037 H1007 0.950 . S
C1037 C1032 1.363 . S
C1037 C1036 1.415 . S
H1038 C1035 0.999 . S
H1039 C1020 0.913 . S
H1040 C1058 0.951 . S
H1041 C1060 0.951 . S
H1042 C1062 0.950 . S
H1043 C1063 0.950 . S
H1044 C1065 0.950 . S
H1045 C1068 0.950 . S
H1046 C1069 0.950 . S
H1047 C1071 0.950 . S
H1048 C1072 0.950 . S
H1049 C1073 0.951 . S
H1050 C1075 0.951 . S
H1051 C1077 0.950 . S
H1052 C1078 0.950 . S
H1053 C1080 0.950 . S
H1054 C1083 0.950 . S
H1055 C1084 0.950 . S
H1056 C1086 0.950 . S
H1057 C1087 0.950 . S
C1058 H1040 0.951 . S
C1058 C1059 1.366 . S
C1058 C1060 1.388 . S
C1059 C1058 1.366 . S
C1059 C1063 1.385 . S
C1060 H1041 0.951 . S
C1060 C1058 1.388 . S
C1060 C1061 1.366 . S
C1061 C1060 1.366 . S
C1061 C1062 1.414 . S
C1061 C1064 1.499 . S
C1062 H1042 0.950 . S
C1062 C1061 1.414 . S
C1062 C1063 1.374 . S
C1063 H1043 0.950 . S
C1063 C1059 1.385 . S
C1063 C1062 1.374 . S
C1064 C1061 1.499 . S
C1064 C1065 1.373 . S
C1064 C1066 1.389 . S
C1065 H1044 0.950 . S
C1065 C1064 1.373 . S
C1065 C1081 1.377 . S
C1066 C1064 1.389 . S
C1066 C1067 1.524 . S
C1066 C1080 1.377 . S
C1067 C1066 1.524 . S
C1067 C1068 1.397 . S
C1067 C1072 1.363 . S
C1068 H1045 0.950 . S
C1068 C1067 1.397 . S
C1068 C1069 1.334 . S
C1069 H1046 0.950 . S
C1069 C1068 1.334 . S
C1069 C1070 1.287 . S
C1070 C1069 1.287 . S
C1070 C1071 1.524 . S
C1070 H1089 0.913 . S
C1071 H1047 0.950 . S
C1071 C1070 1.524 . S
C1071 C1072 1.415 . S
C1072 H1048 0.950 . S
C1072 C1067 1.363 . S
C1072 C1071 1.415 . S
C1073 H1049 0.951 . S
C1073 C1074 1.366 . S
C1073 C1075 1.388 . S
C1074 C1073 1.366 . S
C1074 C1078 1.385 . S
C1075 H1050 0.951 . S
C1075 C1073 1.388 . S
C1075 C1076 1.366 . S
C1076 C1075 1.366 . S
C1076 C1077 1.414 . S
C1076 C1079 1.499 . S
C1077 H1051 0.950 . S
C1077 C1076 1.414 . S
C1077 C1078 1.374 . S
C1078 H1052 0.950 . S
C1078 C1074 1.385 . S
C1078 C1077 1.374 . S
C1079 C1076 1.499 . S
C1079 C1080 1.373 . S
C1079 C1081 1.389 . S
C1080 H1053 0.950 . S
C1080 C1066 1.377 . S
C1080 C1079 1.373 . S
C1081 C1065 1.377 . S
C1081 C1079 1.389 . S
C1081 C1082 1.524 . S
C1082 C1081 1.524 . S
C1082 C1083 1.397 . S
C1082 C1087 1.363 . S
C1083 H1054 0.950 . S
C1083 C1082 1.397 . S
C1083 C1084 1.334 . S
C1084 H1055 0.950 . S
C1084 C1083 1.334 . S
C1084 C1085 1.287 . S
C1085 C1084 1.287 . S
C1085 C1086 1.524 . S
C1085 H1088 0.999 . S
C1086 H1056 0.950 . S
C1086 C1085 1.524 . S
C1086 C1087 1.415 . S
C1087 H1057 0.950 . S
C1087 C1082 1.363 . S
C1087 C1086 1.415 . S
H1088 C1085 0.999 . S
H1089 C1070 0.913 . S
H1090 C1108 0.951 . S
H1091 C1110 0.951 . S
H1092 C1112 0.950 . S
H1093 C1113 0.950 . S
H1094 C1115 0.950 . S
H1095 C1118 0.950 . S
H1096 C1119 0.950 . S
H1097 C1121 0.950 . S
H1098 C1122 0.950 . S
H1099 C1123 0.951 . S
H1100 C1125 0.951 . S
H1101 C1127 0.950 . S
H1102 C1128 0.950 1_556 S
H1103 C1130 0.950 . S
H1104 C1133 0.950 . S
H1105 C1134 0.950 . S
H1106 C1136 0.950 . S
H1107 C1137 0.950 . S
C1108 H1090 0.951 . S
C1108 C1109 1.366 . S
C1108 C1110 1.388 . S
C1109 C1108 1.366 . S
C1109 C1113 1.385 . S
C1110 H1091 0.951 . S
C1110 C1108 1.388 . S
C1110 C1111 1.366 . S
C1111 C1110 1.366 . S
C1111 C1112 1.414 . S
C1111 C1114 1.499 . S
C1112 H1092 0.950 . S
C1112 C1111 1.414 . S
C1112 C1113 1.374 . S
C1113 H1093 0.950 . S
C1113 C1109 1.385 . S
C1113 C1112 1.374 . S
C1114 C1111 1.499 . S
C1114 C1115 1.373 . S
C1114 C1116 1.389 . S
C1115 H1094 0.950 . S
C1115 C1114 1.373 . S
C1115 C1131 1.377 . S
C1116 C1114 1.389 . S
C1116 C1117 1.524 . S
C1116 C1130 1.377 . S
C1117 C1116 1.524 . S
C1117 C1118 1.397 . S
C1117 C1122 1.363 . S
C1118 H1095 0.950 . S
C1118 C1117 1.397 . S
C1118 C1119 1.334 . S
C1119 H1096 0.950 . S
C1119 C1118 1.334 . S
C1119 C1120 1.287 . S
C1120 C1119 1.287 . S
C1120 C1121 1.524 . S
C1120 H1139 0.913 . S
C1121 H1097 0.950 . S
C1121 C1120 1.524 . S
C1121 C1122 1.415 . S
C1122 H1098 0.950 . S
C1122 C1117 1.363 . S
C1122 C1121 1.415 . S
C1123 H1099 0.951 . S
C1123 C1124 1.366 1_554 S
C1123 C1125 1.388 . S
C1124 C1123 1.366 1_556 S
C1124 C1128 1.385 1_556 S
C1125 H1100 0.951 . S
C1125 C1123 1.388 . S
C1125 C1126 1.366 . S
C1126 C1125 1.366 . S
C1126 C1127 1.414 . S
C1126 C1129 1.499 . S
C1127 H1101 0.950 . S
C1127 C1126 1.414 . S
C1127 C1128 1.374 . S
C1128 H1102 0.950 1_554 S
C1128 C1124 1.385 1_554 S
C1128 C1127 1.374 . S
C1129 C1126 1.499 . S
C1129 C1130 1.373 . S
C1129 C1131 1.389 . S
C1130 H1103 0.950 . S
C1130 C1116 1.377 . S
C1130 C1129 1.373 . S
C1131 C1115 1.377 . S
C1131 C1129 1.389 . S
C1131 C1132 1.524 . S
C1132 C1131 1.524 . S
C1132 C1133 1.397 . S
C1132 C1137 1.363 . S
C1133 H1104 0.950 . S
C1133 C1132 1.397 . S
C1133 C1134 1.334 . S
C1134 H1105 0.950 . S
C1134 C1133 1.334 . S
C1134 C1135 1.287 . S
C1135 C1134 1.287 . S
C1135 C1136 1.524 . S
C1135 H1138 0.999 . S
C1136 H1106 0.950 . S
C1136 C1135 1.524 . S
C1136 C1137 1.415 . S
C1137 H1107 0.950 . S
C1137 C1132 1.363 . S
C1137 C1136 1.415 . S
H1138 C1135 0.999 . S
H1139 C1120 0.913 . S
C259 C210 2.369 . S
C274 C10 2.271 . S
C309 C6 1.987 . S
C324 C46 2.126 . S
C359 C50 3.498 . S
C374 C86 3.258 1_545 S
C409 C126 2.417 . S
C424 C90 2.520 . S
C459 C170 4.223 . S
C474 C130 4.125 . S
C509 C166 2.642 . S
C524 C206 2.583 . S
C559 C175 2.313 . S
C574 C19 2.336 . S
C609 C219 1.375 . S
C624 C55 1.367 . S
C659 C95 0.990 . S
C674 C15 0.993 . S
C709 C135 2.252 . S
C724 C59 2.187 . S
C759 C179 3.908 1_556 S
C774 C99 3.984 . S
C809 C139 3.207 . S
C824 C215 3.176 . S
C859 C9 0.332 . S
C874 C18 0.332 . S
C909 C58 0.287 . S
C924 C49 0.287 . S
C959 C98 0.499 . S
C974 C89 0.499 . S
C1009 C138 0.313 . S
C1024 C129 0.313 . S
C1059 C178 0.342 . S
C1074 C169 0.342 . S
C1109 C218 0.354 . S
C1124 C209 0.354 . S
