# Generated by pormake.
# Topology swi, (7)-cn, num edge types: 1
# Building blocks:
#     Node 0, Type 0, BuildingBlock: HICVOG_clean_sbu_0, # of connection points: 7
#     Node 1, Type 0, BuildingBlock: HICVOG_clean_sbu_0, # of connection points: 7
#     Node 2, Type 0, BuildingBlock: HICVOG_clean_sbu_0, # of connection points: 7
#     Node 3, Type 0, BuildingBlock: HICVOG_clean_sbu_0, # of connection points: 7
#     Node 4, Type 0, BuildingBlock: HICVOG_clean_sbu_0, # of connection points: 7
#     Node 5, Type 0, BuildingBlock: HICVOG_clean_sbu_0, # of connection points: 7
#     Node 6, Type 0, BuildingBlock: HICVOG_clean_sbu_0, # of connection points: 7
#     Node 7, Type 0, BuildingBlock: HICVOG_clean_sbu_0, # of connection points: 7
#     Node 8, Type 0, BuildingBlock: HICVOG_clean_sbu_0, # of connection points: 7
#     Node 9, Type 0, BuildingBlock: HICVOG_clean_sbu_0, # of connection points: 7
#     Node 10, Type 0, BuildingBlock: HICVOG_clean_sbu_0, # of connection points: 7
#     Node 11, Type 0, BuildingBlock: HICVOG_clean_sbu_0, # of connection points: 7
#     Edge 12, Type (0, 0), BuildingBlock: UVAHIK_clean_linker_0, # of connection points: 2
#     Edge 13, Type (0, 0), BuildingBlock: UVAHIK_clean_linker_0, # of connection points: 2
#     Edge 14, Type (0, 0), BuildingBlock: UVAHIK_clean_linker_0, # of connection points: 2
#     Edge 15, Type (0, 0), BuildingBlock: UVAHIK_clean_linker_0, # of connection points: 2
#     Edge 16, Type (0, 0), BuildingBlock: UVAHIK_clean_linker_0, # of connection points: 2
#     Edge 17, Type (0, 0), BuildingBlock: UVAHIK_clean_linker_0, # of connection points: 2
#     Edge 18, Type (0, 0), BuildingBlock: UVAHIK_clean_linker_0, # of connection points: 2
#     Edge 19, Type (0, 0), BuildingBlock: UVAHIK_clean_linker_0, # of connection points: 2
#     Edge 20, Type (0, 0), BuildingBlock: UVAHIK_clean_linker_0, # of connection points: 2
#     Edge 21, Type (0, 0), BuildingBlock: UVAHIK_clean_linker_0, # of connection points: 2
#     Edge 22, Type (0, 0), BuildingBlock: UVAHIK_clean_linker_0, # of connection points: 2
#     Edge 23, Type (0, 0), BuildingBlock: UVAHIK_clean_linker_0, # of connection points: 2
#     Edge 24, Type (0, 0), BuildingBlock: UVAHIK_clean_linker_0, # of connection points: 2
#     Edge 25, Type (0, 0), BuildingBlock: UVAHIK_clean_linker_0, # of connection points: 2
#     Edge 26, Type (0, 0), BuildingBlock: UVAHIK_clean_linker_0, # of connection points: 2
#     Edge 27, Type (0, 0), BuildingBlock: UVAHIK_clean_linker_0, # of connection points: 2
#     Edge 28, Type (0, 0), BuildingBlock: UVAHIK_clean_linker_0, # of connection points: 2
#     Edge 29, Type (0, 0), BuildingBlock: UVAHIK_clean_linker_0, # of connection points: 2
#     Edge 30, Type (0, 0), BuildingBlock: UVAHIK_clean_linker_0, # of connection points: 2
#     Edge 31, Type (0, 0), BuildingBlock: UVAHIK_clean_linker_0, # of connection points: 2
#     Edge 32, Type (0, 0), BuildingBlock: UVAHIK_clean_linker_0, # of connection points: 2
#     Edge 33, Type (0, 0), BuildingBlock: UVAHIK_clean_linker_0, # of connection points: 2
#     Edge 34, Type (0, 0), BuildingBlock: UVAHIK_clean_linker_0, # of connection points: 2
#     Edge 35, Type (0, 0), BuildingBlock: UVAHIK_clean_linker_0, # of connection points: 2
#     Edge 36, Type (0, 0), BuildingBlock: UVAHIK_clean_linker_0, # of connection points: 2
#     Edge 37, Type (0, 0), BuildingBlock: UVAHIK_clean_linker_0, # of connection points: 2
#     Edge 38, Type (0, 0), BuildingBlock: UVAHIK_clean_linker_0, # of connection points: 2
#     Edge 39, Type (0, 0), BuildingBlock: UVAHIK_clean_linker_0, # of connection points: 2
#     Edge 40, Type (0, 0), BuildingBlock: UVAHIK_clean_linker_0, # of connection points: 2
#     Edge 41, Type (0, 0), BuildingBlock: UVAHIK_clean_linker_0, # of connection points: 2
#     Edge 42, Type (0, 0), BuildingBlock: UVAHIK_clean_linker_0, # of connection points: 2
#     Edge 43, Type (0, 0), BuildingBlock: UVAHIK_clean_linker_0, # of connection points: 2
#     Edge 44, Type (0, 0), BuildingBlock: UVAHIK_clean_linker_0, # of connection points: 2
#     Edge 45, Type (0, 0), BuildingBlock: UVAHIK_clean_linker_0, # of connection points: 2
#     Edge 46, Type (0, 0), BuildingBlock: UVAHIK_clean_linker_0, # of connection points: 2
#     Edge 47, Type (0, 0), BuildingBlock: UVAHIK_clean_linker_0, # of connection points: 2
#     Edge 48, Type (0, 0), BuildingBlock: UVAHIK_clean_linker_0, # of connection points: 2
#     Edge 49, Type (0, 0), BuildingBlock: UVAHIK_clean_linker_0, # of connection points: 2
#     Edge 50, Type (0, 0), BuildingBlock: UVAHIK_clean_linker_0, # of connection points: 2
#     Edge 51, Type (0, 0), BuildingBlock: UVAHIK_clean_linker_0, # of connection points: 2
#     Edge 52, Type (0, 0), BuildingBlock: UVAHIK_clean_linker_0, # of connection points: 2
#     Edge 53, Type (0, 0), BuildingBlock: UVAHIK_clean_linker_0, # of connection points: 2
# Relax obj value: 0.312
# Max RMSD: 0.250
# Mean RMSD: 0.250
data_MOF--net-swi--node1-HICVOG_clean_sbu_0--edge1-UVAHIK_clean_linker_0
_symmetry_space_group_name_H-M    P1
_symmetry_Int_Tables_number       1
_symmetry_cell_setting            triclinic
loop_
_symmetry_equiv_pos_as_xyz
'x, y, z'
_cell_length_a     51.191865
_cell_length_b     51.14372
_cell_length_c     47.982388
_cell_angle_alpha  90.031777
_cell_angle_beta   89.995609
_cell_angle_gamma 120.04396
loop_
_atom_site_label
_atom_site_type_symbol
_atom_site_fract_x
_atom_site_fract_y
_atom_site_fract_z
_atom_type_partial_charge
Zn0 Zn 0.43612 0.13185 0.97787 0.0
C1 C 0.48431 0.13844 0.04775 0.0
N2 N 0.48992 0.11885 0.03426 0.0
C3 C 0.47301 0.1126 1.01113 0.0
N4 N 0.45832 0.12853 1.00993 0.0
N5 N 0.46513 0.14418 0.03353 0.0
C6 C 0.47743 0.22852 0.06981 0.0
O7 O 0.44989 0.22356 0.06599 0.0
O8 O 0.40313 0.08959 0.96857 0.0
Zn9 Zn 0.44934 0.16728 0.05135 0.0
N10 N 0.46331 0.15016 0.94608 0.0
C11 C 0.51352 0.17315 0.9287 0.0
C12 C 0.49299 0.15973 0.95034 0.0
C13 C 0.45349 0.15487 0.92107 0.0
N14 N 0.5038 0.17753 0.90381 0.0
C15 C 0.47437 0.16914 0.89917 0.0
O16 O 0.42226 0.17525 0.02721 0.0
C17 C 0.41118 0.17183 1.00289 0.0
O18 O 0.41586 0.15706 0.98406 0.0
H19 H 0.50081 0.15736 0.97052 0.0
H20 H 0.42984 0.1476 0.91839 0.0
C21 C 0.43137 0.16108 0.10938 0.0
C22 C 0.41594 0.14507 0.13353 0.0
C23 C 0.39396 0.09955 0.10712 0.0
C24 C 0.40944 0.11556 0.08343 0.0
N25 N 0.4277 0.14597 0.08492 0.0
N26 N 0.39752 0.11459 0.13143 0.0
H27 H 0.44582 0.18527 0.10983 0.0
C28 C 0.38375 0.07688 0.98783 0.0
O29 O 0.38665 0.09214 1.01078 0.0
O30 O 0.48322 0.20768 0.06415 0.0
H31 H 0.40705 0.10387 0.064 0.0
H32 H 0.53715 0.18051 0.93177 0.0
H33 H 0.37925 0.07532 0.10623 0.0
Zn34 Zn 0.28306 0.45003 0.04641 0.0
C35 C 0.36048 0.4719 1.00548 0.0
N36 N 0.37177 0.48914 0.02836 0.0
C37 C 0.34693 0.48399 0.04219 0.0
N38 N 0.32162 0.46485 0.02839 0.0
N39 N 0.32986 0.45737 1.00481 0.0
C40 C 0.30505 0.38131 0.98361 0.0
O41 O 0.29274 0.3843 1.00654 0.0
O42 O 0.27677 0.48454 0.05761 0.0
Zn43 Zn 0.30386 0.43473 0.97311 0.0
N44 N 0.2832 0.4298 0.08076 0.0
C45 C 0.29807 0.39862 0.10467 0.0
C46 C 0.29613 0.41222 0.08019 0.0
C47 C 0.27197 0.43427 0.10496 0.0
N48 N 0.28695 0.4031 0.12877 0.0
C49 C 0.27371 0.42049 0.12978 0.0
O50 O 0.25857 0.41514 0.97966 0.0
C51 C 0.23953 0.41066 0.99881 0.0
O52 O 0.24765 0.42205 0.02298 0.0
H53 H 0.30522 0.40915 0.06091 0.0
H54 H 0.26253 0.44899 0.10501 0.0
C55 C 0.29828 0.45144 0.91599 0.0
C56 C 0.30558 0.4719 0.8936 0.0
C57 C 0.34218 0.51106 0.92227 0.0
C58 C 0.33449 0.49096 0.94437 0.0
N59 N 0.31323 0.46144 0.94081 0.0
N60 N 0.32764 0.50112 0.89759 0.0
H61 H 0.2811 0.42794 0.91381 0.0
C62 C 0.25006 0.47867 0.06298 0.0
O63 O 0.2277 0.4508 0.06013 0.0
O64 O 0.31203 0.40083 0.96439 0.0
H65 H 0.34524 0.49905 0.9643 0.0
H66 H 0.30847 0.3847 0.10456 0.0
H67 H 0.35931 0.53452 0.9248 0.0
Zn68 Zn 0.86947 0.30524 0.97536 0.0
C69 C 0.85669 0.34465 0.04387 0.0
N70 N 0.87555 0.37039 0.03069 0.0
C71 C 0.88458 0.36079 1.00857 0.0
N72 N 0.8709 0.33017 1.00754 0.0
N73 N 0.85422 0.32043 0.03051 0.0
C74 C 0.77113 0.24574 0.06601 0.0
O75 O 0.77637 0.22352 0.06101 0.0
O76 O 0.91202 0.31501 0.9669 0.0
Zn77 Zn 0.83269 0.28126 0.04839 0.0
N78 N 0.8518 0.31362 0.94258 0.0
C79 C 0.83081 0.34152 0.92237 0.0
C80 C 0.84343 0.33489 0.94503 0.0
C81 C 0.84673 0.29764 0.91835 0.0
N82 N 0.82611 0.32596 0.89825 0.0
C83 C 0.83335 0.30385 0.89539 0.0
O84 O 0.82613 0.24704 0.02388 0.0
C85 C 0.83026 0.23992 0.9996 0.0
O86 O 0.84495 0.25969 0.98103 0.0
H87 H 0.84613 0.34644 0.96452 0.0
H88 H 0.85312 0.28047 0.91703 0.0
C89 C 0.83933 0.27012 0.10657 0.0
C90 C 0.8551 0.26871 0.13007 0.0
C91 C 0.9 0.28994 0.10298 0.0
C92 C 0.88421 0.29113 0.0798 0.0
N93 N 0.85418 0.28096 0.08189 0.0
N94 N 0.88512 0.27862 0.12738 0.0
H95 H 0.81539 0.26194 0.10772 0.0
C96 C 0.9244 0.3069 0.9853 0.0
O97 O 0.9088 0.29277 1.00757 0.0
O98 O 0.79181 0.27274 0.06147 0.0
H99 H 0.89569 0.29986 0.06019 0.0
H100 H 0.8244 0.35866 0.92402 0.0
H101 H 0.92388 0.29775 0.10155 0.0
Zn102 Zn 0.5559 0.8332 0.05002 0.0
C103 C 0.52614 0.88321 1.01019 0.0
N104 N 0.50558 0.87178 0.03072 0.0
C105 C 0.51178 0.85208 0.04317 0.0
N106 N 0.53531 0.85165 0.03111 0.0
N107 N 0.54374 0.87028 1.00942 0.0
C108 C 0.62121 0.92548 0.9874 0.0
O109 O 0.62042 0.91001 1.00955 0.0
O110 O 0.52637 0.7917 0.06449 0.0
Zn111 Zn 0.56803 0.87017 0.97752 0.0
N112 N 0.57643 0.85644 0.08321 0.0
C113 C 0.60769 0.9036 0.10546 0.0
C114 C 0.59331 0.88699 0.08162 0.0
C115 C 0.57309 0.84179 0.10788 0.0
N116 N 0.60435 0.88901 0.13002 0.0
C117 C 0.58724 0.85839 0.13218 0.0
O118 O 0.58966 0.84628 0.98293 0.0
C119 C 0.59563 0.8322 1.00144 0.0
O120 O 0.58474 0.82801 0.02588 0.0
H121 H 0.59549 0.89828 0.06199 0.0
H122 H 0.55988 0.81746 0.10839 0.0
C123 C 0.55382 0.84785 0.92042 0.0
C124 C 0.53472 0.83479 0.8971 0.0
C125 C 0.494 0.83199 0.92331 0.0
C126 C 0.51278 0.84434 0.94633 0.0
N127 N 0.54245 0.85267 0.94444 0.0
N128 N 0.50534 0.82756 0.89939 0.0
H129 H 0.5774 0.85424 0.91952 0.0
C130 C 0.53303 0.77107 0.06756 0.0
O131 O 0.56006 0.77638 0.06052 0.0
O132 O 0.60026 0.91295 0.96944 0.0
H133 H 0.50353 0.84688 0.96561 0.0
H134 H 0.62134 0.92795 0.1045 0.0
H135 H 0.47044 0.82561 0.92452 0.0
Zn136 Zn 0.69428 0.5646 0.97485 0.0
C137 C 0.64966 0.51417 0.0425 0.0
N138 N 0.62521 0.50856 0.02766 0.0
C139 C 0.63706 0.52681 1.00549 0.0
N140 N 0.66763 0.54214 1.00601 0.0
N141 N 0.67526 0.53464 0.02987 0.0
C142 C 0.71873 0.49543 0.04634 0.0
O143 O 0.71582 0.49692 0.01927 0.0
O144 O 0.68585 0.59795 0.96496 0.0
Zn145 Zn 0.71348 0.54966 0.0489 0.0
N146 N 0.68665 0.53761 0.94305 0.0
C147 C 0.6615 0.48701 0.92629 0.0
C148 C 0.66792 0.50765 0.94773 0.0
C149 C 0.70056 0.54767 0.91779 0.0
N150 N 0.67491 0.49696 0.90115 0.0
C151 C 0.69463 0.5267 0.89607 0.0
O152 O 0.74984 0.57693 0.02621 0.0
C153 C 0.75803 0.58857 1.00212 0.0
O154 O 0.73909 0.58445 0.983 0.0
H155 H 0.65826 0.49972 0.96809 0.0
H156 H 0.71593 0.57156 0.91475 0.0
C157 C 0.72495 0.56665 0.10698 0.0
C158 C 0.72265 0.58017 0.13181 0.0
C159 C 0.69695 0.60058 0.1066 0.0
C160 C 0.69923 0.58708 0.08219 0.0
N161 N 0.71306 0.57034 0.08282 0.0
N162 N 0.70851 0.59672 0.13071 0.0
H163 H 0.73527 0.55266 0.10693 0.0
C164 C 0.69205 0.61715 0.98433 0.0
O165 O 0.70315 0.61364 1.00782 0.0
O166 O 0.71827 0.51515 0.06202 0.0
H167 H 0.68967 0.58952 0.06294 0.0
H168 H 0.6463 0.46316 0.9297 0.0
H169 H 0.68584 0.61385 0.10647 0.0
Zn170 Zn 0.16174 0.71723 0.04916 0.0
C171 C 0.10696 0.64102 1.00584 0.0
N172 N 0.11336 0.62906 0.02791 0.0
C173 C 0.13261 0.65343 0.04265 0.0
N174 N 0.13775 0.67912 0.03017 0.0
N175 N 0.12256 0.67165 1.00633 0.0
C176 C 0.07276 0.69668 0.98566 0.0
O177 O 0.08744 0.70742 1.00919 0.0
O178 O 0.20088 0.72058 0.06 0.0
Zn179 Zn 0.12726 0.69888 0.97549 0.0
N180 N 0.14174 0.71752 0.08355 0.0
C181 C 0.09606 0.70461 0.10717 0.0
C182 C 0.11133 0.70534 0.08291 0.0
C183 C 0.15767 0.72911 0.10762 0.0
N184 N 0.11183 0.71614 0.13112 0.0
C185 C 0.14238 0.72857 0.13233 0.0
O186 O 0.15312 0.74382 0.98362 0.0
C187 C 0.16821 0.76255 1.00283 0.0
O188 O 0.17136 0.75399 0.02683 0.0
H189 H 0.09908 0.6961 0.0637 0.0
H190 H 0.18179 0.73807 0.10742 0.0
C191 C 0.15005 0.70628 0.91867 0.0
C192 C 0.1645 0.70074 0.89622 0.0
C193 C 0.16972 0.6654 0.92439 0.0
C194 C 0.15611 0.67149 0.94661 0.0
N195 N 0.14583 0.69116 0.94325 0.0
N196 N 0.17357 0.68007 0.89987 0.0
H197 H 0.14225 0.72233 0.91672 0.0
C198 C 0.22071 0.72664 0.04143 0.0
O199 O 0.21511 0.73104 1.01566 0.0
O200 O 0.08574 0.69098 0.96596 0.0
H201 H 0.15413 0.66087 0.96652 0.0
H202 H 0.07181 0.69491 0.10701 0.0
H203 H 0.17762 0.64946 0.92672 0.0
Zn204 Zn 0.83373 0.55308 0.48338 0.0
C205 C 0.88575 0.52534 0.5225 0.0
N206 N 0.8768 0.50696 0.50017 0.0
C207 C 0.85783 0.51382 0.48724 0.0
N208 N 0.85516 0.53526 0.50096 0.0
N209 N 0.87193 0.5421 0.52384 0.0
C210 C 0.92451 0.61793 0.54741 0.0
O211 O 0.90931 0.61595 0.52468 0.0
O212 O 0.79223 0.52082 0.47152 0.0
Zn213 Zn 0.86987 0.56463 0.55638 0.0
N214 N 0.85453 0.57304 0.44903 0.0
C215 C 0.90067 0.60341 0.42494 0.0
C216 C 0.88509 0.59009 0.44949 0.0
C217 C 0.83881 0.56881 0.42485 0.0
N218 N 0.88505 0.59914 0.40087 0.0
C219 C 0.85437 0.58226 0.39993 0.0
O220 O 0.84606 0.58621 0.55067 0.0
C221 C 0.83239 0.59254 0.53204 0.0
O222 O 0.82849 0.58196 0.50748 0.0
H223 H 0.89724 0.59298 0.46875 0.0
H224 H 0.81458 0.55453 0.42491 0.0
C225 C 0.8459 0.54736 0.61301 0.0
C226 C 0.83177 0.52667 0.63511 0.0
C227 C 0.82925 0.48755 0.6064 0.0
C228 C 0.84266 0.50788 0.58462 0.0
N229 N 0.85133 0.53748 0.58832 0.0
N230 N 0.82416 0.49735 0.63093 0.0
H231 H 0.8526 0.57095 0.61532 0.0
C232 C 0.77169 0.52739 0.46737 0.0
O233 O 0.77742 0.55506 0.4722 0.0
O234 O 0.91209 0.59738 0.56577 0.0
H235 H 0.84573 0.49989 0.5648 0.0
H236 H 0.92503 0.61693 0.42496 0.0
H237 H 0.82254 0.464 0.60374 0.0
Zn238 Zn 0.30153 0.8711 0.55628 0.0
C239 C 0.33857 0.85209 0.4905 0.0
N240 N 0.3647 0.87126 0.503 0.0
C241 C 0.35612 0.88322 0.52355 0.0
N242 N 0.32569 0.87102 0.52434 0.0
N243 N 0.31511 0.85261 0.50255 0.0
C244 C 0.23779 0.77247 0.46532 0.0
O245 O 0.21584 0.77763 0.47184 0.0
O246 O 0.31316 0.91415 0.5645 0.0
Zn247 Zn 0.2762 0.83428 0.48376 0.0
N248 N 0.30893 0.85269 0.58902 0.0
C249 C 0.33461 0.82921 0.60899 0.0
C250 C 0.3287 0.84244 0.58634 0.0
C251 C 0.29349 0.8487 0.61338 0.0
N252 N 0.31965 0.82564 0.63327 0.0
C253 C 0.29886 0.83463 0.63627 0.0
O254 O 0.24221 0.82898 0.50795 0.0
C255 C 0.23576 0.83352 0.53237 0.0
O256 O 0.25597 0.84777 0.55073 0.0
H257 H 0.33955 0.84405 0.56669 0.0
H258 H 0.27732 0.85639 0.61485 0.0
C259 C 0.26706 0.84291 0.42604 0.0
C260 C 0.26961 0.85954 0.40175 0.0
C261 C 0.29538 0.9048 0.42833 0.0
C262 C 0.2931 0.88815 0.45215 0.0
N263 N 0.27886 0.85756 0.45062 0.0
N264 N 0.28367 0.8902 0.40386 0.0
H265 H 0.25554 0.81857 0.42556 0.0
C266 C 0.30583 0.92694 0.54587 0.0
O267 O 0.29162 0.91145 0.52355 0.0
O268 O 0.26497 0.79306 0.46918 0.0
H269 H 0.30267 0.89946 0.47167 0.0
H270 H 0.35062 0.82136 0.60716 0.0
H271 H 0.30654 0.92918 0.42925 0.0
Zn272 Zn 0.45041 0.28506 0.48552 0.0
C273 C 0.47534 0.36284 0.52741 0.0
N274 N 0.49206 0.37394 0.50422 0.0
C275 C 0.48565 0.34894 0.48989 0.0
N276 N 0.46626 0.32375 0.5037 0.0
N277 N 0.46005 0.3322 0.52781 0.0
C278 C 0.386 0.30985 0.54887 0.0
O279 O 0.38887 0.29656 0.52658 0.0
O280 O 0.48422 0.27835 0.47314 0.0
Zn281 Zn 0.43744 0.30652 0.55956 0.0
N282 N 0.4293 0.28504 0.45168 0.0
C283 C 0.39517 0.29688 0.4291 0.0
C284 C 0.41023 0.29621 0.45306 0.0
C285 C 0.43406 0.27459 0.42713 0.0
N286 N 0.39972 0.28624 0.40472 0.0
C287 C 0.4187 0.27487 0.40283 0.0
O288 O 0.41643 0.26123 0.55266 0.0
C289 C 0.41145 0.24204 0.5335 0.0
O290 O 0.42273 0.24993 0.50928 0.0
H291 H 0.40695 0.30473 0.47258 0.0
H292 H 0.45004 0.26672 0.42651 0.0
C293 C 0.45432 0.30053 0.61659 0.0
C294 C 0.47523 0.30643 0.63832 0.0
C295 C 0.51492 0.33963 0.60816 0.0
C296 C 0.49434 0.33316 0.5867 0.0
N297 N 0.4644 0.31444 0.59136 0.0
N298 N 0.50495 0.32619 0.63328 0.0
H299 H 0.43045 0.28512 0.61959 0.0
C300 C 0.47831 0.25173 0.46717 0.0
O301 O 0.45065 0.22917 0.47055 0.0
O302 O 0.40499 0.31666 0.56853 0.0
H303 H 0.5023 0.34269 0.56631 0.0
H304 H 0.37996 0.30579 0.42986 0.0
H305 H 0.53876 0.35484 0.60477 0.0
Zn306 Zn 0.13166 0.43547 0.55422 0.0
C307 C 0.13507 0.48498 0.48647 0.0
N308 N 0.11529 0.48927 0.50117 0.0
C309 C 0.11012 0.47161 0.52359 0.0
N310 N 0.12685 0.45779 0.52324 0.0
N311 N 0.14199 0.46591 0.49939 0.0
C312 C 0.22579 0.50435 0.48343 0.0
O313 O 0.22143 0.50079 0.51047 0.0
O314 O 0.08982 0.40211 0.56438 0.0
Zn315 Zn 0.16575 0.45174 0.48023 0.0
N316 N 0.15075 0.4627 0.58582 0.0
C317 C 0.17569 0.51332 0.60247 0.0
C318 C 0.16149 0.49257 0.58111 0.0
C319 C 0.15494 0.45283 0.61101 0.0
N320 N 0.17959 0.50357 0.62754 0.0
C321 C 0.16997 0.47391 0.63264 0.0
O322 O 0.17563 0.42514 0.50291 0.0
C323 C 0.17269 0.41315 0.52675 0.0
O324 O 0.15754 0.41631 0.54621 0.0
H325 H 0.1594 0.50034 0.56079 0.0
H326 H 0.1467 0.429 0.61404 0.0
C327 C 0.15988 0.43444 0.4224 0.0
C328 C 0.14395 0.42065 0.39772 0.0
C329 C 0.098 0.39969 0.42326 0.0
C330 C 0.11391 0.41347 0.44754 0.0
N331 N 0.14446 0.43062 0.44665 0.0
N332 N 0.11329 0.40369 0.39904 0.0
H333 H 0.18416 0.44877 0.42226 0.0
C334 C 0.07591 0.38336 0.54489 0.0
O335 O 0.08991 0.38672 0.52107 0.0
O336 O 0.20505 0.48652 0.46703 0.0
H337 H 0.10203 0.41095 0.46688 0.0
H338 H 0.184 0.53711 0.59905 0.0
H339 H 0.07365 0.3861 0.42358 0.0
Zn340 Zn 0.71611 0.16768 0.48249 0.0
C341 C 0.63846 0.11243 0.52369 0.0
N342 N 0.62737 0.11943 0.50132 0.0
C343 C 0.65223 0.13901 0.48744 0.0
N344 N 0.67743 0.14397 0.50073 0.0
N345 N 0.66912 0.12806 0.52421 0.0
C346 C 0.69764 0.07876 0.54546 0.0
O347 O 0.71229 0.09545 0.52386 0.0
O348 O 0.72031 0.20627 0.46786 0.0
Zn349 Zn 0.69557 0.13171 0.55576 0.0
N350 N 0.7182 0.14627 0.44976 0.0
C351 C 0.71093 0.10067 0.42949 0.0
C352 C 0.70871 0.11639 0.45225 0.0
C353 C 0.72938 0.16108 0.42511 0.0
N354 N 0.72244 0.11545 0.40508 0.0
C355 C 0.73168 0.14532 0.40199 0.0
O356 O 0.74086 0.15886 0.5493 0.0
C357 C 0.75993 0.17504 0.53072 0.0
O358 O 0.75184 0.17842 0.50658 0.0
H359 H 0.69967 0.10496 0.47183 0.0
H360 H 0.73704 0.18496 0.42379 0.0
C361 C 0.70252 0.15362 0.61293 0.0
C362 C 0.69575 0.16623 0.63615 0.0
C363 C 0.65695 0.16719 0.60971 0.0
C364 C 0.66414 0.15534 0.58678 0.0
N365 N 0.68627 0.14814 0.58885 0.0
N366 N 0.67282 0.17232 0.63369 0.0
H367 H 0.72034 0.14813 0.61391 0.0
C368 C 0.72189 0.22717 0.48324 0.0
O369 O 0.72045 0.2238 0.51044 0.0
O370 O 0.68811 0.08985 0.56385 0.0
H371 H 0.65233 0.15229 0.56738 0.0
H372 H 0.70367 0.0769 0.43122 0.0
H373 H 0.63915 0.17268 0.60837 0.0
Zn374 Zn 0.57167 0.69854 0.5582 0.0
C375 C 0.51888 0.65182 0.49234 0.0
N376 N 0.51478 0.62782 0.50707 0.0
C377 C 0.53428 0.64022 0.52834 0.0
N378 N 0.54911 0.67083 0.52744 0.0
N379 N 0.54009 0.67776 0.50406 0.0
C380 C 0.50046 0.719 0.49505 0.0
O381 O 0.50628 0.7152 0.52094 0.0
O382 O 0.6059 0.69165 0.56786 0.0
Zn383 Zn 0.55348 0.71574 0.48505 0.0
N384 N 0.54538 0.69025 0.5906 0.0
C385 C 0.49616 0.66264 0.61017 0.0
C386 C 0.5157 0.66924 0.58774 0.0
C387 C 0.55611 0.70593 0.61496 0.0
N388 N 0.50682 0.67794 0.63444 0.0
C389 C 0.53625 0.69974 0.63767 0.0
O390 O 0.58145 0.7524 0.50677 0.0
C391 C 0.59376 0.76167 0.53044 0.0
O392 O 0.59046 0.74357 0.55012 0.0
H393 H 0.5071 0.65784 0.56811 0.0
H394 H 0.57975 0.72284 0.61657 0.0
C395 C 0.56799 0.72725 0.42615 0.0
C396 C 0.58229 0.72655 0.40118 0.0
C397 C 0.60497 0.70259 0.42582 0.0
C398 C 0.59092 0.70352 0.45033 0.0
N399 N 0.57272 0.71575 0.45007 0.0
N400 N 0.60035 0.71403 0.40202 0.0
H401 H 0.55294 0.73632 0.42666 0.0
C402 C 0.62557 0.69866 0.54884 0.0
O403 O 0.62221 0.70987 0.52536 0.0
O404 O 0.5178 0.71993 0.47573 0.0
H405 H 0.59433 0.69447 0.46947 0.0
H406 H 0.47256 0.64572 0.60821 0.0
H407 H 0.61948 0.69285 0.42567 0.0
C408 C 0.33965 0.03101 1.00797 0.0
C409 C 0.35875 0.04529 0.98516 0.0
C410 C 0.31627 0.00112 1.00604 0.0
C411 C 0.29095 0.93078 0.9658 0.0
H412 H 0.21676 0.90562 1.00675 0.0
C413 C 0.19318 0.80619 0.96953 0.0
C414 C 0.18442 0.79534 0.99685 0.0
C415 C 0.21154 0.8372 0.96457 0.0
C416 C 0.23732 0.91234 0.99515 0.0
H417 H 0.36813 0.03938 0.94227 0.0
H418 H 0.3268 0.98714 0.93869 0.0
H419 H 0.25459 0.95909 1.00413 0.0
H420 H 0.18688 0.80855 0.04017 0.0
H421 H 0.2183 0.8625 0.03144 0.0
H422 H 0.27351 0.88379 0.95703 0.0
C423 C 0.33022 0.99901 0.95824 0.0
C424 C 0.2591 0.94295 0.99376 0.0
C425 C 0.35382 0.02899 0.96024 0.0
C426 C 0.19331 0.81618 0.0189 0.0
C427 C 0.21118 0.8471 1.01389 0.0
C428 C 0.26897 0.90013 0.96697 0.0
C429 C 0.31115 0.98469 0.98116 0.0
C430 C 0.28657 0.95251 0.97973 0.0
C431 C 0.22095 0.85791 0.98677 0.0
C432 C 0.24229 0.89056 0.98225 0.0
H433 H 0.34293 0.04279 0.02757 0.0
H434 H 0.30258 0.99072 0.02434 0.0
H435 H 0.31189 0.93722 0.95502 0.0
H436 H 0.18681 0.79066 0.95213 0.0
H437 H 0.21867 0.84498 0.94345 0.0
C438 C 0.32462 0.35238 0.95669 0.0
C439 C 0.31208 0.35658 0.98118 0.0
C440 C 0.33186 0.32936 0.95505 0.0
C441 C 0.31784 0.25852 0.99066 0.0
H442 H 0.39313 0.27561 0.95587 0.0
C443 C 0.38105 0.19553 0.01786 0.0
C444 C 0.39407 0.18734 0.99623 0.0
C445 C 0.36747 0.21281 1.01238 0.0
C446 C 0.37179 0.27032 0.96526 0.0
H447 H 0.29745 0.33996 0.02317 0.0
H448 H 0.31063 0.30062 0.02059 0.0
H449 H 0.37661 0.31281 0.95319 0.0
H450 H 0.40252 0.19037 0.95174 0.0
H451 H 0.37911 0.2212 0.94221 0.0
H452 H 0.3138 0.21662 1.00378 0.0
C453 C 0.31423 0.31445 1.00233 0.0
C454 C 0.36227 0.29162 0.96372 0.0
C455 C 0.30686 0.33725 1.00389 0.0
C456 C 0.39253 0.1962 0.96882 0.0
C457 C 0.37934 0.21399 0.96338 0.0
C458 C 0.32751 0.23742 0.99243 0.0
C459 C 0.32683 0.31014 0.97791 0.0
C460 C 0.33548 0.28628 0.97693 0.0
C461 C 0.36693 0.22269 0.98519 0.0
C462 C 0.35487 0.24334 0.98024 0.0
H463 H 0.32893 0.3669 0.93881 0.0
H464 H 0.34127 0.32657 0.93583 0.0
H465 H 0.2967 0.25323 1.00047 0.0
H466 H 0.38181 0.18904 0.0392 0.0
H467 H 0.35836 0.21939 0.02964 0.0
C468 C 0.97039 0.30831 1.00467 0.0
C469 C 0.95612 0.31406 0.98244 0.0
C470 C 0.00043 0.31543 1.00254 0.0
C471 C 0.07082 0.36333 0.96318 0.0
H472 H 0.09703 0.31361 1.00136 0.0
C473 C 0.19592 0.39201 0.96546 0.0
C474 C 0.20681 0.39352 0.99267 0.0
C475 C 0.16487 0.37897 0.96056 0.0
C476 C 0.09001 0.32765 0.99052 0.0
H477 H 0.96221 0.33161 0.94036 0.0
H478 H 0.01463 0.34348 0.93637 0.0
H479 H 0.04342 0.29721 0.99915 0.0
H480 H 0.19367 0.3813 0.0358 0.0
H481 H 0.1397 0.35808 0.02714 0.0
H482 H 0.11765 0.39379 0.95471 0.0
C483 C 0.00268 0.33389 0.95567 0.0
C484 C 0.05931 0.31839 0.98939 0.0
C485 C 0.97258 0.32694 0.95789 0.0
C486 C 0.186 0.38055 1.01461 0.0
C487 C 0.15507 0.36711 1.00964 0.0
C488 C 0.10155 0.37242 0.96405 0.0
C489 C 0.01702 0.32826 0.97802 0.0
C490 C 0.04935 0.3365 0.97637 0.0
C491 C 0.14419 0.36669 0.98268 0.0
C492 C 0.11149 0.35503 0.97834 0.0
H493 H 0.95848 0.29864 0.02398 0.0
H494 H 0.01081 0.3114 0.02044 0.0
H495 H 0.06409 0.37802 0.95319 0.0
H496 H 0.21142 0.40196 0.94816 0.0
H497 H 0.15704 0.37882 0.93955 0.0
C498 C 0.66671 0.9716 1.0055 0.0
C499 C 0.64577 0.95712 0.98394 0.0
C500 C 0.68975 0.00155 1.00267 0.0
C501 C 0.71087 0.07144 0.96321 0.0
H502 H 0.78831 0.09792 0.99854 0.0
C503 C 0.80611 0.19702 0.96542 0.0
C504 C 0.81571 0.20743 0.99271 0.0
C505 C 0.7887 0.16598 0.96002 0.0
C506 C 0.76684 0.0908 0.98844 0.0
H507 H 0.63277 0.96269 0.94232 0.0
H508 H 0.67345 0.01494 0.93713 0.0
H509 H 0.75101 0.0442 0.99687 0.0
H510 H 0.81609 0.19363 0.03537 0.0
H511 H 0.78642 0.13971 0.02584 0.0
H512 H 0.72682 0.11827 0.95509 0.0
C513 C 0.67176 0.00323 0.95643 0.0
C514 C 0.74537 0.06007 0.98764 0.0
C515 C 0.64852 0.97324 0.95935 0.0
C516 C 0.80893 0.18628 1.01415 0.0
C517 C 0.79208 0.1554 1.00867 0.0
C518 C 0.73251 0.1022 0.96377 0.0
C519 C 0.69265 0.01779 0.9781 0.0
C520 C 0.71676 0.05005 0.97577 0.0
C521 C 0.78122 0.14492 0.9817 0.0
C522 C 0.76037 0.11222 0.97708 0.0
H523 H 0.66513 0.95993 0.02481 0.0
H524 H 0.70493 0.01215 0.02007 0.0
H525 H 0.68903 0.06464 0.9541 0.0
H526 H 0.81088 0.21284 0.94852 0.0
H527 H 0.78067 0.15844 0.93903 0.0
C528 C 0.69233 0.66271 1.0034 0.0
C529 C 0.68654 0.64278 0.98106 0.0
C530 C 0.68681 0.68669 1.0009 0.0
C531 C 0.64215 0.7121 0.96085 0.0
H532 H 0.69356 0.78735 0.99963 0.0
C533 C 0.61445 0.80887 0.96651 0.0
C534 C 0.61356 0.81779 0.99406 0.0
C535 C 0.62769 0.79125 0.96054 0.0
C536 C 0.67907 0.76651 0.98859 0.0
H537 H 0.67062 0.63257 0.93838 0.0
H538 H 0.66129 0.67485 0.93386 0.0
H539 H 0.70833 0.74889 0.99696 0.0
H540 H 0.62732 0.81678 0.03661 0.0
H541 H 0.65075 0.78663 0.02614 0.0
H542 H 0.61266 0.72971 0.95293 0.0
C543 C 0.66982 0.67167 0.95346 0.0
C544 C 0.68742 0.7444 0.98718 0.0
C545 C 0.67527 0.64752 0.956 0.0
C546 C 0.62756 0.81018 1.01519 0.0
C547 C 0.64114 0.79304 1.00918 0.0
C548 C 0.63391 0.73437 0.96209 0.0
C549 C 0.67549 0.69153 0.97593 0.0
C550 C 0.66861 0.71654 0.97404 0.0
C551 C 0.64074 0.78278 0.98193 0.0
C552 C 0.65187 0.76143 0.97667 0.0
H553 H 0.70084 0.65965 0.02307 0.0
H554 H 0.69083 0.70107 0.01885 0.0
H555 H 0.62699 0.69086 0.95076 0.0
H556 H 0.60372 0.81428 0.9498 0.0
H557 H 0.6272 0.78375 0.93934 0.0
C558 C 0.02553 0.67991 0.95762 0.0
C559 C 0.04136 0.69036 0.98287 0.0
C560 C 0.99552 0.67322 0.95556 0.0
C561 C 0.93787 0.68495 0.99204 0.0
H562 H 0.88069 0.61116 0.95423 0.0
C563 C 0.81159 0.61837 0.01797 0.0
C564 C 0.7907 0.60618 0.99601 0.0
C565 C 0.84251 0.63288 1.01268 0.0
C566 C 0.89646 0.6321 0.96445 0.0
H567 H 0.03813 0.70205 0.02571 0.0
H568 H 0.98595 0.68979 0.02236 0.0
H569 H 0.93452 0.62835 0.95176 0.0
H570 H 0.78587 0.60023 0.95117 0.0
H571 H 0.84022 0.62524 0.94198 0.0
H572 H 0.89957 0.6878 1.00583 0.0
C573 C 0.99674 0.6874 1.00389 0.0
C574 C 0.92732 0.64201 0.96302 0.0
C575 C 0.02668 0.69421 1.00589 0.0
C576 C 0.80143 0.60948 0.96852 0.0
C577 C 0.83247 0.62363 0.96325 0.0
C578 C 0.90704 0.67489 0.99369 0.0
C579 C 0.98072 0.67674 0.97875 0.0
C580 C 0.94835 0.66817 0.97738 0.0
C581 C 0.85326 0.6352 0.98534 0.0
C582 C 0.886 0.64802 0.98043 0.0
H583 H 0.03626 0.67677 0.93947 0.0
H584 H 0.98395 0.66532 0.93581 0.0
H585 H 0.95347 0.7056 1.00278 0.0
H586 H 0.80403 0.61629 0.03937 0.0
H587 H 0.85801 0.64132 0.03012 0.0
C588 C 0.972 0.64685 0.57564 0.0
C589 C 0.95572 0.64336 0.55099 0.0
C590 C 0.00159 0.67094 0.57857 0.0
C591 C 0.05627 0.74539 0.54729 0.0
H592 H 0.11672 0.72963 0.57895 0.0
C593 C 0.1818 0.81219 0.51897 0.0
C594 C 0.20349 0.81921 0.53993 0.0
C595 C 0.1511 0.79489 0.525 0.0
C596 C 0.10001 0.73456 0.57053 0.0
H597 H 0.95779 0.66232 0.51006 0.0
H598 H 0.00925 0.7036 0.51485 0.0
H599 H 0.06361 0.69047 0.58052 0.0
H600 H 0.21 0.81451 0.58391 0.0
H601 H 0.15599 0.78364 0.59439 0.0
H602 H 0.09293 0.78895 0.53607 0.0
C603 C -0.0009 0.68832 0.53227 0.0
C604 C 0.06955 0.71212 0.57143 0.0
C605 C 0.96959 0.66442 0.52941 0.0
C606 C 0.19378 0.80958 0.56736 0.0
C607 C 0.16294 0.79177 0.57332 0.0
C608 C 0.0867 0.76767 0.54617 0.0
C609 C 0.01552 0.69196 0.55687 0.0
C610 C 0.04738 0.71698 0.55914 0.0
C611 C 0.14135 0.78386 0.55207 0.0
C612 C 0.10894 0.76222 0.55718 0.0
H613 H 0.96191 0.63101 0.59268 0.0
H614 H 0.01348 0.67317 0.59788 0.0
H615 H 0.03975 0.75022 0.53825 0.0
H616 H 0.1886 0.81933 0.49765 0.0
H617 H 0.13501 0.78893 0.50815 0.0
C618 C 0.30803 0.97333 0.52659 0.0
C619 C 0.31328 0.95873 0.54886 0.0
C620 C 0.31508 0.00335 0.52901 0.0
C621 C 0.36222 0.07315 0.56924 0.0
H622 H 0.31284 0.09975 0.53103 0.0
C623 C 0.39201 0.19851 0.56696 0.0
C624 C 0.39376 0.20936 0.5397 0.0
C625 C 0.37849 0.16742 0.57194 0.0
C626 C 0.32676 0.09261 0.5419 0.0
H627 H 0.32988 0.96416 0.59126 0.0
H628 H 0.34172 0.01658 0.5957 0.0
H629 H 0.29637 0.04605 0.53291 0.0
H630 H 0.3814 0.19619 0.49658 0.0
H631 H 0.35739 0.14216 0.50537 0.0
H632 H 0.3927 0.11993 0.57797 0.0
C633 C 0.33254 0.0049 0.57619 0.0
C634 C 0.31746 0.06188 0.54284 0.0
C635 C 0.32564 0.97482 0.5737 0.0
C636 C 0.38049 0.18854 0.5178 0.0
C637 C 0.36658 0.15758 0.52284 0.0
C638 C 0.37136 0.1039 0.56853 0.0
C639 C 0.32735 0.01954 0.55385 0.0
C640 C 0.33549 0.05182 0.55582 0.0
C641 C 0.36598 0.14671 0.54984 0.0
C642 C 0.3541 0.11398 0.55422 0.0
H643 H 0.29874 0.96168 0.50708 0.0
H644 H 0.31141 0.01402 0.51113 0.0
H645 H 0.37681 0.0663 0.57921 0.0
H646 H 0.40218 0.21404 0.58423 0.0
H647 H 0.3782 0.15958 0.59297 0.0
C648 C 0.35745 0.33124 0.57375 0.0
C649 C 0.36215 0.31819 0.54985 0.0
C650 C 0.33553 0.34005 0.57374 0.0
C651 C 0.29631 0.3641 0.52555 0.0
H652 H 0.2363 0.34272 0.58363 0.0
C653 C 0.19823 0.38554 0.50975 0.0
C654 C 0.18956 0.39715 0.53219 0.0
C655 C 0.21758 0.37409 0.51388 0.0
C656 C 0.25313 0.34918 0.56741 0.0
H657 H 0.34719 0.30374 0.50738 0.0
H658 H 0.30946 0.31929 0.50737 0.0
H659 H 0.27433 0.32716 0.58771 0.0
H660 H 0.1934 0.40471 0.57683 0.0
H661 H 0.22795 0.38529 0.58402 0.0
H662 H 0.2759 0.38652 0.50537 0.0
C663 C 0.32269 0.32281 0.52606 0.0
C664 C 0.27486 0.34025 0.56976 0.0
C665 C 0.34426 0.31378 0.52615 0.0
C666 C 0.19961 0.39579 0.55914 0.0
C667 C 0.21939 0.38465 0.56324 0.0
C668 C 0.2749 0.37322 0.52331 0.0
C669 C 0.31827 0.3363 0.54972 0.0
C670 C 0.29634 0.34722 0.54859 0.0
C671 C 0.22924 0.3744 0.5405 0.0
C672 C 0.25265 0.36545 0.54392 0.0
H673 H 0.37087 0.33492 0.59234 0.0
H674 H 0.33264 0.35051 0.59222 0.0
H675 H 0.31298 0.37033 0.50918 0.0
H676 H 0.19053 0.38587 0.48879 0.0
H677 H 0.22387 0.36552 0.496 0.0
C678 C 0.81364 0.19995 0.51532 0.0
C679 C 0.79261 0.19127 0.53715 0.0
C680 C 0.84452 0.21715 0.52063 0.0
C681 C 0.89865 0.27363 0.56783 0.0
H682 H 0.9553 0.25581 0.53084 0.0
C683 C 0.02848 0.3547 0.57336 0.0
C684 C 0.04415 0.35888 0.54818 0.0
C685 C 0.99821 0.33188 0.57581 0.0
C686 C 0.93983 0.26126 0.54118 0.0
H687 H 0.78753 0.19352 0.58181 0.0
H688 H 0.84192 0.22436 0.59105 0.0
H689 H 0.9014 0.2196 0.52842 0.0
H690 H 0.04024 0.34241 0.50583 0.0
H691 H 0.98775 0.30335 0.50988 0.0
H692 H 0.93693 0.31593 0.57953 0.0
C693 C 0.83426 0.21752 0.56985 0.0
C694 C 0.90896 0.24042 0.53991 0.0
C695 C 0.80322 0.19976 0.56458 0.0
C696 C 0.02897 0.33973 0.52561 0.0
C697 C 0.99882 0.31709 0.52801 0.0
C698 C 0.92959 0.29469 0.56889 0.0
C699 C 0.85518 0.22648 0.54787 0.0
C700 C 0.888 0.24667 0.55266 0.0
C701 C 0.98299 0.3128 0.55312 0.0
C702 C 0.95051 0.28909 0.55496 0.0
H703 H 0.80622 0.1937 0.49397 0.0
H704 H 0.86006 0.22397 0.50324 0.0
H705 H 0.88296 0.27913 0.57768 0.0
H706 H 0.03953 0.3691 0.59115 0.0
H707 H 0.98679 0.32909 0.59552 0.0
C708 C 0.62396 0.81428 0.51261 0.0
C709 C 0.61063 0.79465 0.53526 0.0
C710 C 0.63633 0.84535 0.51587 0.0
C711 C 0.65964 0.90727 0.56798 0.0
H712 H 0.64373 0.94601 0.50603 0.0
C713 C 0.67594 0.02891 0.57041 0.0
C714 C 0.69055 0.04695 0.54703 0.0
C715 C 0.66795 0.99839 0.57089 0.0
C716 C 0.64856 0.93557 0.52342 0.0
H717 H 0.60092 0.79224 0.57944 0.0
H718 H 0.62178 0.84669 0.58507 0.0
H719 H 0.62704 0.8925 0.50356 0.0
H720 H 0.70875 0.04722 0.50609 0.0
H721 H 0.69455 0.99415 0.50688 0.0
H722 H 0.6805 0.95069 0.58801 0.0
C723 C 0.62317 0.8381 0.56483 0.0
C724 C 0.63915 0.90489 0.52198 0.0
C725 C 0.61117 0.80689 0.56163 0.0
C726 C 0.69747 0.034 0.52442 0.0
C727 C 0.68923 0.00355 0.52479 0.0
C728 C 0.6688 0.93806 0.56954 0.0
C729 C 0.63517 0.85763 0.54178 0.0
C730 C 0.6449 0.89034 0.54404 0.0
C731 C 0.67409 0.98534 0.54787 0.0
C732 C 0.66365 0.95255 0.54709 0.0
H733 H 0.62427 0.80553 0.49211 0.0
H734 H 0.64626 0.85971 0.49784 0.0
H735 H 0.6646 0.89689 0.58531 0.0
H736 H 0.67031 0.03823 0.58816 0.0
H737 H 0.65615 0.9848 0.58888 0.0
C738 C 0.81024 0.61268 0.56687 0.0
C739 C 0.81864 0.6111 0.53929 0.0
C740 C 0.79372 0.62707 0.57284 0.0
C741 C 0.772 0.68072 0.54489 0.0
H742 H 0.69579 0.63091 0.58261 0.0
C743 C 0.67115 0.69878 0.53014 0.0
C744 C 0.65108 0.69307 0.55231 0.0
C745 C 0.69462 0.69254 0.53272 0.0
C746 C 0.71723 0.64546 0.57257 0.0
H747 H 0.81781 0.62475 0.49664 0.0
H748 H 0.78954 0.65017 0.50713 0.0
H749 H 0.73293 0.61439 0.58039 0.0
H750 H 0.64024 0.6768 0.59484 0.0
H751 H 0.68165 0.66631 0.59954 0.0
H752 H 0.75628 0.71159 0.53666 0.0
C753 C 0.79553 0.64021 0.52411 0.0
C754 C 0.7385 0.63595 0.5713 0.0
C755 C 0.81156 0.62548 0.51809 0.0
C756 C 0.6553 0.68139 0.57734 0.0
C757 C 0.67894 0.67525 0.57999 0.0
C758 C 0.75089 0.69036 0.54638 0.0
C759 C 0.78587 0.6406 0.55142 0.0
C760 C 0.7657 0.65307 0.55674 0.0
C761 C 0.69878 0.68057 0.55762 0.0
C762 C 0.72284 0.6724 0.55948 0.0
H763 H 0.81529 0.60171 0.58363 0.0
H764 H 0.78662 0.62717 0.59409 0.0
H765 H 0.79298 0.69453 0.53386 0.0
H766 H 0.66848 0.70763 0.51051 0.0
H767 H 0.70902 0.69635 0.51485 0.0
C768 C 0.41615 0.27369 0.3505 0.0
C769 C 0.42249 0.26331 0.37535 0.0
C770 C 0.41815 0.26223 0.32457 0.0
C771 C 0.41598 0.19543 0.29223 0.0
H772 H 0.44492 0.24678 0.22687 0.0
C773 C 0.39558 0.14601 0.18091 0.0
C774 C 0.41871 0.16016 0.16099 0.0
C775 C 0.39777 0.1592 0.20699 0.0
C776 C 0.43701 0.23213 0.24493 0.0
H777 H 0.43566 0.23201 0.39191 0.0
H778 H 0.43977 0.21266 0.34681 0.0
H779 H 0.44679 0.269 0.27238 0.0
H780 H 0.46301 0.1994 0.15381 0.0
H781 H 0.46658 0.22241 0.19911 0.0
H782 H 0.40646 0.15862 0.26488 0.0
C783 C 0.43308 0.22967 0.34744 0.0
C784 C 0.43778 0.24484 0.27103 0.0
C785 C 0.43113 0.24117 0.37341 0.0
C786 C 0.44427 0.188 0.16809 0.0
C787 C 0.44642 0.20124 0.19424 0.0
C788 C 0.41516 0.18273 0.26615 0.0
C789 C 0.42642 0.23989 0.32266 0.0
C790 C 0.42704 0.22663 0.29502 0.0
C791 C 0.42324 0.18697 0.21409 0.0
C792 C 0.42539 0.20083 0.24207 0.0
H793 H 0.40942 0.29067 0.35102 0.0
H794 H 0.41244 0.27039 0.30604 0.0
H795 H 0.40726 0.18062 0.31012 0.0
H796 H 0.37548 0.12468 0.17631 0.0
H797 H 0.37923 0.14775 0.2215 0.0
C798 C 0.18809 0.42743 0.36842 0.0
C799 C 0.15928 0.42443 0.37036 0.0
C800 C 0.2013 0.42926 0.34233 0.0
C801 C 0.18112 0.41205 0.2671 0.0
H802 H 0.26762 0.46017 0.25626 0.0
C803 C 0.23643 0.42817 0.15827 0.0
C804 C 0.26187 0.42447 0.15691 0.0
C805 C 0.22465 0.43013 0.18407 0.0
C806 C 0.24343 0.4465 0.25899 0.0
H807 H 0.12222 0.4218 0.34627 0.0
H808 H 0.14544 0.42583 0.30108 0.0
H809 H 0.24593 0.46023 0.30155 0.0
H810 H 0.29504 0.42046 0.18181 0.0
H811 H 0.27462 0.42407 0.22667 0.0
H812 H 0.17867 0.39858 0.22445 0.0
C813 C 0.15761 0.42596 0.31958 0.0
C814 C 0.23095 0.44642 0.28503 0.0
C815 C 0.14431 0.42382 0.34559 0.0
C816 C 0.27543 0.42327 0.18203 0.0
C817 C 0.26386 0.42556 0.20778 0.0
C818 C 0.19357 0.41237 0.24103 0.0
C819 C 0.18615 0.42833 0.31749 0.0
C820 C 0.1996 0.42906 0.28954 0.0
C821 C 0.23813 0.4287 0.20916 0.0
C822 C 0.22489 0.42944 0.23667 0.0
H823 H 0.2001 0.42741 0.38697 0.0
H824 H 0.22306 0.43057 0.34169 0.0
H825 H 0.15698 0.39789 0.26975 0.0
H826 H 0.22502 0.4287 0.13947 0.0
H827 H 0.20491 0.43272 0.18439 0.0
C828 C 0.81685 0.2606 0.16759 0.0
C829 C 0.83997 0.25593 0.15729 0.0
C830 C 0.80383 0.24928 0.19381 0.0
C831 C 0.79011 0.19001 0.2446 0.0
H832 H 0.78486 0.24224 0.30015 0.0
C833 C 0.76098 0.15064 0.35851 0.0
C834 C 0.74432 0.16013 0.37462 0.0
C835 C 0.77187 0.16301 0.33215 0.0
C836 C 0.78562 0.2271 0.28483 0.0
H837 H 0.86723 0.23549 0.16648 0.0
H838 H 0.84406 0.21519 0.21168 0.0
H839 H 0.80393 0.26187 0.25356 0.0
H840 H 0.72577 0.19004 0.3753 0.0
H841 H 0.74398 0.21105 0.32896 0.0
H842 H 0.7712 0.15501 0.27514 0.0
C843 C 0.83612 0.22773 0.19959 0.0
C844 C 0.79667 0.23846 0.25809 0.0
C845 C 0.8495 0.2395 0.17373 0.0
C846 C 0.73894 0.18252 0.36367 0.0
C847 C 0.74945 0.19461 0.337 0.0
C848 C 0.77863 0.17853 0.27107 0.0
C849 C 0.81324 0.23257 0.21004 0.0
C850 C 0.7995 0.22016 0.23782 0.0
C851 C 0.76592 0.18486 0.3207 0.0
C852 C 0.77669 0.19699 0.29186 0.0
H853 H 0.80924 0.27352 0.1557 0.0
H854 H 0.7862 0.25333 0.20128 0.0
H855 H 0.79155 0.1752 0.2293 0.0
H856 H 0.76581 0.13366 0.36637 0.0
H857 H 0.78514 0.1554 0.32085 0.0
C858 C 0.58443 0.7284 0.34887 0.0
C859 C 0.5785 0.73871 0.37401 0.0
C860 C 0.58275 0.74041 0.32319 0.0
C861 C 0.5859 0.80809 0.29155 0.0
H862 H 0.55745 0.75724 0.22581 0.0
C863 C 0.6069 0.85832 0.18021 0.0
C864 C 0.58432 0.84367 0.15988 0.0
C865 C 0.60451 0.84524 0.20642 0.0
C866 C 0.56521 0.7718 0.24395 0.0
H867 H 0.56623 0.7704 0.39126 0.0
H868 H 0.56263 0.79078 0.34646 0.0
H869 H 0.55488 0.73467 0.27114 0.0
H870 H 0.54065 0.8038 0.15213 0.0
H871 H 0.53661 0.7811 0.1976 0.0
H872 H 0.59583 0.84517 0.2644 0.0
C873 C 0.56883 0.77341 0.34675 0.0
C874 C 0.56406 0.75886 0.26999 0.0
C875 C 0.57049 0.76133 0.37254 0.0
C876 C 0.55902 0.81557 0.16673 0.0
C877 C 0.55661 0.8025 0.193 0.0
C878 C 0.58704 0.82104 0.2655 0.0
C879 C 0.57512 0.76324 0.32169 0.0
C880 C 0.57468 0.77684 0.29416 0.0
C881 C 0.57932 0.81713 0.21325 0.0
C882 C 0.57698 0.80313 0.24125 0.0
H883 H 0.59066 0.71104 0.34896 0.0
H884 H 0.58821 0.73226 0.3045 0.0
H885 H 0.59453 0.82277 0.30956 0.0
H886 H 0.62676 0.8799 0.17579 0.0
H887 H 0.62271 0.85704 0.2212 0.0
C888 C 0.72035 0.57728 0.18402 0.0
C889 C 0.73453 0.57661 0.15913 0.0
C890 C 0.73185 0.57551 0.20998 0.0
C891 C 0.78564 0.55612 0.24444 0.0
H892 H 0.78063 0.60369 0.30497 0.0
C893 C 0.85329 0.57956 0.34761 0.0
C894 C 0.83855 0.5784 0.37275 0.0
C895 C 0.83944 0.57727 0.32183 0.0
C896 C 0.78191 0.58997 0.28841 0.0
H897 H 0.77243 0.57383 0.14234 0.0
H898 H 0.79278 0.57129 0.18754 0.0
H899 H 0.75934 0.60392 0.2597 0.0
H900 H 0.79748 0.57428 0.39012 0.0
H901 H 0.77338 0.57024 0.34519 0.0
H902 H 0.80899 0.54287 0.27322 0.0
C903 C 0.77222 0.57239 0.18702 0.0
C904 C 0.76961 0.59002 0.26234 0.0
C905 C 0.76051 0.57386 0.16097 0.0
C906 C 0.80944 0.57479 0.37134 0.0
C907 C 0.7957 0.57281 0.3455 0.0
C908 C 0.7982 0.5563 0.27049 0.0
C909 C 0.7582 0.57344 0.21197 0.0
C910 C 0.77124 0.57309 0.2399 0.0
C911 C 0.81057 0.57415 0.3204 0.0
C912 C 0.79652 0.57324 0.29282 0.0
H913 H 0.70017 0.57909 0.18347 0.0
H914 H 0.71991 0.57568 0.22854 0.0
H915 H 0.78698 0.54238 0.22796 0.0
H916 H 0.87569 0.58231 0.34782 0.0
H917 H 0.8517 0.57871 0.30296 0.0
C918 C 0.14152 0.7306 0.18463 0.0
C919 C 0.15806 0.74074 0.15963 0.0
C920 C 0.15505 0.74251 0.21041 0.0
C921 C 0.21992 0.80967 0.24246 0.0
H922 H 0.19657 0.75868 0.30809 0.0
C923 C 0.24973 0.85972 0.35387 0.0
C924 C 0.25741 0.84482 0.37412 0.0
C925 C 0.2388 0.84669 0.32767 0.0
C926 C 0.20363 0.77326 0.28999 0.0
H927 H 0.20233 0.77208 0.14275 0.0
H928 H 0.22598 0.79224 0.18769 0.0
H929 H 0.1765 0.73632 0.26267 0.0
H930 H 0.26046 0.80452 0.38177 0.0
H931 H 0.24136 0.78191 0.33633 0.0
H932 H 0.2474 0.84655 0.26972 0.0
C933 C 0.20233 0.77508 0.18723 0.0
C934 C 0.19179 0.76045 0.26389 0.0
C935 C 0.18877 0.76313 0.16134 0.0
C936 C 0.25406 0.81649 0.36723 0.0
C937 C 0.24316 0.80348 0.34097 0.0
C938 C 0.23176 0.82248 0.26856 0.0
C939 C 0.18561 0.76505 0.21214 0.0
C940 C 0.19954 0.7785 0.23976 0.0
C941 C 0.23537 0.81839 0.32079 0.0
C942 C 0.22358 0.80452 0.29276 0.0
H943 H 0.11786 0.71344 0.18435 0.0
H944 H 0.14124 0.73448 0.22899 0.0
H945 H 0.22625 0.8244 0.22448 0.0
H946 H 0.25187 0.88147 0.35832 0.0
H947 H 0.23263 0.85871 0.31293 0.0
C948 C 0.56753 0.74721 0.66626 0.0
C949 C 0.54571 0.71631 0.66475 0.0
C950 C 0.5732 0.76303 0.69156 0.0
C951 C 0.56105 0.75244 0.76851 0.0
H952 H 0.56292 0.8291 0.76598 0.0
C953 C 0.56583 0.81774 0.86949 0.0
C954 C 0.54486 0.82791 0.87032 0.0
C955 C 0.5718 0.80756 0.84435 0.0
C956 C 0.56253 0.80776 0.76708 0.0
H957 H 0.51362 0.67776 0.68902 0.0
H958 H 0.5235 0.7051 0.73277 0.0
H959 H 0.56255 0.80398 0.72259 0.0
H960 H 0.51474 0.83637 0.84509 0.0
H961 H 0.5252 0.81893 0.80164 0.0
H962 H 0.55983 0.75565 0.81299 0.0
C963 C 0.5364 0.71719 0.71457 0.0
C964 C 0.56263 0.79348 0.74216 0.0
C965 C 0.53056 0.70152 0.68935 0.0
C966 C 0.531 0.8287 0.84527 0.0
C967 C 0.53717 0.81886 0.82023 0.0
C968 C 0.56111 0.7668 0.79344 0.0
C969 C 0.55741 0.74828 0.716 0.0
C970 C 0.56117 0.76527 0.7425 0.0
C971 C 0.55722 0.80762 0.81945 0.0
C972 C 0.56113 0.79432 0.79307 0.0
H973 H 0.57935 0.75952 0.64773 0.0
H974 H 0.58966 0.78693 0.69191 0.0
H975 H 0.56029 0.73092 0.76961 0.0
H976 H 0.57663 0.81638 0.88839 0.0
H977 H 0.58752 0.79922 0.8445 0.0
C978 C 0.73973 0.55799 0.86465 0.0
C979 C 0.70943 0.53513 0.86813 0.0
C980 C 0.75438 0.56183 0.83886 0.0
C981 C 0.74919 0.51637 0.77714 0.0
H982 H 0.80727 0.59226 0.74303 0.0
C983 C 0.82204 0.51776 0.68624 0.0
C984 C 0.82404 0.5349 0.66257 0.0
C985 C 0.81068 0.52159 0.71142 0.0
C986 C 0.791 0.57091 0.75226 0.0
H987 H 0.67038 0.49989 0.84662 0.0
H988 H 0.69554 0.50682 0.80207 0.0
H989 H 0.78139 0.59238 0.78619 0.0
H990 H 0.81651 0.57059 0.64748 0.0
H991 H 0.79669 0.57739 0.69177 0.0
H992 H 0.7584 0.49476 0.74354 0.0
C993 C 0.70831 0.52134 0.81927 0.0
C994 C 0.77636 0.57097 0.77709 0.0
C995 C 0.69381 0.51746 0.84486 0.0
C996 C 0.81567 0.55718 0.66527 0.0
C997 C 0.8042 0.56103 0.69067 0.0
C998 C 0.76389 0.51631 0.75263 0.0
C999 C 0.73904 0.54288 0.81609 0.0
C1000 C 0.75512 0.54363 0.78977 0.0
C1001 C 0.80076 0.54263 0.71383 0.0
C1002 C 0.78509 0.54351 0.73985 0.0
H1003 H 0.75263 0.57181 0.88214 0.0
H1004 H 0.77809 0.57859 0.83719 0.0
H1005 H 0.73335 0.49486 0.78641 0.0
H1006 H 0.82861 0.50067 0.68516 0.0
H1007 H 0.80905 0.50751 0.72894 0.0
C1008 C 0.17968 0.74777 0.86744 0.0
C1009 C 0.17113 0.71702 0.86905 0.0
C1010 C 0.18968 0.76353 0.84211 0.0
C1011 C 0.19134 0.75299 0.76529 0.0
H1012 H 0.26624 0.82961 0.76775 0.0
C1013 C 0.25133 0.81873 0.6644 0.0
C1014 C 0.28231 0.82826 0.66324 0.0
C1015 C 0.23538 0.80864 0.68963 0.0
C1016 C 0.24524 0.80829 0.76668 0.0
H1017 H 0.16543 0.67862 0.84499 0.0
H1018 H 0.18248 0.70583 0.80111 0.0
H1019 H 0.2416 0.80448 0.81118 0.0
H1020 H 0.32091 0.83576 0.68794 0.0
H1021 H 0.29337 0.81862 0.73165 0.0
H1022 H 0.19555 0.75629 0.72079 0.0
C1023 C 0.18142 0.71785 0.81927 0.0
C1024 C 0.23094 0.79401 0.79161 0.0
C1025 C 0.1718 0.70226 0.84454 0.0
C1026 C 0.29709 0.82861 0.68807 0.0
C1027 C 0.2813 0.81892 0.71323 0.0
C1028 C 0.20552 0.76739 0.74035 0.0
C1029 C 0.19104 0.74883 0.81776 0.0
C1030 C 0.20416 0.76581 0.79127 0.0
C1031 C 0.25011 0.80822 0.7143 0.0
C1032 C 0.23303 0.7949 0.74071 0.0
H1033 H 0.17992 0.76003 0.88593 0.0
H1034 H 0.19677 0.78734 0.84168 0.0
H1035 H 0.17058 0.73146 0.76422 0.0
H1036 H 0.2391 0.81773 0.64564 0.0
H1037 H 0.21139 0.8007 0.68974 0.0
C1038 C 0.44391 0.18469 0.86852 0.0
C1039 C 0.46619 0.17639 0.87151 0.0
C1040 C 0.44016 0.19595 0.84298 0.0
C1041 C 0.48516 0.23583 0.78103 0.0
H1042 H 0.40932 0.21916 0.74773 0.0
C1043 C 0.48448 0.30685 0.68946 0.0
C1044 C 0.46677 0.29144 0.66616 0.0
C1045 C 0.48055 0.29212 0.71493 0.0
C1046 C 0.43066 0.22395 0.75675 0.0
H1047 H 0.50052 0.17166 0.84935 0.0
H1048 H 0.49379 0.19077 0.80522 0.0
H1049 H 0.40922 0.19302 0.79076 0.0
H1050 H 0.42998 0.24839 0.65193 0.0
H1051 H 0.42308 0.22255 0.69667 0.0
H1052 H 0.50674 0.2664 0.74729 0.0
C1053 C 0.47965 0.18929 0.82264 0.0
C1054 C 0.43061 0.20915 0.7815 0.0
C1055 C 0.48342 0.17817 0.84799 0.0
C1056 C 0.44382 0.26113 0.66947 0.0
C1057 C 0.43992 0.24626 0.69513 0.0
C1058 C 0.48522 0.25066 0.75659 0.0
C1059 C 0.45865 0.1992 0.81996 0.0
C1060 C 0.45792 0.2148 0.79385 0.0
C1061 C 0.4589 0.26138 0.71793 0.0
C1062 C 0.45804 0.24505 0.74408 0.0
H1063 H 0.43046 0.18402 0.88621 0.0
H1064 H 0.42384 0.20347 0.84168 0.0
H1065 H 0.50665 0.24112 0.79007 0.0
H1066 H 0.50212 0.33028 0.68783 0.0
H1067 H 0.4951 0.30472 0.73218 0.0
C1068 C 0.25898 0.44225 0.86339 0.0
C1069 C 0.28994 0.46354 0.86604 0.0
C1070 C 0.24401 0.43855 0.83783 0.0
C1071 C 0.25096 0.48306 0.77507 0.0
H1072 H 0.18934 0.40767 0.74275 0.0
C1073 C 0.17985 0.48387 0.68364 0.0
C1074 C 0.17676 0.46566 0.66048 0.0
C1075 C 0.19058 0.47985 0.7091 0.0
C1076 C 0.20658 0.42887 0.7515 0.0
H1077 H 0.32965 0.49604 0.84331 0.0
H1078 H 0.30385 0.48941 0.79917 0.0
H1079 H 0.21493 0.40706 0.78593 0.0
H1080 H 0.18162 0.42793 0.64657 0.0
H1081 H 0.20034 0.42083 0.69132 0.0
H1082 H 0.24303 0.50499 0.74096 0.0
C1083 C 0.2909 0.47603 0.81685 0.0
C1084 C 0.22107 0.42854 0.77632 0.0
C1085 C 0.30575 0.47974 0.84221 0.0
C1086 C 0.18332 0.44218 0.66397 0.0
C1087 C 0.19415 0.43815 0.68963 0.0
C1088 C 0.23641 0.4834 0.75058 0.0
C1089 C 0.25968 0.45611 0.81447 0.0
C1090 C 0.2436 0.45568 0.78831 0.0
C1091 C 0.19874 0.45756 0.71227 0.0
C1092 C 0.21398 0.45639 0.73843 0.0
H1093 H 0.24595 0.42961 0.88132 0.0
H1094 H 0.21992 0.42308 0.83675 0.0
H1095 H 0.26787 0.50443 0.78384 0.0
H1096 H 0.17468 0.50193 0.68192 0.0
H1097 H 0.19315 0.49477 0.72623 0.0
C1098 C 0.81639 0.25597 0.86714 0.0
C1099 C 0.82609 0.28702 0.86842 0.0
C1100 C 0.80597 0.23999 0.84192 0.0
C1101 C 0.80462 0.25022 0.7648 0.0
H1102 H 0.72929 0.17407 0.76757 0.0
C1103 C 0.74404 0.18434 0.66398 0.0
C1104 C 0.71285 0.17388 0.66299 0.0
C1105 C 0.76013 0.19488 0.68912 0.0
C1106 C 0.75037 0.19529 0.76639 0.0
H1107 H 0.83339 0.32565 0.8438 0.0
H1108 H 0.81549 0.29807 0.80023 0.0
H1109 H 0.75417 0.19931 0.81088 0.0
H1110 H 0.67414 0.16544 0.68805 0.0
H1111 H 0.70194 0.18359 0.73147 0.0
H1112 H 0.80023 0.24678 0.72033 0.0
C1113 C 0.816 0.28595 0.81853 0.0
C1114 C 0.76484 0.20963 0.79128 0.0
C1115 C 0.8261 0.30178 0.84366 0.0
C1116 C 0.69811 0.17331 0.68794 0.0
C1117 C 0.71407 0.18355 0.71299 0.0
C1118 C 0.79023 0.23581 0.73991 0.0
C1119 C 0.80527 0.25472 0.81733 0.0
C1120 C 0.79183 0.23765 0.79086 0.0
C1121 C 0.7454 0.19497 0.71392 0.0
C1122 C 0.76255 0.20846 0.74034 0.0
H1123 H 0.81562 0.2437 0.88579 0.0
H1124 H 0.79806 0.21599 0.84176 0.0
H1125 H 0.82555 0.27158 0.76362 0.0
H1126 H 0.75631 0.18557 0.64518 0.0
H1127 H 0.78421 0.20333 0.68905 0.0
C1128 C 0.73848 0.26196 0.09087 0.0
C1129 C 0.74174 0.23934 0.0774 0.0
C1130 C 0.71036 0.25574 0.10116 0.0
C1131 C 0.63231 0.19132 0.11484 0.0
H1132 H 0.60844 0.25027 0.09716 0.0
C1133 C 0.528 0.18763 0.05907 0.0
C1134 C 0.50581 0.15912 0.06837 0.0
C1135 C 0.55512 0.20367 0.07348 0.0
C1136 C 0.61466 0.2335 0.10232 0.0
H1137 H 0.71838 0.19243 0.06455 0.0
H1138 H 0.66941 0.18181 0.08132 0.0
H1139 H 0.66137 0.26474 0.0951 0.0
H1140 H 0.49288 0.12598 0.10115 0.0
H1141 H 0.53968 0.15484 0.12763 0.0
H1142 H 0.58568 0.15915 0.11889 0.0
C1143 C 0.68851 0.20415 0.08488 0.0
C1144 C 0.64521 0.24195 0.1015 0.0
C1145 C 0.71659 0.2103 0.0749 0.0
C1146 C 0.5097 0.14817 0.09384 0.0
C1147 C 0.5367 0.16456 0.10871 0.0
C1148 C 0.6018 0.18268 0.11495 0.0
C1149 C 0.68491 0.22678 0.09804 0.0
C1150 C 0.65416 0.22041 0.10608 0.0
C1151 C 0.56061 0.1915 0.09763 0.0
C1152 C 0.5924 0.20316 0.10692 0.0
H1153 H 0.75769 0.28441 0.0936 0.0
H1154 H 0.70857 0.27364 0.11141 0.0
H1155 H 0.63852 0.17447 0.11969 0.0
H1156 H 0.5257 0.19612 0.03907 0.0
H1157 H 0.57272 0.22406 0.06389 0.0
C1158 C 0.51382 0.71607 0.0742 0.0
C1159 C 0.51045 0.7413 0.07867 0.0
C1160 C 0.4917 0.68753 0.0832 0.0
C1161 C 0.41061 0.64451 0.10033 0.0
H1162 H 0.43175 0.58259 0.1128 0.0
C1163 C 0.36402 0.50811 0.08856 0.0
C1164 C 0.34858 0.50515 0.06362 0.0
C1165 C 0.376 0.53496 0.1039 0.0
C1166 C 0.42498 0.59938 0.11022 0.0
H1167 H 0.48217 0.75686 0.09753 0.0
H1168 H 0.44362 0.70701 0.11371 0.0
H1169 H 0.47052 0.63506 0.1149 0.0
H1170 H 0.33169 0.52654 0.03588 0.0
H1171 H 0.35297 0.5733 0.06164 0.0
H1172 H 0.36495 0.60877 0.09597 0.0
C1173 C 0.46298 0.70908 0.10261 0.0
C1174 C 0.44755 0.62969 0.11085 0.0
C1175 C 0.48505 0.73765 0.09331 0.0
C1176 C 0.3429 0.5281 0.05549 0.0
C1177 C 0.35528 0.55508 0.07041 0.0
C1178 C 0.38787 0.61415 0.10033 0.0
C1179 C 0.46581 0.68355 0.0973 0.0
C1180 C 0.44098 0.65251 0.10404 0.0
C1181 C 0.37369 0.55963 0.09383 0.0
C1182 C 0.39507 0.59109 0.10334 0.0
H1183 H 0.53311 0.71816 0.06291 0.0
H1184 H 0.49445 0.66844 0.07806 0.0
H1185 H 0.40452 0.66141 0.09532 0.0
H1186 H 0.36889 0.49068 0.09498 0.0
H1187 H 0.38921 0.53721 0.1223 0.0
C1188 C 0.80446 0.33316 0.04975 0.0
C1189 C 0.83286 0.34327 0.06176 0.0
C1190 C 0.784 0.34004 0.06199 0.0
C1191 C 0.78957 0.40329 0.10144 0.0
H1192 H 0.70534 0.36479 0.07984 0.0
C1193 C 0.73155 0.47292 0.08663 0.0
C1194 C 0.72206 0.47086 0.0588 0.0
C1195 C 0.73736 0.45112 0.09776 0.0
C1196 C 0.7287 0.37564 0.08644 0.0
H1197 H 0.86189 0.36704 0.09658 0.0
H1198 H 0.82554 0.37827 0.11893 0.0
H1199 H 0.73006 0.33459 0.08356 0.0
H1200 H 0.70881 0.44313 0.02156 0.0
H1201 H 0.71897 0.40501 0.04101 0.0
H1202 H 0.78848 0.44446 0.10332 0.0
C1203 C 0.81909 0.3652 0.09985 0.0
C1204 C 0.74293 0.35845 0.08848 0.0
C1205 C 0.83981 0.35857 0.0873 0.0
C1206 C 0.71656 0.44555 0.04292 0.0
C1207 C 0.72198 0.42353 0.05418 0.0
C1208 C 0.7752 0.4203 0.09991 0.0
C1209 C 0.79161 0.35748 0.08649 0.0
C1210 C 0.77409 0.3725 0.09411 0.0
C1211 C 0.73331 0.4266 0.08141 0.0
C1212 C 0.74518 0.40699 0.09078 0.0
H1213 H 0.79903 0.32206 0.0296 0.0
H1214 H 0.76344 0.33402 0.0507 0.0
H1215 H 0.81355 0.4151 0.10571 0.0
H1216 H 0.73566 0.49202 0.09952 0.0
H1217 H 0.74603 0.45395 0.11881 0.0
C1218 C 0.47201 0.83296 0.07944 0.0
C1219 C 0.48838 0.82704 0.05952 0.0
C1220 C 0.44331 0.81019 0.08755 0.0
C1221 C 0.38233 0.74257 0.05313 0.0
H1222 H 0.33597 0.75397 0.11074 0.0
C1223 C 0.27197 0.7365 0.02855 0.0
C1224 C 0.24911 0.72742 0.04855 0.0
C1225 C 0.29921 0.73817 0.03533 0.0
C1226 C 0.34843 0.74982 0.0948 0.0
H1227 H 0.48809 0.79258 0.03312 0.0
H1228 H 0.4405 0.75203 0.0502 0.0
H1229 H 0.38977 0.77395 0.11747 0.0
H1230 H 0.23629 0.71178 0.09111 0.0
H1231 H 0.28405 0.71449 0.1029 0.0
H1232 H 0.34102 0.71834 0.0306 0.0
C1233 C 0.44882 0.77439 0.05879 0.0
C1234 C 0.37947 0.7617 0.09846 0.0
C1235 C 0.47678 0.79747 0.04969 0.0
C1236 C 0.25371 0.71923 0.07533 0.0
C1237 C 0.281 0.72074 0.08209 0.0
C1238 C 0.35135 0.73018 0.0498 0.0
C1239 C 0.43058 0.78093 0.07603 0.0
C1240 C 0.3972 0.76013 0.07679 0.0
C1241 C 0.30418 0.73054 0.06222 0.0
C1242 C 0.33447 0.73554 0.06965 0.0
H1243 H 0.48014 0.85582 0.0867 0.0
H1244 H 0.43023 0.81658 0.10066 0.0
H1245 H 0.39463 0.74048 0.03578 0.0
H1246 H 0.26914 0.74296 1.00777 0.0
H1247 H 0.31679 0.74652 0.01967 0.0
C1248 C 0.49628 0.28243 0.08198 0.0
C1249 C 0.50096 0.25767 0.08137 0.0
C1250 C 0.51874 0.31039 0.0918 0.0
C1251 C 0.60104 0.35451 0.09907 0.0
H1252 H 0.57986 0.41396 0.12284 0.0
C1253 C 0.64114 0.48963 0.08934 0.0
C1254 C 0.64837 0.49087 0.06104 0.0
C1255 C 0.63282 0.4632 0.10463 0.0
C1256 C 0.58668 0.39778 0.11708 0.0
H1257 H 0.53214 0.24225 0.09215 0.0
H1258 H 0.57146 0.29116 0.10962 0.0
H1259 H 0.5433 0.36064 0.12746 0.0
H1260 H 0.65338 0.46663 0.02649 0.0
H1261 H 0.63948 0.42122 0.05262 0.0
H1262 H 0.64428 0.39174 0.08826 0.0
C1263 C 0.55063 0.28914 0.10195 0.0
C1264 C 0.56542 0.36708 0.11924 0.0
C1265 C 0.52815 0.26113 0.09185 0.0
C1266 C 0.6487 0.46633 0.04856 0.0
C1267 C 0.64081 0.4403 0.0637 0.0
C1268 C 0.62252 0.38521 0.09745 0.0
C1269 C 0.5464 0.31429 0.10161 0.0
C1270 C 0.57153 0.34523 0.10815 0.0
C1271 C 0.63145 0.4378 0.0916 0.0
C1272 C 0.61466 0.40717 0.1042 0.0
H1273 H 0.47556 0.2805 0.07407 0.0
H1274 H 0.51478 0.32926 0.09048 0.0
H1275 H 0.60685 0.33842 0.0907 0.0
H1276 H 0.64026 0.50827 0.09911 0.0
H1277 H 0.62576 0.46202 0.12609 0.0
C1278 C 0.26753 0.53033 0.08278 0.0
C1279 C 0.24406 0.50242 0.07316 0.0
C1280 C 0.26143 0.55268 0.09214 0.0
C1281 C 0.19705 0.56518 0.11003 0.0
H1282 H 0.25027 0.6455 0.08132 0.0
C1283 C 0.18074 0.65469 0.04711 0.0
C1284 C 0.1551 0.65188 0.06031 0.0
C1285 C 0.19883 0.6454 0.06038 0.0
C1286 C 0.2352 0.62324 0.08968 0.0
H1287 H 0.19582 0.4759 0.06612 0.0
H1288 H 0.18533 0.51486 0.08113 0.0
H1289 H 0.26676 0.60851 0.08133 0.0
H1290 H 0.12844 0.63826 0.09799 0.0
H1291 H 0.16057 0.6223 0.12194 0.0
H1292 H 0.16419 0.57869 0.11539 0.0
C1293 C 0.20835 0.51945 0.08249 0.0
C1294 C 0.24482 0.60204 0.08998 0.0
C1295 C 0.2144 0.49712 0.07348 0.0
C1296 C 0.14855 0.64112 0.08772 0.0
C1297 C 0.16681 0.6318 0.10122 0.0
C1298 C 0.18717 0.58613 0.10912 0.0
C1299 C 0.23175 0.54763 0.09183 0.0
C1300 C 0.2251 0.57216 0.09855 0.0
C1301 C 0.19139 0.63251 0.08716 0.0
C1302 C 0.2054 0.61479 0.09721 0.0
H1303 H 0.29059 0.5349 0.08313 0.0
H1304 H 0.28 0.57394 0.09941 0.0
H1305 H 0.18173 0.54275 0.1179 0.0
H1306 H 0.1856 0.6621 0.0256 0.0
H1307 H 0.21704 0.6459 0.04848 0.0
C1308 C 0.80569 0.47308 0.48054 0.0
C1309 C 0.83423 0.49168 0.46892 0.0
C1310 C 0.78532 0.44604 0.46769 0.0
C1311 C 0.79117 0.38927 0.42713 0.0
H1312 H 0.70686 0.34314 0.44835 0.0
C1313 C 0.73364 0.26162 0.44238 0.0
C1314 C 0.72469 0.25467 0.47038 0.0
C1315 C 0.73907 0.289 0.43091 0.0
C1316 C 0.73023 0.35576 0.44179 0.0
H1317 H 0.86365 0.49785 0.43421 0.0
H1318 H 0.8275 0.45078 0.41083 0.0
H1319 H 0.73158 0.39814 0.44506 0.0
H1320 H 0.71187 0.2696 0.50756 0.0
H1321 H 0.72128 0.31739 0.48752 0.0
H1322 H 0.79011 0.34703 0.42494 0.0
C1323 C 0.82085 0.45693 0.43005 0.0
C1324 C 0.74447 0.38723 0.44001 0.0
C1325 C 0.84146 0.48397 0.4432 0.0
C1326 C 0.71924 0.2746 0.48608 0.0
C1327 C 0.72421 0.30174 0.47448 0.0
C1328 C 0.7768 0.35784 0.42838 0.0
C1329 C 0.79318 0.43684 0.44296 0.0
C1330 C 0.77567 0.40446 0.43466 0.0
C1331 C 0.73509 0.30961 0.44708 0.0
C1332 C 0.74677 0.341 0.43744 0.0
H1333 H 0.80005 0.47823 0.50082 0.0
H1334 H 0.76462 0.43122 0.47868 0.0
H1335 H 0.81519 0.40154 0.42301 0.0
H1336 H 0.73771 0.24652 0.42965 0.0
H1337 H 0.74744 0.29457 0.40975 0.0
C1338 C 0.31843 0.7972 0.48904 0.0
C1339 C 0.33563 0.82542 0.47613 0.0
C1340 C 0.32328 0.77342 0.48272 0.0
C1341 C 0.37042 0.7501 0.44272 0.0
H1342 H 0.39174 0.73707 0.51686 0.0
C1343 C 0.47163 0.734 0.46336 0.0
C1344 C 0.47316 0.72035 0.48819 0.0
C1345 C 0.44647 0.73688 0.45759 0.0
C1346 C 0.38528 0.73937 0.49593 0.0
H1347 H 0.37039 0.85064 0.44567 0.0
H1348 H 0.37977 0.80926 0.43515 0.0
H1349 H 0.35934 0.75813 0.51156 0.0
H1350 H 0.44868 0.6966 0.52527 0.0
H1351 H 0.40408 0.70008 0.51462 0.0
H1352 H 0.39716 0.73184 0.42717 0.0
C1353 C 0.36156 0.80508 0.44926 0.0
C1354 C 0.36657 0.7516 0.49289 0.0
C1355 C 0.35631 0.82882 0.45531 0.0
C1356 C 0.44838 0.70798 0.50634 0.0
C1357 C 0.42285 0.71006 0.5002 0.0
C1358 C 0.38881 0.73723 0.44575 0.0
C1359 C 0.34642 0.77785 0.46427 0.0
C1360 C 0.35988 0.75819 0.46633 0.0
C1361 C 0.42197 0.72551 0.47624 0.0
C1362 C 0.39754 0.73294 0.47246 0.0
H1363 H 0.3032 0.79432 0.50598 0.0
H1364 H 0.31117 0.75261 0.49445 0.0
H1365 H 0.36544 0.75483 0.422 0.0
H1366 H 0.49042 0.74357 0.44891 0.0
H1367 H 0.44701 0.74931 0.43915 0.0
C1368 C 0.71709 0.5086 0.45938 0.0
C1369 C 0.74205 0.50456 0.45628 0.0
C1370 C 0.68881 0.48686 0.44956 0.0
C1371 C 0.64485 0.40585 0.43228 0.0
H1372 H 0.58536 0.42962 0.41704 0.0
C1373 C 0.50985 0.3647 0.44332 0.0
C1374 C 0.50661 0.34984 0.46867 0.0
C1375 C 0.5364 0.37523 0.42778 0.0
C1376 C 0.60146 0.42209 0.42036 0.0
H1377 H 0.75747 0.4754 0.43917 0.0
H1378 H 0.70802 0.4374 0.42162 0.0
H1379 H 0.63827 0.46705 0.41554 0.0
H1380 H 0.52716 0.33266 0.4971 0.0
H1381 H 0.57342 0.35159 0.4711 0.0
H1382 H 0.60798 0.36076 0.43672 0.0
C1383 C 0.71009 0.45705 0.43223 0.0
C1384 C 0.63202 0.44389 0.42008 0.0
C1385 C 0.73841 0.47874 0.44238 0.0
C1386 C 0.52896 0.34347 0.4772 0.0
C1387 C 0.55563 0.35444 0.4621 0.0
C1388 C 0.61426 0.38385 0.43184 0.0
C1389 C 0.68483 0.46069 0.43595 0.0
C1390 C 0.6539 0.43646 0.42813 0.0
C1391 C 0.56052 0.37208 0.43805 0.0
C1392 C 0.59205 0.39211 0.42808 0.0
H1393 H 0.7192 0.52824 0.47006 0.0
H1394 H 0.66988 0.49021 0.45358 0.0
H1395 H 0.66102 0.39906 0.43811 0.0
H1396 H 0.4929 0.37012 0.43661 0.0
H1397 H 0.53894 0.38796 0.40896 0.0
C1398 C 0.25357 0.73985 0.43984 0.0
C1399 C 0.23102 0.74314 0.45337 0.0
C1400 C 0.24733 0.7117 0.42957 0.0
C1401 C 0.18349 0.63275 0.4174 0.0
H1402 H 0.24372 0.61101 0.4363 0.0
C1403 C 0.18209 0.53174 0.47669 0.0
C1404 C 0.15506 0.50785 0.46645 0.0
C1405 C 0.19746 0.55866 0.46193 0.0
C1406 C 0.22666 0.61668 0.43067 0.0
H1407 H 0.18413 0.71982 0.46611 0.0
H1408 H 0.17351 0.67072 0.44944 0.0
H1409 H 0.25722 0.66372 0.43675 0.0
H1410 H 0.12318 0.4924 0.4324 0.0
H1411 H 0.15033 0.53962 0.4059 0.0
H1412 H 0.15206 0.58562 0.41449 0.0
C1413 C 0.19581 0.68984 0.44583 0.0
C1414 C 0.23451 0.64707 0.43061 0.0
C1415 C 0.20195 0.718 0.45574 0.0
C1416 C 0.14442 0.51046 0.44031 0.0
C1417 C 0.15984 0.53757 0.42537 0.0
C1418 C 0.17548 0.60235 0.41808 0.0
C1419 C 0.21848 0.68618 0.43287 0.0
C1420 C 0.21251 0.65532 0.42564 0.0
C1421 C 0.18567 0.56259 0.43679 0.0
C1422 C 0.1965 0.59385 0.4265 0.0
H1423 H 0.2761 0.759 0.43728 0.0
H1424 H 0.26525 0.70991 0.4194 0.0
H1425 H 0.16625 0.63835 0.41233 0.0
H1426 H 0.18989 0.53064 0.49742 0.0
H1427 H 0.21681 0.57729 0.47187 0.0
C1428 C 0.52882 0.27003 0.44475 0.0
C1429 C 0.50179 0.2462 0.45546 0.0
C1430 C 0.55117 0.2646 0.43424 0.0
C1431 C 0.56567 0.20159 0.41578 0.0
H1432 H 0.64548 0.25634 0.44473 0.0
C1433 C 0.65225 0.18646 0.4823 0.0
C1434 C 0.65122 0.16147 0.46934 0.0
C1435 C 0.64377 0.2046 0.46795 0.0
C1436 C 0.62343 0.24095 0.43614 0.0
H1437 H 0.4766 0.19794 0.46287 0.0
H1438 H 0.51567 0.18857 0.44578 0.0
H1439 H 0.60773 0.27181 0.44411 0.0
H1440 H 0.6411 0.1357 0.4312 0.0
H1441 H 0.6258 0.16755 0.40559 0.0
H1442 H 0.58023 0.16942 0.41092 0.0
C1443 C 0.51955 0.21139 0.44458 0.0
C1444 C 0.60176 0.24993 0.43554 0.0
C1445 C 0.49719 0.21679 0.45478 0.0
C1446 C 0.64269 0.1554 0.44129 0.0
C1447 C 0.63384 0.17352 0.4268 0.0
C1448 C 0.58713 0.19239 0.41691 0.0
C1449 C 0.54701 0.23523 0.43442 0.0
C1450 C 0.57201 0.22953 0.42715 0.0
C1451 C 0.63307 0.19759 0.44041 0.0
C1452 C 0.61554 0.21118 0.42902 0.0
H1453 H 0.53272 0.29286 0.44448 0.0
H1454 H 0.57184 0.28346 0.42632 0.0
H1455 H 0.54333 0.18578 0.40806 0.0
H1456 H 0.65777 0.19084 0.50425 0.0
H1457 H 0.64295 0.22238 0.47948 0.0
C1458 C 0.46986 0.64885 0.49353 0.0
C1459 C 0.49311 0.64995 0.47732 0.0
C1460 C 0.44282 0.64277 0.48138 0.0
C1461 C 0.39143 0.59546 0.43112 0.0
H1462 H 0.34697 0.63322 0.4587 0.0
C1463 C 0.26243 0.52784 0.44404 0.0
C1464 C 0.25461 0.52862 0.47203 0.0
C1465 C 0.29087 0.54927 0.43396 0.0
C1466 C 0.35906 0.6226 0.45035 0.0
H1467 H 0.5065 0.64473 0.43588 0.0
H1468 H 0.45786 0.63284 0.41421 0.0
H1469 H 0.40207 0.6617 0.45816 0.0
H1470 H 0.26957 0.55353 0.51082 0.0
H1471 H 0.31904 0.59092 0.49328 0.0
H1472 H 0.34852 0.55551 0.42548 0.0
C1473 C 0.46136 0.63802 0.43625 0.0
C1474 C 0.39054 0.63895 0.44988 0.0
C1475 C 0.48899 0.64476 0.44853 0.0
C1476 C 0.27506 0.55217 0.48926 0.0
C1477 C 0.30327 0.57379 0.47909 0.0
C1478 C 0.35988 0.5791 0.43145 0.0
C1479 C 0.43801 0.63682 0.45274 0.0
C1480 C 0.40695 0.62482 0.44213 0.0
C1481 C 0.31175 0.57216 0.45154 0.0
C1482 C 0.34353 0.59194 0.44282 0.0
H1483 H 0.47232 0.65185 0.51594 0.0
H1484 H 0.42496 0.641 0.49478 0.0
H1485 H 0.40354 0.58399 0.42518 0.0
H1486 H 0.24703 0.51003 0.43019 0.0
H1487 H 0.29683 0.5475 0.41266 0.0
C1488 C 0.45212 0.06278 0.98736 0.0
C1489 C 0.47487 0.09321 0.98935 0.0
C1490 C 0.45888 0.04098 0.97733 0.0
C1491 C 0.48111 0.99968 0.95091 0.0
H1492 H 0.54944 0.01012 0.99455 0.0
C1493 C 0.49769 0.90022 0.9811 0.0
C1494 C 0.52587 0.90528 0.99042 0.0
C1495 C 0.49414 0.924 0.97141 0.0
C1496 C 0.53086 0.00696 0.98146 0.0
H1497 H 0.52186 0.12492 0.98071 0.0
H1498 H 0.53334 0.0874 0.96249 0.0
H1499 H 0.53669 0.04972 0.99384 0.0
H1500 H 0.57285 0.93908 0.99532 0.0
H1501 H 0.56738 0.98047 0.97647 0.0
H1502 H 0.47523 0.95685 0.93848 0.0
C1503 C 0.51037 0.08018 0.96872 0.0
C1504 C 0.5234 0.02979 0.98122 0.0
C1505 C 0.50363 0.10179 0.97868 0.0
C1506 C 0.55107 0.93424 0.98746 0.0
C1507 C 0.54763 0.95816 0.97737 0.0
C1508 C 0.48893 0.97697 0.95069 0.0
C1509 C 0.48858 0.04934 0.96944 0.0
C1510 C 0.49806 0.02621 0.96648 0.0
C1511 C 0.51877 0.9537 0.97064 0.0
C1512 C 0.51345 0.97984 0.96664 0.0
H1513 H 0.43006 0.05538 0.99629 0.0
H1514 H 0.4416 0.01737 0.97827 0.0
H1515 H 0.46161 0.99635 0.93916 0.0
H1516 H 0.47775 0.87817 0.98354 0.0
H1517 H 0.47148 0.91924 0.9668 0.0
C1518 C 0.40385 0.50145 0.97454 0.0
C1519 C 0.38107 0.47289 0.98345 0.0
C1520 C 0.43067 0.50534 0.96316 0.0
C1521 C 0.47633 0.46792 0.96918 0.0
H1522 H 0.5354 0.5398 0.9301 0.0
C1523 C 0.59843 0.49736 0.97027 0.0
C1524 C 0.6173 0.52561 0.98261 0.0
C1525 C 0.57078 0.4907 0.95864 0.0
C1526 C 0.51909 0.51952 0.94086 0.0
H1527 H 0.36773 0.42565 0.98574 0.0
H1528 H 0.41344 0.43175 0.96378 0.0
H1529 H 0.48217 0.52574 0.92927 0.0
H1530 H 0.6231 0.5698 0.99061 0.0
H1531 H 0.57468 0.55833 0.97001 0.0
H1532 H 0.51318 0.46188 0.98097 0.0
C1533 C 0.41111 0.45152 0.96633 0.0
C1534 C 0.48852 0.51146 0.94056 0.0
C1535 C 0.38436 0.44774 0.9782 0.0
C1536 C 0.60939 0.54815 0.98054 0.0
C1537 C 0.5815 0.54143 0.96895 0.0
C1538 C 0.50665 0.47566 0.96902 0.0
C1539 C 0.43545 0.48066 0.9603 0.0
C1540 C 0.46677 0.48606 0.95554 0.0
C1541 C 0.56114 0.51201 0.95947 0.0
C1542 C 0.52855 0.50197 0.95553 0.0
H1543 H 0.40212 0.52133 0.97887 0.0
H1544 H 0.44857 0.52819 0.95913 0.0
H1545 H 0.46082 0.44863 0.98152 0.0
H1546 H 0.60358 0.47931 0.97222 0.0
H1547 H 0.55581 0.46798 0.95117 0.0
C1548 C 0.93329 0.38651 0.98202 0.0
C1549 C 0.90472 0.38276 0.98752 0.0
C1550 C 0.9561 0.41368 0.9705 0.0
C1551 C 0.97231 0.49074 0.94483 0.0
H1552 H 0.04773 0.51674 0.98358 0.0
C1553 C 0.05739 0.61298 0.98189 0.0
C1554 C 0.08795 0.62114 0.98316 0.0
C1555 C 0.03588 0.58468 0.97116 0.0
C1556 C 0.02705 0.50983 0.97211 0.0
H1557 H 0.87695 0.40343 0.98372 0.0
H1558 H 0.91622 0.45049 0.96454 0.0
H1559 H 0.00887 0.46415 0.9851 0.0
H1560 H 0.12023 0.60728 0.97219 0.0
H1561 H 0.08322 0.55886 0.95255 0.0
H1562 H 0.99026 0.53742 0.93378 0.0
C1563 C 0.92142 0.43272 0.96819 0.0
C1564 C 0.00463 0.47939 0.97283 0.0
C1565 C 0.89871 0.40557 0.97931 0.0
C1566 C 0.09698 0.60203 0.97078 0.0
C1567 C 0.07565 0.57396 0.96001 0.0
C1568 C 0.99466 0.52142 0.94455 0.0
C1569 C 0.95095 0.43787 0.9649 0.0
C1570 C 0.97656 0.46935 0.95976 0.0
C1571 C 0.0447 0.56414 0.96172 0.0
C1572 C 0.02212 0.53137 0.9586 0.0
H1573 H 0.93889 0.3698 0.98897 0.0
H1574 H 0.97828 0.41633 0.96766 0.0
H1575 H 0.95137 0.48401 0.93395 0.0
H1576 H 0.04971 0.62685 0.99204 0.0
H1577 H 0.01219 0.57776 0.97286 0.0
C1578 C 0.93429 0.54855 0.5493 0.0
C1579 C 0.90595 0.5235 0.54342 0.0
C1580 C 0.95724 0.5445 0.56084 0.0
C1581 C 0.97441 0.4841 0.58571 0.0
H1582 H 0.04996 0.53522 0.54773 0.0
C1583 C 0.06045 0.44924 0.54732 0.0
C1584 C 0.09097 0.47186 0.54639 0.0
C1585 C 0.03879 0.45551 0.55845 0.0
C1586 C 0.02925 0.52099 0.559 0.0
H1587 H 0.87872 0.47488 0.54655 0.0
H1588 H 0.91829 0.4676 0.5657 0.0
H1589 H 0.01058 0.54814 0.54644 0.0
H1590 H 0.123 0.51786 0.55818 0.0
H1591 H 0.08566 0.52842 0.57839 0.0
H1592 H 0.99287 0.45572 0.59626 0.0
C1593 C 0.92317 0.49053 0.56235 0.0
C1594 C 0.00652 0.52852 0.55841 0.0
C1595 C 0.90029 0.49467 0.55124 0.0
C1596 C 0.09979 0.49969 0.55936 0.0
C1597 C 0.07828 0.50594 0.57046 0.0
C1598 C 0.99707 0.47626 0.58585 0.0
C1599 C 0.9525 0.51522 0.56605 0.0
C1600 C 0.97839 0.50986 0.57116 0.0
C1601 C 0.04738 0.4846 0.56854 0.0
C1602 C 0.02457 0.49436 0.57205 0.0
H1603 H 0.93965 0.57088 0.54262 0.0
H1604 H 0.97924 0.56424 0.56399 0.0
H1605 H 0.95343 0.4694 0.59636 0.0
H1606 H 0.05293 0.42795 0.53668 0.0
H1607 H 0.01514 0.4386 0.55654 0.0
C1608 C 0.59448 0.09748 0.55405 0.0
C1609 C 0.61753 0.09209 0.54522 0.0
C1610 C 0.56706 0.07399 0.5639 0.0
C1611 C 0.52097 0.99108 0.55401 0.0
H1612 H 0.46096 0.00195 0.59356 0.0
C1613 C 0.38603 0.93448 0.54516 0.0
C1614 C 0.37861 0.90409 0.54389 0.0
C1615 C 0.4145 0.95665 0.55511 0.0
C1616 C 0.47751 0.99857 0.58255 0.0
H1617 H 0.63083 0.05823 0.542 0.0
H1618 H 0.58374 0.01735 0.56112 0.0
H1619 H 0.5141 0.04139 0.59556 0.0
H1620 H 0.39404 0.87278 0.55391 0.0
H1621 H 0.44289 0.91096 0.57188 0.0
H1622 H 0.48442 0.94835 0.54104 0.0
C1623 C 0.58637 0.03966 0.55955 0.0
C1624 C 0.50805 0.02122 0.58355 0.0
C1625 C 0.61383 0.06328 0.5493 0.0
C1626 C 0.39892 0.89596 0.55508 0.0
C1627 C 0.42712 0.91791 0.56501 0.0
C1628 C 0.49065 0.96833 0.55346 0.0
C1629 C 0.56187 0.04427 0.56533 0.0
C1630 C 0.53023 0.01821 0.56865 0.0
C1631 C 0.43594 0.94866 0.56372 0.0
C1632 C 0.46842 0.97199 0.56721 0.0
H1633 H 0.59652 0.11938 0.55064 0.0
H1634 H 0.54912 0.07887 0.56784 0.0
H1635 H 0.53681 0.98783 0.54166 0.0
H1636 H 0.37122 0.94149 0.53592 0.0
H1637 H 0.42066 0.98018 0.55375 0.0
C1638 C 0.55975 0.61741 0.55505 0.0
C1639 C 0.53452 0.62082 0.55096 0.0
C1640 C 0.55631 0.59073 0.56687 0.0
C1641 C 0.49699 0.51372 0.59427 0.0
H1642 H 0.54335 0.48775 0.55034 0.0
C1643 C 0.45622 0.39202 0.55335 0.0
C1644 C 0.47817 0.38345 0.55018 0.0
C1645 C 0.46401 0.42024 0.56499 0.0
C1646 C 0.53048 0.49465 0.56324 0.0
H1647 H 0.48655 0.6005 0.55817 0.0
H1648 H 0.48026 0.55431 0.57794 0.0
H1649 H 0.55754 0.54043 0.55053 0.0
H1650 H 0.52472 0.39657 0.55837 0.0
H1651 H 0.53793 0.44487 0.57952 0.0
H1652 H 0.4685 0.4669 0.60499 0.0
C1653 C 0.50291 0.5719 0.57283 0.0
C1654 C 0.53879 0.52516 0.56353 0.0
C1655 C 0.50649 0.59861 0.56146 0.0
C1656 C 0.50709 0.40216 0.56127 0.0
C1657 C 0.51483 0.43013 0.57295 0.0
C1658 C 0.48833 0.48297 0.59353 0.0
C1659 C 0.52741 0.56671 0.57415 0.0
C1660 C 0.52178 0.5352 0.57846 0.0
C1661 C 0.49393 0.44029 0.57338 0.0
C1662 C 0.50469 0.47304 0.57758 0.0
H1663 H 0.58147 0.63378 0.54654 0.0
H1664 H 0.57599 0.58814 0.56833 0.0
H1665 H 0.4836 0.52044 0.60657 0.0
H1666 H 0.43406 0.37849 0.54416 0.0
H1667 H 0.44742 0.42748 0.56488 0.0
loop_
_geom_bond_atom_site_label_1
_geom_bond_atom_site_label_2
_geom_bond_distance
_geom_bond_site_symmetry_2
_ccdc_geom_bond_type
Zn0 N4 2.020 . S
Zn0 O8 2.019 . S
Zn0 N10 2.119 . S
Zn0 O18 1.975 . S
C1 N2 1.343 . S
C1 N5 1.336 . S
N2 C1 1.343 . S
N2 C3 1.325 1_554 S
C3 N2 1.325 1_556 S
C3 N4 1.336 . S
N4 Zn0 2.020 . S
N4 C3 1.336 . S
N4 N5 1.354 1_556 S
N5 C1 1.336 . S
N5 N4 1.354 1_554 S
N5 Zn9 2.020 . S
C6 O7 1.244 1_554 S
C6 O30 1.257 . S
O7 C6 1.244 1_556 S
O8 Zn0 2.019 . S
O8 C28 1.257 . S
Zn9 N5 2.020 . S
Zn9 O16 1.975 . S
Zn9 N25 2.119 . S
Zn9 O30 2.019 . S
N10 Zn0 2.119 . S
N10 C12 1.334 . S
N10 C13 1.328 . S
C11 C12 1.391 . S
C11 N14 1.329 . S
C11 H32 0.930 . S
C12 N10 1.334 . S
C12 C11 1.391 . S
C12 H19 0.930 . S
C13 N10 1.328 . S
C13 C15 1.392 . S
C13 H20 0.930 . S
N14 C11 1.329 . S
N14 C15 1.331 . S
C15 C13 1.392 . S
C15 N14 1.331 . S
O16 Zn9 1.975 . S
O16 C17 1.251 1_554 S
C17 O16 1.251 1_556 S
C17 O18 1.253 . S
O18 Zn0 1.975 . S
O18 C17 1.253 . S
H19 C12 0.930 . S
H20 C13 0.930 . S
C21 C22 1.392 . S
C21 N25 1.328 . S
C21 H27 0.930 . S
C22 C21 1.392 . S
C22 N26 1.331 . S
C23 C24 1.391 . S
C23 N26 1.329 . S
C23 H33 0.930 . S
C24 C23 1.391 . S
C24 N25 1.334 . S
C24 H31 0.930 . S
N25 Zn9 2.119 . S
N25 C21 1.328 . S
N25 C24 1.334 . S
N26 C22 1.331 . S
N26 C23 1.329 . S
H27 C21 0.930 . S
C28 O8 1.257 . S
C28 O29 1.244 1_556 S
O29 C28 1.244 1_554 S
O30 C6 1.257 . S
O30 Zn9 2.019 . S
H31 C24 0.930 . S
H32 C11 0.930 . S
H33 C23 0.930 . S
Zn34 N38 2.020 . S
Zn34 O42 2.019 . S
Zn34 N44 2.119 . S
Zn34 O52 1.975 . S
C35 N36 1.325 1_556 S
C35 N39 1.336 . S
N36 C35 1.325 1_554 S
N36 C37 1.343 . S
C37 N36 1.343 . S
C37 N38 1.336 . S
N38 Zn34 2.020 . S
N38 C37 1.336 . S
N38 N39 1.354 1_554 S
N39 C35 1.336 . S
N39 N38 1.354 1_556 S
N39 Zn43 2.020 . S
C40 O41 1.244 1_556 S
C40 O64 1.257 . S
O41 C40 1.244 1_554 S
O42 Zn34 2.019 . S
O42 C62 1.257 . S
Zn43 N39 2.020 . S
Zn43 O50 1.975 . S
Zn43 N59 2.119 . S
Zn43 O64 2.019 . S
N44 Zn34 2.119 . S
N44 C46 1.334 . S
N44 C47 1.328 . S
C45 C46 1.391 . S
C45 N48 1.329 . S
C45 H66 0.930 . S
C46 N44 1.334 . S
C46 C45 1.391 . S
C46 H53 0.930 . S
C47 N44 1.328 . S
C47 C49 1.392 . S
C47 H54 0.930 . S
N48 C45 1.329 . S
N48 C49 1.331 . S
C49 C47 1.392 . S
C49 N48 1.331 . S
O50 Zn43 1.975 . S
O50 C51 1.253 . S
C51 O50 1.253 . S
C51 O52 1.251 1_556 S
O52 Zn34 1.975 . S
O52 C51 1.251 1_554 S
H53 C46 0.930 . S
H54 C47 0.930 . S
C55 C56 1.392 . S
C55 N59 1.328 . S
C55 H61 0.930 . S
C56 C55 1.392 . S
C56 N60 1.331 . S
C57 C58 1.391 . S
C57 N60 1.329 . S
C57 H67 0.930 . S
C58 C57 1.391 . S
C58 N59 1.334 . S
C58 H65 0.930 . S
N59 Zn43 2.119 . S
N59 C55 1.328 . S
N59 C58 1.334 . S
N60 C56 1.331 . S
N60 C57 1.329 . S
H61 C55 0.930 . S
C62 O42 1.257 . S
C62 O63 1.244 1_554 S
O63 C62 1.244 1_556 S
O64 C40 1.257 . S
O64 Zn43 2.019 . S
H65 C58 0.930 . S
H66 C45 0.930 . S
H67 C57 0.930 . S
Zn68 N72 2.020 . S
Zn68 O76 2.019 . S
Zn68 N78 2.119 . S
Zn68 O86 1.975 . S
C69 N70 1.343 . S
C69 N73 1.336 . S
N70 C69 1.343 . S
N70 C71 1.325 1_554 S
C71 N70 1.325 1_556 S
C71 N72 1.336 . S
N72 Zn68 2.020 . S
N72 C71 1.336 . S
N72 N73 1.354 1_556 S
N73 C69 1.336 . S
N73 N72 1.354 1_554 S
N73 Zn77 2.020 . S
C74 O75 1.244 1_554 S
C74 O98 1.257 . S
O75 C74 1.244 1_556 S
O76 Zn68 2.019 . S
O76 C96 1.257 . S
Zn77 N73 2.020 . S
Zn77 O84 1.975 . S
Zn77 N93 2.119 . S
Zn77 O98 2.019 . S
N78 Zn68 2.119 . S
N78 C80 1.334 . S
N78 C81 1.328 . S
C79 C80 1.391 . S
C79 N82 1.329 . S
C79 H100 0.930 . S
C80 N78 1.334 . S
C80 C79 1.391 . S
C80 H87 0.930 . S
C81 N78 1.328 . S
C81 C83 1.392 . S
C81 H88 0.930 . S
N82 C79 1.329 . S
N82 C83 1.331 . S
C83 C81 1.392 . S
C83 N82 1.331 . S
O84 Zn77 1.975 . S
O84 C85 1.251 1_554 S
C85 O84 1.251 1_556 S
C85 O86 1.253 . S
O86 Zn68 1.975 . S
O86 C85 1.253 . S
H87 C80 0.930 . S
H88 C81 0.930 . S
C89 C90 1.392 . S
C89 N93 1.328 . S
C89 H95 0.930 . S
C90 C89 1.392 . S
C90 N94 1.331 . S
C91 C92 1.391 . S
C91 N94 1.329 . S
C91 H101 0.930 . S
C92 C91 1.391 . S
C92 N93 1.334 . S
C92 H99 0.930 . S
N93 Zn77 2.119 . S
N93 C89 1.328 . S
N93 C92 1.334 . S
N94 C90 1.331 . S
N94 C91 1.329 . S
H95 C89 0.930 . S
C96 O76 1.257 . S
C96 O97 1.244 1_556 S
O97 C96 1.244 1_554 S
O98 C74 1.257 . S
O98 Zn77 2.019 . S
H99 C92 0.930 . S
H100 C79 0.930 . S
H101 C91 0.930 . S
Zn102 N106 2.020 . S
Zn102 O110 2.019 . S
Zn102 N112 2.119 . S
Zn102 O120 1.975 . S
C103 N104 1.325 1_556 S
C103 N107 1.336 . S
N104 C103 1.325 1_554 S
N104 C105 1.343 . S
C105 N104 1.343 . S
C105 N106 1.336 . S
N106 Zn102 2.020 . S
N106 C105 1.336 . S
N106 N107 1.354 1_554 S
N107 C103 1.336 . S
N107 N106 1.354 1_556 S
N107 Zn111 2.020 . S
C108 O109 1.244 1_556 S
C108 O132 1.257 . S
O109 C108 1.244 1_554 S
O110 Zn102 2.019 . S
O110 C130 1.257 . S
Zn111 N107 2.020 . S
Zn111 O118 1.975 . S
Zn111 N127 2.119 . S
Zn111 O132 2.019 . S
N112 Zn102 2.119 . S
N112 C114 1.334 . S
N112 C115 1.328 . S
C113 C114 1.391 . S
C113 N116 1.329 . S
C113 H134 0.930 . S
C114 N112 1.334 . S
C114 C113 1.391 . S
C114 H121 0.930 . S
C115 N112 1.328 . S
C115 C117 1.392 . S
C115 H122 0.930 . S
N116 C113 1.329 . S
N116 C117 1.331 . S
C117 C115 1.392 . S
C117 N116 1.331 . S
O118 Zn111 1.975 . S
O118 C119 1.253 . S
C119 O118 1.253 . S
C119 O120 1.251 1_556 S
O120 Zn102 1.975 . S
O120 C119 1.251 1_554 S
H121 C114 0.930 . S
H122 C115 0.930 . S
C123 C124 1.392 . S
C123 N127 1.328 . S
C123 H129 0.930 . S
C124 C123 1.392 . S
C124 N128 1.331 . S
C125 C126 1.391 . S
C125 N128 1.329 . S
C125 H135 0.930 . S
C126 C125 1.391 . S
C126 N127 1.334 . S
C126 H133 0.930 . S
N127 Zn111 2.119 . S
N127 C123 1.328 . S
N127 C126 1.334 . S
N128 C124 1.331 . S
N128 C125 1.329 . S
H129 C123 0.930 . S
C130 O110 1.257 . S
C130 O131 1.244 1_554 S
O131 C130 1.244 1_556 S
O132 C108 1.257 . S
O132 Zn111 2.019 . S
H133 C126 0.930 . S
H134 C113 0.930 . S
H135 C125 0.930 . S
Zn136 N140 2.020 . S
Zn136 O144 2.019 . S
Zn136 N146 2.119 . S
Zn136 O154 1.975 . S
C137 N138 1.343 . S
C137 N141 1.336 . S
N138 C137 1.343 . S
N138 C139 1.325 1_554 S
C139 N138 1.325 1_556 S
C139 N140 1.336 . S
N140 Zn136 2.020 . S
N140 C139 1.336 . S
N140 N141 1.354 1_556 S
N141 C137 1.336 . S
N141 N140 1.354 1_554 S
N141 Zn145 2.020 . S
C142 O143 1.244 1_554 S
C142 O166 1.257 . S
O143 C142 1.244 1_556 S
O144 Zn136 2.019 . S
O144 C164 1.257 . S
Zn145 N141 2.020 . S
Zn145 O152 1.975 . S
Zn145 N161 2.119 . S
Zn145 O166 2.019 . S
N146 Zn136 2.119 . S
N146 C148 1.334 . S
N146 C149 1.328 . S
C147 C148 1.391 . S
C147 N150 1.329 . S
C147 H168 0.930 . S
C148 N146 1.334 . S
C148 C147 1.391 . S
C148 H155 0.930 . S
C149 N146 1.328 . S
C149 C151 1.392 . S
C149 H156 0.930 . S
N150 C147 1.329 . S
N150 C151 1.331 . S
C151 C149 1.392 . S
C151 N150 1.331 . S
O152 Zn145 1.975 . S
O152 C153 1.251 1_554 S
C153 O152 1.251 1_556 S
C153 O154 1.253 . S
O154 Zn136 1.975 . S
O154 C153 1.253 . S
H155 C148 0.930 . S
H156 C149 0.930 . S
C157 C158 1.392 . S
C157 N161 1.328 . S
C157 H163 0.930 . S
C158 C157 1.392 . S
C158 N162 1.331 . S
C159 C160 1.391 . S
C159 N162 1.329 . S
C159 H169 0.930 . S
C160 C159 1.391 . S
C160 N161 1.334 . S
C160 H167 0.930 . S
N161 Zn145 2.119 . S
N161 C157 1.328 . S
N161 C160 1.334 . S
N162 C158 1.331 . S
N162 C159 1.329 . S
H163 C157 0.930 . S
C164 O144 1.257 . S
C164 O165 1.244 1_556 S
O165 C164 1.244 1_554 S
O166 C142 1.257 . S
O166 Zn145 2.019 . S
H167 C160 0.930 . S
H168 C147 0.930 . S
H169 C159 0.930 . S
Zn170 N174 2.020 . S
Zn170 O178 2.019 . S
Zn170 N180 2.119 . S
Zn170 O188 1.975 . S
C171 N172 1.325 1_556 S
C171 N175 1.336 . S
N172 C171 1.325 1_554 S
N172 C173 1.343 . S
C173 N172 1.343 . S
C173 N174 1.336 . S
N174 Zn170 2.020 . S
N174 C173 1.336 . S
N174 N175 1.354 1_554 S
N175 C171 1.336 . S
N175 N174 1.354 1_556 S
N175 Zn179 2.020 . S
C176 O177 1.244 1_556 S
C176 O200 1.257 . S
O177 C176 1.244 1_554 S
O178 Zn170 2.019 . S
O178 C198 1.257 . S
Zn179 N175 2.020 . S
Zn179 O186 1.975 . S
Zn179 N195 2.119 . S
Zn179 O200 2.019 . S
N180 Zn170 2.119 . S
N180 C182 1.334 . S
N180 C183 1.328 . S
C181 C182 1.391 . S
C181 N184 1.329 . S
C181 H202 0.930 . S
C182 N180 1.334 . S
C182 C181 1.391 . S
C182 H189 0.930 . S
C183 N180 1.328 . S
C183 C185 1.392 . S
C183 H190 0.930 . S
N184 C181 1.329 . S
N184 C185 1.331 . S
C185 C183 1.392 . S
C185 N184 1.331 . S
O186 Zn179 1.975 . S
O186 C187 1.253 . S
C187 O186 1.253 . S
C187 O188 1.251 1_556 S
O188 Zn170 1.975 . S
O188 C187 1.251 1_554 S
H189 C182 0.930 . S
H190 C183 0.930 . S
C191 C192 1.392 . S
C191 N195 1.328 . S
C191 H197 0.930 . S
C192 C191 1.392 . S
C192 N196 1.331 . S
C193 C194 1.391 . S
C193 N196 1.329 . S
C193 H203 0.930 . S
C194 C193 1.391 . S
C194 N195 1.334 . S
C194 H201 0.930 . S
N195 Zn179 2.119 . S
N195 C191 1.328 . S
N195 C194 1.334 . S
N196 C192 1.331 . S
N196 C193 1.329 . S
H197 C191 0.930 . S
C198 O178 1.257 . S
C198 O199 1.244 1_554 S
O199 C198 1.244 1_556 S
O200 C176 1.257 . S
O200 Zn179 2.019 . S
H201 C194 0.930 . S
H202 C181 0.930 . S
H203 C193 0.930 . S
Zn204 N208 2.020 . S
Zn204 O212 2.019 . S
Zn204 N214 2.119 . S
Zn204 O222 1.975 . S
C205 N206 1.334 . S
C205 N209 1.336 . S
N206 C205 1.334 . S
N206 C207 1.334 . S
C207 N206 1.334 . S
C207 N208 1.336 . S
N208 Zn204 2.020 . S
N208 C207 1.336 . S
N208 N209 1.354 . S
N209 C205 1.336 . S
N209 N208 1.354 . S
N209 Zn213 2.020 . S
C210 O211 1.244 . S
C210 O234 1.257 . S
O211 C210 1.244 . S
O212 Zn204 2.019 . S
O212 C232 1.257 . S
Zn213 N209 2.020 . S
Zn213 O220 1.975 . S
Zn213 N229 2.119 . S
Zn213 O234 2.019 . S
N214 Zn204 2.119 . S
N214 C216 1.334 . S
N214 C217 1.328 . S
C215 C216 1.391 . S
C215 N218 1.329 . S
C215 H236 0.930 . S
C216 N214 1.334 . S
C216 C215 1.391 . S
C216 H223 0.930 . S
C217 N214 1.328 . S
C217 C219 1.392 . S
C217 H224 0.930 . S
N218 C215 1.329 . S
N218 C219 1.331 . S
C219 C217 1.392 . S
C219 N218 1.331 . S
O220 Zn213 1.975 . S
O220 C221 1.252 . S
C221 O220 1.252 . S
C221 O222 1.252 . S
O222 Zn204 1.975 . S
O222 C221 1.252 . S
H223 C216 0.930 . S
H224 C217 0.930 . S
C225 C226 1.392 . S
C225 N229 1.328 . S
C225 H231 0.930 . S
C226 C225 1.392 . S
C226 N230 1.331 . S
C227 C228 1.391 . S
C227 N230 1.329 . S
C227 H237 0.930 . S
C228 C227 1.391 . S
C228 N229 1.334 . S
C228 H235 0.930 . S
N229 Zn213 2.119 . S
N229 C225 1.328 . S
N229 C228 1.334 . S
N230 C226 1.331 . S
N230 C227 1.329 . S
H231 C225 0.930 . S
C232 O212 1.257 . S
C232 O233 1.244 . S
O233 C232 1.244 . S
O234 C210 1.257 . S
O234 Zn213 2.019 . S
H235 C228 0.930 . S
H236 C215 0.930 . S
H237 C227 0.930 . S
Zn238 N242 2.020 . S
Zn238 O246 2.019 . S
Zn238 N248 2.119 . S
Zn238 O256 1.975 . S
C239 N240 1.334 . S
C239 N243 1.336 . S
N240 C239 1.334 . S
N240 C241 1.334 . S
C241 N240 1.334 . S
C241 N242 1.336 . S
N242 Zn238 2.020 . S
N242 C241 1.336 . S
N242 N243 1.354 . S
N243 C239 1.336 . S
N243 N242 1.354 . S
N243 Zn247 2.020 . S
C244 O245 1.244 . S
C244 O268 1.257 . S
O245 C244 1.244 . S
O246 Zn238 2.019 . S
O246 C266 1.257 . S
Zn247 N243 2.020 . S
Zn247 O254 1.975 . S
Zn247 N263 2.119 . S
Zn247 O268 2.019 . S
N248 Zn238 2.119 . S
N248 C250 1.334 . S
N248 C251 1.328 . S
C249 C250 1.391 . S
C249 N252 1.329 . S
C249 H270 0.930 . S
C250 N248 1.334 . S
C250 C249 1.391 . S
C250 H257 0.930 . S
C251 N248 1.328 . S
C251 C253 1.392 . S
C251 H258 0.930 . S
N252 C249 1.329 . S
N252 C253 1.331 . S
C253 C251 1.392 . S
C253 N252 1.331 . S
O254 Zn247 1.975 . S
O254 C255 1.252 . S
C255 O254 1.252 . S
C255 O256 1.252 . S
O256 Zn238 1.975 . S
O256 C255 1.252 . S
H257 C250 0.930 . S
H258 C251 0.930 . S
C259 C260 1.392 . S
C259 N263 1.328 . S
C259 H265 0.930 . S
C260 C259 1.392 . S
C260 N264 1.331 . S
C261 C262 1.391 . S
C261 N264 1.329 . S
C261 H271 0.930 . S
C262 C261 1.391 . S
C262 N263 1.334 . S
C262 H269 0.930 . S
N263 Zn247 2.119 . S
N263 C259 1.328 . S
N263 C262 1.334 . S
N264 C260 1.331 . S
N264 C261 1.329 . S
H265 C259 0.930 . S
C266 O246 1.257 . S
C266 O267 1.244 . S
O267 C266 1.244 . S
O268 C244 1.257 . S
O268 Zn247 2.019 . S
H269 C262 0.930 . S
H270 C249 0.930 . S
H271 C261 0.930 . S
Zn272 N276 2.020 . S
Zn272 O280 2.019 . S
Zn272 N282 2.119 . S
Zn272 O290 1.975 . S
C273 N274 1.334 . S
C273 N277 1.336 . S
N274 C273 1.334 . S
N274 C275 1.334 . S
C275 N274 1.334 . S
C275 N276 1.336 . S
N276 Zn272 2.020 . S
N276 C275 1.336 . S
N276 N277 1.354 . S
N277 C273 1.336 . S
N277 N276 1.354 . S
N277 Zn281 2.020 . S
C278 O279 1.244 . S
C278 O302 1.257 . S
O279 C278 1.244 . S
O280 Zn272 2.019 . S
O280 C300 1.257 . S
Zn281 N277 2.020 . S
Zn281 O288 1.975 . S
Zn281 N297 2.119 . S
Zn281 O302 2.019 . S
N282 Zn272 2.119 . S
N282 C284 1.334 . S
N282 C285 1.328 . S
C283 C284 1.391 . S
C283 N286 1.329 . S
C283 H304 0.930 . S
C284 N282 1.334 . S
C284 C283 1.391 . S
C284 H291 0.930 . S
C285 N282 1.328 . S
C285 C287 1.392 . S
C285 H292 0.930 . S
N286 C283 1.329 . S
N286 C287 1.331 . S
C287 C285 1.392 . S
C287 N286 1.331 . S
O288 Zn281 1.975 . S
O288 C289 1.252 . S
C289 O288 1.252 . S
C289 O290 1.252 . S
O290 Zn272 1.975 . S
O290 C289 1.252 . S
H291 C284 0.930 . S
H292 C285 0.930 . S
C293 C294 1.392 . S
C293 N297 1.328 . S
C293 H299 0.930 . S
C294 C293 1.392 . S
C294 N298 1.331 . S
C295 C296 1.391 . S
C295 N298 1.329 . S
C295 H305 0.930 . S
C296 C295 1.391 . S
C296 N297 1.334 . S
C296 H303 0.930 . S
N297 Zn281 2.119 . S
N297 C293 1.328 . S
N297 C296 1.334 . S
N298 C294 1.331 . S
N298 C295 1.329 . S
H299 C293 0.930 . S
C300 O280 1.257 . S
C300 O301 1.244 . S
O301 C300 1.244 . S
O302 C278 1.257 . S
O302 Zn281 2.019 . S
H303 C296 0.930 . S
H304 C283 0.930 . S
H305 C295 0.930 . S
Zn306 N310 2.020 . S
Zn306 O314 2.019 . S
Zn306 N316 2.119 . S
Zn306 O324 1.975 . S
C307 N308 1.334 . S
C307 N311 1.336 . S
N308 C307 1.334 . S
N308 C309 1.334 . S
C309 N308 1.334 . S
C309 N310 1.336 . S
N310 Zn306 2.020 . S
N310 C309 1.336 . S
N310 N311 1.354 . S
N311 C307 1.336 . S
N311 N310 1.354 . S
N311 Zn315 2.020 . S
C312 O313 1.244 . S
C312 O336 1.257 . S
O313 C312 1.244 . S
O314 Zn306 2.019 . S
O314 C334 1.257 . S
Zn315 N311 2.020 . S
Zn315 O322 1.975 . S
Zn315 N331 2.119 . S
Zn315 O336 2.019 . S
N316 Zn306 2.119 . S
N316 C318 1.334 . S
N316 C319 1.328 . S
C317 C318 1.391 . S
C317 N320 1.329 . S
C317 H338 0.930 . S
C318 N316 1.334 . S
C318 C317 1.391 . S
C318 H325 0.930 . S
C319 N316 1.328 . S
C319 C321 1.392 . S
C319 H326 0.930 . S
N320 C317 1.329 . S
N320 C321 1.331 . S
C321 C319 1.392 . S
C321 N320 1.331 . S
O322 Zn315 1.975 . S
O322 C323 1.252 . S
C323 O322 1.252 . S
C323 O324 1.252 . S
O324 Zn306 1.975 . S
O324 C323 1.252 . S
H325 C318 0.930 . S
H326 C319 0.930 . S
C327 C328 1.392 . S
C327 N331 1.328 . S
C327 H333 0.930 . S
C328 C327 1.392 . S
C328 N332 1.331 . S
C329 C330 1.391 . S
C329 N332 1.329 . S
C329 H339 0.930 . S
C330 C329 1.391 . S
C330 N331 1.334 . S
C330 H337 0.930 . S
N331 Zn315 2.119 . S
N331 C327 1.328 . S
N331 C330 1.334 . S
N332 C328 1.331 . S
N332 C329 1.329 . S
H333 C327 0.930 . S
C334 O314 1.257 . S
C334 O335 1.244 . S
O335 C334 1.244 . S
O336 C312 1.257 . S
O336 Zn315 2.019 . S
H337 C330 0.930 . S
H338 C317 0.930 . S
H339 C329 0.930 . S
Zn340 N344 2.020 . S
Zn340 O348 2.019 . S
Zn340 N350 2.119 . S
Zn340 O358 1.975 . S
C341 N342 1.334 . S
C341 N345 1.336 . S
N342 C341 1.334 . S
N342 C343 1.334 . S
C343 N342 1.334 . S
C343 N344 1.336 . S
N344 Zn340 2.020 . S
N344 C343 1.336 . S
N344 N345 1.354 . S
N345 C341 1.336 . S
N345 N344 1.354 . S
N345 Zn349 2.020 . S
C346 O347 1.244 . S
C346 O370 1.257 . S
O347 C346 1.244 . S
O348 Zn340 2.019 . S
O348 C368 1.257 . S
Zn349 N345 2.020 . S
Zn349 O356 1.975 . S
Zn349 N365 2.119 . S
Zn349 O370 2.019 . S
N350 Zn340 2.119 . S
N350 C352 1.334 . S
N350 C353 1.328 . S
C351 C352 1.391 . S
C351 N354 1.329 . S
C351 H372 0.930 . S
C352 N350 1.334 . S
C352 C351 1.391 . S
C352 H359 0.930 . S
C353 N350 1.328 . S
C353 C355 1.392 . S
C353 H360 0.930 . S
N354 C351 1.329 . S
N354 C355 1.331 . S
C355 C353 1.392 . S
C355 N354 1.331 . S
O356 Zn349 1.975 . S
O356 C357 1.252 . S
C357 O356 1.252 . S
C357 O358 1.252 . S
O358 Zn340 1.975 . S
O358 C357 1.252 . S
H359 C352 0.930 . S
H360 C353 0.930 . S
C361 C362 1.392 . S
C361 N365 1.328 . S
C361 H367 0.930 . S
C362 C361 1.392 . S
C362 N366 1.331 . S
C363 C364 1.391 . S
C363 N366 1.329 . S
C363 H373 0.930 . S
C364 C363 1.391 . S
C364 N365 1.334 . S
C364 H371 0.930 . S
N365 Zn349 2.119 . S
N365 C361 1.328 . S
N365 C364 1.334 . S
N366 C362 1.331 . S
N366 C363 1.329 . S
H367 C361 0.930 . S
C368 O348 1.257 . S
C368 O369 1.244 . S
O369 C368 1.244 . S
O370 C346 1.257 . S
O370 Zn349 2.019 . S
H371 C364 0.930 . S
H372 C351 0.930 . S
H373 C363 0.930 . S
Zn374 N378 2.020 . S
Zn374 O382 2.019 . S
Zn374 N384 2.119 . S
Zn374 O392 1.975 . S
C375 N376 1.334 . S
C375 N379 1.336 . S
N376 C375 1.334 . S
N376 C377 1.334 . S
C377 N376 1.334 . S
C377 N378 1.336 . S
N378 Zn374 2.020 . S
N378 C377 1.336 . S
N378 N379 1.354 . S
N379 C375 1.336 . S
N379 N378 1.354 . S
N379 Zn383 2.020 . S
C380 O381 1.244 . S
C380 O404 1.257 . S
O381 C380 1.244 . S
O382 Zn374 2.019 . S
O382 C402 1.257 . S
Zn383 N379 2.020 . S
Zn383 O390 1.975 . S
Zn383 N399 2.119 . S
Zn383 O404 2.019 . S
N384 Zn374 2.119 . S
N384 C386 1.334 . S
N384 C387 1.328 . S
C385 C386 1.391 . S
C385 N388 1.329 . S
C385 H406 0.930 . S
C386 N384 1.334 . S
C386 C385 1.391 . S
C386 H393 0.930 . S
C387 N384 1.328 . S
C387 C389 1.392 . S
C387 H394 0.930 . S
N388 C385 1.329 . S
N388 C389 1.331 . S
C389 C387 1.392 . S
C389 N388 1.331 . S
O390 Zn383 1.975 . S
O390 C391 1.252 . S
C391 O390 1.252 . S
C391 O392 1.252 . S
O392 Zn374 1.975 . S
O392 C391 1.252 . S
H393 C386 0.930 . S
H394 C387 0.930 . S
C395 C396 1.392 . S
C395 N399 1.328 . S
C395 H401 0.930 . S
C396 C395 1.392 . S
C396 N400 1.331 . S
C397 C398 1.391 . S
C397 N400 1.329 . S
C397 H407 0.930 . S
C398 C397 1.391 . S
C398 N399 1.334 . S
C398 H405 0.930 . S
N399 Zn383 2.119 . S
N399 C395 1.328 . S
N399 C398 1.334 . S
N400 C396 1.331 . S
N400 C397 1.329 . S
H401 C395 0.930 . S
C402 O382 1.257 . S
C402 O403 1.244 . S
O403 C402 1.244 . S
O404 C380 1.257 . S
O404 Zn383 2.019 . S
H405 C398 0.930 . S
H406 C385 0.930 . S
H407 C397 0.930 . S
C408 C409 1.349 1_554 S
C408 C410 1.327 . S
C408 H433 0.950 . S
C409 C408 1.349 1_556 S
C409 C425 1.349 . S
C410 C408 1.327 . S
C410 C429 1.429 1_544 S
C410 H434 0.950 . S
C411 C428 1.574 . S
C411 C430 1.368 . S
C411 H435 0.949 . S
H412 C416 0.949 . S
C413 C414 1.349 . S
C413 C415 1.327 . S
C413 H436 0.950 . S
C414 C413 1.349 . S
C414 C426 1.349 1_556 S
C415 C413 1.327 . S
C415 C431 1.429 . S
C415 H437 0.950 . S
C416 H412 0.949 . S
C416 C424 1.574 . S
C416 C432 1.368 1_554 S
H417 C425 0.950 . S
H418 C423 0.922 1_565 S
H419 C424 0.949 . S
H420 C426 0.950 . S
H421 C427 0.950 . S
H422 C428 0.949 . S
C423 H418 0.922 1_545 S
C423 C425 1.327 . S
C423 C429 1.429 1_545 S
C424 C416 1.574 . S
C424 H419 0.949 . S
C424 C430 1.368 1_554 S
C425 C409 1.349 . S
C425 H417 0.950 . S
C425 C423 1.327 . S
C426 C414 1.349 1_554 S
C426 H420 0.950 . S
C426 C427 1.327 . S
C427 H421 0.950 . S
C427 C426 1.327 . S
C427 C431 1.429 1_554 S
C428 C411 1.574 . S
C428 H422 0.949 . S
C428 C432 1.368 . S
C429 C410 1.429 1_566 S
C429 C423 1.429 1_565 S
C429 C430 1.523 . S
C430 C411 1.368 . S
C430 C424 1.368 1_556 S
C430 C429 1.523 . S
C431 C415 1.429 . S
C431 C427 1.429 1_556 S
C431 C432 1.523 . S
C432 C416 1.368 1_556 S
C432 C428 1.368 . S
C432 C431 1.523 . S
H433 C408 0.950 . S
H434 C410 0.950 . S
H435 C411 0.949 . S
H436 C413 0.950 . S
H437 C415 0.950 . S
C438 C439 1.349 . S
C438 C440 1.327 . S
C438 H463 0.950 . S
C439 C438 1.349 . S
C439 C455 1.349 1_556 S
C440 C438 1.327 . S
C440 C459 1.429 . S
C440 H464 0.950 . S
C441 C458 1.574 . S
C441 C460 1.368 1_554 S
C441 H465 0.949 . S
H442 C446 0.949 . S
C443 C444 1.349 1_554 S
C443 C445 1.327 . S
C443 H466 0.950 . S
C444 C443 1.349 1_556 S
C444 C456 1.349 . S
C445 C443 1.327 . S
C445 C461 1.429 1_554 S
C445 H467 0.950 . S
C446 H442 0.949 . S
C446 C454 1.574 . S
C446 C462 1.368 . S
H447 C455 0.950 . S
H448 C453 0.950 . S
H449 C454 0.949 . S
H450 C456 0.950 . S
H451 C457 0.950 . S
H452 C458 0.949 . S
C453 H448 0.950 . S
C453 C455 1.327 . S
C453 C459 1.429 1_554 S
C454 C446 1.574 . S
C454 H449 0.949 . S
C454 C460 1.368 . S
C455 C439 1.349 1_554 S
C455 H447 0.950 . S
C455 C453 1.327 . S
C456 C444 1.349 . S
C456 H450 0.950 . S
C456 C457 1.327 . S
C457 H451 0.950 . S
C457 C456 1.327 . S
C457 C461 1.429 . S
C458 C441 1.574 . S
C458 H452 0.949 . S
C458 C462 1.368 1_554 S
C459 C440 1.429 . S
C459 C453 1.429 1_556 S
C459 C460 1.523 . S
C460 C441 1.368 1_556 S
C460 C454 1.368 . S
C460 C459 1.523 . S
C461 C445 1.429 1_556 S
C461 C457 1.429 . S
C461 C462 1.523 . S
C462 C446 1.368 . S
C462 C458 1.368 1_556 S
C462 C461 1.523 . S
H463 C438 0.950 . S
H464 C440 0.950 . S
H465 C441 0.949 . S
H466 C443 0.950 . S
H467 C445 0.950 . S
C468 C469 1.358 . S
C468 C470 1.326 1_556 S
C468 H493 0.942 1_556 S
C469 C468 1.358 . S
C469 C485 1.349 . S
C470 C468 1.326 1_554 S
C470 C489 1.429 1_654 S
C470 H494 0.950 . S
C471 C488 1.574 . S
C471 C490 1.368 . S
C471 H495 0.949 . S
H472 C476 0.949 . S
C473 C474 1.349 . S
C473 C475 1.327 . S
C473 H496 0.950 . S
C474 C473 1.349 . S
C474 C486 1.349 1_556 S
C475 C473 1.327 . S
C475 C491 1.429 . S
C475 H497 0.950 . S
C476 H472 0.949 . S
C476 C484 1.574 . S
C476 C492 1.368 1_554 S
H477 C485 0.950 . S
H478 C483 0.950 1_455 S
H479 C484 0.949 . S
H480 C486 0.950 . S
H481 C487 0.950 . S
H482 C488 0.949 . S
C483 H478 0.950 1_655 S
C483 C485 1.327 . S
C483 C489 1.429 1_655 S
C484 C476 1.574 . S
C484 H479 0.949 . S
C484 C490 1.368 1_554 S
C485 C469 1.349 . S
C485 H477 0.950 . S
C485 C483 1.327 . S
C486 C474 1.349 1_554 S
C486 H480 0.950 . S
C486 C487 1.327 . S
C487 H481 0.950 . S
C487 C486 1.327 . S
C487 C491 1.429 1_554 S
C488 C471 1.574 . S
C488 H482 0.949 . S
C488 C492 1.368 . S
C489 C470 1.429 1_456 S
C489 C483 1.429 1_455 S
C489 C490 1.523 . S
C490 C471 1.368 . S
C490 C484 1.368 1_556 S
C490 C489 1.523 . S
C491 C475 1.429 . S
C491 C487 1.429 1_556 S
C491 C492 1.523 . S
C492 C476 1.368 1_556 S
C492 C488 1.368 . S
C492 C491 1.523 . S
H493 C468 0.942 1_554 S
H494 C470 0.950 . S
H495 C471 0.949 . S
H496 C473 0.950 . S
H497 C475 0.950 . S
C498 C499 1.349 1_554 S
C498 C500 1.327 . S
C498 H523 0.950 . S
C499 C498 1.349 1_556 S
C499 C515 1.349 . S
C500 C498 1.327 . S
C500 C519 1.429 1_564 S
C500 H524 0.950 . S
C501 C518 1.574 . S
C501 C520 1.368 . S
C501 H525 0.949 . S
H502 C506 0.949 . S
C503 C504 1.349 . S
C503 C505 1.327 . S
C503 H526 0.950 . S
C504 C503 1.349 . S
C504 C516 1.349 1_556 S
C505 C503 1.327 . S
C505 C521 1.429 . S
C505 H527 0.950 . S
C506 H502 0.949 . S
C506 C514 1.574 . S
C506 C522 1.368 1_554 S
H507 C515 0.950 . S
H508 C513 0.950 . S
H509 C514 0.949 . S
H510 C516 0.950 . S
H511 C517 0.950 . S
H512 C518 0.949 . S
C513 H508 0.950 . S
C513 C515 1.327 . S
C513 C519 1.429 1_565 S
C514 C506 1.574 . S
C514 H509 0.949 . S
C514 C520 1.368 1_554 S
C515 C499 1.349 . S
C515 H507 0.950 . S
C515 C513 1.327 . S
C516 C504 1.349 1_554 S
C516 H510 0.950 . S
C516 C517 1.327 . S
C517 H511 0.950 . S
C517 C516 1.327 . S
C517 C521 1.429 1_554 S
C518 C501 1.574 . S
C518 H512 0.949 . S
C518 C522 1.368 . S
C519 C500 1.429 1_546 S
C519 C513 1.429 1_545 S
C519 C520 1.523 . S
C520 C501 1.368 . S
C520 C514 1.368 1_556 S
C520 C519 1.523 . S
C521 C505 1.429 . S
C521 C517 1.429 1_556 S
C521 C522 1.523 . S
C522 C506 1.368 1_556 S
C522 C518 1.368 . S
C522 C521 1.523 . S
H523 C498 0.950 . S
H524 C500 0.950 . S
H525 C501 0.949 . S
H526 C503 0.950 . S
H527 C505 0.950 . S
C528 C529 1.349 1_554 S
C528 C530 1.327 . S
C528 H553 0.950 . S
C529 C528 1.349 1_556 S
C529 C545 1.349 . S
C530 C528 1.327 . S
C530 C549 1.429 1_554 S
C530 H554 0.950 . S
C531 C548 1.574 . S
C531 C550 1.368 . S
C531 H555 0.949 . S
H532 C536 0.949 . S
C533 C534 1.349 . S
C533 C535 1.327 . S
C533 H556 0.950 . S
C534 C533 1.349 . S
C534 C546 1.349 1_556 S
C535 C533 1.327 . S
C535 C551 1.429 . S
C535 H557 0.950 . S
C536 H532 0.949 . S
C536 C544 1.574 . S
C536 C552 1.368 1_554 S
H537 C545 0.950 . S
H538 C543 0.950 . S
H539 C544 0.949 . S
H540 C546 0.950 . S
H541 C547 0.950 . S
H542 C548 0.949 . S
C543 H538 0.950 . S
C543 C545 1.327 . S
C543 C549 1.429 . S
C544 C536 1.574 . S
C544 H539 0.949 . S
C544 C550 1.368 1_554 S
C545 C529 1.349 . S
C545 H537 0.950 . S
C545 C543 1.327 . S
C546 C534 1.349 1_554 S
C546 H540 0.950 . S
C546 C547 1.327 . S
C547 H541 0.950 . S
C547 C546 1.327 . S
C547 C551 1.429 1_554 S
C548 C531 1.574 . S
C548 H542 0.949 . S
C548 C552 1.368 . S
C549 C530 1.429 1_556 S
C549 C543 1.429 . S
C549 C550 1.523 . S
C550 C531 1.368 . S
C550 C544 1.368 1_556 S
C550 C549 1.523 . S
C551 C535 1.429 . S
C551 C547 1.429 1_556 S
C551 C552 1.523 . S
C552 C536 1.368 1_556 S
C552 C548 1.368 . S
C552 C551 1.523 . S
H553 C528 0.950 . S
H554 C530 0.950 . S
H555 C531 0.949 . S
H556 C533 0.950 . S
H557 C535 0.950 . S
C558 C559 1.349 . S
C558 C560 1.327 . S
C558 H583 0.950 . S
C559 C558 1.349 . S
C559 C575 1.349 1_556 S
C560 C558 1.327 . S
C560 C579 1.429 1_455 S
C560 H584 0.950 1_455 S
C561 C578 1.574 . S
C561 C580 1.368 1_554 S
C561 H585 0.949 . S
H562 C566 0.949 . S
C563 C564 1.349 1_554 S
C563 C565 1.327 . S
C563 H586 0.950 . S
C564 C563 1.349 1_556 S
C564 C576 1.349 . S
C565 C563 1.327 . S
C565 C581 1.429 1_554 S
C565 H587 0.950 . S
C566 H562 0.949 . S
C566 C574 1.574 . S
C566 C582 1.368 . S
H567 C575 0.950 . S
H568 C573 0.950 . S
H569 C574 0.949 . S
H570 C576 0.950 . S
H571 C577 0.950 . S
H572 C578 0.949 . S
C573 H568 0.950 . S
C573 C575 1.327 . S
C573 C579 1.429 1_454 S
C574 C566 1.574 . S
C574 H569 0.949 . S
C574 C580 1.368 . S
C575 C559 1.349 1_554 S
C575 H567 0.950 . S
C575 C573 1.327 . S
C576 C564 1.349 . S
C576 H570 0.950 . S
C576 C577 1.327 . S
C577 H571 0.950 . S
C577 C576 1.327 . S
C577 C581 1.429 . S
C578 C561 1.574 . S
C578 H572 0.949 . S
C578 C582 1.368 1_554 S
C579 C560 1.429 1_655 S
C579 C573 1.429 1_656 S
C579 C580 1.523 . S
C580 C561 1.368 1_556 S
C580 C574 1.368 . S
C580 C579 1.523 . S
C581 C565 1.429 1_556 S
C581 C577 1.429 . S
C581 C582 1.523 . S
C582 C566 1.368 . S
C582 C578 1.368 1_556 S
C582 C581 1.523 . S
H583 C558 0.950 . S
H584 C560 0.950 1_655 S
H585 C561 0.949 . S
H586 C563 0.950 . S
H587 C565 0.950 . S
C588 C589 1.349 . S
C588 C590 1.327 . S
C588 H613 0.950 . S
C589 C588 1.349 . S
C589 C605 1.349 . S
C590 C588 1.327 . S
C590 C609 1.429 1_655 S
C590 H614 0.929 1_655 S
C591 C608 1.574 . S
C591 C610 1.368 . S
C591 H615 0.949 . S
H592 C596 0.949 . S
C593 C594 1.349 . S
C593 C595 1.327 . S
C593 H616 0.950 . S
C594 C593 1.349 . S
C594 C606 1.349 . S
C595 C593 1.327 . S
C595 C611 1.429 . S
C595 H617 0.950 . S
C596 H592 0.949 . S
C596 C604 1.574 . S
C596 C612 1.368 . S
H597 C605 0.950 . S
H598 C603 0.950 . S
H599 C604 0.949 . S
H600 C606 0.950 . S
H601 C607 0.950 . S
H602 C608 0.949 . S
C603 H598 0.950 . S
C603 C605 1.327 . S
C603 C609 1.429 1_655 S
C604 C596 1.574 . S
C604 H599 0.949 . S
C604 C610 1.368 . S
C605 C589 1.349 . S
C605 H597 0.950 . S
C605 C603 1.327 . S
C606 C594 1.349 . S
C606 H600 0.950 . S
C606 C607 1.327 . S
C607 H601 0.950 . S
C607 C606 1.327 . S
C607 C611 1.429 . S
C608 C591 1.574 . S
C608 H602 0.949 . S
C608 C612 1.368 . S
C609 C590 1.429 1_455 S
C609 C603 1.429 1_455 S
C609 C610 1.523 . S
C610 C591 1.368 . S
C610 C604 1.368 . S
C610 C609 1.523 . S
C611 C595 1.429 . S
C611 C607 1.429 . S
C611 C612 1.523 . S
C612 C596 1.368 . S
C612 C608 1.368 . S
C612 C611 1.523 . S
H613 C588 0.950 . S
H614 C590 0.929 1_455 S
H615 C591 0.949 . S
H616 C593 0.950 . S
H617 C595 0.950 . S
C618 C619 1.349 . S
C618 C620 1.327 . S
C618 H643 0.950 . S
C619 C618 1.349 . S
C619 C635 1.349 . S
C620 C618 1.327 . S
C620 C639 1.429 1_565 S
C620 H644 0.950 . S
C621 C638 1.574 . S
C621 C640 1.368 . S
C621 H645 0.949 . S
H622 C626 0.949 . S
C623 C624 1.349 . S
C623 C625 1.327 . S
C623 H646 0.950 . S
C624 C623 1.349 . S
C624 C636 1.349 . S
C625 C623 1.327 . S
C625 C641 1.429 . S
C625 H647 0.950 . S
C626 H622 0.949 . S
C626 C634 1.574 . S
C626 C642 1.368 . S
H627 C635 0.950 . S
H628 C633 0.940 1_545 S
H629 C634 0.949 . S
H630 C636 0.950 . S
H631 C637 0.950 . S
H632 C638 0.949 . S
C633 H628 0.940 1_565 S
C633 C635 1.327 . S
C633 C639 1.429 1_565 S
C634 C626 1.574 . S
C634 H629 0.949 . S
C634 C640 1.368 . S
C635 C619 1.349 . S
C635 H627 0.950 . S
C635 C633 1.327 . S
C636 C624 1.349 . S
C636 H630 0.950 . S
C636 C637 1.327 . S
C637 H631 0.950 . S
C637 C636 1.327 . S
C637 C641 1.429 . S
C638 C621 1.574 . S
C638 H632 0.949 . S
C638 C642 1.368 . S
C639 C620 1.429 1_545 S
C639 C633 1.429 1_545 S
C639 C640 1.523 . S
C640 C621 1.368 . S
C640 C634 1.368 . S
C640 C639 1.523 . S
C641 C625 1.429 . S
C641 C637 1.429 . S
C641 C642 1.523 . S
C642 C626 1.368 . S
C642 C638 1.368 . S
C642 C641 1.523 . S
H643 C618 0.950 . S
H644 C620 0.950 . S
H645 C621 0.949 . S
H646 C623 0.950 . S
H647 C625 0.950 . S
C648 C649 1.349 . S
C648 C650 1.327 . S
C648 H673 0.950 . S
C649 C648 1.349 . S
C649 C665 1.349 . S
C650 C648 1.327 . S
C650 C669 1.429 . S
C650 H674 0.950 . S
C651 C668 1.574 . S
C651 C670 1.368 . S
C651 H675 0.949 . S
H652 C656 0.949 . S
C653 C654 1.349 . S
C653 C655 1.327 . S
C653 H676 0.950 . S
C654 C653 1.349 . S
C654 C666 1.349 . S
C655 C653 1.327 . S
C655 C671 1.429 . S
C655 H677 0.950 . S
C656 H652 0.949 . S
C656 C664 1.574 . S
C656 C672 1.368 . S
H657 C665 0.950 . S
H658 C663 0.950 . S
H659 C664 0.949 . S
H660 C666 0.950 . S
H661 C667 0.950 . S
H662 C668 0.949 . S
C663 H658 0.950 . S
C663 C665 1.327 . S
C663 C669 1.429 . S
C664 C656 1.574 . S
C664 H659 0.949 . S
C664 C670 1.368 . S
C665 C649 1.349 . S
C665 H657 0.950 . S
C665 C663 1.327 . S
C666 C654 1.349 . S
C666 H660 0.950 . S
C666 C667 1.327 . S
C667 H661 0.950 . S
C667 C666 1.327 . S
C667 C671 1.429 . S
C668 C651 1.574 . S
C668 H662 0.949 . S
C668 C672 1.368 . S
C669 C650 1.429 . S
C669 C663 1.429 . S
C669 C670 1.523 . S
C670 C651 1.368 . S
C670 C664 1.368 . S
C670 C669 1.523 . S
C671 C655 1.429 . S
C671 C667 1.429 . S
C671 C672 1.523 . S
C672 C656 1.368 . S
C672 C668 1.368 . S
C672 C671 1.523 . S
H673 C648 0.950 . S
H674 C650 0.950 . S
H675 C651 0.949 . S
H676 C653 0.950 . S
H677 C655 0.950 . S
C678 C679 1.349 . S
C678 C680 1.327 . S
C678 H703 0.950 . S
C679 C678 1.349 . S
C679 C695 1.349 . S
C680 C678 1.327 . S
C680 C699 1.429 . S
C680 H704 0.950 . S
C681 C698 1.574 . S
C681 C700 1.368 . S
C681 H705 0.949 . S
H682 C686 0.949 . S
C683 C684 1.349 . S
C683 C685 1.327 . S
C683 H706 0.950 . S
C684 C683 1.349 . S
C684 C696 1.349 . S
C685 C683 1.327 . S
C685 C701 1.429 1_455 S
C685 H707 0.950 . S
C686 H682 0.949 . S
C686 C694 1.574 . S
C686 C702 1.368 . S
H687 C695 0.950 . S
H688 C693 0.950 . S
H689 C694 0.949 . S
H690 C696 0.950 . S
H691 C697 0.950 . S
H692 C698 0.949 . S
C693 H688 0.950 . S
C693 C695 1.327 . S
C693 C699 1.429 . S
C694 C686 1.574 . S
C694 H689 0.949 . S
C694 C700 1.368 . S
C695 C679 1.349 . S
C695 H687 0.950 . S
C695 C693 1.327 . S
C696 C684 1.349 . S
C696 H690 0.950 . S
C696 C697 1.327 . S
C697 H691 0.950 . S
C697 C696 1.327 . S
C697 C701 1.429 1_455 S
C698 C681 1.574 . S
C698 H692 0.949 . S
C698 C702 1.368 . S
C699 C680 1.429 . S
C699 C693 1.429 . S
C699 C700 1.523 . S
C700 C681 1.368 . S
C700 C694 1.368 . S
C700 C699 1.523 . S
C701 C685 1.429 1_655 S
C701 C697 1.429 1_655 S
C701 C702 1.523 . S
C702 C686 1.368 . S
C702 C698 1.368 . S
C702 C701 1.523 . S
H703 C678 0.950 . S
H704 C680 0.950 . S
H705 C681 0.949 . S
H706 C683 0.950 . S
H707 C685 0.950 . S
C708 C709 1.349 . S
C708 C710 1.327 . S
C708 H733 0.950 . S
C709 C708 1.349 . S
C709 C725 1.349 . S
C710 C708 1.327 . S
C710 C729 1.429 . S
C710 H734 0.950 . S
C711 C728 1.574 . S
C711 C730 1.368 . S
C711 H735 0.949 . S
H712 C716 0.949 . S
C713 C714 1.349 . S
C713 C715 1.327 . S
C713 H736 0.950 . S
C714 C713 1.349 . S
C714 C726 1.349 . S
C715 C713 1.327 . S
C715 C731 1.429 1_545 S
C715 H737 0.950 . S
C716 H712 0.949 . S
C716 C724 1.574 . S
C716 C732 1.368 . S
H717 C725 0.950 . S
H718 C723 0.950 . S
H719 C724 0.949 . S
H720 C726 0.950 . S
H721 C727 0.950 . S
H722 C728 0.949 . S
C723 H718 0.950 . S
C723 C725 1.327 . S
C723 C729 1.429 . S
C724 C716 1.574 . S
C724 H719 0.949 . S
C724 C730 1.368 . S
C725 C709 1.349 . S
C725 H717 0.950 . S
C725 C723 1.327 . S
C726 C714 1.349 . S
C726 H720 0.950 . S
C726 C727 1.327 . S
C727 H721 0.950 . S
C727 C726 1.327 . S
C727 C731 1.429 1_545 S
C728 C711 1.574 . S
C728 H722 0.949 . S
C728 C732 1.368 . S
C729 C710 1.429 . S
C729 C723 1.429 . S
C729 C730 1.523 . S
C730 C711 1.368 . S
C730 C724 1.368 . S
C730 C729 1.523 . S
C731 C715 1.429 1_565 S
C731 C727 1.429 1_565 S
C731 C732 1.523 . S
C732 C716 1.368 . S
C732 C728 1.368 . S
C732 C731 1.523 . S
H733 C708 0.950 . S
H734 C710 0.950 . S
H735 C711 0.949 . S
H736 C713 0.950 . S
H737 C715 0.950 . S
C738 C739 1.349 . S
C738 C740 1.327 . S
C738 H763 0.950 . S
C739 C738 1.349 . S
C739 C755 1.349 . S
C740 C738 1.327 . S
C740 C759 1.429 . S
C740 H764 0.950 . S
C741 C758 1.574 . S
C741 C760 1.368 . S
C741 H765 0.949 . S
H742 C746 0.949 . S
C743 C744 1.349 . S
C743 C745 1.327 . S
C743 H766 0.950 . S
C744 C743 1.349 . S
C744 C756 1.349 . S
C745 C743 1.327 . S
C745 C761 1.429 . S
C745 H767 0.950 . S
C746 H742 0.949 . S
C746 C754 1.574 . S
C746 C762 1.368 . S
H747 C755 0.950 . S
H748 C753 0.950 . S
H749 C754 0.949 . S
H750 C756 0.950 . S
H751 C757 0.950 . S
H752 C758 0.949 . S
C753 H748 0.950 . S
C753 C755 1.327 . S
C753 C759 1.429 . S
C754 C746 1.574 . S
C754 H749 0.949 . S
C754 C760 1.368 . S
C755 C739 1.349 . S
C755 H747 0.950 . S
C755 C753 1.327 . S
C756 C744 1.349 . S
C756 H750 0.950 . S
C756 C757 1.327 . S
C757 H751 0.950 . S
C757 C756 1.327 . S
C757 C761 1.429 . S
C758 C741 1.574 . S
C758 H752 0.949 . S
C758 C762 1.368 . S
C759 C740 1.429 . S
C759 C753 1.429 . S
C759 C760 1.523 . S
C760 C741 1.368 . S
C760 C754 1.368 . S
C760 C759 1.523 . S
C761 C745 1.429 . S
C761 C757 1.429 . S
C761 C762 1.523 . S
C762 C746 1.368 . S
C762 C758 1.368 . S
C762 C761 1.523 . S
H763 C738 0.950 . S
H764 C740 0.950 . S
H765 C741 0.949 . S
H766 C743 0.950 . S
H767 C745 0.950 . S
C768 C769 1.349 . S
C768 C770 1.327 . S
C768 H793 0.950 . S
C769 C768 1.349 . S
C769 C785 1.349 . S
C770 C768 1.327 . S
C770 C789 1.429 . S
C770 H794 0.950 . S
C771 C788 1.574 . S
C771 C790 1.368 . S
C771 H795 0.949 . S
H772 C776 0.949 . S
C773 C774 1.349 . S
C773 C775 1.327 . S
C773 H796 0.950 . S
C774 C773 1.349 . S
C774 C786 1.349 . S
C775 C773 1.327 . S
C775 C791 1.429 . S
C775 H797 0.950 . S
C776 H772 0.949 . S
C776 C784 1.574 . S
C776 C792 1.368 . S
H777 C785 0.950 . S
H778 C783 0.950 . S
H779 C784 0.949 . S
H780 C786 0.950 . S
H781 C787 0.950 . S
H782 C788 0.949 . S
C783 H778 0.950 . S
C783 C785 1.327 . S
C783 C789 1.429 . S
C784 C776 1.574 . S
C784 H779 0.949 . S
C784 C790 1.368 . S
C785 C769 1.349 . S
C785 H777 0.950 . S
C785 C783 1.327 . S
C786 C774 1.349 . S
C786 H780 0.950 . S
C786 C787 1.327 . S
C787 H781 0.950 . S
C787 C786 1.327 . S
C787 C791 1.429 . S
C788 C771 1.574 . S
C788 H782 0.949 . S
C788 C792 1.368 . S
C789 C770 1.429 . S
C789 C783 1.429 . S
C789 C790 1.523 . S
C790 C771 1.368 . S
C790 C784 1.368 . S
C790 C789 1.523 . S
C791 C775 1.429 . S
C791 C787 1.429 . S
C791 C792 1.523 . S
C792 C776 1.368 . S
C792 C788 1.368 . S
C792 C791 1.523 . S
H793 C768 0.950 . S
H794 C770 0.950 . S
H795 C771 0.949 . S
H796 C773 0.950 . S
H797 C775 0.950 . S
C798 C799 1.349 . S
C798 C800 1.327 . S
C798 H823 0.950 . S
C799 C798 1.349 . S
C799 C815 1.349 . S
C800 C798 1.327 . S
C800 C819 1.429 . S
C800 H824 0.950 . S
C801 C818 1.574 . S
C801 C820 1.368 . S
C801 H825 0.949 . S
H802 C806 0.949 . S
C803 C804 1.349 . S
C803 C805 1.327 . S
C803 H826 0.950 . S
C804 C803 1.349 . S
C804 C816 1.349 . S
C805 C803 1.327 . S
C805 C821 1.429 . S
C805 H827 0.950 . S
C806 H802 0.949 . S
C806 C814 1.574 . S
C806 C822 1.368 . S
H807 C815 0.950 . S
H808 C813 0.950 . S
H809 C814 0.949 . S
H810 C816 0.950 . S
H811 C817 0.950 . S
H812 C818 0.949 . S
C813 H808 0.950 . S
C813 C815 1.327 . S
C813 C819 1.429 . S
C814 C806 1.574 . S
C814 H809 0.949 . S
C814 C820 1.368 . S
C815 C799 1.349 . S
C815 H807 0.950 . S
C815 C813 1.327 . S
C816 C804 1.349 . S
C816 H810 0.950 . S
C816 C817 1.327 . S
C817 H811 0.950 . S
C817 C816 1.327 . S
C817 C821 1.429 . S
C818 C801 1.574 . S
C818 H812 0.949 . S
C818 C822 1.368 . S
C819 C800 1.429 . S
C819 C813 1.429 . S
C819 C820 1.523 . S
C820 C801 1.368 . S
C820 C814 1.368 . S
C820 C819 1.523 . S
C821 C805 1.429 . S
C821 C817 1.429 . S
C821 C822 1.523 . S
C822 C806 1.368 . S
C822 C818 1.368 . S
C822 C821 1.523 . S
H823 C798 0.950 . S
H824 C800 0.950 . S
H825 C801 0.949 . S
H826 C803 0.950 . S
H827 C805 0.950 . S
C828 C829 1.349 . S
C828 C830 1.327 . S
C828 H853 0.950 . S
C829 C828 1.349 . S
C829 C845 1.349 . S
C830 C828 1.327 . S
C830 C849 1.429 . S
C830 H854 0.950 . S
C831 C848 1.574 . S
C831 C850 1.368 . S
C831 H855 0.949 . S
H832 C836 0.949 . S
C833 C834 1.349 . S
C833 C835 1.327 . S
C833 H856 0.950 . S
C834 C833 1.349 . S
C834 C846 1.349 . S
C835 C833 1.327 . S
C835 C851 1.429 . S
C835 H857 0.950 . S
C836 H832 0.949 . S
C836 C844 1.574 . S
C836 C852 1.368 . S
H837 C845 0.950 . S
H838 C843 0.950 . S
H839 C844 0.949 . S
H840 C846 0.950 . S
H841 C847 0.950 . S
H842 C848 0.949 . S
C843 H838 0.950 . S
C843 C845 1.327 . S
C843 C849 1.429 . S
C844 C836 1.574 . S
C844 H839 0.949 . S
C844 C850 1.368 . S
C845 C829 1.349 . S
C845 H837 0.950 . S
C845 C843 1.327 . S
C846 C834 1.349 . S
C846 H840 0.950 . S
C846 C847 1.327 . S
C847 H841 0.950 . S
C847 C846 1.327 . S
C847 C851 1.429 . S
C848 C831 1.574 . S
C848 H842 0.949 . S
C848 C852 1.368 . S
C849 C830 1.429 . S
C849 C843 1.429 . S
C849 C850 1.523 . S
C850 C831 1.368 . S
C850 C844 1.368 . S
C850 C849 1.523 . S
C851 C835 1.429 . S
C851 C847 1.429 . S
C851 C852 1.523 . S
C852 C836 1.368 . S
C852 C848 1.368 . S
C852 C851 1.523 . S
H853 C828 0.950 . S
H854 C830 0.950 . S
H855 C831 0.949 . S
H856 C833 0.950 . S
H857 C835 0.950 . S
C858 C859 1.349 . S
C858 C860 1.327 . S
C858 H883 0.950 . S
C859 C858 1.349 . S
C859 C875 1.349 . S
C860 C858 1.327 . S
C860 C879 1.429 . S
C860 H884 0.950 . S
C861 C878 1.574 . S
C861 C880 1.368 . S
C861 H885 0.949 . S
H862 C866 0.949 . S
C863 C864 1.349 . S
C863 C865 1.327 . S
C863 H886 0.950 . S
C864 C863 1.349 . S
C864 C876 1.349 . S
C865 C863 1.327 . S
C865 C881 1.429 . S
C865 H887 0.950 . S
C866 H862 0.949 . S
C866 C874 1.574 . S
C866 C882 1.368 . S
H867 C875 0.950 . S
H868 C873 0.950 . S
H869 C874 0.949 . S
H870 C876 0.950 . S
H871 C877 0.950 . S
H872 C878 0.949 . S
C873 H868 0.950 . S
C873 C875 1.327 . S
C873 C879 1.429 . S
C874 C866 1.574 . S
C874 H869 0.949 . S
C874 C880 1.368 . S
C875 C859 1.349 . S
C875 H867 0.950 . S
C875 C873 1.327 . S
C876 C864 1.349 . S
C876 H870 0.950 . S
C876 C877 1.327 . S
C877 H871 0.950 . S
C877 C876 1.327 . S
C877 C881 1.429 . S
C878 C861 1.574 . S
C878 H872 0.949 . S
C878 C882 1.368 . S
C879 C860 1.429 . S
C879 C873 1.429 . S
C879 C880 1.523 . S
C880 C861 1.368 . S
C880 C874 1.368 . S
C880 C879 1.523 . S
C881 C865 1.429 . S
C881 C877 1.429 . S
C881 C882 1.523 . S
C882 C866 1.368 . S
C882 C878 1.368 . S
C882 C881 1.523 . S
H883 C858 0.950 . S
H884 C860 0.950 . S
H885 C861 0.949 . S
H886 C863 0.950 . S
H887 C865 0.950 . S
C888 C889 1.349 . S
C888 C890 1.327 . S
C888 H913 0.950 . S
C889 C888 1.349 . S
C889 C905 1.349 . S
C890 C888 1.327 . S
C890 C909 1.429 . S
C890 H914 0.950 . S
C891 C908 1.574 . S
C891 C910 1.368 . S
C891 H915 0.949 . S
H892 C896 0.949 . S
C893 C894 1.349 . S
C893 C895 1.327 . S
C893 H916 0.950 . S
C894 C893 1.349 . S
C894 C906 1.349 . S
C895 C893 1.327 . S
C895 C911 1.429 . S
C895 H917 0.950 . S
C896 H892 0.949 . S
C896 C904 1.574 . S
C896 C912 1.368 . S
H897 C905 0.950 . S
H898 C903 0.950 . S
H899 C904 0.949 . S
H900 C906 0.950 . S
H901 C907 0.950 . S
H902 C908 0.949 . S
C903 H898 0.950 . S
C903 C905 1.327 . S
C903 C909 1.429 . S
C904 C896 1.574 . S
C904 H899 0.949 . S
C904 C910 1.368 . S
C905 C889 1.349 . S
C905 H897 0.950 . S
C905 C903 1.327 . S
C906 C894 1.349 . S
C906 H900 0.950 . S
C906 C907 1.327 . S
C907 H901 0.950 . S
C907 C906 1.327 . S
C907 C911 1.429 . S
C908 C891 1.574 . S
C908 H902 0.949 . S
C908 C912 1.368 . S
C909 C890 1.429 . S
C909 C903 1.429 . S
C909 C910 1.523 . S
C910 C891 1.368 . S
C910 C904 1.368 . S
C910 C909 1.523 . S
C911 C895 1.429 . S
C911 C907 1.429 . S
C911 C912 1.523 . S
C912 C896 1.368 . S
C912 C908 1.368 . S
C912 C911 1.523 . S
H913 C888 0.950 . S
H914 C890 0.950 . S
H915 C891 0.949 . S
H916 C893 0.950 . S
H917 C895 0.950 . S
C918 C919 1.349 . S
C918 C920 1.327 . S
C918 H943 0.950 . S
C919 C918 1.349 . S
C919 C935 1.349 . S
C920 C918 1.327 . S
C920 C939 1.429 . S
C920 H944 0.950 . S
C921 C938 1.574 . S
C921 C940 1.368 . S
C921 H945 0.949 . S
H922 C926 0.949 . S
C923 C924 1.349 . S
C923 C925 1.327 . S
C923 H946 0.950 . S
C924 C923 1.349 . S
C924 C936 1.349 . S
C925 C923 1.327 . S
C925 C941 1.429 . S
C925 H947 0.950 . S
C926 H922 0.949 . S
C926 C934 1.574 . S
C926 C942 1.368 . S
H927 C935 0.950 . S
H928 C933 0.950 . S
H929 C934 0.949 . S
H930 C936 0.950 . S
H931 C937 0.950 . S
H932 C938 0.949 . S
C933 H928 0.950 . S
C933 C935 1.327 . S
C933 C939 1.429 . S
C934 C926 1.574 . S
C934 H929 0.949 . S
C934 C940 1.368 . S
C935 C919 1.349 . S
C935 H927 0.950 . S
C935 C933 1.327 . S
C936 C924 1.349 . S
C936 H930 0.950 . S
C936 C937 1.327 . S
C937 H931 0.950 . S
C937 C936 1.327 . S
C937 C941 1.429 . S
C938 C921 1.574 . S
C938 H932 0.949 . S
C938 C942 1.368 . S
C939 C920 1.429 . S
C939 C933 1.429 . S
C939 C940 1.523 . S
C940 C921 1.368 . S
C940 C934 1.368 . S
C940 C939 1.523 . S
C941 C925 1.429 . S
C941 C937 1.429 . S
C941 C942 1.523 . S
C942 C926 1.368 . S
C942 C938 1.368 . S
C942 C941 1.523 . S
H943 C918 0.950 . S
H944 C920 0.950 . S
H945 C921 0.949 . S
H946 C923 0.950 . S
H947 C925 0.950 . S
C948 C949 1.349 . S
C948 C950 1.327 . S
C948 H973 0.950 . S
C949 C948 1.349 . S
C949 C965 1.349 . S
C950 C948 1.327 . S
C950 C969 1.429 . S
C950 H974 0.950 . S
C951 C968 1.574 . S
C951 C970 1.368 . S
C951 H975 0.949 . S
H952 C956 0.949 . S
C953 C954 1.349 . S
C953 C955 1.327 . S
C953 H976 0.950 . S
C954 C953 1.349 . S
C954 C966 1.349 . S
C955 C953 1.327 . S
C955 C971 1.429 . S
C955 H977 0.950 . S
C956 H952 0.949 . S
C956 C964 1.574 . S
C956 C972 1.368 . S
H957 C965 0.950 . S
H958 C963 0.950 . S
H959 C964 0.949 . S
H960 C966 0.950 . S
H961 C967 0.950 . S
H962 C968 0.949 . S
C963 H958 0.950 . S
C963 C965 1.327 . S
C963 C969 1.429 . S
C964 C956 1.574 . S
C964 H959 0.949 . S
C964 C970 1.368 . S
C965 C949 1.349 . S
C965 H957 0.950 . S
C965 C963 1.327 . S
C966 C954 1.349 . S
C966 H960 0.950 . S
C966 C967 1.327 . S
C967 H961 0.950 . S
C967 C966 1.327 . S
C967 C971 1.429 . S
C968 C951 1.574 . S
C968 H962 0.949 . S
C968 C972 1.368 . S
C969 C950 1.429 . S
C969 C963 1.429 . S
C969 C970 1.523 . S
C970 C951 1.368 . S
C970 C964 1.368 . S
C970 C969 1.523 . S
C971 C955 1.429 . S
C971 C967 1.429 . S
C971 C972 1.523 . S
C972 C956 1.368 . S
C972 C968 1.368 . S
C972 C971 1.523 . S
H973 C948 0.950 . S
H974 C950 0.950 . S
H975 C951 0.949 . S
H976 C953 0.950 . S
H977 C955 0.950 . S
C978 C979 1.349 . S
C978 C980 1.327 . S
C978 H1003 0.950 . S
C979 C978 1.349 . S
C979 C995 1.349 . S
C980 C978 1.327 . S
C980 C999 1.429 . S
C980 H1004 0.950 . S
C981 C998 1.574 . S
C981 C1000 1.368 . S
C981 H1005 0.949 . S
H982 C986 0.949 . S
C983 C984 1.349 . S
C983 C985 1.327 . S
C983 H1006 0.950 . S
C984 C983 1.349 . S
C984 C996 1.349 . S
C985 C983 1.327 . S
C985 C1001 1.429 . S
C985 H1007 0.950 . S
C986 H982 0.949 . S
C986 C994 1.574 . S
C986 C1002 1.368 . S
H987 C995 0.950 . S
H988 C993 0.950 . S
H989 C994 0.949 . S
H990 C996 0.950 . S
H991 C997 0.950 . S
H992 C998 0.949 . S
C993 H988 0.950 . S
C993 C995 1.327 . S
C993 C999 1.429 . S
C994 C986 1.574 . S
C994 H989 0.949 . S
C994 C1000 1.368 . S
C995 C979 1.349 . S
C995 H987 0.950 . S
C995 C993 1.327 . S
C996 C984 1.349 . S
C996 H990 0.950 . S
C996 C997 1.327 . S
C997 H991 0.950 . S
C997 C996 1.327 . S
C997 C1001 1.429 . S
C998 C981 1.574 . S
C998 H992 0.949 . S
C998 C1002 1.368 . S
C999 C980 1.429 . S
C999 C993 1.429 . S
C999 C1000 1.523 . S
C1000 C981 1.368 . S
C1000 C994 1.368 . S
C1000 C999 1.523 . S
C1001 C985 1.429 . S
C1001 C997 1.429 . S
C1001 C1002 1.523 . S
C1002 C986 1.368 . S
C1002 C998 1.368 . S
C1002 C1001 1.523 . S
H1003 C978 0.950 . S
H1004 C980 0.950 . S
H1005 C981 0.949 . S
H1006 C983 0.950 . S
H1007 C985 0.950 . S
C1008 C1009 1.349 . S
C1008 C1010 1.327 . S
C1008 H1033 0.950 . S
C1009 C1008 1.349 . S
C1009 C1025 1.349 . S
C1010 C1008 1.327 . S
C1010 C1029 1.429 . S
C1010 H1034 0.950 . S
C1011 C1028 1.574 . S
C1011 C1030 1.368 . S
C1011 H1035 0.949 . S
H1012 C1016 0.949 . S
C1013 C1014 1.349 . S
C1013 C1015 1.327 . S
C1013 H1036 0.950 . S
C1014 C1013 1.349 . S
C1014 C1026 1.349 . S
C1015 C1013 1.327 . S
C1015 C1031 1.429 . S
C1015 H1037 0.950 . S
C1016 H1012 0.949 . S
C1016 C1024 1.574 . S
C1016 C1032 1.368 . S
H1017 C1025 0.950 . S
H1018 C1023 0.950 . S
H1019 C1024 0.949 . S
H1020 C1026 0.950 . S
H1021 C1027 0.950 . S
H1022 C1028 0.949 . S
C1023 H1018 0.950 . S
C1023 C1025 1.327 . S
C1023 C1029 1.429 . S
C1024 C1016 1.574 . S
C1024 H1019 0.949 . S
C1024 C1030 1.368 . S
C1025 C1009 1.349 . S
C1025 H1017 0.950 . S
C1025 C1023 1.327 . S
C1026 C1014 1.349 . S
C1026 H1020 0.950 . S
C1026 C1027 1.327 . S
C1027 H1021 0.950 . S
C1027 C1026 1.327 . S
C1027 C1031 1.429 . S
C1028 C1011 1.574 . S
C1028 H1022 0.949 . S
C1028 C1032 1.368 . S
C1029 C1010 1.429 . S
C1029 C1023 1.429 . S
C1029 C1030 1.523 . S
C1030 C1011 1.368 . S
C1030 C1024 1.368 . S
C1030 C1029 1.523 . S
C1031 C1015 1.429 . S
C1031 C1027 1.429 . S
C1031 C1032 1.523 . S
C1032 C1016 1.368 . S
C1032 C1028 1.368 . S
C1032 C1031 1.523 . S
H1033 C1008 0.950 . S
H1034 C1010 0.950 . S
H1035 C1011 0.949 . S
H1036 C1013 0.950 . S
H1037 C1015 0.950 . S
C1038 C1039 1.349 . S
C1038 C1040 1.327 . S
C1038 H1063 0.950 . S
C1039 C1038 1.349 . S
C1039 C1055 1.349 . S
C1040 C1038 1.327 . S
C1040 C1059 1.429 . S
C1040 H1064 0.950 . S
C1041 C1058 1.574 . S
C1041 C1060 1.368 . S
C1041 H1065 0.949 . S
H1042 C1046 0.949 . S
C1043 C1044 1.349 . S
C1043 C1045 1.327 . S
C1043 H1066 0.950 . S
C1044 C1043 1.349 . S
C1044 C1056 1.349 . S
C1045 C1043 1.327 . S
C1045 C1061 1.429 . S
C1045 H1067 0.950 . S
C1046 H1042 0.949 . S
C1046 C1054 1.574 . S
C1046 C1062 1.368 . S
H1047 C1055 0.950 . S
H1048 C1053 0.950 . S
H1049 C1054 0.949 . S
H1050 C1056 0.950 . S
H1051 C1057 0.950 . S
H1052 C1058 0.949 . S
C1053 H1048 0.950 . S
C1053 C1055 1.327 . S
C1053 C1059 1.429 . S
C1054 C1046 1.574 . S
C1054 H1049 0.949 . S
C1054 C1060 1.368 . S
C1055 C1039 1.349 . S
C1055 H1047 0.950 . S
C1055 C1053 1.327 . S
C1056 C1044 1.349 . S
C1056 H1050 0.950 . S
C1056 C1057 1.327 . S
C1057 H1051 0.950 . S
C1057 C1056 1.327 . S
C1057 C1061 1.429 . S
C1058 C1041 1.574 . S
C1058 H1052 0.949 . S
C1058 C1062 1.368 . S
C1059 C1040 1.429 . S
C1059 C1053 1.429 . S
C1059 C1060 1.523 . S
C1060 C1041 1.368 . S
C1060 C1054 1.368 . S
C1060 C1059 1.523 . S
C1061 C1045 1.429 . S
C1061 C1057 1.429 . S
C1061 C1062 1.523 . S
C1062 C1046 1.368 . S
C1062 C1058 1.368 . S
C1062 C1061 1.523 . S
H1063 C1038 0.950 . S
H1064 C1040 0.950 . S
H1065 C1041 0.949 . S
H1066 C1043 0.950 . S
H1067 C1045 0.950 . S
C1068 C1069 1.349 . S
C1068 C1070 1.327 . S
C1068 H1093 0.950 . S
C1069 C1068 1.349 . S
C1069 C1085 1.349 . S
C1070 C1068 1.327 . S
C1070 C1089 1.429 . S
C1070 H1094 0.950 . S
C1071 C1088 1.574 . S
C1071 C1090 1.368 . S
C1071 H1095 0.949 . S
H1072 C1076 0.949 . S
C1073 C1074 1.349 . S
C1073 C1075 1.327 . S
C1073 H1096 0.950 . S
C1074 C1073 1.349 . S
C1074 C1086 1.349 . S
C1075 C1073 1.327 . S
C1075 C1091 1.429 . S
C1075 H1097 0.950 . S
C1076 H1072 0.949 . S
C1076 C1084 1.574 . S
C1076 C1092 1.368 . S
H1077 C1085 0.950 . S
H1078 C1083 0.950 . S
H1079 C1084 0.949 . S
H1080 C1086 0.950 . S
H1081 C1087 0.950 . S
H1082 C1088 0.949 . S
C1083 H1078 0.950 . S
C1083 C1085 1.327 . S
C1083 C1089 1.429 . S
C1084 C1076 1.574 . S
C1084 H1079 0.949 . S
C1084 C1090 1.368 . S
C1085 C1069 1.349 . S
C1085 H1077 0.950 . S
C1085 C1083 1.327 . S
C1086 C1074 1.349 . S
C1086 H1080 0.950 . S
C1086 C1087 1.327 . S
C1087 H1081 0.950 . S
C1087 C1086 1.327 . S
C1087 C1091 1.429 . S
C1088 C1071 1.574 . S
C1088 H1082 0.949 . S
C1088 C1092 1.368 . S
C1089 C1070 1.429 . S
C1089 C1083 1.429 . S
C1089 C1090 1.523 . S
C1090 C1071 1.368 . S
C1090 C1084 1.368 . S
C1090 C1089 1.523 . S
C1091 C1075 1.429 . S
C1091 C1087 1.429 . S
C1091 C1092 1.523 . S
C1092 C1076 1.368 . S
C1092 C1088 1.368 . S
C1092 C1091 1.523 . S
H1093 C1068 0.950 . S
H1094 C1070 0.950 . S
H1095 C1071 0.949 . S
H1096 C1073 0.950 . S
H1097 C1075 0.950 . S
C1098 C1099 1.349 . S
C1098 C1100 1.327 . S
C1098 H1123 0.950 . S
C1099 C1098 1.349 . S
C1099 C1115 1.349 . S
C1100 C1098 1.327 . S
C1100 C1119 1.429 . S
C1100 H1124 0.950 . S
C1101 C1118 1.574 . S
C1101 C1120 1.368 . S
C1101 H1125 0.949 . S
H1102 C1106 0.949 . S
C1103 C1104 1.349 . S
C1103 C1105 1.327 . S
C1103 H1126 0.950 . S
C1104 C1103 1.349 . S
C1104 C1116 1.349 . S
C1105 C1103 1.327 . S
C1105 C1121 1.429 . S
C1105 H1127 0.950 . S
C1106 H1102 0.949 . S
C1106 C1114 1.574 . S
C1106 C1122 1.368 . S
H1107 C1115 0.950 . S
H1108 C1113 0.950 . S
H1109 C1114 0.949 . S
H1110 C1116 0.950 . S
H1111 C1117 0.950 . S
H1112 C1118 0.949 . S
C1113 H1108 0.950 . S
C1113 C1115 1.327 . S
C1113 C1119 1.429 . S
C1114 C1106 1.574 . S
C1114 H1109 0.949 . S
C1114 C1120 1.368 . S
C1115 C1099 1.349 . S
C1115 H1107 0.950 . S
C1115 C1113 1.327 . S
C1116 C1104 1.349 . S
C1116 H1110 0.950 . S
C1116 C1117 1.327 . S
C1117 H1111 0.950 . S
C1117 C1116 1.327 . S
C1117 C1121 1.429 . S
C1118 C1101 1.574 . S
C1118 H1112 0.949 . S
C1118 C1122 1.368 . S
C1119 C1100 1.429 . S
C1119 C1113 1.429 . S
C1119 C1120 1.523 . S
C1120 C1101 1.368 . S
C1120 C1114 1.368 . S
C1120 C1119 1.523 . S
C1121 C1105 1.429 . S
C1121 C1117 1.429 . S
C1121 C1122 1.523 . S
C1122 C1106 1.368 . S
C1122 C1118 1.368 . S
C1122 C1121 1.523 . S
H1123 C1098 0.950 . S
H1124 C1100 0.950 . S
H1125 C1101 0.949 . S
H1126 C1103 0.950 . S
H1127 C1105 0.950 . S
C1128 C1129 1.349 . S
C1128 C1130 1.327 . S
C1128 H1153 0.950 . S
C1129 C1128 1.349 . S
C1129 C1145 1.349 1_554 S
C1130 C1128 1.327 . S
C1130 C1149 1.429 . S
C1130 H1154 0.950 . S
C1131 C1148 1.574 . S
C1131 C1150 1.368 1_556 S
C1131 H1155 0.949 . S
H1132 C1136 0.949 . S
C1133 C1134 1.349 1_556 S
C1133 C1135 1.327 . S
C1133 H1156 0.950 . S
C1134 C1133 1.349 1_554 S
C1134 C1146 1.349 . S
C1135 C1133 1.327 . S
C1135 C1151 1.429 1_556 S
C1135 H1157 0.950 . S
C1136 H1132 0.949 . S
C1136 C1144 1.574 . S
C1136 C1152 1.368 . S
H1137 C1145 0.950 . S
H1138 C1143 0.950 . S
H1139 C1144 0.949 . S
H1140 C1146 0.950 . S
H1141 C1147 0.950 . S
H1142 C1148 0.949 . S
C1143 H1138 0.950 . S
C1143 C1145 1.327 . S
C1143 C1149 1.429 1_556 S
C1144 C1136 1.574 . S
C1144 H1139 0.949 . S
C1144 C1150 1.368 . S
C1145 C1129 1.349 1_556 S
C1145 H1137 0.950 . S
C1145 C1143 1.327 . S
C1146 C1134 1.349 . S
C1146 H1140 0.950 . S
C1146 C1147 1.327 . S
C1147 H1141 0.950 . S
C1147 C1146 1.327 . S
C1147 C1151 1.429 . S
C1148 C1131 1.574 . S
C1148 H1142 0.949 . S
C1148 C1152 1.368 1_556 S
C1149 C1130 1.429 . S
C1149 C1143 1.429 1_554 S
C1149 C1150 1.523 . S
C1150 C1131 1.368 1_554 S
C1150 C1144 1.368 . S
C1150 C1149 1.523 . S
C1151 C1135 1.429 1_554 S
C1151 C1147 1.429 . S
C1151 C1152 1.523 . S
C1152 C1136 1.368 . S
C1152 C1148 1.368 1_554 S
C1152 C1151 1.523 . S
H1153 C1128 0.950 . S
H1154 C1130 0.950 . S
H1155 C1131 0.949 . S
H1156 C1133 0.950 . S
H1157 C1135 0.950 . S
C1158 C1159 1.349 1_556 S
C1158 C1160 1.327 . S
C1158 H1183 0.950 . S
C1159 C1158 1.349 1_554 S
C1159 C1175 1.349 . S
C1160 C1158 1.327 . S
C1160 C1179 1.429 1_556 S
C1160 H1184 0.950 . S
C1161 C1178 1.574 . S
C1161 C1180 1.368 . S
C1161 H1185 0.949 . S
H1162 C1166 0.949 . S
C1163 C1164 1.349 . S
C1163 C1165 1.327 . S
C1163 H1186 0.950 . S
C1164 C1163 1.349 . S
C1164 C1176 1.349 1_554 S
C1165 C1163 1.327 . S
C1165 C1181 1.429 . S
C1165 H1187 0.950 . S
C1166 H1162 0.949 . S
C1166 C1174 1.574 . S
C1166 C1182 1.368 1_556 S
H1167 C1175 0.950 . S
H1168 C1173 0.950 . S
H1169 C1174 0.949 . S
H1170 C1176 0.950 . S
H1171 C1177 0.950 . S
H1172 C1178 0.949 . S
C1173 H1168 0.950 . S
C1173 C1175 1.327 . S
C1173 C1179 1.429 . S
C1174 C1166 1.574 . S
C1174 H1169 0.949 . S
C1174 C1180 1.368 1_556 S
C1175 C1159 1.349 . S
C1175 H1167 0.950 . S
C1175 C1173 1.327 . S
C1176 C1164 1.349 1_556 S
C1176 H1170 0.950 . S
C1176 C1177 1.327 . S
C1177 H1171 0.950 . S
C1177 C1176 1.327 . S
C1177 C1181 1.429 1_556 S
C1178 C1161 1.574 . S
C1178 H1172 0.949 . S
C1178 C1182 1.368 . S
C1179 C1160 1.429 1_554 S
C1179 C1173 1.429 . S
C1179 C1180 1.523 . S
C1180 C1161 1.368 . S
C1180 C1174 1.368 1_554 S
C1180 C1179 1.523 . S
C1181 C1165 1.429 . S
C1181 C1177 1.429 1_554 S
C1181 C1182 1.523 . S
C1182 C1166 1.368 1_554 S
C1182 C1178 1.368 . S
C1182 C1181 1.523 . S
H1183 C1158 0.950 . S
H1184 C1160 0.950 . S
H1185 C1161 0.949 . S
H1186 C1163 0.950 . S
H1187 C1165 0.950 . S
C1188 C1189 1.338 1_556 S
C1188 C1190 1.328 . S
C1188 H1213 0.960 . S
C1189 C1188 1.338 1_554 S
C1189 C1205 1.349 . S
C1190 C1188 1.328 . S
C1190 C1209 1.429 1_556 S
C1190 H1214 0.950 . S
C1191 C1208 1.574 . S
C1191 C1210 1.368 . S
C1191 H1215 0.949 . S
H1192 C1196 0.949 . S
C1193 C1194 1.349 . S
C1193 C1195 1.327 . S
C1193 H1216 0.950 . S
C1194 C1193 1.349 . S
C1194 C1206 1.349 1_554 S
C1195 C1193 1.327 . S
C1195 C1211 1.429 . S
C1195 H1217 0.950 . S
C1196 H1192 0.949 . S
C1196 C1204 1.574 . S
C1196 C1212 1.368 1_556 S
H1197 C1205 0.950 . S
H1198 C1203 0.950 . S
H1199 C1204 0.949 . S
H1200 C1206 0.950 . S
H1201 C1207 0.950 . S
H1202 C1208 0.949 . S
C1203 H1198 0.950 . S
C1203 C1205 1.327 . S
C1203 C1209 1.429 . S
C1204 C1196 1.574 . S
C1204 H1199 0.949 . S
C1204 C1210 1.368 1_556 S
C1205 C1189 1.349 . S
C1205 H1197 0.950 . S
C1205 C1203 1.327 . S
C1206 C1194 1.349 1_556 S
C1206 H1200 0.950 . S
C1206 C1207 1.327 . S
C1207 H1201 0.950 . S
C1207 C1206 1.327 . S
C1207 C1211 1.429 1_556 S
C1208 C1191 1.574 . S
C1208 H1202 0.949 . S
C1208 C1212 1.368 . S
C1209 C1190 1.429 1_554 S
C1209 C1203 1.429 . S
C1209 C1210 1.523 . S
C1210 C1191 1.368 . S
C1210 C1204 1.368 1_554 S
C1210 C1209 1.523 . S
C1211 C1195 1.429 . S
C1211 C1207 1.429 1_554 S
C1211 C1212 1.523 . S
C1212 C1196 1.368 1_554 S
C1212 C1208 1.368 . S
C1212 C1211 1.523 . S
H1213 C1188 0.960 . S
H1214 C1190 0.950 . S
H1215 C1191 0.949 . S
H1216 C1193 0.950 . S
H1217 C1195 0.950 . S
C1218 C1219 1.349 . S
C1218 C1220 1.327 . S
C1218 H1243 0.950 . S
C1219 C1218 1.349 . S
C1219 C1235 1.349 1_554 S
C1220 C1218 1.327 . S
C1220 C1239 1.429 . S
C1220 H1244 0.950 . S
C1221 C1238 1.574 . S
C1221 C1240 1.368 1_556 S
C1221 H1245 0.949 . S
H1222 C1226 0.949 . S
C1223 C1224 1.349 1_556 S
C1223 C1225 1.327 . S
C1223 H1246 0.950 . S
C1224 C1223 1.349 1_554 S
C1224 C1236 1.349 . S
C1225 C1223 1.327 . S
C1225 C1241 1.429 1_556 S
C1225 H1247 0.950 . S
C1226 H1222 0.949 . S
C1226 C1234 1.574 . S
C1226 C1242 1.368 . S
H1227 C1235 0.950 . S
H1228 C1233 0.950 . S
H1229 C1234 0.949 . S
H1230 C1236 0.950 . S
H1231 C1237 0.950 . S
H1232 C1238 0.949 . S
C1233 H1228 0.950 . S
C1233 C1235 1.327 . S
C1233 C1239 1.429 1_556 S
C1234 C1226 1.574 . S
C1234 H1229 0.949 . S
C1234 C1240 1.368 . S
C1235 C1219 1.349 1_556 S
C1235 H1227 0.950 . S
C1235 C1233 1.327 . S
C1236 C1224 1.349 . S
C1236 H1230 0.950 . S
C1236 C1237 1.327 . S
C1237 H1231 0.950 . S
C1237 C1236 1.327 . S
C1237 C1241 1.429 . S
C1238 C1221 1.574 . S
C1238 H1232 0.949 . S
C1238 C1242 1.368 1_556 S
C1239 C1220 1.429 . S
C1239 C1233 1.429 1_554 S
C1239 C1240 1.523 . S
C1240 C1221 1.368 1_554 S
C1240 C1234 1.368 . S
C1240 C1239 1.523 . S
C1241 C1225 1.429 1_554 S
C1241 C1237 1.429 . S
C1241 C1242 1.523 . S
C1242 C1226 1.368 . S
C1242 C1238 1.368 1_554 S
C1242 C1241 1.523 . S
H1243 C1218 0.950 . S
H1244 C1220 0.950 . S
H1245 C1221 0.949 . S
H1246 C1223 0.950 . S
H1247 C1225 0.950 . S
C1248 C1249 1.349 1_556 S
C1248 C1250 1.327 . S
C1248 H1273 0.950 . S
C1249 C1248 1.349 1_554 S
C1249 C1265 1.349 . S
C1250 C1248 1.327 . S
C1250 C1269 1.429 1_556 S
C1250 H1274 0.950 . S
C1251 C1268 1.574 . S
C1251 C1270 1.368 . S
C1251 H1275 0.949 . S
H1252 C1256 0.949 . S
C1253 C1254 1.349 . S
C1253 C1255 1.327 . S
C1253 H1276 0.950 . S
C1254 C1253 1.349 . S
C1254 C1266 1.349 1_554 S
C1255 C1253 1.327 . S
C1255 C1271 1.429 . S
C1255 H1277 0.950 . S
C1256 H1252 0.949 . S
C1256 C1264 1.574 . S
C1256 C1272 1.368 1_556 S
H1257 C1265 0.950 . S
H1258 C1263 0.950 . S
H1259 C1264 0.949 . S
H1260 C1266 0.950 . S
H1261 C1267 0.950 . S
H1262 C1268 0.949 . S
C1263 H1258 0.950 . S
C1263 C1265 1.327 . S
C1263 C1269 1.429 . S
C1264 C1256 1.574 . S
C1264 H1259 0.949 . S
C1264 C1270 1.368 1_556 S
C1265 C1249 1.349 . S
C1265 H1257 0.950 . S
C1265 C1263 1.327 . S
C1266 C1254 1.349 1_556 S
C1266 H1260 0.950 . S
C1266 C1267 1.327 . S
C1267 H1261 0.950 . S
C1267 C1266 1.327 . S
C1267 C1271 1.429 1_556 S
C1268 C1251 1.574 . S
C1268 H1262 0.949 . S
C1268 C1272 1.368 . S
C1269 C1250 1.429 1_554 S
C1269 C1263 1.429 . S
C1269 C1270 1.523 . S
C1270 C1251 1.368 . S
C1270 C1264 1.368 1_554 S
C1270 C1269 1.523 . S
C1271 C1255 1.429 . S
C1271 C1267 1.429 1_554 S
C1271 C1272 1.523 . S
C1272 C1256 1.368 1_554 S
C1272 C1268 1.368 . S
C1272 C1271 1.523 . S
H1273 C1248 0.950 . S
H1274 C1250 0.950 . S
H1275 C1251 0.949 . S
H1276 C1253 0.950 . S
H1277 C1255 0.950 . S
C1278 C1279 1.349 . S
C1278 C1280 1.327 . S
C1278 H1303 0.950 . S
C1279 C1278 1.349 . S
C1279 C1295 1.349 1_554 S
C1280 C1278 1.327 . S
C1280 C1299 1.429 . S
C1280 H1304 0.950 . S
C1281 C1298 1.574 . S
C1281 C1300 1.368 1_556 S
C1281 H1305 0.949 . S
H1282 C1286 0.949 . S
C1283 C1284 1.349 1_556 S
C1283 C1285 1.327 . S
C1283 H1306 0.950 . S
C1284 C1283 1.349 1_554 S
C1284 C1296 1.349 . S
C1285 C1283 1.327 . S
C1285 C1301 1.429 1_556 S
C1285 H1307 0.950 . S
C1286 H1282 0.949 . S
C1286 C1294 1.574 . S
C1286 C1302 1.368 . S
H1287 C1295 0.950 . S
H1288 C1293 0.950 . S
H1289 C1294 0.949 . S
H1290 C1296 0.950 . S
H1291 C1297 0.950 . S
H1292 C1298 0.949 . S
C1293 H1288 0.950 . S
C1293 C1295 1.327 . S
C1293 C1299 1.429 1_556 S
C1294 C1286 1.574 . S
C1294 H1289 0.949 . S
C1294 C1300 1.368 . S
C1295 C1279 1.349 1_556 S
C1295 H1287 0.950 . S
C1295 C1293 1.327 . S
C1296 C1284 1.349 . S
C1296 H1290 0.950 . S
C1296 C1297 1.327 . S
C1297 H1291 0.950 . S
C1297 C1296 1.327 . S
C1297 C1301 1.429 . S
C1298 C1281 1.574 . S
C1298 H1292 0.949 . S
C1298 C1302 1.368 1_556 S
C1299 C1280 1.429 . S
C1299 C1293 1.429 1_554 S
C1299 C1300 1.523 . S
C1300 C1281 1.368 1_554 S
C1300 C1294 1.368 . S
C1300 C1299 1.523 . S
C1301 C1285 1.429 1_554 S
C1301 C1297 1.429 . S
C1301 C1302 1.523 . S
C1302 C1286 1.368 . S
C1302 C1298 1.368 1_554 S
C1302 C1301 1.523 . S
H1303 C1278 0.950 . S
H1304 C1280 0.950 . S
H1305 C1281 0.949 . S
H1306 C1283 0.950 . S
H1307 C1285 0.950 . S
C1308 C1309 1.349 . S
C1308 C1310 1.327 . S
C1308 H1333 0.950 . S
C1309 C1308 1.349 . S
C1309 C1325 1.349 . S
C1310 C1308 1.327 . S
C1310 C1329 1.429 . S
C1310 H1334 0.950 . S
C1311 C1328 1.574 . S
C1311 C1330 1.368 . S
C1311 H1335 0.949 . S
H1312 C1316 0.949 . S
C1313 C1314 1.349 . S
C1313 C1315 1.327 . S
C1313 H1336 0.950 . S
C1314 C1313 1.349 . S
C1314 C1326 1.349 . S
C1315 C1313 1.327 . S
C1315 C1331 1.429 . S
C1315 H1337 0.950 . S
C1316 H1312 0.949 . S
C1316 C1324 1.574 . S
C1316 C1332 1.368 . S
H1317 C1325 0.950 . S
H1318 C1323 0.950 . S
H1319 C1324 0.949 . S
H1320 C1326 0.950 . S
H1321 C1327 0.950 . S
H1322 C1328 0.949 . S
C1323 H1318 0.950 . S
C1323 C1325 1.327 . S
C1323 C1329 1.429 . S
C1324 C1316 1.574 . S
C1324 H1319 0.949 . S
C1324 C1330 1.368 . S
C1325 C1309 1.349 . S
C1325 H1317 0.950 . S
C1325 C1323 1.327 . S
C1326 C1314 1.349 . S
C1326 H1320 0.950 . S
C1326 C1327 1.327 . S
C1327 H1321 0.950 . S
C1327 C1326 1.327 . S
C1327 C1331 1.429 . S
C1328 C1311 1.574 . S
C1328 H1322 0.949 . S
C1328 C1332 1.368 . S
C1329 C1310 1.429 . S
C1329 C1323 1.429 . S
C1329 C1330 1.523 . S
C1330 C1311 1.368 . S
C1330 C1324 1.368 . S
C1330 C1329 1.523 . S
C1331 C1315 1.429 . S
C1331 C1327 1.429 . S
C1331 C1332 1.523 . S
C1332 C1316 1.368 . S
C1332 C1328 1.368 . S
C1332 C1331 1.523 . S
H1333 C1308 0.950 . S
H1334 C1310 0.950 . S
H1335 C1311 0.949 . S
H1336 C1313 0.950 . S
H1337 C1315 0.950 . S
C1338 C1339 1.349 . S
C1338 C1340 1.327 . S
C1338 H1363 0.950 . S
C1339 C1338 1.349 . S
C1339 C1355 1.349 . S
C1340 C1338 1.327 . S
C1340 C1359 1.429 . S
C1340 H1364 0.950 . S
C1341 C1358 1.574 . S
C1341 C1360 1.368 . S
C1341 H1365 0.949 . S
H1342 C1346 0.949 . S
C1343 C1344 1.349 . S
C1343 C1345 1.327 . S
C1343 H1366 0.950 . S
C1344 C1343 1.349 . S
C1344 C1356 1.349 . S
C1345 C1343 1.327 . S
C1345 C1361 1.429 . S
C1345 H1367 0.950 . S
C1346 H1342 0.949 . S
C1346 C1354 1.574 . S
C1346 C1362 1.368 . S
H1347 C1355 0.950 . S
H1348 C1353 0.950 . S
H1349 C1354 0.949 . S
H1350 C1356 0.950 . S
H1351 C1357 0.950 . S
H1352 C1358 0.949 . S
C1353 H1348 0.950 . S
C1353 C1355 1.327 . S
C1353 C1359 1.429 . S
C1354 C1346 1.574 . S
C1354 H1349 0.949 . S
C1354 C1360 1.368 . S
C1355 C1339 1.349 . S
C1355 H1347 0.950 . S
C1355 C1353 1.327 . S
C1356 C1344 1.349 . S
C1356 H1350 0.950 . S
C1356 C1357 1.327 . S
C1357 H1351 0.950 . S
C1357 C1356 1.327 . S
C1357 C1361 1.429 . S
C1358 C1341 1.574 . S
C1358 H1352 0.949 . S
C1358 C1362 1.368 . S
C1359 C1340 1.429 . S
C1359 C1353 1.429 . S
C1359 C1360 1.523 . S
C1360 C1341 1.368 . S
C1360 C1354 1.368 . S
C1360 C1359 1.523 . S
C1361 C1345 1.429 . S
C1361 C1357 1.429 . S
C1361 C1362 1.523 . S
C1362 C1346 1.368 . S
C1362 C1358 1.368 . S
C1362 C1361 1.523 . S
H1363 C1338 0.950 . S
H1364 C1340 0.950 . S
H1365 C1341 0.949 . S
H1366 C1343 0.950 . S
H1367 C1345 0.950 . S
C1368 C1369 1.349 . S
C1368 C1370 1.327 . S
C1368 H1393 0.950 . S
C1369 C1368 1.349 . S
C1369 C1385 1.349 . S
C1370 C1368 1.327 . S
C1370 C1389 1.429 . S
C1370 H1394 0.950 . S
C1371 C1388 1.574 . S
C1371 C1390 1.368 . S
C1371 H1395 0.949 . S
H1372 C1376 0.949 . S
C1373 C1374 1.349 . S
C1373 C1375 1.327 . S
C1373 H1396 0.950 . S
C1374 C1373 1.349 . S
C1374 C1386 1.349 . S
C1375 C1373 1.327 . S
C1375 C1391 1.429 . S
C1375 H1397 0.950 . S
C1376 H1372 0.949 . S
C1376 C1384 1.574 . S
C1376 C1392 1.368 . S
H1377 C1385 0.950 . S
H1378 C1383 0.950 . S
H1379 C1384 0.949 . S
H1380 C1386 0.950 . S
H1381 C1387 0.950 . S
H1382 C1388 0.949 . S
C1383 H1378 0.950 . S
C1383 C1385 1.327 . S
C1383 C1389 1.429 . S
C1384 C1376 1.574 . S
C1384 H1379 0.949 . S
C1384 C1390 1.368 . S
C1385 C1369 1.349 . S
C1385 H1377 0.950 . S
C1385 C1383 1.327 . S
C1386 C1374 1.349 . S
C1386 H1380 0.950 . S
C1386 C1387 1.327 . S
C1387 H1381 0.950 . S
C1387 C1386 1.327 . S
C1387 C1391 1.429 . S
C1388 C1371 1.574 . S
C1388 H1382 0.949 . S
C1388 C1392 1.368 . S
C1389 C1370 1.429 . S
C1389 C1383 1.429 . S
C1389 C1390 1.523 . S
C1390 C1371 1.368 . S
C1390 C1384 1.368 . S
C1390 C1389 1.523 . S
C1391 C1375 1.429 . S
C1391 C1387 1.429 . S
C1391 C1392 1.523 . S
C1392 C1376 1.368 . S
C1392 C1388 1.368 . S
C1392 C1391 1.523 . S
H1393 C1368 0.950 . S
H1394 C1370 0.950 . S
H1395 C1371 0.949 . S
H1396 C1373 0.950 . S
H1397 C1375 0.950 . S
C1398 C1399 1.349 . S
C1398 C1400 1.327 . S
C1398 H1423 0.950 . S
C1399 C1398 1.349 . S
C1399 C1415 1.349 . S
C1400 C1398 1.327 . S
C1400 C1419 1.429 . S
C1400 H1424 0.950 . S
C1401 C1418 1.574 . S
C1401 C1420 1.368 . S
C1401 H1425 0.949 . S
H1402 C1406 0.949 . S
C1403 C1404 1.349 . S
C1403 C1405 1.327 . S
C1403 H1426 0.950 . S
C1404 C1403 1.349 . S
C1404 C1416 1.349 . S
C1405 C1403 1.327 . S
C1405 C1421 1.429 . S
C1405 H1427 0.950 . S
C1406 H1402 0.949 . S
C1406 C1414 1.574 . S
C1406 C1422 1.368 . S
H1407 C1415 0.950 . S
H1408 C1413 0.950 . S
H1409 C1414 0.949 . S
H1410 C1416 0.950 . S
H1411 C1417 0.950 . S
H1412 C1418 0.949 . S
C1413 H1408 0.950 . S
C1413 C1415 1.327 . S
C1413 C1419 1.429 . S
C1414 C1406 1.574 . S
C1414 H1409 0.949 . S
C1414 C1420 1.368 . S
C1415 C1399 1.349 . S
C1415 H1407 0.950 . S
C1415 C1413 1.327 . S
C1416 C1404 1.349 . S
C1416 H1410 0.950 . S
C1416 C1417 1.327 . S
C1417 H1411 0.950 . S
C1417 C1416 1.327 . S
C1417 C1421 1.429 . S
C1418 C1401 1.574 . S
C1418 H1412 0.949 . S
C1418 C1422 1.368 . S
C1419 C1400 1.429 . S
C1419 C1413 1.429 . S
C1419 C1420 1.523 . S
C1420 C1401 1.368 . S
C1420 C1414 1.368 . S
C1420 C1419 1.523 . S
C1421 C1405 1.429 . S
C1421 C1417 1.429 . S
C1421 C1422 1.523 . S
C1422 C1406 1.368 . S
C1422 C1418 1.368 . S
C1422 C1421 1.523 . S
H1423 C1398 0.950 . S
H1424 C1400 0.950 . S
H1425 C1401 0.949 . S
H1426 C1403 0.950 . S
H1427 C1405 0.950 . S
C1428 C1429 1.349 . S
C1428 C1430 1.327 . S
C1428 H1453 0.950 . S
C1429 C1428 1.349 . S
C1429 C1445 1.349 . S
C1430 C1428 1.327 . S
C1430 C1449 1.429 . S
C1430 H1454 0.950 . S
C1431 C1448 1.574 . S
C1431 C1450 1.368 . S
C1431 H1455 0.949 . S
H1432 C1436 0.949 . S
C1433 C1434 1.349 . S
C1433 C1435 1.327 . S
C1433 H1456 0.950 . S
C1434 C1433 1.349 . S
C1434 C1446 1.349 . S
C1435 C1433 1.327 . S
C1435 C1451 1.429 . S
C1435 H1457 0.950 . S
C1436 H1432 0.949 . S
C1436 C1444 1.574 . S
C1436 C1452 1.368 . S
H1437 C1445 0.950 . S
H1438 C1443 0.950 . S
H1439 C1444 0.949 . S
H1440 C1446 0.950 . S
H1441 C1447 0.950 . S
H1442 C1448 0.949 . S
C1443 H1438 0.950 . S
C1443 C1445 1.327 . S
C1443 C1449 1.429 . S
C1444 C1436 1.574 . S
C1444 H1439 0.949 . S
C1444 C1450 1.368 . S
C1445 C1429 1.349 . S
C1445 H1437 0.950 . S
C1445 C1443 1.327 . S
C1446 C1434 1.349 . S
C1446 H1440 0.950 . S
C1446 C1447 1.327 . S
C1447 H1441 0.950 . S
C1447 C1446 1.327 . S
C1447 C1451 1.429 . S
C1448 C1431 1.574 . S
C1448 H1442 0.949 . S
C1448 C1452 1.368 . S
C1449 C1430 1.429 . S
C1449 C1443 1.429 . S
C1449 C1450 1.523 . S
C1450 C1431 1.368 . S
C1450 C1444 1.368 . S
C1450 C1449 1.523 . S
C1451 C1435 1.429 . S
C1451 C1447 1.429 . S
C1451 C1452 1.523 . S
C1452 C1436 1.368 . S
C1452 C1448 1.368 . S
C1452 C1451 1.523 . S
H1453 C1428 0.950 . S
H1454 C1430 0.950 . S
H1455 C1431 0.949 . S
H1456 C1433 0.950 . S
H1457 C1435 0.950 . S
C1458 C1459 1.349 . S
C1458 C1460 1.327 . S
C1458 H1483 0.950 . S
C1459 C1458 1.349 . S
C1459 C1475 1.349 . S
C1460 C1458 1.327 . S
C1460 C1479 1.429 . S
C1460 H1484 0.950 . S
C1461 C1478 1.574 . S
C1461 C1480 1.368 . S
C1461 H1485 0.949 . S
H1462 C1466 0.949 . S
C1463 C1464 1.349 . S
C1463 C1465 1.327 . S
C1463 H1486 0.950 . S
C1464 C1463 1.349 . S
C1464 C1476 1.349 . S
C1465 C1463 1.327 . S
C1465 C1481 1.429 . S
C1465 H1487 0.950 . S
C1466 H1462 0.949 . S
C1466 C1474 1.574 . S
C1466 C1482 1.368 . S
H1467 C1475 0.950 . S
H1468 C1473 0.950 . S
H1469 C1474 0.949 . S
H1470 C1476 0.950 . S
H1471 C1477 0.950 . S
H1472 C1478 0.949 . S
C1473 H1468 0.950 . S
C1473 C1475 1.327 . S
C1473 C1479 1.429 . S
C1474 C1466 1.574 . S
C1474 H1469 0.949 . S
C1474 C1480 1.368 . S
C1475 C1459 1.349 . S
C1475 H1467 0.950 . S
C1475 C1473 1.327 . S
C1476 C1464 1.349 . S
C1476 H1470 0.950 . S
C1476 C1477 1.327 . S
C1477 H1471 0.950 . S
C1477 C1476 1.327 . S
C1477 C1481 1.429 . S
C1478 C1461 1.574 . S
C1478 H1472 0.949 . S
C1478 C1482 1.368 . S
C1479 C1460 1.429 . S
C1479 C1473 1.429 . S
C1479 C1480 1.523 . S
C1480 C1461 1.368 . S
C1480 C1474 1.368 . S
C1480 C1479 1.523 . S
C1481 C1465 1.429 . S
C1481 C1477 1.429 . S
C1481 C1482 1.523 . S
C1482 C1466 1.368 . S
C1482 C1478 1.368 . S
C1482 C1481 1.523 . S
H1483 C1458 0.950 . S
H1484 C1460 0.950 . S
H1485 C1461 0.949 . S
H1486 C1463 0.950 . S
H1487 C1465 0.950 . S
C1488 C1489 1.349 1_554 S
C1488 C1490 1.327 . S
C1488 H1513 0.950 . S
C1489 C1488 1.349 1_556 S
C1489 C1505 1.349 . S
C1490 C1488 1.327 . S
C1490 C1509 1.429 1_554 S
C1490 H1514 0.950 . S
C1491 C1508 1.574 . S
C1491 C1510 1.368 . S
C1491 H1515 0.949 . S
H1492 C1496 0.949 . S
C1493 C1494 1.349 . S
C1493 C1495 1.327 . S
C1493 H1516 0.950 . S
C1494 C1493 1.349 . S
C1494 C1506 1.349 1_556 S
C1495 C1493 1.327 . S
C1495 C1511 1.429 . S
C1495 H1517 0.950 . S
C1496 H1492 0.949 . S
C1496 C1504 1.574 . S
C1496 C1512 1.368 1_554 S
H1497 C1505 0.950 . S
H1498 C1503 0.950 . S
H1499 C1504 0.949 . S
H1500 C1506 0.950 . S
H1501 C1507 0.950 . S
H1502 C1508 0.949 . S
C1503 H1498 0.950 . S
C1503 C1505 1.327 . S
C1503 C1509 1.429 . S
C1504 C1496 1.574 . S
C1504 H1499 0.949 . S
C1504 C1510 1.368 1_564 S
C1505 C1489 1.349 . S
C1505 H1497 0.950 . S
C1505 C1503 1.327 . S
C1506 C1494 1.349 1_554 S
C1506 H1500 0.950 . S
C1506 C1507 1.327 . S
C1507 H1501 0.950 . S
C1507 C1506 1.327 . S
C1507 C1511 1.429 1_554 S
C1508 C1491 1.574 . S
C1508 H1502 0.949 . S
C1508 C1512 1.368 1_545 S
C1509 C1490 1.429 1_556 S
C1509 C1503 1.429 . S
C1509 C1510 1.523 . S
C1510 C1491 1.368 . S
C1510 C1504 1.368 1_546 S
C1510 C1509 1.523 . S
C1511 C1495 1.429 . S
C1511 C1507 1.429 1_556 S
C1511 C1512 1.523 . S
C1512 C1496 1.368 1_556 S
C1512 C1508 1.368 1_565 S
C1512 C1511 1.523 . S
H1513 C1488 0.950 . S
H1514 C1490 0.950 . S
H1515 C1491 0.949 . S
H1516 C1493 0.950 . S
H1517 C1495 0.950 . S
C1518 C1519 1.349 . S
C1518 C1520 1.327 . S
C1518 H1543 0.950 . S
C1519 C1518 1.349 . S
C1519 C1535 1.349 1_556 S
C1520 C1518 1.327 . S
C1520 C1539 1.429 . S
C1520 H1544 0.950 . S
C1521 C1538 1.574 . S
C1521 C1540 1.368 1_554 S
C1521 H1545 0.949 . S
H1522 C1526 0.949 . S
C1523 C1524 1.349 1_554 S
C1523 C1525 1.327 . S
C1523 H1546 0.950 . S
C1524 C1523 1.349 1_556 S
C1524 C1536 1.349 . S
C1525 C1523 1.327 . S
C1525 C1541 1.429 1_554 S
C1525 H1547 0.950 . S
C1526 H1522 0.949 . S
C1526 C1534 1.574 . S
C1526 C1542 1.368 . S
H1527 C1535 0.950 . S
H1528 C1533 0.950 . S
H1529 C1534 0.949 . S
H1530 C1536 0.950 . S
H1531 C1537 0.950 . S
H1532 C1538 0.949 . S
C1533 H1528 0.950 . S
C1533 C1535 1.327 . S
C1533 C1539 1.429 1_554 S
C1534 C1526 1.574 . S
C1534 H1529 0.949 . S
C1534 C1540 1.368 . S
C1535 C1519 1.349 1_554 S
C1535 H1527 0.950 . S
C1535 C1533 1.327 . S
C1536 C1524 1.349 . S
C1536 H1530 0.950 . S
C1536 C1537 1.327 . S
C1537 H1531 0.950 . S
C1537 C1536 1.327 . S
C1537 C1541 1.429 . S
C1538 C1521 1.574 . S
C1538 H1532 0.949 . S
C1538 C1542 1.368 1_554 S
C1539 C1520 1.429 . S
C1539 C1533 1.429 1_556 S
C1539 C1540 1.523 . S
C1540 C1521 1.368 1_556 S
C1540 C1534 1.368 . S
C1540 C1539 1.523 . S
C1541 C1525 1.429 1_556 S
C1541 C1537 1.429 . S
C1541 C1542 1.523 . S
C1542 C1526 1.368 . S
C1542 C1538 1.368 1_556 S
C1542 C1541 1.523 . S
H1543 C1518 0.950 . S
H1544 C1520 0.950 . S
H1545 C1521 0.949 . S
H1546 C1523 0.950 . S
H1547 C1525 0.950 . S
C1548 C1549 1.349 1_554 S
C1548 C1550 1.327 . S
C1548 H1573 0.950 . S
C1549 C1548 1.349 1_556 S
C1549 C1565 1.349 . S
C1550 C1548 1.327 . S
C1550 C1569 1.429 1_554 S
C1550 H1574 0.950 . S
C1551 C1568 1.574 . S
C1551 C1570 1.368 . S
C1551 H1575 0.949 . S
H1552 C1556 0.949 . S
C1553 C1554 1.349 . S
C1553 C1555 1.327 . S
C1553 H1576 0.950 . S
C1554 C1553 1.349 . S
C1554 C1566 1.349 1_556 S
C1555 C1553 1.327 . S
C1555 C1571 1.429 . S
C1555 H1577 0.950 . S
C1556 H1552 0.949 . S
C1556 C1564 1.574 . S
C1556 C1572 1.368 1_554 S
H1557 C1565 0.950 . S
H1558 C1563 0.950 . S
H1559 C1564 0.949 . S
H1560 C1566 0.950 . S
H1561 C1567 0.950 . S
H1562 C1568 0.949 . S
C1563 H1558 0.950 . S
C1563 C1565 1.327 . S
C1563 C1569 1.429 . S
C1564 C1556 1.574 . S
C1564 H1559 0.949 . S
C1564 C1570 1.368 1_454 S
C1565 C1549 1.349 . S
C1565 H1557 0.950 . S
C1565 C1563 1.327 . S
C1566 C1554 1.349 1_554 S
C1566 H1560 0.950 . S
C1566 C1567 1.327 . S
C1567 H1561 0.950 . S
C1567 C1566 1.327 . S
C1567 C1571 1.429 1_554 S
C1568 C1551 1.574 . S
C1568 H1562 0.949 . S
C1568 C1572 1.368 1_655 S
C1569 C1550 1.429 1_556 S
C1569 C1563 1.429 . S
C1569 C1570 1.523 . S
C1570 C1551 1.368 . S
C1570 C1564 1.368 1_656 S
C1570 C1569 1.523 . S
C1571 C1555 1.429 . S
C1571 C1567 1.429 1_556 S
C1571 C1572 1.523 . S
C1572 C1556 1.368 1_556 S
C1572 C1568 1.368 1_455 S
C1572 C1571 1.523 . S
H1573 C1548 0.950 . S
H1574 C1550 0.950 . S
H1575 C1551 0.949 . S
H1576 C1553 0.950 . S
H1577 C1555 0.950 . S
C1578 C1579 1.349 . S
C1578 C1580 1.327 . S
C1578 H1603 0.950 . S
C1579 C1578 1.349 . S
C1579 C1595 1.349 . S
C1580 C1578 1.327 . S
C1580 C1599 1.429 . S
C1580 H1604 0.950 . S
C1581 C1598 1.574 . S
C1581 C1600 1.368 . S
C1581 H1605 0.949 . S
H1582 C1586 0.949 . S
C1583 C1584 1.349 . S
C1583 C1585 1.327 . S
C1583 H1606 0.950 . S
C1584 C1583 1.349 . S
C1584 C1596 1.349 . S
C1585 C1583 1.327 . S
C1585 C1601 1.429 . S
C1585 H1607 0.950 . S
C1586 H1582 0.949 . S
C1586 C1594 1.574 . S
C1586 C1602 1.368 . S
H1587 C1595 0.950 . S
H1588 C1593 0.950 . S
H1589 C1594 0.949 . S
H1590 C1596 0.950 . S
H1591 C1597 0.950 . S
H1592 C1598 0.949 . S
C1593 H1588 0.950 . S
C1593 C1595 1.327 . S
C1593 C1599 1.429 . S
C1594 C1586 1.574 . S
C1594 H1589 0.949 . S
C1594 C1600 1.368 1_455 S
C1595 C1579 1.349 . S
C1595 H1587 0.950 . S
C1595 C1593 1.327 . S
C1596 C1584 1.349 . S
C1596 H1590 0.950 . S
C1596 C1597 1.327 . S
C1597 H1591 0.950 . S
C1597 C1596 1.327 . S
C1597 C1601 1.429 . S
C1598 C1581 1.574 . S
C1598 H1592 0.949 . S
C1598 C1602 1.368 1_655 S
C1599 C1580 1.429 . S
C1599 C1593 1.429 . S
C1599 C1600 1.523 . S
C1600 C1581 1.368 . S
C1600 C1594 1.368 1_655 S
C1600 C1599 1.523 . S
C1601 C1585 1.429 . S
C1601 C1597 1.429 . S
C1601 C1602 1.523 . S
C1602 C1586 1.368 . S
C1602 C1598 1.368 1_455 S
C1602 C1601 1.523 . S
H1603 C1578 0.950 . S
H1604 C1580 0.950 . S
H1605 C1581 0.949 . S
H1606 C1583 0.950 . S
H1607 C1585 0.950 . S
C1608 C1609 1.349 . S
C1608 C1610 1.327 . S
C1608 H1633 0.950 . S
C1609 C1608 1.349 . S
C1609 C1625 1.349 . S
C1610 C1608 1.327 . S
C1610 C1629 1.429 . S
C1610 H1634 0.950 . S
C1611 C1628 1.574 . S
C1611 C1630 1.368 1_565 S
C1611 H1635 0.949 . S
H1612 C1616 0.949 . S
C1613 C1614 1.349 . S
C1613 C1615 1.327 . S
C1613 H1636 0.950 . S
C1614 C1613 1.349 . S
C1614 C1626 1.349 . S
C1615 C1613 1.327 . S
C1615 C1631 1.429 . S
C1615 H1637 0.950 . S
C1616 H1612 0.949 . S
C1616 C1624 1.574 . S
C1616 C1632 1.368 1_545 S
H1617 C1625 0.950 . S
H1618 C1623 0.950 . S
H1619 C1624 0.949 . S
H1620 C1626 0.950 . S
H1621 C1627 0.950 . S
H1622 C1628 0.949 . S
C1623 H1618 0.950 . S
C1623 C1625 1.327 . S
C1623 C1629 1.429 . S
C1624 C1616 1.574 . S
C1624 H1619 0.949 . S
C1624 C1630 1.368 . S
C1625 C1609 1.349 . S
C1625 H1617 0.950 . S
C1625 C1623 1.327 . S
C1626 C1614 1.349 . S
C1626 H1620 0.950 . S
C1626 C1627 1.327 . S
C1627 H1621 0.950 . S
C1627 C1626 1.327 . S
C1627 C1631 1.429 . S
C1628 C1611 1.574 . S
C1628 H1622 0.949 . S
C1628 C1632 1.368 . S
C1629 C1610 1.429 . S
C1629 C1623 1.429 . S
C1629 C1630 1.523 . S
C1630 C1611 1.368 1_545 S
C1630 C1624 1.368 . S
C1630 C1629 1.523 . S
C1631 C1615 1.429 . S
C1631 C1627 1.429 . S
C1631 C1632 1.523 . S
C1632 C1616 1.368 1_565 S
C1632 C1628 1.368 . S
C1632 C1631 1.523 . S
H1633 C1608 0.950 . S
H1634 C1610 0.950 . S
H1635 C1611 0.949 . S
H1636 C1613 0.950 . S
H1637 C1615 0.950 . S
C1638 C1639 1.349 . S
C1638 C1640 1.327 . S
C1638 H1663 0.950 . S
C1639 C1638 1.349 . S
C1639 C1655 1.349 . S
C1640 C1638 1.327 . S
C1640 C1659 1.429 . S
C1640 H1664 0.950 . S
C1641 C1658 1.574 . S
C1641 C1660 1.368 . S
C1641 H1665 0.949 . S
H1642 C1646 0.949 . S
C1643 C1644 1.349 . S
C1643 C1645 1.327 . S
C1643 H1666 0.950 . S
C1644 C1643 1.349 . S
C1644 C1656 1.349 . S
C1645 C1643 1.327 . S
C1645 C1661 1.429 . S
C1645 H1667 0.950 . S
C1646 H1642 0.949 . S
C1646 C1654 1.574 . S
C1646 C1662 1.368 . S
H1647 C1655 0.950 . S
H1648 C1653 0.950 . S
H1649 C1654 0.949 . S
H1650 C1656 0.950 . S
H1651 C1657 0.950 . S
H1652 C1658 0.949 . S
C1653 H1648 0.950 . S
C1653 C1655 1.327 . S
C1653 C1659 1.429 . S
C1654 C1646 1.574 . S
C1654 H1649 0.949 . S
C1654 C1660 1.368 . S
C1655 C1639 1.349 . S
C1655 H1647 0.950 . S
C1655 C1653 1.327 . S
C1656 C1644 1.349 . S
C1656 H1650 0.950 . S
C1656 C1657 1.327 . S
C1657 H1651 0.950 . S
C1657 C1656 1.327 . S
C1657 C1661 1.429 . S
C1658 C1641 1.574 . S
C1658 H1652 0.949 . S
C1658 C1662 1.368 . S
C1659 C1640 1.429 . S
C1659 C1653 1.429 . S
C1659 C1660 1.523 . S
C1660 C1641 1.368 . S
C1660 C1654 1.368 . S
C1660 C1659 1.523 . S
C1661 C1645 1.429 . S
C1661 C1657 1.429 . S
C1661 C1662 1.523 . S
C1662 C1646 1.368 . S
C1662 C1658 1.368 . S
C1662 C1661 1.523 . S
H1663 C1638 0.950 . S
H1664 C1640 0.950 . S
H1665 C1641 0.949 . S
H1666 C1643 0.950 . S
H1667 C1645 0.950 . S
C409 C28 0.597 . S
C414 C187 0.595 . S
C439 C40 0.597 . S
C444 C17 0.595 . S
C469 C96 0.597 . S
C474 C51 0.595 . S
C499 C108 0.597 . S
C504 C85 0.595 . S
C529 C164 0.597 . S
C534 C119 0.595 . S
C559 C176 0.597 . S
C564 C153 0.595 . S
C589 C210 0.597 . S
C594 C255 0.595 . S
C619 C266 0.597 . S
C624 C289 0.595 . S
C649 C278 0.597 . S
C654 C323 0.595 . S
C679 C357 0.595 . S
C684 C334 0.597 . S
C709 C391 0.595 . S
C714 C346 0.597 . S
C739 C221 0.595 . S
C744 C402 0.597 . S
C769 C287 1.624 . S
C774 C22 1.620 . S
C799 C328 1.624 . S
C804 C49 1.620 . S
C829 C90 1.624 . S
C834 C355 1.620 . S
C859 C396 1.624 . S
C864 C117 1.620 . S
C889 C158 1.624 . S
C894 C219 1.620 . S
C919 C185 1.624 . S
C924 C260 1.620 . S
C949 C389 2.111 . S
C954 C124 2.115 . S
C979 C151 2.111 . S
C984 C226 2.115 . S
C1009 C192 2.111 . S
C1014 C253 2.115 . S
C1039 C15 2.111 . S
C1044 C294 2.115 . S
C1069 C56 2.111 . S
C1074 C321 2.115 . S
C1099 C83 2.111 . S
C1104 C362 2.115 . S
C1129 C74 0.947 . S
C1134 C1 0.892 . S
C1159 C130 0.947 . S
C1164 C37 0.892 . S
C1189 C69 0.892 . S
C1194 C142 0.947 . S
C1219 C105 0.892 . S
C1224 C198 0.947 . S
C1249 C6 0.947 . S
C1254 C137 0.892 . S
C1279 C62 0.947 . S
C1284 C173 0.892 . S
C1309 C207 0.892 . S
C1314 C368 0.947 . S
C1339 C239 0.892 . S
C1344 C380 0.947 . S
C1369 C232 0.947 . S
C1374 C275 0.892 . S
C1399 C244 0.947 . S
C1404 C307 0.892 . S
C1429 C300 0.947 . S
C1434 C343 0.892 . S
C1459 C375 0.892 . S
C1464 C312 0.947 . S
C1489 C3 2.505 . S
C1494 C103 2.505 . S
C1519 C35 2.505 . S
C1524 C139 2.505 . S
C1549 C71 2.505 . S
C1554 C171 2.505 . S
C1579 C205 2.505 . S
C1584 C309 2.505 . S
C1609 C341 2.505 . S
C1614 C241 2.505 . S
C1639 C377 2.505 . S
C1644 C273 2.505 . S
