# Generated by pormake.
# Topology irl, (4)-cn, num edge types: 1
# Building blocks:
#     Node 0, Type 0, BuildingBlock: QUQFOY_clean_sbu_1, # of connection points: 4
#     Node 1, Type 0, BuildingBlock: QUQFOY_clean_sbu_1, # of connection points: 4
#     Node 2, Type 0, BuildingBlock: QUQFOY_clean_sbu_1, # of connection points: 4
#     Node 3, Type 0, BuildingBlock: QUQFOY_clean_sbu_1, # of connection points: 4
#     Node 4, Type 0, BuildingBlock: QUQFOY_clean_sbu_1, # of connection points: 4
#     Node 5, Type 0, BuildingBlock: QUQFOY_clean_sbu_1, # of connection points: 4
#     Node 6, Type 0, BuildingBlock: QUQFOY_clean_sbu_1, # of connection points: 4
#     Node 7, Type 0, BuildingBlock: QUQFOY_clean_sbu_1, # of connection points: 4
#     Edge 8, Type (0, 0), BuildingBlock: MIFKUJ_clean_linker_0, # of connection points: 2
#     Edge 9, Type (0, 0), BuildingBlock: MIFKUJ_clean_linker_0, # of connection points: 2
#     Edge 10, Type (0, 0), BuildingBlock: MIFKUJ_clean_linker_0, # of connection points: 2
#     Edge 11, Type (0, 0), BuildingBlock: MIFKUJ_clean_linker_0, # of connection points: 2
#     Edge 12, Type (0, 0), BuildingBlock: MIFKUJ_clean_linker_0, # of connection points: 2
#     Edge 13, Type (0, 0), BuildingBlock: MIFKUJ_clean_linker_0, # of connection points: 2
#     Edge 14, Type (0, 0), BuildingBlock: MIFKUJ_clean_linker_0, # of connection points: 2
#     Edge 15, Type (0, 0), BuildingBlock: MIFKUJ_clean_linker_0, # of connection points: 2
#     Edge 16, Type (0, 0), BuildingBlock: MIFKUJ_clean_linker_0, # of connection points: 2
#     Edge 17, Type (0, 0), BuildingBlock: MIFKUJ_clean_linker_0, # of connection points: 2
#     Edge 18, Type (0, 0), BuildingBlock: MIFKUJ_clean_linker_0, # of connection points: 2
#     Edge 19, Type (0, 0), BuildingBlock: MIFKUJ_clean_linker_0, # of connection points: 2
#     Edge 20, Type (0, 0), BuildingBlock: MIFKUJ_clean_linker_0, # of connection points: 2
#     Edge 21, Type (0, 0), BuildingBlock: MIFKUJ_clean_linker_0, # of connection points: 2
#     Edge 22, Type (0, 0), BuildingBlock: MIFKUJ_clean_linker_0, # of connection points: 2
#     Edge 23, Type (0, 0), BuildingBlock: MIFKUJ_clean_linker_0, # of connection points: 2
# Relax obj value: 0.044
# Max RMSD: 0.088
# Mean RMSD: 0.088
data_MOF--net-irl--node1-QUQFOY_clean_sbu_1--edge1-MIFKUJ_clean_linker_0
_symmetry_space_group_name_H-M    P1
_symmetry_Int_Tables_number       1
_symmetry_cell_setting            triclinic
loop_
_symmetry_equiv_pos_as_xyz
'x, y, z'
_cell_length_a     46.93891
_cell_length_b     57.807987
_cell_length_c     37.418732
_cell_angle_alpha  90.089597
_cell_angle_beta   89.88597
_cell_angle_gamma 90.069277
loop_
_atom_site_label
_atom_site_type_symbol
_atom_site_fract_x
_atom_site_fract_y
_atom_site_fract_z
_atom_type_partial_charge
O0 O 0.07615 0.17488 0.07473 0.0
Cd1 Cd 0.09282 0.16281 0.02689 0.0
Cd2 Cd 0.04082 0.17489 1.00484 0.0
O3 O 0.03663 0.1906 0.05429 0.0
O4 O 0.13519 0.16413 0.0334 0.0
O5 O 0.11215 0.18602 0.99471 0.0
C6 C 0.13582 0.18056 0.01008 0.0
C7 C 0.03324 0.19287 0.94983 0.0
C8 C 0.05355 0.18654 0.08005 0.0
C9 C 0.05437 0.1241 1.00503 0.0
O10 O 0.03521 0.13961 1.00413 0.0
O11 O 0.08028 0.1297 0.01056 0.0
O12 O 0.01222 0.18763 0.97061 0.0
O13 O 0.05876 0.18919 0.96138 0.0
O14 O 0.93988 0.8398 0.06788 0.0
Cd15 Cd 0.92257 0.84902 0.01927 0.0
Cd16 Cd 0.97385 0.83541 0.99658 0.0
O17 O 0.97707 0.8206 0.04714 0.0
O18 O 0.87989 0.84676 0.02299 0.0
O19 O 0.906 0.82327 0.98972 0.0
C20 C 0.8813 0.82898 1.00212 0.0
C21 C 0.98162 0.81644 0.9421 0.0
C22 C 0.96156 0.82708 0.07329 0.0
C23 C 0.9609 0.88651 0.99417 0.0
O24 O 0.9798 0.87077 0.99398 0.0
O25 O 0.93494 0.88132 1.00022 0.0
O26 O 1.00261 0.82197 0.96267 0.0
O27 O 0.95612 0.82028 0.95368 0.0
O28 O 0.07662 0.83882 0.44292 0.0
Cd29 Cd 0.0928 0.84822 0.49219 0.0
Cd30 Cd 0.04177 0.83382 0.51321 0.0
O31 O 0.04002 0.8186 0.46286 0.0
O32 O 0.1356 0.84686 0.48949 0.0
O33 O 0.10961 0.82231 0.52102 0.0
C34 C 0.13432 0.82866 0.5094 0.0
C35 C 0.03421 0.81521 0.56794 0.0
C36 C 0.05559 0.82544 0.437 0.0
C37 C 0.05284 0.88495 0.51617 0.0
O38 O 0.03429 0.86893 0.51479 0.0
O39 O 0.07913 0.88014 0.51193 0.0
O40 O 0.01329 0.81952 0.54661 0.0
O41 O 0.05963 0.82008 0.55702 0.0
O42 O 0.94168 0.17478 0.44759 0.0
Cd43 Cd 0.9232 0.1622 0.49397 0.0
Cd44 Cd 0.97472 0.17319 0.52024 0.0
O45 O 0.98122 0.18878 0.47108 0.0
O46 O 0.88092 0.16442 0.48683 0.0
O47 O 0.90431 0.1855 0.52641 0.0
C48 C 0.88059 0.1806 0.51065 0.0
C49 C 0.98177 0.19116 0.57555 0.0
C50 C 0.96507 0.18572 0.44418 0.0
C51 C 0.95963 0.12255 0.51736 0.0
O52 O 0.97892 0.13779 0.52124 0.0
O53 O 0.93438 0.12858 0.50905 0.0
O54 O 1.00303 0.18509 0.55572 0.0
O55 O 0.95642 0.18828 0.56288 0.0
O56 O 0.57612 0.67477 0.06946 0.0
Cd57 Cd 0.59346 0.66239 0.02234 0.0
Cd58 Cd 0.54155 0.67329 0.99752 0.0
O59 O 0.53599 0.6885 0.04724 0.0
O60 O 0.63603 0.66483 0.02641 0.0
O61 O 0.61042 0.68647 0.98987 0.0
C62 C 0.63491 0.68149 1.00351 0.0
C63 C 0.53319 0.69145 0.94277 0.0
C64 C 0.5527 0.68553 0.0736 0.0
C65 C 0.55651 0.62273 0.99955 0.0
O66 O 0.53721 0.63794 0.99602 0.0
O67 O 0.58185 0.62879 1.00747 0.0
O68 O 0.51242 0.68532 0.96333 0.0
O69 O 0.55883 0.68858 0.95441 0.0
O70 O 0.44271 0.33307 0.07872 0.0
Cd71 Cd 0.42554 0.3459 0.03176 0.0
Cd72 Cd 0.47684 0.33364 1.00765 0.0
O73 O 0.48134 0.31698 0.05613 0.0
O74 O 0.38317 0.3443 0.03846 0.0
O75 O 0.40635 0.32319 0.99865 0.0
C76 C 0.38264 0.32831 0.01435 0.0
C77 C 0.48445 0.3164 0.95193 0.0
C78 C 0.46509 0.32095 0.0827 0.0
C79 C 0.46415 0.38457 0.01079 0.0
O80 O 0.483 0.36887 1.00864 0.0
O81 O 0.4382 0.37918 0.01659 0.0
O82 O 0.50544 0.32146 0.97277 0.0
O83 O 0.45892 0.31993 0.96371 0.0
O84 O 0.57492 0.33389 0.4503 0.0
Cd85 Cd 0.59213 0.34705 0.49706 0.0
Cd86 Cd 0.54021 0.33523 0.52153 0.0
O87 O 0.53518 0.31924 0.47245 0.0
O88 O 0.63461 0.34549 0.49076 0.0
O89 O 0.61106 0.32409 0.52977 0.0
C90 C 0.63489 0.32925 0.51441 0.0
C91 C 0.53394 0.31741 0.57696 0.0
C92 C 0.55195 0.32249 0.44616 0.0
C93 C 0.55383 0.38607 0.51882 0.0
O94 O 0.53485 0.37049 0.5218 0.0
O95 O 0.57955 0.38049 0.5119 0.0
O96 O 0.51239 0.32264 0.55717 0.0
O97 O 0.55914 0.32108 0.56421 0.0
O98 O 0.44009 0.67373 0.44153 0.0
Cd99 Cd 0.42259 0.66221 0.4891 0.0
Cd100 Cd 0.47424 0.67438 0.51366 0.0
O101 O 0.47899 0.68961 0.46393 0.0
O102 O 0.37998 0.66469 0.48508 0.0
O103 O 0.40583 0.68688 0.52069 0.0
C104 C 0.38126 0.68175 0.50734 0.0
C105 C 0.48198 0.69275 0.56847 0.0
C106 C 0.46286 0.68542 0.43735 0.0
C107 C 0.46025 0.62358 0.51322 0.0
O108 O 0.47936 0.6391 0.51533 0.0
O109 O 0.43462 0.62916 0.50596 0.0
O110 O 0.50301 0.68708 0.54799 0.0
O111 O 0.45648 0.68934 0.55666 0.0
H112 H 0.01361 0.90274 0.97574 0.0
H113 H 0.02978 0.94281 0.97353 0.0
H114 H 0.94523 0.96609 1.00082 0.0
H115 H 0.92867 0.92588 1.0026 0.0
H116 H 0.96917 0.99331 0.94992 0.0
H117 H 0.99757 0.96283 0.06416 0.0
H118 H 0.02096 0.935 0.10443 0.0
H119 H 0.10177 0.94948 0.0553 0.0
H120 H 0.07878 0.97718 0.01439 0.0
H121 H 1.00071 0.10625 1.00852 0.0
H122 H 0.98593 0.0661 1.00287 0.0
H123 H 0.07326 0.04577 0.98526 0.0
H124 H 0.08844 0.08616 0.9923 0.0
H125 H 0.04928 0.01655 0.02854 0.0
H126 H 0.02151 0.04857 0.91601 0.0
H127 H 0.99809 0.07592 0.87495 0.0
H128 H 0.91652 0.05839 0.91947 0.0
H129 H 0.93946 0.03123 0.9612 0.0
C130 C 0.99831 0.91634 0.98103 0.0
C131 C 0.96983 0.91102 0.98963 0.0
C132 C 1.00768 0.93929 0.9799 0.0
C133 C 0.98889 0.95748 0.98768 0.0
C134 C 0.96017 0.95233 0.99489 0.0
C135 C 0.95072 0.92933 0.99591 0.0
C136 C 0.9994 0.98179 0.98916 0.0
C137 C 0.98647 0.99847 0.96739 0.0
C138 C 0.02252 0.98842 0.01122 0.0
C139 C 0.0364 0.9719 0.03599 0.0
C140 C 0.02029 0.95996 0.06178 0.0
C141 C 0.03348 0.94423 0.08475 0.0
C142 C 0.06282 0.94043 0.08237 0.0
C143 C 0.07904 0.95242 0.05708 0.0
C144 C 0.06595 0.96814 0.03402 0.0
C145 C 0.01686 0.09331 1.00324 0.0
C146 C 0.04581 0.0995 1.00065 0.0
C147 C 1.0083 0.07028 0.99979 0.0
C148 C 0.02834 0.05283 0.99283 0.0
C149 C 0.05733 0.0589 0.99041 0.0
C150 C 0.066 0.082 0.99438 0.0
C151 C 0.01899 0.02825 0.98935 0.0
C152 C 0.03211 0.01145 0.01082 0.0
C153 C 0.99608 0.02153 0.9669 0.0
C154 C 0.98225 0.03797 0.94191 0.0
C155 C 0.99861 0.05068 0.91724 0.0
C156 C 0.98541 0.06613 0.89382 0.0
C157 C 0.95585 0.06888 0.89462 0.0
C158 C 0.93942 0.05624 0.91888 0.0
C159 C 0.9525 0.0408 0.9424 0.0
H160 H 0.94564 0.08073 0.87635 0.0
H161 H 0.07299 0.92824 0.10016 0.0
H162 H 0.9981 0.90081 0.51904 0.0
H163 H 0.98173 0.94075 0.52234 0.0
H164 H 0.06875 0.96449 0.52672 0.0
H165 H 0.08552 0.92433 0.52328 0.0
H166 H 0.03221 0.98731 0.57555 0.0
H167 H 0.03475 0.96812 0.4504 0.0
H168 H 0.0237 0.9445 0.39727 0.0
H169 H 0.93421 0.95499 0.41486 0.0
H170 H 0.94473 0.97841 0.46844 0.0
H171 H 0.01219 0.10466 0.53141 0.0
H172 H 0.02622 0.06426 0.53458 0.0
H173 H 0.93933 0.04334 0.5155 0.0
H174 H 0.92509 0.08409 0.51138 0.0
H175 H 0.97436 0.01842 0.47574 0.0
H176 H 0.97079 0.03838 0.5993 0.0
H177 H 0.98079 0.06143 0.65334 0.0
H178 H 0.07039 0.04898 0.64048 0.0
H179 H 0.06096 0.02611 0.58605 0.0
C180 C 0.01388 0.91444 0.52092 0.0
C181 C 0.04321 0.90929 0.5207 0.0
C182 C 1.00441 0.93732 0.5227 0.0
C183 C 0.02399 0.95563 0.52437 0.0
C184 C 0.05327 0.95061 0.52535 0.0
C185 C 0.06282 0.92765 0.52331 0.0
C186 C 0.01376 0.97997 0.5242 0.0
C187 C 0.01988 0.99424 0.55355 0.0
C188 C 0.99689 0.98877 0.49598 0.0
C189 C 0.99052 0.97482 0.46364 0.0
C190 C 0.01271 0.96524 0.44311 0.0
C191 C 1.00654 0.95191 0.41288 0.0
C192 C 0.97827 0.94819 0.40275 0.0
C193 C 0.9561 0.95785 0.42278 0.0
C194 C 0.96215 0.97117 0.45306 0.0
C195 C 0.9959 0.09156 0.52812 0.0
C196 C 0.96742 0.09773 0.52122 0.0
C197 C 1.004 0.06836 0.53014 0.0
C198 C 0.98382 0.05065 0.52583 0.0
C199 C 0.9553 0.05668 0.51906 0.0
C200 C 0.94716 0.07999 0.51683 0.0
C201 C 0.99288 0.02594 0.5271 0.0
C202 C 0.98657 0.01155 0.4979 0.0
C203 C 0.0094 0.01699 0.55561 0.0
C204 C 0.01517 0.03069 0.5884 0.0
C205 C 0.99264 0.0407 0.60783 0.0
C206 C 0.99821 0.05371 0.63857 0.0
C207 C 0.02621 0.05671 0.65029 0.0
C208 C 0.04871 0.04666 0.63135 0.0
C209 C 0.04327 0.03365 0.60057 0.0
H210 H 0.03048 0.06679 0.67409 0.0
H211 H 0.97354 0.93787 0.37934 0.0
H212 H 0.50514 0.60484 0.97939 0.0
H213 H 0.4902 0.56448 0.97901 0.0
H214 H 0.57415 0.54368 0.01261 0.0
H215 H 0.58951 0.58428 0.0128 0.0
H216 H 0.55251 0.5148 0.96112 0.0
H217 H 0.52055 0.5467 0.07268 0.0
H218 H 0.49593 0.5749 0.11139 0.0
H219 H 0.41645 0.55912 0.06017 0.0
H220 H 0.44068 0.53104 0.02079 0.0
H221 H 0.51781 0.40188 0.01766 0.0
H222 H 0.53337 0.44193 0.01359 0.0
H223 H 0.44703 0.46319 0.99188 0.0
H224 H 0.43104 0.42292 0.9975 0.0
H225 H 0.46983 0.49218 0.03621 0.0
H226 H 0.50193 0.4593 0.92515 0.0
H227 H 0.52711 0.43152 0.88622 0.0
H228 H 0.60656 0.44927 0.93595 0.0
H229 H 0.58183 0.47687 0.97555 0.0
C230 C 0.52059 0.59174 0.98651 0.0
C231 C 0.54854 0.59789 0.9964 0.0
C232 C 0.51192 0.56863 0.9864 0.0
C233 C 0.53087 0.55106 0.9964 0.0
C234 C 0.5591 0.55697 1.00498 0.0
C235 C 0.56786 0.58019 1.00508 0.0
C236 C 0.52089 0.52664 0.99856 0.0
C237 C 0.53466 0.50976 0.97786 0.0
C238 C 0.49714 0.52017 0.01973 0.0
C239 C 0.48248 0.53693 0.04356 0.0
C240 C 0.49786 0.54936 0.06949 0.0
C241 C 0.48397 0.5653 0.09158 0.0
C242 C 0.45466 0.56884 0.08818 0.0
C243 C 0.43916 0.55638 0.06274 0.0
C244 C 0.45296 0.54044 0.04055 0.0
C245 C 0.50207 0.41502 0.01183 0.0
C246 C 0.47316 0.40913 1.00763 0.0
C247 C 0.51107 0.43798 0.00929 0.0
C248 C 0.49156 0.45566 1.00155 0.0
C249 C 0.46258 0.44989 0.99765 0.0
C250 C 0.45344 0.42686 1.0008 0.0
C251 C 0.50137 0.48016 0.99863 0.0
C252 C 0.48759 0.49712 0.01927 0.0
C253 C 0.52512 0.48669 0.97733 0.0
C254 C 0.53997 0.47004 0.95351 0.0
C255 C 0.52474 0.45715 0.92796 0.0
C256 C 0.53894 0.44145 0.90575 0.0
C257 C 0.56841 0.43863 0.90865 0.0
C258 C 0.58374 0.45147 0.93375 0.0
C259 C 0.56964 0.46716 0.95606 0.0
H260 H 0.57943 0.42655 0.8914 0.0
H261 H 0.44394 0.58119 0.1053 0.0
H262 H 0.49976 0.40304 0.52314 0.0
H263 H 0.4845 0.44326 0.52472 0.0
H264 H 0.57212 0.46563 0.52284 0.0
H265 H 0.58782 0.42507 0.52091 0.0
H266 H 0.53614 0.48985 0.57357 0.0
H267 H 0.53767 0.46907 0.44906 0.0
H268 H 0.52628 0.44478 0.39678 0.0
H269 H 0.4369 0.45537 0.41512 0.0
H270 H 0.44777 0.47945 0.46787 0.0
H271 H 0.51338 0.60669 0.52684 0.0
H272 H 0.52841 0.56655 0.53074 0.0
H273 H 0.44178 0.5441 0.51406 0.0
H274 H 0.42651 0.58456 0.50924 0.0
H275 H 0.47705 0.51951 0.47382 0.0
H276 H 0.47423 0.54066 0.5969 0.0
H277 H 0.48434 0.56462 0.64995 0.0
H278 H 0.57401 0.55285 0.6363 0.0
H279 H 0.56447 0.52912 0.58279 0.0
C280 C 0.51594 0.41641 0.52325 0.0
C281 C 0.5451 0.41074 0.52176 0.0
C282 C 0.50709 0.43945 0.52408 0.0
C283 C 0.52713 0.45744 0.52361 0.0
C284 C 0.5563 0.45197 0.52317 0.0
C285 C 0.56523 0.42881 0.52197 0.0
C286 C 0.51731 0.48188 0.52265 0.0
C287 C 0.52358 0.49649 0.55155 0.0
C288 C 0.50013 0.49026 0.49444 0.0
C289 C 0.49354 0.47587 0.46263 0.0
C290 C 0.51558 0.46605 0.44214 0.0
C291 C 0.50922 0.45235 0.41238 0.0
C292 C 0.48088 0.44848 0.40269 0.0
C293 C 0.45884 0.45836 0.42269 0.0
C294 C 0.46509 0.47205 0.4525 0.0
C295 C 0.49736 0.5933 0.52423 0.0
C296 C 0.46864 0.59895 0.51777 0.0
C297 C 0.50604 0.57026 0.52666 0.0
C298 C 0.48622 0.55221 0.52318 0.0
C299 C 0.45747 0.55772 0.51694 0.0
C300 C 0.44874 0.58087 0.51433 0.0
C301 C 0.49588 0.52767 0.52477 0.0
C302 C 0.48956 0.51297 0.49595 0.0
C303 C 0.5128 0.51917 0.55323 0.0
C304 C 0.51864 0.53327 0.58561 0.0
C305 C 0.49612 0.54331 0.60504 0.0
C306 C 0.50175 0.55684 0.63522 0.0
C307 C 0.52981 0.5603 0.64644 0.0
C308 C 0.55229 0.55018 0.62755 0.0
C309 C 0.54678 0.53667 0.59731 0.0
H310 H 0.53412 0.57079 0.6698 0.0
H311 H 0.476 0.43787 0.37963 0.0
H312 H 1.00129 0.19951 0.10604 0.0
H313 H 0.98789 0.20555 0.1685 0.0
H314 H 0.07538 0.1957 0.20024 0.0
H315 H 0.08868 0.18886 0.13803 0.0
H316 H 0.04366 0.17051 0.23991 0.0
H317 H 0.03994 0.24976 0.20515 0.0
H318 H 0.02613 0.28341 0.16872 0.0
H319 H 0.93802 0.27109 0.19326 0.0
H320 H 0.95126 0.23715 0.22947 0.0
H321 H 0.01899 0.19712 0.4222 0.0
H322 H 0.03534 0.20352 0.36079 0.0
H323 H 0.94903 0.19703 0.32289 0.0
H324 H 0.93251 0.19035 0.38409 0.0
H325 H 0.98202 0.23293 0.28801 0.0
H326 H 0.98714 0.15167 0.3187 0.0
H327 H 1.00196 0.11867 0.35595 0.0
H328 H 0.08983 0.13646 0.33926 0.0
H329 H 0.07548 0.1698 0.30232 0.0
C330 C 0.01776 0.19904 0.12625 0.0
C331 C 0.04603 0.19358 0.11704 0.0
C332 C 0.01009 0.20259 0.16204 0.0
C333 C 0.03063 0.20122 0.18927 0.0
C334 C 0.05908 0.19676 0.17985 0.0
C335 C 0.06668 0.1929 0.1442 0.0
C336 C 0.02218 0.2025 0.22768 0.0
C337 C 0.03067 0.18447 0.25043 0.0
C338 C 1.00466 0.22038 0.24154 0.0
C339 C 0.99659 0.24077 0.21977 0.0
C340 C 0.0176 0.25411 0.20255 0.0
C341 C 0.00988 0.27326 0.18199 0.0
C342 C 0.98121 0.27935 0.17861 0.0
C343 C 0.96021 0.26633 0.19587 0.0
C344 C 0.96782 0.24715 0.21645 0.0
C345 C 1.0034 0.19748 0.40091 0.0
C346 C 0.97447 0.19303 0.40802 0.0
C347 C 0.01279 0.2011 0.36583 0.0
C348 C 0.99341 0.20057 0.3373 0.0
C349 C 0.96432 0.19752 0.34453 0.0
C350 C 0.95495 0.1936 0.37952 0.0
C351 C 1.00368 0.20107 0.29976 0.0
C352 C 0.99536 0.21926 0.27729 0.0
C353 C 0.02158 0.18348 0.28612 0.0
C354 C 0.03023 0.16337 0.30812 0.0
C355 C 0.00961 0.14866 0.32324 0.0
C356 C 0.01793 0.12988 0.34425 0.0
C357 C 0.04682 0.12551 0.35006 0.0
C358 C 0.06746 0.13989 0.33479 0.0
C359 C 0.05925 0.15873 0.31381 0.0
H360 H 0.05322 0.11096 0.36632 0.0
H361 H 0.97528 0.29419 0.16268 0.0
H362 H 0.0778 0.84399 0.376 0.0
H363 H 0.06183 0.83816 0.31485 0.0
H364 H 1.00081 0.78742 0.35108 0.0
H365 H 0.01597 0.79392 0.41291 0.0
H366 H 0.06027 0.80616 0.26823 0.0
H367 H 0.94147 0.7894 0.29983 0.0
H368 H 0.90606 0.79824 0.34676 0.0
H369 H 0.95328 0.85897 0.37634 0.0
H370 H 0.98874 0.85063 0.32933 0.0
H371 H 0.9949 0.79131 0.09784 0.0
H372 H 0.01001 0.78427 0.15962 0.0
H373 H 0.96373 0.84491 0.19392 0.0
H374 H 0.94729 0.85103 0.13314 0.0
H375 H 0.95751 0.81593 0.24189 0.0
H376 H 0.04055 0.84234 0.17731 0.0
H377 H 0.07719 0.84108 0.12998 0.0
H378 H 0.10362 0.77389 0.16566 0.0
H379 H 0.0669 0.77467 0.21297 0.0
C380 C 0.06113 0.83141 0.37107 0.0
C381 C 0.04797 0.8196 0.39952 0.0
C382 C 0.05207 0.82803 0.33591 0.0
C383 C 0.02978 0.8126 0.32818 0.0
C384 C 0.01762 0.79981 0.35633 0.0
C385 C 0.02641 0.80345 0.39169 0.0
C386 C 0.0185 0.81106 0.29097 0.0
C387 C 0.03776 0.80814 0.26251 0.0
C388 C 0.9892 0.81398 0.28321 0.0
C389 C 0.96792 0.8192 0.31141 0.0
C390 C 0.94424 0.80464 0.31634 0.0
C391 C 0.92417 0.80957 0.34294 0.0
C392 C 0.92748 0.82909 0.36462 0.0
C393 C 0.9508 0.84379 0.35964 0.0
C394 C 0.9709 0.83896 0.33305 0.0
C395 C 0.98776 0.80295 0.11872 0.0
C396 C 0.96991 0.82172 0.11058 0.0
C397 C 0.99656 0.79903 0.15402 0.0
C398 C 0.98848 0.81427 0.18164 0.0
C399 C 0.97024 0.83276 0.17341 0.0
C400 C 0.96088 0.83631 0.13847 0.0
C401 C 0.99937 0.81169 0.21895 0.0
C402 C 0.97999 0.81364 0.24752 0.0
C403 C 0.02873 0.80894 0.22673 0.0
C404 C 0.05079 0.80845 0.19836 0.0
C405 C 0.05406 0.82724 0.17489 0.0
C406 C 0.07486 0.82662 0.1481 0.0
C407 C 0.09266 0.80738 0.14474 0.0
C408 C 0.08977 0.78875 0.16824 0.0
C409 C 0.06899 0.78928 0.19505 0.0
H410 H 0.10875 0.80693 0.12399 0.0
H411 H 0.91193 0.83287 0.38521 0.0
H412 H 0.98349 0.80224 0.59818 0.0
H413 H 0.97373 0.79529 0.66147 0.0
H414 H 0.06287 0.80445 0.6855 0.0
H415 H 0.0729 0.81087 0.62215 0.0
H416 H 0.04042 0.77146 0.72733 0.0
H417 H 0.01549 0.84925 0.69397 0.0
H418 H 0.99096 0.87914 0.65858 0.0
H419 H 0.90984 0.85151 0.69043 0.0
H420 H 0.93393 0.82124 0.72563 0.0
H421 H 0.03269 0.81136 0.90757 0.0
H422 H 0.04049 0.80413 0.84401 0.0
H423 H 0.94994 0.79622 0.82861 0.0
H424 H 0.94193 0.80391 0.89212 0.0
H425 H 0.97094 0.82569 0.78191 0.0
H426 H 0.99716 0.74982 0.82081 0.0
H427 H 0.0229 0.721 0.85693 0.0
H428 H 0.10272 0.74597 0.81602 0.0
H429 H 0.07749 0.77516 0.78 0.0
C430 C 1.00112 0.80235 0.61682 0.0
C431 C 0.02894 0.80734 0.60511 0.0
C432 C 0.99548 0.79848 0.65306 0.0
C433 C 0.01747 0.79984 0.67842 0.0
C434 C 0.04552 0.80341 0.66652 0.0
C435 C 0.05121 0.80712 0.63023 0.0
C436 C 0.01101 0.79927 0.71742 0.0
C437 C 0.02536 0.7834 0.73934 0.0
C438 C 0.99102 0.81459 0.7331 0.0
C439 C 0.97651 0.83284 0.7121 0.0
C440 C 0.99242 0.84945 0.69321 0.0
C441 C 0.9786 0.86647 0.67322 0.0
C442 C 0.94886 0.86718 0.67217 0.0
C443 C 0.93288 0.85091 0.69121 0.0
C444 C 0.9466 0.83382 0.71119 0.0
C445 C 0.01445 0.80762 0.89084 0.0
C446 C 0.98666 0.80829 0.90497 0.0
C447 C 0.01897 0.8034 0.85442 0.0
C448 C 0.99583 0.7995 0.8314 0.0
C449 C 0.96815 0.79921 0.84577 0.0
C450 C 0.9636 0.80352 0.88216 0.0
C451 C 1.00029 0.79784 0.79202 0.0
C452 C 0.98569 0.81346 0.76997 0.0
C453 C 0.02018 0.7824 0.77638 0.0
C454 C 0.03542 0.7648 0.7979 0.0
C455 C 0.02021 0.74928 0.81971 0.0
C456 C 0.03471 0.73286 0.84013 0.0
C457 C 0.06442 0.73169 0.83883 0.0
C458 C 0.0797 0.74691 0.81702 0.0
C459 C 0.06531 0.76337 0.79656 0.0
H460 H 0.07561 0.71897 0.85467 0.0
H461 H 0.9382 0.88037 0.65668 0.0
H462 H 0.98222 0.20354 0.9189 0.0
H463 H 0.97275 0.21 0.85553 0.0
H464 H 0.06263 0.20508 0.83265 0.0
H465 H 0.07236 0.19903 0.8962 0.0
H466 H 0.03725 0.23753 0.79061 0.0
H467 H 0.02016 0.15815 0.82323 0.0
H468 H 0.99861 0.12681 0.85894 0.0
H469 H 0.91507 0.1491 0.82773 0.0
H470 H 0.93612 0.18075 0.79218 0.0
H471 H 0.03249 0.19807 0.60984 0.0
H472 H 0.03998 0.20512 0.67349 0.0
H473 H 0.94909 0.20851 0.68987 0.0
H474 H 0.9414 0.20118 0.62619 0.0
H475 H 0.97324 0.17916 0.73563 0.0
H476 H 0.99137 0.25686 0.69821 0.0
H477 H 0.01375 0.28776 0.66247 0.0
H478 H 0.09615 0.26816 0.70169 0.0
H479 H 0.07431 0.23692 0.7373 0.0
C480 C 1.00006 0.20425 0.90052 0.0
C481 C 0.02803 0.20052 0.91259 0.0
C482 C 0.99458 0.20786 0.86424 0.0
C483 C 0.01692 0.20755 0.8392 0.0
C484 C 0.04504 0.20529 0.85144 0.0
C485 C 0.05056 0.2018 0.8878 0.0
C486 C 0.01075 0.20774 0.80021 0.0
C487 C 0.02343 0.22468 0.77849 0.0
C488 C 0.99236 0.1912 0.78445 0.0
C489 C 0.9797 0.17196 0.80538 0.0
C490 C 0.99719 0.15645 0.82416 0.0
C491 C 0.98507 0.13862 0.84435 0.0
C492 C 0.95549 0.13604 0.84571 0.0
C493 C 0.93797 0.15117 0.82671 0.0
C494 C 0.94998 0.16904 0.80652 0.0
C495 C 0.01407 0.20074 0.62682 0.0
C496 C 0.98633 0.19897 0.6129 0.0
C497 C 0.01841 0.20486 0.66326 0.0
C498 C 0.99511 0.20744 0.68654 0.0
C499 C 0.9674 0.20657 0.67245 0.0
C500 C 0.96304 0.20247 0.63599 0.0
C501 C 0.99962 0.20902 0.72584 0.0
C502 C 0.98678 0.19224 0.74767 0.0
C503 C 0.01799 0.22562 0.74154 0.0
C504 C 0.03121 0.24442 0.7202 0.0
C505 C 0.01429 0.25902 0.699 0.0
C506 C 0.02687 0.27662 0.6788 0.0
C507 C 0.05636 0.27989 0.67975 0.0
C508 C 0.07332 0.26559 0.70096 0.0
C509 C 0.06084 0.24796 0.72119 0.0
H510 H 0.06606 0.29352 0.6641 0.0
H511 H 0.94613 0.12231 0.86145 0.0
H512 H 0.58697 0.69432 0.13087 0.0
H513 H 0.57241 0.70101 0.19274 0.0
H514 H 0.48412 0.69815 0.16109 0.0
H515 H 0.49864 0.69254 0.09884 0.0
H516 H 0.48919 0.72827 0.21225 0.0
H517 H 0.52051 0.65007 0.19615 0.0
H518 H 0.5536 0.61893 0.17859 0.0
H519 H 0.61526 0.64397 0.25398 0.0
H520 H 0.58266 0.67545 0.27167 0.0
H521 H 0.43049 0.68566 0.37662 0.0
H522 H 0.44655 0.69241 0.31532 0.0
H523 H 0.53126 0.70703 0.35361 0.0
H524 H 0.51536 0.70044 0.41512 0.0
H525 H 0.52943 0.67329 0.30039 0.0
H526 H 0.49288 0.74985 0.31995 0.0
H527 H 0.45666 0.77862 0.33738 0.0
H528 H 0.40077 0.75346 0.25531 0.0
H529 H 0.4365 0.72431 0.2377 0.0
C530 C 0.56446 0.69549 0.13702 0.0
C531 C 0.54395 0.69268 0.11003 0.0
C532 C 0.55614 0.69918 0.17245 0.0
C533 C 0.52713 0.69944 0.18185 0.0
C534 C 0.50662 0.69789 0.15463 0.0
C535 C 0.51495 0.69467 0.11902 0.0
C536 C 0.51824 0.69989 0.22011 0.0
C537 C 0.49784 0.71612 0.23143 0.0
C538 C 0.52967 0.68422 0.24541 0.0
C539 C 0.54927 0.66526 0.23494 0.0
C540 C 0.5412 0.64902 0.2088 0.0
C541 C 0.55986 0.63131 0.19885 0.0
C542 C 0.58655 0.62952 0.21508 0.0
C543 C 0.5946 0.6454 0.24138 0.0
C544 C 0.57604 0.66318 0.2514 0.0
C545 C 0.45244 0.69067 0.37211 0.0
C546 C 0.47167 0.69241 0.40081 0.0
C547 C 0.46155 0.69462 0.33703 0.0
C548 C 0.49008 0.70027 0.32991 0.0
C549 C 0.50913 0.70272 0.35855 0.0
C550 C 0.49997 0.69902 0.3937 0.0
C551 C 0.5005 0.70167 0.29247 0.0
C552 C 0.52106 0.68563 0.28127 0.0
C553 C 0.48876 0.71717 0.26726 0.0
C554 C 0.46729 0.73476 0.2777 0.0
C555 C 0.47278 0.75032 0.3058 0.0
C556 C 0.45235 0.76673 0.31568 0.0
C557 C 0.42641 0.76783 0.29752 0.0
C558 C 0.42087 0.75257 0.26938 0.0
C559 C 0.44122 0.73613 0.25941 0.0
H560 H 0.41062 0.78054 0.30521 0.0
H561 H 0.60096 0.61578 0.20734 0.0
H562 H 0.49841 0.31414 0.42049 0.0
H563 H 0.4847 0.30723 0.35846 0.0
H564 H 0.57337 0.30612 0.32762 0.0
H565 H 0.58705 0.31419 0.38936 0.0
H566 H 0.54748 0.33216 0.28468 0.0
H567 H 0.52738 0.2561 0.32721 0.0
H568 H 0.50664 0.22639 0.3667 0.0
H569 H 0.42242 0.2492 0.33947 0.0
H570 H 0.44266 0.27926 0.30017 0.0
H571 H 0.51678 0.30419 0.1047 0.0
H572 H 0.53234 0.29743 0.16621 0.0
H573 H 0.44823 0.31425 0.20467 0.0
H574 H 0.43248 0.32111 0.14336 0.0
H575 H 0.47398 0.27698 0.24199 0.0
H576 H 0.49593 0.3552 0.20392 0.0
H577 H 0.51749 0.38414 0.16372 0.0
H578 H 0.60031 0.35517 0.18251 0.0
H579 H 0.57915 0.32583 0.22245 0.0
C580 C 0.51499 0.312 0.40059 0.0
C581 C 0.54381 0.31478 0.4098 0.0
C582 C 0.50714 0.30792 0.36505 0.0
C583 C 0.52797 0.30592 0.33814 0.0
C584 C 0.55684 0.30768 0.34772 0.0
C585 C 0.56466 0.31222 0.38308 0.0
C586 C 0.5197 0.30403 0.29975 0.0
C587 C 0.53187 0.31969 0.27538 0.0
C588 C 0.49884 0.28816 0.28739 0.0
C589 C 0.48657 0.27006 0.31095 0.0
C590 C 0.50444 0.25489 0.32983 0.0
C591 C 0.49277 0.23797 0.35215 0.0
C592 C 0.46323 0.23594 0.35565 0.0
C593 C 0.4453 0.2508 0.33676 0.0
C594 C 0.45686 0.26777 0.31441 0.0
C595 C 0.50143 0.30603 0.12615 0.0
C596 C 0.47345 0.31342 0.1191 0.0
C597 C 0.51039 0.30221 0.1613 0.0
C598 C 0.49151 0.30559 0.19001 0.0
C599 C 0.46314 0.31156 0.18291 0.0
C600 C 0.45422 0.31557 0.14783 0.0
C601 C 0.50188 0.30499 0.22747 0.0
C602 C 0.48996 0.28907 0.25151 0.0
C603 C 0.52318 0.32043 0.23957 0.0
C604 C 0.53593 0.33818 0.21583 0.0
C605 C 0.51871 0.3549 0.19925 0.0
C606 C 0.53086 0.37138 0.17656 0.0
C607 C 0.56024 0.37145 0.17048 0.0
C608 C 0.57754 0.35507 0.18719 0.0
C609 C 0.56549 0.33851 0.20987 0.0
H610 H 0.56961 0.38423 0.1529 0.0
H611 H 0.45424 0.22283 0.37296 0.0
H612 H 0.53573 0.30849 0.91953 0.0
H613 H 0.54477 0.30228 0.85595 0.0
H614 H 0.45437 0.30207 0.83561 0.0
H615 H 0.44508 0.30808 0.89939 0.0
H616 H 0.48275 0.27022 0.79347 0.0
H617 H 0.49068 0.35061 0.82364 0.0
H618 H 0.50824 0.38435 0.85755 0.0
H619 H 0.59401 0.36884 0.82548 0.0
H620 H 0.577 0.3348 0.79178 0.0
H621 H 0.4837 0.30805 0.61128 0.0
H622 H 0.47656 0.30121 0.67511 0.0
H623 H 0.56746 0.30299 0.69153 0.0
H624 H 0.57479 0.30997 0.62772 0.0
H625 H 0.53994 0.33214 0.736 0.0
H626 H 0.53026 0.25278 0.70127 0.0
H627 H 0.51116 0.21993 0.66667 0.0
H628 H 0.42701 0.23442 0.70588 0.0
H629 H 0.44554 0.26757 0.74034 0.0
C630 C 0.51771 0.30672 0.90169 0.0
C631 C 0.48967 0.30902 0.91452 0.0
C632 C 0.52294 0.30324 0.86529 0.0
C633 C 0.50026 0.30211 0.84094 0.0
C634 C 0.47219 0.30296 0.85391 0.0
C635 C 0.46693 0.30644 0.89038 0.0
C636 C 0.50593 0.30192 0.80183 0.0
C637 C 0.49506 0.28383 0.7808 0.0
C638 C 0.52231 0.31953 0.78538 0.0
C639 C 0.5326 0.34001 0.80553 0.0
C640 C 0.51331 0.35428 0.82407 0.0
C641 C 0.52316 0.37347 0.8432 0.0
C642 C 0.55222 0.37868 0.84374 0.0
C643 C 0.5715 0.36475 0.82508 0.0
C644 C 0.56178 0.34551 0.80595 0.0
C645 C 0.50222 0.30654 0.62833 0.0
C646 C 0.52982 0.30967 0.61439 0.0
C647 C 0.49809 0.30255 0.66485 0.0
C648 C 0.52147 0.30153 0.68815 0.0
C649 C 0.5491 0.30372 0.67406 0.0
C650 C 0.55325 0.30763 0.63753 0.0
C651 C 0.517 0.30032 0.72747 0.0
C652 C 0.52793 0.31832 0.7486 0.0
C653 C 0.50048 0.28274 0.74382 0.0
C654 C 0.48927 0.2628 0.72315 0.0
C655 C 0.50764 0.24909 0.70228 0.0
C656 C 0.49693 0.23039 0.68274 0.0
C657 C 0.46788 0.22512 0.68401 0.0
C658 C 0.4495 0.23853 0.7049 0.0
C659 C 0.46011 0.25726 0.72447 0.0
H660 H 0.45963 0.21063 0.66887 0.0
H661 H 0.55979 0.39353 0.85853 0.0
H662 H 0.57229 0.70112 0.89037 0.0
H663 H 0.56292 0.70783 0.82696 0.0
H664 H 0.47249 0.7057 0.84751 0.0
H665 H 0.48168 0.69867 0.9108 0.0
H666 H 0.48662 0.67706 0.79459 0.0
H667 H 0.50673 0.75642 0.82363 0.0
H668 H 0.53504 0.78851 0.84869 0.0
H669 H 0.60387 0.77238 0.77715 0.0
H670 H 0.57609 0.74 0.75195 0.0
H671 H 0.44217 0.70183 0.6201 0.0
H672 H 0.4506 0.70805 0.68384 0.0
H673 H 0.5413 0.70665 0.66545 0.0
H674 H 0.53308 0.70057 0.60156 0.0
H675 H 0.52646 0.73878 0.71714 0.0
H676 H 0.50972 0.65867 0.69154 0.0
H677 H 0.48379 0.62522 0.66664 0.0
H678 H 0.41129 0.64138 0.73222 0.0
H679 H 0.4367 0.67513 0.75719 0.0
C680 C 0.5504 0.70254 0.88153 0.0
C681 C 0.52774 0.69925 0.90566 0.0
C682 C 0.54507 0.70644 0.84523 0.0
C683 C 0.51697 0.70732 0.83241 0.0
C684 C 0.49434 0.70504 0.85674 0.0
C685 C 0.49965 0.7011 0.89298 0.0
C686 C 0.51114 0.70859 0.79337 0.0
C687 C 0.49487 0.69084 0.77784 0.0
C688 C 0.52275 0.72608 0.7712 0.0
C689 C 0.53941 0.74566 0.78611 0.0
C690 C 0.52798 0.75961 0.81341 0.0
C691 C 0.54392 0.77787 0.82761 0.0
C692 C 0.57126 0.78245 0.81458 0.0
C693 C 0.58269 0.76881 0.78724 0.0
C694 C 0.56684 0.75052 0.77295 0.0
C695 C 0.46392 0.70331 0.62945 0.0
C696 C 0.48696 0.70047 0.60576 0.0
C697 C 0.4687 0.70678 0.66594 0.0
C698 C 0.49658 0.70744 0.67948 0.0
C699 C 0.51962 0.70614 0.65561 0.0
C700 C 0.51486 0.70261 0.61908 0.0
C701 C 0.50163 0.70745 0.71868 0.0
C702 C 0.51793 0.72523 0.7341 0.0
C703 C 0.49032 0.68986 0.74084 0.0
C704 C 0.47498 0.66957 0.72592 0.0
C705 C 0.48815 0.65521 0.70042 0.0
C706 C 0.47358 0.63617 0.68634 0.0
C707 C 0.44587 0.63123 0.69775 0.0
C708 C 0.43273 0.64527 0.72335 0.0
C709 C 0.44722 0.66434 0.7375 0.0
H710 H 0.43462 0.61648 0.68683 0.0
H711 H 0.58358 0.79659 0.82562 0.0
H712 H 0.33242 0.32997 0.05127 0.0
H713 H 0.29094 0.30492 0.0443 0.0
H714 H 0.33085 0.27168 0.95385 0.0
H715 H 0.37297 0.29621 0.96156 0.0
H716 H 0.25227 0.29708 0.99751 0.0
H717 H 0.31204 0.21509 0.95031 0.0
H718 H 0.35968 0.19736 0.95524 0.0
H719 H 0.37381 0.23333 0.05414 0.0
H720 H 0.32614 0.25102 0.05 0.0
H721 H 0.14577 0.21365 0.95894 0.0
H722 H 0.18794 0.2383 0.95262 0.0
H723 H 0.22739 0.20328 0.0414 0.0
H724 H 0.18588 0.17811 0.04694 0.0
H725 H 0.2663 0.21205 0.99531 0.0
H726 H 0.19203 0.25707 0.04972 0.0
H727 H 0.14432 0.27467 0.05442 0.0
H728 H 0.15917 0.31253 0.9575 0.0
H729 H 0.20687 0.29492 0.952 0.0
C730 C 0.33232 0.31748 0.02966 0.0
C731 C 0.35615 0.315 1.00714 0.0
C732 C 0.30849 0.30315 0.02566 0.0
C733 C 0.3078 0.28606 0.99891 0.0
C734 C 0.33102 0.28434 0.97523 0.0
C735 C 0.35506 0.29849 0.9795 0.0
C736 C 0.28326 0.26962 0.99693 0.0
C737 C 0.2554 0.27849 0.99678 0.0
C738 C 0.2871 0.24529 0.99667 0.0
C739 C 0.31568 0.23457 0.99959 0.0
C740 C 0.3253 0.21915 0.97313 0.0
C741 C 0.3523 0.20912 0.97579 0.0
C742 C 0.3698 0.21428 1.00491 0.0
C743 C 0.36029 0.22941 0.03152 0.0
C744 C 0.33329 0.23947 0.02902 0.0
C745 C 0.1636 0.211 0.97679 0.0
C746 C 0.16236 0.19396 1.00355 0.0
C747 C 0.18766 0.22523 0.97332 0.0
C748 C 0.21076 0.22303 0.99698 0.0
C749 C 0.20994 0.20542 0.0228 0.0
C750 C 0.18609 0.19102 0.02599 0.0
C751 C 0.23531 0.23951 0.99597 0.0
C752 C 0.26317 0.23064 0.99554 0.0
C753 C 0.23147 0.26383 0.99696 0.0
C754 C 0.20286 0.27449 1.00024 0.0
C755 C 0.18503 0.26903 0.02929 0.0
C756 C 0.15801 0.27902 0.03211 0.0
C757 C 0.14869 0.29465 1.00622 0.0
C758 C 0.1664 0.30038 0.9775 0.0
C759 C 0.19343 0.29041 0.97452 0.0
H760 H 0.12776 0.30237 1.00845 0.0
H761 H 0.3907 0.20651 1.0069 0.0
H762 H 0.63679 0.72654 0.98222 0.0
H763 H 0.67868 0.7513 0.97648 0.0
H764 H 0.73295 0.69299 0.99983 0.0
H765 H 0.69081 0.66861 1.00804 0.0
H766 H 0.75199 0.72585 0.03471 0.0
H767 H 0.72551 0.7208 0.912 0.0
H768 H 0.69379 0.72277 0.85964 0.0
H769 H 0.67995 0.79514 0.87883 0.0
H770 H 0.71131 0.79355 0.9316 0.0
H771 H 0.87966 0.78414 0.9791 0.0
H772 H 0.83777 0.75904 0.9735 0.0
H773 H 0.78328 0.81598 1.00267 0.0
H774 H 0.82516 0.84109 0.00939 0.0
H775 H 0.76607 0.78373 0.93852 0.0
H776 H 0.79241 0.78557 0.06478 0.0
H777 H 0.82693 0.7817 0.11401 0.0
H778 H 0.84436 0.71174 0.08211 0.0
H779 H 0.81024 0.71535 0.03232 0.0
C780 C 0.65769 0.71894 0.98563 0.0
C781 C 0.66052 0.69561 0.99546 0.0
C782 C 0.68175 0.73311 0.98212 0.0
C783 C 0.7093 0.7241 0.98712 0.0
C784 C 0.71208 0.70053 0.9959 0.0
C785 C 0.68797 0.68652 1.0004 0.0
C786 C 0.73502 0.73944 0.98543 0.0
C787 C 0.75512 0.73816 0.01321 0.0
C788 C 0.73932 0.75593 0.95781 0.0
C789 C 0.72057 0.757 0.92596 0.0
C790 C 0.71556 0.73711 0.9052 0.0
C791 C 0.69767 0.73816 0.87542 0.0
C792 C 0.68481 0.75905 0.86597 0.0
C793 C 0.6899 0.77896 0.88621 0.0
C794 C 0.70776 0.778 0.91603 0.0
C795 C 0.85874 0.79143 0.98387 0.0
C796 C 0.85573 0.81461 0.99478 0.0
C797 C 0.83485 0.77705 0.98069 0.0
C798 C 0.80747 0.78567 0.98768 0.0
C799 C 0.80424 0.80904 0.99704 0.0
C800 C 0.82819 0.82332 1.00097 0.0
C801 C 0.78248 0.76989 0.9876 0.0
C802 C 0.76271 0.77119 0.95965 0.0
C803 C 0.77875 0.75305 0.01453 0.0
C804 C 0.79905 0.75083 0.04461 0.0
C805 C 0.80382 0.76945 0.06806 0.0
C806 C 0.82326 0.76729 0.0961 0.0
C807 C 0.8379 0.74651 0.10112 0.0
C808 C 0.83305 0.72783 0.07816 0.0
C809 C 0.81366 0.72992 0.05004 0.0
H810 H 0.85294 0.74487 0.12285 0.0
H811 H 0.67094 0.75983 0.84292 0.0
H812 H 0.19013 0.84245 0.50833 0.0
H813 H 0.23249 0.8182 0.51467 0.0
H814 H 0.17888 0.7582 0.52934 0.0
H815 H 0.13663 0.78269 0.5254 0.0
H816 H 0.22117 0.75236 0.56868 0.0
H817 H 0.21365 0.77389 0.4458 0.0
H818 H 0.20954 0.80016 0.39419 0.0
H819 H 0.28938 0.83181 0.42161 0.0
H820 H 0.2938 0.80591 0.47366 0.0
H821 H 0.32508 0.6704 0.49791 0.0
H822 H 0.28351 0.69575 0.50506 0.0
H823 H 0.33839 0.75135 0.53907 0.0
H824 H 0.37994 0.72597 0.53307 0.0
H825 H 0.29695 0.75939 0.47674 0.0
H826 H 0.30312 0.73324 0.59952 0.0
H827 H 0.30546 0.70336 0.64637 0.0
H828 H 0.22504 0.67583 0.61193 0.0
H829 H 0.22245 0.70535 0.56449 0.0
C830 C 0.18744 0.82413 0.51336 0.0
C831 C 0.16005 0.81447 0.51623 0.0
C832 C 0.21169 0.81019 0.51664 0.0
C833 C 0.2091 0.78612 0.52148 0.0
C834 C 0.18167 0.77663 0.5255 0.0
C835 C 0.15745 0.79067 0.52321 0.0
C836 C 0.23478 0.77076 0.52148 0.0
C837 C 0.23752 0.75385 0.54829 0.0
C838 C 0.25647 0.77253 0.4951 0.0
C839 C 0.25389 0.78814 0.46384 0.0
C840 C 0.23023 0.78657 0.44096 0.0
C841 C 0.22786 0.80137 0.41161 0.0
C842 C 0.24914 0.81769 0.40469 0.0
C843 C 0.27289 0.81919 0.42704 0.0
C844 C 0.27535 0.80444 0.45646 0.0
C845 C 0.32825 0.68792 0.50745 0.0
C846 C 0.35581 0.69616 0.515 0.0
C847 C 0.30449 0.70236 0.51151 0.0
C848 C 0.30792 0.72541 0.52254 0.0
C849 C 0.33532 0.7336 0.53058 0.0
C850 C 0.35901 0.71903 0.52729 0.0
C851 C 0.2831 0.7413 0.52382 0.0
C852 C 0.28055 0.75816 0.49713 0.0
C853 C 0.26125 0.73902 0.54961 0.0
C854 C 0.26275 0.72135 0.57821 0.0
C855 C 0.28608 0.72067 0.6017 0.0
C856 C 0.28742 0.70383 0.62842 0.0
C857 C 0.26545 0.68766 0.63206 0.0
C858 C 0.24206 0.68834 0.60905 0.0
C859 C 0.24064 0.70514 0.58226 0.0
H860 H 0.26652 0.67464 0.65277 0.0
H861 H 0.24727 0.82913 0.38195 0.0
H862 H 0.68839 0.33672 0.48747 0.0
H863 H 0.73001 0.31159 0.49249 0.0
H864 H 0.68248 0.26531 0.56052 0.0
H865 H 0.64087 0.29064 0.5562 0.0
H866 H 0.73637 0.26819 0.58309 0.0
H867 H 0.68986 0.25418 0.47124 0.0
H868 H 0.669 0.26466 0.41304 0.0
H869 H 0.75003 0.29065 0.37775 0.0
H870 H 0.77129 0.28061 0.43596 0.0
H871 H 0.82722 0.17299 0.48384 0.0
H872 H 0.78508 0.19741 0.49033 0.0
H873 H 0.83238 0.24405 0.55809 0.0
H874 H 0.87447 0.21938 0.55233 0.0
H875 H 0.77687 0.23947 0.4688 0.0
H876 H 0.78708 0.27254 0.61462 0.0
H877 H 0.80465 0.2588 0.67294 0.0
H878 H 0.7907 0.18841 0.64052 0.0
H879 H 0.77271 0.20173 0.58221 0.0
C880 C 0.68687 0.32138 0.50395 0.0
C881 C 0.66118 0.31563 0.52121 0.0
C882 C 0.71069 0.30694 0.50665 0.0
C883 C 0.70929 0.28628 0.52634 0.0
C884 C 0.68411 0.28109 0.54507 0.0
C885 C 0.6603 0.2956 0.54253 0.0
C886 C 0.73345 0.26952 0.52571 0.0
C887 C 0.74529 0.26197 0.55811 0.0
C888 C 0.74476 0.2609 0.49317 0.0
C889 C 0.73209 0.26684 0.45807 0.0
C890 C 0.70318 0.26228 0.45116 0.0
C891 C 0.6913 0.26812 0.41816 0.0
C892 C 0.70817 0.27837 0.39175 0.0
C893 C 0.73698 0.28274 0.39825 0.0
C894 C 0.74896 0.27696 0.43123 0.0
C895 C 0.82858 0.18826 0.50056 0.0
C896 C 0.85427 0.19419 0.51759 0.0
C897 C 0.80446 0.2023 0.50412 0.0
C898 C 0.80539 0.22261 0.52477 0.0
C899 C 0.83087 0.22832 0.54243 0.0
C900 C 0.855 0.2142 0.53904 0.0
C901 C 0.78017 0.23832 0.5262 0.0
C902 C 0.76809 0.24572 0.49385 0.0
C903 C 0.7683 0.24634 0.5588 0.0
C904 C 0.77883 0.23815 0.59391 0.0
C905 C 0.78767 0.25414 0.61999 0.0
C906 C 0.79772 0.24642 0.65304 0.0
C907 C 0.79888 0.22275 0.66038 0.0
C908 C 0.78991 0.20674 0.63474 0.0
C909 C 0.77982 0.21437 0.60167 0.0
H910 H 0.80669 0.21681 0.68597 0.0
H911 H 0.69893 0.28288 0.36622 0.0
loop_
_geom_bond_atom_site_label_1
_geom_bond_atom_site_label_2
_geom_bond_distance
_geom_bond_site_symmetry_2
_ccdc_geom_bond_type
O0 Cd1 2.223 . S
O0 C8 1.315 . S
Cd1 O0 2.223 . S
Cd1 O4 2.297 . S
Cd1 O5 2.439 . S
Cd1 O11 2.240 . S
Cd2 O3 2.240 . S
Cd2 O10 2.223 . S
Cd2 O12 2.297 1_554 S
Cd2 O13 2.439 1_554 S
O3 Cd2 2.240 . S
O3 C8 1.279 . S
O4 Cd1 2.297 . S
O4 C6 1.247 . S
O5 Cd1 2.439 . S
O5 C6 1.208 . S
C6 O4 1.247 . S
C6 O5 1.208 . S
C7 O12 1.247 . S
C7 O13 1.208 . S
C8 O0 1.315 . S
C8 O3 1.279 . S
C9 O10 1.315 . S
C9 O11 1.279 . S
O10 Cd2 2.223 . S
O10 C9 1.315 . S
O11 Cd1 2.240 . S
O11 C9 1.279 . S
O12 Cd2 2.297 1_556 S
O12 C7 1.247 . S
O13 Cd2 2.439 1_556 S
O13 C7 1.208 . S
O14 Cd15 2.223 . S
O14 C22 1.315 . S
Cd15 O14 2.223 . S
Cd15 O18 2.297 . S
Cd15 O19 2.439 . S
Cd15 O25 2.240 . S
Cd16 O17 2.240 . S
Cd16 O24 2.223 . S
Cd16 O26 2.297 1_554 S
Cd16 O27 2.439 1_554 S
O17 Cd16 2.240 . S
O17 C22 1.279 . S
O18 Cd15 2.297 . S
O18 C20 1.247 . S
O19 Cd15 2.439 . S
O19 C20 1.208 . S
C20 O18 1.247 . S
C20 O19 1.208 . S
C21 O26 1.247 . S
C21 O27 1.208 . S
C22 O14 1.315 . S
C22 O17 1.279 . S
C23 O24 1.315 . S
C23 O25 1.279 . S
O24 Cd16 2.223 . S
O24 C23 1.315 . S
O25 Cd15 2.240 . S
O25 C23 1.279 . S
O26 Cd16 2.297 1_556 S
O26 C21 1.247 . S
O27 Cd16 2.439 1_556 S
O27 C21 1.208 . S
O28 Cd29 2.223 . S
O28 C36 1.315 . S
Cd29 O28 2.223 . S
Cd29 O32 2.297 . S
Cd29 O33 2.439 . S
Cd29 O39 2.240 . S
Cd30 O31 2.240 . S
Cd30 O38 2.223 . S
Cd30 O40 2.297 . S
Cd30 O41 2.439 . S
O31 Cd30 2.240 . S
O31 C36 1.279 . S
O32 Cd29 2.297 . S
O32 C34 1.247 . S
O33 Cd29 2.439 . S
O33 C34 1.208 . S
C34 O32 1.247 . S
C34 O33 1.208 . S
C35 O40 1.247 . S
C35 O41 1.208 . S
C36 O28 1.315 . S
C36 O31 1.279 . S
C37 O38 1.315 . S
C37 O39 1.279 . S
O38 Cd30 2.223 . S
O38 C37 1.315 . S
O39 Cd29 2.240 . S
O39 C37 1.279 . S
O40 Cd30 2.297 . S
O40 C35 1.247 . S
O41 Cd30 2.439 . S
O41 C35 1.208 . S
O42 Cd43 2.223 . S
O42 C50 1.315 . S
Cd43 O42 2.223 . S
Cd43 O46 2.297 . S
Cd43 O47 2.439 . S
Cd43 O53 2.240 . S
Cd44 O45 2.240 . S
Cd44 O52 2.223 . S
Cd44 O54 2.297 . S
Cd44 O55 2.439 . S
O45 Cd44 2.240 . S
O45 C50 1.279 . S
O46 Cd43 2.297 . S
O46 C48 1.247 . S
O47 Cd43 2.439 . S
O47 C48 1.208 . S
C48 O46 1.247 . S
C48 O47 1.208 . S
C49 O54 1.247 . S
C49 O55 1.208 . S
C50 O42 1.315 . S
C50 O45 1.279 . S
C51 O52 1.315 . S
C51 O53 1.279 . S
O52 Cd44 2.223 . S
O52 C51 1.315 . S
O53 Cd43 2.240 . S
O53 C51 1.279 . S
O54 Cd44 2.297 . S
O54 C49 1.247 . S
O55 Cd44 2.439 . S
O55 C49 1.208 . S
O56 Cd57 2.223 . S
O56 C64 1.315 . S
Cd57 O56 2.223 . S
Cd57 O60 2.297 . S
Cd57 O61 2.439 . S
Cd57 O67 2.240 . S
Cd58 O59 2.240 . S
Cd58 O66 2.223 . S
Cd58 O68 2.297 1_554 S
Cd58 O69 2.439 1_554 S
O59 Cd58 2.240 . S
O59 C64 1.279 . S
O60 Cd57 2.297 . S
O60 C62 1.247 . S
O61 Cd57 2.439 . S
O61 C62 1.208 . S
C62 O60 1.247 . S
C62 O61 1.208 . S
C63 O68 1.247 . S
C63 O69 1.208 . S
C64 O56 1.315 . S
C64 O59 1.279 . S
C65 O66 1.315 . S
C65 O67 1.279 . S
O66 Cd58 2.223 . S
O66 C65 1.315 . S
O67 Cd57 2.240 . S
O67 C65 1.279 . S
O68 Cd58 2.297 1_556 S
O68 C63 1.247 . S
O69 Cd58 2.439 1_556 S
O69 C63 1.208 . S
O70 Cd71 2.223 . S
O70 C78 1.315 . S
Cd71 O70 2.223 . S
Cd71 O74 2.297 . S
Cd71 O75 2.439 . S
Cd71 O81 2.240 . S
Cd72 O73 2.240 . S
Cd72 O80 2.223 . S
Cd72 O82 2.297 1_554 S
Cd72 O83 2.439 1_554 S
O73 Cd72 2.240 . S
O73 C78 1.279 . S
O74 Cd71 2.297 . S
O74 C76 1.247 . S
O75 Cd71 2.439 . S
O75 C76 1.208 . S
C76 O74 1.247 . S
C76 O75 1.208 . S
C77 O82 1.247 . S
C77 O83 1.208 . S
C78 O70 1.315 . S
C78 O73 1.279 . S
C79 O80 1.315 . S
C79 O81 1.279 . S
O80 Cd72 2.223 . S
O80 C79 1.315 . S
O81 Cd71 2.240 . S
O81 C79 1.279 . S
O82 Cd72 2.297 1_556 S
O82 C77 1.247 . S
O83 Cd72 2.439 1_556 S
O83 C77 1.208 . S
O84 Cd85 2.223 . S
O84 C92 1.315 . S
Cd85 O84 2.223 . S
Cd85 O88 2.297 . S
Cd85 O89 2.439 . S
Cd85 O95 2.240 . S
Cd86 O87 2.240 . S
Cd86 O94 2.223 . S
Cd86 O96 2.297 . S
Cd86 O97 2.439 . S
O87 Cd86 2.240 . S
O87 C92 1.279 . S
O88 Cd85 2.297 . S
O88 C90 1.247 . S
O89 Cd85 2.439 . S
O89 C90 1.208 . S
C90 O88 1.247 . S
C90 O89 1.208 . S
C91 O96 1.247 . S
C91 O97 1.208 . S
C92 O84 1.315 . S
C92 O87 1.279 . S
C93 O94 1.315 . S
C93 O95 1.279 . S
O94 Cd86 2.223 . S
O94 C93 1.315 . S
O95 Cd85 2.240 . S
O95 C93 1.279 . S
O96 Cd86 2.297 . S
O96 C91 1.247 . S
O97 Cd86 2.439 . S
O97 C91 1.208 . S
O98 Cd99 2.223 . S
O98 C106 1.315 . S
Cd99 O98 2.223 . S
Cd99 O102 2.297 . S
Cd99 O103 2.439 . S
Cd99 O109 2.240 . S
Cd100 O101 2.240 . S
Cd100 O108 2.223 . S
Cd100 O110 2.297 . S
Cd100 O111 2.439 . S
O101 Cd100 2.240 . S
O101 C106 1.279 . S
O102 Cd99 2.297 . S
O102 C104 1.247 . S
O103 Cd99 2.439 . S
O103 C104 1.208 . S
C104 O102 1.247 . S
C104 O103 1.208 . S
C105 O110 1.247 . S
C105 O111 1.208 . S
C106 O98 1.315 . S
C106 O101 1.279 . S
C107 O108 1.315 . S
C107 O109 1.279 . S
O108 Cd100 2.223 . S
O108 C107 1.315 . S
O109 Cd99 2.240 . S
O109 C107 1.279 . S
O110 Cd100 2.297 . S
O110 C105 1.247 . S
O111 Cd100 2.439 . S
O111 C105 1.208 . S
H112 C130 0.951 1_556 S
H113 C132 0.951 1_456 S
H114 C134 0.950 . S
H115 C135 0.950 . S
H116 C137 0.950 . S
H117 C140 0.950 . S
H118 C141 0.950 . S
H119 C143 0.950 . S
H120 C144 0.938 1_556 S
H121 C145 0.951 . S
H122 C147 0.951 1_655 S
H123 C149 0.939 1_556 S
H124 C150 0.950 1_556 S
H125 C152 0.950 . S
H126 C155 0.950 . S
H127 C156 0.950 . S
H128 C158 0.950 . S
H129 C159 0.950 . S
C130 H112 0.951 1_554 S
C130 C131 1.366 . S
C130 C132 1.388 . S
C131 C130 1.366 . S
C131 C135 1.385 . S
C132 H113 0.951 1_654 S
C132 C130 1.388 . S
C132 C133 1.366 . S
C133 C132 1.366 . S
C133 C134 1.414 . S
C133 C136 1.499 . S
C134 H114 0.950 . S
C134 C133 1.414 . S
C134 C135 1.374 . S
C135 H115 0.950 . S
C135 C131 1.385 . S
C135 C134 1.374 . S
C136 C133 1.499 . S
C136 C137 1.373 . S
C136 C138 1.389 1_655 S
C137 H116 0.950 . S
C137 C136 1.373 . S
C137 C153 1.377 1_565 S
C138 C136 1.389 1_455 S
C138 C139 1.524 . S
C138 C152 1.377 1_565 S
C139 C138 1.524 . S
C139 C140 1.397 . S
C139 C144 1.363 . S
C140 H117 0.950 . S
C140 C139 1.397 . S
C140 C141 1.334 . S
C141 H118 0.950 . S
C141 C140 1.334 . S
C141 C142 1.287 . S
C142 C141 1.287 . S
C142 C143 1.524 . S
C142 H161 0.913 . S
C143 H119 0.950 . S
C143 C142 1.524 . S
C143 C144 1.415 . S
C144 H120 0.938 1_554 S
C144 C139 1.363 . S
C144 C143 1.415 . S
C145 H121 0.951 . S
C145 C146 1.366 . S
C145 C147 1.388 . S
C146 C145 1.366 . S
C146 C150 1.385 . S
C147 H122 0.951 1_455 S
C147 C145 1.388 . S
C147 C148 1.366 . S
C148 C147 1.366 . S
C148 C149 1.425 . S
C148 C151 1.499 . S
C149 H123 0.939 1_554 S
C149 C148 1.425 . S
C149 C150 1.374 . S
C150 H124 0.950 1_554 S
C150 C146 1.385 . S
C150 C149 1.374 . S
C151 C148 1.499 . S
C151 C152 1.373 . S
C151 C153 1.389 1_455 S
C152 H125 0.950 . S
C152 C138 1.377 1_545 S
C152 C151 1.373 . S
C153 C137 1.377 1_545 S
C153 C151 1.389 1_655 S
C153 C154 1.524 . S
C154 C153 1.524 . S
C154 C155 1.397 1_554 S
C154 C159 1.363 . S
C155 H126 0.950 . S
C155 C154 1.397 1_556 S
C155 C156 1.334 . S
C156 H127 0.950 . S
C156 C155 1.334 . S
C156 C157 1.287 . S
C157 C156 1.287 . S
C157 C158 1.524 1_556 S
C157 H160 0.999 . S
C158 H128 0.950 . S
C158 C157 1.524 1_554 S
C158 C159 1.415 . S
C159 H129 0.950 . S
C159 C154 1.363 . S
C159 C158 1.415 . S
H160 C157 0.999 . S
H161 C142 0.913 . S
H162 C180 0.951 1_655 S
H163 C182 0.951 1_655 S
H164 C184 0.950 . S
H165 C185 0.950 . S
H166 C187 0.950 . S
H167 C190 0.950 . S
H168 C191 0.950 . S
H169 C193 0.950 . S
H170 C194 0.950 . S
H171 C195 0.951 1_455 S
H172 C197 0.951 1_455 S
H173 C199 0.950 . S
H174 C200 0.950 . S
H175 C202 0.950 . S
H176 C205 0.950 . S
H177 C206 0.950 . S
H178 C208 0.950 . S
H179 C209 0.950 . S
C180 H162 0.951 1_455 S
C180 C181 1.366 . S
C180 C182 1.388 . S
C181 C180 1.366 . S
C181 C185 1.385 . S
C182 H163 0.951 1_455 S
C182 C180 1.388 . S
C182 C183 1.366 . S
C183 C182 1.366 . S
C183 C184 1.414 . S
C183 C186 1.499 . S
C184 H164 0.950 . S
C184 C183 1.414 . S
C184 C185 1.374 . S
C185 H165 0.950 . S
C185 C181 1.385 . S
C185 C184 1.374 . S
C186 C183 1.499 . S
C186 C187 1.373 . S
C186 C188 1.381 1_455 S
C187 H166 0.950 . S
C187 C186 1.373 . S
C187 C203 1.384 1_565 S
C188 C186 1.381 1_655 S
C188 C189 1.524 . S
C188 C202 1.384 1_565 S
C189 C188 1.524 . S
C189 C190 1.399 1_655 S
C189 C194 1.360 . S
C190 H167 0.950 . S
C190 C189 1.399 1_455 S
C190 C191 1.334 . S
C191 H168 0.950 . S
C191 C190 1.334 . S
C191 C192 1.287 . S
C192 C191 1.287 . S
C192 C193 1.524 1_455 S
C192 H211 0.913 . S
C193 H169 0.950 . S
C193 C192 1.524 1_655 S
C193 C194 1.415 . S
C194 H170 0.950 . S
C194 C189 1.360 . S
C194 C193 1.415 . S
C195 H171 0.951 1_655 S
C195 C196 1.366 . S
C195 C197 1.388 . S
C196 C195 1.366 . S
C196 C200 1.385 . S
C197 H172 0.951 1_655 S
C197 C195 1.388 . S
C197 C198 1.366 . S
C198 C197 1.366 . S
C198 C199 1.414 . S
C198 C201 1.499 . S
C199 H173 0.950 . S
C199 C198 1.414 . S
C199 C200 1.374 . S
C200 H174 0.950 . S
C200 C196 1.385 . S
C200 C199 1.374 . S
C201 C198 1.499 . S
C201 C202 1.373 . S
C201 C203 1.381 1_655 S
C202 H175 0.950 . S
C202 C188 1.384 1_545 S
C202 C201 1.373 . S
C203 C187 1.384 1_545 S
C203 C201 1.381 1_455 S
C203 C204 1.524 . S
C204 C203 1.524 . S
C204 C205 1.399 1_455 S
C204 C209 1.360 . S
C205 H176 0.950 . S
C205 C204 1.399 1_655 S
C205 C206 1.334 . S
C206 H177 0.950 . S
C206 C205 1.334 . S
C206 C207 1.287 . S
C207 C206 1.287 . S
C207 C208 1.524 1_655 S
C207 H210 0.999 . S
C208 H178 0.950 . S
C208 C207 1.524 1_455 S
C208 C209 1.415 . S
C209 H179 0.950 . S
C209 C204 1.360 . S
C209 C208 1.415 . S
H210 C207 0.999 . S
H211 C192 0.913 . S
H212 C230 0.951 . S
H213 C232 0.951 . S
H214 C234 0.950 . S
H215 C235 0.950 . S
H216 C237 0.950 . S
H217 C240 0.950 . S
H218 C241 0.950 . S
H219 C243 0.941 1_556 S
H220 C244 0.950 . S
H221 C245 0.951 . S
H222 C247 0.951 . S
H223 C249 0.950 . S
H224 C250 0.950 . S
H225 C252 0.950 . S
H226 C255 0.950 . S
H227 C256 0.950 . S
H228 C258 0.950 . S
H229 C259 0.950 . S
C230 H212 0.951 . S
C230 C231 1.366 1_556 S
C230 C232 1.388 . S
C231 C230 1.366 1_554 S
C231 C235 1.385 . S
C232 H213 0.951 . S
C232 C230 1.388 . S
C232 C233 1.366 1_556 S
C233 C232 1.366 1_554 S
C233 C234 1.414 . S
C233 C236 1.499 . S
C234 H214 0.950 . S
C234 C233 1.414 . S
C234 C235 1.374 . S
C235 H215 0.950 . S
C235 C231 1.385 . S
C235 C234 1.374 . S
C236 C233 1.499 . S
C236 C237 1.373 . S
C236 C238 1.389 . S
C237 H216 0.950 . S
C237 C236 1.373 . S
C237 C253 1.377 . S
C238 C236 1.389 . S
C238 C239 1.524 . S
C238 C252 1.377 . S
C239 C238 1.524 . S
C239 C240 1.397 . S
C239 C244 1.363 1_554 S
C240 H217 0.950 . S
C240 C239 1.397 . S
C240 C241 1.334 . S
C241 H218 0.950 . S
C241 C240 1.334 . S
C241 C242 1.287 . S
C242 C241 1.287 . S
C242 C243 1.534 . S
C242 H261 0.913 . S
C243 H219 0.941 1_554 S
C243 C242 1.534 . S
C243 C244 1.414 1_554 S
C244 H220 0.950 . S
C244 C239 1.363 1_556 S
C244 C243 1.414 1_556 S
C245 H221 0.951 . S
C245 C246 1.366 . S
C245 C247 1.388 . S
C246 C245 1.366 . S
C246 C250 1.385 1_554 S
C247 H222 0.951 . S
C247 C245 1.388 . S
C247 C248 1.366 . S
C248 C247 1.366 . S
C248 C249 1.414 1_554 S
C248 C251 1.499 . S
C249 H223 0.950 . S
C249 C248 1.414 1_556 S
C249 C250 1.374 . S
C250 H224 0.950 . S
C250 C246 1.385 1_556 S
C250 C249 1.374 . S
C251 C248 1.499 . S
C251 C252 1.373 . S
C251 C253 1.389 . S
C252 H225 0.950 . S
C252 C238 1.377 . S
C252 C251 1.373 . S
C253 C237 1.377 . S
C253 C251 1.389 . S
C253 C254 1.524 . S
C254 C253 1.524 . S
C254 C255 1.397 1_554 S
C254 C259 1.363 . S
C255 H226 0.950 . S
C255 C254 1.397 1_556 S
C255 C256 1.334 . S
C256 H227 0.950 . S
C256 C255 1.334 . S
C256 C257 1.287 1_556 S
C257 C256 1.287 1_554 S
C257 C258 1.524 . S
C257 H260 0.999 . S
C258 H228 0.950 . S
C258 C257 1.524 . S
C258 C259 1.415 . S
C259 H229 0.950 . S
C259 C254 1.363 . S
C259 C258 1.415 . S
H260 C257 0.999 . S
H261 C242 0.913 . S
H262 C280 0.951 . S
H263 C282 0.951 . S
H264 C284 0.950 . S
H265 C285 0.950 . S
H266 C287 0.950 . S
H267 C290 0.950 . S
H268 C291 0.950 . S
H269 C293 0.950 . S
H270 C294 0.950 . S
H271 C295 0.951 . S
H272 C297 0.951 . S
H273 C299 0.950 . S
H274 C300 0.950 . S
H275 C302 0.950 . S
H276 C305 0.950 . S
H277 C306 0.950 . S
H278 C308 0.950 . S
H279 C309 0.950 . S
C280 H262 0.951 . S
C280 C281 1.366 . S
C280 C282 1.388 . S
C281 C280 1.366 . S
C281 C285 1.385 . S
C282 H263 0.951 . S
C282 C280 1.388 . S
C282 C283 1.366 . S
C283 C282 1.366 . S
C283 C284 1.414 . S
C283 C286 1.499 . S
C284 H264 0.950 . S
C284 C283 1.414 . S
C284 C285 1.374 . S
C285 H265 0.950 . S
C285 C281 1.385 . S
C285 C284 1.374 . S
C286 C283 1.499 . S
C286 C287 1.373 . S
C286 C288 1.389 . S
C287 H266 0.950 . S
C287 C286 1.373 . S
C287 C303 1.377 . S
C288 C286 1.389 . S
C288 C289 1.524 . S
C288 C302 1.377 . S
C289 C288 1.524 . S
C289 C290 1.397 . S
C289 C294 1.363 . S
C290 H267 0.950 . S
C290 C289 1.397 . S
C290 C291 1.334 . S
C291 H268 0.950 . S
C291 C290 1.334 . S
C291 C292 1.287 . S
C292 C291 1.287 . S
C292 C293 1.524 . S
C292 H311 0.913 . S
C293 H269 0.950 . S
C293 C292 1.524 . S
C293 C294 1.415 . S
C294 H270 0.950 . S
C294 C289 1.363 . S
C294 C293 1.415 . S
C295 H271 0.951 . S
C295 C296 1.366 . S
C295 C297 1.388 . S
C296 C295 1.366 . S
C296 C300 1.385 . S
C297 H272 0.951 . S
C297 C295 1.388 . S
C297 C298 1.366 . S
C298 C297 1.366 . S
C298 C299 1.414 . S
C298 C301 1.499 . S
C299 H273 0.950 . S
C299 C298 1.414 . S
C299 C300 1.374 . S
C300 H274 0.950 . S
C300 C296 1.385 . S
C300 C299 1.374 . S
C301 C298 1.499 . S
C301 C302 1.373 . S
C301 C303 1.389 . S
C302 H275 0.950 . S
C302 C288 1.377 . S
C302 C301 1.373 . S
C303 C287 1.377 . S
C303 C301 1.389 . S
C303 C304 1.524 . S
C304 C303 1.524 . S
C304 C305 1.397 . S
C304 C309 1.363 . S
C305 H276 0.950 . S
C305 C304 1.397 . S
C305 C306 1.334 . S
C306 H277 0.950 . S
C306 C305 1.334 . S
C306 C307 1.287 . S
C307 C306 1.287 . S
C307 C308 1.524 . S
C307 H310 0.999 . S
C308 H278 0.950 . S
C308 C307 1.524 . S
C308 C309 1.415 . S
C309 H279 0.950 . S
C309 C304 1.363 . S
C309 C308 1.415 . S
H310 C307 0.999 . S
H311 C292 0.913 . S
H312 C330 0.951 . S
H313 C332 0.951 1_655 S
H314 C334 0.950 . S
H315 C335 0.950 . S
H316 C337 0.950 . S
H317 C340 0.950 . S
H318 C341 0.950 . S
H319 C343 0.950 1_655 S
H320 C344 0.950 . S
H321 C345 0.951 . S
H322 C347 0.951 1_455 S
H323 C349 0.950 . S
H324 C350 0.950 . S
H325 C352 0.950 . S
H326 C355 0.950 . S
H327 C356 0.950 . S
H328 C358 0.950 1_455 S
H329 C359 0.950 . S
C330 H312 0.951 . S
C330 C331 1.366 . S
C330 C332 1.388 . S
C331 C330 1.366 . S
C331 C335 1.385 . S
C332 H313 0.951 1_455 S
C332 C330 1.388 . S
C332 C333 1.366 . S
C333 C332 1.366 . S
C333 C334 1.414 . S
C333 C336 1.499 . S
C334 H314 0.950 . S
C334 C333 1.414 . S
C334 C335 1.374 . S
C335 H315 0.950 . S
C335 C331 1.385 . S
C335 C334 1.374 . S
C336 C333 1.499 . S
C336 C337 1.373 . S
C336 C338 1.389 . S
C337 H316 0.950 . S
C337 C336 1.373 . S
C337 C353 1.377 1_455 S
C338 C336 1.389 . S
C338 C339 1.524 . S
C338 C352 1.377 1_455 S
C339 C338 1.524 . S
C339 C340 1.397 . S
C339 C344 1.363 1_455 S
C340 H317 0.950 . S
C340 C339 1.397 . S
C340 C341 1.334 . S
C341 H318 0.950 . S
C341 C340 1.334 . S
C341 C342 1.287 . S
C342 C341 1.287 . S
C342 C343 1.524 . S
C342 H361 0.913 . S
C343 H319 0.950 1_455 S
C343 C342 1.524 . S
C343 C344 1.415 1_455 S
C344 H320 0.950 . S
C344 C339 1.363 1_655 S
C344 C343 1.415 1_655 S
C345 H321 0.951 . S
C345 C346 1.366 . S
C345 C347 1.388 . S
C346 C345 1.366 . S
C346 C350 1.385 . S
C347 H322 0.951 1_655 S
C347 C345 1.388 . S
C347 C348 1.366 . S
C348 C347 1.366 . S
C348 C349 1.414 . S
C348 C351 1.499 . S
C349 H323 0.950 . S
C349 C348 1.414 . S
C349 C350 1.374 . S
C350 H324 0.950 . S
C350 C346 1.385 . S
C350 C349 1.374 . S
C351 C348 1.499 . S
C351 C352 1.373 . S
C351 C353 1.389 . S
C352 H325 0.950 . S
C352 C338 1.377 1_655 S
C352 C351 1.373 . S
C353 C337 1.377 1_655 S
C353 C351 1.389 . S
C353 C354 1.524 . S
C354 C353 1.524 . S
C354 C355 1.397 . S
C354 C359 1.363 1_655 S
C355 H326 0.950 . S
C355 C354 1.397 . S
C355 C356 1.334 . S
C356 H327 0.950 . S
C356 C355 1.334 . S
C356 C357 1.287 . S
C357 C356 1.287 . S
C357 C358 1.524 . S
C357 H360 0.999 . S
C358 H328 0.950 1_655 S
C358 C357 1.524 . S
C358 C359 1.415 1_655 S
C359 H329 0.950 . S
C359 C354 1.363 1_455 S
C359 C358 1.415 1_455 S
H360 C357 0.999 . S
H361 C342 0.913 . S
H362 C380 0.951 . S
H363 C382 0.951 . S
H364 C384 0.950 . S
H365 C385 0.950 . S
H366 C387 0.950 . S
H367 C390 0.950 . S
H368 C391 0.950 . S
H369 C393 0.950 . S
H370 C394 0.950 . S
H371 C395 0.951 . S
H372 C397 0.951 . S
H373 C399 0.950 . S
H374 C400 0.950 . S
H375 C402 0.950 . S
H376 C405 0.950 . S
H377 C406 0.950 . S
H378 C408 0.950 . S
H379 C409 0.950 . S
C380 H362 0.951 . S
C380 C381 1.366 . S
C380 C382 1.388 . S
C381 C380 1.366 . S
C381 C385 1.385 . S
C382 H363 0.951 . S
C382 C380 1.388 . S
C382 C383 1.366 . S
C383 C382 1.366 . S
C383 C384 1.414 . S
C383 C386 1.499 . S
C384 H364 0.950 . S
C384 C383 1.414 . S
C384 C385 1.374 . S
C385 H365 0.950 . S
C385 C381 1.385 . S
C385 C384 1.374 . S
C386 C383 1.499 . S
C386 C387 1.373 . S
C386 C388 1.389 1_455 S
C387 H366 0.950 . S
C387 C386 1.373 . S
C387 C403 1.377 . S
C388 C386 1.389 1_655 S
C388 C389 1.524 . S
C388 C402 1.377 . S
C389 C388 1.524 . S
C389 C390 1.397 . S
C389 C394 1.363 . S
C390 H367 0.950 . S
C390 C389 1.397 . S
C390 C391 1.334 . S
C391 H368 0.950 . S
C391 C390 1.334 . S
C391 C392 1.287 . S
C392 C391 1.287 . S
C392 C393 1.524 . S
C392 H411 0.913 . S
C393 H369 0.950 . S
C393 C392 1.524 . S
C393 C394 1.415 . S
C394 H370 0.950 . S
C394 C389 1.363 . S
C394 C393 1.415 . S
C395 H371 0.951 . S
C395 C396 1.366 . S
C395 C397 1.388 . S
C396 C395 1.366 . S
C396 C400 1.385 . S
C397 H372 0.951 . S
C397 C395 1.388 . S
C397 C398 1.366 . S
C398 C397 1.366 . S
C398 C399 1.414 . S
C398 C401 1.499 . S
C399 H373 0.950 . S
C399 C398 1.414 . S
C399 C400 1.374 . S
C400 H374 0.950 . S
C400 C396 1.385 . S
C400 C399 1.374 . S
C401 C398 1.499 . S
C401 C402 1.373 . S
C401 C403 1.389 1_655 S
C402 H375 0.950 . S
C402 C388 1.377 . S
C402 C401 1.373 . S
C403 C387 1.377 . S
C403 C401 1.389 1_455 S
C403 C404 1.524 . S
C404 C403 1.524 . S
C404 C405 1.397 . S
C404 C409 1.363 . S
C405 H376 0.950 . S
C405 C404 1.397 . S
C405 C406 1.334 . S
C406 H377 0.950 . S
C406 C405 1.334 . S
C406 C407 1.287 . S
C407 C406 1.287 . S
C407 C408 1.524 . S
C407 H410 0.999 . S
C408 H378 0.950 . S
C408 C407 1.524 . S
C408 C409 1.415 . S
C409 H379 0.950 . S
C409 C404 1.363 . S
C409 C408 1.415 . S
H410 C407 0.999 . S
H411 C392 0.913 . S
H412 C430 0.951 . S
H413 C432 0.951 . S
H414 C434 0.950 . S
H415 C435 0.950 . S
H416 C437 0.950 . S
H417 C440 0.950 . S
H418 C441 0.950 . S
H419 C443 0.950 . S
H420 C444 0.950 . S
H421 C445 0.951 . S
H422 C447 0.951 . S
H423 C449 0.950 . S
H424 C450 0.950 . S
H425 C452 0.950 . S
H426 C455 0.950 . S
H427 C456 0.950 . S
H428 C458 0.950 . S
H429 C459 0.950 . S
C430 H412 0.951 . S
C430 C431 1.366 . S
C430 C432 1.388 . S
C431 C430 1.366 . S
C431 C435 1.385 . S
C432 H413 0.951 . S
C432 C430 1.388 . S
C432 C433 1.366 . S
C433 C432 1.366 . S
C433 C434 1.414 . S
C433 C436 1.499 . S
C434 H414 0.950 . S
C434 C433 1.414 . S
C434 C435 1.374 . S
C435 H415 0.950 . S
C435 C431 1.385 . S
C435 C434 1.374 . S
C436 C433 1.499 . S
C436 C437 1.373 . S
C436 C438 1.389 1_455 S
C437 H416 0.950 . S
C437 C436 1.373 . S
C437 C453 1.377 . S
C438 C436 1.389 1_655 S
C438 C439 1.524 . S
C438 C452 1.377 . S
C439 C438 1.524 . S
C439 C440 1.397 . S
C439 C444 1.363 . S
C440 H417 0.950 . S
C440 C439 1.397 . S
C440 C441 1.334 . S
C441 H418 0.950 . S
C441 C440 1.334 . S
C441 C442 1.287 . S
C442 C441 1.287 . S
C442 C443 1.524 . S
C442 H461 0.913 . S
C443 H419 0.950 . S
C443 C442 1.524 . S
C443 C444 1.415 . S
C444 H420 0.950 . S
C444 C439 1.363 . S
C444 C443 1.415 . S
C445 H421 0.951 . S
C445 C446 1.366 . S
C445 C447 1.388 . S
C446 C445 1.366 . S
C446 C450 1.385 . S
C447 H422 0.951 . S
C447 C445 1.388 . S
C447 C448 1.366 . S
C448 C447 1.366 . S
C448 C449 1.414 . S
C448 C451 1.499 . S
C449 H423 0.950 . S
C449 C448 1.414 . S
C449 C450 1.374 . S
C450 H424 0.950 . S
C450 C446 1.385 . S
C450 C449 1.374 . S
C451 C448 1.499 . S
C451 C452 1.373 . S
C451 C453 1.389 1_655 S
C452 H425 0.950 . S
C452 C438 1.377 . S
C452 C451 1.373 . S
C453 C437 1.377 . S
C453 C451 1.389 1_455 S
C453 C454 1.524 . S
C454 C453 1.524 . S
C454 C455 1.397 . S
C454 C459 1.363 . S
C455 H426 0.950 . S
C455 C454 1.397 . S
C455 C456 1.334 . S
C456 H427 0.950 . S
C456 C455 1.334 . S
C456 C457 1.287 . S
C457 C456 1.287 . S
C457 C458 1.524 . S
C457 H460 0.999 . S
C458 H428 0.950 . S
C458 C457 1.524 . S
C458 C459 1.415 . S
C459 H429 0.950 . S
C459 C454 1.363 . S
C459 C458 1.415 . S
H460 C457 0.999 . S
H461 C442 0.913 . S
H462 C480 0.951 . S
H463 C482 0.951 . S
H464 C484 0.950 . S
H465 C485 0.950 . S
H466 C487 0.950 . S
H467 C490 0.950 1_455 S
H468 C491 0.950 . S
H469 C493 0.950 . S
H470 C494 0.950 . S
H471 C495 0.951 . S
H472 C497 0.951 . S
H473 C499 0.950 . S
H474 C500 0.950 . S
H475 C502 0.950 . S
H476 C505 0.950 1_655 S
H477 C506 0.950 . S
H478 C508 0.950 . S
H479 C509 0.950 . S
C480 H462 0.951 . S
C480 C481 1.366 1_655 S
C480 C482 1.388 . S
C481 C480 1.366 1_455 S
C481 C485 1.385 . S
C482 H463 0.951 . S
C482 C480 1.388 . S
C482 C483 1.366 1_655 S
C483 C482 1.366 1_455 S
C483 C484 1.414 . S
C483 C486 1.499 . S
C484 H464 0.950 . S
C484 C483 1.414 . S
C484 C485 1.374 . S
C485 H465 0.950 . S
C485 C481 1.385 . S
C485 C484 1.374 . S
C486 C483 1.499 . S
C486 C487 1.373 . S
C486 C488 1.389 1_455 S
C487 H466 0.950 . S
C487 C486 1.373 . S
C487 C503 1.377 . S
C488 C486 1.389 1_655 S
C488 C489 1.524 . S
C488 C502 1.377 . S
C489 C488 1.524 . S
C489 C490 1.397 . S
C489 C494 1.363 . S
C490 H467 0.950 1_655 S
C490 C489 1.397 . S
C490 C491 1.334 . S
C491 H468 0.950 . S
C491 C490 1.334 . S
C491 C492 1.287 . S
C492 C491 1.287 . S
C492 C493 1.524 . S
C492 H511 0.913 . S
C493 H469 0.950 . S
C493 C492 1.524 . S
C493 C494 1.415 . S
C494 H470 0.950 . S
C494 C489 1.363 . S
C494 C493 1.415 . S
C495 H471 0.951 . S
C495 C496 1.366 1_455 S
C495 C497 1.388 . S
C496 C495 1.366 1_655 S
C496 C500 1.385 . S
C497 H472 0.951 . S
C497 C495 1.388 . S
C497 C498 1.366 1_455 S
C498 C497 1.366 1_655 S
C498 C499 1.414 . S
C498 C501 1.499 . S
C499 H473 0.950 . S
C499 C498 1.414 . S
C499 C500 1.374 . S
C500 H474 0.950 . S
C500 C496 1.385 . S
C500 C499 1.374 . S
C501 C498 1.499 . S
C501 C502 1.373 . S
C501 C503 1.389 1_655 S
C502 H475 0.950 . S
C502 C488 1.377 . S
C502 C501 1.373 . S
C503 C487 1.377 . S
C503 C501 1.389 1_455 S
C503 C504 1.524 . S
C504 C503 1.524 . S
C504 C505 1.397 . S
C504 C509 1.363 . S
C505 H476 0.950 1_455 S
C505 C504 1.397 . S
C505 C506 1.334 . S
C506 H477 0.950 . S
C506 C505 1.334 . S
C506 C507 1.287 . S
C507 C506 1.287 . S
C507 C508 1.524 . S
C507 H510 0.999 . S
C508 H478 0.950 . S
C508 C507 1.524 . S
C508 C509 1.415 . S
C509 H479 0.950 . S
C509 C504 1.363 . S
C509 C508 1.415 . S
H510 C507 0.999 . S
H511 C492 0.913 . S
H512 C530 0.951 . S
H513 C532 0.951 . S
H514 C534 0.950 . S
H515 C535 0.950 . S
H516 C537 0.950 . S
H517 C540 0.950 . S
H518 C541 0.950 . S
H519 C543 0.950 . S
H520 C544 0.950 . S
H521 C545 0.951 . S
H522 C547 0.951 . S
H523 C549 0.950 . S
H524 C550 0.950 . S
H525 C552 0.950 . S
H526 C555 0.950 . S
H527 C556 0.950 . S
H528 C558 0.950 . S
H529 C559 0.950 . S
C530 H512 0.951 . S
C530 C531 1.366 . S
C530 C532 1.388 . S
C531 C530 1.366 . S
C531 C535 1.385 . S
C532 H513 0.951 . S
C532 C530 1.388 . S
C532 C533 1.366 . S
C533 C532 1.366 . S
C533 C534 1.414 . S
C533 C536 1.499 . S
C534 H514 0.950 . S
C534 C533 1.414 . S
C534 C535 1.374 . S
C535 H515 0.950 . S
C535 C531 1.385 . S
C535 C534 1.374 . S
C536 C533 1.499 . S
C536 C537 1.373 . S
C536 C538 1.389 . S
C537 H516 0.950 . S
C537 C536 1.373 . S
C537 C553 1.377 . S
C538 C536 1.389 . S
C538 C539 1.524 . S
C538 C552 1.377 . S
C539 C538 1.524 . S
C539 C540 1.397 . S
C539 C544 1.363 . S
C540 H517 0.950 . S
C540 C539 1.397 . S
C540 C541 1.334 . S
C541 H518 0.950 . S
C541 C540 1.334 . S
C541 C542 1.287 . S
C542 C541 1.287 . S
C542 C543 1.524 . S
C542 H561 0.913 . S
C543 H519 0.950 . S
C543 C542 1.524 . S
C543 C544 1.415 . S
C544 H520 0.950 . S
C544 C539 1.363 . S
C544 C543 1.415 . S
C545 H521 0.951 . S
C545 C546 1.366 . S
C545 C547 1.388 . S
C546 C545 1.366 . S
C546 C550 1.385 . S
C547 H522 0.951 . S
C547 C545 1.388 . S
C547 C548 1.366 . S
C548 C547 1.366 . S
C548 C549 1.414 . S
C548 C551 1.499 . S
C549 H523 0.950 . S
C549 C548 1.414 . S
C549 C550 1.374 . S
C550 H524 0.950 . S
C550 C546 1.385 . S
C550 C549 1.374 . S
C551 C548 1.499 . S
C551 C552 1.373 . S
C551 C553 1.389 . S
C552 H525 0.950 . S
C552 C538 1.377 . S
C552 C551 1.373 . S
C553 C537 1.377 . S
C553 C551 1.389 . S
C553 C554 1.524 . S
C554 C553 1.524 . S
C554 C555 1.397 . S
C554 C559 1.363 . S
C555 H526 0.950 . S
C555 C554 1.397 . S
C555 C556 1.334 . S
C556 H527 0.950 . S
C556 C555 1.334 . S
C556 C557 1.287 . S
C557 C556 1.287 . S
C557 C558 1.524 . S
C557 H560 0.999 . S
C558 H528 0.950 . S
C558 C557 1.524 . S
C558 C559 1.415 . S
C559 H529 0.950 . S
C559 C554 1.363 . S
C559 C558 1.415 . S
H560 C557 0.999 . S
H561 C542 0.913 . S
H562 C580 0.951 . S
H563 C582 0.951 . S
H564 C584 0.950 . S
H565 C585 0.950 . S
H566 C587 0.950 . S
H567 C590 0.950 . S
H568 C591 0.950 . S
H569 C593 0.950 . S
H570 C594 0.950 . S
H571 C595 0.951 . S
H572 C597 0.951 . S
H573 C599 0.950 . S
H574 C600 0.950 . S
H575 C602 0.950 . S
H576 C605 0.950 . S
H577 C606 0.950 . S
H578 C608 0.950 . S
H579 C609 0.950 . S
C580 H562 0.951 . S
C580 C581 1.366 . S
C580 C582 1.388 . S
C581 C580 1.366 . S
C581 C585 1.385 . S
C582 H563 0.951 . S
C582 C580 1.388 . S
C582 C583 1.366 . S
C583 C582 1.366 . S
C583 C584 1.414 . S
C583 C586 1.499 . S
C584 H564 0.950 . S
C584 C583 1.414 . S
C584 C585 1.374 . S
C585 H565 0.950 . S
C585 C581 1.385 . S
C585 C584 1.374 . S
C586 C583 1.499 . S
C586 C587 1.373 . S
C586 C588 1.389 . S
C587 H566 0.950 . S
C587 C586 1.373 . S
C587 C603 1.377 . S
C588 C586 1.389 . S
C588 C589 1.524 . S
C588 C602 1.377 . S
C589 C588 1.524 . S
C589 C590 1.397 . S
C589 C594 1.363 . S
C590 H567 0.950 . S
C590 C589 1.397 . S
C590 C591 1.334 . S
C591 H568 0.950 . S
C591 C590 1.334 . S
C591 C592 1.287 . S
C592 C591 1.287 . S
C592 C593 1.524 . S
C592 H611 0.913 . S
C593 H569 0.950 . S
C593 C592 1.524 . S
C593 C594 1.415 . S
C594 H570 0.950 . S
C594 C589 1.363 . S
C594 C593 1.415 . S
C595 H571 0.951 . S
C595 C596 1.366 . S
C595 C597 1.388 . S
C596 C595 1.366 . S
C596 C600 1.385 . S
C597 H572 0.951 . S
C597 C595 1.388 . S
C597 C598 1.366 . S
C598 C597 1.366 . S
C598 C599 1.414 . S
C598 C601 1.499 . S
C599 H573 0.950 . S
C599 C598 1.414 . S
C599 C600 1.374 . S
C600 H574 0.950 . S
C600 C596 1.385 . S
C600 C599 1.374 . S
C601 C598 1.499 . S
C601 C602 1.373 . S
C601 C603 1.389 . S
C602 H575 0.950 . S
C602 C588 1.377 . S
C602 C601 1.373 . S
C603 C587 1.377 . S
C603 C601 1.389 . S
C603 C604 1.524 . S
C604 C603 1.524 . S
C604 C605 1.397 . S
C604 C609 1.363 . S
C605 H576 0.950 . S
C605 C604 1.397 . S
C605 C606 1.334 . S
C606 H577 0.950 . S
C606 C605 1.334 . S
C606 C607 1.287 . S
C607 C606 1.287 . S
C607 C608 1.524 . S
C607 H610 0.999 . S
C608 H578 0.950 . S
C608 C607 1.524 . S
C608 C609 1.415 . S
C609 H579 0.950 . S
C609 C604 1.363 . S
C609 C608 1.415 . S
H610 C607 0.999 . S
H611 C592 0.913 . S
H612 C630 0.951 . S
H613 C632 0.951 . S
H614 C634 0.950 . S
H615 C635 0.950 . S
H616 C637 0.950 . S
H617 C640 0.950 . S
H618 C641 0.950 . S
H619 C643 0.950 . S
H620 C644 0.950 . S
H621 C645 0.951 . S
H622 C647 0.951 . S
H623 C649 0.950 . S
H624 C650 0.950 . S
H625 C652 0.950 . S
H626 C655 0.950 . S
H627 C656 0.950 . S
H628 C658 0.950 . S
H629 C659 0.950 . S
C630 H612 0.951 . S
C630 C631 1.366 . S
C630 C632 1.388 . S
C631 C630 1.366 . S
C631 C635 1.385 . S
C632 H613 0.951 . S
C632 C630 1.388 . S
C632 C633 1.366 . S
C633 C632 1.366 . S
C633 C634 1.414 . S
C633 C636 1.499 . S
C634 H614 0.950 . S
C634 C633 1.414 . S
C634 C635 1.374 . S
C635 H615 0.950 . S
C635 C631 1.385 . S
C635 C634 1.374 . S
C636 C633 1.499 . S
C636 C637 1.373 . S
C636 C638 1.389 . S
C637 H616 0.950 . S
C637 C636 1.373 . S
C637 C653 1.377 . S
C638 C636 1.389 . S
C638 C639 1.524 . S
C638 C652 1.377 . S
C639 C638 1.524 . S
C639 C640 1.397 . S
C639 C644 1.363 . S
C640 H617 0.950 . S
C640 C639 1.397 . S
C640 C641 1.334 . S
C641 H618 0.950 . S
C641 C640 1.334 . S
C641 C642 1.287 . S
C642 C641 1.287 . S
C642 C643 1.524 . S
C642 H661 0.913 . S
C643 H619 0.950 . S
C643 C642 1.524 . S
C643 C644 1.415 . S
C644 H620 0.950 . S
C644 C639 1.363 . S
C644 C643 1.415 . S
C645 H621 0.951 . S
C645 C646 1.366 . S
C645 C647 1.388 . S
C646 C645 1.366 . S
C646 C650 1.385 . S
C647 H622 0.951 . S
C647 C645 1.388 . S
C647 C648 1.366 . S
C648 C647 1.366 . S
C648 C649 1.414 . S
C648 C651 1.499 . S
C649 H623 0.950 . S
C649 C648 1.414 . S
C649 C650 1.374 . S
C650 H624 0.950 . S
C650 C646 1.385 . S
C650 C649 1.374 . S
C651 C648 1.499 . S
C651 C652 1.373 . S
C651 C653 1.389 . S
C652 H625 0.950 . S
C652 C638 1.377 . S
C652 C651 1.373 . S
C653 C637 1.377 . S
C653 C651 1.389 . S
C653 C654 1.524 . S
C654 C653 1.524 . S
C654 C655 1.397 . S
C654 C659 1.363 . S
C655 H626 0.950 . S
C655 C654 1.397 . S
C655 C656 1.334 . S
C656 H627 0.950 . S
C656 C655 1.334 . S
C656 C657 1.287 . S
C657 C656 1.287 . S
C657 C658 1.524 . S
C657 H660 0.999 . S
C658 H628 0.950 . S
C658 C657 1.524 . S
C658 C659 1.415 . S
C659 H629 0.950 . S
C659 C654 1.363 . S
C659 C658 1.415 . S
H660 C657 0.999 . S
H661 C642 0.913 . S
H662 C680 0.951 . S
H663 C682 0.951 . S
H664 C684 0.950 . S
H665 C685 0.950 . S
H666 C687 0.950 . S
H667 C690 0.950 . S
H668 C691 0.950 . S
H669 C693 0.950 . S
H670 C694 0.950 . S
H671 C695 0.951 . S
H672 C697 0.951 . S
H673 C699 0.950 . S
H674 C700 0.950 . S
H675 C702 0.950 . S
H676 C705 0.950 . S
H677 C706 0.950 . S
H678 C708 0.950 . S
H679 C709 0.950 . S
C680 H662 0.951 . S
C680 C681 1.366 . S
C680 C682 1.388 . S
C681 C680 1.366 . S
C681 C685 1.385 . S
C682 H663 0.951 . S
C682 C680 1.388 . S
C682 C683 1.366 . S
C683 C682 1.366 . S
C683 C684 1.414 . S
C683 C686 1.499 . S
C684 H664 0.950 . S
C684 C683 1.414 . S
C684 C685 1.374 . S
C685 H665 0.950 . S
C685 C681 1.385 . S
C685 C684 1.374 . S
C686 C683 1.499 . S
C686 C687 1.373 . S
C686 C688 1.389 . S
C687 H666 0.950 . S
C687 C686 1.373 . S
C687 C703 1.377 . S
C688 C686 1.389 . S
C688 C689 1.524 . S
C688 C702 1.377 . S
C689 C688 1.524 . S
C689 C690 1.397 . S
C689 C694 1.363 . S
C690 H667 0.950 . S
C690 C689 1.397 . S
C690 C691 1.334 . S
C691 H668 0.950 . S
C691 C690 1.334 . S
C691 C692 1.287 . S
C692 C691 1.287 . S
C692 C693 1.524 . S
C692 H711 0.913 . S
C693 H669 0.950 . S
C693 C692 1.524 . S
C693 C694 1.415 . S
C694 H670 0.950 . S
C694 C689 1.363 . S
C694 C693 1.415 . S
C695 H671 0.951 . S
C695 C696 1.366 . S
C695 C697 1.388 . S
C696 C695 1.366 . S
C696 C700 1.385 . S
C697 H672 0.951 . S
C697 C695 1.388 . S
C697 C698 1.366 . S
C698 C697 1.366 . S
C698 C699 1.414 . S
C698 C701 1.499 . S
C699 H673 0.950 . S
C699 C698 1.414 . S
C699 C700 1.374 . S
C700 H674 0.950 . S
C700 C696 1.385 . S
C700 C699 1.374 . S
C701 C698 1.499 . S
C701 C702 1.373 . S
C701 C703 1.389 . S
C702 H675 0.950 . S
C702 C688 1.377 . S
C702 C701 1.373 . S
C703 C687 1.377 . S
C703 C701 1.389 . S
C703 C704 1.524 . S
C704 C703 1.524 . S
C704 C705 1.397 . S
C704 C709 1.363 . S
C705 H676 0.950 . S
C705 C704 1.397 . S
C705 C706 1.334 . S
C706 H677 0.950 . S
C706 C705 1.334 . S
C706 C707 1.287 . S
C707 C706 1.287 . S
C707 C708 1.524 . S
C707 H710 0.999 . S
C708 H678 0.950 . S
C708 C707 1.524 . S
C708 C709 1.415 . S
C709 H679 0.950 . S
C709 C704 1.363 . S
C709 C708 1.415 . S
H710 C707 0.999 . S
H711 C692 0.913 . S
H712 C730 0.951 . S
H713 C732 0.951 . S
H714 C734 0.925 1_556 S
H715 C735 0.950 1_556 S
H716 C737 0.950 . S
H717 C740 0.950 1_556 S
H718 C741 0.950 1_556 S
H719 C743 0.950 . S
H720 C744 0.950 . S
H721 C745 0.951 1_556 S
H722 C747 0.951 1_556 S
H723 C749 0.950 . S
H724 C750 0.950 . S
H725 C752 0.950 . S
H726 C755 0.950 . S
H727 C756 0.950 . S
H728 C758 0.950 . S
H729 C759 0.950 . S
C730 H712 0.951 . S
C730 C731 1.366 . S
C730 C732 1.388 . S
C731 C730 1.366 . S
C731 C735 1.385 . S
C732 H713 0.951 . S
C732 C730 1.388 . S
C732 C733 1.366 . S
C733 C732 1.366 . S
C733 C734 1.439 . S
C733 C736 1.499 . S
C734 H714 0.925 1_554 S
C734 C733 1.439 . S
C734 C735 1.375 . S
C735 H715 0.950 1_554 S
C735 C731 1.385 . S
C735 C734 1.375 . S
C736 C733 1.499 . S
C736 C737 1.373 . S
C736 C738 1.389 . S
C737 H716 0.950 . S
C737 C736 1.373 . S
C737 C753 1.377 . S
C738 C736 1.389 . S
C738 C739 1.524 . S
C738 C752 1.377 . S
C739 C738 1.524 . S
C739 C740 1.397 . S
C739 C744 1.363 . S
C740 H717 0.950 1_554 S
C740 C739 1.397 . S
C740 C741 1.334 . S
C741 H718 0.950 1_554 S
C741 C740 1.334 . S
C741 C742 1.287 . S
C742 C741 1.287 . S
C742 C743 1.524 . S
C742 H761 0.913 . S
C743 H719 0.950 . S
C743 C742 1.524 . S
C743 C744 1.415 . S
C744 H720 0.950 . S
C744 C739 1.363 . S
C744 C743 1.415 . S
C745 H721 0.951 1_554 S
C745 C746 1.366 . S
C745 C747 1.388 . S
C746 C745 1.366 . S
C746 C750 1.385 . S
C747 H722 0.951 1_554 S
C747 C745 1.388 . S
C747 C748 1.366 . S
C748 C747 1.366 . S
C748 C749 1.414 . S
C748 C751 1.499 . S
C749 H723 0.950 . S
C749 C748 1.414 . S
C749 C750 1.374 . S
C750 H724 0.950 . S
C750 C746 1.385 . S
C750 C749 1.374 . S
C751 C748 1.499 . S
C751 C752 1.373 . S
C751 C753 1.389 . S
C752 H725 0.950 . S
C752 C738 1.377 . S
C752 C751 1.373 . S
C753 C737 1.377 . S
C753 C751 1.389 . S
C753 C754 1.524 . S
C754 C753 1.524 . S
C754 C755 1.397 . S
C754 C759 1.363 1_554 S
C755 H726 0.950 . S
C755 C754 1.397 . S
C755 C756 1.334 . S
C756 H727 0.950 . S
C756 C755 1.334 . S
C756 C757 1.287 . S
C757 C756 1.287 . S
C757 C758 1.524 1_554 S
C757 H760 0.999 . S
C758 H728 0.950 . S
C758 C757 1.524 1_556 S
C758 C759 1.415 . S
C759 H729 0.950 . S
C759 C754 1.363 1_556 S
C759 C758 1.415 . S
H760 C757 0.999 . S
H761 C742 0.913 . S
H762 C780 0.951 . S
H763 C782 0.951 . S
H764 C784 0.950 . S
H765 C785 0.950 . S
H766 C787 0.950 . S
H767 C790 0.950 . S
H768 C791 0.950 . S
H769 C793 0.950 . S
H770 C794 0.950 1_554 S
H771 C795 0.951 . S
H772 C797 0.951 . S
H773 C799 0.950 . S
H774 C800 0.950 . S
H775 C802 0.950 1_556 S
H776 C805 0.950 . S
H777 C806 0.950 . S
H778 C808 0.950 . S
H779 C809 0.950 . S
C780 H762 0.951 . S
C780 C781 1.366 . S
C780 C782 1.388 . S
C781 C780 1.366 . S
C781 C785 1.385 . S
C782 H763 0.951 . S
C782 C780 1.388 . S
C782 C783 1.366 . S
C783 C782 1.366 . S
C783 C784 1.414 . S
C783 C786 1.499 . S
C784 H764 0.950 . S
C784 C783 1.414 . S
C784 C785 1.374 . S
C785 H765 0.950 . S
C785 C781 1.385 . S
C785 C784 1.374 . S
C786 C783 1.499 . S
C786 C787 1.373 . S
C786 C788 1.389 . S
C787 H766 0.950 . S
C787 C786 1.373 . S
C787 C803 1.377 . S
C788 C786 1.389 . S
C788 C789 1.524 1_554 S
C788 C802 1.377 . S
C789 C788 1.524 1_556 S
C789 C790 1.397 . S
C789 C794 1.363 . S
C790 H767 0.950 . S
C790 C789 1.397 . S
C790 C791 1.334 . S
C791 H768 0.950 . S
C791 C790 1.334 . S
C791 C792 1.287 . S
C792 C791 1.287 . S
C792 C793 1.524 . S
C792 H811 0.913 . S
C793 H769 0.950 . S
C793 C792 1.524 . S
C793 C794 1.415 . S
C794 H770 0.950 1_556 S
C794 C789 1.363 . S
C794 C793 1.415 . S
C795 H771 0.951 . S
C795 C796 1.366 . S
C795 C797 1.388 . S
C796 C795 1.366 . S
C796 C800 1.385 . S
C797 H772 0.951 . S
C797 C795 1.388 . S
C797 C798 1.366 . S
C798 C797 1.366 . S
C798 C799 1.414 . S
C798 C801 1.499 . S
C799 H773 0.950 . S
C799 C798 1.414 . S
C799 C800 1.374 . S
C800 H774 0.950 . S
C800 C796 1.385 . S
C800 C799 1.374 . S
C801 C798 1.499 . S
C801 C802 1.373 . S
C801 C803 1.389 . S
C802 H775 0.950 1_554 S
C802 C788 1.377 . S
C802 C801 1.373 . S
C803 C787 1.377 . S
C803 C801 1.389 . S
C803 C804 1.524 . S
C804 C803 1.524 . S
C804 C805 1.397 . S
C804 C809 1.363 . S
C805 H776 0.950 . S
C805 C804 1.397 . S
C805 C806 1.334 . S
C806 H777 0.950 . S
C806 C805 1.334 . S
C806 C807 1.287 . S
C807 C806 1.287 . S
C807 C808 1.524 . S
C807 H810 0.999 . S
C808 H778 0.950 . S
C808 C807 1.524 . S
C808 C809 1.415 . S
C809 H779 0.950 . S
C809 C804 1.363 . S
C809 C808 1.415 . S
H810 C807 0.999 . S
H811 C792 0.913 . S
H812 C830 0.951 . S
H813 C832 0.951 . S
H814 C834 0.950 . S
H815 C835 0.950 . S
H816 C837 0.950 . S
H817 C840 0.950 . S
H818 C841 0.950 . S
H819 C843 0.950 . S
H820 C844 0.950 . S
H821 C845 0.951 . S
H822 C847 0.951 . S
H823 C849 0.950 . S
H824 C850 0.950 . S
H825 C852 0.950 . S
H826 C855 0.950 . S
H827 C856 0.950 . S
H828 C858 0.950 . S
H829 C859 0.950 . S
C830 H812 0.951 . S
C830 C831 1.366 . S
C830 C832 1.388 . S
C831 C830 1.366 . S
C831 C835 1.385 . S
C832 H813 0.951 . S
C832 C830 1.388 . S
C832 C833 1.366 . S
C833 C832 1.366 . S
C833 C834 1.414 . S
C833 C836 1.499 . S
C834 H814 0.950 . S
C834 C833 1.414 . S
C834 C835 1.374 . S
C835 H815 0.950 . S
C835 C831 1.385 . S
C835 C834 1.374 . S
C836 C833 1.499 . S
C836 C837 1.373 . S
C836 C838 1.389 . S
C837 H816 0.950 . S
C837 C836 1.373 . S
C837 C853 1.377 . S
C838 C836 1.389 . S
C838 C839 1.524 . S
C838 C852 1.377 . S
C839 C838 1.524 . S
C839 C840 1.397 . S
C839 C844 1.363 . S
C840 H817 0.950 . S
C840 C839 1.397 . S
C840 C841 1.334 . S
C841 H818 0.950 . S
C841 C840 1.334 . S
C841 C842 1.287 . S
C842 C841 1.287 . S
C842 C843 1.524 . S
C842 H861 0.913 . S
C843 H819 0.950 . S
C843 C842 1.524 . S
C843 C844 1.415 . S
C844 H820 0.950 . S
C844 C839 1.363 . S
C844 C843 1.415 . S
C845 H821 0.951 . S
C845 C846 1.366 . S
C845 C847 1.388 . S
C846 C845 1.366 . S
C846 C850 1.385 . S
C847 H822 0.951 . S
C847 C845 1.388 . S
C847 C848 1.366 . S
C848 C847 1.366 . S
C848 C849 1.414 . S
C848 C851 1.499 . S
C849 H823 0.950 . S
C849 C848 1.414 . S
C849 C850 1.374 . S
C850 H824 0.950 . S
C850 C846 1.385 . S
C850 C849 1.374 . S
C851 C848 1.499 . S
C851 C852 1.373 . S
C851 C853 1.389 . S
C852 H825 0.950 . S
C852 C838 1.377 . S
C852 C851 1.373 . S
C853 C837 1.377 . S
C853 C851 1.389 . S
C853 C854 1.524 . S
C854 C853 1.524 . S
C854 C855 1.397 . S
C854 C859 1.363 . S
C855 H826 0.950 . S
C855 C854 1.397 . S
C855 C856 1.334 . S
C856 H827 0.950 . S
C856 C855 1.334 . S
C856 C857 1.287 . S
C857 C856 1.287 . S
C857 C858 1.524 . S
C857 H860 0.999 . S
C858 H828 0.950 . S
C858 C857 1.524 . S
C858 C859 1.415 . S
C859 H829 0.950 . S
C859 C854 1.363 . S
C859 C858 1.415 . S
H860 C857 0.999 . S
H861 C842 0.913 . S
H862 C880 0.951 . S
H863 C882 0.951 . S
H864 C884 0.950 . S
H865 C885 0.950 . S
H866 C887 0.950 . S
H867 C890 0.950 . S
H868 C891 0.950 . S
H869 C893 0.950 . S
H870 C894 0.950 . S
H871 C895 0.951 . S
H872 C897 0.951 . S
H873 C899 0.950 . S
H874 C900 0.950 . S
H875 C902 0.950 . S
H876 C905 0.950 . S
H877 C906 0.950 . S
H878 C908 0.950 . S
H879 C909 0.950 . S
C880 H862 0.951 . S
C880 C881 1.366 . S
C880 C882 1.388 . S
C881 C880 1.366 . S
C881 C885 1.385 . S
C882 H863 0.951 . S
C882 C880 1.388 . S
C882 C883 1.366 . S
C883 C882 1.366 . S
C883 C884 1.414 . S
C883 C886 1.499 . S
C884 H864 0.950 . S
C884 C883 1.414 . S
C884 C885 1.374 . S
C885 H865 0.950 . S
C885 C881 1.385 . S
C885 C884 1.374 . S
C886 C883 1.499 . S
C886 C887 1.373 . S
C886 C888 1.389 . S
C887 H866 0.950 . S
C887 C886 1.373 . S
C887 C903 1.377 . S
C888 C886 1.389 . S
C888 C889 1.524 . S
C888 C902 1.377 . S
C889 C888 1.524 . S
C889 C890 1.397 . S
C889 C894 1.363 . S
C890 H867 0.950 . S
C890 C889 1.397 . S
C890 C891 1.334 . S
C891 H868 0.950 . S
C891 C890 1.334 . S
C891 C892 1.287 . S
C892 C891 1.287 . S
C892 C893 1.524 . S
C892 H911 0.913 . S
C893 H869 0.950 . S
C893 C892 1.524 . S
C893 C894 1.415 . S
C894 H870 0.950 . S
C894 C889 1.363 . S
C894 C893 1.415 . S
C895 H871 0.951 . S
C895 C896 1.366 . S
C895 C897 1.388 . S
C896 C895 1.366 . S
C896 C900 1.385 . S
C897 H872 0.951 . S
C897 C895 1.388 . S
C897 C898 1.366 . S
C898 C897 1.366 . S
C898 C899 1.414 . S
C898 C901 1.499 . S
C899 H873 0.950 . S
C899 C898 1.414 . S
C899 C900 1.374 . S
C900 H874 0.950 . S
C900 C896 1.385 . S
C900 C899 1.374 . S
C901 C898 1.499 . S
C901 C902 1.373 . S
C901 C903 1.389 . S
C902 H875 0.950 . S
C902 C888 1.377 . S
C902 C901 1.373 . S
C903 C887 1.377 . S
C903 C901 1.389 . S
C903 C904 1.524 . S
C904 C903 1.524 . S
C904 C905 1.397 . S
C904 C909 1.363 . S
C905 H876 0.950 . S
C905 C904 1.397 . S
C905 C906 1.334 . S
C906 H877 0.950 . S
C906 C905 1.334 . S
C906 C907 1.287 . S
C907 C906 1.287 . S
C907 C908 1.524 . S
C907 H910 0.999 . S
C908 H878 0.950 . S
C908 C907 1.524 . S
C908 C909 1.415 . S
C909 H879 0.950 . S
C909 C904 1.363 . S
C909 C908 1.415 . S
H910 C907 0.999 . S
H911 C892 0.913 . S
C131 C23 1.484 . S
C146 C9 1.484 . S
C181 C37 1.484 . S
C196 C51 1.484 . S
C231 C65 1.484 . S
C246 C79 1.484 . S
C281 C93 1.484 . S
C296 C107 1.484 . S
C331 C8 1.254 . S
C346 C50 1.255 . S
C381 C36 1.254 . S
C396 C22 1.254 . S
C431 C35 1.391 . S
C446 C21 1.391 . S
C481 C7 1.391 . S
C496 C49 1.391 . S
C531 C64 1.255 . S
C546 C106 1.255 . S
C581 C92 1.254 . S
C596 C78 1.254 . S
C631 C77 1.391 . S
C646 C91 1.391 . S
C681 C63 1.391 . S
C696 C105 1.391 . S
C731 C76 1.520 . S
C746 C6 1.520 . S
C781 C62 1.520 . S
C796 C20 1.520 . S
C831 C34 1.521 . S
C846 C104 1.521 . S
C881 C90 1.520 . S
C896 C48 1.520 . S
