# Generated by pormake.
# Topology wnd, (6)-cn, num edge types: 1
# Building blocks:
#     Node 0, Type 0, BuildingBlock: BETDAH_clean_sbu_0, # of connection points: 6
#     Node 1, Type 0, BuildingBlock: BETDAH_clean_sbu_0, # of connection points: 6
#     Node 2, Type 0, BuildingBlock: BETDAH_clean_sbu_0, # of connection points: 6
#     Node 3, Type 0, BuildingBlock: BETDAH_clean_sbu_0, # of connection points: 6
#     Node 4, Type 0, BuildingBlock: BETDAH_clean_sbu_0, # of connection points: 6
#     Node 5, Type 0, BuildingBlock: BETDAH_clean_sbu_0, # of connection points: 6
#     Node 6, Type 0, BuildingBlock: BETDAH_clean_sbu_0, # of connection points: 6
#     Node 7, Type 0, BuildingBlock: BETDAH_clean_sbu_0, # of connection points: 6
#     Node 8, Type 0, BuildingBlock: BETDAH_clean_sbu_0, # of connection points: 6
#     Node 9, Type 0, BuildingBlock: BETDAH_clean_sbu_0, # of connection points: 6
#     Node 10, Type 0, BuildingBlock: BETDAH_clean_sbu_0, # of connection points: 6
#     Node 11, Type 0, BuildingBlock: BETDAH_clean_sbu_0, # of connection points: 6
#     Node 12, Type 0, BuildingBlock: BETDAH_clean_sbu_0, # of connection points: 6
#     Node 13, Type 0, BuildingBlock: BETDAH_clean_sbu_0, # of connection points: 6
#     Node 14, Type 0, BuildingBlock: BETDAH_clean_sbu_0, # of connection points: 6
#     Node 15, Type 0, BuildingBlock: BETDAH_clean_sbu_0, # of connection points: 6
#     Node 16, Type 0, BuildingBlock: BETDAH_clean_sbu_0, # of connection points: 6
#     Node 17, Type 0, BuildingBlock: BETDAH_clean_sbu_0, # of connection points: 6
#     Node 18, Type 0, BuildingBlock: BETDAH_clean_sbu_0, # of connection points: 6
#     Node 19, Type 0, BuildingBlock: BETDAH_clean_sbu_0, # of connection points: 6
#     Node 20, Type 0, BuildingBlock: BETDAH_clean_sbu_0, # of connection points: 6
#     Node 21, Type 0, BuildingBlock: BETDAH_clean_sbu_0, # of connection points: 6
#     Node 22, Type 0, BuildingBlock: BETDAH_clean_sbu_0, # of connection points: 6
#     Node 23, Type 0, BuildingBlock: BETDAH_clean_sbu_0, # of connection points: 6
#     Node 24, Type 0, BuildingBlock: BETDAH_clean_sbu_0, # of connection points: 6
#     Node 25, Type 0, BuildingBlock: BETDAH_clean_sbu_0, # of connection points: 6
#     Node 26, Type 0, BuildingBlock: BETDAH_clean_sbu_0, # of connection points: 6
#     Node 27, Type 0, BuildingBlock: BETDAH_clean_sbu_0, # of connection points: 6
#     Node 28, Type 0, BuildingBlock: BETDAH_clean_sbu_0, # of connection points: 6
#     Node 29, Type 0, BuildingBlock: BETDAH_clean_sbu_0, # of connection points: 6
#     Node 30, Type 0, BuildingBlock: BETDAH_clean_sbu_0, # of connection points: 6
#     Node 31, Type 0, BuildingBlock: BETDAH_clean_sbu_0, # of connection points: 6
#     Node 32, Type 0, BuildingBlock: BETDAH_clean_sbu_0, # of connection points: 6
#     Node 33, Type 0, BuildingBlock: BETDAH_clean_sbu_0, # of connection points: 6
#     Node 34, Type 0, BuildingBlock: BETDAH_clean_sbu_0, # of connection points: 6
#     Node 35, Type 0, BuildingBlock: BETDAH_clean_sbu_0, # of connection points: 6
#     Edge 36, Type (0, 0), BuildingBlock: UVAHIK_clean_linker_0, # of connection points: 2
#     Edge 37, Type (0, 0), BuildingBlock: UVAHIK_clean_linker_0, # of connection points: 2
#     Edge 38, Type (0, 0), BuildingBlock: UVAHIK_clean_linker_0, # of connection points: 2
#     Edge 39, Type (0, 0), BuildingBlock: UVAHIK_clean_linker_0, # of connection points: 2
#     Edge 40, Type (0, 0), BuildingBlock: UVAHIK_clean_linker_0, # of connection points: 2
#     Edge 41, Type (0, 0), BuildingBlock: UVAHIK_clean_linker_0, # of connection points: 2
#     Edge 42, Type (0, 0), BuildingBlock: UVAHIK_clean_linker_0, # of connection points: 2
#     Edge 43, Type (0, 0), BuildingBlock: UVAHIK_clean_linker_0, # of connection points: 2
#     Edge 44, Type (0, 0), BuildingBlock: UVAHIK_clean_linker_0, # of connection points: 2
#     Edge 45, Type (0, 0), BuildingBlock: UVAHIK_clean_linker_0, # of connection points: 2
#     Edge 46, Type (0, 0), BuildingBlock: UVAHIK_clean_linker_0, # of connection points: 2
#     Edge 47, Type (0, 0), BuildingBlock: UVAHIK_clean_linker_0, # of connection points: 2
#     Edge 48, Type (0, 0), BuildingBlock: UVAHIK_clean_linker_0, # of connection points: 2
#     Edge 49, Type (0, 0), BuildingBlock: UVAHIK_clean_linker_0, # of connection points: 2
#     Edge 50, Type (0, 0), BuildingBlock: UVAHIK_clean_linker_0, # of connection points: 2
#     Edge 51, Type (0, 0), BuildingBlock: UVAHIK_clean_linker_0, # of connection points: 2
#     Edge 52, Type (0, 0), BuildingBlock: UVAHIK_clean_linker_0, # of connection points: 2
#     Edge 53, Type (0, 0), BuildingBlock: UVAHIK_clean_linker_0, # of connection points: 2
#     Edge 54, Type (0, 0), BuildingBlock: UVAHIK_clean_linker_0, # of connection points: 2
#     Edge 55, Type (0, 0), BuildingBlock: UVAHIK_clean_linker_0, # of connection points: 2
#     Edge 56, Type (0, 0), BuildingBlock: UVAHIK_clean_linker_0, # of connection points: 2
#     Edge 57, Type (0, 0), BuildingBlock: UVAHIK_clean_linker_0, # of connection points: 2
#     Edge 58, Type (0, 0), BuildingBlock: UVAHIK_clean_linker_0, # of connection points: 2
#     Edge 59, Type (0, 0), BuildingBlock: UVAHIK_clean_linker_0, # of connection points: 2
#     Edge 60, Type (0, 0), BuildingBlock: UVAHIK_clean_linker_0, # of connection points: 2
#     Edge 61, Type (0, 0), BuildingBlock: UVAHIK_clean_linker_0, # of connection points: 2
#     Edge 62, Type (0, 0), BuildingBlock: UVAHIK_clean_linker_0, # of connection points: 2
#     Edge 63, Type (0, 0), BuildingBlock: UVAHIK_clean_linker_0, # of connection points: 2
#     Edge 64, Type (0, 0), BuildingBlock: UVAHIK_clean_linker_0, # of connection points: 2
#     Edge 65, Type (0, 0), BuildingBlock: UVAHIK_clean_linker_0, # of connection points: 2
#     Edge 66, Type (0, 0), BuildingBlock: UVAHIK_clean_linker_0, # of connection points: 2
#     Edge 67, Type (0, 0), BuildingBlock: UVAHIK_clean_linker_0, # of connection points: 2
#     Edge 68, Type (0, 0), BuildingBlock: UVAHIK_clean_linker_0, # of connection points: 2
#     Edge 69, Type (0, 0), BuildingBlock: UVAHIK_clean_linker_0, # of connection points: 2
#     Edge 70, Type (0, 0), BuildingBlock: UVAHIK_clean_linker_0, # of connection points: 2
#     Edge 71, Type (0, 0), BuildingBlock: UVAHIK_clean_linker_0, # of connection points: 2
#     Edge 72, Type (0, 0), BuildingBlock: UVAHIK_clean_linker_0, # of connection points: 2
#     Edge 73, Type (0, 0), BuildingBlock: UVAHIK_clean_linker_0, # of connection points: 2
#     Edge 74, Type (0, 0), BuildingBlock: UVAHIK_clean_linker_0, # of connection points: 2
#     Edge 75, Type (0, 0), BuildingBlock: UVAHIK_clean_linker_0, # of connection points: 2
#     Edge 76, Type (0, 0), BuildingBlock: UVAHIK_clean_linker_0, # of connection points: 2
#     Edge 77, Type (0, 0), BuildingBlock: UVAHIK_clean_linker_0, # of connection points: 2
#     Edge 78, Type (0, 0), BuildingBlock: UVAHIK_clean_linker_0, # of connection points: 2
#     Edge 79, Type (0, 0), BuildingBlock: UVAHIK_clean_linker_0, # of connection points: 2
#     Edge 80, Type (0, 0), BuildingBlock: UVAHIK_clean_linker_0, # of connection points: 2
#     Edge 81, Type (0, 0), BuildingBlock: UVAHIK_clean_linker_0, # of connection points: 2
#     Edge 82, Type (0, 0), BuildingBlock: UVAHIK_clean_linker_0, # of connection points: 2
#     Edge 83, Type (0, 0), BuildingBlock: UVAHIK_clean_linker_0, # of connection points: 2
#     Edge 84, Type (0, 0), BuildingBlock: UVAHIK_clean_linker_0, # of connection points: 2
#     Edge 85, Type (0, 0), BuildingBlock: UVAHIK_clean_linker_0, # of connection points: 2
#     Edge 86, Type (0, 0), BuildingBlock: UVAHIK_clean_linker_0, # of connection points: 2
#     Edge 87, Type (0, 0), BuildingBlock: UVAHIK_clean_linker_0, # of connection points: 2
#     Edge 88, Type (0, 0), BuildingBlock: UVAHIK_clean_linker_0, # of connection points: 2
#     Edge 89, Type (0, 0), BuildingBlock: UVAHIK_clean_linker_0, # of connection points: 2
#     Edge 90, Type (0, 0), BuildingBlock: UVAHIK_clean_linker_0, # of connection points: 2
#     Edge 91, Type (0, 0), BuildingBlock: UVAHIK_clean_linker_0, # of connection points: 2
#     Edge 92, Type (0, 0), BuildingBlock: UVAHIK_clean_linker_0, # of connection points: 2
#     Edge 93, Type (0, 0), BuildingBlock: UVAHIK_clean_linker_0, # of connection points: 2
#     Edge 94, Type (0, 0), BuildingBlock: UVAHIK_clean_linker_0, # of connection points: 2
#     Edge 95, Type (0, 0), BuildingBlock: UVAHIK_clean_linker_0, # of connection points: 2
#     Edge 96, Type (0, 0), BuildingBlock: UVAHIK_clean_linker_0, # of connection points: 2
#     Edge 97, Type (0, 0), BuildingBlock: UVAHIK_clean_linker_0, # of connection points: 2
#     Edge 98, Type (0, 0), BuildingBlock: UVAHIK_clean_linker_0, # of connection points: 2
#     Edge 99, Type (0, 0), BuildingBlock: UVAHIK_clean_linker_0, # of connection points: 2
#     Edge 100, Type (0, 0), BuildingBlock: UVAHIK_clean_linker_0, # of connection points: 2
#     Edge 101, Type (0, 0), BuildingBlock: UVAHIK_clean_linker_0, # of connection points: 2
#     Edge 102, Type (0, 0), BuildingBlock: UVAHIK_clean_linker_0, # of connection points: 2
#     Edge 103, Type (0, 0), BuildingBlock: UVAHIK_clean_linker_0, # of connection points: 2
#     Edge 104, Type (0, 0), BuildingBlock: UVAHIK_clean_linker_0, # of connection points: 2
#     Edge 105, Type (0, 0), BuildingBlock: UVAHIK_clean_linker_0, # of connection points: 2
#     Edge 106, Type (0, 0), BuildingBlock: UVAHIK_clean_linker_0, # of connection points: 2
#     Edge 107, Type (0, 0), BuildingBlock: UVAHIK_clean_linker_0, # of connection points: 2
#     Edge 108, Type (0, 0), BuildingBlock: UVAHIK_clean_linker_0, # of connection points: 2
#     Edge 109, Type (0, 0), BuildingBlock: UVAHIK_clean_linker_0, # of connection points: 2
#     Edge 110, Type (0, 0), BuildingBlock: UVAHIK_clean_linker_0, # of connection points: 2
#     Edge 111, Type (0, 0), BuildingBlock: UVAHIK_clean_linker_0, # of connection points: 2
#     Edge 112, Type (0, 0), BuildingBlock: UVAHIK_clean_linker_0, # of connection points: 2
#     Edge 113, Type (0, 0), BuildingBlock: UVAHIK_clean_linker_0, # of connection points: 2
#     Edge 114, Type (0, 0), BuildingBlock: UVAHIK_clean_linker_0, # of connection points: 2
#     Edge 115, Type (0, 0), BuildingBlock: UVAHIK_clean_linker_0, # of connection points: 2
#     Edge 116, Type (0, 0), BuildingBlock: UVAHIK_clean_linker_0, # of connection points: 2
#     Edge 117, Type (0, 0), BuildingBlock: UVAHIK_clean_linker_0, # of connection points: 2
#     Edge 118, Type (0, 0), BuildingBlock: UVAHIK_clean_linker_0, # of connection points: 2
#     Edge 119, Type (0, 0), BuildingBlock: UVAHIK_clean_linker_0, # of connection points: 2
#     Edge 120, Type (0, 0), BuildingBlock: UVAHIK_clean_linker_0, # of connection points: 2
#     Edge 121, Type (0, 0), BuildingBlock: UVAHIK_clean_linker_0, # of connection points: 2
#     Edge 122, Type (0, 0), BuildingBlock: UVAHIK_clean_linker_0, # of connection points: 2
#     Edge 123, Type (0, 0), BuildingBlock: UVAHIK_clean_linker_0, # of connection points: 2
#     Edge 124, Type (0, 0), BuildingBlock: UVAHIK_clean_linker_0, # of connection points: 2
#     Edge 125, Type (0, 0), BuildingBlock: UVAHIK_clean_linker_0, # of connection points: 2
#     Edge 126, Type (0, 0), BuildingBlock: UVAHIK_clean_linker_0, # of connection points: 2
#     Edge 127, Type (0, 0), BuildingBlock: UVAHIK_clean_linker_0, # of connection points: 2
#     Edge 128, Type (0, 0), BuildingBlock: UVAHIK_clean_linker_0, # of connection points: 2
#     Edge 129, Type (0, 0), BuildingBlock: UVAHIK_clean_linker_0, # of connection points: 2
#     Edge 130, Type (0, 0), BuildingBlock: UVAHIK_clean_linker_0, # of connection points: 2
#     Edge 131, Type (0, 0), BuildingBlock: UVAHIK_clean_linker_0, # of connection points: 2
#     Edge 132, Type (0, 0), BuildingBlock: UVAHIK_clean_linker_0, # of connection points: 2
#     Edge 133, Type (0, 0), BuildingBlock: UVAHIK_clean_linker_0, # of connection points: 2
#     Edge 134, Type (0, 0), BuildingBlock: UVAHIK_clean_linker_0, # of connection points: 2
#     Edge 135, Type (0, 0), BuildingBlock: UVAHIK_clean_linker_0, # of connection points: 2
#     Edge 136, Type (0, 0), BuildingBlock: UVAHIK_clean_linker_0, # of connection points: 2
#     Edge 137, Type (0, 0), BuildingBlock: UVAHIK_clean_linker_0, # of connection points: 2
#     Edge 138, Type (0, 0), BuildingBlock: UVAHIK_clean_linker_0, # of connection points: 2
#     Edge 139, Type (0, 0), BuildingBlock: UVAHIK_clean_linker_0, # of connection points: 2
#     Edge 140, Type (0, 0), BuildingBlock: UVAHIK_clean_linker_0, # of connection points: 2
#     Edge 141, Type (0, 0), BuildingBlock: UVAHIK_clean_linker_0, # of connection points: 2
#     Edge 142, Type (0, 0), BuildingBlock: UVAHIK_clean_linker_0, # of connection points: 2
#     Edge 143, Type (0, 0), BuildingBlock: UVAHIK_clean_linker_0, # of connection points: 2
# Relax obj value: 0.096
# Max RMSD: 0.194
# Mean RMSD: 0.194
data_MOF--net-wnd--node1-BETDAH_clean_sbu_0--edge1-UVAHIK_clean_linker_0
_symmetry_space_group_name_H-M    P1
_symmetry_Int_Tables_number       1
_symmetry_cell_setting            triclinic
loop_
_symmetry_equiv_pos_as_xyz
'x, y, z'
_cell_length_a     49.414197
_cell_length_b     49.376276
_cell_length_c     203.05744
_cell_angle_alpha  89.942255
_cell_angle_beta   90.074592
_cell_angle_gamma 120.00328
loop_
_atom_site_label
_atom_site_type_symbol
_atom_site_fract_x
_atom_site_fract_y
_atom_site_fract_z
_atom_type_partial_charge
Ho0 Ho 0.48553 0.06551 0.05997 0.0
Ho1 Ho 0.52225 0.0281 0.06176 0.0
C2 C 0.56202 0.10186 0.06033 0.0
C3 C 0.46283 0.10074 0.06315 0.0
C4 C 0.47319 0.13394 0.06202 0.0
C5 C 0.4574 0.14748 0.06505 0.0
C6 C 0.46917 0.17976 0.06463 0.0
C7 C 0.49709 0.19913 0.0612 0.0
C8 C 0.51254 0.18527 0.05807 0.0
C9 C 0.50069 0.15296 0.05847 0.0
C10 C 0.50686 0.05908 0.04814 0.0
C11 C 0.4479 0.99053 0.05843 0.0
C12 C 0.54763 0.99315 0.06199 0.0
C13 C 0.54734 0.96417 0.05995 0.0
C14 C 0.57283 0.96681 0.05636 0.0
C15 C 0.57659 0.94083 0.05541 0.0
C16 C 0.55498 0.91148 0.05805 0.0
C17 C 0.5286 0.90849 0.06137 0.0
C18 C 0.52487 0.93457 0.06233 0.0
C19 C 0.5056 0.04835 0.07267 0.0
O20 O 0.53629 0.1032 0.06155 0.0
O21 O 0.56176 0.07528 0.05944 0.0
O22 O 0.45332 0.08231 0.05798 0.0
O23 O 0.48142 0.09597 0.06696 0.0
O24 O 0.49099 0.07325 0.04902 0.0
O25 O 0.51027 0.04929 0.05364 0.0
O26 O 0.47516 0.99141 0.05802 0.0
O27 O 0.44558 0.0156 0.05987 0.0
O28 O 0.52695 0.99106 0.0663 0.0
O29 O 0.5546 0.01511 0.0576 0.0
O30 O 0.53224 0.04935 0.0721 0.0
O31 O 0.49 0.03677 0.06754 0.0
H32 H 0.43641 0.13322 0.06789 0.0
H33 H 0.45689 0.18965 0.06719 0.0
H34 H 0.53388 0.1994 0.05533 0.0
H35 H 0.51337 0.14291 0.05615 0.0
H36 H 0.59067 0.98935 0.05453 0.0
H37 H 0.59688 0.94391 0.05273 0.0
H38 H 0.51158 0.88631 0.0635 0.0
H39 H 0.50509 0.93176 0.06517 0.0
Ho40 Ho 0.02135 0.45466 0.06061 0.0
Ho41 Ho 0.06308 0.52857 0.06192 0.0
C42 C 0.98959 0.49926 0.06104 0.0
C43 C 0.98423 0.39777 0.06427 0.0
C44 C 0.95079 0.37474 0.06335 0.0
C45 C 0.93244 0.3602 0.06893 0.0
C46 C 0.90012 0.34071 0.06835 0.0
C47 C 0.88548 0.33515 0.06217 0.0
C48 C 0.90398 0.34911 0.05656 0.0
C49 C 0.93633 0.36893 0.05715 0.0
C50 C 0.02791 0.48104 0.04859 0.0
C51 C 0.09567 0.48762 0.05847 0.0
C52 C 0.10118 0.58842 0.06193 0.0
C53 C 0.1299 0.61655 0.05956 0.0
C54 C 0.12702 0.63859 0.05569 0.0
C55 C 0.15283 0.66824 0.05454 0.0
C56 C 0.18222 0.67672 0.05726 0.0
C57 C 0.18548 0.6541 0.06085 0.0
C58 C 0.15959 0.62439 0.06201 0.0
C59 C 0.04257 0.49338 0.07311 0.0
O60 O 0.98622 0.47122 0.0622 0.0
O61 O 0.01706 0.52423 0.05995 0.0
O62 O 1.00281 0.40496 0.05914 0.0
O63 O 0.98963 0.4222 0.06777 0.0
O64 O 1.01228 0.45114 0.0497 0.0
O65 O 0.03912 0.49496 0.05398 0.0
O66 O 0.09629 0.51461 0.05771 0.0
O67 O 0.07022 0.46163 0.06043 0.0
O68 O 0.10383 0.56898 0.06592 0.0
O69 O 0.07714 0.57451 0.05795 0.0
O70 O 0.04359 0.51998 0.07241 0.0
O71 O 0.05251 0.48761 0.06795 0.0
H72 H 0.94307 0.3645 0.07377 0.0
H73 H 0.88656 0.33001 0.07275 0.0
H74 H 0.8933 0.34542 0.05173 0.0
H75 H 0.94987 0.38019 0.05277 0.0
H76 H 0.10442 0.63344 0.0538 0.0
H77 H 0.14956 0.68487 0.05166 0.0
H78 H 0.20769 0.65985 0.06305 0.0
H79 H 0.16261 0.60816 0.06509 0.0
Ho80 Ho 0.63164 0.60161 0.06079 0.0
Ho81 Ho 0.55831 0.56798 0.06303 0.0
C82 C 0.58877 0.52505 0.06149 0.0
C83 C 0.68968 0.62311 0.06373 0.0
C84 C 0.71233 0.61264 0.0625 0.0
C85 C 0.74256 0.62972 0.0651 0.0
C86 C 0.76329 0.6183 0.06457 0.0
C87 C 0.75409 0.58947 0.06147 0.0
C88 C 0.72383 0.57268 0.05877 0.0
C89 C 0.70314 0.58418 0.05929 0.0
C90 C 0.60243 0.58046 0.04909 0.0
C91 C 0.5968 0.64196 0.05947 0.0
C92 C 0.49834 0.5444 0.06383 0.0
C93 C 0.46961 0.54597 0.06259 0.0
C94 C 0.45874 0.54624 0.0562 0.0
C95 C 0.42886 0.54242 0.05524 0.0
C96 C 0.4092 0.53786 0.06066 0.0
C97 C 0.42072 0.53883 0.06704 0.0
C98 C 0.45051 0.54283 0.06798 0.0
C99 C 0.59679 0.58428 0.07371 0.0
O100 O 0.6168 0.55019 0.06237 0.0
O101 O 0.5632 0.52686 0.0608 0.0
O102 O 0.68063 0.63284 0.05861 0.0
O103 O 0.66649 0.60464 0.06758 0.0
O104 O 0.63254 0.59543 0.04987 0.0
O105 O 0.5897 0.57773 0.05464 0.0
O106 O 0.56968 0.61537 0.05936 0.0
O107 O 0.62387 0.64308 0.06065 0.0
O108 O 0.51793 0.56288 0.06831 0.0
O109 O 0.51213 0.53905 0.0589 0.0
O110 O 0.57072 0.55795 0.07327 0.0
O111 O 0.60054 0.59969 0.06856 0.0
H112 H 0.74989 0.65151 0.06767 0.0
H113 H 0.78622 0.63163 0.06679 0.0
H114 H 0.71609 0.55059 0.05629 0.0
H115 H 0.67974 0.57056 0.0573 0.0
H116 H 0.47282 0.54833 0.05194 0.0
H117 H 0.42064 0.54171 0.05027 0.0
H118 H 0.40643 0.53592 0.07131 0.0
H119 H 0.45817 0.54225 0.07296 0.0
Ho120 Ho 0.06856 0.47856 0.47053 0.0
Ho121 Ho 0.03023 0.51409 0.4687 0.0
C122 C 0.10386 0.55528 0.47035 0.0
C123 C 0.1048 0.457 0.46739 0.0
C124 C 0.13796 0.46769 0.46864 0.0
C125 C 0.15125 0.45042 0.46623 0.0
C126 C 0.18347 0.46217 0.46676 0.0
C127 C 0.20299 0.49156 0.46966 0.0
C128 C 0.1894 0.50851 0.47219 0.0
C129 C 0.15716 0.49662 0.4717 0.0
C130 C 0.06007 0.49778 0.48244 0.0
C131 C 0.99334 0.43932 0.47153 0.0
C132 C 0.99479 0.53888 0.46846 0.0
C133 C 0.96542 0.53804 0.47038 0.0
C134 C 0.96702 0.56155 0.47453 0.0
C135 C 0.94105 0.56539 0.47539 0.0
C136 C 0.9128 0.54588 0.4721 0.0
C137 C 0.91075 0.52136 0.46819 0.0
C138 C 0.93678 0.51754 0.46732 0.0
C139 C 0.05203 0.49899 0.45781 0.0
O140 O 0.10599 0.52982 0.46932 0.0
O141 O 0.07682 0.55421 0.47105 0.0
O142 O 0.08593 0.44676 0.47249 0.0
O143 O 0.10001 0.47573 0.46363 0.0
O144 O 0.07458 0.48228 0.48152 0.0
O145 O 0.05084 0.50192 0.47692 0.0
O146 O 0.99355 0.46623 0.47208 0.0
O147 O 0.01899 0.43788 0.4702 0.0
O148 O 0.99357 0.519 0.46404 0.0
O149 O 0.01611 0.54532 0.47299 0.0
O150 O 0.05232 0.52528 0.45843 0.0
O151 O 0.04022 0.48291 0.46287 0.0
H152 H 0.13684 0.42822 0.46379 0.0
H153 H 0.19323 0.44869 0.4647 0.0
H154 H 0.20371 0.53101 0.47452 0.0
H155 H 0.14729 0.51036 0.47358 0.0
H156 H 0.98884 0.57794 0.47689 0.0
H157 H 0.94335 0.58418 0.47852 0.0
H158 H 0.88947 0.50603 0.46554 0.0
H159 H 0.9348 0.4994 0.46403 0.0
Ho160 Ho 0.60519 0.62701 0.47059 0.0
Ho161 Ho 0.56914 0.55187 0.46982 0.0
C162 C 0.52902 0.58521 0.47111 0.0
C163 C 0.62528 0.68351 0.46663 0.0
C164 C 0.6151 0.70667 0.46758 0.0
C165 C 0.61266 0.72253 0.46208 0.0
C166 C 0.5998 0.742 0.46269 0.0
C167 C 0.5893 0.74614 0.46884 0.0
C168 C 0.59242 0.73078 0.47438 0.0
C169 C 0.60499 0.71103 0.47375 0.0
C170 C 0.58507 0.60142 0.48271 0.0
C171 C 0.64539 0.59111 0.47126 0.0
C172 C 0.54491 0.49228 0.47171 0.0
C173 C 0.54714 0.46392 0.47035 0.0
C174 C 0.56336 0.45482 0.47469 0.0
C175 C 0.56085 0.4254 0.47411 0.0
C176 C 0.54188 0.40424 0.46921 0.0
C177 C 0.52667 0.41386 0.46471 0.0
C178 C 0.52917 0.44327 0.46529 0.0
C179 C 0.58526 0.58492 0.45833 0.0
O180 O 0.55367 0.61166 0.46907 0.0
O181 O 0.53135 0.5608 0.47293 0.0
O182 O 0.63718 0.67669 0.47173 0.0
O183 O 0.60565 0.6588 0.46326 0.0
O184 O 0.60114 0.63136 0.48162 0.0
O185 O 0.58103 0.58782 0.47725 0.0
O186 O 0.61892 0.56379 0.47125 0.0
O187 O 0.64636 0.61851 0.47062 0.0
O188 O 0.53676 0.5043 0.46687 0.0
O189 O 0.56556 0.51355 0.47566 0.0
O190 O 0.56008 0.55787 0.45899 0.0
O191 O 0.60043 0.59142 0.46359 0.0
H192 H 0.62004 0.71925 0.45727 0.0
H193 H 0.598 0.75376 0.45835 0.0
H194 H 0.58426 0.73329 0.47916 0.0
H195 H 0.60611 0.69864 0.47805 0.0
H196 H 0.57696 0.46988 0.47872 0.0
H197 H 0.57261 0.4187 0.47771 0.0
H198 H 0.51224 0.39837 0.46082 0.0
H199 H 0.51604 0.44933 0.46191 0.0
Ho200 Ho 0.46171 0.01742 0.47296 0.0
Ho201 Ho 0.53194 0.05072 0.47107 0.0
C202 C 0.49837 0.97802 0.47259 0.0
C203 C 0.40219 0.97871 0.47222 0.0
C204 C 0.3821 0.9443 0.47203 0.0
C205 C 0.38846 0.92569 0.46777 0.0
C206 C 0.36899 0.89313 0.46769 0.0
C207 C 0.34286 0.87846 0.47189 0.0
C208 C 0.33696 0.89726 0.4762 0.0
C209 C 0.35627 0.92975 0.47624 0.0
C210 C 0.49459 0.03825 0.48425 0.0
C211 C 0.49678 0.0917 0.47195 0.0
C212 C 0.59242 0.0848 0.47176 0.0
C213 C 0.62065 0.11602 0.47078 0.0
C214 C 0.62994 0.13974 0.47554 0.0
C215 C 0.6594 0.16683 0.47519 0.0
C216 C 0.68043 0.17085 0.4701 0.0
C217 C 0.67054 0.14768 0.4652 0.0
C218 C 0.64112 0.1206 0.46555 0.0
C219 C 0.49638 0.03038 0.45993 0.0
O220 O 0.47236 0.97814 0.47106 0.0
O221 O 0.52423 1.00412 0.47401 0.0
O222 O 0.41678 0.99049 0.47777 0.0
O223 O 0.41983 0.99212 0.46709 0.0
O224 O 0.46912 0.03871 0.48295 0.0
O225 O 0.50112 0.02577 0.47952 0.0
O226 O 0.52309 0.0909 0.47255 0.0
O227 O 0.46933 0.06581 0.47123 0.0
O228 O 0.57756 0.06838 0.46657 0.0
O229 O 0.57359 0.08123 0.47663 0.0
O230 O 0.5217 0.029 0.46078 0.0
O231 O 0.49236 0.04325 0.46485 0.0
H232 H 0.40839 0.93626 0.46449 0.0
H233 H 0.37416 0.87954 0.46427 0.0
H234 H 0.31752 0.88687 0.47961 0.0
H235 H 0.35106 0.94358 0.4796 0.0
H236 H 0.61502 0.13687 0.4797 0.0
H237 H 0.66621 0.18394 0.4791 0.0
H238 H 0.68582 0.15015 0.46114 0.0
H239 H 0.63489 0.10265 0.46184 0.0
Ho240 Ho 0.57181 0.05257 0.96841 0.0
Ho241 Ho 0.60463 0.01152 0.96996 0.0
C242 C 0.64514 0.08582 0.97213 0.0
C243 C 0.54998 0.09062 0.96811 0.0
C244 C 0.54972 0.11891 0.97052 0.0
C245 C 0.52458 0.11537 0.97439 0.0
C246 C 0.52004 0.14076 0.97556 0.0
C247 C 0.54046 0.17038 0.97287 0.0
C248 C 0.56652 0.17428 0.96927 0.0
C249 C 0.57103 0.14883 0.96808 0.0
C250 C 0.58705 0.03188 0.95733 0.0
C251 C 0.52839 0.97919 0.96982 0.0
C252 C 0.62457 0.97435 0.96645 0.0
C253 C 0.61403 0.94087 0.96742 0.0
C254 C 0.61105 0.9225 0.9619 0.0
C255 C 0.59808 0.89015 0.96251 0.0
C256 C 0.588 0.87547 0.96867 0.0
C257 C 0.59171 0.894 0.97423 0.0
C258 C 0.6044 0.9264 0.97361 0.0
C259 C 0.58493 0.01884 0.9819 0.0
O260 O 0.61853 0.08601 0.97282 0.0
O261 O 0.64617 0.06063 0.97016 0.0
O262 O 0.5733 0.09402 0.96445 0.0
O263 O 0.53866 0.06586 0.97191 0.0
O264 O 0.56125 0.03248 0.95795 0.0
O265 O 0.60262 0.04215 0.96251 0.0
O266 O 0.55298 0.97601 0.96847 0.0
O267 O 0.53064 1.00664 0.97079 0.0
O268 O 0.63574 0.99305 0.97157 0.0
O269 O 0.60573 0.97972 0.96286 0.0
O270 O 0.59932 1.00326 0.98089 0.0
O271 O 0.58198 0.0295 0.97645 0.0
H272 H 0.50749 0.09258 0.97626 0.0
H273 H 0.50003 0.13697 0.97845 0.0
H274 H 0.58261 0.19666 0.96708 0.0
H275 H 0.59039 0.15236 0.965 0.0
H276 H 0.61813 0.93314 0.95708 0.0
H277 H 0.59587 0.87657 0.95815 0.0
H278 H 0.58395 0.88332 0.97903 0.0
H279 H 0.60601 0.93995 0.97794 0.0
Ho280 Ho 0.02546 0.55028 0.96849 0.0
Ho281 Ho 0.06643 0.62421 0.97024 0.0
C282 C 0.99146 0.59039 0.9719 0.0
C283 C 0.98842 0.49027 0.96825 0.0
C284 C 0.95796 0.46169 0.96951 0.0
C285 C 0.94788 0.44991 0.9759 0.0
C286 C 0.92187 0.41994 0.97682 0.0
C287 C 0.9058 0.40106 0.97136 0.0
C288 C 0.91521 0.41349 0.96501 0.0
C289 C 0.94092 0.44338 0.9641 0.0
C290 C 0.04563 0.58697 0.95754 0.0
C291 C 0.09905 0.58036 0.96907 0.0
C292 C 0.10341 0.68154 0.96684 0.0
C293 C 0.1369 0.70469 0.9677 0.0
C294 C 0.15519 0.71861 0.96208 0.0
C295 C 0.18742 0.73869 0.96263 0.0
C296 C 0.20207 0.74554 0.96883 0.0
C297 C 0.18365 0.73209 0.97447 0.0
C298 C 0.15137 0.71167 0.97392 0.0
C299 C 0.06039 0.59631 0.98205 0.0
O300 O 0.99042 0.56302 0.97217 0.0
O301 O 0.01747 0.61708 0.97051 0.0
O302 O 0.99005 0.50899 0.9635 0.0
O303 O 1.00732 0.50496 0.97317 0.0
O304 O 0.04511 0.56053 0.95804 0.0
O305 O 0.03553 0.592 0.96277 0.0
O306 O 0.10208 0.60856 0.96842 0.0
O307 O 0.07185 0.55479 0.96999 0.0
O308 O 0.08505 0.67373 0.97201 0.0
O309 O 0.0979 0.65752 0.96317 0.0
O310 O 0.0755 0.62636 0.98112 0.0
O311 O 0.04927 0.58303 0.97659 0.0
H312 H 0.96072 0.46329 0.98017 0.0
H313 H 0.91524 0.41098 0.98178 0.0
H314 H 0.90306 0.39978 0.96071 0.0
H315 H 0.94831 0.45165 0.95911 0.0
H316 H 0.14456 0.7135 0.95723 0.0
H317 H 0.20089 0.749 0.9582 0.0
H318 H 0.19433 0.73681 0.97931 0.0
H319 H 0.13791 0.701 0.97833 0.0
Ho320 Ho 0.5286 0.51112 0.96965 0.0
Ho321 Ho 0.45421 0.47426 0.97114 0.0
C322 C 0.49106 0.43537 0.97207 0.0
C323 C 0.58903 0.53724 0.97025 0.0
C324 C 0.61724 0.53381 0.97036 0.0
C325 C 0.62739 0.52629 0.9762 0.0
C326 C 0.65695 0.52887 0.97654 0.0
C327 C 0.67717 0.53924 0.97107 0.0
C328 C 0.66643 0.54558 0.96517 0.0
C329 C 0.63693 0.54298 0.96483 0.0
C330 C 0.49273 0.49406 0.95855 0.0
C331 C 0.49476 0.55077 0.97095 0.0
C332 C 0.39657 0.45312 0.96792 0.0
C333 C 0.37479 0.46514 0.96886 0.0
C334 C 0.38553 0.49737 0.96844 0.0
C335 C 0.3647 0.50863 0.9689 0.0
C336 C 0.33258 0.48799 0.96986 0.0
C337 C 0.32201 0.45575 0.97046 0.0
C338 C 0.34292 0.44446 0.96994 0.0
C339 C 0.48126 0.49642 0.98303 0.0
O340 O 0.51803 0.46221 0.9719 0.0
O341 O 0.46337 0.43363 0.97137 0.0
O342 O 0.57346 0.53169 0.96473 0.0
O343 O 0.57093 0.5289 0.97544 0.0
O344 O 0.51843 0.52068 0.95918 0.0
O345 O 0.488 0.4785 0.96373 0.0
O346 O 0.46814 0.52524 0.96935 0.0
O347 O 0.52057 0.55012 0.97226 0.0
O348 O 0.40481 0.44368 0.97321 0.0
O349 O 0.42011 0.46976 0.96397 0.0
O350 O 0.45133 0.48007 0.98207 0.0
O351 O 0.49465 0.49962 0.97756 0.0
H352 H 0.61301 0.51947 0.98059 0.0
H353 H 0.66419 0.52331 0.98114 0.0
H354 H 0.68138 0.55402 0.96087 0.0
H355 H 0.63011 0.54956 0.96029 0.0
H356 H 0.41 0.51394 0.9676 0.0
H357 H 0.37376 0.53349 0.96831 0.0
H358 H 0.29754 0.43918 0.97131 0.0
H359 H 0.33413 0.41954 0.97032 0.0
Ho360 Ho 0.05682 0.56655 0.56222 0.0
Ho361 Ho 0.01664 0.60044 0.56067 0.0
C362 C 0.09155 0.64106 0.55929 0.0
C363 C 0.09392 0.54359 0.56239 0.0
C364 C 0.12306 0.54416 0.56035 0.0
C365 C 0.12099 0.52034 0.55622 0.0
C366 C 0.14677 0.51621 0.55529 0.0
C367 C 0.17533 0.53572 0.55849 0.0
C368 C 0.17786 0.56054 0.56236 0.0
C369 C 0.152 0.56463 0.5633 0.0
C370 C 0.0352 0.58082 0.57328 0.0
C371 C 0.98336 0.52388 0.5606 0.0
C372 C 0.97932 0.62019 0.56418 0.0
C373 C 0.94593 0.60983 0.56319 0.0
C374 C 0.92795 0.60848 0.56866 0.0
C375 C 0.89561 0.59556 0.56809 0.0
C376 C 0.88054 0.58386 0.56202 0.0
C377 C 0.89869 0.58594 0.5565 0.0
C378 C 0.93108 0.5986 0.55709 0.0
C379 C 0.02526 0.58211 0.54867 0.0
O380 O 0.09189 0.61451 0.55855 0.0
O381 O 0.06583 0.64181 0.56093 0.0
O382 O 0.0957 0.56453 0.5666 0.0
O383 O 0.07133 0.5353 0.55809 0.0
O384 O 0.03564 0.55494 0.57258 0.0
O385 O 0.04613 0.59696 0.56819 0.0
O386 O 0.98053 0.54877 0.56186 0.0
O387 O 1.01068 0.52568 0.55977 0.0
O388 O 0.99817 0.6316 0.55909 0.0
O389 O 0.98445 0.60104 0.56772 0.0
O390 O 1.01007 0.5969 0.54968 0.0
O391 O 0.035 0.57819 0.55415 0.0
H392 H 0.09896 0.50392 0.55394 0.0
H393 H 0.14408 0.4972 0.55219 0.0
H394 H 0.19938 0.57589 0.56494 0.0
H395 H 0.15437 0.58296 0.56659 0.0
H396 H 0.93889 0.61676 0.57343 0.0
H397 H 0.88236 0.59463 0.57241 0.0
H398 H 0.88771 0.5769 0.55177 0.0
H399 H 0.94435 0.5989 0.55282 0.0
Ho400 Ho 0.5169 0.52367 0.56159 0.0
Ho401 Ho 0.47893 0.44869 0.56045 0.0
C402 C 0.44056 0.48638 0.55981 0.0
C403 C 0.54255 0.58372 0.56006 0.0
C404 C 0.54071 0.61249 0.56123 0.0
C405 C 0.52608 0.62231 0.55662 0.0
C406 C 0.52922 0.65208 0.55707 0.0
C407 C 0.54726 0.67292 0.56211 0.0
C408 C 0.5609 0.66261 0.56685 0.0
C409 C 0.55776 0.63286 0.5664 0.0
C410 C 0.49916 0.48908 0.57288 0.0
C411 C 0.55522 0.48853 0.56008 0.0
C412 C 0.45767 0.39168 0.56421 0.0
C413 C 0.46803 0.36842 0.56347 0.0
C414 C 0.4752 0.35695 0.56915 0.0
C415 C 0.48771 0.33714 0.56865 0.0
C416 C 0.49304 0.32804 0.56245 0.0
C417 C 0.48509 0.33884 0.55676 0.0
C418 C 0.47288 0.359 0.55726 0.0
C419 C 0.50048 0.47512 0.54846 0.0
O420 O 0.4675 0.51327 0.56007 0.0
O421 O 0.43865 0.45849 0.56028 0.0
O422 O 0.54829 0.57066 0.56508 0.0
O423 O 0.52338 0.56324 0.55578 0.0
O424 O 0.52523 0.51543 0.57234 0.0
O425 O 0.48421 0.48382 0.56761 0.0
O426 O 0.52997 0.46244 0.56204 0.0
O427 O 0.55427 0.51394 0.55847 0.0
O428 O 0.44716 0.39911 0.55896 0.0
O429 O 0.47613 0.416 0.56781 0.0
O430 O 0.48364 0.44515 0.54943 0.0
O431 O 0.50441 0.48845 0.55395 0.0
H432 H 0.51324 0.60752 0.5525 0.0
H433 H 0.51866 0.65924 0.55328 0.0
H434 H 0.57455 0.67778 0.57086 0.0
H435 H 0.56972 0.62628 0.56998 0.0
H436 H 0.4717 0.36387 0.574 0.0
H437 H 0.49319 0.32889 0.57312 0.0
H438 H 0.4891 0.33238 0.55192 0.0
H439 H 0.46784 0.36764 0.55279 0.0
Ho440 Ho 0.55511 0.02329 0.56513 0.0
Ho441 Ho 0.62891 0.06169 0.56238 0.0
C442 C 0.59314 0.98637 0.56215 0.0
C443 C 0.4951 0.98723 0.56606 0.0
C444 C 0.46617 0.95691 0.56492 0.0
C445 C 0.45614 0.94425 0.55859 0.0
C446 C 0.42618 0.91821 0.55765 0.0
C447 C 0.4056 0.90466 0.563 0.0
C448 C 0.41627 0.91671 0.56934 0.0
C449 C 0.44614 0.94245 0.57028 0.0
C450 C 0.59498 0.04792 0.57554 0.0
C451 C 0.5867 0.09623 0.56243 0.0
C452 C 0.68708 0.09982 0.56498 0.0
C453 C 0.70953 0.13347 0.56387 0.0
C454 C 0.7208 0.15353 0.56935 0.0
C455 C 0.74028 0.18572 0.56851 0.0
C456 C 0.74933 0.19867 0.56219 0.0
C457 C 0.73877 0.17854 0.5567 0.0
C458 C 0.7189 0.14624 0.55753 0.0
C459 C 0.59699 0.04869 0.55088 0.0
O460 O 0.56615 0.9862 0.56197 0.0
O461 O 0.62057 0.01237 0.56303 0.0
O462 O 0.51477 0.98868 0.57056 0.0
O463 O 0.50884 1.00585 0.56104 0.0
O464 O 0.56859 0.0476 0.57515 0.0
O465 O 0.59822 0.03518 0.5705 0.0
O466 O 0.61461 0.09889 0.56329 0.0
O467 O 0.56053 0.06903 0.56223 0.0
O468 O 0.6779 0.08078 0.5599 0.0
O469 O 0.66417 0.09421 0.569 0.0
O470 O 0.62731 0.06313 0.55128 0.0
O471 O 0.58604 0.04207 0.55664 0.0
H472 H 0.47097 0.95505 0.55434 0.0
H473 H 0.41865 0.90954 0.55269 0.0
H474 H 0.40126 0.90656 0.57359 0.0
H475 H 0.45316 0.95186 0.57521 0.0
H476 H 0.71411 0.14431 0.57429 0.0
H477 H 0.7484 0.20051 0.57284 0.0
H478 H 0.7453 0.18786 0.55176 0.0
H479 H 0.71058 0.13144 0.55321 0.0
Ho480 Ho 0.15229 0.39366 0.39309 0.0
Ho481 Ho 0.18678 0.35886 0.39607 0.0
C482 C 0.22885 0.4316 0.39417 0.0
C483 C 0.13216 0.43303 0.39324 0.0
C484 C 0.14675 0.46747 0.3932 0.0
C485 C 0.17252 0.48654 0.39724 0.0
C486 C 0.18558 0.5191 0.39718 0.0
C487 C 0.17329 0.53331 0.39307 0.0
C488 C 0.14787 0.51405 0.38895 0.0
C489 C 0.13472 0.48155 0.38904 0.0
C490 C 0.1643 0.36985 0.38232 0.0
C491 C 0.11174 0.31946 0.39393 0.0
C492 C 0.21268 0.32435 0.39691 0.0
C493 C 0.20971 0.29293 0.39685 0.0
C494 C 0.20141 0.27446 0.39112 0.0
C495 C 0.20442 0.24767 0.39087 0.0
C496 C 0.21606 0.23895 0.39632 0.0
C497 C 0.223 0.25674 0.40213 0.0
C498 C 0.21991 0.28338 0.40238 0.0
C499 C 0.17083 0.38253 0.40654 0.0
O500 O 0.20276 0.43298 0.39459 0.0
O501 O 0.22813 0.40467 0.39384 0.0
O502 O 0.13505 0.4203 0.38784 0.0
O503 O 0.13605 0.42033 0.39855 0.0
O504 O 0.13884 0.37081 0.38328 0.0
O505 O 0.18307 0.38263 0.3871 0.0
O506 O 0.13862 0.31976 0.39349 0.0
O507 O 0.11072 0.3456 0.39476 0.0
O508 O 0.20215 0.33241 0.40201 0.0
O509 O 0.20917 0.33588 0.39138 0.0
O510 O 0.19768 0.38398 0.40601 0.0
O511 O 0.15448 0.36858 0.40162 0.0
H512 H 0.18244 0.47631 0.40048 0.0
H513 H 0.20492 0.53304 0.40046 0.0
H514 H 0.13816 0.52408 0.3856 0.0
H515 H 0.11506 0.46735 0.38584 0.0
H516 H 0.19376 0.28132 0.38675 0.0
H517 H 0.19899 0.23463 0.38631 0.0
H518 H 0.23149 0.25044 0.40645 0.0
H519 H 0.22677 0.29729 0.40684 0.0
Ho520 Ho 0.6909 0.7891 0.39307 0.0
Ho521 Ho 0.72567 0.85773 0.39644 0.0
C522 C 0.65339 0.8281 0.39414 0.0
C523 C 0.65126 0.72965 0.3929 0.0
C524 C 0.61683 0.71014 0.39282 0.0
C525 C 0.59788 0.71736 0.39675 0.0
C526 C 0.56531 0.69823 0.39665 0.0
C527 C 0.55099 0.67159 0.39258 0.0
C528 C 0.57014 0.66491 0.38856 0.0
C529 C 0.60265 0.68391 0.3887 0.0
C530 C 0.71562 0.82614 0.38246 0.0
C531 C 0.76484 0.82249 0.39384 0.0
C532 C 0.76031 0.9178 0.39794 0.0
C533 C 0.79142 0.94639 0.39758 0.0
C534 C 0.80916 0.95575 0.39175 0.0
C535 C 0.83595 0.98548 0.3913 0.0
C536 C 0.84528 1.00647 0.39664 0.0
C537 C 0.82814 0.99642 0.40254 0.0
C538 C 0.80157 0.96678 0.40299 0.0
C539 C 0.70017 0.81699 0.4067 0.0
O540 O 0.6517 0.80046 0.39448 0.0
O541 O 0.68042 0.85424 0.39408 0.0
O542 O 0.66416 0.74599 0.38759 0.0
O543 O 0.66393 0.74545 0.39829 0.0
O544 O 0.71437 0.79949 0.38332 0.0
O545 O 0.70274 0.83173 0.38727 0.0
O546 O 0.76439 0.849 0.39342 0.0
O547 O 0.73885 0.7953 0.39474 0.0
O548 O 0.75511 0.89769 0.40264 0.0
O549 O 0.74604 0.90448 0.39244 0.0
O550 O 0.69906 0.84258 0.40617 0.0
O551 O 0.71474 0.81483 0.40187 0.0
H552 H 0.60823 0.73762 0.39995 0.0
H553 H 0.55142 0.70402 0.39985 0.0
H554 H 0.56001 0.64504 0.38525 0.0
H555 H 0.61678 0.67809 0.38557 0.0
H556 H 0.80178 0.9406 0.38748 0.0
H557 H 0.84856 0.99252 0.38668 0.0
H558 H 0.83496 0.01174 0.40678 0.0
H559 H 0.7882 0.96022 0.40752 0.0
Ho560 Ho 0.3003 0.93365 0.39531 0.0
Ho561 Ho 0.22692 0.89929 0.39744 0.0
C562 C 0.25776 0.85694 0.39545 0.0
C563 C 0.35822 0.95382 0.39811 0.0
C564 C 0.3798 0.94243 0.39648 0.0
C565 C 0.41066 0.95845 0.39878 0.0
C566 C 0.43026 0.9459 0.39784 0.0
C567 C 0.41919 0.91694 0.39465 0.0
C568 C 0.38835 0.90126 0.39225 0.0
C569 C 0.36887 0.91395 0.39314 0.0
C570 C 0.27162 0.91463 0.38348 0.0
C571 C 0.2654 0.97403 0.39457 0.0
C572 C 0.16689 0.8753 0.39818 0.0
C573 C 0.13807 0.87696 0.39721 0.0
C574 C 0.12825 0.8812 0.39098 0.0
C575 C 0.09844 0.87776 0.39018 0.0
C576 C 0.07785 0.86962 0.39556 0.0
C577 C 0.08829 0.86653 0.40181 0.0
C578 C 0.118 0.87017 0.40261 0.0
C579 C 0.26484 0.91387 0.40818 0.0
O580 O 0.28561 0.8821 0.39644 0.0
O581 O 0.23201 0.85854 0.39488 0.0
O582 O 0.34938 0.96507 0.39322 0.0
O583 O 0.335 0.93499 0.40192 0.0
O584 O 0.30167 0.92984 0.38432 0.0
O585 O 0.25863 0.91067 0.38904 0.0
O586 O 0.23832 0.94742 0.39425 0.0
O587 O 0.29244 0.97502 0.39571 0.0
O588 O 0.18616 0.8922 0.40286 0.0
O589 O 0.18103 0.87189 0.39305 0.0
O590 O 0.23878 0.88766 0.40756 0.0
O591 O 0.26889 0.93018 0.40316 0.0
H592 H 0.41935 0.98027 0.40143 0.0
H593 H 0.4538 0.9584 0.3998 0.0
H594 H 0.37924 0.87913 0.3897 0.0
H595 H 0.34504 0.90119 0.39135 0.0
H596 H 0.14314 0.88619 0.38671 0.0
H597 H 0.09103 0.88024 0.3853 0.0
H598 H 0.07324 0.86078 0.40607 0.0
H599 H 0.12489 0.86654 0.40746 0.0
Ho600 Ho 0.73552 0.81036 0.80346 0.0
Ho601 Ho 0.69594 0.84438 0.80126 0.0
C602 C 0.76932 0.88688 0.80281 0.0
C603 C 0.77346 0.79035 0.80077 0.0
C604 C 0.8072 0.8028 0.80195 0.0
C605 C 0.82907 0.83438 0.80069 0.0
C606 C 0.86105 0.84566 0.80146 0.0
C607 C 0.87205 0.82576 0.80358 0.0
C608 C 0.85001 0.79433 0.80502 0.0
C609 C 0.81795 0.78297 0.80419 0.0
C610 C 0.72756 0.8317 0.81517 0.0
C611 C 0.66021 0.76975 0.80445 0.0
C612 C 0.65976 0.8683 0.80067 0.0
C613 C 0.62929 0.86645 0.80185 0.0
C614 C 0.61788 0.86576 0.80823 0.0
C615 C 0.59181 0.86958 0.80916 0.0
C616 C 0.57696 0.87455 0.80375 0.0
C617 C 0.58774 0.87395 0.79738 0.0
C618 C 0.61354 0.86997 0.79645 0.0
C619 C 0.71812 0.82842 0.79054 0.0
O620 O 0.77185 0.86167 0.80175 0.0
O621 O 0.74212 0.88539 0.80359 0.0
O622 O 0.75499 0.78068 0.80593 0.0
O623 O 0.76667 0.8065 0.79664 0.0
O624 O 0.74249 0.81654 0.8144 0.0
O625 O 0.71757 0.83431 0.8096 0.0
O626 O 0.65959 0.79633 0.80461 0.0
O627 O 0.68634 0.76877 0.80339 0.0
O628 O 0.66154 0.85103 0.79599 0.0
O629 O 0.67817 0.87229 0.80567 0.0
O630 O 0.71819 0.85466 0.79102 0.0
O631 O 0.70654 0.81282 0.79567 0.0
H632 H 0.82155 0.85035 0.79898 0.0
H633 H 0.87716 0.86983 0.80021 0.0
H634 H 0.85748 0.77841 0.80679 0.0
H635 H 0.80155 0.75861 0.80523 0.0
H636 H 0.62969 0.86341 0.8125 0.0
H637 H 0.58415 0.87001 0.81414 0.0
H638 H 0.57655 0.87719 0.7931 0.0
H639 H 0.62199 0.8709 0.79148 0.0
Ho640 Ho 0.27403 0.96039 0.80382 0.0
Ho641 Ho 0.24202 0.88657 0.80207 0.0
C642 C 0.19767 0.91584 0.80274 0.0
C643 C 0.29414 0.01769 0.80044 0.0
C644 C 0.28343 0.04042 0.80142 0.0
C645 C 0.28347 0.05823 0.79603 0.0
C646 C 0.27026 0.07742 0.79658 0.0
C647 C 0.25688 0.0793 0.80254 0.0
C648 C 0.25753 0.06199 0.80799 0.0
C649 C 0.27047 0.04251 0.80742 0.0
C650 C 0.25278 0.93239 0.81564 0.0
C651 C 0.31523 0.92712 0.80594 0.0
C652 C 0.22027 0.82673 0.80183 0.0
C653 C 0.22122 0.79844 0.80395 0.0
C654 C 0.19766 0.77667 0.80812 0.0
C655 C 0.19383 0.74686 0.80907 0.0
C656 C 0.21337 0.73797 0.80585 0.0
C657 C 0.23797 0.76034 0.80194 0.0
C658 C 0.24179 0.79017 0.80099 0.0
C659 C 0.25855 0.92336 0.7911 0.0
O660 O 0.22252 0.94426 0.8021 0.0
O661 O 0.19984 0.8905 0.80355 0.0
O662 O 0.30487 1.00986 0.8056 0.0
O663 O 0.27561 0.9937 0.79676 0.0
O664 O 0.26731 0.96244 0.81471 0.0
O665 O 0.25065 0.91916 0.81018 0.0
O666 O 0.28884 0.89995 0.80643 0.0
O667 O 0.31595 0.95343 0.80415 0.0
O668 O 0.24178 0.84642 0.79778 0.0
O669 O 0.2107 0.84039 0.80601 0.0
O670 O 0.23298 0.89659 0.79153 0.0
O671 O 0.27335 0.9284 0.79639 0.0
H672 H 0.29307 0.05672 0.79134 0.0
H673 H 0.27041 0.09071 0.79231 0.0
H674 H 0.24715 0.06276 0.81263 0.0
H675 H 0.26968 0.02858 0.81162 0.0
H676 H 0.18118 0.78214 0.81041 0.0
H677 H 0.17497 0.73046 0.8122 0.0
H678 H 0.25332 0.7543 0.79934 0.0
H679 H 0.25992 0.80615 0.79767 0.0
Ho680 Ho 0.12337 0.34661 0.80365 0.0
Ho681 Ho 0.19827 0.38191 0.80342 0.0
C682 C 0.16151 0.3086 0.80479 0.0
C683 C 0.06726 0.31191 0.79929 0.0
C684 C 0.04356 0.27833 0.79991 0.0
C685 C 0.03225 0.26004 0.79418 0.0
C686 C 1.01192 0.22773 0.79461 0.0
C687 C 1.00221 0.21299 0.80077 0.0
C688 C 1.01301 0.23143 0.8065 0.0
C689 C 0.03362 0.26374 0.80608 0.0
C690 C 0.14605 0.34993 0.81601 0.0
C691 C 0.16217 0.4225 0.80433 0.0
C692 C 0.25819 0.41553 0.80531 0.0
C693 C 0.28708 0.44641 0.80441 0.0
C694 C 0.29709 0.46946 0.80934 0.0
C695 C 0.3268 0.49626 0.80905 0.0
C696 C 0.34745 0.50065 0.80385 0.0
C697 C 0.33698 0.47809 0.79881 0.0
C698 C 0.30727 0.45131 0.79909 0.0
C699 C 0.16646 0.36491 0.79179 0.0
O700 O 0.13649 0.30869 0.8024 0.0
O701 O 0.18669 0.33443 0.80672 0.0
O702 O 0.07371 0.32966 0.80454 0.0
O703 O 0.09226 0.31763 0.79596 0.0
O704 O 0.11651 0.33735 0.81462 0.0
O705 O 0.16112 0.35978 0.81071 0.0
O706 O 0.18868 0.42171 0.80446 0.0
O707 O 0.13415 0.39695 0.80365 0.0
O708 O 0.24558 0.39784 0.80012 0.0
O709 O 0.23731 0.41336 0.80957 0.0
O710 O 0.19146 0.36318 0.79287 0.0
O711 O 0.16063 0.37584 0.7968 0.0
H712 H 0.03964 0.27071 0.78937 0.0
H713 H 1.00375 0.21429 0.7901 0.0
H714 H 1.00618 0.22075 0.81133 0.0
H715 H 0.04218 0.27712 0.81058 0.0
H716 H 0.28246 0.46626 0.81357 0.0
H717 H 0.33407 0.51285 0.81307 0.0
H718 H 0.35197 0.48083 0.79467 0.0
H719 H 0.30058 0.4339 0.79525 0.0
Ho720 Ho 0.23302 0.38481 0.30134 0.0
Ho721 Ho 0.27093 0.34873 0.30391 0.0
C722 C 0.30829 0.4241 0.30407 0.0
C723 C 0.20705 0.41911 0.30057 0.0
C724 C 0.20879 0.44972 0.30145 0.0
C725 C 0.21443 0.46464 0.3076 0.0
C726 C 0.21106 0.49107 0.3084 0.0
C727 C 0.20163 0.50278 0.30308 0.0
C728 C 0.19719 0.48843 0.29689 0.0
C729 C 0.20072 0.46226 0.29609 0.0
C730 C 0.24907 0.36139 0.29088 0.0
C731 C 0.19415 0.31177 0.30408 0.0
C732 C 0.29318 0.31246 0.30132 0.0
C733 C 0.28261 0.27939 0.30271 0.0
C734 C 0.29933 0.26574 0.30018 0.0
C735 C 0.28765 0.23355 0.30083 0.0
C736 C 0.25888 0.21437 0.30399 0.0
C737 C 0.24248 0.22835 0.30663 0.0
C738 C 0.25427 0.26057 0.30601 0.0
C739 C 0.25188 0.36077 0.31547 0.0
O740 O 0.28104 0.4234 0.30417 0.0
O741 O 0.31068 0.39858 0.30328 0.0
O742 O 0.22307 0.41626 0.29576 0.0
O743 O 0.20523 0.40262 0.30578 0.0
O744 O 0.22235 0.36034 0.29134 0.0
O745 O 0.26515 0.37464 0.29587 0.0
O746 O 0.21994 0.31022 0.30307 0.0
O747 O 0.1941 0.33844 0.30435 0.0
O748 O 0.3025 0.33165 0.30637 0.0
O749 O 0.27495 0.31684 0.29732 0.0
O750 O 0.26865 0.3473 0.31502 0.0
O751 O 0.24672 0.36688 0.30973 0.0
H752 H 0.22046 0.45536 0.31184 0.0
H753 H 0.21457 0.50153 0.31324 0.0
H754 H 0.19044 0.49713 0.29267 0.0
H755 H 0.19602 0.4511 0.29131 0.0
H756 H 0.32103 0.27983 0.29755 0.0
H757 H 0.30069 0.22355 0.29866 0.0
H758 H 0.22046 0.21436 0.30916 0.0
H759 H 0.24092 0.2707 0.30796 0.0
Ho760 Ho 0.69545 0.88483 0.30198 0.0
Ho761 Ho 0.73437 0.95881 0.30433 0.0
C762 C 0.65966 0.92319 0.30543 0.0
C763 C 0.65838 0.8249 0.30131 0.0
C764 C 0.62912 0.79668 0.30344 0.0
C765 C 0.63093 0.77466 0.30753 0.0
C766 C 0.60473 0.74514 0.30856 0.0
C767 C 0.57604 0.73678 0.30551 0.0
C768 C 0.57383 0.75936 0.30167 0.0
C769 C 0.60009 0.78893 0.30062 0.0
C770 C 0.71863 0.9233 0.29134 0.0
C771 C 0.76859 0.91628 0.30436 0.0
C772 C 0.77194 0.0166 0.30136 0.0
C773 C 0.8056 0.03902 0.30235 0.0
C774 C 0.82491 0.05137 0.2968 0.0
C775 C 0.85721 0.07046 0.29751 0.0
C776 C 0.87096 0.07795 0.30379 0.0
C777 C 0.85157 0.0663 0.30937 0.0
C778 C 0.81918 0.04683 0.30866 0.0
C779 C 0.72273 0.92844 0.31599 0.0
O780 O 0.65988 0.89646 0.30589 0.0
O781 O 0.68504 0.95029 0.30397 0.0
O782 O 0.65649 0.84492 0.29737 0.0
O783 O 0.68146 0.83828 0.30554 0.0
O784 O 0.71811 0.89684 0.29179 0.0
O785 O 0.70668 0.92722 0.29642 0.0
O786 O 0.77138 0.94426 0.30346 0.0
O787 O 0.74129 0.89027 0.30467 0.0
O788 O 0.75334 1.00807 0.30651 0.0
O789 O 0.76603 0.9932 0.29745 0.0
O790 O 0.73726 0.95872 0.31543 0.0
O791 O 0.71528 0.91666 0.31031 0.0
H792 H 0.653 0.77973 0.3097 0.0
H793 H 0.60717 0.72855 0.31164 0.0
H794 H 0.5522 0.75369 0.29919 0.0
H795 H 0.59791 0.80514 0.29737 0.0
H796 H 0.81502 0.04573 0.29189 0.0
H797 H 0.87147 0.07943 0.29313 0.0
H798 H 0.86153 0.07157 0.31427 0.0
H799 H 0.80495 0.0375 0.31303 0.0
Ho800 Ho 0.197 0.84518 0.30365 0.0
Ho801 Ho 0.12328 0.81147 0.30539 0.0
C802 C 0.15743 0.7702 0.3063 0.0
C803 C 0.25714 0.86913 0.30338 0.0
C804 C 0.2854 0.86613 0.30406 0.0
C805 C 0.29663 0.8632 0.31023 0.0
C806 C 0.32633 0.86617 0.3108 0.0
C807 C 0.34548 0.87255 0.30521 0.0
C808 C 0.33361 0.87418 0.29903 0.0
C809 C 0.30399 0.87103 0.29846 0.0
C810 C 0.16023 0.83034 0.29273 0.0
C811 C 0.16658 0.88803 0.30518 0.0
C812 C 0.06573 0.79133 0.30223 0.0
C813 C 0.0439 0.80275 0.30356 0.0
C814 C 1.01282 0.78551 0.30143 0.0
C815 C 0.99275 0.79766 0.30214 0.0
C816 C 1.00355 0.8274 0.30495 0.0
C817 C 0.03464 0.84436 0.30717 0.0
C818 C 0.0546 0.8321 0.3065 0.0
C819 C 0.15086 0.83082 0.31732 0.0
O820 O 0.18484 0.79647 0.30656 0.0
O821 O 0.13061 0.76974 0.30519 0.0
O822 O 0.239 0.85608 0.29828 0.0
O823 O 0.24179 0.86894 0.30865 0.0
O824 O 0.1862 0.85662 0.2934 0.0
O825 O 0.15555 0.81423 0.29781 0.0
O826 O 0.13881 0.86313 0.30394 0.0
O827 O 0.19185 0.88592 0.30614 0.0
O828 O 0.07395 0.78049 0.3073 0.0
O829 O 0.08942 0.80979 0.29848 0.0
O830 O 0.12088 0.81587 0.31636 0.0
O831 O 0.16424 0.83437 0.31182 0.0
H832 H 0.28304 0.8598 0.31465 0.0
H833 H 0.33485 0.8649 0.31564 0.0
H834 H 0.34753 0.87858 0.29462 0.0
H835 H 0.29615 0.87377 0.29365 0.0
H836 H 1.00427 0.76296 0.29909 0.0
H837 H 0.96902 0.78415 0.30032 0.0
H838 H 0.04356 0.86714 0.30943 0.0
H839 H 0.07857 0.84578 0.30817 0.0
Ho840 Ho 0.72425 0.89911 0.89512 0.0
Ho841 Ho 0.68308 0.93157 0.89341 0.0
C842 C 0.75759 0.97238 0.89127 0.0
C843 C 0.76176 0.8767 0.89534 0.0
C844 C 0.79014 0.87662 0.89298 0.0
C845 C 0.78665 0.85087 0.88934 0.0
C846 C 0.8122 0.84661 0.88821 0.0
C847 C 0.84193 0.86795 0.89072 0.0
C848 C 0.84578 0.89462 0.89407 0.0
C849 C 0.82014 0.89884 0.89522 0.0
C850 C 0.70421 0.91538 0.90613 0.0
C851 C 0.65066 0.85522 0.89433 0.0
C852 C 0.64647 0.95226 0.89683 0.0
C853 C 0.61307 0.94204 0.89593 0.0
C854 C 0.59504 0.93923 0.90149 0.0
C855 C 0.56279 0.92693 0.90094 0.0
C856 C 0.54792 0.9174 0.89478 0.0
C857 C 0.5661 0.9208 0.88918 0.0
C858 C 0.59838 0.9328 0.88975 0.0
C859 C 0.68925 0.91022 0.88156 0.0
O860 O 0.75799 0.9458 0.89078 0.0
O861 O 0.73208 0.97331 0.893 0.0
O862 O 0.76492 0.89943 0.89918 0.0
O863 O 0.73755 0.86629 0.8914 0.0
O864 O 0.7051 0.88967 0.90563 0.0
O865 O 0.71408 0.93048 0.90088 0.0
O866 O 0.64752 0.88018 0.89524 0.0
O867 O 0.67803 0.85738 0.89335 0.0
O868 O 0.66488 0.96282 0.89166 0.0
O869 O 0.65176 0.93355 0.90049 0.0
O870 O 0.67374 0.9247 0.88253 0.0
O871 O 0.70051 0.90801 0.88699 0.0
H872 H 0.7638 0.83314 0.88763 0.0
H873 H 0.80847 0.8261 0.88552 0.0
H874 H 0.86829 0.91143 0.8961 0.0
H875 H 0.82362 0.91875 0.89811 0.0
H876 H 0.60586 0.94603 0.90631 0.0
H877 H 0.54949 0.92498 0.90533 0.0
H878 H 0.55524 0.91346 0.88439 0.0
H879 H 0.61167 0.93431 0.88539 0.0
Ho880 Ho 0.18115 0.85795 0.89537 0.0
Ho881 Ho 0.14626 0.78411 0.89356 0.0
C882 C 0.10734 0.81996 0.89183 0.0
C883 C 0.205 0.91813 0.89575 0.0
C884 C 0.20557 0.94695 0.89345 0.0
C885 C 0.23203 0.96967 0.89007 0.0
C886 C 0.23641 0.99957 0.88895 0.0
C887 C 0.21447 1.00763 0.89122 0.0
C888 C 0.18719 0.9844 0.89433 0.0
C889 C 0.18284 0.95443 0.89545 0.0
C890 C 0.16542 0.82118 0.90632 0.0
C891 C 0.22254 0.82591 0.89371 0.0
C892 C 0.12435 0.72626 0.89678 0.0
C893 C 0.13421 0.70309 0.89561 0.0
C894 C 0.11935 0.67453 0.89898 0.0
C895 C 0.13077 0.65377 0.89853 0.0
C896 C 0.15742 0.66125 0.89472 0.0
C897 C 0.17193 0.68978 0.89125 0.0
C898 C 0.16044 0.71053 0.8917 0.0
C899 C 0.16676 0.81192 0.88169 0.0
O900 O 0.13435 0.84651 0.8913 0.0
O901 O 0.10559 0.79299 0.89345 0.0
O902 O 0.18213 0.89867 0.89957 0.0
O903 O 0.21485 0.90407 0.89176 0.0
O904 O 0.1916 0.84727 0.90572 0.0
O905 O 0.14967 0.8166 0.90119 0.0
O906 O 0.19745 0.79846 0.89503 0.0
O907 O 0.22126 0.8517 0.89283 0.0
O908 O 0.11421 0.73496 0.89167 0.0
O909 O 0.14356 0.74981 0.90047 0.0
O910 O 0.15155 0.78187 0.88261 0.0
O911 O 0.17 0.82522 0.88718 0.0
H912 H 0.25013 0.96476 0.88853 0.0
H913 H 0.25743 0.01665 0.88645 0.0
H914 H 0.16989 0.98981 0.89618 0.0
H915 H 0.16233 0.93763 0.89814 0.0
H916 H 0.09941 0.66866 0.90211 0.0
H917 H 0.11929 0.6323 0.90135 0.0
H918 H 0.19226 0.69616 0.88822 0.0
H919 H 0.17244 0.73269 0.88912 0.0
Ho920 Ho 0.21992 0.35323 0.89648 0.0
Ho921 Ho 0.29285 0.39451 0.89413 0.0
C922 C 0.25919 0.31993 0.89222 0.0
C923 C 0.16015 0.3152 0.89715 0.0
C924 C 0.13142 0.2878 0.89454 0.0
C925 C 0.10957 0.29267 0.89107 0.0
C926 C 0.07966 0.26773 0.88971 0.0
C927 C 0.07072 0.23723 0.89179 0.0
C928 C 0.09308 0.23207 0.89498 0.0
C929 C 0.12305 0.25709 0.89636 0.0
C930 C 0.25822 0.37476 0.90722 0.0
C931 C 0.24891 0.42668 0.8952 0.0
C932 C 0.35095 0.43154 0.89695 0.0
C933 C 0.3736 0.46465 0.8957 0.0
C934 C 0.40321 0.47824 0.89862 0.0
C935 C 0.42379 0.51043 0.8981 0.0
C936 C 0.41508 0.5297 0.89466 0.0
C937 C 0.38545 0.5158 0.89165 0.0
C938 C 0.36488 0.48355 0.89217 0.0
C939 C 0.26309 0.38628 0.88247 0.0
O940 O 0.23221 0.31955 0.89186 0.0
O941 O 0.28578 0.34555 0.89385 0.0
O942 O 0.18073 0.31072 0.90032 0.0
O943 O 0.17291 0.34112 0.89371 0.0
O944 O 0.23125 0.37312 0.90693 0.0
O945 O 0.26264 0.36447 0.90195 0.0
O946 O 0.27722 0.43018 0.89596 0.0
O947 O 0.22372 0.39903 0.89444 0.0
O948 O 0.34181 0.41264 0.89186 0.0
O949 O 0.32785 0.42688 0.90082 0.0
O950 O 0.2932 0.40208 0.88323 0.0
O951 O 0.25059 0.3758 0.88802 0.0
H952 H 0.11508 0.31606 0.88967 0.0
H953 H 0.06322 0.2725 0.88715 0.0
H954 H 0.08695 0.20892 0.8967 0.0
H955 H 0.13911 0.25251 0.89912 0.0
H956 H 0.41011 0.46407 0.90145 0.0
H957 H 0.44616 0.52033 0.90058 0.0
H958 H 0.3781 0.52985 0.88891 0.0
H959 H 0.34191 0.47345 0.88994 0.0
Ho960 Ho 0.81746 0.73455 0.72711 0.0
Ho961 Ho 0.85199 0.69423 0.72795 0.0
C962 C 0.89353 0.76774 0.72722 0.0
C963 C 0.79723 0.77078 0.73107 0.0
C964 C 0.80759 0.80427 0.73025 0.0
C965 C 0.81089 0.82225 0.73586 0.0
C966 C 0.82375 0.85462 0.73536 0.0
C967 C 0.83337 0.86965 0.72923 0.0
C968 C 0.82935 0.85151 0.72358 0.0
C969 C 0.81679 0.81912 0.72409 0.0
C970 C 0.83961 0.73122 0.71509 0.0
C971 C 0.7763 0.65869 0.72574 0.0
C972 C 0.87581 0.65843 0.72617 0.0
C973 C 0.87353 0.62774 0.72749 0.0
C974 C 0.85936 0.60336 0.72286 0.0
C975 C 0.86212 0.57658 0.72344 0.0
C976 C 0.87934 0.57357 0.72863 0.0
C977 C 0.89247 0.59741 0.7334 0.0
C978 C 0.88969 0.62419 0.73282 0.0
C979 C 0.83398 0.70965 0.73939 0.0
O980 O 0.86884 0.76977 0.72911 0.0
O981 O 0.89091 0.74111 0.72524 0.0
O982 O 0.78585 0.75262 0.72587 0.0
O983 O 0.81635 0.76519 0.73451 0.0
O984 O 0.82405 0.74554 0.71621 0.0
O985 O 0.84221 0.71993 0.72046 0.0
O986 O 0.80242 0.65726 0.72595 0.0
O987 O 0.77575 0.68526 0.72653 0.0
O988 O 0.88368 0.67839 0.73104 0.0
O989 O 0.85553 0.65935 0.72215 0.0
O990 O 0.85908 0.70757 0.73889 0.0
O991 O 0.8199 0.70202 0.734 0.0
H992 H 0.80415 0.81129 0.74067 0.0
H993 H 0.82624 0.86794 0.73978 0.0
H994 H 0.83679 0.86248 0.7188 0.0
H995 H 0.81495 0.80587 0.7197 0.0
H996 H 0.84724 0.60553 0.71862 0.0
H997 H 0.85199 0.55891 0.71963 0.0
H998 H 0.90549 0.59571 0.73752 0.0
H999 H 0.90126 0.64264 0.73643 0.0
Ho1000 Ho 0.35478 0.12186 0.7272 0.0
Ho1001 Ho 0.3962 0.19568 0.72913 0.0
C1002 C 0.32231 0.16553 0.72875 0.0
C1003 C 0.3181 0.06397 0.73025 0.0
C1004 C 0.2848 0.04155 0.72915 0.0
C1005 C 0.27135 0.01161 0.73191 0.0
C1006 C 0.23908 0.99125 0.73151 0.0
C1007 C 0.21961 1.00056 0.72837 0.0
C1008 C 0.23335 0.03051 0.7255 0.0
C1009 C 0.26567 0.05082 0.72589 0.0
C1010 C 0.36162 0.15076 0.71546 0.0
C1011 C 0.42962 0.15565 0.7254 0.0
C1012 C 0.43303 0.25569 0.72928 0.0
C1013 C 0.4611 0.28449 0.72693 0.0
C1014 C 0.45712 0.30608 0.72314 0.0
C1015 C 0.48217 0.3362 0.72201 0.0
C1016 C 0.51187 0.34556 0.72466 0.0
C1017 C 0.51626 0.32343 0.72817 0.0
C1018 C 0.49112 0.29326 0.72932 0.0
C1019 C 0.37608 0.15851 0.74004 0.0
O1020 O 0.31917 0.13726 0.72926 0.0
O1021 O 0.34956 0.19107 0.72785 0.0
O1022 O 0.33643 0.07269 0.72507 0.0
O1023 O 0.32338 0.08739 0.7341 0.0
O1024 O 0.34614 0.12067 0.7163 0.0
O1025 O 0.37247 0.1635 0.72097 0.0
O1026 O 0.43034 0.18282 0.72492 0.0
O1027 O 0.40381 0.12918 0.72701 0.0
O1028 O 0.43651 0.23645 0.73317 0.0
O1029 O 0.40897 0.24148 0.72531 0.0
O1030 O 0.3777 0.1855 0.7397 0.0
O1031 O 0.38573 0.1536 0.73473 0.0
H1032 H 0.28571 1.00425 0.73453 0.0
H1033 H 0.22927 0.96855 0.73385 0.0
H1034 H 0.21912 0.03831 0.72299 0.0
H1035 H 0.27566 0.07402 0.72377 0.0
H1036 H 0.43423 0.30019 0.7213 0.0
H1037 H 0.47807 0.35246 0.7192 0.0
H1038 H 0.53877 0.3299 0.73031 0.0
H1039 H 0.49494 0.27737 0.73233 0.0
Ho1040 Ho 0.96546 0.27017 0.72873 0.0
Ho1041 Ho 0.89125 0.23191 0.73051 0.0
C1042 C 0.92583 0.19357 0.72809 0.0
C1043 C 0.02337 0.29144 0.73176 0.0
C1044 C 0.04489 0.27899 0.73092 0.0
C1045 C 0.0345 0.24711 0.73197 0.0
C1046 C 0.05517 0.23564 0.73147 0.0
C1047 C 0.08678 0.25571 0.72987 0.0
C1048 C 0.09697 0.28753 0.72869 0.0
C1049 C 0.07623 0.29903 0.72922 0.0
C1050 C 0.93716 0.25205 0.71679 0.0
C1051 C 0.92784 0.3078 0.72843 0.0
C1052 C 0.83084 0.20583 0.73089 0.0
C1053 C 0.80211 0.20792 0.73 0.0
C1054 C 0.7925 0.21285 0.7238 0.0
C1055 C 0.76275 0.20962 0.723 0.0
C1056 C 0.74194 0.20102 0.72836 0.0
C1057 C 0.75218 0.19729 0.73458 0.0
C1058 C 0.78182 0.20068 0.73538 0.0
C1059 C 0.9285 0.24497 0.7413 0.0
O1060 O 0.95259 0.2191 0.72962 0.0
O1061 O 0.89941 0.19372 0.72728 0.0
O1062 O 0.01472 0.29995 0.7264 0.0
O1063 O 1.00022 0.27593 0.73586 0.0
O1064 O 0.9672 0.26835 0.71764 0.0
O1065 O 0.92437 0.24678 0.72238 0.0
O1066 O 0.90129 0.28059 0.7281 0.0
O1067 O 0.9556 0.31004 0.72932 0.0
O1068 O 0.849 0.22041 0.7359 0.0
O1069 O 0.8463 0.20541 0.72568 0.0
O1070 O 0.90347 0.21811 0.74035 0.0
O1071 O 0.93214 0.26263 0.73653 0.0
H1072 H 1.01046 0.23103 0.7333 0.0
H1073 H 0.04648 0.21115 0.73251 0.0
H1074 H 0.12099 0.30361 0.72734 0.0
H1075 H 0.08475 0.32366 0.72836 0.0
H1076 H 0.80747 0.21816 0.71954 0.0
H1077 H 0.75557 0.21256 0.71814 0.0
H1078 H 0.737 0.19118 0.73883 0.0
H1079 H 0.78846 0.19647 0.7402 0.0
Ho1080 Ho 0.39844 0.14115 0.1368 0.0
Ho1081 Ho 0.36195 0.17879 0.13449 0.0
C1082 C 0.43507 0.21789 0.13702 0.0
C1083 C 0.43497 0.11929 0.13418 0.0
C1084 C 0.46791 0.13013 0.13575 0.0
C1085 C 0.48234 0.11406 0.13326 0.0
C1086 C 0.5145 0.12622 0.1341 0.0
C1087 C 0.53282 0.15483 0.1374 0.0
C1088 C 0.51805 0.17054 0.13999 0.0
C1089 C 0.48588 0.15826 0.13918 0.0
C1090 C 0.38648 0.15944 0.14849 0.0
C1091 C 0.3233 0.10356 0.13706 0.0
C1092 C 0.32705 0.20415 0.13403 0.0
C1093 C 0.29733 0.20267 0.13588 0.0
C1094 C 0.29845 0.22653 0.13984 0.0
C1095 C 0.27187 0.22928 0.14073 0.0
C1096 C 0.24346 0.20832 0.13765 0.0
C1097 C 0.24197 0.18353 0.13393 0.0
C1098 C 0.26863 0.18079 0.13304 0.0
C1099 C 0.38555 0.16382 0.12389 0.0
O1100 O 0.43666 0.1922 0.13591 0.0
O1101 O 0.40838 0.21777 0.13745 0.0
O1102 O 0.41521 0.10918 0.13913 0.0
O1103 O 0.43086 0.13791 0.13024 0.0
O1104 O 0.4002 0.14296 0.14792 0.0
O1105 O 0.38008 0.16478 0.1428 0.0
O1106 O 0.32412 0.1308 0.13758 0.0
O1107 O 0.34872 0.10141 0.13594 0.0
O1108 O 0.32633 0.18456 0.12958 0.0
O1109 O 0.3479 0.21031 0.13864 0.0
O1110 O 0.38597 0.19023 0.12442 0.0
O1111 O 0.37248 0.14745 0.12885 0.0
H1112 H 0.4689 0.09253 0.13053 0.0
H1113 H 0.52519 0.1137 0.13199 0.0
H1114 H 0.53139 0.1924 0.14262 0.0
H1115 H 0.47514 0.17109 0.14111 0.0
H1116 H 0.32029 0.24391 0.14204 0.0
H1117 H 0.27376 0.24832 0.14372 0.0
H1118 H 0.22057 0.16707 0.13145 0.0
H1119 H 0.26701 0.16228 0.12991 0.0
Ho1120 Ho 0.93222 0.28186 0.13783 0.0
Ho1121 Ho 0.89951 0.21423 0.1337 0.0
C1122 C 0.85601 0.24273 0.13632 0.0
C1123 C 0.95191 0.34121 0.13862 0.0
C1124 C 0.93733 0.3611 0.13863 0.0
C1125 C 0.91573 0.35819 0.13377 0.0
C1126 C 0.90277 0.37778 0.13383 0.0
C1127 C 0.91097 0.40057 0.13877 0.0
C1128 C 0.93215 0.40289 0.14369 0.0
C1129 C 0.94525 0.3835 0.1436 0.0
C1130 C 0.91966 0.24243 0.14804 0.0
C1131 C 0.97289 0.24878 0.13704 0.0
C1132 C 0.87604 0.15463 0.13165 0.0
C1133 C 0.87564 0.12548 0.13368 0.0
C1134 C 0.85137 0.10373 0.13772 0.0
C1135 C 0.84738 0.07397 0.13882 0.0
C1136 C 0.86745 0.06501 0.13587 0.0
C1137 C 0.89246 0.08715 0.13202 0.0
C1138 C 0.89642 0.11697 0.13091 0.0
C1139 C 0.91531 0.25704 0.12382 0.0
O1140 O 0.88179 0.27054 0.13631 0.0
O1141 O 0.8572 0.21677 0.13604 0.0
O1142 O 0.94655 0.32337 0.14377 0.0
O1143 O 0.95073 0.32694 0.13311 0.0
O1144 O 0.94481 0.2695 0.14745 0.0
O1145 O 0.90154 0.23768 0.1432 0.0
O1146 O 0.9458 0.22245 0.13746 0.0
O1147 O 0.97416 0.27604 0.13618 0.0
O1148 O 0.90034 0.17623 0.12849 0.0
O1149 O 0.86417 0.16639 0.13572 0.0
O1150 O 0.88937 0.23058 0.12395 0.0
O1151 O 0.93139 0.25853 0.12872 0.0
H1152 H 0.90899 0.34097 0.12988 0.0
H1153 H 0.88681 0.37542 0.12992 0.0
H1154 H 0.93856 0.41962 0.14767 0.0
H1155 H 0.96166 0.38603 0.14743 0.0
H1156 H 0.83467 0.1093 0.13987 0.0
H1157 H 0.82817 0.05775 0.1419 0.0
H1158 H 0.90821 0.081 0.12963 0.0
H1159 H 0.91507 0.13291 0.12768 0.0
Ho1160 Ho 0.78749 0.67665 0.13786 0.0
Ho1161 Ho 0.86241 0.715 0.13713 0.0
C1162 C 0.82849 0.64133 0.13837 0.0
C1163 C 0.73114 0.64071 0.13379 0.0
C1164 C 0.70793 0.60718 0.13461 0.0
C1165 C 0.6952 0.58856 0.12898 0.0
C1166 C 0.67554 0.55623 0.12955 0.0
C1167 C 0.66796 0.54183 0.13577 0.0
C1168 C 0.68012 0.56059 0.14142 0.0
C1169 C 0.7001 0.59294 0.14085 0.0
C1170 C 0.81226 0.68089 0.15 0.0
C1171 C 0.82379 0.75277 0.13856 0.0
C1172 C 0.92212 0.75024 0.13892 0.0
C1173 C 0.95047 0.78107 0.13768 0.0
C1174 C 0.96007 0.80555 0.14226 0.0
C1175 C 0.98948 0.83255 0.14174 0.0
C1176 C 1.01018 0.83568 0.13665 0.0
C1177 C 1.00007 0.81169 0.13193 0.0
C1178 C 0.97067 0.7847 0.13245 0.0
C1179 C 0.8292 0.69854 0.12566 0.0
O1180 O 0.80218 0.63997 0.13638 0.0
O1181 O 0.85329 0.66793 0.14011 0.0
O1182 O 0.73783 0.659 0.13896 0.0
O1183 O 0.75591 0.6463 0.13039 0.0
O1184 O 0.78245 0.66721 0.14881 0.0
O1185 O 0.8265 0.69123 0.14462 0.0
O1186 O 0.85098 0.75335 0.13852 0.0
O1187 O 0.7963 0.72644 0.13797 0.0
O1188 O 0.90983 0.73081 0.13397 0.0
O1189 O 0.90106 0.74896 0.14302 0.0
O1190 O 0.85581 0.69948 0.12631 0.0
O1191 O 0.82316 0.70753 0.13092 0.0
H1192 H 0.70102 0.59899 0.12411 0.0
H1193 H 0.66624 0.54246 0.12511 0.0
H1194 H 0.67489 0.55013 0.14628 0.0
H1195 H 0.70988 0.60664 0.14528 0.0
H1196 H 0.9454 0.80336 0.14642 0.0
H1197 H 0.99653 0.85032 0.14551 0.0
H1198 H 0.01516 0.81346 0.12789 0.0
H1199 H 0.96426 0.76618 0.12888 0.0
Ho1200 Ho 0.90457 0.72078 0.63532 0.0
Ho1201 Ho 0.93991 0.68191 0.63713 0.0
C1202 C 0.97974 0.75744 0.63792 0.0
C1203 C 0.87977 0.75627 0.635 0.0
C1204 C 0.88166 0.78702 0.63583 0.0
C1205 C 0.88489 0.8009 0.64205 0.0
C1206 C 0.88106 0.8271 0.64276 0.0
C1207 C 0.87347 0.83959 0.63728 0.0
C1208 C 0.8715 0.82635 0.63105 0.0
C1209 C 0.87554 0.80044 0.63034 0.0
C1210 C 0.91929 0.69859 0.62444 0.0
C1211 C 0.86333 0.64736 0.63714 0.0
C1212 C 0.96049 0.64494 0.63387 0.0
C1213 C 0.95045 0.61162 0.63493 0.0
C1214 C 0.94793 0.59315 0.62946 0.0
C1215 C 0.93543 0.56088 0.63013 0.0
C1216 C 0.92534 0.54637 0.6363 0.0
C1217 C 0.9286 0.56501 0.64182 0.0
C1218 C 0.94083 0.59733 0.64114 0.0
C1219 C 0.92018 0.69032 0.649 0.0
O1220 O 0.9531 0.75788 0.63823 0.0
O1221 O 0.98089 0.73141 0.63683 0.0
O1222 O 0.89423 0.75254 0.62999 0.0
O1223 O 0.87912 0.74025 0.64021 0.0
O1224 O 0.89295 0.69812 0.62513 0.0
O1225 O 0.93563 0.71043 0.62948 0.0
O1226 O 0.8885 0.6451 0.63584 0.0
O1227 O 0.86454 0.67443 0.63798 0.0
O1228 O 0.97141 0.66402 0.63894 0.0
O1229 O 0.94142 0.64969 0.63022 0.0
O1230 O 0.93555 0.6756 0.64814 0.0
O1231 O 0.91654 0.69964 0.64345 0.0
H1232 H 0.88926 0.7909 0.64639 0.0
H1233 H 0.88264 0.8367 0.64763 0.0
H1234 H 0.86618 0.83566 0.62672 0.0
H1235 H 0.87258 0.79007 0.6255 0.0
H1236 H 0.95501 0.60364 0.62462 0.0
H1237 H 0.93357 0.54725 0.6258 0.0
H1238 H 0.92083 0.55445 0.64663 0.0
H1239 H 0.9421 0.61095 0.64542 0.0
Ho1240 Ho 0.3648 0.22142 0.6362 0.0
Ho1241 Ho 0.40285 0.29631 0.63718 0.0
C1242 C 0.32689 0.25973 0.63794 0.0
C1243 C 0.32995 0.16137 0.63774 0.0
C1244 C 0.29872 0.13274 0.63708 0.0
C1245 C 0.27855 0.12119 0.64253 0.0
C1246 C 0.25185 0.09141 0.64238 0.0
C1247 C 0.24469 0.07221 0.63678 0.0
C1248 C 0.26424 0.08425 0.63123 0.0
C1249 C 0.29094 0.11407 0.63139 0.0
C1250 C 0.38178 0.25568 0.62485 0.0
C1251 C 0.4383 0.25545 0.63746 0.0
C1252 C 0.43894 0.35309 0.63334 0.0
C1253 C 0.47248 0.37626 0.6342 0.0
C1254 C 0.4911 0.38942 0.62859 0.0
C1255 C 0.52341 0.40909 0.62918 0.0
C1256 C 0.53781 0.41627 0.6354 0.0
C1257 C 0.51905 0.4037 0.64104 0.0
C1258 C 0.48671 0.3837 0.64045 0.0
C1259 C 0.39883 0.27075 0.64923 0.0
O1260 O 0.32641 0.23257 0.63786 0.0
O1261 O 0.35306 0.2873 0.63728 0.0
O1262 O 0.3463 0.17437 0.63242 0.0
O1263 O 0.33376 0.18186 0.64227 0.0
O1264 O 0.38159 0.22939 0.62547 0.0
O1265 O 0.37224 0.26118 0.6301 0.0
O1266 O 0.43946 0.28172 0.63551 0.0
O1267 O 0.41185 0.23027 0.6391 0.0
O1268 O 0.42059 0.34594 0.63851 0.0
O1269 O 0.43337 0.3286 0.62983 0.0
O1270 O 0.41235 0.30063 0.64813 0.0
O1271 O 0.38833 0.25681 0.64382 0.0
H1272 H 0.2841 0.13461 0.64705 0.0
H1273 H 0.23763 0.08287 0.64678 0.0
H1274 H 0.25926 0.07037 0.6268 0.0
H1275 H 0.30611 0.12196 0.62712 0.0
H1276 H 0.48069 0.38392 0.62372 0.0
H1277 H 0.53715 0.41869 0.62475 0.0
H1278 H 0.52949 0.40862 0.6459 0.0
H1279 H 0.47301 0.37361 0.64486 0.0
Ho1280 Ho 0.86318 0.17985 0.63815 0.0
Ho1281 Ho 0.788 0.14416 0.63874 0.0
C1282 C 0.82326 0.10353 0.63976 0.0
C1283 C 0.92273 0.2039 0.64013 0.0
C1284 C 0.95145 0.20203 0.63895 0.0
C1285 C 0.96312 0.19086 0.64393 0.0
C1286 C 0.99288 0.19412 0.64341 0.0
C1287 C 1.01191 0.20889 0.6379 0.0
C1288 C 0.99976 0.21905 0.6328 0.0
C1289 C 0.96997 0.21574 0.63332 0.0
C1290 C 0.83048 0.16304 0.62659 0.0
C1291 C 0.83 0.22028 0.63918 0.0
C1292 C 0.7318 0.12454 0.63462 0.0
C1293 C 0.70867 0.13497 0.63535 0.0
C1294 C 0.69431 0.1383 0.62968 0.0
C1295 C 0.6747 0.15108 0.63009 0.0
C1296 C 0.66886 0.16061 0.63619 0.0
C1297 C 0.68271 0.15659 0.64189 0.0
C1298 C 0.70262 0.14409 0.64147 0.0
C1299 C 0.81303 0.16471 0.6509 0.0
O1300 O 0.85074 0.12987 0.63987 0.0
O1301 O 0.79614 0.1028 0.63885 0.0
O1302 O 0.91087 0.21185 0.63523 0.0
O1303 O 0.90132 0.18333 0.64407 0.0
O1304 O 0.85748 0.18827 0.62724 0.0
O1305 O 0.82376 0.14824 0.63189 0.0
O1306 O 0.80386 0.19563 0.63704 0.0
O1307 O 0.8544 0.21815 0.6411 0.0
O1308 O 0.73815 0.11282 0.63983 0.0
O1309 O 0.75678 0.14376 0.63128 0.0
O1310 O 0.78318 0.14868 0.64973 0.0
O1311 O 0.82693 0.16839 0.64549 0.0
H1312 H 0.9498 0.18076 0.64839 0.0
H1313 H 1.00151 0.18635 0.64747 0.0
H1314 H 1.01353 0.23012 0.62845 0.0
H1315 H 0.96196 0.22498 0.62942 0.0
H1316 H 0.69883 0.13163 0.6249 0.0
H1317 H 0.66411 0.15352 0.62562 0.0
H1318 H 0.67888 0.16396 0.64665 0.0
H1319 H 0.71376 0.14221 0.64591 0.0
Ho1320 Ho 0.38977 0.23404 0.22792 0.0
Ho1321 Ho 0.35414 0.26862 0.2261 0.0
C1322 C 0.42846 0.30948 0.22607 0.0
C1323 C 0.42483 0.20875 0.22729 0.0
C1324 C 0.4563 0.21247 0.22827 0.0
C1325 C 0.4799 0.2272 0.2235 0.0
C1326 C 0.50732 0.22547 0.22388 0.0
C1327 C 0.5117 0.20879 0.229 0.0
C1328 C 0.48864 0.19523 0.23391 0.0
C1329 C 0.46127 0.19696 0.23354 0.0
C1330 C 0.37192 0.25139 0.23911 0.0
C1331 C 0.31703 0.19224 0.2271 0.0
C1332 C 0.31506 0.28881 0.22731 0.0
C1333 C 0.28082 0.27417 0.22711 0.0
C1334 C 0.26212 0.24346 0.2248 0.0
C1335 C 0.22955 0.22971 0.22469 0.0
C1336 C 0.21515 0.24653 0.22684 0.0
C1337 C 0.23407 0.27724 0.22919 0.0
C1338 C 0.2666 0.29088 0.22933 0.0
C1339 C 0.37251 0.25474 0.21472 0.0
O1340 O 0.42824 0.28267 0.22551 0.0
O1341 O 0.40255 0.3104 0.2273 0.0
O1342 O 0.40863 0.20731 0.2325 0.0
O1343 O 0.42061 0.22337 0.22237 0.0
O1344 O 0.37089 0.22478 0.23845 0.0
O1345 O 0.38303 0.26713 0.23397 0.0
O1346 O 0.31599 0.21817 0.22821 0.0
O1347 O 0.3435 0.19348 0.22562 0.0
O1348 O 0.32865 0.28926 0.22176 0.0
O1349 O 0.32635 0.28091 0.2323 0.0
O1350 O 0.37172 0.28023 0.21578 0.0
O1351 O 0.36188 0.23683 0.21968 0.0
H1352 H 0.4767 0.23898 0.21933 0.0
H1353 H 0.52442 0.23597 0.21998 0.0
H1354 H 0.49142 0.18266 0.23798 0.0
H1355 H 0.4434 0.18504 0.23724 0.0
H1356 H 0.27271 0.23022 0.22304 0.0
H1357 H 0.21569 0.20616 0.22279 0.0
H1358 H 0.2237 0.29068 0.23096 0.0
H1359 H 0.28066 0.31451 0.23118 0.0
Ho1360 Ho 0.85461 0.19874 0.22962 0.0
Ho1361 Ho 0.81873 0.12945 0.22648 0.0
C1362 C 0.78011 0.16478 0.22722 0.0
C1363 C 0.88092 0.25915 0.23064 0.0
C1364 C 0.87978 0.28792 0.22905 0.0
C1365 C 0.90326 0.3107 0.22502 0.0
C1366 C 0.90613 0.34016 0.22423 0.0
C1367 C 0.88567 0.34776 0.22747 0.0
C1368 C 0.86134 0.32453 0.2313 0.0
C1369 C 0.8585 0.29497 0.2321 0.0
C1370 C 0.83879 0.15882 0.24002 0.0
C1371 C 0.8952 0.16645 0.22762 0.0
C1372 C 0.79726 0.06969 0.22667 0.0
C1373 C 0.81135 0.04947 0.22692 0.0
C1374 C 0.79594 0.02108 0.23034 0.0
C1375 C 0.80896 1.00167 0.23073 0.0
C1376 C 0.83771 0.01015 0.22767 0.0
C1377 C 0.85334 0.03895 0.22431 0.0
C1378 C 0.84033 0.05845 0.22396 0.0
C1379 C 0.8314 0.16625 0.21579 0.0
O1380 O 0.80742 0.19068 0.22647 0.0
O1381 O 0.77824 0.13737 0.22826 0.0
O1382 O 0.86148 0.23963 0.235 0.0
O1383 O 0.88637 0.24499 0.22582 0.0
O1384 O 0.86555 0.18435 0.23953 0.0
O1385 O 0.82228 0.15659 0.23515 0.0
O1386 O 0.86871 0.13931 0.22789 0.0
O1387 O 0.8955 0.19322 0.22757 0.0
O1388 O 0.80137 0.08566 0.22126 0.0
O1389 O 0.80082 0.0862 0.23196 0.0
O1390 O 0.80569 0.13989 0.21668 0.0
O1391 O 0.84992 0.17139 0.22057 0.0
H1392 H 0.92019 0.30609 0.22265 0.0
H1393 H 0.92479 0.35722 0.22116 0.0
H1394 H 0.84527 0.3296 0.2339 0.0
H1395 H 0.84033 0.27808 0.23529 0.0
H1396 H 0.7738 0.01393 0.23275 0.0
H1397 H 0.79655 0.98008 0.23349 0.0
H1398 H 0.87538 0.04622 0.22186 0.0
H1399 H 0.85286 0.08047 0.22134 0.0
Ho1400 Ho 0.88861 0.69658 0.23028 0.0
Ho1401 Ho 0.96198 0.7345 0.22794 0.0
C1402 C 0.92556 0.65894 0.2271 0.0
C1403 C 0.82843 0.66132 0.23085 0.0
C1404 C 0.80068 0.62997 0.22986 0.0
C1405 C 0.78866 0.61851 0.22354 0.0
C1406 C 0.75961 0.59117 0.22281 0.0
C1407 C 0.74191 0.57482 0.22837 0.0
C1408 C 0.75452 0.58589 0.23466 0.0
C1409 C 0.78346 0.6131 0.23539 0.0
C1410 C 0.92717 0.71791 0.24092 0.0
C1411 C 0.9211 0.77026 0.22882 0.0
C1412 C 0.02025 0.77015 0.23076 0.0
C1413 C 0.04275 0.80327 0.22952 0.0
C1414 C 0.07154 0.81759 0.23279 0.0
C1415 C 0.09154 0.84989 0.23231 0.0
C1416 C 0.08305 0.8685 0.22855 0.0
C1417 C 0.05432 0.85385 0.22518 0.0
C1418 C 0.03432 0.82151 0.22566 0.0
C1419 C 0.93238 0.72687 0.21629 0.0
O1420 O 0.89868 0.65891 0.22713 0.0
O1421 O 0.95309 0.68485 0.22794 0.0
O1422 O 0.8472 0.66472 0.23573 0.0
O1423 O 0.84316 0.67828 0.2257 0.0
O1424 O 0.9014 0.71877 0.24051 0.0
O1425 O 0.93063 0.70604 0.23577 0.0
O1426 O 0.94874 0.77217 0.2296 0.0
O1427 O 0.89499 0.74331 0.22811 0.0
O1428 O 1.01066 0.7515 0.22562 0.0
O1429 O 0.99747 0.76551 0.23472 0.0
O1430 O 0.96252 0.74133 0.21699 0.0
O1431 O 0.91998 0.71741 0.22188 0.0
H1432 H 0.8012 0.63112 0.21918 0.0
H1433 H 0.7508 0.5831 0.21789 0.0
H1434 H 0.74144 0.57431 0.23906 0.0
H1435 H 0.79181 0.62167 0.24031 0.0
H1436 H 0.07815 0.80392 0.23588 0.0
H1437 H 0.11322 0.8604 0.23506 0.0
H1438 H 0.04718 0.86739 0.22219 0.0
H1439 H 1.01193 0.81082 0.22317 0.0
C1440 C 0.41843 0.17463 0.11363 0.0
C1441 C 0.39873 0.15378 0.11847 0.0
C1442 C 0.43117 0.16435 0.10869 0.0
C1443 C 0.41909 0.09088 0.10071 0.0
H1444 H 0.50332 0.14336 0.09418 0.0
C1445 C 0.46372 0.05328 0.07839 0.0
C1446 C 0.49507 0.06059 0.07818 0.0
C1447 C 0.45319 0.06558 0.08329 0.0
C1448 C 0.47987 0.12825 0.096 0.0
H1449 H 0.37663 0.10582 0.12189 0.0
H1450 H 0.39925 0.08825 0.11352 0.0
H1451 H 0.48279 0.16334 0.10267 0.0
H1452 H 0.53989 0.08598 0.08306 0.0
H1453 H 0.52127 0.10691 0.09183 0.0
H1454 H 0.41631 0.05545 0.09427 0.0
C1455 C 0.40461 0.11235 0.11338 0.0
C1456 C 0.4679 0.13991 0.10081 0.0
C1457 C 0.39177 0.12252 0.11824 0.0
C1458 C 0.51561 0.08 0.0831 0.0
C1459 C 0.50496 0.09222 0.08807 0.0
C1460 C 0.43107 0.07922 0.09597 0.0
C1461 C 0.42439 0.13298 0.1085 0.0
C1462 C 0.43731 0.12133 0.10324 0.0
C1463 C 0.47353 0.08518 0.08823 0.0
C1464 C 0.46156 0.09772 0.0935 0.0
H1465 H 0.42412 0.19885 0.11368 0.0
H1466 H 0.44601 0.18087 0.10498 0.0
H1467 H 0.3953 0.07592 0.10236 0.0
H1468 H 0.44727 0.03837 0.07467 0.0
H1469 H 0.42904 0.06002 0.08312 0.0
C1470 C 0.95595 0.30766 0.11889 0.0
C1471 C 0.92575 0.28139 0.11862 0.0
C1472 C 0.96609 0.3312 0.11412 0.0
C1473 C 0.97419 0.38557 0.10545 0.0
H1474 H 0.96472 0.36228 0.087 0.0
C1475 C 1.01143 0.47521 0.08366 0.0
C1476 C 0.02888 0.47115 0.0787 0.0
C1477 C 0.99717 0.45271 0.08866 0.0
C1478 C 0.96745 0.36915 0.09214 0.0
H1479 H 0.88272 0.25886 0.113 0.0
H1480 H 0.90079 0.29978 0.10452 0.0
H1481 H 0.94226 0.32153 0.09546 0.0
H1482 H 0.04617 0.44107 0.07524 0.0
H1483 H 0.02091 0.40177 0.08384 0.0
H1484 H 0.99963 0.43322 0.10211 0.0
C1485 C 0.91644 0.30228 0.10851 0.0
C1486 C 0.95438 0.34581 0.09697 0.0
C1487 C 0.90608 0.27888 0.11336 0.0
C1488 C 0.03252 0.44469 0.07895 0.0
C1489 C 0.01791 0.42205 0.08385 0.0
C1490 C 0.98685 0.40894 0.1006 0.0
C1491 C 0.94652 0.32884 0.10886 0.0
C1492 C 0.95806 0.3537 0.1037 0.0
C1493 C 0.99983 0.4256 0.08874 0.0
C1494 C 0.98413 0.40099 0.09389 0.0
H1495 H 0.97194 0.31001 0.1228 0.0
H1496 H 0.98957 0.35102 0.11448 0.0
H1497 H 0.97721 0.39244 0.11058 0.0
H1498 H 1.00835 0.49544 0.08361 0.0
H1499 H 0.98345 0.45614 0.09238 0.0
C1500 C 0.61867 0.57413 0.0841 0.0
C1501 C 0.62015 0.59461 0.07912 0.0
C1502 C 0.64181 0.58454 0.08902 0.0
C1503 C 0.70374 0.65801 0.09683 0.0
H1504 H 0.73487 0.60532 0.10361 0.0
C1505 C 0.78316 0.69394 0.11965 0.0
C1506 C 0.80761 0.68722 0.11993 0.0
C1507 C 0.76106 0.68209 0.11459 0.0
C1508 C 0.72667 0.62046 0.10173 0.0
H1509 H 0.64681 0.64206 0.07544 0.0
H1510 H 0.68706 0.65992 0.08385 0.0
H1511 H 0.69457 0.5853 0.09504 0.0
H1512 H 0.82846 0.66325 0.11502 0.0
H1513 H 0.78996 0.64286 0.10601 0.0
H1514 H 0.7361 0.69339 0.10334 0.0
C1515 C 0.66801 0.63599 0.08407 0.0
C1516 C 0.70321 0.60881 0.09687 0.0
C1517 C 0.64495 0.62567 0.07921 0.0
C1518 C 0.80987 0.66883 0.11492 0.0
C1519 C 0.78762 0.65692 0.10981 0.0
C1520 C 0.72712 0.66962 0.10164 0.0
C1521 C 0.66682 0.61569 0.08908 0.0
C1522 C 0.69141 0.62747 0.09435 0.0
C1523 C 0.76285 0.66338 0.10959 0.0
C1524 C 0.73885 0.65102 0.1042 0.0
H1525 H 0.59981 0.55007 0.08416 0.0
H1526 H 0.63987 0.56829 0.09283 0.0
H1527 H 0.69509 0.67304 0.0951 0.0
H1528 H 0.78071 0.70801 0.12344 0.0
H1529 H 0.74215 0.6872 0.11469 0.0
C1530 C 0.05794 0.45787 0.45199 0.0
C1531 C 0.06473 0.48907 0.45228 0.0
C1532 C 0.07052 0.44787 0.44704 0.0
C1533 C 0.13334 0.47585 0.43439 0.0
H1534 H 0.0816 0.3917 0.4277 0.0
C1535 C 0.18092 0.41539 0.41678 0.0
C1536 C 0.16045 0.39588 0.41186 0.0
C1537 C 0.17031 0.42804 0.42167 0.0
C1538 C 0.0964 0.41539 0.42944 0.0
H1539 H 0.08956 0.53422 0.44749 0.0
H1540 H 0.11109 0.51655 0.43866 0.0
H1541 H 0.06065 0.41192 0.43587 0.0
H1542 H 0.11287 0.37421 0.40823 0.0
H1543 H 0.09476 0.39669 0.41653 0.0
H1544 H 0.1688 0.47943 0.42775 0.0
C1545 C 0.09653 0.49993 0.44238 0.0
C1546 C 0.08445 0.42691 0.43422 0.0
C1547 C 0.08398 0.51003 0.4474 0.0
C1548 C 0.1293 0.38923 0.41194 0.0
C1549 C 0.11881 0.40195 0.41676 0.0
C1550 C 0.1453 0.46433 0.42955 0.0
C1551 C 0.08993 0.46864 0.44214 0.0
C1552 C 0.10274 0.45722 0.43681 0.0
C1553 C 0.13901 0.42138 0.42174 0.0
C1554 C 0.12694 0.4339 0.427 0.0
H1555 H 0.04317 0.4411 0.45568 0.0
H1556 H 0.0653 0.42381 0.44713 0.0
H1557 H 0.14826 0.49919 0.43629 0.0
H1558 H 0.20506 0.4209 0.41684 0.0
H1559 H 0.18652 0.44262 0.42545 0.0
C1560 C 0.62451 0.63295 0.45242 0.0
C1561 C 0.59446 0.60639 0.45259 0.0
C1562 C 0.6331 0.65506 0.44739 0.0
C1563 C 0.63607 0.70702 0.43867 0.0
H1564 H 0.62643 0.6826 0.4203 0.0
C1565 C 0.66752 0.79557 0.41697 0.0
C1566 C 0.68591 0.79313 0.41199 0.0
C1567 C 0.65395 0.77249 0.42187 0.0
C1568 C 0.62917 0.68977 0.42541 0.0
H1569 H 0.55043 0.58132 0.44739 0.0
H1570 H 0.56589 0.61973 0.43839 0.0
H1571 H 0.60691 0.64235 0.4289 0.0
H1572 H 0.70513 0.76499 0.40836 0.0
H1573 H 0.68089 0.72453 0.41677 0.0
H1574 H 0.65853 0.75442 0.43519 0.0
C1575 C 0.5825 0.62363 0.44227 0.0
C1576 C 0.6178 0.66671 0.43033 0.0
C1577 C 0.57366 0.60165 0.44741 0.0
C1578 C 0.69062 0.7673 0.41205 0.0
C1579 C 0.67668 0.74405 0.41687 0.0
C1580 C 0.64697 0.73004 0.43375 0.0
C1581 C 0.61216 0.6509 0.44228 0.0
C1582 C 0.62165 0.67509 0.43702 0.0
C1583 C 0.65818 0.74631 0.42185 0.0
C1584 C 0.64417 0.72174 0.42706 0.0
H1585 H 0.64126 0.63706 0.45629 0.0
H1586 H 0.65629 0.67546 0.44747 0.0
H1587 H 0.63915 0.71422 0.44378 0.0
H1588 H 0.66356 0.81525 0.41706 0.0
H1589 H 0.63981 0.77491 0.42564 0.0
C1590 C 0.28401 0.90234 0.41878 0.0
C1591 C 0.2877 0.92314 0.41368 0.0
C1592 C 0.3065 0.9115 0.42381 0.0
C1593 C 0.38954 0.96673 0.42741 0.0
H1594 H 0.36485 0.95635 0.44576 0.0
C1595 C 0.44836 0.02208 0.45406 0.0
C1596 C 0.47388 0.01697 0.45438 0.0
C1597 C 0.42574 1.00822 0.44912 0.0
C1598 C 0.3721 0.95927 0.44066 0.0
H1599 H 0.31731 0.97017 0.40996 0.0
H1600 H 0.3567 0.98574 0.41859 0.0
H1601 H 0.32475 0.93602 0.43714 0.0
H1602 H 0.49638 0.99429 0.44959 0.0
H1603 H 0.45719 0.97078 0.44076 0.0
H1604 H 0.4369 0.99013 0.43092 0.0
C1605 C 0.33665 0.96232 0.41871 0.0
C1606 C 0.34913 0.94746 0.43572 0.0
C1607 C 0.31398 0.9534 0.41377 0.0
C1608 C 0.47691 0.99855 0.44948 0.0
C1609 C 0.45448 0.98509 0.44444 0.0
C1610 C 0.41251 0.97804 0.43234 0.0
C1611 C 0.33329 0.9415 0.42378 0.0
C1612 C 0.35758 0.95155 0.42904 0.0
C1613 C 0.42839 0.98943 0.44427 0.0
C1614 C 0.40407 0.97496 0.43902 0.0
H1615 H 0.26391 0.87895 0.41886 0.0
H1616 H 0.30323 0.89496 0.42767 0.0
H1617 H 0.39679 0.97006 0.4223 0.0
H1618 H 0.44565 0.03665 0.45768 0.0
H1619 H 0.40628 0.01251 0.44906 0.0
C1620 C 0.57549 1.00143 0.94669 0.0
C1621 C 0.59634 0.01873 0.95177 0.0
C1622 C 0.58462 0.9879 0.9417 0.0
C1623 C 0.62005 0.97987 0.92987 0.0
H1624 H 0.66451 0.93689 0.93501 0.0
C1625 C 0.69471 0.95499 0.91168 0.0
C1626 C 0.69099 0.92483 0.91165 0.0
C1627 C 0.6807 0.96387 0.91655 0.0
C1628 C 0.65192 0.94857 0.9335 0.0
H1629 H 0.64343 0.03642 0.95546 0.0
H1630 H 0.65899 0.01247 0.9469 0.0
H1631 H 0.64402 0.95711 0.94348 0.0
H1632 H 0.67086 0.88081 0.9169 0.0
H1633 H 0.64705 0.89674 0.92559 0.0
H1634 H 0.62868 0.97205 0.91989 0.0
C1635 C 0.63554 1.009 0.94677 0.0
C1636 C 0.64036 0.96035 0.93834 0.0
C1637 C 0.62665 0.02288 0.95166 0.0
C1638 C 0.674 0.90414 0.91678 0.0
C1639 C 0.66035 0.91325 0.92174 0.0
C1640 C 0.63202 0.9685 0.92503 0.0
C1641 C 0.61463 0.99115 0.94175 0.0
C1642 C 0.62463 0.97648 0.93659 0.0
C1643 C 0.66317 0.9431 0.92162 0.0
C1644 C 0.64843 0.95304 0.92678 0.0
H1645 H 0.55205 0.99797 0.94663 0.0
H1646 H 0.56801 0.97435 0.93788 0.0
H1647 H 0.60815 0.99226 0.92836 0.0
H1648 H 0.70801 0.97164 0.90785 0.0
H1649 H 0.68384 0.9872 0.91638 0.0
C1650 C 0.17637 0.8017 0.91696 0.0
C1651 C 0.1557 0.79854 0.91186 0.0
C1652 C 0.16681 0.77903 0.92196 0.0
C1653 C 0.13067 0.73589 0.93381 0.0
H1654 H 0.08552 0.64843 0.9287 0.0
C1655 C 0.05518 0.63616 0.95198 0.0
C1656 C 0.05899 0.60978 0.95204 0.0
C1657 C 0.06931 0.65913 0.94711 0.0
C1658 C 0.09829 0.67272 0.9302 0.0
H1659 H 0.1085 0.76986 0.90817 0.0
H1660 H 0.0922 0.73025 0.91676 0.0
H1661 H 0.1064 0.68917 0.92022 0.0
H1662 H 0.07938 0.58605 0.94684 0.0
H1663 H 0.10334 0.62589 0.93816 0.0
H1664 H 0.1218 0.71942 0.9438 0.0
C1665 C 0.11582 0.74995 0.91688 0.0
C1666 C 0.11007 0.69606 0.92535 0.0
C1667 C 0.12516 0.77276 0.91197 0.0
C1668 C 0.07617 0.6062 0.94694 0.0
C1669 C 0.08991 0.62901 0.94198 0.0
C1670 C 0.11845 0.71254 0.93866 0.0
C1671 C 0.13653 0.75263 0.92192 0.0
C1672 C 0.12611 0.72793 0.92709 0.0
C1673 C 0.087 0.65598 0.94208 0.0
C1674 C 0.10183 0.68068 0.93692 0.0
H1675 H 0.19999 0.8214 0.91702 0.0
H1676 H 0.18327 0.78178 0.92579 0.0
H1677 H 0.1428 0.76019 0.93531 0.0
H1678 H 0.04173 0.63941 0.95579 0.0
H1679 H 0.06613 0.6793 0.94726 0.0
C1680 C 0.44538 0.45296 0.95271 0.0
C1681 C 0.47032 0.48397 0.95295 0.0
C1682 C 0.42261 0.44332 0.94778 0.0
C1683 C 0.36787 0.43627 0.93941 0.0
H1684 H 0.39112 0.45196 0.92099 0.0
C1685 C 0.27728 0.40366 0.91802 0.0
C1686 C 0.28145 0.38812 0.91266 0.0
C1687 C 0.30013 0.417 0.92298 0.0
C1688 C 0.38425 0.44746 0.92611 0.0
H1689 H 0.49176 0.52879 0.948 0.0
H1690 H 0.45226 0.51162 0.93921 0.0
H1691 H 0.43183 0.4726 0.92948 0.0
H1692 H 0.31234 0.37347 0.90843 0.0
H1693 H 0.3523 0.39724 0.91696 0.0
H1694 H 0.32031 0.41101 0.93605 0.0
C1695 C 0.45011 0.49497 0.94294 0.0
C1696 C 0.40757 0.45948 0.93098 0.0
C1697 C 0.47274 0.50481 0.94796 0.0
C1698 C 0.30861 0.38569 0.91244 0.0
C1699 C 0.3316 0.39943 0.91732 0.0
C1700 C 0.34453 0.4247 0.93455 0.0
C1701 C 0.42449 0.46421 0.94286 0.0
C1702 C 0.3997 0.45358 0.93768 0.0
C1703 C 0.32777 0.41537 0.92264 0.0
C1704 C 0.35244 0.42969 0.92784 0.0
H1705 H 0.44306 0.43619 0.95643 0.0
H1706 H 0.40354 0.41935 0.9478 0.0
H1707 H 0.361 0.43154 0.94453 0.0
H1708 H 0.25654 0.40578 0.91834 0.0
H1709 H 0.29645 0.4291 0.92702 0.0
C1710 C 0.95898 0.68989 0.61868 0.0
C1711 C 0.92834 0.68484 0.61895 0.0
C1712 C 0.96767 0.67555 0.61385 0.0
C1713 C 0.97219 0.62578 0.60565 0.0
H1714 H 0.95895 0.63583 0.5872 0.0
C1715 C 1.00444 0.56877 0.58389 0.0
C1716 C 0.02193 0.58987 0.57886 0.0
C1717 C 0.99087 0.57774 0.58891 0.0
C1718 C 0.96265 0.63267 0.59234 0.0
H1719 H 0.88323 0.66201 0.61412 0.0
H1720 H 0.89884 0.63772 0.60545 0.0
H1721 H 0.9386 0.65626 0.59567 0.0
H1722 H 0.03996 0.63726 0.57531 0.0
H1723 H 0.01575 0.65245 0.58389 0.0
H1724 H 0.99645 0.60239 0.60232 0.0
C1725 C 0.91585 0.65226 0.60912 0.0
C1726 C 0.95083 0.64421 0.59718 0.0
C1727 C 0.90692 0.66618 0.61406 0.0
C1728 C 0.02624 0.62026 0.57905 0.0
C1729 C 1.01224 0.62896 0.58396 0.0
C1730 C 0.98352 0.61375 0.60081 0.0
C1731 C 0.94622 0.65642 0.60903 0.0
C1732 C 0.95602 0.64147 0.60389 0.0
C1733 C 0.99421 0.60781 0.58892 0.0
C1734 C 0.97944 0.61763 0.59409 0.0
H1735 H 0.97618 0.7045 0.62232 0.0
H1736 H 0.99136 0.6797 0.61385 0.0
H1737 H 0.97635 0.6231 0.61079 0.0
H1738 H 1.00089 0.54527 0.5839 0.0
H1739 H 0.97721 0.56097 0.59269 0.0
C1740 C 0.45731 0.4426 0.57876 0.0
C1741 C 0.48861 0.46681 0.57852 0.0
C1742 C 0.44685 0.41993 0.58371 0.0
C1743 C 0.47377 0.38424 0.59649 0.0
H1744 H 0.38932 0.35183 0.60293 0.0
C1745 C 0.41285 0.27646 0.61429 0.0
C1746 C 0.39372 0.27796 0.61922 0.0
C1747 C 0.42524 0.29928 0.60928 0.0
C1748 C 0.41307 0.36068 0.60126 0.0
H1749 H 0.53341 0.48665 0.58343 0.0
H1750 H 0.51495 0.44732 0.59227 0.0
H1751 H 0.41006 0.39317 0.59478 0.0
H1752 H 0.3722 0.30423 0.6227 0.0
H1753 H 0.39389 0.34381 0.61416 0.0
H1754 H 0.47687 0.35212 0.60317 0.0
C1755 C 0.4986 0.4455 0.5885 0.0
C1756 C 0.42491 0.38427 0.59648 0.0
C1757 C 0.50915 0.46826 0.58348 0.0
C1758 C 0.38682 0.30232 0.61897 0.0
C1759 C 0.39918 0.32502 0.61402 0.0
C1760 C 0.46191 0.3606 0.60131 0.0
C1761 C 0.46724 0.42092 0.58868 0.0
C1762 C 0.45538 0.3964 0.59398 0.0
C1763 C 0.41859 0.32396 0.60908 0.0
C1764 C 0.43135 0.3485 0.60378 0.0
H1765 H 0.44086 0.44076 0.575 0.0
H1766 H 0.42275 0.40123 0.58357 0.0
H1767 H 0.49721 0.39268 0.59466 0.0
H1768 H 0.41862 0.25799 0.61436 0.0
H1769 H 0.4398 0.29742 0.60554 0.0
C1770 C 0.81295 0.17458 0.61573 0.0
C1771 C 0.8088 0.15374 0.62086 0.0
C1772 C 0.79051 0.16567 0.61068 0.0
C1773 C 0.70683 0.11175 0.60737 0.0
H1774 H 0.7293 0.12148 0.58889 0.0
C1775 C 0.61638 0.08003 0.58593 0.0
C1776 C 0.61861 0.06166 0.58091 0.0
C1777 C 0.63967 0.09353 0.59081 0.0
C1778 C 0.72266 0.11873 0.59403 0.0
H1779 H 0.7787 0.10676 0.62455 0.0
H1780 H 0.73956 0.09163 0.61589 0.0
H1781 H 0.77043 0.14127 0.5973 0.0
H1782 H 0.64641 0.04217 0.57722 0.0
H1783 H 0.68713 0.06624 0.58558 0.0
H1784 H 0.65909 0.08904 0.60411 0.0
C1785 C 0.75984 0.1149 0.61577 0.0
C1786 C 0.74624 0.13024 0.59885 0.0
C1787 C 0.78241 0.12356 0.62071 0.0
C1788 C 0.64421 0.0566 0.58096 0.0
C1789 C 0.66766 0.07051 0.58573 0.0
C1790 C 0.6833 0.10072 0.60256 0.0
C1791 C 0.76336 0.1359 0.61073 0.0
C1792 C 0.73859 0.12635 0.60558 0.0
C1793 C 0.66581 0.08924 0.59071 0.0
C1794 C 0.69088 0.10353 0.59583 0.0
H1795 H 0.83311 0.19793 0.61569 0.0
H1796 H 0.79394 0.18234 0.60684 0.0
H1797 H 0.70017 0.10861 0.61252 0.0
H1798 H 0.59685 0.08419 0.58605 0.0
H1799 H 0.63751 0.10777 0.5946 0.0
C1800 C 0.84437 0.73763 0.75034 0.0
C1801 C 0.82418 0.72181 0.74506 0.0
C1802 C 0.8351 0.75089 0.75536 0.0
C1803 C 0.78141 0.78114 0.75853 0.0
H1804 H 0.78989 0.76685 0.77699 0.0
C1805 C 0.7494 0.83905 0.78004 0.0
C1806 C 0.7313 0.81845 0.78509 0.0
C1807 C 0.76264 0.82925 0.77512 0.0
C1808 C 0.78744 0.77113 0.77186 0.0
H1809 H 0.77798 0.70623 0.74107 0.0
H1810 H 0.76219 0.72972 0.7497 0.0
H1811 H 0.80986 0.74586 0.76858 0.0
H1812 H 0.71195 0.77113 0.78878 0.0
H1813 H 0.7354 0.75437 0.78033 0.0
H1814 H 0.75878 0.80622 0.7618 0.0
C1815 C 0.78526 0.73227 0.74995 0.0
C1816 C 0.79909 0.75929 0.76704 0.0
C1817 C 0.79427 0.71864 0.74502 0.0
C1818 C 0.72615 0.78773 0.78502 0.0
C1819 C 0.73972 0.77815 0.78019 0.0
C1820 C 0.7702 0.7934 0.76335 0.0
C1821 C 0.80561 0.74884 0.75515 0.0
C1822 C 0.7957 0.76365 0.76031 0.0
C1823 C 0.7583 0.79878 0.77519 0.0
C1824 C 0.77256 0.78807 0.77007 0.0
H1825 H 0.8675 0.74032 0.75051 0.0
H1826 H 0.85128 0.76342 0.75932 0.0
H1827 H 0.77869 0.78517 0.75339 0.0
H1828 H 0.75365 0.8628 0.77995 0.0
H1829 H 0.77679 0.8457 0.77133 0.0
C1830 C 0.24804 0.94249 0.78039 0.0
C1831 C 0.26832 0.94616 0.7856 0.0
C1832 C 0.2575 0.96533 0.77542 0.0
C1833 C 0.29318 1.00926 0.76373 0.0
H1834 H 0.33729 0.09666 0.76889 0.0
C1835 C 0.36639 0.10893 0.74542 0.0
C1836 C 0.36301 0.13556 0.74551 0.0
C1837 C 0.35273 0.08598 0.7503 0.0
C1838 C 0.3248 0.07239 0.76737 0.0
H1839 H 0.31476 0.97598 0.78956 0.0
H1840 H 0.33095 0.01578 0.78102 0.0
H1841 H 0.31676 0.05586 0.77734 0.0
H1842 H 0.34376 0.15966 0.75097 0.0
H1843 H 0.3204 0.11972 0.75964 0.0
H1844 H 0.30175 0.02578 0.75376 0.0
C1845 C 0.30766 0.99558 0.78078 0.0
C1846 C 0.31325 0.049 0.77221 0.0
C1847 C 0.29842 0.97265 0.78566 0.0
C1848 C 0.34663 0.13932 0.75075 0.0
C1849 C 0.33326 0.11645 0.75571 0.0
C1850 C 0.30509 0.03265 0.75889 0.0
C1851 C 0.2873 0.99237 0.77562 0.0
C1852 C 0.2976 0.01714 0.77045 0.0
C1853 C 0.33582 0.08929 0.75548 0.0
C1854 C 0.32136 0.06451 0.76065 0.0
H1855 H 0.22476 0.92226 0.7802 0.0
H1856 H 0.24128 0.96215 0.7715 0.0
H1857 H 0.28136 0.98498 0.76222 0.0
H1858 H 0.37924 0.10555 0.7415 0.0
H1859 H 0.35568 0.06569 0.75003 0.0
C1860 C 0.96905 0.28513 0.74867 0.0
C1861 C 0.95119 0.2536 0.74679 0.0
C1862 C 0.99153 0.29428 0.75365 0.0
C1863 C 0.04759 0.27864 0.7614 0.0
H1864 H 0.04043 0.32232 0.77654 0.0
C1865 C 0.13972 0.32474 0.7828 0.0
C1866 C 0.14467 0.35178 0.78613 0.0
C1867 C 0.11586 0.31058 0.77805 0.0
C1868 C 0.0433 0.31072 0.77231 0.0
H1869 H 0.94326 0.20695 0.74856 0.0
H1870 H 0.98363 0.22324 0.7572 0.0
H1871 H 0.99953 0.30177 0.76822 0.0
H1872 H 0.12967 0.38598 0.7869 0.0
H1873 H 0.08983 0.36284 0.77842 0.0
H1874 H 0.09213 0.28893 0.76528 0.0
C1875 C 0.97967 0.24069 0.75486 0.0
C1876 C 0.01953 0.29859 0.76757 0.0
C1877 C 0.95648 0.23135 0.74997 0.0
C1878 C 0.12628 0.36506 0.78443 0.0
C1879 C 0.10301 0.35138 0.77962 0.0
C1880 C 0.07182 0.29138 0.76609 0.0
C1881 C 0.99729 0.27226 0.75677 0.0
C1882 C 0.0215 0.28268 0.76203 0.0
C1883 C 0.09678 0.32346 0.77644 0.0
C1884 C 0.0703 0.30808 0.77158 0.0
H1885 H 0.96558 0.3028 0.74628 0.0
H1886 H 1.00483 0.31876 0.755 0.0
H1887 H 0.04978 0.26663 0.75715 0.0
H1888 H 0.15331 0.3138 0.78408 0.0
H1889 H 0.11182 0.28903 0.77579 0.0
C1890 C 0.29136 0.35667 0.28526 0.0
C1891 C 0.2599 0.34902 0.28544 0.0
C1892 C 0.30232 0.34492 0.28033 0.0
C1893 C 0.2771 0.2832 0.26747 0.0
H1894 H 0.36094 0.33785 0.26094 0.0
C1895 C 0.34059 0.24024 0.2496 0.0
C1896 C 0.35914 0.2612 0.24464 0.0
C1897 C 0.32768 0.24994 0.2546 0.0
C1898 C 0.33737 0.32225 0.26264 0.0
H1899 H 0.21527 0.32335 0.28049 0.0
H1900 H 0.23459 0.30322 0.2717 0.0
H1901 H 0.33922 0.35689 0.26921 0.0
H1902 H 0.37899 0.30879 0.2411 0.0
H1903 H 0.35625 0.32545 0.24966 0.0
H1904 H 0.27513 0.24884 0.26071 0.0
C1905 C 0.25068 0.31786 0.27549 0.0
C1906 C 0.32499 0.33309 0.26748 0.0
C1907 C 0.23963 0.32958 0.28049 0.0
C1908 C 0.36479 0.29204 0.24484 0.0
C1909 C 0.35187 0.30167 0.2498 0.0
C1910 C 0.2895 0.27234 0.26259 0.0
C1911 C 0.28227 0.32546 0.27534 0.0
C1912 C 0.29474 0.31375 0.27 0.0
C1913 C 0.33315 0.28085 0.25477 0.0
C1914 C 0.31984 0.29177 0.26009 0.0
H1915 H 0.30764 0.37162 0.289 0.0
H1916 H 0.32659 0.35089 0.28049 0.0
H1917 H 0.25385 0.26749 0.26931 0.0
H1918 H 0.33583 0.21631 0.24956 0.0
H1919 H 0.31369 0.23332 0.25838 0.0
C1920 C 0.72535 0.97108 0.28568 0.0
C1921 C 0.73166 0.94633 0.28588 0.0
C1922 C 0.73816 0.99388 0.28076 0.0
C1923 C 0.80069 0.02836 0.26803 0.0
H1924 H 0.74964 0.0618 0.26146 0.0
C1925 C 0.84882 0.13611 0.25029 0.0
C1926 C 0.82831 0.13525 0.24539 0.0
C1927 C 0.83814 0.11302 0.25523 0.0
C1928 C 0.76424 0.05261 0.26317 0.0
H1929 H 0.75586 0.92567 0.28099 0.0
H1930 H 0.77775 0.96524 0.27222 0.0
H1931 H 0.72855 0.0207 0.26967 0.0
H1932 H 0.78053 0.10974 0.24186 0.0
H1933 H 0.76228 0.06942 0.25024 0.0
H1934 H 0.83608 0.05986 0.26133 0.0
C1935 C 0.76342 0.9674 0.27598 0.0
C1936 C 0.75222 0.02921 0.26797 0.0
C1937 C 0.75067 0.94454 0.28096 0.0
C1938 C 0.79702 0.11103 0.24554 0.0
C1939 C 0.78644 0.08798 0.25041 0.0
C1940 C 0.81272 0.05179 0.26317 0.0
C1941 C 0.7573 0.99241 0.27582 0.0
C1942 C 0.77025 0.01678 0.27051 0.0
C1943 C 0.80671 0.08865 0.25536 0.0
C1944 C 0.7946 0.06421 0.26066 0.0
H1945 H 0.71076 0.97312 0.28939 0.0
H1946 H 0.7333 0.01296 0.28091 0.0
H1947 H 0.81542 0.01963 0.2699 0.0
H1948 H 0.87307 0.15453 0.2503 0.0
H1949 H 0.85439 0.11455 0.25899 0.0
C1950 C 0.9748 0.72347 0.24644 0.0
C1951 C 0.95043 0.73034 0.24635 0.0
C1952 C 0.99772 0.73561 0.25134 0.0
C1953 C 0.0334 0.79727 0.26425 0.0
H1954 H 0.06478 0.74416 0.27065 0.0
C1955 C 0.1399 0.84174 0.28226 0.0
C1956 C 0.13768 0.8207 0.28718 0.0
C1957 C 0.11742 0.83189 0.2772 0.0
C1958 C 0.0562 0.75933 0.26898 0.0
H1959 H 0.93066 0.75494 0.25142 0.0
H1960 H 0.97045 0.7757 0.26015 0.0
H1961 H 0.02396 0.72445 0.26237 0.0
H1962 H 0.11044 0.77288 0.29063 0.0
H1963 H 0.07136 0.75601 0.28199 0.0
H1964 H 0.06525 0.83186 0.27106 0.0
C1965 C 0.97219 0.76142 0.25632 0.0
C1966 C 0.03295 0.74811 0.26414 0.0
C1967 C 0.94921 0.74931 0.25136 0.0
C1968 C 0.11286 0.78969 0.28691 0.0
C1969 C 0.09048 0.77994 0.28191 0.0
C1970 C 0.05672 0.80852 0.26914 0.0
C1971 C 0.99678 0.75467 0.25638 0.0
C1972 C 0.0212 0.76686 0.26168 0.0
C1973 C 0.09239 0.80078 0.27696 0.0
C1974 C 0.06836 0.78963 0.27159 0.0
H1975 H 0.97643 0.70891 0.24265 0.0
H1976 H 0.01646 0.73028 0.25112 0.0
H1977 H 0.02521 0.81255 0.26244 0.0
H1978 H 0.15881 0.86578 0.28234 0.0
H1979 H 0.11986 0.84855 0.27345 0.0
C1980 C 0.51503 0.07241 0.03629 0.0
C1981 C 0.51801 0.0558 0.0416 0.0
C1982 C 0.52339 0.06893 0.02994 0.0
C1983 C 0.53305 0.01416 0.01937 0.0
H1984 H 0.57362 0.08575 1.00767 0.0
C1985 C 0.57833 1.00642 0.9938 0.0
C1986 C 0.575 0.02291 0.98851 0.0
C1987 C 0.57074 0.01033 1.00019 0.0
C1988 C 0.56188 0.06547 1.01084 0.0
H1989 H 0.53257 0.02277 0.04445 0.0
H1990 H 0.54743 0.01653 0.03321 0.0
H1991 H 0.56445 0.09332 0.01915 0.0
H1992 H 0.56074 0.05627 0.98575 0.0
H1993 H 0.54716 0.06321 0.99705 0.0
H1994 H 0.53041 0.9863 1.01107 0.0
C1995 C 0.53838 0.0322 0.03401 0.0
C1996 C 0.55677 0.0698 0.01744 0.0
C1997 C 0.5301 0.03587 0.04044 0.0
C1998 C 0.56348 0.04327 0.98974 0.0
C1999 C 0.55592 0.04733 0.9962 0.0
C2000 C 0.53815 1.00983 1.01278 0.0
C2001 C 0.53495 0.04865 0.02869 0.0
C2002 C 0.54221 0.04419 0.02178 0.0
C2003 C 0.55957 0.03089 1.0015 0.0
C2004 C 0.55266 0.03544 1.00843 0.0
H2005 H 0.50576 0.08797 0.03703 0.0
H2006 H 0.51993 0.08157 0.02597 0.0
H2007 H 0.52126 0.99388 0.02254 0.0
H2008 H 0.58721 0.99058 0.99301 0.0
H2009 H 0.57436 0.99771 1.00414 0.0
C2010 C 0.03712 0.55014 0.9899 0.0
C2011 C 0.05717 0.58207 0.98863 0.0
C2012 C 0.03402 0.53846 0.99635 0.0
C2013 C 0.07382 0.55855 1.01273 0.0
H2014 H 0.99154 0.50074 0.01956 0.0
C2015 C 0.05119 0.52649 0.04058 0.0
C2016 C 0.03129 0.49462 0.04193 0.0
C2017 C 0.05433 0.53771 0.03409 0.0
C2018 C 0.01475 0.51674 0.01772 0.0
H2019 H 0.08993 0.62662 0.99307 0.0
H2020 H 0.08441 0.60656 1.00415 0.0
H2021 H 0.99739 0.51703 1.00805 0.0
H2022 H 0.9989 0.44967 0.0376 0.0
H2023 H 1.00445 0.46899 0.02643 0.0
H2024 H 0.09117 0.55833 0.0224 0.0
C2025 C 0.07132 0.59029 1.00025 0.0
C2026 C 0.01809 0.52593 1.0111 0.0
C2027 C 0.07429 0.60184 0.99387 0.0
C2028 C 1.0144 0.47441 0.03673 0.0
C2029 C 0.0174 0.48553 0.03031 0.0
C2030 C 0.07047 0.54939 0.01935 0.0
C2031 C 0.05112 0.55851 1.0016 0.0
C2032 C 0.04766 0.54705 1.00853 0.0
C2033 C 0.03743 0.51726 0.02888 0.0
C2034 C 0.0409 0.52834 0.02193 0.0
H2035 H 0.0236 0.53442 0.98595 0.0
H2036 H 0.01836 0.51377 0.99722 0.0
H2037 H 0.09703 0.57455 1.0109 0.0
H2038 H 0.06449 0.54255 0.0445 0.0
H2039 H 0.06983 0.56238 0.03316 0.0
C2040 C 0.5553 0.55676 0.04151 0.0
C2041 C 0.58752 0.56968 0.04256 0.0
C2042 C 0.54289 0.54817 0.03511 0.0
C2043 C 0.56211 0.53022 0.01849 0.0
H2044 H 0.50152 0.55212 1.01218 0.0
C2045 C 0.52738 0.52062 0.99085 0.0
C2046 C 0.49529 0.50744 0.98962 0.0
C2047 C 0.53903 0.52898 0.9973 0.0
C2048 C 0.51829 0.54563 1.01388 0.0
H2049 H 0.63186 0.58346 0.0378 0.0
H2050 H 0.61055 0.56893 0.02682 0.0
H2051 H 0.51892 0.56259 0.02363 0.0
H2052 H 0.45034 0.49324 0.99413 0.0
H2053 H 0.47039 0.50752 1.00524 0.0
H2054 H 0.56158 0.51335 1.00875 0.0
C2055 C 0.59462 0.5649 0.03084 0.0
C2056 C 0.52812 0.55149 0.02046 0.0
C2057 C 0.60688 0.57348 0.03716 0.0
C2058 C 0.47525 0.50337 0.99491 0.0
C2059 C 0.48677 0.51178 1.00129 0.0
C2060 C 0.55232 0.5244 1.01192 0.0
C2061 C 0.56252 0.55217 0.0297 0.0
C2062 C 0.55028 0.544 0.02284 0.0
C2063 C 0.51875 0.52451 1.0026 0.0
C2064 C 0.53031 0.53205 1.00952 0.0
H2065 H 0.53988 0.55365 0.04558 0.0
H2066 H 0.51799 0.53827 0.0344 0.0
H2067 H 0.57889 0.52372 0.02018 0.0
H2068 H 0.54331 0.52397 0.98688 0.0
H2069 H 0.56386 0.53898 0.99814 0.0
C2070 C 0.01766 0.58099 0.5366 0.0
C2071 C 0.03002 0.57302 0.54202 0.0
C2072 C 0.02132 0.57313 0.53021 0.0
C2073 C 0.03674 0.5191 0.52063 0.0
H2074 H 0.05379 0.57878 0.50655 0.0
C2075 C 0.06788 0.49961 0.49451 0.0
C2076 C 0.0555 0.50738 0.48906 0.0
C2077 C 0.06423 0.50768 0.50088 0.0
C2078 C 0.04858 0.56169 0.5104 0.0
H2079 H 0.05592 0.55036 0.54499 0.0
H2080 H 0.06255 0.53644 0.53369 0.0
H2081 H 0.05053 0.59306 0.5179 0.0
H2082 H 0.02967 0.53001 0.48602 0.0
H2083 H 0.02305 0.5443 0.49729 0.0
H2084 H 0.03478 0.48772 0.51314 0.0
C2085 C 0.04981 0.54876 0.53444 0.0
C2086 C 0.04684 0.5699 0.51692 0.0
C2087 C 0.04617 0.55679 0.5409 0.0
C2088 C 0.03943 0.52373 0.49013 0.0
C2089 C 0.03578 0.53196 0.49657 0.0
C2090 C 0.03847 0.51089 0.51411 0.0
C2091 C 0.03751 0.55702 0.52902 0.0
C2092 C 0.04085 0.54869 0.52212 0.0
C2093 C 0.04802 0.52379 0.50202 0.0
C2094 C 0.04451 0.53211 0.50891 0.0
H2095 H 1.00492 0.59336 0.53729 0.0
H2096 H 1.01098 0.57932 0.5262 0.0
H2097 H 0.03154 0.50201 0.52448 0.0
H2098 H 0.08059 0.48718 0.49386 0.0
H2099 H 0.07456 0.50159 0.50491 0.0
C2100 C 0.58516 0.60718 0.49484 0.0
C2101 C 0.57597 0.58732 0.48934 0.0
C2102 C 0.57728 0.595 0.5012 0.0
C2103 C 0.52176 0.52488 0.51054 0.0
H2104 H 0.58277 0.5633 0.52456 0.0
C2105 C 0.50146 0.46986 0.53633 0.0
C2106 C 0.51038 0.48953 0.54186 0.0
C2107 C 0.50971 0.48223 0.53 0.0
C2108 C 0.56532 0.55257 0.52072 0.0
H2109 H 0.55094 0.53907 0.48615 0.0
H2110 H 0.53719 0.51744 0.49734 0.0
H2111 H 0.59671 0.58279 0.51331 0.0
H2112 H 0.53548 0.53767 0.54512 0.0
H2113 H 0.54985 0.55966 0.53397 0.0
H2114 H 0.49036 0.49468 0.51794 0.0
C2115 C 0.55045 0.54257 0.49672 0.0
C2116 C 0.57332 0.56368 0.51426 0.0
C2117 C 0.55845 0.55487 0.49031 0.0
C2118 C 0.52815 0.52201 0.54094 0.0
C2119 C 0.5365 0.53451 0.53456 0.0
C2120 C 0.51376 0.51379 0.51699 0.0
C2121 C 0.55993 0.56256 0.50224 0.0
C2122 C 0.55164 0.54999 0.50908 0.0
C2123 C 0.52714 0.5147 0.529 0.0
C2124 C 0.53545 0.52742 0.52217 0.0
H2125 H 0.59852 0.63234 0.49425 0.0
H2126 H 0.58446 0.61113 0.50531 0.0
H2127 H 0.50431 0.51415 0.5067 0.0
H2128 H 0.48795 0.44468 0.53688 0.0
H2129 H 0.50265 0.46622 0.52587 0.0
C2130 C 0.55155 0.03948 0.54367 0.0
C2131 C 0.58002 0.04008 0.54455 0.0
C2132 C 0.53901 0.03639 0.53731 0.0
C2133 C 0.54307 0.01169 0.52026 0.0
H2134 H 0.52453 0.07594 0.51484 0.0
C2135 C 0.52886 0.03276 0.49272 0.0
C2136 C 0.5058 0.04034 0.4911 0.0
C2137 C 0.53689 0.03206 0.49933 0.0
C2138 C 0.52912 0.05748 0.51627 0.0
H2139 H 0.61686 0.03638 0.5396 0.0
H2140 H 0.59472 0.03011 0.52864 0.0
H2141 H 0.53659 0.07246 0.52635 0.0
H2142 H 0.47365 0.05386 0.49513 0.0
H2143 H 0.48697 0.05194 0.50656 0.0
H2144 H 0.53553 0.99652 0.51022 0.0
C2145 C 0.58208 0.03223 0.53277 0.0
C2146 C 0.53597 0.05548 0.52288 0.0
C2147 C 0.59482 0.03593 0.53906 0.0
C2148 C 0.49157 0.04796 0.4962 0.0
C2149 C 0.49937 0.04703 0.50278 0.0
C2150 C 0.53592 0.01347 0.51365 0.0
C2151 C 0.55445 0.03315 0.53178 0.0
C2152 C 0.54343 0.03283 0.52494 0.0
C2153 C 0.52191 0.03877 0.50446 0.0
C2154 C 0.52921 0.03664 0.51154 0.0
H2155 H 0.5399 0.04296 0.54783 0.0
H2156 H 0.51759 0.03708 0.53669 0.0
H2157 H 0.54853 0.99383 0.5217 0.0
H2158 H 0.54028 0.02685 0.48889 0.0
H2159 H 0.55481 0.02618 0.5004 0.0
C2160 C 0.21481 0.36713 0.32293 0.0
C2161 C 0.2439 0.36944 0.32181 0.0
C2162 C 0.2059 0.36971 0.32937 0.0
C2163 C 0.23631 0.39707 0.34622 0.0
H2164 H 0.1577 0.32722 0.35209 0.0
C2165 C 0.20464 0.37621 0.37392 0.0
C2166 C 0.1735 0.36642 0.37557 0.0
C2167 C 0.21316 0.37655 0.36731 0.0
C2168 C 0.17954 0.34718 0.35054 0.0
H2169 H 0.28711 0.37794 0.32638 0.0
H2170 H 0.27209 0.38338 0.33748 0.0
H2171 H 0.17192 0.33176 0.34049 0.0
H2172 H 0.12671 0.34812 0.37165 0.0
H2173 H 0.14147 0.34934 0.36024 0.0
H2174 H 0.24397 0.41271 0.35622 0.0
C2175 C 0.25599 0.37935 0.33348 0.0
C2176 C 0.1876 0.34979 0.34387 0.0
C2177 C 0.26455 0.37615 0.32712 0.0
C2178 C 0.15094 0.35585 0.37054 0.0
C2179 C 0.15941 0.35637 0.36397 0.0
C2180 C 0.22812 0.39466 0.35287 0.0
C2181 C 0.22628 0.37532 0.33472 0.0
C2182 C 0.2162 0.37459 0.34164 0.0
C2183 C 0.1907 0.36718 0.36224 0.0
C2184 C 0.19972 0.36954 0.35515 0.0
H2185 H 0.1984 0.36162 0.31892 0.0
H2186 H 0.18287 0.36662 0.33019 0.0
H2187 H 0.25848 0.41652 0.34464 0.0
H2188 H 0.2225 0.38444 0.3777 0.0
H2189 H 0.23739 0.38446 0.36618 0.0
C2190 C 0.71051 0.8619 0.37432 0.0
C2191 C 0.71892 0.83926 0.37576 0.0
C2192 C 0.7101 0.87086 0.36777 0.0
C2193 C 0.73662 0.86572 0.35074 0.0
H2194 H 0.67054 0.88177 0.34544 0.0
C2195 C 0.71463 0.88401 0.32338 0.0
C2196 C 0.71483 0.91225 0.3224 0.0
C2197 C 0.71235 0.87227 0.32979 0.0
C2198 C 0.68906 0.87724 0.34685 0.0
H2199 H 0.7346 0.80917 0.37152 0.0
H2200 H 0.73309 0.82396 0.36022 0.0
H2201 H 0.67439 0.86939 0.35692 0.0
H2202 H 0.71117 0.94944 0.32721 0.0
H2203 H 0.70619 0.92855 0.33828 0.0
H2204 H 0.75094 0.87324 0.34062 0.0
C2205 C 0.72729 0.83536 0.36407 0.0
C2206 C 0.69152 0.87049 0.35345 0.0
C2207 C 0.72797 0.82668 0.37058 0.0
C2208 C 0.71103 0.92757 0.32784 0.0
C2209 C 0.70808 0.91557 0.33418 0.0
C2210 C 0.73388 0.87206 0.34413 0.0
C2211 C 0.71793 0.85723 0.36254 0.0
C2212 C 0.7155 0.86487 0.35551 0.0
C2213 C 0.7095 0.88825 0.33526 0.0
C2214 C 0.71026 0.87816 0.34212 0.0
H2215 H 0.70348 0.87203 0.37822 0.0
H2216 H 0.70336 0.88825 0.36681 0.0
H2217 H 0.75574 0.86209 0.35211 0.0
H2218 H 0.71783 0.87198 0.31926 0.0
H2219 H 0.71341 0.85107 0.33049 0.0
C2220 C 0.19731 0.85663 0.32506 0.0
C2221 C 0.16493 0.83999 0.32396 0.0
C2222 C 0.20908 0.8647 0.33151 0.0
C2223 C 0.18559 0.84299 0.34903 0.0
H2224 H 0.25449 0.9258 0.35286 0.0
C2225 C 0.22464 0.88872 0.37586 0.0
C2226 C 0.25709 0.90538 0.37688 0.0
C2227 C 0.21251 0.88064 0.36943 0.0
C2228 C 0.23535 0.90246 0.35188 0.0
H2229 H 0.11957 0.81891 0.32873 0.0
H2230 H 0.13984 0.83298 0.3398 0.0
H2231 H 0.2369 0.91148 0.34151 0.0
H2232 H 0.30217 0.9264 0.37199 0.0
H2233 H 0.28131 0.91229 0.36097 0.0
H2234 H 0.18407 0.83395 0.35939 0.0
C2235 C 0.15631 0.83949 0.33578 0.0
C2236 C 0.22538 0.89424 0.34536 0.0
C2237 C 0.14469 0.83162 0.32939 0.0
C2238 C 0.27701 0.9137 0.37139 0.0
C2239 C 0.26505 0.9058 0.36503 0.0
C2240 C 0.19556 0.8512 0.35555 0.0
C2241 C 0.18861 0.85604 0.33695 0.0
C2242 C 0.20035 0.8644 0.34385 0.0
C2243 C 0.23269 0.8893 0.36394 0.0
C2244 C 0.22065 0.88101 0.35706 0.0
H2245 H 0.21341 0.86339 0.32096 0.0
H2246 H 0.23414 0.87737 0.33225 0.0
H2247 H 0.16645 0.81965 0.34804 0.0
H2248 H 0.20877 0.882 0.38 0.0
H2249 H 0.18741 0.86797 0.36874 0.0
C2250 C 0.74238 0.84253 0.8269 0.0
C2251 C 0.72409 0.84318 0.82166 0.0
C2252 C 0.73883 0.85089 0.83325 0.0
C2253 C 0.68228 0.85605 0.8441 0.0
H2254 H 0.7547 0.90178 0.85539 0.0
C2255 C 0.67407 0.90043 0.86981 0.0
C2256 C 0.69256 0.89946 0.87497 0.0
C2257 C 0.67757 0.8927 0.86339 0.0
C2258 C 0.73421 0.88859 0.85234 0.0
H2259 H 0.68795 0.85364 0.81894 0.0
H2260 H 0.68154 0.8685 0.83018 0.0
H2261 H 0.76185 0.89309 0.84386 0.0
H2262 H 0.72898 0.88907 0.87748 0.0
H2263 H 0.73524 0.8753 0.86614 0.0
H2264 H 0.65464 0.85152 0.85259 0.0
C2265 C 0.69864 0.86128 0.82932 0.0
C2266 C 0.73829 0.88375 0.84571 0.0
C2267 C 0.7024 0.85303 0.82289 0.0
C2268 C 0.71439 0.88994 0.87359 0.0
C2269 C 0.71807 0.88231 0.8671 0.0
C2270 C 0.6782 0.8609 0.85074 0.0
C2271 C 0.71678 0.86013 0.83458 0.0
C2272 C 0.71237 0.86729 0.84151 0.0
C2273 C 0.69976 0.8838 0.86192 0.0
C2274 C 0.70412 0.87722 0.85495 0.0
H2275 H 0.75935 0.83505 0.82612 0.0
H2276 H 0.75284 0.8492 0.83716 0.0
H2277 H 0.6618 0.8428 0.84105 0.0
H2278 H 0.65702 0.90768 0.8707 0.0
H2279 H 0.6634 0.8946 0.85955 0.0
C2280 C 0.19104 0.85848 0.87399 0.0
C2281 C 0.1778 0.82628 0.87513 0.0
C2282 C 0.19988 0.87049 0.86757 0.0
C2283 C 0.21815 0.85049 0.85108 0.0
H2284 H 0.19613 0.91069 0.84456 0.0
C2285 C 0.2297 0.88596 0.82339 0.0
C2286 C 0.24219 0.91804 0.82221 0.0
C2287 C 0.22118 0.87403 0.82983 0.0
C2288 C 0.20269 0.89404 0.84631 0.0
H2289 H 0.16382 0.78153 0.87052 0.0
H2290 H 0.17892 0.8022 0.85949 0.0
H2291 H 0.18519 0.89349 0.85599 0.0
H2292 H 0.25532 0.96267 0.82679 0.0
H2293 H 0.24095 0.94218 0.83784 0.0
H2294 H 0.23569 0.85107 0.8414 0.0
C2295 C 0.1829 0.81839 0.86347 0.0
C2296 C 0.19653 0.88432 0.85289 0.0
C2297 C 0.17401 0.80651 0.86981 0.0
C2298 C 0.24567 0.93777 0.82752 0.0
C2299 C 0.23719 0.92598 0.83388 0.0
C2300 C 0.22435 0.86025 0.84451 0.0
C2301 C 0.19584 0.85047 0.86224 0.0
C2302 C 0.20411 0.86235 0.85535 0.0
C2303 C 0.22487 0.89401 0.83515 0.0
C2304 C 0.21675 0.8822 0.84204 0.0
H2305 H 0.1942 0.87421 0.87801 0.0
H2306 H 0.20998 0.89539 0.86679 0.0
H2307 H 0.22463 0.83378 0.85284 0.0
H2308 H 0.22682 0.87026 0.81939 0.0
H2309 H 0.21157 0.8492 0.83063 0.0
C2310 C 0.19038 0.36958 0.82421 0.0
C2311 C 0.15832 0.3526 0.82277 0.0
C2312 C 0.20082 0.37261 0.83075 0.0
C2313 C 0.17652 0.337 0.84739 0.0
H2314 H 0.24051 0.41851 0.85348 0.0
C2315 C 0.21555 0.36305 0.87498 0.0
C2316 C 0.24794 0.38163 0.87595 0.0
C2317 C 0.20286 0.35914 0.8686 0.0
C2318 C 0.22279 0.39548 0.85186 0.0
H2319 H 0.11212 0.32494 0.82702 0.0
H2320 H 0.1302 0.33012 0.83833 0.0
H2321 H 0.22348 0.41176 0.84205 0.0
H2322 H 0.2923 0.41053 0.87103 0.0
H2323 H 0.27057 0.40346 0.8601 0.0
H2324 H 0.17613 0.32066 0.8572 0.0
C2325 C 0.14738 0.34102 0.83446 0.0
C2326 C 0.21311 0.39163 0.84528 0.0
C2327 C 0.13702 0.33823 0.82797 0.0
C2328 C 0.2672 0.39617 0.87048 0.0
C2329 C 0.25468 0.39232 0.86418 0.0
C2330 C 0.18633 0.34082 0.85397 0.0
C2331 C 0.17937 0.35844 0.83596 0.0
C2332 C 0.19 0.36232 0.84295 0.0
C2333 C 0.22238 0.37389 0.86312 0.0
C2334 C 0.20984 0.37007 0.85628 0.0
H2335 H 0.20728 0.38073 0.8203 0.0
H2336 H 0.22567 0.38594 0.83173 0.0
H2337 H 0.15877 0.31403 0.84574 0.0
H2338 H 0.20019 0.35154 0.87911 0.0
H2339 H 0.17782 0.34485 0.86796 0.0
C2340 C 0.8631 0.70893 0.70724 0.0
C2341 C 0.84965 0.72763 0.70844 0.0
C2342 C 0.87092 0.70518 0.70078 0.0
C2343 C 0.88577 0.74111 0.68406 0.0
H2344 H 0.86567 0.6586 0.67812 0.0
C2345 C 0.89642 0.71359 0.65656 0.0
C2346 C 0.90988 0.69474 0.65555 0.0
C2347 C 0.88806 0.71768 0.66295 0.0
C2348 C 0.87167 0.68188 0.6797 0.0
H2349 H 0.8343 0.75742 0.70389 0.0
H2350 H 0.84766 0.75084 0.69275 0.0
H2351 H 0.8553 0.6661 0.6895 0.0
H2352 H 0.92491 0.66527 0.66038 0.0
H2353 H 0.91073 0.67248 0.67138 0.0
H2354 H 0.90223 0.75688 0.67426 0.0
C2355 C 0.85254 0.73925 0.69672 0.0
C2356 C 0.86583 0.68618 0.68625 0.0
C2357 C 0.84468 0.74285 0.70312 0.0
C2358 C 0.91451 0.67991 0.66099 0.0
C2359 C 0.90614 0.68385 0.66731 0.0
C2360 C 0.89164 0.73681 0.67751 0.0
C2361 C 0.8656 0.72026 0.69544 0.0
C2362 C 0.87285 0.71586 0.68852 0.0
C2363 C 0.89284 0.70278 0.66841 0.0
C2364 C 0.88481 0.70716 0.67526 0.0
H2365 H 0.86728 0.69703 0.71125 0.0
H2366 H 0.88124 0.6906 0.69997 0.0
H2367 H 0.89179 0.76438 0.68566 0.0
H2368 H 0.89267 0.72533 0.65246 0.0
H2369 H 0.8777 0.7323 0.66362 0.0
C2370 C 0.37736 0.22506 0.65715 0.0
C2371 C 0.39587 0.2572 0.65588 0.0
C2372 C 0.37409 0.21367 0.66362 0.0
C2373 C 0.41111 0.23489 0.68021 0.0
H2374 H 0.32863 0.17412 0.68646 0.0
C2375 C 0.38551 0.19774 0.70783 0.0
C2376 C 0.36577 0.16559 0.70892 0.0
C2377 C 0.38938 0.2101 0.70143 0.0
C2378 C 0.35192 0.19091 0.68479 0.0
H2379 H 0.42599 0.30248 0.66034 0.0
H2380 H 0.42037 0.2828 0.6715 0.0
H2381 H 0.3356 0.19141 0.67504 0.0
H2382 H 0.33452 0.12132 0.70419 0.0
H2383 H 0.34142 0.1425 0.69319 0.0
H2384 H 0.42746 0.23422 0.68997 0.0
C2385 C 0.40847 0.26624 0.66756 0.0
C2386 C 0.35589 0.20072 0.67822 0.0
C2387 C 0.41151 0.27754 0.66115 0.0
C2388 C 0.34985 0.14625 0.70353 0.0
C2389 C 0.35362 0.15845 0.6972 0.0
C2390 C 0.40715 0.22499 0.68679 0.0
C2391 C 0.38956 0.23423 0.66891 0.0
C2392 C 0.38554 0.22281 0.67584 0.0
C2393 C 0.37341 0.1905 0.69603 0.0
C2394 C 0.37751 0.20274 0.68916 0.0
H2395 H 0.36516 0.20888 0.65318 0.0
H2396 H 0.35955 0.1888 0.66448 0.0
H2397 H 0.43435 0.25175 0.67853 0.0
H2398 H 0.39812 0.21316 0.7119 0.0
H2399 H 0.40469 0.23497 0.70071 0.0
C2400 C 0.859 0.19204 0.65865 0.0
C2401 C 0.82666 0.1741 0.65757 0.0
C2402 C 0.87077 0.20048 0.66508 0.0
C2403 C 0.8487 0.17836 0.68263 0.0
H2404 H 0.91631 0.26217 0.68626 0.0
C2405 C 0.88984 0.2246 0.70933 0.0
C2406 C 0.92232 0.24256 0.71022 0.0
C2407 C 0.87718 0.21616 0.70295 0.0
C2408 C 0.89757 0.23855 0.68533 0.0
H2409 H 0.78133 0.15113 0.66234 0.0
H2410 H 0.80164 0.16587 0.67344 0.0
H2411 H 0.89759 0.24738 0.67499 0.0
H2412 H 0.96694 0.26553 0.70515 0.0
H2413 H 0.94517 0.25075 0.69419 0.0
H2414 H 0.84878 0.16951 0.69297 0.0
C2415 C 0.81808 0.17312 0.6694 0.0
C2416 C 0.88692 0.23006 0.67886 0.0
C2417 C 0.80642 0.16484 0.66301 0.0
C2418 C 0.94177 0.25183 0.70465 0.0
C2419 C 0.92926 0.24352 0.69833 0.0
C2420 C 0.85939 0.18684 0.68911 0.0
C2421 C 0.85038 0.19099 0.67054 0.0
C2422 C 0.86237 0.19984 0.67741 0.0
C2423 C 0.89682 0.22569 0.69737 0.0
C2424 C 0.88409 0.21701 0.69054 0.0
H2425 H 0.8751 0.19958 0.65454 0.0
H2426 H 0.89582 0.21413 0.66579 0.0
H2427 H 0.82998 0.15474 0.68169 0.0
H2428 H 0.87433 0.21712 0.71354 0.0
H2429 H 0.85205 0.20251 0.70239 0.0
C2430 C 0.38069 0.26519 0.20268 0.0
C2431 C 0.37482 0.24467 0.20799 0.0
C2432 C 0.38055 0.25555 0.19621 0.0
C2433 C 0.38957 0.19873 0.18623 0.0
H2434 H 0.34563 0.218 0.17283 0.0
C2435 C 0.37476 0.14826 0.16032 0.0
C2436 C 0.37851 0.16754 0.15491 0.0
C2437 C 0.37182 0.15705 0.16667 0.0
C2438 C 0.35832 0.21275 0.17649 0.0
H2439 H 0.36505 0.19823 0.21071 0.0
H2440 H 0.36522 0.18136 0.19934 0.0
H2441 H 0.34631 0.23442 0.18421 0.0
H2442 H 0.38107 0.21071 0.15184 0.0
H2443 H 0.37674 0.22684 0.16306 0.0
H2444 H 0.40229 0.17776 0.17855 0.0
C2445 C 0.36978 0.20492 0.20021 0.0
C2446 C 0.35864 0.22208 0.18301 0.0
C2447 C 0.36966 0.21451 0.20671 0.0
C2448 C 0.37796 0.19535 0.15593 0.0
C2449 C 0.37551 0.20451 0.16236 0.0
C2450 C 0.3895 0.18966 0.17971 0.0
C2451 C 0.37482 0.22524 0.19489 0.0
C2452 C 0.37417 0.21505 0.18796 0.0
C2453 C 0.37323 0.18578 0.16783 0.0
C2454 C 0.37367 0.1963 0.17475 0.0
H2455 H 0.38493 0.28867 0.20351 0.0
H2456 H 0.38506 0.27194 0.19224 0.0
H2457 H 0.40222 0.19346 0.1899 0.0
H2458 H 0.37477 0.12649 0.15965 0.0
H2459 H 0.36904 0.14147 0.1707 0.0
C2460 C 0.93194 0.2356 0.15958 0.0
C2461 C 0.9094 0.22816 0.15463 0.0
C2462 C 0.92304 0.22736 0.16613 0.0
C2463 C 0.85833 0.21081 0.17742 0.0
H2464 H 0.90386 0.18711 0.18947 0.0
C2465 C 0.81842 0.17085 0.20417 0.0
C2466 C 0.84124 0.1791 0.20908 0.0
C2467 C 0.82696 0.17826 0.19757 0.0
C2468 C 0.89121 0.19417 0.18619 0.0
H2469 H 0.85975 0.20478 0.15259 0.0
H2470 H 0.84399 0.1899 0.16408 0.0
H2471 H 0.91688 0.19332 0.17778 0.0
H2472 H 0.89101 0.20288 0.21101 0.0
H2473 H 0.90612 0.21622 0.19944 0.0
H2474 H 0.83266 0.21166 0.18583 0.0
C2475 C 0.86865 0.20259 0.1629 0.0
C2476 C 0.89855 0.19756 0.17948 0.0
C2477 C 0.87762 0.21076 0.15631 0.0
C2478 C 0.87292 0.19628 0.20732 0.0
C2479 C 0.88153 0.20359 0.20069 0.0
C2480 C 0.85097 0.20739 0.18413 0.0
C2481 C 0.89131 0.21147 0.16791 0.0
C2482 C 0.88226 0.206 0.175 0.0
C2483 C 0.8586 0.19406 0.19572 0.0
C2484 C 0.86733 0.19906 0.18861 0.0
H2485 H 0.95663 0.24902 0.15842 0.0
H2486 H 0.94115 0.23483 0.16984 0.0
H2487 H 0.84571 0.21794 0.17414 0.0
H2488 H 0.7938 0.1576 0.20539 0.0
H2489 H 0.80867 0.17033 0.1939 0.0
C2490 C 0.85747 0.7039 0.15802 0.0
C2491 C 0.82549 0.68467 0.1567 0.0
C2492 C 0.86857 0.70815 0.16453 0.0
C2493 C 0.84736 0.67311 0.18128 0.0
H2494 H 0.90659 0.75691 0.18717 0.0
C2495 C 0.88494 0.70235 0.2088 0.0
C2496 C 0.91707 0.72244 0.2098 0.0
C2497 C 0.87222 0.69776 0.20242 0.0
C2498 C 0.89021 0.73328 0.1856 0.0
H2499 H 0.78022 0.65423 0.16111 0.0
H2500 H 0.79941 0.66155 0.17235 0.0
H2501 H 0.88939 0.74816 0.17572 0.0
H2502 H 0.96093 0.75376 0.20495 0.0
H2503 H 0.93914 0.74567 0.19398 0.0
H2504 H 0.84842 0.6582 0.19115 0.0
C2505 C 0.81605 0.67328 0.16842 0.0
C2506 C 0.88046 0.72828 0.17902 0.0
C2507 C 0.80503 0.66925 0.16196 0.0
C2508 C 0.93602 0.73815 0.20436 0.0
C2509 C 0.92346 0.73369 0.19805 0.0
C2510 C 0.85721 0.67809 0.18786 0.0
C2511 C 0.84789 0.69298 0.16981 0.0
C2512 C 0.859 0.69813 0.17677 0.0
C2513 C 0.89146 0.71339 0.19696 0.0
C2514 C 0.87895 0.70823 0.1901 0.0
H2515 H 0.87374 0.71595 0.15405 0.0
H2516 H 0.89332 0.72326 0.16543 0.0
H2517 H 0.83097 0.64952 0.1797 0.0
H2518 H 0.86984 0.68988 0.21291 0.0
H2519 H 0.8474 0.68207 0.20176 0.0
C2520 C 0.53651 0.85411 0.05641 0.0
C2521 C 0.56094 0.8847 0.05765 0.0
C2522 C 0.54224 0.82904 0.05619 0.0
C2523 C 0.59845 0.80485 0.06179 0.0
H2524 H 0.55755 0.73992 0.04864 0.0
C2525 C 0.62226 0.70101 0.05955 0.0
C2526 C 0.59582 0.67139 0.0585 0.0
C2527 C 0.62007 0.72825 0.05903 0.0
C2528 C 0.56899 0.7577 0.05239 0.0
H2529 H 0.61055 0.91264 0.05974 0.0
H2530 H 0.62054 0.8691 0.05927 0.0
H2531 H 0.54913 0.78451 0.04865 0.0
H2532 H 0.54647 0.6475 0.05597 0.0
H2533 H 0.54273 0.6944 0.05516 0.0
H2534 H 0.61793 0.77777 0.0656 0.0
C2535 C 0.59691 0.86445 0.05849 0.0
C2536 C 0.56412 0.78329 0.05239 0.0
C2537 C 0.59122 0.88951 0.05868 0.0
C2538 C 0.56742 0.6698 0.05681 0.0
C2539 C 0.56527 0.69686 0.05629 0.0
C2540 C 0.60325 0.77917 0.0618 0.0
C2541 C 0.57251 0.83386 0.05725 0.0
C2542 C 0.57853 0.80708 0.05713 0.0
C2543 C 0.59146 0.72648 0.05744 0.0
C2544 C 0.5883 0.75504 0.05715 0.0
H2545 H 0.51295 0.84956 0.05556 0.0
H2546 H 0.52281 0.80576 0.05529 0.0
H2547 H 0.60969 0.82256 0.06556 0.0
H2548 H 0.64449 0.70316 0.06086 0.0
H2549 H 0.64082 0.75069 0.05989 0.0
C2550 C 0.20345 0.73489 0.05751 0.0
C2551 C 0.2087 0.70956 0.05672 0.0
C2552 C 0.22827 0.76575 0.05729 0.0
C2553 C 0.30989 0.8146 0.05153 0.0
H2554 H 0.3132 0.87396 0.06445 0.0
C2555 C 0.42164 0.93311 0.05597 0.0
C2556 C 0.41912 0.95956 0.05751 0.0
C2557 C 0.39509 0.90349 0.05547 0.0
C2558 C 0.31244 0.85788 0.06074 0.0
H2559 H 0.24435 0.69708 0.05498 0.0
H2560 H 0.28773 0.75094 0.05463 0.0
H2561 H 0.26896 0.82068 0.06438 0.0
H2562 H 0.38623 0.97534 0.05963 0.0
H2563 H 0.33969 0.92351 0.05868 0.0
H2564 H 0.35335 0.85169 0.04789 0.0
C2565 C 0.26429 0.74688 0.05538 0.0
C2566 C 0.28706 0.82725 0.0607 0.0
C2567 C 0.23946 0.71597 0.05564 0.0
C2568 C 0.38912 0.95556 0.05844 0.0
C2569 C 0.36243 0.92578 0.05794 0.0
C2570 C 0.3352 0.84524 0.05155 0.0
C2571 C 0.25905 0.77219 0.05624 0.0
C2572 C 0.28559 0.80511 0.05614 0.0
C2573 C 0.3651 0.89929 0.05649 0.0
C2574 C 0.33703 0.86724 0.0562 0.0
H2575 H 0.18016 0.73089 0.05845 0.0
H2576 H 0.2233 0.78462 0.05791 0.0
H2577 H 0.30927 0.79837 0.04787 0.0
H2578 H 0.44426 0.93507 0.05524 0.0
H2579 H 0.39823 0.88371 0.05446 0.0
C2580 C 0.1495 0.51179 0.05374 0.0
C2581 C 0.1256 0.48789 0.0575 0.0
C2582 C 0.17922 0.51502 0.05345 0.0
C2583 C 0.22483 0.47528 0.05732 0.0
H2584 H 0.29423 0.56053 0.05773 0.0
C2585 C 0.35201 0.50686 0.06341 0.0
C2586 C 0.37634 0.53073 0.05971 0.0
C2587 C 0.32117 0.50035 0.06268 0.0
C2588 C 0.27516 0.53658 0.05753 0.0
H2589 H 0.11401 0.44796 0.06374 0.0
H2590 H 0.1662 0.45392 0.06336 0.0
H2591 H 0.24098 0.55099 0.05732 0.0
H2592 H 0.38713 0.56624 0.05229 0.0
H2593 H 0.33317 0.55496 0.05103 0.0
H2594 H 0.25933 0.46105 0.05771 0.0
C2595 C 0.16182 0.46994 0.06054 0.0
C2596 C 0.24451 0.53104 0.05728 0.0
C2597 C 0.13184 0.46649 0.06076 0.0
C2598 C 0.36895 0.54767 0.0552 0.0
C2599 C 0.33808 0.54135 0.05451 0.0
C2600 C 0.25556 0.48086 0.05763 0.0
C2601 C 0.18613 0.49471 0.05698 0.0
C2602 C 0.21884 0.50031 0.05716 0.0
C2603 C 0.31381 0.51767 0.05827 0.0
C2604 C 0.28111 0.51159 0.05774 0.0
H2605 H 0.14542 0.52849 0.05109 0.0
H2606 H 0.19693 0.53382 0.0505 0.0
H2607 H 0.2058 0.45133 0.05715 0.0
H2608 H 0.3568 0.49306 0.06687 0.0
H2609 H 0.30315 0.48214 0.06569 0.0
C2610 C 0.8919 0.58314 0.47211 0.0
C2611 C 0.8863 0.55226 0.47241 0.0
C2612 C 0.86708 0.5892 0.47206 0.0
C2613 C 0.78239 0.55102 0.46834 0.0
H2614 H 0.78636 0.62091 0.4779 0.0
C2615 C 0.67309 0.56068 0.47255 0.0
C2616 C 0.67483 0.58981 0.47166 0.0
C2617 C 0.69998 0.55822 0.47261 0.0
C2618 C 0.78507 0.60155 0.47514 0.0
H2619 H 0.85002 0.5036 0.47307 0.0
H2620 H 0.80677 0.51411 0.47303 0.0
H2621 H 0.83084 0.61202 0.47822 0.0
H2622 H 0.70678 0.63943 0.47033 0.0
H2623 H 0.75419 0.63506 0.47046 0.0
H2624 H 0.73663 0.54031 0.46531 0.0
C2625 C 0.83039 0.53368 0.47271 0.0
C2626 C 0.81054 0.5964 0.47532 0.0
C2627 C 0.85521 0.52763 0.47275 0.0
C2628 C 0.70452 0.61664 0.47101 0.0
C2629 C 0.73167 0.61414 0.4711 0.0
C2630 C 0.75701 0.55611 0.46817 0.0
C2631 C 0.83596 0.56454 0.4723 0.0
C2632 C 0.80936 0.57081 0.47199 0.0
C2633 C 0.7296 0.58476 0.4718 0.0
C2634 C 0.75781 0.58115 0.47163 0.0
H2635 H 0.91551 0.6027 0.47173 0.0
H2636 H 0.87229 0.61321 0.47165 0.0
H2637 H 0.78089 0.53158 0.46557 0.0
H2638 H 0.65082 0.53941 0.47315 0.0
H2639 H 0.69751 0.53533 0.47331 0.0
C2640 C 0.52813 0.14998 0.47293 0.0
C2641 C 0.49906 0.12288 0.47183 0.0
C2642 C 0.5311 0.17959 0.47268 0.0
C2643 C 0.49414 0.22297 0.46609 0.0
H2644 H 0.54844 0.28569 0.47871 0.0
C2645 C 0.50651 0.34615 0.46783 0.0
C2646 C 0.53654 0.3717 0.46905 0.0
C2647 C 0.50099 0.31546 0.46807 0.0
C2648 C 0.53348 0.26859 0.4751 0.0
H2649 H 0.45023 0.1059 0.46962 0.0
H2650 H 0.45542 0.15791 0.46923 0.0
H2651 H 0.53961 0.23269 0.47952 0.0
H2652 H 0.58451 0.38484 0.47126 0.0
H2653 H 0.57492 0.33138 0.47166 0.0
H2654 H 0.48813 0.25905 0.46166 0.0
C2655 C 0.47597 0.15605 0.47024 0.0
C2656 C 0.52835 0.23813 0.47557 0.0
C2657 C 0.47294 0.12624 0.4705 0.0
C2658 C 0.56101 0.36575 0.4704 0.0
C2659 C 0.55548 0.33506 0.47064 0.0
C2660 C 0.49927 0.25351 0.46562 0.0
C2661 C 0.50513 0.18309 0.47134 0.0
C2662 C 0.50889 0.21499 0.47103 0.0
C2663 C 0.52534 0.30949 0.46954 0.0
C2664 C 0.51926 0.27678 0.47008 0.0
H2665 H 0.54885 0.14846 0.47395 0.0
H2666 H 0.55401 0.19985 0.47345 0.0
H2667 H 0.4793 0.20584 0.46247 0.0
H2668 H 0.48697 0.34977 0.46689 0.0
H2669 H 0.47742 0.29636 0.46728 0.0
C2670 C 0.95868 0.38077 0.47027 0.0
C2671 C 0.96249 0.41002 0.47205 0.0
C2672 C 0.92891 0.35387 0.47029 0.0
C2673 C 0.84804 0.32256 0.47678 0.0
H2674 H 0.82419 0.26472 0.46214 0.0
C2675 C 0.71922 0.22801 0.47211 0.0
C2676 C 0.71303 0.19816 0.47011 0.0
C2677 C 0.74993 0.25318 0.47239 0.0
C2678 C 0.83053 0.28042 0.46631 0.0
H2679 H 0.93775 0.43351 0.47539 0.0
H2680 H 0.88642 0.38709 0.47538 0.0
H2681 H 0.87741 0.30895 0.4628 0.0
H2682 H 0.73476 0.17163 0.46688 0.0
H2683 H 0.7881 0.21542 0.46733 0.0
H2684 H 0.80118 0.29424 0.48027 0.0
C2685 C 0.90631 0.3847 0.47403 0.0
C2686 C 0.86114 0.30579 0.46669 0.0
C2687 C 0.93591 0.41148 0.47399 0.0
C2688 C 0.73846 0.19433 0.46833 0.0
C2689 C 0.76915 0.2195 0.4686 0.0
C2690 C 0.81748 0.29725 0.47639 0.0
C2691 C 0.90228 0.35554 0.47212 0.0
C2692 C 0.87025 0.32739 0.4719 0.0
C2693 C 0.77537 0.24924 0.47068 0.0
C2694 C 0.80819 0.27594 0.47113 0.0
H2695 H 0.97857 0.37873 0.46874 0.0
H2696 H 0.92675 0.33175 0.46886 0.0
H2697 H 0.85429 0.33834 0.48093 0.0
H2698 H 0.70028 0.23202 0.47343 0.0
H2699 H 0.75372 0.27584 0.4739 0.0
C2700 C 0.52199 0.40856 0.97411 0.0
C2701 C 0.49291 0.40629 0.97283 0.0
C2702 C 0.52477 0.38185 0.97459 0.0
C2703 C 0.48654 0.29869 0.96972 0.0
H2704 H 0.54458 0.29675 0.98233 0.0
C2705 C 0.5027 0.19067 0.97276 0.0
C2706 C 0.53351 0.19647 0.97346 0.0
C2707 C 0.49614 0.21516 0.97303 0.0
C2708 C 0.52848 0.297 0.97874 0.0
H2709 H 0.44377 0.37365 0.97112 0.0
H2710 H 0.4486 0.32671 0.97201 0.0
H2711 H 0.53513 0.34068 0.98231 0.0
H2712 H 0.58149 0.23279 0.97512 0.0
H2713 H 0.57014 0.27554 0.97553 0.0
H2714 H 0.48009 0.25504 0.96612 0.0
C2715 C 0.46934 0.34943 0.97258 0.0
C2716 C 0.52302 0.32221 0.97872 0.0
C2717 C 0.46652 0.37634 0.97211 0.0
C2718 C 0.55754 0.22745 0.97451 0.0
C2719 C 0.55096 0.25194 0.97481 0.0
C2720 C 0.49197 0.27339 0.96974 0.0
C2721 C 0.49858 0.35189 0.97382 0.0
C2722 C 0.50232 0.32367 0.97415 0.0
C2723 C 0.52019 0.24615 0.97404 0.0
C2724 C 0.51331 0.27239 0.9742 0.0
H2725 H 0.54295 0.43111 0.9747 0.0
H2726 H 0.54775 0.38481 0.97543 0.0
H2727 H 0.47075 0.29914 0.96607 0.0
H2728 H 0.48362 0.1672 0.97185 0.0
H2729 H 0.47215 0.20975 0.97247 0.0
C2730 C 0.85656 0.35982 0.9769 0.0
C2731 C 0.88037 0.36799 0.97222 0.0
C2732 C 0.83225 0.32874 0.97749 0.0
C2733 C 0.81064 0.24685 0.97377 0.0
H2734 H 0.72567 0.23125 0.97439 0.0
C2735 C 0.70235 0.12294 0.97001 0.0
C2736 C 0.6745 0.11586 0.97326 0.0
C2737 C 0.72862 0.15305 0.97042 0.0
C2738 C 0.74921 0.23503 0.97435 0.0
H2739 H 0.89793 0.34969 0.96468 0.0
H2740 H 0.85569 0.29566 0.96572 0.0
H2741 H 0.769 0.28479 0.97425 0.0
H2742 H 0.65304 0.13425 0.97985 0.0
H2743 H 0.69882 0.18597 0.98077 0.0
H2744 H 0.79091 0.19709 0.9739 0.0
C2745 C 0.85568 0.31321 0.96892 0.0
C2746 C 0.77411 0.26586 0.97425 0.0
C2747 C 0.87972 0.34426 0.96827 0.0
C2748 C 0.67401 0.13902 0.9772 0.0
C2749 C 0.70026 0.16886 0.97768 0.0
C2750 C 0.78571 0.21595 0.97393 0.0
C2751 C 0.83148 0.30507 0.97349 0.0
C2752 C 0.80513 0.27218 0.97392 0.0
C2753 C 0.72772 0.17666 0.97416 0.0
C2754 C 0.75459 0.20956 0.97419 0.0
H2755 H 0.85637 0.37755 0.98 0.0
H2756 H 0.81408 0.3232 0.9811 0.0
H2757 H 0.83429 0.25092 0.97359 0.0
H2758 H 0.70341 0.10568 0.9669 0.0
H2759 H 0.74918 0.15811 0.96759 0.0
C2760 C 0.72775 0.55854 0.97732 0.0
C2761 C 0.7099 0.54514 0.97159 0.0
C2762 C 0.75893 0.56561 0.97769 0.0
C2763 C 0.8266 0.58048 0.96726 0.0
H2764 H 0.85781 0.56269 0.98324 0.0
C2765 C 0.95675 0.61389 0.97029 0.0
C2766 C 0.96139 0.58999 0.97282 0.0
C2767 C 0.92706 0.61116 0.97052 0.0
C2768 C 0.84949 0.56783 0.97874 0.0
H2769 H 0.71102 0.528 0.96182 0.0
H2770 H 0.76532 0.54039 0.96246 0.0
H2771 H 0.80379 0.55132 0.98275 0.0
H2772 H 0.93869 0.54514 0.97783 0.0
H2773 H 0.88746 0.54057 0.97827 0.0
H2774 H 0.87215 0.59633 0.9632 0.0
C2775 C 0.7553 0.5459 0.96664 0.0
C2776 C 0.81855 0.56153 0.97847 0.0
C2777 C 0.72409 0.53873 0.96627 0.0
C2778 C 0.93601 0.56398 0.97581 0.0
C2779 C 0.90657 0.56142 0.9761 0.0
C2780 C 0.85762 0.58696 0.96754 0.0
C2781 C 0.7732 0.55959 0.97234 0.0
C2782 C 0.80655 0.56742 0.9727 0.0
C2783 C 0.90152 0.58468 0.97337 0.0
C2784 C 0.86936 0.58035 0.97326 0.0
H2785 H 0.71791 0.56438 0.98147 0.0
H2786 H 0.77207 0.57646 0.98213 0.0
H2787 H 0.8183 0.58571 0.96276 0.0
H2788 H 0.97573 0.63416 0.96793 0.0
H2789 H 0.92404 0.62965 0.96843 0.0
C2790 C 0.41409 0.51808 0.55844 0.0
C2791 C 0.41161 0.48857 0.55922 0.0
C2792 C 0.38751 0.52106 0.55798 0.0
C2793 C 0.3032 0.48115 0.56193 0.0
H2794 H 0.3045 0.54363 0.55014 0.0
C2795 C 0.19588 0.49813 0.5584 0.0
C2796 C 0.20169 0.52909 0.55808 0.0
C2797 C 0.22051 0.49177 0.55825 0.0
C2798 C 0.30382 0.52628 0.5535 0.0
H2799 H 0.37869 0.43892 0.56011 0.0
H2800 H 0.33198 0.44414 0.55926 0.0
H2801 H 0.34842 0.53426 0.55028 0.0
H2802 H 0.23824 0.5776 0.55729 0.0
H2803 H 0.28119 0.56657 0.55709 0.0
H2804 H 0.25857 0.47333 0.56518 0.0
C2805 C 0.35477 0.46503 0.55906 0.0
C2806 C 0.32904 0.52086 0.55358 0.0
C2807 C 0.38156 0.46201 0.55951 0.0
C2808 C 0.23285 0.5535 0.55758 0.0
C2809 C 0.25749 0.54713 0.5574 0.0
C2810 C 0.27788 0.48654 0.56184 0.0
C2811 C 0.35745 0.49466 0.55828 0.0
C2812 C 0.32933 0.49854 0.55786 0.0
C2813 C 0.25167 0.51618 0.55776 0.0
C2814 C 0.27802 0.50946 0.55768 0.0
H2815 H 0.4367 0.53921 0.55821 0.0
H2816 H 0.39063 0.54431 0.55751 0.0
H2817 H 0.3027 0.46404 0.56535 0.0
H2818 H 0.17224 0.47872 0.55888 0.0
H2819 H 0.21508 0.46765 0.55848 0.0
C2820 C 0.52949 0.71238 0.56049 0.0
C2821 C 0.55316 0.70573 0.56221 0.0
C2822 C 0.53549 0.74327 0.56033 0.0
C2823 C 0.59068 0.82358 0.56633 0.0
H2824 H 0.55417 0.84806 0.55227 0.0
C2825 C 0.61755 0.95198 0.56297 0.0
C2826 C 0.59163 0.95556 0.56155 0.0
C2827 C 0.61486 0.92227 0.56278 0.0
C2828 C 0.56439 0.8416 0.55626 0.0
H2829 H 0.6019 0.72679 0.56506 0.0
H2830 H 0.61225 0.78048 0.5648 0.0
H2831 H 0.54503 0.79483 0.55264 0.0
H2832 H 0.54271 0.9305 0.55867 0.0
H2833 H 0.53813 0.87934 0.55839 0.0
H2834 H 0.60984 0.8704 0.56997 0.0
C2835 C 0.58889 0.76176 0.56367 0.0
C2836 C 0.55906 0.81099 0.55648 0.0
C2837 C 0.5829 0.73087 0.56383 0.0
C2838 C 0.56325 0.92883 0.55981 0.0
C2839 C 0.56063 0.89934 0.55959 0.0
C2840 C 0.596 0.85426 0.56611 0.0
C2841 C 0.56533 0.76842 0.56187 0.0
C2842 C 0.57184 0.80142 0.56156 0.0
C2843 C 0.58628 0.89553 0.56112 0.0
C2844 C 0.58262 0.86359 0.56111 0.0
H2845 H 0.5062 0.69367 0.55931 0.0
H2846 H 0.51659 0.74741 0.55904 0.0
H2847 H 0.60067 0.81702 0.57035 0.0
H2848 H 0.63975 0.972 0.56434 0.0
H2849 H 0.63519 0.92026 0.56393 0.0
C2850 C 0.34808 0.88002 0.56529 0.0
C2851 C 0.37264 0.87905 0.56202 0.0
C2852 C 0.31713 0.85591 0.56454 0.0
C2853 C 0.26519 0.78719 0.55397 0.0
H2854 H 0.21079 0.76275 0.56922 0.0
C2855 C 0.14741 0.67069 0.55557 0.0
C2856 C 0.12192 0.67074 0.55865 0.0
C2857 C 0.17699 0.69756 0.55551 0.0
C2858 C 0.22551 0.76954 0.56489 0.0
H2859 H 0.38376 0.85189 0.55533 0.0
H2860 H 0.32983 0.80935 0.55411 0.0
H2861 H 0.2643 0.80586 0.5701 0.0
H2862 H 0.10758 0.69957 0.56394 0.0
H2863 H 0.15942 0.74659 0.56386 0.0
H2864 H 0.22643 0.75011 0.54883 0.0
C2865 C 0.33437 0.82911 0.55718 0.0
C2866 C 0.2563 0.79436 0.56538 0.0
C2867 C 0.36538 0.85346 0.55789 0.0
C2868 C 0.12662 0.69871 0.56151 0.0
C2869 C 0.1564 0.72558 0.56151 0.0
C2870 C 0.23444 0.76217 0.5535 0.0
C2871 C 0.30977 0.82987 0.56053 0.0
C2872 C 0.2767 0.80356 0.55994 0.0
C2873 C 0.18204 0.72521 0.55858 0.0
C2874 C 0.21423 0.75294 0.55896 0.0
H2875 H 0.35274 0.89969 0.56841 0.0
H2876 H 0.29894 0.85787 0.56708 0.0
H2877 H 0.27985 0.79382 0.54964 0.0
H2878 H 0.14471 0.64962 0.55331 0.0
H2879 H 0.19619 0.69631 0.55325 0.0
C2880 C 0.28883 0.03227 0.39621 0.0
C2881 C 0.26436 1.00353 0.39391 0.0
C2882 C 0.28596 0.05919 0.39611 0.0
C2883 C 0.24061 0.09278 0.38851 0.0
H2884 H 0.26309 0.14364 0.40429 0.0
C2885 C 0.20171 0.18445 0.39266 0.0
C2886 C 0.22254 0.21251 0.39587 0.0
C2887 C 0.20817 0.15989 0.39223 0.0
C2888 C 0.25708 0.13002 0.3998 0.0
H2889 H 0.21818 0.98097 0.38947 0.0
H2890 H 0.21337 0.02754 0.38927 0.0
H2891 H 0.27337 0.10028 0.40366 0.0
H2892 H 0.26701 0.23691 0.40098 0.0
H2893 H 0.27836 0.19442 0.40018 0.0
H2894 H 0.2243 0.12241 0.38464 0.0
C2895 C 0.23478 0.02946 0.39115 0.0
C2896 C 0.26302 0.10512 0.39944 0.0
C2897 C 0.2375 1.00262 0.39131 0.0
C2898 C 0.25009 0.21542 0.39859 0.0
C2899 C 0.25662 0.19098 0.39813 0.0
C2900 C 0.2348 0.11776 0.38885 0.0
C2901 C 0.25875 0.05802 0.39363 0.0
C2902 C 0.25457 0.08596 0.39382 0.0
C2903 C 0.23575 0.1628 0.39496 0.0
C2904 C 0.24268 0.13659 0.39452 0.0
H2905 H 0.30979 0.0338 0.39826 0.0
H2906 H 0.305 0.0809 0.398 0.0
H2907 H 0.23419 0.07879 0.38407 0.0
H2908 H 0.18015 0.18127 0.39057 0.0
H2909 H 0.19125 0.13842 0.38984 0.0
C2910 C 0.05367 0.28485 0.39572 0.0
C2911 C 0.08247 0.28864 0.39362 0.0
C2912 C 0.02673 0.25512 0.39574 0.0
C2913 C 0.99321 0.17563 0.38856 0.0
H2914 H 0.941 0.14879 0.40414 0.0
C2915 C 0.89978 0.04579 0.39288 0.0
C2916 C 0.87179 0.03921 0.39602 0.0
C2917 C 0.92462 0.07664 0.39239 0.0
C2918 C 0.95499 0.15597 0.3997 0.0
H2919 H 0.10522 0.26416 0.38972 0.0
H2920 H 0.05855 0.21282 0.38972 0.0
H2921 H 0.98489 0.20212 0.40348 0.0
H2922 H 0.84765 0.06013 0.40088 0.0
H2923 H 0.89056 0.1137 0.39994 0.0
H2924 H 0.96338 0.12963 0.38475 0.0
C2925 C 0.05664 0.23268 0.39135 0.0
C2926 C 0.9802 0.18662 0.39933 0.0
C2927 C 0.08351 0.26219 0.3914 0.0
C2928 C 0.8691 0.06427 0.39855 0.0
C2929 C 0.89379 0.09507 0.39802 0.0
C2930 C 0.96789 0.14505 0.38891 0.0
C2931 C 0.02795 0.22866 0.39357 0.0
C2932 C 0.99983 0.19675 0.39378 0.0
C2933 C 0.922 0.10174 0.39496 0.0
C2934 C 0.94856 0.13466 0.39451 0.0
H2935 H 0.05206 0.30471 0.39748 0.0
H2936 H 1.00492 0.25284 0.39744 0.0
H2937 H 1.00761 0.1828 0.38417 0.0
H2938 H 0.90272 0.02703 0.39093 0.0
H2939 H 0.94608 0.08071 0.39008 0.0
C2940 C 0.82096 0.8509 0.39048 0.0
C2941 C 0.79565 0.82423 0.39329 0.0
C2942 C 0.85072 0.85423 0.39028 0.0
C2943 C 0.8943 0.81108 0.39219 0.0
H2944 H 0.96423 0.89458 0.39515 0.0
C2945 C 0.02025 0.83691 0.39775 0.0
C2946 C 0.04517 0.86313 0.39471 0.0
C2947 C 0.98959 0.83111 0.39719 0.0
C2948 C 0.94501 0.87118 0.39424 0.0
H2949 H 0.7817 0.77975 0.39798 0.0
H2950 H 0.83404 0.78586 0.3978 0.0
H2951 H 0.9113 0.88601 0.39507 0.0
H2952 H 0.05725 0.90358 0.38859 0.0
H2953 H 1.00358 0.89356 0.38763 0.0
H2954 H 0.92833 0.79631 0.39154 0.0
C2955 C 0.83072 0.80404 0.39564 0.0
C2956 C 0.91455 0.86621 0.39417 0.0
C2957 C 0.80069 0.80053 0.39576 0.0
C2958 C 0.03858 0.88316 0.39098 0.0
C2959 C 1.00788 0.87754 0.39048 0.0
C2960 C 0.92483 0.81604 0.39231 0.0
C2961 C 0.85626 0.8312 0.39298 0.0
C2962 C 0.88871 0.83612 0.39312 0.0
C2963 C 0.98304 0.85153 0.39361 0.0
C2964 C 0.95057 0.84619 0.39332 0.0
H2965 H 0.81788 0.86945 0.38843 0.0
H2966 H 0.86944 0.87505 0.38802 0.0
H2967 H 0.87514 0.78768 0.39127 0.0
H2968 H 0.02447 0.82078 0.40059 0.0
H2969 H 0.97108 0.81101 0.3997 0.0
C2970 C 0.34444 0.90248 0.8107 0.0
C2971 C 0.34477 0.9267 0.80699 0.0
C2972 C 0.3708 0.89903 0.81102 0.0
C2973 C 0.45624 0.93837 0.80727 0.0
H2974 H 0.43964 0.85287 0.80665 0.0
C2975 C 0.55108 0.90596 0.80105 0.0
C2976 C 0.55131 0.88181 0.80469 0.0
C2977 C 0.52691 0.91269 0.8018 0.0
C2978 C 0.44473 0.87688 0.80691 0.0
H2979 H 0.37355 0.967 0.80088 0.0
H2980 H 0.41954 0.96064 0.8013 0.0
H2981 H 0.39626 0.86289 0.80709 0.0
H2982 H 0.52633 0.84599 0.81204 0.0
H2983 H 0.48394 0.85766 0.81334 0.0
H2984 H 0.50485 0.95217 0.80689 0.0
C2985 C 0.399 0.94454 0.80407 0.0
C2986 C 0.4198 0.8827 0.80718 0.0
C2987 C 0.37261 0.94822 0.80382 0.0
C2988 C 0.5269 0.86477 0.80917 0.0
C2989 C 0.50251 0.87132 0.80988 0.0
C2990 C 0.48121 0.93251 0.80694 0.0
C2991 C 0.39821 0.91943 0.80756 0.0
C2992 C 0.42513 0.91353 0.80737 0.0
C2993 C 0.50217 0.89531 0.80619 0.0
C2994 C 0.47575 0.90168 0.80675 0.0
H2995 H 0.32349 0.88569 0.81327 0.0
H2996 H 0.36946 0.87997 0.81391 0.0
H2997 H 0.46138 0.96238 0.8075 0.0
H2998 H 0.56974 0.91983 0.79762 0.0
H2999 H 0.52729 0.93113 0.79884 0.0
C3000 C 0.17597 0.67979 0.80589 0.0
C3001 C 0.20687 0.70501 0.80619 0.0
C3002 C 0.1698 0.64885 0.80582 0.0
C3003 C 0.20748 0.60202 0.80195 0.0
H3004 H 0.13726 0.53598 0.8114 0.0
C3005 C 0.1947 0.48075 0.80537 0.0
C3006 C 0.16498 0.45396 0.80467 0.0
C3007 C 0.19825 0.5106 0.80554 0.0
C3008 C 0.15673 0.55408 0.80867 0.0
H3009 H 0.25544 0.71713 0.80684 0.0
H3010 H 0.24473 0.66326 0.80674 0.0
H3011 H 0.14686 0.58957 0.81191 0.0
H3012 H 0.11552 0.43793 0.80371 0.0
H3013 H 0.12178 0.49044 0.804 0.0
H3014 H 0.21749 0.56673 0.79873 0.0
C3015 C 0.22523 0.66743 0.80644 0.0
C3016 C 0.16228 0.58484 0.80897 0.0
C3017 C 0.2314 0.69837 0.80651 0.0
C3018 C 0.13875 0.45796 0.80425 0.0
C3019 C 0.14234 0.48806 0.80444 0.0
C3020 C 0.20196 0.57137 0.80166 0.0
C3021 C 0.19436 0.64223 0.80602 0.0
C3022 C 0.18793 0.60929 0.80566 0.0
C3023 C 0.17222 0.51477 0.80503 0.0
C3024 C 0.17673 0.54702 0.80507 0.0
H3025 H 0.15648 0.68395 0.80552 0.0
H3026 H 0.14578 0.63014 0.8054 0.0
H3027 H 0.22699 0.62001 0.79921 0.0
H3028 H 0.21554 0.47884 0.80577 0.0
H3029 H 0.22153 0.5305 0.80614 0.0
C3030 C 0.60308 0.74128 0.80721 0.0
C3031 C 0.62968 0.74016 0.80513 0.0
C3032 C 0.57367 0.71426 0.80738 0.0
C3033 C 0.52832 0.63528 0.80012 0.0
H3034 H 0.46955 0.62334 0.814 0.0
C3035 C 0.40537 0.52395 0.80186 0.0
C3036 C 0.3802 0.52778 0.80386 0.0
C3037 C 0.43618 0.54899 0.8021 0.0
C3038 C 0.4855 0.62644 0.81004 0.0
H3039 H 0.64596 0.70922 0.8017 0.0
H3040 H 0.59441 0.66181 0.80203 0.0
H3041 H 0.52265 0.66755 0.8145 0.0
H3042 H 0.36804 0.56152 0.80755 0.0
H3043 H 0.4216 0.60509 0.80795 0.0
H3044 H 0.49101 0.59427 0.79562 0.0
C3045 C 0.59644 0.68385 0.80348 0.0
C3046 C 0.51607 0.65182 0.81034 0.0
C3047 C 0.62607 0.71099 0.80335 0.0
C3048 C 0.38677 0.55749 0.80606 0.0
C3049 C 0.41758 0.58253 0.8063 0.0
C3050 C 0.49769 0.60986 0.79982 0.0
C3051 C 0.56979 0.68519 0.80545 0.0
C3052 C 0.53785 0.65682 0.80535 0.0
C3053 C 0.44278 0.57861 0.80436 0.0
C3054 C 0.47573 0.60524 0.80474 0.0
H3055 H 0.6048 0.76322 0.80863 0.0
H3056 H 0.55376 0.7164 0.80884 0.0
H3057 H 0.54426 0.63855 0.79614 0.0
H3058 H 0.40139 0.50134 0.80025 0.0
H3059 H 0.45491 0.54488 0.80066 0.0
C3060 C 0.16829 0.52723 0.30111 0.0
C3061 C 0.19503 0.52892 0.30398 0.0
C3062 C 0.16207 0.55178 0.3018 0.0
C3063 C 0.18341 0.62336 0.31171 0.0
H3064 H 0.14869 0.64471 0.29677 0.0
C3065 C 0.18406 0.74044 0.30962 0.0
C3066 C 0.15775 0.74035 0.30692 0.0
C3067 C 0.18612 0.71323 0.30972 0.0
C3068 C 0.15796 0.63879 0.30102 0.0
H3069 H 0.23611 0.55783 0.30987 0.0
H3070 H 0.22567 0.60104 0.31099 0.0
H3071 H 0.15797 0.6008 0.29597 0.0
H3072 H 0.11263 0.71117 0.30234 0.0
H3073 H 0.11632 0.66347 0.30249 0.0
H3074 H 0.18412 0.662 0.31668 0.0
C3075 C 0.20912 0.58043 0.30829 0.0
C3076 C 0.16331 0.61354 0.30057 0.0
C3077 C 0.21521 0.55569 0.30764 0.0
C3078 C 0.13316 0.71206 0.30447 0.0
C3079 C 0.13539 0.6848 0.30451 0.0
C3080 C 0.17827 0.64875 0.31213 0.0
C3081 C 0.18251 0.57889 0.30535 0.0
C3082 C 0.17626 0.60552 0.3059 0.0
C3083 C 0.16207 0.68516 0.30708 0.0
C3084 C 0.16565 0.65691 0.30678 0.0
H3085 H 0.1519 0.50667 0.29837 0.0
H3086 H 0.141 0.5493 0.29959 0.0
H3087 H 0.19283 0.61763 0.31596 0.0
H3088 H 0.20343 0.76175 0.31157 0.0
H3089 H 0.20711 0.71448 0.31168 0.0
C3090 C 0.36709 0.45877 0.30434 0.0
C3091 C 0.33707 0.45525 0.30474 0.0
C3092 C 0.39386 0.48851 0.30482 0.0
C3093 C 0.42031 0.56978 0.3105 0.0
H3094 H 0.48988 0.5924 0.29866 0.0
C3095 C 0.51835 0.69815 0.30663 0.0
C3096 C 0.5492 0.70411 0.30598 0.0
C3097 C 0.49321 0.66739 0.30682 0.0
C3098 C 0.47084 0.58638 0.30207 0.0
H3099 H 0.31194 0.48057 0.30601 0.0
H3100 H 0.35815 0.53183 0.30676 0.0
H3101 H 0.44519 0.53936 0.29845 0.0
H3102 H 0.57759 0.68214 0.30498 0.0
H3103 H 0.5339 0.62869 0.30542 0.0
H3104 H 0.44576 0.61687 0.31406 0.0
C3105 C 0.36119 0.51172 0.30617 0.0
C3106 C 0.44519 0.5559 0.30195 0.0
C3107 C 0.33457 0.48216 0.30569 0.0
C3108 C 0.55422 0.6785 0.30557 0.0
C3109 C 0.5291 0.64779 0.30573 0.0
C3110 C 0.4459 0.60024 0.31061 0.0
C3111 C 0.39123 0.51539 0.30573 0.0
C3112 C 0.41943 0.54727 0.30612 0.0
C3113 C 0.49824 0.6418 0.30633 0.0
C3114 C 0.4714 0.60904 0.30636 0.0
H3115 H 0.36996 0.43862 0.30362 0.0
H3116 H 0.41663 0.49041 0.30452 0.0
H3117 H 0.40119 0.56386 0.31388 0.0
H3118 H 0.51361 0.71726 0.307 0.0
H3119 H 0.46975 0.66369 0.30722 0.0
C3120 C 0.40251 0.90428 0.30238 0.0
C3121 C 0.37828 0.87908 0.30582 0.0
C3122 C 0.43332 0.91044 0.30283 0.0
C3123 C 0.47935 0.87242 0.30646 0.0
H3124 H 0.54867 0.95722 0.30818 0.0
C3125 C 0.60489 0.89601 0.3097 0.0
C3126 C 0.62913 0.92166 0.30638 0.0
C3127 C 0.57503 0.89236 0.31009 0.0
C3128 C 0.52966 0.93343 0.30762 0.0
H3129 H 0.3676 0.84075 0.31249 0.0
H3130 H 0.42153 0.85141 0.31327 0.0
H3131 H 0.49516 0.94764 0.308 0.0
H3132 H 0.64111 0.96413 0.30101 0.0
H3133 H 0.58865 0.95745 0.30155 0.0
H3134 H 0.51354 0.8581 0.30591 0.0
C3135 C 0.41656 0.86635 0.3102 0.0
C3136 C 0.49894 0.92793 0.30754 0.0
C3137 C 0.38572 0.86036 0.30979 0.0
C3138 C 0.62299 0.94419 0.30363 0.0
C3139 C 0.59288 0.94034 0.30396 0.0
C3140 C 0.50999 0.8779 0.30649 0.0
C3141 C 0.44073 0.89143 0.30671 0.0
C3142 C 0.47341 0.89734 0.30696 0.0
C3143 C 0.56832 0.91404 0.3071 0.0
C3144 C 0.53564 0.90847 0.30709 0.0
H3145 H 0.39766 0.91943 0.29935 0.0
H3146 H 0.45129 0.92978 0.30004 0.0
H3147 H 0.46028 0.84864 0.30589 0.0
H3148 H 0.60885 0.8784 0.31196 0.0
H3149 H 0.55709 0.87229 0.31272 0.0
C3150 C 0.08041 0.85003 0.88898 0.0
C3151 C 0.07829 0.82157 0.89085 0.0
C3152 C 0.05371 0.8528 0.88847 0.0
C3153 C 0.97205 0.81698 0.8943 0.0
H3154 H 0.96676 0.87026 0.88092 0.0
C3155 C 0.86291 0.83088 0.89128 0.0
C3156 C 0.86821 0.86132 0.8902 0.0
C3157 C 0.88756 0.8246 0.89104 0.0
C3158 C 0.96798 0.85552 0.88472 0.0
H3159 H 0.04596 0.77344 0.89354 0.0
H3160 H 0.9991 0.77818 0.89257 0.0
H3161 H 1.01067 0.86082 0.88089 0.0
H3162 H 0.90374 0.90896 0.88793 0.0
H3163 H 0.94683 0.89807 0.88755 0.0
H3164 H 0.92932 0.81179 0.89814 0.0
C3165 C 0.02166 0.7985 0.89157 0.0
C3166 C 0.99319 0.85006 0.88471 0.0
C3167 C 0.04852 0.7957 0.89208 0.0
C3168 C 0.89883 0.88529 0.88882 0.0
C3169 C 0.92349 0.87897 0.88855 0.0
C3170 C 0.94675 0.82235 0.8943 0.0
C3171 C 0.02395 0.8272 0.88981 0.0
C3172 C 0.99581 0.83103 0.88955 0.0
C3173 C 0.91819 0.84857 0.88969 0.0
C3174 C 0.94456 0.84196 0.88955 0.0
H3175 H 0.10285 0.87057 0.888 0.0
H3176 H 0.05658 0.8754 0.88721 0.0
H3177 H 0.97345 0.80258 0.89816 0.0
H3178 H 0.83973 0.8119 0.89245 0.0
H3179 H 0.88256 0.80088 0.89189 0.0
C3180 C 0.28436 0.28615 0.89252 0.0
C3181 C 0.25845 0.28974 0.89111 0.0
C3182 C 0.28209 0.2567 0.89199 0.0
C3183 C 0.23232 0.17679 0.88488 0.0
H3184 H 0.26875 0.15104 0.89871 0.0
C3185 C 0.1972 0.04713 0.88907 0.0
C3186 C 0.22099 0.04055 0.8907 0.0
C3187 C 0.20339 0.07809 0.88875 0.0
C3188 C 0.25872 0.15795 0.89476 0.0
H3189 H 0.21003 0.26504 0.88787 0.0
H3190 H 0.2061 0.21431 0.88704 0.0
H3191 H 0.27759 0.20428 0.89865 0.0
H3192 H 0.26995 0.06162 0.89336 0.0
H3193 H 0.28077 0.11542 0.89274 0.0
H3194 H 0.213 0.1303 0.88106 0.0
C3195 C 0.22833 0.23411 0.88848 0.0
C3196 C 0.26388 0.18857 0.89471 0.0
C3197 C 0.23057 0.26336 0.889 0.0
C3198 C 0.25113 0.06576 0.892 0.0
C3199 C 0.25727 0.09666 0.89172 0.0
C3200 C 0.22707 0.14618 0.88494 0.0
C3201 C 0.2539 0.2302 0.89003 0.0
C3202 C 0.25047 0.19834 0.88981 0.0
C3203 C 0.23349 0.10327 0.89011 0.0
C3204 C 0.23995 0.13623 0.88992 0.0
H3205 H 0.30618 0.3059 0.89416 0.0
H3206 H 0.3024 0.25467 0.89316 0.0
H3207 H 0.22207 0.18357 0.88095 0.0
H3208 H 0.17377 0.02834 0.888 0.0
H3209 H 0.18442 0.08226 0.88756 0.0
C3210 C 0.79153 0.03127 0.89184 0.0
C3211 C 0.78777 1.00189 0.89023 0.0
C3212 C 0.82104 0.05841 0.89142 0.0
C3213 C 0.90102 0.08901 0.88433 0.0
H3214 H 0.92677 0.14895 0.8986 0.0
C3215 C 0.03075 0.18113 0.8892 0.0
C3216 C 0.03771 0.21141 0.89103 0.0
C3217 C 0.99967 0.15683 0.88869 0.0
C3218 C 0.91986 0.13265 0.89453 0.0
H3219 H 0.81221 0.97838 0.8867 0.0
H3220 H 0.86304 0.02507 0.88606 0.0
H3221 H 0.87335 0.10503 0.89829 0.0
H3222 H 0.01721 0.23964 0.89382 0.0
H3223 H 0.96318 0.19744 0.89288 0.0
H3224 H 0.94774 0.1163 0.88066 0.0
C3225 C 0.84333 0.02747 0.88758 0.0
C3226 C 0.88913 0.10747 0.89434 0.0
C3227 C 0.81402 1.0005 0.888 0.0
C3228 C 1.01277 0.21674 0.89232 0.0
C3229 C 0.98174 0.19244 0.89185 0.0
C3230 C 0.93175 0.11408 0.88455 0.0
C3231 C 0.84742 0.05679 0.88935 0.0
C3232 C 0.87937 0.08507 0.88928 0.0
C3233 C 0.97476 0.16213 0.89005 0.0
C3234 C 0.94168 0.13607 0.88968 0.0
H3235 H 0.77188 0.03326 0.89358 0.0
H3236 H 0.8232 0.08064 0.89275 0.0
H3237 H 0.89426 0.07262 0.88028 0.0
H3238 H 0.04934 0.17621 0.88814 0.0
H3239 H 0.99518 0.13372 0.88735 0.0
C3240 C 0.89689 0.33454 0.72632 0.0
C3241 C 0.92555 0.33669 0.72801 0.0
C3242 C 0.89372 0.3611 0.7262 0.0
C3243 C 0.92791 0.44106 0.73288 0.0
H3244 H 0.87744 0.44981 0.71933 0.0
C3245 C 0.91467 0.55117 0.73059 0.0
C3246 C 0.88507 0.5466 0.72885 0.0
C3247 C 0.92063 0.52627 0.73048 0.0
C3248 C 0.8913 0.44758 0.7232 0.0
H3249 H 0.97353 0.36889 0.73081 0.0
H3250 H 0.96799 0.41549 0.73057 0.0
H3251 H 0.88693 0.40597 0.71893 0.0
H3252 H 0.8383 0.51181 0.72582 0.0
H3253 H 0.84861 0.46841 0.72565 0.0
H3254 H 0.93206 0.48261 0.73718 0.0
C3255 C 0.94789 0.39301 0.7294 0.0
C3256 C 0.89683 0.42244 0.72296 0.0
C3257 C 0.95113 0.36633 0.72949 0.0
C3258 C 0.86148 0.51633 0.72709 0.0
C3259 C 0.86744 0.49142 0.72698 0.0
C3260 C 0.92236 0.46624 0.73312 0.0
C3261 C 0.91907 0.39068 0.72777 0.0
C3262 C 0.91494 0.41864 0.72783 0.0
C3263 C 0.89717 0.49609 0.72862 0.0
C3264 C 0.90373 0.46968 0.72832 0.0
H3265 H 0.8766 0.3122 0.72515 0.0
H3266 H 0.87107 0.35828 0.72502 0.0
H3267 H 0.94164 0.43867 0.73676 0.0
H3268 H 0.93359 0.57423 0.73186 0.0
H3269 H 0.9439 0.53087 0.73169 0.0
C3270 C 0.53131 0.40336 0.72507 0.0
C3271 C 0.53752 0.37874 0.72412 0.0
C3272 C 0.5554 0.43457 0.7248 0.0
C3273 C 0.63562 0.48524 0.71853 0.0
H3274 H 0.64024 0.54362 0.73186 0.0
C3275 C 0.74816 0.60153 0.72318 0.0
C3276 C 0.74671 0.62843 0.72486 0.0
C3277 C 0.72109 0.57245 0.72263 0.0
C3278 C 0.63903 0.52781 0.72803 0.0
H3279 H 0.57403 0.36782 0.72207 0.0
H3280 H 0.61612 0.42226 0.72162 0.0
H3281 H 0.59625 0.49005 0.73183 0.0
H3282 H 0.71518 0.64562 0.72718 0.0
H3283 H 0.66746 0.59443 0.72617 0.0
H3284 H 0.67839 0.52275 0.71475 0.0
C3285 C 0.59251 0.4174 0.72253 0.0
C3286 C 0.61384 0.49704 0.72802 0.0
C3287 C 0.56844 0.38616 0.72285 0.0
C3288 C 0.71718 0.62544 0.72588 0.0
C3289 C 0.68987 0.59607 0.72534 0.0
C3290 C 0.66068 0.51596 0.71852 0.0
C3291 C 0.58632 0.442 0.72353 0.0
C3292 C 0.61211 0.47523 0.72333 0.0
C3293 C 0.69156 0.56918 0.72372 0.0
C3294 C 0.66306 0.53752 0.72334 0.0
H3295 H 0.50785 0.39853 0.72615 0.0
H3296 H 0.54975 0.4529 0.72554 0.0
H3297 H 0.6347 0.46927 0.71476 0.0
H3298 H 0.77037 0.6027 0.72233 0.0
H3299 H 0.72347 0.55231 0.72149 0.0
C3300 C 0.46406 0.13202 0.72719 0.0
C3301 C 0.45976 0.15602 0.72459 0.0
C3302 C 0.49368 0.13459 0.72711 0.0
C3303 C 0.57219 0.1772 0.71928 0.0
H3304 H 0.60071 0.15888 0.73558 0.0
C3305 C 0.7025 0.21421 0.72365 0.0
C3306 C 0.70918 0.19451 0.72747 0.0
C3307 C 0.67168 0.2082 0.723 0.0
C3308 C 0.59309 0.16366 0.73094 0.0
H3309 H 0.48311 0.20092 0.71961 0.0
H3310 H 0.53433 0.20517 0.71941 0.0
H3311 H 0.54749 0.14935 0.73477 0.0
H3312 H 0.68839 0.15227 0.73338 0.0
H3313 H 0.63494 0.1415 0.73216 0.0
H3314 H 0.61771 0.19142 0.71542 0.0
C3315 C 0.51493 0.18438 0.72153 0.0
C3316 C 0.56245 0.15818 0.73049 0.0
C3317 C 0.4855 0.18198 0.72167 0.0
C3318 C 0.68421 0.16832 0.73051 0.0
C3319 C 0.65346 0.16218 0.72982 0.0
C3320 C 0.60279 0.18248 0.71971 0.0
C3321 C 0.51959 0.16102 0.72435 0.0
C3322 C 0.55164 0.16508 0.72467 0.0
C3323 C 0.64669 0.18215 0.7261 0.0
C3324 C 0.6138 0.17598 0.72557 0.0
H3325 H 0.44483 0.11176 0.7295 0.0
H3326 H 0.49637 0.116 0.72926 0.0
H3327 H 0.56455 0.18248 0.7147 0.0
H3328 H 0.72118 0.23468 0.72128 0.0
H3329 H 0.66759 0.2244 0.72016 0.0
C3330 C 0.18553 0.18804 0.13864 0.0
C3331 C 0.21613 0.21339 0.13801 0.0
C3332 C 0.15992 0.1929 0.13871 0.0
C3333 C 0.13788 0.25416 0.14115 0.0
H3334 H 0.06297 0.19523 0.13177 0.0
C3335 C 0.03175 0.27338 0.13678 0.0
C3336 C 1.00192 0.24683 0.13749 0.0
C3337 C 0.05866 0.27053 0.13695 0.0
C3338 C 0.08359 0.21178 0.13447 0.0
H3339 H 0.2436 0.26379 0.13688 0.0
H3340 H 0.19908 0.27221 0.137 0.0
H3341 H 0.10792 0.18757 0.13196 0.0
H3342 H 0.97725 0.19655 0.13907 0.0
H3343 H 0.02371 0.19181 0.1394 0.0
H3344 H 0.11337 0.27841 0.14363 0.0
C3345 C 0.19485 0.2486 0.13756 0.0
C3346 C 0.10939 0.20733 0.13459 0.0
C3347 C 0.22044 0.24374 0.1375 0.0
C3348 C 0.99973 0.21757 0.13847 0.0
C3349 C 0.02645 0.21475 0.13861 0.0
C3350 C 0.11201 0.25865 0.14102 0.0
C3351 C 0.16421 0.22324 0.13813 0.0
C3352 C 0.13683 0.22831 0.13797 0.0
C3353 C 0.05626 0.24108 0.13778 0.0
C3354 C 0.08443 0.23735 0.13772 0.0
H3355 H 0.18135 0.16441 0.13913 0.0
H3356 H 0.13673 0.17284 0.13927 0.0
H3357 H 0.15849 0.27065 0.14386 0.0
H3358 H 0.03431 0.29625 0.13602 0.0
H3359 H 0.08127 0.29129 0.13626 0.0
C3360 C 0.88607 0.02623 0.13748 0.0
C3361 C 0.86137 0.0323 0.13658 0.0
C3362 C 0.8802 0.99546 0.13806 0.0
C3363 C 0.82129 0.9133 0.13414 0.0
H3364 H 0.86772 0.89399 0.14687 0.0
C3365 C 0.79843 0.78649 0.13815 0.0
C3366 C 0.82519 0.78362 0.13892 0.0
C3367 C 0.80084 0.8161 0.13823 0.0
C3368 C 0.8547 0.89896 0.14324 0.0
H3369 H 0.81109 0.01047 0.13546 0.0
H3370 H 0.80089 0.95698 0.13654 0.0
H3371 H 0.87633 0.94697 0.14619 0.0
H3372 H 0.87549 0.81001 0.14044 0.0
H3373 H 0.87956 0.86085 0.14048 0.0
H3374 H 0.80001 0.86534 0.13113 0.0
C3375 C 0.82483 0.97601 0.13678 0.0
C3376 C 0.85968 0.92943 0.14285 0.0
C3377 C 0.83067 1.00675 0.13625 0.0
C3378 C 0.85423 0.81104 0.13984 0.0
C3379 C 0.85661 0.84041 0.13992 0.0
C3380 C 0.81638 0.88279 0.13451 0.0
C3381 C 0.8495 0.96992 0.1377 0.0
C3382 C 0.84331 0.93712 0.13825 0.0
C3383 C 0.83003 0.84348 0.1391 0.0
C3384 C 0.83331 0.87529 0.13902 0.0
H3385 H 0.90997 0.04529 0.1378 0.0
H3386 H 0.89983 0.99167 0.13869 0.0
H3387 H 0.80845 0.91842 0.1305 0.0
H3388 H 0.7757 0.76595 0.13743 0.0
H3389 H 0.77981 0.81753 0.13763 0.0
C3390 C 0.28821 0.04501 0.13604 0.0
C3391 C 0.29215 0.07463 0.13749 0.0
C3392 C 0.25834 0.01828 0.13612 0.0
C3393 C 0.17756 0.98866 0.14239 0.0
H3394 H 0.15367 0.9279 0.12832 0.0
C3395 C 0.04886 0.89316 0.13816 0.0
C3396 C 0.04271 0.86297 0.13648 0.0
C3397 C 0.07954 0.9184 0.13829 0.0
C3398 C 0.16003 0.94443 0.13233 0.0
H3399 H 0.26751 0.09906 0.14025 0.0
H3400 H 0.21598 0.05288 0.14035 0.0
H3401 H 0.2069 0.97222 0.12876 0.0
H3402 H 0.0644 0.83583 0.13367 0.0
H3403 H 0.11773 0.87974 0.13388 0.0
H3404 H 0.13075 0.96104 0.14595 0.0
C3405 C 0.23587 0.0501 0.13921 0.0
C3406 C 0.19062 0.96985 0.13259 0.0
C3407 C 0.26556 0.07672 0.13912 0.0
C3408 C 0.0681 0.85881 0.13487 0.0
C3409 C 0.09878 0.88404 0.135 0.0
C3410 C 0.14703 0.96328 0.14213 0.0
C3411 C 0.23176 0.02053 0.13768 0.0
C3412 C 0.19972 0.99246 0.13759 0.0
C3413 C 0.10496 0.91415 0.13676 0.0
C3414 C 0.13774 0.94093 0.13707 0.0
H3415 H 0.3081 0.04248 0.13476 0.0
H3416 H 0.25608 0.99582 0.13497 0.0
H3417 H 0.18385 1.00528 0.14638 0.0
H3418 H 0.02991 0.89737 0.13934 0.0
H3419 H 0.08331 0.94134 0.13955 0.0
C3420 C 0.84005 0.86347 0.6348 0.0
C3421 C 0.86606 0.86524 0.63804 0.0
C3422 C 0.83304 0.88753 0.63538 0.0
C3423 C 0.85044 0.95769 0.64548 0.0
H3424 H 0.81837 0.97957 0.63017 0.0
C3425 C 0.85009 0.07414 0.64316 0.0
C3426 C 0.82395 0.07384 0.64032 0.0
C3427 C 0.85252 0.04714 0.6433 0.0
C3428 C 0.82689 0.97348 0.63452 0.0
H3429 H 0.90504 0.8938 0.64448 0.0
H3430 H 0.89335 0.93624 0.64539 0.0
H3431 H 0.82882 0.93637 0.62953 0.0
H3432 H 0.77952 0.04454 0.63549 0.0
H3433 H 0.78394 0.99718 0.63567 0.0
H3434 H 0.84937 0.99557 0.65039 0.0
C3435 C 0.87789 0.9159 0.64249 0.0
C3436 C 0.83289 0.94863 0.63416 0.0
C3437 C 0.88473 0.89161 0.64195 0.0
C3438 C 0.7999 0.04556 0.63773 0.0
C3439 C 0.80255 0.01851 0.63779 0.0
C3440 C 0.8447 0.98272 0.64582 0.0
C3441 C 0.85199 0.91428 0.63919 0.0
C3442 C 0.84493 0.94043 0.63963 0.0
C3443 C 0.82903 0.01908 0.64054 0.0
C3444 C 0.83304 0.99107 0.64033 0.0
H3445 H 0.82481 0.8432 0.63185 0.0
H3446 H 0.81251 0.88495 0.63289 0.0
H3447 H 0.85907 0.9518 0.64984 0.0
H3448 H 0.86903 0.09545 0.64523 0.0
H3449 H 0.87335 0.04853 0.6454 0.0
C3450 C 0.18961 0.03165 0.63997 0.0
C3451 C 0.21799 0.03927 0.63687 0.0
C3452 C 0.16511 1.00058 0.64028 0.0
C3453 C 0.13565 0.9221 0.63263 0.0
H3454 H 0.0847 0.89324 0.64838 0.0
C3455 C 0.03787 0.79236 0.63617 0.0
C3456 C 1.00921 0.78804 0.63853 0.0
C3457 C 0.06477 0.82216 0.63626 0.0
C3458 C 0.09859 0.90094 0.64393 0.0
H3459 H 0.24273 0.01973 0.63171 0.0
H3460 H 0.20019 0.96575 0.63225 0.0
H3461 H 0.12823 0.94677 0.64784 0.0
H3462 H 0.98681 0.81162 0.64304 0.0
H3463 H 0.03337 0.86304 0.64322 0.0
H3464 H 0.10586 0.87614 0.62873 0.0
C3465 C 0.1966 0.98385 0.63436 0.0
C3466 C 0.12353 0.93175 0.64361 0.0
C3467 C 0.22106 0.01492 0.63404 0.0
C3468 C 1.00839 0.81399 0.64116 0.0
C3469 C 0.03522 0.84356 0.6413 0.0
C3470 C 0.11075 0.89121 0.63297 0.0
C3471 C 0.16829 0.97617 0.63751 0.0
C3472 C 0.14224 0.94292 0.63792 0.0
C3473 C 0.0637 0.84819 0.63878 0.0
C3474 C 0.09166 0.88032 0.63859 0.0
H3475 H 0.18619 0.04976 0.64213 0.0
H3476 H 0.14351 0.99577 0.64264 0.0
H3477 H 0.14921 0.92985 0.62814 0.0
H3478 H 0.03934 0.77295 0.6341 0.0
H3479 H 0.0864 0.82484 0.63433 0.0
C3480 C 0.26979 0.23034 0.64059 0.0
C3481 C 0.29609 0.2582 0.63845 0.0
C3482 C 0.2402 0.22742 0.64074 0.0
C3483 C 0.19328 0.25862 0.63334 0.0
H3484 H 0.1366 0.21392 0.64769 0.0
C3485 C 0.06912 0.2439 0.6353 0.0
C3486 C 0.04481 0.21516 0.63766 0.0
C3487 C 0.1002 0.25052 0.6354 0.0
C3488 C 0.15195 0.22613 0.6436 0.0
H3489 H 0.3117 0.30509 0.63487 0.0
H3490 H 0.25967 0.29997 0.63512 0.0
H3491 H 0.19015 0.22414 0.64808 0.0
H3492 H 0.03435 0.17048 0.64181 0.0
H3493 H 0.08837 0.18188 0.64196 0.0
H3494 H 0.15488 0.26024 0.62882 0.0
C3495 C 0.26216 0.28031 0.63666 0.0
C3496 C 0.18276 0.23211 0.64383 0.0
C3497 C 0.29201 0.28335 0.63656 0.0
C3498 C 0.05244 0.19303 0.64004 0.0
C3499 C 0.08351 0.19963 0.64014 0.0
C3500 C 0.16236 0.25257 0.63309 0.0
C3501 C 0.23585 0.25222 0.63873 0.0
C3502 C 0.20377 0.24811 0.63867 0.0
C3503 C 0.10789 0.22859 0.63788 0.0
C3504 C 0.14115 0.23592 0.63819 0.0
H3505 H 0.27192 0.21044 0.64211 0.0
H3506 H 0.22053 0.20532 0.64228 0.0
H3507 H 0.20868 0.27068 0.62924 0.0
H3508 H 0.06427 0.26174 0.63353 0.0
H3509 H 0.11831 0.2732 0.63369 0.0
C3510 C 0.56909 0.22829 0.2272 0.0
C3511 C 0.53928 0.20406 0.22903 0.0
C3512 C 0.59466 0.22338 0.22705 0.0
C3513 C 0.61492 0.16056 0.22604 0.0
H3514 H 0.69576 0.22532 0.2323 0.0
C3515 C 0.72199 0.14202 0.22875 0.0
C3516 C 0.7514 0.16738 0.22707 0.0
C3517 C 0.69554 0.14558 0.22896 0.0
C3518 C 0.67345 0.20709 0.23046 0.0
H3519 H 0.51309 0.15545 0.23207 0.0
H3520 H 0.55769 0.14712 0.23194 0.0
H3521 H 0.65119 0.23359 0.23276 0.0
H3522 H 0.77571 0.21617 0.22408 0.0
H3523 H 0.72989 0.22212 0.22434 0.0
H3524 H 0.63729 0.1341 0.22372 0.0
C3525 C 0.56129 0.16988 0.23056 0.0
C3526 C 0.64785 0.21186 0.23073 0.0
C3527 C 0.53576 0.17481 0.23073 0.0
C3528 C 0.75355 0.19612 0.22546 0.0
C3529 C 0.72723 0.19965 0.22565 0.0
C3530 C 0.64058 0.15579 0.22576 0.0
C3531 C 0.59108 0.19407 0.22871 0.0
C3532 C 0.61826 0.18873 0.2285 0.0
C3533 C 0.69792 0.17459 0.22749 0.0
C3534 C 0.67025 0.17909 0.22793 0.0
H3535 H 0.57273 0.25116 0.2259 0.0
H3536 H 0.61719 0.24247 0.22554 0.0
H3537 H 0.59258 0.14237 0.2242 0.0
H3538 H 0.71949 0.11958 0.23004 0.0
H3539 H 0.67339 0.12582 0.23044 0.0
C3540 C 0.89475 0.60086 0.22541 0.0
C3541 C 0.92388 0.62807 0.22641 0.0
C3542 C 0.89222 0.57142 0.22514 0.0
C3543 C 0.93279 0.52864 0.23011 0.0
H3544 H 0.87238 0.46502 0.21841 0.0
C3545 C 0.9211 0.40623 0.22743 0.0
C3546 C 0.8907 0.38019 0.22709 0.0
C3547 C 0.92608 0.43672 0.22714 0.0
C3548 C 0.88915 0.48241 0.22175 0.0
H3549 H 0.97338 0.64534 0.22778 0.0
H3550 H 0.96903 0.59377 0.22721 0.0
H3551 H 0.88033 0.51784 0.21804 0.0
H3552 H 0.8417 0.36605 0.22613 0.0
H3553 H 0.85033 0.41928 0.22567 0.0
H3554 H 0.94157 0.49307 0.23381 0.0
C3555 C 0.94802 0.59533 0.22673 0.0
C3556 C 0.89375 0.51278 0.22154 0.0
C3557 C 0.95057 0.62497 0.22701 0.0
C3558 C 0.86539 0.38551 0.22645 0.0
C3559 C 0.87039 0.41606 0.22612 0.0
C3560 C 0.92827 0.49826 0.2303 0.0
C3561 C 0.91874 0.56812 0.22583 0.0
C3562 C 0.9154 0.53627 0.22577 0.0
C3563 C 0.90081 0.44208 0.22647 0.0
C3564 C 0.90618 0.47465 0.22616 0.0
H3565 H 0.87356 0.60211 0.22494 0.0
H3566 H 0.86921 0.5511 0.22455 0.0
H3567 H 0.94933 0.5459 0.2335 0.0
H3568 H 0.94115 0.40309 0.22801 0.0
H3569 H 0.94982 0.45613 0.22737 0.0
C3570 C 0.46418 0.3671 0.22825 0.0
C3571 C 0.4592 0.33864 0.22562 0.0
C3572 C 0.49428 0.39353 0.22829 0.0
C3573 C 0.57753 0.41413 0.22744 0.0
H3574 H 0.59362 0.4985 0.22456 0.0
C3575 C 0.69921 0.52168 0.23201 0.0
C3576 C 0.70981 0.54725 0.22768 0.0
C3577 C 0.6685 0.49676 0.23166 0.0
C3578 C 0.58957 0.47505 0.22532 0.0
H3579 H 0.4816 0.31616 0.22064 0.0
H3580 H 0.53334 0.36195 0.22058 0.0
H3581 H 0.5401 0.45464 0.22395 0.0
H3582 H 0.69614 0.56635 0.21954 0.0
H3583 H 0.64288 0.52239 0.21879 0.0
H3584 H 0.62686 0.43419 0.22863 0.0
C3585 C 0.51444 0.36383 0.2228 0.0
C3586 C 0.55881 0.44993 0.22505 0.0
C3587 C 0.48462 0.33754 0.2228 0.0
C3588 C 0.68896 0.54692 0.22291 0.0
C3589 C 0.65822 0.5219 0.22255 0.0
C3590 C 0.60819 0.43914 0.22768 0.0
C3591 C 0.5199 0.392 0.22567 0.0
C3592 C 0.55241 0.4191 0.22608 0.0
C3593 C 0.64751 0.49656 0.22694 0.0
C3594 C 0.61468 0.46996 0.22662 0.0
H3595 H 0.44509 0.36867 0.23047 0.0
H3596 H 0.49763 0.41481 0.23057 0.0
H3597 H 0.57354 0.39081 0.22836 0.0
H3598 H 0.71465 0.52093 0.2357 0.0
H3599 H 0.66108 0.47786 0.23518 0.0
C3600 C 0.60951 0.48746 0.06267 0.0
C3601 C 0.58476 0.49312 0.06138 0.0
C3602 C 0.60409 0.45662 0.06286 0.0
C3603 C 0.53978 0.37632 0.06579 0.0
H3604 H 0.58835 0.34773 0.05611 0.0
C3605 C 0.49057 0.24634 0.06037 0.0
C3606 C 0.51034 0.23368 0.06106 0.0
C3607 C 0.50262 0.27864 0.06059 0.0
C3608 C 0.5748 0.35544 0.05891 0.0
H3609 H 0.53521 0.47061 0.05901 0.0
H3610 H 0.52614 0.41791 0.05936 0.0
H3611 H 0.60525 0.40371 0.05634 0.0
H3612 H 0.55853 0.24535 0.06245 0.0
H3613 H 0.5796 0.3019 0.06281 0.0
H3614 H 0.50912 0.32845 0.06831 0.0
C3615 C 0.54954 0.43699 0.06034 0.0
C3616 C 0.58454 0.38747 0.05905 0.0
C3617 C 0.55489 0.46742 0.06012 0.0
C3618 C 0.54265 0.25429 0.06183 0.0
C3619 C 0.55475 0.28672 0.06205 0.0
C3620 C 0.53013 0.34452 0.06566 0.0
C3621 C 0.57383 0.43109 0.06182 0.0
C3622 C 0.56661 0.39809 0.06235 0.0
C3623 C 0.53479 0.29925 0.06153 0.0
C3624 C 0.54701 0.33353 0.06208 0.0
H3625 H 0.63283 0.50669 0.06363 0.0
H3626 H 0.6233 0.45271 0.06398 0.0
H3627 H 0.52582 0.38386 0.06849 0.0
H3628 H 0.46568 0.23124 0.05963 0.0
H3629 H 0.48665 0.28751 0.06001 0.0
C3630 C 0.83119 0.31897 0.06602 0.0
C3631 C 0.85098 0.3152 0.06161 0.0
C3632 C 0.79873 0.29987 0.06559 0.0
C3633 C 0.73543 0.24377 0.05439 0.0
H3634 H 0.6879 0.214 0.07058 0.0
C3635 C 0.61653 0.13111 0.0561 0.0
C3636 C 0.59268 0.13094 0.0599 0.0
C3637 C 0.64639 0.15732 0.05597 0.0
C3638 C 0.70076 0.22254 0.06602 0.0
H3639 H 0.85225 0.28838 0.05331 0.0
H3640 H 0.79575 0.25449 0.05264 0.0
H3641 H 0.74362 0.25212 0.07107 0.0
H3642 H 0.5812 0.15844 0.06642 0.0
H3643 H 0.63411 0.20444 0.06632 0.0
H3644 H 0.69271 0.21295 0.04938 0.0
C3645 C 0.80514 0.27273 0.05634 0.0
C3646 C 0.73275 0.24442 0.06628 0.0
C3647 C 0.83758 0.29206 0.05673 0.0
C3648 C 0.59915 0.15795 0.06345 0.0
C3649 C 0.62938 0.18414 0.06341 0.0
C3650 C 0.70357 0.22166 0.05413 0.0
C3651 C 0.78522 0.2763 0.06077 0.0
C3652 C 0.75066 0.25492 0.06047 0.0
C3653 C 0.65334 0.18394 0.0597 0.0
C3654 C 0.68601 0.21039 0.05995 0.0
H3655 H 0.84084 0.33694 0.06978 0.0
H3656 H 0.78423 0.30375 0.06901 0.0
H3657 H 0.74819 0.25183 0.0498 0.0
H3658 H 0.61224 0.11076 0.05327 0.0
H3659 H 0.66439 0.15632 0.05312 0.0
C3660 C 0.96641 0.53364 0.05956 0.0
C3661 C 0.96207 0.50387 0.06106 0.0
C3662 C 0.94161 0.5394 0.05984 0.0
C3663 C 0.8566 0.50395 0.05924 0.0
H3664 H 0.87488 0.58216 0.06749 0.0
C3665 C 0.76492 0.54481 0.06239 0.0
C3666 C 0.77578 0.57674 0.06122 0.0
C3667 C 0.78574 0.53332 0.06253 0.0
C3668 C 0.86943 0.56036 0.06512 0.0
H3669 H 0.92762 0.45647 0.06381 0.0
H3670 H 0.88376 0.46671 0.06427 0.0
H3671 H 0.914 0.56602 0.0676 0.0
H3672 H 0.81688 0.62125 0.05897 0.0
H3673 H 0.85304 0.60131 0.0592 0.0
H3674 H 0.81203 0.49867 0.05668 0.0
C3675 C 0.90672 0.48551 0.06291 0.0
C3676 C 0.89182 0.55105 0.0652 0.0
C3677 C 0.93182 0.47968 0.06266 0.0
C3678 C 0.8078 0.59669 0.06002 0.0
C3679 C 0.82854 0.58524 0.06016 0.0
C3680 C 0.83406 0.51333 0.05915 0.0
C3681 C 0.91157 0.51564 0.06161 0.0
C3682 C 0.886 0.52313 0.06213 0.0
C3683 C 0.81788 0.55351 0.0615 0.0
C3684 C 0.84054 0.54202 0.06197 0.0
H3685 H 0.98918 0.55287 0.05823 0.0
H3686 H 0.94601 0.56266 0.05866 0.0
H3687 H 0.85149 0.48237 0.05682 0.0
H3688 H 0.74045 0.52884 0.06341 0.0
H3689 H 0.77678 0.50882 0.06362 0.0
C3690 C 0.47232 0.55372 0.47379 0.0
C3691 C 0.49726 0.58146 0.47121 0.0
C3692 C 0.44173 0.54778 0.47339 0.0
C3693 C 0.39109 0.58102 0.47179 0.0
H3694 H 0.33242 0.49861 0.46502 0.0
C3695 C 0.25806 0.53628 0.46832 0.0
C3696 C 0.23744 0.50471 0.46989 0.0
C3697 C 0.29043 0.54819 0.46824 0.0
C3698 C 0.34836 0.52158 0.46699 0.0
H3699 H 0.50947 0.6255 0.46647 0.0
H3700 H 0.45528 0.61507 0.46585 0.0
H3701 H 0.3879 0.51583 0.46531 0.0
H3702 H 0.23476 0.46128 0.47287 0.0
H3703 H 0.29098 0.48199 0.47282 0.0
H3704 H 0.35126 0.58635 0.47365 0.0
C3705 C 0.45987 0.59793 0.46813 0.0
C3706 C 0.3802 0.53151 0.46711 0.0
C3707 C 0.49082 0.60387 0.46848 0.0
C3708 C 0.24995 0.48553 0.47152 0.0
C3709 C 0.28222 0.49744 0.47147 0.0
C3710 C 0.35903 0.57095 0.47171 0.0
C3711 C 0.43502 0.56942 0.47044 0.0
C3712 C 0.40185 0.56103 0.46964 0.0
C3713 C 0.3029 0.5288 0.46974 0.0
C3714 C 0.33721 0.5408 0.46943 0.0
H3715 H 0.47621 0.53601 0.47602 0.0
H3716 H 0.42314 0.52591 0.47534 0.0
H3717 H 0.4073 0.60384 0.47379 0.0
H3718 H 0.24914 0.55159 0.46698 0.0
H3719 H 0.3056 0.57236 0.46684 0.0
C3720 C 0.58293 0.78755 0.47461 0.0
C3721 C 0.57463 0.76597 0.46943 0.0
C3722 C 0.56941 0.80648 0.47512 0.0
C3723 C 0.52735 0.83741 0.46528 0.0
H3724 H 0.51357 0.86239 0.48248 0.0
C3725 C 0.4795 0.92283 0.46883 0.0
C3726 C 0.49917 0.94851 0.47282 0.0
C3727 C 0.48326 0.89649 0.46861 0.0
C3728 C 0.51716 0.85548 0.47764 0.0
H3729 H 0.545 0.74668 0.46084 0.0
H3730 H 0.52094 0.77926 0.46179 0.0
H3731 H 0.53074 0.82402 0.48166 0.0
H3732 H 0.53691 0.96611 0.47995 0.0
H3733 H 0.54296 0.92021 0.47966 0.0
H3734 H 0.51387 0.86918 0.46129 0.0
C3735 C 0.53845 0.78217 0.46537 0.0
C3736 C 0.52724 0.83368 0.47717 0.0
C3737 C 0.55221 0.76345 0.46483 0.0
C3738 C 0.52154 0.94677 0.4768 0.0
C3739 C 0.52488 0.92037 0.47667 0.0
C3740 C 0.51694 0.85901 0.46576 0.0
C3741 C 0.54697 0.80407 0.47051 0.0
C3742 C 0.53326 0.82494 0.47099 0.0
C3743 C 0.50623 0.89519 0.47249 0.0
C3744 C 0.51249 0.86883 0.47195 0.0
H3745 H 0.60039 0.79028 0.47819 0.0
H3746 H 0.5771 0.82349 0.47906 0.0
H3747 H 0.532 0.83154 0.46044 0.0
H3748 H 0.46211 0.92361 0.46571 0.0
H3749 H 0.4685 0.8773 0.46536 0.0
C3750 C 0.33319 0.82321 0.47085 0.0
C3751 C 0.32156 0.84383 0.47176 0.0
C3752 C 0.31299 0.79071 0.47091 0.0
C3753 C 0.2363 0.73133 0.47727 0.0
H3754 H 0.23665 0.67689 0.46355 0.0
C3755 C 0.12932 0.61275 0.47231 0.0
C3756 C 0.13244 0.58663 0.4708 0.0
C3757 C 0.15539 0.64253 0.47276 0.0
C3758 C 0.23664 0.69168 0.46748 0.0
H3759 H 0.27917 0.84606 0.47317 0.0
H3760 H 0.24435 0.78979 0.47343 0.0
H3761 H 0.27691 0.73245 0.46362 0.0
H3762 H 0.16587 0.57169 0.46855 0.0
H3763 H 0.21195 0.62439 0.46935 0.0
H3764 H 0.19604 0.69107 0.4811 0.0
C3765 C 0.26915 0.79873 0.47276 0.0
C3766 C 0.25962 0.72349 0.46751 0.0
C3767 C 0.28919 0.83107 0.47263 0.0
C3768 C 0.16261 0.59126 0.46973 0.0
C3769 C 0.18896 0.62142 0.47017 0.0
C3770 C 0.21358 0.6997 0.47726 0.0
C3771 C 0.28079 0.77816 0.47196 0.0
C3772 C 0.25906 0.7438 0.4723 0.0
C3773 C 0.18557 0.64735 0.47174 0.0
C3774 C 0.21282 0.67966 0.47225 0.0
H3775 H 0.35799 0.83211 0.47023 0.0
H3776 H 0.32263 0.77542 0.47031 0.0
H3777 H 0.23569 0.74624 0.48111 0.0
H3778 H 0.1066 0.61039 0.47315 0.0
H3779 H 0.15177 0.66198 0.47384 0.0
C3780 C 0.51919 0.605 0.97536 0.0
C3781 C 0.49647 0.58154 0.97132 0.0
C3782 C 0.52324 0.63505 0.97541 0.0
C3783 C 0.51569 0.69045 0.96493 0.0
H3784 H 0.53118 0.73771 0.9811 0.0
C3785 C 0.55047 0.82118 0.96467 0.0
C3786 C 0.57322 0.8409 0.96924 0.0
C3787 C 0.53691 0.78866 0.96511 0.0
C3788 C 0.52725 0.725 0.97653 0.0
H3789 H 0.45956 0.57098 0.96426 0.0
H3790 H 0.46712 0.62415 0.96424 0.0
H3791 H 0.51393 0.68206 0.9816 0.0
H3792 H 0.59961 0.84195 0.97785 0.0
H3793 H 0.57667 0.78537 0.97855 0.0
H3794 H 0.53029 0.7335 0.95983 0.0
C3795 C 0.48166 0.619 0.9674 0.0
C3796 C 0.51712 0.69303 0.97683 0.0
C3797 C 0.47722 0.58859 0.96743 0.0
C3798 C 0.58192 0.82736 0.9743 0.0
C3799 C 0.5686 0.79486 0.97471 0.0
C3800 C 0.52613 0.72253 0.96463 0.0
C3801 C 0.50494 0.64259 0.97135 0.0
C3802 C 0.51174 0.67551 0.97103 0.0
C3803 C 0.54596 0.77502 0.97011 0.0
C3804 C 0.53258 0.74038 0.97043 0.0
H3805 H 0.53425 0.60027 0.97845 0.0
H3806 H 0.54154 0.65272 0.97846 0.0
H3807 H 0.51211 0.67764 0.96038 0.0
H3808 H 0.54291 0.8309 0.96077 0.0
H3809 H 0.51918 0.77424 0.96156 0.0
C3810 C 0.25693 0.7636 0.96503 0.0
C3811 C 0.23643 0.76674 0.96936 0.0
C3812 C 0.28917 0.78437 0.96534 0.0
C3813 C 0.34534 0.86445 0.97031 0.0
H3814 H 0.40712 0.83796 0.96956 0.0
C3815 C 0.47442 0.95304 0.97432 0.0
C3816 C 0.49674 0.95142 0.97032 0.0
C3817 C 0.44354 0.92868 0.97443 0.0
C3818 C 0.39019 0.84577 0.96969 0.0
H3819 H 0.23375 0.7939 0.97744 0.0
H3820 H 0.29002 0.83032 0.97795 0.0
H3821 H 0.35137 0.7988 0.96933 0.0
H3822 H 0.50448 0.92235 0.96349 0.0
H3823 H 0.44988 0.87971 0.96352 0.0
H3824 H 0.38363 0.91125 0.97051 0.0
C3825 C 0.28112 0.81177 0.97432 0.0
C3826 C 0.35827 0.82333 0.96958 0.0
C3827 C 0.24894 0.79079 0.97407 0.0
C3828 C 0.48774 0.9242 0.96662 0.0
C3829 C 0.45648 0.8998 0.96665 0.0
C3830 C 0.37709 0.88681 0.97036 0.0
C3831 C 0.30157 0.80897 0.96993 0.0
C3832 C 0.33552 0.83246 0.96996 0.0
C3833 C 0.43384 0.90211 0.97045 0.0
C3834 C 0.40001 0.87783 0.97014 0.0
H3835 H 0.24799 0.74508 0.9614 0.0
H3836 H 0.3043 0.78171 0.96187 0.0
H3837 H 0.32842 0.87228 0.97046 0.0
H3838 H 0.48075 0.97343 0.97735 0.0
H3839 H 0.42713 0.93093 0.97759 0.0
C3840 C 0.12252 0.54711 0.96665 0.0
C3841 C 0.12673 0.5763 0.96859 0.0
C3842 C 0.14766 0.5418 0.96645 0.0
C3843 C 0.22292 0.56493 0.97387 0.0
H3844 H 0.2316 0.52027 0.95906 0.0
C3845 C 0.31865 0.52923 0.9728 0.0
C3846 C 0.31023 0.50005 0.96996 0.0
C3847 C 0.29839 0.54134 0.97252 0.0
C3848 C 0.22934 0.53243 0.96328 0.0
H3849 H 0.16083 0.62299 0.9718 0.0
H3850 H 0.20519 0.6134 0.97158 0.0
H3851 H 0.19338 0.53762 0.95858 0.0
H3852 H 0.27345 0.46066 0.96466 0.0
H3853 H 0.2378 0.48106 0.96441 0.0
H3854 H 0.25809 0.55875 0.97867 0.0
C3855 C 0.1822 0.59477 0.97017 0.0
C3856 C 0.20758 0.54259 0.96297 0.0
C3857 C 0.15692 0.60031 0.97026 0.0
C3858 C 0.28071 0.48303 0.96697 0.0
C3859 C 0.2604 0.49503 0.96673 0.0
C3860 C 0.24458 0.55451 0.9742 0.0
C3861 C 0.17772 0.5654 0.96826 0.0
C3862 C 0.2037 0.55843 0.9683 0.0
C3863 C 0.26909 0.52453 0.96942 0.0
C3864 C 0.24763 0.53756 0.96895 0.0
H3865 H 0.09963 0.52814 0.96528 0.0
H3866 H 0.14339 0.51884 0.96503 0.0
H3867 H 0.22023 0.57684 0.97807 0.0
H3868 H 0.34098 0.54286 0.97524 0.0
H3869 H 0.30599 0.56418 0.97463 0.0
C3870 C 0.60865 0.51159 0.5553 0.0
C3871 C 0.58593 0.49017 0.55966 0.0
C3872 C 0.63884 0.51605 0.55525 0.0
C3873 C 0.69589 0.51279 0.56605 0.0
H3874 H 0.74188 0.52397 0.54985 0.0
C3875 C 0.82651 0.54768 0.56633 0.0
C3876 C 0.84594 0.56903 0.56151 0.0
C3877 C 0.794 0.53411 0.56594 0.0
C3878 C 0.72953 0.52128 0.55443 0.0
H3879 H 0.57683 0.45594 0.56728 0.0
H3880 H 0.6302 0.46418 0.56729 0.0
H3881 H 0.68614 0.50622 0.5494 0.0
H3882 H 0.84645 0.59288 0.55252 0.0
H3883 H 0.78987 0.56993 0.55192 0.0
H3884 H 0.73934 0.52906 0.57108 0.0
C3885 C 0.62438 0.4774 0.56389 0.0
C3886 C 0.69751 0.51088 0.55416 0.0
C3887 C 0.59383 0.47253 0.56385 0.0
C3888 C 0.83209 0.57628 0.55627 0.0
C3889 C 0.79958 0.56296 0.55592 0.0
C3890 C 0.728 0.52351 0.56631 0.0
C3891 C 0.64729 0.49949 0.55963 0.0
C3892 C 0.68041 0.50695 0.55996 0.0
C3893 C 0.78004 0.54175 0.56076 0.0
C3894 C 0.74541 0.52836 0.5605 0.0
H3895 H 0.60324 0.52542 0.55197 0.0
H3896 H 0.65596 0.53341 0.55196 0.0
H3897 H 0.68345 0.5104 0.57059 0.0
H3898 H 0.83646 0.54121 0.57037 0.0
H3899 H 0.77983 0.51746 0.5697 0.0
C3900 C 0.60528 0.15324 0.56453 0.0
C3901 C 0.58387 0.12455 0.56162 0.0
C3902 C 0.60022 0.17879 0.56421 0.0
C3903 C 0.5571 0.21016 0.55503 0.0
H3904 H 0.55676 0.2494 0.57152 0.0
C3905 C 0.49478 0.28203 0.55763 0.0
C3906 C 0.50719 0.30767 0.56195 0.0
C3907 C 0.50758 0.26239 0.55732 0.0
C3908 C 0.55727 0.2392 0.56684 0.0
H3909 H 0.54132 0.10062 0.55584 0.0
H3910 H 0.53289 0.145 0.55521 0.0
H3911 H 0.5747 0.21152 0.5713 0.0
H3912 H 0.54347 0.33341 0.56917 0.0
H3913 H 0.56627 0.29964 0.56853 0.0
H3914 H 0.53967 0.23763 0.55055 0.0
C3915 C 0.5534 0.14785 0.55777 0.0
C3916 C 0.56757 0.21744 0.56673 0.0
C3917 C 0.55814 0.12232 0.55818 0.0
C3918 C 0.53307 0.31354 0.56587 0.0
C3919 C 0.54609 0.2941 0.5655 0.0
C3920 C 0.54709 0.23212 0.55513 0.0
C3921 C 0.57405 0.17623 0.56087 0.0
C3922 C 0.56699 0.20221 0.56084 0.0
C3923 C 0.53339 0.26808 0.56126 0.0
C3924 C 0.5464 0.24649 0.56106 0.0
H3925 H 0.62528 0.15561 0.56723 0.0
H3926 H 0.6166 0.20046 0.56662 0.0
H3927 H 0.55674 0.19907 0.55041 0.0
H3928 H 0.47464 0.27671 0.55461 0.0
H3929 H 0.49672 0.2423 0.55408 0.0
C3930 C 0.95724 0.46841 0.55679 0.0
C3931 C 0.95516 0.49239 0.56007 0.0
C3932 C 0.93169 0.43811 0.55653 0.0
C3933 C 0.86125 0.38384 0.5655 0.0
H3934 H 0.8419 0.3342 0.54957 0.0
C3935 C 0.7637 0.25386 0.56497 0.0
C3936 C 0.76965 0.23308 0.56137 0.0
C3937 C 0.78347 0.28622 0.56443 0.0
C3938 C 0.84715 0.34758 0.55409 0.0
H3939 H 0.92425 0.50338 0.56554 0.0
H3940 H 0.87938 0.44989 0.56516 0.0
H3941 H 0.88107 0.38963 0.54929 0.0
H3942 H 0.80097 0.23004 0.55435 0.0
H3943 H 0.83592 0.2864 0.55351 0.0
H3944 H 0.82828 0.34168 0.57038 0.0
C3945 C 0.90099 0.45481 0.56279 0.0
C3946 C 0.8695 0.37943 0.55391 0.0
C3947 C 0.92659 0.48543 0.56298 0.0
C3948 C 0.79559 0.24544 0.55714 0.0
C3949 C 0.81556 0.27782 0.55664 0.0
C3950 C 0.83906 0.35189 0.5657 0.0
C3951 C 0.90337 0.43079 0.55959 0.0
C3952 C 0.87717 0.39783 0.55963 0.0
C3953 C 0.80992 0.29869 0.56032 0.0
C3954 C 0.83203 0.33318 0.56001 0.0
H3955 H 0.9788 0.47293 0.55445 0.0
H3956 H 0.93445 0.42014 0.55409 0.0
H3957 H 0.86689 0.39729 0.57001 0.0
H3958 H 0.7436 0.24506 0.56819 0.0
H3959 H 0.77794 0.30145 0.56724 0.0
C3960 C 0.16642 0.58042 0.39246 0.0
C3961 C 0.18637 0.56792 0.39313 0.0
C3962 C 0.17841 0.61272 0.39236 0.0
C3963 C 0.24483 0.68814 0.39742 0.0
H3964 H 0.21047 0.72069 0.38452 0.0
C3965 C 0.28003 0.82046 0.39564 0.0
C3966 C 0.25447 0.82538 0.3949 0.0
C3967 C 0.27584 0.79019 0.39508 0.0
C3968 C 0.22027 0.71201 0.38818 0.0
H3969 H 0.23484 0.58008 0.3943 0.0
H3970 H 0.25567 0.63668 0.39427 0.0
H3971 H 0.19513 0.66557 0.3843 0.0
H3972 H 0.20445 0.80203 0.39303 0.0
H3973 H 0.19738 0.75019 0.39212 0.0
H3974 H 0.2693 0.73466 0.40141 0.0
C3975 C 0.23069 0.62122 0.3938 0.0
C3976 C 0.21144 0.68039 0.38805 0.0
C3977 C 0.2187 0.58877 0.39384 0.0
C3978 C 0.22482 0.79942 0.3936 0.0
C3979 C 0.22072 0.76951 0.39303 0.0
C3980 C 0.2536 0.71993 0.39757 0.0
C3981 C 0.21067 0.63353 0.39299 0.0
C3982 C 0.22296 0.66788 0.39276 0.0
C3983 C 0.24609 0.76441 0.39371 0.0
C3984 C 0.2407 0.732 0.39306 0.0
H3985 H 0.14137 0.56524 0.39207 0.0
H3986 H 0.16227 0.62143 0.39187 0.0
H3987 H 0.25409 0.67916 0.40112 0.0
H3988 H 0.30318 0.83989 0.39664 0.0
H3989 H 0.29588 0.78701 0.39563 0.0
C3990 C 0.49577 0.66227 0.39313 0.0
C3991 C 0.51636 0.6504 0.3926 0.0
C3992 C 0.46329 0.64209 0.39301 0.0
C3993 C 0.40426 0.56375 0.38724 0.0
H3994 H 0.349 0.56748 0.40031 0.0
C3995 C 0.28668 0.4575 0.39295 0.0
C3996 C 0.26001 0.46044 0.39381 0.0
C3997 C 0.31626 0.48377 0.39245 0.0
C3998 C 0.36404 0.56652 0.39656 0.0
H3999 H 0.51857 0.60772 0.3918 0.0
H4000 H 0.46237 0.57291 0.39146 0.0
H4001 H 0.40449 0.60796 0.40014 0.0
H4002 H 0.24388 0.49375 0.39493 0.0
H4003 H 0.29635 0.54026 0.39406 0.0
H4004 H 0.36434 0.5222 0.38372 0.0
C4005 C 0.47129 0.59784 0.39187 0.0
C4006 C 0.39579 0.58962 0.39647 0.0
C4007 C 0.5036 0.61787 0.39204 0.0
C4008 C 0.2639 0.49065 0.39424 0.0
C4009 C 0.29389 0.51723 0.39377 0.0
C4010 C 0.37271 0.54088 0.38731 0.0
C4011 C 0.45073 0.60967 0.39229 0.0
C4012 C 0.4164 0.58786 0.39194 0.0
C4013 C 0.32033 0.51396 0.39278 0.0
C4014 C 0.35242 0.54135 0.3921 0.0
H4015 H 0.5047 0.6872 0.39351 0.0
H4016 H 0.44802 0.6519 0.39333 0.0
H4017 H 0.41936 0.56216 0.38359 0.0
H4018 H 0.28488 0.43477 0.39263 0.0
H4019 H 0.33613 0.48035 0.39184 0.0
C4020 C 0.47098 0.92147 0.39206 0.0
C4021 C 0.43956 0.90289 0.39393 0.0
C4022 C 0.49031 0.90845 0.3915 0.0
C4023 C 0.50024 0.84342 0.3973 0.0
H4024 H 0.55971 0.86966 0.38294 0.0
C4025 C 0.59473 0.80542 0.39478 0.0
C4026 C 0.62485 0.83073 0.39354 0.0
C4027 C 0.56849 0.80936 0.39432 0.0
C4028 C 0.54323 0.86206 0.38698 0.0
H4029 H 0.40385 0.85604 0.39673 0.0
H4030 H 0.43772 0.83326 0.39572 0.0
H4031 H 0.52086 0.88626 0.38313 0.0
H4032 H 0.65077 0.87977 0.39073 0.0
H4033 H 0.60571 0.8864 0.38996 0.0
H4034 H 0.52343 0.82001 0.40124 0.0
C4035 C 0.44733 0.85792 0.3947 0.0
C4036 C 0.52103 0.87165 0.3871 0.0
C4037 C 0.4279 0.87092 0.39521 0.0
C4038 C 0.62804 0.8597 0.39174 0.0
C4039 C 0.60206 0.8635 0.39123 0.0
C4040 C 0.52261 0.83386 0.39719 0.0
C4041 C 0.47876 0.87655 0.39282 0.0
C4042 C 0.49983 0.8632 0.39235 0.0
C4043 C 0.57197 0.8385 0.39251 0.0
C4044 C 0.54494 0.84388 0.39213 0.0
H4045 H 0.48062 0.94611 0.391 0.0
H4046 H 0.51452 0.92355 0.39012 0.0
H4047 H 0.48425 0.83656 0.40142 0.0
H4048 H 0.59149 0.78281 0.39618 0.0
H4049 H 0.54553 0.78964 0.39533 0.0
C4050 C 0.15943 0.93546 0.80407 0.0
C4051 C 0.16562 0.91125 0.80259 0.0
C4052 C 0.12842 0.92924 0.80451 0.0
C4053 C 0.04845 0.86233 0.80726 0.0
H4054 H 0.01958 0.91609 0.80001 0.0
C4055 C 0.91856 0.81824 0.80231 0.0
C4056 C 0.90633 0.83754 0.80408 0.0
C4057 C 0.95069 0.82939 0.80259 0.0
C4058 C 0.02741 0.90103 0.80213 0.0
H4059 H 0.14417 0.86212 0.79999 0.0
H4060 H 0.09096 0.85165 0.80063 0.0
H4061 H 0.07529 0.93249 0.79953 0.0
H4062 H 0.91877 0.88384 0.80763 0.0
H4063 H 0.97498 0.90341 0.80797 0.0
H4064 H 1.00071 0.83057 0.80972 0.0
C4065 C 0.10969 0.87513 0.80168 0.0
C4066 C 0.0593 0.91045 0.80186 0.0
C4067 C 0.14035 0.88124 0.80128 0.0
C4068 C 0.92727 0.86839 0.80613 0.0
C4069 C 0.95951 0.87965 0.80634 0.0
C4070 C 0.01672 0.85289 0.80749 0.0
C4071 C 0.1032 0.89876 0.80346 0.0
C4072 C 0.07007 0.89083 0.80429 0.0
C4073 C 0.97155 0.86023 0.80459 0.0
C4074 C 1.00571 0.8718 0.80481 0.0
H4075 H 0.17841 0.95883 0.80511 0.0
H4076 H 0.1242 0.948 0.80588 0.0
H4077 H 0.05601 0.847 0.80935 0.0
H4078 H 0.90339 0.79463 0.80057 0.0
H4079 H 0.95929 0.81399 0.80111 0.0
C4080 C 0.24751 0.11862 0.80843 0.0
C4081 C 0.24176 0.09878 0.80301 0.0
C4082 C 0.23384 0.13749 0.80878 0.0
C4083 C 0.19692 0.17177 0.79825 0.0
H4084 H 0.17465 0.19178 0.81513 0.0
C4085 C 0.14584 0.25466 0.80068 0.0
C4086 C 0.16241 0.27914 0.80517 0.0
C4087 C 0.15035 0.22876 0.80058 0.0
C4088 C 0.18069 0.18633 0.81038 0.0
H4089 H 0.21632 0.08237 0.79383 0.0
H4090 H 0.19197 0.11474 0.79448 0.0
H4091 H 0.19266 0.15398 0.81459 0.0
H4092 H 0.19523 0.29493 0.81331 0.0
H4093 H 0.20262 0.24978 0.81321 0.0
H4094 H 0.18501 0.20433 0.79407 0.0
C4095 C 0.20769 0.11644 0.79839 0.0
C4096 C 0.19123 0.16483 0.81007 0.0
C4097 C 0.2216 0.09781 0.79801 0.0
C4098 C 0.18226 0.27651 0.80976 0.0
C4099 C 0.18636 0.25053 0.80974 0.0
C4100 C 0.18608 0.19306 0.79856 0.0
C4101 C 0.2138 0.13675 0.80375 0.0
C4102 C 0.20013 0.15772 0.80402 0.0
C4103 C 0.17101 0.22668 0.80506 0.0
C4104 C 0.17846 0.20105 0.80464 0.0
H4105 H 0.26317 0.1201 0.81233 0.0
H4106 H 0.23963 0.1532 0.81293 0.0
H4107 H 0.2039 0.16727 0.79351 0.0
H4108 H 0.13048 0.25614 0.79706 0.0
H4109 H 0.13808 0.21061 0.79694 0.0
C4110 C 0.98628 0.15812 0.79724 0.0
C4111 C 0.98118 0.17846 0.80122 0.0
C4112 C 0.96653 0.12567 0.79766 0.0
C4113 C 0.90609 0.0636 0.80844 0.0
H4114 H 0.88268 0.01378 0.79249 0.0
C4115 C 0.79614 0.9424 0.80655 0.0
C4116 C 0.79761 0.91836 0.80316 0.0
C4117 C 0.82158 0.97279 0.80661 0.0
C4118 C 0.88938 0.02728 0.797 0.0
H4119 H 0.95105 0.1806 0.80869 0.0
H4120 H 0.91625 0.12423 0.80933 0.0
H4121 H 0.9206 0.06963 0.79194 0.0
H4122 H 0.82734 0.90734 0.79726 0.0
H4123 H 0.87204 0.96105 0.79727 0.0
H4124 H 0.87395 0.0214 0.81345 0.0
C4125 C 0.93597 0.13316 0.806 0.0
C4126 C 0.91115 0.05936 0.7967 0.0
C4127 C 0.95586 0.16557 0.80562 0.0
C4128 C 0.82552 0.92534 0.79992 0.0
C4129 C 0.85099 0.95608 0.7999 0.0
C4130 C 0.88417 0.03165 0.80874 0.0
C4131 C 0.94101 0.1127 0.80203 0.0
C4132 C 0.91943 0.0781 0.8024 0.0
C4133 C 0.84918 0.98015 0.80323 0.0
C4134 C 0.87516 0.01321 0.80301 0.0
H4135 H 1.00585 0.16728 0.79387 0.0
H4136 H 0.97153 0.11075 0.7946 0.0
H4137 H 0.9124 0.07698 0.81297 0.0
H4138 H 0.77509 0.93783 0.80913 0.0
H4139 H 0.81926 0.99079 0.80916 0.0
C4140 C 0.19999 0.94533 0.30713 0.0
C4141 C 0.17072 0.92 0.30532 0.0
C4142 C 0.20574 0.97591 0.30683 0.0
C4143 C 0.17117 0.02614 0.30677 0.0
H4144 H 0.25023 0.08497 0.29868 0.0
C4145 C 0.21381 0.15903 0.30321 0.0
C4146 C 0.24578 0.17988 0.30436 0.0
C4147 C 0.20196 0.12663 0.30319 0.0
C4148 C 0.22821 0.06897 0.30101 0.0
H4149 H 0.124 0.90717 0.30206 0.0
H4150 H 0.13421 0.96135 0.30158 0.0
H4151 H 0.2335 0.02955 0.29881 0.0
H4152 H 0.29 0.18284 0.3067 0.0
H4153 H 0.26944 0.1266 0.3067 0.0
H4154 H 0.1663 0.06593 0.30908 0.0
C4155 C 0.15265 0.95708 0.30319 0.0
C4156 C 0.21854 0.03716 0.30106 0.0
C4157 C 0.14684 0.92612 0.30345 0.0
C4158 C 0.26541 0.16752 0.30566 0.0
C4159 C 0.25359 0.13523 0.30565 0.0
C4160 C 0.18093 0.05819 0.30674 0.0
C4161 C 0.18246 0.98229 0.30474 0.0
C4162 C 0.19029 0.01544 0.30407 0.0
C4163 C 0.22182 0.11435 0.30432 0.0
C4164 C 0.20994 0.08004 0.30399 0.0
H4165 H 0.21892 0.94174 0.3087 0.0
H4166 H 0.2287 0.99472 0.30822 0.0
H4167 H 0.14933 0.00995 0.30914 0.0
H4168 H 0.19808 0.16776 0.30212 0.0
H4169 H 0.17744 0.11126 0.30211 0.0
C4170 C 0.15718 0.25441 0.30201 0.0
C4171 C 0.16368 0.28278 0.30496 0.0
C4172 C 0.12701 0.2282 0.30237 0.0
C4173 C 0.05272 0.19459 0.31166 0.0
H4174 H 1.01307 0.15644 0.29509 0.0
C4175 C 0.91861 0.12268 0.30896 0.0
C4176 C 0.90545 0.09767 0.30448 0.0
C4177 C 0.95107 0.14208 0.30937 0.0
C4178 C 0.02381 0.1663 0.29979 0.0
H4179 H 0.14426 0.30544 0.3109 0.0
H4180 H 0.09223 0.25993 0.31161 0.0
H4181 H 0.0687 0.19484 0.29534 0.0
H4182 H 0.91603 0.0726 0.29712 0.0
H4183 H 0.97259 0.1059 0.29793 0.0
H4184 H 1.00801 0.16632 0.31614 0.0
C4185 C 0.11014 0.25784 0.30898 0.0
C4186 C 0.05577 0.18836 0.29992 0.0
C4187 C 0.13994 0.28401 0.30852 0.0
C4188 C 0.92548 0.09201 0.30054 0.0
C4189 C 0.95793 0.11119 0.301 0.0
C4190 C 0.02086 0.17232 0.31155 0.0
C4191 C 0.10312 0.2298 0.30582 0.0
C4192 C 0.07041 0.20326 0.30583 0.0
C4193 C 0.97121 0.13674 0.30537 0.0
C4194 C 1.00577 0.15837 0.30559 0.0
H4195 H 0.17503 0.2528 0.29923 0.0
H4196 H 0.12226 0.20681 0.29992 0.0
H4197 H 0.06346 0.20543 0.31631 0.0
H4198 H 0.90377 0.12781 0.31201 0.0
H4199 H 0.96027 0.1618 0.31271 0.0
C4200 C 0.99344 0.87234 0.30378 0.0
C4201 C 0.9826 0.84089 0.30545 0.0
C4202 C 0.97352 0.88482 0.30412 0.0
C4203 C 0.90034 0.87178 0.31186 0.0
H4204 H 0.89583 0.9198 0.29719 0.0
C4205 C 0.79334 0.88475 0.30746 0.0
C4206 C 0.79678 0.91314 0.30513 0.0
C4207 C 0.819 0.8804 0.308 0.0
C4208 C 0.89721 0.90696 0.30138 0.0
H4209 H 0.94249 0.79808 0.30889 0.0
H4210 H 0.90772 0.81975 0.30947 0.0
H4211 H 0.93505 0.90336 0.29715 0.0
H4212 H 0.83029 0.95952 0.30162 0.0
H4213 H 0.87559 0.9518 0.30256 0.0
H4214 H 0.8623 0.87484 0.31605 0.0
C4215 C 0.93167 0.83483 0.30792 0.0
C4216 C 0.91962 0.89746 0.30135 0.0
C4217 C 0.95149 0.82231 0.30752 0.0
C4218 C 0.82684 0.93737 0.30344 0.0
C4219 C 0.85272 0.9329 0.30394 0.0
C4220 C 0.8781 0.88133 0.3119 0.0
C4221 C 0.94241 0.86621 0.30621 0.0
C4222 C 0.92089 0.87908 0.30651 0.0
C4223 C 0.849 0.90428 0.30623 0.0
C4224 C 0.87567 0.8983 0.30658 0.0
H4225 H 0.01722 0.88719 0.3021 0.0
H4226 H 0.98253 0.90909 0.3028 0.0
H4227 H 0.90117 0.85826 0.31598 0.0
H4228 H 0.77064 0.86554 0.30885 0.0
H4229 H 0.81511 0.85789 0.30967 0.0
C4230 C 0.26268 0.81117 0.89704 0.0
C4231 C 0.25367 0.82875 0.89311 0.0
C4232 C 0.2938 0.81764 0.89698 0.0
C4233 C 0.37295 0.88289 0.89271 0.0
H4234 H 0.39864 0.82093 0.89475 0.0
C4235 C 0.50088 0.9142 0.88928 0.0
C4236 C 0.51356 0.90403 0.89425 0.0
C4237 C 0.46868 0.90281 0.88898 0.0
C4238 C 0.39174 0.83847 0.89421 0.0
H4239 H 0.26923 0.86492 0.88565 0.0
H4240 H 0.32261 0.87526 0.88534 0.0
H4241 H 0.34288 0.80428 0.89444 0.0
H4242 H 0.5023 0.87301 0.90263 0.0
H4243 H 0.44595 0.85301 0.90209 0.0
H4244 H 0.42162 0.917 0.8924 0.0
C4245 C 0.30639 0.85751 0.8887 0.0
C4246 C 0.35982 0.82896 0.89405 0.0
C4247 C 0.27566 0.85142 0.88884 0.0
C4248 C 0.49323 0.88154 0.89879 0.0
C4249 C 0.46097 0.86987 0.89845 0.0
C4250 C 0.40468 0.89229 0.8928 0.0
C4251 C 0.31622 0.84152 0.89292 0.0
C4252 C 0.35003 0.85108 0.89324 0.0
C4253 C 0.4484 0.88073 0.8936 0.0
C4254 C 0.41448 0.87024 0.89351 0.0
H4255 H 0.24614 0.79356 0.90038 0.0
H4256 H 0.30052 0.80485 0.9003 0.0
H4257 H 0.36644 0.90075 0.89228 0.0
H4258 H 0.51594 0.93159 0.88573 0.0
H4259 H 0.45964 0.9114 0.88515 0.0
C4260 C 0.20284 0.65134 0.89478 0.0
C4261 C 0.17037 0.6397 0.89454 0.0
C4262 C 0.21478 0.63089 0.89501 0.0
C4263 C 0.19135 0.54988 0.8997 0.0
H4264 H 0.26178 0.56149 0.88915 0.0
C4265 C 0.2137 0.4493 0.8949 0.0
C4266 C 0.24427 0.4542 0.89529 0.0
C4267 C 0.20819 0.4743 0.89511 0.0
C4268 C 0.24242 0.55824 0.8922 0.0
H4269 H 0.12517 0.59733 0.89403 0.0
H4270 H 0.14588 0.56183 0.89445 0.0
H4271 H 0.24515 0.60071 0.88878 0.0
H4272 H 0.29319 0.48973 0.89606 0.0
H4273 H 0.28338 0.53393 0.89641 0.0
H4274 H 0.18818 0.50737 0.90306 0.0
C4275 C 0.16213 0.58677 0.8946 0.0
C4276 C 0.23284 0.58063 0.89198 0.0
C4277 C 0.15024 0.60714 0.89436 0.0
C4278 C 0.26936 0.4851 0.89578 0.0
C4279 C 0.26377 0.51038 0.89596 0.0
C4280 C 0.2009 0.52766 0.89993 0.0
C4281 C 0.19451 0.59834 0.89502 0.0
C4282 C 0.20668 0.57626 0.89561 0.0
C4283 C 0.23301 0.50511 0.8957 0.0
C4284 C 0.22601 0.53111 0.89606 0.0
H4285 H 0.21904 0.67627 0.895 0.0
H4286 H 0.23981 0.64055 0.89536 0.0
H4287 H 0.17166 0.5462 0.90269 0.0
H4288 H 0.19367 0.42599 0.89448 0.0
H4289 H 0.18428 0.46942 0.89476 0.0
C4290 C 0.46895 0.57653 0.8937 0.0
C4291 C 0.43659 0.5642 0.89442 0.0
C4292 C 0.48946 0.60879 0.8939 0.0
C4293 C 0.49524 0.68588 0.89206 0.0
H4294 H 0.5716 0.71362 0.90203 0.0
C4295 C 0.59245 0.81757 0.89553 0.0
C4296 C 0.62301 0.82315 0.89451 0.0
C4297 C 0.5671 0.78676 0.89582 0.0
C4298 C 0.55043 0.70628 0.89921 0.0
H4299 H 0.40044 0.57642 0.89577 0.0
H4300 H 0.43638 0.63291 0.89605 0.0
H4301 H 0.53247 0.65834 0.9018 0.0
H4302 H 0.65049 0.80044 0.89286 0.0
H4303 H 0.60693 0.74775 0.89335 0.0
H4304 H 0.51378 0.73413 0.8894 0.0
C4305 C 0.44577 0.61747 0.89531 0.0
C4306 C 0.52804 0.67457 0.89906 0.0
C4307 C 0.4252 0.5851 0.89514 0.0
C4308 C 0.62747 0.79734 0.89371 0.0
C4309 C 0.60241 0.7669 0.89403 0.0
C4310 C 0.5178 0.71781 0.89221 0.0
C4311 C 0.47819 0.62965 0.8948 0.0
C4312 C 0.50052 0.66384 0.89535 0.0
C4313 C 0.57199 0.76113 0.89516 0.0
C4314 C 0.546 0.7282 0.89565 0.0
H4315 H 0.47852 0.56123 0.89299 0.0
H4316 H 0.51425 0.61742 0.89334 0.0
H4317 H 0.47426 0.67834 0.88916 0.0
H4318 H 0.58816 0.83688 0.89614 0.0
H4319 H 0.54385 0.78299 0.89669 0.0
C4320 C 0.87127 0.92372 0.73325 0.0
C4321 C 0.84803 0.9042 0.72875 0.0
C4322 C 0.8849 0.95624 0.73285 0.0
C4323 C 0.89374 0.02016 0.72164 0.0
H4324 H 0.91031 0.06715 0.73788 0.0
C4325 C 0.90158 0.13995 0.72337 0.0
C4326 C 0.92457 0.16316 0.72741 0.0
C4327 C 0.89775 0.11001 0.72314 0.0
C4328 C 0.90633 0.05444 0.7333 0.0
H4329 H 0.82077 0.90342 0.72032 0.0
H4330 H 0.84383 0.96003 0.71971 0.0
H4331 H 0.89208 0.01129 0.73832 0.0
H4332 H 0.9622 0.17348 0.73425 0.0
H4333 H 0.95507 0.12053 0.73394 0.0
H4334 H 0.90667 0.06322 0.71665 0.0
C4335 C 0.85223 0.95039 0.72346 0.0
C4336 C 0.89587 0.02237 0.73354 0.0
C4337 C 0.83885 0.91789 0.72381 0.0
C4338 C 0.94437 0.15607 0.73108 0.0
C4339 C 0.94017 0.12578 0.73093 0.0
C4340 C 0.90388 0.05213 0.7214 0.0
C4341 C 0.87542 0.97005 0.72798 0.0
C4342 C 0.8889 1.00466 0.72771 0.0
C4343 C 0.91655 0.10238 0.72701 0.0
C4344 C 0.90977 0.0695 0.72723 0.0
H4345 H 0.87917 0.91384 0.73705 0.0
H4346 H 0.90303 0.97055 0.73635 0.0
H4347 H 0.88938 1.00753 0.71704 0.0
H4348 H 0.88608 0.14478 0.72046 0.0
H4349 H 0.87918 0.09245 0.72012 0.0
C4350 C 0.93151 0.82516 0.72943 0.0
C4351 C 0.92558 0.79537 0.72744 0.0
C4352 C 0.9624 0.85026 0.72987 0.0
C4353 C 0.0424 0.86483 0.73225 0.0
H4354 H 0.07128 0.94511 0.7238 0.0
C4355 C 0.17242 0.94707 0.72717 0.0
C4356 C 0.18509 0.97929 0.72823 0.0
C4357 C 0.14014 0.92677 0.72736 0.0
C4358 C 0.0635 0.92297 0.72627 0.0
H4359 H 0.94769 0.76906 0.72421 0.0
H4360 H 1.00057 0.81216 0.72501 0.0
H4361 H 0.01532 0.90623 0.72383 0.0
H4362 H 0.17353 0.01545 0.73027 0.0
H4363 H 0.11703 0.97991 0.7306 0.0
H4364 H 0.09019 0.88103 0.73464 0.0
C4365 C 0.98161 0.81622 0.72629 0.0
C4366 C 0.03148 0.90077 0.72629 0.0
C4367 C 0.95109 0.79147 0.7258 0.0
C4368 C 0.16455 0.99079 0.72936 0.0
C4369 C 0.13216 0.97043 0.72956 0.0
C4370 C 0.0742 0.88691 0.73225 0.0
C4371 C 0.98774 0.84577 0.72841 0.0
C4372 C 0.02075 0.87117 0.72913 0.0
C4373 C 0.11959 0.9381 0.72865 0.0
C4374 C 0.08531 0.91595 0.72911 0.0
H4375 H 0.91241 0.829 0.73071 0.0
H4376 H 0.9665 0.87288 0.7315 0.0
H4377 H 0.03475 0.84242 0.73459 0.0
H4378 H 0.18748 0.93747 0.72616 0.0
H4379 H 0.13126 0.90212 0.72648 0.0
C4380 C 0.29917 0.19925 0.73106 0.0
C4381 C 0.29467 0.16969 0.72934 0.0
C4382 C 0.27399 0.20445 0.73145 0.0
C4383 C 0.19601 0.17867 0.72508 0.0
H4384 H 0.19224 0.22746 0.73964 0.0
C4385 C 0.09975 0.21347 0.72723 0.0
C4386 C 0.10909 0.2436 0.72966 0.0
C4387 C 0.12029 0.20164 0.72733 0.0
C4388 C 0.19308 0.21411 0.7355 0.0
H4389 H 0.25993 0.12224 0.72672 0.0
H4390 H 0.21548 0.1316 0.7273 0.0
H4391 H 0.231 0.21077 0.73974 0.0
H4392 H 0.14768 0.28488 0.73407 0.0
H4393 H 0.18365 0.26481 0.73404 0.0
H4394 H 0.15871 0.18288 0.72074 0.0
C4395 C 0.23877 0.15064 0.72837 0.0
C4396 C 0.21519 0.20435 0.73558 0.0
C4397 C 0.26413 0.14525 0.72807 0.0
C4398 C 0.13969 0.26174 0.73209 0.0
C4399 C 0.16022 0.24998 0.73217 0.0
C4400 C 0.17394 0.18864 0.72497 0.0
C4401 C 0.24352 0.18035 0.73008 0.0
C4402 C 0.21734 0.18706 0.73032 0.0
C4403 C 0.15074 0.21965 0.72986 0.0
C4404 C 0.17262 0.20704 0.73013 0.0
H4405 H 0.32231 0.21861 0.73212 0.0
H4406 H 0.27851 0.22768 0.7327 0.0
H4407 H 0.19728 0.16558 0.72093 0.0
H4408 H 0.07652 0.19893 0.72523 0.0
H4409 H 0.11207 0.17815 0.72554 0.0
C4410 C 0.79884 0.21007 0.13837 0.0
C4411 C 0.82467 0.23966 0.13698 0.0
C4412 C 0.76903 0.20604 0.13904 0.0
C4413 C 0.71907 0.23735 0.1342 0.0
H4414 H 0.66576 0.18163 0.14795 0.0
C4415 C 0.58772 0.20061 0.13691 0.0
C4416 C 0.56726 0.1685 0.138 0.0
C4417 C 0.62014 0.21324 0.13729 0.0
C4418 C 0.68027 0.19714 0.14407 0.0
H4419 H 0.83922 0.28836 0.13518 0.0
H4420 H 0.78635 0.2811 0.13628 0.0
H4421 H 0.72108 0.19776 0.14778 0.0
H4422 H 0.5649 0.12465 0.14046 0.0
H4423 H 0.62129 0.14652 0.14107 0.0
H4424 H 0.67788 0.23598 0.13039 0.0
C4425 C 0.78961 0.26111 0.13687 0.0
C4426 C 0.712 0.20647 0.14398 0.0
C4427 C 0.81982 0.26527 0.13626 0.0
C4428 C 0.57998 0.14941 0.13954 0.0
C4429 C 0.61232 0.16204 0.13996 0.0
C4430 C 0.68718 0.22799 0.13429 0.0
C4431 C 0.76395 0.2314 0.13832 0.0
C4432 C 0.73159 0.22593 0.13894 0.0
C4433 C 0.63283 0.19409 0.13882 0.0
C4434 C 0.66726 0.20705 0.13912 0.0
H4435 H 0.80152 0.18974 0.13898 0.0
H4436 H 0.74976 0.18276 0.14003 0.0
H4437 H 0.73353 0.25222 0.13024 0.0
H4438 H 0.57868 0.21591 0.13564 0.0
H4439 H 0.63528 0.23803 0.13641 0.0
C4440 C 0.91682 0.45357 0.14075 0.0
C4441 C 0.89805 0.42225 0.13876 0.0
C4442 C 0.90483 0.47387 0.14091 0.0
C4443 C 0.84463 0.4884 0.13401 0.0
H4444 H 0.8646 0.54263 0.14921 0.0
C4445 C 0.80731 0.58346 0.1364 0.0
C4446 C 0.83104 0.6126 0.13873 0.0
C4447 C 0.81112 0.55707 0.13663 0.0
C4448 C 0.85891 0.52779 0.1449 0.0
H4449 H 0.85174 0.38802 0.13531 0.0
H4450 H 0.83106 0.42389 0.13544 0.0
H4451 H 0.87999 0.50289 0.14904 0.0
H4452 H 0.8773 0.63654 0.14317 0.0
H4453 H 0.88387 0.59134 0.14349 0.0
H4454 H 0.82441 0.51414 0.12979 0.0
C4455 C 0.85511 0.43252 0.1369 0.0
C4456 C 0.86773 0.50499 0.14482 0.0
C4457 C 0.86704 0.41202 0.1368 0.0
C4458 C 0.85839 0.6146 0.14133 0.0
C4459 C 0.86212 0.58846 0.14158 0.0
C4460 C 0.83594 0.51147 0.13408 0.0
C4461 C 0.87381 0.46359 0.13902 0.0
C4462 C 0.86139 0.48552 0.13931 0.0
C4463 C 0.83862 0.55932 0.13925 0.0
C4464 C 0.84374 0.532 0.13946 0.0
H4465 H 0.94101 0.46263 0.14213 0.0
H4466 H 0.92005 0.49785 0.14243 0.0
H4467 H 0.83944 0.47375 0.12969 0.0
H4468 H 0.78597 0.58108 0.13436 0.0
H4469 H 0.7925 0.53492 0.13482 0.0
C4470 C 0.65274 0.48725 0.13225 0.0
C4471 C 0.64778 0.50732 0.13634 0.0
C4472 C 0.63355 0.45478 0.13272 0.0
C4473 C 0.57465 0.39212 0.14364 0.0
H4474 H 0.54939 0.34338 0.12754 0.0
C4475 C 0.46319 0.2723 0.14138 0.0
C4476 C 0.46403 0.2485 0.13775 0.0
C4477 C 0.48923 0.30226 0.14166 0.0
C4478 C 0.55665 0.35658 0.13209 0.0
H4479 H 0.61872 0.50905 0.14411 0.0
H4480 H 0.58472 0.45256 0.14483 0.0
H4481 H 0.58736 0.39916 0.12706 0.0
H4482 H 0.4932 0.23719 0.13173 0.0
H4483 H 0.53893 0.29021 0.13212 0.0
H4484 H 0.54278 0.34964 0.14861 0.0
C4485 C 0.60393 0.46173 0.14137 0.0
C4486 C 0.57845 0.38861 0.13183 0.0
C4487 C 0.62332 0.49419 0.14094 0.0
C4488 C 0.49191 0.25508 0.13457 0.0
C4489 C 0.51796 0.2854 0.13476 0.0
C4490 C 0.55264 0.36019 0.14389 0.0
C4491 C 0.60872 0.44154 0.13726 0.0
C4492 C 0.58734 0.40696 0.13759 0.0
C4493 C 0.51672 0.30936 0.13826 0.0
C4494 C 0.543 0.34218 0.1381 0.0
H4495 H 0.67171 0.49668 0.12872 0.0
H4496 H 0.63835 0.44007 0.12955 0.0
H4497 H 0.58145 0.40522 0.1482 0.0
H4498 H 0.44213 0.26791 0.14393 0.0
H4499 H 0.48742 0.32023 0.14435 0.0
C4500 C 0.8148 0.25944 0.63534 0.0
C4501 C 0.83278 0.25158 0.63944 0.0
C4502 C 0.82012 0.29016 0.63522 0.0
C4503 C 0.85583 0.3642 0.64469 0.0
H4504 H 0.86991 0.40441 0.62764 0.0
C4505 C 0.91973 0.49864 0.64205 0.0
C4506 C 0.91097 0.51183 0.63692 0.0
C4507 C 0.90684 0.46619 0.64249 0.0
C4508 C 0.86553 0.39352 0.63245 0.0
H4509 H 0.86935 0.26937 0.64685 0.0
H4510 H 0.87824 0.32243 0.6467 0.0
H4511 H 0.85165 0.34858 0.62826 0.0
H4512 H 0.88097 0.50122 0.62839 0.0
H4513 H 0.85799 0.44468 0.62923 0.0
H4514 H 0.86968 0.40896 0.6489 0.0
C4515 C 0.86018 0.30509 0.64355 0.0
C4516 C 0.85505 0.36145 0.63279 0.0
C4517 C 0.85521 0.27467 0.6436 0.0
C4518 C 0.88858 0.49179 0.63233 0.0
C4519 C 0.87546 0.45934 0.63281 0.0
C4520 C 0.86602 0.39619 0.64435 0.0
C4521 C 0.84309 0.31337 0.63929 0.0
C4522 C 0.85065 0.34654 0.63892 0.0
C4523 C 0.88458 0.44605 0.63787 0.0
C4524 C 0.87159 0.41147 0.63823 0.0
H4525 H 0.79739 0.24217 0.63207 0.0
H4526 H 0.80646 0.29584 0.63191 0.0
H4527 H 0.85227 0.35329 0.64948 0.0
H4528 H 0.93715 0.51348 0.64562 0.0
H4529 H 0.91493 0.45698 0.64639 0.0
C4530 C 0.82485 0.59127 0.63423 0.0
C4531 C 0.83216 0.61884 0.63765 0.0
C4532 C 0.79423 0.5657 0.6343 0.0
C4533 C 0.71964 0.53122 0.64351 0.0
H4534 H 0.68029 0.4978 0.62664 0.0
C4535 C 0.58552 0.46058 0.64066 0.0
C4536 C 0.57233 0.43646 0.63598 0.0
C4537 C 0.61796 0.48005 0.64108 0.0
C4538 C 0.69094 0.50636 0.63142 0.0
H4539 H 0.81354 0.64063 0.64409 0.0
H4540 H 0.76071 0.59618 0.6443 0.0
H4541 H 0.73612 0.53548 0.62713 0.0
H4542 H 0.58293 0.41319 0.6282 0.0
H4543 H 0.63948 0.44663 0.62901 0.0
H4544 H 0.67467 0.50232 0.64782 0.0
C4545 C 0.77837 0.59424 0.64152 0.0
C4546 C 0.72301 0.52801 0.63168 0.0
C4547 C 0.80865 0.61982 0.64136 0.0
C4548 C 0.59236 0.4319 0.6318 0.0
C4549 C 0.62482 0.45116 0.63225 0.0
C4550 C 0.68768 0.50938 0.64325 0.0
C4551 C 0.77062 0.56706 0.63792 0.0
C4552 C 0.73758 0.54116 0.63772 0.0
C4553 C 0.63811 0.47568 0.63687 0.0
C4554 C 0.6727 0.49711 0.63719 0.0
H4555 H 0.84247 0.58987 0.63132 0.0
H4556 H 0.78894 0.54496 0.6315 0.0
H4557 H 0.7303 0.54066 0.64824 0.0
H4558 H 0.5707 0.46489 0.64391 0.0
H4559 H 0.62717 0.49899 0.64462 0.0
C4560 C 0.62595 0.16619 0.64149 0.0
C4561 C 0.64878 0.17513 0.63656 0.0
C4562 C 0.60671 0.17946 0.64177 0.0
C4563 C 0.57779 0.22221 0.63151 0.0
H4564 H 0.54916 0.23499 0.64837 0.0
C4565 C 0.49332 0.27192 0.63391 0.0
C4566 C 0.46716 0.25339 0.63787 0.0
C4567 C 0.51904 0.2671 0.63392 0.0
C4568 C 0.55699 0.2316 0.64362 0.0
H4569 H 0.66992 0.2057 0.62817 0.0
H4570 H 0.63679 0.22925 0.6287 0.0
H4571 H 0.58719 0.21731 0.64803 0.0
H4572 H 0.44811 0.21642 0.6452 0.0
H4573 H 0.49275 0.20841 0.64528 0.0
H4574 H 0.54731 0.23641 0.62713 0.0
C4575 C 0.63315 0.21143 0.63227 0.0
C4576 C 0.57866 0.22126 0.64342 0.0
C4577 C 0.65221 0.19796 0.63197 0.0
C4578 C 0.46779 0.23096 0.64204 0.0
C4579 C 0.49352 0.22651 0.64213 0.0
C4580 C 0.55628 0.23282 0.63172 0.0
C4581 C 0.61 0.20225 0.63715 0.0
C4582 C 0.58886 0.21575 0.63736 0.0
C4583 C 0.51924 0.24412 0.63801 0.0
C4584 C 0.54513 0.23698 0.63778 0.0
H4585 H 0.62249 0.14841 0.64506 0.0
H4586 H 0.58879 0.17129 0.64552 0.0
H4587 H 0.58478 0.21796 0.62675 0.0
H4588 H 0.49346 0.28933 0.63063 0.0
H4589 H 0.53864 0.28114 0.63071 0.0
C4590 C 0.95206 0.19578 0.22506 0.0
C4591 C 0.9257 0.16765 0.22703 0.0
C4592 C 0.98118 0.19806 0.2245 0.0
C4593 C 0.02934 0.16732 0.23069 0.0
H4594 H 0.08154 0.21319 0.21583 0.0
C4595 C 0.16036 0.20134 0.22837 0.0
C4596 C 0.18062 0.23254 0.22647 0.0
C4597 C 0.12787 0.1885 0.22805 0.0
C4598 C 0.06732 0.2004 0.22002 0.0
H4599 H 0.90937 0.11966 0.22995 0.0
H4600 H 0.96108 0.12391 0.22907 0.0
H4601 H 0.02656 0.19846 0.21588 0.0
H4602 H 0.18256 0.27446 0.22263 0.0
H4603 H 0.12621 0.25233 0.22214 0.0
H4604 H 0.07057 0.1703 0.23492 0.0
C4605 C 0.95877 0.1441 0.22794 0.0
C4606 C 0.0358 0.19185 0.22004 0.0
C4607 C 0.92924 0.14166 0.22842 0.0
C4608 C 0.16766 0.25048 0.2242 0.0
C4609 C 0.13532 0.23765 0.22384 0.0
C4610 C 0.06104 0.17594 0.23068 0.0
C4611 C 0.98499 0.17237 0.22594 0.0
C4612 C 0.0167 0.17613 0.22546 0.0
C4613 C 0.115 0.20651 0.22575 0.0
C4614 C 0.08058 0.19347 0.22543 0.0
H4615 H 0.95032 0.21629 0.22391 0.0
H4616 H 1.00096 0.22029 0.22305 0.0
H4617 H 0.0152 0.15534 0.23495 0.0
H4618 H 0.16963 0.18697 0.23019 0.0
H4619 H 0.11285 0.16443 0.22954 0.0
C4620 C 0.88325 1.00038 0.22863 0.0
C4621 C 0.85089 0.98874 0.22794 0.0
C4622 C 0.89516 0.9799 0.22906 0.0
C4623 C 0.87069 0.89856 0.23361 0.0
H4624 H 0.94109 0.90884 0.22323 0.0
C4625 C 0.8883 0.79559 0.22836 0.0
C4626 C 0.9182 0.79886 0.22889 0.0
C4627 C 0.88428 0.8215 0.22865 0.0
C4628 C 0.92176 0.90597 0.22624 0.0
H4629 H 0.80601 0.94628 0.22687 0.0
H4630 H 0.8266 0.91089 0.22774 0.0
H4631 H 0.92599 0.94928 0.22292 0.0
H4632 H 0.96755 0.83254 0.22998 0.0
H4633 H 0.96036 0.87841 0.23045 0.0
H4634 H 0.86592 0.8552 0.23685 0.0
C4635 C 0.84275 0.93581 0.22805 0.0
C4636 C 0.91307 0.92906 0.22606 0.0
C4637 C 0.83092 0.95617 0.22757 0.0
C4638 C 0.94419 0.82914 0.22958 0.0
C4639 C 0.9401 0.85538 0.22984 0.0
C4640 C 0.87937 0.87568 0.23381 0.0
C4641 C 0.87494 0.94735 0.22887 0.0
C4642 C 0.88683 0.92509 0.22959 0.0
C4643 C 0.90995 0.85168 0.22948 0.0
C4644 C 0.90437 0.87859 0.22998 0.0
H4645 H 0.89935 0.02529 0.22898 0.0
H4646 H 0.92006 0.9895 0.22971 0.0
H4647 H 0.85088 0.89516 0.23652 0.0
H4648 H 0.86762 0.77283 0.22777 0.0
H4649 H 0.86083 0.81784 0.2282 0.0
C4650 C 0.09133 0.92324 0.22867 0.0
C4651 C 0.10379 0.90309 0.22835 0.0
C4652 C 0.1111 0.95574 0.22888 0.0
C4653 C 0.19154 0.01459 0.23344 0.0
H4654 H 0.17944 0.07213 0.2225 0.0
C4655 C 0.29211 0.13428 0.22698 0.0
C4656 C 0.2887 0.16082 0.22753 0.0
C4657 C 0.26649 0.10436 0.22757 0.0
C4658 C 0.18274 0.05638 0.22567 0.0
H4659 H 0.14679 0.90153 0.22767 0.0
H4660 H 0.18109 0.95795 0.22807 0.0
H4661 H 0.14021 0.01617 0.22243 0.0
H4662 H 0.2552 0.17646 0.22899 0.0
H4663 H 0.20971 0.12329 0.22994 0.0
H4664 H 0.23432 0.05433 0.23655 0.0
C4665 C 0.15607 0.94863 0.2283 0.0
C4666 C 0.16039 0.02438 0.22562 0.0
C4667 C 0.13639 0.91626 0.22806 0.0
C4668 C 0.25863 0.15652 0.22856 0.0
C4669 C 0.23265 0.12618 0.22909 0.0
C4670 C 0.21372 0.04635 0.23349 0.0
C4671 C 0.1437 0.96874 0.2288 0.0
C4672 C 0.16512 1.00306 0.22936 0.0
C4673 C 0.23655 0.09986 0.2287 0.0
C4674 C 0.21009 0.06744 0.22945 0.0
H4675 H 0.06633 0.91389 0.22897 0.0
H4676 H 0.10089 0.97064 0.22929 0.0
H4677 H 0.19546 0.9989 0.23651 0.0
H4678 H 0.31476 0.13645 0.22617 0.0
H4679 H 0.27016 0.08456 0.22712 0.0
loop_
_geom_bond_atom_site_label_1
_geom_bond_atom_site_label_2
_geom_bond_distance
_geom_bond_site_symmetry_2
_ccdc_geom_bond_type
Ho0 C3 2.811 . S
Ho0 O20 2.322 . S
Ho0 O22 2.378 . S
Ho0 O23 2.524 . S
Ho0 O24 2.381 . S
Ho0 O25 2.669 . S
Ho0 O27 2.346 . S
Ho0 O31 2.305 . S
Ho1 C12 2.811 1_545 S
Ho1 O21 2.346 . S
Ho1 O25 2.305 . S
Ho1 O26 2.322 1_545 S
Ho1 O28 2.378 1_545 S
Ho1 O29 2.524 1_545 S
Ho1 O30 2.381 . S
Ho1 O31 2.669 . S
C2 O20 1.259 . S
C2 O21 1.268 . S
C3 Ho0 2.811 . S
C3 C4 1.488 . S
C3 O22 1.215 . S
C3 O23 1.289 . S
C4 C3 1.488 . S
C4 C5 1.348 . S
C4 C9 1.413 . S
C5 C4 1.348 . S
C5 C6 1.442 . S
C5 H32 0.930 . S
C6 C5 1.442 . S
C6 C7 1.381 . S
C6 H33 0.931 . S
C7 C6 1.381 . S
C7 C8 1.321 . S
C8 C7 1.321 . S
C8 C9 1.403 . S
C8 H34 0.934 . S
C9 C4 1.413 . S
C9 C8 1.403 . S
C9 H35 0.930 . S
C10 O24 1.275 . S
C10 O25 1.256 . S
C11 O26 1.259 . S
C11 O27 1.268 1_565 S
C12 Ho1 2.811 1_565 S
C12 C13 1.488 . S
C12 O28 1.215 . S
C12 O29 1.289 . S
C13 C12 1.488 . S
C13 C14 1.348 . S
C13 C18 1.413 . S
C14 C13 1.348 . S
C14 C15 1.442 . S
C14 H36 0.930 . S
C15 C14 1.442 . S
C15 C16 1.381 . S
C15 H37 0.931 . S
C16 C15 1.381 . S
C16 C17 1.321 . S
C17 C16 1.321 . S
C17 C18 1.403 . S
C17 H38 0.934 . S
C18 C13 1.413 . S
C18 C17 1.403 . S
C18 H39 0.930 . S
C19 O30 1.275 . S
C19 O31 1.256 . S
O20 Ho0 2.322 . S
O20 C2 1.259 . S
O21 Ho1 2.346 . S
O21 C2 1.268 . S
O22 Ho0 2.378 . S
O22 C3 1.215 . S
O23 Ho0 2.524 . S
O23 C3 1.289 . S
O24 Ho0 2.381 . S
O24 C10 1.275 . S
O25 Ho0 2.669 . S
O25 Ho1 2.305 . S
O25 C10 1.256 . S
O26 Ho1 2.322 1_565 S
O26 C11 1.259 . S
O27 Ho0 2.346 . S
O27 C11 1.268 1_545 S
O28 Ho1 2.378 1_565 S
O28 C12 1.215 . S
O29 Ho1 2.524 1_565 S
O29 C12 1.289 . S
O30 Ho1 2.381 . S
O30 C19 1.275 . S
O31 Ho0 2.305 . S
O31 Ho1 2.669 . S
O31 C19 1.256 . S
H32 C5 0.930 . S
H33 C6 0.931 . S
H34 C8 0.934 . S
H35 C9 0.930 . S
H36 C14 0.930 . S
H37 C15 0.931 . S
H38 C17 0.934 . S
H39 C18 0.930 . S
Ho40 C43 2.811 . S
Ho40 O60 2.322 . S
Ho40 O62 2.378 . S
Ho40 O63 2.524 . S
Ho40 O64 2.381 1_655 S
Ho40 O65 2.669 1_655 S
Ho40 O67 2.346 1_655 S
Ho40 O71 2.305 1_655 S
Ho41 C52 2.811 . S
Ho41 O61 2.346 1_455 S
Ho41 O65 2.305 . S
Ho41 O66 2.322 . S
Ho41 O68 2.378 . S
Ho41 O69 2.524 . S
Ho41 O70 2.381 . S
Ho41 O71 2.669 . S
C42 O60 1.259 . S
C42 O61 1.268 . S
C43 Ho40 2.811 . S
C43 C44 1.488 . S
C43 O62 1.215 . S
C43 O63 1.289 . S
C44 C43 1.488 . S
C44 C45 1.348 . S
C44 C49 1.413 . S
C45 C44 1.348 . S
C45 C46 1.442 . S
C45 H72 0.930 . S
C46 C45 1.442 . S
C46 C47 1.381 . S
C46 H73 0.931 . S
C47 C46 1.381 . S
C47 C48 1.321 . S
C48 C47 1.321 . S
C48 C49 1.403 . S
C48 H74 0.934 . S
C49 C44 1.413 . S
C49 C48 1.403 . S
C49 H75 0.930 . S
C50 O64 1.275 . S
C50 O65 1.256 . S
C51 O66 1.259 . S
C51 O67 1.268 . S
C52 Ho41 2.811 . S
C52 C53 1.488 . S
C52 O68 1.215 . S
C52 O69 1.289 . S
C53 C52 1.488 . S
C53 C54 1.348 . S
C53 C58 1.413 . S
C54 C53 1.348 . S
C54 C55 1.442 . S
C54 H76 0.930 . S
C55 C54 1.442 . S
C55 C56 1.381 . S
C55 H77 0.931 . S
C56 C55 1.381 . S
C56 C57 1.321 . S
C57 C56 1.321 . S
C57 C58 1.403 . S
C57 H78 0.934 . S
C58 C53 1.413 . S
C58 C57 1.403 . S
C58 H79 0.930 . S
C59 O70 1.275 . S
C59 O71 1.256 . S
O60 Ho40 2.322 . S
O60 C42 1.259 . S
O61 Ho41 2.346 1_655 S
O61 C42 1.268 . S
O62 Ho40 2.378 . S
O62 C43 1.215 . S
O63 Ho40 2.524 . S
O63 C43 1.289 . S
O64 Ho40 2.381 1_455 S
O64 C50 1.275 . S
O65 Ho40 2.669 1_455 S
O65 Ho41 2.305 . S
O65 C50 1.256 . S
O66 Ho41 2.322 . S
O66 C51 1.259 . S
O67 Ho40 2.346 1_455 S
O67 C51 1.268 . S
O68 Ho41 2.378 . S
O68 C52 1.215 . S
O69 Ho41 2.524 . S
O69 C52 1.289 . S
O70 Ho41 2.381 . S
O70 C59 1.275 . S
O71 Ho40 2.305 1_455 S
O71 Ho41 2.669 . S
O71 C59 1.256 . S
H72 C45 0.930 . S
H73 C46 0.931 . S
H74 C48 0.934 . S
H75 C49 0.930 . S
H76 C54 0.930 . S
H77 C55 0.931 . S
H78 C57 0.934 . S
H79 C58 0.930 . S
Ho80 C83 2.811 . S
Ho80 O100 2.322 . S
Ho80 O102 2.378 . S
Ho80 O103 2.524 . S
Ho80 O104 2.381 . S
Ho80 O105 2.669 . S
Ho80 O107 2.346 . S
Ho80 O111 2.305 . S
Ho81 C92 2.811 . S
Ho81 O101 2.346 . S
Ho81 O105 2.305 . S
Ho81 O106 2.322 . S
Ho81 O108 2.378 . S
Ho81 O109 2.524 . S
Ho81 O110 2.381 . S
Ho81 O111 2.669 . S
C82 O100 1.259 . S
C82 O101 1.268 . S
C83 Ho80 2.811 . S
C83 C84 1.488 . S
C83 O102 1.215 . S
C83 O103 1.289 . S
C84 C83 1.488 . S
C84 C85 1.348 . S
C84 C89 1.413 . S
C85 C84 1.348 . S
C85 C86 1.442 . S
C85 H112 0.930 . S
C86 C85 1.442 . S
C86 C87 1.381 . S
C86 H113 0.931 . S
C87 C86 1.381 . S
C87 C88 1.321 . S
C88 C87 1.321 . S
C88 C89 1.403 . S
C88 H114 0.934 . S
C89 C84 1.413 . S
C89 C88 1.403 . S
C89 H115 0.930 . S
C90 O104 1.275 . S
C90 O105 1.256 . S
C91 O106 1.259 . S
C91 O107 1.268 . S
C92 Ho81 2.811 . S
C92 C93 1.488 . S
C92 O108 1.215 . S
C92 O109 1.289 . S
C93 C92 1.488 . S
C93 C94 1.348 . S
C93 C98 1.413 . S
C94 C93 1.348 . S
C94 C95 1.442 . S
C94 H116 0.930 . S
C95 C94 1.442 . S
C95 C96 1.381 . S
C95 H117 0.931 . S
C96 C95 1.381 . S
C96 C97 1.321 . S
C97 C96 1.321 . S
C97 C98 1.403 . S
C97 H118 0.934 . S
C98 C93 1.413 . S
C98 C97 1.403 . S
C98 H119 0.930 . S
C99 O110 1.275 . S
C99 O111 1.256 . S
O100 Ho80 2.322 . S
O100 C82 1.259 . S
O101 Ho81 2.346 . S
O101 C82 1.268 . S
O102 Ho80 2.378 . S
O102 C83 1.215 . S
O103 Ho80 2.524 . S
O103 C83 1.289 . S
O104 Ho80 2.381 . S
O104 C90 1.275 . S
O105 Ho80 2.669 . S
O105 Ho81 2.305 . S
O105 C90 1.256 . S
O106 Ho81 2.322 . S
O106 C91 1.259 . S
O107 Ho80 2.346 . S
O107 C91 1.268 . S
O108 Ho81 2.378 . S
O108 C92 1.215 . S
O109 Ho81 2.524 . S
O109 C92 1.289 . S
O110 Ho81 2.381 . S
O110 C99 1.275 . S
O111 Ho80 2.305 . S
O111 Ho81 2.669 . S
O111 C99 1.256 . S
H112 C85 0.930 . S
H113 C86 0.931 . S
H114 C88 0.934 . S
H115 C89 0.930 . S
H116 C94 0.930 . S
H117 C95 0.931 . S
H118 C97 0.934 . S
H119 C98 0.930 . S
Ho120 C123 2.811 . S
Ho120 O140 2.322 . S
Ho120 O142 2.378 . S
Ho120 O143 2.524 . S
Ho120 O144 2.381 . S
Ho120 O145 2.669 . S
Ho120 O147 2.346 . S
Ho120 O151 2.305 . S
Ho121 C132 2.811 1_455 S
Ho121 O141 2.346 . S
Ho121 O145 2.305 . S
Ho121 O146 2.322 1_455 S
Ho121 O148 2.378 1_455 S
Ho121 O149 2.524 1_455 S
Ho121 O150 2.381 . S
Ho121 O151 2.669 . S
C122 O140 1.259 . S
C122 O141 1.268 . S
C123 Ho120 2.811 . S
C123 C124 1.488 . S
C123 O142 1.215 . S
C123 O143 1.289 . S
C124 C123 1.488 . S
C124 C125 1.348 . S
C124 C129 1.413 . S
C125 C124 1.348 . S
C125 C126 1.442 . S
C125 H152 0.930 . S
C126 C125 1.442 . S
C126 C127 1.381 . S
C126 H153 0.931 . S
C127 C126 1.381 . S
C127 C128 1.321 . S
C128 C127 1.321 . S
C128 C129 1.403 . S
C128 H154 0.934 . S
C129 C124 1.413 . S
C129 C128 1.403 . S
C129 H155 0.930 . S
C130 O144 1.275 . S
C130 O145 1.256 . S
C131 O146 1.259 . S
C131 O147 1.268 1_655 S
C132 Ho121 2.811 1_655 S
C132 C133 1.488 . S
C132 O148 1.215 . S
C132 O149 1.289 . S
C133 C132 1.488 . S
C133 C134 1.348 . S
C133 C138 1.413 . S
C134 C133 1.348 . S
C134 C135 1.442 . S
C134 H156 0.930 . S
C135 C134 1.442 . S
C135 C136 1.381 . S
C135 H157 0.931 . S
C136 C135 1.381 . S
C136 C137 1.321 . S
C137 C136 1.321 . S
C137 C138 1.403 . S
C137 H158 0.934 . S
C138 C133 1.413 . S
C138 C137 1.403 . S
C138 H159 0.930 . S
C139 O150 1.275 . S
C139 O151 1.256 . S
O140 Ho120 2.322 . S
O140 C122 1.259 . S
O141 Ho121 2.346 . S
O141 C122 1.268 . S
O142 Ho120 2.378 . S
O142 C123 1.215 . S
O143 Ho120 2.524 . S
O143 C123 1.289 . S
O144 Ho120 2.381 . S
O144 C130 1.275 . S
O145 Ho120 2.669 . S
O145 Ho121 2.305 . S
O145 C130 1.256 . S
O146 Ho121 2.322 1_655 S
O146 C131 1.259 . S
O147 Ho120 2.346 . S
O147 C131 1.268 1_455 S
O148 Ho121 2.378 1_655 S
O148 C132 1.215 . S
O149 Ho121 2.524 1_655 S
O149 C132 1.289 . S
O150 Ho121 2.381 . S
O150 C139 1.275 . S
O151 Ho120 2.305 . S
O151 Ho121 2.669 . S
O151 C139 1.256 . S
H152 C125 0.930 . S
H153 C126 0.931 . S
H154 C128 0.934 . S
H155 C129 0.930 . S
H156 C134 0.930 . S
H157 C135 0.931 . S
H158 C137 0.934 . S
H159 C138 0.930 . S
Ho160 C163 2.811 . S
Ho160 O180 2.322 . S
Ho160 O182 2.378 . S
Ho160 O183 2.524 . S
Ho160 O184 2.381 . S
Ho160 O185 2.669 . S
Ho160 O187 2.346 . S
Ho160 O191 2.305 . S
Ho161 C172 2.811 . S
Ho161 O181 2.346 . S
Ho161 O185 2.305 . S
Ho161 O186 2.322 . S
Ho161 O188 2.378 . S
Ho161 O189 2.524 . S
Ho161 O190 2.381 . S
Ho161 O191 2.669 . S
C162 O180 1.259 . S
C162 O181 1.268 . S
C163 Ho160 2.811 . S
C163 C164 1.488 . S
C163 O182 1.215 . S
C163 O183 1.289 . S
C164 C163 1.488 . S
C164 C165 1.348 . S
C164 C169 1.413 . S
C165 C164 1.348 . S
C165 C166 1.442 . S
C165 H192 0.930 . S
C166 C165 1.442 . S
C166 C167 1.381 . S
C166 H193 0.931 . S
C167 C166 1.381 . S
C167 C168 1.321 . S
C168 C167 1.321 . S
C168 C169 1.403 . S
C168 H194 0.934 . S
C169 C164 1.413 . S
C169 C168 1.403 . S
C169 H195 0.930 . S
C170 O184 1.275 . S
C170 O185 1.256 . S
C171 O186 1.259 . S
C171 O187 1.268 . S
C172 Ho161 2.811 . S
C172 C173 1.488 . S
C172 O188 1.215 . S
C172 O189 1.289 . S
C173 C172 1.488 . S
C173 C174 1.348 . S
C173 C178 1.413 . S
C174 C173 1.348 . S
C174 C175 1.442 . S
C174 H196 0.930 . S
C175 C174 1.442 . S
C175 C176 1.381 . S
C175 H197 0.931 . S
C176 C175 1.381 . S
C176 C177 1.321 . S
C177 C176 1.321 . S
C177 C178 1.403 . S
C177 H198 0.934 . S
C178 C173 1.413 . S
C178 C177 1.403 . S
C178 H199 0.930 . S
C179 O190 1.275 . S
C179 O191 1.256 . S
O180 Ho160 2.322 . S
O180 C162 1.259 . S
O181 Ho161 2.346 . S
O181 C162 1.268 . S
O182 Ho160 2.378 . S
O182 C163 1.215 . S
O183 Ho160 2.524 . S
O183 C163 1.289 . S
O184 Ho160 2.381 . S
O184 C170 1.275 . S
O185 Ho160 2.669 . S
O185 Ho161 2.305 . S
O185 C170 1.256 . S
O186 Ho161 2.322 . S
O186 C171 1.259 . S
O187 Ho160 2.346 . S
O187 C171 1.268 . S
O188 Ho161 2.378 . S
O188 C172 1.215 . S
O189 Ho161 2.524 . S
O189 C172 1.289 . S
O190 Ho161 2.381 . S
O190 C179 1.275 . S
O191 Ho160 2.305 . S
O191 Ho161 2.669 . S
O191 C179 1.256 . S
H192 C165 0.930 . S
H193 C166 0.931 . S
H194 C168 0.934 . S
H195 C169 0.930 . S
H196 C174 0.930 . S
H197 C175 0.931 . S
H198 C177 0.934 . S
H199 C178 0.930 . S
Ho200 C203 2.811 . S
Ho200 O220 2.322 . S
Ho200 O222 2.378 . S
Ho200 O223 2.524 . S
Ho200 O224 2.381 1_565 S
Ho200 O225 2.669 1_565 S
Ho200 O227 2.346 1_565 S
Ho200 O231 2.305 1_565 S
Ho201 C212 2.811 . S
Ho201 O221 2.346 1_545 S
Ho201 O225 2.305 . S
Ho201 O226 2.322 . S
Ho201 O228 2.378 . S
Ho201 O229 2.524 . S
Ho201 O230 2.381 . S
Ho201 O231 2.669 . S
C202 O220 1.259 . S
C202 O221 1.268 . S
C203 Ho200 2.811 . S
C203 C204 1.488 . S
C203 O222 1.215 . S
C203 O223 1.289 . S
C204 C203 1.488 . S
C204 C205 1.348 . S
C204 C209 1.413 . S
C205 C204 1.348 . S
C205 C206 1.442 . S
C205 H232 0.930 . S
C206 C205 1.442 . S
C206 C207 1.381 . S
C206 H233 0.931 . S
C207 C206 1.381 . S
C207 C208 1.321 . S
C208 C207 1.321 . S
C208 C209 1.403 . S
C208 H234 0.934 . S
C209 C204 1.413 . S
C209 C208 1.403 . S
C209 H235 0.930 . S
C210 O224 1.275 . S
C210 O225 1.256 . S
C211 O226 1.259 . S
C211 O227 1.268 . S
C212 Ho201 2.811 . S
C212 C213 1.488 . S
C212 O228 1.215 . S
C212 O229 1.289 . S
C213 C212 1.488 . S
C213 C214 1.348 . S
C213 C218 1.413 . S
C214 C213 1.348 . S
C214 C215 1.442 . S
C214 H236 0.930 . S
C215 C214 1.442 . S
C215 C216 1.381 . S
C215 H237 0.931 . S
C216 C215 1.381 . S
C216 C217 1.321 . S
C217 C216 1.321 . S
C217 C218 1.403 . S
C217 H238 0.934 . S
C218 C213 1.413 . S
C218 C217 1.403 . S
C218 H239 0.930 . S
C219 O230 1.275 . S
C219 O231 1.256 . S
O220 Ho200 2.322 . S
O220 C202 1.259 . S
O221 Ho201 2.346 1_565 S
O221 C202 1.268 . S
O222 Ho200 2.378 . S
O222 C203 1.215 . S
O223 Ho200 2.524 . S
O223 C203 1.289 . S
O224 Ho200 2.381 1_545 S
O224 C210 1.275 . S
O225 Ho200 2.669 1_545 S
O225 Ho201 2.305 . S
O225 C210 1.256 . S
O226 Ho201 2.322 . S
O226 C211 1.259 . S
O227 Ho200 2.346 1_545 S
O227 C211 1.268 . S
O228 Ho201 2.378 . S
O228 C212 1.215 . S
O229 Ho201 2.524 . S
O229 C212 1.289 . S
O230 Ho201 2.381 . S
O230 C219 1.275 . S
O231 Ho200 2.305 1_545 S
O231 Ho201 2.669 . S
O231 C219 1.256 . S
H232 C205 0.930 . S
H233 C206 0.931 . S
H234 C208 0.934 . S
H235 C209 0.930 . S
H236 C214 0.930 . S
H237 C215 0.931 . S
H238 C217 0.934 . S
H239 C218 0.930 . S
Ho240 C243 2.811 . S
Ho240 O260 2.322 . S
Ho240 O262 2.378 . S
Ho240 O263 2.524 . S
Ho240 O264 2.381 . S
Ho240 O265 2.669 . S
Ho240 O267 2.346 1_545 S
Ho240 O271 2.305 . S
Ho241 C252 2.811 . S
Ho241 O261 2.346 1_565 S
Ho241 O265 2.305 1_565 S
Ho241 O266 2.322 . S
Ho241 O268 2.378 . S
Ho241 O269 2.524 . S
Ho241 O270 2.381 1_565 S
Ho241 O271 2.669 1_565 S
C242 O260 1.259 . S
C242 O261 1.268 . S
C243 Ho240 2.811 . S
C243 C244 1.488 . S
C243 O262 1.215 . S
C243 O263 1.289 . S
C244 C243 1.488 . S
C244 C245 1.348 . S
C244 C249 1.413 . S
C245 C244 1.348 . S
C245 C246 1.442 . S
C245 H272 0.930 . S
C246 C245 1.442 . S
C246 C247 1.381 . S
C246 H273 0.931 . S
C247 C246 1.381 . S
C247 C248 1.321 . S
C248 C247 1.321 . S
C248 C249 1.403 . S
C248 H274 0.934 . S
C249 C244 1.413 . S
C249 C248 1.403 . S
C249 H275 0.930 . S
C250 O264 1.275 . S
C250 O265 1.256 . S
C251 O266 1.259 . S
C251 O267 1.268 . S
C252 Ho241 2.811 . S
C252 C253 1.488 . S
C252 O268 1.215 . S
C252 O269 1.289 . S
C253 C252 1.488 . S
C253 C254 1.348 . S
C253 C258 1.413 . S
C254 C253 1.348 . S
C254 C255 1.442 . S
C254 H276 0.930 . S
C255 C254 1.442 . S
C255 C256 1.381 . S
C255 H277 0.931 . S
C256 C255 1.381 . S
C256 C257 1.321 . S
C257 C256 1.321 . S
C257 C258 1.403 . S
C257 H278 0.934 . S
C258 C253 1.413 . S
C258 C257 1.403 . S
C258 H279 0.930 . S
C259 O270 1.275 . S
C259 O271 1.256 . S
O260 Ho240 2.322 . S
O260 C242 1.259 . S
O261 Ho241 2.346 1_545 S
O261 C242 1.268 . S
O262 Ho240 2.378 . S
O262 C243 1.215 . S
O263 Ho240 2.524 . S
O263 C243 1.289 . S
O264 Ho240 2.381 . S
O264 C250 1.275 . S
O265 Ho240 2.669 . S
O265 Ho241 2.305 1_545 S
O265 C250 1.256 . S
O266 Ho241 2.322 . S
O266 C251 1.259 . S
O267 Ho240 2.346 1_565 S
O267 C251 1.268 . S
O268 Ho241 2.378 . S
O268 C252 1.215 . S
O269 Ho241 2.524 . S
O269 C252 1.289 . S
O270 Ho241 2.381 1_545 S
O270 C259 1.275 . S
O271 Ho240 2.305 . S
O271 Ho241 2.669 1_545 S
O271 C259 1.256 . S
H272 C245 0.930 . S
H273 C246 0.931 . S
H274 C248 0.934 . S
H275 C249 0.930 . S
H276 C254 0.930 . S
H277 C255 0.931 . S
H278 C257 0.934 . S
H279 C258 0.930 . S
Ho280 C283 2.811 1_455 S
Ho280 O300 2.322 1_455 S
Ho280 O302 2.378 1_455 S
Ho280 O303 2.524 1_455 S
Ho280 O304 2.381 . S
Ho280 O305 2.669 . S
Ho280 O307 2.346 . S
Ho280 O311 2.305 . S
Ho281 C292 2.811 . S
Ho281 O301 2.346 . S
Ho281 O305 2.305 . S
Ho281 O306 2.322 . S
Ho281 O308 2.378 . S
Ho281 O309 2.524 . S
Ho281 O310 2.381 . S
Ho281 O311 2.669 . S
C282 O300 1.259 . S
C282 O301 1.268 1_655 S
C283 Ho280 2.811 1_655 S
C283 C284 1.488 . S
C283 O302 1.215 . S
C283 O303 1.289 . S
C284 C283 1.488 . S
C284 C285 1.348 . S
C284 C289 1.413 . S
C285 C284 1.348 . S
C285 C286 1.442 . S
C285 H312 0.930 . S
C286 C285 1.442 . S
C286 C287 1.381 . S
C286 H313 0.931 . S
C287 C286 1.381 . S
C287 C288 1.321 . S
C288 C287 1.321 . S
C288 C289 1.403 . S
C288 H314 0.934 . S
C289 C284 1.413 . S
C289 C288 1.403 . S
C289 H315 0.930 . S
C290 O304 1.275 . S
C290 O305 1.256 . S
C291 O306 1.259 . S
C291 O307 1.268 . S
C292 Ho281 2.811 . S
C292 C293 1.488 . S
C292 O308 1.215 . S
C292 O309 1.289 . S
C293 C292 1.488 . S
C293 C294 1.348 . S
C293 C298 1.413 . S
C294 C293 1.348 . S
C294 C295 1.442 . S
C294 H316 0.930 . S
C295 C294 1.442 . S
C295 C296 1.381 . S
C295 H317 0.931 . S
C296 C295 1.381 . S
C296 C297 1.321 . S
C297 C296 1.321 . S
C297 C298 1.403 . S
C297 H318 0.934 . S
C298 C293 1.413 . S
C298 C297 1.403 . S
C298 H319 0.930 . S
C299 O310 1.275 . S
C299 O311 1.256 . S
O300 Ho280 2.322 1_655 S
O300 C282 1.259 . S
O301 Ho281 2.346 . S
O301 C282 1.268 1_455 S
O302 Ho280 2.378 1_655 S
O302 C283 1.215 . S
O303 Ho280 2.524 1_655 S
O303 C283 1.289 . S
O304 Ho280 2.381 . S
O304 C290 1.275 . S
O305 Ho280 2.669 . S
O305 Ho281 2.305 . S
O305 C290 1.256 . S
O306 Ho281 2.322 . S
O306 C291 1.259 . S
O307 Ho280 2.346 . S
O307 C291 1.268 . S
O308 Ho281 2.378 . S
O308 C292 1.215 . S
O309 Ho281 2.524 . S
O309 C292 1.289 . S
O310 Ho281 2.381 . S
O310 C299 1.275 . S
O311 Ho280 2.305 . S
O311 Ho281 2.669 . S
O311 C299 1.256 . S
H312 C285 0.930 . S
H313 C286 0.931 . S
H314 C288 0.934 . S
H315 C289 0.930 . S
H316 C294 0.930 . S
H317 C295 0.931 . S
H318 C297 0.934 . S
H319 C298 0.930 . S
Ho320 C323 2.811 . S
Ho320 O340 2.322 . S
Ho320 O342 2.378 . S
Ho320 O343 2.524 . S
Ho320 O344 2.381 . S
Ho320 O345 2.669 . S
Ho320 O347 2.346 . S
Ho320 O351 2.305 . S
Ho321 C332 2.811 . S
Ho321 O341 2.346 . S
Ho321 O345 2.305 . S
Ho321 O346 2.322 . S
Ho321 O348 2.378 . S
Ho321 O349 2.524 . S
Ho321 O350 2.381 . S
Ho321 O351 2.669 . S
C322 O340 1.259 . S
C322 O341 1.268 . S
C323 Ho320 2.811 . S
C323 C324 1.488 . S
C323 O342 1.215 . S
C323 O343 1.289 . S
C324 C323 1.488 . S
C324 C325 1.348 . S
C324 C329 1.413 . S
C325 C324 1.348 . S
C325 C326 1.442 . S
C325 H352 0.930 . S
C326 C325 1.442 . S
C326 C327 1.381 . S
C326 H353 0.931 . S
C327 C326 1.381 . S
C327 C328 1.321 . S
C328 C327 1.321 . S
C328 C329 1.403 . S
C328 H354 0.934 . S
C329 C324 1.413 . S
C329 C328 1.403 . S
C329 H355 0.930 . S
C330 O344 1.275 . S
C330 O345 1.256 . S
C331 O346 1.259 . S
C331 O347 1.268 . S
C332 Ho321 2.811 . S
C332 C333 1.488 . S
C332 O348 1.215 . S
C332 O349 1.289 . S
C333 C332 1.488 . S
C333 C334 1.348 . S
C333 C338 1.413 . S
C334 C333 1.348 . S
C334 C335 1.442 . S
C334 H356 0.930 . S
C335 C334 1.442 . S
C335 C336 1.381 . S
C335 H357 0.931 . S
C336 C335 1.381 . S
C336 C337 1.321 . S
C337 C336 1.321 . S
C337 C338 1.403 . S
C337 H358 0.934 . S
C338 C333 1.413 . S
C338 C337 1.403 . S
C338 H359 0.930 . S
C339 O350 1.275 . S
C339 O351 1.256 . S
O340 Ho320 2.322 . S
O340 C322 1.259 . S
O341 Ho321 2.346 . S
O341 C322 1.268 . S
O342 Ho320 2.378 . S
O342 C323 1.215 . S
O343 Ho320 2.524 . S
O343 C323 1.289 . S
O344 Ho320 2.381 . S
O344 C330 1.275 . S
O345 Ho320 2.669 . S
O345 Ho321 2.305 . S
O345 C330 1.256 . S
O346 Ho321 2.322 . S
O346 C331 1.259 . S
O347 Ho320 2.346 . S
O347 C331 1.268 . S
O348 Ho321 2.378 . S
O348 C332 1.215 . S
O349 Ho321 2.524 . S
O349 C332 1.289 . S
O350 Ho321 2.381 . S
O350 C339 1.275 . S
O351 Ho320 2.305 . S
O351 Ho321 2.669 . S
O351 C339 1.256 . S
H352 C325 0.930 . S
H353 C326 0.931 . S
H354 C328 0.934 . S
H355 C329 0.930 . S
H356 C334 0.930 . S
H357 C335 0.931 . S
H358 C337 0.934 . S
H359 C338 0.930 . S
Ho360 C363 2.811 . S
Ho360 O380 2.322 . S
Ho360 O382 2.378 . S
Ho360 O383 2.524 . S
Ho360 O384 2.381 . S
Ho360 O385 2.669 . S
Ho360 O387 2.346 1_455 S
Ho360 O391 2.305 . S
Ho361 C372 2.811 . S
Ho361 O381 2.346 1_655 S
Ho361 O385 2.305 1_655 S
Ho361 O386 2.322 . S
Ho361 O388 2.378 . S
Ho361 O389 2.524 . S
Ho361 O390 2.381 1_655 S
Ho361 O391 2.669 1_655 S
C362 O380 1.259 . S
C362 O381 1.268 . S
C363 Ho360 2.811 . S
C363 C364 1.488 . S
C363 O382 1.215 . S
C363 O383 1.289 . S
C364 C363 1.488 . S
C364 C365 1.348 . S
C364 C369 1.413 . S
C365 C364 1.348 . S
C365 C366 1.442 . S
C365 H392 0.930 . S
C366 C365 1.442 . S
C366 C367 1.381 . S
C366 H393 0.931 . S
C367 C366 1.381 . S
C367 C368 1.321 . S
C368 C367 1.321 . S
C368 C369 1.403 . S
C368 H394 0.934 . S
C369 C364 1.413 . S
C369 C368 1.403 . S
C369 H395 0.930 . S
C370 O384 1.275 . S
C370 O385 1.256 . S
C371 O386 1.259 . S
C371 O387 1.268 . S
C372 Ho361 2.811 . S
C372 C373 1.488 . S
C372 O388 1.215 . S
C372 O389 1.289 . S
C373 C372 1.488 . S
C373 C374 1.348 . S
C373 C378 1.413 . S
C374 C373 1.348 . S
C374 C375 1.442 . S
C374 H396 0.930 . S
C375 C374 1.442 . S
C375 C376 1.381 . S
C375 H397 0.931 . S
C376 C375 1.381 . S
C376 C377 1.321 . S
C377 C376 1.321 . S
C377 C378 1.403 . S
C377 H398 0.934 . S
C378 C373 1.413 . S
C378 C377 1.403 . S
C378 H399 0.930 . S
C379 O390 1.275 . S
C379 O391 1.256 . S
O380 Ho360 2.322 . S
O380 C362 1.259 . S
O381 Ho361 2.346 1_455 S
O381 C362 1.268 . S
O382 Ho360 2.378 . S
O382 C363 1.215 . S
O383 Ho360 2.524 . S
O383 C363 1.289 . S
O384 Ho360 2.381 . S
O384 C370 1.275 . S
O385 Ho360 2.669 . S
O385 Ho361 2.305 1_455 S
O385 C370 1.256 . S
O386 Ho361 2.322 . S
O386 C371 1.259 . S
O387 Ho360 2.346 1_655 S
O387 C371 1.268 . S
O388 Ho361 2.378 . S
O388 C372 1.215 . S
O389 Ho361 2.524 . S
O389 C372 1.289 . S
O390 Ho361 2.381 1_455 S
O390 C379 1.275 . S
O391 Ho360 2.305 . S
O391 Ho361 2.669 1_455 S
O391 C379 1.256 . S
H392 C365 0.930 . S
H393 C366 0.931 . S
H394 C368 0.934 . S
H395 C369 0.930 . S
H396 C374 0.930 . S
H397 C375 0.931 . S
H398 C377 0.934 . S
H399 C378 0.930 . S
Ho400 C403 2.811 . S
Ho400 O420 2.322 . S
Ho400 O422 2.378 . S
Ho400 O423 2.524 . S
Ho400 O424 2.381 . S
Ho400 O425 2.669 . S
Ho400 O427 2.346 . S
Ho400 O431 2.305 . S
Ho401 C412 2.811 . S
Ho401 O421 2.346 . S
Ho401 O425 2.305 . S
Ho401 O426 2.322 . S
Ho401 O428 2.378 . S
Ho401 O429 2.524 . S
Ho401 O430 2.381 . S
Ho401 O431 2.669 . S
C402 O420 1.259 . S
C402 O421 1.268 . S
C403 Ho400 2.811 . S
C403 C404 1.488 . S
C403 O422 1.215 . S
C403 O423 1.289 . S
C404 C403 1.488 . S
C404 C405 1.348 . S
C404 C409 1.413 . S
C405 C404 1.348 . S
C405 C406 1.442 . S
C405 H432 0.930 . S
C406 C405 1.442 . S
C406 C407 1.381 . S
C406 H433 0.931 . S
C407 C406 1.381 . S
C407 C408 1.321 . S
C408 C407 1.321 . S
C408 C409 1.403 . S
C408 H434 0.934 . S
C409 C404 1.413 . S
C409 C408 1.403 . S
C409 H435 0.930 . S
C410 O424 1.275 . S
C410 O425 1.256 . S
C411 O426 1.259 . S
C411 O427 1.268 . S
C412 Ho401 2.811 . S
C412 C413 1.488 . S
C412 O428 1.215 . S
C412 O429 1.289 . S
C413 C412 1.488 . S
C413 C414 1.348 . S
C413 C418 1.413 . S
C414 C413 1.348 . S
C414 C415 1.442 . S
C414 H436 0.930 . S
C415 C414 1.442 . S
C415 C416 1.381 . S
C415 H437 0.931 . S
C416 C415 1.381 . S
C416 C417 1.321 . S
C417 C416 1.321 . S
C417 C418 1.403 . S
C417 H438 0.934 . S
C418 C413 1.413 . S
C418 C417 1.403 . S
C418 H439 0.930 . S
C419 O430 1.275 . S
C419 O431 1.256 . S
O420 Ho400 2.322 . S
O420 C402 1.259 . S
O421 Ho401 2.346 . S
O421 C402 1.268 . S
O422 Ho400 2.378 . S
O422 C403 1.215 . S
O423 Ho400 2.524 . S
O423 C403 1.289 . S
O424 Ho400 2.381 . S
O424 C410 1.275 . S
O425 Ho400 2.669 . S
O425 Ho401 2.305 . S
O425 C410 1.256 . S
O426 Ho401 2.322 . S
O426 C411 1.259 . S
O427 Ho400 2.346 . S
O427 C411 1.268 . S
O428 Ho401 2.378 . S
O428 C412 1.215 . S
O429 Ho401 2.524 . S
O429 C412 1.289 . S
O430 Ho401 2.381 . S
O430 C419 1.275 . S
O431 Ho400 2.305 . S
O431 Ho401 2.669 . S
O431 C419 1.256 . S
H432 C405 0.930 . S
H433 C406 0.931 . S
H434 C408 0.934 . S
H435 C409 0.930 . S
H436 C414 0.930 . S
H437 C415 0.931 . S
H438 C417 0.934 . S
H439 C418 0.930 . S
Ho440 C443 2.811 1_545 S
Ho440 O460 2.322 1_545 S
Ho440 O462 2.378 1_545 S
Ho440 O463 2.524 1_545 S
Ho440 O464 2.381 . S
Ho440 O465 2.669 . S
Ho440 O467 2.346 . S
Ho440 O471 2.305 . S
Ho441 C452 2.811 . S
Ho441 O461 2.346 . S
Ho441 O465 2.305 . S
Ho441 O466 2.322 . S
Ho441 O468 2.378 . S
Ho441 O469 2.524 . S
Ho441 O470 2.381 . S
Ho441 O471 2.669 . S
C442 O460 1.259 . S
C442 O461 1.268 1_565 S
C443 Ho440 2.811 1_565 S
C443 C444 1.488 . S
C443 O462 1.215 . S
C443 O463 1.289 . S
C444 C443 1.488 . S
C444 C445 1.348 . S
C444 C449 1.413 . S
C445 C444 1.348 . S
C445 C446 1.442 . S
C445 H472 0.930 . S
C446 C445 1.442 . S
C446 C447 1.381 . S
C446 H473 0.931 . S
C447 C446 1.381 . S
C447 C448 1.321 . S
C448 C447 1.321 . S
C448 C449 1.403 . S
C448 H474 0.934 . S
C449 C444 1.413 . S
C449 C448 1.403 . S
C449 H475 0.930 . S
C450 O464 1.275 . S
C450 O465 1.256 . S
C451 O466 1.259 . S
C451 O467 1.268 . S
C452 Ho441 2.811 . S
C452 C453 1.488 . S
C452 O468 1.215 . S
C452 O469 1.289 . S
C453 C452 1.488 . S
C453 C454 1.348 . S
C453 C458 1.413 . S
C454 C453 1.348 . S
C454 C455 1.442 . S
C454 H476 0.930 . S
C455 C454 1.442 . S
C455 C456 1.381 . S
C455 H477 0.931 . S
C456 C455 1.381 . S
C456 C457 1.321 . S
C457 C456 1.321 . S
C457 C458 1.403 . S
C457 H478 0.934 . S
C458 C453 1.413 . S
C458 C457 1.403 . S
C458 H479 0.930 . S
C459 O470 1.275 . S
C459 O471 1.256 . S
O460 Ho440 2.322 1_565 S
O460 C442 1.259 . S
O461 Ho441 2.346 . S
O461 C442 1.268 1_545 S
O462 Ho440 2.378 1_565 S
O462 C443 1.215 . S
O463 Ho440 2.524 1_565 S
O463 C443 1.289 . S
O464 Ho440 2.381 . S
O464 C450 1.275 . S
O465 Ho440 2.669 . S
O465 Ho441 2.305 . S
O465 C450 1.256 . S
O466 Ho441 2.322 . S
O466 C451 1.259 . S
O467 Ho440 2.346 . S
O467 C451 1.268 . S
O468 Ho441 2.378 . S
O468 C452 1.215 . S
O469 Ho441 2.524 . S
O469 C452 1.289 . S
O470 Ho441 2.381 . S
O470 C459 1.275 . S
O471 Ho440 2.305 . S
O471 Ho441 2.669 . S
O471 C459 1.256 . S
H472 C445 0.930 . S
H473 C446 0.931 . S
H474 C448 0.934 . S
H475 C449 0.930 . S
H476 C454 0.930 . S
H477 C455 0.931 . S
H478 C457 0.934 . S
H479 C458 0.930 . S
Ho480 C483 2.811 . S
Ho480 O500 2.322 . S
Ho480 O502 2.378 . S
Ho480 O503 2.524 . S
Ho480 O504 2.381 . S
Ho480 O505 2.669 . S
Ho480 O507 2.346 . S
Ho480 O511 2.305 . S
Ho481 C492 2.811 . S
Ho481 O501 2.346 . S
Ho481 O505 2.305 . S
Ho481 O506 2.322 . S
Ho481 O508 2.378 . S
Ho481 O509 2.524 . S
Ho481 O510 2.381 . S
Ho481 O511 2.669 . S
C482 O500 1.259 . S
C482 O501 1.268 . S
C483 Ho480 2.811 . S
C483 C484 1.488 . S
C483 O502 1.215 . S
C483 O503 1.289 . S
C484 C483 1.488 . S
C484 C485 1.348 . S
C484 C489 1.413 . S
C485 C484 1.348 . S
C485 C486 1.442 . S
C485 H512 0.930 . S
C486 C485 1.442 . S
C486 C487 1.381 . S
C486 H513 0.931 . S
C487 C486 1.381 . S
C487 C488 1.321 . S
C488 C487 1.321 . S
C488 C489 1.403 . S
C488 H514 0.934 . S
C489 C484 1.413 . S
C489 C488 1.403 . S
C489 H515 0.930 . S
C490 O504 1.275 . S
C490 O505 1.256 . S
C491 O506 1.259 . S
C491 O507 1.268 . S
C492 Ho481 2.811 . S
C492 C493 1.488 . S
C492 O508 1.215 . S
C492 O509 1.289 . S
C493 C492 1.488 . S
C493 C494 1.348 . S
C493 C498 1.413 . S
C494 C493 1.348 . S
C494 C495 1.442 . S
C494 H516 0.930 . S
C495 C494 1.442 . S
C495 C496 1.381 . S
C495 H517 0.931 . S
C496 C495 1.381 . S
C496 C497 1.321 . S
C497 C496 1.321 . S
C497 C498 1.403 . S
C497 H518 0.934 . S
C498 C493 1.413 . S
C498 C497 1.403 . S
C498 H519 0.930 . S
C499 O510 1.275 . S
C499 O511 1.256 . S
O500 Ho480 2.322 . S
O500 C482 1.259 . S
O501 Ho481 2.346 . S
O501 C482 1.268 . S
O502 Ho480 2.378 . S
O502 C483 1.215 . S
O503 Ho480 2.524 . S
O503 C483 1.289 . S
O504 Ho480 2.381 . S
O504 C490 1.275 . S
O505 Ho480 2.669 . S
O505 Ho481 2.305 . S
O505 C490 1.256 . S
O506 Ho481 2.322 . S
O506 C491 1.259 . S
O507 Ho480 2.346 . S
O507 C491 1.268 . S
O508 Ho481 2.378 . S
O508 C492 1.215 . S
O509 Ho481 2.524 . S
O509 C492 1.289 . S
O510 Ho481 2.381 . S
O510 C499 1.275 . S
O511 Ho480 2.305 . S
O511 Ho481 2.669 . S
O511 C499 1.256 . S
H512 C485 0.930 . S
H513 C486 0.931 . S
H514 C488 0.934 . S
H515 C489 0.930 . S
H516 C494 0.930 . S
H517 C495 0.931 . S
H518 C497 0.934 . S
H519 C498 0.930 . S
Ho520 C523 2.811 . S
Ho520 O540 2.322 . S
Ho520 O542 2.378 . S
Ho520 O543 2.524 . S
Ho520 O544 2.381 . S
Ho520 O545 2.669 . S
Ho520 O547 2.346 . S
Ho520 O551 2.305 . S
Ho521 C532 2.811 . S
Ho521 O541 2.346 . S
Ho521 O545 2.305 . S
Ho521 O546 2.322 . S
Ho521 O548 2.378 . S
Ho521 O549 2.524 . S
Ho521 O550 2.381 . S
Ho521 O551 2.669 . S
C522 O540 1.259 . S
C522 O541 1.268 . S
C523 Ho520 2.811 . S
C523 C524 1.488 . S
C523 O542 1.215 . S
C523 O543 1.289 . S
C524 C523 1.488 . S
C524 C525 1.348 . S
C524 C529 1.413 . S
C525 C524 1.348 . S
C525 C526 1.442 . S
C525 H552 0.930 . S
C526 C525 1.442 . S
C526 C527 1.381 . S
C526 H553 0.931 . S
C527 C526 1.381 . S
C527 C528 1.321 . S
C528 C527 1.321 . S
C528 C529 1.403 . S
C528 H554 0.934 . S
C529 C524 1.413 . S
C529 C528 1.403 . S
C529 H555 0.930 . S
C530 O544 1.275 . S
C530 O545 1.256 . S
C531 O546 1.259 . S
C531 O547 1.268 . S
C532 Ho521 2.811 . S
C532 C533 1.488 . S
C532 O548 1.215 . S
C532 O549 1.289 . S
C533 C532 1.488 . S
C533 C534 1.348 . S
C533 C538 1.413 . S
C534 C533 1.348 . S
C534 C535 1.442 . S
C534 H556 0.930 . S
C535 C534 1.442 . S
C535 C536 1.381 . S
C535 H557 0.931 . S
C536 C535 1.381 . S
C536 C537 1.321 . S
C537 C536 1.321 . S
C537 C538 1.403 . S
C537 H558 0.944 . S
C538 C533 1.413 . S
C538 C537 1.403 . S
C538 H559 0.930 . S
C539 O550 1.275 . S
C539 O551 1.256 . S
O540 Ho520 2.322 . S
O540 C522 1.259 . S
O541 Ho521 2.346 . S
O541 C522 1.268 . S
O542 Ho520 2.378 . S
O542 C523 1.215 . S
O543 Ho520 2.524 . S
O543 C523 1.289 . S
O544 Ho520 2.381 . S
O544 C530 1.275 . S
O545 Ho520 2.669 . S
O545 Ho521 2.305 . S
O545 C530 1.256 . S
O546 Ho521 2.322 . S
O546 C531 1.259 . S
O547 Ho520 2.346 . S
O547 C531 1.268 . S
O548 Ho521 2.378 . S
O548 C532 1.215 . S
O549 Ho521 2.524 . S
O549 C532 1.289 . S
O550 Ho521 2.381 . S
O550 C539 1.275 . S
O551 Ho520 2.305 . S
O551 Ho521 2.669 . S
O551 C539 1.256 . S
H552 C525 0.930 . S
H553 C526 0.931 . S
H554 C528 0.934 . S
H555 C529 0.930 . S
H556 C534 0.930 . S
H557 C535 0.931 . S
H558 C537 0.944 . S
H559 C538 0.930 . S
Ho560 C563 2.811 . S
Ho560 O580 2.322 . S
Ho560 O582 2.378 . S
Ho560 O583 2.524 . S
Ho560 O584 2.381 . S
Ho560 O585 2.669 . S
Ho560 O587 2.346 . S
Ho560 O591 2.305 . S
Ho561 C572 2.811 . S
Ho561 O581 2.346 . S
Ho561 O585 2.305 . S
Ho561 O586 2.322 . S
Ho561 O588 2.378 . S
Ho561 O589 2.524 . S
Ho561 O590 2.381 . S
Ho561 O591 2.669 . S
C562 O580 1.259 . S
C562 O581 1.268 . S
C563 Ho560 2.811 . S
C563 C564 1.488 . S
C563 O582 1.215 . S
C563 O583 1.289 . S
C564 C563 1.488 . S
C564 C565 1.348 . S
C564 C569 1.413 . S
C565 C564 1.348 . S
C565 C566 1.442 . S
C565 H592 0.930 . S
C566 C565 1.442 . S
C566 C567 1.381 . S
C566 H593 0.931 . S
C567 C566 1.381 . S
C567 C568 1.321 . S
C568 C567 1.321 . S
C568 C569 1.403 . S
C568 H594 0.934 . S
C569 C564 1.413 . S
C569 C568 1.403 . S
C569 H595 0.930 . S
C570 O584 1.275 . S
C570 O585 1.256 . S
C571 O586 1.259 . S
C571 O587 1.268 . S
C572 Ho561 2.811 . S
C572 C573 1.488 . S
C572 O588 1.215 . S
C572 O589 1.289 . S
C573 C572 1.488 . S
C573 C574 1.348 . S
C573 C578 1.413 . S
C574 C573 1.348 . S
C574 C575 1.442 . S
C574 H596 0.930 . S
C575 C574 1.442 . S
C575 C576 1.381 . S
C575 H597 0.931 . S
C576 C575 1.381 . S
C576 C577 1.321 . S
C577 C576 1.321 . S
C577 C578 1.403 . S
C577 H598 0.934 . S
C578 C573 1.413 . S
C578 C577 1.403 . S
C578 H599 0.930 . S
C579 O590 1.275 . S
C579 O591 1.256 . S
O580 Ho560 2.322 . S
O580 C562 1.259 . S
O581 Ho561 2.346 . S
O581 C562 1.268 . S
O582 Ho560 2.378 . S
O582 C563 1.215 . S
O583 Ho560 2.524 . S
O583 C563 1.289 . S
O584 Ho560 2.381 . S
O584 C570 1.275 . S
O585 Ho560 2.669 . S
O585 Ho561 2.305 . S
O585 C570 1.256 . S
O586 Ho561 2.322 . S
O586 C571 1.259 . S
O587 Ho560 2.346 . S
O587 C571 1.268 . S
O588 Ho561 2.378 . S
O588 C572 1.215 . S
O589 Ho561 2.524 . S
O589 C572 1.289 . S
O590 Ho561 2.381 . S
O590 C579 1.275 . S
O591 Ho560 2.305 . S
O591 Ho561 2.669 . S
O591 C579 1.256 . S
H592 C565 0.930 . S
H593 C566 0.931 . S
H594 C568 0.934 . S
H595 C569 0.930 . S
H596 C574 0.930 . S
H597 C575 0.931 . S
H598 C577 0.934 . S
H599 C578 0.930 . S
Ho600 C603 2.811 . S
Ho600 O620 2.322 . S
Ho600 O622 2.378 . S
Ho600 O623 2.524 . S
Ho600 O624 2.381 . S
Ho600 O625 2.669 . S
Ho600 O627 2.346 . S
Ho600 O631 2.305 . S
Ho601 C612 2.811 . S
Ho601 O621 2.346 . S
Ho601 O625 2.305 . S
Ho601 O626 2.322 . S
Ho601 O628 2.378 . S
Ho601 O629 2.524 . S
Ho601 O630 2.381 . S
Ho601 O631 2.669 . S
C602 O620 1.259 . S
C602 O621 1.268 . S
C603 Ho600 2.811 . S
C603 C604 1.488 . S
C603 O622 1.215 . S
C603 O623 1.289 . S
C604 C603 1.488 . S
C604 C605 1.348 . S
C604 C609 1.413 . S
C605 C604 1.348 . S
C605 C606 1.442 . S
C605 H632 0.930 . S
C606 C605 1.442 . S
C606 C607 1.381 . S
C606 H633 0.931 . S
C607 C606 1.381 . S
C607 C608 1.321 . S
C608 C607 1.321 . S
C608 C609 1.403 . S
C608 H634 0.934 . S
C609 C604 1.413 . S
C609 C608 1.403 . S
C609 H635 0.930 . S
C610 O624 1.275 . S
C610 O625 1.256 . S
C611 O626 1.259 . S
C611 O627 1.268 . S
C612 Ho601 2.811 . S
C612 C613 1.488 . S
C612 O628 1.215 . S
C612 O629 1.289 . S
C613 C612 1.488 . S
C613 C614 1.348 . S
C613 C618 1.413 . S
C614 C613 1.348 . S
C614 C615 1.442 . S
C614 H636 0.930 . S
C615 C614 1.442 . S
C615 C616 1.381 . S
C615 H637 0.931 . S
C616 C615 1.381 . S
C616 C617 1.321 . S
C617 C616 1.321 . S
C617 C618 1.403 . S
C617 H638 0.934 . S
C618 C613 1.413 . S
C618 C617 1.403 . S
C618 H639 0.930 . S
C619 O630 1.275 . S
C619 O631 1.256 . S
O620 Ho600 2.322 . S
O620 C602 1.259 . S
O621 Ho601 2.346 . S
O621 C602 1.268 . S
O622 Ho600 2.378 . S
O622 C603 1.215 . S
O623 Ho600 2.524 . S
O623 C603 1.289 . S
O624 Ho600 2.381 . S
O624 C610 1.275 . S
O625 Ho600 2.669 . S
O625 Ho601 2.305 . S
O625 C610 1.256 . S
O626 Ho601 2.322 . S
O626 C611 1.259 . S
O627 Ho600 2.346 . S
O627 C611 1.268 . S
O628 Ho601 2.378 . S
O628 C612 1.215 . S
O629 Ho601 2.524 . S
O629 C612 1.289 . S
O630 Ho601 2.381 . S
O630 C619 1.275 . S
O631 Ho600 2.305 . S
O631 Ho601 2.669 . S
O631 C619 1.256 . S
H632 C605 0.930 . S
H633 C606 0.931 . S
H634 C608 0.934 . S
H635 C609 0.930 . S
H636 C614 0.930 . S
H637 C615 0.931 . S
H638 C617 0.934 . S
H639 C618 0.930 . S
Ho640 C643 2.811 . S
Ho640 O660 2.322 . S
Ho640 O662 2.378 . S
Ho640 O663 2.524 . S
Ho640 O664 2.381 . S
Ho640 O665 2.669 . S
Ho640 O667 2.346 . S
Ho640 O671 2.305 . S
Ho641 C652 2.811 . S
Ho641 O661 2.346 . S
Ho641 O665 2.305 . S
Ho641 O666 2.322 . S
Ho641 O668 2.378 . S
Ho641 O669 2.524 . S
Ho641 O670 2.381 . S
Ho641 O671 2.669 . S
C642 O660 1.259 . S
C642 O661 1.268 . S
C643 Ho640 2.811 . S
C643 C644 1.488 1_565 S
C643 O662 1.215 . S
C643 O663 1.289 . S
C644 C643 1.488 1_545 S
C644 C645 1.348 . S
C644 C649 1.413 . S
C645 C644 1.348 . S
C645 C646 1.442 . S
C645 H672 0.930 . S
C646 C645 1.442 . S
C646 C647 1.381 . S
C646 H673 0.931 . S
C647 C646 1.381 . S
C647 C648 1.321 . S
C648 C647 1.321 . S
C648 C649 1.403 . S
C648 H674 0.934 . S
C649 C644 1.413 . S
C649 C648 1.403 . S
C649 H675 0.930 . S
C650 O664 1.275 . S
C650 O665 1.256 . S
C651 O666 1.259 . S
C651 O667 1.268 . S
C652 Ho641 2.811 . S
C652 C653 1.488 . S
C652 O668 1.215 . S
C652 O669 1.289 . S
C653 C652 1.488 . S
C653 C654 1.348 . S
C653 C658 1.413 . S
C654 C653 1.348 . S
C654 C655 1.442 . S
C654 H676 0.930 . S
C655 C654 1.442 . S
C655 C656 1.381 . S
C655 H677 0.931 . S
C656 C655 1.381 . S
C656 C657 1.321 . S
C657 C656 1.321 . S
C657 C658 1.403 . S
C657 H678 0.934 . S
C658 C653 1.413 . S
C658 C657 1.403 . S
C658 H679 0.930 . S
C659 O670 1.275 . S
C659 O671 1.256 . S
O660 Ho640 2.322 . S
O660 C642 1.259 . S
O661 Ho641 2.346 . S
O661 C642 1.268 . S
O662 Ho640 2.378 . S
O662 C643 1.215 . S
O663 Ho640 2.524 . S
O663 C643 1.289 . S
O664 Ho640 2.381 . S
O664 C650 1.275 . S
O665 Ho640 2.669 . S
O665 Ho641 2.305 . S
O665 C650 1.256 . S
O666 Ho641 2.322 . S
O666 C651 1.259 . S
O667 Ho640 2.346 . S
O667 C651 1.268 . S
O668 Ho641 2.378 . S
O668 C652 1.215 . S
O669 Ho641 2.524 . S
O669 C652 1.289 . S
O670 Ho641 2.381 . S
O670 C659 1.275 . S
O671 Ho640 2.305 . S
O671 Ho641 2.669 . S
O671 C659 1.256 . S
H672 C645 0.930 . S
H673 C646 0.931 . S
H674 C648 0.934 . S
H675 C649 0.930 . S
H676 C654 0.930 . S
H677 C655 0.931 . S
H678 C657 0.934 . S
H679 C658 0.930 . S
Ho680 C683 2.811 . S
Ho680 O700 2.322 . S
Ho680 O702 2.378 . S
Ho680 O703 2.524 . S
Ho680 O704 2.381 . S
Ho680 O705 2.669 . S
Ho680 O707 2.346 . S
Ho680 O711 2.305 . S
Ho681 C692 2.811 . S
Ho681 O701 2.346 . S
Ho681 O705 2.305 . S
Ho681 O706 2.322 . S
Ho681 O708 2.378 . S
Ho681 O709 2.524 . S
Ho681 O710 2.381 . S
Ho681 O711 2.669 . S
C682 O700 1.259 . S
C682 O701 1.268 . S
C683 Ho680 2.811 . S
C683 C684 1.488 . S
C683 O702 1.215 . S
C683 O703 1.289 . S
C684 C683 1.488 . S
C684 C685 1.348 . S
C684 C689 1.413 . S
C685 C684 1.348 . S
C685 C686 1.442 . S
C685 H712 0.930 . S
C686 C685 1.442 . S
C686 C687 1.381 . S
C686 H713 0.931 . S
C687 C686 1.381 . S
C687 C688 1.321 . S
C688 C687 1.321 . S
C688 C689 1.403 . S
C688 H714 0.934 . S
C689 C684 1.413 . S
C689 C688 1.403 . S
C689 H715 0.930 . S
C690 O704 1.275 . S
C690 O705 1.256 . S
C691 O706 1.259 . S
C691 O707 1.268 . S
C692 Ho681 2.811 . S
C692 C693 1.488 . S
C692 O708 1.215 . S
C692 O709 1.289 . S
C693 C692 1.488 . S
C693 C694 1.348 . S
C693 C698 1.413 . S
C694 C693 1.348 . S
C694 C695 1.442 . S
C694 H716 0.930 . S
C695 C694 1.442 . S
C695 C696 1.381 . S
C695 H717 0.931 . S
C696 C695 1.381 . S
C696 C697 1.321 . S
C697 C696 1.321 . S
C697 C698 1.403 . S
C697 H718 0.934 . S
C698 C693 1.413 . S
C698 C697 1.403 . S
C698 H719 0.930 . S
C699 O710 1.275 . S
C699 O711 1.256 . S
O700 Ho680 2.322 . S
O700 C682 1.259 . S
O701 Ho681 2.346 . S
O701 C682 1.268 . S
O702 Ho680 2.378 . S
O702 C683 1.215 . S
O703 Ho680 2.524 . S
O703 C683 1.289 . S
O704 Ho680 2.381 . S
O704 C690 1.275 . S
O705 Ho680 2.669 . S
O705 Ho681 2.305 . S
O705 C690 1.256 . S
O706 Ho681 2.322 . S
O706 C691 1.259 . S
O707 Ho680 2.346 . S
O707 C691 1.268 . S
O708 Ho681 2.378 . S
O708 C692 1.215 . S
O709 Ho681 2.524 . S
O709 C692 1.289 . S
O710 Ho681 2.381 . S
O710 C699 1.275 . S
O711 Ho680 2.305 . S
O711 Ho681 2.669 . S
O711 C699 1.256 . S
H712 C685 0.930 . S
H713 C686 0.931 . S
H714 C688 0.934 . S
H715 C689 0.930 . S
H716 C694 0.930 . S
H717 C695 0.931 . S
H718 C697 0.934 . S
H719 C698 0.930 . S
Ho720 C723 2.811 . S
Ho720 O740 2.322 . S
Ho720 O742 2.378 . S
Ho720 O743 2.524 . S
Ho720 O744 2.381 . S
Ho720 O745 2.669 . S
Ho720 O747 2.346 . S
Ho720 O751 2.305 . S
Ho721 C732 2.811 . S
Ho721 O741 2.346 . S
Ho721 O745 2.305 . S
Ho721 O746 2.322 . S
Ho721 O748 2.378 . S
Ho721 O749 2.524 . S
Ho721 O750 2.381 . S
Ho721 O751 2.669 . S
C722 O740 1.259 . S
C722 O741 1.268 . S
C723 Ho720 2.811 . S
C723 C724 1.488 . S
C723 O742 1.215 . S
C723 O743 1.289 . S
C724 C723 1.488 . S
C724 C725 1.348 . S
C724 C729 1.413 . S
C725 C724 1.348 . S
C725 C726 1.442 . S
C725 H752 0.930 . S
C726 C725 1.442 . S
C726 C727 1.381 . S
C726 H753 0.931 . S
C727 C726 1.381 . S
C727 C728 1.321 . S
C728 C727 1.321 . S
C728 C729 1.403 . S
C728 H754 0.934 . S
C729 C724 1.413 . S
C729 C728 1.403 . S
C729 H755 0.930 . S
C730 O744 1.275 . S
C730 O745 1.256 . S
C731 O746 1.259 . S
C731 O747 1.268 . S
C732 Ho721 2.811 . S
C732 C733 1.488 . S
C732 O748 1.215 . S
C732 O749 1.289 . S
C733 C732 1.488 . S
C733 C734 1.348 . S
C733 C738 1.413 . S
C734 C733 1.348 . S
C734 C735 1.442 . S
C734 H756 0.930 . S
C735 C734 1.442 . S
C735 C736 1.381 . S
C735 H757 0.931 . S
C736 C735 1.381 . S
C736 C737 1.321 . S
C737 C736 1.321 . S
C737 C738 1.403 . S
C737 H758 0.934 . S
C738 C733 1.413 . S
C738 C737 1.403 . S
C738 H759 0.930 . S
C739 O750 1.275 . S
C739 O751 1.256 . S
O740 Ho720 2.322 . S
O740 C722 1.259 . S
O741 Ho721 2.346 . S
O741 C722 1.268 . S
O742 Ho720 2.378 . S
O742 C723 1.215 . S
O743 Ho720 2.524 . S
O743 C723 1.289 . S
O744 Ho720 2.381 . S
O744 C730 1.275 . S
O745 Ho720 2.669 . S
O745 Ho721 2.305 . S
O745 C730 1.256 . S
O746 Ho721 2.322 . S
O746 C731 1.259 . S
O747 Ho720 2.346 . S
O747 C731 1.268 . S
O748 Ho721 2.378 . S
O748 C732 1.215 . S
O749 Ho721 2.524 . S
O749 C732 1.289 . S
O750 Ho721 2.381 . S
O750 C739 1.275 . S
O751 Ho720 2.305 . S
O751 Ho721 2.669 . S
O751 C739 1.256 . S
H752 C725 0.930 . S
H753 C726 0.931 . S
H754 C728 0.934 . S
H755 C729 0.930 . S
H756 C734 0.930 . S
H757 C735 0.931 . S
H758 C737 0.934 . S
H759 C738 0.930 . S
Ho760 C763 2.811 . S
Ho760 O780 2.322 . S
Ho760 O782 2.378 . S
Ho760 O783 2.524 . S
Ho760 O784 2.381 . S
Ho760 O785 2.669 . S
Ho760 O787 2.346 . S
Ho760 O791 2.305 . S
Ho761 C772 2.811 . S
Ho761 O781 2.346 . S
Ho761 O785 2.305 . S
Ho761 O786 2.322 . S
Ho761 O788 2.378 . S
Ho761 O789 2.524 . S
Ho761 O790 2.381 . S
Ho761 O791 2.669 . S
C762 O780 1.259 . S
C762 O781 1.268 . S
C763 Ho760 2.811 . S
C763 C764 1.488 . S
C763 O782 1.215 . S
C763 O783 1.289 . S
C764 C763 1.488 . S
C764 C765 1.348 . S
C764 C769 1.413 . S
C765 C764 1.348 . S
C765 C766 1.442 . S
C765 H792 0.930 . S
C766 C765 1.442 . S
C766 C767 1.381 . S
C766 H793 0.931 . S
C767 C766 1.381 . S
C767 C768 1.321 . S
C768 C767 1.321 . S
C768 C769 1.403 . S
C768 H794 0.934 . S
C769 C764 1.413 . S
C769 C768 1.403 . S
C769 H795 0.930 . S
C770 O784 1.275 . S
C770 O785 1.256 . S
C771 O786 1.259 . S
C771 O787 1.268 . S
C772 Ho761 2.811 . S
C772 C773 1.488 1_565 S
C772 O788 1.215 . S
C772 O789 1.289 . S
C773 C772 1.488 1_545 S
C773 C774 1.348 . S
C773 C778 1.413 . S
C774 C773 1.348 . S
C774 C775 1.442 . S
C774 H796 0.930 . S
C775 C774 1.442 . S
C775 C776 1.381 . S
C775 H797 0.931 . S
C776 C775 1.381 . S
C776 C777 1.321 . S
C777 C776 1.321 . S
C777 C778 1.403 . S
C777 H798 0.934 . S
C778 C773 1.413 . S
C778 C777 1.403 . S
C778 H799 0.930 . S
C779 O790 1.275 . S
C779 O791 1.256 . S
O780 Ho760 2.322 . S
O780 C762 1.259 . S
O781 Ho761 2.346 . S
O781 C762 1.268 . S
O782 Ho760 2.378 . S
O782 C763 1.215 . S
O783 Ho760 2.524 . S
O783 C763 1.289 . S
O784 Ho760 2.381 . S
O784 C770 1.275 . S
O785 Ho760 2.669 . S
O785 Ho761 2.305 . S
O785 C770 1.256 . S
O786 Ho761 2.322 . S
O786 C771 1.259 . S
O787 Ho760 2.346 . S
O787 C771 1.268 . S
O788 Ho761 2.378 . S
O788 C772 1.215 . S
O789 Ho761 2.524 . S
O789 C772 1.289 . S
O790 Ho761 2.381 . S
O790 C779 1.275 . S
O791 Ho760 2.305 . S
O791 Ho761 2.669 . S
O791 C779 1.256 . S
H792 C765 0.930 . S
H793 C766 0.931 . S
H794 C768 0.934 . S
H795 C769 0.930 . S
H796 C774 0.930 . S
H797 C775 0.931 . S
H798 C777 0.934 . S
H799 C778 0.930 . S
Ho800 C803 2.811 . S
Ho800 O820 2.322 . S
Ho800 O822 2.378 . S
Ho800 O823 2.524 . S
Ho800 O824 2.381 . S
Ho800 O825 2.669 . S
Ho800 O827 2.346 . S
Ho800 O831 2.305 . S
Ho801 C812 2.811 . S
Ho801 O821 2.346 . S
Ho801 O825 2.305 . S
Ho801 O826 2.322 . S
Ho801 O828 2.378 . S
Ho801 O829 2.524 . S
Ho801 O830 2.381 . S
Ho801 O831 2.669 . S
C802 O820 1.259 . S
C802 O821 1.268 . S
C803 Ho800 2.811 . S
C803 C804 1.488 . S
C803 O822 1.215 . S
C803 O823 1.289 . S
C804 C803 1.488 . S
C804 C805 1.348 . S
C804 C809 1.413 . S
C805 C804 1.348 . S
C805 C806 1.442 . S
C805 H832 0.930 . S
C806 C805 1.442 . S
C806 C807 1.381 . S
C806 H833 0.931 . S
C807 C806 1.381 . S
C807 C808 1.321 . S
C808 C807 1.321 . S
C808 C809 1.403 . S
C808 H834 0.934 . S
C809 C804 1.413 . S
C809 C808 1.403 . S
C809 H835 0.930 . S
C810 O824 1.275 . S
C810 O825 1.256 . S
C811 O826 1.259 . S
C811 O827 1.268 . S
C812 Ho801 2.811 . S
C812 C813 1.488 . S
C812 O828 1.215 . S
C812 O829 1.289 . S
C813 C812 1.488 . S
C813 C814 1.348 . S
C813 C818 1.413 . S
C814 C813 1.348 . S
C814 C815 1.442 . S
C814 H836 0.930 . S
C815 C814 1.442 . S
C815 C816 1.381 . S
C815 H837 0.931 . S
C816 C815 1.381 . S
C816 C817 1.321 . S
C817 C816 1.321 . S
C817 C818 1.403 . S
C817 H838 0.934 . S
C818 C813 1.413 . S
C818 C817 1.403 . S
C818 H839 0.930 . S
C819 O830 1.275 . S
C819 O831 1.256 . S
O820 Ho800 2.322 . S
O820 C802 1.259 . S
O821 Ho801 2.346 . S
O821 C802 1.268 . S
O822 Ho800 2.378 . S
O822 C803 1.215 . S
O823 Ho800 2.524 . S
O823 C803 1.289 . S
O824 Ho800 2.381 . S
O824 C810 1.275 . S
O825 Ho800 2.669 . S
O825 Ho801 2.305 . S
O825 C810 1.256 . S
O826 Ho801 2.322 . S
O826 C811 1.259 . S
O827 Ho800 2.346 . S
O827 C811 1.268 . S
O828 Ho801 2.378 . S
O828 C812 1.215 . S
O829 Ho801 2.524 . S
O829 C812 1.289 . S
O830 Ho801 2.381 . S
O830 C819 1.275 . S
O831 Ho800 2.305 . S
O831 Ho801 2.669 . S
O831 C819 1.256 . S
H832 C805 0.930 . S
H833 C806 0.931 . S
H834 C808 0.934 . S
H835 C809 0.930 . S
H836 C814 0.930 . S
H837 C815 0.931 . S
H838 C817 0.934 . S
H839 C818 0.930 . S
Ho840 C843 2.811 . S
Ho840 O860 2.322 . S
Ho840 O862 2.378 . S
Ho840 O863 2.524 . S
Ho840 O864 2.381 . S
Ho840 O865 2.669 . S
Ho840 O867 2.346 . S
Ho840 O871 2.305 . S
Ho841 C852 2.811 . S
Ho841 O861 2.346 . S
Ho841 O865 2.305 . S
Ho841 O866 2.322 . S
Ho841 O868 2.378 . S
Ho841 O869 2.524 . S
Ho841 O870 2.381 . S
Ho841 O871 2.669 . S
C842 O860 1.259 . S
C842 O861 1.268 . S
C843 Ho840 2.811 . S
C843 C844 1.488 . S
C843 O862 1.215 . S
C843 O863 1.289 . S
C844 C843 1.488 . S
C844 C845 1.348 . S
C844 C849 1.413 . S
C845 C844 1.348 . S
C845 C846 1.442 . S
C845 H872 0.930 . S
C846 C845 1.442 . S
C846 C847 1.381 . S
C846 H873 0.931 . S
C847 C846 1.381 . S
C847 C848 1.321 . S
C848 C847 1.321 . S
C848 C849 1.403 . S
C848 H874 0.934 . S
C849 C844 1.413 . S
C849 C848 1.403 . S
C849 H875 0.930 . S
C850 O864 1.275 . S
C850 O865 1.256 . S
C851 O866 1.259 . S
C851 O867 1.268 . S
C852 Ho841 2.811 . S
C852 C853 1.488 . S
C852 O868 1.215 . S
C852 O869 1.289 . S
C853 C852 1.488 . S
C853 C854 1.348 . S
C853 C858 1.413 . S
C854 C853 1.348 . S
C854 C855 1.442 . S
C854 H876 0.930 . S
C855 C854 1.442 . S
C855 C856 1.381 . S
C855 H877 0.931 . S
C856 C855 1.381 . S
C856 C857 1.321 . S
C857 C856 1.321 . S
C857 C858 1.403 . S
C857 H878 0.934 . S
C858 C853 1.413 . S
C858 C857 1.403 . S
C858 H879 0.930 . S
C859 O870 1.275 . S
C859 O871 1.256 . S
O860 Ho840 2.322 . S
O860 C842 1.259 . S
O861 Ho841 2.346 . S
O861 C842 1.268 . S
O862 Ho840 2.378 . S
O862 C843 1.215 . S
O863 Ho840 2.524 . S
O863 C843 1.289 . S
O864 Ho840 2.381 . S
O864 C850 1.275 . S
O865 Ho840 2.669 . S
O865 Ho841 2.305 . S
O865 C850 1.256 . S
O866 Ho841 2.322 . S
O866 C851 1.259 . S
O867 Ho840 2.346 . S
O867 C851 1.268 . S
O868 Ho841 2.378 . S
O868 C852 1.215 . S
O869 Ho841 2.524 . S
O869 C852 1.289 . S
O870 Ho841 2.381 . S
O870 C859 1.275 . S
O871 Ho840 2.305 . S
O871 Ho841 2.669 . S
O871 C859 1.256 . S
H872 C845 0.930 . S
H873 C846 0.931 . S
H874 C848 0.934 . S
H875 C849 0.930 . S
H876 C854 0.930 . S
H877 C855 0.931 . S
H878 C857 0.934 . S
H879 C858 0.930 . S
Ho880 C883 2.811 . S
Ho880 O900 2.322 . S
Ho880 O902 2.378 . S
Ho880 O903 2.524 . S
Ho880 O904 2.381 . S
Ho880 O905 2.669 . S
Ho880 O907 2.346 . S
Ho880 O911 2.305 . S
Ho881 C892 2.811 . S
Ho881 O901 2.346 . S
Ho881 O905 2.305 . S
Ho881 O906 2.322 . S
Ho881 O908 2.378 . S
Ho881 O909 2.524 . S
Ho881 O910 2.381 . S
Ho881 O911 2.669 . S
C882 O900 1.259 . S
C882 O901 1.268 . S
C883 Ho880 2.811 . S
C883 C884 1.488 . S
C883 O902 1.215 . S
C883 O903 1.289 . S
C884 C883 1.488 . S
C884 C885 1.348 . S
C884 C889 1.413 . S
C885 C884 1.348 . S
C885 C886 1.442 . S
C885 H912 0.930 . S
C886 C885 1.442 . S
C886 C887 1.381 . S
C886 H913 0.931 . S
C887 C886 1.381 . S
C887 C888 1.321 . S
C888 C887 1.321 . S
C888 C889 1.403 . S
C888 H914 0.950 . S
C889 C884 1.413 . S
C889 C888 1.403 . S
C889 H915 0.930 . S
C890 O904 1.275 . S
C890 O905 1.256 . S
C891 O906 1.259 . S
C891 O907 1.268 . S
C892 Ho881 2.811 . S
C892 C893 1.488 . S
C892 O908 1.215 . S
C892 O909 1.289 . S
C893 C892 1.488 . S
C893 C894 1.348 . S
C893 C898 1.413 . S
C894 C893 1.348 . S
C894 C895 1.442 . S
C894 H916 0.930 . S
C895 C894 1.442 . S
C895 C896 1.381 . S
C895 H917 0.931 . S
C896 C895 1.381 . S
C896 C897 1.321 . S
C897 C896 1.321 . S
C897 C898 1.403 . S
C897 H918 0.934 . S
C898 C893 1.413 . S
C898 C897 1.403 . S
C898 H919 0.930 . S
C899 O910 1.275 . S
C899 O911 1.256 . S
O900 Ho880 2.322 . S
O900 C882 1.259 . S
O901 Ho881 2.346 . S
O901 C882 1.268 . S
O902 Ho880 2.378 . S
O902 C883 1.215 . S
O903 Ho880 2.524 . S
O903 C883 1.289 . S
O904 Ho880 2.381 . S
O904 C890 1.275 . S
O905 Ho880 2.669 . S
O905 Ho881 2.305 . S
O905 C890 1.256 . S
O906 Ho881 2.322 . S
O906 C891 1.259 . S
O907 Ho880 2.346 . S
O907 C891 1.268 . S
O908 Ho881 2.378 . S
O908 C892 1.215 . S
O909 Ho881 2.524 . S
O909 C892 1.289 . S
O910 Ho881 2.381 . S
O910 C899 1.275 . S
O911 Ho880 2.305 . S
O911 Ho881 2.669 . S
O911 C899 1.256 . S
H912 C885 0.930 . S
H913 C886 0.931 . S
H914 C888 0.950 . S
H915 C889 0.930 . S
H916 C894 0.930 . S
H917 C895 0.931 . S
H918 C897 0.934 . S
H919 C898 0.930 . S
Ho920 C923 2.811 . S
Ho920 O940 2.322 . S
Ho920 O942 2.378 . S
Ho920 O943 2.524 . S
Ho920 O944 2.381 . S
Ho920 O945 2.669 . S
Ho920 O947 2.346 . S
Ho920 O951 2.305 . S
Ho921 C932 2.811 . S
Ho921 O941 2.346 . S
Ho921 O945 2.305 . S
Ho921 O946 2.322 . S
Ho921 O948 2.378 . S
Ho921 O949 2.524 . S
Ho921 O950 2.381 . S
Ho921 O951 2.669 . S
C922 O940 1.259 . S
C922 O941 1.268 . S
C923 Ho920 2.811 . S
C923 C924 1.488 . S
C923 O942 1.215 . S
C923 O943 1.289 . S
C924 C923 1.488 . S
C924 C925 1.348 . S
C924 C929 1.413 . S
C925 C924 1.348 . S
C925 C926 1.442 . S
C925 H952 0.930 . S
C926 C925 1.442 . S
C926 C927 1.381 . S
C926 H953 0.931 . S
C927 C926 1.381 . S
C927 C928 1.321 . S
C928 C927 1.321 . S
C928 C929 1.403 . S
C928 H954 0.934 . S
C929 C924 1.413 . S
C929 C928 1.403 . S
C929 H955 0.930 . S
C930 O944 1.275 . S
C930 O945 1.256 . S
C931 O946 1.259 . S
C931 O947 1.268 . S
C932 Ho921 2.811 . S
C932 C933 1.488 . S
C932 O948 1.215 . S
C932 O949 1.289 . S
C933 C932 1.488 . S
C933 C934 1.348 . S
C933 C938 1.413 . S
C934 C933 1.348 . S
C934 C935 1.442 . S
C934 H956 0.930 . S
C935 C934 1.442 . S
C935 C936 1.381 . S
C935 H957 0.931 . S
C936 C935 1.381 . S
C936 C937 1.321 . S
C937 C936 1.321 . S
C937 C938 1.403 . S
C937 H958 0.934 . S
C938 C933 1.413 . S
C938 C937 1.403 . S
C938 H959 0.930 . S
C939 O950 1.275 . S
C939 O951 1.256 . S
O940 Ho920 2.322 . S
O940 C922 1.259 . S
O941 Ho921 2.346 . S
O941 C922 1.268 . S
O942 Ho920 2.378 . S
O942 C923 1.215 . S
O943 Ho920 2.524 . S
O943 C923 1.289 . S
O944 Ho920 2.381 . S
O944 C930 1.275 . S
O945 Ho920 2.669 . S
O945 Ho921 2.305 . S
O945 C930 1.256 . S
O946 Ho921 2.322 . S
O946 C931 1.259 . S
O947 Ho920 2.346 . S
O947 C931 1.268 . S
O948 Ho921 2.378 . S
O948 C932 1.215 . S
O949 Ho921 2.524 . S
O949 C932 1.289 . S
O950 Ho921 2.381 . S
O950 C939 1.275 . S
O951 Ho920 2.305 . S
O951 Ho921 2.669 . S
O951 C939 1.256 . S
H952 C925 0.930 . S
H953 C926 0.931 . S
H954 C928 0.934 . S
H955 C929 0.930 . S
H956 C934 0.930 . S
H957 C935 0.931 . S
H958 C937 0.934 . S
H959 C938 0.930 . S
Ho960 C963 2.811 . S
Ho960 O980 2.322 . S
Ho960 O982 2.378 . S
Ho960 O983 2.524 . S
Ho960 O984 2.381 . S
Ho960 O985 2.669 . S
Ho960 O987 2.346 . S
Ho960 O991 2.305 . S
Ho961 C972 2.811 . S
Ho961 O981 2.346 . S
Ho961 O985 2.305 . S
Ho961 O986 2.322 . S
Ho961 O988 2.378 . S
Ho961 O989 2.524 . S
Ho961 O990 2.381 . S
Ho961 O991 2.669 . S
C962 O980 1.259 . S
C962 O981 1.268 . S
C963 Ho960 2.811 . S
C963 C964 1.488 . S
C963 O982 1.215 . S
C963 O983 1.289 . S
C964 C963 1.488 . S
C964 C965 1.348 . S
C964 C969 1.413 . S
C965 C964 1.348 . S
C965 C966 1.442 . S
C965 H992 0.930 . S
C966 C965 1.442 . S
C966 C967 1.381 . S
C966 H993 0.931 . S
C967 C966 1.381 . S
C967 C968 1.321 . S
C968 C967 1.321 . S
C968 C969 1.403 . S
C968 H994 0.934 . S
C969 C964 1.413 . S
C969 C968 1.403 . S
C969 H995 0.930 . S
C970 O984 1.275 . S
C970 O985 1.256 . S
C971 O986 1.259 . S
C971 O987 1.268 . S
C972 Ho961 2.811 . S
C972 C973 1.488 . S
C972 O988 1.215 . S
C972 O989 1.289 . S
C973 C972 1.488 . S
C973 C974 1.348 . S
C973 C978 1.413 . S
C974 C973 1.348 . S
C974 C975 1.442 . S
C974 H996 0.930 . S
C975 C974 1.442 . S
C975 C976 1.381 . S
C975 H997 0.931 . S
C976 C975 1.381 . S
C976 C977 1.321 . S
C977 C976 1.321 . S
C977 C978 1.403 . S
C977 H998 0.934 . S
C978 C973 1.413 . S
C978 C977 1.403 . S
C978 H999 0.930 . S
C979 O990 1.275 . S
C979 O991 1.256 . S
O980 Ho960 2.322 . S
O980 C962 1.259 . S
O981 Ho961 2.346 . S
O981 C962 1.268 . S
O982 Ho960 2.378 . S
O982 C963 1.215 . S
O983 Ho960 2.524 . S
O983 C963 1.289 . S
O984 Ho960 2.381 . S
O984 C970 1.275 . S
O985 Ho960 2.669 . S
O985 Ho961 2.305 . S
O985 C970 1.256 . S
O986 Ho961 2.322 . S
O986 C971 1.259 . S
O987 Ho960 2.346 . S
O987 C971 1.268 . S
O988 Ho961 2.378 . S
O988 C972 1.215 . S
O989 Ho961 2.524 . S
O989 C972 1.289 . S
O990 Ho961 2.381 . S
O990 C979 1.275 . S
O991 Ho960 2.305 . S
O991 Ho961 2.669 . S
O991 C979 1.256 . S
H992 C965 0.930 . S
H993 C966 0.931 . S
H994 C968 0.934 . S
H995 C969 0.930 . S
H996 C974 0.930 . S
H997 C975 0.931 . S
H998 C977 0.934 . S
H999 C978 0.930 . S
Ho1000 C1003 2.811 . S
Ho1000 O1020 2.322 . S
Ho1000 O1022 2.378 . S
Ho1000 O1023 2.524 . S
Ho1000 O1024 2.381 . S
Ho1000 O1025 2.669 . S
Ho1000 O1027 2.346 . S
Ho1000 O1031 2.305 . S
Ho1001 C1012 2.811 . S
Ho1001 O1021 2.346 . S
Ho1001 O1025 2.305 . S
Ho1001 O1026 2.322 . S
Ho1001 O1028 2.378 . S
Ho1001 O1029 2.524 . S
Ho1001 O1030 2.381 . S
Ho1001 O1031 2.669 . S
C1002 O1020 1.259 . S
C1002 O1021 1.268 . S
C1003 Ho1000 2.811 . S
C1003 C1004 1.488 . S
C1003 O1022 1.215 . S
C1003 O1023 1.289 . S
C1004 C1003 1.488 . S
C1004 C1005 1.348 . S
C1004 C1009 1.413 . S
C1005 C1004 1.348 . S
C1005 C1006 1.442 . S
C1005 H1032 0.930 . S
C1006 C1005 1.442 . S
C1006 C1007 1.381 . S
C1006 H1033 0.931 . S
C1007 C1006 1.381 . S
C1007 C1008 1.321 . S
C1008 C1007 1.321 . S
C1008 C1009 1.403 . S
C1008 H1034 0.934 . S
C1009 C1004 1.413 . S
C1009 C1008 1.403 . S
C1009 H1035 0.930 . S
C1010 O1024 1.275 . S
C1010 O1025 1.256 . S
C1011 O1026 1.259 . S
C1011 O1027 1.268 . S
C1012 Ho1001 2.811 . S
C1012 C1013 1.488 . S
C1012 O1028 1.215 . S
C1012 O1029 1.289 . S
C1013 C1012 1.488 . S
C1013 C1014 1.348 . S
C1013 C1018 1.413 . S
C1014 C1013 1.348 . S
C1014 C1015 1.442 . S
C1014 H1036 0.930 . S
C1015 C1014 1.442 . S
C1015 C1016 1.381 . S
C1015 H1037 0.931 . S
C1016 C1015 1.381 . S
C1016 C1017 1.321 . S
C1017 C1016 1.321 . S
C1017 C1018 1.403 . S
C1017 H1038 0.934 . S
C1018 C1013 1.413 . S
C1018 C1017 1.403 . S
C1018 H1039 0.930 . S
C1019 O1030 1.275 . S
C1019 O1031 1.256 . S
O1020 Ho1000 2.322 . S
O1020 C1002 1.259 . S
O1021 Ho1001 2.346 . S
O1021 C1002 1.268 . S
O1022 Ho1000 2.378 . S
O1022 C1003 1.215 . S
O1023 Ho1000 2.524 . S
O1023 C1003 1.289 . S
O1024 Ho1000 2.381 . S
O1024 C1010 1.275 . S
O1025 Ho1000 2.669 . S
O1025 Ho1001 2.305 . S
O1025 C1010 1.256 . S
O1026 Ho1001 2.322 . S
O1026 C1011 1.259 . S
O1027 Ho1000 2.346 . S
O1027 C1011 1.268 . S
O1028 Ho1001 2.378 . S
O1028 C1012 1.215 . S
O1029 Ho1001 2.524 . S
O1029 C1012 1.289 . S
O1030 Ho1001 2.381 . S
O1030 C1019 1.275 . S
O1031 Ho1000 2.305 . S
O1031 Ho1001 2.669 . S
O1031 C1019 1.256 . S
H1032 C1005 0.930 . S
H1033 C1006 0.931 . S
H1034 C1008 0.934 . S
H1035 C1009 0.930 . S
H1036 C1014 0.930 . S
H1037 C1015 0.931 . S
H1038 C1017 0.934 . S
H1039 C1018 0.930 . S
Ho1040 C1043 2.811 . S
Ho1040 O1060 2.322 . S
Ho1040 O1062 2.378 . S
Ho1040 O1063 2.524 . S
Ho1040 O1064 2.381 . S
Ho1040 O1065 2.669 . S
Ho1040 O1067 2.346 . S
Ho1040 O1071 2.305 . S
Ho1041 C1052 2.811 . S
Ho1041 O1061 2.346 . S
Ho1041 O1065 2.305 . S
Ho1041 O1066 2.322 . S
Ho1041 O1068 2.378 . S
Ho1041 O1069 2.524 . S
Ho1041 O1070 2.381 . S
Ho1041 O1071 2.669 . S
C1042 O1060 1.259 . S
C1042 O1061 1.268 . S
C1043 Ho1040 2.811 . S
C1043 C1044 1.488 1_655 S
C1043 O1062 1.215 . S
C1043 O1063 1.289 . S
C1044 C1043 1.488 1_455 S
C1044 C1045 1.348 . S
C1044 C1049 1.413 . S
C1045 C1044 1.348 . S
C1045 C1046 1.442 . S
C1045 H1072 0.930 . S
C1046 C1045 1.442 . S
C1046 C1047 1.381 . S
C1046 H1073 0.931 . S
C1047 C1046 1.381 . S
C1047 C1048 1.321 . S
C1048 C1047 1.321 . S
C1048 C1049 1.403 . S
C1048 H1074 0.934 . S
C1049 C1044 1.413 . S
C1049 C1048 1.403 . S
C1049 H1075 0.930 . S
C1050 O1064 1.275 . S
C1050 O1065 1.256 . S
C1051 O1066 1.259 . S
C1051 O1067 1.268 . S
C1052 Ho1041 2.811 . S
C1052 C1053 1.488 . S
C1052 O1068 1.215 . S
C1052 O1069 1.289 . S
C1053 C1052 1.488 . S
C1053 C1054 1.348 . S
C1053 C1058 1.413 . S
C1054 C1053 1.348 . S
C1054 C1055 1.442 . S
C1054 H1076 0.930 . S
C1055 C1054 1.442 . S
C1055 C1056 1.381 . S
C1055 H1077 0.931 . S
C1056 C1055 1.381 . S
C1056 C1057 1.321 . S
C1057 C1056 1.321 . S
C1057 C1058 1.403 . S
C1057 H1078 0.934 . S
C1058 C1053 1.413 . S
C1058 C1057 1.403 . S
C1058 H1079 0.930 . S
C1059 O1070 1.275 . S
C1059 O1071 1.256 . S
O1060 Ho1040 2.322 . S
O1060 C1042 1.259 . S
O1061 Ho1041 2.346 . S
O1061 C1042 1.268 . S
O1062 Ho1040 2.378 . S
O1062 C1043 1.215 . S
O1063 Ho1040 2.524 . S
O1063 C1043 1.289 . S
O1064 Ho1040 2.381 . S
O1064 C1050 1.275 . S
O1065 Ho1040 2.669 . S
O1065 Ho1041 2.305 . S
O1065 C1050 1.256 . S
O1066 Ho1041 2.322 . S
O1066 C1051 1.259 . S
O1067 Ho1040 2.346 . S
O1067 C1051 1.268 . S
O1068 Ho1041 2.378 . S
O1068 C1052 1.215 . S
O1069 Ho1041 2.524 . S
O1069 C1052 1.289 . S
O1070 Ho1041 2.381 . S
O1070 C1059 1.275 . S
O1071 Ho1040 2.305 . S
O1071 Ho1041 2.669 . S
O1071 C1059 1.256 . S
H1072 C1045 0.930 . S
H1073 C1046 0.931 . S
H1074 C1048 0.934 . S
H1075 C1049 0.930 . S
H1076 C1054 0.930 . S
H1077 C1055 0.931 . S
H1078 C1057 0.934 . S
H1079 C1058 0.930 . S
Ho1080 C1083 2.811 . S
Ho1080 O1100 2.322 . S
Ho1080 O1102 2.378 . S
Ho1080 O1103 2.524 . S
Ho1080 O1104 2.381 . S
Ho1080 O1105 2.669 . S
Ho1080 O1107 2.346 . S
Ho1080 O1111 2.305 . S
Ho1081 C1092 2.811 . S
Ho1081 O1101 2.346 . S
Ho1081 O1105 2.305 . S
Ho1081 O1106 2.322 . S
Ho1081 O1108 2.378 . S
Ho1081 O1109 2.524 . S
Ho1081 O1110 2.381 . S
Ho1081 O1111 2.669 . S
C1082 O1100 1.259 . S
C1082 O1101 1.268 . S
C1083 Ho1080 2.811 . S
C1083 C1084 1.488 . S
C1083 O1102 1.215 . S
C1083 O1103 1.289 . S
C1084 C1083 1.488 . S
C1084 C1085 1.348 . S
C1084 C1089 1.413 . S
C1085 C1084 1.348 . S
C1085 C1086 1.442 . S
C1085 H1112 0.930 . S
C1086 C1085 1.442 . S
C1086 C1087 1.381 . S
C1086 H1113 0.931 . S
C1087 C1086 1.381 . S
C1087 C1088 1.321 . S
C1088 C1087 1.321 . S
C1088 C1089 1.403 . S
C1088 H1114 0.934 . S
C1089 C1084 1.413 . S
C1089 C1088 1.403 . S
C1089 H1115 0.930 . S
C1090 O1104 1.275 . S
C1090 O1105 1.256 . S
C1091 O1106 1.259 . S
C1091 O1107 1.268 . S
C1092 Ho1081 2.811 . S
C1092 C1093 1.488 . S
C1092 O1108 1.215 . S
C1092 O1109 1.289 . S
C1093 C1092 1.488 . S
C1093 C1094 1.348 . S
C1093 C1098 1.413 . S
C1094 C1093 1.348 . S
C1094 C1095 1.442 . S
C1094 H1116 0.930 . S
C1095 C1094 1.442 . S
C1095 C1096 1.381 . S
C1095 H1117 0.931 . S
C1096 C1095 1.381 . S
C1096 C1097 1.321 . S
C1097 C1096 1.321 . S
C1097 C1098 1.403 . S
C1097 H1118 0.934 . S
C1098 C1093 1.413 . S
C1098 C1097 1.403 . S
C1098 H1119 0.930 . S
C1099 O1110 1.275 . S
C1099 O1111 1.256 . S
O1100 Ho1080 2.322 . S
O1100 C1082 1.259 . S
O1101 Ho1081 2.346 . S
O1101 C1082 1.268 . S
O1102 Ho1080 2.378 . S
O1102 C1083 1.215 . S
O1103 Ho1080 2.524 . S
O1103 C1083 1.289 . S
O1104 Ho1080 2.381 . S
O1104 C1090 1.275 . S
O1105 Ho1080 2.669 . S
O1105 Ho1081 2.305 . S
O1105 C1090 1.256 . S
O1106 Ho1081 2.322 . S
O1106 C1091 1.259 . S
O1107 Ho1080 2.346 . S
O1107 C1091 1.268 . S
O1108 Ho1081 2.378 . S
O1108 C1092 1.215 . S
O1109 Ho1081 2.524 . S
O1109 C1092 1.289 . S
O1110 Ho1081 2.381 . S
O1110 C1099 1.275 . S
O1111 Ho1080 2.305 . S
O1111 Ho1081 2.669 . S
O1111 C1099 1.256 . S
H1112 C1085 0.930 . S
H1113 C1086 0.931 . S
H1114 C1088 0.934 . S
H1115 C1089 0.930 . S
H1116 C1094 0.930 . S
H1117 C1095 0.931 . S
H1118 C1097 0.934 . S
H1119 C1098 0.930 . S
Ho1120 C1123 2.811 . S
Ho1120 O1140 2.322 . S
Ho1120 O1142 2.378 . S
Ho1120 O1143 2.524 . S
Ho1120 O1144 2.381 . S
Ho1120 O1145 2.669 . S
Ho1120 O1147 2.346 . S
Ho1120 O1151 2.305 . S
Ho1121 C1132 2.811 . S
Ho1121 O1141 2.346 . S
Ho1121 O1145 2.305 . S
Ho1121 O1146 2.322 . S
Ho1121 O1148 2.378 . S
Ho1121 O1149 2.524 . S
Ho1121 O1150 2.381 . S
Ho1121 O1151 2.669 . S
C1122 O1140 1.259 . S
C1122 O1141 1.268 . S
C1123 Ho1120 2.811 . S
C1123 C1124 1.488 . S
C1123 O1142 1.215 . S
C1123 O1143 1.289 . S
C1124 C1123 1.488 . S
C1124 C1125 1.348 . S
C1124 C1129 1.413 . S
C1125 C1124 1.348 . S
C1125 C1126 1.442 . S
C1125 H1152 0.930 . S
C1126 C1125 1.442 . S
C1126 C1127 1.381 . S
C1126 H1153 0.931 . S
C1127 C1126 1.381 . S
C1127 C1128 1.321 . S
C1128 C1127 1.321 . S
C1128 C1129 1.403 . S
C1128 H1154 0.934 . S
C1129 C1124 1.413 . S
C1129 C1128 1.403 . S
C1129 H1155 0.930 . S
C1130 O1144 1.275 . S
C1130 O1145 1.256 . S
C1131 O1146 1.259 . S
C1131 O1147 1.268 . S
C1132 Ho1121 2.811 . S
C1132 C1133 1.488 . S
C1132 O1148 1.215 . S
C1132 O1149 1.289 . S
C1133 C1132 1.488 . S
C1133 C1134 1.348 . S
C1133 C1138 1.413 . S
C1134 C1133 1.348 . S
C1134 C1135 1.442 . S
C1134 H1156 0.930 . S
C1135 C1134 1.442 . S
C1135 C1136 1.381 . S
C1135 H1157 0.931 . S
C1136 C1135 1.381 . S
C1136 C1137 1.321 . S
C1137 C1136 1.321 . S
C1137 C1138 1.403 . S
C1137 H1158 0.934 . S
C1138 C1133 1.413 . S
C1138 C1137 1.403 . S
C1138 H1159 0.930 . S
C1139 O1150 1.275 . S
C1139 O1151 1.256 . S
O1140 Ho1120 2.322 . S
O1140 C1122 1.259 . S
O1141 Ho1121 2.346 . S
O1141 C1122 1.268 . S
O1142 Ho1120 2.378 . S
O1142 C1123 1.215 . S
O1143 Ho1120 2.524 . S
O1143 C1123 1.289 . S
O1144 Ho1120 2.381 . S
O1144 C1130 1.275 . S
O1145 Ho1120 2.669 . S
O1145 Ho1121 2.305 . S
O1145 C1130 1.256 . S
O1146 Ho1121 2.322 . S
O1146 C1131 1.259 . S
O1147 Ho1120 2.346 . S
O1147 C1131 1.268 . S
O1148 Ho1121 2.378 . S
O1148 C1132 1.215 . S
O1149 Ho1121 2.524 . S
O1149 C1132 1.289 . S
O1150 Ho1121 2.381 . S
O1150 C1139 1.275 . S
O1151 Ho1120 2.305 . S
O1151 Ho1121 2.669 . S
O1151 C1139 1.256 . S
H1152 C1125 0.930 . S
H1153 C1126 0.931 . S
H1154 C1128 0.934 . S
H1155 C1129 0.930 . S
H1156 C1134 0.930 . S
H1157 C1135 0.931 . S
H1158 C1137 0.934 . S
H1159 C1138 0.930 . S
Ho1160 C1163 2.811 . S
Ho1160 O1180 2.322 . S
Ho1160 O1182 2.378 . S
Ho1160 O1183 2.524 . S
Ho1160 O1184 2.381 . S
Ho1160 O1185 2.669 . S
Ho1160 O1187 2.346 . S
Ho1160 O1191 2.305 . S
Ho1161 C1172 2.811 . S
Ho1161 O1181 2.346 . S
Ho1161 O1185 2.305 . S
Ho1161 O1186 2.322 . S
Ho1161 O1188 2.378 . S
Ho1161 O1189 2.524 . S
Ho1161 O1190 2.381 . S
Ho1161 O1191 2.669 . S
C1162 O1180 1.259 . S
C1162 O1181 1.268 . S
C1163 Ho1160 2.811 . S
C1163 C1164 1.488 . S
C1163 O1182 1.215 . S
C1163 O1183 1.289 . S
C1164 C1163 1.488 . S
C1164 C1165 1.348 . S
C1164 C1169 1.413 . S
C1165 C1164 1.348 . S
C1165 C1166 1.442 . S
C1165 H1192 0.930 . S
C1166 C1165 1.442 . S
C1166 C1167 1.381 . S
C1166 H1193 0.931 . S
C1167 C1166 1.381 . S
C1167 C1168 1.321 . S
C1168 C1167 1.321 . S
C1168 C1169 1.403 . S
C1168 H1194 0.934 . S
C1169 C1164 1.413 . S
C1169 C1168 1.403 . S
C1169 H1195 0.930 . S
C1170 O1184 1.275 . S
C1170 O1185 1.256 . S
C1171 O1186 1.259 . S
C1171 O1187 1.268 . S
C1172 Ho1161 2.811 . S
C1172 C1173 1.488 . S
C1172 O1188 1.215 . S
C1172 O1189 1.289 . S
C1173 C1172 1.488 . S
C1173 C1174 1.348 . S
C1173 C1178 1.413 . S
C1174 C1173 1.348 . S
C1174 C1175 1.442 . S
C1174 H1196 0.930 . S
C1175 C1174 1.442 . S
C1175 C1176 1.381 . S
C1175 H1197 0.931 . S
C1176 C1175 1.381 . S
C1176 C1177 1.321 . S
C1177 C1176 1.321 . S
C1177 C1178 1.403 . S
C1177 H1198 0.944 . S
C1178 C1173 1.413 . S
C1178 C1177 1.403 . S
C1178 H1199 0.930 . S
C1179 O1190 1.275 . S
C1179 O1191 1.256 . S
O1180 Ho1160 2.322 . S
O1180 C1162 1.259 . S
O1181 Ho1161 2.346 . S
O1181 C1162 1.268 . S
O1182 Ho1160 2.378 . S
O1182 C1163 1.215 . S
O1183 Ho1160 2.524 . S
O1183 C1163 1.289 . S
O1184 Ho1160 2.381 . S
O1184 C1170 1.275 . S
O1185 Ho1160 2.669 . S
O1185 Ho1161 2.305 . S
O1185 C1170 1.256 . S
O1186 Ho1161 2.322 . S
O1186 C1171 1.259 . S
O1187 Ho1160 2.346 . S
O1187 C1171 1.268 . S
O1188 Ho1161 2.378 . S
O1188 C1172 1.215 . S
O1189 Ho1161 2.524 . S
O1189 C1172 1.289 . S
O1190 Ho1161 2.381 . S
O1190 C1179 1.275 . S
O1191 Ho1160 2.305 . S
O1191 Ho1161 2.669 . S
O1191 C1179 1.256 . S
H1192 C1165 0.930 . S
H1193 C1166 0.931 . S
H1194 C1168 0.934 . S
H1195 C1169 0.930 . S
H1196 C1174 0.930 . S
H1197 C1175 0.931 . S
H1198 C1177 0.944 . S
H1199 C1178 0.930 . S
Ho1200 C1203 2.811 . S
Ho1200 O1220 2.322 . S
Ho1200 O1222 2.378 . S
Ho1200 O1223 2.524 . S
Ho1200 O1224 2.381 . S
Ho1200 O1225 2.669 . S
Ho1200 O1227 2.346 . S
Ho1200 O1231 2.305 . S
Ho1201 C1212 2.811 . S
Ho1201 O1221 2.346 . S
Ho1201 O1225 2.305 . S
Ho1201 O1226 2.322 . S
Ho1201 O1228 2.378 . S
Ho1201 O1229 2.524 . S
Ho1201 O1230 2.381 . S
Ho1201 O1231 2.669 . S
C1202 O1220 1.259 . S
C1202 O1221 1.268 . S
C1203 Ho1200 2.811 . S
C1203 C1204 1.488 . S
C1203 O1222 1.215 . S
C1203 O1223 1.289 . S
C1204 C1203 1.488 . S
C1204 C1205 1.348 . S
C1204 C1209 1.413 . S
C1205 C1204 1.348 . S
C1205 C1206 1.442 . S
C1205 H1232 0.930 . S
C1206 C1205 1.442 . S
C1206 C1207 1.381 . S
C1206 H1233 0.931 . S
C1207 C1206 1.381 . S
C1207 C1208 1.321 . S
C1208 C1207 1.321 . S
C1208 C1209 1.403 . S
C1208 H1234 0.934 . S
C1209 C1204 1.413 . S
C1209 C1208 1.403 . S
C1209 H1235 0.930 . S
C1210 O1224 1.275 . S
C1210 O1225 1.256 . S
C1211 O1226 1.259 . S
C1211 O1227 1.268 . S
C1212 Ho1201 2.811 . S
C1212 C1213 1.488 . S
C1212 O1228 1.215 . S
C1212 O1229 1.289 . S
C1213 C1212 1.488 . S
C1213 C1214 1.348 . S
C1213 C1218 1.413 . S
C1214 C1213 1.348 . S
C1214 C1215 1.442 . S
C1214 H1236 0.930 . S
C1215 C1214 1.442 . S
C1215 C1216 1.381 . S
C1215 H1237 0.931 . S
C1216 C1215 1.381 . S
C1216 C1217 1.321 . S
C1217 C1216 1.321 . S
C1217 C1218 1.403 . S
C1217 H1238 0.934 . S
C1218 C1213 1.413 . S
C1218 C1217 1.403 . S
C1218 H1239 0.930 . S
C1219 O1230 1.275 . S
C1219 O1231 1.256 . S
O1220 Ho1200 2.322 . S
O1220 C1202 1.259 . S
O1221 Ho1201 2.346 . S
O1221 C1202 1.268 . S
O1222 Ho1200 2.378 . S
O1222 C1203 1.215 . S
O1223 Ho1200 2.524 . S
O1223 C1203 1.289 . S
O1224 Ho1200 2.381 . S
O1224 C1210 1.275 . S
O1225 Ho1200 2.669 . S
O1225 Ho1201 2.305 . S
O1225 C1210 1.256 . S
O1226 Ho1201 2.322 . S
O1226 C1211 1.259 . S
O1227 Ho1200 2.346 . S
O1227 C1211 1.268 . S
O1228 Ho1201 2.378 . S
O1228 C1212 1.215 . S
O1229 Ho1201 2.524 . S
O1229 C1212 1.289 . S
O1230 Ho1201 2.381 . S
O1230 C1219 1.275 . S
O1231 Ho1200 2.305 . S
O1231 Ho1201 2.669 . S
O1231 C1219 1.256 . S
H1232 C1205 0.930 . S
H1233 C1206 0.931 . S
H1234 C1208 0.934 . S
H1235 C1209 0.930 . S
H1236 C1214 0.930 . S
H1237 C1215 0.931 . S
H1238 C1217 0.934 . S
H1239 C1218 0.930 . S
Ho1240 C1243 2.811 . S
Ho1240 O1260 2.322 . S
Ho1240 O1262 2.378 . S
Ho1240 O1263 2.524 . S
Ho1240 O1264 2.381 . S
Ho1240 O1265 2.669 . S
Ho1240 O1267 2.346 . S
Ho1240 O1271 2.305 . S
Ho1241 C1252 2.811 . S
Ho1241 O1261 2.346 . S
Ho1241 O1265 2.305 . S
Ho1241 O1266 2.322 . S
Ho1241 O1268 2.378 . S
Ho1241 O1269 2.524 . S
Ho1241 O1270 2.381 . S
Ho1241 O1271 2.669 . S
C1242 O1260 1.259 . S
C1242 O1261 1.268 . S
C1243 Ho1240 2.811 . S
C1243 C1244 1.488 . S
C1243 O1262 1.215 . S
C1243 O1263 1.289 . S
C1244 C1243 1.488 . S
C1244 C1245 1.348 . S
C1244 C1249 1.413 . S
C1245 C1244 1.348 . S
C1245 C1246 1.442 . S
C1245 H1272 0.930 . S
C1246 C1245 1.442 . S
C1246 C1247 1.381 . S
C1246 H1273 0.931 . S
C1247 C1246 1.381 . S
C1247 C1248 1.321 . S
C1248 C1247 1.321 . S
C1248 C1249 1.403 . S
C1248 H1274 0.934 . S
C1249 C1244 1.413 . S
C1249 C1248 1.403 . S
C1249 H1275 0.930 . S
C1250 O1264 1.275 . S
C1250 O1265 1.256 . S
C1251 O1266 1.259 . S
C1251 O1267 1.268 . S
C1252 Ho1241 2.811 . S
C1252 C1253 1.488 . S
C1252 O1268 1.215 . S
C1252 O1269 1.289 . S
C1253 C1252 1.488 . S
C1253 C1254 1.348 . S
C1253 C1258 1.413 . S
C1254 C1253 1.348 . S
C1254 C1255 1.442 . S
C1254 H1276 0.930 . S
C1255 C1254 1.442 . S
C1255 C1256 1.381 . S
C1255 H1277 0.931 . S
C1256 C1255 1.381 . S
C1256 C1257 1.321 . S
C1257 C1256 1.321 . S
C1257 C1258 1.403 . S
C1257 H1278 0.934 . S
C1258 C1253 1.413 . S
C1258 C1257 1.403 . S
C1258 H1279 0.930 . S
C1259 O1270 1.275 . S
C1259 O1271 1.256 . S
O1260 Ho1240 2.322 . S
O1260 C1242 1.259 . S
O1261 Ho1241 2.346 . S
O1261 C1242 1.268 . S
O1262 Ho1240 2.378 . S
O1262 C1243 1.215 . S
O1263 Ho1240 2.524 . S
O1263 C1243 1.289 . S
O1264 Ho1240 2.381 . S
O1264 C1250 1.275 . S
O1265 Ho1240 2.669 . S
O1265 Ho1241 2.305 . S
O1265 C1250 1.256 . S
O1266 Ho1241 2.322 . S
O1266 C1251 1.259 . S
O1267 Ho1240 2.346 . S
O1267 C1251 1.268 . S
O1268 Ho1241 2.378 . S
O1268 C1252 1.215 . S
O1269 Ho1241 2.524 . S
O1269 C1252 1.289 . S
O1270 Ho1241 2.381 . S
O1270 C1259 1.275 . S
O1271 Ho1240 2.305 . S
O1271 Ho1241 2.669 . S
O1271 C1259 1.256 . S
H1272 C1245 0.930 . S
H1273 C1246 0.931 . S
H1274 C1248 0.934 . S
H1275 C1249 0.930 . S
H1276 C1254 0.930 . S
H1277 C1255 0.931 . S
H1278 C1257 0.934 . S
H1279 C1258 0.930 . S
Ho1280 C1283 2.811 . S
Ho1280 O1300 2.322 . S
Ho1280 O1302 2.378 . S
Ho1280 O1303 2.524 . S
Ho1280 O1304 2.381 . S
Ho1280 O1305 2.669 . S
Ho1280 O1307 2.346 . S
Ho1280 O1311 2.305 . S
Ho1281 C1292 2.811 . S
Ho1281 O1301 2.346 . S
Ho1281 O1305 2.305 . S
Ho1281 O1306 2.322 . S
Ho1281 O1308 2.378 . S
Ho1281 O1309 2.524 . S
Ho1281 O1310 2.381 . S
Ho1281 O1311 2.669 . S
C1282 O1300 1.259 . S
C1282 O1301 1.268 . S
C1283 Ho1280 2.811 . S
C1283 C1284 1.488 . S
C1283 O1302 1.215 . S
C1283 O1303 1.289 . S
C1284 C1283 1.488 . S
C1284 C1285 1.348 . S
C1284 C1289 1.413 . S
C1285 C1284 1.348 . S
C1285 C1286 1.442 . S
C1285 H1312 0.930 . S
C1286 C1285 1.442 . S
C1286 C1287 1.381 . S
C1286 H1313 0.931 . S
C1287 C1286 1.381 . S
C1287 C1288 1.321 . S
C1288 C1287 1.321 . S
C1288 C1289 1.403 . S
C1288 H1314 0.950 . S
C1289 C1284 1.413 . S
C1289 C1288 1.403 . S
C1289 H1315 0.930 . S
C1290 O1304 1.275 . S
C1290 O1305 1.256 . S
C1291 O1306 1.259 . S
C1291 O1307 1.268 . S
C1292 Ho1281 2.811 . S
C1292 C1293 1.488 . S
C1292 O1308 1.215 . S
C1292 O1309 1.289 . S
C1293 C1292 1.488 . S
C1293 C1294 1.348 . S
C1293 C1298 1.413 . S
C1294 C1293 1.348 . S
C1294 C1295 1.442 . S
C1294 H1316 0.930 . S
C1295 C1294 1.442 . S
C1295 C1296 1.381 . S
C1295 H1317 0.931 . S
C1296 C1295 1.381 . S
C1296 C1297 1.321 . S
C1297 C1296 1.321 . S
C1297 C1298 1.403 . S
C1297 H1318 0.934 . S
C1298 C1293 1.413 . S
C1298 C1297 1.403 . S
C1298 H1319 0.930 . S
C1299 O1310 1.275 . S
C1299 O1311 1.256 . S
O1300 Ho1280 2.322 . S
O1300 C1282 1.259 . S
O1301 Ho1281 2.346 . S
O1301 C1282 1.268 . S
O1302 Ho1280 2.378 . S
O1302 C1283 1.215 . S
O1303 Ho1280 2.524 . S
O1303 C1283 1.289 . S
O1304 Ho1280 2.381 . S
O1304 C1290 1.275 . S
O1305 Ho1280 2.669 . S
O1305 Ho1281 2.305 . S
O1305 C1290 1.256 . S
O1306 Ho1281 2.322 . S
O1306 C1291 1.259 . S
O1307 Ho1280 2.346 . S
O1307 C1291 1.268 . S
O1308 Ho1281 2.378 . S
O1308 C1292 1.215 . S
O1309 Ho1281 2.524 . S
O1309 C1292 1.289 . S
O1310 Ho1281 2.381 . S
O1310 C1299 1.275 . S
O1311 Ho1280 2.305 . S
O1311 Ho1281 2.669 . S
O1311 C1299 1.256 . S
H1312 C1285 0.930 . S
H1313 C1286 0.931 . S
H1314 C1288 0.950 . S
H1315 C1289 0.930 . S
H1316 C1294 0.930 . S
H1317 C1295 0.931 . S
H1318 C1297 0.934 . S
H1319 C1298 0.930 . S
Ho1320 C1323 2.811 . S
Ho1320 O1340 2.322 . S
Ho1320 O1342 2.378 . S
Ho1320 O1343 2.524 . S
Ho1320 O1344 2.381 . S
Ho1320 O1345 2.669 . S
Ho1320 O1347 2.346 . S
Ho1320 O1351 2.305 . S
Ho1321 C1332 2.811 . S
Ho1321 O1341 2.346 . S
Ho1321 O1345 2.305 . S
Ho1321 O1346 2.322 . S
Ho1321 O1348 2.378 . S
Ho1321 O1349 2.524 . S
Ho1321 O1350 2.381 . S
Ho1321 O1351 2.669 . S
C1322 O1340 1.259 . S
C1322 O1341 1.268 . S
C1323 Ho1320 2.811 . S
C1323 C1324 1.488 . S
C1323 O1342 1.215 . S
C1323 O1343 1.289 . S
C1324 C1323 1.488 . S
C1324 C1325 1.348 . S
C1324 C1329 1.413 . S
C1325 C1324 1.348 . S
C1325 C1326 1.442 . S
C1325 H1352 0.930 . S
C1326 C1325 1.442 . S
C1326 C1327 1.381 . S
C1326 H1353 0.931 . S
C1327 C1326 1.381 . S
C1327 C1328 1.321 . S
C1328 C1327 1.321 . S
C1328 C1329 1.403 . S
C1328 H1354 0.934 . S
C1329 C1324 1.413 . S
C1329 C1328 1.403 . S
C1329 H1355 0.930 . S
C1330 O1344 1.275 . S
C1330 O1345 1.256 . S
C1331 O1346 1.259 . S
C1331 O1347 1.268 . S
C1332 Ho1321 2.811 . S
C1332 C1333 1.488 . S
C1332 O1348 1.215 . S
C1332 O1349 1.289 . S
C1333 C1332 1.488 . S
C1333 C1334 1.348 . S
C1333 C1338 1.413 . S
C1334 C1333 1.348 . S
C1334 C1335 1.442 . S
C1334 H1356 0.930 . S
C1335 C1334 1.442 . S
C1335 C1336 1.381 . S
C1335 H1357 0.931 . S
C1336 C1335 1.381 . S
C1336 C1337 1.321 . S
C1337 C1336 1.321 . S
C1337 C1338 1.403 . S
C1337 H1358 0.934 . S
C1338 C1333 1.413 . S
C1338 C1337 1.403 . S
C1338 H1359 0.930 . S
C1339 O1350 1.275 . S
C1339 O1351 1.256 . S
O1340 Ho1320 2.322 . S
O1340 C1322 1.259 . S
O1341 Ho1321 2.346 . S
O1341 C1322 1.268 . S
O1342 Ho1320 2.378 . S
O1342 C1323 1.215 . S
O1343 Ho1320 2.524 . S
O1343 C1323 1.289 . S
O1344 Ho1320 2.381 . S
O1344 C1330 1.275 . S
O1345 Ho1320 2.669 . S
O1345 Ho1321 2.305 . S
O1345 C1330 1.256 . S
O1346 Ho1321 2.322 . S
O1346 C1331 1.259 . S
O1347 Ho1320 2.346 . S
O1347 C1331 1.268 . S
O1348 Ho1321 2.378 . S
O1348 C1332 1.215 . S
O1349 Ho1321 2.524 . S
O1349 C1332 1.289 . S
O1350 Ho1321 2.381 . S
O1350 C1339 1.275 . S
O1351 Ho1320 2.305 . S
O1351 Ho1321 2.669 . S
O1351 C1339 1.256 . S
H1352 C1325 0.930 . S
H1353 C1326 0.931 . S
H1354 C1328 0.934 . S
H1355 C1329 0.930 . S
H1356 C1334 0.930 . S
H1357 C1335 0.931 . S
H1358 C1337 0.934 . S
H1359 C1338 0.930 . S
Ho1360 C1363 2.811 . S
Ho1360 O1380 2.322 . S
Ho1360 O1382 2.378 . S
Ho1360 O1383 2.524 . S
Ho1360 O1384 2.381 . S
Ho1360 O1385 2.669 . S
Ho1360 O1387 2.346 . S
Ho1360 O1391 2.305 . S
Ho1361 C1372 2.811 . S
Ho1361 O1381 2.346 . S
Ho1361 O1385 2.305 . S
Ho1361 O1386 2.322 . S
Ho1361 O1388 2.378 . S
Ho1361 O1389 2.524 . S
Ho1361 O1390 2.381 . S
Ho1361 O1391 2.669 . S
C1362 O1380 1.259 . S
C1362 O1381 1.268 . S
C1363 Ho1360 2.811 . S
C1363 C1364 1.488 . S
C1363 O1382 1.215 . S
C1363 O1383 1.289 . S
C1364 C1363 1.488 . S
C1364 C1365 1.348 . S
C1364 C1369 1.413 . S
C1365 C1364 1.348 . S
C1365 C1366 1.442 . S
C1365 H1392 0.930 . S
C1366 C1365 1.442 . S
C1366 C1367 1.381 . S
C1366 H1393 0.931 . S
C1367 C1366 1.381 . S
C1367 C1368 1.321 . S
C1368 C1367 1.321 . S
C1368 C1369 1.403 . S
C1368 H1394 0.934 . S
C1369 C1364 1.413 . S
C1369 C1368 1.403 . S
C1369 H1395 0.930 . S
C1370 O1384 1.275 . S
C1370 O1385 1.256 . S
C1371 O1386 1.259 . S
C1371 O1387 1.268 . S
C1372 Ho1361 2.811 . S
C1372 C1373 1.488 . S
C1372 O1388 1.215 . S
C1372 O1389 1.289 . S
C1373 C1372 1.488 . S
C1373 C1374 1.348 . S
C1373 C1378 1.413 . S
C1374 C1373 1.348 . S
C1374 C1375 1.442 . S
C1374 H1396 0.930 . S
C1375 C1374 1.442 . S
C1375 C1376 1.381 . S
C1375 H1397 0.931 . S
C1376 C1375 1.381 . S
C1376 C1377 1.321 . S
C1377 C1376 1.321 . S
C1377 C1378 1.403 . S
C1377 H1398 0.934 . S
C1378 C1373 1.413 . S
C1378 C1377 1.403 . S
C1378 H1399 0.930 . S
C1379 O1390 1.275 . S
C1379 O1391 1.256 . S
O1380 Ho1360 2.322 . S
O1380 C1362 1.259 . S
O1381 Ho1361 2.346 . S
O1381 C1362 1.268 . S
O1382 Ho1360 2.378 . S
O1382 C1363 1.215 . S
O1383 Ho1360 2.524 . S
O1383 C1363 1.289 . S
O1384 Ho1360 2.381 . S
O1384 C1370 1.275 . S
O1385 Ho1360 2.669 . S
O1385 Ho1361 2.305 . S
O1385 C1370 1.256 . S
O1386 Ho1361 2.322 . S
O1386 C1371 1.259 . S
O1387 Ho1360 2.346 . S
O1387 C1371 1.268 . S
O1388 Ho1361 2.378 . S
O1388 C1372 1.215 . S
O1389 Ho1361 2.524 . S
O1389 C1372 1.289 . S
O1390 Ho1361 2.381 . S
O1390 C1379 1.275 . S
O1391 Ho1360 2.305 . S
O1391 Ho1361 2.669 . S
O1391 C1379 1.256 . S
H1392 C1365 0.930 . S
H1393 C1366 0.931 . S
H1394 C1368 0.934 . S
H1395 C1369 0.930 . S
H1396 C1374 0.930 . S
H1397 C1375 0.931 . S
H1398 C1377 0.934 . S
H1399 C1378 0.930 . S
Ho1400 C1403 2.811 . S
Ho1400 O1420 2.322 . S
Ho1400 O1422 2.378 . S
Ho1400 O1423 2.524 . S
Ho1400 O1424 2.381 . S
Ho1400 O1425 2.669 . S
Ho1400 O1427 2.346 . S
Ho1400 O1431 2.305 . S
Ho1401 C1412 2.811 . S
Ho1401 O1421 2.346 . S
Ho1401 O1425 2.305 . S
Ho1401 O1426 2.322 . S
Ho1401 O1428 2.378 . S
Ho1401 O1429 2.524 . S
Ho1401 O1430 2.381 . S
Ho1401 O1431 2.669 . S
C1402 O1420 1.259 . S
C1402 O1421 1.268 . S
C1403 Ho1400 2.811 . S
C1403 C1404 1.488 . S
C1403 O1422 1.215 . S
C1403 O1423 1.289 . S
C1404 C1403 1.488 . S
C1404 C1405 1.348 . S
C1404 C1409 1.413 . S
C1405 C1404 1.348 . S
C1405 C1406 1.442 . S
C1405 H1432 0.930 . S
C1406 C1405 1.442 . S
C1406 C1407 1.381 . S
C1406 H1433 0.931 . S
C1407 C1406 1.381 . S
C1407 C1408 1.321 . S
C1408 C1407 1.321 . S
C1408 C1409 1.403 . S
C1408 H1434 0.934 . S
C1409 C1404 1.413 . S
C1409 C1408 1.403 . S
C1409 H1435 0.930 . S
C1410 O1424 1.275 . S
C1410 O1425 1.256 . S
C1411 O1426 1.259 . S
C1411 O1427 1.268 . S
C1412 Ho1401 2.811 . S
C1412 C1413 1.488 1_655 S
C1412 O1428 1.215 . S
C1412 O1429 1.289 . S
C1413 C1412 1.488 1_455 S
C1413 C1414 1.348 . S
C1413 C1418 1.413 . S
C1414 C1413 1.348 . S
C1414 C1415 1.442 . S
C1414 H1436 0.930 . S
C1415 C1414 1.442 . S
C1415 C1416 1.381 . S
C1415 H1437 0.931 . S
C1416 C1415 1.381 . S
C1416 C1417 1.321 . S
C1417 C1416 1.321 . S
C1417 C1418 1.403 . S
C1417 H1438 0.934 . S
C1418 C1413 1.413 . S
C1418 C1417 1.403 . S
C1418 H1439 0.930 . S
C1419 O1430 1.275 . S
C1419 O1431 1.256 . S
O1420 Ho1400 2.322 . S
O1420 C1402 1.259 . S
O1421 Ho1401 2.346 . S
O1421 C1402 1.268 . S
O1422 Ho1400 2.378 . S
O1422 C1403 1.215 . S
O1423 Ho1400 2.524 . S
O1423 C1403 1.289 . S
O1424 Ho1400 2.381 . S
O1424 C1410 1.275 . S
O1425 Ho1400 2.669 . S
O1425 Ho1401 2.305 . S
O1425 C1410 1.256 . S
O1426 Ho1401 2.322 . S
O1426 C1411 1.259 . S
O1427 Ho1400 2.346 . S
O1427 C1411 1.268 . S
O1428 Ho1401 2.378 . S
O1428 C1412 1.215 . S
O1429 Ho1401 2.524 . S
O1429 C1412 1.289 . S
O1430 Ho1401 2.381 . S
O1430 C1419 1.275 . S
O1431 Ho1400 2.305 . S
O1431 Ho1401 2.669 . S
O1431 C1419 1.256 . S
H1432 C1405 0.930 . S
H1433 C1406 0.931 . S
H1434 C1408 0.934 . S
H1435 C1409 0.930 . S
H1436 C1414 0.930 . S
H1437 C1415 0.931 . S
H1438 C1417 0.934 . S
H1439 C1418 0.930 . S
C1440 C1441 1.349 . S
C1440 C1442 1.327 . S
C1440 H1465 0.950 . S
C1441 C1440 1.349 . S
C1441 C1457 1.349 . S
C1442 C1440 1.327 . S
C1442 C1461 1.429 . S
C1442 H1466 0.950 . S
C1443 C1460 1.574 . S
C1443 C1462 1.368 . S
C1443 H1467 0.949 . S
H1444 C1448 0.949 . S
C1445 C1446 1.349 . S
C1445 C1447 1.327 . S
C1445 H1468 0.950 . S
C1446 C1445 1.349 . S
C1446 C1458 1.349 . S
C1447 C1445 1.327 . S
C1447 C1463 1.429 . S
C1447 H1469 0.950 . S
C1448 H1444 0.949 . S
C1448 C1456 1.574 . S
C1448 C1464 1.368 . S
H1449 C1457 0.950 . S
H1450 C1455 0.950 . S
H1451 C1456 0.949 . S
H1452 C1458 0.950 . S
H1453 C1459 0.950 . S
H1454 C1460 0.949 . S
C1455 H1450 0.950 . S
C1455 C1457 1.327 . S
C1455 C1461 1.429 . S
C1456 C1448 1.574 . S
C1456 H1451 0.949 . S
C1456 C1462 1.368 . S
C1457 C1441 1.349 . S
C1457 H1449 0.950 . S
C1457 C1455 1.327 . S
C1458 C1446 1.349 . S
C1458 H1452 0.950 . S
C1458 C1459 1.327 . S
C1459 H1453 0.950 . S
C1459 C1458 1.327 . S
C1459 C1463 1.429 . S
C1460 C1443 1.574 . S
C1460 H1454 0.949 . S
C1460 C1464 1.368 . S
C1461 C1442 1.429 . S
C1461 C1455 1.429 . S
C1461 C1462 1.523 . S
C1462 C1443 1.368 . S
C1462 C1456 1.368 . S
C1462 C1461 1.523 . S
C1463 C1447 1.429 . S
C1463 C1459 1.429 . S
C1463 C1464 1.523 . S
C1464 C1448 1.368 . S
C1464 C1460 1.368 . S
C1464 C1463 1.523 . S
H1465 C1440 0.950 . S
H1466 C1442 0.950 . S
H1467 C1443 0.949 . S
H1468 C1445 0.950 . S
H1469 C1447 0.950 . S
C1470 C1471 1.349 . S
C1470 C1472 1.327 . S
C1470 H1495 0.950 . S
C1471 C1470 1.349 . S
C1471 C1487 1.349 . S
C1472 C1470 1.327 . S
C1472 C1491 1.429 . S
C1472 H1496 0.950 . S
C1473 C1490 1.574 . S
C1473 C1492 1.368 . S
C1473 H1497 0.949 . S
H1474 C1478 0.949 . S
C1475 C1476 1.349 . S
C1475 C1477 1.327 . S
C1475 H1498 0.950 . S
C1476 C1475 1.349 . S
C1476 C1488 1.349 . S
C1477 C1475 1.327 . S
C1477 C1493 1.429 . S
C1477 H1499 0.950 . S
C1478 H1474 0.949 . S
C1478 C1486 1.574 . S
C1478 C1494 1.368 . S
H1479 C1487 0.950 . S
H1480 C1485 0.950 . S
H1481 C1486 0.949 . S
H1482 C1488 0.950 1_455 S
H1483 C1489 0.950 . S
H1484 C1490 0.949 . S
C1485 H1480 0.950 . S
C1485 C1487 1.327 . S
C1485 C1491 1.429 . S
C1486 C1478 1.574 . S
C1486 H1481 0.949 . S
C1486 C1492 1.368 . S
C1487 C1471 1.349 . S
C1487 H1479 0.950 . S
C1487 C1485 1.327 . S
C1488 C1476 1.349 . S
C1488 H1482 0.950 1_655 S
C1488 C1489 1.327 . S
C1489 H1483 0.950 . S
C1489 C1488 1.327 . S
C1489 C1493 1.429 . S
C1490 C1473 1.574 . S
C1490 H1484 0.949 . S
C1490 C1494 1.368 . S
C1491 C1472 1.429 . S
C1491 C1485 1.429 . S
C1491 C1492 1.523 . S
C1492 C1473 1.368 . S
C1492 C1486 1.368 . S
C1492 C1491 1.523 . S
C1493 C1477 1.429 . S
C1493 C1489 1.429 . S
C1493 C1494 1.523 . S
C1494 C1478 1.368 . S
C1494 C1490 1.368 . S
C1494 C1493 1.523 . S
H1495 C1470 0.950 . S
H1496 C1472 0.950 . S
H1497 C1473 0.949 . S
H1498 C1475 0.950 . S
H1499 C1477 0.950 . S
C1500 C1501 1.349 . S
C1500 C1502 1.327 . S
C1500 H1525 0.950 . S
C1501 C1500 1.349 . S
C1501 C1517 1.349 . S
C1502 C1500 1.327 . S
C1502 C1521 1.429 . S
C1502 H1526 0.950 . S
C1503 C1520 1.574 . S
C1503 C1522 1.368 . S
C1503 H1527 0.949 . S
H1504 C1508 0.949 . S
C1505 C1506 1.349 . S
C1505 C1507 1.327 . S
C1505 H1528 0.950 . S
C1506 C1505 1.349 . S
C1506 C1518 1.349 . S
C1507 C1505 1.327 . S
C1507 C1523 1.429 . S
C1507 H1529 0.950 . S
C1508 H1504 0.949 . S
C1508 C1516 1.574 . S
C1508 C1524 1.368 . S
H1509 C1517 0.950 . S
H1510 C1515 0.950 . S
H1511 C1516 0.949 . S
H1512 C1518 0.950 . S
H1513 C1519 0.950 . S
H1514 C1520 0.949 . S
C1515 H1510 0.950 . S
C1515 C1517 1.327 . S
C1515 C1521 1.429 . S
C1516 C1508 1.574 . S
C1516 H1511 0.949 . S
C1516 C1522 1.368 . S
C1517 C1501 1.349 . S
C1517 H1509 0.950 . S
C1517 C1515 1.327 . S
C1518 C1506 1.349 . S
C1518 H1512 0.950 . S
C1518 C1519 1.327 . S
C1519 H1513 0.950 . S
C1519 C1518 1.327 . S
C1519 C1523 1.429 . S
C1520 C1503 1.574 . S
C1520 H1514 0.949 . S
C1520 C1524 1.368 . S
C1521 C1502 1.429 . S
C1521 C1515 1.429 . S
C1521 C1522 1.523 . S
C1522 C1503 1.368 . S
C1522 C1516 1.368 . S
C1522 C1521 1.523 . S
C1523 C1507 1.429 . S
C1523 C1519 1.429 . S
C1523 C1524 1.523 . S
C1524 C1508 1.368 . S
C1524 C1520 1.368 . S
C1524 C1523 1.523 . S
H1525 C1500 0.950 . S
H1526 C1502 0.950 . S
H1527 C1503 0.949 . S
H1528 C1505 0.950 . S
H1529 C1507 0.950 . S
C1530 C1531 1.349 . S
C1530 C1532 1.327 . S
C1530 H1555 0.950 . S
C1531 C1530 1.349 . S
C1531 C1547 1.349 . S
C1532 C1530 1.327 . S
C1532 C1551 1.429 . S
C1532 H1556 0.950 . S
C1533 C1550 1.574 . S
C1533 C1552 1.368 . S
C1533 H1557 0.949 . S
H1534 C1538 0.949 . S
C1535 C1536 1.349 . S
C1535 C1537 1.327 . S
C1535 H1558 0.950 . S
C1536 C1535 1.349 . S
C1536 C1548 1.349 . S
C1537 C1535 1.327 . S
C1537 C1553 1.429 . S
C1537 H1559 0.950 . S
C1538 H1534 0.949 . S
C1538 C1546 1.574 . S
C1538 C1554 1.368 . S
H1539 C1547 0.950 . S
H1540 C1545 0.950 . S
H1541 C1546 0.949 . S
H1542 C1548 0.950 . S
H1543 C1549 0.950 . S
H1544 C1550 0.949 . S
C1545 H1540 0.950 . S
C1545 C1547 1.327 . S
C1545 C1551 1.429 . S
C1546 C1538 1.574 . S
C1546 H1541 0.949 . S
C1546 C1552 1.368 . S
C1547 C1531 1.349 . S
C1547 H1539 0.950 . S
C1547 C1545 1.327 . S
C1548 C1536 1.349 . S
C1548 H1542 0.950 . S
C1548 C1549 1.327 . S
C1549 H1543 0.950 . S
C1549 C1548 1.327 . S
C1549 C1553 1.429 . S
C1550 C1533 1.574 . S
C1550 H1544 0.949 . S
C1550 C1554 1.368 . S
C1551 C1532 1.429 . S
C1551 C1545 1.429 . S
C1551 C1552 1.523 . S
C1552 C1533 1.368 . S
C1552 C1546 1.368 . S
C1552 C1551 1.523 . S
C1553 C1537 1.429 . S
C1553 C1549 1.429 . S
C1553 C1554 1.523 . S
C1554 C1538 1.368 . S
C1554 C1550 1.368 . S
C1554 C1553 1.523 . S
H1555 C1530 0.950 . S
H1556 C1532 0.950 . S
H1557 C1533 0.949 . S
H1558 C1535 0.950 . S
H1559 C1537 0.950 . S
C1560 C1561 1.349 . S
C1560 C1562 1.327 . S
C1560 H1585 0.950 . S
C1561 C1560 1.349 . S
C1561 C1577 1.349 . S
C1562 C1560 1.327 . S
C1562 C1581 1.429 . S
C1562 H1586 0.950 . S
C1563 C1580 1.574 . S
C1563 C1582 1.368 . S
C1563 H1587 0.949 . S
H1564 C1568 0.949 . S
C1565 C1566 1.349 . S
C1565 C1567 1.327 . S
C1565 H1588 0.950 . S
C1566 C1565 1.349 . S
C1566 C1578 1.349 . S
C1567 C1565 1.327 . S
C1567 C1583 1.429 . S
C1567 H1589 0.950 . S
C1568 H1564 0.949 . S
C1568 C1576 1.574 . S
C1568 C1584 1.368 . S
H1569 C1577 0.950 . S
H1570 C1575 0.950 . S
H1571 C1576 0.949 . S
H1572 C1578 0.950 . S
H1573 C1579 0.950 . S
H1574 C1580 0.949 . S
C1575 H1570 0.950 . S
C1575 C1577 1.327 . S
C1575 C1581 1.429 . S
C1576 C1568 1.574 . S
C1576 H1571 0.949 . S
C1576 C1582 1.368 . S
C1577 C1561 1.349 . S
C1577 H1569 0.950 . S
C1577 C1575 1.327 . S
C1578 C1566 1.349 . S
C1578 H1572 0.950 . S
C1578 C1579 1.327 . S
C1579 H1573 0.950 . S
C1579 C1578 1.327 . S
C1579 C1583 1.429 . S
C1580 C1563 1.574 . S
C1580 H1574 0.949 . S
C1580 C1584 1.368 . S
C1581 C1562 1.429 . S
C1581 C1575 1.429 . S
C1581 C1582 1.523 . S
C1582 C1563 1.368 . S
C1582 C1576 1.368 . S
C1582 C1581 1.523 . S
C1583 C1567 1.429 . S
C1583 C1579 1.429 . S
C1583 C1584 1.523 . S
C1584 C1568 1.368 . S
C1584 C1580 1.368 . S
C1584 C1583 1.523 . S
H1585 C1560 0.950 . S
H1586 C1562 0.950 . S
H1587 C1563 0.949 . S
H1588 C1565 0.950 . S
H1589 C1567 0.950 . S
C1590 C1591 1.349 . S
C1590 C1592 1.327 . S
C1590 H1615 0.950 . S
C1591 C1590 1.349 . S
C1591 C1607 1.349 . S
C1592 C1590 1.327 . S
C1592 C1611 1.429 . S
C1592 H1616 0.950 . S
C1593 C1610 1.574 . S
C1593 C1612 1.368 . S
C1593 H1617 0.949 . S
H1594 C1598 0.949 . S
C1595 C1596 1.349 1_545 S
C1595 C1597 1.327 1_545 S
C1595 H1618 0.950 . S
C1596 C1595 1.349 1_565 S
C1596 C1608 1.349 . S
C1597 C1595 1.327 1_565 S
C1597 C1613 1.428 . S
C1597 H1619 0.951 1_565 S
C1598 H1594 0.949 . S
C1598 C1606 1.574 . S
C1598 C1614 1.368 . S
H1599 C1607 0.950 . S
H1600 C1605 0.950 . S
H1601 C1606 0.949 . S
H1602 C1608 0.950 . S
H1603 C1609 0.950 . S
H1604 C1610 0.949 . S
C1605 H1600 0.950 . S
C1605 C1607 1.327 . S
C1605 C1611 1.429 . S
C1606 C1598 1.574 . S
C1606 H1601 0.949 . S
C1606 C1612 1.368 . S
C1607 C1591 1.349 . S
C1607 H1599 0.950 . S
C1607 C1605 1.327 . S
C1608 C1596 1.349 . S
C1608 H1602 0.950 . S
C1608 C1609 1.327 . S
C1609 H1603 0.950 . S
C1609 C1608 1.327 . S
C1609 C1613 1.429 . S
C1610 C1593 1.574 . S
C1610 H1604 0.949 . S
C1610 C1614 1.368 . S
C1611 C1592 1.429 . S
C1611 C1605 1.429 . S
C1611 C1612 1.523 . S
C1612 C1593 1.368 . S
C1612 C1606 1.368 . S
C1612 C1611 1.523 . S
C1613 C1597 1.428 . S
C1613 C1609 1.429 . S
C1613 C1614 1.523 . S
C1614 C1598 1.368 . S
C1614 C1610 1.368 . S
C1614 C1613 1.523 . S
H1615 C1590 0.950 . S
H1616 C1592 0.950 . S
H1617 C1593 0.949 . S
H1618 C1595 0.950 . S
H1619 C1597 0.951 1_545 S
C1620 C1621 1.349 . S
C1620 C1622 1.327 . S
C1620 H1645 0.950 . S
C1621 C1620 1.349 . S
C1621 C1637 1.349 1_565 S
C1622 C1620 1.327 . S
C1622 C1641 1.429 . S
C1622 H1646 0.950 . S
C1623 C1640 1.574 . S
C1623 C1642 1.368 . S
C1623 H1647 0.949 . S
H1624 C1628 0.949 . S
C1625 C1626 1.349 . S
C1625 C1627 1.327 . S
C1625 H1648 0.950 . S
C1626 C1625 1.349 . S
C1626 C1638 1.349 . S
C1627 C1625 1.327 . S
C1627 C1643 1.429 . S
C1627 H1649 0.950 . S
C1628 H1624 0.949 . S
C1628 C1636 1.574 . S
C1628 C1644 1.368 . S
H1629 C1637 0.950 . S
H1630 C1635 0.950 . S
H1631 C1636 0.949 . S
H1632 C1638 0.950 . S
H1633 C1639 0.950 . S
H1634 C1640 0.949 . S
C1635 H1630 0.950 . S
C1635 C1637 1.327 . S
C1635 C1641 1.429 1_545 S
C1636 C1628 1.574 . S
C1636 H1631 0.949 . S
C1636 C1642 1.368 . S
C1637 C1621 1.349 1_545 S
C1637 H1629 0.950 . S
C1637 C1635 1.327 . S
C1638 C1626 1.349 . S
C1638 H1632 0.950 . S
C1638 C1639 1.327 . S
C1639 H1633 0.950 . S
C1639 C1638 1.327 . S
C1639 C1643 1.429 . S
C1640 C1623 1.574 . S
C1640 H1634 0.949 . S
C1640 C1644 1.368 . S
C1641 C1622 1.429 . S
C1641 C1635 1.429 1_565 S
C1641 C1642 1.523 . S
C1642 C1623 1.368 . S
C1642 C1636 1.368 . S
C1642 C1641 1.523 . S
C1643 C1627 1.429 . S
C1643 C1639 1.429 . S
C1643 C1644 1.523 . S
C1644 C1628 1.368 . S
C1644 C1640 1.368 . S
C1644 C1643 1.523 . S
H1645 C1620 0.950 . S
H1646 C1622 0.950 . S
H1647 C1623 0.949 . S
H1648 C1625 0.950 . S
H1649 C1627 0.950 . S
C1650 C1651 1.349 . S
C1650 C1652 1.327 . S
C1650 H1675 0.950 . S
C1651 C1650 1.349 . S
C1651 C1667 1.349 . S
C1652 C1650 1.327 . S
C1652 C1671 1.429 . S
C1652 H1676 0.950 . S
C1653 C1670 1.574 . S
C1653 C1672 1.368 . S
C1653 H1677 0.949 . S
H1654 C1658 0.949 . S
C1655 C1656 1.349 . S
C1655 C1657 1.327 . S
C1655 H1678 0.950 . S
C1656 C1655 1.349 . S
C1656 C1668 1.349 . S
C1657 C1655 1.327 . S
C1657 C1673 1.429 . S
C1657 H1679 0.950 . S
C1658 H1654 0.949 . S
C1658 C1666 1.574 . S
C1658 C1674 1.368 . S
H1659 C1667 0.950 . S
H1660 C1665 0.950 . S
H1661 C1666 0.949 . S
H1662 C1668 0.950 . S
H1663 C1669 0.950 . S
H1664 C1670 0.949 . S
C1665 H1660 0.950 . S
C1665 C1667 1.327 . S
C1665 C1671 1.429 . S
C1666 C1658 1.574 . S
C1666 H1661 0.949 . S
C1666 C1672 1.368 . S
C1667 C1651 1.349 . S
C1667 H1659 0.950 . S
C1667 C1665 1.327 . S
C1668 C1656 1.349 . S
C1668 H1662 0.950 . S
C1668 C1669 1.327 . S
C1669 H1663 0.950 . S
C1669 C1668 1.327 . S
C1669 C1673 1.429 . S
C1670 C1653 1.574 . S
C1670 H1664 0.949 . S
C1670 C1674 1.368 . S
C1671 C1652 1.429 . S
C1671 C1665 1.429 . S
C1671 C1672 1.523 . S
C1672 C1653 1.368 . S
C1672 C1666 1.368 . S
C1672 C1671 1.523 . S
C1673 C1657 1.429 . S
C1673 C1669 1.429 . S
C1673 C1674 1.523 . S
C1674 C1658 1.368 . S
C1674 C1670 1.368 . S
C1674 C1673 1.523 . S
H1675 C1650 0.950 . S
H1676 C1652 0.950 . S
H1677 C1653 0.949 . S
H1678 C1655 0.950 . S
H1679 C1657 0.950 . S
C1680 C1681 1.349 . S
C1680 C1682 1.327 . S
C1680 H1705 0.950 . S
C1681 C1680 1.349 . S
C1681 C1697 1.349 . S
C1682 C1680 1.327 . S
C1682 C1701 1.429 . S
C1682 H1706 0.950 . S
C1683 C1700 1.574 . S
C1683 C1702 1.368 . S
C1683 H1707 0.949 . S
H1684 C1688 0.949 . S
C1685 C1686 1.349 . S
C1685 C1687 1.327 . S
C1685 H1708 0.950 . S
C1686 C1685 1.349 . S
C1686 C1698 1.349 . S
C1687 C1685 1.327 . S
C1687 C1703 1.429 . S
C1687 H1709 0.950 . S
C1688 H1684 0.949 . S
C1688 C1696 1.574 . S
C1688 C1704 1.368 . S
H1689 C1697 0.950 . S
H1690 C1695 0.950 . S
H1691 C1696 0.949 . S
H1692 C1698 0.950 . S
H1693 C1699 0.950 . S
H1694 C1700 0.949 . S
C1695 H1690 0.950 . S
C1695 C1697 1.327 . S
C1695 C1701 1.429 . S
C1696 C1688 1.574 . S
C1696 H1691 0.949 . S
C1696 C1702 1.368 . S
C1697 C1681 1.349 . S
C1697 H1689 0.950 . S
C1697 C1695 1.327 . S
C1698 C1686 1.349 . S
C1698 H1692 0.950 . S
C1698 C1699 1.327 . S
C1699 H1693 0.950 . S
C1699 C1698 1.327 . S
C1699 C1703 1.429 . S
C1700 C1683 1.574 . S
C1700 H1694 0.949 . S
C1700 C1704 1.368 . S
C1701 C1682 1.429 . S
C1701 C1695 1.429 . S
C1701 C1702 1.523 . S
C1702 C1683 1.368 . S
C1702 C1696 1.368 . S
C1702 C1701 1.523 . S
C1703 C1687 1.429 . S
C1703 C1699 1.429 . S
C1703 C1704 1.523 . S
C1704 C1688 1.368 . S
C1704 C1700 1.368 . S
C1704 C1703 1.523 . S
H1705 C1680 0.950 . S
H1706 C1682 0.950 . S
H1707 C1683 0.949 . S
H1708 C1685 0.950 . S
H1709 C1687 0.950 . S
C1710 C1711 1.349 . S
C1710 C1712 1.327 . S
C1710 H1735 0.950 . S
C1711 C1710 1.349 . S
C1711 C1727 1.349 . S
C1712 C1710 1.327 . S
C1712 C1731 1.429 . S
C1712 H1736 0.950 . S
C1713 C1730 1.574 . S
C1713 C1732 1.368 . S
C1713 H1737 0.949 . S
H1714 C1718 0.949 . S
C1715 C1716 1.349 . S
C1715 C1717 1.327 . S
C1715 H1738 0.950 . S
C1716 C1715 1.349 . S
C1716 C1728 1.349 . S
C1717 C1715 1.327 . S
C1717 C1733 1.429 . S
C1717 H1739 0.950 . S
C1718 H1714 0.949 . S
C1718 C1726 1.574 . S
C1718 C1734 1.368 . S
H1719 C1727 0.950 . S
H1720 C1725 0.950 . S
H1721 C1726 0.949 . S
H1722 C1728 0.950 . S
H1723 C1729 0.950 . S
H1724 C1730 0.949 . S
C1725 H1720 0.950 . S
C1725 C1727 1.327 . S
C1725 C1731 1.429 . S
C1726 C1718 1.574 . S
C1726 H1721 0.949 . S
C1726 C1732 1.368 . S
C1727 C1711 1.349 . S
C1727 H1719 0.950 . S
C1727 C1725 1.327 . S
C1728 C1716 1.349 . S
C1728 H1722 0.950 . S
C1728 C1729 1.327 . S
C1729 H1723 0.950 . S
C1729 C1728 1.327 . S
C1729 C1733 1.429 . S
C1730 C1713 1.574 . S
C1730 H1724 0.949 . S
C1730 C1734 1.368 . S
C1731 C1712 1.429 . S
C1731 C1725 1.429 . S
C1731 C1732 1.523 . S
C1732 C1713 1.368 . S
C1732 C1726 1.368 . S
C1732 C1731 1.523 . S
C1733 C1717 1.429 . S
C1733 C1729 1.429 . S
C1733 C1734 1.523 . S
C1734 C1718 1.368 . S
C1734 C1730 1.368 . S
C1734 C1733 1.523 . S
H1735 C1710 0.950 . S
H1736 C1712 0.950 . S
H1737 C1713 0.949 . S
H1738 C1715 0.950 . S
H1739 C1717 0.950 . S
C1740 C1741 1.349 . S
C1740 C1742 1.327 . S
C1740 H1765 0.950 . S
C1741 C1740 1.349 . S
C1741 C1757 1.349 . S
C1742 C1740 1.327 . S
C1742 C1761 1.429 . S
C1742 H1766 0.950 . S
C1743 C1760 1.574 . S
C1743 C1762 1.368 . S
C1743 H1767 0.949 . S
H1744 C1748 0.949 . S
C1745 C1746 1.349 . S
C1745 C1747 1.327 . S
C1745 H1768 0.950 . S
C1746 C1745 1.349 . S
C1746 C1758 1.349 . S
C1747 C1745 1.327 . S
C1747 C1763 1.429 . S
C1747 H1769 0.950 . S
C1748 H1744 0.949 . S
C1748 C1756 1.574 . S
C1748 C1764 1.368 . S
H1749 C1757 0.950 . S
H1750 C1755 0.950 . S
H1751 C1756 0.949 . S
H1752 C1758 0.950 . S
H1753 C1759 0.950 . S
H1754 C1760 0.949 . S
C1755 H1750 0.950 . S
C1755 C1757 1.327 . S
C1755 C1761 1.429 . S
C1756 C1748 1.574 . S
C1756 H1751 0.949 . S
C1756 C1762 1.368 . S
C1757 C1741 1.349 . S
C1757 H1749 0.950 . S
C1757 C1755 1.327 . S
C1758 C1746 1.349 . S
C1758 H1752 0.950 . S
C1758 C1759 1.327 . S
C1759 H1753 0.950 . S
C1759 C1758 1.327 . S
C1759 C1763 1.429 . S
C1760 C1743 1.574 . S
C1760 H1754 0.949 . S
C1760 C1764 1.368 . S
C1761 C1742 1.429 . S
C1761 C1755 1.429 . S
C1761 C1762 1.523 . S
C1762 C1743 1.368 . S
C1762 C1756 1.368 . S
C1762 C1761 1.523 . S
C1763 C1747 1.429 . S
C1763 C1759 1.429 . S
C1763 C1764 1.523 . S
C1764 C1748 1.368 . S
C1764 C1760 1.368 . S
C1764 C1763 1.523 . S
H1765 C1740 0.950 . S
H1766 C1742 0.950 . S
H1767 C1743 0.949 . S
H1768 C1745 0.950 . S
H1769 C1747 0.950 . S
C1770 C1771 1.349 . S
C1770 C1772 1.327 . S
C1770 H1795 0.950 . S
C1771 C1770 1.349 . S
C1771 C1787 1.349 . S
C1772 C1770 1.327 . S
C1772 C1791 1.429 . S
C1772 H1796 0.950 . S
C1773 C1790 1.574 . S
C1773 C1792 1.368 . S
C1773 H1797 0.949 . S
H1774 C1778 0.949 . S
C1775 C1776 1.349 . S
C1775 C1777 1.327 . S
C1775 H1798 0.950 . S
C1776 C1775 1.349 . S
C1776 C1788 1.349 . S
C1777 C1775 1.327 . S
C1777 C1793 1.429 . S
C1777 H1799 0.950 . S
C1778 H1774 0.949 . S
C1778 C1786 1.574 . S
C1778 C1794 1.368 . S
H1779 C1787 0.950 . S
H1780 C1785 0.950 . S
H1781 C1786 0.949 . S
H1782 C1788 0.950 . S
H1783 C1789 0.950 . S
H1784 C1790 0.949 . S
C1785 H1780 0.950 . S
C1785 C1787 1.327 . S
C1785 C1791 1.429 . S
C1786 C1778 1.574 . S
C1786 H1781 0.949 . S
C1786 C1792 1.368 . S
C1787 C1771 1.349 . S
C1787 H1779 0.950 . S
C1787 C1785 1.327 . S
C1788 C1776 1.349 . S
C1788 H1782 0.950 . S
C1788 C1789 1.327 . S
C1789 H1783 0.950 . S
C1789 C1788 1.327 . S
C1789 C1793 1.429 . S
C1790 C1773 1.574 . S
C1790 H1784 0.949 . S
C1790 C1794 1.368 . S
C1791 C1772 1.429 . S
C1791 C1785 1.429 . S
C1791 C1792 1.523 . S
C1792 C1773 1.368 . S
C1792 C1786 1.368 . S
C1792 C1791 1.523 . S
C1793 C1777 1.429 . S
C1793 C1789 1.429 . S
C1793 C1794 1.523 . S
C1794 C1778 1.368 . S
C1794 C1790 1.368 . S
C1794 C1793 1.523 . S
H1795 C1770 0.950 . S
H1796 C1772 0.950 . S
H1797 C1773 0.949 . S
H1798 C1775 0.950 . S
H1799 C1777 0.950 . S
C1800 C1801 1.349 . S
C1800 C1802 1.327 . S
C1800 H1825 0.950 . S
C1801 C1800 1.349 . S
C1801 C1817 1.349 . S
C1802 C1800 1.327 . S
C1802 C1821 1.429 . S
C1802 H1826 0.950 . S
C1803 C1820 1.574 . S
C1803 C1822 1.368 . S
C1803 H1827 0.949 . S
H1804 C1808 0.949 . S
C1805 C1806 1.349 . S
C1805 C1807 1.327 . S
C1805 H1828 0.950 . S
C1806 C1805 1.349 . S
C1806 C1818 1.349 . S
C1807 C1805 1.327 . S
C1807 C1823 1.429 . S
C1807 H1829 0.950 . S
C1808 H1804 0.949 . S
C1808 C1816 1.574 . S
C1808 C1824 1.368 . S
H1809 C1817 0.950 . S
H1810 C1815 0.950 . S
H1811 C1816 0.949 . S
H1812 C1818 0.950 . S
H1813 C1819 0.950 . S
H1814 C1820 0.949 . S
C1815 H1810 0.950 . S
C1815 C1817 1.327 . S
C1815 C1821 1.429 . S
C1816 C1808 1.574 . S
C1816 H1811 0.949 . S
C1816 C1822 1.368 . S
C1817 C1801 1.349 . S
C1817 H1809 0.950 . S
C1817 C1815 1.327 . S
C1818 C1806 1.349 . S
C1818 H1812 0.950 . S
C1818 C1819 1.327 . S
C1819 H1813 0.950 . S
C1819 C1818 1.327 . S
C1819 C1823 1.429 . S
C1820 C1803 1.574 . S
C1820 H1814 0.949 . S
C1820 C1824 1.368 . S
C1821 C1802 1.429 . S
C1821 C1815 1.429 . S
C1821 C1822 1.523 . S
C1822 C1803 1.368 . S
C1822 C1816 1.368 . S
C1822 C1821 1.523 . S
C1823 C1807 1.429 . S
C1823 C1819 1.429 . S
C1823 C1824 1.523 . S
C1824 C1808 1.368 . S
C1824 C1820 1.368 . S
C1824 C1823 1.523 . S
H1825 C1800 0.950 . S
H1826 C1802 0.950 . S
H1827 C1803 0.949 . S
H1828 C1805 0.950 . S
H1829 C1807 0.950 . S
C1830 C1831 1.349 . S
C1830 C1832 1.327 . S
C1830 H1855 0.950 . S
C1831 C1830 1.349 . S
C1831 C1847 1.349 . S
C1832 C1830 1.327 . S
C1832 C1851 1.429 . S
C1832 H1856 0.950 1_565 S
C1833 C1850 1.545 1_565 S
C1833 C1852 1.349 1_565 S
C1833 H1857 0.993 . S
H1834 C1838 0.949 . S
C1835 C1836 1.349 . S
C1835 C1837 1.327 . S
C1835 H1858 0.950 . S
C1836 C1835 1.349 . S
C1836 C1848 1.349 . S
C1837 C1835 1.327 . S
C1837 C1853 1.429 . S
C1837 H1859 0.950 . S
C1838 H1834 0.949 . S
C1838 C1846 1.574 . S
C1838 C1854 1.368 . S
H1839 C1847 0.950 . S
H1840 C1845 0.950 . S
H1841 C1846 0.949 . S
H1842 C1848 0.950 . S
H1843 C1849 0.950 . S
H1844 C1850 0.949 . S
C1845 H1840 0.950 . S
C1845 C1847 1.327 . S
C1845 C1851 1.429 . S
C1846 C1838 1.574 . S
C1846 H1841 0.949 . S
C1846 C1852 1.368 . S
C1847 C1831 1.349 . S
C1847 H1839 0.950 . S
C1847 C1845 1.327 . S
C1848 C1836 1.349 . S
C1848 H1842 0.950 . S
C1848 C1849 1.327 . S
C1849 H1843 0.950 . S
C1849 C1848 1.327 . S
C1849 C1853 1.429 . S
C1850 C1833 1.545 1_545 S
C1850 H1844 0.949 . S
C1850 C1854 1.368 . S
C1851 C1832 1.429 . S
C1851 C1845 1.429 . S
C1851 C1852 1.523 1_565 S
C1852 C1833 1.349 1_545 S
C1852 C1846 1.368 . S
C1852 C1851 1.523 1_545 S
C1853 C1837 1.429 . S
C1853 C1849 1.429 . S
C1853 C1854 1.523 . S
C1854 C1838 1.368 . S
C1854 C1850 1.368 . S
C1854 C1853 1.523 . S
H1855 C1830 0.950 . S
H1856 C1832 0.950 1_545 S
H1857 C1833 0.993 . S
H1858 C1835 0.950 . S
H1859 C1837 0.950 . S
C1860 C1861 1.349 . S
C1860 C1862 1.327 . S
C1860 H1885 0.950 . S
C1861 C1860 1.349 . S
C1861 C1877 1.349 . S
C1862 C1860 1.327 . S
C1862 C1881 1.429 . S
C1862 H1886 0.950 . S
C1863 C1880 1.574 . S
C1863 C1882 1.368 . S
C1863 H1887 0.949 1_455 S
H1864 C1868 0.949 . S
C1865 C1866 1.349 . S
C1865 C1867 1.327 . S
C1865 H1888 0.950 . S
C1866 C1865 1.349 . S
C1866 C1878 1.349 . S
C1867 C1865 1.327 . S
C1867 C1883 1.429 . S
C1867 H1889 0.950 . S
C1868 H1864 0.949 . S
C1868 C1876 1.574 . S
C1868 C1884 1.368 . S
H1869 C1877 0.950 . S
H1870 C1875 0.950 . S
H1871 C1876 0.949 . S
H1872 C1878 0.950 . S
H1873 C1879 0.950 . S
H1874 C1880 0.949 . S
C1875 H1870 0.950 . S
C1875 C1877 1.327 . S
C1875 C1881 1.429 . S
C1876 C1868 1.574 . S
C1876 H1871 0.949 . S
C1876 C1882 1.368 . S
C1877 C1861 1.349 . S
C1877 H1869 0.950 . S
C1877 C1875 1.327 . S
C1878 C1866 1.349 . S
C1878 H1872 0.950 . S
C1878 C1879 1.327 . S
C1879 H1873 0.950 . S
C1879 C1878 1.327 . S
C1879 C1883 1.429 . S
C1880 C1863 1.574 . S
C1880 H1874 0.949 . S
C1880 C1884 1.368 . S
C1881 C1862 1.429 . S
C1881 C1875 1.429 . S
C1881 C1882 1.523 1_655 S
C1882 C1863 1.368 . S
C1882 C1876 1.368 . S
C1882 C1881 1.523 1_455 S
C1883 C1867 1.429 . S
C1883 C1879 1.429 . S
C1883 C1884 1.523 . S
C1884 C1868 1.368 . S
C1884 C1880 1.368 . S
C1884 C1883 1.523 . S
H1885 C1860 0.950 . S
H1886 C1862 0.950 . S
H1887 C1863 0.949 1_655 S
H1888 C1865 0.950 . S
H1889 C1867 0.950 . S
C1890 C1891 1.349 . S
C1890 C1892 1.327 . S
C1890 H1915 0.950 . S
C1891 C1890 1.349 . S
C1891 C1907 1.349 . S
C1892 C1890 1.327 . S
C1892 C1911 1.429 . S
C1892 H1916 0.950 . S
C1893 C1910 1.574 . S
C1893 C1912 1.368 . S
C1893 H1917 0.949 . S
H1894 C1898 0.949 . S
C1895 C1896 1.349 . S
C1895 C1897 1.327 . S
C1895 H1918 0.950 . S
C1896 C1895 1.349 . S
C1896 C1908 1.349 . S
C1897 C1895 1.327 . S
C1897 C1913 1.429 . S
C1897 H1919 0.950 . S
C1898 H1894 0.949 . S
C1898 C1906 1.574 . S
C1898 C1914 1.368 . S
H1899 C1907 0.950 . S
H1900 C1905 0.950 . S
H1901 C1906 0.949 . S
H1902 C1908 0.950 . S
H1903 C1909 0.950 . S
H1904 C1910 0.949 . S
C1905 H1900 0.950 . S
C1905 C1907 1.327 . S
C1905 C1911 1.429 . S
C1906 C1898 1.574 . S
C1906 H1901 0.949 . S
C1906 C1912 1.368 . S
C1907 C1891 1.349 . S
C1907 H1899 0.950 . S
C1907 C1905 1.327 . S
C1908 C1896 1.349 . S
C1908 H1902 0.950 . S
C1908 C1909 1.327 . S
C1909 H1903 0.950 . S
C1909 C1908 1.327 . S
C1909 C1913 1.429 . S
C1910 C1893 1.574 . S
C1910 H1904 0.949 . S
C1910 C1914 1.368 . S
C1911 C1892 1.429 . S
C1911 C1905 1.429 . S
C1911 C1912 1.523 . S
C1912 C1893 1.368 . S
C1912 C1906 1.368 . S
C1912 C1911 1.523 . S
C1913 C1897 1.429 . S
C1913 C1909 1.429 . S
C1913 C1914 1.523 . S
C1914 C1898 1.368 . S
C1914 C1910 1.368 . S
C1914 C1913 1.523 . S
H1915 C1890 0.950 . S
H1916 C1892 0.950 . S
H1917 C1893 0.949 . S
H1918 C1895 0.950 . S
H1919 C1897 0.950 . S
C1920 C1921 1.349 . S
C1920 C1922 1.327 . S
C1920 H1945 0.950 . S
C1921 C1920 1.349 . S
C1921 C1937 1.349 . S
C1922 C1920 1.327 . S
C1922 C1941 1.429 . S
C1922 H1946 0.950 . S
C1923 C1940 1.574 . S
C1923 C1942 1.368 . S
C1923 H1947 0.949 . S
H1924 C1928 0.949 . S
C1925 C1926 1.349 . S
C1925 C1927 1.327 . S
C1925 H1948 0.950 . S
C1926 C1925 1.349 . S
C1926 C1938 1.349 . S
C1927 C1925 1.327 . S
C1927 C1943 1.429 . S
C1927 H1949 0.950 . S
C1928 H1924 0.949 . S
C1928 C1936 1.574 . S
C1928 C1944 1.368 . S
H1929 C1937 0.950 . S
H1930 C1935 0.950 . S
H1931 C1936 0.949 1_565 S
H1932 C1938 0.950 . S
H1933 C1939 0.950 . S
H1934 C1940 0.949 . S
C1935 H1930 0.950 . S
C1935 C1937 1.327 . S
C1935 C1941 1.429 . S
C1936 C1928 1.574 . S
C1936 H1931 0.949 1_545 S
C1936 C1942 1.368 . S
C1937 C1921 1.349 . S
C1937 H1929 0.950 . S
C1937 C1935 1.327 . S
C1938 C1926 1.349 . S
C1938 H1932 0.950 . S
C1938 C1939 1.327 . S
C1939 H1933 0.950 . S
C1939 C1938 1.327 . S
C1939 C1943 1.429 . S
C1940 C1923 1.574 . S
C1940 H1934 0.949 . S
C1940 C1944 1.368 . S
C1941 C1922 1.429 . S
C1941 C1935 1.429 . S
C1941 C1942 1.523 1_565 S
C1942 C1923 1.368 . S
C1942 C1936 1.368 . S
C1942 C1941 1.523 1_545 S
C1943 C1927 1.429 . S
C1943 C1939 1.429 . S
C1943 C1944 1.523 . S
C1944 C1928 1.368 . S
C1944 C1940 1.368 . S
C1944 C1943 1.523 . S
H1945 C1920 0.950 . S
H1946 C1922 0.950 . S
H1947 C1923 0.949 . S
H1948 C1925 0.950 . S
H1949 C1927 0.950 . S
C1950 C1951 1.349 . S
C1950 C1952 1.327 . S
C1950 H1975 0.950 . S
C1951 C1950 1.349 . S
C1951 C1967 1.349 . S
C1952 C1950 1.327 . S
C1952 C1971 1.429 . S
C1952 H1976 0.950 . S
C1953 C1970 1.574 . S
C1953 C1972 1.368 . S
C1953 H1977 0.949 . S
H1954 C1958 0.949 . S
C1955 C1956 1.349 . S
C1955 C1957 1.327 . S
C1955 H1978 0.950 . S
C1956 C1955 1.349 . S
C1956 C1968 1.349 . S
C1957 C1955 1.327 . S
C1957 C1973 1.429 . S
C1957 H1979 0.950 . S
C1958 H1954 0.949 . S
C1958 C1966 1.574 . S
C1958 C1974 1.368 . S
H1959 C1967 0.950 . S
H1960 C1965 0.950 . S
H1961 C1966 0.949 . S
H1962 C1968 0.950 . S
H1963 C1969 0.950 . S
H1964 C1970 0.949 . S
C1965 H1960 0.950 . S
C1965 C1967 1.327 . S
C1965 C1971 1.429 . S
C1966 C1958 1.574 . S
C1966 H1961 0.949 . S
C1966 C1972 1.368 . S
C1967 C1951 1.349 . S
C1967 H1959 0.950 . S
C1967 C1965 1.327 . S
C1968 C1956 1.349 . S
C1968 H1962 0.950 . S
C1968 C1969 1.327 . S
C1969 H1963 0.950 . S
C1969 C1968 1.327 . S
C1969 C1973 1.429 . S
C1970 C1953 1.574 . S
C1970 H1964 0.949 . S
C1970 C1974 1.368 . S
C1971 C1952 1.429 . S
C1971 C1965 1.429 . S
C1971 C1972 1.523 1_655 S
C1972 C1953 1.368 . S
C1972 C1966 1.368 . S
C1972 C1971 1.523 1_455 S
C1973 C1957 1.429 . S
C1973 C1969 1.429 . S
C1973 C1974 1.523 . S
C1974 C1958 1.368 . S
C1974 C1970 1.368 . S
C1974 C1973 1.523 . S
H1975 C1950 0.950 . S
H1976 C1952 0.950 . S
H1977 C1953 0.949 . S
H1978 C1955 0.950 . S
H1979 C1957 0.950 . S
C1980 C1981 1.349 . S
C1980 C1982 1.327 . S
C1980 H2005 0.950 . S
C1981 C1980 1.349 . S
C1981 C1997 1.349 . S
C1982 C1980 1.327 . S
C1982 C2001 1.429 . S
C1982 H2006 0.950 . S
C1983 C2000 1.574 1_554 S
C1983 C2002 1.368 . S
C1983 H2007 0.949 1_545 S
H1984 C1988 0.949 . S
C1985 C1986 1.349 . S
C1985 C1987 1.327 . S
C1985 H2008 0.950 1_545 S
C1986 C1985 1.349 . S
C1986 C1998 1.349 . S
C1987 C1985 1.327 . S
C1987 C2003 1.429 . S
C1987 H2009 0.950 1_545 S
C1988 H1984 0.949 . S
C1988 C1996 1.574 1_556 S
C1988 C2004 1.368 . S
H1989 C1997 0.950 1_565 S
H1990 C1995 0.950 1_565 S
H1991 C1996 0.949 . S
H1992 C1998 0.950 . S
H1993 C1999 0.950 . S
H1994 C2000 0.949 1_565 S
C1995 H1990 0.950 1_545 S
C1995 C1997 1.327 . S
C1995 C2001 1.429 . S
C1996 C1988 1.574 1_554 S
C1996 H1991 0.949 . S
C1996 C2002 1.368 . S
C1997 C1981 1.349 . S
C1997 H1989 0.950 1_545 S
C1997 C1995 1.327 . S
C1998 C1986 1.349 . S
C1998 H1992 0.950 . S
C1998 C1999 1.327 . S
C1999 H1993 0.950 . S
C1999 C1998 1.327 . S
C1999 C2003 1.429 . S
C2000 C1983 1.574 1_556 S
C2000 H1994 0.949 1_545 S
C2000 C2004 1.368 . S
C2001 C1982 1.429 . S
C2001 C1995 1.429 . S
C2001 C2002 1.523 . S
C2002 C1983 1.368 . S
C2002 C1996 1.368 . S
C2002 C2001 1.523 . S
C2003 C1987 1.429 . S
C2003 C1999 1.429 . S
C2003 C2004 1.523 . S
C2004 C1988 1.368 . S
C2004 C2000 1.368 . S
C2004 C2003 1.523 . S
H2005 C1980 0.950 . S
H2006 C1982 0.950 . S
H2007 C1983 0.949 1_565 S
H2008 C1985 0.950 1_565 S
H2009 C1987 0.950 1_565 S
C2010 C2011 1.349 . S
C2010 C2012 1.327 . S
C2010 H2035 0.950 . S
C2011 C2010 1.349 . S
C2011 C2027 1.349 . S
C2012 C2010 1.327 . S
C2012 C2031 1.429 . S
C2012 H2036 0.950 . S
C2013 C2030 1.574 1_556 S
C2013 C2032 1.368 . S
C2013 H2037 0.949 . S
H2014 C2018 0.949 . S
C2015 C2016 1.349 . S
C2015 C2017 1.327 . S
C2015 H2038 0.950 . S
C2016 C2015 1.349 . S
C2016 C2028 1.349 . S
C2017 C2015 1.327 . S
C2017 C2033 1.429 . S
C2017 H2039 0.950 . S
C2018 H2014 0.949 . S
C2018 C2026 1.574 1_554 S
C2018 C2034 1.368 . S
H2019 C2027 0.950 . S
H2020 C2025 0.950 . S
H2021 C2026 0.949 . S
H2022 C2028 0.950 . S
H2023 C2029 0.950 . S
H2024 C2030 0.949 . S
C2025 H2020 0.950 . S
C2025 C2027 1.327 . S
C2025 C2031 1.429 . S
C2026 C2018 1.574 1_556 S
C2026 H2021 0.949 . S
C2026 C2032 1.368 . S
C2027 C2011 1.349 . S
C2027 H2019 0.950 . S
C2027 C2025 1.327 . S
C2028 C2016 1.349 . S
C2028 H2022 0.950 . S
C2028 C2029 1.327 . S
C2029 H2023 0.950 . S
C2029 C2028 1.327 . S
C2029 C2033 1.429 . S
C2030 C2013 1.574 1_554 S
C2030 H2024 0.949 . S
C2030 C2034 1.368 . S
C2031 C2012 1.429 . S
C2031 C2025 1.429 . S
C2031 C2032 1.523 . S
C2032 C2013 1.368 . S
C2032 C2026 1.368 . S
C2032 C2031 1.523 . S
C2033 C2017 1.429 . S
C2033 C2029 1.429 . S
C2033 C2034 1.523 . S
C2034 C2018 1.368 . S
C2034 C2030 1.368 . S
C2034 C2033 1.523 . S
H2035 C2010 0.950 . S
H2036 C2012 0.950 . S
H2037 C2013 0.949 . S
H2038 C2015 0.950 . S
H2039 C2017 0.950 . S
C2040 C2041 1.349 . S
C2040 C2042 1.327 . S
C2040 H2065 0.950 . S
C2041 C2040 1.349 . S
C2041 C2057 1.349 . S
C2042 C2040 1.327 . S
C2042 C2061 1.429 . S
C2042 H2066 0.950 . S
C2043 C2060 1.574 1_554 S
C2043 C2062 1.368 . S
C2043 H2067 0.949 . S
H2044 C2048 0.949 . S
C2045 C2046 1.349 . S
C2045 C2047 1.327 . S
C2045 H2068 0.950 . S
C2046 C2045 1.349 . S
C2046 C2058 1.349 . S
C2047 C2045 1.327 . S
C2047 C2063 1.429 . S
C2047 H2069 0.950 . S
C2048 H2044 0.949 . S
C2048 C2056 1.574 1_556 S
C2048 C2064 1.368 . S
H2049 C2057 0.950 . S
H2050 C2055 0.950 . S
H2051 C2056 0.949 . S
H2052 C2058 0.950 . S
H2053 C2059 0.950 . S
H2054 C2060 0.949 . S
C2055 H2050 0.950 . S
C2055 C2057 1.327 . S
C2055 C2061 1.429 . S
C2056 C2048 1.574 1_554 S
C2056 H2051 0.949 . S
C2056 C2062 1.368 . S
C2057 C2041 1.349 . S
C2057 H2049 0.950 . S
C2057 C2055 1.327 . S
C2058 C2046 1.349 . S
C2058 H2052 0.950 . S
C2058 C2059 1.327 . S
C2059 H2053 0.950 . S
C2059 C2058 1.327 . S
C2059 C2063 1.429 . S
C2060 C2043 1.574 1_556 S
C2060 H2054 0.949 . S
C2060 C2064 1.368 . S
C2061 C2042 1.429 . S
C2061 C2055 1.429 . S
C2061 C2062 1.523 . S
C2062 C2043 1.368 . S
C2062 C2056 1.368 . S
C2062 C2061 1.523 . S
C2063 C2047 1.429 . S
C2063 C2059 1.429 . S
C2063 C2064 1.523 . S
C2064 C2048 1.368 . S
C2064 C2060 1.368 . S
C2064 C2063 1.523 . S
H2065 C2040 0.950 . S
H2066 C2042 0.950 . S
H2067 C2043 0.949 . S
H2068 C2045 0.950 . S
H2069 C2047 0.950 . S
C2070 C2071 1.349 . S
C2070 C2072 1.327 . S
C2070 H2095 0.950 . S
C2071 C2070 1.349 . S
C2071 C2087 1.349 . S
C2072 C2070 1.327 . S
C2072 C2091 1.429 . S
C2072 H2096 0.950 . S
C2073 C2090 1.574 . S
C2073 C2092 1.368 . S
C2073 H2097 0.949 1_455 S
H2074 C2078 0.949 . S
C2075 C2076 1.349 . S
C2075 C2077 1.327 . S
C2075 H2098 0.950 1_455 S
C2076 C2075 1.349 . S
C2076 C2088 1.349 . S
C2077 C2075 1.327 . S
C2077 C2093 1.429 . S
C2077 H2099 0.950 1_455 S
C2078 H2074 0.949 . S
C2078 C2086 1.574 . S
C2078 C2094 1.368 . S
H2079 C2087 0.950 1_655 S
H2080 C2085 0.950 1_655 S
H2081 C2086 0.949 . S
H2082 C2088 0.950 . S
H2083 C2089 0.950 . S
H2084 C2090 0.949 1_655 S
C2085 H2080 0.950 1_455 S
C2085 C2087 1.327 . S
C2085 C2091 1.429 . S
C2086 C2078 1.574 . S
C2086 H2081 0.949 . S
C2086 C2092 1.368 . S
C2087 C2071 1.349 . S
C2087 H2079 0.950 1_455 S
C2087 C2085 1.327 . S
C2088 C2076 1.349 . S
C2088 H2082 0.950 . S
C2088 C2089 1.327 . S
C2089 H2083 0.950 . S
C2089 C2088 1.327 . S
C2089 C2093 1.429 . S
C2090 C2073 1.574 . S
C2090 H2084 0.949 1_455 S
C2090 C2094 1.368 . S
C2091 C2072 1.429 . S
C2091 C2085 1.429 . S
C2091 C2092 1.523 . S
C2092 C2073 1.368 . S
C2092 C2086 1.368 . S
C2092 C2091 1.523 . S
C2093 C2077 1.429 . S
C2093 C2089 1.429 . S
C2093 C2094 1.523 . S
C2094 C2078 1.368 . S
C2094 C2090 1.368 . S
C2094 C2093 1.523 . S
H2095 C2070 0.950 . S
H2096 C2072 0.950 . S
H2097 C2073 0.949 1_655 S
H2098 C2075 0.950 1_655 S
H2099 C2077 0.950 1_655 S
C2100 C2101 1.349 . S
C2100 C2102 1.327 . S
C2100 H2125 0.950 . S
C2101 C2100 1.349 . S
C2101 C2117 1.349 . S
C2102 C2100 1.327 . S
C2102 C2121 1.429 . S
C2102 H2126 0.950 . S
C2103 C2120 1.574 . S
C2103 C2122 1.368 . S
C2103 H2127 0.949 . S
H2104 C2108 0.949 . S
C2105 C2106 1.349 . S
C2105 C2107 1.327 . S
C2105 H2128 0.950 . S
C2106 C2105 1.349 . S
C2106 C2118 1.349 . S
C2107 C2105 1.327 . S
C2107 C2123 1.429 . S
C2107 H2129 0.950 . S
C2108 H2104 0.949 . S
C2108 C2116 1.574 . S
C2108 C2124 1.368 . S
H2109 C2117 0.950 . S
H2110 C2115 0.950 . S
H2111 C2116 0.949 . S
H2112 C2118 0.950 . S
H2113 C2119 0.950 . S
H2114 C2120 0.949 . S
C2115 H2110 0.950 . S
C2115 C2117 1.327 . S
C2115 C2121 1.429 . S
C2116 C2108 1.574 . S
C2116 H2111 0.949 . S
C2116 C2122 1.368 . S
C2117 C2101 1.349 . S
C2117 H2109 0.950 . S
C2117 C2115 1.327 . S
C2118 C2106 1.349 . S
C2118 H2112 0.950 . S
C2118 C2119 1.327 . S
C2119 H2113 0.950 . S
C2119 C2118 1.327 . S
C2119 C2123 1.429 . S
C2120 C2103 1.574 . S
C2120 H2114 0.949 . S
C2120 C2124 1.368 . S
C2121 C2102 1.429 . S
C2121 C2115 1.429 . S
C2121 C2122 1.523 . S
C2122 C2103 1.368 . S
C2122 C2116 1.368 . S
C2122 C2121 1.523 . S
C2123 C2107 1.429 . S
C2123 C2119 1.429 . S
C2123 C2124 1.523 . S
C2124 C2108 1.368 . S
C2124 C2120 1.368 . S
C2124 C2123 1.523 . S
H2125 C2100 0.950 . S
H2126 C2102 0.950 . S
H2127 C2103 0.949 . S
H2128 C2105 0.950 . S
H2129 C2107 0.950 . S
C2130 C2131 1.349 . S
C2130 C2132 1.327 . S
C2130 H2155 0.950 . S
C2131 C2130 1.349 . S
C2131 C2147 1.349 . S
C2132 C2130 1.327 . S
C2132 C2151 1.429 . S
C2132 H2156 0.950 . S
C2133 C2150 1.574 . S
C2133 C2152 1.368 . S
C2133 H2157 0.949 1_545 S
H2134 C2138 0.949 . S
C2135 C2136 1.349 . S
C2135 C2137 1.327 . S
C2135 H2158 0.950 1_545 S
C2136 C2135 1.349 . S
C2136 C2148 1.349 . S
C2137 C2135 1.327 . S
C2137 C2153 1.429 . S
C2137 H2159 0.950 1_545 S
C2138 H2134 0.949 . S
C2138 C2146 1.574 . S
C2138 C2154 1.368 . S
H2139 C2147 0.950 1_565 S
H2140 C2145 0.950 1_565 S
H2141 C2146 0.949 . S
H2142 C2148 0.950 . S
H2143 C2149 0.950 . S
H2144 C2150 0.949 1_565 S
C2145 H2140 0.950 1_545 S
C2145 C2147 1.327 . S
C2145 C2151 1.429 . S
C2146 C2138 1.574 . S
C2146 H2141 0.949 . S
C2146 C2152 1.368 . S
C2147 C2131 1.349 . S
C2147 H2139 0.950 1_545 S
C2147 C2145 1.327 . S
C2148 C2136 1.349 . S
C2148 H2142 0.950 . S
C2148 C2149 1.327 . S
C2149 H2143 0.950 . S
C2149 C2148 1.327 . S
C2149 C2153 1.429 . S
C2150 C2133 1.574 . S
C2150 H2144 0.949 1_545 S
C2150 C2154 1.368 . S
C2151 C2132 1.429 . S
C2151 C2145 1.429 . S
C2151 C2152 1.523 . S
C2152 C2133 1.368 . S
C2152 C2146 1.368 . S
C2152 C2151 1.523 . S
C2153 C2137 1.429 . S
C2153 C2149 1.429 . S
C2153 C2154 1.523 . S
C2154 C2138 1.368 . S
C2154 C2150 1.368 . S
C2154 C2153 1.523 . S
H2155 C2130 0.950 . S
H2156 C2132 0.950 . S
H2157 C2133 0.949 1_565 S
H2158 C2135 0.950 1_565 S
H2159 C2137 0.950 1_565 S
C2160 C2161 1.349 . S
C2160 C2162 1.327 . S
C2160 H2185 0.950 . S
C2161 C2160 1.349 . S
C2161 C2177 1.349 . S
C2162 C2160 1.327 . S
C2162 C2181 1.429 . S
C2162 H2186 0.950 . S
C2163 C2180 1.574 . S
C2163 C2182 1.368 . S
C2163 H2187 0.949 . S
H2164 C2168 0.949 . S
C2165 C2166 1.349 . S
C2165 C2167 1.327 . S
C2165 H2188 0.950 . S
C2166 C2165 1.349 . S
C2166 C2178 1.349 . S
C2167 C2165 1.327 . S
C2167 C2183 1.429 . S
C2167 H2189 0.950 . S
C2168 H2164 0.949 . S
C2168 C2176 1.574 . S
C2168 C2184 1.368 . S
H2169 C2177 0.950 . S
H2170 C2175 0.950 . S
H2171 C2176 0.949 . S
H2172 C2178 0.950 . S
H2173 C2179 0.950 . S
H2174 C2180 0.949 . S
C2175 H2170 0.950 . S
C2175 C2177 1.327 . S
C2175 C2181 1.429 . S
C2176 C2168 1.574 . S
C2176 H2171 0.949 . S
C2176 C2182 1.368 . S
C2177 C2161 1.349 . S
C2177 H2169 0.950 . S
C2177 C2175 1.327 . S
C2178 C2166 1.349 . S
C2178 H2172 0.950 . S
C2178 C2179 1.327 . S
C2179 H2173 0.950 . S
C2179 C2178 1.327 . S
C2179 C2183 1.429 . S
C2180 C2163 1.574 . S
C2180 H2174 0.949 . S
C2180 C2184 1.368 . S
C2181 C2162 1.429 . S
C2181 C2175 1.429 . S
C2181 C2182 1.523 . S
C2182 C2163 1.368 . S
C2182 C2176 1.368 . S
C2182 C2181 1.523 . S
C2183 C2167 1.429 . S
C2183 C2179 1.429 . S
C2183 C2184 1.523 . S
C2184 C2168 1.368 . S
C2184 C2180 1.368 . S
C2184 C2183 1.523 . S
H2185 C2160 0.950 . S
H2186 C2162 0.950 . S
H2187 C2163 0.949 . S
H2188 C2165 0.950 . S
H2189 C2167 0.950 . S
C2190 C2191 1.349 . S
C2190 C2192 1.327 . S
C2190 H2215 0.950 . S
C2191 C2190 1.349 . S
C2191 C2207 1.349 . S
C2192 C2190 1.327 . S
C2192 C2211 1.429 . S
C2192 H2216 0.950 . S
C2193 C2210 1.574 . S
C2193 C2212 1.368 . S
C2193 H2217 0.949 . S
H2194 C2198 0.949 . S
C2195 C2196 1.349 . S
C2195 C2197 1.327 . S
C2195 H2218 0.950 . S
C2196 C2195 1.349 . S
C2196 C2208 1.349 . S
C2197 C2195 1.327 . S
C2197 C2213 1.429 . S
C2197 H2219 0.950 . S
C2198 H2194 0.949 . S
C2198 C2206 1.574 . S
C2198 C2214 1.368 . S
H2199 C2207 0.950 . S
H2200 C2205 0.950 . S
H2201 C2206 0.949 . S
H2202 C2208 0.950 . S
H2203 C2209 0.950 . S
H2204 C2210 0.949 . S
C2205 H2200 0.950 . S
C2205 C2207 1.327 . S
C2205 C2211 1.429 . S
C2206 C2198 1.574 . S
C2206 H2201 0.949 . S
C2206 C2212 1.368 . S
C2207 C2191 1.349 . S
C2207 H2199 0.950 . S
C2207 C2205 1.327 . S
C2208 C2196 1.349 . S
C2208 H2202 0.950 . S
C2208 C2209 1.327 . S
C2209 H2203 0.950 . S
C2209 C2208 1.327 . S
C2209 C2213 1.429 . S
C2210 C2193 1.574 . S
C2210 H2204 0.949 . S
C2210 C2214 1.368 . S
C2211 C2192 1.429 . S
C2211 C2205 1.429 . S
C2211 C2212 1.523 . S
C2212 C2193 1.368 . S
C2212 C2206 1.368 . S
C2212 C2211 1.523 . S
C2213 C2197 1.429 . S
C2213 C2209 1.429 . S
C2213 C2214 1.523 . S
C2214 C2198 1.368 . S
C2214 C2210 1.368 . S
C2214 C2213 1.523 . S
H2215 C2190 0.950 . S
H2216 C2192 0.950 . S
H2217 C2193 0.949 . S
H2218 C2195 0.950 . S
H2219 C2197 0.950 . S
C2220 C2221 1.349 . S
C2220 C2222 1.327 . S
C2220 H2245 0.950 . S
C2221 C2220 1.349 . S
C2221 C2237 1.349 . S
C2222 C2220 1.327 . S
C2222 C2241 1.429 . S
C2222 H2246 0.950 . S
C2223 C2240 1.574 . S
C2223 C2242 1.368 . S
C2223 H2247 0.949 . S
H2224 C2228 0.949 . S
C2225 C2226 1.349 . S
C2225 C2227 1.327 . S
C2225 H2248 0.950 . S
C2226 C2225 1.349 . S
C2226 C2238 1.349 . S
C2227 C2225 1.327 . S
C2227 C2243 1.429 . S
C2227 H2249 0.950 . S
C2228 H2224 0.949 . S
C2228 C2236 1.574 . S
C2228 C2244 1.368 . S
H2229 C2237 0.950 . S
H2230 C2235 0.950 . S
H2231 C2236 0.949 . S
H2232 C2238 0.950 . S
H2233 C2239 0.950 . S
H2234 C2240 0.949 . S
C2235 H2230 0.950 . S
C2235 C2237 1.327 . S
C2235 C2241 1.429 . S
C2236 C2228 1.574 . S
C2236 H2231 0.949 . S
C2236 C2242 1.368 . S
C2237 C2221 1.349 . S
C2237 H2229 0.950 . S
C2237 C2235 1.327 . S
C2238 C2226 1.349 . S
C2238 H2232 0.950 . S
C2238 C2239 1.327 . S
C2239 H2233 0.950 . S
C2239 C2238 1.327 . S
C2239 C2243 1.429 . S
C2240 C2223 1.574 . S
C2240 H2234 0.949 . S
C2240 C2244 1.368 . S
C2241 C2222 1.429 . S
C2241 C2235 1.429 . S
C2241 C2242 1.523 . S
C2242 C2223 1.368 . S
C2242 C2236 1.368 . S
C2242 C2241 1.523 . S
C2243 C2227 1.429 . S
C2243 C2239 1.429 . S
C2243 C2244 1.523 . S
C2244 C2228 1.368 . S
C2244 C2240 1.368 . S
C2244 C2243 1.523 . S
H2245 C2220 0.950 . S
H2246 C2222 0.950 . S
H2247 C2223 0.949 . S
H2248 C2225 0.950 . S
H2249 C2227 0.950 . S
C2250 C2251 1.349 . S
C2250 C2252 1.327 . S
C2250 H2275 0.950 . S
C2251 C2250 1.349 . S
C2251 C2267 1.349 . S
C2252 C2250 1.327 . S
C2252 C2271 1.429 . S
C2252 H2276 0.950 . S
C2253 C2270 1.574 . S
C2253 C2272 1.368 . S
C2253 H2277 0.949 . S
H2254 C2258 0.949 . S
C2255 C2256 1.349 . S
C2255 C2257 1.327 . S
C2255 H2278 0.950 . S
C2256 C2255 1.349 . S
C2256 C2268 1.349 . S
C2257 C2255 1.327 . S
C2257 C2273 1.429 . S
C2257 H2279 0.950 . S
C2258 H2254 0.949 . S
C2258 C2266 1.574 . S
C2258 C2274 1.368 . S
H2259 C2267 0.950 . S
H2260 C2265 0.950 . S
H2261 C2266 0.949 . S
H2262 C2268 0.950 . S
H2263 C2269 0.950 . S
H2264 C2270 0.949 . S
C2265 H2260 0.950 . S
C2265 C2267 1.327 . S
C2265 C2271 1.429 . S
C2266 C2258 1.574 . S
C2266 H2261 0.949 . S
C2266 C2272 1.368 . S
C2267 C2251 1.349 . S
C2267 H2259 0.950 . S
C2267 C2265 1.327 . S
C2268 C2256 1.349 . S
C2268 H2262 0.950 . S
C2268 C2269 1.327 . S
C2269 H2263 0.950 . S
C2269 C2268 1.327 . S
C2269 C2273 1.429 . S
C2270 C2253 1.574 . S
C2270 H2264 0.949 . S
C2270 C2274 1.368 . S
C2271 C2252 1.429 . S
C2271 C2265 1.429 . S
C2271 C2272 1.523 . S
C2272 C2253 1.368 . S
C2272 C2266 1.368 . S
C2272 C2271 1.523 . S
C2273 C2257 1.429 . S
C2273 C2269 1.429 . S
C2273 C2274 1.523 . S
C2274 C2258 1.368 . S
C2274 C2270 1.368 . S
C2274 C2273 1.523 . S
H2275 C2250 0.950 . S
H2276 C2252 0.950 . S
H2277 C2253 0.949 . S
H2278 C2255 0.950 . S
H2279 C2257 0.950 . S
C2280 C2281 1.349 . S
C2280 C2282 1.327 . S
C2280 H2305 0.950 . S
C2281 C2280 1.349 . S
C2281 C2297 1.349 . S
C2282 C2280 1.327 . S
C2282 C2301 1.429 . S
C2282 H2306 0.950 . S
C2283 C2300 1.574 . S
C2283 C2302 1.368 . S
C2283 H2307 0.949 . S
H2284 C2288 0.949 . S
C2285 C2286 1.349 . S
C2285 C2287 1.327 . S
C2285 H2308 0.950 . S
C2286 C2285 1.349 . S
C2286 C2298 1.349 . S
C2287 C2285 1.327 . S
C2287 C2303 1.429 . S
C2287 H2309 0.950 . S
C2288 H2284 0.949 . S
C2288 C2296 1.574 . S
C2288 C2304 1.368 . S
H2289 C2297 0.950 . S
H2290 C2295 0.950 . S
H2291 C2296 0.949 . S
H2292 C2298 0.950 . S
H2293 C2299 0.950 . S
H2294 C2300 0.949 . S
C2295 H2290 0.950 . S
C2295 C2297 1.327 . S
C2295 C2301 1.429 . S
C2296 C2288 1.574 . S
C2296 H2291 0.949 . S
C2296 C2302 1.368 . S
C2297 C2281 1.349 . S
C2297 H2289 0.950 . S
C2297 C2295 1.327 . S
C2298 C2286 1.349 . S
C2298 H2292 0.950 . S
C2298 C2299 1.327 . S
C2299 H2293 0.950 . S
C2299 C2298 1.327 . S
C2299 C2303 1.429 . S
C2300 C2283 1.574 . S
C2300 H2294 0.949 . S
C2300 C2304 1.368 . S
C2301 C2282 1.429 . S
C2301 C2295 1.429 . S
C2301 C2302 1.523 . S
C2302 C2283 1.368 . S
C2302 C2296 1.368 . S
C2302 C2301 1.523 . S
C2303 C2287 1.429 . S
C2303 C2299 1.429 . S
C2303 C2304 1.523 . S
C2304 C2288 1.368 . S
C2304 C2300 1.368 . S
C2304 C2303 1.523 . S
H2305 C2280 0.950 . S
H2306 C2282 0.950 . S
H2307 C2283 0.949 . S
H2308 C2285 0.950 . S
H2309 C2287 0.950 . S
C2310 C2311 1.349 . S
C2310 C2312 1.327 . S
C2310 H2335 0.950 . S
C2311 C2310 1.349 . S
C2311 C2327 1.349 . S
C2312 C2310 1.327 . S
C2312 C2331 1.429 . S
C2312 H2336 0.950 . S
C2313 C2330 1.574 . S
C2313 C2332 1.368 . S
C2313 H2337 0.949 . S
H2314 C2318 0.949 . S
C2315 C2316 1.349 . S
C2315 C2317 1.327 . S
C2315 H2338 0.950 . S
C2316 C2315 1.349 . S
C2316 C2328 1.349 . S
C2317 C2315 1.327 . S
C2317 C2333 1.429 . S
C2317 H2339 0.950 . S
C2318 H2314 0.949 . S
C2318 C2326 1.574 . S
C2318 C2334 1.368 . S
H2319 C2327 0.950 . S
H2320 C2325 0.950 . S
H2321 C2326 0.949 . S
H2322 C2328 0.950 . S
H2323 C2329 0.950 . S
H2324 C2330 0.949 . S
C2325 H2320 0.950 . S
C2325 C2327 1.327 . S
C2325 C2331 1.429 . S
C2326 C2318 1.574 . S
C2326 H2321 0.949 . S
C2326 C2332 1.368 . S
C2327 C2311 1.349 . S
C2327 H2319 0.950 . S
C2327 C2325 1.327 . S
C2328 C2316 1.349 . S
C2328 H2322 0.950 . S
C2328 C2329 1.327 . S
C2329 H2323 0.950 . S
C2329 C2328 1.327 . S
C2329 C2333 1.429 . S
C2330 C2313 1.574 . S
C2330 H2324 0.949 . S
C2330 C2334 1.368 . S
C2331 C2312 1.429 . S
C2331 C2325 1.429 . S
C2331 C2332 1.523 . S
C2332 C2313 1.368 . S
C2332 C2326 1.368 . S
C2332 C2331 1.523 . S
C2333 C2317 1.429 . S
C2333 C2329 1.429 . S
C2333 C2334 1.523 . S
C2334 C2318 1.368 . S
C2334 C2330 1.368 . S
C2334 C2333 1.523 . S
H2335 C2310 0.950 . S
H2336 C2312 0.950 . S
H2337 C2313 0.949 . S
H2338 C2315 0.950 . S
H2339 C2317 0.950 . S
C2340 C2341 1.349 . S
C2340 C2342 1.327 . S
C2340 H2365 0.950 . S
C2341 C2340 1.349 . S
C2341 C2357 1.349 . S
C2342 C2340 1.327 . S
C2342 C2361 1.429 . S
C2342 H2366 0.950 . S
C2343 C2360 1.574 . S
C2343 C2362 1.368 . S
C2343 H2367 0.949 . S
H2344 C2348 0.949 . S
C2345 C2346 1.349 . S
C2345 C2347 1.327 . S
C2345 H2368 0.950 . S
C2346 C2345 1.349 . S
C2346 C2358 1.349 . S
C2347 C2345 1.327 . S
C2347 C2363 1.429 . S
C2347 H2369 0.950 . S
C2348 H2344 0.949 . S
C2348 C2356 1.574 . S
C2348 C2364 1.368 . S
H2349 C2357 0.950 . S
H2350 C2355 0.950 . S
H2351 C2356 0.949 . S
H2352 C2358 0.950 . S
H2353 C2359 0.950 . S
H2354 C2360 0.949 . S
C2355 H2350 0.950 . S
C2355 C2357 1.327 . S
C2355 C2361 1.429 . S
C2356 C2348 1.574 . S
C2356 H2351 0.949 . S
C2356 C2362 1.368 . S
C2357 C2341 1.349 . S
C2357 H2349 0.950 . S
C2357 C2355 1.327 . S
C2358 C2346 1.349 . S
C2358 H2352 0.950 . S
C2358 C2359 1.327 . S
C2359 H2353 0.950 . S
C2359 C2358 1.327 . S
C2359 C2363 1.429 . S
C2360 C2343 1.574 . S
C2360 H2354 0.949 . S
C2360 C2364 1.368 . S
C2361 C2342 1.429 . S
C2361 C2355 1.429 . S
C2361 C2362 1.523 . S
C2362 C2343 1.368 . S
C2362 C2356 1.368 . S
C2362 C2361 1.523 . S
C2363 C2347 1.429 . S
C2363 C2359 1.429 . S
C2363 C2364 1.523 . S
C2364 C2348 1.368 . S
C2364 C2360 1.368 . S
C2364 C2363 1.523 . S
H2365 C2340 0.950 . S
H2366 C2342 0.950 . S
H2367 C2343 0.949 . S
H2368 C2345 0.950 . S
H2369 C2347 0.950 . S
C2370 C2371 1.349 . S
C2370 C2372 1.327 . S
C2370 H2395 0.950 . S
C2371 C2370 1.349 . S
C2371 C2387 1.349 . S
C2372 C2370 1.327 . S
C2372 C2391 1.429 . S
C2372 H2396 0.950 . S
C2373 C2390 1.574 . S
C2373 C2392 1.368 . S
C2373 H2397 0.949 . S
H2374 C2378 0.949 . S
C2375 C2376 1.349 . S
C2375 C2377 1.327 . S
C2375 H2398 0.950 . S
C2376 C2375 1.349 . S
C2376 C2388 1.349 . S
C2377 C2375 1.327 . S
C2377 C2393 1.429 . S
C2377 H2399 0.950 . S
C2378 H2374 0.949 . S
C2378 C2386 1.574 . S
C2378 C2394 1.368 . S
H2379 C2387 0.950 . S
H2380 C2385 0.950 . S
H2381 C2386 0.949 . S
H2382 C2388 0.950 . S
H2383 C2389 0.950 . S
H2384 C2390 0.949 . S
C2385 H2380 0.950 . S
C2385 C2387 1.327 . S
C2385 C2391 1.429 . S
C2386 C2378 1.574 . S
C2386 H2381 0.949 . S
C2386 C2392 1.368 . S
C2387 C2371 1.349 . S
C2387 H2379 0.950 . S
C2387 C2385 1.327 . S
C2388 C2376 1.349 . S
C2388 H2382 0.950 . S
C2388 C2389 1.327 . S
C2389 H2383 0.950 . S
C2389 C2388 1.327 . S
C2389 C2393 1.429 . S
C2390 C2373 1.574 . S
C2390 H2384 0.949 . S
C2390 C2394 1.368 . S
C2391 C2372 1.429 . S
C2391 C2385 1.429 . S
C2391 C2392 1.523 . S
C2392 C2373 1.368 . S
C2392 C2386 1.368 . S
C2392 C2391 1.523 . S
C2393 C2377 1.429 . S
C2393 C2389 1.429 . S
C2393 C2394 1.523 . S
C2394 C2378 1.368 . S
C2394 C2390 1.368 . S
C2394 C2393 1.523 . S
H2395 C2370 0.950 . S
H2396 C2372 0.950 . S
H2397 C2373 0.949 . S
H2398 C2375 0.950 . S
H2399 C2377 0.950 . S
C2400 C2401 1.349 . S
C2400 C2402 1.327 . S
C2400 H2425 0.950 . S
C2401 C2400 1.349 . S
C2401 C2417 1.349 . S
C2402 C2400 1.327 . S
C2402 C2421 1.429 . S
C2402 H2426 0.950 . S
C2403 C2420 1.574 . S
C2403 C2422 1.368 . S
C2403 H2427 0.949 . S
H2404 C2408 0.949 . S
C2405 C2406 1.349 . S
C2405 C2407 1.327 . S
C2405 H2428 0.950 . S
C2406 C2405 1.349 . S
C2406 C2418 1.349 . S
C2407 C2405 1.327 . S
C2407 C2423 1.429 . S
C2407 H2429 0.950 . S
C2408 H2404 0.949 . S
C2408 C2416 1.574 . S
C2408 C2424 1.368 . S
H2409 C2417 0.950 . S
H2410 C2415 0.950 . S
H2411 C2416 0.949 . S
H2412 C2418 0.950 . S
H2413 C2419 0.950 . S
H2414 C2420 0.949 . S
C2415 H2410 0.950 . S
C2415 C2417 1.327 . S
C2415 C2421 1.429 . S
C2416 C2408 1.574 . S
C2416 H2411 0.949 . S
C2416 C2422 1.368 . S
C2417 C2401 1.349 . S
C2417 H2409 0.950 . S
C2417 C2415 1.327 . S
C2418 C2406 1.349 . S
C2418 H2412 0.950 . S
C2418 C2419 1.327 . S
C2419 H2413 0.950 . S
C2419 C2418 1.327 . S
C2419 C2423 1.429 . S
C2420 C2403 1.574 . S
C2420 H2414 0.949 . S
C2420 C2424 1.368 . S
C2421 C2402 1.429 . S
C2421 C2415 1.429 . S
C2421 C2422 1.523 . S
C2422 C2403 1.368 . S
C2422 C2416 1.368 . S
C2422 C2421 1.523 . S
C2423 C2407 1.429 . S
C2423 C2419 1.429 . S
C2423 C2424 1.523 . S
C2424 C2408 1.368 . S
C2424 C2420 1.368 . S
C2424 C2423 1.523 . S
H2425 C2400 0.950 . S
H2426 C2402 0.950 . S
H2427 C2403 0.949 . S
H2428 C2405 0.950 . S
H2429 C2407 0.950 . S
C2430 C2431 1.349 . S
C2430 C2432 1.327 . S
C2430 H2455 0.950 . S
C2431 C2430 1.349 . S
C2431 C2447 1.349 . S
C2432 C2430 1.327 . S
C2432 C2451 1.429 . S
C2432 H2456 0.950 . S
C2433 C2450 1.574 . S
C2433 C2452 1.368 . S
C2433 H2457 0.949 . S
H2434 C2438 0.949 . S
C2435 C2436 1.349 . S
C2435 C2437 1.327 . S
C2435 H2458 0.950 . S
C2436 C2435 1.349 . S
C2436 C2448 1.349 . S
C2437 C2435 1.327 . S
C2437 C2453 1.429 . S
C2437 H2459 0.950 . S
C2438 H2434 0.949 . S
C2438 C2446 1.574 . S
C2438 C2454 1.368 . S
H2439 C2447 0.950 . S
H2440 C2445 0.950 . S
H2441 C2446 0.949 . S
H2442 C2448 0.950 . S
H2443 C2449 0.950 . S
H2444 C2450 0.949 . S
C2445 H2440 0.950 . S
C2445 C2447 1.327 . S
C2445 C2451 1.429 . S
C2446 C2438 1.574 . S
C2446 H2441 0.949 . S
C2446 C2452 1.368 . S
C2447 C2431 1.349 . S
C2447 H2439 0.950 . S
C2447 C2445 1.327 . S
C2448 C2436 1.349 . S
C2448 H2442 0.950 . S
C2448 C2449 1.327 . S
C2449 H2443 0.950 . S
C2449 C2448 1.327 . S
C2449 C2453 1.429 . S
C2450 C2433 1.574 . S
C2450 H2444 0.949 . S
C2450 C2454 1.368 . S
C2451 C2432 1.429 . S
C2451 C2445 1.429 . S
C2451 C2452 1.523 . S
C2452 C2433 1.368 . S
C2452 C2446 1.368 . S
C2452 C2451 1.523 . S
C2453 C2437 1.429 . S
C2453 C2449 1.429 . S
C2453 C2454 1.523 . S
C2454 C2438 1.368 . S
C2454 C2450 1.368 . S
C2454 C2453 1.523 . S
H2455 C2430 0.950 . S
H2456 C2432 0.950 . S
H2457 C2433 0.949 . S
H2458 C2435 0.950 . S
H2459 C2437 0.950 . S
C2460 C2461 1.349 . S
C2460 C2462 1.327 . S
C2460 H2485 0.950 . S
C2461 C2460 1.349 . S
C2461 C2477 1.349 . S
C2462 C2460 1.327 . S
C2462 C2481 1.429 . S
C2462 H2486 0.950 . S
C2463 C2480 1.574 . S
C2463 C2482 1.368 . S
C2463 H2487 0.949 . S
H2464 C2468 0.949 . S
C2465 C2466 1.349 . S
C2465 C2467 1.327 . S
C2465 H2488 0.950 . S
C2466 C2465 1.349 . S
C2466 C2478 1.349 . S
C2467 C2465 1.327 . S
C2467 C2483 1.429 . S
C2467 H2489 0.950 . S
C2468 H2464 0.949 . S
C2468 C2476 1.574 . S
C2468 C2484 1.368 . S
H2469 C2477 0.950 . S
H2470 C2475 0.950 . S
H2471 C2476 0.949 . S
H2472 C2478 0.950 . S
H2473 C2479 0.950 . S
H2474 C2480 0.949 . S
C2475 H2470 0.950 . S
C2475 C2477 1.327 . S
C2475 C2481 1.429 . S
C2476 C2468 1.574 . S
C2476 H2471 0.949 . S
C2476 C2482 1.368 . S
C2477 C2461 1.349 . S
C2477 H2469 0.950 . S
C2477 C2475 1.327 . S
C2478 C2466 1.349 . S
C2478 H2472 0.950 . S
C2478 C2479 1.327 . S
C2479 H2473 0.950 . S
C2479 C2478 1.327 . S
C2479 C2483 1.429 . S
C2480 C2463 1.574 . S
C2480 H2474 0.949 . S
C2480 C2484 1.368 . S
C2481 C2462 1.429 . S
C2481 C2475 1.429 . S
C2481 C2482 1.523 . S
C2482 C2463 1.368 . S
C2482 C2476 1.368 . S
C2482 C2481 1.523 . S
C2483 C2467 1.429 . S
C2483 C2479 1.429 . S
C2483 C2484 1.523 . S
C2484 C2468 1.368 . S
C2484 C2480 1.368 . S
C2484 C2483 1.523 . S
H2485 C2460 0.950 . S
H2486 C2462 0.950 . S
H2487 C2463 0.949 . S
H2488 C2465 0.950 . S
H2489 C2467 0.950 . S
C2490 C2491 1.349 . S
C2490 C2492 1.327 . S
C2490 H2515 0.950 . S
C2491 C2490 1.349 . S
C2491 C2507 1.349 . S
C2492 C2490 1.327 . S
C2492 C2511 1.429 . S
C2492 H2516 0.950 . S
C2493 C2510 1.574 . S
C2493 C2512 1.368 . S
C2493 H2517 0.949 . S
H2494 C2498 0.949 . S
C2495 C2496 1.349 . S
C2495 C2497 1.327 . S
C2495 H2518 0.950 . S
C2496 C2495 1.349 . S
C2496 C2508 1.349 . S
C2497 C2495 1.327 . S
C2497 C2513 1.429 . S
C2497 H2519 0.950 . S
C2498 H2494 0.949 . S
C2498 C2506 1.574 . S
C2498 C2514 1.368 . S
H2499 C2507 0.950 . S
H2500 C2505 0.950 . S
H2501 C2506 0.949 . S
H2502 C2508 0.950 . S
H2503 C2509 0.950 . S
H2504 C2510 0.949 . S
C2505 H2500 0.950 . S
C2505 C2507 1.327 . S
C2505 C2511 1.429 . S
C2506 C2498 1.574 . S
C2506 H2501 0.949 . S
C2506 C2512 1.368 . S
C2507 C2491 1.349 . S
C2507 H2499 0.950 . S
C2507 C2505 1.327 . S
C2508 C2496 1.349 . S
C2508 H2502 0.950 . S
C2508 C2509 1.327 . S
C2509 H2503 0.950 . S
C2509 C2508 1.327 . S
C2509 C2513 1.429 . S
C2510 C2493 1.574 . S
C2510 H2504 0.949 . S
C2510 C2514 1.368 . S
C2511 C2492 1.429 . S
C2511 C2505 1.429 . S
C2511 C2512 1.523 . S
C2512 C2493 1.368 . S
C2512 C2506 1.368 . S
C2512 C2511 1.523 . S
C2513 C2497 1.429 . S
C2513 C2509 1.429 . S
C2513 C2514 1.523 . S
C2514 C2498 1.368 . S
C2514 C2510 1.368 . S
C2514 C2513 1.523 . S
H2515 C2490 0.950 . S
H2516 C2492 0.950 . S
H2517 C2493 0.949 . S
H2518 C2495 0.950 . S
H2519 C2497 0.950 . S
C2520 C2521 1.349 . S
C2520 C2522 1.327 . S
C2520 H2545 0.950 . S
C2521 C2520 1.349 . S
C2521 C2537 1.349 . S
C2522 C2520 1.327 . S
C2522 C2541 1.429 . S
C2522 H2546 0.950 . S
C2523 C2540 1.574 . S
C2523 C2542 1.368 . S
C2523 H2547 0.949 . S
H2524 C2528 0.949 . S
C2525 C2526 1.349 . S
C2525 C2527 1.327 . S
C2525 H2548 0.950 . S
C2526 C2525 1.349 . S
C2526 C2538 1.349 . S
C2527 C2525 1.327 . S
C2527 C2543 1.429 . S
C2527 H2549 0.950 . S
C2528 H2524 0.949 . S
C2528 C2536 1.574 . S
C2528 C2544 1.368 . S
H2529 C2537 0.950 . S
H2530 C2535 0.950 . S
H2531 C2536 0.949 . S
H2532 C2538 0.950 . S
H2533 C2539 0.950 . S
H2534 C2540 0.949 . S
C2535 H2530 0.950 . S
C2535 C2537 1.327 . S
C2535 C2541 1.429 . S
C2536 C2528 1.574 . S
C2536 H2531 0.949 . S
C2536 C2542 1.368 . S
C2537 C2521 1.349 . S
C2537 H2529 0.950 . S
C2537 C2535 1.327 . S
C2538 C2526 1.349 . S
C2538 H2532 0.950 . S
C2538 C2539 1.327 . S
C2539 H2533 0.950 . S
C2539 C2538 1.327 . S
C2539 C2543 1.429 . S
C2540 C2523 1.574 . S
C2540 H2534 0.949 . S
C2540 C2544 1.368 . S
C2541 C2522 1.429 . S
C2541 C2535 1.429 . S
C2541 C2542 1.523 . S
C2542 C2523 1.368 . S
C2542 C2536 1.368 . S
C2542 C2541 1.523 . S
C2543 C2527 1.429 . S
C2543 C2539 1.429 . S
C2543 C2544 1.523 . S
C2544 C2528 1.368 . S
C2544 C2540 1.368 . S
C2544 C2543 1.523 . S
H2545 C2520 0.950 . S
H2546 C2522 0.950 . S
H2547 C2523 0.949 . S
H2548 C2525 0.950 . S
H2549 C2527 0.950 . S
C2550 C2551 1.349 . S
C2550 C2552 1.327 . S
C2550 H2575 0.950 . S
C2551 C2550 1.349 . S
C2551 C2567 1.349 . S
C2552 C2550 1.327 . S
C2552 C2571 1.429 . S
C2552 H2576 0.950 . S
C2553 C2570 1.574 . S
C2553 C2572 1.368 . S
C2553 H2577 0.949 . S
H2554 C2558 0.949 . S
C2555 C2556 1.349 . S
C2555 C2557 1.327 . S
C2555 H2578 0.950 . S
C2556 C2555 1.349 . S
C2556 C2568 1.349 . S
C2557 C2555 1.327 . S
C2557 C2573 1.429 . S
C2557 H2579 0.950 . S
C2558 H2554 0.949 . S
C2558 C2566 1.574 . S
C2558 C2574 1.368 . S
H2559 C2567 0.950 . S
H2560 C2565 0.950 . S
H2561 C2566 0.949 . S
H2562 C2568 0.950 . S
H2563 C2569 0.950 . S
H2564 C2570 0.949 . S
C2565 H2560 0.950 . S
C2565 C2567 1.327 . S
C2565 C2571 1.429 . S
C2566 C2558 1.574 . S
C2566 H2561 0.949 . S
C2566 C2572 1.368 . S
C2567 C2551 1.349 . S
C2567 H2559 0.950 . S
C2567 C2565 1.327 . S
C2568 C2556 1.349 . S
C2568 H2562 0.950 . S
C2568 C2569 1.327 . S
C2569 H2563 0.950 . S
C2569 C2568 1.327 . S
C2569 C2573 1.429 . S
C2570 C2553 1.574 . S
C2570 H2564 0.949 . S
C2570 C2574 1.368 . S
C2571 C2552 1.429 . S
C2571 C2565 1.429 . S
C2571 C2572 1.523 . S
C2572 C2553 1.368 . S
C2572 C2566 1.368 . S
C2572 C2571 1.523 . S
C2573 C2557 1.429 . S
C2573 C2569 1.429 . S
C2573 C2574 1.523 . S
C2574 C2558 1.368 . S
C2574 C2570 1.368 . S
C2574 C2573 1.523 . S
H2575 C2550 0.950 . S
H2576 C2552 0.950 . S
H2577 C2553 0.949 . S
H2578 C2555 0.950 . S
H2579 C2557 0.950 . S
C2580 C2581 1.349 . S
C2580 C2582 1.327 . S
C2580 H2605 0.950 . S
C2581 C2580 1.349 . S
C2581 C2597 1.349 . S
C2582 C2580 1.327 . S
C2582 C2601 1.429 . S
C2582 H2606 0.950 . S
C2583 C2600 1.574 . S
C2583 C2602 1.368 . S
C2583 H2607 0.949 . S
H2584 C2588 0.949 . S
C2585 C2586 1.349 . S
C2585 C2587 1.327 . S
C2585 H2608 0.950 . S
C2586 C2585 1.349 . S
C2586 C2598 1.349 . S
C2587 C2585 1.327 . S
C2587 C2603 1.429 . S
C2587 H2609 0.950 . S
C2588 H2584 0.949 . S
C2588 C2596 1.574 . S
C2588 C2604 1.368 . S
H2589 C2597 0.950 . S
H2590 C2595 0.950 . S
H2591 C2596 0.949 . S
H2592 C2598 0.950 . S
H2593 C2599 0.950 . S
H2594 C2600 0.949 . S
C2595 H2590 0.950 . S
C2595 C2597 1.327 . S
C2595 C2601 1.429 . S
C2596 C2588 1.574 . S
C2596 H2591 0.949 . S
C2596 C2602 1.368 . S
C2597 C2581 1.349 . S
C2597 H2589 0.950 . S
C2597 C2595 1.327 . S
C2598 C2586 1.349 . S
C2598 H2592 0.950 . S
C2598 C2599 1.327 . S
C2599 H2593 0.950 . S
C2599 C2598 1.327 . S
C2599 C2603 1.429 . S
C2600 C2583 1.574 . S
C2600 H2594 0.949 . S
C2600 C2604 1.368 . S
C2601 C2582 1.429 . S
C2601 C2595 1.429 . S
C2601 C2602 1.523 . S
C2602 C2583 1.368 . S
C2602 C2596 1.368 . S
C2602 C2601 1.523 . S
C2603 C2587 1.429 . S
C2603 C2599 1.429 . S
C2603 C2604 1.523 . S
C2604 C2588 1.368 . S
C2604 C2600 1.368 . S
C2604 C2603 1.523 . S
H2605 C2580 0.950 . S
H2606 C2582 0.950 . S
H2607 C2583 0.949 . S
H2608 C2585 0.950 . S
H2609 C2587 0.950 . S
C2610 C2611 1.349 . S
C2610 C2612 1.327 . S
C2610 H2635 0.950 . S
C2611 C2610 1.349 . S
C2611 C2627 1.349 . S
C2612 C2610 1.327 . S
C2612 C2631 1.429 . S
C2612 H2636 0.950 . S
C2613 C2630 1.574 . S
C2613 C2632 1.368 . S
C2613 H2637 0.949 . S
H2614 C2618 0.949 . S
C2615 C2616 1.349 . S
C2615 C2617 1.327 . S
C2615 H2638 0.950 . S
C2616 C2615 1.349 . S
C2616 C2628 1.349 . S
C2617 C2615 1.327 . S
C2617 C2633 1.429 . S
C2617 H2639 0.950 . S
C2618 H2614 0.949 . S
C2618 C2626 1.574 . S
C2618 C2634 1.368 . S
H2619 C2627 0.950 . S
H2620 C2625 0.950 . S
H2621 C2626 0.949 . S
H2622 C2628 0.950 . S
H2623 C2629 0.950 . S
H2624 C2630 0.949 . S
C2625 H2620 0.950 . S
C2625 C2627 1.327 . S
C2625 C2631 1.429 . S
C2626 C2618 1.574 . S
C2626 H2621 0.949 . S
C2626 C2632 1.368 . S
C2627 C2611 1.349 . S
C2627 H2619 0.950 . S
C2627 C2625 1.327 . S
C2628 C2616 1.349 . S
C2628 H2622 0.950 . S
C2628 C2629 1.327 . S
C2629 H2623 0.950 . S
C2629 C2628 1.327 . S
C2629 C2633 1.429 . S
C2630 C2613 1.574 . S
C2630 H2624 0.949 . S
C2630 C2634 1.368 . S
C2631 C2612 1.429 . S
C2631 C2625 1.429 . S
C2631 C2632 1.523 . S
C2632 C2613 1.368 . S
C2632 C2626 1.368 . S
C2632 C2631 1.523 . S
C2633 C2617 1.429 . S
C2633 C2629 1.429 . S
C2633 C2634 1.523 . S
C2634 C2618 1.368 . S
C2634 C2630 1.368 . S
C2634 C2633 1.523 . S
H2635 C2610 0.950 . S
H2636 C2612 0.950 . S
H2637 C2613 0.949 . S
H2638 C2615 0.950 . S
H2639 C2617 0.950 . S
C2640 C2641 1.349 . S
C2640 C2642 1.327 . S
C2640 H2665 0.950 . S
C2641 C2640 1.349 . S
C2641 C2657 1.349 . S
C2642 C2640 1.327 . S
C2642 C2661 1.429 . S
C2642 H2666 0.950 . S
C2643 C2660 1.574 . S
C2643 C2662 1.368 . S
C2643 H2667 0.949 . S
H2644 C2648 0.949 . S
C2645 C2646 1.349 . S
C2645 C2647 1.327 . S
C2645 H2668 0.950 . S
C2646 C2645 1.349 . S
C2646 C2658 1.349 . S
C2647 C2645 1.327 . S
C2647 C2663 1.429 . S
C2647 H2669 0.950 . S
C2648 H2644 0.949 . S
C2648 C2656 1.574 . S
C2648 C2664 1.368 . S
H2649 C2657 0.950 . S
H2650 C2655 0.950 . S
H2651 C2656 0.949 . S
H2652 C2658 0.950 . S
H2653 C2659 0.950 . S
H2654 C2660 0.949 . S
C2655 H2650 0.950 . S
C2655 C2657 1.327 . S
C2655 C2661 1.429 . S
C2656 C2648 1.574 . S
C2656 H2651 0.949 . S
C2656 C2662 1.368 . S
C2657 C2641 1.349 . S
C2657 H2649 0.950 . S
C2657 C2655 1.327 . S
C2658 C2646 1.349 . S
C2658 H2652 0.950 . S
C2658 C2659 1.327 . S
C2659 H2653 0.950 . S
C2659 C2658 1.327 . S
C2659 C2663 1.429 . S
C2660 C2643 1.574 . S
C2660 H2654 0.949 . S
C2660 C2664 1.368 . S
C2661 C2642 1.429 . S
C2661 C2655 1.429 . S
C2661 C2662 1.523 . S
C2662 C2643 1.368 . S
C2662 C2656 1.368 . S
C2662 C2661 1.523 . S
C2663 C2647 1.429 . S
C2663 C2659 1.429 . S
C2663 C2664 1.523 . S
C2664 C2648 1.368 . S
C2664 C2660 1.368 . S
C2664 C2663 1.523 . S
H2665 C2640 0.950 . S
H2666 C2642 0.950 . S
H2667 C2643 0.949 . S
H2668 C2645 0.950 . S
H2669 C2647 0.950 . S
C2670 C2671 1.349 . S
C2670 C2672 1.327 . S
C2670 H2695 0.950 . S
C2671 C2670 1.349 . S
C2671 C2687 1.349 . S
C2672 C2670 1.327 . S
C2672 C2691 1.429 . S
C2672 H2696 0.950 . S
C2673 C2690 1.574 . S
C2673 C2692 1.368 . S
C2673 H2697 0.949 . S
H2674 C2678 0.949 . S
C2675 C2676 1.349 . S
C2675 C2677 1.327 . S
C2675 H2698 0.950 . S
C2676 C2675 1.349 . S
C2676 C2688 1.349 . S
C2677 C2675 1.327 . S
C2677 C2693 1.429 . S
C2677 H2699 0.950 . S
C2678 H2674 0.949 . S
C2678 C2686 1.574 . S
C2678 C2694 1.368 . S
H2679 C2687 0.950 . S
H2680 C2685 0.950 . S
H2681 C2686 0.949 . S
H2682 C2688 0.950 . S
H2683 C2689 0.950 . S
H2684 C2690 0.949 . S
C2685 H2680 0.950 . S
C2685 C2687 1.327 . S
C2685 C2691 1.429 . S
C2686 C2678 1.574 . S
C2686 H2681 0.949 . S
C2686 C2692 1.368 . S
C2687 C2671 1.349 . S
C2687 H2679 0.950 . S
C2687 C2685 1.327 . S
C2688 C2676 1.349 . S
C2688 H2682 0.950 . S
C2688 C2689 1.327 . S
C2689 H2683 0.950 . S
C2689 C2688 1.327 . S
C2689 C2693 1.429 . S
C2690 C2673 1.574 . S
C2690 H2684 0.949 . S
C2690 C2694 1.368 . S
C2691 C2672 1.429 . S
C2691 C2685 1.429 . S
C2691 C2692 1.523 . S
C2692 C2673 1.368 . S
C2692 C2686 1.368 . S
C2692 C2691 1.523 . S
C2693 C2677 1.429 . S
C2693 C2689 1.429 . S
C2693 C2694 1.523 . S
C2694 C2678 1.368 . S
C2694 C2690 1.368 . S
C2694 C2693 1.523 . S
H2695 C2670 0.950 . S
H2696 C2672 0.950 . S
H2697 C2673 0.949 . S
H2698 C2675 0.950 . S
H2699 C2677 0.950 . S
C2700 C2701 1.349 . S
C2700 C2702 1.327 . S
C2700 H2725 0.950 . S
C2701 C2700 1.349 . S
C2701 C2717 1.349 . S
C2702 C2700 1.327 . S
C2702 C2721 1.429 . S
C2702 H2726 0.950 . S
C2703 C2720 1.574 . S
C2703 C2722 1.368 . S
C2703 H2727 0.949 . S
H2704 C2708 0.949 . S
C2705 C2706 1.349 . S
C2705 C2707 1.327 . S
C2705 H2728 0.950 . S
C2706 C2705 1.349 . S
C2706 C2718 1.349 . S
C2707 C2705 1.327 . S
C2707 C2723 1.429 . S
C2707 H2729 0.950 . S
C2708 H2704 0.949 . S
C2708 C2716 1.574 . S
C2708 C2724 1.368 . S
H2709 C2717 0.950 . S
H2710 C2715 0.950 . S
H2711 C2716 0.949 . S
H2712 C2718 0.950 . S
H2713 C2719 0.950 . S
H2714 C2720 0.949 . S
C2715 H2710 0.950 . S
C2715 C2717 1.327 . S
C2715 C2721 1.429 . S
C2716 C2708 1.574 . S
C2716 H2711 0.949 . S
C2716 C2722 1.368 . S
C2717 C2701 1.349 . S
C2717 H2709 0.950 . S
C2717 C2715 1.327 . S
C2718 C2706 1.349 . S
C2718 H2712 0.950 . S
C2718 C2719 1.327 . S
C2719 H2713 0.950 . S
C2719 C2718 1.327 . S
C2719 C2723 1.429 . S
C2720 C2703 1.574 . S
C2720 H2714 0.949 . S
C2720 C2724 1.368 . S
C2721 C2702 1.429 . S
C2721 C2715 1.429 . S
C2721 C2722 1.523 . S
C2722 C2703 1.368 . S
C2722 C2716 1.368 . S
C2722 C2721 1.523 . S
C2723 C2707 1.429 . S
C2723 C2719 1.429 . S
C2723 C2724 1.523 . S
C2724 C2708 1.368 . S
C2724 C2720 1.368 . S
C2724 C2723 1.523 . S
H2725 C2700 0.950 . S
H2726 C2702 0.950 . S
H2727 C2703 0.949 . S
H2728 C2705 0.950 . S
H2729 C2707 0.950 . S
C2730 C2731 1.349 . S
C2730 C2732 1.327 . S
C2730 H2755 0.950 . S
C2731 C2730 1.349 . S
C2731 C2747 1.349 . S
C2732 C2730 1.327 . S
C2732 C2751 1.429 . S
C2732 H2756 0.950 . S
C2733 C2750 1.574 . S
C2733 C2752 1.368 . S
C2733 H2757 0.949 . S
H2734 C2738 0.949 . S
C2735 C2736 1.349 . S
C2735 C2737 1.327 . S
C2735 H2758 0.950 . S
C2736 C2735 1.349 . S
C2736 C2748 1.349 . S
C2737 C2735 1.327 . S
C2737 C2753 1.429 . S
C2737 H2759 0.950 . S
C2738 H2734 0.949 . S
C2738 C2746 1.574 . S
C2738 C2754 1.368 . S
H2739 C2747 0.950 . S
H2740 C2745 0.950 . S
H2741 C2746 0.949 . S
H2742 C2748 0.950 . S
H2743 C2749 0.950 . S
H2744 C2750 0.949 . S
C2745 H2740 0.950 . S
C2745 C2747 1.327 . S
C2745 C2751 1.429 . S
C2746 C2738 1.574 . S
C2746 H2741 0.949 . S
C2746 C2752 1.368 . S
C2747 C2731 1.349 . S
C2747 H2739 0.950 . S
C2747 C2745 1.327 . S
C2748 C2736 1.349 . S
C2748 H2742 0.950 . S
C2748 C2749 1.327 . S
C2749 H2743 0.950 . S
C2749 C2748 1.327 . S
C2749 C2753 1.429 . S
C2750 C2733 1.574 . S
C2750 H2744 0.949 . S
C2750 C2754 1.368 . S
C2751 C2732 1.429 . S
C2751 C2745 1.429 . S
C2751 C2752 1.523 . S
C2752 C2733 1.368 . S
C2752 C2746 1.368 . S
C2752 C2751 1.523 . S
C2753 C2737 1.429 . S
C2753 C2749 1.429 . S
C2753 C2754 1.523 . S
C2754 C2738 1.368 . S
C2754 C2750 1.368 . S
C2754 C2753 1.523 . S
H2755 C2730 0.950 . S
H2756 C2732 0.950 . S
H2757 C2733 0.949 . S
H2758 C2735 0.950 . S
H2759 C2737 0.950 . S
C2760 C2761 1.349 . S
C2760 C2762 1.327 . S
C2760 H2785 0.950 . S
C2761 C2760 1.349 . S
C2761 C2777 1.349 . S
C2762 C2760 1.327 . S
C2762 C2781 1.429 . S
C2762 H2786 0.950 . S
C2763 C2780 1.574 . S
C2763 C2782 1.368 . S
C2763 H2787 0.949 . S
H2764 C2768 0.949 . S
C2765 C2766 1.349 . S
C2765 C2767 1.327 . S
C2765 H2788 0.950 . S
C2766 C2765 1.349 . S
C2766 C2778 1.349 . S
C2767 C2765 1.327 . S
C2767 C2783 1.429 . S
C2767 H2789 0.950 . S
C2768 H2764 0.949 . S
C2768 C2776 1.574 . S
C2768 C2784 1.368 . S
H2769 C2777 0.950 . S
H2770 C2775 0.950 . S
H2771 C2776 0.949 . S
H2772 C2778 0.950 . S
H2773 C2779 0.950 . S
H2774 C2780 0.949 . S
C2775 H2770 0.950 . S
C2775 C2777 1.327 . S
C2775 C2781 1.429 . S
C2776 C2768 1.574 . S
C2776 H2771 0.949 . S
C2776 C2782 1.368 . S
C2777 C2761 1.349 . S
C2777 H2769 0.950 . S
C2777 C2775 1.327 . S
C2778 C2766 1.349 . S
C2778 H2772 0.950 . S
C2778 C2779 1.327 . S
C2779 H2773 0.950 . S
C2779 C2778 1.327 . S
C2779 C2783 1.429 . S
C2780 C2763 1.574 . S
C2780 H2774 0.949 . S
C2780 C2784 1.368 . S
C2781 C2762 1.429 . S
C2781 C2775 1.429 . S
C2781 C2782 1.523 . S
C2782 C2763 1.368 . S
C2782 C2776 1.368 . S
C2782 C2781 1.523 . S
C2783 C2767 1.429 . S
C2783 C2779 1.429 . S
C2783 C2784 1.523 . S
C2784 C2768 1.368 . S
C2784 C2780 1.368 . S
C2784 C2783 1.523 . S
H2785 C2760 0.950 . S
H2786 C2762 0.950 . S
H2787 C2763 0.949 . S
H2788 C2765 0.950 . S
H2789 C2767 0.950 . S
C2790 C2791 1.349 . S
C2790 C2792 1.327 . S
C2790 H2815 0.950 . S
C2791 C2790 1.349 . S
C2791 C2807 1.349 . S
C2792 C2790 1.327 . S
C2792 C2811 1.429 . S
C2792 H2816 0.950 . S
C2793 C2810 1.574 . S
C2793 C2812 1.368 . S
C2793 H2817 0.949 . S
H2794 C2798 0.949 . S
C2795 C2796 1.349 . S
C2795 C2797 1.327 . S
C2795 H2818 0.950 . S
C2796 C2795 1.349 . S
C2796 C2808 1.349 . S
C2797 C2795 1.327 . S
C2797 C2813 1.429 . S
C2797 H2819 0.950 . S
C2798 H2794 0.949 . S
C2798 C2806 1.574 . S
C2798 C2814 1.368 . S
H2799 C2807 0.950 . S
H2800 C2805 0.950 . S
H2801 C2806 0.949 . S
H2802 C2808 0.950 . S
H2803 C2809 0.950 . S
H2804 C2810 0.949 . S
C2805 H2800 0.950 . S
C2805 C2807 1.327 . S
C2805 C2811 1.429 . S
C2806 C2798 1.574 . S
C2806 H2801 0.949 . S
C2806 C2812 1.368 . S
C2807 C2791 1.349 . S
C2807 H2799 0.950 . S
C2807 C2805 1.327 . S
C2808 C2796 1.349 . S
C2808 H2802 0.950 . S
C2808 C2809 1.327 . S
C2809 H2803 0.950 . S
C2809 C2808 1.327 . S
C2809 C2813 1.429 . S
C2810 C2793 1.574 . S
C2810 H2804 0.949 . S
C2810 C2814 1.368 . S
C2811 C2792 1.429 . S
C2811 C2805 1.429 . S
C2811 C2812 1.523 . S
C2812 C2793 1.368 . S
C2812 C2806 1.368 . S
C2812 C2811 1.523 . S
C2813 C2797 1.429 . S
C2813 C2809 1.429 . S
C2813 C2814 1.523 . S
C2814 C2798 1.368 . S
C2814 C2810 1.368 . S
C2814 C2813 1.523 . S
H2815 C2790 0.950 . S
H2816 C2792 0.950 . S
H2817 C2793 0.949 . S
H2818 C2795 0.950 . S
H2819 C2797 0.950 . S
C2820 C2821 1.349 . S
C2820 C2822 1.327 . S
C2820 H2845 0.950 . S
C2821 C2820 1.349 . S
C2821 C2837 1.349 . S
C2822 C2820 1.327 . S
C2822 C2841 1.429 . S
C2822 H2846 0.950 . S
C2823 C2840 1.574 . S
C2823 C2842 1.368 . S
C2823 H2847 0.949 . S
H2824 C2828 0.949 . S
C2825 C2826 1.349 . S
C2825 C2827 1.327 . S
C2825 H2848 0.950 . S
C2826 C2825 1.349 . S
C2826 C2838 1.349 . S
C2827 C2825 1.327 . S
C2827 C2843 1.429 . S
C2827 H2849 0.950 . S
C2828 H2824 0.949 . S
C2828 C2836 1.574 . S
C2828 C2844 1.368 . S
H2829 C2837 0.950 . S
H2830 C2835 0.950 . S
H2831 C2836 0.949 . S
H2832 C2838 0.950 . S
H2833 C2839 0.950 . S
H2834 C2840 0.949 . S
C2835 H2830 0.950 . S
C2835 C2837 1.327 . S
C2835 C2841 1.429 . S
C2836 C2828 1.574 . S
C2836 H2831 0.949 . S
C2836 C2842 1.368 . S
C2837 C2821 1.349 . S
C2837 H2829 0.950 . S
C2837 C2835 1.327 . S
C2838 C2826 1.349 . S
C2838 H2832 0.950 . S
C2838 C2839 1.327 . S
C2839 H2833 0.950 . S
C2839 C2838 1.327 . S
C2839 C2843 1.429 . S
C2840 C2823 1.574 . S
C2840 H2834 0.949 . S
C2840 C2844 1.368 . S
C2841 C2822 1.429 . S
C2841 C2835 1.429 . S
C2841 C2842 1.523 . S
C2842 C2823 1.368 . S
C2842 C2836 1.368 . S
C2842 C2841 1.523 . S
C2843 C2827 1.429 . S
C2843 C2839 1.429 . S
C2843 C2844 1.523 . S
C2844 C2828 1.368 . S
C2844 C2840 1.368 . S
C2844 C2843 1.523 . S
H2845 C2820 0.950 . S
H2846 C2822 0.950 . S
H2847 C2823 0.949 . S
H2848 C2825 0.950 . S
H2849 C2827 0.950 . S
C2850 C2851 1.349 . S
C2850 C2852 1.327 . S
C2850 H2875 0.950 . S
C2851 C2850 1.349 . S
C2851 C2867 1.349 . S
C2852 C2850 1.327 . S
C2852 C2871 1.429 . S
C2852 H2876 0.950 . S
C2853 C2870 1.574 . S
C2853 C2872 1.368 . S
C2853 H2877 0.949 . S
H2854 C2858 0.949 . S
C2855 C2856 1.349 . S
C2855 C2857 1.327 . S
C2855 H2878 0.950 . S
C2856 C2855 1.349 . S
C2856 C2868 1.349 . S
C2857 C2855 1.327 . S
C2857 C2873 1.429 . S
C2857 H2879 0.950 . S
C2858 H2854 0.949 . S
C2858 C2866 1.574 . S
C2858 C2874 1.368 . S
H2859 C2867 0.950 . S
H2860 C2865 0.950 . S
H2861 C2866 0.949 . S
H2862 C2868 0.950 . S
H2863 C2869 0.950 . S
H2864 C2870 0.949 . S
C2865 H2860 0.950 . S
C2865 C2867 1.327 . S
C2865 C2871 1.429 . S
C2866 C2858 1.574 . S
C2866 H2861 0.949 . S
C2866 C2872 1.368 . S
C2867 C2851 1.349 . S
C2867 H2859 0.950 . S
C2867 C2865 1.327 . S
C2868 C2856 1.349 . S
C2868 H2862 0.950 . S
C2868 C2869 1.327 . S
C2869 H2863 0.950 . S
C2869 C2868 1.327 . S
C2869 C2873 1.429 . S
C2870 C2853 1.574 . S
C2870 H2864 0.949 . S
C2870 C2874 1.368 . S
C2871 C2852 1.429 . S
C2871 C2865 1.429 . S
C2871 C2872 1.523 . S
C2872 C2853 1.368 . S
C2872 C2866 1.368 . S
C2872 C2871 1.523 . S
C2873 C2857 1.429 . S
C2873 C2869 1.429 . S
C2873 C2874 1.523 . S
C2874 C2858 1.368 . S
C2874 C2870 1.368 . S
C2874 C2873 1.523 . S
H2875 C2850 0.950 . S
H2876 C2852 0.950 . S
H2877 C2853 0.949 . S
H2878 C2855 0.950 . S
H2879 C2857 0.950 . S
C2880 C2881 1.349 . S
C2880 C2882 1.327 1_565 S
C2880 H2905 0.950 . S
C2881 C2880 1.349 . S
C2881 C2897 1.349 . S
C2882 C2880 1.327 1_545 S
C2882 C2901 1.429 . S
C2882 H2906 0.950 . S
C2883 C2900 1.574 . S
C2883 C2902 1.368 . S
C2883 H2907 0.949 . S
H2884 C2888 0.949 . S
C2885 C2886 1.349 . S
C2885 C2887 1.327 . S
C2885 H2908 0.950 . S
C2886 C2885 1.349 . S
C2886 C2898 1.349 . S
C2887 C2885 1.327 . S
C2887 C2903 1.429 . S
C2887 H2909 0.950 . S
C2888 H2884 0.949 . S
C2888 C2896 1.574 . S
C2888 C2904 1.368 . S
H2889 C2897 0.950 . S
H2890 C2895 0.950 1_545 S
H2891 C2896 0.949 . S
H2892 C2898 0.950 . S
H2893 C2899 0.950 . S
H2894 C2900 0.949 . S
C2895 H2890 0.950 1_565 S
C2895 C2897 1.327 . S
C2895 C2901 1.429 1_565 S
C2896 C2888 1.574 . S
C2896 H2891 0.949 . S
C2896 C2902 1.368 . S
C2897 C2881 1.349 . S
C2897 H2889 0.950 . S
C2897 C2895 1.327 . S
C2898 C2886 1.349 . S
C2898 H2892 0.950 . S
C2898 C2899 1.327 . S
C2899 H2893 0.950 . S
C2899 C2898 1.327 . S
C2899 C2903 1.429 . S
C2900 C2883 1.574 . S
C2900 H2894 0.949 . S
C2900 C2904 1.368 . S
C2901 C2882 1.429 . S
C2901 C2895 1.429 1_545 S
C2901 C2902 1.523 . S
C2902 C2883 1.368 . S
C2902 C2896 1.368 . S
C2902 C2901 1.523 . S
C2903 C2887 1.429 . S
C2903 C2899 1.429 . S
C2903 C2904 1.523 . S
C2904 C2888 1.368 . S
C2904 C2900 1.368 . S
C2904 C2903 1.523 . S
H2905 C2880 0.950 . S
H2906 C2882 0.950 . S
H2907 C2883 0.949 . S
H2908 C2885 0.950 . S
H2909 C2887 0.950 . S
C2910 C2911 1.349 . S
C2910 C2912 1.327 . S
C2910 H2935 0.950 . S
C2911 C2910 1.349 . S
C2911 C2927 1.349 . S
C2912 C2910 1.327 . S
C2912 C2931 1.429 . S
C2912 H2936 0.950 . S
C2913 C2930 1.574 1_455 S
C2913 C2932 1.368 . S
C2913 H2937 0.949 . S
H2914 C2918 0.949 . S
C2915 C2916 1.349 . S
C2915 C2917 1.327 . S
C2915 H2938 0.950 . S
C2916 C2915 1.349 . S
C2916 C2928 1.349 . S
C2917 C2915 1.327 . S
C2917 C2933 1.429 . S
C2917 H2939 0.950 . S
C2918 H2914 0.949 . S
C2918 C2926 1.578 . S
C2918 C2934 1.368 . S
H2919 C2927 0.950 . S
H2920 C2925 0.950 . S
H2921 C2926 0.952 1_455 S
H2922 C2928 0.950 . S
H2923 C2929 0.950 . S
H2924 C2930 0.949 . S
C2925 H2920 0.950 . S
C2925 C2927 1.327 . S
C2925 C2931 1.429 . S
C2926 C2918 1.578 . S
C2926 H2921 0.952 1_655 S
C2926 C2932 1.361 1_655 S
C2927 C2911 1.349 . S
C2927 H2919 0.950 . S
C2927 C2925 1.327 . S
C2928 C2916 1.349 . S
C2928 H2922 0.950 . S
C2928 C2929 1.327 . S
C2929 H2923 0.950 . S
C2929 C2928 1.327 . S
C2929 C2933 1.429 . S
C2930 C2913 1.574 1_655 S
C2930 H2924 0.949 . S
C2930 C2934 1.368 . S
C2931 C2912 1.429 . S
C2931 C2925 1.429 . S
C2931 C2932 1.523 . S
C2932 C2913 1.368 . S
C2932 C2926 1.361 1_455 S
C2932 C2931 1.523 . S
C2933 C2917 1.429 . S
C2933 C2929 1.429 . S
C2933 C2934 1.523 . S
C2934 C2918 1.368 . S
C2934 C2930 1.368 . S
C2934 C2933 1.523 . S
H2935 C2910 0.950 . S
H2936 C2912 0.950 . S
H2937 C2913 0.949 . S
H2938 C2915 0.950 . S
H2939 C2917 0.950 . S
C2940 C2941 1.349 . S
C2940 C2942 1.327 . S
C2940 H2965 0.950 . S
C2941 C2940 1.349 . S
C2941 C2957 1.349 . S
C2942 C2940 1.327 . S
C2942 C2961 1.429 . S
C2942 H2966 0.950 . S
C2943 C2960 1.574 . S
C2943 C2962 1.368 . S
C2943 H2967 0.949 . S
H2944 C2948 0.949 . S
C2945 C2946 1.348 . S
C2945 C2947 1.330 1_455 S
C2945 H2968 0.948 . S
C2946 C2945 1.348 . S
C2946 C2958 1.349 . S
C2947 C2945 1.330 1_655 S
C2947 C2963 1.429 . S
C2947 H2969 0.950 . S
C2948 H2944 0.949 . S
C2948 C2956 1.574 . S
C2948 C2964 1.368 . S
H2949 C2957 0.950 . S
H2950 C2955 0.950 . S
H2951 C2956 0.949 . S
H2952 C2958 0.950 . S
H2953 C2959 0.950 . S
H2954 C2960 0.949 . S
C2955 H2950 0.950 . S
C2955 C2957 1.327 . S
C2955 C2961 1.429 . S
C2956 C2948 1.574 . S
C2956 H2951 0.949 . S
C2956 C2962 1.368 . S
C2957 C2941 1.349 . S
C2957 H2949 0.950 . S
C2957 C2955 1.327 . S
C2958 C2946 1.349 . S
C2958 H2952 0.950 . S
C2958 C2959 1.327 1_455 S
C2959 H2953 0.950 . S
C2959 C2958 1.327 1_655 S
C2959 C2963 1.429 . S
C2960 C2943 1.574 . S
C2960 H2954 0.949 . S
C2960 C2964 1.368 . S
C2961 C2942 1.429 . S
C2961 C2955 1.429 . S
C2961 C2962 1.523 . S
C2962 C2943 1.368 . S
C2962 C2956 1.368 . S
C2962 C2961 1.523 . S
C2963 C2947 1.429 . S
C2963 C2959 1.429 . S
C2963 C2964 1.523 . S
C2964 C2948 1.368 . S
C2964 C2960 1.368 . S
C2964 C2963 1.523 . S
H2965 C2940 0.950 . S
H2966 C2942 0.950 . S
H2967 C2943 0.949 . S
H2968 C2945 0.948 . S
H2969 C2947 0.950 . S
C2970 C2971 1.349 . S
C2970 C2972 1.327 . S
C2970 H2995 0.950 . S
C2971 C2970 1.349 . S
C2971 C2987 1.349 . S
C2972 C2970 1.327 . S
C2972 C2991 1.429 . S
C2972 H2996 0.950 . S
C2973 C2990 1.574 . S
C2973 C2992 1.368 . S
C2973 H2997 0.949 . S
H2974 C2978 0.949 . S
C2975 C2976 1.349 . S
C2975 C2977 1.327 . S
C2975 H2998 0.950 . S
C2976 C2975 1.349 . S
C2976 C2988 1.349 . S
C2977 C2975 1.327 . S
C2977 C2993 1.429 . S
C2977 H2999 0.950 . S
C2978 H2974 0.949 . S
C2978 C2986 1.574 . S
C2978 C2994 1.368 . S
H2979 C2987 0.950 . S
H2980 C2985 0.950 . S
H2981 C2986 0.949 . S
H2982 C2988 0.950 . S
H2983 C2989 0.950 . S
H2984 C2990 0.949 . S
C2985 H2980 0.950 . S
C2985 C2987 1.327 . S
C2985 C2991 1.429 . S
C2986 C2978 1.574 . S
C2986 H2981 0.949 . S
C2986 C2992 1.368 . S
C2987 C2971 1.349 . S
C2987 H2979 0.950 . S
C2987 C2985 1.327 . S
C2988 C2976 1.349 . S
C2988 H2982 0.950 . S
C2988 C2989 1.327 . S
C2989 H2983 0.950 . S
C2989 C2988 1.327 . S
C2989 C2993 1.429 . S
C2990 C2973 1.574 . S
C2990 H2984 0.949 . S
C2990 C2994 1.368 . S
C2991 C2972 1.429 . S
C2991 C2985 1.429 . S
C2991 C2992 1.523 . S
C2992 C2973 1.368 . S
C2992 C2986 1.368 . S
C2992 C2991 1.523 . S
C2993 C2977 1.429 . S
C2993 C2989 1.429 . S
C2993 C2994 1.523 . S
C2994 C2978 1.368 . S
C2994 C2990 1.368 . S
C2994 C2993 1.523 . S
H2995 C2970 0.950 . S
H2996 C2972 0.950 . S
H2997 C2973 0.949 . S
H2998 C2975 0.950 . S
H2999 C2977 0.950 . S
C3000 C3001 1.349 . S
C3000 C3002 1.327 . S
C3000 H3025 0.950 . S
C3001 C3000 1.349 . S
C3001 C3017 1.349 . S
C3002 C3000 1.327 . S
C3002 C3021 1.429 . S
C3002 H3026 0.950 . S
C3003 C3020 1.574 . S
C3003 C3022 1.368 . S
C3003 H3027 0.949 . S
H3004 C3008 0.949 . S
C3005 C3006 1.349 . S
C3005 C3007 1.327 . S
C3005 H3028 0.950 . S
C3006 C3005 1.349 . S
C3006 C3018 1.349 . S
C3007 C3005 1.327 . S
C3007 C3023 1.429 . S
C3007 H3029 0.950 . S
C3008 H3004 0.949 . S
C3008 C3016 1.574 . S
C3008 C3024 1.368 . S
H3009 C3017 0.950 . S
H3010 C3015 0.950 . S
H3011 C3016 0.949 . S
H3012 C3018 0.950 . S
H3013 C3019 0.950 . S
H3014 C3020 0.949 . S
C3015 H3010 0.950 . S
C3015 C3017 1.327 . S
C3015 C3021 1.429 . S
C3016 C3008 1.574 . S
C3016 H3011 0.949 . S
C3016 C3022 1.368 . S
C3017 C3001 1.349 . S
C3017 H3009 0.950 . S
C3017 C3015 1.327 . S
C3018 C3006 1.349 . S
C3018 H3012 0.950 . S
C3018 C3019 1.327 . S
C3019 H3013 0.950 . S
C3019 C3018 1.327 . S
C3019 C3023 1.429 . S
C3020 C3003 1.574 . S
C3020 H3014 0.949 . S
C3020 C3024 1.368 . S
C3021 C3002 1.429 . S
C3021 C3015 1.429 . S
C3021 C3022 1.523 . S
C3022 C3003 1.368 . S
C3022 C3016 1.368 . S
C3022 C3021 1.523 . S
C3023 C3007 1.429 . S
C3023 C3019 1.429 . S
C3023 C3024 1.523 . S
C3024 C3008 1.368 . S
C3024 C3020 1.368 . S
C3024 C3023 1.523 . S
H3025 C3000 0.950 . S
H3026 C3002 0.950 . S
H3027 C3003 0.949 . S
H3028 C3005 0.950 . S
H3029 C3007 0.950 . S
C3030 C3031 1.349 . S
C3030 C3032 1.327 . S
C3030 H3055 0.950 . S
C3031 C3030 1.349 . S
C3031 C3047 1.349 . S
C3032 C3030 1.327 . S
C3032 C3051 1.429 . S
C3032 H3056 0.950 . S
C3033 C3050 1.574 . S
C3033 C3052 1.368 . S
C3033 H3057 0.949 . S
H3034 C3038 0.949 . S
C3035 C3036 1.349 . S
C3035 C3037 1.327 . S
C3035 H3058 0.950 . S
C3036 C3035 1.349 . S
C3036 C3048 1.349 . S
C3037 C3035 1.327 . S
C3037 C3053 1.429 . S
C3037 H3059 0.950 . S
C3038 H3034 0.949 . S
C3038 C3046 1.574 . S
C3038 C3054 1.368 . S
H3039 C3047 0.950 . S
H3040 C3045 0.950 . S
H3041 C3046 0.949 . S
H3042 C3048 0.950 . S
H3043 C3049 0.950 . S
H3044 C3050 0.949 . S
C3045 H3040 0.950 . S
C3045 C3047 1.327 . S
C3045 C3051 1.429 . S
C3046 C3038 1.574 . S
C3046 H3041 0.949 . S
C3046 C3052 1.368 . S
C3047 C3031 1.349 . S
C3047 H3039 0.950 . S
C3047 C3045 1.327 . S
C3048 C3036 1.349 . S
C3048 H3042 0.950 . S
C3048 C3049 1.327 . S
C3049 H3043 0.950 . S
C3049 C3048 1.327 . S
C3049 C3053 1.429 . S
C3050 C3033 1.574 . S
C3050 H3044 0.949 . S
C3050 C3054 1.368 . S
C3051 C3032 1.429 . S
C3051 C3045 1.429 . S
C3051 C3052 1.523 . S
C3052 C3033 1.368 . S
C3052 C3046 1.368 . S
C3052 C3051 1.523 . S
C3053 C3037 1.429 . S
C3053 C3049 1.429 . S
C3053 C3054 1.523 . S
C3054 C3038 1.368 . S
C3054 C3050 1.368 . S
C3054 C3053 1.523 . S
H3055 C3030 0.950 . S
H3056 C3032 0.950 . S
H3057 C3033 0.949 . S
H3058 C3035 0.950 . S
H3059 C3037 0.950 . S
C3060 C3061 1.349 . S
C3060 C3062 1.327 . S
C3060 H3085 0.950 . S
C3061 C3060 1.349 . S
C3061 C3077 1.349 . S
C3062 C3060 1.327 . S
C3062 C3081 1.429 . S
C3062 H3086 0.950 . S
C3063 C3080 1.574 . S
C3063 C3082 1.368 . S
C3063 H3087 0.949 . S
H3064 C3068 0.949 . S
C3065 C3066 1.349 . S
C3065 C3067 1.327 . S
C3065 H3088 0.950 . S
C3066 C3065 1.349 . S
C3066 C3078 1.349 . S
C3067 C3065 1.327 . S
C3067 C3083 1.429 . S
C3067 H3089 0.950 . S
C3068 H3064 0.949 . S
C3068 C3076 1.574 . S
C3068 C3084 1.368 . S
H3069 C3077 0.950 . S
H3070 C3075 0.950 . S
H3071 C3076 0.949 . S
H3072 C3078 0.950 . S
H3073 C3079 0.950 . S
H3074 C3080 0.949 . S
C3075 H3070 0.950 . S
C3075 C3077 1.327 . S
C3075 C3081 1.429 . S
C3076 C3068 1.574 . S
C3076 H3071 0.949 . S
C3076 C3082 1.368 . S
C3077 C3061 1.349 . S
C3077 H3069 0.950 . S
C3077 C3075 1.327 . S
C3078 C3066 1.349 . S
C3078 H3072 0.950 . S
C3078 C3079 1.327 . S
C3079 H3073 0.950 . S
C3079 C3078 1.327 . S
C3079 C3083 1.429 . S
C3080 C3063 1.574 . S
C3080 H3074 0.949 . S
C3080 C3084 1.368 . S
C3081 C3062 1.429 . S
C3081 C3075 1.429 . S
C3081 C3082 1.523 . S
C3082 C3063 1.368 . S
C3082 C3076 1.368 . S
C3082 C3081 1.523 . S
C3083 C3067 1.429 . S
C3083 C3079 1.429 . S
C3083 C3084 1.523 . S
C3084 C3068 1.368 . S
C3084 C3080 1.368 . S
C3084 C3083 1.523 . S
H3085 C3060 0.950 . S
H3086 C3062 0.950 . S
H3087 C3063 0.949 . S
H3088 C3065 0.950 . S
H3089 C3067 0.950 . S
C3090 C3091 1.349 . S
C3090 C3092 1.327 . S
C3090 H3115 0.950 . S
C3091 C3090 1.349 . S
C3091 C3107 1.349 . S
C3092 C3090 1.327 . S
C3092 C3111 1.429 . S
C3092 H3116 0.950 . S
C3093 C3110 1.574 . S
C3093 C3112 1.368 . S
C3093 H3117 0.949 . S
H3094 C3098 0.949 . S
C3095 C3096 1.349 . S
C3095 C3097 1.327 . S
C3095 H3118 0.950 . S
C3096 C3095 1.349 . S
C3096 C3108 1.349 . S
C3097 C3095 1.327 . S
C3097 C3113 1.429 . S
C3097 H3119 0.950 . S
C3098 H3094 0.949 . S
C3098 C3106 1.574 . S
C3098 C3114 1.368 . S
H3099 C3107 0.950 . S
H3100 C3105 0.950 . S
H3101 C3106 0.949 . S
H3102 C3108 0.950 . S
H3103 C3109 0.950 . S
H3104 C3110 0.949 . S
C3105 H3100 0.950 . S
C3105 C3107 1.327 . S
C3105 C3111 1.429 . S
C3106 C3098 1.574 . S
C3106 H3101 0.949 . S
C3106 C3112 1.368 . S
C3107 C3091 1.349 . S
C3107 H3099 0.950 . S
C3107 C3105 1.327 . S
C3108 C3096 1.349 . S
C3108 H3102 0.950 . S
C3108 C3109 1.327 . S
C3109 H3103 0.950 . S
C3109 C3108 1.327 . S
C3109 C3113 1.429 . S
C3110 C3093 1.574 . S
C3110 H3104 0.949 . S
C3110 C3114 1.368 . S
C3111 C3092 1.429 . S
C3111 C3105 1.429 . S
C3111 C3112 1.523 . S
C3112 C3093 1.368 . S
C3112 C3106 1.368 . S
C3112 C3111 1.523 . S
C3113 C3097 1.429 . S
C3113 C3109 1.429 . S
C3113 C3114 1.523 . S
C3114 C3098 1.368 . S
C3114 C3110 1.368 . S
C3114 C3113 1.523 . S
H3115 C3090 0.950 . S
H3116 C3092 0.950 . S
H3117 C3093 0.949 . S
H3118 C3095 0.950 . S
H3119 C3097 0.950 . S
C3120 C3121 1.349 . S
C3120 C3122 1.327 . S
C3120 H3145 0.950 . S
C3121 C3120 1.349 . S
C3121 C3137 1.349 . S
C3122 C3120 1.327 . S
C3122 C3141 1.429 . S
C3122 H3146 0.950 . S
C3123 C3140 1.574 . S
C3123 C3142 1.368 . S
C3123 H3147 0.949 . S
H3124 C3128 0.949 . S
C3125 C3126 1.349 . S
C3125 C3127 1.327 . S
C3125 H3148 0.950 . S
C3126 C3125 1.349 . S
C3126 C3138 1.349 . S
C3127 C3125 1.327 . S
C3127 C3143 1.429 . S
C3127 H3149 0.950 . S
C3128 H3124 0.949 . S
C3128 C3136 1.574 . S
C3128 C3144 1.368 . S
H3129 C3137 0.950 . S
H3130 C3135 0.950 . S
H3131 C3136 0.949 . S
H3132 C3138 0.950 . S
H3133 C3139 0.950 . S
H3134 C3140 0.949 . S
C3135 H3130 0.950 . S
C3135 C3137 1.327 . S
C3135 C3141 1.429 . S
C3136 C3128 1.574 . S
C3136 H3131 0.949 . S
C3136 C3142 1.368 . S
C3137 C3121 1.349 . S
C3137 H3129 0.950 . S
C3137 C3135 1.327 . S
C3138 C3126 1.349 . S
C3138 H3132 0.950 . S
C3138 C3139 1.327 . S
C3139 H3133 0.950 . S
C3139 C3138 1.327 . S
C3139 C3143 1.429 . S
C3140 C3123 1.574 . S
C3140 H3134 0.949 . S
C3140 C3144 1.368 . S
C3141 C3122 1.429 . S
C3141 C3135 1.429 . S
C3141 C3142 1.523 . S
C3142 C3123 1.368 . S
C3142 C3136 1.368 . S
C3142 C3141 1.523 . S
C3143 C3127 1.429 . S
C3143 C3139 1.429 . S
C3143 C3144 1.523 . S
C3144 C3128 1.368 . S
C3144 C3140 1.368 . S
C3144 C3143 1.523 . S
H3145 C3120 0.950 . S
H3146 C3122 0.950 . S
H3147 C3123 0.949 . S
H3148 C3125 0.950 . S
H3149 C3127 0.950 . S
C3150 C3151 1.349 . S
C3150 C3152 1.327 . S
C3150 H3175 0.950 . S
C3151 C3150 1.349 . S
C3151 C3167 1.349 . S
C3152 C3150 1.327 . S
C3152 C3171 1.429 . S
C3152 H3176 0.950 . S
C3153 C3170 1.574 . S
C3153 C3172 1.368 1_655 S
C3153 H3177 0.949 . S
H3154 C3158 0.949 . S
C3155 C3156 1.349 . S
C3155 C3157 1.327 . S
C3155 H3178 0.950 . S
C3156 C3155 1.349 . S
C3156 C3168 1.349 . S
C3157 C3155 1.327 . S
C3157 C3173 1.429 . S
C3157 H3179 0.950 . S
C3158 H3154 0.949 . S
C3158 C3166 1.574 1_655 S
C3158 C3174 1.368 . S
H3159 C3167 0.950 . S
H3160 C3165 0.950 . S
H3161 C3166 0.949 . S
H3162 C3168 0.950 . S
H3163 C3169 0.950 . S
H3164 C3170 0.949 . S
C3165 H3160 0.950 . S
C3165 C3167 1.327 . S
C3165 C3171 1.429 . S
C3166 C3158 1.574 1_455 S
C3166 H3161 0.949 . S
C3166 C3172 1.368 . S
C3167 C3151 1.349 . S
C3167 H3159 0.950 . S
C3167 C3165 1.327 . S
C3168 C3156 1.349 . S
C3168 H3162 0.950 . S
C3168 C3169 1.327 . S
C3169 H3163 0.950 . S
C3169 C3168 1.327 . S
C3169 C3173 1.429 . S
C3170 C3153 1.574 . S
C3170 H3164 0.949 . S
C3170 C3174 1.368 . S
C3171 C3152 1.429 . S
C3171 C3165 1.429 . S
C3171 C3172 1.523 . S
C3172 C3153 1.368 1_455 S
C3172 C3166 1.368 . S
C3172 C3171 1.523 . S
C3173 C3157 1.429 . S
C3173 C3169 1.429 . S
C3173 C3174 1.523 . S
C3174 C3158 1.368 . S
C3174 C3170 1.368 . S
C3174 C3173 1.523 . S
H3175 C3150 0.950 . S
H3176 C3152 0.950 . S
H3177 C3153 0.949 . S
H3178 C3155 0.950 . S
H3179 C3157 0.950 . S
C3180 C3181 1.349 . S
C3180 C3182 1.327 . S
C3180 H3205 0.950 . S
C3181 C3180 1.349 . S
C3181 C3197 1.349 . S
C3182 C3180 1.327 . S
C3182 C3201 1.429 . S
C3182 H3206 0.950 . S
C3183 C3200 1.574 . S
C3183 C3202 1.368 . S
C3183 H3207 0.949 . S
H3184 C3188 0.949 . S
C3185 C3186 1.349 . S
C3185 C3187 1.327 . S
C3185 H3208 0.950 . S
C3186 C3185 1.349 . S
C3186 C3198 1.349 . S
C3187 C3185 1.327 . S
C3187 C3203 1.429 . S
C3187 H3209 0.950 . S
C3188 H3184 0.949 . S
C3188 C3196 1.574 . S
C3188 C3204 1.368 . S
H3189 C3197 0.950 . S
H3190 C3195 0.950 . S
H3191 C3196 0.949 . S
H3192 C3198 0.950 . S
H3193 C3199 0.950 . S
H3194 C3200 0.949 . S
C3195 H3190 0.950 . S
C3195 C3197 1.327 . S
C3195 C3201 1.429 . S
C3196 C3188 1.574 . S
C3196 H3191 0.949 . S
C3196 C3202 1.368 . S
C3197 C3181 1.349 . S
C3197 H3189 0.950 . S
C3197 C3195 1.327 . S
C3198 C3186 1.349 . S
C3198 H3192 0.950 . S
C3198 C3199 1.327 . S
C3199 H3193 0.950 . S
C3199 C3198 1.327 . S
C3199 C3203 1.429 . S
C3200 C3183 1.574 . S
C3200 H3194 0.949 . S
C3200 C3204 1.368 . S
C3201 C3182 1.429 . S
C3201 C3195 1.429 . S
C3201 C3202 1.523 . S
C3202 C3183 1.368 . S
C3202 C3196 1.368 . S
C3202 C3201 1.523 . S
C3203 C3187 1.429 . S
C3203 C3199 1.429 . S
C3203 C3204 1.523 . S
C3204 C3188 1.368 . S
C3204 C3200 1.368 . S
C3204 C3203 1.523 . S
H3205 C3180 0.950 . S
H3206 C3182 0.950 . S
H3207 C3183 0.949 . S
H3208 C3185 0.950 . S
H3209 C3187 0.950 . S
C3210 C3211 1.349 . S
C3210 C3212 1.327 1_565 S
C3210 H3235 0.950 . S
C3211 C3210 1.349 . S
C3211 C3227 1.349 . S
C3212 C3210 1.327 1_545 S
C3212 C3231 1.429 . S
C3212 H3236 0.950 . S
C3213 C3230 1.574 . S
C3213 C3232 1.368 . S
C3213 H3237 0.949 . S
H3214 C3218 0.949 . S
C3215 C3216 1.349 . S
C3215 C3217 1.327 1_455 S
C3215 H3238 0.950 . S
C3216 C3215 1.349 . S
C3216 C3228 1.349 . S
C3217 C3215 1.327 1_655 S
C3217 C3233 1.429 . S
C3217 H3239 0.950 . S
C3218 H3214 0.949 . S
C3218 C3226 1.574 . S
C3218 C3234 1.368 . S
H3219 C3227 0.950 . S
H3220 C3225 0.950 . S
H3221 C3226 0.949 . S
H3222 C3228 0.950 . S
H3223 C3229 0.950 . S
H3224 C3230 0.949 . S
C3225 H3220 0.950 . S
C3225 C3227 1.327 . S
C3225 C3231 1.429 1_565 S
C3226 C3218 1.574 . S
C3226 H3221 0.949 . S
C3226 C3232 1.368 . S
C3227 C3211 1.349 . S
C3227 H3219 0.950 . S
C3227 C3225 1.327 . S
C3228 C3216 1.349 . S
C3228 H3222 0.950 . S
C3228 C3229 1.327 1_455 S
C3229 H3223 0.950 . S
C3229 C3228 1.327 1_655 S
C3229 C3233 1.429 . S
C3230 C3213 1.574 . S
C3230 H3224 0.949 . S
C3230 C3234 1.368 . S
C3231 C3212 1.429 . S
C3231 C3225 1.429 1_545 S
C3231 C3232 1.523 . S
C3232 C3213 1.368 . S
C3232 C3226 1.368 . S
C3232 C3231 1.523 . S
C3233 C3217 1.429 . S
C3233 C3229 1.429 . S
C3233 C3234 1.523 . S
C3234 C3218 1.368 . S
C3234 C3230 1.368 . S
C3234 C3233 1.523 . S
H3235 C3210 0.950 . S
H3236 C3212 0.950 . S
H3237 C3213 0.949 . S
H3238 C3215 0.950 . S
H3239 C3217 0.950 . S
C3240 C3241 1.349 . S
C3240 C3242 1.327 . S
C3240 H3265 0.950 . S
C3241 C3240 1.349 . S
C3241 C3257 1.349 . S
C3242 C3240 1.327 . S
C3242 C3261 1.429 . S
C3242 H3266 0.950 . S
C3243 C3260 1.574 . S
C3243 C3262 1.368 . S
C3243 H3267 0.949 . S
H3244 C3248 0.949 . S
C3245 C3246 1.349 . S
C3245 C3247 1.327 . S
C3245 H3268 0.950 . S
C3246 C3245 1.349 . S
C3246 C3258 1.349 . S
C3247 C3245 1.327 . S
C3247 C3263 1.429 . S
C3247 H3269 0.950 . S
C3248 H3244 0.949 . S
C3248 C3256 1.574 . S
C3248 C3264 1.368 . S
H3249 C3257 0.950 . S
H3250 C3255 0.950 . S
H3251 C3256 0.949 . S
H3252 C3258 0.950 . S
H3253 C3259 0.950 . S
H3254 C3260 0.949 . S
C3255 H3250 0.950 . S
C3255 C3257 1.327 . S
C3255 C3261 1.429 . S
C3256 C3248 1.574 . S
C3256 H3251 0.949 . S
C3256 C3262 1.368 . S
C3257 C3241 1.349 . S
C3257 H3249 0.950 . S
C3257 C3255 1.327 . S
C3258 C3246 1.349 . S
C3258 H3252 0.950 . S
C3258 C3259 1.327 . S
C3259 H3253 0.950 . S
C3259 C3258 1.327 . S
C3259 C3263 1.429 . S
C3260 C3243 1.574 . S
C3260 H3254 0.949 . S
C3260 C3264 1.368 . S
C3261 C3242 1.429 . S
C3261 C3255 1.429 . S
C3261 C3262 1.523 . S
C3262 C3243 1.368 . S
C3262 C3256 1.368 . S
C3262 C3261 1.523 . S
C3263 C3247 1.429 . S
C3263 C3259 1.429 . S
C3263 C3264 1.523 . S
C3264 C3248 1.368 . S
C3264 C3260 1.368 . S
C3264 C3263 1.523 . S
H3265 C3240 0.950 . S
H3266 C3242 0.950 . S
H3267 C3243 0.949 . S
H3268 C3245 0.950 . S
H3269 C3247 0.950 . S
C3270 C3271 1.349 . S
C3270 C3272 1.327 . S
C3270 H3295 0.950 . S
C3271 C3270 1.349 . S
C3271 C3287 1.349 . S
C3272 C3270 1.327 . S
C3272 C3291 1.429 . S
C3272 H3296 0.950 . S
C3273 C3290 1.574 . S
C3273 C3292 1.368 . S
C3273 H3297 0.949 . S
H3274 C3278 0.949 . S
C3275 C3276 1.349 . S
C3275 C3277 1.327 . S
C3275 H3298 0.950 . S
C3276 C3275 1.349 . S
C3276 C3288 1.349 . S
C3277 C3275 1.327 . S
C3277 C3293 1.429 . S
C3277 H3299 0.950 . S
C3278 H3274 0.949 . S
C3278 C3286 1.574 . S
C3278 C3294 1.368 . S
H3279 C3287 0.950 . S
H3280 C3285 0.950 . S
H3281 C3286 0.949 . S
H3282 C3288 0.950 . S
H3283 C3289 0.950 . S
H3284 C3290 0.949 . S
C3285 H3280 0.950 . S
C3285 C3287 1.327 . S
C3285 C3291 1.429 . S
C3286 C3278 1.574 . S
C3286 H3281 0.949 . S
C3286 C3292 1.368 . S
C3287 C3271 1.349 . S
C3287 H3279 0.950 . S
C3287 C3285 1.327 . S
C3288 C3276 1.349 . S
C3288 H3282 0.950 . S
C3288 C3289 1.327 . S
C3289 H3283 0.950 . S
C3289 C3288 1.327 . S
C3289 C3293 1.429 . S
C3290 C3273 1.574 . S
C3290 H3284 0.949 . S
C3290 C3294 1.368 . S
C3291 C3272 1.429 . S
C3291 C3285 1.429 . S
C3291 C3292 1.523 . S
C3292 C3273 1.368 . S
C3292 C3286 1.368 . S
C3292 C3291 1.523 . S
C3293 C3277 1.429 . S
C3293 C3289 1.429 . S
C3293 C3294 1.523 . S
C3294 C3278 1.368 . S
C3294 C3290 1.368 . S
C3294 C3293 1.523 . S
H3295 C3270 0.950 . S
H3296 C3272 0.950 . S
H3297 C3273 0.949 . S
H3298 C3275 0.950 . S
H3299 C3277 0.950 . S
C3300 C3301 1.349 . S
C3300 C3302 1.327 . S
C3300 H3325 0.950 . S
C3301 C3300 1.349 . S
C3301 C3317 1.349 . S
C3302 C3300 1.327 . S
C3302 C3321 1.429 . S
C3302 H3326 0.950 . S
C3303 C3320 1.574 . S
C3303 C3322 1.368 . S
C3303 H3327 0.949 . S
H3304 C3308 0.949 . S
C3305 C3306 1.349 . S
C3305 C3307 1.327 . S
C3305 H3328 0.950 . S
C3306 C3305 1.349 . S
C3306 C3318 1.349 . S
C3307 C3305 1.327 . S
C3307 C3323 1.429 . S
C3307 H3329 0.950 . S
C3308 H3304 0.949 . S
C3308 C3316 1.574 . S
C3308 C3324 1.368 . S
H3309 C3317 0.950 . S
H3310 C3315 0.950 . S
H3311 C3316 0.949 . S
H3312 C3318 0.950 . S
H3313 C3319 0.950 . S
H3314 C3320 0.949 . S
C3315 H3310 0.950 . S
C3315 C3317 1.327 . S
C3315 C3321 1.429 . S
C3316 C3308 1.574 . S
C3316 H3311 0.949 . S
C3316 C3322 1.368 . S
C3317 C3301 1.349 . S
C3317 H3309 0.950 . S
C3317 C3315 1.327 . S
C3318 C3306 1.349 . S
C3318 H3312 0.950 . S
C3318 C3319 1.327 . S
C3319 H3313 0.950 . S
C3319 C3318 1.327 . S
C3319 C3323 1.429 . S
C3320 C3303 1.574 . S
C3320 H3314 0.949 . S
C3320 C3324 1.368 . S
C3321 C3302 1.429 . S
C3321 C3315 1.429 . S
C3321 C3322 1.523 . S
C3322 C3303 1.368 . S
C3322 C3316 1.368 . S
C3322 C3321 1.523 . S
C3323 C3307 1.429 . S
C3323 C3319 1.429 . S
C3323 C3324 1.523 . S
C3324 C3308 1.368 . S
C3324 C3320 1.368 . S
C3324 C3323 1.523 . S
H3325 C3300 0.950 . S
H3326 C3302 0.950 . S
H3327 C3303 0.949 . S
H3328 C3305 0.950 . S
H3329 C3307 0.950 . S
C3330 C3331 1.349 . S
C3330 C3332 1.327 . S
C3330 H3355 0.950 . S
C3331 C3330 1.349 . S
C3331 C3347 1.349 . S
C3332 C3330 1.327 . S
C3332 C3351 1.429 . S
C3332 H3356 0.950 . S
C3333 C3350 1.574 . S
C3333 C3352 1.368 . S
C3333 H3357 0.949 . S
H3334 C3338 0.949 . S
C3335 C3336 1.349 . S
C3335 C3337 1.327 1_655 S
C3335 H3358 0.950 . S
C3336 C3335 1.349 . S
C3336 C3348 1.349 . S
C3337 C3335 1.327 1_455 S
C3337 C3353 1.429 . S
C3337 H3359 0.950 . S
C3338 H3334 0.949 . S
C3338 C3346 1.574 . S
C3338 C3354 1.368 . S
H3339 C3347 0.950 . S
H3340 C3345 0.950 . S
H3341 C3346 0.949 . S
H3342 C3348 0.950 . S
H3343 C3349 0.950 1_455 S
H3344 C3350 0.949 . S
C3345 H3340 0.950 . S
C3345 C3347 1.327 . S
C3345 C3351 1.429 . S
C3346 C3338 1.574 . S
C3346 H3341 0.949 . S
C3346 C3352 1.368 . S
C3347 C3331 1.349 . S
C3347 H3339 0.950 . S
C3347 C3345 1.327 . S
C3348 C3336 1.349 . S
C3348 H3342 0.950 . S
C3348 C3349 1.327 . S
C3349 H3343 0.950 1_655 S
C3349 C3348 1.327 . S
C3349 C3353 1.429 1_655 S
C3350 C3333 1.574 . S
C3350 H3344 0.949 . S
C3350 C3354 1.368 . S
C3351 C3332 1.429 . S
C3351 C3345 1.429 . S
C3351 C3352 1.523 . S
C3352 C3333 1.368 . S
C3352 C3346 1.368 . S
C3352 C3351 1.523 . S
C3353 C3337 1.429 . S
C3353 C3349 1.429 1_455 S
C3353 C3354 1.523 . S
C3354 C3338 1.368 . S
C3354 C3350 1.368 . S
C3354 C3353 1.523 . S
H3355 C3330 0.950 . S
H3356 C3332 0.950 . S
H3357 C3333 0.949 . S
H3358 C3335 0.950 . S
H3359 C3337 0.950 . S
C3360 C3361 1.349 . S
C3360 C3362 1.327 1_545 S
C3360 H3385 0.950 . S
C3361 C3360 1.349 . S
C3361 C3377 1.349 . S
C3362 C3360 1.327 1_565 S
C3362 C3381 1.429 . S
C3362 H3386 0.950 . S
C3363 C3380 1.574 . S
C3363 C3382 1.368 . S
C3363 H3387 0.949 . S
H3364 C3368 0.949 . S
C3365 C3366 1.349 . S
C3365 C3367 1.327 . S
C3365 H3388 0.950 . S
C3366 C3365 1.349 . S
C3366 C3378 1.349 . S
C3367 C3365 1.327 . S
C3367 C3383 1.429 . S
C3367 H3389 0.950 . S
C3368 H3364 0.949 . S
C3368 C3376 1.574 . S
C3368 C3384 1.368 . S
H3369 C3377 0.950 . S
H3370 C3375 0.950 . S
H3371 C3376 0.949 . S
H3372 C3378 0.950 . S
H3373 C3379 0.950 . S
H3374 C3380 0.949 . S
C3375 H3370 0.950 . S
C3375 C3377 1.327 1_565 S
C3375 C3381 1.429 . S
C3376 C3368 1.574 . S
C3376 H3371 0.949 . S
C3376 C3382 1.368 . S
C3377 C3361 1.349 . S
C3377 H3369 0.950 . S
C3377 C3375 1.327 1_545 S
C3378 C3366 1.349 . S
C3378 H3372 0.950 . S
C3378 C3379 1.327 . S
C3379 H3373 0.950 . S
C3379 C3378 1.327 . S
C3379 C3383 1.429 . S
C3380 C3363 1.574 . S
C3380 H3374 0.949 . S
C3380 C3384 1.368 . S
C3381 C3362 1.429 . S
C3381 C3375 1.429 . S
C3381 C3382 1.523 . S
C3382 C3363 1.368 . S
C3382 C3376 1.368 . S
C3382 C3381 1.523 . S
C3383 C3367 1.429 . S
C3383 C3379 1.429 . S
C3383 C3384 1.523 . S
C3384 C3368 1.368 . S
C3384 C3380 1.368 . S
C3384 C3383 1.523 . S
H3385 C3360 0.950 . S
H3386 C3362 0.950 . S
H3387 C3363 0.949 . S
H3388 C3365 0.950 . S
H3389 C3367 0.950 . S
C3390 C3391 1.349 . S
C3390 C3392 1.327 . S
C3390 H3415 0.950 . S
C3391 C3390 1.349 . S
C3391 C3407 1.349 . S
C3392 C3390 1.327 . S
C3392 C3411 1.429 . S
C3392 H3416 0.950 . S
C3393 C3410 1.574 1_545 S
C3393 C3412 1.368 . S
C3393 H3417 0.949 . S
H3394 C3398 0.949 . S
C3395 C3396 1.349 . S
C3395 C3397 1.327 . S
C3395 H3418 0.950 . S
C3396 C3395 1.349 . S
C3396 C3408 1.349 . S
C3397 C3395 1.327 . S
C3397 C3413 1.429 . S
C3397 H3419 0.950 . S
C3398 H3394 0.949 . S
C3398 C3406 1.580 . S
C3398 C3414 1.368 . S
H3399 C3407 0.950 . S
H3400 C3405 0.950 . S
H3401 C3406 0.953 1_545 S
H3402 C3408 0.950 . S
H3403 C3409 0.950 . S
H3404 C3410 0.949 . S
C3405 H3400 0.950 . S
C3405 C3407 1.327 . S
C3405 C3411 1.429 . S
C3406 C3398 1.580 . S
C3406 H3401 0.953 1_565 S
C3406 C3412 1.358 1_565 S
C3407 C3391 1.349 . S
C3407 H3399 0.950 . S
C3407 C3405 1.327 . S
C3408 C3396 1.349 . S
C3408 H3402 0.950 . S
C3408 C3409 1.327 . S
C3409 H3403 0.950 . S
C3409 C3408 1.327 . S
C3409 C3413 1.429 . S
C3410 C3393 1.574 1_565 S
C3410 H3404 0.949 . S
C3410 C3414 1.368 . S
C3411 C3392 1.429 . S
C3411 C3405 1.429 . S
C3411 C3412 1.523 . S
C3412 C3393 1.368 . S
C3412 C3406 1.358 1_545 S
C3412 C3411 1.523 . S
C3413 C3397 1.429 . S
C3413 C3409 1.429 . S
C3413 C3414 1.523 . S
C3414 C3398 1.368 . S
C3414 C3410 1.368 . S
C3414 C3413 1.523 . S
H3415 C3390 0.950 . S
H3416 C3392 0.950 . S
H3417 C3393 0.949 . S
H3418 C3395 0.950 . S
H3419 C3397 0.950 . S
C3420 C3421 1.349 . S
C3420 C3422 1.327 . S
C3420 H3445 0.950 . S
C3421 C3420 1.349 . S
C3421 C3437 1.349 . S
C3422 C3420 1.327 . S
C3422 C3441 1.429 . S
C3422 H3446 0.950 . S
C3423 C3440 1.574 1_565 S
C3423 C3442 1.368 . S
C3423 H3447 0.949 . S
H3424 C3428 0.949 . S
C3425 C3426 1.349 . S
C3425 C3427 1.327 . S
C3425 H3448 0.950 . S
C3426 C3425 1.349 . S
C3426 C3438 1.349 . S
C3427 C3425 1.327 . S
C3427 C3443 1.429 . S
C3427 H3449 0.950 . S
C3428 H3424 0.949 . S
C3428 C3436 1.574 1_545 S
C3428 C3444 1.368 . S
H3429 C3437 0.950 . S
H3430 C3435 0.950 . S
H3431 C3436 0.949 . S
H3432 C3438 0.950 . S
H3433 C3439 0.950 . S
H3434 C3440 0.949 . S
C3435 H3430 0.950 . S
C3435 C3437 1.327 . S
C3435 C3441 1.429 . S
C3436 C3428 1.574 1_565 S
C3436 H3431 0.949 . S
C3436 C3442 1.368 . S
C3437 C3421 1.349 . S
C3437 H3429 0.950 . S
C3437 C3435 1.327 . S
C3438 C3426 1.349 . S
C3438 H3432 0.950 . S
C3438 C3439 1.327 . S
C3439 H3433 0.950 . S
C3439 C3438 1.327 . S
C3439 C3443 1.429 . S
C3440 C3423 1.574 1_545 S
C3440 H3434 0.949 . S
C3440 C3444 1.368 . S
C3441 C3422 1.429 . S
C3441 C3435 1.429 . S
C3441 C3442 1.523 . S
C3442 C3423 1.368 . S
C3442 C3436 1.368 . S
C3442 C3441 1.523 . S
C3443 C3427 1.429 . S
C3443 C3439 1.429 . S
C3443 C3444 1.523 . S
C3444 C3428 1.368 . S
C3444 C3440 1.368 . S
C3444 C3443 1.523 . S
H3445 C3420 0.950 . S
H3446 C3422 0.950 . S
H3447 C3423 0.949 . S
H3448 C3425 0.950 . S
H3449 C3427 0.950 . S
C3450 C3451 1.349 . S
C3450 C3452 1.327 1_545 S
C3450 H3475 0.950 . S
C3451 C3450 1.349 . S
C3451 C3467 1.349 . S
C3452 C3450 1.327 1_565 S
C3452 C3471 1.429 . S
C3452 H3476 0.950 . S
C3453 C3470 1.574 . S
C3453 C3472 1.368 . S
C3453 H3477 0.949 . S
H3454 C3458 0.949 . S
C3455 C3456 1.349 . S
C3455 C3457 1.327 1_655 S
C3455 H3478 0.950 . S
C3456 C3455 1.349 . S
C3456 C3468 1.349 . S
C3457 C3455 1.327 1_455 S
C3457 C3473 1.429 . S
C3457 H3479 0.950 . S
C3458 H3454 0.949 . S
C3458 C3466 1.574 . S
C3458 C3474 1.368 . S
H3459 C3467 0.950 . S
H3460 C3465 0.950 . S
H3461 C3466 0.949 . S
H3462 C3468 0.950 . S
H3463 C3469 0.950 . S
H3464 C3470 0.949 . S
C3465 H3460 0.950 . S
C3465 C3467 1.327 1_565 S
C3465 C3471 1.429 . S
C3466 C3458 1.574 . S
C3466 H3461 0.949 . S
C3466 C3472 1.368 . S
C3467 C3451 1.349 . S
C3467 H3459 0.950 . S
C3467 C3465 1.327 1_545 S
C3468 C3456 1.349 . S
C3468 H3462 0.950 . S
C3468 C3469 1.327 . S
C3469 H3463 0.950 . S
C3469 C3468 1.327 . S
C3469 C3473 1.429 1_655 S
C3470 C3453 1.574 . S
C3470 H3464 0.949 . S
C3470 C3474 1.368 . S
C3471 C3452 1.429 . S
C3471 C3465 1.429 . S
C3471 C3472 1.523 . S
C3472 C3453 1.368 . S
C3472 C3466 1.368 . S
C3472 C3471 1.523 . S
C3473 C3457 1.429 . S
C3473 C3469 1.429 1_455 S
C3473 C3474 1.523 . S
C3474 C3458 1.368 . S
C3474 C3470 1.368 . S
C3474 C3473 1.523 . S
H3475 C3450 0.950 . S
H3476 C3452 0.950 . S
H3477 C3453 0.949 . S
H3478 C3455 0.950 . S
H3479 C3457 0.950 . S
C3480 C3481 1.349 . S
C3480 C3482 1.327 . S
C3480 H3505 0.950 . S
C3481 C3480 1.349 . S
C3481 C3497 1.349 . S
C3482 C3480 1.327 . S
C3482 C3501 1.429 . S
C3482 H3506 0.950 . S
C3483 C3500 1.574 . S
C3483 C3502 1.368 . S
C3483 H3507 0.949 . S
H3484 C3488 0.949 . S
C3485 C3486 1.349 . S
C3485 C3487 1.327 . S
C3485 H3508 0.950 . S
C3486 C3485 1.349 . S
C3486 C3498 1.349 . S
C3487 C3485 1.327 . S
C3487 C3503 1.429 . S
C3487 H3509 0.950 . S
C3488 H3484 0.949 . S
C3488 C3496 1.574 . S
C3488 C3504 1.368 . S
H3489 C3497 0.950 . S
H3490 C3495 0.950 . S
H3491 C3496 0.949 . S
H3492 C3498 0.950 . S
H3493 C3499 0.950 . S
H3494 C3500 0.949 . S
C3495 H3490 0.950 . S
C3495 C3497 1.327 . S
C3495 C3501 1.429 . S
C3496 C3488 1.574 . S
C3496 H3491 0.949 . S
C3496 C3502 1.368 . S
C3497 C3481 1.349 . S
C3497 H3489 0.950 . S
C3497 C3495 1.327 . S
C3498 C3486 1.349 . S
C3498 H3492 0.950 . S
C3498 C3499 1.327 . S
C3499 H3493 0.950 . S
C3499 C3498 1.327 . S
C3499 C3503 1.429 . S
C3500 C3483 1.574 . S
C3500 H3494 0.949 . S
C3500 C3504 1.368 . S
C3501 C3482 1.429 . S
C3501 C3495 1.429 . S
C3501 C3502 1.523 . S
C3502 C3483 1.368 . S
C3502 C3496 1.368 . S
C3502 C3501 1.523 . S
C3503 C3487 1.429 . S
C3503 C3499 1.429 . S
C3503 C3504 1.523 . S
C3504 C3488 1.368 . S
C3504 C3500 1.368 . S
C3504 C3503 1.523 . S
H3505 C3480 0.950 . S
H3506 C3482 0.950 . S
H3507 C3483 0.949 . S
H3508 C3485 0.950 . S
H3509 C3487 0.950 . S
C3510 C3511 1.349 . S
C3510 C3512 1.327 . S
C3510 H3535 0.950 . S
C3511 C3510 1.349 . S
C3511 C3527 1.349 . S
C3512 C3510 1.327 . S
C3512 C3531 1.429 . S
C3512 H3536 0.950 . S
C3513 C3530 1.574 . S
C3513 C3532 1.368 . S
C3513 H3537 0.949 . S
H3514 C3518 0.949 . S
C3515 C3516 1.349 . S
C3515 C3517 1.327 . S
C3515 H3538 0.950 . S
C3516 C3515 1.349 . S
C3516 C3528 1.349 . S
C3517 C3515 1.327 . S
C3517 C3533 1.429 . S
C3517 H3539 0.950 . S
C3518 H3514 0.949 . S
C3518 C3526 1.574 . S
C3518 C3534 1.368 . S
H3519 C3527 0.950 . S
H3520 C3525 0.950 . S
H3521 C3526 0.949 . S
H3522 C3528 0.950 . S
H3523 C3529 0.950 . S
H3524 C3530 0.949 . S
C3525 H3520 0.950 . S
C3525 C3527 1.327 . S
C3525 C3531 1.429 . S
C3526 C3518 1.574 . S
C3526 H3521 0.949 . S
C3526 C3532 1.368 . S
C3527 C3511 1.349 . S
C3527 H3519 0.950 . S
C3527 C3525 1.327 . S
C3528 C3516 1.349 . S
C3528 H3522 0.950 . S
C3528 C3529 1.327 . S
C3529 H3523 0.950 . S
C3529 C3528 1.327 . S
C3529 C3533 1.429 . S
C3530 C3513 1.574 . S
C3530 H3524 0.949 . S
C3530 C3534 1.368 . S
C3531 C3512 1.429 . S
C3531 C3525 1.429 . S
C3531 C3532 1.523 . S
C3532 C3513 1.368 . S
C3532 C3526 1.368 . S
C3532 C3531 1.523 . S
C3533 C3517 1.429 . S
C3533 C3529 1.429 . S
C3533 C3534 1.523 . S
C3534 C3518 1.368 . S
C3534 C3530 1.368 . S
C3534 C3533 1.523 . S
H3535 C3510 0.950 . S
H3536 C3512 0.950 . S
H3537 C3513 0.949 . S
H3538 C3515 0.950 . S
H3539 C3517 0.950 . S
C3540 C3541 1.349 . S
C3540 C3542 1.327 . S
C3540 H3565 0.950 . S
C3541 C3540 1.349 . S
C3541 C3557 1.349 . S
C3542 C3540 1.327 . S
C3542 C3561 1.429 . S
C3542 H3566 0.950 . S
C3543 C3560 1.574 . S
C3543 C3562 1.368 . S
C3543 H3567 0.949 . S
H3544 C3548 0.949 . S
C3545 C3546 1.349 . S
C3545 C3547 1.327 . S
C3545 H3568 0.950 . S
C3546 C3545 1.349 . S
C3546 C3558 1.349 . S
C3547 C3545 1.327 . S
C3547 C3563 1.429 . S
C3547 H3569 0.950 . S
C3548 H3544 0.949 . S
C3548 C3556 1.574 . S
C3548 C3564 1.368 . S
H3549 C3557 0.950 . S
H3550 C3555 0.950 . S
H3551 C3556 0.949 . S
H3552 C3558 0.950 . S
H3553 C3559 0.950 . S
H3554 C3560 0.949 . S
C3555 H3550 0.950 . S
C3555 C3557 1.327 . S
C3555 C3561 1.429 . S
C3556 C3548 1.574 . S
C3556 H3551 0.949 . S
C3556 C3562 1.368 . S
C3557 C3541 1.349 . S
C3557 H3549 0.950 . S
C3557 C3555 1.327 . S
C3558 C3546 1.349 . S
C3558 H3552 0.950 . S
C3558 C3559 1.327 . S
C3559 H3553 0.950 . S
C3559 C3558 1.327 . S
C3559 C3563 1.429 . S
C3560 C3543 1.574 . S
C3560 H3554 0.949 . S
C3560 C3564 1.368 . S
C3561 C3542 1.429 . S
C3561 C3555 1.429 . S
C3561 C3562 1.523 . S
C3562 C3543 1.368 . S
C3562 C3556 1.368 . S
C3562 C3561 1.523 . S
C3563 C3547 1.429 . S
C3563 C3559 1.429 . S
C3563 C3564 1.523 . S
C3564 C3548 1.368 . S
C3564 C3560 1.368 . S
C3564 C3563 1.523 . S
H3565 C3540 0.950 . S
H3566 C3542 0.950 . S
H3567 C3543 0.949 . S
H3568 C3545 0.950 . S
H3569 C3547 0.950 . S
C3570 C3571 1.349 . S
C3570 C3572 1.327 . S
C3570 H3595 0.950 . S
C3571 C3570 1.349 . S
C3571 C3587 1.349 . S
C3572 C3570 1.327 . S
C3572 C3591 1.429 . S
C3572 H3596 0.950 . S
C3573 C3590 1.574 . S
C3573 C3592 1.368 . S
C3573 H3597 0.949 . S
H3574 C3578 0.949 . S
C3575 C3576 1.349 . S
C3575 C3577 1.327 . S
C3575 H3598 0.950 . S
C3576 C3575 1.349 . S
C3576 C3588 1.349 . S
C3577 C3575 1.327 . S
C3577 C3593 1.429 . S
C3577 H3599 0.950 . S
C3578 H3574 0.949 . S
C3578 C3586 1.574 . S
C3578 C3594 1.368 . S
H3579 C3587 0.950 . S
H3580 C3585 0.950 . S
H3581 C3586 0.949 . S
H3582 C3588 0.950 . S
H3583 C3589 0.950 . S
H3584 C3590 0.949 . S
C3585 H3580 0.950 . S
C3585 C3587 1.327 . S
C3585 C3591 1.429 . S
C3586 C3578 1.574 . S
C3586 H3581 0.949 . S
C3586 C3592 1.368 . S
C3587 C3571 1.349 . S
C3587 H3579 0.950 . S
C3587 C3585 1.327 . S
C3588 C3576 1.349 . S
C3588 H3582 0.950 . S
C3588 C3589 1.327 . S
C3589 H3583 0.950 . S
C3589 C3588 1.327 . S
C3589 C3593 1.429 . S
C3590 C3573 1.574 . S
C3590 H3584 0.949 . S
C3590 C3594 1.368 . S
C3591 C3572 1.429 . S
C3591 C3585 1.429 . S
C3591 C3592 1.523 . S
C3592 C3573 1.368 . S
C3592 C3586 1.368 . S
C3592 C3591 1.523 . S
C3593 C3577 1.429 . S
C3593 C3589 1.429 . S
C3593 C3594 1.523 . S
C3594 C3578 1.368 . S
C3594 C3590 1.368 . S
C3594 C3593 1.523 . S
H3595 C3570 0.950 . S
H3596 C3572 0.950 . S
H3597 C3573 0.949 . S
H3598 C3575 0.950 . S
H3599 C3577 0.950 . S
C3600 C3601 1.349 . S
C3600 C3602 1.327 . S
C3600 H3625 0.950 . S
C3601 C3600 1.349 . S
C3601 C3617 1.349 . S
C3602 C3600 1.327 . S
C3602 C3621 1.429 . S
C3602 H3626 0.950 . S
C3603 C3620 1.574 . S
C3603 C3622 1.368 . S
C3603 H3627 0.949 . S
H3604 C3608 0.949 . S
C3605 C3606 1.349 . S
C3605 C3607 1.327 . S
C3605 H3628 0.950 . S
C3606 C3605 1.349 . S
C3606 C3618 1.349 . S
C3607 C3605 1.327 . S
C3607 C3623 1.429 . S
C3607 H3629 0.950 . S
C3608 H3604 0.949 . S
C3608 C3616 1.574 . S
C3608 C3624 1.368 . S
H3609 C3617 0.950 . S
H3610 C3615 0.950 . S
H3611 C3616 0.949 . S
H3612 C3618 0.950 . S
H3613 C3619 0.950 . S
H3614 C3620 0.949 . S
C3615 H3610 0.950 . S
C3615 C3617 1.327 . S
C3615 C3621 1.429 . S
C3616 C3608 1.574 . S
C3616 H3611 0.949 . S
C3616 C3622 1.368 . S
C3617 C3601 1.349 . S
C3617 H3609 0.950 . S
C3617 C3615 1.327 . S
C3618 C3606 1.349 . S
C3618 H3612 0.950 . S
C3618 C3619 1.327 . S
C3619 H3613 0.950 . S
C3619 C3618 1.327 . S
C3619 C3623 1.429 . S
C3620 C3603 1.574 . S
C3620 H3614 0.949 . S
C3620 C3624 1.368 . S
C3621 C3602 1.429 . S
C3621 C3615 1.429 . S
C3621 C3622 1.523 . S
C3622 C3603 1.368 . S
C3622 C3616 1.368 . S
C3622 C3621 1.523 . S
C3623 C3607 1.429 . S
C3623 C3619 1.429 . S
C3623 C3624 1.523 . S
C3624 C3608 1.368 . S
C3624 C3620 1.368 . S
C3624 C3623 1.523 . S
H3625 C3600 0.950 . S
H3626 C3602 0.950 . S
H3627 C3603 0.949 . S
H3628 C3605 0.950 . S
H3629 C3607 0.950 . S
C3630 C3631 1.349 . S
C3630 C3632 1.327 . S
C3630 H3655 0.950 . S
C3631 C3630 1.349 . S
C3631 C3647 1.349 . S
C3632 C3630 1.327 . S
C3632 C3651 1.429 . S
C3632 H3656 0.950 . S
C3633 C3650 1.574 . S
C3633 C3652 1.368 . S
C3633 H3657 0.949 . S
H3634 C3638 0.949 . S
C3635 C3636 1.349 . S
C3635 C3637 1.327 . S
C3635 H3658 0.950 . S
C3636 C3635 1.349 . S
C3636 C3648 1.349 . S
C3637 C3635 1.327 . S
C3637 C3653 1.429 . S
C3637 H3659 0.950 . S
C3638 H3634 0.949 . S
C3638 C3646 1.574 . S
C3638 C3654 1.368 . S
H3639 C3647 0.950 . S
H3640 C3645 0.950 . S
H3641 C3646 0.949 . S
H3642 C3648 0.950 . S
H3643 C3649 0.950 . S
H3644 C3650 0.949 . S
C3645 H3640 0.950 . S
C3645 C3647 1.327 . S
C3645 C3651 1.429 . S
C3646 C3638 1.574 . S
C3646 H3641 0.949 . S
C3646 C3652 1.368 . S
C3647 C3631 1.349 . S
C3647 H3639 0.950 . S
C3647 C3645 1.327 . S
C3648 C3636 1.349 . S
C3648 H3642 0.950 . S
C3648 C3649 1.327 . S
C3649 H3643 0.950 . S
C3649 C3648 1.327 . S
C3649 C3653 1.429 . S
C3650 C3633 1.574 . S
C3650 H3644 0.949 . S
C3650 C3654 1.368 . S
C3651 C3632 1.429 . S
C3651 C3645 1.429 . S
C3651 C3652 1.523 . S
C3652 C3633 1.368 . S
C3652 C3646 1.368 . S
C3652 C3651 1.523 . S
C3653 C3637 1.429 . S
C3653 C3649 1.429 . S
C3653 C3654 1.523 . S
C3654 C3638 1.368 . S
C3654 C3650 1.368 . S
C3654 C3653 1.523 . S
H3655 C3630 0.950 . S
H3656 C3632 0.950 . S
H3657 C3633 0.949 . S
H3658 C3635 0.950 . S
H3659 C3637 0.950 . S
C3660 C3661 1.349 . S
C3660 C3662 1.327 . S
C3660 H3685 0.950 . S
C3661 C3660 1.349 . S
C3661 C3677 1.349 . S
C3662 C3660 1.327 . S
C3662 C3681 1.429 . S
C3662 H3686 0.950 . S
C3663 C3680 1.574 . S
C3663 C3682 1.368 . S
C3663 H3687 0.949 . S
H3664 C3668 0.949 . S
C3665 C3666 1.349 . S
C3665 C3667 1.327 . S
C3665 H3688 0.950 . S
C3666 C3665 1.349 . S
C3666 C3678 1.349 . S
C3667 C3665 1.327 . S
C3667 C3683 1.429 . S
C3667 H3689 0.950 . S
C3668 H3664 0.949 . S
C3668 C3676 1.574 . S
C3668 C3684 1.368 . S
H3669 C3677 0.950 . S
H3670 C3675 0.950 . S
H3671 C3676 0.949 . S
H3672 C3678 0.950 . S
H3673 C3679 0.950 . S
H3674 C3680 0.949 . S
C3675 H3670 0.950 . S
C3675 C3677 1.327 . S
C3675 C3681 1.429 . S
C3676 C3668 1.574 . S
C3676 H3671 0.949 . S
C3676 C3682 1.368 . S
C3677 C3661 1.349 . S
C3677 H3669 0.950 . S
C3677 C3675 1.327 . S
C3678 C3666 1.349 . S
C3678 H3672 0.950 . S
C3678 C3679 1.327 . S
C3679 H3673 0.950 . S
C3679 C3678 1.327 . S
C3679 C3683 1.429 . S
C3680 C3663 1.574 . S
C3680 H3674 0.949 . S
C3680 C3684 1.368 . S
C3681 C3662 1.429 . S
C3681 C3675 1.429 . S
C3681 C3682 1.523 . S
C3682 C3663 1.368 . S
C3682 C3676 1.368 . S
C3682 C3681 1.523 . S
C3683 C3667 1.429 . S
C3683 C3679 1.429 . S
C3683 C3684 1.523 . S
C3684 C3668 1.368 . S
C3684 C3680 1.368 . S
C3684 C3683 1.523 . S
H3685 C3660 0.950 . S
H3686 C3662 0.950 . S
H3687 C3663 0.949 . S
H3688 C3665 0.950 . S
H3689 C3667 0.950 . S
C3690 C3691 1.349 . S
C3690 C3692 1.327 . S
C3690 H3715 0.950 . S
C3691 C3690 1.349 . S
C3691 C3707 1.349 . S
C3692 C3690 1.327 . S
C3692 C3711 1.429 . S
C3692 H3716 0.950 . S
C3693 C3710 1.574 . S
C3693 C3712 1.368 . S
C3693 H3717 0.949 . S
H3694 C3698 0.949 . S
C3695 C3696 1.349 . S
C3695 C3697 1.327 . S
C3695 H3718 0.950 . S
C3696 C3695 1.349 . S
C3696 C3708 1.349 . S
C3697 C3695 1.327 . S
C3697 C3713 1.429 . S
C3697 H3719 0.950 . S
C3698 H3694 0.949 . S
C3698 C3706 1.574 . S
C3698 C3714 1.368 . S
H3699 C3707 0.950 . S
H3700 C3705 0.950 . S
H3701 C3706 0.949 . S
H3702 C3708 0.950 . S
H3703 C3709 0.950 . S
H3704 C3710 0.949 . S
C3705 H3700 0.950 . S
C3705 C3707 1.327 . S
C3705 C3711 1.429 . S
C3706 C3698 1.574 . S
C3706 H3701 0.949 . S
C3706 C3712 1.368 . S
C3707 C3691 1.349 . S
C3707 H3699 0.950 . S
C3707 C3705 1.327 . S
C3708 C3696 1.349 . S
C3708 H3702 0.950 . S
C3708 C3709 1.327 . S
C3709 H3703 0.950 . S
C3709 C3708 1.327 . S
C3709 C3713 1.429 . S
C3710 C3693 1.574 . S
C3710 H3704 0.949 . S
C3710 C3714 1.368 . S
C3711 C3692 1.429 . S
C3711 C3705 1.429 . S
C3711 C3712 1.523 . S
C3712 C3693 1.368 . S
C3712 C3706 1.368 . S
C3712 C3711 1.523 . S
C3713 C3697 1.429 . S
C3713 C3709 1.429 . S
C3713 C3714 1.523 . S
C3714 C3698 1.368 . S
C3714 C3710 1.368 . S
C3714 C3713 1.523 . S
H3715 C3690 0.950 . S
H3716 C3692 0.950 . S
H3717 C3693 0.949 . S
H3718 C3695 0.950 . S
H3719 C3697 0.950 . S
C3720 C3721 1.349 . S
C3720 C3722 1.327 . S
C3720 H3745 0.950 . S
C3721 C3720 1.349 . S
C3721 C3737 1.349 . S
C3722 C3720 1.327 . S
C3722 C3741 1.429 . S
C3722 H3746 0.950 . S
C3723 C3740 1.574 . S
C3723 C3742 1.368 . S
C3723 H3747 0.949 . S
H3724 C3728 0.949 . S
C3725 C3726 1.349 . S
C3725 C3727 1.327 . S
C3725 H3748 0.950 . S
C3726 C3725 1.349 . S
C3726 C3738 1.349 . S
C3727 C3725 1.327 . S
C3727 C3743 1.429 . S
C3727 H3749 0.950 . S
C3728 H3724 0.949 . S
C3728 C3736 1.574 . S
C3728 C3744 1.368 . S
H3729 C3737 0.950 . S
H3730 C3735 0.950 . S
H3731 C3736 0.949 . S
H3732 C3738 0.950 . S
H3733 C3739 0.950 . S
H3734 C3740 0.949 . S
C3735 H3730 0.950 . S
C3735 C3737 1.327 . S
C3735 C3741 1.429 . S
C3736 C3728 1.574 . S
C3736 H3731 0.949 . S
C3736 C3742 1.368 . S
C3737 C3721 1.349 . S
C3737 H3729 0.950 . S
C3737 C3735 1.327 . S
C3738 C3726 1.349 . S
C3738 H3732 0.950 . S
C3738 C3739 1.327 . S
C3739 H3733 0.950 . S
C3739 C3738 1.327 . S
C3739 C3743 1.429 . S
C3740 C3723 1.574 . S
C3740 H3734 0.949 . S
C3740 C3744 1.368 . S
C3741 C3722 1.429 . S
C3741 C3735 1.429 . S
C3741 C3742 1.523 . S
C3742 C3723 1.368 . S
C3742 C3736 1.368 . S
C3742 C3741 1.523 . S
C3743 C3727 1.429 . S
C3743 C3739 1.429 . S
C3743 C3744 1.523 . S
C3744 C3728 1.368 . S
C3744 C3740 1.368 . S
C3744 C3743 1.523 . S
H3745 C3720 0.950 . S
H3746 C3722 0.950 . S
H3747 C3723 0.949 . S
H3748 C3725 0.950 . S
H3749 C3727 0.950 . S
C3750 C3751 1.349 . S
C3750 C3752 1.327 . S
C3750 H3775 0.950 . S
C3751 C3750 1.349 . S
C3751 C3767 1.349 . S
C3752 C3750 1.327 . S
C3752 C3771 1.429 . S
C3752 H3776 0.950 . S
C3753 C3770 1.574 . S
C3753 C3772 1.368 . S
C3753 H3777 0.949 . S
H3754 C3758 0.949 . S
C3755 C3756 1.349 . S
C3755 C3757 1.327 . S
C3755 H3778 0.950 . S
C3756 C3755 1.349 . S
C3756 C3768 1.349 . S
C3757 C3755 1.327 . S
C3757 C3773 1.429 . S
C3757 H3779 0.950 . S
C3758 H3754 0.949 . S
C3758 C3766 1.574 . S
C3758 C3774 1.368 . S
H3759 C3767 0.950 . S
H3760 C3765 0.950 . S
H3761 C3766 0.949 . S
H3762 C3768 0.950 . S
H3763 C3769 0.950 . S
H3764 C3770 0.949 . S
C3765 H3760 0.950 . S
C3765 C3767 1.327 . S
C3765 C3771 1.429 . S
C3766 C3758 1.574 . S
C3766 H3761 0.949 . S
C3766 C3772 1.368 . S
C3767 C3751 1.349 . S
C3767 H3759 0.950 . S
C3767 C3765 1.327 . S
C3768 C3756 1.349 . S
C3768 H3762 0.950 . S
C3768 C3769 1.327 . S
C3769 H3763 0.950 . S
C3769 C3768 1.327 . S
C3769 C3773 1.429 . S
C3770 C3753 1.574 . S
C3770 H3764 0.949 . S
C3770 C3774 1.368 . S
C3771 C3752 1.429 . S
C3771 C3765 1.429 . S
C3771 C3772 1.523 . S
C3772 C3753 1.368 . S
C3772 C3766 1.368 . S
C3772 C3771 1.523 . S
C3773 C3757 1.429 . S
C3773 C3769 1.429 . S
C3773 C3774 1.523 . S
C3774 C3758 1.368 . S
C3774 C3770 1.368 . S
C3774 C3773 1.523 . S
H3775 C3750 0.950 . S
H3776 C3752 0.950 . S
H3777 C3753 0.949 . S
H3778 C3755 0.950 . S
H3779 C3757 0.950 . S
C3780 C3781 1.349 . S
C3780 C3782 1.327 . S
C3780 H3805 0.950 . S
C3781 C3780 1.349 . S
C3781 C3797 1.349 . S
C3782 C3780 1.327 . S
C3782 C3801 1.429 . S
C3782 H3806 0.950 . S
C3783 C3800 1.574 . S
C3783 C3802 1.368 . S
C3783 H3807 0.949 . S
H3784 C3788 0.949 . S
C3785 C3786 1.349 . S
C3785 C3787 1.327 . S
C3785 H3808 0.950 . S
C3786 C3785 1.349 . S
C3786 C3798 1.349 . S
C3787 C3785 1.327 . S
C3787 C3803 1.429 . S
C3787 H3809 0.950 . S
C3788 H3784 0.949 . S
C3788 C3796 1.574 . S
C3788 C3804 1.368 . S
H3789 C3797 0.950 . S
H3790 C3795 0.950 . S
H3791 C3796 0.949 . S
H3792 C3798 0.950 . S
H3793 C3799 0.950 . S
H3794 C3800 0.949 . S
C3795 H3790 0.950 . S
C3795 C3797 1.327 . S
C3795 C3801 1.429 . S
C3796 C3788 1.574 . S
C3796 H3791 0.949 . S
C3796 C3802 1.368 . S
C3797 C3781 1.349 . S
C3797 H3789 0.950 . S
C3797 C3795 1.327 . S
C3798 C3786 1.349 . S
C3798 H3792 0.950 . S
C3798 C3799 1.327 . S
C3799 H3793 0.950 . S
C3799 C3798 1.327 . S
C3799 C3803 1.429 . S
C3800 C3783 1.574 . S
C3800 H3794 0.949 . S
C3800 C3804 1.368 . S
C3801 C3782 1.429 . S
C3801 C3795 1.429 . S
C3801 C3802 1.523 . S
C3802 C3783 1.368 . S
C3802 C3796 1.368 . S
C3802 C3801 1.523 . S
C3803 C3787 1.429 . S
C3803 C3799 1.429 . S
C3803 C3804 1.523 . S
C3804 C3788 1.368 . S
C3804 C3800 1.368 . S
C3804 C3803 1.523 . S
H3805 C3780 0.950 . S
H3806 C3782 0.950 . S
H3807 C3783 0.949 . S
H3808 C3785 0.950 . S
H3809 C3787 0.950 . S
C3810 C3811 1.349 . S
C3810 C3812 1.327 . S
C3810 H3835 0.950 . S
C3811 C3810 1.349 . S
C3811 C3827 1.349 . S
C3812 C3810 1.327 . S
C3812 C3831 1.429 . S
C3812 H3836 0.950 . S
C3813 C3830 1.574 . S
C3813 C3832 1.368 . S
C3813 H3837 0.949 . S
H3814 C3818 0.949 . S
C3815 C3816 1.349 . S
C3815 C3817 1.327 . S
C3815 H3838 0.950 . S
C3816 C3815 1.349 . S
C3816 C3828 1.349 . S
C3817 C3815 1.327 . S
C3817 C3833 1.429 . S
C3817 H3839 0.950 . S
C3818 H3814 0.949 . S
C3818 C3826 1.574 . S
C3818 C3834 1.368 . S
H3819 C3827 0.950 . S
H3820 C3825 0.950 . S
H3821 C3826 0.949 . S
H3822 C3828 0.950 . S
H3823 C3829 0.950 . S
H3824 C3830 0.949 . S
C3825 H3820 0.950 . S
C3825 C3827 1.327 . S
C3825 C3831 1.429 . S
C3826 C3818 1.574 . S
C3826 H3821 0.949 . S
C3826 C3832 1.368 . S
C3827 C3811 1.349 . S
C3827 H3819 0.950 . S
C3827 C3825 1.327 . S
C3828 C3816 1.349 . S
C3828 H3822 0.950 . S
C3828 C3829 1.327 . S
C3829 H3823 0.950 . S
C3829 C3828 1.327 . S
C3829 C3833 1.429 . S
C3830 C3813 1.574 . S
C3830 H3824 0.949 . S
C3830 C3834 1.368 . S
C3831 C3812 1.429 . S
C3831 C3825 1.429 . S
C3831 C3832 1.523 . S
C3832 C3813 1.368 . S
C3832 C3826 1.368 . S
C3832 C3831 1.523 . S
C3833 C3817 1.429 . S
C3833 C3829 1.429 . S
C3833 C3834 1.523 . S
C3834 C3818 1.368 . S
C3834 C3830 1.368 . S
C3834 C3833 1.523 . S
H3835 C3810 0.950 . S
H3836 C3812 0.950 . S
H3837 C3813 0.949 . S
H3838 C3815 0.950 . S
H3839 C3817 0.950 . S
C3840 C3841 1.349 . S
C3840 C3842 1.327 . S
C3840 H3865 0.950 . S
C3841 C3840 1.349 . S
C3841 C3857 1.349 . S
C3842 C3840 1.327 . S
C3842 C3861 1.429 . S
C3842 H3866 0.950 . S
C3843 C3860 1.574 . S
C3843 C3862 1.368 . S
C3843 H3867 0.949 . S
H3844 C3848 0.949 . S
C3845 C3846 1.349 . S
C3845 C3847 1.327 . S
C3845 H3868 0.950 . S
C3846 C3845 1.349 . S
C3846 C3858 1.349 . S
C3847 C3845 1.327 . S
C3847 C3863 1.429 . S
C3847 H3869 0.950 . S
C3848 H3844 0.949 . S
C3848 C3856 1.574 . S
C3848 C3864 1.368 . S
H3849 C3857 0.950 . S
H3850 C3855 0.950 . S
H3851 C3856 0.949 . S
H3852 C3858 0.950 . S
H3853 C3859 0.950 . S
H3854 C3860 0.949 . S
C3855 H3850 0.950 . S
C3855 C3857 1.327 . S
C3855 C3861 1.429 . S
C3856 C3848 1.574 . S
C3856 H3851 0.949 . S
C3856 C3862 1.368 . S
C3857 C3841 1.349 . S
C3857 H3849 0.950 . S
C3857 C3855 1.327 . S
C3858 C3846 1.349 . S
C3858 H3852 0.950 . S
C3858 C3859 1.327 . S
C3859 H3853 0.950 . S
C3859 C3858 1.327 . S
C3859 C3863 1.429 . S
C3860 C3843 1.574 . S
C3860 H3854 0.949 . S
C3860 C3864 1.368 . S
C3861 C3842 1.429 . S
C3861 C3855 1.429 . S
C3861 C3862 1.523 . S
C3862 C3843 1.368 . S
C3862 C3856 1.368 . S
C3862 C3861 1.523 . S
C3863 C3847 1.429 . S
C3863 C3859 1.429 . S
C3863 C3864 1.523 . S
C3864 C3848 1.368 . S
C3864 C3860 1.368 . S
C3864 C3863 1.523 . S
H3865 C3840 0.950 . S
H3866 C3842 0.950 . S
H3867 C3843 0.949 . S
H3868 C3845 0.950 . S
H3869 C3847 0.950 . S
C3870 C3871 1.349 . S
C3870 C3872 1.327 . S
C3870 H3895 0.950 . S
C3871 C3870 1.349 . S
C3871 C3887 1.349 . S
C3872 C3870 1.327 . S
C3872 C3891 1.429 . S
C3872 H3896 0.950 . S
C3873 C3890 1.574 . S
C3873 C3892 1.368 . S
C3873 H3897 0.949 . S
H3874 C3878 0.949 . S
C3875 C3876 1.349 . S
C3875 C3877 1.327 . S
C3875 H3898 0.950 . S
C3876 C3875 1.349 . S
C3876 C3888 1.349 . S
C3877 C3875 1.327 . S
C3877 C3893 1.429 . S
C3877 H3899 0.950 . S
C3878 H3874 0.949 . S
C3878 C3886 1.574 . S
C3878 C3894 1.368 . S
H3879 C3887 0.950 . S
H3880 C3885 0.950 . S
H3881 C3886 0.949 . S
H3882 C3888 0.950 . S
H3883 C3889 0.950 . S
H3884 C3890 0.949 . S
C3885 H3880 0.950 . S
C3885 C3887 1.327 . S
C3885 C3891 1.429 . S
C3886 C3878 1.574 . S
C3886 H3881 0.949 . S
C3886 C3892 1.368 . S
C3887 C3871 1.349 . S
C3887 H3879 0.950 . S
C3887 C3885 1.327 . S
C3888 C3876 1.349 . S
C3888 H3882 0.950 . S
C3888 C3889 1.327 . S
C3889 H3883 0.950 . S
C3889 C3888 1.327 . S
C3889 C3893 1.429 . S
C3890 C3873 1.574 . S
C3890 H3884 0.949 . S
C3890 C3894 1.368 . S
C3891 C3872 1.429 . S
C3891 C3885 1.429 . S
C3891 C3892 1.523 . S
C3892 C3873 1.368 . S
C3892 C3886 1.368 . S
C3892 C3891 1.523 . S
C3893 C3877 1.429 . S
C3893 C3889 1.429 . S
C3893 C3894 1.523 . S
C3894 C3878 1.368 . S
C3894 C3890 1.368 . S
C3894 C3893 1.523 . S
H3895 C3870 0.950 . S
H3896 C3872 0.950 . S
H3897 C3873 0.949 . S
H3898 C3875 0.950 . S
H3899 C3877 0.950 . S
C3900 C3901 1.349 . S
C3900 C3902 1.327 . S
C3900 H3925 0.950 . S
C3901 C3900 1.349 . S
C3901 C3917 1.349 . S
C3902 C3900 1.327 . S
C3902 C3921 1.429 . S
C3902 H3926 0.950 . S
C3903 C3920 1.574 . S
C3903 C3922 1.368 . S
C3903 H3927 0.949 . S
H3904 C3908 0.949 . S
C3905 C3906 1.349 . S
C3905 C3907 1.327 . S
C3905 H3928 0.950 . S
C3906 C3905 1.349 . S
C3906 C3918 1.349 . S
C3907 C3905 1.327 . S
C3907 C3923 1.429 . S
C3907 H3929 0.950 . S
C3908 H3904 0.949 . S
C3908 C3916 1.574 . S
C3908 C3924 1.368 . S
H3909 C3917 0.950 . S
H3910 C3915 0.950 . S
H3911 C3916 0.949 . S
H3912 C3918 0.950 . S
H3913 C3919 0.950 . S
H3914 C3920 0.949 . S
C3915 H3910 0.950 . S
C3915 C3917 1.327 . S
C3915 C3921 1.429 . S
C3916 C3908 1.574 . S
C3916 H3911 0.949 . S
C3916 C3922 1.368 . S
C3917 C3901 1.349 . S
C3917 H3909 0.950 . S
C3917 C3915 1.327 . S
C3918 C3906 1.349 . S
C3918 H3912 0.950 . S
C3918 C3919 1.327 . S
C3919 H3913 0.950 . S
C3919 C3918 1.327 . S
C3919 C3923 1.429 . S
C3920 C3903 1.574 . S
C3920 H3914 0.949 . S
C3920 C3924 1.368 . S
C3921 C3902 1.429 . S
C3921 C3915 1.429 . S
C3921 C3922 1.523 . S
C3922 C3903 1.368 . S
C3922 C3916 1.368 . S
C3922 C3921 1.523 . S
C3923 C3907 1.429 . S
C3923 C3919 1.429 . S
C3923 C3924 1.523 . S
C3924 C3908 1.368 . S
C3924 C3920 1.368 . S
C3924 C3923 1.523 . S
H3925 C3900 0.950 . S
H3926 C3902 0.950 . S
H3927 C3903 0.949 . S
H3928 C3905 0.950 . S
H3929 C3907 0.950 . S
C3930 C3931 1.349 . S
C3930 C3932 1.327 . S
C3930 H3955 0.950 . S
C3931 C3930 1.349 . S
C3931 C3947 1.349 . S
C3932 C3930 1.327 . S
C3932 C3951 1.429 . S
C3932 H3956 0.950 . S
C3933 C3950 1.574 . S
C3933 C3952 1.368 . S
C3933 H3957 0.949 . S
H3934 C3938 0.949 . S
C3935 C3936 1.349 . S
C3935 C3937 1.327 . S
C3935 H3958 0.950 . S
C3936 C3935 1.349 . S
C3936 C3948 1.349 . S
C3937 C3935 1.327 . S
C3937 C3953 1.429 . S
C3937 H3959 0.950 . S
C3938 H3934 0.949 . S
C3938 C3946 1.574 . S
C3938 C3954 1.368 . S
H3939 C3947 0.950 . S
H3940 C3945 0.950 . S
H3941 C3946 0.949 . S
H3942 C3948 0.950 . S
H3943 C3949 0.950 . S
H3944 C3950 0.949 . S
C3945 H3940 0.950 . S
C3945 C3947 1.327 . S
C3945 C3951 1.429 . S
C3946 C3938 1.574 . S
C3946 H3941 0.949 . S
C3946 C3952 1.368 . S
C3947 C3931 1.349 . S
C3947 H3939 0.950 . S
C3947 C3945 1.327 . S
C3948 C3936 1.349 . S
C3948 H3942 0.950 . S
C3948 C3949 1.327 . S
C3949 H3943 0.950 . S
C3949 C3948 1.327 . S
C3949 C3953 1.429 . S
C3950 C3933 1.574 . S
C3950 H3944 0.949 . S
C3950 C3954 1.368 . S
C3951 C3932 1.429 . S
C3951 C3945 1.429 . S
C3951 C3952 1.523 . S
C3952 C3933 1.368 . S
C3952 C3946 1.368 . S
C3952 C3951 1.523 . S
C3953 C3937 1.429 . S
C3953 C3949 1.429 . S
C3953 C3954 1.523 . S
C3954 C3938 1.368 . S
C3954 C3950 1.368 . S
C3954 C3953 1.523 . S
H3955 C3930 0.950 . S
H3956 C3932 0.950 . S
H3957 C3933 0.949 . S
H3958 C3935 0.950 . S
H3959 C3937 0.950 . S
C3960 C3961 1.349 . S
C3960 C3962 1.327 . S
C3960 H3985 0.950 . S
C3961 C3960 1.349 . S
C3961 C3977 1.349 . S
C3962 C3960 1.327 . S
C3962 C3981 1.429 . S
C3962 H3986 0.950 . S
C3963 C3980 1.574 . S
C3963 C3982 1.368 . S
C3963 H3987 0.949 . S
H3964 C3968 0.949 . S
C3965 C3966 1.349 . S
C3965 C3967 1.327 . S
C3965 H3988 0.950 . S
C3966 C3965 1.349 . S
C3966 C3978 1.349 . S
C3967 C3965 1.327 . S
C3967 C3983 1.429 . S
C3967 H3989 0.950 . S
C3968 H3964 0.949 . S
C3968 C3976 1.574 . S
C3968 C3984 1.368 . S
H3969 C3977 0.950 . S
H3970 C3975 0.950 . S
H3971 C3976 0.949 . S
H3972 C3978 0.950 . S
H3973 C3979 0.950 . S
H3974 C3980 0.949 . S
C3975 H3970 0.950 . S
C3975 C3977 1.327 . S
C3975 C3981 1.429 . S
C3976 C3968 1.574 . S
C3976 H3971 0.949 . S
C3976 C3982 1.368 . S
C3977 C3961 1.349 . S
C3977 H3969 0.950 . S
C3977 C3975 1.327 . S
C3978 C3966 1.349 . S
C3978 H3972 0.950 . S
C3978 C3979 1.327 . S
C3979 H3973 0.950 . S
C3979 C3978 1.327 . S
C3979 C3983 1.429 . S
C3980 C3963 1.574 . S
C3980 H3974 0.949 . S
C3980 C3984 1.368 . S
C3981 C3962 1.429 . S
C3981 C3975 1.429 . S
C3981 C3982 1.523 . S
C3982 C3963 1.368 . S
C3982 C3976 1.368 . S
C3982 C3981 1.523 . S
C3983 C3967 1.429 . S
C3983 C3979 1.429 . S
C3983 C3984 1.523 . S
C3984 C3968 1.368 . S
C3984 C3980 1.368 . S
C3984 C3983 1.523 . S
H3985 C3960 0.950 . S
H3986 C3962 0.950 . S
H3987 C3963 0.949 . S
H3988 C3965 0.950 . S
H3989 C3967 0.950 . S
C3990 C3991 1.349 . S
C3990 C3992 1.327 . S
C3990 H4015 0.950 . S
C3991 C3990 1.349 . S
C3991 C4007 1.349 . S
C3992 C3990 1.327 . S
C3992 C4011 1.429 . S
C3992 H4016 0.950 . S
C3993 C4010 1.574 . S
C3993 C4012 1.368 . S
C3993 H4017 0.949 . S
H3994 C3998 0.949 . S
C3995 C3996 1.349 . S
C3995 C3997 1.327 . S
C3995 H4018 0.950 . S
C3996 C3995 1.349 . S
C3996 C4008 1.349 . S
C3997 C3995 1.327 . S
C3997 C4013 1.429 . S
C3997 H4019 0.950 . S
C3998 H3994 0.949 . S
C3998 C4006 1.574 . S
C3998 C4014 1.368 . S
H3999 C4007 0.950 . S
H4000 C4005 0.950 . S
H4001 C4006 0.949 . S
H4002 C4008 0.950 . S
H4003 C4009 0.950 . S
H4004 C4010 0.949 . S
C4005 H4000 0.950 . S
C4005 C4007 1.327 . S
C4005 C4011 1.429 . S
C4006 C3998 1.574 . S
C4006 H4001 0.949 . S
C4006 C4012 1.368 . S
C4007 C3991 1.349 . S
C4007 H3999 0.950 . S
C4007 C4005 1.327 . S
C4008 C3996 1.349 . S
C4008 H4002 0.950 . S
C4008 C4009 1.327 . S
C4009 H4003 0.950 . S
C4009 C4008 1.327 . S
C4009 C4013 1.429 . S
C4010 C3993 1.574 . S
C4010 H4004 0.949 . S
C4010 C4014 1.368 . S
C4011 C3992 1.429 . S
C4011 C4005 1.429 . S
C4011 C4012 1.523 . S
C4012 C3993 1.368 . S
C4012 C4006 1.368 . S
C4012 C4011 1.523 . S
C4013 C3997 1.429 . S
C4013 C4009 1.429 . S
C4013 C4014 1.523 . S
C4014 C3998 1.368 . S
C4014 C4010 1.368 . S
C4014 C4013 1.523 . S
H4015 C3990 0.950 . S
H4016 C3992 0.950 . S
H4017 C3993 0.949 . S
H4018 C3995 0.950 . S
H4019 C3997 0.950 . S
C4020 C4021 1.349 . S
C4020 C4022 1.327 . S
C4020 H4045 0.950 . S
C4021 C4020 1.349 . S
C4021 C4037 1.349 . S
C4022 C4020 1.327 . S
C4022 C4041 1.429 . S
C4022 H4046 0.950 . S
C4023 C4040 1.574 . S
C4023 C4042 1.368 . S
C4023 H4047 0.949 . S
H4024 C4028 0.949 . S
C4025 C4026 1.349 . S
C4025 C4027 1.327 . S
C4025 H4048 0.950 . S
C4026 C4025 1.349 . S
C4026 C4038 1.349 . S
C4027 C4025 1.327 . S
C4027 C4043 1.429 . S
C4027 H4049 0.950 . S
C4028 H4024 0.949 . S
C4028 C4036 1.574 . S
C4028 C4044 1.368 . S
H4029 C4037 0.950 . S
H4030 C4035 0.950 . S
H4031 C4036 0.949 . S
H4032 C4038 0.950 . S
H4033 C4039 0.950 . S
H4034 C4040 0.949 . S
C4035 H4030 0.950 . S
C4035 C4037 1.327 . S
C4035 C4041 1.429 . S
C4036 C4028 1.574 . S
C4036 H4031 0.949 . S
C4036 C4042 1.368 . S
C4037 C4021 1.349 . S
C4037 H4029 0.950 . S
C4037 C4035 1.327 . S
C4038 C4026 1.349 . S
C4038 H4032 0.950 . S
C4038 C4039 1.327 . S
C4039 H4033 0.950 . S
C4039 C4038 1.327 . S
C4039 C4043 1.429 . S
C4040 C4023 1.574 . S
C4040 H4034 0.949 . S
C4040 C4044 1.368 . S
C4041 C4022 1.429 . S
C4041 C4035 1.429 . S
C4041 C4042 1.523 . S
C4042 C4023 1.368 . S
C4042 C4036 1.368 . S
C4042 C4041 1.523 . S
C4043 C4027 1.429 . S
C4043 C4039 1.429 . S
C4043 C4044 1.523 . S
C4044 C4028 1.368 . S
C4044 C4040 1.368 . S
C4044 C4043 1.523 . S
H4045 C4020 0.950 . S
H4046 C4022 0.950 . S
H4047 C4023 0.949 . S
H4048 C4025 0.950 . S
H4049 C4027 0.950 . S
C4050 C4051 1.349 . S
C4050 C4052 1.327 . S
C4050 H4075 0.950 . S
C4051 C4050 1.349 . S
C4051 C4067 1.349 . S
C4052 C4050 1.327 . S
C4052 C4071 1.429 . S
C4052 H4076 0.950 . S
C4053 C4070 1.574 1_455 S
C4053 C4072 1.368 . S
C4053 H4077 0.949 . S
H4054 C4058 0.949 . S
C4055 C4056 1.349 . S
C4055 C4057 1.327 . S
C4055 H4078 0.950 . S
C4056 C4055 1.349 . S
C4056 C4068 1.349 . S
C4057 C4055 1.327 . S
C4057 C4073 1.429 . S
C4057 H4079 0.950 . S
C4058 H4054 0.949 . S
C4058 C4066 1.574 . S
C4058 C4074 1.368 1_455 S
H4059 C4067 0.950 . S
H4060 C4065 0.950 . S
H4061 C4066 0.949 . S
H4062 C4068 0.950 . S
H4063 C4069 0.950 . S
H4064 C4070 0.949 . S
C4065 H4060 0.950 . S
C4065 C4067 1.327 . S
C4065 C4071 1.429 . S
C4066 C4058 1.574 . S
C4066 H4061 0.949 . S
C4066 C4072 1.368 . S
C4067 C4051 1.349 . S
C4067 H4059 0.950 . S
C4067 C4065 1.327 . S
C4068 C4056 1.349 . S
C4068 H4062 0.950 . S
C4068 C4069 1.327 . S
C4069 H4063 0.950 . S
C4069 C4068 1.327 . S
C4069 C4073 1.429 . S
C4070 C4053 1.574 1_655 S
C4070 H4064 0.949 . S
C4070 C4074 1.368 . S
C4071 C4052 1.429 . S
C4071 C4065 1.429 . S
C4071 C4072 1.523 . S
C4072 C4053 1.368 . S
C4072 C4066 1.368 . S
C4072 C4071 1.523 . S
C4073 C4057 1.429 . S
C4073 C4069 1.429 . S
C4073 C4074 1.523 . S
C4074 C4058 1.368 1_655 S
C4074 C4070 1.368 . S
C4074 C4073 1.523 . S
H4075 C4050 0.950 . S
H4076 C4052 0.950 . S
H4077 C4053 0.949 . S
H4078 C4055 0.950 . S
H4079 C4057 0.950 . S
C4080 C4081 1.349 . S
C4080 C4082 1.327 . S
C4080 H4105 0.950 . S
C4081 C4080 1.349 . S
C4081 C4097 1.349 . S
C4082 C4080 1.327 . S
C4082 C4101 1.429 . S
C4082 H4106 0.950 . S
C4083 C4100 1.574 . S
C4083 C4102 1.368 . S
C4083 H4107 0.949 . S
H4084 C4088 0.949 . S
C4085 C4086 1.349 . S
C4085 C4087 1.327 . S
C4085 H4108 0.950 . S
C4086 C4085 1.349 . S
C4086 C4098 1.349 . S
C4087 C4085 1.327 . S
C4087 C4103 1.429 . S
C4087 H4109 0.950 . S
C4088 H4084 0.949 . S
C4088 C4096 1.574 . S
C4088 C4104 1.368 . S
H4089 C4097 0.950 . S
H4090 C4095 0.950 . S
H4091 C4096 0.949 . S
H4092 C4098 0.950 . S
H4093 C4099 0.950 . S
H4094 C4100 0.949 . S
C4095 H4090 0.950 . S
C4095 C4097 1.327 . S
C4095 C4101 1.429 . S
C4096 C4088 1.574 . S
C4096 H4091 0.949 . S
C4096 C4102 1.368 . S
C4097 C4081 1.349 . S
C4097 H4089 0.950 . S
C4097 C4095 1.327 . S
C4098 C4086 1.349 . S
C4098 H4092 0.950 . S
C4098 C4099 1.327 . S
C4099 H4093 0.950 . S
C4099 C4098 1.327 . S
C4099 C4103 1.429 . S
C4100 C4083 1.574 . S
C4100 H4094 0.949 . S
C4100 C4104 1.368 . S
C4101 C4082 1.429 . S
C4101 C4095 1.429 . S
C4101 C4102 1.523 . S
C4102 C4083 1.368 . S
C4102 C4096 1.368 . S
C4102 C4101 1.523 . S
C4103 C4087 1.429 . S
C4103 C4099 1.429 . S
C4103 C4104 1.523 . S
C4104 C4088 1.368 . S
C4104 C4100 1.368 . S
C4104 C4103 1.523 . S
H4105 C4080 0.950 . S
H4106 C4082 0.950 . S
H4107 C4083 0.949 . S
H4108 C4085 0.950 . S
H4109 C4087 0.950 . S
C4110 C4111 1.349 . S
C4110 C4112 1.327 . S
C4110 H4135 0.973 . S
C4111 C4110 1.349 . S
C4111 C4127 1.349 . S
C4112 C4110 1.327 . S
C4112 C4131 1.429 . S
C4112 H4136 0.950 . S
C4113 C4130 1.574 . S
C4113 C4132 1.368 . S
C4113 H4137 0.949 . S
H4114 C4118 0.949 . S
C4115 C4116 1.349 . S
C4115 C4117 1.327 . S
C4115 H4138 0.950 . S
C4116 C4115 1.349 . S
C4116 C4128 1.349 . S
C4117 C4115 1.327 . S
C4117 C4133 1.429 . S
C4117 H4139 0.950 . S
C4118 H4114 0.949 . S
C4118 C4126 1.574 . S
C4118 C4134 1.368 . S
H4119 C4127 0.950 . S
H4120 C4125 0.950 . S
H4121 C4126 0.949 . S
H4122 C4128 0.950 . S
H4123 C4129 0.950 . S
H4124 C4130 0.949 . S
C4125 H4120 0.950 . S
C4125 C4127 1.327 . S
C4125 C4131 1.429 . S
C4126 C4118 1.574 . S
C4126 H4121 0.949 . S
C4126 C4132 1.368 . S
C4127 C4111 1.349 . S
C4127 H4119 0.950 . S
C4127 C4125 1.327 . S
C4128 C4116 1.349 . S
C4128 H4122 0.950 . S
C4128 C4129 1.327 . S
C4129 H4123 0.950 . S
C4129 C4128 1.327 . S
C4129 C4133 1.429 . S
C4130 C4113 1.574 . S
C4130 H4124 0.949 . S
C4130 C4134 1.368 . S
C4131 C4112 1.429 . S
C4131 C4125 1.429 . S
C4131 C4132 1.523 . S
C4132 C4113 1.368 . S
C4132 C4126 1.368 . S
C4132 C4131 1.523 . S
C4133 C4117 1.429 . S
C4133 C4129 1.429 . S
C4133 C4134 1.523 1_565 S
C4134 C4118 1.368 . S
C4134 C4130 1.368 . S
C4134 C4133 1.523 1_545 S
H4135 C4110 0.973 . S
H4136 C4112 0.950 . S
H4137 C4113 0.949 . S
H4138 C4115 0.950 . S
H4139 C4117 0.950 . S
C4140 C4141 1.349 . S
C4140 C4142 1.327 . S
C4140 H4165 0.950 . S
C4141 C4140 1.349 . S
C4141 C4157 1.349 . S
C4142 C4140 1.327 . S
C4142 C4161 1.429 . S
C4142 H4166 0.950 . S
C4143 C4160 1.574 . S
C4143 C4162 1.368 . S
C4143 H4167 0.949 1_545 S
H4144 C4148 0.949 . S
C4145 C4146 1.349 . S
C4145 C4147 1.327 . S
C4145 H4168 0.950 . S
C4146 C4145 1.349 . S
C4146 C4158 1.349 . S
C4147 C4145 1.327 . S
C4147 C4163 1.429 . S
C4147 H4169 0.950 . S
C4148 H4144 0.949 . S
C4148 C4156 1.574 . S
C4148 C4164 1.368 . S
H4149 C4157 0.950 . S
H4150 C4155 0.950 . S
H4151 C4156 0.949 . S
H4152 C4158 0.950 . S
H4153 C4159 0.950 . S
H4154 C4160 0.949 . S
C4155 H4150 0.950 . S
C4155 C4157 1.327 . S
C4155 C4161 1.429 . S
C4156 C4148 1.574 . S
C4156 H4151 0.949 . S
C4156 C4162 1.368 . S
C4157 C4141 1.349 . S
C4157 H4149 0.950 . S
C4157 C4155 1.327 . S
C4158 C4146 1.349 . S
C4158 H4152 0.950 . S
C4158 C4159 1.327 . S
C4159 H4153 0.950 . S
C4159 C4158 1.327 . S
C4159 C4163 1.429 . S
C4160 C4143 1.574 . S
C4160 H4154 0.949 . S
C4160 C4164 1.368 . S
C4161 C4142 1.429 . S
C4161 C4155 1.429 . S
C4161 C4162 1.523 1_565 S
C4162 C4143 1.368 . S
C4162 C4156 1.368 . S
C4162 C4161 1.523 1_545 S
C4163 C4147 1.429 . S
C4163 C4159 1.429 . S
C4163 C4164 1.523 . S
C4164 C4148 1.368 . S
C4164 C4160 1.368 . S
C4164 C4163 1.523 . S
H4165 C4140 0.950 . S
H4166 C4142 0.950 . S
H4167 C4143 0.949 1_565 S
H4168 C4145 0.950 . S
H4169 C4147 0.950 . S
C4170 C4171 1.349 . S
C4170 C4172 1.327 . S
C4170 H4195 0.950 . S
C4171 C4170 1.349 . S
C4171 C4187 1.349 . S
C4172 C4170 1.327 . S
C4172 C4191 1.429 . S
C4172 H4196 0.950 . S
C4173 C4190 1.574 . S
C4173 C4192 1.368 . S
C4173 H4197 0.949 . S
H4174 C4178 0.949 . S
C4175 C4176 1.349 . S
C4175 C4177 1.327 . S
C4175 H4198 0.950 . S
C4176 C4175 1.349 . S
C4176 C4188 1.349 . S
C4177 C4175 1.327 . S
C4177 C4193 1.429 . S
C4177 H4199 0.950 . S
C4178 H4174 0.949 . S
C4178 C4186 1.574 . S
C4178 C4194 1.368 1_455 S
H4179 C4187 0.950 . S
H4180 C4185 0.950 . S
H4181 C4186 0.949 . S
H4182 C4188 0.950 . S
H4183 C4189 0.950 . S
H4184 C4190 0.949 1_655 S
C4185 H4180 0.950 . S
C4185 C4187 1.327 . S
C4185 C4191 1.429 . S
C4186 C4178 1.574 . S
C4186 H4181 0.949 . S
C4186 C4192 1.368 . S
C4187 C4171 1.349 . S
C4187 H4179 0.950 . S
C4187 C4185 1.327 . S
C4188 C4176 1.349 . S
C4188 H4182 0.950 . S
C4188 C4189 1.327 . S
C4189 H4183 0.950 . S
C4189 C4188 1.327 . S
C4189 C4193 1.429 . S
C4190 C4173 1.574 . S
C4190 H4184 0.949 1_455 S
C4190 C4194 1.368 1_455 S
C4191 C4172 1.429 . S
C4191 C4185 1.429 . S
C4191 C4192 1.523 . S
C4192 C4173 1.368 . S
C4192 C4186 1.368 . S
C4192 C4191 1.523 . S
C4193 C4177 1.429 . S
C4193 C4189 1.429 . S
C4193 C4194 1.523 . S
C4194 C4178 1.368 1_655 S
C4194 C4190 1.368 1_655 S
C4194 C4193 1.523 . S
H4195 C4170 0.950 . S
H4196 C4172 0.950 . S
H4197 C4173 0.949 . S
H4198 C4175 0.950 . S
H4199 C4177 0.950 . S
C4200 C4201 1.349 . S
C4200 C4202 1.327 . S
C4200 H4225 0.950 1_655 S
C4201 C4200 1.349 . S
C4201 C4217 1.349 . S
C4202 C4200 1.327 . S
C4202 C4221 1.429 . S
C4202 H4226 0.950 . S
C4203 C4220 1.574 . S
C4203 C4222 1.368 . S
C4203 H4227 0.949 . S
H4204 C4208 0.949 . S
C4205 C4206 1.349 . S
C4205 C4207 1.327 . S
C4205 H4228 0.950 . S
C4206 C4205 1.349 . S
C4206 C4218 1.349 . S
C4207 C4205 1.327 . S
C4207 C4223 1.429 . S
C4207 H4229 0.950 . S
C4208 H4204 0.949 . S
C4208 C4216 1.574 . S
C4208 C4224 1.368 . S
H4209 C4217 0.950 . S
H4210 C4215 0.950 . S
H4211 C4216 0.949 . S
H4212 C4218 0.950 . S
H4213 C4219 0.950 . S
H4214 C4220 0.949 . S
C4215 H4210 0.950 . S
C4215 C4217 1.327 . S
C4215 C4221 1.429 . S
C4216 C4208 1.574 . S
C4216 H4211 0.949 . S
C4216 C4222 1.368 . S
C4217 C4201 1.349 . S
C4217 H4209 0.950 . S
C4217 C4215 1.327 . S
C4218 C4206 1.349 . S
C4218 H4212 0.950 . S
C4218 C4219 1.327 . S
C4219 H4213 0.950 . S
C4219 C4218 1.327 . S
C4219 C4223 1.429 . S
C4220 C4203 1.574 . S
C4220 H4214 0.949 . S
C4220 C4224 1.368 . S
C4221 C4202 1.429 . S
C4221 C4215 1.429 . S
C4221 C4222 1.523 . S
C4222 C4203 1.368 . S
C4222 C4216 1.368 . S
C4222 C4221 1.523 . S
C4223 C4207 1.429 . S
C4223 C4219 1.429 . S
C4223 C4224 1.523 . S
C4224 C4208 1.368 . S
C4224 C4220 1.368 . S
C4224 C4223 1.523 . S
H4225 C4200 0.950 1_455 S
H4226 C4202 0.950 . S
H4227 C4203 0.949 . S
H4228 C4205 0.950 . S
H4229 C4207 0.950 . S
C4230 C4231 1.349 . S
C4230 C4232 1.327 . S
C4230 H4255 0.950 . S
C4231 C4230 1.349 . S
C4231 C4247 1.349 . S
C4232 C4230 1.327 . S
C4232 C4251 1.429 . S
C4232 H4256 0.950 . S
C4233 C4250 1.574 . S
C4233 C4252 1.368 . S
C4233 H4257 0.949 . S
H4234 C4238 0.949 . S
C4235 C4236 1.349 . S
C4235 C4237 1.327 . S
C4235 H4258 0.950 . S
C4236 C4235 1.349 . S
C4236 C4248 1.349 . S
C4237 C4235 1.327 . S
C4237 C4253 1.429 . S
C4237 H4259 0.950 . S
C4238 H4234 0.949 . S
C4238 C4246 1.574 . S
C4238 C4254 1.368 . S
H4239 C4247 0.950 . S
H4240 C4245 0.950 . S
H4241 C4246 0.949 . S
H4242 C4248 0.950 . S
H4243 C4249 0.950 . S
H4244 C4250 0.949 . S
C4245 H4240 0.950 . S
C4245 C4247 1.327 . S
C4245 C4251 1.429 . S
C4246 C4238 1.574 . S
C4246 H4241 0.949 . S
C4246 C4252 1.368 . S
C4247 C4231 1.349 . S
C4247 H4239 0.950 . S
C4247 C4245 1.327 . S
C4248 C4236 1.349 . S
C4248 H4242 0.950 . S
C4248 C4249 1.327 . S
C4249 H4243 0.950 . S
C4249 C4248 1.327 . S
C4249 C4253 1.429 . S
C4250 C4233 1.574 . S
C4250 H4244 0.949 . S
C4250 C4254 1.368 . S
C4251 C4232 1.429 . S
C4251 C4245 1.429 . S
C4251 C4252 1.523 . S
C4252 C4233 1.368 . S
C4252 C4246 1.368 . S
C4252 C4251 1.523 . S
C4253 C4237 1.429 . S
C4253 C4249 1.429 . S
C4253 C4254 1.523 . S
C4254 C4238 1.368 . S
C4254 C4250 1.368 . S
C4254 C4253 1.523 . S
H4255 C4230 0.950 . S
H4256 C4232 0.950 . S
H4257 C4233 0.949 . S
H4258 C4235 0.950 . S
H4259 C4237 0.950 . S
C4260 C4261 1.349 . S
C4260 C4262 1.327 . S
C4260 H4285 0.950 . S
C4261 C4260 1.349 . S
C4261 C4277 1.349 . S
C4262 C4260 1.327 . S
C4262 C4281 1.429 . S
C4262 H4286 0.950 . S
C4263 C4280 1.574 . S
C4263 C4282 1.368 . S
C4263 H4287 0.949 . S
H4264 C4268 0.949 . S
C4265 C4266 1.349 . S
C4265 C4267 1.327 . S
C4265 H4288 0.950 . S
C4266 C4265 1.349 . S
C4266 C4278 1.349 . S
C4267 C4265 1.327 . S
C4267 C4283 1.429 . S
C4267 H4289 0.950 . S
C4268 H4264 0.949 . S
C4268 C4276 1.574 . S
C4268 C4284 1.368 . S
H4269 C4277 0.950 . S
H4270 C4275 0.950 . S
H4271 C4276 0.949 . S
H4272 C4278 0.950 . S
H4273 C4279 0.950 . S
H4274 C4280 0.949 . S
C4275 H4270 0.950 . S
C4275 C4277 1.327 . S
C4275 C4281 1.429 . S
C4276 C4268 1.574 . S
C4276 H4271 0.949 . S
C4276 C4282 1.368 . S
C4277 C4261 1.349 . S
C4277 H4269 0.950 . S
C4277 C4275 1.327 . S
C4278 C4266 1.349 . S
C4278 H4272 0.950 . S
C4278 C4279 1.327 . S
C4279 H4273 0.950 . S
C4279 C4278 1.327 . S
C4279 C4283 1.429 . S
C4280 C4263 1.574 . S
C4280 H4274 0.949 . S
C4280 C4284 1.368 . S
C4281 C4262 1.429 . S
C4281 C4275 1.429 . S
C4281 C4282 1.523 . S
C4282 C4263 1.368 . S
C4282 C4276 1.368 . S
C4282 C4281 1.523 . S
C4283 C4267 1.429 . S
C4283 C4279 1.429 . S
C4283 C4284 1.523 . S
C4284 C4268 1.368 . S
C4284 C4280 1.368 . S
C4284 C4283 1.523 . S
H4285 C4260 0.950 . S
H4286 C4262 0.950 . S
H4287 C4263 0.949 . S
H4288 C4265 0.950 . S
H4289 C4267 0.950 . S
C4290 C4291 1.349 . S
C4290 C4292 1.327 . S
C4290 H4315 0.950 . S
C4291 C4290 1.349 . S
C4291 C4307 1.349 . S
C4292 C4290 1.327 . S
C4292 C4311 1.429 . S
C4292 H4316 0.950 . S
C4293 C4310 1.574 . S
C4293 C4312 1.368 . S
C4293 H4317 0.949 . S
H4294 C4298 0.949 . S
C4295 C4296 1.349 . S
C4295 C4297 1.327 . S
C4295 H4318 0.950 . S
C4296 C4295 1.349 . S
C4296 C4308 1.349 . S
C4297 C4295 1.327 . S
C4297 C4313 1.429 . S
C4297 H4319 0.950 . S
C4298 H4294 0.949 . S
C4298 C4306 1.574 . S
C4298 C4314 1.368 . S
H4299 C4307 0.950 . S
H4300 C4305 0.950 . S
H4301 C4306 0.949 . S
H4302 C4308 0.950 . S
H4303 C4309 0.950 . S
H4304 C4310 0.949 . S
C4305 H4300 0.950 . S
C4305 C4307 1.327 . S
C4305 C4311 1.429 . S
C4306 C4298 1.574 . S
C4306 H4301 0.949 . S
C4306 C4312 1.368 . S
C4307 C4291 1.349 . S
C4307 H4299 0.950 . S
C4307 C4305 1.327 . S
C4308 C4296 1.349 . S
C4308 H4302 0.950 . S
C4308 C4309 1.327 . S
C4309 H4303 0.950 . S
C4309 C4308 1.327 . S
C4309 C4313 1.429 . S
C4310 C4293 1.574 . S
C4310 H4304 0.949 . S
C4310 C4314 1.368 . S
C4311 C4292 1.429 . S
C4311 C4305 1.429 . S
C4311 C4312 1.523 . S
C4312 C4293 1.368 . S
C4312 C4306 1.368 . S
C4312 C4311 1.523 . S
C4313 C4297 1.429 . S
C4313 C4309 1.429 . S
C4313 C4314 1.523 . S
C4314 C4298 1.368 . S
C4314 C4310 1.368 . S
C4314 C4313 1.523 . S
H4315 C4290 0.950 . S
H4316 C4292 0.950 . S
H4317 C4293 0.949 . S
H4318 C4295 0.950 . S
H4319 C4297 0.950 . S
C4320 C4321 1.349 . S
C4320 C4322 1.327 . S
C4320 H4345 0.950 . S
C4321 C4320 1.349 . S
C4321 C4337 1.349 . S
C4322 C4320 1.327 . S
C4322 C4341 1.429 . S
C4322 H4346 0.950 . S
C4323 C4340 1.574 . S
C4323 C4342 1.368 1_545 S
C4323 H4347 0.949 1_545 S
H4324 C4328 0.949 . S
C4325 C4326 1.349 . S
C4325 C4327 1.327 . S
C4325 H4348 0.950 . S
C4326 C4325 1.349 . S
C4326 C4338 1.349 . S
C4327 C4325 1.327 . S
C4327 C4343 1.429 . S
C4327 H4349 0.950 . S
C4328 H4324 0.949 . S
C4328 C4336 1.574 . S
C4328 C4344 1.368 . S
H4329 C4337 0.950 . S
H4330 C4335 0.950 . S
H4331 C4336 0.958 . S
H4332 C4338 0.950 . S
H4333 C4339 0.950 . S
H4334 C4340 0.949 . S
C4335 H4330 0.950 . S
C4335 C4337 1.327 . S
C4335 C4341 1.429 . S
C4336 C4328 1.574 . S
C4336 H4331 0.958 . S
C4336 C4342 1.368 1_545 S
C4337 C4321 1.349 . S
C4337 H4329 0.950 . S
C4337 C4335 1.327 . S
C4338 C4326 1.349 . S
C4338 H4332 0.950 . S
C4338 C4339 1.327 . S
C4339 H4333 0.950 . S
C4339 C4338 1.327 . S
C4339 C4343 1.429 . S
C4340 C4323 1.574 . S
C4340 H4334 0.949 . S
C4340 C4344 1.368 . S
C4341 C4322 1.429 . S
C4341 C4335 1.429 . S
C4341 C4342 1.523 . S
C4342 C4323 1.368 1_565 S
C4342 C4336 1.368 1_565 S
C4342 C4341 1.523 . S
C4343 C4327 1.429 . S
C4343 C4339 1.429 . S
C4343 C4344 1.523 . S
C4344 C4328 1.368 . S
C4344 C4340 1.368 . S
C4344 C4343 1.523 . S
H4345 C4320 0.950 . S
H4346 C4322 0.950 . S
H4347 C4323 0.949 1_565 S
H4348 C4325 0.950 . S
H4349 C4327 0.950 . S
C4350 C4351 1.349 . S
C4350 C4352 1.327 . S
C4350 H4375 0.950 . S
C4351 C4350 1.349 . S
C4351 C4367 1.349 . S
C4352 C4350 1.327 . S
C4352 C4371 1.429 . S
C4352 H4376 0.950 . S
C4353 C4370 1.574 . S
C4353 C4372 1.368 . S
C4353 H4377 0.949 . S
H4354 C4358 0.949 . S
C4355 C4356 1.349 . S
C4355 C4357 1.327 . S
C4355 H4378 0.950 . S
C4356 C4355 1.349 . S
C4356 C4368 1.349 . S
C4357 C4355 1.327 . S
C4357 C4373 1.429 . S
C4357 H4379 0.950 . S
C4358 H4354 0.949 . S
C4358 C4366 1.574 . S
C4358 C4374 1.368 . S
H4359 C4367 0.950 . S
H4360 C4365 0.950 . S
H4361 C4366 0.949 1_655 S
H4362 C4368 0.950 . S
H4363 C4369 0.950 . S
H4364 C4370 0.949 . S
C4365 H4360 0.950 . S
C4365 C4367 1.327 . S
C4365 C4371 1.429 . S
C4366 C4358 1.574 . S
C4366 H4361 0.949 1_455 S
C4366 C4372 1.368 . S
C4367 C4351 1.349 . S
C4367 H4359 0.950 . S
C4367 C4365 1.327 . S
C4368 C4356 1.349 . S
C4368 H4362 0.950 . S
C4368 C4369 1.327 . S
C4369 H4363 0.950 . S
C4369 C4368 1.327 . S
C4369 C4373 1.429 . S
C4370 C4353 1.574 . S
C4370 H4364 0.949 . S
C4370 C4374 1.368 . S
C4371 C4352 1.429 . S
C4371 C4365 1.429 . S
C4371 C4372 1.523 1_655 S
C4372 C4353 1.368 . S
C4372 C4366 1.368 . S
C4372 C4371 1.523 1_455 S
C4373 C4357 1.429 . S
C4373 C4369 1.429 . S
C4373 C4374 1.523 . S
C4374 C4358 1.368 . S
C4374 C4370 1.368 . S
C4374 C4373 1.523 . S
H4375 C4350 0.950 . S
H4376 C4352 0.950 . S
H4377 C4353 0.949 . S
H4378 C4355 0.950 . S
H4379 C4357 0.950 . S
C4380 C4381 1.349 . S
C4380 C4382 1.327 . S
C4380 H4405 0.950 . S
C4381 C4380 1.349 . S
C4381 C4397 1.349 . S
C4382 C4380 1.327 . S
C4382 C4401 1.429 . S
C4382 H4406 0.950 . S
C4383 C4400 1.574 . S
C4383 C4402 1.368 . S
C4383 H4407 0.949 . S
H4384 C4388 0.949 . S
C4385 C4386 1.349 . S
C4385 C4387 1.327 . S
C4385 H4408 0.950 . S
C4386 C4385 1.349 . S
C4386 C4398 1.349 . S
C4387 C4385 1.327 . S
C4387 C4403 1.429 . S
C4387 H4409 0.950 . S
C4388 H4384 0.949 . S
C4388 C4396 1.574 . S
C4388 C4404 1.368 . S
H4389 C4397 0.950 . S
H4390 C4395 0.950 . S
H4391 C4396 0.949 . S
H4392 C4398 0.950 . S
H4393 C4399 0.950 . S
H4394 C4400 0.949 . S
C4395 H4390 0.950 . S
C4395 C4397 1.327 . S
C4395 C4401 1.429 . S
C4396 C4388 1.574 . S
C4396 H4391 0.949 . S
C4396 C4402 1.368 . S
C4397 C4381 1.349 . S
C4397 H4389 0.950 . S
C4397 C4395 1.327 . S
C4398 C4386 1.349 . S
C4398 H4392 0.950 . S
C4398 C4399 1.327 . S
C4399 H4393 0.950 . S
C4399 C4398 1.327 . S
C4399 C4403 1.429 . S
C4400 C4383 1.574 . S
C4400 H4394 0.949 . S
C4400 C4404 1.368 . S
C4401 C4382 1.429 . S
C4401 C4395 1.429 . S
C4401 C4402 1.523 . S
C4402 C4383 1.368 . S
C4402 C4396 1.368 . S
C4402 C4401 1.523 . S
C4403 C4387 1.429 . S
C4403 C4399 1.429 . S
C4403 C4404 1.523 . S
C4404 C4388 1.368 . S
C4404 C4400 1.368 . S
C4404 C4403 1.523 . S
H4405 C4380 0.950 . S
H4406 C4382 0.950 . S
H4407 C4383 0.949 . S
H4408 C4385 0.950 . S
H4409 C4387 0.950 . S
C4410 C4411 1.349 . S
C4410 C4412 1.327 . S
C4410 H4435 0.950 . S
C4411 C4410 1.349 . S
C4411 C4427 1.349 . S
C4412 C4410 1.327 . S
C4412 C4431 1.429 . S
C4412 H4436 0.950 . S
C4413 C4430 1.574 . S
C4413 C4432 1.368 . S
C4413 H4437 0.949 . S
H4414 C4418 0.949 . S
C4415 C4416 1.349 . S
C4415 C4417 1.327 . S
C4415 H4438 0.950 . S
C4416 C4415 1.349 . S
C4416 C4428 1.349 . S
C4417 C4415 1.327 . S
C4417 C4433 1.429 . S
C4417 H4439 0.950 . S
C4418 H4414 0.949 . S
C4418 C4426 1.574 . S
C4418 C4434 1.368 . S
H4419 C4427 0.950 . S
H4420 C4425 0.950 . S
H4421 C4426 0.949 . S
H4422 C4428 0.950 . S
H4423 C4429 0.950 . S
H4424 C4430 0.949 . S
C4425 H4420 0.950 . S
C4425 C4427 1.327 . S
C4425 C4431 1.429 . S
C4426 C4418 1.574 . S
C4426 H4421 0.949 . S
C4426 C4432 1.368 . S
C4427 C4411 1.349 . S
C4427 H4419 0.950 . S
C4427 C4425 1.327 . S
C4428 C4416 1.349 . S
C4428 H4422 0.950 . S
C4428 C4429 1.327 . S
C4429 H4423 0.950 . S
C4429 C4428 1.327 . S
C4429 C4433 1.429 . S
C4430 C4413 1.574 . S
C4430 H4424 0.949 . S
C4430 C4434 1.368 . S
C4431 C4412 1.429 . S
C4431 C4425 1.429 . S
C4431 C4432 1.523 . S
C4432 C4413 1.368 . S
C4432 C4426 1.368 . S
C4432 C4431 1.523 . S
C4433 C4417 1.429 . S
C4433 C4429 1.429 . S
C4433 C4434 1.523 . S
C4434 C4418 1.368 . S
C4434 C4430 1.368 . S
C4434 C4433 1.523 . S
H4435 C4410 0.950 . S
H4436 C4412 0.950 . S
H4437 C4413 0.949 . S
H4438 C4415 0.950 . S
H4439 C4417 0.950 . S
C4440 C4441 1.349 . S
C4440 C4442 1.327 . S
C4440 H4465 0.950 . S
C4441 C4440 1.349 . S
C4441 C4457 1.349 . S
C4442 C4440 1.327 . S
C4442 C4461 1.429 . S
C4442 H4466 0.950 . S
C4443 C4460 1.574 . S
C4443 C4462 1.368 . S
C4443 H4467 0.949 . S
H4444 C4448 0.949 . S
C4445 C4446 1.349 . S
C4445 C4447 1.327 . S
C4445 H4468 0.950 . S
C4446 C4445 1.349 . S
C4446 C4458 1.349 . S
C4447 C4445 1.327 . S
C4447 C4463 1.429 . S
C4447 H4469 0.950 . S
C4448 H4444 0.949 . S
C4448 C4456 1.574 . S
C4448 C4464 1.368 . S
H4449 C4457 0.950 . S
H4450 C4455 0.950 . S
H4451 C4456 0.949 . S
H4452 C4458 0.950 . S
H4453 C4459 0.950 . S
H4454 C4460 0.949 . S
C4455 H4450 0.950 . S
C4455 C4457 1.327 . S
C4455 C4461 1.429 . S
C4456 C4448 1.574 . S
C4456 H4451 0.949 . S
C4456 C4462 1.368 . S
C4457 C4441 1.349 . S
C4457 H4449 0.950 . S
C4457 C4455 1.327 . S
C4458 C4446 1.349 . S
C4458 H4452 0.950 . S
C4458 C4459 1.327 . S
C4459 H4453 0.950 . S
C4459 C4458 1.327 . S
C4459 C4463 1.429 . S
C4460 C4443 1.574 . S
C4460 H4454 0.949 . S
C4460 C4464 1.368 . S
C4461 C4442 1.429 . S
C4461 C4455 1.429 . S
C4461 C4462 1.523 . S
C4462 C4443 1.368 . S
C4462 C4456 1.368 . S
C4462 C4461 1.523 . S
C4463 C4447 1.429 . S
C4463 C4459 1.429 . S
C4463 C4464 1.523 . S
C4464 C4448 1.368 . S
C4464 C4460 1.368 . S
C4464 C4463 1.523 . S
H4465 C4440 0.950 . S
H4466 C4442 0.950 . S
H4467 C4443 0.949 . S
H4468 C4445 0.950 . S
H4469 C4447 0.950 . S
C4470 C4471 1.349 . S
C4470 C4472 1.327 . S
C4470 H4495 0.950 . S
C4471 C4470 1.349 . S
C4471 C4487 1.349 . S
C4472 C4470 1.327 . S
C4472 C4491 1.429 . S
C4472 H4496 0.950 . S
C4473 C4490 1.574 . S
C4473 C4492 1.368 . S
C4473 H4497 0.949 . S
H4474 C4478 0.949 . S
C4475 C4476 1.349 . S
C4475 C4477 1.327 . S
C4475 H4498 0.950 . S
C4476 C4475 1.349 . S
C4476 C4488 1.349 . S
C4477 C4475 1.327 . S
C4477 C4493 1.429 . S
C4477 H4499 0.950 . S
C4478 H4474 0.949 . S
C4478 C4486 1.574 . S
C4478 C4494 1.368 . S
H4479 C4487 0.950 . S
H4480 C4485 0.950 . S
H4481 C4486 0.949 . S
H4482 C4488 0.950 . S
H4483 C4489 0.950 . S
H4484 C4490 0.949 . S
C4485 H4480 0.950 . S
C4485 C4487 1.327 . S
C4485 C4491 1.429 . S
C4486 C4478 1.574 . S
C4486 H4481 0.949 . S
C4486 C4492 1.368 . S
C4487 C4471 1.349 . S
C4487 H4479 0.950 . S
C4487 C4485 1.327 . S
C4488 C4476 1.349 . S
C4488 H4482 0.950 . S
C4488 C4489 1.327 . S
C4489 H4483 0.950 . S
C4489 C4488 1.327 . S
C4489 C4493 1.429 . S
C4490 C4473 1.574 . S
C4490 H4484 0.949 . S
C4490 C4494 1.368 . S
C4491 C4472 1.429 . S
C4491 C4485 1.429 . S
C4491 C4492 1.523 . S
C4492 C4473 1.368 . S
C4492 C4486 1.368 . S
C4492 C4491 1.523 . S
C4493 C4477 1.429 . S
C4493 C4489 1.429 . S
C4493 C4494 1.523 . S
C4494 C4478 1.368 . S
C4494 C4490 1.368 . S
C4494 C4493 1.523 . S
H4495 C4470 0.950 . S
H4496 C4472 0.950 . S
H4497 C4473 0.949 . S
H4498 C4475 0.950 . S
H4499 C4477 0.950 . S
C4500 C4501 1.349 . S
C4500 C4502 1.327 . S
C4500 H4525 0.950 . S
C4501 C4500 1.349 . S
C4501 C4517 1.349 . S
C4502 C4500 1.327 . S
C4502 C4521 1.429 . S
C4502 H4526 0.950 . S
C4503 C4520 1.574 . S
C4503 C4522 1.368 . S
C4503 H4527 0.949 . S
H4504 C4508 0.949 . S
C4505 C4506 1.349 . S
C4505 C4507 1.327 . S
C4505 H4528 0.950 . S
C4506 C4505 1.349 . S
C4506 C4518 1.349 . S
C4507 C4505 1.327 . S
C4507 C4523 1.429 . S
C4507 H4529 0.950 . S
C4508 H4504 0.949 . S
C4508 C4516 1.574 . S
C4508 C4524 1.368 . S
H4509 C4517 0.950 . S
H4510 C4515 0.950 . S
H4511 C4516 0.949 . S
H4512 C4518 0.950 . S
H4513 C4519 0.950 . S
H4514 C4520 0.949 . S
C4515 H4510 0.950 . S
C4515 C4517 1.327 . S
C4515 C4521 1.429 . S
C4516 C4508 1.574 . S
C4516 H4511 0.949 . S
C4516 C4522 1.368 . S
C4517 C4501 1.349 . S
C4517 H4509 0.950 . S
C4517 C4515 1.327 . S
C4518 C4506 1.349 . S
C4518 H4512 0.950 . S
C4518 C4519 1.327 . S
C4519 H4513 0.950 . S
C4519 C4518 1.327 . S
C4519 C4523 1.429 . S
C4520 C4503 1.574 . S
C4520 H4514 0.949 . S
C4520 C4524 1.368 . S
C4521 C4502 1.429 . S
C4521 C4515 1.429 . S
C4521 C4522 1.523 . S
C4522 C4503 1.368 . S
C4522 C4516 1.368 . S
C4522 C4521 1.523 . S
C4523 C4507 1.429 . S
C4523 C4519 1.429 . S
C4523 C4524 1.523 . S
C4524 C4508 1.368 . S
C4524 C4520 1.368 . S
C4524 C4523 1.523 . S
H4525 C4500 0.950 . S
H4526 C4502 0.950 . S
H4527 C4503 0.949 . S
H4528 C4505 0.950 . S
H4529 C4507 0.950 . S
C4530 C4531 1.349 . S
C4530 C4532 1.327 . S
C4530 H4555 0.950 . S
C4531 C4530 1.349 . S
C4531 C4547 1.349 . S
C4532 C4530 1.327 . S
C4532 C4551 1.429 . S
C4532 H4556 0.950 . S
C4533 C4550 1.574 . S
C4533 C4552 1.368 . S
C4533 H4557 0.949 . S
H4534 C4538 0.949 . S
C4535 C4536 1.349 . S
C4535 C4537 1.327 . S
C4535 H4558 0.950 . S
C4536 C4535 1.349 . S
C4536 C4548 1.349 . S
C4537 C4535 1.327 . S
C4537 C4553 1.429 . S
C4537 H4559 0.950 . S
C4538 H4534 0.949 . S
C4538 C4546 1.574 . S
C4538 C4554 1.368 . S
H4539 C4547 0.950 . S
H4540 C4545 0.950 . S
H4541 C4546 0.949 . S
H4542 C4548 0.950 . S
H4543 C4549 0.950 . S
H4544 C4550 0.949 . S
C4545 H4540 0.950 . S
C4545 C4547 1.327 . S
C4545 C4551 1.429 . S
C4546 C4538 1.574 . S
C4546 H4541 0.949 . S
C4546 C4552 1.368 . S
C4547 C4531 1.349 . S
C4547 H4539 0.950 . S
C4547 C4545 1.327 . S
C4548 C4536 1.349 . S
C4548 H4542 0.950 . S
C4548 C4549 1.327 . S
C4549 H4543 0.950 . S
C4549 C4548 1.327 . S
C4549 C4553 1.429 . S
C4550 C4533 1.574 . S
C4550 H4544 0.949 . S
C4550 C4554 1.368 . S
C4551 C4532 1.429 . S
C4551 C4545 1.429 . S
C4551 C4552 1.523 . S
C4552 C4533 1.368 . S
C4552 C4546 1.368 . S
C4552 C4551 1.523 . S
C4553 C4537 1.429 . S
C4553 C4549 1.429 . S
C4553 C4554 1.523 . S
C4554 C4538 1.368 . S
C4554 C4550 1.368 . S
C4554 C4553 1.523 . S
H4555 C4530 0.950 . S
H4556 C4532 0.950 . S
H4557 C4533 0.949 . S
H4558 C4535 0.950 . S
H4559 C4537 0.950 . S
C4560 C4561 1.349 . S
C4560 C4562 1.327 . S
C4560 H4585 0.950 . S
C4561 C4560 1.349 . S
C4561 C4577 1.349 . S
C4562 C4560 1.327 . S
C4562 C4581 1.429 . S
C4562 H4586 0.950 . S
C4563 C4580 1.574 . S
C4563 C4582 1.368 . S
C4563 H4587 0.949 . S
H4564 C4568 0.949 . S
C4565 C4566 1.349 . S
C4565 C4567 1.327 . S
C4565 H4588 0.950 . S
C4566 C4565 1.349 . S
C4566 C4578 1.349 . S
C4567 C4565 1.327 . S
C4567 C4583 1.429 . S
C4567 H4589 0.950 . S
C4568 H4564 0.949 . S
C4568 C4576 1.574 . S
C4568 C4584 1.368 . S
H4569 C4577 0.950 . S
H4570 C4575 0.950 . S
H4571 C4576 0.949 . S
H4572 C4578 0.950 . S
H4573 C4579 0.950 . S
H4574 C4580 0.949 . S
C4575 H4570 0.950 . S
C4575 C4577 1.327 . S
C4575 C4581 1.429 . S
C4576 C4568 1.574 . S
C4576 H4571 0.949 . S
C4576 C4582 1.368 . S
C4577 C4561 1.349 . S
C4577 H4569 0.950 . S
C4577 C4575 1.327 . S
C4578 C4566 1.349 . S
C4578 H4572 0.950 . S
C4578 C4579 1.327 . S
C4579 H4573 0.950 . S
C4579 C4578 1.327 . S
C4579 C4583 1.429 . S
C4580 C4563 1.574 . S
C4580 H4574 0.949 . S
C4580 C4584 1.368 . S
C4581 C4562 1.429 . S
C4581 C4575 1.429 . S
C4581 C4582 1.523 . S
C4582 C4563 1.368 . S
C4582 C4576 1.368 . S
C4582 C4581 1.523 . S
C4583 C4567 1.429 . S
C4583 C4579 1.429 . S
C4583 C4584 1.523 . S
C4584 C4568 1.368 . S
C4584 C4580 1.368 . S
C4584 C4583 1.523 . S
H4585 C4560 0.950 . S
H4586 C4562 0.950 . S
H4587 C4563 0.949 . S
H4588 C4565 0.950 . S
H4589 C4567 0.950 . S
C4590 C4591 1.349 . S
C4590 C4592 1.327 . S
C4590 H4615 0.950 . S
C4591 C4590 1.349 . S
C4591 C4607 1.349 . S
C4592 C4590 1.327 . S
C4592 C4611 1.429 . S
C4592 H4616 0.950 . S
C4593 C4610 1.574 . S
C4593 C4612 1.368 . S
C4593 H4617 0.949 . S
H4594 C4598 0.949 . S
C4595 C4596 1.349 . S
C4595 C4597 1.327 . S
C4595 H4618 0.950 . S
C4596 C4595 1.349 . S
C4596 C4608 1.349 . S
C4597 C4595 1.327 . S
C4597 C4613 1.429 . S
C4597 H4619 0.950 . S
C4598 H4594 0.949 . S
C4598 C4606 1.574 . S
C4598 C4614 1.368 . S
H4599 C4607 0.950 . S
H4600 C4605 0.950 . S
H4601 C4606 0.949 . S
H4602 C4608 0.950 . S
H4603 C4609 0.950 . S
H4604 C4610 0.949 . S
C4605 H4600 0.950 . S
C4605 C4607 1.327 . S
C4605 C4611 1.429 . S
C4606 C4598 1.574 . S
C4606 H4601 0.949 . S
C4606 C4612 1.368 . S
C4607 C4591 1.349 . S
C4607 H4599 0.950 . S
C4607 C4605 1.327 . S
C4608 C4596 1.349 . S
C4608 H4602 0.950 . S
C4608 C4609 1.327 . S
C4609 H4603 0.950 . S
C4609 C4608 1.327 . S
C4609 C4613 1.429 . S
C4610 C4593 1.574 . S
C4610 H4604 0.949 . S
C4610 C4614 1.368 . S
C4611 C4592 1.429 . S
C4611 C4605 1.429 . S
C4611 C4612 1.523 1_655 S
C4612 C4593 1.368 . S
C4612 C4606 1.368 . S
C4612 C4611 1.523 1_455 S
C4613 C4597 1.429 . S
C4613 C4609 1.429 . S
C4613 C4614 1.523 . S
C4614 C4598 1.368 . S
C4614 C4610 1.368 . S
C4614 C4613 1.523 . S
H4615 C4590 0.950 . S
H4616 C4592 0.950 . S
H4617 C4593 0.949 . S
H4618 C4595 0.950 . S
H4619 C4597 0.950 . S
C4620 C4621 1.349 . S
C4620 C4622 1.327 . S
C4620 H4645 0.950 . S
C4621 C4620 1.349 . S
C4621 C4637 1.349 . S
C4622 C4620 1.327 . S
C4622 C4641 1.429 . S
C4622 H4646 0.950 . S
C4623 C4640 1.574 . S
C4623 C4642 1.368 . S
C4623 H4647 0.949 . S
H4624 C4628 0.949 . S
C4625 C4626 1.349 . S
C4625 C4627 1.327 . S
C4625 H4648 0.950 . S
C4626 C4625 1.349 . S
C4626 C4638 1.349 . S
C4627 C4625 1.327 . S
C4627 C4643 1.429 . S
C4627 H4649 0.950 . S
C4628 H4624 0.949 . S
C4628 C4636 1.574 . S
C4628 C4644 1.368 . S
H4629 C4637 0.950 . S
H4630 C4635 0.950 . S
H4631 C4636 0.949 . S
H4632 C4638 0.950 . S
H4633 C4639 0.950 . S
H4634 C4640 0.949 . S
C4635 H4630 0.950 . S
C4635 C4637 1.327 . S
C4635 C4641 1.429 . S
C4636 C4628 1.574 . S
C4636 H4631 0.949 . S
C4636 C4642 1.368 . S
C4637 C4621 1.349 . S
C4637 H4629 0.950 . S
C4637 C4635 1.327 . S
C4638 C4626 1.349 . S
C4638 H4632 0.950 . S
C4638 C4639 1.327 . S
C4639 H4633 0.950 . S
C4639 C4638 1.327 . S
C4639 C4643 1.429 . S
C4640 C4623 1.574 . S
C4640 H4634 0.949 . S
C4640 C4644 1.368 . S
C4641 C4622 1.429 . S
C4641 C4635 1.429 . S
C4641 C4642 1.523 . S
C4642 C4623 1.368 . S
C4642 C4636 1.368 . S
C4642 C4641 1.523 . S
C4643 C4627 1.429 . S
C4643 C4639 1.429 . S
C4643 C4644 1.523 . S
C4644 C4628 1.368 . S
C4644 C4640 1.368 . S
C4644 C4643 1.523 . S
H4645 C4620 0.950 . S
H4646 C4622 0.950 . S
H4647 C4623 0.949 . S
H4648 C4625 0.950 . S
H4649 C4627 0.950 . S
C4650 C4651 1.349 . S
C4650 C4652 1.327 . S
C4650 H4675 0.950 . S
C4651 C4650 1.349 . S
C4651 C4667 1.349 . S
C4652 C4650 1.327 . S
C4652 C4671 1.429 . S
C4652 H4676 0.950 . S
C4653 C4670 1.574 1_565 S
C4653 C4672 1.368 . S
C4653 H4677 0.949 . S
H4654 C4658 0.949 . S
C4655 C4656 1.349 . S
C4655 C4657 1.327 . S
C4655 H4678 0.950 . S
C4656 C4655 1.349 . S
C4656 C4668 1.349 . S
C4657 C4655 1.327 . S
C4657 C4673 1.429 . S
C4657 H4679 0.950 . S
C4658 H4654 0.949 . S
C4658 C4666 1.574 . S
C4658 C4674 1.368 . S
H4659 C4667 0.950 . S
H4660 C4665 0.950 . S
H4661 C4666 0.949 . S
H4662 C4668 0.950 . S
H4663 C4669 0.950 . S
H4664 C4670 0.949 . S
C4665 H4660 0.950 . S
C4665 C4667 1.327 . S
C4665 C4671 1.429 . S
C4666 C4658 1.574 . S
C4666 H4661 0.949 . S
C4666 C4672 1.368 1_545 S
C4667 C4651 1.349 . S
C4667 H4659 0.950 . S
C4667 C4665 1.327 . S
C4668 C4656 1.349 . S
C4668 H4662 0.950 . S
C4668 C4669 1.327 . S
C4669 H4663 0.950 . S
C4669 C4668 1.327 . S
C4669 C4673 1.429 . S
C4670 C4653 1.574 1_545 S
C4670 H4664 0.949 . S
C4670 C4674 1.368 . S
C4671 C4652 1.429 . S
C4671 C4665 1.429 . S
C4671 C4672 1.523 . S
C4672 C4653 1.368 . S
C4672 C4666 1.368 1_565 S
C4672 C4671 1.523 . S
C4673 C4657 1.429 . S
C4673 C4669 1.429 . S
C4673 C4674 1.523 . S
C4674 C4658 1.368 . S
C4674 C4670 1.368 . S
C4674 C4673 1.523 . S
H4675 C4650 0.950 . S
H4676 C4652 0.950 . S
H4677 C4653 0.949 . S
H4678 C4655 0.950 . S
H4679 C4657 0.950 . S
C1441 C1099 2.109 . S
C1446 C19 2.109 . S
C1471 C1139 2.110 . S
C1476 C59 2.110 1_655 S
C1501 C99 2.111 . S
C1506 C1179 2.111 . S
C1531 C139 2.109 . S
C1536 C499 2.109 . S
C1561 C179 2.112 . S
C1566 C539 2.112 . S
C1591 C579 2.109 . S
C1596 C219 2.109 1_565 S
C1621 C250 2.110 1_565 S
C1626 C850 2.110 . S
C1651 C890 2.110 . S
C1656 C290 2.110 . S
C1681 C330 2.111 . S
C1686 C930 2.111 . S
C1711 C1210 2.110 . S
C1716 C370 2.110 1_655 S
C1741 C410 2.111 . S
C1746 C1250 2.111 . S
C1771 C1290 2.110 . S
C1776 C450 2.110 . S
C1801 C979 2.110 . S
C1806 C619 2.110 . S
C1831 C659 2.111 . S
C1836 C1019 2.111 . S
C1861 C1059 2.111 . S
C1866 C699 2.111 . S
C1891 C730 2.109 . S
C1896 C1330 2.109 . S
C1921 C770 2.111 . S
C1926 C1370 2.111 . S
C1951 C1410 2.110 . S
C1956 C810 2.110 . S
C1981 C10 1.637 . S
C1986 C259 1.637 . S
C2011 C299 1.637 . S
C2016 C50 1.637 . S
C2041 C90 1.638 . S
C2046 C339 1.638 . S
C2071 C379 1.637 . S
C2076 C130 1.637 . S
C2101 C170 1.637 . S
C2106 C419 1.637 . S
C2131 C459 1.637 . S
C2136 C210 1.637 . S
C2161 C739 1.637 . S
C2166 C490 1.637 . S
C2191 C530 1.637 . S
C2196 C779 1.637 . S
C2221 C819 1.637 . S
C2226 C570 1.637 . S
C2251 C610 1.638 . S
C2256 C859 1.638 . S
C2281 C899 1.637 . S
C2286 C650 1.637 . S
C2311 C690 1.638 . S
C2316 C939 1.638 . S
C2341 C970 1.638 . S
C2346 C1219 1.638 . S
C2371 C1259 1.638 . S
C2376 C1010 1.638 . S
C2401 C1299 1.637 . S
C2406 C1050 1.637 . S
C2431 C1339 1.637 . S
C2436 C1090 1.637 . S
C2461 C1130 1.637 . S
C2466 C1379 1.637 . S
C2491 C1170 1.637 . S
C2496 C1419 1.637 . S
C2521 C16 1.880 . S
C2526 C91 1.883 . S
C2551 C56 1.880 . S
C2556 C11 1.883 . S
C2581 C51 1.883 . S
C2586 C96 1.880 . S
C2611 C136 1.880 . S
C2616 C171 1.883 . S
C2641 C211 1.883 . S
C2646 C176 1.880 . S
C2671 C131 1.883 . S
C2676 C216 1.880 . S
C2701 C322 1.882 . S
C2706 C247 1.879 . S
C2731 C287 1.880 . S
C2736 C242 1.883 . S
C2761 C327 1.880 . S
C2766 C282 1.883 . S
C2791 C402 1.882 . S
C2796 C367 1.879 . S
C2821 C407 1.880 . S
C2826 C442 1.883 . S
C2851 C447 1.880 . S
C2856 C362 1.883 . S
C2881 C571 1.883 . S
C2886 C496 1.880 . S
C2911 C491 1.883 . S
C2916 C536 1.880 1_545 S
C2941 C531 1.882 . S
C2946 C576 1.879 . S
C2971 C651 1.882 . S
C2976 C616 1.880 . S
C3001 C656 1.880 . S
C3006 C691 1.883 . S
C3031 C611 1.882 . S
C3036 C696 1.880 . S
C3061 C727 1.880 . S
C3066 C802 1.883 . S
C3091 C722 1.883 . S
C3096 C767 1.880 . S
C3121 C807 1.880 . S
C3126 C762 1.882 . S
C3151 C882 1.883 . S
C3156 C847 1.880 . S
C3181 C922 1.882 . S
C3186 C887 1.880 1_545 S
C3211 C842 1.883 . S
C3216 C927 1.880 . S
C3241 C1051 1.882 . S
C3246 C976 1.880 . S
C3271 C1016 1.880 . S
C3276 C971 1.882 . S
C3301 C1011 1.883 . S
C3306 C1056 1.880 . S
C3331 C1096 1.880 . S
C3336 C1131 1.883 . S
C3361 C1136 1.879 . S
C3366 C1171 1.882 . S
C3391 C1091 1.883 . S
C3396 C1176 1.880 1_455 S
C3421 C1207 1.880 . S
C3426 C1282 1.883 . S
C3451 C1247 1.880 . S
C3456 C1202 1.883 . S
C3481 C1242 1.883 . S
C3486 C1287 1.880 1_455 S
C3511 C1327 1.880 . S
C3516 C1362 1.883 . S
C3541 C1402 1.882 . S
C3546 C1367 1.879 . S
C3571 C1322 1.883 . S
C3576 C1407 1.880 . S
C3601 C82 1.116 . S
C3606 C7 1.141 . S
C3631 C47 1.141 . S
C3636 C2 1.115 . S
C3661 C42 1.115 . S
C3666 C87 1.141 . S
C3691 C162 1.116 . S
C3696 C127 1.141 . S
C3721 C167 1.141 . S
C3726 C202 1.115 . S
C3751 C207 1.141 . S
C3756 C122 1.115 . S
C3781 C331 1.116 . S
C3786 C256 1.141 . S
C3811 C296 1.140 . S
C3816 C251 1.115 . S
C3841 C291 1.116 . S
C3846 C336 1.141 . S
C3871 C411 1.116 . S
C3876 C376 1.141 . S
C3901 C451 1.116 . S
C3906 C416 1.141 . S
C3931 C371 1.115 . S
C3936 C456 1.140 . S
C3961 C487 1.141 . S
C3966 C562 1.115 . S
C3991 C527 1.141 . S
C3996 C482 1.116 . S
C4021 C567 1.141 . S
C4026 C522 1.116 . S
C4051 C642 1.116 . S
C4056 C607 1.141 . S
C4081 C647 1.141 . S
C4086 C682 1.116 . S
C4111 C687 1.141 1_655 S
C4116 C602 1.116 . S
C4141 C811 1.115 . S
C4146 C736 1.141 . S
C4171 C731 1.116 . S
C4176 C776 1.141 . S
C4201 C816 1.141 1_655 S
C4206 C771 1.116 . S
C4231 C891 1.115 . S
C4236 C856 1.141 . S
C4261 C896 1.141 . S
C4266 C931 1.116 . S
C4291 C936 1.141 . S
C4296 C851 1.115 . S
C4321 C967 1.141 . S
C4326 C1042 1.116 . S
C4351 C962 1.116 . S
C4356 C1007 1.141 1_565 S
C4381 C1002 1.116 . S
C4386 C1047 1.141 . S
C4411 C1122 1.115 . S
C4416 C1087 1.141 . S
C4441 C1127 1.141 . S
C4446 C1162 1.116 . S
C4471 C1167 1.141 . S
C4476 C1082 1.116 . S
C4501 C1291 1.115 . S
C4506 C1216 1.141 . S
C4531 C1211 1.115 . S
C4536 C1256 1.141 . S
C4561 C1296 1.141 . S
C4566 C1251 1.116 . S
C4591 C1371 1.115 . S
C4596 C1336 1.141 . S
C4621 C1376 1.141 1_565 S
C4626 C1411 1.116 . S
C4651 C1416 1.141 . S
C4656 C1331 1.116 . S
