# Generated by pormake.
# Topology ukc, (4)-cn, num edge types: 1
# Building blocks:
#     Node 0, Type 0, BuildingBlock: NAHDIM_clean_sbu_0, # of connection points: 4
#     Node 1, Type 0, BuildingBlock: NAHDIM_clean_sbu_0, # of connection points: 4
#     Node 2, Type 0, BuildingBlock: NAHDIM_clean_sbu_0, # of connection points: 4
#     Node 3, Type 0, BuildingBlock: NAHDIM_clean_sbu_0, # of connection points: 4
#     Node 4, Type 0, BuildingBlock: NAHDIM_clean_sbu_0, # of connection points: 4
#     Node 5, Type 0, BuildingBlock: NAHDIM_clean_sbu_0, # of connection points: 4
#     Node 6, Type 0, BuildingBlock: NAHDIM_clean_sbu_0, # of connection points: 4
#     Node 7, Type 0, BuildingBlock: NAHDIM_clean_sbu_0, # of connection points: 4
#     Node 8, Type 0, BuildingBlock: NAHDIM_clean_sbu_0, # of connection points: 4
#     Node 9, Type 0, BuildingBlock: NAHDIM_clean_sbu_0, # of connection points: 4
#     Node 10, Type 0, BuildingBlock: NAHDIM_clean_sbu_0, # of connection points: 4
#     Node 11, Type 0, BuildingBlock: NAHDIM_clean_sbu_0, # of connection points: 4
#     Node 12, Type 0, BuildingBlock: NAHDIM_clean_sbu_0, # of connection points: 4
#     Node 13, Type 0, BuildingBlock: NAHDIM_clean_sbu_0, # of connection points: 4
#     Node 14, Type 0, BuildingBlock: NAHDIM_clean_sbu_0, # of connection points: 4
#     Node 15, Type 0, BuildingBlock: NAHDIM_clean_sbu_0, # of connection points: 4
#     Node 16, Type 0, BuildingBlock: NAHDIM_clean_sbu_0, # of connection points: 4
#     Node 17, Type 0, BuildingBlock: NAHDIM_clean_sbu_0, # of connection points: 4
#     Node 18, Type 0, BuildingBlock: NAHDIM_clean_sbu_0, # of connection points: 4
#     Node 19, Type 0, BuildingBlock: NAHDIM_clean_sbu_0, # of connection points: 4
#     Node 20, Type 0, BuildingBlock: NAHDIM_clean_sbu_0, # of connection points: 4
#     Node 21, Type 0, BuildingBlock: NAHDIM_clean_sbu_0, # of connection points: 4
#     Node 22, Type 0, BuildingBlock: NAHDIM_clean_sbu_0, # of connection points: 4
#     Node 23, Type 0, BuildingBlock: NAHDIM_clean_sbu_0, # of connection points: 4
#     Node 24, Type 0, BuildingBlock: NAHDIM_clean_sbu_0, # of connection points: 4
#     Node 25, Type 0, BuildingBlock: NAHDIM_clean_sbu_0, # of connection points: 4
#     Node 26, Type 0, BuildingBlock: NAHDIM_clean_sbu_0, # of connection points: 4
#     Node 27, Type 0, BuildingBlock: NAHDIM_clean_sbu_0, # of connection points: 4
#     Node 28, Type 0, BuildingBlock: NAHDIM_clean_sbu_0, # of connection points: 4
#     Node 29, Type 0, BuildingBlock: NAHDIM_clean_sbu_0, # of connection points: 4
#     Node 30, Type 0, BuildingBlock: NAHDIM_clean_sbu_0, # of connection points: 4
#     Node 31, Type 0, BuildingBlock: NAHDIM_clean_sbu_0, # of connection points: 4
#     Edge 32, Type (0, 0), BuildingBlock: XIVTED_clean_linker_0, # of connection points: 2
#     Edge 33, Type (0, 0), BuildingBlock: XIVTED_clean_linker_0, # of connection points: 2
#     Edge 34, Type (0, 0), BuildingBlock: XIVTED_clean_linker_0, # of connection points: 2
#     Edge 35, Type (0, 0), BuildingBlock: XIVTED_clean_linker_0, # of connection points: 2
#     Edge 36, Type (0, 0), BuildingBlock: XIVTED_clean_linker_0, # of connection points: 2
#     Edge 37, Type (0, 0), BuildingBlock: XIVTED_clean_linker_0, # of connection points: 2
#     Edge 38, Type (0, 0), BuildingBlock: XIVTED_clean_linker_0, # of connection points: 2
#     Edge 39, Type (0, 0), BuildingBlock: XIVTED_clean_linker_0, # of connection points: 2
#     Edge 40, Type (0, 0), BuildingBlock: XIVTED_clean_linker_0, # of connection points: 2
#     Edge 41, Type (0, 0), BuildingBlock: XIVTED_clean_linker_0, # of connection points: 2
#     Edge 42, Type (0, 0), BuildingBlock: XIVTED_clean_linker_0, # of connection points: 2
#     Edge 43, Type (0, 0), BuildingBlock: XIVTED_clean_linker_0, # of connection points: 2
#     Edge 44, Type (0, 0), BuildingBlock: XIVTED_clean_linker_0, # of connection points: 2
#     Edge 45, Type (0, 0), BuildingBlock: XIVTED_clean_linker_0, # of connection points: 2
#     Edge 46, Type (0, 0), BuildingBlock: XIVTED_clean_linker_0, # of connection points: 2
#     Edge 47, Type (0, 0), BuildingBlock: XIVTED_clean_linker_0, # of connection points: 2
#     Edge 48, Type (0, 0), BuildingBlock: XIVTED_clean_linker_0, # of connection points: 2
#     Edge 49, Type (0, 0), BuildingBlock: XIVTED_clean_linker_0, # of connection points: 2
#     Edge 50, Type (0, 0), BuildingBlock: XIVTED_clean_linker_0, # of connection points: 2
#     Edge 51, Type (0, 0), BuildingBlock: XIVTED_clean_linker_0, # of connection points: 2
#     Edge 52, Type (0, 0), BuildingBlock: XIVTED_clean_linker_0, # of connection points: 2
#     Edge 53, Type (0, 0), BuildingBlock: XIVTED_clean_linker_0, # of connection points: 2
#     Edge 54, Type (0, 0), BuildingBlock: XIVTED_clean_linker_0, # of connection points: 2
#     Edge 55, Type (0, 0), BuildingBlock: XIVTED_clean_linker_0, # of connection points: 2
#     Edge 56, Type (0, 0), BuildingBlock: XIVTED_clean_linker_0, # of connection points: 2
#     Edge 57, Type (0, 0), BuildingBlock: XIVTED_clean_linker_0, # of connection points: 2
#     Edge 58, Type (0, 0), BuildingBlock: XIVTED_clean_linker_0, # of connection points: 2
#     Edge 59, Type (0, 0), BuildingBlock: XIVTED_clean_linker_0, # of connection points: 2
#     Edge 60, Type (0, 0), BuildingBlock: XIVTED_clean_linker_0, # of connection points: 2
#     Edge 61, Type (0, 0), BuildingBlock: XIVTED_clean_linker_0, # of connection points: 2
#     Edge 62, Type (0, 0), BuildingBlock: XIVTED_clean_linker_0, # of connection points: 2
#     Edge 63, Type (0, 0), BuildingBlock: XIVTED_clean_linker_0, # of connection points: 2
#     Edge 64, Type (0, 0), BuildingBlock: XIVTED_clean_linker_0, # of connection points: 2
#     Edge 65, Type (0, 0), BuildingBlock: XIVTED_clean_linker_0, # of connection points: 2
#     Edge 66, Type (0, 0), BuildingBlock: XIVTED_clean_linker_0, # of connection points: 2
#     Edge 67, Type (0, 0), BuildingBlock: XIVTED_clean_linker_0, # of connection points: 2
#     Edge 68, Type (0, 0), BuildingBlock: XIVTED_clean_linker_0, # of connection points: 2
#     Edge 69, Type (0, 0), BuildingBlock: XIVTED_clean_linker_0, # of connection points: 2
#     Edge 70, Type (0, 0), BuildingBlock: XIVTED_clean_linker_0, # of connection points: 2
#     Edge 71, Type (0, 0), BuildingBlock: XIVTED_clean_linker_0, # of connection points: 2
#     Edge 72, Type (0, 0), BuildingBlock: XIVTED_clean_linker_0, # of connection points: 2
#     Edge 73, Type (0, 0), BuildingBlock: XIVTED_clean_linker_0, # of connection points: 2
#     Edge 74, Type (0, 0), BuildingBlock: XIVTED_clean_linker_0, # of connection points: 2
#     Edge 75, Type (0, 0), BuildingBlock: XIVTED_clean_linker_0, # of connection points: 2
#     Edge 76, Type (0, 0), BuildingBlock: XIVTED_clean_linker_0, # of connection points: 2
#     Edge 77, Type (0, 0), BuildingBlock: XIVTED_clean_linker_0, # of connection points: 2
#     Edge 78, Type (0, 0), BuildingBlock: XIVTED_clean_linker_0, # of connection points: 2
#     Edge 79, Type (0, 0), BuildingBlock: XIVTED_clean_linker_0, # of connection points: 2
#     Edge 80, Type (0, 0), BuildingBlock: XIVTED_clean_linker_0, # of connection points: 2
#     Edge 81, Type (0, 0), BuildingBlock: XIVTED_clean_linker_0, # of connection points: 2
#     Edge 82, Type (0, 0), BuildingBlock: XIVTED_clean_linker_0, # of connection points: 2
#     Edge 83, Type (0, 0), BuildingBlock: XIVTED_clean_linker_0, # of connection points: 2
#     Edge 84, Type (0, 0), BuildingBlock: XIVTED_clean_linker_0, # of connection points: 2
#     Edge 85, Type (0, 0), BuildingBlock: XIVTED_clean_linker_0, # of connection points: 2
#     Edge 86, Type (0, 0), BuildingBlock: XIVTED_clean_linker_0, # of connection points: 2
#     Edge 87, Type (0, 0), BuildingBlock: XIVTED_clean_linker_0, # of connection points: 2
#     Edge 88, Type (0, 0), BuildingBlock: XIVTED_clean_linker_0, # of connection points: 2
#     Edge 89, Type (0, 0), BuildingBlock: XIVTED_clean_linker_0, # of connection points: 2
#     Edge 90, Type (0, 0), BuildingBlock: XIVTED_clean_linker_0, # of connection points: 2
#     Edge 91, Type (0, 0), BuildingBlock: XIVTED_clean_linker_0, # of connection points: 2
#     Edge 92, Type (0, 0), BuildingBlock: XIVTED_clean_linker_0, # of connection points: 2
#     Edge 93, Type (0, 0), BuildingBlock: XIVTED_clean_linker_0, # of connection points: 2
#     Edge 94, Type (0, 0), BuildingBlock: XIVTED_clean_linker_0, # of connection points: 2
#     Edge 95, Type (0, 0), BuildingBlock: XIVTED_clean_linker_0, # of connection points: 2
# Relax obj value: 0.064
# Max RMSD: 0.092
# Mean RMSD: 0.092
data_MOF--net-ukc--node1-NAHDIM_clean_sbu_0--edge1-XIVTED_clean_linker_0
_symmetry_space_group_name_H-M    P1
_symmetry_Int_Tables_number       1
_symmetry_cell_setting            triclinic
loop_
_symmetry_equiv_pos_as_xyz
'x, y, z'
_cell_length_a     46.095501
_cell_length_b     46.049552
_cell_length_c     83.771519
_cell_angle_alpha  89.96013
_cell_angle_beta   90.008611
_cell_angle_gamma 89.982025
loop_
_atom_site_label
_atom_site_type_symbol
_atom_site_fract_x
_atom_site_fract_y
_atom_site_fract_z
_atom_type_partial_charge
C0 C 0.15249 0.3711 0.02664 0.0
O1 O 0.14421 0.38951 0.03771 0.0
O2 O 0.10341 0.34688 0.05683 0.0
Zn3 Zn 0.09669 0.3488 0.03321 0.0
O4 O 0.0733 0.38424 0.02773 0.0
C5 C 0.08635 0.28812 0.02931 0.0
O6 O 0.11161 0.28645 0.03654 0.0
O7 O 0.13523 0.35107 0.02237 0.0
C8 C 0.04581 0.38343 0.0266 0.0
O9 O 0.03219 0.35882 0.02916 0.0
C10 C 0.08274 0.34113 0.06634 0.0
O11 O 0.0566 0.33682 0.06056 0.0
O12 O 0.07569 0.31294 0.02629 0.0
C13 C 0.84789 0.89789 0.28755 0.0
O14 O 0.82749 0.88698 0.29672 0.0
O15 O 0.88097 0.85332 0.32057 0.0
Zn16 Zn 0.8753 0.84562 0.29714 0.0
O17 O 0.83952 0.82206 0.29258 0.0
C18 C 0.93437 0.83414 0.28673 0.0
O19 O 0.93849 0.86173 0.29002 0.0
O20 O 0.87144 0.88389 0.28579 0.0
C21 C 0.83448 0.81809 0.27782 0.0
O22 O 0.85236 0.82938 0.26729 0.0
C23 C 0.86112 0.8509 0.331 0.0
O24 O 0.83515 0.84226 0.32662 0.0
O25 O 0.90941 0.82311 0.28879 0.0
C26 C 0.34129 0.5698 0.50888 0.0
O27 O 0.34898 0.54378 0.51374 0.0
O28 O 0.38962 0.58001 0.54528 0.0
Zn29 Zn 0.39672 0.585 0.52179 0.0
O30 O 0.41694 0.55026 0.51245 0.0
C31 C 0.41113 0.64428 0.52504 0.0
O32 O 0.38539 0.64404 0.53178 0.0
O33 O 0.35856 0.59095 0.51093 0.0
C34 C 0.44435 0.54979 0.51091 0.0
O35 O 0.45962 0.57219 0.51577 0.0
C36 C 0.4109 0.58191 0.55486 0.0
O37 O 0.43718 0.58503 0.54903 0.0
O38 O 0.42098 0.62088 0.51913 0.0
C39 C 0.65848 0.09335 0.76879 0.0
O40 O 0.68111 0.10847 0.77345 0.0
O41 O 0.64108 0.14784 0.79938 0.0
Zn42 Zn 0.63181 0.1468 0.7759 0.0
O43 O 0.66051 0.17022 0.76321 0.0
C44 C 0.57161 0.15633 0.78234 0.0
O45 O 0.57666 0.13673 0.7934 0.0
O46 O 0.63369 0.10542 0.76864 0.0
C47 C 0.65666 0.19702 0.76027 0.0
O48 O 0.63368 0.21022 0.76604 0.0
C49 C 0.63429 0.16972 0.80782 0.0
O50 O 0.62285 0.19258 0.80085 0.0
O51 O 0.59187 0.16327 0.77279 0.0
C52 C 0.14594 0.60259 0.45948 0.0
O53 O 0.13024 0.58093 0.45405 0.0
O54 O 0.10603 0.63962 0.4236 0.0
Zn55 Zn 0.09866 0.63615 0.44712 0.0
O56 O 0.0711 0.60342 0.45203 0.0
C57 C 0.07109 0.67688 0.46871 0.0
O58 O 0.07003 0.65444 0.47839 0.0
O59 O 0.13661 0.62841 0.45795 0.0
C60 C 0.04376 0.60655 0.45295 0.0
O61 O 0.03219 0.63204 0.44993 0.0
C62 C 0.10735 0.61794 0.41426 0.0
O63 O 0.1029 0.59173 0.41997 0.0
O64 O 0.08247 0.67401 0.45498 0.0
C65 C 0.67925 0.88695 0.73258 0.0
O66 O 0.70492 0.87709 0.72843 0.0
O67 O 0.66824 0.83686 0.69726 0.0
Zn68 Zn 0.66165 0.8315 0.72086 0.0
O69 O 0.69443 0.81004 0.73148 0.0
C70 C 0.60245 0.81819 0.71569 0.0
O71 O 0.60456 0.84216 0.70726 0.0
O72 O 0.65716 0.87086 0.73068 0.0
C73 C 0.69415 0.78255 0.7328 0.0
O74 O 0.67249 0.76781 0.72663 0.0
C75 C 0.66211 0.81635 0.6877 0.0
O76 O 0.65438 0.79104 0.69356 0.0
O77 O 0.62445 0.80934 0.72343 0.0
C78 C 0.34786 0.39285 0.97564 0.0
O79 O 0.35651 0.37378 0.96499 0.0
O80 O 0.38811 0.41583 0.94211 0.0
Zn81 Zn 0.39932 0.42016 0.96517 0.0
O82 O 0.41719 0.45891 0.96986 0.0
C83 C 0.45478 0.39232 0.96879 0.0
O84 O 0.4641 0.41679 0.96257 0.0
O85 O 0.36328 0.41522 0.97816 0.0
C86 C 0.42347 0.46369 0.98439 0.0
O87 O 0.41713 0.44384 0.99511 0.0
C88 C 0.40468 0.42138 0.9304 0.0
O89 O 0.43078 0.4317 0.93311 0.0
O90 O 0.42774 0.3888 0.97103 0.0
C91 C 0.81802 0.08541 0.22869 0.0
O92 O 0.79241 0.09791 0.22838 0.0
O93 O 0.83861 0.12295 0.18484 0.0
Zn94 Zn 0.83714 0.13353 0.2082 0.0
O95 O 0.80154 0.15718 0.21314 0.0
C96 C 0.89713 0.14613 0.21436 0.0
O97 O 0.9 0.11831 0.21127 0.0
O98 O 0.839 0.09685 0.22114 0.0
C99 C 0.80088 0.17075 0.22634 0.0
O100 O 0.82264 0.16768 0.23634 0.0
C101 C 0.85261 0.13865 0.17502 0.0
O102 O 0.86511 0.16252 0.18015 0.0
O103 O 0.87207 0.15756 0.21377 0.0
C104 C 0.83458 0.58361 0.98792 0.0
O105 O 0.8404 0.55896 0.98071 0.0
O106 O 0.88493 0.58956 0.95487 0.0
Zn107 Zn 0.89246 0.59579 0.97823 0.0
O108 O 0.91277 0.56101 0.98762 0.0
C109 C 0.90987 0.65385 0.97234 0.0
O110 O 0.88524 0.65351 0.96444 0.0
O111 O 0.85423 0.60286 0.98886 0.0
C112 C 0.94009 0.5615 0.98968 0.0
O113 O 0.95467 0.58496 0.98577 0.0
C114 C 0.90613 0.58841 0.94522 0.0
O115 O 0.93269 0.58956 0.95087 0.0
O116 O 0.91748 0.63135 0.98004 0.0
C117 C 0.11367 0.08759 0.72178 0.0
O118 O 0.11005 0.0901 0.70629 0.0
O119 O 0.13099 0.14486 0.69669 0.0
Zn120 Zn 0.12129 0.14967 0.71996 0.0
O121 O 0.15259 0.17194 0.73131 0.0
C122 C 0.06321 0.16469 0.71174 0.0
O123 O 0.06713 0.1432 0.70166 0.0
O124 O 0.11804 0.11025 0.7301 0.0
C125 C 0.15186 0.19935 0.733 0.0
O126 O 0.13018 0.21413 0.72686 0.0
C127 C 0.12916 0.166 0.68699 0.0
O128 O 0.12296 0.19196 0.69251 0.0
O129 O 0.08338 0.17107 0.72146 0.0
C130 C 0.64912 0.36142 0.46235 0.0
O131 O 0.64171 0.37797 0.45024 0.0
O132 O 0.59826 0.33965 0.43294 0.0
Zn133 Zn 0.5925 0.33984 0.45676 0.0
O134 O 0.56925 0.3744 0.46376 0.0
C135 C 0.55605 0.30002 0.47504 0.0
O136 O 0.55134 0.32245 0.48437 0.0
O137 O 0.6313 0.34248 0.46739 0.0
C138 C 0.54214 0.37729 0.46156 0.0
O139 O 0.52773 0.35685 0.45404 0.0
C140 C 0.59337 0.36137 0.42397 0.0
O141 O 0.58366 0.38562 0.43026 0.0
O142 O 0.57272 0.30272 0.46305 0.0
C143 C 0.37089 0.9051 0.20696 0.0
O144 O 0.39756 0.89582 0.20481 0.0
O145 O 0.35677 0.86174 0.1654 0.0
Zn146 Zn 0.35661 0.85351 0.18901 0.0
O147 O 0.3246 0.82548 0.19435 0.0
C148 C 0.39879 0.8085 0.19341 0.0
O149 O 0.37835 0.79296 0.18659 0.0
O150 O 0.34992 0.89057 0.20121 0.0
C151 C 0.32349 0.8155 0.20849 0.0
O152 O 0.34277 0.82428 0.21898 0.0
C153 C 0.37419 0.88029 0.15952 0.0
O154 O 0.3922 0.894 0.16905 0.0
O155 O 0.39467 0.83551 0.19551 0.0
C156 C 0.83369 0.39932 0.52182 0.0
O157 O 0.836 0.39212 0.53694 0.0
O158 O 0.88078 0.43031 0.54983 0.0
Zn159 Zn 0.89127 0.42048 0.52717 0.0
O160 O 0.91247 0.45335 0.51648 0.0
C161 C 0.91066 0.36399 0.53714 0.0
O162 O 0.8889 0.36696 0.54712 0.0
O163 O 0.85474 0.41206 0.51498 0.0
C164 C 0.92995 0.44765 0.50518 0.0
O165 O 0.93401 0.42048 0.50097 0.0
C166 C 0.90024 0.43085 0.56056 0.0
O167 O 0.92751 0.42759 0.55636 0.0
O168 O 0.91615 0.38433 0.52733 0.0
C169 C 0.33248 0.08568 0.27052 0.0
O170 O 0.30631 0.0927 0.27538 0.0
O171 O 0.34846 0.12485 0.31123 0.0
Zn172 Zn 0.35037 0.13709 0.28814 0.0
O173 O 0.31474 0.15995 0.28223 0.0
C174 C 0.386 0.18874 0.2831 0.0
O175 O 0.36134 0.20281 0.28449 0.0
O176 O 0.35387 0.10148 0.27449 0.0
C177 C 0.31103 0.16824 0.2679 0.0
O178 O 0.33033 0.16104 0.25706 0.0
C179 C 0.35812 0.14139 0.32214 0.0
O180 O 0.36877 0.16686 0.31821 0.0
O181 O 0.38625 0.16122 0.2844 0.0
C182 C 0.63224 0.63145 0.02302 0.0
O183 O 0.61386 0.61031 0.02594 0.0
O184 O 0.5907 0.67184 0.05885 0.0
Zn185 Zn 0.58563 0.66656 0.03523 0.0
O186 O 0.55753 0.63433 0.03065 0.0
C187 C 0.58081 0.72783 0.02791 0.0
O188 O 0.60519 0.72977 0.03596 0.0
O189 O 0.62466 0.65753 0.02572 0.0
C190 C 0.54829 0.63178 0.01643 0.0
O191 O 0.55748 0.65007 0.0055 0.0
C192 C 0.60026 0.65126 0.06748 0.0
O193 O 0.60589 0.62603 0.06087 0.0
O194 O 0.56918 0.70311 0.02594 0.0
C195 C 0.14388 0.89153 0.77081 0.0
O196 O 0.14298 0.88874 0.78641 0.0
O197 O 0.16798 0.83659 0.79571 0.0
Zn198 Zn 0.15749 0.83068 0.77256 0.0
O199 O 0.18907 0.80932 0.76081 0.0
C200 C 0.10007 0.81491 0.78132 0.0
O201 O 0.1031 0.83832 0.79012 0.0
O202 O 0.14999 0.86953 0.76228 0.0
C203 C 0.18929 0.78172 0.76043 0.0
O204 O 0.16886 0.76727 0.76794 0.0
C205 C 0.16419 0.81617 0.8057 0.0
O206 O 0.15646 0.79043 0.80047 0.0
O207 O 0.1206 0.80739 0.77209 0.0
C208 C 0.64576 0.84267 0.53558 0.0
O209 O 0.64327 0.82315 0.54694 0.0
O210 O 0.5953 0.85003 0.56724 0.0
Zn211 Zn 0.58636 0.85412 0.54386 0.0
O212 O 0.56144 0.88906 0.53927 0.0
C213 C 0.53797 0.81782 0.5423 0.0
O214 O 0.52856 0.83906 0.5514 0.0
O215 O 0.62381 0.85791 0.53181 0.0
C216 C 0.55216 0.89108 0.52502 0.0
O217 O 0.56017 0.87142 0.51455 0.0
C218 C 0.61331 0.86623 0.57448 0.0
O219 O 0.62557 0.88781 0.56674 0.0
O220 O 0.56386 0.8188 0.53711 0.0
C221 C 0.39073 0.39099 0.77434 0.0
O222 O 0.40901 0.38726 0.7862 0.0
O223 O 0.36961 0.35485 0.80958 0.0
Zn224 Zn 0.36549 0.3392 0.78729 0.0
O225 O 0.32628 0.32139 0.78302 0.0
C226 C 0.40547 0.29364 0.79496 0.0
O227 O 0.39396 0.2972 0.80917 0.0
O228 O 0.37057 0.37259 0.77222 0.0
C229 C 0.32017 0.29538 0.78683 0.0
O230 O 0.33933 0.27987 0.7947 0.0
C231 C 0.35061 0.35442 0.82055 0.0
O232 O 0.32512 0.34275 0.81774 0.0
O233 O 0.39681 0.30947 0.78347 0.0
C234 C 0.84659 0.07626 0.01497 0.0
O235 O 0.85312 0.04887 0.0175 0.0
O236 O 0.89858 0.08875 0.05305 0.0
Zn237 Zn 0.9029 0.08703 0.02919 0.0
O238 O 0.9192 0.04896 0.02167 0.0
C239 C 0.9578 0.11457 0.0266 0.0
O240 O 0.96603 0.0901 0.03329 0.0
O241 O 0.86464 0.09584 0.01887 0.0
C242 C 0.92634 0.04733 0.00705 0.0
O243 O 0.92124 0.06964 -0.00233 0.0
C244 C 0.87822 0.0771 0.06102 0.0
O245 O 0.85884 0.06109 0.05364 0.0
O246 O 0.93115 0.11829 0.02333 0.0
C247 C 0.10784 0.59083 0.25864 0.0
O248 O 0.0921 0.59782 0.27114 0.0
O249 O 0.13485 0.63762 0.2882 0.0
Zn250 Zn 0.13138 0.64693 0.26485 0.0
O251 O 0.1674 0.66708 0.25707 0.0
C252 C 0.10055 0.70087 0.26377 0.0
O253 O 0.1269 0.71095 0.26596 0.0
O254 O 0.12586 0.60921 0.25317 0.0
C255 C 0.16887 0.67557 0.24265 0.0
O256 O 0.14721 0.66984 0.23295 0.0
C257 C 0.14422 0.65587 0.29832 0.0
O258 O 0.15333 0.68134 0.29335 0.0
O259 O 0.09686 0.67361 0.26234 0.0
C260 C 0.65247 0.13578 0.97184 0.0
O261 O 0.63274 0.11579 0.96918 0.0
O262 O 0.61041 0.17175 0.93508 0.0
Zn263 Zn 0.60773 0.17187 0.95907 0.0
O264 O 0.57821 0.14312 0.96702 0.0
C265 C 0.57762 0.21574 0.97724 0.0
O266 O 0.56998 0.19343 0.98606 0.0
O267 O 0.64671 0.16212 0.96853 0.0
C268 C 0.55657 0.13374 0.95918 0.0
O269 O 0.55263 0.1424 0.94439 0.0
C270 C 0.62371 0.15258 0.927 0.0
O271 O 0.63596 0.13061 0.93439 0.0
O272 O 0.59474 0.21182 0.96554 0.0
C273 C 0.11722 0.38458 0.22063 0.0
O274 O 0.13603 0.37698 0.20961 0.0
O275 O 0.1005 0.32776 0.19338 0.0
Zn276 Zn 0.10325 0.32504 0.21725 0.0
O277 O 0.14063 0.3058 0.22373 0.0
C278 C 0.07211 0.27304 0.22093 0.0
O279 O 0.09617 0.2635 0.21435 0.0
O280 O 0.10036 0.36538 0.22636 0.0
C281 C 0.14387 0.29692 0.23798 0.0
O282 O 0.12314 0.30173 0.24842 0.0
C283 C 0.12176 0.32557 0.18381 0.0
O284 O 0.148 0.32148 0.18951 0.0
O285 O 0.06983 0.29994 0.22409 0.0
C286 C 0.8394 0.89253 0.4883 0.0
O287 O 0.84142 0.91162 0.47668 0.0
O288 O 0.88871 0.8835 0.45686 0.0
Zn289 Zn 0.89869 0.88545 0.48023 0.0
O290 O 0.91637 0.92409 0.48583 0.0
C291 C 0.95366 0.85672 0.48091 0.0
O292 O 0.96199 0.88153 0.47467 0.0
O293 O 0.86195 0.87866 0.49254 0.0
C294 C 0.9274 0.92777 0.49959 0.0
O295 O 0.92618 0.90648 0.51001 0.0
C296 C 0.90403 0.89486 0.44591 0.0
O297 O 0.9274 0.90958 0.44978 0.0
O298 O 0.92721 0.85342 0.48479 0.0
C299 C 0.38359 0.57715 0.71256 0.0
O300 O 0.36302 0.58151 0.70197 0.0
O301 O 0.39813 0.62518 0.67982 0.0
Zn302 Zn 0.39687 0.6347 0.70325 0.0
O303 O 0.35921 0.65362 0.70971 0.0
C304 C 0.43867 0.67964 0.69793 0.0
O305 O 0.42652 0.67954 0.68375 0.0
O306 O 0.40144 0.59748 0.71548 0.0
C307 C 0.35251 0.67909 0.70515 0.0
O308 O 0.36989 0.69298 0.69536 0.0
C309 C 0.37626 0.62264 0.67071 0.0
O310 O 0.3501 0.62674 0.6765 0.0
O311 O 0.42986 0.6618 0.70845 0.0
C312 C 0.3295 0.10987 0.47611 0.0
O313 O 0.33899 0.13077 0.46679 0.0
O314 O 0.38435 0.09218 0.4463 0.0
Zn315 Zn 0.3863 0.08746 0.4701 0.0
O316 O 0.40664 0.0505 0.47631 0.0
C317 C 0.43688 0.11989 0.47392 0.0
O318 O 0.44613 0.09742 0.4657 0.0
O319 O 0.34622 0.08876 0.4794 0.0
C320 C 0.41425 0.04783 0.49082 0.0
O321 O 0.40715 0.06832 0.50101 0.0
C322 C 0.36661 0.07963 0.43697 0.0
O323 O 0.34808 0.06072 0.44279 0.0
O324 O 0.41035 0.12087 0.478 0.0
C325 C 0.61432 0.61054 0.22239 0.0
O326 O 0.59699 0.61626 0.21034 0.0
O327 O 0.63442 0.66412 0.19364 0.0
Zn328 Zn 0.62978 0.66977 0.21728 0.0
O329 O 0.66225 0.69447 0.22572 0.0
C330 C 0.58812 0.71618 0.22253 0.0
O331 O 0.61141 0.73235 0.22412 0.0
O332 O 0.63048 0.6306 0.22781 0.0
C333 C 0.66608 0.69781 0.24063 0.0
O334 O 0.64835 0.68493 0.25067 0.0
C335 C 0.63151 0.68575 0.18435 0.0
O336 O 0.6274 0.71164 0.19051 0.0
O337 O 0.59094 0.689 0.22037 0.0
C338 C 0.14036 0.88618 0.96554 0.0
O339 O 0.12324 0.90774 0.96145 0.0
O340 O 0.10402 0.84948 0.92729 0.0
Zn341 Zn 0.09492 0.85422 0.95061 0.0
O342 O 0.06772 0.88769 0.95483 0.0
C343 C 0.049 0.81613 0.95047 0.0
O344 O 0.04186 0.83589 0.93985 0.0
O345 O 0.13253 0.86027 0.96252 0.0
C346 C 0.05722 0.88825 0.96886 0.0
O347 O 0.06523 0.86815 0.9791 0.0
C348 C 0.12111 0.8658 0.91946 0.0
O349 O 0.13276 0.88846 0.92649 0.0
O350 O 0.07339 0.81829 0.95748 0.0
C351 C 0.88052 0.39775 0.71661 0.0
O352 O 0.90057 0.39424 0.70563 0.0
O353 O 0.86218 0.36311 0.67973 0.0
Zn354 Zn 0.85658 0.34709 0.70181 0.0
O355 O 0.81776 0.3279 0.70508 0.0
C356 C 0.89873 0.30323 0.69482 0.0
O357 O 0.8883 0.30685 0.68035 0.0
O358 O 0.85959 0.37988 0.71734 0.0
C359 C 0.81294 0.30171 0.70112 0.0
O360 O 0.8331 0.28715 0.69347 0.0
C361 C 0.844 0.37787 0.67173 0.0
O362 O 0.81813 0.38296 0.67768 0.0
O363 O 0.8885 0.3183 0.70621 0.0
C364 C 0.34016 0.937 0.00357 0.0
O365 O 0.34492 0.96087 0.01175 0.0
O366 O 0.39487 0.93063 0.03471 0.0
Zn367 Zn 0.39978 0.92885 0.01083 0.0
O368 O 0.41588 0.96596 0.00167 0.0
C369 C 0.45384 0.89982 0.0114 0.0
O370 O 0.46104 0.92421 0.01849 0.0
O371 O 0.36109 0.91965 0.00108 0.0
C372 C 0.42826 0.98497 0.01029 0.0
O373 O 0.42946 0.9811 0.02581 0.0
C374 C 0.38067 0.90987 0.04096 0.0
O375 O 0.36971 0.88977 0.03161 0.0
O376 O 0.42797 0.89659 0.00646 0.0
C377 C 0.87984 0.57573 0.78525 0.0
O378 O 0.85832 0.57991 0.79526 0.0
O379 O 0.89477 0.62216 0.81945 0.0
Zn380 Zn 0.89436 0.6322 0.7961 0.0
O381 O 0.85726 0.65179 0.78924 0.0
C382 C 0.93744 0.67584 0.80195 0.0
O383 O 0.92525 0.67583 0.81613 0.0
O384 O 0.89874 0.59554 0.7835 0.0
C385 C 0.85291 0.67872 0.79152 0.0
O386 O 0.87231 0.69391 0.79938 0.0
C387 C 0.8727 0.62045 0.82847 0.0
O388 O 0.8468 0.6256 0.82257 0.0
O389 O 0.92801 0.65861 0.7913 0.0
C390 C 0.13105 0.12116 0.5247 0.0
O391 O 0.12133 0.09892 0.53294 0.0
O392 O 0.09284 0.1504 0.56131 0.0
Zn393 Zn 0.08079 0.14651 0.53835 0.0
O394 O 0.05656 0.11063 0.53499 0.0
C395 C 0.03403 0.18471 0.54153 0.0
O396 O 0.02781 0.16484 0.55227 0.0
O397 O 0.1167 0.14472 0.52478 0.0
C398 C 0.04323 0.1078 0.5218 0.0
O399 O 0.04587 0.1282 0.51092 0.0
C400 C 0.09749 0.12928 0.57073 0.0
O401 O 0.09431 0.10257 0.56553 0.0
O402 O 0.05678 0.18166 0.53314 0.0
C403 C 0.6253 0.40788 0.26614 0.0
O404 O 0.64423 0.40188 0.2774 0.0
O405 O 0.61109 0.3571 0.29675 0.0
Zn406 Zn 0.60863 0.34986 0.27312 0.0
O407 O 0.64293 0.32616 0.26593 0.0
C408 C 0.57125 0.30061 0.27256 0.0
O409 O 0.59523 0.28793 0.27737 0.0
O410 O 0.6075 0.38834 0.26182 0.0
C411 C 0.64302 0.31313 0.25257 0.0
O412 O 0.62073 0.31623 0.24293 0.0
C413 C 0.62339 0.33928 0.30615 0.0
O414 O 0.63585 0.31599 0.30025 0.0
O415 O 0.57166 0.32761 0.2694 0.0
H416 H -0.00195 0.55592 0.99577 0.0
H417 H 0.9871 0.38939 0.02256 0.0
H418 H 0.91732 0.50853 -0.00204 0.0
H419 H 0.06735 0.43757 0.02024 0.0
H420 H 0.96085 0.43303 0.01433 0.0
H421 H 0.02348 0.513 0.0055 0.0
C422 C 0.98564 0.5365 -0.00167 0.0
C423 C 0.95551 0.5358 0.99599 0.0
C424 C 0.98419 0.43406 0.01566 0.0
C425 C 0.98456 0.48648 0.00714 0.0
C426 C -0.0008 0.40915 0.02036 0.0
C427 C 0.02949 0.40979 0.02204 0.0
C428 C -0.00042 0.45979 0.01261 0.0
C429 C 0.04401 0.43602 0.01906 0.0
C430 C 0.0002 0.51197 0.00389 0.0
C431 C 0.94058 0.51003 -0.00045 0.0
N432 N 0.02893 0.45993 0.01445 0.0
N433 N 0.95528 0.48636 0.00491 0.0
H434 H 0.68107 0.70943 0.27168 0.0
H435 H 0.81796 0.80673 0.24719 0.0
H436 H 0.70628 0.7275 0.22303 0.0
H437 H 0.79345 0.79037 0.29612 0.0
H438 H 0.7767 0.77798 0.2383 0.0
H439 H 0.72165 0.73917 0.28102 0.0
C440 C 0.6951 0.71966 0.26296 0.0
C441 C 0.69028 0.71592 0.24654 0.0
C442 C 0.78028 0.78066 0.25099 0.0
C443 C 0.73673 0.74994 0.25716 0.0
C444 C 0.80388 0.7971 0.25609 0.0
C445 C 0.80921 0.80094 0.27244 0.0
C446 C 0.76178 0.76786 0.2623 0.0
C447 C 0.79016 0.78795 0.2834 0.0
C448 C 0.71826 0.73663 0.26831 0.0
C449 C 0.70916 0.72971 0.2358 0.0
N450 N 0.76729 0.77194 0.27812 0.0
N451 N 0.73152 0.74606 0.2413 0.0
H452 H 0.48364 0.38843 0.46216 0.0
H453 H 0.50254 0.5409 0.50693 0.0
H454 H 0.56634 0.42476 0.47583 0.0
H455 H 0.41923 0.50135 0.49785 0.0
H456 H 0.52614 0.49936 0.49439 0.0
H457 H 0.45944 0.43066 0.47389 0.0
C458 C 0.49671 0.40531 0.46757 0.0
C459 C 0.52705 0.40302 0.46805 0.0
C460 C 0.50269 0.49973 0.49514 0.0
C461 C 0.49954 0.4513 0.48149 0.0
C462 C 0.48919 0.52347 0.5023 0.0
C463 C 0.45886 0.52459 0.50347 0.0
C464 C 0.48577 0.47693 0.48904 0.0
C465 C 0.44268 0.50136 0.49724 0.0
C466 C 0.48288 0.42937 0.4743 0.0
C467 C 0.54289 0.42554 0.47522 0.0
N468 N 0.45635 0.47848 0.49028 0.0
N469 N 0.52896 0.44869 0.48166 0.0
H470 H 0.79984 0.24389 0.69894 0.0
H471 H 0.65851 0.25544 0.75408 0.0
H472 H 0.76676 0.32501 0.71728 0.0
H473 H 0.70255 0.17496 0.74349 0.0
H474 H 0.69404 0.28136 0.73771 0.0
H475 H 0.7598 0.21846 0.71192 0.0
C476 C 0.78399 0.25642 0.70553 0.0
C477 C 0.78684 0.28661 0.70716 0.0
C478 C 0.69585 0.25802 0.73895 0.0
C479 C 0.74104 0.25758 0.72213 0.0
C480 C 0.67559 0.24321 0.74829 0.0
C481 C 0.67768 0.21301 0.75025 0.0
C482 C 0.71823 0.24249 0.73143 0.0
C483 C 0.70021 0.19827 0.74242 0.0
C484 C 0.7612 0.24185 0.71301 0.0
C485 C 0.76555 0.30169 0.71582 0.0
N486 N 0.71962 0.21316 0.73337 0.0
N487 N 0.74364 0.28699 0.72307 0.0
H488 H 0.91984 0.50623 0.50683 0.0
H489 H 0.05827 0.54916 0.45514 0.0
H490 H 0.97537 0.44273 0.48439 0.0
H491 H 0.98833 0.60907 0.46461 0.0
H492 H 0.02955 0.51016 0.46705 0.0
H493 H 0.94621 0.54476 0.49288 0.0
C494 C 0.93758 0.50039 0.49898 0.0
C495 C 0.94548 0.47123 0.4968 0.0
C496 C 0.0204 0.53179 0.46641 0.0
C497 C 0.97574 0.51516 0.48088 0.0
C498 C 0.03679 0.55407 0.45964 0.0
C499 C 0.02568 0.58241 0.45892 0.0
C500 C 0.99287 0.53797 0.47272 0.0
C501 C -0.00231 0.58752 0.46489 0.0
C502 C 0.95251 0.52238 0.49097 0.0
C503 C 0.96854 0.46491 0.48642 0.0
N504 N 0.98234 0.56555 0.47168 0.0
N505 N 0.98298 0.48671 0.47893 0.0
H506 H 0.73964 0.8067 0.7491 0.0
H507 H 0.8082 0.65399 0.77477 0.0
H508 H 0.70144 0.72399 0.73698 0.0
H509 H 0.84051 0.73683 0.79108 0.0
H510 H 0.76893 0.6791 0.76083 0.0
H511 H 0.77717 0.78135 0.76423 0.0
C512 C 0.73916 0.7832 0.74959 0.0
C513 C 0.71736 0.76744 0.74173 0.0
C514 C 0.78453 0.69177 0.76753 0.0
C515 C 0.76028 0.73827 0.75909 0.0
C516 C 0.80694 0.67744 0.77551 0.0
C517 C 0.82776 0.69334 0.78406 0.0
C518 C 0.78298 0.72222 0.76802 0.0
C519 C 0.82499 0.72368 0.78462 0.0
C520 C 0.76056 0.76874 0.75828 0.0
C521 C 0.71782 0.73702 0.74284 0.0
N522 N 0.80313 0.73713 0.77663 0.0
N523 N 0.73897 0.72343 0.75133 0.0
H524 H 0.44221 0.50812 0.96518 0.0
H525 H 0.52508 0.59016 0.036 0.0
H526 H 0.44121 0.4795 0.01427 0.0
H527 H 0.52546 0.61955 0.98704 0.0
H528 H 0.49272 0.55054 0.02842 0.0
H529 H 0.47095 0.55029 0.97312 0.0
C530 C 0.44789 0.51078 0.97764 0.0
C531 C 0.4394 0.49018 0.98907 0.0
C532 C 0.49981 0.5657 0.01934 0.0
C533 C 0.47239 0.53832 -0.00177 0.0
C534 C 0.51831 0.58833 0.02366 0.0
C535 C 0.52809 0.60814 0.01213 0.0
C536 C 0.49106 0.5628 0.00335 0.0
C537 C 0.51854 0.60474 0.99633 0.0
C538 C 0.46433 0.53485 0.98216 0.0
C539 C 0.44736 0.49476 0.00504 0.0
N540 N 0.50062 0.58244 0.9924 0.0
N541 N 0.4635 0.51827 0.00913 0.0
H542 H 0.75325 0.18386 0.20803 0.0
H543 H 0.69118 0.30026 0.27032 0.0
H544 H 0.79395 0.20395 0.25311 0.0
H545 H 0.64926 0.27997 0.2256 0.0
H546 H 0.72932 0.26542 0.26396 0.0
H547 H 0.71495 0.21891 0.21413 0.0
C548 C 0.75409 0.19555 0.21923 0.0
C549 C 0.77687 0.19096 0.23007 0.0
C550 C 0.71183 0.26861 0.25551 0.0
C551 C 0.73318 0.23121 0.23709 0.0
C552 C 0.69004 0.28857 0.25912 0.0
C553 C 0.66695 0.29306 0.24848 0.0
C554 C 0.71057 0.25293 0.24115 0.0
C555 C 0.66664 0.27723 0.23416 0.0
C556 C 0.73224 0.21561 0.22269 0.0
C557 C 0.77684 0.20676 0.24439 0.0
N558 N 0.6881 0.25783 0.23093 0.0
N559 N 0.75538 0.22619 0.24747 0.0
H560 H 0.30323 0.23871 0.78985 0.0
H561 H 0.16016 0.25793 0.73666 0.0
H562 H 0.27567 0.32096 0.77024 0.0
H563 H 0.19648 0.17484 0.7498 0.0
H564 H 0.19931 0.28201 0.75126 0.0
H565 H 0.26082 0.21567 0.77788 0.0
C566 C 0.28814 0.252 0.78315 0.0
C567 C 0.29315 0.28178 0.78095 0.0
C568 C 0.19866 0.25851 0.75097 0.0
C569 C 0.24458 0.25548 0.76713 0.0
C570 C 0.17631 0.24475 0.74264 0.0
C571 C 0.17512 0.21432 0.74193 0.0
C572 C 0.21986 0.24173 0.75872 0.0
C573 C 0.19662 0.19835 0.74994 0.0
C574 C 0.26397 0.23879 0.77626 0.0
C575 C 0.27277 0.29789 0.77216 0.0
N576 N 0.21809 0.21224 0.75798 0.0
N577 N 0.24945 0.28451 0.76551 0.0
H578 H 0.2157 0.69378 0.26009 0.0
H579 H 0.2802 0.79266 0.18987 0.0
H580 H 0.17765 0.69945 0.21308 0.0
H581 H 0.31619 0.7889 0.23741 0.0
H582 H 0.24368 0.75695 0.19774 0.0
H583 H 0.25416 0.72669 0.25151 0.0
C584 C 0.21552 0.7018 0.24793 0.0
C585 C 0.19333 0.69391 0.2373 0.0
C586 C 0.25959 0.76392 0.20645 0.0
C587 C 0.23727 0.73179 0.22743 0.0
C588 C 0.28044 0.78434 0.20196 0.0
C589 C 0.30124 0.79388 0.21301 0.0
C590 C 0.25953 0.75293 0.2221 0.0
C591 C 0.30053 0.78226 0.2285 0.0
C592 C 0.23747 0.72066 0.24305 0.0
C593 C 0.19426 0.70499 0.22169 0.0
N594 N 0.28001 0.76244 0.23258 0.0
N595 N 0.2158 0.72345 0.21725 0.0
H596 H 0.26758 0.18775 0.28747 0.0
H597 H 0.18917 0.28027 0.21889 0.0
H598 H 0.29802 0.19196 0.23878 0.0
H599 H 0.15698 0.27345 0.26715 0.0
H600 H 0.23005 0.2492 0.22617 0.0
H601 H 0.22749 0.21996 0.28039 0.0
C602 C 0.26581 0.19538 0.27527 0.0
C603 C 0.2862 0.1871 0.26369 0.0
C604 C 0.21409 0.25455 0.23518 0.0
C605 C 0.24037 0.22412 0.25552 0.0
C606 C 0.19076 0.27236 0.23104 0.0
C607 C 0.16957 0.27944 0.24243 0.0
C608 C 0.21628 0.24372 0.25081 0.0
C609 C 0.17277 0.26854 0.25798 0.0
C610 C 0.24292 0.21382 0.27124 0.0
C611 C 0.28281 0.19773 0.24809 0.0
N612 N 0.19564 0.25118 0.2617 0.0
N613 N 0.26035 0.2157 0.24447 0.0
H614 H 0.19864 0.72307 0.7592 0.0
H615 H 0.33555 0.73552 0.70083 0.0
H616 H 0.23204 0.80451 0.74144 0.0
H617 H 0.3108 0.65627 0.7248 0.0
H618 H 0.29476 0.76031 0.71349 0.0
H619 H 0.2369 0.69753 0.74472 0.0
C620 C 0.21399 0.7356 0.75224 0.0
C621 C 0.2122 0.766 0.75159 0.0
C622 C 0.2982 0.73748 0.71594 0.0
C623 C 0.25599 0.73685 0.73493 0.0
C624 C 0.32143 0.72326 0.70867 0.0
C625 C 0.32671 0.6938 0.71183 0.0
C626 C 0.28 0.7221 0.72639 0.0
C627 C 0.30765 0.67904 0.72208 0.0
C628 C 0.23584 0.72098 0.74398 0.0
C629 C 0.23267 0.78106 0.74235 0.0
N630 N 0.28519 0.69337 0.72903 0.0
N631 N 0.25371 0.76633 0.73438 0.0
H632 H 0.52922 0.93428 0.54374 0.0
H633 H 0.43522 0.00304 0.47263 0.0
H634 H 0.5282 0.90063 0.49565 0.0
H635 H 0.436 0.03708 0.52064 0.0
H636 H 0.46834 0.96456 0.48107 0.0
H637 H 0.49451 0.97171 0.53567 0.0
C638 C 0.52176 0.9348 0.53149 0.0
C639 C 0.53168 0.91432 0.52035 0.0
C640 C 0.4612 0.98039 0.48978 0.0
C641 C 0.49187 0.957 0.51105 0.0
C642 C 0.44222 0.00234 0.48497 0.0
C643 C 0.43286 0.02337 0.49594 0.0
C644 C 0.47095 0.97946 0.50567 0.0
C645 C 0.44268 0.02137 0.51177 0.0
C646 C 0.50189 0.95613 0.52689 0.0
C647 C 0.52119 0.91598 0.50464 0.0
N648 N 0.46125 -0.00013 0.51615 0.0
N649 N 0.50189 0.93693 0.50047 0.0
H650 H 0.03609 0.93375 0.95111 0.0
H651 H 0.94244 -0.00164 0.0234 0.0
H652 H 0.03068 0.89431 -0.00221 0.0
H653 H 0.94766 0.03865 0.97693 0.0
H654 H 0.97265 0.95859 0.01367 0.0
H655 H 0.00195 0.97123 0.95985 0.0
C656 C 0.02771 0.93295 0.96318 0.0
C657 C 0.03636 0.91094 0.97375 0.0
C658 C 0.96708 0.97605 0.00557 0.0
C659 C -0.00271 0.95367 0.98383 0.0
C660 C 0.94977 -0.00124 0.01112 0.0
C661 C 0.94263 0.02197 0.001 0.0
C662 C 0.97742 0.97656 0.98979 0.0
C663 C 0.95271 0.02126 0.98518 0.0
C664 C 0.0082 0.95432 0.96816 0.0
C665 C 0.02473 0.91092 0.98924 0.0
N666 N 0.96972 -0.00098 0.98009 0.0
N667 N 0.00588 0.93197 0.99381 0.0
H668 H 0.55469 0.11765 0.99053 0.0
H669 H 0.42901 0.00044 0.97867 0.0
H670 H 0.51147 0.10381 0.94545 0.0
H671 H 0.46338 0.0251 0.02465 0.0
H672 H 0.45844 0.03834 0.9662 0.0
H673 H 0.52126 0.08368 0.00311 0.0
C674 C 0.53815 0.10746 0.98326 0.0
C675 C 0.53598 0.11349 0.96687 0.0
C676 C 0.45937 0.03559 0.97903 0.0
C677 C 0.49753 0.07445 0.98126 0.0
C678 C 0.44257 0.01395 0.98616 0.0
C679 C 0.44386 0.00945 0.00273 0.0
C680 C 0.47776 0.05271 0.98851 0.0
C681 C 0.46174 0.0277 0.01184 0.0
C682 C 0.51897 0.08812 0.99048 0.0
C683 C 0.51396 0.09976 0.9581 0.0
N684 N 0.47815 0.04836 0.00459 0.0
N685 N 0.49568 0.08074 0.96539 0.0
H686 H 0.01196 0.09529 0.49491 0.0
H687 H 0.95486 0.94207 0.5275 0.0
H688 H 0.03307 0.06134 0.54154 0.0
H689 H 0.93544 0.97549 0.48053 0.0
H690 H 0.98212 0.98633 0.53326 0.0
H691 H 0.98254 0.05224 0.4898 0.0
C692 C 0.0104 0.0788 0.50409 0.0
C693 C 0.02509 0.08192 0.51867 0.0
C694 C 0.97183 0.98402 0.52171 0.0
C695 C 0.99136 0.03249 0.51288 0.0
C696 C 0.95621 0.95875 0.51841 0.0
C697 C 0.94289 0.95501 0.50348 0.0
C698 C 0.97417 0.00574 0.51 0.0
C699 C 0.94538 0.9774 0.49219 0.0
C700 C 0.99357 0.0542 0.50116 0.0
C701 C 0.02218 0.05983 0.53012 0.0
N702 N 0.96078 0.00176 0.49566 0.0
N703 N 0.00569 0.03604 0.52697 0.0
H704 H 0.01575 0.11498 0.03378 0.0
H705 H 0.03323 0.28419 0.01492 0.0
H706 H 0.94769 0.16849 0.01401 0.0
H707 H 0.10059 0.23173 0.03623 0.0
H708 H 0.00355 0.24075 0.01172 0.0
H709 H 0.04899 0.15614 0.03199 0.0
C710 C 0.00784 0.13531 0.02894 0.0
C711 C 0.9788 0.13839 0.0242 0.0
C712 C 0.0249 0.23868 0.01699 0.0
C713 C 0.01671 0.18561 0.02217 0.0
C714 C 0.04189 0.26349 0.01882 0.0
C715 C 0.06933 0.26163 0.02601 0.0
C716 C 0.03536 0.2118 0.02244 0.0
C717 C 0.07948 0.23421 0.03073 0.0
C718 C 0.02684 0.15881 0.02793 0.0
C719 C 0.96983 0.16519 0.01793 0.0
N720 N 0.06239 0.21039 0.02898 0.0
N721 N 0.98866 0.18782 0.01721 0.0
H722 H 0.04261 0.68743 0.26217 0.0
H723 H 0.99137 0.84946 0.28253 0.0
H724 H 0.1013 0.75986 0.26737 0.0
H725 H 0.93287 0.77658 0.27865 0.0
H726 H 0.03154 0.81771 0.27491 0.0
H727 H 0.00171 0.72054 0.26595 0.0
C728 C 0.0469 0.71031 0.26397 0.0
C729 C 0.07545 0.72083 0.26457 0.0
C730 C 0.00989 0.80869 0.27565 0.0
C731 C 0.02875 0.75883 0.269 0.0
C732 C 0.98693 0.82683 0.28 0.0
C733 C 0.95873 0.81564 0.28134 0.0
C734 C 0.00463 0.77914 0.27262 0.0
C735 C 0.95428 0.78614 0.27786 0.0
C736 C 0.02354 0.72921 0.26616 0.0
C737 C 0.07968 0.75073 0.26691 0.0
N738 N 0.97699 0.7689 0.27374 0.0
N739 N 0.05661 0.76863 0.26913 0.0
H740 H 0.46671 0.65151 0.51399 0.0
H741 H 0.48089 0.81159 0.55014 0.0
H742 H 0.39697 0.69723 0.53749 0.0
H743 H 0.55087 0.76807 0.52563 0.0
H744 H 0.44939 0.77045 0.54448 0.0
H745 H 0.49731 0.69459 0.51687 0.0
C746 C 0.45775 0.67066 0.51965 0.0
C747 C 0.42926 0.67071 0.52558 0.0
C748 C 0.4716 0.76987 0.54028 0.0
C749 C 0.4642 0.71997 0.52899 0.0
C750 C 0.48965 0.79338 0.54353 0.0
C751 C 0.51864 0.79321 0.53843 0.0
C752 C 0.48257 0.74587 0.53189 0.0
C753 C 0.52869 0.76907 0.52983 0.0
C754 C 0.47526 0.69522 0.52131 0.0
C755 C 0.41881 0.69613 0.53279 0.0
N756 N 0.5107 0.74628 0.52689 0.0
N757 N 0.43632 0.71966 0.53436 0.0
H758 H 0.55327 0.19692 0.76065 0.0
H759 H 0.42357 0.25183 0.81587 0.0
H760 H 0.52807 0.15454 0.8045 0.0
H761 H 0.43852 0.28438 0.76823 0.0
H762 H 0.46158 0.21574 0.81175 0.0
H763 H 0.51083 0.22847 0.76283 0.0
C764 C 0.53865 0.19404 0.77065 0.0
C765 C 0.54433 0.17317 0.78247 0.0
C766 C 0.45646 0.23066 0.80215 0.0
C767 C 0.49592 0.20944 0.78512 0.0
C768 C 0.43482 0.25137 0.80452 0.0
C769 C 0.42797 0.27127 0.79241 0.0
C770 C 0.47157 0.22997 0.78761 0.0
C771 C 0.44315 0.26951 0.77791 0.0
C772 C 0.51444 0.21208 0.77189 0.0
C773 C 0.5246 0.17036 0.79513 0.0
N774 N 0.46439 0.24934 0.77596 0.0
N775 N 0.50143 0.18849 0.7962 0.0
H776 H 0.00848 0.85342 0.46864 0.0
H777 H 0.03178 0.68687 0.49263 0.0
H778 H 0.94532 0.80372 0.49515 0.0
H779 H 0.07816 0.72983 0.45459 0.0
H780 H 0.00557 0.73217 0.49793 0.0
H781 H 0.03997 0.8108 0.46782 0.0
C782 C 0.00134 0.83365 0.47444 0.0
C783 C 0.97407 0.83203 0.48182 0.0
C784 C 0.02165 0.73167 0.48851 0.0
C785 C 0.01005 0.78321 0.48092 0.0
C786 C 0.03669 0.7059 0.48552 0.0
C787 C 0.05698 0.70455 0.47306 0.0
C788 C 0.02724 0.75627 0.47909 0.0
C789 C 0.06248 0.72984 0.46421 0.0
C790 C 0.01931 0.80931 0.47391 0.0
C791 C 0.96605 0.80584 0.48919 0.0
N792 N 0.04764 0.75464 0.46737 0.0
N793 N 0.98391 0.78238 0.48848 0.0
H794 H 0.55561 0.82593 0.69617 0.0
H795 H 0.47432 0.68116 0.72415 0.0
H796 H 0.58957 0.76878 0.73255 0.0
H797 H 0.45551 0.72641 0.68019 0.0
H798 H 0.51276 0.71646 0.72973 0.0
H799 H 0.51442 0.79326 0.69273 0.0
C800 C 0.55428 0.80666 0.70355 0.0
C801 C 0.57616 0.79999 0.7146 0.0
C802 C 0.50016 0.71862 0.71888 0.0
C803 C 0.52909 0.76245 0.71067 0.0
C804 C 0.47822 0.69853 0.7157 0.0
C805 C 0.4618 0.70077 0.70164 0.0
C806 C 0.50546 0.74124 0.70801 0.0
C807 C 0.46776 0.72372 0.69112 0.0
C808 C 0.53082 0.78794 0.70152 0.0
C809 C 0.57326 0.77468 0.72383 0.0
N810 N 0.48907 0.74307 0.69453 0.0
N811 N 0.55018 0.75676 0.72162 0.0
H812 H 0.53149 0.2288 0.99652 0.0
H813 H 0.51238 0.38902 0.96107 0.0
H814 H 0.59037 0.26722 0.96244 0.0
H815 H 0.44407 0.3417 0.98489 0.0
H816 H 0.54519 0.34815 0.96573 0.0
H817 H 0.5036 0.27394 -0.00319 0.0
C818 C 0.53881 0.24685 0.98927 0.0
C819 C 0.5631 0.24411 0.97929 0.0
C820 C 0.52307 0.34682 0.97002 0.0
C821 C 0.53121 0.29573 0.97953 0.0
C822 C 0.50433 0.37014 0.96739 0.0
C823 C 0.47535 0.36863 0.97245 0.0
C824 C 0.51281 0.32192 0.97788 0.0
C825 C 0.46616 0.34367 0.98064 0.0
C826 C 0.52278 0.27255 0.98939 0.0
C827 C 0.5716 0.26827 0.97019 0.0
N828 N 0.4848 0.32125 0.98304 0.0
N829 N 0.55555 0.29301 0.97044 0.0
H830 H 0.07113 0.21418 0.217 0.0
H831 H 0.89856 0.20373 0.22243 0.0
H832 H 0.01619 0.28677 0.22924 0.0
H833 H 0.95429 0.12995 0.21396 0.0
H834 H 0.94144 0.23395 0.22649 0.0
H835 H 0.02881 0.18243 0.21755 0.0
C836 C 0.05019 0.22342 0.21994 0.0
C837 C 0.04716 0.25324 0.22294 0.0
C838 C 0.9443 0.21111 0.22384 0.0
C839 C -0.00149 0.21699 0.22346 0.0
C840 C 0.91981 0.19384 0.22149 0.0
C841 C 0.92284 0.16429 0.21772 0.0
C842 C 0.97204 0.19882 0.22233 0.0
C843 C 0.95092 0.15264 0.21676 0.0
C844 C 0.02601 0.20525 0.22024 0.0
C845 C 0.01952 0.26394 0.22679 0.0
N846 N 0.97443 0.16998 0.21894 0.0
N847 N 0.99621 0.24586 0.22679 0.0
H848 H 0.9639 0.66058 0.98563 0.0
H849 H 0.99444 0.80871 0.93874 0.0
H850 H 0.9013 0.70402 0.95559 0.0
H851 H 0.05626 0.77025 0.97121 0.0
H852 H 0.9601 0.77044 0.9452 0.0
H853 H -0.0022 0.70068 0.98117 0.0
C854 C 0.95719 0.67864 0.9782 0.0
C855 C 0.92975 0.67889 0.97091 0.0
C856 C 0.98113 0.77031 0.95096 0.0
C857 C 0.96849 0.72466 0.96569 0.0
C858 C 0.00085 0.79217 0.94724 0.0
C859 C 0.02835 0.79265 0.95441 0.0
C860 C 0.9889 0.74858 0.96191 0.0
C861 C 0.03531 0.77066 0.96538 0.0
C862 C 0.97658 0.70149 0.97565 0.0
C863 C 0.92223 0.70283 0.96142 0.0
N864 N 0.01572 0.74943 0.96877 0.0
N865 N 0.94154 0.72464 0.95902 0.0
H866 H 0.91904 0.26192 0.67429 0.0
H867 H 0.04632 0.20863 0.73175 0.0
H868 H 0.93069 0.29504 0.72207 0.0
H869 H 0.02076 0.16303 0.68898 0.0
H870 H 0.00494 0.24132 0.7283 0.0
H871 H 0.95747 0.22657 0.67917 0.0
C872 C 0.92968 0.26176 0.68582 0.0
C873 C 0.92171 0.28152 0.69777 0.0
C874 C 0.00829 0.22401 0.71975 0.0
C875 C 0.96579 0.24111 0.70344 0.0
C876 C 0.0319 0.20535 0.7217 0.0
C877 C 0.03706 0.18312 0.71061 0.0
C878 C 0.98991 0.22059 0.70651 0.0
C879 C 0.01764 0.17986 0.69783 0.0
C880 C 0.95155 0.24148 0.68862 0.0
C881 C 0.93616 0.2802 0.71251 0.0
N882 N 0.99507 0.19854 0.69606 0.0
N883 N 0.95764 0.26043 0.7149 0.0
H884 H 0.50916 0.28963 0.49441 0.0
H885 H 0.49389 0.12471 0.46566 0.0
H886 H 0.5677 0.24741 0.46156 0.0
H887 H 0.42471 0.1714 0.48909 0.0
H888 H 0.5249 0.16724 0.46834 0.0
H889 H 0.48164 0.24425 0.49664 0.0
C890 C 0.5164 0.27076 0.4878 0.0
C891 C 0.5406 0.27235 0.47767 0.0
C892 C 0.50299 0.16816 0.47298 0.0
C893 C 0.50935 0.22054 0.4802 0.0
C894 C 0.48526 0.14384 0.47148 0.0
C895 C 0.45653 0.14461 0.47698 0.0
C896 C 0.49199 0.19349 0.48005 0.0
C897 C 0.44666 0.16995 0.48456 0.0
C898 C 0.50064 0.24493 0.48904 0.0
C899 C 0.54901 0.24725 0.46938 0.0
N900 N 0.46432 0.1935 0.48578 0.0
N901 N 0.53336 0.22245 0.4708 0.0
H902 H 0.4125 0.75074 0.19296 0.0
H903 H 0.57412 0.77385 0.22517 0.0
H904 H 0.44687 0.83443 0.2064 0.0
H905 H 0.53634 0.68977 0.2158 0.0
H906 H 0.5273 0.79643 0.21934 0.0
H907 H 0.4575 0.72805 0.20188 0.0
C908 C 0.42951 0.76437 0.19778 0.0
C909 C 0.42595 0.79456 0.19886 0.0
C910 C 0.5292 0.77302 0.21869 0.0
C911 C 0.4776 0.76867 0.20914 0.0
C912 C 0.55593 0.7601 0.22205 0.0
C913 C 0.55924 0.72987 0.22087 0.0
C914 C 0.50566 0.75561 0.21403 0.0
C915 C 0.53486 0.71316 0.21681 0.0
C916 C 0.45519 0.75137 0.20293 0.0
C917 C 0.44871 0.81108 0.2053 0.0
N918 N 0.5092 0.72627 0.21341 0.0
N919 N 0.47362 0.79793 0.21014 0.0
H920 H 0.90407 0.31671 0.55647 0.0
H921 H 0.04095 0.23102 0.52119 0.0
H922 H 0.95778 0.35039 0.51851 0.0
H923 H 0.98489 0.19777 0.55822 0.0
H924 H 0.01067 0.27463 0.51961 0.0
H925 H 0.93351 0.27281 0.55698 0.0
C926 C 0.92206 0.31488 0.54822 0.0
C927 C 0.92846 0.3373 0.53743 0.0
C928 C 0.00498 0.25774 0.52805 0.0
C929 C 0.96238 0.28692 0.53795 0.0
C930 C 0.02223 0.23283 0.52894 0.0
C931 C 0.01548 0.21073 0.53988 0.0
C932 C 0.98086 0.26055 0.53818 0.0
C933 C 0.99098 0.21424 0.54963 0.0
C934 C 0.93888 0.28975 0.54851 0.0
C935 C 0.95207 0.33365 0.52703 0.0
N936 N 0.97463 0.23868 0.54857 0.0
N937 N 0.96821 0.30894 0.52756 0.0
H938 H 0.4411 0.16673 0.2817 0.0
H939 H 0.51626 0.32125 0.26716 0.0
H940 H 0.39327 0.24711 0.27809 0.0
H941 H 0.56361 0.24236 0.27708 0.0
H942 H 0.47089 0.29382 0.26853 0.0
H943 H 0.48611 0.19358 0.2776 0.0
C944 C 0.44004 0.19003 0.28001 0.0
C945 C 0.41336 0.20471 0.28032 0.0
C946 C 0.49123 0.28251 0.27033 0.0
C947 C 0.46488 0.2356 0.27558 0.0
C948 C 0.51714 0.29813 0.2695 0.0
C949 C 0.54377 0.2841 0.27211 0.0
C950 C 0.49196 0.25264 0.27373 0.0
C951 C 0.54359 0.25411 0.27509 0.0
C952 C 0.46577 0.20536 0.27768 0.0
C953 C 0.41335 0.23492 0.27802 0.0
N954 N 0.5181 0.23942 0.27587 0.0
N955 N 0.43872 0.24937 0.27577 0.0
H956 H 0.44545 0.84537 -0.00096 0.0
H957 H 0.59615 0.78474 0.03261 0.0
H958 H 0.50993 0.89893 0.02206 0.0
H959 H 0.53022 0.73105 0.01095 0.0
H960 H 0.56754 0.82777 0.0259 0.0
H961 H 0.47885 0.80427 0.00036 0.0
C962 C 0.46672 0.84856 0.00424 0.0
C963 C 0.47477 0.87555 0.01062 0.0
C964 C 0.55946 0.80658 0.0225 0.0
C965 C 0.51307 0.82855 0.01224 0.0
C966 C 0.57581 0.78201 0.02631 0.0
C967 C 0.5654 0.75423 0.02251 0.0
C968 C 0.53251 0.80334 0.01486 0.0
C969 C 0.53897 0.75201 0.01427 0.0
C970 C 0.48579 0.82507 0.005 0.0
C971 C 0.50269 0.87846 0.01712 0.0
N972 N 0.52333 0.77622 0.01084 0.0
N973 N 0.52074 0.85518 0.01789 0.0
H974 H 0.97155 0.67801 0.77518 0.0
H975 H 0.05674 0.82025 0.80336 0.0
H976 H 0.95682 0.72086 0.82029 0.0
H977 H 0.08529 0.76637 0.76422 0.0
H978 H 0.01641 0.78698 0.80792 0.0
H979 H 0.01017 0.7129 0.76935 0.0
C980 C 0.97643 0.69475 0.78385 0.0
C981 C 0.961 0.69649 0.79826 0.0
C982 C 0.03145 0.78247 0.7983 0.0
C983 C 0.00494 0.73651 0.79162 0.0
C984 C 0.05441 0.80154 0.79563 0.0
C985 C 0.07447 0.79603 0.78341 0.0
C986 C 0.02838 0.75779 0.78863 0.0
C987 C 0.07037 0.7714 0.77381 0.0
C988 C -0.00153 0.71462 0.78052 0.0
C989 C 0.96822 0.71862 0.80906 0.0
N990 N 0.04779 0.75314 0.77663 0.0
N991 N 0.98962 0.7378 0.8055 0.0
H992 H 0.32379 0.42784 -0.00151 0.0
H993 H 0.17706 0.33558 0.0042 0.0
H994 H 0.30817 0.34928 0.97172 0.0
H995 H 0.19415 0.41204 0.0325 0.0
H996 H 0.22518 0.34008 0.99229 0.0
H997 H 0.27658 0.42211 0.01132 0.0
C998 C 0.31048 0.40932 0.99534 0.0
C999 C 0.3199 0.38904 0.98398 0.0
C1000 C 0.21842 0.35585 0.00112 0.0
C1001 C 0.2658 0.38241 -0.00142 0.0
C1002 C 0.19093 0.35333 0.00791 0.0
C1003 C 0.18155 0.37351 0.01934 0.0
C1004 C 0.23667 0.37876 0.00576 0.0
C1005 C 0.20046 0.39601 0.02372 0.0
C1006 C 0.28351 0.40607 0.00267 0.0
C1007 C 0.30177 0.36546 0.98039 0.0
N1008 N 0.22711 0.39805 0.0169 0.0
N1009 N 0.27554 0.36285 0.98764 0.0
H1010 H 0.86787 0.05347 0.23082 0.0
H1011 H 0.79914 0.93183 0.28763 0.0
H1012 H 0.77885 0.05496 0.24685 0.0
H1013 H 0.88601 0.92763 0.2685 0.0
H1014 H 0.79169 0.97772 0.27357 0.0
H1015 H 0.87525 0.00819 0.24533 0.0
C1016 C 0.84984 0.04429 0.23741 0.0
C1017 C 0.82265 0.05805 0.23759 0.0
C1018 C 0.81238 0.96676 0.27245 0.0
C1019 C 0.83102 0.00607 0.25428 0.0
C1020 C 0.81667 0.94056 0.28049 0.0
C1021 C 0.84324 0.92584 0.27924 0.0
C1022 C 0.83484 0.97838 0.2631 0.0
C1023 C 0.86516 0.9382 0.2698 0.0
C1024 C 0.85409 0.01838 0.24569 0.0
C1025 C 0.80015 0.0451 0.24635 0.0
N1026 N 0.86046 0.96375 0.26211 0.0
N1027 N 0.80484 0.01982 0.25435 0.0
H1028 H 0.1714 0.55014 0.46601 0.0
H1029 H 0.31736 0.62144 0.49962 0.0
H1030 H 0.18546 0.64258 0.46992 0.0
H1031 H 0.29993 0.52935 0.50126 0.0
H1032 H 0.26976 0.62928 0.48769 0.0
H1033 H 0.21903 0.54178 0.47801 0.0
C1034 C 0.18448 0.56868 0.4694 0.0
C1035 C 0.17444 0.59711 0.46695 0.0
C1036 C 0.27631 0.60734 0.49066 0.0
C1037 C 0.22895 0.58768 0.48063 0.0
C1038 C 0.30354 0.60284 0.49745 0.0
C1039 C 0.31265 0.57468 0.50145 0.0
C1040 C 0.25804 0.58353 0.48779 0.0
C1041 C 0.29378 0.55143 0.49838 0.0
C1042 C 0.21165 0.56388 0.47626 0.0
C1043 C 0.1923 0.62029 0.47159 0.0
N1044 N 0.26736 0.55637 0.49171 0.0
N1045 N 0.21869 0.61505 0.47817 0.0
H1046 H 0.7088 0.06232 0.76586 0.0
H1047 H 0.6289 0.91553 0.73988 0.0
H1048 H 0.61594 0.05461 0.76055 0.0
H1049 H 0.72193 0.92651 0.73923 0.0
H1050 H 0.62375 0.96551 0.74912 0.0
H1051 H 0.71401 0.01172 0.75767 0.0
C1052 C 0.68949 0.04999 0.76298 0.0
C1053 C 0.66188 0.06274 0.76386 0.0
C1054 C 0.64529 0.95698 0.74698 0.0
C1055 C 0.66772 0.00476 0.75451 0.0
C1056 C 0.64827 0.92841 0.74173 0.0
C1057 C 0.6759 0.91683 0.73873 0.0
C1058 C 0.67013 0.97411 0.7493 0.0
C1059 C 0.7002 0.93455 0.74135 0.0
C1060 C 0.6925 0.02109 0.75829 0.0
C1061 C 0.63765 0.04569 0.76 0.0
N1062 N 0.69674 0.96232 0.74647 0.0
N1063 N 0.64114 0.01757 0.7555 0.0
H1064 H 0.67761 0.66913 0.019 0.0
H1065 H 0.78802 0.54673 0.98896 0.0
H1066 H 0.65465 0.57858 0.01465 0.0
H1067 H 0.81363 0.63461 9e-05 0.0
H1068 H 0.73861 0.55824 -0.00257 0.0
H1069 H 0.72707 0.65728 0.01086 0.0
C1070 C 0.68293 0.64677 0.01628 0.0
C1071 C 0.66196 0.6248 0.01752 0.0
C1072 C 0.75507 0.57497 -0.00193 0.0
C1073 C 0.71858 0.61108 0.00823 0.0
C1074 C 0.7833 0.56841 0.99325 0.0
C1075 C 0.80499 0.58975 0.9938 0.0
C1076 C 0.74845 0.60311 0.00339 0.0
C1077 C 0.79761 0.61747 -0.00053 0.0
C1078 C 0.71122 0.64 0.01169 0.0
C1079 C 0.67013 0.5962 0.01387 0.0
N1080 N 0.76994 0.62338 0.00398 0.0
N1081 N 0.69779 0.59017 0.00938 0.0
H1082 H 0.1398 0.90443 0.73893 0.0
H1083 H 0.11803 0.07458 0.75357 0.0
H1084 H 0.13389 0.94336 0.7857 0.0
H1085 H 0.1127 0.03452 0.70708 0.0
H1086 H 0.12365 0.02658 0.76555 0.0
H1087 H 0.13007 0.95188 0.72697 0.0
C1088 C 0.13645 0.92294 0.74669 0.0
C1089 C 0.13776 0.91995 0.76334 0.0
C1090 C 0.12109 0.02826 0.75274 0.0
C1091 C 0.12662 0.97428 0.74974 0.0
C1092 C 0.11788 0.05568 0.74589 0.0
C1093 C 0.11503 0.05858 0.72929 0.0
C1094 C 0.12165 0.00356 0.74292 0.0
C1095 C 0.11489 0.03331 0.71992 0.0
C1096 C 0.13081 0.95001 0.73985 0.0
C1097 C 0.13313 0.94466 0.7728 0.0
N1098 N 0.11835 0.00686 0.72686 0.0
N1099 N 0.12788 0.97079 0.76587 0.0
H1100 H 0.78727 0.3672 0.53184 0.0
H1101 H 0.69369 0.39692 0.45326 0.0
H1102 H 0.81913 0.41613 0.4915 0.0
H1103 H 0.66851 0.33591 0.48989 0.0
H1104 H 0.73924 0.40531 0.4674 0.0
H1105 H 0.74292 0.35672 0.517 0.0
C1106 C 0.78494 0.37575 0.51986 0.0
C1107 C 0.8069 0.39263 0.5129 0.0
C1108 C 0.7238 0.39 0.4723 0.0
C1109 C 0.75617 0.38073 0.49587 0.0
C1110 C 0.69777 0.38522 0.46425 0.0
C1111 C 0.67724 0.36574 0.47043 0.0
C1112 C 0.72925 0.37536 0.4867 0.0
C1113 C 0.68373 0.35113 0.4847 0.0
C1114 C 0.75964 0.36968 0.51138 0.0
C1115 C 0.80275 0.40303 0.49732 0.0
N1116 N 0.70912 0.35635 0.4924 0.0
N1117 N 0.77781 0.397 0.48935 0.0
H1118 H 0.29203 0.047 0.25931 0.0
H1119 H 0.41072 0.94304 0.21921 0.0
H1120 H 0.38408 0.06435 0.25951 0.0
H1121 H 0.31843 0.92863 0.21538 0.0
H1122 H 0.40119 0.98724 0.23436 0.0
H1123 H 0.30104 0.00321 0.24354 0.0
C1124 C 0.31411 0.04164 0.25603 0.0
C1125 C 0.33733 0.05937 0.26076 0.0
C1126 C 0.383 0.97445 0.2302 0.0
C1127 C 0.3478 0.00929 0.24275 0.0
C1128 C 0.38844 0.94916 0.22155 0.0
C1129 C 0.36534 0.93207 0.21602 0.0
C1130 C 0.35425 0.98271 0.23341 0.0
C1131 C 0.33691 0.94115 0.2194 0.0
C1132 C 0.31924 0.01665 0.24701 0.0
C1133 C 0.3655 0.05136 0.25615 0.0
N1134 N 0.33216 0.96582 0.2279 0.0
N1135 N 0.36993 0.02691 0.24744 0.0
H1136 H 0.78696 0.91745 0.48151 0.0
H1137 H 0.69788 0.81655 0.54203 0.0
H1138 H 0.8268 0.85229 0.51144 0.0
H1139 H 0.65869 0.88253 0.51239 0.0
H1140 H 0.7452 0.82867 0.53068 0.0
H1141 H 0.73977 0.90475 0.49268 0.0
C1142 C 0.78582 0.90054 0.49048 0.0
C1143 C 0.8109 0.88591 0.49554 0.0
C1144 C 0.72623 0.84044 0.52664 0.0
C1145 C 0.75682 0.87113 0.50833 0.0
C1146 C 0.69918 0.83348 0.53308 0.0
C1147 C 0.67427 0.84857 0.52818 0.0
C1148 C 0.7284 0.86267 0.51521 0.0
C1149 C 0.6773 0.87033 0.51655 0.0
C1150 C 0.75882 0.89324 0.49683 0.0
C1151 C 0.80805 0.86416 0.50719 0.0
N1152 N 0.70386 0.87675 0.51049 0.0
N1153 N 0.78149 0.8574 0.51317 0.0
H1154 H 0.34956 0.52916 0.70851 0.0
H1155 H 0.4289 0.43646 0.77658 0.0
H1156 H 0.42266 0.56087 0.73561 0.0
H1157 H 0.35564 0.40571 0.74928 0.0
H1158 H 0.42863 0.48127 0.7609 0.0
H1159 H 0.35291 0.483 0.72265 0.0
C1160 C 0.36635 0.52642 0.71743 0.0
C1161 C 0.38579 0.54897 0.72093 0.0
C1162 C 0.4127 0.46465 0.7583 0.0
C1163 C 0.38977 0.49607 0.73718 0.0
C1164 C 0.41287 0.43904 0.76723 0.0
C1165 C 0.39216 0.41735 0.7643 0.0
C1166 C 0.39165 0.46861 0.74637 0.0
C1167 C 0.37194 0.42187 0.75201 0.0
C1168 C 0.36828 0.50001 0.7255 0.0
C1169 C 0.40717 0.54411 0.73256 0.0
N1170 N 0.37213 0.44702 0.74356 0.0
N1171 N 0.40854 0.5182 0.74031 0.0
H1172 H 0.80163 0.04051 0.0065 0.0
H1173 H 0.69844 0.1713 0.97891 0.0
H1174 H 0.82674 0.1308 0.008 0.0
H1175 H 0.67204 0.08134 0.97918 0.0
H1176 H 0.74594 0.15678 0.98912 0.0
H1177 H 0.75437 0.05492 0.99588 0.0
C1178 C 0.79725 0.06335 0.00456 0.0
C1179 C 0.81817 0.08448 0.00816 0.0
C1180 C 0.72974 0.14022 0.98695 0.0
C1181 C 0.76412 0.10114 0.99605 0.0
C1182 C 0.70261 0.1485 0.98113 0.0
C1183 C 0.68121 0.1275 0.9782 0.0
C1184 C 0.73556 0.11072 0.98984 0.0
C1185 C 0.68785 0.09828 0.98128 0.0
C1186 C 0.77024 0.07158 -0.00148 0.0
C1187 C 0.81127 0.11376 0.00542 0.0
N1188 N 0.71444 0.09076 0.98693 0.0
N1189 N 0.78484 0.12121 -0.00046 0.0
H1190 H 0.07326 0.5457 0.26822 0.0
H1191 H 0.14886 0.43079 0.20987 0.0
H1192 H 0.14004 0.56793 0.2342 0.0
H1193 H 0.0809 0.40827 0.2431 0.0
H1194 H 0.14504 0.48133 0.21826 0.0
H1195 H 0.07444 0.49565 0.25859 0.0
C1196 C 0.08804 0.54013 0.25865 0.0
C1197 C 0.10668 0.56105 0.25206 0.0
C1198 C 0.13093 0.46537 0.22372 0.0
C1199 C 0.10827 0.5037 0.24105 0.0
C1200 C 0.13314 0.43645 0.21895 0.0
C1201 C 0.11522 0.41521 0.22582 0.0
C1202 C 0.11068 0.47321 0.23547 0.0
C1203 C 0.09519 0.4239 0.23751 0.0
C1204 C 0.08874 0.51151 0.25318 0.0
C1205 C 0.12533 0.55254 0.23967 0.0
N1206 N 0.09349 0.45223 0.24198 0.0
N1207 N 0.12574 0.52451 0.23463 0.0
H1208 H 0.15774 0.16273 0.50637 0.0
H1209 H 0.30213 0.06875 0.49427 0.0
H1210 H 0.16862 0.07525 0.52399 0.0
H1211 H 0.28903 0.15309 0.47289 0.0
H1212 H 0.25314 0.0709 0.50521 0.0
H1213 H 0.20554 0.15968 0.49383 0.0
C1214 C 0.1701 0.14284 0.50755 0.0
C1215 C 0.15919 0.11924 0.5163 0.0
C1216 C 0.26093 0.08892 0.4981 0.0
C1217 C 0.21396 0.11567 0.50204 0.0
C1218 C 0.28895 0.08774 0.49186 0.0
C1219 C 0.29975 0.11082 0.48268 0.0
C1220 C 0.24355 0.11342 0.4952 0.0
C1221 C 0.28162 0.13482 0.47993 0.0
C1222 C 0.1974 0.14112 0.50038 0.0
C1223 C 0.17616 0.09401 0.51739 0.0
N1224 N 0.25444 0.13553 0.4862 0.0
N1225 N 0.20273 0.09295 0.51041 0.0
H1226 H 0.58887 0.42786 0.24269 0.0
H1227 H 0.64946 0.59073 0.24643 0.0
H1228 H 0.6584 0.45518 0.27378 0.0
H1229 H 0.58278 0.56273 0.21367 0.0
H1230 H 0.65246 0.54132 0.2569 0.0
H1231 H 0.58599 0.4772 0.23204 0.0
C1232 C 0.60359 0.4442 0.24725 0.0
C1233 C 0.6239 0.43736 0.25916 0.0
C1234 C 0.63715 0.54597 0.24742 0.0
C1235 C 0.62063 0.49393 0.24707 0.0
C1236 C 0.63539 0.57422 0.24146 0.0
C1237 C 0.61584 0.5809 0.22915 0.0
C1238 C 0.61922 0.52421 0.24106 0.0
C1239 C 0.59818 0.55858 0.22316 0.0
C1240 C 0.60192 0.47238 0.24117 0.0
C1241 C 0.64241 0.45944 0.26461 0.0
N1242 N 0.6003 0.53124 0.22917 0.0
N1243 N 0.64029 0.48672 0.25855 0.0
H1244 H 0.18569 0.84844 0.97029 0.0
H1245 H 0.29167 0.97116 0.00462 0.0
H1246 H 0.16096 0.93824 0.97615 0.0
H1247 H 0.32112 0.88606 0.99032 0.0
H1248 H 0.24261 0.95823 0.99625 0.0
H1249 H 0.2344 0.86045 0.97992 0.0
C1250 C 0.19043 0.87062 0.97371 0.0
C1251 C 0.16927 0.8924 0.97236 0.0
C1252 C 0.25981 0.94239 0.99492 0.0
C1253 C 0.22487 0.90627 0.98331 0.0
C1254 C 0.28784 0.94977 -0.00031 0.0
C1255 C 0.31055 0.9297 -0.00188 0.0
C1256 C 0.25437 0.91466 0.98862 0.0
C1257 C 0.30428 0.90226 0.99167 0.0
C1258 C 0.21826 0.87748 0.97912 0.0
C1259 C 0.17663 0.92078 0.97692 0.0
N1260 N 0.27676 0.89552 0.98719 0.0
N1261 N 0.2038 0.92689 0.98217 0.0
H1262 H 0.84267 0.41092 0.74067 0.0
H1263 H 0.92097 0.56042 0.76319 0.0
H1264 H 0.92065 0.44162 0.71763 0.0
H1265 H 0.84267 0.52947 0.7858 0.0
H1266 H 0.92245 0.51617 0.74714 0.0
H1267 H 0.84359 0.45331 0.75807 0.0
C1268 C 0.86006 0.42653 0.73929 0.0
C1269 C 0.88156 0.42277 0.72762 0.0
C1270 C 0.905 0.51903 0.75564 0.0
C1271 C 0.8827 0.47146 0.74752 0.0
C1272 C 0.90413 0.54429 0.76481 0.0
C1273 C 0.88159 0.54871 0.77581 0.0
C1274 C 0.88315 0.49804 0.75747 0.0
C1275 C 0.86041 0.52703 0.77744 0.0
C1276 C 0.86057 0.45076 0.74925 0.0
C1277 C 0.9036 0.44368 0.72643 0.0
N1278 N 0.86167 0.50269 0.76833 0.0
N1279 N 0.90354 0.4672 0.73623 0.0
H1280 H 0.0431 0.33299 0.09024 0.0
H1281 H 0.16215 0.32688 0.15976 0.0
H1282 H 0.13489 0.34399 0.08193 0.0
H1283 H 0.06977 0.32905 0.16826 0.0
H1284 H 0.15286 0.33061 0.13107 0.0
H1285 H 0.05271 0.32899 0.11882 0.0
C1286 C 0.06528 0.33457 0.09442 0.0
C1287 C 0.08822 0.33887 0.08368 0.0
C1288 C 0.13465 0.3303 0.13923 0.0
C1289 C 0.0994 0.33422 0.11638 0.0
C1290 C 0.13993 0.32812 0.15561 0.0
C1291 C 0.11671 0.32769 0.16643 0.0
C1292 C 0.10594 0.33189 0.13366 0.0
C1293 C 0.08836 0.32938 0.16036 0.0
C1294 C 0.07075 0.33232 0.11075 0.0
C1295 C 0.11653 0.34075 0.08978 0.0
N1296 N 0.08379 0.33135 0.14439 0.0
N1297 N 0.12133 0.33836 0.10573 0.0
H1298 H 0.85538 0.86877 0.43383 0.0
H1299 H 0.91082 0.87419 0.34345 0.0
H1300 H 0.93541 0.90973 0.41935 0.0
H1301 H 0.82546 0.84446 0.35698 0.0
H1302 H 0.92064 0.88623 0.37129 0.0
H1303 H 0.84434 0.85887 0.40585 0.0
C1304 C 0.8706 0.87578 0.42477 0.0
C1305 C 0.89642 0.89004 0.42896 0.0
C1306 C 0.89974 0.87713 0.36817 0.0
C1307 C 0.88395 0.87861 0.39688 0.0
C1308 C 0.89412 0.87016 0.35227 0.0
C1309 C 0.86726 0.85823 0.34786 0.0
C1310 C 0.87843 0.872 0.37981 0.0
C1311 C 0.84646 0.8536 0.35983 0.0
C1312 C 0.86426 0.87013 0.40878 0.0
C1313 C 0.91526 0.89868 0.41669 0.0
N1314 N 0.85251 0.86041 0.37526 0.0
N1315 N 0.90872 0.8927 0.40121 0.0
H1316 H 0.33481 0.61365 0.64768 0.0
H1317 H 0.45146 0.58581 0.57856 0.0
H1318 H 0.42752 0.61345 0.65513 0.0
H1319 H 0.3589 0.58319 0.57076 0.0
H1320 H 0.44281 0.59372 0.60694 0.0
H1321 H 0.34287 0.60084 0.61968 0.0
C1322 C 0.35684 0.6109 0.64345 0.0
C1323 C 0.38052 0.61473 0.65376 0.0
C1324 C 0.42436 0.59126 0.59905 0.0
C1325 C 0.38988 0.60003 0.62177 0.0
C1326 C 0.4293 0.58668 0.58283 0.0
C1327 C 0.40588 0.58398 0.57225 0.0
C1328 C 0.39578 0.5933 0.60476 0.0
C1329 C 0.37762 0.58521 0.57849 0.0
C1330 C 0.36142 0.60353 0.62747 0.0
C1331 C 0.40859 0.61079 0.64762 0.0
N1332 N 0.37336 0.58997 0.59433 0.0
N1333 N 0.41247 0.60374 0.63204 0.0
H1334 H 0.656 0.12549 0.82622 0.0
H1335 H 0.6037 0.19705 0.90832 0.0
H1336 H 0.61606 0.21009 0.82958 0.0
H1337 H 0.64937 0.11531 0.90571 0.0
H1338 H 0.60839 0.20218 0.87946 0.0
H1339 H 0.65471 0.12163 0.8553 0.0
C1340 C 0.64716 0.14336 0.83307 0.0
C1341 C 0.63602 0.16812 0.82543 0.0
C1342 C 0.61743 0.18313 0.88519 0.0
C1343 C 0.63426 0.16372 0.85874 0.0
C1344 C 0.61469 0.18013 0.90168 0.0
C1345 C 0.62611 0.15566 0.90947 0.0
C1346 C 0.63161 0.16146 0.87635 0.0
C1347 C 0.6402 0.13451 0.90022 0.0
C1348 C 0.64639 0.14111 0.84968 0.0
C1349 C 0.62486 0.19058 0.83494 0.0
N1350 N 0.6425 0.13787 0.88414 0.0
N1351 N 0.62412 0.18777 0.85108 0.0
H1352 H 0.15657 0.69196 0.32337 0.0
H1353 H 0.1076 0.57755 0.3902 0.0
H1354 H 0.12732 0.60508 0.31259 0.0
H1355 H 0.12347 0.66838 0.39951 0.0
H1356 H 0.11922 0.58575 0.36205 0.0
H1357 H 0.14956 0.68201 0.35175 0.0
C1358 C 0.14887 0.67072 0.32697 0.0
C1359 C 0.14234 0.64939 0.31557 0.0
C1360 C 0.12018 0.60386 0.37027 0.0
C1361 C 0.13414 0.6379 0.34804 0.0
C1362 C 0.11355 0.59919 0.38634 0.0
C1363 C 0.11442 0.62234 0.39722 0.0
C1364 C 0.12789 0.63183 0.36508 0.0
C1365 C 0.12235 0.64992 0.39155 0.0
C1366 C 0.14477 0.66508 0.34317 0.0
C1367 C 0.13248 0.62223 0.32095 0.0
N1368 N 0.12877 0.65388 0.37588 0.0
N1369 N 0.12858 0.6173 0.3368 0.0
H1370 H 0.64156 0.7798 0.66463 0.0
H1371 H 0.64803 0.89798 0.59458 0.0
H1372 H 0.67522 0.86642 0.67141 0.0
H1373 H 0.59851 0.81854 0.59211 0.0
H1374 H 0.6629 0.88511 0.62176 0.0
H1375 H 0.63128 0.79163 0.63681 0.0
C1376 C 0.6471 0.80122 0.66024 0.0
C1377 C 0.65911 0.82221 0.67041 0.0
C1378 C 0.64876 0.87054 0.61525 0.0
C1379 C 0.64715 0.83597 0.63855 0.0
C1380 C 0.64024 0.87788 0.59975 0.0
C1381 C 0.62189 0.85938 0.59108 0.0
C1382 C 0.63906 0.8444 0.62205 0.0
C1383 C 0.61254 0.83356 0.59837 0.0
C1384 C 0.64106 0.80801 0.64436 0.0
C1385 C 0.66582 0.8496 0.66402 0.0
N1386 N 0.62127 0.82683 0.6134 0.0
N1387 N 0.65963 0.85574 0.6485 0.0
H1388 H 0.40061 0.38163 0.82968 0.0
H1389 H 0.35233 0.39933 0.92085 0.0
H1390 H 0.31699 0.35479 0.84762 0.0
H1391 H 0.43542 0.42704 0.90255 0.0
H1392 H 0.33812 0.38494 0.89393 0.0
H1393 H 0.41284 0.40019 0.85607 0.0
C1394 C 0.38475 0.37968 0.83916 0.0
C1395 C 0.35774 0.36649 0.83643 0.0
C1396 C 0.35941 0.39429 0.89578 0.0
C1397 C 0.3717 0.38775 0.86676 0.0
C1398 C 0.36756 0.40255 0.91116 0.0
C1399 C 0.3952 0.41431 0.91399 0.0
C1400 C 0.37903 0.39771 0.88311 0.0
C1401 C 0.41394 0.418 0.90095 0.0
C1402 C 0.39177 0.39033 0.85425 0.0
C1403 C 0.33808 0.36471 0.84918 0.0
N1404 N 0.40556 0.40961 0.88609 0.0
N1405 N 0.34549 0.37512 0.86381 0.0
H1406 H 0.88691 0.16333 0.15216 0.0
H1407 H 0.83824 0.05559 0.0823 0.0
H1408 H 0.82651 0.09297 0.1596 0.0
H1409 H 0.91081 0.11454 0.07886 0.0
H1410 H 0.83181 0.06996 0.11024 0.0
H1411 H 0.89367 0.14723 0.12469 0.0
C1412 C 0.87498 0.14453 0.14801 0.0
C1413 C 0.85611 0.12948 0.15821 0.0
C1414 C 0.84921 0.07961 0.10336 0.0
C1415 C 0.86381 0.11086 0.12671 0.0
C1416 C 0.85291 0.07141 0.08743 0.0
C1417 C 0.87505 0.08392 0.0782 0.0
C1418 C 0.86764 0.10063 0.11006 0.0
C1419 C 0.89343 0.10431 0.08548 0.0
C1420 C 0.87895 0.13527 0.13232 0.0
C1421 C 0.8413 0.10521 0.15216 0.0
N1422 N 0.88919 0.11213 0.10092 0.0
N1423 N 0.84542 0.09668 0.13678 0.0
H1424 H 0.83091 0.61543 0.85169 0.0
H1425 H 0.94642 0.5863 0.92129 0.0
H1426 H 0.92333 0.60861 0.84413 0.0
H1427 H 0.85411 0.59212 0.92946 0.0
H1428 H 0.93783 0.59153 0.8927 0.0
H1429 H 0.83843 0.60444 0.87999 0.0
C1430 C 0.85275 0.61154 0.85596 0.0
C1431 C 0.87653 0.61308 0.84553 0.0
C1432 C 0.91941 0.5915 0.90073 0.0
C1433 C 0.88528 0.60049 0.87786 0.0
C1434 C 0.92431 0.58846 0.91707 0.0
C1435 C 0.90097 0.58894 0.9278 0.0
C1436 C 0.89096 0.59517 0.89504 0.0
C1437 C 0.87277 0.59172 0.92162 0.0
C1438 C 0.85703 0.60524 0.87211 0.0
C1439 C 0.90434 0.60777 0.85172 0.0
N1440 N 0.86857 0.59491 0.90565 0.0
N1441 N 0.90793 0.60181 0.86747 0.0
H1442 H 0.10472 0.18195 0.58528 0.0
H1443 H 0.13541 0.11393 0.67155 0.0
H1444 H 0.10907 0.08976 0.59443 0.0
H1445 H 0.12399 0.20564 0.66278 0.0
H1446 H 0.13101 0.10492 0.64292 0.0
H1447 H 0.11651 0.19114 0.61319 0.0
C1448 C 0.10825 0.1636 0.59314 0.0
C1449 C 0.1057 0.135 0.58751 0.0
C1450 C 0.12968 0.12703 0.64725 0.0
C1451 C 0.11925 0.14545 0.61956 0.0
C1452 C 0.13229 0.13223 0.66359 0.0
C1453 C 0.12985 0.16059 0.6696 0.0
C1454 C 0.1246 0.15036 0.63681 0.0
C1455 C 0.12585 0.18342 0.65871 0.0
C1456 C 0.115 0.16889 0.6091 0.0
C1457 C 0.11065 0.11215 0.59826 0.0
N1458 N 0.12317 0.17777 0.64286 0.0
N1459 N 0.11708 0.11786 0.61379 0.0
H1460 H 0.58272 0.4023 0.40092 0.0
H1461 H 0.64296 0.3031 0.32975 0.0
H1462 H 0.61712 0.31589 0.40754 0.0
H1463 H 0.59989 0.3853 0.32234 0.0
H1464 H 0.63721 0.30928 0.35852 0.0
H1465 H 0.59203 0.39812 0.37228 0.0
C1466 C 0.59226 0.38246 0.39636 0.0
C1467 C 0.59904 0.35936 0.40664 0.0
C1468 C 0.6291 0.32601 0.3506 0.0
C1469 C 0.60983 0.35448 0.37389 0.0
C1470 C 0.63245 0.32254 0.33417 0.0
C1471 C 0.62175 0.34364 0.32361 0.0
C1472 C 0.615 0.3508 0.35655 0.0
C1473 C 0.60835 0.36841 0.33003 0.0
C1474 C 0.59756 0.3801 0.38001 0.0
C1475 C 0.61142 0.33421 0.40006 0.0
N1476 N 0.60528 0.37126 0.34608 0.0
N1477 N 0.61639 0.33244 0.38412 0.0
H1478 H 0.34743 0.87129 0.05759 0.0
H1479 H 0.40755 0.91951 0.14313 0.0
H1480 H 0.4074 0.94224 0.06423 0.0
H1481 H 0.34119 0.85453 0.13632 0.0
H1482 H 0.40793 0.92831 0.11435 0.0
H1483 H 0.34477 0.86519 0.08646 0.0
C1484 C 0.35998 0.88568 0.06513 0.0
C1485 C 0.37776 0.90725 0.05848 0.0
C1486 C 0.39322 0.91221 0.11916 0.0
C1487 C 0.37492 0.90026 0.09162 0.0
C1488 C 0.39301 0.90712 0.1356 0.0
C1489 C 0.37435 0.88618 0.14216 0.0
C1490 C 0.3747 0.89617 0.10919 0.0
C1491 C 0.35598 0.87084 0.1318 0.0
C1492 C 0.35843 0.88219 0.08164 0.0
C1493 C 0.39342 0.92533 0.06885 0.0
N1494 N 0.35669 0.87608 0.11585 0.0
N1495 N 0.39176 0.92132 0.08491 0.0
H1496 H 0.89817 0.37915 0.65869 0.0
H1497 H 0.84563 0.43471 0.57341 0.0
H1498 H 0.80941 0.40325 0.64889 0.0
H1499 H 0.93559 0.42383 0.5865 0.0
H1500 H 0.83181 0.42564 0.60114 0.0
H1501 H 0.91211 0.39699 0.63244 0.0
C1502 C 0.88157 0.38823 0.65101 0.0
C1503 C 0.85251 0.38949 0.65595 0.0
C1504 C 0.85458 0.42558 0.59798 0.0
C1505 C 0.8684 0.41002 0.62576 0.0
C1506 C 0.86252 0.43081 0.58215 0.0
C1507 C 0.89183 0.42975 0.57759 0.0
C1508 C 0.87608 0.41902 0.60929 0.0
C1509 C 0.91273 0.42468 0.58943 0.0
C1510 C 0.88959 0.39856 0.63602 0.0
C1511 C 0.83204 0.40176 0.64553 0.0
N1512 N 0.90443 0.4192 0.60469 0.0
N1513 N 0.84034 0.41134 0.63086 0.0
H1514 H 0.33436 0.09191 0.33497 0.0
H1515 H 0.39732 0.12269 0.42227 0.0
H1516 H 0.3828 0.16873 0.34769 0.0
H1517 H 0.33431 0.05552 0.41276 0.0
H1518 H 0.39496 0.13737 0.39438 0.0
H1519 H 0.33641 0.07606 0.36287 0.0
C1520 C 0.34538 0.10547 0.34362 0.0
C1521 C 0.35844 0.1317 0.33898 0.0
C1522 C 0.38163 0.11941 0.39836 0.0
C1523 C 0.361 0.11359 0.37085 0.0
C1524 C 0.38304 0.11091 0.4143 0.0
C1525 C 0.36594 0.08783 0.41989 0.0
C1526 C 0.36312 0.10465 0.38782 0.0
C1527 C 0.34782 0.07347 0.40897 0.0
C1528 C 0.3465 0.09641 0.35954 0.0
C1529 C 0.37239 0.14838 0.3507 0.0
N1530 N 0.34691 0.0821 0.39344 0.0
N1531 N 0.37338 0.13899 0.36606 0.0
H1532 H 0.62122 0.72661 0.16131 0.0
H1533 H 0.61902 0.61168 0.08962 0.0
H1534 H 0.63765 0.63499 0.1676 0.0
H1535 H 0.59459 0.70173 0.08446 0.0
H1536 H 0.62878 0.62026 0.11791 0.0
H1537 H 0.61482 0.71845 0.13274 0.0
C1538 C 0.62369 0.70479 0.15668 0.0
C1539 C 0.62987 0.68142 0.16688 0.0
C1540 C 0.62129 0.63813 0.11058 0.0
C1541 C 0.62239 0.6719 0.13417 0.0
C1542 C 0.61568 0.63325 0.09443 0.0
C1543 C 0.60589 0.656 0.08466 0.0
C1544 C 0.61716 0.666 0.11701 0.0
C1545 C 0.60202 0.68351 0.09155 0.0
C1546 C 0.61993 0.70013 0.14036 0.0
C1547 C 0.63283 0.65364 0.16019 0.0
N1548 N 0.60767 0.68773 0.10729 0.0
N1549 N 0.62896 0.64964 0.14426 0.0
H1550 H 0.17729 0.86742 0.82078 0.0
H1551 H 0.10755 0.81622 0.90321 0.0
H1552 H 0.14793 0.77995 0.82995 0.0
H1553 H 0.15298 0.89767 0.898 0.0
H1554 H 0.12149 0.80326 0.87609 0.0
H1555 H 0.1689 0.87931 0.84887 0.0
C1556 C 0.16944 0.85061 0.82873 0.0
C1557 C 0.16314 0.82268 0.82298 0.0
C1558 C 0.12851 0.82394 0.88087 0.0
C1559 C 0.15311 0.83628 0.85504 0.0
C1560 C 0.12041 0.83145 0.89635 0.0
C1561 C 0.12903 0.85815 0.90288 0.0
C1562 C 0.14516 0.84333 0.87175 0.0
C1563 C 0.14583 0.87689 0.89343 0.0
C1564 C 0.16459 0.85745 0.84475 0.0
C1565 C 0.15301 0.80179 0.83383 0.0
N1566 N 0.15324 0.86918 0.87829 0.0
N1567 N 0.14804 0.8091 0.84929 0.0
loop_
_geom_bond_atom_site_label_1
_geom_bond_atom_site_label_2
_geom_bond_distance
_geom_bond_site_symmetry_2
_ccdc_geom_bond_type
C0 O1 1.160 . S
C0 O7 1.185 . S
O1 C0 1.160 . S
O2 Zn3 1.899 . S
O2 C10 1.284 . S
Zn3 O2 1.899 . S
Zn3 O4 2.032 . S
Zn3 O7 2.086 . S
Zn3 O12 1.977 . S
O4 Zn3 2.032 . S
O4 C8 1.278 . S
C5 O6 1.203 . S
C5 O12 1.267 . S
O6 C5 1.203 . S
O7 C0 1.185 . S
O7 Zn3 2.086 . S
C8 O4 1.278 . S
C8 O9 1.211 . S
O9 C8 1.211 . S
C10 O2 1.284 . S
C10 O11 1.273 . S
O11 C10 1.273 . S
O12 Zn3 1.977 . S
O12 C5 1.267 . S
C13 O14 1.160 . S
C13 O20 1.185 . S
O14 C13 1.160 . S
O15 Zn16 1.899 . S
O15 C23 1.284 . S
Zn16 O15 1.899 . S
Zn16 O17 2.032 . S
Zn16 O20 2.086 . S
Zn16 O25 1.977 . S
O17 Zn16 2.032 . S
O17 C21 1.278 . S
C18 O19 1.203 . S
C18 O25 1.267 . S
O19 C18 1.203 . S
O20 C13 1.185 . S
O20 Zn16 2.086 . S
C21 O17 1.278 . S
C21 O22 1.211 . S
O22 C21 1.211 . S
C23 O15 1.284 . S
C23 O24 1.273 . S
O24 C23 1.273 . S
O25 Zn16 1.977 . S
O25 C18 1.267 . S
C26 O27 1.160 . S
C26 O33 1.185 . S
O27 C26 1.160 . S
O28 Zn29 1.899 . S
O28 C36 1.284 . S
Zn29 O28 1.899 . S
Zn29 O30 2.032 . S
Zn29 O33 2.086 . S
Zn29 O38 1.977 . S
O30 Zn29 2.032 . S
O30 C34 1.278 . S
C31 O32 1.203 . S
C31 O38 1.267 . S
O32 C31 1.203 . S
O33 C26 1.185 . S
O33 Zn29 2.086 . S
C34 O30 1.278 . S
C34 O35 1.211 . S
O35 C34 1.211 . S
C36 O28 1.284 . S
C36 O37 1.273 . S
O37 C36 1.273 . S
O38 Zn29 1.977 . S
O38 C31 1.267 . S
C39 O40 1.160 . S
C39 O46 1.185 . S
O40 C39 1.160 . S
O41 Zn42 1.899 . S
O41 C49 1.284 . S
Zn42 O41 1.899 . S
Zn42 O43 2.032 . S
Zn42 O46 2.086 . S
Zn42 O51 1.977 . S
O43 Zn42 2.032 . S
O43 C47 1.278 . S
C44 O45 1.203 . S
C44 O51 1.267 . S
O45 C44 1.203 . S
O46 C39 1.185 . S
O46 Zn42 2.086 . S
C47 O43 1.278 . S
C47 O48 1.211 . S
O48 C47 1.211 . S
C49 O41 1.284 . S
C49 O50 1.273 . S
O50 C49 1.273 . S
O51 Zn42 1.977 . S
O51 C44 1.267 . S
C52 O53 1.160 . S
C52 O59 1.185 . S
O53 C52 1.160 . S
O54 Zn55 1.899 . S
O54 C62 1.284 . S
Zn55 O54 1.899 . S
Zn55 O56 2.032 . S
Zn55 O59 2.086 . S
Zn55 O64 1.977 . S
O56 Zn55 2.032 . S
O56 C60 1.278 . S
C57 O58 1.203 . S
C57 O64 1.267 . S
O58 C57 1.203 . S
O59 C52 1.185 . S
O59 Zn55 2.086 . S
C60 O56 1.278 . S
C60 O61 1.211 . S
O61 C60 1.211 . S
C62 O54 1.284 . S
C62 O63 1.273 . S
O63 C62 1.273 . S
O64 Zn55 1.977 . S
O64 C57 1.267 . S
C65 O66 1.160 . S
C65 O72 1.185 . S
O66 C65 1.160 . S
O67 Zn68 1.899 . S
O67 C75 1.284 . S
Zn68 O67 1.899 . S
Zn68 O69 2.032 . S
Zn68 O72 2.086 . S
Zn68 O77 1.977 . S
O69 Zn68 2.032 . S
O69 C73 1.278 . S
C70 O71 1.203 . S
C70 O77 1.267 . S
O71 C70 1.203 . S
O72 C65 1.185 . S
O72 Zn68 2.086 . S
C73 O69 1.278 . S
C73 O74 1.211 . S
O74 C73 1.211 . S
C75 O67 1.284 . S
C75 O76 1.273 . S
O76 C75 1.273 . S
O77 Zn68 1.977 . S
O77 C70 1.267 . S
C78 O79 1.160 . S
C78 O85 1.185 . S
O79 C78 1.160 . S
O80 Zn81 1.899 . S
O80 C88 1.284 . S
Zn81 O80 1.899 . S
Zn81 O82 2.032 . S
Zn81 O85 2.086 . S
Zn81 O90 1.977 . S
O82 Zn81 2.032 . S
O82 C86 1.278 . S
C83 O84 1.203 . S
C83 O90 1.267 . S
O84 C83 1.203 . S
O85 C78 1.185 . S
O85 Zn81 2.086 . S
C86 O82 1.278 . S
C86 O87 1.211 . S
O87 C86 1.211 . S
C88 O80 1.284 . S
C88 O89 1.273 . S
O89 C88 1.273 . S
O90 Zn81 1.977 . S
O90 C83 1.267 . S
C91 O92 1.160 . S
C91 O98 1.185 . S
O92 C91 1.160 . S
O93 Zn94 1.899 . S
O93 C101 1.284 . S
Zn94 O93 1.899 . S
Zn94 O95 2.032 . S
Zn94 O98 2.086 . S
Zn94 O103 1.977 . S
O95 Zn94 2.032 . S
O95 C99 1.278 . S
C96 O97 1.203 . S
C96 O103 1.267 . S
O97 C96 1.203 . S
O98 C91 1.185 . S
O98 Zn94 2.086 . S
C99 O95 1.278 . S
C99 O100 1.211 . S
O100 C99 1.211 . S
C101 O93 1.284 . S
C101 O102 1.273 . S
O102 C101 1.273 . S
O103 Zn94 1.977 . S
O103 C96 1.267 . S
C104 O105 1.160 . S
C104 O111 1.185 . S
O105 C104 1.160 . S
O106 Zn107 1.899 . S
O106 C114 1.284 . S
Zn107 O106 1.899 . S
Zn107 O108 2.032 . S
Zn107 O111 2.086 . S
Zn107 O116 1.977 . S
O108 Zn107 2.032 . S
O108 C112 1.278 . S
C109 O110 1.203 . S
C109 O116 1.267 . S
O110 C109 1.203 . S
O111 C104 1.185 . S
O111 Zn107 2.086 . S
C112 O108 1.278 . S
C112 O113 1.211 . S
O113 C112 1.211 . S
C114 O106 1.284 . S
C114 O115 1.273 . S
O115 C114 1.273 . S
O116 Zn107 1.977 . S
O116 C109 1.267 . S
C117 O118 1.160 . S
C117 O124 1.185 . S
O118 C117 1.160 . S
O119 Zn120 1.899 . S
O119 C127 1.284 . S
Zn120 O119 1.899 . S
Zn120 O121 2.032 . S
Zn120 O124 2.086 . S
Zn120 O129 1.977 . S
O121 Zn120 2.032 . S
O121 C125 1.278 . S
C122 O123 1.203 . S
C122 O129 1.267 . S
O123 C122 1.203 . S
O124 C117 1.185 . S
O124 Zn120 2.086 . S
C125 O121 1.278 . S
C125 O126 1.211 . S
O126 C125 1.211 . S
C127 O119 1.284 . S
C127 O128 1.273 . S
O128 C127 1.273 . S
O129 Zn120 1.977 . S
O129 C122 1.267 . S
C130 O131 1.160 . S
C130 O137 1.185 . S
O131 C130 1.160 . S
O132 Zn133 1.899 . S
O132 C140 1.284 . S
Zn133 O132 1.899 . S
Zn133 O134 2.032 . S
Zn133 O137 2.086 . S
Zn133 O142 1.977 . S
O134 Zn133 2.032 . S
O134 C138 1.278 . S
C135 O136 1.203 . S
C135 O142 1.267 . S
O136 C135 1.203 . S
O137 C130 1.185 . S
O137 Zn133 2.086 . S
C138 O134 1.278 . S
C138 O139 1.211 . S
O139 C138 1.211 . S
C140 O132 1.284 . S
C140 O141 1.273 . S
O141 C140 1.273 . S
O142 Zn133 1.977 . S
O142 C135 1.267 . S
C143 O144 1.160 . S
C143 O150 1.185 . S
O144 C143 1.160 . S
O145 Zn146 1.899 . S
O145 C153 1.284 . S
Zn146 O145 1.899 . S
Zn146 O147 2.032 . S
Zn146 O150 2.086 . S
Zn146 O155 1.977 . S
O147 Zn146 2.032 . S
O147 C151 1.278 . S
C148 O149 1.203 . S
C148 O155 1.267 . S
O149 C148 1.203 . S
O150 C143 1.185 . S
O150 Zn146 2.086 . S
C151 O147 1.278 . S
C151 O152 1.211 . S
O152 C151 1.211 . S
C153 O145 1.284 . S
C153 O154 1.273 . S
O154 C153 1.273 . S
O155 Zn146 1.977 . S
O155 C148 1.267 . S
C156 O157 1.160 . S
C156 O163 1.185 . S
O157 C156 1.160 . S
O158 Zn159 1.899 . S
O158 C166 1.284 . S
Zn159 O158 1.899 . S
Zn159 O160 2.032 . S
Zn159 O163 2.086 . S
Zn159 O168 1.977 . S
O160 Zn159 2.032 . S
O160 C164 1.278 . S
C161 O162 1.203 . S
C161 O168 1.267 . S
O162 C161 1.203 . S
O163 C156 1.185 . S
O163 Zn159 2.086 . S
C164 O160 1.278 . S
C164 O165 1.211 . S
O165 C164 1.211 . S
C166 O158 1.284 . S
C166 O167 1.273 . S
O167 C166 1.273 . S
O168 Zn159 1.977 . S
O168 C161 1.267 . S
C169 O170 1.160 . S
C169 O176 1.185 . S
O170 C169 1.160 . S
O171 Zn172 1.899 . S
O171 C179 1.284 . S
Zn172 O171 1.899 . S
Zn172 O173 2.032 . S
Zn172 O176 2.086 . S
Zn172 O181 1.977 . S
O173 Zn172 2.032 . S
O173 C177 1.278 . S
C174 O175 1.203 . S
C174 O181 1.267 . S
O175 C174 1.203 . S
O176 C169 1.185 . S
O176 Zn172 2.086 . S
C177 O173 1.278 . S
C177 O178 1.211 . S
O178 C177 1.211 . S
C179 O171 1.284 . S
C179 O180 1.273 . S
O180 C179 1.273 . S
O181 Zn172 1.977 . S
O181 C174 1.267 . S
C182 O183 1.160 . S
C182 O189 1.185 . S
O183 C182 1.160 . S
O184 Zn185 1.899 . S
O184 C192 1.284 . S
Zn185 O184 1.899 . S
Zn185 O186 2.032 . S
Zn185 O189 2.086 . S
Zn185 O194 1.977 . S
O186 Zn185 2.032 . S
O186 C190 1.278 . S
C187 O188 1.203 . S
C187 O194 1.267 . S
O188 C187 1.203 . S
O189 C182 1.185 . S
O189 Zn185 2.086 . S
C190 O186 1.278 . S
C190 O191 1.211 . S
O191 C190 1.211 . S
C192 O184 1.284 . S
C192 O193 1.273 . S
O193 C192 1.273 . S
O194 Zn185 1.977 . S
O194 C187 1.267 . S
C195 O196 1.160 . S
C195 O202 1.185 . S
O196 C195 1.160 . S
O197 Zn198 1.899 . S
O197 C205 1.284 . S
Zn198 O197 1.899 . S
Zn198 O199 2.032 . S
Zn198 O202 2.086 . S
Zn198 O207 1.977 . S
O199 Zn198 2.032 . S
O199 C203 1.278 . S
C200 O201 1.203 . S
C200 O207 1.267 . S
O201 C200 1.203 . S
O202 C195 1.185 . S
O202 Zn198 2.086 . S
C203 O199 1.278 . S
C203 O204 1.211 . S
O204 C203 1.211 . S
C205 O197 1.284 . S
C205 O206 1.273 . S
O206 C205 1.273 . S
O207 Zn198 1.977 . S
O207 C200 1.267 . S
C208 O209 1.160 . S
C208 O215 1.185 . S
O209 C208 1.160 . S
O210 Zn211 1.899 . S
O210 C218 1.284 . S
Zn211 O210 1.899 . S
Zn211 O212 2.032 . S
Zn211 O215 2.086 . S
Zn211 O220 1.977 . S
O212 Zn211 2.032 . S
O212 C216 1.278 . S
C213 O214 1.203 . S
C213 O220 1.267 . S
O214 C213 1.203 . S
O215 C208 1.185 . S
O215 Zn211 2.086 . S
C216 O212 1.278 . S
C216 O217 1.211 . S
O217 C216 1.211 . S
C218 O210 1.284 . S
C218 O219 1.273 . S
O219 C218 1.273 . S
O220 Zn211 1.977 . S
O220 C213 1.267 . S
C221 O222 1.160 . S
C221 O228 1.185 . S
O222 C221 1.160 . S
O223 Zn224 1.899 . S
O223 C231 1.284 . S
Zn224 O223 1.899 . S
Zn224 O225 2.032 . S
Zn224 O228 2.086 . S
Zn224 O233 1.977 . S
O225 Zn224 2.032 . S
O225 C229 1.278 . S
C226 O227 1.203 . S
C226 O233 1.267 . S
O227 C226 1.203 . S
O228 C221 1.185 . S
O228 Zn224 2.086 . S
C229 O225 1.278 . S
C229 O230 1.211 . S
O230 C229 1.211 . S
C231 O223 1.284 . S
C231 O232 1.273 . S
O232 C231 1.273 . S
O233 Zn224 1.977 . S
O233 C226 1.267 . S
C234 O235 1.160 . S
C234 O241 1.185 . S
O235 C234 1.160 . S
O236 Zn237 1.899 . S
O236 C244 1.284 . S
Zn237 O236 1.899 . S
Zn237 O238 2.032 . S
Zn237 O241 2.086 . S
Zn237 O246 1.977 . S
O238 Zn237 2.032 . S
O238 C242 1.278 . S
C239 O240 1.203 . S
C239 O246 1.267 . S
O240 C239 1.203 . S
O241 C234 1.185 . S
O241 Zn237 2.086 . S
C242 O238 1.278 . S
C242 O243 1.211 . S
O243 C242 1.211 . S
C244 O236 1.284 . S
C244 O245 1.273 . S
O245 C244 1.273 . S
O246 Zn237 1.977 . S
O246 C239 1.267 . S
C247 O248 1.160 . S
C247 O254 1.185 . S
O248 C247 1.160 . S
O249 Zn250 1.899 . S
O249 C257 1.284 . S
Zn250 O249 1.899 . S
Zn250 O251 2.032 . S
Zn250 O254 2.086 . S
Zn250 O259 1.977 . S
O251 Zn250 2.032 . S
O251 C255 1.278 . S
C252 O253 1.203 . S
C252 O259 1.267 . S
O253 C252 1.203 . S
O254 C247 1.185 . S
O254 Zn250 2.086 . S
C255 O251 1.278 . S
C255 O256 1.211 . S
O256 C255 1.211 . S
C257 O249 1.284 . S
C257 O258 1.273 . S
O258 C257 1.273 . S
O259 Zn250 1.977 . S
O259 C252 1.267 . S
C260 O261 1.160 . S
C260 O267 1.185 . S
O261 C260 1.160 . S
O262 Zn263 1.899 . S
O262 C270 1.284 . S
Zn263 O262 1.899 . S
Zn263 O264 2.032 . S
Zn263 O267 2.086 . S
Zn263 O272 1.977 . S
O264 Zn263 2.032 . S
O264 C268 1.278 . S
C265 O266 1.203 . S
C265 O272 1.267 . S
O266 C265 1.203 . S
O267 C260 1.185 . S
O267 Zn263 2.086 . S
C268 O264 1.278 . S
C268 O269 1.211 . S
O269 C268 1.211 . S
C270 O262 1.284 . S
C270 O271 1.273 . S
O271 C270 1.273 . S
O272 Zn263 1.977 . S
O272 C265 1.267 . S
C273 O274 1.160 . S
C273 O280 1.185 . S
O274 C273 1.160 . S
O275 Zn276 1.899 . S
O275 C283 1.284 . S
Zn276 O275 1.899 . S
Zn276 O277 2.032 . S
Zn276 O280 2.086 . S
Zn276 O285 1.977 . S
O277 Zn276 2.032 . S
O277 C281 1.278 . S
C278 O279 1.203 . S
C278 O285 1.267 . S
O279 C278 1.203 . S
O280 C273 1.185 . S
O280 Zn276 2.086 . S
C281 O277 1.278 . S
C281 O282 1.211 . S
O282 C281 1.211 . S
C283 O275 1.284 . S
C283 O284 1.273 . S
O284 C283 1.273 . S
O285 Zn276 1.977 . S
O285 C278 1.267 . S
C286 O287 1.160 . S
C286 O293 1.185 . S
O287 C286 1.160 . S
O288 Zn289 1.899 . S
O288 C296 1.284 . S
Zn289 O288 1.899 . S
Zn289 O290 2.032 . S
Zn289 O293 2.086 . S
Zn289 O298 1.977 . S
O290 Zn289 2.032 . S
O290 C294 1.278 . S
C291 O292 1.203 . S
C291 O298 1.267 . S
O292 C291 1.203 . S
O293 C286 1.185 . S
O293 Zn289 2.086 . S
C294 O290 1.278 . S
C294 O295 1.211 . S
O295 C294 1.211 . S
C296 O288 1.284 . S
C296 O297 1.273 . S
O297 C296 1.273 . S
O298 Zn289 1.977 . S
O298 C291 1.267 . S
C299 O300 1.160 . S
C299 O306 1.185 . S
O300 C299 1.160 . S
O301 Zn302 1.899 . S
O301 C309 1.284 . S
Zn302 O301 1.899 . S
Zn302 O303 2.032 . S
Zn302 O306 2.086 . S
Zn302 O311 1.977 . S
O303 Zn302 2.032 . S
O303 C307 1.278 . S
C304 O305 1.203 . S
C304 O311 1.267 . S
O305 C304 1.203 . S
O306 C299 1.185 . S
O306 Zn302 2.086 . S
C307 O303 1.278 . S
C307 O308 1.211 . S
O308 C307 1.211 . S
C309 O301 1.284 . S
C309 O310 1.273 . S
O310 C309 1.273 . S
O311 Zn302 1.977 . S
O311 C304 1.267 . S
C312 O313 1.160 . S
C312 O319 1.185 . S
O313 C312 1.160 . S
O314 Zn315 1.899 . S
O314 C322 1.284 . S
Zn315 O314 1.899 . S
Zn315 O316 2.032 . S
Zn315 O319 2.086 . S
Zn315 O324 1.977 . S
O316 Zn315 2.032 . S
O316 C320 1.278 . S
C317 O318 1.203 . S
C317 O324 1.267 . S
O318 C317 1.203 . S
O319 C312 1.185 . S
O319 Zn315 2.086 . S
C320 O316 1.278 . S
C320 O321 1.211 . S
O321 C320 1.211 . S
C322 O314 1.284 . S
C322 O323 1.273 . S
O323 C322 1.273 . S
O324 Zn315 1.977 . S
O324 C317 1.267 . S
C325 O326 1.160 . S
C325 O332 1.185 . S
O326 C325 1.160 . S
O327 Zn328 1.899 . S
O327 C335 1.284 . S
Zn328 O327 1.899 . S
Zn328 O329 2.032 . S
Zn328 O332 2.086 . S
Zn328 O337 1.977 . S
O329 Zn328 2.032 . S
O329 C333 1.278 . S
C330 O331 1.203 . S
C330 O337 1.267 . S
O331 C330 1.203 . S
O332 C325 1.185 . S
O332 Zn328 2.086 . S
C333 O329 1.278 . S
C333 O334 1.211 . S
O334 C333 1.211 . S
C335 O327 1.284 . S
C335 O336 1.273 . S
O336 C335 1.273 . S
O337 Zn328 1.977 . S
O337 C330 1.267 . S
C338 O339 1.160 . S
C338 O345 1.185 . S
O339 C338 1.160 . S
O340 Zn341 1.899 . S
O340 C348 1.284 . S
Zn341 O340 1.899 . S
Zn341 O342 2.032 . S
Zn341 O345 2.086 . S
Zn341 O350 1.977 . S
O342 Zn341 2.032 . S
O342 C346 1.278 . S
C343 O344 1.203 . S
C343 O350 1.267 . S
O344 C343 1.203 . S
O345 C338 1.185 . S
O345 Zn341 2.086 . S
C346 O342 1.278 . S
C346 O347 1.211 . S
O347 C346 1.211 . S
C348 O340 1.284 . S
C348 O349 1.273 . S
O349 C348 1.273 . S
O350 Zn341 1.977 . S
O350 C343 1.267 . S
C351 O352 1.160 . S
C351 O358 1.185 . S
O352 C351 1.160 . S
O353 Zn354 1.899 . S
O353 C361 1.284 . S
Zn354 O353 1.899 . S
Zn354 O355 2.032 . S
Zn354 O358 2.086 . S
Zn354 O363 1.977 . S
O355 Zn354 2.032 . S
O355 C359 1.278 . S
C356 O357 1.203 . S
C356 O363 1.267 . S
O357 C356 1.203 . S
O358 C351 1.185 . S
O358 Zn354 2.086 . S
C359 O355 1.278 . S
C359 O360 1.211 . S
O360 C359 1.211 . S
C361 O353 1.284 . S
C361 O362 1.273 . S
O362 C361 1.273 . S
O363 Zn354 1.977 . S
O363 C356 1.267 . S
C364 O365 1.160 . S
C364 O371 1.185 . S
O365 C364 1.160 . S
O366 Zn367 1.899 . S
O366 C374 1.284 . S
Zn367 O366 1.899 . S
Zn367 O368 2.032 . S
Zn367 O371 2.086 . S
Zn367 O376 1.977 . S
O368 Zn367 2.032 . S
O368 C372 1.278 . S
C369 O370 1.203 . S
C369 O376 1.267 . S
O370 C369 1.203 . S
O371 C364 1.185 . S
O371 Zn367 2.086 . S
C372 O368 1.278 . S
C372 O373 1.211 . S
O373 C372 1.211 . S
C374 O366 1.284 . S
C374 O375 1.273 . S
O375 C374 1.273 . S
O376 Zn367 1.977 . S
O376 C369 1.267 . S
C377 O378 1.160 . S
C377 O384 1.185 . S
O378 C377 1.160 . S
O379 Zn380 1.899 . S
O379 C387 1.284 . S
Zn380 O379 1.899 . S
Zn380 O381 2.032 . S
Zn380 O384 2.086 . S
Zn380 O389 1.977 . S
O381 Zn380 2.032 . S
O381 C385 1.278 . S
C382 O383 1.203 . S
C382 O389 1.267 . S
O383 C382 1.203 . S
O384 C377 1.185 . S
O384 Zn380 2.086 . S
C385 O381 1.278 . S
C385 O386 1.211 . S
O386 C385 1.211 . S
C387 O379 1.284 . S
C387 O388 1.273 . S
O388 C387 1.273 . S
O389 Zn380 1.977 . S
O389 C382 1.267 . S
C390 O391 1.160 . S
C390 O397 1.185 . S
O391 C390 1.160 . S
O392 Zn393 1.899 . S
O392 C400 1.284 . S
Zn393 O392 1.899 . S
Zn393 O394 2.032 . S
Zn393 O397 2.086 . S
Zn393 O402 1.977 . S
O394 Zn393 2.032 . S
O394 C398 1.278 . S
C395 O396 1.203 . S
C395 O402 1.267 . S
O396 C395 1.203 . S
O397 C390 1.185 . S
O397 Zn393 2.086 . S
C398 O394 1.278 . S
C398 O399 1.211 . S
O399 C398 1.211 . S
C400 O392 1.284 . S
C400 O401 1.273 . S
O401 C400 1.273 . S
O402 Zn393 1.977 . S
O402 C395 1.267 . S
C403 O404 1.160 . S
C403 O410 1.185 . S
O404 C403 1.160 . S
O405 Zn406 1.899 . S
O405 C413 1.284 . S
Zn406 O405 1.899 . S
Zn406 O407 2.032 . S
Zn406 O410 2.086 . S
Zn406 O415 1.977 . S
O407 Zn406 2.032 . S
O407 C411 1.278 . S
C408 O409 1.203 . S
C408 O415 1.267 . S
O409 C408 1.203 . S
O410 C403 1.185 . S
O410 Zn406 2.086 . S
C411 O407 1.278 . S
C411 O412 1.211 . S
O412 C411 1.211 . S
C413 O405 1.284 . S
C413 O414 1.273 . S
O414 C413 1.273 . S
O415 Zn406 1.977 . S
O415 C408 1.267 . S
H416 C422 0.930 . S
H417 C426 0.930 . S
H418 C431 0.929 1_554 S
H419 C429 0.929 1_556 S
H420 C424 0.929 1_655 S
H421 C430 0.929 1_455 S
C422 H416 0.930 . S
C422 C423 1.367 . S
C422 C430 1.378 . S
C423 C422 1.367 . S
C423 C431 1.433 . S
C424 H420 0.929 1_455 S
C424 C426 1.378 . S
C424 C428 1.350 . S
C425 C428 1.463 1_656 S
C425 C430 1.350 . S
C425 N433 1.427 1_556 S
C426 H417 0.930 . S
C426 C424 1.378 . S
C426 C427 1.367 . S
C427 C426 1.367 . S
C427 C429 1.433 . S
C428 C424 1.350 . S
C428 C425 1.463 1_454 S
C428 N432 1.427 1_554 S
C429 H419 0.929 1_554 S
C429 C427 1.433 . S
C429 N432 1.384 1_554 S
C430 H421 0.929 1_655 S
C430 C422 1.378 . S
C430 C425 1.350 . S
C431 H418 0.929 1_556 S
C431 C423 1.433 . S
C431 N433 1.384 1_556 S
N432 C428 1.427 1_556 S
N432 C429 1.384 1_556 S
N433 C425 1.427 1_554 S
N433 C431 1.384 1_554 S
H434 C440 0.930 . S
H435 C444 0.930 . S
H436 C449 0.929 . S
H437 C447 0.929 . S
H438 C442 0.929 . S
H439 C448 0.929 . S
C440 H434 0.930 . S
C440 C441 1.367 . S
C440 C448 1.378 . S
C441 C440 1.367 . S
C441 C449 1.433 . S
C442 H438 0.929 . S
C442 C444 1.378 . S
C442 C446 1.350 . S
C443 C446 1.463 . S
C443 C448 1.350 . S
C443 N451 1.427 . S
C444 H435 0.930 . S
C444 C442 1.378 . S
C444 C445 1.367 . S
C445 C444 1.367 . S
C445 C447 1.433 . S
C446 C442 1.350 . S
C446 C443 1.463 . S
C446 N450 1.427 . S
C447 H437 0.929 . S
C447 C445 1.433 . S
C447 N450 1.384 . S
C448 H439 0.929 . S
C448 C440 1.378 . S
C448 C443 1.350 . S
C449 H436 0.929 . S
C449 C441 1.433 . S
C449 N451 1.384 . S
N450 C446 1.427 . S
N450 C447 1.384 . S
N451 C443 1.427 . S
N451 C449 1.384 . S
H452 C458 0.930 . S
H453 C462 0.930 . S
H454 C467 0.929 . S
H455 C465 0.929 . S
H456 C460 0.929 . S
H457 C466 0.929 . S
C458 H452 0.930 . S
C458 C459 1.367 . S
C458 C466 1.378 . S
C459 C458 1.367 . S
C459 C467 1.433 . S
C460 H456 0.929 . S
C460 C462 1.378 . S
C460 C464 1.350 . S
C461 C464 1.463 . S
C461 C466 1.350 . S
C461 N469 1.427 . S
C462 H453 0.930 . S
C462 C460 1.378 . S
C462 C463 1.367 . S
C463 C462 1.367 . S
C463 C465 1.433 . S
C464 C460 1.350 . S
C464 C461 1.463 . S
C464 N468 1.427 . S
C465 H455 0.929 . S
C465 C463 1.433 . S
C465 N468 1.384 . S
C466 H457 0.929 . S
C466 C458 1.378 . S
C466 C461 1.350 . S
C467 H454 0.929 . S
C467 C459 1.433 . S
C467 N469 1.384 . S
N468 C464 1.427 . S
N468 C465 1.384 . S
N469 C461 1.427 . S
N469 C467 1.384 . S
H470 C476 0.930 . S
H471 C480 0.930 . S
H472 C485 0.929 . S
H473 C483 0.929 . S
H474 C478 0.929 . S
H475 C484 0.929 . S
C476 H470 0.930 . S
C476 C477 1.367 . S
C476 C484 1.378 . S
C477 C476 1.367 . S
C477 C485 1.433 . S
C478 H474 0.929 . S
C478 C480 1.378 . S
C478 C482 1.350 . S
C479 C482 1.463 . S
C479 C484 1.350 . S
C479 N487 1.427 . S
C480 H471 0.930 . S
C480 C478 1.378 . S
C480 C481 1.367 . S
C481 C480 1.367 . S
C481 C483 1.433 . S
C482 C478 1.350 . S
C482 C479 1.463 . S
C482 N486 1.427 . S
C483 H473 0.929 . S
C483 C481 1.433 . S
C483 N486 1.384 . S
C484 H475 0.929 . S
C484 C476 1.378 . S
C484 C479 1.350 . S
C485 H472 0.929 . S
C485 C477 1.433 . S
C485 N487 1.384 . S
N486 C482 1.427 . S
N486 C483 1.384 . S
N487 C479 1.427 . S
N487 C485 1.384 . S
H488 C494 0.930 . S
H489 C498 0.930 . S
H490 C503 0.929 . S
H491 C501 0.929 . S
H492 C496 0.929 . S
H493 C502 0.929 . S
C494 H488 0.930 . S
C494 C495 1.367 . S
C494 C502 1.378 . S
C495 C494 1.367 . S
C495 C503 1.433 . S
C496 H492 0.929 . S
C496 C498 1.378 . S
C496 C500 1.350 . S
C497 C500 1.463 1_655 S
C497 C502 1.350 . S
C497 N505 1.427 1_655 S
C498 H489 0.930 . S
C498 C496 1.378 . S
C498 C499 1.367 . S
C499 C498 1.367 . S
C499 C501 1.433 . S
C500 C496 1.350 . S
C500 C497 1.463 1_455 S
C500 N504 1.427 1_455 S
C501 H491 0.929 . S
C501 C499 1.433 . S
C501 N504 1.384 1_455 S
C502 H493 0.929 . S
C502 C494 1.378 . S
C502 C497 1.350 . S
C503 H490 0.929 . S
C503 C495 1.433 . S
C503 N505 1.384 1_655 S
N504 C500 1.427 1_655 S
N504 C501 1.384 1_655 S
N505 C497 1.427 1_455 S
N505 C503 1.384 1_455 S
H506 C512 0.930 . S
H507 C516 0.930 . S
H508 C521 0.929 . S
H509 C519 0.929 . S
H510 C514 0.929 . S
H511 C520 0.929 . S
C512 H506 0.930 . S
C512 C513 1.367 . S
C512 C520 1.378 . S
C513 C512 1.367 . S
C513 C521 1.433 . S
C514 H510 0.929 . S
C514 C516 1.378 . S
C514 C518 1.350 . S
C515 C518 1.463 . S
C515 C520 1.350 . S
C515 N523 1.427 . S
C516 H507 0.930 . S
C516 C514 1.378 . S
C516 C517 1.367 . S
C517 C516 1.367 . S
C517 C519 1.433 . S
C518 C514 1.350 . S
C518 C515 1.463 . S
C518 N522 1.427 . S
C519 H509 0.929 . S
C519 C517 1.433 . S
C519 N522 1.384 . S
C520 H511 0.929 . S
C520 C512 1.378 . S
C520 C515 1.350 . S
C521 H508 0.929 . S
C521 C513 1.433 . S
C521 N523 1.384 . S
N522 C518 1.427 . S
N522 C519 1.384 . S
N523 C515 1.427 . S
N523 C521 1.384 . S
H524 C530 0.930 1_554 S
H525 C534 0.930 1_556 S
H526 C539 0.929 . S
H527 C537 0.929 . S
H528 C532 0.929 . S
H529 C538 0.929 . S
C530 H524 0.930 1_556 S
C530 C531 1.367 . S
C530 C538 1.378 1_556 S
C531 C530 1.367 . S
C531 C539 1.433 . S
C532 H528 0.929 . S
C532 C534 1.378 1_556 S
C532 C536 1.350 1_556 S
C533 C536 1.463 1_556 S
C533 C538 1.350 1_556 S
C533 N541 1.427 . S
C534 H525 0.930 1_554 S
C534 C532 1.378 1_554 S
C534 C535 1.367 . S
C535 C534 1.367 . S
C535 C537 1.433 . S
C536 C532 1.350 1_554 S
C536 C533 1.463 1_554 S
C536 N540 1.427 . S
C537 H527 0.929 . S
C537 C535 1.433 . S
C537 N540 1.384 . S
C538 H529 0.929 . S
C538 C530 1.378 1_554 S
C538 C533 1.350 1_554 S
C539 H526 0.929 . S
C539 C531 1.433 . S
C539 N541 1.384 . S
N540 C536 1.427 . S
N540 C537 1.384 . S
N541 C533 1.427 . S
N541 C539 1.384 . S
H542 C548 0.930 . S
H543 C552 0.930 . S
H544 C557 0.929 . S
H545 C555 0.929 . S
H546 C550 0.929 . S
H547 C556 0.929 . S
C548 H542 0.930 . S
C548 C549 1.367 . S
C548 C556 1.378 . S
C549 C548 1.367 . S
C549 C557 1.433 . S
C550 H546 0.929 . S
C550 C552 1.378 . S
C550 C554 1.350 . S
C551 C554 1.463 . S
C551 C556 1.350 . S
C551 N559 1.427 . S
C552 H543 0.930 . S
C552 C550 1.378 . S
C552 C553 1.367 . S
C553 C552 1.367 . S
C553 C555 1.433 . S
C554 C550 1.350 . S
C554 C551 1.463 . S
C554 N558 1.427 . S
C555 H545 0.929 . S
C555 C553 1.433 . S
C555 N558 1.384 . S
C556 H547 0.929 . S
C556 C548 1.378 . S
C556 C551 1.350 . S
C557 H544 0.929 . S
C557 C549 1.433 . S
C557 N559 1.384 . S
N558 C554 1.427 . S
N558 C555 1.384 . S
N559 C551 1.427 . S
N559 C557 1.384 . S
H560 C566 0.930 . S
H561 C570 0.930 . S
H562 C575 0.929 . S
H563 C573 0.929 . S
H564 C568 0.929 . S
H565 C574 0.929 . S
C566 H560 0.930 . S
C566 C567 1.367 . S
C566 C574 1.378 . S
C567 C566 1.367 . S
C567 C575 1.433 . S
C568 H564 0.929 . S
C568 C570 1.378 . S
C568 C572 1.350 . S
C569 C572 1.463 . S
C569 C574 1.350 . S
C569 N577 1.427 . S
C570 H561 0.930 . S
C570 C568 1.378 . S
C570 C571 1.367 . S
C571 C570 1.367 . S
C571 C573 1.433 . S
C572 C568 1.350 . S
C572 C569 1.463 . S
C572 N576 1.427 . S
C573 H563 0.929 . S
C573 C571 1.433 . S
C573 N576 1.384 . S
C574 H565 0.929 . S
C574 C566 1.378 . S
C574 C569 1.350 . S
C575 H562 0.929 . S
C575 C567 1.433 . S
C575 N577 1.384 . S
N576 C572 1.427 . S
N576 C573 1.384 . S
N577 C569 1.427 . S
N577 C575 1.384 . S
H578 C584 0.930 . S
H579 C588 0.930 . S
H580 C593 0.929 . S
H581 C591 0.929 . S
H582 C586 0.929 . S
H583 C592 0.929 . S
C584 H578 0.930 . S
C584 C585 1.367 . S
C584 C592 1.378 . S
C585 C584 1.367 . S
C585 C593 1.433 . S
C586 H582 0.929 . S
C586 C588 1.378 . S
C586 C590 1.350 . S
C587 C590 1.463 . S
C587 C592 1.350 . S
C587 N595 1.427 . S
C588 H579 0.930 . S
C588 C586 1.378 . S
C588 C589 1.367 . S
C589 C588 1.367 . S
C589 C591 1.433 . S
C590 C586 1.350 . S
C590 C587 1.463 . S
C590 N594 1.427 . S
C591 H581 0.929 . S
C591 C589 1.433 . S
C591 N594 1.384 . S
C592 H583 0.929 . S
C592 C584 1.378 . S
C592 C587 1.350 . S
C593 H580 0.929 . S
C593 C585 1.433 . S
C593 N595 1.384 . S
N594 C590 1.427 . S
N594 C591 1.384 . S
N595 C587 1.427 . S
N595 C593 1.384 . S
H596 C602 0.930 . S
H597 C606 0.930 . S
H598 C611 0.929 . S
H599 C609 0.929 . S
H600 C604 0.929 . S
H601 C610 0.929 . S
C602 H596 0.930 . S
C602 C603 1.367 . S
C602 C610 1.378 . S
C603 C602 1.367 . S
C603 C611 1.433 . S
C604 H600 0.929 . S
C604 C606 1.378 . S
C604 C608 1.350 . S
C605 C608 1.463 . S
C605 C610 1.350 . S
C605 N613 1.427 . S
C606 H597 0.930 . S
C606 C604 1.378 . S
C606 C607 1.367 . S
C607 C606 1.367 . S
C607 C609 1.433 . S
C608 C604 1.350 . S
C608 C605 1.463 . S
C608 N612 1.427 . S
C609 H599 0.929 . S
C609 C607 1.433 . S
C609 N612 1.384 . S
C610 H601 0.929 . S
C610 C602 1.378 . S
C610 C605 1.350 . S
C611 H598 0.929 . S
C611 C603 1.433 . S
C611 N613 1.384 . S
N612 C608 1.427 . S
N612 C609 1.384 . S
N613 C605 1.427 . S
N613 C611 1.384 . S
H614 C620 0.930 . S
H615 C624 0.930 . S
H616 C629 0.929 . S
H617 C627 0.929 . S
H618 C622 0.929 . S
H619 C628 0.929 . S
C620 H614 0.930 . S
C620 C621 1.367 . S
C620 C628 1.378 . S
C621 C620 1.367 . S
C621 C629 1.433 . S
C622 H618 0.929 . S
C622 C624 1.378 . S
C622 C626 1.350 . S
C623 C626 1.463 . S
C623 C628 1.350 . S
C623 N631 1.427 . S
C624 H615 0.930 . S
C624 C622 1.378 . S
C624 C625 1.367 . S
C625 C624 1.367 . S
C625 C627 1.433 . S
C626 C622 1.350 . S
C626 C623 1.463 . S
C626 N630 1.427 . S
C627 H617 0.929 . S
C627 C625 1.433 . S
C627 N630 1.384 . S
C628 H619 0.929 . S
C628 C620 1.378 . S
C628 C623 1.350 . S
C629 H616 0.929 . S
C629 C621 1.433 . S
C629 N631 1.384 . S
N630 C626 1.427 . S
N630 C627 1.384 . S
N631 C623 1.427 . S
N631 C629 1.384 . S
H632 C638 0.930 . S
H633 C642 0.930 . S
H634 C647 0.929 . S
H635 C645 0.929 . S
H636 C640 0.912 1_565 S
H637 C646 0.912 1_545 S
C638 H632 0.930 . S
C638 C639 1.367 . S
C638 C646 1.389 . S
C639 C638 1.367 . S
C639 C647 1.433 . S
C640 H636 0.912 1_545 S
C640 C642 1.389 . S
C640 C644 1.356 . S
C641 C644 1.463 1_565 S
C641 C646 1.356 . S
C641 N649 1.427 . S
C642 H633 0.930 . S
C642 C640 1.389 . S
C642 C643 1.367 . S
C643 C642 1.367 . S
C643 C645 1.433 . S
C644 C640 1.356 . S
C644 C641 1.463 1_545 S
C644 N648 1.427 . S
C645 H635 0.929 . S
C645 C643 1.433 . S
C645 N648 1.384 . S
C646 H637 0.912 1_565 S
C646 C638 1.389 . S
C646 C641 1.356 . S
C647 H634 0.929 . S
C647 C639 1.433 . S
C647 N649 1.384 . S
N648 C644 1.427 . S
N648 C645 1.384 . S
N649 C641 1.427 . S
N649 C647 1.384 . S
H650 C656 0.930 . S
H651 C660 0.930 . S
H652 C665 0.929 . S
H653 C663 0.929 . S
H654 C658 0.916 1_565 S
H655 C664 0.916 1_545 S
C656 H650 0.930 . S
C656 C657 1.367 . S
C656 C664 1.386 . S
C657 C656 1.367 . S
C657 C665 1.433 . S
C658 H654 0.916 1_545 S
C658 C660 1.386 . S
C658 C662 1.354 . S
C659 C662 1.463 1_466 S
C659 C664 1.354 . S
C659 N667 1.414 1_556 S
C660 H651 0.930 . S
C660 C658 1.386 . S
C660 C661 1.367 . S
C661 C660 1.367 . S
C661 C663 1.433 . S
C662 C658 1.354 . S
C662 C659 1.463 1_644 S
C662 N666 1.414 1_554 S
C663 H653 0.929 . S
C663 C661 1.433 . S
C663 N666 1.363 1_554 S
C664 H655 0.916 1_565 S
C664 C656 1.386 . S
C664 C659 1.354 . S
C665 H652 0.929 . S
C665 C657 1.433 . S
C665 N667 1.363 1_556 S
N666 C662 1.414 1_556 S
N666 C663 1.363 1_556 S
N667 C659 1.414 1_554 S
N667 C665 1.363 1_554 S
H668 C674 0.930 1_554 S
H669 C678 0.930 1_556 S
H670 C683 0.929 . S
H671 C681 0.929 . S
H672 C676 0.929 . S
H673 C682 0.929 . S
C674 H668 0.930 1_556 S
C674 C675 1.367 . S
C674 C682 1.378 1_556 S
C675 C674 1.367 . S
C675 C683 1.433 . S
C676 H672 0.929 . S
C676 C678 1.378 1_556 S
C676 C680 1.350 1_556 S
C677 C680 1.463 1_546 S
C677 C682 1.350 1_556 S
C677 N685 1.427 . S
C678 H669 0.930 1_554 S
C678 C676 1.378 1_554 S
C678 C679 1.367 . S
C679 C678 1.367 . S
C679 C681 1.433 . S
C680 C676 1.350 1_554 S
C680 C677 1.463 1_564 S
C680 N684 1.427 . S
C681 H671 0.929 . S
C681 C679 1.433 . S
C681 N684 1.384 . S
C682 H673 0.929 . S
C682 C674 1.378 1_554 S
C682 C677 1.350 1_554 S
C683 H670 0.929 . S
C683 C675 1.433 . S
C683 N685 1.384 . S
N684 C680 1.427 . S
N684 C681 1.384 . S
N685 C677 1.427 . S
N685 C683 1.384 . S
H686 C692 0.930 . S
H687 C696 0.930 . S
H688 C701 0.929 . S
H689 C699 0.929 . S
H690 C694 0.959 . S
H691 C700 0.959 . S
C692 H686 0.930 . S
C692 C693 1.367 . S
C692 C700 1.358 1_455 S
C693 C692 1.367 . S
C693 C701 1.433 . S
C694 H690 0.959 . S
C694 C696 1.358 1_455 S
C694 C698 1.340 1_455 S
C695 C698 1.463 1_445 S
C695 C700 1.340 1_455 S
C695 N703 1.427 . S
C696 H687 0.930 . S
C696 C694 1.358 1_655 S
C696 C697 1.367 . S
C697 C696 1.367 . S
C697 C699 1.433 . S
C698 C694 1.340 1_655 S
C698 C695 1.463 1_665 S
C698 N702 1.427 . S
C699 H689 0.929 . S
C699 C697 1.433 . S
C699 N702 1.384 . S
C700 H691 0.959 . S
C700 C692 1.358 1_655 S
C700 C695 1.340 1_655 S
C701 H688 0.929 . S
C701 C693 1.433 . S
C701 N703 1.384 . S
N702 C698 1.427 . S
N702 C699 1.384 . S
N703 C695 1.427 . S
N703 C701 1.384 . S
H704 C710 0.930 . S
H705 C714 0.930 . S
H706 C719 0.929 . S
H707 C717 0.929 . S
H708 C712 0.929 . S
H709 C718 0.929 . S
C710 H704 0.930 . S
C710 C711 1.367 . S
C710 C718 1.378 1_655 S
C711 C710 1.367 . S
C711 C719 1.433 . S
C712 H708 0.929 . S
C712 C714 1.378 1_655 S
C712 C716 1.350 1_655 S
C713 C716 1.463 1_655 S
C713 C718 1.350 1_655 S
C713 N721 1.427 . S
C714 H705 0.930 . S
C714 C712 1.378 1_455 S
C714 C715 1.367 . S
C715 C714 1.367 . S
C715 C717 1.433 . S
C716 C712 1.350 1_455 S
C716 C713 1.463 1_455 S
C716 N720 1.427 . S
C717 H707 0.929 . S
C717 C715 1.433 . S
C717 N720 1.384 . S
C718 H709 0.929 . S
C718 C710 1.378 1_455 S
C718 C713 1.350 1_455 S
C719 H706 0.929 . S
C719 C711 1.433 . S
C719 N721 1.384 . S
N720 C716 1.427 . S
N720 C717 1.384 . S
N721 C713 1.427 . S
N721 C719 1.384 . S
H722 C728 0.930 . S
H723 C732 0.930 . S
H724 C737 0.929 . S
H725 C735 0.929 . S
H726 C730 0.929 1_455 S
H727 C736 0.929 1_655 S
C728 H722 0.930 . S
C728 C729 1.367 . S
C728 C736 1.378 . S
C729 C728 1.367 . S
C729 C737 1.433 . S
C730 H726 0.929 1_655 S
C730 C732 1.378 . S
C730 C734 1.350 . S
C731 C734 1.463 1_455 S
C731 C736 1.350 . S
C731 N739 1.427 . S
C732 H723 0.930 . S
C732 C730 1.378 . S
C732 C733 1.367 . S
C733 C732 1.367 . S
C733 C735 1.433 . S
C734 C730 1.350 . S
C734 C731 1.463 1_655 S
C734 N738 1.427 . S
C735 H725 0.929 . S
C735 C733 1.433 . S
C735 N738 1.384 . S
C736 H727 0.929 1_455 S
C736 C728 1.378 . S
C736 C731 1.350 . S
C737 H724 0.929 . S
C737 C729 1.433 . S
C737 N739 1.384 . S
N738 C734 1.427 . S
N738 C735 1.384 . S
N739 C731 1.427 . S
N739 C737 1.384 . S
H740 C746 0.930 . S
H741 C750 0.930 . S
H742 C755 0.929 . S
H743 C753 0.929 . S
H744 C748 0.929 . S
H745 C754 0.929 . S
C746 H740 0.930 . S
C746 C747 1.367 . S
C746 C754 1.378 . S
C747 C746 1.367 . S
C747 C755 1.433 . S
C748 H744 0.929 . S
C748 C750 1.378 . S
C748 C752 1.350 . S
C749 C752 1.463 . S
C749 C754 1.350 . S
C749 N757 1.427 . S
C750 H741 0.930 . S
C750 C748 1.378 . S
C750 C751 1.367 . S
C751 C750 1.367 . S
C751 C753 1.433 . S
C752 C748 1.350 . S
C752 C749 1.463 . S
C752 N756 1.427 . S
C753 H743 0.929 . S
C753 C751 1.433 . S
C753 N756 1.384 . S
C754 H745 0.929 . S
C754 C746 1.378 . S
C754 C749 1.350 . S
C755 H742 0.929 . S
C755 C747 1.433 . S
C755 N757 1.384 . S
N756 C752 1.427 . S
N756 C753 1.384 . S
N757 C749 1.427 . S
N757 C755 1.384 . S
H758 C764 0.930 . S
H759 C768 0.930 . S
H760 C773 0.929 . S
H761 C771 0.929 . S
H762 C766 0.929 . S
H763 C772 0.929 . S
C764 H758 0.930 . S
C764 C765 1.367 . S
C764 C772 1.378 . S
C765 C764 1.367 . S
C765 C773 1.433 . S
C766 H762 0.929 . S
C766 C768 1.378 . S
C766 C770 1.350 . S
C767 C770 1.463 . S
C767 C772 1.350 . S
C767 N775 1.427 . S
C768 H759 0.930 . S
C768 C766 1.378 . S
C768 C769 1.367 . S
C769 C768 1.367 . S
C769 C771 1.433 . S
C770 C766 1.350 . S
C770 C767 1.463 . S
C770 N774 1.427 . S
C771 H761 0.929 . S
C771 C769 1.433 . S
C771 N774 1.384 . S
C772 H763 0.929 . S
C772 C764 1.378 . S
C772 C767 1.350 . S
C773 H760 0.929 . S
C773 C765 1.433 . S
C773 N775 1.384 . S
N774 C770 1.427 . S
N774 C771 1.384 . S
N775 C767 1.427 . S
N775 C773 1.384 . S
H776 C782 0.930 . S
H777 C786 0.930 . S
H778 C791 0.929 . S
H779 C789 0.929 . S
H780 C784 0.929 . S
H781 C790 0.929 . S
C782 H776 0.930 . S
C782 C783 1.367 . S
C782 C790 1.378 1_655 S
C783 C782 1.367 . S
C783 C791 1.433 . S
C784 H780 0.929 . S
C784 C786 1.378 1_655 S
C784 C788 1.350 1_655 S
C785 C788 1.463 1_655 S
C785 C790 1.350 1_655 S
C785 N793 1.427 . S
C786 H777 0.930 . S
C786 C784 1.378 1_455 S
C786 C787 1.367 . S
C787 C786 1.367 . S
C787 C789 1.433 . S
C788 C784 1.350 1_455 S
C788 C785 1.463 1_455 S
C788 N792 1.427 . S
C789 H779 0.929 . S
C789 C787 1.433 . S
C789 N792 1.384 . S
C790 H781 0.929 . S
C790 C782 1.378 1_455 S
C790 C785 1.350 1_455 S
C791 H778 0.929 . S
C791 C783 1.433 . S
C791 N793 1.384 . S
N792 C788 1.427 . S
N792 C789 1.384 . S
N793 C785 1.427 . S
N793 C791 1.384 . S
H794 C800 0.930 . S
H795 C804 0.930 . S
H796 C809 0.929 . S
H797 C807 0.929 . S
H798 C802 0.929 . S
H799 C808 0.929 . S
C800 H794 0.930 . S
C800 C801 1.367 . S
C800 C808 1.378 . S
C801 C800 1.367 . S
C801 C809 1.433 . S
C802 H798 0.929 . S
C802 C804 1.378 . S
C802 C806 1.350 . S
C803 C806 1.463 . S
C803 C808 1.350 . S
C803 N811 1.427 . S
C804 H795 0.930 . S
C804 C802 1.378 . S
C804 C805 1.367 . S
C805 C804 1.367 . S
C805 C807 1.433 . S
C806 C802 1.350 . S
C806 C803 1.463 . S
C806 N810 1.427 . S
C807 H797 0.929 . S
C807 C805 1.433 . S
C807 N810 1.384 . S
C808 H799 0.929 . S
C808 C800 1.378 . S
C808 C803 1.350 . S
C809 H796 0.929 . S
C809 C801 1.433 . S
C809 N811 1.384 . S
N810 C806 1.427 . S
N810 C807 1.384 . S
N811 C803 1.427 . S
N811 C809 1.384 . S
H812 C818 0.930 . S
H813 C822 0.930 . S
H814 C827 0.929 . S
H815 C825 0.929 . S
H816 C820 0.929 . S
H817 C826 0.929 . S
C818 H812 0.930 . S
C818 C819 1.367 . S
C818 C826 1.378 . S
C819 C818 1.367 . S
C819 C827 1.433 . S
C820 H816 0.929 . S
C820 C822 1.378 . S
C820 C824 1.350 . S
C821 C824 1.463 . S
C821 C826 1.350 . S
C821 N829 1.427 . S
C822 H813 0.930 . S
C822 C820 1.378 . S
C822 C823 1.367 . S
C823 C822 1.367 . S
C823 C825 1.433 . S
C824 C820 1.350 . S
C824 C821 1.463 . S
C824 N828 1.427 . S
C825 H815 0.929 . S
C825 C823 1.433 . S
C825 N828 1.384 . S
C826 H817 0.929 . S
C826 C818 1.378 . S
C826 C821 1.350 . S
C827 H814 0.929 . S
C827 C819 1.433 . S
C827 N829 1.384 . S
N828 C824 1.427 . S
N828 C825 1.384 . S
N829 C821 1.427 . S
N829 C827 1.384 . S
H830 C836 0.930 . S
H831 C840 0.930 . S
H832 C845 0.929 . S
H833 C843 0.929 . S
H834 C838 0.929 . S
H835 C844 0.929 . S
C836 H830 0.930 . S
C836 C837 1.367 . S
C836 C844 1.378 . S
C837 C836 1.367 . S
C837 C845 1.433 . S
C838 H834 0.929 . S
C838 C840 1.378 . S
C838 C842 1.350 . S
C839 C842 1.463 1_455 S
C839 C844 1.350 . S
C839 N847 1.427 . S
C840 H831 0.930 . S
C840 C838 1.378 . S
C840 C841 1.367 . S
C841 C840 1.367 . S
C841 C843 1.433 . S
C842 C838 1.350 . S
C842 C839 1.463 1_655 S
C842 N846 1.427 . S
C843 H833 0.929 . S
C843 C841 1.433 . S
C843 N846 1.384 . S
C844 H835 0.929 . S
C844 C836 1.378 . S
C844 C839 1.350 . S
C845 H832 0.929 . S
C845 C837 1.433 . S
C845 N847 1.384 . S
N846 C842 1.427 . S
N846 C843 1.384 . S
N847 C839 1.427 . S
N847 C845 1.384 . S
H848 C854 0.930 . S
H849 C858 0.930 . S
H850 C863 0.929 . S
H851 C861 0.929 . S
H852 C856 0.929 . S
H853 C862 0.929 . S
C854 H848 0.930 . S
C854 C855 1.367 . S
C854 C862 1.378 . S
C855 C854 1.367 . S
C855 C863 1.433 . S
C856 H852 0.929 . S
C856 C858 1.378 . S
C856 C860 1.350 . S
C857 C860 1.463 1_655 S
C857 C862 1.350 . S
C857 N865 1.427 . S
C858 H849 0.930 . S
C858 C856 1.378 . S
C858 C859 1.367 . S
C859 C858 1.367 . S
C859 C861 1.433 . S
C860 C856 1.350 . S
C860 C857 1.463 1_455 S
C860 N864 1.427 . S
C861 H851 0.929 . S
C861 C859 1.433 . S
C861 N864 1.384 . S
C862 H853 0.929 . S
C862 C854 1.378 . S
C862 C857 1.350 . S
C863 H850 0.929 . S
C863 C855 1.433 . S
C863 N865 1.384 . S
N864 C860 1.427 . S
N864 C861 1.384 . S
N865 C857 1.427 . S
N865 C863 1.384 . S
H866 C872 0.930 . S
H867 C876 0.930 . S
H868 C881 0.929 . S
H869 C879 0.929 . S
H870 C874 0.929 . S
H871 C880 0.929 . S
C872 H866 0.930 . S
C872 C873 1.367 . S
C872 C880 1.378 . S
C873 C872 1.367 . S
C873 C881 1.433 . S
C874 H870 0.929 . S
C874 C876 1.378 . S
C874 C878 1.350 . S
C875 C878 1.463 1_655 S
C875 C880 1.350 . S
C875 N883 1.427 . S
C876 H867 0.930 . S
C876 C874 1.378 . S
C876 C877 1.367 . S
C877 C876 1.367 . S
C877 C879 1.433 . S
C878 C874 1.350 . S
C878 C875 1.463 1_455 S
C878 N882 1.427 . S
C879 H869 0.929 . S
C879 C877 1.433 . S
C879 N882 1.384 . S
C880 H871 0.929 . S
C880 C872 1.378 . S
C880 C875 1.350 . S
C881 H868 0.929 . S
C881 C873 1.433 . S
C881 N883 1.384 . S
N882 C878 1.427 . S
N882 C879 1.384 . S
N883 C875 1.427 . S
N883 C881 1.384 . S
H884 C890 0.930 . S
H885 C894 0.930 . S
H886 C899 0.929 . S
H887 C897 0.929 . S
H888 C892 0.929 . S
H889 C898 0.929 . S
C890 H884 0.930 . S
C890 C891 1.367 . S
C890 C898 1.378 . S
C891 C890 1.367 . S
C891 C899 1.433 . S
C892 H888 0.929 . S
C892 C894 1.378 . S
C892 C896 1.350 . S
C893 C896 1.463 . S
C893 C898 1.350 . S
C893 N901 1.427 . S
C894 H885 0.930 . S
C894 C892 1.378 . S
C894 C895 1.367 . S
C895 C894 1.367 . S
C895 C897 1.433 . S
C896 C892 1.350 . S
C896 C893 1.463 . S
C896 N900 1.427 . S
C897 H887 0.929 . S
C897 C895 1.433 . S
C897 N900 1.384 . S
C898 H889 0.929 . S
C898 C890 1.378 . S
C898 C893 1.350 . S
C899 H886 0.929 . S
C899 C891 1.433 . S
C899 N901 1.384 . S
N900 C896 1.427 . S
N900 C897 1.384 . S
N901 C893 1.427 . S
N901 C899 1.384 . S
H902 C908 0.930 . S
H903 C912 0.930 . S
H904 C917 0.929 . S
H905 C915 0.929 . S
H906 C910 0.929 . S
H907 C916 0.929 . S
C908 H902 0.930 . S
C908 C909 1.367 . S
C908 C916 1.378 . S
C909 C908 1.367 . S
C909 C917 1.433 . S
C910 H906 0.929 . S
C910 C912 1.378 . S
C910 C914 1.350 . S
C911 C914 1.463 . S
C911 C916 1.350 . S
C911 N919 1.427 . S
C912 H903 0.930 . S
C912 C910 1.378 . S
C912 C913 1.367 . S
C913 C912 1.367 . S
C913 C915 1.433 . S
C914 C910 1.350 . S
C914 C911 1.463 . S
C914 N918 1.427 . S
C915 H905 0.929 . S
C915 C913 1.433 . S
C915 N918 1.384 . S
C916 H907 0.929 . S
C916 C908 1.378 . S
C916 C911 1.350 . S
C917 H904 0.929 . S
C917 C909 1.433 . S
C917 N919 1.384 . S
N918 C914 1.427 . S
N918 C915 1.384 . S
N919 C911 1.427 . S
N919 C917 1.384 . S
H920 C926 0.930 . S
H921 C930 0.930 . S
H922 C935 0.929 . S
H923 C933 0.929 . S
H924 C928 0.929 . S
H925 C934 0.929 . S
C926 H920 0.930 . S
C926 C927 1.367 . S
C926 C934 1.378 . S
C927 C926 1.367 . S
C927 C935 1.433 . S
C928 H924 0.929 . S
C928 C930 1.378 . S
C928 C932 1.350 . S
C929 C932 1.463 1_655 S
C929 C934 1.350 . S
C929 N937 1.421 1_655 S
C930 H921 0.930 . S
C930 C928 1.378 . S
C930 C931 1.367 . S
C931 C930 1.367 . S
C931 C933 1.433 . S
C932 C928 1.350 . S
C932 C929 1.463 1_455 S
C932 N936 1.421 1_455 S
C933 H923 0.929 . S
C933 C931 1.433 . S
C933 N936 1.373 1_455 S
C934 H925 0.929 . S
C934 C926 1.378 . S
C934 C929 1.350 . S
C935 H922 0.929 . S
C935 C927 1.433 . S
C935 N937 1.373 1_655 S
N936 C932 1.421 1_655 S
N936 C933 1.373 1_655 S
N937 C929 1.421 1_455 S
N937 C935 1.373 1_455 S
H938 C944 0.930 . S
H939 C948 0.930 . S
H940 C953 0.929 . S
H941 C951 0.929 . S
H942 C946 0.929 . S
H943 C952 0.929 . S
C944 H938 0.930 . S
C944 C945 1.367 . S
C944 C952 1.378 . S
C945 C944 1.367 . S
C945 C953 1.433 . S
C946 H942 0.929 . S
C946 C948 1.378 . S
C946 C950 1.350 . S
C947 C950 1.463 . S
C947 C952 1.350 . S
C947 N955 1.427 . S
C948 H939 0.930 . S
C948 C946 1.378 . S
C948 C949 1.367 . S
C949 C948 1.367 . S
C949 C951 1.433 . S
C950 C946 1.350 . S
C950 C947 1.463 . S
C950 N954 1.427 . S
C951 H941 0.929 . S
C951 C949 1.433 . S
C951 N954 1.384 . S
C952 H943 0.929 . S
C952 C944 1.378 . S
C952 C947 1.350 . S
C953 H940 0.929 . S
C953 C945 1.433 . S
C953 N955 1.384 . S
N954 C950 1.427 . S
N954 C951 1.384 . S
N955 C947 1.427 . S
N955 C953 1.384 . S
H956 C962 0.930 . S
H957 C966 0.930 . S
H958 C971 0.929 . S
H959 C969 0.929 . S
H960 C964 0.929 . S
H961 C970 0.929 . S
C962 H956 0.930 . S
C962 C963 1.367 . S
C962 C970 1.378 . S
C963 C962 1.367 . S
C963 C971 1.433 . S
C964 H960 0.929 . S
C964 C966 1.378 . S
C964 C968 1.350 . S
C965 C968 1.463 . S
C965 C970 1.350 . S
C965 N973 1.427 . S
C966 H957 0.930 . S
C966 C964 1.378 . S
C966 C967 1.367 . S
C967 C966 1.367 . S
C967 C969 1.433 . S
C968 C964 1.350 . S
C968 C965 1.463 . S
C968 N972 1.427 . S
C969 H959 0.929 . S
C969 C967 1.433 . S
C969 N972 1.384 . S
C970 H961 0.929 . S
C970 C962 1.378 . S
C970 C965 1.350 . S
C971 H958 0.929 . S
C971 C963 1.433 . S
C971 N973 1.384 . S
N972 C968 1.427 . S
N972 C969 1.384 . S
N973 C965 1.427 . S
N973 C971 1.384 . S
H974 C980 0.930 . S
H975 C984 0.930 . S
H976 C989 0.929 . S
H977 C987 0.929 . S
H978 C982 0.929 . S
H979 C988 0.929 . S
C980 H974 0.930 . S
C980 C981 1.367 . S
C980 C988 1.378 . S
C981 C980 1.367 . S
C981 C989 1.433 . S
C982 H978 0.929 . S
C982 C984 1.378 . S
C982 C986 1.350 . S
C983 C986 1.463 1_655 S
C983 C988 1.350 . S
C983 N991 1.427 . S
C984 H975 0.930 . S
C984 C982 1.378 . S
C984 C985 1.367 . S
C985 C984 1.367 . S
C985 C987 1.433 . S
C986 C982 1.350 . S
C986 C983 1.463 1_455 S
C986 N990 1.427 . S
C987 H977 0.929 . S
C987 C985 1.433 . S
C987 N990 1.384 . S
C988 H979 0.929 . S
C988 C980 1.378 . S
C988 C983 1.350 . S
C989 H976 0.929 . S
C989 C981 1.433 . S
C989 N991 1.384 . S
N990 C986 1.427 . S
N990 C987 1.384 . S
N991 C983 1.427 . S
N991 C989 1.384 . S
H992 C998 0.930 . S
H993 C1002 0.930 . S
H994 C1007 0.929 . S
H995 C1005 0.929 . S
H996 C1000 0.929 . S
H997 C1006 0.929 . S
C998 H992 0.930 . S
C998 C999 1.367 1_554 S
C998 C1006 1.378 . S
C999 C998 1.367 1_556 S
C999 C1007 1.433 . S
C1000 H996 0.929 . S
C1000 C1002 1.378 . S
C1000 C1004 1.350 1_556 S
C1001 C1004 1.463 1_556 S
C1001 C1006 1.350 1_556 S
C1001 N1009 1.427 . S
C1002 H993 0.930 . S
C1002 C1000 1.378 . S
C1002 C1003 1.367 1_556 S
C1003 C1002 1.367 1_554 S
C1003 C1005 1.433 . S
C1004 C1000 1.350 1_554 S
C1004 C1001 1.463 1_554 S
C1004 N1008 1.427 . S
C1005 H995 0.929 . S
C1005 C1003 1.433 . S
C1005 N1008 1.384 . S
C1006 H997 0.929 . S
C1006 C998 1.378 . S
C1006 C1001 1.350 1_554 S
C1007 H994 0.929 . S
C1007 C999 1.433 . S
C1007 N1009 1.384 . S
N1008 C1004 1.427 . S
N1008 C1005 1.384 . S
N1009 C1001 1.427 . S
N1009 C1007 1.384 . S
H1010 C1016 0.930 . S
H1011 C1020 0.930 . S
H1012 C1025 0.929 . S
H1013 C1023 0.929 . S
H1014 C1018 0.929 . S
H1015 C1024 0.929 . S
C1016 H1010 0.930 . S
C1016 C1017 1.367 . S
C1016 C1024 1.378 . S
C1017 C1016 1.367 . S
C1017 C1025 1.433 . S
C1018 H1014 0.929 . S
C1018 C1020 1.378 . S
C1018 C1022 1.350 . S
C1019 C1022 1.463 1_545 S
C1019 C1024 1.350 . S
C1019 N1027 1.427 . S
C1020 H1011 0.930 . S
C1020 C1018 1.378 . S
C1020 C1021 1.367 . S
C1021 C1020 1.367 . S
C1021 C1023 1.433 . S
C1022 C1018 1.350 . S
C1022 C1019 1.463 1_565 S
C1022 N1026 1.427 . S
C1023 H1013 0.929 . S
C1023 C1021 1.433 . S
C1023 N1026 1.384 . S
C1024 H1015 0.929 . S
C1024 C1016 1.378 . S
C1024 C1019 1.350 . S
C1025 H1012 0.929 . S
C1025 C1017 1.433 . S
C1025 N1027 1.384 . S
N1026 C1022 1.427 . S
N1026 C1023 1.384 . S
N1027 C1019 1.427 . S
N1027 C1025 1.384 . S
H1028 C1034 0.930 . S
H1029 C1038 0.930 . S
H1030 C1043 0.929 . S
H1031 C1041 0.929 . S
H1032 C1036 0.929 . S
H1033 C1042 0.929 . S
C1034 H1028 0.930 . S
C1034 C1035 1.367 . S
C1034 C1042 1.378 . S
C1035 C1034 1.367 . S
C1035 C1043 1.433 . S
C1036 H1032 0.929 . S
C1036 C1038 1.378 . S
C1036 C1040 1.350 . S
C1037 C1040 1.463 . S
C1037 C1042 1.350 . S
C1037 N1045 1.427 . S
C1038 H1029 0.930 . S
C1038 C1036 1.378 . S
C1038 C1039 1.367 . S
C1039 C1038 1.367 . S
C1039 C1041 1.433 . S
C1040 C1036 1.350 . S
C1040 C1037 1.463 . S
C1040 N1044 1.427 . S
C1041 H1031 0.929 . S
C1041 C1039 1.433 . S
C1041 N1044 1.384 . S
C1042 H1033 0.929 . S
C1042 C1034 1.378 . S
C1042 C1037 1.350 . S
C1043 H1030 0.929 . S
C1043 C1035 1.433 . S
C1043 N1045 1.384 . S
N1044 C1040 1.427 . S
N1044 C1041 1.384 . S
N1045 C1037 1.427 . S
N1045 C1043 1.384 . S
H1046 C1052 0.930 . S
H1047 C1056 0.930 . S
H1048 C1061 0.929 . S
H1049 C1059 0.929 . S
H1050 C1054 0.929 . S
H1051 C1060 0.929 . S
C1052 H1046 0.930 . S
C1052 C1053 1.367 . S
C1052 C1060 1.378 . S
C1053 C1052 1.367 . S
C1053 C1061 1.433 . S
C1054 H1050 0.929 . S
C1054 C1056 1.378 . S
C1054 C1058 1.350 . S
C1055 C1058 1.463 1_545 S
C1055 C1060 1.350 . S
C1055 N1063 1.427 . S
C1056 H1047 0.930 . S
C1056 C1054 1.378 . S
C1056 C1057 1.367 . S
C1057 C1056 1.367 . S
C1057 C1059 1.433 . S
C1058 C1054 1.350 . S
C1058 C1055 1.463 1_565 S
C1058 N1062 1.427 . S
C1059 H1049 0.929 . S
C1059 C1057 1.433 . S
C1059 N1062 1.384 . S
C1060 H1051 0.929 . S
C1060 C1052 1.378 . S
C1060 C1055 1.350 . S
C1061 H1048 0.929 . S
C1061 C1053 1.433 . S
C1061 N1063 1.384 . S
N1062 C1058 1.427 . S
N1062 C1059 1.384 . S
N1063 C1055 1.427 . S
N1063 C1061 1.384 . S
H1064 C1070 0.930 . S
H1065 C1074 0.930 . S
H1066 C1079 0.929 . S
H1067 C1077 0.929 . S
H1068 C1072 0.929 . S
H1069 C1078 0.929 . S
C1070 H1064 0.930 . S
C1070 C1071 1.367 . S
C1070 C1078 1.378 . S
C1071 C1070 1.367 . S
C1071 C1079 1.433 . S
C1072 H1068 0.929 . S
C1072 C1074 1.378 . S
C1072 C1076 1.350 . S
C1073 C1076 1.463 1_554 S
C1073 C1078 1.350 . S
C1073 N1081 1.427 . S
C1074 H1065 0.930 . S
C1074 C1072 1.378 . S
C1074 C1075 1.367 . S
C1075 C1074 1.367 . S
C1075 C1077 1.433 . S
C1076 C1072 1.350 . S
C1076 C1073 1.463 1_556 S
C1076 N1080 1.427 . S
C1077 H1067 0.929 . S
C1077 C1075 1.433 . S
C1077 N1080 1.384 . S
C1078 H1069 0.929 . S
C1078 C1070 1.378 . S
C1078 C1073 1.350 . S
C1079 H1066 0.929 . S
C1079 C1071 1.433 . S
C1079 N1081 1.384 . S
N1080 C1076 1.427 . S
N1080 C1077 1.384 . S
N1081 C1073 1.427 . S
N1081 C1079 1.384 . S
H1082 C1088 0.930 . S
H1083 C1092 0.930 . S
H1084 C1097 0.929 . S
H1085 C1095 0.929 . S
H1086 C1090 0.929 . S
H1087 C1096 0.929 . S
C1088 H1082 0.930 . S
C1088 C1089 1.367 . S
C1088 C1096 1.378 . S
C1089 C1088 1.367 . S
C1089 C1097 1.433 . S
C1090 H1086 0.929 . S
C1090 C1092 1.378 . S
C1090 C1094 1.350 . S
C1091 C1094 1.463 1_565 S
C1091 C1096 1.350 . S
C1091 N1099 1.427 . S
C1092 H1083 0.930 . S
C1092 C1090 1.378 . S
C1092 C1093 1.367 . S
C1093 C1092 1.367 . S
C1093 C1095 1.433 . S
C1094 C1090 1.350 . S
C1094 C1091 1.463 1_545 S
C1094 N1098 1.427 . S
C1095 H1085 0.929 . S
C1095 C1093 1.433 . S
C1095 N1098 1.384 . S
C1096 H1087 0.929 . S
C1096 C1088 1.378 . S
C1096 C1091 1.350 . S
C1097 H1084 0.929 . S
C1097 C1089 1.433 . S
C1097 N1099 1.384 . S
N1098 C1094 1.427 . S
N1098 C1095 1.384 . S
N1099 C1091 1.427 . S
N1099 C1097 1.384 . S
H1100 C1106 0.930 . S
H1101 C1110 0.930 . S
H1102 C1115 0.929 . S
H1103 C1113 0.929 . S
H1104 C1108 0.929 . S
H1105 C1114 0.929 . S
C1106 H1100 0.930 . S
C1106 C1107 1.367 . S
C1106 C1114 1.378 . S
C1107 C1106 1.367 . S
C1107 C1115 1.433 . S
C1108 H1104 0.929 . S
C1108 C1110 1.378 . S
C1108 C1112 1.350 . S
C1109 C1112 1.463 . S
C1109 C1114 1.350 . S
C1109 N1117 1.427 . S
C1110 H1101 0.930 . S
C1110 C1108 1.378 . S
C1110 C1111 1.367 . S
C1111 C1110 1.367 . S
C1111 C1113 1.433 . S
C1112 C1108 1.350 . S
C1112 C1109 1.463 . S
C1112 N1116 1.427 . S
C1113 H1103 0.929 . S
C1113 C1111 1.433 . S
C1113 N1116 1.384 . S
C1114 H1105 0.929 . S
C1114 C1106 1.378 . S
C1114 C1109 1.350 . S
C1115 H1102 0.929 . S
C1115 C1107 1.433 . S
C1115 N1117 1.384 . S
N1116 C1112 1.427 . S
N1116 C1113 1.384 . S
N1117 C1109 1.427 . S
N1117 C1115 1.384 . S
H1118 C1124 0.930 . S
H1119 C1128 0.930 . S
H1120 C1133 0.929 . S
H1121 C1131 0.929 . S
H1122 C1126 0.929 . S
H1123 C1132 0.929 . S
C1124 H1118 0.930 . S
C1124 C1125 1.367 . S
C1124 C1132 1.378 . S
C1125 C1124 1.367 . S
C1125 C1133 1.433 . S
C1126 H1122 0.929 . S
C1126 C1128 1.378 . S
C1126 C1130 1.350 . S
C1127 C1130 1.463 1_545 S
C1127 C1132 1.350 . S
C1127 N1135 1.427 . S
C1128 H1119 0.930 . S
C1128 C1126 1.378 . S
C1128 C1129 1.367 . S
C1129 C1128 1.367 . S
C1129 C1131 1.433 . S
C1130 C1126 1.350 . S
C1130 C1127 1.463 1_565 S
C1130 N1134 1.427 . S
C1131 H1121 0.929 . S
C1131 C1129 1.433 . S
C1131 N1134 1.384 . S
C1132 H1123 0.929 . S
C1132 C1124 1.378 . S
C1132 C1127 1.350 . S
C1133 H1120 0.929 . S
C1133 C1125 1.433 . S
C1133 N1135 1.384 . S
N1134 C1130 1.427 . S
N1134 C1131 1.384 . S
N1135 C1127 1.427 . S
N1135 C1133 1.384 . S
H1136 C1142 0.930 . S
H1137 C1146 0.930 . S
H1138 C1151 0.929 . S
H1139 C1149 0.929 . S
H1140 C1144 0.929 . S
H1141 C1150 0.929 . S
C1142 H1136 0.930 . S
C1142 C1143 1.367 . S
C1142 C1150 1.378 . S
C1143 C1142 1.367 . S
C1143 C1151 1.433 . S
C1144 H1140 0.929 . S
C1144 C1146 1.378 . S
C1144 C1148 1.350 . S
C1145 C1148 1.463 . S
C1145 C1150 1.350 . S
C1145 N1153 1.427 . S
C1146 H1137 0.930 . S
C1146 C1144 1.378 . S
C1146 C1147 1.367 . S
C1147 C1146 1.367 . S
C1147 C1149 1.433 . S
C1148 C1144 1.350 . S
C1148 C1145 1.463 . S
C1148 N1152 1.427 . S
C1149 H1139 0.929 . S
C1149 C1147 1.433 . S
C1149 N1152 1.384 . S
C1150 H1141 0.929 . S
C1150 C1142 1.378 . S
C1150 C1145 1.350 . S
C1151 H1138 0.929 . S
C1151 C1143 1.433 . S
C1151 N1153 1.384 . S
N1152 C1148 1.427 . S
N1152 C1149 1.384 . S
N1153 C1145 1.427 . S
N1153 C1151 1.384 . S
H1154 C1160 0.930 . S
H1155 C1164 0.930 . S
H1156 C1169 0.929 . S
H1157 C1167 0.929 . S
H1158 C1162 0.929 . S
H1159 C1168 0.929 . S
C1160 H1154 0.930 . S
C1160 C1161 1.367 . S
C1160 C1168 1.378 . S
C1161 C1160 1.367 . S
C1161 C1169 1.433 . S
C1162 H1158 0.929 . S
C1162 C1164 1.378 . S
C1162 C1166 1.350 . S
C1163 C1166 1.463 . S
C1163 C1168 1.350 . S
C1163 N1171 1.427 . S
C1164 H1155 0.930 . S
C1164 C1162 1.378 . S
C1164 C1165 1.367 . S
C1165 C1164 1.367 . S
C1165 C1167 1.433 . S
C1166 C1162 1.350 . S
C1166 C1163 1.463 . S
C1166 N1170 1.427 . S
C1167 H1157 0.929 . S
C1167 C1165 1.433 . S
C1167 N1170 1.384 . S
C1168 H1159 0.929 . S
C1168 C1160 1.378 . S
C1168 C1163 1.350 . S
C1169 H1156 0.929 . S
C1169 C1161 1.433 . S
C1169 N1171 1.384 . S
N1170 C1166 1.427 . S
N1170 C1167 1.384 . S
N1171 C1163 1.427 . S
N1171 C1169 1.384 . S
H1172 C1178 0.930 . S
H1173 C1182 0.930 . S
H1174 C1187 0.947 . S
H1175 C1185 0.947 . S
H1176 C1180 0.929 . S
H1177 C1186 0.929 . S
C1178 H1172 0.930 . S
C1178 C1179 1.367 . S
C1178 C1186 1.378 . S
C1179 C1178 1.367 . S
C1179 C1187 1.433 . S
C1180 H1176 0.929 . S
C1180 C1182 1.378 . S
C1180 C1184 1.350 . S
C1181 C1184 1.463 1_554 S
C1181 C1186 1.350 . S
C1181 N1189 1.427 1_554 S
C1182 H1173 0.930 . S
C1182 C1180 1.378 . S
C1182 C1183 1.367 . S
C1183 C1182 1.367 . S
C1183 C1185 1.433 . S
C1184 C1180 1.350 . S
C1184 C1181 1.463 1_556 S
C1184 N1188 1.427 1_556 S
C1185 H1175 0.947 . S
C1185 C1183 1.433 . S
C1185 N1188 1.384 1_556 S
C1186 H1177 0.929 . S
C1186 C1178 1.378 . S
C1186 C1181 1.350 . S
C1187 H1174 0.947 . S
C1187 C1179 1.433 . S
C1187 N1189 1.384 1_554 S
N1188 C1184 1.427 1_554 S
N1188 C1185 1.384 1_554 S
N1189 C1181 1.427 1_556 S
N1189 C1187 1.384 1_556 S
H1190 C1196 0.930 . S
H1191 C1200 0.930 . S
H1192 C1205 0.929 . S
H1193 C1203 0.929 . S
H1194 C1198 0.929 . S
H1195 C1204 0.929 . S
C1196 H1190 0.930 . S
C1196 C1197 1.367 . S
C1196 C1204 1.378 . S
C1197 C1196 1.367 . S
C1197 C1205 1.433 . S
C1198 H1194 0.929 . S
C1198 C1200 1.378 . S
C1198 C1202 1.350 . S
C1199 C1202 1.463 . S
C1199 C1204 1.350 . S
C1199 N1207 1.427 . S
C1200 H1191 0.930 . S
C1200 C1198 1.378 . S
C1200 C1201 1.367 . S
C1201 C1200 1.367 . S
C1201 C1203 1.433 . S
C1202 C1198 1.350 . S
C1202 C1199 1.463 . S
C1202 N1206 1.427 . S
C1203 H1193 0.929 . S
C1203 C1201 1.433 . S
C1203 N1206 1.384 . S
C1204 H1195 0.929 . S
C1204 C1196 1.378 . S
C1204 C1199 1.350 . S
C1205 H1192 0.929 . S
C1205 C1197 1.433 . S
C1205 N1207 1.384 . S
N1206 C1202 1.427 . S
N1206 C1203 1.384 . S
N1207 C1199 1.427 . S
N1207 C1205 1.384 . S
H1208 C1214 0.930 . S
H1209 C1218 0.930 . S
H1210 C1223 0.929 . S
H1211 C1221 0.929 . S
H1212 C1216 0.929 . S
H1213 C1222 0.929 . S
C1214 H1208 0.930 . S
C1214 C1215 1.367 . S
C1214 C1222 1.378 . S
C1215 C1214 1.367 . S
C1215 C1223 1.433 . S
C1216 H1212 0.929 . S
C1216 C1218 1.378 . S
C1216 C1220 1.350 . S
C1217 C1220 1.463 . S
C1217 C1222 1.350 . S
C1217 N1225 1.427 . S
C1218 H1209 0.930 . S
C1218 C1216 1.378 . S
C1218 C1219 1.367 . S
C1219 C1218 1.367 . S
C1219 C1221 1.433 . S
C1220 C1216 1.350 . S
C1220 C1217 1.463 . S
C1220 N1224 1.427 . S
C1221 H1211 0.929 . S
C1221 C1219 1.433 . S
C1221 N1224 1.384 . S
C1222 H1213 0.929 . S
C1222 C1214 1.378 . S
C1222 C1217 1.350 . S
C1223 H1210 0.929 . S
C1223 C1215 1.433 . S
C1223 N1225 1.384 . S
N1224 C1220 1.427 . S
N1224 C1221 1.384 . S
N1225 C1217 1.427 . S
N1225 C1223 1.384 . S
H1226 C1232 0.930 . S
H1227 C1236 0.930 . S
H1228 C1241 0.929 . S
H1229 C1239 0.929 . S
H1230 C1234 0.929 . S
H1231 C1240 0.929 . S
C1232 H1226 0.930 . S
C1232 C1233 1.367 . S
C1232 C1240 1.378 . S
C1233 C1232 1.367 . S
C1233 C1241 1.433 . S
C1234 H1230 0.929 . S
C1234 C1236 1.378 . S
C1234 C1238 1.350 . S
C1235 C1238 1.463 . S
C1235 C1240 1.350 . S
C1235 N1243 1.427 . S
C1236 H1227 0.930 . S
C1236 C1234 1.378 . S
C1236 C1237 1.367 . S
C1237 C1236 1.367 . S
C1237 C1239 1.433 . S
C1238 C1234 1.350 . S
C1238 C1235 1.463 . S
C1238 N1242 1.427 . S
C1239 H1229 0.929 . S
C1239 C1237 1.433 . S
C1239 N1242 1.384 . S
C1240 H1231 0.929 . S
C1240 C1232 1.378 . S
C1240 C1235 1.350 . S
C1241 H1228 0.929 . S
C1241 C1233 1.433 . S
C1241 N1243 1.384 . S
N1242 C1238 1.427 . S
N1242 C1239 1.384 . S
N1243 C1235 1.427 . S
N1243 C1241 1.384 . S
H1244 C1250 0.930 . S
H1245 C1254 0.930 . S
H1246 C1259 0.929 . S
H1247 C1257 0.929 . S
H1248 C1252 0.929 . S
H1249 C1258 0.929 . S
C1250 H1244 0.930 . S
C1250 C1251 1.367 . S
C1250 C1258 1.378 . S
C1251 C1250 1.367 . S
C1251 C1259 1.433 . S
C1252 H1248 0.929 . S
C1252 C1254 1.378 . S
C1252 C1256 1.350 . S
C1253 C1256 1.463 1_556 S
C1253 C1258 1.350 . S
C1253 N1261 1.427 . S
C1254 H1245 0.930 . S
C1254 C1252 1.378 . S
C1254 C1255 1.367 . S
C1255 C1254 1.367 . S
C1255 C1257 1.433 . S
C1256 C1252 1.350 . S
C1256 C1253 1.463 1_554 S
C1256 N1260 1.427 . S
C1257 H1247 0.929 . S
C1257 C1255 1.433 . S
C1257 N1260 1.384 . S
C1258 H1249 0.929 . S
C1258 C1250 1.378 . S
C1258 C1253 1.350 . S
C1259 H1246 0.929 . S
C1259 C1251 1.433 . S
C1259 N1261 1.384 . S
N1260 C1256 1.427 . S
N1260 C1257 1.384 . S
N1261 C1253 1.427 . S
N1261 C1259 1.384 . S
H1262 C1268 0.930 . S
H1263 C1272 0.930 . S
H1264 C1277 0.929 . S
H1265 C1275 0.929 . S
H1266 C1270 0.929 . S
H1267 C1276 0.929 . S
C1268 H1262 0.930 . S
C1268 C1269 1.367 . S
C1268 C1276 1.378 . S
C1269 C1268 1.367 . S
C1269 C1277 1.433 . S
C1270 H1266 0.929 . S
C1270 C1272 1.378 . S
C1270 C1274 1.350 . S
C1271 C1274 1.463 . S
C1271 C1276 1.350 . S
C1271 N1279 1.427 . S
C1272 H1263 0.930 . S
C1272 C1270 1.378 . S
C1272 C1273 1.367 . S
C1273 C1272 1.367 . S
C1273 C1275 1.433 . S
C1274 C1270 1.350 . S
C1274 C1271 1.463 . S
C1274 N1278 1.427 . S
C1275 H1265 0.929 . S
C1275 C1273 1.433 . S
C1275 N1278 1.384 . S
C1276 H1267 0.929 . S
C1276 C1268 1.378 . S
C1276 C1271 1.350 . S
C1277 H1264 0.929 . S
C1277 C1269 1.433 . S
C1277 N1279 1.384 . S
N1278 C1274 1.427 . S
N1278 C1275 1.384 . S
N1279 C1271 1.427 . S
N1279 C1277 1.384 . S
H1280 C1286 0.930 . S
H1281 C1290 0.930 . S
H1282 C1295 0.929 . S
H1283 C1293 0.929 . S
H1284 C1288 0.929 . S
H1285 C1294 0.929 . S
C1286 H1280 0.930 . S
C1286 C1287 1.367 . S
C1286 C1294 1.378 . S
C1287 C1286 1.367 . S
C1287 C1295 1.433 . S
C1288 H1284 0.929 . S
C1288 C1290 1.378 . S
C1288 C1292 1.350 . S
C1289 C1292 1.463 . S
C1289 C1294 1.350 . S
C1289 N1297 1.427 . S
C1290 H1281 0.930 . S
C1290 C1288 1.378 . S
C1290 C1291 1.367 . S
C1291 C1290 1.367 . S
C1291 C1293 1.433 . S
C1292 C1288 1.350 . S
C1292 C1289 1.463 . S
C1292 N1296 1.427 . S
C1293 H1283 0.929 . S
C1293 C1291 1.433 . S
C1293 N1296 1.384 . S
C1294 H1285 0.929 . S
C1294 C1286 1.378 . S
C1294 C1289 1.350 . S
C1295 H1282 0.929 . S
C1295 C1287 1.433 . S
C1295 N1297 1.384 . S
N1296 C1292 1.427 . S
N1296 C1293 1.384 . S
N1297 C1289 1.427 . S
N1297 C1295 1.384 . S
H1298 C1304 0.930 . S
H1299 C1308 0.930 . S
H1300 C1313 0.929 . S
H1301 C1311 0.929 . S
H1302 C1306 0.929 . S
H1303 C1312 0.929 . S
C1304 H1298 0.930 . S
C1304 C1305 1.367 . S
C1304 C1312 1.378 . S
C1305 C1304 1.367 . S
C1305 C1313 1.433 . S
C1306 H1302 0.929 . S
C1306 C1308 1.378 . S
C1306 C1310 1.350 . S
C1307 C1310 1.463 . S
C1307 C1312 1.350 . S
C1307 N1315 1.427 . S
C1308 H1299 0.930 . S
C1308 C1306 1.378 . S
C1308 C1309 1.367 . S
C1309 C1308 1.367 . S
C1309 C1311 1.433 . S
C1310 C1306 1.350 . S
C1310 C1307 1.463 . S
C1310 N1314 1.427 . S
C1311 H1301 0.929 . S
C1311 C1309 1.433 . S
C1311 N1314 1.384 . S
C1312 H1303 0.929 . S
C1312 C1304 1.378 . S
C1312 C1307 1.350 . S
C1313 H1300 0.929 . S
C1313 C1305 1.433 . S
C1313 N1315 1.384 . S
N1314 C1310 1.427 . S
N1314 C1311 1.384 . S
N1315 C1307 1.427 . S
N1315 C1313 1.384 . S
H1316 C1322 0.930 . S
H1317 C1326 0.930 . S
H1318 C1331 0.929 . S
H1319 C1329 0.929 . S
H1320 C1324 0.929 . S
H1321 C1330 0.929 . S
C1322 H1316 0.930 . S
C1322 C1323 1.367 . S
C1322 C1330 1.378 . S
C1323 C1322 1.367 . S
C1323 C1331 1.433 . S
C1324 H1320 0.929 . S
C1324 C1326 1.378 . S
C1324 C1328 1.350 . S
C1325 C1328 1.463 . S
C1325 C1330 1.350 . S
C1325 N1333 1.427 . S
C1326 H1317 0.930 . S
C1326 C1324 1.378 . S
C1326 C1327 1.367 . S
C1327 C1326 1.367 . S
C1327 C1329 1.433 . S
C1328 C1324 1.350 . S
C1328 C1325 1.463 . S
C1328 N1332 1.427 . S
C1329 H1319 0.929 . S
C1329 C1327 1.433 . S
C1329 N1332 1.384 . S
C1330 H1321 0.929 . S
C1330 C1322 1.378 . S
C1330 C1325 1.350 . S
C1331 H1318 0.929 . S
C1331 C1323 1.433 . S
C1331 N1333 1.384 . S
N1332 C1328 1.427 . S
N1332 C1329 1.384 . S
N1333 C1325 1.427 . S
N1333 C1331 1.384 . S
H1334 C1340 0.930 . S
H1335 C1344 0.930 . S
H1336 C1349 0.929 . S
H1337 C1347 0.929 . S
H1338 C1342 0.929 . S
H1339 C1348 0.929 . S
C1340 H1334 0.930 . S
C1340 C1341 1.367 . S
C1340 C1348 1.378 . S
C1341 C1340 1.367 . S
C1341 C1349 1.433 . S
C1342 H1338 0.929 . S
C1342 C1344 1.378 . S
C1342 C1346 1.350 . S
C1343 C1346 1.463 . S
C1343 C1348 1.350 . S
C1343 N1351 1.427 . S
C1344 H1335 0.930 . S
C1344 C1342 1.378 . S
C1344 C1345 1.367 . S
C1345 C1344 1.367 . S
C1345 C1347 1.433 . S
C1346 C1342 1.350 . S
C1346 C1343 1.463 . S
C1346 N1350 1.427 . S
C1347 H1337 0.929 . S
C1347 C1345 1.433 . S
C1347 N1350 1.384 . S
C1348 H1339 0.929 . S
C1348 C1340 1.378 . S
C1348 C1343 1.350 . S
C1349 H1336 0.929 . S
C1349 C1341 1.433 . S
C1349 N1351 1.384 . S
N1350 C1346 1.427 . S
N1350 C1347 1.384 . S
N1351 C1343 1.427 . S
N1351 C1349 1.384 . S
H1352 C1358 0.930 . S
H1353 C1362 0.930 . S
H1354 C1367 0.929 . S
H1355 C1365 0.929 . S
H1356 C1360 0.929 . S
H1357 C1366 0.929 . S
C1358 H1352 0.930 . S
C1358 C1359 1.367 . S
C1358 C1366 1.378 . S
C1359 C1358 1.367 . S
C1359 C1367 1.433 . S
C1360 H1356 0.929 . S
C1360 C1362 1.378 . S
C1360 C1364 1.350 . S
C1361 C1364 1.463 . S
C1361 C1366 1.350 . S
C1361 N1369 1.427 . S
C1362 H1353 0.930 . S
C1362 C1360 1.378 . S
C1362 C1363 1.367 . S
C1363 C1362 1.367 . S
C1363 C1365 1.433 . S
C1364 C1360 1.350 . S
C1364 C1361 1.463 . S
C1364 N1368 1.427 . S
C1365 H1355 0.929 . S
C1365 C1363 1.433 . S
C1365 N1368 1.384 . S
C1366 H1357 0.929 . S
C1366 C1358 1.378 . S
C1366 C1361 1.350 . S
C1367 H1354 0.929 . S
C1367 C1359 1.433 . S
C1367 N1369 1.384 . S
N1368 C1364 1.427 . S
N1368 C1365 1.384 . S
N1369 C1361 1.427 . S
N1369 C1367 1.384 . S
H1370 C1376 0.930 . S
H1371 C1380 0.930 . S
H1372 C1385 0.929 . S
H1373 C1383 0.929 . S
H1374 C1378 0.929 . S
H1375 C1384 0.929 . S
C1376 H1370 0.930 . S
C1376 C1377 1.367 . S
C1376 C1384 1.378 . S
C1377 C1376 1.367 . S
C1377 C1385 1.433 . S
C1378 H1374 0.929 . S
C1378 C1380 1.378 . S
C1378 C1382 1.350 . S
C1379 C1382 1.463 . S
C1379 C1384 1.350 . S
C1379 N1387 1.427 . S
C1380 H1371 0.930 . S
C1380 C1378 1.378 . S
C1380 C1381 1.367 . S
C1381 C1380 1.367 . S
C1381 C1383 1.433 . S
C1382 C1378 1.350 . S
C1382 C1379 1.463 . S
C1382 N1386 1.427 . S
C1383 H1373 0.929 . S
C1383 C1381 1.433 . S
C1383 N1386 1.384 . S
C1384 H1375 0.929 . S
C1384 C1376 1.378 . S
C1384 C1379 1.350 . S
C1385 H1372 0.929 . S
C1385 C1377 1.433 . S
C1385 N1387 1.384 . S
N1386 C1382 1.427 . S
N1386 C1383 1.384 . S
N1387 C1379 1.427 . S
N1387 C1385 1.384 . S
H1388 C1394 0.930 . S
H1389 C1398 0.930 . S
H1390 C1403 0.929 . S
H1391 C1401 0.929 . S
H1392 C1396 0.929 . S
H1393 C1402 0.929 . S
C1394 H1388 0.930 . S
C1394 C1395 1.367 . S
C1394 C1402 1.378 . S
C1395 C1394 1.367 . S
C1395 C1403 1.433 . S
C1396 H1392 0.929 . S
C1396 C1398 1.378 . S
C1396 C1400 1.350 . S
C1397 C1400 1.463 . S
C1397 C1402 1.350 . S
C1397 N1405 1.427 . S
C1398 H1389 0.930 . S
C1398 C1396 1.378 . S
C1398 C1399 1.367 . S
C1399 C1398 1.367 . S
C1399 C1401 1.433 . S
C1400 C1396 1.350 . S
C1400 C1397 1.463 . S
C1400 N1404 1.427 . S
C1401 H1391 0.929 . S
C1401 C1399 1.433 . S
C1401 N1404 1.384 . S
C1402 H1393 0.929 . S
C1402 C1394 1.378 . S
C1402 C1397 1.350 . S
C1403 H1390 0.929 . S
C1403 C1395 1.433 . S
C1403 N1405 1.384 . S
N1404 C1400 1.427 . S
N1404 C1401 1.384 . S
N1405 C1397 1.427 . S
N1405 C1403 1.384 . S
H1406 C1412 0.930 . S
H1407 C1416 0.930 . S
H1408 C1421 0.929 . S
H1409 C1419 0.929 . S
H1410 C1414 0.929 . S
H1411 C1420 0.929 . S
C1412 H1406 0.930 . S
C1412 C1413 1.367 . S
C1412 C1420 1.378 . S
C1413 C1412 1.367 . S
C1413 C1421 1.433 . S
C1414 H1410 0.929 . S
C1414 C1416 1.378 . S
C1414 C1418 1.350 . S
C1415 C1418 1.463 . S
C1415 C1420 1.350 . S
C1415 N1423 1.427 . S
C1416 H1407 0.930 . S
C1416 C1414 1.378 . S
C1416 C1417 1.367 . S
C1417 C1416 1.367 . S
C1417 C1419 1.433 . S
C1418 C1414 1.350 . S
C1418 C1415 1.463 . S
C1418 N1422 1.427 . S
C1419 H1409 0.929 . S
C1419 C1417 1.433 . S
C1419 N1422 1.384 . S
C1420 H1411 0.929 . S
C1420 C1412 1.378 . S
C1420 C1415 1.350 . S
C1421 H1408 0.929 . S
C1421 C1413 1.433 . S
C1421 N1423 1.384 . S
N1422 C1418 1.427 . S
N1422 C1419 1.384 . S
N1423 C1415 1.427 . S
N1423 C1421 1.384 . S
H1424 C1430 0.930 . S
H1425 C1434 0.930 . S
H1426 C1439 0.929 . S
H1427 C1437 0.929 . S
H1428 C1432 0.929 . S
H1429 C1438 0.929 . S
C1430 H1424 0.930 . S
C1430 C1431 1.367 . S
C1430 C1438 1.378 . S
C1431 C1430 1.367 . S
C1431 C1439 1.433 . S
C1432 H1428 0.929 . S
C1432 C1434 1.378 . S
C1432 C1436 1.350 . S
C1433 C1436 1.463 . S
C1433 C1438 1.350 . S
C1433 N1441 1.427 . S
C1434 H1425 0.930 . S
C1434 C1432 1.378 . S
C1434 C1435 1.367 . S
C1435 C1434 1.367 . S
C1435 C1437 1.433 . S
C1436 C1432 1.350 . S
C1436 C1433 1.463 . S
C1436 N1440 1.427 . S
C1437 H1427 0.929 . S
C1437 C1435 1.433 . S
C1437 N1440 1.384 . S
C1438 H1429 0.929 . S
C1438 C1430 1.378 . S
C1438 C1433 1.350 . S
C1439 H1426 0.929 . S
C1439 C1431 1.433 . S
C1439 N1441 1.384 . S
N1440 C1436 1.427 . S
N1440 C1437 1.384 . S
N1441 C1433 1.427 . S
N1441 C1439 1.384 . S
H1442 C1448 0.930 . S
H1443 C1452 0.930 . S
H1444 C1457 0.929 . S
H1445 C1455 0.929 . S
H1446 C1450 0.929 . S
H1447 C1456 0.929 . S
C1448 H1442 0.930 . S
C1448 C1449 1.367 . S
C1448 C1456 1.378 . S
C1449 C1448 1.367 . S
C1449 C1457 1.433 . S
C1450 H1446 0.929 . S
C1450 C1452 1.378 . S
C1450 C1454 1.350 . S
C1451 C1454 1.463 . S
C1451 C1456 1.350 . S
C1451 N1459 1.427 . S
C1452 H1443 0.930 . S
C1452 C1450 1.378 . S
C1452 C1453 1.367 . S
C1453 C1452 1.367 . S
C1453 C1455 1.433 . S
C1454 C1450 1.350 . S
C1454 C1451 1.463 . S
C1454 N1458 1.427 . S
C1455 H1445 0.929 . S
C1455 C1453 1.433 . S
C1455 N1458 1.384 . S
C1456 H1447 0.929 . S
C1456 C1448 1.378 . S
C1456 C1451 1.350 . S
C1457 H1444 0.929 . S
C1457 C1449 1.433 . S
C1457 N1459 1.384 . S
N1458 C1454 1.427 . S
N1458 C1455 1.384 . S
N1459 C1451 1.427 . S
N1459 C1457 1.384 . S
H1460 C1466 0.930 . S
H1461 C1470 0.930 . S
H1462 C1475 0.929 . S
H1463 C1473 0.929 . S
H1464 C1468 0.929 . S
H1465 C1474 0.929 . S
C1466 H1460 0.930 . S
C1466 C1467 1.367 . S
C1466 C1474 1.378 . S
C1467 C1466 1.367 . S
C1467 C1475 1.433 . S
C1468 H1464 0.929 . S
C1468 C1470 1.378 . S
C1468 C1472 1.350 . S
C1469 C1472 1.463 . S
C1469 C1474 1.350 . S
C1469 N1477 1.427 . S
C1470 H1461 0.930 . S
C1470 C1468 1.378 . S
C1470 C1471 1.367 . S
C1471 C1470 1.367 . S
C1471 C1473 1.433 . S
C1472 C1468 1.350 . S
C1472 C1469 1.463 . S
C1472 N1476 1.427 . S
C1473 H1463 0.929 . S
C1473 C1471 1.433 . S
C1473 N1476 1.384 . S
C1474 H1465 0.929 . S
C1474 C1466 1.378 . S
C1474 C1469 1.350 . S
C1475 H1462 0.929 . S
C1475 C1467 1.433 . S
C1475 N1477 1.384 . S
N1476 C1472 1.427 . S
N1476 C1473 1.384 . S
N1477 C1469 1.427 . S
N1477 C1475 1.384 . S
H1478 C1484 0.930 . S
H1479 C1488 0.930 . S
H1480 C1493 0.929 . S
H1481 C1491 0.929 . S
H1482 C1486 0.929 . S
H1483 C1492 0.929 . S
C1484 H1478 0.930 . S
C1484 C1485 1.367 . S
C1484 C1492 1.378 . S
C1485 C1484 1.367 . S
C1485 C1493 1.433 . S
C1486 H1482 0.929 . S
C1486 C1488 1.378 . S
C1486 C1490 1.350 . S
C1487 C1490 1.463 . S
C1487 C1492 1.350 . S
C1487 N1495 1.427 . S
C1488 H1479 0.930 . S
C1488 C1486 1.378 . S
C1488 C1489 1.367 . S
C1489 C1488 1.367 . S
C1489 C1491 1.433 . S
C1490 C1486 1.350 . S
C1490 C1487 1.463 . S
C1490 N1494 1.427 . S
C1491 H1481 0.929 . S
C1491 C1489 1.433 . S
C1491 N1494 1.384 . S
C1492 H1483 0.929 . S
C1492 C1484 1.378 . S
C1492 C1487 1.350 . S
C1493 H1480 0.929 . S
C1493 C1485 1.433 . S
C1493 N1495 1.384 . S
N1494 C1490 1.427 . S
N1494 C1491 1.384 . S
N1495 C1487 1.427 . S
N1495 C1493 1.384 . S
H1496 C1502 0.930 . S
H1497 C1506 0.930 . S
H1498 C1511 0.929 . S
H1499 C1509 0.929 . S
H1500 C1504 0.929 . S
H1501 C1510 0.929 . S
C1502 H1496 0.930 . S
C1502 C1503 1.367 . S
C1502 C1510 1.378 . S
C1503 C1502 1.367 . S
C1503 C1511 1.433 . S
C1504 H1500 0.929 . S
C1504 C1506 1.378 . S
C1504 C1508 1.350 . S
C1505 C1508 1.463 . S
C1505 C1510 1.350 . S
C1505 N1513 1.427 . S
C1506 H1497 0.930 . S
C1506 C1504 1.378 . S
C1506 C1507 1.367 . S
C1507 C1506 1.367 . S
C1507 C1509 1.433 . S
C1508 C1504 1.350 . S
C1508 C1505 1.463 . S
C1508 N1512 1.427 . S
C1509 H1499 0.929 . S
C1509 C1507 1.433 . S
C1509 N1512 1.384 . S
C1510 H1501 0.929 . S
C1510 C1502 1.378 . S
C1510 C1505 1.350 . S
C1511 H1498 0.929 . S
C1511 C1503 1.433 . S
C1511 N1513 1.384 . S
N1512 C1508 1.427 . S
N1512 C1509 1.384 . S
N1513 C1505 1.427 . S
N1513 C1511 1.384 . S
H1514 C1520 0.930 . S
H1515 C1524 0.930 . S
H1516 C1529 0.929 . S
H1517 C1527 0.929 . S
H1518 C1522 0.929 . S
H1519 C1528 0.929 . S
C1520 H1514 0.930 . S
C1520 C1521 1.367 . S
C1520 C1528 1.378 . S
C1521 C1520 1.367 . S
C1521 C1529 1.433 . S
C1522 H1518 0.929 . S
C1522 C1524 1.378 . S
C1522 C1526 1.350 . S
C1523 C1526 1.463 . S
C1523 C1528 1.350 . S
C1523 N1531 1.427 . S
C1524 H1515 0.930 . S
C1524 C1522 1.378 . S
C1524 C1525 1.367 . S
C1525 C1524 1.367 . S
C1525 C1527 1.433 . S
C1526 C1522 1.350 . S
C1526 C1523 1.463 . S
C1526 N1530 1.427 . S
C1527 H1517 0.929 . S
C1527 C1525 1.433 . S
C1527 N1530 1.384 . S
C1528 H1519 0.929 . S
C1528 C1520 1.378 . S
C1528 C1523 1.350 . S
C1529 H1516 0.929 . S
C1529 C1521 1.433 . S
C1529 N1531 1.384 . S
N1530 C1526 1.427 . S
N1530 C1527 1.384 . S
N1531 C1523 1.427 . S
N1531 C1529 1.384 . S
H1532 C1538 0.930 . S
H1533 C1542 0.930 . S
H1534 C1547 0.929 . S
H1535 C1545 0.929 . S
H1536 C1540 0.929 . S
H1537 C1546 0.929 . S
C1538 H1532 0.930 . S
C1538 C1539 1.367 . S
C1538 C1546 1.378 . S
C1539 C1538 1.367 . S
C1539 C1547 1.433 . S
C1540 H1536 0.929 . S
C1540 C1542 1.378 . S
C1540 C1544 1.350 . S
C1541 C1544 1.463 . S
C1541 C1546 1.350 . S
C1541 N1549 1.427 . S
C1542 H1533 0.930 . S
C1542 C1540 1.378 . S
C1542 C1543 1.367 . S
C1543 C1542 1.367 . S
C1543 C1545 1.433 . S
C1544 C1540 1.350 . S
C1544 C1541 1.463 . S
C1544 N1548 1.427 . S
C1545 H1535 0.929 . S
C1545 C1543 1.433 . S
C1545 N1548 1.384 . S
C1546 H1537 0.929 . S
C1546 C1538 1.378 . S
C1546 C1541 1.350 . S
C1547 H1534 0.929 . S
C1547 C1539 1.433 . S
C1547 N1549 1.384 . S
N1548 C1544 1.427 . S
N1548 C1545 1.384 . S
N1549 C1541 1.427 . S
N1549 C1547 1.384 . S
H1550 C1556 0.930 . S
H1551 C1560 0.930 . S
H1552 C1565 0.929 . S
H1553 C1563 0.929 . S
H1554 C1558 0.929 . S
H1555 C1564 0.929 . S
C1556 H1550 0.930 . S
C1556 C1557 1.367 . S
C1556 C1564 1.378 . S
C1557 C1556 1.367 . S
C1557 C1565 1.433 . S
C1558 H1554 0.929 . S
C1558 C1560 1.378 . S
C1558 C1562 1.350 . S
C1559 C1562 1.463 . S
C1559 C1564 1.350 . S
C1559 N1567 1.427 . S
C1560 H1551 0.930 . S
C1560 C1558 1.378 . S
C1560 C1561 1.367 . S
C1561 C1560 1.367 . S
C1561 C1563 1.433 . S
C1562 C1558 1.350 . S
C1562 C1559 1.463 . S
C1562 N1566 1.427 . S
C1563 H1553 0.929 . S
C1563 C1561 1.433 . S
C1563 N1566 1.384 . S
C1564 H1555 0.929 . S
C1564 C1556 1.378 . S
C1564 C1559 1.350 . S
C1565 H1552 0.929 . S
C1565 C1557 1.433 . S
C1565 N1567 1.384 . S
N1566 C1562 1.427 . S
N1566 C1563 1.384 . S
N1567 C1559 1.427 . S
N1567 C1565 1.384 . S
C423 C112 1.636 . S
C427 C8 1.636 . S
C441 C333 1.633 . S
C445 C21 1.633 . S
C459 C138 1.636 . S
C463 C34 1.636 . S
C477 C359 1.634 . S
C481 C47 1.634 . S
C495 C164 1.644 . S
C499 C60 1.644 . S
C513 C73 1.635 . S
C517 C385 1.635 . S
C531 C86 1.636 . S
C535 C190 1.636 . S
C549 C99 1.637 . S
C553 C411 1.637 . S
C567 C229 1.639 . S
C571 C125 1.639 . S
C585 C255 1.641 . S
C589 C151 1.641 . S
C603 C177 1.639 . S
C607 C281 1.639 . S
C621 C203 1.637 . S
C625 C307 1.637 . S
C639 C216 1.644 . S
C643 C320 1.644 . S
C657 C346 1.644 . S
C661 C242 1.644 . S
C675 C268 1.634 . S
C679 C372 1.634 . S
C693 C398 1.634 . S
C697 C294 1.634 . S
C711 C239 1.176 . S
C715 C5 1.182 . S
C729 C252 1.189 . S
C733 C18 1.182 . S
C747 C31 1.191 . S
C751 C213 1.177 . S
C765 C44 1.190 . S
C769 C226 1.180 . S
C783 C291 1.176 . S
C787 C57 1.182 . S
C801 C70 1.174 . S
C805 C304 1.186 . S
C819 C265 1.177 . S
C823 C83 1.181 . S
C837 C278 1.175 . S
C841 C96 1.185 . S
C855 C109 1.191 . S
C859 C343 1.175 . S
C873 C356 1.176 . S
C877 C122 1.191 . S
C891 C135 1.182 . S
C895 C317 1.176 . S
C909 C148 1.180 . S
C913 C330 1.178 . S
C927 C161 1.182 . S
C931 C395 1.189 . S
C945 C174 1.183 . S
C949 C408 1.188 . S
C963 C369 1.191 . S
C967 C187 1.178 . S
C981 C382 1.191 . S
C985 C200 1.176 . S
C999 C78 1.267 . S
C1003 C0 1.267 . S
C1017 C91 1.253 . S
C1021 C13 1.253 . S
C1035 C52 1.259 . S
C1039 C26 1.259 . S
C1053 C39 1.254 . S
C1057 C65 1.254 . S
C1071 C182 1.258 . S
C1075 C104 1.258 . S
C1089 C195 1.267 . S
C1093 C117 1.267 . S
C1107 C156 1.253 . S
C1111 C130 1.253 . S
C1125 C169 1.252 . S
C1129 C143 1.252 . S
C1143 C286 1.251 . S
C1147 C208 1.250 . S
C1161 C299 1.250 . S
C1165 C221 1.250 . S
C1179 C234 1.255 . S
C1183 C260 1.254 . S
C1197 C247 1.251 . S
C1201 C273 1.252 . S
C1215 C390 1.265 . S
C1219 C312 1.265 . S
C1233 C403 1.266 . S
C1237 C325 1.266 . S
C1251 C338 1.257 . S
C1255 C364 1.257 . S
C1269 C351 1.267 . S
C1273 C377 1.267 . S
C1287 C10 1.487 . S
C1291 C283 1.486 . S
C1305 C296 1.487 . S
C1309 C23 1.487 . S
C1323 C309 1.487 . S
C1327 C36 1.485 . S
C1341 C49 1.487 . S
C1345 C270 1.487 . S
C1359 C257 1.486 . S
C1363 C62 1.488 . S
C1377 C75 1.485 . S
C1381 C218 1.487 . S
C1395 C231 1.486 . S
C1399 C88 1.488 . S
C1413 C101 1.485 . S
C1417 C244 1.487 . S
C1431 C387 1.486 . S
C1435 C114 1.486 . S
C1449 C400 1.487 . S
C1453 C127 1.487 . S
C1467 C140 1.488 . S
C1471 C413 1.485 . S
C1485 C374 1.487 . S
C1489 C153 1.485 . S
C1503 C361 1.487 . S
C1507 C166 1.487 . S
C1521 C179 1.488 . S
C1525 C322 1.486 . S
C1539 C335 1.486 . S
C1543 C192 1.487 . S
C1557 C205 1.487 . S
C1561 C348 1.487 . S
