# Generated by pormake.
# Topology snp, (6)-cn, num edge types: 1
# Building blocks:
#     Node 0, Type 0, BuildingBlock: BETDIP_clean_sbu_0, # of connection points: 6
#     Node 1, Type 0, BuildingBlock: BETDIP_clean_sbu_0, # of connection points: 6
#     Node 2, Type 0, BuildingBlock: BETDIP_clean_sbu_0, # of connection points: 6
#     Node 3, Type 0, BuildingBlock: BETDIP_clean_sbu_0, # of connection points: 6
#     Edge 4, Type (0, 0), BuildingBlock: TEMPAE_clean_linker_10, # of connection points: 2
#     Edge 5, Type (0, 0), BuildingBlock: TEMPAE_clean_linker_10, # of connection points: 2
#     Edge 6, Type (0, 0), BuildingBlock: TEMPAE_clean_linker_10, # of connection points: 2
#     Edge 7, Type (0, 0), BuildingBlock: TEMPAE_clean_linker_10, # of connection points: 2
#     Edge 8, Type (0, 0), BuildingBlock: TEMPAE_clean_linker_10, # of connection points: 2
#     Edge 9, Type (0, 0), BuildingBlock: TEMPAE_clean_linker_10, # of connection points: 2
#     Edge 10, Type (0, 0), BuildingBlock: TEMPAE_clean_linker_10, # of connection points: 2
#     Edge 11, Type (0, 0), BuildingBlock: TEMPAE_clean_linker_10, # of connection points: 2
#     Edge 12, Type (0, 0), BuildingBlock: TEMPAE_clean_linker_10, # of connection points: 2
#     Edge 13, Type (0, 0), BuildingBlock: TEMPAE_clean_linker_10, # of connection points: 2
#     Edge 14, Type (0, 0), BuildingBlock: TEMPAE_clean_linker_10, # of connection points: 2
#     Edge 15, Type (0, 0), BuildingBlock: TEMPAE_clean_linker_10, # of connection points: 2
# Relax obj value: 0.721
# Max RMSD: 0.181
# Mean RMSD: 0.170
data_MOF--net-snp--node1-BETDIP_clean_sbu_0--edge1-TEMPAE_clean_linker_10
_symmetry_space_group_name_H-M    P1
_symmetry_Int_Tables_number       1
_symmetry_cell_setting            triclinic
loop_
_symmetry_equiv_pos_as_xyz
'x, y, z'
_cell_length_a     25.685465
_cell_length_b     26.385629
_cell_length_c     27.284824
_cell_angle_alpha  92.853597
_cell_angle_beta   90.678076
_cell_angle_gamma 103.27232
loop_
_atom_site_label
_atom_site_type_symbol
_atom_site_fract_x
_atom_site_fract_y
_atom_site_fract_z
_atom_type_partial_charge
Tb0 Tb 0.26608 0.09102 0.25749 0.0
Tb1 Tb 0.2953 0.19545 0.22342 0.0
C2 C 0.27535 0.01207 0.30055 0.0
C3 C 0.30534 0.97099 0.29135 0.0
C4 C 0.27841 0.92033 0.27505 0.0
C5 C 0.30445 0.87924 0.2758 0.0
C6 C 0.35739 0.88789 0.29431 0.0
C7 C 0.3862 0.93978 0.30383 0.0
C8 C 0.36033 0.98074 0.3029 0.0
C9 C 0.18804 0.11829 0.21216 0.0
C10 C 0.241 0.18438 0.32915 0.0
C11 C 0.3139 0.28066 1.18188 0.0
C12 C 0.3555 0.30677 1.14946 0.0
C13 C 0.38866 0.27883 1.12502 0.0
C14 C 0.42365 0.3025 1.08968 0.0
C15 C 0.42588 0.35439 1.07839 0.0
C16 C 0.39612 0.38349 1.10632 0.0
C17 C 0.36098 0.35971 1.1415 0.0
C18 C 0.37691 0.16133 0.26124 0.0
C19 C 0.28316 0.09532 1.14436 0.0
O20 O 0.23514 0.01211 0.27054 0.0
O21 O 0.30401 0.05916 0.3122 0.0
O22 O 0.22139 0.14778 0.24099 0.0
O23 O 0.19367 0.07075 0.21287 0.0
O24 O 0.24621 0.13518 0.3247 0.0
O25 O 0.2529 0.21416 0.29087 0.0
O26 O 0.2817 0.23795 1.16352 0.0
O27 O 0.33007 0.27563 0.22642 0.0
O28 O 0.33979 0.13645 0.23305 0.0
O29 O 0.36982 0.20785 0.26776 0.0
O30 O 0.28482 0.14632 1.15185 0.0
O31 O 0.28515 0.06702 1.18283 0.0
H32 H 0.23629 0.9118 0.26484 0.0
H33 H 0.28145 0.84001 0.26663 0.0
H34 H 0.4271 0.9486 0.3178 0.0
H35 H 0.38273 0.01944 0.31483 0.0
H36 H 0.38543 0.23803 1.13142 0.0
H37 H 0.44548 0.27885 1.06837 0.0
H38 H 0.39723 0.42357 1.09847 0.0
H39 H 0.33627 0.38199 1.16081 0.0
Tb40 Tb 0.9863 0.31854 0.7301 0.0
Tb41 Tb 0.08545 0.28984 0.76755 0.0
C42 C 0.92468 0.37979 0.72872 0.0
C43 C 0.9254 0.42756 0.70349 0.0
C44 C 0.88205 0.45143 0.70621 0.0
C45 C 0.87905 0.49138 0.67514 0.0
C46 C 0.91905 0.50712 0.64049 0.0
C47 C 0.96575 0.48765 0.64333 0.0
C48 C 0.96834 0.4476 0.6738 0.0
C49 C 0.98593 0.22352 0.70937 0.0
C50 C 0.07445 0.30238 0.65089 0.0
C51 C 0.16759 0.25485 0.77929 0.0
C52 C 0.22526 0.27201 0.77126 0.0
C53 C 0.2544 0.2348 0.75805 0.0
C54 C 0.31031 0.24842 0.75958 0.0
C55 C 0.33769 0.29929 0.77525 0.0
C56 C 0.30813 0.33779 0.78243 0.0
C57 C 0.25229 0.32423 0.78047 0.0
C58 C 0.08552 0.39124 0.77282 0.0
C59 C 0.98506 0.26237 0.83711 0.0
O60 O 0.96324 0.38366 0.76157 0.0
O61 O 0.9179 0.33705 0.7002 0.0
O62 O 0.00583 0.24973 0.74796 0.0
O63 O 0.95595 0.24805 0.6852 0.0
O64 O 0.03103 0.32208 0.65871 0.0
O65 O 0.09952 0.28718 0.68825 0.0
O66 O 0.14772 0.28057 0.81387 0.0
O67 O 0.13704 0.24468 0.73985 0.0
O68 O 0.06754 0.35783 0.73916 0.0
O69 O 0.10795 0.36877 0.80539 0.0
O70 O 0.03335 0.25516 0.82672 0.0
O71 O 0.96055 0.28745 0.80533 0.0
H72 H 0.84906 0.43703 0.73 0.0
H73 H 0.84329 0.50653 0.67523 0.0
H74 H -0.00193 0.4987 0.61814 0.0
H75 H 0.00219 0.42965 0.6715 0.0
H76 H 0.23402 0.19448 0.74973 0.0
H77 H 0.33194 0.21808 0.7531 0.0
H78 H 0.32768 0.37731 0.79476 0.0
H79 H 0.2304 0.35382 0.78962 0.0
Tb80 Tb 0.85472 0.08221 0.26754 0.0
Tb81 Tb 0.78024 -0.00777 0.22827 0.0
C82 C 0.90204 0.17609 0.28467 0.0
C83 C 0.90744 0.22274 0.31697 0.0
C84 C 0.93301 0.2707 0.29892 0.0
C85 C 0.93446 0.31704 0.32627 0.0
C86 C 0.91051 0.31587 0.37221 0.0
C87 C 0.88544 0.26751 0.39051 0.0
C88 C 0.88369 0.22112 0.36291 0.0
C89 C 0.89827 0.00692 0.22789 0.0
C90 C 0.83704 -0.00456 0.33827 0.0
C91 C 0.72293 0.90272 1.20648 0.0
C92 C 0.68289 0.87741 1.16893 0.0
C93 C 0.67647 0.9021 1.12572 0.0
C94 C 0.64653 0.87374 1.0862 0.0
C95 C 0.62286 0.82033 1.0894 0.0
C96 C 0.62489 0.79743 1.13462 0.0
C97 C 0.65493 0.82582 1.17409 0.0
C98 C 0.73408 0.06885 0.25195 0.0
C99 C 0.82648 0.07825 1.15091 0.0
O100 O 0.85619 0.16086 0.26103 0.0
O101 O 0.92011 0.1371 0.30024 0.0
O102 O 0.85915 0.02268 0.21369 0.0
O103 O 0.91801 0.03758 0.26543 0.0
O104 O 0.84491 0.04663 0.3381 0.0
O105 O 0.81687 0.96729 0.29723 0.0
O106 O 0.77157 0.91947 1.19099 0.0
O107 O 0.70888 0.93618 0.23746 0.0
O108 O 0.76934 0.05525 0.2785 0.0
O109 O 0.72565 0.03994 0.2118 0.0
O110 O 0.79923 0.02878 1.15519 0.0
O111 O 0.84798 0.10548 1.19119 0.0
H112 H 0.95105 0.27234 0.26314 0.0
H113 H 0.9545 0.35369 0.31167 0.0
H114 H 0.86632 0.2657 0.42577 0.0
H115 H 0.86311 0.1843 0.37686 0.0
H116 H 0.6976 0.94212 1.12137 0.0
H117 H 0.64637 0.89238 1.05172 0.0
H118 H 0.6069 0.75645 1.13814 0.0
H119 H 0.65914 0.80645 1.20752 0.0
Tb120 Tb 0.03058 0.83229 0.74643 0.0
Tb121 Tb 0.13378 0.8755 0.69785 0.0
C122 C 0.95698 0.77132 0.7883 0.0
C123 C 0.89854 0.76204 0.78873 0.0
C124 C 0.86882 0.71746 0.80976 0.0
C125 C 0.81467 0.71309 0.81919 0.0
C126 C 0.79001 0.75359 0.80807 0.0
C127 C 0.8187 0.79583 0.78276 0.0
C128 C 0.87267 0.79995 0.77296 0.0
C129 C 0.03929 0.92808 0.72367 0.0
C130 C 0.13343 0.89543 0.81327 0.0
C131 C 0.2145 0.91518 0.6501 0.0
C132 C 0.2633 0.89842 0.63582 0.0
C133 C 0.31232 0.93511 0.63625 0.0
C134 C 0.35709 0.92181 0.61528 0.0
C135 C 0.3531 0.87187 0.59261 0.0
C136 C 0.30541 0.8337 0.59711 0.0
C137 C 0.26092 0.84683 0.61869 0.0
C138 C 0.12063 0.77731 0.72448 0.0
C139 C 0.02263 0.85897 0.63319 0.0
O140 O 0.98289 0.81655 0.80785 0.0
O141 O 0.97758 0.75887 0.74712 0.0
O142 O 0.07698 0.90779 0.73582 0.0
O143 O -0.0061 0.8962 0.73191 0.0
O144 O 0.08793 0.85818 0.81122 0.0
O145 O 0.15523 0.91325 0.77171 0.0
O146 O 0.16958 0.88824 0.62976 0.0
O147 O 0.20999 0.92619 0.69682 0.0
O148 O 0.08587 0.79814 0.70664 0.0
O149 O 0.16579 0.81069 0.72377 0.0
O150 O 0.07534 0.87842 0.63735 0.0
O151 O -0.00359 0.83397 0.6704 0.0
H152 H 0.88825 0.68771 0.82177 0.0
H153 H 0.79355 0.68052 0.83931 0.0
H154 H 0.80049 0.82759 0.77408 0.0
H155 H 0.895 0.83436 0.75613 0.0
H156 H 0.31523 0.97482 0.6503 0.0
H157 H 0.39356 0.95184 0.61318 0.0
H158 H 0.30067 0.79497 0.57992 0.0
H159 H 0.22377 0.81743 0.61909 0.0
C160 C 0.92357 -0.00097 1.14185 0.0
C161 C 0.93237 -0.01058 1.19122 0.0
C162 C 0.96697 0.02334 1.11446 0.0
C163 C 0.01834 0.03208 1.13613 0.0
C164 C 0.02622 0.00252 1.17656 0.0
C165 C 0.9826 -0.01633 1.20586 0.0
C166 C 0.95696 0.04845 1.06809 0.0
C167 C 0.08091 0.00061 1.19519 0.0
C168 C 0.15047 0.1143 1.12981 0.0
C169 C 0.15083 0.1339 1.17834 0.0
C170 C 0.10265 0.08694 1.10707 0.0
C171 C 0.05528 0.08379 1.13304 0.0
C172 C 0.05503 0.12063 1.17288 0.0
C173 C 0.10375 0.14383 1.19705 0.0
C174 C 0.10488 0.05445 1.06058 0.0
C175 C 0.00403 0.12654 1.19662 0.0
H176 H 0.88357 -0.0021 1.12825 0.0
H177 H -0.01093 0.972 0.24258 0.0
H178 H 0.95073 0.08794 1.07767 0.0
H179 H -0.0085 0.05268 1.04348 0.0
H180 H 0.92062 0.02534 1.04814 0.0
H181 H 0.07986 0.96254 0.21128 0.0
H182 H 0.1104 0.00614 1.16543 0.0
H183 H 0.09351 0.03134 0.22496 0.0
H184 H 0.1874 0.11122 1.11369 0.0
H185 H 0.10387 0.16203 0.23359 0.0
H186 H 0.06864 0.02264 1.0539 0.0
H187 H 0.14026 0.03715 1.06192 0.0
H188 H 0.10941 0.08001 1.02907 0.0
H189 H 0.00758 0.16766 1.21006 0.0
H190 H -0.00268 0.10232 0.22898 0.0
H191 H 0.96905 0.11473 1.17092 0.0
C192 C 0.09031 -0.01097 0.66441 0.0
C193 C 0.04271 0.96801 0.68818 0.0
C194 C 0.09231 0.03017 0.63349 0.0
C195 C 0.04807 0.05332 0.63198 0.0
C196 C -0.00261 0.02456 0.6465 0.0
C197 C -0.0043 0.98245 0.67531 0.0
C198 C 0.14375 0.05345 0.60879 0.0
C199 C 0.9466 0.04375 0.64166 0.0
C200 C 0.04352 0.16238 0.71384 0.0
C201 C 0.01119 0.18551 0.68548 0.0
C202 C 0.06999 0.12703 0.69247 0.0
C203 C 0.05805 0.10996 0.64248 0.0
C204 C 0.03259 0.1393 0.61222 0.0
C205 C 0.00833 0.17659 0.63435 0.0
C206 C 0.10466 0.10377 0.72575 0.0
C207 C 0.02546 0.1276 0.55767 0.0
H208 H 0.126 0.97493 0.67117 0.0
H209 H 0.95797 0.96342 0.69081 0.0
H210 H 0.15338 0.02368 0.58242 0.0
H211 H 0.14104 0.08831 0.5886 0.0
H212 H 0.17731 0.06394 0.63617 0.0
H213 H 0.9452 0.0728 0.67218 0.0
H214 H 0.94438 0.0623 0.6066 0.0
H215 H 0.91051 0.01136 0.64372 0.0
H216 H 0.04772 0.17149 0.75313 0.0
H217 H 0.98602 0.19737 0.61186 0.0
H218 H 0.14057 0.09743 0.70663 0.0
H219 H 0.0813 0.06619 0.73838 0.0
H220 H 0.11862 0.12963 0.75899 0.0
H221 H 0.04162 0.09379 0.54491 0.0
H222 H 0.04623 0.1624 0.53873 0.0
H223 H 0.98258 0.12065 0.54669 0.0
C224 C 0.65979 0.07785 0.30904 0.0
C225 C 0.69094 0.0944 0.26839 0.0
C226 C 0.60885 0.08928 0.31486 0.0
C227 C 0.5886 0.11767 0.27911 0.0
C228 C 0.62159 0.13692 0.23973 0.0
C229 C 0.67194 0.12492 0.23487 0.0
C230 C 0.57543 0.06818 0.35758 0.0
C231 C 0.60235 0.16744 1.20073 0.0
C232 C 0.43898 0.10029 0.25031 0.0
C233 C 0.42906 0.14706 0.27038 0.0
C234 C 0.48986 0.08893 0.25516 0.0
C235 C 0.5322 0.12523 0.28062 0.0
C236 C 0.52152 0.17137 0.30287 0.0
C237 C 0.47032 0.18173 0.29741 0.0
C238 C 0.49884 0.03894 0.23124 0.0
C239 C 0.56483 0.21089 0.3309 0.0
H240 H 0.67342 0.05292 0.33429 0.0
H241 H 0.69535 0.13686 1.20285 0.0
H242 H 0.55704 0.09851 0.37502 0.0
H243 H 0.54237 0.03524 0.34424 0.0
H244 H 0.59935 0.05394 0.38579 0.0
H245 H 0.63396 0.18236 1.17418 0.0
H246 H 0.56763 0.14216 1.18019 0.0
H247 H 0.58866 0.20098 0.21782 0.0
H248 H 0.4073 0.0731 0.22965 0.0
H249 H 0.46297 0.2178 0.31342 0.0
H250 H 0.51701 0.01748 0.25809 0.0
H251 H 0.52727 0.0481 1.20086 0.0
H252 H 0.4611 0.01299 0.2162 0.0
H253 H 0.58507 0.19144 0.35799 0.0
H254 H 0.54892 0.24182 0.35051 0.0
H255 H 0.59559 0.2296 0.30513 0.0
C256 C 0.08914 0.48169 0.80925 0.0
C257 C 0.09227 0.44833 0.76834 0.0
C258 C 0.09204 0.53529 0.80405 0.0
C259 C 0.10001 0.55636 0.75709 0.0
C260 C 0.10388 0.52269 0.71588 0.0
C261 C 0.09967 0.46924 0.72198 0.0
C262 C 0.08489 0.56913 0.84849 0.0
C263 C 0.11242 0.54314 0.66521 0.0
C264 C 0.06496 0.68526 0.7272 0.0
C265 C 0.1144 0.72101 0.7339 0.0
C266 C 0.05904 0.63215 0.73637 0.0
C267 C 0.1043 0.61348 0.75076 0.0
C268 C 0.15463 0.64939 0.75668 0.0
C269 C 0.15888 0.70259 0.74886 0.0
C270 C 0.00404 0.5968 0.72903 0.0
C271 C 0.20442 0.63139 0.77005 0.0
H272 H 0.08275 0.46555 0.84504 0.0
H273 H 0.10233 0.44363 0.69023 0.0
H274 H 0.12073 0.60161 0.85463 0.0
H275 H 0.05025 0.58675 0.84203 0.0
H276 H 0.07807 0.54689 0.88225 0.0
H277 H 0.11302 0.51174 0.63669 0.0
H278 H 0.0802 0.56281 0.65546 0.0
H279 H 0.15091 0.57267 0.66477 0.0
H280 H 0.03072 0.69841 0.71406 0.0
H281 H 0.19748 0.72975 0.75368 0.0
H282 H 0.00097 0.55697 0.74168 0.0
H283 H -0.00715 0.59408 0.68944 0.0
H284 H 0.97426 0.61429 0.74872 0.0
H285 H 0.19928 0.61226 0.80551 0.0
H286 H 0.24057 0.66402 0.77308 0.0
H287 H 0.21124 0.602 0.7418 0.0
C288 C 0.15099 0.28944 0.59666 0.0
C289 C 0.09714 0.29348 0.6 0.0
C290 C 0.17319 0.27387 0.55242 0.0
C291 C 0.14138 0.26044 0.50864 0.0
C292 C 0.08706 0.26522 0.5112 0.0
C293 C 0.06591 0.28187 0.55618 0.0
C294 C 0.23097 0.27029 0.55308 0.0
C295 C 0.05025 0.25008 0.46683 0.0
C296 C 0.21285 0.25674 0.38279 0.0
C297 C 0.21551 0.20406 0.37497 0.0
C298 C 0.18877 0.27512 0.42509 0.0
C299 C 0.16516 0.24044 0.46142 0.0
C300 C 0.16788 0.18716 0.45358 0.0
C301 C 0.19244 0.17 0.41115 0.0
C302 C 0.18991 0.33246 0.43151 0.0
C303 C 0.14387 0.14684 0.48916 0.0
H304 H 0.17631 0.29779 0.62949 0.0
H305 H 0.02416 0.2834 0.55748 0.0
H306 H 0.23314 0.22893 0.54704 0.0
H307 H 0.25251 0.29216 0.52282 0.0
H308 H 0.25195 0.28585 0.5884 0.0
H309 H 0.00926 0.25527 0.47404 0.0
H310 H 0.06655 0.27381 0.4357 0.0
H311 H 0.04777 0.20863 0.45526 0.0
H312 H 0.23026 0.28414 0.35589 0.0
H313 H 0.19313 0.12914 0.40628 0.0
H314 H 0.21178 0.34887 0.46616 0.0
H315 H 0.1486 0.33818 0.4345 0.0
H316 H 0.20948 0.35476 0.4006 0.0
H317 H 0.16612 0.11539 0.48978 0.0
H318 H 0.10223 0.12861 0.47667 0.0
H319 H 0.14311 0.16369 0.5271 0.0
C320 C 0.98351 0.20635 0.91145 0.0
C321 C 0.95692 0.23539 0.88169 0.0
C322 C 0.95931 0.17955 0.95244 0.0
C323 C 0.9061 0.18059 0.96562 0.0
C324 C 0.87874 0.20968 0.93574 0.0
C325 C 0.90405 0.2363 0.89464 0.0
C326 C -0.00888 0.14947 0.98154 0.0
C327 C 0.82239 0.21296 0.94743 0.0
C328 C 0.83195 0.07679 1.05534 0.0
C329 C 0.84116 0.10374 1.10178 0.0
C330 C 0.85148 0.10105 1.01108 0.0
C331 C 0.88104 0.15416 1.01206 0.0
C332 C 0.88903 0.18162 1.05871 0.0
C333 C 0.86944 0.15657 1.10203 0.0
C334 C 0.84191 0.06906 0.96319 0.0
C335 C 0.91994 0.23772 1.06329 0.0
H336 H 0.024 0.20426 0.90267 0.0
H337 H 0.8822 0.25789 0.87262 0.0
H338 H -0.0084 0.16128 1.02117 0.0
H339 H 0.97181 0.10732 0.9772 0.0
H340 H 0.0331 0.15519 0.9694 0.0
H341 H 0.8054 0.23527 0.92041 0.0
H342 H 0.79628 0.17316 0.94809 0.0
H343 H 0.82172 0.23203 0.98452 0.0
H344 H 0.81095 0.03611 1.05361 0.0
H345 H 0.87747 0.17885 1.13683 0.0
H346 H 0.88056 0.06265 0.94959 0.0
H347 H 0.82524 0.09027 0.93505 0.0
H348 H 0.81415 0.03049 0.967 0.0
H349 H 0.96186 0.24029 1.0522 0.0
H350 H 0.92046 0.255 1.10131 0.0
H351 H 0.90232 0.26149 1.03825 0.0
C352 C 0.936 0.86199 0.58403 0.0
C353 C -0.00756 0.87333 0.58844 0.0
C354 C 0.90849 0.87919 0.54426 0.0
C355 C 0.93713 0.90899 0.50668 0.0
C356 C -0.00594 0.9204 0.51101 0.0
C357 C 0.02044 0.90289 0.55107 0.0
C358 C 0.84821 0.86621 0.54307 0.0
C359 C 0.02765 0.9522 0.47342 0.0
C360 C 0.86875 0.92052 0.3791 0.0
C361 C 0.85833 0.97092 0.38233 0.0
C362 C 0.89343 0.89997 0.41864 0.0
C363 C 0.9082 0.92951 0.46402 0.0
C364 C 0.89665 0.97986 0.46767 0.0
C365 C 0.87275 -0.00025 0.42747 0.0
C366 C 0.90498 0.84668 0.41131 0.0
C367 C 0.90984 0.01327 0.51448 0.0
H368 H 0.91295 0.84026 0.6123 0.0
H369 H 0.06376 0.91328 0.55335 0.0
H370 H 0.83371 0.90273 0.54601 0.0
H371 H 0.83274 0.84569 0.50753 0.0
H372 H 0.8312 0.84137 0.57334 0.0
H373 H 0.0711 0.95501 0.47943 0.0
H374 H 0.01579 0.93477 0.43594 0.0
H375 H 0.02073 -0.00777 0.475 0.0
H376 H 0.85897 0.89738 0.34491 0.0
H377 H 0.86558 0.03862 0.43148 0.0
H378 H 0.88601 0.82128 0.44044 0.0
H379 H 0.94876 0.84996 0.41447 0.0
H380 H 0.89029 0.8276 0.37495 0.0
H381 H 0.88742 -0.00712 0.54505 0.0
H382 H 0.89977 0.05183 0.51199 0.0
H383 H 0.95306 0.01947 0.52379 0.0
C384 C 0.21096 0.95307 0.8651 0.0
C385 C 0.15845 0.92148 0.86229 0.0
C386 C 0.23446 0.97974 0.90962 0.0
C387 C 0.20479 0.97728 0.95369 0.0
C388 C 0.15177 0.94462 0.95108 0.0
C389 C 0.12985 0.91746 0.90619 0.0
C390 C 0.29166 0.01059 0.90875 0.0
C391 C 0.11583 0.93871 0.99468 0.0
C392 C 0.26612 0.01274 1.08644 0.0
C393 C 0.27064 0.06706 1.0932 0.0
C394 C 0.24733 -0.0159 1.0414 0.0
C395 C 0.22902 0.00881 1.00142 0.0
C396 C 0.2349 0.064 1.00753 0.0
C397 C 0.25698 0.09215 1.052 0.0
C398 C 0.24668 0.92675 1.03705 0.0
C399 C 0.21627 0.09419 0.96801 0.0
H400 H 0.23436 0.95695 0.83213 0.0
H401 H 0.08925 0.8939 0.9054 0.0
H402 H 0.29213 0.05132 0.90017 0.0
H403 H 0.31277 0.01121 0.94458 0.0
H404 H 0.3143 -0.0056 0.87984 0.0
H405 H 0.0951 0.89713 0.99742 0.0
H406 H 0.1371 0.95279 1.02995 0.0
H407 H 0.0844 0.96062 0.98889 0.0
H408 H 0.27687 -0.00803 1.11684 0.0
H409 H 0.2603 0.13388 1.05544 0.0
H410 H 0.26073 0.91597 1.00049 0.0
H411 H 0.20521 0.90359 1.04094 0.0
H412 H 0.27227 0.91569 1.06587 0.0
H413 H 0.25072 0.11101 0.94513 0.0
H414 H 0.20104 0.12724 0.98437 0.0
H415 H 0.18427 0.0695 0.94392 0.0
C416 C 0.58406 0.80373 1.00371 0.0
C417 C 0.60987 0.78719 1.04344 0.0
C418 C 0.59165 0.78595 0.95553 0.0
C419 C 0.62765 0.75324 0.94754 0.0
C420 C 0.64558 0.72939 0.98782 0.0
C421 C 0.63589 0.74636 1.03549 0.0
C422 C 0.56741 0.80786 0.91322 0.0
C423 C 0.68304 0.69312 0.98126 0.0
C424 C 0.69512 0.71758 0.83238 0.0
C425 C 0.74118 0.75826 0.83411 0.0
C426 C 0.654 0.71782 0.86599 0.0
C427 C 0.66068 0.75855 0.90299 0.0
C428 C 0.70571 0.80134 0.90247 0.0
C429 C 0.74479 0.80093 0.86747 0.0
C430 C 0.60432 0.67412 0.86266 0.0
C431 C 0.7156 0.84544 0.94162 0.0
H432 H 0.56231 0.83408 1.00983 0.0
H433 H 0.65526 0.73271 1.06606 0.0
H434 H 0.55953 0.77942 0.8811 0.0
H435 H 0.52946 0.81843 0.92379 0.0
H436 H 0.59557 0.84367 0.90197 0.0
H437 H 0.68709 0.6725 1.01513 0.0
H438 H 0.66891 0.6636 0.95081 0.0
H439 H 0.7233 0.716 0.97195 0.0
H440 H 0.69223 0.68491 0.80597 0.0
H441 H 0.7807 0.83213 0.869 0.0
H442 H 0.57031 0.68957 0.84939 0.0
H443 H 0.59354 0.65857 0.89912 0.0
H444 H 0.60889 0.64156 0.83689 0.0
H445 H 0.68203 0.86534 0.94186 0.0
H446 H 0.75313 0.8751 0.93601 0.0
H447 H 0.71829 0.82987 0.97839 0.0
C448 C 0.3396 0.81367 0.34851 0.0
C449 C 0.37602 0.84568 0.31876 0.0
C450 C 0.35659 0.79941 0.39362 0.0
C451 C 0.41126 0.81666 0.40798 0.0
C452 C 0.44903 0.83397 0.37163 0.0
C453 C 0.43096 0.84936 0.3271 0.0
C454 C 0.31461 0.77503 0.4291 0.0
C455 C 0.50824 0.844 0.38244 0.0
C456 C 0.40479 0.90157 0.51935 0.0
C457 C 0.39111 0.86366 0.554 0.0
C458 C 0.42013 0.88861 0.47232 0.0
C459 C 0.42308 0.83635 0.46 0.0
C460 C 0.42022 0.80112 0.49791 0.0
C461 C 0.403 0.81478 0.54448 0.0
C462 C 0.42442 0.92916 0.43436 0.0
C463 C 0.43024 0.74743 0.48869 0.0
H464 H 0.29698 0.80731 0.34125 0.0
H465 H 0.45984 0.87055 0.30242 0.0
H466 H 0.32616 0.74176 0.44594 0.0
H467 H 0.31099 0.80414 0.45892 0.0
H468 H 0.27466 0.76056 0.4109 0.0
H469 H 0.52837 0.82932 0.35077 0.0
H470 H 0.52547 0.88657 0.38738 0.0
H471 H 0.51706 0.82489 0.41592 0.0
H472 H 0.39674 0.93978 0.52651 0.0
H473 H 0.39483 0.78584 0.57193 0.0
H474 H 0.38959 0.91804 0.40846 0.0
H475 H 0.46142 0.93208 0.41328 0.0
H476 H 0.42496 0.96855 0.45107 0.0
H477 H 0.4448 0.74125 0.45122 0.0
H478 H 0.39307 0.71747 0.49455 0.0
H479 H 0.46051 0.74143 0.51585 0.0
C480 C 0.42739 0.35784 0.79821 0.0
C481 C 0.39191 0.30863 0.79843 0.0
C482 C 0.46335 0.37576 0.83793 0.0
C483 C 0.46107 0.34471 0.87896 0.0
C484 C 0.43454 0.29127 0.87377 0.0
C485 C 0.40062 0.27366 0.83298 0.0
C486 C 0.49783 0.43033 0.83882 0.0
C487 C 0.43404 0.2549 0.91494 0.0
C488 C 0.49546 0.36258 1.01329 0.0
C489 C 0.44733 0.37249 1.03057 0.0
C490 C 0.50592 0.36253 0.96281 0.0
C491 C 0.46604 0.36982 0.92936 0.0
C492 C 0.42125 0.38737 0.94756 0.0
C493 C 0.41307 0.38923 0.99805 0.0
C494 C 0.5574 0.35012 0.94572 0.0
C495 C 0.37752 0.39694 0.91404 0.0
H496 H 0.42299 0.38431 0.77013 0.0
H497 H 0.37494 0.23481 0.83264 0.0
H498 H 0.52934 0.43706 0.8682 0.0
H499 H 0.51709 0.43755 0.80281 0.0
H500 H 0.47269 0.45902 0.84467 0.0
H501 H 0.41363 0.21401 0.90385 0.0
H502 H 0.47551 0.25545 0.92693 0.0
H503 H 0.41304 0.2678 0.94691 0.0
H504 H 0.52309 0.35133 1.03864 0.0
H505 H 0.37612 0.39757 1.01128 0.0
H506 H 0.56294 0.35408 0.9057 0.0
H507 H 0.55848 0.3099 0.95503 0.0
H508 H 0.59168 0.37675 0.96572 0.0
H509 H 0.39451 0.42618 0.88735 0.0
H510 H 0.34622 0.41143 0.9345 0.0
H511 H 0.35783 0.36021 0.89319 0.0
C512 C 0.92697 0.36779 0.45122 0.0
C513 C 0.91237 0.36479 0.40161 0.0
C514 C 0.9261 0.41209 0.481 0.0
C515 C 0.91005 0.45486 0.46061 0.0
C516 C 0.89749 0.45301 0.40982 0.0
C517 C 0.8991 0.4079 0.38074 0.0
C518 C 0.94162 0.41223 0.53459 0.0
C519 C 0.88276 0.49831 0.38588 0.0
C520 C 0.85649 0.5061 0.5706 0.0
C521 C 0.9063 0.52879 0.59348 0.0
C522 C 0.85399 0.48994 0.52078 0.0
C523 C 0.90201 0.49812 0.49448 0.0
C524 C 0.94723 0.53532 0.51359 0.0
C525 C 0.94845 0.55163 0.56345 0.0
C526 C 0.80306 0.45457 0.49996 0.0
C527 C -0.00247 0.54961 0.48463 0.0
H528 H 0.93883 0.33504 0.46689 0.0
H529 H 0.88851 0.40579 0.34199 0.0
H530 H 0.97646 0.44501 0.54349 0.0
H531 H 0.90799 0.41736 0.55795 0.0
H532 H 0.9527 0.37559 0.54424 0.0
H533 H 0.85837 0.48527 0.35174 0.0
H534 H 0.86049 0.51975 0.41082 0.0
H535 H 0.92002 0.52605 0.37586 0.0
H536 H 0.82183 0.49174 0.59247 0.0
H537 H 0.98584 0.57358 0.58028 0.0
H538 H 0.80445 0.41339 0.50497 0.0
H539 H 0.79843 0.45944 0.46013 0.0
H540 H 0.76746 0.4623 0.51904 0.0
H541 H 0.02129 0.51981 0.48896 0.0
H542 H 0.02255 0.58808 0.49799 0.0
H543 H -0.0121 0.55067 0.44499 0.0
loop_
_geom_bond_atom_site_label_1
_geom_bond_atom_site_label_2
_geom_bond_distance
_geom_bond_site_symmetry_2
_ccdc_geom_bond_type
Tb0 C2 2.809 . S
Tb0 O20 2.484 . S
Tb0 O21 2.440 . S
Tb0 O22 2.658 1_554 S
Tb0 O23 2.409 . S
Tb0 O24 2.378 . S
Tb0 O28 2.325 . S
Tb0 O31 2.341 1_554 S
Tb1 C11 2.809 . S
Tb1 O22 2.325 . S
Tb1 O25 2.341 1_556 S
Tb1 O26 2.484 . S
Tb1 O27 2.440 . S
Tb1 O28 2.658 1_556 S
Tb1 O29 2.409 . S
Tb1 O30 2.378 . S
C2 Tb0 2.809 . S
C2 C3 1.514 . S
C2 O20 1.248 . S
C2 O21 1.266 . S
C3 C2 1.514 . S
C3 C4 1.359 . S
C3 C8 1.348 . S
C4 C3 1.359 . S
C4 C5 1.380 . S
C4 H32 0.929 . S
C5 C4 1.380 . S
C5 C6 1.347 . S
C5 H33 0.931 . S
C6 C5 1.347 . S
C6 C7 1.369 . S
C7 C6 1.369 . S
C7 C8 1.408 . S
C7 H34 0.930 1_545 S
C8 C3 1.348 . S
C8 C7 1.408 . S
C8 H35 0.930 . S
C9 O22 1.281 1_554 S
C9 O23 1.254 . S
C10 O24 1.236 . S
C10 O25 1.266 . S
C11 Tb1 2.809 . S
C11 C12 1.514 . S
C11 O26 1.248 . S
C11 O27 1.266 . S
C12 C11 1.514 . S
C12 C13 1.359 . S
C12 C17 1.348 . S
C13 C12 1.359 . S
C13 C14 1.380 . S
C13 H36 0.929 . S
C14 C13 1.380 . S
C14 C15 1.347 . S
C14 H37 0.931 . S
C15 C14 1.347 . S
C15 C16 1.369 . S
C16 C15 1.369 . S
C16 C17 1.408 . S
C16 H38 0.930 . S
C17 C12 1.348 . S
C17 C16 1.408 . S
C17 H39 0.930 . S
C18 O28 1.281 . S
C18 O29 1.254 1_554 S
C19 O30 1.236 . S
C19 O31 1.266 . S
O20 Tb0 2.484 . S
O20 C2 1.248 . S
O21 Tb0 2.440 . S
O21 C2 1.266 . S
O22 Tb0 2.658 1_556 S
O22 Tb1 2.325 . S
O22 C9 1.281 1_556 S
O23 Tb0 2.409 . S
O23 C9 1.254 . S
O24 Tb0 2.378 . S
O24 C10 1.236 . S
O25 Tb1 2.341 1_554 S
O25 C10 1.266 . S
O26 Tb1 2.484 . S
O26 C11 1.248 . S
O27 Tb1 2.440 . S
O27 C11 1.266 . S
O28 Tb0 2.325 . S
O28 Tb1 2.658 1_554 S
O28 C18 1.281 . S
O29 Tb1 2.409 . S
O29 C18 1.254 1_556 S
O30 Tb1 2.378 . S
O30 C19 1.236 . S
O31 Tb0 2.341 1_556 S
O31 C19 1.266 . S
H32 C4 0.929 . S
H33 C5 0.931 . S
H34 C7 0.930 1_565 S
H35 C8 0.930 . S
H36 C13 0.929 . S
H37 C14 0.931 . S
H38 C16 0.930 . S
H39 C17 0.930 . S
Tb40 C42 2.809 1_455 S
Tb40 O60 2.484 1_455 S
Tb40 O61 2.440 1_455 S
Tb40 O62 2.658 . S
Tb40 O63 2.409 . S
Tb40 O64 2.378 . S
Tb40 O68 2.325 . S
Tb40 O71 2.341 1_455 S
Tb41 C51 2.809 . S
Tb41 O62 2.325 . S
Tb41 O65 2.341 . S
Tb41 O66 2.484 . S
Tb41 O67 2.440 . S
Tb41 O68 2.658 . S
Tb41 O69 2.409 . S
Tb41 O70 2.378 . S
C42 Tb40 2.809 1_655 S
C42 C43 1.514 . S
C42 O60 1.248 . S
C42 O61 1.266 . S
C43 C42 1.514 . S
C43 C44 1.359 . S
C43 C48 1.348 . S
C44 C43 1.359 . S
C44 C45 1.380 . S
C44 H72 0.929 . S
C45 C44 1.380 . S
C45 C46 1.347 . S
C45 H73 0.931 . S
C46 C45 1.347 . S
C46 C47 1.369 . S
C47 C46 1.369 . S
C47 C48 1.408 . S
C47 H74 0.930 . S
C48 C43 1.348 . S
C48 C47 1.408 . S
C48 H75 0.930 . S
C49 O62 1.281 . S
C49 O63 1.254 . S
C50 O64 1.236 . S
C50 O65 1.266 . S
C51 Tb41 2.809 . S
C51 C52 1.514 . S
C51 O66 1.248 . S
C51 O67 1.266 . S
C52 C51 1.514 . S
C52 C53 1.359 . S
C52 C57 1.348 . S
C53 C52 1.359 . S
C53 C54 1.380 . S
C53 H76 0.929 . S
C54 C53 1.380 . S
C54 C55 1.347 . S
C54 H77 0.931 . S
C55 C54 1.347 . S
C55 C56 1.369 . S
C56 C55 1.369 . S
C56 C57 1.408 . S
C56 H78 0.930 . S
C57 C52 1.348 . S
C57 C56 1.408 . S
C57 H79 0.930 . S
C58 O68 1.281 . S
C58 O69 1.254 . S
C59 O70 1.236 . S
C59 O71 1.266 1_455 S
O60 Tb40 2.484 1_655 S
O60 C42 1.248 . S
O61 Tb40 2.440 1_655 S
O61 C42 1.266 . S
O62 Tb40 2.658 . S
O62 Tb41 2.325 . S
O62 C49 1.281 . S
O63 Tb40 2.409 . S
O63 C49 1.254 . S
O64 Tb40 2.378 . S
O64 C50 1.236 . S
O65 Tb41 2.341 . S
O65 C50 1.266 . S
O66 Tb41 2.484 . S
O66 C51 1.248 . S
O67 Tb41 2.440 . S
O67 C51 1.266 . S
O68 Tb40 2.325 . S
O68 Tb41 2.658 . S
O68 C58 1.281 . S
O69 Tb41 2.409 . S
O69 C58 1.254 . S
O70 Tb41 2.378 . S
O70 C59 1.236 . S
O71 Tb40 2.341 1_655 S
O71 C59 1.266 1_655 S
H72 C44 0.929 . S
H73 C45 0.931 . S
H74 C47 0.930 . S
H75 C48 0.930 . S
H76 C53 0.929 . S
H77 C54 0.931 . S
H78 C56 0.930 . S
H79 C57 0.930 . S
Tb80 C82 2.809 . S
Tb80 O100 2.484 . S
Tb80 O101 2.440 . S
Tb80 O102 2.658 1_554 S
Tb80 O103 2.409 . S
Tb80 O104 2.378 . S
Tb80 O108 2.325 . S
Tb80 O111 2.341 1_554 S
Tb81 C91 2.809 . S
Tb81 O102 2.325 1_565 S
Tb81 O105 2.341 1_556 S
Tb81 O106 2.484 . S
Tb81 O107 2.440 . S
Tb81 O108 2.658 1_566 S
Tb81 O109 2.409 . S
Tb81 O110 2.378 1_565 S
C82 Tb80 2.809 . S
C82 C83 1.514 . S
C82 O100 1.248 . S
C82 O101 1.266 . S
C83 C82 1.514 . S
C83 C84 1.359 . S
C83 C88 1.348 . S
C84 C83 1.359 . S
C84 C85 1.380 . S
C84 H112 0.929 . S
C85 C84 1.380 . S
C85 C86 1.347 . S
C85 H113 0.931 . S
C86 C85 1.347 . S
C86 C87 1.369 . S
C87 C86 1.369 . S
C87 C88 1.408 . S
C87 H114 0.930 . S
C88 C83 1.348 . S
C88 C87 1.408 . S
C88 H115 0.930 . S
C89 O102 1.281 1_554 S
C89 O103 1.254 . S
C90 O104 1.236 1_565 S
C90 O105 1.266 . S
C91 Tb81 2.809 . S
C91 C92 1.514 . S
C91 O106 1.248 . S
C91 O107 1.266 . S
C92 C91 1.514 . S
C92 C93 1.359 . S
C92 C97 1.348 . S
C93 C92 1.359 . S
C93 C94 1.380 . S
C93 H116 0.929 . S
C94 C93 1.380 . S
C94 C95 1.347 . S
C94 H117 0.931 . S
C95 C94 1.347 . S
C95 C96 1.369 . S
C96 C95 1.369 . S
C96 C97 1.408 . S
C96 H118 0.930 . S
C97 C92 1.348 . S
C97 C96 1.408 . S
C97 H119 0.930 . S
C98 O108 1.282 1_556 S
C98 O109 1.252 1_545 S
C99 O110 1.236 . S
C99 O111 1.266 . S
O100 Tb80 2.484 . S
O100 C82 1.248 . S
O101 Tb80 2.440 . S
O101 C82 1.266 . S
O102 Tb80 2.658 1_556 S
O102 Tb81 2.325 1_545 S
O102 C89 1.281 1_556 S
O103 Tb80 2.409 . S
O103 C89 1.254 . S
O104 Tb80 2.378 . S
O104 C90 1.236 1_545 S
O105 Tb81 2.341 1_554 S
O105 C90 1.266 . S
O106 Tb81 2.484 . S
O106 C91 1.248 . S
O107 Tb81 2.440 . S
O107 C91 1.266 . S
O108 Tb80 2.325 . S
O108 Tb81 2.658 1_544 S
O108 C98 1.282 1_554 S
O109 Tb81 2.409 . S
O109 C98 1.252 1_565 S
O110 Tb81 2.378 1_545 S
O110 C99 1.236 . S
O111 Tb80 2.341 1_556 S
O111 C99 1.266 . S
H112 C84 0.929 . S
H113 C85 0.931 . S
H114 C87 0.930 . S
H115 C88 0.930 . S
H116 C93 0.929 . S
H117 C94 0.931 . S
H118 C96 0.930 . S
H119 C97 0.930 . S
Tb120 C122 2.809 1_455 S
Tb120 O140 2.484 . S
Tb120 O141 2.440 1_455 S
Tb120 O142 2.658 . S
Tb120 O143 2.409 . S
Tb120 O144 2.378 . S
Tb120 O148 2.325 . S
Tb120 O151 2.341 1_455 S
Tb121 C131 2.809 . S
Tb121 O142 2.325 . S
Tb121 O145 2.341 . S
Tb121 O146 2.484 . S
Tb121 O147 2.440 . S
Tb121 O148 2.658 . S
Tb121 O149 2.409 . S
Tb121 O150 2.378 . S
C122 Tb120 2.809 1_655 S
C122 C123 1.514 . S
C122 O140 1.237 1_655 S
C122 O141 1.266 . S
C123 C122 1.514 . S
C123 C124 1.359 . S
C123 C128 1.348 . S
C124 C123 1.359 . S
C124 C125 1.380 . S
C124 H152 0.929 . S
C125 C124 1.380 . S
C125 C126 1.347 . S
C125 H153 0.931 . S
C126 C125 1.347 . S
C126 C127 1.369 . S
C127 C126 1.369 . S
C127 C128 1.408 . S
C127 H154 0.930 . S
C128 C123 1.348 . S
C128 C127 1.408 . S
C128 H155 0.930 . S
C129 O142 1.281 . S
C129 O143 1.254 . S
C130 O144 1.236 . S
C130 O145 1.266 . S
C131 Tb121 2.809 . S
C131 C132 1.514 . S
C131 O146 1.248 . S
C131 O147 1.266 . S
C132 C131 1.514 . S
C132 C133 1.359 . S
C132 C137 1.348 . S
C133 C132 1.359 . S
C133 C134 1.380 . S
C133 H156 0.929 . S
C134 C133 1.380 . S
C134 C135 1.347 . S
C134 H157 0.931 . S
C135 C134 1.347 . S
C135 C136 1.369 . S
C136 C135 1.369 . S
C136 C137 1.408 . S
C136 H158 0.930 . S
C137 C132 1.348 . S
C137 C136 1.408 . S
C137 H159 0.930 . S
C138 O148 1.281 . S
C138 O149 1.254 . S
C139 O150 1.236 . S
C139 O151 1.262 1_455 S
O140 Tb120 2.484 . S
O140 C122 1.237 1_455 S
O141 Tb120 2.440 1_655 S
O141 C122 1.266 . S
O142 Tb120 2.658 . S
O142 Tb121 2.325 . S
O142 C129 1.281 . S
O143 Tb120 2.409 . S
O143 C129 1.254 . S
O144 Tb120 2.378 . S
O144 C130 1.236 . S
O145 Tb121 2.341 . S
O145 C130 1.266 . S
O146 Tb121 2.484 . S
O146 C131 1.248 . S
O147 Tb121 2.440 . S
O147 C131 1.266 . S
O148 Tb120 2.325 . S
O148 Tb121 2.658 . S
O148 C138 1.281 . S
O149 Tb121 2.409 . S
O149 C138 1.254 . S
O150 Tb121 2.378 . S
O150 C139 1.236 . S
O151 Tb120 2.341 1_655 S
O151 C139 1.262 1_655 S
H152 C124 0.929 . S
H153 C125 0.931 . S
H154 C127 0.930 . S
H155 C128 0.930 . S
H156 C133 0.929 . S
H157 C134 0.931 . S
H158 C136 0.930 . S
H159 C137 0.930 . S
C160 C161 1.391 . S
C160 C162 1.394 1_655 S
C160 H176 0.931 . S
C161 C160 1.391 . S
C161 C165 1.376 1_554 S
C162 C160 1.394 1_455 S
C162 C163 1.369 . S
C162 C166 1.531 . S
C163 C162 1.369 . S
C163 C164 1.410 1_554 S
C163 C171 1.503 . S
C164 C163 1.410 1_556 S
C164 C165 1.392 1_455 S
C164 C167 1.511 . S
C165 C161 1.376 1_556 S
C165 C164 1.392 1_655 S
C165 H177 0.929 1_545 S
C166 C162 1.531 . S
C166 H178 0.960 . S
C166 H179 0.962 . S
C166 H180 0.960 . S
C167 C164 1.511 . S
C167 H181 0.961 1_545 S
C167 H182 0.961 . S
C167 H183 0.942 1_546 S
C168 C169 1.370 1_556 S
C168 C170 1.363 . S
C168 H184 0.931 . S
C169 C168 1.370 1_554 S
C169 C173 1.408 . S
C170 C168 1.363 . S
C170 C171 1.370 1_556 S
C170 C174 1.524 . S
C171 C163 1.503 . S
C171 C170 1.370 1_554 S
C171 C172 1.403 . S
C172 C171 1.403 . S
C172 C173 1.404 . S
C172 C175 1.539 . S
C173 C169 1.408 . S
C173 C172 1.404 . S
C173 H185 0.930 . S
C174 C170 1.524 . S
C174 H186 0.956 . S
C174 H187 0.961 . S
C174 H188 0.961 . S
C175 C172 1.539 . S
C175 H189 0.958 . S
C175 H190 0.961 . S
C175 H191 0.960 . S
H176 C160 0.931 . S
H177 C165 0.929 1_565 S
H178 C166 0.960 . S
H179 C166 0.962 . S
H180 C166 0.960 . S
H181 C167 0.961 1_565 S
H182 C167 0.961 . S
H183 C167 0.942 1_564 S
H184 C168 0.931 . S
H185 C173 0.930 . S
H186 C174 0.956 . S
H187 C174 0.961 . S
H188 C174 0.961 . S
H189 C175 0.958 . S
H190 C175 0.961 . S
H191 C175 0.960 . S
C192 C193 1.391 1_545 S
C192 C194 1.394 . S
C192 H208 0.937 . S
C193 C192 1.391 1_565 S
C193 C197 1.376 . S
C194 C192 1.394 . S
C194 C195 1.369 . S
C194 C198 1.531 . S
C195 C194 1.369 . S
C195 C196 1.410 . S
C195 C203 1.503 . S
C196 C195 1.410 . S
C196 C197 1.392 1_545 S
C196 C199 1.511 1_455 S
C197 C193 1.376 . S
C197 C196 1.392 1_565 S
C197 H209 0.929 . S
C198 C194 1.531 . S
C198 H210 0.960 . S
C198 H211 0.962 . S
C198 H212 0.960 . S
C199 C196 1.511 1_655 S
C199 H213 0.961 . S
C199 H214 0.961 . S
C199 H215 0.961 1_655 S
C200 C201 1.370 . S
C200 C202 1.363 . S
C200 H216 0.931 . S
C201 C200 1.370 . S
C201 C205 1.408 . S
C202 C200 1.363 . S
C202 C203 1.370 . S
C202 C206 1.524 . S
C203 C195 1.503 . S
C203 C202 1.370 . S
C203 C204 1.403 . S
C204 C203 1.403 . S
C204 C205 1.404 . S
C204 C207 1.539 . S
C205 C201 1.408 . S
C205 C204 1.404 . S
C205 H217 0.930 . S
C206 C202 1.524 . S
C206 H218 0.956 . S
C206 H219 0.961 . S
C206 H220 0.961 . S
C207 C204 1.539 . S
C207 H221 0.958 . S
C207 H222 0.961 . S
C207 H223 0.960 . S
H208 C192 0.937 . S
H209 C197 0.929 . S
H210 C198 0.960 . S
H211 C198 0.962 . S
H212 C198 0.960 . S
H213 C199 0.961 . S
H214 C199 0.961 . S
H215 C199 0.961 1_455 S
H216 C200 0.931 . S
H217 C205 0.930 . S
H218 C206 0.956 . S
H219 C206 0.961 . S
H220 C206 0.961 . S
H221 C207 0.958 . S
H222 C207 0.961 . S
H223 C207 0.960 . S
C224 C225 1.391 1_556 S
C224 C226 1.394 . S
C224 H240 0.931 1_545 S
C225 C224 1.391 1_554 S
C225 C229 1.376 . S
C226 C224 1.394 . S
C226 C227 1.369 1_556 S
C226 C230 1.531 . S
C227 C226 1.369 1_554 S
C227 C228 1.410 . S
C227 C235 1.503 . S
C228 C227 1.410 . S
C228 C229 1.392 . S
C228 C231 1.511 . S
C229 C225 1.376 . S
C229 C228 1.392 . S
C229 H241 0.929 . S
C230 C226 1.531 . S
C230 H242 0.960 . S
C230 H243 0.962 . S
C230 H244 0.960 1_545 S
C231 C228 1.511 . S
C231 H245 0.961 . S
C231 H246 0.961 . S
C231 H247 0.961 . S
C232 C233 1.370 1_556 S
C232 C234 1.363 . S
C232 H248 0.931 . S
C233 C232 1.370 1_554 S
C233 C237 1.408 . S
C234 C232 1.363 . S
C234 C235 1.370 1_556 S
C234 C238 1.524 . S
C235 C227 1.503 . S
C235 C234 1.370 1_554 S
C235 C236 1.403 . S
C236 C235 1.403 . S
C236 C237 1.404 . S
C236 C239 1.539 . S
C237 C233 1.408 . S
C237 C236 1.404 . S
C237 H249 0.930 . S
C238 C234 1.524 . S
C238 H250 0.956 . S
C238 H251 0.961 . S
C238 H252 0.961 . S
C239 C236 1.539 . S
C239 H253 0.958 . S
C239 H254 0.961 . S
C239 H255 0.960 . S
H240 C224 0.931 1_565 S
H241 C229 0.929 . S
H242 C230 0.960 . S
H243 C230 0.962 . S
H244 C230 0.960 1_565 S
H245 C231 0.961 . S
H246 C231 0.961 . S
H247 C231 0.961 . S
H248 C232 0.931 . S
H249 C237 0.930 . S
H250 C238 0.956 . S
H251 C238 0.961 . S
H252 C238 0.961 . S
H253 C239 0.958 . S
H254 C239 0.961 . S
H255 C239 0.960 . S
C256 C257 1.391 . S
C256 C258 1.394 . S
C256 H272 0.931 . S
C257 C256 1.391 . S
C257 C261 1.376 . S
C258 C256 1.394 . S
C258 C259 1.369 . S
C258 C262 1.531 1_455 S
C259 C258 1.369 . S
C259 C260 1.410 . S
C259 C267 1.503 . S
C260 C259 1.410 . S
C260 C261 1.392 . S
C260 C263 1.511 . S
C261 C257 1.376 . S
C261 C260 1.392 . S
C261 H273 0.929 . S
C262 C258 1.531 1_655 S
C262 H274 0.960 1_655 S
C262 H275 0.962 . S
C262 H276 0.960 . S
C263 C260 1.511 . S
C263 H277 0.961 . S
C263 H278 0.961 . S
C263 H279 0.961 . S
C264 C265 1.370 . S
C264 C266 1.363 . S
C264 H280 0.931 . S
C265 C264 1.370 . S
C265 C269 1.408 . S
C266 C264 1.363 . S
C266 C267 1.370 . S
C266 C270 1.524 . S
C267 C259 1.503 . S
C267 C266 1.370 . S
C267 C268 1.403 . S
C268 C267 1.403 . S
C268 C269 1.404 . S
C268 C271 1.539 . S
C269 C265 1.408 . S
C269 C268 1.404 . S
C269 H281 0.930 . S
C270 C266 1.524 . S
C270 H282 0.956 . S
C270 H283 0.961 . S
C270 H284 0.961 . S
C271 C268 1.539 . S
C271 H285 0.958 . S
C271 H286 0.961 . S
C271 H287 0.960 . S
H272 C256 0.931 . S
H273 C261 0.929 . S
H274 C262 0.960 1_455 S
H275 C262 0.962 . S
H276 C262 0.960 . S
H277 C263 0.961 . S
H278 C263 0.961 . S
H279 C263 0.961 . S
H280 C264 0.931 . S
H281 C269 0.930 . S
H282 C270 0.956 . S
H283 C270 0.961 . S
H284 C270 0.961 . S
H285 C271 0.958 . S
H286 C271 0.961 . S
H287 C271 0.960 . S
C288 C289 1.391 . S
C288 C290 1.394 . S
C288 H304 0.931 . S
C289 C288 1.391 . S
C289 C293 1.376 . S
C290 C288 1.394 . S
C290 C291 1.369 . S
C290 C294 1.531 . S
C291 C290 1.369 . S
C291 C292 1.410 . S
C291 C299 1.503 . S
C292 C291 1.410 . S
C292 C293 1.392 . S
C292 C295 1.511 . S
C293 C289 1.376 . S
C293 C292 1.392 . S
C293 H305 0.929 . S
C294 C290 1.531 . S
C294 H306 0.960 . S
C294 H307 0.962 . S
C294 H308 0.960 . S
C295 C292 1.511 . S
C295 H309 0.961 . S
C295 H310 0.961 . S
C295 H311 0.961 . S
C296 C297 1.370 . S
C296 C298 1.363 . S
C296 H312 0.931 . S
C297 C296 1.370 . S
C297 C301 1.408 . S
C298 C296 1.363 . S
C298 C299 1.370 . S
C298 C302 1.524 . S
C299 C291 1.503 . S
C299 C298 1.370 . S
C299 C300 1.403 . S
C300 C299 1.403 . S
C300 C301 1.404 . S
C300 C303 1.539 . S
C301 C297 1.408 . S
C301 C300 1.404 . S
C301 H313 0.930 . S
C302 C298 1.524 . S
C302 H314 0.956 . S
C302 H315 0.961 . S
C302 H316 0.961 . S
C303 C300 1.539 . S
C303 H317 0.958 . S
C303 H318 0.961 . S
C303 H319 0.960 . S
H304 C288 0.931 . S
H305 C293 0.929 . S
H306 C294 0.960 . S
H307 C294 0.962 . S
H308 C294 0.960 . S
H309 C295 0.961 . S
H310 C295 0.961 . S
H311 C295 0.961 . S
H312 C296 0.931 . S
H313 C301 0.930 . S
H314 C302 0.956 . S
H315 C302 0.961 . S
H316 C302 0.961 . S
H317 C303 0.958 . S
H318 C303 0.961 . S
H319 C303 0.960 . S
C320 C321 1.391 1_455 S
C320 C322 1.394 1_455 S
C320 H336 0.931 . S
C321 C320 1.391 1_655 S
C321 C325 1.376 . S
C322 C320 1.394 1_655 S
C322 C323 1.369 . S
C322 C326 1.531 1_655 S
C323 C322 1.369 . S
C323 C324 1.410 . S
C323 C331 1.503 . S
C324 C323 1.410 . S
C324 C325 1.392 . S
C324 C327 1.511 . S
C325 C321 1.376 . S
C325 C324 1.392 . S
C325 H337 0.929 . S
C326 C322 1.531 1_455 S
C326 H338 0.960 . S
C326 H339 0.962 . S
C326 H340 0.960 . S
C327 C324 1.511 . S
C327 H341 0.961 . S
C327 H342 0.961 . S
C327 H343 0.961 . S
C328 C329 1.370 . S
C328 C330 1.363 . S
C328 H344 0.931 . S
C329 C328 1.370 . S
C329 C333 1.408 . S
C330 C328 1.363 . S
C330 C331 1.370 . S
C330 C334 1.524 . S
C331 C323 1.503 . S
C331 C330 1.370 . S
C331 C332 1.403 . S
C332 C331 1.403 . S
C332 C333 1.404 . S
C332 C335 1.539 . S
C333 C329 1.408 . S
C333 C332 1.404 . S
C333 H345 0.930 . S
C334 C330 1.524 . S
C334 H346 0.956 . S
C334 H347 0.961 . S
C334 H348 0.961 . S
C335 C332 1.539 . S
C335 H349 0.958 . S
C335 H350 0.961 . S
C335 H351 0.960 . S
H336 C320 0.931 . S
H337 C325 0.929 . S
H338 C326 0.960 . S
H339 C326 0.962 . S
H340 C326 0.960 . S
H341 C327 0.961 . S
H342 C327 0.961 . S
H343 C327 0.961 . S
H344 C328 0.931 . S
H345 C333 0.930 . S
H346 C334 0.956 . S
H347 C334 0.961 . S
H348 C334 0.961 . S
H349 C335 0.958 . S
H350 C335 0.961 . S
H351 C335 0.960 . S
C352 C353 1.391 . S
C352 C354 1.394 . S
C352 H368 0.931 . S
C353 C352 1.391 . S
C353 C357 1.376 . S
C354 C352 1.394 . S
C354 C355 1.369 . S
C354 C358 1.531 . S
C355 C354 1.369 . S
C355 C356 1.410 . S
C355 C363 1.503 . S
C356 C355 1.410 . S
C356 C357 1.392 . S
C356 C359 1.511 . S
C357 C353 1.376 . S
C357 C356 1.392 . S
C357 H369 0.929 1_655 S
C358 C354 1.531 . S
C358 H370 0.960 . S
C358 H371 0.962 . S
C358 H372 0.960 . S
C359 C356 1.511 . S
C359 H373 0.967 . S
C359 H374 0.961 . S
C359 H375 0.961 1_655 S
C360 C361 1.370 . S
C360 C362 1.363 . S
C360 H376 0.931 . S
C361 C360 1.370 . S
C361 C365 1.408 . S
C362 C360 1.363 . S
C362 C363 1.370 . S
C362 C366 1.524 . S
C363 C355 1.503 . S
C363 C362 1.370 . S
C363 C364 1.403 . S
C364 C363 1.403 . S
C364 C365 1.404 . S
C364 C367 1.539 1_565 S
C365 C361 1.408 . S
C365 C364 1.404 . S
C365 H377 0.930 1_565 S
C366 C362 1.524 . S
C366 H378 0.956 . S
C366 H379 0.961 . S
C366 H380 0.961 . S
C367 C364 1.539 1_545 S
C367 H381 0.958 . S
C367 H382 0.961 1_655 S
C367 H383 0.960 1_645 S
H368 C352 0.931 . S
H369 C357 0.929 1_455 S
H370 C358 0.960 . S
H371 C358 0.962 . S
H372 C358 0.960 . S
H373 C359 0.967 . S
H374 C359 0.961 . S
H375 C359 0.961 1_455 S
H376 C360 0.931 . S
H377 C365 0.930 1_545 S
H378 C366 0.956 . S
H379 C366 0.961 . S
H380 C366 0.961 . S
H381 C367 0.958 . S
H382 C367 0.961 1_455 S
H383 C367 0.960 1_465 S
C384 C385 1.391 . S
C384 C386 1.394 . S
C384 H400 0.931 . S
C385 C384 1.391 . S
C385 C389 1.376 1_565 S
C386 C384 1.394 . S
C386 C387 1.369 . S
C386 C390 1.531 . S
C387 C386 1.369 . S
C387 C388 1.410 1_565 S
C387 C395 1.503 1_565 S
C388 C387 1.410 1_545 S
C388 C389 1.392 . S
C388 C391 1.511 . S
C389 C385 1.376 1_545 S
C389 C388 1.392 . S
C389 H401 0.929 . S
C390 C386 1.531 . S
C390 H402 0.960 . S
C390 H403 0.962 . S
C390 H404 0.960 . S
C391 C388 1.511 . S
C391 H405 0.961 . S
C391 H406 0.961 . S
C391 H407 0.961 . S
C392 C393 1.370 . S
C392 C394 1.363 . S
C392 H408 0.931 . S
C393 C392 1.370 . S
C393 C397 1.408 . S
C394 C392 1.363 . S
C394 C395 1.370 . S
C394 C398 1.524 1_545 S
C395 C387 1.503 1_545 S
C395 C394 1.370 . S
C395 C396 1.403 . S
C396 C395 1.403 . S
C396 C397 1.404 . S
C396 C399 1.539 . S
C397 C393 1.408 . S
C397 C396 1.404 . S
C397 H409 0.930 . S
C398 C394 1.524 1_565 S
C398 H410 0.956 . S
C398 H411 0.961 1_565 S
C398 H412 0.961 . S
C399 C396 1.539 . S
C399 H413 0.958 . S
C399 H414 0.961 . S
C399 H415 0.960 . S
H400 C384 0.931 . S
H401 C389 0.929 . S
H402 C390 0.960 . S
H403 C390 0.962 . S
H404 C390 0.960 . S
H405 C391 0.961 . S
H406 C391 0.961 . S
H407 C391 0.961 . S
H408 C392 0.931 . S
H409 C397 0.930 . S
H410 C398 0.956 . S
H411 C398 0.961 1_545 S
H412 C398 0.961 . S
H413 C399 0.958 . S
H414 C399 0.961 . S
H415 C399 0.960 . S
C416 C417 1.391 . S
C416 C418 1.394 . S
C416 H432 0.931 . S
C417 C416 1.391 . S
C417 C421 1.376 . S
C418 C416 1.394 . S
C418 C419 1.369 . S
C418 C422 1.531 . S
C419 C418 1.369 . S
C419 C420 1.410 . S
C419 C427 1.503 . S
C420 C419 1.410 . S
C420 C421 1.392 . S
C420 C423 1.511 . S
C421 C417 1.376 . S
C421 C420 1.392 . S
C421 H433 0.929 . S
C422 C418 1.531 . S
C422 H434 0.960 . S
C422 H435 0.962 . S
C422 H436 0.960 . S
C423 C420 1.511 . S
C423 H437 0.961 . S
C423 H438 0.961 . S
C423 H439 0.961 . S
C424 C425 1.370 . S
C424 C426 1.363 . S
C424 H440 0.931 . S
C425 C424 1.370 . S
C425 C429 1.408 . S
C426 C424 1.363 . S
C426 C427 1.370 . S
C426 C430 1.524 . S
C427 C419 1.503 . S
C427 C426 1.370 . S
C427 C428 1.403 . S
C428 C427 1.403 . S
C428 C429 1.404 . S
C428 C431 1.539 . S
C429 C425 1.408 . S
C429 C428 1.404 . S
C429 H441 0.930 . S
C430 C426 1.524 . S
C430 H442 0.956 . S
C430 H443 0.961 . S
C430 H444 0.961 . S
C431 C428 1.539 . S
C431 H445 0.958 . S
C431 H446 0.961 . S
C431 H447 0.960 . S
H432 C416 0.931 . S
H433 C421 0.929 . S
H434 C422 0.960 . S
H435 C422 0.962 . S
H436 C422 0.960 . S
H437 C423 0.961 . S
H438 C423 0.961 . S
H439 C423 0.961 . S
H440 C424 0.931 . S
H441 C429 0.930 . S
H442 C430 0.956 . S
H443 C430 0.961 . S
H444 C430 0.961 . S
H445 C431 0.958 . S
H446 C431 0.961 . S
H447 C431 0.960 . S
C448 C449 1.391 . S
C448 C450 1.394 1_545 S
C448 H464 0.931 . S
C449 C448 1.391 . S
C449 C453 1.376 . S
C450 C448 1.394 1_565 S
C450 C451 1.369 . S
C450 C454 1.531 . S
C451 C450 1.369 . S
C451 C452 1.410 1_565 S
C451 C459 1.503 . S
C452 C451 1.410 1_545 S
C452 C453 1.392 . S
C452 C455 1.511 . S
C453 C449 1.376 . S
C453 C452 1.392 . S
C453 H465 0.929 . S
C454 C450 1.531 . S
C454 H466 0.960 . S
C454 H467 0.962 . S
C454 H468 0.960 . S
C455 C452 1.511 . S
C455 H469 0.961 . S
C455 H470 0.961 . S
C455 H471 0.961 1_545 S
C456 C457 1.370 . S
C456 C458 1.363 . S
C456 H472 0.931 . S
C457 C456 1.370 . S
C457 C461 1.408 . S
C458 C456 1.363 . S
C458 C459 1.370 . S
C458 C462 1.524 1_565 S
C459 C451 1.503 . S
C459 C458 1.370 . S
C459 C460 1.403 . S
C460 C459 1.403 . S
C460 C461 1.404 . S
C460 C463 1.539 . S
C461 C457 1.408 . S
C461 C460 1.404 . S
C461 H473 0.930 . S
C462 C458 1.524 1_545 S
C462 H474 0.956 . S
C462 H475 0.961 . S
C462 H476 0.961 . S
C463 C460 1.539 . S
C463 H477 0.958 . S
C463 H478 0.961 . S
C463 H479 0.960 . S
H464 C448 0.931 . S
H465 C453 0.929 . S
H466 C454 0.960 . S
H467 C454 0.962 . S
H468 C454 0.960 . S
H469 C455 0.961 . S
H470 C455 0.961 . S
H471 C455 0.961 1_565 S
H472 C456 0.931 . S
H473 C461 0.930 . S
H474 C462 0.956 . S
H475 C462 0.961 . S
H476 C462 0.961 . S
H477 C463 0.958 . S
H478 C463 0.961 . S
H479 C463 0.960 . S
C480 C481 1.391 . S
C480 C482 1.394 . S
C480 H496 0.931 . S
C481 C480 1.391 . S
C481 C485 1.376 . S
C482 C480 1.394 . S
C482 C483 1.369 . S
C482 C486 1.531 . S
C483 C482 1.369 . S
C483 C484 1.410 . S
C483 C491 1.503 . S
C484 C483 1.410 . S
C484 C485 1.392 . S
C484 C487 1.511 . S
C485 C481 1.376 . S
C485 C484 1.392 . S
C485 H497 0.929 . S
C486 C482 1.531 . S
C486 H498 0.960 . S
C486 H499 0.962 . S
C486 H500 0.960 . S
C487 C484 1.511 . S
C487 H501 0.961 . S
C487 H502 0.961 . S
C487 H503 0.961 . S
C488 C489 1.370 . S
C488 C490 1.363 . S
C488 H504 0.931 . S
C489 C488 1.370 . S
C489 C493 1.408 . S
C490 C488 1.363 . S
C490 C491 1.370 . S
C490 C494 1.524 . S
C491 C483 1.503 . S
C491 C490 1.370 . S
C491 C492 1.403 . S
C492 C491 1.403 . S
C492 C493 1.404 . S
C492 C495 1.539 . S
C493 C489 1.408 . S
C493 C492 1.404 . S
C493 H505 0.930 . S
C494 C490 1.524 . S
C494 H506 0.956 . S
C494 H507 0.961 . S
C494 H508 0.961 . S
C495 C492 1.539 . S
C495 H509 0.958 . S
C495 H510 0.961 . S
C495 H511 0.960 . S
H496 C480 0.931 . S
H497 C485 0.929 . S
H498 C486 0.960 . S
H499 C486 0.962 . S
H500 C486 0.960 . S
H501 C487 0.961 . S
H502 C487 0.961 . S
H503 C487 0.961 . S
H504 C488 0.931 . S
H505 C493 0.930 . S
H506 C494 0.956 . S
H507 C494 0.961 . S
H508 C494 0.961 . S
H509 C495 0.958 . S
H510 C495 0.961 . S
H511 C495 0.960 . S
C512 C513 1.391 . S
C512 C514 1.394 . S
C512 H528 0.931 . S
C513 C512 1.391 . S
C513 C517 1.376 . S
C514 C512 1.394 . S
C514 C515 1.369 . S
C514 C518 1.531 . S
C515 C514 1.369 . S
C515 C516 1.410 . S
C515 C523 1.503 . S
C516 C515 1.410 . S
C516 C517 1.392 . S
C516 C519 1.511 . S
C517 C513 1.376 . S
C517 C516 1.392 . S
C517 H529 0.929 . S
C518 C514 1.531 . S
C518 H530 0.960 . S
C518 H531 0.962 . S
C518 H532 0.960 . S
C519 C516 1.511 . S
C519 H533 0.961 . S
C519 H534 0.961 . S
C519 H535 0.961 . S
C520 C521 1.370 . S
C520 C522 1.363 . S
C520 H536 0.931 . S
C521 C520 1.370 . S
C521 C525 1.408 . S
C522 C520 1.363 . S
C522 C523 1.370 . S
C522 C526 1.524 . S
C523 C515 1.503 . S
C523 C522 1.370 . S
C523 C524 1.403 . S
C524 C523 1.403 . S
C524 C525 1.404 . S
C524 C527 1.539 . S
C525 C521 1.408 . S
C525 C524 1.404 . S
C525 H537 0.930 . S
C526 C522 1.524 . S
C526 H538 0.956 . S
C526 H539 0.961 . S
C526 H540 0.961 . S
C527 C524 1.539 . S
C527 H541 0.958 . S
C527 H542 0.961 . S
C527 H543 0.960 . S
H528 C512 0.931 . S
H529 C517 0.929 . S
H530 C518 0.960 . S
H531 C518 0.962 . S
H532 C518 0.960 . S
H533 C519 0.961 . S
H534 C519 0.961 . S
H535 C519 0.961 . S
H536 C520 0.931 . S
H537 C525 0.930 . S
H538 C526 0.956 . S
H539 C526 0.961 . S
H540 C526 0.961 . S
H541 C527 0.958 . S
H542 C527 0.961 . S
H543 C527 0.960 . S
C161 C89 0.650 . S
C169 C9 0.591 . S
C193 C129 0.518 . S
C201 C49 0.392 . S
C225 C98 1.191 1_554 S
C233 C18 1.179 . S
C257 C58 0.696 . S
C265 C138 0.726 . S
C289 C50 4.503 . S
C297 C10 4.467 . S
C321 C59 4.653 1_655 S
C329 C99 4.664 . S
C353 C139 4.735 1_655 S
C361 C90 4.631 . S
C385 C130 4.423 . S
C393 C19 4.501 . S
C417 C95 0.926 . S
C425 C126 0.995 . S
C449 C6 1.107 . S
C457 C135 1.025 . S
C481 C55 0.917 . S
C489 C15 1.028 . S
C513 C86 0.990 . S
C521 C46 1.126 . S
