# Generated by pormake.
# Topology ske, (6)-cn, num edge types: 1
# Building blocks:
#     Node 0, Type 0, BuildingBlock: BETFEN_clean_sbu_0, # of connection points: 6
#     Node 1, Type 0, BuildingBlock: BETFEN_clean_sbu_0, # of connection points: 6
#     Node 2, Type 0, BuildingBlock: BETFEN_clean_sbu_0, # of connection points: 6
#     Node 3, Type 0, BuildingBlock: BETFEN_clean_sbu_0, # of connection points: 6
#     Node 4, Type 0, BuildingBlock: BETFEN_clean_sbu_0, # of connection points: 6
#     Node 5, Type 0, BuildingBlock: BETFEN_clean_sbu_0, # of connection points: 6
#     Node 6, Type 0, BuildingBlock: BETFEN_clean_sbu_0, # of connection points: 6
#     Node 7, Type 0, BuildingBlock: BETFEN_clean_sbu_0, # of connection points: 6
#     Edge 8, Type (0, 0), BuildingBlock: CIFDUS_clean_linker_0, # of connection points: 2
#     Edge 9, Type (0, 0), BuildingBlock: CIFDUS_clean_linker_0, # of connection points: 2
#     Edge 10, Type (0, 0), BuildingBlock: CIFDUS_clean_linker_0, # of connection points: 2
#     Edge 11, Type (0, 0), BuildingBlock: CIFDUS_clean_linker_0, # of connection points: 2
#     Edge 12, Type (0, 0), BuildingBlock: CIFDUS_clean_linker_0, # of connection points: 2
#     Edge 13, Type (0, 0), BuildingBlock: CIFDUS_clean_linker_0, # of connection points: 2
#     Edge 14, Type (0, 0), BuildingBlock: CIFDUS_clean_linker_0, # of connection points: 2
#     Edge 15, Type (0, 0), BuildingBlock: CIFDUS_clean_linker_0, # of connection points: 2
#     Edge 16, Type (0, 0), BuildingBlock: CIFDUS_clean_linker_0, # of connection points: 2
#     Edge 17, Type (0, 0), BuildingBlock: CIFDUS_clean_linker_0, # of connection points: 2
#     Edge 18, Type (0, 0), BuildingBlock: CIFDUS_clean_linker_0, # of connection points: 2
#     Edge 19, Type (0, 0), BuildingBlock: CIFDUS_clean_linker_0, # of connection points: 2
#     Edge 20, Type (0, 0), BuildingBlock: CIFDUS_clean_linker_0, # of connection points: 2
#     Edge 21, Type (0, 0), BuildingBlock: CIFDUS_clean_linker_0, # of connection points: 2
#     Edge 22, Type (0, 0), BuildingBlock: CIFDUS_clean_linker_0, # of connection points: 2
#     Edge 23, Type (0, 0), BuildingBlock: CIFDUS_clean_linker_0, # of connection points: 2
#     Edge 24, Type (0, 0), BuildingBlock: CIFDUS_clean_linker_0, # of connection points: 2
#     Edge 25, Type (0, 0), BuildingBlock: CIFDUS_clean_linker_0, # of connection points: 2
#     Edge 26, Type (0, 0), BuildingBlock: CIFDUS_clean_linker_0, # of connection points: 2
#     Edge 27, Type (0, 0), BuildingBlock: CIFDUS_clean_linker_0, # of connection points: 2
#     Edge 28, Type (0, 0), BuildingBlock: CIFDUS_clean_linker_0, # of connection points: 2
#     Edge 29, Type (0, 0), BuildingBlock: CIFDUS_clean_linker_0, # of connection points: 2
#     Edge 30, Type (0, 0), BuildingBlock: CIFDUS_clean_linker_0, # of connection points: 2
#     Edge 31, Type (0, 0), BuildingBlock: CIFDUS_clean_linker_0, # of connection points: 2
# Relax obj value: 0.205
# Max RMSD: 0.208
# Mean RMSD: 0.201
data_MOF--net-ske--node1-BETFEN_clean_sbu_0--edge1-CIFDUS_clean_linker_0
_symmetry_space_group_name_H-M    P1
_symmetry_Int_Tables_number       1
_symmetry_cell_setting            triclinic
loop_
_symmetry_equiv_pos_as_xyz
'x, y, z'
_cell_length_a     96.750174
_cell_length_b     25.871971
_cell_length_c     13.83373
_cell_angle_alpha  89.815705
_cell_angle_beta   90.228964
_cell_angle_gamma 84.545074
loop_
_atom_site_label
_atom_site_type_symbol
_atom_site_fract_x
_atom_site_fract_y
_atom_site_fract_z
_atom_type_partial_charge
Pr0 Pr 0.1594 0.25087 0.50837 0.0
Pr1 Pr 0.12797 0.25254 0.49884 0.0
C2 C 0.1864 0.26806 0.53095 0.0
C3 C 0.2002 0.25878 0.57876 0.0
C4 C 0.20857 0.21168 0.56759 0.0
C5 C 0.22235 0.20651 0.60086 0.0
C6 C 0.22814 0.24835 0.64571 0.0
C7 C 0.21958 0.29488 0.65922 0.0
C8 C 0.20582 0.3 0.62604 0.0
C9 C 0.15002 0.15116 0.49897 0.0
C10 C 0.14204 0.24531 0.71379 0.0
C11 C 0.10087 0.23564 0.47843 0.0
C12 C 0.08629 0.24919 0.44548 0.0
C13 C 0.07809 0.29153 0.48545 0.0
C14 C 0.06375 0.29862 0.4678 0.0
C15 C 0.05714 0.26376 0.40916 0.0
C16 C 0.06551 0.22263 0.36588 0.0
C17 C 0.07986 0.21533 0.38426 0.0
C18 C 0.13749 0.35209 0.50928 0.0
C19 C 0.1455 0.25604 0.29356 0.0
O20 O 0.17626 0.29554 0.57505 0.0
O21 O 0.18217 0.23221 0.47453 0.0
O22 O 0.14469 0.18832 0.54942 0.0
O23 O 0.16081 0.16444 0.45311 0.0
O24 O 0.13199 0.22908 0.66047 0.0
O25 O 0.15303 0.26254 0.67253 0.0
O26 O 0.11045 0.21675 0.41813 0.0
O27 O 0.10573 0.26267 0.54832 0.0
O28 O 0.14279 0.31476 0.45948 0.0
O29 O 0.12614 0.34017 0.54969 0.0
O30 O 0.15551 0.27294 0.34632 0.0
O31 O 0.13458 0.23852 0.33537 0.0
H32 H 0.20462 0.1792 0.53086 0.0
H33 H 0.22853 0.16982 0.59039 0.0
H34 H 0.22366 0.32822 0.69208 0.0
H35 H 0.19971 0.33704 0.63423 0.0
H36 H 0.08262 0.31816 0.53381 0.0
H37 H 0.0578 0.33034 0.50396 0.0
H38 H 0.06097 0.19542 0.31886 0.0
H39 H 0.08585 0.18202 0.35313 0.0
Pr40 Pr 0.87199 0.25377 0.51119 0.0
Pr41 Pr 0.90378 0.25182 0.49993 0.0
C42 C 0.84499 0.23668 0.53544 0.0
C43 C 0.83174 0.24312 0.5907 0.0
C44 C 0.82112 0.28166 0.56428 0.0
C45 C 0.808 0.28376 0.60788 0.0
C46 C 0.8051 0.24721 0.67886 0.0
C47 C 0.8158 0.20903 0.70582 0.0
C48 C 0.8289 0.20694 0.66227 0.0
C49 C 0.88165 0.35296 0.50426 0.0
C50 C 0.88999 0.25668 0.71582 0.0
C51 C 0.9308 0.2694 0.47956 0.0
C52 C 0.94529 0.25771 0.44417 0.0
C53 C 0.95352 0.21291 0.47495 0.0
C54 C 0.96782 0.20678 0.45619 0.0
C55 C 0.97435 0.24514 0.40564 0.0
C56 C 0.96593 0.28889 0.37117 0.0
C57 C 0.95163 0.29517 0.39066 0.0
C58 C 0.89414 0.15262 0.50802 0.0
C59 C 0.88561 0.25097 0.2951 0.0
O60 O 0.8554 0.20558 0.56902 0.0
O61 O 0.84896 0.27623 0.4872 0.0
O62 O 0.88707 0.31483 0.55266 0.0
O63 O 0.8706 0.34095 0.45938 0.0
O64 O 0.90012 0.27229 0.66275 0.0
O65 O 0.87874 0.24111 0.67473 0.0
O66 O 0.921 0.29101 0.42284 0.0
O67 O 0.92621 0.23924 0.54575 0.0
O68 O 0.88866 0.19076 0.46012 0.0
O69 O 0.9057 0.16365 0.54714 0.0
O70 O 0.87538 0.23564 0.34748 0.0
O71 O 0.89691 0.26598 0.33671 0.0
H72 H 0.82284 0.30964 0.50824 0.0
H73 H 0.80012 0.31407 0.58581 0.0
H74 H 0.81395 0.17963 0.75887 0.0
H75 H 0.83669 0.17601 0.68303 0.0
H76 H 0.94905 0.1834 0.51717 0.0
H77 H 0.97382 0.17283 0.48541 0.0
H78 H 0.9704 0.3189 0.33039 0.0
H79 H 0.9456 0.33036 0.36672 0.0
Pr80 Pr 0.128 0.75525 0.55348 0.0
Pr81 Pr 0.16127 0.75326 0.54382 0.0
C82 C 0.10111 0.74689 0.58779 0.0
C83 C 0.08622 0.7438 0.60498 0.0
C84 C 0.07648 0.78285 0.56963 0.0
C85 C 0.06232 0.78015 0.5853 0.0
C86 C 0.05758 0.73892 0.63892 0.0
C87 C 0.0675 0.70034 0.67588 0.0
C88 C 0.08167 0.70249 0.65807 0.0
C89 C 0.13858 0.8492 0.51005 0.0
C90 C 0.14623 0.75808 0.75954 0.0
C91 C 0.18724 0.78146 0.52641 0.0
C92 C 0.20094 0.77016 0.48007 0.0
C93 C 0.20839 0.72084 0.48532 0.0
C94 C 0.22178 0.71264 0.44649 0.0
C95 C 0.22801 0.75359 0.40185 0.0
C96 C 0.22037 0.80255 0.3953 0.0
C97 C 0.20703 0.8107 0.43412 0.0
C98 C 0.15324 0.65069 0.54353 0.0
C99 C 0.14272 0.74315 0.34001 0.0
O100 O 0.10951 0.70693 0.56041 0.0
O101 O 0.10667 0.79083 0.59595 0.0
O102 O 0.14349 0.81734 0.57391 0.0
O103 O 0.12777 0.83339 0.46747 0.0
O104 O 0.15716 0.76918 0.70895 0.0
O105 O 0.13471 0.74548 0.71749 0.0
O106 O 0.17687 0.80077 0.47187 0.0
O107 O 0.18361 0.74957 0.59365 0.0
O108 O 0.14575 0.69288 0.54758 0.0
O109 O 0.16613 0.66061 0.53805 0.0
O110 O 0.13204 0.7307 0.3921 0.0
O111 O 0.15396 0.75983 0.3803 0.0
H112 H 0.07981 0.81501 0.52818 0.0
H113 H 0.05511 0.80996 0.55329 0.0
H114 H 0.06438 0.66852 0.71903 0.0
H115 H 0.08908 0.67227 0.68695 0.0
H116 H 0.20397 0.68884 0.52061 0.0
H117 H 0.22739 0.67454 0.45353 0.0
H118 H 0.2247 0.83473 0.35998 0.0
H119 H 0.2015 0.84908 0.42934 0.0
Pr120 Pr 0.90412 0.74871 0.54217 0.0
Pr121 Pr 0.87057 0.75225 0.55655 0.0
C122 C 0.9312 0.75678 0.56927 0.0
C123 C 0.94606 0.76138 0.58434 0.0
C124 C 0.95593 0.7219 0.55328 0.0
C125 C 0.97004 0.72486 0.57191 0.0
C126 C 0.97457 0.76675 0.62453 0.0
C127 C 0.96451 0.80586 0.65686 0.0
C128 C 0.95043 0.80344 0.63598 0.0
C129 C 0.89281 0.65459 0.52055 0.0
C130 C 0.88832 0.75792 0.75899 0.0
C131 C 0.84447 0.72395 0.54952 0.0
C132 C 0.83125 0.73184 0.49382 0.0
C133 C 0.82079 0.77088 0.51928 0.0
C134 C 0.808 0.77569 0.4704 0.0
C135 C 0.80534 0.74147 0.3951 0.0
C136 C 0.81585 0.70267 0.36945 0.0
C137 C 0.8286 0.69783 0.41826 0.0
C138 C 0.87895 0.85361 0.5371 0.0
C139 C 0.8865 0.75288 0.33944 0.0
O140 O 0.92291 0.7946 0.53122 0.0
O141 O 0.92551 0.71418 0.58983 0.0
O142 O 0.88873 0.68891 0.582 0.0
O143 O 0.90337 0.66733 0.47129 0.0
O144 O 0.87659 0.74492 0.72065 0.0
O145 O 0.89913 0.76704 0.70546 0.0
O146 O 0.85506 0.69798 0.50721 0.0
O147 O 0.84805 0.76195 0.6041 0.0
O148 O 0.88633 0.8111 0.54018 0.0
O149 O 0.86597 0.84459 0.54228 0.0
O150 O 0.89826 0.76491 0.37951 0.0
O151 O 0.87569 0.74144 0.39137 0.0
H152 H 0.95272 0.68891 0.51383 0.0
H153 H 0.97736 0.69451 0.54359 0.0
H154 H 0.96745 0.83815 0.69934 0.0
H155 H 0.9429 0.83378 0.66231 0.0
H156 H 0.82241 0.79743 0.57772 0.0
H157 H 0.8002 0.80637 0.49146 0.0
H158 H 0.81413 0.67507 0.31301 0.0
H159 H 0.83632 0.66675 0.39767 0.0
Pr160 Pr 0.66208 0.75307 0.03271 0.0
Pr161 Pr 0.62733 0.74905 0.04785 0.0
C162 C 0.68777 0.78545 0.04052 0.0
C163 C 0.70096 0.77731 0.09675 0.0
C164 C 0.71138 0.73788 0.07239 0.0
C165 C 0.72406 0.73259 0.12267 0.0
C166 C 0.72665 0.76668 0.19837 0.0
C167 C 0.71617 0.80575 0.22316 0.0
C168 C 0.70353 0.81109 0.17288 0.0
C169 C 0.65497 0.64958 0.03851 0.0
C170 C 0.64699 0.74513 0.25016 0.0
C171 C 0.60132 0.7193 0.05265 0.0
C172 C 0.5866 0.73306 1.0233 0.0
C173 C 0.57866 0.77628 0.06244 0.0
C174 C 0.56439 0.78507 0.04285 0.0
C175 C 0.55765 0.75098 0.98339 0.0
C176 C 0.56577 0.70881 0.94156 0.0
C177 C 0.58002 0.69988 0.96166 0.0
C178 C 0.63514 0.85179 0.03156 0.0
C179 C 0.64272 0.75353 0.83072 0.0
O180 O 0.67701 0.80888 0.08488 0.0
O181 O 0.68449 0.74851 0.98231 0.0
O182 O 0.64679 0.69064 0.04554 0.0
O183 O 0.66761 0.66239 0.03117 0.0
O184 O 0.63487 0.7372 0.20993 0.0
O185 O 0.65806 0.75455 0.19931 0.0
O186 O 0.61033 0.70398 0.98551 0.0
O187 O 0.60655 0.74671 0.12102 0.0
O188 O 0.64264 0.80941 0.03401 0.0
O189 O 0.62223 0.84167 0.03572 0.0
O190 O 0.65461 0.76483 0.87065 0.0
O191 O 0.63186 0.7418 0.88189 0.0
H192 H 0.70981 0.71134 1.01385 0.0
H193 H 0.73183 0.70168 0.10231 0.0
H194 H 0.71784 0.8332 0.27997 0.0
H195 H 0.69583 0.84235 0.19285 0.0
H196 H 0.58336 0.80262 0.11053 0.0
H197 H 0.55858 0.81764 0.07753 0.0
H198 H 0.5611 0.68221 0.89391 0.0
H199 H 0.58584 0.66615 0.93064 0.0
Pr200 Pr 0.37312 0.7523 0.05044 0.0
Pr201 Pr 0.40408 0.75357 0.04396 0.0
C202 C 0.34625 0.73414 0.07451 0.0
C203 C 0.33315 0.74385 0.1297 0.0
C204 C 0.32542 0.79272 0.12915 0.0
C205 C 0.31229 0.79937 0.17225 0.0
C206 C 0.30655 0.7573 0.21671 0.0
C207 C 0.31444 0.70874 0.21886 0.0
C208 C 0.32755 0.70211 0.17568 0.0
C209 C 0.38169 0.85284 0.03304 0.0
C210 C 0.39004 0.76134 0.25736 0.0
C211 C 0.43099 0.77257 0.02442 0.0
C212 C 0.44558 0.75807 0.99451 0.0
C213 C 0.45333 0.71414 0.03347 0.0
C214 C 0.4677 0.706 1.01868 0.0
C215 C 0.47472 0.74143 0.9642 0.0
C216 C 0.4668 0.7842 0.92182 0.0
C217 C 0.45243 0.79248 0.93716 0.0
C218 C 0.39549 0.65285 0.05853 0.0
C219 C 0.38682 0.74732 0.83709 0.0
O220 O 0.35661 0.70516 0.11372 0.0
O221 O 0.35021 0.77132 1.01998 0.0
O222 O 0.38712 0.81784 0.08877 0.0
O223 O 0.37134 0.83688 0.98556 0.0
O224 O 0.39994 0.77838 0.20427 0.0
O225 O 0.37929 0.74257 0.21562 0.0
O226 O 0.42148 0.78795 0.96031 0.0
O227 O 0.42616 0.74806 0.09774 0.0
O228 O 0.38995 0.6886 1.00541 0.0
O229 O 0.40659 0.66673 0.09972 0.0
O230 O 0.377 0.72924 0.88952 0.0
O231 O 0.39751 0.76638 0.87952 0.0
H232 H 0.32935 0.82561 0.09342 0.0
H233 H 0.30647 0.83719 0.1681 0.0
H234 H 0.31047 0.67565 0.25361 0.0
H235 H 0.3332 0.66389 0.17637 0.0
H236 H 0.44842 0.68703 0.07876 0.0
H237 H 0.47335 0.67296 0.05377 0.0
H238 H 0.47172 0.8119 0.87798 0.0
H239 H 0.44675 0.82692 0.90694 0.0
Pr240 Pr 0.62764 0.25379 0.98941 0.0
Pr241 Pr 0.65872 0.25276 1.01044 0.0
C242 C 0.60065 0.2341 0.98913 0.0
C243 C 0.5863 0.24035 0.02857 0.0
C244 C 0.57641 0.2786 0.99088 0.0
C245 C 0.56231 0.27852 1.01376 0.0
C246 C 0.55769 0.24006 0.07472 0.0
C247 C 0.56771 0.20346 0.11638 0.0
C248 C 0.5818 0.20344 0.09324 0.0
C249 C 0.63651 0.35424 0.99855 0.0
C250 C 0.64148 0.25079 0.21105 0.0
C251 C 0.68598 0.26943 1.00231 0.0
C252 C 0.69895 0.26397 0.94362 0.0
C253 C 0.70972 0.22554 0.9673 0.0
C254 C 0.72256 0.22343 0.92002 0.0
C255 C 0.72508 0.25994 0.84798 0.0
C256 C 0.71418 0.29775 0.82287 0.0
C257 C 0.70132 0.29983 0.87015 0.0
C258 C 0.64938 0.15295 1.00504 0.0
C259 C 0.64511 0.25524 0.78962 0.0
O260 O 0.61039 0.20536 0.03563 0.0
O261 O 0.6053 0.27254 0.94143 0.0
O262 O 0.64121 0.31627 0.0508 0.0
O263 O 0.62643 0.34159 0.94425 0.0
O264 O 0.65287 0.26597 0.17247 0.0
O265 O 0.6311 0.23831 0.1561 0.0
O266 O 0.67588 0.30388 0.97585 0.0
O267 O 0.68153 0.22762 0.03973 0.0
O268 O 0.64502 0.1906 0.95103 0.0
O269 O 0.65935 0.16551 0.06065 0.0
O270 O 0.63392 0.23866 0.82848 0.0
O271 O 0.65524 0.26943 0.84457 0.0
H272 H 0.57945 0.30723 0.93987 0.0
H273 H 0.55497 0.30704 0.97927 0.0
H274 H 0.56462 0.17378 0.16498 0.0
H275 H 0.5891 0.17313 0.12305 0.0
H276 H 0.70832 0.1976 0.02409 0.0
H277 H 0.73056 0.1932 0.94045 0.0
H278 H 0.71571 0.32694 0.76869 0.0
H279 H 0.69337 0.33041 0.85062 0.0
Pr280 Pr 0.40413 0.25077 0.98409 0.0
Pr281 Pr 0.37308 0.25341 1.00696 0.0
C282 C 0.43145 0.26589 0.98349 0.0
C283 C 0.44573 0.26035 0.02492 0.0
C284 C 0.45571 0.22266 0.98767 0.0
C285 C 0.46978 0.22296 1.01175 0.0
C286 C 0.4743 0.26107 0.07372 0.0
C287 C 0.46419 0.29717 0.11496 0.0
C288 C 0.4501 0.29698 0.0905 0.0
C289 C 0.39425 0.1527 0.97334 0.0
C290 C 0.39091 0.24571 0.2071 0.0
C291 C 0.34583 0.23717 0.99882 0.0
C292 C 0.33243 0.24584 0.94524 0.0
C293 C 0.32417 0.29354 0.95049 0.0
C294 C 0.31069 0.29886 0.912 0.0
C295 C 0.30504 0.25661 0.86768 0.0
C296 C 0.31353 0.20958 0.85881 0.0
C297 C 0.32702 0.20424 0.89741 0.0
C298 C 0.38285 0.35204 1.01381 0.0
C299 C 0.38628 0.25894 0.78433 0.0
O300 O 0.42189 0.29896 1.02116 0.0
O301 O 0.42648 0.22535 0.94526 0.0
O302 O 0.39033 0.18686 0.03525 0.0
O303 O 0.40359 0.16836 0.91623 0.0
O304 O 0.37905 0.23553 0.16771 0.0
O305 O 0.40153 0.25666 0.15339 0.0
O306 O 0.35571 0.20472 0.96328 0.0
O307 O 0.35054 0.27638 0.04363 0.0
O308 O 0.38695 0.31661 0.95487 0.0
O309 O 0.37298 0.33788 0.06825 0.0
O310 O 0.39803 0.27003 0.82399 0.0
O311 O 0.37576 0.24706 0.83791 0.0
H312 H 0.45276 0.19433 0.9359 0.0
H313 H 0.47717 0.19489 0.97734 0.0
H314 H 0.46719 0.32656 0.1643 0.0
H315 H 0.44273 0.32682 0.12014 0.0
H316 H 0.32795 0.32643 0.98698 0.0
H317 H 0.30457 0.33596 0.91872 0.0
H318 H 0.30954 0.17604 0.82601 0.0
H319 H 0.33303 0.16681 0.89304 0.0
H320 H 0.23977 0.28824 0.80674 0.0
H321 H 0.25048 0.19986 0.54918 0.0
H322 H 0.27499 0.19465 0.59405 0.0
H323 H 0.29359 0.21623 0.70551 0.0
H324 H 0.28271 0.30529 0.96205 0.0
H325 H 0.25826 0.3104 0.91679 0.0
C326 C 0.24745 0.26816 0.75983 0.0
C327 C 0.24315 0.24433 0.67475 0.0
C328 C 0.2616 0.26582 0.78541 0.0
C329 C 0.25334 0.21784 0.61598 0.0
C330 C 0.26743 0.21519 0.64117 0.0
C331 C 0.28587 0.23657 0.75179 0.0
C332 C 0.29011 0.2606 0.83696 0.0
C333 C 0.27171 0.23905 0.72575 0.0
C334 C 0.27989 0.28723 0.89523 0.0
C335 C 0.26583 0.28982 0.86984 0.0
H336 H 0.75072 0.23976 0.93221 0.0
H337 H 0.73108 0.27939 0.65774 0.0
H338 H 0.75384 0.28027 0.58216 0.0
H339 H 0.77945 0.26835 0.59298 0.0
H340 H 0.7989 0.22874 0.86818 0.0
H341 H 0.77617 0.22802 0.9431 0.0
C342 C 0.75136 0.248 0.85556 0.0
C343 C 0.73907 0.25943 0.80117 0.0
C344 C 0.76453 0.2482 0.81219 0.0
C345 C 0.74027 0.27102 0.70215 0.0
C346 C 0.75332 0.27127 0.65855 0.0
C347 C 0.77875 0.26009 0.66958 0.0
C348 C 0.79101 0.24842 0.72439 0.0
C349 C 0.76555 0.25998 0.71283 0.0
C350 C 0.78975 0.23708 0.82342 0.0
C351 C 0.77671 0.23695 0.86669 0.0
H352 H 0.28641 0.6899 0.20834 0.0
H353 H 0.29452 0.83969 0.32029 0.0
H354 H 0.2711 0.8516 0.38654 0.0
H355 H 0.24837 0.81944 0.41411 0.0
H356 H 0.24019 0.66971 0.30257 0.0
H357 H 0.26371 0.65725 0.23759 0.0
C358 C 0.28314 0.72491 0.24823 0.0
C359 C 0.2923 0.76384 0.259 0.0
C360 C 0.26965 0.73143 0.28686 0.0
C361 C 0.2877 0.80933 0.30955 0.0
C362 C 0.27431 0.81607 0.34806 0.0
C363 C 0.25166 0.78425 0.3748 0.0
C364 C 0.24244 0.74568 0.36312 0.0
C365 C 0.26518 0.77747 0.33693 0.0
C366 C 0.24706 0.69987 0.31364 0.0
C367 C 0.2605 0.69283 0.27588 0.0
H368 H 0.75256 0.74689 0.12096 0.0
H369 H 0.73156 0.77753 0.39233 0.0
H370 H 0.75388 0.77391 0.47628 0.0
H371 H 0.77943 0.76106 0.4733 0.0
H372 H 0.80037 0.73061 0.20159 0.0
H373 H 0.77805 0.73405 0.11796 0.0
C374 C 0.75283 0.75218 0.19864 0.0
C375 C 0.74033 0.76251 0.24994 0.0
C376 C 0.76573 0.74994 0.2467 0.0
C377 C 0.74097 0.77013 0.35053 0.0
C378 C 0.75376 0.76785 0.39881 0.0
C379 C 0.77913 0.75574 0.39563 0.0
C380 C 0.79163 0.74547 0.34412 0.0
C381 C 0.76622 0.75795 0.34763 0.0
C382 C 0.79096 0.73789 0.24355 0.0
C383 C 0.77818 0.74009 0.19544 0.0
H384 H 0.13841 0.92643 0.64251 0.0
H385 H 0.1473 0.89073 0.34413 0.0
H386 H 0.15218 0.98072 0.31427 0.0
H387 H 0.15314 0.07075 0.37227 0.0
H388 H 0.14152 0.10838 0.66597 0.0
H389 H 0.13844 0.01717 0.69874 0.0
C390 C 0.14163 0.93842 0.5715 0.0
C391 C 0.14281 0.90207 0.49595 0.0
C392 C 0.14376 0.99081 0.55394 0.0
C393 C 0.14655 0.9181 0.40347 0.0
C394 C 0.14926 0.96954 0.38637 0.0
C395 C 0.14992 0.05882 0.44329 0.0
C396 C 0.14758 0.09618 0.51658 0.0
C397 C 0.14776 0.00644 0.46078 0.0
C398 C 0.14329 0.08041 0.60813 0.0
C399 C 0.14159 0.02819 0.62706 0.0
H400 H 0.87287 0.439 0.39853 0.0
H401 H 0.8972 0.38906 0.6496 0.0
H402 H 0.90156 0.47881 0.68294 0.0
H403 H 0.89911 0.5718 0.63784 0.0
H404 H 0.87623 0.62109 0.38101 0.0
H405 H 0.87053 0.53194 0.35297 0.0
C406 C 0.87913 0.44786 0.46047 0.0
C407 C 0.88471 0.40736 0.52138 0.0
C408 C 0.88175 0.49966 0.47855 0.0
C409 C 0.89286 0.41939 0.60112 0.0
C410 C 0.8953 0.4708 0.62056 0.0
C411 C 0.89264 0.56293 0.57703 0.0
C412 C 0.88775 0.60279 0.51287 0.0
C413 C 0.88983 0.51127 0.55973 0.0
C414 C 0.87978 0.59097 0.43241 0.0
C415 C 0.87664 0.53999 0.41601 0.0
H416 H 0.8645 0.9448 0.48473 0.0
H417 H 0.90493 0.87953 0.57975 0.0
H418 H 0.91321 0.96608 0.5802 0.0
H419 H 0.90878 0.06097 0.55702 0.0
H420 H 0.86876 0.12558 0.45243 0.0
H421 H 0.86048 0.03906 0.4524 0.0
C422 C 0.87514 0.94959 0.50519 0.0
C423 C 0.88409 0.90582 0.53239 0.0
C424 C 0.87987 0.9995 0.50398 0.0
C425 C 0.89787 0.91253 0.55798 0.0
C426 C 0.90258 0.96208 0.55867 0.0
C427 C 0.89825 0.05606 0.53421 0.0
C428 C 0.88934 0.09977 0.50576 0.0
C429 C 0.89365 0.00593 0.53239 0.0
C430 C 0.87579 0.09267 0.47521 0.0
C431 C 0.87105 0.04316 0.47513 0.0
H432 H 0.16747 0.55946 0.48939 0.0
H433 H 0.12763 0.6241 0.59336 0.0
H434 H 0.11921 0.53784 0.59281 0.0
H435 H 0.12328 0.44333 0.56466 0.0
H436 H 0.16275 0.37929 0.45277 0.0
H437 H 0.17123 0.46546 0.45482 0.0
C438 C 0.15695 0.55458 0.51194 0.0
C439 C 0.14818 0.5982 0.54157 0.0
C440 C 0.15214 0.50477 0.51028 0.0
C441 C 0.13455 0.5913 0.56976 0.0
C442 C 0.12975 0.54188 0.56979 0.0
C443 C 0.13374 0.44828 0.54079 0.0
C444 C 0.14241 0.40483 0.50925 0.0
C445 C 0.13846 0.49825 0.54049 0.0
C446 C 0.15588 0.41202 0.47757 0.0
C447 C 0.16073 0.46133 0.47877 0.0
H448 H 0.6352 0.59176 0.1214 0.0
H449 H 0.66764 0.58592 0.90774 0.0
H450 H 0.66512 0.49473 0.87777 0.0
H451 H 0.65426 0.41489 0.91406 0.0
H452 H 0.62233 0.41718 0.12974 0.0
H453 H 0.6241 0.51017 0.15783 0.0
C454 C 0.64152 0.57058 0.06741 0.0
C455 C 0.65153 0.59594 1.01636 0.0
C456 C 0.64027 0.51693 0.05188 0.0
C457 C 0.65984 0.56755 0.94791 0.0
C458 C 0.65845 0.51516 0.93082 0.0
C459 C 0.64779 0.4358 0.9677 0.0
C460 C 0.63833 0.40929 1.02065 0.0
C461 C 0.64886 0.48918 0.98306 0.0
C462 C 0.62984 0.43681 0.08908 0.0
C463 C 0.63079 0.49005 0.10465 0.0
H464 H 0.38099 0.92274 0.88672 0.0
H465 H 0.38801 0.90723 0.19349 0.0
H466 H 0.3911 1.00008 0.20482 0.0
H467 H 0.39232 0.08602 0.12586 0.0
H468 H 0.38816 0.0979 0.81623 0.0
H469 H 0.38339 0.00683 0.80717 0.0
C470 C 0.38322 0.93982 0.95591 0.0
C471 C 0.38423 0.90837 0.03915 0.0
C472 C 0.38543 0.99281 0.96121 0.0
C473 C 0.38727 0.93068 0.12831 0.0
C474 C 0.38897 0.98381 0.13483 0.0
C475 C 0.39019 0.06864 0.05681 0.0
C476 C 0.39033 0.09873 0.97188 0.0
C477 C 0.3881 0.01537 0.0517 0.0
C478 C 0.38794 0.07554 0.8825 0.0
C479 C 0.38527 0.02345 0.87728 0.0
H480 H 0.37188 0.43546 0.11658 0.0
H481 H 0.40295 0.39008 0.90271 0.0
H482 H 0.40963 0.47907 0.89691 0.0
H483 H 0.40673 0.5704 0.95409 0.0
H484 H 0.37525 0.61555 0.16464 0.0
H485 H 0.36861 0.52646 0.17053 0.0
C486 C 0.38012 0.44502 0.06868 0.0
C487 C 0.38693 0.40604 1.01029 0.0
C488 C 0.38382 0.4964 0.06525 0.0
C489 C 0.39755 0.41924 0.94846 0.0
C490 C 0.40137 0.47017 0.94514 0.0
C491 C 0.39841 0.56047 1.00096 0.0
C492 C 0.39146 0.59916 0.05899 0.0
C493 C 0.3946 0.50912 1.00332 0.0
C494 C 0.38068 0.58626 0.11925 0.0
C495 C 0.37691 0.53535 0.12271 0.0
H496 H 0.6627 0.06336 0.07691 0.0
H497 H 0.62611 0.12201 0.91776 0.0
H498 H 0.61843 0.03443 0.91152 0.0
H499 H 0.62194 0.94066 0.9542 0.0
H500 H 0.6589 0.88254 0.10879 0.0
H501 H 0.66671 0.96964 0.11289 0.0
C502 C 0.65305 0.05698 0.04062 0.0
C503 C 0.64495 0.09938 0.99829 0.0
C504 C 0.64882 0.00628 0.03594 0.0
C505 C 0.63254 0.0902 0.95094 0.0
C506 C 0.62814 0.04005 0.94747 0.0
C507 C 0.63175 0.94713 0.98816 0.0
C508 C 0.63999 0.90478 0.02961 0.0
C509 C 0.63616 0.99773 0.99007 0.0
C510 C 0.65262 0.9139 0.07364 0.0
C511 C 0.65699 0.96397 0.07707 0.0
H512 H 0.12904 0.21455 0.15798 0.0
H513 H 0.16442 0.30331 0.18718 0.0
H514 H 0.16659 0.30745 1.01205 0.0
H515 H 0.15854 0.28606 0.84938 0.0
H516 H 0.12318 0.19732 0.81969 0.0
H517 H 0.12102 0.19289 0.99498 0.0
C518 C 0.13721 0.23489 0.12609 0.0
C519 C 0.14654 0.25851 0.18628 0.0
C520 C 0.13847 0.23705 0.02465 0.0
C521 C 0.15709 0.28453 0.14318 0.0
C522 C 0.15836 0.28699 0.04268 0.0
C523 C 0.15038 0.26562 0.88118 0.0
C524 C 0.14104 0.24217 0.82093 0.0
C525 C 0.14914 0.26333 0.98256 0.0
C526 C 0.1305 0.21601 0.86386 0.0
C527 C 0.12925 0.21338 0.96441 0.0
H528 H 0.90387 0.28163 0.16025 0.0
H529 H 0.86468 0.21589 0.1879 0.0
H530 H 0.86256 0.21187 1.01272 0.0
H531 H 0.87174 0.22668 0.85066 0.0
H532 H 0.9109 0.29251 0.82247 0.0
H533 H 0.91303 0.29675 0.9978 0.0
C534 C 0.89486 0.26643 0.12807 0.0
C535 C 0.88447 0.24914 0.18783 0.0
C536 C 0.89366 0.26419 0.02663 0.0
C537 C 0.87287 0.22962 0.14428 0.0
C538 C 0.87162 0.22722 0.04374 0.0
C539 C 0.88074 0.242 0.88274 0.0
C540 C 0.89112 0.25916 0.82293 0.0
C541 C 0.88194 0.24438 0.9841 0.0
C542 C 0.90272 0.27887 0.86627 0.0
C543 C 0.90397 0.28137 0.96685 0.0
H544 H 0.15489 0.80162 0.20596 0.0
H545 H 0.12896 0.67577 0.23252 0.0
H546 H 0.1277 0.66899 0.05624 0.0
H547 H 0.13379 0.69953 0.89322 0.0
H548 H 0.15986 0.82503 0.8676 0.0
H549 H 0.16098 0.83201 0.04368 0.0
C550 C 0.149 0.77259 0.17313 0.0
C551 C 0.14202 0.73926 0.23262 0.0
C552 C 0.14822 0.76923 0.07142 0.0
C553 C 0.13432 0.70225 0.18867 0.0
C554 C 0.13362 0.69829 0.0877 0.0
C555 C 0.1397 0.7284 0.9263 0.0
C556 C 0.1468 0.76155 0.86705 0.0
C557 C 0.14046 0.73175 0.02816 0.0
C558 C 0.15446 0.79858 0.91125 0.0
C559 C 0.15508 0.80268 1.01211 0.0
H560 H 0.87211 0.71962 0.89843 0.0
H561 H 0.90771 0.80609 0.86034 0.0
H562 H 0.91045 0.81209 0.03524 0.0
H563 H 0.90283 0.79241 0.2005 0.0
H564 H 0.86729 0.70527 0.237 0.0
H565 H 0.86458 0.6997 0.06261 0.0
C566 C 0.88043 0.74 0.92829 0.0
C567 C 0.88966 0.76233 0.86585 0.0
C568 C 0.88204 0.74304 0.02933 0.0
C569 C 0.90046 0.78822 0.9063 0.0
C570 C 0.90205 0.79175 1.0066 0.0
C571 C 0.89451 0.77217 0.17028 0.0
C572 C 0.88524 0.7497 0.23239 0.0
C573 C 0.89293 0.76914 0.06903 0.0
C574 C 0.87451 0.72359 0.19151 0.0
C575 C 0.87294 0.72021 0.0914 0.0
H576 H 0.62637 0.74872 0.38642 0.0
H577 H 0.67092 0.74097 0.35675 0.0
H578 H 0.67357 0.74399 0.53172 0.0
H579 H 0.66334 0.74944 0.69462 0.0
H580 H 0.6188 0.75689 0.72444 0.0
H581 H 0.61614 0.75381 0.54938 0.0
C582 C 0.63666 0.74736 0.41811 0.0
C583 C 0.6484 0.7446 0.35766 0.0
C584 C 0.63816 0.74945 0.51953 0.0
C585 C 0.66165 0.74328 0.40076 0.0
C586 C 0.66321 0.74505 0.50124 0.0
C587 C 0.65304 0.75065 0.66289 0.0
C588 C 0.64131 0.75338 0.72331 0.0
C589 C 0.65154 0.74842 0.5615 0.0
C590 C 0.62806 0.75451 0.68033 0.0
C591 C 0.6265 0.75275 0.57984 0.0
H592 H 0.40321 0.7896 0.70246 0.0
H593 H 0.36788 0.70049 0.72953 0.0
H594 H 0.3656 0.69755 0.55425 0.0
H595 H 0.37357 0.72001 0.39208 0.0
H596 H 0.4089 0.80901 0.36452 0.0
H597 H 0.41113 0.81234 0.53998 0.0
C598 C 0.39503 0.76943 0.67009 0.0
C599 C 0.38576 0.74532 0.72973 0.0
C600 C 0.39371 0.76796 0.56856 0.0
C601 C 0.37519 0.71955 0.68598 0.0
C602 C 0.37385 0.71781 0.58539 0.0
C603 C 0.38173 0.74031 0.42436 0.0
C604 C 0.39103 0.76419 0.36463 0.0
C605 C 0.38303 0.74193 0.52582 0.0
C606 C 0.40158 0.79011 0.40824 0.0
C607 C 0.40289 0.79207 0.50889 0.0
H608 H 0.66021 0.27533 0.34759 0.0
H609 H 0.61957 0.22131 0.31516 0.0
H610 H 0.61713 0.2178 0.49034 0.0
H611 H 0.62644 0.23019 0.65317 0.0
H612 H 0.66706 0.28441 0.68562 0.0
H613 H 0.66954 0.28764 0.51043 0.0
C614 C 0.65081 0.26278 0.37868 0.0
C615 C 0.6401 0.24867 0.31784 0.0
C616 C 0.64944 0.26086 0.47979 0.0
C617 C 0.628 0.23247 0.35985 0.0
C618 C 0.62658 0.23043 0.46025 0.0
C619 C 0.63585 0.2427 0.62206 0.0
C620 C 0.64653 0.25701 0.68288 0.0
C621 C 0.63722 0.24455 0.52096 0.0
C622 C 0.65864 0.27316 0.6409 0.0
C623 C 0.66008 0.27504 0.54051 0.0
H624 H 0.37031 0.26032 0.34046 0.0
H625 H 0.41477 0.23114 0.31366 0.0
H626 H 0.41729 0.23331 0.48948 0.0
H627 H 0.40688 0.24441 0.65117 0.0
H628 H 0.36242 0.27339 0.67799 0.0
H629 H 0.3599 0.27127 0.50214 0.0
C630 C 0.38054 0.25415 0.37314 0.0
C631 C 0.39234 0.24554 0.31393 0.0
C632 C 0.38193 0.25602 0.47436 0.0
C633 C 0.40553 0.23817 0.35745 0.0
C634 C 0.40698 0.2394 0.45805 0.0
C635 C 0.39665 0.25057 0.61844 0.0
C636 C 0.38486 0.25916 0.6776 0.0
C637 C 0.39526 0.24865 0.51723 0.0
C638 C 0.37166 0.26643 0.63414 0.0
C639 C 0.37021 0.26522 0.53355 0.0
H640 H 0.03956 0.1865 0.39042 0.0
H641 H 0.03934 0.35344 0.4013 0.0
H642 H 1.01406 0.36233 0.39974 0.0
H643 H 0.99192 0.32295 0.40446 0.0
H644 H 0.99211 0.1565 0.37923 0.0
H645 H 0.01739 0.14772 0.37652 0.0
C646 C 0.03407 0.22501 0.39045 0.0
C647 C 0.04159 0.26913 0.39764 0.0
C648 C 0.01941 0.2301 0.38778 0.0
C649 C 0.03403 0.31849 0.39863 0.0
C650 C 0.01949 0.32374 0.39698 0.0
C651 C 0.9974 0.2847 0.39633 0.0
C652 C 0.98988 0.24046 0.39366 0.0
C653 C 1.01205 0.2798 0.39305 0.0
C654 C 0.99743 0.19136 0.38427 0.0
C655 C 1.01197 0.18623 0.38195 0.0
H656 H 0.99507 0.68726 0.65355 0.0
H657 H 0.98843 0.85468 0.63612 0.0
H658 H 1.01323 0.86049 0.65308 0.0
H659 H 0.03694 0.81846 0.6584 0.0
H660 H 0.04371 0.65095 0.64988 0.0
H661 H 0.01881 0.64518 0.65831 0.0
C662 C 0.99898 0.72514 0.65213 0.0
C663 C 0.98971 0.77035 0.64233 0.0
C664 C 1.01338 0.72832 0.65714 0.0
C665 C 0.99512 0.819 0.64458 0.0
C666 C 1.00939 0.82246 0.65328 0.0
C667 C 0.03304 0.78056 0.65714 0.0
C668 C 0.04237 0.73532 0.6523 0.0
C669 C 0.01864 0.77737 0.65714 0.0
C670 C 0.03695 0.68666 0.6546 0.0
C671 C 0.02264 0.68322 0.65837 0.0
H672 H 0.53955 0.67588 0.9672 0.0
H673 H 0.54067 0.84236 0.96728 0.0
H674 H 0.51538 0.85403 0.95888 0.0
H675 H 0.49284 0.81717 0.9606 0.0
H676 H 0.49187 0.65073 0.94935 0.0
H677 H 0.51715 0.63927 0.9523 0.0
C678 C 0.53435 0.71483 0.96346 0.0
C679 C 0.54219 0.75809 0.96916 0.0
C680 C 0.51974 0.72142 0.95739 0.0
C681 C 0.53504 0.80815 0.96547 0.0
C682 C 0.52052 0.81494 0.95999 0.0
C683 C 0.49809 0.77832 0.95683 0.0
C684 C 0.49027 0.73491 0.95608 0.0
C685 C 0.51274 0.77186 0.95734 0.0
C686 C 0.49746 0.68499 0.95243 0.0
C687 C 0.51199 0.67832 0.95347 0.0
H688 H 0.49547 0.18282 0.09074 0.0
H689 H 0.48757 0.34992 0.08799 0.0
H690 H 0.51242 0.35815 0.09637 0.0
H691 H 0.53656 0.31831 0.09293 0.0
H692 H 0.54439 0.15127 0.08435 0.0
H693 H 0.51956 0.14299 0.09223 0.0
C694 C 0.49914 0.22112 0.09175 0.0
C695 C 0.4895 0.2656 0.08833 0.0
C696 C 0.51354 0.22573 0.09423 0.0
C697 C 0.4946 0.31481 0.09185 0.0
C698 C 0.50888 0.31965 0.09569 0.0
C699 C 0.53286 0.28004 0.09264 0.0
C700 C 0.54248 0.23556 0.0879 0.0
C701 C 0.51846 0.27541 0.0951 0.0
C702 C 0.53737 0.18634 0.08943 0.0
C703 C 0.52311 0.18148 0.09303 0.0
loop_
_geom_bond_atom_site_label_1
_geom_bond_atom_site_label_2
_geom_bond_distance
_geom_bond_site_symmetry_2
_ccdc_geom_bond_type
Pr0 C2 2.880 . S
Pr0 O20 2.562 . S
Pr0 O21 2.490 . S
Pr0 O22 2.695 . S
Pr0 O23 2.512 . S
Pr0 O25 2.437 . S
Pr0 O28 2.436 . S
Pr0 O30 2.438 . S
Pr1 C11 2.880 . S
Pr1 O22 2.436 . S
Pr1 O24 2.438 . S
Pr1 O26 2.562 . S
Pr1 O27 2.490 . S
Pr1 O28 2.695 . S
Pr1 O29 2.512 . S
Pr1 O31 2.437 . S
C2 Pr0 2.880 . S
C2 C3 1.491 . S
C2 O20 1.254 . S
C2 O21 1.225 . S
C3 C2 1.491 . S
C3 C4 1.392 . S
C3 C8 1.356 . S
C4 C3 1.392 . S
C4 C5 1.368 . S
C4 H32 0.929 . S
C5 C4 1.368 . S
C5 C6 1.386 . S
C5 H33 0.929 . S
C6 C5 1.386 . S
C6 C7 1.373 . S
C7 C6 1.373 . S
C7 C8 1.409 . S
C7 H34 0.931 . S
C8 C3 1.356 . S
C8 C7 1.409 . S
C8 H35 0.930 . S
C9 O22 1.270 . S
C9 O23 1.248 . S
C10 O24 1.267 . S
C10 O25 1.278 . S
C11 Pr1 2.880 . S
C11 C12 1.491 . S
C11 O26 1.254 . S
C11 O27 1.225 . S
C12 C11 1.491 . S
C12 C13 1.392 . S
C12 C17 1.356 . S
C13 C12 1.392 . S
C13 C14 1.368 . S
C13 H36 0.929 . S
C14 C13 1.368 . S
C14 C15 1.386 . S
C14 H37 0.929 . S
C15 C14 1.386 . S
C15 C16 1.373 . S
C16 C15 1.373 . S
C16 C17 1.409 . S
C16 H38 0.931 . S
C17 C12 1.356 . S
C17 C16 1.409 . S
C17 H39 0.930 . S
C18 O28 1.270 . S
C18 O29 1.248 . S
C19 O30 1.267 . S
C19 O31 1.278 . S
O20 Pr0 2.562 . S
O20 C2 1.254 . S
O21 Pr0 2.490 . S
O21 C2 1.225 . S
O22 Pr0 2.695 . S
O22 Pr1 2.436 . S
O22 C9 1.270 . S
O23 Pr0 2.512 . S
O23 C9 1.248 . S
O24 Pr1 2.438 . S
O24 C10 1.267 . S
O25 Pr0 2.437 . S
O25 C10 1.278 . S
O26 Pr1 2.562 . S
O26 C11 1.254 . S
O27 Pr1 2.490 . S
O27 C11 1.225 . S
O28 Pr0 2.436 . S
O28 Pr1 2.695 . S
O28 C18 1.270 . S
O29 Pr1 2.512 . S
O29 C18 1.248 . S
O30 Pr0 2.438 . S
O30 C19 1.267 . S
O31 Pr1 2.437 . S
O31 C19 1.278 . S
H32 C4 0.929 . S
H33 C5 0.929 . S
H34 C7 0.931 . S
H35 C8 0.930 . S
H36 C13 0.929 . S
H37 C14 0.929 . S
H38 C16 0.931 . S
H39 C17 0.930 . S
Pr40 C42 2.880 . S
Pr40 O60 2.562 . S
Pr40 O61 2.490 . S
Pr40 O62 2.695 . S
Pr40 O63 2.512 . S
Pr40 O65 2.437 . S
Pr40 O68 2.436 . S
Pr40 O70 2.438 . S
Pr41 C51 2.880 . S
Pr41 O62 2.436 . S
Pr41 O64 2.438 . S
Pr41 O66 2.562 . S
Pr41 O67 2.490 . S
Pr41 O68 2.695 . S
Pr41 O69 2.512 . S
Pr41 O71 2.437 . S
C42 Pr40 2.880 . S
C42 C43 1.491 . S
C42 O60 1.254 . S
C42 O61 1.225 . S
C43 C42 1.491 . S
C43 C44 1.392 . S
C43 C48 1.356 . S
C44 C43 1.392 . S
C44 C45 1.368 . S
C44 H72 0.929 . S
C45 C44 1.368 . S
C45 C46 1.386 . S
C45 H73 0.929 . S
C46 C45 1.386 . S
C46 C47 1.373 . S
C47 C46 1.373 . S
C47 C48 1.409 . S
C47 H74 0.931 . S
C48 C43 1.356 . S
C48 C47 1.409 . S
C48 H75 0.930 . S
C49 O62 1.270 . S
C49 O63 1.248 . S
C50 O64 1.267 . S
C50 O65 1.278 . S
C51 Pr41 2.880 . S
C51 C52 1.491 . S
C51 O66 1.254 . S
C51 O67 1.225 . S
C52 C51 1.491 . S
C52 C53 1.392 . S
C52 C57 1.356 . S
C53 C52 1.392 . S
C53 C54 1.368 . S
C53 H76 0.929 . S
C54 C53 1.368 . S
C54 C55 1.386 . S
C54 H77 0.929 . S
C55 C54 1.386 . S
C55 C56 1.373 . S
C56 C55 1.373 . S
C56 C57 1.409 . S
C56 H78 0.931 . S
C57 C52 1.356 . S
C57 C56 1.409 . S
C57 H79 0.930 . S
C58 O68 1.270 . S
C58 O69 1.248 . S
C59 O70 1.267 . S
C59 O71 1.278 . S
O60 Pr40 2.562 . S
O60 C42 1.254 . S
O61 Pr40 2.490 . S
O61 C42 1.225 . S
O62 Pr40 2.695 . S
O62 Pr41 2.436 . S
O62 C49 1.270 . S
O63 Pr40 2.512 . S
O63 C49 1.248 . S
O64 Pr41 2.438 . S
O64 C50 1.267 . S
O65 Pr40 2.437 . S
O65 C50 1.278 . S
O66 Pr41 2.562 . S
O66 C51 1.254 . S
O67 Pr41 2.490 . S
O67 C51 1.225 . S
O68 Pr40 2.436 . S
O68 Pr41 2.695 . S
O68 C58 1.270 . S
O69 Pr41 2.512 . S
O69 C58 1.248 . S
O70 Pr40 2.438 . S
O70 C59 1.267 . S
O71 Pr41 2.437 . S
O71 C59 1.278 . S
H72 C44 0.929 . S
H73 C45 0.929 . S
H74 C47 0.931 . S
H75 C48 0.930 . S
H76 C53 0.929 . S
H77 C54 0.929 . S
H78 C56 0.931 . S
H79 C57 0.930 . S
Pr80 C82 2.880 . S
Pr80 O100 2.562 . S
Pr80 O101 2.490 . S
Pr80 O102 2.695 . S
Pr80 O103 2.512 . S
Pr80 O105 2.437 . S
Pr80 O108 2.436 . S
Pr80 O110 2.438 . S
Pr81 C91 2.880 . S
Pr81 O102 2.436 . S
Pr81 O104 2.438 . S
Pr81 O106 2.562 . S
Pr81 O107 2.490 . S
Pr81 O108 2.695 . S
Pr81 O109 2.512 . S
Pr81 O111 2.437 . S
C82 Pr80 2.880 . S
C82 C83 1.491 . S
C82 O100 1.254 . S
C82 O101 1.225 . S
C83 C82 1.491 . S
C83 C84 1.392 . S
C83 C88 1.356 . S
C84 C83 1.392 . S
C84 C85 1.368 . S
C84 H112 0.929 . S
C85 C84 1.368 . S
C85 C86 1.386 . S
C85 H113 0.929 . S
C86 C85 1.386 . S
C86 C87 1.373 . S
C87 C86 1.373 . S
C87 C88 1.409 . S
C87 H114 0.931 . S
C88 C83 1.356 . S
C88 C87 1.409 . S
C88 H115 0.930 . S
C89 O102 1.270 . S
C89 O103 1.248 . S
C90 O104 1.267 . S
C90 O105 1.278 . S
C91 Pr81 2.880 . S
C91 C92 1.491 . S
C91 O106 1.254 . S
C91 O107 1.225 . S
C92 C91 1.491 . S
C92 C93 1.392 . S
C92 C97 1.356 . S
C93 C92 1.392 . S
C93 C94 1.368 . S
C93 H116 0.929 . S
C94 C93 1.368 . S
C94 C95 1.386 . S
C94 H117 0.929 . S
C95 C94 1.386 . S
C95 C96 1.373 . S
C96 C95 1.373 . S
C96 C97 1.409 . S
C96 H118 0.931 . S
C97 C92 1.356 . S
C97 C96 1.409 . S
C97 H119 0.930 . S
C98 O108 1.270 . S
C98 O109 1.248 . S
C99 O110 1.267 . S
C99 O111 1.278 . S
O100 Pr80 2.562 . S
O100 C82 1.254 . S
O101 Pr80 2.490 . S
O101 C82 1.225 . S
O102 Pr80 2.695 . S
O102 Pr81 2.436 . S
O102 C89 1.270 . S
O103 Pr80 2.512 . S
O103 C89 1.248 . S
O104 Pr81 2.438 . S
O104 C90 1.267 . S
O105 Pr80 2.437 . S
O105 C90 1.278 . S
O106 Pr81 2.562 . S
O106 C91 1.254 . S
O107 Pr81 2.490 . S
O107 C91 1.225 . S
O108 Pr80 2.436 . S
O108 Pr81 2.695 . S
O108 C98 1.270 . S
O109 Pr81 2.512 . S
O109 C98 1.248 . S
O110 Pr80 2.438 . S
O110 C99 1.267 . S
O111 Pr81 2.437 . S
O111 C99 1.278 . S
H112 C84 0.929 . S
H113 C85 0.929 . S
H114 C87 0.931 . S
H115 C88 0.930 . S
H116 C93 0.929 . S
H117 C94 0.929 . S
H118 C96 0.931 . S
H119 C97 0.930 . S
Pr120 C122 2.880 . S
Pr120 O140 2.562 . S
Pr120 O141 2.490 . S
Pr120 O142 2.695 . S
Pr120 O143 2.512 . S
Pr120 O145 2.437 . S
Pr120 O148 2.436 . S
Pr120 O150 2.438 . S
Pr121 C131 2.880 . S
Pr121 O142 2.436 . S
Pr121 O144 2.438 . S
Pr121 O146 2.562 . S
Pr121 O147 2.490 . S
Pr121 O148 2.695 . S
Pr121 O149 2.512 . S
Pr121 O151 2.437 . S
C122 Pr120 2.880 . S
C122 C123 1.491 . S
C122 O140 1.254 . S
C122 O141 1.225 . S
C123 C122 1.491 . S
C123 C124 1.392 . S
C123 C128 1.356 . S
C124 C123 1.392 . S
C124 C125 1.368 . S
C124 H152 0.929 . S
C125 C124 1.368 . S
C125 C126 1.386 . S
C125 H153 0.929 . S
C126 C125 1.386 . S
C126 C127 1.373 . S
C127 C126 1.373 . S
C127 C128 1.409 . S
C127 H154 0.931 . S
C128 C123 1.356 . S
C128 C127 1.409 . S
C128 H155 0.930 . S
C129 O142 1.270 . S
C129 O143 1.248 . S
C130 O144 1.267 . S
C130 O145 1.278 . S
C131 Pr121 2.880 . S
C131 C132 1.491 . S
C131 O146 1.254 . S
C131 O147 1.225 . S
C132 C131 1.491 . S
C132 C133 1.392 . S
C132 C137 1.356 . S
C133 C132 1.392 . S
C133 C134 1.368 . S
C133 H156 0.929 . S
C134 C133 1.368 . S
C134 C135 1.386 . S
C134 H157 0.929 . S
C135 C134 1.386 . S
C135 C136 1.373 . S
C136 C135 1.373 . S
C136 C137 1.409 . S
C136 H158 0.931 . S
C137 C132 1.356 . S
C137 C136 1.409 . S
C137 H159 0.930 . S
C138 O148 1.270 . S
C138 O149 1.248 . S
C139 O150 1.267 . S
C139 O151 1.278 . S
O140 Pr120 2.562 . S
O140 C122 1.254 . S
O141 Pr120 2.490 . S
O141 C122 1.225 . S
O142 Pr120 2.695 . S
O142 Pr121 2.436 . S
O142 C129 1.270 . S
O143 Pr120 2.512 . S
O143 C129 1.248 . S
O144 Pr121 2.438 . S
O144 C130 1.267 . S
O145 Pr120 2.437 . S
O145 C130 1.278 . S
O146 Pr121 2.562 . S
O146 C131 1.254 . S
O147 Pr121 2.490 . S
O147 C131 1.225 . S
O148 Pr120 2.436 . S
O148 Pr121 2.695 . S
O148 C138 1.270 . S
O149 Pr121 2.512 . S
O149 C138 1.248 . S
O150 Pr120 2.438 . S
O150 C139 1.267 . S
O151 Pr121 2.437 . S
O151 C139 1.278 . S
H152 C124 0.929 . S
H153 C125 0.929 . S
H154 C127 0.931 . S
H155 C128 0.930 . S
H156 C133 0.929 . S
H157 C134 0.929 . S
H158 C136 0.931 . S
H159 C137 0.930 . S
Pr160 C162 2.880 1_556 S
Pr160 O180 2.562 1_556 S
Pr160 O181 2.490 1_556 S
Pr160 O182 2.695 . S
Pr160 O183 2.512 . S
Pr160 O185 2.437 1_556 S
Pr160 O188 2.436 1_556 S
Pr160 O190 2.438 . S
Pr161 C171 2.880 1_554 S
Pr161 O182 2.436 1_554 S
Pr161 O184 2.438 . S
Pr161 O186 2.562 1_554 S
Pr161 O187 2.490 1_554 S
Pr161 O188 2.695 . S
Pr161 O189 2.512 . S
Pr161 O191 2.437 1_554 S
C162 Pr160 2.880 1_554 S
C162 C163 1.491 . S
C162 O180 1.254 . S
C162 O181 1.225 . S
C163 C162 1.491 . S
C163 C164 1.392 . S
C163 C168 1.356 . S
C164 C163 1.392 . S
C164 C165 1.368 . S
C164 H192 0.929 . S
C165 C164 1.368 . S
C165 C166 1.386 . S
C165 H193 0.929 . S
C166 C165 1.386 . S
C166 C167 1.373 . S
C167 C166 1.373 . S
C167 C168 1.409 . S
C167 H194 0.931 . S
C168 C163 1.356 . S
C168 C167 1.409 . S
C168 H195 0.930 . S
C169 O182 1.270 . S
C169 O183 1.248 . S
C170 O184 1.267 . S
C170 O185 1.278 . S
C171 Pr161 2.880 1_556 S
C171 C172 1.491 . S
C171 O186 1.254 . S
C171 O187 1.225 . S
C172 C171 1.491 . S
C172 C173 1.392 . S
C172 C177 1.356 . S
C173 C172 1.392 . S
C173 C174 1.368 . S
C173 H196 0.929 . S
C174 C173 1.368 . S
C174 C175 1.386 . S
C174 H197 0.929 . S
C175 C174 1.386 . S
C175 C176 1.373 . S
C176 C175 1.373 . S
C176 C177 1.409 . S
C176 H198 0.931 . S
C177 C172 1.356 . S
C177 C176 1.409 . S
C177 H199 0.930 . S
C178 O188 1.270 . S
C178 O189 1.248 . S
C179 O190 1.267 . S
C179 O191 1.278 . S
O180 Pr160 2.562 1_554 S
O180 C162 1.254 . S
O181 Pr160 2.490 1_554 S
O181 C162 1.225 . S
O182 Pr160 2.695 . S
O182 Pr161 2.436 1_556 S
O182 C169 1.270 . S
O183 Pr160 2.512 . S
O183 C169 1.248 . S
O184 Pr161 2.438 . S
O184 C170 1.267 . S
O185 Pr160 2.437 1_554 S
O185 C170 1.278 . S
O186 Pr161 2.562 1_556 S
O186 C171 1.254 . S
O187 Pr161 2.490 1_556 S
O187 C171 1.225 . S
O188 Pr160 2.436 1_554 S
O188 Pr161 2.695 . S
O188 C178 1.270 . S
O189 Pr161 2.512 . S
O189 C178 1.248 . S
O190 Pr160 2.438 . S
O190 C179 1.267 . S
O191 Pr161 2.437 1_556 S
O191 C179 1.278 . S
H192 C164 0.929 . S
H193 C165 0.929 . S
H194 C167 0.931 . S
H195 C168 0.930 . S
H196 C173 0.929 . S
H197 C174 0.929 . S
H198 C176 0.931 . S
H199 C177 0.930 . S
Pr200 C202 2.880 1_556 S
Pr200 O220 2.562 1_556 S
Pr200 O221 2.490 1_556 S
Pr200 O222 2.695 . S
Pr200 O223 2.512 . S
Pr200 O225 2.437 1_556 S
Pr200 O228 2.436 1_556 S
Pr200 O230 2.438 . S
Pr201 C211 2.880 1_554 S
Pr201 O222 2.436 1_554 S
Pr201 O224 2.438 . S
Pr201 O226 2.562 1_554 S
Pr201 O227 2.490 1_554 S
Pr201 O228 2.695 . S
Pr201 O229 2.512 . S
Pr201 O231 2.437 1_554 S
C202 Pr200 2.880 1_554 S
C202 C203 1.491 . S
C202 O220 1.254 . S
C202 O221 1.225 . S
C203 C202 1.491 . S
C203 C204 1.392 . S
C203 C208 1.356 . S
C204 C203 1.392 . S
C204 C205 1.368 . S
C204 H232 0.929 . S
C205 C204 1.368 . S
C205 C206 1.386 . S
C205 H233 0.929 . S
C206 C205 1.386 . S
C206 C207 1.373 . S
C207 C206 1.373 . S
C207 C208 1.409 . S
C207 H234 0.931 . S
C208 C203 1.356 . S
C208 C207 1.409 . S
C208 H235 0.930 . S
C209 O222 1.270 . S
C209 O223 1.248 . S
C210 O224 1.267 . S
C210 O225 1.278 . S
C211 Pr201 2.880 1_556 S
C211 C212 1.491 . S
C211 O226 1.254 . S
C211 O227 1.225 . S
C212 C211 1.491 . S
C212 C213 1.392 . S
C212 C217 1.356 . S
C213 C212 1.392 . S
C213 C214 1.368 . S
C213 H236 0.929 . S
C214 C213 1.368 . S
C214 C215 1.386 . S
C214 H237 0.929 . S
C215 C214 1.386 . S
C215 C216 1.373 . S
C216 C215 1.373 . S
C216 C217 1.409 . S
C216 H238 0.931 . S
C217 C212 1.356 . S
C217 C216 1.409 . S
C217 H239 0.930 . S
C218 O228 1.270 . S
C218 O229 1.248 . S
C219 O230 1.267 . S
C219 O231 1.278 . S
O220 Pr200 2.562 1_554 S
O220 C202 1.254 . S
O221 Pr200 2.490 1_554 S
O221 C202 1.225 . S
O222 Pr200 2.695 . S
O222 Pr201 2.436 1_556 S
O222 C209 1.270 . S
O223 Pr200 2.512 . S
O223 C209 1.248 . S
O224 Pr201 2.438 . S
O224 C210 1.267 . S
O225 Pr200 2.437 1_554 S
O225 C210 1.278 . S
O226 Pr201 2.562 1_556 S
O226 C211 1.254 . S
O227 Pr201 2.490 1_556 S
O227 C211 1.225 . S
O228 Pr200 2.436 1_554 S
O228 Pr201 2.695 . S
O228 C218 1.270 . S
O229 Pr201 2.512 . S
O229 C218 1.248 . S
O230 Pr200 2.438 . S
O230 C219 1.267 . S
O231 Pr201 2.437 1_556 S
O231 C219 1.278 . S
H232 C204 0.929 . S
H233 C205 0.929 . S
H234 C207 0.931 . S
H235 C208 0.930 . S
H236 C213 0.929 . S
H237 C214 0.929 . S
H238 C216 0.931 . S
H239 C217 0.930 . S
Pr240 C242 2.880 1_556 S
Pr240 O260 2.562 1_556 S
Pr240 O261 2.490 1_556 S
Pr240 O262 2.695 . S
Pr240 O263 2.512 . S
Pr240 O265 2.437 1_556 S
Pr240 O268 2.436 1_556 S
Pr240 O270 2.438 . S
Pr241 C251 2.880 1_554 S
Pr241 O262 2.436 1_554 S
Pr241 O264 2.438 . S
Pr241 O266 2.562 1_554 S
Pr241 O267 2.490 1_554 S
Pr241 O268 2.695 . S
Pr241 O269 2.512 . S
Pr241 O271 2.437 1_554 S
C242 Pr240 2.880 1_554 S
C242 C243 1.491 . S
C242 O260 1.254 . S
C242 O261 1.225 . S
C243 C242 1.491 . S
C243 C244 1.392 . S
C243 C248 1.356 . S
C244 C243 1.392 . S
C244 C245 1.368 . S
C244 H272 0.929 . S
C245 C244 1.368 . S
C245 C246 1.386 . S
C245 H273 0.929 . S
C246 C245 1.386 . S
C246 C247 1.373 . S
C247 C246 1.373 . S
C247 C248 1.409 . S
C247 H274 0.931 . S
C248 C243 1.356 . S
C248 C247 1.409 . S
C248 H275 0.930 . S
C249 O262 1.270 . S
C249 O263 1.248 . S
C250 O264 1.267 . S
C250 O265 1.278 . S
C251 Pr241 2.880 1_556 S
C251 C252 1.491 . S
C251 O266 1.254 . S
C251 O267 1.225 . S
C252 C251 1.491 . S
C252 C253 1.392 . S
C252 C257 1.356 . S
C253 C252 1.392 . S
C253 C254 1.368 . S
C253 H276 0.929 . S
C254 C253 1.368 . S
C254 C255 1.386 . S
C254 H277 0.929 . S
C255 C254 1.386 . S
C255 C256 1.373 . S
C256 C255 1.373 . S
C256 C257 1.409 . S
C256 H278 0.931 . S
C257 C252 1.356 . S
C257 C256 1.409 . S
C257 H279 0.930 . S
C258 O268 1.270 . S
C258 O269 1.248 . S
C259 O270 1.267 . S
C259 O271 1.278 . S
O260 Pr240 2.562 1_554 S
O260 C242 1.254 . S
O261 Pr240 2.490 1_554 S
O261 C242 1.225 . S
O262 Pr240 2.695 . S
O262 Pr241 2.436 1_556 S
O262 C249 1.270 . S
O263 Pr240 2.512 . S
O263 C249 1.248 . S
O264 Pr241 2.438 . S
O264 C250 1.267 . S
O265 Pr240 2.437 1_554 S
O265 C250 1.278 . S
O266 Pr241 2.562 1_556 S
O266 C251 1.254 . S
O267 Pr241 2.490 1_556 S
O267 C251 1.225 . S
O268 Pr240 2.436 1_554 S
O268 Pr241 2.695 . S
O268 C258 1.270 . S
O269 Pr241 2.512 . S
O269 C258 1.248 . S
O270 Pr240 2.438 . S
O270 C259 1.267 . S
O271 Pr241 2.437 1_556 S
O271 C259 1.278 . S
H272 C244 0.929 . S
H273 C245 0.929 . S
H274 C247 0.931 . S
H275 C248 0.930 . S
H276 C253 0.929 . S
H277 C254 0.929 . S
H278 C256 0.931 . S
H279 C257 0.930 . S
Pr280 C282 2.880 1_556 S
Pr280 O300 2.562 1_556 S
Pr280 O301 2.490 1_556 S
Pr280 O302 2.695 . S
Pr280 O303 2.512 . S
Pr280 O305 2.437 1_556 S
Pr280 O308 2.436 1_556 S
Pr280 O310 2.438 . S
Pr281 C291 2.880 1_554 S
Pr281 O302 2.436 1_554 S
Pr281 O304 2.438 . S
Pr281 O306 2.562 1_554 S
Pr281 O307 2.490 1_554 S
Pr281 O308 2.695 . S
Pr281 O309 2.512 . S
Pr281 O311 2.437 1_554 S
C282 Pr280 2.880 1_554 S
C282 C283 1.491 . S
C282 O300 1.254 . S
C282 O301 1.225 . S
C283 C282 1.491 . S
C283 C284 1.392 . S
C283 C288 1.356 . S
C284 C283 1.392 . S
C284 C285 1.368 . S
C284 H312 0.929 . S
C285 C284 1.368 . S
C285 C286 1.386 . S
C285 H313 0.929 . S
C286 C285 1.386 . S
C286 C287 1.373 . S
C287 C286 1.373 . S
C287 C288 1.409 . S
C287 H314 0.931 . S
C288 C283 1.356 . S
C288 C287 1.409 . S
C288 H315 0.930 . S
C289 O302 1.270 . S
C289 O303 1.248 . S
C290 O304 1.267 . S
C290 O305 1.278 . S
C291 Pr281 2.880 1_556 S
C291 C292 1.491 . S
C291 O306 1.254 . S
C291 O307 1.225 . S
C292 C291 1.491 . S
C292 C293 1.392 . S
C292 C297 1.356 . S
C293 C292 1.392 . S
C293 C294 1.368 . S
C293 H316 0.929 . S
C294 C293 1.368 . S
C294 C295 1.386 . S
C294 H317 0.929 . S
C295 C294 1.386 . S
C295 C296 1.373 . S
C296 C295 1.373 . S
C296 C297 1.409 . S
C296 H318 0.931 . S
C297 C292 1.356 . S
C297 C296 1.409 . S
C297 H319 0.930 . S
C298 O308 1.270 . S
C298 O309 1.248 . S
C299 O310 1.267 . S
C299 O311 1.278 . S
O300 Pr280 2.562 1_554 S
O300 C282 1.254 . S
O301 Pr280 2.490 1_554 S
O301 C282 1.225 . S
O302 Pr280 2.695 . S
O302 Pr281 2.436 1_556 S
O302 C289 1.270 . S
O303 Pr280 2.512 . S
O303 C289 1.248 . S
O304 Pr281 2.438 . S
O304 C290 1.267 . S
O305 Pr280 2.437 1_554 S
O305 C290 1.278 . S
O306 Pr281 2.562 1_556 S
O306 C291 1.254 . S
O307 Pr281 2.490 1_556 S
O307 C291 1.225 . S
O308 Pr280 2.436 1_554 S
O308 Pr281 2.695 . S
O308 C298 1.270 . S
O309 Pr281 2.512 . S
O309 C298 1.248 . S
O310 Pr280 2.438 . S
O310 C299 1.267 . S
O311 Pr281 2.437 1_556 S
O311 C299 1.278 . S
H312 C284 0.929 . S
H313 C285 0.929 . S
H314 C287 0.931 . S
H315 C288 0.930 . S
H316 C293 0.929 . S
H317 C294 0.929 . S
H318 C296 0.931 . S
H319 C297 0.930 . S
H320 C326 0.930 . S
H321 C329 0.930 . S
H322 C330 0.930 . S
H323 C331 0.930 . S
H324 C334 0.930 . S
H325 C335 0.930 . S
C326 H320 0.930 . S
C326 C327 1.355 . S
C326 C328 1.415 . S
C327 C326 1.355 . S
C327 C329 1.419 . S
C328 C326 1.415 . S
C328 C333 1.425 . S
C328 C335 1.409 . S
C329 H321 0.930 . S
C329 C327 1.419 . S
C329 C330 1.362 . S
C330 H322 0.930 . S
C330 C329 1.362 . S
C330 C333 1.409 . S
C331 H323 0.930 . S
C331 C332 1.355 . S
C331 C333 1.415 . S
C332 C331 1.355 . S
C332 C334 1.419 . S
C333 C328 1.425 . S
C333 C330 1.409 . S
C333 C331 1.415 . S
C334 H324 0.930 . S
C334 C332 1.419 . S
C334 C335 1.362 . S
C335 H325 0.930 . S
C335 C328 1.409 . S
C335 C334 1.362 . S
H336 C342 0.930 . S
H337 C345 0.930 . S
H338 C346 0.930 . S
H339 C347 0.930 . S
H340 C350 0.930 . S
H341 C351 0.930 . S
C342 H336 0.930 . S
C342 C343 1.355 . S
C342 C344 1.415 . S
C343 C342 1.355 . S
C343 C345 1.419 . S
C344 C342 1.415 . S
C344 C349 1.425 . S
C344 C351 1.409 . S
C345 H337 0.930 . S
C345 C343 1.419 . S
C345 C346 1.362 . S
C346 H338 0.930 . S
C346 C345 1.362 . S
C346 C349 1.409 . S
C347 H339 0.930 . S
C347 C348 1.355 . S
C347 C349 1.415 . S
C348 C347 1.355 . S
C348 C350 1.419 . S
C349 C344 1.425 . S
C349 C346 1.409 . S
C349 C347 1.415 . S
C350 H340 0.930 . S
C350 C348 1.419 . S
C350 C351 1.362 . S
C351 H341 0.930 . S
C351 C344 1.409 . S
C351 C350 1.362 . S
H352 C358 0.930 . S
H353 C361 0.930 . S
H354 C362 0.930 . S
H355 C363 0.930 . S
H356 C366 0.930 . S
H357 C367 0.930 . S
C358 H352 0.930 . S
C358 C359 1.355 . S
C358 C360 1.415 . S
C359 C358 1.355 . S
C359 C361 1.419 . S
C360 C358 1.415 . S
C360 C365 1.425 . S
C360 C367 1.409 . S
C361 H353 0.930 . S
C361 C359 1.419 . S
C361 C362 1.362 . S
C362 H354 0.930 . S
C362 C361 1.362 . S
C362 C365 1.409 . S
C363 H355 0.930 . S
C363 C364 1.355 . S
C363 C365 1.415 . S
C364 C363 1.355 . S
C364 C366 1.419 . S
C365 C360 1.425 . S
C365 C362 1.409 . S
C365 C363 1.415 . S
C366 H356 0.930 . S
C366 C364 1.419 . S
C366 C367 1.362 . S
C367 H357 0.930 . S
C367 C360 1.409 . S
C367 C366 1.362 . S
H368 C374 0.930 . S
H369 C377 0.930 . S
H370 C378 0.930 . S
H371 C379 0.930 . S
H372 C382 0.930 . S
H373 C383 0.930 . S
C374 H368 0.930 . S
C374 C375 1.355 . S
C374 C376 1.415 . S
C375 C374 1.355 . S
C375 C377 1.419 . S
C376 C374 1.415 . S
C376 C381 1.425 . S
C376 C383 1.409 . S
C377 H369 0.930 . S
C377 C375 1.419 . S
C377 C378 1.362 . S
C378 H370 0.930 . S
C378 C377 1.362 . S
C378 C381 1.409 . S
C379 H371 0.930 . S
C379 C380 1.355 . S
C379 C381 1.415 . S
C380 C379 1.355 . S
C380 C382 1.419 . S
C381 C376 1.425 . S
C381 C378 1.409 . S
C381 C379 1.415 . S
C382 H372 0.930 . S
C382 C380 1.419 . S
C382 C383 1.362 . S
C383 H373 0.930 . S
C383 C376 1.409 . S
C383 C382 1.362 . S
H384 C390 0.930 . S
H385 C393 0.930 . S
H386 C394 0.930 . S
H387 C395 0.930 . S
H388 C398 0.930 . S
H389 C399 0.930 . S
C390 H384 0.930 . S
C390 C391 1.355 . S
C390 C392 1.415 . S
C391 C390 1.355 . S
C391 C393 1.419 . S
C392 C390 1.415 . S
C392 C397 1.425 1_565 S
C392 C399 1.409 1_565 S
C393 H385 0.930 . S
C393 C391 1.419 . S
C393 C394 1.362 . S
C394 H386 0.930 . S
C394 C393 1.362 . S
C394 C397 1.409 1_565 S
C395 H387 0.930 . S
C395 C396 1.355 . S
C395 C397 1.415 . S
C396 C395 1.355 . S
C396 C398 1.419 . S
C397 C392 1.425 1_545 S
C397 C394 1.409 1_545 S
C397 C395 1.415 . S
C398 H388 0.930 . S
C398 C396 1.419 . S
C398 C399 1.362 . S
C399 H389 0.930 . S
C399 C392 1.409 1_545 S
C399 C398 1.362 . S
H400 C406 0.930 . S
H401 C409 0.930 . S
H402 C410 0.930 . S
H403 C411 0.930 . S
H404 C414 0.930 . S
H405 C415 0.930 . S
C406 H400 0.930 . S
C406 C407 1.355 . S
C406 C408 1.415 . S
C407 C406 1.355 . S
C407 C409 1.419 . S
C408 C406 1.415 . S
C408 C413 1.425 . S
C408 C415 1.409 . S
C409 H401 0.930 . S
C409 C407 1.419 . S
C409 C410 1.362 . S
C410 H402 0.930 . S
C410 C409 1.362 . S
C410 C413 1.409 . S
C411 H403 0.930 . S
C411 C412 1.355 . S
C411 C413 1.415 . S
C412 C411 1.355 . S
C412 C414 1.419 . S
C413 C408 1.425 . S
C413 C410 1.409 . S
C413 C411 1.415 . S
C414 H404 0.930 . S
C414 C412 1.419 . S
C414 C415 1.362 . S
C415 H405 0.930 . S
C415 C408 1.409 . S
C415 C414 1.362 . S
H416 C422 0.930 . S
H417 C425 0.930 . S
H418 C426 0.930 . S
H419 C427 0.930 . S
H420 C430 0.930 . S
H421 C431 0.930 . S
C422 H416 0.930 . S
C422 C423 1.355 . S
C422 C424 1.415 . S
C423 C422 1.355 . S
C423 C425 1.419 . S
C424 C422 1.415 . S
C424 C429 1.425 1_565 S
C424 C431 1.409 1_565 S
C425 H417 0.930 . S
C425 C423 1.419 . S
C425 C426 1.362 . S
C426 H418 0.930 . S
C426 C425 1.362 . S
C426 C429 1.409 1_565 S
C427 H419 0.930 . S
C427 C428 1.355 . S
C427 C429 1.415 . S
C428 C427 1.355 . S
C428 C430 1.419 . S
C429 C424 1.425 1_545 S
C429 C426 1.409 1_545 S
C429 C427 1.415 . S
C430 H420 0.930 . S
C430 C428 1.419 . S
C430 C431 1.362 . S
C431 H421 0.930 . S
C431 C424 1.409 1_545 S
C431 C430 1.362 . S
H432 C438 0.930 . S
H433 C441 0.930 . S
H434 C442 0.930 . S
H435 C443 0.930 . S
H436 C446 0.930 . S
H437 C447 0.930 . S
C438 H432 0.930 . S
C438 C439 1.355 . S
C438 C440 1.415 . S
C439 C438 1.355 . S
C439 C441 1.419 . S
C440 C438 1.415 . S
C440 C445 1.425 . S
C440 C447 1.409 . S
C441 H433 0.930 . S
C441 C439 1.419 . S
C441 C442 1.362 . S
C442 H434 0.930 . S
C442 C441 1.362 . S
C442 C445 1.409 . S
C443 H435 0.930 . S
C443 C444 1.355 . S
C443 C445 1.415 . S
C444 C443 1.355 . S
C444 C446 1.419 . S
C445 C440 1.425 . S
C445 C442 1.409 . S
C445 C443 1.415 . S
C446 H436 0.930 . S
C446 C444 1.419 . S
C446 C447 1.362 . S
C447 H437 0.930 . S
C447 C440 1.409 . S
C447 C446 1.362 . S
H448 C454 0.930 . S
H449 C457 0.930 . S
H450 C458 0.930 . S
H451 C459 0.930 . S
H452 C462 0.930 . S
H453 C463 0.930 . S
C454 H448 0.930 . S
C454 C455 1.355 1_554 S
C454 C456 1.415 . S
C455 C454 1.355 1_556 S
C455 C457 1.419 . S
C456 C454 1.415 . S
C456 C461 1.425 1_554 S
C456 C463 1.409 . S
C457 H449 0.930 . S
C457 C455 1.419 . S
C457 C458 1.362 . S
C458 H450 0.930 . S
C458 C457 1.362 . S
C458 C461 1.409 . S
C459 H451 0.930 . S
C459 C460 1.355 . S
C459 C461 1.415 . S
C460 C459 1.355 . S
C460 C462 1.419 1_556 S
C461 C456 1.425 1_556 S
C461 C458 1.409 . S
C461 C459 1.415 . S
C462 H452 0.930 . S
C462 C460 1.419 1_554 S
C462 C463 1.362 . S
C463 H453 0.930 . S
C463 C456 1.409 . S
C463 C462 1.362 . S
H464 C470 0.930 . S
H465 C473 0.930 . S
H466 C474 0.930 . S
H467 C475 0.930 . S
H468 C478 0.930 . S
H469 C479 0.930 . S
C470 H464 0.930 . S
C470 C471 1.355 1_556 S
C470 C472 1.415 . S
C471 C470 1.355 1_554 S
C471 C473 1.419 . S
C472 C470 1.415 . S
C472 C477 1.425 1_566 S
C472 C479 1.409 1_565 S
C473 H465 0.930 . S
C473 C471 1.419 . S
C473 C474 1.362 . S
C474 H466 0.930 . S
C474 C473 1.362 . S
C474 C477 1.409 1_565 S
C475 H467 0.930 . S
C475 C476 1.355 1_554 S
C475 C477 1.415 . S
C476 C475 1.355 1_556 S
C476 C478 1.419 . S
C477 C472 1.425 1_544 S
C477 C474 1.409 1_545 S
C477 C475 1.415 . S
C478 H468 0.930 . S
C478 C476 1.419 . S
C478 C479 1.362 . S
C479 H469 0.930 . S
C479 C472 1.409 1_545 S
C479 C478 1.362 . S
H480 C486 0.930 . S
H481 C489 0.930 . S
H482 C490 0.930 . S
H483 C491 0.930 . S
H484 C494 0.930 . S
H485 C495 0.930 . S
C486 H480 0.930 . S
C486 C487 1.355 1_554 S
C486 C488 1.415 . S
C487 C486 1.355 1_556 S
C487 C489 1.419 . S
C488 C486 1.415 . S
C488 C493 1.425 1_554 S
C488 C495 1.409 . S
C489 H481 0.930 . S
C489 C487 1.419 . S
C489 C490 1.362 . S
C490 H482 0.930 . S
C490 C489 1.362 . S
C490 C493 1.409 . S
C491 H483 0.930 . S
C491 C492 1.355 1_556 S
C491 C493 1.415 . S
C492 C491 1.355 1_554 S
C492 C494 1.419 . S
C493 C488 1.425 1_556 S
C493 C490 1.409 . S
C493 C491 1.415 . S
C494 H484 0.930 . S
C494 C492 1.419 . S
C494 C495 1.362 . S
C495 H485 0.930 . S
C495 C488 1.409 . S
C495 C494 1.362 . S
H496 C502 0.930 . S
H497 C505 0.930 . S
H498 C506 0.930 . S
H499 C507 0.930 . S
H500 C510 0.930 . S
H501 C511 0.930 . S
C502 H496 0.930 . S
C502 C503 1.355 1_554 S
C502 C504 1.415 . S
C503 C502 1.355 1_556 S
C503 C505 1.419 . S
C504 C502 1.415 . S
C504 C509 1.425 1_544 S
C504 C511 1.409 1_545 S
C505 H497 0.930 . S
C505 C503 1.419 . S
C505 C506 1.362 . S
C506 H498 0.930 . S
C506 C505 1.362 . S
C506 C509 1.409 1_545 S
C507 H499 0.930 . S
C507 C508 1.355 1_556 S
C507 C509 1.415 . S
C508 C507 1.355 1_554 S
C508 C510 1.419 . S
C509 C504 1.425 1_566 S
C509 C506 1.409 1_565 S
C509 C507 1.415 . S
C510 H500 0.930 . S
C510 C508 1.419 . S
C510 C511 1.362 . S
C511 H501 0.930 . S
C511 C504 1.409 1_565 S
C511 C510 1.362 . S
H512 C518 0.930 . S
H513 C521 0.930 . S
H514 C522 0.930 . S
H515 C523 0.930 . S
H516 C526 0.930 . S
H517 C527 0.930 . S
C518 H512 0.930 . S
C518 C519 1.355 . S
C518 C520 1.415 1_554 S
C519 C518 1.355 . S
C519 C521 1.419 . S
C520 C518 1.415 1_556 S
C520 C525 1.425 . S
C520 C527 1.409 . S
C521 H513 0.930 . S
C521 C519 1.419 . S
C521 C522 1.362 1_554 S
C522 H514 0.930 . S
C522 C521 1.362 1_556 S
C522 C525 1.409 . S
C523 H515 0.930 . S
C523 C524 1.355 . S
C523 C525 1.415 . S
C524 C523 1.355 . S
C524 C526 1.419 . S
C525 C520 1.425 . S
C525 C522 1.409 . S
C525 C523 1.415 . S
C526 H516 0.930 . S
C526 C524 1.419 . S
C526 C527 1.362 . S
C527 H517 0.930 . S
C527 C520 1.409 . S
C527 C526 1.362 . S
H528 C534 0.930 . S
H529 C537 0.930 . S
H530 C538 0.930 . S
H531 C539 0.930 . S
H532 C542 0.930 . S
H533 C543 0.930 . S
C534 H528 0.930 . S
C534 C535 1.355 . S
C534 C536 1.415 1_554 S
C535 C534 1.355 . S
C535 C537 1.419 . S
C536 C534 1.415 1_556 S
C536 C541 1.425 . S
C536 C543 1.409 . S
C537 H529 0.930 . S
C537 C535 1.419 . S
C537 C538 1.362 1_554 S
C538 H530 0.930 . S
C538 C537 1.362 1_556 S
C538 C541 1.409 . S
C539 H531 0.930 . S
C539 C540 1.355 . S
C539 C541 1.415 . S
C540 C539 1.355 . S
C540 C542 1.419 . S
C541 C536 1.425 . S
C541 C538 1.409 . S
C541 C539 1.415 . S
C542 H532 0.930 . S
C542 C540 1.419 . S
C542 C543 1.362 . S
C543 H533 0.930 . S
C543 C536 1.409 . S
C543 C542 1.362 . S
H544 C550 0.930 . S
H545 C553 0.930 . S
H546 C554 0.930 . S
H547 C555 0.930 . S
H548 C558 0.930 . S
H549 C559 0.930 . S
C550 H544 0.930 . S
C550 C551 1.355 . S
C550 C552 1.415 . S
C551 C550 1.355 . S
C551 C553 1.419 . S
C552 C550 1.415 . S
C552 C557 1.425 . S
C552 C559 1.409 . S
C553 H545 0.930 . S
C553 C551 1.419 . S
C553 C554 1.362 . S
C554 H546 0.930 . S
C554 C553 1.362 . S
C554 C557 1.409 . S
C555 H547 0.930 . S
C555 C556 1.355 . S
C555 C557 1.415 1_556 S
C556 C555 1.355 . S
C556 C558 1.419 . S
C557 C552 1.425 . S
C557 C554 1.409 . S
C557 C555 1.415 1_554 S
C558 H548 0.930 . S
C558 C556 1.419 . S
C558 C559 1.362 1_556 S
C559 H549 0.930 . S
C559 C552 1.409 . S
C559 C558 1.362 1_554 S
H560 C566 0.930 . S
H561 C569 0.930 . S
H562 C570 0.930 . S
H563 C571 0.930 . S
H564 C574 0.930 . S
H565 C575 0.930 . S
C566 H560 0.930 . S
C566 C567 1.355 . S
C566 C568 1.415 1_556 S
C567 C566 1.355 . S
C567 C569 1.419 . S
C568 C566 1.415 1_554 S
C568 C573 1.425 . S
C568 C575 1.409 . S
C569 H561 0.930 . S
C569 C567 1.419 . S
C569 C570 1.362 1_556 S
C570 H562 0.930 . S
C570 C569 1.362 1_554 S
C570 C573 1.409 . S
C571 H563 0.930 . S
C571 C572 1.355 . S
C571 C573 1.415 . S
C572 C571 1.355 . S
C572 C574 1.419 . S
C573 C568 1.425 . S
C573 C570 1.409 . S
C573 C571 1.415 . S
C574 H564 0.930 . S
C574 C572 1.419 . S
C574 C575 1.362 . S
C575 H565 0.930 . S
C575 C568 1.409 . S
C575 C574 1.362 . S
H576 C582 0.930 . S
H577 C585 0.930 . S
H578 C586 0.930 . S
H579 C587 0.930 . S
H580 C590 0.930 . S
H581 C591 0.930 . S
C582 H576 0.930 . S
C582 C583 1.355 . S
C582 C584 1.415 . S
C583 C582 1.355 . S
C583 C585 1.419 . S
C584 C582 1.415 . S
C584 C589 1.425 . S
C584 C591 1.409 . S
C585 H577 0.930 . S
C585 C583 1.419 . S
C585 C586 1.362 . S
C586 H578 0.930 . S
C586 C585 1.362 . S
C586 C589 1.409 . S
C587 H579 0.930 . S
C587 C588 1.355 . S
C587 C589 1.415 . S
C588 C587 1.355 . S
C588 C590 1.419 . S
C589 C584 1.425 . S
C589 C586 1.409 . S
C589 C587 1.415 . S
C590 H580 0.930 . S
C590 C588 1.419 . S
C590 C591 1.362 . S
C591 H581 0.930 . S
C591 C584 1.409 . S
C591 C590 1.362 . S
H592 C598 0.930 . S
H593 C601 0.930 . S
H594 C602 0.930 . S
H595 C603 0.930 . S
H596 C606 0.930 . S
H597 C607 0.930 . S
C598 H592 0.930 . S
C598 C599 1.355 . S
C598 C600 1.415 . S
C599 C598 1.355 . S
C599 C601 1.419 . S
C600 C598 1.415 . S
C600 C605 1.425 . S
C600 C607 1.409 . S
C601 H593 0.930 . S
C601 C599 1.419 . S
C601 C602 1.362 . S
C602 H594 0.930 . S
C602 C601 1.362 . S
C602 C605 1.409 . S
C603 H595 0.930 . S
C603 C604 1.355 . S
C603 C605 1.415 . S
C604 C603 1.355 . S
C604 C606 1.419 . S
C605 C600 1.425 . S
C605 C602 1.409 . S
C605 C603 1.415 . S
C606 H596 0.930 . S
C606 C604 1.419 . S
C606 C607 1.362 . S
C607 H597 0.930 . S
C607 C600 1.409 . S
C607 C606 1.362 . S
H608 C614 0.930 . S
H609 C617 0.930 . S
H610 C618 0.930 . S
H611 C619 0.930 . S
H612 C622 0.930 . S
H613 C623 0.930 . S
C614 H608 0.930 . S
C614 C615 1.355 . S
C614 C616 1.415 . S
C615 C614 1.355 . S
C615 C617 1.419 . S
C616 C614 1.415 . S
C616 C621 1.425 . S
C616 C623 1.409 . S
C617 H609 0.930 . S
C617 C615 1.419 . S
C617 C618 1.362 . S
C618 H610 0.930 . S
C618 C617 1.362 . S
C618 C621 1.409 . S
C619 H611 0.930 . S
C619 C620 1.355 . S
C619 C621 1.415 . S
C620 C619 1.355 . S
C620 C622 1.419 . S
C621 C616 1.425 . S
C621 C618 1.409 . S
C621 C619 1.415 . S
C622 H612 0.930 . S
C622 C620 1.419 . S
C622 C623 1.362 . S
C623 H613 0.930 . S
C623 C616 1.409 . S
C623 C622 1.362 . S
H624 C630 0.930 . S
H625 C633 0.930 . S
H626 C634 0.930 . S
H627 C635 0.930 . S
H628 C638 0.930 . S
H629 C639 0.930 . S
C630 H624 0.930 . S
C630 C631 1.355 . S
C630 C632 1.415 . S
C631 C630 1.355 . S
C631 C633 1.419 . S
C632 C630 1.415 . S
C632 C637 1.425 . S
C632 C639 1.409 . S
C633 H625 0.930 . S
C633 C631 1.419 . S
C633 C634 1.362 . S
C634 H626 0.930 . S
C634 C633 1.362 . S
C634 C637 1.409 . S
C635 H627 0.930 . S
C635 C636 1.355 . S
C635 C637 1.415 . S
C636 C635 1.355 . S
C636 C638 1.419 . S
C637 C632 1.425 . S
C637 C634 1.409 . S
C637 C635 1.415 . S
C638 H628 0.930 . S
C638 C636 1.419 . S
C638 C639 1.362 . S
C639 H629 0.930 . S
C639 C632 1.409 . S
C639 C638 1.362 . S
H640 C646 0.930 . S
H641 C649 0.930 . S
H642 C650 0.930 . S
H643 C651 0.930 . S
H644 C654 0.930 . S
H645 C655 0.930 . S
C646 H640 0.930 . S
C646 C647 1.355 . S
C646 C648 1.415 . S
C647 C646 1.355 . S
C647 C649 1.419 . S
C648 C646 1.415 . S
C648 C653 1.425 1_455 S
C648 C655 1.409 1_455 S
C649 H641 0.930 . S
C649 C647 1.419 . S
C649 C650 1.362 . S
C650 H642 0.930 . S
C650 C649 1.362 . S
C650 C653 1.409 1_455 S
C651 H643 0.930 . S
C651 C652 1.355 . S
C651 C653 1.415 . S
C652 C651 1.355 . S
C652 C654 1.419 . S
C653 C648 1.425 1_655 S
C653 C650 1.409 1_655 S
C653 C651 1.415 . S
C654 H644 0.930 . S
C654 C652 1.419 . S
C654 C655 1.362 . S
C655 H645 0.930 . S
C655 C648 1.409 1_655 S
C655 C654 1.362 . S
H656 C662 0.930 . S
H657 C665 0.930 . S
H658 C666 0.930 . S
H659 C667 0.930 . S
H660 C670 0.930 . S
H661 C671 0.930 . S
C662 H656 0.930 . S
C662 C663 1.355 . S
C662 C664 1.415 . S
C663 C662 1.355 . S
C663 C665 1.419 . S
C664 C662 1.415 . S
C664 C669 1.425 1_655 S
C664 C671 1.409 1_655 S
C665 H657 0.930 . S
C665 C663 1.419 . S
C665 C666 1.362 . S
C666 H658 0.930 . S
C666 C665 1.362 . S
C666 C669 1.409 1_655 S
C667 H659 0.930 . S
C667 C668 1.355 . S
C667 C669 1.415 . S
C668 C667 1.355 . S
C668 C670 1.419 . S
C669 C664 1.425 1_455 S
C669 C666 1.409 1_455 S
C669 C667 1.415 . S
C670 H660 0.930 . S
C670 C668 1.419 . S
C670 C671 1.362 . S
C671 H661 0.930 . S
C671 C664 1.409 1_455 S
C671 C670 1.362 . S
H672 C678 0.930 . S
H673 C681 0.930 . S
H674 C682 0.930 . S
H675 C683 0.930 . S
H676 C686 0.930 . S
H677 C687 0.930 . S
C678 H672 0.930 . S
C678 C679 1.355 . S
C678 C680 1.415 . S
C679 C678 1.355 . S
C679 C681 1.419 . S
C680 C678 1.415 . S
C680 C685 1.425 . S
C680 C687 1.409 . S
C681 H673 0.930 . S
C681 C679 1.419 . S
C681 C682 1.362 . S
C682 H674 0.930 . S
C682 C681 1.362 . S
C682 C685 1.409 . S
C683 H675 0.930 . S
C683 C684 1.355 . S
C683 C685 1.415 . S
C684 C683 1.355 . S
C684 C686 1.419 . S
C685 C680 1.425 . S
C685 C682 1.409 . S
C685 C683 1.415 . S
C686 H676 0.930 . S
C686 C684 1.419 . S
C686 C687 1.362 . S
C687 H677 0.930 . S
C687 C680 1.409 . S
C687 C686 1.362 . S
H688 C694 0.930 . S
H689 C697 0.930 . S
H690 C698 0.930 . S
H691 C699 0.930 . S
H692 C702 0.930 . S
H693 C703 0.930 . S
C694 H688 0.930 . S
C694 C695 1.355 . S
C694 C696 1.415 . S
C695 C694 1.355 . S
C695 C697 1.419 . S
C696 C694 1.415 . S
C696 C701 1.425 . S
C696 C703 1.409 . S
C697 H689 0.930 . S
C697 C695 1.419 . S
C697 C698 1.362 . S
C698 H690 0.930 . S
C698 C697 1.362 . S
C698 C701 1.409 . S
C699 H691 0.930 . S
C699 C700 1.355 . S
C699 C701 1.415 . S
C700 C699 1.355 . S
C700 C702 1.419 . S
C701 C696 1.425 . S
C701 C698 1.409 . S
C701 C699 1.415 . S
C702 H692 0.930 . S
C702 C700 1.419 . S
C702 C703 1.362 . S
C703 H693 0.930 . S
C703 C696 1.409 . S
C703 C702 1.362 . S
C327 C6 1.653 . S
C332 C295 1.652 . S
C343 C255 1.688 . S
C348 C46 1.687 . S
C359 C206 1.673 . S
C364 C95 1.673 . S
C375 C166 1.687 . S
C380 C135 1.687 . S
C391 C89 1.527 . S
C396 C9 1.559 . S
C407 C49 1.585 . S
C412 C129 1.550 . S
C423 C138 1.619 . S
C428 C58 1.596 . S
C439 C98 1.618 . S
C444 C18 1.593 . S
C455 C169 1.399 . S
C460 C249 1.400 . S
C471 C209 1.433 1_554 S
C476 C289 1.420 . S
C487 C298 1.440 1_556 S
C492 C218 1.428 . S
C503 C258 1.445 1_556 S
C508 C178 1.432 . S
C519 C19 2.030 . S
C524 C10 2.030 . S
C535 C59 2.026 . S
C540 C50 2.026 . S
C551 C99 2.036 . S
C556 C90 2.036 . S
C567 C130 2.062 . S
C572 C139 2.062 . S
C583 C170 2.078 . S
C588 C179 2.078 . S
C599 C219 2.029 . S
C604 C210 2.029 . S
C615 C250 2.078 . S
C620 C259 2.078 . S
C631 C290 2.065 . S
C636 C299 2.065 . S
C647 C15 2.270 . S
C652 C55 2.272 . S
C663 C126 2.280 . S
C668 C86 2.268 . S
C679 C175 2.284 . S
C684 C215 2.262 . S
C695 C286 2.285 . S
C700 C246 2.266 . S
