# Generated by pormake.
# Topology pcb, (4)-cn, num edge types: 1
# Building blocks:
#     Node 0, Type 0, BuildingBlock: UXUYUI_clean_sbu_0, # of connection points: 4
#     Node 1, Type 0, BuildingBlock: UXUYUI_clean_sbu_0, # of connection points: 4
#     Node 2, Type 0, BuildingBlock: UXUYUI_clean_sbu_0, # of connection points: 4
#     Node 3, Type 0, BuildingBlock: UXUYUI_clean_sbu_0, # of connection points: 4
#     Node 4, Type 0, BuildingBlock: UXUYUI_clean_sbu_0, # of connection points: 4
#     Node 5, Type 0, BuildingBlock: UXUYUI_clean_sbu_0, # of connection points: 4
#     Node 6, Type 0, BuildingBlock: UXUYUI_clean_sbu_0, # of connection points: 4
#     Node 7, Type 0, BuildingBlock: UXUYUI_clean_sbu_0, # of connection points: 4
#     Node 8, Type 0, BuildingBlock: UXUYUI_clean_sbu_0, # of connection points: 4
#     Node 9, Type 0, BuildingBlock: UXUYUI_clean_sbu_0, # of connection points: 4
#     Node 10, Type 0, BuildingBlock: UXUYUI_clean_sbu_0, # of connection points: 4
#     Node 11, Type 0, BuildingBlock: UXUYUI_clean_sbu_0, # of connection points: 4
#     Node 12, Type 0, BuildingBlock: UXUYUI_clean_sbu_0, # of connection points: 4
#     Node 13, Type 0, BuildingBlock: UXUYUI_clean_sbu_0, # of connection points: 4
#     Node 14, Type 0, BuildingBlock: UXUYUI_clean_sbu_0, # of connection points: 4
#     Node 15, Type 0, BuildingBlock: UXUYUI_clean_sbu_0, # of connection points: 4
#     Edge 16, Type (0, 0), BuildingBlock: EZIPEK_clean_linker_0, # of connection points: 2
#     Edge 17, Type (0, 0), BuildingBlock: EZIPEK_clean_linker_0, # of connection points: 2
#     Edge 18, Type (0, 0), BuildingBlock: EZIPEK_clean_linker_0, # of connection points: 2
#     Edge 19, Type (0, 0), BuildingBlock: EZIPEK_clean_linker_0, # of connection points: 2
#     Edge 20, Type (0, 0), BuildingBlock: EZIPEK_clean_linker_0, # of connection points: 2
#     Edge 21, Type (0, 0), BuildingBlock: EZIPEK_clean_linker_0, # of connection points: 2
#     Edge 22, Type (0, 0), BuildingBlock: EZIPEK_clean_linker_0, # of connection points: 2
#     Edge 23, Type (0, 0), BuildingBlock: EZIPEK_clean_linker_0, # of connection points: 2
#     Edge 24, Type (0, 0), BuildingBlock: EZIPEK_clean_linker_0, # of connection points: 2
#     Edge 25, Type (0, 0), BuildingBlock: EZIPEK_clean_linker_0, # of connection points: 2
#     Edge 26, Type (0, 0), BuildingBlock: EZIPEK_clean_linker_0, # of connection points: 2
#     Edge 27, Type (0, 0), BuildingBlock: EZIPEK_clean_linker_0, # of connection points: 2
#     Edge 28, Type (0, 0), BuildingBlock: EZIPEK_clean_linker_0, # of connection points: 2
#     Edge 29, Type (0, 0), BuildingBlock: EZIPEK_clean_linker_0, # of connection points: 2
#     Edge 30, Type (0, 0), BuildingBlock: EZIPEK_clean_linker_0, # of connection points: 2
#     Edge 31, Type (0, 0), BuildingBlock: EZIPEK_clean_linker_0, # of connection points: 2
#     Edge 32, Type (0, 0), BuildingBlock: EZIPEK_clean_linker_0, # of connection points: 2
#     Edge 33, Type (0, 0), BuildingBlock: EZIPEK_clean_linker_0, # of connection points: 2
#     Edge 34, Type (0, 0), BuildingBlock: EZIPEK_clean_linker_0, # of connection points: 2
#     Edge 35, Type (0, 0), BuildingBlock: EZIPEK_clean_linker_0, # of connection points: 2
#     Edge 36, Type (0, 0), BuildingBlock: EZIPEK_clean_linker_0, # of connection points: 2
#     Edge 37, Type (0, 0), BuildingBlock: EZIPEK_clean_linker_0, # of connection points: 2
#     Edge 38, Type (0, 0), BuildingBlock: EZIPEK_clean_linker_0, # of connection points: 2
#     Edge 39, Type (0, 0), BuildingBlock: EZIPEK_clean_linker_0, # of connection points: 2
#     Edge 40, Type (0, 0), BuildingBlock: EZIPEK_clean_linker_0, # of connection points: 2
#     Edge 41, Type (0, 0), BuildingBlock: EZIPEK_clean_linker_0, # of connection points: 2
#     Edge 42, Type (0, 0), BuildingBlock: EZIPEK_clean_linker_0, # of connection points: 2
#     Edge 43, Type (0, 0), BuildingBlock: EZIPEK_clean_linker_0, # of connection points: 2
#     Edge 44, Type (0, 0), BuildingBlock: EZIPEK_clean_linker_0, # of connection points: 2
#     Edge 45, Type (0, 0), BuildingBlock: EZIPEK_clean_linker_0, # of connection points: 2
#     Edge 46, Type (0, 0), BuildingBlock: EZIPEK_clean_linker_0, # of connection points: 2
#     Edge 47, Type (0, 0), BuildingBlock: EZIPEK_clean_linker_0, # of connection points: 2
# Relax obj value: 0.233
# Max RMSD: 0.082
# Mean RMSD: 0.081
data_MOF--net-pcb--node1-UXUYUI_clean_sbu_0--edge1-EZIPEK_clean_linker_0
_symmetry_space_group_name_H-M    P1
_symmetry_Int_Tables_number       1
_symmetry_cell_setting            triclinic
loop_
_symmetry_equiv_pos_as_xyz
'x, y, z'
_cell_length_a     56.411929
_cell_length_b     56.192198
_cell_length_c     56.319767
_cell_angle_alpha  90.076533
_cell_angle_beta   89.953682
_cell_angle_gamma 90.165119
loop_
_atom_site_label
_atom_site_type_symbol
_atom_site_fract_x
_atom_site_fract_y
_atom_site_fract_z
_atom_type_partial_charge
Li0 Li 0.16147 0.16044 0.13346 0.0
Li1 Li 0.17132 0.17198 0.17402 0.0
Li2 Li 0.16179 0.12943 0.16448 0.0
Li3 Li 0.13092 0.15989 0.16634 0.0
C4 C 0.20802 0.14427 0.13914 0.0
N5 N 0.24666 0.13428 0.11061 0.0
C6 C 0.22881 0.15772 0.14116 0.0
C7 C 0.20704 0.12554 0.12282 0.0
C8 C 0.24812 0.15244 0.12653 0.0
C9 C 0.2267 0.12081 0.1085 0.0
C10 C 0.15304 0.21109 0.15343 0.0
C11 C 0.14915 0.24906 0.17304 0.0
N12 N 0.16361 0.25905 0.15645 0.0
C13 C 0.16761 0.22178 0.1364 0.0
C14 C 0.14348 0.22488 0.17173 0.0
C15 C 0.17282 0.24603 0.13829 0.0
C16 C 0.14575 0.16316 0.08697 0.0
N17 N 0.1655 0.16619 0.10047 0.0
C18 C 0.18878 0.17454 0.06599 0.0
C19 C 0.18665 0.17241 0.0906 0.0
C20 C 0.16883 0.17064 0.05168 0.0
C21 C 0.14703 0.16529 0.06236 0.0
H22 H 0.1291 0.15856 0.09535 0.0
H23 H 0.20193 0.17547 0.10172 0.0
C24 C 0.18967 0.19169 0.21632 0.0
N25 N 0.19093 0.19247 0.19223 0.0
C26 C 0.20403 0.20653 0.23003 0.0
C27 C 0.22098 0.22245 0.19388 0.0
C28 C 0.20623 0.20736 0.18088 0.0
C29 C 0.21986 0.22203 0.2187 0.0
H30 H 0.17772 0.1794 0.22493 0.0
H31 H 0.20711 0.20737 0.16172 0.0
C32 C 0.1286 0.11595 0.13036 0.0
N33 N 0.11231 0.07439 0.10959 0.0
C34 C 0.10813 0.10482 0.13894 0.0
C35 C 0.14041 0.10624 0.1108 0.0
C36 C 0.10028 0.08374 0.12833 0.0
C37 C 0.132 0.08515 0.10066 0.0
C38 C 0.13842 0.14864 0.21257 0.0
C39 C 0.13406 0.12737 0.22466 0.0
C40 C 0.12889 0.16988 0.22121 0.0
C41 C 0.11985 0.12766 0.24499 0.0
C42 C 0.11476 0.16944 0.24158 0.0
N43 N 0.11054 0.14851 0.25294 0.0
C44 C 0.18924 0.08682 0.16685 0.0
C45 C 0.14845 0.08312 0.17643 0.0
C46 C 0.19201 0.06215 0.1677 0.0
N47 N 0.1675 0.09666 0.17031 0.0
C48 C 0.15042 0.05845 0.17761 0.0
C49 C 0.17226 0.04778 0.17255 0.0
H50 H 0.20428 0.098 0.16277 0.0
H51 H 0.13153 0.09147 0.17968 0.0
C52 C 0.08738 0.18331 0.16159 0.0
N53 N 0.0982 0.16467 0.17243 0.0
C54 C 0.06279 0.18578 0.16285 0.0
C55 C 0.06112 0.1504 0.18726 0.0
C56 C 0.08568 0.14846 0.1853 0.0
C57 C 0.04946 0.16892 0.17547 0.0
H58 H 0.09776 0.19571 0.15118 0.0
H59 H 0.09461 0.13346 0.1932 0.0
O60 O 0.18881 0.14944 0.15309 0.0
O61 O 0.14799 0.1873 0.15203 0.0
O62 O 0.13671 0.13648 0.14076 0.0
O63 O 0.15211 0.14866 0.19249 0.0
H64 H 0.2301 0.17203 0.15391 0.0
H65 H 0.19136 0.11461 0.1214 0.0
H66 H 0.26427 0.16278 0.12786 0.0
H67 H 0.22611 0.1064 0.09577 0.0
H68 H 0.14202 0.25991 0.18721 0.0
H69 H 0.17506 0.21142 0.12205 0.0
H70 H 0.13177 0.21703 0.18475 0.0
H71 H 0.18425 0.25449 0.12536 0.0
H72 H 0.20581 0.17882 0.05816 0.0
H73 H 0.13133 0.16225 0.05169 0.0
H74 H 0.20301 0.2058 0.24923 0.0
H75 H 0.23318 0.23422 0.18476 0.0
H76 H 0.09855 0.11218 0.15383 0.0
H77 H 0.15575 0.11497 0.10332 0.0
H78 H 0.08462 0.07481 0.13499 0.0
H79 H 0.14109 0.07738 0.08561 0.0
H80 H 0.14161 0.11082 0.21848 0.0
H81 H 0.13229 0.1865 0.21222 0.0
H82 H 0.11625 0.11131 0.25447 0.0
H83 H 0.10715 0.18574 0.24837 0.0
H84 H 0.20911 0.05431 0.16386 0.0
H85 H 0.13491 0.04773 0.18151 0.0
H86 H 0.05418 0.20016 0.15344 0.0
H87 H 0.05121 0.13703 0.19694 0.0
Li88 Li 0.82587 0.17071 0.17202 0.0
Li89 Li 0.83494 0.1315 0.16031 0.0
Li90 Li 0.86546 0.16186 0.16134 0.0
Li91 Li 0.83468 0.16192 0.12925 0.0
C92 C 0.84081 0.15334 0.21097 0.0
N93 N 0.82529 0.16468 0.25614 0.0
C94 C 0.82389 0.13908 0.22227 0.0
C95 C 0.84996 0.17327 0.22273 0.0
C96 C 0.81627 0.14511 0.2451 0.0
C97 C 0.84183 0.17875 0.24552 0.0
C98 C 0.78989 0.1347 0.14527 0.0
C99 C 0.76369 0.11356 0.11871 0.0
N100 N 0.75407 0.10192 0.13758 0.0
C101 C 0.77967 0.12259 0.1644 0.0
C102 C 0.7818 0.1302 0.12223 0.0
C103 C 0.76163 0.10605 0.16014 0.0
C104 C 0.81276 0.21355 0.19452 0.0
N105 N 0.80647 0.19037 0.19144 0.0
C106 C 0.77235 0.19544 0.21604 0.0
C107 C 0.78664 0.18118 0.20172 0.0
C108 C 0.77856 0.21932 0.21954 0.0
C109 C 0.79896 0.22846 0.20868 0.0
H110 H 0.82844 0.22046 0.18596 0.0
H111 H 0.78199 0.16277 0.19891 0.0
C112 C 0.84049 0.0878 0.18419 0.0
N113 N 0.83068 0.09797 0.16463 0.0
C114 C 0.83984 0.06314 0.18712 0.0
C115 C 0.81897 0.05985 0.14977 0.0
C116 C 0.82026 0.08452 0.14742 0.0
C117 C 0.82904 0.04897 0.16971 0.0
H118 H 0.84947 0.09878 0.19716 0.0
H119 H 0.8136 0.09283 0.13151 0.0
C120 C 0.86317 0.20577 0.14526 0.0
N121 N 0.8987 0.23866 0.13676 0.0
C122 C 0.8694 0.21169 0.12197 0.0
C123 C 0.87486 0.21678 0.16422 0.0
C124 C 0.88743 0.22833 0.11805 0.0
C125 C 0.89283 0.23328 0.15956 0.0
C126 C 0.87019 0.1172 0.1315 0.0
C127 C 0.88786 0.10898 0.14678 0.0
C128 C 0.86335 0.10331 0.11205 0.0
C129 C 0.89865 0.08712 0.14216 0.0
C130 C 0.87456 0.08153 0.10805 0.0
N131 N 0.89187 0.07399 0.12302 0.0
C132 C 0.90827 0.16433 0.18783 0.0
C133 C 0.91181 0.17149 0.14645 0.0
C134 C 0.93282 0.16595 0.19059 0.0
N135 N 0.89837 0.16702 0.166 0.0
C136 C 0.93635 0.1735 0.14843 0.0
C137 C 0.94705 0.17036 0.17065 0.0
H138 H 0.89721 0.16014 0.20294 0.0
H139 H 0.90346 0.17292 0.12924 0.0
C140 C 0.81026 0.18281 0.0905 0.0
N141 N 0.82876 0.16879 0.09703 0.0
C142 C 0.80597 0.18729 0.06647 0.0
C143 C 0.84 0.16303 0.05663 0.0
C144 C 0.84377 0.15928 0.08075 0.0
C145 C 0.82081 0.17699 0.04932 0.0
H146 H 0.79879 0.19032 0.10395 0.0
H147 H 0.85871 0.1488 0.08653 0.0
O148 O 0.84803 0.14809 0.18836 0.0
O149 O 0.80752 0.15106 0.14903 0.0
O150 O 0.84578 0.18924 0.14946 0.0
O151 O 0.8595 0.13865 0.13565 0.0
H152 H 0.81649 0.12367 0.21343 0.0
H153 H 0.86293 0.18461 0.21421 0.0
H154 H 0.80308 0.13431 0.254 0.0
H155 H 0.8486 0.19425 0.25473 0.0
H156 H 0.75731 0.10987 0.10098 0.0
H157 H 0.78592 0.1255 0.18229 0.0
H158 H 0.78949 0.13933 0.1072 0.0
H159 H 0.75371 0.09641 0.17476 0.0
H160 H 0.75662 0.18799 0.22424 0.0
H161 H 0.80406 0.24691 0.21107 0.0
H162 H 0.8481 0.05514 0.20252 0.0
H163 H 0.81087 0.04928 0.13585 0.0
H164 H 0.86054 0.20347 0.10705 0.0
H165 H 0.8704 0.21235 0.18236 0.0
H166 H 0.89249 0.23299 0.10011 0.0
H167 H 0.90217 0.24175 0.17407 0.0
H168 H 0.89311 0.11926 0.16215 0.0
H169 H 0.84937 0.10914 0.1003 0.0
H170 H 0.91238 0.08056 0.15382 0.0
H171 H 0.86943 0.07058 0.09309 0.0
H172 H 0.94069 0.16317 0.20789 0.0
H173 H 0.94697 0.17667 0.13271 0.0
H174 H 0.79117 0.19835 0.06128 0.0
H175 H 0.8519 0.15513 0.04376 0.0
Li176 Li 0.83712 0.86452 0.16601 0.0
Li177 Li 0.8668 0.8329 0.16323 0.0
Li178 Li 0.83569 0.83511 0.13405 0.0
Li179 Li 0.82817 0.82366 0.17507 0.0
C180 C 0.86015 0.87722 0.12472 0.0
N181 N 0.85933 0.91508 0.09349 0.0
C182 C 0.88131 0.88805 0.1176 0.0
C183 C 0.83856 0.88565 0.11597 0.0
C184 C 0.88053 0.90717 0.10179 0.0
C185 C 0.83853 0.9048 0.10019 0.0
C186 C 0.8434 0.84306 0.21489 0.0
C187 C 0.84132 0.82106 0.2516 0.0
N188 N 0.82712 0.83821 0.26094 0.0
C189 C 0.82893 0.86056 0.22492 0.0
C190 C 0.84984 0.82325 0.2284 0.0
C191 C 0.82085 0.85776 0.24821 0.0
C192 C 0.81239 0.90824 0.16623 0.0
N193 N 0.83294 0.89723 0.17225 0.0
C194 C 0.85104 0.93434 0.18219 0.0
C195 C 0.85198 0.90961 0.18043 0.0
C196 C 0.83034 0.9462 0.17528 0.0
C197 C 0.81068 0.93297 0.16764 0.0
H198 H 0.79773 0.89791 0.15939 0.0
H199 H 0.86817 0.90028 0.18472 0.0
C200 C 0.91215 0.82772 0.14519 0.0
N201 N 0.89963 0.82712 0.1658 0.0
C202 C 0.93664 0.82474 0.14547 0.0
C203 C 0.93482 0.82006 0.18817 0.0
C204 C 0.91031 0.82329 0.18708 0.0
C205 C 0.94816 0.82113 0.16717 0.0
H206 H 0.90306 0.83083 0.12858 0.0
H207 H 0.89983 0.82301 0.20316 0.0
C208 C 0.78807 0.83591 0.1489 0.0
N209 N 0.74524 0.81488 0.13728 0.0
C210 C 0.7871 0.81179 0.14271 0.0
C211 C 0.7672 0.84925 0.1493 0.0
C212 C 0.76529 0.80151 0.13689 0.0
C213 C 0.74574 0.83832 0.14329 0.0
C214 C 0.86376 0.78897 0.14975 0.0
C215 C 0.8721 0.78105 0.12776 0.0
C216 C 0.87306 0.77925 0.17058 0.0
C217 C 0.89004 0.76398 0.12697 0.0
C218 C 0.891 0.76223 0.16907 0.0
N219 N 0.89909 0.75504 0.14747 0.0
C220 C 0.85038 0.82872 0.08786 0.0
C221 C 0.80863 0.83311 0.09023 0.0
C222 C 0.84927 0.82683 0.06322 0.0
N223 N 0.83024 0.83151 0.10084 0.0
C224 C 0.80669 0.83125 0.06558 0.0
C225 C 0.82722 0.82807 0.05195 0.0
H226 H 0.86738 0.82832 0.09671 0.0
H227 H 0.79293 0.83633 0.10066 0.0
C228 C 0.7915 0.81504 0.20761 0.0
N229 N 0.80862 0.80429 0.19444 0.0
C230 C 0.77635 0.80146 0.22173 0.0
C231 C 0.7961 0.76593 0.20766 0.0
C232 C 0.81108 0.78023 0.19405 0.0
C233 C 0.77863 0.77666 0.22171 0.0
H234 H 0.78952 0.83416 0.20698 0.0
H235 H 0.82438 0.77213 0.1829 0.0
O236 O 0.86069 0.85872 0.14048 0.0
O237 O 0.85114 0.84529 0.19196 0.0
O238 O 0.80908 0.84629 0.15541 0.0
O239 O 0.84662 0.80616 0.15092 0.0
H240 H 0.89816 0.88177 0.12428 0.0
H241 H 0.82199 0.87757 0.12137 0.0
H242 H 0.89677 0.91575 0.09614 0.0
H243 H 0.82195 0.91152 0.09331 0.0
H244 H 0.84599 0.80571 0.26217 0.0
H245 H 0.82374 0.876 0.21476 0.0
H246 H 0.86111 0.8096 0.22102 0.0
H247 H 0.80952 0.87109 0.25614 0.0
H248 H 0.86652 0.9442 0.18798 0.0
H249 H 0.79457 0.94175 0.16202 0.0
H250 H 0.94657 0.82567 0.12902 0.0
H251 H 0.94336 0.81733 0.20516 0.0
H252 H 0.80294 0.80107 0.14235 0.0
H253 H 0.76752 0.86784 0.15428 0.0
H254 H 0.76431 0.7829 0.13206 0.0
H255 H 0.72947 0.84846 0.1435 0.0
H256 H 0.86477 0.7879 0.11145 0.0
H257 H 0.86674 0.78505 0.18774 0.0
H258 H 0.89675 0.75781 0.11006 0.0
H259 H 0.89854 0.75479 0.18507 0.0
H260 H 0.86542 0.82472 0.05303 0.0
H261 H 0.78948 0.83267 0.05719 0.0
H262 H 0.76281 0.81012 0.23227 0.0
H263 H 0.79803 0.74676 0.20722 0.0
Li264 Li 0.13168 0.83264 0.15317 0.0
Li265 Li 0.17035 0.82321 0.16656 0.0
Li266 Li 0.16116 0.86358 0.15559 0.0
Li267 Li 0.16647 0.83193 0.12463 0.0
C268 C 0.12924 0.84429 0.19777 0.0
N269 N 0.09136 0.84251 0.22893 0.0
C270 C 0.12771 0.8261 0.21464 0.0
C271 C 0.1114 0.86148 0.1967 0.0
C272 C 0.10844 0.82552 0.23023 0.0
C273 C 0.09245 0.86032 0.21264 0.0
C274 C 0.15507 0.78186 0.14573 0.0
C275 C 0.17027 0.74424 0.13193 0.0
N276 N 0.16277 0.73382 0.1524 0.0
C277 C 0.14739 0.77077 0.16657 0.0
C278 C 0.16653 0.76852 0.12821 0.0
C279 C 0.15152 0.74647 0.16964 0.0
C280 C 0.08374 0.83888 0.14123 0.0
N281 N 0.09854 0.82593 0.15516 0.0
C282 C 0.0656 0.80641 0.17357 0.0
C283 C 0.09 0.80943 0.17066 0.0
C284 C 0.05006 0.82024 0.16004 0.0
C285 C 0.05925 0.83635 0.14345 0.0
H286 H 0.09092 0.85147 0.12867 0.0
H287 H 0.10207 0.79911 0.1813 0.0
C288 C 0.19045 0.8133 0.211 0.0
N289 N 0.18894 0.80514 0.1883 0.0
C290 C 0.20418 0.80127 0.22766 0.0
C291 C 0.2152 0.7731 0.19708 0.0
C292 C 0.20143 0.78579 0.18098 0.0
C293 C 0.21648 0.78083 0.22067 0.0
H294 H 0.18118 0.82933 0.21608 0.0
H295 H 0.20103 0.7804 0.16259 0.0
C296 C 0.13692 0.8776 0.11784 0.0
N297 N 0.13026 0.92183 0.09755 0.0
C298 C 0.15045 0.88453 0.09821 0.0
C299 C 0.12007 0.89322 0.1272 0.0
C300 C 0.14683 0.90697 0.08822 0.0
C301 C 0.11692 0.91547 0.11665 0.0
C302 C 0.21111 0.84484 0.15861 0.0
C303 C 0.21501 0.86004 0.17789 0.0
C304 C 0.22856 0.82843 0.15216 0.0
C305 C 0.23636 0.85864 0.19035 0.0
C306 C 0.24966 0.82756 0.16509 0.0
N307 N 0.25311 0.84257 0.18373 0.0
C308 C 0.15639 0.90787 0.17963 0.0
C309 C 0.18083 0.90836 0.14533 0.0
C310 C 0.15893 0.93244 0.18228 0.0
N311 N 0.16676 0.89652 0.16101 0.0
C312 C 0.18397 0.93292 0.14738 0.0
C313 C 0.17253 0.94518 0.16577 0.0
H314 H 0.14587 0.89797 0.19221 0.0
H315 H 0.18913 0.89876 0.1309 0.0
C316 C 0.15874 0.82283 0.07639 0.0
N317 N 0.17592 0.82589 0.09304 0.0
C318 C 0.16483 0.82064 0.05246 0.0
C319 C 0.20619 0.8238 0.06348 0.0
C320 C 0.19929 0.82629 0.08714 0.0
C321 C 0.18878 0.82143 0.04588 0.0
H322 H 0.1403 0.82282 0.08168 0.0
H323 H 0.2125 0.8292 0.10068 0.0
O324 O 0.14799 0.84518 0.18232 0.0
O325 O 0.15127 0.80562 0.1423 0.0
O326 O 0.1402 0.85568 0.12788 0.0
O327 O 0.19005 0.84558 0.14657 0.0
H328 H 0.14101 0.81233 0.21549 0.0
H329 H 0.11198 0.8754 0.18349 0.0
H330 H 0.107 0.8115 0.2433 0.0
H331 H 0.07856 0.87353 0.21199 0.0
H332 H 0.17917 0.73369 0.11856 0.0
H333 H 0.13886 0.78091 0.18045 0.0
H334 H 0.17253 0.77685 0.11195 0.0
H335 H 0.14588 0.73769 0.18578 0.0
H336 H 0.05892 0.79383 0.18652 0.0
H337 H 0.04758 0.8472 0.13272 0.0
H338 H 0.20524 0.80778 0.24574 0.0
H339 H 0.22495 0.75759 0.19119 0.0
H340 H 0.16377 0.87285 0.09087 0.0
H341 H 0.10959 0.88829 0.14251 0.0
H342 H 0.15722 0.91258 0.07306 0.0
H343 H 0.10396 0.92773 0.12373 0.0
H344 H 0.20159 0.87258 0.18342 0.0
H345 H 0.22566 0.81611 0.13768 0.0
H346 H 0.23958 0.87025 0.20534 0.0
H347 H 0.26324 0.81484 0.1604 0.0
H348 H 0.15002 0.94148 0.19673 0.0
H349 H 0.19463 0.94235 0.13442 0.0
H350 H 0.15105 0.81882 0.03919 0.0
H351 H 0.22481 0.8245 0.05883 0.0
Li352 Li 0.16042 0.8678 0.83789 0.0
Li353 Li 0.16346 0.83718 0.86859 0.0
Li354 Li 0.17027 0.82689 0.82582 0.0
Li355 Li 0.13075 0.83449 0.8413 0.0
C356 C 0.20951 0.86048 0.84254 0.0
N357 N 0.25179 0.88405 0.83407 0.0
C358 C 0.22269 0.86978 0.86144 0.0
C359 C 0.21815 0.86275 0.81939 0.0
C360 C 0.24392 0.88177 0.85678 0.0
C361 C 0.23947 0.87482 0.81545 0.0
C362 C 0.13268 0.86864 0.88639 0.0
C363 C 0.1171 0.86174 0.9257 0.0
N364 N 0.12335 0.88427 0.93201 0.0
C365 C 0.13869 0.89181 0.89319 0.0
C366 C 0.12155 0.85356 0.9027 0.0
C367 C 0.13392 0.89935 0.91635 0.0
C368 C 0.15111 0.91107 0.81436 0.0
N369 N 0.1645 0.9007 0.83152 0.0
C370 C 0.18129 0.93826 0.84227 0.0
C371 C 0.17948 0.91371 0.84534 0.0
C372 C 0.16751 0.94936 0.82486 0.0
C373 C 0.15255 0.93556 0.8105 0.0
H374 H 0.13889 0.90041 0.80405 0.0
H375 H 0.18926 0.90519 0.85941 0.0
C376 C 0.17341 0.80985 0.9097 0.0
N377 N 0.17423 0.83192 0.90006 0.0
C378 C 0.18179 0.80597 0.9327 0.0
C379 C 0.19093 0.84771 0.93566 0.0
C380 C 0.18242 0.85078 0.91266 0.0
C381 C 0.19232 0.82473 0.94587 0.0
H382 H 0.16601 0.79524 0.8996 0.0
H383 H 0.18207 0.86836 0.90491 0.0
C384 C 0.14716 0.85042 0.78819 0.0
N385 N 0.15019 0.85487 0.73938 0.0
C386 C 0.13059 0.83909 0.77355 0.0
C387 C 0.16493 0.86445 0.77797 0.0
C388 C 0.13251 0.84143 0.74892 0.0
C389 C 0.16626 0.86637 0.75328 0.0
C390 C 0.13842 0.78898 0.85089 0.0
C391 C 0.13906 0.77267 0.83214 0.0
C392 C 0.12283 0.78521 0.86982 0.0
C393 C 0.12373 0.7531 0.83242 0.0
C394 C 0.10773 0.76546 0.86942 0.0
N395 N 0.10847 0.74996 0.85087 0.0
C396 C 0.21158 0.80367 0.81159 0.0
C397 C 0.17958 0.79897 0.78464 0.0
C398 C 0.2262 0.78986 0.79718 0.0
N399 N 0.18885 0.80817 0.80497 0.0
C400 C 0.1935 0.78486 0.7698 0.0
C401 C 0.21706 0.78033 0.77611 0.0
H402 H 0.2183 0.81073 0.82813 0.0
H403 H 0.16125 0.80208 0.78021 0.0
C404 C 0.08235 0.8394 0.85121 0.0
N405 N 0.09807 0.82698 0.83778 0.0
C406 C 0.05808 0.8357 0.84846 0.0
C407 C 0.06653 0.80645 0.81807 0.0
C408 C 0.0907 0.81063 0.82151 0.0
C409 C 0.05003 0.81921 0.83161 0.0
H410 H 0.08862 0.85258 0.86369 0.0
H411 H 0.10356 0.80117 0.8109 0.0
O412 O 0.18862 0.84872 0.84682 0.0
O413 O 0.13749 0.86084 0.86385 0.0
O414 O 0.14555 0.84824 0.81237 0.0
O415 O 0.15308 0.80844 0.85075 0.0
H416 H 0.21656 0.86791 0.87951 0.0
H417 H 0.20875 0.85494 0.80462 0.0
H418 H 0.25415 0.88922 0.87124 0.0
H419 H 0.24629 0.87673 0.79759 0.0
H420 H 0.10866 0.85018 0.93854 0.0
H421 H 0.14696 0.90387 0.88075 0.0
H422 H 0.11649 0.83571 0.89768 0.0
H423 H 0.1386 0.9172 0.92187 0.0
H424 H 0.19278 0.94858 0.85376 0.0
H425 H 0.14157 0.94377 0.79705 0.0
H426 H 0.17912 0.78841 0.93989 0.0
H427 H 0.19558 0.86368 0.94521 0.0
H428 H 0.11649 0.82847 0.78106 0.0
H429 H 0.17734 0.8741 0.78896 0.0
H430 H 0.11993 0.83257 0.7374 0.0
H431 H 0.17999 0.87711 0.74518 0.0
H432 H 0.15115 0.77513 0.81747 0.0
H433 H 0.12231 0.79742 0.88462 0.0
H434 H 0.12394 0.74042 0.81795 0.0
H435 H 0.09544 0.76245 0.88387 0.0
H436 H 0.24429 0.78635 0.80252 0.0
H437 H 0.18599 0.77741 0.75372 0.0
H438 H 0.04568 0.84594 0.85899 0.0
H439 H 0.06074 0.79375 0.80479 0.0
Li440 Li 0.16283 0.16324 0.86736 0.0
Li441 Li 0.16194 0.13306 0.83525 0.0
Li442 Li 0.17062 0.17505 0.82675 0.0
Li443 Li 0.13101 0.16302 0.83708 0.0
C444 C 0.21169 0.15423 0.85435 0.0
N445 N 0.25778 0.15766 0.87064 0.0
C446 C 0.22429 0.1337 0.86031 0.0
C447 C 0.22267 0.17648 0.85635 0.0
C448 C 0.24753 0.13582 0.86862 0.0
C449 C 0.24595 0.17785 0.8647 0.0
C450 C 0.12097 0.12193 0.86261 0.0
C451 C 0.09445 0.09366 0.84425 0.0
N452 N 0.08462 0.08904 0.86582 0.0
C453 C 0.11061 0.11694 0.88459 0.0
C454 C 0.11282 0.11025 0.84225 0.0
C455 C 0.09224 0.10025 0.88585 0.0
C456 C 0.15115 0.17961 0.91232 0.0
N457 N 0.16829 0.16771 0.90021 0.0
C458 C 0.18916 0.15959 0.93616 0.0
C459 C 0.18714 0.15785 0.91153 0.0
C460 C 0.17138 0.17122 0.94909 0.0
C461 C 0.15235 0.1816 0.93698 0.0
H462 H 0.1362 0.18693 0.90283 0.0
H463 H 0.2002 0.14798 0.90163 0.0
C464 C 0.16447 0.09111 0.80736 0.0
N465 N 0.16805 0.10072 0.82923 0.0
C466 C 0.16571 0.06648 0.8042 0.0
C467 C 0.17511 0.06245 0.84595 0.0
C468 C 0.17355 0.08707 0.84832 0.0
C469 C 0.17069 0.052 0.8238 0.0
H470 H 0.15969 0.10245 0.79265 0.0
H471 H 0.17581 0.09529 0.86555 0.0
C472 C 0.15282 0.21369 0.85515 0.0
N473 N 0.1607 0.26109 0.86568 0.0
C474 C 0.13694 0.23103 0.84732 0.0
C475 C 0.17241 0.22041 0.86878 0.0
C476 C 0.14132 0.25492 0.85269 0.0
C477 C 0.17617 0.24447 0.8738 0.0
C478 C 0.14182 0.16406 0.78851 0.0
C479 C 0.13155 0.18662 0.79003 0.0
C480 C 0.14467 0.15331 0.76631 0.0
C481 C 0.12424 0.19804 0.76929 0.0
C482 C 0.13712 0.16531 0.74597 0.0
N483 N 0.12715 0.18724 0.74787 0.0
C484 C 0.20976 0.18533 0.79853 0.0
C485 C 0.18251 0.21733 0.80123 0.0
C486 C 0.22461 0.19871 0.78393 0.0
N487 N 0.18935 0.1949 0.80708 0.0
C488 C 0.19675 0.23129 0.78651 0.0
C489 C 0.21806 0.22193 0.77789 0.0
H490 H 0.21449 0.16728 0.80313 0.0
H491 H 0.16594 0.22432 0.80774 0.0
C492 C 0.08688 0.18037 0.85083 0.0
N493 N 0.09802 0.16753 0.8337 0.0
C494 C 0.06223 0.18231 0.85076 0.0
C495 C 0.06113 0.15816 0.81514 0.0
C496 C 0.08579 0.15666 0.81591 0.0
C497 C 0.04921 0.17086 0.83291 0.0
H498 H 0.09714 0.18853 0.86489 0.0
H499 H 0.09513 0.14626 0.80274 0.0
O500 O 0.18894 0.15237 0.84612 0.0
O501 O 0.13883 0.13836 0.8611 0.0
O502 O 0.14866 0.19022 0.85011 0.0
O503 O 0.14943 0.15262 0.80854 0.0
H504 H 0.21616 0.11632 0.85864 0.0
H505 H 0.2135 0.1925 0.8512 0.0
H506 H 0.25742 0.12009 0.87343 0.0
H507 H 0.25464 0.19495 0.86634 0.0
H508 H 0.08797 0.08449 0.82864 0.0
H509 H 0.11669 0.12591 0.9005 0.0
H510 H 0.12046 0.1141 0.82506 0.0
H511 H 0.08405 0.0962 0.90274 0.0
H512 H 0.20393 0.15125 0.94514 0.0
H513 H 0.1383 0.19054 0.94658 0.0
H514 H 0.16201 0.05876 0.78697 0.0
H515 H 0.17876 0.05158 0.86139 0.0
H516 H 0.12143 0.22611 0.8371 0.0
H517 H 0.18443 0.2072 0.87569 0.0
H518 H 0.12928 0.26855 0.84658 0.0
H519 H 0.19132 0.24992 0.88427 0.0
H520 H 0.1293 0.19526 0.807 0.0
H521 H 0.15271 0.13592 0.76478 0.0
H522 H 0.11628 0.21551 0.77024 0.0
H523 H 0.13923 0.1572 0.72866 0.0
H524 H 0.24095 0.19107 0.77733 0.0
H525 H 0.19126 0.24915 0.7819 0.0
H526 H 0.05338 0.1921 0.86475 0.0
H527 H 0.0514 0.14901 0.80127 0.0
Li528 Li 0.83453 0.12982 0.83713 0.0
Li529 Li 0.83145 0.1617 0.86794 0.0
Li530 Li 0.82597 0.17031 0.82688 0.0
Li531 Li 0.86503 0.16168 0.84074 0.0
C532 C 0.7841 0.156 0.84179 0.0
N533 N 0.73937 0.17236 0.83051 0.0
C534 C 0.772 0.17097 0.85747 0.0
C535 C 0.77338 0.14922 0.82045 0.0
C536 C 0.74941 0.17909 0.85142 0.0
C537 C 0.75078 0.15772 0.81505 0.0
C538 C 0.87243 0.13719 0.88252 0.0
C539 C 0.8951 0.15874 0.91186 0.0
N540 N 0.90477 0.13791 0.91934 0.0
C541 C 0.88258 0.11601 0.8905 0.0
C542 C 0.87873 0.15875 0.89326 0.0
C543 C 0.89891 0.11675 0.90913 0.0
C544 C 0.85008 0.08315 0.83429 0.0
N545 N 0.83062 0.09698 0.83125 0.0
C546 C 0.807 0.06303 0.82145 0.0
C547 C 0.8093 0.08753 0.82498 0.0
C548 C 0.82668 0.04829 0.82516 0.0
C549 C 0.84846 0.05855 0.83149 0.0
H550 H 0.86678 0.09126 0.83922 0.0
H551 H 0.7941 0.09897 0.82286 0.0
C552 C 0.81835 0.19019 0.90728 0.0
N553 N 0.82274 0.16763 0.89973 0.0
C554 C 0.81473 0.19475 0.9314 0.0
C555 C 0.8198 0.15272 0.93923 0.0
C556 C 0.82297 0.14893 0.91499 0.0
C557 C 0.81613 0.1759 0.94764 0.0
H558 H 0.8183 0.20466 0.89464 0.0
H559 H 0.82652 0.13121 0.90839 0.0
C560 C 0.85016 0.14316 0.78872 0.0
N561 N 0.8518 0.1309 0.74122 0.0
C562 C 0.86852 0.15159 0.77431 0.0
C563 C 0.83273 0.12834 0.77901 0.0
C564 C 0.86901 0.14524 0.75032 0.0
C565 C 0.83384 0.12239 0.75495 0.0
C566 C 0.85345 0.20945 0.84038 0.0
C567 C 0.86139 0.2095 0.81686 0.0
C568 C 0.85435 0.23044 0.85367 0.0
C569 C 0.87011 0.23059 0.80703 0.0
C570 C 0.86321 0.25117 0.84321 0.0
N571 N 0.87083 0.25082 0.82029 0.0
C572 C 0.79742 0.20931 0.81767 0.0
C573 C 0.80606 0.18722 0.78281 0.0
C574 C 0.78339 0.22504 0.80479 0.0
N575 N 0.80822 0.19073 0.80661 0.0
C576 C 0.79225 0.20257 0.76922 0.0
C577 C 0.7807 0.22156 0.78034 0.0
H578 H 0.79953 0.21172 0.83661 0.0
H579 H 0.81479 0.17251 0.77431 0.0
C580 C 0.9103 0.14942 0.8261 0.0
N581 N 0.89808 0.16658 0.83787 0.0
C582 C 0.93493 0.1507 0.82449 0.0
C583 C 0.93389 0.18739 0.84704 0.0
C584 C 0.90925 0.18539 0.84824 0.0
C585 C 0.94687 0.16977 0.8352 0.0
H586 H 0.90089 0.13453 0.81835 0.0
H587 H 0.89913 0.19853 0.8579 0.0
O588 O 0.80636 0.14815 0.84729 0.0
O589 O 0.85649 0.13675 0.86421 0.0
O590 O 0.8497 0.1489 0.81233 0.0
O591 O 0.84471 0.18908 0.85046 0.0
H592 H 0.78001 0.17638 0.87406 0.0
H593 H 0.78255 0.13783 0.808 0.0
H594 H 0.73989 0.19077 0.86333 0.0
H595 H 0.74236 0.15278 0.7985 0.0
H596 H 0.9001 0.17529 0.92034 0.0
H597 H 0.87788 0.09917 0.88241 0.0
H598 H 0.87109 0.17533 0.88734 0.0
H599 H 0.90692 0.10049 0.91549 0.0
H600 H 0.78998 0.05556 0.8165 0.0
H601 H 0.86396 0.04761 0.83443 0.0
H602 H 0.81181 0.21282 0.93745 0.0
H603 H 0.8209 0.13784 0.95139 0.0
H604 H 0.88228 0.16292 0.78157 0.0
H605 H 0.81834 0.12177 0.78983 0.0
H606 H 0.88309 0.15169 0.73895 0.0
H607 H 0.8204 0.11104 0.74718 0.0
H608 H 0.86079 0.19351 0.80626 0.0
H609 H 0.84829 0.2307 0.87191 0.0
H610 H 0.87628 0.23087 0.78884 0.0
H611 H 0.86402 0.26755 0.8533 0.0
H612 H 0.7746 0.23962 0.81376 0.0
H613 H 0.7904 0.19956 0.75031 0.0
H614 H 0.94462 0.13679 0.81538 0.0
H615 H 0.94277 0.20218 0.85563 0.0
Li616 Li 0.83866 0.86415 0.83728 0.0
Li617 Li 0.83582 0.83151 0.86834 0.0
Li618 Li 0.86766 0.83107 0.83621 0.0
Li619 Li 0.82712 0.8251 0.8277 0.0
C620 C 0.87477 0.86838 0.87721 0.0
N621 N 0.9004 0.89614 0.90871 0.0
C622 C 0.86472 0.87542 0.89881 0.0
C623 C 0.89791 0.87552 0.87168 0.0
C624 C 0.87794 0.88945 0.91448 0.0
C625 C 0.91055 0.88952 0.88783 0.0
C626 C 0.78769 0.84332 0.84322 0.0
C627 C 0.75037 0.82285 0.84808 0.0
N628 N 0.74186 0.83411 0.82851 0.0
C629 C 0.77852 0.85483 0.82327 0.0
C630 C 0.77349 0.82729 0.85583 0.0
C631 C 0.75534 0.84986 0.81606 0.0
C632 C 0.82609 0.9054 0.81121 0.0
N633 N 0.8343 0.89737 0.83245 0.0
C634 C 0.83692 0.93703 0.84743 0.0
C635 C 0.83944 0.9126 0.85049 0.0
C636 C 0.82858 0.94581 0.82573 0.0
C637 C 0.82286 0.92977 0.8075 0.0
H638 H 0.82208 0.89287 0.79718 0.0
H639 H 0.84542 0.90586 0.86731 0.0
C640 C 0.84714 0.81376 0.91328 0.0
N641 N 0.83038 0.82571 0.90077 0.0
C642 C 0.84548 0.8123 0.93796 0.0
C643 C 0.80898 0.8348 0.93617 0.0
C644 C 0.81134 0.83585 0.91155 0.0
C645 C 0.82646 0.82332 0.94955 0.0
H646 H 0.86226 0.80626 0.90415 0.0
H647 H 0.79864 0.84572 0.90113 0.0
C648 C 0.86451 0.85858 0.79564 0.0
N649 N 0.89541 0.88522 0.76825 0.0
C650 C 0.86558 0.85509 0.77108 0.0
C651 C 0.87914 0.87565 0.80622 0.0
C652 C 0.88133 0.86871 0.75755 0.0
C653 C 0.89463 0.88894 0.7921 0.0
C654 C 0.84672 0.78268 0.83915 0.0
C655 C 0.8552 0.77856 0.81619 0.0
C656 C 0.83717 0.76389 0.85231 0.0
C657 C 0.85365 0.75567 0.80661 0.0
C658 C 0.836 0.74124 0.84211 0.0
N659 N 0.84416 0.73764 0.81965 0.0
C660 C 0.9132 0.82087 0.85148 0.0
C661 C 0.90945 0.82021 0.80952 0.0
C662 C 0.93762 0.81765 0.84977 0.0
N663 N 0.89985 0.82291 0.83153 0.0
C664 C 0.93382 0.81668 0.80697 0.0
C665 C 0.94816 0.8161 0.8273 0.0
H666 H 0.90495 0.82268 0.86873 0.0
H667 H 0.89834 0.82137 0.79396 0.0
C668 C 0.80495 0.81385 0.78451 0.0
N669 N 0.80643 0.80739 0.80772 0.0
C670 C 0.79029 0.80122 0.76903 0.0
C671 C 0.77879 0.77572 0.80171 0.0
C672 C 0.79358 0.7889 0.81657 0.0
C673 C 0.77722 0.78188 0.7777 0.0
H674 H 0.81514 0.82881 0.77807 0.0
H675 H 0.79479 0.78442 0.83518 0.0
O676 O 0.86217 0.85429 0.86178 0.0
O677 O 0.81054 0.8475 0.85018 0.0
O678 O 0.84934 0.84507 0.80905 0.0
O679 O 0.84752 0.80508 0.84861 0.0
H680 H 0.84675 0.87051 0.90329 0.0
H681 H 0.90612 0.87031 0.85513 0.0
H682 H 0.87031 0.89509 0.93118 0.0
H683 H 0.92846 0.89513 0.88375 0.0
H684 H 0.73924 0.81035 0.85755 0.0
H685 H 0.78932 0.86719 0.81326 0.0
H686 H 0.78038 0.81805 0.87118 0.0
H687 H 0.74808 0.85848 0.80052 0.0
H688 H 0.84127 0.94899 0.8619 0.0
H689 H 0.81622 0.93607 0.79061 0.0
H690 H 0.8593 0.8035 0.94797 0.0
H691 H 0.79424 0.84363 0.94478 0.0
H692 H 0.85449 0.84185 0.76257 0.0
H693 H 0.87844 0.87878 0.82507 0.0
H694 H 0.88237 0.86614 0.73854 0.0
H695 H 0.90602 0.90223 0.8001 0.0
H696 H 0.8625 0.79298 0.80575 0.0
H697 H 0.83054 0.76686 0.87011 0.0
H698 H 0.85993 0.75224 0.78878 0.0
H699 H 0.82853 0.72654 0.85201 0.0
H700 H 0.94828 0.81711 0.86575 0.0
H701 H 0.94153 0.81534 0.78941 0.0
H702 H 0.78927 0.80631 0.75052 0.0
H703 H 0.76875 0.76088 0.80879 0.0
Li704 Li 0.66994 0.67449 0.67149 0.0
Li705 Li 0.65981 0.66284 0.63102 0.0
Li706 Li 0.62953 0.66186 0.66413 0.0
Li707 Li 0.66074 0.63182 0.66167 0.0
C708 C 0.65002 0.71351 0.65141 0.0
N709 N 0.6579 0.76197 0.65474 0.0
C710 C 0.66378 0.72517 0.63434 0.0
C711 C 0.63986 0.7266 0.6699 0.0
C712 C 0.66765 0.74965 0.6364 0.0
C713 C 0.64418 0.75105 0.67137 0.0
C714 C 0.70667 0.64917 0.6357 0.0
C715 C 0.72642 0.62839 0.60383 0.0
N716 N 0.7452 0.64349 0.60585 0.0
C717 C 0.7263 0.66429 0.63764 0.0
C718 C 0.70686 0.6309 0.61883 0.0
C719 C 0.74555 0.66119 0.62233 0.0
C720 C 0.68905 0.69264 0.714 0.0
N721 N 0.68922 0.6951 0.68998 0.0
C722 C 0.71755 0.72668 0.69255 0.0
C723 C 0.70313 0.71164 0.67911 0.0
C724 C 0.71751 0.72453 0.7173 0.0
C725 C 0.70308 0.70739 0.72813 0.0
H726 H 0.67825 0.67906 0.72219 0.0
H727 H 0.70327 0.71294 0.65999 0.0
C728 C 0.64485 0.66293 0.58409 0.0
N729 N 0.66368 0.66876 0.598 0.0
C730 C 0.6463 0.66529 0.55951 0.0
C731 C 0.68615 0.68065 0.56399 0.0
C732 C 0.68394 0.67797 0.58855 0.0
C733 C 0.66722 0.674 0.54932 0.0
H734 H 0.6288 0.65608 0.59209 0.0
H735 H 0.69842 0.68311 0.6 0.0
C736 C 0.63776 0.65059 0.71024 0.0
N737 N 0.61052 0.65022 0.75105 0.0
C738 C 0.63334 0.62921 0.72212 0.0
C739 C 0.62866 0.67183 0.71937 0.0
C740 C 0.61944 0.62938 0.74267 0.0
C741 C 0.61483 0.67126 0.73994 0.0
C742 C 0.62757 0.61746 0.62881 0.0
C743 C 0.60705 0.6065 0.6375 0.0
C744 C 0.64 0.60684 0.61013 0.0
C745 C 0.59975 0.58475 0.62789 0.0
C746 C 0.63213 0.58509 0.60097 0.0
N747 N 0.61237 0.57456 0.61001 0.0
C748 C 0.58603 0.68569 0.66101 0.0
C749 C 0.58462 0.65013 0.68368 0.0
C750 C 0.56154 0.68845 0.66318 0.0
N751 N 0.59694 0.6666 0.67095 0.0
C752 C 0.56014 0.65225 0.68638 0.0
C753 C 0.54842 0.67136 0.67567 0.0
H754 H 0.59623 0.69829 0.65069 0.0
H755 H 0.59362 0.63484 0.69093 0.0
C756 C 0.68895 0.58983 0.66286 0.0
N757 N 0.66714 0.59914 0.66718 0.0
C758 C 0.69242 0.56525 0.66387 0.0
C759 C 0.65132 0.56056 0.67531 0.0
C760 C 0.64865 0.58515 0.67398 0.0
C761 C 0.67327 0.55043 0.66967 0.0
H762 H 0.70351 0.60137 0.65805 0.0
H763 H 0.63161 0.59307 0.67771 0.0
O764 O 0.64623 0.6895 0.6498 0.0
O765 O 0.68753 0.65213 0.65039 0.0
O766 O 0.65112 0.65074 0.68993 0.0
O767 O 0.63521 0.6386 0.6383 0.0
H768 H 0.67162 0.71539 0.61981 0.0
H769 H 0.62867 0.71803 0.68291 0.0
H770 H 0.67845 0.75885 0.62343 0.0
H771 H 0.63655 0.76136 0.68568 0.0
H772 H 0.72671 0.61439 0.59063 0.0
H773 H 0.72675 0.67822 0.65084 0.0
H774 H 0.69215 0.61869 0.61745 0.0
H775 H 0.7608 0.67285 0.62358 0.0
H776 H 0.72871 0.73971 0.68379 0.0
H777 H 0.70294 0.70529 0.74725 0.0
H778 H 0.63139 0.6601 0.54852 0.0
H779 H 0.70248 0.68752 0.55651 0.0
H780 H 0.64061 0.61267 0.71562 0.0
H781 H 0.63223 0.68854 0.71063 0.0
H782 H 0.61579 0.61294 0.75197 0.0
H783 H 0.60756 0.68756 0.74709 0.0
H784 H 0.59701 0.61452 0.65172 0.0
H785 H 0.65541 0.61536 0.60258 0.0
H786 H 0.58406 0.57597 0.63467 0.0
H787 H 0.6417 0.57663 0.58662 0.0
H788 H 0.55281 0.70324 0.65455 0.0
H789 H 0.55033 0.63867 0.69588 0.0
H790 H 0.70958 0.55783 0.65951 0.0
H791 H 0.63626 0.54947 0.67989 0.0
Li792 Li 0.33286 0.62885 0.66518 0.0
Li793 Li 0.32429 0.669 0.67434 0.0
Li794 Li 0.33381 0.65827 0.63422 0.0
Li795 Li 0.36527 0.66026 0.66582 0.0
C796 C 0.28856 0.63115 0.6527 0.0
N797 N 0.25404 0.59611 0.65289 0.0
C798 C 0.27046 0.63157 0.66969 0.0
C799 C 0.28901 0.61294 0.63577 0.0
C800 C 0.25317 0.6137 0.66947 0.0
C801 C 0.27146 0.59536 0.6362 0.0
C802 C 0.34098 0.64958 0.71564 0.0
C803 C 0.35326 0.6597 0.7554 0.0
N804 N 0.33113 0.65441 0.76345 0.0
C805 C 0.31839 0.64414 0.72431 0.0
C806 C 0.3586 0.65737 0.73127 0.0
C807 C 0.31374 0.64676 0.74853 0.0
C808 C 0.34267 0.58037 0.66113 0.0
N809 N 0.32786 0.59596 0.67208 0.0
C810 C 0.30703 0.56398 0.69089 0.0
C811 C 0.31053 0.58829 0.68711 0.0
C812 C 0.32191 0.54766 0.67948 0.0
C813 C 0.33999 0.55598 0.6646 0.0
H814 H 0.35658 0.58688 0.64964 0.0
H815 H 0.29921 0.60095 0.69594 0.0
C816 C 0.28288 0.6943 0.68516 0.0
N817 N 0.30537 0.69011 0.6927 0.0
C818 C 0.26815 0.70951 0.69797 0.0
C819 C 0.3003 0.71647 0.72558 0.0
C820 C 0.31446 0.70129 0.71212 0.0
C821 C 0.27686 0.72044 0.71854 0.0
H822 H 0.27644 0.68587 0.66915 0.0
H823 H 0.33272 0.69852 0.71713 0.0
C824 C 0.3689 0.62973 0.62046 0.0
N825 N 0.38875 0.62088 0.57645 0.0
C826 C 0.38987 0.6412 0.61371 0.0
C827 C 0.35814 0.61361 0.60488 0.0
C828 C 0.39959 0.63654 0.59137 0.0
C829 C 0.36843 0.6094 0.58271 0.0
C830 C 0.33833 0.70878 0.65411 0.0
C831 C 0.31913 0.71637 0.64043 0.0
C832 C 0.3487 0.72434 0.67049 0.0
C833 C 0.31048 0.73944 0.64352 0.0
C834 C 0.33951 0.74727 0.67305 0.0
N835 N 0.32076 0.75427 0.65964 0.0
C836 C 0.30887 0.65659 0.59041 0.0
C837 C 0.34646 0.67561 0.58932 0.0
C838 C 0.30643 0.65914 0.56589 0.0
N839 N 0.32892 0.66424 0.60144 0.0
C840 C 0.34481 0.67847 0.56479 0.0
C841 C 0.32478 0.66978 0.55288 0.0
H842 H 0.29495 0.64816 0.60053 0.0
H843 H 0.36202 0.68187 0.59867 0.0
C844 C 0.41033 0.64741 0.68098 0.0
N845 N 0.39757 0.66581 0.67206 0.0
C846 C 0.43486 0.64942 0.68329 0.0
C847 C 0.43246 0.68957 0.66792 0.0
C848 C 0.40796 0.68674 0.6658 0.0
C849 C 0.44609 0.67056 0.67636 0.0
H850 H 0.40149 0.63091 0.6855 0.0
H851 H 0.39735 0.70086 0.65833 0.0
O852 O 0.30578 0.64839 0.65271 0.0
O853 O 0.34589 0.6474 0.69197 0.0
O854 O 0.35893 0.63431 0.64216 0.0
O855 O 0.34655 0.68603 0.65185 0.0
H856 H 0.26989 0.6453 0.68312 0.0
H857 H 0.30294 0.61219 0.62263 0.0
H858 H 0.23914 0.61376 0.68257 0.0
H859 H 0.27172 0.58108 0.6233 0.0
H860 H 0.36671 0.66575 0.76771 0.0
H861 H 0.30446 0.63855 0.71238 0.0
H862 H 0.37618 0.66166 0.7248 0.0
H863 H 0.29627 0.64284 0.75546 0.0
H864 H 0.29293 0.55795 0.7025 0.0
H865 H 0.35173 0.54368 0.6556 0.0
H866 H 0.25014 0.71256 0.69207 0.0
H867 H 0.30748 0.72501 0.74126 0.0
H868 H 0.39844 0.65378 0.62545 0.0
H869 H 0.34201 0.60445 0.60983 0.0
H870 H 0.41573 0.6454 0.58588 0.0
H871 H 0.36025 0.59702 0.57046 0.0
H872 H 0.31082 0.70447 0.62779 0.0
H873 H 0.36341 0.71863 0.68139 0.0
H874 H 0.29555 0.74553 0.63317 0.0
H875 H 0.34723 0.75945 0.68579 0.0
H876 H 0.29073 0.65239 0.55707 0.0
H877 H 0.3592 0.68681 0.55512 0.0
H878 H 0.44506 0.63443 0.68967 0.0
H879 H 0.44081 0.70597 0.66222 0.0
Li880 Li 0.33765 0.36615 0.66313 0.0
Li881 Li 0.36914 0.33319 0.66026 0.0
Li882 Li 0.33741 0.33682 0.6312 0.0
Li883 Li 0.32836 0.32417 0.67004 0.0
C884 C 0.36851 0.36983 0.6171 0.0
N885 N 0.38043 0.38863 0.57336 0.0
C886 C 0.38908 0.36234 0.60547 0.0
C887 C 0.35402 0.38691 0.60648 0.0
C888 C 0.39477 0.37202 0.58334 0.0
C889 C 0.36033 0.39618 0.58435 0.0
C890 C 0.3468 0.33675 0.7107 0.0
C891 C 0.35287 0.30752 0.74138 0.0
N892 N 0.33703 0.31914 0.75541 0.0
C893 C 0.33064 0.34846 0.72543 0.0
C894 C 0.35808 0.31617 0.71872 0.0
C895 C 0.32591 0.33924 0.74798 0.0
C896 C 0.31263 0.40471 0.68378 0.0
N897 N 0.33234 0.3982 0.67146 0.0
C898 C 0.34442 0.43868 0.66739 0.0
C899 C 0.34833 0.41451 0.66362 0.0
C900 C 0.32401 0.44593 0.67953 0.0
C901 C 0.30814 0.42877 0.68819 0.0
H902 H 0.30019 0.39127 0.68965 0.0
H903 H 0.3639 0.40876 0.65403 0.0
C904 C 0.41354 0.31509 0.64744 0.0
N905 N 0.4015 0.32654 0.66494 0.0
C906 C 0.43811 0.31265 0.64891 0.0
C907 C 0.43705 0.33228 0.68719 0.0
C908 C 0.41256 0.33475 0.68477 0.0
C909 C 0.45009 0.32174 0.66877 0.0
H910 H 0.40416 0.30872 0.63193 0.0
H911 H 0.40246 0.34386 0.69833 0.0
C912 C 0.28972 0.35478 0.64197 0.0
N913 N 0.24688 0.36956 0.62339 0.0
C914 C 0.27048 0.33906 0.64093 0.0
C915 C 0.28702 0.37813 0.63389 0.0
C916 C 0.24901 0.34684 0.63137 0.0
C917 C 0.26526 0.38523 0.62447 0.0
C918 C 0.33932 0.28718 0.63854 0.0
C919 C 0.31605 0.28727 0.63011 0.0
C920 C 0.35232 0.26605 0.63823 0.0
C921 C 0.30607 0.26615 0.62161 0.0
C922 C 0.34171 0.24527 0.6296 0.0
N923 N 0.31899 0.24575 0.62154 0.0
C924 C 0.34957 0.32004 0.58648 0.0
C925 C 0.31377 0.34207 0.58592 0.0
C926 C 0.34885 0.31735 0.56187 0.0
N927 N 0.33235 0.3325 0.59793 0.0
C928 C 0.31228 0.33969 0.5613 0.0
C929 C 0.33015 0.32748 0.54912 0.0
H930 H 0.36422 0.31277 0.59646 0.0
H931 H 0.3004 0.35205 0.59519 0.0
C932 C 0.28865 0.31458 0.6979 0.0
N933 N 0.30868 0.30459 0.68895 0.0
C934 C 0.27361 0.30133 0.71242 0.0
C935 C 0.3001 0.26776 0.70818 0.0
C936 C 0.31473 0.28172 0.69385 0.0
C937 C 0.27935 0.27768 0.71756 0.0
H938 H 0.28454 0.33293 0.69392 0.0
H939 H 0.33102 0.27442 0.68688 0.0
O940 O 0.36269 0.36065 0.63885 0.0
O941 O 0.35121 0.34512 0.68835 0.0
O942 O 0.31076 0.34757 0.65166 0.0
O943 O 0.34949 0.30758 0.64709 0.0
H944 H 0.40055 0.34924 0.61342 0.0
H945 H 0.33809 0.39294 0.61521 0.0
H946 H 0.41062 0.36635 0.57414 0.0
H947 H 0.34925 0.40938 0.57592 0.0
H948 H 0.36135 0.29153 0.74778 0.0
H949 H 0.32171 0.36436 0.71943 0.0
H950 H 0.37049 0.30681 0.70742 0.0
H951 H 0.31335 0.34803 0.75953 0.0
H952 H 0.357 0.45162 0.66065 0.0
H953 H 0.29226 0.43398 0.69767 0.0
H954 H 0.44774 0.30444 0.63442 0.0
H955 H 0.44587 0.33944 0.70272 0.0
H956 H 0.27201 0.32107 0.64755 0.0
H957 H 0.30154 0.39066 0.63475 0.0
H958 H 0.23402 0.33483 0.63039 0.0
H959 H 0.26299 0.40322 0.61805 0.0
H960 H 0.30588 0.30349 0.63001 0.0
H961 H 0.37039 0.26572 0.64468 0.0
H962 H 0.28805 0.26598 0.61503 0.0
H963 H 0.35154 0.22877 0.62931 0.0
H964 H 0.36299 0.30799 0.55281 0.0
H965 H 0.29775 0.34786 0.55177 0.0
H966 H 0.25771 0.30938 0.71959 0.0
H967 H 0.30495 0.24954 0.71208 0.0
Li968 Li 0.63455 0.33523 0.66015 0.0
Li969 Li 0.67298 0.32557 0.67288 0.0
Li970 Li 0.66364 0.3659 0.66004 0.0
Li971 Li 0.66571 0.33313 0.63004 0.0
C972 C 0.63498 0.34889 0.70553 0.0
N973 N 0.60092 0.34921 0.74083 0.0
C974 C 0.63657 0.33307 0.7246 0.0
C975 C 0.6161 0.36493 0.70447 0.0
C976 C 0.61917 0.33352 0.74227 0.0
C977 C 0.59903 0.36478 0.72245 0.0
C978 C 0.63729 0.28946 0.65201 0.0
C979 C 0.60509 0.26701 0.63487 0.0
N980 N 0.60245 0.25504 0.65569 0.0
C981 C 0.63435 0.2769 0.67321 0.0
C982 C 0.62266 0.28444 0.63262 0.0
C983 C 0.61662 0.25956 0.67472 0.0
C984 C 0.58744 0.33636 0.64511 0.0
N985 N 0.60126 0.32881 0.66335 0.0
C986 C 0.5672 0.31462 0.68438 0.0
C987 C 0.59172 0.31737 0.68242 0.0
C988 C 0.55258 0.32311 0.66619 0.0
C989 C 0.56291 0.33364 0.64614 0.0
H990 H 0.59544 0.34473 0.62981 0.0
H991 H 0.60305 0.31071 0.69631 0.0
C992 C 0.70015 0.31748 0.71398 0.0
N993 N 0.69195 0.30753 0.69355 0.0
C994 C 0.71482 0.30445 0.72902 0.0
C995 C 0.71232 0.27132 0.70156 0.0
C996 C 0.69775 0.28499 0.68705 0.0
C997 C 0.72093 0.28113 0.72274 0.0
H998 H 0.69537 0.33557 0.71847 0.0
H999 H 0.69116 0.27775 0.67052 0.0
C1000 C 0.63615 0.37894 0.62414 0.0
N1001 N 0.62666 0.42254 0.60371 0.0
C1002 C 0.6496 0.3869 0.60486 0.0
C1003 C 0.61794 0.39318 0.63309 0.0
C1004 C 0.64453 0.40901 0.59478 0.0
C1005 C 0.61341 0.41516 0.62251 0.0
C1006 C 0.71345 0.34553 0.66012 0.0
C1007 C 0.72051 0.36247 0.67689 0.0
C1008 C 0.72864 0.32676 0.65439 0.0
C1009 C 0.74273 0.36039 0.68763 0.0
C1010 C 0.7507 0.32528 0.66554 0.0
N1011 N 0.75723 0.34199 0.68179 0.0
C1012 C 0.65902 0.41115 0.68174 0.0
C1013 C 0.68382 0.41006 0.64771 0.0
C1014 C 0.66154 0.43579 0.68329 0.0
N1015 N 0.66966 0.39895 0.66382 0.0
C1016 C 0.68691 0.4347 0.64864 0.0
C1017 C 0.67528 0.44777 0.66636 0.0
H1018 H 0.64824 0.40185 0.69455 0.0
H1019 H 0.69221 0.39982 0.63378 0.0
C1020 C 0.65382 0.3282 0.58271 0.0
N1021 N 0.67227 0.32577 0.59799 0.0
C1022 C 0.6573 0.32525 0.5584 0.0
C1023 C 0.69847 0.31606 0.56609 0.0
C1024 C 0.69427 0.31957 0.59031 0.0
C1025 C 0.67991 0.31945 0.54989 0.0
H1026 H 0.63653 0.33311 0.58941 0.0
H1027 H 0.7086 0.31784 0.60286 0.0
O1028 O 0.65198 0.34884 0.68819 0.0
O1029 O 0.6542 0.30684 0.65036 0.0
O1030 O 0.6408 0.35732 0.63424 0.0
O1031 O 0.69149 0.3469 0.64991 0.0
H1032 H 0.65096 0.32045 0.72567 0.0
H1033 H 0.61441 0.37709 0.68971 0.0
H1034 H 0.62014 0.32134 0.75709 0.0
H1035 H 0.58424 0.37696 0.72175 0.0
H1036 H 0.59351 0.26304 0.62008 0.0
H1037 H 0.64539 0.28075 0.68845 0.0
H1038 H 0.6247 0.29409 0.61612 0.0
H1039 H 0.61402 0.24979 0.69106 0.0
H1040 H 0.55969 0.30627 0.7 0.0
H1041 H 0.55203 0.3402 0.63174 0.0
H1042 H 0.72132 0.31238 0.74531 0.0
H1043 H 0.71689 0.25334 0.69636 0.0
H1044 H 0.66398 0.37627 0.5979 0.0
H1045 H 0.60738 0.38729 0.64803 0.0
H1046 H 0.65483 0.41543 0.57989 0.0
H1047 H 0.59937 0.42638 0.62925 0.0
H1048 H 0.70888 0.37692 0.68182 0.0
H1049 H 0.72328 0.31321 0.64184 0.0
H1050 H 0.74839 0.37333 0.70069 0.0
H1051 H 0.76256 0.31076 0.66141 0.0
H1052 H 0.65243 0.44549 0.69719 0.0
H1053 H 0.69764 0.44356 0.63535 0.0
H1054 H 0.64262 0.32788 0.5463 0.0
H1055 H 0.71608 0.31147 0.55997 0.0
Li1056 Li 0.66218 0.36731 0.33537 0.0
Li1057 Li 0.6645 0.33475 0.36808 0.0
Li1058 Li 0.67161 0.32677 0.32612 0.0
Li1059 Li 0.63321 0.33419 0.33828 0.0
C1060 C 0.71265 0.34463 0.34141 0.0
N1061 N 0.75876 0.33482 0.32821 0.0
C1062 C 0.72365 0.32384 0.3493 0.0
C1063 C 0.72516 0.36058 0.32705 0.0
C1064 C 0.74695 0.31915 0.34233 0.0
C1065 C 0.74846 0.35528 0.32054 0.0
C1066 C 0.61868 0.36703 0.37022 0.0
C1067 C 0.58657 0.36509 0.39846 0.0
N1068 N 0.57509 0.38251 0.38633 0.0
C1069 C 0.60653 0.38484 0.35798 0.0
C1070 C 0.60864 0.35705 0.39062 0.0
C1071 C 0.58453 0.39245 0.36643 0.0
C1072 C 0.65207 0.41125 0.31397 0.0
N1073 N 0.66625 0.40014 0.32998 0.0
C1074 C 0.68356 0.43712 0.34173 0.0
C1075 C 0.68203 0.4124 0.34356 0.0
C1076 C 0.6686 0.44905 0.32589 0.0
C1077 C 0.65297 0.43594 0.31161 0.0
H1078 H 0.63951 0.40098 0.30365 0.0
H1079 H 0.69287 0.40301 0.35629 0.0
C1080 C 0.68407 0.30963 0.40723 0.0
N1081 N 0.67279 0.32978 0.40016 0.0
C1082 C 0.68865 0.3058 0.43131 0.0
C1083 C 0.67024 0.34366 0.4401 0.0
C1084 C 0.66636 0.34691 0.41591 0.0
C1085 C 0.68119 0.32276 0.448 0.0
H1086 H 0.689 0.29635 0.39423 0.0
H1087 H 0.65778 0.36291 0.4097 0.0
C1088 C 0.65242 0.34344 0.28649 0.0
N1089 N 0.66108 0.33411 0.23911 0.0
C1090 C 0.64402 0.32244 0.27614 0.0
C1091 C 0.66491 0.35988 0.27267 0.0
C1092 C 0.6487 0.31798 0.25219 0.0
C1093 C 0.66916 0.3548 0.24875 0.0
C1094 C 0.63797 0.28944 0.35356 0.0
C1095 C 0.62827 0.27643 0.33474 0.0
C1096 C 0.63173 0.28373 0.3769 0.0
C1097 C 0.61216 0.25814 0.33957 0.0
C1098 C 0.61559 0.26527 0.38099 0.0
N1099 N 0.6062 0.25299 0.3624 0.0
C1100 C 0.69084 0.28392 0.30918 0.0
C1101 C 0.7052 0.31816 0.28912 0.0
C1102 C 0.70505 0.26922 0.29523 0.0
N1103 N 0.69108 0.30788 0.30584 0.0
C1104 C 0.71963 0.30414 0.27473 0.0
C1105 C 0.71955 0.27944 0.27781 0.0
H1106 H 0.67976 0.27622 0.32283 0.0
H1107 H 0.70544 0.33725 0.2871 0.0
C1108 C 0.58994 0.33605 0.31358 0.0
N1109 N 0.60002 0.32836 0.33411 0.0
C1110 C 0.56541 0.33487 0.31054 0.0
C1111 C 0.56209 0.31731 0.34958 0.0
C1112 C 0.58665 0.31894 0.35191 0.0
C1113 C 0.55129 0.32571 0.32885 0.0
H1114 H 0.60086 0.34393 0.29989 0.0
H1115 H 0.59486 0.3136 0.36833 0.0
O1116 O 0.68969 0.34927 0.34758 0.0
O1117 O 0.64036 0.35954 0.36236 0.0
O1118 O 0.6482 0.34802 0.30997 0.0
O1119 O 0.65385 0.30735 0.34917 0.0
H1120 H 0.71415 0.31129 0.36035 0.0
H1121 H 0.71685 0.37673 0.32077 0.0
H1122 H 0.75562 0.30301 0.34809 0.0
H1123 H 0.75831 0.36737 0.30929 0.0
H1124 H 0.57854 0.35745 0.41416 0.0
H1125 H 0.61397 0.39265 0.3421 0.0
H1126 H 0.61766 0.34303 0.40014 0.0
H1127 H 0.57491 0.4062 0.35713 0.0
H1128 H 0.69564 0.44692 0.35308 0.0
H1129 H 0.6411 0.4448 0.29939 0.0
H1130 H 0.6973 0.28958 0.43694 0.0
H1131 H 0.66448 0.35714 0.45259 0.0
H1132 H 0.63406 0.3097 0.28653 0.0
H1133 H 0.67157 0.37621 0.2804 0.0
H1134 H 0.64247 0.3017 0.244 0.0
H1135 H 0.67898 0.36727 0.23788 0.0
H1136 H 0.63312 0.28041 0.3166 0.0
H1137 H 0.63895 0.29363 0.39169 0.0
H1138 H 0.60442 0.24801 0.32517 0.0
H1139 H 0.61048 0.26077 0.39895 0.0
H1140 H 0.70479 0.25015 0.29797 0.0
H1141 H 0.73082 0.31243 0.26144 0.0
H1142 H 0.55746 0.34175 0.29446 0.0
H1143 H 0.55154 0.31045 0.36413 0.0
Li1144 Li 0.65474 0.66506 0.3659 0.0
Li1145 Li 0.65397 0.63334 0.33602 0.0
Li1146 Li 0.66525 0.67399 0.32594 0.0
Li1147 Li 0.62429 0.66415 0.33512 0.0
C1148 C 0.70453 0.65419 0.34149 0.0
N1149 N 0.75076 0.66018 0.32637 0.0
C1150 C 0.71537 0.63675 0.32753 0.0
C1151 C 0.71725 0.67459 0.34793 0.0
C1152 C 0.73876 0.64012 0.32005 0.0
C1153 C 0.74059 0.67732 0.34004 0.0
C1154 C 0.62457 0.61928 0.36995 0.0
C1155 C 0.604 0.58164 0.36828 0.0
N1156 N 0.61468 0.575 0.38886 0.0
C1157 C 0.63534 0.6121 0.3911 0.0
C1158 C 0.60886 0.60389 0.35837 0.0
C1159 C 0.63014 0.58962 0.40035 0.0
C1160 C 0.64039 0.67362 0.4126 0.0
N1161 N 0.65984 0.67107 0.39857 0.0
C1162 C 0.68547 0.67335 0.43222 0.0
C1163 C 0.68212 0.67106 0.40777 0.0
C1164 C 0.66564 0.67551 0.44706 0.0
C1165 C 0.64291 0.67599 0.4371 0.0
H1166 H 0.6229 0.67311 0.40477 0.0
H1167 H 0.69721 0.66858 0.39621 0.0
C1168 C 0.6517 0.5893 0.31132 0.0
N1169 N 0.65984 0.60048 0.33114 0.0
C1170 C 0.65426 0.56472 0.30885 0.0
C1171 C 0.6742 0.56382 0.34687 0.0
C1172 C 0.67138 0.58841 0.34854 0.0
C1173 C 0.66528 0.55179 0.32699 0.0
H1174 H 0.6428 0.59938 0.29769 0.0
H1175 H 0.67782 0.59786 0.364 0.0
C1176 C 0.63941 0.70862 0.36315 0.0
N1177 N 0.63225 0.74102 0.39937 0.0
C1178 C 0.61649 0.71315 0.37143 0.0
C1179 C 0.65866 0.72071 0.37315 0.0
C1180 C 0.61324 0.72959 0.38977 0.0
C1181 C 0.65468 0.73696 0.39151 0.0
C1182 C 0.62891 0.65415 0.28964 0.0
C1183 C 0.63191 0.67253 0.27321 0.0
C1184 C 0.60984 0.63838 0.28722 0.0
C1185 C 0.61563 0.67494 0.25468 0.0
C1186 C 0.59391 0.64144 0.2685 0.0
N1187 N 0.59711 0.6595 0.25275 0.0
C1188 C 0.6982 0.68163 0.28925 0.0
C1189 C 0.68577 0.71656 0.30944 0.0
C1190 C 0.71362 0.69487 0.27509 0.0
N1191 N 0.68501 0.6926 0.30623 0.0
C1192 C 0.70071 0.73054 0.29545 0.0
C1193 C 0.71493 0.71956 0.27826 0.0
H1194 H 0.69686 0.66257 0.28689 0.0
H1195 H 0.67483 0.72479 0.32287 0.0
C1196 C 0.57535 0.65864 0.34101 0.0
N1197 N 0.59202 0.67108 0.32875 0.0
C1198 C 0.55138 0.66272 0.33696 0.0
C1199 C 0.56205 0.69278 0.30811 0.0
C1200 C 0.58592 0.68821 0.31284 0.0
C1201 C 0.54462 0.67982 0.32027 0.0
H1202 H 0.58067 0.64567 0.35405 0.0
H1203 H 0.59959 0.69824 0.3038 0.0
O1204 O 0.68151 0.65141 0.34863 0.0
O1205 O 0.62939 0.64124 0.3606 0.0
O1206 O 0.64303 0.69219 0.34558 0.0
O1207 O 0.64446 0.65169 0.30808 0.0
H1208 H 0.70575 0.62089 0.32233 0.0
H1209 H 0.70907 0.68833 0.35859 0.0
H1210 H 0.74734 0.62683 0.30914 0.0
H1211 H 0.75058 0.6931 0.34471 0.0
H1212 H 0.59182 0.56958 0.35953 0.0
H1213 H 0.64776 0.62361 0.40019 0.0
H1214 H 0.60059 0.60902 0.34183 0.0
H1215 H 0.63841 0.5838 0.41666 0.0
H1216 H 0.70319 0.67274 0.43956 0.0
H1217 H 0.62732 0.67746 0.44824 0.0
H1218 H 0.64717 0.55578 0.29334 0.0
H1219 H 0.68272 0.55419 0.36115 0.0
H1220 H 0.60139 0.70393 0.36395 0.0
H1221 H 0.67652 0.71732 0.36704 0.0
H1222 H 0.59562 0.73319 0.39643 0.0
H1223 H 0.66943 0.74629 0.39956 0.0
H1224 H 0.64653 0.68493 0.27483 0.0
H1225 H 0.60713 0.62419 0.29991 0.0
H1226 H 0.61768 0.68913 0.24188 0.0
H1227 H 0.57895 0.62951 0.26654 0.0
H1228 H 0.72437 0.68603 0.26181 0.0
H1229 H 0.70137 0.74962 0.29813 0.0
H1230 H 0.5382 0.65265 0.34674 0.0
H1231 H 0.55722 0.70625 0.29527 0.0
Li1232 Li 0.33679 0.66478 0.36901 0.0
Li1233 Li 0.3349 0.63414 0.33789 0.0
Li1234 Li 0.36387 0.66515 0.33626 0.0
Li1235 Li 0.32408 0.67619 0.32723 0.0
C1236 C 0.36318 0.62618 0.38041 0.0
N1237 N 0.36736 0.59864 0.42084 0.0
C1238 C 0.34393 0.61277 0.38853 0.0
C1239 C 0.38456 0.62565 0.39294 0.0
C1240 C 0.34638 0.59894 0.40896 0.0
C1241 C 0.38633 0.61159 0.41331 0.0
C1242 C 0.28686 0.64313 0.34999 0.0
C1243 C 0.25036 0.63413 0.3295 0.0
N1244 N 0.24303 0.62103 0.34843 0.0
C1245 C 0.27883 0.62978 0.36935 0.0
C1246 C 0.27241 0.6455 0.32998 0.0
C1247 C 0.25669 0.61866 0.36817 0.0
C1248 C 0.31012 0.67138 0.41121 0.0
N1249 N 0.33234 0.67054 0.40186 0.0
C1250 C 0.34964 0.67358 0.44041 0.0
C1251 C 0.35193 0.67214 0.41583 0.0
C1252 C 0.32698 0.67354 0.45053 0.0
C1253 C 0.30699 0.67286 0.43578 0.0
H1254 H 0.29488 0.67028 0.39965 0.0
H1255 H 0.36936 0.67148 0.40793 0.0
C1256 C 0.34633 0.58561 0.33733 0.0
N1257 N 0.32902 0.60126 0.33125 0.0
C1258 C 0.34301 0.56127 0.33394 0.0
C1259 C 0.30471 0.56951 0.31662 0.0
C1260 C 0.30873 0.59377 0.32049 0.0
C1261 C 0.32187 0.55305 0.3238 0.0
H1262 H 0.36274 0.592 0.3449 0.0
H1263 H 0.29569 0.60652 0.31481 0.0
C1264 C 0.36144 0.71119 0.34964 0.0
N1265 N 0.39348 0.74846 0.34978 0.0
C1266 C 0.35844 0.73034 0.33413 0.0
C1267 C 0.38059 0.71109 0.36537 0.0
C1268 C 0.37485 0.74901 0.33446 0.0
C1269 C 0.39665 0.73005 0.3651 0.0
C1270 C 0.36056 0.65094 0.29242 0.0
C1271 C 0.36415 0.66923 0.276 0.0
C1272 C 0.37484 0.63068 0.29161 0.0
C1273 C 0.38214 0.66698 0.25908 0.0
C1274 C 0.39267 0.62913 0.27445 0.0
N1275 N 0.39592 0.64716 0.25868 0.0
C1276 C 0.41231 0.65533 0.33587 0.0
C1277 C 0.40277 0.69033 0.31444 0.0
C1278 C 0.43637 0.65887 0.33157 0.0
N1279 N 0.39614 0.67124 0.3278 0.0
C1280 C 0.42671 0.69461 0.30975 0.0
C1281 C 0.44369 0.67888 0.31873 0.0
H1282 H 0.4065 0.63991 0.34572 0.0
H1283 H 0.38954 0.70233 0.30758 0.0
C1284 C 0.2926 0.71405 0.32027 0.0
N1285 N 0.30399 0.69577 0.30935 0.0
C1286 C 0.27776 0.72893 0.30722 0.0
C1287 C 0.28672 0.70574 0.27206 0.0
C1288 C 0.30127 0.69127 0.2858 0.0
C1289 C 0.27489 0.72477 0.28286 0.0
H1290 H 0.29515 0.71706 0.33908 0.0
H1291 H 0.31033 0.67637 0.27775 0.0
O1292 O 0.36082 0.64055 0.36092 0.0
O1293 O 0.30839 0.65442 0.3509 0.0
O1294 O 0.34561 0.69272 0.34946 0.0
O1295 O 0.34347 0.65306 0.30953 0.0
H1296 H 0.32728 0.61304 0.37914 0.0
H1297 H 0.39954 0.63627 0.38726 0.0
H1298 H 0.33159 0.58849 0.41541 0.0
H1299 H 0.40274 0.61108 0.42321 0.0
H1300 H 0.23909 0.63568 0.31405 0.0
H1301 H 0.28947 0.62812 0.38522 0.0
H1302 H 0.27825 0.65571 0.31482 0.0
H1303 H 0.25031 0.60822 0.38299 0.0
H1304 H 0.36534 0.67401 0.45146 0.0
H1305 H 0.28929 0.67277 0.44324 0.0
H1306 H 0.35674 0.54895 0.33928 0.0
H1307 H 0.28839 0.56363 0.30833 0.0
H1308 H 0.3437 0.73069 0.32185 0.0
H1309 H 0.38329 0.69631 0.37731 0.0
H1310 H 0.37282 0.7639 0.32249 0.0
H1311 H 0.4117 0.73009 0.377 0.0
H1312 H 0.35347 0.68518 0.27658 0.0
H1313 H 0.37239 0.61645 0.30429 0.0
H1314 H 0.38524 0.68106 0.24636 0.0
H1315 H 0.40397 0.61362 0.27371 0.0
H1316 H 0.44918 0.64633 0.33848 0.0
H1317 H 0.43197 0.7101 0.29959 0.0
H1318 H 0.26873 0.74353 0.3159 0.0
H1319 H 0.28465 0.70215 0.25328 0.0
Li1320 Li 0.33592 0.37045 0.3335 0.0
Li1321 Li 0.33793 0.33701 0.3653 0.0
Li1322 Li 0.36709 0.34048 0.33254 0.0
Li1323 Li 0.32861 0.32858 0.32463 0.0
C1324 C 0.38162 0.37175 0.36592 0.0
N1325 N 0.42531 0.38739 0.38173 0.0
C1326 C 0.39362 0.35915 0.38356 0.0
C1327 C 0.39184 0.39226 0.35627 0.0
C1328 C 0.41569 0.36736 0.39134 0.0
C1329 C 0.41396 0.39986 0.36448 0.0
C1330 C 0.28764 0.34348 0.34253 0.0
C1331 C 0.25206 0.32174 0.35233 0.0
N1332 N 0.24164 0.3301 0.33224 0.0
C1333 C 0.27652 0.35207 0.32212 0.0
C1334 C 0.27531 0.32834 0.35788 0.0
C1335 C 0.25327 0.34501 0.31717 0.0
C1336 C 0.31734 0.41057 0.30906 0.0
N1337 N 0.32789 0.40275 0.3293 0.0
C1338 C 0.33012 0.44227 0.34463 0.0
C1339 C 0.33382 0.41792 0.34715 0.0
C1340 C 0.32 0.45093 0.32366 0.0
C1341 C 0.3131 0.43486 0.30586 0.0
H1342 H 0.31277 0.39802 0.29521 0.0
H1343 H 0.34188 0.4111 0.36316 0.0
C1344 C 0.34671 0.31432 0.40901 0.0
N1345 N 0.33354 0.33117 0.39788 0.0
C1346 C 0.34528 0.3117 0.43361 0.0
C1347 C 0.31641 0.3435 0.43462 0.0
C1348 C 0.31836 0.34546 0.41001 0.0
C1349 C 0.33025 0.32669 0.44658 0.0
H1350 H 0.35889 0.30348 0.39886 0.0
H1351 H 0.30834 0.35885 0.40061 0.0
C1352 C 0.3622 0.35676 0.28788 0.0
N1353 N 0.39324 0.36642 0.25113 0.0
C1354 C 0.37115 0.33824 0.27395 0.0
C1355 C 0.36882 0.38024 0.28292 0.0
C1356 C 0.3869 0.34347 0.25552 0.0
C1357 C 0.38458 0.38474 0.2643 0.0
C1358 C 0.34842 0.28845 0.34011 0.0
C1359 C 0.35733 0.27923 0.31886 0.0
C1360 C 0.33633 0.27351 0.35584 0.0
C1361 C 0.35352 0.25526 0.31343 0.0
C1362 C 0.33293 0.24961 0.34979 0.0
N1363 N 0.34149 0.24107 0.32887 0.0
C1364 C 0.41029 0.31579 0.33491 0.0
C1365 C 0.41373 0.35397 0.31733 0.0
C1366 C 0.4348 0.31266 0.33378 0.0
N1367 N 0.40028 0.33627 0.3269 0.0
C1368 C 0.43827 0.35152 0.31569 0.0
C1369 C 0.44899 0.33082 0.32433 0.0
H1370 H 0.39933 0.30222 0.34296 0.0
H1371 H 0.40561 0.37042 0.3119 0.0
C1372 C 0.30862 0.31303 0.28159 0.0
N1373 N 0.30908 0.30871 0.30534 0.0
C1374 C 0.29427 0.29935 0.26672 0.0
C1375 C 0.28103 0.27709 0.30104 0.0
C1376 C 0.29552 0.29129 0.31525 0.0
C1377 C 0.2804 0.28116 0.27655 0.0
H1378 H 0.31923 0.32725 0.27422 0.0
H1379 H 0.29574 0.28858 0.33421 0.0
O1380 O 0.35991 0.36411 0.35824 0.0
O1381 O 0.31056 0.34971 0.34738 0.0
O1382 O 0.3466 0.352 0.30587 0.0
O1383 O 0.35184 0.31191 0.34566 0.0
H1384 H 0.386 0.34319 0.39113 0.0
H1385 H 0.38289 0.40207 0.34241 0.0
H1386 H 0.4252 0.35779 0.40497 0.0
H1387 H 0.42213 0.41565 0.35711 0.0
H1388 H 0.24235 0.30989 0.36394 0.0
H1389 H 0.28588 0.36376 0.31005 0.0
H1390 H 0.28372 0.32152 0.37373 0.0
H1391 H 0.24451 0.35131 0.30131 0.0
H1392 H 0.33546 0.4543 0.3587 0.0
H1393 H 0.30515 0.44111 0.28954 0.0
H1394 H 0.35633 0.29875 0.44252 0.0
H1395 H 0.30482 0.3554 0.44431 0.0
H1396 H 0.36592 0.32003 0.27728 0.0
H1397 H 0.3622 0.3948 0.29354 0.0
H1398 H 0.39403 0.32929 0.24467 0.0
H1399 H 0.38999 0.4028 0.26039 0.0
H1400 H 0.36705 0.29047 0.3067 0.0
H1401 H 0.32931 0.28036 0.37237 0.0
H1402 H 0.36016 0.24792 0.29696 0.0
H1403 H 0.32343 0.23788 0.3617 0.0
H1404 H 0.44268 0.29662 0.34087 0.0
H1405 H 0.44887 0.36598 0.30864 0.0
H1406 H 0.29395 0.30286 0.24782 0.0
H1407 H 0.27031 0.26323 0.30904 0.0
C1408 C 0.24155 0.27373 0.25645 0.0
C1409 C 0.2651 0.26634 0.2612 0.0
C1410 C 0.25871 0.22951 0.23879 0.0
C1411 C 0.23562 0.23751 0.23293 0.0
N1412 N 0.20587 0.26822 0.233 0.0
N1413 N 0.29751 0.23922 0.25473 0.0
C1414 C 0.22725 0.25994 0.24085 0.0
C1415 C 0.27411 0.2448 0.25172 0.0
N1416 N 0.23272 0.29359 0.26735 0.0
N1417 N 0.26563 0.20704 0.23254 0.0
H1418 H 0.30916 0.24968 0.26468 0.0
H1419 H 0.30588 0.22518 0.24609 0.0
H1420 H 0.25505 0.19556 0.22252 0.0
H1421 H 0.28113 0.19908 0.23856 0.0
H1422 H 0.21495 0.29847 0.26683 0.0
H1423 H 0.2429 0.30451 0.27836 0.0
H1424 H 0.19986 0.28546 0.23598 0.0
H1425 H 0.19472 0.25837 0.22192 0.0
C1426 C 0.75694 0.25639 0.27167 0.0
C1427 C 0.73476 0.26421 0.26282 0.0
C1428 C 0.74228 0.2443 0.22488 0.0
C1429 C 0.76352 0.23485 0.23443 0.0
N1430 N 0.78974 0.22886 0.26768 0.0
N1431 N 0.70454 0.26339 0.23257 0.0
C1432 C 0.77052 0.24007 0.25806 0.0
C1433 C 0.72691 0.25755 0.23983 0.0
N1434 N 0.76524 0.26506 0.2928 0.0
N1435 N 0.73718 0.24117 0.20134 0.0
H1436 H 0.69293 0.27349 0.24288 0.0
H1437 H 0.69677 0.2568 0.21714 0.0
H1438 H 0.74792 0.23136 0.18988 0.0
H1439 H 0.72335 0.24978 0.19269 0.0
H1440 H 0.78237 0.26213 0.29898 0.0
H1441 H 0.7556 0.27679 0.30343 0.0
H1442 H 0.79423 0.22989 0.28558 0.0
H1443 H 0.80026 0.21696 0.25815 0.0
C1444 C 0.76986 0.75373 0.25875 0.0
C1445 C 0.76239 0.76186 0.23612 0.0
C1446 C 0.72435 0.74114 0.24055 0.0
C1447 C 0.73135 0.73398 0.26366 0.0
N1448 N 0.75945 0.73439 0.29589 0.0
N1449 N 0.73245 0.76541 0.20581 0.0
C1450 C 0.75378 0.74052 0.27308 0.0
C1451 C 0.7396 0.75613 0.22709 0.0
N1452 N 0.79247 0.75837 0.26628 0.0
N1453 N 0.70327 0.73324 0.23142 0.0
H1454 H 0.74353 0.77551 0.19491 0.0
H1455 H 0.71521 0.76431 0.19937 0.0
H1456 H 0.69114 0.72316 0.24117 0.0
H1457 H 0.69817 0.73545 0.21382 0.0
H1458 H 0.80007 0.75085 0.28131 0.0
H1459 H 0.80436 0.76894 0.25676 0.0
H1460 H 0.77426 0.74074 0.30491 0.0
H1461 H 0.74862 0.72374 0.30651 0.0
C1462 C 0.26947 0.76028 0.25678 0.0
C1463 C 0.25947 0.74028 0.26845 0.0
C1464 C 0.22055 0.74901 0.25135 0.0
C1465 C 0.23106 0.7676 0.23795 0.0
N1466 N 0.26541 0.7903 0.22613 0.0
N1467 N 0.22637 0.71412 0.276 0.0
C1468 C 0.2555 0.77316 0.24025 0.0
C1469 C 0.23519 0.73429 0.26562 0.0
N1470 N 0.29221 0.76712 0.26184 0.0
N1471 N 0.19652 0.74567 0.25062 0.0
H1472 H 0.23638 0.70336 0.28724 0.0
H1473 H 0.20964 0.70716 0.27245 0.0
H1474 H 0.18534 0.75568 0.23981 0.0
H1475 H 0.18737 0.73418 0.26186 0.0
H1476 H 0.2998 0.78293 0.25593 0.0
H1477 H 0.30313 0.75775 0.27347 0.0
H1478 H 0.28357 0.79336 0.22484 0.0
H1479 H 0.25554 0.80071 0.21446 0.0
C1480 C 0.24708 0.72534 0.751 0.0
C1481 C 0.26128 0.73579 0.733 0.0
C1482 C 0.24505 0.77517 0.74202 0.0
C1483 C 0.23202 0.76495 0.76101 0.0
N1484 N 0.22191 0.73121 0.78547 0.0
N1485 N 0.27603 0.77039 0.71244 0.0
C1486 C 0.23336 0.74025 0.76602 0.0
C1487 C 0.26087 0.76066 0.72876 0.0
N1488 N 0.24641 0.70111 0.75339 0.0
N1489 N 0.24192 0.79864 0.73645 0.0
H1490 H 0.28728 0.76019 0.70185 0.0
H1491 H 0.27861 0.7886 0.71029 0.0
H1492 H 0.23107 0.80999 0.74628 0.0
H1493 H 0.24881 0.80665 0.72128 0.0
H1494 H 0.23446 0.69213 0.76426 0.0
H1495 H 0.25689 0.68965 0.7433 0.0
H1496 H 0.22434 0.71401 0.7918 0.0
H1497 H 0.2109 0.74139 0.79633 0.0
C1498 C 0.25137 0.25094 0.77283 0.0
C1499 C 0.23358 0.23641 0.76243 0.0
C1500 C 0.2449 0.25003 0.7227 0.0
C1501 C 0.26366 0.26335 0.73299 0.0
N1502 N 0.28683 0.27482 0.76711 0.0
N1503 N 0.21461 0.21971 0.72785 0.0
C1504 C 0.26748 0.26336 0.75789 0.0
C1505 C 0.23066 0.23528 0.73744 0.0
N1506 N 0.25248 0.25322 0.797 0.0
N1507 N 0.24043 0.25194 0.6989 0.0
H1508 H 0.2033 0.20921 0.73813 0.0
H1509 H 0.21344 0.21598 0.70978 0.0
H1510 H 0.25098 0.26198 0.68742 0.0
H1511 H 0.22547 0.24489 0.69067 0.0
H1512 H 0.26322 0.26553 0.80569 0.0
H1513 H 0.24141 0.24383 0.80853 0.0
H1514 H 0.29219 0.27336 0.78472 0.0
H1515 H 0.29863 0.28467 0.75675 0.0
C1516 C 0.77567 0.25635 0.75316 0.0
C1517 C 0.76533 0.23753 0.76638 0.0
C1518 C 0.72571 0.24949 0.75346 0.0
C1519 C 0.73623 0.26677 0.73842 0.0
N1520 N 0.77101 0.28526 0.72159 0.0
N1521 N 0.73117 0.21405 0.77728 0.0
C1522 C 0.76117 0.2699 0.73767 0.0
C1523 C 0.7405 0.23353 0.76609 0.0
N1524 N 0.79922 0.26153 0.75584 0.0
N1525 N 0.70161 0.24874 0.75605 0.0
H1526 H 0.74143 0.20216 0.78704 0.0
H1527 H 0.71361 0.20861 0.77548 0.0
H1528 H 0.6902 0.26004 0.74688 0.0
H1529 H 0.69298 0.2383 0.76865 0.0
H1530 H 0.8073 0.27658 0.74869 0.0
H1531 H 0.81043 0.25172 0.7668 0.0
H1532 H 0.78913 0.28639 0.71828 0.0
H1533 H 0.76091 0.29579 0.71024 0.0
C1534 C 0.77157 0.74689 0.75087 0.0
C1535 C 0.76216 0.76771 0.76152 0.0
C1536 C 0.72436 0.7616 0.74101 0.0
C1537 C 0.73311 0.73976 0.73196 0.0
N1538 N 0.76381 0.71006 0.72972 0.0
N1539 N 0.72933 0.79402 0.76911 0.0
C1540 C 0.75642 0.73198 0.73724 0.0
C1541 C 0.73847 0.77489 0.7572 0.0
N1542 N 0.79512 0.7417 0.75341 0.0
N1543 N 0.70273 0.76978 0.73375 0.0
H1544 H 0.73936 0.80452 0.78066 0.0
H1545 H 0.71148 0.79863 0.76886 0.0
H1546 H 0.69168 0.76021 0.72233 0.0
H1547 H 0.69637 0.78671 0.7376 0.0
H1548 H 0.80372 0.72831 0.74401 0.0
H1549 H 0.80664 0.75193 0.76375 0.0
H1550 H 0.7795 0.70211 0.73526 0.0
H1551 H 0.7535 0.69896 0.71901 0.0
C1552 C 0.17637 0.19245 0.98805 0.0
C1553 C 0.17176 0.17109 0.9754 0.0
C1554 C 0.16903 0.14911 0.0128 0.0
C1555 C 0.17085 0.17088 0.02545 0.0
N1556 N 0.17306 0.21376 0.02536 0.0
N1557 N 0.15957 0.12984 0.97556 0.0
C1558 C 0.17373 0.19273 0.01316 0.0
C1559 C 0.167 0.14958 0.98772 0.0
N1560 N 0.18383 0.21228 0.97612 0.0
N1561 N 0.16985 0.12795 0.02473 0.0
H1562 H 0.15756 0.12945 0.95716 0.0
H1563 H 0.15334 0.1145 0.98387 0.0
H1564 H 0.17156 0.12685 0.04314 0.0
H1565 H 0.17111 0.11152 0.01625 0.0
H1566 H 0.18983 0.22765 0.98457 0.0
H1567 H 0.18597 0.21268 0.95772 0.0
H1568 H 0.17246 0.23033 0.01712 0.0
H1569 H 0.17118 0.21467 0.04377 0.0
C1570 C 0.79576 0.17092 0.98681 0.0
C1571 C 0.81507 0.1802 0.9736 0.0
C1572 C 0.83383 0.19373 0.0104 0.0
C1573 C 0.81678 0.18071 0.02358 0.0
N1574 N 0.78237 0.15504 0.02445 0.0
N1575 N 0.85404 0.19824 0.9728 0.0
C1576 C 0.79774 0.16903 0.01187 0.0
C1577 C 0.83443 0.19132 0.98534 0.0
N1578 N 0.77551 0.16406 0.97535 0.0
N1579 N 0.84938 0.20844 0.0219 0.0
H1580 H 0.8555 0.19648 0.95444 0.0
H1581 H 0.86969 0.20391 0.98084 0.0
H1582 H 0.84921 0.2107 0.0403 0.0
H1583 H 0.86075 0.2201 0.01309 0.0
H1584 H 0.76 0.15925 0.98419 0.0
H1585 H 0.77353 0.16539 0.95698 0.0
H1586 H 0.76987 0.14394 0.01648 0.0
H1587 H 0.78321 0.15307 0.04283 0.0
C1588 C 0.83361 0.84575 0.98728 0.0
C1589 C 0.82591 0.8246 0.9758 0.0
C1590 C 0.81972 0.80535 0.01431 0.0
C1591 C 0.82589 0.82702 0.02573 0.0
N1592 N 0.8348 0.86896 0.02357 0.0
N1593 N 0.80834 0.78552 0.97773 0.0
C1594 C 0.83168 0.84758 0.01234 0.0
C1595 C 0.81799 0.80473 0.98914 0.0
N1596 N 0.84354 0.86377 0.97428 0.0
N1597 N 0.81626 0.78523 0.02752 0.0
H1598 H 0.8071 0.78438 0.95928 0.0
H1599 H 0.79992 0.77154 0.98647 0.0
H1600 H 0.81697 0.78512 0.04603 0.0
H1601 H 0.81435 0.76832 0.02017 0.0
H1602 H 0.85194 0.87845 0.98183 0.0
H1603 H 0.84511 0.86321 0.95583 0.0
H1604 H 0.83649 0.88508 0.01463 0.0
H1605 H 0.83374 0.87094 0.04197 0.0
C1606 C 0.19442 0.79898 0.00762 0.0
C1607 C 0.19557 0.82072 0.02047 0.0
C1608 C 0.20981 0.84065 0.9847 0.0
C1609 C 0.20154 0.8212 0.97102 0.0
N1610 N 0.20668 0.7788 0.9717 0.0
N1611 N 0.20556 0.86269 0.02118 0.0
C1612 C 0.1997 0.7991 0.98295 0.0
C1613 C 0.20403 0.84164 0.00913 0.0
N1614 N 0.18808 0.77837 0.01878 0.0
N1615 N 0.22563 0.85632 0.97514 0.0
H1616 H 0.20112 0.86445 0.03907 0.0
H1617 H 0.2095 0.87874 0.01275 0.0
H1618 H 0.23252 0.85376 0.9581 0.0
H1619 H 0.2339 0.86966 0.98502 0.0
H1620 H 0.18446 0.76266 0.0096 0.0
H1621 H 0.18532 0.77734 0.03707 0.0
H1622 H 0.20778 0.76234 0.98011 0.0
H1623 H 0.21448 0.77938 0.95488 0.0
C1624 C 0.01097 0.1517 0.16137 0.0
C1625 C 0.02319 0.1694 0.17459 0.0
C1626 C 0.98548 0.18888 0.18393 0.0
C1627 C 0.97325 0.16992 0.1726 0.0
N1628 N 0.974 0.13077 0.15491 0.0
N1629 N 0.0222 0.20263 0.20172 0.0
C1630 C 0.9859 0.15057 0.16259 0.0
C1631 C 0.01048 0.18741 0.18682 0.0
N1632 N 0.02324 0.13652 0.14691 0.0
N1633 N 0.97334 0.20861 0.1912 0.0
H1634 H 0.0405 0.20202 0.20428 0.0
H1635 H 0.01362 0.2145 0.21301 0.0
H1636 H 0.95502 0.21031 0.18935 0.0
H1637 H 0.9816 0.22406 0.19725 0.0
H1638 H 0.01504 0.125 0.13494 0.0
H1639 H 0.04164 0.13696 0.14514 0.0
H1640 H 0.98249 0.11513 0.14981 0.0
H1641 H 0.9556 0.12907 0.15578 0.0
C1642 C 0.84242 0.98424 0.1556 0.0
C1643 C 0.82998 0.97253 0.17413 0.0
C1644 C 0.81533 0.01086 0.18875 0.0
C1645 C 0.82954 0.02264 0.17157 0.0
N1646 N 0.86021 0.02088 0.14171 0.0
N1647 N 0.80757 0.97444 0.21054 0.0
C1648 C 0.84412 0.00942 0.15584 0.0
C1649 C 0.81726 0.98578 0.19137 0.0
N1650 N 0.85197 0.97133 0.13735 0.0
N1651 N 0.79941 0.02354 0.20198 0.0
H1652 H 0.80852 0.95606 0.21291 0.0
H1653 H 0.80031 0.98339 0.22501 0.0
H1654 H 0.79745 0.04193 0.20048 0.0
H1655 H 0.78681 0.01565 0.21299 0.0
H1656 H 0.85893 0.97907 0.12206 0.0
H1657 H 0.85106 0.95281 0.13644 0.0
H1658 H 0.87304 0.01206 0.13175 0.0
H1659 H 0.86224 0.03932 0.14164 0.0
C1660 C 0.98776 0.83945 0.17599 0.0
C1661 C 0.97436 0.81968 0.16778 0.0
C1662 C 0.01073 0.79971 0.1549 0.0
C1663 C 0.02414 0.81903 0.16408 0.0
N1664 N 0.02614 0.85449 0.18816 0.0
N1665 N 0.97288 0.7791 0.15395 0.0
C1666 C 0.01285 0.83803 0.17617 0.0
C1667 C 0.98582 0.79917 0.15865 0.0
N1668 N 0.97658 0.86001 0.18253 0.0
N1669 N 0.02167 0.78242 0.14181 0.0
H1670 H 0.95458 0.77815 0.15657 0.0
H1671 H 0.98046 0.76282 0.14949 0.0
H1672 H 0.03993 0.78211 0.1389 0.0
H1673 H 0.01252 0.76935 0.1324 0.0
H1674 H 0.98554 0.87586 0.186 0.0
H1675 H 0.9582 0.86189 0.18263 0.0
H1676 H 0.01887 0.86729 0.19938 0.0
H1677 H 0.04461 0.85401 0.18865 0.0
C1678 C 0.16306 0.01033 0.15046 0.0
C1679 C 0.17376 0.02156 0.17032 0.0
C1680 C 0.1867 0.98282 0.18534 0.0
C1681 C 0.1736 0.97152 0.167 0.0
N1682 N 0.14605 0.97424 0.13432 0.0
N1683 N 0.19337 0.01882 0.20823 0.0
C1684 C 0.16093 0.9852 0.1501 0.0
C1685 C 0.18502 0.00791 0.18819 0.0
N1686 N 0.15545 0.02367 0.13166 0.0
N1687 N 0.20118 0.96964 0.19962 0.0
H1688 H 0.19259 0.03719 0.21082 0.0
H1689 H 0.1994 0.00958 0.22304 0.0
H1690 H 0.20284 0.95122 0.19797 0.0
H1691 H 0.21302 0.9771 0.21171 0.0
H1692 H 0.14981 0.0163 0.11565 0.0
H1693 H 0.15683 0.04218 0.13116 0.0
H1694 H 0.13436 0.98344 0.12339 0.0
H1695 H 0.1438 0.95585 0.13361 0.0
C1696 C 0.98679 0.83602 0.81747 0.0
C1697 C 0.97435 0.81548 0.8253 0.0
C1698 C 0.01184 0.7964 0.83607 0.0
C1699 C 0.02423 0.8166 0.82739 0.0
N1700 N 0.02418 0.85272 0.80435 0.0
N1701 N 0.97486 0.77426 0.83703 0.0
C1702 C 0.01188 0.83547 0.81628 0.0
C1703 C 0.98686 0.79503 0.833 0.0
N1704 N 0.97477 0.85651 0.81243 0.0
N1705 N 0.02376 0.77908 0.84816 0.0
H1706 H 0.95656 0.7727 0.83479 0.0
H1707 H 0.98321 0.75813 0.84046 0.0
H1708 H 0.04209 0.77937 0.85057 0.0
H1709 H 0.01534 0.76532 0.85725 0.0
H1710 H 0.98315 0.87274 0.8093 0.0
H1711 H 0.95637 0.85791 0.81335 0.0
H1712 H 0.01605 0.86558 0.79387 0.0
H1713 H 0.04264 0.85277 0.80302 0.0
C1714 C 0.18743 0.98734 0.81225 0.0
C1715 C 0.16773 0.97563 0.8228 0.0
C1716 C 0.1487 0.01389 0.8304 0.0
C1717 C 0.16921 0.02578 0.82181 0.0
N1718 N 0.20908 0.02433 0.8065 0.0
N1719 N 0.12959 0.97765 0.84241 0.0
C1720 C 0.18883 0.01264 0.81308 0.0
C1721 C 0.1484 0.98887 0.83191 0.0
N1722 N 0.2044 0.97424 0.80088 0.0
N1723 N 0.12908 0.02603 0.83764 0.0
H1724 H 0.12864 0.95926 0.84476 0.0
H1725 H 0.11512 0.98692 0.84932 0.0
H1726 H 0.12731 0.0445 0.83689 0.0
H1727 H 0.12731 0.0445 0.83689 0.0
H1728 H 0.21796 0.98166 0.79074 0.0
H1729 H 0.20388 0.95569 0.8 0.0
H1730 H 0.22496 0.0158 0.80257 0.0
H1731 H 0.21051 0.04284 0.80641 0.0
C1732 C 0.011 0.15506 0.84914 0.0
C1733 C 0.02299 0.17094 0.83364 0.0
C1734 C 0.98502 0.18526 0.81821 0.0
C1735 C 0.97309 0.17063 0.83492 0.0
N1736 N 0.97425 0.14455 0.86888 0.0
N1737 N 0.02207 0.20349 0.80584 0.0
C1738 C 0.98596 0.15636 0.85115 0.0
C1739 C 0.01018 0.18673 0.81883 0.0
N1740 N 0.02353 0.13824 0.86136 0.0
N1741 N 0.97231 0.19717 0.80134 0.0
H1742 H 0.04052 0.20483 0.80562 0.0
H1743 H 0.01372 0.21719 0.79668 0.0
H1744 H 0.95383 0.19681 0.80062 0.0
H1745 H 0.98002 0.20601 0.78705 0.0
H1746 H 0.01561 0.12445 0.87083 0.0
H1747 H 0.04195 0.13686 0.86055 0.0
H1748 H 0.9828 0.13601 0.88284 0.0
H1749 H 0.95585 0.14489 0.8708 0.0
C1750 C 0.80902 0.98395 0.8373 0.0
C1751 C 0.82556 0.97185 0.82271 0.0
C1752 C 0.83805 0.00987 0.80556 0.0
C1753 C 0.82461 0.02202 0.82307 0.0
N1754 N 0.79981 0.0204 0.8581 0.0
N1755 N 0.85811 0.97341 0.79482 0.0
C1756 C 0.81056 0.00904 0.83952 0.0
C1757 C 0.84059 0.98479 0.80714 0.0
N1758 N 0.79169 0.97145 0.84885 0.0
N1759 N 0.84808 0.02228 0.78726 0.0
H1760 H 0.86086 0.9551 0.7957 0.0
H1761 H 0.87119 0.9824 0.7853 0.0
H1762 H 0.84622 0.04065 0.78538 0.0
H1763 H 0.85618 0.01409 0.77277 0.0
H1764 H 0.7778 0.97959 0.85793 0.0
H1765 H 0.78984 0.95303 0.84728 0.0
H1766 H 0.79154 0.01137 0.87198 0.0
H1767 H 0.80102 0.03869 0.86092 0.0
C1768 C 0.66665 0.69735 0.48587 0.0
C1769 C 0.66839 0.6756 0.47319 0.0
C1770 C 0.674 0.65384 0.51039 0.0
C1771 C 0.66941 0.67509 0.52315 0.0
N1772 N 0.65951 0.71679 0.5237 0.0
N1773 N 0.67111 0.63274 0.47296 0.0
C1774 C 0.66539 0.69685 0.51108 0.0
C1775 C 0.67152 0.65372 0.48532 0.0
N1776 N 0.66656 0.71842 0.47376 0.0
N1777 N 0.68109 0.63387 0.52227 0.0
H1778 H 0.66963 0.63186 0.45452 0.0
H1779 H 0.67046 0.6161 0.48105 0.0
H1780 H 0.68294 0.63328 0.54069 0.0
H1781 H 0.68712 0.61855 0.51382 0.0
H1782 H 0.66773 0.73499 0.48195 0.0
H1783 H 0.66722 0.71933 0.45526 0.0
H1784 H 0.65372 0.73252 0.51589 0.0
H1785 H 0.65893 0.71719 0.54221 0.0
C1786 C 0.3181 0.69217 0.51497 0.0
C1787 C 0.32375 0.67055 0.52662 0.0
C1788 C 0.3276 0.65031 0.48827 0.0
C1789 C 0.32444 0.67246 0.47667 0.0
N1790 N 0.31895 0.71494 0.47838 0.0
N1791 N 0.33677 0.62971 0.52486 0.0
C1792 C 0.32019 0.69354 0.48984 0.0
C1793 C 0.32918 0.64974 0.51341 0.0
N1794 N 0.31026 0.71118 0.52794 0.0
N1795 N 0.32864 0.62978 0.47523 0.0
H1796 H 0.33788 0.62845 0.54329 0.0
H1797 H 0.34368 0.61493 0.51614 0.0
H1798 H 0.3278 0.62951 0.45673 0.0
H1799 H 0.32835 0.61285 0.48273 0.0
H1800 H 0.30353 0.72664 0.52039 0.0
H1801 H 0.30873 0.71079 0.5464 0.0
H1802 H 0.31858 0.73127 0.48711 0.0
H1803 H 0.31988 0.7165 0.45995 0.0
C1804 C 0.34488 0.34299 0.48518 0.0
C1805 C 0.33053 0.32629 0.47286 0.0
C1806 C 0.31747 0.30893 0.51059 0.0
C1807 C 0.33026 0.3269 0.52284 0.0
N1808 N 0.35347 0.36301 0.52231 0.0
N1809 N 0.3012 0.29504 0.47311 0.0
C1810 C 0.34326 0.34448 0.51027 0.0
C1811 C 0.31628 0.30966 0.48536 0.0
N1812 N 0.36052 0.35699 0.47289 0.0
N1813 N 0.3069 0.29094 0.52309 0.0
H1814 H 0.30029 0.29479 0.45461 0.0
H1815 H 0.28848 0.28431 0.48119 0.0
H1816 H 0.30702 0.29019 0.5416 0.0
H1817 H 0.29945 0.27592 0.51521 0.0
H1818 H 0.37337 0.36755 0.48101 0.0
H1819 H 0.362 0.35669 0.45443 0.0
H1820 H 0.36084 0.37784 0.51404 0.0
H1821 H 0.35297 0.3645 0.54075 0.0
C1822 C 0.69935 0.33433 0.48682 0.0
C1823 C 0.68424 0.31887 0.47386 0.0
C1824 C 0.67219 0.29952 0.5109 0.0
C1825 C 0.68387 0.31771 0.5239 0.0
N1826 N 0.70656 0.35428 0.5242 0.0
N1827 N 0.65412 0.28818 0.47362 0.0
C1828 C 0.69719 0.33549 0.5119 0.0
C1829 C 0.67026 0.30161 0.48586 0.0
N1830 N 0.71583 0.34779 0.47512 0.0
N1831 N 0.66308 0.28022 0.52252 0.0
H1832 H 0.65183 0.28931 0.4553 0.0
H1833 H 0.64162 0.27731 0.48189 0.0
H1834 H 0.66443 0.27811 0.54088 0.0
H1835 H 0.65634 0.26531 0.51379 0.0
H1836 H 0.72884 0.35772 0.48378 0.0
H1837 H 0.71797 0.34713 0.45672 0.0
H1838 H 0.71408 0.36908 0.51597 0.0
H1839 H 0.7051 0.35614 0.54255 0.0
C1840 C 0.50969 0.66186 0.65627 0.0
C1841 C 0.5222 0.67214 0.67561 0.0
C1842 C 0.48476 0.68104 0.69584 0.0
C1843 C 0.47229 0.67191 0.67594 0.0
N1844 N 0.47223 0.65705 0.63573 0.0
N1845 N 0.52238 0.69431 0.71223 0.0
C1846 C 0.48458 0.66334 0.65569 0.0
C1847 C 0.50993 0.68257 0.69497 0.0
N1848 N 0.52181 0.65 0.63886 0.0
N1849 N 0.47252 0.68763 0.71575 0.0
H1850 H 0.54085 0.69534 0.71232 0.0
H1851 H 0.5145 0.70443 0.72555 0.0
H1852 H 0.45405 0.68733 0.71671 0.0
H1853 H 0.48056 0.69196 0.73181 0.0
H1854 H 0.51364 0.63969 0.62585 0.0
H1855 H 0.54026 0.64899 0.63831 0.0
H1856 H 0.48022 0.65329 0.61949 0.0
H1857 H 0.45377 0.65729 0.63478 0.0
C1858 C 0.30565 0.50893 0.66471 0.0
C1859 C 0.31841 0.5217 0.68233 0.0
C1860 C 0.33133 0.48445 0.7007 0.0
C1861 C 0.31939 0.47169 0.68252 0.0
N1862 N 0.29159 0.47074 0.65006 0.0
N1863 N 0.33933 0.52256 0.71957 0.0
C1864 C 0.30525 0.48365 0.66549 0.0
C1865 C 0.32987 0.50971 0.70122 0.0
N1866 N 0.29471 0.52108 0.64677 0.0
N1867 N 0.34475 0.47236 0.71689 0.0
H1868 H 0.33901 0.54111 0.72015 0.0
H1869 H 0.34603 0.51503 0.73503 0.0
H1870 H 0.34516 0.45381 0.71772 0.0
H1871 H 0.3562 0.48047 0.72891 0.0
H1872 H 0.2875 0.51306 0.63176 0.0
H1873 H 0.29363 0.53961 0.64635 0.0
H1874 H 0.27913 0.47817 0.63868 0.0
H1875 H 0.29146 0.45219 0.64967 0.0
C1876 C 0.51377 0.34401 0.67062 0.0
C1877 C 0.52641 0.32233 0.66851 0.0
C1878 C 0.48905 0.30008 0.67055 0.0
C1879 C 0.4764 0.32185 0.66937 0.0
N1880 N 0.47689 0.36446 0.66343 0.0
N1881 N 0.52612 0.27972 0.66302 0.0
C1882 C 0.48879 0.34384 0.66813 0.0
C1883 C 0.51408 0.3003 0.66761 0.0
N1884 N 0.52559 0.3647 0.67558 0.0
N1885 N 0.47722 0.27932 0.67507 0.0
H1886 H 0.54444 0.27918 0.66056 0.0
H1887 H 0.51774 0.26353 0.65966 0.0
H1888 H 0.45891 0.27856 0.6776 0.0
H1889 H 0.48576 0.26327 0.67848 0.0
H1890 H 0.51697 0.38057 0.67965 0.0
H1891 H 0.5439 0.36549 0.67805 0.0
H1892 H 0.48544 0.38053 0.65987 0.0
H1893 H 0.45863 0.36514 0.6607 0.0
C1894 C 0.68738 0.51139 0.68616 0.0
C1895 C 0.67549 0.52422 0.66809 0.0
C1896 C 0.6631 0.48698 0.64922 0.0
C1897 C 0.67622 0.47412 0.66641 0.0
N1898 N 0.70432 0.47378 0.69862 0.0
N1899 N 0.65645 0.52476 0.62974 0.0
C1900 C 0.68944 0.48626 0.68412 0.0
C1901 C 0.6647 0.51215 0.64877 0.0
N1902 N 0.69592 0.52312 0.70565 0.0
N1903 N 0.64828 0.4752 0.63398 0.0
H1904 H 0.65741 0.54327 0.62871 0.0
H1905 H 0.65067 0.51681 0.61406 0.0
H1906 H 0.63626 0.48379 0.6229 0.0
H1907 H 0.64646 0.45675 0.63381 0.0
H1908 H 0.70241 0.5145 0.72064 0.0
H1909 H 0.69492 0.54155 0.70763 0.0
H1910 H 0.71624 0.48182 0.71027 0.0
H1911 H 0.70621 0.45534 0.69758 0.0
C1912 C 0.48775 0.34346 0.34193 0.0
C1913 C 0.4752 0.32912 0.32541 0.0
C1914 C 0.51248 0.31091 0.31242 0.0
C1915 C 0.52509 0.32692 0.3273 0.0
N1916 N 0.52517 0.36159 0.35264 0.0
N1917 N 0.47547 0.30168 0.29246 0.0
C1918 C 0.51284 0.34412 0.34105 0.0
C1919 C 0.48752 0.31349 0.30994 0.0
N1920 N 0.47572 0.35581 0.35902 0.0
N1921 N 0.52426 0.29287 0.30124 0.0
H1922 H 0.45717 0.30312 0.29018 0.0
H1923 H 0.48377 0.29199 0.27907 0.0
H1924 H 0.54255 0.29056 0.30257 0.0
H1925 H 0.51574 0.27912 0.2922 0.0
H1926 H 0.48403 0.36453 0.37308 0.0
H1927 H 0.4573 0.35547 0.36051 0.0
H1928 H 0.51708 0.37608 0.36084 0.0
H1929 H 0.5436 0.36288 0.35216 0.0
C1930 C 0.68475 0.48852 0.31255 0.0
C1931 C 0.66779 0.47538 0.32578 0.0
C1932 C 0.64793 0.51223 0.33759 0.0
C1933 C 0.666 0.52546 0.32603 0.0
N1934 N 0.70302 0.52691 0.3047 0.0
N1935 N 0.6353 0.47429 0.35366 0.0
C1936 C 0.68483 0.5138 0.31407 0.0
C1937 C 0.64992 0.48712 0.33906 0.0
N1938 N 0.70037 0.47681 0.29813 0.0
N1939 N 0.62855 0.52368 0.34663 0.0
H1940 H 0.63594 0.45579 0.355 0.0
H1941 H 0.62378 0.48202 0.36587 0.0
H1942 H 0.62662 0.54211 0.34611 0.0
H1943 H 0.61353 0.51492 0.3529 0.0
H1944 H 0.71153 0.48533 0.2861 0.0
H1945 H 0.70101 0.45829 0.29694 0.0
H1946 H 0.71855 0.51949 0.29805 0.0
H1947 H 0.70331 0.54548 0.30502 0.0
C1948 C 0.50656 0.69938 0.33141 0.0
C1949 C 0.5191 0.68394 0.316 0.0
C1950 C 0.48186 0.67105 0.29766 0.0
C1951 C 0.46933 0.68347 0.3156 0.0
N1952 N 0.46896 0.70943 0.34973 0.0
N1953 N 0.51956 0.65522 0.2842 0.0
C1954 C 0.48144 0.69799 0.33231 0.0
C1955 C 0.507 0.67007 0.29875 0.0
N1956 N 0.51879 0.71527 0.34518 0.0
N1957 N 0.4696 0.66028 0.27966 0.0
H1958 H 0.53805 0.65481 0.28392 0.0
H1959 H 0.51179 0.64255 0.27316 0.0
H1960 H 0.45113 0.66065 0.27858 0.0
H1961 H 0.4776 0.65267 0.26484 0.0
H1962 H 0.51076 0.72857 0.35519 0.0
H1963 H 0.53726 0.71644 0.34505 0.0
H1964 H 0.47681 0.71793 0.36416 0.0
H1965 H 0.45049 0.70941 0.35051 0.0
C1966 C 0.30085 0.48952 0.33455 0.0
C1967 C 0.31747 0.47698 0.32042 0.0
C1968 C 0.33184 0.51461 0.30383 0.0
C1969 C 0.3181 0.52711 0.32081 0.0
N1970 N 0.29078 0.52669 0.35383 0.0
N1971 N 0.35046 0.47738 0.29304 0.0
C1972 C 0.30268 0.51467 0.33642 0.0
C1973 C 0.33325 0.48943 0.30518 0.0
N1974 N 0.28324 0.47734 0.346 0.0
N1975 N 0.34339 0.52688 0.28634 0.0
H1976 H 0.3522 0.45893 0.29354 0.0
H1977 H 0.36417 0.4858 0.2839 0.0
H1978 H 0.3426 0.54537 0.28486 0.0
H1979 H 0.35182 0.51866 0.27207 0.0
H1980 H 0.26922 0.48563 0.35473 0.0
H1981 H 0.28141 0.45889 0.34484 0.0
H1982 H 0.2815 0.51827 0.36744 0.0
H1983 H 0.29155 0.54513 0.35578 0.0
loop_
_geom_bond_atom_site_label_1
_geom_bond_atom_site_label_2
_geom_bond_distance
_geom_bond_site_symmetry_2
_ccdc_geom_bond_type
Li0 N17 1.990 . S
Li0 O60 1.956 . S
Li0 O61 1.970 . S
Li0 O62 1.961 . S
Li1 N25 1.990 . S
Li1 O60 1.970 . S
Li1 O61 1.956 . S
Li1 O63 1.961 . S
Li2 N47 1.990 . S
Li2 O60 1.961 . S
Li2 O62 1.956 . S
Li2 O63 1.970 . S
Li3 N53 1.990 . S
Li3 O61 1.961 . S
Li3 O62 1.970 . S
Li3 O63 1.956 . S
C4 C6 1.348 . S
C4 C7 1.356 . S
C4 O60 1.325 . S
N5 C8 1.314 . S
N5 C9 1.279 . S
C6 C4 1.348 . S
C6 C8 1.353 . S
C6 H64 0.929 . S
C7 C4 1.356 . S
C7 C9 1.358 . S
C7 H65 0.930 . S
C8 N5 1.314 . S
C8 C6 1.353 . S
C8 H66 0.930 . S
C9 N5 1.279 . S
C9 C7 1.358 . S
C9 H67 0.930 . S
C10 C13 1.348 . S
C10 C14 1.356 . S
C10 O61 1.325 . S
C11 N12 1.279 . S
C11 C14 1.358 . S
C11 H68 0.930 . S
N12 C11 1.279 . S
N12 C15 1.314 . S
C13 C10 1.348 . S
C13 C15 1.353 . S
C13 H69 0.929 . S
C14 C10 1.356 . S
C14 C11 1.358 . S
C14 H70 0.930 . S
C15 N12 1.314 . S
C15 C13 1.353 . S
C15 H71 0.930 . S
C16 N17 1.314 . S
C16 C21 1.353 . S
C16 H22 0.930 . S
N17 Li0 1.990 . S
N17 C16 1.314 . S
N17 C19 1.279 . S
C18 C19 1.358 . S
C18 C20 1.356 . S
C18 H72 0.930 . S
C19 N17 1.279 . S
C19 C18 1.358 . S
C19 H23 0.930 . S
C20 C18 1.356 . S
C20 C21 1.348 . S
C21 C16 1.353 . S
C21 C20 1.348 . S
C21 H73 0.929 . S
H22 C16 0.930 . S
H23 C19 0.930 . S
C24 N25 1.314 . S
C24 C26 1.353 . S
C24 H30 0.930 . S
N25 Li1 1.990 . S
N25 C24 1.314 . S
N25 C28 1.279 . S
C26 C24 1.353 . S
C26 C29 1.348 . S
C26 H74 0.929 . S
C27 C28 1.358 . S
C27 C29 1.356 . S
C27 H75 0.930 . S
C28 N25 1.279 . S
C28 C27 1.358 . S
C28 H31 0.930 . S
C29 C26 1.348 . S
C29 C27 1.356 . S
H30 C24 0.930 . S
H31 C28 0.930 . S
C32 C34 1.348 . S
C32 C35 1.356 . S
C32 O62 1.325 . S
N33 C36 1.314 . S
N33 C37 1.279 . S
C34 C32 1.348 . S
C34 C36 1.353 . S
C34 H76 0.929 . S
C35 C32 1.356 . S
C35 C37 1.358 . S
C35 H77 0.930 . S
C36 N33 1.314 . S
C36 C34 1.353 . S
C36 H78 0.930 . S
C37 N33 1.279 . S
C37 C35 1.358 . S
C37 H79 0.930 . S
C38 C39 1.348 . S
C38 C40 1.356 . S
C38 O63 1.325 . S
C39 C38 1.348 . S
C39 C41 1.353 . S
C39 H80 0.929 . S
C40 C38 1.356 . S
C40 C42 1.358 . S
C40 H81 0.930 . S
C41 C39 1.353 . S
C41 N43 1.314 . S
C41 H82 0.930 . S
C42 C40 1.358 . S
C42 N43 1.279 . S
C42 H83 0.930 . S
N43 C41 1.314 . S
N43 C42 1.279 . S
C44 C46 1.353 . S
C44 N47 1.314 . S
C44 H50 0.930 . S
C45 N47 1.279 . S
C45 C48 1.358 . S
C45 H51 0.930 . S
C46 C44 1.353 . S
C46 C49 1.348 . S
C46 H84 0.929 . S
N47 Li2 1.990 . S
N47 C44 1.314 . S
N47 C45 1.279 . S
C48 C45 1.358 . S
C48 C49 1.356 . S
C48 H85 0.930 . S
C49 C46 1.348 . S
C49 C48 1.356 . S
H50 C44 0.930 . S
H51 C45 0.930 . S
C52 N53 1.314 . S
C52 C54 1.353 . S
C52 H58 0.930 . S
N53 Li3 1.990 . S
N53 C52 1.314 . S
N53 C56 1.279 . S
C54 C52 1.353 . S
C54 C57 1.348 . S
C54 H86 0.929 . S
C55 C56 1.358 . S
C55 C57 1.356 . S
C55 H87 0.930 . S
C56 N53 1.279 . S
C56 C55 1.358 . S
C56 H59 0.930 . S
C57 C54 1.348 . S
C57 C55 1.356 . S
H58 C52 0.930 . S
H59 C56 0.930 . S
O60 Li0 1.956 . S
O60 Li1 1.970 . S
O60 Li2 1.961 . S
O60 C4 1.325 . S
O61 Li0 1.970 . S
O61 Li1 1.956 . S
O61 Li3 1.961 . S
O61 C10 1.325 . S
O62 Li0 1.961 . S
O62 Li2 1.956 . S
O62 Li3 1.970 . S
O62 C32 1.325 . S
O63 Li1 1.961 . S
O63 Li2 1.970 . S
O63 Li3 1.956 . S
O63 C38 1.325 . S
H64 C6 0.929 . S
H65 C7 0.930 . S
H66 C8 0.930 . S
H67 C9 0.930 . S
H68 C11 0.930 . S
H69 C13 0.929 . S
H70 C14 0.930 . S
H71 C15 0.930 . S
H72 C18 0.930 . S
H73 C21 0.929 . S
H74 C26 0.929 . S
H75 C27 0.930 . S
H76 C34 0.929 . S
H77 C35 0.930 . S
H78 C36 0.930 . S
H79 C37 0.930 . S
H80 C39 0.929 . S
H81 C40 0.930 . S
H82 C41 0.930 . S
H83 C42 0.930 . S
H84 C46 0.929 . S
H85 C48 0.930 . S
H86 C54 0.929 . S
H87 C55 0.930 . S
Li88 N105 1.990 . S
Li88 O148 1.956 . S
Li88 O149 1.970 . S
Li88 O150 1.961 . S
Li89 N113 1.990 . S
Li89 O148 1.970 . S
Li89 O149 1.956 . S
Li89 O151 1.961 . S
Li90 N135 1.990 . S
Li90 O148 1.961 . S
Li90 O150 1.956 . S
Li90 O151 1.970 . S
Li91 N141 1.990 . S
Li91 O149 1.961 . S
Li91 O150 1.970 . S
Li91 O151 1.956 . S
C92 C94 1.348 . S
C92 C95 1.356 . S
C92 O148 1.325 . S
N93 C96 1.314 . S
N93 C97 1.279 . S
C94 C92 1.348 . S
C94 C96 1.353 . S
C94 H152 0.929 . S
C95 C92 1.356 . S
C95 C97 1.358 . S
C95 H153 0.930 . S
C96 N93 1.314 . S
C96 C94 1.353 . S
C96 H154 0.930 . S
C97 N93 1.279 . S
C97 C95 1.358 . S
C97 H155 0.930 . S
C98 C101 1.348 . S
C98 C102 1.356 . S
C98 O149 1.325 . S
C99 N100 1.279 . S
C99 C102 1.358 . S
C99 H156 0.930 . S
N100 C99 1.279 . S
N100 C103 1.314 . S
C101 C98 1.348 . S
C101 C103 1.353 . S
C101 H157 0.929 . S
C102 C98 1.356 . S
C102 C99 1.358 . S
C102 H158 0.930 . S
C103 N100 1.314 . S
C103 C101 1.353 . S
C103 H159 0.930 . S
C104 N105 1.314 . S
C104 C109 1.353 . S
C104 H110 0.930 . S
N105 Li88 1.990 . S
N105 C104 1.314 . S
N105 C107 1.279 . S
C106 C107 1.358 . S
C106 C108 1.356 . S
C106 H160 0.930 . S
C107 N105 1.279 . S
C107 C106 1.358 . S
C107 H111 0.930 . S
C108 C106 1.356 . S
C108 C109 1.348 . S
C109 C104 1.353 . S
C109 C108 1.348 . S
C109 H161 0.929 . S
H110 C104 0.930 . S
H111 C107 0.930 . S
C112 N113 1.314 . S
C112 C114 1.353 . S
C112 H118 0.930 . S
N113 Li89 1.990 . S
N113 C112 1.314 . S
N113 C116 1.279 . S
C114 C112 1.353 . S
C114 C117 1.348 . S
C114 H162 0.929 . S
C115 C116 1.358 . S
C115 C117 1.356 . S
C115 H163 0.930 . S
C116 N113 1.279 . S
C116 C115 1.358 . S
C116 H119 0.930 . S
C117 C114 1.348 . S
C117 C115 1.356 . S
H118 C112 0.930 . S
H119 C116 0.930 . S
C120 C122 1.348 . S
C120 C123 1.356 . S
C120 O150 1.325 . S
N121 C124 1.314 . S
N121 C125 1.279 . S
C122 C120 1.348 . S
C122 C124 1.353 . S
C122 H164 0.929 . S
C123 C120 1.356 . S
C123 C125 1.358 . S
C123 H165 0.930 . S
C124 N121 1.314 . S
C124 C122 1.353 . S
C124 H166 0.930 . S
C125 N121 1.279 . S
C125 C123 1.358 . S
C125 H167 0.930 . S
C126 C127 1.348 . S
C126 C128 1.356 . S
C126 O151 1.325 . S
C127 C126 1.348 . S
C127 C129 1.353 . S
C127 H168 0.929 . S
C128 C126 1.356 . S
C128 C130 1.358 . S
C128 H169 0.930 . S
C129 C127 1.353 . S
C129 N131 1.314 . S
C129 H170 0.930 . S
C130 C128 1.358 . S
C130 N131 1.279 . S
C130 H171 0.930 . S
N131 C129 1.314 . S
N131 C130 1.279 . S
C132 C134 1.353 . S
C132 N135 1.314 . S
C132 H138 0.930 . S
C133 N135 1.279 . S
C133 C136 1.358 . S
C133 H139 0.930 . S
C134 C132 1.353 . S
C134 C137 1.348 . S
C134 H172 0.929 . S
N135 Li90 1.990 . S
N135 C132 1.314 . S
N135 C133 1.279 . S
C136 C133 1.358 . S
C136 C137 1.356 . S
C136 H173 0.930 . S
C137 C134 1.348 . S
C137 C136 1.356 . S
H138 C132 0.930 . S
H139 C133 0.930 . S
C140 N141 1.314 . S
C140 C142 1.353 . S
C140 H146 0.930 . S
N141 Li91 1.990 . S
N141 C140 1.314 . S
N141 C144 1.279 . S
C142 C140 1.353 . S
C142 C145 1.348 . S
C142 H174 0.929 . S
C143 C144 1.358 . S
C143 C145 1.356 . S
C143 H175 0.930 . S
C144 N141 1.279 . S
C144 C143 1.358 . S
C144 H147 0.930 . S
C145 C142 1.348 . S
C145 C143 1.356 . S
H146 C140 0.930 . S
H147 C144 0.930 . S
O148 Li88 1.956 . S
O148 Li89 1.970 . S
O148 Li90 1.961 . S
O148 C92 1.325 . S
O149 Li88 1.970 . S
O149 Li89 1.956 . S
O149 Li91 1.961 . S
O149 C98 1.325 . S
O150 Li88 1.961 . S
O150 Li90 1.956 . S
O150 Li91 1.970 . S
O150 C120 1.325 . S
O151 Li89 1.961 . S
O151 Li90 1.970 . S
O151 Li91 1.956 . S
O151 C126 1.325 . S
H152 C94 0.929 . S
H153 C95 0.930 . S
H154 C96 0.930 . S
H155 C97 0.930 . S
H156 C99 0.930 . S
H157 C101 0.929 . S
H158 C102 0.930 . S
H159 C103 0.930 . S
H160 C106 0.930 . S
H161 C109 0.929 . S
H162 C114 0.929 . S
H163 C115 0.930 . S
H164 C122 0.929 . S
H165 C123 0.930 . S
H166 C124 0.930 . S
H167 C125 0.930 . S
H168 C127 0.929 . S
H169 C128 0.930 . S
H170 C129 0.930 . S
H171 C130 0.930 . S
H172 C134 0.929 . S
H173 C136 0.930 . S
H174 C142 0.929 . S
H175 C143 0.930 . S
Li176 N193 1.990 . S
Li176 O236 1.956 . S
Li176 O237 1.970 . S
Li176 O238 1.961 . S
Li177 N201 1.990 . S
Li177 O236 1.970 . S
Li177 O237 1.956 . S
Li177 O239 1.961 . S
Li178 N223 1.990 . S
Li178 O236 1.961 . S
Li178 O238 1.956 . S
Li178 O239 1.970 . S
Li179 N229 1.990 . S
Li179 O237 1.961 . S
Li179 O238 1.970 . S
Li179 O239 1.956 . S
C180 C182 1.348 . S
C180 C183 1.356 . S
C180 O236 1.325 . S
N181 C184 1.314 . S
N181 C185 1.279 . S
C182 C180 1.348 . S
C182 C184 1.353 . S
C182 H240 0.929 . S
C183 C180 1.356 . S
C183 C185 1.358 . S
C183 H241 0.930 . S
C184 N181 1.314 . S
C184 C182 1.353 . S
C184 H242 0.930 . S
C185 N181 1.279 . S
C185 C183 1.358 . S
C185 H243 0.930 . S
C186 C189 1.348 . S
C186 C190 1.356 . S
C186 O237 1.325 . S
C187 N188 1.279 . S
C187 C190 1.358 . S
C187 H244 0.930 . S
N188 C187 1.279 . S
N188 C191 1.314 . S
C189 C186 1.348 . S
C189 C191 1.353 . S
C189 H245 0.929 . S
C190 C186 1.356 . S
C190 C187 1.358 . S
C190 H246 0.930 . S
C191 N188 1.314 . S
C191 C189 1.353 . S
C191 H247 0.930 . S
C192 N193 1.314 . S
C192 C197 1.353 . S
C192 H198 0.930 . S
N193 Li176 1.990 . S
N193 C192 1.314 . S
N193 C195 1.279 . S
C194 C195 1.358 . S
C194 C196 1.356 . S
C194 H248 0.930 . S
C195 N193 1.279 . S
C195 C194 1.358 . S
C195 H199 0.930 . S
C196 C194 1.356 . S
C196 C197 1.348 . S
C197 C192 1.353 . S
C197 C196 1.348 . S
C197 H249 0.929 . S
H198 C192 0.930 . S
H199 C195 0.930 . S
C200 N201 1.314 . S
C200 C202 1.353 . S
C200 H206 0.930 . S
N201 Li177 1.990 . S
N201 C200 1.314 . S
N201 C204 1.279 . S
C202 C200 1.353 . S
C202 C205 1.348 . S
C202 H250 0.929 . S
C203 C204 1.358 . S
C203 C205 1.356 . S
C203 H251 0.930 . S
C204 N201 1.279 . S
C204 C203 1.358 . S
C204 H207 0.930 . S
C205 C202 1.348 . S
C205 C203 1.356 . S
H206 C200 0.930 . S
H207 C204 0.930 . S
C208 C210 1.348 . S
C208 C211 1.356 . S
C208 O238 1.325 . S
N209 C212 1.314 . S
N209 C213 1.279 . S
C210 C208 1.348 . S
C210 C212 1.353 . S
C210 H252 0.929 . S
C211 C208 1.356 . S
C211 C213 1.358 . S
C211 H253 0.930 . S
C212 N209 1.314 . S
C212 C210 1.353 . S
C212 H254 0.930 . S
C213 N209 1.279 . S
C213 C211 1.358 . S
C213 H255 0.930 . S
C214 C215 1.348 . S
C214 C216 1.356 . S
C214 O239 1.325 . S
C215 C214 1.348 . S
C215 C217 1.353 . S
C215 H256 0.929 . S
C216 C214 1.356 . S
C216 C218 1.358 . S
C216 H257 0.930 . S
C217 C215 1.353 . S
C217 N219 1.314 . S
C217 H258 0.930 . S
C218 C216 1.358 . S
C218 N219 1.279 . S
C218 H259 0.930 . S
N219 C217 1.314 . S
N219 C218 1.279 . S
C220 C222 1.353 . S
C220 N223 1.314 . S
C220 H226 0.930 . S
C221 N223 1.279 . S
C221 C224 1.358 . S
C221 H227 0.930 . S
C222 C220 1.353 . S
C222 C225 1.348 . S
C222 H260 0.929 . S
N223 Li178 1.990 . S
N223 C220 1.314 . S
N223 C221 1.279 . S
C224 C221 1.358 . S
C224 C225 1.356 . S
C224 H261 0.930 . S
C225 C222 1.348 . S
C225 C224 1.356 . S
H226 C220 0.930 . S
H227 C221 0.930 . S
C228 N229 1.314 . S
C228 C230 1.353 . S
C228 H234 0.930 . S
N229 Li179 1.990 . S
N229 C228 1.314 . S
N229 C232 1.279 . S
C230 C228 1.353 . S
C230 C233 1.348 . S
C230 H262 0.929 . S
C231 C232 1.358 . S
C231 C233 1.356 . S
C231 H263 0.930 . S
C232 N229 1.279 . S
C232 C231 1.358 . S
C232 H235 0.930 . S
C233 C230 1.348 . S
C233 C231 1.356 . S
H234 C228 0.930 . S
H235 C232 0.930 . S
O236 Li176 1.956 . S
O236 Li177 1.970 . S
O236 Li178 1.961 . S
O236 C180 1.325 . S
O237 Li176 1.970 . S
O237 Li177 1.956 . S
O237 Li179 1.961 . S
O237 C186 1.325 . S
O238 Li176 1.961 . S
O238 Li178 1.956 . S
O238 Li179 1.970 . S
O238 C208 1.325 . S
O239 Li177 1.961 . S
O239 Li178 1.970 . S
O239 Li179 1.956 . S
O239 C214 1.325 . S
H240 C182 0.929 . S
H241 C183 0.930 . S
H242 C184 0.930 . S
H243 C185 0.930 . S
H244 C187 0.930 . S
H245 C189 0.929 . S
H246 C190 0.930 . S
H247 C191 0.930 . S
H248 C194 0.930 . S
H249 C197 0.929 . S
H250 C202 0.929 . S
H251 C203 0.930 . S
H252 C210 0.929 . S
H253 C211 0.930 . S
H254 C212 0.930 . S
H255 C213 0.930 . S
H256 C215 0.929 . S
H257 C216 0.930 . S
H258 C217 0.930 . S
H259 C218 0.930 . S
H260 C222 0.929 . S
H261 C224 0.930 . S
H262 C230 0.929 . S
H263 C231 0.930 . S
Li264 N281 1.990 . S
Li264 O324 1.956 . S
Li264 O325 1.970 . S
Li264 O326 1.961 . S
Li265 N289 1.990 . S
Li265 O324 1.970 . S
Li265 O325 1.956 . S
Li265 O327 1.961 . S
Li266 N311 1.990 . S
Li266 O324 1.961 . S
Li266 O326 1.956 . S
Li266 O327 1.970 . S
Li267 N317 1.990 . S
Li267 O325 1.961 . S
Li267 O326 1.970 . S
Li267 O327 1.956 . S
C268 C270 1.348 . S
C268 C271 1.356 . S
C268 O324 1.325 . S
N269 C272 1.314 . S
N269 C273 1.279 . S
C270 C268 1.348 . S
C270 C272 1.353 . S
C270 H328 0.929 . S
C271 C268 1.356 . S
C271 C273 1.358 . S
C271 H329 0.930 . S
C272 N269 1.314 . S
C272 C270 1.353 . S
C272 H330 0.930 . S
C273 N269 1.279 . S
C273 C271 1.358 . S
C273 H331 0.930 . S
C274 C277 1.348 . S
C274 C278 1.356 . S
C274 O325 1.325 . S
C275 N276 1.279 . S
C275 C278 1.358 . S
C275 H332 0.930 . S
N276 C275 1.279 . S
N276 C279 1.314 . S
C277 C274 1.348 . S
C277 C279 1.353 . S
C277 H333 0.929 . S
C278 C274 1.356 . S
C278 C275 1.358 . S
C278 H334 0.930 . S
C279 N276 1.314 . S
C279 C277 1.353 . S
C279 H335 0.930 . S
C280 N281 1.314 . S
C280 C285 1.353 . S
C280 H286 0.930 . S
N281 Li264 1.990 . S
N281 C280 1.314 . S
N281 C283 1.279 . S
C282 C283 1.358 . S
C282 C284 1.356 . S
C282 H336 0.930 . S
C283 N281 1.279 . S
C283 C282 1.358 . S
C283 H287 0.930 . S
C284 C282 1.356 . S
C284 C285 1.348 . S
C285 C280 1.353 . S
C285 C284 1.348 . S
C285 H337 0.929 . S
H286 C280 0.930 . S
H287 C283 0.930 . S
C288 N289 1.314 . S
C288 C290 1.353 . S
C288 H294 0.930 . S
N289 Li265 1.990 . S
N289 C288 1.314 . S
N289 C292 1.279 . S
C290 C288 1.353 . S
C290 C293 1.348 . S
C290 H338 0.929 . S
C291 C292 1.358 . S
C291 C293 1.356 . S
C291 H339 0.930 . S
C292 N289 1.279 . S
C292 C291 1.358 . S
C292 H295 0.930 . S
C293 C290 1.348 . S
C293 C291 1.356 . S
H294 C288 0.930 . S
H295 C292 0.930 . S
C296 C298 1.348 . S
C296 C299 1.356 . S
C296 O326 1.325 . S
N297 C300 1.314 . S
N297 C301 1.279 . S
C298 C296 1.348 . S
C298 C300 1.353 . S
C298 H340 0.929 . S
C299 C296 1.356 . S
C299 C301 1.358 . S
C299 H341 0.930 . S
C300 N297 1.314 . S
C300 C298 1.353 . S
C300 H342 0.930 . S
C301 N297 1.279 . S
C301 C299 1.358 . S
C301 H343 0.930 . S
C302 C303 1.348 . S
C302 C304 1.356 . S
C302 O327 1.325 . S
C303 C302 1.348 . S
C303 C305 1.353 . S
C303 H344 0.929 . S
C304 C302 1.356 . S
C304 C306 1.358 . S
C304 H345 0.930 . S
C305 C303 1.353 . S
C305 N307 1.314 . S
C305 H346 0.930 . S
C306 C304 1.358 . S
C306 N307 1.279 . S
C306 H347 0.930 . S
N307 C305 1.314 . S
N307 C306 1.279 . S
C308 C310 1.353 . S
C308 N311 1.314 . S
C308 H314 0.930 . S
C309 N311 1.279 . S
C309 C312 1.358 . S
C309 H315 0.930 . S
C310 C308 1.353 . S
C310 C313 1.348 . S
C310 H348 0.929 . S
N311 Li266 1.990 . S
N311 C308 1.314 . S
N311 C309 1.279 . S
C312 C309 1.358 . S
C312 C313 1.356 . S
C312 H349 0.930 . S
C313 C310 1.348 . S
C313 C312 1.356 . S
H314 C308 0.930 . S
H315 C309 0.930 . S
C316 N317 1.314 . S
C316 C318 1.353 . S
C316 H322 0.930 . S
N317 Li267 1.990 . S
N317 C316 1.314 . S
N317 C320 1.279 . S
C318 C316 1.353 . S
C318 C321 1.348 . S
C318 H350 0.929 . S
C319 C320 1.358 . S
C319 C321 1.356 . S
C319 H351 0.930 . S
C320 N317 1.279 . S
C320 C319 1.358 . S
C320 H323 0.930 . S
C321 C318 1.348 . S
C321 C319 1.356 . S
H322 C316 0.930 . S
H323 C320 0.930 . S
O324 Li264 1.956 . S
O324 Li265 1.970 . S
O324 Li266 1.961 . S
O324 C268 1.325 . S
O325 Li264 1.970 . S
O325 Li265 1.956 . S
O325 Li267 1.961 . S
O325 C274 1.325 . S
O326 Li264 1.961 . S
O326 Li266 1.956 . S
O326 Li267 1.970 . S
O326 C296 1.325 . S
O327 Li265 1.961 . S
O327 Li266 1.970 . S
O327 Li267 1.956 . S
O327 C302 1.325 . S
H328 C270 0.929 . S
H329 C271 0.930 . S
H330 C272 0.930 . S
H331 C273 0.930 . S
H332 C275 0.930 . S
H333 C277 0.929 . S
H334 C278 0.930 . S
H335 C279 0.930 . S
H336 C282 0.930 . S
H337 C285 0.929 . S
H338 C290 0.929 . S
H339 C291 0.930 . S
H340 C298 0.929 . S
H341 C299 0.930 . S
H342 C300 0.930 . S
H343 C301 0.930 . S
H344 C303 0.929 . S
H345 C304 0.930 . S
H346 C305 0.930 . S
H347 C306 0.930 . S
H348 C310 0.929 . S
H349 C312 0.930 . S
H350 C318 0.929 . S
H351 C319 0.930 . S
Li352 N369 1.990 . S
Li352 O412 1.956 . S
Li352 O413 1.970 . S
Li352 O414 1.961 . S
Li353 N377 1.990 . S
Li353 O412 1.970 . S
Li353 O413 1.956 . S
Li353 O415 1.961 . S
Li354 N399 1.990 . S
Li354 O412 1.961 . S
Li354 O414 1.956 . S
Li354 O415 1.970 . S
Li355 N405 1.990 . S
Li355 O413 1.961 . S
Li355 O414 1.970 . S
Li355 O415 1.956 . S
C356 C358 1.348 . S
C356 C359 1.356 . S
C356 O412 1.325 . S
N357 C360 1.314 . S
N357 C361 1.279 . S
C358 C356 1.348 . S
C358 C360 1.353 . S
C358 H416 0.929 . S
C359 C356 1.356 . S
C359 C361 1.358 . S
C359 H417 0.930 . S
C360 N357 1.314 . S
C360 C358 1.353 . S
C360 H418 0.930 . S
C361 N357 1.279 . S
C361 C359 1.358 . S
C361 H419 0.930 . S
C362 C365 1.348 . S
C362 C366 1.356 . S
C362 O413 1.325 . S
C363 N364 1.279 . S
C363 C366 1.358 . S
C363 H420 0.930 . S
N364 C363 1.279 . S
N364 C367 1.314 . S
C365 C362 1.348 . S
C365 C367 1.353 . S
C365 H421 0.929 . S
C366 C362 1.356 . S
C366 C363 1.358 . S
C366 H422 0.930 . S
C367 N364 1.314 . S
C367 C365 1.353 . S
C367 H423 0.930 . S
C368 N369 1.314 . S
C368 C373 1.353 . S
C368 H374 0.930 . S
N369 Li352 1.990 . S
N369 C368 1.314 . S
N369 C371 1.279 . S
C370 C371 1.358 . S
C370 C372 1.356 . S
C370 H424 0.930 . S
C371 N369 1.279 . S
C371 C370 1.358 . S
C371 H375 0.930 . S
C372 C370 1.356 . S
C372 C373 1.348 . S
C373 C368 1.353 . S
C373 C372 1.348 . S
C373 H425 0.929 . S
H374 C368 0.930 . S
H375 C371 0.930 . S
C376 N377 1.314 . S
C376 C378 1.353 . S
C376 H382 0.930 . S
N377 Li353 1.990 . S
N377 C376 1.314 . S
N377 C380 1.279 . S
C378 C376 1.353 . S
C378 C381 1.348 . S
C378 H426 0.929 . S
C379 C380 1.358 . S
C379 C381 1.356 . S
C379 H427 0.930 . S
C380 N377 1.279 . S
C380 C379 1.358 . S
C380 H383 0.930 . S
C381 C378 1.348 . S
C381 C379 1.356 . S
H382 C376 0.930 . S
H383 C380 0.930 . S
C384 C386 1.348 . S
C384 C387 1.356 . S
C384 O414 1.325 . S
N385 C388 1.314 . S
N385 C389 1.279 . S
C386 C384 1.348 . S
C386 C388 1.353 . S
C386 H428 0.929 . S
C387 C384 1.356 . S
C387 C389 1.358 . S
C387 H429 0.930 . S
C388 N385 1.314 . S
C388 C386 1.353 . S
C388 H430 0.930 . S
C389 N385 1.279 . S
C389 C387 1.358 . S
C389 H431 0.930 . S
C390 C391 1.348 . S
C390 C392 1.356 . S
C390 O415 1.325 . S
C391 C390 1.348 . S
C391 C393 1.353 . S
C391 H432 0.929 . S
C392 C390 1.356 . S
C392 C394 1.358 . S
C392 H433 0.930 . S
C393 C391 1.353 . S
C393 N395 1.314 . S
C393 H434 0.930 . S
C394 C392 1.358 . S
C394 N395 1.279 . S
C394 H435 0.930 . S
N395 C393 1.314 . S
N395 C394 1.279 . S
C396 C398 1.353 . S
C396 N399 1.314 . S
C396 H402 0.930 . S
C397 N399 1.279 . S
C397 C400 1.358 . S
C397 H403 0.930 . S
C398 C396 1.353 . S
C398 C401 1.348 . S
C398 H436 0.929 . S
N399 Li354 1.990 . S
N399 C396 1.314 . S
N399 C397 1.279 . S
C400 C397 1.358 . S
C400 C401 1.356 . S
C400 H437 0.930 . S
C401 C398 1.348 . S
C401 C400 1.356 . S
H402 C396 0.930 . S
H403 C397 0.930 . S
C404 N405 1.314 . S
C404 C406 1.353 . S
C404 H410 0.930 . S
N405 Li355 1.990 . S
N405 C404 1.314 . S
N405 C408 1.279 . S
C406 C404 1.353 . S
C406 C409 1.348 . S
C406 H438 0.929 . S
C407 C408 1.358 . S
C407 C409 1.356 . S
C407 H439 0.930 . S
C408 N405 1.279 . S
C408 C407 1.358 . S
C408 H411 0.930 . S
C409 C406 1.348 . S
C409 C407 1.356 . S
H410 C404 0.930 . S
H411 C408 0.930 . S
O412 Li352 1.956 . S
O412 Li353 1.970 . S
O412 Li354 1.961 . S
O412 C356 1.325 . S
O413 Li352 1.970 . S
O413 Li353 1.956 . S
O413 Li355 1.961 . S
O413 C362 1.325 . S
O414 Li352 1.961 . S
O414 Li354 1.956 . S
O414 Li355 1.970 . S
O414 C384 1.325 . S
O415 Li353 1.961 . S
O415 Li354 1.970 . S
O415 Li355 1.956 . S
O415 C390 1.325 . S
H416 C358 0.929 . S
H417 C359 0.930 . S
H418 C360 0.930 . S
H419 C361 0.930 . S
H420 C363 0.930 . S
H421 C365 0.929 . S
H422 C366 0.930 . S
H423 C367 0.930 . S
H424 C370 0.930 . S
H425 C373 0.929 . S
H426 C378 0.929 . S
H427 C379 0.930 . S
H428 C386 0.929 . S
H429 C387 0.930 . S
H430 C388 0.930 . S
H431 C389 0.930 . S
H432 C391 0.929 . S
H433 C392 0.930 . S
H434 C393 0.930 . S
H435 C394 0.930 . S
H436 C398 0.929 . S
H437 C400 0.930 . S
H438 C406 0.929 . S
H439 C407 0.930 . S
Li440 N457 1.990 . S
Li440 O500 1.956 . S
Li440 O501 1.970 . S
Li440 O502 1.961 . S
Li441 N465 1.990 . S
Li441 O500 1.970 . S
Li441 O501 1.956 . S
Li441 O503 1.961 . S
Li442 N487 1.990 . S
Li442 O500 1.961 . S
Li442 O502 1.956 . S
Li442 O503 1.970 . S
Li443 N493 1.990 . S
Li443 O501 1.961 . S
Li443 O502 1.970 . S
Li443 O503 1.956 . S
C444 C446 1.348 . S
C444 C447 1.356 . S
C444 O500 1.325 . S
N445 C448 1.314 . S
N445 C449 1.279 . S
C446 C444 1.348 . S
C446 C448 1.353 . S
C446 H504 0.929 . S
C447 C444 1.356 . S
C447 C449 1.358 . S
C447 H505 0.930 . S
C448 N445 1.314 . S
C448 C446 1.353 . S
C448 H506 0.930 . S
C449 N445 1.279 . S
C449 C447 1.358 . S
C449 H507 0.930 . S
C450 C453 1.348 . S
C450 C454 1.356 . S
C450 O501 1.325 . S
C451 N452 1.279 . S
C451 C454 1.358 . S
C451 H508 0.930 . S
N452 C451 1.279 . S
N452 C455 1.314 . S
C453 C450 1.348 . S
C453 C455 1.353 . S
C453 H509 0.929 . S
C454 C450 1.356 . S
C454 C451 1.358 . S
C454 H510 0.930 . S
C455 N452 1.314 . S
C455 C453 1.353 . S
C455 H511 0.930 . S
C456 N457 1.314 . S
C456 C461 1.353 . S
C456 H462 0.930 . S
N457 Li440 1.990 . S
N457 C456 1.314 . S
N457 C459 1.279 . S
C458 C459 1.358 . S
C458 C460 1.356 . S
C458 H512 0.930 . S
C459 N457 1.279 . S
C459 C458 1.358 . S
C459 H463 0.930 . S
C460 C458 1.356 . S
C460 C461 1.348 . S
C461 C456 1.353 . S
C461 C460 1.348 . S
C461 H513 0.929 . S
H462 C456 0.930 . S
H463 C459 0.930 . S
C464 N465 1.314 . S
C464 C466 1.353 . S
C464 H470 0.930 . S
N465 Li441 1.990 . S
N465 C464 1.314 . S
N465 C468 1.279 . S
C466 C464 1.353 . S
C466 C469 1.348 . S
C466 H514 0.929 . S
C467 C468 1.358 . S
C467 C469 1.356 . S
C467 H515 0.930 . S
C468 N465 1.279 . S
C468 C467 1.358 . S
C468 H471 0.930 . S
C469 C466 1.348 . S
C469 C467 1.356 . S
H470 C464 0.930 . S
H471 C468 0.930 . S
C472 C474 1.348 . S
C472 C475 1.356 . S
C472 O502 1.325 . S
N473 C476 1.314 . S
N473 C477 1.279 . S
C474 C472 1.348 . S
C474 C476 1.353 . S
C474 H516 0.929 . S
C475 C472 1.356 . S
C475 C477 1.358 . S
C475 H517 0.930 . S
C476 N473 1.314 . S
C476 C474 1.353 . S
C476 H518 0.930 . S
C477 N473 1.279 . S
C477 C475 1.358 . S
C477 H519 0.930 . S
C478 C479 1.348 . S
C478 C480 1.356 . S
C478 O503 1.325 . S
C479 C478 1.348 . S
C479 C481 1.353 . S
C479 H520 0.929 . S
C480 C478 1.356 . S
C480 C482 1.358 . S
C480 H521 0.930 . S
C481 C479 1.353 . S
C481 N483 1.314 . S
C481 H522 0.930 . S
C482 C480 1.358 . S
C482 N483 1.279 . S
C482 H523 0.930 . S
N483 C481 1.314 . S
N483 C482 1.279 . S
C484 C486 1.353 . S
C484 N487 1.314 . S
C484 H490 0.930 . S
C485 N487 1.279 . S
C485 C488 1.358 . S
C485 H491 0.930 . S
C486 C484 1.353 . S
C486 C489 1.348 . S
C486 H524 0.929 . S
N487 Li442 1.990 . S
N487 C484 1.314 . S
N487 C485 1.279 . S
C488 C485 1.358 . S
C488 C489 1.356 . S
C488 H525 0.930 . S
C489 C486 1.348 . S
C489 C488 1.356 . S
H490 C484 0.930 . S
H491 C485 0.930 . S
C492 N493 1.314 . S
C492 C494 1.353 . S
C492 H498 0.930 . S
N493 Li443 1.990 . S
N493 C492 1.314 . S
N493 C496 1.279 . S
C494 C492 1.353 . S
C494 C497 1.348 . S
C494 H526 0.929 . S
C495 C496 1.358 . S
C495 C497 1.356 . S
C495 H527 0.930 . S
C496 N493 1.279 . S
C496 C495 1.358 . S
C496 H499 0.930 . S
C497 C494 1.348 . S
C497 C495 1.356 . S
H498 C492 0.930 . S
H499 C496 0.930 . S
O500 Li440 1.956 . S
O500 Li441 1.970 . S
O500 Li442 1.961 . S
O500 C444 1.325 . S
O501 Li440 1.970 . S
O501 Li441 1.956 . S
O501 Li443 1.961 . S
O501 C450 1.325 . S
O502 Li440 1.961 . S
O502 Li442 1.956 . S
O502 Li443 1.970 . S
O502 C472 1.325 . S
O503 Li441 1.961 . S
O503 Li442 1.970 . S
O503 Li443 1.956 . S
O503 C478 1.325 . S
H504 C446 0.929 . S
H505 C447 0.930 . S
H506 C448 0.930 . S
H507 C449 0.930 . S
H508 C451 0.930 . S
H509 C453 0.929 . S
H510 C454 0.930 . S
H511 C455 0.930 . S
H512 C458 0.930 . S
H513 C461 0.929 . S
H514 C466 0.929 . S
H515 C467 0.930 . S
H516 C474 0.929 . S
H517 C475 0.930 . S
H518 C476 0.930 . S
H519 C477 0.930 . S
H520 C479 0.929 . S
H521 C480 0.930 . S
H522 C481 0.930 . S
H523 C482 0.930 . S
H524 C486 0.929 . S
H525 C488 0.930 . S
H526 C494 0.929 . S
H527 C495 0.930 . S
Li528 N545 1.990 . S
Li528 O588 1.956 . S
Li528 O589 1.970 . S
Li528 O590 1.961 . S
Li529 N553 1.990 . S
Li529 O588 1.970 . S
Li529 O589 1.956 . S
Li529 O591 1.961 . S
Li530 N575 1.990 . S
Li530 O588 1.961 . S
Li530 O590 1.956 . S
Li530 O591 1.970 . S
Li531 N581 1.990 . S
Li531 O589 1.961 . S
Li531 O590 1.970 . S
Li531 O591 1.956 . S
C532 C534 1.348 . S
C532 C535 1.356 . S
C532 O588 1.325 . S
N533 C536 1.314 . S
N533 C537 1.279 . S
C534 C532 1.348 . S
C534 C536 1.353 . S
C534 H592 0.929 . S
C535 C532 1.356 . S
C535 C537 1.358 . S
C535 H593 0.930 . S
C536 N533 1.314 . S
C536 C534 1.353 . S
C536 H594 0.930 . S
C537 N533 1.279 . S
C537 C535 1.358 . S
C537 H595 0.930 . S
C538 C541 1.348 . S
C538 C542 1.356 . S
C538 O589 1.325 . S
C539 N540 1.279 . S
C539 C542 1.358 . S
C539 H596 0.930 . S
N540 C539 1.279 . S
N540 C543 1.314 . S
C541 C538 1.348 . S
C541 C543 1.353 . S
C541 H597 0.929 . S
C542 C538 1.356 . S
C542 C539 1.358 . S
C542 H598 0.930 . S
C543 N540 1.314 . S
C543 C541 1.353 . S
C543 H599 0.930 . S
C544 N545 1.314 . S
C544 C549 1.353 . S
C544 H550 0.930 . S
N545 Li528 1.990 . S
N545 C544 1.314 . S
N545 C547 1.279 . S
C546 C547 1.358 . S
C546 C548 1.356 . S
C546 H600 0.930 . S
C547 N545 1.279 . S
C547 C546 1.358 . S
C547 H551 0.930 . S
C548 C546 1.356 . S
C548 C549 1.348 . S
C549 C544 1.353 . S
C549 C548 1.348 . S
C549 H601 0.929 . S
H550 C544 0.930 . S
H551 C547 0.930 . S
C552 N553 1.314 . S
C552 C554 1.353 . S
C552 H558 0.930 . S
N553 Li529 1.990 . S
N553 C552 1.314 . S
N553 C556 1.279 . S
C554 C552 1.353 . S
C554 C557 1.348 . S
C554 H602 0.929 . S
C555 C556 1.358 . S
C555 C557 1.356 . S
C555 H603 0.930 . S
C556 N553 1.279 . S
C556 C555 1.358 . S
C556 H559 0.930 . S
C557 C554 1.348 . S
C557 C555 1.356 . S
H558 C552 0.930 . S
H559 C556 0.930 . S
C560 C562 1.348 . S
C560 C563 1.356 . S
C560 O590 1.325 . S
N561 C564 1.314 . S
N561 C565 1.279 . S
C562 C560 1.348 . S
C562 C564 1.353 . S
C562 H604 0.929 . S
C563 C560 1.356 . S
C563 C565 1.358 . S
C563 H605 0.930 . S
C564 N561 1.314 . S
C564 C562 1.353 . S
C564 H606 0.930 . S
C565 N561 1.279 . S
C565 C563 1.358 . S
C565 H607 0.930 . S
C566 C567 1.348 . S
C566 C568 1.356 . S
C566 O591 1.325 . S
C567 C566 1.348 . S
C567 C569 1.353 . S
C567 H608 0.929 . S
C568 C566 1.356 . S
C568 C570 1.358 . S
C568 H609 0.930 . S
C569 C567 1.353 . S
C569 N571 1.314 . S
C569 H610 0.930 . S
C570 C568 1.358 . S
C570 N571 1.279 . S
C570 H611 0.930 . S
N571 C569 1.314 . S
N571 C570 1.279 . S
C572 C574 1.353 . S
C572 N575 1.314 . S
C572 H578 0.930 . S
C573 N575 1.279 . S
C573 C576 1.358 . S
C573 H579 0.930 . S
C574 C572 1.353 . S
C574 C577 1.348 . S
C574 H612 0.929 . S
N575 Li530 1.990 . S
N575 C572 1.314 . S
N575 C573 1.279 . S
C576 C573 1.358 . S
C576 C577 1.356 . S
C576 H613 0.930 . S
C577 C574 1.348 . S
C577 C576 1.356 . S
H578 C572 0.930 . S
H579 C573 0.930 . S
C580 N581 1.314 . S
C580 C582 1.353 . S
C580 H586 0.930 . S
N581 Li531 1.990 . S
N581 C580 1.314 . S
N581 C584 1.279 . S
C582 C580 1.353 . S
C582 C585 1.348 . S
C582 H614 0.929 . S
C583 C584 1.358 . S
C583 C585 1.356 . S
C583 H615 0.930 . S
C584 N581 1.279 . S
C584 C583 1.358 . S
C584 H587 0.930 . S
C585 C582 1.348 . S
C585 C583 1.356 . S
H586 C580 0.930 . S
H587 C584 0.930 . S
O588 Li528 1.956 . S
O588 Li529 1.970 . S
O588 Li530 1.961 . S
O588 C532 1.325 . S
O589 Li528 1.970 . S
O589 Li529 1.956 . S
O589 Li531 1.961 . S
O589 C538 1.325 . S
O590 Li528 1.961 . S
O590 Li530 1.956 . S
O590 Li531 1.970 . S
O590 C560 1.325 . S
O591 Li529 1.961 . S
O591 Li530 1.970 . S
O591 Li531 1.956 . S
O591 C566 1.325 . S
H592 C534 0.929 . S
H593 C535 0.930 . S
H594 C536 0.930 . S
H595 C537 0.930 . S
H596 C539 0.930 . S
H597 C541 0.929 . S
H598 C542 0.930 . S
H599 C543 0.930 . S
H600 C546 0.930 . S
H601 C549 0.929 . S
H602 C554 0.929 . S
H603 C555 0.930 . S
H604 C562 0.929 . S
H605 C563 0.930 . S
H606 C564 0.930 . S
H607 C565 0.930 . S
H608 C567 0.929 . S
H609 C568 0.930 . S
H610 C569 0.930 . S
H611 C570 0.930 . S
H612 C574 0.929 . S
H613 C576 0.930 . S
H614 C582 0.929 . S
H615 C583 0.930 . S
Li616 N633 1.990 . S
Li616 O676 1.956 . S
Li616 O677 1.970 . S
Li616 O678 1.961 . S
Li617 N641 1.990 . S
Li617 O676 1.970 . S
Li617 O677 1.956 . S
Li617 O679 1.961 . S
Li618 N663 1.990 . S
Li618 O676 1.961 . S
Li618 O678 1.956 . S
Li618 O679 1.970 . S
Li619 N669 1.990 . S
Li619 O677 1.961 . S
Li619 O678 1.970 . S
Li619 O679 1.956 . S
C620 C622 1.348 . S
C620 C623 1.356 . S
C620 O676 1.325 . S
N621 C624 1.314 . S
N621 C625 1.279 . S
C622 C620 1.348 . S
C622 C624 1.353 . S
C622 H680 0.929 . S
C623 C620 1.356 . S
C623 C625 1.358 . S
C623 H681 0.930 . S
C624 N621 1.314 . S
C624 C622 1.353 . S
C624 H682 0.930 . S
C625 N621 1.279 . S
C625 C623 1.358 . S
C625 H683 0.930 . S
C626 C629 1.348 . S
C626 C630 1.356 . S
C626 O677 1.325 . S
C627 N628 1.279 . S
C627 C630 1.358 . S
C627 H684 0.930 . S
N628 C627 1.279 . S
N628 C631 1.314 . S
C629 C626 1.348 . S
C629 C631 1.353 . S
C629 H685 0.929 . S
C630 C626 1.356 . S
C630 C627 1.358 . S
C630 H686 0.930 . S
C631 N628 1.314 . S
C631 C629 1.353 . S
C631 H687 0.930 . S
C632 N633 1.314 . S
C632 C637 1.353 . S
C632 H638 0.930 . S
N633 Li616 1.990 . S
N633 C632 1.314 . S
N633 C635 1.279 . S
C634 C635 1.358 . S
C634 C636 1.356 . S
C634 H688 0.930 . S
C635 N633 1.279 . S
C635 C634 1.358 . S
C635 H639 0.930 . S
C636 C634 1.356 . S
C636 C637 1.348 . S
C637 C632 1.353 . S
C637 C636 1.348 . S
C637 H689 0.929 . S
H638 C632 0.930 . S
H639 C635 0.930 . S
C640 N641 1.314 . S
C640 C642 1.353 . S
C640 H646 0.930 . S
N641 Li617 1.990 . S
N641 C640 1.314 . S
N641 C644 1.279 . S
C642 C640 1.353 . S
C642 C645 1.348 . S
C642 H690 0.929 . S
C643 C644 1.358 . S
C643 C645 1.356 . S
C643 H691 0.930 . S
C644 N641 1.279 . S
C644 C643 1.358 . S
C644 H647 0.930 . S
C645 C642 1.348 . S
C645 C643 1.356 . S
H646 C640 0.930 . S
H647 C644 0.930 . S
C648 C650 1.348 . S
C648 C651 1.356 . S
C648 O678 1.325 . S
N649 C652 1.314 . S
N649 C653 1.279 . S
C650 C648 1.348 . S
C650 C652 1.353 . S
C650 H692 0.929 . S
C651 C648 1.356 . S
C651 C653 1.358 . S
C651 H693 0.930 . S
C652 N649 1.314 . S
C652 C650 1.353 . S
C652 H694 0.930 . S
C653 N649 1.279 . S
C653 C651 1.358 . S
C653 H695 0.930 . S
C654 C655 1.348 . S
C654 C656 1.356 . S
C654 O679 1.325 . S
C655 C654 1.348 . S
C655 C657 1.353 . S
C655 H696 0.929 . S
C656 C654 1.356 . S
C656 C658 1.358 . S
C656 H697 0.930 . S
C657 C655 1.353 . S
C657 N659 1.314 . S
C657 H698 0.930 . S
C658 C656 1.358 . S
C658 N659 1.279 . S
C658 H699 0.930 . S
N659 C657 1.314 . S
N659 C658 1.279 . S
C660 C662 1.353 . S
C660 N663 1.314 . S
C660 H666 0.930 . S
C661 N663 1.279 . S
C661 C664 1.358 . S
C661 H667 0.930 . S
C662 C660 1.353 . S
C662 C665 1.348 . S
C662 H700 0.929 . S
N663 Li618 1.990 . S
N663 C660 1.314 . S
N663 C661 1.279 . S
C664 C661 1.358 . S
C664 C665 1.356 . S
C664 H701 0.930 . S
C665 C662 1.348 . S
C665 C664 1.356 . S
H666 C660 0.930 . S
H667 C661 0.930 . S
C668 N669 1.314 . S
C668 C670 1.353 . S
C668 H674 0.930 . S
N669 Li619 1.990 . S
N669 C668 1.314 . S
N669 C672 1.279 . S
C670 C668 1.353 . S
C670 C673 1.348 . S
C670 H702 0.929 . S
C671 C672 1.358 . S
C671 C673 1.356 . S
C671 H703 0.930 . S
C672 N669 1.279 . S
C672 C671 1.358 . S
C672 H675 0.930 . S
C673 C670 1.348 . S
C673 C671 1.356 . S
H674 C668 0.930 . S
H675 C672 0.930 . S
O676 Li616 1.956 . S
O676 Li617 1.970 . S
O676 Li618 1.961 . S
O676 C620 1.325 . S
O677 Li616 1.970 . S
O677 Li617 1.956 . S
O677 Li619 1.961 . S
O677 C626 1.325 . S
O678 Li616 1.961 . S
O678 Li618 1.956 . S
O678 Li619 1.970 . S
O678 C648 1.325 . S
O679 Li617 1.961 . S
O679 Li618 1.970 . S
O679 Li619 1.956 . S
O679 C654 1.325 . S
H680 C622 0.929 . S
H681 C623 0.930 . S
H682 C624 0.930 . S
H683 C625 0.930 . S
H684 C627 0.930 . S
H685 C629 0.929 . S
H686 C630 0.930 . S
H687 C631 0.930 . S
H688 C634 0.930 . S
H689 C637 0.929 . S
H690 C642 0.929 . S
H691 C643 0.930 . S
H692 C650 0.929 . S
H693 C651 0.930 . S
H694 C652 0.930 . S
H695 C653 0.930 . S
H696 C655 0.929 . S
H697 C656 0.930 . S
H698 C657 0.930 . S
H699 C658 0.930 . S
H700 C662 0.929 . S
H701 C664 0.930 . S
H702 C670 0.929 . S
H703 C671 0.930 . S
Li704 N721 1.990 . S
Li704 O764 1.956 . S
Li704 O765 1.970 . S
Li704 O766 1.961 . S
Li705 N729 1.990 . S
Li705 O764 1.970 . S
Li705 O765 1.956 . S
Li705 O767 1.961 . S
Li706 N751 1.990 . S
Li706 O764 1.961 . S
Li706 O766 1.956 . S
Li706 O767 1.970 . S
Li707 N757 1.990 . S
Li707 O765 1.961 . S
Li707 O766 1.970 . S
Li707 O767 1.956 . S
C708 C710 1.348 . S
C708 C711 1.356 . S
C708 O764 1.325 . S
N709 C712 1.314 . S
N709 C713 1.279 . S
C710 C708 1.348 . S
C710 C712 1.353 . S
C710 H768 0.929 . S
C711 C708 1.356 . S
C711 C713 1.358 . S
C711 H769 0.930 . S
C712 N709 1.314 . S
C712 C710 1.353 . S
C712 H770 0.930 . S
C713 N709 1.279 . S
C713 C711 1.358 . S
C713 H771 0.930 . S
C714 C717 1.348 . S
C714 C718 1.356 . S
C714 O765 1.325 . S
C715 N716 1.279 . S
C715 C718 1.358 . S
C715 H772 0.930 . S
N716 C715 1.279 . S
N716 C719 1.314 . S
C717 C714 1.348 . S
C717 C719 1.353 . S
C717 H773 0.929 . S
C718 C714 1.356 . S
C718 C715 1.358 . S
C718 H774 0.930 . S
C719 N716 1.314 . S
C719 C717 1.353 . S
C719 H775 0.930 . S
C720 N721 1.314 . S
C720 C725 1.353 . S
C720 H726 0.930 . S
N721 Li704 1.990 . S
N721 C720 1.314 . S
N721 C723 1.279 . S
C722 C723 1.358 . S
C722 C724 1.356 . S
C722 H776 0.930 . S
C723 N721 1.279 . S
C723 C722 1.358 . S
C723 H727 0.930 . S
C724 C722 1.356 . S
C724 C725 1.348 . S
C725 C720 1.353 . S
C725 C724 1.348 . S
C725 H777 0.929 . S
H726 C720 0.930 . S
H727 C723 0.930 . S
C728 N729 1.314 . S
C728 C730 1.353 . S
C728 H734 0.930 . S
N729 Li705 1.990 . S
N729 C728 1.314 . S
N729 C732 1.279 . S
C730 C728 1.353 . S
C730 C733 1.348 . S
C730 H778 0.929 . S
C731 C732 1.358 . S
C731 C733 1.356 . S
C731 H779 0.930 . S
C732 N729 1.279 . S
C732 C731 1.358 . S
C732 H735 0.930 . S
C733 C730 1.348 . S
C733 C731 1.356 . S
H734 C728 0.930 . S
H735 C732 0.930 . S
C736 C738 1.348 . S
C736 C739 1.356 . S
C736 O766 1.325 . S
N737 C740 1.314 . S
N737 C741 1.279 . S
C738 C736 1.348 . S
C738 C740 1.353 . S
C738 H780 0.929 . S
C739 C736 1.356 . S
C739 C741 1.358 . S
C739 H781 0.930 . S
C740 N737 1.314 . S
C740 C738 1.353 . S
C740 H782 0.930 . S
C741 N737 1.279 . S
C741 C739 1.358 . S
C741 H783 0.930 . S
C742 C743 1.348 . S
C742 C744 1.356 . S
C742 O767 1.325 . S
C743 C742 1.348 . S
C743 C745 1.353 . S
C743 H784 0.929 . S
C744 C742 1.356 . S
C744 C746 1.358 . S
C744 H785 0.930 . S
C745 C743 1.353 . S
C745 N747 1.314 . S
C745 H786 0.930 . S
C746 C744 1.358 . S
C746 N747 1.279 . S
C746 H787 0.930 . S
N747 C745 1.314 . S
N747 C746 1.279 . S
C748 C750 1.353 . S
C748 N751 1.314 . S
C748 H754 0.930 . S
C749 N751 1.279 . S
C749 C752 1.358 . S
C749 H755 0.930 . S
C750 C748 1.353 . S
C750 C753 1.348 . S
C750 H788 0.929 . S
N751 Li706 1.990 . S
N751 C748 1.314 . S
N751 C749 1.279 . S
C752 C749 1.358 . S
C752 C753 1.356 . S
C752 H789 0.930 . S
C753 C750 1.348 . S
C753 C752 1.356 . S
H754 C748 0.930 . S
H755 C749 0.930 . S
C756 N757 1.314 . S
C756 C758 1.353 . S
C756 H762 0.930 . S
N757 Li707 1.990 . S
N757 C756 1.314 . S
N757 C760 1.279 . S
C758 C756 1.353 . S
C758 C761 1.348 . S
C758 H790 0.929 . S
C759 C760 1.358 . S
C759 C761 1.356 . S
C759 H791 0.930 . S
C760 N757 1.279 . S
C760 C759 1.358 . S
C760 H763 0.930 . S
C761 C758 1.348 . S
C761 C759 1.356 . S
H762 C756 0.930 . S
H763 C760 0.930 . S
O764 Li704 1.956 . S
O764 Li705 1.970 . S
O764 Li706 1.961 . S
O764 C708 1.325 . S
O765 Li704 1.970 . S
O765 Li705 1.956 . S
O765 Li707 1.961 . S
O765 C714 1.325 . S
O766 Li704 1.961 . S
O766 Li706 1.956 . S
O766 Li707 1.970 . S
O766 C736 1.325 . S
O767 Li705 1.961 . S
O767 Li706 1.970 . S
O767 Li707 1.956 . S
O767 C742 1.325 . S
H768 C710 0.929 . S
H769 C711 0.930 . S
H770 C712 0.930 . S
H771 C713 0.930 . S
H772 C715 0.930 . S
H773 C717 0.929 . S
H774 C718 0.930 . S
H775 C719 0.930 . S
H776 C722 0.930 . S
H777 C725 0.929 . S
H778 C730 0.929 . S
H779 C731 0.930 . S
H780 C738 0.929 . S
H781 C739 0.930 . S
H782 C740 0.930 . S
H783 C741 0.930 . S
H784 C743 0.929 . S
H785 C744 0.930 . S
H786 C745 0.930 . S
H787 C746 0.930 . S
H788 C750 0.929 . S
H789 C752 0.930 . S
H790 C758 0.929 . S
H791 C759 0.930 . S
Li792 N809 1.990 . S
Li792 O852 1.956 . S
Li792 O853 1.970 . S
Li792 O854 1.961 . S
Li793 N817 1.990 . S
Li793 O852 1.970 . S
Li793 O853 1.956 . S
Li793 O855 1.961 . S
Li794 N839 1.990 . S
Li794 O852 1.961 . S
Li794 O854 1.956 . S
Li794 O855 1.970 . S
Li795 N845 1.990 . S
Li795 O853 1.961 . S
Li795 O854 1.970 . S
Li795 O855 1.956 . S
C796 C798 1.348 . S
C796 C799 1.356 . S
C796 O852 1.325 . S
N797 C800 1.314 . S
N797 C801 1.279 . S
C798 C796 1.348 . S
C798 C800 1.353 . S
C798 H856 0.929 . S
C799 C796 1.356 . S
C799 C801 1.358 . S
C799 H857 0.930 . S
C800 N797 1.314 . S
C800 C798 1.353 . S
C800 H858 0.930 . S
C801 N797 1.279 . S
C801 C799 1.358 . S
C801 H859 0.930 . S
C802 C805 1.348 . S
C802 C806 1.356 . S
C802 O853 1.325 . S
C803 N804 1.279 . S
C803 C806 1.358 . S
C803 H860 0.930 . S
N804 C803 1.279 . S
N804 C807 1.314 . S
C805 C802 1.348 . S
C805 C807 1.353 . S
C805 H861 0.929 . S
C806 C802 1.356 . S
C806 C803 1.358 . S
C806 H862 0.930 . S
C807 N804 1.314 . S
C807 C805 1.353 . S
C807 H863 0.930 . S
C808 N809 1.314 . S
C808 C813 1.353 . S
C808 H814 0.930 . S
N809 Li792 1.990 . S
N809 C808 1.314 . S
N809 C811 1.279 . S
C810 C811 1.358 . S
C810 C812 1.356 . S
C810 H864 0.930 . S
C811 N809 1.279 . S
C811 C810 1.358 . S
C811 H815 0.930 . S
C812 C810 1.356 . S
C812 C813 1.348 . S
C813 C808 1.353 . S
C813 C812 1.348 . S
C813 H865 0.929 . S
H814 C808 0.930 . S
H815 C811 0.930 . S
C816 N817 1.314 . S
C816 C818 1.353 . S
C816 H822 0.930 . S
N817 Li793 1.990 . S
N817 C816 1.314 . S
N817 C820 1.279 . S
C818 C816 1.353 . S
C818 C821 1.348 . S
C818 H866 0.929 . S
C819 C820 1.358 . S
C819 C821 1.356 . S
C819 H867 0.930 . S
C820 N817 1.279 . S
C820 C819 1.358 . S
C820 H823 0.930 . S
C821 C818 1.348 . S
C821 C819 1.356 . S
H822 C816 0.930 . S
H823 C820 0.930 . S
C824 C826 1.348 . S
C824 C827 1.356 . S
C824 O854 1.325 . S
N825 C828 1.314 . S
N825 C829 1.279 . S
C826 C824 1.348 . S
C826 C828 1.353 . S
C826 H868 0.929 . S
C827 C824 1.356 . S
C827 C829 1.358 . S
C827 H869 0.930 . S
C828 N825 1.314 . S
C828 C826 1.353 . S
C828 H870 0.930 . S
C829 N825 1.279 . S
C829 C827 1.358 . S
C829 H871 0.930 . S
C830 C831 1.348 . S
C830 C832 1.356 . S
C830 O855 1.325 . S
C831 C830 1.348 . S
C831 C833 1.353 . S
C831 H872 0.929 . S
C832 C830 1.356 . S
C832 C834 1.358 . S
C832 H873 0.930 . S
C833 C831 1.353 . S
C833 N835 1.314 . S
C833 H874 0.930 . S
C834 C832 1.358 . S
C834 N835 1.279 . S
C834 H875 0.930 . S
N835 C833 1.314 . S
N835 C834 1.279 . S
C836 C838 1.353 . S
C836 N839 1.314 . S
C836 H842 0.930 . S
C837 N839 1.279 . S
C837 C840 1.358 . S
C837 H843 0.930 . S
C838 C836 1.353 . S
C838 C841 1.348 . S
C838 H876 0.929 . S
N839 Li794 1.990 . S
N839 C836 1.314 . S
N839 C837 1.279 . S
C840 C837 1.358 . S
C840 C841 1.356 . S
C840 H877 0.930 . S
C841 C838 1.348 . S
C841 C840 1.356 . S
H842 C836 0.930 . S
H843 C837 0.930 . S
C844 N845 1.314 . S
C844 C846 1.353 . S
C844 H850 0.930 . S
N845 Li795 1.990 . S
N845 C844 1.314 . S
N845 C848 1.279 . S
C846 C844 1.353 . S
C846 C849 1.348 . S
C846 H878 0.929 . S
C847 C848 1.358 . S
C847 C849 1.356 . S
C847 H879 0.930 . S
C848 N845 1.279 . S
C848 C847 1.358 . S
C848 H851 0.930 . S
C849 C846 1.348 . S
C849 C847 1.356 . S
H850 C844 0.930 . S
H851 C848 0.930 . S
O852 Li792 1.956 . S
O852 Li793 1.970 . S
O852 Li794 1.961 . S
O852 C796 1.325 . S
O853 Li792 1.970 . S
O853 Li793 1.956 . S
O853 Li795 1.961 . S
O853 C802 1.325 . S
O854 Li792 1.961 . S
O854 Li794 1.956 . S
O854 Li795 1.970 . S
O854 C824 1.325 . S
O855 Li793 1.961 . S
O855 Li794 1.970 . S
O855 Li795 1.956 . S
O855 C830 1.325 . S
H856 C798 0.929 . S
H857 C799 0.930 . S
H858 C800 0.930 . S
H859 C801 0.930 . S
H860 C803 0.930 . S
H861 C805 0.929 . S
H862 C806 0.930 . S
H863 C807 0.930 . S
H864 C810 0.930 . S
H865 C813 0.929 . S
H866 C818 0.929 . S
H867 C819 0.930 . S
H868 C826 0.929 . S
H869 C827 0.930 . S
H870 C828 0.930 . S
H871 C829 0.930 . S
H872 C831 0.929 . S
H873 C832 0.930 . S
H874 C833 0.930 . S
H875 C834 0.930 . S
H876 C838 0.929 . S
H877 C840 0.930 . S
H878 C846 0.929 . S
H879 C847 0.930 . S
Li880 N897 1.990 . S
Li880 O940 1.956 . S
Li880 O941 1.970 . S
Li880 O942 1.961 . S
Li881 N905 1.990 . S
Li881 O940 1.970 . S
Li881 O941 1.956 . S
Li881 O943 1.961 . S
Li882 N927 1.990 . S
Li882 O940 1.961 . S
Li882 O942 1.956 . S
Li882 O943 1.970 . S
Li883 N933 1.990 . S
Li883 O941 1.961 . S
Li883 O942 1.970 . S
Li883 O943 1.956 . S
C884 C886 1.348 . S
C884 C887 1.356 . S
C884 O940 1.325 . S
N885 C888 1.314 . S
N885 C889 1.279 . S
C886 C884 1.348 . S
C886 C888 1.353 . S
C886 H944 0.929 . S
C887 C884 1.356 . S
C887 C889 1.358 . S
C887 H945 0.930 . S
C888 N885 1.314 . S
C888 C886 1.353 . S
C888 H946 0.930 . S
C889 N885 1.279 . S
C889 C887 1.358 . S
C889 H947 0.930 . S
C890 C893 1.348 . S
C890 C894 1.356 . S
C890 O941 1.325 . S
C891 N892 1.279 . S
C891 C894 1.358 . S
C891 H948 0.930 . S
N892 C891 1.279 . S
N892 C895 1.314 . S
C893 C890 1.348 . S
C893 C895 1.353 . S
C893 H949 0.929 . S
C894 C890 1.356 . S
C894 C891 1.358 . S
C894 H950 0.930 . S
C895 N892 1.314 . S
C895 C893 1.353 . S
C895 H951 0.930 . S
C896 N897 1.314 . S
C896 C901 1.353 . S
C896 H902 0.930 . S
N897 Li880 1.990 . S
N897 C896 1.314 . S
N897 C899 1.279 . S
C898 C899 1.358 . S
C898 C900 1.356 . S
C898 H952 0.930 . S
C899 N897 1.279 . S
C899 C898 1.358 . S
C899 H903 0.930 . S
C900 C898 1.356 . S
C900 C901 1.348 . S
C901 C896 1.353 . S
C901 C900 1.348 . S
C901 H953 0.929 . S
H902 C896 0.930 . S
H903 C899 0.930 . S
C904 N905 1.314 . S
C904 C906 1.353 . S
C904 H910 0.930 . S
N905 Li881 1.990 . S
N905 C904 1.314 . S
N905 C908 1.279 . S
C906 C904 1.353 . S
C906 C909 1.348 . S
C906 H954 0.929 . S
C907 C908 1.358 . S
C907 C909 1.356 . S
C907 H955 0.930 . S
C908 N905 1.279 . S
C908 C907 1.358 . S
C908 H911 0.930 . S
C909 C906 1.348 . S
C909 C907 1.356 . S
H910 C904 0.930 . S
H911 C908 0.930 . S
C912 C914 1.348 . S
C912 C915 1.356 . S
C912 O942 1.325 . S
N913 C916 1.314 . S
N913 C917 1.279 . S
C914 C912 1.348 . S
C914 C916 1.353 . S
C914 H956 0.929 . S
C915 C912 1.356 . S
C915 C917 1.358 . S
C915 H957 0.930 . S
C916 N913 1.314 . S
C916 C914 1.353 . S
C916 H958 0.930 . S
C917 N913 1.279 . S
C917 C915 1.358 . S
C917 H959 0.930 . S
C918 C919 1.348 . S
C918 C920 1.356 . S
C918 O943 1.325 . S
C919 C918 1.348 . S
C919 C921 1.353 . S
C919 H960 0.929 . S
C920 C918 1.356 . S
C920 C922 1.358 . S
C920 H961 0.930 . S
C921 C919 1.353 . S
C921 N923 1.314 . S
C921 H962 0.930 . S
C922 C920 1.358 . S
C922 N923 1.279 . S
C922 H963 0.930 . S
N923 C921 1.314 . S
N923 C922 1.279 . S
C924 C926 1.353 . S
C924 N927 1.314 . S
C924 H930 0.930 . S
C925 N927 1.279 . S
C925 C928 1.358 . S
C925 H931 0.930 . S
C926 C924 1.353 . S
C926 C929 1.348 . S
C926 H964 0.929 . S
N927 Li882 1.990 . S
N927 C924 1.314 . S
N927 C925 1.279 . S
C928 C925 1.358 . S
C928 C929 1.356 . S
C928 H965 0.930 . S
C929 C926 1.348 . S
C929 C928 1.356 . S
H930 C924 0.930 . S
H931 C925 0.930 . S
C932 N933 1.314 . S
C932 C934 1.353 . S
C932 H938 0.930 . S
N933 Li883 1.990 . S
N933 C932 1.314 . S
N933 C936 1.279 . S
C934 C932 1.353 . S
C934 C937 1.348 . S
C934 H966 0.929 . S
C935 C936 1.358 . S
C935 C937 1.356 . S
C935 H967 0.930 . S
C936 N933 1.279 . S
C936 C935 1.358 . S
C936 H939 0.930 . S
C937 C934 1.348 . S
C937 C935 1.356 . S
H938 C932 0.930 . S
H939 C936 0.930 . S
O940 Li880 1.956 . S
O940 Li881 1.970 . S
O940 Li882 1.961 . S
O940 C884 1.325 . S
O941 Li880 1.970 . S
O941 Li881 1.956 . S
O941 Li883 1.961 . S
O941 C890 1.325 . S
O942 Li880 1.961 . S
O942 Li882 1.956 . S
O942 Li883 1.970 . S
O942 C912 1.325 . S
O943 Li881 1.961 . S
O943 Li882 1.970 . S
O943 Li883 1.956 . S
O943 C918 1.325 . S
H944 C886 0.929 . S
H945 C887 0.930 . S
H946 C888 0.930 . S
H947 C889 0.930 . S
H948 C891 0.930 . S
H949 C893 0.929 . S
H950 C894 0.930 . S
H951 C895 0.930 . S
H952 C898 0.930 . S
H953 C901 0.929 . S
H954 C906 0.929 . S
H955 C907 0.930 . S
H956 C914 0.929 . S
H957 C915 0.930 . S
H958 C916 0.930 . S
H959 C917 0.930 . S
H960 C919 0.929 . S
H961 C920 0.930 . S
H962 C921 0.930 . S
H963 C922 0.930 . S
H964 C926 0.929 . S
H965 C928 0.930 . S
H966 C934 0.929 . S
H967 C935 0.930 . S
Li968 N985 1.990 . S
Li968 O1028 1.956 . S
Li968 O1029 1.970 . S
Li968 O1030 1.961 . S
Li969 N993 1.990 . S
Li969 O1028 1.970 . S
Li969 O1029 1.956 . S
Li969 O1031 1.961 . S
Li970 N1015 1.990 . S
Li970 O1028 1.961 . S
Li970 O1030 1.956 . S
Li970 O1031 1.970 . S
Li971 N1021 1.990 . S
Li971 O1029 1.961 . S
Li971 O1030 1.970 . S
Li971 O1031 1.956 . S
C972 C974 1.348 . S
C972 C975 1.356 . S
C972 O1028 1.325 . S
N973 C976 1.314 . S
N973 C977 1.279 . S
C974 C972 1.348 . S
C974 C976 1.353 . S
C974 H1032 0.929 . S
C975 C972 1.356 . S
C975 C977 1.358 . S
C975 H1033 0.930 . S
C976 N973 1.314 . S
C976 C974 1.353 . S
C976 H1034 0.930 . S
C977 N973 1.279 . S
C977 C975 1.358 . S
C977 H1035 0.930 . S
C978 C981 1.348 . S
C978 C982 1.356 . S
C978 O1029 1.325 . S
C979 N980 1.279 . S
C979 C982 1.358 . S
C979 H1036 0.930 . S
N980 C979 1.279 . S
N980 C983 1.314 . S
C981 C978 1.348 . S
C981 C983 1.353 . S
C981 H1037 0.929 . S
C982 C978 1.356 . S
C982 C979 1.358 . S
C982 H1038 0.930 . S
C983 N980 1.314 . S
C983 C981 1.353 . S
C983 H1039 0.930 . S
C984 N985 1.314 . S
C984 C989 1.353 . S
C984 H990 0.930 . S
N985 Li968 1.990 . S
N985 C984 1.314 . S
N985 C987 1.279 . S
C986 C987 1.358 . S
C986 C988 1.356 . S
C986 H1040 0.930 . S
C987 N985 1.279 . S
C987 C986 1.358 . S
C987 H991 0.930 . S
C988 C986 1.356 . S
C988 C989 1.348 . S
C989 C984 1.353 . S
C989 C988 1.348 . S
C989 H1041 0.929 . S
H990 C984 0.930 . S
H991 C987 0.930 . S
C992 N993 1.314 . S
C992 C994 1.353 . S
C992 H998 0.930 . S
N993 Li969 1.990 . S
N993 C992 1.314 . S
N993 C996 1.279 . S
C994 C992 1.353 . S
C994 C997 1.348 . S
C994 H1042 0.929 . S
C995 C996 1.358 . S
C995 C997 1.356 . S
C995 H1043 0.930 . S
C996 N993 1.279 . S
C996 C995 1.358 . S
C996 H999 0.930 . S
C997 C994 1.348 . S
C997 C995 1.356 . S
H998 C992 0.930 . S
H999 C996 0.930 . S
C1000 C1002 1.348 . S
C1000 C1003 1.356 . S
C1000 O1030 1.325 . S
N1001 C1004 1.314 . S
N1001 C1005 1.279 . S
C1002 C1000 1.348 . S
C1002 C1004 1.353 . S
C1002 H1044 0.929 . S
C1003 C1000 1.356 . S
C1003 C1005 1.358 . S
C1003 H1045 0.930 . S
C1004 N1001 1.314 . S
C1004 C1002 1.353 . S
C1004 H1046 0.930 . S
C1005 N1001 1.279 . S
C1005 C1003 1.358 . S
C1005 H1047 0.930 . S
C1006 C1007 1.348 . S
C1006 C1008 1.356 . S
C1006 O1031 1.325 . S
C1007 C1006 1.348 . S
C1007 C1009 1.353 . S
C1007 H1048 0.929 . S
C1008 C1006 1.356 . S
C1008 C1010 1.358 . S
C1008 H1049 0.930 . S
C1009 C1007 1.353 . S
C1009 N1011 1.314 . S
C1009 H1050 0.930 . S
C1010 C1008 1.358 . S
C1010 N1011 1.279 . S
C1010 H1051 0.930 . S
N1011 C1009 1.314 . S
N1011 C1010 1.279 . S
C1012 C1014 1.353 . S
C1012 N1015 1.314 . S
C1012 H1018 0.930 . S
C1013 N1015 1.279 . S
C1013 C1016 1.358 . S
C1013 H1019 0.930 . S
C1014 C1012 1.353 . S
C1014 C1017 1.348 . S
C1014 H1052 0.929 . S
N1015 Li970 1.990 . S
N1015 C1012 1.314 . S
N1015 C1013 1.279 . S
C1016 C1013 1.358 . S
C1016 C1017 1.356 . S
C1016 H1053 0.930 . S
C1017 C1014 1.348 . S
C1017 C1016 1.356 . S
H1018 C1012 0.930 . S
H1019 C1013 0.930 . S
C1020 N1021 1.314 . S
C1020 C1022 1.353 . S
C1020 H1026 0.930 . S
N1021 Li971 1.990 . S
N1021 C1020 1.314 . S
N1021 C1024 1.279 . S
C1022 C1020 1.353 . S
C1022 C1025 1.348 . S
C1022 H1054 0.929 . S
C1023 C1024 1.358 . S
C1023 C1025 1.356 . S
C1023 H1055 0.930 . S
C1024 N1021 1.279 . S
C1024 C1023 1.358 . S
C1024 H1027 0.930 . S
C1025 C1022 1.348 . S
C1025 C1023 1.356 . S
H1026 C1020 0.930 . S
H1027 C1024 0.930 . S
O1028 Li968 1.956 . S
O1028 Li969 1.970 . S
O1028 Li970 1.961 . S
O1028 C972 1.325 . S
O1029 Li968 1.970 . S
O1029 Li969 1.956 . S
O1029 Li971 1.961 . S
O1029 C978 1.325 . S
O1030 Li968 1.961 . S
O1030 Li970 1.956 . S
O1030 Li971 1.970 . S
O1030 C1000 1.325 . S
O1031 Li969 1.961 . S
O1031 Li970 1.970 . S
O1031 Li971 1.956 . S
O1031 C1006 1.325 . S
H1032 C974 0.929 . S
H1033 C975 0.930 . S
H1034 C976 0.930 . S
H1035 C977 0.930 . S
H1036 C979 0.930 . S
H1037 C981 0.929 . S
H1038 C982 0.930 . S
H1039 C983 0.930 . S
H1040 C986 0.930 . S
H1041 C989 0.929 . S
H1042 C994 0.929 . S
H1043 C995 0.930 . S
H1044 C1002 0.929 . S
H1045 C1003 0.930 . S
H1046 C1004 0.930 . S
H1047 C1005 0.930 . S
H1048 C1007 0.929 . S
H1049 C1008 0.930 . S
H1050 C1009 0.930 . S
H1051 C1010 0.930 . S
H1052 C1014 0.929 . S
H1053 C1016 0.930 . S
H1054 C1022 0.929 . S
H1055 C1023 0.930 . S
Li1056 N1073 1.990 . S
Li1056 O1116 1.956 . S
Li1056 O1117 1.970 . S
Li1056 O1118 1.961 . S
Li1057 N1081 1.990 . S
Li1057 O1116 1.970 . S
Li1057 O1117 1.956 . S
Li1057 O1119 1.961 . S
Li1058 N1103 1.990 . S
Li1058 O1116 1.961 . S
Li1058 O1118 1.956 . S
Li1058 O1119 1.970 . S
Li1059 N1109 1.990 . S
Li1059 O1117 1.961 . S
Li1059 O1118 1.970 . S
Li1059 O1119 1.956 . S
C1060 C1062 1.348 . S
C1060 C1063 1.356 . S
C1060 O1116 1.325 . S
N1061 C1064 1.314 . S
N1061 C1065 1.279 . S
C1062 C1060 1.348 . S
C1062 C1064 1.353 . S
C1062 H1120 0.929 . S
C1063 C1060 1.356 . S
C1063 C1065 1.358 . S
C1063 H1121 0.930 . S
C1064 N1061 1.314 . S
C1064 C1062 1.353 . S
C1064 H1122 0.930 . S
C1065 N1061 1.279 . S
C1065 C1063 1.358 . S
C1065 H1123 0.930 . S
C1066 C1069 1.348 . S
C1066 C1070 1.356 . S
C1066 O1117 1.325 . S
C1067 N1068 1.279 . S
C1067 C1070 1.358 . S
C1067 H1124 0.930 . S
N1068 C1067 1.279 . S
N1068 C1071 1.314 . S
C1069 C1066 1.348 . S
C1069 C1071 1.353 . S
C1069 H1125 0.929 . S
C1070 C1066 1.356 . S
C1070 C1067 1.358 . S
C1070 H1126 0.930 . S
C1071 N1068 1.314 . S
C1071 C1069 1.353 . S
C1071 H1127 0.930 . S
C1072 N1073 1.314 . S
C1072 C1077 1.353 . S
C1072 H1078 0.930 . S
N1073 Li1056 1.990 . S
N1073 C1072 1.314 . S
N1073 C1075 1.279 . S
C1074 C1075 1.358 . S
C1074 C1076 1.356 . S
C1074 H1128 0.930 . S
C1075 N1073 1.279 . S
C1075 C1074 1.358 . S
C1075 H1079 0.930 . S
C1076 C1074 1.356 . S
C1076 C1077 1.348 . S
C1077 C1072 1.353 . S
C1077 C1076 1.348 . S
C1077 H1129 0.929 . S
H1078 C1072 0.930 . S
H1079 C1075 0.930 . S
C1080 N1081 1.314 . S
C1080 C1082 1.353 . S
C1080 H1086 0.930 . S
N1081 Li1057 1.990 . S
N1081 C1080 1.314 . S
N1081 C1084 1.279 . S
C1082 C1080 1.353 . S
C1082 C1085 1.348 . S
C1082 H1130 0.929 . S
C1083 C1084 1.358 . S
C1083 C1085 1.356 . S
C1083 H1131 0.930 . S
C1084 N1081 1.279 . S
C1084 C1083 1.358 . S
C1084 H1087 0.930 . S
C1085 C1082 1.348 . S
C1085 C1083 1.356 . S
H1086 C1080 0.930 . S
H1087 C1084 0.930 . S
C1088 C1090 1.348 . S
C1088 C1091 1.356 . S
C1088 O1118 1.325 . S
N1089 C1092 1.314 . S
N1089 C1093 1.279 . S
C1090 C1088 1.348 . S
C1090 C1092 1.353 . S
C1090 H1132 0.929 . S
C1091 C1088 1.356 . S
C1091 C1093 1.358 . S
C1091 H1133 0.930 . S
C1092 N1089 1.314 . S
C1092 C1090 1.353 . S
C1092 H1134 0.930 . S
C1093 N1089 1.279 . S
C1093 C1091 1.358 . S
C1093 H1135 0.930 . S
C1094 C1095 1.348 . S
C1094 C1096 1.356 . S
C1094 O1119 1.325 . S
C1095 C1094 1.348 . S
C1095 C1097 1.353 . S
C1095 H1136 0.929 . S
C1096 C1094 1.356 . S
C1096 C1098 1.358 . S
C1096 H1137 0.930 . S
C1097 C1095 1.353 . S
C1097 N1099 1.314 . S
C1097 H1138 0.930 . S
C1098 C1096 1.358 . S
C1098 N1099 1.279 . S
C1098 H1139 0.930 . S
N1099 C1097 1.314 . S
N1099 C1098 1.279 . S
C1100 C1102 1.353 . S
C1100 N1103 1.314 . S
C1100 H1106 0.930 . S
C1101 N1103 1.279 . S
C1101 C1104 1.358 . S
C1101 H1107 0.930 . S
C1102 C1100 1.353 . S
C1102 C1105 1.348 . S
C1102 H1140 0.929 . S
N1103 Li1058 1.990 . S
N1103 C1100 1.314 . S
N1103 C1101 1.279 . S
C1104 C1101 1.358 . S
C1104 C1105 1.356 . S
C1104 H1141 0.930 . S
C1105 C1102 1.348 . S
C1105 C1104 1.356 . S
H1106 C1100 0.930 . S
H1107 C1101 0.930 . S
C1108 N1109 1.314 . S
C1108 C1110 1.353 . S
C1108 H1114 0.930 . S
N1109 Li1059 1.990 . S
N1109 C1108 1.314 . S
N1109 C1112 1.279 . S
C1110 C1108 1.353 . S
C1110 C1113 1.348 . S
C1110 H1142 0.929 . S
C1111 C1112 1.358 . S
C1111 C1113 1.356 . S
C1111 H1143 0.930 . S
C1112 N1109 1.279 . S
C1112 C1111 1.358 . S
C1112 H1115 0.930 . S
C1113 C1110 1.348 . S
C1113 C1111 1.356 . S
H1114 C1108 0.930 . S
H1115 C1112 0.930 . S
O1116 Li1056 1.956 . S
O1116 Li1057 1.970 . S
O1116 Li1058 1.961 . S
O1116 C1060 1.325 . S
O1117 Li1056 1.970 . S
O1117 Li1057 1.956 . S
O1117 Li1059 1.961 . S
O1117 C1066 1.325 . S
O1118 Li1056 1.961 . S
O1118 Li1058 1.956 . S
O1118 Li1059 1.970 . S
O1118 C1088 1.325 . S
O1119 Li1057 1.961 . S
O1119 Li1058 1.970 . S
O1119 Li1059 1.956 . S
O1119 C1094 1.325 . S
H1120 C1062 0.929 . S
H1121 C1063 0.930 . S
H1122 C1064 0.930 . S
H1123 C1065 0.930 . S
H1124 C1067 0.930 . S
H1125 C1069 0.929 . S
H1126 C1070 0.930 . S
H1127 C1071 0.930 . S
H1128 C1074 0.930 . S
H1129 C1077 0.929 . S
H1130 C1082 0.929 . S
H1131 C1083 0.930 . S
H1132 C1090 0.929 . S
H1133 C1091 0.930 . S
H1134 C1092 0.930 . S
H1135 C1093 0.930 . S
H1136 C1095 0.929 . S
H1137 C1096 0.930 . S
H1138 C1097 0.930 . S
H1139 C1098 0.930 . S
H1140 C1102 0.929 . S
H1141 C1104 0.930 . S
H1142 C1110 0.929 . S
H1143 C1111 0.930 . S
Li1144 N1161 1.990 . S
Li1144 O1204 1.956 . S
Li1144 O1205 1.970 . S
Li1144 O1206 1.961 . S
Li1145 N1169 1.990 . S
Li1145 O1204 1.970 . S
Li1145 O1205 1.956 . S
Li1145 O1207 1.961 . S
Li1146 N1191 1.990 . S
Li1146 O1204 1.961 . S
Li1146 O1206 1.956 . S
Li1146 O1207 1.970 . S
Li1147 N1197 1.990 . S
Li1147 O1205 1.961 . S
Li1147 O1206 1.970 . S
Li1147 O1207 1.956 . S
C1148 C1150 1.348 . S
C1148 C1151 1.356 . S
C1148 O1204 1.325 . S
N1149 C1152 1.314 . S
N1149 C1153 1.279 . S
C1150 C1148 1.348 . S
C1150 C1152 1.353 . S
C1150 H1208 0.929 . S
C1151 C1148 1.356 . S
C1151 C1153 1.358 . S
C1151 H1209 0.930 . S
C1152 N1149 1.314 . S
C1152 C1150 1.353 . S
C1152 H1210 0.930 . S
C1153 N1149 1.279 . S
C1153 C1151 1.358 . S
C1153 H1211 0.930 . S
C1154 C1157 1.348 . S
C1154 C1158 1.356 . S
C1154 O1205 1.325 . S
C1155 N1156 1.279 . S
C1155 C1158 1.358 . S
C1155 H1212 0.930 . S
N1156 C1155 1.279 . S
N1156 C1159 1.314 . S
C1157 C1154 1.348 . S
C1157 C1159 1.353 . S
C1157 H1213 0.929 . S
C1158 C1154 1.356 . S
C1158 C1155 1.358 . S
C1158 H1214 0.930 . S
C1159 N1156 1.314 . S
C1159 C1157 1.353 . S
C1159 H1215 0.930 . S
C1160 N1161 1.314 . S
C1160 C1165 1.353 . S
C1160 H1166 0.930 . S
N1161 Li1144 1.990 . S
N1161 C1160 1.314 . S
N1161 C1163 1.279 . S
C1162 C1163 1.358 . S
C1162 C1164 1.356 . S
C1162 H1216 0.930 . S
C1163 N1161 1.279 . S
C1163 C1162 1.358 . S
C1163 H1167 0.930 . S
C1164 C1162 1.356 . S
C1164 C1165 1.348 . S
C1165 C1160 1.353 . S
C1165 C1164 1.348 . S
C1165 H1217 0.929 . S
H1166 C1160 0.930 . S
H1167 C1163 0.930 . S
C1168 N1169 1.314 . S
C1168 C1170 1.353 . S
C1168 H1174 0.930 . S
N1169 Li1145 1.990 . S
N1169 C1168 1.314 . S
N1169 C1172 1.279 . S
C1170 C1168 1.353 . S
C1170 C1173 1.348 . S
C1170 H1218 0.929 . S
C1171 C1172 1.358 . S
C1171 C1173 1.356 . S
C1171 H1219 0.930 . S
C1172 N1169 1.279 . S
C1172 C1171 1.358 . S
C1172 H1175 0.930 . S
C1173 C1170 1.348 . S
C1173 C1171 1.356 . S
H1174 C1168 0.930 . S
H1175 C1172 0.930 . S
C1176 C1178 1.348 . S
C1176 C1179 1.356 . S
C1176 O1206 1.325 . S
N1177 C1180 1.314 . S
N1177 C1181 1.279 . S
C1178 C1176 1.348 . S
C1178 C1180 1.353 . S
C1178 H1220 0.929 . S
C1179 C1176 1.356 . S
C1179 C1181 1.358 . S
C1179 H1221 0.930 . S
C1180 N1177 1.314 . S
C1180 C1178 1.353 . S
C1180 H1222 0.930 . S
C1181 N1177 1.279 . S
C1181 C1179 1.358 . S
C1181 H1223 0.930 . S
C1182 C1183 1.348 . S
C1182 C1184 1.356 . S
C1182 O1207 1.325 . S
C1183 C1182 1.348 . S
C1183 C1185 1.353 . S
C1183 H1224 0.929 . S
C1184 C1182 1.356 . S
C1184 C1186 1.358 . S
C1184 H1225 0.930 . S
C1185 C1183 1.353 . S
C1185 N1187 1.314 . S
C1185 H1226 0.930 . S
C1186 C1184 1.358 . S
C1186 N1187 1.279 . S
C1186 H1227 0.930 . S
N1187 C1185 1.314 . S
N1187 C1186 1.279 . S
C1188 C1190 1.353 . S
C1188 N1191 1.314 . S
C1188 H1194 0.930 . S
C1189 N1191 1.279 . S
C1189 C1192 1.358 . S
C1189 H1195 0.930 . S
C1190 C1188 1.353 . S
C1190 C1193 1.348 . S
C1190 H1228 0.929 . S
N1191 Li1146 1.990 . S
N1191 C1188 1.314 . S
N1191 C1189 1.279 . S
C1192 C1189 1.358 . S
C1192 C1193 1.356 . S
C1192 H1229 0.930 . S
C1193 C1190 1.348 . S
C1193 C1192 1.356 . S
H1194 C1188 0.930 . S
H1195 C1189 0.930 . S
C1196 N1197 1.314 . S
C1196 C1198 1.353 . S
C1196 H1202 0.930 . S
N1197 Li1147 1.990 . S
N1197 C1196 1.314 . S
N1197 C1200 1.279 . S
C1198 C1196 1.353 . S
C1198 C1201 1.348 . S
C1198 H1230 0.929 . S
C1199 C1200 1.358 . S
C1199 C1201 1.356 . S
C1199 H1231 0.930 . S
C1200 N1197 1.279 . S
C1200 C1199 1.358 . S
C1200 H1203 0.930 . S
C1201 C1198 1.348 . S
C1201 C1199 1.356 . S
H1202 C1196 0.930 . S
H1203 C1200 0.930 . S
O1204 Li1144 1.956 . S
O1204 Li1145 1.970 . S
O1204 Li1146 1.961 . S
O1204 C1148 1.325 . S
O1205 Li1144 1.970 . S
O1205 Li1145 1.956 . S
O1205 Li1147 1.961 . S
O1205 C1154 1.325 . S
O1206 Li1144 1.961 . S
O1206 Li1146 1.956 . S
O1206 Li1147 1.970 . S
O1206 C1176 1.325 . S
O1207 Li1145 1.961 . S
O1207 Li1146 1.970 . S
O1207 Li1147 1.956 . S
O1207 C1182 1.325 . S
H1208 C1150 0.929 . S
H1209 C1151 0.930 . S
H1210 C1152 0.930 . S
H1211 C1153 0.930 . S
H1212 C1155 0.930 . S
H1213 C1157 0.929 . S
H1214 C1158 0.930 . S
H1215 C1159 0.930 . S
H1216 C1162 0.930 . S
H1217 C1165 0.929 . S
H1218 C1170 0.929 . S
H1219 C1171 0.930 . S
H1220 C1178 0.929 . S
H1221 C1179 0.930 . S
H1222 C1180 0.930 . S
H1223 C1181 0.930 . S
H1224 C1183 0.929 . S
H1225 C1184 0.930 . S
H1226 C1185 0.930 . S
H1227 C1186 0.930 . S
H1228 C1190 0.929 . S
H1229 C1192 0.930 . S
H1230 C1198 0.929 . S
H1231 C1199 0.930 . S
Li1232 N1249 1.990 . S
Li1232 O1292 1.956 . S
Li1232 O1293 1.970 . S
Li1232 O1294 1.961 . S
Li1233 N1257 1.990 . S
Li1233 O1292 1.970 . S
Li1233 O1293 1.956 . S
Li1233 O1295 1.961 . S
Li1234 N1279 1.990 . S
Li1234 O1292 1.961 . S
Li1234 O1294 1.956 . S
Li1234 O1295 1.970 . S
Li1235 N1285 1.990 . S
Li1235 O1293 1.961 . S
Li1235 O1294 1.970 . S
Li1235 O1295 1.956 . S
C1236 C1238 1.348 . S
C1236 C1239 1.356 . S
C1236 O1292 1.325 . S
N1237 C1240 1.314 . S
N1237 C1241 1.279 . S
C1238 C1236 1.348 . S
C1238 C1240 1.353 . S
C1238 H1296 0.929 . S
C1239 C1236 1.356 . S
C1239 C1241 1.358 . S
C1239 H1297 0.930 . S
C1240 N1237 1.314 . S
C1240 C1238 1.353 . S
C1240 H1298 0.930 . S
C1241 N1237 1.279 . S
C1241 C1239 1.358 . S
C1241 H1299 0.930 . S
C1242 C1245 1.348 . S
C1242 C1246 1.356 . S
C1242 O1293 1.325 . S
C1243 N1244 1.279 . S
C1243 C1246 1.358 . S
C1243 H1300 0.930 . S
N1244 C1243 1.279 . S
N1244 C1247 1.314 . S
C1245 C1242 1.348 . S
C1245 C1247 1.353 . S
C1245 H1301 0.929 . S
C1246 C1242 1.356 . S
C1246 C1243 1.358 . S
C1246 H1302 0.930 . S
C1247 N1244 1.314 . S
C1247 C1245 1.353 . S
C1247 H1303 0.930 . S
C1248 N1249 1.314 . S
C1248 C1253 1.353 . S
C1248 H1254 0.930 . S
N1249 Li1232 1.990 . S
N1249 C1248 1.314 . S
N1249 C1251 1.279 . S
C1250 C1251 1.358 . S
C1250 C1252 1.356 . S
C1250 H1304 0.930 . S
C1251 N1249 1.279 . S
C1251 C1250 1.358 . S
C1251 H1255 0.930 . S
C1252 C1250 1.356 . S
C1252 C1253 1.348 . S
C1253 C1248 1.353 . S
C1253 C1252 1.348 . S
C1253 H1305 0.929 . S
H1254 C1248 0.930 . S
H1255 C1251 0.930 . S
C1256 N1257 1.314 . S
C1256 C1258 1.353 . S
C1256 H1262 0.930 . S
N1257 Li1233 1.990 . S
N1257 C1256 1.314 . S
N1257 C1260 1.279 . S
C1258 C1256 1.353 . S
C1258 C1261 1.348 . S
C1258 H1306 0.929 . S
C1259 C1260 1.358 . S
C1259 C1261 1.356 . S
C1259 H1307 0.930 . S
C1260 N1257 1.279 . S
C1260 C1259 1.358 . S
C1260 H1263 0.930 . S
C1261 C1258 1.348 . S
C1261 C1259 1.356 . S
H1262 C1256 0.930 . S
H1263 C1260 0.930 . S
C1264 C1266 1.348 . S
C1264 C1267 1.356 . S
C1264 O1294 1.325 . S
N1265 C1268 1.314 . S
N1265 C1269 1.279 . S
C1266 C1264 1.348 . S
C1266 C1268 1.353 . S
C1266 H1308 0.929 . S
C1267 C1264 1.356 . S
C1267 C1269 1.358 . S
C1267 H1309 0.930 . S
C1268 N1265 1.314 . S
C1268 C1266 1.353 . S
C1268 H1310 0.930 . S
C1269 N1265 1.279 . S
C1269 C1267 1.358 . S
C1269 H1311 0.930 . S
C1270 C1271 1.348 . S
C1270 C1272 1.356 . S
C1270 O1295 1.325 . S
C1271 C1270 1.348 . S
C1271 C1273 1.353 . S
C1271 H1312 0.929 . S
C1272 C1270 1.356 . S
C1272 C1274 1.358 . S
C1272 H1313 0.930 . S
C1273 C1271 1.353 . S
C1273 N1275 1.314 . S
C1273 H1314 0.930 . S
C1274 C1272 1.358 . S
C1274 N1275 1.279 . S
C1274 H1315 0.930 . S
N1275 C1273 1.314 . S
N1275 C1274 1.279 . S
C1276 C1278 1.353 . S
C1276 N1279 1.314 . S
C1276 H1282 0.930 . S
C1277 N1279 1.279 . S
C1277 C1280 1.358 . S
C1277 H1283 0.930 . S
C1278 C1276 1.353 . S
C1278 C1281 1.348 . S
C1278 H1316 0.929 . S
N1279 Li1234 1.990 . S
N1279 C1276 1.314 . S
N1279 C1277 1.279 . S
C1280 C1277 1.358 . S
C1280 C1281 1.356 . S
C1280 H1317 0.930 . S
C1281 C1278 1.348 . S
C1281 C1280 1.356 . S
H1282 C1276 0.930 . S
H1283 C1277 0.930 . S
C1284 N1285 1.314 . S
C1284 C1286 1.353 . S
C1284 H1290 0.930 . S
N1285 Li1235 1.990 . S
N1285 C1284 1.314 . S
N1285 C1288 1.279 . S
C1286 C1284 1.353 . S
C1286 C1289 1.348 . S
C1286 H1318 0.929 . S
C1287 C1288 1.358 . S
C1287 C1289 1.356 . S
C1287 H1319 0.930 . S
C1288 N1285 1.279 . S
C1288 C1287 1.358 . S
C1288 H1291 0.930 . S
C1289 C1286 1.348 . S
C1289 C1287 1.356 . S
H1290 C1284 0.930 . S
H1291 C1288 0.930 . S
O1292 Li1232 1.956 . S
O1292 Li1233 1.970 . S
O1292 Li1234 1.961 . S
O1292 C1236 1.325 . S
O1293 Li1232 1.970 . S
O1293 Li1233 1.956 . S
O1293 Li1235 1.961 . S
O1293 C1242 1.325 . S
O1294 Li1232 1.961 . S
O1294 Li1234 1.956 . S
O1294 Li1235 1.970 . S
O1294 C1264 1.325 . S
O1295 Li1233 1.961 . S
O1295 Li1234 1.970 . S
O1295 Li1235 1.956 . S
O1295 C1270 1.325 . S
H1296 C1238 0.929 . S
H1297 C1239 0.930 . S
H1298 C1240 0.930 . S
H1299 C1241 0.930 . S
H1300 C1243 0.930 . S
H1301 C1245 0.929 . S
H1302 C1246 0.930 . S
H1303 C1247 0.930 . S
H1304 C1250 0.930 . S
H1305 C1253 0.929 . S
H1306 C1258 0.929 . S
H1307 C1259 0.930 . S
H1308 C1266 0.929 . S
H1309 C1267 0.930 . S
H1310 C1268 0.930 . S
H1311 C1269 0.930 . S
H1312 C1271 0.929 . S
H1313 C1272 0.930 . S
H1314 C1273 0.930 . S
H1315 C1274 0.930 . S
H1316 C1278 0.929 . S
H1317 C1280 0.930 . S
H1318 C1286 0.929 . S
H1319 C1287 0.930 . S
Li1320 N1337 1.990 . S
Li1320 O1380 1.956 . S
Li1320 O1381 1.970 . S
Li1320 O1382 1.961 . S
Li1321 N1345 1.990 . S
Li1321 O1380 1.970 . S
Li1321 O1381 1.956 . S
Li1321 O1383 1.961 . S
Li1322 N1367 1.990 . S
Li1322 O1380 1.961 . S
Li1322 O1382 1.956 . S
Li1322 O1383 1.970 . S
Li1323 N1373 1.990 . S
Li1323 O1381 1.961 . S
Li1323 O1382 1.970 . S
Li1323 O1383 1.956 . S
C1324 C1326 1.348 . S
C1324 C1327 1.356 . S
C1324 O1380 1.325 . S
N1325 C1328 1.314 . S
N1325 C1329 1.279 . S
C1326 C1324 1.348 . S
C1326 C1328 1.353 . S
C1326 H1384 0.929 . S
C1327 C1324 1.356 . S
C1327 C1329 1.358 . S
C1327 H1385 0.930 . S
C1328 N1325 1.314 . S
C1328 C1326 1.353 . S
C1328 H1386 0.930 . S
C1329 N1325 1.279 . S
C1329 C1327 1.358 . S
C1329 H1387 0.930 . S
C1330 C1333 1.348 . S
C1330 C1334 1.356 . S
C1330 O1381 1.325 . S
C1331 N1332 1.279 . S
C1331 C1334 1.358 . S
C1331 H1388 0.930 . S
N1332 C1331 1.279 . S
N1332 C1335 1.314 . S
C1333 C1330 1.348 . S
C1333 C1335 1.353 . S
C1333 H1389 0.929 . S
C1334 C1330 1.356 . S
C1334 C1331 1.358 . S
C1334 H1390 0.930 . S
C1335 N1332 1.314 . S
C1335 C1333 1.353 . S
C1335 H1391 0.930 . S
C1336 N1337 1.314 . S
C1336 C1341 1.353 . S
C1336 H1342 0.930 . S
N1337 Li1320 1.990 . S
N1337 C1336 1.314 . S
N1337 C1339 1.279 . S
C1338 C1339 1.358 . S
C1338 C1340 1.356 . S
C1338 H1392 0.930 . S
C1339 N1337 1.279 . S
C1339 C1338 1.358 . S
C1339 H1343 0.930 . S
C1340 C1338 1.356 . S
C1340 C1341 1.348 . S
C1341 C1336 1.353 . S
C1341 C1340 1.348 . S
C1341 H1393 0.929 . S
H1342 C1336 0.930 . S
H1343 C1339 0.930 . S
C1344 N1345 1.314 . S
C1344 C1346 1.353 . S
C1344 H1350 0.930 . S
N1345 Li1321 1.990 . S
N1345 C1344 1.314 . S
N1345 C1348 1.279 . S
C1346 C1344 1.353 . S
C1346 C1349 1.348 . S
C1346 H1394 0.929 . S
C1347 C1348 1.358 . S
C1347 C1349 1.356 . S
C1347 H1395 0.930 . S
C1348 N1345 1.279 . S
C1348 C1347 1.358 . S
C1348 H1351 0.930 . S
C1349 C1346 1.348 . S
C1349 C1347 1.356 . S
H1350 C1344 0.930 . S
H1351 C1348 0.930 . S
C1352 C1354 1.348 . S
C1352 C1355 1.356 . S
C1352 O1382 1.325 . S
N1353 C1356 1.314 . S
N1353 C1357 1.279 . S
C1354 C1352 1.348 . S
C1354 C1356 1.353 . S
C1354 H1396 0.929 . S
C1355 C1352 1.356 . S
C1355 C1357 1.358 . S
C1355 H1397 0.930 . S
C1356 N1353 1.314 . S
C1356 C1354 1.353 . S
C1356 H1398 0.930 . S
C1357 N1353 1.279 . S
C1357 C1355 1.358 . S
C1357 H1399 0.930 . S
C1358 C1359 1.348 . S
C1358 C1360 1.356 . S
C1358 O1383 1.325 . S
C1359 C1358 1.348 . S
C1359 C1361 1.353 . S
C1359 H1400 0.929 . S
C1360 C1358 1.356 . S
C1360 C1362 1.358 . S
C1360 H1401 0.930 . S
C1361 C1359 1.353 . S
C1361 N1363 1.314 . S
C1361 H1402 0.930 . S
C1362 C1360 1.358 . S
C1362 N1363 1.279 . S
C1362 H1403 0.930 . S
N1363 C1361 1.314 . S
N1363 C1362 1.279 . S
C1364 C1366 1.353 . S
C1364 N1367 1.314 . S
C1364 H1370 0.930 . S
C1365 N1367 1.279 . S
C1365 C1368 1.358 . S
C1365 H1371 0.930 . S
C1366 C1364 1.353 . S
C1366 C1369 1.348 . S
C1366 H1404 0.929 . S
N1367 Li1322 1.990 . S
N1367 C1364 1.314 . S
N1367 C1365 1.279 . S
C1368 C1365 1.358 . S
C1368 C1369 1.356 . S
C1368 H1405 0.930 . S
C1369 C1366 1.348 . S
C1369 C1368 1.356 . S
H1370 C1364 0.930 . S
H1371 C1365 0.930 . S
C1372 N1373 1.314 . S
C1372 C1374 1.353 . S
C1372 H1378 0.930 . S
N1373 Li1323 1.990 . S
N1373 C1372 1.314 . S
N1373 C1376 1.279 . S
C1374 C1372 1.353 . S
C1374 C1377 1.348 . S
C1374 H1406 0.929 . S
C1375 C1376 1.358 . S
C1375 C1377 1.356 . S
C1375 H1407 0.930 . S
C1376 N1373 1.279 . S
C1376 C1375 1.358 . S
C1376 H1379 0.930 . S
C1377 C1374 1.348 . S
C1377 C1375 1.356 . S
H1378 C1372 0.930 . S
H1379 C1376 0.930 . S
O1380 Li1320 1.956 . S
O1380 Li1321 1.970 . S
O1380 Li1322 1.961 . S
O1380 C1324 1.325 . S
O1381 Li1320 1.970 . S
O1381 Li1321 1.956 . S
O1381 Li1323 1.961 . S
O1381 C1330 1.325 . S
O1382 Li1320 1.961 . S
O1382 Li1322 1.956 . S
O1382 Li1323 1.970 . S
O1382 C1352 1.325 . S
O1383 Li1321 1.961 . S
O1383 Li1322 1.970 . S
O1383 Li1323 1.956 . S
O1383 C1358 1.325 . S
H1384 C1326 0.929 . S
H1385 C1327 0.930 . S
H1386 C1328 0.930 . S
H1387 C1329 0.930 . S
H1388 C1331 0.930 . S
H1389 C1333 0.929 . S
H1390 C1334 0.930 . S
H1391 C1335 0.930 . S
H1392 C1338 0.930 . S
H1393 C1341 0.929 . S
H1394 C1346 0.929 . S
H1395 C1347 0.930 . S
H1396 C1354 0.929 . S
H1397 C1355 0.930 . S
H1398 C1356 0.930 . S
H1399 C1357 0.930 . S
H1400 C1359 0.929 . S
H1401 C1360 0.930 . S
H1402 C1361 0.930 . S
H1403 C1362 0.930 . S
H1404 C1366 0.929 . S
H1405 C1368 0.930 . S
H1406 C1374 0.929 . S
H1407 C1375 0.930 . S
C1408 C1409 1.363 . S
C1408 C1414 1.379 . S
C1408 N1416 1.356 . S
C1409 C1408 1.363 . S
C1409 C1415 1.363 . S
C1410 C1411 1.363 . S
C1410 C1415 1.379 . S
C1410 N1417 1.356 . S
C1411 C1410 1.363 . S
C1411 C1414 1.363 . S
N1412 C1414 1.356 . S
N1412 H1424 0.984 . S
N1412 H1425 0.985 . S
N1413 C1415 1.356 . S
N1413 H1418 0.984 . S
N1413 H1419 0.985 . S
C1414 C1408 1.379 . S
C1414 C1411 1.363 . S
C1414 N1412 1.356 . S
C1415 C1409 1.363 . S
C1415 C1410 1.379 . S
C1415 N1413 1.356 . S
N1416 C1408 1.356 . S
N1416 H1422 0.984 . S
N1416 H1423 0.984 . S
N1417 C1410 1.356 . S
N1417 H1420 0.984 . S
N1417 H1421 0.985 . S
H1418 N1413 0.984 . S
H1419 N1413 0.985 . S
H1420 N1417 0.984 . S
H1421 N1417 0.985 . S
H1422 N1416 0.984 . S
H1423 N1416 0.984 . S
H1424 N1412 0.984 . S
H1425 N1412 0.985 . S
C1426 C1427 1.363 . S
C1426 C1432 1.379 . S
C1426 N1434 1.356 . S
C1427 C1426 1.363 . S
C1427 C1433 1.363 . S
C1428 C1429 1.363 . S
C1428 C1433 1.379 . S
C1428 N1435 1.356 . S
C1429 C1428 1.363 . S
C1429 C1432 1.363 . S
N1430 C1432 1.356 . S
N1430 H1442 0.984 . S
N1430 H1443 0.985 . S
N1431 C1433 1.356 . S
N1431 H1436 0.984 . S
N1431 H1437 0.985 . S
C1432 C1426 1.379 . S
C1432 C1429 1.363 . S
C1432 N1430 1.356 . S
C1433 C1427 1.363 . S
C1433 C1428 1.379 . S
C1433 N1431 1.356 . S
N1434 C1426 1.356 . S
N1434 H1440 0.984 . S
N1434 H1441 0.984 . S
N1435 C1428 1.356 . S
N1435 H1438 0.984 . S
N1435 H1439 0.985 . S
H1436 N1431 0.984 . S
H1437 N1431 0.985 . S
H1438 N1435 0.984 . S
H1439 N1435 0.985 . S
H1440 N1434 0.984 . S
H1441 N1434 0.984 . S
H1442 N1430 0.984 . S
H1443 N1430 0.985 . S
C1444 C1445 1.363 . S
C1444 C1450 1.379 . S
C1444 N1452 1.356 . S
C1445 C1444 1.363 . S
C1445 C1451 1.363 . S
C1446 C1447 1.363 . S
C1446 C1451 1.379 . S
C1446 N1453 1.356 . S
C1447 C1446 1.363 . S
C1447 C1450 1.363 . S
N1448 C1450 1.356 . S
N1448 H1460 0.984 . S
N1448 H1461 0.985 . S
N1449 C1451 1.356 . S
N1449 H1454 0.984 . S
N1449 H1455 0.985 . S
C1450 C1444 1.379 . S
C1450 C1447 1.363 . S
C1450 N1448 1.356 . S
C1451 C1445 1.363 . S
C1451 C1446 1.379 . S
C1451 N1449 1.356 . S
N1452 C1444 1.356 . S
N1452 H1458 0.984 . S
N1452 H1459 0.984 . S
N1453 C1446 1.356 . S
N1453 H1456 0.984 . S
N1453 H1457 0.985 . S
H1454 N1449 0.984 . S
H1455 N1449 0.985 . S
H1456 N1453 0.984 . S
H1457 N1453 0.985 . S
H1458 N1452 0.984 . S
H1459 N1452 0.984 . S
H1460 N1448 0.984 . S
H1461 N1448 0.985 . S
C1462 C1463 1.363 . S
C1462 C1468 1.379 . S
C1462 N1470 1.356 . S
C1463 C1462 1.363 . S
C1463 C1469 1.363 . S
C1464 C1465 1.363 . S
C1464 C1469 1.379 . S
C1464 N1471 1.356 . S
C1465 C1464 1.363 . S
C1465 C1468 1.363 . S
N1466 C1468 1.356 . S
N1466 H1478 0.984 . S
N1466 H1479 0.985 . S
N1467 C1469 1.356 . S
N1467 H1472 0.984 . S
N1467 H1473 0.985 . S
C1468 C1462 1.379 . S
C1468 C1465 1.363 . S
C1468 N1466 1.356 . S
C1469 C1463 1.363 . S
C1469 C1464 1.379 . S
C1469 N1467 1.356 . S
N1470 C1462 1.356 . S
N1470 H1476 0.984 . S
N1470 H1477 0.984 . S
N1471 C1464 1.356 . S
N1471 H1474 0.984 . S
N1471 H1475 0.985 . S
H1472 N1467 0.984 . S
H1473 N1467 0.985 . S
H1474 N1471 0.984 . S
H1475 N1471 0.985 . S
H1476 N1470 0.984 . S
H1477 N1470 0.984 . S
H1478 N1466 0.984 . S
H1479 N1466 0.985 . S
C1480 C1481 1.363 . S
C1480 C1486 1.379 . S
C1480 N1488 1.356 . S
C1481 C1480 1.363 . S
C1481 C1487 1.363 . S
C1482 C1483 1.363 . S
C1482 C1487 1.379 . S
C1482 N1489 1.356 . S
C1483 C1482 1.363 . S
C1483 C1486 1.363 . S
N1484 C1486 1.356 . S
N1484 H1496 0.984 . S
N1484 H1497 0.985 . S
N1485 C1487 1.356 . S
N1485 H1490 0.984 . S
N1485 H1491 0.985 . S
C1486 C1480 1.379 . S
C1486 C1483 1.363 . S
C1486 N1484 1.356 . S
C1487 C1481 1.363 . S
C1487 C1482 1.379 . S
C1487 N1485 1.356 . S
N1488 C1480 1.356 . S
N1488 H1494 0.984 . S
N1488 H1495 0.984 . S
N1489 C1482 1.356 . S
N1489 H1492 0.984 . S
N1489 H1493 0.985 . S
H1490 N1485 0.984 . S
H1491 N1485 0.985 . S
H1492 N1489 0.984 . S
H1493 N1489 0.985 . S
H1494 N1488 0.984 . S
H1495 N1488 0.984 . S
H1496 N1484 0.984 . S
H1497 N1484 0.985 . S
C1498 C1499 1.363 . S
C1498 C1504 1.379 . S
C1498 N1506 1.356 . S
C1499 C1498 1.363 . S
C1499 C1505 1.363 . S
C1500 C1501 1.363 . S
C1500 C1505 1.379 . S
C1500 N1507 1.356 . S
C1501 C1500 1.363 . S
C1501 C1504 1.363 . S
N1502 C1504 1.356 . S
N1502 H1514 0.984 . S
N1502 H1515 0.985 . S
N1503 C1505 1.356 . S
N1503 H1508 0.984 . S
N1503 H1509 0.985 . S
C1504 C1498 1.379 . S
C1504 C1501 1.363 . S
C1504 N1502 1.356 . S
C1505 C1499 1.363 . S
C1505 C1500 1.379 . S
C1505 N1503 1.356 . S
N1506 C1498 1.356 . S
N1506 H1512 0.984 . S
N1506 H1513 0.984 . S
N1507 C1500 1.356 . S
N1507 H1510 0.984 . S
N1507 H1511 0.985 . S
H1508 N1503 0.984 . S
H1509 N1503 0.985 . S
H1510 N1507 0.984 . S
H1511 N1507 0.985 . S
H1512 N1506 0.984 . S
H1513 N1506 0.984 . S
H1514 N1502 0.984 . S
H1515 N1502 0.985 . S
C1516 C1517 1.363 . S
C1516 C1522 1.379 . S
C1516 N1524 1.356 . S
C1517 C1516 1.363 . S
C1517 C1523 1.363 . S
C1518 C1519 1.363 . S
C1518 C1523 1.379 . S
C1518 N1525 1.356 . S
C1519 C1518 1.363 . S
C1519 C1522 1.363 . S
N1520 C1522 1.356 . S
N1520 H1532 0.984 . S
N1520 H1533 0.985 . S
N1521 C1523 1.356 . S
N1521 H1526 0.984 . S
N1521 H1527 0.985 . S
C1522 C1516 1.379 . S
C1522 C1519 1.363 . S
C1522 N1520 1.356 . S
C1523 C1517 1.363 . S
C1523 C1518 1.379 . S
C1523 N1521 1.356 . S
N1524 C1516 1.356 . S
N1524 H1530 0.984 . S
N1524 H1531 0.984 . S
N1525 C1518 1.356 . S
N1525 H1528 0.984 . S
N1525 H1529 0.985 . S
H1526 N1521 0.984 . S
H1527 N1521 0.985 . S
H1528 N1525 0.984 . S
H1529 N1525 0.985 . S
H1530 N1524 0.984 . S
H1531 N1524 0.984 . S
H1532 N1520 0.984 . S
H1533 N1520 0.985 . S
C1534 C1535 1.363 . S
C1534 C1540 1.379 . S
C1534 N1542 1.356 . S
C1535 C1534 1.363 . S
C1535 C1541 1.363 . S
C1536 C1537 1.363 . S
C1536 C1541 1.379 . S
C1536 N1543 1.356 . S
C1537 C1536 1.363 . S
C1537 C1540 1.363 . S
N1538 C1540 1.356 . S
N1538 H1550 0.984 . S
N1538 H1551 0.985 . S
N1539 C1541 1.356 . S
N1539 H1544 0.984 . S
N1539 H1545 0.985 . S
C1540 C1534 1.379 . S
C1540 C1537 1.363 . S
C1540 N1538 1.356 . S
C1541 C1535 1.363 . S
C1541 C1536 1.379 . S
C1541 N1539 1.356 . S
N1542 C1534 1.356 . S
N1542 H1548 0.984 . S
N1542 H1549 0.984 . S
N1543 C1536 1.356 . S
N1543 H1546 0.984 . S
N1543 H1547 0.985 . S
H1544 N1539 0.984 . S
H1545 N1539 0.985 . S
H1546 N1543 0.984 . S
H1547 N1543 0.985 . S
H1548 N1542 0.984 . S
H1549 N1542 0.984 . S
H1550 N1538 0.984 . S
H1551 N1538 0.985 . S
C1552 C1553 1.363 . S
C1552 C1558 1.379 1_556 S
C1552 N1560 1.356 . S
C1553 C1552 1.363 . S
C1553 C1559 1.363 . S
C1554 C1555 1.363 . S
C1554 C1559 1.379 1_554 S
C1554 N1561 1.356 . S
C1555 C1554 1.363 . S
C1555 C1558 1.363 . S
N1556 C1558 1.356 . S
N1556 H1568 0.984 . S
N1556 H1569 0.985 . S
N1557 C1559 1.356 . S
N1557 H1562 0.984 . S
N1557 H1563 0.985 . S
C1558 C1552 1.379 1_554 S
C1558 C1555 1.363 . S
C1558 N1556 1.356 . S
C1559 C1553 1.363 . S
C1559 C1554 1.379 1_556 S
C1559 N1557 1.356 . S
N1560 C1552 1.356 . S
N1560 H1566 0.984 . S
N1560 H1567 0.984 . S
N1561 C1554 1.356 . S
N1561 H1564 0.984 . S
N1561 H1565 0.985 . S
H1562 N1557 0.984 . S
H1563 N1557 0.985 . S
H1564 N1561 0.984 . S
H1565 N1561 0.985 . S
H1566 N1560 0.984 . S
H1567 N1560 0.984 . S
H1568 N1556 0.984 . S
H1569 N1556 0.985 . S
C1570 C1571 1.363 . S
C1570 C1576 1.379 1_556 S
C1570 N1578 1.356 . S
C1571 C1570 1.363 . S
C1571 C1577 1.363 . S
C1572 C1573 1.363 . S
C1572 C1577 1.379 1_554 S
C1572 N1579 1.356 . S
C1573 C1572 1.363 . S
C1573 C1576 1.363 . S
N1574 C1576 1.356 . S
N1574 H1586 0.984 . S
N1574 H1587 0.985 . S
N1575 C1577 1.356 . S
N1575 H1580 0.984 . S
N1575 H1581 0.985 . S
C1576 C1570 1.379 1_554 S
C1576 C1573 1.363 . S
C1576 N1574 1.356 . S
C1577 C1571 1.363 . S
C1577 C1572 1.379 1_556 S
C1577 N1575 1.356 . S
N1578 C1570 1.356 . S
N1578 H1584 0.984 . S
N1578 H1585 0.984 . S
N1579 C1572 1.356 . S
N1579 H1582 0.984 . S
N1579 H1583 0.985 . S
H1580 N1575 0.984 . S
H1581 N1575 0.985 . S
H1582 N1579 0.984 . S
H1583 N1579 0.985 . S
H1584 N1578 0.984 . S
H1585 N1578 0.984 . S
H1586 N1574 0.984 . S
H1587 N1574 0.985 . S
C1588 C1589 1.363 . S
C1588 C1594 1.379 1_556 S
C1588 N1596 1.356 . S
C1589 C1588 1.363 . S
C1589 C1595 1.363 . S
C1590 C1591 1.363 . S
C1590 C1595 1.379 1_554 S
C1590 N1597 1.356 . S
C1591 C1590 1.363 . S
C1591 C1594 1.363 . S
N1592 C1594 1.356 . S
N1592 H1604 0.984 . S
N1592 H1605 0.985 . S
N1593 C1595 1.356 . S
N1593 H1598 0.984 . S
N1593 H1599 0.985 . S
C1594 C1588 1.379 1_554 S
C1594 C1591 1.363 . S
C1594 N1592 1.356 . S
C1595 C1589 1.363 . S
C1595 C1590 1.379 1_556 S
C1595 N1593 1.356 . S
N1596 C1588 1.356 . S
N1596 H1602 0.984 . S
N1596 H1603 0.984 . S
N1597 C1590 1.356 . S
N1597 H1600 0.984 . S
N1597 H1601 0.985 . S
H1598 N1593 0.984 . S
H1599 N1593 0.985 . S
H1600 N1597 0.984 . S
H1601 N1597 0.985 . S
H1602 N1596 0.984 . S
H1603 N1596 0.984 . S
H1604 N1592 0.984 . S
H1605 N1592 0.985 . S
C1606 C1607 1.363 . S
C1606 C1612 1.379 1_554 S
C1606 N1614 1.356 . S
C1607 C1606 1.363 . S
C1607 C1613 1.363 . S
C1608 C1609 1.363 . S
C1608 C1613 1.379 1_556 S
C1608 N1615 1.356 . S
C1609 C1608 1.363 . S
C1609 C1612 1.363 . S
N1610 C1612 1.356 . S
N1610 H1622 0.984 . S
N1610 H1623 0.985 . S
N1611 C1613 1.356 . S
N1611 H1616 0.984 . S
N1611 H1617 0.985 . S
C1612 C1606 1.379 1_556 S
C1612 C1609 1.363 . S
C1612 N1610 1.356 . S
C1613 C1607 1.363 . S
C1613 C1608 1.379 1_554 S
C1613 N1611 1.356 . S
N1614 C1606 1.356 . S
N1614 H1620 0.984 . S
N1614 H1621 0.984 . S
N1615 C1608 1.356 . S
N1615 H1618 0.984 . S
N1615 H1619 0.985 . S
H1616 N1611 0.984 . S
H1617 N1611 0.985 . S
H1618 N1615 0.984 . S
H1619 N1615 0.985 . S
H1620 N1614 0.984 . S
H1621 N1614 0.984 . S
H1622 N1610 0.984 . S
H1623 N1610 0.985 . S
C1624 C1625 1.363 . S
C1624 C1630 1.379 1_455 S
C1624 N1632 1.356 . S
C1625 C1624 1.363 . S
C1625 C1631 1.363 . S
C1626 C1627 1.363 . S
C1626 C1631 1.379 1_655 S
C1626 N1633 1.356 . S
C1627 C1626 1.363 . S
C1627 C1630 1.363 . S
N1628 C1630 1.356 . S
N1628 H1640 0.984 . S
N1628 H1641 0.985 . S
N1629 C1631 1.356 . S
N1629 H1634 0.984 . S
N1629 H1635 0.985 . S
C1630 C1624 1.379 1_655 S
C1630 C1627 1.363 . S
C1630 N1628 1.356 . S
C1631 C1625 1.363 . S
C1631 C1626 1.379 1_455 S
C1631 N1629 1.356 . S
N1632 C1624 1.356 . S
N1632 H1638 0.984 . S
N1632 H1639 0.984 . S
N1633 C1626 1.356 . S
N1633 H1636 0.984 . S
N1633 H1637 0.985 . S
H1634 N1629 0.984 . S
H1635 N1629 0.985 . S
H1636 N1633 0.984 . S
H1637 N1633 0.985 . S
H1638 N1632 0.984 . S
H1639 N1632 0.984 . S
H1640 N1628 0.984 . S
H1641 N1628 0.985 . S
C1642 C1643 1.363 . S
C1642 C1648 1.379 1_565 S
C1642 N1650 1.356 . S
C1643 C1642 1.363 . S
C1643 C1649 1.363 . S
C1644 C1645 1.363 . S
C1644 C1649 1.379 1_545 S
C1644 N1651 1.356 . S
C1645 C1644 1.363 . S
C1645 C1648 1.363 . S
N1646 C1648 1.356 . S
N1646 H1658 0.984 . S
N1646 H1659 0.985 . S
N1647 C1649 1.356 . S
N1647 H1652 0.984 . S
N1647 H1653 0.985 . S
C1648 C1642 1.379 1_545 S
C1648 C1645 1.363 . S
C1648 N1646 1.356 . S
C1649 C1643 1.363 . S
C1649 C1644 1.379 1_565 S
C1649 N1647 1.356 . S
N1650 C1642 1.356 . S
N1650 H1656 0.984 . S
N1650 H1657 0.984 . S
N1651 C1644 1.356 . S
N1651 H1654 0.984 . S
N1651 H1655 0.985 . S
H1652 N1647 0.984 . S
H1653 N1647 0.985 . S
H1654 N1651 0.984 . S
H1655 N1651 0.985 . S
H1656 N1650 0.984 . S
H1657 N1650 0.984 . S
H1658 N1646 0.984 . S
H1659 N1646 0.985 . S
C1660 C1661 1.363 . S
C1660 C1666 1.379 1_655 S
C1660 N1668 1.356 . S
C1661 C1660 1.363 . S
C1661 C1667 1.363 . S
C1662 C1663 1.363 . S
C1662 C1667 1.379 1_455 S
C1662 N1669 1.356 . S
C1663 C1662 1.363 . S
C1663 C1666 1.363 . S
N1664 C1666 1.356 . S
N1664 H1676 0.984 . S
N1664 H1677 0.985 . S
N1665 C1667 1.356 . S
N1665 H1670 0.984 . S
N1665 H1671 0.985 . S
C1666 C1660 1.379 1_455 S
C1666 C1663 1.363 . S
C1666 N1664 1.356 . S
C1667 C1661 1.363 . S
C1667 C1662 1.379 1_655 S
C1667 N1665 1.356 . S
N1668 C1660 1.356 . S
N1668 H1674 0.984 . S
N1668 H1675 0.984 . S
N1669 C1662 1.356 . S
N1669 H1672 0.984 . S
N1669 H1673 0.985 . S
H1670 N1665 0.984 . S
H1671 N1665 0.985 . S
H1672 N1669 0.984 . S
H1673 N1669 0.985 . S
H1674 N1668 0.984 . S
H1675 N1668 0.984 . S
H1676 N1664 0.984 . S
H1677 N1664 0.985 . S
C1678 C1679 1.363 . S
C1678 C1684 1.379 1_545 S
C1678 N1686 1.356 . S
C1679 C1678 1.363 . S
C1679 C1685 1.363 . S
C1680 C1681 1.363 . S
C1680 C1685 1.379 1_565 S
C1680 N1687 1.356 . S
C1681 C1680 1.363 . S
C1681 C1684 1.363 . S
N1682 C1684 1.356 . S
N1682 H1694 0.984 . S
N1682 H1695 0.985 . S
N1683 C1685 1.356 . S
N1683 H1688 0.984 . S
N1683 H1689 0.985 . S
C1684 C1678 1.379 1_565 S
C1684 C1681 1.363 . S
C1684 N1682 1.356 . S
C1685 C1679 1.363 . S
C1685 C1680 1.379 1_545 S
C1685 N1683 1.356 . S
N1686 C1678 1.356 . S
N1686 H1692 0.984 . S
N1686 H1693 0.984 . S
N1687 C1680 1.356 . S
N1687 H1690 0.984 . S
N1687 H1691 0.985 . S
H1688 N1683 0.984 . S
H1689 N1683 0.985 . S
H1690 N1687 0.984 . S
H1691 N1687 0.985 . S
H1692 N1686 0.984 . S
H1693 N1686 0.984 . S
H1694 N1682 0.984 . S
H1695 N1682 0.985 . S
C1696 C1697 1.363 . S
C1696 C1702 1.379 1_655 S
C1696 N1704 1.356 . S
C1697 C1696 1.363 . S
C1697 C1703 1.363 . S
C1698 C1699 1.363 . S
C1698 C1703 1.379 1_455 S
C1698 N1705 1.356 . S
C1699 C1698 1.363 . S
C1699 C1702 1.363 . S
N1700 C1702 1.356 . S
N1700 H1712 0.984 . S
N1700 H1713 0.985 . S
N1701 C1703 1.356 . S
N1701 H1706 0.984 . S
N1701 H1707 0.985 . S
C1702 C1696 1.379 1_455 S
C1702 C1699 1.363 . S
C1702 N1700 1.356 . S
C1703 C1697 1.363 . S
C1703 C1698 1.379 1_655 S
C1703 N1701 1.356 . S
N1704 C1696 1.356 . S
N1704 H1710 0.984 . S
N1704 H1711 0.984 . S
N1705 C1698 1.356 . S
N1705 H1708 0.984 . S
N1705 H1709 0.985 . S
H1706 N1701 0.984 . S
H1707 N1701 0.985 . S
H1708 N1705 0.984 . S
H1709 N1705 0.985 . S
H1710 N1704 0.984 . S
H1711 N1704 0.984 . S
H1712 N1700 0.984 . S
H1713 N1700 0.985 . S
C1714 C1715 1.363 . S
C1714 C1720 1.379 1_565 S
C1714 N1722 1.356 . S
C1715 C1714 1.363 . S
C1715 C1721 1.363 . S
C1716 C1717 1.363 . S
C1716 C1721 1.379 1_545 S
C1716 N1723 1.356 . S
C1717 C1716 1.363 . S
C1717 C1720 1.363 . S
N1718 C1720 1.356 . S
N1718 H1730 0.984 . S
N1718 H1731 0.985 . S
N1719 C1721 1.356 . S
N1719 H1724 0.984 . S
N1719 H1725 0.985 . S
C1720 C1714 1.379 1_545 S
C1720 C1717 1.363 . S
C1720 N1718 1.356 . S
C1721 C1715 1.363 . S
C1721 C1716 1.379 1_565 S
C1721 N1719 1.356 . S
N1722 C1714 1.356 . S
N1722 H1728 0.984 . S
N1722 H1729 0.984 . S
N1723 C1716 1.356 . S
N1723 H1726 0.984 . S
N1723 H1727 0.985 . S
H1724 N1719 0.984 . S
H1725 N1719 0.985 . S
H1726 N1723 0.984 . S
H1727 N1723 0.985 . S
H1728 N1722 0.984 . S
H1729 N1722 0.984 . S
H1730 N1718 0.984 . S
H1731 N1718 0.985 . S
C1732 C1733 1.363 . S
C1732 C1738 1.379 1_455 S
C1732 N1740 1.356 . S
C1733 C1732 1.363 . S
C1733 C1739 1.363 . S
C1734 C1735 1.363 . S
C1734 C1739 1.379 1_655 S
C1734 N1741 1.356 . S
C1735 C1734 1.363 . S
C1735 C1738 1.363 . S
N1736 C1738 1.356 . S
N1736 H1748 0.984 . S
N1736 H1749 0.985 . S
N1737 C1739 1.356 . S
N1737 H1742 0.984 . S
N1737 H1743 0.985 . S
C1738 C1732 1.379 1_655 S
C1738 C1735 1.363 . S
C1738 N1736 1.356 . S
C1739 C1733 1.363 . S
C1739 C1734 1.379 1_455 S
C1739 N1737 1.356 . S
N1740 C1732 1.356 . S
N1740 H1746 0.984 . S
N1740 H1747 0.984 . S
N1741 C1734 1.356 . S
N1741 H1744 0.984 . S
N1741 H1745 0.985 . S
H1742 N1737 0.984 . S
H1743 N1737 0.985 . S
H1744 N1741 0.984 . S
H1745 N1741 0.985 . S
H1746 N1740 0.984 . S
H1747 N1740 0.984 . S
H1748 N1736 0.984 . S
H1749 N1736 0.985 . S
C1750 C1751 1.363 . S
C1750 C1756 1.379 1_565 S
C1750 N1758 1.356 . S
C1751 C1750 1.363 . S
C1751 C1757 1.363 . S
C1752 C1753 1.363 . S
C1752 C1757 1.379 1_545 S
C1752 N1759 1.356 . S
C1753 C1752 1.363 . S
C1753 C1756 1.363 . S
N1754 C1756 1.356 . S
N1754 H1766 0.984 . S
N1754 H1767 0.985 . S
N1755 C1757 1.356 . S
N1755 H1760 0.984 . S
N1755 H1761 0.985 . S
C1756 C1750 1.379 1_545 S
C1756 C1753 1.363 . S
C1756 N1754 1.356 . S
C1757 C1751 1.363 . S
C1757 C1752 1.379 1_565 S
C1757 N1755 1.356 . S
N1758 C1750 1.356 . S
N1758 H1764 0.984 . S
N1758 H1765 0.984 . S
N1759 C1752 1.356 . S
N1759 H1762 0.984 . S
N1759 H1763 0.985 . S
H1760 N1755 0.984 . S
H1761 N1755 0.985 . S
H1762 N1759 0.984 . S
H1763 N1759 0.985 . S
H1764 N1758 0.984 . S
H1765 N1758 0.984 . S
H1766 N1754 0.984 . S
H1767 N1754 0.985 . S
C1768 C1769 1.363 . S
C1768 C1774 1.379 . S
C1768 N1776 1.356 . S
C1769 C1768 1.363 . S
C1769 C1775 1.363 . S
C1770 C1771 1.363 . S
C1770 C1775 1.379 . S
C1770 N1777 1.356 . S
C1771 C1770 1.363 . S
C1771 C1774 1.363 . S
N1772 C1774 1.356 . S
N1772 H1784 0.984 . S
N1772 H1785 0.985 . S
N1773 C1775 1.356 . S
N1773 H1778 0.984 . S
N1773 H1779 0.985 . S
C1774 C1768 1.379 . S
C1774 C1771 1.363 . S
C1774 N1772 1.356 . S
C1775 C1769 1.363 . S
C1775 C1770 1.379 . S
C1775 N1773 1.356 . S
N1776 C1768 1.356 . S
N1776 H1782 0.984 . S
N1776 H1783 0.984 . S
N1777 C1770 1.356 . S
N1777 H1780 0.984 . S
N1777 H1781 0.985 . S
H1778 N1773 0.984 . S
H1779 N1773 0.985 . S
H1780 N1777 0.984 . S
H1781 N1777 0.985 . S
H1782 N1776 0.984 . S
H1783 N1776 0.984 . S
H1784 N1772 0.984 . S
H1785 N1772 0.985 . S
C1786 C1787 1.363 . S
C1786 C1792 1.379 . S
C1786 N1794 1.356 . S
C1787 C1786 1.363 . S
C1787 C1793 1.363 . S
C1788 C1789 1.363 . S
C1788 C1793 1.379 . S
C1788 N1795 1.356 . S
C1789 C1788 1.363 . S
C1789 C1792 1.363 . S
N1790 C1792 1.356 . S
N1790 H1802 0.984 . S
N1790 H1803 0.985 . S
N1791 C1793 1.356 . S
N1791 H1796 0.984 . S
N1791 H1797 0.985 . S
C1792 C1786 1.379 . S
C1792 C1789 1.363 . S
C1792 N1790 1.356 . S
C1793 C1787 1.363 . S
C1793 C1788 1.379 . S
C1793 N1791 1.356 . S
N1794 C1786 1.356 . S
N1794 H1800 0.984 . S
N1794 H1801 0.984 . S
N1795 C1788 1.356 . S
N1795 H1798 0.984 . S
N1795 H1799 0.985 . S
H1796 N1791 0.984 . S
H1797 N1791 0.985 . S
H1798 N1795 0.984 . S
H1799 N1795 0.985 . S
H1800 N1794 0.984 . S
H1801 N1794 0.984 . S
H1802 N1790 0.984 . S
H1803 N1790 0.985 . S
C1804 C1805 1.363 . S
C1804 C1810 1.379 . S
C1804 N1812 1.356 . S
C1805 C1804 1.363 . S
C1805 C1811 1.363 . S
C1806 C1807 1.363 . S
C1806 C1811 1.379 . S
C1806 N1813 1.356 . S
C1807 C1806 1.363 . S
C1807 C1810 1.363 . S
N1808 C1810 1.356 . S
N1808 H1820 0.984 . S
N1808 H1821 0.985 . S
N1809 C1811 1.356 . S
N1809 H1814 0.984 . S
N1809 H1815 0.985 . S
C1810 C1804 1.379 . S
C1810 C1807 1.363 . S
C1810 N1808 1.356 . S
C1811 C1805 1.363 . S
C1811 C1806 1.379 . S
C1811 N1809 1.356 . S
N1812 C1804 1.356 . S
N1812 H1818 0.984 . S
N1812 H1819 0.984 . S
N1813 C1806 1.356 . S
N1813 H1816 0.984 . S
N1813 H1817 0.985 . S
H1814 N1809 0.984 . S
H1815 N1809 0.985 . S
H1816 N1813 0.984 . S
H1817 N1813 0.985 . S
H1818 N1812 0.984 . S
H1819 N1812 0.984 . S
H1820 N1808 0.984 . S
H1821 N1808 0.985 . S
C1822 C1823 1.363 . S
C1822 C1828 1.379 . S
C1822 N1830 1.356 . S
C1823 C1822 1.363 . S
C1823 C1829 1.363 . S
C1824 C1825 1.363 . S
C1824 C1829 1.379 . S
C1824 N1831 1.356 . S
C1825 C1824 1.363 . S
C1825 C1828 1.363 . S
N1826 C1828 1.356 . S
N1826 H1838 0.984 . S
N1826 H1839 0.985 . S
N1827 C1829 1.356 . S
N1827 H1832 0.984 . S
N1827 H1833 0.985 . S
C1828 C1822 1.379 . S
C1828 C1825 1.363 . S
C1828 N1826 1.356 . S
C1829 C1823 1.363 . S
C1829 C1824 1.379 . S
C1829 N1827 1.356 . S
N1830 C1822 1.356 . S
N1830 H1836 0.984 . S
N1830 H1837 0.984 . S
N1831 C1824 1.356 . S
N1831 H1834 0.984 . S
N1831 H1835 0.985 . S
H1832 N1827 0.984 . S
H1833 N1827 0.985 . S
H1834 N1831 0.984 . S
H1835 N1831 0.985 . S
H1836 N1830 0.984 . S
H1837 N1830 0.984 . S
H1838 N1826 0.984 . S
H1839 N1826 0.985 . S
C1840 C1841 1.363 . S
C1840 C1846 1.379 . S
C1840 N1848 1.356 . S
C1841 C1840 1.363 . S
C1841 C1847 1.363 . S
C1842 C1843 1.363 . S
C1842 C1847 1.379 . S
C1842 N1849 1.356 . S
C1843 C1842 1.363 . S
C1843 C1846 1.363 . S
N1844 C1846 1.356 . S
N1844 H1856 0.984 . S
N1844 H1857 0.985 . S
N1845 C1847 1.356 . S
N1845 H1850 0.984 . S
N1845 H1851 0.985 . S
C1846 C1840 1.379 . S
C1846 C1843 1.363 . S
C1846 N1844 1.356 . S
C1847 C1841 1.363 . S
C1847 C1842 1.379 . S
C1847 N1845 1.356 . S
N1848 C1840 1.356 . S
N1848 H1854 0.984 . S
N1848 H1855 0.984 . S
N1849 C1842 1.356 . S
N1849 H1852 0.984 . S
N1849 H1853 0.985 . S
H1850 N1845 0.984 . S
H1851 N1845 0.985 . S
H1852 N1849 0.984 . S
H1853 N1849 0.985 . S
H1854 N1848 0.984 . S
H1855 N1848 0.984 . S
H1856 N1844 0.984 . S
H1857 N1844 0.985 . S
C1858 C1859 1.363 . S
C1858 C1864 1.379 . S
C1858 N1866 1.356 . S
C1859 C1858 1.363 . S
C1859 C1865 1.363 . S
C1860 C1861 1.363 . S
C1860 C1865 1.379 . S
C1860 N1867 1.356 . S
C1861 C1860 1.363 . S
C1861 C1864 1.363 . S
N1862 C1864 1.356 . S
N1862 H1874 0.984 . S
N1862 H1875 0.985 . S
N1863 C1865 1.356 . S
N1863 H1868 0.984 . S
N1863 H1869 0.985 . S
C1864 C1858 1.379 . S
C1864 C1861 1.363 . S
C1864 N1862 1.356 . S
C1865 C1859 1.363 . S
C1865 C1860 1.379 . S
C1865 N1863 1.356 . S
N1866 C1858 1.356 . S
N1866 H1872 0.984 . S
N1866 H1873 0.984 . S
N1867 C1860 1.356 . S
N1867 H1870 0.984 . S
N1867 H1871 0.985 . S
H1868 N1863 0.984 . S
H1869 N1863 0.985 . S
H1870 N1867 0.984 . S
H1871 N1867 0.985 . S
H1872 N1866 0.984 . S
H1873 N1866 0.984 . S
H1874 N1862 0.984 . S
H1875 N1862 0.985 . S
C1876 C1877 1.363 . S
C1876 C1882 1.379 . S
C1876 N1884 1.356 . S
C1877 C1876 1.363 . S
C1877 C1883 1.363 . S
C1878 C1879 1.363 . S
C1878 C1883 1.379 . S
C1878 N1885 1.356 . S
C1879 C1878 1.363 . S
C1879 C1882 1.363 . S
N1880 C1882 1.356 . S
N1880 H1892 0.984 . S
N1880 H1893 0.985 . S
N1881 C1883 1.356 . S
N1881 H1886 0.984 . S
N1881 H1887 0.985 . S
C1882 C1876 1.379 . S
C1882 C1879 1.363 . S
C1882 N1880 1.356 . S
C1883 C1877 1.363 . S
C1883 C1878 1.379 . S
C1883 N1881 1.356 . S
N1884 C1876 1.356 . S
N1884 H1890 0.984 . S
N1884 H1891 0.984 . S
N1885 C1878 1.356 . S
N1885 H1888 0.984 . S
N1885 H1889 0.985 . S
H1886 N1881 0.984 . S
H1887 N1881 0.985 . S
H1888 N1885 0.984 . S
H1889 N1885 0.985 . S
H1890 N1884 0.984 . S
H1891 N1884 0.984 . S
H1892 N1880 0.984 . S
H1893 N1880 0.985 . S
C1894 C1895 1.363 . S
C1894 C1900 1.379 . S
C1894 N1902 1.356 . S
C1895 C1894 1.363 . S
C1895 C1901 1.363 . S
C1896 C1897 1.363 . S
C1896 C1901 1.379 . S
C1896 N1903 1.356 . S
C1897 C1896 1.363 . S
C1897 C1900 1.363 . S
N1898 C1900 1.356 . S
N1898 H1910 0.984 . S
N1898 H1911 0.985 . S
N1899 C1901 1.356 . S
N1899 H1904 0.984 . S
N1899 H1905 0.985 . S
C1900 C1894 1.379 . S
C1900 C1897 1.363 . S
C1900 N1898 1.356 . S
C1901 C1895 1.363 . S
C1901 C1896 1.379 . S
C1901 N1899 1.356 . S
N1902 C1894 1.356 . S
N1902 H1908 0.984 . S
N1902 H1909 0.984 . S
N1903 C1896 1.356 . S
N1903 H1906 0.984 . S
N1903 H1907 0.985 . S
H1904 N1899 0.984 . S
H1905 N1899 0.985 . S
H1906 N1903 0.984 . S
H1907 N1903 0.985 . S
H1908 N1902 0.984 . S
H1909 N1902 0.984 . S
H1910 N1898 0.984 . S
H1911 N1898 0.985 . S
C1912 C1913 1.363 . S
C1912 C1918 1.379 . S
C1912 N1920 1.356 . S
C1913 C1912 1.363 . S
C1913 C1919 1.363 . S
C1914 C1915 1.363 . S
C1914 C1919 1.379 . S
C1914 N1921 1.356 . S
C1915 C1914 1.363 . S
C1915 C1918 1.363 . S
N1916 C1918 1.356 . S
N1916 H1928 0.984 . S
N1916 H1929 0.985 . S
N1917 C1919 1.356 . S
N1917 H1922 0.984 . S
N1917 H1923 0.985 . S
C1918 C1912 1.379 . S
C1918 C1915 1.363 . S
C1918 N1916 1.356 . S
C1919 C1913 1.363 . S
C1919 C1914 1.379 . S
C1919 N1917 1.356 . S
N1920 C1912 1.356 . S
N1920 H1926 0.984 . S
N1920 H1927 0.984 . S
N1921 C1914 1.356 . S
N1921 H1924 0.984 . S
N1921 H1925 0.985 . S
H1922 N1917 0.984 . S
H1923 N1917 0.985 . S
H1924 N1921 0.984 . S
H1925 N1921 0.985 . S
H1926 N1920 0.984 . S
H1927 N1920 0.984 . S
H1928 N1916 0.984 . S
H1929 N1916 0.985 . S
C1930 C1931 1.363 . S
C1930 C1936 1.379 . S
C1930 N1938 1.356 . S
C1931 C1930 1.363 . S
C1931 C1937 1.363 . S
C1932 C1933 1.363 . S
C1932 C1937 1.379 . S
C1932 N1939 1.356 . S
C1933 C1932 1.363 . S
C1933 C1936 1.363 . S
N1934 C1936 1.356 . S
N1934 H1946 0.984 . S
N1934 H1947 0.985 . S
N1935 C1937 1.356 . S
N1935 H1940 0.984 . S
N1935 H1941 0.985 . S
C1936 C1930 1.379 . S
C1936 C1933 1.363 . S
C1936 N1934 1.356 . S
C1937 C1931 1.363 . S
C1937 C1932 1.379 . S
C1937 N1935 1.356 . S
N1938 C1930 1.356 . S
N1938 H1944 0.984 . S
N1938 H1945 0.984 . S
N1939 C1932 1.356 . S
N1939 H1942 0.984 . S
N1939 H1943 0.985 . S
H1940 N1935 0.984 . S
H1941 N1935 0.985 . S
H1942 N1939 0.984 . S
H1943 N1939 0.985 . S
H1944 N1938 0.984 . S
H1945 N1938 0.984 . S
H1946 N1934 0.984 . S
H1947 N1934 0.985 . S
C1948 C1949 1.363 . S
C1948 C1954 1.379 . S
C1948 N1956 1.356 . S
C1949 C1948 1.363 . S
C1949 C1955 1.363 . S
C1950 C1951 1.363 . S
C1950 C1955 1.379 . S
C1950 N1957 1.356 . S
C1951 C1950 1.363 . S
C1951 C1954 1.363 . S
N1952 C1954 1.356 . S
N1952 H1964 0.984 . S
N1952 H1965 0.985 . S
N1953 C1955 1.356 . S
N1953 H1958 0.984 . S
N1953 H1959 0.985 . S
C1954 C1948 1.379 . S
C1954 C1951 1.363 . S
C1954 N1952 1.356 . S
C1955 C1949 1.363 . S
C1955 C1950 1.379 . S
C1955 N1953 1.356 . S
N1956 C1948 1.356 . S
N1956 H1962 0.984 . S
N1956 H1963 0.984 . S
N1957 C1950 1.356 . S
N1957 H1960 0.984 . S
N1957 H1961 0.985 . S
H1958 N1953 0.984 . S
H1959 N1953 0.985 . S
H1960 N1957 0.984 . S
H1961 N1957 0.985 . S
H1962 N1956 0.984 . S
H1963 N1956 0.984 . S
H1964 N1952 0.984 . S
H1965 N1952 0.985 . S
C1966 C1967 1.363 . S
C1966 C1972 1.379 . S
C1966 N1974 1.356 . S
C1967 C1966 1.363 . S
C1967 C1973 1.363 . S
C1968 C1969 1.363 . S
C1968 C1973 1.379 . S
C1968 N1975 1.356 . S
C1969 C1968 1.363 . S
C1969 C1972 1.363 . S
N1970 C1972 1.356 . S
N1970 H1982 0.984 . S
N1970 H1983 0.985 . S
N1971 C1973 1.356 . S
N1971 H1976 0.984 . S
N1971 H1977 0.985 . S
C1972 C1966 1.379 . S
C1972 C1969 1.363 . S
C1972 N1970 1.356 . S
C1973 C1967 1.363 . S
C1973 C1968 1.379 . S
C1973 N1971 1.356 . S
N1974 C1966 1.356 . S
N1974 H1980 0.984 . S
N1974 H1981 0.984 . S
N1975 C1968 1.356 . S
N1975 H1978 0.984 . S
N1975 H1979 0.985 . S
H1976 N1971 0.984 . S
H1977 N1971 0.985 . S
H1978 N1975 0.984 . S
H1979 N1975 0.985 . S
H1980 N1974 0.984 . S
H1981 N1974 0.984 . S
H1982 N1970 0.984 . S
H1983 N1970 0.985 . S
C1409 C1377 0.682 . S
C1411 C29 0.682 . S
C1427 C1105 0.684 . S
C1429 C108 0.684 . S
C1445 C233 0.684 . S
C1447 C1193 0.684 . S
C1463 C1289 0.686 . S
C1465 C293 0.686 . S
C1481 C821 0.684 . S
C1483 C401 0.684 . S
C1499 C489 0.684 . S
C1501 C937 0.684 . S
C1517 C577 0.686 . S
C1519 C997 0.686 . S
C1535 C673 0.682 . S
C1537 C724 0.682 . S
C1553 C460 1.526 . S
C1555 C20 1.519 . S
C1571 C557 1.522 . S
C1573 C145 1.525 . S
C1589 C645 1.530 . S
C1591 C225 1.524 . S
C1607 C321 1.532 . S
C1609 C381 1.525 . S
C1625 C57 1.533 . S
C1627 C137 1.533 . S
C1643 C196 1.523 . S
C1645 C117 1.523 . S
C1661 C205 1.530 . S
C1663 C284 1.525 . S
C1679 C49 1.516 . S
C1681 C313 1.513 . S
C1697 C665 1.515 . S
C1699 C409 1.516 . S
C1715 C372 1.534 . S
C1717 C469 1.527 . S
C1733 C497 1.523 . S
C1735 C585 1.524 . S
C1751 C636 1.535 . S
C1753 C548 1.543 . S
C1769 C1164 1.526 . S
C1771 C733 1.519 . S
C1787 C841 1.525 . S
C1789 C1252 1.522 . S
C1805 C1349 1.530 . S
C1807 C929 1.524 . S
C1823 C1085 1.525 . S
C1825 C1025 1.532 . S
C1841 C753 1.533 . S
C1843 C849 1.533 . S
C1859 C812 1.523 . S
C1861 C900 1.523 . S
C1877 C988 1.525 . S
C1879 C909 1.530 . S
C1895 C761 1.516 . S
C1897 C1017 1.513 . S
C1913 C1369 1.515 . S
C1915 C1113 1.516 . S
C1931 C1076 1.534 . S
C1933 C1173 1.527 . S
C1949 C1201 1.523 . S
C1951 C1281 1.524 . S
C1967 C1340 1.535 . S
C1969 C1261 1.543 . S
