# Generated by pormake.
# Topology umy, (4)-cn, num edge types: 1
# Building blocks:
#     Node 0, Type 0, BuildingBlock: ICAMEG_clean_sbu_1, # of connection points: 4
#     Node 1, Type 0, BuildingBlock: ICAMEG_clean_sbu_1, # of connection points: 4
#     Node 2, Type 0, BuildingBlock: ICAMEG_clean_sbu_1, # of connection points: 4
#     Node 3, Type 0, BuildingBlock: ICAMEG_clean_sbu_1, # of connection points: 4
#     Node 4, Type 0, BuildingBlock: ICAMEG_clean_sbu_1, # of connection points: 4
#     Node 5, Type 0, BuildingBlock: ICAMEG_clean_sbu_1, # of connection points: 4
#     Node 6, Type 0, BuildingBlock: ICAMEG_clean_sbu_1, # of connection points: 4
#     Node 7, Type 0, BuildingBlock: ICAMEG_clean_sbu_1, # of connection points: 4
#     Node 8, Type 0, BuildingBlock: ICAMEG_clean_sbu_1, # of connection points: 4
#     Node 9, Type 0, BuildingBlock: ICAMEG_clean_sbu_1, # of connection points: 4
#     Node 10, Type 0, BuildingBlock: ICAMEG_clean_sbu_1, # of connection points: 4
#     Node 11, Type 0, BuildingBlock: ICAMEG_clean_sbu_1, # of connection points: 4
#     Edge 12, Type (0, 0), BuildingBlock: CIFDUS_clean_linker_0, # of connection points: 2
#     Edge 13, Type (0, 0), BuildingBlock: CIFDUS_clean_linker_0, # of connection points: 2
#     Edge 14, Type (0, 0), BuildingBlock: CIFDUS_clean_linker_0, # of connection points: 2
#     Edge 15, Type (0, 0), BuildingBlock: CIFDUS_clean_linker_0, # of connection points: 2
#     Edge 16, Type (0, 0), BuildingBlock: CIFDUS_clean_linker_0, # of connection points: 2
#     Edge 17, Type (0, 0), BuildingBlock: CIFDUS_clean_linker_0, # of connection points: 2
#     Edge 18, Type (0, 0), BuildingBlock: CIFDUS_clean_linker_0, # of connection points: 2
#     Edge 19, Type (0, 0), BuildingBlock: CIFDUS_clean_linker_0, # of connection points: 2
#     Edge 20, Type (0, 0), BuildingBlock: CIFDUS_clean_linker_0, # of connection points: 2
#     Edge 21, Type (0, 0), BuildingBlock: CIFDUS_clean_linker_0, # of connection points: 2
#     Edge 22, Type (0, 0), BuildingBlock: CIFDUS_clean_linker_0, # of connection points: 2
#     Edge 23, Type (0, 0), BuildingBlock: CIFDUS_clean_linker_0, # of connection points: 2
#     Edge 24, Type (0, 0), BuildingBlock: CIFDUS_clean_linker_0, # of connection points: 2
#     Edge 25, Type (0, 0), BuildingBlock: CIFDUS_clean_linker_0, # of connection points: 2
#     Edge 26, Type (0, 0), BuildingBlock: CIFDUS_clean_linker_0, # of connection points: 2
#     Edge 27, Type (0, 0), BuildingBlock: CIFDUS_clean_linker_0, # of connection points: 2
#     Edge 28, Type (0, 0), BuildingBlock: CIFDUS_clean_linker_0, # of connection points: 2
#     Edge 29, Type (0, 0), BuildingBlock: CIFDUS_clean_linker_0, # of connection points: 2
#     Edge 30, Type (0, 0), BuildingBlock: CIFDUS_clean_linker_0, # of connection points: 2
#     Edge 31, Type (0, 0), BuildingBlock: CIFDUS_clean_linker_0, # of connection points: 2
#     Edge 32, Type (0, 0), BuildingBlock: CIFDUS_clean_linker_0, # of connection points: 2
#     Edge 33, Type (0, 0), BuildingBlock: CIFDUS_clean_linker_0, # of connection points: 2
#     Edge 34, Type (0, 0), BuildingBlock: CIFDUS_clean_linker_0, # of connection points: 2
#     Edge 35, Type (0, 0), BuildingBlock: CIFDUS_clean_linker_0, # of connection points: 2
# Relax obj value: 0.082
# Max RMSD: 0.108
# Mean RMSD: 0.108
data_MOF--net-umy--node1-ICAMEG_clean_sbu_1--edge1-CIFDUS_clean_linker_0
_symmetry_space_group_name_H-M    P1
_symmetry_Int_Tables_number       1
_symmetry_cell_setting            triclinic
loop_
_symmetry_equiv_pos_as_xyz
'x, y, z'
_cell_length_a     35.563135
_cell_length_b     35.579709
_cell_length_c     49.664764
_cell_angle_alpha  90.028049
_cell_angle_beta   89.815515
_cell_angle_gamma 119.97386
loop_
_atom_site_label
_atom_site_type_symbol
_atom_site_fract_x
_atom_site_fract_y
_atom_site_fract_z
_atom_type_partial_charge
Co0 Co 0.06695 0.30639 0.14473 0.0
Co1 Co 0.06368 0.39031 0.1768 0.0
O2 O 0.07485 0.36505 0.14451 0.0
C3 C 0.1568 0.35581 0.12087 0.0
O4 O 0.16837 0.38361 0.14084 0.0
C5 C 0.02665 0.41667 0.13055 0.0
O6 O 0.01931 0.3821 0.11691 0.0
O7 O 1.00337 0.33999 0.17988 0.0
O8 O 0.01571 0.28556 0.1699 0.0
H9 H 1.01062 0.38732 0.27117 0.0
H10 H 0.07282 0.34754 0.0919 0.0
O11 O 0.11769 0.32469 0.1193 0.0
H12 H 0.92893 0.21498 0.09303 0.0
H13 H 0.06155 0.1745 0.10332 0.0
H14 H 0.04795 0.24082 0.1873 0.0
H15 H 0.97823 0.2335 0.13177 0.0
H16 H 0.07021 0.24771 0.1029 0.0
O17 O 0.04281 0.42319 0.15411 0.0
H18 H 0.02565 0.35662 0.23082 0.0
H19 H 0.07815 0.4782 0.19087 0.0
H20 H 0.0386 0.16734 0.18858 0.0
H21 H 0.02484 0.32989 0.05249 0.0
H22 H 0.04545 0.13372 0.14637 0.0
H23 H 0.95223 0.26327 0.05295 0.0
O24 O 0.1066 0.32152 0.17621 0.0
H25 H 0.19319 0.5078 0.12799 0.0
H26 H 0.13655 0.43636 0.21566 0.0
H27 H 0.21218 0.49631 0.21225 0.0
H28 H 0.24094 0.53255 0.16818 0.0
H29 H 0.1179 0.44743 0.13224 0.0
H30 H 0.06345 0.51014 0.23076 0.0
H31 H 0.02954 0.46464 0.27132 0.0
O32 O 0.08439 0.35952 0.20103 0.0
C33 C 0.99221 0.29982 0.18022 0.0
C34 C 0.02545 0.40751 0.25363 0.0
C35 C 0.05503 0.47641 0.23094 0.0
N36 N 0.05275 0.41552 0.20846 0.0
C37 C 0.03409 0.39031 0.23071 0.0
C38 C 0.06315 0.45808 0.20836 0.0
C39 C 0.03604 0.45087 0.2537 0.0
C40 C 0.04142 0.3183 0.09215 0.0
N41 N 0.02829 0.29168 0.11415 0.0
C42 C 0.01432 0.30857 0.06982 0.0
C43 C 0.97356 0.27123 0.07011 0.0
C44 C 0.96044 0.24416 0.09261 0.0
C45 C 0.98839 0.25496 0.11457 0.0
C46 C 0.05846 0.18878 0.12184 0.0
C47 C 0.05076 0.22633 0.16883 0.0
C48 C 0.06346 0.2303 0.12175 0.0
N49 N 0.05943 0.24848 0.14505 0.0
C50 C 0.04553 0.18474 0.16969 0.0
C51 C 0.04941 0.16591 0.146 0.0
C52 C 0.10435 0.33836 0.19839 0.0
C53 C 0.18098 0.4924 0.14733 0.0
C54 C 0.1488 0.45192 0.1964 0.0
C55 C 0.19166 0.4859 0.19461 0.0
C56 C 0.20777 0.50622 0.16988 0.0
N57 N 0.12266 0.43864 0.17421 0.0
C58 C 0.13829 0.45832 0.14988 0.0
Co59 Co 0.76775 0.06867 0.31261 0.0
Co60 Co 0.67648 0.0598 0.34247 0.0
O61 O 0.71527 0.07345 0.31115 0.0
C62 C 0.80742 0.15855 0.28869 0.0
O63 O 0.79244 0.17099 0.30897 0.0
C64 C 0.61688 0.01769 0.2955 0.0
O65 O 0.64446 1.00673 0.28588 0.0
O66 O 0.66993 1.00065 0.34577 0.0
O67 O 0.73864 0.01745 0.33752 0.0
H68 H 0.62169 1.00339 0.43562 0.0
H69 H 0.73266 0.07192 0.25922 0.0
O70 O 0.799 0.11933 0.2872 0.0
H71 H 0.73063 0.93236 0.2612 0.0
H72 H 0.90004 0.07082 0.27405 0.0
H73 H 0.81497 0.05334 0.35643 0.0
H74 H 0.758 0.98208 0.29999 0.0
H75 H 0.83312 0.07528 0.2721 0.0
O76 O 0.62427 0.03723 0.31804 0.0
H77 H 0.67056 0.0215 0.39649 0.0
H78 H 0.59901 0.06891 0.35427 0.0
H79 H 0.88148 0.04822 0.35923 0.0
H80 H 0.70563 0.02347 0.21978 0.0
H81 H 0.92454 0.05702 0.31784 0.0
H82 H 0.70433 0.95303 0.22067 0.0
O83 O 0.78881 0.10827 0.34438 0.0
H84 H 0.68386 0.18669 0.29321 0.0
H85 H 0.69673 0.1311 0.3816 0.0
H86 H 0.7081 0.20521 0.37816 0.0
H87 H 0.70157 0.23342 0.33373 0.0
H88 H 0.6731 0.1129 0.29751 0.0
H89 H 0.5492 0.05106 0.3929 0.0
H90 H 0.56045 0.01817 0.43399 0.0
O91 O 0.72685 0.08277 0.36799 0.0
C92 C 0.70077 0.992 0.347 0.0
C93 C 0.61649 0.01778 0.41786 0.0
C94 C 0.57576 0.04447 0.39386 0.0
N95 N 0.63777 0.04633 0.37312 0.0
C96 C 0.64411 0.02818 0.39564 0.0
C97 C 0.60402 0.05438 0.37201 0.0
C98 C 0.58211 0.02604 0.41691 0.0
C99 C 0.73259 0.04151 0.25965 0.0
N100 N 0.74684 0.02982 0.28191 0.0
C101 C 0.71707 0.01413 0.2373 0.0
C102 C 0.71627 0.97458 0.23784 0.0
C103 C 0.73096 0.96292 0.26059 0.0
C104 C 0.7462 0.99111 0.28257 0.0
C105 C 0.88154 0.06689 0.29223 0.0
C106 C 0.8334 0.057 0.3383 0.0
C107 C 0.84367 0.06952 0.29126 0.0
N108 N 0.82003 0.06441 0.31412 0.0
C109 C 0.87109 0.05416 0.34002 0.0
C110 C 0.89526 0.05913 0.3168 0.0
C111 C 0.76819 0.10466 0.36622 0.0
C112 C 0.68662 0.1747 0.3127 0.0
C113 C 0.69388 0.14315 0.36218 0.0
C114 C 0.7003 0.18513 0.36037 0.0
C115 C 0.69662 0.20093 0.33543 0.0
N116 N 0.6839 0.11754 0.33981 0.0
C117 C 0.6804 0.13288 0.31528 0.0
Co118 Co 0.70656 0.76376 0.48037 0.0
Co119 Co 0.60924 0.68458 0.50811 0.0
O120 O 0.64572 0.7179 0.47762 0.0
C121 C 0.6638 0.80816 0.4545 0.0
O122 O 0.63374 0.79028 0.47319 0.0
C123 C 0.60036 0.61858 0.46756 0.0
O124 O 0.64154 0.64328 0.46143 0.0
O125 O 0.65536 0.67318 0.52204 0.0
O126 O 0.71878 0.72823 0.50675 0.0
H127 H 0.57692 0.64294 0.60566 0.0
H128 H 0.66869 0.73233 0.42631 0.0
O129 O 0.69543 0.8007 0.45417 0.0
H130 H 0.78931 0.70203 0.43337 0.0
H131 H 0.84902 0.8813 0.4432 0.0
H132 H 0.76961 0.80307 0.52504 0.0
H133 H 0.77291 0.73732 0.47074 0.0
H134 H 0.77258 0.82281 0.44054 0.0
O135 O 0.58328 0.62967 0.48624 0.0
H136 H 0.62237 0.68483 0.56708 0.0
H137 H 0.51739 0.61302 0.51361 0.0
H138 H 0.84613 0.86104 0.52858 0.0
H139 H 0.68424 0.69742 0.38832 0.0
H140 H 0.88634 0.90062 0.48746 0.0
H141 H 0.74486 0.68192 0.39176 0.0
O142 O 0.69347 0.79165 0.51101 0.0
H143 H 0.5145 0.69505 0.43708 0.0
H144 H 0.55388 0.71627 0.53323 0.0
H145 H 0.49899 0.73341 0.51643 0.0
H146 H 0.47891 0.72274 0.46804 0.0
H147 H 0.56955 0.67874 0.45466 0.0
H148 H 0.4709 0.57017 0.55159 0.0
H149 H 0.50059 0.5851 0.59803 0.0
O150 O 0.63309 0.73814 0.53047 0.0
C151 C 0.6969 0.69431 0.52123 0.0
C152 C 0.5636 0.63613 0.58552 0.0
C153 C 0.50412 0.59525 0.55517 0.0
N154 N 0.57261 0.65137 0.53812 0.0
C155 C 0.58917 0.65978 0.5636 0.0
C156 C 0.53066 0.61953 0.53373 0.0
C157 C 0.52079 0.60367 0.58122 0.0
C158 C 0.69539 0.72609 0.42784 0.0
N159 N 0.71992 0.73692 0.45068 0.0
C160 C 0.70392 0.70614 0.40631 0.0
C161 C 0.73788 0.69737 0.40828 0.0
C162 C 0.7628 0.7086 0.43164 0.0
C163 C 0.75327 0.72842 0.45277 0.0
C164 C 0.83186 0.86424 0.46126 0.0
C165 C 0.78699 0.81994 0.50703 0.0
C166 C 0.78856 0.83116 0.45988 0.0
N167 N 0.76678 0.80935 0.48258 0.0
C168 C 0.83026 0.85283 0.50917 0.0
C169 C 0.85279 0.87505 0.48609 0.0
C170 C 0.66455 0.77702 0.52941 0.0
C171 C 0.52284 0.69966 0.45823 0.0
C172 C 0.54535 0.71155 0.51214 0.0
C173 C 0.5142 0.72126 0.50275 0.0
C174 C 0.50294 0.71526 0.4756 0.0
N175 N 0.56468 0.69618 0.49499 0.0
C176 C 0.55385 0.69027 0.46833 0.0
Co177 Co 0.95409 0.7084 0.64372 0.0
Co178 Co 0.96944 0.62947 0.67253 0.0
O179 O 0.9528 0.65272 0.64164 0.0
C180 C 0.86611 0.6838 0.62221 0.0
O181 O 0.85625 0.692 0.64617 0.0
C182 C 1.00861 0.61084 0.62386 0.0
O183 O 0.01596 0.6475 0.61298 0.0
O184 O 0.02737 0.68385 0.67439 0.0
O185 O 1.00598 0.7329 0.66837 0.0
H186 H 0.03253 0.63672 0.76411 0.0
H187 H 0.95298 0.67244 0.58969 0.0
O188 O 0.90265 0.68575 0.61832 0.0
H189 H 0.08801 0.81417 0.59225 0.0
H190 H 0.94486 0.83559 0.6069 0.0
H191 H 0.96465 0.76819 0.68833 0.0
H192 H 0.03846 0.78838 0.63131 0.0
H193 H 0.945 0.7665 0.60394 0.0
O194 O 0.99258 0.60073 0.64751 0.0
H195 H 1.0101 0.66452 0.72561 0.0
H196 H 0.96507 0.54503 0.68435 0.0
H197 H 0.96501 0.83746 0.69219 0.0
H198 H 1.00123 0.69732 0.54997 0.0
H199 H 0.955 0.8716 0.65129 0.0
H200 H 0.06941 0.76859 0.55114 0.0
O201 O 0.91489 0.68699 0.67577 0.0
H202 H 0.8429 0.50512 0.62625 0.0
H203 H 0.90138 0.57698 0.71337 0.0
H204 H 0.82879 0.51167 0.71173 0.0
H205 H 0.79916 0.47517 0.66795 0.0
H206 H 0.91516 0.57077 0.62875 0.0
H207 H 0.98726 0.51604 0.72237 0.0
H208 H 0.02115 0.56195 0.76266 0.0
O209 O 0.94584 0.65552 0.69884 0.0
C210 C 0.03369 0.72247 0.67651 0.0
C211 C 0.01774 0.61637 0.74669 0.0
C212 C 0.9924 0.54867 0.72324 0.0
N213 N 0.98624 0.60647 0.70273 0.0
C214 C 1.00491 0.63192 0.72482 0.0
C215 C 0.98003 0.56534 0.70173 0.0
C216 C 1.01138 0.57444 0.74585 0.0
C217 C 0.98235 0.7037 0.59025 0.0
N218 N 0.99285 0.7289 0.61282 0.0
C219 C 1.00966 0.71752 0.56775 0.0
C220 C 0.04794 0.75747 0.56843 0.0
C221 C 0.05843 0.78302 0.59151 0.0
C222 C 0.03036 0.76813 0.61364 0.0
C223 C 0.94923 0.82103 0.62488 0.0
C224 C 0.96035 0.78286 0.67042 0.0
C225 C 0.94925 0.78185 0.62333 0.0
N226 N 0.95477 0.76325 0.64594 0.0
C227 C 0.96057 0.82209 0.67274 0.0
C228 C 0.95493 0.84122 0.64978 0.0
C229 C 0.92097 0.67172 0.69752 0.0
C230 C 0.85553 0.52064 0.64546 0.0
C231 C 0.88869 0.56137 0.69422 0.0
C232 C 0.84758 0.52435 0.69343 0.0
C233 C 0.83098 0.50388 0.66886 0.0
N234 N 0.9127 0.57748 0.6712 0.0
C235 C 0.89651 0.55774 0.64702 0.0
Co236 Co 0.26678 0.95743 0.80778 0.0
Co237 Co 0.34403 0.93955 0.83784 0.0
O238 O 0.31254 0.94218 0.80623 0.0
C239 C 0.22345 0.87181 0.78009 0.0
O240 O 0.23991 0.85865 0.79903 0.0
C241 C 0.41275 0.99321 0.79763 0.0
O242 O 0.39002 0.0117 0.79116 0.0
O243 O 0.3578 0.99873 0.84945 0.0
O244 O 0.2999 1.00342 0.83596 0.0
H245 H 0.3828 0.95383 0.93603 0.0
H246 H 0.30303 0.95451 0.75457 0.0
O247 O 0.2319 0.91122 0.77998 0.0
H248 H 0.334 0.10521 0.76474 0.0
H249 H 0.15366 0.9862 0.76782 0.0
H250 H 0.22319 0.97798 0.85165 0.0
H251 H 0.29482 0.05102 0.80033 0.0
H252 H 0.21207 0.96796 0.76649 0.0
O253 O 0.39948 0.96468 0.8162 0.0
H254 H 0.34323 0.95706 0.89626 0.0
H255 H 0.4126 0.91573 0.84608 0.0
H256 H 0.16521 0.99677 0.85389 0.0
H257 H 0.34188 1.00751 0.71833 0.0
H258 H 0.13001 1.00094 0.81175 0.0
H259 H 0.35772 0.08352 0.72335 0.0
O260 O 0.236 0.91415 0.83676 0.0
H261 H 0.33054 0.82676 0.77152 0.0
H262 H 0.30736 0.8541 0.8658 0.0
H263 H 0.28738 0.77993 0.85178 0.0
H264 H 0.299 0.7659 0.80434 0.0
H265 H 0.34967 0.90036 0.78633 0.0
H266 H 0.45321 0.91243 0.88528 0.0
H267 H 0.43831 0.93143 0.93068 0.0
O268 O 0.2899 0.91415 0.86032 0.0
C269 C 0.3348 0.01717 0.84971 0.0
C270 C 0.38959 0.94547 0.91636 0.0
C271 C 0.42915 0.9223 0.88787 0.0
N272 N 0.37561 0.9367 0.86885 0.0
C273 C 0.36723 0.94718 0.89376 0.0
C274 C 0.40617 0.92442 0.86572 0.0
C275 C 0.42075 0.93293 0.91334 0.0
C276 C 0.30942 0.98741 0.75675 0.0
N277 N 0.29662 0.99966 0.77949 0.0
C278 C 0.3316 0.01733 0.73623 0.0
C279 C 0.34055 0.05999 0.73909 0.0
C280 C 0.3273 0.0722 0.76232 0.0
C281 C 0.30527 0.04142 0.78245 0.0
C282 C 0.1688 0.98456 0.78631 0.0
C283 C 0.20823 0.98003 0.83322 0.0
C284 C 0.20182 0.97416 0.78569 0.0
N285 N 0.22122 0.97224 0.80896 0.0
C286 C 0.17533 0.99055 0.83462 0.0
C287 C 0.15556 0.99284 0.81097 0.0
C288 C 0.25025 0.90362 0.85721 0.0
C289 C 0.32547 0.8325 0.79227 0.0
C290 C 0.31247 0.84826 0.8451 0.0
C291 C 0.30116 0.8062 0.8373 0.0
C292 C 0.30771 0.79835 0.81068 0.0
N293 N 0.32994 0.8816 0.82693 0.0
C294 C 0.33644 0.87415 0.8008 0.0
Co295 Co 0.31771 0.25221 0.9806 0.0
Co296 Co 0.39875 0.34439 0.00998 0.0
O297 O 0.37416 0.30566 0.9787 0.0
C298 C 0.34125 0.18892 0.95668 0.0
O299 O 0.33484 0.17041 0.9804 0.0
C300 C 0.41683 0.40378 0.96248 0.0
O301 O 0.37882 0.37589 0.95251 0.0
O302 O 0.34538 0.34966 0.01314 0.0
O303 O 0.29477 0.27997 1.00633 0.0
H304 H 0.39524 0.39852 0.10295 0.0
H305 H 0.35396 0.28896 0.92687 0.0
O306 O 0.33876 0.22336 0.95391 0.0
H307 H 0.21371 0.28538 0.93165 0.0
H308 H 0.18796 0.1189 0.94315 0.0
H309 H 0.25777 0.20266 0.0252 0.0
H310 H 0.23871 0.25901 0.96962 0.0
H311 H 0.25797 0.18722 0.94043 0.0
O312 O 0.4281 0.39674 0.98542 0.0
H313 H 0.36552 0.34956 0.06396 0.0
H314 H 0.48455 0.42271 0.02166 0.0
H315 H 0.18757 0.1347 0.02884 0.0
H316 H 0.32987 0.31494 0.8882 0.0
H317 H 0.15221 0.09225 0.98761 0.0
H318 H 0.25934 0.31342 0.89049 0.0
O319 O 0.33846 0.23229 0.01193 0.0
H320 H 0.52041 0.33997 0.961 0.0
H321 H 0.45056 0.32557 0.04928 0.0
H322 H 0.51463 0.31625 0.04607 0.0
H323 H 0.55012 0.32363 1.0017 0.0
H324 H 0.456 0.3486 0.96506 0.0
H325 H 0.51546 0.47262 0.06015 0.0
H326 H 0.47076 0.46061 0.10121 0.0
O327 O 0.37192 0.29399 0.03568 0.0
C328 C 0.30636 0.31805 0.01518 0.0
C329 C 0.41508 0.40406 0.08519 0.0
C330 C 0.48252 0.44568 0.06115 0.0
N331 N 0.42323 0.38315 0.04054 0.0
C332 C 0.39844 0.37639 0.06305 0.0
C333 C 0.46476 0.41737 0.03938 0.0
C334 C 0.45743 0.43891 0.08419 0.0
C335 C 0.32302 0.28776 0.92792 0.0
N336 N 0.29781 0.2725 0.95052 0.0
C337 C 0.30964 0.30272 0.906 0.0
C338 C 0.27012 0.30194 0.90732 0.0
C339 C 0.24454 0.28628 0.93042 0.0
C340 C 0.25899 0.27164 0.95195 0.0
C341 C 0.20306 0.13707 0.96126 0.0
C342 C 0.24258 0.18444 1.00716 0.0
C343 C 0.24279 0.17571 0.95985 0.0
N344 N 0.26206 0.19888 0.98264 0.0
C345 C 0.20283 0.14595 1.00935 0.0
C346 C 0.18301 0.12215 0.98621 0.0
C347 C 0.35421 0.2528 0.0339 0.0
C348 C 0.50533 0.33684 0.98046 0.0
C349 C 0.46572 0.3287 0.02988 0.0
C350 C 0.50205 0.32347 0.0282 0.0
C351 C 0.52195 0.32762 1.0033 0.0
N352 N 0.44975 0.338 1.00741 0.0
C353 C 0.46894 0.34185 0.9829 0.0
Co354 Co 0.72373 0.95816 0.71353 0.0
Co355 Co 0.63587 0.95653 0.6828 0.0
O356 O 0.66472 0.94911 0.71438 0.0
C357 C 0.67429 0.86863 0.737 0.0
O358 O 0.64639 0.8581 0.71721 0.0
C359 C 0.62018 1.00317 0.72784 0.0
O360 O 0.65926 0.01559 0.73693 0.0
O361 O 0.68646 0.01582 0.67538 0.0
O362 O 0.74317 0.00891 0.68839 0.0
H363 H 0.62676 0.99524 0.58668 0.0
H364 H 0.68263 0.95133 0.76665 0.0
O365 O 0.70616 0.90736 0.73871 0.0
H366 H 0.81298 0.09684 0.76508 0.0
H367 H 0.85704 0.96597 0.75412 0.0
H368 H 0.78942 0.97859 0.67064 0.0
H369 H 0.79527 0.04754 0.72632 0.0
H370 H 0.78318 0.95582 0.75492 0.0
O371 O 0.60721 0.98158 0.70605 0.0
H372 H 0.66236 0.98555 0.62646 0.0
H373 H 0.54719 0.94293 0.67254 0.0
H374 H 0.86348 0.98935 0.66897 0.0
H375 H 0.69945 0.99933 0.80604 0.0
H376 H 0.89777 0.98302 0.71093 0.0
H377 H 0.76495 0.07275 0.80536 0.0
O378 O 0.70948 0.91895 0.68194 0.0
H379 H 0.52442 0.83665 0.74089 0.0
H380 H 0.58223 0.87865 0.6487 0.0
H381 H 0.5218 0.80465 0.65731 0.0
H382 H 0.4924 0.78325 0.70369 0.0
H383 H 0.58515 0.91014 0.73143 0.0
H384 H 0.51047 0.95248 0.6333 0.0
H385 H 0.55025 0.97866 0.58995 0.0
O386 O 0.6622 0.93068 0.65873 0.0
C387 C 0.72721 0.02927 0.67602 0.0
C388 C 0.60905 0.98374 0.60544 0.0
C389 C 0.54381 0.9598 0.63162 0.0
N390 N 0.60688 0.96358 0.65179 0.0
C391 C 0.62902 0.97811 0.62803 0.0
C392 C 0.56484 0.9546 0.6538 0.0
C393 C 0.56614 0.97447 0.6073 0.0
C394 C 0.71144 0.98305 0.76633 0.0
N395 N 0.73793 0.99663 0.74421 0.0
C396 C 0.72068 0.01017 0.78864 0.0
C397 C 0.75739 0.05139 0.78822 0.0
C398 C 0.78431 0.06496 0.76561 0.0
C399 C 0.774 0.03698 0.74365 0.0
C400 C 0.84248 0.96888 0.73571 0.0
C401 C 0.80421 0.97605 0.68901 0.0
C402 C 0.80063 0.96307 0.73603 0.0
N403 N 0.78211 0.96688 0.71287 0.0
C404 C 0.84612 0.98206 0.68793 0.0
C405 C 0.86532 0.97846 0.71147 0.0
C406 C 0.68738 0.91493 0.66085 0.0
C407 C 0.53687 0.84562 0.72059 0.0
C408 C 0.5698 0.86955 0.66895 0.0
C409 C 0.53546 0.82763 0.67369 0.0
C410 C 0.51896 0.81565 0.69971 0.0
N411 N 0.58716 0.89881 0.68951 0.0
C412 C 0.57116 0.88727 0.71508 0.0
Co413 Co 0.774 0.70402 0.87449 0.0
Co414 Co 0.68196 0.62261 0.84488 0.0
O415 O 0.72132 0.64689 0.87589 0.0
C416 C 0.81592 0.65427 0.89581 0.0
O417 O 0.80202 0.6286 0.87473 0.0
C418 C 0.62294 0.60498 0.89253 0.0
O419 O 0.65085 0.64328 0.90216 0.0
O420 O 0.6759 0.67561 0.84222 0.0
O421 O 0.74457 0.72711 0.85069 0.0
H422 H 0.62633 0.62627 0.75256 0.0
H423 H 0.73959 0.66387 0.92771 0.0
O424 O 0.80569 0.68365 0.89881 0.0
H425 H 0.73847 0.80188 0.92894 0.0
H426 H 0.90728 0.83247 0.91286 0.0
H427 H 0.82054 0.76786 0.83099 0.0
H428 H 0.76508 0.78074 0.88909 0.0
H429 H 0.84025 0.76124 0.91478 0.0
O430 O 0.63001 0.59302 0.86978 0.0
H431 H 0.67579 0.65601 0.79129 0.0
H432 H 0.60378 0.53671 0.83331 0.0
H433 H 0.88714 0.83937 0.82824 0.0
H434 H 0.71329 0.68401 0.96819 0.0
H435 H 0.93105 0.87213 0.86937 0.0
H436 H 0.71246 0.7534 0.96892 0.0
O437 O 0.79438 0.6864 0.84188 0.0
H438 H 0.68865 0.50159 0.89265 0.0
H439 H 0.70102 0.57167 0.80487 0.0
H440 H 0.71169 0.5084 0.80741 0.0
H441 H 0.7054 0.47285 0.85153 0.0
H442 H 0.67859 0.56516 0.88924 0.0
H443 H 0.55337 0.50576 0.79508 0.0
H444 H 0.56456 0.5506 0.7543 0.0
O445 O 0.73201 0.64993 0.81892 0.0
C446 C 0.70675 0.71509 0.84139 0.0
C447 C 0.62114 0.60638 0.7702 0.0
C448 C 0.58016 0.53878 0.79408 0.0
N449 N 0.64277 0.59816 0.81455 0.0
C450 C 0.6491 0.62303 0.79219 0.0
C451 C 0.60875 0.55654 0.81571 0.0
C452 C 0.58647 0.56394 0.7712 0.0
C453 C 0.73969 0.6943 0.92798 0.0
N454 N 0.75376 0.72105 0.90603 0.0
C455 C 0.7246 0.70545 0.95091 0.0
C456 C 0.72406 0.74434 0.95129 0.0
C457 C 0.73858 0.77152 0.92885 0.0
C458 C 0.75339 0.75927 0.90626 0.0
C459 C 0.88841 0.81855 0.8948 0.0
C460 C 0.83934 0.78197 0.84901 0.0
C461 C 0.85048 0.77815 0.89574 0.0
N462 N 0.82637 0.76044 0.87303 0.0
C463 C 0.87708 0.82245 0.84731 0.0
C464 C 0.90172 0.84079 0.8704 0.0
C465 C 0.77337 0.66939 0.82025 0.0
C466 C 0.69131 0.51671 0.87329 0.0
C467 C 0.69829 0.55642 0.82415 0.0
C468 C 0.7043 0.52057 0.82546 0.0
C469 C 0.70076 0.50063 0.85022 0.0
N470 N 0.68883 0.57189 0.84686 0.0
C471 C 0.68548 0.55261 0.87122 0.0
Co472 Co 0.07425 0.75927 0.04065 0.0
Co473 Co 0.07802 0.68018 1.00296 0.0
O474 O 0.0846 0.7103 0.03739 0.0
C475 C 0.16267 0.79879 0.0657 0.0
O476 O 0.176 0.78605 0.04473 0.0
C477 C 0.0331 0.60874 0.04362 0.0
O478 O 0.01843 0.63154 0.05588 0.0
O479 O 0.01752 0.66922 0.99869 0.0
O480 O 0.02523 0.73206 0.01391 0.0
H481 H 0.03624 0.64632 0.90566 0.0
H482 H 0.07769 0.71553 0.09044 0.0
O483 O 0.12288 0.78865 0.0676 0.0
H484 H 0.9314 0.69872 0.08975 0.0
H485 H 0.05996 0.8748 0.09057 0.0
H486 H 0.05646 0.81144 1.00163 0.0
H487 H 0.98347 0.73809 0.05317 0.0
H488 H 0.07145 0.81218 0.08647 0.0
O489 O 0.05605 0.62328 0.02234 0.0
H490 H 0.04534 0.68427 0.94876 0.0
H491 H 0.09645 0.611 0.9847 0.0
H492 H 0.04433 0.87377 1.00483 0.0
H493 H 0.02685 0.67639 0.12766 0.0
H494 H 0.04609 0.9059 0.04955 0.0
H495 H 0.95305 0.66766 0.12739 0.0
O496 O 0.11618 0.79016 0.01099 0.0
H497 H 0.20299 0.68602 0.05354 0.0
H498 H 0.15551 0.71523 0.96675 0.0
H499 H 0.2312 0.73183 0.97195 0.0
H500 H 0.25537 0.71713 0.01558 0.0
H501 H 0.12768 0.6703 0.04756 0.0
H502 H 0.08763 0.57204 0.94201 0.0
H503 H 0.05746 0.58974 0.90208 0.0
O504 O 0.10055 0.73568 0.9822 0.0
C505 C 1.00428 0.69651 1.00082 0.0
C506 C 0.0495 0.63838 0.9229 0.0
C507 C 0.07828 0.59665 0.94332 0.0
N508 N 0.07154 0.64999 0.96922 0.0
C509 C 0.05481 0.65982 0.94736 0.0
C510 C 0.08308 0.61873 0.96746 0.0
C511 C 0.06138 0.60661 0.92091 0.0
C512 C 0.04577 0.71219 0.09033 0.0
N513 N 0.03354 0.72902 0.06966 0.0
C514 C 0.01706 0.68985 0.11139 0.0
C515 C 0.97563 0.68489 0.11121 0.0
C516 C 0.96344 0.70226 0.09007 0.0
C517 C 0.99299 0.72433 0.06934 0.0
C518 C 0.05906 0.86105 0.07097 0.0
C519 C 0.05702 0.82508 0.02118 0.0
C520 C 0.06567 0.82567 0.06852 0.0
N521 N 0.06442 0.80804 0.04385 0.0
C522 C 0.05024 0.86044 0.02286 0.0
C523 C 0.05127 0.87848 0.04795 0.0
C524 C 0.11884 0.77593 0.98794 0.0
C525 C 0.19281 0.69242 0.0344 0.0
C526 C 0.16576 0.7088 0.98582 0.0
C527 C 0.20866 0.7182 0.98863 0.0
C528 C 0.2222 0.70993 0.01311 0.0
N529 N 0.13709 0.69153 1.00679 0.0
C530 C 0.15015 0.68342 0.03087 0.0
Co531 Co 0.30713 0.05997 0.20724 0.0
Co532 Co 0.39381 0.05699 0.1793 0.0
O533 O 0.3653 0.06712 0.21034 0.0
C534 C 0.34847 0.14781 0.23555 0.0
O535 O 0.37713 0.16671 0.2162 0.0
C536 C 0.4121 0.01502 0.22621 0.0
O537 O 0.37306 1.00239 0.23562 0.0
O538 O 0.34333 0.99682 0.17454 0.0
O539 O 0.2894 0.01132 0.1807 0.0
H540 H 0.40057 1.00703 0.08563 0.0
H541 H 0.34127 0.05925 0.26138 0.0
O542 O 0.32141 0.1072 0.23457 0.0
H543 H 0.20669 0.91796 0.25326 0.0
H544 H 0.16942 0.05108 0.24172 0.0
H545 H 0.24906 0.04733 0.16126 0.0
H546 H 0.23086 0.97122 0.21626 0.0
H547 H 0.24177 0.05833 0.24602 0.0
O548 O 0.42415 0.03536 0.20389 0.0
H549 H 0.36578 0.02085 0.1244 0.0
H550 H 0.48284 0.07133 0.169 0.0
H551 H 0.17655 0.03945 0.15606 0.0
H552 H 0.31792 1.00729 0.29914 0.0
H553 H 0.13623 0.04138 0.19648 0.0
H554 H 0.25028 0.93595 0.29515 0.0
O555 O 0.32766 0.1028 0.17694 0.0
H556 H 0.50629 0.18411 0.2319 0.0
H557 H 0.44465 0.13112 0.14178 0.0
H558 H 0.50469 0.2063 0.14705 0.0
H559 H 0.53601 0.23321 0.19236 0.0
H560 H 0.44598 0.10926 0.22575 0.0
H561 H 0.51881 0.05778 0.13075 0.0
H562 H 0.47766 0.02553 0.08865 0.0
O563 O 0.36594 0.07922 0.15354 0.0
C564 C 0.30365 0.98695 0.17195 0.0
C565 C 0.41888 0.02117 0.10385 0.0
C566 C 0.48521 0.04959 0.12919 0.0
N567 N 0.42222 0.04697 0.14895 0.0
C568 C 0.39936 0.02914 0.12587 0.0
C569 C 0.4646 0.05706 0.15082 0.0
C570 C 0.46211 0.03152 0.10556 0.0
C571 C 0.31161 0.02841 0.25958 0.0
N572 N 0.2876 0.01818 0.23653 0.0
C573 C 0.29864 0.99906 0.28099 0.0
C574 C 0.26073 0.95902 0.27872 0.0
C575 C 0.23632 0.94887 0.2552 0.0
C576 C 0.25032 0.97902 0.23421 0.0
C577 C 0.18668 0.05025 0.22395 0.0
C578 C 0.23171 0.04808 0.17896 0.0
C579 C 0.22779 0.05455 0.22625 0.0
N580 N 0.24973 0.05334 0.20392 0.0
C581 C 0.19066 0.04365 0.17588 0.0
C582 C 0.16807 0.04477 0.19856 0.0
C583 C 0.3461 0.10073 0.1553 0.0
C584 C 0.49303 0.17271 0.21203 0.0
C585 C 0.45804 0.14258 0.16157 0.0
C586 C 0.49209 0.18518 0.16442 0.0
C587 C 0.50965 0.20026 0.18985 0.0
N588 N 0.44204 0.11568 0.18341 0.0
C589 C 0.45898 0.1303 0.20842 0.0
Co590 Co 0.2601 0.31291 0.3712 0.0
Co591 Co 0.34693 0.4049 0.34504 0.0
O592 O 0.30782 0.37263 0.37493 0.0
C593 C 0.21517 0.35682 0.39608 0.0
O594 O 0.23308 0.38677 0.37735 0.0
C595 C 0.40549 0.41966 0.39159 0.0
O596 O 0.38052 0.37886 0.3984 0.0
O597 O 0.36077 0.35772 0.33895 0.0
O598 O 0.29565 0.29844 0.34581 0.0
H599 H 0.40954 0.42316 0.25189 0.0
H600 H 0.28856 0.34815 0.42611 0.0
O601 O 0.22297 0.32546 0.39658 0.0
H602 H 0.31074 0.22223 0.41996 0.0
H603 H 0.13503 0.17228 0.40498 0.0
H604 H 0.22131 0.25204 0.3254 0.0
H605 H 0.28083 0.24261 0.38155 0.0
H606 H 0.19607 0.24718 0.40936 0.0
O607 O 0.39698 0.43479 0.37072 0.0
H608 H 0.36004 0.38302 0.28939 0.0
H609 H 0.41837 0.49636 0.33793 0.0
H610 H 0.16082 0.17705 0.32016 0.0
H611 H 0.31801 0.32857 0.46515 0.0
H612 H 0.11719 0.13666 0.36014 0.0
H613 H 0.32942 0.26528 0.46217 0.0
O614 O 0.23694 0.32967 0.33977 0.0
H615 H 0.32301 0.50896 0.4009 0.0
H616 H 0.3201 0.45455 0.30914 0.0
H617 H 0.30002 0.5109 0.31624 0.0
H618 H 0.30149 0.53854 0.36238 0.0
H619 H 0.34245 0.45233 0.39293 0.0
H620 H 0.46875 0.53766 0.30101 0.0
H621 H 0.46442 0.50108 0.25758 0.0
O622 O 0.29848 0.3766 0.31837 0.0
C623 C 0.3344 0.31707 0.33636 0.0
C624 C 0.41168 0.4395 0.27069 0.0
C625 C 0.44495 0.50373 0.29828 0.0
N626 N 0.38612 0.43733 0.31578 0.0
C627 C 0.38365 0.41695 0.29198 0.0
C628 C 0.4164 0.48014 0.31913 0.0
C629 C 0.44249 0.4832 0.27391 0.0
C630 C 0.29299 0.32029 0.42478 0.0
N631 N 0.28291 0.29651 0.40161 0.0
C632 C 0.30987 0.30948 0.4469 0.0
C633 C 0.31635 0.27402 0.44519 0.0
C634 C 0.30593 0.24989 0.4215 0.0
C635 C 0.28917 0.2617 0.39977 0.0
C636 C 0.15384 0.18952 0.38741 0.0
C637 C 0.20263 0.2346 0.34292 0.0
C638 C 0.18837 0.23198 0.38976 0.0
N639 N 0.2124 0.25387 0.36768 0.0
C640 C 0.16835 0.19218 0.33982 0.0
C641 C 0.14386 0.16955 0.36225 0.0
C642 C 0.25742 0.35141 0.31897 0.0
C643 C 0.3224 0.49729 0.38069 0.0
C644 C 0.32074 0.46634 0.32929 0.0
C645 C 0.30941 0.49831 0.33318 0.0
C646 C 0.31026 0.51382 0.35907 0.0
N647 N 0.33271 0.45036 0.35059 0.0
C648 C 0.33356 0.46536 0.37604 0.0
Co649 Co 0.95529 0.25221 0.54013 0.0
Co650 Co 0.9635 0.34315 0.51035 0.0
O651 O 0.95058 0.30476 0.54179 0.0
C652 C 0.86518 0.21065 0.56448 0.0
O653 O 0.85174 0.22357 0.54373 0.0
C654 C 1.00585 0.40384 0.5571 0.0
O655 O 0.01656 0.37642 0.5672 0.0
O656 O 0.0227 0.34981 0.50644 0.0
O657 O 1.0061 0.28119 0.51463 0.0
H658 H 0.01791 0.39666 0.41669 0.0
H659 H 0.95325 0.28781 0.59366 0.0
O660 O 0.90504 0.22107 0.56617 0.0
H661 H 0.0929 0.28998 0.59 0.0
H662 H 0.95399 0.1204 0.57833 0.0
H663 H 0.96987 0.20466 0.49603 0.0
H664 H 0.04227 0.26223 0.5517 0.0
H665 H 0.94947 0.18726 0.58051 0.0
O666 O 0.9864 0.39583 0.53453 0.0
H667 H 1.00075 0.34841 0.45596 0.0
H668 H 0.95369 0.42014 0.49863 0.0
H669 H 0.97503 0.13821 0.49299 0.0
H670 H 1.00262 0.31524 0.63262 0.0
H671 H 0.96703 0.09555 0.53434 0.0
H672 H 0.0731 0.3166 0.63088 0.0
O673 O 0.91498 0.23079 0.50872 0.0
H674 H 0.83728 0.33583 0.56082 0.0
H675 H 0.89131 0.32213 0.47189 0.0
H676 H 0.81713 0.31051 0.47603 0.0
H677 H 0.7897 0.31747 0.52074 0.0
H678 H 0.91112 0.34682 0.55582 0.0
H679 H 0.9706 0.46934 0.45986 0.0
H680 H 1.00284 0.45768 0.41848 0.0
O681 O 0.9402 0.29249 0.48503 0.0
C682 C 0.03132 0.31897 0.50491 0.0
C683 C 1.00381 0.40205 0.43459 0.0
C684 C 0.97733 0.44287 0.45884 0.0
N685 N 0.97619 0.38135 0.47959 0.0
C686 C 0.99396 0.37477 0.4569 0.0
C687 C 0.96795 0.41497 0.48077 0.0
C688 C 0.99538 0.43629 0.43562 0.0
C689 C 0.98368 0.28793 0.59287 0.0
N690 N 0.99488 0.27348 0.57042 0.0
C691 C 1.01158 0.30367 0.61494 0.0
C692 C 0.05116 0.30449 0.61393 0.0
C693 C 0.06231 0.28963 0.59098 0.0
C694 C 0.03361 0.27416 0.56929 0.0
C695 C 0.95757 0.13873 0.56017 0.0
C696 C 0.96656 0.18641 0.51414 0.0
C697 C 0.95491 0.17656 0.56126 0.0
N698 N 0.95958 0.19998 0.53843 0.0
C699 C 0.96943 0.14875 0.51228 0.0
C700 C 0.9649 0.12481 0.53549 0.0
C701 C 0.91826 0.25122 0.48691 0.0
C702 C 0.84892 0.33288 0.54122 0.0
C703 C 0.87961 0.32517 0.49143 0.0
C704 C 0.83759 0.31861 0.49363 0.0
C705 C 0.82222 0.32252 0.51872 0.0
N706 N 0.90569 0.33552 0.51357 0.0
C707 C 0.89077 0.33924 0.53824 0.0
H708 H 0.01667 0.58258 0.09612 0.0
H709 H 0.03589 0.54271 0.01767 0.0
H710 H 0.03162 0.47769 0.0372 0.0
H711 H 0.02729 0.43436 0.07702 0.0
H712 H 1.01361 0.47717 0.15584 0.0
H713 H 1.01052 0.53827 0.13582 0.0
C714 C 0.0193 0.55934 0.08326 0.0
C715 C 0.02648 0.56751 0.05546 0.0
C716 C 0.01803 0.52249 0.09476 0.0
C717 C 0.03045 0.53732 0.03915 0.0
C718 C 0.02803 0.50008 0.05031 0.0
C719 C 0.02298 0.4567 0.08976 0.0
C720 C 0.02054 0.45106 0.11789 0.0
C721 C 0.02252 0.49262 0.07815 0.0
C722 C 0.01563 0.48075 0.13413 0.0
C723 C 0.01391 0.51578 0.1227 0.0
H724 H 0.54108 0.01185 0.31272 0.0
H725 H 0.60926 0.0117 0.24078 0.0
H726 H 0.55177 0.00997 0.21298 0.0
H727 H 0.48371 0.01227 0.20898 0.0
H728 H 0.41318 1.00764 0.28089 0.0
H729 H 0.4696 1.00717 0.30869 0.0
C730 C 0.54315 0.01104 0.29095 0.0
C731 C 0.57964 0.01214 0.27888 0.0
C732 C 0.50952 0.00933 0.27504 0.0
C733 C 0.58156 0.0107 0.25064 0.0
C734 C 0.54874 0.00993 0.2347 0.0
C735 C 0.48051 0.01077 0.23074 0.0
C736 C 0.44429 0.01024 0.24281 0.0
C737 C 0.51281 0.00978 0.24665 0.0
C738 C 0.44052 1.00791 0.27103 0.0
C739 C 0.47294 1.00785 0.28698 0.0
H740 H 0.52845 0.54361 0.48257 0.0
H741 H 0.6074 0.61074 0.41353 0.0
H742 H 0.55449 0.55441 0.38375 0.0
H743 H 0.48305 0.48864 0.37713 0.0
H744 H 0.40695 0.41838 0.44636 0.0
H745 H 0.46146 0.47302 0.4763 0.0
C746 C 0.5343 0.54548 0.46103 0.0
C747 C 0.57162 0.58134 0.45022 0.0
C748 C 0.50411 0.51254 0.44408 0.0
C749 C 0.57905 0.58332 0.42233 0.0
C750 C 0.54866 0.55126 0.40528 0.0
C751 C 0.47875 0.48511 0.3988 0.0
C752 C 0.44094 0.44978 0.40956 0.0
C753 C 0.51069 0.51614 0.41589 0.0
C754 C 0.43587 0.44524 0.43763 0.0
C755 C 0.46692 0.47658 0.45474 0.0
H756 H 0.01536 0.54173 0.64182 0.0
H757 H 1.01184 0.60603 0.56903 0.0
H758 H 1.01174 0.54856 0.54198 0.0
H759 H 1.00867 0.47777 0.53892 0.0
H760 H 0.016 0.41536 0.61157 0.0
H761 H 0.01883 0.47422 0.63857 0.0
C762 C 0.01499 0.5434 0.62002 0.0
C763 C 1.01339 0.57822 0.60755 0.0
C764 C 0.01543 0.51037 0.60449 0.0
C765 C 1.01325 0.57987 0.57925 0.0
C766 C 1.01297 0.54682 0.56372 0.0
C767 C 1.01125 0.47722 0.56066 0.0
C768 C 1.01187 0.44191 0.57315 0.0
C769 C 1.01345 0.51158 0.57611 0.0
C770 C 0.0156 0.44205 0.60135 0.0
C771 C 0.01704 0.47568 0.61685 0.0
H772 H 0.5522 0.01222 0.71132 0.0
H773 H 0.61586 1.00271 0.78261 0.0
H774 H 0.55767 0.99946 0.81072 0.0
H775 H 0.48599 0.99449 0.81478 0.0
H776 H 0.4254 0.01009 0.74391 0.0
H777 H 0.48496 0.01602 0.71595 0.0
C778 C 0.55358 0.01006 0.73305 0.0
C779 C 0.58821 1.00753 0.74486 0.0
C780 C 0.52037 0.00902 0.74915 0.0
C781 C 0.58975 1.005 0.77303 0.0
C782 C 0.5563 1.00284 0.78912 0.0
C783 C 0.48616 0.99966 0.79324 0.0
C784 C 0.45122 1.00154 0.78138 0.0
C785 C 0.52107 1.00409 0.77737 0.0
C786 C 0.45199 1.00868 0.75352 0.0
C787 C 0.48595 0.01188 0.7375 0.0
H788 H 0.48814 0.47852 0.97947 0.0
H789 H 0.41888 0.41178 0.90771 0.0
H790 H 0.47575 0.46825 0.87976 0.0
H791 H 0.5473 0.53487 0.87554 0.0
H792 H 0.6145 0.60383 0.94726 0.0
H793 H 0.55645 0.5486 0.97522 0.0
C794 C 0.48528 0.47653 0.95771 0.0
C795 C 0.44924 0.4407 0.94576 0.0
C796 C 0.51794 0.50954 0.94168 0.0
C797 C 0.44603 0.43895 0.91752 0.0
C798 C 0.47872 0.47119 0.90147 0.0
C799 C 0.54907 0.538 0.89729 0.0
C800 C 0.58545 0.57345 0.90924 0.0
C801 C 0.51513 0.50636 0.91331 0.0
C802 C 0.58692 0.5771 0.93746 0.0
C803 C 0.55376 0.54536 0.95351 0.0
H804 H 0.14463 0.29983 0.0799 0.0
H805 H 0.24348 0.41735 0.11714 0.0
H806 H 0.29802 0.41843 0.08641 0.0
H807 H 0.31848 0.38355 0.05032 0.0
H808 H 0.21872 0.26395 0.01533 0.0
H809 H 0.1642 0.26673 0.0434 0.0
C810 C 0.17801 0.32595 0.08127 0.0
C811 C 0.18971 0.35837 0.10101 0.0
C812 C 0.20934 0.32608 0.06377 0.0
C813 C 0.23333 0.39185 0.10227 0.0
C814 C 0.26464 0.39248 0.08466 0.0
C815 C 0.28478 0.35836 0.04859 0.0
C816 C 0.27313 0.32361 0.0305 0.0
C817 C 0.25318 0.35944 0.06549 0.0
C818 C 0.22907 0.29123 0.02884 0.0
C819 C 0.19763 0.29261 0.04505 0.0
H820 H 0.84403 0.14276 0.24507 0.0
H821 H 0.8386 0.24663 0.28644 0.0
H822 H 0.89231 0.29933 0.25503 0.0
H823 H 0.94456 0.3164 0.21747 0.0
H824 H 0.95111 0.21149 0.17812 0.0
H825 H 0.89303 0.15912 0.20677 0.0
C826 C 0.85425 0.17688 0.24722 0.0
C827 C 0.83729 0.19054 0.26834 0.0
C828 C 0.88554 0.20705 0.22933 0.0
C829 C 0.85102 0.235 0.2705 0.0
C830 C 0.88186 0.26524 0.25253 0.0
C831 C 0.93296 0.28208 0.21491 0.0
C832 C 0.95265 0.26826 0.19553 0.0
C833 C 0.89989 0.25174 0.23207 0.0
C834 C 0.93694 0.22344 0.19272 0.0
C835 C 0.90367 0.19327 0.20923 0.0
H836 H 0.71972 0.85043 0.41293 0.0
H837 H 0.60308 0.83395 0.45085 0.0
H838 H 0.60168 0.88633 0.41965 0.0
H839 H 0.63592 0.94019 0.38293 0.0
H840 H 0.75368 0.95704 0.34625 0.0
H841 H 0.75159 0.90101 0.3751 0.0
C842 C 0.6938 0.85804 0.41433 0.0
C843 C 0.66177 0.83833 0.43445 0.0
C844 C 0.69321 0.88839 0.39635 0.0
C845 C 0.62837 0.84864 0.43572 0.0
C846 C 0.62749 0.87867 0.41782 0.0
C847 C 0.6608 0.93123 0.38097 0.0
C848 C 0.69494 0.95326 0.3623 0.0
C849 C 0.66004 0.8992 0.3982 0.0
C850 C 0.72691 0.94099 0.3603 0.0
C851 C 0.72595 0.90891 0.37695 0.0
H852 H 0.78158 0.71259 0.51816 0.0
H853 H 0.66681 0.64814 0.56798 0.0
H854 H 0.70825 0.63739 0.60306 0.0
H855 H 0.77862 0.65173 0.62143 0.0
H856 H 0.8922 0.71059 0.57049 0.0
H857 H 0.84981 0.71758 0.53416 0.0
C858 C 0.76546 0.69562 0.53652 0.0
C859 C 0.72107 0.68178 0.54041 0.0
C860 C 0.78942 0.68869 0.5566 0.0
C861 C 0.70081 0.6594 0.5643 0.0
C862 C 0.7246 0.65332 0.58452 0.0
C863 C 0.79392 0.66545 0.60222 0.0
C864 C 0.83866 0.681 0.59885 0.0
C865 C 0.76912 0.66866 0.58116 0.0
C866 C 0.85786 0.69831 0.57371 0.0
C867 C 0.83365 0.70255 0.55292 0.0
H868 H 0.0911 0.71223 0.70867 0.0
H869 H 0.06321 0.80953 0.67855 0.0
H870 H 0.1204 0.86426 0.70646 0.0
H871 H 0.17548 0.88433 0.74177 0.0
H872 H 0.20218 0.78708 0.77328 0.0
H873 H 0.14869 0.73317 0.74277 0.0
C874 C 0.09782 0.74548 0.70793 0.0
C875 C 0.07245 0.75631 0.69136 0.0
C876 C 0.1305 0.77708 0.72462 0.0
C877 C 0.08187 0.7998 0.69095 0.0
C878 C 0.11464 0.83134 0.70706 0.0
C879 C 0.16994 0.85146 0.74183 0.0
C880 C 0.19291 0.83999 0.76 0.0
C881 C 0.13869 0.82029 0.72434 0.0
C882 C 0.185 0.79704 0.75969 0.0
C883 C 0.15432 0.76604 0.74218 0.0
H884 H 0.30916 0.0786 0.85047 0.0
H885 H 0.38672 0.0368 0.89401 0.0
H886 H 0.39636 0.0864 0.93051 0.0
H887 H 0.3782 0.13793 0.95205 0.0
H888 H 0.30805 0.18626 0.90671 0.0
H889 H 0.30058 0.13856 0.86915 0.0
C890 C 0.3287 0.08076 0.86774 0.0
C891 C 0.34635 0.05302 0.86951 0.0
C892 C 0.33533 0.11055 0.88858 0.0
C893 C 0.37213 0.05702 0.89202 0.0
C894 C 0.3777 0.0855 0.91306 0.0
C895 C 0.36183 0.13846 0.93378 0.0
C896 C 0.34319 0.16523 0.93243 0.0
C897 C 0.3587 0.11177 0.91186 0.0
C898 C 0.32257 0.16591 0.90844 0.0
C899 C 0.31814 0.13846 0.88692 0.0
H900 H 0.64338 0.70392 0.80486 0.0
H901 H 0.75836 0.80283 0.84456 0.0
H902 H 0.75684 0.85845 0.81717 0.0
H903 H 0.72677 0.8794 0.77971 0.0
H904 H 0.61348 0.78166 0.73825 0.0
H905 H 0.6107 0.72582 0.76831 0.0
C906 C 0.66773 0.73766 0.80779 0.0
C907 C 0.70096 0.74873 0.82692 0.0
C908 C 0.66741 0.76999 0.79133 0.0
C909 C 0.73229 0.79288 0.83018 0.0
C910 C 0.73165 0.82498 0.81436 0.0
C911 C 0.70121 0.84596 0.77728 0.0
C912 C 0.67057 0.83496 0.75651 0.0
C913 C 0.69998 0.8139 0.7945 0.0
C914 C 0.63766 0.79129 0.75393 0.0
C915 C 0.63604 0.75921 0.77115 0.0
H916 H 0.8516 0.70376 0.94059 0.0
H917 H 0.85109 0.60074 0.89442 0.0
H918 H 0.90694 0.60232 0.92387 0.0
H919 H 0.95937 0.63617 0.96124 0.0
H920 H 0.96038 0.74087 1.00594 0.0
H921 H 0.90098 0.73501 0.97875 0.0
C922 C 0.86336 0.68134 0.93699 0.0
C923 C 0.84707 0.65231 0.9151 0.0
C924 C 0.89586 0.68276 0.95381 0.0
C925 C 0.86287 0.6235 0.91101 0.0
C926 C 0.89498 0.62445 0.92786 0.0
C927 C 0.94628 0.65736 0.96529 0.0
C928 C 0.96473 0.68898 0.98578 0.0
C929 C 0.91222 0.65439 0.94912 0.0
C930 C 0.94719 0.71622 0.99045 0.0
C931 C 0.91313 0.71301 0.9748 0.0
H932 H 0.32046 0.93715 0.13626 0.0
H933 H 0.21561 0.94854 0.17191 0.0
H934 H 0.16347 0.88968 0.14422 0.0
H935 H 0.14701 0.83825 0.10768 0.0
H936 H 0.25038 0.82811 0.06906 0.0
H937 H 0.30309 0.88268 0.09989 0.0
C938 C 0.28618 0.92636 0.13824 0.0
C939 C 0.27239 0.9475 0.15653 0.0
C940 C 0.2558 0.89277 0.12141 0.0
C941 C 0.22764 0.93307 0.15841 0.0
C942 C 0.19751 0.89933 0.14237 0.0
C943 C 0.18098 0.84752 0.10606 0.0
C944 C 0.19449 0.82896 0.08591 0.0
C945 C 0.21119 0.87946 0.12349 0.0
C946 C 0.23885 0.84175 0.08429 0.0
C947 C 0.26912 0.87311 0.10193 0.0
H948 H 0.39954 0.23529 0.24663 0.0
H949 H 0.28736 0.11835 0.27542 0.0
H950 H 0.27464 0.15951 0.30961 0.0
H951 H 0.29216 0.22902 0.33 0.0
H952 H 0.4057 0.34628 0.30314 0.0
H953 H 0.42109 0.30475 0.27015 0.0
C954 C 0.37252 0.21875 0.26051 0.0
C955 C 0.34415 0.17363 0.25792 0.0
C956 C 0.36544 0.24273 0.28065 0.0
C957 C 0.30958 0.15294 0.27644 0.0
C958 C 0.30219 0.17651 0.29618 0.0
C959 C 0.32061 0.24559 0.31719 0.0
C960 C 0.34735 0.29098 0.31904 0.0
C961 C 0.32946 0.22149 0.29824 0.0
C962 C 0.38427 0.31149 0.30226 0.0
C963 C 0.39307 0.28772 0.28322 0.0
H964 H 0.17282 0.30069 0.43756 0.0
H965 H 0.18838 0.41692 0.39994 0.0
H966 H 0.13582 0.41788 0.43141 0.0
H967 H 0.08237 0.38359 0.46851 0.0
H968 H 0.06646 0.26619 0.5048 0.0
H969 H 0.1223 0.26848 0.47546 0.0
C970 C 0.16497 0.32643 0.43626 0.0
C971 C 0.18459 0.35852 0.41616 0.0
C972 C 0.1345 0.32674 0.45439 0.0
C973 C 0.17385 0.39162 0.41504 0.0
C974 C 0.14371 0.39223 0.4331 0.0
C975 C 0.09145 0.35881 0.47026 0.0
C976 C 0.06976 0.32474 0.48904 0.0
C977 C 0.12341 0.3597 0.45275 0.0
C978 C 0.08222 0.29289 0.49072 0.0
C979 C 0.11421 0.294 0.47378 0.0
H980 H 0.88239 0.17836 0.60977 0.0
H981 H 0.77641 0.1748 0.56557 0.0
H982 H 0.72444 0.12113 0.59722 0.0
H983 H 0.70867 0.07147 0.63603 0.0
H984 H 0.81568 0.07475 0.679 0.0
H985 H 0.86707 0.13217 0.64955 0.0
C986 C 0.84795 0.16619 0.60708 0.0
C987 C 0.83357 0.18069 0.58507 0.0
C988 C 0.81813 0.13499 0.62525 0.0
C989 C 0.78866 0.16439 0.5822 0.0
C990 C 0.7588 0.13353 0.60033 0.0
C991 C 0.74321 0.08514 0.63924 0.0
C992 C 0.7579 0.06836 0.65991 0.0
C993 C 0.77308 0.11807 0.62176 0.0
C994 C 0.80302 0.08662 0.66342 0.0
C995 C 0.83266 0.11955 0.64646 0.0
H996 H 0.17267 0.32977 0.31377 0.0
H997 H 0.28809 0.36258 0.26764 0.0
H998 H 0.24977 0.35719 0.22593 0.0
H999 H 0.18434 0.34685 0.20244 0.0
H1000 H 0.071 0.32018 0.2488 0.0
H1001 H 0.10716 0.31894 0.2903 0.0
C1002 C 0.18927 0.33542 0.29457 0.0
C1003 C 0.23317 0.34669 0.29386 0.0
C1004 C 0.16732 0.3333 0.27061 0.0
C1005 C 0.25439 0.35427 0.26881 0.0
C1006 C 0.23247 0.35104 0.24488 0.0
C1007 C 0.1675 0.34011 0.22162 0.0
C1008 C 0.12513 0.33333 0.22266 0.0
C1009 C 0.18906 0.34104 0.24552 0.0
C1010 C 0.10374 0.32547 0.24762 0.0
C1011 C 0.12439 0.32485 0.27134 0.0
H1012 H 0.84292 0.17368 0.48259 0.0
H1013 H 0.946 0.27438 0.4354 0.0
H1014 H 0.91032 0.237 0.39392 0.0
H1015 H 0.84821 0.17698 0.37073 0.0
H1016 H 0.74264 0.07897 0.41788 0.0
H1017 H 0.78066 0.11369 0.45936 0.0
C1018 C 0.85767 0.18714 0.46322 0.0
C1019 C 0.89702 0.2267 0.46211 0.0
C1020 C 0.83636 0.16601 0.43931 0.0
C1021 C 0.91554 0.24408 0.43683 0.0
C1022 C 0.8952 0.2227 0.41306 0.0
C1023 C 0.83374 0.1631 0.39009 0.0
C1024 C 0.79265 0.12547 0.39114 0.0
C1025 C 0.85535 0.18385 0.414 0.0
C1026 C 0.77411 0.10811 0.41643 0.0
C1027 C 0.79587 0.12789 0.44023 0.0
H1028 H 0.63695 0.88913 0.61605 0.0
H1029 H 0.74572 0.88675 0.65271 0.0
H1030 H 0.75047 0.84666 0.61407 0.0
H1031 H 0.72185 0.80986 0.57036 0.0
H1032 H 0.60998 0.80818 0.53599 0.0
H1033 H 0.6083 0.85249 0.57324 0.0
C1034 C 0.66169 0.87983 0.61576 0.0
C1035 C 0.69072 0.89077 0.63745 0.0
C1036 C 0.66375 0.85619 0.59378 0.0
C1037 C 0.7227 0.87854 0.63644 0.0
C1038 C 0.72553 0.85569 0.61431 0.0
C1039 C 0.69758 0.81984 0.57103 0.0
C1040 C 0.66642 0.80662 0.55054 0.0
C1041 C 0.69606 0.84411 0.59293 0.0
C1042 C 0.63443 0.8186 0.55158 0.0
C1043 C 0.6334 0.84369 0.57286 0.0
H1044 H 0.8462 0.67492 0.70311 0.0
H1045 H 0.94817 0.67311 0.7489 0.0
H1046 H 0.91318 0.67477 0.79085 0.0
H1047 H 0.85224 0.67451 0.81484 0.0
H1048 H 0.74792 0.67137 0.76897 0.0
H1049 H 0.78507 0.67405 0.72704 0.0
C1050 C 0.86088 0.67518 0.72226 0.0
C1051 C 0.89976 0.67393 0.72278 0.0
C1052 C 0.84005 0.67516 0.74643 0.0
C1053 C 0.9181 0.6738 0.74784 0.0
C1054 C 0.89816 0.67485 0.7719 0.0
C1055 C 0.83787 0.67475 0.79566 0.0
C1056 C 0.79741 0.67279 0.79508 0.0
C1057 C 0.85895 0.67522 0.77149 0.0
C1058 C 0.77893 0.6726 0.77003 0.0
C1059 C 0.80019 0.67421 0.74599 0.0
H1060 H 0.26203 0.9147 0.91098 0.0
H1061 H 0.16918 0.83444 0.85095 0.0
H1062 H 0.1194 0.7881 0.88634 0.0
H1063 H 0.10396 0.76884 0.93429 0.0
H1064 H 0.19443 0.85221 0.99446 0.0
H1065 H 0.24346 0.89939 0.95911 0.0
C1066 C 0.23081 0.8871 0.90574 0.0
C1067 C 0.21929 0.87749 0.87853 0.0
C1068 C 0.20205 0.8614 0.92617 0.0
C1069 C 0.17856 0.84226 0.87184 0.0
C1070 C 0.15023 0.81579 0.89202 0.0
C1071 C 0.13426 0.79759 0.93961 0.0
C1072 C 0.14582 0.80701 0.96685 0.0
C1073 C 0.16184 0.82482 0.91924 0.0
C1074 C 0.18484 0.84452 0.97359 0.0
C1075 C 0.21295 0.87129 0.95341 0.0
H1076 H 0.34607 0.1773 0.15073 0.0
H1077 H 0.3408 0.07267 0.10394 0.0
H1078 H 0.34064 0.10897 0.06231 0.0
H1079 H 0.3448 0.17192 0.03885 0.0
H1080 H 0.35524 0.27896 0.08559 0.0
H1081 H 0.35061 0.24056 0.12719 0.0
C1082 C 0.34446 0.16235 0.13141 0.0
C1083 C 0.34337 0.12234 0.13046 0.0
C1084 C 0.34561 0.18404 0.10739 0.0
C1085 C 0.34189 0.10359 0.10524 0.0
C1086 C 0.34176 0.12431 0.08138 0.0
C1087 C 0.34583 0.18671 0.05813 0.0
C1088 C 0.35043 0.22832 0.05897 0.0
C1089 C 0.34409 0.16479 0.08215 0.0
C1090 C 0.35205 0.24712 0.08423 0.0
C1091 C 0.34928 0.22511 0.10812 0.0
loop_
_geom_bond_atom_site_label_1
_geom_bond_atom_site_label_2
_geom_bond_distance
_geom_bond_site_symmetry_2
_ccdc_geom_bond_type
Co0 O2 2.143 . S
Co0 O8 2.074 . S
Co0 O11 2.093 . S
Co0 O24 2.097 . S
Co0 N41 2.151 . S
Co0 N49 2.214 . S
Co1 O2 2.160 . S
Co1 O7 2.058 . S
Co1 O17 2.057 . S
Co1 O32 2.037 . S
Co1 N36 2.145 . S
Co1 N57 2.257 . S
O2 Co0 2.143 . S
O2 Co1 2.160 . S
C3 O4 1.278 . S
C3 O11 1.224 . S
O4 C3 1.278 . S
C5 O6 1.245 . S
C5 O17 1.232 . S
O6 C5 1.245 . S
O7 Co1 2.058 . S
O7 C33 1.269 . S
O8 Co0 2.074 . S
O8 C33 1.257 . S
H9 C34 0.930 . S
H10 C40 0.930 . S
O11 Co0 2.093 . S
O11 C3 1.224 . S
H12 C44 0.929 . S
H13 C46 0.930 . S
H14 C47 0.930 . S
H15 C45 0.929 . S
H16 C48 0.928 . S
O17 Co1 2.057 . S
O17 C5 1.232 . S
H18 C37 0.929 . S
H19 C38 0.929 . S
H20 C50 0.931 . S
H21 C42 0.929 . S
H22 C51 0.930 . S
H23 C43 0.931 . S
O24 Co0 2.097 . S
O24 C52 1.214 . S
H25 C53 0.929 . S
H26 C54 0.929 . S
H27 C55 0.930 . S
H28 C56 0.929 . S
H29 C58 0.930 . S
H30 C35 0.930 . S
H31 C39 0.930 . S
O32 Co1 2.037 . S
O32 C52 1.234 . S
C33 O7 1.269 . S
C33 O8 1.257 . S
C34 H9 0.930 . S
C34 C37 1.388 . S
C34 C39 1.418 . S
C35 H30 0.930 . S
C35 C38 1.404 . S
C35 C39 1.353 . S
N36 Co1 2.145 . S
N36 C37 1.397 . S
N36 C38 1.334 . S
C37 H18 0.929 . S
C37 C34 1.388 . S
C37 N36 1.397 . S
C38 H19 0.929 . S
C38 C35 1.404 . S
C38 N36 1.334 . S
C39 H31 0.930 . S
C39 C34 1.418 . S
C39 C35 1.353 . S
C40 H10 0.930 . S
C40 N41 1.330 . S
C40 C42 1.446 . S
N41 Co0 2.151 . S
N41 C40 1.330 . S
N41 C45 1.418 1_455 S
C42 H21 0.929 . S
C42 C40 1.446 . S
C42 C43 1.332 1_455 S
C43 H23 0.931 . S
C43 C42 1.332 1_655 S
C43 C44 1.267 . S
C44 H12 0.929 . S
C44 C43 1.267 . S
C44 C45 1.251 . S
C45 H15 0.929 . S
C45 N41 1.418 1_655 S
C45 C44 1.251 . S
C46 H13 0.930 . S
C46 C48 1.406 . S
C46 C51 1.261 . S
C47 H14 0.930 . S
C47 N49 1.325 . S
C47 C50 1.357 . S
C48 H16 0.928 . S
C48 C46 1.406 . S
C48 N49 1.261 . S
N49 Co0 2.214 . S
N49 C47 1.325 . S
N49 C48 1.261 . S
C50 H20 0.931 . S
C50 C47 1.357 . S
C50 C51 1.312 . S
C51 H22 0.930 . S
C51 C46 1.261 . S
C51 C50 1.312 . S
C52 O24 1.214 . S
C52 O32 1.234 . S
C53 H25 0.929 . S
C53 C56 1.391 . S
C53 C58 1.391 . S
C54 H26 0.929 . S
C54 C55 1.390 . S
C54 N57 1.391 . S
C55 H27 0.930 . S
C55 C54 1.390 . S
C55 C56 1.392 . S
C56 H28 0.929 . S
C56 C53 1.391 . S
C56 C55 1.392 . S
N57 Co1 2.257 . S
N57 C54 1.391 . S
N57 C58 1.388 . S
C58 H29 0.930 . S
C58 C53 1.391 . S
C58 N57 1.388 . S
Co59 O61 2.143 . S
Co59 O67 2.074 . S
Co59 O70 2.093 . S
Co59 O83 2.097 . S
Co59 N100 2.151 . S
Co59 N108 2.214 . S
Co60 O61 2.160 . S
Co60 O66 2.058 . S
Co60 O76 2.057 . S
Co60 O91 2.037 . S
Co60 N95 2.145 . S
Co60 N116 2.257 . S
O61 Co59 2.143 . S
O61 Co60 2.160 . S
C62 O63 1.278 . S
C62 O70 1.224 . S
O63 C62 1.278 . S
C64 O65 1.245 . S
C64 O76 1.232 . S
O65 C64 1.245 . S
O66 Co60 2.058 . S
O66 C92 1.269 . S
O67 Co59 2.074 . S
O67 C92 1.257 . S
H68 C93 0.930 . S
H69 C99 0.930 . S
O70 Co59 2.093 . S
O70 C62 1.224 . S
H71 C103 0.929 . S
H72 C105 0.930 . S
H73 C106 0.930 . S
H74 C104 0.929 . S
H75 C107 0.928 . S
O76 Co60 2.057 . S
O76 C64 1.232 . S
H77 C96 0.929 . S
H78 C97 0.929 . S
H79 C109 0.931 . S
H80 C101 0.929 . S
H81 C110 0.930 . S
H82 C102 0.931 . S
O83 Co59 2.097 . S
O83 C111 1.214 . S
H84 C112 0.929 . S
H85 C113 0.929 . S
H86 C114 0.930 . S
H87 C115 0.929 . S
H88 C117 0.930 . S
H89 C94 0.930 . S
H90 C98 0.930 . S
O91 Co60 2.037 . S
O91 C111 1.234 . S
C92 O66 1.269 . S
C92 O67 1.257 . S
C93 H68 0.930 . S
C93 C96 1.388 . S
C93 C98 1.418 . S
C94 H89 0.930 . S
C94 C97 1.404 . S
C94 C98 1.353 . S
N95 Co60 2.145 . S
N95 C96 1.397 . S
N95 C97 1.334 . S
C96 H77 0.929 . S
C96 C93 1.388 . S
C96 N95 1.397 . S
C97 H78 0.929 . S
C97 C94 1.404 . S
C97 N95 1.334 . S
C98 H90 0.930 . S
C98 C93 1.418 . S
C98 C94 1.353 . S
C99 H69 0.930 . S
C99 N100 1.330 . S
C99 C101 1.446 . S
N100 Co59 2.151 . S
N100 C99 1.330 . S
N100 C104 1.418 1_545 S
C101 H80 0.929 . S
C101 C99 1.446 . S
C101 C102 1.332 1_545 S
C102 H82 0.931 . S
C102 C101 1.332 1_565 S
C102 C103 1.267 . S
C103 H71 0.929 . S
C103 C102 1.267 . S
C103 C104 1.251 . S
C104 H74 0.929 . S
C104 N100 1.418 1_565 S
C104 C103 1.251 . S
C105 H72 0.930 . S
C105 C107 1.406 . S
C105 C110 1.261 . S
C106 H73 0.930 . S
C106 N108 1.325 . S
C106 C109 1.357 . S
C107 H75 0.928 . S
C107 C105 1.406 . S
C107 N108 1.261 . S
N108 Co59 2.214 . S
N108 C106 1.325 . S
N108 C107 1.261 . S
C109 H79 0.931 . S
C109 C106 1.357 . S
C109 C110 1.312 . S
C110 H81 0.930 . S
C110 C105 1.261 . S
C110 C109 1.312 . S
C111 O83 1.214 . S
C111 O91 1.234 . S
C112 H84 0.929 . S
C112 C115 1.391 . S
C112 C117 1.391 . S
C113 H85 0.929 . S
C113 C114 1.390 . S
C113 N116 1.391 . S
C114 H86 0.930 . S
C114 C113 1.390 . S
C114 C115 1.392 . S
C115 H87 0.929 . S
C115 C112 1.391 . S
C115 C114 1.392 . S
N116 Co60 2.257 . S
N116 C113 1.391 . S
N116 C117 1.388 . S
C117 H88 0.930 . S
C117 C112 1.391 . S
C117 N116 1.388 . S
Co118 O120 2.143 . S
Co118 O126 2.074 . S
Co118 O129 2.093 . S
Co118 O142 2.097 . S
Co118 N159 2.151 . S
Co118 N167 2.214 . S
Co119 O120 2.160 . S
Co119 O125 2.058 . S
Co119 O135 2.057 . S
Co119 O150 2.037 . S
Co119 N154 2.145 . S
Co119 N175 2.257 . S
O120 Co118 2.143 . S
O120 Co119 2.160 . S
C121 O122 1.278 . S
C121 O129 1.224 . S
O122 C121 1.278 . S
C123 O124 1.245 . S
C123 O135 1.232 . S
O124 C123 1.245 . S
O125 Co119 2.058 . S
O125 C151 1.269 . S
O126 Co118 2.074 . S
O126 C151 1.257 . S
H127 C152 0.930 . S
H128 C158 0.930 . S
O129 Co118 2.093 . S
O129 C121 1.224 . S
H130 C162 0.929 . S
H131 C164 0.930 . S
H132 C165 0.930 . S
H133 C163 0.929 . S
H134 C166 0.928 . S
O135 Co119 2.057 . S
O135 C123 1.232 . S
H136 C155 0.929 . S
H137 C156 0.929 . S
H138 C168 0.931 . S
H139 C160 0.929 . S
H140 C169 0.930 . S
H141 C161 0.931 . S
O142 Co118 2.097 . S
O142 C170 1.214 . S
H143 C171 0.929 . S
H144 C172 0.929 . S
H145 C173 0.930 . S
H146 C174 0.929 . S
H147 C176 0.930 . S
H148 C153 0.930 . S
H149 C157 0.930 . S
O150 Co119 2.037 . S
O150 C170 1.234 . S
C151 O125 1.269 . S
C151 O126 1.257 . S
C152 H127 0.930 . S
C152 C155 1.388 . S
C152 C157 1.418 . S
C153 H148 0.930 . S
C153 C156 1.404 . S
C153 C157 1.353 . S
N154 Co119 2.145 . S
N154 C155 1.397 . S
N154 C156 1.334 . S
C155 H136 0.929 . S
C155 C152 1.388 . S
C155 N154 1.397 . S
C156 H137 0.929 . S
C156 C153 1.404 . S
C156 N154 1.334 . S
C157 H149 0.930 . S
C157 C152 1.418 . S
C157 C153 1.353 . S
C158 H128 0.930 . S
C158 N159 1.330 . S
C158 C160 1.446 . S
N159 Co118 2.151 . S
N159 C158 1.330 . S
N159 C163 1.418 . S
C160 H139 0.929 . S
C160 C158 1.446 . S
C160 C161 1.332 . S
C161 H141 0.931 . S
C161 C160 1.332 . S
C161 C162 1.267 . S
C162 H130 0.929 . S
C162 C161 1.267 . S
C162 C163 1.251 . S
C163 H133 0.929 . S
C163 N159 1.418 . S
C163 C162 1.251 . S
C164 H131 0.930 . S
C164 C166 1.406 . S
C164 C169 1.261 . S
C165 H132 0.930 . S
C165 N167 1.325 . S
C165 C168 1.357 . S
C166 H134 0.928 . S
C166 C164 1.406 . S
C166 N167 1.261 . S
N167 Co118 2.214 . S
N167 C165 1.325 . S
N167 C166 1.261 . S
C168 H138 0.931 . S
C168 C165 1.357 . S
C168 C169 1.312 . S
C169 H140 0.930 . S
C169 C164 1.261 . S
C169 C168 1.312 . S
C170 O142 1.214 . S
C170 O150 1.234 . S
C171 H143 0.929 . S
C171 C174 1.391 . S
C171 C176 1.391 . S
C172 H144 0.929 . S
C172 C173 1.390 . S
C172 N175 1.391 . S
C173 H145 0.930 . S
C173 C172 1.390 . S
C173 C174 1.392 . S
C174 H146 0.929 . S
C174 C171 1.391 . S
C174 C173 1.392 . S
N175 Co119 2.257 . S
N175 C172 1.391 . S
N175 C176 1.388 . S
C176 H147 0.930 . S
C176 C171 1.391 . S
C176 N175 1.388 . S
Co177 O179 2.143 . S
Co177 O185 2.074 . S
Co177 O188 2.093 . S
Co177 O201 2.097 . S
Co177 N218 2.151 . S
Co177 N226 2.214 . S
Co178 O179 2.160 . S
Co178 O184 2.058 . S
Co178 O194 2.057 . S
Co178 O209 2.037 . S
Co178 N213 2.145 . S
Co178 N234 2.257 . S
O179 Co177 2.143 . S
O179 Co178 2.160 . S
C180 O181 1.278 . S
C180 O188 1.224 . S
O181 C180 1.278 . S
C182 O183 1.245 . S
C182 O194 1.232 . S
O183 C182 1.245 . S
O184 Co178 2.058 . S
O184 C210 1.269 . S
O185 Co177 2.074 . S
O185 C210 1.257 . S
H186 C211 0.930 . S
H187 C217 0.930 . S
O188 Co177 2.093 . S
O188 C180 1.224 . S
H189 C221 0.929 . S
H190 C223 0.930 . S
H191 C224 0.930 . S
H192 C222 0.929 . S
H193 C225 0.928 . S
O194 Co178 2.057 . S
O194 C182 1.232 . S
H195 C214 0.929 . S
H196 C215 0.929 . S
H197 C227 0.931 . S
H198 C219 0.929 . S
H199 C228 0.930 . S
H200 C220 0.931 . S
O201 Co177 2.097 . S
O201 C229 1.214 . S
H202 C230 0.929 . S
H203 C231 0.929 . S
H204 C232 0.930 . S
H205 C233 0.929 . S
H206 C235 0.930 . S
H207 C212 0.930 . S
H208 C216 0.930 . S
O209 Co178 2.037 . S
O209 C229 1.234 . S
C210 O184 1.269 . S
C210 O185 1.257 . S
C211 H186 0.930 . S
C211 C214 1.388 . S
C211 C216 1.418 . S
C212 H207 0.930 . S
C212 C215 1.404 . S
C212 C216 1.353 . S
N213 Co178 2.145 . S
N213 C214 1.397 . S
N213 C215 1.334 . S
C214 H195 0.929 . S
C214 C211 1.388 . S
C214 N213 1.397 . S
C215 H196 0.929 . S
C215 C212 1.404 . S
C215 N213 1.334 . S
C216 H208 0.930 . S
C216 C211 1.418 . S
C216 C212 1.353 . S
C217 H187 0.930 . S
C217 N218 1.330 . S
C217 C219 1.446 . S
N218 Co177 2.151 . S
N218 C217 1.330 . S
N218 C222 1.418 1_655 S
C219 H198 0.929 . S
C219 C217 1.446 . S
C219 C220 1.332 1_655 S
C220 H200 0.931 . S
C220 C219 1.332 1_455 S
C220 C221 1.267 . S
C221 H189 0.929 . S
C221 C220 1.267 . S
C221 C222 1.251 . S
C222 H192 0.929 . S
C222 N218 1.418 1_455 S
C222 C221 1.251 . S
C223 H190 0.930 . S
C223 C225 1.406 . S
C223 C228 1.261 . S
C224 H191 0.930 . S
C224 N226 1.325 . S
C224 C227 1.357 . S
C225 H193 0.928 . S
C225 C223 1.406 . S
C225 N226 1.261 . S
N226 Co177 2.214 . S
N226 C224 1.325 . S
N226 C225 1.261 . S
C227 H197 0.931 . S
C227 C224 1.357 . S
C227 C228 1.312 . S
C228 H199 0.930 . S
C228 C223 1.261 . S
C228 C227 1.312 . S
C229 O201 1.214 . S
C229 O209 1.234 . S
C230 H202 0.929 . S
C230 C233 1.391 . S
C230 C235 1.391 . S
C231 H203 0.929 . S
C231 C232 1.390 . S
C231 N234 1.391 . S
C232 H204 0.930 . S
C232 C231 1.390 . S
C232 C233 1.392 . S
C233 H205 0.929 . S
C233 C230 1.391 . S
C233 C232 1.392 . S
N234 Co178 2.257 . S
N234 C231 1.391 . S
N234 C235 1.388 . S
C235 H206 0.930 . S
C235 C230 1.391 . S
C235 N234 1.388 . S
Co236 O238 2.143 . S
Co236 O244 2.074 . S
Co236 O247 2.093 . S
Co236 O260 2.097 . S
Co236 N277 2.151 . S
Co236 N285 2.214 . S
Co237 O238 2.160 . S
Co237 O243 2.058 . S
Co237 O253 2.057 . S
Co237 O268 2.037 . S
Co237 N272 2.145 . S
Co237 N293 2.257 . S
O238 Co236 2.143 . S
O238 Co237 2.160 . S
C239 O240 1.278 . S
C239 O247 1.224 . S
O240 C239 1.278 . S
C241 O242 1.245 . S
C241 O253 1.232 . S
O242 C241 1.245 . S
O243 Co237 2.058 . S
O243 C269 1.269 . S
O244 Co236 2.074 . S
O244 C269 1.257 . S
H245 C270 0.930 . S
H246 C276 0.930 . S
O247 Co236 2.093 . S
O247 C239 1.224 . S
H248 C280 0.929 . S
H249 C282 0.930 . S
H250 C283 0.930 . S
H251 C281 0.929 . S
H252 C284 0.928 . S
O253 Co237 2.057 . S
O253 C241 1.232 . S
H254 C273 0.929 . S
H255 C274 0.929 . S
H256 C286 0.931 . S
H257 C278 0.929 . S
H258 C287 0.930 . S
H259 C279 0.931 . S
O260 Co236 2.097 . S
O260 C288 1.214 . S
H261 C289 0.929 . S
H262 C290 0.929 . S
H263 C291 0.930 . S
H264 C292 0.929 . S
H265 C294 0.930 . S
H266 C271 0.930 . S
H267 C275 0.930 . S
O268 Co237 2.037 . S
O268 C288 1.234 . S
C269 O243 1.269 . S
C269 O244 1.257 . S
C270 H245 0.930 . S
C270 C273 1.388 . S
C270 C275 1.418 . S
C271 H266 0.930 . S
C271 C274 1.404 . S
C271 C275 1.353 . S
N272 Co237 2.145 . S
N272 C273 1.397 . S
N272 C274 1.334 . S
C273 H254 0.929 . S
C273 C270 1.388 . S
C273 N272 1.397 . S
C274 H255 0.929 . S
C274 C271 1.404 . S
C274 N272 1.334 . S
C275 H267 0.930 . S
C275 C270 1.418 . S
C275 C271 1.353 . S
C276 H246 0.930 . S
C276 N277 1.330 . S
C276 C278 1.446 . S
N277 Co236 2.151 . S
N277 C276 1.330 . S
N277 C281 1.418 1_565 S
C278 H257 0.929 . S
C278 C276 1.446 . S
C278 C279 1.332 1_565 S
C279 H259 0.931 . S
C279 C278 1.332 1_545 S
C279 C280 1.267 . S
C280 H248 0.929 . S
C280 C279 1.267 . S
C280 C281 1.251 . S
C281 H251 0.929 . S
C281 N277 1.418 1_545 S
C281 C280 1.251 . S
C282 H249 0.930 . S
C282 C284 1.406 . S
C282 C287 1.261 . S
C283 H250 0.930 . S
C283 N285 1.325 . S
C283 C286 1.357 . S
C284 H252 0.928 . S
C284 C282 1.406 . S
C284 N285 1.261 . S
N285 Co236 2.214 . S
N285 C283 1.325 . S
N285 C284 1.261 . S
C286 H256 0.931 . S
C286 C283 1.357 . S
C286 C287 1.312 . S
C287 H258 0.930 . S
C287 C282 1.261 . S
C287 C286 1.312 . S
C288 O260 1.214 . S
C288 O268 1.234 . S
C289 H261 0.929 . S
C289 C292 1.391 . S
C289 C294 1.391 . S
C290 H262 0.929 . S
C290 C291 1.390 . S
C290 N293 1.391 . S
C291 H263 0.930 . S
C291 C290 1.390 . S
C291 C292 1.392 . S
C292 H264 0.929 . S
C292 C289 1.391 . S
C292 C291 1.392 . S
N293 Co237 2.257 . S
N293 C290 1.391 . S
N293 C294 1.388 . S
C294 H265 0.930 . S
C294 C289 1.391 . S
C294 N293 1.388 . S
Co295 O297 2.143 . S
Co295 O303 2.074 . S
Co295 O306 2.093 . S
Co295 O319 2.097 . S
Co295 N336 2.151 . S
Co295 N344 2.214 . S
Co296 O297 2.160 . S
Co296 O302 2.058 . S
Co296 O312 2.057 . S
Co296 O327 2.037 1_556 S
Co296 N331 2.145 1_556 S
Co296 N352 2.257 . S
O297 Co295 2.143 . S
O297 Co296 2.160 . S
C298 O299 1.278 . S
C298 O306 1.224 . S
O299 C298 1.278 . S
C300 O301 1.245 . S
C300 O312 1.232 . S
O301 C300 1.245 . S
O302 Co296 2.058 . S
O302 C328 1.269 . S
O303 Co295 2.074 . S
O303 C328 1.257 . S
H304 C329 0.930 . S
H305 C335 0.930 . S
O306 Co295 2.093 . S
O306 C298 1.224 . S
H307 C339 0.929 . S
H308 C341 0.930 . S
H309 C342 0.930 . S
H310 C340 0.929 . S
H311 C343 0.928 . S
O312 Co296 2.057 . S
O312 C300 1.232 . S
H313 C332 0.929 . S
H314 C333 0.929 1_556 S
H315 C345 0.931 . S
H316 C337 0.929 . S
H317 C346 0.930 1_554 S
H318 C338 0.931 . S
O319 Co295 2.097 . S
O319 C347 1.214 1_556 S
H320 C348 0.929 . S
H321 C349 0.929 . S
H322 C350 0.927 1_554 S
H323 C351 0.929 . S
H324 C353 0.930 . S
H325 C330 0.930 . S
H326 C334 0.930 . S
O327 Co296 2.037 1_554 S
O327 C347 1.234 . S
C328 O302 1.269 . S
C328 O303 1.257 . S
C329 H304 0.930 . S
C329 C332 1.388 . S
C329 C334 1.418 . S
C330 H325 0.930 . S
C330 C333 1.404 . S
C330 C334 1.353 . S
N331 Co296 2.145 1_554 S
N331 C332 1.397 . S
N331 C333 1.334 . S
C332 H313 0.929 . S
C332 C329 1.388 . S
C332 N331 1.397 . S
C333 H314 0.929 1_554 S
C333 C330 1.404 . S
C333 N331 1.334 . S
C334 H326 0.930 . S
C334 C329 1.418 . S
C334 C330 1.353 . S
C335 H305 0.930 . S
C335 N336 1.330 . S
C335 C337 1.446 . S
N336 Co295 2.151 . S
N336 C335 1.330 . S
N336 C340 1.418 . S
C337 H316 0.929 . S
C337 C335 1.446 . S
C337 C338 1.332 . S
C338 H318 0.931 . S
C338 C337 1.332 . S
C338 C339 1.267 . S
C339 H307 0.929 . S
C339 C338 1.267 . S
C339 C340 1.251 . S
C340 H310 0.929 . S
C340 N336 1.418 . S
C340 C339 1.251 . S
C341 H308 0.930 . S
C341 C343 1.406 . S
C341 C346 1.261 . S
C342 H309 0.930 . S
C342 N344 1.325 1_554 S
C342 C345 1.357 . S
C343 H311 0.928 . S
C343 C341 1.406 . S
C343 N344 1.261 . S
N344 Co295 2.214 . S
N344 C342 1.325 1_556 S
N344 C343 1.261 . S
C345 H315 0.931 . S
C345 C342 1.357 . S
C345 C346 1.312 1_554 S
C346 H317 0.930 1_556 S
C346 C341 1.261 . S
C346 C345 1.312 1_556 S
C347 O319 1.214 1_554 S
C347 O327 1.234 . S
C348 H320 0.929 . S
C348 C351 1.391 . S
C348 C353 1.391 . S
C349 H321 0.929 . S
C349 C350 1.390 1_554 S
C349 N352 1.391 1_554 S
C350 H322 0.927 1_556 S
C350 C349 1.390 1_556 S
C350 C351 1.395 . S
C351 H323 0.929 . S
C351 C348 1.391 . S
C351 C350 1.395 . S
N352 Co296 2.257 . S
N352 C349 1.391 1_556 S
N352 C353 1.388 . S
C353 H324 0.930 . S
C353 C348 1.391 . S
C353 N352 1.388 . S
Co354 O356 2.143 . S
Co354 O362 2.074 . S
Co354 O365 2.093 . S
Co354 O378 2.097 . S
Co354 N395 2.151 . S
Co354 N403 2.214 . S
Co355 O356 2.160 . S
Co355 O361 2.058 . S
Co355 O371 2.057 . S
Co355 O386 2.037 . S
Co355 N390 2.145 . S
Co355 N411 2.257 . S
O356 Co354 2.143 . S
O356 Co355 2.160 . S
C357 O358 1.278 . S
C357 O365 1.224 . S
O358 C357 1.278 . S
C359 O360 1.245 . S
C359 O371 1.232 . S
O360 C359 1.245 . S
O361 Co355 2.058 . S
O361 C387 1.269 . S
O362 Co354 2.074 . S
O362 C387 1.257 . S
H363 C388 0.930 . S
H364 C394 0.930 . S
O365 Co354 2.093 . S
O365 C357 1.224 . S
H366 C398 0.929 . S
H367 C400 0.930 . S
H368 C401 0.930 . S
H369 C399 0.929 . S
H370 C402 0.928 . S
O371 Co355 2.057 . S
O371 C359 1.232 . S
H372 C391 0.929 . S
H373 C392 0.929 . S
H374 C404 0.931 . S
H375 C396 0.929 . S
H376 C405 0.930 . S
H377 C397 0.931 . S
O378 Co354 2.097 . S
O378 C406 1.214 . S
H379 C407 0.929 . S
H380 C408 0.929 . S
H381 C409 0.930 . S
H382 C410 0.929 . S
H383 C412 0.930 . S
H384 C389 0.930 . S
H385 C393 0.930 . S
O386 Co355 2.037 . S
O386 C406 1.234 . S
C387 O361 1.269 . S
C387 O362 1.257 . S
C388 H363 0.930 . S
C388 C391 1.388 . S
C388 C393 1.418 . S
C389 H384 0.930 . S
C389 C392 1.404 . S
C389 C393 1.353 . S
N390 Co355 2.145 . S
N390 C391 1.397 . S
N390 C392 1.334 . S
C391 H372 0.929 . S
C391 C388 1.388 . S
C391 N390 1.397 . S
C392 H373 0.929 . S
C392 C389 1.404 . S
C392 N390 1.334 . S
C393 H385 0.930 . S
C393 C388 1.418 . S
C393 C389 1.353 . S
C394 H364 0.930 . S
C394 N395 1.330 . S
C394 C396 1.446 . S
N395 Co354 2.151 . S
N395 C394 1.330 . S
N395 C399 1.418 1_565 S
C396 H375 0.929 . S
C396 C394 1.446 . S
C396 C397 1.332 1_565 S
C397 H377 0.931 . S
C397 C396 1.332 1_545 S
C397 C398 1.267 . S
C398 H366 0.929 . S
C398 C397 1.267 . S
C398 C399 1.251 . S
C399 H369 0.929 . S
C399 N395 1.418 1_545 S
C399 C398 1.251 . S
C400 H367 0.930 . S
C400 C402 1.406 . S
C400 C405 1.261 . S
C401 H368 0.930 . S
C401 N403 1.325 . S
C401 C404 1.357 . S
C402 H370 0.928 . S
C402 C400 1.406 . S
C402 N403 1.261 . S
N403 Co354 2.214 . S
N403 C401 1.325 . S
N403 C402 1.261 . S
C404 H374 0.931 . S
C404 C401 1.357 . S
C404 C405 1.312 . S
C405 H376 0.930 . S
C405 C400 1.261 . S
C405 C404 1.312 . S
C406 O378 1.214 . S
C406 O386 1.234 . S
C407 H379 0.929 . S
C407 C410 1.391 . S
C407 C412 1.391 . S
C408 H380 0.929 . S
C408 C409 1.390 . S
C408 N411 1.391 . S
C409 H381 0.930 . S
C409 C408 1.390 . S
C409 C410 1.392 . S
C410 H382 0.929 . S
C410 C407 1.391 . S
C410 C409 1.392 . S
N411 Co355 2.257 . S
N411 C408 1.391 . S
N411 C412 1.388 . S
C412 H383 0.930 . S
C412 C407 1.391 . S
C412 N411 1.388 . S
Co413 O415 2.143 . S
Co413 O421 2.074 . S
Co413 O424 2.093 . S
Co413 O437 2.097 . S
Co413 N454 2.151 . S
Co413 N462 2.214 . S
Co414 O415 2.160 . S
Co414 O420 2.058 . S
Co414 O430 2.057 . S
Co414 O445 2.037 . S
Co414 N449 2.145 . S
Co414 N470 2.257 . S
O415 Co413 2.143 . S
O415 Co414 2.160 . S
C416 O417 1.278 . S
C416 O424 1.224 . S
O417 C416 1.278 . S
C418 O419 1.245 . S
C418 O430 1.232 . S
O419 C418 1.245 . S
O420 Co414 2.058 . S
O420 C446 1.269 . S
O421 Co413 2.074 . S
O421 C446 1.257 . S
H422 C447 0.930 . S
H423 C453 0.930 . S
O424 Co413 2.093 . S
O424 C416 1.224 . S
H425 C457 0.929 . S
H426 C459 0.930 . S
H427 C460 0.930 . S
H428 C458 0.929 . S
H429 C461 0.928 . S
O430 Co414 2.057 . S
O430 C418 1.232 . S
H431 C450 0.929 . S
H432 C451 0.929 . S
H433 C463 0.931 . S
H434 C455 0.929 . S
H435 C464 0.930 . S
H436 C456 0.931 . S
O437 Co413 2.097 . S
O437 C465 1.214 . S
H438 C466 0.929 . S
H439 C467 0.929 . S
H440 C468 0.930 . S
H441 C469 0.929 . S
H442 C471 0.930 . S
H443 C448 0.930 . S
H444 C452 0.930 . S
O445 Co414 2.037 . S
O445 C465 1.234 . S
C446 O420 1.269 . S
C446 O421 1.257 . S
C447 H422 0.930 . S
C447 C450 1.388 . S
C447 C452 1.418 . S
C448 H443 0.930 . S
C448 C451 1.404 . S
C448 C452 1.353 . S
N449 Co414 2.145 . S
N449 C450 1.397 . S
N449 C451 1.334 . S
C450 H431 0.929 . S
C450 C447 1.388 . S
C450 N449 1.397 . S
C451 H432 0.929 . S
C451 C448 1.404 . S
C451 N449 1.334 . S
C452 H444 0.930 . S
C452 C447 1.418 . S
C452 C448 1.353 . S
C453 H423 0.930 . S
C453 N454 1.330 . S
C453 C455 1.446 . S
N454 Co413 2.151 . S
N454 C453 1.330 . S
N454 C458 1.418 . S
C455 H434 0.929 . S
C455 C453 1.446 . S
C455 C456 1.332 . S
C456 H436 0.931 . S
C456 C455 1.332 . S
C456 C457 1.267 . S
C457 H425 0.929 . S
C457 C456 1.267 . S
C457 C458 1.251 . S
C458 H428 0.929 . S
C458 N454 1.418 . S
C458 C457 1.251 . S
C459 H426 0.930 . S
C459 C461 1.406 . S
C459 C464 1.261 . S
C460 H427 0.930 . S
C460 N462 1.325 . S
C460 C463 1.357 . S
C461 H429 0.928 . S
C461 C459 1.406 . S
C461 N462 1.261 . S
N462 Co413 2.214 . S
N462 C460 1.325 . S
N462 C461 1.261 . S
C463 H433 0.931 . S
C463 C460 1.357 . S
C463 C464 1.312 . S
C464 H435 0.930 . S
C464 C459 1.261 . S
C464 C463 1.312 . S
C465 O437 1.214 . S
C465 O445 1.234 . S
C466 H438 0.929 . S
C466 C469 1.391 . S
C466 C471 1.391 . S
C467 H439 0.929 . S
C467 C468 1.390 . S
C467 N470 1.391 . S
C468 H440 0.930 . S
C468 C467 1.390 . S
C468 C469 1.392 . S
C469 H441 0.929 . S
C469 C466 1.391 . S
C469 C468 1.392 . S
N470 Co414 2.257 . S
N470 C467 1.391 . S
N470 C471 1.388 . S
C471 H442 0.930 . S
C471 C466 1.391 . S
C471 N470 1.388 . S
Co472 O474 2.143 . S
Co472 O480 2.074 . S
Co472 O483 2.093 . S
Co472 O496 2.097 . S
Co472 N513 2.151 . S
Co472 N521 2.214 . S
Co473 O474 2.160 . S
Co473 O479 2.058 . S
Co473 O489 2.057 . S
Co473 O504 2.037 1_554 S
Co473 N508 2.145 1_554 S
Co473 N529 2.257 . S
O474 Co472 2.143 . S
O474 Co473 2.160 . S
C475 O476 1.278 . S
C475 O483 1.224 . S
O476 C475 1.278 . S
C477 O478 1.245 . S
C477 O489 1.232 . S
O478 C477 1.245 . S
O479 Co473 2.058 . S
O479 C505 1.269 . S
O480 Co472 2.074 . S
O480 C505 1.257 . S
H481 C506 0.930 . S
H482 C512 0.930 . S
O483 Co472 2.093 . S
O483 C475 1.224 . S
H484 C516 0.929 . S
H485 C518 0.930 . S
H486 C519 0.930 . S
H487 C517 0.929 . S
H488 C520 0.928 . S
O489 Co473 2.057 . S
O489 C477 1.232 . S
H490 C509 0.929 . S
H491 C510 0.929 1_554 S
H492 C522 0.931 . S
H493 C514 0.929 . S
H494 C523 0.930 1_556 S
H495 C515 0.931 . S
O496 Co472 2.097 . S
O496 C524 1.214 1_554 S
H497 C525 0.929 . S
H498 C526 0.929 . S
H499 C527 0.915 1_556 S
H500 C528 0.929 . S
H501 C530 0.930 . S
H502 C507 0.930 . S
H503 C511 0.930 . S
O504 Co473 2.037 1_556 S
O504 C524 1.234 . S
C505 O479 1.269 . S
C505 O480 1.257 . S
C506 H481 0.930 . S
C506 C509 1.388 . S
C506 C511 1.418 . S
C507 H502 0.930 . S
C507 C510 1.404 . S
C507 C511 1.353 . S
N508 Co473 2.145 1_556 S
N508 C509 1.397 . S
N508 C510 1.334 . S
C509 H490 0.929 . S
C509 C506 1.388 . S
C509 N508 1.397 . S
C510 H491 0.929 1_556 S
C510 C507 1.404 . S
C510 N508 1.334 . S
C511 H503 0.930 . S
C511 C506 1.418 . S
C511 C507 1.353 . S
C512 H482 0.930 . S
C512 N513 1.330 . S
C512 C514 1.446 . S
N513 Co472 2.151 . S
N513 C512 1.330 . S
N513 C517 1.418 1_455 S
C514 H493 0.929 . S
C514 C512 1.446 . S
C514 C515 1.332 1_455 S
C515 H495 0.931 . S
C515 C514 1.332 1_655 S
C515 C516 1.267 . S
C516 H484 0.929 . S
C516 C515 1.267 . S
C516 C517 1.251 . S
C517 H487 0.929 . S
C517 N513 1.418 1_655 S
C517 C516 1.251 . S
C518 H485 0.930 . S
C518 C520 1.406 . S
C518 C523 1.261 . S
C519 H486 0.930 . S
C519 N521 1.325 1_556 S
C519 C522 1.357 . S
C520 H488 0.928 . S
C520 C518 1.406 . S
C520 N521 1.261 . S
N521 Co472 2.214 . S
N521 C519 1.325 1_554 S
N521 C520 1.261 . S
C522 H492 0.931 . S
C522 C519 1.357 . S
C522 C523 1.312 1_556 S
C523 H494 0.930 1_554 S
C523 C518 1.261 . S
C523 C522 1.312 1_554 S
C524 O496 1.214 1_556 S
C524 O504 1.234 . S
C525 H497 0.929 . S
C525 C528 1.391 . S
C525 C530 1.391 . S
C526 H498 0.929 . S
C526 C527 1.387 1_556 S
C526 N529 1.391 1_556 S
C527 H499 0.915 1_554 S
C527 C526 1.387 1_554 S
C527 C528 1.409 . S
C528 H500 0.929 . S
C528 C525 1.391 . S
C528 C527 1.409 . S
N529 Co473 2.257 . S
N529 C526 1.391 1_554 S
N529 C530 1.388 . S
C530 H501 0.930 . S
C530 C525 1.391 . S
C530 N529 1.388 . S
Co531 O533 2.143 . S
Co531 O539 2.074 . S
Co531 O542 2.093 . S
Co531 O555 2.097 . S
Co531 N572 2.151 . S
Co531 N580 2.214 . S
Co532 O533 2.160 . S
Co532 O538 2.058 . S
Co532 O548 2.057 . S
Co532 O563 2.037 . S
Co532 N567 2.145 . S
Co532 N588 2.257 . S
O533 Co531 2.143 . S
O533 Co532 2.160 . S
C534 O535 1.278 . S
C534 O542 1.224 . S
O535 C534 1.278 . S
C536 O537 1.245 . S
C536 O548 1.232 . S
O537 C536 1.245 . S
O538 Co532 2.058 . S
O538 C564 1.269 . S
O539 Co531 2.074 . S
O539 C564 1.257 . S
H540 C565 0.930 . S
H541 C571 0.930 . S
O542 Co531 2.093 . S
O542 C534 1.224 . S
H543 C575 0.929 . S
H544 C577 0.930 . S
H545 C578 0.930 . S
H546 C576 0.929 . S
H547 C579 0.928 . S
O548 Co532 2.057 . S
O548 C536 1.232 . S
H549 C568 0.929 . S
H550 C569 0.929 . S
H551 C581 0.931 . S
H552 C573 0.929 . S
H553 C582 0.930 . S
H554 C574 0.931 . S
O555 Co531 2.097 . S
O555 C583 1.214 . S
H556 C584 0.929 . S
H557 C585 0.929 . S
H558 C586 0.930 . S
H559 C587 0.929 . S
H560 C589 0.930 . S
H561 C566 0.930 . S
H562 C570 0.930 . S
O563 Co532 2.037 . S
O563 C583 1.234 . S
C564 O538 1.269 . S
C564 O539 1.257 . S
C565 H540 0.930 . S
C565 C568 1.388 . S
C565 C570 1.418 . S
C566 H561 0.930 . S
C566 C569 1.404 . S
C566 C570 1.353 . S
N567 Co532 2.145 . S
N567 C568 1.397 . S
N567 C569 1.334 . S
C568 H549 0.929 . S
C568 C565 1.388 . S
C568 N567 1.397 . S
C569 H550 0.929 . S
C569 C566 1.404 . S
C569 N567 1.334 . S
C570 H562 0.930 . S
C570 C565 1.418 . S
C570 C566 1.353 . S
C571 H541 0.930 . S
C571 N572 1.330 . S
C571 C573 1.446 . S
N572 Co531 2.151 . S
N572 C571 1.330 . S
N572 C576 1.418 1_545 S
C573 H552 0.929 . S
C573 C571 1.446 . S
C573 C574 1.332 1_545 S
C574 H554 0.931 . S
C574 C573 1.332 1_565 S
C574 C575 1.267 . S
C575 H543 0.929 . S
C575 C574 1.267 . S
C575 C576 1.251 . S
C576 H546 0.929 . S
C576 N572 1.418 1_565 S
C576 C575 1.251 . S
C577 H544 0.930 . S
C577 C579 1.406 . S
C577 C582 1.261 . S
C578 H545 0.930 . S
C578 N580 1.325 . S
C578 C581 1.357 . S
C579 H547 0.928 . S
C579 C577 1.406 . S
C579 N580 1.261 . S
N580 Co531 2.214 . S
N580 C578 1.325 . S
N580 C579 1.261 . S
C581 H551 0.931 . S
C581 C578 1.357 . S
C581 C582 1.312 . S
C582 H553 0.930 . S
C582 C577 1.261 . S
C582 C581 1.312 . S
C583 O555 1.214 . S
C583 O563 1.234 . S
C584 H556 0.929 . S
C584 C587 1.391 . S
C584 C589 1.391 . S
C585 H557 0.929 . S
C585 C586 1.390 . S
C585 N588 1.391 . S
C586 H558 0.930 . S
C586 C585 1.390 . S
C586 C587 1.392 . S
C587 H559 0.929 . S
C587 C584 1.391 . S
C587 C586 1.392 . S
N588 Co532 2.257 . S
N588 C585 1.391 . S
N588 C589 1.388 . S
C589 H560 0.930 . S
C589 C584 1.391 . S
C589 N588 1.388 . S
Co590 O592 2.143 . S
Co590 O598 2.074 . S
Co590 O601 2.093 . S
Co590 O614 2.097 . S
Co590 N631 2.151 . S
Co590 N639 2.214 . S
Co591 O592 2.160 . S
Co591 O597 2.058 . S
Co591 O607 2.057 . S
Co591 O622 2.037 . S
Co591 N626 2.145 . S
Co591 N647 2.257 . S
O592 Co590 2.143 . S
O592 Co591 2.160 . S
C593 O594 1.278 . S
C593 O601 1.224 . S
O594 C593 1.278 . S
C595 O596 1.245 . S
C595 O607 1.232 . S
O596 C595 1.245 . S
O597 Co591 2.058 . S
O597 C623 1.269 . S
O598 Co590 2.074 . S
O598 C623 1.257 . S
H599 C624 0.930 . S
H600 C630 0.930 . S
O601 Co590 2.093 . S
O601 C593 1.224 . S
H602 C634 0.929 . S
H603 C636 0.930 . S
H604 C637 0.930 . S
H605 C635 0.929 . S
H606 C638 0.928 . S
O607 Co591 2.057 . S
O607 C595 1.232 . S
H608 C627 0.929 . S
H609 C628 0.929 . S
H610 C640 0.931 . S
H611 C632 0.929 . S
H612 C641 0.930 . S
H613 C633 0.931 . S
O614 Co590 2.097 . S
O614 C642 1.214 . S
H615 C643 0.929 . S
H616 C644 0.929 . S
H617 C645 0.930 . S
H618 C646 0.929 . S
H619 C648 0.930 . S
H620 C625 0.930 . S
H621 C629 0.930 . S
O622 Co591 2.037 . S
O622 C642 1.234 . S
C623 O597 1.269 . S
C623 O598 1.257 . S
C624 H599 0.930 . S
C624 C627 1.388 . S
C624 C629 1.418 . S
C625 H620 0.930 . S
C625 C628 1.404 . S
C625 C629 1.353 . S
N626 Co591 2.145 . S
N626 C627 1.397 . S
N626 C628 1.334 . S
C627 H608 0.929 . S
C627 C624 1.388 . S
C627 N626 1.397 . S
C628 H609 0.929 . S
C628 C625 1.404 . S
C628 N626 1.334 . S
C629 H621 0.930 . S
C629 C624 1.418 . S
C629 C625 1.353 . S
C630 H600 0.930 . S
C630 N631 1.330 . S
C630 C632 1.446 . S
N631 Co590 2.151 . S
N631 C630 1.330 . S
N631 C635 1.418 . S
C632 H611 0.929 . S
C632 C630 1.446 . S
C632 C633 1.332 . S
C633 H613 0.931 . S
C633 C632 1.332 . S
C633 C634 1.267 . S
C634 H602 0.929 . S
C634 C633 1.267 . S
C634 C635 1.251 . S
C635 H605 0.929 . S
C635 N631 1.418 . S
C635 C634 1.251 . S
C636 H603 0.930 . S
C636 C638 1.406 . S
C636 C641 1.261 . S
C637 H604 0.930 . S
C637 N639 1.325 . S
C637 C640 1.357 . S
C638 H606 0.928 . S
C638 C636 1.406 . S
C638 N639 1.261 . S
N639 Co590 2.214 . S
N639 C637 1.325 . S
N639 C638 1.261 . S
C640 H610 0.931 . S
C640 C637 1.357 . S
C640 C641 1.312 . S
C641 H612 0.930 . S
C641 C636 1.261 . S
C641 C640 1.312 . S
C642 O614 1.214 . S
C642 O622 1.234 . S
C643 H615 0.929 . S
C643 C646 1.391 . S
C643 C648 1.391 . S
C644 H616 0.929 . S
C644 C645 1.390 . S
C644 N647 1.391 . S
C645 H617 0.930 . S
C645 C644 1.390 . S
C645 C646 1.392 . S
C646 H618 0.929 . S
C646 C643 1.391 . S
C646 C645 1.392 . S
N647 Co591 2.257 . S
N647 C644 1.391 . S
N647 C648 1.388 . S
C648 H619 0.930 . S
C648 C643 1.391 . S
C648 N647 1.388 . S
Co649 O651 2.143 . S
Co649 O657 2.074 . S
Co649 O660 2.093 . S
Co649 O673 2.097 . S
Co649 N690 2.151 . S
Co649 N698 2.214 . S
Co650 O651 2.160 . S
Co650 O656 2.058 . S
Co650 O666 2.057 . S
Co650 O681 2.037 . S
Co650 N685 2.145 . S
Co650 N706 2.257 . S
O651 Co649 2.143 . S
O651 Co650 2.160 . S
C652 O653 1.278 . S
C652 O660 1.224 . S
O653 C652 1.278 . S
C654 O655 1.245 . S
C654 O666 1.232 . S
O655 C654 1.245 . S
O656 Co650 2.058 . S
O656 C682 1.269 . S
O657 Co649 2.074 . S
O657 C682 1.257 . S
H658 C683 0.930 . S
H659 C689 0.930 . S
O660 Co649 2.093 . S
O660 C652 1.224 . S
H661 C693 0.929 . S
H662 C695 0.930 . S
H663 C696 0.930 . S
H664 C694 0.929 . S
H665 C697 0.928 . S
O666 Co650 2.057 . S
O666 C654 1.232 . S
H667 C686 0.929 . S
H668 C687 0.929 . S
H669 C699 0.931 . S
H670 C691 0.929 . S
H671 C700 0.930 . S
H672 C692 0.931 . S
O673 Co649 2.097 . S
O673 C701 1.214 . S
H674 C702 0.929 . S
H675 C703 0.929 . S
H676 C704 0.930 . S
H677 C705 0.929 . S
H678 C707 0.930 . S
H679 C684 0.930 . S
H680 C688 0.930 . S
O681 Co650 2.037 . S
O681 C701 1.234 . S
C682 O656 1.269 . S
C682 O657 1.257 . S
C683 H658 0.930 . S
C683 C686 1.388 . S
C683 C688 1.418 . S
C684 H679 0.930 . S
C684 C687 1.404 . S
C684 C688 1.353 . S
N685 Co650 2.145 . S
N685 C686 1.397 . S
N685 C687 1.334 . S
C686 H667 0.929 . S
C686 C683 1.388 . S
C686 N685 1.397 . S
C687 H668 0.929 . S
C687 C684 1.404 . S
C687 N685 1.334 . S
C688 H680 0.930 . S
C688 C683 1.418 . S
C688 C684 1.353 . S
C689 H659 0.930 . S
C689 N690 1.330 . S
C689 C691 1.446 . S
N690 Co649 2.151 . S
N690 C689 1.330 . S
N690 C694 1.418 1_655 S
C691 H670 0.929 . S
C691 C689 1.446 . S
C691 C692 1.332 1_655 S
C692 H672 0.931 . S
C692 C691 1.332 1_455 S
C692 C693 1.267 . S
C693 H661 0.929 . S
C693 C692 1.267 . S
C693 C694 1.251 . S
C694 H664 0.929 . S
C694 N690 1.418 1_455 S
C694 C693 1.251 . S
C695 H662 0.930 . S
C695 C697 1.406 . S
C695 C700 1.261 . S
C696 H663 0.930 . S
C696 N698 1.325 . S
C696 C699 1.357 . S
C697 H665 0.928 . S
C697 C695 1.406 . S
C697 N698 1.261 . S
N698 Co649 2.214 . S
N698 C696 1.325 . S
N698 C697 1.261 . S
C699 H669 0.931 . S
C699 C696 1.357 . S
C699 C700 1.312 . S
C700 H671 0.930 . S
C700 C695 1.261 . S
C700 C699 1.312 . S
C701 O673 1.214 . S
C701 O681 1.234 . S
C702 H674 0.929 . S
C702 C705 1.391 . S
C702 C707 1.391 . S
C703 H675 0.929 . S
C703 C704 1.390 . S
C703 N706 1.391 . S
C704 H676 0.930 . S
C704 C703 1.390 . S
C704 C705 1.392 . S
C705 H677 0.929 . S
C705 C702 1.391 . S
C705 C704 1.392 . S
N706 Co650 2.257 . S
N706 C703 1.391 . S
N706 C707 1.388 . S
C707 H678 0.930 . S
C707 C702 1.391 . S
C707 N706 1.388 . S
H708 C714 0.930 . S
H709 C717 0.930 . S
H710 C718 0.930 . S
H711 C719 0.930 . S
H712 C722 0.930 . S
H713 C723 0.930 . S
C714 H708 0.930 . S
C714 C715 1.355 . S
C714 C716 1.415 . S
C715 C714 1.355 . S
C715 C717 1.419 . S
C716 C714 1.415 . S
C716 C721 1.425 . S
C716 C723 1.409 . S
C717 H709 0.930 . S
C717 C715 1.419 . S
C717 C718 1.362 . S
C718 H710 0.930 . S
C718 C717 1.362 . S
C718 C721 1.409 . S
C719 H711 0.930 . S
C719 C720 1.355 . S
C719 C721 1.415 . S
C720 C719 1.355 . S
C720 C722 1.419 . S
C721 C716 1.425 . S
C721 C718 1.409 . S
C721 C719 1.415 . S
C722 H712 0.930 . S
C722 C720 1.419 . S
C722 C723 1.362 . S
C723 H713 0.930 . S
C723 C716 1.409 . S
C723 C722 1.362 . S
H724 C730 0.930 . S
H725 C733 0.930 . S
H726 C734 0.930 . S
H727 C735 0.930 . S
H728 C738 0.930 . S
H729 C739 0.930 . S
C730 H724 0.930 . S
C730 C731 1.355 . S
C730 C732 1.415 . S
C731 C730 1.355 . S
C731 C733 1.419 . S
C732 C730 1.415 . S
C732 C737 1.425 . S
C732 C739 1.409 . S
C733 H725 0.930 . S
C733 C731 1.419 . S
C733 C734 1.362 . S
C734 H726 0.930 . S
C734 C733 1.362 . S
C734 C737 1.409 . S
C735 H727 0.930 . S
C735 C736 1.355 . S
C735 C737 1.415 . S
C736 C735 1.355 . S
C736 C738 1.419 . S
C737 C732 1.425 . S
C737 C734 1.409 . S
C737 C735 1.415 . S
C738 H728 0.930 . S
C738 C736 1.419 . S
C738 C739 1.362 . S
C739 H729 0.930 . S
C739 C732 1.409 . S
C739 C738 1.362 . S
H740 C746 0.930 . S
H741 C749 0.930 . S
H742 C750 0.930 . S
H743 C751 0.930 . S
H744 C754 0.930 . S
H745 C755 0.930 . S
C746 H740 0.930 . S
C746 C747 1.355 . S
C746 C748 1.415 . S
C747 C746 1.355 . S
C747 C749 1.419 . S
C748 C746 1.415 . S
C748 C753 1.425 . S
C748 C755 1.409 . S
C749 H741 0.930 . S
C749 C747 1.419 . S
C749 C750 1.362 . S
C750 H742 0.930 . S
C750 C749 1.362 . S
C750 C753 1.409 . S
C751 H743 0.930 . S
C751 C752 1.355 . S
C751 C753 1.415 . S
C752 C751 1.355 . S
C752 C754 1.419 . S
C753 C748 1.425 . S
C753 C750 1.409 . S
C753 C751 1.415 . S
C754 H744 0.930 . S
C754 C752 1.419 . S
C754 C755 1.362 . S
C755 H745 0.930 . S
C755 C748 1.409 . S
C755 C754 1.362 . S
H756 C762 0.930 . S
H757 C765 0.930 . S
H758 C766 0.930 . S
H759 C767 0.930 . S
H760 C770 0.930 1_455 S
H761 C771 0.930 1_455 S
C762 H756 0.930 . S
C762 C763 1.355 . S
C762 C764 1.415 . S
C763 C762 1.355 . S
C763 C765 1.419 . S
C764 C762 1.415 . S
C764 C769 1.425 . S
C764 C771 1.409 . S
C765 H757 0.930 . S
C765 C763 1.419 . S
C765 C766 1.362 . S
C766 H758 0.930 . S
C766 C765 1.362 . S
C766 C769 1.409 . S
C767 H759 0.930 . S
C767 C768 1.355 . S
C767 C769 1.415 . S
C768 C767 1.355 . S
C768 C770 1.419 . S
C769 C764 1.425 . S
C769 C766 1.409 . S
C769 C767 1.415 . S
C770 H760 0.930 1_655 S
C770 C768 1.419 . S
C770 C771 1.362 . S
C771 H761 0.930 1_655 S
C771 C764 1.409 . S
C771 C770 1.362 . S
H772 C778 0.930 . S
H773 C781 0.930 . S
H774 C782 0.930 . S
H775 C783 0.930 . S
H776 C786 0.930 . S
H777 C787 0.930 . S
C778 H772 0.930 . S
C778 C779 1.355 . S
C778 C780 1.415 . S
C779 C778 1.355 . S
C779 C781 1.419 . S
C780 C778 1.415 . S
C780 C785 1.425 . S
C780 C787 1.409 . S
C781 H773 0.930 . S
C781 C779 1.419 . S
C781 C782 1.362 . S
C782 H774 0.930 . S
C782 C781 1.362 . S
C782 C785 1.409 . S
C783 H775 0.930 . S
C783 C784 1.355 . S
C783 C785 1.415 . S
C784 C783 1.355 . S
C784 C786 1.419 . S
C785 C780 1.425 . S
C785 C782 1.409 . S
C785 C783 1.415 . S
C786 H776 0.930 . S
C786 C784 1.419 . S
C786 C787 1.362 . S
C787 H777 0.930 . S
C787 C780 1.409 . S
C787 C786 1.362 . S
H788 C794 0.930 . S
H789 C797 0.930 . S
H790 C798 0.930 . S
H791 C799 0.930 . S
H792 C802 0.930 . S
H793 C803 0.930 . S
C794 H788 0.930 . S
C794 C795 1.355 . S
C794 C796 1.415 . S
C795 C794 1.355 . S
C795 C797 1.419 . S
C796 C794 1.415 . S
C796 C801 1.425 . S
C796 C803 1.409 . S
C797 H789 0.930 . S
C797 C795 1.419 . S
C797 C798 1.362 . S
C798 H790 0.930 . S
C798 C797 1.362 . S
C798 C801 1.409 . S
C799 H791 0.930 . S
C799 C800 1.355 . S
C799 C801 1.415 . S
C800 C799 1.355 . S
C800 C802 1.419 . S
C801 C796 1.425 . S
C801 C798 1.409 . S
C801 C799 1.415 . S
C802 H792 0.930 . S
C802 C800 1.419 . S
C802 C803 1.362 . S
C803 H793 0.930 . S
C803 C796 1.409 . S
C803 C802 1.362 . S
H804 C810 0.930 . S
H805 C813 0.930 . S
H806 C814 0.930 . S
H807 C815 0.930 . S
H808 C818 0.930 . S
H809 C819 0.930 . S
C810 H804 0.930 . S
C810 C811 1.355 . S
C810 C812 1.415 . S
C811 C810 1.355 . S
C811 C813 1.419 . S
C812 C810 1.415 . S
C812 C817 1.425 . S
C812 C819 1.409 . S
C813 H805 0.930 . S
C813 C811 1.419 . S
C813 C814 1.362 . S
C814 H806 0.930 . S
C814 C813 1.362 . S
C814 C817 1.409 . S
C815 H807 0.930 . S
C815 C816 1.355 . S
C815 C817 1.415 . S
C816 C815 1.355 . S
C816 C818 1.419 . S
C817 C812 1.425 . S
C817 C814 1.409 . S
C817 C815 1.415 . S
C818 H808 0.930 . S
C818 C816 1.419 . S
C818 C819 1.362 . S
C819 H809 0.930 . S
C819 C812 1.409 . S
C819 C818 1.362 . S
H820 C826 0.930 . S
H821 C829 0.930 . S
H822 C830 0.930 . S
H823 C831 0.930 . S
H824 C834 0.930 . S
H825 C835 0.930 . S
C826 H820 0.930 . S
C826 C827 1.355 . S
C826 C828 1.415 . S
C827 C826 1.355 . S
C827 C829 1.419 . S
C828 C826 1.415 . S
C828 C833 1.425 . S
C828 C835 1.409 . S
C829 H821 0.930 . S
C829 C827 1.419 . S
C829 C830 1.362 . S
C830 H822 0.930 . S
C830 C829 1.362 . S
C830 C833 1.409 . S
C831 H823 0.930 . S
C831 C832 1.355 . S
C831 C833 1.415 . S
C832 C831 1.355 . S
C832 C834 1.419 . S
C833 C828 1.425 . S
C833 C830 1.409 . S
C833 C831 1.415 . S
C834 H824 0.930 . S
C834 C832 1.419 . S
C834 C835 1.362 . S
C835 H825 0.930 . S
C835 C828 1.409 . S
C835 C834 1.362 . S
H836 C842 0.930 . S
H837 C845 0.930 . S
H838 C846 0.930 . S
H839 C847 0.930 . S
H840 C850 0.930 . S
H841 C851 0.930 . S
C842 H836 0.930 . S
C842 C843 1.355 . S
C842 C844 1.415 . S
C843 C842 1.355 . S
C843 C845 1.419 . S
C844 C842 1.415 . S
C844 C849 1.425 . S
C844 C851 1.409 . S
C845 H837 0.930 . S
C845 C843 1.419 . S
C845 C846 1.362 . S
C846 H838 0.930 . S
C846 C845 1.362 . S
C846 C849 1.409 . S
C847 H839 0.930 . S
C847 C848 1.355 . S
C847 C849 1.415 . S
C848 C847 1.355 . S
C848 C850 1.419 . S
C849 C844 1.425 . S
C849 C846 1.409 . S
C849 C847 1.415 . S
C850 H840 0.930 . S
C850 C848 1.419 . S
C850 C851 1.362 . S
C851 H841 0.930 . S
C851 C844 1.409 . S
C851 C850 1.362 . S
H852 C858 0.930 . S
H853 C861 0.930 . S
H854 C862 0.930 . S
H855 C863 0.930 . S
H856 C866 0.930 . S
H857 C867 0.930 . S
C858 H852 0.930 . S
C858 C859 1.355 . S
C858 C860 1.415 . S
C859 C858 1.355 . S
C859 C861 1.419 . S
C860 C858 1.415 . S
C860 C865 1.425 . S
C860 C867 1.409 . S
C861 H853 0.930 . S
C861 C859 1.419 . S
C861 C862 1.362 . S
C862 H854 0.930 . S
C862 C861 1.362 . S
C862 C865 1.409 . S
C863 H855 0.930 . S
C863 C864 1.355 . S
C863 C865 1.415 . S
C864 C863 1.355 . S
C864 C866 1.419 . S
C865 C860 1.425 . S
C865 C862 1.409 . S
C865 C863 1.415 . S
C866 H856 0.930 . S
C866 C864 1.419 . S
C866 C867 1.362 . S
C867 H857 0.930 . S
C867 C860 1.409 . S
C867 C866 1.362 . S
H868 C874 0.930 . S
H869 C877 0.930 1_655 S
H870 C878 0.930 . S
H871 C879 0.930 . S
H872 C882 0.930 . S
H873 C883 0.930 . S
C874 H868 0.930 . S
C874 C875 1.355 . S
C874 C876 1.415 . S
C875 C874 1.355 . S
C875 C877 1.419 . S
C876 C874 1.415 . S
C876 C881 1.425 . S
C876 C883 1.409 . S
C877 H869 0.930 1_455 S
C877 C875 1.419 . S
C877 C878 1.362 . S
C878 H870 0.930 . S
C878 C877 1.362 . S
C878 C881 1.409 . S
C879 H871 0.930 . S
C879 C880 1.355 . S
C879 C881 1.415 . S
C880 C879 1.355 . S
C880 C882 1.419 . S
C881 C876 1.425 . S
C881 C878 1.409 . S
C881 C879 1.415 . S
C882 H872 0.930 . S
C882 C880 1.419 . S
C882 C883 1.362 . S
C883 H873 0.930 . S
C883 C876 1.409 . S
C883 C882 1.362 . S
H884 C890 0.930 . S
H885 C893 0.930 . S
H886 C894 0.930 . S
H887 C895 0.930 . S
H888 C898 0.930 . S
H889 C899 0.930 . S
C890 H884 0.930 . S
C890 C891 1.355 . S
C890 C892 1.415 . S
C891 C890 1.355 . S
C891 C893 1.419 . S
C892 C890 1.415 . S
C892 C897 1.425 . S
C892 C899 1.409 . S
C893 H885 0.930 . S
C893 C891 1.419 . S
C893 C894 1.362 . S
C894 H886 0.930 . S
C894 C893 1.362 . S
C894 C897 1.409 . S
C895 H887 0.930 . S
C895 C896 1.355 . S
C895 C897 1.415 . S
C896 C895 1.355 . S
C896 C898 1.419 . S
C897 C892 1.425 . S
C897 C894 1.409 . S
C897 C895 1.415 . S
C898 H888 0.930 . S
C898 C896 1.419 . S
C898 C899 1.362 . S
C899 H889 0.930 . S
C899 C892 1.409 . S
C899 C898 1.362 . S
H900 C906 0.930 . S
H901 C909 0.930 . S
H902 C910 0.930 . S
H903 C911 0.930 . S
H904 C914 0.930 . S
H905 C915 0.930 . S
C906 H900 0.930 . S
C906 C907 1.355 . S
C906 C908 1.415 . S
C907 C906 1.355 . S
C907 C909 1.419 . S
C908 C906 1.415 . S
C908 C913 1.425 . S
C908 C915 1.409 . S
C909 H901 0.930 . S
C909 C907 1.419 . S
C909 C910 1.362 . S
C910 H902 0.930 . S
C910 C909 1.362 . S
C910 C913 1.409 . S
C911 H903 0.930 . S
C911 C912 1.355 . S
C911 C913 1.415 . S
C912 C911 1.355 . S
C912 C914 1.419 . S
C913 C908 1.425 . S
C913 C910 1.409 . S
C913 C911 1.415 . S
C914 H904 0.930 . S
C914 C912 1.419 . S
C914 C915 1.362 . S
C915 H905 0.930 . S
C915 C908 1.409 . S
C915 C914 1.362 . S
H916 C922 0.930 . S
H917 C925 0.930 . S
H918 C926 0.930 . S
H919 C927 0.930 1_554 S
H920 C930 0.930 1_455 S
H921 C931 0.930 . S
C922 H916 0.930 . S
C922 C923 1.355 . S
C922 C924 1.415 . S
C923 C922 1.355 . S
C923 C925 1.419 . S
C924 C922 1.415 . S
C924 C929 1.425 . S
C924 C931 1.409 . S
C925 H917 0.930 . S
C925 C923 1.419 . S
C925 C926 1.362 . S
C926 H918 0.930 . S
C926 C925 1.362 . S
C926 C929 1.409 . S
C927 H919 0.930 1_556 S
C927 C928 1.355 . S
C927 C929 1.415 . S
C928 C927 1.355 . S
C928 C930 1.419 . S
C929 C924 1.425 . S
C929 C926 1.409 . S
C929 C927 1.415 . S
C930 H920 0.930 1_655 S
C930 C928 1.419 . S
C930 C931 1.362 . S
C931 H921 0.930 . S
C931 C924 1.409 . S
C931 C930 1.362 . S
H932 C938 0.930 . S
H933 C941 0.901 1_545 S
H934 C942 0.930 . S
H935 C943 0.930 . S
H936 C946 0.930 . S
H937 C947 0.930 . S
C938 H932 0.930 . S
C938 C939 1.355 . S
C938 C940 1.415 . S
C939 C938 1.355 . S
C939 C941 1.419 . S
C940 C938 1.415 . S
C940 C945 1.425 . S
C940 C947 1.409 . S
C941 H933 0.901 1_565 S
C941 C939 1.419 . S
C941 C942 1.362 . S
C942 H934 0.930 . S
C942 C941 1.362 . S
C942 C945 1.409 . S
C943 H935 0.930 . S
C943 C944 1.355 . S
C943 C945 1.415 . S
C944 C943 1.355 . S
C944 C946 1.419 . S
C945 C940 1.425 . S
C945 C942 1.409 . S
C945 C943 1.415 . S
C946 H936 0.930 . S
C946 C944 1.419 . S
C946 C947 1.362 . S
C947 H937 0.930 . S
C947 C940 1.409 . S
C947 C946 1.362 . S
H948 C954 0.930 . S
H949 C957 0.930 . S
H950 C958 0.930 . S
H951 C959 0.930 . S
H952 C962 0.930 . S
H953 C963 0.930 . S
C954 H948 0.930 . S
C954 C955 1.355 . S
C954 C956 1.415 . S
C955 C954 1.355 . S
C955 C957 1.419 . S
C956 C954 1.415 . S
C956 C961 1.425 . S
C956 C963 1.409 . S
C957 H949 0.930 . S
C957 C955 1.419 . S
C957 C958 1.362 . S
C958 H950 0.930 . S
C958 C957 1.362 . S
C958 C961 1.409 . S
C959 H951 0.930 . S
C959 C960 1.355 . S
C959 C961 1.415 . S
C960 C959 1.355 . S
C960 C962 1.419 . S
C961 C956 1.425 . S
C961 C958 1.409 . S
C961 C959 1.415 . S
C962 H952 0.930 . S
C962 C960 1.419 . S
C962 C963 1.362 . S
C963 H953 0.930 . S
C963 C956 1.409 . S
C963 C962 1.362 . S
H964 C970 0.930 . S
H965 C973 0.930 . S
H966 C974 0.930 . S
H967 C975 0.930 . S
H968 C978 0.930 . S
H969 C979 0.930 . S
C970 H964 0.930 . S
C970 C971 1.355 . S
C970 C972 1.415 . S
C971 C970 1.355 . S
C971 C973 1.419 . S
C972 C970 1.415 . S
C972 C977 1.425 . S
C972 C979 1.409 . S
C973 H965 0.930 . S
C973 C971 1.419 . S
C973 C974 1.362 . S
C974 H966 0.930 . S
C974 C973 1.362 . S
C974 C977 1.409 . S
C975 H967 0.930 . S
C975 C976 1.355 . S
C975 C977 1.415 . S
C976 C975 1.355 . S
C976 C978 1.419 . S
C977 C972 1.425 . S
C977 C974 1.409 . S
C977 C975 1.415 . S
C978 H968 0.930 . S
C978 C976 1.419 . S
C978 C979 1.362 . S
C979 H969 0.930 . S
C979 C972 1.409 . S
C979 C978 1.362 . S
H980 C986 0.930 . S
H981 C989 0.930 . S
H982 C990 0.930 . S
H983 C991 0.930 . S
H984 C994 0.930 1_565 S
H985 C995 0.930 . S
C986 H980 0.930 . S
C986 C987 1.355 . S
C986 C988 1.415 . S
C987 C986 1.355 . S
C987 C989 1.419 . S
C988 C986 1.415 . S
C988 C993 1.425 . S
C988 C995 1.409 . S
C989 H981 0.930 . S
C989 C987 1.419 . S
C989 C990 1.362 . S
C990 H982 0.930 . S
C990 C989 1.362 . S
C990 C993 1.409 . S
C991 H983 0.930 . S
C991 C992 1.355 . S
C991 C993 1.415 . S
C992 C991 1.355 . S
C992 C994 1.419 . S
C993 C988 1.425 . S
C993 C990 1.409 . S
C993 C991 1.415 . S
C994 H984 0.930 1_545 S
C994 C992 1.419 . S
C994 C995 1.362 . S
C995 H985 0.930 . S
C995 C988 1.409 . S
C995 C994 1.362 . S
H996 C1002 0.930 . S
H997 C1005 0.930 . S
H998 C1006 0.930 . S
H999 C1007 0.930 . S
H1000 C1010 0.930 . S
H1001 C1011 0.930 . S
C1002 H996 0.930 . S
C1002 C1003 1.355 . S
C1002 C1004 1.415 . S
C1003 C1002 1.355 . S
C1003 C1005 1.419 . S
C1004 C1002 1.415 . S
C1004 C1009 1.425 . S
C1004 C1011 1.409 . S
C1005 H997 0.930 . S
C1005 C1003 1.419 . S
C1005 C1006 1.362 . S
C1006 H998 0.930 . S
C1006 C1005 1.362 . S
C1006 C1009 1.409 . S
C1007 H999 0.930 . S
C1007 C1008 1.355 . S
C1007 C1009 1.415 . S
C1008 C1007 1.355 . S
C1008 C1010 1.419 . S
C1009 C1004 1.425 . S
C1009 C1006 1.409 . S
C1009 C1007 1.415 . S
C1010 H1000 0.930 . S
C1010 C1008 1.419 . S
C1010 C1011 1.362 . S
C1011 H1001 0.930 . S
C1011 C1004 1.409 . S
C1011 C1010 1.362 . S
H1012 C1018 0.930 . S
H1013 C1021 0.930 . S
H1014 C1022 0.930 . S
H1015 C1023 0.930 . S
H1016 C1026 0.930 . S
H1017 C1027 0.930 . S
C1018 H1012 0.930 . S
C1018 C1019 1.355 . S
C1018 C1020 1.415 . S
C1019 C1018 1.355 . S
C1019 C1021 1.419 . S
C1020 C1018 1.415 . S
C1020 C1025 1.425 . S
C1020 C1027 1.409 . S
C1021 H1013 0.930 . S
C1021 C1019 1.419 . S
C1021 C1022 1.362 . S
C1022 H1014 0.930 . S
C1022 C1021 1.362 . S
C1022 C1025 1.409 . S
C1023 H1015 0.930 . S
C1023 C1024 1.355 . S
C1023 C1025 1.415 . S
C1024 C1023 1.355 . S
C1024 C1026 1.419 . S
C1025 C1020 1.425 . S
C1025 C1022 1.409 . S
C1025 C1023 1.415 . S
C1026 H1016 0.930 . S
C1026 C1024 1.419 . S
C1026 C1027 1.362 . S
C1027 H1017 0.930 . S
C1027 C1020 1.409 . S
C1027 C1026 1.362 . S
H1028 C1034 0.930 . S
H1029 C1037 0.930 . S
H1030 C1038 0.930 . S
H1031 C1039 0.930 . S
H1032 C1042 0.930 . S
H1033 C1043 0.930 . S
C1034 H1028 0.930 . S
C1034 C1035 1.355 . S
C1034 C1036 1.415 . S
C1035 C1034 1.355 . S
C1035 C1037 1.419 . S
C1036 C1034 1.415 . S
C1036 C1041 1.425 . S
C1036 C1043 1.409 . S
C1037 H1029 0.930 . S
C1037 C1035 1.419 . S
C1037 C1038 1.362 . S
C1038 H1030 0.930 . S
C1038 C1037 1.362 . S
C1038 C1041 1.409 . S
C1039 H1031 0.930 . S
C1039 C1040 1.355 . S
C1039 C1041 1.415 . S
C1040 C1039 1.355 . S
C1040 C1042 1.419 . S
C1041 C1036 1.425 . S
C1041 C1038 1.409 . S
C1041 C1039 1.415 . S
C1042 H1032 0.930 . S
C1042 C1040 1.419 . S
C1042 C1043 1.362 . S
C1043 H1033 0.930 . S
C1043 C1036 1.409 . S
C1043 C1042 1.362 . S
H1044 C1050 0.930 . S
H1045 C1053 0.930 . S
H1046 C1054 0.930 . S
H1047 C1055 0.930 . S
H1048 C1058 0.930 . S
H1049 C1059 0.930 . S
C1050 H1044 0.930 . S
C1050 C1051 1.355 . S
C1050 C1052 1.415 . S
C1051 C1050 1.355 . S
C1051 C1053 1.419 . S
C1052 C1050 1.415 . S
C1052 C1057 1.425 . S
C1052 C1059 1.409 . S
C1053 H1045 0.930 . S
C1053 C1051 1.419 . S
C1053 C1054 1.362 . S
C1054 H1046 0.930 . S
C1054 C1053 1.362 . S
C1054 C1057 1.409 . S
C1055 H1047 0.930 . S
C1055 C1056 1.355 . S
C1055 C1057 1.415 . S
C1056 C1055 1.355 . S
C1056 C1058 1.419 . S
C1057 C1052 1.425 . S
C1057 C1054 1.409 . S
C1057 C1055 1.415 . S
C1058 H1048 0.930 . S
C1058 C1056 1.419 . S
C1058 C1059 1.362 . S
C1059 H1049 0.930 . S
C1059 C1052 1.409 . S
C1059 C1058 1.362 . S
H1060 C1066 0.930 . S
H1061 C1069 0.930 . S
H1062 C1070 0.930 . S
H1063 C1071 0.930 . S
H1064 C1074 0.930 . S
H1065 C1075 0.930 . S
C1066 H1060 0.930 . S
C1066 C1067 1.355 . S
C1066 C1068 1.415 . S
C1067 C1066 1.355 . S
C1067 C1069 1.419 . S
C1068 C1066 1.415 . S
C1068 C1073 1.425 . S
C1068 C1075 1.409 . S
C1069 H1061 0.930 . S
C1069 C1067 1.419 . S
C1069 C1070 1.362 . S
C1070 H1062 0.930 . S
C1070 C1069 1.362 . S
C1070 C1073 1.409 . S
C1071 H1063 0.930 . S
C1071 C1072 1.355 . S
C1071 C1073 1.415 . S
C1072 C1071 1.355 . S
C1072 C1074 1.419 . S
C1073 C1068 1.425 . S
C1073 C1070 1.409 . S
C1073 C1071 1.415 . S
C1074 H1064 0.930 . S
C1074 C1072 1.419 . S
C1074 C1075 1.362 . S
C1075 H1065 0.930 . S
C1075 C1068 1.409 . S
C1075 C1074 1.362 . S
H1076 C1082 0.930 . S
H1077 C1085 0.930 . S
H1078 C1086 0.930 . S
H1079 C1087 0.930 . S
H1080 C1090 0.930 . S
H1081 C1091 0.930 . S
C1082 H1076 0.930 . S
C1082 C1083 1.355 . S
C1082 C1084 1.415 . S
C1083 C1082 1.355 . S
C1083 C1085 1.419 . S
C1084 C1082 1.415 . S
C1084 C1089 1.425 . S
C1084 C1091 1.409 . S
C1085 H1077 0.930 . S
C1085 C1083 1.419 . S
C1085 C1086 1.362 . S
C1086 H1078 0.930 . S
C1086 C1085 1.362 . S
C1086 C1089 1.409 . S
C1087 H1079 0.930 . S
C1087 C1088 1.355 . S
C1087 C1089 1.415 . S
C1088 C1087 1.355 . S
C1088 C1090 1.419 . S
C1089 C1084 1.425 . S
C1089 C1086 1.409 . S
C1089 C1087 1.415 . S
C1090 H1080 0.930 . S
C1090 C1088 1.419 . S
C1090 C1091 1.362 . S
C1091 H1081 0.930 . S
C1091 C1084 1.409 . S
C1091 C1090 1.362 . S
C715 C477 1.499 . S
C720 C5 1.511 . S
C731 C64 1.531 . S
C736 C536 1.522 . S
C747 C123 1.531 . S
C752 C595 1.521 . S
C763 C182 1.520 . S
C768 C654 1.531 . S
C779 C359 1.532 . S
C784 C241 1.530 . S
C795 C300 1.532 . S
C800 C418 1.523 . S
C811 C3 1.588 . S
C816 C328 1.572 1_554 S
C827 C62 1.563 . S
C832 C33 1.593 1_655 S
C843 C121 1.566 . S
C848 C92 1.587 1_565 S
C859 C151 1.594 . S
C864 C180 1.563 . S
C875 C210 1.570 1_455 S
C880 C239 1.597 . S
C891 C269 1.593 1_545 S
C896 C298 1.597 . S
C907 C446 1.570 . S
C912 C357 1.595 . S
C923 C416 1.603 . S
C928 C505 1.574 1_656 S
C939 C564 1.570 1_565 S
C944 C475 1.594 . S
C955 C534 1.583 . S
C960 C623 1.604 . S
C971 C593 1.562 . S
C976 C682 1.596 1_455 S
C987 C652 1.601 . S
C992 C387 1.572 1_545 S
C1003 C642 1.474 . S
C1008 C52 1.470 . S
C1019 C701 1.474 . S
C1024 C111 1.470 . S
C1035 C406 1.479 . S
C1040 C170 1.466 . S
C1051 C229 1.467 . S
C1056 C465 1.477 . S
C1067 C288 1.467 . S
C1072 C524 1.479 . S
C1083 C583 1.480 . S
C1088 C347 1.465 . S
