# Generated by pormake.
# Topology cbo, (4)-cn, num edge types: 1
# Building blocks:
#     Node 0, Type 0, BuildingBlock: GALJAG_clean_sbu_0, # of connection points: 4
#     Node 1, Type 0, BuildingBlock: GALJAG_clean_sbu_0, # of connection points: 4
#     Node 2, Type 0, BuildingBlock: GALJAG_clean_sbu_0, # of connection points: 4
#     Node 3, Type 0, BuildingBlock: GALJAG_clean_sbu_0, # of connection points: 4
#     Node 4, Type 0, BuildingBlock: GALJAG_clean_sbu_0, # of connection points: 4
#     Node 5, Type 0, BuildingBlock: GALJAG_clean_sbu_0, # of connection points: 4
#     Node 6, Type 0, BuildingBlock: GALJAG_clean_sbu_0, # of connection points: 4
#     Node 7, Type 0, BuildingBlock: GALJAG_clean_sbu_0, # of connection points: 4
#     Node 8, Type 0, BuildingBlock: GALJAG_clean_sbu_0, # of connection points: 4
#     Node 9, Type 0, BuildingBlock: GALJAG_clean_sbu_0, # of connection points: 4
#     Node 10, Type 0, BuildingBlock: GALJAG_clean_sbu_0, # of connection points: 4
#     Node 11, Type 0, BuildingBlock: GALJAG_clean_sbu_0, # of connection points: 4
#     Node 12, Type 0, BuildingBlock: GALJAG_clean_sbu_0, # of connection points: 4
#     Node 13, Type 0, BuildingBlock: GALJAG_clean_sbu_0, # of connection points: 4
#     Node 14, Type 0, BuildingBlock: GALJAG_clean_sbu_0, # of connection points: 4
#     Node 15, Type 0, BuildingBlock: GALJAG_clean_sbu_0, # of connection points: 4
#     Node 16, Type 0, BuildingBlock: GALJAG_clean_sbu_0, # of connection points: 4
#     Node 17, Type 0, BuildingBlock: GALJAG_clean_sbu_0, # of connection points: 4
#     Node 18, Type 0, BuildingBlock: GALJAG_clean_sbu_0, # of connection points: 4
#     Node 19, Type 0, BuildingBlock: GALJAG_clean_sbu_0, # of connection points: 4
#     Node 20, Type 0, BuildingBlock: GALJAG_clean_sbu_0, # of connection points: 4
#     Node 21, Type 0, BuildingBlock: GALJAG_clean_sbu_0, # of connection points: 4
#     Node 22, Type 0, BuildingBlock: GALJAG_clean_sbu_0, # of connection points: 4
#     Node 23, Type 0, BuildingBlock: GALJAG_clean_sbu_0, # of connection points: 4
#     Edge 24, Type (0, 0), BuildingBlock: ZUJKAS_clean_linker_0, # of connection points: 2
#     Edge 25, Type (0, 0), BuildingBlock: ZUJKAS_clean_linker_0, # of connection points: 2
#     Edge 26, Type (0, 0), BuildingBlock: ZUJKAS_clean_linker_0, # of connection points: 2
#     Edge 27, Type (0, 0), BuildingBlock: ZUJKAS_clean_linker_0, # of connection points: 2
#     Edge 28, Type (0, 0), BuildingBlock: ZUJKAS_clean_linker_0, # of connection points: 2
#     Edge 29, Type (0, 0), BuildingBlock: ZUJKAS_clean_linker_0, # of connection points: 2
#     Edge 30, Type (0, 0), BuildingBlock: ZUJKAS_clean_linker_0, # of connection points: 2
#     Edge 31, Type (0, 0), BuildingBlock: ZUJKAS_clean_linker_0, # of connection points: 2
#     Edge 32, Type (0, 0), BuildingBlock: ZUJKAS_clean_linker_0, # of connection points: 2
#     Edge 33, Type (0, 0), BuildingBlock: ZUJKAS_clean_linker_0, # of connection points: 2
#     Edge 34, Type (0, 0), BuildingBlock: ZUJKAS_clean_linker_0, # of connection points: 2
#     Edge 35, Type (0, 0), BuildingBlock: ZUJKAS_clean_linker_0, # of connection points: 2
#     Edge 36, Type (0, 0), BuildingBlock: ZUJKAS_clean_linker_0, # of connection points: 2
#     Edge 37, Type (0, 0), BuildingBlock: ZUJKAS_clean_linker_0, # of connection points: 2
#     Edge 38, Type (0, 0), BuildingBlock: ZUJKAS_clean_linker_0, # of connection points: 2
#     Edge 39, Type (0, 0), BuildingBlock: ZUJKAS_clean_linker_0, # of connection points: 2
#     Edge 40, Type (0, 0), BuildingBlock: ZUJKAS_clean_linker_0, # of connection points: 2
#     Edge 41, Type (0, 0), BuildingBlock: ZUJKAS_clean_linker_0, # of connection points: 2
#     Edge 42, Type (0, 0), BuildingBlock: ZUJKAS_clean_linker_0, # of connection points: 2
#     Edge 43, Type (0, 0), BuildingBlock: ZUJKAS_clean_linker_0, # of connection points: 2
#     Edge 44, Type (0, 0), BuildingBlock: ZUJKAS_clean_linker_0, # of connection points: 2
#     Edge 45, Type (0, 0), BuildingBlock: ZUJKAS_clean_linker_0, # of connection points: 2
#     Edge 46, Type (0, 0), BuildingBlock: ZUJKAS_clean_linker_0, # of connection points: 2
#     Edge 47, Type (0, 0), BuildingBlock: ZUJKAS_clean_linker_0, # of connection points: 2
#     Edge 48, Type (0, 0), BuildingBlock: ZUJKAS_clean_linker_0, # of connection points: 2
#     Edge 49, Type (0, 0), BuildingBlock: ZUJKAS_clean_linker_0, # of connection points: 2
#     Edge 50, Type (0, 0), BuildingBlock: ZUJKAS_clean_linker_0, # of connection points: 2
#     Edge 51, Type (0, 0), BuildingBlock: ZUJKAS_clean_linker_0, # of connection points: 2
#     Edge 52, Type (0, 0), BuildingBlock: ZUJKAS_clean_linker_0, # of connection points: 2
#     Edge 53, Type (0, 0), BuildingBlock: ZUJKAS_clean_linker_0, # of connection points: 2
#     Edge 54, Type (0, 0), BuildingBlock: ZUJKAS_clean_linker_0, # of connection points: 2
#     Edge 55, Type (0, 0), BuildingBlock: ZUJKAS_clean_linker_0, # of connection points: 2
#     Edge 56, Type (0, 0), BuildingBlock: ZUJKAS_clean_linker_0, # of connection points: 2
#     Edge 57, Type (0, 0), BuildingBlock: ZUJKAS_clean_linker_0, # of connection points: 2
#     Edge 58, Type (0, 0), BuildingBlock: ZUJKAS_clean_linker_0, # of connection points: 2
#     Edge 59, Type (0, 0), BuildingBlock: ZUJKAS_clean_linker_0, # of connection points: 2
#     Edge 60, Type (0, 0), BuildingBlock: ZUJKAS_clean_linker_0, # of connection points: 2
#     Edge 61, Type (0, 0), BuildingBlock: ZUJKAS_clean_linker_0, # of connection points: 2
#     Edge 62, Type (0, 0), BuildingBlock: ZUJKAS_clean_linker_0, # of connection points: 2
#     Edge 63, Type (0, 0), BuildingBlock: ZUJKAS_clean_linker_0, # of connection points: 2
#     Edge 64, Type (0, 0), BuildingBlock: ZUJKAS_clean_linker_0, # of connection points: 2
#     Edge 65, Type (0, 0), BuildingBlock: ZUJKAS_clean_linker_0, # of connection points: 2
#     Edge 66, Type (0, 0), BuildingBlock: ZUJKAS_clean_linker_0, # of connection points: 2
#     Edge 67, Type (0, 0), BuildingBlock: ZUJKAS_clean_linker_0, # of connection points: 2
#     Edge 68, Type (0, 0), BuildingBlock: ZUJKAS_clean_linker_0, # of connection points: 2
#     Edge 69, Type (0, 0), BuildingBlock: ZUJKAS_clean_linker_0, # of connection points: 2
#     Edge 70, Type (0, 0), BuildingBlock: ZUJKAS_clean_linker_0, # of connection points: 2
#     Edge 71, Type (0, 0), BuildingBlock: ZUJKAS_clean_linker_0, # of connection points: 2
# Relax obj value: 0.104
# Max RMSD: 0.140
# Mean RMSD: 0.140
data_MOF--net-cbo--node1-GALJAG_clean_sbu_0--edge1-ZUJKAS_clean_linker_0
_symmetry_space_group_name_H-M    P1
_symmetry_Int_Tables_number       1
_symmetry_cell_setting            triclinic
loop_
_symmetry_equiv_pos_as_xyz
'x, y, z'
_cell_length_a     67.80108
_cell_length_b     67.772153
_cell_length_c     67.74774
_cell_angle_alpha  89.980868
_cell_angle_beta   90.02382
_cell_angle_gamma 90.035231
loop_
_atom_site_label
_atom_site_type_symbol
_atom_site_fract_x
_atom_site_fract_y
_atom_site_fract_z
_atom_type_partial_charge
In0 In 0.09027 0.14491 0.31009 0.0
O1 O 0.06876 0.11889 0.3102 0.0
O2 O 0.05762 0.14752 0.30382 0.0
C3 C 0.12449 0.1262 0.30242 0.0
C4 C 0.0915 0.15398 0.34878 0.0
C5 C 0.08985 0.17217 0.28132 0.0
O6 O 0.10793 0.11833 0.29912 0.0
O7 O 0.12369 0.14316 0.31 0.0
O8 O 0.08647 0.17645 0.29915 0.0
O9 O 0.09332 0.15416 0.27806 0.0
C10 C 0.05396 0.12944 0.30616 0.0
O11 O 0.09672 0.16599 0.33556 0.0
O12 O 0.08588 0.13742 0.34248 0.0
In13 In 0.40249 0.8516 0.81273 0.0
O14 O 0.40145 0.82932 0.83809 0.0
O15 O 0.40465 0.85962 0.84522 0.0
C16 C 0.40083 0.81875 0.79052 0.0
C17 C 0.4366 0.87019 0.80428 0.0
C18 C 0.37075 0.87325 0.8024 0.0
O19 O 0.41591 0.8232 0.80055 0.0
O20 O 0.38658 0.83061 0.79212 0.0
O21 O 0.38757 0.8759 0.79491 0.0
O22 O 0.37007 0.86004 0.81547 0.0
C23 C 0.40339 0.84215 0.8514 0.0
O24 O 0.42637 0.87435 0.81923 0.0
O25 O 0.42935 0.85705 0.79331 0.0
In26 In 0.59662 0.35087 0.67863 0.0
O27 O 0.57192 0.36458 0.69709 0.0
O28 O 0.57256 0.37095 0.66651 0.0
C29 C 0.63101 0.36862 0.68755 0.0
C30 C 0.59922 0.33914 0.64079 0.0
C31 C 0.59363 0.32044 0.70412 0.0
O32 O 0.61458 0.37702 0.69015 0.0
O33 O 0.62998 0.35163 0.68002 0.0
O34 O 0.58207 0.32229 0.68962 0.0
O35 O 0.60659 0.3337 0.70547 0.0
C36 C 0.56376 0.37307 0.68271 0.0
O37 O 0.5932 0.32778 0.65427 0.0
O38 O 0.60418 0.35613 0.64652 0.0
In39 In 0.89786 0.63929 0.18042 0.0
O40 O 0.9232 0.61772 0.18539 0.0
O41 O 0.93009 0.64741 0.17777 0.0
C42 C 0.86704 0.61679 0.19156 0.0
C43 C 0.8938 0.64302 0.14115 0.0
C44 C 0.8966 0.66848 0.20734 0.0
O45 O 0.88468 0.61181 0.19472 0.0
O46 O 0.86501 0.63289 0.18247 0.0
O47 O 0.89339 0.67148 0.18924 0.0
O48 O 0.90016 0.65078 0.21182 0.0
C49 C 0.9364 0.63042 0.18196 0.0
O50 O 0.88989 0.65685 0.15298 0.0
O51 O 0.89936 0.62716 0.14917 0.0
In52 In 0.30931 0.09144 0.14509 0.0
O53 O 0.33632 0.09996 0.16333 0.0
O54 O 0.34102 0.08584 0.13577 0.0
C55 C 0.28331 0.09325 0.17505 0.0
C56 C 0.30343 0.05442 0.13194 0.0
C57 C 0.30046 0.12357 0.12341 0.0
O58 O 0.30085 0.0875 0.17746 0.0
O59 O 0.27898 0.09822 0.15763 0.0
O60 O 0.29513 0.10641 0.1185 0.0
O61 O 0.31045 0.12445 0.1391 0.0
C62 C 0.34857 0.09325 0.15105 0.0
O63 O 0.30676 0.06861 0.12033 0.0
O64 O 0.3028 0.05903 0.14993 0.0
In65 In 0.18001 0.90446 0.64863 0.0
O66 O 0.15405 0.90457 0.66988 0.0
O67 O 0.1485 0.89723 0.63986 0.0
C68 C 0.20735 0.90516 0.67734 0.0
C69 C 0.17762 0.94114 0.63378 0.0
C70 C 0.19421 0.87332 0.62844 0.0
O71 O 0.19084 0.89682 0.67959 0.0
O72 O 0.20998 0.913 0.66067 0.0
O73 O 0.19819 0.8909 0.62375 0.0
O74 O 0.18273 0.87153 0.64297 0.0
C75 C 0.14153 0.89993 0.65691 0.0
O76 O 0.17662 0.92606 0.62288 0.0
O77 O 0.17997 0.9376 0.65189 0.0
In78 In 0.80857 0.40035 0.85467 0.0
O79 O 0.8105 0.42387 0.87877 0.0
O80 O 0.79438 0.43061 0.85277 0.0
C81 C 0.79784 0.37009 0.87821 0.0
C82 C 0.84755 0.39901 0.84687 0.0
C83 C 0.78675 0.39673 0.82167 0.0
O84 O 0.78883 0.38637 0.87806 0.0
O85 O 0.81259 0.3693 0.86691 0.0
O86 O 0.8009 0.40879 0.82295 0.0
O87 O 0.78383 0.38643 0.83691 0.0
C88 C 0.80064 0.43647 0.86926 0.0
O89 O 0.83486 0.39108 0.83583 0.0
O90 O 0.8406 0.40748 0.86188 0.0
In91 In 0.68347 0.5968 0.34749 0.0
O92 O 0.69257 0.57437 0.37103 0.0
O93 O 0.66778 0.56783 0.35291 0.0
C94 C 0.69844 0.63003 0.36348 0.0
C95 C 0.64584 0.60646 0.34009 0.0
C96 C 0.70878 0.58737 0.31828 0.0
O97 O 0.69381 0.61529 0.37389 0.0
O98 O 0.69562 0.62786 0.34524 0.0
O99 O 0.69364 0.59778 0.31541 0.0
O100 O 0.71111 0.58167 0.33583 0.0
C101 C 0.67902 0.56234 0.36668 0.0
O102 O 0.65683 0.59859 0.32728 0.0
O103 O 0.6539 0.60954 0.35662 0.0
In104 In 0.15665 0.31228 0.08918 0.0
O105 O 0.13795 0.29803 0.06501 0.0
O106 O 0.13983 0.3293 0.06575 0.0
C107 C 0.13955 0.29583 0.12122 0.0
C108 C 0.1672 0.34979 0.09647 0.0
C109 C 0.18828 0.2899 0.08008 0.0
O110 O 0.12961 0.30441 0.10805 0.0
O111 O 0.15785 0.29564 0.11819 0.0
O112 O 0.18893 0.30342 0.09286 0.0
O113 O 0.17185 0.28805 0.07158 0.0
C114 C 0.13316 0.31422 0.05716 0.0
O115 O 0.17464 0.33987 0.08257 0.0
O116 O 0.15467 0.34068 0.10681 0.0
In117 In 0.64235 0.18261 0.89743 0.0
O118 O 0.61951 0.18986 0.92123 0.0
O119 O 0.64601 0.17531 0.9297 0.0
C120 C 0.62405 0.19486 0.8643 0.0
C121 C 0.64615 0.1437 0.89092 0.0
C122 C 0.67174 0.20904 0.9013 0.0
O123 O 0.61523 0.19387 0.88069 0.0
O124 O 0.64185 0.18954 0.86472 0.0
O125 O 0.67486 0.19112 0.89733 0.0
O126 O 0.6538 0.21363 0.90312 0.0
C127 C 0.62973 0.18253 0.93501 0.0
O128 O 0.66056 0.15546 0.89021 0.0
O129 O 0.62972 0.15163 0.89457 0.0
In130 In 0.8533 0.81472 0.39838 0.0
O131 O 0.83092 0.83901 0.4047 0.0
O132 O 0.85723 0.84671 0.38943 0.0
C133 C 0.82025 0.79263 0.40009 0.0
C134 C 0.87627 0.81442 0.43085 0.0
C135 C 0.87328 0.80007 0.36718 0.0
O136 O 0.82712 0.79922 0.3841 0.0
O137 O 0.82984 0.7975 0.41528 0.0
O138 O 0.87486 0.79293 0.3843 0.0
O139 O 0.86209 0.81485 0.36598 0.0
C140 C 0.84107 0.8524 0.39667 0.0
O141 O 0.86633 0.79965 0.42547 0.0
O142 O 0.87527 0.82903 0.41939 0.0
In143 In 0.34606 0.68008 0.59796 0.0
O144 O 0.37078 0.67884 0.575 0.0
O145 O 0.34097 0.67775 0.56516 0.0
C146 C 0.36598 0.69184 0.63027 0.0
C147 C 0.33779 0.64165 0.60315 0.0
C148 C 0.3197 0.70965 0.59649 0.0
O149 O 0.37285 0.69399 0.61307 0.0
O150 O 0.34938 0.68351 0.63105 0.0
O151 O 0.31547 0.69286 0.6034 0.0
O152 O 0.3372 0.71147 0.59044 0.0
C153 C 0.35899 0.6776 0.5606 0.0
O154 O 0.32454 0.65437 0.60013 0.0
O155 O 0.35512 0.64839 0.60386 0.0
In156 In 0.90128 0.84175 0.67691 0.0
O157 O 0.92358 0.86662 0.68097 0.0
O158 O 0.93429 0.8378 0.6745 0.0
C159 C 0.86848 0.86026 0.68957 0.0
C160 C 0.89794 0.83785 0.63757 0.0
C161 C 0.90284 0.81228 0.70353 0.0
O162 O 0.88558 0.86684 0.69283 0.0
O163 O 0.86794 0.84464 0.6795 0.0
O164 O 0.89714 0.80956 0.686 0.0
O165 O 0.90768 0.82979 0.70753 0.0
C166 C 0.93832 0.85563 0.67802 0.0
O167 O 0.89803 0.82324 0.6491 0.0
O168 O 0.89912 0.85444 0.64592 0.0
In169 In 0.5885 0.15295 0.17925 0.0
O170 O 0.58943 0.17453 0.1535 0.0
O171 O 0.59351 0.144 0.14739 0.0
C172 C 0.58945 0.18192 0.20645 0.0
C173 C 0.55179 0.1382 0.17708 0.0
C174 C 0.61948 0.13158 0.19213 0.0
O175 O 0.59909 0.18288 0.19055 0.0
O176 O 0.57931 0.16647 0.20851 0.0
O177 O 0.60228 0.1292 0.19882 0.0
O178 O 0.62091 0.14439 0.17873 0.0
C179 C 0.59233 0.16133 0.14068 0.0
O180 O 0.56676 0.12719 0.17843 0.0
O181 O 0.55544 0.15644 0.17706 0.0
In182 In 0.40105 0.65238 0.31543 0.0
O183 O 0.42685 0.63118 0.31211 0.0
O184 O 0.43293 0.66108 0.31979 0.0
C185 C 0.37149 0.62908 0.30261 0.0
C186 C 0.3963 0.65562 0.35463 0.0
C187 C 0.39961 0.68137 0.28829 0.0
O188 O 0.38937 0.62527 0.2992 0.0
O189 O 0.3686 0.6444 0.31275 0.0
O190 O 0.39214 0.68333 0.30525 0.0
O191 O 0.4076 0.66489 0.28515 0.0
C192 C 0.43967 0.6441 0.31619 0.0
O193 O 0.39421 0.67013 0.34312 0.0
O194 O 0.40036 0.63948 0.3463 0.0
In195 In 0.08886 0.34671 0.81453 0.0
O196 O 0.06608 0.37155 0.81418 0.0
O197 O 0.05598 0.34182 0.81565 0.0
C198 C 0.12125 0.3671 0.80369 0.0
C199 C 0.09168 0.33959 0.85339 0.0
C200 C 0.08952 0.3188 0.78631 0.0
O201 O 0.10423 0.37156 0.7976 0.0
O202 O 0.12177 0.35275 0.8155 0.0
O203 O 0.09651 0.31585 0.80334 0.0
O204 O 0.08223 0.3357 0.78366 0.0
C205 C 0.05156 0.35989 0.81519 0.0
O206 O 0.09083 0.32586 0.84082 0.0
O207 O 0.09136 0.3568 0.84629 0.0
In208 In 0.67828 0.90009 0.84472 0.0
O209 O 0.65417 0.90002 0.82142 0.0
O210 O 0.64595 0.89383 0.85108 0.0
C211 C 0.70702 0.89763 0.81753 0.0
C212 C 0.67594 0.93771 0.857 0.0
C213 C 0.69055 0.87029 0.86801 0.0
O214 O 0.69048 0.88937 0.81529 0.0
O215 O 0.70904 0.90699 0.83349 0.0
O216 O 0.69502 0.88805 0.87138 0.0
O217 O 0.67948 0.86772 0.85329 0.0
C218 C 0.64051 0.89605 0.83341 0.0
O219 O 0.67301 0.92341 0.86859 0.0
O220 O 0.6802 0.93292 0.83956 0.0
In221 In 0.81066 0.09056 0.34353 0.0
O222 O 0.83738 0.09241 0.32333 0.0
O223 O 0.84246 0.09141 0.35429 0.0
C224 C 0.78267 0.09129 0.31535 0.0
C225 C 0.80783 0.05354 0.35745 0.0
C226 C 0.80135 0.124 0.3629 0.0
O227 O 0.80063 0.09447 0.31165 0.0
O228 O 0.77888 0.08779 0.33323 0.0
O229 O 0.79753 0.10709 0.36968 0.0
O230 O 0.8102 0.12401 0.34654 0.0
C231 C 0.8498 0.09222 0.3372 0.0
O232 O 0.807 0.06841 0.36863 0.0
O233 O 0.81011 0.05742 0.33939 0.0
In234 In 0.18137 0.59182 0.15289 0.0
O235 O 0.18789 0.56889 0.12903 0.0
O236 O 0.17252 0.55976 0.15485 0.0
C237 C 0.1929 0.62488 0.13409 0.0
C238 C 0.14308 0.59833 0.16069 0.0
C239 C 0.21017 0.58773 0.17991 0.0
O240 O 0.18938 0.60904 0.12493 0.0
O241 O 0.19044 0.62396 0.15251 0.0
O242 O 0.19376 0.59553 0.18393 0.0
O243 O 0.21203 0.58206 0.16228 0.0
C244 C 0.17988 0.55495 0.13846 0.0
O245 O 0.15545 0.5943 0.174 0.0
O246 O 0.15009 0.59931 0.14347 0.0
In247 In 0.31859 0.39982 0.6584 0.0
O248 O 0.31459 0.42296 0.63426 0.0
O249 O 0.32118 0.43274 0.66337 0.0
C250 C 0.30833 0.3673 0.63792 0.0
C251 C 0.35753 0.39661 0.66529 0.0
C252 C 0.28976 0.40013 0.68575 0.0
O253 O 0.30649 0.38449 0.63102 0.0
O254 O 0.31576 0.36651 0.65496 0.0
O255 O 0.30724 0.39515 0.68977 0.0
O256 O 0.28686 0.40482 0.66798 0.0
C257 C 0.31762 0.43736 0.6457 0.0
O258 O 0.34491 0.39661 0.67896 0.0
O259 O 0.35047 0.39781 0.6481 0.0
In260 In 0.84361 0.67986 0.90007 0.0
O261 O 0.86882 0.67685 0.92233 0.0
O262 O 0.83928 0.67728 0.93295 0.0
C263 C 0.86425 0.69114 0.86797 0.0
C264 C 0.83354 0.64185 0.89545 0.0
C265 C 0.81692 0.70918 0.90177 0.0
O266 O 0.86862 0.69693 0.88512 0.0
O267 O 0.84981 0.67947 0.86715 0.0
O268 O 0.81315 0.69274 0.89386 0.0
O269 O 0.83413 0.71081 0.90863 0.0
C270 C 0.85737 0.67593 0.93702 0.0
O271 O 0.82084 0.65544 0.89662 0.0
O272 O 0.85125 0.64753 0.89628 0.0
In273 In 0.34302 0.81197 0.08895 0.0
O274 O 0.36971 0.81268 0.0683 0.0
O275 O 0.34149 0.80681 0.05598 0.0
C276 C 0.36197 0.80292 0.12271 0.0
C277 C 0.33386 0.85051 0.09182 0.0
C278 C 0.31503 0.78383 0.08778 0.0
O279 O 0.36825 0.79772 0.10597 0.0
O280 O 0.34638 0.81306 0.12236 0.0
O281 O 0.31149 0.80157 0.08331 0.0
O282 O 0.3326 0.78038 0.09283 0.0
C283 C 0.35969 0.80907 0.05302 0.0
O284 O 0.32169 0.83701 0.09582 0.0
O285 O 0.35065 0.84455 0.08652 0.0
In286 In 0.15093 0.18479 0.58827 0.0
O287 O 0.12599 0.18759 0.56587 0.0
O288 O 0.15518 0.18288 0.55524 0.0
C289 C 0.13172 0.19802 0.62049 0.0
C290 C 0.15426 0.14541 0.59135 0.0
C291 C 0.18146 0.2102 0.58788 0.0
O292 O 0.12692 0.20303 0.60322 0.0
O293 O 0.14594 0.1861 0.62145 0.0
O294 O 0.18281 0.19314 0.59526 0.0
O295 O 0.1648 0.21433 0.58073 0.0
C296 C 0.13718 0.18523 0.55115 0.0
O297 O 0.16909 0.15668 0.59106 0.0
O298 O 0.13782 0.15404 0.59043 0.0
In299 In 0.65423 0.31747 0.40204 0.0
O300 O 0.67388 0.34467 0.40314 0.0
O301 O 0.64351 0.34883 0.39657 0.0
C302 C 0.68289 0.29002 0.40312 0.0
C303 C 0.6391 0.31616 0.43863 0.0
C304 C 0.63543 0.30524 0.3692 0.0
O305 O 0.68543 0.3067 0.39521 0.0
O306 O 0.66598 0.28727 0.4103 0.0
O307 O 0.62842 0.30273 0.38627 0.0
O308 O 0.65169 0.31426 0.3687 0.0
C309 C 0.66017 0.35664 0.39931 0.0
O310 O 0.6285 0.31374 0.42349 0.0
O311 O 0.65708 0.31945 0.43519 0.0
H312 H 0.15841 0.27415 0.14904 0.0
H313 H 0.14406 0.25725 0.17733 0.0
H314 H 0.08652 0.27951 0.16171 0.0
H315 H 0.10081 0.29618 0.13286 0.0
H316 H 0.12388 0.27162 0.20922 0.0
H317 H 0.0772 0.2202 0.16529 0.0
H318 H 0.0962 0.23514 0.15416 0.0
H319 H 0.07315 0.24609 0.16126 0.0
C320 C 0.1427 0.27548 0.1516 0.0
C321 C 0.13069 0.28634 0.13868 0.0
C322 C 0.13453 0.26586 0.16781 0.0
C323 C 0.11421 0.26695 0.17149 0.0
C324 C 0.10219 0.2782 0.15891 0.0
H325 H 0.07816 0.21071 0.28343 0.0
H326 H 0.0803 0.23569 0.25733 0.0
C327 C 0.11037 0.28776 0.14252 0.0
C328 C 0.10594 0.2558 0.18834 0.0
H329 H 0.07784 0.21556 0.19958 0.0
C330 C 0.1136 0.25952 0.20722 0.0
C331 C 0.09259 0.24 0.18556 0.0
C332 C 0.08436 0.23494 0.16548 0.0
C333 C 0.10912 0.24722 0.22324 0.0
C334 C 0.09619 0.23108 0.22035 0.0
C335 C 0.08771 0.22799 0.2017 0.0
C336 C 0.09314 0.21593 0.23578 0.0
C337 C 0.11925 0.25089 0.24275 0.0
C338 C 0.09893 0.19641 0.23205 0.0
C339 C 0.09746 0.18211 0.24677 0.0
C340 C 0.09026 0.18711 0.26553 0.0
C341 C 0.08396 0.20653 0.26913 0.0
C342 C 0.08524 0.22081 0.25429 0.0
H343 H 0.13176 0.2614 0.24132 0.0
H344 H 0.10851 0.25728 0.25331 0.0
H345 H 0.12492 0.2369 0.24911 0.0
H346 H 0.10507 0.19233 0.21786 0.0
H347 H 0.10239 0.16725 0.24357 0.0
H348 H 0.36965 0.80622 0.7687 0.0
H349 H 0.36957 0.78098 0.74302 0.0
H350 H 0.43083 0.76851 0.75478 0.0
H351 H 0.431 0.79374 0.78078 0.0
H352 H 0.39524 0.78311 0.70971 0.0
H353 H 0.40382 0.71313 0.75199 0.0
H354 H 0.39521 0.73565 0.76335 0.0
H355 H 0.4208 0.73287 0.7573 0.0
C356 C 0.38303 0.79791 0.76606 0.0
C357 C 0.40035 0.80197 0.77669 0.0
C358 C 0.38297 0.78352 0.75138 0.0
C359 C 0.40017 0.77289 0.74708 0.0
C360 C 0.41735 0.77642 0.75808 0.0
H361 H 0.40096 0.71193 0.63257 0.0
H362 H 0.41388 0.7298 0.66128 0.0
C363 C 0.41742 0.79084 0.77285 0.0
C364 C 0.40023 0.75927 0.73007 0.0
H365 H 0.40074 0.71054 0.71744 0.0
C366 C 0.39668 0.76725 0.71131 0.0
C367 C 0.40212 0.73864 0.73234 0.0
C368 C 0.40559 0.72943 0.75231 0.0
C369 C 0.39412 0.7551 0.6948 0.0
C370 C 0.39558 0.73439 0.69708 0.0
C371 C 0.39984 0.72642 0.71574 0.0
C372 C 0.39023 0.72088 0.68079 0.0
C373 C 0.38877 0.76449 0.6753 0.0
C374 C 0.37329 0.70915 0.68261 0.0
C375 C 0.366 0.69885 0.66636 0.0
C376 C 0.37553 0.70014 0.64799 0.0
C377 C 0.39323 0.71084 0.64651 0.0
C378 C 0.40058 0.72108 0.66286 0.0
H379 H 0.38466 0.78027 0.67696 0.0
H380 H 0.4016 0.76367 0.66517 0.0
H381 H 0.37625 0.75658 0.66828 0.0
H382 H 0.36511 0.70878 0.69635 0.0
H383 H 0.35241 0.69061 0.66799 0.0
H384 H 0.61763 0.31415 0.73546 0.0
H385 H 0.61467 0.28889 0.76085 0.0
H386 H 0.56283 0.26565 0.73213 0.0
H387 H 0.56582 0.29101 0.7063 0.0
H388 H 0.58136 0.28308 0.78599 0.0
H389 H 0.59948 0.21687 0.74071 0.0
H390 H 0.60546 0.24154 0.73258 0.0
H391 H 0.58036 0.23319 0.73212 0.0
C392 C 0.60564 0.30363 0.73443 0.0
C393 C 0.59196 0.30453 0.71889 0.0
C394 C 0.60395 0.28923 0.74898 0.0
C395 C 0.58858 0.27541 0.74832 0.0
C396 C 0.57491 0.2761 0.73277 0.0
H397 H 0.58562 0.20619 0.85878 0.0
H398 H 0.57176 0.22281 0.82972 0.0
C399 C 0.57661 0.29058 0.71809 0.0
C400 C 0.5871 0.26065 0.76431 0.0
H401 H 0.59737 0.21256 0.775 0.0
C402 C 0.58444 0.26756 0.78364 0.0
C403 C 0.59115 0.24047 0.76105 0.0
C404 C 0.59438 0.23245 0.74054 0.0
C405 C 0.5871 0.25512 0.79995 0.0
C406 C 0.59211 0.23509 0.79676 0.0
C407 C 0.59346 0.22789 0.77736 0.0
C408 C 0.59905 0.22239 0.81315 0.0
C409 C 0.586 0.2639 0.82041 0.0
C410 C 0.61865 0.21579 0.81303 0.0
C411 C 0.62648 0.20612 0.82941 0.0
C412 C 0.61488 0.20295 0.84628 0.0
C413 C 0.59494 0.20865 0.84604 0.0
C414 C 0.58704 0.21819 0.8295 0.0
H415 H 0.58532 0.28028 0.82008 0.0
H416 H 0.57254 0.25843 0.82794 0.0
H417 H 0.59899 0.25944 0.82934 0.0
H418 H 0.62818 0.21886 0.80057 0.0
H419 H 0.64186 0.20182 0.82911 0.0
H420 H 0.90355 0.66513 0.24676 0.0
H421 H 0.90332 0.69141 0.27147 0.0
H422 H 0.88984 0.73407 0.22618 0.0
H423 H 0.88985 0.70778 0.20132 0.0
H424 H 0.92637 0.72707 0.27295 0.0
H425 H 0.84559 0.74099 0.2677 0.0
H426 H 0.8569 0.71899 0.25788 0.0
H427 H 0.85919 0.742 0.24496 0.0
C428 C 0.90051 0.6801 0.24205 0.0
C429 C 0.89657 0.68441 0.22216 0.0
C430 C 0.90048 0.69508 0.25616 0.0
C431 C 0.89642 0.71459 0.25063 0.0
C432 C 0.89277 0.71903 0.23074 0.0
H433 H 0.87202 0.81325 0.32921 0.0
H434 H 0.88105 0.79487 0.2995 0.0
C435 C 0.8928 0.70403 0.21658 0.0
C436 C 0.89555 0.73011 0.2659 0.0
H437 H 0.86349 0.76012 0.29035 0.0
C438 C 0.91268 0.73445 0.27669 0.0
C439 C 0.87767 0.7397 0.27063 0.0
C440 C 0.85872 0.73516 0.25983 0.0
C441 C 0.91233 0.74798 0.29236 0.0
C442 C 0.8943 0.75706 0.29752 0.0
C443 C 0.87732 0.75317 0.28631 0.0
C444 C 0.89216 0.76948 0.31535 0.0
C445 C 0.93124 0.75235 0.30327 0.0
C446 C 0.89585 0.76146 0.3341 0.0
C447 C 0.89079 0.77195 0.35109 0.0
C448 C 0.88175 0.79053 0.34957 0.0
C449 C 0.87895 0.79894 0.33082 0.0
C450 C 0.88408 0.78847 0.31384 0.0
H451 H 0.94434 0.74954 0.29384 0.0
H452 H 0.93169 0.7679 0.30842 0.0
H453 H 0.93229 0.74256 0.31635 0.0
H454 H 0.90166 0.74665 0.33561 0.0
H455 H 0.89302 0.76508 0.36535 0.0
H456 H 0.28567 0.0748 0.21084 0.0
H457 H 0.26029 0.07365 0.23662 0.0
H458 H 0.22315 0.11163 0.2015 0.0
H459 H 0.24801 0.11214 0.17548 0.0
H460 H 0.24402 0.10078 0.25911 0.0
H461 H 0.1855 0.06792 0.21325 0.0
H462 H 0.21081 0.06911 0.20514 0.0
H463 H 0.19455 0.0899 0.20169 0.0
C464 C 0.27204 0.08284 0.20866 0.0
C465 C 0.26867 0.0934 0.19112 0.0
C466 C 0.25757 0.08215 0.22335 0.0
C467 C 0.23959 0.0921 0.22075 0.0
C468 C 0.23659 0.10324 0.20353 0.0
H469 H 0.15975 0.1447 0.29854 0.0
H470 H 0.18906 0.13233 0.28204 0.0
C471 C 0.25088 0.10368 0.18875 0.0
C472 C 0.22408 0.09143 0.23614 0.0
H473 H 0.17441 0.0865 0.24174 0.0
C474 C 0.22884 0.0973 0.25544 0.0
C475 C 0.20439 0.08619 0.23161 0.0
C476 C 0.19859 0.0777 0.21185 0.0
C477 C 0.21416 0.09955 0.26987 0.0
C478 C 0.19416 0.09653 0.26463 0.0
C479 C 0.18966 0.08919 0.24577 0.0
C480 C 0.17757 0.10282 0.27746 0.0
C481 C 0.2203 0.10535 0.29047 0.0
C482 C 0.16112 0.09049 0.2803 0.0
C483 C 0.14403 0.09778 0.28925 0.0
C484 C 0.14321 0.11745 0.29571 0.0
C485 C 0.16002 0.12942 0.29386 0.0
C486 C 0.17692 0.12227 0.28459 0.0
H487 H 0.23492 0.09896 0.2942 0.0
H488 H 0.22175 0.12164 0.29128 0.0
H489 H 0.20942 0.10042 0.30169 0.0
H490 H 0.16122 0.07546 0.27486 0.0
H491 H 0.13127 0.08824 0.29052 0.0
H492 H 0.36864 0.90145 0.77382 0.0
H493 H 0.33907 0.9121 0.75612 0.0
H494 H 0.30307 0.87638 0.79459 0.0
H495 H 0.33253 0.86589 0.81255 0.0
H496 H 0.31681 0.88351 0.73692 0.0
H497 H 0.26996 0.92674 0.78835 0.0
H498 H 0.29603 0.92298 0.79242 0.0
H499 H 0.27874 0.90368 0.79805 0.0
C500 C 0.35437 0.89631 0.77887 0.0
C501 C 0.35287 0.88271 0.79443 0.0
C502 C 0.33751 0.90242 0.76876 0.0
C503 C 0.31891 0.89509 0.77412 0.0
C504 C 0.31724 0.88249 0.79045 0.0
H505 H 0.20676 0.88651 0.71314 0.0
H506 H 0.2335 0.88518 0.73753 0.0
C507 C 0.33411 0.87641 0.80062 0.0
C508 C 0.30189 0.89815 0.76084 0.0
H509 H 0.25486 0.91595 0.7584 0.0
C510 C 0.30334 0.89079 0.74155 0.0
C511 C 0.28426 0.90734 0.76709 0.0
C512 C 0.28213 0.9158 0.78756 0.0
C513 C 0.28756 0.8922 0.72833 0.0
C514 C 0.26999 0.90158 0.73446 0.0
C515 C 0.26843 0.90886 0.75379 0.0
C516 C 0.2532 0.90391 0.72079 0.0
C517 C 0.28967 0.88322 0.70804 0.0
C518 C 0.25536 0.91526 0.70363 0.0
C519 C 0.24026 0.91592 0.68967 0.0
C520 C 0.22268 0.90538 0.69276 0.0
C521 C 0.22021 0.89469 0.71036 0.0
C522 C 0.2354 0.89397 0.72431 0.0
H523 H 0.30199 0.87243 0.7074 0.0
H524 H 0.27586 0.87567 0.70349 0.0
H525 H 0.29279 0.89509 0.69718 0.0
H526 H 0.26891 0.92326 0.70083 0.0
H527 H 0.24249 0.92445 0.67633 0.0
H528 H 0.75833 0.36943 0.81444 0.0
H529 H 0.73471 0.36902 0.78726 0.0
H530 H 0.76145 0.42143 0.76291 0.0
H531 H 0.78553 0.42166 0.78993 0.0
H532 H 0.70813 0.39844 0.77996 0.0
H533 H 0.7559 0.38583 0.71447 0.0
H534 H 0.76429 0.38148 0.73939 0.0
H535 H 0.76279 0.40621 0.72999 0.0
C536 C 0.75937 0.38071 0.80315 0.0
C537 C 0.77373 0.3956 0.80429 0.0
C538 C 0.74586 0.38047 0.78765 0.0
C539 C 0.7464 0.39513 0.77303 0.0
C540 C 0.761 0.40979 0.77386 0.0
H541 H 0.63783 0.40528 0.7031 0.0
H542 H 0.66732 0.41595 0.72114 0.0
C543 C 0.77467 0.40995 0.78933 0.0
C544 C 0.73072 0.39562 0.75785 0.0
H545 H 0.7219 0.39046 0.70852 0.0
C546 C 0.71111 0.39685 0.76431 0.0
C547 C 0.73475 0.39353 0.73749 0.0
C548 C 0.75554 0.39153 0.72984 0.0
C549 C 0.69533 0.39523 0.75108 0.0
C550 C 0.69929 0.39298 0.73069 0.0
C551 C 0.71893 0.39243 0.72412 0.0
C552 C 0.68327 0.38869 0.71645 0.0
C553 C 0.67461 0.39482 0.75927 0.0
C554 C 0.68308 0.37045 0.70669 0.0
C555 C 0.66647 0.3645 0.69611 0.0
C556 C 0.64971 0.37665 0.69525 0.0
C557 C 0.65047 0.39554 0.70375 0.0
C558 C 0.66724 0.4016 0.71413 0.0
H559 H 0.67444 0.39246 0.7755 0.0
H560 H 0.6673 0.40915 0.75622 0.0
H561 H 0.66577 0.38295 0.75224 0.0
H562 H 0.69533 0.36029 0.70821 0.0
H563 H 0.66637 0.3499 0.6896 0.0
H564 H 0.86787 0.58445 0.21558 0.0
H565 H 0.84009 0.57024 0.23379 0.0
H566 H 0.80044 0.61075 0.20487 0.0
H567 H 0.82803 0.62489 0.18655 0.0
H568 H 0.81914 0.59422 0.25924 0.0
H569 H 0.7684 0.55954 0.20542 0.0
H570 H 0.79403 0.56442 0.19994 0.0
H571 H 0.77606 0.58386 0.19824 0.0
C572 C 0.85315 0.58995 0.21271 0.0
C573 C 0.85011 0.60588 0.19979 0.0
C574 C 0.83731 0.5818 0.22309 0.0
C575 C 0.8182 0.58932 0.22053 0.0
C576 C 0.81499 0.60444 0.20675 0.0
H577 H 0.71055 0.6037 0.28156 0.0
H578 H 0.73717 0.60026 0.25744 0.0
C579 C 0.83081 0.61263 0.19642 0.0
C580 C 0.8023 0.58381 0.2344 0.0
H581 H 0.75424 0.56903 0.23666 0.0
C582 C 0.80508 0.58829 0.25441 0.0
C583 C 0.78396 0.57628 0.22795 0.0
C584 C 0.78046 0.57057 0.20673 0.0
C585 C 0.78965 0.58651 0.26803 0.0
C586 C 0.77108 0.57955 0.2615 0.0
C587 C 0.76851 0.57432 0.2416 0.0
C588 C 0.75381 0.57926 0.27482 0.0
C589 C 0.79308 0.59324 0.28901 0.0
C590 C 0.75406 0.56808 0.29225 0.0
C591 C 0.73903 0.57023 0.30617 0.0
C592 C 0.72338 0.58336 0.30269 0.0
C593 C 0.7225 0.59355 0.28466 0.0
C594 C 0.73764 0.59155 0.27085 0.0
H595 H 0.80672 0.60222 0.29045 0.0
H596 H 0.78044 0.60214 0.29443 0.0
H597 H 0.79463 0.58015 0.29871 0.0
H598 H 0.76621 0.5582 0.29538 0.0
H599 H 0.73993 0.56201 0.31985 0.0
H600 H 0.30586 0.16192 0.13422 0.0
H601 H 0.29074 0.19109 0.11932 0.0
H602 H 0.26542 0.15479 0.07357 0.0
H603 H 0.28012 0.12543 0.08866 0.0
H604 H 0.29108 0.20913 0.08167 0.0
H605 H 0.21738 0.17866 0.10122 0.0
H606 H 0.24 0.16822 0.11051 0.0
H607 H 0.2322 0.16319 0.08566 0.0
C608 C 0.29731 0.16018 0.12082 0.0
C609 C 0.29389 0.14138 0.11276 0.0
C610 C 0.28874 0.17686 0.1123 0.0
C611 C 0.27669 0.17501 0.09557 0.0
C612 C 0.27438 0.15644 0.0867 0.0
H613 H 0.18982 0.25957 0.05373 0.0
H614 H 0.21375 0.2326 0.05313 0.0
C615 C 0.28282 0.13972 0.09531 0.0
C616 C 0.26512 0.19218 0.08867 0.0
H617 H 0.21805 0.20962 0.0859 0.0
C618 C 0.2751 0.20922 0.08239 0.0
C619 C 0.24428 0.19224 0.08975 0.0
C620 C 0.23278 0.17469 0.0973 0.0
C621 C 0.26474 0.22644 0.07733 0.0
C622 C 0.24395 0.2266 0.07885 0.0
C623 C 0.23399 0.20938 0.08459 0.0
C624 C 0.2321 0.24475 0.07627 0.0
C625 C 0.27611 0.24433 0.07054 0.0
C626 C 0.2348 0.26076 0.08913 0.0
C627 C 0.22117 0.27621 0.08948 0.0
C628 C 0.20452 0.27574 0.07713 0.0
C629 C 0.20248 0.26029 0.06346 0.0
C630 C 0.21614 0.24489 0.06308 0.0
H631 H 0.29066 0.24014 0.06427 0.0
H632 H 0.26773 0.25277 0.05927 0.0
H633 H 0.27882 0.25415 0.08336 0.0
H634 H 0.24675 0.26076 0.09973 0.0
H635 H 0.22308 0.28791 0.1002 0.0
H636 H 0.7637 0.36706 0.89919 0.0
H637 H 0.74751 0.33669 0.90974 0.0
H638 H 0.7979 0.30293 0.89056 0.0
H639 H 0.81406 0.33329 0.87957 0.0
H640 H 0.76423 0.29119 0.87312 0.0
H641 H 0.75169 0.29642 0.95353 0.0
H642 H 0.74366 0.31825 0.94092 0.0
H643 H 0.76941 0.31175 0.9408 0.0
C644 C 0.77158 0.35323 0.89774 0.0
C645 C 0.79005 0.3525 0.88839 0.0
C646 C 0.76236 0.33588 0.90392 0.0
C647 C 0.77157 0.31755 0.90109 0.0
C648 C 0.79059 0.31693 0.89296 0.0
H649 H 0.71138 0.20259 0.89819 0.0
H650 H 0.73782 0.22717 0.90023 0.0
C651 C 0.79979 0.33428 0.88669 0.0
C652 C 0.7601 0.29913 0.90362 0.0
H653 H 0.72965 0.27478 0.93551 0.0
C654 C 0.75703 0.28733 0.88688 0.0
C655 C 0.75064 0.29421 0.92156 0.0
C656 C 0.75418 0.30573 0.94026 0.0
C657 C 0.74387 0.27139 0.88726 0.0
C658 C 0.73376 0.26699 0.90496 0.0
C659 C 0.73742 0.27827 0.92195 0.0
C660 C 0.71819 0.25175 0.90559 0.0
C661 C 0.74008 0.26007 0.86844 0.0
C662 C 0.69851 0.25741 0.90847 0.0
C663 C 0.68342 0.24345 0.90735 0.0
C664 C 0.68779 0.22358 0.90338 0.0
C665 C 0.70758 0.21784 0.90111 0.0
C666 C 0.72268 0.23183 0.90225 0.0
H667 H 0.74635 0.26762 0.85531 0.0
H668 H 0.74695 0.24526 0.86956 0.0
H669 H 0.724 0.25799 0.86608 0.0
H670 H 0.69479 0.27274 0.91105 0.0
H671 H 0.66832 0.24828 0.90927 0.0
H672 H 0.80447 0.77451 0.43248 0.0
H673 H 0.77874 0.74908 0.43289 0.0
H674 H 0.77233 0.75449 0.36978 0.0
H675 H 0.79785 0.77997 0.36924 0.0
H676 H 0.73569 0.75072 0.39177 0.0
H677 H 0.79158 0.69338 0.41063 0.0
H678 H 0.7899 0.7145 0.42661 0.0
H679 H 0.79851 0.71752 0.40175 0.0
C680 C 0.79737 0.77046 0.41874 0.0
C681 C 0.80327 0.77905 0.40079 0.0
C682 C 0.78275 0.75591 0.419 0.0
C683 C 0.77388 0.74978 0.40133 0.0
C684 C 0.77906 0.75904 0.38356 0.0
H685 H 0.70771 0.66349 0.34351 0.0
H686 H 0.72318 0.69326 0.35642 0.0
C687 C 0.79366 0.77354 0.38327 0.0
C688 C 0.76025 0.73278 0.4009 0.0
H689 H 0.75966 0.68251 0.40324 0.0
C690 C 0.7408 0.73581 0.39457 0.0
C691 C 0.76698 0.7134 0.40471 0.0
C692 C 0.7879 0.70935 0.4112 0.0
C693 C 0.72808 0.71985 0.39116 0.0
C694 C 0.7352 0.70041 0.3938 0.0
C695 C 0.75428 0.69745 0.40123 0.0
C696 C 0.72412 0.68301 0.38668 0.0
C697 C 0.7073 0.72392 0.38435 0.0
C698 C 0.71984 0.66719 0.39936 0.0
C699 C 0.7111 0.65001 0.39195 0.0
C700 C 0.70674 0.64837 0.37174 0.0
C701 C 0.71085 0.66433 0.35917 0.0
C702 C 0.71951 0.68145 0.36656 0.0
H703 H 0.70211 0.73856 0.38959 0.0
H704 H 0.70693 0.72408 0.36797 0.0
H705 H 0.69691 0.7124 0.38965 0.0
H706 H 0.72351 0.66805 0.4149 0.0
H707 H 0.7081 0.6379 0.40196 0.0
H708 H 0.22324 0.8736 0.60055 0.0
H709 H 0.24262 0.84535 0.58912 0.0
H710 H 0.20671 0.80632 0.62432 0.0
H711 H 0.18724 0.83442 0.63573 0.0
H712 H 0.26344 0.82207 0.61663 0.0
H713 H 0.21257 0.77625 0.57171 0.0
H714 H 0.20816 0.80209 0.57661 0.0
H715 H 0.20268 0.78388 0.59509 0.0
C716 C 0.21918 0.85894 0.60547 0.0
C717 C 0.20382 0.85619 0.61911 0.0
C718 C 0.23025 0.84285 0.59893 0.0
C719 C 0.22597 0.82377 0.60575 0.0
C720 C 0.21002 0.82089 0.6186 0.0
H721 H 0.28281 0.71083 0.61255 0.0
H722 H 0.26004 0.73888 0.613 0.0
C723 C 0.199 0.83697 0.62521 0.0
C724 C 0.23965 0.80733 0.60161 0.0
H725 H 0.24222 0.76071 0.5828 0.0
C726 C 0.25893 0.80875 0.60898 0.0
C727 C 0.23356 0.78995 0.59184 0.0
C728 C 0.21316 0.78795 0.58319 0.0
C729 C 0.27215 0.79296 0.60744 0.0
C730 C 0.26604 0.77547 0.59782 0.0
C731 C 0.24685 0.77416 0.59013 0.0
C732 C 0.27921 0.75817 0.59626 0.0
C733 C 0.29226 0.79488 0.61685 0.0
C734 C 0.2973 0.75964 0.58633 0.0
C735 C 0.31038 0.74376 0.58623 0.0
C736 C 0.30546 0.72605 0.59584 0.0
C737 C 0.28701 0.72434 0.60511 0.0
C738 C 0.27398 0.7403 0.60533 0.0
H739 H 0.29277 0.8071 0.62777 0.0
H740 H 0.29657 0.78098 0.62438 0.0
H741 H 0.30335 0.79807 0.60524 0.0
H742 H 0.30141 0.77318 0.57889 0.0
H743 H 0.32442 0.74541 0.57877 0.0
H744 H 0.88907 0.72272 0.86498 0.0
H745 H 0.9 0.73887 0.83453 0.0
H746 H 0.87205 0.69317 0.80014 0.0
H747 H 0.86063 0.67725 0.83046 0.0
H748 H 0.9218 0.72775 0.8009 0.0
H749 H 0.84326 0.74321 0.7829 0.0
H750 H 0.85093 0.73419 0.80674 0.0
H751 H 0.84904 0.71757 0.78615 0.0
C752 C 0.88555 0.71595 0.85093 0.0
C753 C 0.87375 0.69894 0.85003 0.0
C754 C 0.89181 0.72516 0.83357 0.0
C755 C 0.88644 0.71742 0.81513 0.0
C756 C 0.87595 0.6996 0.81424 0.0
H757 H 0.89026 0.7742 0.69947 0.0
H758 H 0.88866 0.74883 0.72523 0.0
C759 C 0.86951 0.6905 0.83156 0.0
C760 C 0.8903 0.72888 0.79696 0.0
H761 H 0.86699 0.75399 0.76006 0.0
C762 C 0.90985 0.7334 0.79187 0.0
C763 C 0.87463 0.73628 0.78529 0.0
C764 C 0.85328 0.73275 0.79058 0.0
C765 C 0.91415 0.74524 0.77542 0.0
C766 C 0.89846 0.75287 0.76399 0.0
C767 C 0.87896 0.74797 0.76881 0.0
C768 C 0.90167 0.76721 0.74788 0.0
C769 C 0.93539 0.74957 0.77044 0.0
C770 C 0.90952 0.78588 0.75214 0.0
C771 C 0.91034 0.80037 0.73754 0.0
C772 C 0.90324 0.79646 0.71845 0.0
C773 C 0.89584 0.7776 0.71406 0.0
C774 C 0.89496 0.76311 0.72872 0.0
H775 H 0.94548 0.73835 0.77685 0.0
H776 H 0.93765 0.75008 0.75421 0.0
H777 H 0.9395 0.76416 0.77662 0.0
H778 H 0.91435 0.78947 0.76696 0.0
H779 H 0.91611 0.81479 0.74135 0.0
H780 H 0.61375 0.21404 0.20759 0.0
H781 H 0.61753 0.23766 0.23471 0.0
H782 H 0.57132 0.2081 0.26699 0.0
H783 H 0.56774 0.18423 0.24017 0.0
H784 H 0.59101 0.26364 0.25346 0.0
H785 H 0.61842 0.20568 0.30462 0.0
H786 H 0.61625 0.20174 0.27838 0.0
H787 H 0.59477 0.20052 0.29389 0.0
C788 C 0.60432 0.21267 0.22042 0.0
C789 C 0.59062 0.19718 0.2219 0.0
C790 C 0.60646 0.22618 0.23585 0.0
C791 C 0.59494 0.22438 0.25296 0.0
C792 C 0.58063 0.20947 0.25407 0.0
H793 H 0.60234 0.28241 0.36708 0.0
H794 H 0.58987 0.26469 0.33816 0.0
C795 C 0.57856 0.1959 0.23872 0.0
C796 C 0.59851 0.23754 0.26998 0.0
H797 H 0.61368 0.23745 0.31799 0.0
C798 C 0.59593 0.25796 0.2676 0.0
C799 C 0.60498 0.23002 0.28836 0.0
C800 C 0.60896 0.20832 0.29149 0.0
C801 C 0.59956 0.27108 0.28322 0.0
C802 C 0.60612 0.26354 0.30153 0.0
C803 C 0.60848 0.24313 0.30395 0.0
C804 C 0.61177 0.27649 0.31814 0.0
C805 C 0.59628 0.29286 0.28006 0.0
C806 C 0.62803 0.28916 0.31635 0.0
C807 C 0.63521 0.29924 0.33283 0.0
C808 C 0.62628 0.29671 0.35138 0.0
C809 C 0.6095 0.28464 0.35296 0.0
C810 C 0.60236 0.27453 0.33648 0.0
H811 H 0.58635 0.2957 0.26732 0.0
H812 H 0.58987 0.29982 0.29344 0.0
H813 H 0.61064 0.30008 0.27698 0.0
H814 H 0.63572 0.29056 0.30241 0.0
H815 H 0.64819 0.30841 0.33118 0.0
H816 H 0.3785 0.71578 0.28893 0.0
H817 H 0.37522 0.73987 0.26205 0.0
H818 H 0.41584 0.70603 0.22669 0.0
H819 H 0.41886 0.68179 0.25317 0.0
H820 H 0.40313 0.76317 0.24083 0.0
H821 H 0.36571 0.7082 0.19296 0.0
H822 H 0.36934 0.70435 0.21906 0.0
H823 H 0.38924 0.70015 0.20204 0.0
C824 C 0.3868 0.71358 0.27545 0.0
C825 C 0.39871 0.6968 0.27299 0.0
C826 C 0.38496 0.72735 0.26017 0.0
C827 C 0.39503 0.7245 0.24231 0.0
C828 C 0.40765 0.70826 0.24023 0.0
H829 H 0.39319 0.77797 0.12694 0.0
H830 H 0.40365 0.76125 0.15718 0.0
C831 C 0.40938 0.69445 0.25538 0.0
C832 C 0.39165 0.73786 0.22541 0.0
H833 H 0.37484 0.73841 0.17797 0.0
C834 C 0.3969 0.75783 0.22709 0.0
C835 C 0.38338 0.7308 0.20759 0.0
C836 C 0.3764 0.70976 0.2053 0.0
C837 C 0.39449 0.77087 0.21114 0.0
C838 C 0.38656 0.76368 0.19325 0.0
C839 C 0.38118 0.74377 0.19167 0.0
C840 C 0.38291 0.77651 0.17602 0.0
C841 C 0.4007 0.79212 0.21338 0.0
C842 C 0.36812 0.79094 0.17676 0.0
C843 C 0.36206 0.80046 0.15951 0.0
C844 C 0.37067 0.7956 0.14127 0.0
C845 C 0.38628 0.78199 0.14078 0.0
C846 C 0.39228 0.77245 0.15802 0.0
H847 H 0.41041 0.79432 0.22641 0.0
H848 H 0.40854 0.79731 0.19995 0.0
H849 H 0.38738 0.80144 0.2153 0.0
H850 H 0.3605 0.79403 0.19047 0.0
H851 H 0.34999 0.81089 0.16031 0.0
H852 H 0.14051 0.19006 0.65893 0.0
H853 H 0.12895 0.20785 0.6881 0.0
H854 H 0.0913 0.24369 0.65137 0.0
H855 H 0.10293 0.22607 0.62207 0.0
H856 H 0.11788 0.26486 0.67517 0.0
H857 H 0.07673 0.2093 0.71919 0.0
H858 H 0.10065 0.20146 0.71092 0.0
H859 H 0.08159 0.20628 0.69314 0.0
C860 C 0.12947 0.20145 0.65711 0.0
C861 C 0.12269 0.20677 0.63824 0.0
C862 C 0.12278 0.2115 0.6738 0.0
C863 C 0.10914 0.22693 0.67188 0.0
C864 C 0.10175 0.23172 0.65313 0.0
H865 H 0.07192 0.32078 0.75032 0.0
H866 H 0.07526 0.29761 0.72291 0.0
C867 C 0.10841 0.22166 0.63644 0.0
C868 C 0.10447 0.23959 0.68899 0.0
H869 H 0.08487 0.23944 0.7354 0.0
C870 C 0.11048 0.25937 0.68826 0.0
C871 C 0.09508 0.23225 0.70611 0.0
C872 C 0.08798 0.2112 0.70741 0.0
C873 C 0.10765 0.27201 0.70435 0.0
C874 C 0.09813 0.26474 0.72145 0.0
C875 C 0.0921 0.24494 0.72221 0.0
C876 C 0.0945 0.27759 0.73868 0.0
C877 C 0.11538 0.29287 0.70309 0.0
C878 C 0.10354 0.27353 0.75686 0.0
C879 C 0.10151 0.28667 0.77264 0.0
C880 C 0.09042 0.30403 0.77038 0.0
C881 C 0.08075 0.30762 0.7524 0.0
C882 C 0.08268 0.29444 0.73672 0.0
H883 H 0.12666 0.29449 0.69131 0.0
H884 H 0.10301 0.303 0.69961 0.0
H885 H 0.12199 0.29757 0.71734 0.0
H886 H 0.11266 0.26053 0.75865 0.0
H887 H 0.10906 0.28351 0.78638 0.0
H888 H 0.70745 0.8758 0.78367 0.0
H889 H 0.73446 0.87289 0.75984 0.0
H890 H 0.76899 0.91419 0.79384 0.0
H891 H 0.74227 0.91686 0.8179 0.0
H892 H 0.75372 0.90139 0.73671 0.0
H893 H 0.80488 0.86599 0.7901 0.0
H894 H 0.77883 0.86861 0.79485 0.0
H895 H 0.79517 0.88925 0.79821 0.0
C896 C 0.7208 0.88426 0.78604 0.0
C897 C 0.72288 0.89639 0.80272 0.0
C898 C 0.73617 0.88263 0.77241 0.0
C899 C 0.75379 0.8931 0.77528 0.0
C900 C 0.75564 0.90569 0.7916 0.0
H901 H 0.8666 0.89126 0.71514 0.0
H902 H 0.83789 0.90196 0.73421 0.0
C903 C 0.74035 0.90724 0.80528 0.0
C904 C 0.77043 0.89049 0.76146 0.0
H905 H 0.81805 0.87453 0.75895 0.0
C906 C 0.7678 0.89553 0.74153 0.0
C907 C 0.78873 0.88277 0.76785 0.0
C908 C 0.79208 0.87616 0.78887 0.0
C909 C 0.78312 0.8932 0.7278 0.0
C910 C 0.80139 0.88551 0.73423 0.0
C911 C 0.80405 0.88061 0.75416 0.0
C912 C 0.81774 0.88135 0.72047 0.0
C913 C 0.77975 0.89909 0.7066 0.0
C914 C 0.81576 0.86649 0.70622 0.0
C915 C 0.83212 0.8603 0.69536 0.0
C916 C 0.85072 0.86885 0.69868 0.0
C917 C 0.85245 0.88441 0.71227 0.0
C918 C 0.83609 0.89054 0.72317 0.0
H919 H 0.76692 0.90917 0.70506 0.0
H920 H 0.79302 0.90642 0.70039 0.0
H921 H 0.77675 0.88567 0.69771 0.0
H922 H 0.80179 0.859 0.70418 0.0
H923 H 0.83037 0.84826 0.685 0.0
H924 H 0.65725 0.13279 0.17854 0.0
H925 H 0.68682 0.12071 0.19529 0.0
H926 H 0.65075 0.09705 0.24212 0.0
H927 H 0.6211 0.10869 0.22522 0.0
H928 H 0.6977 0.13417 0.23104 0.0
H929 H 0.69009 0.05292 0.23435 0.0
H930 H 0.67563 0.06798 0.21778 0.0
H931 H 0.66856 0.06543 0.24327 0.0
C932 C 0.6556 0.1246 0.19217 0.0
C933 C 0.63691 0.12175 0.20065 0.0
C934 C 0.6725 0.1177 0.20171 0.0
C935 C 0.67098 0.10783 0.21985 0.0
C936 C 0.65225 0.10422 0.22791 0.0
H937 H 0.74333 0.08475 0.32013 0.0
H938 H 0.71742 0.08753 0.29515 0.0
C939 C 0.63532 0.11101 0.21831 0.0
C940 C 0.68894 0.10361 0.23153 0.0
H941 H 0.71277 0.06759 0.25745 0.0
C942 C 0.7012 0.11955 0.23653 0.0
C943 C 0.69339 0.08454 0.23875 0.0
C944 C 0.68132 0.06671 0.2331 0.0
C945 C 0.71733 0.11711 0.24922 0.0
C946 C 0.72143 0.09816 0.25688 0.0
C947 C 0.70951 0.0821 0.25152 0.0
C948 C 0.73738 0.09505 0.2714 0.0
C949 C 0.72935 0.13496 0.25499 0.0
C950 C 0.75716 0.09806 0.26616 0.0
C951 C 0.77199 0.09656 0.28041 0.0
C952 C 0.76721 0.09197 0.30006 0.0
C953 C 0.74743 0.0884 0.30511 0.0
C954 C 0.73264 0.0899 0.29087 0.0
H955 H 0.72198 0.14898 0.25077 0.0
H956 H 0.73208 0.13512 0.27115 0.0
H957 H 0.74385 0.13438 0.24743 0.0
H958 H 0.76109 0.10183 0.25113 0.0
H959 H 0.78714 0.09926 0.27609 0.0
H960 H 0.33217 0.63415 0.30888 0.0
H961 H 0.3051 0.61922 0.29037 0.0
H962 H 0.34667 0.5839 0.25765 0.0
H963 H 0.37392 0.59887 0.27608 0.0
H964 H 0.32235 0.60777 0.23449 0.0
H965 H 0.27793 0.56506 0.28823 0.0
H966 H 0.28393 0.58951 0.29652 0.0
H967 H 0.30333 0.57183 0.29272 0.0
C968 C 0.33552 0.62286 0.29807 0.0
C969 C 0.35514 0.61776 0.2938 0.0
C970 C 0.32002 0.61423 0.28762 0.0
C971 C 0.32389 0.60032 0.27281 0.0
C972 C 0.34341 0.5945 0.26917 0.0
H973 H 0.24484 0.56786 0.17581 0.0
H974 H 0.27272 0.5675 0.19876 0.0
C975 C 0.35893 0.60307 0.27968 0.0
C976 C 0.30791 0.59419 0.25931 0.0
H977 H 0.26167 0.57433 0.25809 0.0
C978 C 0.30923 0.60011 0.23952 0.0
C979 C 0.29078 0.5844 0.26604 0.0
C980 C 0.28893 0.57716 0.28701 0.0
C981 C 0.29346 0.59737 0.22644 0.0
C982 C 0.27611 0.58799 0.23327 0.0
C983 C 0.27502 0.58149 0.25292 0.0
C984 C 0.25852 0.58605 0.22052 0.0
C985 C 0.29517 0.60549 0.20575 0.0
C986 C 0.24102 0.59584 0.22561 0.0
C987 C 0.22501 0.59588 0.21265 0.0
C988 C 0.22631 0.58618 0.19438 0.0
C989 C 0.24354 0.57567 0.1897 0.0
C990 C 0.25947 0.57548 0.20275 0.0
H991 H 0.30752 0.61618 0.20434 0.0
H992 H 0.29795 0.59318 0.19533 0.0
H993 H 0.28131 0.61296 0.20122 0.0
H994 H 0.24 0.60403 0.2393 0.0
H995 H 0.21187 0.60403 0.21666 0.0
H996 H 0.29222 0.38995 0.72467 0.0
H997 H 0.26525 0.38855 0.74871 0.0
H998 H 0.22449 0.40884 0.70424 0.0
H999 H 0.25134 0.41045 0.68019 0.0
H1000 H 0.22029 0.42713 0.74289 0.0
H1001 H 0.22218 0.34503 0.74515 0.0
H1002 H 0.24516 0.35738 0.74992 0.0
H1003 H 0.23409 0.35907 0.7259 0.0
C1004 C 0.27753 0.39421 0.72007 0.0
C1005 C 0.27382 0.40014 0.70054 0.0
C1006 C 0.26217 0.39339 0.73378 0.0
C1007 C 0.24291 0.39841 0.72814 0.0
C1008 C 0.23928 0.40491 0.70883 0.0
H1009 H 0.12481 0.392 0.77222 0.0
H1010 H 0.15542 0.40232 0.75616 0.0
C1011 C 0.25461 0.40573 0.69511 0.0
C1012 C 0.22629 0.39595 0.74199 0.0
H1013 H 0.19896 0.36081 0.76538 0.0
C1014 C 0.21565 0.41267 0.74796 0.0
C1015 C 0.22036 0.37705 0.74849 0.0
C1016 C 0.2309 0.35855 0.74197 0.0
C1017 C 0.1991 0.41096 0.7603 0.0
C1018 C 0.19291 0.392 0.76644 0.0
C1019 C 0.20381 0.37535 0.76074 0.0
C1020 C 0.17457 0.38873 0.77784 0.0
C1021 C 0.18849 0.42944 0.76669 0.0
C1022 C 0.17517 0.37777 0.7954 0.0
C1023 C 0.15772 0.37162 0.80442 0.0
C1024 C 0.13937 0.37635 0.79603 0.0
C1025 C 0.13875 0.38825 0.77906 0.0
C1026 C 0.15624 0.39426 0.76994 0.0
H1027 H 0.19838 0.44251 0.76617 0.0
H1028 H 0.17599 0.43223 0.75649 0.0
H1029 H 0.18254 0.42792 0.78188 0.0
H1030 H 0.18917 0.37329 0.8017 0.0
H1031 H 0.15863 0.36251 0.81753 0.0
H1032 H 0.78037 0.7106 0.88492 0.0
H1033 H 0.75721 0.73834 0.88522 0.0
H1034 H 0.79744 0.77168 0.92159 0.0
H1035 H 0.82082 0.74422 0.92102 0.0
H1036 H 0.73867 0.75888 0.91643 0.0
H1037 H 0.78925 0.80716 0.87345 0.0
H1038 H 0.79314 0.78094 0.87588 0.0
H1039 H 0.79955 0.79728 0.89578 0.0
C1040 C 0.78423 0.72383 0.89302 0.0
C1041 C 0.80247 0.72538 0.90275 0.0
C1042 C 0.77098 0.7396 0.89324 0.0
C1043 C 0.77578 0.75711 0.90319 0.0
C1044 C 0.79365 0.75841 0.91352 0.0
H1045 H 0.71858 0.87188 0.89692 0.0
H1046 H 0.73781 0.8442 0.90991 0.0
C1047 C 0.80696 0.74271 0.91321 0.0
C1048 C 0.76243 0.7743 0.90202 0.0
H1049 H 0.75935 0.82117 0.88399 0.0
C1050 C 0.74318 0.77256 0.90944 0.0
C1051 C 0.76842 0.7921 0.89289 0.0
C1052 C 0.78865 0.79452 0.88388 0.0
C1053 C 0.72966 0.78816 0.90783 0.0
C1054 C 0.73556 0.80579 0.89838 0.0
C1055 C 0.75495 0.80768 0.8914 0.0
C1056 C 0.72157 0.82188 0.89384 0.0
C1057 C 0.7092 0.78564 0.91618 0.0
C1058 C 0.70579 0.81841 0.88091 0.0
C1059 C 0.69483 0.83416 0.87345 0.0
C1060 C 0.69957 0.85365 0.87872 0.0
C1061 C 0.71461 0.85701 0.8926 0.0
C1062 C 0.72559 0.84123 0.90003 0.0
H1063 H 0.70889 0.77423 0.92796 0.0
H1064 H 0.70354 0.79974 0.92231 0.0
H1065 H 0.69909 0.78081 0.90424 0.0
H1066 H 0.7027 0.80364 0.87563 0.0
H1067 H 0.68333 0.83113 0.86277 0.0
H1068 H 0.20504 0.65864 0.15184 0.0
H1069 H 0.22032 0.68724 0.13648 0.0
H1070 H 0.21279 0.66076 0.07904 0.0
H1071 H 0.19795 0.63157 0.09453 0.0
H1072 H 0.24903 0.67332 0.08339 0.0
H1073 H 0.20004 0.73362 0.10663 0.0
H1074 H 0.20714 0.71964 0.1279 0.0
H1075 H 0.19286 0.70804 0.10864 0.0
C1076 C 0.20634 0.659 0.13591 0.0
C1077 C 0.20034 0.64287 0.12437 0.0
C1078 C 0.21489 0.67548 0.12711 0.0
C1079 C 0.2173 0.67638 0.10656 0.0
C1080 C 0.21089 0.66047 0.09491 0.0
H1081 H 0.27787 0.78598 0.07221 0.0
H1082 H 0.25274 0.75993 0.07186 0.0
C1083 C 0.20245 0.64382 0.10376 0.0
C1084 C 0.22855 0.69294 0.09777 0.0
H1085 H 0.23469 0.74273 0.10157 0.0
C1086 C 0.24563 0.68855 0.08694 0.0
C1087 C 0.22391 0.71287 0.1019 0.0
C1088 C 0.20484 0.71879 0.11171 0.0
C1089 C 0.25904 0.70338 0.08165 0.0
C1090 C 0.25554 0.72298 0.08791 0.0
C1091 C 0.23763 0.72762 0.09717 0.0
C1092 C 0.27101 0.73838 0.08678 0.0
C1093 C 0.27704 0.69775 0.06983 0.0
C1094 C 0.2895 0.73499 0.09547 0.0
C1095 C 0.30386 0.74971 0.09552 0.0
C1096 C 0.29987 0.76826 0.08724 0.0
C1097 C 0.28132 0.77178 0.07869 0.0
C1098 C 0.26698 0.75693 0.07845 0.0
H1099 H 0.27385 0.68502 0.06001 0.0
H1100 H 0.28241 0.71024 0.06068 0.0
H1101 H 0.28899 0.69321 0.08007 0.0
H1102 H 0.29271 0.72106 0.10262 0.0
H1103 H 0.31796 0.74666 0.1024 0.0
H1104 H 0.28873 0.36593 0.60277 0.0
H1105 H 0.27085 0.33772 0.58896 0.0
H1106 H 0.29166 0.30101 0.63658 0.0
H1107 H 0.30964 0.32909 0.65049 0.0
H1108 H 0.28986 0.28289 0.59552 0.0
H1109 H 0.22113 0.31921 0.62212 0.0
H1110 H 0.23736 0.33385 0.60706 0.0
H1111 H 0.24524 0.32606 0.63112 0.0
C1112 C 0.28983 0.35175 0.61008 0.0
C1113 C 0.30036 0.34974 0.62783 0.0
C1114 C 0.27962 0.33569 0.60217 0.0
C1115 C 0.27983 0.31743 0.6119 0.0
C1116 C 0.29137 0.31503 0.6289 0.0
H1117 H 0.21627 0.20743 0.60797 0.0
H1118 H 0.24158 0.23297 0.61135 0.0
C1119 C 0.30156 0.33109 0.63684 0.0
C1120 C 0.2663 0.30154 0.60572 0.0
H1121 H 0.21768 0.28878 0.60606 0.0
C1122 C 0.27406 0.28414 0.59767 0.0
C1123 C 0.24575 0.30332 0.60867 0.0
C1124 C 0.23678 0.32153 0.61783 0.0
C1125 C 0.26167 0.26839 0.59235 0.0
C1126 C 0.24112 0.27005 0.59561 0.0
C1127 C 0.23343 0.28758 0.60348 0.0
C1128 C 0.2272 0.25368 0.59171 0.0
C1129 C 0.27065 0.25026 0.58311 0.0
C1130 C 0.21065 0.25691 0.5797 0.0
C1131 C 0.19604 0.24251 0.57803 0.0
C1132 C 0.19775 0.2246 0.58833 0.0
C1133 C 0.21464 0.22108 0.59981 0.0
C1134 C 0.22919 0.23559 0.60161 0.0
H1135 H 0.28509 0.25362 0.57612 0.0
H1136 H 0.27321 0.23902 0.59474 0.0
H1137 H 0.2607 0.24379 0.57181 0.0
H1138 H 0.20878 0.27081 0.57202 0.0
H1139 H 0.1832 0.24558 0.56902 0.0
H1140 H 0.68186 0.25525 0.42306 0.0
H1141 H 0.70589 0.22846 0.42171 0.0
H1142 H 0.74207 0.26281 0.38215 0.0
H1143 H 0.71827 0.28992 0.38382 0.0
H1144 H 0.71475 0.2089 0.38825 0.0
H1145 H 0.783 0.24089 0.42005 0.0
H1146 H 0.75906 0.25214 0.42323 0.0
H1147 H 0.77255 0.25558 0.40063 0.0
C1148 C 0.69509 0.25722 0.41431 0.0
C1149 C 0.69819 0.27461 0.40346 0.0
C1150 C 0.70881 0.24193 0.41361 0.0
C1151 C 0.72587 0.24374 0.40203 0.0
C1152 C 0.72925 0.26129 0.39156 0.0
H1153 H 0.80635 0.16177 0.34998 0.0
H1154 H 0.78966 0.19131 0.36231 0.0
C1155 C 0.71557 0.27669 0.39238 0.0
C1156 C 0.73887 0.22645 0.39922 0.0
H1157 H 0.7866 0.2106 0.40211 0.0
C1158 C 0.73041 0.20919 0.39153 0.0
C1159 C 0.75931 0.22695 0.40342 0.0
C1160 C 0.76901 0.24482 0.41246 0.0
C1161 C 0.74189 0.19255 0.38744 0.0
C1162 C 0.76235 0.19312 0.39137 0.0
C1163 C 0.77087 0.21028 0.39922 0.0
C1164 C 0.77509 0.17622 0.38636 0.0
C1165 C 0.73216 0.17468 0.37836 0.0
C1166 C 0.77293 0.15821 0.39632 0.0
C1167 C 0.78238 0.14132 0.38929 0.0
C1168 C 0.79411 0.14225 0.37223 0.0
C1169 C 0.7973 0.16061 0.3631 0.0
C1170 C 0.78785 0.17749 0.37014 0.0
H1171 H 0.71702 0.17794 0.373 0.0
H1172 H 0.74104 0.16902 0.36581 0.0
H1173 H 0.73115 0.16279 0.38958 0.0
H1174 H 0.76323 0.15705 0.40897 0.0
H1175 H 0.77977 0.12739 0.3967 0.0
H1176 H 0.09884 0.18607 0.53858 0.0
H1177 H 0.0869 0.1816 0.50466 0.0
H1178 H 0.14694 0.1779 0.48397 0.0
H1179 H 0.15895 0.18209 0.51768 0.0
H1180 H 0.09474 0.20326 0.46923 0.0
H1181 H 0.12118 0.12597 0.46533 0.0
H1182 H 0.11889 0.13922 0.48833 0.0
H1183 H 0.13999 0.14311 0.47271 0.0
C1184 C 0.10946 0.18443 0.52675 0.0
C1185 C 0.12981 0.18422 0.53074 0.0
C1186 C 0.10263 0.1819 0.50745 0.0
C1187 C 0.11606 0.17908 0.49197 0.0
C1188 C 0.13636 0.17967 0.49583 0.0
H1189 H 0.10822 0.18615 0.36623 0.0
H1190 H 0.11126 0.19271 0.4016 0.0
C1191 C 0.14319 0.18214 0.51506 0.0
C1192 C 0.10905 0.17501 0.47177 0.0
H1193 H 0.11257 0.14119 0.43476 0.0
C1194 C 0.09841 0.18962 0.4617 0.0
C1195 C 0.11354 0.15704 0.46221 0.0
C1196 C 0.12385 0.14035 0.47275 0.0
C1197 C 0.0929 0.18706 0.44189 0.0
C1198 C 0.09854 0.16959 0.43195 0.0
C1199 C 0.10843 0.15466 0.44234 0.0
C1200 C 0.0951 0.16664 0.41061 0.0
C1201 C 0.08114 0.20305 0.43183 0.0
C1202 C 0.08531 0.14965 0.40396 0.0
C1203 C 0.08389 0.1457 0.38381 0.0
C1204 C 0.09219 0.15871 0.36997 0.0
C1205 C 0.1016 0.17594 0.3766 0.0
C1206 C 0.10319 0.17979 0.39678 0.0
H1207 H 0.07272 0.21198 0.4427 0.0
H1208 H 0.09137 0.21313 0.42397 0.0
H1209 H 0.07066 0.19677 0.42091 0.0
H1210 H 0.07908 0.13926 0.4144 0.0
H1211 H 0.07648 0.13234 0.37908 0.0
H1212 H 0.39728 0.81872 0.04191 0.0
H1213 H 0.40956 0.82263 0.00802 0.0
H1214 H 0.35339 0.80317 0.98534 0.0
H1215 H 0.341 0.79935 0.01896 0.0
H1216 H 0.40996 0.79501 0.97302 0.0
H1217 H 0.3625 0.86134 0.96498 0.0
H1218 H 0.36885 0.85098 0.98871 0.0
H1219 H 0.35001 0.83969 0.97386 0.0
C1220 C 0.38769 0.81499 0.02968 0.0
C1221 C 0.36812 0.80898 0.033 0.0
C1222 C 0.39472 0.81719 0.0104 0.0
C1223 C 0.38225 0.81341 0.99433 0.0
C1224 C 0.36312 0.80634 -0.00236 0.0
H1225 H 0.39546 0.80662 0.86867 0.0
H1226 H 0.39341 0.79951 0.90403 0.0
C1227 C 0.35608 0.80418 0.01682 0.0
C1228 C 0.38846 0.81834 0.97408 0.0
H1229 H 0.37714 0.84886 0.93579 0.0
C1230 C 0.40298 0.80687 0.96486 0.0
C1231 C 0.37949 0.83403 0.96372 0.0
C1232 C 0.36446 0.84737 0.97333 0.0
C1233 C 0.40825 0.8103 0.9451 0.0
C1234 C 0.39851 0.82537 0.93443 0.0
C1235 C 0.38451 0.83723 0.94397 0.0
C1236 C 0.40201 0.8289 0.91319 0.0
C1237 C 0.42417 0.79781 0.93588 0.0
C1238 C 0.40731 0.84781 0.90664 0.0
C1239 C 0.40815 0.85198 0.88651 0.0
C1240 C 0.40373 0.83729 0.87258 0.0
C1241 C 0.399 0.81819 0.87911 0.0
C1242 C 0.39801 0.81406 0.89929 0.0
H1243 H 0.43407 0.79137 0.94725 0.0
H1244 H 0.41723 0.78544 0.92769 0.0
H1245 H 0.43319 0.80653 0.92534 0.0
H1246 H 0.41034 0.85948 0.91715 0.0
H1247 H 0.41193 0.8668 0.88187 0.0
H1248 H 0.65971 0.32053 0.47267 0.0
H1249 H 0.64728 0.31869 0.50635 0.0
H1250 H 0.58872 0.30695 0.48435 0.0
H1251 H 0.60109 0.30901 0.45033 0.0
H1252 H 0.58977 0.33611 0.51277 0.0
H1253 H 0.63088 0.27064 0.53854 0.0
H1254 H 0.64698 0.28824 0.52708 0.0
H1255 H 0.62797 0.27649 0.51268 0.0
C1256 C 0.6442 0.31743 0.47496 0.0
C1257 C 0.63136 0.31488 0.4589 0.0
C1258 C 0.63716 0.3162 0.49422 0.0
C1259 C 0.61719 0.31222 0.49781 0.0
C1260 C 0.60424 0.30977 0.48183 0.0
H1261 H 0.58806 0.30399 0.62428 0.0
H1262 H 0.58853 0.29522 0.58911 0.0
C1263 C 0.6113 0.311 0.46247 0.0
C1264 C 0.60987 0.31212 0.51833 0.0
H1265 H 0.62061 0.29373 0.56393 0.0
C1266 C 0.59615 0.32655 0.52392 0.0
C1267 C 0.6179 0.29938 0.53278 0.0
C1268 C 0.63159 0.28268 0.52742 0.0
C1269 C 0.5915 0.32963 0.54383 0.0
C1270 C 0.60109 0.31819 0.55842 0.0
C1271 C 0.61353 0.30269 0.55272 0.0
C1272 C 0.60006 0.32343 0.57955 0.0
C1273 C 0.57684 0.34552 0.54909 0.0
C1274 C 0.60678 0.34199 0.58575 0.0
C1275 C 0.60659 0.34698 0.60568 0.0
C1276 C 0.59982 0.33343 0.61983 0.0
C1277 C 0.59333 0.31472 0.61366 0.0
C1278 C 0.59353 0.30972 0.59363 0.0
H1279 H 0.56619 0.34803 0.53688 0.0
H1280 H 0.56852 0.34169 0.56268 0.0
H1281 H 0.58484 0.35957 0.5517 0.0
H1282 H 0.6124 0.35257 0.57516 0.0
H1283 H 0.61178 0.36147 0.61 0.0
H1284 H 0.90474 0.61657 0.11287 0.0
H1285 H 0.90351 0.62099 0.07702 0.0
H1286 H 0.87874 0.67907 0.08499 0.0
H1287 H 0.88031 0.67493 0.12079 0.0
H1288 H 0.87151 0.62705 0.05399 0.0
H1289 H 0.92307 0.68988 0.04627 0.0
H1290 H 0.92141 0.67536 0.06857 0.0
H1291 H 0.90396 0.69482 0.06388 0.0
C1292 C 0.89911 0.63031 0.10696 0.0
C1293 C 0.89266 0.64543 0.11958 0.0
C1294 C 0.89848 0.63283 0.08652 0.0
C1295 C 0.89143 0.65051 0.07839 0.0
C1296 C 0.88476 0.66553 0.09098 0.0
H1297 H 0.83497 0.67488 0.97013 0.0
H1298 H 0.84559 0.66752 0.0037 0.0
C1299 C 0.88547 0.66307 0.11141 0.0
C1300 C 0.88987 0.65286 0.05677 0.0
H1301 H 0.90105 0.68417 0.01891 0.0
C1302 C 0.87821 0.63936 0.04626 0.0
C1303 C 0.89893 0.66873 0.04665 0.0
C1304 C 0.91272 0.6829 0.0569 0.0
C1305 C 0.87447 0.64194 0.0261 0.0
C1306 C 0.88229 0.65864 0.01635 0.0
C1307 C 0.89486 0.67152 0.02655 0.0
C1308 C 0.87633 0.66371 0.99603 0.0
C1309 C 0.86188 0.62693 0.01549 0.0
C1310 C 0.89027 0.66472 0.98076 0.0
C1311 C 0.88425 0.66908 0.96149 0.0
C1312 C 0.86424 0.67257 0.95736 0.0
C1313 C 0.85047 0.6721 0.97284 0.0
C1314 C 0.85648 0.66778 0.992 0.0
H1315 H 0.86215 0.61242 0.02311 0.0
H1316 H 0.84638 0.63215 0.0152 0.0
H1317 H 0.86689 0.62487 2e-05 0.0
H1318 H 0.90571 0.6618 0.9837 0.0
H1319 H 0.89516 0.6694 0.94983 0.0
H1320 H 0.3773 0.07828 0.1273 0.0
H1321 H 0.41301 0.08067 0.13188 0.0
H1322 H 0.40402 0.11293 0.18601 0.0
H1323 H 0.3683 0.1103 0.18172 0.0
H1324 H 0.4343 0.11453 0.13329 0.0
H1325 H 0.44496 0.0722 0.20237 0.0
H1326 H 0.4226 0.07074 0.18794 0.0
H1327 H 0.42643 0.09095 0.20474 0.0
C1328 C 0.38295 0.0857 0.14028 0.0
C1329 C 0.37006 0.09412 0.15416 0.0
C1330 C 0.40332 0.08701 0.14289 0.0
C1331 C 0.41113 0.09668 0.15944 0.0
C1332 C 0.39829 0.10497 0.17339 0.0
H1333 H 0.51806 0.15956 0.17436 0.0
H1334 H 0.4846 0.14728 0.1694 0.0
C1335 C 0.3779 0.10361 0.17083 0.0
C1336 C 0.43266 0.09956 0.1613 0.0
H1337 H 0.47136 0.09408 0.19306 0.0
C1338 C 0.44247 0.10981 0.14623 0.0
C1339 C 0.44333 0.09311 0.17805 0.0
C1340 C 0.43383 0.08095 0.1941 0.0
C1341 C 0.46247 0.11467 0.14791 0.0
C1342 C 0.47278 0.10942 0.16526 0.0
C1343 C 0.46329 0.09828 0.17989 0.0
C1344 C 0.49303 0.1165 0.16894 0.0
C1345 C 0.47233 0.12563 0.13121 0.0
C1346 C 0.50872 0.10316 0.17096 0.0
C1347 C 0.52791 0.11014 0.1739 0.0
C1348 C 0.53157 0.13053 0.17497 0.0
C1349 C 0.51571 0.14377 0.17346 0.0
C1350 C 0.49661 0.1368 0.17053 0.0
H1351 H 0.46434 0.12349 0.11704 0.0
H1352 H 0.47238 0.14166 0.13458 0.0
H1353 H 0.48784 0.12076 0.1293 0.0
H1354 H 0.50615 0.08742 0.16991 0.0
H1355 H 0.53988 0.09963 0.17507 0.0
H1356 H 0.97168 0.83444 0.67169 0.0
H1357 H 0.00564 0.84627 0.67213 0.0
H1358 H 0.98534 0.90493 0.68618 0.0
H1359 H 0.95109 0.8932 0.6855 0.0
H1360 H 0.01268 0.90403 0.65577 0.0
H1361 H 0.03942 0.86095 0.71976 0.0
H1362 H 0.02731 0.84565 0.70186 0.0
H1363 H 0.01351 0.86441 0.71462 0.0
C1364 C 0.97442 0.84983 0.67499 0.0
C1365 C 0.95877 0.8629 0.67863 0.0
C1366 C 0.99383 0.85654 0.67539 0.0
C1367 C -0.00203 0.87636 0.67959 0.0
C1368 C 0.98239 0.88952 0.68311 0.0
H1369 H 0.12277 0.90791 0.69162 0.0
H1370 H 0.08739 0.90537 0.69848 0.0
C1371 C 0.9629 0.88281 0.6827 0.0
C1372 C 0.01858 0.88335 0.6792 0.0
H1373 H 0.0643 0.87277 0.69724 0.0
C1374 C 0.02395 0.89747 0.66506 0.0
C1375 C 0.03316 0.87504 0.69159 0.0
C1376 C 0.02803 0.86083 0.70796 0.0
C1377 C 0.04377 0.9026 0.66214 0.0
C1378 C 0.0585 0.89303 0.67341 0.0
C1379 C 0.05299 0.87985 0.6884 0.0
C1380 C 0.0797 0.89549 0.66909 0.0
C1381 C 0.04874 0.91798 0.64682 0.0
C1382 C 0.08707 0.89049 0.65039 0.0
C1383 C 0.10719 0.89196 0.64644 0.0
C1384 C 0.12032 0.89822 0.6612 0.0
C1385 C 0.11296 0.90303 0.67998 0.0
C1386 C 0.09279 0.90165 0.6839 0.0
H1387 H 0.03621 0.92826 0.64442 0.0
H1388 H 0.06193 0.92668 0.65116 0.0
H1389 H 0.05188 0.91056 0.63256 0.0
H1390 H 0.07727 0.88517 0.63893 0.0
H1391 H 0.11247 0.88805 0.63187 0.0
H1392 H 0.01876 0.337 0.81606 0.0
H1393 H 0.98468 0.34759 0.82051 0.0
H1394 H 0.00357 0.40835 0.82246 0.0
H1395 H 0.03791 0.39784 0.81778 0.0
H1396 H 0.97103 0.36933 0.85355 0.0
H1397 H 0.95707 0.4078 0.78226 0.0
H1398 H 0.97719 0.39065 0.78555 0.0
H1399 H 0.97879 0.41503 0.79574 0.0
C1400 C 0.01568 0.35264 0.81723 0.0
C1401 C 0.03097 0.36662 0.8166 0.0
C1402 C 0.99622 0.35865 0.81979 0.0
C1403 C 0.99167 0.37872 0.82169 0.0
C1404 C 0.00682 0.39279 0.82074 0.0
H1405 H 0.87725 0.4158 0.86818 0.0
H1406 H 0.91275 0.41317 0.86215 0.0
C1407 C 0.02638 0.38678 0.81815 0.0
C1408 C 0.9711 0.38456 0.82567 0.0
H1409 H 0.93104 0.40729 0.80538 0.0
C1410 C 0.96229 0.37776 0.84312 0.0
C1411 C 0.95984 0.39544 0.81191 0.0
C1412 C 0.96857 0.40259 0.79272 0.0
C1413 C 0.94232 0.3812 0.84704 0.0
C1414 C 0.931 0.39201 0.83325 0.0
C1415 C 0.93987 0.39912 0.81594 0.0
C1416 C 0.90963 0.39502 0.83607 0.0
C1417 C 0.93332 0.37261 0.86553 0.0
C1418 C 0.89621 0.38615 0.82305 0.0
C1419 C 0.87597 0.38768 0.82639 0.0
C1420 C 0.86886 0.39815 0.84281 0.0
C1421 C 0.88233 0.4075 0.85551 0.0
C1422 C 0.90258 0.406 0.85212 0.0
H1423 H 0.943 0.3613 0.87241 0.0
H1424 H 0.93096 0.38457 0.87645 0.0
H1425 H 0.91879 0.36577 0.86227 0.0
H1426 H 0.90143 0.37763 0.81056 0.0
H1427 H 0.86591 0.3804 0.81632 0.0
H1428 H 0.45798 0.60895 0.30894 0.0
H1429 H 0.49336 0.60189 0.31125 0.0
H1430 H 0.50446 0.66233 0.32784 0.0
H1431 H 0.46926 0.66957 0.32532 0.0
H1432 H 0.53039 0.64765 0.29893 0.0
H1433 H 0.524 0.59755 0.36367 0.0
H1434 H 0.50888 0.59118 0.34283 0.0
H1435 H 0.50425 0.61369 0.35603 0.0
C1436 C 0.46799 0.62071 0.31305 0.0
C1437 C 0.46091 0.63977 0.31705 0.0
C1438 C 0.48813 0.61665 0.31443 0.0
C1439 C 0.5014 0.63155 0.31996 0.0
C1440 C 0.49439 0.65065 0.32361 0.0
H1441 H 0.61951 0.62317 0.3654 0.0
H1442 H 0.58448 0.62951 0.35949 0.0
C1443 C 0.4743 0.65473 0.3222 0.0
C1444 C 0.52262 0.62734 0.32212 0.0
H1445 H 0.55569 0.60131 0.34968 0.0
C1446 C 0.53597 0.63748 0.30997 0.0
C1447 C 0.52973 0.61425 0.33671 0.0
C1448 C 0.51603 0.60364 0.3507 0.0
C1449 C 0.55637 0.63486 0.31204 0.0
C1450 C 0.56346 0.62157 0.32645 0.0
C1451 C 0.55011 0.61141 0.33858 0.0
C1452 C 0.58474 0.61832 0.32958 0.0
C1453 C 0.57015 0.6467 0.29916 0.0
C1454 C 0.59637 0.60991 0.31469 0.0
C1455 C 0.61637 0.60633 0.318 0.0
C1456 C 0.62496 0.61099 0.33629 0.0
C1457 C 0.61327 0.61947 0.35115 0.0
C1458 C 0.5933 0.62306 0.34782 0.0
H1459 H 0.56257 0.65944 0.29217 0.0
H1460 H 0.58288 0.65228 0.30785 0.0
H1461 H 0.57595 0.6371 0.28724 0.0
H1462 H 0.58991 0.60585 0.30064 0.0
H1463 H 0.62502 0.59968 0.30633 0.0
H1464 H 0.15387 0.37343 0.12604 0.0
H1465 H 0.15988 0.40874 0.13027 0.0
H1466 H 0.19686 0.40894 0.0785 0.0
H1467 H 0.19088 0.37351 0.07408 0.0
H1468 H 0.19786 0.4289 0.1339 0.0
H1469 H 0.15387 0.45229 0.06841 0.0
H1470 H 0.15113 0.4282 0.0795 0.0
H1471 H 0.17241 0.43364 0.06475 0.0
C1472 C 0.16337 0.38095 0.11561 0.0
C1473 C 0.17186 0.37077 0.09969 0.0
C1474 C 0.16677 0.40109 0.11805 0.0
C1475 C 0.17861 0.41138 0.10456 0.0
C1476 C 0.18748 0.40122 0.08889 0.0
H1477 H 0.19719 0.53987 0.1052 0.0
H1478 H 0.19894 0.50499 0.09544 0.0
C1479 C 0.18413 0.38102 0.08646 0.0
C1480 C 0.18141 0.43281 0.10701 0.0
H1481 H 0.16744 0.47738 0.08819 0.0
C1482 C 0.19141 0.43953 0.12382 0.0
C1483 C 0.17305 0.44654 0.09371 0.0
C1484 C 0.1619 0.43993 0.0756 0.0
C1485 C 0.19281 0.45971 0.12801 0.0
C1486 C 0.18364 0.47341 0.11522 0.0
C1487 C 0.17438 0.46676 0.09795 0.0
C1488 C 0.18213 0.49447 0.12047 0.0
C1489 C 0.20384 0.46619 0.14625 0.0
C1490 C 0.17165 0.49999 0.1374 0.0
C1491 C 0.17061 0.51974 0.14296 0.0
C1492 C 0.17994 0.53434 0.13159 0.0
C1493 C 0.18991 0.52888 0.11425 0.0
C1494 C 0.19095 0.50903 0.10868 0.0
H1495 H 0.21465 0.45486 0.15108 0.0
H1496 H 0.21176 0.4803 0.14366 0.0
H1497 H 0.19318 0.46846 0.15846 0.0
H1498 H 0.16438 0.48897 0.14643 0.0
H1499 H 0.16269 0.52351 0.15632 0.0
H1500 H 0.68459 0.96999 0.83501 0.0
H1501 H 0.67907 0.0045 0.84349 0.0
H1502 H 0.65635 0.9871 0.90036 0.0
H1503 H 0.66214 0.95232 0.89206 0.0
H1504 H 0.64258 0.02101 0.85256 0.0
H1505 H 0.69657 0.03077 0.91367 0.0
H1506 H 0.69761 0.01019 0.89678 0.0
H1507 H 0.67968 0.01047 0.91627 0.0
C1508 C 0.6786 0.97349 0.84941 0.0
C1509 C 0.67378 0.9585 0.86289 0.0
C1510 C 0.67544 0.9932 0.85421 0.0
C1511 C 0.66742 -0.00169 0.87256 0.0
C1512 C 0.66284 0.98343 0.88623 0.0
H1513 H 0.61782 0.11532 0.89438 0.0
H1514 H 0.62202 0.0796 0.891 0.0
C1515 C 0.66608 0.96362 0.88145 0.0
C1516 C 0.66308 0.01922 0.87678 0.0
H1517 H 0.67621 0.05801 0.90604 0.0
C1518 C 0.64984 0.02911 0.86431 0.0
C1519 C 0.67272 0.02967 0.89203 0.0
C1520 C 0.68757 0.01984 0.9054 0.0
C1521 C 0.64619 0.04933 0.86648 0.0
C1522 C 0.65578 0.05979 0.88176 0.0
C1523 C 0.66883 0.04985 0.89441 0.0
C1524 C 0.65318 0.08126 0.88425 0.0
C1525 C 0.63263 0.05945 0.85198 0.0
C1526 C 0.66939 0.0939 0.88192 0.0
C1527 C 0.66706 0.11425 0.88394 0.0
C1528 C 0.64848 0.12225 0.88836 0.0
C1529 C 0.63227 0.10955 0.89081 0.0
C1530 C 0.63463 0.08918 0.88885 0.0
H1531 H 0.63006 0.05033 0.83859 0.0
H1532 H 0.61816 0.06213 0.85912 0.0
H1533 H 0.63878 0.07392 0.84735 0.0
H1534 H 0.68382 0.08802 0.87839 0.0
H1535 H 0.67982 0.12369 0.88205 0.0
H1536 H 0.80936 0.01987 0.3358 0.0
H1537 H 0.80961 0.986 0.34791 0.0
H1538 H 0.8041 0.00705 0.40775 0.0
H1539 H 0.80413 0.04119 0.3957 0.0
H1540 H 0.83413 0.98053 0.40312 0.0
H1541 H 0.76603 0.95096 0.36944 0.0
H1542 H 0.78116 0.96318 0.35149 0.0
H1543 H 0.77076 0.97711 0.37158 0.0
C1544 C 0.80797 0.01731 0.35152 0.0
C1545 C 0.80674 0.03314 0.36483 0.0
C1546 C 0.80792 -0.00206 0.3584 0.0
C1547 C 0.80648 0.99403 0.37868 0.0
C1548 C 0.80501 0.0098 0.39202 0.0
H1549 H 0.80709 0.86837 0.41136 0.0
H1550 H 0.79714 0.90317 0.41056 0.0
C1551 C 0.80506 0.02924 0.38513 0.0
C1552 C 0.80838 0.97354 0.38582 0.0
H1553 H 0.79127 0.92694 0.37755 0.0
C1554 C 0.82452 0.96885 0.39789 0.0
C1555 C 0.79564 0.95837 0.37926 0.0
C1556 C 0.77731 0.96269 0.3674 0.0
C1557 C 0.82908 0.9492 0.40239 0.0
C1558 C 0.81737 0.93394 0.39431 0.0
C1559 C 0.8004 0.93869 0.38346 0.0
C1560 C 0.82346 0.91307 0.39546 0.0
C1561 C 0.84671 0.94494 0.4153 0.0
C1562 C 0.84136 0.90719 0.38694 0.0
C1563 C 0.84704 0.88744 0.38733 0.0
C1564 C 0.83483 0.8732 0.39614 0.0
C1565 C 0.8168 0.87907 0.40452 0.0
C1566 C 0.81111 0.89889 0.4041 0.0
H1567 H 0.85002 0.95756 0.42523 0.0
H1568 H 0.84431 0.93153 0.42442 0.0
H1569 H 0.85982 0.94246 0.40583 0.0
H1570 H 0.85085 0.91786 0.37976 0.0
H1571 H 0.86097 0.88333 0.38068 0.0
H1572 H 0.32575 0.46998 0.66749 0.0
H1573 H 0.32518 0.50431 0.65672 0.0
H1574 H 0.30743 0.48598 0.59837 0.0
H1575 H 0.30833 0.45138 0.60899 0.0
H1576 H 0.33753 0.51286 0.59777 0.0
H1577 H 0.27771 0.53926 0.64648 0.0
H1578 H 0.29664 0.52681 0.66015 0.0
H1579 H 0.28232 0.51336 0.64224 0.0
C1580 C 0.32162 0.47324 0.65239 0.0
C1581 C 0.31702 0.45804 0.63908 0.0
C1582 C 0.32115 0.49287 0.64631 0.0
C1583 C 0.31584 0.49768 0.62689 0.0
C1584 C 0.31136 0.48254 0.61349 0.0
H1585 H 0.30229 0.62317 0.5986 0.0
H1586 H 0.29544 0.58779 0.60158 0.0
C1587 C 0.3119 0.46283 0.61955 0.0
C1588 C 0.31604 0.51851 0.62049 0.0
H1589 H 0.29949 0.5642 0.63344 0.0
C1590 C 0.32898 0.52407 0.60533 0.0
C1591 C 0.30458 0.53304 0.63011 0.0
C1592 C 0.28938 0.52779 0.6455 0.0
C1593 C 0.33164 0.54397 0.60032 0.0
C1594 C 0.32138 0.55861 0.61109 0.0
C1595 C 0.30757 0.55296 0.62543 0.0
C1596 C 0.32558 0.57985 0.60852 0.0
C1597 C 0.34555 0.54909 0.58372 0.0
C1598 C 0.3447 0.58708 0.61174 0.0
C1599 C 0.34865 0.60719 0.60999 0.0
C1600 C 0.33347 0.62046 0.60524 0.0
C1601 C 0.31426 0.61326 0.60228 0.0
C1602 C 0.31034 0.59308 0.60392 0.0
H1603 H 0.3469 0.53672 0.57305 0.0
H1604 H 0.34058 0.56246 0.57565 0.0
H1605 H 0.36043 0.552 0.58988 0.0
H1606 H 0.35655 0.57718 0.61586 0.0
H1607 H 0.36357 0.61236 0.61248 0.0
H1608 H 0.89367 0.84651 0.44767 0.0
H1609 H 0.90253 0.85048 0.48245 0.0
H1610 H 0.88805 0.78946 0.49325 0.0
H1611 H 0.87917 0.78534 0.45851 0.0
H1612 H 0.87247 0.84322 0.51138 0.0
H1613 H 0.93981 0.79857 0.52505 0.0
H1614 H 0.93309 0.80746 0.5008 0.0
H1615 H 0.92072 0.78644 0.51117 0.0
C1616 C 0.89292 0.83379 0.45733 0.0
C1617 C 0.8856 0.81564 0.45045 0.0
C1618 C 0.89796 0.8361 0.47717 0.0
C1619 C 0.896 0.82025 0.49033 0.0
C1620 C 0.88994 0.80178 0.48323 0.0
H1621 H 0.89315 0.80397 0.61641 0.0
H1622 H 0.89299 0.80038 0.58045 0.0
C1623 C 0.8848 0.79947 0.46341 0.0
C1624 C 0.8975 0.82369 0.51177 0.0
H1625 H 0.92217 0.80964 0.55332 0.0
C1626 C 0.88347 0.83608 0.52057 0.0
C1627 C 0.91171 0.81412 0.52361 0.0
C1628 C 0.92731 0.801 0.51472 0.0
C1629 C 0.88293 0.83879 0.54105 0.0
C1630 C 0.89714 0.82921 0.55295 0.0
C1631 C 0.91132 0.81697 0.54412 0.0
C1632 C 0.8973 0.83149 0.57464 0.0
C1633 C 0.86673 0.85133 0.54978 0.0
C1634 C 0.89989 0.85015 0.58322 0.0
C1635 C 0.89978 0.85226 0.60371 0.0
C1636 C 0.89735 0.8357 0.61594 0.0
C1637 C 0.89498 0.81699 0.60732 0.0
C1638 C 0.89496 0.81491 0.58682 0.0
H1639 H 0.85419 0.85316 0.53938 0.0
H1640 H 0.86108 0.84479 0.56371 0.0
H1641 H 0.87267 0.86621 0.55316 0.0
H1642 H 0.90211 0.86307 0.57406 0.0
H1643 H 0.90184 0.86683 0.60996 0.0
H1644 H 0.64936 0.16659 0.966 0.0
H1645 H 0.63957 0.16641 0.00061 0.0
H1646 H 0.58649 0.19828 0.98596 0.0
H1647 H 0.59613 0.19833 0.951 0.0
H1648 H 0.6321 0.19935 0.02491 0.0
H1649 H 0.56688 0.14984 0.01772 0.0
H1650 H 0.58532 0.15197 -0.00138 0.0
H1651 H 0.56748 0.17122 0.00199 0.0
C1652 C 0.63556 0.17352 0.97009 0.0
C1653 C 0.62346 0.18243 0.95582 0.0
C1654 C 0.63002 0.17344 0.98987 0.0
C1655 C 0.61227 0.18221 0.99577 0.0
C1656 C 0.60013 0.19121 0.98161 0.0
H1657 H 0.5893 0.19723 0.12259 0.0
H1658 H 0.59233 0.2043 0.08723 0.0
C1659 C 0.60567 0.19128 0.96171 0.0
C1660 C 0.60683 0.18187 0.01685 0.0
H1661 H 0.5751 0.16067 0.04968 0.0
C1662 C 0.6195 0.19111 0.03037 0.0
C1663 C 0.59048 0.17095 0.0238 0.0
C1664 C 0.57677 0.16028 0.00986 0.0
C1665 C 0.61663 0.18921 0.05076 0.0
C1666 C 0.60044 0.17805 0.05772 0.0
C1667 C 0.58742 0.16929 0.0442 0.0
C1668 C 0.59772 0.17394 0.07895 0.0
C1669 C 0.63143 0.19836 0.06467 0.0
C1670 C 0.59935 0.15451 0.08585 0.0
C1671 C 0.59756 0.15042 0.10594 0.0
C1672 C 0.59406 0.16573 0.11946 0.0
C1673 C 0.59214 0.18517 0.11249 0.0
C1674 C 0.5939 0.18924 0.09235 0.0
H1675 H 0.64503 0.20318 0.05689 0.0
H1676 H 0.62476 0.21148 0.07182 0.0
H1677 H 0.63561 0.18776 0.07646 0.0
H1678 H 0.6023 0.14252 0.07569 0.0
H1679 H 0.59904 0.13529 0.11088 0.0
H1680 H 0.38396 0.68753 0.3758 0.0
H1681 H 0.38145 0.69034 0.41171 0.0
H1682 H 0.40322 0.63085 0.41804 0.0
H1683 H 0.40524 0.62776 0.38215 0.0
H1684 H 0.37139 0.63691 0.44024 0.0
H1685 H 0.42436 0.69786 0.45236 0.0
H1686 H 0.4057 0.7043 0.43472 0.0
H1687 H 0.42274 0.68468 0.42925 0.0
C1688 C 0.38827 0.67509 0.38487 0.0
C1689 C 0.39478 0.65743 0.37623 0.0
C1690 C 0.38702 0.67678 0.40537 0.0
C1691 C 0.39256 0.66095 0.41754 0.0
C1692 C 0.39903 0.64329 0.40891 0.0
H1693 H 0.39657 0.6723 0.54672 0.0
H1694 H 0.40654 0.66707 0.51225 0.0
C1695 C 0.40012 0.64153 0.38842 0.0
C1696 C 0.3904 0.66238 0.4392 0.0
H1697 H 0.40191 0.69102 0.47901 0.0
C1698 C 0.37827 0.64859 0.44875 0.0
C1699 C 0.39969 0.6774 0.45035 0.0
C1700 C 0.41402 0.69176 0.44117 0.0
C1701 C 0.37444 0.64995 0.46901 0.0
C1702 C 0.38258 0.66581 0.47986 0.0
C1703 C 0.39548 0.67905 0.47055 0.0
C1704 C 0.37692 0.66947 0.50057 0.0
C1705 C 0.36159 0.63446 0.47856 0.0
C1706 C 0.3571 0.67302 0.50523 0.0
C1707 C 0.3514 0.67591 0.52475 0.0
C1708 C 0.36547 0.67553 0.53997 0.0
C1709 C 0.38544 0.6726 0.53526 0.0
C1710 C 0.39113 0.66961 0.51564 0.0
H1711 H 0.36178 0.62044 0.47006 0.0
H1712 H 0.36641 0.63137 0.49392 0.0
H1713 H 0.34613 0.63982 0.47899 0.0
H1714 H 0.34599 0.67347 0.49373 0.0
H1715 H 0.33593 0.67832 0.52792 0.0
H1716 H 0.1239 0.28408 0.03204 0.0
H1717 H 0.11257 0.28723 -0.00219 0.0
H1718 H 0.1079 0.35027 0.00507 0.0
H1719 H 0.11944 0.34731 0.03913 0.0
H1720 H 0.07851 0.30616 0.97848 0.0
H1721 H 0.15068 0.34135 0.96176 0.0
H1722 H 0.14616 0.32792 0.98432 0.0
H1723 H 0.13708 0.35267 0.98148 0.0
C1724 C 0.12005 0.29856 0.02645 0.0
C1725 C 0.12282 0.3155 0.03809 0.0
C1726 C 0.11358 0.30032 0.00695 0.0
C1727 C 0.10978 0.31901 -0.00107 0.0
C1728 C 0.11107 0.33576 0.01099 0.0
H1729 H 0.09292 0.36693 0.88274 0.0
H1730 H 0.09571 0.36102 0.91821 0.0
C1731 C 0.11762 0.33403 0.03042 0.0
C1732 C 0.10642 0.32128 0.97754 0.0
H1733 H 0.12713 0.34081 0.93606 0.0
C1734 C 0.08911 0.31367 0.96914 0.0
C1735 C 0.12043 0.33093 0.96548 0.0
C1736 C 0.13973 0.33855 0.97363 0.0
C1737 C 0.08517 0.31601 0.94891 0.0
C1738 C 0.09908 0.32595 0.93694 0.0
C1739 C 0.11648 0.3333 0.94535 0.0
C1740 C 0.09592 0.3292 0.91563 0.0
C1741 C 0.06603 0.30828 0.9406 0.0
C1742 C 0.09519 0.31322 0.90249 0.0
C1743 C 0.09363 0.31655 0.88219 0.0
C1744 C 0.0929 0.33591 0.87479 0.0
C1745 C 0.09349 0.35185 0.88802 0.0
C1746 C 0.09503 0.34851 0.90827 0.0
H1747 H 0.05514 0.30501 0.9524 0.0
H1748 H 0.05946 0.31907 0.93015 0.0
H1749 H 0.06893 0.29443 0.93237 0.0
H1750 H 0.09626 0.29822 0.9079 0.0
H1751 H 0.09324 0.304 0.87231 0.0
H1752 H 0.60907 0.88564 0.85615 0.0
H1753 H 0.57447 0.88356 0.84605 0.0
H1754 H 0.59035 0.90125 0.78701 0.0
H1755 H 0.62506 0.90336 0.79696 0.0
H1756 H 0.55645 0.92197 0.80556 0.0
H1757 H 0.55175 0.84013 0.80788 0.0
H1758 H 0.56235 0.85143 0.82943 0.0
H1759 H 0.57494 0.85317 0.80617 0.0
C1760 C 0.6052 0.88903 0.841 0.0
C1761 C 0.61972 0.89456 0.8273 0.0
C1762 C 0.58548 0.88781 0.83527 0.0
C1763 C 0.58001 0.89211 0.81578 0.0
C1764 C 0.5944 0.89784 0.8021 0.0
H1765 H 0.46258 0.8606 0.77516 0.0
H1766 H 0.49772 0.86871 0.77406 0.0
C1767 C 0.61417 0.89896 0.80779 0.0
C1768 C 0.55918 0.89059 0.8098 0.0
H1769 H 0.52149 0.85763 0.80559 0.0
C1770 C 0.54879 0.90792 0.80531 0.0
C1771 C 0.54943 0.87219 0.80928 0.0
C1772 C 0.56018 0.85312 0.81328 0.0
C1773 C 0.52852 0.90737 0.80113 0.0
C1774 C 0.51857 0.88905 0.8016 0.0
C1775 C 0.52919 0.87167 0.80526 0.0
C1776 C 0.49693 0.8875 0.79985 0.0
C1777 C 0.51789 0.92635 0.79649 0.0
C1778 C 0.48484 0.89583 0.81442 0.0
C1779 C 0.4648 0.89121 0.81512 0.0
C1780 C 0.45662 0.87808 0.80131 0.0
C1781 C 0.46851 0.87074 0.786 0.0
C1782 C 0.48855 0.87535 0.78534 0.0
H1783 H 0.52823 0.93788 0.79111 0.0
H1784 H 0.50625 0.92397 0.7852 0.0
H1785 H 0.51074 0.93195 0.81011 0.0
H1786 H 0.49111 0.90495 0.82596 0.0
H1787 H 0.45597 0.89706 0.82708 0.0
H1788 H 0.86874 0.0953 0.30186 0.0
H1789 H 0.90429 0.09756 0.29618 0.0
H1790 H 0.91473 0.0927 0.35882 0.0
H1791 H 0.87916 0.09078 0.36465 0.0
H1792 H 0.93413 0.12364 0.34206 0.0
H1793 H 0.94724 0.05552 0.29878 0.0
H1794 H 0.92787 0.0706 0.28885 0.0
H1795 H 0.92496 0.05955 0.31282 0.0
C1796 C 0.87863 0.09456 0.3144 0.0
C1797 C 0.87122 0.0929 0.3337 0.0
C1798 C 0.89892 0.09566 0.31112 0.0
C1799 C 0.91212 0.09494 0.32705 0.0
C1800 C 0.90476 0.09312 0.34632 0.0
H1801 H 0.04074 0.09384 0.31981 0.0
H1802 H 0.00621 0.0839 0.32439 0.0
C1803 C 0.88447 0.09207 0.34962 0.0
C1804 C 0.93348 0.09767 0.32375 0.0
H1805 H 0.97307 0.07968 0.29835 0.0
C1806 C 0.94268 0.11392 0.33265 0.0
C1807 C 0.94462 0.08483 0.31166 0.0
C1808 C 0.93573 0.06653 0.30263 0.0
C1809 C 0.96263 0.11805 0.32931 0.0
C1810 C 0.97351 0.10582 0.31639 0.0
C1811 C 0.96454 0.08917 0.308 0.0
C1812 C 0.99417 0.11043 0.31133 0.0
C1813 C 0.97187 0.13548 0.33968 0.0
C1814 C -0.00133 0.12821 0.30176 0.0
C1815 C 0.01824 0.13395 0.29927 0.0
C1816 C 0.03362 0.12186 0.30609 0.0
C1817 C 0.02913 0.10343 0.31445 0.0
C1818 C 0.00947 0.09775 0.31709 0.0
H1819 H 0.96323 0.13998 0.35286 0.0
H1820 H 0.9872 0.13211 0.34437 0.0
H1821 H 0.97236 0.14822 0.32939 0.0
H1822 H 0.98701 0.13798 0.29685 0.0
H1823 H 0.0213 0.14814 0.29256 0.0
H1824 H 0.12428 0.59397 0.196 0.0
H1825 H 0.08888 0.59701 0.20247 0.0
H1826 H 0.07894 0.61194 0.14136 0.0
H1827 H 0.11421 0.60858 0.1347 0.0
H1828 H 0.06445 0.62898 0.19783 0.0
H1829 H 0.04 0.56703 0.15043 0.0
H1830 H 0.06545 0.57055 0.15745 0.0
H1831 H 0.05501 0.58454 0.13743 0.0
C1832 C 0.11453 0.59788 0.18395 0.0
C1833 C 0.12193 0.60093 0.16482 0.0
C1834 C 0.09435 0.59958 0.18766 0.0
C1835 C 0.08131 0.6043 0.1723 0.0
C1836 C 0.08873 0.60779 0.15329 0.0
H1837 H 0.96668 0.65516 0.1732 0.0
H1838 H 0.00185 0.64764 0.17313 0.0
C1839 C 0.10888 0.60601 0.14955 0.0
C1840 C 0.05997 0.60612 0.1762 0.0
H1841 H 0.01498 0.58974 0.16074 0.0
C1842 C 0.05362 0.62026 0.18991 0.0
C1843 C 0.04592 0.59444 0.16611 0.0
C1844 C 0.05192 0.57815 0.15219 0.0
C1845 C 0.03349 0.62366 0.19314 0.0
C1846 C 0.01946 0.61289 0.18208 0.0
C1847 C 0.0258 0.59813 0.16905 0.0
C1848 C -0.00181 0.61746 0.18294 0.0
C1849 C 0.02747 0.63883 0.20828 0.0
C1850 C 0.98446 0.6028 0.18799 0.0
C1851 C 0.96429 0.607 0.18784 0.0
C1852 C 0.95761 0.62589 0.18253 0.0
C1853 C 0.97141 0.6405 0.17748 0.0
C1854 C 0.99152 0.63629 0.17757 0.0
H1855 H 0.03916 0.64099 0.21958 0.0
H1856 H 0.02501 0.65319 0.20081 0.0
H1857 H 0.0136 0.63449 0.21584 0.0
H1858 H 0.98937 0.58812 0.192 0.0
H1859 H 0.95395 0.59546 0.19176 0.0
H1860 H 0.38733 0.39805 0.63833 0.0
H1861 H 0.42284 0.39792 0.64488 0.0
H1862 H 0.4115 0.39427 0.70741 0.0
H1863 H 0.37595 0.39425 0.70101 0.0
H1864 H 0.44504 0.42521 0.66945 0.0
H1865 H 0.44898 0.34732 0.69534 0.0
H1866 H 0.42829 0.35672 0.68144 0.0
H1867 H 0.43088 0.3627 0.70712 0.0
C1868 C 0.3924 0.39713 0.65347 0.0
C1869 C 0.37891 0.39604 0.66916 0.0
C1870 C 0.41265 0.39714 0.65718 0.0
C1871 C 0.4197 0.39596 0.6766 0.0
C1872 C 0.40629 0.39497 0.69231 0.0
H1873 H 0.54064 0.37688 0.71547 0.0
H1874 H 0.50581 0.38635 0.7163 0.0
C1875 C 0.38602 0.39497 0.68862 0.0
C1876 C 0.44114 0.3956 0.68033 0.0
H1877 H 0.47841 0.36562 0.69574 0.0
C1878 C 0.45238 0.41225 0.67532 0.0
C1879 C 0.45054 0.3787 0.68808 0.0
C1880 C 0.43914 0.36026 0.6932 0.0
C1881 C 0.47294 0.41235 0.67765 0.0
C1882 C 0.48242 0.39522 0.68483 0.0
C1883 C 0.47108 0.37878 0.69035 0.0
C1884 C 0.50413 0.39319 0.68514 0.0
C1885 C 0.4843 0.43076 0.67237 0.0
C1886 C 0.51481 0.39439 0.66745 0.0
C1887 C 0.53468 0.38909 0.66695 0.0
C1888 C 0.54413 0.38227 0.6841 0.0
C1889 C 0.53372 0.38209 0.70203 0.0
C1890 C 0.51384 0.38747 0.70253 0.0
H1891 H 0.4749 0.44412 0.67361 0.0
H1892 H 0.49743 0.43263 0.68198 0.0
H1893 H 0.48936 0.42967 0.65683 0.0
H1894 H 0.50752 0.39833 0.65378 0.0
H1895 H 0.54231 0.3893 0.65291 0.0
H1896 H 0.79656 0.62598 0.8935 0.0
H1897 H 0.78783 0.59097 0.89107 0.0
H1898 H 0.84954 0.57551 0.8915 0.0
H1899 H 0.85839 0.6104 0.89368 0.0
H1900 H 0.82777 0.55744 0.86151 0.0
H1901 H 0.79178 0.54861 0.93471 0.0
H1902 H 0.78252 0.56851 0.9198 0.0
H1903 H 0.80743 0.56936 0.92879 0.0
C1904 C 0.80824 0.61509 0.89311 0.0
C1905 C 0.82814 0.62087 0.89378 0.0
C1906 C 0.80323 0.59513 0.89187 0.0
C1907 C 0.81805 0.58071 0.89142 0.0
C1908 C 0.83791 0.58646 0.89196 0.0
H1909 H 0.81772 0.45419 0.90117 0.0
H1910 H 0.81963 0.48971 0.90766 0.0
C1911 C 0.84293 0.60638 0.89317 0.0
C1912 C 0.81299 0.55961 0.88953 0.0
H1913 H 0.79032 0.52119 0.91299 0.0
C1914 C 0.81955 0.54951 0.87273 0.0
C1915 C 0.80243 0.54936 0.90433 0.0
C1916 C 0.79574 0.55942 0.92303 0.0
C1917 C 0.81582 0.52935 0.87028 0.0
C1918 C 0.80495 0.51916 0.88488 0.0
C1919 C 0.79844 0.52919 0.90176 0.0
C1920 C 0.80099 0.49784 0.88305 0.0
C1921 C 0.82393 0.51901 0.85229 0.0
C1922 C 0.7892 0.49078 0.8676 0.0
C1923 C 0.78813 0.47058 0.86383 0.0
C1924 C 0.79878 0.45718 0.87553 0.0
C1925 C 0.80942 0.46421 0.89189 0.0
C1926 C 0.81051 0.48445 0.89562 0.0
H1927 H 0.83538 0.52797 0.8447 0.0
H1928 H 0.83044 0.50453 0.85636 0.0
H1929 H 0.81177 0.51628 0.84167 0.0
H1930 H 0.78155 0.50095 0.85792 0.0
H1931 H 0.7797 0.46555 0.85121 0.0
H1932 H 0.35755 0.88184 0.08328 0.0
H1933 H 0.34998 0.91688 0.0875 0.0
H1934 H 0.29181 0.90191 0.10847 0.0
H1935 H 0.29918 0.86679 0.10409 0.0
H1936 H 0.2933 0.9344 0.08087 0.0
H1937 H 0.34628 0.94204 0.14308 0.0
H1938 H 0.35647 0.9319 0.12081 0.0
H1939 H 0.33799 0.91835 0.13415 0.0
C1940 C 0.34312 0.88601 0.08871 0.0
C1941 C 0.329 0.87162 0.09354 0.0
C1942 C 0.33884 0.906 0.09112 0.0
C1943 C 0.32045 0.91188 0.0985 0.0
C1944 C 0.30611 0.89759 0.10278 0.0
H1945 H 0.29397 0.02253 0.15426 0.0
H1946 H 0.29589 0.98785 0.14477 0.0
C1947 C 0.31036 0.87758 0.10035 0.0
C1948 C 0.31647 0.93288 0.10257 0.0
H1949 H 0.33112 0.97124 0.13161 0.0
C1950 C 0.30152 0.94251 0.09196 0.0
C1951 C 0.32712 0.94325 0.1172 0.0
C1952 C 0.34276 0.93336 0.12962 0.0
C1953 C 0.29707 0.96243 0.09549 0.0
C1954 C 0.30799 0.97286 0.10988 0.0
C1955 C 0.32283 0.96316 0.12054 0.0
C1956 C 0.30419 0.99379 0.11452 0.0
C1957 C 0.28055 0.97207 0.08412 0.0
C1958 C 0.30785 0.00859 0.10049 0.0
C1959 C 0.30671 0.02847 0.10586 0.0
C1960 C 0.30207 0.03375 0.12537 0.0
C1961 C 0.29765 0.01889 0.13914 0.0
C1962 C 0.29873 -0.00091 0.13375 0.0
H1963 H 0.27082 0.961 0.07693 0.0
H1964 H 0.27147 0.9815 0.09396 0.0
H1965 H 0.28691 0.98161 0.07243 0.0
H1966 H 0.3124 0.00477 0.08566 0.0
H1967 H 0.31026 0.03965 0.095 0.0
H1968 H 0.18338 0.97505 0.65419 0.0
H1969 H 0.17793 0.00874 0.64282 0.0
H1970 H 0.16126 0.98695 0.58536 0.0
H1971 H 0.16705 0.95297 0.59659 0.0
H1972 H 0.18624 0.01994 0.58405 0.0
H1973 H 0.12318 0.03247 0.63437 0.0
H1974 H 0.14471 0.02396 0.6472 0.0
H1975 H 0.1329 0.00819 0.62938 0.0
C1976 C 0.17861 0.9774 0.63911 0.0
C1977 C 0.17546 0.96141 0.62631 0.0
C1978 C 0.17541 0.99664 0.63268 0.0
C1979 C 0.16876 0.00024 0.61342 0.0
C1980 C 0.16622 0.98439 0.60035 0.0
H1981 H 0.12486 0.11835 0.58717 0.0
H1982 H 0.12758 0.08243 0.58936 0.0
C1983 C 0.16953 0.96505 0.60676 0.0
C1984 C 0.16448 0.02066 0.60719 0.0
H1985 H 0.13825 0.06137 0.6206 0.0
C1986 C 0.17557 0.02897 0.59183 0.0
C1987 C 0.15025 0.03223 0.6171 0.0
C1988 C 0.13693 0.0237 0.63279 0.0
C1989 C 0.17351 0.04895 0.58679 0.0
C1990 C 0.16034 0.06088 0.59773 0.0
C1991 C 0.14855 0.05227 0.6124 0.0
C1992 C 0.15904 0.08247 0.59485 0.0
C1993 C 0.18551 0.05706 0.56988 0.0
C1994 C 0.17581 0.09437 0.59733 0.0
C1995 C 0.17432 0.11487 0.59597 0.0
C1996 C 0.15596 0.12378 0.59243 0.0
C1997 C 0.13919 0.11185 0.58997 0.0
C1998 C 0.14073 0.09136 0.59116 0.0
H1999 H 0.18952 0.04526 0.55923 0.0
H2000 H 0.17737 0.06881 0.56187 0.0
H2001 H 0.1994 0.06344 0.57573 0.0
H2002 H 0.18998 0.08785 0.60076 0.0
H2003 H 0.18746 0.12373 0.59803 0.0
H2004 H 0.63365 0.38486 0.38859 0.0
H2005 H 0.63885 0.42057 0.38742 0.0
H2006 H 0.69862 0.41268 0.40782 0.0
H2007 H 0.69367 0.37691 0.40859 0.0
H2008 H 0.64907 0.44641 0.41736 0.0
H2009 H 0.70596 0.44572 0.35824 0.0
H2010 H 0.69099 0.42445 0.3639 0.0
H2011 H 0.71163 0.43071 0.37933 0.0
C2012 C 0.64792 0.39074 0.39273 0.0
C2013 C 0.66331 0.37814 0.39853 0.0
C2014 C 0.65085 0.41111 0.39212 0.0
C2015 C 0.66918 0.41921 0.3973 0.0
C2016 C 0.68448 0.40668 0.40339 0.0
H2017 H 0.70617 0.54291 0.3893 0.0
H2018 H 0.70445 0.50849 0.40052 0.0
C2019 C 0.68161 0.38628 0.40388 0.0
C2020 C 0.67218 0.44078 0.39627 0.0
H2021 H 0.6982 0.47658 0.37225 0.0
C2022 C 0.65989 0.45302 0.40759 0.0
C2023 C 0.68635 0.44932 0.38354 0.0
C2024 C 0.69939 0.43692 0.37042 0.0
C2025 C 0.66116 0.47362 0.40624 0.0
C2026 C 0.67499 0.4821 0.39318 0.0
C2027 C 0.68773 0.46993 0.38236 0.0
C2028 C 0.67516 0.50344 0.3889 0.0
C2029 C 0.64755 0.48618 0.41855 0.0
C2030 C 0.65919 0.51187 0.37884 0.0
C2031 C 0.6602 0.53134 0.3723 0.0
C2032 C 0.67718 0.54269 0.37575 0.0
C2033 C 0.69287 0.53448 0.38654 0.0
C2034 C 0.69193 0.51488 0.39291 0.0
H2035 H 0.64158 0.47787 0.43136 0.0
H2036 H 0.6553 0.49955 0.42404 0.0
H2037 H 0.63494 0.49106 0.40932 0.0
H2038 H 0.64626 0.50314 0.37534 0.0
H2039 H 0.64789 0.53732 0.36403 0.0
loop_
_geom_bond_atom_site_label_1
_geom_bond_atom_site_label_2
_geom_bond_distance
_geom_bond_site_symmetry_2
_ccdc_geom_bond_type
In0 O1 2.294 . S
In0 O2 2.326 . S
In0 O6 2.266 . S
In0 O7 2.326 . S
In0 O8 2.266 . S
In0 O9 2.326 . S
In0 O11 2.294 . S
In0 O12 2.326 . S
O1 In0 2.294 . S
O1 C10 1.240 . S
O2 In0 2.326 . S
O2 C10 1.252 . S
C3 O6 1.252 . S
C3 O7 1.260 . S
C4 O11 1.240 . S
C4 O12 1.252 . S
C5 O8 1.252 . S
C5 O9 1.260 . S
O6 In0 2.266 . S
O6 C3 1.252 . S
O7 In0 2.326 . S
O7 C3 1.260 . S
O8 In0 2.266 . S
O8 C5 1.252 . S
O9 In0 2.326 . S
O9 C5 1.260 . S
C10 O1 1.240 . S
C10 O2 1.252 . S
O11 In0 2.294 . S
O11 C4 1.240 . S
O12 In0 2.326 . S
O12 C4 1.252 . S
In13 O14 2.294 . S
In13 O15 2.326 . S
In13 O19 2.266 . S
In13 O20 2.326 . S
In13 O21 2.266 . S
In13 O22 2.326 . S
In13 O24 2.294 . S
In13 O25 2.326 . S
O14 In13 2.294 . S
O14 C23 1.240 . S
O15 In13 2.326 . S
O15 C23 1.252 . S
C16 O19 1.252 . S
C16 O20 1.260 . S
C17 O24 1.240 . S
C17 O25 1.252 . S
C18 O21 1.252 . S
C18 O22 1.260 . S
O19 In13 2.266 . S
O19 C16 1.252 . S
O20 In13 2.326 . S
O20 C16 1.260 . S
O21 In13 2.266 . S
O21 C18 1.252 . S
O22 In13 2.326 . S
O22 C18 1.260 . S
C23 O14 1.240 . S
C23 O15 1.252 . S
O24 In13 2.294 . S
O24 C17 1.240 . S
O25 In13 2.326 . S
O25 C17 1.252 . S
In26 O27 2.294 . S
In26 O28 2.326 . S
In26 O32 2.266 . S
In26 O33 2.326 . S
In26 O34 2.266 . S
In26 O35 2.326 . S
In26 O37 2.294 . S
In26 O38 2.326 . S
O27 In26 2.294 . S
O27 C36 1.240 . S
O28 In26 2.326 . S
O28 C36 1.252 . S
C29 O32 1.252 . S
C29 O33 1.260 . S
C30 O37 1.240 . S
C30 O38 1.252 . S
C31 O34 1.252 . S
C31 O35 1.260 . S
O32 In26 2.266 . S
O32 C29 1.252 . S
O33 In26 2.326 . S
O33 C29 1.260 . S
O34 In26 2.266 . S
O34 C31 1.252 . S
O35 In26 2.326 . S
O35 C31 1.260 . S
C36 O27 1.240 . S
C36 O28 1.252 . S
O37 In26 2.294 . S
O37 C30 1.240 . S
O38 In26 2.326 . S
O38 C30 1.252 . S
In39 O40 2.294 . S
In39 O41 2.326 . S
In39 O45 2.266 . S
In39 O46 2.326 . S
In39 O47 2.266 . S
In39 O48 2.326 . S
In39 O50 2.294 . S
In39 O51 2.326 . S
O40 In39 2.294 . S
O40 C49 1.240 . S
O41 In39 2.326 . S
O41 C49 1.252 . S
C42 O45 1.252 . S
C42 O46 1.260 . S
C43 O50 1.240 . S
C43 O51 1.252 . S
C44 O47 1.252 . S
C44 O48 1.260 . S
O45 In39 2.266 . S
O45 C42 1.252 . S
O46 In39 2.326 . S
O46 C42 1.260 . S
O47 In39 2.266 . S
O47 C44 1.252 . S
O48 In39 2.326 . S
O48 C44 1.260 . S
C49 O40 1.240 . S
C49 O41 1.252 . S
O50 In39 2.294 . S
O50 C43 1.240 . S
O51 In39 2.326 . S
O51 C43 1.252 . S
In52 O53 2.294 . S
In52 O54 2.326 . S
In52 O58 2.266 . S
In52 O59 2.326 . S
In52 O60 2.266 . S
In52 O61 2.326 . S
In52 O63 2.294 . S
In52 O64 2.326 . S
O53 In52 2.294 . S
O53 C62 1.240 . S
O54 In52 2.326 . S
O54 C62 1.252 . S
C55 O58 1.252 . S
C55 O59 1.260 . S
C56 O63 1.240 . S
C56 O64 1.252 . S
C57 O60 1.252 . S
C57 O61 1.260 . S
O58 In52 2.266 . S
O58 C55 1.252 . S
O59 In52 2.326 . S
O59 C55 1.260 . S
O60 In52 2.266 . S
O60 C57 1.252 . S
O61 In52 2.326 . S
O61 C57 1.260 . S
C62 O53 1.240 . S
C62 O54 1.252 . S
O63 In52 2.294 . S
O63 C56 1.240 . S
O64 In52 2.326 . S
O64 C56 1.252 . S
In65 O66 2.294 . S
In65 O67 2.326 . S
In65 O71 2.266 . S
In65 O72 2.326 . S
In65 O73 2.266 . S
In65 O74 2.326 . S
In65 O76 2.294 . S
In65 O77 2.326 . S
O66 In65 2.294 . S
O66 C75 1.240 . S
O67 In65 2.326 . S
O67 C75 1.252 . S
C68 O71 1.252 . S
C68 O72 1.260 . S
C69 O76 1.240 . S
C69 O77 1.252 . S
C70 O73 1.252 . S
C70 O74 1.260 . S
O71 In65 2.266 . S
O71 C68 1.252 . S
O72 In65 2.326 . S
O72 C68 1.260 . S
O73 In65 2.266 . S
O73 C70 1.252 . S
O74 In65 2.326 . S
O74 C70 1.260 . S
C75 O66 1.240 . S
C75 O67 1.252 . S
O76 In65 2.294 . S
O76 C69 1.240 . S
O77 In65 2.326 . S
O77 C69 1.252 . S
In78 O79 2.294 . S
In78 O80 2.326 . S
In78 O84 2.266 . S
In78 O85 2.326 . S
In78 O86 2.266 . S
In78 O87 2.326 . S
In78 O89 2.294 . S
In78 O90 2.326 . S
O79 In78 2.294 . S
O79 C88 1.240 . S
O80 In78 2.326 . S
O80 C88 1.252 . S
C81 O84 1.252 . S
C81 O85 1.260 . S
C82 O89 1.240 . S
C82 O90 1.252 . S
C83 O86 1.252 . S
C83 O87 1.260 . S
O84 In78 2.266 . S
O84 C81 1.252 . S
O85 In78 2.326 . S
O85 C81 1.260 . S
O86 In78 2.266 . S
O86 C83 1.252 . S
O87 In78 2.326 . S
O87 C83 1.260 . S
C88 O79 1.240 . S
C88 O80 1.252 . S
O89 In78 2.294 . S
O89 C82 1.240 . S
O90 In78 2.326 . S
O90 C82 1.252 . S
In91 O92 2.294 . S
In91 O93 2.326 . S
In91 O97 2.266 . S
In91 O98 2.326 . S
In91 O99 2.266 . S
In91 O100 2.326 . S
In91 O102 2.294 . S
In91 O103 2.326 . S
O92 In91 2.294 . S
O92 C101 1.240 . S
O93 In91 2.326 . S
O93 C101 1.252 . S
C94 O97 1.252 . S
C94 O98 1.260 . S
C95 O102 1.240 . S
C95 O103 1.252 . S
C96 O99 1.252 . S
C96 O100 1.260 . S
O97 In91 2.266 . S
O97 C94 1.252 . S
O98 In91 2.326 . S
O98 C94 1.260 . S
O99 In91 2.266 . S
O99 C96 1.252 . S
O100 In91 2.326 . S
O100 C96 1.260 . S
C101 O92 1.240 . S
C101 O93 1.252 . S
O102 In91 2.294 . S
O102 C95 1.240 . S
O103 In91 2.326 . S
O103 C95 1.252 . S
In104 O105 2.294 . S
In104 O106 2.326 . S
In104 O110 2.266 . S
In104 O111 2.326 . S
In104 O112 2.266 . S
In104 O113 2.326 . S
In104 O115 2.294 . S
In104 O116 2.326 . S
O105 In104 2.294 . S
O105 C114 1.240 . S
O106 In104 2.326 . S
O106 C114 1.252 . S
C107 O110 1.252 . S
C107 O111 1.260 . S
C108 O115 1.240 . S
C108 O116 1.252 . S
C109 O112 1.252 . S
C109 O113 1.260 . S
O110 In104 2.266 . S
O110 C107 1.252 . S
O111 In104 2.326 . S
O111 C107 1.260 . S
O112 In104 2.266 . S
O112 C109 1.252 . S
O113 In104 2.326 . S
O113 C109 1.260 . S
C114 O105 1.240 . S
C114 O106 1.252 . S
O115 In104 2.294 . S
O115 C108 1.240 . S
O116 In104 2.326 . S
O116 C108 1.252 . S
In117 O118 2.294 . S
In117 O119 2.326 . S
In117 O123 2.266 . S
In117 O124 2.326 . S
In117 O125 2.266 . S
In117 O126 2.326 . S
In117 O128 2.294 . S
In117 O129 2.326 . S
O118 In117 2.294 . S
O118 C127 1.240 . S
O119 In117 2.326 . S
O119 C127 1.252 . S
C120 O123 1.252 . S
C120 O124 1.260 . S
C121 O128 1.240 . S
C121 O129 1.252 . S
C122 O125 1.252 . S
C122 O126 1.260 . S
O123 In117 2.266 . S
O123 C120 1.252 . S
O124 In117 2.326 . S
O124 C120 1.260 . S
O125 In117 2.266 . S
O125 C122 1.252 . S
O126 In117 2.326 . S
O126 C122 1.260 . S
C127 O118 1.240 . S
C127 O119 1.252 . S
O128 In117 2.294 . S
O128 C121 1.240 . S
O129 In117 2.326 . S
O129 C121 1.252 . S
In130 O131 2.294 . S
In130 O132 2.326 . S
In130 O136 2.266 . S
In130 O137 2.326 . S
In130 O138 2.266 . S
In130 O139 2.326 . S
In130 O141 2.294 . S
In130 O142 2.326 . S
O131 In130 2.294 . S
O131 C140 1.240 . S
O132 In130 2.326 . S
O132 C140 1.252 . S
C133 O136 1.252 . S
C133 O137 1.260 . S
C134 O141 1.240 . S
C134 O142 1.252 . S
C135 O138 1.252 . S
C135 O139 1.260 . S
O136 In130 2.266 . S
O136 C133 1.252 . S
O137 In130 2.326 . S
O137 C133 1.260 . S
O138 In130 2.266 . S
O138 C135 1.252 . S
O139 In130 2.326 . S
O139 C135 1.260 . S
C140 O131 1.240 . S
C140 O132 1.252 . S
O141 In130 2.294 . S
O141 C134 1.240 . S
O142 In130 2.326 . S
O142 C134 1.252 . S
In143 O144 2.294 . S
In143 O145 2.326 . S
In143 O149 2.266 . S
In143 O150 2.326 . S
In143 O151 2.266 . S
In143 O152 2.326 . S
In143 O154 2.294 . S
In143 O155 2.326 . S
O144 In143 2.294 . S
O144 C153 1.240 . S
O145 In143 2.326 . S
O145 C153 1.252 . S
C146 O149 1.252 . S
C146 O150 1.260 . S
C147 O154 1.240 . S
C147 O155 1.252 . S
C148 O151 1.252 . S
C148 O152 1.260 . S
O149 In143 2.266 . S
O149 C146 1.252 . S
O150 In143 2.326 . S
O150 C146 1.260 . S
O151 In143 2.266 . S
O151 C148 1.252 . S
O152 In143 2.326 . S
O152 C148 1.260 . S
C153 O144 1.240 . S
C153 O145 1.252 . S
O154 In143 2.294 . S
O154 C147 1.240 . S
O155 In143 2.326 . S
O155 C147 1.252 . S
In156 O157 2.294 . S
In156 O158 2.326 . S
In156 O162 2.266 . S
In156 O163 2.326 . S
In156 O164 2.266 . S
In156 O165 2.326 . S
In156 O167 2.294 . S
In156 O168 2.326 . S
O157 In156 2.294 . S
O157 C166 1.240 . S
O158 In156 2.326 . S
O158 C166 1.252 . S
C159 O162 1.252 . S
C159 O163 1.260 . S
C160 O167 1.240 . S
C160 O168 1.252 . S
C161 O164 1.252 . S
C161 O165 1.260 . S
O162 In156 2.266 . S
O162 C159 1.252 . S
O163 In156 2.326 . S
O163 C159 1.260 . S
O164 In156 2.266 . S
O164 C161 1.252 . S
O165 In156 2.326 . S
O165 C161 1.260 . S
C166 O157 1.240 . S
C166 O158 1.252 . S
O167 In156 2.294 . S
O167 C160 1.240 . S
O168 In156 2.326 . S
O168 C160 1.252 . S
In169 O170 2.294 . S
In169 O171 2.326 . S
In169 O175 2.266 . S
In169 O176 2.326 . S
In169 O177 2.266 . S
In169 O178 2.326 . S
In169 O180 2.294 . S
In169 O181 2.326 . S
O170 In169 2.294 . S
O170 C179 1.240 . S
O171 In169 2.326 . S
O171 C179 1.252 . S
C172 O175 1.252 . S
C172 O176 1.260 . S
C173 O180 1.240 . S
C173 O181 1.252 . S
C174 O177 1.252 . S
C174 O178 1.260 . S
O175 In169 2.266 . S
O175 C172 1.252 . S
O176 In169 2.326 . S
O176 C172 1.260 . S
O177 In169 2.266 . S
O177 C174 1.252 . S
O178 In169 2.326 . S
O178 C174 1.260 . S
C179 O170 1.240 . S
C179 O171 1.252 . S
O180 In169 2.294 . S
O180 C173 1.240 . S
O181 In169 2.326 . S
O181 C173 1.252 . S
In182 O183 2.294 . S
In182 O184 2.326 . S
In182 O188 2.266 . S
In182 O189 2.326 . S
In182 O190 2.266 . S
In182 O191 2.326 . S
In182 O193 2.294 . S
In182 O194 2.326 . S
O183 In182 2.294 . S
O183 C192 1.240 . S
O184 In182 2.326 . S
O184 C192 1.252 . S
C185 O188 1.252 . S
C185 O189 1.260 . S
C186 O193 1.240 . S
C186 O194 1.252 . S
C187 O190 1.252 . S
C187 O191 1.260 . S
O188 In182 2.266 . S
O188 C185 1.252 . S
O189 In182 2.326 . S
O189 C185 1.260 . S
O190 In182 2.266 . S
O190 C187 1.252 . S
O191 In182 2.326 . S
O191 C187 1.260 . S
C192 O183 1.240 . S
C192 O184 1.252 . S
O193 In182 2.294 . S
O193 C186 1.240 . S
O194 In182 2.326 . S
O194 C186 1.252 . S
In195 O196 2.294 . S
In195 O197 2.326 . S
In195 O201 2.266 . S
In195 O202 2.326 . S
In195 O203 2.266 . S
In195 O204 2.326 . S
In195 O206 2.294 . S
In195 O207 2.326 . S
O196 In195 2.294 . S
O196 C205 1.240 . S
O197 In195 2.326 . S
O197 C205 1.252 . S
C198 O201 1.252 . S
C198 O202 1.260 . S
C199 O206 1.240 . S
C199 O207 1.252 . S
C200 O203 1.252 . S
C200 O204 1.260 . S
O201 In195 2.266 . S
O201 C198 1.252 . S
O202 In195 2.326 . S
O202 C198 1.260 . S
O203 In195 2.266 . S
O203 C200 1.252 . S
O204 In195 2.326 . S
O204 C200 1.260 . S
C205 O196 1.240 . S
C205 O197 1.252 . S
O206 In195 2.294 . S
O206 C199 1.240 . S
O207 In195 2.326 . S
O207 C199 1.252 . S
In208 O209 2.294 . S
In208 O210 2.326 . S
In208 O214 2.266 . S
In208 O215 2.326 . S
In208 O216 2.266 . S
In208 O217 2.326 . S
In208 O219 2.294 . S
In208 O220 2.326 . S
O209 In208 2.294 . S
O209 C218 1.240 . S
O210 In208 2.326 . S
O210 C218 1.252 . S
C211 O214 1.252 . S
C211 O215 1.260 . S
C212 O219 1.240 . S
C212 O220 1.252 . S
C213 O216 1.252 . S
C213 O217 1.260 . S
O214 In208 2.266 . S
O214 C211 1.252 . S
O215 In208 2.326 . S
O215 C211 1.260 . S
O216 In208 2.266 . S
O216 C213 1.252 . S
O217 In208 2.326 . S
O217 C213 1.260 . S
C218 O209 1.240 . S
C218 O210 1.252 . S
O219 In208 2.294 . S
O219 C212 1.240 . S
O220 In208 2.326 . S
O220 C212 1.252 . S
In221 O222 2.294 . S
In221 O223 2.326 . S
In221 O227 2.266 . S
In221 O228 2.326 . S
In221 O229 2.266 . S
In221 O230 2.326 . S
In221 O232 2.294 . S
In221 O233 2.326 . S
O222 In221 2.294 . S
O222 C231 1.240 . S
O223 In221 2.326 . S
O223 C231 1.252 . S
C224 O227 1.252 . S
C224 O228 1.260 . S
C225 O232 1.240 . S
C225 O233 1.252 . S
C226 O229 1.252 . S
C226 O230 1.260 . S
O227 In221 2.266 . S
O227 C224 1.252 . S
O228 In221 2.326 . S
O228 C224 1.260 . S
O229 In221 2.266 . S
O229 C226 1.252 . S
O230 In221 2.326 . S
O230 C226 1.260 . S
C231 O222 1.240 . S
C231 O223 1.252 . S
O232 In221 2.294 . S
O232 C225 1.240 . S
O233 In221 2.326 . S
O233 C225 1.252 . S
In234 O235 2.294 . S
In234 O236 2.326 . S
In234 O240 2.266 . S
In234 O241 2.326 . S
In234 O242 2.266 . S
In234 O243 2.326 . S
In234 O245 2.294 . S
In234 O246 2.326 . S
O235 In234 2.294 . S
O235 C244 1.240 . S
O236 In234 2.326 . S
O236 C244 1.252 . S
C237 O240 1.252 . S
C237 O241 1.260 . S
C238 O245 1.240 . S
C238 O246 1.252 . S
C239 O242 1.252 . S
C239 O243 1.260 . S
O240 In234 2.266 . S
O240 C237 1.252 . S
O241 In234 2.326 . S
O241 C237 1.260 . S
O242 In234 2.266 . S
O242 C239 1.252 . S
O243 In234 2.326 . S
O243 C239 1.260 . S
C244 O235 1.240 . S
C244 O236 1.252 . S
O245 In234 2.294 . S
O245 C238 1.240 . S
O246 In234 2.326 . S
O246 C238 1.252 . S
In247 O248 2.294 . S
In247 O249 2.326 . S
In247 O253 2.266 . S
In247 O254 2.326 . S
In247 O255 2.266 . S
In247 O256 2.326 . S
In247 O258 2.294 . S
In247 O259 2.326 . S
O248 In247 2.294 . S
O248 C257 1.240 . S
O249 In247 2.326 . S
O249 C257 1.252 . S
C250 O253 1.252 . S
C250 O254 1.260 . S
C251 O258 1.240 . S
C251 O259 1.252 . S
C252 O255 1.252 . S
C252 O256 1.260 . S
O253 In247 2.266 . S
O253 C250 1.252 . S
O254 In247 2.326 . S
O254 C250 1.260 . S
O255 In247 2.266 . S
O255 C252 1.252 . S
O256 In247 2.326 . S
O256 C252 1.260 . S
C257 O248 1.240 . S
C257 O249 1.252 . S
O258 In247 2.294 . S
O258 C251 1.240 . S
O259 In247 2.326 . S
O259 C251 1.252 . S
In260 O261 2.294 . S
In260 O262 2.326 . S
In260 O266 2.266 . S
In260 O267 2.326 . S
In260 O268 2.266 . S
In260 O269 2.326 . S
In260 O271 2.294 . S
In260 O272 2.326 . S
O261 In260 2.294 . S
O261 C270 1.240 . S
O262 In260 2.326 . S
O262 C270 1.252 . S
C263 O266 1.252 . S
C263 O267 1.260 . S
C264 O271 1.240 . S
C264 O272 1.252 . S
C265 O268 1.252 . S
C265 O269 1.260 . S
O266 In260 2.266 . S
O266 C263 1.252 . S
O267 In260 2.326 . S
O267 C263 1.260 . S
O268 In260 2.266 . S
O268 C265 1.252 . S
O269 In260 2.326 . S
O269 C265 1.260 . S
C270 O261 1.240 . S
C270 O262 1.252 . S
O271 In260 2.294 . S
O271 C264 1.240 . S
O272 In260 2.326 . S
O272 C264 1.252 . S
In273 O274 2.294 . S
In273 O275 2.326 . S
In273 O279 2.266 . S
In273 O280 2.326 . S
In273 O281 2.266 . S
In273 O282 2.326 . S
In273 O284 2.294 . S
In273 O285 2.326 . S
O274 In273 2.294 . S
O274 C283 1.240 . S
O275 In273 2.326 . S
O275 C283 1.252 . S
C276 O279 1.252 . S
C276 O280 1.260 . S
C277 O284 1.240 . S
C277 O285 1.252 . S
C278 O281 1.252 . S
C278 O282 1.260 . S
O279 In273 2.266 . S
O279 C276 1.252 . S
O280 In273 2.326 . S
O280 C276 1.260 . S
O281 In273 2.266 . S
O281 C278 1.252 . S
O282 In273 2.326 . S
O282 C278 1.260 . S
C283 O274 1.240 . S
C283 O275 1.252 . S
O284 In273 2.294 . S
O284 C277 1.240 . S
O285 In273 2.326 . S
O285 C277 1.252 . S
In286 O287 2.294 . S
In286 O288 2.326 . S
In286 O292 2.266 . S
In286 O293 2.326 . S
In286 O294 2.266 . S
In286 O295 2.326 . S
In286 O297 2.294 . S
In286 O298 2.326 . S
O287 In286 2.294 . S
O287 C296 1.240 . S
O288 In286 2.326 . S
O288 C296 1.252 . S
C289 O292 1.252 . S
C289 O293 1.260 . S
C290 O297 1.240 . S
C290 O298 1.252 . S
C291 O294 1.252 . S
C291 O295 1.260 . S
O292 In286 2.266 . S
O292 C289 1.252 . S
O293 In286 2.326 . S
O293 C289 1.260 . S
O294 In286 2.266 . S
O294 C291 1.252 . S
O295 In286 2.326 . S
O295 C291 1.260 . S
C296 O287 1.240 . S
C296 O288 1.252 . S
O297 In286 2.294 . S
O297 C290 1.240 . S
O298 In286 2.326 . S
O298 C290 1.252 . S
In299 O300 2.294 . S
In299 O301 2.326 . S
In299 O305 2.266 . S
In299 O306 2.326 . S
In299 O307 2.266 . S
In299 O308 2.326 . S
In299 O310 2.294 . S
In299 O311 2.326 . S
O300 In299 2.294 . S
O300 C309 1.240 . S
O301 In299 2.326 . S
O301 C309 1.252 . S
C302 O305 1.252 . S
C302 O306 1.260 . S
C303 O310 1.240 . S
C303 O311 1.252 . S
C304 O307 1.252 . S
C304 O308 1.260 . S
O305 In299 2.266 . S
O305 C302 1.252 . S
O306 In299 2.326 . S
O306 C302 1.260 . S
O307 In299 2.266 . S
O307 C304 1.252 . S
O308 In299 2.326 . S
O308 C304 1.260 . S
C309 O300 1.240 . S
C309 O301 1.252 . S
O310 In299 2.294 . S
O310 C303 1.240 . S
O311 In299 2.326 . S
O311 C303 1.252 . S
H312 C320 0.929 . S
H313 C322 0.930 . S
H314 C324 0.930 . S
H315 C327 0.929 . S
H316 C330 0.930 . S
H317 C332 0.960 . S
H318 C332 0.960 . S
H319 C332 0.960 . S
C320 H312 0.929 . S
C320 C321 1.377 . S
C320 C322 1.384 . S
C321 C320 1.377 . S
C321 C327 1.390 . S
C322 H313 0.930 . S
C322 C320 1.384 . S
C322 C323 1.372 . S
C323 C322 1.372 . S
C323 C324 1.400 . S
C323 C328 1.490 . S
C324 H314 0.930 . S
C324 C323 1.400 . S
C324 C327 1.386 . S
H325 C341 0.930 . S
H326 C342 0.931 . S
C327 H315 0.929 . S
C327 C321 1.390 . S
C327 C324 1.386 . S
C328 C323 1.490 . S
C328 C330 1.395 . S
C328 C331 1.403 . S
H329 C335 0.930 . S
C330 H316 0.930 . S
C330 C328 1.395 . S
C330 C333 1.403 . S
C331 C328 1.403 . S
C331 C332 1.524 . S
C331 C335 1.400 . S
C332 H317 0.960 . S
C332 H318 0.960 . S
C332 H319 0.960 . S
C332 C331 1.524 . S
C333 C330 1.403 . S
C333 C334 1.392 . S
C333 C337 1.495 . S
C334 C333 1.392 . S
C334 C335 1.385 . S
C334 C336 1.478 . S
C335 H329 0.930 . S
C335 C331 1.400 . S
C335 C334 1.385 . S
C336 C334 1.478 . S
C336 C338 1.381 . S
C336 C342 1.383 . S
C337 C333 1.495 . S
C337 H343 0.959 . S
C337 H344 0.961 . S
C337 H345 0.960 . S
C338 C336 1.381 . S
C338 C339 1.394 . S
C338 H346 0.930 . S
C339 C338 1.394 . S
C339 C340 1.383 . S
C339 H347 0.929 . S
C340 C339 1.383 . S
C340 C341 1.377 . S
C341 H325 0.930 . S
C341 C340 1.377 . S
C341 C342 1.379 . S
C342 H326 0.931 . S
C342 C336 1.383 . S
C342 C341 1.379 . S
H343 C337 0.959 . S
H344 C337 0.961 . S
H345 C337 0.960 . S
H346 C338 0.930 . S
H347 C339 0.929 . S
H348 C356 0.929 . S
H349 C358 0.930 . S
H350 C360 0.930 . S
H351 C363 0.929 . S
H352 C366 0.930 . S
H353 C368 0.960 . S
H354 C368 0.960 . S
H355 C368 0.960 . S
C356 H348 0.929 . S
C356 C357 1.377 . S
C356 C358 1.384 . S
C357 C356 1.377 . S
C357 C363 1.390 . S
C358 H349 0.930 . S
C358 C356 1.384 . S
C358 C359 1.372 . S
C359 C358 1.372 . S
C359 C360 1.400 . S
C359 C364 1.490 . S
C360 H350 0.930 . S
C360 C359 1.400 . S
C360 C363 1.386 . S
H361 C377 0.930 . S
H362 C378 0.931 . S
C363 H351 0.929 . S
C363 C357 1.390 . S
C363 C360 1.386 . S
C364 C359 1.490 . S
C364 C366 1.395 . S
C364 C367 1.403 . S
H365 C371 0.930 . S
C366 H352 0.930 . S
C366 C364 1.395 . S
C366 C369 1.403 . S
C367 C364 1.403 . S
C367 C368 1.524 . S
C367 C371 1.400 . S
C368 H353 0.960 . S
C368 H354 0.960 . S
C368 H355 0.960 . S
C368 C367 1.524 . S
C369 C366 1.403 . S
C369 C370 1.392 . S
C369 C373 1.495 . S
C370 C369 1.392 . S
C370 C371 1.385 . S
C370 C372 1.478 . S
C371 H365 0.930 . S
C371 C367 1.400 . S
C371 C370 1.385 . S
C372 C370 1.478 . S
C372 C374 1.381 . S
C372 C378 1.383 . S
C373 C369 1.495 . S
C373 H379 0.959 . S
C373 H380 0.961 . S
C373 H381 0.960 . S
C374 C372 1.381 . S
C374 C375 1.394 . S
C374 H382 0.930 . S
C375 C374 1.394 . S
C375 C376 1.383 . S
C375 H383 0.929 . S
C376 C375 1.383 . S
C376 C377 1.377 . S
C377 H361 0.930 . S
C377 C376 1.377 . S
C377 C378 1.379 . S
C378 H362 0.931 . S
C378 C372 1.383 . S
C378 C377 1.379 . S
H379 C373 0.959 . S
H380 C373 0.961 . S
H381 C373 0.960 . S
H382 C374 0.930 . S
H383 C375 0.929 . S
H384 C392 0.929 . S
H385 C394 0.930 . S
H386 C396 0.930 . S
H387 C399 0.929 . S
H388 C402 0.930 . S
H389 C404 0.960 . S
H390 C404 0.960 . S
H391 C404 0.960 . S
C392 H384 0.929 . S
C392 C393 1.377 . S
C392 C394 1.384 . S
C393 C392 1.377 . S
C393 C399 1.390 . S
C394 H385 0.930 . S
C394 C392 1.384 . S
C394 C395 1.372 . S
C395 C394 1.372 . S
C395 C396 1.400 . S
C395 C400 1.490 . S
C396 H386 0.930 . S
C396 C395 1.400 . S
C396 C399 1.386 . S
H397 C413 0.930 . S
H398 C414 0.931 . S
C399 H387 0.929 . S
C399 C393 1.390 . S
C399 C396 1.386 . S
C400 C395 1.490 . S
C400 C402 1.395 . S
C400 C403 1.403 . S
H401 C407 0.930 . S
C402 H388 0.930 . S
C402 C400 1.395 . S
C402 C405 1.403 . S
C403 C400 1.403 . S
C403 C404 1.524 . S
C403 C407 1.400 . S
C404 H389 0.960 . S
C404 H390 0.960 . S
C404 H391 0.960 . S
C404 C403 1.524 . S
C405 C402 1.403 . S
C405 C406 1.392 . S
C405 C409 1.495 . S
C406 C405 1.392 . S
C406 C407 1.385 . S
C406 C408 1.478 . S
C407 H401 0.930 . S
C407 C403 1.400 . S
C407 C406 1.385 . S
C408 C406 1.478 . S
C408 C410 1.381 . S
C408 C414 1.383 . S
C409 C405 1.495 . S
C409 H415 0.959 . S
C409 H416 0.961 . S
C409 H417 0.960 . S
C410 C408 1.381 . S
C410 C411 1.394 . S
C410 H418 0.930 . S
C411 C410 1.394 . S
C411 C412 1.383 . S
C411 H419 0.929 . S
C412 C411 1.383 . S
C412 C413 1.377 . S
C413 H397 0.930 . S
C413 C412 1.377 . S
C413 C414 1.379 . S
C414 H398 0.931 . S
C414 C408 1.383 . S
C414 C413 1.379 . S
H415 C409 0.959 . S
H416 C409 0.961 . S
H417 C409 0.960 . S
H418 C410 0.930 . S
H419 C411 0.929 . S
H420 C428 0.929 . S
H421 C430 0.930 . S
H422 C432 0.930 . S
H423 C435 0.929 . S
H424 C438 0.930 . S
H425 C440 0.960 . S
H426 C440 0.960 . S
H427 C440 0.960 . S
C428 H420 0.929 . S
C428 C429 1.377 . S
C428 C430 1.384 . S
C429 C428 1.377 . S
C429 C435 1.390 . S
C430 H421 0.930 . S
C430 C428 1.384 . S
C430 C431 1.372 . S
C431 C430 1.372 . S
C431 C432 1.400 . S
C431 C436 1.490 . S
C432 H422 0.930 . S
C432 C431 1.400 . S
C432 C435 1.386 . S
H433 C449 0.930 . S
H434 C450 0.931 . S
C435 H423 0.929 . S
C435 C429 1.390 . S
C435 C432 1.386 . S
C436 C431 1.490 . S
C436 C438 1.395 . S
C436 C439 1.403 . S
H437 C443 0.930 . S
C438 H424 0.930 . S
C438 C436 1.395 . S
C438 C441 1.403 . S
C439 C436 1.403 . S
C439 C440 1.524 . S
C439 C443 1.400 . S
C440 H425 0.960 . S
C440 H426 0.960 . S
C440 H427 0.960 . S
C440 C439 1.524 . S
C441 C438 1.403 . S
C441 C442 1.392 . S
C441 C445 1.495 . S
C442 C441 1.392 . S
C442 C443 1.385 . S
C442 C444 1.478 . S
C443 H437 0.930 . S
C443 C439 1.400 . S
C443 C442 1.385 . S
C444 C442 1.478 . S
C444 C446 1.381 . S
C444 C450 1.383 . S
C445 C441 1.495 . S
C445 H451 0.959 . S
C445 H452 0.961 . S
C445 H453 0.960 . S
C446 C444 1.381 . S
C446 C447 1.394 . S
C446 H454 0.930 . S
C447 C446 1.394 . S
C447 C448 1.383 . S
C447 H455 0.929 . S
C448 C447 1.383 . S
C448 C449 1.377 . S
C449 H433 0.930 . S
C449 C448 1.377 . S
C449 C450 1.379 . S
C450 H434 0.931 . S
C450 C444 1.383 . S
C450 C449 1.379 . S
H451 C445 0.959 . S
H452 C445 0.961 . S
H453 C445 0.960 . S
H454 C446 0.930 . S
H455 C447 0.929 . S
H456 C464 0.929 . S
H457 C466 0.930 . S
H458 C468 0.930 . S
H459 C471 0.929 . S
H460 C474 0.930 . S
H461 C476 0.960 . S
H462 C476 0.960 . S
H463 C476 0.960 . S
C464 H456 0.929 . S
C464 C465 1.377 . S
C464 C466 1.384 . S
C465 C464 1.377 . S
C465 C471 1.390 . S
C466 H457 0.930 . S
C466 C464 1.384 . S
C466 C467 1.372 . S
C467 C466 1.372 . S
C467 C468 1.400 . S
C467 C472 1.490 . S
C468 H458 0.930 . S
C468 C467 1.400 . S
C468 C471 1.386 . S
H469 C485 0.930 . S
H470 C486 0.931 . S
C471 H459 0.929 . S
C471 C465 1.390 . S
C471 C468 1.386 . S
C472 C467 1.490 . S
C472 C474 1.395 . S
C472 C475 1.403 . S
H473 C479 0.930 . S
C474 H460 0.930 . S
C474 C472 1.395 . S
C474 C477 1.403 . S
C475 C472 1.403 . S
C475 C476 1.524 . S
C475 C479 1.400 . S
C476 H461 0.960 . S
C476 H462 0.960 . S
C476 H463 0.960 . S
C476 C475 1.524 . S
C477 C474 1.403 . S
C477 C478 1.392 . S
C477 C481 1.495 . S
C478 C477 1.392 . S
C478 C479 1.385 . S
C478 C480 1.478 . S
C479 H473 0.930 . S
C479 C475 1.400 . S
C479 C478 1.385 . S
C480 C478 1.478 . S
C480 C482 1.381 . S
C480 C486 1.383 . S
C481 C477 1.495 . S
C481 H487 0.959 . S
C481 H488 0.961 . S
C481 H489 0.960 . S
C482 C480 1.381 . S
C482 C483 1.394 . S
C482 H490 0.930 . S
C483 C482 1.394 . S
C483 C484 1.383 . S
C483 H491 0.929 . S
C484 C483 1.383 . S
C484 C485 1.377 . S
C485 H469 0.930 . S
C485 C484 1.377 . S
C485 C486 1.379 . S
C486 H470 0.931 . S
C486 C480 1.383 . S
C486 C485 1.379 . S
H487 C481 0.959 . S
H488 C481 0.961 . S
H489 C481 0.960 . S
H490 C482 0.930 . S
H491 C483 0.929 . S
H492 C500 0.929 . S
H493 C502 0.930 . S
H494 C504 0.930 . S
H495 C507 0.929 . S
H496 C510 0.930 . S
H497 C512 0.960 . S
H498 C512 0.960 . S
H499 C512 0.960 . S
C500 H492 0.929 . S
C500 C501 1.377 . S
C500 C502 1.384 . S
C501 C500 1.377 . S
C501 C507 1.390 . S
C502 H493 0.930 . S
C502 C500 1.384 . S
C502 C503 1.372 . S
C503 C502 1.372 . S
C503 C504 1.400 . S
C503 C508 1.490 . S
C504 H494 0.930 . S
C504 C503 1.400 . S
C504 C507 1.386 . S
H505 C521 0.930 . S
H506 C522 0.931 . S
C507 H495 0.929 . S
C507 C501 1.390 . S
C507 C504 1.386 . S
C508 C503 1.490 . S
C508 C510 1.395 . S
C508 C511 1.403 . S
H509 C515 0.930 . S
C510 H496 0.930 . S
C510 C508 1.395 . S
C510 C513 1.403 . S
C511 C508 1.403 . S
C511 C512 1.524 . S
C511 C515 1.400 . S
C512 H497 0.960 . S
C512 H498 0.960 . S
C512 H499 0.960 . S
C512 C511 1.524 . S
C513 C510 1.403 . S
C513 C514 1.392 . S
C513 C517 1.495 . S
C514 C513 1.392 . S
C514 C515 1.385 . S
C514 C516 1.478 . S
C515 H509 0.930 . S
C515 C511 1.400 . S
C515 C514 1.385 . S
C516 C514 1.478 . S
C516 C518 1.381 . S
C516 C522 1.383 . S
C517 C513 1.495 . S
C517 H523 0.959 . S
C517 H524 0.961 . S
C517 H525 0.960 . S
C518 C516 1.381 . S
C518 C519 1.394 . S
C518 H526 0.930 . S
C519 C518 1.394 . S
C519 C520 1.383 . S
C519 H527 0.929 . S
C520 C519 1.383 . S
C520 C521 1.377 . S
C521 H505 0.930 . S
C521 C520 1.377 . S
C521 C522 1.379 . S
C522 H506 0.931 . S
C522 C516 1.383 . S
C522 C521 1.379 . S
H523 C517 0.959 . S
H524 C517 0.961 . S
H525 C517 0.960 . S
H526 C518 0.930 . S
H527 C519 0.929 . S
H528 C536 0.929 . S
H529 C538 0.930 . S
H530 C540 0.930 . S
H531 C543 0.929 . S
H532 C546 0.930 . S
H533 C548 0.960 . S
H534 C548 0.960 . S
H535 C548 0.960 . S
C536 H528 0.929 . S
C536 C537 1.377 . S
C536 C538 1.384 . S
C537 C536 1.377 . S
C537 C543 1.390 . S
C538 H529 0.930 . S
C538 C536 1.384 . S
C538 C539 1.372 . S
C539 C538 1.372 . S
C539 C540 1.400 . S
C539 C544 1.490 . S
C540 H530 0.930 . S
C540 C539 1.400 . S
C540 C543 1.386 . S
H541 C557 0.930 . S
H542 C558 0.931 . S
C543 H531 0.929 . S
C543 C537 1.390 . S
C543 C540 1.386 . S
C544 C539 1.490 . S
C544 C546 1.395 . S
C544 C547 1.403 . S
H545 C551 0.930 . S
C546 H532 0.930 . S
C546 C544 1.395 . S
C546 C549 1.403 . S
C547 C544 1.403 . S
C547 C548 1.524 . S
C547 C551 1.400 . S
C548 H533 0.960 . S
C548 H534 0.960 . S
C548 H535 0.960 . S
C548 C547 1.524 . S
C549 C546 1.403 . S
C549 C550 1.392 . S
C549 C553 1.495 . S
C550 C549 1.392 . S
C550 C551 1.385 . S
C550 C552 1.478 . S
C551 H545 0.930 . S
C551 C547 1.400 . S
C551 C550 1.385 . S
C552 C550 1.478 . S
C552 C554 1.381 . S
C552 C558 1.383 . S
C553 C549 1.495 . S
C553 H559 0.959 . S
C553 H560 0.961 . S
C553 H561 0.960 . S
C554 C552 1.381 . S
C554 C555 1.394 . S
C554 H562 0.930 . S
C555 C554 1.394 . S
C555 C556 1.383 . S
C555 H563 0.929 . S
C556 C555 1.383 . S
C556 C557 1.377 . S
C557 H541 0.930 . S
C557 C556 1.377 . S
C557 C558 1.379 . S
C558 H542 0.931 . S
C558 C552 1.383 . S
C558 C557 1.379 . S
H559 C553 0.959 . S
H560 C553 0.961 . S
H561 C553 0.960 . S
H562 C554 0.930 . S
H563 C555 0.929 . S
H564 C572 0.929 . S
H565 C574 0.930 . S
H566 C576 0.930 . S
H567 C579 0.929 . S
H568 C582 0.930 . S
H569 C584 0.960 . S
H570 C584 0.960 . S
H571 C584 0.960 . S
C572 H564 0.929 . S
C572 C573 1.377 . S
C572 C574 1.384 . S
C573 C572 1.377 . S
C573 C579 1.390 . S
C574 H565 0.930 . S
C574 C572 1.384 . S
C574 C575 1.372 . S
C575 C574 1.372 . S
C575 C576 1.400 . S
C575 C580 1.490 . S
C576 H566 0.930 . S
C576 C575 1.400 . S
C576 C579 1.386 . S
H577 C593 0.930 . S
H578 C594 0.931 . S
C579 H567 0.929 . S
C579 C573 1.390 . S
C579 C576 1.386 . S
C580 C575 1.490 . S
C580 C582 1.395 . S
C580 C583 1.403 . S
H581 C587 0.930 . S
C582 H568 0.930 . S
C582 C580 1.395 . S
C582 C585 1.403 . S
C583 C580 1.403 . S
C583 C584 1.524 . S
C583 C587 1.400 . S
C584 H569 0.960 . S
C584 H570 0.960 . S
C584 H571 0.960 . S
C584 C583 1.524 . S
C585 C582 1.403 . S
C585 C586 1.392 . S
C585 C589 1.495 . S
C586 C585 1.392 . S
C586 C587 1.385 . S
C586 C588 1.478 . S
C587 H581 0.930 . S
C587 C583 1.400 . S
C587 C586 1.385 . S
C588 C586 1.478 . S
C588 C590 1.381 . S
C588 C594 1.383 . S
C589 C585 1.495 . S
C589 H595 0.959 . S
C589 H596 0.961 . S
C589 H597 0.960 . S
C590 C588 1.381 . S
C590 C591 1.394 . S
C590 H598 0.930 . S
C591 C590 1.394 . S
C591 C592 1.383 . S
C591 H599 0.929 . S
C592 C591 1.383 . S
C592 C593 1.377 . S
C593 H577 0.930 . S
C593 C592 1.377 . S
C593 C594 1.379 . S
C594 H578 0.931 . S
C594 C588 1.383 . S
C594 C593 1.379 . S
H595 C589 0.959 . S
H596 C589 0.961 . S
H597 C589 0.960 . S
H598 C590 0.930 . S
H599 C591 0.929 . S
H600 C608 0.929 . S
H601 C610 0.930 . S
H602 C612 0.930 . S
H603 C615 0.929 . S
H604 C618 0.930 . S
H605 C620 0.960 . S
H606 C620 0.960 . S
H607 C620 0.960 . S
C608 H600 0.929 . S
C608 C609 1.377 . S
C608 C610 1.384 . S
C609 C608 1.377 . S
C609 C615 1.390 . S
C610 H601 0.930 . S
C610 C608 1.384 . S
C610 C611 1.372 . S
C611 C610 1.372 . S
C611 C612 1.400 . S
C611 C616 1.490 . S
C612 H602 0.930 . S
C612 C611 1.400 . S
C612 C615 1.386 . S
H613 C629 0.930 . S
H614 C630 0.931 . S
C615 H603 0.929 . S
C615 C609 1.390 . S
C615 C612 1.386 . S
C616 C611 1.490 . S
C616 C618 1.395 . S
C616 C619 1.403 . S
H617 C623 0.930 . S
C618 H604 0.930 . S
C618 C616 1.395 . S
C618 C621 1.403 . S
C619 C616 1.403 . S
C619 C620 1.524 . S
C619 C623 1.400 . S
C620 H605 0.960 . S
C620 H606 0.960 . S
C620 H607 0.960 . S
C620 C619 1.524 . S
C621 C618 1.403 . S
C621 C622 1.392 . S
C621 C625 1.495 . S
C622 C621 1.392 . S
C622 C623 1.385 . S
C622 C624 1.478 . S
C623 H617 0.930 . S
C623 C619 1.400 . S
C623 C622 1.385 . S
C624 C622 1.478 . S
C624 C626 1.381 . S
C624 C630 1.383 . S
C625 C621 1.495 . S
C625 H631 0.959 . S
C625 H632 0.961 . S
C625 H633 0.960 . S
C626 C624 1.381 . S
C626 C627 1.394 . S
C626 H634 0.930 . S
C627 C626 1.394 . S
C627 C628 1.383 . S
C627 H635 0.929 . S
C628 C627 1.383 . S
C628 C629 1.377 . S
C629 H613 0.930 . S
C629 C628 1.377 . S
C629 C630 1.379 . S
C630 H614 0.931 . S
C630 C624 1.383 . S
C630 C629 1.379 . S
H631 C625 0.959 . S
H632 C625 0.961 . S
H633 C625 0.960 . S
H634 C626 0.930 . S
H635 C627 0.929 . S
H636 C644 0.929 . S
H637 C646 0.930 . S
H638 C648 0.930 . S
H639 C651 0.929 . S
H640 C654 0.930 . S
H641 C656 0.960 . S
H642 C656 0.960 . S
H643 C656 0.960 . S
C644 H636 0.929 . S
C644 C645 1.377 . S
C644 C646 1.384 . S
C645 C644 1.377 . S
C645 C651 1.390 . S
C646 H637 0.930 . S
C646 C644 1.384 . S
C646 C647 1.372 . S
C647 C646 1.372 . S
C647 C648 1.400 . S
C647 C652 1.490 . S
C648 H638 0.930 . S
C648 C647 1.400 . S
C648 C651 1.386 . S
H649 C665 0.930 . S
H650 C666 0.931 . S
C651 H639 0.929 . S
C651 C645 1.390 . S
C651 C648 1.386 . S
C652 C647 1.490 . S
C652 C654 1.395 . S
C652 C655 1.403 . S
H653 C659 0.930 . S
C654 H640 0.930 . S
C654 C652 1.395 . S
C654 C657 1.403 . S
C655 C652 1.403 . S
C655 C656 1.524 . S
C655 C659 1.400 . S
C656 H641 0.960 . S
C656 H642 0.960 . S
C656 H643 0.960 . S
C656 C655 1.524 . S
C657 C654 1.403 . S
C657 C658 1.392 . S
C657 C661 1.495 . S
C658 C657 1.392 . S
C658 C659 1.385 . S
C658 C660 1.478 . S
C659 H653 0.930 . S
C659 C655 1.400 . S
C659 C658 1.385 . S
C660 C658 1.478 . S
C660 C662 1.381 . S
C660 C666 1.383 . S
C661 C657 1.495 . S
C661 H667 0.959 . S
C661 H668 0.961 . S
C661 H669 0.960 . S
C662 C660 1.381 . S
C662 C663 1.394 . S
C662 H670 0.930 . S
C663 C662 1.394 . S
C663 C664 1.383 . S
C663 H671 0.929 . S
C664 C663 1.383 . S
C664 C665 1.377 . S
C665 H649 0.930 . S
C665 C664 1.377 . S
C665 C666 1.379 . S
C666 H650 0.931 . S
C666 C660 1.383 . S
C666 C665 1.379 . S
H667 C661 0.959 . S
H668 C661 0.961 . S
H669 C661 0.960 . S
H670 C662 0.930 . S
H671 C663 0.929 . S
H672 C680 0.929 . S
H673 C682 0.930 . S
H674 C684 0.930 . S
H675 C687 0.929 . S
H676 C690 0.930 . S
H677 C692 0.960 . S
H678 C692 0.960 . S
H679 C692 0.960 . S
C680 H672 0.929 . S
C680 C681 1.377 . S
C680 C682 1.384 . S
C681 C680 1.377 . S
C681 C687 1.390 . S
C682 H673 0.930 . S
C682 C680 1.384 . S
C682 C683 1.372 . S
C683 C682 1.372 . S
C683 C684 1.400 . S
C683 C688 1.490 . S
C684 H674 0.930 . S
C684 C683 1.400 . S
C684 C687 1.386 . S
H685 C701 0.930 . S
H686 C702 0.931 . S
C687 H675 0.929 . S
C687 C681 1.390 . S
C687 C684 1.386 . S
C688 C683 1.490 . S
C688 C690 1.395 . S
C688 C691 1.403 . S
H689 C695 0.930 . S
C690 H676 0.930 . S
C690 C688 1.395 . S
C690 C693 1.403 . S
C691 C688 1.403 . S
C691 C692 1.524 . S
C691 C695 1.400 . S
C692 H677 0.960 . S
C692 H678 0.960 . S
C692 H679 0.960 . S
C692 C691 1.524 . S
C693 C690 1.403 . S
C693 C694 1.392 . S
C693 C697 1.495 . S
C694 C693 1.392 . S
C694 C695 1.385 . S
C694 C696 1.478 . S
C695 H689 0.930 . S
C695 C691 1.400 . S
C695 C694 1.385 . S
C696 C694 1.478 . S
C696 C698 1.381 . S
C696 C702 1.383 . S
C697 C693 1.495 . S
C697 H703 0.959 . S
C697 H704 0.961 . S
C697 H705 0.960 . S
C698 C696 1.381 . S
C698 C699 1.394 . S
C698 H706 0.930 . S
C699 C698 1.394 . S
C699 C700 1.383 . S
C699 H707 0.929 . S
C700 C699 1.383 . S
C700 C701 1.377 . S
C701 H685 0.930 . S
C701 C700 1.377 . S
C701 C702 1.379 . S
C702 H686 0.931 . S
C702 C696 1.383 . S
C702 C701 1.379 . S
H703 C697 0.959 . S
H704 C697 0.961 . S
H705 C697 0.960 . S
H706 C698 0.930 . S
H707 C699 0.929 . S
H708 C716 0.929 . S
H709 C718 0.930 . S
H710 C720 0.930 . S
H711 C723 0.929 . S
H712 C726 0.930 . S
H713 C728 0.960 . S
H714 C728 0.960 . S
H715 C728 0.960 . S
C716 H708 0.929 . S
C716 C717 1.377 . S
C716 C718 1.384 . S
C717 C716 1.377 . S
C717 C723 1.390 . S
C718 H709 0.930 . S
C718 C716 1.384 . S
C718 C719 1.372 . S
C719 C718 1.372 . S
C719 C720 1.400 . S
C719 C724 1.490 . S
C720 H710 0.930 . S
C720 C719 1.400 . S
C720 C723 1.386 . S
H721 C737 0.930 . S
H722 C738 0.931 . S
C723 H711 0.929 . S
C723 C717 1.390 . S
C723 C720 1.386 . S
C724 C719 1.490 . S
C724 C726 1.395 . S
C724 C727 1.403 . S
H725 C731 0.930 . S
C726 H712 0.930 . S
C726 C724 1.395 . S
C726 C729 1.403 . S
C727 C724 1.403 . S
C727 C728 1.524 . S
C727 C731 1.400 . S
C728 H713 0.960 . S
C728 H714 0.960 . S
C728 H715 0.960 . S
C728 C727 1.524 . S
C729 C726 1.403 . S
C729 C730 1.392 . S
C729 C733 1.495 . S
C730 C729 1.392 . S
C730 C731 1.385 . S
C730 C732 1.478 . S
C731 H725 0.930 . S
C731 C727 1.400 . S
C731 C730 1.385 . S
C732 C730 1.478 . S
C732 C734 1.381 . S
C732 C738 1.383 . S
C733 C729 1.495 . S
C733 H739 0.959 . S
C733 H740 0.961 . S
C733 H741 0.960 . S
C734 C732 1.381 . S
C734 C735 1.394 . S
C734 H742 0.930 . S
C735 C734 1.394 . S
C735 C736 1.383 . S
C735 H743 0.929 . S
C736 C735 1.383 . S
C736 C737 1.377 . S
C737 H721 0.930 . S
C737 C736 1.377 . S
C737 C738 1.379 . S
C738 H722 0.931 . S
C738 C732 1.383 . S
C738 C737 1.379 . S
H739 C733 0.959 . S
H740 C733 0.961 . S
H741 C733 0.960 . S
H742 C734 0.930 . S
H743 C735 0.929 . S
H744 C752 0.929 . S
H745 C754 0.930 . S
H746 C756 0.930 . S
H747 C759 0.929 . S
H748 C762 0.930 . S
H749 C764 0.960 . S
H750 C764 0.960 . S
H751 C764 0.960 . S
C752 H744 0.929 . S
C752 C753 1.377 . S
C752 C754 1.384 . S
C753 C752 1.377 . S
C753 C759 1.390 . S
C754 H745 0.930 . S
C754 C752 1.384 . S
C754 C755 1.372 . S
C755 C754 1.372 . S
C755 C756 1.400 . S
C755 C760 1.490 . S
C756 H746 0.930 . S
C756 C755 1.400 . S
C756 C759 1.386 . S
H757 C773 0.930 . S
H758 C774 0.931 . S
C759 H747 0.929 . S
C759 C753 1.390 . S
C759 C756 1.386 . S
C760 C755 1.490 . S
C760 C762 1.395 . S
C760 C763 1.403 . S
H761 C767 0.930 . S
C762 H748 0.930 . S
C762 C760 1.395 . S
C762 C765 1.403 . S
C763 C760 1.403 . S
C763 C764 1.524 . S
C763 C767 1.400 . S
C764 H749 0.960 . S
C764 H750 0.960 . S
C764 H751 0.960 . S
C764 C763 1.524 . S
C765 C762 1.403 . S
C765 C766 1.392 . S
C765 C769 1.495 . S
C766 C765 1.392 . S
C766 C767 1.385 . S
C766 C768 1.478 . S
C767 H761 0.930 . S
C767 C763 1.400 . S
C767 C766 1.385 . S
C768 C766 1.478 . S
C768 C770 1.381 . S
C768 C774 1.383 . S
C769 C765 1.495 . S
C769 H775 0.959 . S
C769 H776 0.961 . S
C769 H777 0.960 . S
C770 C768 1.381 . S
C770 C771 1.394 . S
C770 H778 0.930 . S
C771 C770 1.394 . S
C771 C772 1.383 . S
C771 H779 0.929 . S
C772 C771 1.383 . S
C772 C773 1.377 . S
C773 H757 0.930 . S
C773 C772 1.377 . S
C773 C774 1.379 . S
C774 H758 0.931 . S
C774 C768 1.383 . S
C774 C773 1.379 . S
H775 C769 0.959 . S
H776 C769 0.961 . S
H777 C769 0.960 . S
H778 C770 0.930 . S
H779 C771 0.929 . S
H780 C788 0.929 . S
H781 C790 0.930 . S
H782 C792 0.930 . S
H783 C795 0.929 . S
H784 C798 0.930 . S
H785 C800 0.960 . S
H786 C800 0.960 . S
H787 C800 0.960 . S
C788 H780 0.929 . S
C788 C789 1.377 . S
C788 C790 1.384 . S
C789 C788 1.377 . S
C789 C795 1.390 . S
C790 H781 0.930 . S
C790 C788 1.384 . S
C790 C791 1.372 . S
C791 C790 1.372 . S
C791 C792 1.400 . S
C791 C796 1.490 . S
C792 H782 0.930 . S
C792 C791 1.400 . S
C792 C795 1.386 . S
H793 C809 0.930 . S
H794 C810 0.931 . S
C795 H783 0.929 . S
C795 C789 1.390 . S
C795 C792 1.386 . S
C796 C791 1.490 . S
C796 C798 1.395 . S
C796 C799 1.403 . S
H797 C803 0.930 . S
C798 H784 0.930 . S
C798 C796 1.395 . S
C798 C801 1.403 . S
C799 C796 1.403 . S
C799 C800 1.524 . S
C799 C803 1.400 . S
C800 H785 0.960 . S
C800 H786 0.960 . S
C800 H787 0.960 . S
C800 C799 1.524 . S
C801 C798 1.403 . S
C801 C802 1.392 . S
C801 C805 1.495 . S
C802 C801 1.392 . S
C802 C803 1.385 . S
C802 C804 1.478 . S
C803 H797 0.930 . S
C803 C799 1.400 . S
C803 C802 1.385 . S
C804 C802 1.478 . S
C804 C806 1.381 . S
C804 C810 1.383 . S
C805 C801 1.495 . S
C805 H811 0.959 . S
C805 H812 0.961 . S
C805 H813 0.960 . S
C806 C804 1.381 . S
C806 C807 1.394 . S
C806 H814 0.930 . S
C807 C806 1.394 . S
C807 C808 1.383 . S
C807 H815 0.929 . S
C808 C807 1.383 . S
C808 C809 1.377 . S
C809 H793 0.930 . S
C809 C808 1.377 . S
C809 C810 1.379 . S
C810 H794 0.931 . S
C810 C804 1.383 . S
C810 C809 1.379 . S
H811 C805 0.959 . S
H812 C805 0.961 . S
H813 C805 0.960 . S
H814 C806 0.930 . S
H815 C807 0.929 . S
H816 C824 0.929 . S
H817 C826 0.930 . S
H818 C828 0.930 . S
H819 C831 0.929 . S
H820 C834 0.930 . S
H821 C836 0.960 . S
H822 C836 0.960 . S
H823 C836 0.960 . S
C824 H816 0.929 . S
C824 C825 1.377 . S
C824 C826 1.384 . S
C825 C824 1.377 . S
C825 C831 1.390 . S
C826 H817 0.930 . S
C826 C824 1.384 . S
C826 C827 1.372 . S
C827 C826 1.372 . S
C827 C828 1.400 . S
C827 C832 1.490 . S
C828 H818 0.930 . S
C828 C827 1.400 . S
C828 C831 1.386 . S
H829 C845 0.930 . S
H830 C846 0.931 . S
C831 H819 0.929 . S
C831 C825 1.390 . S
C831 C828 1.386 . S
C832 C827 1.490 . S
C832 C834 1.395 . S
C832 C835 1.403 . S
H833 C839 0.930 . S
C834 H820 0.930 . S
C834 C832 1.395 . S
C834 C837 1.403 . S
C835 C832 1.403 . S
C835 C836 1.524 . S
C835 C839 1.400 . S
C836 H821 0.960 . S
C836 H822 0.960 . S
C836 H823 0.960 . S
C836 C835 1.524 . S
C837 C834 1.403 . S
C837 C838 1.392 . S
C837 C841 1.495 . S
C838 C837 1.392 . S
C838 C839 1.385 . S
C838 C840 1.478 . S
C839 H833 0.930 . S
C839 C835 1.400 . S
C839 C838 1.385 . S
C840 C838 1.478 . S
C840 C842 1.381 . S
C840 C846 1.383 . S
C841 C837 1.495 . S
C841 H847 0.959 . S
C841 H848 0.961 . S
C841 H849 0.960 . S
C842 C840 1.381 . S
C842 C843 1.394 . S
C842 H850 0.930 . S
C843 C842 1.394 . S
C843 C844 1.383 . S
C843 H851 0.929 . S
C844 C843 1.383 . S
C844 C845 1.377 . S
C845 H829 0.930 . S
C845 C844 1.377 . S
C845 C846 1.379 . S
C846 H830 0.931 . S
C846 C840 1.383 . S
C846 C845 1.379 . S
H847 C841 0.959 . S
H848 C841 0.961 . S
H849 C841 0.960 . S
H850 C842 0.930 . S
H851 C843 0.929 . S
H852 C860 0.929 . S
H853 C862 0.930 . S
H854 C864 0.930 . S
H855 C867 0.929 . S
H856 C870 0.930 . S
H857 C872 0.960 . S
H858 C872 0.960 . S
H859 C872 0.960 . S
C860 H852 0.929 . S
C860 C861 1.377 . S
C860 C862 1.384 . S
C861 C860 1.377 . S
C861 C867 1.390 . S
C862 H853 0.930 . S
C862 C860 1.384 . S
C862 C863 1.372 . S
C863 C862 1.372 . S
C863 C864 1.400 . S
C863 C868 1.490 . S
C864 H854 0.930 . S
C864 C863 1.400 . S
C864 C867 1.386 . S
H865 C881 0.930 . S
H866 C882 0.931 . S
C867 H855 0.929 . S
C867 C861 1.390 . S
C867 C864 1.386 . S
C868 C863 1.490 . S
C868 C870 1.395 . S
C868 C871 1.403 . S
H869 C875 0.930 . S
C870 H856 0.930 . S
C870 C868 1.395 . S
C870 C873 1.403 . S
C871 C868 1.403 . S
C871 C872 1.524 . S
C871 C875 1.400 . S
C872 H857 0.960 . S
C872 H858 0.960 . S
C872 H859 0.960 . S
C872 C871 1.524 . S
C873 C870 1.403 . S
C873 C874 1.392 . S
C873 C877 1.495 . S
C874 C873 1.392 . S
C874 C875 1.385 . S
C874 C876 1.478 . S
C875 H869 0.930 . S
C875 C871 1.400 . S
C875 C874 1.385 . S
C876 C874 1.478 . S
C876 C878 1.381 . S
C876 C882 1.383 . S
C877 C873 1.495 . S
C877 H883 0.959 . S
C877 H884 0.961 . S
C877 H885 0.960 . S
C878 C876 1.381 . S
C878 C879 1.394 . S
C878 H886 0.930 . S
C879 C878 1.394 . S
C879 C880 1.383 . S
C879 H887 0.929 . S
C880 C879 1.383 . S
C880 C881 1.377 . S
C881 H865 0.930 . S
C881 C880 1.377 . S
C881 C882 1.379 . S
C882 H866 0.931 . S
C882 C876 1.383 . S
C882 C881 1.379 . S
H883 C877 0.959 . S
H884 C877 0.961 . S
H885 C877 0.960 . S
H886 C878 0.930 . S
H887 C879 0.929 . S
H888 C896 0.929 . S
H889 C898 0.930 . S
H890 C900 0.930 . S
H891 C903 0.929 . S
H892 C906 0.930 . S
H893 C908 0.960 . S
H894 C908 0.960 . S
H895 C908 0.960 . S
C896 H888 0.929 . S
C896 C897 1.377 . S
C896 C898 1.384 . S
C897 C896 1.377 . S
C897 C903 1.390 . S
C898 H889 0.930 . S
C898 C896 1.384 . S
C898 C899 1.372 . S
C899 C898 1.372 . S
C899 C900 1.400 . S
C899 C904 1.490 . S
C900 H890 0.930 . S
C900 C899 1.400 . S
C900 C903 1.386 . S
H901 C917 0.930 . S
H902 C918 0.931 . S
C903 H891 0.929 . S
C903 C897 1.390 . S
C903 C900 1.386 . S
C904 C899 1.490 . S
C904 C906 1.395 . S
C904 C907 1.403 . S
H905 C911 0.930 . S
C906 H892 0.930 . S
C906 C904 1.395 . S
C906 C909 1.403 . S
C907 C904 1.403 . S
C907 C908 1.524 . S
C907 C911 1.400 . S
C908 H893 0.960 . S
C908 H894 0.960 . S
C908 H895 0.960 . S
C908 C907 1.524 . S
C909 C906 1.403 . S
C909 C910 1.392 . S
C909 C913 1.495 . S
C910 C909 1.392 . S
C910 C911 1.385 . S
C910 C912 1.478 . S
C911 H905 0.930 . S
C911 C907 1.400 . S
C911 C910 1.385 . S
C912 C910 1.478 . S
C912 C914 1.381 . S
C912 C918 1.383 . S
C913 C909 1.495 . S
C913 H919 0.959 . S
C913 H920 0.961 . S
C913 H921 0.960 . S
C914 C912 1.381 . S
C914 C915 1.394 . S
C914 H922 0.930 . S
C915 C914 1.394 . S
C915 C916 1.383 . S
C915 H923 0.929 . S
C916 C915 1.383 . S
C916 C917 1.377 . S
C917 H901 0.930 . S
C917 C916 1.377 . S
C917 C918 1.379 . S
C918 H902 0.931 . S
C918 C912 1.383 . S
C918 C917 1.379 . S
H919 C913 0.959 . S
H920 C913 0.961 . S
H921 C913 0.960 . S
H922 C914 0.930 . S
H923 C915 0.929 . S
H924 C932 0.929 . S
H925 C934 0.930 . S
H926 C936 0.930 . S
H927 C939 0.929 . S
H928 C942 0.930 . S
H929 C944 0.960 . S
H930 C944 0.960 . S
H931 C944 0.960 . S
C932 H924 0.929 . S
C932 C933 1.377 . S
C932 C934 1.384 . S
C933 C932 1.377 . S
C933 C939 1.390 . S
C934 H925 0.930 . S
C934 C932 1.384 . S
C934 C935 1.372 . S
C935 C934 1.372 . S
C935 C936 1.400 . S
C935 C940 1.490 . S
C936 H926 0.930 . S
C936 C935 1.400 . S
C936 C939 1.386 . S
H937 C953 0.930 . S
H938 C954 0.931 . S
C939 H927 0.929 . S
C939 C933 1.390 . S
C939 C936 1.386 . S
C940 C935 1.490 . S
C940 C942 1.395 . S
C940 C943 1.403 . S
H941 C947 0.930 . S
C942 H928 0.930 . S
C942 C940 1.395 . S
C942 C945 1.403 . S
C943 C940 1.403 . S
C943 C944 1.524 . S
C943 C947 1.400 . S
C944 H929 0.960 . S
C944 H930 0.960 . S
C944 H931 0.960 . S
C944 C943 1.524 . S
C945 C942 1.403 . S
C945 C946 1.392 . S
C945 C949 1.495 . S
C946 C945 1.392 . S
C946 C947 1.385 . S
C946 C948 1.478 . S
C947 H941 0.930 . S
C947 C943 1.400 . S
C947 C946 1.385 . S
C948 C946 1.478 . S
C948 C950 1.381 . S
C948 C954 1.383 . S
C949 C945 1.495 . S
C949 H955 0.959 . S
C949 H956 0.961 . S
C949 H957 0.960 . S
C950 C948 1.381 . S
C950 C951 1.394 . S
C950 H958 0.930 . S
C951 C950 1.394 . S
C951 C952 1.383 . S
C951 H959 0.929 . S
C952 C951 1.383 . S
C952 C953 1.377 . S
C953 H937 0.930 . S
C953 C952 1.377 . S
C953 C954 1.379 . S
C954 H938 0.931 . S
C954 C948 1.383 . S
C954 C953 1.379 . S
H955 C949 0.959 . S
H956 C949 0.961 . S
H957 C949 0.960 . S
H958 C950 0.930 . S
H959 C951 0.929 . S
H960 C968 0.929 . S
H961 C970 0.930 . S
H962 C972 0.930 . S
H963 C975 0.929 . S
H964 C978 0.930 . S
H965 C980 0.960 . S
H966 C980 0.960 . S
H967 C980 0.960 . S
C968 H960 0.929 . S
C968 C969 1.377 . S
C968 C970 1.384 . S
C969 C968 1.377 . S
C969 C975 1.390 . S
C970 H961 0.930 . S
C970 C968 1.384 . S
C970 C971 1.372 . S
C971 C970 1.372 . S
C971 C972 1.400 . S
C971 C976 1.490 . S
C972 H962 0.930 . S
C972 C971 1.400 . S
C972 C975 1.386 . S
H973 C989 0.930 . S
H974 C990 0.931 . S
C975 H963 0.929 . S
C975 C969 1.390 . S
C975 C972 1.386 . S
C976 C971 1.490 . S
C976 C978 1.395 . S
C976 C979 1.403 . S
H977 C983 0.930 . S
C978 H964 0.930 . S
C978 C976 1.395 . S
C978 C981 1.403 . S
C979 C976 1.403 . S
C979 C980 1.524 . S
C979 C983 1.400 . S
C980 H965 0.960 . S
C980 H966 0.960 . S
C980 H967 0.960 . S
C980 C979 1.524 . S
C981 C978 1.403 . S
C981 C982 1.392 . S
C981 C985 1.495 . S
C982 C981 1.392 . S
C982 C983 1.385 . S
C982 C984 1.478 . S
C983 H977 0.930 . S
C983 C979 1.400 . S
C983 C982 1.385 . S
C984 C982 1.478 . S
C984 C986 1.381 . S
C984 C990 1.383 . S
C985 C981 1.495 . S
C985 H991 0.959 . S
C985 H992 0.961 . S
C985 H993 0.960 . S
C986 C984 1.381 . S
C986 C987 1.394 . S
C986 H994 0.930 . S
C987 C986 1.394 . S
C987 C988 1.383 . S
C987 H995 0.929 . S
C988 C987 1.383 . S
C988 C989 1.377 . S
C989 H973 0.930 . S
C989 C988 1.377 . S
C989 C990 1.379 . S
C990 H974 0.931 . S
C990 C984 1.383 . S
C990 C989 1.379 . S
H991 C985 0.959 . S
H992 C985 0.961 . S
H993 C985 0.960 . S
H994 C986 0.930 . S
H995 C987 0.929 . S
H996 C1004 0.929 . S
H997 C1006 0.930 . S
H998 C1008 0.930 . S
H999 C1011 0.929 . S
H1000 C1014 0.930 . S
H1001 C1016 0.960 . S
H1002 C1016 0.960 . S
H1003 C1016 0.960 . S
C1004 H996 0.929 . S
C1004 C1005 1.377 . S
C1004 C1006 1.384 . S
C1005 C1004 1.377 . S
C1005 C1011 1.390 . S
C1006 H997 0.930 . S
C1006 C1004 1.384 . S
C1006 C1007 1.372 . S
C1007 C1006 1.372 . S
C1007 C1008 1.400 . S
C1007 C1012 1.490 . S
C1008 H998 0.930 . S
C1008 C1007 1.400 . S
C1008 C1011 1.386 . S
H1009 C1025 0.930 . S
H1010 C1026 0.931 . S
C1011 H999 0.929 . S
C1011 C1005 1.390 . S
C1011 C1008 1.386 . S
C1012 C1007 1.490 . S
C1012 C1014 1.395 . S
C1012 C1015 1.403 . S
H1013 C1019 0.930 . S
C1014 H1000 0.930 . S
C1014 C1012 1.395 . S
C1014 C1017 1.403 . S
C1015 C1012 1.403 . S
C1015 C1016 1.524 . S
C1015 C1019 1.400 . S
C1016 H1001 0.960 . S
C1016 H1002 0.960 . S
C1016 H1003 0.960 . S
C1016 C1015 1.524 . S
C1017 C1014 1.403 . S
C1017 C1018 1.392 . S
C1017 C1021 1.495 . S
C1018 C1017 1.392 . S
C1018 C1019 1.385 . S
C1018 C1020 1.478 . S
C1019 H1013 0.930 . S
C1019 C1015 1.400 . S
C1019 C1018 1.385 . S
C1020 C1018 1.478 . S
C1020 C1022 1.381 . S
C1020 C1026 1.383 . S
C1021 C1017 1.495 . S
C1021 H1027 0.959 . S
C1021 H1028 0.961 . S
C1021 H1029 0.960 . S
C1022 C1020 1.381 . S
C1022 C1023 1.394 . S
C1022 H1030 0.930 . S
C1023 C1022 1.394 . S
C1023 C1024 1.383 . S
C1023 H1031 0.929 . S
C1024 C1023 1.383 . S
C1024 C1025 1.377 . S
C1025 H1009 0.930 . S
C1025 C1024 1.377 . S
C1025 C1026 1.379 . S
C1026 H1010 0.931 . S
C1026 C1020 1.383 . S
C1026 C1025 1.379 . S
H1027 C1021 0.959 . S
H1028 C1021 0.961 . S
H1029 C1021 0.960 . S
H1030 C1022 0.930 . S
H1031 C1023 0.929 . S
H1032 C1040 0.929 . S
H1033 C1042 0.930 . S
H1034 C1044 0.930 . S
H1035 C1047 0.929 . S
H1036 C1050 0.930 . S
H1037 C1052 0.960 . S
H1038 C1052 0.960 . S
H1039 C1052 0.960 . S
C1040 H1032 0.929 . S
C1040 C1041 1.377 . S
C1040 C1042 1.384 . S
C1041 C1040 1.377 . S
C1041 C1047 1.390 . S
C1042 H1033 0.930 . S
C1042 C1040 1.384 . S
C1042 C1043 1.372 . S
C1043 C1042 1.372 . S
C1043 C1044 1.400 . S
C1043 C1048 1.490 . S
C1044 H1034 0.930 . S
C1044 C1043 1.400 . S
C1044 C1047 1.386 . S
H1045 C1061 0.930 . S
H1046 C1062 0.931 . S
C1047 H1035 0.929 . S
C1047 C1041 1.390 . S
C1047 C1044 1.386 . S
C1048 C1043 1.490 . S
C1048 C1050 1.395 . S
C1048 C1051 1.403 . S
H1049 C1055 0.930 . S
C1050 H1036 0.930 . S
C1050 C1048 1.395 . S
C1050 C1053 1.403 . S
C1051 C1048 1.403 . S
C1051 C1052 1.524 . S
C1051 C1055 1.400 . S
C1052 H1037 0.960 . S
C1052 H1038 0.960 . S
C1052 H1039 0.960 . S
C1052 C1051 1.524 . S
C1053 C1050 1.403 . S
C1053 C1054 1.392 . S
C1053 C1057 1.495 . S
C1054 C1053 1.392 . S
C1054 C1055 1.385 . S
C1054 C1056 1.478 . S
C1055 H1049 0.930 . S
C1055 C1051 1.400 . S
C1055 C1054 1.385 . S
C1056 C1054 1.478 . S
C1056 C1058 1.381 . S
C1056 C1062 1.383 . S
C1057 C1053 1.495 . S
C1057 H1063 0.959 . S
C1057 H1064 0.961 . S
C1057 H1065 0.960 . S
C1058 C1056 1.381 . S
C1058 C1059 1.394 . S
C1058 H1066 0.930 . S
C1059 C1058 1.394 . S
C1059 C1060 1.383 . S
C1059 H1067 0.929 . S
C1060 C1059 1.383 . S
C1060 C1061 1.377 . S
C1061 H1045 0.930 . S
C1061 C1060 1.377 . S
C1061 C1062 1.379 . S
C1062 H1046 0.931 . S
C1062 C1056 1.383 . S
C1062 C1061 1.379 . S
H1063 C1057 0.959 . S
H1064 C1057 0.961 . S
H1065 C1057 0.960 . S
H1066 C1058 0.930 . S
H1067 C1059 0.929 . S
H1068 C1076 0.929 . S
H1069 C1078 0.930 . S
H1070 C1080 0.930 . S
H1071 C1083 0.929 . S
H1072 C1086 0.930 . S
H1073 C1088 0.960 . S
H1074 C1088 0.960 . S
H1075 C1088 0.960 . S
C1076 H1068 0.929 . S
C1076 C1077 1.377 . S
C1076 C1078 1.384 . S
C1077 C1076 1.377 . S
C1077 C1083 1.390 . S
C1078 H1069 0.930 . S
C1078 C1076 1.384 . S
C1078 C1079 1.372 . S
C1079 C1078 1.372 . S
C1079 C1080 1.400 . S
C1079 C1084 1.490 . S
C1080 H1070 0.930 . S
C1080 C1079 1.400 . S
C1080 C1083 1.386 . S
H1081 C1097 0.930 . S
H1082 C1098 0.931 . S
C1083 H1071 0.929 . S
C1083 C1077 1.390 . S
C1083 C1080 1.386 . S
C1084 C1079 1.490 . S
C1084 C1086 1.395 . S
C1084 C1087 1.403 . S
H1085 C1091 0.930 . S
C1086 H1072 0.930 . S
C1086 C1084 1.395 . S
C1086 C1089 1.403 . S
C1087 C1084 1.403 . S
C1087 C1088 1.524 . S
C1087 C1091 1.400 . S
C1088 H1073 0.960 . S
C1088 H1074 0.960 . S
C1088 H1075 0.960 . S
C1088 C1087 1.524 . S
C1089 C1086 1.403 . S
C1089 C1090 1.392 . S
C1089 C1093 1.495 . S
C1090 C1089 1.392 . S
C1090 C1091 1.385 . S
C1090 C1092 1.478 . S
C1091 H1085 0.930 . S
C1091 C1087 1.400 . S
C1091 C1090 1.385 . S
C1092 C1090 1.478 . S
C1092 C1094 1.381 . S
C1092 C1098 1.383 . S
C1093 C1089 1.495 . S
C1093 H1099 0.959 . S
C1093 H1100 0.961 . S
C1093 H1101 0.960 . S
C1094 C1092 1.381 . S
C1094 C1095 1.394 . S
C1094 H1102 0.930 . S
C1095 C1094 1.394 . S
C1095 C1096 1.383 . S
C1095 H1103 0.929 . S
C1096 C1095 1.383 . S
C1096 C1097 1.377 . S
C1097 H1081 0.930 . S
C1097 C1096 1.377 . S
C1097 C1098 1.379 . S
C1098 H1082 0.931 . S
C1098 C1092 1.383 . S
C1098 C1097 1.379 . S
H1099 C1093 0.959 . S
H1100 C1093 0.961 . S
H1101 C1093 0.960 . S
H1102 C1094 0.930 . S
H1103 C1095 0.929 . S
H1104 C1112 0.929 . S
H1105 C1114 0.930 . S
H1106 C1116 0.930 . S
H1107 C1119 0.929 . S
H1108 C1122 0.930 . S
H1109 C1124 0.960 . S
H1110 C1124 0.960 . S
H1111 C1124 0.960 . S
C1112 H1104 0.929 . S
C1112 C1113 1.377 . S
C1112 C1114 1.384 . S
C1113 C1112 1.377 . S
C1113 C1119 1.390 . S
C1114 H1105 0.930 . S
C1114 C1112 1.384 . S
C1114 C1115 1.372 . S
C1115 C1114 1.372 . S
C1115 C1116 1.400 . S
C1115 C1120 1.490 . S
C1116 H1106 0.930 . S
C1116 C1115 1.400 . S
C1116 C1119 1.386 . S
H1117 C1133 0.930 . S
H1118 C1134 0.931 . S
C1119 H1107 0.929 . S
C1119 C1113 1.390 . S
C1119 C1116 1.386 . S
C1120 C1115 1.490 . S
C1120 C1122 1.395 . S
C1120 C1123 1.403 . S
H1121 C1127 0.930 . S
C1122 H1108 0.930 . S
C1122 C1120 1.395 . S
C1122 C1125 1.403 . S
C1123 C1120 1.403 . S
C1123 C1124 1.524 . S
C1123 C1127 1.400 . S
C1124 H1109 0.960 . S
C1124 H1110 0.960 . S
C1124 H1111 0.960 . S
C1124 C1123 1.524 . S
C1125 C1122 1.403 . S
C1125 C1126 1.392 . S
C1125 C1129 1.495 . S
C1126 C1125 1.392 . S
C1126 C1127 1.385 . S
C1126 C1128 1.478 . S
C1127 H1121 0.930 . S
C1127 C1123 1.400 . S
C1127 C1126 1.385 . S
C1128 C1126 1.478 . S
C1128 C1130 1.381 . S
C1128 C1134 1.383 . S
C1129 C1125 1.495 . S
C1129 H1135 0.959 . S
C1129 H1136 0.961 . S
C1129 H1137 0.960 . S
C1130 C1128 1.381 . S
C1130 C1131 1.394 . S
C1130 H1138 0.930 . S
C1131 C1130 1.394 . S
C1131 C1132 1.383 . S
C1131 H1139 0.929 . S
C1132 C1131 1.383 . S
C1132 C1133 1.377 . S
C1133 H1117 0.930 . S
C1133 C1132 1.377 . S
C1133 C1134 1.379 . S
C1134 H1118 0.931 . S
C1134 C1128 1.383 . S
C1134 C1133 1.379 . S
H1135 C1129 0.959 . S
H1136 C1129 0.961 . S
H1137 C1129 0.960 . S
H1138 C1130 0.930 . S
H1139 C1131 0.929 . S
H1140 C1148 0.929 . S
H1141 C1150 0.930 . S
H1142 C1152 0.930 . S
H1143 C1155 0.929 . S
H1144 C1158 0.930 . S
H1145 C1160 0.960 . S
H1146 C1160 0.960 . S
H1147 C1160 0.960 . S
C1148 H1140 0.929 . S
C1148 C1149 1.377 . S
C1148 C1150 1.384 . S
C1149 C1148 1.377 . S
C1149 C1155 1.390 . S
C1150 H1141 0.930 . S
C1150 C1148 1.384 . S
C1150 C1151 1.372 . S
C1151 C1150 1.372 . S
C1151 C1152 1.400 . S
C1151 C1156 1.490 . S
C1152 H1142 0.930 . S
C1152 C1151 1.400 . S
C1152 C1155 1.386 . S
H1153 C1169 0.930 . S
H1154 C1170 0.931 . S
C1155 H1143 0.929 . S
C1155 C1149 1.390 . S
C1155 C1152 1.386 . S
C1156 C1151 1.490 . S
C1156 C1158 1.395 . S
C1156 C1159 1.403 . S
H1157 C1163 0.930 . S
C1158 H1144 0.930 . S
C1158 C1156 1.395 . S
C1158 C1161 1.403 . S
C1159 C1156 1.403 . S
C1159 C1160 1.524 . S
C1159 C1163 1.400 . S
C1160 H1145 0.960 . S
C1160 H1146 0.960 . S
C1160 H1147 0.960 . S
C1160 C1159 1.524 . S
C1161 C1158 1.403 . S
C1161 C1162 1.392 . S
C1161 C1165 1.495 . S
C1162 C1161 1.392 . S
C1162 C1163 1.385 . S
C1162 C1164 1.478 . S
C1163 H1157 0.930 . S
C1163 C1159 1.400 . S
C1163 C1162 1.385 . S
C1164 C1162 1.478 . S
C1164 C1166 1.381 . S
C1164 C1170 1.383 . S
C1165 C1161 1.495 . S
C1165 H1171 0.959 . S
C1165 H1172 0.961 . S
C1165 H1173 0.960 . S
C1166 C1164 1.381 . S
C1166 C1167 1.394 . S
C1166 H1174 0.930 . S
C1167 C1166 1.394 . S
C1167 C1168 1.383 . S
C1167 H1175 0.929 . S
C1168 C1167 1.383 . S
C1168 C1169 1.377 . S
C1169 H1153 0.930 . S
C1169 C1168 1.377 . S
C1169 C1170 1.379 . S
C1170 H1154 0.931 . S
C1170 C1164 1.383 . S
C1170 C1169 1.379 . S
H1171 C1165 0.959 . S
H1172 C1165 0.961 . S
H1173 C1165 0.960 . S
H1174 C1166 0.930 . S
H1175 C1167 0.929 . S
H1176 C1184 0.929 . S
H1177 C1186 0.930 . S
H1178 C1188 0.930 . S
H1179 C1191 0.929 . S
H1180 C1194 0.930 . S
H1181 C1196 0.960 . S
H1182 C1196 0.960 . S
H1183 C1196 0.960 . S
C1184 H1176 0.929 . S
C1184 C1185 1.377 . S
C1184 C1186 1.384 . S
C1185 C1184 1.377 . S
C1185 C1191 1.390 . S
C1186 H1177 0.930 . S
C1186 C1184 1.384 . S
C1186 C1187 1.372 . S
C1187 C1186 1.372 . S
C1187 C1188 1.400 . S
C1187 C1192 1.490 . S
C1188 H1178 0.930 . S
C1188 C1187 1.400 . S
C1188 C1191 1.386 . S
H1189 C1205 0.930 . S
H1190 C1206 0.931 . S
C1191 H1179 0.929 . S
C1191 C1185 1.390 . S
C1191 C1188 1.386 . S
C1192 C1187 1.490 . S
C1192 C1194 1.395 . S
C1192 C1195 1.403 . S
H1193 C1199 0.930 . S
C1194 H1180 0.930 . S
C1194 C1192 1.395 . S
C1194 C1197 1.403 . S
C1195 C1192 1.403 . S
C1195 C1196 1.524 . S
C1195 C1199 1.400 . S
C1196 H1181 0.960 . S
C1196 H1182 0.960 . S
C1196 H1183 0.960 . S
C1196 C1195 1.524 . S
C1197 C1194 1.403 . S
C1197 C1198 1.392 . S
C1197 C1201 1.495 . S
C1198 C1197 1.392 . S
C1198 C1199 1.385 . S
C1198 C1200 1.478 . S
C1199 H1193 0.930 . S
C1199 C1195 1.400 . S
C1199 C1198 1.385 . S
C1200 C1198 1.478 . S
C1200 C1202 1.381 . S
C1200 C1206 1.383 . S
C1201 C1197 1.495 . S
C1201 H1207 0.959 . S
C1201 H1208 0.961 . S
C1201 H1209 0.960 . S
C1202 C1200 1.381 . S
C1202 C1203 1.394 . S
C1202 H1210 0.930 . S
C1203 C1202 1.394 . S
C1203 C1204 1.383 . S
C1203 H1211 0.929 . S
C1204 C1203 1.383 . S
C1204 C1205 1.377 . S
C1205 H1189 0.930 . S
C1205 C1204 1.377 . S
C1205 C1206 1.379 . S
C1206 H1190 0.931 . S
C1206 C1200 1.383 . S
C1206 C1205 1.379 . S
H1207 C1201 0.959 . S
H1208 C1201 0.961 . S
H1209 C1201 0.960 . S
H1210 C1202 0.930 . S
H1211 C1203 0.929 . S
H1212 C1220 0.929 . S
H1213 C1222 0.930 . S
H1214 C1224 0.935 . S
H1215 C1227 0.929 . S
H1216 C1230 0.930 . S
H1217 C1232 0.960 . S
H1218 C1232 0.960 . S
H1219 C1232 0.960 . S
C1220 H1212 0.929 . S
C1220 C1221 1.377 . S
C1220 C1222 1.384 . S
C1221 C1220 1.377 . S
C1221 C1227 1.390 . S
C1222 H1213 0.930 . S
C1222 C1220 1.384 . S
C1222 C1223 1.372 . S
C1223 C1222 1.372 . S
C1223 C1224 1.400 . S
C1223 C1228 1.490 1_554 S
C1224 H1214 0.935 . S
C1224 C1223 1.400 . S
C1224 C1227 1.386 . S
H1225 C1241 0.930 . S
H1226 C1242 0.931 . S
C1227 H1215 0.929 . S
C1227 C1221 1.390 . S
C1227 C1224 1.386 . S
C1228 C1223 1.490 1_556 S
C1228 C1230 1.395 . S
C1228 C1231 1.403 . S
H1229 C1235 0.930 . S
C1230 H1216 0.930 . S
C1230 C1228 1.395 . S
C1230 C1233 1.403 . S
C1231 C1228 1.403 . S
C1231 C1232 1.524 . S
C1231 C1235 1.400 . S
C1232 H1217 0.960 . S
C1232 H1218 0.960 . S
C1232 H1219 0.960 . S
C1232 C1231 1.524 . S
C1233 C1230 1.403 . S
C1233 C1234 1.392 . S
C1233 C1237 1.495 . S
C1234 C1233 1.392 . S
C1234 C1235 1.385 . S
C1234 C1236 1.478 . S
C1235 H1229 0.930 . S
C1235 C1231 1.400 . S
C1235 C1234 1.385 . S
C1236 C1234 1.478 . S
C1236 C1238 1.381 . S
C1236 C1242 1.383 . S
C1237 C1233 1.495 . S
C1237 H1243 0.959 . S
C1237 H1244 0.961 . S
C1237 H1245 0.960 . S
C1238 C1236 1.381 . S
C1238 C1239 1.394 . S
C1238 H1246 0.930 . S
C1239 C1238 1.394 . S
C1239 C1240 1.383 . S
C1239 H1247 0.929 . S
C1240 C1239 1.383 . S
C1240 C1241 1.377 . S
C1241 H1225 0.930 . S
C1241 C1240 1.377 . S
C1241 C1242 1.379 . S
C1242 H1226 0.931 . S
C1242 C1236 1.383 . S
C1242 C1241 1.379 . S
H1243 C1237 0.959 . S
H1244 C1237 0.961 . S
H1245 C1237 0.960 . S
H1246 C1238 0.930 . S
H1247 C1239 0.929 . S
H1248 C1256 0.929 . S
H1249 C1258 0.930 . S
H1250 C1260 0.930 . S
H1251 C1263 0.929 . S
H1252 C1266 0.930 . S
H1253 C1268 0.960 . S
H1254 C1268 0.960 . S
H1255 C1268 0.960 . S
C1256 H1248 0.929 . S
C1256 C1257 1.377 . S
C1256 C1258 1.384 . S
C1257 C1256 1.377 . S
C1257 C1263 1.390 . S
C1258 H1249 0.930 . S
C1258 C1256 1.384 . S
C1258 C1259 1.372 . S
C1259 C1258 1.372 . S
C1259 C1260 1.400 . S
C1259 C1264 1.490 . S
C1260 H1250 0.930 . S
C1260 C1259 1.400 . S
C1260 C1263 1.386 . S
H1261 C1277 0.930 . S
H1262 C1278 0.931 . S
C1263 H1251 0.929 . S
C1263 C1257 1.390 . S
C1263 C1260 1.386 . S
C1264 C1259 1.490 . S
C1264 C1266 1.395 . S
C1264 C1267 1.403 . S
H1265 C1271 0.930 . S
C1266 H1252 0.930 . S
C1266 C1264 1.395 . S
C1266 C1269 1.403 . S
C1267 C1264 1.403 . S
C1267 C1268 1.524 . S
C1267 C1271 1.400 . S
C1268 H1253 0.960 . S
C1268 H1254 0.960 . S
C1268 H1255 0.960 . S
C1268 C1267 1.524 . S
C1269 C1266 1.403 . S
C1269 C1270 1.392 . S
C1269 C1273 1.495 . S
C1270 C1269 1.392 . S
C1270 C1271 1.385 . S
C1270 C1272 1.478 . S
C1271 H1265 0.930 . S
C1271 C1267 1.400 . S
C1271 C1270 1.385 . S
C1272 C1270 1.478 . S
C1272 C1274 1.381 . S
C1272 C1278 1.383 . S
C1273 C1269 1.495 . S
C1273 H1279 0.959 . S
C1273 H1280 0.961 . S
C1273 H1281 0.960 . S
C1274 C1272 1.381 . S
C1274 C1275 1.394 . S
C1274 H1282 0.930 . S
C1275 C1274 1.394 . S
C1275 C1276 1.383 . S
C1275 H1283 0.929 . S
C1276 C1275 1.383 . S
C1276 C1277 1.377 . S
C1277 H1261 0.930 . S
C1277 C1276 1.377 . S
C1277 C1278 1.379 . S
C1278 H1262 0.931 . S
C1278 C1272 1.383 . S
C1278 C1277 1.379 . S
H1279 C1273 0.959 . S
H1280 C1273 0.961 . S
H1281 C1273 0.960 . S
H1282 C1274 0.930 . S
H1283 C1275 0.929 . S
H1284 C1292 0.929 . S
H1285 C1294 0.930 . S
H1286 C1296 0.930 . S
H1287 C1299 0.929 . S
H1288 C1302 0.930 . S
H1289 C1304 0.960 . S
H1290 C1304 0.960 . S
H1291 C1304 0.960 . S
C1292 H1284 0.929 . S
C1292 C1293 1.377 . S
C1292 C1294 1.384 . S
C1293 C1292 1.377 . S
C1293 C1299 1.390 . S
C1294 H1285 0.930 . S
C1294 C1292 1.384 . S
C1294 C1295 1.372 . S
C1295 C1294 1.372 . S
C1295 C1296 1.400 . S
C1295 C1300 1.490 . S
C1296 H1286 0.930 . S
C1296 C1295 1.400 . S
C1296 C1299 1.386 . S
H1297 C1313 0.930 . S
H1298 C1314 0.931 . S
C1299 H1287 0.929 . S
C1299 C1293 1.390 . S
C1299 C1296 1.386 . S
C1300 C1295 1.490 . S
C1300 C1302 1.395 . S
C1300 C1303 1.403 . S
H1301 C1307 0.930 . S
C1302 H1288 0.930 . S
C1302 C1300 1.395 . S
C1302 C1305 1.403 . S
C1303 C1300 1.403 . S
C1303 C1304 1.524 . S
C1303 C1307 1.400 . S
C1304 H1289 0.960 . S
C1304 H1290 0.960 . S
C1304 H1291 0.960 . S
C1304 C1303 1.524 . S
C1305 C1302 1.403 . S
C1305 C1306 1.392 . S
C1305 C1309 1.495 . S
C1306 C1305 1.392 . S
C1306 C1307 1.385 . S
C1306 C1308 1.478 1_554 S
C1307 H1301 0.930 . S
C1307 C1303 1.400 . S
C1307 C1306 1.385 . S
C1308 C1306 1.478 1_556 S
C1308 C1310 1.381 . S
C1308 C1314 1.383 . S
C1309 C1305 1.495 . S
C1309 H1315 0.959 . S
C1309 H1316 0.961 . S
C1309 H1317 0.960 . S
C1310 C1308 1.381 . S
C1310 C1311 1.394 . S
C1310 H1318 0.930 . S
C1311 C1310 1.394 . S
C1311 C1312 1.383 . S
C1311 H1319 0.929 . S
C1312 C1311 1.383 . S
C1312 C1313 1.377 . S
C1313 H1297 0.930 . S
C1313 C1312 1.377 . S
C1313 C1314 1.379 . S
C1314 H1298 0.931 . S
C1314 C1308 1.383 . S
C1314 C1313 1.379 . S
H1315 C1309 0.959 . S
H1316 C1309 0.961 . S
H1317 C1309 0.960 . S
H1318 C1310 0.930 . S
H1319 C1311 0.929 . S
H1320 C1328 0.929 . S
H1321 C1330 0.930 . S
H1322 C1332 0.930 . S
H1323 C1335 0.929 . S
H1324 C1338 0.930 . S
H1325 C1340 0.960 . S
H1326 C1340 0.960 . S
H1327 C1340 0.960 . S
C1328 H1320 0.929 . S
C1328 C1329 1.377 . S
C1328 C1330 1.384 . S
C1329 C1328 1.377 . S
C1329 C1335 1.390 . S
C1330 H1321 0.930 . S
C1330 C1328 1.384 . S
C1330 C1331 1.372 . S
C1331 C1330 1.372 . S
C1331 C1332 1.400 . S
C1331 C1336 1.490 . S
C1332 H1322 0.930 . S
C1332 C1331 1.400 . S
C1332 C1335 1.386 . S
H1333 C1349 0.930 . S
H1334 C1350 0.931 . S
C1335 H1323 0.929 . S
C1335 C1329 1.390 . S
C1335 C1332 1.386 . S
C1336 C1331 1.490 . S
C1336 C1338 1.395 . S
C1336 C1339 1.403 . S
H1337 C1343 0.930 . S
C1338 H1324 0.930 . S
C1338 C1336 1.395 . S
C1338 C1341 1.403 . S
C1339 C1336 1.403 . S
C1339 C1340 1.524 . S
C1339 C1343 1.400 . S
C1340 H1325 0.960 . S
C1340 H1326 0.960 . S
C1340 H1327 0.960 . S
C1340 C1339 1.524 . S
C1341 C1338 1.403 . S
C1341 C1342 1.392 . S
C1341 C1345 1.495 . S
C1342 C1341 1.392 . S
C1342 C1343 1.385 . S
C1342 C1344 1.478 . S
C1343 H1337 0.930 . S
C1343 C1339 1.400 . S
C1343 C1342 1.385 . S
C1344 C1342 1.478 . S
C1344 C1346 1.381 . S
C1344 C1350 1.383 . S
C1345 C1341 1.495 . S
C1345 H1351 0.959 . S
C1345 H1352 0.961 . S
C1345 H1353 0.960 . S
C1346 C1344 1.381 . S
C1346 C1347 1.394 . S
C1346 H1354 0.930 . S
C1347 C1346 1.394 . S
C1347 C1348 1.383 . S
C1347 H1355 0.929 . S
C1348 C1347 1.383 . S
C1348 C1349 1.377 . S
C1349 H1333 0.930 . S
C1349 C1348 1.377 . S
C1349 C1350 1.379 . S
C1350 H1334 0.931 . S
C1350 C1344 1.383 . S
C1350 C1349 1.379 . S
H1351 C1345 0.959 . S
H1352 C1345 0.961 . S
H1353 C1345 0.960 . S
H1354 C1346 0.930 . S
H1355 C1347 0.929 . S
H1356 C1364 0.929 . S
H1357 C1366 0.930 . S
H1358 C1368 0.930 . S
H1359 C1371 0.929 . S
H1360 C1374 0.930 . S
H1361 C1376 0.960 . S
H1362 C1376 0.960 . S
H1363 C1376 0.960 . S
C1364 H1356 0.929 . S
C1364 C1365 1.377 . S
C1364 C1366 1.384 . S
C1365 C1364 1.377 . S
C1365 C1371 1.390 . S
C1366 H1357 0.930 . S
C1366 C1364 1.384 . S
C1366 C1367 1.372 . S
C1367 C1366 1.372 . S
C1367 C1368 1.400 . S
C1367 C1372 1.490 1_655 S
C1368 H1358 0.930 . S
C1368 C1367 1.400 . S
C1368 C1371 1.386 . S
H1369 C1385 0.930 . S
H1370 C1386 0.931 . S
C1371 H1359 0.929 . S
C1371 C1365 1.390 . S
C1371 C1368 1.386 . S
C1372 C1367 1.490 1_455 S
C1372 C1374 1.395 . S
C1372 C1375 1.403 . S
H1373 C1379 0.930 . S
C1374 H1360 0.930 . S
C1374 C1372 1.395 . S
C1374 C1377 1.403 . S
C1375 C1372 1.403 . S
C1375 C1376 1.524 . S
C1375 C1379 1.400 . S
C1376 H1361 0.960 . S
C1376 H1362 0.960 . S
C1376 H1363 0.960 . S
C1376 C1375 1.524 . S
C1377 C1374 1.403 . S
C1377 C1378 1.392 . S
C1377 C1381 1.495 . S
C1378 C1377 1.392 . S
C1378 C1379 1.385 . S
C1378 C1380 1.478 . S
C1379 H1373 0.930 . S
C1379 C1375 1.400 . S
C1379 C1378 1.385 . S
C1380 C1378 1.478 . S
C1380 C1382 1.381 . S
C1380 C1386 1.383 . S
C1381 C1377 1.495 . S
C1381 H1387 0.959 . S
C1381 H1388 0.961 . S
C1381 H1389 0.960 . S
C1382 C1380 1.381 . S
C1382 C1383 1.394 . S
C1382 H1390 0.930 . S
C1383 C1382 1.394 . S
C1383 C1384 1.383 . S
C1383 H1391 0.929 . S
C1384 C1383 1.383 . S
C1384 C1385 1.377 . S
C1385 H1369 0.930 . S
C1385 C1384 1.377 . S
C1385 C1386 1.379 . S
C1386 H1370 0.931 . S
C1386 C1380 1.383 . S
C1386 C1385 1.379 . S
H1387 C1381 0.959 . S
H1388 C1381 0.961 . S
H1389 C1381 0.960 . S
H1390 C1382 0.930 . S
H1391 C1383 0.929 . S
H1392 C1400 0.929 . S
H1393 C1402 0.930 . S
H1394 C1404 0.930 . S
H1395 C1407 0.929 . S
H1396 C1410 0.930 . S
H1397 C1412 0.960 . S
H1398 C1412 0.960 . S
H1399 C1412 0.960 . S
C1400 H1392 0.929 . S
C1400 C1401 1.377 . S
C1400 C1402 1.384 . S
C1401 C1400 1.377 . S
C1401 C1407 1.390 . S
C1402 H1393 0.930 . S
C1402 C1400 1.384 . S
C1402 C1403 1.372 . S
C1403 C1402 1.372 . S
C1403 C1404 1.400 . S
C1403 C1408 1.490 1_455 S
C1404 H1394 0.930 . S
C1404 C1403 1.400 . S
C1404 C1407 1.386 . S
H1405 C1421 0.930 . S
H1406 C1422 0.931 . S
C1407 H1395 0.929 . S
C1407 C1401 1.390 . S
C1407 C1404 1.386 . S
C1408 C1403 1.490 1_655 S
C1408 C1410 1.395 . S
C1408 C1411 1.403 . S
H1409 C1415 0.930 . S
C1410 H1396 0.930 . S
C1410 C1408 1.395 . S
C1410 C1413 1.403 . S
C1411 C1408 1.403 . S
C1411 C1412 1.524 . S
C1411 C1415 1.400 . S
C1412 H1397 0.960 . S
C1412 H1398 0.960 . S
C1412 H1399 0.960 . S
C1412 C1411 1.524 . S
C1413 C1410 1.403 . S
C1413 C1414 1.392 . S
C1413 C1417 1.495 . S
C1414 C1413 1.392 . S
C1414 C1415 1.385 . S
C1414 C1416 1.478 . S
C1415 H1409 0.930 . S
C1415 C1411 1.400 . S
C1415 C1414 1.385 . S
C1416 C1414 1.478 . S
C1416 C1418 1.381 . S
C1416 C1422 1.383 . S
C1417 C1413 1.495 . S
C1417 H1423 0.959 . S
C1417 H1424 0.961 . S
C1417 H1425 0.960 . S
C1418 C1416 1.381 . S
C1418 C1419 1.394 . S
C1418 H1426 0.930 . S
C1419 C1418 1.394 . S
C1419 C1420 1.383 . S
C1419 H1427 0.929 . S
C1420 C1419 1.383 . S
C1420 C1421 1.377 . S
C1421 H1405 0.930 . S
C1421 C1420 1.377 . S
C1421 C1422 1.379 . S
C1422 H1406 0.931 . S
C1422 C1416 1.383 . S
C1422 C1421 1.379 . S
H1423 C1417 0.959 . S
H1424 C1417 0.961 . S
H1425 C1417 0.960 . S
H1426 C1418 0.930 . S
H1427 C1419 0.929 . S
H1428 C1436 0.929 . S
H1429 C1438 0.930 . S
H1430 C1440 0.930 . S
H1431 C1443 0.929 . S
H1432 C1446 0.930 . S
H1433 C1448 0.960 . S
H1434 C1448 0.960 . S
H1435 C1448 0.960 . S
C1436 H1428 0.929 . S
C1436 C1437 1.377 . S
C1436 C1438 1.384 . S
C1437 C1436 1.377 . S
C1437 C1443 1.390 . S
C1438 H1429 0.930 . S
C1438 C1436 1.384 . S
C1438 C1439 1.372 . S
C1439 C1438 1.372 . S
C1439 C1440 1.400 . S
C1439 C1444 1.490 . S
C1440 H1430 0.930 . S
C1440 C1439 1.400 . S
C1440 C1443 1.386 . S
H1441 C1457 0.930 . S
H1442 C1458 0.931 . S
C1443 H1431 0.929 . S
C1443 C1437 1.390 . S
C1443 C1440 1.386 . S
C1444 C1439 1.490 . S
C1444 C1446 1.395 . S
C1444 C1447 1.403 . S
H1445 C1451 0.930 . S
C1446 H1432 0.930 . S
C1446 C1444 1.395 . S
C1446 C1449 1.403 . S
C1447 C1444 1.403 . S
C1447 C1448 1.524 . S
C1447 C1451 1.400 . S
C1448 H1433 0.960 . S
C1448 H1434 0.960 . S
C1448 H1435 0.960 . S
C1448 C1447 1.524 . S
C1449 C1446 1.403 . S
C1449 C1450 1.392 . S
C1449 C1453 1.495 . S
C1450 C1449 1.392 . S
C1450 C1451 1.385 . S
C1450 C1452 1.478 . S
C1451 H1445 0.930 . S
C1451 C1447 1.400 . S
C1451 C1450 1.385 . S
C1452 C1450 1.478 . S
C1452 C1454 1.381 . S
C1452 C1458 1.383 . S
C1453 C1449 1.495 . S
C1453 H1459 0.959 . S
C1453 H1460 0.961 . S
C1453 H1461 0.960 . S
C1454 C1452 1.381 . S
C1454 C1455 1.394 . S
C1454 H1462 0.930 . S
C1455 C1454 1.394 . S
C1455 C1456 1.383 . S
C1455 H1463 0.929 . S
C1456 C1455 1.383 . S
C1456 C1457 1.377 . S
C1457 H1441 0.930 . S
C1457 C1456 1.377 . S
C1457 C1458 1.379 . S
C1458 H1442 0.931 . S
C1458 C1452 1.383 . S
C1458 C1457 1.379 . S
H1459 C1453 0.959 . S
H1460 C1453 0.961 . S
H1461 C1453 0.960 . S
H1462 C1454 0.930 . S
H1463 C1455 0.929 . S
H1464 C1472 0.929 . S
H1465 C1474 0.930 . S
H1466 C1476 0.930 . S
H1467 C1479 0.929 . S
H1468 C1482 0.930 . S
H1469 C1484 0.960 . S
H1470 C1484 0.960 . S
H1471 C1484 0.960 . S
C1472 H1464 0.929 . S
C1472 C1473 1.377 . S
C1472 C1474 1.384 . S
C1473 C1472 1.377 . S
C1473 C1479 1.390 . S
C1474 H1465 0.930 . S
C1474 C1472 1.384 . S
C1474 C1475 1.372 . S
C1475 C1474 1.372 . S
C1475 C1476 1.400 . S
C1475 C1480 1.490 . S
C1476 H1466 0.930 . S
C1476 C1475 1.400 . S
C1476 C1479 1.386 . S
H1477 C1493 0.930 . S
H1478 C1494 0.931 . S
C1479 H1467 0.929 . S
C1479 C1473 1.390 . S
C1479 C1476 1.386 . S
C1480 C1475 1.490 . S
C1480 C1482 1.395 . S
C1480 C1483 1.403 . S
H1481 C1487 0.930 . S
C1482 H1468 0.930 . S
C1482 C1480 1.395 . S
C1482 C1485 1.403 . S
C1483 C1480 1.403 . S
C1483 C1484 1.524 . S
C1483 C1487 1.400 . S
C1484 H1469 0.960 . S
C1484 H1470 0.960 . S
C1484 H1471 0.960 . S
C1484 C1483 1.524 . S
C1485 C1482 1.403 . S
C1485 C1486 1.392 . S
C1485 C1489 1.495 . S
C1486 C1485 1.392 . S
C1486 C1487 1.385 . S
C1486 C1488 1.478 . S
C1487 H1481 0.930 . S
C1487 C1483 1.400 . S
C1487 C1486 1.385 . S
C1488 C1486 1.478 . S
C1488 C1490 1.381 . S
C1488 C1494 1.383 . S
C1489 C1485 1.495 . S
C1489 H1495 0.959 . S
C1489 H1496 0.961 . S
C1489 H1497 0.960 . S
C1490 C1488 1.381 . S
C1490 C1491 1.394 . S
C1490 H1498 0.930 . S
C1491 C1490 1.394 . S
C1491 C1492 1.383 . S
C1491 H1499 0.929 . S
C1492 C1491 1.383 . S
C1492 C1493 1.377 . S
C1493 H1477 0.930 . S
C1493 C1492 1.377 . S
C1493 C1494 1.379 . S
C1494 H1478 0.931 . S
C1494 C1488 1.383 . S
C1494 C1493 1.379 . S
H1495 C1489 0.959 . S
H1496 C1489 0.961 . S
H1497 C1489 0.960 . S
H1498 C1490 0.930 . S
H1499 C1491 0.929 . S
H1500 C1508 0.929 . S
H1501 C1510 0.930 . S
H1502 C1512 0.930 . S
H1503 C1515 0.929 . S
H1504 C1518 0.930 . S
H1505 C1520 0.960 . S
H1506 C1520 0.960 . S
H1507 C1520 0.960 . S
C1508 H1500 0.929 . S
C1508 C1509 1.377 . S
C1508 C1510 1.384 . S
C1509 C1508 1.377 . S
C1509 C1515 1.390 . S
C1510 H1501 0.930 . S
C1510 C1508 1.384 . S
C1510 C1511 1.372 . S
C1511 C1510 1.372 . S
C1511 C1512 1.400 . S
C1511 C1516 1.490 1_565 S
C1512 H1502 0.930 . S
C1512 C1511 1.400 . S
C1512 C1515 1.386 . S
H1513 C1529 0.930 . S
H1514 C1530 0.931 . S
C1515 H1503 0.929 . S
C1515 C1509 1.390 . S
C1515 C1512 1.386 . S
C1516 C1511 1.490 1_545 S
C1516 C1518 1.395 . S
C1516 C1519 1.403 . S
H1517 C1523 0.930 . S
C1518 H1504 0.930 . S
C1518 C1516 1.395 . S
C1518 C1521 1.403 . S
C1519 C1516 1.403 . S
C1519 C1520 1.524 . S
C1519 C1523 1.400 . S
C1520 H1505 0.960 . S
C1520 H1506 0.960 . S
C1520 H1507 0.960 . S
C1520 C1519 1.524 . S
C1521 C1518 1.403 . S
C1521 C1522 1.392 . S
C1521 C1525 1.495 . S
C1522 C1521 1.392 . S
C1522 C1523 1.385 . S
C1522 C1524 1.478 . S
C1523 H1517 0.930 . S
C1523 C1519 1.400 . S
C1523 C1522 1.385 . S
C1524 C1522 1.478 . S
C1524 C1526 1.381 . S
C1524 C1530 1.383 . S
C1525 C1521 1.495 . S
C1525 H1531 0.959 . S
C1525 H1532 0.961 . S
C1525 H1533 0.960 . S
C1526 C1524 1.381 . S
C1526 C1527 1.394 . S
C1526 H1534 0.930 . S
C1527 C1526 1.394 . S
C1527 C1528 1.383 . S
C1527 H1535 0.929 . S
C1528 C1527 1.383 . S
C1528 C1529 1.377 . S
C1529 H1513 0.930 . S
C1529 C1528 1.377 . S
C1529 C1530 1.379 . S
C1530 H1514 0.931 . S
C1530 C1524 1.383 . S
C1530 C1529 1.379 . S
H1531 C1525 0.959 . S
H1532 C1525 0.961 . S
H1533 C1525 0.960 . S
H1534 C1526 0.930 . S
H1535 C1527 0.929 . S
H1536 C1544 0.929 . S
H1537 C1546 0.930 . S
H1538 C1548 0.930 . S
H1539 C1551 0.929 . S
H1540 C1554 0.930 . S
H1541 C1556 0.960 . S
H1542 C1556 0.960 . S
H1543 C1556 0.960 . S
C1544 H1536 0.929 . S
C1544 C1545 1.377 . S
C1544 C1546 1.384 . S
C1545 C1544 1.377 . S
C1545 C1551 1.390 . S
C1546 H1537 0.930 . S
C1546 C1544 1.384 . S
C1546 C1547 1.372 . S
C1547 C1546 1.372 . S
C1547 C1548 1.400 . S
C1547 C1552 1.490 1_545 S
C1548 H1538 0.930 . S
C1548 C1547 1.400 . S
C1548 C1551 1.386 . S
H1549 C1565 0.930 . S
H1550 C1566 0.931 . S
C1551 H1539 0.929 . S
C1551 C1545 1.390 . S
C1551 C1548 1.386 . S
C1552 C1547 1.490 1_565 S
C1552 C1554 1.395 . S
C1552 C1555 1.403 . S
H1553 C1559 0.930 . S
C1554 H1540 0.930 . S
C1554 C1552 1.395 . S
C1554 C1557 1.403 . S
C1555 C1552 1.403 . S
C1555 C1556 1.524 . S
C1555 C1559 1.400 . S
C1556 H1541 0.960 . S
C1556 H1542 0.960 . S
C1556 H1543 0.960 . S
C1556 C1555 1.524 . S
C1557 C1554 1.403 . S
C1557 C1558 1.392 . S
C1557 C1561 1.495 . S
C1558 C1557 1.392 . S
C1558 C1559 1.385 . S
C1558 C1560 1.478 . S
C1559 H1553 0.930 . S
C1559 C1555 1.400 . S
C1559 C1558 1.385 . S
C1560 C1558 1.478 . S
C1560 C1562 1.381 . S
C1560 C1566 1.383 . S
C1561 C1557 1.495 . S
C1561 H1567 0.959 . S
C1561 H1568 0.961 . S
C1561 H1569 0.960 . S
C1562 C1560 1.381 . S
C1562 C1563 1.394 . S
C1562 H1570 0.930 . S
C1563 C1562 1.394 . S
C1563 C1564 1.383 . S
C1563 H1571 0.929 . S
C1564 C1563 1.383 . S
C1564 C1565 1.377 . S
C1565 H1549 0.930 . S
C1565 C1564 1.377 . S
C1565 C1566 1.379 . S
C1566 H1550 0.931 . S
C1566 C1560 1.383 . S
C1566 C1565 1.379 . S
H1567 C1561 0.959 . S
H1568 C1561 0.961 . S
H1569 C1561 0.960 . S
H1570 C1562 0.930 . S
H1571 C1563 0.929 . S
H1572 C1580 0.929 . S
H1573 C1582 0.930 . S
H1574 C1584 0.930 . S
H1575 C1587 0.929 . S
H1576 C1590 0.930 . S
H1577 C1592 0.960 . S
H1578 C1592 0.960 . S
H1579 C1592 0.960 . S
C1580 H1572 0.929 . S
C1580 C1581 1.377 . S
C1580 C1582 1.384 . S
C1581 C1580 1.377 . S
C1581 C1587 1.390 . S
C1582 H1573 0.930 . S
C1582 C1580 1.384 . S
C1582 C1583 1.372 . S
C1583 C1582 1.372 . S
C1583 C1584 1.400 . S
C1583 C1588 1.490 . S
C1584 H1574 0.930 . S
C1584 C1583 1.400 . S
C1584 C1587 1.386 . S
H1585 C1601 0.930 . S
H1586 C1602 0.931 . S
C1587 H1575 0.929 . S
C1587 C1581 1.390 . S
C1587 C1584 1.386 . S
C1588 C1583 1.490 . S
C1588 C1590 1.395 . S
C1588 C1591 1.403 . S
H1589 C1595 0.930 . S
C1590 H1576 0.930 . S
C1590 C1588 1.395 . S
C1590 C1593 1.403 . S
C1591 C1588 1.403 . S
C1591 C1592 1.524 . S
C1591 C1595 1.400 . S
C1592 H1577 0.960 . S
C1592 H1578 0.960 . S
C1592 H1579 0.960 . S
C1592 C1591 1.524 . S
C1593 C1590 1.403 . S
C1593 C1594 1.392 . S
C1593 C1597 1.495 . S
C1594 C1593 1.392 . S
C1594 C1595 1.385 . S
C1594 C1596 1.478 . S
C1595 H1589 0.930 . S
C1595 C1591 1.400 . S
C1595 C1594 1.385 . S
C1596 C1594 1.478 . S
C1596 C1598 1.381 . S
C1596 C1602 1.383 . S
C1597 C1593 1.495 . S
C1597 H1603 0.959 . S
C1597 H1604 0.961 . S
C1597 H1605 0.960 . S
C1598 C1596 1.381 . S
C1598 C1599 1.394 . S
C1598 H1606 0.930 . S
C1599 C1598 1.394 . S
C1599 C1600 1.383 . S
C1599 H1607 0.929 . S
C1600 C1599 1.383 . S
C1600 C1601 1.377 . S
C1601 H1585 0.930 . S
C1601 C1600 1.377 . S
C1601 C1602 1.379 . S
C1602 H1586 0.931 . S
C1602 C1596 1.383 . S
C1602 C1601 1.379 . S
H1603 C1597 0.959 . S
H1604 C1597 0.961 . S
H1605 C1597 0.960 . S
H1606 C1598 0.930 . S
H1607 C1599 0.929 . S
H1608 C1616 0.929 . S
H1609 C1618 0.930 . S
H1610 C1620 0.930 . S
H1611 C1623 0.929 . S
H1612 C1626 0.930 . S
H1613 C1628 0.960 . S
H1614 C1628 0.960 . S
H1615 C1628 0.960 . S
C1616 H1608 0.929 . S
C1616 C1617 1.377 . S
C1616 C1618 1.384 . S
C1617 C1616 1.377 . S
C1617 C1623 1.390 . S
C1618 H1609 0.930 . S
C1618 C1616 1.384 . S
C1618 C1619 1.372 . S
C1619 C1618 1.372 . S
C1619 C1620 1.400 . S
C1619 C1624 1.490 . S
C1620 H1610 0.930 . S
C1620 C1619 1.400 . S
C1620 C1623 1.386 . S
H1621 C1637 0.930 . S
H1622 C1638 0.931 . S
C1623 H1611 0.929 . S
C1623 C1617 1.390 . S
C1623 C1620 1.386 . S
C1624 C1619 1.490 . S
C1624 C1626 1.395 . S
C1624 C1627 1.403 . S
H1625 C1631 0.930 . S
C1626 H1612 0.930 . S
C1626 C1624 1.395 . S
C1626 C1629 1.403 . S
C1627 C1624 1.403 . S
C1627 C1628 1.524 . S
C1627 C1631 1.400 . S
C1628 H1613 0.960 . S
C1628 H1614 0.960 . S
C1628 H1615 0.960 . S
C1628 C1627 1.524 . S
C1629 C1626 1.403 . S
C1629 C1630 1.392 . S
C1629 C1633 1.495 . S
C1630 C1629 1.392 . S
C1630 C1631 1.385 . S
C1630 C1632 1.478 . S
C1631 H1625 0.930 . S
C1631 C1627 1.400 . S
C1631 C1630 1.385 . S
C1632 C1630 1.478 . S
C1632 C1634 1.381 . S
C1632 C1638 1.383 . S
C1633 C1629 1.495 . S
C1633 H1639 0.959 . S
C1633 H1640 0.961 . S
C1633 H1641 0.960 . S
C1634 C1632 1.381 . S
C1634 C1635 1.394 . S
C1634 H1642 0.930 . S
C1635 C1634 1.394 . S
C1635 C1636 1.383 . S
C1635 H1643 0.929 . S
C1636 C1635 1.383 . S
C1636 C1637 1.377 . S
C1637 H1621 0.930 . S
C1637 C1636 1.377 . S
C1637 C1638 1.379 . S
C1638 H1622 0.931 . S
C1638 C1632 1.383 . S
C1638 C1637 1.379 . S
H1639 C1633 0.959 . S
H1640 C1633 0.961 . S
H1641 C1633 0.960 . S
H1642 C1634 0.930 . S
H1643 C1635 0.929 . S
H1644 C1652 0.929 . S
H1645 C1654 0.930 . S
H1646 C1656 0.930 . S
H1647 C1659 0.929 . S
H1648 C1662 0.930 . S
H1649 C1664 0.960 . S
H1650 C1664 0.960 . S
H1651 C1664 0.960 . S
C1652 H1644 0.929 . S
C1652 C1653 1.377 . S
C1652 C1654 1.384 . S
C1653 C1652 1.377 . S
C1653 C1659 1.390 . S
C1654 H1645 0.930 . S
C1654 C1652 1.384 . S
C1654 C1655 1.372 . S
C1655 C1654 1.372 . S
C1655 C1656 1.400 . S
C1655 C1660 1.490 1_556 S
C1656 H1646 0.930 . S
C1656 C1655 1.400 . S
C1656 C1659 1.386 . S
H1657 C1673 0.930 . S
H1658 C1674 0.931 . S
C1659 H1647 0.929 . S
C1659 C1653 1.390 . S
C1659 C1656 1.386 . S
C1660 C1655 1.490 1_554 S
C1660 C1662 1.395 . S
C1660 C1663 1.403 . S
H1661 C1667 0.930 . S
C1662 H1648 0.930 . S
C1662 C1660 1.395 . S
C1662 C1665 1.403 . S
C1663 C1660 1.403 . S
C1663 C1664 1.524 . S
C1663 C1667 1.400 . S
C1664 H1649 0.960 . S
C1664 H1650 0.960 . S
C1664 H1651 0.960 . S
C1664 C1663 1.524 . S
C1665 C1662 1.403 . S
C1665 C1666 1.392 . S
C1665 C1669 1.495 . S
C1666 C1665 1.392 . S
C1666 C1667 1.385 . S
C1666 C1668 1.478 . S
C1667 H1661 0.930 . S
C1667 C1663 1.400 . S
C1667 C1666 1.385 . S
C1668 C1666 1.478 . S
C1668 C1670 1.381 . S
C1668 C1674 1.383 . S
C1669 C1665 1.495 . S
C1669 H1675 0.959 . S
C1669 H1676 0.961 . S
C1669 H1677 0.960 . S
C1670 C1668 1.381 . S
C1670 C1671 1.394 . S
C1670 H1678 0.930 . S
C1671 C1670 1.394 . S
C1671 C1672 1.383 . S
C1671 H1679 0.929 . S
C1672 C1671 1.383 . S
C1672 C1673 1.377 . S
C1673 H1657 0.930 . S
C1673 C1672 1.377 . S
C1673 C1674 1.379 . S
C1674 H1658 0.931 . S
C1674 C1668 1.383 . S
C1674 C1673 1.379 . S
H1675 C1669 0.959 . S
H1676 C1669 0.961 . S
H1677 C1669 0.960 . S
H1678 C1670 0.930 . S
H1679 C1671 0.929 . S
H1680 C1688 0.929 . S
H1681 C1690 0.930 . S
H1682 C1692 0.930 . S
H1683 C1695 0.929 . S
H1684 C1698 0.930 . S
H1685 C1700 0.960 . S
H1686 C1700 0.960 . S
H1687 C1700 0.960 . S
C1688 H1680 0.929 . S
C1688 C1689 1.377 . S
C1688 C1690 1.384 . S
C1689 C1688 1.377 . S
C1689 C1695 1.390 . S
C1690 H1681 0.930 . S
C1690 C1688 1.384 . S
C1690 C1691 1.372 . S
C1691 C1690 1.372 . S
C1691 C1692 1.400 . S
C1691 C1696 1.490 . S
C1692 H1682 0.930 . S
C1692 C1691 1.400 . S
C1692 C1695 1.386 . S
H1693 C1709 0.930 . S
H1694 C1710 0.931 . S
C1695 H1683 0.929 . S
C1695 C1689 1.390 . S
C1695 C1692 1.386 . S
C1696 C1691 1.490 . S
C1696 C1698 1.395 . S
C1696 C1699 1.403 . S
H1697 C1703 0.930 . S
C1698 H1684 0.930 . S
C1698 C1696 1.395 . S
C1698 C1701 1.403 . S
C1699 C1696 1.403 . S
C1699 C1700 1.524 . S
C1699 C1703 1.400 . S
C1700 H1685 0.960 . S
C1700 H1686 0.960 . S
C1700 H1687 0.960 . S
C1700 C1699 1.524 . S
C1701 C1698 1.403 . S
C1701 C1702 1.392 . S
C1701 C1705 1.495 . S
C1702 C1701 1.392 . S
C1702 C1703 1.385 . S
C1702 C1704 1.478 . S
C1703 H1697 0.930 . S
C1703 C1699 1.400 . S
C1703 C1702 1.385 . S
C1704 C1702 1.478 . S
C1704 C1706 1.381 . S
C1704 C1710 1.383 . S
C1705 C1701 1.495 . S
C1705 H1711 0.959 . S
C1705 H1712 0.961 . S
C1705 H1713 0.960 . S
C1706 C1704 1.381 . S
C1706 C1707 1.394 . S
C1706 H1714 0.930 . S
C1707 C1706 1.394 . S
C1707 C1708 1.383 . S
C1707 H1715 0.929 . S
C1708 C1707 1.383 . S
C1708 C1709 1.377 . S
C1709 H1693 0.930 . S
C1709 C1708 1.377 . S
C1709 C1710 1.379 . S
C1710 H1694 0.931 . S
C1710 C1704 1.383 . S
C1710 C1709 1.379 . S
H1711 C1705 0.959 . S
H1712 C1705 0.961 . S
H1713 C1705 0.960 . S
H1714 C1706 0.930 . S
H1715 C1707 0.929 . S
H1716 C1724 0.929 . S
H1717 C1726 0.930 . S
H1718 C1728 0.930 . S
H1719 C1731 0.929 . S
H1720 C1734 0.930 . S
H1721 C1736 0.960 . S
H1722 C1736 0.960 . S
H1723 C1736 0.960 . S
C1724 H1716 0.929 . S
C1724 C1725 1.377 . S
C1724 C1726 1.384 . S
C1725 C1724 1.377 . S
C1725 C1731 1.390 . S
C1726 H1717 0.930 . S
C1726 C1724 1.384 . S
C1726 C1727 1.372 . S
C1727 C1726 1.372 . S
C1727 C1728 1.400 . S
C1727 C1732 1.490 1_554 S
C1728 H1718 0.930 . S
C1728 C1727 1.400 . S
C1728 C1731 1.386 . S
H1729 C1745 0.930 . S
H1730 C1746 0.931 . S
C1731 H1719 0.929 . S
C1731 C1725 1.390 . S
C1731 C1728 1.386 . S
C1732 C1727 1.490 1_556 S
C1732 C1734 1.395 . S
C1732 C1735 1.403 . S
H1733 C1739 0.930 . S
C1734 H1720 0.930 . S
C1734 C1732 1.395 . S
C1734 C1737 1.403 . S
C1735 C1732 1.403 . S
C1735 C1736 1.524 . S
C1735 C1739 1.400 . S
C1736 H1721 0.960 . S
C1736 H1722 0.960 . S
C1736 H1723 0.960 . S
C1736 C1735 1.524 . S
C1737 C1734 1.403 . S
C1737 C1738 1.392 . S
C1737 C1741 1.495 . S
C1738 C1737 1.392 . S
C1738 C1739 1.385 . S
C1738 C1740 1.478 . S
C1739 H1733 0.930 . S
C1739 C1735 1.400 . S
C1739 C1738 1.385 . S
C1740 C1738 1.478 . S
C1740 C1742 1.381 . S
C1740 C1746 1.383 . S
C1741 C1737 1.495 . S
C1741 H1747 0.959 . S
C1741 H1748 0.961 . S
C1741 H1749 0.960 . S
C1742 C1740 1.381 . S
C1742 C1743 1.394 . S
C1742 H1750 0.930 . S
C1743 C1742 1.394 . S
C1743 C1744 1.383 . S
C1743 H1751 0.929 . S
C1744 C1743 1.383 . S
C1744 C1745 1.377 . S
C1745 H1729 0.930 . S
C1745 C1744 1.377 . S
C1745 C1746 1.379 . S
C1746 H1730 0.931 . S
C1746 C1740 1.383 . S
C1746 C1745 1.379 . S
H1747 C1741 0.959 . S
H1748 C1741 0.961 . S
H1749 C1741 0.960 . S
H1750 C1742 0.930 . S
H1751 C1743 0.929 . S
H1752 C1760 0.929 . S
H1753 C1762 0.930 . S
H1754 C1764 0.930 . S
H1755 C1767 0.929 . S
H1756 C1770 0.930 . S
H1757 C1772 0.960 . S
H1758 C1772 0.960 . S
H1759 C1772 0.960 . S
C1760 H1752 0.929 . S
C1760 C1761 1.377 . S
C1760 C1762 1.384 . S
C1761 C1760 1.377 . S
C1761 C1767 1.390 . S
C1762 H1753 0.930 . S
C1762 C1760 1.384 . S
C1762 C1763 1.372 . S
C1763 C1762 1.372 . S
C1763 C1764 1.400 . S
C1763 C1768 1.490 . S
C1764 H1754 0.930 . S
C1764 C1763 1.400 . S
C1764 C1767 1.386 . S
H1765 C1781 0.930 . S
H1766 C1782 0.931 . S
C1767 H1755 0.929 . S
C1767 C1761 1.390 . S
C1767 C1764 1.386 . S
C1768 C1763 1.490 . S
C1768 C1770 1.395 . S
C1768 C1771 1.403 . S
H1769 C1775 0.930 . S
C1770 H1756 0.930 . S
C1770 C1768 1.395 . S
C1770 C1773 1.403 . S
C1771 C1768 1.403 . S
C1771 C1772 1.524 . S
C1771 C1775 1.400 . S
C1772 H1757 0.960 . S
C1772 H1758 0.960 . S
C1772 H1759 0.960 . S
C1772 C1771 1.524 . S
C1773 C1770 1.403 . S
C1773 C1774 1.392 . S
C1773 C1777 1.495 . S
C1774 C1773 1.392 . S
C1774 C1775 1.385 . S
C1774 C1776 1.478 . S
C1775 H1769 0.930 . S
C1775 C1771 1.400 . S
C1775 C1774 1.385 . S
C1776 C1774 1.478 . S
C1776 C1778 1.381 . S
C1776 C1782 1.383 . S
C1777 C1773 1.495 . S
C1777 H1783 0.959 . S
C1777 H1784 0.961 . S
C1777 H1785 0.960 . S
C1778 C1776 1.381 . S
C1778 C1779 1.394 . S
C1778 H1786 0.930 . S
C1779 C1778 1.394 . S
C1779 C1780 1.383 . S
C1779 H1787 0.929 . S
C1780 C1779 1.383 . S
C1780 C1781 1.377 . S
C1781 H1765 0.930 . S
C1781 C1780 1.377 . S
C1781 C1782 1.379 . S
C1782 H1766 0.931 . S
C1782 C1776 1.383 . S
C1782 C1781 1.379 . S
H1783 C1777 0.959 . S
H1784 C1777 0.961 . S
H1785 C1777 0.960 . S
H1786 C1778 0.930 . S
H1787 C1779 0.929 . S
H1788 C1796 0.929 . S
H1789 C1798 0.930 . S
H1790 C1800 0.930 . S
H1791 C1803 0.929 . S
H1792 C1806 0.930 . S
H1793 C1808 0.960 . S
H1794 C1808 0.960 . S
H1795 C1808 0.960 . S
C1796 H1788 0.929 . S
C1796 C1797 1.377 . S
C1796 C1798 1.384 . S
C1797 C1796 1.377 . S
C1797 C1803 1.390 . S
C1798 H1789 0.930 . S
C1798 C1796 1.384 . S
C1798 C1799 1.372 . S
C1799 C1798 1.372 . S
C1799 C1800 1.400 . S
C1799 C1804 1.490 . S
C1800 H1790 0.930 . S
C1800 C1799 1.400 . S
C1800 C1803 1.386 . S
H1801 C1817 0.930 . S
H1802 C1818 0.931 . S
C1803 H1791 0.929 . S
C1803 C1797 1.390 . S
C1803 C1800 1.386 . S
C1804 C1799 1.490 . S
C1804 C1806 1.395 . S
C1804 C1807 1.403 . S
H1805 C1811 0.930 . S
C1806 H1792 0.930 . S
C1806 C1804 1.395 . S
C1806 C1809 1.403 . S
C1807 C1804 1.403 . S
C1807 C1808 1.524 . S
C1807 C1811 1.400 . S
C1808 H1793 0.960 . S
C1808 H1794 0.960 . S
C1808 H1795 0.960 . S
C1808 C1807 1.524 . S
C1809 C1806 1.403 . S
C1809 C1810 1.392 . S
C1809 C1813 1.495 . S
C1810 C1809 1.392 . S
C1810 C1811 1.385 . S
C1810 C1812 1.478 1_655 S
C1811 H1805 0.930 . S
C1811 C1807 1.400 . S
C1811 C1810 1.385 . S
C1812 C1810 1.478 1_455 S
C1812 C1814 1.381 . S
C1812 C1818 1.383 . S
C1813 C1809 1.495 . S
C1813 H1819 0.959 . S
C1813 H1820 0.961 . S
C1813 H1821 0.960 . S
C1814 C1812 1.381 . S
C1814 C1815 1.394 . S
C1814 H1822 0.930 . S
C1815 C1814 1.394 . S
C1815 C1816 1.383 . S
C1815 H1823 0.929 . S
C1816 C1815 1.383 . S
C1816 C1817 1.377 . S
C1817 H1801 0.930 . S
C1817 C1816 1.377 . S
C1817 C1818 1.379 . S
C1818 H1802 0.931 . S
C1818 C1812 1.383 . S
C1818 C1817 1.379 . S
H1819 C1813 0.959 . S
H1820 C1813 0.961 . S
H1821 C1813 0.960 . S
H1822 C1814 0.930 . S
H1823 C1815 0.929 . S
H1824 C1832 0.929 . S
H1825 C1834 0.930 . S
H1826 C1836 0.930 . S
H1827 C1839 0.929 . S
H1828 C1842 0.930 . S
H1829 C1844 0.960 . S
H1830 C1844 0.960 . S
H1831 C1844 0.960 . S
C1832 H1824 0.929 . S
C1832 C1833 1.377 . S
C1832 C1834 1.384 . S
C1833 C1832 1.377 . S
C1833 C1839 1.390 . S
C1834 H1825 0.930 . S
C1834 C1832 1.384 . S
C1834 C1835 1.372 . S
C1835 C1834 1.372 . S
C1835 C1836 1.400 . S
C1835 C1840 1.490 . S
C1836 H1826 0.930 . S
C1836 C1835 1.400 . S
C1836 C1839 1.386 . S
H1837 C1853 0.930 . S
H1838 C1854 0.931 . S
C1839 H1827 0.929 . S
C1839 C1833 1.390 . S
C1839 C1836 1.386 . S
C1840 C1835 1.490 . S
C1840 C1842 1.395 . S
C1840 C1843 1.403 . S
H1841 C1847 0.930 . S
C1842 H1828 0.930 . S
C1842 C1840 1.395 . S
C1842 C1845 1.403 . S
C1843 C1840 1.403 . S
C1843 C1844 1.524 . S
C1843 C1847 1.400 . S
C1844 H1829 0.960 . S
C1844 H1830 0.960 . S
C1844 H1831 0.960 . S
C1844 C1843 1.524 . S
C1845 C1842 1.403 . S
C1845 C1846 1.392 . S
C1845 C1849 1.495 . S
C1846 C1845 1.392 . S
C1846 C1847 1.385 . S
C1846 C1848 1.478 1_455 S
C1847 H1841 0.930 . S
C1847 C1843 1.400 . S
C1847 C1846 1.385 . S
C1848 C1846 1.478 1_655 S
C1848 C1850 1.381 . S
C1848 C1854 1.383 . S
C1849 C1845 1.495 . S
C1849 H1855 0.959 . S
C1849 H1856 0.961 . S
C1849 H1857 0.960 . S
C1850 C1848 1.381 . S
C1850 C1851 1.394 . S
C1850 H1858 0.930 . S
C1851 C1850 1.394 . S
C1851 C1852 1.383 . S
C1851 H1859 0.929 . S
C1852 C1851 1.383 . S
C1852 C1853 1.377 . S
C1853 H1837 0.930 . S
C1853 C1852 1.377 . S
C1853 C1854 1.379 . S
C1854 H1838 0.931 . S
C1854 C1848 1.383 . S
C1854 C1853 1.379 . S
H1855 C1849 0.959 . S
H1856 C1849 0.961 . S
H1857 C1849 0.960 . S
H1858 C1850 0.930 . S
H1859 C1851 0.929 . S
H1860 C1868 0.929 . S
H1861 C1870 0.930 . S
H1862 C1872 0.930 . S
H1863 C1875 0.929 . S
H1864 C1878 0.930 . S
H1865 C1880 0.960 . S
H1866 C1880 0.960 . S
H1867 C1880 0.960 . S
C1868 H1860 0.929 . S
C1868 C1869 1.377 . S
C1868 C1870 1.384 . S
C1869 C1868 1.377 . S
C1869 C1875 1.390 . S
C1870 H1861 0.930 . S
C1870 C1868 1.384 . S
C1870 C1871 1.372 . S
C1871 C1870 1.372 . S
C1871 C1872 1.400 . S
C1871 C1876 1.490 . S
C1872 H1862 0.930 . S
C1872 C1871 1.400 . S
C1872 C1875 1.386 . S
H1873 C1889 0.930 . S
H1874 C1890 0.931 . S
C1875 H1863 0.929 . S
C1875 C1869 1.390 . S
C1875 C1872 1.386 . S
C1876 C1871 1.490 . S
C1876 C1878 1.395 . S
C1876 C1879 1.403 . S
H1877 C1883 0.930 . S
C1878 H1864 0.930 . S
C1878 C1876 1.395 . S
C1878 C1881 1.403 . S
C1879 C1876 1.403 . S
C1879 C1880 1.524 . S
C1879 C1883 1.400 . S
C1880 H1865 0.960 . S
C1880 H1866 0.960 . S
C1880 H1867 0.960 . S
C1880 C1879 1.524 . S
C1881 C1878 1.403 . S
C1881 C1882 1.392 . S
C1881 C1885 1.495 . S
C1882 C1881 1.392 . S
C1882 C1883 1.385 . S
C1882 C1884 1.478 . S
C1883 H1877 0.930 . S
C1883 C1879 1.400 . S
C1883 C1882 1.385 . S
C1884 C1882 1.478 . S
C1884 C1886 1.381 . S
C1884 C1890 1.383 . S
C1885 C1881 1.495 . S
C1885 H1891 0.959 . S
C1885 H1892 0.961 . S
C1885 H1893 0.960 . S
C1886 C1884 1.381 . S
C1886 C1887 1.394 . S
C1886 H1894 0.930 . S
C1887 C1886 1.394 . S
C1887 C1888 1.383 . S
C1887 H1895 0.929 . S
C1888 C1887 1.383 . S
C1888 C1889 1.377 . S
C1889 H1873 0.930 . S
C1889 C1888 1.377 . S
C1889 C1890 1.379 . S
C1890 H1874 0.931 . S
C1890 C1884 1.383 . S
C1890 C1889 1.379 . S
H1891 C1885 0.959 . S
H1892 C1885 0.961 . S
H1893 C1885 0.960 . S
H1894 C1886 0.930 . S
H1895 C1887 0.929 . S
H1896 C1904 0.929 . S
H1897 C1906 0.930 . S
H1898 C1908 0.930 . S
H1899 C1911 0.929 . S
H1900 C1914 0.930 . S
H1901 C1916 0.960 . S
H1902 C1916 0.960 . S
H1903 C1916 0.960 . S
C1904 H1896 0.929 . S
C1904 C1905 1.377 . S
C1904 C1906 1.384 . S
C1905 C1904 1.377 . S
C1905 C1911 1.390 . S
C1906 H1897 0.930 . S
C1906 C1904 1.384 . S
C1906 C1907 1.372 . S
C1907 C1906 1.372 . S
C1907 C1908 1.400 . S
C1907 C1912 1.490 . S
C1908 H1898 0.930 . S
C1908 C1907 1.400 . S
C1908 C1911 1.386 . S
H1909 C1925 0.930 . S
H1910 C1926 0.931 . S
C1911 H1899 0.929 . S
C1911 C1905 1.390 . S
C1911 C1908 1.386 . S
C1912 C1907 1.490 . S
C1912 C1914 1.395 . S
C1912 C1915 1.403 . S
H1913 C1919 0.930 . S
C1914 H1900 0.930 . S
C1914 C1912 1.395 . S
C1914 C1917 1.403 . S
C1915 C1912 1.403 . S
C1915 C1916 1.524 . S
C1915 C1919 1.400 . S
C1916 H1901 0.960 . S
C1916 H1902 0.960 . S
C1916 H1903 0.960 . S
C1916 C1915 1.524 . S
C1917 C1914 1.403 . S
C1917 C1918 1.392 . S
C1917 C1921 1.495 . S
C1918 C1917 1.392 . S
C1918 C1919 1.385 . S
C1918 C1920 1.478 . S
C1919 H1913 0.930 . S
C1919 C1915 1.400 . S
C1919 C1918 1.385 . S
C1920 C1918 1.478 . S
C1920 C1922 1.381 . S
C1920 C1926 1.383 . S
C1921 C1917 1.495 . S
C1921 H1927 0.959 . S
C1921 H1928 0.961 . S
C1921 H1929 0.960 . S
C1922 C1920 1.381 . S
C1922 C1923 1.394 . S
C1922 H1930 0.930 . S
C1923 C1922 1.394 . S
C1923 C1924 1.383 . S
C1923 H1931 0.929 . S
C1924 C1923 1.383 . S
C1924 C1925 1.377 . S
C1925 H1909 0.930 . S
C1925 C1924 1.377 . S
C1925 C1926 1.379 . S
C1926 H1910 0.931 . S
C1926 C1920 1.383 . S
C1926 C1925 1.379 . S
H1927 C1921 0.959 . S
H1928 C1921 0.961 . S
H1929 C1921 0.960 . S
H1930 C1922 0.930 . S
H1931 C1923 0.929 . S
H1932 C1940 0.929 . S
H1933 C1942 0.930 . S
H1934 C1944 0.930 . S
H1935 C1947 0.929 . S
H1936 C1950 0.930 . S
H1937 C1952 0.960 . S
H1938 C1952 0.960 . S
H1939 C1952 0.960 . S
C1940 H1932 0.929 . S
C1940 C1941 1.377 . S
C1940 C1942 1.384 . S
C1941 C1940 1.377 . S
C1941 C1947 1.390 . S
C1942 H1933 0.930 . S
C1942 C1940 1.384 . S
C1942 C1943 1.372 . S
C1943 C1942 1.372 . S
C1943 C1944 1.400 . S
C1943 C1948 1.490 . S
C1944 H1934 0.930 . S
C1944 C1943 1.400 . S
C1944 C1947 1.386 . S
H1945 C1961 0.930 . S
H1946 C1962 0.950 . S
C1947 H1935 0.929 . S
C1947 C1941 1.390 . S
C1947 C1944 1.386 . S
C1948 C1943 1.490 . S
C1948 C1950 1.395 . S
C1948 C1951 1.403 . S
H1949 C1955 0.930 . S
C1950 H1936 0.930 . S
C1950 C1948 1.395 . S
C1950 C1953 1.403 . S
C1951 C1948 1.403 . S
C1951 C1952 1.524 . S
C1951 C1955 1.400 . S
C1952 H1937 0.960 . S
C1952 H1938 0.960 . S
C1952 H1939 0.960 . S
C1952 C1951 1.524 . S
C1953 C1950 1.403 . S
C1953 C1954 1.392 . S
C1953 C1957 1.495 . S
C1954 C1953 1.392 . S
C1954 C1955 1.385 . S
C1954 C1956 1.478 1_565 S
C1955 H1949 0.930 . S
C1955 C1951 1.400 . S
C1955 C1954 1.385 . S
C1956 C1954 1.478 1_545 S
C1956 C1958 1.381 . S
C1956 C1962 1.383 . S
C1957 C1953 1.495 . S
C1957 H1963 0.959 . S
C1957 H1964 0.961 . S
C1957 H1965 0.960 . S
C1958 C1956 1.381 . S
C1958 C1959 1.394 . S
C1958 H1966 0.930 . S
C1959 C1958 1.394 . S
C1959 C1960 1.383 . S
C1959 H1967 0.929 . S
C1960 C1959 1.383 . S
C1960 C1961 1.377 . S
C1961 H1945 0.930 . S
C1961 C1960 1.377 . S
C1961 C1962 1.379 . S
C1962 H1946 0.950 . S
C1962 C1956 1.383 . S
C1962 C1961 1.379 . S
H1963 C1957 0.959 . S
H1964 C1957 0.961 . S
H1965 C1957 0.960 . S
H1966 C1958 0.930 . S
H1967 C1959 0.929 . S
H1968 C1976 0.929 . S
H1969 C1978 0.930 . S
H1970 C1980 0.930 . S
H1971 C1983 0.929 . S
H1972 C1986 0.930 . S
H1973 C1988 0.960 . S
H1974 C1988 0.960 . S
H1975 C1988 0.960 . S
C1976 H1968 0.929 . S
C1976 C1977 1.377 . S
C1976 C1978 1.384 . S
C1977 C1976 1.377 . S
C1977 C1983 1.390 . S
C1978 H1969 0.930 . S
C1978 C1976 1.384 . S
C1978 C1979 1.372 . S
C1979 C1978 1.372 . S
C1979 C1980 1.400 . S
C1979 C1984 1.490 1_565 S
C1980 H1970 0.930 . S
C1980 C1979 1.400 . S
C1980 C1983 1.386 . S
H1981 C1997 0.930 . S
H1982 C1998 0.931 . S
C1983 H1971 0.929 . S
C1983 C1977 1.390 . S
C1983 C1980 1.386 . S
C1984 C1979 1.490 1_545 S
C1984 C1986 1.395 . S
C1984 C1987 1.403 . S
H1985 C1991 0.930 . S
C1986 H1972 0.930 . S
C1986 C1984 1.395 . S
C1986 C1989 1.403 . S
C1987 C1984 1.403 . S
C1987 C1988 1.524 . S
C1987 C1991 1.400 . S
C1988 H1973 0.960 . S
C1988 H1974 0.960 . S
C1988 H1975 0.960 . S
C1988 C1987 1.524 . S
C1989 C1986 1.403 . S
C1989 C1990 1.392 . S
C1989 C1993 1.495 . S
C1990 C1989 1.392 . S
C1990 C1991 1.385 . S
C1990 C1992 1.478 . S
C1991 H1985 0.930 . S
C1991 C1987 1.400 . S
C1991 C1990 1.385 . S
C1992 C1990 1.478 . S
C1992 C1994 1.381 . S
C1992 C1998 1.383 . S
C1993 C1989 1.495 . S
C1993 H1999 0.959 . S
C1993 H2000 0.961 . S
C1993 H2001 0.960 . S
C1994 C1992 1.381 . S
C1994 C1995 1.394 . S
C1994 H2002 0.930 . S
C1995 C1994 1.394 . S
C1995 C1996 1.383 . S
C1995 H2003 0.929 . S
C1996 C1995 1.383 . S
C1996 C1997 1.377 . S
C1997 H1981 0.930 . S
C1997 C1996 1.377 . S
C1997 C1998 1.379 . S
C1998 H1982 0.931 . S
C1998 C1992 1.383 . S
C1998 C1997 1.379 . S
H1999 C1993 0.959 . S
H2000 C1993 0.961 . S
H2001 C1993 0.960 . S
H2002 C1994 0.930 . S
H2003 C1995 0.929 . S
H2004 C2012 0.929 . S
H2005 C2014 0.930 . S
H2006 C2016 0.930 . S
H2007 C2019 0.929 . S
H2008 C2022 0.930 . S
H2009 C2024 0.960 . S
H2010 C2024 0.960 . S
H2011 C2024 0.960 . S
C2012 H2004 0.929 . S
C2012 C2013 1.377 . S
C2012 C2014 1.384 . S
C2013 C2012 1.377 . S
C2013 C2019 1.390 . S
C2014 H2005 0.930 . S
C2014 C2012 1.384 . S
C2014 C2015 1.372 . S
C2015 C2014 1.372 . S
C2015 C2016 1.400 . S
C2015 C2020 1.490 . S
C2016 H2006 0.930 . S
C2016 C2015 1.400 . S
C2016 C2019 1.386 . S
H2017 C2033 0.930 . S
H2018 C2034 0.931 . S
C2019 H2007 0.929 . S
C2019 C2013 1.390 . S
C2019 C2016 1.386 . S
C2020 C2015 1.490 . S
C2020 C2022 1.395 . S
C2020 C2023 1.403 . S
H2021 C2027 0.930 . S
C2022 H2008 0.930 . S
C2022 C2020 1.395 . S
C2022 C2025 1.403 . S
C2023 C2020 1.403 . S
C2023 C2024 1.524 . S
C2023 C2027 1.400 . S
C2024 H2009 0.960 . S
C2024 H2010 0.960 . S
C2024 H2011 0.960 . S
C2024 C2023 1.524 . S
C2025 C2022 1.403 . S
C2025 C2026 1.392 . S
C2025 C2029 1.495 . S
C2026 C2025 1.392 . S
C2026 C2027 1.385 . S
C2026 C2028 1.478 . S
C2027 H2021 0.930 . S
C2027 C2023 1.400 . S
C2027 C2026 1.385 . S
C2028 C2026 1.478 . S
C2028 C2030 1.381 . S
C2028 C2034 1.383 . S
C2029 C2025 1.495 . S
C2029 H2035 0.959 . S
C2029 H2036 0.961 . S
C2029 H2037 0.960 . S
C2030 C2028 1.381 . S
C2030 C2031 1.394 . S
C2030 H2038 0.930 . S
C2031 C2030 1.394 . S
C2031 C2032 1.383 . S
C2031 H2039 0.929 . S
C2032 C2031 1.383 . S
C2032 C2033 1.377 . S
C2033 H2017 0.930 . S
C2033 C2032 1.377 . S
C2033 C2034 1.379 . S
C2034 H2018 0.931 . S
C2034 C2028 1.383 . S
C2034 C2033 1.379 . S
H2035 C2029 0.959 . S
H2036 C2029 0.961 . S
H2037 C2029 0.960 . S
H2038 C2030 0.930 . S
H2039 C2031 0.929 . S
C321 C107 1.034 . S
C340 C5 1.041 . S
C357 C16 1.046 . S
C376 C146 1.030 . S
C393 C31 1.046 . S
C412 C120 1.032 . S
C429 C44 1.045 . S
C448 C135 1.055 . S
C465 C55 1.050 . S
C484 C3 1.036 . S
C501 C18 1.042 . S
C520 C68 1.037 . S
C537 C83 1.046 . S
C556 C29 1.029 . S
C573 C42 1.042 . S
C592 C96 1.040 . S
C609 C57 1.031 . S
C628 C109 1.054 . S
C645 C81 1.036 . S
C664 C122 1.038 . S
C681 C133 1.049 . S
C700 C94 1.046 . S
C717 C70 1.042 . S
C736 C148 1.034 . S
C753 C263 1.034 . S
C772 C161 1.058 . S
C789 C172 1.045 . S
C808 C304 1.050 . S
C825 C187 1.045 . S
C844 C276 1.039 . S
C861 C289 1.034 . S
C880 C200 1.037 . S
C897 C211 1.045 . S
C916 C159 1.041 . S
C933 C174 1.042 . S
C952 C224 1.047 . S
C969 C185 1.035 . S
C988 C239 1.036 . S
C1005 C252 1.050 . S
C1024 C198 1.043 . S
C1041 C265 1.045 . S
C1060 C213 1.047 . S
C1077 C237 1.033 . S
C1096 C278 1.039 . S
C1113 C250 1.038 . S
C1132 C291 1.057 . S
C1149 C302 1.050 . S
C1168 C226 1.014 . S
C1185 C296 1.475 . S
C1204 C4 1.467 . S
C1221 C283 1.474 . S
C1240 C23 1.468 . S
C1257 C303 1.473 . S
C1276 C30 1.475 . S
C1293 C43 1.473 . S
C1312 C270 1.473 . S
C1329 C62 1.474 . S
C1348 C173 1.467 . S
C1365 C166 1.473 . S
C1384 C75 1.475 . S
C1401 C205 1.474 . S
C1420 C82 1.475 . S
C1437 C192 1.475 . S
C1456 C95 1.471 . S
C1473 C108 1.475 . S
C1492 C244 1.467 . S
C1509 C212 1.474 . S
C1528 C121 1.473 . S
C1545 C225 1.473 . S
C1564 C140 1.475 . S
C1581 C257 1.473 . S
C1600 C147 1.474 . S
C1617 C134 1.475 . S
C1636 C160 1.472 . S
C1653 C127 1.474 . S
C1672 C179 1.469 . S
C1689 C186 1.474 . S
C1708 C153 1.468 . S
C1725 C114 1.473 . S
C1744 C199 1.468 . S
C1761 C218 1.475 . S
C1780 C17 1.475 . S
C1797 C231 1.473 . S
C1816 C10 1.467 . S
C1833 C238 1.474 . S
C1852 C49 1.467 . S
C1869 C251 1.475 . S
C1888 C36 1.474 . S
C1905 C264 1.473 . S
C1924 C88 1.467 . S
C1941 C277 1.475 . S
C1960 C56 1.473 . S
C1977 C69 1.473 . S
C1996 C290 1.467 . S
C2013 C309 1.475 . S
C2032 C101 1.475 . S
