# Generated by pormake.
# Topology uma, (4)-cn, num edge types: 1
# Building blocks:
#     Node 0, Type 0, BuildingBlock: NAWXER_clean_sbu_0, # of connection points: 4
#     Node 1, Type 0, BuildingBlock: NAWXER_clean_sbu_0, # of connection points: 4
#     Node 2, Type 0, BuildingBlock: NAWXER_clean_sbu_0, # of connection points: 4
#     Node 3, Type 0, BuildingBlock: NAWXER_clean_sbu_0, # of connection points: 4
#     Node 4, Type 0, BuildingBlock: NAWXER_clean_sbu_0, # of connection points: 4
#     Node 5, Type 0, BuildingBlock: NAWXER_clean_sbu_0, # of connection points: 4
#     Node 6, Type 0, BuildingBlock: NAWXER_clean_sbu_0, # of connection points: 4
#     Node 7, Type 0, BuildingBlock: NAWXER_clean_sbu_0, # of connection points: 4
#     Node 8, Type 0, BuildingBlock: NAWXER_clean_sbu_0, # of connection points: 4
#     Node 9, Type 0, BuildingBlock: NAWXER_clean_sbu_0, # of connection points: 4
#     Node 10, Type 0, BuildingBlock: NAWXER_clean_sbu_0, # of connection points: 4
#     Node 11, Type 0, BuildingBlock: NAWXER_clean_sbu_0, # of connection points: 4
#     Node 12, Type 0, BuildingBlock: NAWXER_clean_sbu_0, # of connection points: 4
#     Node 13, Type 0, BuildingBlock: NAWXER_clean_sbu_0, # of connection points: 4
#     Node 14, Type 0, BuildingBlock: NAWXER_clean_sbu_0, # of connection points: 4
#     Node 15, Type 0, BuildingBlock: NAWXER_clean_sbu_0, # of connection points: 4
#     Node 16, Type 0, BuildingBlock: NAWXER_clean_sbu_0, # of connection points: 4
#     Node 17, Type 0, BuildingBlock: NAWXER_clean_sbu_0, # of connection points: 4
#     Node 18, Type 0, BuildingBlock: NAWXER_clean_sbu_0, # of connection points: 4
#     Node 19, Type 0, BuildingBlock: NAWXER_clean_sbu_0, # of connection points: 4
#     Node 20, Type 0, BuildingBlock: NAWXER_clean_sbu_0, # of connection points: 4
#     Node 21, Type 0, BuildingBlock: NAWXER_clean_sbu_0, # of connection points: 4
#     Node 22, Type 0, BuildingBlock: NAWXER_clean_sbu_0, # of connection points: 4
#     Node 23, Type 0, BuildingBlock: NAWXER_clean_sbu_0, # of connection points: 4
#     Node 24, Type 0, BuildingBlock: NAWXER_clean_sbu_0, # of connection points: 4
#     Node 25, Type 0, BuildingBlock: NAWXER_clean_sbu_0, # of connection points: 4
#     Node 26, Type 0, BuildingBlock: NAWXER_clean_sbu_0, # of connection points: 4
#     Node 27, Type 0, BuildingBlock: NAWXER_clean_sbu_0, # of connection points: 4
#     Node 28, Type 0, BuildingBlock: NAWXER_clean_sbu_0, # of connection points: 4
#     Node 29, Type 0, BuildingBlock: NAWXER_clean_sbu_0, # of connection points: 4
#     Node 30, Type 0, BuildingBlock: NAWXER_clean_sbu_0, # of connection points: 4
#     Node 31, Type 0, BuildingBlock: NAWXER_clean_sbu_0, # of connection points: 4
#     Node 32, Type 0, BuildingBlock: NAWXER_clean_sbu_0, # of connection points: 4
#     Node 33, Type 0, BuildingBlock: NAWXER_clean_sbu_0, # of connection points: 4
#     Node 34, Type 0, BuildingBlock: NAWXER_clean_sbu_0, # of connection points: 4
#     Node 35, Type 0, BuildingBlock: NAWXER_clean_sbu_0, # of connection points: 4
#     Edge 36, Type (0, 0), BuildingBlock: UVAHIK_clean_linker_0, # of connection points: 2
#     Edge 37, Type (0, 0), BuildingBlock: UVAHIK_clean_linker_0, # of connection points: 2
#     Edge 38, Type (0, 0), BuildingBlock: UVAHIK_clean_linker_0, # of connection points: 2
#     Edge 39, Type (0, 0), BuildingBlock: UVAHIK_clean_linker_0, # of connection points: 2
#     Edge 40, Type (0, 0), BuildingBlock: UVAHIK_clean_linker_0, # of connection points: 2
#     Edge 41, Type (0, 0), BuildingBlock: UVAHIK_clean_linker_0, # of connection points: 2
#     Edge 42, Type (0, 0), BuildingBlock: UVAHIK_clean_linker_0, # of connection points: 2
#     Edge 43, Type (0, 0), BuildingBlock: UVAHIK_clean_linker_0, # of connection points: 2
#     Edge 44, Type (0, 0), BuildingBlock: UVAHIK_clean_linker_0, # of connection points: 2
#     Edge 45, Type (0, 0), BuildingBlock: UVAHIK_clean_linker_0, # of connection points: 2
#     Edge 46, Type (0, 0), BuildingBlock: UVAHIK_clean_linker_0, # of connection points: 2
#     Edge 47, Type (0, 0), BuildingBlock: UVAHIK_clean_linker_0, # of connection points: 2
#     Edge 48, Type (0, 0), BuildingBlock: UVAHIK_clean_linker_0, # of connection points: 2
#     Edge 49, Type (0, 0), BuildingBlock: UVAHIK_clean_linker_0, # of connection points: 2
#     Edge 50, Type (0, 0), BuildingBlock: UVAHIK_clean_linker_0, # of connection points: 2
#     Edge 51, Type (0, 0), BuildingBlock: UVAHIK_clean_linker_0, # of connection points: 2
#     Edge 52, Type (0, 0), BuildingBlock: UVAHIK_clean_linker_0, # of connection points: 2
#     Edge 53, Type (0, 0), BuildingBlock: UVAHIK_clean_linker_0, # of connection points: 2
#     Edge 54, Type (0, 0), BuildingBlock: UVAHIK_clean_linker_0, # of connection points: 2
#     Edge 55, Type (0, 0), BuildingBlock: UVAHIK_clean_linker_0, # of connection points: 2
#     Edge 56, Type (0, 0), BuildingBlock: UVAHIK_clean_linker_0, # of connection points: 2
#     Edge 57, Type (0, 0), BuildingBlock: UVAHIK_clean_linker_0, # of connection points: 2
#     Edge 58, Type (0, 0), BuildingBlock: UVAHIK_clean_linker_0, # of connection points: 2
#     Edge 59, Type (0, 0), BuildingBlock: UVAHIK_clean_linker_0, # of connection points: 2
#     Edge 60, Type (0, 0), BuildingBlock: UVAHIK_clean_linker_0, # of connection points: 2
#     Edge 61, Type (0, 0), BuildingBlock: UVAHIK_clean_linker_0, # of connection points: 2
#     Edge 62, Type (0, 0), BuildingBlock: UVAHIK_clean_linker_0, # of connection points: 2
#     Edge 63, Type (0, 0), BuildingBlock: UVAHIK_clean_linker_0, # of connection points: 2
#     Edge 64, Type (0, 0), BuildingBlock: UVAHIK_clean_linker_0, # of connection points: 2
#     Edge 65, Type (0, 0), BuildingBlock: UVAHIK_clean_linker_0, # of connection points: 2
#     Edge 66, Type (0, 0), BuildingBlock: UVAHIK_clean_linker_0, # of connection points: 2
#     Edge 67, Type (0, 0), BuildingBlock: UVAHIK_clean_linker_0, # of connection points: 2
#     Edge 68, Type (0, 0), BuildingBlock: UVAHIK_clean_linker_0, # of connection points: 2
#     Edge 69, Type (0, 0), BuildingBlock: UVAHIK_clean_linker_0, # of connection points: 2
#     Edge 70, Type (0, 0), BuildingBlock: UVAHIK_clean_linker_0, # of connection points: 2
#     Edge 71, Type (0, 0), BuildingBlock: UVAHIK_clean_linker_0, # of connection points: 2
#     Edge 72, Type (0, 0), BuildingBlock: UVAHIK_clean_linker_0, # of connection points: 2
#     Edge 73, Type (0, 0), BuildingBlock: UVAHIK_clean_linker_0, # of connection points: 2
#     Edge 74, Type (0, 0), BuildingBlock: UVAHIK_clean_linker_0, # of connection points: 2
#     Edge 75, Type (0, 0), BuildingBlock: UVAHIK_clean_linker_0, # of connection points: 2
#     Edge 76, Type (0, 0), BuildingBlock: UVAHIK_clean_linker_0, # of connection points: 2
#     Edge 77, Type (0, 0), BuildingBlock: UVAHIK_clean_linker_0, # of connection points: 2
#     Edge 78, Type (0, 0), BuildingBlock: UVAHIK_clean_linker_0, # of connection points: 2
#     Edge 79, Type (0, 0), BuildingBlock: UVAHIK_clean_linker_0, # of connection points: 2
#     Edge 80, Type (0, 0), BuildingBlock: UVAHIK_clean_linker_0, # of connection points: 2
#     Edge 81, Type (0, 0), BuildingBlock: UVAHIK_clean_linker_0, # of connection points: 2
#     Edge 82, Type (0, 0), BuildingBlock: UVAHIK_clean_linker_0, # of connection points: 2
#     Edge 83, Type (0, 0), BuildingBlock: UVAHIK_clean_linker_0, # of connection points: 2
#     Edge 84, Type (0, 0), BuildingBlock: UVAHIK_clean_linker_0, # of connection points: 2
#     Edge 85, Type (0, 0), BuildingBlock: UVAHIK_clean_linker_0, # of connection points: 2
#     Edge 86, Type (0, 0), BuildingBlock: UVAHIK_clean_linker_0, # of connection points: 2
#     Edge 87, Type (0, 0), BuildingBlock: UVAHIK_clean_linker_0, # of connection points: 2
#     Edge 88, Type (0, 0), BuildingBlock: UVAHIK_clean_linker_0, # of connection points: 2
#     Edge 89, Type (0, 0), BuildingBlock: UVAHIK_clean_linker_0, # of connection points: 2
#     Edge 90, Type (0, 0), BuildingBlock: UVAHIK_clean_linker_0, # of connection points: 2
#     Edge 91, Type (0, 0), BuildingBlock: UVAHIK_clean_linker_0, # of connection points: 2
#     Edge 92, Type (0, 0), BuildingBlock: UVAHIK_clean_linker_0, # of connection points: 2
#     Edge 93, Type (0, 0), BuildingBlock: UVAHIK_clean_linker_0, # of connection points: 2
#     Edge 94, Type (0, 0), BuildingBlock: UVAHIK_clean_linker_0, # of connection points: 2
#     Edge 95, Type (0, 0), BuildingBlock: UVAHIK_clean_linker_0, # of connection points: 2
#     Edge 96, Type (0, 0), BuildingBlock: UVAHIK_clean_linker_0, # of connection points: 2
#     Edge 97, Type (0, 0), BuildingBlock: UVAHIK_clean_linker_0, # of connection points: 2
#     Edge 98, Type (0, 0), BuildingBlock: UVAHIK_clean_linker_0, # of connection points: 2
#     Edge 99, Type (0, 0), BuildingBlock: UVAHIK_clean_linker_0, # of connection points: 2
#     Edge 100, Type (0, 0), BuildingBlock: UVAHIK_clean_linker_0, # of connection points: 2
#     Edge 101, Type (0, 0), BuildingBlock: UVAHIK_clean_linker_0, # of connection points: 2
#     Edge 102, Type (0, 0), BuildingBlock: UVAHIK_clean_linker_0, # of connection points: 2
#     Edge 103, Type (0, 0), BuildingBlock: UVAHIK_clean_linker_0, # of connection points: 2
#     Edge 104, Type (0, 0), BuildingBlock: UVAHIK_clean_linker_0, # of connection points: 2
#     Edge 105, Type (0, 0), BuildingBlock: UVAHIK_clean_linker_0, # of connection points: 2
#     Edge 106, Type (0, 0), BuildingBlock: UVAHIK_clean_linker_0, # of connection points: 2
#     Edge 107, Type (0, 0), BuildingBlock: UVAHIK_clean_linker_0, # of connection points: 2
# Relax obj value: 0.097
# Max RMSD: 0.105
# Mean RMSD: 0.098
data_MOF--net-uma--node1-NAWXER_clean_sbu_0--edge1-UVAHIK_clean_linker_0
_symmetry_space_group_name_H-M    P1
_symmetry_Int_Tables_number       1
_symmetry_cell_setting            triclinic
loop_
_symmetry_equiv_pos_as_xyz
'x, y, z'
_cell_length_a     101.05171
_cell_length_b     101.08908
_cell_length_c     51.90966
_cell_angle_alpha  90.02845
_cell_angle_beta   89.971422
_cell_angle_gamma 120.00242
loop_
_atom_site_label
_atom_site_type_symbol
_atom_site_fract_x
_atom_site_fract_y
_atom_site_fract_z
_atom_type_partial_charge
C0 C 0.10401 0.38736 0.05232 0.0
C1 C 0.10037 0.37065 0.96289 0.0
O2 O 0.10922 0.39844 0.03614 0.0
Zn3 Zn 0.11228 0.4018 0.99504 0.0
O4 O 0.09957 0.37386 0.04444 0.0
Zn5 Zn 0.10301 0.3787 0.00815 0.0
O6 O 0.12728 0.3911 0.00465 0.0
O7 O 0.13456 0.41438 0.991 0.0
O8 O 0.09678 0.36246 0.98308 0.0
O9 O 0.10613 0.38514 0.96508 0.0
O10 O 0.09833 0.40976 0.98802 0.0
O11 O 0.08685 0.38607 0.00256 0.0
C12 C 0.13799 0.40438 0.99792 0.0
C13 C 0.0862 0.39783 0.99538 0.0
C14 C 0.64037 0.73046 0.96088 0.0
C15 C 0.62245 0.71263 0.04851 0.0
O16 O 0.62582 0.72202 0.96277 0.0
Zn17 Zn 0.60885 0.71052 0.99176 0.0
O18 O 0.64858 0.73396 0.98108 0.0
Zn19 Zn 0.63209 0.72291 0.00549 0.0
O20 O 0.62415 0.69983 0.99404 0.0
O21 O 0.60001 0.68904 0.98164 0.0
O22 O 0.63622 0.72176 0.04191 0.0
O23 O 0.6118 0.70826 0.03172 0.0
O24 O 0.59714 0.72118 0.99073 0.0
O25 O 0.62055 0.73576 0.00529 0.0
C26 C 0.61198 0.68817 0.98577 0.0
C27 C 0.60748 0.73404 0.99925 0.0
C28 C 0.28035 0.87871 0.00201 0.0
C29 C 0.32635 0.92902 0.99036 0.0
O30 O 0.27818 0.88992 0.00687 0.0
Zn31 Zn 0.29088 0.91435 0.00619 0.0
O32 O 0.29353 0.88146 0.99494 0.0
Zn33 Zn 0.30386 0.90376 0.99584 0.0
O34 O 0.30444 0.90913 0.03591 0.0
O35 O 0.29074 0.92037 0.0417 0.0
O36 O 0.32567 0.91615 0.98812 0.0
O37 O 0.31437 0.92962 0.99644 0.0
O38 O 0.28035 0.91919 0.97996 0.0
O39 O 0.29382 0.90934 0.96403 0.0
C40 C 0.29935 0.91569 0.05082 0.0
C41 C 0.28515 0.9151 0.96058 0.0
C42 C 0.40162 0.08427 0.00545 0.0
C43 C 0.40955 0.13653 1.00139 0.0
O44 O 0.39 0.08521 0.99828 0.0
Zn45 Zn 0.38318 0.10182 0.99212 0.0
O46 O 0.41378 0.09629 0.01247 0.0
Zn47 Zn 0.40623 0.11052 0.00534 0.0
O48 O 0.38964 0.10443 0.03523 0.0
O49 O 0.36707 0.09641 0.01741 0.0
O50 O 0.41914 0.13275 0.00922 0.0
O51 O 0.39618 0.12605 0.99455 0.0
O52 O 0.37831 0.09804 0.9558 0.0
O53 O 0.40283 0.10729 0.96431 0.0
C54 C 0.37525 0.09927 0.03751 0.0
C55 C 0.39179 0.10218 0.94806 0.0
C56 C 0.91664 0.28345 0.04285 0.0
C57 C 0.91805 0.29902 0.95327 0.0
O58 O 0.91074 0.29201 0.03969 0.0
Zn59 Zn 0.9058 0.30288 0.0084 0.0
O60 O 0.92137 0.27939 0.02334 0.0
Zn61 Zn 0.91648 0.29005 0.99757 0.0
O62 O 0.93172 0.31334 0.00797 0.0
O63 O 0.91831 0.32459 0.01707 0.0
O64 O 0.92261 0.29026 0.96207 0.0
O65 O 0.91142 0.30396 0.96835 0.0
O66 O 0.88352 0.29268 0.00893 0.0
O67 O 0.89198 0.27735 0.99678 0.0
C68 C 0.93117 0.32525 0.01458 0.0
C69 C 0.88077 0.27952 0.00171 0.0
C70 C 0.72216 0.62299 0.95272 0.0
C71 C 0.73773 0.64246 0.04044 0.0
O72 O 0.7164 0.61277 0.97036 0.0
Zn73 Zn 0.71677 0.61067 0.01135 0.0
O74 O 0.73183 0.63673 0.95875 0.0
Zn75 Zn 0.73115 0.63335 0.99574 0.0
O76 O 0.74204 0.62007 0.99943 0.0
O77 O 0.72589 0.59758 0.01597 0.0
O78 O 0.74226 0.65017 0.01972 0.0
O79 O 0.72848 0.62804 0.03927 0.0
O80 O 0.69516 0.60399 0.01921 0.0
O81 O 0.70797 0.6271 0.00237 0.0
C82 C 0.73914 0.60686 0.00724 0.0
C83 C 0.69542 0.61595 0.01072 0.0
C84 C 0.93287 0.61538 0.00597 0.0
C85 C 0.88029 0.60675 0.00306 0.0
O86 O 0.921 0.60317 0.01327 0.0
Zn87 Zn 0.9064 0.6104 0.0066 0.0
O88 O 0.93169 0.62689 0.99905 0.0
Zn89 Zn 0.91493 0.63348 0.99367 0.0
O90 O 0.92052 0.64946 0.01913 0.0
O91 O 0.91194 0.62676 0.03666 0.0
O92 O 0.89064 0.62021 0.99636 0.0
O93 O 0.88422 0.59722 0.01053 0.0
O94 O 0.9094 0.614 0.96558 0.0
O95 O 0.91846 0.63853 0.95744 0.0
C96 C 0.9172 0.64115 0.03914 0.0
C97 C 0.91436 0.6251 0.94948 0.0
C98 C 0.37991 0.28321 0.04508 0.0
C99 C 0.39711 0.29991 0.95679 0.0
O100 O 0.37166 0.27936 0.02492 0.0
Zn101 Zn 0.38798 0.29036 1.00028 0.0
O102 O 0.39443 0.29186 0.04306 0.0
Zn103 Zn 0.41119 0.3032 0.01356 0.0
O104 O 0.41986 0.32477 0.02271 0.0
O105 O 0.39563 0.31358 0.0107 0.0
O106 O 0.40795 0.30474 0.97334 0.0
O107 O 0.38345 0.29078 0.96391 0.0
O108 O 0.39994 0.27789 1.00081 0.0
O109 O 0.4233 0.29299 0.01517 0.0
C110 C 0.4078 0.32544 0.01848 0.0
C111 C 0.41314 0.27997 0.00689 0.0
C112 C 0.7378 0.09912 0.03936 0.0
C113 C 0.72106 0.10212 0.95194 0.0
O114 O 0.74183 0.09542 0.01859 0.0
Zn115 Zn 0.73082 0.10136 0.99473 0.0
O116 O 0.72894 0.10476 0.0383 0.0
Zn117 Zn 0.71725 0.11056 0.0105 0.0
O118 O 0.69568 0.09636 0.01971 0.0
O119 O 0.70761 0.08513 0.00274 0.0
O120 O 0.71591 0.10721 0.96963 0.0
O121 O 0.73065 0.0979 0.95776 0.0
O122 O 0.7425 0.1256 0.99753 0.0
O123 O 0.72706 0.13287 0.01405 0.0
C124 C 0.6954 0.08431 0.01162 0.0
C125 C 0.74013 0.13631 0.00507 0.0
C126 C 0.63022 0.91465 0.05079 0.0
C127 C 0.64355 0.91468 0.96038 0.0
O128 O 0.64347 0.91924 0.04152 0.0
Zn129 Zn 0.63713 0.91363 0.00603 0.0
O130 O 0.61853 0.90838 0.03594 0.0
Zn131 Zn 0.6136 0.90344 0.9958 0.0
O132 O 0.6013 0.88117 0.99439 0.0
O133 O 0.62505 0.88918 0.00621 0.0
O134 O 0.62915 0.9091 0.96386 0.0
O135 O 0.65241 0.91848 0.97974 0.0
O136 O 0.6292 0.92929 0.99738 0.0
O137 O 0.60442 0.91614 0.98903 0.0
C138 C 0.61158 0.87815 1.00125 0.0
C139 C 0.61668 0.92891 0.99169 0.0
C140 C 0.10199 0.71435 0.04868 0.0
C141 C 0.10234 0.73266 0.96131 0.0
O142 O 0.09754 0.72361 0.04202 0.0
Zn143 Zn 0.10302 0.72488 0.00572 0.0
O144 O 0.10834 0.70998 0.03196 0.0
Zn145 Zn 0.11381 0.71254 0.99198 0.0
O146 O 0.13615 0.72307 0.99114 0.0
O147 O 0.12744 0.73773 0.00575 0.0
O148 O 0.10842 0.72418 0.96298 0.0
O149 O 0.09768 0.73611 0.98164 0.0
O150 O 0.08785 0.70184 0.9937 0.0
O151 O 0.10134 0.69115 0.98143 0.0
C152 C 0.13875 0.73594 0.99973 0.0
C153 C 0.08846 0.69024 0.98529 0.0
C154 C 0.28435 0.37168 0.96224 0.0
C155 C 0.29899 0.39109 0.05029 0.0
O156 O 0.28005 0.36384 0.98287 0.0
Zn157 Zn 0.29047 0.38069 0.00705 0.0
O158 O 0.29312 0.38618 0.9636 0.0
Zn159 Zn 0.30422 0.40359 0.99179 0.0
O160 O 0.32602 0.41107 0.98407 0.0
O161 O 0.31386 0.38786 1.00071 0.0
O162 O 0.30453 0.40141 0.03277 0.0
O163 O 0.28969 0.37728 0.04406 0.0
O164 O 0.27868 0.39302 0.00265 0.0
O165 O 0.29426 0.41596 0.98712 0.0
C166 C 0.32622 0.39931 0.99249 0.0
C167 C 0.281 0.40606 0.99502 0.0
C168 C 0.80712 0.74363 0.3293 0.0
C169 C 0.75659 0.7391 0.31768 0.0
O170 O 0.79583 0.73066 0.33592 0.0
Zn171 Zn 0.77147 0.71922 0.33737 0.0
O172 O 0.80452 0.75396 0.32096 0.0
Zn173 Zn 0.78213 0.74225 0.32295 0.0
O174 O 0.77735 0.73977 0.36317 0.0
O175 O 0.76672 0.71546 0.37392 0.0
O176 O 0.76939 0.75098 0.31288 0.0
O177 O 0.75616 0.72702 0.32625 0.0
O178 O 0.76569 0.70241 0.31364 0.0
O179 O 0.77628 0.72489 0.29439 0.0
C180 C 0.77128 0.72925 0.38024 0.0
C181 C 0.77015 0.71032 0.29309 0.0
C182 C 0.29001 0.0478 0.37815 0.0
C183 C 0.30903 0.06586 0.29095 0.0
O184 O 0.27953 0.04292 0.36093 0.0
Zn185 Zn 0.27709 0.0451 0.32058 0.0
O186 O 0.30369 0.05749 0.37195 0.0
Zn187 Zn 0.30003 0.05851 0.33529 0.0
O188 O 0.28766 0.07038 0.33377 0.0
O189 O 0.26472 0.05516 0.31803 0.0
O190 O 0.3168 0.07031 0.31165 0.0
O191 O 0.29454 0.05674 0.29208 0.0
O192 O 0.26927 0.02369 0.31052 0.0
O193 O 0.29335 0.03572 0.32359 0.0
C194 C 0.27456 0.06818 0.3268 0.0
C195 C 0.28168 0.02369 0.3149 0.0
C196 C 0.94877 0.2492 0.29656 0.0
C197 C 0.96524 0.24448 0.38323 0.0
O198 O 0.95763 0.24353 0.29691 0.0
Zn199 Zn 0.96933 0.23723 0.32406 0.0
O200 O 0.9448 0.25256 0.31772 0.0
Zn201 Zn 0.95576 0.24611 0.34066 0.0
O202 O 0.97902 0.26252 0.33312 0.0
O203 O 0.99088 0.25152 0.31507 0.0
O204 O 0.95564 0.24872 0.37776 0.0
O205 O 0.97056 0.23978 0.36519 0.0
O206 O 0.9596 0.21501 0.31904 0.0
O207 O 0.944 0.22194 0.33601 0.0
C208 C 0.99121 0.26346 0.3239 0.0
C209 C 0.94641 0.21139 0.32767 0.0
C210 C 0.07254 0.41819 0.3446 0.0
C211 C 0.07473 0.46761 0.33397 0.0
O212 O 0.05985 0.41711 0.33789 0.0
Zn213 Zn 0.05083 0.43162 0.32828 0.0
O214 O 0.08432 0.43128 0.34782 0.0
Zn215 Zn 0.07433 0.44312 0.33958 0.0
O216 O 0.05815 0.43705 0.37061 0.0
O217 O 0.03495 0.42561 0.35394 0.0
O218 O 0.08555 0.46541 0.34086 0.0
O219 O 0.06162 0.45605 0.32871 0.0
O220 O 0.04541 0.42591 0.29245 0.0
O221 O 0.07029 0.438 0.29937 0.0
C222 C 0.04361 0.43045 0.3736 0.0
C223 C 0.05893 0.43119 0.28395 0.0
C224 C 0.58666 0.61288 0.37385 0.0
C225 C 0.58185 0.62818 0.28649 0.0
O226 O 0.5811 0.62182 0.37297 0.0
Zn227 Zn 0.57484 0.6332 0.34527 0.0
O228 O 0.58995 0.60857 0.35298 0.0
Zn229 Zn 0.58364 0.61932 0.32939 0.0
O230 O 0.60014 0.64262 0.33598 0.0
O231 O 0.58937 0.65491 0.35319 0.0
O232 O 0.58615 0.61867 0.29235 0.0
O233 O 0.57723 0.63374 0.30426 0.0
O234 O 0.55257 0.62352 0.35023 0.0
O235 O 0.55951 0.60777 0.33397 0.0
C236 C 0.60122 0.65501 0.34449 0.0
C237 C 0.54895 0.61027 0.34196 0.0
C238 C 0.38606 0.95937 0.28516 0.0
C239 C 0.40247 0.97496 0.37414 0.0
O240 O 0.38163 0.94806 0.30065 0.0
Zn241 Zn 0.38343 0.94412 0.3407 0.0
O242 O 0.39467 0.97288 0.29339 0.0
Zn243 Zn 0.39558 0.96759 0.32908 0.0
O244 O 0.40892 0.95654 0.32846 0.0
O245 O 0.39437 0.93269 0.34101 0.0
O246 O 0.40609 0.98354 0.35439 0.0
O247 O 0.39429 0.96042 0.37138 0.0
O248 O 0.36175 0.9345 0.35033 0.0
O249 O 0.37237 0.95898 0.34031 0.0
C250 C 0.40732 0.9434 0.33353 0.0
C251 C 0.36074 0.94648 0.34762 0.0
C252 C 0.5866 0.97282 0.37331 0.0
C253 C 0.58681 0.95883 0.28326 0.0
O254 O 0.59164 0.98172 0.35397 0.0
Zn255 Zn 0.58589 0.96624 0.32779 0.0
O256 O 0.58 0.95833 0.36983 0.0
Zn257 Zn 0.57417 0.9426 0.33814 0.0
O258 O 0.58584 0.93239 0.3461 0.0
O259 O 0.60023 0.95699 0.33731 0.0
O260 O 0.57979 0.94726 0.29819 0.0
O261 O 0.59204 0.97223 0.29229 0.0
O262 O 0.56148 0.95558 0.32736 0.0
O263 O 0.55183 0.93149 0.33864 0.0
C264 C 0.59901 0.94417 0.34351 0.0
C265 C 0.5498 0.94245 0.33198 0.0
C266 C 0.07251 0.65758 0.35215 0.0
C267 C 0.07504 0.61062 0.33944 0.0
O268 O 0.08421 0.65622 0.3561 0.0
Zn269 Zn 0.07455 0.63463 0.34638 0.0
O270 O 0.06003 0.64614 0.34421 0.0
Zn271 Zn 0.05128 0.6228 0.33323 0.0
O272 O 0.03481 0.61237 0.35781 0.0
O273 O 0.05763 0.62381 0.37594 0.0
O274 O 0.06208 0.60925 0.33364 0.0
O275 O 0.08572 0.62345 0.34742 0.0
O276 O 0.07145 0.63682 0.30633 0.0
O277 O 0.04689 0.62375 0.29692 0.0
C278 C 0.04305 0.61578 0.37797 0.0
C279 C 0.06063 0.63256 0.28985 0.0
C280 C 0.35809 0.41959 0.35144 0.0
C281 C 0.40431 0.47004 0.34114 0.0
O282 O 0.35912 0.43238 0.35674 0.0
Zn283 Zn 0.3806 0.44505 0.34676 0.0
O284 O 0.36968 0.41913 0.34266 0.0
Zn285 Zn 0.3929 0.43444 0.33184 0.0
O286 O 0.40375 0.42824 0.35525 0.0
O287 O 0.39192 0.43875 0.37498 0.0
O288 O 0.40597 0.45879 0.33408 0.0
O289 O 0.39136 0.46738 0.34946 0.0
O290 O 0.37832 0.44064 0.30639 0.0
O291 O 0.39196 0.43005 0.29512 0.0
C292 C 0.40026 0.4325 0.376 0.0
C293 C 0.38277 0.4347 0.28906 0.0
C294 C 0.31237 0.24887 0.29798 0.0
C295 C 0.29233 0.24547 0.38507 0.0
O296 O 0.31991 0.25221 0.31891 0.0
Zn297 Zn 0.30283 0.24626 0.34233 0.0
O298 O 0.29789 0.24347 0.29873 0.0
Zn299 Zn 0.28024 0.23761 0.32638 0.0
O300 O 0.27326 0.25218 0.31759 0.0
O301 O 0.2963 0.26291 0.33487 0.0
O302 O 0.28211 0.2407 0.36738 0.0
O303 O 0.30602 0.24924 0.37926 0.0
O304 O 0.29004 0.2221 0.33843 0.0
O305 O 0.26743 0.21533 0.32199 0.0
C306 C 0.28508 0.26404 0.32608 0.0
C307 C 0.27694 0.21161 0.33053 0.0
C308 C 0.80572 0.06757 0.32861 0.0
C309 C 0.75399 0.02216 0.32391 0.0
O310 O 0.80253 0.05434 0.32085 0.0
Zn311 Zn 0.78014 0.04425 0.32455 0.0
O312 O 0.79485 0.06981 0.33565 0.0
Zn313 Zn 0.77064 0.05784 0.33891 0.0
O314 O 0.76729 0.05847 0.37569 0.0
O315 O 0.77671 0.04359 0.36542 0.0
O316 O 0.75461 0.03442 0.33201 0.0
O317 O 0.76615 0.0225 0.31625 0.0
O318 O 0.77413 0.05525 0.29571 0.0
O319 O 0.76449 0.06823 0.31415 0.0
C320 C 0.77153 0.04904 0.38245 0.0
C321 C 0.76833 0.06395 0.29381 0.0
C322 C 0.99194 0.73152 0.32688 0.0
C323 C 0.94704 0.73864 0.33033 0.0
O324 O 0.99182 0.74342 0.31907 0.0
Zn325 Zn 0.97003 0.73584 0.32666 0.0
O326 O 0.97952 0.71993 0.33458 0.0
Zn327 Zn 0.95606 0.7128 0.34074 0.0
O328 O 0.94572 0.69634 0.31589 0.0
O329 O 0.95905 0.71893 0.29755 0.0
O330 O 0.94444 0.72539 0.33728 0.0
O331 O 0.9604 0.7485 0.3228 0.0
O332 O 0.97025 0.7329 0.36756 0.0
O333 O 0.95501 0.70862 0.37745 0.0
C334 C 0.95022 0.70446 0.29559 0.0
C335 C 0.96451 0.72221 0.38445 0.0
C336 C 0.43698 0.05502 0.72048 0.0
C337 C 0.4335 0.03779 0.63123 0.0
O338 O 0.44265 0.06598 0.70408 0.0
Zn339 Zn 0.44607 0.0691 0.66309 0.0
O340 O 0.43217 0.04137 0.71294 0.0
Zn341 Zn 0.43605 0.04592 0.67652 0.0
O342 O 0.46037 0.05772 0.67351 0.0
O343 O 0.46836 0.08108 0.65944 0.0
O344 O 0.42951 0.02954 0.6514 0.0
O345 O 0.43967 0.05232 0.63346 0.0
O346 O 0.4327 0.07763 0.65531 0.0
O347 O 0.42051 0.05398 0.67016 0.0
C348 C 0.47136 0.07085 0.66675 0.0
C349 C 0.42033 0.06594 0.66259 0.0
C350 C 0.96626 0.38784 0.72189 0.0
C351 C 0.98244 0.40006 0.63194 0.0
O352 O 0.95512 0.38221 0.70582 0.0
Zn353 Zn 0.9515 0.38169 0.6649 0.0
O354 O 0.97984 0.3965 0.71386 0.0
Zn355 Zn 0.97483 0.39515 0.67753 0.0
O356 O 0.96287 0.40749 0.67435 0.0
O357 O 0.93936 0.39184 0.66119 0.0
O358 O 0.9909 0.40465 0.65184 0.0
O359 O 0.96794 0.39168 0.63463 0.0
O360 O 0.94299 0.35966 0.65827 0.0
O361 O 0.96681 0.37147 0.67229 0.0
C362 C 0.94963 0.40519 0.66796 0.0
C363 C 0.9548 0.35917 0.66544 0.0
C364 C 0.61662 0.54261 0.66399 0.0
C365 C 0.66281 0.59291 0.65152 0.0
O366 O 0.61501 0.55399 0.67029 0.0
Zn367 Zn 0.62805 0.57836 0.67117 0.0
O368 O 0.62951 0.54508 0.65571 0.0
Zn369 Zn 0.64033 0.56747 0.65721 0.0
O370 O 0.64263 0.57253 0.69726 0.0
O371 O 0.62913 0.58342 0.70766 0.0
O372 O 0.66183 0.58005 0.64709 0.0
O373 O 0.65119 0.59346 0.65991 0.0
O374 O 0.61713 0.58408 0.647 0.0
O375 O 0.62894 0.5732 0.62838 0.0
C376 C 0.63828 0.57879 0.71415 0.0
C377 C 0.62058 0.57941 0.62668 0.0
C378 C 0.70634 0.76238 0.70687 0.0
C379 C 0.72622 0.76764 0.61916 0.0
O380 O 0.72085 0.76806 0.70576 0.0
Zn381 Zn 0.73842 0.77449 0.67784 0.0
O382 O 0.69863 0.75901 0.68611 0.0
Zn383 Zn 0.71562 0.76549 0.66225 0.0
O384 O 0.72267 0.74916 0.66845 0.0
O385 O 0.7458 0.76008 0.68542 0.0
O386 O 0.71238 0.7631 0.62522 0.0
O387 O 0.73645 0.77226 0.63682 0.0
O388 O 0.75083 0.79677 0.68292 0.0
O389 O 0.72801 0.7896 0.66703 0.0
C390 C 0.73407 0.74818 0.67676 0.0
C391 C 0.74103 0.80023 0.67493 0.0
C392 C 0.25398 0.94889 0.70642 0.0
C393 C 0.25083 0.96555 0.61921 0.0
O394 O 0.2477 0.95721 0.70556 0.0
Zn395 Zn 0.2405 0.96768 0.67704 0.0
O396 O 0.25759 0.94486 0.68557 0.0
Zn397 Zn 0.25125 0.95563 0.66215 0.0
O398 O 0.26635 0.97908 0.67277 0.0
O399 O 0.2526 0.98917 0.68666 0.0
O400 O 0.25567 0.95654 0.62543 0.0
O401 O 0.2448 0.96995 0.63648 0.0
O402 O 0.21817 0.95661 0.68004 0.0
O403 O 0.22693 0.94227 0.66421 0.0
C404 C 0.26553 0.99052 0.68141 0.0
C405 C 0.21562 0.94377 0.67142 0.0
C406 C 0.07075 0.26962 0.67259 0.0
C407 C 0.02527 0.27477 0.68552 0.0
O408 O 0.07267 0.28267 0.66582 0.0
Zn409 Zn 0.05993 0.29438 0.66491 0.0
O410 O 0.05785 0.25958 0.68142 0.0
Zn411 Zn 0.04747 0.27149 0.67954 0.0
O412 O 0.04488 0.2738 0.63927 0.0
O413 O 0.05864 0.29807 0.62837 0.0
O414 O 0.02613 0.26285 0.69015 0.0
O415 O 0.03689 0.28679 0.67667 0.0
O416 O 0.0712 0.31131 0.6885 0.0
O417 O 0.0592 0.28891 0.70796 0.0
C418 C 0.04931 0.2843 0.62214 0.0
C419 C 0.06772 0.30348 0.70914 0.0
C420 C 0.25095 0.30694 0.70705 0.0
C421 C 0.24838 0.28921 0.61832 0.0
O422 O 0.25455 0.31508 0.68677 0.0
Zn423 Zn 0.2489 0.2987 0.66183 0.0
O424 O 0.24555 0.29251 0.70506 0.0
Zn425 Zn 0.24003 0.27568 0.67613 0.0
O426 O 0.25452 0.26847 0.68406 0.0
O427 O 0.26543 0.29193 0.66852 0.0
O428 O 0.2434 0.2786 0.63533 0.0
O429 O 0.25234 0.30282 0.62507 0.0
O430 O 0.22466 0.28575 0.66448 0.0
O431 O 0.21772 0.26282 0.67957 0.0
C432 C 0.26647 0.28049 0.67635 0.0
C433 C 0.21408 0.27246 0.67142 0.0
C434 C 0.70969 0.94867 0.7072 0.0
C435 C 0.72954 0.965 0.62015 0.0
O436 O 0.70215 0.94441 0.68629 0.0
Zn437 Zn 0.71931 0.95514 0.66308 0.0
O438 O 0.72428 0.95715 0.7065 0.0
Zn439 Zn 0.74204 0.96761 0.67805 0.0
O440 O 0.75112 0.98913 0.68726 0.0
O441 O 0.72734 0.97867 0.67287 0.0
O442 O 0.74001 0.96973 0.6374 0.0
O443 O 0.71578 0.95561 0.62637 0.0
O444 O 0.7305 0.94207 0.66605 0.0
O445 O 0.75357 0.95682 0.68163 0.0
C446 C 0.73949 0.99028 0.68145 0.0
C447 C 0.74337 0.94381 0.67348 0.0
C448 C 0.0253 0.75215 0.68443 0.0
C449 C 0.07177 0.80188 0.67025 0.0
O450 O 0.02658 0.76517 0.68849 0.0
Zn451 Zn 0.04794 0.7772 0.67763 0.0
O452 O 0.0367 0.75122 0.67587 0.0
Zn453 Zn 0.05987 0.76604 0.66391 0.0
O454 O 0.07082 0.7603 0.68778 0.0
O455 O 0.05935 0.77144 0.70667 0.0
O456 O 0.07324 0.79039 0.66421 0.0
O457 O 0.05893 0.79958 0.6785 0.0
O458 O 0.04497 0.77143 0.63764 0.0
O459 O 0.05855 0.76055 0.62772 0.0
C460 C 0.06759 0.76508 0.70818 0.0
C461 C 0.04922 0.76491 0.62105 0.0
C462 C 0.96324 0.58059 0.72406 0.0
C463 C 0.97979 0.58436 0.63446 0.0
O464 O 0.97687 0.58557 0.71623 0.0
Zn465 Zn 0.97204 0.58176 0.6799 0.0
O466 O 0.95216 0.57491 0.70789 0.0
Zn467 Zn 0.94869 0.57158 0.66701 0.0
O468 O 0.93685 0.54924 0.66338 0.0
O469 O 0.96039 0.5575 0.67678 0.0
O470 O 0.96527 0.57811 0.63701 0.0
O471 O 0.98821 0.5884 0.65443 0.0
O472 O 0.96379 0.59718 0.67414 0.0
O473 O 0.94002 0.58493 0.65987 0.0
C474 C 0.94727 0.5464 0.67028 0.0
C475 C 0.95174 0.59731 0.667 0.0
C476 C 0.43688 0.37984 0.71403 0.0
C477 C 0.4355 0.39743 0.62689 0.0
O478 O 0.43237 0.38909 0.70766 0.0
Zn479 Zn 0.43707 0.38996 0.67112 0.0
O480 O 0.44288 0.37529 0.69696 0.0
Zn481 Zn 0.44758 0.37754 0.65664 0.0
O482 O 0.46993 0.38807 0.65453 0.0
O483 O 0.46146 0.40283 0.66967 0.0
O484 O 0.44161 0.38897 0.62802 0.0
O485 O 0.43123 0.40098 0.64756 0.0
O486 O 0.42165 0.36679 0.66008 0.0
O487 O 0.43489 0.35607 0.64669 0.0
C488 C 0.47267 0.40102 0.66297 0.0
C489 C 0.42209 0.35514 0.65152 0.0
C490 C 0.61776 0.03655 0.62949 0.0
C491 C 0.6337 0.05711 0.71671 0.0
O492 O 0.61388 0.02891 0.65035 0.0
Zn493 Zn 0.62431 0.04614 0.67397 0.0
O494 O 0.62619 0.05111 0.63041 0.0
Zn495 Zn 0.63729 0.0689 0.65795 0.0
O496 O 0.65896 0.07692 0.64891 0.0
O497 O 0.64775 0.05388 0.66632 0.0
O498 O 0.63862 0.06724 0.69887 0.0
O499 O 0.62443 0.04319 0.71106 0.0
O500 O 0.61186 0.0579 0.67008 0.0
O501 O 0.62684 0.08075 0.65367 0.0
C502 C 0.65972 0.06547 0.65733 0.0
C503 C 0.6138 0.07077 0.66221 0.0
C504 C 0.95666 0.3399 0.03484 0.0
C505 C 0.94576 0.3396 0.0178 0.0
C506 C 0.97182 0.35175 0.0338 0.0
C507 C 0.99972 0.37615 0.98678 0.0
H508 H 0.02572 0.39244 0.04688 0.0
C509 C 0.06605 0.40417 0.98093 0.0
C510 C 0.07143 0.3974 0.99855 0.0
C511 C 0.05114 0.40182 0.98336 0.0
C512 C 0.01863 0.38809 0.02984 0.0
H513 H 0.94195 0.35145 0.98654 0.0
H514 H 0.96872 0.3722 0.98432 0.0
H515 H 0.99802 0.37962 0.05183 0.0
H516 H 0.06588 0.3837 0.03326 0.0
H517 H 0.04034 0.37978 0.03758 0.0
H518 H 0.02034 0.38374 0.96503 0.0
C519 C 0.96543 0.36341 0.99884 0.0
C520 C 1.00277 0.38077 0.0327 0.0
C521 C 0.95012 0.35167 1.00029 0.0
C522 C 0.06201 0.38897 0.01922 0.0
C523 C 0.04738 0.38685 0.02187 0.0
C524 C 0.01564 0.38342 0.98393 0.0
C525 C 0.97651 0.36336 0.01521 0.0
C526 C 0.99312 0.37416 0.01137 0.0
C527 C 0.04159 0.39299 0.00379 0.0
C528 C 0.02524 0.38885 0.00562 0.0
H529 H 0.95359 0.33054 0.04813 0.0
H530 H 0.98008 0.35123 0.04643 0.0
H531 H 0.99259 0.3711 0.96998 0.0
H532 H 0.07308 0.4107 0.96479 0.0
H533 H 0.04699 0.40671 0.96913 0.0
C534 C 0.68082 0.62566 0.98679 0.0
C535 C 0.6814 0.61702 0.00751 0.0
C536 C 0.66849 0.62804 0.9837 0.0
C537 C 0.6397 0.63161 0.01993 0.0
H538 H 0.62625 0.63454 0.95124 0.0
C539 C 0.60507 0.66216 1.00123 0.0
C540 C 0.61224 0.67382 0.98284 0.0
C541 C 0.60903 0.65072 0.00334 0.0
C542 C 0.62977 0.63368 0.97058 0.0
H543 H 0.66922 0.60371 0.04096 0.0
H544 H 0.64747 0.60819 0.03586 0.0
H545 H 0.64147 0.62219 0.95748 0.0
H546 H 0.62866 0.68248 0.95175 0.0
H547 H 0.63517 0.66232 0.95467 0.0
H548 H 0.62855 0.64374 0.03282 0.0
C549 C 0.65668 0.61302 0.02194 0.0
C550 C 0.6385 0.6266 0.97417 0.0
C551 C 0.66905 0.61041 0.02482 0.0
C552 C 0.62271 0.67338 0.96563 0.0
C553 C 0.62645 0.66184 0.96741 0.0
C554 C 0.63089 0.63866 0.01633 0.0
C555 C 0.65634 0.62196 1.00135 0.0
C556 C 0.64414 0.62608 0.99871 0.0
C557 C 0.62008 0.65069 0.98687 0.0
C558 C 0.62637 0.64033 0.99145 0.0
H559 H 0.69008 0.63081 0.97294 0.0
H560 H 0.66879 0.63517 0.96789 0.0
H561 H 0.64392 0.63147 0.03905 0.0
H562 H 0.59728 0.66254 0.01517 0.0
H563 H 0.60391 0.64228 0.01849 0.0
C564 C 0.40766 0.06398 0.0202 0.0
C565 C 0.40075 0.06929 0.00272 0.0
C566 C 0.40503 0.04895 0.01816 0.0
C567 C 0.39024 0.01591 0.97277 0.0
H568 H 0.37359 0.99058 0.03351 0.0
C569 C 0.34101 0.95449 0.97008 0.0
C570 C 0.34073 0.94356 0.98703 0.0
C571 C 0.35309 0.96954 0.97069 0.0
C572 C 0.37855 0.99751 0.01647 0.0
H573 H 0.38648 0.06346 0.96867 0.0
H574 H 0.38207 0.03772 0.96503 0.0
H575 H 0.38674 0.0184 0.03766 0.0
H576 H 0.35284 0.93957 0.01764 0.0
H577 H 0.37399 0.96618 0.01915 0.0
H578 H 0.38114 0.99504 0.95136 0.0
C579 C 0.38946 0.04491 0.98033 0.0
C580 C 0.3861 0.01347 0.01886 0.0
C581 C 0.39186 0.05966 0.98259 0.0
C582 C 0.35302 0.94777 0.00401 0.0
C583 C 0.36499 0.96298 0.00504 0.0
C584 C 0.38263 1.00001 0.97038 0.0
C585 C 0.39577 0.03922 0.99826 0.0
C586 C 0.39141 0.02281 0.99686 0.0
C587 C 0.36497 0.97409 0.98872 0.0
C588 C 0.37613 0.99064 0.99204 0.0
H589 H 0.41455 0.07118 0.03592 0.0
H590 H 0.41005 0.04488 0.03228 0.0
H591 H 0.39447 0.0228 0.95551 0.0
H592 H 0.33151 0.95153 0.95716 0.0
H593 H 0.3526 0.97784 0.95813 0.0
C594 C 0.06296 0.67583 0.96494 0.0
C595 C 0.07391 0.67592 0.98162 0.0
C596 C 0.0478 0.66396 0.96584 0.0
C597 C 0.02003 0.63869 0.01248 0.0
H598 H 0.99384 0.62332 0.95245 0.0
C599 C 0.95358 0.60954 0.0193 0.0
C600 C 0.94791 0.61641 0.00243 0.0
C601 C 0.96862 0.61231 0.01642 0.0
C602 C 1.00098 0.62742 0.96946 0.0
H603 H 0.07778 0.66367 0.01212 0.0
H604 H 0.05105 0.64285 0.01404 0.0
H605 H 0.02153 0.63647 0.94713 0.0
H606 H 0.95313 0.63075 0.96856 0.0
H607 H 0.97889 0.63539 0.9635 0.0
H608 H 0.99947 0.63049 0.03465 0.0
C609 C 0.05429 0.65184 0.99991 0.0
C610 C 0.01684 0.63493 0.96639 0.0
C611 C 0.06958 0.66362 0.99862 0.0
C612 C 0.95721 0.6254 0.98205 0.0
C613 C 0.97197 0.62794 0.97896 0.0
C614 C 1.00411 0.63123 0.01555 0.0
C615 C 0.04316 0.65209 0.98393 0.0
C616 C 0.02656 0.6412 0.98774 0.0
C617 C 0.97801 0.62166 0.99627 0.0
C618 C 0.99443 0.62611 0.99394 0.0
H619 H 0.06599 0.68538 0.9521 0.0
H620 H 0.03951 0.66464 0.95353 0.0
H621 H 0.02722 0.64347 0.02931 0.0
H622 H 0.94664 0.60258 0.03518 0.0
H623 H 0.97296 0.6073 0.03006 0.0
C624 C 0.41475 0.35126 0.00193 0.0
C625 C 0.40748 0.3398 0.02062 0.0
C626 C 0.41103 0.36285 0.99945 0.0
C627 C 0.39172 0.38132 0.03185 0.0
H628 H 0.37625 0.38244 0.96399 0.0
C629 C 0.34175 0.39131 0.01773 0.0
C630 C 0.34051 0.39881 0.99589 0.0
C631 C 0.354 0.3888 0.02064 0.0
C632 C 0.38086 0.38263 0.9829 0.0
H633 H 0.39112 0.33162 0.05182 0.0
H634 H 0.38508 0.35213 0.04831 0.0
H635 H 0.391 0.36952 0.97011 0.0
H636 H 0.35148 0.41012 0.9603 0.0
H637 H 0.37316 0.40553 0.96521 0.0
H638 H 0.38116 0.39392 0.04489 0.0
C639 C 0.39366 0.35228 0.03557 0.0
C640 C 0.3893 0.37519 0.98643 0.0
C641 C 0.39713 0.34056 0.03768 0.0
C642 C 0.3522 0.40434 0.97735 0.0
C643 C 0.36451 0.40162 0.98012 0.0
C644 C 0.38342 0.38885 0.0283 0.0
C645 C 0.40017 0.36326 0.01589 0.0
C646 C 0.39427 0.37392 0.01115 0.0
C647 C 0.36543 0.39363 0.00171 0.0
C648 C 0.37728 0.389 0.00402 0.0
H649 H 0.42247 0.35064 0.98813 0.0
H650 H 0.41622 0.37115 0.9841 0.0
H651 H 0.3956 0.38073 0.05104 0.0
H652 H 0.33296 0.38699 0.03245 0.0
H653 H 0.35411 0.3824 0.03729 0.0
C654 C 0.60912 0.94742 0.00805 0.0
C655 C 0.61689 0.94354 0.98982 0.0
C656 C 0.61234 0.96259 0.01029 0.0
C657 C 0.63014 0.99994 0.97727 0.0
H658 H 0.64675 0.01781 0.044 0.0
C659 C 0.6794 0.06045 0.9875 0.0
C660 C 0.68111 0.06944 0.00923 0.0
C661 C 0.66721 0.04559 0.98551 0.0
C662 C 0.64179 0.01302 0.02542 0.0
H663 H 0.63357 0.95209 0.95911 0.0
H664 H 0.6387 0.97836 0.96213 0.0
H665 H 0.63258 0.99003 0.03906 0.0
H666 H 0.671 0.07014 0.0456 0.0
H667 H 0.64942 0.04372 0.04232 0.0
H668 H 0.63973 0.02283 0.96333 0.0
C669 C 0.63018 0.96981 0.97476 0.0
C670 C 0.63369 0.99709 0.02258 0.0
C671 C 0.62725 0.95479 0.97297 0.0
C672 C 0.66991 0.06345 0.02861 0.0
C673 C 0.65766 0.04833 0.02677 0.0
C674 C 0.63806 0.01582 0.98015 0.0
C675 C 0.62313 0.97399 0.99395 0.0
C676 C 0.62839 0.99043 0.99822 0.0
C677 C 0.65631 0.03916 0.00529 0.0
C678 C 0.64465 0.02258 0.00396 0.0
H679 H 0.60134 0.93897 0.02164 0.0
H680 H 0.60679 0.96552 0.02529 0.0
H681 H 0.626 0.99511 0.95835 0.0
H682 H 0.6878 0.0648 0.97215 0.0
H683 H 0.66678 0.0389 0.96891 0.0
C684 C 0.73107 0.72877 0.2977 0.0
C685 C 0.74198 0.73888 0.31527 0.0
C686 C 0.71577 0.72495 0.29986 0.0
C687 C 0.68822 0.71951 0.34973 0.0
H688 H 0.66097 0.71009 0.29148 0.0
C689 C 0.62197 0.68122 0.35916 0.0
C690 C 0.61609 0.66924 0.34113 0.0
C691 C 0.63691 0.69369 0.35626 0.0
C692 C 0.66842 0.71272 0.30801 0.0
H693 H 0.74564 0.75311 0.34867 0.0
H694 H 0.71875 0.74638 0.35262 0.0
H695 H 0.68854 0.72534 0.28502 0.0
H696 H 0.6208 0.66132 0.30531 0.0
H697 H 0.64638 0.68277 0.30021 0.0
H698 H 0.66809 0.70613 0.37245 0.0
C699 C 0.72208 0.7416 0.33691 0.0
C700 C 0.68421 0.72147 0.30429 0.0
C701 C 0.73747 0.74561 0.33445 0.0
C702 C 0.62505 0.67031 0.31968 0.0
C703 C 0.63971 0.68273 0.31659 0.0
C704 C 0.67238 0.71068 0.35345 0.0
C705 C 0.71098 0.73089 0.32005 0.0
C706 C 0.69433 0.72447 0.32491 0.0
C707 C 0.64598 0.69448 0.33498 0.0
C708 C 0.66232 0.70666 0.33241 0.0
H709 H 0.73423 0.72313 0.28321 0.0
H710 H 0.70753 0.7165 0.28678 0.0
H711 H 0.6957 0.72153 0.36602 0.0
H712 H 0.61531 0.68067 0.37589 0.0
H713 H 0.64143 0.70258 0.37075 0.0
C714 C 0.33456 0.9396 0.3331 0.0
C715 C 0.34634 0.94656 0.35136 0.0
C716 C 0.3236 0.9442 0.33079 0.0
C717 C 0.3234 0.97978 0.33987 0.0
H718 H 0.28063 0.95724 0.3204 0.0
C719 C 0.29616 0.01189 0.29795 0.0
C720 C 0.28325 0.01008 0.31114 0.0
C721 C 0.30096 1.00121 0.30079 0.0
C722 C 0.29256 0.96363 0.32586 0.0
H723 H 0.35528 0.96273 0.38278 0.0
H724 H 0.3359 0.9703 0.37956 0.0
H725 H 0.29387 0.94333 0.33306 0.0
H726 H 0.26459 0.99525 0.33628 0.0
H727 H 0.27305 0.97641 0.34142 0.0
H728 H 0.32235 1.0 0.3326 0.0
C729 C 0.3352 0.96154 0.36668 0.0
C730 C 0.30013 0.9557 0.33304 0.0
C731 C 0.34619 0.95708 0.36877 0.0
C732 C 0.27443 0.99673 0.32556 0.0
C733 C 0.27933 0.98601 0.32859 0.0
C734 C 0.31595 0.98763 0.3325 0.0
C735 C 0.32433 0.95583 0.34672 0.0
C736 C 0.31566 0.96374 0.3402 0.0
C737 C 0.29308 0.98859 0.31724 0.0
C738 C 0.3005 0.9797 0.32519 0.0
H739 H 0.33468 0.93172 0.31908 0.0
H740 H 0.31542 0.93962 0.31517 0.0
H741 H 0.33541 0.98637 0.34478 0.0
H742 H 0.30319 0.02215 0.28685 0.0
H743 H 0.31143 1.00337 0.29142 0.0
C744 C 0.01699 0.28399 0.30735 0.0
C745 C 1.00555 0.2783 0.32634 0.0
C746 C 0.0295 0.29895 0.30933 0.0
C747 C 0.04974 0.33114 0.35598 0.0
H748 H 0.05608 0.35748 0.29751 0.0
C749 C 0.06363 0.39306 0.36515 0.0
C750 C 0.07303 0.40395 0.34692 0.0
C751 C 0.06045 0.37796 0.36329 0.0
C752 C 0.05477 0.35027 0.31387 0.0
H753 H 0.99864 0.28336 0.36288 0.0
H754 H 0.02018 0.309 0.3664 0.0
H755 H 0.04104 0.32978 0.29225 0.0
H756 H 0.08672 0.40783 0.31271 0.0
H757 H 0.08104 0.38124 0.3092 0.0
H758 H 0.06265 0.35163 0.37796 0.0
C759 C 0.01969 0.30216 0.34997 0.0
C760 C 0.04614 0.33438 0.31083 0.0
C761 C 1.00721 0.28746 0.34781 0.0
C762 C 0.07976 0.39968 0.32737 0.0
C763 C 0.07635 0.38445 0.3252 0.0
C764 C 0.05828 0.34699 0.35903 0.0
C765 C 0.03087 0.30825 0.3306 0.0
C766 C 0.04297 0.32465 0.33213 0.0
C767 C 0.06631 0.37334 0.34275 0.0
C768 C 0.06036 0.35675 0.33826 0.0
H769 H 0.01595 0.27715 0.29058 0.0
H770 H 0.03795 0.30333 0.29409 0.0
H771 H 0.04777 0.32395 0.37267 0.0
H772 H 0.05803 0.39604 0.37998 0.0
H773 H 0.05249 0.36968 0.3769 0.0
C774 C 0.61726 0.93646 0.3266 0.0
C775 C 0.61318 0.94351 0.34588 0.0
C776 C 0.63239 0.93955 0.32456 0.0
C777 C 0.66967 0.95667 0.35865 0.0
H778 H 0.68754 0.97382 0.29217 0.0
C779 C 0.73033 1.00607 0.34848 0.0
C780 C 0.73923 0.0078 0.32659 0.0
C781 C 0.71546 0.99387 0.35057 0.0
C782 C 0.68275 0.96872 0.31068 0.0
H783 H 0.62135 0.95877 0.3786 0.0
H784 H 0.64755 0.96369 0.37581 0.0
H785 H 0.65977 0.95959 0.29706 0.0
H786 H 0.73976 0.99776 0.29007 0.0
H787 H 0.71334 0.9762 0.29353 0.0
H788 H 0.69258 0.96626 0.37257 0.0
C789 C 0.63917 0.95577 0.36228 0.0
C790 C 0.66681 0.96058 0.31349 0.0
C791 C 0.62417 0.95293 0.36397 0.0
C792 C 0.73314 0.99663 0.30719 0.0
C793 C 0.71802 0.9844 0.30913 0.0
C794 C 0.68556 0.96469 0.3558 0.0
C795 C 0.6436 0.94955 0.34203 0.0
C796 C 0.66012 0.95503 0.33777 0.0
C797 C 0.70893 0.98303 0.33073 0.0
C798 C 0.69232 0.97143 0.33207 0.0
H799 H 0.60903 0.92947 0.31204 0.0
H800 H 0.63547 0.93461 0.30877 0.0
H801 H 0.66485 0.95233 0.3775 0.0
H802 H 0.73475 0.01448 0.36381 0.0
H803 H 0.70882 0.99342 0.36729 0.0
C804 C 0.01815 0.73703 0.3122 0.0
C805 C 1.00623 0.73105 0.33034 0.0
C806 C 0.03059 0.73452 0.31505 0.0
C807 C 0.04951 0.72176 0.36303 0.0
H808 H 0.0574 0.70271 0.30477 0.0
C809 C 0.063 0.67343 0.37234 0.0
C810 C 0.07294 0.67228 0.35482 0.0
C811 C 0.05988 0.68539 0.37047 0.0
C812 C 0.05565 0.70833 0.32111 0.0
H813 H 0.9984 0.71864 0.36635 0.0
H814 H 0.01981 0.71443 0.37138 0.0
H815 H 0.04257 0.71553 0.29864 0.0
H816 H 0.08763 0.68274 0.32187 0.0
H817 H 0.08206 0.70372 0.31833 0.0
H818 H 0.06174 0.71371 0.3858 0.0
C819 C 0.01975 0.721 0.35495 0.0
C820 C 0.04715 0.7157 0.31757 0.0
C821 C 1.00735 0.72328 0.35191 0.0
C822 C 0.08024 0.68365 0.33602 0.0
C823 C 0.0769 0.69551 0.33381 0.0
C824 C 0.05791 0.71433 0.36658 0.0
C825 C 0.03141 0.72631 0.33638 0.0
C826 C 0.04342 0.72192 0.33872 0.0
C827 C 0.06635 0.69626 0.3506 0.0
C828 C 0.06055 0.707 0.34587 0.0
H829 H 0.01753 0.74303 0.29537 0.0
H830 H 0.03941 0.73877 0.30043 0.0
H831 H 0.04711 0.72671 0.37963 0.0
H832 H 0.05696 0.66456 0.38656 0.0
H833 H 0.05154 0.68547 0.38347 0.0
C834 C 0.34239 0.39418 0.37154 0.0
C835 C 0.3436 0.40505 0.35353 0.0
C836 C 0.33081 0.37893 0.36933 0.0
C837 C 0.30912 0.35129 0.31926 0.0
H838 H 0.29005 0.32437 0.37749 0.0
C839 C 0.28023 0.28502 0.31046 0.0
C840 C 0.28582 0.27897 0.32908 0.0
C841 C 0.28292 0.30005 0.31305 0.0
C842 C 0.29521 0.33172 0.36096 0.0
H843 H 0.33369 0.40873 0.31928 0.0
H844 H 0.31335 0.38194 0.31525 0.0
H845 H 0.30277 0.35197 0.3836 0.0
H846 H 0.29771 0.28344 0.36562 0.0
H847 H 0.30222 0.30918 0.37017 0.0
H848 H 0.30232 0.33103 0.29693 0.0
C849 C 0.3212 0.38524 0.33133 0.0
C850 C 0.3025 0.34754 0.36449 0.0
C851 C 0.33269 0.40058 0.33381 0.0
C852 C 0.29338 0.28783 0.3508 0.0
C853 C 0.29583 0.30258 0.35356 0.0
C854 C 0.30188 0.33543 0.31575 0.0
C855 C 0.3204 0.37416 0.34867 0.0
C856 C 0.31004 0.35753 0.3439 0.0
C857 C 0.29091 0.30904 0.33458 0.0
C858 C 0.29539 0.32547 0.3368 0.0
H859 H 0.35095 0.39731 0.38646 0.0
H860 H 0.33068 0.37068 0.38279 0.0
H861 H 0.3149 0.35867 0.30301 0.0
H862 H 0.27439 0.27842 0.29352 0.0
H863 H 0.27896 0.3047 0.2981 0.0
C864 C 0.28422 0.01595 0.66361 0.0
C865 C 0.27982 1.00522 0.68359 0.0
C866 C 0.29939 0.0279 0.66174 0.0
C867 C 0.33638 0.0483 0.69678 0.0
H868 H 0.35448 0.04842 0.63081 0.0
C869 C 0.39699 0.0592 0.68748 0.0
C870 C 0.40583 0.06601 0.6654 0.0
C871 C 0.3822 0.05677 0.68954 0.0
C872 C 0.34964 0.0489 0.64916 0.0
H873 H 0.28743 0.99862 0.71759 0.0
H874 H 0.31377 0.01969 0.71493 0.0
H875 H 0.32674 0.03495 0.63538 0.0
H876 H 0.40642 0.07625 0.62852 0.0
H877 H 0.38016 0.07181 0.63192 0.0
H878 H 0.35925 0.06173 0.71085 0.0
C879 C 0.3056 0.01906 0.7008 0.0
C880 C 0.3337 0.04114 0.6518 0.0
C881 C 0.29052 0.00702 0.70241 0.0
C882 C 0.39984 0.07105 0.64579 0.0
C883 C 0.3848 0.0684 0.64769 0.0
C884 C 0.35228 0.05614 0.6941 0.0
C885 C 0.31034 0.02934 0.67996 0.0
C886 C 0.32692 0.04022 0.67591 0.0
C887 C 0.37572 0.06095 0.66944 0.0
C888 C 0.35912 0.05596 0.67056 0.0
H889 H 0.2762 0.01452 0.64852 0.0
H890 H 0.30269 0.03564 0.64551 0.0
H891 H 0.33149 0.04802 0.71549 0.0
H892 H 0.40136 0.05525 0.70294 0.0
H893 H 0.37556 0.0508 0.70637 0.0
C894 C 0.96288 0.34346 0.68997 0.0
C895 C 0.95482 0.34465 0.66891 0.0
C896 C 0.96481 0.33084 0.69277 0.0
C897 C 0.96845 0.30264 0.65475 0.0
H898 H 0.97151 0.28831 0.72261 0.0
C899 C 0.99922 0.26805 0.67063 0.0
C900 C 0.011 0.27513 0.68884 0.0
C901 C 0.9877 0.27191 0.66919 0.0
C902 C 0.97059 0.29207 0.70349 0.0
H903 H 0.94194 0.33327 0.63465 0.0
H904 H 0.94557 0.31099 0.63928 0.0
H905 H 0.95901 0.30348 0.71754 0.0
H906 H 0.01984 0.29131 0.72025 0.0
H907 H 0.99953 0.29768 0.71847 0.0
H908 H 0.98064 0.29176 0.64092 0.0
C909 C 0.95033 0.31993 0.65369 0.0
C910 C 0.96344 0.30078 0.70057 0.0
C911 C 0.94817 0.3326 0.65109 0.0
C912 C 0.01064 0.28544 0.70649 0.0
C913 C 0.99903 0.28909 0.70537 0.0
C914 C 0.97554 0.29384 0.65767 0.0
C915 C 0.95885 0.31903 0.67446 0.0
C916 C 0.96291 0.30676 0.67636 0.0
C917 C 0.98772 0.28279 0.68615 0.0
C918 C 0.97726 0.28901 0.68225 0.0
H919 H 0.96804 0.35254 0.70413 0.0
H920 H 0.97164 0.33073 0.70876 0.0
H921 H 0.96832 0.30713 0.63587 0.0
H922 H 0.99953 0.26036 0.6564 0.0
H923 H 0.97914 0.26687 0.65419 0.0
C924 C 0.7397 0.72755 0.69142 0.0
C925 C 0.73355 0.73337 0.67339 0.0
C926 C 0.73725 0.71262 0.6886 0.0
C927 C 0.72466 0.68096 0.64063 0.0
H928 H 0.70639 0.65391 0.69898 0.0
C929 C 0.678 0.6183 0.63116 0.0
C930 C 0.67723 0.60747 0.64884 0.0
C931 C 0.68951 0.63359 0.63309 0.0
C932 C 0.71179 0.66132 0.6826 0.0
H933 H 0.72085 0.72856 0.63764 0.0
H934 H 0.71677 0.70299 0.63268 0.0
H935 H 0.71861 0.68153 0.70511 0.0
H936 H 0.6879 0.60392 0.6822 0.0
H937 H 0.70811 0.6308 0.68576 0.0
H938 H 0.71708 0.66075 0.61785 0.0
C939 C 0.72342 0.70971 0.64899 0.0
C940 C 0.71881 0.67718 0.68613 0.0
C941 C 0.72563 0.72436 0.652 0.0
C942 C 0.68855 0.61203 0.6679 0.0
C943 C 0.69996 0.62742 0.67013 0.0
C944 C 0.7176 0.66515 0.63708 0.0
C945 C 0.72894 0.70349 0.6674 0.0
C946 C 0.72477 0.68715 0.66498 0.0
C947 C 0.7003 0.63845 0.65317 0.0
C948 C 0.71056 0.65512 0.65783 0.0
H949 H 0.74581 0.73425 0.70811 0.0
H950 H 0.74167 0.70816 0.7031 0.0
H951 H 0.72942 0.68833 0.624 0.0
H952 H 0.66915 0.6151 0.61676 0.0
H953 H 0.68927 0.64179 0.61994 0.0
C954 C 0.3965 0.33989 0.63176 0.0
C955 C 0.40751 0.34071 0.64908 0.0
C956 C 0.38131 0.32813 0.63365 0.0
C957 C 0.35384 0.30498 0.68264 0.0
H958 H 0.32712 0.28675 0.62387 0.0
C959 C 0.28749 0.2755 0.69123 0.0
C960 C 0.2814 0.28128 0.67302 0.0
C961 C 0.30256 0.27832 0.68846 0.0
C962 C 0.33441 0.29167 0.64055 0.0
H963 H 0.4115 0.32992 0.6818 0.0
H964 H 0.38477 0.30931 0.68539 0.0
H965 H 0.35477 0.29995 0.61789 0.0
H966 H 0.28585 0.29366 0.63701 0.0
H967 H 0.31166 0.29842 0.63216 0.0
H968 H 0.33347 0.29753 0.70503 0.0
C969 C 0.38794 0.31761 0.67003 0.0
C970 C 0.35025 0.29922 0.63709 0.0
C971 C 0.40324 0.32926 0.6678 0.0
C972 C 0.29027 0.28916 0.6515 0.0
C973 C 0.30507 0.29176 0.64856 0.0
C974 C 0.33794 0.2975 0.68608 0.0
C975 C 0.37674 0.31714 0.65336 0.0
C976 C 0.36015 0.30646 0.65791 0.0
C977 C 0.31157 0.28665 0.66717 0.0
C978 C 0.32806 0.29131 0.66486 0.0
H979 H 0.39948 0.34884 0.61762 0.0
H980 H 0.37295 0.32826 0.62075 0.0
H981 H 0.36116 0.31052 0.69907 0.0
H982 H 0.28089 0.26941 0.70802 0.0
H983 H 0.30724 0.27421 0.70312 0.0
C984 C 0.73153 0.00751 0.70139 0.0
C985 C 0.73983 1.00497 0.68233 0.0
C986 C 0.7283 0.01938 0.69874 0.0
C987 C 0.7206 0.03935 0.64783 0.0
H988 H 0.71735 0.06234 0.70481 0.0
C989 C 0.68477 0.06956 0.63948 0.0
C990 C 0.67431 0.06553 0.65985 0.0
C991 C 0.69707 0.06678 0.64142 0.0
C992 C 0.71823 0.05606 0.68863 0.0
H993 H 0.75144 0.01277 0.64575 0.0
H994 H 0.74579 0.03359 0.64099 0.0
H995 H 0.73139 0.0487 0.71044 0.0
H996 H 0.66895 0.05647 0.69865 0.0
H997 H 0.69016 0.05179 0.70212 0.0
H998 H 0.70667 0.04593 0.62649 0.0
C999 C 0.74196 0.02658 0.65816 0.0
C1000 C 0.72629 0.04825 0.69188 0.0
C1001 C 0.74536 0.01481 0.66101 0.0
C1002 C 0.67684 0.05963 0.6826 0.0
C1003 C 0.68911 0.05707 0.68467 0.0
C1004 C 0.71245 0.04708 0.64463 0.0
C1005 C 0.73303 0.02873 0.67666 0.0
C1006 C 0.72711 0.03936 0.67181 0.0
C1007 C 0.69918 0.06021 0.66391 0.0
C1008 C 0.71065 0.05504 0.66532 0.0
H1009 H 0.72681 0.99978 0.71761 0.0
H1010 H 0.7212 0.02056 0.71315 0.0
H1011 H 0.72092 0.03252 0.63202 0.0
H1012 H 0.68299 0.07404 0.62169 0.0
H1013 H 0.70468 0.06939 0.62512 0.0
C1014 C 0.99934 0.73325 0.66871 0.0
C1015 C 0.01072 0.73783 0.68765 0.0
C1016 C 0.98754 0.71798 0.66729 0.0
C1017 C 0.9688 0.68096 0.7024 0.0
H1018 H 0.96741 0.66297 0.63573 0.0
C1019 C 0.95899 0.62083 0.69177 0.0
C1020 C 0.95164 0.6118 0.67011 0.0
C1021 C 0.96125 0.63554 0.69406 0.0
C1022 C 0.96728 0.66777 0.65432 0.0
H1023 H 0.01856 0.7304 0.72033 0.0
H1024 H 0.99775 0.70393 0.71857 0.0
H1025 H 0.9804 0.69071 0.64021 0.0
H1026 H 0.9403 0.61082 0.63424 0.0
H1027 H 0.94443 0.63696 0.63804 0.0
H1028 H 0.95622 0.65809 0.71676 0.0
C1029 C 0.99777 0.71203 0.70489 0.0
C1030 C 0.97477 0.68371 0.65691 0.0
C1031 C 1.00967 0.72719 0.706 0.0
C1032 C 0.94594 0.61755 0.65118 0.0
C1033 C 0.9484 0.63251 0.6533 0.0
C1034 C 0.96123 0.66507 0.69979 0.0
C1035 C 0.98688 0.70711 0.68498 0.0
C1036 C 0.97615 0.69047 0.6812 0.0
C1037 C 0.95634 0.64176 0.67463 0.0
C1038 C 0.96098 0.65827 0.67596 0.0
H1039 H 1.00018 0.7412 0.65393 0.0
H1040 H 0.97932 0.71454 0.65176 0.0
H1041 H 0.96946 0.68583 0.72128 0.0
H1042 H 0.96346 0.61666 0.70673 0.0
H1043 H 0.96761 0.64232 0.71054 0.0
C1044 C 0.25366 0.3975 0.00448 0.0
C1045 C 0.26786 0.40887 0.99485 0.0
C1046 C 0.24079 0.39917 0.00312 0.0
C1047 C 0.22676 0.42618 0.99708 0.0
H1048 H 0.1898 0.38975 0.97523 0.0
C1049 C 0.16618 0.42109 0.98752 0.0
C1050 C 0.15402 0.40743 0.99744 0.0
C1051 C 0.18097 0.42309 0.98573 0.0
C1052 C 0.19998 0.40001 0.98148 0.0
H1053 H 0.27967 0.43125 0.977 0.0
H1054 H 0.25693 0.43419 0.97474 0.0
H1055 H 0.21402 0.39011 0.97455 0.0
H1056 H 0.14814 0.38547 0.01418 0.0
H1057 H 0.1736 0.38897 0.01115 0.0
H1058 H 0.21244 0.43591 0.00447 0.0
C1059 C 0.25591 0.42396 0.98328 0.0
C1060 C 0.21389 0.40023 0.98107 0.0
C1061 C 0.26891 0.42225 0.98453 0.0
C1062 C 0.15711 0.39608 0.00616 0.0
C1063 C 0.17175 0.39805 0.0043 0.0
C1064 C 0.21272 0.42596 0.99752 0.0
C1065 C 0.24164 0.41225 0.99212 0.0
C1066 C 0.22739 0.41312 0.98955 0.0
C1067 C 0.18383 0.41142 0.99364 0.0
C1068 C 0.1991 0.41268 0.99042 0.0
H1069 H 0.25234 0.3871 0.01284 0.0
H1070 H 0.23007 0.39008 0.01064 0.0
H1071 H 0.23696 0.43629 0.00372 0.0
H1072 H 0.16421 0.43008 0.98067 0.0
H1073 H 0.19005 0.43354 0.97746 0.0
C1074 C 0.59185 0.74695 0.9917 0.0
C1075 C 0.60497 0.7473 0.00168 0.0
C1076 C 0.59019 0.75994 0.99308 0.0
C1077 C 0.60524 0.79705 0.02764 0.0
H1078 H 0.59213 0.81 0.96727 0.0
C1079 C 0.6194 0.85914 0.01393 0.0
C1080 C 0.60841 0.86213 0.00311 0.0
C1081 C 0.61694 0.84426 0.01505 0.0
C1082 C 0.59559 0.80643 0.98444 0.0
H1083 H 0.6265 0.7616 0.02127 0.0
H1084 H 0.62365 0.78398 0.02355 0.0
H1085 H 0.59134 0.7854 0.967 0.0
H1086 H 0.58608 0.85167 0.98507 0.0
H1087 H 0.58178 0.82556 0.98695 0.0
H1088 H 0.60983 0.81816 0.04488 0.0
C1089 C 0.61453 0.77371 0.01488 0.0
C1090 C 0.59513 0.79231 0.98429 0.0
C1091 C 0.61622 0.76084 0.0134 0.0
C1092 C 0.59478 0.84977 0.99357 0.0
C1093 C 0.59235 0.83483 0.99451 0.0
C1094 C 0.60573 0.81111 0.02776 0.0
C1095 C 0.60155 0.7735 0.00468 0.0
C1096 C 0.60029 0.78761 0.00569 0.0
C1097 C 0.60342 0.8319 0.00528 0.0
C1098 C 0.60125 0.81616 0.00597 0.0
H1099 H 0.58297 0.73673 0.9825 0.0
H1100 H 0.57999 0.75935 0.98516 0.0
H1101 H 0.60897 0.79365 0.04469 0.0
H1102 H 0.63005 0.86833 0.02144 0.0
H1103 H 0.62582 0.8425 0.02311 0.0
C1104 C 0.16729 0.74853 0.99252 0.0
C1105 C 0.15458 0.7491 0.00223 0.0
C1106 C 0.18202 0.76139 0.99399 0.0
C1107 C 0.20437 0.79849 0.02839 0.0
H1108 H 0.23077 0.81088 0.96842 0.0
C1109 C 0.2534 0.86014 0.01487 0.0
C1110 C 0.26729 0.8628 0.00409 0.0
C1111 C 0.24077 0.84539 0.01603 0.0
C1112 C 0.22365 0.80747 0.98549 0.0
H1113 H 0.14751 0.76365 0.0214 0.0
H1114 H 0.17291 0.78584 0.02384 0.0
H1115 H 0.20667 0.78656 0.968 0.0
H1116 H 0.27877 0.85189 0.9862 0.0
H1117 H 0.25658 0.82601 0.98818 0.0
H1118 H 0.2211 0.81948 0.04569 0.0
C1119 C 0.17164 0.77548 0.01532 0.0
C1120 C 0.20983 0.79351 0.98525 0.0
C1121 C 0.15699 0.76273 0.01375 0.0
C1122 C 0.26826 0.85025 0.99468 0.0
C1123 C 0.25552 0.83543 0.99567 0.0
C1124 C 0.21813 0.8124 0.02861 0.0
C1125 C 0.18436 0.77505 0.0054 0.0
C1126 C 0.19984 0.78901 0.0065 0.0
C1127 C 0.2416 0.83283 0.00635 0.0
C1128 C 0.2278 0.81725 0.00697 0.0
H1129 H 0.16585 0.73824 0.98348 0.0
H1130 H 0.19158 0.76062 0.9863 0.0
H1131 H 0.19715 0.79526 0.04533 0.0
H1132 H 0.25218 0.86949 0.02229 0.0
H1133 H 0.2302 0.84388 0.02403 0.0
C1134 C 0.40549 0.25362 0.99163 0.0
C1135 C 0.41609 0.26698 0.00459 0.0
C1136 C 0.4076 0.24101 0.99009 0.0
C1137 C 0.42609 0.22212 0.02232 0.0
H1138 H 0.41514 0.19845 0.95919 0.0
C1139 C 0.42642 0.16457 0.01217 0.0
C1140 C 0.4133 0.15275 1.00031 0.0
C1141 C 0.4292 0.17967 0.01186 0.0
C1142 C 0.41821 0.20489 0.97701 0.0
H1143 H 0.43734 0.27753 0.02603 0.0
H1144 H 0.44102 0.25532 0.02342 0.0
H1145 H 0.41566 0.22279 0.96012 0.0
H1146 H 0.39297 0.14767 0.97846 0.0
H1147 H 0.39778 0.17367 0.97793 0.0
H1148 H 0.42825 0.20392 0.03934 0.0
C1149 C 0.43104 0.25469 0.01448 0.0
C1150 C 0.4185 0.21886 0.97754 0.0
C1151 C 0.42898 0.26744 0.01583 0.0
C1152 C 0.40321 0.15643 0.98781 0.0
C1153 C 0.40602 0.17142 0.98733 0.0
C1154 C 0.42578 0.20807 0.02179 0.0
C1155 C 0.42035 0.24131 0.00156 0.0
C1156 C 0.42204 0.22747 1.00036 0.0
C1157 C 0.419 0.18326 0.99939 0.0
C1158 C 0.42142 0.19909 0.9993 0.0
H1159 H 0.39541 0.25281 0.98274 0.0
H1160 H 0.39901 0.23085 0.98034 0.0
H1161 H 0.4288 0.22842 0.04025 0.0
H1162 H 0.43441 0.16213 0.02203 0.0
H1163 H 0.43934 0.18853 0.02126 0.0
C1164 C 0.85242 0.26719 0.01041 0.0
C1165 C 0.86486 0.26646 0.99978 0.0
C1166 C 0.83763 0.25438 0.00981 0.0
C1167 C 0.81418 0.21742 0.97605 0.0
H1168 H 0.78989 0.20456 0.03852 0.0
C1169 C 0.76645 0.15559 0.99064 0.0
C1170 C 0.75285 0.15241 0.00327 0.0
C1171 C 0.77879 0.17046 0.98921 0.0
C1172 C 0.79639 0.20812 0.02078 0.0
H1173 H 0.87138 0.25174 0.97974 0.0
H1174 H 0.8458 0.22964 0.97858 0.0
H1175 H 0.81391 0.22898 0.03762 0.0
H1176 H 0.74163 0.1626 0.02427 0.0
H1177 H 0.76337 0.1888 0.02176 0.0
H1178 H 0.79691 0.19654 0.95929 0.0
C1179 C 0.84738 0.24007 0.9873 0.0
C1180 C 0.81017 0.22212 0.02027 0.0
C1181 C 0.8621 0.25276 0.98811 0.0
C1182 C 0.75192 0.16463 0.01436 0.0
C1183 C 0.76439 0.17962 0.01304 0.0
C1184 C 0.80044 0.2035 0.97654 0.0
C1185 C 0.83495 0.24064 0.99827 0.0
C1186 C 0.81943 0.22674 0.99808 0.0
C1187 C 0.77799 0.18271 1.00038 0.0
C1188 C 0.79155 0.19845 0.99911 0.0
H1189 H 0.85414 0.27754 0.01963 0.0
H1190 H 0.8283 0.25523 0.01831 0.0
H1191 H 0.82084 0.22077 0.95846 0.0
H1192 H 0.76767 0.14652 0.98189 0.0
H1193 H 0.78913 0.1723 0.97974 0.0
C1194 C 0.85246 0.5902 0.01554 0.0
C1195 C 0.864 0.60282 0.00216 0.0
C1196 C 0.83734 0.58738 0.01554 0.0
C1197 C 0.81122 0.59642 0.9792 0.0
H1198 H 0.78966 0.59025 0.04386 0.0
C1199 C 0.76466 0.61223 0.99124 0.0
C1200 C 0.75148 0.60291 0.00581 0.0
C1201 C 0.77675 0.6093 0.99021 0.0
C1202 C 0.79538 0.59168 0.02557 0.0
H1203 H 0.86856 0.62211 0.97786 0.0
H1204 H 0.84247 0.61715 0.97771 0.0
H1205 H 0.81392 0.59025 0.043 0.0
H1206 H 0.74071 0.58306 0.0307 0.0
H1207 H 0.76209 0.57796 0.02904 0.0
H1208 H 0.79303 0.59827 0.96181 0.0
C1209 C 0.84498 0.60939 0.98817 0.0
C1210 C 0.80929 0.59168 0.02509 0.0
C1211 C 0.86001 0.6123 0.98841 0.0
C1212 C 0.75067 0.59043 0.01923 0.0
C1213 C 0.76294 0.58757 0.01839 0.0
C1214 C 0.79738 0.5964 0.97968 0.0
C1215 C 0.83344 0.59696 0.00181 0.0
C1216 C 0.8176 0.59454 0.002 0.0
C1217 C 0.77613 0.59698 0.0038 0.0
C1218 C 0.78952 0.59453 0.00297 0.0
H1219 H 0.85516 0.58272 0.0264 0.0
H1220 H 0.82869 0.57768 0.02619 0.0
H1221 H 0.81714 0.59832 0.96099 0.0
H1222 H 0.76574 0.62194 0.98062 0.0
H1223 H 0.78679 0.61696 0.97914 0.0
C1224 C 0.82509 0.73433 0.34079 0.0
C1225 C 0.82284 0.74588 0.33029 0.0
C1226 C 0.83941 0.73543 0.33997 0.0
C1227 C 0.88084 0.76149 0.33223 0.0
H1228 H 0.88 0.72395 0.31339 0.0
C1229 C 0.93547 0.75527 0.31999 0.0
C1230 C 0.93415 0.74182 0.33052 0.0
C1231 C 0.9227 0.75735 0.31898 0.0
C1232 C 0.88047 0.73452 0.31885 0.0
H1233 H 0.8342 0.768 0.3115 0.0
H1234 H 0.85942 0.76992 0.3101 0.0
H1235 H 0.85641 0.72481 0.31359 0.0
H1236 H 0.91846 0.72037 0.34921 0.0
H1237 H 0.89659 0.72404 0.34758 0.0
H1238 H 0.90503 0.77107 0.33777 0.0
C1239 C 0.84996 0.76 0.31898 0.0
C1240 C 0.86691 0.73501 0.31897 0.0
C1241 C 0.83551 0.75889 0.31974 0.0
C1242 C 0.91995 0.7308 0.34066 0.0
C1243 C 0.90731 0.73286 0.33961 0.0
C1244 C 0.8945 0.76099 0.33213 0.0
C1245 C 0.85197 0.7481 0.3286 0.0
C1246 C 0.86682 0.74836 0.32626 0.0
C1247 C 0.90839 0.746 0.32835 0.0
C1248 C 0.89439 0.74735 0.32604 0.0
H1249 H 0.8157 0.72421 0.34934 0.0
H1250 H 0.8406 0.72621 0.34811 0.0
H1251 H 0.88116 0.77195 0.33791 0.0
H1252 H 0.94624 0.764 0.31206 0.0
H1253 H 0.92392 0.76762 0.31019 0.0
C1254 C 0.26077 0.18364 0.31819 0.0
C1255 C 0.27361 0.19549 0.33067 0.0
C1256 C 0.25879 0.16883 0.31686 0.0
C1257 C 0.28188 0.14981 0.31934 0.0
H1258 H 0.24402 0.11226 0.33308 0.0
C1259 C 0.28238 0.09481 0.34032 0.0
C1260 C 0.27165 0.08123 0.32804 0.0
C1261 C 0.28088 0.10779 0.3397 0.0
C1262 C 0.25462 0.12264 0.32888 0.0
H1263 H 0.29397 0.20077 0.35261 0.0
H1264 H 0.29047 0.1753 0.3504 0.0
H1265 H 0.24445 0.1368 0.33353 0.0
H1266 H 0.25048 0.07054 0.30635 0.0
H1267 H 0.24785 0.09346 0.30526 0.0
H1268 H 0.29216 0.13592 0.31495 0.0
C1269 C 0.28209 0.1774 0.34116 0.0
C1270 C 0.25487 0.13669 0.32913 0.0
C1271 C 0.28405 0.19205 0.34252 0.0
C1272 C 0.25896 0.08082 0.31597 0.0
C1273 C 0.25745 0.09393 0.31537 0.0
C1274 C 0.28164 0.13589 0.31909 0.0
C1275 C 0.26965 0.16566 0.32786 0.0
C1276 C 0.26862 0.15048 0.32501 0.0
C1277 C 0.26862 0.10768 0.32673 0.0
C1278 C 0.26813 0.12215 0.32451 0.0
H1279 H 0.25251 0.18588 0.3089 0.0
H1280 H 0.24906 0.16002 0.30651 0.0
H1281 H 0.29259 0.16015 0.3154 0.0
H1282 H 0.29219 0.09557 0.35012 0.0
H1283 H 0.28949 0.11805 0.34921 0.0
C1284 C 0.8339 0.08006 0.31728 0.0
C1285 C 0.82163 0.08076 0.32873 0.0
C1286 C 0.84849 0.0932 0.31585 0.0
C1287 C 0.86613 0.1352 0.31564 0.0
H1288 H 0.9042 0.13688 0.33343 0.0
C1289 C 0.91936 0.19206 0.33812 0.0
C1290 C 0.9335 0.19533 0.32751 0.0
C1291 C 0.9067 0.17738 0.33681 0.0
C1292 C 0.89368 0.13654 0.32806 0.0
H1293 H 0.81537 0.09572 0.34876 0.0
H1294 H 0.84046 0.11824 0.34635 0.0
H1295 H 0.88019 0.11223 0.33379 0.0
H1296 H 0.94543 0.18542 0.30789 0.0
H1297 H 0.92307 0.15952 0.30563 0.0
H1298 H 0.87935 0.15936 0.31024 0.0
C1299 C 0.83886 0.10772 0.33799 0.0
C1300 C 0.87994 0.12243 0.32827 0.0
C1301 C 0.82443 0.09471 0.33948 0.0
C1302 C 0.93472 0.18331 0.31621 0.0
C1303 C 0.92193 0.16848 0.31496 0.0
C1304 C 0.87975 0.14919 0.31543 0.0
C1305 C 0.85101 0.10727 0.3257 0.0
C1306 C 0.86595 0.1217 0.32274 0.0
C1307 C 0.90769 0.16544 0.32483 0.0
C1308 C 0.89365 0.15014 0.32231 0.0
H1309 H 0.83216 0.06951 0.30885 0.0
H1310 H 0.85764 0.09248 0.3063 0.0
H1311 H 0.85563 0.13501 0.31062 0.0
H1312 H 0.91795 0.20091 0.34725 0.0
H1313 H 0.89603 0.1754 0.34515 0.0
C1314 C 0.06467 0.48524 0.32431 0.0
C1315 C 0.07672 0.48323 0.33304 0.0
C1316 C 0.06585 0.4996 0.32496 0.0
C1317 C 0.09294 0.54123 0.32973 0.0
H1318 H 0.05657 0.54186 0.35166 0.0
C1319 C 0.09038 0.59733 0.34629 0.0
C1320 C 0.07701 0.597 0.33767 0.0
C1321 C 0.09151 0.58402 0.34588 0.0
C1322 C 0.0668 0.54191 0.34525 0.0
H1323 H 0.0997 0.49498 0.34866 0.0
H1324 H 0.10172 0.52017 0.34992 0.0
H1325 H 0.05649 0.5178 0.35059 0.0
H1326 H 0.05458 0.58245 0.32101 0.0
H1327 H 0.0566 0.55955 0.32013 0.0
H1328 H 0.10319 0.56548 0.32438 0.0
C1329 C 0.09137 0.51056 0.34244 0.0
C1330 C 0.06675 0.52808 0.34462 0.0
C1331 C 0.09019 0.49611 0.34179 0.0
C1332 C 0.06501 0.58317 0.32805 0.0
C1333 C 0.06612 0.56995 0.32768 0.0
C1334 C 0.09299 0.55515 0.33038 0.0
C1335 C 0.07909 0.51242 0.33443 0.0
C1336 C 0.07971 0.52747 0.33644 0.0
C1337 C 0.07926 0.5701 0.33695 0.0
C1338 C 0.07981 0.55561 0.33774 0.0
H1339 H 0.05417 0.47565 0.31721 0.0
H1340 H 0.05629 0.50064 0.31807 0.0
H1341 H 0.1031 0.54118 0.32325 0.0
H1342 H 0.09985 0.60778 0.35381 0.0
H1343 H 0.10178 0.58453 0.35323 0.0
C1344 C 0.52968 0.58324 0.33141 0.0
C1345 C 0.53289 0.59735 0.34199 0.0
C1346 C 0.51501 0.57057 0.33253 0.0
C1347 C 0.47411 0.55753 0.34058 0.0
H1348 H 0.47244 0.51944 0.35813 0.0
C1349 C 0.41736 0.49833 0.35142 0.0
C1350 C 0.41781 0.48576 0.34068 0.0
C1351 C 0.43065 0.51278 0.35259 0.0
C1352 C 0.47267 0.52994 0.35301 0.0
H1353 H 0.52285 0.60924 0.36137 0.0
H1354 H 0.49694 0.58686 0.36331 0.0
H1355 H 0.49682 0.54312 0.3587 0.0
H1356 H 0.43253 0.47881 0.32175 0.0
H1357 H 0.45538 0.50373 0.32363 0.0
H1358 H 0.44982 0.54411 0.33461 0.0
C1359 C 0.50597 0.58574 0.35414 0.0
C1360 C 0.48667 0.54354 0.35337 0.0
C1361 C 0.5208 0.59854 0.35309 0.0
C1362 C 0.43171 0.48812 0.33042 0.0
C1363 C 0.4449 0.50245 0.33163 0.0
C1364 C 0.45999 0.54381 0.34022 0.0
C1365 C 0.503 0.57152 0.34428 0.0
C1366 C 0.48767 0.55747 0.34653 0.0
C1367 C 0.44466 0.51491 0.34316 0.0
C1368 C 0.45919 0.5298 0.34581 0.0
H1369 H 0.53858 0.58184 0.32243 0.0
H1370 H 0.51309 0.55992 0.32419 0.0
H1371 H 0.47449 0.56807 0.3352 0.0
H1372 H 0.40684 0.49692 0.35948 0.0
H1373 H 0.43008 0.52214 0.36159 0.0
C1374 C 0.43482 0.95327 0.32255 0.0
C1375 C 0.42085 0.94127 0.33171 0.0
C1376 C 0.44798 0.95203 0.32241 0.0
C1377 C 0.46249 0.9249 0.32523 0.0
H1378 H 0.49973 0.96104 0.34699 0.0
C1379 C 0.52117 0.92708 0.33869 0.0
C1380 C 0.53423 0.94058 0.33054 0.0
C1381 C 0.50675 0.92602 0.33883 0.0
C1382 C 0.48949 0.95088 0.34059 0.0
H1383 H 0.40975 0.91828 0.34722 0.0
H1384 H 0.43287 0.91611 0.34703 0.0
H1385 H 0.47576 0.96117 0.34721 0.0
H1386 H 0.54218 0.96331 0.31522 0.0
H1387 H 0.51728 0.96139 0.31518 0.0
H1388 H 0.4764 0.91468 0.31853 0.0
C1389 C 0.43355 0.92649 0.33987 0.0
C1390 C 0.4757 0.95095 0.34072 0.0
C1391 C 0.42031 0.92775 0.34004 0.0
C1392 C 0.53245 0.95278 0.32187 0.0
C1393 C 0.51813 0.95172 0.32201 0.0
C1394 C 0.47636 0.92484 0.32507 0.0
C1395 C 0.44762 0.93875 0.33146 0.0
C1396 C 0.46205 0.93808 0.33265 0.0
C1397 C 0.50511 0.93844 0.33089 0.0
C1398 C 0.49009 0.93794 0.33235 0.0
H1399 H 0.43571 0.96382 0.31575 0.0
H1400 H 0.4585 0.96157 0.31525 0.0
H1401 H 0.4522 0.9148 0.31881 0.0
H1402 H 0.52212 0.91747 0.3455 0.0
H1403 H 0.49699 0.91564 0.34587 0.0
C1404 C 0.60132 0.08661 0.65217 0.0
C1405 C 0.60052 0.07336 0.66255 0.0
C1406 C 0.58826 0.0882 0.65148 0.0
C1407 C 0.54613 0.06437 0.6518 0.0
H1408 H 0.5456 0.10094 0.67263 0.0
C1409 C 0.48995 0.06198 0.67605 0.0
C1410 C 0.48723 0.07345 0.66661 0.0
C1411 C 0.50443 0.06353 0.67445 0.0
C1412 C 0.54562 0.09072 0.66643 0.0
H1413 H 0.58541 0.05168 0.68117 0.0
H1414 H 0.563 0.0545 0.68002 0.0
H1415 H 0.56991 0.10094 0.67157 0.0
H1416 H 0.49791 0.09585 0.64883 0.0
H1417 H 0.52343 0.09855 0.64602 0.0
H1418 H 0.52198 0.05404 0.6469 0.0
C1419 C 0.57357 0.06355 0.67199 0.0
C1420 C 0.55953 0.09072 0.66582 0.0
C1421 C 0.58651 0.06199 0.67276 0.0
C1422 C 0.49959 0.08679 0.65625 0.0
C1423 C 0.51421 0.08835 0.65468 0.0
C1424 C 0.53233 0.06437 0.6524 0.0
C1425 C 0.57416 0.07653 0.66098 0.0
C1426 C 0.55987 0.07739 0.65911 0.0
C1427 C 0.5167 0.07657 0.66333 0.0
C1428 C 0.5318 0.07739 0.66034 0.0
H1429 H 0.61193 0.0956 0.64419 0.0
H1430 H 0.58909 0.09835 0.64288 0.0
H1431 H 0.54602 0.05403 0.64589 0.0
H1432 H 0.4808 0.05161 0.68442 0.0
H1433 H 0.506 0.05438 0.68187 0.0
C1434 C 0.95864 0.43282 0.67583 0.0
C1435 C 0.94689 0.41837 0.66789 0.0
C1436 C 0.9568 0.44559 0.67472 0.0
C1437 C 0.92876 0.45873 0.67186 0.0
H1438 H 0.96397 0.49594 0.64739 0.0
C1439 C 0.93127 0.518 0.66104 0.0
C1440 C 0.94489 0.53062 0.67003 0.0
C1441 C 0.92985 0.50343 0.65957 0.0
C1442 C 0.95405 0.48568 0.6544 0.0
H1443 H 0.92371 0.40604 0.65319 0.0
H1444 H 0.92048 0.42856 0.65126 0.0
H1445 H 0.96443 0.47214 0.64684 0.0
H1446 H 0.96744 0.53759 0.68537 0.0
H1447 H 0.96493 0.51252 0.68287 0.0
H1448 H 0.91852 0.47254 0.6797 0.0
C1449 C 0.93115 0.42988 0.65836 0.0
C1450 C 0.95431 0.47201 0.6541 0.0
C1451 C 0.93302 0.41699 0.6594 0.0
C1452 C 0.95683 0.52823 0.6781 0.0
C1453 C 0.95543 0.51382 0.67653 0.0
C1454 C 0.9285 0.47251 0.67215 0.0
C1455 C 0.94315 0.44438 0.66563 0.0
C1456 C 0.94186 0.45843 0.66345 0.0
C1457 C 0.94206 0.50127 0.66686 0.0
C1458 C 0.94132 0.48622 0.66405 0.0
H1459 H 0.96945 0.43437 0.68272 0.0
H1460 H 0.96616 0.45649 0.68103 0.0
H1461 H 0.91899 0.44846 0.6792 0.0
H1462 H 0.92185 0.51942 0.65471 0.0
H1463 H 0.91939 0.49398 0.65205 0.0
C1464 C 0.60335 0.51419 0.65485 0.0
C1465 C 0.60311 0.52692 0.66534 0.0
C1466 C 0.59001 0.49975 0.65446 0.0
C1467 C 0.54795 0.48263 0.65616 0.0
H1468 H 0.54672 0.44463 0.67271 0.0
C1469 C 0.491 0.42816 0.67496 0.0
C1470 C 0.4885 0.41431 0.66423 0.0
C1471 C 0.50552 0.44113 0.67475 0.0
C1472 C 0.54691 0.45513 0.66775 0.0
H1473 H 0.58876 0.5342 0.68466 0.0
H1474 H 0.56584 0.50929 0.68418 0.0
H1475 H 0.57123 0.46868 0.673 0.0
H1476 H 0.49956 0.40322 0.64555 0.0
H1477 H 0.52508 0.42606 0.6451 0.0
H1478 H 0.52378 0.46929 0.65098 0.0
C1479 C 0.57617 0.51042 0.67575 0.0
C1480 C 0.56096 0.46891 0.66791 0.0
C1481 C 0.5894 0.52474 0.67615 0.0
C1482 C 0.50107 0.41369 0.65395 0.0
C1483 C 0.5157 0.42677 0.65376 0.0
C1484 C 0.53401 0.46895 0.65599 0.0
C1485 C 0.57618 0.49779 0.66446 0.0
C1486 C 0.56159 0.48287 0.6626 0.0
C1487 C 0.51803 0.44073 0.66375 0.0
C1488 C 0.53322 0.45504 0.66226 0.0
H1489 H 0.61371 0.51545 0.64637 0.0
H1490 H 0.59041 0.49026 0.6456 0.0
H1491 H 0.54803 0.49309 0.65129 0.0
H1492 H 0.48167 0.42909 0.6833 0.0
H1493 H 0.50692 0.45157 0.68317 0.0
C1494 C 0.75896 0.93115 0.68379 0.0
C1495 C 0.7457 0.93038 0.67351 0.0
C1496 C 0.76033 0.91798 0.6852 0.0
C1497 C 0.73599 0.87593 0.68727 0.0
H1498 H 0.77227 0.87451 0.66747 0.0
C1499 C 0.73276 0.81921 0.66523 0.0
C1500 C 0.74395 0.81622 0.67517 0.0
C1501 C 0.73457 0.8338 0.6665 0.0
C1502 C 0.76214 0.87478 0.67341 0.0
H1503 H 0.72375 0.91519 0.65581 0.0
H1504 H 0.72617 0.89256 0.65815 0.0
H1505 H 0.77258 0.89897 0.66682 0.0
H1506 H 0.76617 0.82656 0.69358 0.0
H1507 H 0.76938 0.85233 0.69575 0.0
H1508 H 0.72544 0.85187 0.69354 0.0
C1509 C 0.73542 0.9032 0.66556 0.0
C1510 C 0.76231 0.88878 0.67302 0.0
C1511 C 0.73408 0.91626 0.66408 0.0
C1512 C 0.75731 0.82844 0.6858 0.0
C1513 C 0.75916 0.84319 0.68699 0.0
C1514 C 0.73583 0.86204 0.68766 0.0
C1515 C 0.74842 0.90378 0.67653 0.0
C1516 C 0.74908 0.88942 0.67931 0.0
C1517 C 0.74764 0.84594 0.67776 0.0
C1518 C 0.74874 0.86118 0.68009 0.0
H1519 H 0.76814 0.94183 0.69121 0.0
H1520 H 0.77049 0.91882 0.69377 0.0
H1521 H 0.72573 0.87605 0.69292 0.0
H1522 H 0.72238 0.8102 0.65663 0.0
H1523 H 0.72563 0.83555 0.65866 0.0
C1524 C 0.0991 0.81956 0.65841 0.0
C1525 C 0.08535 0.81752 0.66883 0.0
C1526 C 0.11238 0.83385 0.6588 0.0
C1527 C 0.12762 0.87544 0.66599 0.0
H1528 H 0.16472 0.87513 0.68384 0.0
C1529 C 0.1872 0.93081 0.68043 0.0
C1530 C 0.19989 0.93029 0.67042 0.0
C1531 C 0.17264 0.91765 0.6806 0.0
C1532 C 0.15452 0.87545 0.67857 0.0
H1533 H 0.07475 0.82919 0.68711 0.0
H1534 H 0.09811 0.8543 0.68787 0.0
H1535 H 0.14049 0.85131 0.68331 0.0
H1536 H 0.20701 0.91558 0.65197 0.0
H1537 H 0.18186 0.89294 0.65206 0.0
H1538 H 0.14185 0.8997 0.66116 0.0
C1539 C 0.09851 0.84474 0.67931 0.0
C1540 C 0.14058 0.86176 0.67826 0.0
C1541 C 0.08514 0.83034 0.67892 0.0
C1542 C 0.19758 0.91643 0.66006 0.0
C1543 C 0.18312 0.90337 0.66026 0.0
C1544 C 0.14165 0.88922 0.66629 0.0
C1545 C 0.11237 0.84658 0.66969 0.0
C1546 C 0.12697 0.86149 0.67152 0.0
C1547 C 0.17049 0.90369 0.67087 0.0
C1548 C 0.15532 0.88935 0.67214 0.0
H1549 H 0.09972 0.81002 0.65023 0.0
H1550 H 0.12273 0.83489 0.65067 0.0
H1551 H 0.11737 0.87565 0.66065 0.0
H1552 H 0.18856 0.94128 0.68856 0.0
H1553 H 0.16317 0.9183 0.68899 0.0
C1554 C 0.19445 0.27902 0.65713 0.0
C1555 C 0.1979 0.26886 0.66997 0.0
C1556 C 0.17952 0.27637 0.65625 0.0
C1557 C 0.14256 0.25699 0.68998 0.0
H1558 H 0.12851 0.26727 0.62767 0.0
C1559 C 0.08335 0.25395 0.68227 0.0
C1560 C 0.0838 0.26675 0.67065 0.0
C1561 C 0.09613 0.25193 0.68135 0.0
C1562 C 0.13226 0.2644 0.64527 0.0
H1563 H 0.18817 0.24782 0.69189 0.0
H1564 H 0.16187 0.24318 0.69042 0.0
H1565 H 0.15276 0.26758 0.62751 0.0
H1566 H 0.09804 0.28731 0.64861 0.0
H1567 H 0.12009 0.28379 0.64698 0.0
H1568 H 0.12212 0.25413 0.70782 0.0
C1569 C 0.17087 0.25324 0.68106 0.0
C1570 C 0.14618 0.26457 0.64518 0.0
C1571 C 0.18591 0.25585 0.68178 0.0
C1572 C 0.09722 0.2773 0.65776 0.0
C1573 C 0.10989 0.27523 0.65667 0.0
C1574 C 0.12857 0.25681 0.69005 0.0
C1575 C 0.16751 0.2635 0.66824 0.0
C1576 C 0.15173 0.26128 0.6677 0.0
C1577 C 0.10957 0.26258 0.66853 0.0
C1578 C 0.12345 0.2609 0.66786 0.0
H1579 H 0.20334 0.28917 0.6478 0.0
H1580 H 0.17746 0.28467 0.64659 0.0
H1581 H 0.14652 0.25447 0.70769 0.0
H1582 H 0.07322 0.24562 0.69243 0.0
H1583 H 0.09548 0.24201 0.69057 0.0
C1584 C 0.07615 0.43713 0.24607 0.0
C1585 C 0.06185 0.42778 0.25754 0.0
C1586 C 0.0803 0.43251 0.2236 0.0
C1587 C 0.06556 0.40365 0.17054 0.0
H1588 H 0.10798 0.41376 0.16768 0.0
C1589 C 0.08849 0.379 0.09285 0.0
C1590 C 0.10107 0.39026 0.07907 0.0
C1591 C 0.08379 0.38272 0.11579 0.0
C1592 C 0.09611 0.41086 0.16822 0.0
H1593 H 0.04041 0.40653 0.25392 0.0
H1594 H 0.04775 0.39822 0.215 0.0
H1595 H 0.09901 0.42234 0.20407 0.0
H1596 H 0.11909 0.41397 0.07918 0.0
H1597 H 0.1112 0.42032 0.1196 0.0
H1598 H 0.06273 0.39189 0.13475 0.0
C1599 C 0.0557 0.40929 0.22302 0.0
C1600 C 0.09096 0.4159 0.18896 0.0
C1601 C 0.05145 0.41405 0.24534 0.0
C1602 C 0.10939 0.40504 0.08944 0.0
C1603 C 0.10487 0.40868 0.11257 0.0
C1604 C 0.07069 0.39843 0.14994 0.0
C1605 C 0.07038 0.41826 0.21228 0.0
C1606 C 0.07566 0.41256 0.19026 0.0
C1607 C 0.09177 0.39768 0.12559 0.0
C1608 C 0.08606 0.40214 0.14844 0.0
H1609 H 0.08436 0.44783 0.25497 0.0
H1610 H 0.09149 0.43999 0.21549 0.0
H1611 H 0.05376 0.40096 0.17067 0.0
H1612 H 0.08175 0.36755 0.08518 0.0
H1613 H 0.07373 0.37399 0.12558 0.0
C1614 C 0.59176 0.63143 0.24097 0.0
C1615 C 0.58398 0.63465 0.26021 0.0
C1616 C 0.59562 0.63948 0.2176 0.0
C1617 C 0.61097 0.66507 0.1778 0.0
H1618 H 0.58412 0.67826 0.14884 0.0
C1619 C 0.62968 0.70843 0.0931 0.0
C1620 C 0.61849 0.70543 0.07435 0.0
C1621 C 0.6257 0.70014 0.11625 0.0
C1622 C 0.59174 0.67458 0.15644 0.0
H1623 H 0.57376 0.64854 0.26958 0.0
H1624 H 0.58074 0.66262 0.22969 0.0
H1625 H 0.57581 0.66149 0.18585 0.0
H1626 H 0.59431 0.69151 0.06547 0.0
H1627 H 0.58758 0.67702 0.10489 0.0
H1628 H 0.6266 0.67769 0.14744 0.0
C1629 C 0.58365 0.65375 0.23214 0.0
C1630 C 0.58703 0.66508 0.17797 0.0
C1631 C 0.5797 0.64567 0.25522 0.0
C1632 C 0.60326 0.69425 0.07948 0.0
C1633 C 0.59935 0.68594 0.1023 0.0
C1634 C 0.61561 0.67444 0.15593 0.0
C1635 C 0.59182 0.65093 0.2131 0.0
C1636 C 0.5966 0.66027 0.18911 0.0
C1637 C 0.61048 0.68868 0.12099 0.0
C1638 C 0.60603 0.67931 0.14495 0.0
H1639 H 0.59527 0.62305 0.24425 0.0
H1640 H 0.60171 0.63684 0.2032 0.0
H1641 H 0.61874 0.66178 0.18605 0.0
H1642 H 0.64152 0.71692 0.0897 0.0
H1643 H 0.63454 0.70269 0.13037 0.0
C1644 C 0.30715 0.93246 0.09002 0.0
C1645 C 0.30513 0.91922 0.07757 0.0
C1646 C 0.3152 0.93721 0.11333 0.0
C1647 C 0.32828 0.92411 0.16878 0.0
H1648 H 0.36267 0.96547 0.171 0.0
C1649 C 0.37348 0.94189 0.24796 0.0
C1650 C 0.3794 0.95646 0.25896 0.0
C1651 C 0.36476 0.93805 0.22546 0.0
C1652 C 0.353 0.95396 0.17092 0.0
H1653 H 0.30922 0.90017 0.08038 0.0
H1654 H 0.32281 0.90818 0.12131 0.0
H1655 H 0.34533 0.95714 0.13411 0.0
H1656 H 0.38127 0.97864 0.25448 0.0
H1657 H 0.36573 0.97186 0.21544 0.0
H1658 H 0.33566 0.92086 0.20556 0.0
C1659 C 0.31834 0.91499 0.113 0.0
C1660 C 0.34306 0.9492 0.14977 0.0
C1661 C 0.31057 0.91041 0.08955 0.0
C1662 C 0.37699 0.96736 0.2463 0.0
C1663 C 0.36804 0.96344 0.22392 0.0
C1664 C 0.33808 0.9289 0.19003 0.0
C1665 C 0.32108 0.92863 0.12482 0.0
C1666 C 0.33074 0.93415 0.14832 0.0
C1667 C 0.36147 0.94859 0.21359 0.0
C1668 C 0.35075 0.94381 0.19122 0.0
H1669 H 0.30322 0.93957 0.08111 0.0
H1670 H 0.31706 0.94772 0.12215 0.0
H1671 H 0.31877 0.9125 0.16832 0.0
H1672 H 0.37524 0.93327 0.25716 0.0
H1673 H 0.36034 0.92667 0.21768 0.0
C1674 C 0.38366 0.08602 0.90824 0.0
C1675 C 0.3947 0.09901 0.92148 0.0
C1676 C 0.38757 0.08113 0.88571 0.0
C1677 C 0.41566 0.09317 0.83318 0.0
H1678 H 0.4074 0.05134 0.83386 0.0
C1679 C 0.44284 0.07299 0.75723 0.0
C1680 C 0.43385 0.05831 0.74682 0.0
C1681 C 0.43815 0.07739 0.77935 0.0
C1682 C 0.40963 0.06298 0.83311 0.0
H1683 H 0.41819 0.11753 0.92078 0.0
H1684 H 0.42484 0.10931 0.88101 0.0
H1685 H 0.39783 0.06051 0.86874 0.0
H1686 H 0.41316 0.03652 0.75196 0.0
H1687 H 0.40471 0.04426 0.7902 0.0
H1688 H 0.42714 0.09569 0.79745 0.0
C1689 C 0.41324 0.10281 0.88816 0.0
C1690 C 0.40413 0.06822 0.85312 0.0
C1691 C 0.40942 0.10753 0.91091 0.0
C1692 C 0.42044 0.04784 0.75977 0.0
C1693 C 0.41558 0.05233 0.78169 0.0
C1694 C 0.42097 0.08789 0.81302 0.0
C1695 C 0.4025 0.08932 0.87576 0.0
C1696 C 0.40723 0.08342 0.85349 0.0
C1697 C 0.42415 0.06733 0.79133 0.0
C1698 C 0.41823 0.07278 0.81283 0.0
H1699 H 0.37228 0.07912 0.91613 0.0
H1700 H 0.37905 0.07074 0.8764 0.0
H1701 H 0.4181 0.10489 0.83287 0.0
H1702 H 0.45327 0.08128 0.7477 0.0
H1703 H 0.44534 0.08886 0.78662 0.0
C1704 C 0.93527 0.30733 0.91465 0.0
C1705 C 0.92195 0.30528 0.92685 0.0
C1706 C 0.94046 0.31588 0.8919 0.0
C1707 C 0.92859 0.33065 0.83718 0.0
H1708 H 0.97036 0.36437 0.83731 0.0
C1709 C 0.9486 0.37669 0.75924 0.0
C1710 C 0.96319 0.38204 0.74862 0.0
C1711 C 0.94431 0.36805 0.78185 0.0
C1712 C 0.95873 0.35491 0.83676 0.0
H1713 H 0.90319 0.30983 0.9241 0.0
H1714 H 0.91198 0.32432 0.88409 0.0
H1715 H 0.96111 0.34632 0.87323 0.0
H1716 H 0.98497 0.38313 0.75394 0.0
H1717 H 0.9774 0.36775 0.79318 0.0
H1718 H 0.92615 0.33891 0.80069 0.0
C1719 C 0.91851 0.31948 0.89219 0.0
C1720 C 0.95345 0.34456 0.85734 0.0
C1721 C 0.91348 0.31119 0.91511 0.0
C1722 C 0.97371 0.37932 0.76188 0.0
C1723 C 0.96933 0.37044 0.78435 0.0
C1724 C 0.9339 0.34085 0.8165 0.0
C1725 C 0.93225 0.32226 0.8807 0.0
C1726 C 0.93827 0.33244 0.85789 0.0
C1727 C 0.95439 0.36428 0.79416 0.0
C1728 C 0.94898 0.35328 0.81615 0.0
H1729 H 0.94212 0.30303 0.92339 0.0
H1730 H 0.95103 0.31775 0.8833 0.0
H1731 H 0.91688 0.32131 0.83696 0.0
H1732 H 0.94028 0.37867 0.74948 0.0
H1733 H 0.93289 0.36396 0.78924 0.0
C1734 C 0.71904 0.62984 0.90726 0.0
C1735 C 0.71585 0.61876 0.92631 0.0
C1736 C 0.71116 0.62569 0.88372 0.0
C1737 C 0.68571 0.61522 0.84352 0.0
H1738 H 0.6735 0.57555 0.81385 0.0
C1739 C 0.64239 0.59007 0.75884 0.0
C1740 C 0.64556 0.58209 0.73992 0.0
C1741 C 0.65074 0.59448 0.78193 0.0
C1742 C 0.6769 0.58674 0.82163 0.0
H1743 H 0.70225 0.59457 0.93517 0.0
H1744 H 0.68847 0.58751 0.89497 0.0
H1745 H 0.69015 0.58414 0.85102 0.0
H1746 H 0.65991 0.57237 0.73064 0.0
H1747 H 0.67451 0.58032 0.76995 0.0
H1748 H 0.67292 0.61802 0.81322 0.0
C1749 C 0.69717 0.59934 0.89771 0.0
C1750 C 0.68633 0.5916 0.84326 0.0
C1751 C 0.70506 0.60344 0.92097 0.0
C1752 C 0.65701 0.57838 0.7448 0.0
C1753 C 0.6654 0.5829 0.76755 0.0
C1754 C 0.6764 0.61042 0.82156 0.0
C1755 C 0.69994 0.6104 0.87885 0.0
C1756 C 0.69077 0.60584 0.85467 0.0
C1757 C 0.66247 0.59107 0.78642 0.0
C1758 C 0.67187 0.5961 0.81035 0.0
H1759 H 0.72724 0.64175 0.91082 0.0
H1760 H 0.71375 0.63448 0.86947 0.0
H1761 H 0.68872 0.62616 0.85197 0.0
H1762 H 0.63368 0.59315 0.75564 0.0
H1763 H 0.64803 0.60059 0.79618 0.0
C1764 C 0.90919 0.60767 0.91217 0.0
C1765 C 0.91756 0.62237 0.92284 0.0
C1766 C 0.91411 0.60396 0.88956 0.0
C1767 C 0.94914 0.61353 0.85555 0.0
H1768 H 0.92218 0.58978 0.79983 0.0
C1769 C 0.97033 0.59725 0.76311 0.0
C1770 C 0.96005 0.58363 0.75051 0.0
C1771 C 0.9657 0.60207 0.7849 0.0
C1772 C 0.92984 0.59617 0.81543 0.0
H1773 H 0.93733 0.64489 0.91774 0.0
H1774 H 0.94605 0.63834 0.8782 0.0
H1775 H 0.9125 0.59884 0.83449 0.0
H1776 H 0.93737 0.56377 0.7519 0.0
H1777 H 0.92956 0.57167 0.7906 0.0
H1778 H 0.96637 0.61049 0.83701 0.0
C1779 C 0.93564 0.62973 0.88735 0.0
C1780 C 0.92429 0.60149 0.83515 0.0
C1781 C 0.93055 0.63353 0.90977 0.0
C1782 C 0.9455 0.57436 0.7612 0.0
C1783 C 0.94097 0.57902 0.78317 0.0
C1784 C 0.95466 0.60804 0.83596 0.0
C1785 C 0.92765 0.61481 0.87739 0.0
C1786 C 0.93386 0.61016 0.85547 0.0
C1787 C 0.95076 0.59325 0.79469 0.0
C1788 C 0.94504 0.59917 0.81572 0.0
H1789 H 0.89919 0.59882 0.92194 0.0
H1790 H 0.90776 0.59236 0.88239 0.0
H1791 H 0.95671 0.62001 0.8712 0.0
H1792 H 0.98154 0.60473 0.75506 0.0
H1793 H 0.97355 0.61311 0.79312 0.0
C1794 C 0.38923 0.303 0.91206 0.0
C1795 C 0.40072 0.30639 0.93042 0.0
C1796 C 0.39287 0.31057 0.88823 0.0
C1797 C 0.42604 0.33418 0.84533 0.0
H1798 H 0.39933 0.34738 0.8158 0.0
C1799 C 0.42651 0.37662 0.75924 0.0
C1800 C 0.43384 0.37282 0.74 0.0
C1801 C 0.42244 0.3687 0.78273 0.0
C1802 C 0.407 0.34394 0.82397 0.0
H1803 H 0.42507 0.32025 0.9379 0.0
H1804 H 0.43127 0.33348 0.89715 0.0
H1805 H 0.39195 0.33258 0.85569 0.0
H1806 H 0.44269 0.35776 0.73049 0.0
H1807 H 0.43536 0.34391 0.77068 0.0
H1808 H 0.44139 0.346 0.81447 0.0
C1809 C 0.4195 0.32482 0.90067 0.0
C1810 C 0.40265 0.33522 0.8466 0.0
C1811 C 0.4159 0.31724 0.92423 0.0
C1812 C 0.43719 0.36114 0.74491 0.0
C1813 C 0.43303 0.35319 0.76813 0.0
C1814 C 0.43045 0.34299 0.82297 0.0
C1815 C 0.40806 0.32168 0.88237 0.0
C1816 C 0.41215 0.33027 0.85761 0.0
C1817 C 0.42555 0.35678 0.78736 0.0
C1818 C 0.42098 0.34794 0.81188 0.0
H1819 H 0.37741 0.29475 0.91627 0.0
H1820 H 0.3838 0.30774 0.87445 0.0
H1821 H 0.43358 0.33042 0.85298 0.0
H1822 H 0.42371 0.38553 0.75603 0.0
H1823 H 0.41686 0.37191 0.79725 0.0
C1824 C 0.70298 0.10364 0.92112 0.0
C1825 C 0.71407 0.09944 0.92596 0.0
C1826 C 0.69452 0.09931 0.8984 0.0
C1827 C 0.68226 0.09503 0.84468 0.0
H1828 H 0.66936 0.05509 0.81555 0.0
C1829 C 0.65159 0.07709 0.74724 0.0
C1830 C 0.64066 0.0617 0.74267 0.0
C1831 C 0.66009 0.08149 0.76992 0.0
C1832 C 0.67267 0.06619 0.82365 0.0
H1833 H 0.72537 0.08783 0.91005 0.0
H1834 H 0.71092 0.08072 0.86964 0.0
H1835 H 0.68583 0.06355 0.85345 0.0
H1836 H 0.6297 0.03892 0.75902 0.0
H1837 H 0.64421 0.04673 0.79935 0.0
H1838 H 0.66861 0.09747 0.81585 0.0
C1839 C 0.70852 0.08706 0.88389 0.0
C1840 C 0.68238 0.07117 0.84512 0.0
C1841 C 0.71695 0.0913 0.9069 0.0
C1842 C 0.63799 0.05088 0.76195 0.0
C1843 C 0.64646 0.05534 0.78492 0.0
C1844 C 0.67243 0.08999 0.82353 0.0
C1845 C 0.69702 0.09082 0.87955 0.0
C1846 C 0.68729 0.08567 0.85594 0.0
C1847 C 0.6578 0.07069 0.78899 0.0
C1848 C 0.66757 0.07555 0.81256 0.0
H1849 H 0.70036 0.10984 0.93534 0.0
H1850 H 0.68563 0.10222 0.89612 0.0
H1851 H 0.68594 0.10635 0.85214 0.0
H1852 H 0.65406 0.08577 0.73283 0.0
H1853 H 0.66886 0.09335 0.77199 0.0
C1854 C 0.63943 0.93131 0.09004 0.0
C1855 C 0.62811 0.91813 0.07762 0.0
C1856 C 0.63618 0.93618 0.11326 0.0
C1857 C 0.60954 0.92356 0.16822 0.0
H1858 H 0.61733 0.96522 0.16965 0.0
C1859 C 0.58159 0.94197 0.24513 0.0
C1860 C 0.59054 0.95628 0.25684 0.0
C1861 C 0.58658 0.93816 0.22274 0.0
C1862 C 0.61524 0.95363 0.16975 0.0
H1863 H 0.60486 0.89925 0.08041 0.0
H1864 H 0.59935 0.90748 0.12117 0.0
H1865 H 0.62652 0.95655 0.13342 0.0
H1866 H 0.61141 0.97812 0.25361 0.0
H1867 H 0.62033 0.97139 0.21465 0.0
H1868 H 0.59842 0.92055 0.20448 0.0
C1869 C 0.61067 0.91415 0.11293 0.0
C1870 C 0.62054 0.94868 0.14901 0.0
C1871 C 0.61382 0.90944 0.08958 0.0
C1872 C 0.6042 0.96705 0.24486 0.0
C1873 C 0.60932 0.96316 0.22256 0.0
C1874 C 0.60439 0.92853 0.18902 0.0
C1875 C 0.62166 0.92778 0.12467 0.0
C1876 C 0.61752 0.93352 0.14786 0.0
C1877 C 0.60079 0.94847 0.21171 0.0
C1878 C 0.6069 0.94354 0.18985 0.0
H1879 H 0.65049 0.93831 0.08112 0.0
H1880 H 0.6449 0.94667 0.12203 0.0
H1881 H 0.60722 0.91187 0.168 0.0
H1882 H 0.57094 0.93348 0.25382 0.0
H1883 H 0.57946 0.92694 0.21449 0.0
C1884 C 0.05303 0.63627 0.24527 0.0
C1885 C 0.06439 0.63945 0.26377 0.0
C1886 C 0.05681 0.64415 0.22172 0.0
C1887 C 0.09031 0.66834 0.17979 0.0
H1888 H 0.06354 0.68132 0.14977 0.0
C1889 C 0.09102 0.71083 0.09353 0.0
C1890 C 0.09861 0.70718 0.07455 0.0
C1891 C 0.08678 0.70283 0.11696 0.0
C1892 C 0.07123 0.67795 0.15809 0.0
H1893 H 0.08868 0.65334 0.27185 0.0
H1894 H 0.09511 0.66711 0.23163 0.0
H1895 H 0.05597 0.66632 0.18945 0.0
H1896 H 0.1077 0.69227 0.06544 0.0
H1897 H 0.10008 0.67831 0.10546 0.0
H1898 H 0.10585 0.68042 0.14931 0.0
C1899 C 0.08333 0.65835 0.23477 0.0
C1900 C 0.06677 0.66911 0.1806 0.0
C1901 C 0.0796 0.65045 0.25803 0.0
C1902 C 0.10201 0.69554 0.07964 0.0
C1903 C 0.09768 0.68752 0.10279 0.0
C1904 C 0.09482 0.67727 0.15757 0.0
C1905 C 0.07203 0.65539 0.2163 0.0
C1906 C 0.07628 0.66422 0.19176 0.0
C1907 C 0.08999 0.691 0.12178 0.0
C1908 C 0.08533 0.68213 0.14628 0.0
H1909 H 0.0412 0.62791 0.24913 0.0
H1910 H 0.04784 0.64144 0.2078 0.0
H1911 H 0.09786 0.66463 0.18754 0.0
H1912 H 0.08818 0.71969 0.09016 0.0
H1913 H 0.08102 0.70594 0.13129 0.0
C1914 C 0.37883 0.42401 0.24397 0.0
C1915 C 0.37554 0.4317 0.26325 0.0
C1916 C 0.3705 0.41975 0.22087 0.0
C1917 C 0.34488 0.40384 0.18129 0.0
H1918 H 0.33054 0.42982 0.15261 0.0
C1919 C 0.30223 0.38422 0.09566 0.0
C1920 C 0.30521 0.39533 0.07676 0.0
C1921 C 0.31008 0.3884 0.11923 0.0
C1922 C 0.33452 0.42244 0.16016 0.0
H1923 H 0.36102 0.44114 0.27312 0.0
H1924 H 0.34645 0.43348 0.2337 0.0
H1925 H 0.34718 0.43839 0.18984 0.0
H1926 H 0.3184 0.41959 0.06823 0.0
H1927 H 0.33214 0.42671 0.10851 0.0
H1928 H 0.33272 0.38821 0.15067 0.0
C1929 C 0.35564 0.43099 0.23587 0.0
C1930 C 0.34395 0.42729 0.18181 0.0
C1931 C 0.36401 0.43534 0.25868 0.0
C1932 C 0.31574 0.4107 0.08232 0.0
C1933 C 0.32362 0.41483 0.10562 0.0
C1934 C 0.33556 0.39906 0.15934 0.0
C1935 C 0.35866 0.42304 0.21669 0.0
C1936 C 0.34921 0.41805 0.19279 0.0
C1937 C 0.32107 0.40375 0.1243 0.0
C1938 C 0.33029 0.40833 0.14846 0.0
H1939 H 0.38761 0.42099 0.24691 0.0
H1940 H 0.3733 0.41384 0.20637 0.0
H1941 H 0.34852 0.39631 0.18939 0.0
H1942 H 0.29423 0.37228 0.09196 0.0
H1943 H 0.30766 0.37959 0.13333 0.0
C1944 C 0.746 0.77081 0.58727 0.0
C1945 C 0.73059 0.76588 0.59268 0.0
C1946 C 0.75026 0.76725 0.56391 0.0
C1947 C 0.73479 0.73984 0.50976 0.0
H1948 H 0.77423 0.76785 0.47986 0.0
C1949 C 0.76034 0.72218 0.42512 0.0
C1950 C 0.76808 0.73329 0.40604 0.0
C1951 C 0.75593 0.72609 0.44823 0.0
C1952 C 0.7631 0.75991 0.48772 0.0
H1953 H 0.7076 0.75385 0.57718 0.0
H1954 H 0.71513 0.74805 0.53572 0.0
H1955 H 0.76543 0.77567 0.51711 0.0
H1956 H 0.77741 0.75726 0.39652 0.0
H1957 H 0.76946 0.76388 0.43594 0.0
H1958 H 0.73226 0.72432 0.47951 0.0
C1959 C 0.72387 0.75437 0.54997 0.0
C1960 C 0.75812 0.76434 0.50938 0.0
C1961 C 0.71957 0.75786 0.57359 0.0
C1962 C 0.77158 0.74839 0.41081 0.0
C1963 C 0.76707 0.75224 0.43361 0.0
C1964 C 0.73971 0.73546 0.48779 0.0
C1965 C 0.73926 0.75881 0.54505 0.0
C1966 C 0.74396 0.75434 0.52086 0.0
C1967 C 0.75909 0.74116 0.4526 0.0
C1968 C 0.75396 0.74545 0.47651 0.0
H1969 H 0.75483 0.77698 0.60149 0.0
H1970 H 0.76216 0.77068 0.56112 0.0
H1971 H 0.72392 0.73175 0.51826 0.0
H1972 H 0.75743 0.71043 0.42202 0.0
H1973 H 0.75 0.7173 0.46259 0.0
C1974 C 0.29732 0.0444 0.42318 0.0
C1975 C 0.28611 0.04075 0.40416 0.0
C1976 C 0.29354 0.03642 0.44664 0.0
C1977 C 0.2843 0.01141 0.48741 0.0
H1978 H 0.24451 0.99799 0.51772 0.0
C1979 C 0.2615 0.96938 0.57409 0.0
C1980 C 0.2535 0.97246 0.59313 0.0
C1981 C 0.26531 0.97733 0.55061 0.0
C1982 C 0.25573 1.00172 0.50971 0.0
H1983 H 0.26208 0.02596 0.39515 0.0
H1984 H 0.25566 0.01204 0.43531 0.0
H1985 H 0.2521 0.01386 0.47949 0.0
H1986 H 0.24308 0.9862 0.60215 0.0
H1987 H 0.24989 1.00007 0.56192 0.0
H1988 H 0.28809 0.99967 0.51838 0.0
C1989 C 0.2673 0.02121 0.43257 0.0
C1990 C 0.26003 0.01071 0.48751 0.0
C1991 C 0.27103 0.02919 0.40935 0.0
C1992 C 0.24914 0.9834 0.58792 0.0
C1993 C 0.25301 0.99136 0.56467 0.0
C1994 C 0.28004 1.00249 0.50984 0.0
C1995 C 0.27849 0.02461 0.45151 0.0
C1996 C 0.27433 0.01562 0.47594 0.0
C1997 C 0.26124 0.98855 0.54573 0.0
C1998 C 0.26568 0.99754 0.5213 0.0
H1999 H 0.30905 0.0532 0.41978 0.0
H2000 H 0.30242 0.03949 0.46091 0.0
H2001 H 0.29533 0.01481 0.47889 0.0
H2002 H 0.26507 0.96106 0.5775 0.0
H2003 H 0.27147 0.9747 0.53633 0.0
C2004 C 0.03085 0.26503 0.59116 0.0
C2005 C 0.04208 0.28024 0.59629 0.0
C2006 C 0.02261 0.26111 0.56821 0.0
C2007 C 0.01133 0.27753 0.51446 0.0
H2008 H 0.99867 0.23803 0.48363 0.0
C2009 C 0.9831 0.24252 0.41409 0.0
C2010 C 0.97193 0.24664 0.40939 0.0
C2011 C 0.99114 0.24631 0.43725 0.0
C2012 C 1.00218 0.24916 0.49179 0.0
H2013 H 0.05371 0.30323 0.58079 0.0
H2014 H 0.03957 0.29628 0.54008 0.0
H2015 H 0.01507 0.246 0.52123 0.0
H2016 H 0.96011 0.25757 0.42591 0.0
H2017 H 0.97389 0.2638 0.46693 0.0
H2018 H 0.99887 0.28088 0.48424 0.0
C2019 C 0.03694 0.28744 0.55423 0.0
C2020 C 0.01147 0.25368 0.51364 0.0
C2021 C 0.04517 0.2914 0.57744 0.0
C2022 C 0.96861 0.25418 0.42893 0.0
C2023 C 0.97664 0.25791 0.45231 0.0
C2024 C 1.00212 0.27306 0.49238 0.0
C2025 C 0.02543 0.27224 0.54946 0.0
C2026 C 0.01613 0.26788 0.52539 0.0
C2027 C 0.98818 0.25421 0.4566 0.0
C2028 C 0.99743 0.25881 0.48075 0.0
H2029 H 0.02805 0.25611 0.60525 0.0
H2030 H 0.01368 0.24936 0.56554 0.0
H2031 H 0.01452 0.28846 0.52314 0.0
H2032 H 0.98606 0.23678 0.39949 0.0
H2033 H 1.00008 0.24346 0.43957 0.0
C2034 C 0.29949 0.25581 0.43027 0.0
C2035 C 0.28839 0.24877 0.41089 0.0
C2036 C 0.29604 0.261 0.45298 0.0
C2037 C 0.27072 0.27447 0.47682 0.0
H2038 H 0.27797 0.26373 0.54493 0.0
C2039 C 0.25986 0.2972 0.57392 0.0
C2040 C 0.25156 0.28565 0.59211 0.0
C2041 C 0.26498 0.29382 0.55104 0.0
C2042 C 0.27596 0.26688 0.526 0.0
H2043 H 0.26476 0.24113 0.40077 0.0
H2044 H 0.25892 0.25024 0.44001 0.0
H2045 H 0.28627 0.25545 0.50692 0.0
H2046 H 0.24148 0.26135 0.59978 0.0
H2047 H 0.25048 0.25563 0.5603 0.0
H2048 H 0.26025 0.28575 0.49593 0.0
C2049 C 0.2703 0.25188 0.43757 0.0
C2050 C 0.28079 0.26223 0.50432 0.0
C2051 C 0.27365 0.24653 0.41517 0.0
C2052 C 0.24792 0.27059 0.58636 0.0
C2053 C 0.25318 0.26729 0.56382 0.0
C2054 C 0.26609 0.27932 0.49852 0.0
C2055 C 0.28151 0.25943 0.45646 0.0
C2056 C 0.27789 0.26568 0.47952 0.0
C2057 C 0.26205 0.2789 0.54623 0.0
C2058 C 0.26836 0.27526 0.52328 0.0
H2059 H 0.31096 0.25777 0.42755 0.0
H2060 H 0.30487 0.26674 0.46738 0.0
H2061 H 0.26849 0.27741 0.45787 0.0
H2062 H 0.2629 0.30892 0.57779 0.0
H2063 H 0.27174 0.30296 0.53764 0.0
C2064 C 0.72238 0.96793 0.57483 0.0
C2065 C 0.73343 0.97228 0.59435 0.0
C2066 C 0.72585 0.97625 0.55178 0.0
C2067 C 0.75142 0.01462 0.52598 0.0
H2068 H 0.74301 0.99502 0.45908 0.0
C2069 C 0.761 0.04633 0.42746 0.0
C2070 C 0.76858 0.04246 0.40878 0.0
C2071 C 0.75631 0.03826 0.45079 0.0
C2072 C 0.74538 1.00064 0.47766 0.0
H2073 H 0.75694 0.9886 0.60459 0.0
H2074 H 0.76284 1.003 0.5647 0.0
H2075 H 0.73512 0.97936 0.49812 0.0
H2076 H 0.77774 0.02749 0.40057 0.0
H2077 H 0.76951 0.01354 0.44088 0.0
H2078 H 0.76181 0.0359 0.50549 0.0
C2079 C 0.75149 0.99325 0.56725 0.0
C2080 C 0.74077 0.99168 0.49995 0.0
C2081 C 0.74811 0.98487 0.59002 0.0
C2082 C 0.77188 0.03078 0.41439 0.0
C2083 C 0.76705 0.02266 0.43743 0.0
C2084 C 0.75584 0.02358 0.50367 0.0
C2085 C 0.74035 0.98919 0.54805 0.0
C2086 C 0.74401 0.99859 0.52434 0.0
C2087 C 0.75896 0.02609 0.45564 0.0
C2088 C 0.75313 0.01668 0.47931 0.0
H2089 H 0.71096 0.95834 0.57758 0.0
H2090 H 0.71706 0.97287 0.53722 0.0
H2091 H 0.75392 0.02023 0.54457 0.0
H2092 H 0.75824 0.05522 0.42373 0.0
H2093 H 0.75012 0.04116 0.4646 0.0
C2094 C 0.02896 0.76285 0.59113 0.0
C2095 C 0.04158 0.76083 0.59556 0.0
C2096 C 0.0204 0.75746 0.5686 0.0
C2097 C 0.02174 0.74778 0.50171 0.0
H2098 H 0.97749 0.72491 0.50754 0.0
C2099 C 0.98259 0.74057 0.41683 0.0
C2100 C 0.97093 0.72565 0.41088 0.0
C2101 C 0.99069 0.74366 0.43985 0.0
C2102 C 0.98982 0.73116 0.50565 0.0
H2103 H 0.05536 0.75196 0.5793 0.0
H2104 H 0.04052 0.74288 0.53929 0.0
H2105 H 0.99326 0.73261 0.54653 0.0
H2106 H 0.95812 0.70243 0.42525 0.0
H2107 H 0.97213 0.70801 0.46614 0.0
H2108 H 0.0183 0.74671 0.46087 0.0
C2109 C 0.03724 0.74851 0.5536 0.0
C2110 C 0.99883 0.73565 0.5279 0.0
C2111 C 0.04574 0.75373 0.57644 0.0
C2112 C 0.967 0.71404 0.42926 0.0
C2113 C 0.97504 0.71721 0.45258 0.0
C2114 C 0.01272 0.74349 0.47949 0.0
C2115 C 0.02432 0.75008 0.54974 0.0
C2116 C 0.01487 0.74419 0.52614 0.0
C2117 C 0.98724 0.73197 0.45771 0.0
C2118 C 0.99668 0.73534 0.48127 0.0
H2119 H 0.02537 0.76822 0.60541 0.0
H2120 H 0.01066 0.75907 0.56592 0.0
H2121 H 0.03405 0.75439 0.49981 0.0
H2122 H 0.98592 0.74984 0.40326 0.0
H2123 H 0.99983 0.7552 0.44356 0.0
C2124 C 0.10206 0.37303 0.91482 0.0
C2125 C 0.09787 0.36372 0.93688 0.0
C2126 C 0.09954 0.36664 0.89019 0.0
C2127 C 0.07594 0.33054 0.85521 0.0
H2128 H 0.10604 0.35026 0.80108 0.0
C2129 C 0.0695 0.30179 0.75692 0.0
C2130 C 0.07279 0.31088 0.73471 0.0
C2131 C 0.07328 0.30844 0.78133 0.0
C2132 C 0.09745 0.34471 0.81591 0.0
H2133 H 0.08789 0.34034 0.95028 0.0
H2134 H 0.08359 0.32917 0.90722 0.0
H2135 H 0.11128 0.36126 0.84433 0.0
H2136 H 0.08298 0.33416 0.72079 0.0
H2137 H 0.08951 0.34583 0.76363 0.0
H2138 H 0.06207 0.31405 0.82686 0.0
C2139 C 0.08867 0.34144 0.90902 0.0
C2140 C 0.10045 0.35099 0.84071 0.0
C2141 C 0.0912 0.34784 0.93371 0.0
C2142 C 0.08031 0.32684 0.7375 0.0
C2143 C 0.08409 0.33352 0.76204 0.0
C2144 C 0.07294 0.32427 0.83045 0.0
C2145 C 0.09276 0.35076 0.88696 0.0
C2146 C 0.08973 0.34398 0.86067 0.0
C2147 C 0.08042 0.32436 0.78427 0.0
C2148 C 0.08366 0.33124 0.8105 0.0
H2149 H 0.1072 0.38531 0.9165 0.0
H2150 H 0.10265 0.37414 0.87365 0.0
H2151 H 0.0673 0.325 0.86997 0.0
H2152 H 0.06383 0.28946 0.75555 0.0
H2153 H 0.07057 0.30106 0.79797 0.0
C2154 C 0.66318 0.74313 0.93137 0.0
C2155 C 0.64727 0.73547 0.93499 0.0
C2156 C 0.66938 0.74693 0.90652 0.0
C2157 C 0.65909 0.73562 0.83853 0.0
H2158 H 0.69565 0.77416 0.82376 0.0
C2159 C 0.68303 0.75328 0.73498 0.0
C2160 C 0.69894 0.7599 0.73245 0.0
C2161 C 0.67634 0.75091 0.75945 0.0
C2162 C 0.68549 0.7633 0.82761 0.0
H2163 H 0.62543 0.72627 0.91536 0.0
H2164 H 0.63622 0.73303 0.87238 0.0
H2165 H 0.68502 0.76901 0.86722 0.0
H2166 H 0.72029 0.76928 0.75368 0.0
H2167 H 0.70866 0.76503 0.79595 0.0
H2168 H 0.65963 0.72983 0.79902 0.0
C2169 C 0.64392 0.73584 0.8886 0.0
C2170 C 0.67942 0.76035 0.85253 0.0
C2171 C 0.63774 0.73205 0.91332 0.0
C2172 C 0.70799 0.76418 0.75484 0.0
C2173 C 0.70133 0.76185 0.77916 0.0
C2174 C 0.66516 0.73857 0.81363 0.0
C2175 C 0.65978 0.74315 0.88483 0.0
C2176 C 0.66619 0.74645 0.85831 0.0
C2177 C 0.68544 0.75518 0.78181 0.0
C2178 C 0.67849 0.75239 0.80791 0.0
H2179 H 0.67082 0.74591 0.94765 0.0
H2180 H 0.68166 0.75247 0.90425 0.0
H2181 H 0.64901 0.7247 0.84241 0.0
H2182 H 0.67575 0.74989 0.71813 0.0
H2183 H 0.66405 0.74585 0.76085 0.0
C2184 C 0.26833 0.91855 0.92884 0.0
C2185 C 0.28143 0.9175 0.93404 0.0
C2186 C 0.26507 0.92097 0.90361 0.0
C2187 C 0.28313 0.93919 0.84396 0.0
H2188 H 0.24486 0.91171 0.80987 0.0
C2189 C 0.25995 0.95413 0.75317 0.0
C2190 C 0.25736 0.9446 0.73178 0.0
C2191 C 0.26311 0.95029 0.77733 0.0
C2192 C 0.2556 0.91941 0.8192 0.0
H2193 H 0.30144 0.91833 0.917 0.0
H2194 H 0.29598 0.92309 0.87319 0.0
H2195 H 0.24961 0.906 0.85385 0.0
H2196 H 0.25588 0.9235 0.71894 0.0
H2197 H 0.26089 0.91648 0.76175 0.0
H2198 H 0.2889 0.95288 0.80974 0.0
C2199 C 0.28814 0.92177 0.88854 0.0
C2200 C 0.25826 0.91622 0.8443 0.0
C2201 C 0.29121 0.919 0.91358 0.0
C2202 C 0.25789 0.93107 0.73508 0.0
C2203 C 0.26068 0.92703 0.7595 0.0
C2204 C 0.28032 0.94256 0.81915 0.0
C2205 C 0.27504 0.92276 0.88332 0.0
C2206 C 0.27207 0.92607 0.85684 0.0
C2207 C 0.26339 0.93667 0.78075 0.0
C2208 C 0.26655 0.93269 0.80655 0.0
H2209 H 0.26058 0.91741 0.94421 0.0
H2210 H 0.25493 0.92177 0.90002 0.0
H2211 H 0.29384 0.94697 0.85329 0.0
H2212 H 0.25971 0.96467 0.75119 0.0
H2213 H 0.26515 0.95787 0.79348 0.0
C2214 C 0.35459 0.09614 0.06821 0.0
C2215 C 0.36842 0.09639 0.06357 0.0
C2216 C 0.3485 0.09367 0.09318 0.0
C2217 C 0.34671 0.07457 0.15294 0.0
H2218 H 0.33747 0.10324 0.18683 0.0
C2219 C 0.30946 0.06062 0.24416 0.0
C2220 C 0.31645 0.07029 0.26539 0.0
C2221 C 0.31628 0.06439 0.21989 0.0
C2222 C 0.34007 0.0952 0.17756 0.0
H2223 H 0.38658 0.09404 0.08132 0.0
H2224 H 0.37566 0.08923 0.12457 0.0
H2225 H 0.34801 0.10854 0.14288 0.0
H2226 H 0.33599 0.09159 0.27776 0.0
H2227 H 0.34775 0.09846 0.23471 0.0
H2228 H 0.33837 0.06102 0.1872 0.0
C2229 C 0.36969 0.09118 0.10902 0.0
C2230 C 0.34596 0.09816 0.15245 0.0
C2231 C 0.37593 0.09397 0.08428 0.0
C2232 C 0.33037 0.08393 0.26175 0.0
C2233 C 0.33705 0.08788 0.23719 0.0
C2234 C 0.34052 0.07146 0.17774 0.0
C2235 C 0.35596 0.09106 0.11372 0.0
C2236 C 0.34937 0.08788 0.14 0.0
C2237 C 0.33009 0.07805 0.21615 0.0
C2238 C 0.33719 0.08176 0.19028 0.0
H2239 H 0.34859 0.09802 0.05264 0.0
H2240 H 0.33784 0.09354 0.09637 0.0
H2241 H 0.34923 0.06647 0.14369 0.0
H2242 H 0.29878 0.04998 0.24638 0.0
H2243 H 0.31069 0.05666 0.20392 0.0
C2244 C 0.93508 0.25939 0.26956 0.0
C2245 C 0.94353 0.25182 0.27138 0.0
C2246 C 0.93066 0.26211 0.24543 0.0
C2247 C 0.92537 0.24933 0.17723 0.0
H2248 H 0.93098 0.2894 0.16249 0.0
C2249 C 0.92524 0.26996 0.07345 0.0
C2250 C 0.91823 0.27877 0.06923 0.0
C2251 C 0.92714 0.26605 0.09849 0.0
C2252 C 0.92914 0.27808 0.16637 0.0
H2253 H 0.95378 0.24102 0.24919 0.0
H2254 H 0.94622 0.24584 0.20751 0.0
H2255 H 0.936 0.2836 0.20577 0.0
H2256 H 0.9075 0.29018 0.08811 0.0
H2257 H 0.91068 0.28325 0.13162 0.0
H2258 H 0.91867 0.24385 0.13779 0.0
C2259 C 0.94284 0.24954 0.22462 0.0
C2260 C 0.932 0.27476 0.19121 0.0
C2261 C 0.94728 0.24688 0.2486 0.0
C2262 C 0.91301 0.28343 0.09062 0.0
C2263 C 0.91491 0.27953 0.11562 0.0
C2264 C 0.9225 0.25265 0.15241 0.0
C2265 C 0.93453 0.25722 0.22267 0.0
C2266 C 0.93034 0.2604 0.19685 0.0
C2267 C 0.92208 0.27087 0.1199 0.0
C2268 C 0.92451 0.26712 0.14659 0.0
H2269 H 0.93199 0.26332 0.28673 0.0
H2270 H 0.92417 0.26797 0.24459 0.0
H2271 H 0.92372 0.23807 0.18104 0.0
H2272 H 0.92943 0.26622 0.05743 0.0
H2273 H 0.93287 0.25952 0.10111 0.0
C2274 C 0.76043 0.68705 0.26486 0.0
C2275 C 0.76808 0.70302 0.26753 0.0
C2276 C 0.75804 0.68037 0.24041 0.0
C2277 C 0.7714 0.68872 0.1726 0.0
H2278 H 0.73141 0.65423 0.15738 0.0
C2279 C 0.7513 0.66571 0.06887 0.0
C2280 C 0.74265 0.64976 0.06608 0.0
C2281 C 0.75517 0.67231 0.09346 0.0
C2282 C 0.7427 0.66375 0.16137 0.0
H2283 H 0.77947 0.72448 0.24657 0.0
H2284 H 0.77518 0.71287 0.20421 0.0
H2285 H 0.73687 0.66515 0.20051 0.0
H2286 H 0.73171 0.62824 0.08694 0.0
H2287 H 0.73857 0.63969 0.12939 0.0
H2288 H 0.77716 0.68735 0.13333 0.0
C2289 C 0.77116 0.70548 0.22093 0.0
C2290 C 0.74584 0.66998 0.18614 0.0
C2291 C 0.77352 0.71214 0.24528 0.0
C2292 C 0.73826 0.64058 0.08831 0.0
C2293 C 0.74212 0.64714 0.11274 0.0
C2294 C 0.76825 0.68247 0.14779 0.0
C2295 C 0.7633 0.68953 0.21815 0.0
C2296 C 0.76021 0.68256 0.19205 0.0
C2297 C 0.75045 0.66308 0.11567 0.0
C2298 C 0.75386 0.6699 0.1419 0.0
H2299 H 0.75613 0.6797 0.2816 0.0
H2300 H 0.75208 0.66803 0.23893 0.0
H2301 H 0.78265 0.6983 0.1766 0.0
H2302 H 0.75486 0.67309 0.05214 0.0
H2303 H 0.76153 0.68464 0.09509 0.0
C2304 C 0.9498 0.70706 0.2478 0.0
C2305 C 0.94562 0.69755 0.26961 0.0
C2306 C 0.94605 0.70086 0.22309 0.0
C2307 C 0.92042 0.66565 0.18701 0.0
H2308 H 0.95098 0.68491 0.1334 0.0
C2309 C 0.91499 0.63824 0.08707 0.0
C2310 C 0.91957 0.64783 0.06533 0.0
C2311 C 0.91757 0.64435 0.11189 0.0
C2312 C 0.94224 0.67952 0.14805 0.0
H2313 H 0.93402 0.674 0.28247 0.0
H2314 H 0.92761 0.6631 0.23908 0.0
H2315 H 0.95663 0.69512 0.17703 0.0
H2316 H 0.93027 0.6714 0.0527 0.0
H2317 H 0.93474 0.68211 0.09619 0.0
H2318 H 0.90609 0.64996 0.15797 0.0
C2319 C 0.93366 0.6754 0.24123 0.0
C2320 C 0.94549 0.68536 0.1731 0.0
C2321 C 0.93739 0.68163 0.26608 0.0
C2322 C 0.92663 0.6637 0.06902 0.0
C2323 C 0.92927 0.66983 0.09393 0.0
C2324 C 0.91719 0.65978 0.16194 0.0
C2325 C 0.93808 0.68497 0.21943 0.0
C2326 C 0.93461 0.67852 0.19289 0.0
C2327 C 0.92483 0.66022 0.11565 0.0
C2328 C 0.92807 0.66666 0.14217 0.0
H2329 H 0.95603 0.71938 0.24975 0.0
H2330 H 0.94936 0.70857 0.20681 0.0
H2331 H 0.91172 0.66024 0.20169 0.0
H2332 H 0.90952 0.62595 0.08497 0.0
H2333 H 0.91418 0.63663 0.12817 0.0
C2334 C 0.33596 0.25837 0.27045 0.0
C2335 C 0.31998 0.25127 0.2726 0.0
C2336 C 0.34289 0.26097 0.24617 0.0
C2337 C 0.33476 0.24876 0.17777 0.0
H2338 H 0.37019 0.28833 0.16385 0.0
C2339 C 0.35713 0.26988 0.07447 0.0
C2340 C 0.37305 0.27822 0.07102 0.0
C2341 C 0.35087 0.26584 0.09926 0.0
C2342 C 0.36042 0.27715 0.16749 0.0
H2343 H 0.29877 0.24112 0.25088 0.0
H2344 H 0.31081 0.24574 0.20888 0.0
H2345 H 0.35925 0.28253 0.20701 0.0
H2346 H 0.39488 0.28853 0.0909 0.0
H2347 H 0.384 0.28137 0.13381 0.0
H2348 H 0.33585 0.24344 0.13816 0.0
C2349 C 0.31801 0.24917 0.22585 0.0
C2350 C 0.35417 0.27381 0.19226 0.0
C2351 C 0.31111 0.24663 0.25 0.0
C2352 C 0.38255 0.28219 0.09282 0.0
C2353 C 0.37632 0.27816 0.1175 0.0
C2354 C 0.34102 0.25209 0.15298 0.0
C2355 C 0.33397 0.25644 0.22359 0.0
C2356 C 0.34119 0.25963 0.19765 0.0
C2357 C 0.36041 0.27007 0.12107 0.0
C2358 C 0.35387 0.26636 0.14751 0.0
H2359 H 0.34311 0.26206 0.28747 0.0
H2360 H 0.35522 0.26648 0.24507 0.0
H2361 H 0.32489 0.23764 0.18137 0.0
H2362 H 0.34949 0.26666 0.0581 0.0
H2363 H 0.33856 0.25972 0.10136 0.0
C2364 C 0.75907 0.07747 0.26436 0.0
C2365 C 0.76617 0.06868 0.26783 0.0
C2366 C 0.75686 0.08147 0.23952 0.0
C2367 C 0.75446 0.06966 0.17131 0.0
H2368 H 0.76077 0.11001 0.15667 0.0
C2369 C 0.75094 0.0889 0.06765 0.0
C2370 C 0.74278 0.09672 0.06494 0.0
C2371 C 0.75483 0.08612 0.09218 0.0
C2372 C 0.75886 0.09865 0.16048 0.0
H2373 H 0.77677 0.05746 0.24787 0.0
H2374 H 0.77308 0.06453 0.20497 0.0
H2375 H 0.76508 0.10385 0.20019 0.0
H2376 H 0.7326 0.108 0.08594 0.0
H2377 H 0.73923 0.10307 0.12833 0.0
H2378 H 0.74812 0.06442 0.13169 0.0
C2379 C 0.76896 0.06813 0.22129 0.0
C2380 C 0.76129 0.09512 0.18545 0.0
C2381 C 0.77115 0.06415 0.24598 0.0
C2382 C 0.73888 0.10194 0.08724 0.0
C2383 C 0.74278 0.09921 0.11163 0.0
C2384 C 0.75202 0.0732 0.14636 0.0
C2385 C 0.76169 0.07674 0.21769 0.0
C2386 C 0.75908 0.08056 0.19118 0.0
C2387 C 0.7507 0.09117 0.11446 0.0
C2388 C 0.75412 0.0877 0.14066 0.0
H2389 H 0.75508 0.08113 0.28077 0.0
H2390 H 0.7511 0.08801 0.23739 0.0
H2391 H 0.75242 0.05826 0.17514 0.0
H2392 H 0.75414 0.08476 0.05088 0.0
H2393 H 0.76107 0.08003 0.09371 0.0
C2394 C 0.68784 0.9308 0.73559 0.0
C2395 C 0.70188 0.94438 0.73244 0.0
C2396 C 0.68085 0.92675 0.75986 0.0
C2397 C 0.67645 0.94234 0.81935 0.0
H2398 H 0.66995 0.90549 0.8538 0.0
C2399 C 0.64155 0.91883 0.91344 0.0
C2400 C 0.6497 0.91711 0.93387 0.0
C2401 C 0.64745 0.92161 0.88843 0.0
C2402 C 0.67168 0.91578 0.84431 0.0
H2403 H 0.71941 0.96452 0.75197 0.0
H2404 H 0.7069 0.9577 0.79405 0.0
H2405 H 0.6807 0.91128 0.81002 0.0
H2406 H 0.67024 0.9166 0.94404 0.0
H2407 H 0.68035 0.921 0.89993 0.0
H2408 H 0.66723 0.94676 0.85338 0.0
C2409 C 0.70148 0.95009 0.77788 0.0
C2410 C 0.67772 0.91903 0.81933 0.0
C2411 C 0.70864 0.95394 0.75385 0.0
C2412 C 0.66375 0.91793 0.92868 0.0
C2413 C 0.66948 0.92037 0.9035 0.0
C2414 C 0.67009 0.93892 0.84405 0.0
C2415 C 0.6876 0.93643 0.78113 0.0
C2416 C 0.68029 0.93242 0.80679 0.0
C2417 C 0.66144 0.92238 0.88324 0.0
C2418 C 0.66781 0.9257 0.85683 0.0
H2419 H 0.68242 0.9232 0.71942 0.0
H2420 H 0.67011 0.91617 0.762 0.0
H2421 H 0.67836 0.95274 0.81002 0.0
H2422 H 0.63073 0.91833 0.91686 0.0
H2423 H 0.64105 0.92311 0.87309 0.0
C2424 C 0.08143 0.75572 0.73644 0.0
C2425 C 0.07281 0.76306 0.7338 0.0
C2426 C 0.08576 0.75338 0.76088 0.0
C2427 C 0.09009 0.76635 0.82893 0.0
H2428 H 0.08625 0.72698 0.84357 0.0
C2429 C 0.09254 0.74589 0.93242 0.0
C2430 C 0.10036 0.73776 0.93555 0.0
C2431 C 0.09003 0.74982 0.90775 0.0
C2432 C 0.08756 0.73811 0.83973 0.0
H2433 H 0.06216 0.77387 0.75481 0.0
H2434 H 0.06952 0.76963 0.79718 0.0
H2435 H 0.08065 0.73234 0.80046 0.0
H2436 H 0.11207 0.72779 0.9152 0.0
H2437 H 0.10782 0.73474 0.8725 0.0
H2438 H 0.09685 0.77203 0.86836 0.0
C2439 C 0.07313 0.76586 0.78044 0.0
C2440 C 0.08438 0.74119 0.81498 0.0
C2441 C 0.06882 0.76819 0.75608 0.0
C2442 C 0.1059 0.73396 0.91355 0.0
C2443 C 0.10339 0.73786 0.88899 0.0
C2444 C 0.09325 0.76326 0.85373 0.0
C2445 C 0.08157 0.75834 0.78318 0.0
C2446 C 0.08556 0.75533 0.80928 0.0
C2447 C 0.09527 0.74567 0.88574 0.0
C2448 C 0.09201 0.74909 0.85942 0.0
H2449 H 0.08474 0.75166 0.71968 0.0
H2450 H 0.09243 0.74771 0.7623 0.0
H2451 H 0.09131 0.77744 0.82511 0.0
H2452 H 0.08811 0.74897 0.94895 0.0
H2453 H 0.08364 0.75574 0.90588 0.0
C2454 C 0.24788 0.30416 0.75481 0.0
C2455 C 0.25311 0.31375 0.73308 0.0
C2456 C 0.25034 0.31026 0.77959 0.0
C2457 C 0.25973 0.34521 0.81622 0.0
H2458 H 0.27228 0.32646 0.86878 0.0
C2459 C 0.2838 0.37367 0.91435 0.0
C2460 C 0.2795 0.36444 0.93653 0.0
C2461 C 0.27965 0.36717 0.88989 0.0
C2462 C 0.26857 0.33169 0.85444 0.0
H2463 H 0.26481 0.33735 0.72044 0.0
H2464 H 0.26927 0.34808 0.76397 0.0
H2465 H 0.26713 0.31611 0.82521 0.0
H2466 H 0.26731 0.34108 0.95031 0.0
H2467 H 0.25998 0.32965 0.90735 0.0
H2468 H 0.26132 0.36088 0.84546 0.0
C2469 C 0.26312 0.33578 0.76169 0.0
C2470 C 0.26564 0.32578 0.82943 0.0
C2471 C 0.26063 0.32965 0.73676 0.0
C2472 C 0.27082 0.3485 0.93363 0.0
C2473 C 0.26669 0.34197 0.90903 0.0
C2474 C 0.26268 0.35113 0.84125 0.0
C2475 C 0.25814 0.32614 0.7834 0.0
C2476 C 0.26122 0.33249 0.80999 0.0
C2477 C 0.2711 0.35125 0.88688 0.0
C2478 C 0.2672 0.34448 0.86062 0.0
H2479 H 0.24192 0.29185 0.75275 0.0
H2480 H 0.24608 0.30249 0.79581 0.0
H2481 H 0.25612 0.35049 0.80182 0.0
H2482 H 0.2905 0.386 0.91579 0.0
H2483 H 0.28344 0.37465 0.87327 0.0
C2484 C 0.02127 0.42034 0.40408 0.0
C2485 C 0.03714 0.42824 0.39996 0.0
C2486 C 0.01533 0.41785 0.42912 0.0
C2487 C 0.02552 0.43143 0.49656 0.0
H2488 H 0.99133 0.39158 0.51352 0.0
C2489 C 1.00491 0.41261 0.60163 0.0
C2490 C 0.98903 0.40407 0.60562 0.0
C2491 C 0.0109 0.41598 0.57659 0.0
C2492 C 1.00077 0.40283 0.50906 0.0
H2493 H 0.05922 0.43986 0.41902 0.0
H2494 H 0.04888 0.4354 0.46248 0.0
H2495 H 1.00126 0.39681 0.46968 0.0
H2496 H 0.96701 0.39262 0.58634 0.0
H2497 H 0.97741 0.39862 0.54301 0.0
H2498 H 0.02505 0.43743 0.53601 0.0
C2499 C 0.041 0.43128 0.44641 0.0
C2500 C 1.00645 0.40583 0.48389 0.0
C2501 C 0.04692 0.43375 0.42143 0.0
C2502 C 0.97931 0.39914 0.58405 0.0
C2503 C 0.98528 0.4025 0.55912 0.0
C2504 C 0.01983 0.42843 0.52176 0.0
C2505 C 0.02513 0.42322 0.45061 0.0
C2506 C 0.0189 0.42017 0.47731 0.0
C2507 C 1.00114 0.41087 0.55502 0.0
C2508 C 1.00737 0.41409 0.52832 0.0
H2509 H 0.01341 0.41598 0.38799 0.0
H2510 H 1.00305 0.41176 0.43166 0.0
H2511 H 0.035 0.44266 0.49209 0.0
H2512 H 0.01272 0.41657 0.61781 0.0
H2513 H 0.02318 0.42235 0.57412 0.0
C2514 C 0.61899 0.57543 0.57905 0.0
C2515 C 0.61552 0.58137 0.6009 0.0
C2516 C 0.61501 0.57777 0.55445 0.0
C2517 C 0.58982 0.58815 0.51918 0.0
H2518 H 0.62002 0.59929 0.46498 0.0
C2519 C 0.58486 0.6125 0.42184 0.0
C2520 C 0.58919 0.60789 0.3993 0.0
C2521 C 0.58738 0.60823 0.44606 0.0
C2522 C 0.61137 0.59596 0.47978 0.0
H2523 H 0.60485 0.59419 0.61399 0.0
H2524 H 0.59796 0.59839 0.57081 0.0
H2525 H 0.62564 0.59403 0.50818 0.0
H2526 H 0.59942 0.59499 0.38461 0.0
H2527 H 0.60378 0.58741 0.42714 0.0
H2528 H 0.5756 0.59022 0.49079 0.0
C2529 C 0.60368 0.5918 0.57285 0.0
C2530 C 0.61459 0.59298 0.50457 0.0
C2531 C 0.60767 0.58945 0.59757 0.0
C2532 C 0.59599 0.59876 0.40158 0.0
C2533 C 0.59855 0.59448 0.42593 0.0
C2534 C 0.58659 0.59114 0.49438 0.0
C2535 C 0.60747 0.58612 0.55099 0.0
C2536 C 0.60389 0.5891 0.52459 0.0
C2537 C 0.59429 0.59921 0.44844 0.0
C2538 C 0.59737 0.59518 0.47443 0.0
H2539 H 0.62493 0.56904 0.58086 0.0
H2540 H 0.61785 0.57299 0.53809 0.0
H2541 H 0.58123 0.58497 0.53406 0.0
H2542 H 0.57961 0.61956 0.42087 0.0
H2543 H 0.58419 0.61227 0.46296 0.0
C2544 C 0.43595 0.04048 0.58331 0.0
C2545 C 0.431 0.03095 0.60512 0.0
C2546 C 0.43338 0.0343 0.55855 0.0
C2547 C 0.42455 0.99942 0.5221 0.0
H2548 H 0.41179 0.01783 0.4693 0.0
C2549 C 0.40281 0.97186 0.42198 0.0
C2550 C 0.40703 0.98154 0.40037 0.0
C2551 C 0.40636 0.9779 0.44688 0.0
C2552 C 0.41555 0.01268 0.4837 0.0
H2553 H 0.4196 0.00737 0.6179 0.0
H2554 H 0.41499 0.99653 0.57446 0.0
H2555 H 0.41643 0.02801 0.51293 0.0
H2556 H 0.41861 1.00521 0.38808 0.0
H2557 H 0.42495 0.01577 0.43159 0.0
H2558 H 0.4236 0.98403 0.4928 0.0
C2559 C 0.421 0.00883 0.57664 0.0
C2560 C 0.41819 0.0185 0.50876 0.0
C2561 C 0.42357 0.01504 0.60153 0.0
C2562 C 0.41514 0.99742 0.40428 0.0
C2563 C 0.41869 1.00347 0.42923 0.0
C2564 C 0.42191 0.99358 0.49699 0.0
C2565 C 0.42578 0.01841 0.55485 0.0
C2566 C 0.42275 0.01197 0.52828 0.0
C2567 C 0.41423 0.99378 0.45085 0.0
C2568 C 0.41738 1.00015 0.47747 0.0
H2569 H 0.4418 0.05279 0.58529 0.0
H2570 H 0.43747 0.04203 0.54226 0.0
H2571 H 0.42825 0.99425 0.53657 0.0
H2572 H 0.39652 0.95956 0.41974 0.0
H2573 H 0.40259 0.97009 0.46306 0.0
C2574 C 0.5834 0.96904 0.42111 0.0
C2575 C 0.58865 0.979 0.39984 0.0
C2576 C 0.58582 0.97476 0.44624 0.0
C2577 C 0.6109 0.00941 0.48378 0.0
H2578 H 0.57975 0.99045 0.53656 0.0
C2579 C 0.61698 0.03809 0.58159 0.0
C2580 C 0.61308 0.02903 0.60393 0.0
C2581 C 0.61341 0.03141 0.55723 0.0
C2582 C 0.58862 0.99575 0.5221 0.0
H2583 H 0.60032 1.00282 0.38838 0.0
H2584 H 0.60441 0.01281 0.43222 0.0
H2585 H 0.57449 0.98012 0.49279 0.0
H2586 H 0.60201 1.00574 0.6181 0.0
H2587 H 0.59579 0.99399 0.5752 0.0
H2588 H 0.62501 0.02503 0.51294 0.0
C2589 C 0.5986 1.00055 0.42945 0.0
C2590 C 0.58561 0.98985 0.49702 0.0
C2591 C 0.59618 0.99482 0.4043 0.0
C2592 C 0.60518 0.01304 0.60128 0.0
C2593 C 0.60158 1.00632 0.57673 0.0
C2594 C 0.61389 0.01529 0.50878 0.0
C2595 C 0.59356 0.99059 0.45074 0.0
C2596 C 0.59669 0.9967 0.47751 0.0
C2597 C 0.60585 0.01547 0.55443 0.0
C2598 C 0.60275 0.00863 0.5282 0.0
H2599 H 0.57757 0.95678 0.41841 0.0
H2600 H 0.58193 0.96677 0.46216 0.0
H2601 H 0.61981 0.01475 0.4694 0.0
H2602 H 0.62293 0.05044 0.58282 0.0
H2603 H 0.61657 0.03879 0.54051 0.0
C2604 C 0.97675 0.5821 0.58659 0.0
C2605 C 0.98643 0.58685 0.60823 0.0
C2606 C 0.98276 0.58456 0.56172 0.0
C2607 C 0.01716 0.59243 0.52479 0.0
H2608 H 0.99948 0.60627 0.47241 0.0
C2609 C 0.04552 0.61483 0.42578 0.0
C2610 C 0.03609 0.61106 0.40391 0.0
C2611 C 0.03921 0.61107 0.45044 0.0
C2612 C 1.00441 0.6022 0.48669 0.0
H2613 H 1.01008 0.59782 0.62058 0.0
H2614 H 0.02062 0.60224 0.57696 0.0
H2615 H 0.98928 0.60164 0.51607 0.0
H2616 H 0.01257 0.60009 0.39086 0.0
H2617 H 1.00151 0.59338 0.43407 0.0
H2618 H 0.03234 0.59307 0.49539 0.0
C2619 C 1.00833 0.59647 0.57936 0.0
C2620 C 0.99858 0.59957 0.51176 0.0
C2621 C 1.0023 0.59401 0.60435 0.0
C2622 C 0.02016 0.6032 0.40729 0.0
C2623 C 0.01383 0.59944 0.43206 0.0
C2624 C 0.02298 0.59506 0.4997 0.0
C2625 C 0.99862 0.59185 0.55776 0.0
C2626 C 1.0049 0.59468 0.53113 0.0
C2627 C 0.0233 0.60342 0.45393 0.0
C2628 C 0.01671 0.60002 0.48036 0.0
H2629 H 0.96446 0.57647 0.5888 0.0
H2630 H 0.97494 0.58063 0.54555 0.0
H2631 H 0.02213 0.58845 0.53914 0.0
H2632 H 0.05785 0.62091 0.42394 0.0
H2633 H 0.04685 0.6145 0.46684 0.0
C2634 C 0.41349 0.42222 0.40387 0.0
C2635 C 0.40531 0.43004 0.40146 0.0
C2636 C 0.41757 0.41948 0.42825 0.0
C2637 C 0.40653 0.41661 0.4968 0.0
H2638 H 0.44617 0.42067 0.50967 0.0
C2639 C 0.42573 0.41113 0.59917 0.0
C2640 C 0.43312 0.40254 0.60142 0.0
C2641 C 0.42301 0.4153 0.57487 0.0
C2642 C 0.435 0.41936 0.50633 0.0
H2643 H 0.39537 0.44144 0.42282 0.0
H2644 H 0.40259 0.43679 0.46498 0.0
H2645 H 0.44016 0.42611 0.4668 0.0
H2646 H 0.44366 0.3918 0.57986 0.0
H2647 H 0.43879 0.39892 0.53773 0.0
H2648 H 0.4013 0.40975 0.5362 0.0
C2649 C 0.40563 0.43254 0.44815 0.0
C2650 C 0.43155 0.42246 0.48175 0.0
C2651 C 0.40157 0.43528 0.4239 0.0
C2652 C 0.43795 0.39844 0.57888 0.0
C2653 C 0.43525 0.40261 0.55467 0.0
C2654 C 0.40996 0.4135 0.52133 0.0
C2655 C 0.41354 0.42448 0.45068 0.0
C2656 C 0.41727 0.42112 0.47671 0.0
C2657 C 0.42765 0.41099 0.55232 0.0
C2658 C 0.42423 0.41481 0.52641 0.0
H2659 H 0.41653 0.41803 0.38698 0.0
H2660 H 0.42357 0.41313 0.42956 0.0
H2661 H 0.39532 0.41521 0.49346 0.0
H2662 H 0.4219 0.41451 0.61613 0.0
H2663 H 0.41729 0.42192 0.57374 0.0
loop_
_geom_bond_atom_site_label_1
_geom_bond_atom_site_label_2
_geom_bond_distance
_geom_bond_site_symmetry_2
_ccdc_geom_bond_type
C0 O2 1.247 . S
C0 O4 1.258 . S
C1 O8 1.247 . S
C1 O9 1.258 . S
O2 C0 1.247 . S
O2 Zn3 2.028 1_554 S
Zn3 O2 2.028 1_556 S
Zn3 O7 2.035 . S
Zn3 O9 2.035 . S
Zn3 O10 2.028 . S
O4 C0 1.258 . S
O4 Zn5 2.035 . S
Zn5 O4 2.035 . S
Zn5 O6 2.028 . S
Zn5 O8 2.028 1_554 S
Zn5 O11 2.035 . S
O6 Zn5 2.028 . S
O6 C12 1.233 1_554 S
O7 Zn3 2.035 . S
O7 C12 1.269 . S
O8 C1 1.247 . S
O8 Zn5 2.028 1_556 S
O9 C1 1.258 . S
O9 Zn3 2.035 . S
O10 Zn3 2.028 . S
O10 C13 1.229 1_556 S
O11 Zn5 2.035 . S
O11 C13 1.273 . S
C12 O6 1.233 1_556 S
C12 O7 1.269 . S
C13 O10 1.229 1_554 S
C13 O11 1.273 . S
C14 O16 1.247 . S
C14 O18 1.258 . S
C15 O22 1.247 . S
C15 O23 1.258 . S
O16 C14 1.247 . S
O16 Zn17 2.028 . S
Zn17 O16 2.028 . S
Zn17 O21 2.035 . S
Zn17 O23 2.035 1_556 S
Zn17 O24 2.028 . S
O18 C14 1.258 . S
O18 Zn19 2.035 1_556 S
Zn19 O18 2.035 1_554 S
Zn19 O20 2.028 . S
Zn19 O22 2.028 . S
Zn19 O25 2.035 . S
O20 Zn19 2.028 . S
O20 C26 1.247 . S
O21 Zn17 2.035 . S
O21 C26 1.258 1_556 S
O22 C15 1.247 . S
O22 Zn19 2.028 . S
O23 C15 1.258 . S
O23 Zn17 2.035 1_554 S
O24 Zn17 2.028 . S
O24 C27 1.259 . S
O25 Zn19 2.035 . S
O25 C27 1.243 1_554 S
C26 O20 1.247 . S
C26 O21 1.258 1_554 S
C27 O24 1.259 . S
C27 O25 1.243 1_556 S
C28 O30 1.233 1_556 S
C28 O32 1.269 . S
C29 O36 1.229 1_554 S
C29 O37 1.273 . S
O30 C28 1.233 1_554 S
O30 Zn31 2.028 . S
Zn31 O30 2.028 . S
Zn31 O35 2.035 . S
Zn31 O37 2.035 . S
Zn31 O38 2.028 1_554 S
O32 C28 1.269 . S
O32 Zn33 2.035 . S
Zn33 O32 2.035 . S
Zn33 O34 2.028 1_556 S
Zn33 O36 2.028 . S
Zn33 O39 2.035 . S
O34 Zn33 2.028 1_554 S
O34 C40 1.247 . S
O35 Zn31 2.035 . S
O35 C40 1.258 . S
O36 C29 1.229 1_556 S
O36 Zn33 2.028 . S
O37 C29 1.273 . S
O37 Zn31 2.035 . S
O38 Zn31 2.028 1_556 S
O38 C41 1.247 . S
O39 Zn33 2.035 . S
O39 C41 1.258 . S
C40 O34 1.247 . S
C40 O35 1.258 . S
C41 O38 1.247 . S
C41 O39 1.258 . S
C42 O44 1.262 . S
C42 O46 1.239 1_556 S
C43 O50 1.259 . S
C43 O51 1.244 1_554 S
O44 C42 1.262 . S
O44 Zn45 2.028 . S
Zn45 O44 2.028 . S
Zn45 O49 2.035 1_556 S
Zn45 O51 2.035 . S
Zn45 O52 2.028 . S
O46 C42 1.239 1_554 S
O46 Zn47 2.035 . S
Zn47 O46 2.035 . S
Zn47 O48 2.028 . S
Zn47 O50 2.028 . S
Zn47 O53 2.035 1_554 S
O48 Zn47 2.028 . S
O48 C54 1.247 . S
O49 Zn45 2.035 1_554 S
O49 C54 1.258 . S
O50 C43 1.259 . S
O50 Zn47 2.028 . S
O51 C43 1.244 1_556 S
O51 Zn45 2.035 . S
O52 Zn45 2.028 . S
O52 C55 1.247 . S
O53 Zn47 2.035 1_556 S
O53 C55 1.258 . S
C54 O48 1.247 . S
C54 O49 1.258 . S
C55 O52 1.247 . S
C55 O53 1.258 . S
C56 O58 1.247 . S
C56 O60 1.258 . S
C57 O64 1.247 . S
C57 O65 1.258 . S
O58 C56 1.247 . S
O58 Zn59 2.028 . S
Zn59 O58 2.028 . S
Zn59 O63 2.035 . S
Zn59 O65 2.035 1_554 S
Zn59 O66 2.028 . S
O60 C56 1.258 . S
O60 Zn61 2.035 1_554 S
Zn61 O60 2.035 1_556 S
Zn61 O62 2.028 . S
Zn61 O64 2.028 . S
Zn61 O67 2.035 . S
O62 Zn61 2.028 . S
O62 C68 1.262 . S
O63 Zn59 2.035 . S
O63 C68 1.239 1_554 S
O64 C57 1.247 . S
O64 Zn61 2.028 . S
O65 C57 1.258 . S
O65 Zn59 2.035 1_556 S
O66 Zn59 2.028 . S
O66 C69 1.259 . S
O67 Zn61 2.035 . S
O67 C69 1.243 1_556 S
C68 O62 1.262 . S
C68 O63 1.239 1_556 S
C69 O66 1.259 . S
C69 O67 1.243 1_554 S
C70 O72 1.247 . S
C70 O74 1.258 . S
C71 O78 1.247 . S
C71 O79 1.258 . S
O72 C70 1.247 . S
O72 Zn73 2.028 1_556 S
Zn73 O72 2.028 1_554 S
Zn73 O77 2.035 . S
Zn73 O79 2.035 . S
Zn73 O80 2.028 . S
O74 C70 1.258 . S
O74 Zn75 2.035 . S
Zn75 O74 2.035 . S
Zn75 O76 2.028 . S
Zn75 O78 2.028 1_556 S
Zn75 O81 2.035 . S
O76 Zn75 2.028 . S
O76 C82 1.233 1_556 S
O77 Zn73 2.035 . S
O77 C82 1.269 . S
O78 C71 1.247 . S
O78 Zn75 2.028 1_554 S
O79 C71 1.258 . S
O79 Zn73 2.035 . S
O80 Zn73 2.028 . S
O80 C83 1.229 1_554 S
O81 Zn75 2.035 . S
O81 C83 1.273 . S
C82 O76 1.233 1_554 S
C82 O77 1.269 . S
C83 O80 1.229 1_556 S
C83 O81 1.273 . S
C84 O86 1.229 1_556 S
C84 O88 1.273 . S
C85 O92 1.233 1_554 S
C85 O93 1.269 . S
O86 C84 1.229 1_554 S
O86 Zn87 2.028 . S
Zn87 O86 2.028 . S
Zn87 O91 2.035 . S
Zn87 O93 2.035 . S
Zn87 O94 2.028 1_554 S
O88 C84 1.273 . S
O88 Zn89 2.035 . S
Zn89 O88 2.035 . S
Zn89 O90 2.028 1_556 S
Zn89 O92 2.028 . S
Zn89 O95 2.035 . S
O90 Zn89 2.028 1_554 S
O90 C96 1.247 . S
O91 Zn87 2.035 . S
O91 C96 1.258 . S
O92 C85 1.233 1_556 S
O92 Zn89 2.028 . S
O93 C85 1.269 . S
O93 Zn87 2.035 . S
O94 Zn87 2.028 1_556 S
O94 C97 1.247 . S
O95 Zn89 2.035 . S
O95 C97 1.258 . S
C96 O90 1.247 . S
C96 O91 1.258 . S
C97 O94 1.247 . S
C97 O95 1.258 . S
C98 O100 1.247 . S
C98 O102 1.258 . S
C99 O106 1.247 . S
C99 O107 1.258 . S
O100 C98 1.247 . S
O100 Zn101 2.028 1_554 S
Zn101 O100 2.028 1_556 S
Zn101 O105 2.035 . S
Zn101 O107 2.035 . S
Zn101 O108 2.028 . S
O102 C98 1.258 . S
O102 Zn103 2.035 . S
Zn103 O102 2.035 . S
Zn103 O104 2.028 . S
Zn103 O106 2.028 1_554 S
Zn103 O109 2.035 . S
O104 Zn103 2.028 . S
O104 C110 1.229 1_554 S
O105 Zn101 2.035 . S
O105 C110 1.273 . S
O106 C99 1.247 . S
O106 Zn103 2.028 1_556 S
O107 C99 1.258 . S
O107 Zn101 2.035 . S
O108 Zn101 2.028 . S
O108 C111 1.233 1_556 S
O109 Zn103 2.035 . S
O109 C111 1.269 . S
C110 O104 1.229 1_556 S
C110 O105 1.273 . S
C111 O108 1.233 1_554 S
C111 O109 1.269 . S
C112 O114 1.247 . S
C112 O116 1.258 . S
C113 O120 1.247 . S
C113 O121 1.258 . S
O114 C112 1.247 . S
O114 Zn115 2.028 1_554 S
Zn115 O114 2.028 1_556 S
Zn115 O119 2.035 . S
Zn115 O121 2.035 . S
Zn115 O122 2.028 . S
O116 C112 1.258 . S
O116 Zn117 2.035 . S
Zn117 O116 2.035 . S
Zn117 O118 2.028 . S
Zn117 O120 2.028 1_554 S
Zn117 O123 2.035 . S
O118 Zn117 2.028 . S
O118 C124 1.229 1_554 S
O119 Zn115 2.035 . S
O119 C124 1.273 . S
O120 C113 1.247 . S
O120 Zn117 2.028 1_556 S
O121 C113 1.258 . S
O121 Zn115 2.035 . S
O122 Zn115 2.028 . S
O122 C125 1.233 1_556 S
O123 Zn117 2.035 . S
O123 C125 1.269 . S
C124 O118 1.229 1_556 S
C124 O119 1.273 . S
C125 O122 1.233 1_554 S
C125 O123 1.269 . S
C126 O128 1.247 . S
C126 O130 1.258 . S
C127 O134 1.247 . S
C127 O135 1.258 . S
O128 C126 1.247 . S
O128 Zn129 2.028 . S
Zn129 O128 2.028 . S
Zn129 O133 2.035 . S
Zn129 O135 2.035 1_554 S
Zn129 O136 2.028 . S
O130 C126 1.258 . S
O130 Zn131 2.035 1_554 S
Zn131 O130 2.035 1_556 S
Zn131 O132 2.028 . S
Zn131 O134 2.028 . S
Zn131 O137 2.035 . S
O132 Zn131 2.028 . S
O132 C138 1.259 . S
O133 Zn129 2.035 . S
O133 C138 1.244 1_554 S
O134 C127 1.247 . S
O134 Zn131 2.028 . S
O135 C127 1.258 . S
O135 Zn129 2.035 1_556 S
O136 Zn129 2.028 . S
O136 C139 1.262 . S
O137 Zn131 2.035 . S
O137 C139 1.239 1_556 S
C138 O132 1.259 . S
C138 O133 1.244 1_556 S
C139 O136 1.262 . S
C139 O137 1.239 1_554 S
C140 O142 1.247 . S
C140 O144 1.258 . S
C141 O148 1.247 . S
C141 O149 1.258 . S
O142 C140 1.247 . S
O142 Zn143 2.028 . S
Zn143 O142 2.028 . S
Zn143 O147 2.035 . S
Zn143 O149 2.035 1_554 S
Zn143 O150 2.028 . S
O144 C140 1.258 . S
O144 Zn145 2.035 1_554 S
Zn145 O144 2.035 1_556 S
Zn145 O146 2.028 . S
Zn145 O148 2.028 . S
Zn145 O151 2.035 . S
O146 Zn145 2.028 . S
O146 C152 1.259 . S
O147 Zn143 2.035 . S
O147 C152 1.243 1_554 S
O148 C141 1.247 . S
O148 Zn145 2.028 . S
O149 C141 1.258 . S
O149 Zn143 2.035 1_556 S
O150 Zn143 2.028 . S
O150 C153 1.262 . S
O151 Zn145 2.035 . S
O151 C153 1.239 1_556 S
C152 O146 1.259 . S
C152 O147 1.243 1_556 S
C153 O150 1.262 . S
C153 O151 1.239 1_554 S
C154 O156 1.247 . S
C154 O158 1.258 . S
C155 O162 1.247 . S
C155 O163 1.258 . S
O156 C154 1.247 . S
O156 Zn157 2.028 1_556 S
Zn157 O156 2.028 1_554 S
Zn157 O161 2.035 . S
Zn157 O163 2.035 . S
Zn157 O164 2.028 . S
O158 C154 1.258 . S
O158 Zn159 2.035 . S
Zn159 O158 2.035 . S
Zn159 O160 2.028 . S
Zn159 O162 2.028 1_556 S
Zn159 O165 2.035 . S
O160 Zn159 2.028 . S
O160 C166 1.229 1_556 S
O161 Zn157 2.035 . S
O161 C166 1.273 . S
O162 C155 1.247 . S
O162 Zn159 2.028 1_554 S
O163 C155 1.258 . S
O163 Zn157 2.035 . S
O164 Zn157 2.028 . S
O164 C167 1.233 1_554 S
O165 Zn159 2.035 . S
O165 C167 1.269 . S
C166 O160 1.229 1_554 S
C166 O161 1.273 . S
C167 O164 1.233 1_556 S
C167 O165 1.269 . S
C168 O170 1.247 . S
C168 O172 1.258 . S
C169 O176 1.247 . S
C169 O177 1.258 . S
O170 C168 1.247 . S
O170 Zn171 2.028 . S
Zn171 O170 2.028 . S
Zn171 O175 2.035 . S
Zn171 O177 2.035 . S
Zn171 O178 2.028 . S
O172 C168 1.258 . S
O172 Zn173 2.035 . S
Zn173 O172 2.035 . S
Zn173 O174 2.028 . S
Zn173 O176 2.028 . S
Zn173 O179 2.035 . S
O174 Zn173 2.028 . S
O174 C180 1.247 . S
O175 Zn171 2.035 . S
O175 C180 1.258 . S
O176 C169 1.247 . S
O176 Zn173 2.028 . S
O177 C169 1.258 . S
O177 Zn171 2.035 . S
O178 Zn171 2.028 . S
O178 C181 1.247 . S
O179 Zn173 2.035 . S
O179 C181 1.258 . S
C180 O174 1.247 . S
C180 O175 1.258 . S
C181 O178 1.247 . S
C181 O179 1.258 . S
C182 O184 1.247 . S
C182 O186 1.258 . S
C183 O190 1.247 . S
C183 O191 1.258 . S
O184 C182 1.247 . S
O184 Zn185 2.028 . S
Zn185 O184 2.028 . S
Zn185 O189 2.035 . S
Zn185 O191 2.035 . S
Zn185 O192 2.028 . S
O186 C182 1.258 . S
O186 Zn187 2.035 . S
Zn187 O186 2.035 . S
Zn187 O188 2.028 . S
Zn187 O190 2.028 . S
Zn187 O193 2.035 . S
O188 Zn187 2.028 . S
O188 C194 1.247 . S
O189 Zn185 2.035 . S
O189 C194 1.258 . S
O190 C183 1.247 . S
O190 Zn187 2.028 . S
O191 C183 1.258 . S
O191 Zn185 2.035 . S
O192 Zn185 2.028 . S
O192 C195 1.247 . S
O193 Zn187 2.035 . S
O193 C195 1.258 . S
C194 O188 1.247 . S
C194 O189 1.258 . S
C195 O192 1.247 . S
C195 O193 1.258 . S
C196 O198 1.247 . S
C196 O200 1.258 . S
C197 O204 1.247 . S
C197 O205 1.258 . S
O198 C196 1.247 . S
O198 Zn199 2.028 . S
Zn199 O198 2.028 . S
Zn199 O203 2.035 . S
Zn199 O205 2.035 . S
Zn199 O206 2.028 . S
O200 C196 1.258 . S
O200 Zn201 2.035 . S
Zn201 O200 2.035 . S
Zn201 O202 2.028 . S
Zn201 O204 2.028 . S
Zn201 O207 2.035 . S
O202 Zn201 2.028 . S
O202 C208 1.247 . S
O203 Zn199 2.035 . S
O203 C208 1.258 . S
O204 C197 1.247 . S
O204 Zn201 2.028 . S
O205 C197 1.258 . S
O205 Zn199 2.035 . S
O206 Zn199 2.028 . S
O206 C209 1.247 . S
O207 Zn201 2.035 . S
O207 C209 1.258 . S
C208 O202 1.247 . S
C208 O203 1.258 . S
C209 O206 1.247 . S
C209 O207 1.258 . S
C210 O212 1.247 . S
C210 O214 1.258 . S
C211 O218 1.247 . S
C211 O219 1.258 . S
O212 C210 1.247 . S
O212 Zn213 2.028 . S
Zn213 O212 2.028 . S
Zn213 O217 2.035 . S
Zn213 O219 2.035 . S
Zn213 O220 2.028 . S
O214 C210 1.258 . S
O214 Zn215 2.035 . S
Zn215 O214 2.035 . S
Zn215 O216 2.028 . S
Zn215 O218 2.028 . S
Zn215 O221 2.035 . S
O216 Zn215 2.028 . S
O216 C222 1.247 . S
O217 Zn213 2.035 . S
O217 C222 1.258 . S
O218 C211 1.247 . S
O218 Zn215 2.028 . S
O219 C211 1.258 . S
O219 Zn213 2.035 . S
O220 Zn213 2.028 . S
O220 C223 1.247 . S
O221 Zn215 2.035 . S
O221 C223 1.258 . S
C222 O216 1.247 . S
C222 O217 1.258 . S
C223 O220 1.247 . S
C223 O221 1.258 . S
C224 O226 1.247 . S
C224 O228 1.258 . S
C225 O232 1.247 . S
C225 O233 1.258 . S
O226 C224 1.247 . S
O226 Zn227 2.028 . S
Zn227 O226 2.028 . S
Zn227 O231 2.035 . S
Zn227 O233 2.035 . S
Zn227 O234 2.028 . S
O228 C224 1.258 . S
O228 Zn229 2.035 . S
Zn229 O228 2.035 . S
Zn229 O230 2.028 . S
Zn229 O232 2.028 . S
Zn229 O235 2.035 . S
O230 Zn229 2.028 . S
O230 C236 1.247 . S
O231 Zn227 2.035 . S
O231 C236 1.258 . S
O232 C225 1.247 . S
O232 Zn229 2.028 . S
O233 C225 1.258 . S
O233 Zn227 2.035 . S
O234 Zn227 2.028 . S
O234 C237 1.247 . S
O235 Zn229 2.035 . S
O235 C237 1.258 . S
C236 O230 1.247 . S
C236 O231 1.258 . S
C237 O234 1.247 . S
C237 O235 1.258 . S
C238 O240 1.247 . S
C238 O242 1.258 . S
C239 O246 1.247 . S
C239 O247 1.258 . S
O240 C238 1.247 . S
O240 Zn241 2.028 . S
Zn241 O240 2.028 . S
Zn241 O245 2.035 . S
Zn241 O247 2.035 . S
Zn241 O248 2.028 . S
O242 C238 1.258 . S
O242 Zn243 2.035 . S
Zn243 O242 2.035 . S
Zn243 O244 2.028 . S
Zn243 O246 2.028 . S
Zn243 O249 2.035 . S
O244 Zn243 2.028 . S
O244 C250 1.247 . S
O245 Zn241 2.035 . S
O245 C250 1.258 . S
O246 C239 1.247 . S
O246 Zn243 2.028 . S
O247 C239 1.258 . S
O247 Zn241 2.035 . S
O248 Zn241 2.028 . S
O248 C251 1.247 . S
O249 Zn243 2.035 . S
O249 C251 1.258 . S
C250 O244 1.247 . S
C250 O245 1.258 . S
C251 O248 1.247 . S
C251 O249 1.258 . S
C252 O254 1.247 . S
C252 O256 1.258 . S
C253 O260 1.247 . S
C253 O261 1.258 . S
O254 C252 1.247 . S
O254 Zn255 2.028 . S
Zn255 O254 2.028 . S
Zn255 O259 2.035 . S
Zn255 O261 2.035 . S
Zn255 O262 2.028 . S
O256 C252 1.258 . S
O256 Zn257 2.035 . S
Zn257 O256 2.035 . S
Zn257 O258 2.028 . S
Zn257 O260 2.028 . S
Zn257 O263 2.035 . S
O258 Zn257 2.028 . S
O258 C264 1.247 . S
O259 Zn255 2.035 . S
O259 C264 1.258 . S
O260 C253 1.247 . S
O260 Zn257 2.028 . S
O261 C253 1.258 . S
O261 Zn255 2.035 . S
O262 Zn255 2.028 . S
O262 C265 1.247 . S
O263 Zn257 2.035 . S
O263 C265 1.258 . S
C264 O258 1.247 . S
C264 O259 1.258 . S
C265 O262 1.247 . S
C265 O263 1.258 . S
C266 O268 1.247 . S
C266 O270 1.258 . S
C267 O274 1.247 . S
C267 O275 1.258 . S
O268 C266 1.247 . S
O268 Zn269 2.028 . S
Zn269 O268 2.028 . S
Zn269 O273 2.035 . S
Zn269 O275 2.035 . S
Zn269 O276 2.028 . S
O270 C266 1.258 . S
O270 Zn271 2.035 . S
Zn271 O270 2.035 . S
Zn271 O272 2.028 . S
Zn271 O274 2.028 . S
Zn271 O277 2.035 . S
O272 Zn271 2.028 . S
O272 C278 1.247 . S
O273 Zn269 2.035 . S
O273 C278 1.258 . S
O274 C267 1.247 . S
O274 Zn271 2.028 . S
O275 C267 1.258 . S
O275 Zn269 2.035 . S
O276 Zn269 2.028 . S
O276 C279 1.247 . S
O277 Zn271 2.035 . S
O277 C279 1.258 . S
C278 O272 1.247 . S
C278 O273 1.258 . S
C279 O276 1.247 . S
C279 O277 1.258 . S
C280 O282 1.247 . S
C280 O284 1.258 . S
C281 O288 1.247 . S
C281 O289 1.258 . S
O282 C280 1.247 . S
O282 Zn283 2.028 . S
Zn283 O282 2.028 . S
Zn283 O287 2.035 . S
Zn283 O289 2.035 . S
Zn283 O290 2.028 . S
O284 C280 1.258 . S
O284 Zn285 2.035 . S
Zn285 O284 2.035 . S
Zn285 O286 2.028 . S
Zn285 O288 2.028 . S
Zn285 O291 2.035 . S
O286 Zn285 2.028 . S
O286 C292 1.247 . S
O287 Zn283 2.035 . S
O287 C292 1.258 . S
O288 C281 1.247 . S
O288 Zn285 2.028 . S
O289 C281 1.258 . S
O289 Zn283 2.035 . S
O290 Zn283 2.028 . S
O290 C293 1.247 . S
O291 Zn285 2.035 . S
O291 C293 1.258 . S
C292 O286 1.247 . S
C292 O287 1.258 . S
C293 O290 1.247 . S
C293 O291 1.258 . S
C294 O296 1.247 . S
C294 O298 1.258 . S
C295 O302 1.247 . S
C295 O303 1.258 . S
O296 C294 1.247 . S
O296 Zn297 2.028 . S
Zn297 O296 2.028 . S
Zn297 O301 2.035 . S
Zn297 O303 2.035 . S
Zn297 O304 2.028 . S
O298 C294 1.258 . S
O298 Zn299 2.035 . S
Zn299 O298 2.035 . S
Zn299 O300 2.028 . S
Zn299 O302 2.028 . S
Zn299 O305 2.035 . S
O300 Zn299 2.028 . S
O300 C306 1.247 . S
O301 Zn297 2.035 . S
O301 C306 1.258 . S
O302 C295 1.247 . S
O302 Zn299 2.028 . S
O303 C295 1.258 . S
O303 Zn297 2.035 . S
O304 Zn297 2.028 . S
O304 C307 1.247 . S
O305 Zn299 2.035 . S
O305 C307 1.258 . S
C306 O300 1.247 . S
C306 O301 1.258 . S
C307 O304 1.247 . S
C307 O305 1.258 . S
C308 O310 1.247 . S
C308 O312 1.258 . S
C309 O316 1.247 . S
C309 O317 1.258 . S
O310 C308 1.247 . S
O310 Zn311 2.028 . S
Zn311 O310 2.028 . S
Zn311 O315 2.035 . S
Zn311 O317 2.035 . S
Zn311 O318 2.028 . S
O312 C308 1.258 . S
O312 Zn313 2.035 . S
Zn313 O312 2.035 . S
Zn313 O314 2.028 . S
Zn313 O316 2.028 . S
Zn313 O319 2.035 . S
O314 Zn313 2.028 . S
O314 C320 1.247 . S
O315 Zn311 2.035 . S
O315 C320 1.258 . S
O316 C309 1.247 . S
O316 Zn313 2.028 . S
O317 C309 1.258 . S
O317 Zn311 2.035 . S
O318 Zn311 2.028 . S
O318 C321 1.247 . S
O319 Zn313 2.035 . S
O319 C321 1.258 . S
C320 O314 1.247 . S
C320 O315 1.258 . S
C321 O318 1.247 . S
C321 O319 1.258 . S
C322 O324 1.247 . S
C322 O326 1.258 . S
C323 O330 1.247 . S
C323 O331 1.258 . S
O324 C322 1.247 . S
O324 Zn325 2.028 . S
Zn325 O324 2.028 . S
Zn325 O329 2.035 . S
Zn325 O331 2.035 . S
Zn325 O332 2.028 . S
O326 C322 1.258 . S
O326 Zn327 2.035 . S
Zn327 O326 2.035 . S
Zn327 O328 2.028 . S
Zn327 O330 2.028 . S
Zn327 O333 2.035 . S
O328 Zn327 2.028 . S
O328 C334 1.247 . S
O329 Zn325 2.035 . S
O329 C334 1.258 . S
O330 C323 1.247 . S
O330 Zn327 2.028 . S
O331 C323 1.258 . S
O331 Zn325 2.035 . S
O332 Zn325 2.028 . S
O332 C335 1.247 . S
O333 Zn327 2.035 . S
O333 C335 1.258 . S
C334 O328 1.247 . S
C334 O329 1.258 . S
C335 O332 1.247 . S
C335 O333 1.258 . S
C336 O338 1.247 . S
C336 O340 1.258 . S
C337 O344 1.247 . S
C337 O345 1.258 . S
O338 C336 1.247 . S
O338 Zn339 2.028 . S
Zn339 O338 2.028 . S
Zn339 O343 2.035 . S
Zn339 O345 2.035 . S
Zn339 O346 2.028 . S
O340 C336 1.258 . S
O340 Zn341 2.035 . S
Zn341 O340 2.035 . S
Zn341 O342 2.028 . S
Zn341 O344 2.028 . S
Zn341 O347 2.035 . S
O342 Zn341 2.028 . S
O342 C348 1.247 . S
O343 Zn339 2.035 . S
O343 C348 1.258 . S
O344 C337 1.247 . S
O344 Zn341 2.028 . S
O345 C337 1.258 . S
O345 Zn339 2.035 . S
O346 Zn339 2.028 . S
O346 C349 1.247 . S
O347 Zn341 2.035 . S
O347 C349 1.258 . S
C348 O342 1.247 . S
C348 O343 1.258 . S
C349 O346 1.247 . S
C349 O347 1.258 . S
C350 O352 1.247 . S
C350 O354 1.258 . S
C351 O358 1.247 . S
C351 O359 1.258 . S
O352 C350 1.247 . S
O352 Zn353 2.028 . S
Zn353 O352 2.028 . S
Zn353 O357 2.035 . S
Zn353 O359 2.035 . S
Zn353 O360 2.028 . S
O354 C350 1.258 . S
O354 Zn355 2.035 . S
Zn355 O354 2.035 . S
Zn355 O356 2.028 . S
Zn355 O358 2.028 . S
Zn355 O361 2.035 . S
O356 Zn355 2.028 . S
O356 C362 1.247 . S
O357 Zn353 2.035 . S
O357 C362 1.258 . S
O358 C351 1.247 . S
O358 Zn355 2.028 . S
O359 C351 1.258 . S
O359 Zn353 2.035 . S
O360 Zn353 2.028 . S
O360 C363 1.247 . S
O361 Zn355 2.035 . S
O361 C363 1.258 . S
C362 O356 1.247 . S
C362 O357 1.258 . S
C363 O360 1.247 . S
C363 O361 1.258 . S
C364 O366 1.247 . S
C364 O368 1.258 . S
C365 O372 1.247 . S
C365 O373 1.258 . S
O366 C364 1.247 . S
O366 Zn367 2.028 . S
Zn367 O366 2.028 . S
Zn367 O371 2.035 . S
Zn367 O373 2.035 . S
Zn367 O374 2.028 . S
O368 C364 1.258 . S
O368 Zn369 2.035 . S
Zn369 O368 2.035 . S
Zn369 O370 2.028 . S
Zn369 O372 2.028 . S
Zn369 O375 2.035 . S
O370 Zn369 2.028 . S
O370 C376 1.247 . S
O371 Zn367 2.035 . S
O371 C376 1.258 . S
O372 C365 1.247 . S
O372 Zn369 2.028 . S
O373 C365 1.258 . S
O373 Zn367 2.035 . S
O374 Zn367 2.028 . S
O374 C377 1.247 . S
O375 Zn369 2.035 . S
O375 C377 1.258 . S
C376 O370 1.247 . S
C376 O371 1.258 . S
C377 O374 1.247 . S
C377 O375 1.258 . S
C378 O380 1.247 . S
C378 O382 1.258 . S
C379 O386 1.247 . S
C379 O387 1.258 . S
O380 C378 1.247 . S
O380 Zn381 2.028 . S
Zn381 O380 2.028 . S
Zn381 O385 2.035 . S
Zn381 O387 2.035 . S
Zn381 O388 2.028 . S
O382 C378 1.258 . S
O382 Zn383 2.035 . S
Zn383 O382 2.035 . S
Zn383 O384 2.028 . S
Zn383 O386 2.028 . S
Zn383 O389 2.035 . S
O384 Zn383 2.028 . S
O384 C390 1.247 . S
O385 Zn381 2.035 . S
O385 C390 1.258 . S
O386 C379 1.247 . S
O386 Zn383 2.028 . S
O387 C379 1.258 . S
O387 Zn381 2.035 . S
O388 Zn381 2.028 . S
O388 C391 1.247 . S
O389 Zn383 2.035 . S
O389 C391 1.258 . S
C390 O384 1.247 . S
C390 O385 1.258 . S
C391 O388 1.247 . S
C391 O389 1.258 . S
C392 O394 1.247 . S
C392 O396 1.258 . S
C393 O400 1.247 . S
C393 O401 1.258 . S
O394 C392 1.247 . S
O394 Zn395 2.028 . S
Zn395 O394 2.028 . S
Zn395 O399 2.035 . S
Zn395 O401 2.035 . S
Zn395 O402 2.028 . S
O396 C392 1.258 . S
O396 Zn397 2.035 . S
Zn397 O396 2.035 . S
Zn397 O398 2.028 . S
Zn397 O400 2.028 . S
Zn397 O403 2.035 . S
O398 Zn397 2.028 . S
O398 C404 1.247 . S
O399 Zn395 2.035 . S
O399 C404 1.258 . S
O400 C393 1.247 . S
O400 Zn397 2.028 . S
O401 C393 1.258 . S
O401 Zn395 2.035 . S
O402 Zn395 2.028 . S
O402 C405 1.247 . S
O403 Zn397 2.035 . S
O403 C405 1.258 . S
C404 O398 1.247 . S
C404 O399 1.258 . S
C405 O402 1.247 . S
C405 O403 1.258 . S
C406 O408 1.247 . S
C406 O410 1.258 . S
C407 O414 1.247 . S
C407 O415 1.258 . S
O408 C406 1.247 . S
O408 Zn409 2.028 . S
Zn409 O408 2.028 . S
Zn409 O413 2.035 . S
Zn409 O415 2.035 . S
Zn409 O416 2.028 . S
O410 C406 1.258 . S
O410 Zn411 2.035 . S
Zn411 O410 2.035 . S
Zn411 O412 2.028 . S
Zn411 O414 2.028 . S
Zn411 O417 2.035 . S
O412 Zn411 2.028 . S
O412 C418 1.247 . S
O413 Zn409 2.035 . S
O413 C418 1.258 . S
O414 C407 1.247 . S
O414 Zn411 2.028 . S
O415 C407 1.258 . S
O415 Zn409 2.035 . S
O416 Zn409 2.028 . S
O416 C419 1.247 . S
O417 Zn411 2.035 . S
O417 C419 1.258 . S
C418 O412 1.247 . S
C418 O413 1.258 . S
C419 O416 1.247 . S
C419 O417 1.258 . S
C420 O422 1.247 . S
C420 O424 1.258 . S
C421 O428 1.247 . S
C421 O429 1.258 . S
O422 C420 1.247 . S
O422 Zn423 2.028 . S
Zn423 O422 2.028 . S
Zn423 O427 2.035 . S
Zn423 O429 2.035 . S
Zn423 O430 2.028 . S
O424 C420 1.258 . S
O424 Zn425 2.035 . S
Zn425 O424 2.035 . S
Zn425 O426 2.028 . S
Zn425 O428 2.028 . S
Zn425 O431 2.035 . S
O426 Zn425 2.028 . S
O426 C432 1.247 . S
O427 Zn423 2.035 . S
O427 C432 1.258 . S
O428 C421 1.247 . S
O428 Zn425 2.028 . S
O429 C421 1.258 . S
O429 Zn423 2.035 . S
O430 Zn423 2.028 . S
O430 C433 1.247 . S
O431 Zn425 2.035 . S
O431 C433 1.258 . S
C432 O426 1.247 . S
C432 O427 1.258 . S
C433 O430 1.247 . S
C433 O431 1.258 . S
C434 O436 1.247 . S
C434 O438 1.258 . S
C435 O442 1.247 . S
C435 O443 1.258 . S
O436 C434 1.247 . S
O436 Zn437 2.028 . S
Zn437 O436 2.028 . S
Zn437 O441 2.035 . S
Zn437 O443 2.035 . S
Zn437 O444 2.028 . S
O438 C434 1.258 . S
O438 Zn439 2.035 . S
Zn439 O438 2.035 . S
Zn439 O440 2.028 . S
Zn439 O442 2.028 . S
Zn439 O445 2.035 . S
O440 Zn439 2.028 . S
O440 C446 1.247 . S
O441 Zn437 2.035 . S
O441 C446 1.258 . S
O442 C435 1.247 . S
O442 Zn439 2.028 . S
O443 C435 1.258 . S
O443 Zn437 2.035 . S
O444 Zn437 2.028 . S
O444 C447 1.247 . S
O445 Zn439 2.035 . S
O445 C447 1.258 . S
C446 O440 1.247 . S
C446 O441 1.258 . S
C447 O444 1.247 . S
C447 O445 1.258 . S
C448 O450 1.247 . S
C448 O452 1.258 . S
C449 O456 1.247 . S
C449 O457 1.258 . S
O450 C448 1.247 . S
O450 Zn451 2.028 . S
Zn451 O450 2.028 . S
Zn451 O455 2.035 . S
Zn451 O457 2.035 . S
Zn451 O458 2.028 . S
O452 C448 1.258 . S
O452 Zn453 2.035 . S
Zn453 O452 2.035 . S
Zn453 O454 2.028 . S
Zn453 O456 2.028 . S
Zn453 O459 2.035 . S
O454 Zn453 2.028 . S
O454 C460 1.247 . S
O455 Zn451 2.035 . S
O455 C460 1.258 . S
O456 C449 1.247 . S
O456 Zn453 2.028 . S
O457 C449 1.258 . S
O457 Zn451 2.035 . S
O458 Zn451 2.028 . S
O458 C461 1.247 . S
O459 Zn453 2.035 . S
O459 C461 1.258 . S
C460 O454 1.247 . S
C460 O455 1.258 . S
C461 O458 1.247 . S
C461 O459 1.258 . S
C462 O464 1.247 . S
C462 O466 1.258 . S
C463 O470 1.247 . S
C463 O471 1.258 . S
O464 C462 1.247 . S
O464 Zn465 2.028 . S
Zn465 O464 2.028 . S
Zn465 O469 2.035 . S
Zn465 O471 2.035 . S
Zn465 O472 2.028 . S
O466 C462 1.258 . S
O466 Zn467 2.035 . S
Zn467 O466 2.035 . S
Zn467 O468 2.028 . S
Zn467 O470 2.028 . S
Zn467 O473 2.035 . S
O468 Zn467 2.028 . S
O468 C474 1.247 . S
O469 Zn465 2.035 . S
O469 C474 1.258 . S
O470 C463 1.247 . S
O470 Zn467 2.028 . S
O471 C463 1.258 . S
O471 Zn465 2.035 . S
O472 Zn465 2.028 . S
O472 C475 1.247 . S
O473 Zn467 2.035 . S
O473 C475 1.258 . S
C474 O468 1.247 . S
C474 O469 1.258 . S
C475 O472 1.247 . S
C475 O473 1.258 . S
C476 O478 1.247 . S
C476 O480 1.258 . S
C477 O484 1.247 . S
C477 O485 1.258 . S
O478 C476 1.247 . S
O478 Zn479 2.028 . S
Zn479 O478 2.028 . S
Zn479 O483 2.035 . S
Zn479 O485 2.035 . S
Zn479 O486 2.028 . S
O480 C476 1.258 . S
O480 Zn481 2.035 . S
Zn481 O480 2.035 . S
Zn481 O482 2.028 . S
Zn481 O484 2.028 . S
Zn481 O487 2.035 . S
O482 Zn481 2.028 . S
O482 C488 1.247 . S
O483 Zn479 2.035 . S
O483 C488 1.258 . S
O484 C477 1.247 . S
O484 Zn481 2.028 . S
O485 C477 1.258 . S
O485 Zn479 2.035 . S
O486 Zn479 2.028 . S
O486 C489 1.247 . S
O487 Zn481 2.035 . S
O487 C489 1.258 . S
C488 O482 1.247 . S
C488 O483 1.258 . S
C489 O486 1.247 . S
C489 O487 1.258 . S
C490 O492 1.247 . S
C490 O494 1.258 . S
C491 O498 1.247 . S
C491 O499 1.258 . S
O492 C490 1.247 . S
O492 Zn493 2.028 . S
Zn493 O492 2.028 . S
Zn493 O497 2.035 . S
Zn493 O499 2.035 . S
Zn493 O500 2.028 . S
O494 C490 1.258 . S
O494 Zn495 2.035 . S
Zn495 O494 2.035 . S
Zn495 O496 2.028 . S
Zn495 O498 2.028 . S
Zn495 O501 2.035 . S
O496 Zn495 2.028 . S
O496 C502 1.247 . S
O497 Zn493 2.035 . S
O497 C502 1.258 . S
O498 C491 1.247 . S
O498 Zn495 2.028 . S
O499 C491 1.258 . S
O499 Zn493 2.035 . S
O500 Zn493 2.028 . S
O500 C503 1.247 . S
O501 Zn495 2.035 . S
O501 C503 1.258 . S
C502 O496 1.247 . S
C502 O497 1.258 . S
C503 O500 1.247 . S
C503 O501 1.258 . S
C504 C505 1.349 1_554 S
C504 C506 1.327 . S
C504 H529 0.950 . S
C505 C504 1.349 1_556 S
C505 C521 1.349 . S
C506 C504 1.327 . S
C506 C525 1.429 1_554 S
C506 H530 0.950 . S
C507 C524 1.574 1_655 S
C507 C526 1.394 . S
C507 H531 0.949 . S
H508 C512 0.949 . S
C509 C510 1.349 1_556 S
C509 C511 1.327 . S
C509 H532 0.950 . S
C510 C509 1.349 1_554 S
C510 C522 1.349 . S
C511 C509 1.327 . S
C511 C527 1.429 1_556 S
C511 H533 0.950 . S
C512 H508 0.949 . S
C512 C520 1.574 1_455 S
C512 C528 1.385 . S
H513 C521 0.950 . S
H514 C519 0.950 . S
H515 C520 0.949 . S
H516 C522 0.950 . S
H517 C523 0.950 . S
H518 C524 0.949 . S
C519 H514 0.950 . S
C519 C521 1.327 . S
C519 C525 1.429 . S
C520 C512 1.574 1_655 S
C520 H515 0.949 . S
C520 C526 1.343 1_554 S
C521 C505 1.349 . S
C521 H513 0.950 . S
C521 C519 1.327 . S
C522 C510 1.349 . S
C522 H516 0.950 . S
C522 C523 1.327 . S
C523 H517 0.950 . S
C523 C522 1.327 . S
C523 C527 1.429 . S
C524 C507 1.574 1_455 S
C524 H518 0.949 . S
C524 C528 1.351 1_556 S
C525 C506 1.429 1_556 S
C525 C519 1.429 . S
C525 C526 1.524 . S
C526 C507 1.394 . S
C526 C520 1.343 1_556 S
C526 C525 1.524 . S
C527 C511 1.429 1_554 S
C527 C523 1.429 . S
C527 C528 1.523 . S
C528 C512 1.385 . S
C528 C524 1.351 1_554 S
C528 C527 1.523 . S
H529 C504 0.950 . S
H530 C506 0.950 . S
H531 C507 0.949 . S
H532 C509 0.950 . S
H533 C511 0.950 . S
C534 C535 1.349 . S
C534 C536 1.327 . S
C534 H559 0.950 . S
C535 C534 1.349 . S
C535 C551 1.349 1_556 S
C536 C534 1.327 . S
C536 C555 1.429 . S
C536 H560 0.950 . S
C537 C554 1.574 . S
C537 C556 1.345 1_554 S
C537 H561 0.949 . S
H538 C542 0.949 . S
C539 C540 1.349 . S
C539 C541 1.327 . S
C539 H562 0.950 . S
C540 C539 1.349 . S
C540 C552 1.349 1_554 S
C541 C539 1.327 . S
C541 C557 1.429 . S
C541 H563 0.950 . S
C542 H538 0.949 . S
C542 C550 1.574 . S
C542 C558 1.353 1_556 S
H543 C551 0.950 . S
H544 C549 0.950 . S
H545 C550 0.949 . S
H546 C552 0.950 . S
H547 C553 0.950 . S
H548 C554 0.949 . S
C549 H544 0.950 . S
C549 C551 1.327 . S
C549 C555 1.429 1_554 S
C550 C542 1.574 . S
C550 H545 0.949 . S
C550 C556 1.391 . S
C551 C535 1.349 1_554 S
C551 H543 0.950 . S
C551 C549 1.327 . S
C552 C540 1.349 1_556 S
C552 H546 0.950 . S
C552 C553 1.327 . S
C553 H547 0.950 . S
C553 C552 1.327 . S
C553 C557 1.429 1_556 S
C554 C537 1.574 . S
C554 H548 0.949 . S
C554 C558 1.383 . S
C555 C536 1.429 . S
C555 C549 1.429 1_556 S
C555 C556 1.524 . S
C556 C537 1.345 1_556 S
C556 C550 1.391 . S
C556 C555 1.524 . S
C557 C541 1.429 . S
C557 C553 1.429 1_554 S
C557 C558 1.523 . S
C558 C542 1.353 1_554 S
C558 C554 1.383 . S
C558 C557 1.523 . S
H559 C534 0.950 . S
H560 C536 0.950 . S
H561 C537 0.949 . S
H562 C539 0.950 . S
H563 C541 0.950 . S
C564 C565 1.349 1_554 S
C564 C566 1.327 . S
C564 H589 0.950 . S
C565 C564 1.349 1_556 S
C565 C581 1.349 . S
C566 C564 1.327 . S
C566 C585 1.429 1_554 S
C566 H590 0.950 . S
C567 C584 1.574 1_545 S
C567 C586 1.391 . S
C567 H591 0.949 . S
H568 C572 0.949 . S
C569 C570 1.349 1_556 S
C569 C571 1.327 . S
C569 H592 0.950 . S
C570 C569 1.349 1_554 S
C570 C582 1.349 . S
C571 C569 1.327 . S
C571 C587 1.429 1_556 S
C571 H593 0.950 . S
C572 H568 0.949 . S
C572 C580 1.574 1_565 S
C572 C588 1.383 . S
H573 C581 0.950 . S
H574 C579 0.950 . S
H575 C580 0.949 . S
H576 C582 0.950 . S
H577 C583 0.950 . S
H578 C584 0.949 . S
C579 H574 0.950 . S
C579 C581 1.327 . S
C579 C585 1.429 . S
C580 C572 1.574 1_545 S
C580 H575 0.949 . S
C580 C586 1.345 1_554 S
C581 C565 1.349 . S
C581 H573 0.950 . S
C581 C579 1.327 . S
C582 C570 1.349 . S
C582 H576 0.950 . S
C582 C583 1.327 . S
C583 H577 0.950 . S
C583 C582 1.327 . S
C583 C587 1.429 . S
C584 C567 1.574 1_565 S
C584 H578 0.949 . S
C584 C588 1.353 1_556 S
C585 C566 1.429 1_556 S
C585 C579 1.429 . S
C585 C586 1.524 . S
C586 C567 1.391 . S
C586 C580 1.345 1_556 S
C586 C585 1.524 . S
C587 C571 1.429 1_554 S
C587 C583 1.429 . S
C587 C588 1.523 . S
C588 C572 1.383 . S
C588 C584 1.353 1_554 S
C588 C587 1.523 . S
H589 C564 0.950 . S
H590 C566 0.950 . S
H591 C567 0.949 . S
H592 C569 0.950 . S
H593 C571 0.950 . S
C594 C595 1.349 1_556 S
C594 C596 1.327 . S
C594 H619 0.950 . S
C595 C594 1.349 1_554 S
C595 C611 1.349 . S
C596 C594 1.327 . S
C596 C615 1.429 1_556 S
C596 H620 0.950 . S
C597 C614 1.574 1_455 S
C597 C616 1.391 . S
C597 H621 0.949 . S
H598 C602 0.949 . S
C599 C600 1.349 1_554 S
C599 C601 1.327 . S
C599 H622 0.950 . S
C600 C599 1.349 1_556 S
C600 C612 1.349 . S
C601 C599 1.327 . S
C601 C617 1.429 1_554 S
C601 H623 0.950 . S
C602 H598 0.949 . S
C602 C610 1.574 1_655 S
C602 C618 1.383 . S
H603 C611 0.950 . S
H604 C609 0.950 . S
H605 C610 0.949 . S
H606 C612 0.950 . S
H607 C613 0.950 . S
H608 C614 0.949 . S
C609 H604 0.950 . S
C609 C611 1.327 . S
C609 C615 1.429 . S
C610 C602 1.574 1_455 S
C610 H605 0.949 . S
C610 C616 1.345 1_556 S
C611 C595 1.349 . S
C611 H603 0.950 . S
C611 C609 1.327 . S
C612 C600 1.349 . S
C612 H606 0.950 . S
C612 C613 1.327 . S
C613 H607 0.950 . S
C613 C612 1.327 . S
C613 C617 1.429 . S
C614 C597 1.574 1_655 S
C614 H608 0.949 . S
C614 C618 1.353 1_554 S
C615 C596 1.429 1_554 S
C615 C609 1.429 . S
C615 C616 1.524 . S
C616 C597 1.391 . S
C616 C610 1.345 1_554 S
C616 C615 1.524 . S
C617 C601 1.429 1_556 S
C617 C613 1.429 . S
C617 C618 1.523 . S
C618 C602 1.383 . S
C618 C614 1.353 1_556 S
C618 C617 1.523 . S
H619 C594 0.950 . S
H620 C596 0.950 . S
H621 C597 0.949 . S
H622 C599 0.950 . S
H623 C601 0.950 . S
C624 C625 1.349 . S
C624 C626 1.327 . S
C624 H649 0.950 . S
C625 C624 1.349 . S
C625 C641 1.349 1_556 S
C626 C624 1.327 . S
C626 C645 1.429 . S
C626 H650 0.950 . S
C627 C644 1.574 . S
C627 C646 1.345 1_554 S
C627 H651 0.949 . S
H628 C632 0.949 . S
C629 C630 1.349 . S
C629 C631 1.327 . S
C629 H652 0.950 . S
C630 C629 1.349 . S
C630 C642 1.349 1_554 S
C631 C629 1.327 . S
C631 C647 1.429 . S
C631 H653 0.950 . S
C632 H628 0.949 . S
C632 C640 1.574 . S
C632 C648 1.353 1_556 S
H633 C641 0.950 . S
H634 C639 0.950 . S
H635 C640 0.949 . S
H636 C642 0.950 . S
H637 C643 0.950 . S
H638 C644 0.949 . S
C639 H634 0.950 . S
C639 C641 1.327 . S
C639 C645 1.429 1_554 S
C640 C632 1.574 . S
C640 H635 0.949 . S
C640 C646 1.392 . S
C641 C625 1.349 1_554 S
C641 H633 0.950 . S
C641 C639 1.327 . S
C642 C630 1.349 1_556 S
C642 H636 0.950 . S
C642 C643 1.327 . S
C643 H637 0.950 . S
C643 C642 1.327 . S
C643 C647 1.429 1_556 S
C644 C627 1.574 . S
C644 H638 0.949 . S
C644 C648 1.383 . S
C645 C626 1.429 . S
C645 C639 1.429 1_556 S
C645 C646 1.524 . S
C646 C627 1.345 1_556 S
C646 C640 1.392 . S
C646 C645 1.524 . S
C647 C631 1.429 . S
C647 C643 1.429 1_554 S
C647 C648 1.523 . S
C648 C632 1.353 1_554 S
C648 C644 1.383 . S
C648 C647 1.523 . S
H649 C624 0.950 . S
H650 C626 0.950 . S
H651 C627 0.949 . S
H652 C629 0.950 . S
H653 C631 0.950 . S
C654 C655 1.349 . S
C654 C656 1.327 . S
C654 H679 0.950 . S
C655 C654 1.349 . S
C655 C671 1.349 1_554 S
C656 C654 1.327 . S
C656 C675 1.429 . S
C656 H680 0.950 . S
C657 C674 1.574 1_565 S
C657 C676 1.345 1_556 S
C657 H681 0.949 . S
H658 C662 0.949 . S
C659 C660 1.349 . S
C659 C661 1.327 . S
C659 H682 0.950 . S
C660 C659 1.349 . S
C660 C672 1.349 1_556 S
C661 C659 1.327 . S
C661 C677 1.429 . S
C661 H683 0.950 . S
C662 H658 0.949 . S
C662 C670 1.574 1_545 S
C662 C678 1.353 1_554 S
H663 C671 0.950 . S
H664 C669 0.950 . S
H665 C670 0.949 . S
H666 C672 0.950 . S
H667 C673 0.950 . S
H668 C674 0.949 . S
C669 H664 0.950 . S
C669 C671 1.327 . S
C669 C675 1.429 1_556 S
C670 C662 1.574 1_565 S
C670 H665 0.949 . S
C670 C676 1.391 . S
C671 C655 1.349 1_556 S
C671 H663 0.950 . S
C671 C669 1.327 . S
C672 C660 1.349 1_554 S
C672 H666 0.950 . S
C672 C673 1.327 . S
C673 H667 0.950 . S
C673 C672 1.327 . S
C673 C677 1.429 1_554 S
C674 C657 1.574 1_545 S
C674 H668 0.949 . S
C674 C678 1.383 . S
C675 C656 1.429 . S
C675 C669 1.429 1_554 S
C675 C676 1.524 . S
C676 C657 1.345 1_554 S
C676 C670 1.391 . S
C676 C675 1.524 . S
C677 C661 1.429 . S
C677 C673 1.429 1_556 S
C677 C678 1.523 . S
C678 C662 1.353 1_556 S
C678 C674 1.383 . S
C678 C677 1.523 . S
H679 C654 0.950 . S
H680 C656 0.950 . S
H681 C657 0.949 . S
H682 C659 0.950 . S
H683 C661 0.950 . S
C684 C685 1.349 . S
C684 C686 1.327 . S
C684 H709 0.950 . S
C685 C684 1.349 . S
C685 C701 1.349 . S
C686 C684 1.327 . S
C686 C705 1.429 . S
C686 H710 0.950 . S
C687 C704 1.574 . S
C687 C706 1.368 . S
C687 H711 0.949 . S
H688 C692 0.949 . S
C689 C690 1.349 . S
C689 C691 1.327 . S
C689 H712 0.950 . S
C690 C689 1.349 . S
C690 C702 1.349 . S
C691 C689 1.327 . S
C691 C707 1.429 . S
C691 H713 0.950 . S
C692 H688 0.949 . S
C692 C700 1.574 . S
C692 C708 1.368 . S
H693 C701 0.950 . S
H694 C699 0.950 . S
H695 C700 0.949 . S
H696 C702 0.950 . S
H697 C703 0.950 . S
H698 C704 0.949 . S
C699 H694 0.950 . S
C699 C701 1.327 . S
C699 C705 1.429 . S
C700 C692 1.574 . S
C700 H695 0.949 . S
C700 C706 1.368 . S
C701 C685 1.349 . S
C701 H693 0.950 . S
C701 C699 1.327 . S
C702 C690 1.349 . S
C702 H696 0.950 . S
C702 C703 1.327 . S
C703 H697 0.950 . S
C703 C702 1.327 . S
C703 C707 1.429 . S
C704 C687 1.574 . S
C704 H698 0.949 . S
C704 C708 1.368 . S
C705 C686 1.429 . S
C705 C699 1.429 . S
C705 C706 1.523 . S
C706 C687 1.368 . S
C706 C700 1.368 . S
C706 C705 1.523 . S
C707 C691 1.429 . S
C707 C703 1.429 . S
C707 C708 1.523 . S
C708 C692 1.368 . S
C708 C704 1.368 . S
C708 C707 1.523 . S
H709 C684 0.950 . S
H710 C686 0.950 . S
H711 C687 0.949 . S
H712 C689 0.950 . S
H713 C691 0.950 . S
C714 C715 1.349 . S
C714 C716 1.327 . S
C714 H739 0.950 . S
C715 C714 1.349 . S
C715 C731 1.349 . S
C716 C714 1.327 . S
C716 C735 1.429 . S
C716 H740 0.950 . S
C717 C734 1.574 . S
C717 C736 1.368 . S
C717 H741 0.949 . S
H718 C722 0.949 . S
C719 C720 1.349 . S
C719 C721 1.327 . S
C719 H742 0.950 . S
C720 C719 1.349 . S
C720 C732 1.349 1_545 S
C721 C719 1.327 . S
C721 C737 1.429 1_545 S
C721 H743 0.950 . S
C722 H718 0.949 . S
C722 C730 1.574 . S
C722 C738 1.368 . S
H723 C731 0.950 . S
H724 C729 0.950 . S
H725 C730 0.949 . S
H726 C732 0.950 . S
H727 C733 0.950 . S
H728 C734 0.949 1_545 S
C729 H724 0.950 . S
C729 C731 1.327 . S
C729 C735 1.429 . S
C730 C722 1.574 . S
C730 H725 0.949 . S
C730 C736 1.368 . S
C731 C715 1.349 . S
C731 H723 0.950 . S
C731 C729 1.327 . S
C732 C720 1.349 1_565 S
C732 H726 0.950 . S
C732 C733 1.327 . S
C733 H727 0.950 . S
C733 C732 1.327 . S
C733 C737 1.429 . S
C734 C717 1.574 . S
C734 H728 0.949 1_565 S
C734 C738 1.368 . S
C735 C716 1.429 . S
C735 C729 1.429 . S
C735 C736 1.523 . S
C736 C717 1.368 . S
C736 C730 1.368 . S
C736 C735 1.523 . S
C737 C721 1.429 1_565 S
C737 C733 1.429 . S
C737 C738 1.523 . S
C738 C722 1.368 . S
C738 C734 1.368 . S
C738 C737 1.523 . S
H739 C714 0.950 . S
H740 C716 0.950 . S
H741 C717 0.949 . S
H742 C719 0.950 . S
H743 C721 0.950 . S
C744 C745 1.349 . S
C744 C746 1.327 . S
C744 H769 0.950 . S
C745 C744 1.349 . S
C745 C761 1.349 1_655 S
C746 C744 1.327 . S
C746 C765 1.429 1_655 S
C746 H770 0.950 . S
C747 C764 1.574 . S
C747 C766 1.368 . S
C747 H771 0.949 . S
H748 C752 0.949 . S
C749 C750 1.349 . S
C749 C751 1.327 . S
C749 H772 0.950 . S
C750 C749 1.349 . S
C750 C762 1.349 . S
C751 C749 1.327 . S
C751 C767 1.429 . S
C751 H773 0.950 . S
C752 H748 0.949 . S
C752 C760 1.574 . S
C752 C768 1.368 . S
H753 C761 0.950 . S
H754 C759 0.950 . S
H755 C760 0.949 . S
H756 C762 0.950 . S
H757 C763 0.950 . S
H758 C764 0.949 . S
C759 H754 0.950 . S
C759 C761 1.327 . S
C759 C765 1.429 . S
C760 C752 1.574 . S
C760 H755 0.949 . S
C760 C766 1.368 . S
C761 C745 1.349 1_455 S
C761 H753 0.950 . S
C761 C759 1.327 . S
C762 C750 1.349 . S
C762 H756 0.950 . S
C762 C763 1.327 . S
C763 H757 0.950 . S
C763 C762 1.327 . S
C763 C767 1.429 . S
C764 C747 1.574 . S
C764 H758 0.949 . S
C764 C768 1.368 . S
C765 C746 1.429 1_455 S
C765 C759 1.429 . S
C765 C766 1.523 . S
C766 C747 1.368 . S
C766 C760 1.368 . S
C766 C765 1.523 . S
C767 C751 1.429 . S
C767 C763 1.429 . S
C767 C768 1.523 . S
C768 C752 1.368 . S
C768 C764 1.368 . S
C768 C767 1.523 . S
H769 C744 0.950 . S
H770 C746 0.950 . S
H771 C747 0.949 . S
H772 C749 0.950 . S
H773 C751 0.950 . S
C774 C775 1.349 . S
C774 C776 1.327 . S
C774 H799 0.950 . S
C775 C774 1.349 . S
C775 C791 1.349 . S
C776 C774 1.327 . S
C776 C795 1.429 . S
C776 H800 0.950 . S
C777 C794 1.574 . S
C777 C796 1.368 . S
C777 H801 0.949 . S
H778 C782 0.949 . S
C779 C780 1.332 1_565 S
C779 C781 1.328 . S
C779 H802 0.968 . S
C780 C779 1.332 1_545 S
C780 C792 1.349 . S
C781 C779 1.328 . S
C781 C797 1.429 . S
C781 H803 0.950 . S
C782 H778 0.949 . S
C782 C790 1.574 . S
C782 C798 1.368 . S
H783 C791 0.950 . S
H784 C789 0.950 . S
H785 C790 0.949 . S
H786 C792 0.950 . S
H787 C793 0.950 . S
H788 C794 0.949 . S
C789 H784 0.950 . S
C789 C791 1.327 . S
C789 C795 1.429 . S
C790 C782 1.574 . S
C790 H785 0.949 . S
C790 C796 1.368 . S
C791 C775 1.349 . S
C791 H783 0.950 . S
C791 C789 1.327 . S
C792 C780 1.349 . S
C792 H786 0.950 . S
C792 C793 1.327 . S
C793 H787 0.950 . S
C793 C792 1.327 . S
C793 C797 1.429 1_545 S
C794 C777 1.574 . S
C794 H788 0.949 . S
C794 C798 1.368 . S
C795 C776 1.429 . S
C795 C789 1.429 . S
C795 C796 1.523 . S
C796 C777 1.368 . S
C796 C790 1.368 . S
C796 C795 1.523 . S
C797 C781 1.429 . S
C797 C793 1.429 1_565 S
C797 C798 1.523 . S
C798 C782 1.368 . S
C798 C794 1.368 . S
C798 C797 1.523 . S
H799 C774 0.950 . S
H800 C776 0.950 . S
H801 C777 0.949 . S
H802 C779 0.968 . S
H803 C781 0.950 . S
C804 C805 1.349 . S
C804 C806 1.327 1_655 S
C804 H829 0.950 . S
C805 C804 1.349 . S
C805 C821 1.349 . S
C806 C804 1.327 1_455 S
C806 C825 1.429 . S
C806 H830 0.950 . S
C807 C824 1.574 . S
C807 C826 1.368 . S
C807 H831 0.949 . S
H808 C812 0.949 . S
C809 C810 1.349 . S
C809 C811 1.327 . S
C809 H832 0.950 . S
C810 C809 1.349 . S
C810 C822 1.349 . S
C811 C809 1.327 . S
C811 C827 1.429 . S
C811 H833 0.950 . S
C812 H808 0.949 . S
C812 C820 1.574 . S
C812 C828 1.368 . S
H813 C821 0.950 . S
H814 C819 0.950 . S
H815 C820 0.949 . S
H816 C822 0.950 . S
H817 C823 0.950 . S
H818 C824 0.949 . S
C819 H814 0.950 . S
C819 C821 1.327 1_455 S
C819 C825 1.429 . S
C820 C812 1.574 . S
C820 H815 0.949 . S
C820 C826 1.368 . S
C821 C805 1.349 . S
C821 H813 0.950 . S
C821 C819 1.327 1_655 S
C822 C810 1.349 . S
C822 H816 0.950 . S
C822 C823 1.327 . S
C823 H817 0.950 . S
C823 C822 1.327 . S
C823 C827 1.429 . S
C824 C807 1.574 . S
C824 H818 0.949 . S
C824 C828 1.368 . S
C825 C806 1.429 . S
C825 C819 1.429 . S
C825 C826 1.523 . S
C826 C807 1.368 . S
C826 C820 1.368 . S
C826 C825 1.523 . S
C827 C811 1.429 . S
C827 C823 1.429 . S
C827 C828 1.523 . S
C828 C812 1.368 . S
C828 C824 1.368 . S
C828 C827 1.523 . S
H829 C804 0.950 . S
H830 C806 0.950 . S
H831 C807 0.949 . S
H832 C809 0.950 . S
H833 C811 0.950 . S
C834 C835 1.349 . S
C834 C836 1.327 . S
C834 H859 0.950 . S
C835 C834 1.349 . S
C835 C851 1.349 . S
C836 C834 1.327 . S
C836 C855 1.429 . S
C836 H860 0.950 . S
C837 C854 1.574 . S
C837 C856 1.368 . S
C837 H861 0.949 . S
H838 C842 0.949 . S
C839 C840 1.349 . S
C839 C841 1.327 . S
C839 H862 0.950 . S
C840 C839 1.349 . S
C840 C852 1.349 . S
C841 C839 1.327 . S
C841 C857 1.429 . S
C841 H863 0.950 . S
C842 H838 0.949 . S
C842 C850 1.574 . S
C842 C858 1.368 . S
H843 C851 0.950 . S
H844 C849 0.950 . S
H845 C850 0.949 . S
H846 C852 0.950 . S
H847 C853 0.950 . S
H848 C854 0.949 . S
C849 H844 0.950 . S
C849 C851 1.327 . S
C849 C855 1.429 . S
C850 C842 1.574 . S
C850 H845 0.949 . S
C850 C856 1.368 . S
C851 C835 1.349 . S
C851 H843 0.950 . S
C851 C849 1.327 . S
C852 C840 1.349 . S
C852 H846 0.950 . S
C852 C853 1.327 . S
C853 H847 0.950 . S
C853 C852 1.327 . S
C853 C857 1.429 . S
C854 C837 1.574 . S
C854 H848 0.949 . S
C854 C858 1.368 . S
C855 C836 1.429 . S
C855 C849 1.429 . S
C855 C856 1.523 . S
C856 C837 1.368 . S
C856 C850 1.368 . S
C856 C855 1.523 . S
C857 C841 1.429 . S
C857 C853 1.429 . S
C857 C858 1.523 . S
C858 C842 1.368 . S
C858 C854 1.368 . S
C858 C857 1.523 . S
H859 C834 0.950 . S
H860 C836 0.950 . S
H861 C837 0.949 . S
H862 C839 0.950 . S
H863 C841 0.950 . S
C864 C865 1.349 . S
C864 C866 1.327 . S
C864 H889 0.950 . S
C865 C864 1.349 . S
C865 C881 1.349 1_565 S
C866 C864 1.327 . S
C866 C885 1.429 1_565 S
C866 H890 0.950 . S
C867 C884 1.574 . S
C867 C886 1.368 . S
C867 H891 0.949 . S
H868 C872 0.949 . S
C869 C870 1.349 . S
C869 C871 1.327 . S
C869 H892 0.950 . S
C870 C869 1.349 . S
C870 C882 1.349 . S
C871 C869 1.327 . S
C871 C887 1.429 . S
C871 H893 0.950 . S
C872 H868 0.949 . S
C872 C880 1.574 . S
C872 C888 1.368 . S
H873 C881 0.950 . S
H874 C879 0.950 . S
H875 C880 0.949 1_565 S
H876 C882 0.950 . S
H877 C883 0.950 . S
H878 C884 0.949 . S
C879 H874 0.950 . S
C879 C881 1.327 . S
C879 C885 1.429 . S
C880 C872 1.574 . S
C880 H875 0.949 1_545 S
C880 C886 1.368 . S
C881 C865 1.349 1_545 S
C881 H873 0.950 . S
C881 C879 1.327 . S
C882 C870 1.349 . S
C882 H876 0.950 . S
C882 C883 1.327 . S
C883 H877 0.950 . S
C883 C882 1.327 . S
C883 C887 1.429 . S
C884 C867 1.574 . S
C884 H878 0.949 . S
C884 C888 1.368 . S
C885 C866 1.429 1_545 S
C885 C879 1.429 . S
C885 C886 1.523 . S
C886 C867 1.368 . S
C886 C880 1.368 . S
C886 C885 1.523 . S
C887 C871 1.429 . S
C887 C883 1.429 . S
C887 C888 1.523 . S
C888 C872 1.368 . S
C888 C884 1.368 . S
C888 C887 1.523 . S
H889 C864 0.950 . S
H890 C866 0.950 . S
H891 C867 0.949 . S
H892 C869 0.950 . S
H893 C871 0.950 . S
C894 C895 1.349 . S
C894 C896 1.327 . S
C894 H919 0.950 . S
C895 C894 1.349 . S
C895 C911 1.349 . S
C896 C894 1.327 . S
C896 C915 1.429 . S
C896 H920 0.950 . S
C897 C914 1.574 . S
C897 C916 1.368 . S
C897 H921 0.949 . S
H898 C902 0.949 . S
C899 C900 1.349 . S
C899 C901 1.327 . S
C899 H922 0.950 . S
C900 C899 1.349 . S
C900 C912 1.369 . S
C901 C899 1.327 . S
C901 C917 1.429 1_455 S
C901 H923 0.950 . S
C902 H898 0.949 . S
C902 C910 1.574 . S
C902 C918 1.368 . S
H903 C911 0.950 . S
H904 C909 0.950 . S
H905 C910 0.949 . S
H906 C912 0.955 . S
H907 C913 0.950 . S
H908 C914 0.949 . S
C909 H904 0.950 . S
C909 C911 1.327 . S
C909 C915 1.429 . S
C910 C902 1.574 . S
C910 H905 0.949 . S
C910 C916 1.368 . S
C911 C895 1.349 . S
C911 H903 0.950 . S
C911 C909 1.327 . S
C912 C900 1.369 . S
C912 H906 0.955 . S
C912 C913 1.301 1_455 S
C913 H907 0.950 . S
C913 C912 1.301 1_655 S
C913 C917 1.429 . S
C914 C897 1.574 . S
C914 H908 0.949 . S
C914 C918 1.368 . S
C915 C896 1.429 . S
C915 C909 1.429 . S
C915 C916 1.523 . S
C916 C897 1.368 . S
C916 C910 1.368 . S
C916 C915 1.523 . S
C917 C901 1.429 1_655 S
C917 C913 1.429 . S
C917 C918 1.523 . S
C918 C902 1.368 . S
C918 C914 1.368 . S
C918 C917 1.523 . S
H919 C894 0.950 . S
H920 C896 0.950 . S
H921 C897 0.949 . S
H922 C899 0.950 . S
H923 C901 0.950 . S
C924 C925 1.349 . S
C924 C926 1.327 . S
C924 H949 0.950 . S
C925 C924 1.349 . S
C925 C941 1.349 . S
C926 C924 1.327 . S
C926 C945 1.429 . S
C926 H950 0.950 . S
C927 C944 1.574 . S
C927 C946 1.368 . S
C927 H951 0.949 . S
H928 C932 0.949 . S
C929 C930 1.349 . S
C929 C931 1.327 . S
C929 H952 0.950 . S
C930 C929 1.349 . S
C930 C942 1.349 . S
C931 C929 1.327 . S
C931 C947 1.429 . S
C931 H953 0.950 . S
C932 H928 0.949 . S
C932 C940 1.574 . S
C932 C948 1.368 . S
H933 C941 0.950 . S
H934 C939 0.950 . S
H935 C940 0.949 . S
H936 C942 0.950 . S
H937 C943 0.950 . S
H938 C944 0.949 . S
C939 H934 0.950 . S
C939 C941 1.327 . S
C939 C945 1.429 . S
C940 C932 1.574 . S
C940 H935 0.949 . S
C940 C946 1.368 . S
C941 C925 1.349 . S
C941 H933 0.950 . S
C941 C939 1.327 . S
C942 C930 1.349 . S
C942 H936 0.950 . S
C942 C943 1.327 . S
C943 H937 0.950 . S
C943 C942 1.327 . S
C943 C947 1.429 . S
C944 C927 1.574 . S
C944 H938 0.949 . S
C944 C948 1.368 . S
C945 C926 1.429 . S
C945 C939 1.429 . S
C945 C946 1.523 . S
C946 C927 1.368 . S
C946 C940 1.368 . S
C946 C945 1.523 . S
C947 C931 1.429 . S
C947 C943 1.429 . S
C947 C948 1.523 . S
C948 C932 1.368 . S
C948 C944 1.368 . S
C948 C947 1.523 . S
H949 C924 0.950 . S
H950 C926 0.950 . S
H951 C927 0.949 . S
H952 C929 0.950 . S
H953 C931 0.950 . S
C954 C955 1.349 . S
C954 C956 1.327 . S
C954 H979 0.950 . S
C955 C954 1.349 . S
C955 C971 1.349 . S
C956 C954 1.327 . S
C956 C975 1.429 . S
C956 H980 0.950 . S
C957 C974 1.574 . S
C957 C976 1.368 . S
C957 H981 0.949 . S
H958 C962 0.949 . S
C959 C960 1.349 . S
C959 C961 1.327 . S
C959 H982 0.950 . S
C960 C959 1.349 . S
C960 C972 1.349 . S
C961 C959 1.327 . S
C961 C977 1.429 . S
C961 H983 0.950 . S
C962 H958 0.949 . S
C962 C970 1.574 . S
C962 C978 1.368 . S
H963 C971 0.950 . S
H964 C969 0.950 . S
H965 C970 0.949 . S
H966 C972 0.950 . S
H967 C973 0.950 . S
H968 C974 0.949 . S
C969 H964 0.950 . S
C969 C971 1.327 . S
C969 C975 1.429 . S
C970 C962 1.574 . S
C970 H965 0.949 . S
C970 C976 1.368 . S
C971 C955 1.349 . S
C971 H963 0.950 . S
C971 C969 1.327 . S
C972 C960 1.349 . S
C972 H966 0.950 . S
C972 C973 1.327 . S
C973 H967 0.950 . S
C973 C972 1.327 . S
C973 C977 1.429 . S
C974 C957 1.574 . S
C974 H968 0.949 . S
C974 C978 1.368 . S
C975 C956 1.429 . S
C975 C969 1.429 . S
C975 C976 1.523 . S
C976 C957 1.368 . S
C976 C970 1.368 . S
C976 C975 1.523 . S
C977 C961 1.429 . S
C977 C973 1.429 . S
C977 C978 1.523 . S
C978 C962 1.368 . S
C978 C974 1.368 . S
C978 C977 1.523 . S
H979 C954 0.950 . S
H980 C956 0.950 . S
H981 C957 0.949 . S
H982 C959 0.950 . S
H983 C961 0.950 . S
C984 C985 1.349 1_545 S
C984 C986 1.327 . S
C984 H1009 0.950 . S
C985 C984 1.349 1_565 S
C985 C1001 1.349 . S
C986 C984 1.327 . S
C986 C1005 1.429 . S
C986 H1010 0.950 . S
C987 C1004 1.574 . S
C987 C1006 1.368 . S
C987 H1011 0.949 1_545 S
H988 C992 0.949 . S
C989 C990 1.349 . S
C989 C991 1.327 . S
C989 H1012 0.950 . S
C990 C989 1.349 . S
C990 C1002 1.349 . S
C991 C989 1.327 . S
C991 C1007 1.429 . S
C991 H1013 0.950 . S
C992 H988 0.949 . S
C992 C1000 1.574 . S
C992 C1008 1.368 . S
H993 C1001 0.950 . S
H994 C999 0.950 . S
H995 C1000 0.949 . S
H996 C1002 0.950 . S
H997 C1003 0.950 . S
H998 C1004 0.949 . S
C999 H994 0.950 . S
C999 C1001 1.327 . S
C999 C1005 1.429 1_565 S
C1000 C992 1.574 . S
C1000 H995 0.949 . S
C1000 C1006 1.368 . S
C1001 C985 1.349 . S
C1001 H993 0.950 . S
C1001 C999 1.327 . S
C1002 C990 1.349 . S
C1002 H996 0.950 . S
C1002 C1003 1.327 . S
C1003 H997 0.950 . S
C1003 C1002 1.327 . S
C1003 C1007 1.429 . S
C1004 C987 1.574 . S
C1004 H998 0.949 . S
C1004 C1008 1.368 . S
C1005 C986 1.429 . S
C1005 C999 1.429 1_545 S
C1005 C1006 1.523 . S
C1006 C987 1.368 . S
C1006 C1000 1.368 . S
C1006 C1005 1.523 . S
C1007 C991 1.429 . S
C1007 C1003 1.429 . S
C1007 C1008 1.523 . S
C1008 C992 1.368 . S
C1008 C1004 1.368 . S
C1008 C1007 1.523 . S
H1009 C984 0.950 . S
H1010 C986 0.950 . S
H1011 C987 0.949 1_565 S
H1012 C989 0.950 . S
H1013 C991 0.950 . S
C1014 C1015 1.349 . S
C1014 C1016 1.327 . S
C1014 H1039 0.950 . S
C1015 C1014 1.349 . S
C1015 C1031 1.349 1_455 S
C1016 C1014 1.327 . S
C1016 C1035 1.429 1_455 S
C1016 H1040 0.950 . S
C1017 C1034 1.574 . S
C1017 C1036 1.368 . S
C1017 H1041 0.949 . S
H1018 C1022 0.949 . S
C1019 C1020 1.349 . S
C1019 C1021 1.327 . S
C1019 H1042 0.950 . S
C1020 C1019 1.349 . S
C1020 C1032 1.349 . S
C1021 C1019 1.327 . S
C1021 C1037 1.429 . S
C1021 H1043 0.950 . S
C1022 H1018 0.949 . S
C1022 C1030 1.574 . S
C1022 C1038 1.368 . S
H1023 C1031 0.950 . S
H1024 C1029 0.950 . S
H1025 C1030 0.949 . S
H1026 C1032 0.950 . S
H1027 C1033 0.950 . S
H1028 C1034 0.949 . S
C1029 H1024 0.950 . S
C1029 C1031 1.327 . S
C1029 C1035 1.429 . S
C1030 C1022 1.574 . S
C1030 H1025 0.949 . S
C1030 C1036 1.368 . S
C1031 C1015 1.349 1_655 S
C1031 H1023 0.950 . S
C1031 C1029 1.327 . S
C1032 C1020 1.349 . S
C1032 H1026 0.950 . S
C1032 C1033 1.327 . S
C1033 H1027 0.950 . S
C1033 C1032 1.327 . S
C1033 C1037 1.429 . S
C1034 C1017 1.574 . S
C1034 H1028 0.949 . S
C1034 C1038 1.368 . S
C1035 C1016 1.429 1_655 S
C1035 C1029 1.429 . S
C1035 C1036 1.523 . S
C1036 C1017 1.368 . S
C1036 C1030 1.368 . S
C1036 C1035 1.523 . S
C1037 C1021 1.429 . S
C1037 C1033 1.429 . S
C1037 C1038 1.523 . S
C1038 C1022 1.368 . S
C1038 C1034 1.368 . S
C1038 C1037 1.523 . S
H1039 C1014 0.950 . S
H1040 C1016 0.950 . S
H1041 C1017 0.949 . S
H1042 C1019 0.950 . S
H1043 C1021 0.950 . S
C1044 C1045 1.349 1_554 S
C1044 C1046 1.327 . S
C1044 H1069 0.950 . S
C1045 C1044 1.349 1_556 S
C1045 C1061 1.349 . S
C1046 C1044 1.327 . S
C1046 C1065 1.429 1_554 S
C1046 H1070 0.950 . S
C1047 C1064 1.574 . S
C1047 C1066 1.368 . S
C1047 H1071 0.949 . S
H1048 C1052 0.949 . S
C1049 C1050 1.349 . S
C1049 C1051 1.327 . S
C1049 H1072 0.950 . S
C1050 C1049 1.349 . S
C1050 C1062 1.349 1_556 S
C1051 C1049 1.327 . S
C1051 C1067 1.429 . S
C1051 H1073 0.950 . S
C1052 H1048 0.949 . S
C1052 C1060 1.574 . S
C1052 C1068 1.368 1_554 S
H1053 C1061 0.950 . S
H1054 C1059 0.950 . S
H1055 C1060 0.949 . S
H1056 C1062 0.950 . S
H1057 C1063 0.950 . S
H1058 C1064 0.949 . S
C1059 H1054 0.950 . S
C1059 C1061 1.327 . S
C1059 C1065 1.429 . S
C1060 C1052 1.574 . S
C1060 H1055 0.949 . S
C1060 C1066 1.368 1_554 S
C1061 C1045 1.349 . S
C1061 H1053 0.950 . S
C1061 C1059 1.327 . S
C1062 C1050 1.349 1_554 S
C1062 H1056 0.950 . S
C1062 C1063 1.327 . S
C1063 H1057 0.950 . S
C1063 C1062 1.327 . S
C1063 C1067 1.429 1_554 S
C1064 C1047 1.574 . S
C1064 H1058 0.949 . S
C1064 C1068 1.368 . S
C1065 C1046 1.429 1_556 S
C1065 C1059 1.429 . S
C1065 C1066 1.523 . S
C1066 C1047 1.368 . S
C1066 C1060 1.368 1_556 S
C1066 C1065 1.523 . S
C1067 C1051 1.429 . S
C1067 C1063 1.429 1_556 S
C1067 C1068 1.523 . S
C1068 C1052 1.368 1_556 S
C1068 C1064 1.368 . S
C1068 C1067 1.523 . S
H1069 C1044 0.950 . S
H1070 C1046 0.950 . S
H1071 C1047 0.949 . S
H1072 C1049 0.950 . S
H1073 C1051 0.950 . S
C1074 C1075 1.349 . S
C1074 C1076 1.327 . S
C1074 H1099 0.950 . S
C1075 C1074 1.349 . S
C1075 C1091 1.349 1_556 S
C1076 C1074 1.327 . S
C1076 C1095 1.429 . S
C1076 H1100 0.950 . S
C1077 C1094 1.574 . S
C1077 C1096 1.368 1_554 S
C1077 H1101 0.949 . S
H1078 C1082 0.949 . S
C1079 C1080 1.349 1_554 S
C1079 C1081 1.327 . S
C1079 H1102 0.950 . S
C1080 C1079 1.349 1_556 S
C1080 C1092 1.349 . S
C1081 C1079 1.327 . S
C1081 C1097 1.429 1_554 S
C1081 H1103 0.950 . S
C1082 H1078 0.949 . S
C1082 C1090 1.574 . S
C1082 C1098 1.368 . S
H1083 C1091 0.950 . S
H1084 C1089 0.950 . S
H1085 C1090 0.949 . S
H1086 C1092 0.950 . S
H1087 C1093 0.950 . S
H1088 C1094 0.949 . S
C1089 H1084 0.950 . S
C1089 C1091 1.327 . S
C1089 C1095 1.429 1_554 S
C1090 C1082 1.574 . S
C1090 H1085 0.949 . S
C1090 C1096 1.368 . S
C1091 C1075 1.349 1_554 S
C1091 H1083 0.950 . S
C1091 C1089 1.327 . S
C1092 C1080 1.349 . S
C1092 H1086 0.950 . S
C1092 C1093 1.327 . S
C1093 H1087 0.950 . S
C1093 C1092 1.327 . S
C1093 C1097 1.429 . S
C1094 C1077 1.574 . S
C1094 H1088 0.949 . S
C1094 C1098 1.368 1_554 S
C1095 C1076 1.429 . S
C1095 C1089 1.429 1_556 S
C1095 C1096 1.523 . S
C1096 C1077 1.368 1_556 S
C1096 C1090 1.368 . S
C1096 C1095 1.523 . S
C1097 C1081 1.429 1_556 S
C1097 C1093 1.429 . S
C1097 C1098 1.523 . S
C1098 C1082 1.368 . S
C1098 C1094 1.368 1_556 S
C1098 C1097 1.523 . S
H1099 C1074 0.950 . S
H1100 C1076 0.950 . S
H1101 C1077 0.949 . S
H1102 C1079 0.950 . S
H1103 C1081 0.950 . S
C1104 C1105 1.349 . S
C1104 C1106 1.327 . S
C1104 H1129 0.950 . S
C1105 C1104 1.349 . S
C1105 C1121 1.349 1_556 S
C1106 C1104 1.327 . S
C1106 C1125 1.429 . S
C1106 H1130 0.950 . S
C1107 C1124 1.574 . S
C1107 C1126 1.368 1_554 S
C1107 H1131 0.949 . S
H1108 C1112 0.949 . S
C1109 C1110 1.349 1_554 S
C1109 C1111 1.327 . S
C1109 H1132 0.950 . S
C1110 C1109 1.349 1_556 S
C1110 C1122 1.349 . S
C1111 C1109 1.327 . S
C1111 C1127 1.429 1_554 S
C1111 H1133 0.950 . S
C1112 H1108 0.949 . S
C1112 C1120 1.574 . S
C1112 C1128 1.368 . S
H1113 C1121 0.950 . S
H1114 C1119 0.950 . S
H1115 C1120 0.949 . S
H1116 C1122 0.950 . S
H1117 C1123 0.950 . S
H1118 C1124 0.949 . S
C1119 H1114 0.950 . S
C1119 C1121 1.327 . S
C1119 C1125 1.429 1_554 S
C1120 C1112 1.574 . S
C1120 H1115 0.949 . S
C1120 C1126 1.368 . S
C1121 C1105 1.349 1_554 S
C1121 H1113 0.950 . S
C1121 C1119 1.327 . S
C1122 C1110 1.349 . S
C1122 H1116 0.950 . S
C1122 C1123 1.327 . S
C1123 H1117 0.950 . S
C1123 C1122 1.327 . S
C1123 C1127 1.429 . S
C1124 C1107 1.574 . S
C1124 H1118 0.949 . S
C1124 C1128 1.368 1_554 S
C1125 C1106 1.429 . S
C1125 C1119 1.429 1_556 S
C1125 C1126 1.523 . S
C1126 C1107 1.368 1_556 S
C1126 C1120 1.368 . S
C1126 C1125 1.523 . S
C1127 C1111 1.429 1_556 S
C1127 C1123 1.429 . S
C1127 C1128 1.523 . S
C1128 C1112 1.368 . S
C1128 C1124 1.368 1_556 S
C1128 C1127 1.523 . S
H1129 C1104 0.950 . S
H1130 C1106 0.950 . S
H1131 C1107 0.949 . S
H1132 C1109 0.950 . S
H1133 C1111 0.950 . S
C1134 C1135 1.349 1_556 S
C1134 C1136 1.327 . S
C1134 H1159 0.950 . S
C1135 C1134 1.349 1_554 S
C1135 C1151 1.349 . S
C1136 C1134 1.327 . S
C1136 C1155 1.429 1_556 S
C1136 H1160 0.950 . S
C1137 C1154 1.574 . S
C1137 C1156 1.368 . S
C1137 H1161 0.949 . S
H1138 C1142 0.949 . S
C1139 C1140 1.349 . S
C1139 C1141 1.327 . S
C1139 H1162 0.950 . S
C1140 C1139 1.349 . S
C1140 C1152 1.349 1_554 S
C1141 C1139 1.327 . S
C1141 C1157 1.429 . S
C1141 H1163 0.950 . S
C1142 H1138 0.949 . S
C1142 C1150 1.574 . S
C1142 C1158 1.368 1_556 S
H1143 C1151 0.950 . S
H1144 C1149 0.950 . S
H1145 C1150 0.949 . S
H1146 C1152 0.950 . S
H1147 C1153 0.950 . S
H1148 C1154 0.949 . S
C1149 H1144 0.950 . S
C1149 C1151 1.327 . S
C1149 C1155 1.429 . S
C1150 C1142 1.574 . S
C1150 H1145 0.949 . S
C1150 C1156 1.368 1_556 S
C1151 C1135 1.349 . S
C1151 H1143 0.950 . S
C1151 C1149 1.327 . S
C1152 C1140 1.349 1_556 S
C1152 H1146 0.950 . S
C1152 C1153 1.327 . S
C1153 H1147 0.950 . S
C1153 C1152 1.327 . S
C1153 C1157 1.429 1_556 S
C1154 C1137 1.574 . S
C1154 H1148 0.949 . S
C1154 C1158 1.368 . S
C1155 C1136 1.429 1_554 S
C1155 C1149 1.429 . S
C1155 C1156 1.523 . S
C1156 C1137 1.368 . S
C1156 C1150 1.368 1_554 S
C1156 C1155 1.523 . S
C1157 C1141 1.429 . S
C1157 C1153 1.429 1_554 S
C1157 C1158 1.523 . S
C1158 C1142 1.368 1_554 S
C1158 C1154 1.368 . S
C1158 C1157 1.523 . S
H1159 C1134 0.950 . S
H1160 C1136 0.950 . S
H1161 C1137 0.949 . S
H1162 C1139 0.950 . S
H1163 C1141 0.950 . S
C1164 C1165 1.349 . S
C1164 C1166 1.327 . S
C1164 H1189 0.950 . S
C1165 C1164 1.349 . S
C1165 C1181 1.349 1_554 S
C1166 C1164 1.327 . S
C1166 C1185 1.429 . S
C1166 H1190 0.950 . S
C1167 C1184 1.574 . S
C1167 C1186 1.368 1_556 S
C1167 H1191 0.949 . S
H1168 C1172 0.949 . S
C1169 C1170 1.349 1_556 S
C1169 C1171 1.327 . S
C1169 H1192 0.950 . S
C1170 C1169 1.349 1_554 S
C1170 C1182 1.349 . S
C1171 C1169 1.327 . S
C1171 C1187 1.429 1_556 S
C1171 H1193 0.950 . S
C1172 H1168 0.949 . S
C1172 C1180 1.574 . S
C1172 C1188 1.368 . S
H1173 C1181 0.950 . S
H1174 C1179 0.950 . S
H1175 C1180 0.949 . S
H1176 C1182 0.950 . S
H1177 C1183 0.950 . S
H1178 C1184 0.949 . S
C1179 H1174 0.950 . S
C1179 C1181 1.327 . S
C1179 C1185 1.429 1_556 S
C1180 C1172 1.574 . S
C1180 H1175 0.949 . S
C1180 C1186 1.368 . S
C1181 C1165 1.349 1_556 S
C1181 H1173 0.950 . S
C1181 C1179 1.327 . S
C1182 C1170 1.349 . S
C1182 H1176 0.950 . S
C1182 C1183 1.327 . S
C1183 H1177 0.950 . S
C1183 C1182 1.327 . S
C1183 C1187 1.429 . S
C1184 C1167 1.574 . S
C1184 H1178 0.949 . S
C1184 C1188 1.368 1_556 S
C1185 C1166 1.429 . S
C1185 C1179 1.429 1_554 S
C1185 C1186 1.523 . S
C1186 C1167 1.368 1_554 S
C1186 C1180 1.368 . S
C1186 C1185 1.523 . S
C1187 C1171 1.429 1_554 S
C1187 C1183 1.429 . S
C1187 C1188 1.523 . S
C1188 C1172 1.368 . S
C1188 C1184 1.368 1_554 S
C1188 C1187 1.523 . S
H1189 C1164 0.950 . S
H1190 C1166 0.950 . S
H1191 C1167 0.949 . S
H1192 C1169 0.950 . S
H1193 C1171 0.950 . S
C1194 C1195 1.349 . S
C1194 C1196 1.327 . S
C1194 H1219 0.950 . S
C1195 C1194 1.349 . S
C1195 C1211 1.349 1_554 S
C1196 C1194 1.327 . S
C1196 C1215 1.429 . S
C1196 H1220 0.950 . S
C1197 C1214 1.574 . S
C1197 C1216 1.368 1_556 S
C1197 H1221 0.949 . S
H1198 C1202 0.949 . S
C1199 C1200 1.349 1_556 S
C1199 C1201 1.327 . S
C1199 H1222 0.950 . S
C1200 C1199 1.349 1_554 S
C1200 C1212 1.349 . S
C1201 C1199 1.327 . S
C1201 C1217 1.429 1_556 S
C1201 H1223 0.950 . S
C1202 H1198 0.949 . S
C1202 C1210 1.574 . S
C1202 C1218 1.368 . S
H1203 C1211 0.950 . S
H1204 C1209 0.950 . S
H1205 C1210 0.949 . S
H1206 C1212 0.950 . S
H1207 C1213 0.950 . S
H1208 C1214 0.949 . S
C1209 H1204 0.950 . S
C1209 C1211 1.327 . S
C1209 C1215 1.429 1_556 S
C1210 C1202 1.574 . S
C1210 H1205 0.949 . S
C1210 C1216 1.368 . S
C1211 C1195 1.349 1_556 S
C1211 H1203 0.950 . S
C1211 C1209 1.327 . S
C1212 C1200 1.349 . S
C1212 H1206 0.950 . S
C1212 C1213 1.327 . S
C1213 H1207 0.950 . S
C1213 C1212 1.327 . S
C1213 C1217 1.429 . S
C1214 C1197 1.574 . S
C1214 H1208 0.949 . S
C1214 C1218 1.368 1_556 S
C1215 C1196 1.429 . S
C1215 C1209 1.429 1_554 S
C1215 C1216 1.523 . S
C1216 C1197 1.368 1_554 S
C1216 C1210 1.368 . S
C1216 C1215 1.523 . S
C1217 C1201 1.429 1_554 S
C1217 C1213 1.429 . S
C1217 C1218 1.523 . S
C1218 C1202 1.368 . S
C1218 C1214 1.368 1_554 S
C1218 C1217 1.523 . S
H1219 C1194 0.950 . S
H1220 C1196 0.950 . S
H1221 C1197 0.949 . S
H1222 C1199 0.950 . S
H1223 C1201 0.950 . S
C1224 C1225 1.349 . S
C1224 C1226 1.327 . S
C1224 H1249 0.950 . S
C1225 C1224 1.349 . S
C1225 C1241 1.349 . S
C1226 C1224 1.327 . S
C1226 C1245 1.429 . S
C1226 H1250 0.950 . S
C1227 C1244 1.574 . S
C1227 C1246 1.368 . S
C1227 H1251 0.949 . S
H1228 C1232 0.949 . S
C1229 C1230 1.349 . S
C1229 C1231 1.327 . S
C1229 H1252 0.950 . S
C1230 C1229 1.349 . S
C1230 C1242 1.349 . S
C1231 C1229 1.327 . S
C1231 C1247 1.429 . S
C1231 H1253 0.950 . S
C1232 H1228 0.949 . S
C1232 C1240 1.574 . S
C1232 C1248 1.368 . S
H1233 C1241 0.950 . S
H1234 C1239 0.950 . S
H1235 C1240 0.949 . S
H1236 C1242 0.950 . S
H1237 C1243 0.950 . S
H1238 C1244 0.949 . S
C1239 H1234 0.950 . S
C1239 C1241 1.327 . S
C1239 C1245 1.429 . S
C1240 C1232 1.574 . S
C1240 H1235 0.949 . S
C1240 C1246 1.368 . S
C1241 C1225 1.349 . S
C1241 H1233 0.950 . S
C1241 C1239 1.327 . S
C1242 C1230 1.349 . S
C1242 H1236 0.950 . S
C1242 C1243 1.327 . S
C1243 H1237 0.950 . S
C1243 C1242 1.327 . S
C1243 C1247 1.429 . S
C1244 C1227 1.574 . S
C1244 H1238 0.949 . S
C1244 C1248 1.368 . S
C1245 C1226 1.429 . S
C1245 C1239 1.429 . S
C1245 C1246 1.523 . S
C1246 C1227 1.368 . S
C1246 C1240 1.368 . S
C1246 C1245 1.523 . S
C1247 C1231 1.429 . S
C1247 C1243 1.429 . S
C1247 C1248 1.523 . S
C1248 C1232 1.368 . S
C1248 C1244 1.368 . S
C1248 C1247 1.523 . S
H1249 C1224 0.950 . S
H1250 C1226 0.950 . S
H1251 C1227 0.949 . S
H1252 C1229 0.950 . S
H1253 C1231 0.950 . S
C1254 C1255 1.349 . S
C1254 C1256 1.327 . S
C1254 H1279 0.950 . S
C1255 C1254 1.349 . S
C1255 C1271 1.349 . S
C1256 C1254 1.327 . S
C1256 C1275 1.429 . S
C1256 H1280 0.950 . S
C1257 C1274 1.574 . S
C1257 C1276 1.368 . S
C1257 H1281 0.949 . S
H1258 C1262 0.949 . S
C1259 C1260 1.349 . S
C1259 C1261 1.327 . S
C1259 H1282 0.950 . S
C1260 C1259 1.349 . S
C1260 C1272 1.349 . S
C1261 C1259 1.327 . S
C1261 C1277 1.429 . S
C1261 H1283 0.950 . S
C1262 H1258 0.949 . S
C1262 C1270 1.574 . S
C1262 C1278 1.368 . S
H1263 C1271 0.950 . S
H1264 C1269 0.950 . S
H1265 C1270 0.949 . S
H1266 C1272 0.950 . S
H1267 C1273 0.950 . S
H1268 C1274 0.949 . S
C1269 H1264 0.950 . S
C1269 C1271 1.327 . S
C1269 C1275 1.429 . S
C1270 C1262 1.574 . S
C1270 H1265 0.949 . S
C1270 C1276 1.368 . S
C1271 C1255 1.349 . S
C1271 H1263 0.950 . S
C1271 C1269 1.327 . S
C1272 C1260 1.349 . S
C1272 H1266 0.950 . S
C1272 C1273 1.327 . S
C1273 H1267 0.950 . S
C1273 C1272 1.327 . S
C1273 C1277 1.429 . S
C1274 C1257 1.574 . S
C1274 H1268 0.949 . S
C1274 C1278 1.368 . S
C1275 C1256 1.429 . S
C1275 C1269 1.429 . S
C1275 C1276 1.523 . S
C1276 C1257 1.368 . S
C1276 C1270 1.368 . S
C1276 C1275 1.523 . S
C1277 C1261 1.429 . S
C1277 C1273 1.429 . S
C1277 C1278 1.523 . S
C1278 C1262 1.368 . S
C1278 C1274 1.368 . S
C1278 C1277 1.523 . S
H1279 C1254 0.950 . S
H1280 C1256 0.950 . S
H1281 C1257 0.949 . S
H1282 C1259 0.950 . S
H1283 C1261 0.950 . S
C1284 C1285 1.349 . S
C1284 C1286 1.327 . S
C1284 H1309 0.950 . S
C1285 C1284 1.349 . S
C1285 C1301 1.349 . S
C1286 C1284 1.327 . S
C1286 C1305 1.429 . S
C1286 H1310 0.950 . S
C1287 C1304 1.574 . S
C1287 C1306 1.368 . S
C1287 H1311 0.949 . S
H1288 C1292 0.949 . S
C1289 C1290 1.349 . S
C1289 C1291 1.327 . S
C1289 H1312 0.950 . S
C1290 C1289 1.349 . S
C1290 C1302 1.349 . S
C1291 C1289 1.327 . S
C1291 C1307 1.429 . S
C1291 H1313 0.950 . S
C1292 H1288 0.949 . S
C1292 C1300 1.574 . S
C1292 C1308 1.368 . S
H1293 C1301 0.950 . S
H1294 C1299 0.950 . S
H1295 C1300 0.949 . S
H1296 C1302 0.950 . S
H1297 C1303 0.950 . S
H1298 C1304 0.949 . S
C1299 H1294 0.950 . S
C1299 C1301 1.327 . S
C1299 C1305 1.429 . S
C1300 C1292 1.574 . S
C1300 H1295 0.949 . S
C1300 C1306 1.368 . S
C1301 C1285 1.349 . S
C1301 H1293 0.950 . S
C1301 C1299 1.327 . S
C1302 C1290 1.349 . S
C1302 H1296 0.950 . S
C1302 C1303 1.327 . S
C1303 H1297 0.950 . S
C1303 C1302 1.327 . S
C1303 C1307 1.429 . S
C1304 C1287 1.574 . S
C1304 H1298 0.949 . S
C1304 C1308 1.368 . S
C1305 C1286 1.429 . S
C1305 C1299 1.429 . S
C1305 C1306 1.523 . S
C1306 C1287 1.368 . S
C1306 C1300 1.368 . S
C1306 C1305 1.523 . S
C1307 C1291 1.429 . S
C1307 C1303 1.429 . S
C1307 C1308 1.523 . S
C1308 C1292 1.368 . S
C1308 C1304 1.368 . S
C1308 C1307 1.523 . S
H1309 C1284 0.950 . S
H1310 C1286 0.950 . S
H1311 C1287 0.949 . S
H1312 C1289 0.950 . S
H1313 C1291 0.950 . S
C1314 C1315 1.349 . S
C1314 C1316 1.327 . S
C1314 H1339 0.950 . S
C1315 C1314 1.349 . S
C1315 C1331 1.349 . S
C1316 C1314 1.327 . S
C1316 C1335 1.429 . S
C1316 H1340 0.950 . S
C1317 C1334 1.574 . S
C1317 C1336 1.368 . S
C1317 H1341 0.949 . S
H1318 C1322 0.949 . S
C1319 C1320 1.349 . S
C1319 C1321 1.327 . S
C1319 H1342 0.950 . S
C1320 C1319 1.349 . S
C1320 C1332 1.349 . S
C1321 C1319 1.327 . S
C1321 C1337 1.429 . S
C1321 H1343 0.950 . S
C1322 H1318 0.949 . S
C1322 C1330 1.574 . S
C1322 C1338 1.368 . S
H1323 C1331 0.950 . S
H1324 C1329 0.950 . S
H1325 C1330 0.949 . S
H1326 C1332 0.950 . S
H1327 C1333 0.950 . S
H1328 C1334 0.949 . S
C1329 H1324 0.950 . S
C1329 C1331 1.327 . S
C1329 C1335 1.429 . S
C1330 C1322 1.574 . S
C1330 H1325 0.949 . S
C1330 C1336 1.368 . S
C1331 C1315 1.349 . S
C1331 H1323 0.950 . S
C1331 C1329 1.327 . S
C1332 C1320 1.349 . S
C1332 H1326 0.950 . S
C1332 C1333 1.327 . S
C1333 H1327 0.950 . S
C1333 C1332 1.327 . S
C1333 C1337 1.429 . S
C1334 C1317 1.574 . S
C1334 H1328 0.949 . S
C1334 C1338 1.368 . S
C1335 C1316 1.429 . S
C1335 C1329 1.429 . S
C1335 C1336 1.523 . S
C1336 C1317 1.368 . S
C1336 C1330 1.368 . S
C1336 C1335 1.523 . S
C1337 C1321 1.429 . S
C1337 C1333 1.429 . S
C1337 C1338 1.523 . S
C1338 C1322 1.368 . S
C1338 C1334 1.368 . S
C1338 C1337 1.523 . S
H1339 C1314 0.950 . S
H1340 C1316 0.950 . S
H1341 C1317 0.949 . S
H1342 C1319 0.950 . S
H1343 C1321 0.950 . S
C1344 C1345 1.349 . S
C1344 C1346 1.327 . S
C1344 H1369 0.950 . S
C1345 C1344 1.349 . S
C1345 C1361 1.349 . S
C1346 C1344 1.327 . S
C1346 C1365 1.429 . S
C1346 H1370 0.950 . S
C1347 C1364 1.574 . S
C1347 C1366 1.368 . S
C1347 H1371 0.949 . S
H1348 C1352 0.949 . S
C1349 C1350 1.349 . S
C1349 C1351 1.327 . S
C1349 H1372 0.950 . S
C1350 C1349 1.349 . S
C1350 C1362 1.349 . S
C1351 C1349 1.327 . S
C1351 C1367 1.429 . S
C1351 H1373 0.950 . S
C1352 H1348 0.949 . S
C1352 C1360 1.574 . S
C1352 C1368 1.368 . S
H1353 C1361 0.950 . S
H1354 C1359 0.950 . S
H1355 C1360 0.949 . S
H1356 C1362 0.950 . S
H1357 C1363 0.950 . S
H1358 C1364 0.949 . S
C1359 H1354 0.950 . S
C1359 C1361 1.327 . S
C1359 C1365 1.429 . S
C1360 C1352 1.574 . S
C1360 H1355 0.949 . S
C1360 C1366 1.368 . S
C1361 C1345 1.349 . S
C1361 H1353 0.950 . S
C1361 C1359 1.327 . S
C1362 C1350 1.349 . S
C1362 H1356 0.950 . S
C1362 C1363 1.327 . S
C1363 H1357 0.950 . S
C1363 C1362 1.327 . S
C1363 C1367 1.429 . S
C1364 C1347 1.574 . S
C1364 H1358 0.949 . S
C1364 C1368 1.368 . S
C1365 C1346 1.429 . S
C1365 C1359 1.429 . S
C1365 C1366 1.523 . S
C1366 C1347 1.368 . S
C1366 C1360 1.368 . S
C1366 C1365 1.523 . S
C1367 C1351 1.429 . S
C1367 C1363 1.429 . S
C1367 C1368 1.523 . S
C1368 C1352 1.368 . S
C1368 C1364 1.368 . S
C1368 C1367 1.523 . S
H1369 C1344 0.950 . S
H1370 C1346 0.950 . S
H1371 C1347 0.949 . S
H1372 C1349 0.950 . S
H1373 C1351 0.950 . S
C1374 C1375 1.349 . S
C1374 C1376 1.327 . S
C1374 H1399 0.950 . S
C1375 C1374 1.349 . S
C1375 C1391 1.349 . S
C1376 C1374 1.327 . S
C1376 C1395 1.429 . S
C1376 H1400 0.950 . S
C1377 C1394 1.574 . S
C1377 C1396 1.368 . S
C1377 H1401 0.949 . S
H1378 C1382 0.949 . S
C1379 C1380 1.349 . S
C1379 C1381 1.327 . S
C1379 H1402 0.950 . S
C1380 C1379 1.349 . S
C1380 C1392 1.349 . S
C1381 C1379 1.327 . S
C1381 C1397 1.429 . S
C1381 H1403 0.950 . S
C1382 H1378 0.949 . S
C1382 C1390 1.574 . S
C1382 C1398 1.368 . S
H1383 C1391 0.950 . S
H1384 C1389 0.950 . S
H1385 C1390 0.949 . S
H1386 C1392 0.950 . S
H1387 C1393 0.950 . S
H1388 C1394 0.949 . S
C1389 H1384 0.950 . S
C1389 C1391 1.327 . S
C1389 C1395 1.429 . S
C1390 C1382 1.574 . S
C1390 H1385 0.949 . S
C1390 C1396 1.368 . S
C1391 C1375 1.349 . S
C1391 H1383 0.950 . S
C1391 C1389 1.327 . S
C1392 C1380 1.349 . S
C1392 H1386 0.950 . S
C1392 C1393 1.327 . S
C1393 H1387 0.950 . S
C1393 C1392 1.327 . S
C1393 C1397 1.429 . S
C1394 C1377 1.574 . S
C1394 H1388 0.949 . S
C1394 C1398 1.368 . S
C1395 C1376 1.429 . S
C1395 C1389 1.429 . S
C1395 C1396 1.523 . S
C1396 C1377 1.368 . S
C1396 C1390 1.368 . S
C1396 C1395 1.523 . S
C1397 C1381 1.429 . S
C1397 C1393 1.429 . S
C1397 C1398 1.523 . S
C1398 C1382 1.368 . S
C1398 C1394 1.368 . S
C1398 C1397 1.523 . S
H1399 C1374 0.950 . S
H1400 C1376 0.950 . S
H1401 C1377 0.949 . S
H1402 C1379 0.950 . S
H1403 C1381 0.950 . S
C1404 C1405 1.349 . S
C1404 C1406 1.327 . S
C1404 H1429 0.950 . S
C1405 C1404 1.349 . S
C1405 C1421 1.349 . S
C1406 C1404 1.327 . S
C1406 C1425 1.429 . S
C1406 H1430 0.950 . S
C1407 C1424 1.574 . S
C1407 C1426 1.368 . S
C1407 H1431 0.949 . S
H1408 C1412 0.949 . S
C1409 C1410 1.349 . S
C1409 C1411 1.327 . S
C1409 H1432 0.950 . S
C1410 C1409 1.349 . S
C1410 C1422 1.349 . S
C1411 C1409 1.327 . S
C1411 C1427 1.429 . S
C1411 H1433 0.950 . S
C1412 H1408 0.949 . S
C1412 C1420 1.574 . S
C1412 C1428 1.368 . S
H1413 C1421 0.950 . S
H1414 C1419 0.950 . S
H1415 C1420 0.949 . S
H1416 C1422 0.950 . S
H1417 C1423 0.950 . S
H1418 C1424 0.949 . S
C1419 H1414 0.950 . S
C1419 C1421 1.327 . S
C1419 C1425 1.429 . S
C1420 C1412 1.574 . S
C1420 H1415 0.949 . S
C1420 C1426 1.368 . S
C1421 C1405 1.349 . S
C1421 H1413 0.950 . S
C1421 C1419 1.327 . S
C1422 C1410 1.349 . S
C1422 H1416 0.950 . S
C1422 C1423 1.327 . S
C1423 H1417 0.950 . S
C1423 C1422 1.327 . S
C1423 C1427 1.429 . S
C1424 C1407 1.574 . S
C1424 H1418 0.949 . S
C1424 C1428 1.368 . S
C1425 C1406 1.429 . S
C1425 C1419 1.429 . S
C1425 C1426 1.523 . S
C1426 C1407 1.368 . S
C1426 C1420 1.368 . S
C1426 C1425 1.523 . S
C1427 C1411 1.429 . S
C1427 C1423 1.429 . S
C1427 C1428 1.523 . S
C1428 C1412 1.368 . S
C1428 C1424 1.368 . S
C1428 C1427 1.523 . S
H1429 C1404 0.950 . S
H1430 C1406 0.950 . S
H1431 C1407 0.949 . S
H1432 C1409 0.950 . S
H1433 C1411 0.950 . S
C1434 C1435 1.349 . S
C1434 C1436 1.327 . S
C1434 H1459 0.950 . S
C1435 C1434 1.349 . S
C1435 C1451 1.349 . S
C1436 C1434 1.327 . S
C1436 C1455 1.429 . S
C1436 H1460 0.950 . S
C1437 C1454 1.574 . S
C1437 C1456 1.368 . S
C1437 H1461 0.949 . S
H1438 C1442 0.949 . S
C1439 C1440 1.349 . S
C1439 C1441 1.327 . S
C1439 H1462 0.950 . S
C1440 C1439 1.349 . S
C1440 C1452 1.349 . S
C1441 C1439 1.327 . S
C1441 C1457 1.429 . S
C1441 H1463 0.950 . S
C1442 H1438 0.949 . S
C1442 C1450 1.574 . S
C1442 C1458 1.368 . S
H1443 C1451 0.950 . S
H1444 C1449 0.950 . S
H1445 C1450 0.949 . S
H1446 C1452 0.950 . S
H1447 C1453 0.950 . S
H1448 C1454 0.949 . S
C1449 H1444 0.950 . S
C1449 C1451 1.327 . S
C1449 C1455 1.429 . S
C1450 C1442 1.574 . S
C1450 H1445 0.949 . S
C1450 C1456 1.368 . S
C1451 C1435 1.349 . S
C1451 H1443 0.950 . S
C1451 C1449 1.327 . S
C1452 C1440 1.349 . S
C1452 H1446 0.950 . S
C1452 C1453 1.327 . S
C1453 H1447 0.950 . S
C1453 C1452 1.327 . S
C1453 C1457 1.429 . S
C1454 C1437 1.574 . S
C1454 H1448 0.949 . S
C1454 C1458 1.368 . S
C1455 C1436 1.429 . S
C1455 C1449 1.429 . S
C1455 C1456 1.523 . S
C1456 C1437 1.368 . S
C1456 C1450 1.368 . S
C1456 C1455 1.523 . S
C1457 C1441 1.429 . S
C1457 C1453 1.429 . S
C1457 C1458 1.523 . S
C1458 C1442 1.368 . S
C1458 C1454 1.368 . S
C1458 C1457 1.523 . S
H1459 C1434 0.950 . S
H1460 C1436 0.950 . S
H1461 C1437 0.949 . S
H1462 C1439 0.950 . S
H1463 C1441 0.950 . S
C1464 C1465 1.349 . S
C1464 C1466 1.327 . S
C1464 H1489 0.950 . S
C1465 C1464 1.349 . S
C1465 C1481 1.349 . S
C1466 C1464 1.327 . S
C1466 C1485 1.429 . S
C1466 H1490 0.950 . S
C1467 C1484 1.574 . S
C1467 C1486 1.368 . S
C1467 H1491 0.949 . S
H1468 C1472 0.949 . S
C1469 C1470 1.349 . S
C1469 C1471 1.327 . S
C1469 H1492 0.950 . S
C1470 C1469 1.349 . S
C1470 C1482 1.349 . S
C1471 C1469 1.327 . S
C1471 C1487 1.429 . S
C1471 H1493 0.950 . S
C1472 H1468 0.949 . S
C1472 C1480 1.574 . S
C1472 C1488 1.368 . S
H1473 C1481 0.950 . S
H1474 C1479 0.950 . S
H1475 C1480 0.949 . S
H1476 C1482 0.950 . S
H1477 C1483 0.950 . S
H1478 C1484 0.949 . S
C1479 H1474 0.950 . S
C1479 C1481 1.327 . S
C1479 C1485 1.429 . S
C1480 C1472 1.574 . S
C1480 H1475 0.949 . S
C1480 C1486 1.368 . S
C1481 C1465 1.349 . S
C1481 H1473 0.950 . S
C1481 C1479 1.327 . S
C1482 C1470 1.349 . S
C1482 H1476 0.950 . S
C1482 C1483 1.327 . S
C1483 H1477 0.950 . S
C1483 C1482 1.327 . S
C1483 C1487 1.429 . S
C1484 C1467 1.574 . S
C1484 H1478 0.949 . S
C1484 C1488 1.368 . S
C1485 C1466 1.429 . S
C1485 C1479 1.429 . S
C1485 C1486 1.523 . S
C1486 C1467 1.368 . S
C1486 C1480 1.368 . S
C1486 C1485 1.523 . S
C1487 C1471 1.429 . S
C1487 C1483 1.429 . S
C1487 C1488 1.523 . S
C1488 C1472 1.368 . S
C1488 C1484 1.368 . S
C1488 C1487 1.523 . S
H1489 C1464 0.950 . S
H1490 C1466 0.950 . S
H1491 C1467 0.949 . S
H1492 C1469 0.950 . S
H1493 C1471 0.950 . S
C1494 C1495 1.349 . S
C1494 C1496 1.327 . S
C1494 H1519 0.950 . S
C1495 C1494 1.349 . S
C1495 C1511 1.349 . S
C1496 C1494 1.327 . S
C1496 C1515 1.429 . S
C1496 H1520 0.950 . S
C1497 C1514 1.574 . S
C1497 C1516 1.368 . S
C1497 H1521 0.949 . S
H1498 C1502 0.949 . S
C1499 C1500 1.349 . S
C1499 C1501 1.327 . S
C1499 H1522 0.950 . S
C1500 C1499 1.349 . S
C1500 C1512 1.349 . S
C1501 C1499 1.327 . S
C1501 C1517 1.429 . S
C1501 H1523 0.950 . S
C1502 H1498 0.949 . S
C1502 C1510 1.574 . S
C1502 C1518 1.368 . S
H1503 C1511 0.950 . S
H1504 C1509 0.950 . S
H1505 C1510 0.949 . S
H1506 C1512 0.950 . S
H1507 C1513 0.950 . S
H1508 C1514 0.949 . S
C1509 H1504 0.950 . S
C1509 C1511 1.327 . S
C1509 C1515 1.429 . S
C1510 C1502 1.574 . S
C1510 H1505 0.949 . S
C1510 C1516 1.368 . S
C1511 C1495 1.349 . S
C1511 H1503 0.950 . S
C1511 C1509 1.327 . S
C1512 C1500 1.349 . S
C1512 H1506 0.950 . S
C1512 C1513 1.327 . S
C1513 H1507 0.950 . S
C1513 C1512 1.327 . S
C1513 C1517 1.429 . S
C1514 C1497 1.574 . S
C1514 H1508 0.949 . S
C1514 C1518 1.368 . S
C1515 C1496 1.429 . S
C1515 C1509 1.429 . S
C1515 C1516 1.523 . S
C1516 C1497 1.368 . S
C1516 C1510 1.368 . S
C1516 C1515 1.523 . S
C1517 C1501 1.429 . S
C1517 C1513 1.429 . S
C1517 C1518 1.523 . S
C1518 C1502 1.368 . S
C1518 C1514 1.368 . S
C1518 C1517 1.523 . S
H1519 C1494 0.950 . S
H1520 C1496 0.950 . S
H1521 C1497 0.949 . S
H1522 C1499 0.950 . S
H1523 C1501 0.950 . S
C1524 C1525 1.349 . S
C1524 C1526 1.327 . S
C1524 H1549 0.950 . S
C1525 C1524 1.349 . S
C1525 C1541 1.349 . S
C1526 C1524 1.327 . S
C1526 C1545 1.429 . S
C1526 H1550 0.950 . S
C1527 C1544 1.574 . S
C1527 C1546 1.368 . S
C1527 H1551 0.949 . S
H1528 C1532 0.949 . S
C1529 C1530 1.349 . S
C1529 C1531 1.327 . S
C1529 H1552 0.950 . S
C1530 C1529 1.349 . S
C1530 C1542 1.349 . S
C1531 C1529 1.327 . S
C1531 C1547 1.429 . S
C1531 H1553 0.950 . S
C1532 H1528 0.949 . S
C1532 C1540 1.574 . S
C1532 C1548 1.368 . S
H1533 C1541 0.950 . S
H1534 C1539 0.950 . S
H1535 C1540 0.949 . S
H1536 C1542 0.950 . S
H1537 C1543 0.950 . S
H1538 C1544 0.949 . S
C1539 H1534 0.950 . S
C1539 C1541 1.327 . S
C1539 C1545 1.429 . S
C1540 C1532 1.574 . S
C1540 H1535 0.949 . S
C1540 C1546 1.368 . S
C1541 C1525 1.349 . S
C1541 H1533 0.950 . S
C1541 C1539 1.327 . S
C1542 C1530 1.349 . S
C1542 H1536 0.950 . S
C1542 C1543 1.327 . S
C1543 H1537 0.950 . S
C1543 C1542 1.327 . S
C1543 C1547 1.429 . S
C1544 C1527 1.574 . S
C1544 H1538 0.949 . S
C1544 C1548 1.368 . S
C1545 C1526 1.429 . S
C1545 C1539 1.429 . S
C1545 C1546 1.523 . S
C1546 C1527 1.368 . S
C1546 C1540 1.368 . S
C1546 C1545 1.523 . S
C1547 C1531 1.429 . S
C1547 C1543 1.429 . S
C1547 C1548 1.523 . S
C1548 C1532 1.368 . S
C1548 C1544 1.368 . S
C1548 C1547 1.523 . S
H1549 C1524 0.950 . S
H1550 C1526 0.950 . S
H1551 C1527 0.949 . S
H1552 C1529 0.950 . S
H1553 C1531 0.950 . S
C1554 C1555 1.349 . S
C1554 C1556 1.327 . S
C1554 H1579 0.950 . S
C1555 C1554 1.349 . S
C1555 C1571 1.349 . S
C1556 C1554 1.327 . S
C1556 C1575 1.429 . S
C1556 H1580 0.950 . S
C1557 C1574 1.574 . S
C1557 C1576 1.368 . S
C1557 H1581 0.949 . S
H1558 C1562 0.949 . S
C1559 C1560 1.349 . S
C1559 C1561 1.327 . S
C1559 H1582 0.950 . S
C1560 C1559 1.349 . S
C1560 C1572 1.349 . S
C1561 C1559 1.327 . S
C1561 C1577 1.429 . S
C1561 H1583 0.950 . S
C1562 H1558 0.949 . S
C1562 C1570 1.574 . S
C1562 C1578 1.368 . S
H1563 C1571 0.950 . S
H1564 C1569 0.950 . S
H1565 C1570 0.949 . S
H1566 C1572 0.950 . S
H1567 C1573 0.950 . S
H1568 C1574 0.949 . S
C1569 H1564 0.950 . S
C1569 C1571 1.327 . S
C1569 C1575 1.429 . S
C1570 C1562 1.574 . S
C1570 H1565 0.949 . S
C1570 C1576 1.368 . S
C1571 C1555 1.349 . S
C1571 H1563 0.950 . S
C1571 C1569 1.327 . S
C1572 C1560 1.349 . S
C1572 H1566 0.950 . S
C1572 C1573 1.327 . S
C1573 H1567 0.950 . S
C1573 C1572 1.327 . S
C1573 C1577 1.429 . S
C1574 C1557 1.574 . S
C1574 H1568 0.949 . S
C1574 C1578 1.368 . S
C1575 C1556 1.429 . S
C1575 C1569 1.429 . S
C1575 C1576 1.523 . S
C1576 C1557 1.368 . S
C1576 C1570 1.368 . S
C1576 C1575 1.523 . S
C1577 C1561 1.429 . S
C1577 C1573 1.429 . S
C1577 C1578 1.523 . S
C1578 C1562 1.368 . S
C1578 C1574 1.368 . S
C1578 C1577 1.523 . S
H1579 C1554 0.950 . S
H1580 C1556 0.950 . S
H1581 C1557 0.949 . S
H1582 C1559 0.950 . S
H1583 C1561 0.950 . S
C1584 C1585 1.349 . S
C1584 C1586 1.327 . S
C1584 H1609 0.950 . S
C1585 C1584 1.349 . S
C1585 C1601 1.349 . S
C1586 C1584 1.327 . S
C1586 C1605 1.429 . S
C1586 H1610 0.950 . S
C1587 C1604 1.574 . S
C1587 C1606 1.368 . S
C1587 H1611 0.949 . S
H1588 C1592 0.949 . S
C1589 C1590 1.349 . S
C1589 C1591 1.327 . S
C1589 H1612 0.950 . S
C1590 C1589 1.349 . S
C1590 C1602 1.349 . S
C1591 C1589 1.327 . S
C1591 C1607 1.429 . S
C1591 H1613 0.950 . S
C1592 H1588 0.949 . S
C1592 C1600 1.574 . S
C1592 C1608 1.368 . S
H1593 C1601 0.950 . S
H1594 C1599 0.950 . S
H1595 C1600 0.949 . S
H1596 C1602 0.950 . S
H1597 C1603 0.950 . S
H1598 C1604 0.949 . S
C1599 H1594 0.950 . S
C1599 C1601 1.327 . S
C1599 C1605 1.429 . S
C1600 C1592 1.574 . S
C1600 H1595 0.949 . S
C1600 C1606 1.368 . S
C1601 C1585 1.349 . S
C1601 H1593 0.950 . S
C1601 C1599 1.327 . S
C1602 C1590 1.349 . S
C1602 H1596 0.950 . S
C1602 C1603 1.327 . S
C1603 H1597 0.950 . S
C1603 C1602 1.327 . S
C1603 C1607 1.429 . S
C1604 C1587 1.574 . S
C1604 H1598 0.949 . S
C1604 C1608 1.368 . S
C1605 C1586 1.429 . S
C1605 C1599 1.429 . S
C1605 C1606 1.523 . S
C1606 C1587 1.368 . S
C1606 C1600 1.368 . S
C1606 C1605 1.523 . S
C1607 C1591 1.429 . S
C1607 C1603 1.429 . S
C1607 C1608 1.523 . S
C1608 C1592 1.368 . S
C1608 C1604 1.368 . S
C1608 C1607 1.523 . S
H1609 C1584 0.950 . S
H1610 C1586 0.950 . S
H1611 C1587 0.949 . S
H1612 C1589 0.950 . S
H1613 C1591 0.950 . S
C1614 C1615 1.349 . S
C1614 C1616 1.327 . S
C1614 H1639 0.950 . S
C1615 C1614 1.349 . S
C1615 C1631 1.349 . S
C1616 C1614 1.327 . S
C1616 C1635 1.429 . S
C1616 H1640 0.950 . S
C1617 C1634 1.574 . S
C1617 C1636 1.368 . S
C1617 H1641 0.949 . S
H1618 C1622 0.949 . S
C1619 C1620 1.349 . S
C1619 C1621 1.327 . S
C1619 H1642 0.950 . S
C1620 C1619 1.349 . S
C1620 C1632 1.349 . S
C1621 C1619 1.327 . S
C1621 C1637 1.429 . S
C1621 H1643 0.950 . S
C1622 H1618 0.949 . S
C1622 C1630 1.574 . S
C1622 C1638 1.368 . S
H1623 C1631 0.950 . S
H1624 C1629 0.950 . S
H1625 C1630 0.949 . S
H1626 C1632 0.950 . S
H1627 C1633 0.950 . S
H1628 C1634 0.949 . S
C1629 H1624 0.950 . S
C1629 C1631 1.327 . S
C1629 C1635 1.429 . S
C1630 C1622 1.574 . S
C1630 H1625 0.949 . S
C1630 C1636 1.368 . S
C1631 C1615 1.349 . S
C1631 H1623 0.950 . S
C1631 C1629 1.327 . S
C1632 C1620 1.349 . S
C1632 H1626 0.950 . S
C1632 C1633 1.327 . S
C1633 H1627 0.950 . S
C1633 C1632 1.327 . S
C1633 C1637 1.429 . S
C1634 C1617 1.574 . S
C1634 H1628 0.949 . S
C1634 C1638 1.368 . S
C1635 C1616 1.429 . S
C1635 C1629 1.429 . S
C1635 C1636 1.523 . S
C1636 C1617 1.368 . S
C1636 C1630 1.368 . S
C1636 C1635 1.523 . S
C1637 C1621 1.429 . S
C1637 C1633 1.429 . S
C1637 C1638 1.523 . S
C1638 C1622 1.368 . S
C1638 C1634 1.368 . S
C1638 C1637 1.523 . S
H1639 C1614 0.950 . S
H1640 C1616 0.950 . S
H1641 C1617 0.949 . S
H1642 C1619 0.950 . S
H1643 C1621 0.950 . S
C1644 C1645 1.349 . S
C1644 C1646 1.327 . S
C1644 H1669 0.950 . S
C1645 C1644 1.349 . S
C1645 C1661 1.349 . S
C1646 C1644 1.327 . S
C1646 C1665 1.429 . S
C1646 H1670 0.950 . S
C1647 C1664 1.574 . S
C1647 C1666 1.368 . S
C1647 H1671 0.949 . S
H1648 C1652 0.949 . S
C1649 C1650 1.349 . S
C1649 C1651 1.327 . S
C1649 H1672 0.950 . S
C1650 C1649 1.349 . S
C1650 C1662 1.349 . S
C1651 C1649 1.327 . S
C1651 C1667 1.429 . S
C1651 H1673 0.950 . S
C1652 H1648 0.949 . S
C1652 C1660 1.574 . S
C1652 C1668 1.368 . S
H1653 C1661 0.950 . S
H1654 C1659 0.950 . S
H1655 C1660 0.949 . S
H1656 C1662 0.950 . S
H1657 C1663 0.950 . S
H1658 C1664 0.949 . S
C1659 H1654 0.950 . S
C1659 C1661 1.327 . S
C1659 C1665 1.429 . S
C1660 C1652 1.574 . S
C1660 H1655 0.949 . S
C1660 C1666 1.368 . S
C1661 C1645 1.349 . S
C1661 H1653 0.950 . S
C1661 C1659 1.327 . S
C1662 C1650 1.349 . S
C1662 H1656 0.950 . S
C1662 C1663 1.327 . S
C1663 H1657 0.950 . S
C1663 C1662 1.327 . S
C1663 C1667 1.429 . S
C1664 C1647 1.574 . S
C1664 H1658 0.949 . S
C1664 C1668 1.368 . S
C1665 C1646 1.429 . S
C1665 C1659 1.429 . S
C1665 C1666 1.523 . S
C1666 C1647 1.368 . S
C1666 C1660 1.368 . S
C1666 C1665 1.523 . S
C1667 C1651 1.429 . S
C1667 C1663 1.429 . S
C1667 C1668 1.523 . S
C1668 C1652 1.368 . S
C1668 C1664 1.368 . S
C1668 C1667 1.523 . S
H1669 C1644 0.950 . S
H1670 C1646 0.950 . S
H1671 C1647 0.949 . S
H1672 C1649 0.950 . S
H1673 C1651 0.950 . S
C1674 C1675 1.349 . S
C1674 C1676 1.327 . S
C1674 H1699 0.950 . S
C1675 C1674 1.349 . S
C1675 C1691 1.349 . S
C1676 C1674 1.327 . S
C1676 C1695 1.429 . S
C1676 H1700 0.950 . S
C1677 C1694 1.574 . S
C1677 C1696 1.368 . S
C1677 H1701 0.949 . S
H1678 C1682 0.949 . S
C1679 C1680 1.349 . S
C1679 C1681 1.327 . S
C1679 H1702 0.950 . S
C1680 C1679 1.349 . S
C1680 C1692 1.349 . S
C1681 C1679 1.327 . S
C1681 C1697 1.429 . S
C1681 H1703 0.950 . S
C1682 H1678 0.949 . S
C1682 C1690 1.574 . S
C1682 C1698 1.368 . S
H1683 C1691 0.950 . S
H1684 C1689 0.950 . S
H1685 C1690 0.949 . S
H1686 C1692 0.950 . S
H1687 C1693 0.950 . S
H1688 C1694 0.949 . S
C1689 H1684 0.950 . S
C1689 C1691 1.327 . S
C1689 C1695 1.429 . S
C1690 C1682 1.574 . S
C1690 H1685 0.949 . S
C1690 C1696 1.368 . S
C1691 C1675 1.349 . S
C1691 H1683 0.950 . S
C1691 C1689 1.327 . S
C1692 C1680 1.349 . S
C1692 H1686 0.950 . S
C1692 C1693 1.327 . S
C1693 H1687 0.950 . S
C1693 C1692 1.327 . S
C1693 C1697 1.429 . S
C1694 C1677 1.574 . S
C1694 H1688 0.949 . S
C1694 C1698 1.368 . S
C1695 C1676 1.429 . S
C1695 C1689 1.429 . S
C1695 C1696 1.523 . S
C1696 C1677 1.368 . S
C1696 C1690 1.368 . S
C1696 C1695 1.523 . S
C1697 C1681 1.429 . S
C1697 C1693 1.429 . S
C1697 C1698 1.523 . S
C1698 C1682 1.368 . S
C1698 C1694 1.368 . S
C1698 C1697 1.523 . S
H1699 C1674 0.950 . S
H1700 C1676 0.950 . S
H1701 C1677 0.949 . S
H1702 C1679 0.950 . S
H1703 C1681 0.950 . S
C1704 C1705 1.349 . S
C1704 C1706 1.327 . S
C1704 H1729 0.950 . S
C1705 C1704 1.349 . S
C1705 C1721 1.349 . S
C1706 C1704 1.327 . S
C1706 C1725 1.429 . S
C1706 H1730 0.950 . S
C1707 C1724 1.574 . S
C1707 C1726 1.368 . S
C1707 H1731 0.949 . S
H1708 C1712 0.949 . S
C1709 C1710 1.349 . S
C1709 C1711 1.327 . S
C1709 H1732 0.950 . S
C1710 C1709 1.349 . S
C1710 C1722 1.349 . S
C1711 C1709 1.327 . S
C1711 C1727 1.429 . S
C1711 H1733 0.950 . S
C1712 H1708 0.949 . S
C1712 C1720 1.574 . S
C1712 C1728 1.368 . S
H1713 C1721 0.950 . S
H1714 C1719 0.950 . S
H1715 C1720 0.949 . S
H1716 C1722 0.950 . S
H1717 C1723 0.950 . S
H1718 C1724 0.949 . S
C1719 H1714 0.950 . S
C1719 C1721 1.327 . S
C1719 C1725 1.429 . S
C1720 C1712 1.574 . S
C1720 H1715 0.949 . S
C1720 C1726 1.368 . S
C1721 C1705 1.349 . S
C1721 H1713 0.950 . S
C1721 C1719 1.327 . S
C1722 C1710 1.349 . S
C1722 H1716 0.950 . S
C1722 C1723 1.327 . S
C1723 H1717 0.950 . S
C1723 C1722 1.327 . S
C1723 C1727 1.429 . S
C1724 C1707 1.574 . S
C1724 H1718 0.949 . S
C1724 C1728 1.368 . S
C1725 C1706 1.429 . S
C1725 C1719 1.429 . S
C1725 C1726 1.523 . S
C1726 C1707 1.368 . S
C1726 C1720 1.368 . S
C1726 C1725 1.523 . S
C1727 C1711 1.429 . S
C1727 C1723 1.429 . S
C1727 C1728 1.523 . S
C1728 C1712 1.368 . S
C1728 C1724 1.368 . S
C1728 C1727 1.523 . S
H1729 C1704 0.950 . S
H1730 C1706 0.950 . S
H1731 C1707 0.949 . S
H1732 C1709 0.950 . S
H1733 C1711 0.950 . S
C1734 C1735 1.349 . S
C1734 C1736 1.327 . S
C1734 H1759 0.950 . S
C1735 C1734 1.349 . S
C1735 C1751 1.349 . S
C1736 C1734 1.327 . S
C1736 C1755 1.429 . S
C1736 H1760 0.950 . S
C1737 C1754 1.574 . S
C1737 C1756 1.368 . S
C1737 H1761 0.949 . S
H1738 C1742 0.949 . S
C1739 C1740 1.349 . S
C1739 C1741 1.327 . S
C1739 H1762 0.950 . S
C1740 C1739 1.349 . S
C1740 C1752 1.349 . S
C1741 C1739 1.327 . S
C1741 C1757 1.429 . S
C1741 H1763 0.950 . S
C1742 H1738 0.949 . S
C1742 C1750 1.574 . S
C1742 C1758 1.368 . S
H1743 C1751 0.950 . S
H1744 C1749 0.950 . S
H1745 C1750 0.949 . S
H1746 C1752 0.950 . S
H1747 C1753 0.950 . S
H1748 C1754 0.949 . S
C1749 H1744 0.950 . S
C1749 C1751 1.327 . S
C1749 C1755 1.429 . S
C1750 C1742 1.574 . S
C1750 H1745 0.949 . S
C1750 C1756 1.368 . S
C1751 C1735 1.349 . S
C1751 H1743 0.950 . S
C1751 C1749 1.327 . S
C1752 C1740 1.349 . S
C1752 H1746 0.950 . S
C1752 C1753 1.327 . S
C1753 H1747 0.950 . S
C1753 C1752 1.327 . S
C1753 C1757 1.429 . S
C1754 C1737 1.574 . S
C1754 H1748 0.949 . S
C1754 C1758 1.368 . S
C1755 C1736 1.429 . S
C1755 C1749 1.429 . S
C1755 C1756 1.523 . S
C1756 C1737 1.368 . S
C1756 C1750 1.368 . S
C1756 C1755 1.523 . S
C1757 C1741 1.429 . S
C1757 C1753 1.429 . S
C1757 C1758 1.523 . S
C1758 C1742 1.368 . S
C1758 C1754 1.368 . S
C1758 C1757 1.523 . S
H1759 C1734 0.950 . S
H1760 C1736 0.950 . S
H1761 C1737 0.949 . S
H1762 C1739 0.950 . S
H1763 C1741 0.950 . S
C1764 C1765 1.349 . S
C1764 C1766 1.327 . S
C1764 H1789 0.950 . S
C1765 C1764 1.349 . S
C1765 C1781 1.349 . S
C1766 C1764 1.327 . S
C1766 C1785 1.429 . S
C1766 H1790 0.950 . S
C1767 C1784 1.574 . S
C1767 C1786 1.368 . S
C1767 H1791 0.949 . S
H1768 C1772 0.949 . S
C1769 C1770 1.349 . S
C1769 C1771 1.327 . S
C1769 H1792 0.950 . S
C1770 C1769 1.349 . S
C1770 C1782 1.349 . S
C1771 C1769 1.327 . S
C1771 C1787 1.429 . S
C1771 H1793 0.950 . S
C1772 H1768 0.949 . S
C1772 C1780 1.574 . S
C1772 C1788 1.368 . S
H1773 C1781 0.950 . S
H1774 C1779 0.950 . S
H1775 C1780 0.949 . S
H1776 C1782 0.950 . S
H1777 C1783 0.950 . S
H1778 C1784 0.949 . S
C1779 H1774 0.950 . S
C1779 C1781 1.327 . S
C1779 C1785 1.429 . S
C1780 C1772 1.574 . S
C1780 H1775 0.949 . S
C1780 C1786 1.368 . S
C1781 C1765 1.349 . S
C1781 H1773 0.950 . S
C1781 C1779 1.327 . S
C1782 C1770 1.349 . S
C1782 H1776 0.950 . S
C1782 C1783 1.327 . S
C1783 H1777 0.950 . S
C1783 C1782 1.327 . S
C1783 C1787 1.429 . S
C1784 C1767 1.574 . S
C1784 H1778 0.949 . S
C1784 C1788 1.368 . S
C1785 C1766 1.429 . S
C1785 C1779 1.429 . S
C1785 C1786 1.523 . S
C1786 C1767 1.368 . S
C1786 C1780 1.368 . S
C1786 C1785 1.523 . S
C1787 C1771 1.429 . S
C1787 C1783 1.429 . S
C1787 C1788 1.523 . S
C1788 C1772 1.368 . S
C1788 C1784 1.368 . S
C1788 C1787 1.523 . S
H1789 C1764 0.950 . S
H1790 C1766 0.950 . S
H1791 C1767 0.949 . S
H1792 C1769 0.950 . S
H1793 C1771 0.950 . S
C1794 C1795 1.349 . S
C1794 C1796 1.327 . S
C1794 H1819 0.950 . S
C1795 C1794 1.349 . S
C1795 C1811 1.349 . S
C1796 C1794 1.327 . S
C1796 C1815 1.429 . S
C1796 H1820 0.950 . S
C1797 C1814 1.574 . S
C1797 C1816 1.368 . S
C1797 H1821 0.949 . S
H1798 C1802 0.949 . S
C1799 C1800 1.349 . S
C1799 C1801 1.327 . S
C1799 H1822 0.950 . S
C1800 C1799 1.349 . S
C1800 C1812 1.349 . S
C1801 C1799 1.327 . S
C1801 C1817 1.429 . S
C1801 H1823 0.950 . S
C1802 H1798 0.949 . S
C1802 C1810 1.574 . S
C1802 C1818 1.368 . S
H1803 C1811 0.950 . S
H1804 C1809 0.950 . S
H1805 C1810 0.949 . S
H1806 C1812 0.950 . S
H1807 C1813 0.950 . S
H1808 C1814 0.949 . S
C1809 H1804 0.950 . S
C1809 C1811 1.327 . S
C1809 C1815 1.429 . S
C1810 C1802 1.574 . S
C1810 H1805 0.949 . S
C1810 C1816 1.368 . S
C1811 C1795 1.349 . S
C1811 H1803 0.950 . S
C1811 C1809 1.327 . S
C1812 C1800 1.349 . S
C1812 H1806 0.950 . S
C1812 C1813 1.327 . S
C1813 H1807 0.950 . S
C1813 C1812 1.327 . S
C1813 C1817 1.429 . S
C1814 C1797 1.574 . S
C1814 H1808 0.949 . S
C1814 C1818 1.368 . S
C1815 C1796 1.429 . S
C1815 C1809 1.429 . S
C1815 C1816 1.523 . S
C1816 C1797 1.368 . S
C1816 C1810 1.368 . S
C1816 C1815 1.523 . S
C1817 C1801 1.429 . S
C1817 C1813 1.429 . S
C1817 C1818 1.523 . S
C1818 C1802 1.368 . S
C1818 C1814 1.368 . S
C1818 C1817 1.523 . S
H1819 C1794 0.950 . S
H1820 C1796 0.950 . S
H1821 C1797 0.949 . S
H1822 C1799 0.950 . S
H1823 C1801 0.950 . S
C1824 C1825 1.349 . S
C1824 C1826 1.327 . S
C1824 H1849 0.950 . S
C1825 C1824 1.349 . S
C1825 C1841 1.349 . S
C1826 C1824 1.327 . S
C1826 C1845 1.429 . S
C1826 H1850 0.950 . S
C1827 C1844 1.574 . S
C1827 C1846 1.368 . S
C1827 H1851 0.949 . S
H1828 C1832 0.949 . S
C1829 C1830 1.349 . S
C1829 C1831 1.327 . S
C1829 H1852 0.950 . S
C1830 C1829 1.349 . S
C1830 C1842 1.349 . S
C1831 C1829 1.327 . S
C1831 C1847 1.429 . S
C1831 H1853 0.950 . S
C1832 H1828 0.949 . S
C1832 C1840 1.574 . S
C1832 C1848 1.368 . S
H1833 C1841 0.950 . S
H1834 C1839 0.950 . S
H1835 C1840 0.949 . S
H1836 C1842 0.950 . S
H1837 C1843 0.950 . S
H1838 C1844 0.949 . S
C1839 H1834 0.950 . S
C1839 C1841 1.327 . S
C1839 C1845 1.429 . S
C1840 C1832 1.574 . S
C1840 H1835 0.949 . S
C1840 C1846 1.368 . S
C1841 C1825 1.349 . S
C1841 H1833 0.950 . S
C1841 C1839 1.327 . S
C1842 C1830 1.349 . S
C1842 H1836 0.950 . S
C1842 C1843 1.327 . S
C1843 H1837 0.950 . S
C1843 C1842 1.327 . S
C1843 C1847 1.429 . S
C1844 C1827 1.574 . S
C1844 H1838 0.949 . S
C1844 C1848 1.368 . S
C1845 C1826 1.429 . S
C1845 C1839 1.429 . S
C1845 C1846 1.523 . S
C1846 C1827 1.368 . S
C1846 C1840 1.368 . S
C1846 C1845 1.523 . S
C1847 C1831 1.429 . S
C1847 C1843 1.429 . S
C1847 C1848 1.523 . S
C1848 C1832 1.368 . S
C1848 C1844 1.368 . S
C1848 C1847 1.523 . S
H1849 C1824 0.950 . S
H1850 C1826 0.950 . S
H1851 C1827 0.949 . S
H1852 C1829 0.950 . S
H1853 C1831 0.950 . S
C1854 C1855 1.349 . S
C1854 C1856 1.327 . S
C1854 H1879 0.950 . S
C1855 C1854 1.349 . S
C1855 C1871 1.349 . S
C1856 C1854 1.327 . S
C1856 C1875 1.429 . S
C1856 H1880 0.950 . S
C1857 C1874 1.574 . S
C1857 C1876 1.368 . S
C1857 H1881 0.949 . S
H1858 C1862 0.949 . S
C1859 C1860 1.349 . S
C1859 C1861 1.327 . S
C1859 H1882 0.950 . S
C1860 C1859 1.349 . S
C1860 C1872 1.349 . S
C1861 C1859 1.327 . S
C1861 C1877 1.429 . S
C1861 H1883 0.950 . S
C1862 H1858 0.949 . S
C1862 C1870 1.574 . S
C1862 C1878 1.368 . S
H1863 C1871 0.950 . S
H1864 C1869 0.950 . S
H1865 C1870 0.949 . S
H1866 C1872 0.950 . S
H1867 C1873 0.950 . S
H1868 C1874 0.949 . S
C1869 H1864 0.950 . S
C1869 C1871 1.327 . S
C1869 C1875 1.429 . S
C1870 C1862 1.574 . S
C1870 H1865 0.949 . S
C1870 C1876 1.368 . S
C1871 C1855 1.349 . S
C1871 H1863 0.950 . S
C1871 C1869 1.327 . S
C1872 C1860 1.349 . S
C1872 H1866 0.950 . S
C1872 C1873 1.327 . S
C1873 H1867 0.950 . S
C1873 C1872 1.327 . S
C1873 C1877 1.429 . S
C1874 C1857 1.574 . S
C1874 H1868 0.949 . S
C1874 C1878 1.368 . S
C1875 C1856 1.429 . S
C1875 C1869 1.429 . S
C1875 C1876 1.523 . S
C1876 C1857 1.368 . S
C1876 C1870 1.368 . S
C1876 C1875 1.523 . S
C1877 C1861 1.429 . S
C1877 C1873 1.429 . S
C1877 C1878 1.523 . S
C1878 C1862 1.368 . S
C1878 C1874 1.368 . S
C1878 C1877 1.523 . S
H1879 C1854 0.950 . S
H1880 C1856 0.950 . S
H1881 C1857 0.949 . S
H1882 C1859 0.950 . S
H1883 C1861 0.950 . S
C1884 C1885 1.349 . S
C1884 C1886 1.327 . S
C1884 H1909 0.950 . S
C1885 C1884 1.349 . S
C1885 C1901 1.349 . S
C1886 C1884 1.327 . S
C1886 C1905 1.429 . S
C1886 H1910 0.950 . S
C1887 C1904 1.574 . S
C1887 C1906 1.368 . S
C1887 H1911 0.949 . S
H1888 C1892 0.949 . S
C1889 C1890 1.349 . S
C1889 C1891 1.327 . S
C1889 H1912 0.950 . S
C1890 C1889 1.349 . S
C1890 C1902 1.349 . S
C1891 C1889 1.327 . S
C1891 C1907 1.429 . S
C1891 H1913 0.950 . S
C1892 H1888 0.949 . S
C1892 C1900 1.574 . S
C1892 C1908 1.368 . S
H1893 C1901 0.950 . S
H1894 C1899 0.950 . S
H1895 C1900 0.949 . S
H1896 C1902 0.950 . S
H1897 C1903 0.950 . S
H1898 C1904 0.949 . S
C1899 H1894 0.950 . S
C1899 C1901 1.327 . S
C1899 C1905 1.429 . S
C1900 C1892 1.574 . S
C1900 H1895 0.949 . S
C1900 C1906 1.368 . S
C1901 C1885 1.349 . S
C1901 H1893 0.950 . S
C1901 C1899 1.327 . S
C1902 C1890 1.349 . S
C1902 H1896 0.950 . S
C1902 C1903 1.327 . S
C1903 H1897 0.950 . S
C1903 C1902 1.327 . S
C1903 C1907 1.429 . S
C1904 C1887 1.574 . S
C1904 H1898 0.949 . S
C1904 C1908 1.368 . S
C1905 C1886 1.429 . S
C1905 C1899 1.429 . S
C1905 C1906 1.523 . S
C1906 C1887 1.368 . S
C1906 C1900 1.368 . S
C1906 C1905 1.523 . S
C1907 C1891 1.429 . S
C1907 C1903 1.429 . S
C1907 C1908 1.523 . S
C1908 C1892 1.368 . S
C1908 C1904 1.368 . S
C1908 C1907 1.523 . S
H1909 C1884 0.950 . S
H1910 C1886 0.950 . S
H1911 C1887 0.949 . S
H1912 C1889 0.950 . S
H1913 C1891 0.950 . S
C1914 C1915 1.349 . S
C1914 C1916 1.327 . S
C1914 H1939 0.950 . S
C1915 C1914 1.349 . S
C1915 C1931 1.349 . S
C1916 C1914 1.327 . S
C1916 C1935 1.429 . S
C1916 H1940 0.950 . S
C1917 C1934 1.574 . S
C1917 C1936 1.368 . S
C1917 H1941 0.949 . S
H1918 C1922 0.949 . S
C1919 C1920 1.349 . S
C1919 C1921 1.327 . S
C1919 H1942 0.950 . S
C1920 C1919 1.349 . S
C1920 C1932 1.349 . S
C1921 C1919 1.327 . S
C1921 C1937 1.429 . S
C1921 H1943 0.950 . S
C1922 H1918 0.949 . S
C1922 C1930 1.574 . S
C1922 C1938 1.368 . S
H1923 C1931 0.950 . S
H1924 C1929 0.950 . S
H1925 C1930 0.949 . S
H1926 C1932 0.950 . S
H1927 C1933 0.950 . S
H1928 C1934 0.949 . S
C1929 H1924 0.950 . S
C1929 C1931 1.327 . S
C1929 C1935 1.429 . S
C1930 C1922 1.574 . S
C1930 H1925 0.949 . S
C1930 C1936 1.368 . S
C1931 C1915 1.349 . S
C1931 H1923 0.950 . S
C1931 C1929 1.327 . S
C1932 C1920 1.349 . S
C1932 H1926 0.950 . S
C1932 C1933 1.327 . S
C1933 H1927 0.950 . S
C1933 C1932 1.327 . S
C1933 C1937 1.429 . S
C1934 C1917 1.574 . S
C1934 H1928 0.949 . S
C1934 C1938 1.368 . S
C1935 C1916 1.429 . S
C1935 C1929 1.429 . S
C1935 C1936 1.523 . S
C1936 C1917 1.368 . S
C1936 C1930 1.368 . S
C1936 C1935 1.523 . S
C1937 C1921 1.429 . S
C1937 C1933 1.429 . S
C1937 C1938 1.523 . S
C1938 C1922 1.368 . S
C1938 C1934 1.368 . S
C1938 C1937 1.523 . S
H1939 C1914 0.950 . S
H1940 C1916 0.950 . S
H1941 C1917 0.949 . S
H1942 C1919 0.950 . S
H1943 C1921 0.950 . S
C1944 C1945 1.349 . S
C1944 C1946 1.327 . S
C1944 H1969 0.950 . S
C1945 C1944 1.349 . S
C1945 C1961 1.349 . S
C1946 C1944 1.327 . S
C1946 C1965 1.429 . S
C1946 H1970 0.950 . S
C1947 C1964 1.574 . S
C1947 C1966 1.368 . S
C1947 H1971 0.949 . S
H1948 C1952 0.949 . S
C1949 C1950 1.349 . S
C1949 C1951 1.327 . S
C1949 H1972 0.950 . S
C1950 C1949 1.349 . S
C1950 C1962 1.349 . S
C1951 C1949 1.327 . S
C1951 C1967 1.429 . S
C1951 H1973 0.950 . S
C1952 H1948 0.949 . S
C1952 C1960 1.574 . S
C1952 C1968 1.368 . S
H1953 C1961 0.950 . S
H1954 C1959 0.950 . S
H1955 C1960 0.949 . S
H1956 C1962 0.950 . S
H1957 C1963 0.950 . S
H1958 C1964 0.949 . S
C1959 H1954 0.950 . S
C1959 C1961 1.327 . S
C1959 C1965 1.429 . S
C1960 C1952 1.574 . S
C1960 H1955 0.949 . S
C1960 C1966 1.368 . S
C1961 C1945 1.349 . S
C1961 H1953 0.950 . S
C1961 C1959 1.327 . S
C1962 C1950 1.349 . S
C1962 H1956 0.950 . S
C1962 C1963 1.327 . S
C1963 H1957 0.950 . S
C1963 C1962 1.327 . S
C1963 C1967 1.429 . S
C1964 C1947 1.574 . S
C1964 H1958 0.949 . S
C1964 C1968 1.368 . S
C1965 C1946 1.429 . S
C1965 C1959 1.429 . S
C1965 C1966 1.523 . S
C1966 C1947 1.368 . S
C1966 C1960 1.368 . S
C1966 C1965 1.523 . S
C1967 C1951 1.429 . S
C1967 C1963 1.429 . S
C1967 C1968 1.523 . S
C1968 C1952 1.368 . S
C1968 C1964 1.368 . S
C1968 C1967 1.523 . S
H1969 C1944 0.950 . S
H1970 C1946 0.950 . S
H1971 C1947 0.949 . S
H1972 C1949 0.950 . S
H1973 C1951 0.950 . S
C1974 C1975 1.349 . S
C1974 C1976 1.327 . S
C1974 H1999 0.950 . S
C1975 C1974 1.349 . S
C1975 C1991 1.349 . S
C1976 C1974 1.327 . S
C1976 C1995 1.429 . S
C1976 H2000 0.950 . S
C1977 C1994 1.574 . S
C1977 C1996 1.368 1_565 S
C1977 H2001 0.949 . S
H1978 C1982 0.949 . S
C1979 C1980 1.349 . S
C1979 C1981 1.327 . S
C1979 H2002 0.950 . S
C1980 C1979 1.349 . S
C1980 C1992 1.349 . S
C1981 C1979 1.327 . S
C1981 C1997 1.429 . S
C1981 H2003 0.950 . S
C1982 H1978 0.949 . S
C1982 C1990 1.574 . S
C1982 C1998 1.368 1_545 S
H1983 C1991 0.950 . S
H1984 C1989 0.950 1_565 S
H1985 C1990 0.949 . S
H1986 C1992 0.950 . S
H1987 C1993 0.950 1_545 S
H1988 C1994 0.949 . S
C1989 H1984 0.950 1_545 S
C1989 C1991 1.327 . S
C1989 C1995 1.429 . S
C1990 C1982 1.574 . S
C1990 H1985 0.949 . S
C1990 C1996 1.368 . S
C1991 C1975 1.349 . S
C1991 H1983 0.950 . S
C1991 C1989 1.327 . S
C1992 C1980 1.349 . S
C1992 H1986 0.950 . S
C1992 C1993 1.327 . S
C1993 H1987 0.950 1_565 S
C1993 C1992 1.327 . S
C1993 C1997 1.429 . S
C1994 C1977 1.574 . S
C1994 H1988 0.949 . S
C1994 C1998 1.368 . S
C1995 C1976 1.429 . S
C1995 C1989 1.429 . S
C1995 C1996 1.523 . S
C1996 C1977 1.368 1_545 S
C1996 C1990 1.368 . S
C1996 C1995 1.523 . S
C1997 C1981 1.429 . S
C1997 C1993 1.429 . S
C1997 C1998 1.523 . S
C1998 C1982 1.368 1_565 S
C1998 C1994 1.368 . S
C1998 C1997 1.523 . S
H1999 C1974 0.950 . S
H2000 C1976 0.950 . S
H2001 C1977 0.949 . S
H2002 C1979 0.950 . S
H2003 C1981 0.950 . S
C2004 C2005 1.349 . S
C2004 C2006 1.327 . S
C2004 H2029 0.956 . S
C2005 C2004 1.349 . S
C2005 C2021 1.349 . S
C2006 C2004 1.327 . S
C2006 C2025 1.429 . S
C2006 H2030 0.950 1_455 S
C2007 C2024 1.574 . S
C2007 C2026 1.368 . S
C2007 H2031 0.949 . S
H2008 C2012 0.949 . S
C2009 C2010 1.349 . S
C2009 C2011 1.327 . S
C2009 H2032 0.955 . S
C2010 C2009 1.349 . S
C2010 C2022 1.349 . S
C2011 C2009 1.327 . S
C2011 C2027 1.429 . S
C2011 H2033 0.950 1_655 S
C2012 H2008 0.949 . S
C2012 C2020 1.574 . S
C2012 C2028 1.368 . S
H2013 C2021 0.950 . S
H2014 C2019 0.950 . S
H2015 C2020 0.949 . S
H2016 C2022 0.950 . S
H2017 C2023 0.950 . S
H2018 C2024 0.949 . S
C2019 H2014 0.950 . S
C2019 C2021 1.327 . S
C2019 C2025 1.429 . S
C2020 C2012 1.574 . S
C2020 H2015 0.949 . S
C2020 C2026 1.368 1_655 S
C2021 C2005 1.349 . S
C2021 H2013 0.950 . S
C2021 C2019 1.327 . S
C2022 C2010 1.349 . S
C2022 H2016 0.950 . S
C2022 C2023 1.327 . S
C2023 H2017 0.950 . S
C2023 C2022 1.327 . S
C2023 C2027 1.429 . S
C2024 C2007 1.574 . S
C2024 H2018 0.949 . S
C2024 C2028 1.368 1_455 S
C2025 C2006 1.429 . S
C2025 C2019 1.429 . S
C2025 C2026 1.523 . S
C2026 C2007 1.368 . S
C2026 C2020 1.368 1_455 S
C2026 C2025 1.523 . S
C2027 C2011 1.429 . S
C2027 C2023 1.429 . S
C2027 C2028 1.523 . S
C2028 C2012 1.368 . S
C2028 C2024 1.368 1_655 S
C2028 C2027 1.523 . S
H2029 C2004 0.956 . S
H2030 C2006 0.950 1_655 S
H2031 C2007 0.949 . S
H2032 C2009 0.955 . S
H2033 C2011 0.950 1_455 S
C2034 C2035 1.349 . S
C2034 C2036 1.327 . S
C2034 H2059 0.950 . S
C2035 C2034 1.349 . S
C2035 C2051 1.349 . S
C2036 C2034 1.327 . S
C2036 C2055 1.429 . S
C2036 H2060 0.950 . S
C2037 C2054 1.574 . S
C2037 C2056 1.368 . S
C2037 H2061 0.949 . S
H2038 C2042 0.949 . S
C2039 C2040 1.349 . S
C2039 C2041 1.327 . S
C2039 H2062 0.950 . S
C2040 C2039 1.349 . S
C2040 C2052 1.349 . S
C2041 C2039 1.327 . S
C2041 C2057 1.429 . S
C2041 H2063 0.950 . S
C2042 H2038 0.949 . S
C2042 C2050 1.574 . S
C2042 C2058 1.368 . S
H2043 C2051 0.950 . S
H2044 C2049 0.950 . S
H2045 C2050 0.949 . S
H2046 C2052 0.950 . S
H2047 C2053 0.950 . S
H2048 C2054 0.949 . S
C2049 H2044 0.950 . S
C2049 C2051 1.327 . S
C2049 C2055 1.429 . S
C2050 C2042 1.574 . S
C2050 H2045 0.949 . S
C2050 C2056 1.368 . S
C2051 C2035 1.349 . S
C2051 H2043 0.950 . S
C2051 C2049 1.327 . S
C2052 C2040 1.349 . S
C2052 H2046 0.950 . S
C2052 C2053 1.327 . S
C2053 H2047 0.950 . S
C2053 C2052 1.327 . S
C2053 C2057 1.429 . S
C2054 C2037 1.574 . S
C2054 H2048 0.949 . S
C2054 C2058 1.368 . S
C2055 C2036 1.429 . S
C2055 C2049 1.429 . S
C2055 C2056 1.523 . S
C2056 C2037 1.368 . S
C2056 C2050 1.368 . S
C2056 C2055 1.523 . S
C2057 C2041 1.429 . S
C2057 C2053 1.429 . S
C2057 C2058 1.523 . S
C2058 C2042 1.368 . S
C2058 C2054 1.368 . S
C2058 C2057 1.523 . S
H2059 C2034 0.950 . S
H2060 C2036 0.950 . S
H2061 C2037 0.949 . S
H2062 C2039 0.950 . S
H2063 C2041 0.950 . S
C2064 C2065 1.349 . S
C2064 C2066 1.327 . S
C2064 H2089 0.950 . S
C2065 C2064 1.349 . S
C2065 C2081 1.349 . S
C2066 C2064 1.327 . S
C2066 C2085 1.429 . S
C2066 H2090 0.950 . S
C2067 C2084 1.574 . S
C2067 C2086 1.368 1_545 S
C2067 H2091 0.949 . S
H2068 C2072 0.949 . S
C2069 C2070 1.349 . S
C2069 C2071 1.327 . S
C2069 H2092 0.950 . S
C2070 C2069 1.349 . S
C2070 C2082 1.349 . S
C2071 C2069 1.327 . S
C2071 C2087 1.429 . S
C2071 H2093 0.950 . S
C2072 H2068 0.949 . S
C2072 C2080 1.574 . S
C2072 C2088 1.368 1_565 S
H2073 C2081 0.942 1_545 S
H2074 C2079 0.950 1_545 S
H2075 C2080 0.949 . S
H2076 C2082 0.941 1_565 S
H2077 C2083 0.893 1_565 S
H2078 C2084 0.949 . S
C2079 H2074 0.950 1_565 S
C2079 C2081 1.327 . S
C2079 C2085 1.429 . S
C2080 C2072 1.574 . S
C2080 H2075 0.949 . S
C2080 C2086 1.368 . S
C2081 C2065 1.349 . S
C2081 H2073 0.942 1_565 S
C2081 C2079 1.327 . S
C2082 C2070 1.349 . S
C2082 H2076 0.941 1_545 S
C2082 C2083 1.357 . S
C2083 H2077 0.893 1_545 S
C2083 C2082 1.357 . S
C2083 C2087 1.463 . S
C2084 C2067 1.574 . S
C2084 H2078 0.949 . S
C2084 C2088 1.368 . S
C2085 C2066 1.429 . S
C2085 C2079 1.429 . S
C2085 C2086 1.523 . S
C2086 C2067 1.368 1_565 S
C2086 C2080 1.368 . S
C2086 C2085 1.523 . S
C2087 C2071 1.429 . S
C2087 C2083 1.463 . S
C2087 C2088 1.523 . S
C2088 C2072 1.368 1_545 S
C2088 C2084 1.368 . S
C2088 C2087 1.523 . S
H2089 C2064 0.950 . S
H2090 C2066 0.950 . S
H2091 C2067 0.949 . S
H2092 C2069 0.950 . S
H2093 C2071 0.950 . S
C2094 C2095 1.349 . S
C2094 C2096 1.335 . S
C2094 H2119 0.950 1_455 S
C2095 C2094 1.349 . S
C2095 C2111 1.349 . S
C2096 C2094 1.335 . S
C2096 C2115 1.441 . S
C2096 H2120 0.929 1_455 S
C2097 C2114 1.574 . S
C2097 C2116 1.368 . S
C2097 H2121 0.949 . S
H2098 C2102 0.949 . S
C2099 C2100 1.349 . S
C2099 C2101 1.336 . S
C2099 H2122 0.950 1_655 S
C2100 C2099 1.349 . S
C2100 C2112 1.349 . S
C2101 C2099 1.336 . S
C2101 C2117 1.443 . S
C2101 H2123 0.926 1_655 S
C2102 H2098 0.949 . S
C2102 C2110 1.574 . S
C2102 C2118 1.368 . S
H2103 C2111 0.950 . S
H2104 C2109 0.950 . S
H2105 C2110 0.949 . S
H2106 C2112 0.950 . S
H2107 C2113 0.950 . S
H2108 C2114 0.949 . S
C2109 H2104 0.950 . S
C2109 C2111 1.327 . S
C2109 C2115 1.429 . S
C2110 C2102 1.574 . S
C2110 H2105 0.949 . S
C2110 C2116 1.368 1_655 S
C2111 C2095 1.349 . S
C2111 H2103 0.950 . S
C2111 C2109 1.327 . S
C2112 C2100 1.349 . S
C2112 H2106 0.950 . S
C2112 C2113 1.327 . S
C2113 H2107 0.950 . S
C2113 C2112 1.327 . S
C2113 C2117 1.429 . S
C2114 C2097 1.574 . S
C2114 H2108 0.949 . S
C2114 C2118 1.368 1_455 S
C2115 C2096 1.441 . S
C2115 C2109 1.429 . S
C2115 C2116 1.523 . S
C2116 C2097 1.368 . S
C2116 C2110 1.368 1_455 S
C2116 C2115 1.523 . S
C2117 C2101 1.443 . S
C2117 C2113 1.429 . S
C2117 C2118 1.523 . S
C2118 C2102 1.368 . S
C2118 C2114 1.368 1_655 S
C2118 C2117 1.523 . S
H2119 C2094 0.950 1_655 S
H2120 C2096 0.929 1_655 S
H2121 C2097 0.949 . S
H2122 C2099 0.950 1_455 S
H2123 C2101 0.926 1_455 S
C2124 C2125 1.349 . S
C2124 C2126 1.327 . S
C2124 H2149 0.950 . S
C2125 C2124 1.349 . S
C2125 C2141 1.349 . S
C2126 C2124 1.327 . S
C2126 C2145 1.429 . S
C2126 H2150 0.950 . S
C2127 C2144 1.574 . S
C2127 C2146 1.368 . S
C2127 H2151 0.949 . S
H2128 C2132 0.949 . S
C2129 C2130 1.349 . S
C2129 C2131 1.327 . S
C2129 H2152 0.950 . S
C2130 C2129 1.349 . S
C2130 C2142 1.349 . S
C2131 C2129 1.327 . S
C2131 C2147 1.429 . S
C2131 H2153 0.950 . S
C2132 H2128 0.949 . S
C2132 C2140 1.574 . S
C2132 C2148 1.368 . S
H2133 C2141 0.950 . S
H2134 C2139 0.950 . S
H2135 C2140 0.949 . S
H2136 C2142 0.950 . S
H2137 C2143 0.950 . S
H2138 C2144 0.949 . S
C2139 H2134 0.950 . S
C2139 C2141 1.327 . S
C2139 C2145 1.429 . S
C2140 C2132 1.574 . S
C2140 H2135 0.949 . S
C2140 C2146 1.368 . S
C2141 C2125 1.349 . S
C2141 H2133 0.950 . S
C2141 C2139 1.327 . S
C2142 C2130 1.349 . S
C2142 H2136 0.950 . S
C2142 C2143 1.327 . S
C2143 H2137 0.950 . S
C2143 C2142 1.327 . S
C2143 C2147 1.429 . S
C2144 C2127 1.574 . S
C2144 H2138 0.949 . S
C2144 C2148 1.368 . S
C2145 C2126 1.429 . S
C2145 C2139 1.429 . S
C2145 C2146 1.523 . S
C2146 C2127 1.368 . S
C2146 C2140 1.368 . S
C2146 C2145 1.523 . S
C2147 C2131 1.429 . S
C2147 C2143 1.429 . S
C2147 C2148 1.523 . S
C2148 C2132 1.368 . S
C2148 C2144 1.368 . S
C2148 C2147 1.523 . S
H2149 C2124 0.950 . S
H2150 C2126 0.950 . S
H2151 C2127 0.949 . S
H2152 C2129 0.950 . S
H2153 C2131 0.950 . S
C2154 C2155 1.349 . S
C2154 C2156 1.327 . S
C2154 H2179 0.950 . S
C2155 C2154 1.349 . S
C2155 C2171 1.349 . S
C2156 C2154 1.327 . S
C2156 C2175 1.429 . S
C2156 H2180 0.950 . S
C2157 C2174 1.574 . S
C2157 C2176 1.368 . S
C2157 H2181 0.949 . S
H2158 C2162 0.949 . S
C2159 C2160 1.349 . S
C2159 C2161 1.327 . S
C2159 H2182 0.950 . S
C2160 C2159 1.349 . S
C2160 C2172 1.349 . S
C2161 C2159 1.327 . S
C2161 C2177 1.429 . S
C2161 H2183 0.950 . S
C2162 H2158 0.949 . S
C2162 C2170 1.574 . S
C2162 C2178 1.368 . S
H2163 C2171 0.950 . S
H2164 C2169 0.950 . S
H2165 C2170 0.949 . S
H2166 C2172 0.950 . S
H2167 C2173 0.950 . S
H2168 C2174 0.949 . S
C2169 H2164 0.950 . S
C2169 C2171 1.327 . S
C2169 C2175 1.429 . S
C2170 C2162 1.574 . S
C2170 H2165 0.949 . S
C2170 C2176 1.368 . S
C2171 C2155 1.349 . S
C2171 H2163 0.950 . S
C2171 C2169 1.327 . S
C2172 C2160 1.349 . S
C2172 H2166 0.950 . S
C2172 C2173 1.327 . S
C2173 H2167 0.950 . S
C2173 C2172 1.327 . S
C2173 C2177 1.429 . S
C2174 C2157 1.574 . S
C2174 H2168 0.949 . S
C2174 C2178 1.368 . S
C2175 C2156 1.429 . S
C2175 C2169 1.429 . S
C2175 C2176 1.523 . S
C2176 C2157 1.368 . S
C2176 C2170 1.368 . S
C2176 C2175 1.523 . S
C2177 C2161 1.429 . S
C2177 C2173 1.429 . S
C2177 C2178 1.523 . S
C2178 C2162 1.368 . S
C2178 C2174 1.368 . S
C2178 C2177 1.523 . S
H2179 C2154 0.950 . S
H2180 C2156 0.950 . S
H2181 C2157 0.949 . S
H2182 C2159 0.950 . S
H2183 C2161 0.950 . S
C2184 C2185 1.349 . S
C2184 C2186 1.327 . S
C2184 H2209 0.950 . S
C2185 C2184 1.349 . S
C2185 C2201 1.349 . S
C2186 C2184 1.327 . S
C2186 C2205 1.429 . S
C2186 H2210 0.950 . S
C2187 C2204 1.574 . S
C2187 C2206 1.368 . S
C2187 H2211 0.949 . S
H2188 C2192 0.949 . S
C2189 C2190 1.349 . S
C2189 C2191 1.327 . S
C2189 H2212 0.950 . S
C2190 C2189 1.349 . S
C2190 C2202 1.349 . S
C2191 C2189 1.327 . S
C2191 C2207 1.429 . S
C2191 H2213 0.950 . S
C2192 H2188 0.949 . S
C2192 C2200 1.574 . S
C2192 C2208 1.368 . S
H2193 C2201 0.950 . S
H2194 C2199 0.950 . S
H2195 C2200 0.949 . S
H2196 C2202 0.950 . S
H2197 C2203 0.950 . S
H2198 C2204 0.949 . S
C2199 H2194 0.950 . S
C2199 C2201 1.327 . S
C2199 C2205 1.429 . S
C2200 C2192 1.574 . S
C2200 H2195 0.949 . S
C2200 C2206 1.368 . S
C2201 C2185 1.349 . S
C2201 H2193 0.950 . S
C2201 C2199 1.327 . S
C2202 C2190 1.349 . S
C2202 H2196 0.950 . S
C2202 C2203 1.327 . S
C2203 H2197 0.950 . S
C2203 C2202 1.327 . S
C2203 C2207 1.429 . S
C2204 C2187 1.574 . S
C2204 H2198 0.949 . S
C2204 C2208 1.368 . S
C2205 C2186 1.429 . S
C2205 C2199 1.429 . S
C2205 C2206 1.523 . S
C2206 C2187 1.368 . S
C2206 C2200 1.368 . S
C2206 C2205 1.523 . S
C2207 C2191 1.429 . S
C2207 C2203 1.429 . S
C2207 C2208 1.523 . S
C2208 C2192 1.368 . S
C2208 C2204 1.368 . S
C2208 C2207 1.523 . S
H2209 C2184 0.950 . S
H2210 C2186 0.950 . S
H2211 C2187 0.949 . S
H2212 C2189 0.950 . S
H2213 C2191 0.950 . S
C2214 C2215 1.349 . S
C2214 C2216 1.327 . S
C2214 H2239 0.950 . S
C2215 C2214 1.349 . S
C2215 C2231 1.349 . S
C2216 C2214 1.327 . S
C2216 C2235 1.429 . S
C2216 H2240 0.950 . S
C2217 C2234 1.574 . S
C2217 C2236 1.368 . S
C2217 H2241 0.949 . S
H2218 C2222 0.949 . S
C2219 C2220 1.349 . S
C2219 C2221 1.327 . S
C2219 H2242 0.950 . S
C2220 C2219 1.349 . S
C2220 C2232 1.349 . S
C2221 C2219 1.327 . S
C2221 C2237 1.429 . S
C2221 H2243 0.950 . S
C2222 H2218 0.949 . S
C2222 C2230 1.574 . S
C2222 C2238 1.368 . S
H2223 C2231 0.950 . S
H2224 C2229 0.950 . S
H2225 C2230 0.949 . S
H2226 C2232 0.950 . S
H2227 C2233 0.950 . S
H2228 C2234 0.949 . S
C2229 H2224 0.950 . S
C2229 C2231 1.327 . S
C2229 C2235 1.429 . S
C2230 C2222 1.574 . S
C2230 H2225 0.949 . S
C2230 C2236 1.368 . S
C2231 C2215 1.349 . S
C2231 H2223 0.950 . S
C2231 C2229 1.327 . S
C2232 C2220 1.349 . S
C2232 H2226 0.950 . S
C2232 C2233 1.327 . S
C2233 H2227 0.950 . S
C2233 C2232 1.327 . S
C2233 C2237 1.429 . S
C2234 C2217 1.574 . S
C2234 H2228 0.949 . S
C2234 C2238 1.368 . S
C2235 C2216 1.429 . S
C2235 C2229 1.429 . S
C2235 C2236 1.523 . S
C2236 C2217 1.368 . S
C2236 C2230 1.368 . S
C2236 C2235 1.523 . S
C2237 C2221 1.429 . S
C2237 C2233 1.429 . S
C2237 C2238 1.523 . S
C2238 C2222 1.368 . S
C2238 C2234 1.368 . S
C2238 C2237 1.523 . S
H2239 C2214 0.950 . S
H2240 C2216 0.950 . S
H2241 C2217 0.949 . S
H2242 C2219 0.950 . S
H2243 C2221 0.950 . S
C2244 C2245 1.349 . S
C2244 C2246 1.327 . S
C2244 H2269 0.950 . S
C2245 C2244 1.349 . S
C2245 C2261 1.349 . S
C2246 C2244 1.327 . S
C2246 C2265 1.429 . S
C2246 H2270 0.950 . S
C2247 C2264 1.574 . S
C2247 C2266 1.368 . S
C2247 H2271 0.949 . S
H2248 C2252 0.949 . S
C2249 C2250 1.349 . S
C2249 C2251 1.327 . S
C2249 H2272 0.950 . S
C2250 C2249 1.349 . S
C2250 C2262 1.349 . S
C2251 C2249 1.327 . S
C2251 C2267 1.429 . S
C2251 H2273 0.950 . S
C2252 H2248 0.949 . S
C2252 C2260 1.574 . S
C2252 C2268 1.368 . S
H2253 C2261 0.950 . S
H2254 C2259 0.950 . S
H2255 C2260 0.949 . S
H2256 C2262 0.950 . S
H2257 C2263 0.950 . S
H2258 C2264 0.949 . S
C2259 H2254 0.950 . S
C2259 C2261 1.327 . S
C2259 C2265 1.429 . S
C2260 C2252 1.574 . S
C2260 H2255 0.949 . S
C2260 C2266 1.368 . S
C2261 C2245 1.349 . S
C2261 H2253 0.950 . S
C2261 C2259 1.327 . S
C2262 C2250 1.349 . S
C2262 H2256 0.950 . S
C2262 C2263 1.327 . S
C2263 H2257 0.950 . S
C2263 C2262 1.327 . S
C2263 C2267 1.429 . S
C2264 C2247 1.574 . S
C2264 H2258 0.949 . S
C2264 C2268 1.368 . S
C2265 C2246 1.429 . S
C2265 C2259 1.429 . S
C2265 C2266 1.523 . S
C2266 C2247 1.368 . S
C2266 C2260 1.368 . S
C2266 C2265 1.523 . S
C2267 C2251 1.429 . S
C2267 C2263 1.429 . S
C2267 C2268 1.523 . S
C2268 C2252 1.368 . S
C2268 C2264 1.368 . S
C2268 C2267 1.523 . S
H2269 C2244 0.950 . S
H2270 C2246 0.950 . S
H2271 C2247 0.949 . S
H2272 C2249 0.950 . S
H2273 C2251 0.950 . S
C2274 C2275 1.349 . S
C2274 C2276 1.327 . S
C2274 H2299 0.950 . S
C2275 C2274 1.349 . S
C2275 C2291 1.349 . S
C2276 C2274 1.327 . S
C2276 C2295 1.429 . S
C2276 H2300 0.950 . S
C2277 C2294 1.574 . S
C2277 C2296 1.368 . S
C2277 H2301 0.949 . S
H2278 C2282 0.949 . S
C2279 C2280 1.349 . S
C2279 C2281 1.327 . S
C2279 H2302 0.950 . S
C2280 C2279 1.349 . S
C2280 C2292 1.349 . S
C2281 C2279 1.327 . S
C2281 C2297 1.429 . S
C2281 H2303 0.950 . S
C2282 H2278 0.949 . S
C2282 C2290 1.574 . S
C2282 C2298 1.368 . S
H2283 C2291 0.950 . S
H2284 C2289 0.950 . S
H2285 C2290 0.949 . S
H2286 C2292 0.950 . S
H2287 C2293 0.950 . S
H2288 C2294 0.949 . S
C2289 H2284 0.950 . S
C2289 C2291 1.327 . S
C2289 C2295 1.429 . S
C2290 C2282 1.574 . S
C2290 H2285 0.949 . S
C2290 C2296 1.368 . S
C2291 C2275 1.349 . S
C2291 H2283 0.950 . S
C2291 C2289 1.327 . S
C2292 C2280 1.349 . S
C2292 H2286 0.950 . S
C2292 C2293 1.327 . S
C2293 H2287 0.950 . S
C2293 C2292 1.327 . S
C2293 C2297 1.429 . S
C2294 C2277 1.574 . S
C2294 H2288 0.949 . S
C2294 C2298 1.368 . S
C2295 C2276 1.429 . S
C2295 C2289 1.429 . S
C2295 C2296 1.523 . S
C2296 C2277 1.368 . S
C2296 C2290 1.368 . S
C2296 C2295 1.523 . S
C2297 C2281 1.429 . S
C2297 C2293 1.429 . S
C2297 C2298 1.523 . S
C2298 C2282 1.368 . S
C2298 C2294 1.368 . S
C2298 C2297 1.523 . S
H2299 C2274 0.950 . S
H2300 C2276 0.950 . S
H2301 C2277 0.949 . S
H2302 C2279 0.950 . S
H2303 C2281 0.950 . S
C2304 C2305 1.349 . S
C2304 C2306 1.327 . S
C2304 H2329 0.950 . S
C2305 C2304 1.349 . S
C2305 C2321 1.349 . S
C2306 C2304 1.327 . S
C2306 C2325 1.429 . S
C2306 H2330 0.950 . S
C2307 C2324 1.574 . S
C2307 C2326 1.368 . S
C2307 H2331 0.949 . S
H2308 C2312 0.949 . S
C2309 C2310 1.349 . S
C2309 C2311 1.327 . S
C2309 H2332 0.950 . S
C2310 C2309 1.349 . S
C2310 C2322 1.349 . S
C2311 C2309 1.327 . S
C2311 C2327 1.429 . S
C2311 H2333 0.950 . S
C2312 H2308 0.949 . S
C2312 C2320 1.574 . S
C2312 C2328 1.368 . S
H2313 C2321 0.950 . S
H2314 C2319 0.950 . S
H2315 C2320 0.949 . S
H2316 C2322 0.950 . S
H2317 C2323 0.950 . S
H2318 C2324 0.949 . S
C2319 H2314 0.950 . S
C2319 C2321 1.327 . S
C2319 C2325 1.429 . S
C2320 C2312 1.574 . S
C2320 H2315 0.949 . S
C2320 C2326 1.368 . S
C2321 C2305 1.349 . S
C2321 H2313 0.950 . S
C2321 C2319 1.327 . S
C2322 C2310 1.349 . S
C2322 H2316 0.950 . S
C2322 C2323 1.327 . S
C2323 H2317 0.950 . S
C2323 C2322 1.327 . S
C2323 C2327 1.429 . S
C2324 C2307 1.574 . S
C2324 H2318 0.949 . S
C2324 C2328 1.368 . S
C2325 C2306 1.429 . S
C2325 C2319 1.429 . S
C2325 C2326 1.523 . S
C2326 C2307 1.368 . S
C2326 C2320 1.368 . S
C2326 C2325 1.523 . S
C2327 C2311 1.429 . S
C2327 C2323 1.429 . S
C2327 C2328 1.523 . S
C2328 C2312 1.368 . S
C2328 C2324 1.368 . S
C2328 C2327 1.523 . S
H2329 C2304 0.950 . S
H2330 C2306 0.950 . S
H2331 C2307 0.949 . S
H2332 C2309 0.950 . S
H2333 C2311 0.950 . S
C2334 C2335 1.349 . S
C2334 C2336 1.327 . S
C2334 H2359 0.950 . S
C2335 C2334 1.349 . S
C2335 C2351 1.349 . S
C2336 C2334 1.327 . S
C2336 C2355 1.429 . S
C2336 H2360 0.950 . S
C2337 C2354 1.574 . S
C2337 C2356 1.368 . S
C2337 H2361 0.949 . S
H2338 C2342 0.949 . S
C2339 C2340 1.349 . S
C2339 C2341 1.327 . S
C2339 H2362 0.950 . S
C2340 C2339 1.349 . S
C2340 C2352 1.349 . S
C2341 C2339 1.327 . S
C2341 C2357 1.429 . S
C2341 H2363 0.950 . S
C2342 H2338 0.949 . S
C2342 C2350 1.574 . S
C2342 C2358 1.368 . S
H2343 C2351 0.950 . S
H2344 C2349 0.950 . S
H2345 C2350 0.949 . S
H2346 C2352 0.950 . S
H2347 C2353 0.950 . S
H2348 C2354 0.949 . S
C2349 H2344 0.950 . S
C2349 C2351 1.327 . S
C2349 C2355 1.429 . S
C2350 C2342 1.574 . S
C2350 H2345 0.949 . S
C2350 C2356 1.368 . S
C2351 C2335 1.349 . S
C2351 H2343 0.950 . S
C2351 C2349 1.327 . S
C2352 C2340 1.349 . S
C2352 H2346 0.950 . S
C2352 C2353 1.327 . S
C2353 H2347 0.950 . S
C2353 C2352 1.327 . S
C2353 C2357 1.429 . S
C2354 C2337 1.574 . S
C2354 H2348 0.949 . S
C2354 C2358 1.368 . S
C2355 C2336 1.429 . S
C2355 C2349 1.429 . S
C2355 C2356 1.523 . S
C2356 C2337 1.368 . S
C2356 C2350 1.368 . S
C2356 C2355 1.523 . S
C2357 C2341 1.429 . S
C2357 C2353 1.429 . S
C2357 C2358 1.523 . S
C2358 C2342 1.368 . S
C2358 C2354 1.368 . S
C2358 C2357 1.523 . S
H2359 C2334 0.950 . S
H2360 C2336 0.950 . S
H2361 C2337 0.949 . S
H2362 C2339 0.950 . S
H2363 C2341 0.950 . S
C2364 C2365 1.349 . S
C2364 C2366 1.327 . S
C2364 H2389 0.950 . S
C2365 C2364 1.349 . S
C2365 C2381 1.349 . S
C2366 C2364 1.327 . S
C2366 C2385 1.429 . S
C2366 H2390 0.950 . S
C2367 C2384 1.574 . S
C2367 C2386 1.368 . S
C2367 H2391 0.949 . S
H2368 C2372 0.949 . S
C2369 C2370 1.349 . S
C2369 C2371 1.327 . S
C2369 H2392 0.950 . S
C2370 C2369 1.349 . S
C2370 C2382 1.349 . S
C2371 C2369 1.327 . S
C2371 C2387 1.429 . S
C2371 H2393 0.950 . S
C2372 H2368 0.949 . S
C2372 C2380 1.574 . S
C2372 C2388 1.368 . S
H2373 C2381 0.950 . S
H2374 C2379 0.950 . S
H2375 C2380 0.949 . S
H2376 C2382 0.950 . S
H2377 C2383 0.950 . S
H2378 C2384 0.949 . S
C2379 H2374 0.950 . S
C2379 C2381 1.327 . S
C2379 C2385 1.429 . S
C2380 C2372 1.574 . S
C2380 H2375 0.949 . S
C2380 C2386 1.368 . S
C2381 C2365 1.349 . S
C2381 H2373 0.950 . S
C2381 C2379 1.327 . S
C2382 C2370 1.349 . S
C2382 H2376 0.950 . S
C2382 C2383 1.327 . S
C2383 H2377 0.950 . S
C2383 C2382 1.327 . S
C2383 C2387 1.429 . S
C2384 C2367 1.574 . S
C2384 H2378 0.949 . S
C2384 C2388 1.368 . S
C2385 C2366 1.429 . S
C2385 C2379 1.429 . S
C2385 C2386 1.523 . S
C2386 C2367 1.368 . S
C2386 C2380 1.368 . S
C2386 C2385 1.523 . S
C2387 C2371 1.429 . S
C2387 C2383 1.429 . S
C2387 C2388 1.523 . S
C2388 C2372 1.368 . S
C2388 C2384 1.368 . S
C2388 C2387 1.523 . S
H2389 C2364 0.950 . S
H2390 C2366 0.950 . S
H2391 C2367 0.949 . S
H2392 C2369 0.950 . S
H2393 C2371 0.950 . S
C2394 C2395 1.349 . S
C2394 C2396 1.327 . S
C2394 H2419 0.950 . S
C2395 C2394 1.349 . S
C2395 C2411 1.349 . S
C2396 C2394 1.327 . S
C2396 C2415 1.429 . S
C2396 H2420 0.950 . S
C2397 C2414 1.574 . S
C2397 C2416 1.368 . S
C2397 H2421 0.949 . S
H2398 C2402 0.949 . S
C2399 C2400 1.349 . S
C2399 C2401 1.327 . S
C2399 H2422 0.950 . S
C2400 C2399 1.349 . S
C2400 C2412 1.349 . S
C2401 C2399 1.327 . S
C2401 C2417 1.429 . S
C2401 H2423 0.950 . S
C2402 H2398 0.949 . S
C2402 C2410 1.574 . S
C2402 C2418 1.368 . S
H2403 C2411 0.950 . S
H2404 C2409 0.950 . S
H2405 C2410 0.949 . S
H2406 C2412 0.950 . S
H2407 C2413 0.950 . S
H2408 C2414 0.949 . S
C2409 H2404 0.950 . S
C2409 C2411 1.327 . S
C2409 C2415 1.429 . S
C2410 C2402 1.574 . S
C2410 H2405 0.949 . S
C2410 C2416 1.368 . S
C2411 C2395 1.349 . S
C2411 H2403 0.950 . S
C2411 C2409 1.327 . S
C2412 C2400 1.349 . S
C2412 H2406 0.950 . S
C2412 C2413 1.327 . S
C2413 H2407 0.950 . S
C2413 C2412 1.327 . S
C2413 C2417 1.429 . S
C2414 C2397 1.574 . S
C2414 H2408 0.949 . S
C2414 C2418 1.368 . S
C2415 C2396 1.429 . S
C2415 C2409 1.429 . S
C2415 C2416 1.523 . S
C2416 C2397 1.368 . S
C2416 C2410 1.368 . S
C2416 C2415 1.523 . S
C2417 C2401 1.429 . S
C2417 C2413 1.429 . S
C2417 C2418 1.523 . S
C2418 C2402 1.368 . S
C2418 C2414 1.368 . S
C2418 C2417 1.523 . S
H2419 C2394 0.950 . S
H2420 C2396 0.950 . S
H2421 C2397 0.949 . S
H2422 C2399 0.950 . S
H2423 C2401 0.950 . S
C2424 C2425 1.349 . S
C2424 C2426 1.327 . S
C2424 H2449 0.950 . S
C2425 C2424 1.349 . S
C2425 C2441 1.349 . S
C2426 C2424 1.327 . S
C2426 C2445 1.429 . S
C2426 H2450 0.950 . S
C2427 C2444 1.574 . S
C2427 C2446 1.368 . S
C2427 H2451 0.949 . S
H2428 C2432 0.949 . S
C2429 C2430 1.349 . S
C2429 C2431 1.327 . S
C2429 H2452 0.950 . S
C2430 C2429 1.349 . S
C2430 C2442 1.349 . S
C2431 C2429 1.327 . S
C2431 C2447 1.429 . S
C2431 H2453 0.950 . S
C2432 H2428 0.949 . S
C2432 C2440 1.574 . S
C2432 C2448 1.368 . S
H2433 C2441 0.950 . S
H2434 C2439 0.950 . S
H2435 C2440 0.949 . S
H2436 C2442 0.950 . S
H2437 C2443 0.950 . S
H2438 C2444 0.949 . S
C2439 H2434 0.950 . S
C2439 C2441 1.327 . S
C2439 C2445 1.429 . S
C2440 C2432 1.574 . S
C2440 H2435 0.949 . S
C2440 C2446 1.368 . S
C2441 C2425 1.349 . S
C2441 H2433 0.950 . S
C2441 C2439 1.327 . S
C2442 C2430 1.349 . S
C2442 H2436 0.950 . S
C2442 C2443 1.327 . S
C2443 H2437 0.950 . S
C2443 C2442 1.327 . S
C2443 C2447 1.429 . S
C2444 C2427 1.574 . S
C2444 H2438 0.949 . S
C2444 C2448 1.368 . S
C2445 C2426 1.429 . S
C2445 C2439 1.429 . S
C2445 C2446 1.523 . S
C2446 C2427 1.368 . S
C2446 C2440 1.368 . S
C2446 C2445 1.523 . S
C2447 C2431 1.429 . S
C2447 C2443 1.429 . S
C2447 C2448 1.523 . S
C2448 C2432 1.368 . S
C2448 C2444 1.368 . S
C2448 C2447 1.523 . S
H2449 C2424 0.950 . S
H2450 C2426 0.950 . S
H2451 C2427 0.949 . S
H2452 C2429 0.950 . S
H2453 C2431 0.950 . S
C2454 C2455 1.349 . S
C2454 C2456 1.327 . S
C2454 H2479 0.950 . S
C2455 C2454 1.349 . S
C2455 C2471 1.349 . S
C2456 C2454 1.327 . S
C2456 C2475 1.429 . S
C2456 H2480 0.950 . S
C2457 C2474 1.574 . S
C2457 C2476 1.368 . S
C2457 H2481 0.949 . S
H2458 C2462 0.949 . S
C2459 C2460 1.349 . S
C2459 C2461 1.327 . S
C2459 H2482 0.950 . S
C2460 C2459 1.349 . S
C2460 C2472 1.349 . S
C2461 C2459 1.327 . S
C2461 C2477 1.429 . S
C2461 H2483 0.950 . S
C2462 H2458 0.949 . S
C2462 C2470 1.574 . S
C2462 C2478 1.368 . S
H2463 C2471 0.950 . S
H2464 C2469 0.950 . S
H2465 C2470 0.949 . S
H2466 C2472 0.950 . S
H2467 C2473 0.950 . S
H2468 C2474 0.949 . S
C2469 H2464 0.950 . S
C2469 C2471 1.327 . S
C2469 C2475 1.429 . S
C2470 C2462 1.574 . S
C2470 H2465 0.949 . S
C2470 C2476 1.368 . S
C2471 C2455 1.349 . S
C2471 H2463 0.950 . S
C2471 C2469 1.327 . S
C2472 C2460 1.349 . S
C2472 H2466 0.950 . S
C2472 C2473 1.327 . S
C2473 H2467 0.950 . S
C2473 C2472 1.327 . S
C2473 C2477 1.429 . S
C2474 C2457 1.574 . S
C2474 H2468 0.949 . S
C2474 C2478 1.368 . S
C2475 C2456 1.429 . S
C2475 C2469 1.429 . S
C2475 C2476 1.523 . S
C2476 C2457 1.368 . S
C2476 C2470 1.368 . S
C2476 C2475 1.523 . S
C2477 C2461 1.429 . S
C2477 C2473 1.429 . S
C2477 C2478 1.523 . S
C2478 C2462 1.368 . S
C2478 C2474 1.368 . S
C2478 C2477 1.523 . S
H2479 C2454 0.950 . S
H2480 C2456 0.950 . S
H2481 C2457 0.949 . S
H2482 C2459 0.950 . S
H2483 C2461 0.950 . S
C2484 C2485 1.349 . S
C2484 C2486 1.327 . S
C2484 H2509 0.950 . S
C2485 C2484 1.349 . S
C2485 C2501 1.349 . S
C2486 C2484 1.327 . S
C2486 C2505 1.429 . S
C2486 H2510 0.950 . S
C2487 C2504 1.574 1_455 S
C2487 C2506 1.368 . S
C2487 H2511 0.949 . S
H2488 C2492 0.949 . S
C2489 C2490 1.349 . S
C2489 C2491 1.327 . S
C2489 H2512 0.950 . S
C2490 C2489 1.349 . S
C2490 C2502 1.349 . S
C2491 C2489 1.327 . S
C2491 C2507 1.429 . S
C2491 H2513 0.950 . S
C2492 H2488 0.949 . S
C2492 C2500 1.574 1_655 S
C2492 C2508 1.368 . S
H2493 C2501 0.950 . S
H2494 C2499 0.950 . S
H2495 C2500 0.949 . S
H2496 C2502 0.950 . S
H2497 C2503 0.950 . S
H2498 C2504 0.949 . S
C2499 H2494 0.950 . S
C2499 C2501 1.327 . S
C2499 C2505 1.429 . S
C2500 C2492 1.574 1_455 S
C2500 H2495 0.949 . S
C2500 C2506 1.368 . S
C2501 C2485 1.349 . S
C2501 H2493 0.950 . S
C2501 C2499 1.327 . S
C2502 C2490 1.349 . S
C2502 H2496 0.950 . S
C2502 C2503 1.327 . S
C2503 H2497 0.950 . S
C2503 C2502 1.327 . S
C2503 C2507 1.429 . S
C2504 C2487 1.574 1_655 S
C2504 H2498 0.949 . S
C2504 C2508 1.368 . S
C2505 C2486 1.429 . S
C2505 C2499 1.429 . S
C2505 C2506 1.523 . S
C2506 C2487 1.368 . S
C2506 C2500 1.368 . S
C2506 C2505 1.523 . S
C2507 C2491 1.429 . S
C2507 C2503 1.429 . S
C2507 C2508 1.523 . S
C2508 C2492 1.368 . S
C2508 C2504 1.368 . S
C2508 C2507 1.523 . S
H2509 C2484 0.950 . S
H2510 C2486 0.950 . S
H2511 C2487 0.949 . S
H2512 C2489 0.950 . S
H2513 C2491 0.950 . S
C2514 C2515 1.349 . S
C2514 C2516 1.327 . S
C2514 H2539 0.950 . S
C2515 C2514 1.349 . S
C2515 C2531 1.349 . S
C2516 C2514 1.327 . S
C2516 C2535 1.429 . S
C2516 H2540 0.950 . S
C2517 C2534 1.574 . S
C2517 C2536 1.368 . S
C2517 H2541 0.949 . S
H2518 C2522 0.949 . S
C2519 C2520 1.349 . S
C2519 C2521 1.327 . S
C2519 H2542 0.950 . S
C2520 C2519 1.349 . S
C2520 C2532 1.349 . S
C2521 C2519 1.327 . S
C2521 C2537 1.429 . S
C2521 H2543 0.950 . S
C2522 H2518 0.949 . S
C2522 C2530 1.574 . S
C2522 C2538 1.368 . S
H2523 C2531 0.950 . S
H2524 C2529 0.950 . S
H2525 C2530 0.949 . S
H2526 C2532 0.950 . S
H2527 C2533 0.950 . S
H2528 C2534 0.949 . S
C2529 H2524 0.950 . S
C2529 C2531 1.327 . S
C2529 C2535 1.429 . S
C2530 C2522 1.574 . S
C2530 H2525 0.949 . S
C2530 C2536 1.368 . S
C2531 C2515 1.349 . S
C2531 H2523 0.950 . S
C2531 C2529 1.327 . S
C2532 C2520 1.349 . S
C2532 H2526 0.950 . S
C2532 C2533 1.327 . S
C2533 H2527 0.950 . S
C2533 C2532 1.327 . S
C2533 C2537 1.429 . S
C2534 C2517 1.574 . S
C2534 H2528 0.949 . S
C2534 C2538 1.368 . S
C2535 C2516 1.429 . S
C2535 C2529 1.429 . S
C2535 C2536 1.523 . S
C2536 C2517 1.368 . S
C2536 C2530 1.368 . S
C2536 C2535 1.523 . S
C2537 C2521 1.429 . S
C2537 C2533 1.429 . S
C2537 C2538 1.523 . S
C2538 C2522 1.368 . S
C2538 C2534 1.368 . S
C2538 C2537 1.523 . S
H2539 C2514 0.950 . S
H2540 C2516 0.950 . S
H2541 C2517 0.949 . S
H2542 C2519 0.950 . S
H2543 C2521 0.950 . S
C2544 C2545 1.349 . S
C2544 C2546 1.327 . S
C2544 H2569 0.950 . S
C2545 C2544 1.349 . S
C2545 C2561 1.349 . S
C2546 C2544 1.327 . S
C2546 C2565 1.429 . S
C2546 H2570 0.950 . S
C2547 C2564 1.549 1_545 S
C2547 C2566 1.376 . S
C2547 H2571 0.966 . S
H2548 C2552 0.965 . S
C2549 C2550 1.349 . S
C2549 C2551 1.327 . S
C2549 H2572 0.950 . S
C2550 C2549 1.349 . S
C2550 C2562 1.349 . S
C2551 C2549 1.327 . S
C2551 C2567 1.429 . S
C2551 H2573 0.950 . S
C2552 H2548 0.965 . S
C2552 C2560 1.550 1_565 S
C2552 C2568 1.376 . S
H2553 C2561 0.950 . S
H2554 C2559 0.950 . S
H2555 C2560 0.949 . S
H2556 C2562 0.950 . S
H2557 C2563 0.950 . S
H2558 C2564 0.949 . S
C2559 H2554 0.950 . S
C2559 C2561 1.327 . S
C2559 C2565 1.429 . S
C2560 C2552 1.550 1_545 S
C2560 H2555 0.949 . S
C2560 C2566 1.368 . S
C2561 C2545 1.349 . S
C2561 H2553 0.950 . S
C2561 C2559 1.327 . S
C2562 C2550 1.349 . S
C2562 H2556 0.950 . S
C2562 C2563 1.327 . S
C2563 H2557 0.950 . S
C2563 C2562 1.327 . S
C2563 C2567 1.429 . S
C2564 C2547 1.549 1_565 S
C2564 H2558 0.949 . S
C2564 C2568 1.368 . S
C2565 C2546 1.429 . S
C2565 C2559 1.429 . S
C2565 C2566 1.523 . S
C2566 C2547 1.376 . S
C2566 C2560 1.368 . S
C2566 C2565 1.523 . S
C2567 C2551 1.429 . S
C2567 C2563 1.429 . S
C2567 C2568 1.523 . S
C2568 C2552 1.376 . S
C2568 C2564 1.368 . S
C2568 C2567 1.523 . S
H2569 C2544 0.950 . S
H2570 C2546 0.950 . S
H2571 C2547 0.966 . S
H2572 C2549 0.950 . S
H2573 C2551 0.950 . S
C2574 C2575 1.349 . S
C2574 C2576 1.327 . S
C2574 H2599 0.950 . S
C2575 C2574 1.349 . S
C2575 C2591 1.349 . S
C2576 C2574 1.327 . S
C2576 C2595 1.429 . S
C2576 H2600 0.950 . S
C2577 C2594 1.574 . S
C2577 C2596 1.368 1_545 S
C2577 H2601 0.949 . S
H2578 C2582 0.949 . S
C2579 C2580 1.349 . S
C2579 C2581 1.327 . S
C2579 H2602 0.950 . S
C2580 C2579 1.349 . S
C2580 C2592 1.349 . S
C2581 C2579 1.327 . S
C2581 C2597 1.429 . S
C2581 H2603 0.950 . S
C2582 H2578 0.949 . S
C2582 C2590 1.574 . S
C2582 C2598 1.368 1_565 S
H2583 C2591 0.950 . S
H2584 C2589 0.950 . S
H2585 C2590 0.949 . S
H2586 C2592 0.950 . S
H2587 C2593 0.950 . S
H2588 C2594 0.949 . S
C2589 H2584 0.950 . S
C2589 C2591 1.327 . S
C2589 C2595 1.429 . S
C2590 C2582 1.574 . S
C2590 H2585 0.949 . S
C2590 C2596 1.368 . S
C2591 C2575 1.349 . S
C2591 H2583 0.950 . S
C2591 C2589 1.327 . S
C2592 C2580 1.349 . S
C2592 H2586 0.950 . S
C2592 C2593 1.327 . S
C2593 H2587 0.950 . S
C2593 C2592 1.327 . S
C2593 C2597 1.429 . S
C2594 C2577 1.574 . S
C2594 H2588 0.949 . S
C2594 C2598 1.368 . S
C2595 C2576 1.429 . S
C2595 C2589 1.429 . S
C2595 C2596 1.523 . S
C2596 C2577 1.368 1_565 S
C2596 C2590 1.368 . S
C2596 C2595 1.523 . S
C2597 C2581 1.429 . S
C2597 C2593 1.429 . S
C2597 C2598 1.523 . S
C2598 C2582 1.368 1_545 S
C2598 C2594 1.368 . S
C2598 C2597 1.523 . S
H2599 C2574 0.950 . S
H2600 C2576 0.950 . S
H2601 C2577 0.949 . S
H2602 C2579 0.950 . S
H2603 C2581 0.950 . S
C2604 C2605 1.349 . S
C2604 C2606 1.327 . S
C2604 H2629 0.950 . S
C2605 C2604 1.349 . S
C2605 C2621 1.349 . S
C2606 C2604 1.327 . S
C2606 C2625 1.429 . S
C2606 H2630 0.950 . S
C2607 C2624 1.574 . S
C2607 C2626 1.368 1_455 S
C2607 H2631 0.949 . S
H2608 C2612 0.949 . S
C2609 C2610 1.349 . S
C2609 C2611 1.327 . S
C2609 H2632 0.950 . S
C2610 C2609 1.349 . S
C2610 C2622 1.349 . S
C2611 C2609 1.327 . S
C2611 C2627 1.429 . S
C2611 H2633 0.950 . S
C2612 H2608 0.949 . S
C2612 C2620 1.574 . S
C2612 C2628 1.368 1_655 S
H2613 C2621 0.950 . S
H2614 C2619 0.950 . S
H2615 C2620 0.949 . S
H2616 C2622 0.950 . S
H2617 C2623 0.950 . S
H2618 C2624 0.949 . S
C2619 H2614 0.950 . S
C2619 C2621 1.327 . S
C2619 C2625 1.429 . S
C2620 C2612 1.574 . S
C2620 H2615 0.949 . S
C2620 C2626 1.368 . S
C2621 C2605 1.349 . S
C2621 H2613 0.950 . S
C2621 C2619 1.327 . S
C2622 C2610 1.349 . S
C2622 H2616 0.950 . S
C2622 C2623 1.327 . S
C2623 H2617 0.950 . S
C2623 C2622 1.327 . S
C2623 C2627 1.429 . S
C2624 C2607 1.574 . S
C2624 H2618 0.949 . S
C2624 C2628 1.368 . S
C2625 C2606 1.429 . S
C2625 C2619 1.429 . S
C2625 C2626 1.523 . S
C2626 C2607 1.368 1_655 S
C2626 C2620 1.368 . S
C2626 C2625 1.523 . S
C2627 C2611 1.429 . S
C2627 C2623 1.429 . S
C2627 C2628 1.523 . S
C2628 C2612 1.368 1_455 S
C2628 C2624 1.368 . S
C2628 C2627 1.523 . S
H2629 C2604 0.950 . S
H2630 C2606 0.950 . S
H2631 C2607 0.949 . S
H2632 C2609 0.950 . S
H2633 C2611 0.950 . S
C2634 C2635 1.349 . S
C2634 C2636 1.327 . S
C2634 H2659 0.950 . S
C2635 C2634 1.349 . S
C2635 C2651 1.349 . S
C2636 C2634 1.327 . S
C2636 C2655 1.429 . S
C2636 H2660 0.950 . S
C2637 C2654 1.574 . S
C2637 C2656 1.368 . S
C2637 H2661 0.949 . S
H2638 C2642 0.949 . S
C2639 C2640 1.349 . S
C2639 C2641 1.327 . S
C2639 H2662 0.950 . S
C2640 C2639 1.349 . S
C2640 C2652 1.349 . S
C2641 C2639 1.327 . S
C2641 C2657 1.429 . S
C2641 H2663 0.950 . S
C2642 H2638 0.949 . S
C2642 C2650 1.574 . S
C2642 C2658 1.368 . S
H2643 C2651 0.950 . S
H2644 C2649 0.950 . S
H2645 C2650 0.949 . S
H2646 C2652 0.950 . S
H2647 C2653 0.950 . S
H2648 C2654 0.949 . S
C2649 H2644 0.950 . S
C2649 C2651 1.327 . S
C2649 C2655 1.429 . S
C2650 C2642 1.574 . S
C2650 H2645 0.949 . S
C2650 C2656 1.368 . S
C2651 C2635 1.349 . S
C2651 H2643 0.950 . S
C2651 C2649 1.327 . S
C2652 C2640 1.349 . S
C2652 H2646 0.950 . S
C2652 C2653 1.327 . S
C2653 H2647 0.950 . S
C2653 C2652 1.327 . S
C2653 C2657 1.429 . S
C2654 C2637 1.574 . S
C2654 H2648 0.949 . S
C2654 C2658 1.368 . S
C2655 C2636 1.429 . S
C2655 C2649 1.429 . S
C2655 C2656 1.523 . S
C2656 C2637 1.368 . S
C2656 C2650 1.368 . S
C2656 C2655 1.523 . S
C2657 C2641 1.429 . S
C2657 C2653 1.429 . S
C2657 C2658 1.523 . S
C2658 C2642 1.368 . S
C2658 C2654 1.368 . S
C2658 C2657 1.523 . S
H2659 C2634 0.950 . S
H2660 C2636 0.950 . S
H2661 C2637 0.949 . S
H2662 C2639 0.950 . S
H2663 C2641 0.950 . S
C505 C68 1.106 . S
C510 C13 1.106 . S
C535 C83 1.106 . S
C540 C26 1.100 . S
C565 C42 1.107 . S
C570 C29 1.106 . S
C595 C153 1.107 . S
C600 C84 1.106 . S
C625 C110 1.106 . S
C630 C166 1.105 . S
C655 C139 1.106 . S
C660 C124 1.106 . S
C685 C169 1.142 . S
C690 C236 1.140 . S
C715 C251 1.140 . S
C720 C195 1.141 . S
C745 C208 1.141 . S
C750 C210 1.140 . S
C775 C264 1.141 . S
C780 C309 1.141 . S
C805 C322 1.142 . S
C810 C266 1.141 . S
C835 C280 1.141 . S
C840 C306 1.142 . S
C865 C404 1.141 . S
C870 C349 1.141 . S
C895 C363 1.141 . S
C900 C407 1.142 . S
C925 C390 1.141 . S
C930 C365 1.141 . S
C955 C489 1.140 . S
C960 C432 1.142 . S
C985 C446 1.142 . S
C990 C502 1.141 . S
C1015 C448 1.142 . S
C1020 C475 1.140 . S
C1045 C167 1.744 . S
C1050 C12 1.744 . S
C1075 C27 1.746 . S
C1080 C138 1.746 . S
C1105 C152 1.745 . S
C1110 C28 1.743 . S
C1135 C111 1.744 . S
C1140 C43 1.745 . S
C1165 C69 1.745 . S
C1170 C125 1.743 . S
C1195 C85 1.744 . S
C1200 C82 1.744 . S
C1225 C168 1.826 . S
C1230 C323 1.826 . S
C1255 C307 1.827 . S
C1260 C194 1.827 . S
C1285 C308 1.829 . S
C1290 C209 1.829 . S
C1315 C211 1.795 . S
C1320 C267 1.793 . S
C1345 C237 1.795 . S
C1350 C281 1.794 . S
C1375 C250 1.794 . S
C1380 C265 1.794 . S
C1405 C503 1.793 . S
C1410 C348 1.793 . S
C1435 C362 1.793 . S
C1440 C474 1.795 . S
C1465 C364 1.793 . S
C1470 C488 1.795 . S
C1495 C447 1.826 . S
C1500 C391 1.828 . S
C1525 C449 1.827 . S
C1530 C405 1.829 . S
C1555 C433 1.826 . S
C1560 C406 1.826 . S
C1585 C223 1.721 . S
C1590 C0 1.721 . S
C1615 C225 1.721 . S
C1620 C15 1.721 . S
C1645 C40 1.726 . S
C1650 C238 1.718 . S
C1675 C55 1.725 . S
C1680 C336 1.718 . S
C1705 C57 1.726 . S
C1710 C350 1.718 . S
C1735 C70 1.726 . S
C1740 C376 1.717 . S
C1765 C97 1.726 . S
C1770 C462 1.716 . S
C1795 C99 1.726 . S
C1800 C476 1.716 . S
C1825 C113 1.727 . S
C1830 C491 1.718 . S
C1855 C126 1.725 . S
C1860 C253 1.717 . S
C1885 C279 1.723 . S
C1890 C140 1.721 . S
C1915 C293 1.722 . S
C1920 C155 1.721 . S
C1945 C379 2.120 . S
C1950 C180 2.121 . S
C1975 C182 2.121 . S
C1980 C393 2.120 . S
C2005 C418 2.121 . S
C2010 C197 2.120 . S
C2035 C295 2.121 . S
C2040 C421 2.121 . S
C2065 C435 2.121 . S
C2070 C320 2.120 . S
C2095 C461 2.121 . S
C2100 C335 2.121 . S
C2125 C1 1.967 . S
C2130 C419 1.976 . S
C2155 C14 1.968 . S
C2160 C378 1.978 . S
C2185 C41 1.967 . S
C2190 C392 1.978 . S
C2215 C54 1.968 . S
C2220 C183 1.976 . S
C2245 C196 1.973 . S
C2250 C56 1.972 . S
C2275 C181 1.972 . S
C2280 C71 1.971 . S
C2305 C334 1.972 . S
C2310 C96 1.971 . S
C2335 C294 1.972 . S
C2340 C98 1.971 . S
C2365 C321 1.973 . S
C2370 C112 1.971 . S
C2395 C434 1.972 . S
C2400 C127 1.972 . S
C2425 C460 1.971 . S
C2430 C141 1.972 . S
C2455 C420 1.972 . S
C2460 C154 1.971 . S
C2485 C222 1.600 . S
C2490 C351 1.598 . S
C2515 C377 1.598 . S
C2520 C224 1.600 . S
C2545 C337 1.598 . S
C2550 C239 1.598 . S
C2575 C252 1.599 . S
C2580 C490 1.599 . S
C2605 C463 1.600 . S
C2610 C278 1.599 . S
C2635 C292 1.598 . S
C2640 C477 1.600 . S
