# Generated by pormake.
# Topology uno, (4)-cn, num edge types: 1
# Building blocks:
#     Node 0, Type 0, BuildingBlock: NAWXER_clean_sbu_0, # of connection points: 4
#     Node 1, Type 0, BuildingBlock: NAWXER_clean_sbu_0, # of connection points: 4
#     Node 2, Type 0, BuildingBlock: NAWXER_clean_sbu_0, # of connection points: 4
#     Node 3, Type 0, BuildingBlock: NAWXER_clean_sbu_0, # of connection points: 4
#     Node 4, Type 0, BuildingBlock: NAWXER_clean_sbu_0, # of connection points: 4
#     Node 5, Type 0, BuildingBlock: NAWXER_clean_sbu_0, # of connection points: 4
#     Node 6, Type 0, BuildingBlock: NAWXER_clean_sbu_0, # of connection points: 4
#     Node 7, Type 0, BuildingBlock: NAWXER_clean_sbu_0, # of connection points: 4
#     Node 8, Type 0, BuildingBlock: NAWXER_clean_sbu_0, # of connection points: 4
#     Node 9, Type 0, BuildingBlock: NAWXER_clean_sbu_0, # of connection points: 4
#     Node 10, Type 0, BuildingBlock: NAWXER_clean_sbu_0, # of connection points: 4
#     Node 11, Type 0, BuildingBlock: NAWXER_clean_sbu_0, # of connection points: 4
#     Node 12, Type 0, BuildingBlock: NAWXER_clean_sbu_0, # of connection points: 4
#     Node 13, Type 0, BuildingBlock: NAWXER_clean_sbu_0, # of connection points: 4
#     Node 14, Type 0, BuildingBlock: NAWXER_clean_sbu_0, # of connection points: 4
#     Node 15, Type 0, BuildingBlock: NAWXER_clean_sbu_0, # of connection points: 4
#     Node 16, Type 0, BuildingBlock: NAWXER_clean_sbu_0, # of connection points: 4
#     Node 17, Type 0, BuildingBlock: NAWXER_clean_sbu_0, # of connection points: 4
#     Node 18, Type 0, BuildingBlock: NAWXER_clean_sbu_0, # of connection points: 4
#     Node 19, Type 0, BuildingBlock: NAWXER_clean_sbu_0, # of connection points: 4
#     Node 20, Type 0, BuildingBlock: NAWXER_clean_sbu_0, # of connection points: 4
#     Node 21, Type 0, BuildingBlock: NAWXER_clean_sbu_0, # of connection points: 4
#     Node 22, Type 0, BuildingBlock: NAWXER_clean_sbu_0, # of connection points: 4
#     Node 23, Type 0, BuildingBlock: NAWXER_clean_sbu_0, # of connection points: 4
#     Edge 24, Type (0, 0), BuildingBlock: XUDNAN_clean_linker_2, # of connection points: 2
#     Edge 25, Type (0, 0), BuildingBlock: XUDNAN_clean_linker_2, # of connection points: 2
#     Edge 26, Type (0, 0), BuildingBlock: XUDNAN_clean_linker_2, # of connection points: 2
#     Edge 27, Type (0, 0), BuildingBlock: XUDNAN_clean_linker_2, # of connection points: 2
#     Edge 28, Type (0, 0), BuildingBlock: XUDNAN_clean_linker_2, # of connection points: 2
#     Edge 29, Type (0, 0), BuildingBlock: XUDNAN_clean_linker_2, # of connection points: 2
#     Edge 30, Type (0, 0), BuildingBlock: XUDNAN_clean_linker_2, # of connection points: 2
#     Edge 31, Type (0, 0), BuildingBlock: XUDNAN_clean_linker_2, # of connection points: 2
#     Edge 32, Type (0, 0), BuildingBlock: XUDNAN_clean_linker_2, # of connection points: 2
#     Edge 33, Type (0, 0), BuildingBlock: XUDNAN_clean_linker_2, # of connection points: 2
#     Edge 34, Type (0, 0), BuildingBlock: XUDNAN_clean_linker_2, # of connection points: 2
#     Edge 35, Type (0, 0), BuildingBlock: XUDNAN_clean_linker_2, # of connection points: 2
#     Edge 36, Type (0, 0), BuildingBlock: XUDNAN_clean_linker_2, # of connection points: 2
#     Edge 37, Type (0, 0), BuildingBlock: XUDNAN_clean_linker_2, # of connection points: 2
#     Edge 38, Type (0, 0), BuildingBlock: XUDNAN_clean_linker_2, # of connection points: 2
#     Edge 39, Type (0, 0), BuildingBlock: XUDNAN_clean_linker_2, # of connection points: 2
#     Edge 40, Type (0, 0), BuildingBlock: XUDNAN_clean_linker_2, # of connection points: 2
#     Edge 41, Type (0, 0), BuildingBlock: XUDNAN_clean_linker_2, # of connection points: 2
#     Edge 42, Type (0, 0), BuildingBlock: XUDNAN_clean_linker_2, # of connection points: 2
#     Edge 43, Type (0, 0), BuildingBlock: XUDNAN_clean_linker_2, # of connection points: 2
#     Edge 44, Type (0, 0), BuildingBlock: XUDNAN_clean_linker_2, # of connection points: 2
#     Edge 45, Type (0, 0), BuildingBlock: XUDNAN_clean_linker_2, # of connection points: 2
#     Edge 46, Type (0, 0), BuildingBlock: XUDNAN_clean_linker_2, # of connection points: 2
#     Edge 47, Type (0, 0), BuildingBlock: XUDNAN_clean_linker_2, # of connection points: 2
#     Edge 48, Type (0, 0), BuildingBlock: XUDNAN_clean_linker_2, # of connection points: 2
#     Edge 49, Type (0, 0), BuildingBlock: XUDNAN_clean_linker_2, # of connection points: 2
#     Edge 50, Type (0, 0), BuildingBlock: XUDNAN_clean_linker_2, # of connection points: 2
#     Edge 51, Type (0, 0), BuildingBlock: XUDNAN_clean_linker_2, # of connection points: 2
#     Edge 52, Type (0, 0), BuildingBlock: XUDNAN_clean_linker_2, # of connection points: 2
#     Edge 53, Type (0, 0), BuildingBlock: XUDNAN_clean_linker_2, # of connection points: 2
#     Edge 54, Type (0, 0), BuildingBlock: XUDNAN_clean_linker_2, # of connection points: 2
#     Edge 55, Type (0, 0), BuildingBlock: XUDNAN_clean_linker_2, # of connection points: 2
#     Edge 56, Type (0, 0), BuildingBlock: XUDNAN_clean_linker_2, # of connection points: 2
#     Edge 57, Type (0, 0), BuildingBlock: XUDNAN_clean_linker_2, # of connection points: 2
#     Edge 58, Type (0, 0), BuildingBlock: XUDNAN_clean_linker_2, # of connection points: 2
#     Edge 59, Type (0, 0), BuildingBlock: XUDNAN_clean_linker_2, # of connection points: 2
#     Edge 60, Type (0, 0), BuildingBlock: XUDNAN_clean_linker_2, # of connection points: 2
#     Edge 61, Type (0, 0), BuildingBlock: XUDNAN_clean_linker_2, # of connection points: 2
#     Edge 62, Type (0, 0), BuildingBlock: XUDNAN_clean_linker_2, # of connection points: 2
#     Edge 63, Type (0, 0), BuildingBlock: XUDNAN_clean_linker_2, # of connection points: 2
#     Edge 64, Type (0, 0), BuildingBlock: XUDNAN_clean_linker_2, # of connection points: 2
#     Edge 65, Type (0, 0), BuildingBlock: XUDNAN_clean_linker_2, # of connection points: 2
#     Edge 66, Type (0, 0), BuildingBlock: XUDNAN_clean_linker_2, # of connection points: 2
#     Edge 67, Type (0, 0), BuildingBlock: XUDNAN_clean_linker_2, # of connection points: 2
#     Edge 68, Type (0, 0), BuildingBlock: XUDNAN_clean_linker_2, # of connection points: 2
#     Edge 69, Type (0, 0), BuildingBlock: XUDNAN_clean_linker_2, # of connection points: 2
#     Edge 70, Type (0, 0), BuildingBlock: XUDNAN_clean_linker_2, # of connection points: 2
#     Edge 71, Type (0, 0), BuildingBlock: XUDNAN_clean_linker_2, # of connection points: 2
# Relax obj value: 0.557
# Max RMSD: 0.288
# Mean RMSD: 0.258
data_MOF--net-uno--node1-NAWXER_clean_sbu_0--edge1-XUDNAN_clean_linker_2
_symmetry_space_group_name_H-M    P1
_symmetry_Int_Tables_number       1
_symmetry_cell_setting            triclinic
loop_
_symmetry_equiv_pos_as_xyz
'x, y, z'
_cell_length_a     52.916026
_cell_length_b     52.917165
_cell_length_c     52.961179
_cell_angle_alpha  89.708588
_cell_angle_beta   89.747015
_cell_angle_gamma 89.687835
loop_
_atom_site_label
_atom_site_type_symbol
_atom_site_fract_x
_atom_site_fract_y
_atom_site_fract_z
_atom_type_partial_charge
C0 C 0.0367 0.1916 0.28582 0.0
C1 C 0.09048 0.25466 0.24847 0.0
O2 O 0.03782 0.19963 0.26331 0.0
Zn3 Zn 0.0605 0.22725 0.2684 0.0
O4 O 0.04755 0.20412 0.30339 0.0
Zn5 Zn 0.07139 0.23772 0.30439 0.0
O6 O 0.05262 0.26459 0.32139 0.0
O7 O 0.04018 0.25993 0.28219 0.0
O8 O 0.0913 0.2566 0.27268 0.0
O9 O 0.07463 0.23997 0.23836 0.0
O10 O 0.09379 0.20834 0.28347 0.0
O11 O 0.10036 0.22345 0.32181 0.0
C12 C 0.03921 0.27215 0.30305 0.0
C13 C 0.10677 0.20885 0.30384 0.0
C14 C 0.05979 0.72227 0.50534 0.0
C15 C 0.02783 0.77575 0.43787 0.0
O16 O 0.05085 0.71493 0.48442 0.0
Zn17 Zn 0.03869 0.74789 0.47211 0.0
O18 O 0.05469 0.74468 0.51292 0.0
Zn19 Zn 0.03684 0.77785 0.49802 0.0
O20 O 0.00464 0.78475 0.51469 0.0
O21 O 1.00046 0.75602 0.48524 0.0
O22 O 0.02843 0.787 0.45923 0.0
O23 O 0.0333 0.75236 0.43618 0.0
O24 O 0.07269 0.77076 0.47564 0.0
O25 O 0.0645 0.80079 0.50343 0.0
C26 C 0.9903 0.77133 0.50111 0.0
C27 C 0.07993 0.78997 0.48837 0.0
C28 C 0.46617 0.81717 0.78672 0.0
C29 C 0.41141 0.75051 0.75861 0.0
O30 O 0.46117 0.80865 0.76511 0.0
Zn31 Zn 0.44121 0.78015 0.77424 0.0
O32 O 0.45965 0.80416 0.80627 0.0
Zn33 Zn 0.43952 0.76792 0.81076 0.0
O34 O 0.46299 0.74208 0.82249 0.0
O35 O 0.46423 0.74696 0.78137 0.0
O36 O 0.41525 0.74766 0.7825 0.0
O37 O 0.42298 0.76785 0.7467 0.0
O38 O 0.40939 0.7943 0.79694 0.0
O39 O 0.41334 0.77612 0.8345 0.0
C40 C 0.47055 0.73443 0.80115 0.0
C41 C 0.40113 0.79036 0.81948 0.0
C42 C 0.51023 0.24579 0.96263 0.0
C43 C 0.42898 0.20877 0.95055 0.0
O44 O 0.49779 0.23081 0.9765 0.0
Zn45 Zn 0.46712 0.2308 0.95826 0.0
O46 O 0.49865 0.25809 0.94511 0.0
Zn47 Zn 0.45949 0.25858 0.93177 0.0
O48 O 0.44171 0.28922 0.94283 0.0
O49 O 0.44292 0.25989 0.97229 0.0
O50 O 0.43054 0.22899 0.93706 0.0
O51 O 0.44687 0.20256 0.96526 0.0
O52 O 0.47691 0.22191 0.91937 0.0
O53 O 0.46481 0.25455 0.89598 0.0
C54 C 0.43425 0.28099 0.96412 0.0
C55 C 0.47453 0.23255 0.89765 0.0
C56 C 0.01069 0.92543 0.33734 0.0
C57 C 0.00316 0.00931 0.30097 0.0
O58 O 0.99931 0.94484 0.34586 0.0
Zn59 Zn 0.00576 0.96558 0.31713 0.0
O60 O 0.02202 0.92642 0.31584 0.0
Zn61 Zn 0.02606 0.95505 0.28548 0.0
O62 O 0.06214 0.9553 0.28344 0.0
O63 O 0.04663 0.96874 0.31988 0.0
O64 O 0.01667 0.99558 0.28607 0.0
O65 O 0.99208 0.99879 0.31938 0.0
O66 O 0.98438 0.94356 0.29113 0.0
O67 O 0.00892 0.93731 0.25826 0.0
C68 C 0.06567 0.96346 0.30566 0.0
C69 C 0.98872 0.93224 0.27023 0.0
C70 C 0.30672 0.71122 0.56241 0.0
C71 C 0.23614 0.73402 0.61566 0.0
O72 O 0.29459 0.73186 0.56347 0.0
Zn73 Zn 0.26945 0.72181 0.58739 0.0
O74 O 0.2982 0.69161 0.57405 0.0
Zn75 Zn 0.26501 0.68351 0.59765 0.0
O76 O 0.23976 0.66379 0.5784 0.0
O77 O 0.24068 0.7037 0.56713 0.0
O78 O 0.24031 0.71016 0.61666 0.0
O79 O 0.2493 0.74815 0.60135 0.0
O80 O 0.29063 0.70914 0.62002 0.0
O81 O 0.28109 0.66911 0.62761 0.0
C82 C 0.23031 0.68202 0.56579 0.0
C83 C 0.2932 0.68899 0.63341 0.0
C84 C 0.50818 0.99765 0.76951 0.0
C85 C 0.49405 0.08579 0.79161 0.0
O86 O 0.52109 0.01193 0.78356 0.0
Zn87 Zn 0.50364 0.04357 0.77773 0.0
O88 O 0.49188 0.00775 0.75458 0.0
Zn89 Zn 0.47801 0.04606 0.74792 0.0
O90 O 0.49003 0.05958 0.7154 0.0
O91 O 0.51842 0.06313 0.74529 0.0
O92 O 0.48139 0.07941 0.77203 0.0
O93 O 0.50909 0.06993 0.80182 0.0
O94 O 0.46462 0.0352 0.78692 0.0
O95 O 0.44208 0.04085 0.75225 0.0
C96 C 0.51073 0.06877 0.72306 0.0
C97 C 0.44321 0.03519 0.77562 0.0
C98 C 0.26763 0.30474 0.04202 0.0
C99 C 0.21044 0.29683 0.11409 0.0
O100 O 0.25939 0.32218 0.05622 0.0
Zn101 Zn 0.23559 0.30208 0.07648 0.0
O102 O 0.25715 0.28304 0.04296 0.0
Zn103 Zn 0.22761 0.2659 0.06387 0.0
O104 O 0.19927 0.26035 0.04218 0.0
O105 O 0.19919 0.2989 0.05728 0.0
O106 O 0.21044 0.27743 0.09958 0.0
O107 O 0.22327 0.31625 0.10795 0.0
O108 O 0.25851 0.27101 0.09283 0.0
O109 O 0.24437 0.23622 0.07491 0.0
C110 C 0.18793 0.28123 0.04529 0.0
C111 C 0.25918 0.2468 0.09038 0.0
C112 C 0.29707 0.11229 0.20591 0.0
C113 C 0.28721 0.04422 0.2673 0.0
O114 O 0.31272 0.10538 0.22277 0.0
Zn115 Zn 0.29368 0.07606 0.2335 0.0
O116 O 0.27659 0.09985 0.20266 0.0
Zn117 Zn 0.25827 0.06712 0.21923 0.0
O118 O 0.22732 0.08171 0.23045 0.0
O119 O 0.26098 0.09569 0.25069 0.0
O120 O 0.26793 0.04642 0.25288 0.0
O121 O 0.30724 0.05604 0.26162 0.0
O122 O 0.29499 0.05311 0.19918 0.0
O123 O 0.25514 0.04465 0.19127 0.0
C124 C 0.23692 0.09559 0.24733 0.0
C125 C 0.2782 0.04301 0.18503 0.0
C126 C 0.22702 0.89314 0.47257 0.0
C127 C 0.2656 0.96852 0.43532 0.0
O128 O 0.24819 0.89402 0.46105 0.0
Zn129 Zn 0.24915 0.93068 0.45822 0.0
O130 O 0.21496 0.91365 0.47737 0.0
Zn131 Zn 0.21901 0.9535 0.47061 0.0
O132 O 0.18941 0.95984 0.45124 0.0
O133 O 0.21759 0.93542 0.43219 0.0
O134 O 0.24522 0.97297 0.4476 0.0
O135 O 0.27618 0.94702 0.43784 0.0
O136 O 0.25113 0.94164 0.49824 0.0
O137 O 0.21949 0.96841 0.50299 0.0
C138 C 0.19634 0.94726 0.432 0.0
C139 C 0.23789 0.95635 0.51247 0.0
C140 C 0.19335 0.85497 0.72416 0.0
C141 C 0.2177 0.92917 0.7692 0.0
O142 O 0.17911 0.87106 0.73479 0.0
Zn143 Zn 0.20583 0.89407 0.74276 0.0
O144 O 0.21708 0.85917 0.72161 0.0
Zn145 Zn 0.2429 0.88883 0.7316 0.0
O146 O 0.26749 0.87035 0.74888 0.0
O147 O 0.23042 0.87127 0.76855 0.0
O148 O 0.23711 0.91906 0.75862 0.0
O149 O 0.19575 0.92175 0.76348 0.0
O150 O 0.21476 0.91098 0.70624 0.0
O151 O 0.25496 0.90219 0.70011 0.0
C152 C 0.2538 0.86441 0.76769 0.0
C153 C 0.23462 0.91197 0.69226 0.0
C154 C 0.30421 0.07396 0.95955 0.0
C155 C 0.25341 0.00494 0.93219 0.0
O156 O 0.28075 0.0738 0.95463 0.0
Zn157 Zn 0.27811 0.03805 0.95207 0.0
O158 O 0.31637 0.05296 0.96171 0.0
Zn159 Zn 0.30771 0.01296 0.95735 0.0
O160 O 0.3331 0.00495 0.93274 0.0
O161 O 0.30371 0.03175 0.91949 0.0
O162 O 0.27545 0.99678 0.93828 0.0
O163 O 0.24635 0.02653 0.9398 0.0
O164 O 0.28196 0.02661 0.99103 0.0
O165 O 0.31218 0.99809 0.99051 0.0
C166 C 0.32383 0.01864 0.91521 0.0
C167 C 0.29631 0.01106 0.00296 0.0
C168 C 0.68964 0.2248 0.92301 0.0
C169 C 0.76403 0.25393 0.88073 0.0
O170 O 0.69831 0.24654 0.9187 0.0
Zn171 Zn 0.72911 0.23753 0.90325 0.0
O172 O 0.70304 0.20523 0.91756 0.0
Zn173 Zn 0.74013 0.20036 0.89974 0.0
O174 O 0.76245 0.18515 0.92418 0.0
O175 O 0.75613 0.22569 0.93072 0.0
O176 O 0.76486 0.22959 0.88158 0.0
O177 O 0.74606 0.2658 0.89135 0.0
O178 O 0.71994 0.21957 0.86784 0.0
O179 O 0.7327 0.17975 0.8709 0.0
C180 C 0.76797 0.20516 0.93593 0.0
C181 C 0.72295 0.1976 0.85808 0.0
C182 C 0.9693 0.42995 0.20443 0.0
C183 C 0.97875 0.51666 0.23063 0.0
O184 O 0.98704 0.44519 0.19878 0.0
Zn185 Zn 0.97672 0.4711 0.22179 0.0
O186 O 0.95249 0.43628 0.22077 0.0
Zn187 Zn 0.94398 0.46861 0.24462 0.0
O188 O 0.90987 0.47492 0.23124 0.0
O189 O 0.94139 0.47985 0.20399 0.0
O190 O 0.95901 0.5069 0.24095 0.0
O191 O 0.99527 0.50217 0.22098 0.0
O192 O 0.98356 0.45055 0.25516 0.0
O193 O 0.94902 0.45211 0.27818 0.0
C194 C 0.91767 0.48006 0.20896 0.0
C195 C 0.97109 0.44314 0.27448 0.0
C196 C 0.81214 0.79925 0.45293 0.0
C197 C 0.73431 0.79291 0.40042 0.0
O198 O 0.80182 0.77749 0.45234 0.0
Zn199 Zn 0.76877 0.76038 0.43832 0.0
O200 O 0.80062 0.81813 0.4432 0.0
Zn201 Zn 0.7708 0.8005 0.42864 0.0
O202 O 0.74585 0.79242 0.45907 0.0
O203 O 0.747 0.75137 0.46663 0.0
O204 O 0.74621 0.81371 0.40313 0.0
O205 O 0.74119 0.77335 0.41277 0.0
O206 O 0.78409 0.73584 0.41562 0.0
O207 O 0.78864 0.77558 0.40314 0.0
C208 C 0.73788 0.77315 0.47139 0.0
C209 C 0.79196 0.75198 0.39942 0.0
C210 C 0.89173 0.74452 0.24364 0.0
C211 C 0.95235 0.69204 0.19221 0.0
O212 O 0.90969 0.7295 0.24453 0.0
Zn213 Zn 0.93696 0.70662 0.2461 0.0
O214 O 0.88604 0.75176 0.22127 0.0
Zn215 Zn 0.91799 0.73032 0.2048 0.0
O216 O 0.89894 0.6973 0.21477 0.0
O217 O 0.91019 0.67972 0.25123 0.0
O218 O 0.93662 0.70655 0.18071 0.0
O219 O 0.95503 0.69343 0.21595 0.0
O220 O 0.95742 0.73349 0.26084 0.0
O221 O 0.94694 0.75075 0.22382 0.0
C222 C 0.89593 0.68032 0.23163 0.0
C223 C 0.95854 0.7519 0.24506 0.0
C224 C 0.63552 0.24692 0.72262 0.0
C225 C 0.57252 0.31262 0.72173 0.0
O226 O 0.6242 0.25765 0.74086 0.0
Zn227 Zn 0.60176 0.2769 0.72129 0.0
O228 O 0.62945 0.25193 0.69969 0.0
Zn229 Zn 0.60146 0.27665 0.68173 0.0
O230 O 0.62391 0.29819 0.66173 0.0
O231 O 0.62829 0.30193 0.7031 0.0
O232 O 0.57846 0.30642 0.69901 0.0
O233 O 0.58007 0.29891 0.73987 0.0
O234 O 0.57917 0.24769 0.70647 0.0
O235 O 0.57931 0.25162 0.66521 0.0
C236 C 0.63478 0.30818 0.68061 0.0
C237 C 0.57242 0.23953 0.68486 0.0
C238 C 0.55062 0.58033 0.7073 0.0
C239 C 0.54687 0.49465 0.73979 0.0
O240 O 0.53829 0.56168 0.69879 0.0
Zn241 Zn 0.54825 0.53804 0.7244 0.0
O242 O 0.56485 0.57731 0.72663 0.0
Zn243 Zn 0.57425 0.54731 0.75296 0.0
O244 O 0.61044 0.54435 0.74711 0.0
O245 O 0.58703 0.53181 0.71506 0.0
O246 O 0.56184 0.508 0.75331 0.0
O247 O 0.53445 0.505 0.72212 0.0
O248 O 0.53193 0.5563 0.75662 0.0
O249 O 0.56244 0.56337 0.78384 0.0
C250 C 0.60871 0.53504 0.72512 0.0
C251 C 0.53949 0.5661 0.77734 0.0
C252 C 0.92967 0.25341 0.00574 0.0
C253 C 0.95415 0.30096 0.07794 0.0
O254 O 0.93172 0.2466 0.02853 0.0
Zn255 Zn 0.9459 0.27686 0.04137 0.0
O256 O 0.93939 0.27439 0.99848 0.0
Zn257 Zn 0.96081 0.30363 0.01707 0.0
O258 O 0.99633 0.30135 0.00718 0.0
O259 O 0.98617 0.27386 0.03663 0.0
O260 O 0.9618 0.31205 0.05762 0.0
O261 O 0.94344 0.27959 0.07682 0.0
O262 O 0.92016 0.30802 0.0304 0.0
O263 O 0.94279 0.33265 0.0053 0.0
C264 C 1.00309 0.2846 0.02298 0.0
C265 C 0.92205 0.32802 0.01659 0.0
C266 C 0.48775 0.73662 0.53549 0.0
C267 C 0.57198 0.70331 0.54969 0.0
O268 O 0.50018 0.72068 0.52268 0.0
Zn269 Zn 0.53166 0.7221 0.54053 0.0
O270 O 0.49912 0.74973 0.55228 0.0
Zn271 Zn 0.53775 0.75182 0.56559 0.0
O272 O 0.55533 0.78174 0.55297 0.0
O273 O 0.5546 0.75132 0.52495 0.0
O274 O 0.56794 0.72375 0.56204 0.0
O275 O 0.55498 0.69472 0.53513 0.0
O276 O 0.52325 0.71463 0.57999 0.0
O277 O 0.5329 0.74903 0.60145 0.0
C278 C 0.56347 0.77244 0.53239 0.0
C279 C 0.52529 0.72626 0.60112 0.0
C280 C 0.72523 0.59965 0.54193 0.0
C281 C 0.78928 0.54128 0.56883 0.0
O282 O 0.74761 0.60414 0.54922 0.0
Zn283 Zn 0.75867 0.57011 0.54852 0.0
O284 O 0.71863 0.57685 0.53683 0.0
Zn285 Zn 0.73708 0.53951 0.53906 0.0
O286 O 0.71329 0.52283 0.56024 0.0
O287 O 0.73282 0.55501 0.5781 0.0
O288 O 0.77009 0.52946 0.56039 0.0
O289 O 0.79214 0.56426 0.56274 0.0
O290 O 0.75788 0.56348 0.50804 0.0
O291 O 0.73928 0.52665 0.50521 0.0
C292 C 0.71707 0.53659 0.57947 0.0
C293 C 0.74948 0.5454 0.49444 0.0
C294 C 0.80084 0.402 0.78872 0.0
C295 C 0.80842 0.47828 0.74057 0.0
O296 O 0.81966 0.41085 0.77675 0.0
Zn297 Zn 0.80412 0.44219 0.76974 0.0
O298 O 0.78048 0.41524 0.7915 0.0
Zn299 Zn 0.76801 0.45341 0.77794 0.0
O300 O 0.73855 0.44441 0.75947 0.0
O301 O 0.77403 0.42787 0.74446 0.0
O302 O 0.78601 0.47687 0.74974 0.0
O303 O 0.82533 0.4638 0.74933 0.0
O304 O 0.79949 0.45696 0.80818 0.0
O305 O 0.76127 0.47324 0.80808 0.0
C306 C 0.74986 0.43062 0.74339 0.0
C307 C 0.78154 0.46858 0.81982 0.0
C308 C 0.78357 0.44927 0.04244 0.0
C309 C 0.71869 0.50267 0.08193 0.0
O310 O 0.76498 0.44192 0.05597 0.0
Zn311 Zn 0.74886 0.47514 0.05783 0.0
O312 O 0.78545 0.47274 0.0364 0.0
Zn313 Zn 0.76454 0.50805 0.04254 0.0
O314 O 0.7915 0.52614 0.05825 0.0
O315 O 0.77788 0.49312 0.0802 0.0
O316 O 0.73453 0.51597 0.06925 0.0
O317 O 0.71827 0.47897 0.07838 0.0
O318 O 0.74181 0.4801 0.01782 0.0
O319 O 0.75593 0.51781 0.0078 0.0
C320 C 0.79259 0.51218 0.07786 0.0
C321 C 0.74676 0.49685 1.0009 0.0
C322 C 0.68222 0.65966 0.29943 0.0
C323 C 0.68181 0.58634 0.24271 0.0
O324 O 0.66283 0.64943 0.28976 0.0
Zn325 Zn 0.68076 0.62035 0.27541 0.0
O326 O 0.70379 0.64857 0.29761 0.0
Zn327 Zn 0.71897 0.6144 0.2805 0.0
O328 O 0.74477 0.62863 0.26196 0.0
O329 O 0.70668 0.64033 0.24877 0.0
O330 O 0.70371 0.59091 0.25164 0.0
O331 O 0.66266 0.59724 0.25241 0.0
O332 O 0.69034 0.59927 0.31003 0.0
O333 O 0.73146 0.59361 0.30701 0.0
C334 C 0.73092 0.64094 0.24673 0.0
C335 C 0.71113 0.59048 0.31909 0.0
H336 H 0.18099 0.25816 0.13007 0.0
H337 H 0.20466 0.33364 0.1508 0.0
H338 H 0.17734 0.3313 0.18903 0.0
H339 H 0.11744 0.26448 0.14715 0.0
H340 H 0.1147 0.23245 0.15855 0.0
H341 H 0.13731 0.23994 0.13422 0.0
H342 H 0.17336 0.22089 0.16165 0.0
H343 H 0.15082 0.21327 0.18606 0.0
H344 H 0.17793 0.23232 0.1933 0.0
H345 H 0.14643 0.31955 0.22557 0.0
H346 H 0.11413 0.30077 0.25434 0.0
H347 H 0.11091 0.23467 0.20652 0.0
C348 C 0.18069 0.27425 0.14263 0.0
C349 C 0.19502 0.29607 0.13746 0.0
C350 C 0.19386 0.31667 0.15444 0.0
C351 C 0.17844 0.31548 0.17619 0.0
C352 C 0.16441 0.29359 0.18056 0.0
C353 C 0.16551 0.27342 0.1641 0.0
C354 C 0.14825 0.25227 0.17211 0.0
C355 C 0.12825 0.247 0.15181 0.0
C356 C 0.1635 0.22828 0.17867 0.0
C357 C 0.13663 0.26382 0.19539 0.0
C358 C 0.14638 0.28743 0.20044 0.0
C359 C 0.13861 0.30114 0.22163 0.0
C360 C 0.12033 0.2904 0.23783 0.0
C361 C 0.10979 0.26655 0.23229 0.0
C362 C 0.11823 0.25321 0.2109 0.0
H363 H 0.05567 0.79625 0.39968 0.0
H364 H 0.97993 0.79024 0.43024 0.0
H365 H 0.96595 0.82562 0.40314 0.0
H366 H 0.05953 0.85887 0.40061 0.0
H367 H 0.07634 0.86397 0.37137 0.0
H368 H 0.07945 0.8343 0.38775 0.0
H369 H 0.06481 0.81007 0.34811 0.0
H370 H 0.06235 0.83967 0.33124 0.0
H371 H 0.03554 0.81885 0.33304 0.0
H372 H 0.96285 0.86669 0.38165 0.0
H373 H 0.96889 0.90823 0.36122 0.0
H374 H 0.0461 0.88771 0.34228 0.0
C375 C 0.03587 0.80151 0.39938 0.0
C376 C 0.01858 0.79026 0.41627 0.0
C377 C 0.9931 0.79831 0.41673 0.0
C378 C 0.98508 0.81844 0.40154 0.0
C379 C 1.00281 0.83013 0.38593 0.0
C380 C 0.02754 0.82162 0.38416 0.0
C381 C 0.04334 0.83934 0.36803 0.0
C382 C 0.06599 0.84973 0.38284 0.0
C383 C 0.05202 0.8262 0.34365 0.0
C384 C 0.02406 0.85989 0.36249 0.0
C385 C 1.00078 0.85404 0.37286 0.0
C386 C 0.98074 0.8712 0.37279 0.0
C387 C 0.98445 0.89484 0.3615 0.0
C388 C 0.00792 0.901 0.35029 0.0
C389 C 0.02789 0.88322 0.35053 0.0
H390 H 0.33777 0.71318 0.63547 0.0
H391 H 0.28715 0.66724 0.68057 0.0
H392 H 0.31387 0.67478 0.71833 0.0
H393 H 0.39727 0.69345 0.66879 0.0
H394 H 0.41007 0.72462 0.66391 0.0
H395 H 0.38832 0.7116 0.64147 0.0
H396 H 0.35996 0.75207 0.64728 0.0
H397 H 0.38161 0.76386 0.67037 0.0
H398 H 0.34877 0.75975 0.6785 0.0
H399 H 0.3447 0.69242 0.7523 0.0
H400 H 0.37634 0.7162 0.77725 0.0
H401 H 0.40589 0.74872 0.70789 0.0
C402 C 0.33259 0.70423 0.65317 0.0
C403 C 0.3105 0.68965 0.6552 0.0
C404 C 0.30423 0.67828 0.67865 0.0
C405 C 0.31925 0.68255 0.70016 0.0
C406 C 0.34068 0.69773 0.69762 0.0
C407 C 0.34749 0.70792 0.67447 0.0
C408 C 0.37055 0.72438 0.67644 0.0
C409 C 0.3929 0.71284 0.6618 0.0
C410 C 0.36487 0.75161 0.66764 0.0
C411 C 0.37506 0.72305 0.70447 0.0
C412 C 0.35803 0.70738 0.71657 0.0
C413 C 0.3583 0.70443 0.74284 0.0
C414 C 0.37631 0.71799 0.75687 0.0
C415 C 0.39357 0.73438 0.74455 0.0
C416 C 0.39299 0.73643 0.718 0.0
H417 H 0.50736 0.19308 0.89412 0.0
H418 H 0.45414 0.23776 0.85044 0.0
H419 H 0.4572 0.20683 0.81569 0.0
H420 H 0.54585 0.16974 0.83797 0.0
H421 H 0.55061 0.13949 0.85306 0.0
H422 H 0.54803 0.1677 0.87188 0.0
H423 H 0.51164 0.14704 0.89746 0.0
H424 H 0.51366 0.1191 0.87843 0.0
H425 H 0.48407 0.13594 0.88108 0.0
H426 H 0.45979 0.16729 0.78982 0.0
H427 H 0.46492 0.12431 0.77272 0.0
H428 H 0.51717 0.10586 0.83313 0.0
C429 C 0.49701 0.19678 0.87688 0.0
C430 C 0.48053 0.21774 0.87489 0.0
C431 C 0.4671 0.22194 0.85219 0.0
C432 C 0.46867 0.20443 0.83241 0.0
C433 C 0.48417 0.18324 0.83551 0.0
C434 C 0.4986 0.17969 0.85695 0.0
C435 C 0.5121 0.15442 0.85663 0.0
C436 C 0.54086 0.15806 0.85477 0.0
C437 C 0.50492 0.13819 0.87977 0.0
C438 C 0.5017 0.14353 0.83252 0.0
C439 C 0.48594 0.16058 0.82038 0.0
C440 C 0.47252 0.15401 0.79886 0.0
C441 C 0.47541 0.12946 0.78942 0.0
C442 C 0.49149 0.11171 0.80159 0.0
C443 C 0.50493 0.11903 0.82328 0.0
H444 H 0.23083 0.1468 0.24883 0.0
H445 H 0.20428 0.07669 0.28171 0.0
H446 H 0.17215 0.10021 0.30639 0.0
H447 H 0.21695 0.18859 0.30504 0.0
H448 H 0.20654 0.21426 0.28508 0.0
H449 H 0.23075 0.19279 0.27414 0.0
H450 H 0.20417 0.18314 0.23438 0.0
H451 H 0.18002 0.20456 0.24513 0.0
H452 H 0.17213 0.17225 0.23815 0.0
H453 H 0.13992 0.13013 0.32318 0.0
H454 H 0.10756 0.16376 0.328 0.0
H455 H 0.15312 0.21426 0.28243 0.0
C456 C 0.21873 0.13667 0.26191 0.0
C457 C 0.22014 0.11014 0.26395 0.0
C458 C 0.20354 0.09712 0.28036 0.0
C459 C 0.18539 0.11033 0.29449 0.0
C460 C 0.18402 0.13652 0.2918 0.0
C461 C 0.20017 0.14959 0.27583 0.0
C462 C 0.19252 0.17718 0.27379 0.0
C463 C 0.2129 0.19421 0.28519 0.0
C464 C 0.18686 0.1847 0.24624 0.0
C465 C 0.1688 0.17723 0.28995 0.0
C466 C 0.16473 0.15379 0.30086 0.0
C467 C 0.14317 0.14871 0.31523 0.0
C468 C 0.12496 0.16787 0.31798 0.0
C469 C 0.12837 0.19157 0.30613 0.0
C470 C 0.15065 0.19645 0.2923 0.0
H471 H 0.1042 0.82552 0.51687 0.0
H472 H 0.11553 0.77405 0.45425 0.0
H473 H 0.15918 0.78936 0.44911 0.0
H474 H 0.13409 0.87631 0.4911 0.0
H475 H 0.14837 0.8872 0.51988 0.0
H476 H 0.1199 0.86898 0.52126 0.0
H477 H 0.14211 0.83674 0.55098 0.0
H478 H 0.17091 0.85475 0.54928 0.0
H479 H 0.17111 0.82176 0.54099 0.0
H480 H 0.19937 0.81428 0.44694 0.0
H481 H 0.23038 0.84911 0.44567 0.0
H482 H 0.1931 0.88382 0.50981 0.0
C483 C 0.11599 0.81719 0.50233 0.0
C484 C 0.10639 0.79867 0.48593 0.0
C485 C 0.12242 0.78831 0.46706 0.0
C486 C 0.14736 0.79671 0.46413 0.0
C487 C 0.15618 0.81521 0.48045 0.0
C488 C 0.14096 0.82526 0.49924 0.0
C489 C 0.15397 0.84676 0.51257 0.0
C490 C 0.13815 0.87124 0.51108 0.0
C491 C 0.15987 0.83957 0.54009 0.0
C492 C 0.17798 0.84855 0.49703 0.0
C493 C 0.17939 0.82962 0.47918 0.0
C494 C 0.19875 0.82888 0.46117 0.0
C495 C 0.21638 0.84865 0.46065 0.0
C496 C 0.2141 0.86902 0.4777 0.0
C497 C 0.19537 0.86829 0.49674 0.0
H498 H 0.2921 0.88315 0.79377 0.0
H499 H 0.24516 0.81704 0.78687 0.0
H500 H 0.27604 0.79225 0.81201 0.0
H501 H 0.34424 0.85697 0.77873 0.0
H502 H 0.36542 0.87316 0.79969 0.0
H503 H 0.33617 0.88776 0.79094 0.0
H504 H 0.32334 0.89213 0.83798 0.0
H505 H 0.35301 0.87783 0.84703 0.0
H506 H 0.32367 0.8647 0.85828 0.0
H507 H 0.31618 0.77276 0.82723 0.0
H508 H 0.3612 0.76016 0.8287 0.0
H509 H 0.3833 0.83843 0.82204 0.0
C510 C 0.28776 0.86382 0.79895 0.0
C511 C 0.26625 0.85198 0.78908 0.0
C512 C 0.26125 0.82649 0.79506 0.0
C513 C 0.27876 0.81233 0.80928 0.0
C514 C 0.30087 0.82416 0.81739 0.0
C515 C 0.30518 0.84955 0.81272 0.0
C516 C 0.33218 0.85676 0.81849 0.0
C517 C 0.34524 0.86935 0.79559 0.0
C518 C 0.3331 0.87387 0.84184 0.0
C519 C 0.34323 0.83102 0.82428 0.0
C520 C 0.32465 0.81265 0.825 0.0
C521 C 0.33071 0.78707 0.82747 0.0
C522 C 0.3563 0.78006 0.82829 0.0
C523 C 0.37539 0.79851 0.82587 0.0
C524 C 0.36883 0.82423 0.82454 0.0
H525 H 0.35491 0.08021 0.9654 0.0
H526 H 0.28506 0.12196 0.95348 0.0
H527 H 0.30941 0.16149 0.94897 0.0
H528 H 0.38719 0.12765 1.00133 0.0
H529 H 0.41738 0.12072 0.98699 0.0
H530 H 0.39409 0.09623 0.99015 0.0
H531 H 0.39686 0.08809 0.94193 0.0
H532 H 0.41988 0.11283 0.93857 0.0
H533 H 0.39129 0.11384 0.92021 0.0
H534 H 0.34207 0.19615 0.9435 0.0
H535 H 0.38008 0.22338 0.94144 0.0
H536 H 0.42744 0.15819 0.95759 0.0
C537 C 0.34462 0.09767 0.96223 0.0
C538 C 0.31809 0.09802 0.95989 0.0
C539 C 0.30541 0.12128 0.95547 0.0
C540 C 0.31906 0.1438 0.95275 0.0
C541 C 0.3453 0.14262 0.95452 0.0
C542 C 0.35788 0.12017 0.95941 0.0
C543 C 0.38613 0.12375 0.96012 0.0
C544 C 0.39681 0.11668 0.9862 0.0
C545 C 0.3993 0.10874 0.93895 0.0
C546 C 0.38752 0.15181 0.95525 0.0
C547 C 0.36386 0.16241 0.95171 0.0
C548 C 0.36068 0.18807 0.94635 0.0
C549 C 0.38228 0.20332 0.94507 0.0
C550 C 0.40649 0.19277 0.94951 0.0
C551 C 0.40906 0.16671 0.9544 0.0
H552 H 0.08212 0.99061 0.34575 0.0
H553 H 0.10577 0.93387 0.29165 0.0
H554 H 0.14424 0.92557 0.31669 0.0
H555 H 0.14831 0.01274 0.36143 0.0
H556 H 0.1394 0.01781 0.3939 0.0
H557 H 0.11649 0.02235 0.36917 0.0
H558 H 0.08665 0.99079 0.39194 0.0
H559 H 0.10963 0.98561 0.41632 0.0
H560 H 0.09774 0.9592 0.39868 0.0
H561 H 0.17629 0.91884 0.35117 0.0
H562 H 0.20159 0.91715 0.3903 0.0
H563 H 0.15649 0.97838 0.42143 0.0
C564 C 0.09585 0.97708 0.33873 0.0
C565 C 0.0911 0.96296 0.31679 0.0
C566 C 0.10928 0.94517 0.30825 0.0
C567 C 0.13111 0.94024 0.32241 0.0
C568 C 0.13463 0.95366 0.34468 0.0
C569 C 0.1178 0.97217 0.35244 0.0
C570 C 0.12491 0.9827 0.37789 0.0
C571 C 0.13275 0.01055 0.37545 0.0
C572 C 0.10346 0.97935 0.39734 0.0
C573 C 0.14735 0.96609 0.38402 0.0
C574 C 0.15301 0.94976 0.36448 0.0
C575 C 0.17233 0.93186 0.36639 0.0
C576 C 0.18647 0.93094 0.38873 0.0
C577 C 0.18093 0.9476 0.4089 0.0
C578 C 0.16111 0.96533 0.40639 0.0
H579 H 0.23367 0.73209 0.66628 0.0
H580 H 0.19602 0.76201 0.6003 0.0
H581 H 0.16755 0.78715 0.62746 0.0
H582 H 0.17637 0.74083 0.71424 0.0
H583 H 0.19839 0.75055 0.73811 0.0
H584 H 0.2073 0.7265 0.71569 0.0
H585 H 0.24676 0.75248 0.70306 0.0
H586 H 0.23808 0.77621 0.72536 0.0
H587 H 0.24276 0.78478 0.69266 0.0
H588 H 0.15249 0.81702 0.65857 0.0
H589 H 0.15757 0.85258 0.68796 0.0
H590 H 0.20778 0.80722 0.73385 0.0
C591 C 0.21848 0.74304 0.6579 0.0
C592 C 0.2165 0.74512 0.63156 0.0
C593 C 0.19741 0.76021 0.62063 0.0
C594 C 0.18101 0.77423 0.63596 0.0
C595 C 0.18428 0.77316 0.66209 0.0
C596 C 0.20265 0.75786 0.67303 0.0
C597 C 0.20709 0.76495 0.70029 0.0
C598 C 0.19665 0.74449 0.71813 0.0
C599 C 0.23532 0.76994 0.70559 0.0
C600 C 0.1912 0.78876 0.70178 0.0
C601 C 0.17662 0.79202 0.68031 0.0
C602 C 0.16318 0.81436 0.67575 0.0
C603 C 0.16614 0.83449 0.6925 0.0
C604 C 0.18293 0.83219 0.71296 0.0
C605 C 0.19446 0.80882 0.71845 0.0
H606 H 0.37109 1.00151 0.90248 0.0
H607 H 0.30501 0.03917 0.87149 0.0
H608 H 0.32684 0.04333 0.83034 0.0
H609 H 0.41567 0.04027 0.87358 0.0
H610 H 0.43851 0.01551 0.86796 0.0
H611 H 0.41657 0.01279 0.89383 0.0
H612 H 0.40136 0.96971 0.87652 0.0
H613 H 0.42327 0.97237 0.8505 0.0
H614 H 0.39012 0.96777 0.84451 0.0
H615 H 0.35721 0.04595 0.79327 0.0
H616 H 0.39432 0.04916 0.76476 0.0
H617 H 0.44031 0.01068 0.82078 0.0
C618 C 0.36101 0.01023 0.88693 0.0
C619 C 0.33631 0.01991 0.89018 0.0
C620 C 0.32396 0.03159 0.86944 0.0
C621 C 0.33614 0.03392 0.84595 0.0
C622 C 0.36065 0.02445 0.84349 0.0
C623 C 0.37294 0.01286 0.86347 0.0
C624 C 0.3999 0.00607 0.85661 0.0
C625 C 0.41876 0.01947 0.87402 0.0
C626 C 0.40389 0.97727 0.85706 0.0
C627 C 0.40113 0.01636 0.82995 0.0
C628 C 0.37821 0.02644 0.82246 0.0
C629 C 0.37518 0.03789 0.79886 0.0
C630 C 0.39631 0.03956 0.78276 0.0
C631 C 0.42014 0.03018 0.79059 0.0
C632 C 0.42232 0.01801 0.81427 0.0
H633 H 0.28731 0.11697 0.15616 0.0
H634 H 0.31596 0.15814 0.22031 0.0
H635 H 0.31596 0.19761 0.19478 0.0
H636 H 0.32224 0.15534 0.10634 0.0
H637 H 0.29604 0.15269 0.0849 0.0
H638 H 0.3029 0.12739 0.10681 0.0
H639 H 0.25709 0.12996 0.124 0.0
H640 H 0.25007 0.15525 0.10243 0.0
H641 H 0.24517 0.15965 0.13583 0.0
H642 H 0.3051 0.23338 0.16446 0.0
H643 H 0.28598 0.26147 0.13223 0.0
H644 H 0.26644 0.19594 0.08763 0.0
C645 C 0.29432 0.13419 0.16453 0.0
C646 C 0.30169 0.1347 0.19004 0.0
C647 C 0.31056 0.15745 0.20062 0.0
C648 C 0.3106 0.17989 0.18627 0.0
C649 C 0.30239 0.17893 0.16125 0.0
C650 C 0.29495 0.15647 0.15036 0.0
C651 C 0.28497 0.16056 0.12396 0.0
C652 C 0.30259 0.14827 0.10435 0.0
C653 C 0.25771 0.1508 0.12145 0.0
C654 C 0.28611 0.18904 0.12232 0.0
C655 C 0.29671 0.19937 0.14372 0.0
C656 C 0.29739 0.22547 0.14736 0.0
C657 C 0.28647 0.24129 0.12894 0.0
C658 C 0.27481 0.2309 0.10735 0.0
C659 C 0.27543 0.2045 0.10378 0.0
H660 H 0.79831 0.38814 0.83786 0.0
H661 H 0.80706 0.3587 0.76224 0.0
H662 H 0.80802 0.31498 0.77937 0.0
H663 H 0.83942 0.33809 0.86913 0.0
H664 H 0.81961 0.33792 0.8969 0.0
H665 H 0.82366 0.3667 0.87896 0.0
H666 H 0.77509 0.37095 0.87383 0.0
H667 H 0.77095 0.34264 0.89207 0.0
H668 H 0.7576 0.34492 0.86087 0.0
H669 H 0.80029 0.2751 0.80408 0.0
H670 H 0.78294 0.24326 0.83379 0.0
H671 H 0.78312 0.29882 0.89349 0.0
C672 C 0.80087 0.37242 0.82509 0.0
C673 C 0.80245 0.37637 0.79892 0.0
C674 C 0.80584 0.35568 0.78246 0.0
C675 C 0.80664 0.33093 0.79202 0.0
C676 C 0.80487 0.32748 0.81809 0.0
C677 C 0.80242 0.34774 0.8344 0.0
C678 C 0.79873 0.33908 0.86133 0.0
C679 C 0.82173 0.34585 0.87753 0.0
C680 C 0.77413 0.35002 0.87266 0.0
C681 C 0.79721 0.31087 0.85738 0.0
C682 C 0.80153 0.30436 0.83245 0.0
C683 C 0.7977 0.27978 0.8238 0.0
C684 C 0.78803 0.26175 0.84078 0.0
C685 C 0.78209 0.26873 0.86583 0.0
C686 C 0.78804 0.29308 0.87447 0.0
H687 H 0.86868 0.50044 0.20775 0.0
H688 H 0.92792 0.46719 0.16122 0.0
H689 H 0.9034 0.47613 0.12325 0.0
H690 H 0.81616 0.47639 0.17098 0.0
H691 H 0.7971 0.50455 0.17418 0.0
H692 H 0.81945 0.49617 0.19839 0.0
H693 H 0.84004 0.54024 0.19359 0.0
H694 H 0.81808 0.54849 0.1689 0.0
H695 H 0.85162 0.55026 0.16311 0.0
H696 H 0.87536 0.49022 0.09027 0.0
H697 H 0.83929 0.501 0.06303 0.0
H698 H 0.79514 0.52212 0.12889 0.0
C699 C 0.87626 0.49495 0.18955 0.0
C700 C 0.90049 0.48369 0.18739 0.0
C701 C 0.90975 0.47651 0.1633 0.0
C702 C 0.89599 0.4815 0.14154 0.0
C703 C 0.87284 0.49358 0.14404 0.0
C704 C 0.86256 0.49973 0.16727 0.0
C705 C 0.83657 0.51171 0.16397 0.0
C706 C 0.81611 0.49627 0.17769 0.0
C707 C 0.83658 0.53931 0.17293 0.0
C708 C 0.83383 0.51035 0.13542 0.0
C709 C 0.85549 0.50065 0.12446 0.0
C710 C 0.85822 0.49787 0.09849 0.0
C711 C 0.83781 0.50431 0.08317 0.0
C712 C 0.81488 0.51277 0.09395 0.0
C713 C 0.8128 0.51613 0.12035 0.0
H714 H 0.74514 0.78263 0.35208 0.0
H715 H 0.6837 0.78695 0.40579 0.0
H716 H 0.6591 0.757 0.38024 0.0
H717 H 0.70466 0.76649 0.29204 0.0
H718 H 0.73012 0.74598 0.28212 0.0
H719 H 0.73679 0.77462 0.29912 0.0
H720 H 0.7619 0.74637 0.33073 0.0
H721 H 0.75313 0.71794 0.31504 0.0
H722 H 0.74584 0.7219 0.34811 0.0
H723 H 0.64557 0.71904 0.35421 0.0
H724 H 0.64467 0.67871 0.33037 0.0
H725 H 0.71688 0.69703 0.29638 0.0
C726 C 0.72568 0.77889 0.35724 0.0
C727 C 0.71585 0.78811 0.38027 0.0
C728 C 0.69106 0.78118 0.38758 0.0
C729 C 0.6771 0.7638 0.3733 0.0
C730 C 0.6882 0.75342 0.35171 0.0
C731 C 0.71183 0.76113 0.34344 0.0
C732 C 0.72162 0.74406 0.32259 0.0
C733 C 0.72342 0.75864 0.29747 0.0
C734 C 0.7471 0.7318 0.32958 0.0
C735 C 0.70085 0.72462 0.32165 0.0
C736 C 0.68125 0.73067 0.33788 0.0
C737 C 0.66066 0.71447 0.34111 0.0
C738 C 0.66029 0.69157 0.32758 0.0
C739 C 0.68076 0.68477 0.31167 0.0
C740 C 0.701 0.70176 0.30848 0.0
H741 H 0.75034 0.68642 0.2538 0.0
H742 H 0.74351 0.62656 0.19936 0.0
H743 H 0.78731 0.63356 0.18538 0.0
H744 H 0.80536 0.72373 0.21752 0.0
H745 H 0.81891 0.73067 0.24776 0.0
H746 H 0.78509 0.73014 0.24419 0.0
H747 H 0.7828 0.69858 0.28108 0.0
H748 H 0.81644 0.69691 0.28406 0.0
H749 H 0.79876 0.66845 0.27866 0.0
H750 H 0.83459 0.63755 0.1873 0.0
H751 H 0.8792 0.64427 0.19897 0.0
H752 H 0.85528 0.69489 0.25831 0.0
C753 C 0.75749 0.6765 0.23738 0.0
C754 C 0.74395 0.65598 0.22767 0.0
C755 C 0.75368 0.6426 0.20675 0.0
C756 C 0.77879 0.64619 0.19903 0.0
C757 C 0.79335 0.66361 0.21217 0.0
C758 C 0.78278 0.67932 0.23031 0.0
C759 C 0.803 0.69274 0.24519 0.0
C760 C 0.80311 0.72099 0.23824 0.0
C761 C 0.80004 0.68889 0.27392 0.0
C762 C 0.82631 0.6795 0.23511 0.0
C763 C 0.82058 0.66384 0.21522 0.0
C764 C 0.83924 0.64979 0.2029 0.0
C765 C 0.86451 0.65292 0.2103 0.0
C766 C 0.87076 0.66872 0.23085 0.0
C767 C 0.85116 0.68167 0.24355 0.0
H768 H 0.68341 0.30711 0.69637 0.0
H769 H 0.62715 0.35512 0.66113 0.0
H770 H 0.65442 0.39235 0.66787 0.0
H771 H 0.69918 0.34485 0.74374 0.0
H772 H 0.73275 0.33888 0.74402 0.0
H773 H 0.71172 0.31551 0.73169 0.0
H774 H 0.73601 0.3155 0.68918 0.0
H775 H 0.75751 0.33866 0.70152 0.0
H776 H 0.7409 0.34485 0.67248 0.0
H777 H 0.6827 0.42461 0.68732 0.0
H778 H 0.7122 0.44912 0.71366 0.0
H779 H 0.75237 0.38029 0.73317 0.0
C780 C 0.67755 0.32531 0.68892 0.0
C781 C 0.6536 0.32833 0.67764 0.0
C782 C 0.64583 0.35244 0.66903 0.0
C783 C 0.66115 0.37366 0.67294 0.0
C784 C 0.68438 0.37025 0.68494 0.0
C785 C 0.69291 0.34653 0.69215 0.0
C786 C 0.71752 0.34819 0.70662 0.0
C787 C 0.71512 0.33616 0.73307 0.0
C788 C 0.73928 0.33608 0.69154 0.0
C789 C 0.72058 0.37661 0.70804 0.0
C790 C 0.70139 0.389 0.6952 0.0
C791 C 0.6983 0.41517 0.69663 0.0
C792 C 0.71505 0.42893 0.71168 0.0
C793 C 0.73483 0.41658 0.72481 0.0
C794 C 0.73794 0.3902 0.7225 0.0
H795 H 0.50267 0.68073 0.60711 0.0
H796 H 0.54543 0.7373 0.64739 0.0
H797 H 0.55309 0.70664 0.68188 0.0
H798 H 0.47653 0.64671 0.66478 0.0
H799 H 0.47977 0.6167 0.6491 0.0
H800 H 0.47271 0.64482 0.63103 0.0
H801 H 0.51173 0.6357 0.60268 0.0
H802 H 0.51945 0.60811 0.62103 0.0
H803 H 0.5425 0.63277 0.61694 0.0
H804 H 0.56308 0.66765 0.70734 0.0
H805 H 0.57066 0.62474 0.72422 0.0
H806 H 0.52198 0.59376 0.66644 0.0
C807 C 0.51275 0.68701 0.62367 0.0
C808 C 0.52342 0.71135 0.62463 0.0
C809 C 0.53681 0.71882 0.64643 0.0
C810 C 0.54137 0.70147 0.66604 0.0
C811 C 0.53205 0.677 0.66364 0.0
C812 C 0.51749 0.66997 0.64326 0.0
C813 C 0.51198 0.64197 0.64364 0.0
C814 C 0.48356 0.63728 0.64737 0.0
C815 C 0.52203 0.62889 0.61966 0.0
C816 C 0.5268 0.63405 0.66666 0.0
C817 C 0.53797 0.65453 0.67818 0.0
C818 C 0.554 0.65156 0.69878 0.0
C819 C 0.55839 0.62707 0.70805 0.0
C820 C 0.54694 0.60588 0.69659 0.0
C821 C 0.53094 0.60955 0.67566 0.0
H822 H 0.73327 0.23067 0.82115 0.0
H823 H 0.69973 0.15758 0.83525 0.0
H824 H 0.68376 0.15688 0.79137 0.0
H825 H 0.68701 0.25759 0.79376 0.0
H826 H 0.70379 0.27544 0.76997 0.0
H827 H 0.71972 0.26594 0.79812 0.0
H828 H 0.75413 0.24356 0.77133 0.0
H829 H 0.73797 0.253 0.74285 0.0
H830 H 0.74523 0.22013 0.74848 0.0
H831 H 0.66081 0.17008 0.75335 0.0
H832 H 0.63277 0.19601 0.72645 0.0
H833 H 0.68233 0.25986 0.73509 0.0
C834 C 0.72333 0.21415 0.81454 0.0
C835 C 0.71736 0.19432 0.83126 0.0
C836 C 0.70443 0.17289 0.82245 0.0
C837 C 0.69554 0.1723 0.79753 0.0
C838 C 0.70052 0.19292 0.78168 0.0
C839 C 0.7147 0.21325 0.78975 0.0
C840 C 0.71372 0.23499 0.77117 0.0
C841 C 0.70552 0.2599 0.78403 0.0
C842 C 0.73928 0.23808 0.75765 0.0
C843 C 0.69394 0.22521 0.75324 0.0
C844 C 0.68751 0.20039 0.75878 0.0
C845 C 0.66637 0.18904 0.74805 0.0
C846 C 0.65055 0.20382 0.73273 0.0
C847 C 0.65607 0.22952 0.72848 0.0
C848 C 0.67862 0.23987 0.7375 0.0
H849 H 0.99806 0.41193 0.16546 0.0
H850 H 0.93522 0.39267 0.21479 0.0
H851 H 0.92862 0.35346 0.19095 0.0
H852 H 0.97044 0.39508 0.11064 0.0
H853 H 0.99826 0.38209 0.09569 0.0
H854 H 1.00141 0.40589 0.1195 0.0
H855 H 0.03068 0.37616 0.14547 0.0
H856 H 0.02774 0.35221 0.12157 0.0
H857 H 0.01991 0.34498 0.15395 0.0
H858 H 0.92527 0.31958 0.15879 0.0
H859 H 0.92454 0.29439 0.11967 0.0
H860 H 0.98856 0.3366 0.09069 0.0
C861 C 0.98335 0.39914 0.17165 0.0
C862 C 0.9672 0.40531 0.19192 0.0
C863 C 0.94785 0.38832 0.19924 0.0
C864 C 0.94405 0.36589 0.18596 0.0
C865 C 0.95988 0.3607 0.16558 0.0
C866 C 0.97923 0.37677 0.15853 0.0
C867 C 0.99173 0.36832 0.13429 0.0
C868 C 0.99035 0.38908 0.11383 0.0
C869 C 0.01914 0.35992 0.13911 0.0
C870 C 0.9753 0.34603 0.12792 0.0
C871 C 0.95757 0.34142 0.1466 0.0
C872 C 0.93936 0.32268 0.14424 0.0
C873 C 0.93907 0.30852 0.12199 0.0
C874 C 0.95652 0.31367 0.10232 0.0
C875 C 0.97507 0.33233 0.10554 0.0
H876 H 0.79292 0.77854 0.3551 0.0
H877 H 0.81931 0.70912 0.39061 0.0
H878 H 0.84475 0.69977 0.35261 0.0
H879 H 0.78939 0.75053 0.28972 0.0
H880 H 0.79941 0.77917 0.27415 0.0
H881 H 0.78128 0.78089 0.30297 0.0
H882 H 0.81519 0.80768 0.32424 0.0
H883 H 0.83372 0.80707 0.29565 0.0
H884 H 0.84743 0.79648 0.32498 0.0
H885 H 0.87475 0.70504 0.31944 0.0
H886 H 0.90028 0.71399 0.28361 0.0
H887 H 0.84906 0.77455 0.26011 0.0
C888 C 0.80369 0.76109 0.3546 0.0
C889 C 0.80442 0.74449 0.37579 0.0
C890 C 0.81849 0.72188 0.37457 0.0
C891 C 0.83292 0.71651 0.35311 0.0
C892 C 0.83224 0.73354 0.33289 0.0
C893 C 0.81733 0.75486 0.33283 0.0
C894 C 0.82069 0.76988 0.30832 0.0
C895 C 0.79622 0.7701 0.29285 0.0
C896 C 0.8298 0.79688 0.31363 0.0
C897 C 0.84113 0.75439 0.29534 0.0
C898 C 0.84754 0.73397 0.31057 0.0
C899 C 0.86881 0.71967 0.30636 0.0
C900 C 0.8833 0.72529 0.28544 0.0
C901 C 0.8758 0.74381 0.26706 0.0
C902 C 0.85456 0.75923 0.27257 0.0
H903 H 0.64505 0.56683 0.70765 0.0
H904 H 0.62036 0.48899 0.70692 0.0
H905 H 0.6509 0.47952 0.67283 0.0
H906 H 0.64684 0.57428 0.64438 0.0
H907 H 0.67433 0.59418 0.64243 0.0
H908 H 0.65555 0.59373 0.67078 0.0
H909 H 0.69484 0.58207 0.69693 0.0
H910 H 0.71425 0.58213 0.66888 0.0
H911 H 0.71314 0.55446 0.68895 0.0
H912 H 0.67636 0.48057 0.6339 0.0
H913 H 0.69826 0.49105 0.59409 0.0
H914 H 0.70734 0.56839 0.61923 0.0
C915 C 0.64716 0.54757 0.70113 0.0
C916 C 0.6311 0.52839 0.71021 0.0
C917 C 0.63311 0.50366 0.70048 0.0
C918 C 0.65032 0.49817 0.68111 0.0
C919 C 0.66516 0.51773 0.67162 0.0
C920 C 0.66402 0.5419 0.68145 0.0
C921 C 0.67954 0.56014 0.66566 0.0
C922 C 0.66307 0.58184 0.6552 0.0
C923 C 0.7018 0.57031 0.681 0.0
C924 C 0.68849 0.54273 0.64478 0.0
C925 C 0.68017 0.5183 0.64878 0.0
C926 C 0.68354 0.49944 0.63082 0.0
C927 C 0.69574 0.50565 0.60815 0.0
C928 C 0.7045 0.5305 0.60364 0.0
C929 C 0.70115 0.54915 0.62238 0.0
H930 H 0.87924 0.33134 0.04646 0.0
H931 H 0.91686 0.36613 0.98216 0.0
H932 H 0.88329 0.39842 0.97997 0.0
H933 H 0.81358 0.34457 0.02549 0.0
H934 H 0.80261 0.35124 0.05705 0.0
H935 H 0.82812 0.32905 0.05214 0.0
H936 H 0.85644 0.35482 0.08225 0.0
H937 H 0.83109 0.37708 0.08719 0.0
H938 H 0.86139 0.38797 0.07607 0.0
H939 H 0.8481 0.42854 0.98624 0.0
H940 H 0.81347 0.45581 1.00129 0.0
H941 H 0.79778 0.40261 0.06199 0.0
C942 C 0.88013 0.34548 0.03163 0.0
C943 C 0.90066 0.34611 0.01438 0.0
C944 C 0.90136 0.3652 0.99555 0.0
C945 C 0.88231 0.38359 0.99408 0.0
C946 C 0.86259 0.38271 0.01155 0.0
C947 C 0.86126 0.36418 0.02998 0.0
C948 C 0.83881 0.36872 0.04741 0.0
C949 C 0.81965 0.34711 0.0454 0.0
C950 C 0.84746 0.37237 0.07485 0.0
C951 C 0.82825 0.39308 0.03632 0.0
C952 C 0.84215 0.40053 0.01543 0.0
C953 C 0.83696 0.42286 1.00247 0.0
C954 C 0.8173 0.43828 0.01127 0.0
C955 C 0.80295 0.43139 0.03287 0.0
C956 C 0.80826 0.40824 0.0453 0.0
H957 H 0.67662 0.59754 0.52463 0.0
H958 H 0.73056 0.64754 0.5602 0.0
H959 H 0.69702 0.67954 0.56585 0.0
H960 H 0.64101 0.64733 0.49156 0.0
H961 H 0.61126 0.63153 0.49629 0.0
H962 H 0.64001 0.61332 0.49365 0.0
H963 H 0.63013 0.59197 0.53678 0.0
H964 H 0.60162 0.61046 0.53978 0.0
H965 H 0.62516 0.6114 0.56424 0.0
H966 H 0.65709 0.70405 0.57153 0.0
H967 H 0.61431 0.72251 0.57141 0.0
H968 H 0.58652 0.65715 0.53094 0.0
C969 C 0.68149 0.61538 0.53323 0.0
C970 C 0.70616 0.62003 0.54203 0.0
C971 C 0.71178 0.64359 0.55323 0.0
C972 C 0.69285 0.66185 0.55664 0.0
C973 C 0.66855 0.6563 0.5485 0.0
C974 C 0.6629 0.63388 0.53659 0.0
C975 C 0.63518 0.63253 0.5299 0.0
C976 C 0.63167 0.6311 0.50114 0.0
C977 C 0.62227 0.61027 0.54349 0.0
C978 C 0.62608 0.65758 0.54018 0.0
C979 C 0.6456 0.67086 0.55105 0.0
C980 C 0.64169 0.69399 0.56281 0.0
C981 C 0.61727 0.70423 0.56276 0.0
C982 C 0.59709 0.69128 0.55106 0.0
C983 C 0.60159 0.66756 0.53983 0.0
H984 H 0.03237 0.04123 0.271 0.0
H985 H 0.97257 0.04127 0.32744 0.0
H986 H 0.97423 0.08762 0.32938 0.0
H987 H 0.06783 0.09147 0.29794 0.0
H988 H 0.07699 0.10538 0.26818 0.0
H989 H 0.07068 0.07202 0.27022 0.0
H990 H 0.03738 0.07625 0.23472 0.0
H991 H 0.04375 0.1096 0.23243 0.0
H992 H 0.01194 0.09882 0.23801 0.0
H993 H 0.98494 0.13387 0.32848 0.0
H994 H 1.00092 0.17728 0.3206 0.0
H995 H 0.0513 0.14816 0.26285 0.0
C996 C 0.01927 0.05102 0.28336 0.0
C997 C 1.00228 0.03742 0.29899 0.0
C998 C 0.98577 0.05108 0.31521 0.0
C999 C 0.98658 0.0775 0.31655 0.0
C1000 C 0.00389 0.09028 0.30141 0.0
C1001 C 0.01971 0.07759 0.28485 0.0
C1002 C 0.03677 0.09603 0.27094 0.0
C1003 C 0.06472 0.09091 0.2772 0.0
C1004 C 0.03217 0.09512 0.24233 0.0
C1005 C 0.02784 0.12093 0.28212 0.0
C1006 C 0.00918 0.11716 0.30002 0.0
C1007 C 0.99921 0.13714 0.31415 0.0
C1008 C 0.00837 0.16168 0.30965 0.0
C1009 C 0.0268 0.166 0.29078 0.0
C1010 C 0.03664 0.14535 0.27692 0.0
H1011 H 0.20237 0.72137 0.54813 0.0
H1012 H 0.19982 0.63998 0.55792 0.0
H1013 H 0.15514 0.64035 0.54342 0.0
H1014 H 0.1428 0.73357 0.5736 0.0
H1015 H 0.13585 0.75955 0.55254 0.0
H1016 H 0.16809 0.75224 0.56047 0.0
H1017 H 0.17968 0.74775 0.51311 0.0
H1018 H 0.14762 0.75584 0.50518 0.0
H1019 H 0.16146 0.72695 0.4935 0.0
H1020 H 0.10938 0.6511 0.52682 0.0
H1021 H 0.06886 0.67085 0.51278 0.0
H1022 H 0.10252 0.74487 0.52016 0.0
C1023 C 0.1928 0.7034 0.54676 0.0
C1024 C 0.20493 0.68054 0.55378 0.0
C1025 C 0.19116 0.65769 0.55225 0.0
C1026 C 0.16571 0.65778 0.54415 0.0
C1027 C 0.15423 0.6809 0.53804 0.0
C1028 C 0.16753 0.70325 0.53943 0.0
C1029 C 0.15103 0.72593 0.53368 0.0
C1030 C 0.14934 0.74385 0.55644 0.0
C1031 C 0.16052 0.73991 0.50995 0.0
C1032 C 0.12613 0.71304 0.52893 0.0
C1033 C 0.12818 0.68704 0.53096 0.0
C1034 C 0.1076 0.67145 0.52561 0.0
C1035 C 0.08462 0.68276 0.51778 0.0
C1036 C 0.08226 0.70939 0.51621 0.0
C1037 C 0.10334 0.72449 0.5221 0.0
H1038 H 0.48448 0.96038 0.74205 0.0
H1039 H 0.53209 0.97167 0.8075 0.0
H1040 H 0.52738 0.92672 0.81907 0.0
H1041 H 0.44139 0.91862 0.77056 0.0
H1042 H 0.43777 0.89867 0.74334 0.0
H1043 H 0.44606 0.93139 0.73927 0.0
H1044 H 0.4859 0.91847 0.71371 0.0
H1045 H 0.47757 0.88569 0.71743 0.0
H1046 H 0.50821 0.89647 0.7273 0.0
H1047 H 0.51333 0.8809 0.82615 0.0
H1048 H 0.49574 0.83745 0.82454 0.0
H1049 H 0.46004 0.85578 0.75318 0.0
C1050 C 0.49439 0.95332 0.7585 0.0
C1051 C 0.50876 0.96973 0.77375 0.0
C1052 C 0.52115 0.95959 0.7953 0.0
C1053 C 0.51846 0.93403 0.80217 0.0
C1054 C 0.5036 0.91855 0.78714 0.0
C1055 C 0.49221 0.92773 0.76545 0.0
C1056 C 0.47711 0.90724 0.75262 0.0
C1057 C 0.44891 0.91442 0.75139 0.0
C1058 C 0.48785 0.90163 0.7262 0.0
C1059 C 0.48153 0.88525 0.77058 0.0
C1060 C 0.49661 0.89212 0.79057 0.0
C1061 C 0.50189 0.87521 0.8103 0.0
C1062 C 0.49177 0.8506 0.80932 0.0
C1063 C 0.47693 0.84303 0.78856 0.0
C1064 C 0.47182 0.86075 0.76906 0.0
H1065 H 0.30094 0.26758 0.03049 0.0
H1066 H 0.28917 0.34837 0.02268 0.0
H1067 H 0.33122 0.35213 1.00182 0.0
H1068 H 0.36525 0.27153 0.04752 0.0
H1069 H 0.37425 0.24287 0.0315 0.0
H1070 H 0.34258 0.24658 0.0435 0.0
H1071 H 0.32431 0.23804 0.99891 0.0
H1072 H 0.35598 0.23371 0.98715 0.0
H1073 H 0.33531 0.25655 0.97242 0.0
H1074 H 0.3752 0.34572 0.98029 0.0
H1075 H 0.41647 0.33042 0.96337 0.0
H1076 H 0.39927 0.25505 0.99069 0.0
C1077 C 0.30691 0.28606 0.02397 0.0
C1078 C 0.29158 0.30764 0.02771 0.0
C1079 C 0.30053 0.33156 0.01968 0.0
C1080 C 0.32437 0.33383 0.00787 0.0
C1081 C 0.33917 0.31208 0.00479 0.0
C1082 C 0.33071 0.28871 0.01287 0.0
C1083 C 0.35043 0.26835 0.00904 0.0
C1084 C 0.35861 0.25666 0.0344 0.0
C1085 C 0.34093 0.24798 0.99078 0.0
C1086 C 0.37141 0.28376 0.99735 0.0
C1087 C 0.36464 0.30889 0.99462 0.0
C1088 C 0.38077 0.32617 0.98276 0.0
C1089 C 0.40419 0.31739 0.97331 0.0
C1090 C 0.41142 0.29175 0.97639 0.0
C1091 C 0.39478 0.27497 0.9888 0.0
H1092 H 0.25151 0.04984 0.1419 0.0
H1093 H 0.3205 0.016 0.1705 0.0
H1094 H 0.3315 1.00179 0.12712 0.0
H1095 H 0.23677 0.00466 0.09366 0.0
H1096 H 0.22653 0.02834 0.0713 0.0
H1097 H 0.22345 0.03406 0.10467 0.0
H1098 H 0.24924 0.07534 0.09987 0.0
H1099 H 0.25233 0.06981 0.06648 0.0
H1100 H 0.28014 0.07416 0.08546 0.0
H1101 H 0.33426 0.991 0.08022 0.0
H1102 H 0.33138 0.98853 0.03378 0.0
H1103 H 0.26199 0.0326 0.03585 0.0
C1104 C 0.26871 0.039 0.13912 0.0
C1105 C 0.28486 0.03335 0.15962 0.0
C1106 C 0.30771 0.02011 0.15509 0.0
C1107 C 0.31404 0.01199 0.13054 0.0
C1108 C 0.2976 0.01784 0.11073 0.0
C1109 C 0.27561 0.03143 0.11475 0.0
C1110 C 0.26214 0.03713 0.09014 0.0
C1111 C 0.23565 0.02534 0.08994 0.0
C1112 C 0.2609 0.0658 0.0852 0.0
C1113 C 0.27966 0.02413 0.07155 0.0
C1114 C 0.2999 0.01293 0.08379 0.0
C1115 C 0.31851 0.99976 0.07051 0.0
C1116 C 0.31662 0.99835 0.04409 0.0
C1117 C 0.29641 0.0103 0.03106 0.0
C1118 C 0.27763 0.02317 0.04516 0.0
H1119 H 0.30084 0.96286 0.39597 0.0
H1120 H 0.24434 0.01438 0.42658 0.0
H1121 H 0.24504 0.03877 0.38732 0.0
H1122 H 0.33579 0.01551 0.36052 0.0
H1123 H 0.34385 0.99492 0.33468 0.0
H1124 H 0.34107 0.9823 0.36626 0.0
H1125 H 0.30849 0.94985 0.35032 0.0
H1126 H 0.31075 0.96266 0.31884 0.0
H1127 H 0.28044 0.9609 0.3344 0.0
H1128 H 0.24497 0.05262 0.34333 0.0
H1129 H 0.25208 0.06255 0.29848 0.0
H1130 H 0.31282 0.0072 0.2955 0.0
C1131 C 0.28936 0.97981 0.39475 0.0
C1132 C 0.27234 0.9864 0.41451 0.0
C1133 C 0.25746 0.00866 0.4119 0.0
C1134 C 0.2576 0.02271 0.38953 0.0
C1135 C 0.2734 0.01498 0.37002 0.0
C1136 C 0.28982 0.99477 0.37257 0.0
C1137 C 0.3049 0.99108 0.34821 0.0
C1138 C 0.33308 0.99626 0.35268 0.0
C1139 C 0.30089 0.96454 0.33731 0.0
C1140 C 0.29319 0.0114 0.33136 0.0
C1141 C 0.27491 0.02471 0.34453 0.0
C1142 C 0.25973 0.04289 0.33297 0.0
C1143 C 0.26374 0.0482 0.30742 0.0
C1144 C 0.28303 0.03576 0.29362 0.0
C1145 C 0.2981 0.01713 0.30574 0.0
H1146 H 0.2563 0.8939 0.64902 0.0
H1147 H 0.21106 0.95582 0.67821 0.0
H1148 H 0.21138 0.97602 0.63588 0.0
H1149 H 0.29452 0.92865 0.6042 0.0
H1150 H 0.29314 0.90475 0.58012 0.0
H1151 H 0.29096 0.89589 0.61295 0.0
H1152 H 0.24845 0.87343 0.60468 0.0
H1153 H 0.2507 0.88189 0.57178 0.0
H1154 H 0.22307 0.8907 0.58977 0.0
H1155 H 0.21672 0.98941 0.59088 0.0
H1156 H 0.22071 0.99244 0.54466 0.0
H1157 H 0.26024 0.92036 0.54337 0.0
C1158 C 0.24666 0.91184 0.64646 0.0
C1159 C 0.23396 0.92362 0.66687 0.0
C1160 C 0.22096 0.94665 0.6628 0.0
C1161 C 0.22121 0.95828 0.6389 0.0
C1162 C 0.23412 0.94633 0.61921 0.0
C1163 C 0.24614 0.92334 0.62256 0.0
C1164 C 0.25665 0.91345 0.59772 0.0
C1165 C 0.28554 0.91052 0.59883 0.0
C1166 C 0.24396 0.88839 0.59057 0.0
C1167 C 0.24894 0.93466 0.5799 0.0
C1168 C 0.23625 0.95354 0.59284 0.0
C1169 C 0.2266 0.97477 0.58056 0.0
C1170 C 0.22908 0.97634 0.55426 0.0
C1171 C 0.24092 0.95673 0.54032 0.0
C1172 C 0.25156 0.93591 0.55348 0.0
H1173 H 0.24889 0.92064 0.80882 0.0
H1174 H 0.19167 0.97225 0.78049 0.0
H1175 H 0.19191 0.99507 0.82125 0.0
H1176 H 0.22182 0.91683 0.87153 0.0
H1177 H 0.25188 0.91401 0.88715 0.0
H1178 H 0.24824 0.90237 0.85546 0.0
H1179 H 0.2853 0.93024 0.83994 0.0
H1180 H 0.28952 0.94143 0.87164 0.0
H1181 H 0.28472 0.96372 0.84623 0.0
H1182 H 0.19769 0.01137 0.8651 0.0
H1183 H 0.21221 0.02372 0.90729 0.0
H1184 H 0.26494 0.96051 0.90775 0.0
C1185 C 0.23693 0.93718 0.81105 0.0
C1186 C 0.22069 0.94524 0.79148 0.0
C1187 C 0.20449 0.9662 0.79525 0.0
C1188 C 0.20435 0.97905 0.81835 0.0
C1189 C 0.22004 0.97018 0.83759 0.0
C1190 C 0.23611 0.9498 0.83418 0.0
C1191 C 0.25048 0.94363 0.85815 0.0
C1192 C 0.24264 0.91767 0.86868 0.0
C1193 C 0.2792 0.94486 0.85371 0.0
C1194 C 0.24112 0.96471 0.87512 0.0
C1195 C 0.22305 0.97933 0.86309 0.0
C1196 C 0.21177 1.00004 0.87475 0.0
C1197 C 0.22004 0.00677 0.89888 0.0
C1198 C 0.23976 0.9931 0.91096 0.0
C1199 C 0.24971 0.97123 0.8992 0.0
H1200 H 0.04516 0.30166 0.99647 0.0
H1201 H 0.02263 0.25733 0.06202 0.0
H1202 H 0.06711 0.25294 0.07438 0.0
H1203 H 0.10298 0.26499 0.98332 0.0
H1204 H 0.12081 0.29226 0.97344 0.0
H1205 H 0.08706 0.29165 0.96909 0.0
H1206 H 0.0828 0.33339 0.99408 0.0
H1207 H 0.11649 0.334 0.99874 0.0
H1208 H 0.09545 0.33517 0.02557 0.0
H1209 H 0.11296 0.25494 0.08138 0.0
H1210 H 0.15924 0.25964 0.08043 0.0
H1211 H 0.15415 0.30143 0.00995 0.0
C1212 C 0.04965 0.29074 0.01322 0.0
C1213 C 0.03027 0.27977 0.02821 0.0
C1214 C 0.03699 0.26575 0.05007 0.0
C1215 C 0.06226 0.26326 0.05737 0.0
C1216 C 0.08077 0.27463 0.04252 0.0
C1217 C 0.07498 0.28777 0.02069 0.0
C1218 C 0.09888 0.2978 0.00815 0.0
C1219 C 0.10265 0.28596 0.98194 0.0
C1220 C 0.09836 0.32681 0.00655 0.0
C1221 C 0.11889 0.28853 0.0266 0.0
C1222 C 0.10779 0.27531 0.0463 0.0
C1223 C 0.1219 0.26503 0.06596 0.0
C1224 C 0.14813 0.26785 0.06528 0.0
C1225 C 0.16009 0.28079 0.04513 0.0
C1226 C 0.14535 0.2915 0.02557 0.0
H1227 H 0.64894 0.24872 0.90365 0.0
H1228 H 0.67186 0.19746 0.96346 0.0
H1229 H 0.62871 0.20019 0.98207 0.0
H1230 H 0.60921 0.28894 0.93914 0.0
H1231 H 0.58544 0.29246 0.91507 0.0
H1232 H 0.61777 0.28618 0.90627 0.0
H1233 H 0.60412 0.24658 0.88129 0.0
H1234 H 0.57168 0.25311 0.88948 0.0
H1235 H 0.58538 0.22271 0.89682 0.0
H1236 H 0.58411 0.21111 0.99532 0.0
H1237 H 0.53905 0.2224 0.99848 0.0
H1238 H 0.54464 0.26481 0.92827 0.0
C1239 C 0.64471 0.23785 0.92053 0.0
C1240 C 0.66352 0.22293 0.93232 0.0
C1241 C 0.65752 0.20881 0.9542 0.0
C1242 C 0.63321 0.21048 0.96494 0.0
C1243 C 0.61525 0.226 0.95322 0.0
C1244 C 0.62053 0.23889 0.93111 0.0
C1245 C 0.59765 0.25339 0.92161 0.0
C1246 C 0.60284 0.28194 0.92047 0.0
C1247 C 0.58921 0.24334 0.89578 0.0
C1248 C 0.57867 0.24706 0.94211 0.0
C1249 C 0.58932 0.23149 0.96029 0.0
C1250 C 0.57555 0.2231 0.98109 0.0
C1251 C 0.54995 0.22981 0.98278 0.0
C1252 C 0.5382 0.24453 0.96362 0.0
C1253 C 0.55304 0.25382 0.94339 0.0
H1254 H 0.02771 0.30434 0.2644 0.0
H1255 H 0.02001 0.29566 0.34545 0.0
H1256 H 0.99986 0.33808 0.34788 0.0
H1257 H 0.04619 0.36797 0.26616 0.0
H1258 H 0.03025 0.37669 0.23737 0.0
H1259 H 0.0411 0.34473 0.24196 0.0
H1260 H 0.99571 0.32799 0.23431 0.0
H1261 H 0.98523 0.35998 0.22912 0.0
H1262 H 0.96979 0.34063 0.2526 0.0
H1263 H 0.98004 0.38311 0.34043 0.0
H1264 H 0.96671 0.42556 0.32434 0.0
H1265 H 0.99227 0.40428 0.2495 0.0
C1266 C 0.02126 0.31107 0.28261 0.0
C1267 C 0.025 0.29645 0.30467 0.0
C1268 C 0.01707 0.30641 0.32824 0.0
C1269 C 0.00559 0.3305 0.32979 0.0
C1270 C 1.00255 0.34464 0.30764 0.0
C1271 C 0.0104 0.3352 0.28454 0.0
C1272 C 0.00711 0.35455 0.26372 0.0
C1273 C 0.03268 0.36138 0.25161 0.0
C1274 C 0.98832 0.34522 0.24378 0.0
C1275 C 0.9963 0.37645 0.2786 0.0
C1276 C 0.99325 0.37049 0.30383 0.0
C1277 C 0.98267 0.38797 0.32073 0.0
C1278 C 0.97521 0.41206 0.31152 0.0
C1279 C 0.9791 0.41858 0.28585 0.0
C1280 C 0.98969 0.40031 0.26942 0.0
H1281 H 0.95511 0.75217 0.46812 0.0
H1282 H 0.9627 0.80422 0.53063 0.0
H1283 H 0.91856 0.81841 0.5244 0.0
H1284 H 0.91796 0.7931 0.4294 0.0
H1285 H 0.89859 0.76824 0.41687 0.0
H1286 H 0.93044 0.76146 0.42682 0.0
H1287 H 0.91415 0.72658 0.45719 0.0
H1288 H 0.88231 0.73292 0.44702 0.0
H1289 H 0.89003 0.73421 0.48011 0.0
H1290 H 0.87353 0.82908 0.50907 0.0
H1291 H 0.83082 0.83089 0.48963 0.0
H1292 H 0.85249 0.7707 0.43871 0.0
C1293 C 0.94739 0.76615 0.48091 0.0
C1294 C 0.96253 0.77684 0.50007 0.0
C1295 C 0.95159 0.7955 0.51596 0.0
C1296 C 0.92651 0.80385 0.51244 0.0
C1297 C 0.91238 0.7934 0.49294 0.0
C1298 C 0.92238 0.77468 0.47767 0.0
C1299 C 0.90341 0.76661 0.45792 0.0
C1300 C 0.91318 0.77272 0.43118 0.0
C1301 C 0.8971 0.7384 0.46075 0.0
C1302 C 0.88097 0.78325 0.46477 0.0
C1303 C 0.8866 0.79901 0.48466 0.0
C1304 C 0.86893 0.81664 0.49363 0.0
C1305 C 0.84477 0.81771 0.48239 0.0
C1306 C 0.83837 0.80094 0.46275 0.0
C1307 C 0.85686 0.78369 0.4538 0.0
H1308 H 0.34978 0.71054 0.58955 0.0
H1309 H 0.32162 0.71569 0.5131 0.0
H1310 H 0.36522 0.72362 0.49742 0.0
H1311 H 0.39331 0.76188 0.58344 0.0
H1312 H 0.41584 0.74726 0.60445 0.0
H1313 H 0.38266 0.74035 0.60751 0.0
H1314 H 0.39395 0.69132 0.60236 0.0
H1315 H 0.42666 0.70044 0.60005 0.0
H1316 H 0.41245 0.68203 0.5754 0.0
H1317 H 0.41241 0.73066 0.49052 0.0
H1318 H 0.45867 0.73753 0.49302 0.0
H1319 H 0.45456 0.73289 0.57461 0.0
C1320 C 0.35301 0.71261 0.56944 0.0
C1321 C 0.33268 0.71168 0.55233 0.0
C1322 C 0.3372 0.71564 0.5263 0.0
C1323 C 0.36182 0.72032 0.51732 0.0
C1324 C 0.38148 0.72162 0.53477 0.0
C1325 C 0.37729 0.71797 0.56031 0.0
C1326 C 0.40121 0.72199 0.57535 0.0
C1327 C 0.39808 0.74417 0.59379 0.0
C1328 C 0.40904 0.69752 0.58912 0.0
C1329 C 0.41961 0.72844 0.55435 0.0
C1330 C 0.40798 0.72781 0.53103 0.0
C1331 C 0.42158 0.73158 0.5087 0.0
C1332 C 0.44777 0.73561 0.51027 0.0
C1333 C 0.45991 0.73652 0.53399 0.0
C1334 C 0.44554 0.73323 0.55628 0.0
H1335 H 0.99456 0.89839 0.23053 0.0
H1336 H 0.95505 0.90925 0.30182 0.0
H1337 H 0.94567 0.86402 0.30373 0.0
H1338 H 0.94867 0.84866 0.20758 0.0
H1339 H 0.97346 0.83166 0.1914 0.0
H1340 H 0.97526 0.8655 0.19453 0.0
H1341 H 0.01927 0.86036 0.21511 0.0
H1342 H 0.01729 0.82648 0.21291 0.0
H1343 H 0.02256 0.84108 0.2431 0.0
H1344 H 0.94737 0.81693 0.30222 0.0
H1345 H 0.94812 0.77178 0.29096 0.0
H1346 H 0.98139 0.7906 0.2183 0.0
C1347 C 0.98305 0.89146 0.24601 0.0
C1348 C 0.97584 0.90762 0.26611 0.0
C1349 C 0.96091 0.89755 0.2861 0.0
C1350 C 0.95566 0.87169 0.28757 0.0
C1351 C 0.96455 0.85607 0.26842 0.0
C1352 C 0.97683 0.86564 0.24739 0.0
C1353 C 0.9837 0.84448 0.22924 0.0
C1354 C 0.96942 0.84776 0.2042 0.0
C1355 C 0.01241 0.84303 0.22484 0.0
C1356 C 0.97432 0.82156 0.24391 0.0
C1357 C 0.96377 0.82876 0.26667 0.0
C1358 C 0.95515 0.81106 0.28423 0.0
C1359 C 0.95612 0.78537 0.27787 0.0
C1360 C 0.96517 0.77756 0.25392 0.0
C1361 C 0.97471 0.79596 0.23688 0.0
H1362 H 0.52549 0.11122 0.74641 0.0
H1363 H 0.51776 0.07889 0.67188 0.0
H1364 H 0.53161 0.11973 0.6528 0.0
H1365 H 0.49924 0.17103 0.72932 0.0
H1366 H 0.51907 0.18862 0.75045 0.0
H1367 H 0.51074 0.15653 0.75794 0.0
H1368 H 0.55768 0.14387 0.76163 0.0
H1369 H 0.5665 0.17597 0.75482 0.0
H1370 H 0.579 0.1506 0.73582 0.0
H1371 H 0.54748 0.16565 0.64267 0.0
H1372 H 0.56251 0.21007 0.64278 0.0
H1373 H 0.55523 0.21127 0.72437 0.0
C1374 C 0.52728 0.11244 0.72605 0.0
C1375 C 0.52135 0.09161 0.71062 0.0
C1376 C 0.52275 0.09446 0.68404 0.0
C1377 C 0.53046 0.11763 0.67311 0.0
C1378 C 0.5359 0.13794 0.68902 0.0
C1379 C 0.53408 0.13544 0.71496 0.0
C1380 C 0.53932 0.16009 0.7282 0.0
C1381 C 0.51567 0.16964 0.74229 0.0
C1382 C 0.56198 0.15746 0.74616 0.0
C1383 C 0.54538 0.17683 0.70583 0.0
C1384 C 0.54328 0.16398 0.68328 0.0
C1385 C 0.54888 0.17584 0.66027 0.0
C1386 C 0.55727 0.20116 0.66048 0.0
C1387 C 0.55989 0.21438 0.68355 0.0
C1388 C 0.55332 0.20196 0.70633 0.0
H1389 H 0.57014 0.35444 0.69076 0.0
H1390 H 0.55124 0.32801 0.76618 0.0
H1391 H 0.54097 0.3717 0.7788 0.0
H1392 H 0.60065 0.40949 0.70993 0.0
H1393 H 0.58974 0.42902 0.68418 0.0
H1394 H 0.59304 0.39542 0.68002 0.0
H1395 H 0.54618 0.39239 0.66643 0.0
H1396 H 0.54282 0.42607 0.67014 0.0
H1397 H 0.52178 0.40498 0.68671 0.0
H1398 H 0.53834 0.41893 0.78492 0.0
H1399 H 0.53828 0.46584 0.78213 0.0
H1400 H 0.55656 0.46121 0.70248 0.0
C1401 C 0.56297 0.35769 0.70966 0.0
C1402 C 0.56124 0.3377 0.7274 0.0
C1403 C 0.55254 0.34296 0.7522 0.0
C1404 C 0.54676 0.36775 0.7596 0.0
C1405 C 0.54963 0.38715 0.74197 0.0
C1406 C 0.55714 0.38238 0.71739 0.0
C1407 C 0.55996 0.40675 0.70251 0.0
C1408 C 0.58747 0.41037 0.69365 0.0
C1409 C 0.54158 0.40759 0.68013 0.0
C1410 C 0.55274 0.4259 0.72253 0.0
C1411 C 0.54723 0.41427 0.74529 0.0
C1412 C 0.54205 0.42824 0.76706 0.0
C1413 C 0.54214 0.45478 0.76539 0.0
C1414 C 0.54684 0.4669 0.74203 0.0
C1415 C 0.55222 0.45226 0.72041 0.0
H1416 H 0.79239 0.24771 0.95066 0.0
H1417 H 0.79815 0.16583 0.95205 0.0
H1418 H 0.84212 0.16909 0.9674 0.0
H1419 H 0.85271 0.25878 0.92617 0.0
H1420 H 0.85834 0.28687 0.94438 0.0
H1421 H 0.82654 0.27825 0.93628 0.0
H1422 H 0.81343 0.27837 0.98353 0.0
H1423 H 0.84497 0.28785 0.99168 0.0
H1424 H 0.83147 0.25998 0.0059 0.0
H1425 H 0.8857 0.18172 0.98234 0.0
H1426 H 0.92427 0.20278 0.99808 0.0
H1427 H 0.89067 0.27588 0.98201 0.0
C1428 C 0.80256 0.23038 0.95485 0.0
C1429 C 0.7917 0.20648 0.95044 0.0
C1430 C 0.80598 0.18434 0.95561 0.0
C1431 C 0.83102 0.18601 0.96409 0.0
C1432 C 0.84149 0.20995 0.96703 0.0
C1433 C 0.82759 0.23171 0.96278 0.0
C1434 C 0.84333 0.25516 0.96643 0.0
C1435 C 0.84534 0.27066 0.94185 0.0
C1436 C 0.83268 0.27128 0.98818 0.0
C1437 C 0.86839 0.24322 0.97332 0.0
C1438 C 0.86694 0.21712 0.97378 0.0
C1439 C 0.88719 0.2021 0.98166 0.0
C1440 C 0.90906 0.21414 0.9903 0.0
C1441 C 0.91061 0.2408 0.99035 0.0
C1442 C 0.89033 0.25543 0.98105 0.0
H1443 H 0.92313 0.65116 0.18893 0.0
H1444 H 1.00007 0.67666 0.17995 0.0
H1445 H 0.01552 0.63322 0.18823 0.0
H1446 H 0.93565 0.61585 0.24194 0.0
H1447 H 0.91336 0.59099 0.23583 0.0
H1448 H 0.90807 0.62211 0.22326 0.0
H1449 H 0.90541 0.60362 0.17779 0.0
H1450 H 0.91028 0.57243 0.19075 0.0
H1451 H 0.93094 0.58409 0.16624 0.0
H1452 H 0.02272 0.58855 0.20442 0.0
H1453 H 0.02091 0.54515 0.22191 0.0
H1454 H 0.9391 0.54989 0.22428 0.0
C1455 C 0.94309 0.64716 0.18678 0.0
C1456 C 0.96032 0.66716 0.18242 0.0
C1457 C 0.98649 0.66151 0.18182 0.0
C1458 C 0.99542 0.63693 0.18714 0.0
C1459 C 0.97796 0.61819 0.19341 0.0
C1460 C 0.95226 0.62293 0.19293 0.0
C1461 C 0.93757 0.60057 0.20352 0.0
C1462 C 0.9228 0.60783 0.22753 0.0
C1463 C 0.92002 0.58952 0.18337 0.0
C1464 C 0.95896 0.58251 0.20993 0.0
C1465 C 0.98211 0.59302 0.20401 0.0
C1466 C 0.00465 0.58012 0.20887 0.0
C1467 C 0.00346 0.55556 0.21909 0.0
C1468 C 0.97992 0.54418 0.22481 0.0
C1469 C 0.95743 0.55816 0.22058 0.0
H1470 H 0.59375 0.74606 0.50007 0.0
H1471 H 0.59027 0.81595 0.54255 0.0
H1472 H 0.6355 0.82342 0.53276 0.0
H1473 H 0.65322 0.72683 0.52262 0.0
H1474 H 0.66251 0.71214 0.49343 0.0
H1475 H 0.62954 0.71442 0.50171 0.0
H1476 H 0.62114 0.73789 0.45897 0.0
H1477 H 0.65424 0.73554 0.45121 0.0
H1478 H 0.63884 0.766 0.45151 0.0
H1479 H 0.68212 0.82192 0.51933 0.0
H1480 H 0.72473 0.81265 0.50191 0.0
H1481 H 0.69749 0.74165 0.47244 0.0
C1482 C 0.60211 0.76344 0.5067 0.0
C1483 C 0.58816 0.78069 0.52174 0.0
C1484 C 0.60033 0.80271 0.5306 0.0
C1485 C 0.6261 0.80695 0.52534 0.0
C1486 C 0.63949 0.78885 0.51148 0.0
C1487 C 0.62777 0.76761 0.50218 0.0
C1488 C 0.64642 0.75016 0.48911 0.0
C1489 C 0.64797 0.72434 0.50251 0.0
C1490 C 0.63977 0.74724 0.46104 0.0
C1491 C 0.67059 0.76483 0.49248 0.0
C1492 C 0.66626 0.7872 0.50526 0.0
C1493 C 0.68569 0.80434 0.50954 0.0
C1494 C 0.70986 0.79883 0.49982 0.0
C1495 C 0.71453 0.77611 0.4865 0.0
C1496 C 0.69471 0.75872 0.48333 0.0
H1497 H 0.74193 0.58853 0.46636 0.0
H1498 H 0.75113 0.50733 0.46005 0.0
H1499 H 0.74078 0.50994 0.41464 0.0
H1500 H 0.68839 0.59295 0.42678 0.0
H1501 H 0.69689 0.62269 0.41244 0.0
H1502 H 0.70748 0.61513 0.44387 0.0
H1503 H 0.754 0.62218 0.43029 0.0
H1504 H 0.7435 0.6303 0.39896 0.0
H1505 H 0.7665 0.60544 0.40339 0.0
H1506 H 0.7282 0.52108 0.37025 0.0
H1507 H 0.71623 0.5405 0.3293 0.0
H1508 H 0.71257 0.61403 0.36465 0.0
C1509 C 0.7425 0.57143 0.45521 0.0
C1510 C 0.7478 0.54774 0.4666 0.0
C1511 C 0.74745 0.52567 0.45161 0.0
C1512 C 0.74145 0.52696 0.42585 0.0
C1513 C 0.73548 0.55045 0.41537 0.0
C1514 C 0.73609 0.57234 0.4295 0.0
C1515 C 0.72777 0.595 0.41384 0.0
C1516 C 0.70371 0.60715 0.4249 0.0
C1517 C 0.74922 0.61437 0.41147 0.0
C1518 C 0.72243 0.58241 0.38873 0.0
C1519 C 0.72704 0.5567 0.39004 0.0
C1520 C 0.72425 0.54113 0.36906 0.0
C1521 C 0.71719 0.55222 0.34598 0.0
C1522 C 0.71259 0.57848 0.34418 0.0
C1523 C 0.71504 0.59372 0.36586 0.0
H1524 H 0.76311 0.53704 0.61164 0.0
H1525 H 0.83853 0.52705 0.58117 0.0
H1526 H 0.85344 0.51328 0.6238 0.0
H1527 H 0.78342 0.56248 0.67133 0.0
H1528 H 0.75819 0.54801 0.68899 0.0
H1529 H 0.75342 0.557 0.65641 0.0
H1530 H 0.74062 0.51149 0.64451 0.0
H1531 H 0.74366 0.50255 0.6771 0.0
H1532 H 0.76092 0.48546 0.65315 0.0
H1533 H 0.85833 0.49792 0.67016 0.0
H1534 H 0.85303 0.48214 0.71389 0.0
H1535 H 0.77427 0.50531 0.7127 0.0
C1536 C 0.78276 0.53181 0.61381 0.0
C1537 C 0.79962 0.53256 0.59316 0.0
C1538 C 0.82533 0.52626 0.59684 0.0
C1539 C 0.83388 0.51857 0.62095 0.0
C1540 C 0.81652 0.51801 0.64101 0.0
C1541 C 0.79152 0.5247 0.63753 0.0
C1542 C 0.77637 0.52287 0.6617 0.0
C1543 C 0.76729 0.54916 0.67009 0.0
C1544 C 0.7541 0.50448 0.65895 0.0
C1545 C 0.7963 0.51266 0.67932 0.0
C1546 C 0.81948 0.51032 0.6673 0.0
C1547 C 0.84033 0.50002 0.67973 0.0
C1548 C 0.83714 0.4912 0.70466 0.0
C1549 C 0.81323 0.49263 0.71688 0.0
C1550 C 0.79287 0.50424 0.70415 0.0
H1551 H 0.74444 0.52546 0.9563 0.0
H1552 H 0.7575 0.4495 0.98501 0.0
H1553 H 0.77093 0.43579 0.94282 0.0
H1554 H 0.71804 0.50416 0.89559 0.0
H1555 H 0.73172 0.52985 0.87782 0.0
H1556 H 0.72351 0.53414 0.91057 0.0
H1557 H 0.76939 0.54809 0.91963 0.0
H1558 H 0.77786 0.54332 0.887 0.0
H1559 H 0.79527 0.52732 0.91155 0.0
H1560 H 0.78734 0.43094 0.89888 0.0
H1561 H 0.79543 0.43226 0.85297 0.0
H1562 H 0.76632 0.50894 0.84973 0.0
C1563 C 0.7496 0.50585 0.95353 0.0
C1564 C 0.74968 0.48858 0.97414 0.0
C1565 C 0.75681 0.46309 0.96965 0.0
C1566 C 0.76484 0.45512 0.94573 0.0
C1567 C 0.76514 0.47262 0.92605 0.0
C1568 C 0.75689 0.49722 0.92934 0.0
C1569 C 0.75776 0.51157 0.90434 0.0
C1570 C 0.73117 0.52045 0.89662 0.0
C1571 C 0.77616 0.5339 0.90573 0.0
C1572 C 0.76778 0.49117 0.88666 0.0
C1573 C 0.77267 0.46913 0.89989 0.0
C1574 C 0.78324 0.44798 0.88823 0.0
C1575 C 0.78805 0.44898 0.86217 0.0
C1576 C 0.7816 0.47066 0.84779 0.0
C1577 C 0.77153 0.49215 0.86029 0.0
H1578 H 0.70788 0.59501 0.19955 0.0
H1579 H 0.65185 0.54511 0.23214 0.0
H1580 H 0.65215 0.51972 0.19268 0.0
H1581 H 0.68165 0.59339 0.13484 0.0
H1582 H 0.7125 0.59543 0.12045 0.0
H1583 H 0.70666 0.60993 0.15066 0.0
H1584 H 0.74391 0.58457 0.16997 0.0
H1585 H 0.74992 0.57004 0.13991 0.0
H1586 H 0.74438 0.5506 0.1674 0.0
H1587 H 0.66255 0.49744 0.15059 0.0
H1588 H 0.68016 0.48173 0.11019 0.0
H1589 H 0.72698 0.54853 0.1044 0.0
C1590 C 0.69552 0.57883 0.19826 0.0
C1591 C 0.67998 0.57183 0.21889 0.0
C1592 C 0.66384 0.55077 0.2165 0.0
C1593 C 0.66393 0.53629 0.19416 0.0
C1594 C 0.67976 0.54358 0.17418 0.0
C1595 C 0.69492 0.56468 0.17596 0.0
C1596 C 0.71028 0.56868 0.15205 0.0
C1597 C 0.7023 0.59332 0.13871 0.0
C1598 C 0.7388 0.56844 0.15768 0.0
C1599 C 0.70251 0.54579 0.13689 0.0
C1600 C 0.68473 0.53161 0.14981 0.0
C1601 C 0.67609 0.50872 0.14018 0.0
C1602 C 0.68618 0.49994 0.11712 0.0
C1603 C 0.70469 0.51402 0.10374 0.0
C1604 C 0.71244 0.53753 0.11369 0.0
H1605 H 0.51462 0.70915 0.81553 0.0
H1606 H 0.44123 0.69915 0.78098 0.0
H1607 H 0.44864 0.65322 0.77872 0.0
H1608 H 0.54618 0.66436 0.77558 0.0
H1609 H 0.56733 0.6529 0.7997 0.0
H1610 H 0.5551 0.68464 0.80128 0.0
H1611 H 0.53796 0.67526 0.8463 0.0
H1612 H 0.54967 0.64325 0.84449 0.0
H1613 H 0.51674 0.64913 0.85117 0.0
H1614 H 0.46348 0.60914 0.77925 0.0
H1615 H 0.48846 0.57024 0.77378 0.0
H1616 H 0.55408 0.60765 0.80485 0.0
C1617 C 0.50022 0.69715 0.80757 0.0
C1618 C 0.47733 0.70753 0.79844 0.0
C1619 C 0.45893 0.69146 0.78792 0.0
C1620 C 0.46283 0.66534 0.78685 0.0
C1621 C 0.4854 0.65551 0.79614 0.0
C1622 C 0.50411 0.67085 0.80572 0.0
C1623 C 0.52769 0.65542 0.81167 0.0
C1624 C 0.55041 0.66489 0.79612 0.0
C1625 C 0.53334 0.65579 0.8401 0.0
C1626 C 0.51941 0.62926 0.80334 0.0
C1627 C 0.49463 0.62976 0.79524 0.0
C1628 C 0.48288 0.60843 0.78561 0.0
C1629 C 0.4972 0.58632 0.78273 0.0
C1630 C 0.5232 0.58576 0.78899 0.0
C1631 C 0.53412 0.60724 0.80046 0.0
loop_
_geom_bond_atom_site_label_1
_geom_bond_atom_site_label_2
_geom_bond_distance
_geom_bond_site_symmetry_2
_ccdc_geom_bond_type
C0 O2 1.247 . S
C0 O4 1.258 . S
C1 O8 1.247 . S
C1 O9 1.258 . S
O2 C0 1.247 . S
O2 Zn3 2.028 . S
Zn3 O2 2.028 . S
Zn3 O7 2.035 . S
Zn3 O9 2.035 . S
Zn3 O10 2.028 . S
O4 C0 1.258 . S
O4 Zn5 2.035 . S
Zn5 O4 2.035 . S
Zn5 O6 2.028 . S
Zn5 O8 2.028 . S
Zn5 O11 2.035 . S
O6 Zn5 2.028 . S
O6 C12 1.247 . S
O7 Zn3 2.035 . S
O7 C12 1.258 . S
O8 C1 1.247 . S
O8 Zn5 2.028 . S
O9 C1 1.258 . S
O9 Zn3 2.035 . S
O10 Zn3 2.028 . S
O10 C13 1.247 . S
O11 Zn5 2.035 . S
O11 C13 1.258 . S
C12 O6 1.247 . S
C12 O7 1.258 . S
C13 O10 1.247 . S
C13 O11 1.258 . S
C14 O16 1.247 . S
C14 O18 1.258 . S
C15 O22 1.247 . S
C15 O23 1.258 . S
O16 C14 1.247 . S
O16 Zn17 2.028 . S
Zn17 O16 2.028 . S
Zn17 O21 2.035 . S
Zn17 O23 2.035 . S
Zn17 O24 2.028 . S
O18 C14 1.258 . S
O18 Zn19 2.035 . S
Zn19 O18 2.035 . S
Zn19 O20 2.028 . S
Zn19 O22 2.028 . S
Zn19 O25 2.035 . S
O20 Zn19 2.028 . S
O20 C26 1.256 . S
O21 Zn17 2.035 . S
O21 C26 1.281 . S
O22 C15 1.247 . S
O22 Zn19 2.028 . S
O23 C15 1.258 . S
O23 Zn17 2.035 . S
O24 Zn17 2.028 . S
O24 C27 1.247 . S
O25 Zn19 2.035 . S
O25 C27 1.258 . S
C26 O20 1.256 . S
C26 O21 1.281 . S
C27 O24 1.247 . S
C27 O25 1.258 . S
C28 O30 1.247 . S
C28 O32 1.258 . S
C29 O36 1.247 . S
C29 O37 1.258 . S
O30 C28 1.247 . S
O30 Zn31 2.028 . S
Zn31 O30 2.028 . S
Zn31 O35 2.035 . S
Zn31 O37 2.035 . S
Zn31 O38 2.028 . S
O32 C28 1.258 . S
O32 Zn33 2.035 . S
Zn33 O32 2.035 . S
Zn33 O34 2.028 . S
Zn33 O36 2.028 . S
Zn33 O39 2.035 . S
O34 Zn33 2.028 . S
O34 C40 1.247 . S
O35 Zn31 2.035 . S
O35 C40 1.258 . S
O36 C29 1.247 . S
O36 Zn33 2.028 . S
O37 C29 1.258 . S
O37 Zn31 2.035 . S
O38 Zn31 2.028 . S
O38 C41 1.247 . S
O39 Zn33 2.035 . S
O39 C41 1.258 . S
C40 O34 1.247 . S
C40 O35 1.258 . S
C41 O38 1.247 . S
C41 O39 1.258 . S
C42 O44 1.247 . S
C42 O46 1.258 . S
C43 O50 1.247 . S
C43 O51 1.258 . S
O44 C42 1.247 . S
O44 Zn45 2.028 . S
Zn45 O44 2.028 . S
Zn45 O49 2.035 . S
Zn45 O51 2.035 . S
Zn45 O52 2.028 . S
O46 C42 1.258 . S
O46 Zn47 2.035 . S
Zn47 O46 2.035 . S
Zn47 O48 2.028 . S
Zn47 O50 2.028 . S
Zn47 O53 2.035 . S
O48 Zn47 2.028 . S
O48 C54 1.247 . S
O49 Zn45 2.035 . S
O49 C54 1.258 . S
O50 C43 1.247 . S
O50 Zn47 2.028 . S
O51 C43 1.258 . S
O51 Zn45 2.035 . S
O52 Zn45 2.028 . S
O52 C55 1.247 . S
O53 Zn47 2.035 . S
O53 C55 1.258 . S
C54 O48 1.247 . S
C54 O49 1.258 . S
C55 O52 1.247 . S
C55 O53 1.258 . S
C56 O58 1.247 . S
C56 O60 1.258 . S
C57 O64 1.247 . S
C57 O65 1.258 . S
O58 C56 1.247 . S
O58 Zn59 2.028 . S
Zn59 O58 2.028 . S
Zn59 O63 2.035 . S
Zn59 O65 2.035 . S
Zn59 O66 2.028 1_455 S
O60 C56 1.258 . S
O60 Zn61 2.035 . S
Zn61 O60 2.035 . S
Zn61 O62 2.028 . S
Zn61 O64 2.028 . S
Zn61 O67 2.035 . S
O62 Zn61 2.028 . S
O62 C68 1.247 . S
O63 Zn59 2.035 . S
O63 C68 1.258 . S
O64 C57 1.247 . S
O64 Zn61 2.028 . S
O65 C57 1.258 . S
O65 Zn59 2.035 . S
O66 Zn59 2.028 1_655 S
O66 C69 1.247 . S
O67 Zn61 2.035 . S
O67 C69 1.258 1_455 S
C68 O62 1.247 . S
C68 O63 1.258 . S
C69 O66 1.247 . S
C69 O67 1.258 1_655 S
C70 O72 1.247 . S
C70 O74 1.258 . S
C71 O78 1.247 . S
C71 O79 1.258 . S
O72 C70 1.247 . S
O72 Zn73 2.028 . S
Zn73 O72 2.028 . S
Zn73 O77 2.035 . S
Zn73 O79 2.035 . S
Zn73 O80 2.028 . S
O74 C70 1.258 . S
O74 Zn75 2.035 . S
Zn75 O74 2.035 . S
Zn75 O76 2.028 . S
Zn75 O78 2.028 . S
Zn75 O81 2.035 . S
O76 Zn75 2.028 . S
O76 C82 1.247 . S
O77 Zn73 2.035 . S
O77 C82 1.258 . S
O78 C71 1.247 . S
O78 Zn75 2.028 . S
O79 C71 1.258 . S
O79 Zn73 2.035 . S
O80 Zn73 2.028 . S
O80 C83 1.247 . S
O81 Zn75 2.035 . S
O81 C83 1.258 . S
C82 O76 1.247 . S
C82 O77 1.258 . S
C83 O80 1.247 . S
C83 O81 1.258 . S
C84 O86 1.239 1_565 S
C84 O88 1.240 1_565 S
C85 O92 1.247 . S
C85 O93 1.258 . S
O86 C84 1.239 1_545 S
O86 Zn87 2.028 . S
Zn87 O86 2.028 . S
Zn87 O91 2.035 . S
Zn87 O93 2.035 . S
Zn87 O94 2.028 . S
O88 C84 1.240 1_545 S
O88 Zn89 2.035 . S
Zn89 O88 2.035 . S
Zn89 O90 2.028 . S
Zn89 O92 2.028 . S
Zn89 O95 2.035 . S
O90 Zn89 2.028 . S
O90 C96 1.247 . S
O91 Zn87 2.035 . S
O91 C96 1.258 . S
O92 C85 1.247 . S
O92 Zn89 2.028 . S
O93 C85 1.258 . S
O93 Zn87 2.035 . S
O94 Zn87 2.028 . S
O94 C97 1.247 . S
O95 Zn89 2.035 . S
O95 C97 1.258 . S
C96 O90 1.247 . S
C96 O91 1.258 . S
C97 O94 1.247 . S
C97 O95 1.258 . S
C98 O100 1.247 . S
C98 O102 1.258 . S
C99 O106 1.247 . S
C99 O107 1.258 . S
O100 C98 1.247 . S
O100 Zn101 2.028 . S
Zn101 O100 2.028 . S
Zn101 O105 2.035 . S
Zn101 O107 2.035 . S
Zn101 O108 2.028 . S
O102 C98 1.258 . S
O102 Zn103 2.035 . S
Zn103 O102 2.035 . S
Zn103 O104 2.028 . S
Zn103 O106 2.028 . S
Zn103 O109 2.035 . S
O104 Zn103 2.028 . S
O104 C110 1.247 . S
O105 Zn101 2.035 . S
O105 C110 1.258 . S
O106 C99 1.247 . S
O106 Zn103 2.028 . S
O107 C99 1.258 . S
O107 Zn101 2.035 . S
O108 Zn101 2.028 . S
O108 C111 1.247 . S
O109 Zn103 2.035 . S
O109 C111 1.258 . S
C110 O104 1.247 . S
C110 O105 1.258 . S
C111 O108 1.247 . S
C111 O109 1.258 . S
C112 O114 1.247 . S
C112 O116 1.258 . S
C113 O120 1.247 . S
C113 O121 1.258 . S
O114 C112 1.247 . S
O114 Zn115 2.028 . S
Zn115 O114 2.028 . S
Zn115 O119 2.035 . S
Zn115 O121 2.035 . S
Zn115 O122 2.028 . S
O116 C112 1.258 . S
O116 Zn117 2.035 . S
Zn117 O116 2.035 . S
Zn117 O118 2.028 . S
Zn117 O120 2.028 . S
Zn117 O123 2.035 . S
O118 Zn117 2.028 . S
O118 C124 1.247 . S
O119 Zn115 2.035 . S
O119 C124 1.258 . S
O120 C113 1.247 . S
O120 Zn117 2.028 . S
O121 C113 1.258 . S
O121 Zn115 2.035 . S
O122 Zn115 2.028 . S
O122 C125 1.247 . S
O123 Zn117 2.035 . S
O123 C125 1.258 . S
C124 O118 1.247 . S
C124 O119 1.258 . S
C125 O122 1.247 . S
C125 O123 1.258 . S
C126 O128 1.247 . S
C126 O130 1.258 . S
C127 O134 1.247 . S
C127 O135 1.258 . S
O128 C126 1.247 . S
O128 Zn129 2.028 . S
Zn129 O128 2.028 . S
Zn129 O133 2.035 . S
Zn129 O135 2.035 . S
Zn129 O136 2.028 . S
O130 C126 1.258 . S
O130 Zn131 2.035 . S
Zn131 O130 2.035 . S
Zn131 O132 2.028 . S
Zn131 O134 2.028 . S
Zn131 O137 2.035 . S
O132 Zn131 2.028 . S
O132 C138 1.247 . S
O133 Zn129 2.035 . S
O133 C138 1.258 . S
O134 C127 1.247 . S
O134 Zn131 2.028 . S
O135 C127 1.258 . S
O135 Zn129 2.035 . S
O136 Zn129 2.028 . S
O136 C139 1.247 . S
O137 Zn131 2.035 . S
O137 C139 1.258 . S
C138 O132 1.247 . S
C138 O133 1.258 . S
C139 O136 1.247 . S
C139 O137 1.258 . S
C140 O142 1.247 . S
C140 O144 1.258 . S
C141 O148 1.247 . S
C141 O149 1.258 . S
O142 C140 1.247 . S
O142 Zn143 2.028 . S
Zn143 O142 2.028 . S
Zn143 O147 2.035 . S
Zn143 O149 2.035 . S
Zn143 O150 2.028 . S
O144 C140 1.258 . S
O144 Zn145 2.035 . S
Zn145 O144 2.035 . S
Zn145 O146 2.028 . S
Zn145 O148 2.028 . S
Zn145 O151 2.035 . S
O146 Zn145 2.028 . S
O146 C152 1.247 . S
O147 Zn143 2.035 . S
O147 C152 1.258 . S
O148 C141 1.247 . S
O148 Zn145 2.028 . S
O149 C141 1.258 . S
O149 Zn143 2.035 . S
O150 Zn143 2.028 . S
O150 C153 1.247 . S
O151 Zn145 2.035 . S
O151 C153 1.258 . S
C152 O146 1.247 . S
C152 O147 1.258 . S
C153 O150 1.247 . S
C153 O151 1.258 . S
C154 O156 1.247 . S
C154 O158 1.258 . S
C155 O162 1.247 . S
C155 O163 1.258 1_565 S
O156 C154 1.247 . S
O156 Zn157 2.028 . S
Zn157 O156 2.028 . S
Zn157 O161 2.035 . S
Zn157 O163 2.035 . S
Zn157 O164 2.028 . S
O158 C154 1.258 . S
O158 Zn159 2.035 . S
Zn159 O158 2.035 . S
Zn159 O160 2.028 . S
Zn159 O162 2.028 1_545 S
Zn159 O165 2.035 . S
O160 Zn159 2.028 . S
O160 C166 1.247 . S
O161 Zn157 2.035 . S
O161 C166 1.258 . S
O162 C155 1.247 . S
O162 Zn159 2.028 1_565 S
O163 C155 1.258 1_545 S
O163 Zn157 2.035 . S
O164 Zn157 2.028 . S
O164 C167 1.247 . S
O165 Zn159 2.035 . S
O165 C167 1.258 . S
C166 O160 1.247 . S
C166 O161 1.258 . S
C167 O164 1.247 . S
C167 O165 1.258 . S
C168 O170 1.247 . S
C168 O172 1.258 . S
C169 O176 1.247 . S
C169 O177 1.258 . S
O170 C168 1.247 . S
O170 Zn171 2.028 . S
Zn171 O170 2.028 . S
Zn171 O175 2.035 . S
Zn171 O177 2.035 . S
Zn171 O178 2.028 . S
O172 C168 1.258 . S
O172 Zn173 2.035 . S
Zn173 O172 2.035 . S
Zn173 O174 2.028 . S
Zn173 O176 2.028 . S
Zn173 O179 2.035 . S
O174 Zn173 2.028 . S
O174 C180 1.247 . S
O175 Zn171 2.035 . S
O175 C180 1.258 . S
O176 C169 1.247 . S
O176 Zn173 2.028 . S
O177 C169 1.258 . S
O177 Zn171 2.035 . S
O178 Zn171 2.028 . S
O178 C181 1.247 . S
O179 Zn173 2.035 . S
O179 C181 1.258 . S
C180 O174 1.247 . S
C180 O175 1.258 . S
C181 O178 1.247 . S
C181 O179 1.258 . S
C182 O184 1.247 . S
C182 O186 1.258 . S
C183 O190 1.247 . S
C183 O191 1.258 . S
O184 C182 1.247 . S
O184 Zn185 2.028 . S
Zn185 O184 2.028 . S
Zn185 O189 2.035 . S
Zn185 O191 2.035 . S
Zn185 O192 2.028 . S
O186 C182 1.258 . S
O186 Zn187 2.035 . S
Zn187 O186 2.035 . S
Zn187 O188 2.028 . S
Zn187 O190 2.028 . S
Zn187 O193 2.035 . S
O188 Zn187 2.028 . S
O188 C194 1.247 . S
O189 Zn185 2.035 . S
O189 C194 1.258 . S
O190 C183 1.247 . S
O190 Zn187 2.028 . S
O191 C183 1.258 . S
O191 Zn185 2.035 . S
O192 Zn185 2.028 . S
O192 C195 1.247 . S
O193 Zn187 2.035 . S
O193 C195 1.258 . S
C194 O188 1.247 . S
C194 O189 1.258 . S
C195 O192 1.247 . S
C195 O193 1.258 . S
C196 O198 1.247 . S
C196 O200 1.258 . S
C197 O204 1.247 . S
C197 O205 1.258 . S
O198 C196 1.247 . S
O198 Zn199 2.028 . S
Zn199 O198 2.028 . S
Zn199 O203 2.035 . S
Zn199 O205 2.035 . S
Zn199 O206 2.028 . S
O200 C196 1.258 . S
O200 Zn201 2.035 . S
Zn201 O200 2.035 . S
Zn201 O202 2.028 . S
Zn201 O204 2.028 . S
Zn201 O207 2.035 . S
O202 Zn201 2.028 . S
O202 C208 1.247 . S
O203 Zn199 2.035 . S
O203 C208 1.258 . S
O204 C197 1.247 . S
O204 Zn201 2.028 . S
O205 C197 1.258 . S
O205 Zn199 2.035 . S
O206 Zn199 2.028 . S
O206 C209 1.247 . S
O207 Zn201 2.035 . S
O207 C209 1.258 . S
C208 O202 1.247 . S
C208 O203 1.258 . S
C209 O206 1.247 . S
C209 O207 1.258 . S
C210 O212 1.247 . S
C210 O214 1.258 . S
C211 O218 1.247 . S
C211 O219 1.258 . S
O212 C210 1.247 . S
O212 Zn213 2.028 . S
Zn213 O212 2.028 . S
Zn213 O217 2.035 . S
Zn213 O219 2.035 . S
Zn213 O220 2.028 . S
O214 C210 1.258 . S
O214 Zn215 2.035 . S
Zn215 O214 2.035 . S
Zn215 O216 2.028 . S
Zn215 O218 2.028 . S
Zn215 O221 2.035 . S
O216 Zn215 2.028 . S
O216 C222 1.247 . S
O217 Zn213 2.035 . S
O217 C222 1.258 . S
O218 C211 1.247 . S
O218 Zn215 2.028 . S
O219 C211 1.258 . S
O219 Zn213 2.035 . S
O220 Zn213 2.028 . S
O220 C223 1.247 . S
O221 Zn215 2.035 . S
O221 C223 1.258 . S
C222 O216 1.247 . S
C222 O217 1.258 . S
C223 O220 1.247 . S
C223 O221 1.258 . S
C224 O226 1.247 . S
C224 O228 1.258 . S
C225 O232 1.247 . S
C225 O233 1.258 . S
O226 C224 1.247 . S
O226 Zn227 2.028 . S
Zn227 O226 2.028 . S
Zn227 O231 2.035 . S
Zn227 O233 2.035 . S
Zn227 O234 2.028 . S
O228 C224 1.258 . S
O228 Zn229 2.035 . S
Zn229 O228 2.035 . S
Zn229 O230 2.028 . S
Zn229 O232 2.028 . S
Zn229 O235 2.035 . S
O230 Zn229 2.028 . S
O230 C236 1.247 . S
O231 Zn227 2.035 . S
O231 C236 1.258 . S
O232 C225 1.247 . S
O232 Zn229 2.028 . S
O233 C225 1.258 . S
O233 Zn227 2.035 . S
O234 Zn227 2.028 . S
O234 C237 1.247 . S
O235 Zn229 2.035 . S
O235 C237 1.258 . S
C236 O230 1.247 . S
C236 O231 1.258 . S
C237 O234 1.247 . S
C237 O235 1.258 . S
C238 O240 1.247 . S
C238 O242 1.258 . S
C239 O246 1.247 . S
C239 O247 1.258 . S
O240 C238 1.247 . S
O240 Zn241 2.028 . S
Zn241 O240 2.028 . S
Zn241 O245 2.035 . S
Zn241 O247 2.035 . S
Zn241 O248 2.028 . S
O242 C238 1.258 . S
O242 Zn243 2.035 . S
Zn243 O242 2.035 . S
Zn243 O244 2.028 . S
Zn243 O246 2.028 . S
Zn243 O249 2.035 . S
O244 Zn243 2.028 . S
O244 C250 1.247 . S
O245 Zn241 2.035 . S
O245 C250 1.258 . S
O246 C239 1.247 . S
O246 Zn243 2.028 . S
O247 C239 1.258 . S
O247 Zn241 2.035 . S
O248 Zn241 2.028 . S
O248 C251 1.247 . S
O249 Zn243 2.035 . S
O249 C251 1.258 . S
C250 O244 1.247 . S
C250 O245 1.258 . S
C251 O248 1.247 . S
C251 O249 1.258 . S
C252 O254 1.247 1_556 S
C252 O256 1.258 . S
C253 O260 1.247 . S
C253 O261 1.258 . S
O254 C252 1.247 1_554 S
O254 Zn255 2.028 . S
Zn255 O254 2.028 . S
Zn255 O259 2.035 . S
Zn255 O261 2.035 . S
Zn255 O262 2.028 . S
O256 C252 1.258 . S
O256 Zn257 2.035 1_556 S
Zn257 O256 2.035 1_554 S
Zn257 O258 2.028 . S
Zn257 O260 2.028 . S
Zn257 O263 2.035 . S
O258 Zn257 2.028 . S
O258 C264 1.247 . S
O259 Zn255 2.035 . S
O259 C264 1.258 . S
O260 C253 1.247 . S
O260 Zn257 2.028 . S
O261 C253 1.258 . S
O261 Zn255 2.035 . S
O262 Zn255 2.028 . S
O262 C265 1.247 . S
O263 Zn257 2.035 . S
O263 C265 1.258 . S
C264 O258 1.247 . S
C264 O259 1.258 . S
C265 O262 1.247 . S
C265 O263 1.258 . S
C266 O268 1.247 . S
C266 O270 1.258 . S
C267 O274 1.247 . S
C267 O275 1.258 . S
O268 C266 1.247 . S
O268 Zn269 2.028 . S
Zn269 O268 2.028 . S
Zn269 O273 2.035 . S
Zn269 O275 2.035 . S
Zn269 O276 2.028 . S
O270 C266 1.258 . S
O270 Zn271 2.035 . S
Zn271 O270 2.035 . S
Zn271 O272 2.028 . S
Zn271 O274 2.028 . S
Zn271 O277 2.035 . S
O272 Zn271 2.028 . S
O272 C278 1.247 . S
O273 Zn269 2.035 . S
O273 C278 1.258 . S
O274 C267 1.247 . S
O274 Zn271 2.028 . S
O275 C267 1.258 . S
O275 Zn269 2.035 . S
O276 Zn269 2.028 . S
O276 C279 1.247 . S
O277 Zn271 2.035 . S
O277 C279 1.258 . S
C278 O272 1.247 . S
C278 O273 1.258 . S
C279 O276 1.247 . S
C279 O277 1.258 . S
C280 O282 1.247 . S
C280 O284 1.258 . S
C281 O288 1.247 . S
C281 O289 1.258 . S
O282 C280 1.247 . S
O282 Zn283 2.028 . S
Zn283 O282 2.028 . S
Zn283 O287 2.035 . S
Zn283 O289 2.035 . S
Zn283 O290 2.028 . S
O284 C280 1.258 . S
O284 Zn285 2.035 . S
Zn285 O284 2.035 . S
Zn285 O286 2.028 . S
Zn285 O288 2.028 . S
Zn285 O291 2.035 . S
O286 Zn285 2.028 . S
O286 C292 1.247 . S
O287 Zn283 2.035 . S
O287 C292 1.258 . S
O288 C281 1.247 . S
O288 Zn285 2.028 . S
O289 C281 1.258 . S
O289 Zn283 2.035 . S
O290 Zn283 2.028 . S
O290 C293 1.247 . S
O291 Zn285 2.035 . S
O291 C293 1.258 . S
C292 O286 1.247 . S
C292 O287 1.258 . S
C293 O290 1.247 . S
C293 O291 1.258 . S
C294 O296 1.247 . S
C294 O298 1.258 . S
C295 O302 1.247 . S
C295 O303 1.258 . S
O296 C294 1.247 . S
O296 Zn297 2.028 . S
Zn297 O296 2.028 . S
Zn297 O301 2.035 . S
Zn297 O303 2.035 . S
Zn297 O304 2.028 . S
O298 C294 1.258 . S
O298 Zn299 2.035 . S
Zn299 O298 2.035 . S
Zn299 O300 2.028 . S
Zn299 O302 2.028 . S
Zn299 O305 2.035 . S
O300 Zn299 2.028 . S
O300 C306 1.247 . S
O301 Zn297 2.035 . S
O301 C306 1.258 . S
O302 C295 1.247 . S
O302 Zn299 2.028 . S
O303 C295 1.258 . S
O303 Zn297 2.035 . S
O304 Zn297 2.028 . S
O304 C307 1.247 . S
O305 Zn299 2.035 . S
O305 C307 1.258 . S
C306 O300 1.247 . S
C306 O301 1.258 . S
C307 O304 1.247 . S
C307 O305 1.258 . S
C308 O310 1.247 . S
C308 O312 1.258 . S
C309 O316 1.247 . S
C309 O317 1.258 . S
O310 C308 1.247 . S
O310 Zn311 2.028 . S
Zn311 O310 2.028 . S
Zn311 O315 2.035 . S
Zn311 O317 2.035 . S
Zn311 O318 2.028 . S
O312 C308 1.258 . S
O312 Zn313 2.035 . S
Zn313 O312 2.035 . S
Zn313 O314 2.028 . S
Zn313 O316 2.028 . S
Zn313 O319 2.035 . S
O314 Zn313 2.028 . S
O314 C320 1.247 . S
O315 Zn311 2.035 . S
O315 C320 1.258 . S
O316 C309 1.247 . S
O316 Zn313 2.028 . S
O317 C309 1.258 . S
O317 Zn311 2.035 . S
O318 Zn311 2.028 . S
O318 C321 1.247 1_554 S
O319 Zn313 2.035 . S
O319 C321 1.258 1_554 S
C320 O314 1.247 . S
C320 O315 1.258 . S
C321 O318 1.247 1_556 S
C321 O319 1.258 1_556 S
C322 O324 1.247 . S
C322 O326 1.258 . S
C323 O330 1.247 . S
C323 O331 1.258 . S
O324 C322 1.247 . S
O324 Zn325 2.028 . S
Zn325 O324 2.028 . S
Zn325 O329 2.035 . S
Zn325 O331 2.035 . S
Zn325 O332 2.028 . S
O326 C322 1.258 . S
O326 Zn327 2.035 . S
Zn327 O326 2.035 . S
Zn327 O328 2.028 . S
Zn327 O330 2.028 . S
Zn327 O333 2.035 . S
O328 Zn327 2.028 . S
O328 C334 1.247 . S
O329 Zn325 2.035 . S
O329 C334 1.258 . S
O330 C323 1.247 . S
O330 Zn327 2.028 . S
O331 C323 1.258 . S
O331 Zn325 2.035 . S
O332 Zn325 2.028 . S
O332 C335 1.247 . S
O333 Zn327 2.035 . S
O333 C335 1.258 . S
C334 O328 1.247 . S
C334 O329 1.258 . S
C335 O332 1.247 . S
C335 O333 1.258 . S
H336 C348 0.930 . S
H337 C350 0.930 . S
H338 C351 0.930 . S
H339 C355 0.959 . S
H340 C355 0.959 . S
H341 C355 0.961 . S
H342 C356 0.960 . S
H343 C356 0.961 . S
H344 C356 0.959 . S
H345 C359 0.929 . S
H346 C360 0.931 . S
H347 C362 0.930 . S
C348 H336 0.930 . S
C348 C349 1.399 . S
C348 C353 1.399 . S
C349 C348 1.399 . S
C349 C350 1.376 . S
C350 H337 0.930 . S
C350 C349 1.376 . S
C350 C351 1.388 . S
C351 H338 0.930 . S
C351 C350 1.388 . S
C351 C352 1.390 . S
C352 C351 1.390 . S
C352 C353 1.394 . S
C352 C358 1.465 . S
C353 C348 1.399 . S
C353 C352 1.394 . S
C353 C354 1.516 . S
C354 C353 1.516 . S
C354 C355 1.502 . S
C354 C356 1.561 . S
C354 C357 1.526 . S
C355 H339 0.959 . S
C355 H340 0.959 . S
C355 H341 0.961 . S
C355 C354 1.502 . S
C356 H342 0.960 . S
C356 H343 0.961 . S
C356 H344 0.959 . S
C356 C354 1.561 . S
C357 C354 1.526 . S
C357 C358 1.396 . S
C357 C362 1.390 . S
C358 C352 1.465 . S
C358 C357 1.396 . S
C358 C359 1.399 . S
C359 H345 0.929 . S
C359 C358 1.399 . S
C359 C360 1.385 . S
C360 H346 0.931 . S
C360 C359 1.385 . S
C360 C361 1.389 . S
C361 C360 1.389 . S
C361 C362 1.387 . S
C362 H347 0.930 . S
C362 C357 1.390 . S
C362 C361 1.387 . S
H363 C375 0.930 . S
H364 C377 0.930 1_655 S
H365 C378 0.930 . S
H366 C382 0.959 . S
H367 C382 0.959 . S
H368 C382 0.961 . S
H369 C383 0.960 . S
H370 C383 0.961 . S
H371 C383 0.959 . S
H372 C386 0.929 . S
H373 C387 0.931 1_655 S
H374 C389 0.930 . S
C375 H363 0.930 . S
C375 C376 1.399 . S
C375 C380 1.399 . S
C376 C375 1.399 . S
C376 C377 1.376 . S
C377 H364 0.930 1_455 S
C377 C376 1.376 . S
C377 C378 1.388 1_455 S
C378 H365 0.930 . S
C378 C377 1.388 1_655 S
C378 C379 1.390 1_655 S
C379 C378 1.390 1_455 S
C379 C380 1.394 . S
C379 C385 1.465 . S
C380 C375 1.399 . S
C380 C379 1.394 . S
C380 C381 1.516 . S
C381 C380 1.516 . S
C381 C382 1.502 . S
C381 C383 1.561 . S
C381 C384 1.526 . S
C382 H366 0.959 . S
C382 H367 0.959 . S
C382 H368 0.961 . S
C382 C381 1.502 . S
C383 H369 0.960 . S
C383 H370 0.961 . S
C383 H371 0.959 . S
C383 C381 1.561 . S
C384 C381 1.526 . S
C384 C385 1.396 . S
C384 C389 1.390 . S
C385 C379 1.465 . S
C385 C384 1.396 . S
C385 C386 1.399 1_455 S
C386 H372 0.929 . S
C386 C385 1.399 1_655 S
C386 C387 1.385 1_655 S
C387 H373 0.931 1_455 S
C387 C386 1.385 1_455 S
C387 C388 1.389 . S
C388 C387 1.389 . S
C388 C389 1.387 . S
C389 H374 0.930 . S
C389 C384 1.390 . S
C389 C388 1.387 . S
H390 C402 0.930 . S
H391 C404 0.930 . S
H392 C405 0.930 . S
H393 C409 0.959 . S
H394 C409 0.959 . S
H395 C409 0.961 . S
H396 C410 0.960 . S
H397 C410 0.961 . S
H398 C410 0.959 . S
H399 C413 0.929 . S
H400 C414 0.931 . S
H401 C416 0.930 . S
C402 H390 0.930 . S
C402 C403 1.399 . S
C402 C407 1.399 . S
C403 C402 1.399 . S
C403 C404 1.376 . S
C404 H391 0.930 . S
C404 C403 1.376 . S
C404 C405 1.388 . S
C405 H392 0.930 . S
C405 C404 1.388 . S
C405 C406 1.390 . S
C406 C405 1.390 . S
C406 C407 1.394 . S
C406 C412 1.465 . S
C407 C402 1.399 . S
C407 C406 1.394 . S
C407 C408 1.516 . S
C408 C407 1.516 . S
C408 C409 1.502 . S
C408 C410 1.561 . S
C408 C411 1.526 . S
C409 H393 0.959 . S
C409 H394 0.959 . S
C409 H395 0.961 . S
C409 C408 1.502 . S
C410 H396 0.960 . S
C410 H397 0.961 . S
C410 H398 0.959 . S
C410 C408 1.561 . S
C411 C408 1.526 . S
C411 C412 1.396 . S
C411 C416 1.390 . S
C412 C406 1.465 . S
C412 C411 1.396 . S
C412 C413 1.399 . S
C413 H399 0.929 . S
C413 C412 1.399 . S
C413 C414 1.385 . S
C414 H400 0.931 . S
C414 C413 1.385 . S
C414 C415 1.389 . S
C415 C414 1.389 . S
C415 C416 1.387 . S
C416 H401 0.930 . S
C416 C411 1.390 . S
C416 C415 1.387 . S
H417 C429 0.930 . S
H418 C431 0.930 . S
H419 C432 0.930 . S
H420 C436 0.959 . S
H421 C436 0.959 . S
H422 C436 0.961 . S
H423 C437 0.960 . S
H424 C437 0.961 . S
H425 C437 0.959 . S
H426 C440 0.929 . S
H427 C441 0.931 . S
H428 C443 0.930 . S
C429 H417 0.930 . S
C429 C430 1.399 . S
C429 C434 1.399 . S
C430 C429 1.399 . S
C430 C431 1.376 . S
C431 H418 0.930 . S
C431 C430 1.376 . S
C431 C432 1.388 . S
C432 H419 0.930 . S
C432 C431 1.388 . S
C432 C433 1.390 . S
C433 C432 1.390 . S
C433 C434 1.394 . S
C433 C439 1.465 . S
C434 C429 1.399 . S
C434 C433 1.394 . S
C434 C435 1.516 . S
C435 C434 1.516 . S
C435 C436 1.502 . S
C435 C437 1.561 . S
C435 C438 1.526 . S
C436 H420 0.959 . S
C436 H421 0.959 . S
C436 H422 0.961 . S
C436 C435 1.502 . S
C437 H423 0.960 . S
C437 H424 0.961 . S
C437 H425 0.959 . S
C437 C435 1.561 . S
C438 C435 1.526 . S
C438 C439 1.396 . S
C438 C443 1.390 . S
C439 C433 1.465 . S
C439 C438 1.396 . S
C439 C440 1.399 . S
C440 H426 0.929 . S
C440 C439 1.399 . S
C440 C441 1.385 . S
C441 H427 0.931 . S
C441 C440 1.385 . S
C441 C442 1.389 . S
C442 C441 1.389 . S
C442 C443 1.387 . S
C443 H428 0.930 . S
C443 C438 1.390 . S
C443 C442 1.387 . S
H444 C456 0.930 . S
H445 C458 0.930 . S
H446 C459 0.930 . S
H447 C463 0.959 . S
H448 C463 0.959 . S
H449 C463 0.961 . S
H450 C464 0.960 . S
H451 C464 0.961 . S
H452 C464 0.959 . S
H453 C467 0.929 . S
H454 C468 0.931 . S
H455 C470 0.930 . S
C456 H444 0.930 . S
C456 C457 1.399 . S
C456 C461 1.399 . S
C457 C456 1.399 . S
C457 C458 1.376 . S
C458 H445 0.930 . S
C458 C457 1.376 . S
C458 C459 1.388 . S
C459 H446 0.930 . S
C459 C458 1.388 . S
C459 C460 1.390 . S
C460 C459 1.390 . S
C460 C461 1.394 . S
C460 C466 1.465 . S
C461 C456 1.399 . S
C461 C460 1.394 . S
C461 C462 1.516 . S
C462 C461 1.516 . S
C462 C463 1.502 . S
C462 C464 1.561 . S
C462 C465 1.526 . S
C463 H447 0.959 . S
C463 H448 0.959 . S
C463 H449 0.961 . S
C463 C462 1.502 . S
C464 H450 0.960 . S
C464 H451 0.961 . S
C464 H452 0.959 . S
C464 C462 1.561 . S
C465 C462 1.526 . S
C465 C466 1.396 . S
C465 C470 1.390 . S
C466 C460 1.465 . S
C466 C465 1.396 . S
C466 C467 1.399 . S
C467 H453 0.929 . S
C467 C466 1.399 . S
C467 C468 1.385 . S
C468 H454 0.931 . S
C468 C467 1.385 . S
C468 C469 1.389 . S
C469 C468 1.389 . S
C469 C470 1.387 . S
C470 H455 0.930 . S
C470 C465 1.390 . S
C470 C469 1.387 . S
H471 C483 0.930 . S
H472 C485 0.930 . S
H473 C486 0.930 . S
H474 C490 0.959 . S
H475 C490 0.959 . S
H476 C490 0.961 . S
H477 C491 0.960 . S
H478 C491 0.961 . S
H479 C491 0.959 . S
H480 C494 0.929 . S
H481 C495 0.931 . S
H482 C497 0.930 . S
C483 H471 0.930 . S
C483 C484 1.399 . S
C483 C488 1.399 . S
C484 C483 1.399 . S
C484 C485 1.376 . S
C485 H472 0.930 . S
C485 C484 1.376 . S
C485 C486 1.388 . S
C486 H473 0.930 . S
C486 C485 1.388 . S
C486 C487 1.390 . S
C487 C486 1.390 . S
C487 C488 1.394 . S
C487 C493 1.465 . S
C488 C483 1.399 . S
C488 C487 1.394 . S
C488 C489 1.516 . S
C489 C488 1.516 . S
C489 C490 1.502 . S
C489 C491 1.561 . S
C489 C492 1.526 . S
C490 H474 0.959 . S
C490 H475 0.959 . S
C490 H476 0.961 . S
C490 C489 1.502 . S
C491 H477 0.960 . S
C491 H478 0.961 . S
C491 H479 0.959 . S
C491 C489 1.561 . S
C492 C489 1.526 . S
C492 C493 1.396 . S
C492 C497 1.390 . S
C493 C487 1.465 . S
C493 C492 1.396 . S
C493 C494 1.399 . S
C494 H480 0.929 . S
C494 C493 1.399 . S
C494 C495 1.385 . S
C495 H481 0.931 . S
C495 C494 1.385 . S
C495 C496 1.389 . S
C496 C495 1.389 . S
C496 C497 1.387 . S
C497 H482 0.930 . S
C497 C492 1.390 . S
C497 C496 1.387 . S
H498 C510 0.930 . S
H499 C512 0.930 . S
H500 C513 0.930 . S
H501 C517 0.959 . S
H502 C517 0.959 . S
H503 C517 0.961 . S
H504 C518 0.960 . S
H505 C518 0.961 . S
H506 C518 0.959 . S
H507 C521 0.929 . S
H508 C522 0.931 . S
H509 C524 0.930 . S
C510 H498 0.930 . S
C510 C511 1.399 . S
C510 C515 1.399 . S
C511 C510 1.399 . S
C511 C512 1.376 . S
C512 H499 0.930 . S
C512 C511 1.376 . S
C512 C513 1.388 . S
C513 H500 0.930 . S
C513 C512 1.388 . S
C513 C514 1.390 . S
C514 C513 1.390 . S
C514 C515 1.394 . S
C514 C520 1.465 . S
C515 C510 1.399 . S
C515 C514 1.394 . S
C515 C516 1.516 . S
C516 C515 1.516 . S
C516 C517 1.502 . S
C516 C518 1.561 . S
C516 C519 1.526 . S
C517 H501 0.959 . S
C517 H502 0.959 . S
C517 H503 0.961 . S
C517 C516 1.502 . S
C518 H504 0.960 . S
C518 H505 0.961 . S
C518 H506 0.959 . S
C518 C516 1.561 . S
C519 C516 1.526 . S
C519 C520 1.396 . S
C519 C524 1.390 . S
C520 C514 1.465 . S
C520 C519 1.396 . S
C520 C521 1.399 . S
C521 H507 0.929 . S
C521 C520 1.399 . S
C521 C522 1.385 . S
C522 H508 0.931 . S
C522 C521 1.385 . S
C522 C523 1.389 . S
C523 C522 1.389 . S
C523 C524 1.387 . S
C524 H509 0.930 . S
C524 C519 1.390 . S
C524 C523 1.387 . S
H525 C537 0.930 . S
H526 C539 0.930 . S
H527 C540 0.930 . S
H528 C544 0.959 . S
H529 C544 0.959 . S
H530 C544 0.961 . S
H531 C545 0.960 . S
H532 C545 0.961 . S
H533 C545 0.959 . S
H534 C548 0.929 . S
H535 C549 0.931 . S
H536 C551 0.930 . S
C537 H525 0.930 . S
C537 C538 1.399 . S
C537 C542 1.399 . S
C538 C537 1.399 . S
C538 C539 1.376 . S
C539 H526 0.930 . S
C539 C538 1.376 . S
C539 C540 1.388 . S
C540 H527 0.930 . S
C540 C539 1.388 . S
C540 C541 1.390 . S
C541 C540 1.390 . S
C541 C542 1.394 . S
C541 C547 1.465 . S
C542 C537 1.399 . S
C542 C541 1.394 . S
C542 C543 1.516 . S
C543 C542 1.516 . S
C543 C544 1.502 . S
C543 C545 1.561 . S
C543 C546 1.526 . S
C544 H528 0.959 . S
C544 H529 0.959 . S
C544 H530 0.961 . S
C544 C543 1.502 . S
C545 H531 0.960 . S
C545 H532 0.961 . S
C545 H533 0.959 . S
C545 C543 1.561 . S
C546 C543 1.526 . S
C546 C547 1.396 . S
C546 C551 1.390 . S
C547 C541 1.465 . S
C547 C546 1.396 . S
C547 C548 1.399 . S
C548 H534 0.929 . S
C548 C547 1.399 . S
C548 C549 1.385 . S
C549 H535 0.931 . S
C549 C548 1.385 . S
C549 C550 1.389 . S
C550 C549 1.389 . S
C550 C551 1.387 . S
C551 H536 0.930 . S
C551 C546 1.390 . S
C551 C550 1.387 . S
H552 C564 0.930 . S
H553 C566 0.930 . S
H554 C567 0.930 . S
H555 C571 0.959 . S
H556 C571 0.959 . S
H557 C571 0.961 . S
H558 C572 0.960 . S
H559 C572 0.961 . S
H560 C572 0.959 . S
H561 C575 0.929 . S
H562 C576 0.931 . S
H563 C578 0.930 . S
C564 H552 0.930 . S
C564 C565 1.399 . S
C564 C569 1.399 . S
C565 C564 1.399 . S
C565 C566 1.376 . S
C566 H553 0.930 . S
C566 C565 1.376 . S
C566 C567 1.388 . S
C567 H554 0.930 . S
C567 C566 1.388 . S
C567 C568 1.390 . S
C568 C567 1.390 . S
C568 C569 1.394 . S
C568 C574 1.465 . S
C569 C564 1.399 . S
C569 C568 1.394 . S
C569 C570 1.516 . S
C570 C569 1.516 . S
C570 C571 1.502 . S
C570 C572 1.561 . S
C570 C573 1.526 . S
C571 H555 0.959 . S
C571 H556 0.959 . S
C571 H557 0.961 . S
C571 C570 1.502 . S
C572 H558 0.960 . S
C572 H559 0.961 . S
C572 H560 0.959 . S
C572 C570 1.561 . S
C573 C570 1.526 . S
C573 C574 1.396 . S
C573 C578 1.390 . S
C574 C568 1.465 . S
C574 C573 1.396 . S
C574 C575 1.399 . S
C575 H561 0.929 . S
C575 C574 1.399 . S
C575 C576 1.385 . S
C576 H562 0.931 . S
C576 C575 1.385 . S
C576 C577 1.389 . S
C577 C576 1.389 . S
C577 C578 1.387 . S
C578 H563 0.930 . S
C578 C573 1.390 . S
C578 C577 1.387 . S
H579 C591 0.930 . S
H580 C593 0.930 . S
H581 C594 0.930 . S
H582 C598 0.959 . S
H583 C598 0.959 . S
H584 C598 0.961 . S
H585 C599 0.960 . S
H586 C599 0.961 . S
H587 C599 0.959 . S
H588 C602 0.929 . S
H589 C603 0.931 . S
H590 C605 0.930 . S
C591 H579 0.930 . S
C591 C592 1.399 . S
C591 C596 1.399 . S
C592 C591 1.399 . S
C592 C593 1.376 . S
C593 H580 0.930 . S
C593 C592 1.376 . S
C593 C594 1.388 . S
C594 H581 0.930 . S
C594 C593 1.388 . S
C594 C595 1.390 . S
C595 C594 1.390 . S
C595 C596 1.394 . S
C595 C601 1.465 . S
C596 C591 1.399 . S
C596 C595 1.394 . S
C596 C597 1.516 . S
C597 C596 1.516 . S
C597 C598 1.502 . S
C597 C599 1.561 . S
C597 C600 1.526 . S
C598 H582 0.959 . S
C598 H583 0.959 . S
C598 H584 0.961 . S
C598 C597 1.502 . S
C599 H585 0.960 . S
C599 H586 0.961 . S
C599 H587 0.959 . S
C599 C597 1.561 . S
C600 C597 1.526 . S
C600 C601 1.396 . S
C600 C605 1.390 . S
C601 C595 1.465 . S
C601 C600 1.396 . S
C601 C602 1.399 . S
C602 H588 0.929 . S
C602 C601 1.399 . S
C602 C603 1.385 . S
C603 H589 0.931 . S
C603 C602 1.385 . S
C603 C604 1.389 . S
C604 C603 1.389 . S
C604 C605 1.387 . S
C605 H590 0.930 . S
C605 C600 1.390 . S
C605 C604 1.387 . S
H606 C618 0.899 1_565 S
H607 C620 0.930 . S
H608 C621 0.930 . S
H609 C625 0.959 1_545 S
H610 C625 0.959 . S
H611 C625 0.961 . S
H612 C626 0.960 . S
H613 C626 0.961 . S
H614 C626 0.959 . S
H615 C629 0.929 . S
H616 C630 0.931 . S
H617 C632 0.930 1_565 S
C618 H606 0.899 1_545 S
C618 C619 1.399 . S
C618 C623 1.399 . S
C619 C618 1.399 . S
C619 C620 1.376 . S
C620 H607 0.930 . S
C620 C619 1.376 . S
C620 C621 1.388 . S
C621 H608 0.930 . S
C621 C620 1.388 . S
C621 C622 1.390 . S
C622 C621 1.390 . S
C622 C623 1.394 . S
C622 C628 1.465 . S
C623 C618 1.399 . S
C623 C622 1.394 . S
C623 C624 1.516 1_545 S
C624 C623 1.516 1_565 S
C624 C625 1.502 . S
C624 C626 1.561 . S
C624 C627 1.526 1_565 S
C625 H609 0.959 1_565 S
C625 H610 0.959 . S
C625 H611 0.961 . S
C625 C624 1.502 . S
C626 H612 0.960 . S
C626 H613 0.961 . S
C626 H614 0.959 . S
C626 C624 1.561 . S
C627 C624 1.526 1_545 S
C627 C628 1.396 . S
C627 C632 1.390 . S
C628 C622 1.465 . S
C628 C627 1.396 . S
C628 C629 1.399 . S
C629 H615 0.929 . S
C629 C628 1.399 . S
C629 C630 1.385 . S
C630 H616 0.931 . S
C630 C629 1.385 . S
C630 C631 1.389 . S
C631 C630 1.389 . S
C631 C632 1.387 . S
C632 H617 0.930 1_545 S
C632 C627 1.390 . S
C632 C631 1.387 . S
H633 C645 0.930 . S
H634 C647 0.930 . S
H635 C648 0.930 . S
H636 C652 0.959 . S
H637 C652 0.959 . S
H638 C652 0.961 . S
H639 C653 0.960 . S
H640 C653 0.961 . S
H641 C653 0.959 . S
H642 C656 0.929 . S
H643 C657 0.931 . S
H644 C659 0.930 . S
C645 H633 0.930 . S
C645 C646 1.399 . S
C645 C650 1.399 . S
C646 C645 1.399 . S
C646 C647 1.376 . S
C647 H634 0.930 . S
C647 C646 1.376 . S
C647 C648 1.388 . S
C648 H635 0.930 . S
C648 C647 1.388 . S
C648 C649 1.390 . S
C649 C648 1.390 . S
C649 C650 1.394 . S
C649 C655 1.465 . S
C650 C645 1.399 . S
C650 C649 1.394 . S
C650 C651 1.516 . S
C651 C650 1.516 . S
C651 C652 1.502 . S
C651 C653 1.561 . S
C651 C654 1.526 . S
C652 H636 0.959 . S
C652 H637 0.959 . S
C652 H638 0.961 . S
C652 C651 1.502 . S
C653 H639 0.960 . S
C653 H640 0.961 . S
C653 H641 0.959 . S
C653 C651 1.561 . S
C654 C651 1.526 . S
C654 C655 1.396 . S
C654 C659 1.390 . S
C655 C649 1.465 . S
C655 C654 1.396 . S
C655 C656 1.399 . S
C656 H642 0.929 . S
C656 C655 1.399 . S
C656 C657 1.385 . S
C657 H643 0.931 . S
C657 C656 1.385 . S
C657 C658 1.389 . S
C658 C657 1.389 . S
C658 C659 1.387 . S
C659 H644 0.930 . S
C659 C654 1.390 . S
C659 C658 1.387 . S
H660 C672 0.930 . S
H661 C674 0.930 . S
H662 C675 0.930 . S
H663 C679 0.959 . S
H664 C679 0.959 . S
H665 C679 0.961 . S
H666 C680 0.960 . S
H667 C680 0.961 . S
H668 C680 0.959 . S
H669 C683 0.929 . S
H670 C684 0.931 . S
H671 C686 0.930 . S
C672 H660 0.930 . S
C672 C673 1.399 . S
C672 C677 1.399 . S
C673 C672 1.399 . S
C673 C674 1.376 . S
C674 H661 0.930 . S
C674 C673 1.376 . S
C674 C675 1.388 . S
C675 H662 0.930 . S
C675 C674 1.388 . S
C675 C676 1.390 . S
C676 C675 1.390 . S
C676 C677 1.394 . S
C676 C682 1.465 . S
C677 C672 1.399 . S
C677 C676 1.394 . S
C677 C678 1.516 . S
C678 C677 1.516 . S
C678 C679 1.502 . S
C678 C680 1.561 . S
C678 C681 1.526 . S
C679 H663 0.959 . S
C679 H664 0.959 . S
C679 H665 0.961 . S
C679 C678 1.502 . S
C680 H666 0.960 . S
C680 H667 0.961 . S
C680 H668 0.959 . S
C680 C678 1.561 . S
C681 C678 1.526 . S
C681 C682 1.396 . S
C681 C686 1.390 . S
C682 C676 1.465 . S
C682 C681 1.396 . S
C682 C683 1.399 . S
C683 H669 0.929 . S
C683 C682 1.399 . S
C683 C684 1.385 . S
C684 H670 0.931 . S
C684 C683 1.385 . S
C684 C685 1.389 . S
C685 C684 1.389 . S
C685 C686 1.387 . S
C686 H671 0.930 . S
C686 C681 1.390 . S
C686 C685 1.387 . S
H687 C699 0.930 . S
H688 C701 0.930 . S
H689 C702 0.930 . S
H690 C706 0.959 . S
H691 C706 0.959 . S
H692 C706 0.961 . S
H693 C707 0.960 . S
H694 C707 0.961 . S
H695 C707 0.959 . S
H696 C710 0.929 . S
H697 C711 0.931 . S
H698 C713 0.930 . S
C699 H687 0.930 . S
C699 C700 1.399 . S
C699 C704 1.399 . S
C700 C699 1.399 . S
C700 C701 1.376 . S
C701 H688 0.930 . S
C701 C700 1.376 . S
C701 C702 1.388 . S
C702 H689 0.930 . S
C702 C701 1.388 . S
C702 C703 1.390 . S
C703 C702 1.390 . S
C703 C704 1.394 . S
C703 C709 1.465 . S
C704 C699 1.399 . S
C704 C703 1.394 . S
C704 C705 1.516 . S
C705 C704 1.516 . S
C705 C706 1.502 . S
C705 C707 1.561 . S
C705 C708 1.526 . S
C706 H690 0.959 . S
C706 H691 0.959 . S
C706 H692 0.961 . S
C706 C705 1.502 . S
C707 H693 0.960 . S
C707 H694 0.961 . S
C707 H695 0.959 . S
C707 C705 1.561 . S
C708 C705 1.526 . S
C708 C709 1.396 . S
C708 C713 1.390 . S
C709 C703 1.465 . S
C709 C708 1.396 . S
C709 C710 1.399 . S
C710 H696 0.929 . S
C710 C709 1.399 . S
C710 C711 1.385 . S
C711 H697 0.931 . S
C711 C710 1.385 . S
C711 C712 1.389 . S
C712 C711 1.389 . S
C712 C713 1.387 . S
C713 H698 0.930 . S
C713 C708 1.390 . S
C713 C712 1.387 . S
H714 C726 0.930 . S
H715 C728 0.930 . S
H716 C729 0.930 . S
H717 C733 0.959 . S
H718 C733 0.959 . S
H719 C733 0.961 . S
H720 C734 0.960 . S
H721 C734 0.961 . S
H722 C734 0.959 . S
H723 C737 0.929 . S
H724 C738 0.931 . S
H725 C740 0.930 . S
C726 H714 0.930 . S
C726 C727 1.399 . S
C726 C731 1.399 . S
C727 C726 1.399 . S
C727 C728 1.376 . S
C728 H715 0.930 . S
C728 C727 1.376 . S
C728 C729 1.388 . S
C729 H716 0.930 . S
C729 C728 1.388 . S
C729 C730 1.390 . S
C730 C729 1.390 . S
C730 C731 1.394 . S
C730 C736 1.465 . S
C731 C726 1.399 . S
C731 C730 1.394 . S
C731 C732 1.516 . S
C732 C731 1.516 . S
C732 C733 1.502 . S
C732 C734 1.561 . S
C732 C735 1.526 . S
C733 H717 0.959 . S
C733 H718 0.959 . S
C733 H719 0.961 . S
C733 C732 1.502 . S
C734 H720 0.960 . S
C734 H721 0.961 . S
C734 H722 0.959 . S
C734 C732 1.561 . S
C735 C732 1.526 . S
C735 C736 1.396 . S
C735 C740 1.390 . S
C736 C730 1.465 . S
C736 C735 1.396 . S
C736 C737 1.399 . S
C737 H723 0.929 . S
C737 C736 1.399 . S
C737 C738 1.385 . S
C738 H724 0.931 . S
C738 C737 1.385 . S
C738 C739 1.389 . S
C739 C738 1.389 . S
C739 C740 1.387 . S
C740 H725 0.930 . S
C740 C735 1.390 . S
C740 C739 1.387 . S
H741 C753 0.930 . S
H742 C755 0.930 . S
H743 C756 0.930 . S
H744 C760 0.959 . S
H745 C760 0.959 . S
H746 C760 0.961 . S
H747 C761 0.960 . S
H748 C761 0.961 . S
H749 C761 0.959 . S
H750 C764 0.929 . S
H751 C765 0.931 . S
H752 C767 0.930 . S
C753 H741 0.930 . S
C753 C754 1.399 . S
C753 C758 1.399 . S
C754 C753 1.399 . S
C754 C755 1.376 . S
C755 H742 0.930 . S
C755 C754 1.376 . S
C755 C756 1.388 . S
C756 H743 0.930 . S
C756 C755 1.388 . S
C756 C757 1.390 . S
C757 C756 1.390 . S
C757 C758 1.394 . S
C757 C763 1.465 . S
C758 C753 1.399 . S
C758 C757 1.394 . S
C758 C759 1.516 . S
C759 C758 1.516 . S
C759 C760 1.502 . S
C759 C761 1.561 . S
C759 C762 1.526 . S
C760 H744 0.959 . S
C760 H745 0.959 . S
C760 H746 0.961 . S
C760 C759 1.502 . S
C761 H747 0.960 . S
C761 H748 0.961 . S
C761 H749 0.959 . S
C761 C759 1.561 . S
C762 C759 1.526 . S
C762 C763 1.396 . S
C762 C767 1.390 . S
C763 C757 1.465 . S
C763 C762 1.396 . S
C763 C764 1.399 . S
C764 H750 0.929 . S
C764 C763 1.399 . S
C764 C765 1.385 . S
C765 H751 0.931 . S
C765 C764 1.385 . S
C765 C766 1.389 . S
C766 C765 1.389 . S
C766 C767 1.387 . S
C767 H752 0.930 . S
C767 C762 1.390 . S
C767 C766 1.387 . S
H768 C780 0.930 . S
H769 C782 0.930 . S
H770 C783 0.930 . S
H771 C787 0.959 . S
H772 C787 0.959 . S
H773 C787 0.961 . S
H774 C788 0.960 . S
H775 C788 0.961 . S
H776 C788 0.959 . S
H777 C791 0.929 . S
H778 C792 0.931 . S
H779 C794 0.930 . S
C780 H768 0.930 . S
C780 C781 1.399 . S
C780 C785 1.399 . S
C781 C780 1.399 . S
C781 C782 1.376 . S
C782 H769 0.930 . S
C782 C781 1.376 . S
C782 C783 1.388 . S
C783 H770 0.930 . S
C783 C782 1.388 . S
C783 C784 1.390 . S
C784 C783 1.390 . S
C784 C785 1.394 . S
C784 C790 1.465 . S
C785 C780 1.399 . S
C785 C784 1.394 . S
C785 C786 1.516 . S
C786 C785 1.516 . S
C786 C787 1.502 . S
C786 C788 1.561 . S
C786 C789 1.526 . S
C787 H771 0.959 . S
C787 H772 0.959 . S
C787 H773 0.961 . S
C787 C786 1.502 . S
C788 H774 0.960 . S
C788 H775 0.961 . S
C788 H776 0.959 . S
C788 C786 1.561 . S
C789 C786 1.526 . S
C789 C790 1.396 . S
C789 C794 1.390 . S
C790 C784 1.465 . S
C790 C789 1.396 . S
C790 C791 1.399 . S
C791 H777 0.929 . S
C791 C790 1.399 . S
C791 C792 1.385 . S
C792 H778 0.931 . S
C792 C791 1.385 . S
C792 C793 1.389 . S
C793 C792 1.389 . S
C793 C794 1.387 . S
C794 H779 0.930 . S
C794 C789 1.390 . S
C794 C793 1.387 . S
H795 C807 0.930 . S
H796 C809 0.930 . S
H797 C810 0.930 . S
H798 C814 0.959 . S
H799 C814 0.959 . S
H800 C814 0.961 . S
H801 C815 0.960 . S
H802 C815 0.961 . S
H803 C815 0.959 . S
H804 C818 0.929 . S
H805 C819 0.931 . S
H806 C821 0.930 . S
C807 H795 0.930 . S
C807 C808 1.399 . S
C807 C812 1.399 . S
C808 C807 1.399 . S
C808 C809 1.376 . S
C809 H796 0.930 . S
C809 C808 1.376 . S
C809 C810 1.388 . S
C810 H797 0.930 . S
C810 C809 1.388 . S
C810 C811 1.390 . S
C811 C810 1.390 . S
C811 C812 1.394 . S
C811 C817 1.465 . S
C812 C807 1.399 . S
C812 C811 1.394 . S
C812 C813 1.516 . S
C813 C812 1.516 . S
C813 C814 1.502 . S
C813 C815 1.561 . S
C813 C816 1.526 . S
C814 H798 0.959 . S
C814 H799 0.959 . S
C814 H800 0.961 . S
C814 C813 1.502 . S
C815 H801 0.960 . S
C815 H802 0.961 . S
C815 H803 0.959 . S
C815 C813 1.561 . S
C816 C813 1.526 . S
C816 C817 1.396 . S
C816 C821 1.390 . S
C817 C811 1.465 . S
C817 C816 1.396 . S
C817 C818 1.399 . S
C818 H804 0.929 . S
C818 C817 1.399 . S
C818 C819 1.385 . S
C819 H805 0.931 . S
C819 C818 1.385 . S
C819 C820 1.389 . S
C820 C819 1.389 . S
C820 C821 1.387 . S
C821 H806 0.930 . S
C821 C816 1.390 . S
C821 C820 1.387 . S
H822 C834 0.930 . S
H823 C836 0.930 . S
H824 C837 0.930 . S
H825 C841 0.959 . S
H826 C841 0.959 . S
H827 C841 0.961 . S
H828 C842 0.960 . S
H829 C842 0.961 . S
H830 C842 0.959 . S
H831 C845 0.929 . S
H832 C846 0.931 . S
H833 C848 0.930 . S
C834 H822 0.930 . S
C834 C835 1.399 . S
C834 C839 1.399 . S
C835 C834 1.399 . S
C835 C836 1.376 . S
C836 H823 0.930 . S
C836 C835 1.376 . S
C836 C837 1.388 . S
C837 H824 0.930 . S
C837 C836 1.388 . S
C837 C838 1.390 . S
C838 C837 1.390 . S
C838 C839 1.394 . S
C838 C844 1.465 . S
C839 C834 1.399 . S
C839 C838 1.394 . S
C839 C840 1.516 . S
C840 C839 1.516 . S
C840 C841 1.502 . S
C840 C842 1.561 . S
C840 C843 1.526 . S
C841 H825 0.959 . S
C841 H826 0.959 . S
C841 H827 0.961 . S
C841 C840 1.502 . S
C842 H828 0.960 . S
C842 H829 0.961 . S
C842 H830 0.959 . S
C842 C840 1.561 . S
C843 C840 1.526 . S
C843 C844 1.396 . S
C843 C848 1.390 . S
C844 C838 1.465 . S
C844 C843 1.396 . S
C844 C845 1.399 . S
C845 H831 0.929 . S
C845 C844 1.399 . S
C845 C846 1.385 . S
C846 H832 0.931 . S
C846 C845 1.385 . S
C846 C847 1.389 . S
C847 C846 1.389 . S
C847 C848 1.387 . S
C848 H833 0.930 . S
C848 C843 1.390 . S
C848 C847 1.387 . S
H849 C861 0.930 . S
H850 C863 0.930 . S
H851 C864 0.930 . S
H852 C868 0.959 . S
H853 C868 0.959 . S
H854 C868 0.961 . S
H855 C869 0.960 . S
H856 C869 0.961 . S
H857 C869 0.959 . S
H858 C872 0.929 . S
H859 C873 0.931 . S
H860 C875 0.930 . S
C861 H849 0.930 . S
C861 C862 1.399 . S
C861 C866 1.399 . S
C862 C861 1.399 . S
C862 C863 1.376 . S
C863 H850 0.930 . S
C863 C862 1.376 . S
C863 C864 1.388 . S
C864 H851 0.930 . S
C864 C863 1.388 . S
C864 C865 1.390 . S
C865 C864 1.390 . S
C865 C866 1.394 . S
C865 C871 1.465 . S
C866 C861 1.399 . S
C866 C865 1.394 . S
C866 C867 1.516 . S
C867 C866 1.516 . S
C867 C868 1.502 . S
C867 C869 1.561 . S
C867 C870 1.526 . S
C868 H852 0.959 . S
C868 H853 0.959 . S
C868 H854 0.961 . S
C868 C867 1.502 . S
C869 H855 0.960 . S
C869 H856 0.961 . S
C869 H857 0.959 . S
C869 C867 1.561 . S
C870 C867 1.526 . S
C870 C871 1.396 . S
C870 C875 1.390 . S
C871 C865 1.465 . S
C871 C870 1.396 . S
C871 C872 1.399 . S
C872 H858 0.929 . S
C872 C871 1.399 . S
C872 C873 1.385 . S
C873 H859 0.931 . S
C873 C872 1.385 . S
C873 C874 1.389 . S
C874 C873 1.389 . S
C874 C875 1.387 . S
C875 H860 0.930 . S
C875 C870 1.390 . S
C875 C874 1.387 . S
H876 C888 0.930 . S
H877 C890 0.930 . S
H878 C891 0.930 . S
H879 C895 0.959 . S
H880 C895 0.959 . S
H881 C895 0.961 . S
H882 C896 0.960 . S
H883 C896 0.961 . S
H884 C896 0.959 . S
H885 C899 0.929 . S
H886 C900 0.931 . S
H887 C902 0.930 . S
C888 H876 0.930 . S
C888 C889 1.399 . S
C888 C893 1.399 . S
C889 C888 1.399 . S
C889 C890 1.376 . S
C890 H877 0.930 . S
C890 C889 1.376 . S
C890 C891 1.388 . S
C891 H878 0.930 . S
C891 C890 1.388 . S
C891 C892 1.390 . S
C892 C891 1.390 . S
C892 C893 1.394 . S
C892 C898 1.465 . S
C893 C888 1.399 . S
C893 C892 1.394 . S
C893 C894 1.516 . S
C894 C893 1.516 . S
C894 C895 1.502 . S
C894 C896 1.561 . S
C894 C897 1.526 . S
C895 H879 0.959 . S
C895 H880 0.959 . S
C895 H881 0.961 . S
C895 C894 1.502 . S
C896 H882 0.960 . S
C896 H883 0.961 . S
C896 H884 0.959 . S
C896 C894 1.561 . S
C897 C894 1.526 . S
C897 C898 1.396 . S
C897 C902 1.390 . S
C898 C892 1.465 . S
C898 C897 1.396 . S
C898 C899 1.399 . S
C899 H885 0.929 . S
C899 C898 1.399 . S
C899 C900 1.385 . S
C900 H886 0.931 . S
C900 C899 1.385 . S
C900 C901 1.389 . S
C901 C900 1.389 . S
C901 C902 1.387 . S
C902 H887 0.930 . S
C902 C897 1.390 . S
C902 C901 1.387 . S
H903 C915 0.930 . S
H904 C917 0.930 . S
H905 C918 0.930 . S
H906 C922 0.959 . S
H907 C922 0.959 . S
H908 C922 0.961 . S
H909 C923 0.960 . S
H910 C923 0.961 . S
H911 C923 0.959 . S
H912 C926 0.929 . S
H913 C927 0.931 . S
H914 C929 0.930 . S
C915 H903 0.930 . S
C915 C916 1.399 . S
C915 C920 1.399 . S
C916 C915 1.399 . S
C916 C917 1.376 . S
C917 H904 0.930 . S
C917 C916 1.376 . S
C917 C918 1.388 . S
C918 H905 0.930 . S
C918 C917 1.388 . S
C918 C919 1.390 . S
C919 C918 1.390 . S
C919 C920 1.394 . S
C919 C925 1.465 . S
C920 C915 1.399 . S
C920 C919 1.394 . S
C920 C921 1.516 . S
C921 C920 1.516 . S
C921 C922 1.502 . S
C921 C923 1.561 . S
C921 C924 1.526 . S
C922 H906 0.959 . S
C922 H907 0.959 . S
C922 H908 0.961 . S
C922 C921 1.502 . S
C923 H909 0.960 . S
C923 H910 0.961 . S
C923 H911 0.959 . S
C923 C921 1.561 . S
C924 C921 1.526 . S
C924 C925 1.396 . S
C924 C929 1.390 . S
C925 C919 1.465 . S
C925 C924 1.396 . S
C925 C926 1.399 . S
C926 H912 0.929 . S
C926 C925 1.399 . S
C926 C927 1.385 . S
C927 H913 0.931 . S
C927 C926 1.385 . S
C927 C928 1.389 . S
C928 C927 1.389 . S
C928 C929 1.387 . S
C929 H914 0.930 . S
C929 C924 1.390 . S
C929 C928 1.387 . S
H930 C942 0.930 . S
H931 C944 0.927 1_556 S
H932 C945 0.930 1_556 S
H933 C949 0.959 . S
H934 C949 0.959 . S
H935 C949 0.961 . S
H936 C950 0.960 . S
H937 C950 0.961 . S
H938 C950 0.959 . S
H939 C953 0.925 1_556 S
H940 C954 0.931 1_556 S
H941 C956 0.930 . S
C942 H930 0.930 . S
C942 C943 1.399 . S
C942 C947 1.399 . S
C943 C942 1.399 . S
C943 C944 1.376 . S
C944 H931 0.927 1_554 S
C944 C943 1.376 . S
C944 C945 1.388 . S
C945 H932 0.930 1_554 S
C945 C944 1.388 . S
C945 C946 1.390 . S
C946 C945 1.390 . S
C946 C947 1.394 . S
C946 C952 1.465 . S
C947 C942 1.399 . S
C947 C946 1.394 . S
C947 C948 1.516 . S
C948 C947 1.516 . S
C948 C949 1.502 . S
C948 C950 1.561 . S
C948 C951 1.526 . S
C949 H933 0.959 . S
C949 H934 0.959 . S
C949 H935 0.961 . S
C949 C948 1.502 . S
C950 H936 0.960 . S
C950 H937 0.961 . S
C950 H938 0.959 . S
C950 C948 1.561 . S
C951 C948 1.526 . S
C951 C952 1.396 . S
C951 C956 1.390 . S
C952 C946 1.465 . S
C952 C951 1.396 . S
C952 C953 1.403 . S
C953 H939 0.925 1_554 S
C953 C952 1.403 . S
C953 C954 1.386 . S
C954 H940 0.931 1_554 S
C954 C953 1.386 . S
C954 C955 1.389 . S
C955 C954 1.389 . S
C955 C956 1.387 . S
C956 H941 0.930 . S
C956 C951 1.390 . S
C956 C955 1.387 . S
H957 C969 0.930 . S
H958 C971 0.930 . S
H959 C972 0.930 . S
H960 C976 0.959 . S
H961 C976 0.959 . S
H962 C976 0.961 . S
H963 C977 0.960 . S
H964 C977 0.961 . S
H965 C977 0.959 . S
H966 C980 0.929 . S
H967 C981 0.931 . S
H968 C983 0.930 . S
C969 H957 0.930 . S
C969 C970 1.399 . S
C969 C974 1.399 . S
C970 C969 1.399 . S
C970 C971 1.376 . S
C971 H958 0.930 . S
C971 C970 1.376 . S
C971 C972 1.388 . S
C972 H959 0.930 . S
C972 C971 1.388 . S
C972 C973 1.390 . S
C973 C972 1.390 . S
C973 C974 1.394 . S
C973 C979 1.465 . S
C974 C969 1.399 . S
C974 C973 1.394 . S
C974 C975 1.516 . S
C975 C974 1.516 . S
C975 C976 1.502 . S
C975 C977 1.561 . S
C975 C978 1.526 . S
C976 H960 0.959 . S
C976 H961 0.959 . S
C976 H962 0.961 . S
C976 C975 1.502 . S
C977 H963 0.960 . S
C977 H964 0.961 . S
C977 H965 0.959 . S
C977 C975 1.561 . S
C978 C975 1.526 . S
C978 C979 1.396 . S
C978 C983 1.390 . S
C979 C973 1.465 . S
C979 C978 1.396 . S
C979 C980 1.399 . S
C980 H966 0.929 . S
C980 C979 1.399 . S
C980 C981 1.385 . S
C981 H967 0.931 . S
C981 C980 1.385 . S
C981 C982 1.389 . S
C982 C981 1.389 . S
C982 C983 1.387 . S
C983 H968 0.930 . S
C983 C978 1.390 . S
C983 C982 1.387 . S
H984 C996 0.930 . S
H985 C998 0.930 . S
H986 C999 0.930 . S
H987 C1003 0.959 . S
H988 C1003 0.959 . S
H989 C1003 0.961 . S
H990 C1004 0.960 . S
H991 C1004 0.961 . S
H992 C1004 0.959 . S
H993 C1007 0.929 . S
H994 C1008 0.931 . S
H995 C1010 0.930 . S
C996 H984 0.930 . S
C996 C997 1.399 . S
C996 C1001 1.399 . S
C997 C996 1.399 . S
C997 C998 1.376 . S
C998 H985 0.930 . S
C998 C997 1.376 . S
C998 C999 1.388 . S
C999 H986 0.930 . S
C999 C998 1.388 . S
C999 C1000 1.390 . S
C1000 C999 1.390 . S
C1000 C1001 1.394 . S
C1000 C1006 1.465 . S
C1001 C996 1.399 . S
C1001 C1000 1.394 . S
C1001 C1002 1.516 . S
C1002 C1001 1.516 . S
C1002 C1003 1.502 . S
C1002 C1004 1.561 . S
C1002 C1005 1.526 . S
C1003 H987 0.959 . S
C1003 H988 0.959 . S
C1003 H989 0.961 . S
C1003 C1002 1.502 . S
C1004 H990 0.960 . S
C1004 H991 0.961 . S
C1004 H992 0.959 . S
C1004 C1002 1.561 . S
C1005 C1002 1.526 . S
C1005 C1006 1.396 . S
C1005 C1010 1.390 . S
C1006 C1000 1.465 . S
C1006 C1005 1.396 . S
C1006 C1007 1.399 . S
C1007 H993 0.929 . S
C1007 C1006 1.399 . S
C1007 C1008 1.385 . S
C1008 H994 0.931 . S
C1008 C1007 1.385 . S
C1008 C1009 1.389 . S
C1009 C1008 1.389 . S
C1009 C1010 1.387 . S
C1010 H995 0.930 . S
C1010 C1005 1.390 . S
C1010 C1009 1.387 . S
H1011 C1023 0.930 . S
H1012 C1025 0.930 . S
H1013 C1026 0.930 . S
H1014 C1030 0.959 . S
H1015 C1030 0.959 . S
H1016 C1030 0.961 . S
H1017 C1031 0.960 . S
H1018 C1031 0.961 . S
H1019 C1031 0.959 . S
H1020 C1034 0.929 . S
H1021 C1035 0.931 . S
H1022 C1037 0.930 . S
C1023 H1011 0.930 . S
C1023 C1024 1.399 . S
C1023 C1028 1.399 . S
C1024 C1023 1.399 . S
C1024 C1025 1.376 . S
C1025 H1012 0.930 . S
C1025 C1024 1.376 . S
C1025 C1026 1.388 . S
C1026 H1013 0.930 . S
C1026 C1025 1.388 . S
C1026 C1027 1.390 . S
C1027 C1026 1.390 . S
C1027 C1028 1.394 . S
C1027 C1033 1.465 . S
C1028 C1023 1.399 . S
C1028 C1027 1.394 . S
C1028 C1029 1.516 . S
C1029 C1028 1.516 . S
C1029 C1030 1.502 . S
C1029 C1031 1.561 . S
C1029 C1032 1.526 . S
C1030 H1014 0.959 . S
C1030 H1015 0.959 . S
C1030 H1016 0.961 . S
C1030 C1029 1.502 . S
C1031 H1017 0.960 . S
C1031 H1018 0.961 . S
C1031 H1019 0.959 . S
C1031 C1029 1.561 . S
C1032 C1029 1.526 . S
C1032 C1033 1.396 . S
C1032 C1037 1.390 . S
C1033 C1027 1.465 . S
C1033 C1032 1.396 . S
C1033 C1034 1.399 . S
C1034 H1020 0.929 . S
C1034 C1033 1.399 . S
C1034 C1035 1.385 . S
C1035 H1021 0.931 . S
C1035 C1034 1.385 . S
C1035 C1036 1.389 . S
C1036 C1035 1.389 . S
C1036 C1037 1.387 . S
C1037 H1022 0.930 . S
C1037 C1032 1.390 . S
C1037 C1036 1.387 . S
H1038 C1050 0.930 . S
H1039 C1052 0.930 . S
H1040 C1053 0.930 . S
H1041 C1057 0.959 . S
H1042 C1057 0.959 . S
H1043 C1057 0.961 . S
H1044 C1058 0.960 . S
H1045 C1058 0.961 . S
H1046 C1058 0.959 . S
H1047 C1061 0.929 . S
H1048 C1062 0.931 . S
H1049 C1064 0.930 . S
C1050 H1038 0.930 . S
C1050 C1051 1.399 . S
C1050 C1055 1.399 . S
C1051 C1050 1.399 . S
C1051 C1052 1.376 . S
C1052 H1039 0.930 . S
C1052 C1051 1.376 . S
C1052 C1053 1.388 . S
C1053 H1040 0.930 . S
C1053 C1052 1.388 . S
C1053 C1054 1.390 . S
C1054 C1053 1.390 . S
C1054 C1055 1.394 . S
C1054 C1060 1.465 . S
C1055 C1050 1.399 . S
C1055 C1054 1.394 . S
C1055 C1056 1.516 . S
C1056 C1055 1.516 . S
C1056 C1057 1.502 . S
C1056 C1058 1.561 . S
C1056 C1059 1.526 . S
C1057 H1041 0.959 . S
C1057 H1042 0.959 . S
C1057 H1043 0.961 . S
C1057 C1056 1.502 . S
C1058 H1044 0.960 . S
C1058 H1045 0.961 . S
C1058 H1046 0.959 . S
C1058 C1056 1.561 . S
C1059 C1056 1.526 . S
C1059 C1060 1.396 . S
C1059 C1064 1.390 . S
C1060 C1054 1.465 . S
C1060 C1059 1.396 . S
C1060 C1061 1.399 . S
C1061 H1047 0.929 . S
C1061 C1060 1.399 . S
C1061 C1062 1.385 . S
C1062 H1048 0.931 . S
C1062 C1061 1.385 . S
C1062 C1063 1.389 . S
C1063 C1062 1.389 . S
C1063 C1064 1.387 . S
C1064 H1049 0.930 . S
C1064 C1059 1.390 . S
C1064 C1063 1.387 . S
H1065 C1077 0.930 . S
H1066 C1079 0.930 . S
H1067 C1080 0.930 . S
H1068 C1084 0.959 . S
H1069 C1084 0.959 . S
H1070 C1084 0.961 . S
H1071 C1085 0.960 1_554 S
H1072 C1085 0.961 . S
H1073 C1085 0.959 . S
H1074 C1088 0.929 . S
H1075 C1089 0.931 . S
H1076 C1091 0.930 . S
C1077 H1065 0.930 . S
C1077 C1078 1.399 . S
C1077 C1082 1.399 . S
C1078 C1077 1.399 . S
C1078 C1079 1.376 . S
C1079 H1066 0.930 . S
C1079 C1078 1.376 . S
C1079 C1080 1.388 1_554 S
C1080 H1067 0.930 . S
C1080 C1079 1.388 1_556 S
C1080 C1081 1.390 . S
C1081 C1080 1.390 . S
C1081 C1082 1.394 1_556 S
C1081 C1087 1.465 . S
C1082 C1077 1.399 . S
C1082 C1081 1.394 1_554 S
C1082 C1083 1.516 . S
C1083 C1082 1.516 . S
C1083 C1084 1.502 . S
C1083 C1085 1.561 1_554 S
C1083 C1086 1.526 1_554 S
C1084 H1068 0.959 . S
C1084 H1069 0.959 . S
C1084 H1070 0.961 . S
C1084 C1083 1.502 . S
C1085 H1071 0.960 1_556 S
C1085 H1072 0.961 . S
C1085 H1073 0.959 . S
C1085 C1083 1.561 1_556 S
C1086 C1083 1.526 1_556 S
C1086 C1087 1.396 . S
C1086 C1091 1.390 . S
C1087 C1081 1.465 . S
C1087 C1086 1.396 . S
C1087 C1088 1.399 . S
C1088 H1074 0.929 . S
C1088 C1087 1.399 . S
C1088 C1089 1.385 . S
C1089 H1075 0.931 . S
C1089 C1088 1.385 . S
C1089 C1090 1.389 . S
C1090 C1089 1.389 . S
C1090 C1091 1.387 . S
C1091 H1076 0.930 . S
C1091 C1086 1.390 . S
C1091 C1090 1.387 . S
H1092 C1104 0.930 . S
H1093 C1106 0.930 . S
H1094 C1107 0.930 . S
H1095 C1111 0.959 . S
H1096 C1111 0.959 . S
H1097 C1111 0.961 . S
H1098 C1112 0.960 . S
H1099 C1112 0.961 . S
H1100 C1112 0.959 . S
H1101 C1115 0.929 . S
H1102 C1116 0.931 . S
H1103 C1118 0.930 . S
C1104 H1092 0.930 . S
C1104 C1105 1.399 . S
C1104 C1109 1.399 . S
C1105 C1104 1.399 . S
C1105 C1106 1.376 . S
C1106 H1093 0.930 . S
C1106 C1105 1.376 . S
C1106 C1107 1.388 . S
C1107 H1094 0.930 . S
C1107 C1106 1.388 . S
C1107 C1108 1.390 . S
C1108 C1107 1.390 . S
C1108 C1109 1.394 . S
C1108 C1114 1.465 . S
C1109 C1104 1.399 . S
C1109 C1108 1.394 . S
C1109 C1110 1.516 . S
C1110 C1109 1.516 . S
C1110 C1111 1.502 . S
C1110 C1112 1.561 . S
C1110 C1113 1.526 . S
C1111 H1095 0.959 . S
C1111 H1096 0.959 . S
C1111 H1097 0.961 . S
C1111 C1110 1.502 . S
C1112 H1098 0.960 . S
C1112 H1099 0.961 . S
C1112 H1100 0.959 . S
C1112 C1110 1.561 . S
C1113 C1110 1.526 . S
C1113 C1114 1.396 . S
C1113 C1118 1.390 . S
C1114 C1108 1.465 . S
C1114 C1113 1.396 . S
C1114 C1115 1.399 . S
C1115 H1101 0.929 . S
C1115 C1114 1.399 . S
C1115 C1116 1.385 . S
C1116 H1102 0.931 . S
C1116 C1115 1.385 . S
C1116 C1117 1.389 . S
C1117 C1116 1.389 . S
C1117 C1118 1.387 . S
C1118 H1103 0.930 . S
C1118 C1113 1.390 . S
C1118 C1117 1.387 . S
H1119 C1131 0.930 . S
H1120 C1133 0.930 . S
H1121 C1134 0.930 . S
H1122 C1138 0.959 1_545 S
H1123 C1138 0.959 . S
H1124 C1138 0.961 . S
H1125 C1139 0.960 . S
H1126 C1139 0.961 . S
H1127 C1139 0.959 . S
H1128 C1142 0.929 . S
H1129 C1143 0.931 . S
H1130 C1145 0.930 . S
C1131 H1119 0.930 . S
C1131 C1132 1.399 . S
C1131 C1136 1.399 . S
C1132 C1131 1.399 . S
C1132 C1133 1.376 . S
C1133 H1120 0.930 . S
C1133 C1132 1.376 . S
C1133 C1134 1.388 . S
C1134 H1121 0.930 . S
C1134 C1133 1.388 . S
C1134 C1135 1.390 . S
C1135 C1134 1.390 . S
C1135 C1136 1.394 . S
C1135 C1141 1.465 1_565 S
C1136 C1131 1.399 . S
C1136 C1135 1.394 . S
C1136 C1137 1.516 . S
C1137 C1136 1.516 . S
C1137 C1138 1.502 . S
C1137 C1139 1.561 . S
C1137 C1140 1.526 1_565 S
C1138 H1122 0.959 1_565 S
C1138 H1123 0.959 . S
C1138 H1124 0.961 . S
C1138 C1137 1.502 . S
C1139 H1125 0.960 . S
C1139 H1126 0.961 . S
C1139 H1127 0.959 . S
C1139 C1137 1.561 . S
C1140 C1137 1.526 1_545 S
C1140 C1141 1.396 . S
C1140 C1145 1.390 . S
C1141 C1135 1.465 1_545 S
C1141 C1140 1.396 . S
C1141 C1142 1.399 . S
C1142 H1128 0.929 . S
C1142 C1141 1.399 . S
C1142 C1143 1.385 . S
C1143 H1129 0.931 . S
C1143 C1142 1.385 . S
C1143 C1144 1.389 . S
C1144 C1143 1.389 . S
C1144 C1145 1.387 . S
C1145 H1130 0.930 . S
C1145 C1140 1.390 . S
C1145 C1144 1.387 . S
H1146 C1158 0.930 . S
H1147 C1160 0.930 . S
H1148 C1161 0.930 . S
H1149 C1165 0.959 . S
H1150 C1165 0.959 . S
H1151 C1165 0.961 . S
H1152 C1166 0.960 . S
H1153 C1166 0.961 . S
H1154 C1166 0.959 . S
H1155 C1169 0.929 . S
H1156 C1170 0.931 . S
H1157 C1172 0.930 . S
C1158 H1146 0.930 . S
C1158 C1159 1.399 . S
C1158 C1163 1.399 . S
C1159 C1158 1.399 . S
C1159 C1160 1.376 . S
C1160 H1147 0.930 . S
C1160 C1159 1.376 . S
C1160 C1161 1.388 . S
C1161 H1148 0.930 . S
C1161 C1160 1.388 . S
C1161 C1162 1.390 . S
C1162 C1161 1.390 . S
C1162 C1163 1.394 . S
C1162 C1168 1.465 . S
C1163 C1158 1.399 . S
C1163 C1162 1.394 . S
C1163 C1164 1.516 . S
C1164 C1163 1.516 . S
C1164 C1165 1.502 . S
C1164 C1166 1.561 . S
C1164 C1167 1.526 . S
C1165 H1149 0.959 . S
C1165 H1150 0.959 . S
C1165 H1151 0.961 . S
C1165 C1164 1.502 . S
C1166 H1152 0.960 . S
C1166 H1153 0.961 . S
C1166 H1154 0.959 . S
C1166 C1164 1.561 . S
C1167 C1164 1.526 . S
C1167 C1168 1.396 . S
C1167 C1172 1.390 . S
C1168 C1162 1.465 . S
C1168 C1167 1.396 . S
C1168 C1169 1.399 . S
C1169 H1155 0.929 . S
C1169 C1168 1.399 . S
C1169 C1170 1.385 . S
C1170 H1156 0.931 . S
C1170 C1169 1.385 . S
C1170 C1171 1.389 . S
C1171 C1170 1.389 . S
C1171 C1172 1.387 . S
C1172 H1157 0.930 . S
C1172 C1167 1.390 . S
C1172 C1171 1.387 . S
H1173 C1185 0.930 . S
H1174 C1187 0.930 . S
H1175 C1188 0.930 . S
H1176 C1192 0.959 . S
H1177 C1192 0.959 . S
H1178 C1192 0.961 . S
H1179 C1193 0.960 . S
H1180 C1193 0.961 . S
H1181 C1193 0.959 . S
H1182 C1196 0.929 . S
H1183 C1197 0.931 1_545 S
H1184 C1199 0.930 . S
C1185 H1173 0.930 . S
C1185 C1186 1.399 . S
C1185 C1190 1.399 . S
C1186 C1185 1.399 . S
C1186 C1187 1.376 . S
C1187 H1174 0.930 . S
C1187 C1186 1.376 . S
C1187 C1188 1.388 . S
C1188 H1175 0.930 . S
C1188 C1187 1.388 . S
C1188 C1189 1.390 . S
C1189 C1188 1.390 . S
C1189 C1190 1.394 . S
C1189 C1195 1.465 . S
C1190 C1185 1.399 . S
C1190 C1189 1.394 . S
C1190 C1191 1.516 . S
C1191 C1190 1.516 . S
C1191 C1192 1.502 . S
C1191 C1193 1.561 . S
C1191 C1194 1.526 . S
C1192 H1176 0.959 . S
C1192 H1177 0.959 . S
C1192 H1178 0.961 . S
C1192 C1191 1.502 . S
C1193 H1179 0.960 . S
C1193 H1180 0.961 . S
C1193 H1181 0.959 . S
C1193 C1191 1.561 . S
C1194 C1191 1.526 . S
C1194 C1195 1.396 . S
C1194 C1199 1.390 . S
C1195 C1189 1.465 . S
C1195 C1194 1.396 . S
C1195 C1196 1.399 . S
C1196 H1182 0.929 . S
C1196 C1195 1.399 . S
C1196 C1197 1.385 . S
C1197 H1183 0.931 1_565 S
C1197 C1196 1.385 . S
C1197 C1198 1.389 . S
C1198 C1197 1.389 . S
C1198 C1199 1.387 . S
C1199 H1184 0.930 . S
C1199 C1194 1.390 . S
C1199 C1198 1.387 . S
H1200 C1212 0.930 . S
H1201 C1214 0.930 . S
H1202 C1215 0.930 . S
H1203 C1219 0.959 . S
H1204 C1219 0.959 1_556 S
H1205 C1219 0.961 1_556 S
H1206 C1220 0.965 . S
H1207 C1220 0.961 . S
H1208 C1220 0.959 . S
H1209 C1223 0.929 . S
H1210 C1224 0.931 . S
H1211 C1226 0.930 . S
C1212 H1200 0.930 . S
C1212 C1213 1.399 . S
C1212 C1217 1.399 . S
C1213 C1212 1.399 . S
C1213 C1214 1.376 . S
C1214 H1201 0.930 . S
C1214 C1213 1.376 . S
C1214 C1215 1.388 . S
C1215 H1202 0.930 . S
C1215 C1214 1.388 . S
C1215 C1216 1.390 . S
C1216 C1215 1.390 . S
C1216 C1217 1.394 . S
C1216 C1222 1.465 . S
C1217 C1212 1.399 . S
C1217 C1216 1.394 . S
C1217 C1218 1.516 . S
C1218 C1217 1.516 . S
C1218 C1219 1.502 . S
C1218 C1220 1.561 . S
C1218 C1221 1.526 . S
C1219 H1203 0.959 . S
C1219 H1204 0.959 1_554 S
C1219 H1205 0.961 1_554 S
C1219 C1218 1.502 . S
C1220 H1206 0.965 . S
C1220 H1207 0.961 . S
C1220 H1208 0.959 . S
C1220 C1218 1.561 . S
C1221 C1218 1.526 . S
C1221 C1222 1.396 . S
C1221 C1226 1.390 . S
C1222 C1216 1.465 . S
C1222 C1221 1.396 . S
C1222 C1223 1.399 . S
C1223 H1209 0.929 . S
C1223 C1222 1.399 . S
C1223 C1224 1.385 . S
C1224 H1210 0.931 . S
C1224 C1223 1.385 . S
C1224 C1225 1.389 . S
C1225 C1224 1.389 . S
C1225 C1226 1.387 . S
C1226 H1211 0.930 . S
C1226 C1221 1.390 . S
C1226 C1225 1.387 . S
H1227 C1239 0.930 . S
H1228 C1241 0.930 . S
H1229 C1242 0.930 . S
H1230 C1246 0.959 . S
H1231 C1246 0.959 . S
H1232 C1246 0.961 . S
H1233 C1247 0.960 . S
H1234 C1247 0.961 . S
H1235 C1247 0.959 . S
H1236 C1250 0.929 . S
H1237 C1251 0.931 . S
H1238 C1253 0.930 . S
C1239 H1227 0.930 . S
C1239 C1240 1.399 . S
C1239 C1244 1.399 . S
C1240 C1239 1.399 . S
C1240 C1241 1.376 . S
C1241 H1228 0.930 . S
C1241 C1240 1.376 . S
C1241 C1242 1.388 . S
C1242 H1229 0.930 . S
C1242 C1241 1.388 . S
C1242 C1243 1.390 . S
C1243 C1242 1.390 . S
C1243 C1244 1.394 . S
C1243 C1249 1.465 . S
C1244 C1239 1.399 . S
C1244 C1243 1.394 . S
C1244 C1245 1.516 . S
C1245 C1244 1.516 . S
C1245 C1246 1.502 . S
C1245 C1247 1.561 . S
C1245 C1248 1.526 . S
C1246 H1230 0.959 . S
C1246 H1231 0.959 . S
C1246 H1232 0.961 . S
C1246 C1245 1.502 . S
C1247 H1233 0.960 . S
C1247 H1234 0.961 . S
C1247 H1235 0.959 . S
C1247 C1245 1.561 . S
C1248 C1245 1.526 . S
C1248 C1249 1.396 . S
C1248 C1253 1.390 . S
C1249 C1243 1.465 . S
C1249 C1248 1.396 . S
C1249 C1250 1.399 . S
C1250 H1236 0.929 . S
C1250 C1249 1.399 . S
C1250 C1251 1.385 . S
C1251 H1237 0.931 . S
C1251 C1250 1.385 . S
C1251 C1252 1.389 . S
C1252 C1251 1.389 . S
C1252 C1253 1.387 . S
C1253 H1238 0.930 . S
C1253 C1248 1.390 . S
C1253 C1252 1.387 . S
H1254 C1266 0.930 . S
H1255 C1268 0.930 . S
H1256 C1269 0.927 1_655 S
H1257 C1273 0.959 . S
H1258 C1273 0.959 . S
H1259 C1273 0.961 . S
H1260 C1274 0.960 . S
H1261 C1274 0.961 . S
H1262 C1274 0.959 . S
H1263 C1277 0.929 . S
H1264 C1278 0.931 . S
H1265 C1280 0.930 . S
C1266 H1254 0.930 . S
C1266 C1267 1.399 . S
C1266 C1271 1.399 . S
C1267 C1266 1.399 . S
C1267 C1268 1.376 . S
C1268 H1255 0.930 . S
C1268 C1267 1.376 . S
C1268 C1269 1.391 . S
C1269 H1256 0.927 1_455 S
C1269 C1268 1.391 . S
C1269 C1270 1.389 1_455 S
C1270 C1269 1.389 1_655 S
C1270 C1271 1.394 1_655 S
C1270 C1276 1.465 . S
C1271 C1266 1.399 . S
C1271 C1270 1.394 1_455 S
C1271 C1272 1.516 . S
C1272 C1271 1.516 . S
C1272 C1273 1.502 . S
C1272 C1274 1.561 1_455 S
C1272 C1275 1.526 1_455 S
C1273 H1257 0.959 . S
C1273 H1258 0.959 . S
C1273 H1259 0.961 . S
C1273 C1272 1.502 . S
C1274 H1260 0.960 . S
C1274 H1261 0.961 . S
C1274 H1262 0.959 . S
C1274 C1272 1.561 1_655 S
C1275 C1272 1.526 1_655 S
C1275 C1276 1.396 . S
C1275 C1280 1.390 . S
C1276 C1270 1.465 . S
C1276 C1275 1.396 . S
C1276 C1277 1.399 . S
C1277 H1263 0.929 . S
C1277 C1276 1.399 . S
C1277 C1278 1.385 . S
C1278 H1264 0.931 . S
C1278 C1277 1.385 . S
C1278 C1279 1.389 . S
C1279 C1278 1.389 . S
C1279 C1280 1.387 . S
C1280 H1265 0.930 . S
C1280 C1275 1.390 . S
C1280 C1279 1.387 . S
H1281 C1293 0.930 . S
H1282 C1295 0.930 . S
H1283 C1296 0.930 . S
H1284 C1300 0.959 . S
H1285 C1300 0.959 . S
H1286 C1300 0.961 . S
H1287 C1301 0.960 . S
H1288 C1301 0.961 . S
H1289 C1301 0.959 . S
H1290 C1304 0.929 . S
H1291 C1305 0.931 . S
H1292 C1307 0.930 . S
C1293 H1281 0.930 . S
C1293 C1294 1.399 . S
C1293 C1298 1.399 . S
C1294 C1293 1.399 . S
C1294 C1295 1.376 . S
C1295 H1282 0.930 . S
C1295 C1294 1.376 . S
C1295 C1296 1.388 . S
C1296 H1283 0.930 . S
C1296 C1295 1.388 . S
C1296 C1297 1.390 . S
C1297 C1296 1.390 . S
C1297 C1298 1.394 . S
C1297 C1303 1.465 . S
C1298 C1293 1.399 . S
C1298 C1297 1.394 . S
C1298 C1299 1.516 . S
C1299 C1298 1.516 . S
C1299 C1300 1.502 . S
C1299 C1301 1.561 . S
C1299 C1302 1.526 . S
C1300 H1284 0.959 . S
C1300 H1285 0.959 . S
C1300 H1286 0.961 . S
C1300 C1299 1.502 . S
C1301 H1287 0.960 . S
C1301 H1288 0.961 . S
C1301 H1289 0.959 . S
C1301 C1299 1.561 . S
C1302 C1299 1.526 . S
C1302 C1303 1.396 . S
C1302 C1307 1.390 . S
C1303 C1297 1.465 . S
C1303 C1302 1.396 . S
C1303 C1304 1.399 . S
C1304 H1290 0.929 . S
C1304 C1303 1.399 . S
C1304 C1305 1.385 . S
C1305 H1291 0.931 . S
C1305 C1304 1.385 . S
C1305 C1306 1.389 . S
C1306 C1305 1.389 . S
C1306 C1307 1.387 . S
C1307 H1292 0.930 . S
C1307 C1302 1.390 . S
C1307 C1306 1.387 . S
H1308 C1320 0.930 . S
H1309 C1322 0.930 . S
H1310 C1323 0.930 . S
H1311 C1327 0.959 . S
H1312 C1327 0.959 . S
H1313 C1327 0.961 . S
H1314 C1328 0.960 . S
H1315 C1328 0.961 . S
H1316 C1328 0.959 . S
H1317 C1331 0.929 . S
H1318 C1332 0.931 . S
H1319 C1334 0.930 . S
C1320 H1308 0.930 . S
C1320 C1321 1.399 . S
C1320 C1325 1.399 . S
C1321 C1320 1.399 . S
C1321 C1322 1.376 . S
C1322 H1309 0.930 . S
C1322 C1321 1.376 . S
C1322 C1323 1.388 . S
C1323 H1310 0.930 . S
C1323 C1322 1.388 . S
C1323 C1324 1.390 . S
C1324 C1323 1.390 . S
C1324 C1325 1.394 . S
C1324 C1330 1.465 . S
C1325 C1320 1.399 . S
C1325 C1324 1.394 . S
C1325 C1326 1.516 . S
C1326 C1325 1.516 . S
C1326 C1327 1.502 . S
C1326 C1328 1.561 . S
C1326 C1329 1.526 . S
C1327 H1311 0.959 . S
C1327 H1312 0.959 . S
C1327 H1313 0.961 . S
C1327 C1326 1.502 . S
C1328 H1314 0.960 . S
C1328 H1315 0.961 . S
C1328 H1316 0.959 . S
C1328 C1326 1.561 . S
C1329 C1326 1.526 . S
C1329 C1330 1.396 . S
C1329 C1334 1.390 . S
C1330 C1324 1.465 . S
C1330 C1329 1.396 . S
C1330 C1331 1.399 . S
C1331 H1317 0.929 . S
C1331 C1330 1.399 . S
C1331 C1332 1.385 . S
C1332 H1318 0.931 . S
C1332 C1331 1.385 . S
C1332 C1333 1.389 . S
C1333 C1332 1.389 . S
C1333 C1334 1.387 . S
C1334 H1319 0.930 . S
C1334 C1329 1.390 . S
C1334 C1333 1.387 . S
H1335 C1347 0.930 . S
H1336 C1349 0.930 . S
H1337 C1350 0.930 . S
H1338 C1354 0.959 . S
H1339 C1354 0.959 . S
H1340 C1354 0.961 . S
H1341 C1355 0.960 . S
H1342 C1355 0.961 . S
H1343 C1355 0.959 . S
H1344 C1358 0.929 . S
H1345 C1359 0.931 . S
H1346 C1361 0.930 . S
C1347 H1335 0.930 . S
C1347 C1348 1.399 . S
C1347 C1352 1.399 . S
C1348 C1347 1.399 . S
C1348 C1349 1.376 . S
C1349 H1336 0.930 . S
C1349 C1348 1.376 . S
C1349 C1350 1.388 . S
C1350 H1337 0.930 . S
C1350 C1349 1.388 . S
C1350 C1351 1.390 . S
C1351 C1350 1.390 . S
C1351 C1352 1.394 . S
C1351 C1357 1.465 . S
C1352 C1347 1.399 . S
C1352 C1351 1.394 . S
C1352 C1353 1.516 . S
C1353 C1352 1.516 . S
C1353 C1354 1.502 . S
C1353 C1355 1.561 . S
C1353 C1356 1.526 . S
C1354 H1338 0.959 . S
C1354 H1339 0.959 . S
C1354 H1340 0.961 . S
C1354 C1353 1.502 . S
C1355 H1341 0.960 . S
C1355 H1342 0.961 . S
C1355 H1343 0.959 . S
C1355 C1353 1.561 . S
C1356 C1353 1.526 . S
C1356 C1357 1.396 . S
C1356 C1361 1.390 . S
C1357 C1351 1.465 . S
C1357 C1356 1.396 . S
C1357 C1358 1.399 . S
C1358 H1344 0.929 . S
C1358 C1357 1.399 . S
C1358 C1359 1.385 . S
C1359 H1345 0.931 . S
C1359 C1358 1.385 . S
C1359 C1360 1.389 . S
C1360 C1359 1.389 . S
C1360 C1361 1.387 . S
C1361 H1346 0.930 . S
C1361 C1356 1.390 . S
C1361 C1360 1.387 . S
H1362 C1374 0.930 . S
H1363 C1376 0.930 . S
H1364 C1377 0.930 . S
H1365 C1381 0.959 . S
H1366 C1381 0.959 . S
H1367 C1381 0.961 . S
H1368 C1382 0.960 . S
H1369 C1382 0.961 . S
H1370 C1382 0.959 . S
H1371 C1385 0.929 . S
H1372 C1386 0.931 . S
H1373 C1388 0.930 . S
C1374 H1362 0.930 . S
C1374 C1375 1.399 . S
C1374 C1379 1.399 . S
C1375 C1374 1.399 . S
C1375 C1376 1.376 . S
C1376 H1363 0.930 . S
C1376 C1375 1.376 . S
C1376 C1377 1.388 . S
C1377 H1364 0.930 . S
C1377 C1376 1.388 . S
C1377 C1378 1.390 . S
C1378 C1377 1.390 . S
C1378 C1379 1.394 . S
C1378 C1384 1.465 . S
C1379 C1374 1.399 . S
C1379 C1378 1.394 . S
C1379 C1380 1.516 . S
C1380 C1379 1.516 . S
C1380 C1381 1.502 . S
C1380 C1382 1.561 . S
C1380 C1383 1.526 . S
C1381 H1365 0.959 . S
C1381 H1366 0.959 . S
C1381 H1367 0.961 . S
C1381 C1380 1.502 . S
C1382 H1368 0.960 . S
C1382 H1369 0.961 . S
C1382 H1370 0.959 . S
C1382 C1380 1.561 . S
C1383 C1380 1.526 . S
C1383 C1384 1.396 . S
C1383 C1388 1.390 . S
C1384 C1378 1.465 . S
C1384 C1383 1.396 . S
C1384 C1385 1.399 . S
C1385 H1371 0.929 . S
C1385 C1384 1.399 . S
C1385 C1386 1.385 . S
C1386 H1372 0.931 . S
C1386 C1385 1.385 . S
C1386 C1387 1.389 . S
C1387 C1386 1.389 . S
C1387 C1388 1.387 . S
C1388 H1373 0.930 . S
C1388 C1383 1.390 . S
C1388 C1387 1.387 . S
H1389 C1401 0.930 . S
H1390 C1403 0.930 . S
H1391 C1404 0.930 . S
H1392 C1408 0.959 . S
H1393 C1408 0.959 . S
H1394 C1408 0.961 . S
H1395 C1409 0.960 . S
H1396 C1409 0.961 . S
H1397 C1409 0.959 . S
H1398 C1412 0.929 . S
H1399 C1413 0.931 . S
H1400 C1415 0.930 . S
C1401 H1389 0.930 . S
C1401 C1402 1.399 . S
C1401 C1406 1.399 . S
C1402 C1401 1.399 . S
C1402 C1403 1.376 . S
C1403 H1390 0.930 . S
C1403 C1402 1.376 . S
C1403 C1404 1.388 . S
C1404 H1391 0.930 . S
C1404 C1403 1.388 . S
C1404 C1405 1.390 . S
C1405 C1404 1.390 . S
C1405 C1406 1.394 . S
C1405 C1411 1.465 . S
C1406 C1401 1.399 . S
C1406 C1405 1.394 . S
C1406 C1407 1.516 . S
C1407 C1406 1.516 . S
C1407 C1408 1.502 . S
C1407 C1409 1.561 . S
C1407 C1410 1.526 . S
C1408 H1392 0.959 . S
C1408 H1393 0.959 . S
C1408 H1394 0.961 . S
C1408 C1407 1.502 . S
C1409 H1395 0.960 . S
C1409 H1396 0.961 . S
C1409 H1397 0.959 . S
C1409 C1407 1.561 . S
C1410 C1407 1.526 . S
C1410 C1411 1.396 . S
C1410 C1415 1.390 . S
C1411 C1405 1.465 . S
C1411 C1410 1.396 . S
C1411 C1412 1.399 . S
C1412 H1398 0.929 . S
C1412 C1411 1.399 . S
C1412 C1413 1.385 . S
C1413 H1399 0.931 . S
C1413 C1412 1.385 . S
C1413 C1414 1.389 . S
C1414 C1413 1.389 . S
C1414 C1415 1.387 . S
C1415 H1400 0.930 . S
C1415 C1410 1.390 . S
C1415 C1414 1.387 . S
H1416 C1428 0.930 . S
H1417 C1430 0.930 . S
H1418 C1431 0.930 . S
H1419 C1435 0.959 . S
H1420 C1435 0.959 . S
H1421 C1435 0.961 . S
H1422 C1436 0.960 . S
H1423 C1436 0.961 1_554 S
H1424 C1436 0.959 . S
H1425 C1439 0.929 . S
H1426 C1440 0.931 . S
H1427 C1442 0.930 . S
C1428 H1416 0.930 . S
C1428 C1429 1.399 . S
C1428 C1433 1.399 . S
C1429 C1428 1.399 . S
C1429 C1430 1.376 . S
C1430 H1417 0.930 . S
C1430 C1429 1.376 . S
C1430 C1431 1.388 . S
C1431 H1418 0.930 . S
C1431 C1430 1.388 . S
C1431 C1432 1.390 . S
C1432 C1431 1.390 . S
C1432 C1433 1.394 . S
C1432 C1438 1.465 . S
C1433 C1428 1.399 . S
C1433 C1432 1.394 . S
C1433 C1434 1.516 . S
C1434 C1433 1.516 . S
C1434 C1435 1.502 . S
C1434 C1436 1.561 . S
C1434 C1437 1.526 . S
C1435 H1419 0.959 . S
C1435 H1420 0.959 . S
C1435 H1421 0.961 . S
C1435 C1434 1.502 . S
C1436 H1422 0.960 . S
C1436 H1423 0.961 1_556 S
C1436 H1424 0.959 . S
C1436 C1434 1.561 . S
C1437 C1434 1.526 . S
C1437 C1438 1.396 . S
C1437 C1442 1.390 . S
C1438 C1432 1.465 . S
C1438 C1437 1.396 . S
C1438 C1439 1.399 . S
C1439 H1425 0.929 . S
C1439 C1438 1.399 . S
C1439 C1440 1.385 . S
C1440 H1426 0.931 . S
C1440 C1439 1.385 . S
C1440 C1441 1.389 . S
C1441 C1440 1.389 . S
C1441 C1442 1.387 . S
C1442 H1427 0.930 . S
C1442 C1437 1.390 . S
C1442 C1441 1.387 . S
H1443 C1455 0.930 . S
H1444 C1457 0.930 . S
H1445 C1458 0.930 . S
H1446 C1462 0.959 . S
H1447 C1462 0.959 . S
H1448 C1462 0.961 . S
H1449 C1463 0.960 . S
H1450 C1463 0.961 . S
H1451 C1463 0.959 . S
H1452 C1466 0.929 . S
H1453 C1467 0.931 . S
H1454 C1469 0.930 . S
C1455 H1443 0.930 . S
C1455 C1456 1.399 . S
C1455 C1460 1.399 . S
C1456 C1455 1.399 . S
C1456 C1457 1.376 . S
C1457 H1444 0.930 . S
C1457 C1456 1.376 . S
C1457 C1458 1.388 . S
C1458 H1445 0.930 . S
C1458 C1457 1.388 . S
C1458 C1459 1.390 . S
C1459 C1458 1.390 . S
C1459 C1460 1.394 . S
C1459 C1465 1.465 . S
C1460 C1455 1.399 . S
C1460 C1459 1.394 . S
C1460 C1461 1.516 . S
C1461 C1460 1.516 . S
C1461 C1462 1.502 . S
C1461 C1463 1.561 . S
C1461 C1464 1.526 . S
C1462 H1446 0.959 . S
C1462 H1447 0.959 . S
C1462 H1448 0.961 . S
C1462 C1461 1.502 . S
C1463 H1449 0.960 . S
C1463 H1450 0.961 . S
C1463 H1451 0.959 . S
C1463 C1461 1.561 . S
C1464 C1461 1.526 . S
C1464 C1465 1.396 . S
C1464 C1469 1.390 . S
C1465 C1459 1.465 . S
C1465 C1464 1.396 . S
C1465 C1466 1.399 . S
C1466 H1452 0.929 . S
C1466 C1465 1.399 . S
C1466 C1467 1.385 . S
C1467 H1453 0.931 . S
C1467 C1466 1.385 . S
C1467 C1468 1.389 . S
C1468 C1467 1.389 . S
C1468 C1469 1.387 . S
C1469 H1454 0.930 . S
C1469 C1464 1.390 . S
C1469 C1468 1.387 . S
H1470 C1482 0.930 . S
H1471 C1484 0.930 . S
H1472 C1485 0.930 . S
H1473 C1489 0.959 . S
H1474 C1489 0.959 . S
H1475 C1489 0.961 . S
H1476 C1490 0.960 . S
H1477 C1490 0.961 . S
H1478 C1490 0.959 . S
H1479 C1493 0.929 . S
H1480 C1494 0.931 . S
H1481 C1496 0.930 . S
C1482 H1470 0.930 . S
C1482 C1483 1.399 . S
C1482 C1487 1.399 . S
C1483 C1482 1.399 . S
C1483 C1484 1.376 . S
C1484 H1471 0.930 . S
C1484 C1483 1.376 . S
C1484 C1485 1.388 . S
C1485 H1472 0.930 . S
C1485 C1484 1.388 . S
C1485 C1486 1.390 . S
C1486 C1485 1.390 . S
C1486 C1487 1.394 . S
C1486 C1492 1.465 . S
C1487 C1482 1.399 . S
C1487 C1486 1.394 . S
C1487 C1488 1.516 . S
C1488 C1487 1.516 . S
C1488 C1489 1.502 . S
C1488 C1490 1.561 . S
C1488 C1491 1.526 . S
C1489 H1473 0.959 . S
C1489 H1474 0.959 . S
C1489 H1475 0.961 . S
C1489 C1488 1.502 . S
C1490 H1476 0.960 . S
C1490 H1477 0.961 . S
C1490 H1478 0.959 . S
C1490 C1488 1.561 . S
C1491 C1488 1.526 . S
C1491 C1492 1.396 . S
C1491 C1496 1.390 . S
C1492 C1486 1.465 . S
C1492 C1491 1.396 . S
C1492 C1493 1.399 . S
C1493 H1479 0.929 . S
C1493 C1492 1.399 . S
C1493 C1494 1.385 . S
C1494 H1480 0.931 . S
C1494 C1493 1.385 . S
C1494 C1495 1.389 . S
C1495 C1494 1.389 . S
C1495 C1496 1.387 . S
C1496 H1481 0.930 . S
C1496 C1491 1.390 . S
C1496 C1495 1.387 . S
H1497 C1509 0.930 . S
H1498 C1511 0.930 . S
H1499 C1512 0.930 . S
H1500 C1516 0.959 . S
H1501 C1516 0.959 . S
H1502 C1516 0.961 . S
H1503 C1517 0.960 . S
H1504 C1517 0.961 . S
H1505 C1517 0.959 . S
H1506 C1520 0.929 . S
H1507 C1521 0.931 . S
H1508 C1523 0.930 . S
C1509 H1497 0.930 . S
C1509 C1510 1.399 . S
C1509 C1514 1.399 . S
C1510 C1509 1.399 . S
C1510 C1511 1.376 . S
C1511 H1498 0.930 . S
C1511 C1510 1.376 . S
C1511 C1512 1.388 . S
C1512 H1499 0.930 . S
C1512 C1511 1.388 . S
C1512 C1513 1.390 . S
C1513 C1512 1.390 . S
C1513 C1514 1.394 . S
C1513 C1519 1.465 . S
C1514 C1509 1.399 . S
C1514 C1513 1.394 . S
C1514 C1515 1.516 . S
C1515 C1514 1.516 . S
C1515 C1516 1.502 . S
C1515 C1517 1.561 . S
C1515 C1518 1.526 . S
C1516 H1500 0.959 . S
C1516 H1501 0.959 . S
C1516 H1502 0.961 . S
C1516 C1515 1.502 . S
C1517 H1503 0.960 . S
C1517 H1504 0.961 . S
C1517 H1505 0.959 . S
C1517 C1515 1.561 . S
C1518 C1515 1.526 . S
C1518 C1519 1.396 . S
C1518 C1523 1.390 . S
C1519 C1513 1.465 . S
C1519 C1518 1.396 . S
C1519 C1520 1.399 . S
C1520 H1506 0.929 . S
C1520 C1519 1.399 . S
C1520 C1521 1.385 . S
C1521 H1507 0.931 . S
C1521 C1520 1.385 . S
C1521 C1522 1.389 . S
C1522 C1521 1.389 . S
C1522 C1523 1.387 . S
C1523 H1508 0.930 . S
C1523 C1518 1.390 . S
C1523 C1522 1.387 . S
H1524 C1536 0.930 . S
H1525 C1538 0.930 . S
H1526 C1539 0.930 . S
H1527 C1543 0.959 . S
H1528 C1543 0.959 . S
H1529 C1543 0.961 . S
H1530 C1544 0.960 . S
H1531 C1544 0.961 . S
H1532 C1544 0.959 . S
H1533 C1547 0.929 . S
H1534 C1548 0.931 . S
H1535 C1550 0.930 . S
C1536 H1524 0.930 . S
C1536 C1537 1.399 . S
C1536 C1541 1.399 . S
C1537 C1536 1.399 . S
C1537 C1538 1.376 . S
C1538 H1525 0.930 . S
C1538 C1537 1.376 . S
C1538 C1539 1.388 . S
C1539 H1526 0.930 . S
C1539 C1538 1.388 . S
C1539 C1540 1.390 . S
C1540 C1539 1.390 . S
C1540 C1541 1.394 . S
C1540 C1546 1.465 . S
C1541 C1536 1.399 . S
C1541 C1540 1.394 . S
C1541 C1542 1.516 . S
C1542 C1541 1.516 . S
C1542 C1543 1.502 . S
C1542 C1544 1.561 . S
C1542 C1545 1.526 . S
C1543 H1527 0.959 . S
C1543 H1528 0.959 . S
C1543 H1529 0.961 . S
C1543 C1542 1.502 . S
C1544 H1530 0.960 . S
C1544 H1531 0.961 . S
C1544 H1532 0.959 . S
C1544 C1542 1.561 . S
C1545 C1542 1.526 . S
C1545 C1546 1.396 . S
C1545 C1550 1.390 . S
C1546 C1540 1.465 . S
C1546 C1545 1.396 . S
C1546 C1547 1.399 . S
C1547 H1533 0.929 . S
C1547 C1546 1.399 . S
C1547 C1548 1.385 . S
C1548 H1534 0.931 . S
C1548 C1547 1.385 . S
C1548 C1549 1.389 . S
C1549 C1548 1.389 . S
C1549 C1550 1.387 . S
C1550 H1535 0.930 . S
C1550 C1545 1.390 . S
C1550 C1549 1.387 . S
H1551 C1563 0.930 . S
H1552 C1565 0.930 . S
H1553 C1566 0.930 . S
H1554 C1570 0.959 . S
H1555 C1570 0.959 . S
H1556 C1570 0.961 . S
H1557 C1571 0.960 . S
H1558 C1571 0.961 . S
H1559 C1571 0.959 . S
H1560 C1574 0.929 . S
H1561 C1575 0.931 . S
H1562 C1577 0.930 . S
C1563 H1551 0.930 . S
C1563 C1564 1.399 . S
C1563 C1568 1.399 . S
C1564 C1563 1.399 . S
C1564 C1565 1.376 . S
C1565 H1552 0.930 . S
C1565 C1564 1.376 . S
C1565 C1566 1.388 . S
C1566 H1553 0.930 . S
C1566 C1565 1.388 . S
C1566 C1567 1.390 . S
C1567 C1566 1.390 . S
C1567 C1568 1.394 . S
C1567 C1573 1.465 . S
C1568 C1563 1.399 . S
C1568 C1567 1.394 . S
C1568 C1569 1.516 . S
C1569 C1568 1.516 . S
C1569 C1570 1.502 . S
C1569 C1571 1.561 . S
C1569 C1572 1.526 . S
C1570 H1554 0.959 . S
C1570 H1555 0.959 . S
C1570 H1556 0.961 . S
C1570 C1569 1.502 . S
C1571 H1557 0.960 . S
C1571 H1558 0.961 . S
C1571 H1559 0.959 . S
C1571 C1569 1.561 . S
C1572 C1569 1.526 . S
C1572 C1573 1.396 . S
C1572 C1577 1.390 . S
C1573 C1567 1.465 . S
C1573 C1572 1.396 . S
C1573 C1574 1.399 . S
C1574 H1560 0.929 . S
C1574 C1573 1.399 . S
C1574 C1575 1.385 . S
C1575 H1561 0.931 . S
C1575 C1574 1.385 . S
C1575 C1576 1.389 . S
C1576 C1575 1.389 . S
C1576 C1577 1.387 . S
C1577 H1562 0.930 . S
C1577 C1572 1.390 . S
C1577 C1576 1.387 . S
H1578 C1590 0.930 . S
H1579 C1592 0.930 . S
H1580 C1593 0.930 . S
H1581 C1597 0.959 . S
H1582 C1597 0.959 . S
H1583 C1597 0.961 . S
H1584 C1598 0.960 . S
H1585 C1598 0.961 . S
H1586 C1598 0.959 . S
H1587 C1601 0.929 . S
H1588 C1602 0.931 . S
H1589 C1604 0.930 . S
C1590 H1578 0.930 . S
C1590 C1591 1.399 . S
C1590 C1595 1.399 . S
C1591 C1590 1.399 . S
C1591 C1592 1.376 . S
C1592 H1579 0.930 . S
C1592 C1591 1.376 . S
C1592 C1593 1.388 . S
C1593 H1580 0.930 . S
C1593 C1592 1.388 . S
C1593 C1594 1.390 . S
C1594 C1593 1.390 . S
C1594 C1595 1.394 . S
C1594 C1600 1.465 . S
C1595 C1590 1.399 . S
C1595 C1594 1.394 . S
C1595 C1596 1.516 . S
C1596 C1595 1.516 . S
C1596 C1597 1.502 . S
C1596 C1598 1.561 . S
C1596 C1599 1.526 . S
C1597 H1581 0.959 . S
C1597 H1582 0.959 . S
C1597 H1583 0.961 . S
C1597 C1596 1.502 . S
C1598 H1584 0.960 . S
C1598 H1585 0.961 . S
C1598 H1586 0.959 . S
C1598 C1596 1.561 . S
C1599 C1596 1.526 . S
C1599 C1600 1.396 . S
C1599 C1604 1.390 . S
C1600 C1594 1.465 . S
C1600 C1599 1.396 . S
C1600 C1601 1.399 . S
C1601 H1587 0.929 . S
C1601 C1600 1.399 . S
C1601 C1602 1.385 . S
C1602 H1588 0.931 . S
C1602 C1601 1.385 . S
C1602 C1603 1.389 . S
C1603 C1602 1.389 . S
C1603 C1604 1.387 . S
C1604 H1589 0.930 . S
C1604 C1599 1.390 . S
C1604 C1603 1.387 . S
H1605 C1617 0.930 . S
H1606 C1619 0.930 . S
H1607 C1620 0.930 . S
H1608 C1624 0.959 . S
H1609 C1624 0.959 . S
H1610 C1624 0.961 . S
H1611 C1625 0.960 . S
H1612 C1625 0.961 . S
H1613 C1625 0.959 . S
H1614 C1628 0.929 . S
H1615 C1629 0.931 . S
H1616 C1631 0.930 . S
C1617 H1605 0.930 . S
C1617 C1618 1.399 . S
C1617 C1622 1.399 . S
C1618 C1617 1.399 . S
C1618 C1619 1.376 . S
C1619 H1606 0.930 . S
C1619 C1618 1.376 . S
C1619 C1620 1.388 . S
C1620 H1607 0.930 . S
C1620 C1619 1.388 . S
C1620 C1621 1.390 . S
C1621 C1620 1.390 . S
C1621 C1622 1.394 . S
C1621 C1627 1.465 . S
C1622 C1617 1.399 . S
C1622 C1621 1.394 . S
C1622 C1623 1.516 . S
C1623 C1622 1.516 . S
C1623 C1624 1.502 . S
C1623 C1625 1.561 . S
C1623 C1626 1.526 . S
C1624 H1608 0.959 . S
C1624 H1609 0.959 . S
C1624 H1610 0.961 . S
C1624 C1623 1.502 . S
C1625 H1611 0.960 . S
C1625 H1612 0.961 . S
C1625 H1613 0.959 . S
C1625 C1623 1.561 . S
C1626 C1623 1.526 . S
C1626 C1627 1.396 . S
C1626 C1631 1.390 . S
C1627 C1621 1.465 . S
C1627 C1626 1.396 . S
C1627 C1628 1.399 . S
C1628 H1614 0.929 . S
C1628 C1627 1.399 . S
C1628 C1629 1.385 . S
C1629 H1615 0.931 . S
C1629 C1628 1.385 . S
C1629 C1630 1.389 . S
C1630 C1629 1.389 . S
C1630 C1631 1.387 . S
C1631 H1616 0.930 . S
C1631 C1626 1.390 . S
C1631 C1630 1.387 . S
C349 C99 1.368 . S
C361 C1 1.352 . S
C376 C15 1.111 . S
C388 C56 1.031 . S
C403 C83 1.309 . S
C415 C29 1.294 . S
C430 C55 0.705 . S
C442 C85 0.754 . S
C457 C124 1.222 . S
C469 C13 1.338 . S
C484 C27 0.725 . S
C496 C126 0.634 . S
C511 C152 1.147 . S
C523 C41 1.143 . S
C538 C154 0.897 . S
C550 C43 1.017 . S
C565 C68 0.988 . S
C577 C138 1.035 . S
C592 C71 0.724 . S
C604 C140 0.842 . S
C619 C166 1.135 . S
C631 C97 1.078 . S
C646 C112 1.200 . S
C658 C111 1.147 . S
C673 C294 1.067 . S
C685 C169 1.058 . S
C700 C194 0.773 . S
C712 C320 0.748 . S
C727 C197 1.053 . S
C739 C322 1.194 . S
C754 C334 0.917 . S
C766 C222 0.940 . S
C781 C236 1.294 . S
C793 C306 1.152 . S
C808 C279 0.937 . S
C820 C238 1.037 . S
C835 C181 0.927 . S
C847 C224 0.972 . S
C862 C182 0.993 . S
C874 C253 0.940 . S
C889 C209 1.243 . S
C901 C210 1.115 . S
C916 C250 1.088 . S
C928 C292 1.021 . S
C943 C265 0.936 . S
C955 C308 1.033 . S
C970 C280 0.925 . S
C982 C267 1.018 . S
C997 C57 2.726 1_545 S
C1009 C0 2.681 . S
C1024 C82 2.055 . S
C1036 C14 2.034 . S
C1051 C84 2.841 . S
C1063 C28 2.836 . S
C1078 C98 2.356 . S
C1090 C54 2.299 . S
C1105 C125 2.507 . S
C1117 C167 2.514 1_554 S
C1132 C127 2.513 . S
C1144 C113 2.574 . S
C1159 C153 2.395 . S
C1171 C139 2.371 . S
C1186 C141 1.940 . S
C1198 C155 1.892 . S
C1213 C264 2.763 1_455 S
C1225 C110 2.699 . S
C1240 C168 2.618 . S
C1252 C42 2.592 . S
C1267 C12 2.386 . S
C1279 C195 2.336 . S
C1294 C26 2.840 1_655 S
C1306 C196 2.841 . S
C1321 C70 2.519 . S
C1333 C266 2.560 . S
C1348 C69 1.707 . S
C1360 C223 1.714 . S
C1375 C96 2.082 . S
C1387 C237 2.089 . S
C1402 C225 2.448 . S
C1414 C239 2.567 . S
C1429 C180 1.717 . S
C1441 C252 1.728 . S
C1456 C211 2.538 . S
C1468 C183 2.615 . S
C1483 C278 1.910 . S
C1495 C208 1.973 . S
C1510 C293 2.399 . S
C1522 C335 2.299 . S
C1537 C281 2.133 . S
C1549 C295 2.183 . S
C1564 C321 2.646 . S
C1576 C307 2.662 . S
C1591 C323 2.279 . S
C1603 C309 2.182 . S
C1618 C40 1.990 . S
C1630 C251 1.920 . S
