# Generated by pormake.
# Topology wga, (5)-cn, num edge types: 1
# Building blocks:
#     Node 0, Type 0, BuildingBlock: XOMCOT_clean_sbu_1, # of connection points: 5
#     Node 1, Type 0, BuildingBlock: XOMCOT_clean_sbu_1, # of connection points: 5
#     Node 2, Type 0, BuildingBlock: XOMCOT_clean_sbu_1, # of connection points: 5
#     Node 3, Type 0, BuildingBlock: XOMCOT_clean_sbu_1, # of connection points: 5
#     Node 4, Type 0, BuildingBlock: XOMCOT_clean_sbu_1, # of connection points: 5
#     Node 5, Type 0, BuildingBlock: XOMCOT_clean_sbu_1, # of connection points: 5
#     Node 6, Type 0, BuildingBlock: XOMCOT_clean_sbu_1, # of connection points: 5
#     Node 7, Type 0, BuildingBlock: XOMCOT_clean_sbu_1, # of connection points: 5
#     Node 8, Type 0, BuildingBlock: XOMCOT_clean_sbu_1, # of connection points: 5
#     Node 9, Type 0, BuildingBlock: XOMCOT_clean_sbu_1, # of connection points: 5
#     Node 10, Type 0, BuildingBlock: XOMCOT_clean_sbu_1, # of connection points: 5
#     Node 11, Type 0, BuildingBlock: XOMCOT_clean_sbu_1, # of connection points: 5
#     Node 12, Type 0, BuildingBlock: XOMCOT_clean_sbu_1, # of connection points: 5
#     Node 13, Type 0, BuildingBlock: XOMCOT_clean_sbu_1, # of connection points: 5
#     Node 14, Type 0, BuildingBlock: XOMCOT_clean_sbu_1, # of connection points: 5
#     Node 15, Type 0, BuildingBlock: XOMCOT_clean_sbu_1, # of connection points: 5
#     Node 16, Type 0, BuildingBlock: XOMCOT_clean_sbu_1, # of connection points: 5
#     Node 17, Type 0, BuildingBlock: XOMCOT_clean_sbu_1, # of connection points: 5
#     Node 18, Type 0, BuildingBlock: XOMCOT_clean_sbu_1, # of connection points: 5
#     Node 19, Type 0, BuildingBlock: XOMCOT_clean_sbu_1, # of connection points: 5
#     Node 20, Type 0, BuildingBlock: XOMCOT_clean_sbu_1, # of connection points: 5
#     Node 21, Type 0, BuildingBlock: XOMCOT_clean_sbu_1, # of connection points: 5
#     Node 22, Type 0, BuildingBlock: XOMCOT_clean_sbu_1, # of connection points: 5
#     Node 23, Type 0, BuildingBlock: XOMCOT_clean_sbu_1, # of connection points: 5
#     Node 24, Type 0, BuildingBlock: XOMCOT_clean_sbu_1, # of connection points: 5
#     Node 25, Type 0, BuildingBlock: XOMCOT_clean_sbu_1, # of connection points: 5
#     Node 26, Type 0, BuildingBlock: XOMCOT_clean_sbu_1, # of connection points: 5
#     Node 27, Type 0, BuildingBlock: XOMCOT_clean_sbu_1, # of connection points: 5
#     Node 28, Type 0, BuildingBlock: XOMCOT_clean_sbu_1, # of connection points: 5
#     Node 29, Type 0, BuildingBlock: XOMCOT_clean_sbu_1, # of connection points: 5
#     Node 30, Type 0, BuildingBlock: XOMCOT_clean_sbu_1, # of connection points: 5
#     Node 31, Type 0, BuildingBlock: XOMCOT_clean_sbu_1, # of connection points: 5
#     Edge 32, Type (0, 0), BuildingBlock: ZUJKAS_clean_linker_0, # of connection points: 2
#     Edge 33, Type (0, 0), BuildingBlock: ZUJKAS_clean_linker_0, # of connection points: 2
#     Edge 34, Type (0, 0), BuildingBlock: ZUJKAS_clean_linker_0, # of connection points: 2
#     Edge 35, Type (0, 0), BuildingBlock: ZUJKAS_clean_linker_0, # of connection points: 2
#     Edge 36, Type (0, 0), BuildingBlock: ZUJKAS_clean_linker_0, # of connection points: 2
#     Edge 37, Type (0, 0), BuildingBlock: ZUJKAS_clean_linker_0, # of connection points: 2
#     Edge 38, Type (0, 0), BuildingBlock: ZUJKAS_clean_linker_0, # of connection points: 2
#     Edge 39, Type (0, 0), BuildingBlock: ZUJKAS_clean_linker_0, # of connection points: 2
#     Edge 40, Type (0, 0), BuildingBlock: ZUJKAS_clean_linker_0, # of connection points: 2
#     Edge 41, Type (0, 0), BuildingBlock: ZUJKAS_clean_linker_0, # of connection points: 2
#     Edge 42, Type (0, 0), BuildingBlock: ZUJKAS_clean_linker_0, # of connection points: 2
#     Edge 43, Type (0, 0), BuildingBlock: ZUJKAS_clean_linker_0, # of connection points: 2
#     Edge 44, Type (0, 0), BuildingBlock: ZUJKAS_clean_linker_0, # of connection points: 2
#     Edge 45, Type (0, 0), BuildingBlock: ZUJKAS_clean_linker_0, # of connection points: 2
#     Edge 46, Type (0, 0), BuildingBlock: ZUJKAS_clean_linker_0, # of connection points: 2
#     Edge 47, Type (0, 0), BuildingBlock: ZUJKAS_clean_linker_0, # of connection points: 2
#     Edge 48, Type (0, 0), BuildingBlock: ZUJKAS_clean_linker_0, # of connection points: 2
#     Edge 49, Type (0, 0), BuildingBlock: ZUJKAS_clean_linker_0, # of connection points: 2
#     Edge 50, Type (0, 0), BuildingBlock: ZUJKAS_clean_linker_0, # of connection points: 2
#     Edge 51, Type (0, 0), BuildingBlock: ZUJKAS_clean_linker_0, # of connection points: 2
#     Edge 52, Type (0, 0), BuildingBlock: ZUJKAS_clean_linker_0, # of connection points: 2
#     Edge 53, Type (0, 0), BuildingBlock: ZUJKAS_clean_linker_0, # of connection points: 2
#     Edge 54, Type (0, 0), BuildingBlock: ZUJKAS_clean_linker_0, # of connection points: 2
#     Edge 55, Type (0, 0), BuildingBlock: ZUJKAS_clean_linker_0, # of connection points: 2
#     Edge 56, Type (0, 0), BuildingBlock: ZUJKAS_clean_linker_0, # of connection points: 2
#     Edge 57, Type (0, 0), BuildingBlock: ZUJKAS_clean_linker_0, # of connection points: 2
#     Edge 58, Type (0, 0), BuildingBlock: ZUJKAS_clean_linker_0, # of connection points: 2
#     Edge 59, Type (0, 0), BuildingBlock: ZUJKAS_clean_linker_0, # of connection points: 2
#     Edge 60, Type (0, 0), BuildingBlock: ZUJKAS_clean_linker_0, # of connection points: 2
#     Edge 61, Type (0, 0), BuildingBlock: ZUJKAS_clean_linker_0, # of connection points: 2
#     Edge 62, Type (0, 0), BuildingBlock: ZUJKAS_clean_linker_0, # of connection points: 2
#     Edge 63, Type (0, 0), BuildingBlock: ZUJKAS_clean_linker_0, # of connection points: 2
#     Edge 64, Type (0, 0), BuildingBlock: ZUJKAS_clean_linker_0, # of connection points: 2
#     Edge 65, Type (0, 0), BuildingBlock: ZUJKAS_clean_linker_0, # of connection points: 2
#     Edge 66, Type (0, 0), BuildingBlock: ZUJKAS_clean_linker_0, # of connection points: 2
#     Edge 67, Type (0, 0), BuildingBlock: ZUJKAS_clean_linker_0, # of connection points: 2
#     Edge 68, Type (0, 0), BuildingBlock: ZUJKAS_clean_linker_0, # of connection points: 2
#     Edge 69, Type (0, 0), BuildingBlock: ZUJKAS_clean_linker_0, # of connection points: 2
#     Edge 70, Type (0, 0), BuildingBlock: ZUJKAS_clean_linker_0, # of connection points: 2
#     Edge 71, Type (0, 0), BuildingBlock: ZUJKAS_clean_linker_0, # of connection points: 2
#     Edge 72, Type (0, 0), BuildingBlock: ZUJKAS_clean_linker_0, # of connection points: 2
#     Edge 73, Type (0, 0), BuildingBlock: ZUJKAS_clean_linker_0, # of connection points: 2
#     Edge 74, Type (0, 0), BuildingBlock: ZUJKAS_clean_linker_0, # of connection points: 2
#     Edge 75, Type (0, 0), BuildingBlock: ZUJKAS_clean_linker_0, # of connection points: 2
#     Edge 76, Type (0, 0), BuildingBlock: ZUJKAS_clean_linker_0, # of connection points: 2
#     Edge 77, Type (0, 0), BuildingBlock: ZUJKAS_clean_linker_0, # of connection points: 2
#     Edge 78, Type (0, 0), BuildingBlock: ZUJKAS_clean_linker_0, # of connection points: 2
#     Edge 79, Type (0, 0), BuildingBlock: ZUJKAS_clean_linker_0, # of connection points: 2
#     Edge 80, Type (0, 0), BuildingBlock: ZUJKAS_clean_linker_0, # of connection points: 2
#     Edge 81, Type (0, 0), BuildingBlock: ZUJKAS_clean_linker_0, # of connection points: 2
#     Edge 82, Type (0, 0), BuildingBlock: ZUJKAS_clean_linker_0, # of connection points: 2
#     Edge 83, Type (0, 0), BuildingBlock: ZUJKAS_clean_linker_0, # of connection points: 2
#     Edge 84, Type (0, 0), BuildingBlock: ZUJKAS_clean_linker_0, # of connection points: 2
#     Edge 85, Type (0, 0), BuildingBlock: ZUJKAS_clean_linker_0, # of connection points: 2
#     Edge 86, Type (0, 0), BuildingBlock: ZUJKAS_clean_linker_0, # of connection points: 2
#     Edge 87, Type (0, 0), BuildingBlock: ZUJKAS_clean_linker_0, # of connection points: 2
#     Edge 88, Type (0, 0), BuildingBlock: ZUJKAS_clean_linker_0, # of connection points: 2
#     Edge 89, Type (0, 0), BuildingBlock: ZUJKAS_clean_linker_0, # of connection points: 2
#     Edge 90, Type (0, 0), BuildingBlock: ZUJKAS_clean_linker_0, # of connection points: 2
#     Edge 91, Type (0, 0), BuildingBlock: ZUJKAS_clean_linker_0, # of connection points: 2
#     Edge 92, Type (0, 0), BuildingBlock: ZUJKAS_clean_linker_0, # of connection points: 2
#     Edge 93, Type (0, 0), BuildingBlock: ZUJKAS_clean_linker_0, # of connection points: 2
#     Edge 94, Type (0, 0), BuildingBlock: ZUJKAS_clean_linker_0, # of connection points: 2
#     Edge 95, Type (0, 0), BuildingBlock: ZUJKAS_clean_linker_0, # of connection points: 2
#     Edge 96, Type (0, 0), BuildingBlock: ZUJKAS_clean_linker_0, # of connection points: 2
#     Edge 97, Type (0, 0), BuildingBlock: ZUJKAS_clean_linker_0, # of connection points: 2
#     Edge 98, Type (0, 0), BuildingBlock: ZUJKAS_clean_linker_0, # of connection points: 2
#     Edge 99, Type (0, 0), BuildingBlock: ZUJKAS_clean_linker_0, # of connection points: 2
#     Edge 100, Type (0, 0), BuildingBlock: ZUJKAS_clean_linker_0, # of connection points: 2
#     Edge 101, Type (0, 0), BuildingBlock: ZUJKAS_clean_linker_0, # of connection points: 2
#     Edge 102, Type (0, 0), BuildingBlock: ZUJKAS_clean_linker_0, # of connection points: 2
#     Edge 103, Type (0, 0), BuildingBlock: ZUJKAS_clean_linker_0, # of connection points: 2
#     Edge 104, Type (0, 0), BuildingBlock: ZUJKAS_clean_linker_0, # of connection points: 2
#     Edge 105, Type (0, 0), BuildingBlock: ZUJKAS_clean_linker_0, # of connection points: 2
#     Edge 106, Type (0, 0), BuildingBlock: ZUJKAS_clean_linker_0, # of connection points: 2
#     Edge 107, Type (0, 0), BuildingBlock: ZUJKAS_clean_linker_0, # of connection points: 2
#     Edge 108, Type (0, 0), BuildingBlock: ZUJKAS_clean_linker_0, # of connection points: 2
#     Edge 109, Type (0, 0), BuildingBlock: ZUJKAS_clean_linker_0, # of connection points: 2
#     Edge 110, Type (0, 0), BuildingBlock: ZUJKAS_clean_linker_0, # of connection points: 2
#     Edge 111, Type (0, 0), BuildingBlock: ZUJKAS_clean_linker_0, # of connection points: 2
# Relax obj value: 0.100
# Max RMSD: 0.111
# Mean RMSD: 0.111
data_MOF--net-wga--node1-XOMCOT_clean_sbu_1--edge1-ZUJKAS_clean_linker_0
_symmetry_space_group_name_H-M    P1
_symmetry_Int_Tables_number       1
_symmetry_cell_setting            triclinic
loop_
_symmetry_equiv_pos_as_xyz
'x, y, z'
_cell_length_a     138.38359
_cell_length_b     138.34053
_cell_length_c     22.201366
_cell_angle_alpha  90.003021
_cell_angle_beta   89.974571
_cell_angle_gamma 89.99692
loop_
_atom_site_label
_atom_site_type_symbol
_atom_site_fract_x
_atom_site_fract_y
_atom_site_fract_z
_atom_type_partial_charge
C0 C 0.07624 0.57829 0.05846 0.0
C1 C 0.07514 0.57927 0.99725 0.0
N2 N 0.07873 0.57131 0.97014 0.0
N3 N 0.08049 0.56976 0.07039 0.0
C4 C 0.08197 0.56566 0.01578 0.0
H5 H 0.07414 0.58351 0.09235 0.0
Co6 Co 0.08343 0.56581 0.14836 0.0
C7 C 0.08461 0.54461 0.14432 0.0
O8 O 0.07956 0.54445 0.1945 0.0
N9 N 0.08674 0.56209 0.22848 0.0
C10 C 0.09599 0.55641 0.30265 0.0
C11 C 0.09514 0.55757 0.24154 0.0
C12 C 0.0827 0.56374 0.28333 0.0
N13 N 0.08816 0.56029 0.32926 0.0
O14 O 0.09651 0.56991 0.13608 0.0
H15 H 0.10044 0.55537 0.20848 0.0
H16 H 0.07596 0.56747 0.2901 0.0
O17 O 0.0867 0.55272 0.11972 0.0
C18 C 0.09806 0.57839 0.15619 0.0
O19 O 0.0909 0.58297 0.18268 0.0
N20 N 0.07025 0.56266 0.1592 0.0
C21 C 0.05012 0.5611 0.1681 0.0
C22 C 0.0554 0.55486 0.1307 0.0
C23 C 0.06541 0.55592 0.12569 0.0
C24 C 0.06516 0.56914 0.19288 0.0
C25 C 0.05515 0.56836 0.1992 0.0
H26 H 0.06915 0.55155 0.09287 0.0
H27 H 0.06886 0.5752 0.21313 0.0
H28 H 0.08531 0.55866 1.00967 0.0
H29 H 0.0721 0.58549 0.97462 0.0
H30 H 0.10211 0.55324 0.3256 0.0
H31 H 0.05183 0.54931 0.10453 0.0
H32 H 0.05133 0.57365 0.22618 0.0
C33 C 0.67105 0.82342 0.32201 0.0
C34 C 0.66989 0.82261 0.26073 0.0
N35 N 0.67701 0.8276 0.23317 0.0
N36 N 0.67891 0.82883 0.33363 0.0
C37 C 0.68238 0.83132 0.27873 0.0
H38 H 0.66649 0.82021 0.35615 0.0
Co39 Co 0.68313 0.83172 0.41136 0.0
C40 C 0.70438 0.83284 0.40337 0.0
O41 O 0.70478 0.82785 0.45369 0.0
N42 N 0.68718 0.83496 0.49125 0.0
C43 C 0.69353 0.8439 0.56497 0.0
C44 C 0.69226 0.84306 0.50388 0.0
C45 C 0.6852 0.83117 0.5464 0.0
N46 N 0.68907 0.83642 0.59188 0.0
O47 O 0.67901 0.84486 0.40012 0.0
H48 H 0.69476 0.84819 0.47055 0.0
H49 H 0.68088 0.82481 0.55389 0.0
O50 O 0.69613 0.8349 0.3804 0.0
C51 C 0.67121 0.84679 0.42816 0.0
O52 O 0.66721 0.83999 0.46112 0.0
N53 N 0.68627 0.81851 0.42167 0.0
C54 C 0.68766 0.79836 0.4307 0.0
C55 C 0.69381 0.80356 0.39226 0.0
C56 C 0.69285 0.8136 0.38732 0.0
C57 C 0.67989 0.8135 0.45652 0.0
C58 C 0.68059 0.80348 0.46286 0.0
H59 H 0.69713 0.81729 0.35383 0.0
H60 H 0.67391 0.81725 0.47727 0.0
H61 H 0.68866 0.83587 0.27242 0.0
H62 H 0.66428 0.8185 0.23848 0.0
H63 H 0.69716 0.84977 0.58792 0.0
H64 H 0.6992 0.79991 0.36525 0.0
H65 H 0.67535 0.79974 0.49062 0.0
C66 C 0.42028 0.42003 0.57532 0.0
C67 C 0.42141 0.41901 0.51415 0.0
N68 N 0.41782 0.42695 0.48675 0.0
N69 N 0.41601 0.42855 0.58705 0.0
C70 C 0.41455 0.43262 0.53228 0.0
H71 H 0.42238 0.41484 0.60934 0.0
Co72 Co 0.41305 0.43253 0.66519 0.0
C73 C 0.41161 0.45373 0.65994 0.0
O74 O 0.4166 0.45407 0.71031 0.0
N75 N 0.40973 0.43624 0.74538 0.0
C76 C 0.40029 0.44166 0.81961 0.0
C77 C 0.40135 0.44082 0.75838 0.0
C78 C 0.41358 0.43427 0.80036 0.0
N79 N 0.40798 0.43752 0.84619 0.0
O80 O 0.40001 0.42824 0.65344 0.0
H81 H 0.39617 0.44324 0.72517 0.0
H82 H 0.42009 0.43016 0.80748 0.0
O83 O 0.40964 0.44554 0.63606 0.0
C84 C 0.39875 0.4197 0.6733 0.0
O85 O 0.4061 0.41531 0.6989 0.0
N86 N 0.42619 0.43583 0.67575 0.0
C87 C 0.44635 0.43732 0.6828 0.0
C88 C 0.441 0.44359 0.64596 0.0
C89 C 0.43097 0.44257 0.64191 0.0
C90 C 0.43133 0.42939 0.70941 0.0
C91 C 0.44136 0.43013 0.71475 0.0
H92 H 0.42719 0.44692 0.60926 0.0
H93 H 0.42767 0.42332 0.72984 0.0
H94 H 0.4112 0.43961 0.52598 0.0
H95 H 0.42446 0.41278 0.49177 0.0
H96 H 0.39427 0.44499 0.84276 0.0
H97 H 0.44454 0.44909 0.61923 0.0
H98 H 0.44521 0.42482 0.74135 0.0
C99 C 0.82984 0.16902 0.80711 0.0
C100 C 0.83139 0.16913 0.74589 0.0
N101 N 0.82356 0.16539 0.71833 0.0
N102 N 0.82107 0.16524 0.81859 0.0
C103 C 0.81742 0.16302 0.76357 0.0
H104 H 0.83471 0.17174 0.84122 0.0
Co105 Co 0.81578 0.16468 0.89627 0.0
C106 C 0.7977 0.15412 0.87541 0.0
O107 O 0.8002 0.14787 0.91713 0.0
N108 N 0.81056 0.16435 0.97509 0.0
C109 C 0.80071 0.16761 0.05172 0.0
C110 C 0.80169 0.16761 0.9902 0.0
C111 C 0.81487 0.16244 0.02872 0.0
N112 N 0.80901 0.1644 0.07618 0.0
O113 O 0.81947 0.15136 0.90147 0.0
H114 H 0.79637 0.17025 0.95853 0.0
H115 H 0.82231 0.16017 0.03315 0.0
O116 O 0.8033 0.16117 0.86282 0.0
C117 C 0.82809 0.15006 0.91981 0.0
O118 O 0.8332 0.15766 0.93548 0.0
N119 N 0.81294 0.17785 0.8917 0.0
C120 C 0.81128 0.19795 0.88912 0.0
C121 C 0.8054 0.19214 0.85235 0.0
C122 C 0.80639 0.18206 0.85395 0.0
C123 C 0.81869 0.18336 0.92769 0.0
C124 C 0.81795 0.1934 0.92739 0.0
H125 H 0.80206 0.17771 0.82396 0.0
H126 H 0.82396 0.17989 0.95649 0.0
H127 H 0.81027 0.16007 0.75651 0.0
H128 H 0.83779 0.17183 0.72342 0.0
H129 H 0.79442 0.17 0.07663 0.0
H130 H 0.80026 0.19535 0.82146 0.0
H131 H 0.82256 0.19757 0.95699 0.0
C132 C 0.09186 0.42125 0.98386 0.0
C133 C 0.09325 0.42112 0.04498 0.0
N134 N 0.08884 0.42889 0.06925 0.0
N135 N 0.08671 0.42914 0.96846 0.0
C136 C 0.08498 0.4337 0.02164 0.0
H137 H 0.09419 0.41569 0.95303 0.0
Co138 Co 0.0821 0.43128 0.88965 0.0
C139 C 0.08464 0.45253 0.86504 0.0
O140 O 0.07953 0.45215 0.81534 0.0
N141 N 0.07732 0.43285 0.80897 0.0
C142 C 0.06732 0.43205 0.73032 0.0
C143 C 0.06806 0.43143 0.79171 0.0
C144 C 0.08211 0.43418 0.75589 0.0
N145 N 0.07616 0.43371 0.70734 0.0
O146 O 0.09475 0.42826 0.85879 0.0
H147 H 0.0621 0.42972 0.82115 0.0
H148 H 0.08984 0.43522 0.75275 0.0
O149 O 0.08587 0.44492 0.89684 0.0
C150 C 0.09583 0.41996 0.83471 0.0
O151 O 0.08816 0.41448 0.82739 0.0
N152 N 0.06966 0.43355 0.92159 0.0
C153 C 0.05032 0.43385 0.958 0.0
C154 C 0.05513 0.44244 0.94258 0.0
C155 C 0.06482 0.44215 0.92463 0.0
C156 C 0.06526 0.42522 0.93937 0.0
C157 C 0.0556 0.42519 0.95769 0.0
H158 H 0.06816 0.44881 0.91126 0.0
H159 H 0.06919 0.41847 0.93706 0.0
H160 H 0.08057 0.44013 0.0256 0.0
H161 H 0.09709 0.41558 0.06965 0.0
H162 H 0.06074 0.43122 0.70459 0.0
H163 H 0.05135 0.44929 0.94174 0.0
H164 H 0.05227 0.41841 0.97033 0.0
C165 C 0.83106 0.83447 0.20524 0.0
C166 C 0.83261 0.83485 0.26646 0.0
N167 N 0.82403 0.83609 0.29418 0.0
N168 N 0.82156 0.83554 0.1939 0.0
C169 C 0.81744 0.83645 0.24911 0.0
H170 H 0.83653 0.83341 0.17106 0.0
Co171 Co 0.81619 0.83556 0.11621 0.0
C172 C 0.79795 0.84604 0.13794 0.0
O173 O 0.80034 0.85248 0.09704 0.0
N174 N 0.81084 0.83542 0.03744 0.0
C175 C 0.80059 0.83249 0.96241 0.0
C176 C 0.80178 0.83256 0.02378 0.0
C177 C 0.81507 0.83687 0.98297 0.0
N178 N 0.80897 0.83515 0.93629 0.0
O179 O 0.81973 0.84893 0.10825 0.0
H180 H 0.79641 0.83034 0.05633 0.0
H181 H 0.82259 0.83875 0.97745 0.0
O182 O 0.80369 0.83906 0.14954 0.0
C183 C 0.82805 0.85031 0.08523 0.0
O184 O 0.83302 0.84277 0.06676 0.0
N185 N 0.81354 0.82238 0.12344 0.0
C186 C 0.81191 0.80229 0.12806 0.0
C187 C 0.80589 0.80819 0.16336 0.0
C188 C 0.80685 0.81826 0.1607 0.0
C189 C 0.81946 0.81679 0.08909 0.0
C190 C 0.81874 0.80674 0.09044 0.0
H191 H 0.80235 0.82267 0.18931 0.0
H192 H 0.8248 0.82019 0.06051 0.0
H193 H 0.80978 0.83745 0.25633 0.0
H194 H 0.83951 0.83408 0.28886 0.0
H195 H 0.79402 0.83051 0.93913 0.0
H196 H 0.80063 0.80506 0.19376 0.0
H197 H 0.82347 0.8025 0.06191 0.0
C198 C 0.41734 0.57796 0.42517 0.0
C199 C 0.41834 0.57907 0.4864 0.0
N200 N 0.41536 0.57088 0.51374 0.0
N201 N 0.41375 0.56913 0.41348 0.0
C202 C 0.41257 0.56498 0.46824 0.0
H203 H 0.41905 0.58329 0.39111 0.0
Co204 Co 0.41112 0.56484 0.33569 0.0
C205 C 0.41033 0.54362 0.34311 0.0
O206 O 0.41543 0.54333 0.29318 0.0
N207 N 0.40812 0.56075 0.25565 0.0
C208 C 0.39919 0.55465 0.1812 0.0
C209 C 0.39993 0.55588 0.24234 0.0
C210 C 0.41214 0.56254 0.20093 0.0
N211 N 0.40688 0.55885 0.15482 0.0
O212 O 0.39792 0.56883 0.34605 0.0
H213 H 0.39466 0.55353 0.2752 0.0
H214 H 0.41868 0.56662 0.19434 0.0
O215 O 0.40802 0.5518 0.36601 0.0
C216 C 0.39593 0.57665 0.31838 0.0
O217 O 0.40268 0.58068 0.28511 0.0
N218 N 0.42438 0.56189 0.32673 0.0
C219 C 0.44457 0.56078 0.32014 0.0
C220 C 0.43933 0.55451 0.35753 0.0
C221 C 0.42928 0.55534 0.36139 0.0
C222 C 0.42941 0.56838 0.29286 0.0
C223 C 0.43946 0.56783 0.28773 0.0
H224 H 0.42556 0.55102 0.3945 0.0
H225 H 0.42564 0.57429 0.27145 0.0
H226 H 0.40978 0.55774 0.47457 0.0
H227 H 0.4209 0.58552 0.50888 0.0
H228 H 0.39321 0.55125 0.15803 0.0
H229 H 0.44299 0.54929 0.38582 0.0
H230 H 0.44319 0.57299 0.2594 0.0
C231 C 0.6719 0.17281 0.68591 0.0
C232 C 0.67114 0.17394 0.74728 0.0
N233 N 0.67819 0.16872 0.77381 0.0
N234 N 0.67943 0.16699 0.67343 0.0
C235 C 0.68308 0.16452 0.72791 0.0
H236 H 0.66725 0.17604 0.65233 0.0
Co237 Co 0.68318 0.1636 0.59553 0.0
C238 C 0.70443 0.16223 0.5993 0.0
O239 O 0.70465 0.16687 0.54764 0.0
N240 N 0.68675 0.15985 0.51569 0.0
C241 C 0.69247 0.15035 0.44277 0.0
C242 C 0.69154 0.15156 0.50384 0.0
C243 C 0.68465 0.16343 0.4602 0.0
N244 N 0.6881 0.15782 0.41497 0.0
O245 O 0.67897 0.15061 0.61069 0.0
H246 H 0.69413 0.14658 0.53777 0.0
H247 H 0.68035 0.1698 0.45248 0.0
O248 O 0.69629 0.16044 0.62433 0.0
C249 C 0.67077 0.1488 0.58705 0.0
O250 O 0.66658 0.15562 0.55513 0.0
N251 N 0.68643 0.1767 0.5816 0.0
C252 C 0.68781 0.19681 0.56962 0.0
C253 C 0.69422 0.19171 0.60691 0.0
C254 C 0.69325 0.18171 0.61346 0.0
C255 C 0.67988 0.18161 0.54747 0.0
C256 C 0.68057 0.1916 0.53969 0.0
H257 H 0.69767 0.17814 0.64672 0.0
H258 H 0.67378 0.17781 0.52852 0.0
H259 H 0.68927 0.15984 0.73382 0.0
H260 H 0.66571 0.17815 0.77059 0.0
H261 H 0.6961 0.14439 0.42084 0.0
H262 H 0.69962 0.19548 0.6333 0.0
H263 H 0.6753 0.19523 0.51156 0.0
C264 C 0.90544 0.42096 0.98904 0.0
C265 C 0.90405 0.42077 0.05016 0.0
N266 N 0.90826 0.42863 0.07453 0.0
N267 N 0.9104 0.42897 0.97376 0.0
C268 C 0.91201 0.43355 0.02699 0.0
H269 H 0.90325 0.41535 0.9581 0.0
Co270 Co 0.91496 0.43127 0.89501 0.0
C271 C 0.91219 0.45253 0.87167 0.0
O272 O 0.91732 0.45227 0.82197 0.0
N273 N 0.9197 0.43303 0.81429 0.0
C274 C 0.9297 0.43258 0.7355 0.0
C275 C 0.929 0.43191 0.79688 0.0
C276 C 0.91487 0.43426 0.76127 0.0
N277 N 0.92082 0.43398 0.71264 0.0
O278 O 0.90234 0.42814 0.86415 0.0
H279 H 0.93502 0.43038 0.82616 0.0
H280 H 0.90711 0.43507 0.75821 0.0
O281 O 0.91103 0.44485 0.90301 0.0
C282 C 0.90141 0.41983 0.83995 0.0
O283 O 0.90916 0.41446 0.83291 0.0
N284 N 0.92736 0.43364 0.9269 0.0
C285 C 0.94677 0.43404 0.96182 0.0
C286 C 0.9418 0.44263 0.94845 0.0
C287 C 0.93209 0.44228 0.93123 0.0
C288 C 0.9319 0.42529 0.94306 0.0
C289 C 0.94159 0.42532 0.96056 0.0
H290 H 0.92861 0.44896 0.91938 0.0
H291 H 0.92806 0.4185 0.93985 0.0
H292 H 0.91626 0.44009 0.03102 0.0
H293 H 0.90034 0.41513 0.07478 0.0
H294 H 0.93631 0.43195 0.70968 0.0
H295 H 0.94549 0.44953 0.94855 0.0
H296 H 0.94505 0.41853 0.97169 0.0
C297 C 0.3266 0.17106 0.70248 0.0
C298 C 0.32768 0.17186 0.76379 0.0
N299 N 0.32067 0.16666 0.79094 0.0
N300 N 0.3189 0.16546 0.69043 0.0
C301 C 0.31543 0.16284 0.74511 0.0
H302 H 0.33113 0.17439 0.66862 0.0
Co303 Co 0.31492 0.1624 0.61244 0.0
C304 C 0.2937 0.16154 0.6176 0.0
O305 O 0.29358 0.1665 0.5671 0.0
N306 N 0.31115 0.15898 0.53253 0.0
C307 C 0.30491 0.14985 0.45934 0.0
C308 C 0.30617 0.15079 0.52036 0.0
C309 C 0.31307 0.16272 0.47719 0.0
N310 N 0.30926 0.15735 0.43203 0.0
O311 O 0.31899 0.14932 0.62515 0.0
H312 H 0.30368 0.14572 0.55401 0.0
H313 H 0.31725 0.16917 0.46933 0.0
O314 O 0.30181 0.15933 0.64182 0.0
C315 C 0.32762 0.1481 0.60668 0.0
O316 O 0.33209 0.15551 0.58229 0.0
N317 N 0.31184 0.1756 0.60075 0.0
C318 C 0.31068 0.19577 0.59183 0.0
C319 C 0.30441 0.19063 0.62976 0.0
C320 C 0.30527 0.18059 0.63478 0.0
C321 C 0.3183 0.18055 0.56609 0.0
C322 C 0.31771 0.19058 0.55982 0.0
H323 H 0.30098 0.17696 0.66843 0.0
H324 H 0.32426 0.17675 0.54548 0.0
H325 H 0.30929 0.1581 0.75105 0.0
H326 H 0.33317 0.17609 0.78637 0.0
H327 H 0.30133 0.14391 0.43673 0.0
H328 H 0.29919 0.19437 0.65772 0.0
H329 H 0.32288 0.19424 0.53116 0.0
C330 C 0.57405 0.57583 0.42387 0.0
C331 C 0.57327 0.57698 0.48517 0.0
N332 N 0.57819 0.5698 0.51257 0.0
N333 N 0.57937 0.56791 0.41208 0.0
C334 C 0.58184 0.5644 0.4669 0.0
H335 H 0.57088 0.58044 0.38983 0.0
Co336 Co 0.58222 0.56369 0.33428 0.0
C337 C 0.58297 0.54244 0.34241 0.0
O338 O 0.57778 0.54207 0.29287 0.0
N339 N 0.58542 0.55962 0.25442 0.0
C340 C 0.59426 0.55307 0.18085 0.0
C341 C 0.59342 0.55437 0.24192 0.0
C342 C 0.5817 0.56167 0.19921 0.0
N343 N 0.58689 0.55768 0.15382 0.0
O344 O 0.59537 0.56764 0.34588 0.0
H345 H 0.59848 0.55177 0.27533 0.0
H346 H 0.57542 0.56611 0.19163 0.0
O347 O 0.58527 0.55066 0.36484 0.0
C348 C 0.59739 0.5756 0.31999 0.0
O349 O 0.59068 0.5798 0.2873 0.0
N350 N 0.56897 0.56071 0.32396 0.0
C351 C 0.54879 0.5597 0.3165 0.0
C352 C 0.55394 0.55347 0.35461 0.0
C353 C 0.56399 0.55426 0.35889 0.0
C354 C 0.56402 0.56713 0.28913 0.0
C355 C 0.55398 0.56662 0.2836 0.0
H356 H 0.56765 0.55001 0.39263 0.0
H357 H 0.56784 0.57303 0.26783 0.0
H358 H 0.58632 0.55807 0.47306 0.0
H359 H 0.56923 0.58263 0.50755 0.0
H360 H 0.60007 0.54932 0.158 0.0
H361 H 0.55021 0.54834 0.38324 0.0
H362 H 0.55032 0.57176 0.25477 0.0
C363 C 0.17252 0.82566 0.214 0.0
C364 C 0.17138 0.82486 0.27526 0.0
N365 N 0.17838 0.83005 0.30261 0.0
N366 N 0.18025 0.83125 0.20222 0.0
C367 C 0.18366 0.83387 0.25697 0.0
H368 H 0.16805 0.8223 0.17997 0.0
Co369 Co 0.18433 0.8341 0.12427 0.0
C370 C 0.20548 0.83566 0.13091 0.0
O371 O 0.20587 0.8304 0.08166 0.0
N372 N 0.18817 0.83731 0.04423 0.0
C373 C 0.19422 0.84634 0.96995 0.0
C374 C 0.19301 0.84553 0.03109 0.0
C375 C 0.18626 0.83339 0.98936 0.0
N376 N 0.18996 0.8387 0.94356 0.0
O377 O 0.17986 0.84711 0.13448 0.0
H378 H 0.19539 0.85077 0.0641 0.0
H379 H 0.18212 0.8269 0.98232 0.0
O380 O 0.19726 0.83776 0.15408 0.0
C381 C 0.17128 0.84821 0.11501 0.0
O382 O 0.16692 0.84071 0.09079 0.0
N383 N 0.18788 0.82095 0.11532 0.0
C384 C 0.18976 0.80079 0.1123 0.0
C385 C 0.19566 0.80641 0.14982 0.0
C386 C 0.19445 0.81643 0.15179 0.0
C387 C 0.18179 0.81555 0.08082 0.0
C388 C 0.18274 0.8055 0.07746 0.0
H389 H 0.19848 0.82043 0.18505 0.0
H390 H 0.17575 0.81897 0.05861 0.0
H391 H 0.18984 0.83856 0.2631 0.0
H392 H 0.16589 0.82062 0.29764 0.0
H393 H 0.19766 0.85229 0.94663 0.0
H394 H 0.20102 0.80308 0.17873 0.0
H395 H 0.17768 0.80143 0.05023 0.0
C396 C 0.91923 0.57802 0.07437 0.0
C397 C 0.92022 0.57907 0.01312 0.0
N398 N 0.9169 0.57099 0.98598 0.0
N399 N 0.91531 0.56933 0.08633 0.0
C400 C 0.91393 0.56521 0.03169 0.0
H401 H 0.92118 0.58329 0.10828 0.0
Co402 Co 0.91262 0.56519 0.16434 0.0
C403 C 0.91154 0.54399 0.15834 0.0
O404 O 0.91674 0.54375 0.20788 0.0
N405 N 0.90955 0.56127 0.24448 0.0
C406 C 0.90051 0.55531 0.31886 0.0
C407 C 0.90126 0.55658 0.25779 0.0
C408 C 0.91363 0.56293 0.29918 0.0
N409 N 0.9083 0.55931 0.3452 0.0
O410 O 0.8995 0.56933 0.15423 0.0
H411 H 0.89593 0.55435 0.22494 0.0
H412 H 0.92029 0.56682 0.30584 0.0
O413 O 0.9093 0.55215 0.13485 0.0
C414 C 0.89815 0.57775 0.17588 0.0
O415 O 0.90549 0.58212 0.20181 0.0
N416 N 0.92583 0.56206 0.17326 0.0
C417 C 0.946 0.56069 0.17905 0.0
C418 C 0.94065 0.55449 0.14181 0.0
C419 C 0.93061 0.55545 0.13839 0.0
C420 C 0.93097 0.56847 0.20704 0.0
C421 C 0.94102 0.56779 0.21178 0.0
H422 H 0.9268 0.55114 0.10563 0.0
H423 H 0.92729 0.57445 0.22839 0.0
H424 H 0.91087 0.55808 0.02563 0.0
H425 H 0.92299 0.58542 0.99053 0.0
H426 H 0.89448 0.552 0.34205 0.0
H427 H 0.94419 0.54906 0.11448 0.0
H428 H 0.94487 0.57305 0.23874 0.0
C429 C 0.16922 0.1722 0.8346 0.0
C430 C 0.16815 0.17328 0.77345 0.0
N431 N 0.17614 0.16986 0.74587 0.0
N432 N 0.17785 0.16812 0.84613 0.0
C433 C 0.18191 0.16673 0.79127 0.0
H434 H 0.16401 0.17419 0.86874 0.0
Co435 Co 0.18192 0.1653 0.92421 0.0
C436 C 0.20313 0.16424 0.91871 0.0
O437 O 0.20338 0.16942 0.96835 0.0
N438 N 0.18573 0.16212 1.00438 0.0
C439 C 0.1914 0.15283 0.07852 0.0
C440 C 0.19052 0.15385 0.01733 0.0
C441 C 0.18367 0.16592 0.05939 0.0
N442 N 0.18706 0.1604 0.10517 0.0
O443 O 0.17787 0.15217 0.91302 0.0
H444 H 0.19305 0.14873 0.9841 0.0
H445 H 0.17938 0.17232 0.06654 0.0
O446 O 0.19498 0.16206 0.89503 0.0
C447 C 0.16939 0.15069 0.93333 0.0
O448 O 0.16481 0.15794 0.95889 0.0
N449 N 0.18499 0.17851 0.93422 0.0
C450 C 0.18608 0.19871 0.94021 0.0
C451 C 0.19243 0.19344 0.90347 0.0
C452 C 0.19161 0.18339 0.89992 0.0
C453 C 0.17849 0.18357 0.9679 0.0
C454 C 0.17903 0.19362 0.97267 0.0
H455 H 0.19598 0.17964 0.86711 0.0
H456 H 0.17253 0.17982 0.98893 0.0
H457 H 0.18897 0.16355 0.78483 0.0
H458 H 0.16182 0.17617 0.75121 0.0
H459 H 0.19489 0.14688 0.10159 0.0
H460 H 0.19768 0.19709 0.87525 0.0
H461 H 0.17381 0.19738 1.00048 0.0
C462 C 0.57517 0.42003 0.57215 0.0
C463 C 0.57438 0.41893 0.51085 0.0
N464 N 0.57966 0.42587 0.48364 0.0
N465 N 0.58085 0.42769 0.5841 0.0
C466 C 0.58353 0.43109 0.5294 0.0
H467 H 0.57177 0.41557 0.60607 0.0
Co468 Co 0.58388 0.4317 0.66198 0.0
C469 C 0.58502 0.45292 0.65614 0.0
O470 O 0.58005 0.45319 0.7066 0.0
N471 N 0.58727 0.43548 0.74184 0.0
C472 C 0.59638 0.44159 0.81549 0.0
C473 C 0.59546 0.44041 0.75438 0.0
C474 C 0.5835 0.43349 0.79699 0.0
N475 N 0.58885 0.43722 0.84245 0.0
O476 O 0.59693 0.42755 0.64957 0.0
H477 H 0.60058 0.4429 0.72095 0.0
H478 H 0.57706 0.42929 0.80448 0.0
O479 O 0.58712 0.44474 0.63234 0.0
C480 C 0.59838 0.41898 0.66844 0.0
O481 O 0.59113 0.41436 0.69374 0.0
N482 N 0.57069 0.43494 0.67317 0.0
C483 C 0.55055 0.43659 0.68117 0.0
C484 C 0.55588 0.44267 0.64309 0.0
C485 C 0.56589 0.44156 0.63856 0.0
C486 C 0.56555 0.42864 0.70791 0.0
C487 C 0.55553 0.42947 0.71374 0.0
H488 H 0.56965 0.44576 0.60497 0.0
H489 H 0.56918 0.42259 0.72869 0.0
H490 H 0.58833 0.43718 0.52342 0.0
H491 H 0.5701 0.41347 0.48834 0.0
H492 H 0.60232 0.4451 0.83838 0.0
H493 H 0.55234 0.44811 0.61583 0.0
H494 H 0.55168 0.42428 0.74125 0.0
C495 C 0.32921 0.82842 0.35007 0.0
C496 C 0.33022 0.8274 0.28881 0.0
N497 N 0.32218 0.8308 0.26176 0.0
N498 N 0.32057 0.83244 0.3621 0.0
C499 C 0.31644 0.83386 0.30752 0.0
H500 H 0.33447 0.82645 0.38393 0.0
Co501 Co 0.31654 0.8353 0.44006 0.0
C502 C 0.29537 0.83683 0.435 0.0
O503 O 0.29508 0.83171 0.48485 0.0
N504 N 0.31274 0.83853 0.52024 0.0
C505 C 0.30702 0.84774 0.59458 0.0
C506 C 0.30827 0.84695 0.5335 0.0
C507 C 0.31428 0.83441 0.57498 0.0
N508 N 0.31081 0.83984 0.62096 0.0
O509 O 0.32092 0.84833 0.42867 0.0
H510 H 0.30617 0.85232 0.5006 0.0
H511 H 0.31798 0.82764 0.58167 0.0
O512 O 0.30355 0.83884 0.41094 0.0
C513 C 0.329 0.85012 0.45381 0.0
O514 O 0.33307 0.84329 0.48624 0.0
N515 N 0.31314 0.82215 0.44965 0.0
C516 C 0.31137 0.80199 0.45465 0.0
C517 C 0.30527 0.80751 0.41776 0.0
C518 C 0.30642 0.81753 0.41476 0.0
C519 C 0.31944 0.81685 0.48332 0.0
C520 C 0.31855 0.8068 0.4877 0.0
H521 H 0.30219 0.82145 0.38208 0.0
H522 H 0.3255 0.82038 0.50473 0.0
H523 H 0.30937 0.83702 0.30153 0.0
H524 H 0.33653 0.82456 0.26613 0.0
H525 H 0.30386 0.85385 0.61774 0.0
H526 H 0.29978 0.8041 0.39024 0.0
H527 H 0.32373 0.80281 0.51448 0.0
C528 C 0.57949 0.07771 0.59792 0.0
C529 C 0.57851 0.07891 0.53676 0.0
N530 N 0.58131 0.0707 0.50892 0.0
N531 N 0.58291 0.06879 0.6092 0.0
C532 C 0.58399 0.06468 0.55419 0.0
H533 H 0.57792 0.08303 0.63223 0.0
Co534 Co 0.58551 0.06443 0.68701 0.0
C535 C 0.58626 0.0432 0.6784 0.0
O536 O 0.58105 0.04283 0.72788 0.0
N537 N 0.58848 0.06027 0.76707 0.0
C538 C 0.59753 0.05423 0.84123 0.0
C539 C 0.59656 0.05519 0.78003 0.0
C540 C 0.58474 0.06244 0.8221 0.0
N541 N 0.59011 0.05882 0.86791 0.0
O542 O 0.59872 0.06841 0.677 0.0
H543 H 0.60165 0.05255 0.74684 0.0
H544 H 0.57853 0.067 0.82924 0.0
O545 O 0.58862 0.05142 0.65623 0.0
C546 C 0.60075 0.07616 0.70532 0.0
O547 O 0.59403 0.08016 0.73896 0.0
N548 N 0.57225 0.06149 0.69578 0.0
C549 C 0.55204 0.06051 0.70168 0.0
C550 C 0.55727 0.05426 0.66407 0.0
C551 C 0.56733 0.05503 0.66058 0.0
C552 C 0.56723 0.06793 0.73016 0.0
C553 C 0.55718 0.06744 0.7349 0.0
H554 H 0.57105 0.05074 0.62727 0.0
H555 H 0.57102 0.0738 0.75189 0.0
H556 H 0.58664 0.0574 0.54754 0.0
H557 H 0.5761 0.08545 0.51472 0.0
H558 H 0.60335 0.05054 0.86429 0.0
H559 H 0.55359 0.04912 0.63527 0.0
H560 H 0.55346 0.07259 0.7634 0.0
C561 C 0.16951 0.32697 0.79856 0.0
C562 C 0.16854 0.32618 0.73718 0.0
N563 N 0.17541 0.33163 0.71057 0.0
N564 N 0.17701 0.33282 0.81115 0.0
C565 C 0.18046 0.33559 0.75675 0.0
H566 H 0.16501 0.32351 0.83208 0.0
Co567 Co 0.18069 0.33613 0.88922 0.0
C568 C 0.2019 0.33708 0.88758 0.0
O569 O 0.20182 0.33227 0.93866 0.0
N570 N 0.18416 0.33982 0.96922 0.0
C571 C 0.19011 0.34916 0.04229 0.0
C572 C 0.18891 0.34814 0.98125 0.0
C573 C 0.18233 0.33605 0.02461 0.0
N574 N 0.18596 0.34155 0.06968 0.0
O575 O 0.17667 0.34916 0.87407 0.0
H576 H 0.19133 0.35323 0.94747 0.0
H577 H 0.17841 0.32945 0.03258 0.0
O578 O 0.1939 0.33915 0.86153 0.0
C579 C 0.16803 0.35058 0.89171 0.0
O580 O 0.16342 0.34337 0.91749 0.0
N581 N 0.18374 0.32297 0.90307 0.0
C582 C 0.185 0.30285 0.91523 0.0
C583 C 0.19139 0.30789 0.87757 0.0
C584 C 0.19049 0.3179 0.87091 0.0
C585 C 0.17716 0.31811 0.93727 0.0
C586 C 0.17778 0.30812 0.94518 0.0
H587 H 0.19491 0.32144 0.83752 0.0
H588 H 0.1711 0.32197 0.95647 0.0
H589 H 0.18642 0.34057 0.75125 0.0
H590 H 0.16321 0.32182 0.71419 0.0
H591 H 0.19355 0.35519 0.06481 0.0
H592 H 0.19676 0.30409 0.85112 0.0
H593 H 0.17252 0.30454 0.97356 0.0
C594 C 0.92193 0.92146 0.0732 0.0
C595 C 0.92303 0.92041 1.01202 0.0
N596 N 0.91955 0.92839 0.98451 0.0
N597 N 0.91779 0.93005 0.08482 0.0
C598 C 0.91638 0.93412 0.02999 0.0
H599 H 0.92391 0.91624 0.10729 0.0
Co600 Co 0.91474 0.93404 0.16274 0.0
C601 C 0.91334 0.95526 0.15839 0.0
O602 O 0.91811 0.95549 0.20956 0.0
N603 N 0.91133 0.93777 0.24293 0.0
C604 C 0.90185 0.94323 0.31687 0.0
C605 C 0.90294 0.94235 0.25568 0.0
C606 C 0.91515 0.93584 0.29805 0.0
N607 N 0.90953 0.9391 0.34371 0.0
O608 O 0.90167 0.92985 0.14979 0.0
H609 H 0.89778 0.94476 0.2223 0.0
H610 H 0.92166 0.93174 0.30536 0.0
O611 O 0.9115 0.94711 0.13353 0.0
C612 C 0.89962 0.92196 0.17652 0.0
O613 O 0.90628 0.91787 0.21019 0.0
N614 N 0.92788 0.93725 0.17424 0.0
C615 C 0.948 0.93881 0.1839 0.0
C616 C 0.94276 0.94509 0.14661 0.0
C617 C 0.93275 0.94405 0.1413 0.0
C618 C 0.93294 0.93077 0.20811 0.0
C619 C 0.94295 0.93155 0.21477 0.0
H620 H 0.92904 0.94845 0.10855 0.0
H621 H 0.92923 0.92468 0.22797 0.0
H622 H 0.9131 0.94114 0.02363 0.0
H623 H 0.92595 0.9141 0.98972 0.0
H624 H 0.89582 0.94658 0.33979 0.0
H625 H 0.94637 0.95065 0.12066 0.0
H626 H 0.94673 0.92623 0.24168 0.0
C627 C 0.32652 0.67214 0.32811 0.0
C628 C 0.32776 0.67286 0.26681 0.0
N629 N 0.32047 0.66812 0.23921 0.0
N630 N 0.31846 0.66703 0.33967 0.0
C631 C 0.31494 0.66463 0.28474 0.0
H632 H 0.33116 0.67523 0.36229 0.0
Co633 Co 0.31401 0.6644 0.41734 0.0
C634 C 0.29279 0.66398 0.4063 0.0
O635 O 0.29224 0.66951 0.45427 0.0
N636 N 0.3097 0.66142 0.4971 0.0
C637 C 0.30277 0.65289 0.57076 0.0
C638 C 0.30407 0.65368 0.50966 0.0
C639 C 0.31198 0.66501 0.55232 0.0
N640 N 0.30776 0.66001 0.59778 0.0
O641 O 0.31785 0.65117 0.40731 0.0
H642 H 0.30127 0.64872 0.47633 0.0
H643 H 0.31679 0.671 0.55987 0.0
O644 O 0.30104 0.6614 0.38571 0.0
C645 C 0.32572 0.64913 0.43429 0.0
O646 O 0.32987 0.65587 0.46695 0.0
N647 N 0.31114 0.6777 0.42628 0.0
C648 C 0.30983 0.69787 0.43503 0.0
C649 C 0.30394 0.69271 0.39488 0.0
C650 C 0.30489 0.68268 0.39 0.0
C651 C 0.31736 0.68267 0.46238 0.0
C652 C 0.31669 0.6927 0.46861 0.0
H653 H 0.30081 0.67902 0.35542 0.0
H654 H 0.32322 0.6789 0.4842 0.0
H655 H 0.30849 0.66033 0.27837 0.0
H656 H 0.33352 0.67675 0.24456 0.0
H657 H 0.29877 0.64726 0.59364 0.0
H658 H 0.29873 0.6964 0.36666 0.0
H659 H 0.32178 0.6964 0.49757 0.0
C660 C 0.57924 0.91965 0.44048 0.0
C661 C 0.57815 0.91857 0.50166 0.0
N662 N 0.58145 0.92662 0.52922 0.0
N663 N 0.5832 0.92833 0.42891 0.0
C664 C 0.58451 0.93242 0.48378 0.0
H665 H 0.57734 0.9144 0.40636 0.0
Co666 Co 0.58608 0.93244 0.35094 0.0
C667 C 0.58749 0.95364 0.35763 0.0
O668 O 0.58253 0.95401 0.3072 0.0
N669 N 0.58933 0.93631 0.27077 0.0
C670 C 0.5987 0.94185 0.19653 0.0
C671 C 0.59766 0.94097 0.25777 0.0
C672 C 0.58549 0.93433 0.21576 0.0
N673 N 0.59105 0.93764 0.16993 0.0
O674 O 0.59912 0.92804 0.36196 0.0
H675 H 0.60284 0.94339 0.29098 0.0
H676 H 0.57904 0.93012 0.20861 0.0
O677 O 0.58953 0.94541 0.38097 0.0
C678 C 0.60065 0.91997 0.33588 0.0
O679 O 0.59359 0.91609 0.30459 0.0
N680 N 0.57294 0.9358 0.3411 0.0
C681 C 0.55282 0.93763 0.33273 0.0
C682 C 0.55819 0.94369 0.37076 0.0
C683 C 0.56819 0.94251 0.37544 0.0
C684 C 0.56776 0.9295 0.30673 0.0
C685 C 0.55775 0.93041 0.30069 0.0
H686 H 0.57199 0.94673 0.40868 0.0
H687 H 0.57136 0.92342 0.286 0.0
H688 H 0.58761 0.93952 0.49022 0.0
H689 H 0.57533 0.91222 0.52394 0.0
H690 H 0.6047 0.94522 0.1734 0.0
H691 H 0.55468 0.9492 0.39766 0.0
H692 H 0.55387 0.92523 0.27324 0.0
C693 C 0.32683 0.32497 0.68994 0.0
C694 C 0.32791 0.32422 0.75126 0.0
N695 N 0.32081 0.32931 0.77823 0.0
N696 N 0.31904 0.33046 0.67774 0.0
C697 C 0.31552 0.33304 0.73233 0.0
H698 H 0.33141 0.3217 0.65615 0.0
Co699 Co 0.31507 0.33338 0.59966 0.0
C700 C 0.29386 0.33436 0.60449 0.0
O701 O 0.29373 0.32916 0.5549 0.0
N702 N 0.31131 0.33666 0.51958 0.0
C703 C 0.30509 0.34565 0.44568 0.0
C704 C 0.30636 0.34483 0.50677 0.0
C705 C 0.31323 0.3328 0.46457 0.0
N706 N 0.30943 0.33808 0.41902 0.0
O707 O 0.31917 0.34647 0.61143 0.0
H708 H 0.30388 0.34999 0.54 0.0
H709 H 0.31739 0.32632 0.45722 0.0
O710 O 0.30197 0.33661 0.62861 0.0
C711 C 0.32779 0.34773 0.59309 0.0
O712 O 0.33235 0.34033 0.56908 0.0
N713 N 0.31194 0.32017 0.58904 0.0
C714 C 0.31067 0.29998 0.58211 0.0
C715 C 0.30444 0.30525 0.6196 0.0
C716 C 0.30535 0.3153 0.62363 0.0
C717 C 0.31836 0.3151 0.55483 0.0
C718 C 0.31773 0.30506 0.54955 0.0
H719 H 0.30108 0.31904 0.65696 0.0
H720 H 0.32434 0.31882 0.53382 0.0
H721 H 0.3093 0.33768 0.73816 0.0
H722 H 0.33346 0.32009 0.77398 0.0
H723 H 0.30152 0.35154 0.42257 0.0
H724 H 0.29921 0.30161 0.64797 0.0
H725 H 0.32287 0.3013 0.52122 0.0
C726 C 0.91892 0.08178 0.96729 0.0
C727 C 0.91904 0.08333 0.02849 0.0
N728 N 0.91522 0.07553 0.05608 0.0
N729 N 0.91506 0.07304 0.95584 0.0
C730 C 0.91281 0.06941 1.01086 0.0
H731 H 0.92167 0.08663 0.93315 0.0
Co732 Co 0.91442 0.0678 0.87811 0.0
C733 C 0.90391 0.04968 0.89954 0.0
O734 O 0.89743 0.05228 0.85946 0.0
N735 N 0.914 0.06262 0.79926 0.0
C736 C 0.91715 0.05279 0.72239 0.0
C737 C 0.91718 0.05372 0.78392 0.0
C738 C 0.9121 0.06698 0.74576 0.0
N739 N 0.914 0.06113 0.69816 0.0
O740 O 0.90109 0.07146 0.87364 0.0
H741 H 0.91981 0.04837 0.8154 0.0
H742 H 0.9099 0.07445 0.74155 0.0
O743 O 0.91099 0.05527 0.9113 0.0
C744 C 0.8997 0.08009 0.85584 0.0
O745 O 0.90724 0.0853 0.84026 0.0
N746 N 0.9276 0.06496 0.88195 0.0
C747 C 0.94767 0.06299 0.88236 0.0
C748 C 0.94188 0.05724 0.92006 0.0
C749 C 0.93183 0.05839 0.91955 0.0
C750 C 0.9331 0.07062 0.8453 0.0
C751 C 0.94313 0.06972 0.84452 0.0
H752 H 0.9275 0.05414 0.95015 0.0
H753 H 0.92963 0.07591 0.81664 0.0
H754 H 0.90979 0.06228 0.01792 0.0
H755 H 0.92178 0.08971 0.05093 0.0
H756 H 0.91949 0.0465 0.69731 0.0
H757 H 0.9451 0.05207 0.95071 0.0
H758 H 0.94728 0.07425 0.81428 0.0
C759 C 0.16748 0.66753 0.20266 0.0
C760 C 0.16592 0.6676 0.26387 0.0
N761 N 0.17385 0.66409 0.29146 0.0
N762 N 0.17635 0.66399 0.19119 0.0
C763 C 0.18006 0.6619 0.24625 0.0
H764 H 0.16254 0.67014 0.16857 0.0
Co765 Co 0.18168 0.66365 0.11355 0.0
C766 C 0.19983 0.65303 0.13027 0.0
O767 O 0.19781 0.64765 0.08316 0.0
N768 N 0.18693 0.66359 0.03465 0.0
C769 C 0.1967 0.6672 0.95821 0.0
C770 C 0.19571 0.66714 0.01972 0.0
C771 C 0.1827 0.66158 0.98091 0.0
N772 N 0.18851 0.66375 0.93358 0.0
O773 O 0.17778 0.65042 0.10593 0.0
H774 H 0.20095 0.66986 0.05158 0.0
H775 H 0.17534 0.65908 0.97631 0.0
O776 O 0.19404 0.65969 0.14683 0.0
C777 C 0.16915 0.64931 0.08729 0.0
O778 O 0.16414 0.65705 0.07293 0.0
N779 N 0.18481 0.67674 0.12043 0.0
C780 C 0.18765 0.69671 0.12153 0.0
C781 C 0.19313 0.69063 0.15908 0.0
C782 C 0.19158 0.68063 0.15803 0.0
C783 C 0.17927 0.68252 0.08486 0.0
C784 C 0.1806 0.69251 0.08443 0.0
H785 H 0.19577 0.67606 0.18755 0.0
H786 H 0.17378 0.67932 0.05649 0.0
H787 H 0.1873 0.6592 0.25338 0.0
H788 H 0.15945 0.67013 0.28631 0.0
H789 H 0.20293 0.66978 0.93343 0.0
H790 H 0.19864 0.69356 0.18853 0.0
H791 H 0.17603 0.6969 0.05585 0.0
C792 C 0.42347 0.92106 0.42924 0.0
C793 C 0.42417 0.91984 0.49054 0.0
N794 N 0.4191 0.92692 0.51797 0.0
N795 N 0.41806 0.92891 0.41751 0.0
C796 C 0.41544 0.93232 0.47234 0.0
H797 H 0.42677 0.91654 0.39518 0.0
Co798 Co 0.41528 0.93319 0.33976 0.0
C799 C 0.41437 0.95441 0.34866 0.0
O800 O 0.41953 0.95484 0.29897 0.0
N801 N 0.41214 0.9373 0.25986 0.0
C802 C 0.40335 0.9438 0.18596 0.0
C803 C 0.40415 0.94254 0.24709 0.0
C804 C 0.4159 0.93522 0.20477 0.0
N805 N 0.41074 0.93918 0.15918 0.0
O806 O 0.40214 0.92911 0.3506 0.0
H807 H 0.39905 0.94513 0.28032 0.0
H808 H 0.42217 0.93075 0.1974 0.0
O809 O 0.41209 0.94617 0.37078 0.0
C810 C 0.40004 0.92132 0.32292 0.0
O811 O 0.40668 0.91729 0.28878 0.0
N812 N 0.42852 0.93633 0.33029 0.0
C813 C 0.44869 0.93782 0.32401 0.0
C814 C 0.44334 0.94379 0.36266 0.0
C815 C 0.43331 0.94276 0.3663 0.0
C816 C 0.43366 0.93011 0.29504 0.0
C817 C 0.4437 0.93087 0.29005 0.0
H818 H 0.42952 0.94686 0.40023 0.0
H819 H 0.43003 0.92416 0.27318 0.0
H820 H 0.41086 0.93857 0.47855 0.0
H821 H 0.42825 0.91422 0.51291 0.0
H822 H 0.39755 0.94753 0.16291 0.0
H823 H 0.44687 0.94909 0.39098 0.0
H824 H 0.44756 0.92575 0.26205 0.0
C825 C 0.82789 0.67231 0.21101 0.0
C826 C 0.82916 0.67298 0.27223 0.0
N827 N 0.8219 0.66819 0.2998 0.0
N828 N 0.81984 0.66718 0.19946 0.0
C829 C 0.81634 0.66472 0.25434 0.0
H830 H 0.8325 0.67543 0.17683 0.0
Co831 Co 0.81555 0.66468 0.12146 0.0
C832 C 0.79436 0.66384 0.12931 0.0
O833 O 0.79407 0.66931 0.08094 0.0
N834 N 0.81149 0.66183 0.04128 0.0
C835 C 0.80498 0.65324 0.96654 0.0
C836 C 0.80625 0.65387 0.02768 0.0
C837 C 0.8136 0.66573 0.98662 0.0
N838 N 0.80961 0.66069 0.94057 0.0
O839 O 0.81957 0.65151 0.13 0.0
H840 H 0.80365 0.64869 0.06036 0.0
H841 H 0.81809 0.67199 0.97989 0.0
O842 O 0.80254 0.66138 0.15165 0.0
C843 C 0.82803 0.6501 0.10923 0.0
O844 O 0.83262 0.65745 0.08502 0.0
N845 N 0.81244 0.67797 0.11408 0.0
C846 C 0.81117 0.69818 0.11269 0.0
C847 C 0.80514 0.69267 0.15006 0.0
C848 C 0.80606 0.68261 0.15129 0.0
C849 C 0.81867 0.68325 0.07974 0.0
C850 C 0.81803 0.69333 0.07728 0.0
H851 H 0.80199 0.67867 0.18463 0.0
H852 H 0.82454 0.67969 0.05668 0.0
H853 H 0.80991 0.6604 0.26072 0.0
H854 H 0.83492 0.67686 0.29447 0.0
H855 H 0.80124 0.64751 0.94286 0.0
H856 H 0.80009 0.69612 0.18052 0.0
H857 H 0.82303 0.69728 0.04897 0.0
C858 C 0.07848 0.07838 0.95797 0.0
C859 C 0.07741 0.07941 0.01916 0.0
N860 N 0.08067 0.07132 0.04637 0.0
N861 N 0.0824 0.06968 0.94615 0.0
C862 C 0.0837 0.06554 1.00082 0.0
H863 H 0.07657 0.08364 0.92399 0.0
Co864 Co 0.08507 0.06556 0.8681 0.0
C865 C 0.08636 0.04438 0.87382 0.0
O866 O 0.08109 0.0441 0.82456 0.0
N867 N 0.0881 0.06167 0.78786 0.0
C868 C 0.09716 0.05588 0.71307 0.0
C869 C 0.09644 0.05709 0.77419 0.0
C870 C 0.08395 0.0633 0.73333 0.0
N871 N 0.0893 0.05978 0.68704 0.0
O872 O 0.09817 0.0698 0.87785 0.0
H873 H 0.10183 0.05492 0.80682 0.0
H874 H 0.07724 0.06711 0.72703 0.0
O875 O 0.08853 0.05255 0.89737 0.0
C876 C 0.09949 0.07823 0.85627 0.0
O877 O 0.09214 0.08257 0.83028 0.0
N878 N 0.07188 0.06231 0.85968 0.0
C879 C 0.05167 0.06107 0.85664 0.0
C880 C 0.05712 0.0548 0.89284 0.0
C881 C 0.06718 0.05569 0.89487 0.0
C882 C 0.06666 0.06875 0.82651 0.0
C883 C 0.0566 0.06812 0.82314 0.0
H884 H 0.07107 0.05138 0.92729 0.0
H885 H 0.07029 0.07471 0.80463 0.0
H886 H 0.08671 0.0584 1.00704 0.0
H887 H 0.07459 0.08575 0.0417 0.0
H888 H 0.10323 0.05267 0.68966 0.0
H889 H 0.05362 0.04956 0.92182 0.0
H890 H 0.05271 0.07328 0.79555 0.0
C891 C 0.67037 0.32711 0.66597 0.0
C892 C 0.66944 0.32605 0.72723 0.0
N893 N 0.6774 0.32968 0.75405 0.0
N894 N 0.67888 0.33138 0.65369 0.0
C895 C 0.68301 0.3329 0.70815 0.0
H896 H 0.66514 0.32499 0.63229 0.0
Co897 Co 0.68277 0.33434 0.57559 0.0
C898 C 0.70395 0.3357 0.57886 0.0
O899 O 0.7041 0.33061 0.52885 0.0
N900 N 0.68641 0.33767 0.49538 0.0
C901 C 0.69206 0.34696 0.42126 0.0
C902 C 0.69081 0.34613 0.48231 0.0
C903 C 0.68493 0.33355 0.44058 0.0
N904 N 0.68836 0.33904 0.39472 0.0
O905 O 0.67853 0.34739 0.58784 0.0
H906 H 0.6929 0.35149 0.51534 0.0
H907 H 0.68135 0.32673 0.43376 0.0
O908 O 0.69585 0.33773 0.60378 0.0
C909 C 0.66999 0.34879 0.56817 0.0
O910 O 0.66552 0.34154 0.54195 0.0
N911 N 0.68601 0.32118 0.56484 0.0
C912 C 0.68737 0.301 0.55818 0.0
C913 C 0.69373 0.30634 0.59443 0.0
C914 C 0.69278 0.31638 0.59834 0.0
C915 C 0.67949 0.31606 0.53173 0.0
C916 C 0.68016 0.30602 0.5266 0.0
H917 H 0.69717 0.32016 0.63082 0.0
H918 H 0.67346 0.31976 0.51107 0.0
H919 H 0.69 0.33627 0.71392 0.0
H920 H 0.66323 0.32303 0.75007 0.0
H921 H 0.69519 0.35311 0.39825 0.0
H922 H 0.69909 0.30275 0.62201 0.0
H923 H 0.67493 0.30222 0.49912 0.0
C924 C 0.42126 0.07775 0.58732 0.0
C925 C 0.42225 0.07877 0.52604 0.0
N926 N 0.41883 0.07073 0.49899 0.0
N927 N 0.41724 0.06912 0.5994 0.0
C928 C 0.4158 0.065 0.5448 0.0
H929 H 0.42326 0.08301 0.62114 0.0
Co930 Co 0.41442 0.06501 0.67737 0.0
C931 C 0.41346 0.04377 0.67129 0.0
O932 O 0.41845 0.04348 0.72166 0.0
N933 N 0.41123 0.06111 0.75736 0.0
C934 C 0.40213 0.05514 0.83143 0.0
C935 C 0.40293 0.0564 0.77037 0.0
C936 C 0.41526 0.06278 0.8122 0.0
N937 N 0.4099 0.05915 0.85805 0.0
O938 O 0.40127 0.069 0.66599 0.0
H939 H 0.39766 0.05414 0.73731 0.0
H940 H 0.42192 0.06666 0.81908 0.0
O941 O 0.41131 0.05195 0.64781 0.0
C942 C 0.39981 0.0775 0.68606 0.0
O943 O 0.40707 0.08205 0.71161 0.0
N944 N 0.42764 0.06202 0.68755 0.0
C945 C 0.44782 0.0609 0.69569 0.0
C946 C 0.44264 0.05453 0.65859 0.0
C947 C 0.4326 0.05537 0.65397 0.0
C948 C 0.43262 0.06859 0.72116 0.0
C949 C 0.44265 0.06803 0.72705 0.0
H950 H 0.42893 0.05095 0.62108 0.0
H951 H 0.4288 0.07454 0.74185 0.0
H952 H 0.41263 0.05792 0.53885 0.0
H953 H 0.42508 0.08509 0.50337 0.0
H954 H 0.3961 0.0518 0.85441 0.0
H955 H 0.44635 0.04923 0.63111 0.0
H956 H 0.44633 0.07326 0.75516 0.0
C957 C 0.66973 0.66887 0.33823 0.0
C958 C 0.66863 0.6696 0.27689 0.0
N959 N 0.67581 0.66463 0.24986 0.0
N960 N 0.67762 0.66353 0.35034 0.0
C961 C 0.68117 0.661 0.29573 0.0
H962 H 0.66512 0.67208 0.37208 0.0
Co963 Co 0.68173 0.66074 0.42828 0.0
C964 C 0.70292 0.6599 0.4226 0.0
O965 O 0.703 0.665 0.47255 0.0
N966 N 0.68564 0.65757 0.50843 0.0
C967 C 0.69197 0.64868 0.58245 0.0
C968 C 0.69068 0.64945 0.52136 0.0
C969 C 0.6837 0.66144 0.56339 0.0
N970 N 0.68756 0.65622 0.60901 0.0
O971 O 0.67762 0.6476 0.41712 0.0
H972 H 0.69317 0.64429 0.48822 0.0
H973 H 0.67944 0.66785 0.57064 0.0
O974 O 0.69483 0.65754 0.39862 0.0
C975 C 0.66975 0.64562 0.44428 0.0
O976 O 0.66571 0.65234 0.4777 0.0
N977 N 0.68488 0.67399 0.43786 0.0
C978 C 0.68648 0.69417 0.44292 0.0
C979 C 0.69245 0.68872 0.40478 0.0
C980 C 0.69136 0.6787 0.40171 0.0
C981 C 0.67868 0.67922 0.47272 0.0
C982 C 0.67949 0.68927 0.47708 0.0
H983 H 0.69546 0.67484 0.36806 0.0
H984 H 0.67271 0.67564 0.49475 0.0
H985 H 0.68748 0.65648 0.28984 0.0
H986 H 0.66301 0.67364 0.25421 0.0
H987 H 0.69558 0.64282 0.60564 0.0
H988 H 0.69779 0.69218 0.37638 0.0
H989 H 0.67438 0.6932 0.50476 0.0
C990 C 0.0767 0.92139 0.0912 0.0
C991 C 0.07589 0.9203 0.02992 0.0
N992 N 0.08123 0.9272 1.00271 0.0
N993 N 0.08244 0.929 0.10315 0.0
C994 C 0.08515 0.93239 0.04847 0.0
H995 H 0.07327 0.91696 0.12512 0.0
Co996 Co 0.08547 0.93296 0.18112 0.0
C997 C 0.087 0.95413 0.17575 0.0
O998 O 0.08193 0.95443 0.2258 0.0
N999 N 0.08885 0.93667 0.26108 0.0
C1000 C 0.09803 0.9426 0.33495 0.0
C1001 C 0.09714 0.94142 0.27384 0.0
C1002 C 0.08497 0.9348 0.31611 0.0
N1003 N 0.09037 0.93843 0.36168 0.0
O1004 O 0.09845 0.92853 0.1694 0.0
H1005 H 0.10235 0.94377 0.24057 0.0
H1006 H 0.07842 0.93076 0.32342 0.0
O1007 O 0.08901 0.94595 0.15174 0.0
C1008 C 0.09955 0.91989 0.18797 0.0
O1009 O 0.09206 0.91549 0.21212 0.0
N1010 N 0.07234 0.93645 0.19165 0.0
C1011 C 0.05218 0.93823 0.19705 0.0
C1012 C 0.05768 0.9443 0.15984 0.0
C1013 C 0.0677 0.94313 0.15659 0.0
C1014 C 0.06705 0.93021 0.22592 0.0
C1015 C 0.05701 0.9311 0.2304 0.0
H1016 H 0.07159 0.94729 0.12342 0.0
H1017 H 0.07056 0.92413 0.24713 0.0
H1018 H 0.08999 0.93845 0.04248 0.0
H1019 H 0.07156 0.91489 1.00742 0.0
H1020 H 0.10403 0.94599 0.35801 0.0
H1021 H 0.05427 0.94976 0.13209 0.0
H1022 H 0.05304 0.92592 0.25732 0.0
C1023 C 0.82887 0.32813 0.77953 0.0
C1024 C 0.82982 0.32708 0.71828 0.0
N1025 N 0.82187 0.33075 0.6914 0.0
N1026 N 0.82037 0.33244 0.79174 0.0
C1027 C 0.81627 0.33399 0.73726 0.0
H1028 H 0.83408 0.32598 0.81326 0.0
Co1029 Co 0.8165 0.3354 0.86982 0.0
C1030 C 0.79533 0.33674 0.86686 0.0
O1031 O 0.79524 0.33169 0.91699 0.0
N1032 N 0.81286 0.33873 0.95007 0.0
C1033 C 0.80725 0.34806 0.02416 0.0
C1034 C 0.80848 0.34721 0.96311 0.0
C1035 C 0.81437 0.33464 1.00491 0.0
N1036 N 0.81095 0.34014 0.05074 0.0
O1037 O 0.82076 0.34844 0.85761 0.0
H1038 H 0.80638 0.35255 0.93005 0.0
H1039 H 0.81795 0.32781 1.01179 0.0
O1040 O 0.8034 0.3388 0.84169 0.0
C1041 C 0.82928 0.3498 0.87755 0.0
O1042 O 0.83372 0.34252 0.90373 0.0
N1043 N 0.8132 0.32224 0.88046 0.0
C1044 C 0.8116 0.30208 0.88737 0.0
C1045 C 0.80538 0.30747 0.85049 0.0
C1046 C 0.80646 0.3175 0.8465 0.0
C1047 C 0.81963 0.31706 0.91397 0.0
C1048 C 0.81883 0.30703 0.91928 0.0
H1049 H 0.80216 0.32131 0.81369 0.0
H1050 H 0.82567 0.3207 0.93487 0.0
H1051 H 0.8093 0.33739 0.73145 0.0
H1052 H 0.83602 0.32404 0.69549 0.0
H1053 H 0.80414 0.35421 0.04714 0.0
H1054 H 0.80003 0.30393 0.8226 0.0
H1055 H 0.82395 0.30319 0.94726 0.0
H1056 H 0.06759 0.57947 0.88289 0.0
H1057 H 0.0688 0.57706 0.77442 0.0
H1058 H 0.09174 0.55646 0.80133 0.0
H1059 H 0.09076 0.55896 0.91032 0.0
H1060 H 0.08572 0.58015 0.70165 0.0
H1061 H 0.07232 0.54233 0.68831 0.0
H1062 H 0.07019 0.54996 0.75304 0.0
H1063 H 0.08183 0.54451 0.74183 0.0
C1064 C 0.07295 0.57446 0.86613 0.0
C1065 C 0.07912 0.56946 0.90592 0.0
C1066 C 0.07358 0.57305 0.80387 0.0
C1067 C 0.0803 0.56653 0.77973 0.0
C1068 C 0.0864 0.56142 0.81903 0.0
H1069 H 0.09587 0.54907 0.41763 0.0
H1070 H 0.0938 0.55086 0.52597 0.0
C1071 C 0.08581 0.56285 0.88148 0.0
C1072 C 0.08115 0.56541 0.7133 0.0
H1073 H 0.07828 0.54925 0.59824 0.0
C1074 C 0.08406 0.57341 0.67893 0.0
C1075 C 0.07901 0.5566 0.68384 0.0
C1076 C 0.07559 0.54786 0.71839 0.0
C1077 C 0.08509 0.5728 0.61602 0.0
C1078 C 0.08288 0.56401 0.58632 0.0
C1079 C 0.07994 0.556 0.62083 0.0
C1080 C 0.08386 0.56287 0.5198 0.0
C1081 C 0.08882 0.58151 0.5823 0.0
C1082 C 0.07881 0.5689 0.47973 0.0
C1083 C 0.08009 0.568 0.41732 0.0
C1084 C 0.08638 0.56097 0.39349 0.0
C1085 C 0.09115 0.55472 0.43391 0.0
C1086 C 0.08991 0.55567 0.49615 0.0
H1087 H 0.09267 0.5866 0.61264 0.0
H1088 H 0.09381 0.57934 0.54555 0.0
H1089 H 0.08263 0.58544 0.56203 0.0
H1090 H 0.0739 0.57436 0.49671 0.0
H1091 H 0.07629 0.57296 0.38803 0.0
H1092 H 0.67416 0.82803 0.65234 0.0
H1093 H 0.67243 0.82642 0.76187 0.0
H1094 H 0.70045 0.83946 0.78647 0.0
H1095 H 0.70214 0.8412 0.67747 0.0
H1096 H 0.68287 0.81698 0.847 0.0
H1097 H 0.68416 0.8563 0.89385 0.0
H1098 H 0.68286 0.85154 0.81866 0.0
H1099 H 0.69458 0.85206 0.85365 0.0
C1100 C 0.67997 0.83049 0.68108 0.0
C1101 C 0.68824 0.83485 0.6561 0.0
C1102 C 0.67897 0.82961 0.74375 0.0
C1103 C 0.6862 0.83304 0.78273 0.0
C1104 C 0.69462 0.83704 0.75768 0.0
H1105 H 0.69358 0.83283 0.17443 0.0
H1106 H 0.69599 0.83408 0.0654 0.0
C1107 C 0.69559 0.838 0.69522 0.0
C1108 C 0.685 0.83239 0.84945 0.0
H1109 H 0.68501 0.84587 0.97882 0.0
C1110 C 0.68329 0.82331 0.87571 0.0
C1111 C 0.68554 0.84065 0.88721 0.0
C1112 C 0.68679 0.8507 0.86193 0.0
C1113 C 0.68226 0.82224 0.93844 0.0
C1114 C 0.68288 0.83048 0.97606 0.0
C1115 C 0.68461 0.83955 0.94998 0.0
C1116 C 0.68141 0.82986 0.04239 0.0
C1117 C 0.68064 0.81228 0.96418 0.0
C1118 C 0.67236 0.82727 0.06578 0.0
C1119 C 0.67092 0.82665 0.12803 0.0
C1120 C 0.6785 0.82859 0.16873 0.0
C1121 C 0.68754 0.83134 0.14498 0.0
C1122 C 0.68896 0.83201 0.08249 0.0
H1123 H 0.68253 0.80652 0.93139 0.0
H1124 H 0.68499 0.81123 1.00573 0.0
H1125 H 0.6729 0.81146 0.97626 0.0
H1126 H 0.66638 0.82578 0.03577 0.0
H1127 H 0.66379 0.82473 0.14402 0.0
H1128 H 0.42511 0.43684 0.906 0.0
H1129 H 0.42747 0.43524 0.01541 0.0
H1130 H 0.39662 0.43401 0.04077 0.0
H1131 H 0.39422 0.43554 0.93214 0.0
H1132 H 0.41848 0.44818 0.11201 0.0
H1133 H 0.40847 0.40932 0.12745 0.0
H1134 H 0.41256 0.41482 0.05815 0.0
H1135 H 0.40049 0.41694 0.08453 0.0
C1136 C 0.41885 0.43615 0.9349 0.0
C1137 C 0.40948 0.43634 0.91026 0.0
C1138 C 0.4202 0.4353 0.99736 0.0
C1139 C 0.41221 0.43448 0.03616 0.0
C1140 C 0.40288 0.4346 1.01167 0.0
H1141 H 0.40602 0.43947 0.42623 0.0
H1142 H 0.40504 0.4418 0.31705 0.0
C1143 C 0.40152 0.43554 0.94952 0.0
C1144 C 0.41356 0.43351 0.10234 0.0
H1145 H 0.41058 0.41773 0.21931 0.0
C1146 C 0.41679 0.44152 0.13554 0.0
C1147 C 0.41138 0.42481 0.13285 0.0
C1148 C 0.40809 0.41593 0.09913 0.0
C1149 C 0.41776 0.44109 0.19865 0.0
C1150 C 0.41539 0.43244 0.22929 0.0
C1151 C 0.41232 0.42438 0.19587 0.0
C1152 C 0.41628 0.43148 0.29587 0.0
C1153 C 0.4214 0.44985 0.2321 0.0
C1154 C 0.4229 0.42489 0.32038 0.0
C1155 C 0.42353 0.42359 0.38273 0.0
C1156 C 0.41745 0.42874 0.42238 0.0
C1157 C 0.41089 0.43543 0.39758 0.0
C1158 C 0.41031 0.43678 0.33499 0.0
H1159 H 0.42472 0.45524 0.20127 0.0
H1160 H 0.41527 0.45337 0.25569 0.0
H1161 H 0.42681 0.44773 0.26657 0.0
H1162 H 0.42759 0.42074 0.29113 0.0
H1163 H 0.42881 0.41851 0.39964 0.0
H1164 H 0.80266 0.17665 0.16239 0.0
H1165 H 0.8056 0.17575 0.27051 0.0
H1166 H 0.82307 0.15027 0.24396 0.0
H1167 H 0.8203 0.15133 0.13474 0.0
H1168 H 0.80072 0.16256 0.34963 0.0
H1169 H 0.84066 0.16562 0.35006 0.0
H1170 H 0.83354 0.16782 0.28348 0.0
H1171 H 0.83626 0.15564 0.30639 0.0
C1172 C 0.80715 0.17086 0.17945 0.0
C1173 C 0.81123 0.16404 0.13986 0.0
C1174 C 0.80884 0.17036 0.24147 0.0
C1175 C 0.81463 0.163 0.26592 0.0
C1176 C 0.81876 0.15617 0.22645 0.0
H1177 H 0.81283 0.15198 0.65861 0.0
H1178 H 0.81061 0.1506 0.54929 0.0
C1179 C 0.81715 0.15674 0.16398 0.0
C1180 C 0.81604 0.16246 0.33274 0.0
H1181 H 0.83318 0.16239 0.44378 0.0
C1182 C 0.80783 0.16251 0.37014 0.0
C1183 C 0.8253 0.16249 0.35993 0.0
C1184 C 0.83445 0.16298 0.32299 0.0
C1185 C 0.80859 0.16273 0.43338 0.0
C1186 C 0.81785 0.16259 0.4606 0.0
C1187 C 0.82607 0.16242 0.42323 0.0
C1188 C 0.81922 0.1632 0.52741 0.0
C1189 C 0.79945 0.1635 0.47018 0.0
C1190 C 0.825 0.17055 0.55199 0.0
C1191 C 0.82638 0.17126 0.6143 0.0
C1192 C 0.82199 0.16464 0.65397 0.0
C1193 C 0.8162 0.15727 0.62947 0.0
C1194 C 0.8149 0.1565 0.56687 0.0
H1195 H 0.7933 0.16622 0.44285 0.0
H1196 H 0.79747 0.15623 0.48733 0.0
H1197 H 0.80046 0.16839 0.50931 0.0
H1198 H 0.8284 0.17584 0.52288 0.0
H1199 H 0.83079 0.1771 0.63145 0.0
H1200 H 0.09109 0.44348 0.65449 0.0
H1201 H 0.09427 0.44506 0.54575 0.0
H1202 H 0.06981 0.42676 0.50781 0.0
H1203 H 0.06667 0.4251 0.61504 0.0
H1204 H 0.09811 0.43123 0.4575 0.0
H1205 H 0.0641 0.45025 0.40316 0.0
H1206 H 0.06849 0.44901 0.47936 0.0
H1207 H 0.06197 0.43927 0.44405 0.0
C1208 C 0.08643 0.43977 0.62292 0.0
C1209 C 0.07852 0.43431 0.64378 0.0
C1210 C 0.08822 0.44071 0.56075 0.0
C1211 C 0.08211 0.43625 0.51834 0.0
C1212 C 0.07444 0.43055 0.53931 0.0
H1213 H 0.08938 0.41591 0.16082 0.0
H1214 H 0.08854 0.41911 0.26819 0.0
C1215 C 0.07266 0.4296 0.60097 0.0
C1216 C 0.08379 0.43722 0.45212 0.0
H1217 H 0.07222 0.44257 0.31996 0.0
C1218 C 0.09251 0.43385 0.42754 0.0
C1219 C 0.07656 0.44081 0.4127 0.0
C1220 C 0.0673 0.44514 0.43618 0.0
C1221 C 0.09396 0.43343 0.36479 0.0
C1222 C 0.08643 0.43631 0.32532 0.0
C1223 C 0.07795 0.44023 0.34994 0.0
C1224 C 0.08695 0.43459 0.25896 0.0
C1225 C 0.10351 0.42976 0.34134 0.0
C1226 C 0.08597 0.44218 0.21717 0.0
C1227 C 0.08647 0.44036 0.15483 0.0
C1228 C 0.0879 0.4309 0.13313 0.0
C1229 C 0.08858 0.42333 0.17538 0.0
C1230 C 0.08809 0.42514 0.2372 0.0
H1231 H 0.10938 0.43089 0.37472 0.0
H1232 H 0.10295 0.42188 0.3327 0.0
H1233 H 0.10554 0.43341 0.29859 0.0
H1234 H 0.08496 0.44953 0.23279 0.0
H1235 H 0.08591 0.44637 0.12377 0.0
H1236 H 0.79892 0.82635 0.84594 0.0
H1237 H 0.80188 0.82738 0.73818 0.0
H1238 H 0.8266 0.84558 0.7703 0.0
H1239 H 0.82358 0.8448 0.87904 0.0
H1240 H 0.80282 0.84472 0.66473 0.0
H1241 H 0.83688 0.82338 0.65951 0.0
H1242 H 0.82857 0.8229 0.72225 0.0
H1243 H 0.83633 0.83318 0.7127 0.0
C1244 C 0.80495 0.83068 0.83068 0.0
C1245 C 0.81097 0.83555 0.87205 0.0
C1246 C 0.80666 0.8312 0.76864 0.0
C1247 C 0.81449 0.8365 0.74597 0.0
C1248 C 0.82057 0.84133 0.78674 0.0
H1249 H 0.83625 0.84321 0.37868 0.0
H1250 H 0.83374 0.84381 0.48762 0.0
C1251 C 0.81884 0.84087 0.84908 0.0
C1252 C 0.81611 0.83702 0.6796 0.0
H1253 H 0.83144 0.82984 0.56742 0.0
C1254 C 0.80909 0.84149 0.64339 0.0
C1255 C 0.82429 0.83283 0.65177 0.0
C1256 C 0.83195 0.82773 0.68826 0.0
C1257 C 0.81006 0.84196 0.58029 0.0
C1258 C 0.81815 0.83757 0.55215 0.0
C1259 C 0.82522 0.83318 0.58861 0.0
C1260 C 0.81946 0.83745 0.48519 0.0
C1261 C 0.8025 0.84735 0.54471 0.0
C1262 C 0.81231 0.83364 0.44689 0.0
C1263 C 0.8137 0.83337 0.38426 0.0
C1264 C 0.82236 0.83673 0.35849 0.0
C1265 C 0.82953 0.84048 0.39693 0.0
C1266 C 0.82809 0.84085 0.45937 0.0
H1267 H 0.79866 0.85274 0.5731 0.0
H1268 H 0.80574 0.85116 0.50558 0.0
H1269 H 0.79704 0.84214 0.52774 0.0
H1270 H 0.80569 0.8307 0.46545 0.0
H1271 H 0.8081 0.83029 0.35616 0.0
H1272 H 0.42577 0.57993 0.60108 0.0
H1273 H 0.4248 0.5774 0.70955 0.0
H1274 H 0.40355 0.55506 0.68259 0.0
H1275 H 0.40432 0.55765 0.57367 0.0
H1276 H 0.40803 0.57918 0.78321 0.0
H1277 H 0.42379 0.54229 0.7947 0.0
H1278 H 0.42522 0.55002 0.72973 0.0
H1279 H 0.41401 0.54378 0.74219 0.0
C1280 C 0.42083 0.57451 0.61784 0.0
C1281 C 0.41509 0.56904 0.57802 0.0
C1282 C 0.42034 0.57303 0.68011 0.0
C1283 C 0.41417 0.56599 0.70428 0.0
C1284 C 0.40848 0.56043 0.66493 0.0
H1285 H 0.3998 0.5473 0.06611 0.0
H1286 H 0.40173 0.5493 0.95777 0.0
C1287 C 0.40894 0.56192 0.60249 0.0
C1288 C 0.41346 0.56475 0.77075 0.0
H1289 H 0.41733 0.54867 0.88511 0.0
C1290 C 0.41009 0.57253 0.80558 0.0
C1291 C 0.41613 0.55605 0.79984 0.0
C1292 C 0.42007 0.54757 0.76493 0.0
C1293 C 0.40914 0.57179 0.8685 0.0
C1294 C 0.41188 0.56311 0.89779 0.0
C1295 C 0.41527 0.55534 0.86286 0.0
C1296 C 0.411 0.56185 0.96431 0.0
C1297 C 0.40493 0.58023 0.90268 0.0
C1298 C 0.41572 0.56811 1.00459 0.0
C1299 C 0.41451 0.56707 0.067 0.0
C1300 C 0.40862 0.55967 0.09061 0.0
C1301 C 0.4042 0.55322 0.04998 0.0
C1302 C 0.40537 0.5543 0.98775 0.0
H1303 H 0.40078 0.58513 0.87264 0.0
H1304 H 0.40008 0.57773 0.93936 0.0
H1305 H 0.41088 0.58448 0.92312 0.0
H1306 H 0.4203 0.57385 0.98778 0.0
H1307 H 0.41803 0.5722 0.09647 0.0
H1308 H 0.67452 0.18217 0.85953 0.0
H1309 H 0.67679 0.18058 0.96817 0.0
H1310 H 0.68788 0.15172 0.94286 0.0
H1311 H 0.68576 0.15335 0.83374 0.0
H1312 H 0.66856 0.16836 0.04544 0.0
H1313 H 0.70819 0.16277 0.05211 0.0
H1314 H 0.702 0.16676 0.98506 0.0
H1315 H 0.70209 0.15416 1.00519 0.0
C1316 C 0.67746 0.17548 0.877 0.0
C1317 C 0.67995 0.16788 0.83781 0.0
C1318 C 0.67879 0.17459 0.93923 0.0
C1319 C 0.68263 0.16608 0.96399 0.0
C1320 C 0.68514 0.15847 0.92497 0.0
H1321 H 0.68973 0.14421 0.32673 0.0
H1322 H 0.68845 0.14661 0.21838 0.0
C1323 C 0.6839 0.15939 0.86251 0.0
C1324 C 0.68359 0.16508 0.0307 0.0
H1325 H 0.69961 0.15987 0.14349 0.0
C1326 C 0.67537 0.16658 0.06681 0.0
C1327 C 0.69249 0.16277 0.0589 0.0
C1328 C 0.70171 0.16162 0.0234 0.0
C1329 C 0.67575 0.16564 0.12987 0.0
C1330 C 0.6846 0.1632 0.15784 0.0
C1331 C 0.69283 0.16173 0.12194 0.0
C1332 C 0.6854 0.1619 0.2242 0.0
C1333 C 0.66663 0.16704 0.1661 0.0
C1334 C 0.68419 0.16973 0.26379 0.0
C1335 C 0.68503 0.16841 0.32625 0.0
C1336 C 0.6871 0.15923 0.3505 0.0
C1337 C 0.68828 0.15142 0.31032 0.0
C1338 C 0.6875 0.15276 0.24805 0.0
H1339 H 0.66008 0.16705 0.1372 0.0
H1340 H 0.66588 0.16125 0.20048 0.0
H1341 H 0.667 0.17407 0.19004 0.0
H1342 H 0.6827 0.17688 0.24633 0.0
H1343 H 0.6842 0.17463 0.35531 0.0
H1344 H 0.908 0.41564 0.1661 0.0
H1345 H 0.90875 0.41886 0.27349 0.0
H1346 H 0.91159 0.44936 0.23812 0.0
H1347 H 0.91074 0.44618 0.12911 0.0
H1348 H 0.92446 0.44278 0.32512 0.0
H1349 H 0.88765 0.43007 0.3803 0.0
H1350 H 0.89433 0.42122 0.3384 0.0
H1351 H 0.89142 0.43265 0.3041 0.0
C1352 C 0.90862 0.42308 0.18067 0.0
C1353 C 0.90912 0.43067 0.13844 0.0
C1354 C 0.90905 0.4249 0.2425 0.0
C1355 C 0.90996 0.43437 0.26428 0.0
C1356 C 0.91076 0.44199 0.2225 0.0
H1357 H 0.9056 0.44328 0.6598 0.0
H1358 H 0.90236 0.44472 0.55105 0.0
C1359 C 0.91032 0.44016 0.16016 0.0
C1360 C 0.91043 0.43611 0.33065 0.0
H1361 H 0.89891 0.43074 0.463 0.0
C1362 C 0.9188 0.44028 0.35517 0.0
C1363 C 0.903 0.43303 0.37022 0.0
C1364 C 0.89355 0.42909 0.3469 0.0
C1365 C 0.92017 0.44092 0.41791 0.0
C1366 C 0.91306 0.43714 0.45743 0.0
C1367 C 0.90444 0.43351 0.43296 0.0
C1368 C 0.91477 0.43625 0.52366 0.0
C1369 C 0.92931 0.44552 0.44126 0.0
C1370 C 0.9226 0.43078 0.54465 0.0
C1371 C 0.92442 0.42992 0.60631 0.0
C1372 C 0.91843 0.43448 0.6491 0.0
C1373 C 0.91036 0.43969 0.62823 0.0
C1374 C 0.90854 0.44055 0.56606 0.0
H1375 H 0.93236 0.45072 0.40814 0.0
H1376 H 0.92801 0.44938 0.48439 0.0
H1377 H 0.93481 0.43982 0.44918 0.0
H1378 H 0.92733 0.42711 0.51317 0.0
H1379 H 0.93053 0.4256 0.62038 0.0
H1380 H 0.30418 0.1611 0.84925 0.0
H1381 H 0.30178 0.15969 0.95827 0.0
H1382 H 0.33127 0.1684 0.98835 0.0
H1383 H 0.33385 0.16959 0.88016 0.0
H1384 H 0.31301 0.148 0.0448 0.0
H1385 H 0.31472 0.18738 0.09265 0.0
H1386 H 0.31232 0.18264 0.01831 0.0
H1387 H 0.32442 0.18266 0.04751 0.0
C1388 C 0.3102 0.16264 0.87883 0.0
C1389 C 0.3192 0.16556 0.85528 0.0
C1390 C 0.30878 0.16188 0.94128 0.0
C1391 C 0.3163 0.16411 0.98147 0.0
C1392 C 0.32531 0.16684 0.95824 0.0
H1393 H 0.32395 0.16597 0.37071 0.0
H1394 H 0.32548 0.1676 0.2611 0.0
C1395 C 0.32675 0.16755 0.89605 0.0
C1396 C 0.31483 0.16343 0.04774 0.0
H1397 H 0.31469 0.17688 0.17694 0.0
C1398 C 0.3133 0.15432 0.07372 0.0
C1399 C 0.31531 0.17167 0.08542 0.0
C1400 C 0.31671 0.18167 0.05975 0.0
C1401 C 0.31245 0.15318 0.1365 0.0
C1402 C 0.31288 0.16143 0.17433 0.0
C1403 C 0.31436 0.17056 0.14815 0.0
C1404 C 0.31179 0.16074 0.24107 0.0
C1405 C 0.31143 0.1431 0.1617 0.0
C1406 C 0.30349 0.15659 0.26659 0.0
C1407 C 0.30263 0.15561 0.32909 0.0
C1408 C 0.30998 0.15891 0.36776 0.0
C1409 C 0.31814 0.1634 0.34231 0.0
C1410 C 0.31903 0.1643 0.2796 0.0
H1411 H 0.3141 0.13755 0.12954 0.0
H1412 H 0.31545 0.14231 0.20471 0.0
H1413 H 0.30368 0.1416 0.17046 0.0
H1414 H 0.29766 0.15407 0.23813 0.0
H1415 H 0.29616 0.15231 0.34722 0.0
H1416 H 0.58322 0.55315 0.57106 0.0
H1417 H 0.58446 0.5507 0.68006 0.0
H1418 H 0.57657 0.58043 0.71009 0.0
H1419 H 0.57554 0.58305 0.60187 0.0
H1420 H 0.5964 0.56148 0.76672 0.0
H1421 H 0.5571 0.56452 0.81436 0.0
H1422 H 0.56178 0.56202 0.73997 0.0
H1423 H 0.56217 0.57409 0.76958 0.0
C1424 C 0.58182 0.5592 0.6006 0.0
C1425 C 0.57918 0.56829 0.57698 0.0
C1426 C 0.58249 0.55777 0.66306 0.0
C1427 C 0.58044 0.56533 0.70327 0.0
C1428 C 0.57797 0.57442 0.68 0.0
H1429 H 0.57876 0.57271 0.09312 0.0
H1430 H 0.57718 0.57442 0.98358 0.0
C1431 C 0.57736 0.57589 0.61777 0.0
C1432 C 0.58105 0.56384 0.76958 0.0
H1433 H 0.56757 0.56407 0.89871 0.0
C1434 C 0.5901 0.56197 0.7956 0.0
C1435 C 0.57283 0.56458 0.80724 0.0
C1436 C 0.56289 0.56634 0.78156 0.0
C1437 C 0.59118 0.56103 0.85837 0.0
C1438 C 0.58294 0.56171 0.89618 0.0
C1439 C 0.57389 0.56355 0.86996 0.0
C1440 C 0.58358 0.56053 0.96291 0.0
C1441 C 0.60121 0.55963 0.88359 0.0
C1442 C 0.58745 0.55206 0.98807 0.0
C1443 C 0.58839 0.55109 0.05054 0.0
C1444 C 0.58535 0.55851 0.08957 0.0
C1445 C 0.58113 0.56684 0.06447 0.0
C1446 C 0.58026 0.56784 1.00179 0.0
H1447 H 0.60685 0.56215 0.8516 0.0
H1448 H 0.60212 0.56357 0.9268 0.0
H1449 H 0.60245 0.55182 0.89197 0.0
H1450 H 0.58977 0.54617 0.95936 0.0
H1451 H 0.59147 0.5445 0.06838 0.0
H1452 H 0.20276 0.84388 0.85721 0.0
H1453 H 0.20092 0.84213 0.74813 0.0
H1454 H 0.17353 0.82792 0.77478 0.0
H1455 H 0.17527 0.82976 0.88419 0.0
H1456 H 0.19779 0.8246 0.67692 0.0
H1457 H 0.16774 0.85114 0.65906 0.0
H1458 H 0.17561 0.85057 0.72384 0.0
H1459 H 0.16625 0.84172 0.71416 0.0
C1460 C 0.19633 0.8404 0.83991 0.0
C1461 C 0.18913 0.83703 0.87949 0.0
C1462 C 0.19532 0.83936 0.77756 0.0
C1463 C 0.18704 0.83501 0.75329 0.0
C1464 C 0.17993 0.83141 0.79256 0.0
H1465 H 0.16521 0.82695 0.39166 0.0
H1466 H 0.16778 0.82793 0.49976 0.0
C1467 C 0.18097 0.83239 0.8551 0.0
C1468 C 0.18581 0.83438 0.68687 0.0
H1469 H 0.17215 0.84289 0.57022 0.0
C1470 C 0.1922 0.8286 0.65345 0.0
C1471 C 0.17852 0.83962 0.65644 0.0
C1472 C 0.17166 0.84618 0.68992 0.0
C1473 C 0.19135 0.82774 0.59049 0.0
C1474 C 0.18408 0.83303 0.55987 0.0
C1475 C 0.17774 0.83885 0.59349 0.0
C1476 C 0.18271 0.83241 0.49334 0.0
C1477 C 0.19808 0.82095 0.55772 0.0
C1478 C 0.19021 0.83473 0.4531 0.0
C1479 C 0.18881 0.83403 0.39066 0.0
C1480 C 0.17984 0.83109 0.36698 0.0
C1481 C 0.17229 0.82903 0.40763 0.0
C1482 C 0.17372 0.82967 0.46984 0.0
H1483 H 0.20129 0.81552 0.58868 0.0
H1484 H 0.19426 0.81708 0.52097 0.0
H1485 H 0.20408 0.82517 0.53756 0.0
H1486 H 0.19716 0.83712 0.46993 0.0
H1487 H 0.19482 0.83567 0.36117 0.0
H1488 H 0.92732 0.57987 0.89783 0.0
H1489 H 0.92603 0.57747 0.78956 0.0
H1490 H 0.9048 0.55514 0.8182 0.0
H1491 H 0.90568 0.55781 0.92683 0.0
H1492 H 0.92956 0.56204 0.71895 0.0
H1493 H 0.89092 0.57223 0.6992 0.0
H1494 H 0.89781 0.57431 0.76691 0.0
H1495 H 0.89301 0.56249 0.75095 0.0
C1496 C 0.92226 0.57454 0.88148 0.0
C1497 C 0.9165 0.56916 0.92172 0.0
C1498 C 0.9216 0.57311 0.81924 0.0
C1499 C 0.91518 0.56626 0.7954 0.0
C1500 C 0.90963 0.56065 0.8353 0.0
H1501 H 0.90132 0.5475 0.4327 0.0
H1502 H 0.90341 0.54915 0.54126 0.0
C1503 C 0.91024 0.56211 0.8977 0.0
C1504 C 0.91436 0.56502 0.72887 0.0
H1505 H 0.89835 0.56578 0.61164 0.0
C1506 C 0.92273 0.5629 0.6955 0.0
C1507 C 0.90547 0.56618 0.69804 0.0
C1508 C 0.89631 0.56902 0.73046 0.0
C1509 C 0.92243 0.56174 0.63255 0.0
C1510 C 0.91354 0.56282 0.60197 0.0
C1511 C 0.90517 0.56494 0.63521 0.0
C1512 C 0.9127 0.56168 0.53555 0.0
C1513 C 0.93159 0.5592 0.59929 0.0
C1514 C 0.91724 0.56817 0.49598 0.0
C1515 C 0.91598 0.56731 0.43351 0.0
C1516 C 0.91012 0.55994 0.40934 0.0
C1517 C 0.90574 0.55336 0.44936 0.0
C1518 C 0.90696 0.55426 0.51162 0.0
H1519 H 0.93734 0.55662 0.63028 0.0
H1520 H 0.9302 0.55353 0.56499 0.0
H1521 H 0.93432 0.56571 0.57555 0.0
H1522 H 0.92158 0.57405 0.51349 0.0
H1523 H 0.91938 0.57258 0.40443 0.0
H1524 H 0.16738 0.1806 0.65879 0.0
H1525 H 0.16949 0.17929 0.55017 0.0
H1526 H 0.19117 0.15733 0.57592 0.0
H1527 H 0.18894 0.15837 0.68524 0.0
H1528 H 0.1955 0.17347 0.48685 0.0
H1529 H 0.16043 0.1547 0.45053 0.0
H1530 H 0.16014 0.1654 0.4966 0.0
H1531 H 0.16644 0.15487 0.52275 0.0
C1532 C 0.17254 0.1754 0.64183 0.0
C1533 C 0.17788 0.16949 0.68145 0.0
C1534 C 0.17377 0.17471 0.57944 0.0
C1535 C 0.1804 0.16815 0.55493 0.0
C1536 C 0.18599 0.16244 0.59397 0.0
H1537 H 0.18556 0.14656 0.19098 0.0
H1538 H 0.18412 0.14888 0.29966 0.0
C1539 C 0.18472 0.16307 0.65659 0.0
C1540 C 0.18132 0.16713 0.48848 0.0
H1541 H 0.16918 0.15926 0.36368 0.0
C1542 C 0.18976 0.17037 0.45984 0.0
C1543 C 0.17382 0.16304 0.45343 0.0
C1544 C 0.1647 0.15923 0.48214 0.0
C1545 C 0.19086 0.1697 0.3969 0.0
C1546 C 0.18332 0.16572 0.36177 0.0
C1547 C 0.17492 0.16239 0.39058 0.0
C1548 C 0.18417 0.16449 0.29538 0.0
C1549 C 0.20016 0.1731 0.36842 0.0
C1550 C 0.18455 0.17251 0.25655 0.0
C1551 C 0.18535 0.17121 0.19402 0.0
C1552 C 0.18586 0.16185 0.16927 0.0
C1553 C 0.18536 0.15386 0.20845 0.0
C1554 C 0.18448 0.15517 0.27066 0.0
H1555 H 0.2059 0.17439 0.40244 0.0
H1556 H 0.20281 0.16771 0.33521 0.0
H1557 H 0.19883 0.17997 0.34401 0.0
H1558 H 0.18419 0.17978 0.2746 0.0
H1559 H 0.18575 0.1775 0.16516 0.0
H1560 H 0.59413 0.45002 0.92864 0.0
H1561 H 0.5924 0.44822 0.03776 0.0
H1562 H 0.57818 0.42082 1.01173 0.0
H1563 H 0.58 0.42252 0.9023 0.0
H1564 H 0.57493 0.44524 0.10878 0.0
H1565 H 0.60118 0.41498 0.12829 0.0
H1566 H 0.60068 0.42277 0.06309 0.0
H1567 H 0.59178 0.41346 0.07317 0.0
C1568 C 0.59067 0.44359 0.94607 0.0
C1569 C 0.58728 0.43638 0.90663 0.0
C1570 C 0.58964 0.4426 1.00847 0.0
C1571 C 0.58528 0.43433 0.03294 0.0
C1572 C 0.58168 0.42721 0.99382 0.0
H1573 H 0.57652 0.41272 0.39452 0.0
H1574 H 0.5777 0.41525 0.28645 0.0
C1575 C 0.58265 0.42822 0.93125 0.0
C1576 C 0.5846 0.43316 0.09942 0.0
H1577 H 0.59282 0.41945 0.21668 0.0
C1578 C 0.57885 0.43962 0.13251 0.0
C1579 C 0.58973 0.42583 0.13022 0.0
C1580 C 0.59626 0.41889 0.09716 0.0
C1581 C 0.57791 0.43881 0.19545 0.0
C1582 C 0.58308 0.43149 0.22642 0.0
C1583 C 0.58887 0.42507 0.19316 0.0
C1584 C 0.58235 0.43014 0.29296 0.0
C1585 C 0.57115 0.44562 0.22781 0.0
C1586 C 0.5847 0.43762 0.33325 0.0
C1587 C 0.58389 0.43624 0.39568 0.0
C1588 C 0.5808 0.4273 0.4193 0.0
C1589 C 0.57871 0.41977 0.3786 0.0
C1590 C 0.57946 0.42118 0.31641 0.0
H1591 H 0.56581 0.44889 0.19654 0.0
H1592 H 0.56718 0.44184 0.26437 0.0
H1593 H 0.57541 0.45157 0.24817 0.0
H1594 H 0.58719 0.44453 0.31649 0.0
H1595 H 0.58556 0.44223 0.42521 0.0
H1596 H 0.33087 0.82024 0.17353 0.0
H1597 H 0.32849 0.82161 0.06524 0.0
H1598 H 0.30654 0.84323 0.09413 0.0
H1599 H 0.30918 0.84226 0.20274 0.0
H1600 H 0.31298 0.81839 0.99452 0.0
H1601 H 0.32391 0.85684 0.97541 0.0
H1602 H 0.32586 0.84987 0.04299 0.0
H1603 H 0.31414 0.8549 0.02716 0.0
C1604 C 0.32562 0.8254 0.15721 0.0
C1605 C 0.32034 0.83125 0.19751 0.0
C1606 C 0.3242 0.82611 0.09498 0.0
C1607 C 0.31747 0.83265 0.07121 0.0
C1608 C 0.31195 0.83828 0.11117 0.0
H1609 H 0.29917 0.84713 0.70842 0.0
H1610 H 0.30073 0.84497 0.81699 0.0
C1611 C 0.3134 0.83763 0.17356 0.0
C1612 C 0.31626 0.83353 1.00468 0.0
H1613 H 0.31736 0.84957 0.8877 0.0
C1614 C 0.31397 0.82521 0.97118 0.0
C1615 C 0.3176 0.84241 0.974 0.0
C1616 C 0.3206 0.8515 1.00658 0.0
C1617 C 0.31283 0.82556 0.90822 0.0
C1618 C 0.3141 0.83445 0.87777 0.0
C1619 C 0.31637 0.84277 0.91116 0.0
C1620 C 0.313 0.83535 0.81133 0.0
C1621 C 0.31011 0.81647 0.87484 0.0
C1622 C 0.31939 0.83064 0.77178 0.0
C1623 C 0.31858 0.83194 0.70931 0.0
C1624 C 0.31138 0.838 0.68511 0.0
C1625 C 0.30491 0.84255 0.72511 0.0
C1626 C 0.30575 0.84128 0.78738 0.0
H1627 H 0.30737 0.81078 0.90573 0.0
H1628 H 0.3045 0.818 0.84035 0.0
H1629 H 0.31658 0.81359 0.85133 0.0
H1630 H 0.32514 0.82614 0.78929 0.0
H1631 H 0.32377 0.82841 0.68025 0.0
H1632 H 0.60399 0.0597 0.9538 0.0
H1633 H 0.60175 0.06135 0.06239 0.0
H1634 H 0.5709 0.06277 0.03736 0.0
H1635 H 0.5731 0.06098 0.92801 0.0
H1636 H 0.59232 0.07678 0.12591 0.0
H1637 H 0.57498 0.04109 0.16642 0.0
H1638 H 0.58174 0.04373 0.09876 0.0
H1639 H 0.56975 0.04843 0.10803 0.0
C1640 C 0.59671 0.06026 0.97123 0.0
C1641 C 0.58871 0.06011 0.93204 0.0
C1642 C 0.59545 0.06127 0.03342 0.0
C1643 C 0.58616 0.06206 0.05819 0.0
C1644 C 0.57814 0.06203 0.01934 0.0
H1645 H 0.57149 0.08044 0.42159 0.0
H1646 H 0.57263 0.07821 0.31299 0.0
C1647 C 0.5794 0.0611 0.95683 0.0
C1648 C 0.58498 0.06307 0.1246 0.0
H1649 H 0.57646 0.05154 0.25027 0.0
C1650 C 0.58882 0.07128 0.15306 0.0
C1651 C 0.58052 0.05583 0.16011 0.0
C1652 C 0.57656 0.04672 0.13212 0.0
C1653 C 0.58825 0.07248 0.21588 0.0
C1654 C 0.58369 0.06531 0.25132 0.0
C1655 C 0.57992 0.05705 0.22301 0.0
C1656 C 0.58275 0.06634 0.31781 0.0
C1657 C 0.59266 0.08136 0.24412 0.0
C1658 C 0.58791 0.06026 0.35696 0.0
C1659 C 0.58737 0.06158 0.41959 0.0
C1660 C 0.58158 0.06897 0.44443 0.0
C1661 C 0.5762 0.07483 0.40471 0.0
C1662 C 0.5768 0.07354 0.3423 0.0
H1663 H 0.59755 0.08522 0.21247 0.0
H1664 H 0.58682 0.08641 0.25767 0.0
H1665 H 0.59681 0.07941 0.28519 0.0
H1666 H 0.59253 0.05464 0.339 0.0
H1667 H 0.59166 0.05694 0.44824 0.0
H1668 H 0.19892 0.34705 0.15435 0.0
H1669 H 0.19766 0.34496 0.26338 0.0
H1670 H 0.17029 0.33051 0.24045 0.0
H1671 H 0.1716 0.33247 0.1311 0.0
H1672 H 0.18455 0.35191 0.34037 0.0
H1673 H 0.18379 0.31191 0.35102 0.0
H1674 H 0.187 0.31837 0.28331 0.0
H1675 H 0.1745 0.31677 0.30353 0.0
C1676 C 0.19264 0.3434 0.17248 0.0
C1677 C 0.18537 0.33991 0.1339 0.0
C1678 C 0.19194 0.34219 0.23489 0.0
C1679 C 0.18395 0.33745 0.26038 0.0
C1680 C 0.17666 0.33396 0.22198 0.0
H1681 H 0.16235 0.32853 0.62095 0.0
H1682 H 0.16493 0.33004 0.51289 0.0
C1683 C 0.1774 0.3351 0.15938 0.0
C1684 C 0.1831 0.33655 0.32715 0.0
H1685 H 0.17968 0.32031 0.44136 0.0
C1686 C 0.18357 0.34498 0.36242 0.0
C1687 C 0.18185 0.32751 0.35619 0.0
C1688 C 0.18185 0.31812 0.32164 0.0
C1689 C 0.18259 0.34465 0.42547 0.0
C1690 C 0.18116 0.33565 0.45423 0.0
C1691 C 0.18076 0.32721 0.41918 0.0
C1692 C 0.17973 0.33486 0.52046 0.0
C1693 C 0.18284 0.35396 0.46082 0.0
C1694 C 0.18723 0.33704 0.56093 0.0
C1695 C 0.18582 0.33608 0.62325 0.0
C1696 C 0.17688 0.33291 0.64638 0.0
C1697 C 0.16939 0.33082 0.60534 0.0
C1698 C 0.17083 0.33173 0.54326 0.0
H1699 H 0.18222 0.36041 0.43121 0.0
H1700 H 0.17689 0.35414 0.4944 0.0
H1701 H 0.18977 0.35445 0.48567 0.0
H1702 H 0.19421 0.33935 0.54426 0.0
H1703 H 0.19179 0.33765 0.65308 0.0
H1704 H 0.89573 0.93745 0.42979 0.0
H1705 H 0.8981 0.9361 0.53846 0.0
H1706 H 0.92897 0.93665 0.51303 0.0
H1707 H 0.92665 0.93814 0.40365 0.0
H1708 H 0.90858 0.92138 0.60253 0.0
H1709 H 0.92346 0.95821 0.641 0.0
H1710 H 0.91686 0.95504 0.57366 0.0
H1711 H 0.92915 0.95118 0.58275 0.0
C1712 C 0.90304 0.93738 0.44716 0.0
C1713 C 0.91101 0.93799 0.40787 0.0
C1714 C 0.90437 0.93655 0.50939 0.0
C1715 C 0.9137 0.9364 0.53403 0.0
C1716 C 0.9217 0.93689 0.49508 0.0
H1717 H 0.93015 0.91958 0.89683 0.0
H1718 H 0.92871 0.92168 0.78828 0.0
C1719 C 0.92037 0.93765 0.43256 0.0
C1720 C 0.91497 0.93555 0.60044 0.0
H1721 H 0.92278 0.94777 0.72533 0.0
C1722 C 0.91171 0.92713 0.62934 0.0
C1723 C 0.91894 0.94312 0.63549 0.0
C1724 C 0.92225 0.95245 0.60698 0.0
C1725 C 0.91242 0.92603 0.69216 0.0
C1726 C 0.91651 0.93354 0.72713 0.0
C1727 C 0.91968 0.94201 0.6984 0.0
C1728 C 0.91761 0.93263 0.79355 0.0
C1729 C 0.90867 0.91689 0.72095 0.0
C1730 C 0.91197 0.93823 0.8329 0.0
C1731 C 0.91267 0.93697 0.89549 0.0
C1732 C 0.9191 0.93011 0.92007 0.0
C1733 C 0.92495 0.92475 0.88014 0.0
C1734 C 0.92419 0.92598 0.81777 0.0
H1735 H 0.90411 0.91263 0.68954 0.0
H1736 H 0.91488 0.91233 0.73488 0.0
H1737 H 0.90439 0.9186 0.76188 0.0
H1738 H 0.90685 0.94342 0.8151 0.0
H1739 H 0.90802 0.94121 0.92433 0.0
H1740 H 0.32321 0.66744 0.65801 0.0
H1741 H 0.3251 0.6689 0.76748 0.0
H1742 H 0.29637 0.65753 0.7928 0.0
H1743 H 0.2945 0.65595 0.68383 0.0
H1744 H 0.31524 0.67894 0.8529 0.0
H1745 H 0.31172 0.63976 0.89987 0.0
H1746 H 0.31327 0.64443 0.82464 0.0
H1747 H 0.30155 0.6446 0.85988 0.0
C1748 C 0.31727 0.66531 0.68687 0.0
C1749 C 0.30874 0.66147 0.66206 0.0
C1750 C 0.31837 0.66611 0.74953 0.0
C1751 C 0.31097 0.6631 0.78871 0.0
C1752 C 0.30232 0.65961 0.76385 0.0
H1753 H 0.30371 0.66361 0.18042 0.0
H1754 H 0.30127 0.66246 0.07141 0.0
C1755 C 0.30124 0.65874 0.7014 0.0
C1756 C 0.31225 0.66367 0.85542 0.0
H1757 H 0.31153 0.65023 0.98484 0.0
C1758 C 0.31448 0.67265 0.88163 0.0
C1759 C 0.31125 0.65547 0.89322 0.0
C1760 C 0.30941 0.64551 0.86799 0.0
C1761 C 0.31559 0.67366 0.94435 0.0
C1762 C 0.31453 0.66547 0.98202 0.0
C1763 C 0.31227 0.65651 0.95597 0.0
C1764 C 0.31603 0.66602 0.04838 0.0
C1765 C 0.31775 0.68352 0.97001 0.0
C1766 C 0.32518 0.66821 0.07181 0.0
C1767 C 0.32664 0.66877 0.13408 0.0
C1768 C 0.31897 0.66718 0.17476 0.0
C1769 C 0.30982 0.66483 0.15098 0.0
C1770 C 0.30839 0.66421 0.0885 0.0
H1771 H 0.31613 0.68938 0.93729 0.0
H1772 H 0.31352 0.68481 1.01175 0.0
H1773 H 0.32554 0.68394 0.9817 0.0
H1774 H 0.33123 0.66943 0.04181 0.0
H1775 H 0.33383 0.67038 0.15011 0.0
H1776 H 0.57393 0.93669 0.11009 0.0
H1777 H 0.57159 0.93499 1.00073 0.0
H1778 H 0.60246 0.9342 0.97538 0.0
H1779 H 0.60484 0.93583 0.08395 0.0
H1780 H 0.58018 0.94791 0.90383 0.0
H1781 H 0.59118 0.90932 0.88916 0.0
H1782 H 0.58708 0.91479 0.95851 0.0
H1783 H 0.59906 0.91714 0.93136 0.0
C1784 C 0.5802 0.93608 0.0812 0.0
C1785 C 0.58957 0.93642 0.10585 0.0
C1786 C 0.57886 0.93517 0.01876 0.0
C1787 C 0.58686 0.93443 0.97996 0.0
C1788 C 0.59619 0.93472 1.00446 0.0
H1789 H 0.59277 0.93957 0.58979 0.0
H1790 H 0.59367 0.94193 0.69894 0.0
C1791 C 0.59753 0.93572 0.06659 0.0
C1792 C 0.58552 0.93339 0.91377 0.0
H1793 H 0.58892 0.91763 0.79707 0.0
C1794 C 0.58205 0.94129 0.88043 0.0
C1795 C 0.58793 0.92473 0.8834 0.0
C1796 C 0.59146 0.91596 0.91725 0.0
C1797 C 0.58108 0.94079 0.81732 0.0
C1798 C 0.58369 0.93219 0.7868 0.0
C1799 C 0.58699 0.92425 0.82039 0.0
C1800 C 0.58285 0.93118 0.72019 0.0
C1801 C 0.57718 0.94943 0.78378 0.0
C1802 C 0.57649 0.92434 0.69568 0.0
C1803 C 0.57591 0.923 0.63331 0.0
C1804 C 0.58176 0.9284 0.59363 0.0
C1805 C 0.58807 0.93534 0.61844 0.0
C1806 C 0.5886 0.93671 0.68103 0.0
H1807 H 0.57364 0.95469 0.81453 0.0
H1808 H 0.58322 0.95317 0.76052 0.0
H1809 H 0.57188 0.94714 0.74905 0.0
H1810 H 0.57197 0.92 0.72494 0.0
H1811 H 0.57083 0.91772 0.61641 0.0
H1812 H 0.29628 0.34287 0.33399 0.0
H1813 H 0.29775 0.34084 0.225 0.0
H1814 H 0.32575 0.32769 0.24907 0.0
H1815 H 0.32422 0.32956 0.3584 0.0
H1816 H 0.3106 0.34851 0.1494 0.0
H1817 H 0.3134 0.30862 0.13655 0.0
H1818 H 0.30978 0.31481 0.20446 0.0
H1819 H 0.32237 0.31389 0.18473 0.0
C1820 C 0.30274 0.3395 0.3161 0.0
C1821 C 0.31013 0.33636 0.35495 0.0
C1822 C 0.30356 0.33833 0.25373 0.0
C1823 C 0.3118 0.33399 0.22856 0.0
C1824 C 0.3192 0.33082 0.26727 0.0
H1825 H 0.33403 0.32676 0.86757 0.0
H1826 H 0.33138 0.32794 0.97576 0.0
C1827 C 0.31833 0.33191 0.32984 0.0
C1828 C 0.3128 0.33323 0.16181 0.0
H1829 H 0.31713 0.31735 0.04682 0.0
C1830 C 0.31194 0.34168 0.12701 0.0
C1831 C 0.31454 0.32431 0.13233 0.0
C1832 C 0.31498 0.31488 0.16635 0.0
C1833 C 0.31299 0.34149 0.064 0.0
C1834 C 0.31489 0.33261 0.03478 0.0
C1835 C 0.31569 0.32415 0.06935 0.0
C1836 C 0.31635 0.33199 0.96852 0.0
C1837 C 0.31231 0.35083 0.02918 0.0
C1838 C 0.30875 0.33385 0.92822 0.0
C1839 C 0.3102 0.33308 0.86585 0.0
C1840 C 0.31929 0.33042 0.84249 0.0
C1841 C 0.32688 0.32865 0.88337 0.0
C1842 C 0.32541 0.32937 0.94551 0.0
H1843 H 0.3126 0.35726 0.05917 0.0
H1844 H 0.31825 0.35135 0.99569 0.0
H1845 H 0.30536 0.35101 1.00428 0.0
H1846 H 0.30166 0.33577 0.94506 0.0
H1847 H 0.30415 0.33438 0.83616 0.0
H1848 H 0.92624 0.05478 0.61197 0.0
H1849 H 0.92536 0.05774 0.50386 0.0
H1850 H 0.89994 0.07529 0.53052 0.0
H1851 H 0.90099 0.07251 0.63975 0.0
H1852 H 0.91209 0.05287 0.42508 0.0
H1853 H 0.91536 0.09282 0.42401 0.0
H1854 H 0.91755 0.08569 0.49064 0.0
H1855 H 0.90538 0.08846 0.46788 0.0
C1856 C 0.92047 0.0593 0.59493 0.0
C1857 C 0.91366 0.06339 0.63454 0.0
C1858 C 0.91997 0.061 0.53293 0.0
C1859 C 0.91263 0.06681 0.50852 0.0
C1860 C 0.90582 0.07096 0.548 0.0
H1861 H 0.90168 0.06495 0.11578 0.0
H1862 H 0.90023 0.0628 0.22514 0.0
C1863 C 0.90639 0.06935 0.61047 0.0
C1864 C 0.91209 0.0682 0.4417 0.0
H1865 H 0.91215 0.0853 0.33038 0.0
C1866 C 0.91209 0.05997 0.40445 0.0
C1867 C 0.91218 0.07746 0.41438 0.0
C1868 C 0.91271 0.08661 0.45118 0.0
C1869 C 0.91232 0.06071 0.3412 0.0
C1870 C 0.91225 0.06997 0.31384 0.0
C1871 C 0.91212 0.0782 0.35106 0.0
C1872 C 0.9129 0.0713 0.24702 0.0
C1873 C 0.91304 0.05155 0.30455 0.0
C1874 C 0.92032 0.077 0.22246 0.0
C1875 C 0.92108 0.07833 0.16013 0.0
C1876 C 0.91444 0.07399 0.12044 0.0
C1877 C 0.90699 0.06828 0.14494 0.0
C1878 C 0.90618 0.06703 0.20756 0.0
H1879 H 0.91569 0.04538 0.33203 0.0
H1880 H 0.90577 0.04962 0.28727 0.0
H1881 H 0.91796 0.0525 0.26551 0.0
H1882 H 0.92563 0.08036 0.25159 0.0
H1883 H 0.92697 0.08268 0.14298 0.0
H1884 H 0.16628 0.67561 0.37823 0.0
H1885 H 0.16874 0.67448 0.48678 0.0
H1886 H 0.18731 0.64979 0.4606 0.0
H1887 H 0.18502 0.65105 0.35129 0.0
H1888 H 0.16441 0.66095 0.56614 0.0
H1889 H 0.20415 0.66598 0.56662 0.0
H1890 H 0.19692 0.6679 0.50017 0.0
H1891 H 0.20029 0.65584 0.52237 0.0
C1892 C 0.17087 0.66992 0.39543 0.0
C1893 C 0.17545 0.66342 0.35582 0.0
C1894 C 0.1723 0.66929 0.45773 0.0
C1895 C 0.17832 0.66213 0.48236 0.0
C1896 C 0.18283 0.65555 0.44298 0.0
H1897 H 0.17762 0.65035 0.87502 0.0
H1898 H 0.17491 0.64919 0.76582 0.0
C1899 C 0.18149 0.65624 0.38038 0.0
C1900 C 0.17972 0.6616 0.54917 0.0
H1901 H 0.19688 0.66211 0.65997 0.0
C1902 C 0.17152 0.6612 0.58662 0.0
C1903 C 0.18898 0.66202 0.57629 0.0
C1904 C 0.19808 0.66306 0.53939 0.0
C1905 C 0.1723 0.66131 0.64991 0.0
C1906 C 0.18157 0.66156 0.67701 0.0
C1907 C 0.18977 0.66185 0.63953 0.0
C1908 C 0.18297 0.66215 0.74381 0.0
C1909 C 0.16315 0.66155 0.68691 0.0
C1910 C 0.18856 0.66967 0.76823 0.0
C1911 C 0.19023 0.67023 0.83026 0.0
C1912 C 0.18633 0.66331 0.86987 0.0
C1913 C 0.18062 0.65584 0.84576 0.0
C1914 C 0.17905 0.65521 0.7833 0.0
H1915 H 0.15686 0.66401 0.65989 0.0
H1916 H 0.16155 0.65416 0.70352 0.0
H1917 H 0.16393 0.66641 0.72642 0.0
H1918 H 0.19164 0.67515 0.73917 0.0
H1919 H 0.19455 0.67615 0.84731 0.0
H1920 H 0.41883 0.92405 0.09919 0.0
H1921 H 0.42058 0.92229 0.98967 0.0
H1922 H 0.40779 0.9504 0.96398 0.0
H1923 H 0.40611 0.95224 0.07308 0.0
H1924 H 0.40473 0.92334 0.90254 0.0
H1925 H 0.43298 0.9511 0.86091 0.0
H1926 H 0.43089 0.9459 0.93442 0.0
H1927 H 0.42284 0.95496 0.90557 0.0
C1928 C 0.41653 0.92992 0.07028 0.0
C1929 C 0.41233 0.93829 0.09499 0.0
C1930 C 0.41748 0.92888 1.00768 0.0
C1931 C 0.41439 0.93625 0.96861 0.0
C1932 C 0.41033 0.94467 0.99318 0.0
H1933 H 0.41394 0.94347 0.57703 0.0
H1934 H 0.4123 0.94572 0.68593 0.0
C1935 C 0.4093 0.94567 0.0556 0.0
C1936 C 0.41501 0.935 0.90211 0.0
H1937 H 0.42564 0.94409 0.77511 0.0
C1938 C 0.40933 0.92784 0.87466 0.0
C1939 C 0.42093 0.94095 0.86572 0.0
C1940 C 0.42733 0.94862 0.89295 0.0
C1941 C 0.40932 0.92655 0.81179 0.0
C1942 C 0.41536 0.9324 0.7753 0.0
C1943 C 0.421 0.9396 0.80285 0.0
C1944 C 0.41612 0.931 0.70878 0.0
C1945 C 0.40263 0.91908 0.78507 0.0
C1946 C 0.41889 0.92201 0.68505 0.0
C1947 C 0.41972 0.92067 0.62281 0.0
C1948 C 0.41795 0.92832 0.58236 0.0
C1949 C 0.41524 0.93736 0.60632 0.0
C1950 C 0.41437 0.93868 0.66879 0.0
H1951 H 0.39645 0.91751 0.81552 0.0
H1952 H 0.39974 0.92147 0.74087 0.0
H1953 H 0.40667 0.91224 0.77828 0.0
H1954 H 0.42051 0.91602 0.71475 0.0
H1955 H 0.42172 0.91358 0.60664 0.0
H1956 H 0.82492 0.66848 0.88104 0.0
H1957 H 0.82674 0.67024 0.77149 0.0
H1958 H 0.79826 0.65834 0.74558 0.0
H1959 H 0.79638 0.65663 0.85466 0.0
H1960 H 0.82498 0.6541 0.68473 0.0
H1961 H 0.79866 0.68368 0.64227 0.0
H1962 H 0.80389 0.68152 0.71559 0.0
H1963 H 0.79442 0.67384 0.68814 0.0
C1964 C 0.81899 0.66639 0.85204 0.0
C1965 C 0.81051 0.66241 0.87658 0.0
C1966 C 0.82006 0.66734 0.78947 0.0
C1967 C 0.8126 0.66449 0.7504 0.0
C1968 C 0.80406 0.66069 0.77485 0.0
H1969 H 0.80517 0.6639 0.35936 0.0
H1970 H 0.80291 0.66251 0.46842 0.0
C1971 C 0.80303 0.65965 0.8372 0.0
C1972 C 0.81389 0.665 0.68397 0.0
H1973 H 0.8053 0.67593 0.55673 0.0
C1974 C 0.82072 0.65891 0.65671 0.0
C1975 C 0.80824 0.67118 0.64748 0.0
C1976 C 0.80092 0.67799 0.67464 0.0
C1977 C 0.82197 0.65874 0.59383 0.0
C1978 C 0.81641 0.66503 0.5572 0.0
C1979 C 0.80955 0.6711 0.58461 0.0
C1980 C 0.81781 0.66562 0.49067 0.0
C1981 C 0.82905 0.65162 0.56727 0.0
C1982 C 0.82691 0.66789 0.46663 0.0
C1983 C 0.82825 0.66857 0.40436 0.0
C1984 C 0.82049 0.66714 0.36421 0.0
C1985 C 0.81135 0.66492 0.38847 0.0
C1986 C 0.81002 0.66419 0.45099 0.0
H1987 H 0.83031 0.64541 0.59803 0.0
H1988 H 0.82647 0.64879 0.52331 0.0
H1989 H 0.83609 0.65528 0.56005 0.0
H1990 H 0.83299 0.66924 0.49611 0.0
H1991 H 0.83542 0.67019 0.38791 0.0
H1992 H 0.09663 0.04837 0.59849 0.0
H1993 H 0.09458 0.05025 0.49019 0.0
H1994 H 0.07528 0.07423 0.52015 0.0
H1995 H 0.07765 0.07271 0.62884 0.0
H1996 H 0.07902 0.04912 0.41777 0.0
H1997 H 0.09446 0.08607 0.40489 0.0
H1998 H 0.09538 0.0787 0.47167 0.0
H1999 H 0.08438 0.08511 0.45535 0.0
C2000 C 0.09204 0.05413 0.58235 0.0
C2001 C 0.08745 0.06048 0.62293 0.0
C2002 C 0.09081 0.05514 0.52015 0.0
C2003 C 0.08494 0.0625 0.49673 0.0
C2004 C 0.08004 0.06864 0.53698 0.0
H2005 H 0.06973 0.07987 0.13318 0.0
H2006 H 0.07068 0.07738 0.24166 0.0
C2007 C 0.08131 0.06767 0.59936 0.0
C2008 C 0.08402 0.06372 0.43024 0.0
H2009 H 0.08748 0.07984 0.31545 0.0
C2010 C 0.08089 0.05583 0.39542 0.0
C2011 C 0.08652 0.07247 0.40086 0.0
C2012 C 0.09046 0.08104 0.43496 0.0
C2013 C 0.08006 0.05649 0.33238 0.0
C2014 C 0.08249 0.06525 0.30322 0.0
C2015 C 0.08559 0.07314 0.33793 0.0
C2016 C 0.08179 0.06643 0.23677 0.0
C2017 C 0.07642 0.04787 0.2975 0.0
C2018 C 0.08775 0.06111 0.19769 0.0
C2019 C 0.08731 0.06259 0.13524 0.0
C2020 C 0.08091 0.06945 0.11058 0.0
C2021 C 0.07487 0.07466 0.15014 0.0
C2022 C 0.07535 0.0732 0.21239 0.0
H2023 H 0.0729 0.04246 0.3273 0.0
H2024 H 0.07117 0.05015 0.26244 0.0
H2025 H 0.08259 0.04431 0.27456 0.0
H2026 H 0.09289 0.05595 0.21557 0.0
H2027 H 0.09215 0.05852 0.10657 0.0
H2028 H 0.66907 0.31886 0.84236 0.0
H2029 H 0.67143 0.3203 0.95059 0.0
H2030 H 0.69275 0.34253 0.92146 0.0
H2031 H 0.69011 0.34148 0.81286 0.0
H2032 H 0.68699 0.31754 0.02127 0.0
H2033 H 0.67503 0.35569 0.04006 0.0
H2034 H 0.67329 0.34866 0.9725 0.0
H2035 H 0.68486 0.354 0.98844 0.0
C2036 C 0.67417 0.32417 0.8586 0.0
C2037 C 0.67927 0.33016 0.81825 0.0
C2038 C 0.67558 0.32492 0.92081 0.0
C2039 C 0.68213 0.33166 0.94449 0.0
C2040 C 0.68748 0.33744 0.90447 0.0
H2041 H 0.69995 0.34651 0.3076 0.0
H2042 H 0.69852 0.34431 0.19901 0.0
C2043 C 0.68603 0.33674 0.8421 0.0
C2044 C 0.68331 0.33258 1.011 0.0
H2045 H 0.68172 0.3486 0.1279 0.0
C2046 C 0.6858 0.32433 0.04457 0.0
C2047 C 0.68172 0.34142 0.04162 0.0
C2048 C 0.67848 0.35043 1.00896 0.0
C2049 C 0.68689 0.32472 0.10754 0.0
C2050 C 0.68537 0.33357 0.13791 0.0
C2051 C 0.6829 0.34182 0.10447 0.0
C2052 C 0.6864 0.33449 0.20435 0.0
C2053 C 0.68982 0.3157 0.14105 0.0
C2054 C 0.68006 0.32969 0.24369 0.0
C2055 C 0.68079 0.33101 0.30617 0.0
C2056 C 0.68787 0.33719 0.33057 0.0
C2057 C 0.6943 0.34184 0.29076 0.0
C2058 C 0.69353 0.34055 0.22849 0.0
H2059 H 0.69268 0.31005 0.11024 0.0
H2060 H 0.6954 0.31737 0.17546 0.0
H2061 H 0.68342 0.31269 0.16468 0.0
H2062 H 0.67439 0.32509 0.22599 0.0
H2063 H 0.67563 0.3274 0.33507 0.0
H2064 H 0.42919 0.07958 0.41039 0.0
H2065 H 0.4278 0.07716 0.30219 0.0
H2066 H 0.40655 0.05488 0.33164 0.0
H2067 H 0.40753 0.05756 0.44019 0.0
H2068 H 0.43124 0.06173 0.23155 0.0
H2069 H 0.3926 0.07194 0.21289 0.0
H2070 H 0.39954 0.07402 0.2804 0.0
H2071 H 0.39473 0.0622 0.26458 0.0
C2072 C 0.4241 0.07425 0.39425 0.0
C2073 C 0.41836 0.06889 0.43473 0.0
C2074 C 0.42338 0.07282 0.33204 0.0
C2075 C 0.41693 0.06598 0.30843 0.0
C2076 C 0.41141 0.06038 0.34854 0.0
H2077 H 0.4028 0.04737 0.94546 0.0
H2078 H 0.4049 0.04897 0.05405 0.0
C2079 C 0.41207 0.06185 0.41092 0.0
C2080 C 0.41606 0.06473 0.2419 0.0
H2081 H 0.39997 0.06552 0.12509 0.0
C2082 C 0.42441 0.0626 0.20829 0.0
C2083 C 0.40715 0.0659 0.21132 0.0
C2084 C 0.39801 0.06873 0.24399 0.0
C2085 C 0.42406 0.06145 0.14534 0.0
C2086 C 0.41514 0.06255 0.11498 0.0
C2087 C 0.4068 0.06466 0.14847 0.0
C2088 C 0.41427 0.06145 0.04852 0.0
C2089 C 0.4332 0.0589 0.11185 0.0
C2090 C 0.41884 0.06793 1.00904 0.0
C2091 C 0.41758 0.0671 0.94655 0.0
C2092 C 0.41168 0.05977 0.92225 0.0
C2093 C 0.40725 0.05321 0.9622 0.0
C2094 C 0.40849 0.05407 0.02449 0.0
H2095 H 0.43894 0.05626 0.14267 0.0
H2096 H 0.43177 0.05327 0.07734 0.0
H2097 H 0.43595 0.06543 0.08836 0.0
H2098 H 0.42321 0.07378 0.02661 0.0
H2099 H 0.42101 0.07237 0.91756 0.0
H2100 H 0.66259 0.66704 0.16036 0.0
H2101 H 0.66528 0.66592 0.05218 0.0
H2102 H 0.69511 0.65851 0.08317 0.0
H2103 H 0.69257 0.65983 0.19203 0.0
H2104 H 0.67941 0.67674 0.98138 0.0
H2105 H 0.68451 0.6369 0.96865 0.0
H2106 H 0.67876 0.64271 0.03212 0.0
H2107 H 0.69165 0.64323 0.02372 0.0
C2108 C 0.66976 0.66525 0.14463 0.0
C2109 C 0.67736 0.66358 0.18559 0.0
C2110 C 0.67127 0.66457 0.08248 0.0
C2111 C 0.68037 0.66208 0.05955 0.0
C2112 C 0.68798 0.66032 0.09993 0.0
H2113 H 0.70073 0.65158 0.69422 0.0
H2114 H 0.69919 0.65356 0.8032 0.0
C2115 C 0.6865 0.66106 0.1623 0.0
C2116 C 0.68186 0.6615 0.99329 0.0
H2117 H 0.68643 0.6457 0.87854 0.0
C2118 C 0.68096 0.66996 0.95879 0.0
C2119 C 0.6839 0.65266 0.964 0.0
C2120 C 0.68471 0.64332 0.99872 0.0
C2121 C 0.68214 0.66984 0.89584 0.0
C2122 C 0.68402 0.66096 0.86626 0.0
C2123 C 0.68498 0.65251 0.90099 0.0
C2124 C 0.68506 0.66023 0.7995 0.0
C2125 C 0.68159 0.67928 0.86192 0.0
C2126 C 0.67764 0.66332 0.76069 0.0
C2127 C 0.67855 0.66226 0.69811 0.0
C2128 C 0.68682 0.65792 0.67309 0.0
C2129 C 0.69423 0.65486 0.71204 0.0
C2130 C 0.69336 0.65601 0.77441 0.0
H2131 H 0.68308 0.68554 0.89184 0.0
H2132 H 0.6868 0.67943 0.8239 0.0
H2133 H 0.6742 0.68018 0.84345 0.0
H2134 H 0.67104 0.66636 0.77882 0.0
H2135 H 0.67264 0.66454 0.66949 0.0
H2136 H 0.09581 0.95118 0.44773 0.0
H2137 H 0.09404 0.94942 0.55686 0.0
H2138 H 0.07939 0.92224 0.53094 0.0
H2139 H 0.08124 0.9239 0.42149 0.0
H2140 H 0.07647 0.94664 0.62807 0.0
H2141 H 0.10246 0.91613 0.64699 0.0
H2142 H 0.10203 0.92396 0.58197 0.0
H2143 H 0.09303 0.91475 0.59187 0.0
C2144 C 0.09223 0.94481 0.4652 0.0
C2145 C 0.08873 0.93764 0.42581 0.0
C2146 C 0.09118 0.94384 0.52758 0.0
C2147 C 0.0867 0.93565 0.55207 0.0
C2148 C 0.08298 0.92857 0.51299 0.0
H2149 H 0.07796 0.91408 0.91362 0.0
H2150 H 0.0791 0.91662 0.80555 0.0
C2151 C 0.08397 0.92957 0.45043 0.0
C2152 C 0.08604 0.93448 0.61853 0.0
H2153 H 0.09422 0.9207 0.73559 0.0
C2154 C 0.08036 0.94098 0.65172 0.0
C2155 C 0.09113 0.92711 0.64919 0.0
C2156 C 0.09758 0.92011 0.61597 0.0
C2157 C 0.07945 0.94018 0.71467 0.0
C2158 C 0.08457 0.93282 0.74552 0.0
C2159 C 0.0903 0.92635 0.71214 0.0
C2160 C 0.08387 0.93147 0.81205 0.0
C2161 C 0.07277 0.94705 0.74719 0.0
C2162 C 0.0863 0.93893 0.85233 0.0
C2163 C 0.08551 0.93755 0.91476 0.0
C2164 C 0.08237 0.92863 0.93838 0.0
C2165 C 0.08019 0.92112 0.89769 0.0
C2166 C 0.08092 0.92253 0.8355 0.0
H2167 H 0.06743 0.95037 0.71604 0.0
H2168 H 0.06878 0.94331 0.78383 0.0
H2169 H 0.07709 0.95297 0.76746 0.0
H2170 H 0.08883 0.94583 0.83554 0.0
H2171 H 0.08724 0.94352 0.94429 0.0
H2172 H 0.83021 0.31993 0.60309 0.0
H2173 H 0.82787 0.3214 0.49486 0.0
H2174 H 0.80659 0.34367 0.52397 0.0
H2175 H 0.80922 0.3426 0.63258 0.0
H2176 H 0.81233 0.31867 0.42415 0.0
H2177 H 0.82435 0.3568 0.40548 0.0
H2178 H 0.82607 0.34977 0.47304 0.0
H2179 H 0.81451 0.35513 0.45705 0.0
C2180 C 0.82512 0.32526 0.58685 0.0
C2181 C 0.82003 0.33126 0.6272 0.0
C2182 C 0.82373 0.32602 0.52464 0.0
C2183 C 0.81721 0.33278 0.50096 0.0
C2184 C 0.81186 0.33857 0.54096 0.0
H2185 H 0.79939 0.34764 0.1379 0.0
H2186 H 0.80084 0.34546 0.2465 0.0
C2187 C 0.81329 0.33786 0.60334 0.0
C2188 C 0.81603 0.33371 0.43445 0.0
H2189 H 0.81765 0.34973 0.3176 0.0
C2190 C 0.81353 0.32546 0.40087 0.0
C2191 C 0.81764 0.34255 0.40387 0.0
C2192 C 0.82088 0.35155 0.43655 0.0
C2193 C 0.81244 0.32585 0.3379 0.0
C2194 C 0.81398 0.3347 0.30755 0.0
C2195 C 0.81646 0.34295 0.34101 0.0
C2196 C 0.81295 0.33563 0.24113 0.0
C2197 C 0.8095 0.31684 0.30436 0.0
C2198 C 0.81928 0.33082 0.20178 0.0
C2199 C 0.81854 0.33213 0.13929 0.0
C2200 C 0.81146 0.33831 0.11491 0.0
C2201 C 0.80504 0.34297 0.15473 0.0
C2202 C 0.80582 0.34169 0.21701 0.0
H2203 H 0.80663 0.31119 0.33516 0.0
H2204 H 0.80393 0.31852 0.26996 0.0
H2205 H 0.8159 0.31382 0.28073 0.0
H2206 H 0.82494 0.32622 0.21946 0.0
H2207 H 0.82369 0.32851 0.11038 0.0
H2208 H 0.17592 0.63196 0.13144 0.0
H2209 H 0.16709 0.61656 0.13663 0.0
H2210 H 0.14281 0.62975 0.04683 0.0
H2211 H 0.15154 0.64495 0.04061 0.0
H2212 H 0.1504 0.61333 0.19629 0.0
H2213 H 0.1446 0.60455 0.95699 0.0
H2214 H 0.15344 0.61335 0.98108 0.0
H2215 H 0.14095 0.61675 0.97183 0.0
C2216 C 0.16877 0.6315 0.11177 0.0
C2217 C 0.16443 0.63969 0.08566 0.0
C2218 C 0.16374 0.62271 0.11481 0.0
C2219 C 0.15434 0.62193 0.09115 0.0
C2220 C 0.15013 0.63006 0.06391 0.0
H2221 H 0.1033 0.59588 0.20123 0.0
H2222 H 0.11841 0.60451 0.18682 0.0
C2223 C 0.15512 0.6388 0.06095 0.0
C2224 C 0.14844 0.61306 0.10001 0.0
H2225 H 0.13243 0.59839 0.02687 0.0
C2226 C 0.14665 0.60991 0.15908 0.0
C2227 C 0.14368 0.60841 0.05157 0.0
C2228 C 0.14586 0.61088 0.9868 0.0
C2229 C 0.13964 0.60284 0.17126 0.0
C2230 C 0.13414 0.59895 0.12326 0.0
C2231 C 0.13651 0.60149 0.06385 0.0
C2232 C 0.12521 0.59323 0.13418 0.0
C2233 C 0.13798 0.59982 0.23574 0.0
C2234 C 0.12387 0.58406 0.10816 0.0
C2235 C 0.11512 0.57908 0.11602 0.0
C2236 C 0.10755 0.58325 0.14943 0.0
C2237 C 0.10897 0.59241 0.17543 0.0
C2238 C 0.11767 0.59734 0.16769 0.0
H2239 H 0.1447 0.60055 0.26273 0.0
H2240 H 0.13244 0.6046 0.25622 0.0
H2241 H 0.13542 0.59223 0.23869 0.0
H2242 H 0.12956 0.5808 0.08153 0.0
H2243 H 0.11424 0.57205 0.09522 0.0
H2244 H 0.60721 0.9054 0.26513 0.0
H2245 H 0.6211 0.89493 0.28238 0.0
H2246 H 0.62879 0.91159 0.43928 0.0
H2247 H 0.61485 0.92229 0.42174 0.0
H2248 H 0.64516 0.90491 0.36401 0.0
H2249 H 0.6195 0.87572 0.4257 0.0
H2250 H 0.61715 0.88111 0.3536 0.0
H2251 H 0.61592 0.88824 0.4209 0.0
C2252 C 0.6119 0.90694 0.30296 0.0
C2253 C 0.60985 0.9146 0.3426 0.0
C2254 C 0.61985 0.90094 0.3127 0.0
C2255 C 0.62587 0.90238 0.36265 0.0
C2256 C 0.6242 0.91035 0.40054 0.0
H2257 H 0.65889 0.85484 0.50857 0.0
H2258 H 0.64909 0.86934 0.49624 0.0
C2259 C 0.61624 0.91644 0.39051 0.0
C2260 C 0.63333 0.89505 0.37746 0.0
H2261 H 0.63583 0.87115 0.41183 0.0
C2262 C 0.64316 0.89754 0.37495 0.0
C2263 C 0.63068 0.88547 0.39244 0.0
C2264 C 0.62024 0.88247 0.39893 0.0
C2265 C 0.65043 0.8906 0.38561 0.0
C2266 C 0.64776 0.88092 0.39822 0.0
C2267 C 0.63791 0.87854 0.40184 0.0
C2268 C 0.65492 0.87307 0.40881 0.0
C2269 C 0.66086 0.89372 0.38401 0.0
C2270 C 0.6617 0.87043 0.36446 0.0
C2271 C 0.66744 0.86215 0.37184 0.0
C2272 C 0.66635 0.85629 0.42313 0.0
C2273 C 0.65984 0.85916 0.46829 0.0
C2274 C 0.65423 0.86747 0.46134 0.0
H2275 H 0.6616 0.90164 0.391 0.0
H2276 H 0.66516 0.8899 0.41891 0.0
H2277 H 0.66396 0.89195 0.33925 0.0
H2278 H 0.66223 0.8745 0.32295 0.0
H2279 H 0.67236 0.86006 0.33612 0.0
H2280 H 0.34607 0.35197 0.55725 0.0
H2281 H 0.35498 0.36694 0.57089 0.0
H2282 H 0.33012 0.37994 0.6556 0.0
H2283 H 0.32109 0.36474 0.643 0.0
H2284 H 0.3515 0.38547 0.53004 0.0
H2285 H 0.35146 0.38394 0.78076 0.0
H2286 H 0.34791 0.37375 0.73513 0.0
H2287 H 0.33988 0.38384 0.74401 0.0
C2288 C 0.34244 0.35799 0.57875 0.0
C2289 C 0.33287 0.35712 0.59948 0.0
C2290 C 0.34756 0.36658 0.58629 0.0
C2291 C 0.34327 0.37454 0.61476 0.0
C2292 C 0.33363 0.37383 0.63432 0.0
H2293 H 0.38186 0.42602 0.62009 0.0
H2294 H 0.3668 0.4168 0.60708 0.0
C2295 C 0.32847 0.36517 0.62687 0.0
C2296 C 0.34918 0.38337 0.62498 0.0
H2297 H 0.36096 0.39589 0.73534 0.0
C2298 C 0.35344 0.38789 0.5749 0.0
C2299 C 0.35173 0.38647 0.68358 0.0
C2300 C 0.34758 0.38174 0.73913 0.0
C2301 C 0.36059 0.39502 0.58178 0.0
C2302 C 0.36343 0.39784 0.64042 0.0
C2303 C 0.35875 0.39373 0.69044 0.0
C2304 C 0.37214 0.4039 0.65105 0.0
C2305 C 0.36551 0.39898 0.52633 0.0
C2306 C 0.38003 0.39982 0.68147 0.0
C2307 C 0.38855 0.40505 0.68926 0.0
C2308 C 0.38942 0.41452 0.66682 0.0
C2309 C 0.38144 0.41872 0.63756 0.0
C2310 C 0.37285 0.41345 0.62987 0.0
H2311 H 0.36354 0.3949 0.48503 0.0
H2312 H 0.36334 0.40663 0.51982 0.0
H2313 H 0.37349 0.39877 0.53166 0.0
H2314 H 0.37967 0.39247 0.69816 0.0
H2315 H 0.39451 0.40158 0.71224 0.0
H2316 H 0.8828 0.07292 0.90401 0.0
H2317 H 0.86721 0.08134 0.91229 0.0
H2318 H 0.87925 0.10592 0.8193 0.0
H2319 H 0.89465 0.09759 0.8102 0.0
H2320 H 0.86381 0.09825 0.97182 0.0
H2321 H 0.8537 0.10293 0.73349 0.0
H2322 H 0.86281 0.09438 0.7572 0.0
H2323 H 0.86587 0.10691 0.74576 0.0
C2324 C 0.88205 0.08005 0.88438 0.0
C2325 C 0.88997 0.08458 0.85645 0.0
C2326 C 0.87315 0.08485 0.88921 0.0
C2327 C 0.872 0.0942 0.86548 0.0
C2328 C 0.87986 0.09862 0.83656 0.0
H2329 H 0.84533 0.1451 0.96933 0.0
H2330 H 0.85398 0.12988 0.95985 0.0
C2331 C 0.88871 0.09387 0.83189 0.0
C2332 C 0.86299 0.09983 0.8754 0.0
H2333 H 0.84747 0.11509 0.80291 0.0
C2334 C 0.86008 0.10175 0.93481 0.0
C2335 C 0.85795 0.10426 0.82724 0.0
C2336 C 0.86018 0.10192 0.76236 0.0
C2337 C 0.85286 0.1086 0.94739 0.0
C2338 C 0.84856 0.11378 0.89939 0.0
C2339 C 0.85086 0.11125 0.83986 0.0
C2340 C 0.84268 0.12262 0.9099 0.0
C2341 C 0.85012 0.11043 1.01217 0.0
C2342 C 0.83345 0.12369 0.88434 0.0
C2343 C 0.82845 0.13249 0.88943 0.0
C2344 C 0.8327 0.14038 0.91942 0.0
C2345 C 0.84184 0.13918 0.94597 0.0
C2346 C 0.84677 0.13043 0.94108 0.0
H2347 H 0.85114 0.10382 0.0399 0.0
H2348 H 0.85489 0.11614 0.03093 0.0
H2349 H 0.8425 0.11285 0.01627 0.0
H2350 H 0.83019 0.11779 0.85952 0.0
H2351 H 0.82144 0.13321 0.86823 0.0
H2352 H 0.17413 0.36661 0.82811 0.0
H2353 H 0.16511 0.38173 0.81179 0.0
H2354 H 0.14155 0.3706 0.91841 0.0
H2355 H 0.15043 0.35569 0.93522 0.0
H2356 H 0.14702 0.38409 0.75723 0.0
H2357 H 0.14575 0.39725 0.9917 0.0
H2358 H 0.15417 0.38807 0.96723 0.0
H2359 H 0.14196 0.38488 0.98717 0.0
C2360 C 0.16707 0.36746 0.84857 0.0
C2361 C 0.16301 0.35995 0.88312 0.0
C2362 C 0.16193 0.37608 0.83915 0.0
C2363 C 0.15273 0.37737 0.86483 0.0
C2364 C 0.14873 0.36989 0.89937 0.0
H2365 H 0.10023 0.40294 0.77977 0.0
H2366 H 0.11568 0.39456 0.77942 0.0
C2367 C 0.1538 0.36131 0.90855 0.0
C2368 C 0.1469 0.3862 0.85335 0.0
H2369 H 0.13273 0.40262 0.92657 0.0
C2370 C 0.14406 0.3883 0.79409 0.0
C2371 C 0.1432 0.39186 0.90118 0.0
C2372 C 0.14652 0.39047 0.96531 0.0
C2373 C 0.13701 0.39536 0.782 0.0
C2374 C 0.13255 0.40029 0.83056 0.0
C2375 C 0.13601 0.39876 0.88926 0.0
C2376 C 0.1236 0.40613 0.82278 0.0
C2377 C 0.13422 0.39726 0.71742 0.0
C2378 C 0.12282 0.41546 0.84739 0.0
C2379 C 0.1139 0.42027 0.84823 0.0
C2380 C 0.10558 0.41578 0.82498 0.0
C2381 C 0.10649 0.40663 0.79801 0.0
C2382 C 0.11537 0.40184 0.79723 0.0
H2383 H 0.14045 0.39602 0.68677 0.0
H2384 H 0.12841 0.39217 0.70406 0.0
H2385 H 0.13157 0.40476 0.71107 0.0
H2386 H 0.12905 0.41889 0.86782 0.0
H2387 H 0.11344 0.42729 0.8696 0.0
H2388 H 0.88692 0.92326 0.0816 0.0
H2389 H 0.87263 0.91309 0.06415 0.0
H2390 H 0.87677 0.89963 0.23751 0.0
H2391 H 0.89113 0.90947 0.25406 0.0
H2392 H 0.87564 0.88655 0.15145 0.0
H2393 H 0.84508 0.91214 0.12559 0.0
H2394 H 0.85509 0.91463 0.07649 0.0
H2395 H 0.8566 0.91572 0.15664 0.0
C2396 C 0.88464 0.91827 0.1164 0.0
C2397 C 0.89018 0.91709 0.16896 0.0
C2398 C 0.87644 0.91249 0.10657 0.0
C2399 C 0.87357 0.90561 0.14969 0.0
C2400 C 0.87884 0.90485 0.20349 0.0
H2401 H 0.8248 0.86557 0.16186 0.0
H2402 H 0.83514 0.8799 0.17418 0.0
C2403 C 0.88706 0.91048 0.21288 0.0
C2404 C 0.86584 0.89842 0.13666 0.0
H2405 H 0.84202 0.89568 0.09879 0.0
C2406 C 0.86828 0.88858 0.14024 0.0
C2407 C 0.85621 0.90103 0.1224 0.0
C2408 C 0.85304 0.91145 0.12057 0.0
C2409 C 0.86144 0.88131 0.12982 0.0
C2410 C 0.8519 0.8839 0.11354 0.0
C2411 C 0.84937 0.89372 0.11058 0.0
C2412 C 0.84458 0.87637 0.09964 0.0
C2413 C 0.86448 0.87089 0.13734 0.0
C2414 C 0.8462 0.8699 0.05204 0.0
C2415 C 0.84041 0.8617 0.04544 0.0
C2416 C 0.83278 0.8599 0.08563 0.0
C2417 C 0.83063 0.8668 0.13019 0.0
C2418 C 0.83653 0.87497 0.13729 0.0
H2419 H 0.87113 0.87023 0.16506 0.0
H2420 H 0.85867 0.86656 0.1588 0.0
H2421 H 0.86603 0.86774 0.0924 0.0
H2422 H 0.85225 0.87093 0.02178 0.0
H2423 H 0.84217 0.85657 1.01022 0.0
H2424 H 0.34003 0.64162 0.50351 0.0
H2425 H 0.34991 0.62739 0.48313 0.0
H2426 H 0.3328 0.62116 0.3256 0.0
H2427 H 0.32271 0.63543 0.34624 0.0
H2428 H 0.33895 0.60414 0.39725 0.0
H2429 H 0.36895 0.62907 0.3387 0.0
H2430 H 0.36374 0.63117 0.41162 0.0
H2431 H 0.35658 0.63307 0.34509 0.0
C2432 C 0.33826 0.63716 0.46492 0.0
C2433 C 0.33067 0.63973 0.42599 0.0
C2434 C 0.34392 0.62902 0.45339 0.0
C2435 C 0.34219 0.62332 0.40233 0.0
C2436 C 0.33427 0.6255 0.36518 0.0
H2437 H 0.3878 0.58947 0.24136 0.0
H2438 H 0.37368 0.59964 0.2584 0.0
C2439 C 0.32852 0.63365 0.37699 0.0
C2440 C 0.34921 0.61567 0.38542 0.0
H2441 H 0.37287 0.61248 0.34712 0.0
C2442 C 0.34635 0.60593 0.38588 0.0
C2443 C 0.35884 0.61805 0.3699 0.0
C2444 C 0.36222 0.62841 0.36568 0.0
C2445 C 0.35297 0.59848 0.37249 0.0
C2446 C 0.36269 0.60086 0.35908 0.0
C2447 C 0.36545 0.61063 0.35767 0.0
C2448 C 0.3702 0.59349 0.34537 0.0
C2449 C 0.34947 0.58816 0.37203 0.0
C2450 C 0.37283 0.58641 0.38783 0.0
C2451 C 0.3809 0.58046 0.37778 0.0
C2452 C 0.38654 0.58164 0.32563 0.0
C2453 C 0.38364 0.58844 0.28222 0.0
C2454 C 0.37555 0.59426 0.29187 0.0
H2455 H 0.34149 0.58775 0.36663 0.0
H2456 H 0.35293 0.58398 0.3352 0.0
H2457 H 0.35137 0.58469 0.41549 0.0
H2458 H 0.36895 0.58579 0.43 0.0
H2459 H 0.38301 0.57534 0.41222 0.0
H2460 H 0.61342 0.07535 0.61 0.0
H2461 H 0.62745 0.08587 0.59311 0.0
H2462 H 0.62328 0.09865 0.76851 0.0
H2463 H 0.60916 0.08842 0.7846 0.0
H2464 H 0.62389 0.11204 0.68419 0.0
H2465 H 0.65507 0.08744 0.65198 0.0
H2466 H 0.64506 0.08474 0.60345 0.0
H2467 H 0.64374 0.08343 0.68365 0.0
C2468 C 0.61566 0.08025 0.64542 0.0
C2469 C 0.61016 0.08112 0.69841 0.0
C2470 C 0.62371 0.08623 0.63589 0.0
C2471 C 0.62648 0.09304 0.67971 0.0
C2472 C 0.62129 0.09348 0.73397 0.0
H2473 H 0.67434 0.13485 0.67285 0.0
H2474 H 0.66427 0.12063 0.69549 0.0
C2475 C 0.61321 0.08763 0.7431 0.0
C2476 C 0.63396 0.10049 0.66679 0.0
H2477 H 0.65744 0.104 0.62353 0.0
C2478 C 0.63124 0.11025 0.67145 0.0
C2479 C 0.64359 0.0982 0.65055 0.0
C2480 C 0.64709 0.08788 0.64765 0.0
C2481 C 0.63778 0.11774 0.65943 0.0
C2482 C 0.64729 0.11545 0.64076 0.0
C2483 C 0.65013 0.10572 0.63731 0.0
C2484 C 0.65416 0.12319 0.62293 0.0
C2485 C 0.63445 0.12806 0.66704 0.0
C2486 C 0.65198 0.12911 0.57356 0.0
C2487 C 0.65763 0.13722 0.56093 0.0
C2488 C 0.66566 0.13953 0.597 0.0
C2489 C 0.66819 0.13326 0.64435 0.0
C2490 C 0.66246 0.12514 0.65727 0.0
H2491 H 0.62798 0.12856 0.6965 0.0
H2492 H 0.64027 0.13262 0.68656 0.0
H2493 H 0.63251 0.13107 0.62233 0.0
H2494 H 0.64571 0.12764 0.5459 0.0
H2495 H 0.65555 0.14181 0.5236 0.0
H2496 H 0.84668 0.35476 0.92487 0.0
H2497 H 0.85561 0.36973 0.91176 0.0
H2498 H 0.83254 0.38124 0.80269 0.0
H2499 H 0.82348 0.36606 0.81521 0.0
H2500 H 0.8508 0.38382 0.75158 0.0
H2501 H 0.85112 0.39609 0.98806 0.0
H2502 H 0.85497 0.38375 0.98225 0.0
H2503 H 0.84283 0.38698 0.96104 0.0
C2504 C 0.84342 0.36047 0.89844 0.0
C2505 C 0.83434 0.3592 0.87118 0.0
C2506 C 0.84852 0.36908 0.89139 0.0
C2507 C 0.84468 0.37669 0.85724 0.0
C2508 C 0.8356 0.37549 0.82978 0.0
H2509 H 0.88362 0.42687 0.87382 0.0
H2510 H 0.8681 0.41832 0.8693 0.0
C2511 C 0.83043 0.36683 0.83702 0.0
C2512 C 0.85054 0.38557 0.84798 0.0
H2513 H 0.86434 0.40177 0.9256 0.0
C2514 C 0.8536 0.3879 0.78947 0.0
C2515 C 0.85403 0.39105 0.89715 0.0
C2516 C 0.85048 0.3894 0.96057 0.0
C2517 C 0.86066 0.39503 0.77944 0.0
C2518 C 0.8649 0.39981 0.82933 0.0
C2519 C 0.86123 0.39803 0.88728 0.0
C2520 C 0.87383 0.40573 0.82363 0.0
C2521 C 0.86368 0.39719 0.71557 0.0
C2522 C 0.88219 0.40159 0.79875 0.0
C2523 C 0.89102 0.40645 0.80112 0.0
C2524 C 0.89174 0.41555 0.82902 0.0
C2525 C 0.8833 0.4199 0.85175 0.0
C2526 C 0.87443 0.415 0.84934 0.0
H2527 H 0.85759 0.39601 0.68381 0.0
H2528 H 0.86629 0.40474 0.71068 0.0
H2529 H 0.8696 0.3922 0.7024 0.0
H2530 H 0.88201 0.39436 0.78012 0.0
H2531 H 0.89736 0.40288 0.78325 0.0
H2532 H 0.38301 0.07075 0.63374 0.0
H2533 H 0.36772 0.0796 0.62119 0.0
H2534 H 0.38014 0.1043 0.711 0.0
H2535 H 0.3952 0.09554 0.72466 0.0
H2536 H 0.36158 0.10053 0.74911 0.0
H2537 H 0.36378 0.10128 0.49862 0.0
H2538 H 0.36385 0.08958 0.53393 0.0
H2539 H 0.37386 0.09765 0.54483 0.0
C2540 C 0.38244 0.07805 0.65102 0.0
C2541 C 0.39035 0.08245 0.67982 0.0
C2542 C 0.37372 0.08311 0.6436 0.0
C2543 C 0.37281 0.09266 0.66456 0.0
C2544 C 0.38064 0.09694 0.6945 0.0
H2545 H 0.34587 0.14399 0.56999 0.0
H2546 H 0.35495 0.12913 0.58375 0.0
C2547 C 0.38929 0.09191 0.70204 0.0
C2548 C 0.36395 0.09851 0.65415 0.0
H2549 H 0.35163 0.11054 0.54392 0.0
C2550 C 0.35926 0.10259 0.70425 0.0
C2551 C 0.36098 0.10121 0.59554 0.0
C2552 C 0.36588 0.09728 0.53999 0.0
C2553 C 0.3521 0.10971 0.69747 0.0
C2554 C 0.34941 0.11271 0.63889 0.0
C2555 C 0.35368 0.1082 0.58877 0.0
C2556 C 0.34338 0.12145 0.62862 0.0
C2557 C 0.34795 0.11443 0.75305 0.0
C2558 C 0.33376 0.12209 0.64871 0.0
C2559 C 0.3285 0.1307 0.64119 0.0
C2560 C 0.33279 0.13876 0.6132 0.0
C2561 C 0.34233 0.13796 0.59196 0.0
C2562 C 0.34754 0.12943 0.59957 0.0
H2563 H 0.3519 0.11232 0.79458 0.0
H2564 H 0.34816 0.12242 0.74878 0.0
H2565 H 0.34028 0.11223 0.75831 0.0
H2566 H 0.33035 0.11598 0.67045 0.0
H2567 H 0.32115 0.13107 0.65772 0.0
H2568 H 0.61101 0.57238 0.40816 0.0
H2569 H 0.62522 0.58246 0.43053 0.0
H2570 H 0.61904 0.60008 0.27513 0.0
H2571 H 0.60487 0.59022 0.25307 0.0
H2572 H 0.64224 0.58883 0.36046 0.0
H2573 H 0.61729 0.6187 0.42138 0.0
H2574 H 0.61329 0.60635 0.41335 0.0
H2575 H 0.61525 0.61372 0.34777 0.0
C2576 C 0.61279 0.57831 0.37827 0.0
C2577 C 0.60674 0.5806 0.32938 0.0
C2578 C 0.6209 0.58405 0.39106 0.0
C2579 C 0.62308 0.59211 0.35501 0.0
C2580 C 0.6174 0.59399 0.30406 0.0
H2581 H 0.67111 0.63284 0.34977 0.0
H2582 H 0.66065 0.61883 0.3308 0.0
C2583 C 0.6093 0.58834 0.29155 0.0
C2584 C 0.63071 0.59908 0.37291 0.0
H2585 H 0.63388 0.62265 0.41341 0.0
C2586 C 0.64044 0.59621 0.37247 0.0
C2587 C 0.62833 0.60867 0.38928 0.0
C2588 C 0.61797 0.61205 0.3936 0.0
C2589 C 0.64789 0.60279 0.38666 0.0
C2590 C 0.6455 0.61248 0.40084 0.0
C2591 C 0.63574 0.61524 0.40227 0.0
C2592 C 0.65287 0.61997 0.41523 0.0
C2593 C 0.6582 0.59927 0.3871 0.0
C2594 C 0.65206 0.62525 0.46898 0.0
C2595 C 0.65788 0.63331 0.47929 0.0
C2596 C 0.66473 0.63626 0.4363 0.0
C2597 C 0.66595 0.63069 0.38389 0.0
C2598 C 0.66 0.62265 0.37317 0.0
H2599 H 0.65859 0.59129 0.39211 0.0
H2600 H 0.66169 0.60123 0.34378 0.0
H2601 H 0.66237 0.60268 0.42416 0.0
H2602 H 0.64664 0.62333 0.50216 0.0
H2603 H 0.65682 0.63742 0.52033 0.0
H2604 H 0.17752 0.86531 0.16582 0.0
H2605 H 0.16823 0.88036 0.17718 0.0
H2606 H 0.14391 0.86704 0.08856 0.0
H2607 H 0.1531 0.85219 0.07616 0.0
H2608 H 0.14728 0.88569 0.04876 0.0
H2609 H 0.14632 0.88388 0.29932 0.0
H2610 H 0.15805 0.88397 0.26447 0.0
H2611 H 0.15019 0.87379 0.2538 0.0
C2612 C 0.17021 0.86563 0.14855 0.0
C2613 C 0.16604 0.85752 0.12047 0.0
C2614 C 0.1649 0.87421 0.15529 0.0
C2615 C 0.15533 0.87479 0.13432 0.0
C2616 C 0.15128 0.86678 0.10507 0.0
H2617 H 0.1035 0.90161 0.22521 0.0
H2618 H 0.11834 0.89244 0.21232 0.0
C2619 C 0.15655 0.85826 0.09825 0.0
C2620 C 0.14925 0.88352 0.14394 0.0
H2621 H 0.13695 0.89585 0.25301 0.0
C2622 C 0.14514 0.88805 0.09341 0.0
C2623 C 0.14644 0.88654 0.20227 0.0
C2624 C 0.1504 0.88179 0.25824 0.0
C2625 C 0.13793 0.89513 0.09951 0.0
C2626 C 0.13485 0.89789 0.15783 0.0
C2627 C 0.13935 0.89375 0.20837 0.0
C2628 C 0.12611 0.90394 0.16742 0.0
C2629 C 0.13321 0.89914 0.04355 0.0
C2630 C 0.12553 0.91355 0.14701 0.0
C2631 C 0.11695 0.91886 0.15407 0.0
C2632 C 0.10884 0.91464 0.18187 0.0
C2633 C 0.10957 0.9051 0.20337 0.0
C2634 C 0.11808 0.89984 0.19626 0.0
H2635 H 0.13536 0.89512 1.00236 0.0
H2636 H 0.12522 0.89889 0.04769 0.0
H2637 H 0.13537 0.90681 0.03774 0.0
H2638 H 0.13169 0.91692 0.12542 0.0
H2639 H 0.11665 0.9262 0.13733 0.0
H2640 H 0.89349 0.59524 0.22315 0.0
H2641 H 0.87851 0.60422 0.21228 0.0
H2642 H 0.86631 0.58091 0.10813 0.0
H2643 H 0.88152 0.57182 0.11807 0.0
H2644 H 0.86351 0.59836 0.05467 0.0
H2645 H 0.85258 0.60119 0.29267 0.0
H2646 H 0.86488 0.60497 0.28384 0.0
H2647 H 0.86158 0.59265 0.26739 0.0
C2648 C 0.88761 0.59193 0.19838 0.0
C2649 C 0.88871 0.58279 0.1715 0.0
C2650 C 0.87899 0.59706 0.19273 0.0
C2651 C 0.87119 0.59317 0.16057 0.0
C2652 C 0.8722 0.58401 0.1338 0.0
H2653 H 0.82139 0.63328 0.16166 0.0
H2654 H 0.83004 0.6178 0.17005 0.0
C2655 C 0.88089 0.57883 0.13949 0.0
C2656 C 0.86238 0.59914 0.15135 0.0
H2657 H 0.847 0.61417 0.22692 0.0
C2658 C 0.85974 0.60164 0.09233 0.0
C2659 C 0.85727 0.60327 0.20028 0.0
C2660 C 0.85916 0.60028 0.26454 0.0
C2661 C 0.85274 0.60878 0.08118 0.0
C2662 C 0.84842 0.61367 0.13031 0.0
C2663 C 0.85043 0.61056 0.18916 0.0
C2664 C 0.84274 0.6227 0.12193 0.0
C2665 C 0.85026 0.61119 0.01676 0.0
C2666 C 0.84702 0.63061 0.09276 0.0
C2667 C 0.84214 0.63939 0.08797 0.0
C2668 C 0.83286 0.64054 0.11279 0.0
C2669 C 0.82852 0.63261 0.14189 0.0
C2670 C 0.83345 0.62377 0.14668 0.0
H2671 H 0.85118 0.60478 0.98713 0.0
H2672 H 0.84272 0.61385 0.01256 0.0
H2673 H 0.85524 0.6169 1.00026 0.0
H2674 H 0.85429 0.63008 0.07489 0.0
H2675 H 0.84574 0.64533 0.06551 0.0
H2676 H 0.15158 0.14583 0.97504 0.0
H2677 H 0.14302 0.13063 0.96324 0.0
H2678 H 0.16739 0.11861 0.86807 0.0
H2679 H 0.17606 0.13404 0.87892 0.0
H2680 H 0.15047 0.11512 0.81 0.0
H2681 H 0.14607 0.10511 0.04869 0.0
H2682 H 0.14203 0.11726 0.03654 0.0
H2683 H 0.15455 0.11425 0.02446 0.0
C2684 C 0.15521 0.13996 0.95204 0.0
C2685 C 0.16453 0.14116 0.92801 0.0
C2686 C 0.15031 0.1312 0.94585 0.0
C2687 C 0.15463 0.12338 0.91602 0.0
C2688 C 0.16396 0.12451 0.89193 0.0
H2689 H 0.11611 0.07233 0.9142 0.0
H2690 H 0.13124 0.08151 0.92527 0.0
C2691 C 0.1689 0.13333 0.89813 0.0
C2692 C 0.14897 0.11437 0.90648 0.0
H2693 H 0.13386 0.09882 0.98004 0.0
C2694 C 0.14701 0.11141 0.84725 0.0
C2695 C 0.14461 0.10934 0.95496 0.0
C2696 C 0.14702 0.11159 0.01971 0.0
C2697 C 0.14021 0.10412 0.83517 0.0
C2698 C 0.13508 0.09984 0.88349 0.0
C2699 C 0.13764 0.10221 0.94284 0.0
C2700 C 0.12633 0.09381 0.87339 0.0
C2701 C 0.1384 0.10129 0.77054 0.0
C2702 C 0.11853 0.0977 0.84113 0.0
C2703 C 0.10995 0.09251 0.83481 0.0
C2704 C 0.10889 0.08332 0.86113 0.0
C2705 C 0.11672 0.07937 0.8932 0.0
C2706 C 0.12535 0.0846 0.89954 0.0
H2707 H 0.14501 0.10229 0.74276 0.0
H2708 H 0.13602 0.09364 0.76685 0.0
H2709 H 0.13268 0.106 0.75147 0.0
H2710 H 0.11897 0.10489 0.82206 0.0
H2711 H 0.10407 0.09582 0.81003 0.0
H2712 H 0.60322 0.40101 0.7076 0.0
H2713 H 0.61826 0.3923 0.69219 0.0
H2714 H 0.63015 0.41683 0.59787 0.0
H2715 H 0.61488 0.42564 0.61238 0.0
H2716 H 0.63311 0.40008 0.53698 0.0
H2717 H 0.64421 0.39471 0.77299 0.0
H2718 H 0.63197 0.39084 0.76253 0.0
H2719 H 0.63507 0.40338 0.75172 0.0
C2720 C 0.60903 0.40464 0.68406 0.0
C2721 C 0.60783 0.41405 0.66128 0.0
C2722 C 0.6177 0.39966 0.67579 0.0
C2723 C 0.62543 0.40397 0.64507 0.0
C2724 C 0.62431 0.41339 0.62235 0.0
H2725 H 0.67621 0.36518 0.62739 0.0
H2726 H 0.66712 0.38027 0.64272 0.0
C2727 C 0.61559 0.41842 0.63065 0.0
C2728 C 0.63431 0.39822 0.63304 0.0
H2729 H 0.65007 0.38271 0.70141 0.0
C2730 C 0.63697 0.39646 0.57301 0.0
C2731 C 0.63953 0.39364 0.6799 0.0
C2732 C 0.63761 0.39583 0.74538 0.0
C2733 C 0.64413 0.38964 0.55857 0.0
C2734 C 0.64861 0.3843 0.60531 0.0
C2735 C 0.64653 0.38666 0.66543 0.0
C2736 C 0.65454 0.37556 0.59278 0.0
C2737 C 0.64663 0.38804 0.49319 0.0
C2738 C 0.65047 0.36789 0.5602 0.0
C2739 C 0.65561 0.35933 0.55146 0.0
C2740 C 0.66493 0.35817 0.5756 0.0
C2741 C 0.66906 0.36587 0.60802 0.0
C2742 C 0.66388 0.37448 0.6168 0.0
H2743 H 0.64552 0.39474 0.4665 0.0
H2744 H 0.65424 0.38565 0.48769 0.0
H2745 H 0.64182 0.38239 0.4743 0.0
H2746 H 0.64319 0.36841 0.54272 0.0
H2747 H 0.65217 0.35355 0.52651 0.0
H2748 H 0.39168 0.90836 0.24768 0.0
H2749 H 0.37752 0.89833 0.26672 0.0
H2750 H 0.3733 0.91254 0.4377 0.0
H2751 H 0.38738 0.92285 0.41786 0.0
H2752 H 0.37668 0.88564 0.35559 0.0
H2753 H 0.34573 0.91083 0.37749 0.0
H2754 H 0.35715 0.91443 0.34509 0.0
H2755 H 0.35572 0.91383 0.42553 0.0
C2756 C 0.38763 0.90949 0.28882 0.0
C2757 C 0.39067 0.91636 0.33143 0.0
C2758 C 0.37952 0.90375 0.29963 0.0
C2759 C 0.37429 0.90468 0.35351 0.0
C2760 C 0.37707 0.91181 0.39523 0.0
H2761 H 0.34408 0.85717 0.51857 0.0
H2762 H 0.35422 0.87109 0.49522 0.0
C2763 C 0.38516 0.91767 0.38401 0.0
C2764 C 0.36671 0.89742 0.3684 0.0
H2765 H 0.34309 0.89455 0.41042 0.0
C2766 C 0.36933 0.88762 0.36713 0.0
C2767 C 0.35708 0.89997 0.38306 0.0
C2768 C 0.35371 0.91033 0.38236 0.0
C2769 C 0.36266 0.88031 0.38083 0.0
C2770 C 0.35314 0.88285 0.39781 0.0
C2771 C 0.35042 0.89264 0.39801 0.0
C2772 C 0.34608 0.87535 0.41645 0.0
C2773 C 0.36588 0.8699 0.37652 0.0
C2774 C 0.33784 0.8734 0.38156 0.0
C2775 C 0.33194 0.86544 0.39513 0.0
C2776 C 0.33423 0.85932 0.44368 0.0
C2777 C 0.34218 0.86165 0.48037 0.0
C2778 C 0.348 0.86961 0.46709 0.0
H2779 H 0.37243 0.86911 0.34796 0.0
H2780 H 0.36766 0.8672 0.42224 0.0
H2781 H 0.36006 0.86528 0.35765 0.0
H2782 H 0.33622 0.87777 0.34238 0.0
H2783 H 0.32586 0.86383 0.3661 0.0
H2784 H 0.07672 0.46994 0.83728 0.0
H2785 H 0.08017 0.48556 0.88234 0.0
H2786 H 0.10246 0.47261 0.99173 0.0
H2787 H 0.09858 0.45672 0.94899 0.0
H2788 H 0.09281 0.48366 0.05814 0.0
H2789 H 0.10017 0.50509 0.85515 0.0
H2790 H 0.08854 0.49961 0.84662 0.0
H2791 H 0.09919 0.4921 0.85236 0.0
C2792 C 0.08246 0.47042 0.87029 0.0
C2793 C 0.08742 0.4621 0.88932 0.0
C2794 C 0.08451 0.47941 0.89567 0.0
C2795 C 0.09179 0.4804 0.93928 0.0
C2796 C 0.09687 0.47209 0.95776 0.0
H2797 H 0.09913 0.54072 0.06328 0.0
H2798 H 0.10284 0.52506 0.01616 0.0
C2799 C 0.09466 0.46301 0.93333 0.0
C2800 C 0.09338 0.48991 0.96921 0.0
H2801 H 0.09389 0.51419 0.94133 0.0
C2802 C 0.09326 0.49031 0.03242 0.0
C2803 C 0.09428 0.49865 0.93631 0.0
C2804 C 0.09568 0.49881 0.86891 0.0
C2805 C 0.09331 0.49916 0.06324 0.0
C2806 C 0.093 0.50791 0.03002 0.0
C2807 C 0.09385 0.50752 0.96703 0.0
C2808 C 0.09106 0.5174 0.05937 0.0
C2809 C 0.09366 0.499 0.13119 0.0
C2810 C 0.08311 0.51839 0.09821 0.0
C2811 C 0.08114 0.52721 0.12593 0.0
C2812 C 0.08687 0.53537 0.11402 0.0
C2813 C 0.09462 0.53453 0.07346 0.0
C2814 C 0.09674 0.52559 0.04661 0.0
H2815 H 0.09775 0.49261 0.14761 0.0
H2816 H 0.09707 0.50562 0.14972 0.0
H2817 H 0.08619 0.4984 0.14914 0.0
H2818 H 0.07834 0.51234 0.1068 0.0
H2819 H 0.07499 0.52767 0.15598 0.0
H2820 H 0.70682 0.84312 0.298 0.0
H2821 H 0.72214 0.8466 0.24598 0.0
H2822 H 0.73776 0.83162 0.38553 0.0
H2823 H 0.72267 0.82818 0.43771 0.0
H2824 H 0.74047 0.85611 0.30235 0.0
H2825 H 0.74512 0.81865 0.21665 0.0
H2826 H 0.73346 0.82357 0.23684 0.0
H2827 H 0.7417 0.81974 0.29454 0.0
C2828 C 0.71352 0.84061 0.31767 0.0
C2829 C 0.7135 0.83534 0.37193 0.0
C2830 C 0.72225 0.84261 0.28796 0.0
C2831 C 0.73104 0.83929 0.3118 0.0
C2832 C 0.73104 0.83417 0.36622 0.0
H2833 H 0.79137 0.83525 0.23258 0.0
H2834 H 0.77493 0.83445 0.27227 0.0
C2835 C 0.72238 0.83223 0.396 0.0
C2836 C 0.74031 0.84098 0.28017 0.0
H2837 H 0.75876 0.82898 0.21072 0.0
C2838 C 0.74444 0.85024 0.28149 0.0
C2839 C 0.74546 0.83327 0.25342 0.0
C2840 C 0.74121 0.82324 0.24968 0.0
C2841 C 0.7538 0.8519 0.25891 0.0
C2842 C 0.75905 0.84412 0.23341 0.0
C2843 C 0.75476 0.83493 0.23055 0.0
C2844 C 0.76914 0.84519 0.21129 0.0
C2845 C 0.75814 0.86186 0.26497 0.0
C2846 C 0.77139 0.85155 0.16403 0.0
C2847 C 0.78083 0.85207 0.14141 0.0
C2848 C 0.78816 0.84614 0.16512 0.0
C2849 C 0.7859 0.83988 0.21302 0.0
C2850 C 0.7765 0.83941 0.23578 0.0
H2851 H 0.75419 0.86632 0.29854 0.0
H2852 H 0.76585 0.86143 0.27848 0.0
H2853 H 0.75774 0.86561 0.22086 0.0
H2854 H 0.7658 0.85593 0.14355 0.0
H2855 H 0.7823 0.85691 0.10418 0.0
H2856 H 0.39612 0.53972 0.42618 0.0
H2857 H 0.39333 0.52439 0.47928 0.0
H2858 H 0.41804 0.51194 0.38936 0.0
H2859 H 0.42047 0.52692 0.33418 0.0
H2860 H 0.40439 0.4994 0.3908 0.0
H2861 H 0.40742 0.51454 0.62165 0.0
H2862 H 0.39772 0.51961 0.57844 0.0
H2863 H 0.41004 0.52161 0.55553 0.0
C2864 C 0.40091 0.53368 0.41784 0.0
C2865 C 0.4085 0.53451 0.37603 0.0
C2866 C 0.39937 0.52494 0.44851 0.0
C2867 C 0.40557 0.51701 0.43925 0.0
C2868 C 0.41312 0.5179 0.39731 0.0
H2869 H 0.42111 0.47078 0.67083 0.0
H2870 H 0.41826 0.48576 0.61628 0.0
C2871 C 0.41451 0.5265 0.36579 0.0
C2872 C 0.4044 0.50774 0.47271 0.0
H2873 H 0.40424 0.49789 0.61376 0.0
C2874 C 0.40433 0.49907 0.43962 0.0
C2875 C 0.40435 0.50729 0.53645 0.0
C2876 C 0.40498 0.51624 0.57517 0.0
C2877 C 0.4047 0.49001 0.46811 0.0
C2878 C 0.40466 0.48956 0.53186 0.0
C2879 C 0.40425 0.49822 0.56495 0.0
C2880 C 0.40606 0.48032 0.56532 0.0
C2881 C 0.4057 0.48109 0.42939 0.0
C2882 C 0.40014 0.4722 0.55536 0.0
C2883 C 0.40195 0.46348 0.58562 0.0
C2884 C 0.40949 0.46285 0.62776 0.0
C2885 C 0.4152 0.47105 0.6389 0.0
C2886 C 0.41356 0.47964 0.60775 0.0
H2887 H 0.40818 0.48289 0.38312 0.0
H2888 H 0.4109 0.47589 0.44937 0.0
H2889 H 0.39856 0.47749 0.42549 0.0
H2890 H 0.39414 0.47259 0.52426 0.0
H2891 H 0.39738 0.45729 0.57662 0.0
H2892 H 0.78235 0.14289 0.90947 0.0
H2893 H 0.76615 0.14253 0.86501 0.0
H2894 H 0.77495 0.16361 0.73297 0.0
H2895 H 0.79114 0.16408 0.77717 0.0
H2896 H 0.75353 0.16001 0.84796 0.0
H2897 H 0.76233 0.14038 0.63654 0.0
H2898 H 0.76979 0.13965 0.70319 0.0
H2899 H 0.77027 0.15018 0.65607 0.0
C2900 C 0.78087 0.1474 0.87066 0.0
C2901 C 0.78805 0.15351 0.84683 0.0
C2902 C 0.7716 0.1472 0.84548 0.0
C2903 C 0.76939 0.15299 0.79554 0.0
C2904 C 0.77656 0.15901 0.77119 0.0
H2905 H 0.72256 0.16733 0.56388 0.0
H2906 H 0.73778 0.16428 0.61524 0.0
C2907 C 0.78579 0.1593 0.79665 0.0
C2908 C 0.75952 0.15303 0.76986 0.0
H2909 H 0.74685 0.14766 0.6424 0.0
C2910 C 0.75201 0.15723 0.8033 0.0
C2911 C 0.75761 0.14938 0.71167 0.0
C2912 C 0.76539 0.14457 0.67473 0.0
C2913 C 0.74269 0.15828 0.77889 0.0
C2914 C 0.74081 0.1548 0.72002 0.0
C2915 C 0.74828 0.15032 0.68747 0.0
C2916 C 0.73139 0.1564 0.68939 0.0
C2917 C 0.7351 0.16352 0.81524 0.0
C2918 C 0.72267 0.15289 0.71358 0.0
C2919 C 0.71387 0.15471 0.68442 0.0
C2920 C 0.71366 0.15996 0.63015 0.0
C2921 C 0.72243 0.16326 0.60557 0.0
C2922 C 0.73117 0.16151 0.63487 0.0
H2923 H 0.73833 0.16771 0.8529 0.0
H2924 H 0.73089 0.16855 0.78641 0.0
H2925 H 0.73003 0.15817 0.83485 0.0
H2926 H 0.72267 0.14874 0.7549 0.0
H2927 H 0.70725 0.15202 0.70432 0.0
H2928 H 0.89819 0.45644 0.9558 0.0
H2929 H 0.89415 0.47221 0.99968 0.0
H2930 H 0.91635 0.48557 0.89132 0.0
H2931 H 0.91995 0.47007 0.84511 0.0
H2932 H 0.90367 0.48319 0.06698 0.0
H2933 H 0.89621 0.50501 0.86578 0.0
H2934 H 0.8973 0.49203 0.86189 0.0
H2935 H 0.90788 0.49964 0.85687 0.0
C2936 C 0.90205 0.4628 0.94059 0.0
C2937 C 0.90931 0.46203 0.89655 0.0
C2938 C 0.89975 0.47181 0.96569 0.0
C2939 C 0.90476 0.48019 0.94786 0.0
C2940 C 0.91206 0.47936 0.90417 0.0
H2941 H 0.92124 0.52707 0.16838 0.0
H2942 H 0.91795 0.51184 0.11792 0.0
C2943 C 0.91419 0.47043 0.87813 0.0
C2944 C 0.90309 0.48963 0.97857 0.0
H2945 H 0.90239 0.51397 0.95278 0.0
C2946 C 0.90318 0.48989 0.04182 0.0
C2947 C 0.90213 0.49844 0.94643 0.0
C2948 C 0.90075 0.49873 0.87903 0.0
C2949 C 0.90305 0.49868 0.07339 0.0
C2950 C 0.90331 0.5075 0.04092 0.0
C2951 C 0.90248 0.50725 0.97791 0.0
C2952 C 0.90519 0.51693 0.07111 0.0
C2953 C 0.90269 0.49836 0.14131 0.0
C2954 C 0.89947 0.52512 0.05917 0.0
C2955 C 0.90154 0.53401 0.08681 0.0
C2956 C 0.9093 0.5348 0.12732 0.0
C2957 C 0.91508 0.52665 0.1384 0.0
C2958 C 0.91314 0.51788 0.10994 0.0
H2959 H 0.89863 0.49192 0.15716 0.0
H2960 H 0.91015 0.49777 0.15926 0.0
H2961 H 0.89923 0.50493 0.16039 0.0
H2962 H 0.89337 0.52463 0.02874 0.0
H2963 H 0.897 0.5402 0.07723 0.0
H2964 H 0.20663 0.1497 0.83726 0.0
H2965 H 0.22212 0.1457 0.7892 0.0
H2966 H 0.23554 0.16973 0.88064 0.0
H2967 H 0.22035 0.17339 0.93074 0.0
H2968 H 0.2328 0.15461 0.71403 0.0
H2969 H 0.25516 0.14997 0.91645 0.0
H2970 H 0.24218 0.15089 0.92072 0.0
H2971 H 0.24959 0.16163 0.91955 0.0
C2972 C 0.21294 0.15404 0.84747 0.0
C2973 C 0.21232 0.16177 0.88835 0.0
C2974 C 0.22179 0.15175 0.82009 0.0
C2975 C 0.23012 0.15722 0.83261 0.0
C2976 C 0.22938 0.16511 0.87213 0.0
H2977 H 0.27667 0.17088 0.60175 0.0
H2978 H 0.26143 0.16811 0.6532 0.0
C2979 C 0.22063 0.16727 0.90035 0.0
C2980 C 0.23947 0.1552 0.80172 0.0
H2981 H 0.26385 0.15481 0.82562 0.0
C2982 C 0.23957 0.15446 0.73864 0.0
C2983 C 0.24834 0.15466 0.83344 0.0
C2984 C 0.24879 0.15421 0.9013 0.0
C2985 C 0.24829 0.15392 0.70642 0.0
C2986 C 0.25718 0.15457 0.73788 0.0
C2987 C 0.25707 0.15457 0.80112 0.0
C2988 C 0.26656 0.15601 0.70617 0.0
C2989 C 0.24782 0.1527 0.63894 0.0
C2990 C 0.27477 0.15047 0.72082 0.0
C2991 C 0.28366 0.15225 0.6925 0.0
C2992 C 0.28446 0.15953 0.64862 0.0
C2993 C 0.27627 0.16508 0.63448 0.0
C2994 C 0.26748 0.16344 0.66352 0.0
H2995 H 0.24134 0.14847 0.62571 0.0
H2996 H 0.24721 0.15991 0.61742 0.0
H2997 H 0.25434 0.14899 0.62108 0.0
H2998 H 0.2743 0.14477 0.75415 0.0
H2999 H 0.28987 0.14788 0.70447 0.0
H3000 H 0.59862 0.45638 0.56838 0.0
H3001 H 0.60181 0.47177 0.51675 0.0
H3002 H 0.57877 0.48518 0.61767 0.0
H3003 H 0.57594 0.47012 0.67109 0.0
H3004 H 0.59176 0.482 0.44463 0.0
H3005 H 0.59856 0.50525 0.64069 0.0
H3006 H 0.59793 0.49228 0.64734 0.0
H3007 H 0.58708 0.49951 0.6505 0.0
C3008 C 0.59435 0.46267 0.57997 0.0
C3009 C 0.58713 0.46208 0.62436 0.0
C3010 C 0.59617 0.47146 0.55051 0.0
C3011 C 0.59073 0.47976 0.56449 0.0
C3012 C 0.58337 0.47905 0.60779 0.0
H3013 H 0.57359 0.5253 0.33336 0.0
H3014 H 0.57707 0.51027 0.38578 0.0
C3015 C 0.58169 0.47037 0.63797 0.0
C3016 C 0.59218 0.48901 0.53132 0.0
H3017 H 0.59238 0.51348 0.5514 0.0
C3018 C 0.59209 0.48887 0.46808 0.0
C3019 C 0.59294 0.49802 0.56136 0.0
C3020 C 0.59426 0.49875 0.62869 0.0
C3021 C 0.59204 0.49746 0.43442 0.0
C3022 C 0.59163 0.50647 0.4648 0.0
C3023 C 0.59243 0.50662 0.52784 0.0
C3024 C 0.58969 0.51572 0.43255 0.0
C3025 C 0.5924 0.49674 0.36663 0.0
C3026 C 0.59528 0.52403 0.44356 0.0
C3027 C 0.59309 0.53279 0.41485 0.0
C3028 C 0.58534 0.53335 0.37411 0.0
C3029 C 0.57972 0.52506 0.36361 0.0
C3030 C 0.58178 0.5164 0.39316 0.0
H3031 H 0.59655 0.49026 0.35227 0.0
H3032 H 0.58495 0.49595 0.34887 0.0
H3033 H 0.59578 0.50323 0.34604 0.0
H3034 H 0.60135 0.52374 0.47431 0.0
H3035 H 0.59751 0.53908 0.42393 0.0
H3036 H 0.29198 0.8509 0.35002 0.0
H3037 H 0.27654 0.85463 0.30052 0.0
H3038 H 0.26295 0.83133 0.39824 0.0
H3039 H 0.27807 0.82797 0.44958 0.0
H3040 H 0.26596 0.84515 0.22752 0.0
H3041 H 0.24325 0.85131 0.42671 0.0
H3042 H 0.25623 0.85047 0.43215 0.0
H3043 H 0.24884 0.83971 0.43425 0.0
C3044 C 0.28564 0.84668 0.36136 0.0
C3045 C 0.2862 0.83923 0.40426 0.0
C3046 C 0.27682 0.84881 0.33315 0.0
C3047 C 0.26846 0.84346 0.34692 0.0
C3048 C 0.26914 0.83587 0.38866 0.0
H3049 H 0.22281 0.82673 0.11941 0.0
H3050 H 0.23787 0.83047 0.17037 0.0
C3051 C 0.27785 0.83388 0.41762 0.0
C3052 C 0.25916 0.84521 0.31492 0.0
H3053 H 0.23475 0.84537 0.3374 0.0
C3054 C 0.25915 0.8454 0.25169 0.0
C3055 C 0.25023 0.8459 0.34593 0.0
C3056 C 0.24967 0.84696 0.4135 0.0
C3057 C 0.25048 0.84549 0.21889 0.0
C3058 C 0.24155 0.84493 0.25006 0.0
C3059 C 0.24156 0.84553 0.31319 0.0
C3060 C 0.23228 0.84289 0.21851 0.0
C3061 C 0.25103 0.84611 0.15111 0.0
C3062 C 0.22387 0.84829 0.23078 0.0
C3063 C 0.21509 0.84595 0.20285 0.0
C3064 C 0.2146 0.83824 0.16171 0.0
C3065 C 0.22298 0.83283 0.14997 0.0
C3066 C 0.23166 0.83504 0.17868 0.0
H3067 H 0.25742 0.85041 0.1368 0.0
H3068 H 0.25191 0.83873 0.1322 0.0
H3069 H 0.24445 0.84945 0.1316 0.0
H3070 H 0.22411 0.85431 0.26195 0.0
H3071 H 0.20872 0.85021 0.2129 0.0
H3072 H 0.60128 0.95718 0.4441 0.0
H3073 H 0.60409 0.97242 0.49812 0.0
H3074 H 0.58038 0.98554 0.40183 0.0
H3075 H 0.57795 0.97064 0.34585 0.0
H3076 H 0.5943 0.99776 0.40775 0.0
H3077 H 0.58919 0.98246 0.63678 0.0
H3078 H 0.59907 0.97721 0.59611 0.0
H3079 H 0.58689 0.97553 0.56966 0.0
C3080 C 0.59671 0.96335 0.4345 0.0
C3081 C 0.5894 0.96272 0.39074 0.0
C3082 C 0.59827 0.97204 0.4657 0.0
C3083 C 0.59234 0.98013 0.45498 0.0
C3084 C 0.58509 0.97945 0.41097 0.0
H3085 H 0.57618 0.02643 0.68464 0.0
H3086 H 0.57903 0.01149 0.62962 0.0
C3087 C 0.58369 0.9709 0.37897 0.0
C3088 C 0.59347 0.98934 0.48917 0.0
H3089 H 0.59277 -0.00096 0.63057 0.0
C3090 C 0.59399 0.99804 0.45654 0.0
C3091 C 0.59305 0.98972 0.55287 0.0
C3092 C 0.59193 0.98075 0.59096 0.0
C3093 C 0.59361 0.00708 0.48533 0.0
C3094 C 0.59316 0.00746 0.54903 0.0
C3095 C 0.59313 0.99876 0.58179 0.0
C3096 C 0.59172 0.0167 0.58252 0.0
C3097 C 0.59311 0.01606 0.4468 0.0
C3098 C 0.59791 0.02468 0.57481 0.0
C3099 C 0.59612 0.03339 0.6053 0.0
C3100 C 0.58831 0.03413 0.64548 0.0
C3101 C 0.5823 0.02607 0.65427 0.0
C3102 C 0.58394 0.0175 0.62286 0.0
H3103 H 0.59094 0.01437 0.39977 0.0
H3104 H 0.58789 0.02136 0.46551 0.0
H3105 H 0.60035 0.01949 0.44516 0.0
H3106 H 0.60412 0.0242 0.54537 0.0
H3107 H 0.60092 0.03947 0.59817 0.0
H3108 H 0.21893 0.32796 0.90784 0.0
H3109 H 0.23443 0.33082 0.85974 0.0
H3110 H 0.22189 0.35382 0.75419 0.0
H3111 H 0.20607 0.3506 0.80049 0.0
H3112 H 0.23284 0.34378 0.68591 0.0
H3113 H 0.25417 0.35072 0.88999 0.0
H3114 H 0.24836 0.33923 0.89801 0.0
H3115 H 0.24115 0.35007 0.89189 0.0
C3116 C 0.21946 0.33369 0.87479 0.0
C3117 C 0.21129 0.33912 0.85836 0.0
C3118 C 0.22839 0.3354 0.84769 0.0
C3119 C 0.22947 0.34276 0.80475 0.0
C3120 C 0.22129 0.34817 0.78781 0.0
H3121 H 0.29004 0.34906 0.68439 0.0
H3122 H 0.27435 0.35313 0.72975 0.0
C3123 C 0.21226 0.34633 0.81418 0.0
C3124 C 0.23901 0.34424 0.77502 0.0
H3125 H 0.26324 0.3444 0.80411 0.0
C3126 C 0.23947 0.34411 0.71185 0.0
C3127 C 0.24772 0.34502 0.80832 0.0
C3128 C 0.2478 0.34639 0.87575 0.0
C3129 C 0.24837 0.344 0.68145 0.0
C3130 C 0.25707 0.34357 0.71513 0.0
C3131 C 0.25661 0.34446 0.77806 0.0
C3132 C 0.26657 0.34145 0.68642 0.0
C3133 C 0.24831 0.34429 0.6135 0.0
C3134 C 0.2675 0.33343 0.64809 0.0
C3135 C 0.27636 0.33123 0.62147 0.0
C3136 C 0.2846 0.33682 0.63391 0.0
C3137 C 0.2838 0.34466 0.67386 0.0
C3138 C 0.27483 0.34699 0.69967 0.0
H3139 H 0.24201 0.34847 0.59661 0.0
H3140 H 0.25502 0.34758 0.59523 0.0
H3141 H 0.24762 0.33682 0.59577 0.0
H3142 H 0.26139 0.32877 0.63916 0.0
H3143 H 0.27678 0.32503 0.59181 0.0
H3144 H 0.91736 0.97345 0.19789 0.0
H3145 H 0.91437 0.98873 0.14665 0.0
H3146 H 0.9011 0.97356 0.99876 0.0
H3147 H 0.90411 0.95806 0.04974 0.0
H3148 H 0.92114 0.992 1.01057 0.0
H3149 H 0.88217 0.99715 0.06582 0.0
H3150 H 0.89004 0.99044 0.11543 0.0
H3151 H 0.88665 0.98539 0.04424 0.0
C3152 C 0.91375 0.9733 0.15462 0.0
C3153 C 0.91099 0.9645 0.12787 0.0
C3154 C 0.91206 0.98207 0.12546 0.0
C3155 C 0.9075 0.98225 0.06919 0.0
C3156 C 0.90458 0.97353 0.04244 0.0
H3157 H 0.89237 0.03448 0.86657 0.0
H3158 H 0.89299 0.01786 0.90424 0.0
C3159 C 0.90632 0.9647 0.07157 0.0
C3160 C 0.90624 0.99162 0.03809 0.0
H3161 H 0.89013 0.00999 0.01679 0.0
C3162 C 0.91435 0.99591 1.01129 0.0
C3163 C 0.89736 0.99663 0.03902 0.0
C3164 C 0.88851 0.99224 0.06764 0.0
C3165 C 0.91385 0.00521 0.98624 0.0
C3166 C 0.90507 0.01045 0.98963 0.0
C3167 C 0.89687 0.006 0.01469 0.0
C3168 C 0.90437 0.02062 0.96878 0.0
C3169 C 0.92274 0.00931 0.95623 0.0
C3170 C 0.91036 0.02777 0.99378 0.0
C3171 C 0.91006 0.03725 0.97222 0.0
C3172 C 0.90367 0.03982 0.92564 0.0
C3173 C 0.89739 0.03274 0.90238 0.0
C3174 C 0.89774 0.02323 0.92379 0.0
H3175 H 0.92773 0.0035 0.94121 0.0
H3176 H 0.92079 0.01382 0.91666 0.0
H3177 H 0.92669 0.01391 0.98892 0.0
H3178 H 0.91534 0.02599 0.02972 0.0
H3179 H 0.91489 0.04255 0.99175 0.0
H3180 H 0.27994 0.67685 0.36304 0.0
H3181 H 0.26444 0.67351 0.31454 0.0
H3182 H 0.26975 0.64286 0.33061 0.0
H3183 H 0.28566 0.64628 0.37513 0.0
H3184 H 0.26108 0.64573 0.23131 0.0
H3185 H 0.24076 0.66647 0.40107 0.0
H3186 H 0.24919 0.67428 0.36422 0.0
H3187 H 0.25352 0.66422 0.40849 0.0
C3188 C 0.2778 0.66941 0.35555 0.0
C3189 C 0.28389 0.66181 0.37294 0.0
C3190 C 0.2689 0.66749 0.32858 0.0
C3191 C 0.2657 0.65792 0.32099 0.0
C3192 C 0.27197 0.6503 0.33655 0.0
H3193 H 0.20386 0.65109 0.24949 0.0
H3194 H 0.21984 0.65065 0.29697 0.0
C3195 C 0.28105 0.65224 0.36189 0.0
C3196 C 0.25584 0.65594 0.29693 0.0
H3197 H 0.23231 0.66308 0.30896 0.0
C3198 C 0.25476 0.64943 0.24885 0.0
C3199 C 0.24749 0.6605 0.32077 0.0
C3200 C 0.24779 0.66665 0.37694 0.0
C3201 C 0.24569 0.64763 0.22264 0.0
C3202 C 0.2375 0.65289 0.24292 0.0
C3203 C 0.23854 0.65914 0.29235 0.0
C3204 C 0.22782 0.6522 0.21338 0.0
C3205 C 0.24501 0.63996 0.17452 0.0
C3206 C 0.22689 0.65313 0.15054 0.0
C3207 C 0.21777 0.65299 0.12339 0.0
C3208 C 0.2094 0.65234 0.15872 0.0
C3209 C 0.21025 0.65157 0.22144 0.0
C3210 C 0.21938 0.65135 0.24846 0.0
H3211 H 0.2506 0.63428 0.18121 0.0
H3212 H 0.23781 0.63643 0.17411 0.0
H3213 H 0.24635 0.64329 0.12984 0.0
H3214 H 0.23318 0.65422 0.12239 0.0
H3215 H 0.21724 0.65379 0.07495 0.0
H3216 H 0.42326 0.02688 0.68186 0.0
H3217 H 0.42079 0.01195 0.62615 0.0
H3218 H 0.39657 0.0248 0.53342 0.0
H3219 H 0.39942 0.04006 0.58699 0.0
H3220 H 0.40701 -0.00046 0.6218 0.0
H3221 H 0.41109 0.01505 0.39256 0.0
H3222 H 0.41355 0.02198 0.45951 0.0
H3223 H 0.40129 0.02018 0.43462 0.0
C3224 C 0.41741 0.02655 0.64955 0.0
C3225 C 0.41156 0.03466 0.63855 0.0
C3226 C 0.41598 0.01798 0.61773 0.0
C3227 C 0.40858 0.01723 0.57475 0.0
C3228 C 0.40251 0.02525 0.56496 0.0
H3229 H 0.39995 0.95795 0.43088 0.0
H3230 H 0.39682 0.97315 0.48472 0.0
C3231 C 0.40409 0.03395 0.59591 0.0
C3232 C 0.40743 0.00803 0.54053 0.0
H3233 H 0.40761 0.99845 0.39877 0.0
C3234 C 0.40712 -0.00069 0.57297 0.0
C3235 C 0.40759 0.0077 0.47677 0.0
C3236 C 0.40849 0.01671 0.43877 0.0
C3237 C 0.40745 0.9903 0.54384 0.0
C3238 C 0.40763 0.98996 0.48008 0.0
C3239 C 0.40746 0.99869 0.4476 0.0
C3240 C 0.40902 0.98078 0.44607 0.0
C3241 C 0.40818 0.98129 0.58196 0.0
C3242 C 0.41665 0.98008 0.40462 0.0
C3243 C 0.41825 0.97156 0.37266 0.0
C3244 C 0.41234 0.96344 0.38199 0.0
C3245 C 0.40467 0.96408 0.42327 0.0
C3246 C 0.40292 0.97274 0.45436 0.0
H3247 H 0.41051 0.98295 0.62871 0.0
H3248 H 0.40098 0.97778 0.58454 0.0
H3249 H 0.41337 0.97605 0.56228 0.0
H3250 H 0.42149 0.98613 0.3974 0.0
H3251 H 0.42426 0.97128 0.34144 0.0
H3252 H 0.71975 0.66956 0.43828 0.0
H3253 H 0.73502 0.66715 0.38657 0.0
H3254 H 0.72269 0.64339 0.2867 0.0
H3255 H 0.70707 0.64614 0.33666 0.0
H3256 H 0.74723 0.65298 0.38453 0.0
H3257 H 0.73373 0.6586 0.15142 0.0
H3258 H 0.72632 0.66088 0.21661 0.0
H3259 H 0.7282 0.6487 0.19059 0.0
C3260 C 0.72025 0.66381 0.40527 0.0
C3261 C 0.71218 0.65805 0.39139 0.0
C3262 C 0.72902 0.66242 0.37575 0.0
C3263 C 0.73003 0.65516 0.33212 0.0
C3264 C 0.72205 0.64921 0.31904 0.0
H3265 H 0.79057 0.6485 0.20442 0.0
H3266 H 0.77505 0.64447 0.25205 0.0
C3267 C 0.71314 0.65074 0.34786 0.0
C3268 C 0.73949 0.65407 0.30071 0.0
H3269 H 0.75031 0.6556 0.16279 0.0
C3270 C 0.74791 0.6535 0.33596 0.0
C3271 C 0.74038 0.65475 0.23731 0.0
C3272 C 0.7317 0.65585 0.19671 0.0
C3273 C 0.75716 0.65416 0.31016 0.0
C3274 C 0.75805 0.65498 0.24683 0.0
C3275 C 0.74963 0.65498 0.21132 0.0
C3276 C 0.76747 0.65696 0.21679 0.0
C3277 C 0.76581 0.65458 0.3515 0.0
C3278 C 0.76833 0.66511 0.1795 0.0
C3279 C 0.77706 0.66724 0.15111 0.0
C3280 C 0.78521 0.66136 0.15998 0.0
C3281 C 0.78442 0.65321 0.19736 0.0
C3282 C 0.77557 0.65093 0.22483 0.0
H3283 H 0.76371 0.65629 0.39862 0.0
H3284 H 0.76947 0.64745 0.35173 0.0
H3285 H 0.77107 0.66011 0.3361 0.0
H3286 H 0.76224 0.6699 0.17267 0.0
H3287 H 0.77745 0.67361 0.12285 0.0
H3288 H 0.10101 0.95752 0.0903 0.0
H3289 H 0.10473 0.97298 0.04088 0.0
H3290 H 0.08153 0.98659 0.1394 0.0
H3291 H 0.07817 0.97145 0.19063 0.0
H3292 H 0.09523 0.98367 0.96833 0.0
H3293 H 0.10162 0.00617 0.16814 0.0
H3294 H 0.10074 0.99319 0.17314 0.0
H3295 H 0.09001 0.00062 0.17571 0.0
C3296 C 0.09681 0.96387 0.10181 0.0
C3297 C 0.08939 0.96331 0.14493 0.0
C3298 C 0.09894 0.97269 0.07365 0.0
C3299 C 0.09362 0.98107 0.0877 0.0
C3300 C 0.08605 0.98039 0.12961 0.0
H3301 H 0.07722 0.02716 0.86173 0.0
H3302 H 0.0808 0.01199 0.91214 0.0
C3303 C 0.08406 0.97167 0.1585 0.0
C3304 C 0.0954 0.99039 0.05593 0.0
H3305 H 0.09574 0.01479 0.07921 0.0
C3306 C 0.09555 0.99045 0.9927 0.0
C3307 C 0.09616 -0.00071 0.08722 0.0
C3308 C 0.09725 -0.00022 0.15479 0.0
C3309 C 0.09569 -0.00084 0.96018 0.0
C3310 C 0.09521 0.00807 0.99165 0.0
C3311 C 0.09583 0.008 0.05477 0.0
C3312 C 0.09328 0.0174 0.96043 0.0
C3313 C 0.09627 0.99866 0.89237 0.0
C3314 C 0.09877 0.02573 0.97297 0.0
C3315 C 0.09652 0.03457 0.94536 0.0
C3316 C 0.08882 0.03519 0.90428 0.0
C3317 C 0.08332 0.02688 0.89226 0.0
C3318 C 0.08543 0.01815 0.92066 0.0
H3319 H 0.10049 0.99224 0.87775 0.0
H3320 H 0.08888 0.99789 0.87358 0.0
H3321 H 0.09967 0.00523 0.87301 0.0
H3322 H 0.10478 0.02539 1.00409 0.0
H3323 H 0.10086 0.04088 0.95562 0.0
H3324 H 0.70762 0.35005 0.66144 0.0
H3325 H 0.72325 0.35402 0.70782 0.0
H3326 H 0.7365 0.33033 0.61197 0.0
H3327 H 0.72117 0.32671 0.56363 0.0
H3328 H 0.73426 0.34495 0.7805 0.0
H3329 H 0.75588 0.35031 0.5757 0.0
H3330 H 0.74289 0.34936 0.5731 0.0
H3331 H 0.75034 0.33864 0.57161 0.0
C3332 C 0.71392 0.34579 0.64991 0.0
C3333 C 0.71321 0.33816 0.60831 0.0
C3334 C 0.72285 0.34806 0.67631 0.0
C3335 C 0.73117 0.34267 0.66202 0.0
C3336 C 0.73034 0.33489 0.62181 0.0
H3337 H 0.7782 0.32764 0.88339 0.0
H3338 H 0.76284 0.33091 0.83474 0.0
C3339 C 0.72151 0.33275 0.59461 0.0
C3340 C 0.74061 0.34465 0.69182 0.0
H3341 H 0.76489 0.34498 0.66441 0.0
C3342 C 0.74094 0.34516 0.75494 0.0
C3343 C 0.74937 0.34528 0.65889 0.0
C3344 C 0.74957 0.34599 0.59108 0.0
C3345 C 0.74977 0.34552 0.78594 0.0
C3346 C 0.75854 0.34491 0.75311 0.0
C3347 C 0.75821 0.34518 0.68993 0.0
C3348 C 0.76801 0.34316 0.78317 0.0
C3349 C 0.74956 0.34648 0.85364 0.0
C3350 C 0.77626 0.34861 0.76821 0.0
C3351 C 0.78522 0.34653 0.79485 0.0
C3352 C 0.78603 0.33904 0.83733 0.0
C3353 C 0.77779 0.33358 0.85173 0.0
C3354 C 0.76894 0.33552 0.82433 0.0
H3355 H 0.74319 0.35076 0.8684 0.0
H3356 H 0.7489 0.33919 0.87415 0.0
H3357 H 0.7562 0.35001 0.87114 0.0
H3358 H 0.77578 0.35446 0.73596 0.0
H3359 H 0.79147 0.35083 0.78275 0.0
H3360 H 0.03865 0.56323 0.26799 0.0
H3361 H 0.02099 0.56252 0.27343 0.0
H3362 H 0.01967 0.55688 0.08262 0.0
H3363 H 0.03728 0.55764 0.07664 0.0
H3364 H 0.00758 0.57401 0.21273 0.0
H3365 H 0.00281 0.53538 0.15282 0.0
H3366 H 0.01433 0.54035 0.17521 0.0
H3367 H 0.00996 0.54206 0.0997 0.0
C3368 C 0.0346 0.56184 0.22717 0.0
C3369 C 0.0394 0.56042 0.17195 0.0
C3370 C 0.02451 0.5614 0.23041 0.0
C3371 C 0.01902 0.55948 0.17864 0.0
C3372 C 0.02377 0.55812 0.12343 0.0
H3373 H 0.95849 0.55763 0.08501 0.0
H3374 H 0.97614 0.55722 0.08775 0.0
C3375 C 0.03385 0.55855 0.12012 0.0
C3376 C 0.00831 0.55928 0.18179 0.0
H3377 H 0.98862 0.5451 0.15347 0.0
C3378 C 0.00343 0.56767 0.2003 0.0
C3379 C 0.00291 0.551 0.16542 0.0
C3380 C 0.00776 0.54165 0.1477 0.0
C3381 C 0.99328 0.56809 0.20128 0.0
C3382 C 0.98789 0.55984 0.1843 0.0
C3383 C 0.99277 0.55142 0.16638 0.0
C3384 C 0.97716 0.55987 0.18355 0.0
C3385 C 0.98843 0.57745 0.21871 0.0
C3386 C 0.97187 0.56133 0.23673 0.0
C3387 C 0.96177 0.56152 0.2354 0.0
C3388 C 0.95675 0.56018 0.1809 0.0
C3389 C 0.96209 0.55855 0.1279 0.0
C3390 C 0.97219 0.55837 0.12929 0.0
H3391 H 0.9935 0.58367 0.2164 0.0
H3392 H 0.98216 0.57896 0.189 0.0
H3393 H 0.98575 0.57688 0.26568 0.0
H3394 H 0.97556 0.56229 0.27932 0.0
H3395 H 0.95787 0.56264 0.27716 0.0
H3396 H 0.68929 0.70647 0.34769 0.0
H3397 H 0.69017 0.72409 0.34932 0.0
H3398 H 0.6857 0.72396 0.54149 0.0
H3399 H 0.68491 0.70626 0.54047 0.0
H3400 H 0.67391 0.73715 0.4792 0.0
H3401 H 0.7123 0.74108 0.41139 0.0
H3402 H 0.70528 0.73363 0.36173 0.0
H3403 H 0.70733 0.7298 0.43802 0.0
C3404 C 0.68866 0.71015 0.39054 0.0
C3405 C 0.68712 0.70492 0.44409 0.0
C3406 C 0.68916 0.72024 0.39134 0.0
C3407 C 0.68816 0.72533 0.44565 0.0
C3408 C 0.68653 0.72017 0.49912 0.0
H3409 H 0.68589 0.78698 0.53113 0.0
H3410 H 0.6861 0.76931 0.53665 0.0
C3411 C 0.68604 0.71006 0.4984 0.0
C3412 C 0.68849 0.73606 0.44617 0.0
H3413 H 0.70277 0.75539 0.41092 0.0
C3414 C 0.68024 0.74115 0.46477 0.0
C3415 C 0.69675 0.74125 0.42711 0.0
C3416 C 0.70596 0.73618 0.40893 0.0
C3417 C 0.67994 0.7513 0.46334 0.0
C3418 C 0.68818 0.7565 0.44388 0.0
C3419 C 0.69646 0.7514 0.42576 0.0
C3420 C 0.6883 0.76722 0.44103 0.0
C3421 C 0.67069 0.75636 0.48093 0.0
C3422 C 0.68975 0.77192 0.38575 0.0
C3423 C 0.68966 0.78202 0.38246 0.0
C3424 C 0.68817 0.78763 0.43453 0.0
C3425 C 0.6869 0.78288 0.49005 0.0
C3426 C 0.68701 0.77278 0.49329 0.0
H3427 H 0.6644 0.75137 0.48008 0.0
H3428 H 0.67142 0.75922 0.52741 0.0
H3429 H 0.66919 0.76254 0.45038 0.0
H3430 H 0.69077 0.76776 0.34488 0.0
H3431 H 0.69053 0.78541 0.33885 0.0
H3432 H 0.45882 0.44055 0.58892 0.0
H3433 H 0.47646 0.44084 0.59138 0.0
H3434 H 0.47596 0.43512 0.78224 0.0
H3435 H 0.45825 0.43511 0.78061 0.0
H3436 H 0.48911 0.44979 0.74789 0.0
H3437 H 0.49359 0.41678 0.60844 0.0
H3438 H 0.48614 0.42593 0.57465 0.0
H3439 H 0.48221 0.42006 0.64262 0.0
C3440 C 0.46243 0.43948 0.63164 0.0
C3441 C 0.4571 0.4378 0.68462 0.0
C3442 C 0.47253 0.43953 0.63279 0.0
C3443 C 0.47752 0.43784 0.68679 0.0
C3444 C 0.47224 0.43637 0.74 0.0
H3445 H 0.53879 0.43476 0.78008 0.0
H3446 H 0.5211 0.43518 0.78317 0.0
C3447 C 0.46213 0.4363 0.73891 0.0
C3448 C 0.48824 0.43763 0.68764 0.0
H3449 H 0.50778 0.42582 0.62909 0.0
C3450 C 0.49321 0.44452 0.72223 0.0
C3451 C 0.49356 0.43074 0.65413 0.0
C3452 C 0.48862 0.4229 0.61826 0.0
C3453 C 0.50336 0.44486 0.723 0.0
C3454 C 0.50867 0.43801 0.68908 0.0
C3455 C 0.5037 0.43108 0.65489 0.0
C3456 C 0.5194 0.43795 0.68783 0.0
C3457 C 0.50831 0.45269 0.75879 0.0
C3458 C 0.52431 0.43916 0.63306 0.0
C3459 C 0.5344 0.43883 0.63103 0.0
C3460 C 0.53981 0.43722 0.68378 0.0
C3461 C 0.53485 0.43597 0.73861 0.0
C3462 C 0.52475 0.43632 0.74058 0.0
H3463 H 0.50331 0.45873 0.76965 0.0
H3464 H 0.51097 0.44961 0.80185 0.0
H3465 H 0.51461 0.45564 0.73383 0.0
H3466 H 0.52032 0.44035 0.59172 0.0
H3467 H 0.53795 0.43963 0.58784 0.0
H3468 H 0.82645 0.28895 0.88854 0.0
H3469 H 0.82536 0.27133 0.88969 0.0
H3470 H 0.79426 0.27316 0.89051 0.0
H3471 H 0.79527 0.29084 0.89014 0.0
H3472 H 0.81622 0.25924 0.97567 0.0
H3473 H 0.80014 0.25499 0.74771 0.0
H3474 H 0.8058 0.26608 0.77215 0.0
H3475 H 0.79385 0.26306 0.79762 0.0
C3476 C 0.81937 0.28564 0.88966 0.0
C3477 C 0.81094 0.29134 0.88932 0.0
C3478 C 0.81876 0.27555 0.8899 0.0
C3479 C 0.80973 0.27094 0.88935 0.0
C3480 C 0.8013 0.27658 0.8897 0.0
H3481 H 0.79503 0.20932 0.88349 0.0
H3482 H 0.79421 0.22704 0.88451 0.0
C3483 C 0.8019 0.28668 0.88953 0.0
C3484 C 0.80921 0.26023 0.88941 0.0
H3485 H 0.80214 0.24077 0.80537 0.0
C3486 C 0.81314 0.2552 0.93848 0.0
C3487 C 0.80512 0.25498 0.84097 0.0
C3488 C 0.80105 0.26002 0.78631 0.0
C3489 C 0.81312 0.24506 0.94046 0.0
C3490 C 0.80923 0.2398 0.89143 0.0
C3491 C 0.80513 0.24482 0.84284 0.0
C3492 C 0.80969 0.22908 0.88894 0.0
C3493 C 0.81717 0.24006 0.99535 0.0
C3494 C 0.81867 0.22437 0.88954 0.0
C3495 C 0.81916 0.21429 0.88885 0.0
C3496 C 0.81068 0.20868 0.88712 0.0
C3497 C 0.80169 0.21343 0.88463 0.0
C3498 C 0.80121 0.22354 0.88546 0.0
H3499 H 0.81725 0.24493 0.03515 0.0
H3500 H 0.81293 0.2335 1.0067 0.0
H3501 H 0.82473 0.23784 0.9861 0.0
H3502 H 0.82531 0.2285 0.89054 0.0
H3503 H 0.8262 0.21088 0.88935 0.0
H3504 H 0.95744 0.44718 0.02699 0.0
H3505 H 0.97504 0.44768 0.03914 0.0
H3506 H 0.9777 0.42162 0.9339 0.0
H3507 H 0.9602 0.4211 0.921 0.0
H3508 H 0.98913 0.42172 0.03949 0.0
H3509 H 0.99406 0.45525 0.90447 0.0
H3510 H 0.98571 0.45608 0.96632 0.0
H3511 H 0.98296 0.44839 0.90346 0.0
C3512 C 0.96177 0.44157 1.00627 0.0
C3513 C 0.95739 0.43411 0.97293 0.0
C3514 C 0.97183 0.44187 0.01326 0.0
C3515 C 0.97768 0.43476 0.98676 0.0
C3516 C 0.97332 0.42719 0.95476 0.0
H3517 H 0.03692 0.42057 0.92135 0.0
H3518 H 0.01947 0.42095 0.93627 0.0
C3519 C 0.96329 0.42687 0.94774 0.0
C3520 C 0.98838 0.4352 0.99123 0.0
H3521 H 0.00805 0.44819 0.94553 0.0
C3522 C 0.99327 0.42754 0.01928 0.0
C3523 C 0.99376 0.44281 0.96501 0.0
C3524 C 0.9889 0.45108 0.93267 0.0
C3525 C 0.00342 0.42722 0.02118 0.0
C3526 C 0.0088 0.43468 0.99333 0.0
C3527 C 0.00391 0.44248 0.96686 0.0
C3528 C 0.01949 0.43422 0.98779 0.0
C3529 C 0.00827 0.4189 0.053 0.0
C3530 C 0.02532 0.44164 1.01103 0.0
C3531 C 0.03535 0.44144 1.00267 0.0
C3532 C 0.03973 0.43384 0.97049 0.0
C3533 C 0.03384 0.42641 0.94756 0.0
C3534 C 0.02384 0.42661 0.956 0.0
H3535 H 0.0034 0.41553 0.08684 0.0
H3536 H 0.0102 0.41327 0.01945 0.0
H3537 H 0.01499 0.42128 0.07593 0.0
H3538 H 0.0221 0.44761 0.03543 0.0
H3539 H 0.03966 0.44724 0.02131 0.0
H3540 H 0.82672 0.78918 0.12939 0.0
H3541 H 0.82562 0.77155 0.12865 0.0
H3542 H 0.79453 0.77339 0.13421 0.0
H3543 H 0.79555 0.79108 0.13313 0.0
H3544 H 0.81715 0.75906 0.21268 0.0
H3545 H 0.79959 0.75585 0.98837 0.0
H3546 H 0.80523 0.76689 0.01382 0.0
H3547 H 0.79348 0.76355 0.04129 0.0
C3548 C 0.81963 0.78585 0.12984 0.0
C3549 C 0.81121 0.79155 0.13062 0.0
C3550 C 0.81903 0.77577 0.12985 0.0
C3551 C 0.81 0.77116 0.1304 0.0
C3552 C 0.80157 0.77681 0.13266 0.0
H3553 H 0.7951 0.70977 0.11645 0.0
H3554 H 0.7945 0.72745 0.12331 0.0
C3555 C 0.80217 0.78691 0.1327 0.0
C3556 C 0.80949 0.76045 0.12877 0.0
H3557 H 0.80194 0.74138 0.04294 0.0
C3558 C 0.81381 0.75519 0.17562 0.0
C3559 C 0.80511 0.75542 0.08041 0.0
C3560 C 0.80065 0.76069 0.02779 0.0
C3561 C 0.81388 0.74504 0.17548 0.0
C3562 C 0.80966 0.74001 0.12663 0.0
C3563 C 0.80518 0.74526 0.08028 0.0
C3564 C 0.81002 0.72932 0.12211 0.0
C3565 C 0.81839 0.73978 0.22796 0.0
C3566 C 0.81894 0.72452 0.11814 0.0
C3567 C 0.8193 0.71444 0.11437 0.0
C3568 C 0.81075 0.70894 0.11418 0.0
C3569 C 0.80182 0.71379 0.11717 0.0
C3570 C 0.80146 0.72388 0.12082 0.0
H3571 H 0.8189 0.74447 0.26846 0.0
H3572 H 0.81419 0.73321 0.23971 0.0
H3573 H 0.82582 0.73751 0.21555 0.0
H3574 H 0.82563 0.72858 0.118 0.0
H3575 H 0.82631 0.71096 0.11282 0.0
H3576 H 0.45615 0.54469 0.31747 0.0
H3577 H 0.47384 0.54405 0.31751 0.0
H3578 H 0.475 0.57519 0.31637 0.0
H3579 H 0.45737 0.57591 0.31826 0.0
H3580 H 0.48704 0.55162 0.23369 0.0
H3581 H 0.49224 0.56805 0.45929 0.0
H3582 H 0.4807 0.56352 0.43404 0.0
H3583 H 0.4849 0.57517 0.40955 0.0
C3584 C 0.46017 0.5514 0.31776 0.0
C3585 C 0.45532 0.56035 0.31802 0.0
C3586 C 0.47028 0.55102 0.31743 0.0
C3587 C 0.47574 0.55957 0.31785 0.0
C3588 C 0.47094 0.5685 0.31711 0.0
H3589 H 0.5362 0.57499 0.31433 0.0
H3590 H 0.51856 0.57453 0.31248 0.0
C3591 C 0.46084 0.5689 0.31741 0.0
C3592 C 0.48646 0.55917 0.31837 0.0
H3593 H 0.50629 0.56626 0.39861 0.0
C3594 C 0.49126 0.55475 0.26991 0.0
C3595 C 0.49194 0.56326 0.36576 0.0
C3596 C 0.4872 0.56769 0.42041 0.0
C3597 C 0.5014 0.55456 0.26671 0.0
C3598 C 0.50688 0.55876 0.31372 0.0
C3599 C 0.50208 0.56308 0.3625 0.0
C3600 C 0.51761 0.55892 0.31284 0.0
C3601 C 0.50617 0.55011 0.21225 0.0
C3602 C 0.52294 0.55029 0.31397 0.0
C3603 C 0.53306 0.55053 0.3146 0.0
C3604 C 0.53803 0.5594 0.3143 0.0
C3605 C 0.53263 0.56803 0.31338 0.0
C3606 C 0.52254 0.56778 0.31283 0.0
H3607 H 0.50104 0.54931 0.17408 0.0
H3608 H 0.51241 0.55453 0.19713 0.0
H3609 H 0.5089 0.54281 0.22418 0.0
H3610 H 0.51929 0.54337 0.31508 0.0
H3611 H 0.53699 0.54376 0.31511 0.0
H3612 H 0.67273 0.20963 0.56931 0.0
H3613 H 0.67344 0.22725 0.56449 0.0
H3614 H 0.70456 0.22604 0.55908 0.0
H3615 H 0.70391 0.20835 0.562 0.0
H3616 H 0.68239 0.23967 0.64649 0.0
H3617 H 0.69801 0.24391 0.41735 0.0
H3618 H 0.6928 0.23269 0.44323 0.0
H3619 H 0.70471 0.23616 0.46707 0.0
C3620 C 0.67973 0.21308 0.56593 0.0
C3621 C 0.68827 0.20755 0.56546 0.0
C3622 C 0.68012 0.22317 0.56368 0.0
C3623 C 0.68904 0.22796 0.56063 0.0
C3624 C 0.69759 0.22249 0.56033 0.0
H3625 H 0.70348 0.28946 0.55366 0.0
H3626 H 0.70417 0.27176 0.55582 0.0
C3627 C 0.69721 0.21238 0.56262 0.0
C3628 C 0.68935 0.23869 0.55995 0.0
H3629 H 0.69612 0.25816 0.47517 0.0
C3630 C 0.68538 0.24371 0.60901 0.0
C3631 C 0.6933 0.24395 0.51115 0.0
C3632 C 0.69738 0.23893 0.45641 0.0
C3633 C 0.68528 0.25386 0.61069 0.0
C3634 C 0.68909 0.25912 0.56147 0.0
C3635 C 0.69319 0.2541 0.51279 0.0
C3636 C 0.68867 0.26984 0.55919 0.0
C3637 C 0.68121 0.25885 0.66556 0.0
C3638 C 0.67973 0.27462 0.55936 0.0
C3639 C 0.67931 0.28471 0.5584 0.0
C3640 C 0.68783 0.29025 0.55684 0.0
C3641 C 0.69679 0.28542 0.55557 0.0
C3642 C 0.6972 0.27531 0.55647 0.0
H3643 H 0.68105 0.25397 0.70529 0.0
H3644 H 0.68549 0.26538 0.67712 0.0
H3645 H 0.67368 0.26115 0.65608 0.0
H3646 H 0.67305 0.27053 0.56045 0.0
H3647 H 0.67229 0.28816 0.56012 0.0
H3648 H 0.3258 0.2872 0.5815 0.0
H3649 H 0.3251 0.26955 0.58066 0.0
H3650 H 0.29397 0.2707 0.58113 0.0
H3651 H 0.29459 0.28839 0.58011 0.0
H3652 H 0.31654 0.25756 0.66704 0.0
H3653 H 0.29989 0.2521 0.44186 0.0
H3654 H 0.30522 0.26345 0.46445 0.0
H3655 H 0.29341 0.26013 0.49103 0.0
C3656 C 0.31879 0.28372 0.58027 0.0
C3657 C 0.31024 0.28923 0.58031 0.0
C3658 C 0.31841 0.27362 0.5803 0.0
C3659 C 0.30949 0.26881 0.58004 0.0
C3660 C 0.30093 0.27426 0.58025 0.0
H3661 H 0.29466 0.20744 0.58816 0.0
H3662 H 0.29413 0.22515 0.58717 0.0
C3663 C 0.3013 0.28437 0.58028 0.0
C3664 C 0.30919 0.25808 0.58165 0.0
H3665 H 0.30194 0.23818 0.50253 0.0
C3666 C 0.31336 0.25332 0.63103 0.0
C3667 C 0.30499 0.25257 0.53477 0.0
C3668 C 0.30069 0.2573 0.47973 0.0
C3669 C 0.31342 0.24319 0.63496 0.0
C3670 C 0.30935 0.23767 0.58769 0.0
C3671 C 0.30506 0.24243 0.53866 0.0
C3672 C 0.30966 0.22694 0.58777 0.0
C3673 C 0.31771 0.23849 0.69015 0.0
C3674 C 0.31856 0.22208 0.58751 0.0
C3675 C 0.31889 0.21199 0.58835 0.0
C3676 C 0.31031 0.20652 0.58904 0.0
C3677 C 0.30139 0.21143 0.58834 0.0
C3678 C 0.30108 0.22154 0.58745 0.0
H3679 H 0.31807 0.24359 0.72872 0.0
H3680 H 0.31345 0.23206 0.70393 0.0
H3681 H 0.32518 0.23609 0.67984 0.0
H3682 H 0.32527 0.22611 0.58673 0.0
H3683 H 0.32587 0.20847 0.58958 0.0
H3684 H 0.18774 0.70883 0.0242 0.0
H3685 H 0.18903 0.72645 0.02381 0.0
H3686 H 0.19215 0.72641 0.21702 0.0
H3687 H 0.19078 0.70875 0.21794 0.0
H3688 H 0.17658 0.73928 0.08334 0.0
H3689 H 0.21448 0.74384 0.16063 0.0
H3690 H 0.20989 0.73248 0.13253 0.0
H3691 H 0.20708 0.73632 0.20784 0.0
C3692 C 0.1887 0.71256 0.06668 0.0
C3693 C 0.18912 0.70737 0.12116 0.0
C3694 C 0.18949 0.72263 0.06631 0.0
C3695 C 0.19078 0.72773 0.12027 0.0
C3696 C 0.19135 0.72259 0.1747 0.0
H3697 H 0.19233 0.78884 0.20952 0.0
H3698 H 0.19275 0.77117 0.21066 0.0
C3699 C 0.19056 0.7125 0.17515 0.0
C3700 C 0.19098 0.73846 0.1196 0.0
H3701 H 0.20501 0.75807 0.1526 0.0
C3702 C 0.18281 0.7434 0.09822 0.0
C3703 C 0.1991 0.7438 0.13934 0.0
C3704 C 0.20818 0.73887 0.16094 0.0
C3705 C 0.18248 0.75354 0.09673 0.0
C3706 C 0.19063 0.75889 0.116 0.0
C3707 C 0.19879 0.75395 0.13768 0.0
C3708 C 0.19076 0.76962 0.11452 0.0
C3709 C 0.17333 0.75843 0.07586 0.0
C3710 C 0.1897 0.77462 0.0599 0.0
C3711 C 0.18948 0.78473 0.05904 0.0
C3712 C 0.19042 0.79004 0.11275 0.0
C3713 C 0.19171 0.785 0.16721 0.0
C3714 C 0.19191 0.77489 0.16803 0.0
H3715 H 0.16702 0.75347 0.07783 0.0
H3716 H 0.17172 0.76491 0.10362 0.0
H3717 H 0.17423 0.76079 0.02842 0.0
H3718 H 0.18901 0.7707 0.01789 0.0
H3719 H 0.18862 0.78839 0.01626 0.0
H3720 H 0.20111 0.29136 0.92328 0.0
H3721 H 0.20179 0.27367 0.92738 0.0
H3722 H 0.17066 0.27241 0.9236 0.0
H3723 H 0.16991 0.29001 0.91756 0.0
H3724 H 0.19387 0.26091 0.01276 0.0
H3725 H 0.17848 0.25441 0.78567 0.0
H3726 H 0.18288 0.2661 0.80922 0.0
H3727 H 0.17112 0.26202 0.8325 0.0
C3728 C 0.19441 0.28731 0.92281 0.0
C3729 C 0.18545 0.29212 0.91996 0.0
C3730 C 0.19481 0.27721 0.9255 0.0
C3731 C 0.18628 0.27172 0.92489 0.0
C3732 C 0.17734 0.27649 0.92307 0.0
H3733 H 0.17081 0.21131 0.93854 0.0
H3734 H 0.17129 0.22896 0.93736 0.0
C3735 C 0.17693 0.28658 0.9204 0.0
C3736 C 0.1867 0.261 0.92674 0.0
H3737 H 0.17996 0.24072 0.84973 0.0
C3738 C 0.19089 0.25648 0.97696 0.0
C3739 C 0.18283 0.25525 0.87989 0.0
C3740 C 0.17865 0.25967 0.82348 0.0
C3741 C 0.19107 0.24636 0.98242 0.0
C3742 C 0.18706 0.24062 0.93596 0.0
C3743 C 0.18298 0.24514 0.88542 0.0
C3744 C 0.18689 0.2299 0.93914 0.0
C3745 C 0.19527 0.2419 0.0386 0.0
C3746 C 0.19551 0.22455 0.94032 0.0
C3747 C 0.19526 0.21444 0.94141 0.0
C3748 C 0.18638 0.20947 0.94116 0.0
C3749 C 0.17777 0.21488 0.93995 0.0
C3750 C 0.17803 0.22498 0.93878 0.0
H3751 H 0.19593 0.24725 0.07571 0.0
H3752 H 0.19076 0.23576 0.05439 0.0
H3753 H 0.2026 0.23908 0.02845 0.0
H3754 H 0.20243 0.2282 0.93957 0.0
H3755 H 0.20203 0.21051 0.94253 0.0
H3756 H 0.31127 0.70912 0.53632 0.0
H3757 H 0.31088 0.72678 0.54287 0.0
H3758 H 0.30678 0.72858 0.35071 0.0
H3759 H 0.30728 0.71096 0.34355 0.0
H3760 H 0.32325 0.74 0.48541 0.0
H3761 H 0.28512 0.74583 0.4171 0.0
H3762 H 0.28965 0.73417 0.44049 0.0
H3763 H 0.29199 0.73853 0.36561 0.0
C3764 C 0.3103 0.71327 0.4954 0.0
C3765 C 0.30926 0.7086 0.43944 0.0
C3766 C 0.31003 0.72336 0.4993 0.0
C3767 C 0.30865 0.72899 0.44743 0.0
C3768 C 0.30762 0.72437 0.39151 0.0
H3769 H 0.30831 0.78979 0.35935 0.0
H3770 H 0.30755 0.77214 0.36044 0.0
C3771 C 0.3079 0.71428 0.38754 0.0
C3772 C 0.30869 0.7397 0.45139 0.0
H3773 H 0.29512 0.75978 0.42217 0.0
C3774 C 0.31708 0.74434 0.47208 0.0
C3775 C 0.30063 0.74532 0.4338 0.0
C3776 C 0.2913 0.74073 0.4135 0.0
C3777 C 0.31772 0.75447 0.47412 0.0
C3778 C 0.30969 0.7601 0.45608 0.0
C3779 C 0.30127 0.75545 0.43595 0.0
C3780 C 0.30996 0.77083 0.45635 0.0
C3781 C 0.32711 0.75905 0.49374 0.0
C3782 C 0.31142 0.77597 0.51011 0.0
C3783 C 0.31183 0.78608 0.5097 0.0
C3784 C 0.31069 0.79125 0.45557 0.0
C3785 C 0.30908 0.78606 0.40198 0.0
C3786 C 0.30869 0.77596 0.40243 0.0
H3787 H 0.33323 0.75386 0.49157 0.0
H3788 H 0.32887 0.76541 0.46531 0.0
H3789 H 0.32641 0.76154 0.54105 0.0
H3790 H 0.3122 0.77217 0.55246 0.0
H3791 H 0.31294 0.78986 0.55185 0.0
H3792 H 0.54024 0.04457 0.70297 0.0
H3793 H 0.52254 0.04418 0.70147 0.0
H3794 H 0.52181 0.07534 0.70329 0.0
H3795 H 0.53945 0.07581 0.70304 0.0
H3796 H 0.50923 0.05207 0.78485 0.0
H3797 H 0.50486 0.06834 0.55805 0.0
H3798 H 0.51624 0.06357 0.58444 0.0
H3799 H 0.51224 0.07533 0.60832 0.0
C3800 C 0.53631 0.05134 0.70258 0.0
C3801 C 0.54128 0.06022 0.70301 0.0
C3802 C 0.5262 0.0511 0.70206 0.0
C3803 C 0.52086 0.05973 0.7014 0.0
C3804 C 0.52579 0.06859 0.70278 0.0
H3805 H 0.46061 0.07603 0.69671 0.0
H3806 H 0.47824 0.07533 0.70034 0.0
C3807 C 0.53588 0.06884 0.7034 0.0
C3808 C 0.51014 0.05949 0.69983 0.0
H3809 H 0.49064 0.06676 0.61721 0.0
C3810 C 0.50515 0.05522 0.74804 0.0
C3811 C 0.50485 0.0636 0.6517 0.0
C3812 C 0.5098 0.06789 0.59738 0.0
C3813 C 0.495 0.05519 0.75026 0.0
C3814 C 0.48971 0.0594 0.70245 0.0
C3815 C 0.4947 0.06357 0.65392 0.0
C3816 C 0.47898 0.05971 0.70218 0.0
C3817 C 0.49003 0.05091 0.80458 0.0
C3818 C 0.47352 0.05116 0.70165 0.0
C3819 C 0.46342 0.05153 0.70006 0.0
C3820 C 0.45857 0.06047 0.6987 0.0
C3821 C 0.46408 0.06902 0.69892 0.0
C3822 C 0.47417 0.06864 0.7005 0.0
H3823 H 0.49504 0.05018 0.8434 0.0
H3824 H 0.48378 0.05542 0.81855 0.0
H3825 H 0.48729 0.0436 0.79304 0.0
H3826 H 0.47708 0.04419 0.70179 0.0
H3827 H 0.4594 0.04481 0.70016 0.0
H3828 H 0.03994 0.93633 0.29365 0.0
H3829 H 0.02223 0.93658 0.2932 0.0
H3830 H 0.0224 0.94197 0.10194 0.0
H3831 H 0.04003 0.9414 0.10152 0.0
H3832 H 0.00941 0.95124 0.25742 0.0
H3833 H 0.00482 0.91835 0.1173 0.0
H3834 H 0.01618 0.92149 0.15218 0.0
H3835 H 0.01244 0.92737 0.08382 0.0
C3836 C 0.0362 0.9375 0.25141 0.0
C3837 C 0.04143 0.93882 0.19761 0.0
C3838 C 0.02609 0.93769 0.25131 0.0
C3839 C 0.021 0.93915 0.1974 0.0
C3840 C 0.02618 0.94067 0.14389 0.0
H3841 H 0.96085 0.94212 0.09219 0.0
H3842 H 0.97848 0.94265 0.09779 0.0
C3843 C 0.03628 0.94047 0.14391 0.0
C3844 C 0.01027 0.93911 0.197 0.0
H3845 H 0.99072 0.92768 0.13576 0.0
C3846 C 0.00531 0.94606 0.23114 0.0
C3847 C 0.00495 0.93233 0.16268 0.0
C3848 C 0.00985 0.9244 0.12734 0.0
C3849 C 0.99516 0.94657 0.23072 0.0
C3850 C 0.98985 0.93984 0.19596 0.0
C3851 C 0.99481 0.93285 0.16218 0.0
C3852 C 0.97913 0.93994 0.19366 0.0
C3853 C 0.99022 0.95444 0.26625 0.0
C3854 C 0.97363 0.93821 0.24571 0.0
C3855 C 0.96353 0.93795 0.24274 0.0
C3856 C 0.95873 0.9394 0.1876 0.0
C3857 C 0.96428 0.94115 0.13558 0.0
C3858 C 0.97437 0.94138 0.13859 0.0
H3859 H 0.99529 0.96037 0.27823 0.0
H3860 H 0.98408 0.95755 0.24051 0.0
H3861 H 0.98732 0.95135 0.30868 0.0
H3862 H 0.97716 0.93691 0.28849 0.0
H3863 H 0.95948 0.93663 0.28366 0.0
H3864 H 0.54129 0.93592 0.23288 0.0
H3865 H 0.52363 0.93667 0.22804 0.0
H3866 H 0.52243 0.94169 0.41957 0.0
H3867 H 0.54004 0.94089 0.42493 0.0
H3868 H 0.51033 0.92495 0.28717 0.0
H3869 H 0.50538 0.96329 0.35326 0.0
H3870 H 0.51692 0.95848 0.33004 0.0
H3871 H 0.51256 0.95644 0.4053 0.0
C3872 C 0.53727 0.93719 0.27399 0.0
C3873 C 0.5421 0.93841 0.32923 0.0
C3874 C 0.52718 0.93765 0.27109 0.0
C3875 C 0.52172 0.93939 0.32326 0.0
C3876 C 0.52651 0.94058 0.37848 0.0
H3877 H 0.4612 0.94048 0.41834 0.0
H3878 H 0.47884 0.941 0.41536 0.0
C3879 C 0.53659 0.94013 0.38143 0.0
C3880 C 0.511 0.93955 0.32045 0.0
H3881 H 0.49124 0.9535 0.35142 0.0
C3882 C 0.50615 0.93121 0.30069 0.0
C3883 C 0.50556 0.94773 0.33826 0.0
C3884 C 0.51036 0.95703 0.35739 0.0
C3885 C 0.49601 0.93075 0.2998 0.0
C3886 C 0.49058 0.93889 0.3182 0.0
C3887 C 0.49542 0.94726 0.33741 0.0
C3888 C 0.47985 0.9388 0.3191 0.0
C3889 C 0.4912 0.92144 0.28093 0.0
C3890 C 0.47455 0.93755 0.26579 0.0
C3891 C 0.46444 0.9373 0.26725 0.0
C3892 C 0.45944 0.93837 0.32204 0.0
C3893 C 0.46479 0.93977 0.37522 0.0
C3894 C 0.47489 0.94002 0.37369 0.0
H3895 H 0.4963 0.91523 0.28206 0.0
H3896 H 0.48495 0.91977 0.31054 0.0
H3897 H 0.48849 0.92219 0.23415 0.0
H3898 H 0.47823 0.9368 0.22298 0.0
H3899 H 0.46054 0.93635 0.22538 0.0
H3900 H 0.03999 0.04502 0.85818 0.0
H3901 H 0.02229 0.0445 0.86166 0.0
H3902 H 0.02133 0.07565 0.86047 0.0
H3903 H 0.03895 0.07626 0.85778 0.0
H3904 H 0.00974 0.05264 0.94908 0.0
H3905 H 0.00309 0.06807 0.72226 0.0
H3906 H 0.01472 0.06339 0.74484 0.0
H3907 H 0.01097 0.07525 0.76836 0.0
C3908 C 0.03601 0.05177 0.85877 0.0
C3909 C 0.04091 0.06068 0.85712 0.0
C3910 C 0.0259 0.05145 0.86056 0.0
C3911 C 0.0205 0.06003 0.86035 0.0
C3912 C 0.02535 0.06893 0.85922 0.0
H3913 H 0.96097 0.0776 0.87919 0.0
H3914 H 0.97856 0.07625 0.87521 0.0
C3915 C 0.03544 0.06926 0.85751 0.0
C3916 C 0.00979 0.05974 0.86281 0.0
H3917 H 0.98952 0.06698 0.78771 0.0
C3918 C 0.00529 0.05569 0.9136 0.0
C3919 C 0.00402 0.06372 0.81642 0.0
C3920 C 0.00843 0.06778 0.7596 0.0
C3921 C 0.99519 0.05582 0.92021 0.0
C3922 C 0.98944 0.05996 0.87427 0.0
C3923 C 0.99394 0.06384 0.823 0.0
C3924 C 0.97876 0.06063 0.87904 0.0
C3925 C 0.99078 0.05182 0.97717 0.0
C3926 C 0.97301 0.05228 0.8825 0.0
C3927 C 0.96292 0.05303 0.88466 0.0
C3928 C 0.9584 0.06214 0.88279 0.0
C3929 C 0.9642 0.07047 0.8798 0.0
C3930 C 0.97426 0.06972 0.87779 0.0
H3931 H 0.99622 0.05103 0.01362 0.0
H3932 H 0.98485 0.05656 0.99351 0.0
H3933 H 0.98769 0.04458 0.96777 0.0
H3934 H 0.97631 0.04519 0.88231 0.0
H3935 H 0.95865 0.04647 0.88618 0.0
loop_
_geom_bond_atom_site_label_1
_geom_bond_atom_site_label_2
_geom_bond_distance
_geom_bond_site_symmetry_2
_ccdc_geom_bond_type
C0 C1 1.351 . S
C0 N3 1.368 . S
C0 H5 0.931 . S
C1 C0 1.351 . S
C1 N2 1.373 . S
C1 H29 0.930 . S
N2 C1 1.373 . S
N2 C4 1.340 . S
N3 C0 1.368 . S
N3 C4 1.321 . S
N3 Co6 2.135 1_556 S
C4 N2 1.340 . S
C4 N3 1.321 . S
C4 H28 0.930 . S
H5 C0 0.931 . S
Co6 N3 2.135 1_554 S
Co6 N9 2.121 . S
Co6 O14 2.055 . S
Co6 O17 2.039 . S
Co6 N20 2.140 . S
C7 O8 1.227 . S
C7 O17 1.265 . S
O8 C7 1.227 . S
N9 Co6 2.121 . S
N9 C11 1.375 . S
N9 C12 1.313 . S
C10 C11 1.338 . S
C10 N13 1.377 . S
C10 H30 0.930 . S
C11 N9 1.375 . S
C11 C10 1.338 . S
C11 H15 0.931 . S
C12 N9 1.313 . S
C12 N13 1.344 . S
C12 H16 0.930 . S
N13 C10 1.377 . S
N13 C12 1.344 . S
O14 Co6 2.055 . S
O14 C18 1.253 . S
H15 C11 0.931 . S
H16 C12 0.930 . S
O17 Co6 2.039 . S
O17 C7 1.265 . S
C18 O14 1.253 . S
C18 O19 1.227 . S
O19 C18 1.227 . S
N20 Co6 2.140 . S
N20 C23 1.346 . S
N20 C24 1.345 . S
C21 C22 1.387 . S
C21 C25 1.391 . S
C22 C21 1.387 . S
C22 C23 1.369 . S
C22 H31 0.929 1_554 S
C23 N20 1.346 . S
C23 C22 1.369 . S
C23 H26 0.928 1_554 S
C24 N20 1.345 . S
C24 C25 1.371 . S
C24 H27 0.931 . S
C25 C21 1.391 . S
C25 C24 1.371 . S
C25 H32 0.930 . S
H26 C23 0.928 1_556 S
H27 C24 0.931 . S
H28 C4 0.930 . S
H29 C1 0.930 . S
H30 C10 0.930 . S
H31 C22 0.929 1_556 S
H32 C25 0.930 . S
C33 C34 1.351 . S
C33 N36 1.368 . S
C33 H38 0.931 . S
C34 C33 1.351 . S
C34 N35 1.373 . S
C34 H62 0.930 . S
N35 C34 1.373 . S
N35 C37 1.340 . S
N36 C33 1.368 . S
N36 C37 1.321 . S
N36 Co39 2.135 . S
C37 N35 1.340 . S
C37 N36 1.321 . S
C37 H61 0.930 . S
H38 C33 0.931 . S
Co39 N36 2.135 . S
Co39 N42 2.121 . S
Co39 O47 2.055 . S
Co39 O50 2.039 . S
Co39 N53 2.140 . S
C40 O41 1.227 . S
C40 O50 1.265 . S
O41 C40 1.227 . S
N42 Co39 2.121 . S
N42 C44 1.375 . S
N42 C45 1.313 . S
C43 C44 1.338 . S
C43 N46 1.377 . S
C43 H63 0.930 . S
C44 N42 1.375 . S
C44 C43 1.338 . S
C44 H48 0.931 . S
C45 N42 1.313 . S
C45 N46 1.344 . S
C45 H49 0.930 . S
N46 C43 1.377 . S
N46 C45 1.344 . S
O47 Co39 2.055 . S
O47 C51 1.253 . S
H48 C44 0.931 . S
H49 C45 0.930 . S
O50 Co39 2.039 . S
O50 C40 1.265 . S
C51 O47 1.253 . S
C51 O52 1.227 . S
O52 C51 1.227 . S
N53 Co39 2.140 . S
N53 C56 1.346 . S
N53 C57 1.345 . S
C54 C55 1.387 . S
C54 C58 1.391 . S
C55 C54 1.387 . S
C55 C56 1.369 . S
C55 H64 0.929 . S
C56 N53 1.346 . S
C56 C55 1.369 . S
C56 H59 0.928 . S
C57 N53 1.345 . S
C57 C58 1.371 . S
C57 H60 0.931 . S
C58 C54 1.391 . S
C58 C57 1.371 . S
C58 H65 0.930 . S
H59 C56 0.928 . S
H60 C57 0.931 . S
H61 C37 0.930 . S
H62 C34 0.930 . S
H63 C43 0.930 . S
H64 C55 0.929 . S
H65 C58 0.930 . S
C66 C67 1.351 . S
C66 N69 1.368 . S
C66 H71 0.931 . S
C67 C66 1.351 . S
C67 N68 1.373 . S
C67 H95 0.930 . S
N68 C67 1.373 . S
N68 C70 1.340 . S
N69 C66 1.368 . S
N69 C70 1.321 . S
N69 Co72 2.135 . S
C70 N68 1.340 . S
C70 N69 1.321 . S
C70 H94 0.930 . S
H71 C66 0.931 . S
Co72 N69 2.135 . S
Co72 N75 2.121 . S
Co72 O80 2.055 . S
Co72 O83 2.039 . S
Co72 N86 2.140 . S
C73 O74 1.227 . S
C73 O83 1.265 . S
O74 C73 1.227 . S
N75 Co72 2.121 . S
N75 C77 1.375 . S
N75 C78 1.313 . S
C76 C77 1.338 . S
C76 N79 1.377 . S
C76 H96 0.930 . S
C77 N75 1.375 . S
C77 C76 1.338 . S
C77 H81 0.931 . S
C78 N75 1.313 . S
C78 N79 1.344 . S
C78 H82 0.930 . S
N79 C76 1.377 . S
N79 C78 1.344 . S
O80 Co72 2.055 . S
O80 C84 1.253 . S
H81 C77 0.931 . S
H82 C78 0.930 . S
O83 Co72 2.039 . S
O83 C73 1.265 . S
C84 O80 1.253 . S
C84 O85 1.227 . S
O85 C84 1.227 . S
N86 Co72 2.140 . S
N86 C89 1.346 . S
N86 C90 1.345 . S
C87 C88 1.387 . S
C87 C91 1.391 . S
C88 C87 1.387 . S
C88 C89 1.369 . S
C88 H97 0.929 . S
C89 N86 1.346 . S
C89 C88 1.369 . S
C89 H92 0.928 . S
C90 N86 1.345 . S
C90 C91 1.371 . S
C90 H93 0.931 . S
C91 C87 1.391 . S
C91 C90 1.371 . S
C91 H98 0.930 . S
H92 C89 0.928 . S
H93 C90 0.931 . S
H94 C70 0.930 . S
H95 C67 0.930 . S
H96 C76 0.930 . S
H97 C88 0.929 . S
H98 C91 0.930 . S
C99 C100 1.351 . S
C99 N102 1.368 . S
C99 H104 0.931 . S
C100 C99 1.351 . S
C100 N101 1.373 . S
C100 H128 0.930 . S
N101 C100 1.373 . S
N101 C103 1.340 . S
N102 C99 1.368 . S
N102 C103 1.321 . S
N102 Co105 2.135 . S
C103 N101 1.340 . S
C103 N102 1.321 . S
C103 H127 0.930 . S
H104 C99 0.931 . S
Co105 N102 2.135 . S
Co105 N108 2.121 . S
Co105 O113 2.055 . S
Co105 O116 2.039 . S
Co105 N119 2.140 . S
C106 O107 1.227 . S
C106 O116 1.265 . S
O107 C106 1.227 . S
N108 Co105 2.121 . S
N108 C110 1.375 . S
N108 C111 1.313 . S
C109 C110 1.338 . S
C109 N112 1.377 . S
C109 H129 0.930 1_556 S
C110 N108 1.375 . S
C110 C109 1.338 . S
C110 H114 0.931 . S
C111 N108 1.313 . S
C111 N112 1.344 . S
C111 H115 0.930 . S
N112 C109 1.377 . S
N112 C111 1.344 . S
O113 Co105 2.055 . S
O113 C117 1.253 . S
H114 C110 0.931 . S
H115 C111 0.930 . S
O116 Co105 2.039 . S
O116 C106 1.265 . S
C117 O113 1.253 . S
C117 O118 1.227 . S
O118 C117 1.227 . S
N119 Co105 2.140 . S
N119 C122 1.346 . S
N119 C123 1.345 . S
C120 C121 1.387 . S
C120 C124 1.391 . S
C121 C120 1.387 . S
C121 C122 1.369 . S
C121 H130 0.929 . S
C122 N119 1.346 . S
C122 C121 1.369 . S
C122 H125 0.928 . S
C123 N119 1.345 . S
C123 C124 1.371 . S
C123 H126 0.931 . S
C124 C120 1.391 . S
C124 C123 1.371 . S
C124 H131 0.930 . S
H125 C122 0.928 . S
H126 C123 0.931 . S
H127 C103 0.930 . S
H128 C100 0.930 . S
H129 C109 0.930 1_554 S
H130 C121 0.929 . S
H131 C124 0.930 . S
C132 C133 1.351 . S
C132 N135 1.368 . S
C132 H137 0.931 . S
C133 C132 1.351 . S
C133 N134 1.373 . S
C133 H161 0.930 . S
N134 C133 1.373 . S
N134 C136 1.340 . S
N135 C132 1.368 . S
N135 C136 1.321 . S
N135 Co138 2.135 1_554 S
C136 N134 1.340 . S
C136 N135 1.321 . S
C136 H160 0.930 . S
H137 C132 0.931 . S
Co138 N135 2.135 1_556 S
Co138 N141 2.121 . S
Co138 O146 2.055 . S
Co138 O149 2.039 . S
Co138 N152 2.140 . S
C139 O140 1.227 . S
C139 O149 1.265 . S
O140 C139 1.227 . S
N141 Co138 2.121 . S
N141 C143 1.375 . S
N141 C144 1.313 . S
C142 C143 1.338 . S
C142 N145 1.377 . S
C142 H162 0.930 . S
C143 N141 1.375 . S
C143 C142 1.338 . S
C143 H147 0.931 . S
C144 N141 1.313 . S
C144 N145 1.344 . S
C144 H148 0.930 . S
N145 C142 1.377 . S
N145 C144 1.344 . S
O146 Co138 2.055 . S
O146 C150 1.253 . S
H147 C143 0.931 . S
H148 C144 0.930 . S
O149 Co138 2.039 . S
O149 C139 1.265 . S
C150 O146 1.253 . S
C150 O151 1.227 . S
O151 C150 1.227 . S
N152 Co138 2.140 . S
N152 C155 1.346 . S
N152 C156 1.345 . S
C153 C154 1.387 . S
C153 C157 1.391 . S
C154 C153 1.387 . S
C154 C155 1.369 . S
C154 H163 0.929 1_556 S
C155 N152 1.346 . S
C155 C154 1.369 . S
C155 H158 0.928 1_556 S
C156 N152 1.345 . S
C156 C157 1.371 . S
C156 H159 0.931 . S
C157 C153 1.391 . S
C157 C156 1.371 . S
C157 H164 0.930 . S
H158 C155 0.928 1_554 S
H159 C156 0.931 . S
H160 C136 0.930 . S
H161 C133 0.930 . S
H162 C142 0.930 . S
H163 C154 0.929 1_554 S
H164 C157 0.930 . S
C165 C166 1.351 . S
C165 N168 1.368 . S
C165 H170 0.931 . S
C166 C165 1.351 . S
C166 N167 1.373 . S
C166 H194 0.930 . S
N167 C166 1.373 . S
N167 C169 1.340 . S
N168 C165 1.368 . S
N168 C169 1.321 . S
N168 Co171 2.135 . S
C169 N167 1.340 . S
C169 N168 1.321 . S
C169 H193 0.930 . S
H170 C165 0.931 . S
Co171 N168 2.135 . S
Co171 N174 2.121 . S
Co171 O179 2.055 . S
Co171 O182 2.039 . S
Co171 N185 2.140 . S
C172 O173 1.227 . S
C172 O182 1.265 . S
O173 C172 1.227 . S
N174 Co171 2.121 . S
N174 C176 1.375 . S
N174 C177 1.313 . S
C175 C176 1.338 . S
C175 N178 1.377 . S
C175 H195 0.930 1_554 S
C176 N174 1.375 . S
C176 C175 1.338 . S
C176 H180 0.931 . S
C177 N174 1.313 . S
C177 N178 1.344 . S
C177 H181 0.930 . S
N178 C175 1.377 . S
N178 C177 1.344 . S
O179 Co171 2.055 . S
O179 C183 1.253 . S
H180 C176 0.931 . S
H181 C177 0.930 . S
O182 Co171 2.039 . S
O182 C172 1.265 . S
C183 O179 1.253 . S
C183 O184 1.227 . S
O184 C183 1.227 . S
N185 Co171 2.140 . S
N185 C188 1.346 . S
N185 C189 1.345 . S
C186 C187 1.387 . S
C186 C190 1.391 . S
C187 C186 1.387 . S
C187 C188 1.369 . S
C187 H196 0.929 . S
C188 N185 1.346 . S
C188 C187 1.369 . S
C188 H191 0.928 . S
C189 N185 1.345 . S
C189 C190 1.371 . S
C189 H192 0.931 . S
C190 C186 1.391 . S
C190 C189 1.371 . S
C190 H197 0.930 . S
H191 C188 0.928 . S
H192 C189 0.931 . S
H193 C169 0.930 . S
H194 C166 0.930 . S
H195 C175 0.930 1_556 S
H196 C187 0.929 . S
H197 C190 0.930 . S
C198 C199 1.351 . S
C198 N201 1.368 . S
C198 H203 0.931 . S
C199 C198 1.351 . S
C199 N200 1.373 . S
C199 H227 0.930 . S
N200 C199 1.373 . S
N200 C202 1.340 . S
N201 C198 1.368 . S
N201 C202 1.321 . S
N201 Co204 2.135 . S
C202 N200 1.340 . S
C202 N201 1.321 . S
C202 H226 0.930 . S
H203 C198 0.931 . S
Co204 N201 2.135 . S
Co204 N207 2.121 . S
Co204 O212 2.055 . S
Co204 O215 2.039 . S
Co204 N218 2.140 . S
C205 O206 1.227 . S
C205 O215 1.265 . S
O206 C205 1.227 . S
N207 Co204 2.121 . S
N207 C209 1.375 . S
N207 C210 1.313 . S
C208 C209 1.338 . S
C208 N211 1.377 . S
C208 H228 0.930 . S
C209 N207 1.375 . S
C209 C208 1.338 . S
C209 H213 0.931 . S
C210 N207 1.313 . S
C210 N211 1.344 . S
C210 H214 0.930 . S
N211 C208 1.377 . S
N211 C210 1.344 . S
O212 Co204 2.055 . S
O212 C216 1.253 . S
H213 C209 0.931 . S
H214 C210 0.930 . S
O215 Co204 2.039 . S
O215 C205 1.265 . S
C216 O212 1.253 . S
C216 O217 1.227 . S
O217 C216 1.227 . S
N218 Co204 2.140 . S
N218 C221 1.346 . S
N218 C222 1.345 . S
C219 C220 1.387 . S
C219 C223 1.391 . S
C220 C219 1.387 . S
C220 C221 1.369 . S
C220 H229 0.929 . S
C221 N218 1.346 . S
C221 C220 1.369 . S
C221 H224 0.928 . S
C222 N218 1.345 . S
C222 C223 1.371 . S
C222 H225 0.931 . S
C223 C219 1.391 . S
C223 C222 1.371 . S
C223 H230 0.930 . S
H224 C221 0.928 . S
H225 C222 0.931 . S
H226 C202 0.930 . S
H227 C199 0.930 . S
H228 C208 0.930 . S
H229 C220 0.929 . S
H230 C223 0.930 . S
C231 C232 1.351 . S
C231 N234 1.368 . S
C231 H236 0.931 . S
C232 C231 1.351 . S
C232 N233 1.373 . S
C232 H260 0.930 . S
N233 C232 1.373 . S
N233 C235 1.340 . S
N234 C231 1.368 . S
N234 C235 1.321 . S
N234 Co237 2.135 . S
C235 N233 1.340 . S
C235 N234 1.321 . S
C235 H259 0.930 . S
H236 C231 0.931 . S
Co237 N234 2.135 . S
Co237 N240 2.121 . S
Co237 O245 2.055 . S
Co237 O248 2.039 . S
Co237 N251 2.140 . S
C238 O239 1.227 . S
C238 O248 1.265 . S
O239 C238 1.227 . S
N240 Co237 2.121 . S
N240 C242 1.375 . S
N240 C243 1.313 . S
C241 C242 1.338 . S
C241 N244 1.377 . S
C241 H261 0.930 . S
C242 N240 1.375 . S
C242 C241 1.338 . S
C242 H246 0.931 . S
C243 N240 1.313 . S
C243 N244 1.344 . S
C243 H247 0.930 . S
N244 C241 1.377 . S
N244 C243 1.344 . S
O245 Co237 2.055 . S
O245 C249 1.253 . S
H246 C242 0.931 . S
H247 C243 0.930 . S
O248 Co237 2.039 . S
O248 C238 1.265 . S
C249 O245 1.253 . S
C249 O250 1.227 . S
O250 C249 1.227 . S
N251 Co237 2.140 . S
N251 C254 1.346 . S
N251 C255 1.345 . S
C252 C253 1.387 . S
C252 C256 1.391 . S
C253 C252 1.387 . S
C253 C254 1.369 . S
C253 H262 0.929 . S
C254 N251 1.346 . S
C254 C253 1.369 . S
C254 H257 0.928 . S
C255 N251 1.345 . S
C255 C256 1.371 . S
C255 H258 0.931 . S
C256 C252 1.391 . S
C256 C255 1.371 . S
C256 H263 0.930 . S
H257 C254 0.928 . S
H258 C255 0.931 . S
H259 C235 0.930 . S
H260 C232 0.930 . S
H261 C241 0.930 . S
H262 C253 0.929 . S
H263 C256 0.930 . S
C264 C265 1.351 . S
C264 N267 1.368 . S
C264 H269 0.931 . S
C265 C264 1.351 . S
C265 N266 1.373 . S
C265 H293 0.930 . S
N266 C265 1.373 . S
N266 C268 1.340 . S
N267 C264 1.368 . S
N267 C268 1.321 . S
N267 Co270 2.135 1_554 S
C268 N266 1.340 . S
C268 N267 1.321 . S
C268 H292 0.930 . S
H269 C264 0.931 . S
Co270 N267 2.135 1_556 S
Co270 N273 2.121 . S
Co270 O278 2.055 . S
Co270 O281 2.039 . S
Co270 N284 2.140 . S
C271 O272 1.227 . S
C271 O281 1.265 . S
O272 C271 1.227 . S
N273 Co270 2.121 . S
N273 C275 1.375 . S
N273 C276 1.313 . S
C274 C275 1.338 . S
C274 N277 1.377 . S
C274 H294 0.930 . S
C275 N273 1.375 . S
C275 C274 1.338 . S
C275 H279 0.931 . S
C276 N273 1.313 . S
C276 N277 1.344 . S
C276 H280 0.930 . S
N277 C274 1.377 . S
N277 C276 1.344 . S
O278 Co270 2.055 . S
O278 C282 1.253 . S
H279 C275 0.931 . S
H280 C276 0.930 . S
O281 Co270 2.039 . S
O281 C271 1.265 . S
C282 O278 1.253 . S
C282 O283 1.227 . S
O283 C282 1.227 . S
N284 Co270 2.140 . S
N284 C287 1.346 . S
N284 C288 1.345 . S
C285 C286 1.387 . S
C285 C289 1.391 . S
C286 C285 1.387 . S
C286 C287 1.369 . S
C286 H295 0.929 1_556 S
C287 N284 1.346 . S
C287 C286 1.369 . S
C287 H290 0.928 1_556 S
C288 N284 1.345 . S
C288 C289 1.371 . S
C288 H291 0.931 . S
C289 C285 1.391 . S
C289 C288 1.371 . S
C289 H296 0.930 . S
H290 C287 0.928 1_554 S
H291 C288 0.931 . S
H292 C268 0.930 . S
H293 C265 0.930 . S
H294 C274 0.930 . S
H295 C286 0.929 1_554 S
H296 C289 0.930 . S
C297 C298 1.351 . S
C297 N300 1.368 . S
C297 H302 0.931 . S
C298 C297 1.351 . S
C298 N299 1.373 . S
C298 H326 0.930 . S
N299 C298 1.373 . S
N299 C301 1.340 . S
N300 C297 1.368 . S
N300 C301 1.321 . S
N300 Co303 2.135 . S
C301 N299 1.340 . S
C301 N300 1.321 . S
C301 H325 0.930 . S
H302 C297 0.931 . S
Co303 N300 2.135 . S
Co303 N306 2.121 . S
Co303 O311 2.055 . S
Co303 O314 2.039 . S
Co303 N317 2.140 . S
C304 O305 1.227 . S
C304 O314 1.265 . S
O305 C304 1.227 . S
N306 Co303 2.121 . S
N306 C308 1.375 . S
N306 C309 1.313 . S
C307 C308 1.338 . S
C307 N310 1.377 . S
C307 H327 0.930 . S
C308 N306 1.375 . S
C308 C307 1.338 . S
C308 H312 0.931 . S
C309 N306 1.313 . S
C309 N310 1.344 . S
C309 H313 0.930 . S
N310 C307 1.377 . S
N310 C309 1.344 . S
O311 Co303 2.055 . S
O311 C315 1.253 . S
H312 C308 0.931 . S
H313 C309 0.930 . S
O314 Co303 2.039 . S
O314 C304 1.265 . S
C315 O311 1.253 . S
C315 O316 1.227 . S
O316 C315 1.227 . S
N317 Co303 2.140 . S
N317 C320 1.346 . S
N317 C321 1.345 . S
C318 C319 1.387 . S
C318 C322 1.391 . S
C319 C318 1.387 . S
C319 C320 1.369 . S
C319 H328 0.929 . S
C320 N317 1.346 . S
C320 C319 1.369 . S
C320 H323 0.928 . S
C321 N317 1.345 . S
C321 C322 1.371 . S
C321 H324 0.931 . S
C322 C318 1.391 . S
C322 C321 1.371 . S
C322 H329 0.930 . S
H323 C320 0.928 . S
H324 C321 0.931 . S
H325 C301 0.930 . S
H326 C298 0.930 . S
H327 C307 0.930 . S
H328 C319 0.929 . S
H329 C322 0.930 . S
C330 C331 1.351 . S
C330 N333 1.368 . S
C330 H335 0.931 . S
C331 C330 1.351 . S
C331 N332 1.373 . S
C331 H359 0.930 . S
N332 C331 1.373 . S
N332 C334 1.340 . S
N333 C330 1.368 . S
N333 C334 1.321 . S
N333 Co336 2.135 . S
C334 N332 1.340 . S
C334 N333 1.321 . S
C334 H358 0.930 . S
H335 C330 0.931 . S
Co336 N333 2.135 . S
Co336 N339 2.121 . S
Co336 O344 2.055 . S
Co336 O347 2.039 . S
Co336 N350 2.140 . S
C337 O338 1.227 . S
C337 O347 1.265 . S
O338 C337 1.227 . S
N339 Co336 2.121 . S
N339 C341 1.375 . S
N339 C342 1.313 . S
C340 C341 1.338 . S
C340 N343 1.377 . S
C340 H360 0.930 . S
C341 N339 1.375 . S
C341 C340 1.338 . S
C341 H345 0.931 . S
C342 N339 1.313 . S
C342 N343 1.344 . S
C342 H346 0.930 . S
N343 C340 1.377 . S
N343 C342 1.344 . S
O344 Co336 2.055 . S
O344 C348 1.253 . S
H345 C341 0.931 . S
H346 C342 0.930 . S
O347 Co336 2.039 . S
O347 C337 1.265 . S
C348 O344 1.253 . S
C348 O349 1.227 . S
O349 C348 1.227 . S
N350 Co336 2.140 . S
N350 C353 1.346 . S
N350 C354 1.345 . S
C351 C352 1.387 . S
C351 C355 1.391 . S
C352 C351 1.387 . S
C352 C353 1.369 . S
C352 H361 0.929 . S
C353 N350 1.346 . S
C353 C352 1.369 . S
C353 H356 0.928 . S
C354 N350 1.345 . S
C354 C355 1.371 . S
C354 H357 0.931 . S
C355 C351 1.391 . S
C355 C354 1.371 . S
C355 H362 0.930 . S
H356 C353 0.928 . S
H357 C354 0.931 . S
H358 C334 0.930 . S
H359 C331 0.930 . S
H360 C340 0.930 . S
H361 C352 0.929 . S
H362 C355 0.930 . S
C363 C364 1.351 . S
C363 N366 1.368 . S
C363 H368 0.931 . S
C364 C363 1.351 . S
C364 N365 1.373 . S
C364 H392 0.930 . S
N365 C364 1.373 . S
N365 C367 1.340 . S
N366 C363 1.368 . S
N366 C367 1.321 . S
N366 Co369 2.135 . S
C367 N365 1.340 . S
C367 N366 1.321 . S
C367 H391 0.930 . S
H368 C363 0.931 . S
Co369 N366 2.135 . S
Co369 N372 2.121 . S
Co369 O377 2.055 . S
Co369 O380 2.039 . S
Co369 N383 2.140 . S
C370 O371 1.227 . S
C370 O380 1.265 . S
O371 C370 1.227 . S
N372 Co369 2.121 . S
N372 C374 1.375 . S
N372 C375 1.313 . S
C373 C374 1.338 . S
C373 N376 1.377 . S
C373 H393 0.930 1_554 S
C374 N372 1.375 . S
C374 C373 1.338 . S
C374 H378 0.931 . S
C375 N372 1.313 . S
C375 N376 1.344 . S
C375 H379 0.930 . S
N376 C373 1.377 . S
N376 C375 1.344 . S
O377 Co369 2.055 . S
O377 C381 1.253 . S
H378 C374 0.931 . S
H379 C375 0.930 . S
O380 Co369 2.039 . S
O380 C370 1.265 . S
C381 O377 1.253 . S
C381 O382 1.227 . S
O382 C381 1.227 . S
N383 Co369 2.140 . S
N383 C386 1.346 . S
N383 C387 1.345 . S
C384 C385 1.387 . S
C384 C388 1.391 . S
C385 C384 1.387 . S
C385 C386 1.369 . S
C385 H394 0.929 . S
C386 N383 1.346 . S
C386 C385 1.369 . S
C386 H389 0.928 . S
C387 N383 1.345 . S
C387 C388 1.371 . S
C387 H390 0.931 . S
C388 C384 1.391 . S
C388 C387 1.371 . S
C388 H395 0.930 . S
H389 C386 0.928 . S
H390 C387 0.931 . S
H391 C367 0.930 . S
H392 C364 0.930 . S
H393 C373 0.930 1_556 S
H394 C385 0.929 . S
H395 C388 0.930 . S
C396 C397 1.351 . S
C396 N399 1.368 . S
C396 H401 0.931 . S
C397 C396 1.351 . S
C397 N398 1.373 . S
C397 H425 0.930 . S
N398 C397 1.373 . S
N398 C400 1.340 . S
N399 C396 1.368 . S
N399 C400 1.321 . S
N399 Co402 2.135 1_556 S
C400 N398 1.340 . S
C400 N399 1.321 . S
C400 H424 0.930 . S
H401 C396 0.931 . S
Co402 N399 2.135 1_554 S
Co402 N405 2.121 . S
Co402 O410 2.055 . S
Co402 O413 2.039 . S
Co402 N416 2.140 . S
C403 O404 1.227 . S
C403 O413 1.265 . S
O404 C403 1.227 . S
N405 Co402 2.121 . S
N405 C407 1.375 . S
N405 C408 1.313 . S
C406 C407 1.338 . S
C406 N409 1.377 . S
C406 H426 0.930 . S
C407 N405 1.375 . S
C407 C406 1.338 . S
C407 H411 0.931 . S
C408 N405 1.313 . S
C408 N409 1.344 . S
C408 H412 0.930 . S
N409 C406 1.377 . S
N409 C408 1.344 . S
O410 Co402 2.055 . S
O410 C414 1.253 . S
H411 C407 0.931 . S
H412 C408 0.930 . S
O413 Co402 2.039 . S
O413 C403 1.265 . S
C414 O410 1.253 . S
C414 O415 1.227 . S
O415 C414 1.227 . S
N416 Co402 2.140 . S
N416 C419 1.346 . S
N416 C420 1.345 . S
C417 C418 1.387 . S
C417 C421 1.391 . S
C418 C417 1.387 . S
C418 C419 1.369 . S
C418 H427 0.929 1_554 S
C419 N416 1.346 . S
C419 C418 1.369 . S
C419 H422 0.928 1_554 S
C420 N416 1.345 . S
C420 C421 1.371 . S
C420 H423 0.931 . S
C421 C417 1.391 . S
C421 C420 1.371 . S
C421 H428 0.930 . S
H422 C419 0.928 1_556 S
H423 C420 0.931 . S
H424 C400 0.930 . S
H425 C397 0.930 . S
H426 C406 0.930 . S
H427 C418 0.929 1_556 S
H428 C421 0.930 . S
C429 C430 1.351 . S
C429 N432 1.368 . S
C429 H434 0.931 . S
C430 C429 1.351 . S
C430 N431 1.373 . S
C430 H458 0.930 . S
N431 C430 1.373 . S
N431 C433 1.340 . S
N432 C429 1.368 . S
N432 C433 1.321 . S
N432 Co435 2.135 . S
C433 N431 1.340 . S
C433 N432 1.321 . S
C433 H457 0.930 . S
H434 C429 0.931 . S
Co435 N432 2.135 . S
Co435 N438 2.121 . S
Co435 O443 2.055 . S
Co435 O446 2.039 . S
Co435 N449 2.140 . S
C436 O437 1.227 . S
C436 O446 1.265 . S
O437 C436 1.227 . S
N438 Co435 2.121 . S
N438 C440 1.375 . S
N438 C441 1.313 . S
C439 C440 1.338 . S
C439 N442 1.377 . S
C439 H459 0.930 1_556 S
C440 N438 1.375 . S
C440 C439 1.338 . S
C440 H444 0.931 . S
C441 N438 1.313 . S
C441 N442 1.344 . S
C441 H445 0.930 . S
N442 C439 1.377 . S
N442 C441 1.344 . S
O443 Co435 2.055 . S
O443 C447 1.253 . S
H444 C440 0.931 . S
H445 C441 0.930 . S
O446 Co435 2.039 . S
O446 C436 1.265 . S
C447 O443 1.253 . S
C447 O448 1.227 . S
O448 C447 1.227 . S
N449 Co435 2.140 . S
N449 C452 1.346 . S
N449 C453 1.345 . S
C450 C451 1.387 . S
C450 C454 1.391 . S
C451 C450 1.387 . S
C451 C452 1.369 . S
C451 H460 0.929 . S
C452 N449 1.346 . S
C452 C451 1.369 . S
C452 H455 0.928 . S
C453 N449 1.345 . S
C453 C454 1.371 . S
C453 H456 0.931 . S
C454 C450 1.391 . S
C454 C453 1.371 . S
C454 H461 0.930 . S
H455 C452 0.928 . S
H456 C453 0.931 . S
H457 C433 0.930 . S
H458 C430 0.930 . S
H459 C439 0.930 1_554 S
H460 C451 0.929 . S
H461 C454 0.930 . S
C462 C463 1.351 . S
C462 N465 1.368 . S
C462 H467 0.931 . S
C463 C462 1.351 . S
C463 N464 1.373 . S
C463 H491 0.930 . S
N464 C463 1.373 . S
N464 C466 1.340 . S
N465 C462 1.368 . S
N465 C466 1.321 . S
N465 Co468 2.135 . S
C466 N464 1.340 . S
C466 N465 1.321 . S
C466 H490 0.930 . S
H467 C462 0.931 . S
Co468 N465 2.135 . S
Co468 N471 2.121 . S
Co468 O476 2.055 . S
Co468 O479 2.039 . S
Co468 N482 2.140 . S
C469 O470 1.227 . S
C469 O479 1.265 . S
O470 C469 1.227 . S
N471 Co468 2.121 . S
N471 C473 1.375 . S
N471 C474 1.313 . S
C472 C473 1.338 . S
C472 N475 1.377 . S
C472 H492 0.930 . S
C473 N471 1.375 . S
C473 C472 1.338 . S
C473 H477 0.931 . S
C474 N471 1.313 . S
C474 N475 1.344 . S
C474 H478 0.930 . S
N475 C472 1.377 . S
N475 C474 1.344 . S
O476 Co468 2.055 . S
O476 C480 1.253 . S
H477 C473 0.931 . S
H478 C474 0.930 . S
O479 Co468 2.039 . S
O479 C469 1.265 . S
C480 O476 1.253 . S
C480 O481 1.227 . S
O481 C480 1.227 . S
N482 Co468 2.140 . S
N482 C485 1.346 . S
N482 C486 1.345 . S
C483 C484 1.387 . S
C483 C487 1.391 . S
C484 C483 1.387 . S
C484 C485 1.369 . S
C484 H493 0.929 . S
C485 N482 1.346 . S
C485 C484 1.369 . S
C485 H488 0.928 . S
C486 N482 1.345 . S
C486 C487 1.371 . S
C486 H489 0.931 . S
C487 C483 1.391 . S
C487 C486 1.371 . S
C487 H494 0.930 . S
H488 C485 0.928 . S
H489 C486 0.931 . S
H490 C466 0.930 . S
H491 C463 0.930 . S
H492 C472 0.930 . S
H493 C484 0.929 . S
H494 C487 0.930 . S
C495 C496 1.351 . S
C495 N498 1.368 . S
C495 H500 0.931 . S
C496 C495 1.351 . S
C496 N497 1.373 . S
C496 H524 0.930 . S
N497 C496 1.373 . S
N497 C499 1.340 . S
N498 C495 1.368 . S
N498 C499 1.321 . S
N498 Co501 2.135 . S
C499 N497 1.340 . S
C499 N498 1.321 . S
C499 H523 0.930 . S
H500 C495 0.931 . S
Co501 N498 2.135 . S
Co501 N504 2.121 . S
Co501 O509 2.055 . S
Co501 O512 2.039 . S
Co501 N515 2.140 . S
C502 O503 1.227 . S
C502 O512 1.265 . S
O503 C502 1.227 . S
N504 Co501 2.121 . S
N504 C506 1.375 . S
N504 C507 1.313 . S
C505 C506 1.338 . S
C505 N508 1.377 . S
C505 H525 0.930 . S
C506 N504 1.375 . S
C506 C505 1.338 . S
C506 H510 0.931 . S
C507 N504 1.313 . S
C507 N508 1.344 . S
C507 H511 0.930 . S
N508 C505 1.377 . S
N508 C507 1.344 . S
O509 Co501 2.055 . S
O509 C513 1.253 . S
H510 C506 0.931 . S
H511 C507 0.930 . S
O512 Co501 2.039 . S
O512 C502 1.265 . S
C513 O509 1.253 . S
C513 O514 1.227 . S
O514 C513 1.227 . S
N515 Co501 2.140 . S
N515 C518 1.346 . S
N515 C519 1.345 . S
C516 C517 1.387 . S
C516 C520 1.391 . S
C517 C516 1.387 . S
C517 C518 1.369 . S
C517 H526 0.929 . S
C518 N515 1.346 . S
C518 C517 1.369 . S
C518 H521 0.928 . S
C519 N515 1.345 . S
C519 C520 1.371 . S
C519 H522 0.931 . S
C520 C516 1.391 . S
C520 C519 1.371 . S
C520 H527 0.930 . S
H521 C518 0.928 . S
H522 C519 0.931 . S
H523 C499 0.930 . S
H524 C496 0.930 . S
H525 C505 0.930 . S
H526 C517 0.929 . S
H527 C520 0.930 . S
C528 C529 1.351 . S
C528 N531 1.368 . S
C528 H533 0.931 . S
C529 C528 1.351 . S
C529 N530 1.373 . S
C529 H557 0.930 . S
N530 C529 1.373 . S
N530 C532 1.340 . S
N531 C528 1.368 . S
N531 C532 1.321 . S
N531 Co534 2.135 . S
C532 N530 1.340 . S
C532 N531 1.321 . S
C532 H556 0.930 . S
H533 C528 0.931 . S
Co534 N531 2.135 . S
Co534 N537 2.121 . S
Co534 O542 2.055 . S
Co534 O545 2.039 . S
Co534 N548 2.140 . S
C535 O536 1.227 . S
C535 O545 1.265 . S
O536 C535 1.227 . S
N537 Co534 2.121 . S
N537 C539 1.375 . S
N537 C540 1.313 . S
C538 C539 1.338 . S
C538 N541 1.377 . S
C538 H558 0.930 . S
C539 N537 1.375 . S
C539 C538 1.338 . S
C539 H543 0.931 . S
C540 N537 1.313 . S
C540 N541 1.344 . S
C540 H544 0.930 . S
N541 C538 1.377 . S
N541 C540 1.344 . S
O542 Co534 2.055 . S
O542 C546 1.253 . S
H543 C539 0.931 . S
H544 C540 0.930 . S
O545 Co534 2.039 . S
O545 C535 1.265 . S
C546 O542 1.253 . S
C546 O547 1.227 . S
O547 C546 1.227 . S
N548 Co534 2.140 . S
N548 C551 1.346 . S
N548 C552 1.345 . S
C549 C550 1.387 . S
C549 C553 1.391 . S
C550 C549 1.387 . S
C550 C551 1.369 . S
C550 H559 0.929 . S
C551 N548 1.346 . S
C551 C550 1.369 . S
C551 H554 0.928 . S
C552 N548 1.345 . S
C552 C553 1.371 . S
C552 H555 0.931 . S
C553 C549 1.391 . S
C553 C552 1.371 . S
C553 H560 0.930 . S
H554 C551 0.928 . S
H555 C552 0.931 . S
H556 C532 0.930 . S
H557 C529 0.930 . S
H558 C538 0.930 . S
H559 C550 0.929 . S
H560 C553 0.930 . S
C561 C562 1.351 . S
C561 N564 1.368 . S
C561 H566 0.931 . S
C562 C561 1.351 . S
C562 N563 1.373 . S
C562 H590 0.930 . S
N563 C562 1.373 . S
N563 C565 1.340 . S
N564 C561 1.368 . S
N564 C565 1.321 . S
N564 Co567 2.135 . S
C565 N563 1.340 . S
C565 N564 1.321 . S
C565 H589 0.930 . S
H566 C561 0.931 . S
Co567 N564 2.135 . S
Co567 N570 2.121 . S
Co567 O575 2.055 . S
Co567 O578 2.039 . S
Co567 N581 2.140 . S
C568 O569 1.227 . S
C568 O578 1.265 . S
O569 C568 1.227 . S
N570 Co567 2.121 . S
N570 C572 1.375 . S
N570 C573 1.313 . S
C571 C572 1.338 . S
C571 N574 1.377 . S
C571 H591 0.930 1_556 S
C572 N570 1.375 . S
C572 C571 1.338 . S
C572 H576 0.931 . S
C573 N570 1.313 . S
C573 N574 1.344 . S
C573 H577 0.930 . S
N574 C571 1.377 . S
N574 C573 1.344 . S
O575 Co567 2.055 . S
O575 C579 1.253 . S
H576 C572 0.931 . S
H577 C573 0.930 . S
O578 Co567 2.039 . S
O578 C568 1.265 . S
C579 O575 1.253 . S
C579 O580 1.227 . S
O580 C579 1.227 . S
N581 Co567 2.140 . S
N581 C584 1.346 . S
N581 C585 1.345 . S
C582 C583 1.387 . S
C582 C586 1.391 . S
C583 C582 1.387 . S
C583 C584 1.369 . S
C583 H592 0.929 . S
C584 N581 1.346 . S
C584 C583 1.369 . S
C584 H587 0.928 . S
C585 N581 1.345 . S
C585 C586 1.371 . S
C585 H588 0.931 . S
C586 C582 1.391 . S
C586 C585 1.371 . S
C586 H593 0.930 . S
H587 C584 0.928 . S
H588 C585 0.931 . S
H589 C565 0.930 . S
H590 C562 0.930 . S
H591 C571 0.930 1_554 S
H592 C583 0.929 . S
H593 C586 0.930 . S
C594 C595 1.351 . S
C594 N597 1.368 . S
C594 H599 0.931 . S
C595 C594 1.351 . S
C595 N596 1.373 . S
C595 H623 0.930 . S
N596 C595 1.373 . S
N596 C598 1.340 . S
N597 C594 1.368 . S
N597 C598 1.321 . S
N597 Co600 2.135 1_556 S
C598 N596 1.340 . S
C598 N597 1.321 . S
C598 H622 0.930 . S
H599 C594 0.931 . S
Co600 N597 2.135 1_554 S
Co600 N603 2.121 . S
Co600 O608 2.055 . S
Co600 O611 2.039 . S
Co600 N614 2.140 . S
C601 O602 1.227 . S
C601 O611 1.265 . S
O602 C601 1.227 . S
N603 Co600 2.121 . S
N603 C605 1.375 . S
N603 C606 1.313 . S
C604 C605 1.338 . S
C604 N607 1.377 . S
C604 H624 0.930 . S
C605 N603 1.375 . S
C605 C604 1.338 . S
C605 H609 0.931 . S
C606 N603 1.313 . S
C606 N607 1.344 . S
C606 H610 0.930 . S
N607 C604 1.377 . S
N607 C606 1.344 . S
O608 Co600 2.055 . S
O608 C612 1.253 . S
H609 C605 0.931 . S
H610 C606 0.930 . S
O611 Co600 2.039 . S
O611 C601 1.265 . S
C612 O608 1.253 . S
C612 O613 1.227 . S
O613 C612 1.227 . S
N614 Co600 2.140 . S
N614 C617 1.346 . S
N614 C618 1.345 . S
C615 C616 1.387 . S
C615 C619 1.391 . S
C616 C615 1.387 . S
C616 C617 1.369 . S
C616 H625 0.929 1_554 S
C617 N614 1.346 . S
C617 C616 1.369 . S
C617 H620 0.928 1_554 S
C618 N614 1.345 . S
C618 C619 1.371 . S
C618 H621 0.931 . S
C619 C615 1.391 . S
C619 C618 1.371 . S
C619 H626 0.930 . S
H620 C617 0.928 1_556 S
H621 C618 0.931 . S
H622 C598 0.930 . S
H623 C595 0.930 . S
H624 C604 0.930 . S
H625 C616 0.929 1_556 S
H626 C619 0.930 . S
C627 C628 1.351 . S
C627 N630 1.368 . S
C627 H632 0.931 . S
C628 C627 1.351 . S
C628 N629 1.373 . S
C628 H656 0.930 . S
N629 C628 1.373 . S
N629 C631 1.340 . S
N630 C627 1.368 . S
N630 C631 1.321 . S
N630 Co633 2.135 . S
C631 N629 1.340 . S
C631 N630 1.321 . S
C631 H655 0.930 . S
H632 C627 0.931 . S
Co633 N630 2.135 . S
Co633 N636 2.121 . S
Co633 O641 2.055 . S
Co633 O644 2.039 . S
Co633 N647 2.140 . S
C634 O635 1.227 . S
C634 O644 1.265 . S
O635 C634 1.227 . S
N636 Co633 2.121 . S
N636 C638 1.375 . S
N636 C639 1.313 . S
C637 C638 1.338 . S
C637 N640 1.377 . S
C637 H657 0.930 . S
C638 N636 1.375 . S
C638 C637 1.338 . S
C638 H642 0.931 . S
C639 N636 1.313 . S
C639 N640 1.344 . S
C639 H643 0.930 . S
N640 C637 1.377 . S
N640 C639 1.344 . S
O641 Co633 2.055 . S
O641 C645 1.253 . S
H642 C638 0.931 . S
H643 C639 0.930 . S
O644 Co633 2.039 . S
O644 C634 1.265 . S
C645 O641 1.253 . S
C645 O646 1.227 . S
O646 C645 1.227 . S
N647 Co633 2.140 . S
N647 C650 1.346 . S
N647 C651 1.345 . S
C648 C649 1.387 . S
C648 C652 1.391 . S
C649 C648 1.387 . S
C649 C650 1.369 . S
C649 H658 0.929 . S
C650 N647 1.346 . S
C650 C649 1.369 . S
C650 H653 0.928 . S
C651 N647 1.345 . S
C651 C652 1.371 . S
C651 H654 0.931 . S
C652 C648 1.391 . S
C652 C651 1.371 . S
C652 H659 0.930 . S
H653 C650 0.928 . S
H654 C651 0.931 . S
H655 C631 0.930 . S
H656 C628 0.930 . S
H657 C637 0.930 . S
H658 C649 0.929 . S
H659 C652 0.930 . S
C660 C661 1.351 . S
C660 N663 1.368 . S
C660 H665 0.931 . S
C661 C660 1.351 . S
C661 N662 1.373 . S
C661 H689 0.930 . S
N662 C661 1.373 . S
N662 C664 1.340 . S
N663 C660 1.368 . S
N663 C664 1.321 . S
N663 Co666 2.135 . S
C664 N662 1.340 . S
C664 N663 1.321 . S
C664 H688 0.930 . S
H665 C660 0.931 . S
Co666 N663 2.135 . S
Co666 N669 2.121 . S
Co666 O674 2.055 . S
Co666 O677 2.039 . S
Co666 N680 2.140 . S
C667 O668 1.227 . S
C667 O677 1.265 . S
O668 C667 1.227 . S
N669 Co666 2.121 . S
N669 C671 1.375 . S
N669 C672 1.313 . S
C670 C671 1.338 . S
C670 N673 1.377 . S
C670 H690 0.930 . S
C671 N669 1.375 . S
C671 C670 1.338 . S
C671 H675 0.931 . S
C672 N669 1.313 . S
C672 N673 1.344 . S
C672 H676 0.930 . S
N673 C670 1.377 . S
N673 C672 1.344 . S
O674 Co666 2.055 . S
O674 C678 1.253 . S
H675 C671 0.931 . S
H676 C672 0.930 . S
O677 Co666 2.039 . S
O677 C667 1.265 . S
C678 O674 1.253 . S
C678 O679 1.227 . S
O679 C678 1.227 . S
N680 Co666 2.140 . S
N680 C683 1.346 . S
N680 C684 1.345 . S
C681 C682 1.387 . S
C681 C685 1.391 . S
C682 C681 1.387 . S
C682 C683 1.369 . S
C682 H691 0.929 . S
C683 N680 1.346 . S
C683 C682 1.369 . S
C683 H686 0.928 . S
C684 N680 1.345 . S
C684 C685 1.371 . S
C684 H687 0.931 . S
C685 C681 1.391 . S
C685 C684 1.371 . S
C685 H692 0.930 . S
H686 C683 0.928 . S
H687 C684 0.931 . S
H688 C664 0.930 . S
H689 C661 0.930 . S
H690 C670 0.930 . S
H691 C682 0.929 . S
H692 C685 0.930 . S
C693 C694 1.351 . S
C693 N696 1.368 . S
C693 H698 0.931 . S
C694 C693 1.351 . S
C694 N695 1.373 . S
C694 H722 0.930 . S
N695 C694 1.373 . S
N695 C697 1.340 . S
N696 C693 1.368 . S
N696 C697 1.321 . S
N696 Co699 2.135 . S
C697 N695 1.340 . S
C697 N696 1.321 . S
C697 H721 0.930 . S
H698 C693 0.931 . S
Co699 N696 2.135 . S
Co699 N702 2.121 . S
Co699 O707 2.055 . S
Co699 O710 2.039 . S
Co699 N713 2.140 . S
C700 O701 1.227 . S
C700 O710 1.265 . S
O701 C700 1.227 . S
N702 Co699 2.121 . S
N702 C704 1.375 . S
N702 C705 1.313 . S
C703 C704 1.338 . S
C703 N706 1.377 . S
C703 H723 0.930 . S
C704 N702 1.375 . S
C704 C703 1.338 . S
C704 H708 0.931 . S
C705 N702 1.313 . S
C705 N706 1.344 . S
C705 H709 0.930 . S
N706 C703 1.377 . S
N706 C705 1.344 . S
O707 Co699 2.055 . S
O707 C711 1.253 . S
H708 C704 0.931 . S
H709 C705 0.930 . S
O710 Co699 2.039 . S
O710 C700 1.265 . S
C711 O707 1.253 . S
C711 O712 1.227 . S
O712 C711 1.227 . S
N713 Co699 2.140 . S
N713 C716 1.346 . S
N713 C717 1.345 . S
C714 C715 1.387 . S
C714 C718 1.391 . S
C715 C714 1.387 . S
C715 C716 1.369 . S
C715 H724 0.929 . S
C716 N713 1.346 . S
C716 C715 1.369 . S
C716 H719 0.928 . S
C717 N713 1.345 . S
C717 C718 1.371 . S
C717 H720 0.931 . S
C718 C714 1.391 . S
C718 C717 1.371 . S
C718 H725 0.930 . S
H719 C716 0.928 . S
H720 C717 0.931 . S
H721 C697 0.930 . S
H722 C694 0.930 . S
H723 C703 0.930 . S
H724 C715 0.929 . S
H725 C718 0.930 . S
C726 C727 1.351 . S
C726 N729 1.368 . S
C726 H731 0.931 . S
C727 C726 1.351 . S
C727 N728 1.373 . S
C727 H755 0.930 . S
N728 C727 1.373 . S
N728 C730 1.340 . S
N729 C726 1.368 . S
N729 C730 1.321 . S
N729 Co732 2.135 1_554 S
C730 N728 1.340 . S
C730 N729 1.321 . S
C730 H754 0.930 . S
H731 C726 0.931 . S
Co732 N729 2.135 1_556 S
Co732 N735 2.121 . S
Co732 O740 2.055 . S
Co732 O743 2.039 . S
Co732 N746 2.140 . S
C733 O734 1.227 . S
C733 O743 1.265 . S
O734 C733 1.227 . S
N735 Co732 2.121 . S
N735 C737 1.375 . S
N735 C738 1.313 . S
C736 C737 1.338 . S
C736 N739 1.377 . S
C736 H756 0.930 . S
C737 N735 1.375 . S
C737 C736 1.338 . S
C737 H741 0.931 . S
C738 N735 1.313 . S
C738 N739 1.344 . S
C738 H742 0.930 . S
N739 C736 1.377 . S
N739 C738 1.344 . S
O740 Co732 2.055 . S
O740 C744 1.253 . S
H741 C737 0.931 . S
H742 C738 0.930 . S
O743 Co732 2.039 . S
O743 C733 1.265 . S
C744 O740 1.253 . S
C744 O745 1.227 . S
O745 C744 1.227 . S
N746 Co732 2.140 . S
N746 C749 1.346 . S
N746 C750 1.345 . S
C747 C748 1.387 . S
C747 C751 1.391 . S
C748 C747 1.387 . S
C748 C749 1.369 . S
C748 H757 0.929 1_556 S
C749 N746 1.346 . S
C749 C748 1.369 . S
C749 H752 0.928 1_556 S
C750 N746 1.345 . S
C750 C751 1.371 . S
C750 H753 0.931 . S
C751 C747 1.391 . S
C751 C750 1.371 . S
C751 H758 0.930 . S
H752 C749 0.928 1_554 S
H753 C750 0.931 . S
H754 C730 0.930 . S
H755 C727 0.930 . S
H756 C736 0.930 . S
H757 C748 0.929 1_554 S
H758 C751 0.930 . S
C759 C760 1.351 . S
C759 N762 1.368 . S
C759 H764 0.931 . S
C760 C759 1.351 . S
C760 N761 1.373 . S
C760 H788 0.930 . S
N761 C760 1.373 . S
N761 C763 1.340 . S
N762 C759 1.368 . S
N762 C763 1.321 . S
N762 Co765 2.135 . S
C763 N761 1.340 . S
C763 N762 1.321 . S
C763 H787 0.930 . S
H764 C759 0.931 . S
Co765 N762 2.135 . S
Co765 N768 2.121 . S
Co765 O773 2.055 . S
Co765 O776 2.039 . S
Co765 N779 2.140 . S
C766 O767 1.227 . S
C766 O776 1.265 . S
O767 C766 1.227 . S
N768 Co765 2.121 . S
N768 C770 1.375 . S
N768 C771 1.313 . S
C769 C770 1.338 . S
C769 N772 1.377 . S
C769 H789 0.930 1_554 S
C770 N768 1.375 . S
C770 C769 1.338 . S
C770 H774 0.931 . S
C771 N768 1.313 . S
C771 N772 1.344 . S
C771 H775 0.930 . S
N772 C769 1.377 . S
N772 C771 1.344 . S
O773 Co765 2.055 . S
O773 C777 1.253 . S
H774 C770 0.931 . S
H775 C771 0.930 . S
O776 Co765 2.039 . S
O776 C766 1.265 . S
C777 O773 1.253 . S
C777 O778 1.227 . S
O778 C777 1.227 . S
N779 Co765 2.140 . S
N779 C782 1.346 . S
N779 C783 1.345 . S
C780 C781 1.387 . S
C780 C784 1.391 . S
C781 C780 1.387 . S
C781 C782 1.369 . S
C781 H790 0.929 . S
C782 N779 1.346 . S
C782 C781 1.369 . S
C782 H785 0.928 . S
C783 N779 1.345 . S
C783 C784 1.371 . S
C783 H786 0.931 . S
C784 C780 1.391 . S
C784 C783 1.371 . S
C784 H791 0.930 . S
H785 C782 0.928 . S
H786 C783 0.931 . S
H787 C763 0.930 . S
H788 C760 0.930 . S
H789 C769 0.930 1_556 S
H790 C781 0.929 . S
H791 C784 0.930 . S
C792 C793 1.351 . S
C792 N795 1.368 . S
C792 H797 0.931 . S
C793 C792 1.351 . S
C793 N794 1.373 . S
C793 H821 0.930 . S
N794 C793 1.373 . S
N794 C796 1.340 . S
N795 C792 1.368 . S
N795 C796 1.321 . S
N795 Co798 2.135 . S
C796 N794 1.340 . S
C796 N795 1.321 . S
C796 H820 0.930 . S
H797 C792 0.931 . S
Co798 N795 2.135 . S
Co798 N801 2.121 . S
Co798 O806 2.055 . S
Co798 O809 2.039 . S
Co798 N812 2.140 . S
C799 O800 1.227 . S
C799 O809 1.265 . S
O800 C799 1.227 . S
N801 Co798 2.121 . S
N801 C803 1.375 . S
N801 C804 1.313 . S
C802 C803 1.338 . S
C802 N805 1.377 . S
C802 H822 0.930 . S
C803 N801 1.375 . S
C803 C802 1.338 . S
C803 H807 0.931 . S
C804 N801 1.313 . S
C804 N805 1.344 . S
C804 H808 0.930 . S
N805 C802 1.377 . S
N805 C804 1.344 . S
O806 Co798 2.055 . S
O806 C810 1.253 . S
H807 C803 0.931 . S
H808 C804 0.930 . S
O809 Co798 2.039 . S
O809 C799 1.265 . S
C810 O806 1.253 . S
C810 O811 1.227 . S
O811 C810 1.227 . S
N812 Co798 2.140 . S
N812 C815 1.346 . S
N812 C816 1.345 . S
C813 C814 1.387 . S
C813 C817 1.391 . S
C814 C813 1.387 . S
C814 C815 1.369 . S
C814 H823 0.929 . S
C815 N812 1.346 . S
C815 C814 1.369 . S
C815 H818 0.928 . S
C816 N812 1.345 . S
C816 C817 1.371 . S
C816 H819 0.931 . S
C817 C813 1.391 . S
C817 C816 1.371 . S
C817 H824 0.930 . S
H818 C815 0.928 . S
H819 C816 0.931 . S
H820 C796 0.930 . S
H821 C793 0.930 . S
H822 C802 0.930 . S
H823 C814 0.929 . S
H824 C817 0.930 . S
C825 C826 1.351 . S
C825 N828 1.368 . S
C825 H830 0.931 . S
C826 C825 1.351 . S
C826 N827 1.373 . S
C826 H854 0.930 . S
N827 C826 1.373 . S
N827 C829 1.340 . S
N828 C825 1.368 . S
N828 C829 1.321 . S
N828 Co831 2.135 . S
C829 N827 1.340 . S
C829 N828 1.321 . S
C829 H853 0.930 . S
H830 C825 0.931 . S
Co831 N828 2.135 . S
Co831 N834 2.121 . S
Co831 O839 2.055 . S
Co831 O842 2.039 . S
Co831 N845 2.140 . S
C832 O833 1.227 . S
C832 O842 1.265 . S
O833 C832 1.227 . S
N834 Co831 2.121 . S
N834 C836 1.375 . S
N834 C837 1.313 . S
C835 C836 1.338 . S
C835 N838 1.377 . S
C835 H855 0.930 1_554 S
C836 N834 1.375 . S
C836 C835 1.338 . S
C836 H840 0.931 . S
C837 N834 1.313 . S
C837 N838 1.344 . S
C837 H841 0.930 . S
N838 C835 1.377 . S
N838 C837 1.344 . S
O839 Co831 2.055 . S
O839 C843 1.253 . S
H840 C836 0.931 . S
H841 C837 0.930 . S
O842 Co831 2.039 . S
O842 C832 1.265 . S
C843 O839 1.253 . S
C843 O844 1.227 . S
O844 C843 1.227 . S
N845 Co831 2.140 . S
N845 C848 1.346 . S
N845 C849 1.345 . S
C846 C847 1.387 . S
C846 C850 1.391 . S
C847 C846 1.387 . S
C847 C848 1.369 . S
C847 H856 0.929 . S
C848 N845 1.346 . S
C848 C847 1.369 . S
C848 H851 0.928 . S
C849 N845 1.345 . S
C849 C850 1.371 . S
C849 H852 0.931 . S
C850 C846 1.391 . S
C850 C849 1.371 . S
C850 H857 0.930 . S
H851 C848 0.928 . S
H852 C849 0.931 . S
H853 C829 0.930 . S
H854 C826 0.930 . S
H855 C835 0.930 1_556 S
H856 C847 0.929 . S
H857 C850 0.930 . S
C858 C859 1.351 . S
C858 N861 1.368 . S
C858 H863 0.931 . S
C859 C858 1.351 . S
C859 N860 1.373 . S
C859 H887 0.930 . S
N860 C859 1.373 . S
N860 C862 1.340 . S
N861 C858 1.368 . S
N861 C862 1.321 . S
N861 Co864 2.135 1_554 S
C862 N860 1.340 . S
C862 N861 1.321 . S
C862 H886 0.930 . S
H863 C858 0.931 . S
Co864 N861 2.135 1_556 S
Co864 N867 2.121 . S
Co864 O872 2.055 . S
Co864 O875 2.039 . S
Co864 N878 2.140 . S
C865 O866 1.227 . S
C865 O875 1.265 . S
O866 C865 1.227 . S
N867 Co864 2.121 . S
N867 C869 1.375 . S
N867 C870 1.313 . S
C868 C869 1.338 . S
C868 N871 1.377 . S
C868 H888 0.930 . S
C869 N867 1.375 . S
C869 C868 1.338 . S
C869 H873 0.931 . S
C870 N867 1.313 . S
C870 N871 1.344 . S
C870 H874 0.930 . S
N871 C868 1.377 . S
N871 C870 1.344 . S
O872 Co864 2.055 . S
O872 C876 1.253 . S
H873 C869 0.931 . S
H874 C870 0.930 . S
O875 Co864 2.039 . S
O875 C865 1.265 . S
C876 O872 1.253 . S
C876 O877 1.227 . S
O877 C876 1.227 . S
N878 Co864 2.140 . S
N878 C881 1.346 . S
N878 C882 1.345 . S
C879 C880 1.387 . S
C879 C883 1.391 . S
C880 C879 1.387 . S
C880 C881 1.369 . S
C880 H889 0.929 1_556 S
C881 N878 1.346 . S
C881 C880 1.369 . S
C881 H884 0.928 1_556 S
C882 N878 1.345 . S
C882 C883 1.371 . S
C882 H885 0.931 . S
C883 C879 1.391 . S
C883 C882 1.371 . S
C883 H890 0.930 . S
H884 C881 0.928 1_554 S
H885 C882 0.931 . S
H886 C862 0.930 . S
H887 C859 0.930 . S
H888 C868 0.930 . S
H889 C880 0.929 1_554 S
H890 C883 0.930 . S
C891 C892 1.351 . S
C891 N894 1.368 . S
C891 H896 0.931 . S
C892 C891 1.351 . S
C892 N893 1.373 . S
C892 H920 0.930 . S
N893 C892 1.373 . S
N893 C895 1.340 . S
N894 C891 1.368 . S
N894 C895 1.321 . S
N894 Co897 2.135 . S
C895 N893 1.340 . S
C895 N894 1.321 . S
C895 H919 0.930 . S
H896 C891 0.931 . S
Co897 N894 2.135 . S
Co897 N900 2.121 . S
Co897 O905 2.055 . S
Co897 O908 2.039 . S
Co897 N911 2.140 . S
C898 O899 1.227 . S
C898 O908 1.265 . S
O899 C898 1.227 . S
N900 Co897 2.121 . S
N900 C902 1.375 . S
N900 C903 1.313 . S
C901 C902 1.338 . S
C901 N904 1.377 . S
C901 H921 0.930 . S
C902 N900 1.375 . S
C902 C901 1.338 . S
C902 H906 0.931 . S
C903 N900 1.313 . S
C903 N904 1.344 . S
C903 H907 0.930 . S
N904 C901 1.377 . S
N904 C903 1.344 . S
O905 Co897 2.055 . S
O905 C909 1.253 . S
H906 C902 0.931 . S
H907 C903 0.930 . S
O908 Co897 2.039 . S
O908 C898 1.265 . S
C909 O905 1.253 . S
C909 O910 1.227 . S
O910 C909 1.227 . S
N911 Co897 2.140 . S
N911 C914 1.346 . S
N911 C915 1.345 . S
C912 C913 1.387 . S
C912 C916 1.391 . S
C913 C912 1.387 . S
C913 C914 1.369 . S
C913 H922 0.929 . S
C914 N911 1.346 . S
C914 C913 1.369 . S
C914 H917 0.928 . S
C915 N911 1.345 . S
C915 C916 1.371 . S
C915 H918 0.931 . S
C916 C912 1.391 . S
C916 C915 1.371 . S
C916 H923 0.930 . S
H917 C914 0.928 . S
H918 C915 0.931 . S
H919 C895 0.930 . S
H920 C892 0.930 . S
H921 C901 0.930 . S
H922 C913 0.929 . S
H923 C916 0.930 . S
C924 C925 1.351 . S
C924 N927 1.368 . S
C924 H929 0.931 . S
C925 C924 1.351 . S
C925 N926 1.373 . S
C925 H953 0.930 . S
N926 C925 1.373 . S
N926 C928 1.340 . S
N927 C924 1.368 . S
N927 C928 1.321 . S
N927 Co930 2.135 . S
C928 N926 1.340 . S
C928 N927 1.321 . S
C928 H952 0.930 . S
H929 C924 0.931 . S
Co930 N927 2.135 . S
Co930 N933 2.121 . S
Co930 O938 2.055 . S
Co930 O941 2.039 . S
Co930 N944 2.140 . S
C931 O932 1.227 . S
C931 O941 1.265 . S
O932 C931 1.227 . S
N933 Co930 2.121 . S
N933 C935 1.375 . S
N933 C936 1.313 . S
C934 C935 1.338 . S
C934 N937 1.377 . S
C934 H954 0.930 . S
C935 N933 1.375 . S
C935 C934 1.338 . S
C935 H939 0.931 . S
C936 N933 1.313 . S
C936 N937 1.344 . S
C936 H940 0.930 . S
N937 C934 1.377 . S
N937 C936 1.344 . S
O938 Co930 2.055 . S
O938 C942 1.253 . S
H939 C935 0.931 . S
H940 C936 0.930 . S
O941 Co930 2.039 . S
O941 C931 1.265 . S
C942 O938 1.253 . S
C942 O943 1.227 . S
O943 C942 1.227 . S
N944 Co930 2.140 . S
N944 C947 1.346 . S
N944 C948 1.345 . S
C945 C946 1.387 . S
C945 C949 1.391 . S
C946 C945 1.387 . S
C946 C947 1.369 . S
C946 H955 0.929 . S
C947 N944 1.346 . S
C947 C946 1.369 . S
C947 H950 0.928 . S
C948 N944 1.345 . S
C948 C949 1.371 . S
C948 H951 0.931 . S
C949 C945 1.391 . S
C949 C948 1.371 . S
C949 H956 0.930 . S
H950 C947 0.928 . S
H951 C948 0.931 . S
H952 C928 0.930 . S
H953 C925 0.930 . S
H954 C934 0.930 . S
H955 C946 0.929 . S
H956 C949 0.930 . S
C957 C958 1.351 . S
C957 N960 1.368 . S
C957 H962 0.931 . S
C958 C957 1.351 . S
C958 N959 1.373 . S
C958 H986 0.930 . S
N959 C958 1.373 . S
N959 C961 1.340 . S
N960 C957 1.368 . S
N960 C961 1.321 . S
N960 Co963 2.135 . S
C961 N959 1.340 . S
C961 N960 1.321 . S
C961 H985 0.930 . S
H962 C957 0.931 . S
Co963 N960 2.135 . S
Co963 N966 2.121 . S
Co963 O971 2.055 . S
Co963 O974 2.039 . S
Co963 N977 2.140 . S
C964 O965 1.227 . S
C964 O974 1.265 . S
O965 C964 1.227 . S
N966 Co963 2.121 . S
N966 C968 1.375 . S
N966 C969 1.313 . S
C967 C968 1.338 . S
C967 N970 1.377 . S
C967 H987 0.930 . S
C968 N966 1.375 . S
C968 C967 1.338 . S
C968 H972 0.931 . S
C969 N966 1.313 . S
C969 N970 1.344 . S
C969 H973 0.930 . S
N970 C967 1.377 . S
N970 C969 1.344 . S
O971 Co963 2.055 . S
O971 C975 1.253 . S
H972 C968 0.931 . S
H973 C969 0.930 . S
O974 Co963 2.039 . S
O974 C964 1.265 . S
C975 O971 1.253 . S
C975 O976 1.227 . S
O976 C975 1.227 . S
N977 Co963 2.140 . S
N977 C980 1.346 . S
N977 C981 1.345 . S
C978 C979 1.387 . S
C978 C982 1.391 . S
C979 C978 1.387 . S
C979 C980 1.369 . S
C979 H988 0.929 . S
C980 N977 1.346 . S
C980 C979 1.369 . S
C980 H983 0.928 . S
C981 N977 1.345 . S
C981 C982 1.371 . S
C981 H984 0.931 . S
C982 C978 1.391 . S
C982 C981 1.371 . S
C982 H989 0.930 . S
H983 C980 0.928 . S
H984 C981 0.931 . S
H985 C961 0.930 . S
H986 C958 0.930 . S
H987 C967 0.930 . S
H988 C979 0.929 . S
H989 C982 0.930 . S
C990 C991 1.351 . S
C990 N993 1.368 . S
C990 H995 0.931 . S
C991 C990 1.351 . S
C991 N992 1.373 . S
C991 H1019 0.930 . S
N992 C991 1.373 . S
N992 C994 1.340 . S
N993 C990 1.368 . S
N993 C994 1.321 . S
N993 Co996 2.135 1_556 S
C994 N992 1.340 . S
C994 N993 1.321 . S
C994 H1018 0.930 . S
H995 C990 0.931 . S
Co996 N993 2.135 1_554 S
Co996 N999 2.121 . S
Co996 O1004 2.055 . S
Co996 O1007 2.039 . S
Co996 N1010 2.140 . S
C997 O998 1.227 . S
C997 O1007 1.265 . S
O998 C997 1.227 . S
N999 Co996 2.121 . S
N999 C1001 1.375 . S
N999 C1002 1.313 . S
C1000 C1001 1.338 . S
C1000 N1003 1.377 . S
C1000 H1020 0.930 . S
C1001 N999 1.375 . S
C1001 C1000 1.338 . S
C1001 H1005 0.931 . S
C1002 N999 1.313 . S
C1002 N1003 1.344 . S
C1002 H1006 0.930 . S
N1003 C1000 1.377 . S
N1003 C1002 1.344 . S
O1004 Co996 2.055 . S
O1004 C1008 1.253 . S
H1005 C1001 0.931 . S
H1006 C1002 0.930 . S
O1007 Co996 2.039 . S
O1007 C997 1.265 . S
C1008 O1004 1.253 . S
C1008 O1009 1.227 . S
O1009 C1008 1.227 . S
N1010 Co996 2.140 . S
N1010 C1013 1.346 . S
N1010 C1014 1.345 . S
C1011 C1012 1.387 . S
C1011 C1015 1.391 . S
C1012 C1011 1.387 . S
C1012 C1013 1.369 . S
C1012 H1021 0.929 1_554 S
C1013 N1010 1.346 . S
C1013 C1012 1.369 . S
C1013 H1016 0.928 1_554 S
C1014 N1010 1.345 . S
C1014 C1015 1.371 . S
C1014 H1017 0.931 . S
C1015 C1011 1.391 . S
C1015 C1014 1.371 . S
C1015 H1022 0.930 . S
H1016 C1013 0.928 1_556 S
H1017 C1014 0.931 . S
H1018 C994 0.930 . S
H1019 C991 0.930 . S
H1020 C1000 0.930 . S
H1021 C1012 0.929 1_556 S
H1022 C1015 0.930 . S
C1023 C1024 1.351 . S
C1023 N1026 1.368 . S
C1023 H1028 0.931 . S
C1024 C1023 1.351 . S
C1024 N1025 1.373 . S
C1024 H1052 0.930 . S
N1025 C1024 1.373 . S
N1025 C1027 1.340 . S
N1026 C1023 1.368 . S
N1026 C1027 1.321 . S
N1026 Co1029 2.135 . S
C1027 N1025 1.340 . S
C1027 N1026 1.321 . S
C1027 H1051 0.930 . S
H1028 C1023 0.931 . S
Co1029 N1026 2.135 . S
Co1029 N1032 2.121 . S
Co1029 O1037 2.055 . S
Co1029 O1040 2.039 . S
Co1029 N1043 2.140 . S
C1030 O1031 1.227 . S
C1030 O1040 1.265 . S
O1031 C1030 1.227 . S
N1032 Co1029 2.121 . S
N1032 C1034 1.375 . S
N1032 C1035 1.313 . S
C1033 C1034 1.338 . S
C1033 N1036 1.377 . S
C1033 H1053 0.930 1_556 S
C1034 N1032 1.375 . S
C1034 C1033 1.338 . S
C1034 H1038 0.931 . S
C1035 N1032 1.313 . S
C1035 N1036 1.344 . S
C1035 H1039 0.930 . S
N1036 C1033 1.377 . S
N1036 C1035 1.344 . S
O1037 Co1029 2.055 . S
O1037 C1041 1.253 . S
H1038 C1034 0.931 . S
H1039 C1035 0.930 . S
O1040 Co1029 2.039 . S
O1040 C1030 1.265 . S
C1041 O1037 1.253 . S
C1041 O1042 1.227 . S
O1042 C1041 1.227 . S
N1043 Co1029 2.140 . S
N1043 C1046 1.346 . S
N1043 C1047 1.345 . S
C1044 C1045 1.387 . S
C1044 C1048 1.391 . S
C1045 C1044 1.387 . S
C1045 C1046 1.369 . S
C1045 H1054 0.929 . S
C1046 N1043 1.346 . S
C1046 C1045 1.369 . S
C1046 H1049 0.928 . S
C1047 N1043 1.345 . S
C1047 C1048 1.371 . S
C1047 H1050 0.931 . S
C1048 C1044 1.391 . S
C1048 C1047 1.371 . S
C1048 H1055 0.930 . S
H1049 C1046 0.928 . S
H1050 C1047 0.931 . S
H1051 C1027 0.930 . S
H1052 C1024 0.930 . S
H1053 C1033 0.930 1_554 S
H1054 C1045 0.929 . S
H1055 C1048 0.930 . S
H1056 C1064 0.929 . S
H1057 C1066 0.930 . S
H1058 C1068 0.930 . S
H1059 C1071 0.929 . S
H1060 C1074 0.930 . S
H1061 C1076 0.960 . S
H1062 C1076 0.960 . S
H1063 C1076 0.960 . S
C1064 H1056 0.929 . S
C1064 C1065 1.377 . S
C1064 C1066 1.384 . S
C1065 C1064 1.377 . S
C1065 C1071 1.390 . S
C1066 H1057 0.930 . S
C1066 C1064 1.384 . S
C1066 C1067 1.372 . S
C1067 C1066 1.372 . S
C1067 C1068 1.400 . S
C1067 C1072 1.490 . S
C1068 H1058 0.930 . S
C1068 C1067 1.400 . S
C1068 C1071 1.386 . S
H1069 C1085 0.930 . S
H1070 C1086 0.931 . S
C1071 H1059 0.929 . S
C1071 C1065 1.390 . S
C1071 C1068 1.386 . S
C1072 C1067 1.490 . S
C1072 C1074 1.395 . S
C1072 C1075 1.403 . S
H1073 C1079 0.930 . S
C1074 H1060 0.930 . S
C1074 C1072 1.395 . S
C1074 C1077 1.403 . S
C1075 C1072 1.403 . S
C1075 C1076 1.524 . S
C1075 C1079 1.400 . S
C1076 H1061 0.960 . S
C1076 H1062 0.960 . S
C1076 H1063 0.960 . S
C1076 C1075 1.524 . S
C1077 C1074 1.403 . S
C1077 C1078 1.392 . S
C1077 C1081 1.495 . S
C1078 C1077 1.392 . S
C1078 C1079 1.385 . S
C1078 C1080 1.478 . S
C1079 H1073 0.930 . S
C1079 C1075 1.400 . S
C1079 C1078 1.385 . S
C1080 C1078 1.478 . S
C1080 C1082 1.381 . S
C1080 C1086 1.383 . S
C1081 C1077 1.495 . S
C1081 H1087 0.959 . S
C1081 H1088 0.961 . S
C1081 H1089 0.960 . S
C1082 C1080 1.381 . S
C1082 C1083 1.394 . S
C1082 H1090 0.930 . S
C1083 C1082 1.394 . S
C1083 C1084 1.383 . S
C1083 H1091 0.929 . S
C1084 C1083 1.383 . S
C1084 C1085 1.377 . S
C1085 H1069 0.930 . S
C1085 C1084 1.377 . S
C1085 C1086 1.379 . S
C1086 H1070 0.931 . S
C1086 C1080 1.383 . S
C1086 C1085 1.379 . S
H1087 C1081 0.959 . S
H1088 C1081 0.961 . S
H1089 C1081 0.960 . S
H1090 C1082 0.930 . S
H1091 C1083 0.929 . S
H1092 C1100 0.929 . S
H1093 C1102 0.930 . S
H1094 C1104 0.930 . S
H1095 C1107 0.929 . S
H1096 C1110 0.930 . S
H1097 C1112 0.960 . S
H1098 C1112 0.960 . S
H1099 C1112 0.960 . S
C1100 H1092 0.929 . S
C1100 C1101 1.377 . S
C1100 C1102 1.384 . S
C1101 C1100 1.377 . S
C1101 C1107 1.390 . S
C1102 H1093 0.930 . S
C1102 C1100 1.384 . S
C1102 C1103 1.372 . S
C1103 C1102 1.372 . S
C1103 C1104 1.400 . S
C1103 C1108 1.490 . S
C1104 H1094 0.930 . S
C1104 C1103 1.400 . S
C1104 C1107 1.386 . S
H1105 C1121 0.930 . S
H1106 C1122 0.931 . S
C1107 H1095 0.929 . S
C1107 C1101 1.390 . S
C1107 C1104 1.386 . S
C1108 C1103 1.490 . S
C1108 C1110 1.395 . S
C1108 C1111 1.403 . S
H1109 C1115 0.930 . S
C1110 H1096 0.930 . S
C1110 C1108 1.395 . S
C1110 C1113 1.403 . S
C1111 C1108 1.403 . S
C1111 C1112 1.524 . S
C1111 C1115 1.400 . S
C1112 H1097 0.960 . S
C1112 H1098 0.960 . S
C1112 H1099 0.960 . S
C1112 C1111 1.524 . S
C1113 C1110 1.403 . S
C1113 C1114 1.392 . S
C1113 C1117 1.495 . S
C1114 C1113 1.392 . S
C1114 C1115 1.385 . S
C1114 C1116 1.478 . S
C1115 H1109 0.930 . S
C1115 C1111 1.400 . S
C1115 C1114 1.385 . S
C1116 C1114 1.478 . S
C1116 C1118 1.381 . S
C1116 C1122 1.383 . S
C1117 C1113 1.495 . S
C1117 H1123 0.959 . S
C1117 H1124 0.961 . S
C1117 H1125 0.960 . S
C1118 C1116 1.381 . S
C1118 C1119 1.394 1_556 S
C1118 H1126 0.930 . S
C1119 C1118 1.394 1_554 S
C1119 C1120 1.383 . S
C1119 H1127 0.929 . S
C1120 C1119 1.383 . S
C1120 C1121 1.377 . S
C1121 H1105 0.930 . S
C1121 C1120 1.377 . S
C1121 C1122 1.379 1_554 S
C1122 H1106 0.931 . S
C1122 C1116 1.383 . S
C1122 C1121 1.379 1_556 S
H1123 C1117 0.959 . S
H1124 C1117 0.961 . S
H1125 C1117 0.960 . S
H1126 C1118 0.930 . S
H1127 C1119 0.929 . S
H1128 C1136 0.929 . S
H1129 C1138 0.930 . S
H1130 C1140 0.930 . S
H1131 C1143 0.929 . S
H1132 C1146 0.930 1_556 S
H1133 C1148 0.960 1_554 S
H1134 C1148 0.960 . S
H1135 C1148 0.960 . S
C1136 H1128 0.929 . S
C1136 C1137 1.377 . S
C1136 C1138 1.384 . S
C1137 C1136 1.377 . S
C1137 C1143 1.390 . S
C1138 H1129 0.930 . S
C1138 C1136 1.384 . S
C1138 C1139 1.372 . S
C1139 C1138 1.372 . S
C1139 C1140 1.400 . S
C1139 C1144 1.490 . S
C1140 H1130 0.930 . S
C1140 C1139 1.400 . S
C1140 C1143 1.386 . S
H1141 C1157 0.930 . S
H1142 C1158 0.931 . S
C1143 H1131 0.929 . S
C1143 C1137 1.390 . S
C1143 C1140 1.386 . S
C1144 C1139 1.490 . S
C1144 C1146 1.395 1_556 S
C1144 C1147 1.403 1_556 S
H1145 C1151 0.930 . S
C1146 H1132 0.930 1_554 S
C1146 C1144 1.395 1_554 S
C1146 C1149 1.403 . S
C1147 C1144 1.403 1_554 S
C1147 C1148 1.524 1_554 S
C1147 C1151 1.400 . S
C1148 H1133 0.960 1_556 S
C1148 H1134 0.960 . S
C1148 H1135 0.960 . S
C1148 C1147 1.524 1_556 S
C1149 C1146 1.403 . S
C1149 C1150 1.392 . S
C1149 C1153 1.495 . S
C1150 C1149 1.392 . S
C1150 C1151 1.385 . S
C1150 C1152 1.478 . S
C1151 H1145 0.930 . S
C1151 C1147 1.400 . S
C1151 C1150 1.385 . S
C1152 C1150 1.478 . S
C1152 C1154 1.381 . S
C1152 C1158 1.383 . S
C1153 C1149 1.495 . S
C1153 H1159 0.959 . S
C1153 H1160 0.961 . S
C1153 H1161 0.960 . S
C1154 C1152 1.381 . S
C1154 C1155 1.394 . S
C1154 H1162 0.930 . S
C1155 C1154 1.394 . S
C1155 C1156 1.383 . S
C1155 H1163 0.929 . S
C1156 C1155 1.383 . S
C1156 C1157 1.377 . S
C1157 H1141 0.930 . S
C1157 C1156 1.377 . S
C1157 C1158 1.379 . S
C1158 H1142 0.931 . S
C1158 C1152 1.383 . S
C1158 C1157 1.379 . S
H1159 C1153 0.959 . S
H1160 C1153 0.961 . S
H1161 C1153 0.960 . S
H1162 C1154 0.930 . S
H1163 C1155 0.929 . S
H1164 C1172 0.929 . S
H1165 C1174 0.930 . S
H1166 C1176 0.930 . S
H1167 C1179 0.929 . S
H1168 C1182 0.930 . S
H1169 C1184 0.960 . S
H1170 C1184 0.960 . S
H1171 C1184 0.960 . S
C1172 H1164 0.929 . S
C1172 C1173 1.377 . S
C1172 C1174 1.384 . S
C1173 C1172 1.377 . S
C1173 C1179 1.390 . S
C1174 H1165 0.930 . S
C1174 C1172 1.384 . S
C1174 C1175 1.372 . S
C1175 C1174 1.372 . S
C1175 C1176 1.400 . S
C1175 C1180 1.490 . S
C1176 H1166 0.930 . S
C1176 C1175 1.400 . S
C1176 C1179 1.386 . S
H1177 C1193 0.930 . S
H1178 C1194 0.931 . S
C1179 H1167 0.929 . S
C1179 C1173 1.390 . S
C1179 C1176 1.386 . S
C1180 C1175 1.490 . S
C1180 C1182 1.395 . S
C1180 C1183 1.403 . S
H1181 C1187 0.930 . S
C1182 H1168 0.930 . S
C1182 C1180 1.395 . S
C1182 C1185 1.403 . S
C1183 C1180 1.403 . S
C1183 C1184 1.524 . S
C1183 C1187 1.400 . S
C1184 H1169 0.960 . S
C1184 H1170 0.960 . S
C1184 H1171 0.960 . S
C1184 C1183 1.524 . S
C1185 C1182 1.403 . S
C1185 C1186 1.392 . S
C1185 C1189 1.495 . S
C1186 C1185 1.392 . S
C1186 C1187 1.385 . S
C1186 C1188 1.478 . S
C1187 H1181 0.930 . S
C1187 C1183 1.400 . S
C1187 C1186 1.385 . S
C1188 C1186 1.478 . S
C1188 C1190 1.381 . S
C1188 C1194 1.383 . S
C1189 C1185 1.495 . S
C1189 H1195 0.959 . S
C1189 H1196 0.961 . S
C1189 H1197 0.960 . S
C1190 C1188 1.381 . S
C1190 C1191 1.394 . S
C1190 H1198 0.930 . S
C1191 C1190 1.394 . S
C1191 C1192 1.383 . S
C1191 H1199 0.929 . S
C1192 C1191 1.383 . S
C1192 C1193 1.377 . S
C1193 H1177 0.930 . S
C1193 C1192 1.377 . S
C1193 C1194 1.379 . S
C1194 H1178 0.931 . S
C1194 C1188 1.383 . S
C1194 C1193 1.379 . S
H1195 C1189 0.959 . S
H1196 C1189 0.961 . S
H1197 C1189 0.960 . S
H1198 C1190 0.930 . S
H1199 C1191 0.929 . S
H1200 C1208 0.929 . S
H1201 C1210 0.930 . S
H1202 C1212 0.930 . S
H1203 C1215 0.929 . S
H1204 C1218 0.930 . S
H1205 C1220 0.960 . S
H1206 C1220 0.960 . S
H1207 C1220 0.960 . S
C1208 H1200 0.929 . S
C1208 C1209 1.377 . S
C1208 C1210 1.384 . S
C1209 C1208 1.377 . S
C1209 C1215 1.390 . S
C1210 H1201 0.930 . S
C1210 C1208 1.384 . S
C1210 C1211 1.372 . S
C1211 C1210 1.372 . S
C1211 C1212 1.400 . S
C1211 C1216 1.490 . S
C1212 H1202 0.930 . S
C1212 C1211 1.400 . S
C1212 C1215 1.386 . S
H1213 C1229 0.930 . S
H1214 C1230 0.931 . S
C1215 H1203 0.929 . S
C1215 C1209 1.390 . S
C1215 C1212 1.386 . S
C1216 C1211 1.490 . S
C1216 C1218 1.395 . S
C1216 C1219 1.403 . S
H1217 C1223 0.930 . S
C1218 H1204 0.930 . S
C1218 C1216 1.395 . S
C1218 C1221 1.403 . S
C1219 C1216 1.403 . S
C1219 C1220 1.524 . S
C1219 C1223 1.400 . S
C1220 H1205 0.960 . S
C1220 H1206 0.960 . S
C1220 H1207 0.960 . S
C1220 C1219 1.524 . S
C1221 C1218 1.403 . S
C1221 C1222 1.392 . S
C1221 C1225 1.495 . S
C1222 C1221 1.392 . S
C1222 C1223 1.385 . S
C1222 C1224 1.478 . S
C1223 H1217 0.930 . S
C1223 C1219 1.400 . S
C1223 C1222 1.385 . S
C1224 C1222 1.478 . S
C1224 C1226 1.381 . S
C1224 C1230 1.383 . S
C1225 C1221 1.495 . S
C1225 H1231 0.959 . S
C1225 H1232 0.961 . S
C1225 H1233 0.960 . S
C1226 C1224 1.381 . S
C1226 C1227 1.394 . S
C1226 H1234 0.930 . S
C1227 C1226 1.394 . S
C1227 C1228 1.383 . S
C1227 H1235 0.929 . S
C1228 C1227 1.383 . S
C1228 C1229 1.377 . S
C1229 H1213 0.930 . S
C1229 C1228 1.377 . S
C1229 C1230 1.379 . S
C1230 H1214 0.931 . S
C1230 C1224 1.383 . S
C1230 C1229 1.379 . S
H1231 C1225 0.959 . S
H1232 C1225 0.961 . S
H1233 C1225 0.960 . S
H1234 C1226 0.930 . S
H1235 C1227 0.929 . S
H1236 C1244 0.929 . S
H1237 C1246 0.930 . S
H1238 C1248 0.930 . S
H1239 C1251 0.929 . S
H1240 C1254 0.930 . S
H1241 C1256 0.960 . S
H1242 C1256 0.960 . S
H1243 C1256 0.960 . S
C1244 H1236 0.929 . S
C1244 C1245 1.377 . S
C1244 C1246 1.384 . S
C1245 C1244 1.377 . S
C1245 C1251 1.390 . S
C1246 H1237 0.930 . S
C1246 C1244 1.384 . S
C1246 C1247 1.372 . S
C1247 C1246 1.372 . S
C1247 C1248 1.400 . S
C1247 C1252 1.490 . S
C1248 H1238 0.930 . S
C1248 C1247 1.400 . S
C1248 C1251 1.386 . S
H1249 C1265 0.930 . S
H1250 C1266 0.931 . S
C1251 H1239 0.929 . S
C1251 C1245 1.390 . S
C1251 C1248 1.386 . S
C1252 C1247 1.490 . S
C1252 C1254 1.395 . S
C1252 C1255 1.403 . S
H1253 C1259 0.930 . S
C1254 H1240 0.930 . S
C1254 C1252 1.395 . S
C1254 C1257 1.403 . S
C1255 C1252 1.403 . S
C1255 C1256 1.524 . S
C1255 C1259 1.400 . S
C1256 H1241 0.960 . S
C1256 H1242 0.960 . S
C1256 H1243 0.960 . S
C1256 C1255 1.524 . S
C1257 C1254 1.403 . S
C1257 C1258 1.392 . S
C1257 C1261 1.495 . S
C1258 C1257 1.392 . S
C1258 C1259 1.385 . S
C1258 C1260 1.478 . S
C1259 H1253 0.930 . S
C1259 C1255 1.400 . S
C1259 C1258 1.385 . S
C1260 C1258 1.478 . S
C1260 C1262 1.381 . S
C1260 C1266 1.383 . S
C1261 C1257 1.495 . S
C1261 H1267 0.959 . S
C1261 H1268 0.961 . S
C1261 H1269 0.960 . S
C1262 C1260 1.381 . S
C1262 C1263 1.394 . S
C1262 H1270 0.930 . S
C1263 C1262 1.394 . S
C1263 C1264 1.383 . S
C1263 H1271 0.929 . S
C1264 C1263 1.383 . S
C1264 C1265 1.377 . S
C1265 H1249 0.930 . S
C1265 C1264 1.377 . S
C1265 C1266 1.379 . S
C1266 H1250 0.931 . S
C1266 C1260 1.383 . S
C1266 C1265 1.379 . S
H1267 C1261 0.959 . S
H1268 C1261 0.961 . S
H1269 C1261 0.960 . S
H1270 C1262 0.930 . S
H1271 C1263 0.929 . S
H1272 C1280 0.929 . S
H1273 C1282 0.930 . S
H1274 C1284 0.930 . S
H1275 C1287 0.929 . S
H1276 C1290 0.930 . S
H1277 C1292 0.960 . S
H1278 C1292 0.960 . S
H1279 C1292 0.960 . S
C1280 H1272 0.929 . S
C1280 C1281 1.377 . S
C1280 C1282 1.384 . S
C1281 C1280 1.377 . S
C1281 C1287 1.390 . S
C1282 H1273 0.930 . S
C1282 C1280 1.384 . S
C1282 C1283 1.372 . S
C1283 C1282 1.372 . S
C1283 C1284 1.400 . S
C1283 C1288 1.490 . S
C1284 H1274 0.930 . S
C1284 C1283 1.400 . S
C1284 C1287 1.386 . S
H1285 C1301 0.930 . S
H1286 C1302 0.931 . S
C1287 H1275 0.929 . S
C1287 C1281 1.390 . S
C1287 C1284 1.386 . S
C1288 C1283 1.490 . S
C1288 C1290 1.395 . S
C1288 C1291 1.403 . S
H1289 C1295 0.930 1_554 S
C1290 H1276 0.930 . S
C1290 C1288 1.395 . S
C1290 C1293 1.403 . S
C1291 C1288 1.403 . S
C1291 C1292 1.524 . S
C1291 C1295 1.400 . S
C1292 H1277 0.960 . S
C1292 H1278 0.960 . S
C1292 H1279 0.960 . S
C1292 C1291 1.524 . S
C1293 C1290 1.403 . S
C1293 C1294 1.392 1_556 S
C1293 C1297 1.495 1_556 S
C1294 C1293 1.392 1_554 S
C1294 C1295 1.385 1_554 S
C1294 C1296 1.478 . S
C1295 H1289 0.930 1_556 S
C1295 C1291 1.400 . S
C1295 C1294 1.385 1_556 S
C1296 C1294 1.478 . S
C1296 C1298 1.381 . S
C1296 C1302 1.383 . S
C1297 C1293 1.495 1_554 S
C1297 H1303 0.959 1_554 S
C1297 H1304 0.961 . S
C1297 H1305 0.960 . S
C1298 C1296 1.381 . S
C1298 C1299 1.394 . S
C1298 H1306 0.930 . S
C1299 C1298 1.394 . S
C1299 C1300 1.383 . S
C1299 H1307 0.929 . S
C1300 C1299 1.383 . S
C1300 C1301 1.377 . S
C1301 H1285 0.930 . S
C1301 C1300 1.377 . S
C1301 C1302 1.379 . S
C1302 H1286 0.931 . S
C1302 C1296 1.383 . S
C1302 C1301 1.379 . S
H1303 C1297 0.959 1_556 S
H1304 C1297 0.961 . S
H1305 C1297 0.960 . S
H1306 C1298 0.930 . S
H1307 C1299 0.929 . S
H1308 C1316 0.929 . S
H1309 C1318 0.930 . S
H1310 C1320 0.930 . S
H1311 C1323 0.929 . S
H1312 C1326 0.930 . S
H1313 C1328 0.960 . S
H1314 C1328 0.960 . S
H1315 C1328 0.960 . S
C1316 H1308 0.929 . S
C1316 C1317 1.377 . S
C1316 C1318 1.384 1_556 S
C1317 C1316 1.377 . S
C1317 C1323 1.390 . S
C1318 H1309 0.930 . S
C1318 C1316 1.384 1_554 S
C1318 C1319 1.372 . S
C1319 C1318 1.372 . S
C1319 C1320 1.400 . S
C1319 C1324 1.490 . S
C1320 H1310 0.930 . S
C1320 C1319 1.400 . S
C1320 C1323 1.386 1_554 S
H1321 C1337 0.930 . S
H1322 C1338 0.931 . S
C1323 H1311 0.929 . S
C1323 C1317 1.390 . S
C1323 C1320 1.386 1_556 S
C1324 C1319 1.490 . S
C1324 C1326 1.395 . S
C1324 C1327 1.403 . S
H1325 C1331 0.930 . S
C1326 H1312 0.930 . S
C1326 C1324 1.395 . S
C1326 C1329 1.403 . S
C1327 C1324 1.403 . S
C1327 C1328 1.524 . S
C1327 C1331 1.400 . S
C1328 H1313 0.960 . S
C1328 H1314 0.960 . S
C1328 H1315 0.960 . S
C1328 C1327 1.524 . S
C1329 C1326 1.403 . S
C1329 C1330 1.392 . S
C1329 C1333 1.495 . S
C1330 C1329 1.392 . S
C1330 C1331 1.385 . S
C1330 C1332 1.478 . S
C1331 H1325 0.930 . S
C1331 C1327 1.400 . S
C1331 C1330 1.385 . S
C1332 C1330 1.478 . S
C1332 C1334 1.381 . S
C1332 C1338 1.383 . S
C1333 C1329 1.495 . S
C1333 H1339 0.959 . S
C1333 H1340 0.961 . S
C1333 H1341 0.960 . S
C1334 C1332 1.381 . S
C1334 C1335 1.394 . S
C1334 H1342 0.930 . S
C1335 C1334 1.394 . S
C1335 C1336 1.383 . S
C1335 H1343 0.929 . S
C1336 C1335 1.383 . S
C1336 C1337 1.377 . S
C1337 H1321 0.930 . S
C1337 C1336 1.377 . S
C1337 C1338 1.379 . S
C1338 H1322 0.931 . S
C1338 C1332 1.383 . S
C1338 C1337 1.379 . S
H1339 C1333 0.959 . S
H1340 C1333 0.961 . S
H1341 C1333 0.960 . S
H1342 C1334 0.930 . S
H1343 C1335 0.929 . S
H1344 C1352 0.929 . S
H1345 C1354 0.930 . S
H1346 C1356 0.930 . S
H1347 C1359 0.929 . S
H1348 C1362 0.930 . S
H1349 C1364 0.960 . S
H1350 C1364 0.960 . S
H1351 C1364 0.960 . S
C1352 H1344 0.929 . S
C1352 C1353 1.377 . S
C1352 C1354 1.384 . S
C1353 C1352 1.377 . S
C1353 C1359 1.390 . S
C1354 H1345 0.930 . S
C1354 C1352 1.384 . S
C1354 C1355 1.372 . S
C1355 C1354 1.372 . S
C1355 C1356 1.400 . S
C1355 C1360 1.490 . S
C1356 H1346 0.930 . S
C1356 C1355 1.400 . S
C1356 C1359 1.386 . S
H1357 C1373 0.930 . S
H1358 C1374 0.931 . S
C1359 H1347 0.929 . S
C1359 C1353 1.390 . S
C1359 C1356 1.386 . S
C1360 C1355 1.490 . S
C1360 C1362 1.395 . S
C1360 C1363 1.403 . S
H1361 C1367 0.930 . S
C1362 H1348 0.930 . S
C1362 C1360 1.395 . S
C1362 C1365 1.403 . S
C1363 C1360 1.403 . S
C1363 C1364 1.524 . S
C1363 C1367 1.400 . S
C1364 H1349 0.960 . S
C1364 H1350 0.960 . S
C1364 H1351 0.960 . S
C1364 C1363 1.524 . S
C1365 C1362 1.403 . S
C1365 C1366 1.392 . S
C1365 C1369 1.495 . S
C1366 C1365 1.392 . S
C1366 C1367 1.385 . S
C1366 C1368 1.478 . S
C1367 H1361 0.930 . S
C1367 C1363 1.400 . S
C1367 C1366 1.385 . S
C1368 C1366 1.478 . S
C1368 C1370 1.381 . S
C1368 C1374 1.383 . S
C1369 C1365 1.495 . S
C1369 H1375 0.959 . S
C1369 H1376 0.961 . S
C1369 H1377 0.960 . S
C1370 C1368 1.381 . S
C1370 C1371 1.394 . S
C1370 H1378 0.930 . S
C1371 C1370 1.394 . S
C1371 C1372 1.383 . S
C1371 H1379 0.929 . S
C1372 C1371 1.383 . S
C1372 C1373 1.377 . S
C1373 H1357 0.930 . S
C1373 C1372 1.377 . S
C1373 C1374 1.379 . S
C1374 H1358 0.931 . S
C1374 C1368 1.383 . S
C1374 C1373 1.379 . S
H1375 C1369 0.959 . S
H1376 C1369 0.961 . S
H1377 C1369 0.960 . S
H1378 C1370 0.930 . S
H1379 C1371 0.929 . S
H1380 C1388 0.929 . S
H1381 C1390 0.930 . S
H1382 C1392 0.930 . S
H1383 C1395 0.929 . S
H1384 C1398 0.930 . S
H1385 C1400 0.960 . S
H1386 C1400 0.960 . S
H1387 C1400 0.960 . S
C1388 H1380 0.929 . S
C1388 C1389 1.377 . S
C1388 C1390 1.384 1_556 S
C1389 C1388 1.377 . S
C1389 C1395 1.390 . S
C1390 H1381 0.930 . S
C1390 C1388 1.384 1_554 S
C1390 C1391 1.372 . S
C1391 C1390 1.372 . S
C1391 C1392 1.400 . S
C1391 C1396 1.490 . S
C1392 H1382 0.930 . S
C1392 C1391 1.400 . S
C1392 C1395 1.386 1_554 S
H1393 C1409 0.930 . S
H1394 C1410 0.931 . S
C1395 H1383 0.929 . S
C1395 C1389 1.390 . S
C1395 C1392 1.386 1_556 S
C1396 C1391 1.490 . S
C1396 C1398 1.395 . S
C1396 C1399 1.403 . S
H1397 C1403 0.930 . S
C1398 H1384 0.930 . S
C1398 C1396 1.395 . S
C1398 C1401 1.403 . S
C1399 C1396 1.403 . S
C1399 C1400 1.524 . S
C1399 C1403 1.400 . S
C1400 H1385 0.960 . S
C1400 H1386 0.960 . S
C1400 H1387 0.960 . S
C1400 C1399 1.524 . S
C1401 C1398 1.403 . S
C1401 C1402 1.392 . S
C1401 C1405 1.495 . S
C1402 C1401 1.392 . S
C1402 C1403 1.385 . S
C1402 C1404 1.478 . S
C1403 H1397 0.930 . S
C1403 C1399 1.400 . S
C1403 C1402 1.385 . S
C1404 C1402 1.478 . S
C1404 C1406 1.381 . S
C1404 C1410 1.383 . S
C1405 C1401 1.495 . S
C1405 H1411 0.959 . S
C1405 H1412 0.961 . S
C1405 H1413 0.960 . S
C1406 C1404 1.381 . S
C1406 C1407 1.394 . S
C1406 H1414 0.930 . S
C1407 C1406 1.394 . S
C1407 C1408 1.383 . S
C1407 H1415 0.929 . S
C1408 C1407 1.383 . S
C1408 C1409 1.377 . S
C1409 H1393 0.930 . S
C1409 C1408 1.377 . S
C1409 C1410 1.379 . S
C1410 H1394 0.931 . S
C1410 C1404 1.383 . S
C1410 C1409 1.379 . S
H1411 C1405 0.959 . S
H1412 C1405 0.961 . S
H1413 C1405 0.960 . S
H1414 C1406 0.930 . S
H1415 C1407 0.929 . S
H1416 C1424 0.929 . S
H1417 C1426 0.930 . S
H1418 C1428 0.930 . S
H1419 C1431 0.929 . S
H1420 C1434 0.930 . S
H1421 C1436 0.960 . S
H1422 C1436 0.960 . S
H1423 C1436 0.960 . S
C1424 H1416 0.929 . S
C1424 C1425 1.377 . S
C1424 C1426 1.384 . S
C1425 C1424 1.377 . S
C1425 C1431 1.390 . S
C1426 H1417 0.930 . S
C1426 C1424 1.384 . S
C1426 C1427 1.372 . S
C1427 C1426 1.372 . S
C1427 C1428 1.400 . S
C1427 C1432 1.490 . S
C1428 H1418 0.930 . S
C1428 C1427 1.400 . S
C1428 C1431 1.386 . S
H1429 C1445 0.930 . S
H1430 C1446 0.931 . S
C1431 H1419 0.929 . S
C1431 C1425 1.390 . S
C1431 C1428 1.386 . S
C1432 C1427 1.490 . S
C1432 C1434 1.395 . S
C1432 C1435 1.403 . S
H1433 C1439 0.930 1_554 S
C1434 H1420 0.930 . S
C1434 C1432 1.395 . S
C1434 C1437 1.403 . S
C1435 C1432 1.403 . S
C1435 C1436 1.524 . S
C1435 C1439 1.400 . S
C1436 H1421 0.960 . S
C1436 H1422 0.960 . S
C1436 H1423 0.960 . S
C1436 C1435 1.524 . S
C1437 C1434 1.403 . S
C1437 C1438 1.392 1_556 S
C1437 C1441 1.495 1_556 S
C1438 C1437 1.392 1_554 S
C1438 C1439 1.385 1_554 S
C1438 C1440 1.478 . S
C1439 H1433 0.930 1_556 S
C1439 C1435 1.400 . S
C1439 C1438 1.385 1_556 S
C1440 C1438 1.478 . S
C1440 C1442 1.381 . S
C1440 C1446 1.383 . S
C1441 C1437 1.495 1_554 S
C1441 H1447 0.959 1_554 S
C1441 H1448 0.961 . S
C1441 H1449 0.960 . S
C1442 C1440 1.381 . S
C1442 C1443 1.394 . S
C1442 H1450 0.930 . S
C1443 C1442 1.394 . S
C1443 C1444 1.383 . S
C1443 H1451 0.929 . S
C1444 C1443 1.383 . S
C1444 C1445 1.377 . S
C1445 H1429 0.930 . S
C1445 C1444 1.377 . S
C1445 C1446 1.379 . S
C1446 H1430 0.931 . S
C1446 C1440 1.383 . S
C1446 C1445 1.379 . S
H1447 C1441 0.959 1_556 S
H1448 C1441 0.961 . S
H1449 C1441 0.960 . S
H1450 C1442 0.930 . S
H1451 C1443 0.929 . S
H1452 C1460 0.929 . S
H1453 C1462 0.930 . S
H1454 C1464 0.930 . S
H1455 C1467 0.929 . S
H1456 C1470 0.930 . S
H1457 C1472 0.960 . S
H1458 C1472 0.960 . S
H1459 C1472 0.960 . S
C1460 H1452 0.929 . S
C1460 C1461 1.377 . S
C1460 C1462 1.384 . S
C1461 C1460 1.377 . S
C1461 C1467 1.390 . S
C1462 H1453 0.930 . S
C1462 C1460 1.384 . S
C1462 C1463 1.372 . S
C1463 C1462 1.372 . S
C1463 C1464 1.400 . S
C1463 C1468 1.490 . S
C1464 H1454 0.930 . S
C1464 C1463 1.400 . S
C1464 C1467 1.386 . S
H1465 C1481 0.930 . S
H1466 C1482 0.931 . S
C1467 H1455 0.929 . S
C1467 C1461 1.390 . S
C1467 C1464 1.386 . S
C1468 C1463 1.490 . S
C1468 C1470 1.395 . S
C1468 C1471 1.403 . S
H1469 C1475 0.930 . S
C1470 H1456 0.930 . S
C1470 C1468 1.395 . S
C1470 C1473 1.403 . S
C1471 C1468 1.403 . S
C1471 C1472 1.524 . S
C1471 C1475 1.400 . S
C1472 H1457 0.960 . S
C1472 H1458 0.960 . S
C1472 H1459 0.960 . S
C1472 C1471 1.524 . S
C1473 C1470 1.403 . S
C1473 C1474 1.392 . S
C1473 C1477 1.495 . S
C1474 C1473 1.392 . S
C1474 C1475 1.385 . S
C1474 C1476 1.478 . S
C1475 H1469 0.930 . S
C1475 C1471 1.400 . S
C1475 C1474 1.385 . S
C1476 C1474 1.478 . S
C1476 C1478 1.381 . S
C1476 C1482 1.383 . S
C1477 C1473 1.495 . S
C1477 H1483 0.959 . S
C1477 H1484 0.961 . S
C1477 H1485 0.960 . S
C1478 C1476 1.381 . S
C1478 C1479 1.394 . S
C1478 H1486 0.930 . S
C1479 C1478 1.394 . S
C1479 C1480 1.383 . S
C1479 H1487 0.929 . S
C1480 C1479 1.383 . S
C1480 C1481 1.377 . S
C1481 H1465 0.930 . S
C1481 C1480 1.377 . S
C1481 C1482 1.379 . S
C1482 H1466 0.931 . S
C1482 C1476 1.383 . S
C1482 C1481 1.379 . S
H1483 C1477 0.959 . S
H1484 C1477 0.961 . S
H1485 C1477 0.960 . S
H1486 C1478 0.930 . S
H1487 C1479 0.929 . S
H1488 C1496 0.929 . S
H1489 C1498 0.930 . S
H1490 C1500 0.930 . S
H1491 C1503 0.929 . S
H1492 C1506 0.930 . S
H1493 C1508 0.960 . S
H1494 C1508 0.960 . S
H1495 C1508 0.960 . S
C1496 H1488 0.929 . S
C1496 C1497 1.377 . S
C1496 C1498 1.384 . S
C1497 C1496 1.377 . S
C1497 C1503 1.390 . S
C1498 H1489 0.930 . S
C1498 C1496 1.384 . S
C1498 C1499 1.372 . S
C1499 C1498 1.372 . S
C1499 C1500 1.400 . S
C1499 C1504 1.490 . S
C1500 H1490 0.930 . S
C1500 C1499 1.400 . S
C1500 C1503 1.386 . S
H1501 C1517 0.930 . S
H1502 C1518 0.931 . S
C1503 H1491 0.929 . S
C1503 C1497 1.390 . S
C1503 C1500 1.386 . S
C1504 C1499 1.490 . S
C1504 C1506 1.395 . S
C1504 C1507 1.403 . S
H1505 C1511 0.930 . S
C1506 H1492 0.930 . S
C1506 C1504 1.395 . S
C1506 C1509 1.403 . S
C1507 C1504 1.403 . S
C1507 C1508 1.524 . S
C1507 C1511 1.400 . S
C1508 H1493 0.960 . S
C1508 H1494 0.960 . S
C1508 H1495 0.960 . S
C1508 C1507 1.524 . S
C1509 C1506 1.403 . S
C1509 C1510 1.392 . S
C1509 C1513 1.495 . S
C1510 C1509 1.392 . S
C1510 C1511 1.385 . S
C1510 C1512 1.478 . S
C1511 H1505 0.930 . S
C1511 C1507 1.400 . S
C1511 C1510 1.385 . S
C1512 C1510 1.478 . S
C1512 C1514 1.381 . S
C1512 C1518 1.383 . S
C1513 C1509 1.495 . S
C1513 H1519 0.959 . S
C1513 H1520 0.961 . S
C1513 H1521 0.960 . S
C1514 C1512 1.381 . S
C1514 C1515 1.394 . S
C1514 H1522 0.930 . S
C1515 C1514 1.394 . S
C1515 C1516 1.383 . S
C1515 H1523 0.929 . S
C1516 C1515 1.383 . S
C1516 C1517 1.377 . S
C1517 H1501 0.930 . S
C1517 C1516 1.377 . S
C1517 C1518 1.379 . S
C1518 H1502 0.931 . S
C1518 C1512 1.383 . S
C1518 C1517 1.379 . S
H1519 C1513 0.959 . S
H1520 C1513 0.961 . S
H1521 C1513 0.960 . S
H1522 C1514 0.930 . S
H1523 C1515 0.929 . S
H1524 C1532 0.929 . S
H1525 C1534 0.930 . S
H1526 C1536 0.930 . S
H1527 C1539 0.929 . S
H1528 C1542 0.930 . S
H1529 C1544 0.960 . S
H1530 C1544 0.960 . S
H1531 C1544 0.960 . S
C1532 H1524 0.929 . S
C1532 C1533 1.377 . S
C1532 C1534 1.384 . S
C1533 C1532 1.377 . S
C1533 C1539 1.390 . S
C1534 H1525 0.930 . S
C1534 C1532 1.384 . S
C1534 C1535 1.372 . S
C1535 C1534 1.372 . S
C1535 C1536 1.400 . S
C1535 C1540 1.490 . S
C1536 H1526 0.930 . S
C1536 C1535 1.400 . S
C1536 C1539 1.386 . S
H1537 C1553 0.930 . S
H1538 C1554 0.931 . S
C1539 H1527 0.929 . S
C1539 C1533 1.390 . S
C1539 C1536 1.386 . S
C1540 C1535 1.490 . S
C1540 C1542 1.395 . S
C1540 C1543 1.403 . S
H1541 C1547 0.930 . S
C1542 H1528 0.930 . S
C1542 C1540 1.395 . S
C1542 C1545 1.403 . S
C1543 C1540 1.403 . S
C1543 C1544 1.524 . S
C1543 C1547 1.400 . S
C1544 H1529 0.960 . S
C1544 H1530 0.960 . S
C1544 H1531 0.960 . S
C1544 C1543 1.524 . S
C1545 C1542 1.403 . S
C1545 C1546 1.392 . S
C1545 C1549 1.495 . S
C1546 C1545 1.392 . S
C1546 C1547 1.385 . S
C1546 C1548 1.478 . S
C1547 H1541 0.930 . S
C1547 C1543 1.400 . S
C1547 C1546 1.385 . S
C1548 C1546 1.478 . S
C1548 C1550 1.381 . S
C1548 C1554 1.383 . S
C1549 C1545 1.495 . S
C1549 H1555 0.959 . S
C1549 H1556 0.961 . S
C1549 H1557 0.960 . S
C1550 C1548 1.381 . S
C1550 C1551 1.394 . S
C1550 H1558 0.930 . S
C1551 C1550 1.394 . S
C1551 C1552 1.383 . S
C1551 H1559 0.929 . S
C1552 C1551 1.383 . S
C1552 C1553 1.377 . S
C1553 H1537 0.930 . S
C1553 C1552 1.377 . S
C1553 C1554 1.379 . S
C1554 H1538 0.931 . S
C1554 C1548 1.383 . S
C1554 C1553 1.379 . S
H1555 C1549 0.959 . S
H1556 C1549 0.961 . S
H1557 C1549 0.960 . S
H1558 C1550 0.930 . S
H1559 C1551 0.929 . S
H1560 C1568 0.929 . S
H1561 C1570 0.930 . S
H1562 C1572 0.930 . S
H1563 C1575 0.929 . S
H1564 C1578 0.930 1_556 S
H1565 C1580 0.945 1_554 S
H1566 C1580 0.971 . S
H1567 C1580 0.972 . S
C1568 H1560 0.929 . S
C1568 C1569 1.377 . S
C1568 C1570 1.384 . S
C1569 C1568 1.377 . S
C1569 C1575 1.390 . S
C1570 H1561 0.930 . S
C1570 C1568 1.384 . S
C1570 C1571 1.372 . S
C1571 C1570 1.372 . S
C1571 C1572 1.400 . S
C1571 C1576 1.490 . S
C1572 H1562 0.930 . S
C1572 C1571 1.400 . S
C1572 C1575 1.386 . S
H1573 C1589 0.930 . S
H1574 C1590 0.931 . S
C1575 H1563 0.929 . S
C1575 C1569 1.390 . S
C1575 C1572 1.386 . S
C1576 C1571 1.490 . S
C1576 C1578 1.395 1_556 S
C1576 C1579 1.403 1_556 S
H1577 C1583 0.930 . S
C1578 H1564 0.930 1_554 S
C1578 C1576 1.395 1_554 S
C1578 C1581 1.403 . S
C1579 C1576 1.403 1_554 S
C1579 C1580 1.516 1_554 S
C1579 C1583 1.400 . S
C1580 H1565 0.945 1_556 S
C1580 H1566 0.971 . S
C1580 H1567 0.972 . S
C1580 C1579 1.516 1_556 S
C1581 C1578 1.403 . S
C1581 C1582 1.392 . S
C1581 C1585 1.495 . S
C1582 C1581 1.392 . S
C1582 C1583 1.385 . S
C1582 C1584 1.478 . S
C1583 H1577 0.930 . S
C1583 C1579 1.400 . S
C1583 C1582 1.385 . S
C1584 C1582 1.478 . S
C1584 C1586 1.381 . S
C1584 C1590 1.383 . S
C1585 C1581 1.495 . S
C1585 H1591 0.959 . S
C1585 H1592 0.961 . S
C1585 H1593 0.960 . S
C1586 C1584 1.381 . S
C1586 C1587 1.394 . S
C1586 H1594 0.930 . S
C1587 C1586 1.394 . S
C1587 C1588 1.383 . S
C1587 H1595 0.929 . S
C1588 C1587 1.383 . S
C1588 C1589 1.377 . S
C1589 H1573 0.930 . S
C1589 C1588 1.377 . S
C1589 C1590 1.379 . S
C1590 H1574 0.931 . S
C1590 C1584 1.383 . S
C1590 C1589 1.379 . S
H1591 C1585 0.959 . S
H1592 C1585 0.961 . S
H1593 C1585 0.960 . S
H1594 C1586 0.930 . S
H1595 C1587 0.929 . S
H1596 C1604 0.929 . S
H1597 C1606 0.930 . S
H1598 C1608 0.930 . S
H1599 C1611 0.929 . S
H1600 C1614 0.930 . S
H1601 C1616 0.960 . S
H1602 C1616 0.960 . S
H1603 C1616 0.960 . S
C1604 H1596 0.929 . S
C1604 C1605 1.377 . S
C1604 C1606 1.384 1_554 S
C1605 C1604 1.377 . S
C1605 C1611 1.390 . S
C1606 H1597 0.930 . S
C1606 C1604 1.384 1_556 S
C1606 C1607 1.372 . S
C1607 C1606 1.372 . S
C1607 C1608 1.400 . S
C1607 C1612 1.490 . S
C1608 H1598 0.930 . S
C1608 C1607 1.400 . S
C1608 C1611 1.386 1_556 S
H1609 C1625 0.930 . S
H1610 C1626 0.931 . S
C1611 H1599 0.929 . S
C1611 C1605 1.390 . S
C1611 C1608 1.386 1_554 S
C1612 C1607 1.490 . S
C1612 C1614 1.395 . S
C1612 C1615 1.403 . S
H1613 C1619 0.930 . S
C1614 H1600 0.930 . S
C1614 C1612 1.395 . S
C1614 C1617 1.403 . S
C1615 C1612 1.403 . S
C1615 C1616 1.524 . S
C1615 C1619 1.400 . S
C1616 H1601 0.960 . S
C1616 H1602 0.960 . S
C1616 H1603 0.960 . S
C1616 C1615 1.524 . S
C1617 C1614 1.403 . S
C1617 C1618 1.392 . S
C1617 C1621 1.495 . S
C1618 C1617 1.392 . S
C1618 C1619 1.385 . S
C1618 C1620 1.478 . S
C1619 H1613 0.930 . S
C1619 C1615 1.400 . S
C1619 C1618 1.385 . S
C1620 C1618 1.478 . S
C1620 C1622 1.381 . S
C1620 C1626 1.383 . S
C1621 C1617 1.495 . S
C1621 H1627 0.959 . S
C1621 H1628 0.961 . S
C1621 H1629 0.960 . S
C1622 C1620 1.381 . S
C1622 C1623 1.394 . S
C1622 H1630 0.930 . S
C1623 C1622 1.394 . S
C1623 C1624 1.383 . S
C1623 H1631 0.929 . S
C1624 C1623 1.383 . S
C1624 C1625 1.377 . S
C1625 H1609 0.930 . S
C1625 C1624 1.377 . S
C1625 C1626 1.379 . S
C1626 H1610 0.931 . S
C1626 C1620 1.383 . S
C1626 C1625 1.379 . S
H1627 C1621 0.959 . S
H1628 C1621 0.961 . S
H1629 C1621 0.960 . S
H1630 C1622 0.930 . S
H1631 C1623 0.929 . S
H1632 C1640 0.929 . S
H1633 C1642 0.930 . S
H1634 C1644 0.930 . S
H1635 C1647 0.929 . S
H1636 C1650 0.930 1_556 S
H1637 C1652 0.960 1_554 S
H1638 C1652 0.960 . S
H1639 C1652 0.960 . S
C1640 H1632 0.929 . S
C1640 C1641 1.377 . S
C1640 C1642 1.384 . S
C1641 C1640 1.377 . S
C1641 C1647 1.390 . S
C1642 H1633 0.930 . S
C1642 C1640 1.384 . S
C1642 C1643 1.372 . S
C1643 C1642 1.372 . S
C1643 C1644 1.400 . S
C1643 C1648 1.490 . S
C1644 H1634 0.930 . S
C1644 C1643 1.400 . S
C1644 C1647 1.386 . S
H1645 C1661 0.930 . S
H1646 C1662 0.931 . S
C1647 H1635 0.929 . S
C1647 C1641 1.390 . S
C1647 C1644 1.386 . S
C1648 C1643 1.490 . S
C1648 C1650 1.395 1_556 S
C1648 C1651 1.403 1_556 S
H1649 C1655 0.930 . S
C1650 H1636 0.930 1_554 S
C1650 C1648 1.395 1_554 S
C1650 C1653 1.403 . S
C1651 C1648 1.403 1_554 S
C1651 C1652 1.524 1_554 S
C1651 C1655 1.400 . S
C1652 H1637 0.960 1_556 S
C1652 H1638 0.960 . S
C1652 H1639 0.960 . S
C1652 C1651 1.524 1_556 S
C1653 C1650 1.403 . S
C1653 C1654 1.392 . S
C1653 C1657 1.495 . S
C1654 C1653 1.392 . S
C1654 C1655 1.385 . S
C1654 C1656 1.478 . S
C1655 H1649 0.930 . S
C1655 C1651 1.400 . S
C1655 C1654 1.385 . S
C1656 C1654 1.478 . S
C1656 C1658 1.381 . S
C1656 C1662 1.383 . S
C1657 C1653 1.495 . S
C1657 H1663 0.959 . S
C1657 H1664 0.961 . S
C1657 H1665 0.960 . S
C1658 C1656 1.381 . S
C1658 C1659 1.394 . S
C1658 H1666 0.930 . S
C1659 C1658 1.394 . S
C1659 C1660 1.383 . S
C1659 H1667 0.929 . S
C1660 C1659 1.383 . S
C1660 C1661 1.377 . S
C1661 H1645 0.930 . S
C1661 C1660 1.377 . S
C1661 C1662 1.379 . S
C1662 H1646 0.931 . S
C1662 C1656 1.383 . S
C1662 C1661 1.379 . S
H1663 C1657 0.959 . S
H1664 C1657 0.961 . S
H1665 C1657 0.960 . S
H1666 C1658 0.930 . S
H1667 C1659 0.929 . S
H1668 C1676 0.929 . S
H1669 C1678 0.930 . S
H1670 C1680 0.930 . S
H1671 C1683 0.929 . S
H1672 C1686 0.930 . S
H1673 C1688 0.960 . S
H1674 C1688 0.960 . S
H1675 C1688 0.960 . S
C1676 H1668 0.929 . S
C1676 C1677 1.377 . S
C1676 C1678 1.384 . S
C1677 C1676 1.377 . S
C1677 C1683 1.390 . S
C1678 H1669 0.930 . S
C1678 C1676 1.384 . S
C1678 C1679 1.372 . S
C1679 C1678 1.372 . S
C1679 C1680 1.400 . S
C1679 C1684 1.490 . S
C1680 H1670 0.930 . S
C1680 C1679 1.400 . S
C1680 C1683 1.386 . S
H1681 C1697 0.930 . S
H1682 C1698 0.931 . S
C1683 H1671 0.929 . S
C1683 C1677 1.390 . S
C1683 C1680 1.386 . S
C1684 C1679 1.490 . S
C1684 C1686 1.395 . S
C1684 C1687 1.403 . S
H1685 C1691 0.930 . S
C1686 H1672 0.930 . S
C1686 C1684 1.395 . S
C1686 C1689 1.403 . S
C1687 C1684 1.403 . S
C1687 C1688 1.524 . S
C1687 C1691 1.400 . S
C1688 H1673 0.960 . S
C1688 H1674 0.960 . S
C1688 H1675 0.960 . S
C1688 C1687 1.524 . S
C1689 C1686 1.403 . S
C1689 C1690 1.392 . S
C1689 C1693 1.495 . S
C1690 C1689 1.392 . S
C1690 C1691 1.385 . S
C1690 C1692 1.478 . S
C1691 H1685 0.930 . S
C1691 C1687 1.400 . S
C1691 C1690 1.385 . S
C1692 C1690 1.478 . S
C1692 C1694 1.381 . S
C1692 C1698 1.383 . S
C1693 C1689 1.495 . S
C1693 H1699 0.959 . S
C1693 H1700 0.961 . S
C1693 H1701 0.960 . S
C1694 C1692 1.381 . S
C1694 C1695 1.394 . S
C1694 H1702 0.930 . S
C1695 C1694 1.394 . S
C1695 C1696 1.383 . S
C1695 H1703 0.929 . S
C1696 C1695 1.383 . S
C1696 C1697 1.377 . S
C1697 H1681 0.930 . S
C1697 C1696 1.377 . S
C1697 C1698 1.379 . S
C1698 H1682 0.931 . S
C1698 C1692 1.383 . S
C1698 C1697 1.379 . S
H1699 C1693 0.959 . S
H1700 C1693 0.961 . S
H1701 C1693 0.960 . S
H1702 C1694 0.930 . S
H1703 C1695 0.929 . S
H1704 C1712 0.929 . S
H1705 C1714 0.930 . S
H1706 C1716 0.930 . S
H1707 C1719 0.929 . S
H1708 C1722 0.930 . S
H1709 C1724 0.960 . S
H1710 C1724 0.960 . S
H1711 C1724 0.960 . S
C1712 H1704 0.929 . S
C1712 C1713 1.377 . S
C1712 C1714 1.384 . S
C1713 C1712 1.377 . S
C1713 C1719 1.390 . S
C1714 H1705 0.930 . S
C1714 C1712 1.384 . S
C1714 C1715 1.372 . S
C1715 C1714 1.372 . S
C1715 C1716 1.400 . S
C1715 C1720 1.490 . S
C1716 H1706 0.930 . S
C1716 C1715 1.400 . S
C1716 C1719 1.386 . S
H1717 C1733 0.930 . S
H1718 C1734 0.931 . S
C1719 H1707 0.929 . S
C1719 C1713 1.390 . S
C1719 C1716 1.386 . S
C1720 C1715 1.490 . S
C1720 C1722 1.395 . S
C1720 C1723 1.403 . S
H1721 C1727 0.930 . S
C1722 H1708 0.930 . S
C1722 C1720 1.395 . S
C1722 C1725 1.403 . S
C1723 C1720 1.403 . S
C1723 C1724 1.524 . S
C1723 C1727 1.400 . S
C1724 H1709 0.960 . S
C1724 H1710 0.960 . S
C1724 H1711 0.960 . S
C1724 C1723 1.524 . S
C1725 C1722 1.403 . S
C1725 C1726 1.392 . S
C1725 C1729 1.495 . S
C1726 C1725 1.392 . S
C1726 C1727 1.385 . S
C1726 C1728 1.478 . S
C1727 H1721 0.930 . S
C1727 C1723 1.400 . S
C1727 C1726 1.385 . S
C1728 C1726 1.478 . S
C1728 C1730 1.381 . S
C1728 C1734 1.383 . S
C1729 C1725 1.495 . S
C1729 H1735 0.959 . S
C1729 H1736 0.961 . S
C1729 H1737 0.960 . S
C1730 C1728 1.381 . S
C1730 C1731 1.394 . S
C1730 H1738 0.930 . S
C1731 C1730 1.394 . S
C1731 C1732 1.383 . S
C1731 H1739 0.929 . S
C1732 C1731 1.383 . S
C1732 C1733 1.377 . S
C1733 H1717 0.930 . S
C1733 C1732 1.377 . S
C1733 C1734 1.379 . S
C1734 H1718 0.931 . S
C1734 C1728 1.383 . S
C1734 C1733 1.379 . S
H1735 C1729 0.959 . S
H1736 C1729 0.961 . S
H1737 C1729 0.960 . S
H1738 C1730 0.930 . S
H1739 C1731 0.929 . S
H1740 C1748 0.929 . S
H1741 C1750 0.930 . S
H1742 C1752 0.930 . S
H1743 C1755 0.929 . S
H1744 C1758 0.930 . S
H1745 C1760 0.960 . S
H1746 C1760 0.960 . S
H1747 C1760 0.960 . S
C1748 H1740 0.929 . S
C1748 C1749 1.377 . S
C1748 C1750 1.384 . S
C1749 C1748 1.377 . S
C1749 C1755 1.390 . S
C1750 H1741 0.930 . S
C1750 C1748 1.384 . S
C1750 C1751 1.372 . S
C1751 C1750 1.372 . S
C1751 C1752 1.400 . S
C1751 C1756 1.490 . S
C1752 H1742 0.930 . S
C1752 C1751 1.400 . S
C1752 C1755 1.386 . S
H1753 C1769 0.930 . S
H1754 C1770 0.931 . S
C1755 H1743 0.929 . S
C1755 C1749 1.390 . S
C1755 C1752 1.386 . S
C1756 C1751 1.490 . S
C1756 C1758 1.395 . S
C1756 C1759 1.403 . S
H1757 C1763 0.930 . S
C1758 H1744 0.930 . S
C1758 C1756 1.395 . S
C1758 C1761 1.403 . S
C1759 C1756 1.403 . S
C1759 C1760 1.524 . S
C1759 C1763 1.400 . S
C1760 H1745 0.960 . S
C1760 H1746 0.960 . S
C1760 H1747 0.960 . S
C1760 C1759 1.524 . S
C1761 C1758 1.403 . S
C1761 C1762 1.392 . S
C1761 C1765 1.495 . S
C1762 C1761 1.392 . S
C1762 C1763 1.385 . S
C1762 C1764 1.478 . S
C1763 H1757 0.930 . S
C1763 C1759 1.400 . S
C1763 C1762 1.385 . S
C1764 C1762 1.478 . S
C1764 C1766 1.381 . S
C1764 C1770 1.383 . S
C1765 C1761 1.495 . S
C1765 H1771 0.959 . S
C1765 H1772 0.961 . S
C1765 H1773 0.960 . S
C1766 C1764 1.381 . S
C1766 C1767 1.394 1_556 S
C1766 H1774 0.930 . S
C1767 C1766 1.394 1_554 S
C1767 C1768 1.383 . S
C1767 H1775 0.929 . S
C1768 C1767 1.383 . S
C1768 C1769 1.377 . S
C1769 H1753 0.930 . S
C1769 C1768 1.377 . S
C1769 C1770 1.379 1_554 S
C1770 H1754 0.931 . S
C1770 C1764 1.383 . S
C1770 C1769 1.379 1_556 S
H1771 C1765 0.959 . S
H1772 C1765 0.961 . S
H1773 C1765 0.960 . S
H1774 C1766 0.930 . S
H1775 C1767 0.929 . S
H1776 C1784 0.929 . S
H1777 C1786 0.930 . S
H1778 C1788 0.930 . S
H1779 C1791 0.929 . S
H1780 C1794 0.930 1_554 S
H1781 C1796 0.960 1_556 S
H1782 C1796 0.960 . S
H1783 C1796 0.960 . S
C1784 H1776 0.929 . S
C1784 C1785 1.377 . S
C1784 C1786 1.384 . S
C1785 C1784 1.377 . S
C1785 C1791 1.390 . S
C1786 H1777 0.930 . S
C1786 C1784 1.384 . S
C1786 C1787 1.372 . S
C1787 C1786 1.372 . S
C1787 C1788 1.400 . S
C1787 C1792 1.490 . S
C1788 H1778 0.930 . S
C1788 C1787 1.400 . S
C1788 C1791 1.386 . S
H1789 C1805 0.930 . S
H1790 C1806 0.931 . S
C1791 H1779 0.929 . S
C1791 C1785 1.390 . S
C1791 C1788 1.386 . S
C1792 C1787 1.490 . S
C1792 C1794 1.395 1_554 S
C1792 C1795 1.403 1_554 S
H1793 C1799 0.930 . S
C1794 H1780 0.930 1_556 S
C1794 C1792 1.395 1_556 S
C1794 C1797 1.403 . S
C1795 C1792 1.403 1_556 S
C1795 C1796 1.524 1_556 S
C1795 C1799 1.400 . S
C1796 H1781 0.960 1_554 S
C1796 H1782 0.960 . S
C1796 H1783 0.960 . S
C1796 C1795 1.524 1_554 S
C1797 C1794 1.403 . S
C1797 C1798 1.392 . S
C1797 C1801 1.495 . S
C1798 C1797 1.392 . S
C1798 C1799 1.385 . S
C1798 C1800 1.478 . S
C1799 H1793 0.930 . S
C1799 C1795 1.400 . S
C1799 C1798 1.385 . S
C1800 C1798 1.478 . S
C1800 C1802 1.381 . S
C1800 C1806 1.383 . S
C1801 C1797 1.495 . S
C1801 H1807 0.959 . S
C1801 H1808 0.961 . S
C1801 H1809 0.960 . S
C1802 C1800 1.381 . S
C1802 C1803 1.394 . S
C1802 H1810 0.930 . S
C1803 C1802 1.394 . S
C1803 C1804 1.383 . S
C1803 H1811 0.929 . S
C1804 C1803 1.383 . S
C1804 C1805 1.377 . S
C1805 H1789 0.930 . S
C1805 C1804 1.377 . S
C1805 C1806 1.379 . S
C1806 H1790 0.931 . S
C1806 C1800 1.383 . S
C1806 C1805 1.379 . S
H1807 C1801 0.959 . S
H1808 C1801 0.961 . S
H1809 C1801 0.960 . S
H1810 C1802 0.930 . S
H1811 C1803 0.929 . S
H1812 C1820 0.929 . S
H1813 C1822 0.930 . S
H1814 C1824 0.930 . S
H1815 C1827 0.929 . S
H1816 C1830 0.930 . S
H1817 C1832 0.960 . S
H1818 C1832 0.960 . S
H1819 C1832 0.960 . S
C1820 H1812 0.929 . S
C1820 C1821 1.377 . S
C1820 C1822 1.384 . S
C1821 C1820 1.377 . S
C1821 C1827 1.390 . S
C1822 H1813 0.930 . S
C1822 C1820 1.384 . S
C1822 C1823 1.372 . S
C1823 C1822 1.372 . S
C1823 C1824 1.400 . S
C1823 C1828 1.490 . S
C1824 H1814 0.930 . S
C1824 C1823 1.400 . S
C1824 C1827 1.386 . S
H1825 C1841 0.930 . S
H1826 C1842 0.931 . S
C1827 H1815 0.929 . S
C1827 C1821 1.390 . S
C1827 C1824 1.386 . S
C1828 C1823 1.490 . S
C1828 C1830 1.395 . S
C1828 C1831 1.403 . S
H1829 C1835 0.930 . S
C1830 H1816 0.930 . S
C1830 C1828 1.395 . S
C1830 C1833 1.403 . S
C1831 C1828 1.403 . S
C1831 C1832 1.524 . S
C1831 C1835 1.400 . S
C1832 H1817 0.960 . S
C1832 H1818 0.960 . S
C1832 H1819 0.960 . S
C1832 C1831 1.524 . S
C1833 C1830 1.403 . S
C1833 C1834 1.392 . S
C1833 C1837 1.495 . S
C1834 C1833 1.392 . S
C1834 C1835 1.385 . S
C1834 C1836 1.478 . S
C1835 H1829 0.930 . S
C1835 C1831 1.400 . S
C1835 C1834 1.385 . S
C1836 C1834 1.478 . S
C1836 C1838 1.381 . S
C1836 C1842 1.383 . S
C1837 C1833 1.495 . S
C1837 H1843 0.959 . S
C1837 H1844 0.961 . S
C1837 H1845 0.960 . S
C1838 C1836 1.381 . S
C1838 C1839 1.394 1_554 S
C1838 H1846 0.930 . S
C1839 C1838 1.394 1_556 S
C1839 C1840 1.383 . S
C1839 H1847 0.929 . S
C1840 C1839 1.383 . S
C1840 C1841 1.377 . S
C1841 H1825 0.930 . S
C1841 C1840 1.377 . S
C1841 C1842 1.379 1_556 S
C1842 H1826 0.931 . S
C1842 C1836 1.383 . S
C1842 C1841 1.379 1_554 S
H1843 C1837 0.959 . S
H1844 C1837 0.961 . S
H1845 C1837 0.960 . S
H1846 C1838 0.930 . S
H1847 C1839 0.929 . S
H1848 C1856 0.929 . S
H1849 C1858 0.930 . S
H1850 C1860 0.930 . S
H1851 C1863 0.929 . S
H1852 C1866 0.930 . S
H1853 C1868 0.960 . S
H1854 C1868 0.960 . S
H1855 C1868 0.960 . S
C1856 H1848 0.929 . S
C1856 C1857 1.377 . S
C1856 C1858 1.384 . S
C1857 C1856 1.377 . S
C1857 C1863 1.390 . S
C1858 H1849 0.930 . S
C1858 C1856 1.384 . S
C1858 C1859 1.372 . S
C1859 C1858 1.372 . S
C1859 C1860 1.400 . S
C1859 C1864 1.490 . S
C1860 H1850 0.930 . S
C1860 C1859 1.400 . S
C1860 C1863 1.386 . S
H1861 C1877 0.930 . S
H1862 C1878 0.931 . S
C1863 H1851 0.929 . S
C1863 C1857 1.390 . S
C1863 C1860 1.386 . S
C1864 C1859 1.490 . S
C1864 C1866 1.395 . S
C1864 C1867 1.403 . S
H1865 C1871 0.930 . S
C1866 H1852 0.930 . S
C1866 C1864 1.395 . S
C1866 C1869 1.403 . S
C1867 C1864 1.403 . S
C1867 C1868 1.524 . S
C1867 C1871 1.400 . S
C1868 H1853 0.960 . S
C1868 H1854 0.960 . S
C1868 H1855 0.960 . S
C1868 C1867 1.524 . S
C1869 C1866 1.403 . S
C1869 C1870 1.392 . S
C1869 C1873 1.495 . S
C1870 C1869 1.392 . S
C1870 C1871 1.385 . S
C1870 C1872 1.478 . S
C1871 H1865 0.930 . S
C1871 C1867 1.400 . S
C1871 C1870 1.385 . S
C1872 C1870 1.478 . S
C1872 C1874 1.381 . S
C1872 C1878 1.383 . S
C1873 C1869 1.495 . S
C1873 H1879 0.959 . S
C1873 H1880 0.961 . S
C1873 H1881 0.960 . S
C1874 C1872 1.381 . S
C1874 C1875 1.394 . S
C1874 H1882 0.930 . S
C1875 C1874 1.394 . S
C1875 C1876 1.383 . S
C1875 H1883 0.929 . S
C1876 C1875 1.383 . S
C1876 C1877 1.377 . S
C1877 H1861 0.930 . S
C1877 C1876 1.377 . S
C1877 C1878 1.379 . S
C1878 H1862 0.931 . S
C1878 C1872 1.383 . S
C1878 C1877 1.379 . S
H1879 C1873 0.959 . S
H1880 C1873 0.961 . S
H1881 C1873 0.960 . S
H1882 C1874 0.930 . S
H1883 C1875 0.929 . S
H1884 C1892 0.929 . S
H1885 C1894 0.930 . S
H1886 C1896 0.930 . S
H1887 C1899 0.929 . S
H1888 C1902 0.930 . S
H1889 C1904 0.960 . S
H1890 C1904 0.960 . S
H1891 C1904 0.960 . S
C1892 H1884 0.929 . S
C1892 C1893 1.377 . S
C1892 C1894 1.384 . S
C1893 C1892 1.377 . S
C1893 C1899 1.390 . S
C1894 H1885 0.930 . S
C1894 C1892 1.384 . S
C1894 C1895 1.372 . S
C1895 C1894 1.372 . S
C1895 C1896 1.400 . S
C1895 C1900 1.490 . S
C1896 H1886 0.930 . S
C1896 C1895 1.400 . S
C1896 C1899 1.386 . S
H1897 C1913 0.930 . S
H1898 C1914 0.931 . S
C1899 H1887 0.929 . S
C1899 C1893 1.390 . S
C1899 C1896 1.386 . S
C1900 C1895 1.490 . S
C1900 C1902 1.395 . S
C1900 C1903 1.403 . S
H1901 C1907 0.930 . S
C1902 H1888 0.930 . S
C1902 C1900 1.395 . S
C1902 C1905 1.403 . S
C1903 C1900 1.403 . S
C1903 C1904 1.524 . S
C1903 C1907 1.400 . S
C1904 H1889 0.960 . S
C1904 H1890 0.960 . S
C1904 H1891 0.960 . S
C1904 C1903 1.524 . S
C1905 C1902 1.403 . S
C1905 C1906 1.392 . S
C1905 C1909 1.495 . S
C1906 C1905 1.392 . S
C1906 C1907 1.385 . S
C1906 C1908 1.478 . S
C1907 H1901 0.930 . S
C1907 C1903 1.400 . S
C1907 C1906 1.385 . S
C1908 C1906 1.478 . S
C1908 C1910 1.381 . S
C1908 C1914 1.383 . S
C1909 C1905 1.495 . S
C1909 H1915 0.959 . S
C1909 H1916 0.961 . S
C1909 H1917 0.960 . S
C1910 C1908 1.381 . S
C1910 C1911 1.394 . S
C1910 H1918 0.930 . S
C1911 C1910 1.394 . S
C1911 C1912 1.383 . S
C1911 H1919 0.929 . S
C1912 C1911 1.383 . S
C1912 C1913 1.377 . S
C1913 H1897 0.930 . S
C1913 C1912 1.377 . S
C1913 C1914 1.379 . S
C1914 H1898 0.931 . S
C1914 C1908 1.383 . S
C1914 C1913 1.379 . S
H1915 C1909 0.959 . S
H1916 C1909 0.961 . S
H1917 C1909 0.960 . S
H1918 C1910 0.930 . S
H1919 C1911 0.929 . S
H1920 C1928 0.929 . S
H1921 C1930 0.930 . S
H1922 C1932 0.930 . S
H1923 C1935 0.929 . S
H1924 C1938 0.930 1_554 S
H1925 C1940 0.960 1_556 S
H1926 C1940 0.960 . S
H1927 C1940 0.960 . S
C1928 H1920 0.929 . S
C1928 C1929 1.377 . S
C1928 C1930 1.384 . S
C1929 C1928 1.377 . S
C1929 C1935 1.390 . S
C1930 H1921 0.930 . S
C1930 C1928 1.384 . S
C1930 C1931 1.372 . S
C1931 C1930 1.372 . S
C1931 C1932 1.400 . S
C1931 C1936 1.490 . S
C1932 H1922 0.930 . S
C1932 C1931 1.400 . S
C1932 C1935 1.386 . S
H1933 C1949 0.930 . S
H1934 C1950 0.931 . S
C1935 H1923 0.929 . S
C1935 C1929 1.390 . S
C1935 C1932 1.386 . S
C1936 C1931 1.490 . S
C1936 C1938 1.395 1_554 S
C1936 C1939 1.403 1_554 S
H1937 C1943 0.930 . S
C1938 H1924 0.930 1_556 S
C1938 C1936 1.395 1_556 S
C1938 C1941 1.403 . S
C1939 C1936 1.403 1_556 S
C1939 C1940 1.524 1_556 S
C1939 C1943 1.400 . S
C1940 H1925 0.960 1_554 S
C1940 H1926 0.960 . S
C1940 H1927 0.960 . S
C1940 C1939 1.524 1_554 S
C1941 C1938 1.403 . S
C1941 C1942 1.392 . S
C1941 C1945 1.495 . S
C1942 C1941 1.392 . S
C1942 C1943 1.385 . S
C1942 C1944 1.478 . S
C1943 H1937 0.930 . S
C1943 C1939 1.400 . S
C1943 C1942 1.385 . S
C1944 C1942 1.478 . S
C1944 C1946 1.381 . S
C1944 C1950 1.383 . S
C1945 C1941 1.495 . S
C1945 H1951 0.959 . S
C1945 H1952 0.961 . S
C1945 H1953 0.960 . S
C1946 C1944 1.381 . S
C1946 C1947 1.394 . S
C1946 H1954 0.930 . S
C1947 C1946 1.394 . S
C1947 C1948 1.383 . S
C1947 H1955 0.929 . S
C1948 C1947 1.383 . S
C1948 C1949 1.377 . S
C1949 H1933 0.930 . S
C1949 C1948 1.377 . S
C1949 C1950 1.379 . S
C1950 H1934 0.931 . S
C1950 C1944 1.383 . S
C1950 C1949 1.379 . S
H1951 C1945 0.959 . S
H1952 C1945 0.961 . S
H1953 C1945 0.960 . S
H1954 C1946 0.930 . S
H1955 C1947 0.929 . S
H1956 C1964 0.929 . S
H1957 C1966 0.930 . S
H1958 C1968 0.930 . S
H1959 C1971 0.929 . S
H1960 C1974 0.930 . S
H1961 C1976 0.960 . S
H1962 C1976 0.960 . S
H1963 C1976 0.960 . S
C1964 H1956 0.929 . S
C1964 C1965 1.377 . S
C1964 C1966 1.384 . S
C1965 C1964 1.377 . S
C1965 C1971 1.390 . S
C1966 H1957 0.930 . S
C1966 C1964 1.384 . S
C1966 C1967 1.372 . S
C1967 C1966 1.372 . S
C1967 C1968 1.400 . S
C1967 C1972 1.490 . S
C1968 H1958 0.930 . S
C1968 C1967 1.400 . S
C1968 C1971 1.386 . S
H1969 C1985 0.930 . S
H1970 C1986 0.931 . S
C1971 H1959 0.929 . S
C1971 C1965 1.390 . S
C1971 C1968 1.386 . S
C1972 C1967 1.490 . S
C1972 C1974 1.395 . S
C1972 C1975 1.403 . S
H1973 C1979 0.930 . S
C1974 H1960 0.930 . S
C1974 C1972 1.395 . S
C1974 C1977 1.403 . S
C1975 C1972 1.403 . S
C1975 C1976 1.524 . S
C1975 C1979 1.400 . S
C1976 H1961 0.960 . S
C1976 H1962 0.960 . S
C1976 H1963 0.960 . S
C1976 C1975 1.524 . S
C1977 C1974 1.403 . S
C1977 C1978 1.392 . S
C1977 C1981 1.495 . S
C1978 C1977 1.392 . S
C1978 C1979 1.385 . S
C1978 C1980 1.478 . S
C1979 H1973 0.930 . S
C1979 C1975 1.400 . S
C1979 C1978 1.385 . S
C1980 C1978 1.478 . S
C1980 C1982 1.381 . S
C1980 C1986 1.383 . S
C1981 C1977 1.495 . S
C1981 H1987 0.959 . S
C1981 H1988 0.961 . S
C1981 H1989 0.960 . S
C1982 C1980 1.381 . S
C1982 C1983 1.394 . S
C1982 H1990 0.930 . S
C1983 C1982 1.394 . S
C1983 C1984 1.383 . S
C1983 H1991 0.929 . S
C1984 C1983 1.383 . S
C1984 C1985 1.377 . S
C1985 H1969 0.930 . S
C1985 C1984 1.377 . S
C1985 C1986 1.379 . S
C1986 H1970 0.931 . S
C1986 C1980 1.383 . S
C1986 C1985 1.379 . S
H1987 C1981 0.959 . S
H1988 C1981 0.961 . S
H1989 C1981 0.960 . S
H1990 C1982 0.930 . S
H1991 C1983 0.929 . S
H1992 C2000 0.929 . S
H1993 C2002 0.930 . S
H1994 C2004 0.930 . S
H1995 C2007 0.929 . S
H1996 C2010 0.930 . S
H1997 C2012 0.960 . S
H1998 C2012 0.960 . S
H1999 C2012 0.960 . S
C2000 H1992 0.929 . S
C2000 C2001 1.377 . S
C2000 C2002 1.384 . S
C2001 C2000 1.377 . S
C2001 C2007 1.390 . S
C2002 H1993 0.930 . S
C2002 C2000 1.384 . S
C2002 C2003 1.372 . S
C2003 C2002 1.372 . S
C2003 C2004 1.400 . S
C2003 C2008 1.490 . S
C2004 H1994 0.930 . S
C2004 C2003 1.400 . S
C2004 C2007 1.386 . S
H2005 C2021 0.930 . S
H2006 C2022 0.931 . S
C2007 H1995 0.929 . S
C2007 C2001 1.390 . S
C2007 C2004 1.386 . S
C2008 C2003 1.490 . S
C2008 C2010 1.395 . S
C2008 C2011 1.403 . S
H2009 C2015 0.930 . S
C2010 H1996 0.930 . S
C2010 C2008 1.395 . S
C2010 C2013 1.403 . S
C2011 C2008 1.403 . S
C2011 C2012 1.524 . S
C2011 C2015 1.400 . S
C2012 H1997 0.960 . S
C2012 H1998 0.960 . S
C2012 H1999 0.960 . S
C2012 C2011 1.524 . S
C2013 C2010 1.403 . S
C2013 C2014 1.392 . S
C2013 C2017 1.495 . S
C2014 C2013 1.392 . S
C2014 C2015 1.385 . S
C2014 C2016 1.478 . S
C2015 H2009 0.930 . S
C2015 C2011 1.400 . S
C2015 C2014 1.385 . S
C2016 C2014 1.478 . S
C2016 C2018 1.381 . S
C2016 C2022 1.383 . S
C2017 C2013 1.495 . S
C2017 H2023 0.959 . S
C2017 H2024 0.961 . S
C2017 H2025 0.960 . S
C2018 C2016 1.381 . S
C2018 C2019 1.394 . S
C2018 H2026 0.930 . S
C2019 C2018 1.394 . S
C2019 C2020 1.383 . S
C2019 H2027 0.929 . S
C2020 C2019 1.383 . S
C2020 C2021 1.377 . S
C2021 H2005 0.930 . S
C2021 C2020 1.377 . S
C2021 C2022 1.379 . S
C2022 H2006 0.931 . S
C2022 C2016 1.383 . S
C2022 C2021 1.379 . S
H2023 C2017 0.959 . S
H2024 C2017 0.961 . S
H2025 C2017 0.960 . S
H2026 C2018 0.930 . S
H2027 C2019 0.929 . S
H2028 C2036 0.929 . S
H2029 C2038 0.930 . S
H2030 C2040 0.930 . S
H2031 C2043 0.929 . S
H2032 C2046 0.930 . S
H2033 C2048 0.960 . S
H2034 C2048 0.960 . S
H2035 C2048 0.960 . S
C2036 H2028 0.929 . S
C2036 C2037 1.377 . S
C2036 C2038 1.384 1_556 S
C2037 C2036 1.377 . S
C2037 C2043 1.390 . S
C2038 H2029 0.930 . S
C2038 C2036 1.384 1_554 S
C2038 C2039 1.372 . S
C2039 C2038 1.372 . S
C2039 C2040 1.400 . S
C2039 C2044 1.490 . S
C2040 H2030 0.930 . S
C2040 C2039 1.400 . S
C2040 C2043 1.386 1_554 S
H2041 C2057 0.930 . S
H2042 C2058 0.931 . S
C2043 H2031 0.929 . S
C2043 C2037 1.390 . S
C2043 C2040 1.386 1_556 S
C2044 C2039 1.490 . S
C2044 C2046 1.395 . S
C2044 C2047 1.403 . S
H2045 C2051 0.930 . S
C2046 H2032 0.930 . S
C2046 C2044 1.395 . S
C2046 C2049 1.403 . S
C2047 C2044 1.403 . S
C2047 C2048 1.524 . S
C2047 C2051 1.400 . S
C2048 H2033 0.960 . S
C2048 H2034 0.960 . S
C2048 H2035 0.960 . S
C2048 C2047 1.524 . S
C2049 C2046 1.403 . S
C2049 C2050 1.392 . S
C2049 C2053 1.495 . S
C2050 C2049 1.392 . S
C2050 C2051 1.385 . S
C2050 C2052 1.478 . S
C2051 H2045 0.930 . S
C2051 C2047 1.400 . S
C2051 C2050 1.385 . S
C2052 C2050 1.478 . S
C2052 C2054 1.381 . S
C2052 C2058 1.383 . S
C2053 C2049 1.495 . S
C2053 H2059 0.959 . S
C2053 H2060 0.961 . S
C2053 H2061 0.960 . S
C2054 C2052 1.381 . S
C2054 C2055 1.394 . S
C2054 H2062 0.930 . S
C2055 C2054 1.394 . S
C2055 C2056 1.383 . S
C2055 H2063 0.929 . S
C2056 C2055 1.383 . S
C2056 C2057 1.377 . S
C2057 H2041 0.930 . S
C2057 C2056 1.377 . S
C2057 C2058 1.379 . S
C2058 H2042 0.931 . S
C2058 C2052 1.383 . S
C2058 C2057 1.379 . S
H2059 C2053 0.959 . S
H2060 C2053 0.961 . S
H2061 C2053 0.960 . S
H2062 C2054 0.930 . S
H2063 C2055 0.929 . S
H2064 C2072 0.929 . S
H2065 C2074 0.930 . S
H2066 C2076 0.930 . S
H2067 C2079 0.929 . S
H2068 C2082 0.930 . S
H2069 C2084 0.960 . S
H2070 C2084 0.960 . S
H2071 C2084 0.960 . S
C2072 H2064 0.929 . S
C2072 C2073 1.377 . S
C2072 C2074 1.384 . S
C2073 C2072 1.377 . S
C2073 C2079 1.390 . S
C2074 H2065 0.930 . S
C2074 C2072 1.384 . S
C2074 C2075 1.372 . S
C2075 C2074 1.372 . S
C2075 C2076 1.400 . S
C2075 C2080 1.490 . S
C2076 H2066 0.930 . S
C2076 C2075 1.400 . S
C2076 C2079 1.386 . S
H2077 C2093 0.930 . S
H2078 C2094 0.931 . S
C2079 H2067 0.929 . S
C2079 C2073 1.390 . S
C2079 C2076 1.386 . S
C2080 C2075 1.490 . S
C2080 C2082 1.395 . S
C2080 C2083 1.403 . S
H2081 C2087 0.930 1_556 S
C2082 H2068 0.930 . S
C2082 C2080 1.395 . S
C2082 C2085 1.403 . S
C2083 C2080 1.403 . S
C2083 C2084 1.524 . S
C2083 C2087 1.400 . S
C2084 H2069 0.960 . S
C2084 H2070 0.960 . S
C2084 H2071 0.960 . S
C2084 C2083 1.524 . S
C2085 C2082 1.403 . S
C2085 C2086 1.392 1_554 S
C2085 C2089 1.495 1_554 S
C2086 C2085 1.392 1_556 S
C2086 C2087 1.385 1_556 S
C2086 C2088 1.478 . S
C2087 H2081 0.930 1_554 S
C2087 C2083 1.400 . S
C2087 C2086 1.385 1_554 S
C2088 C2086 1.478 . S
C2088 C2090 1.381 . S
C2088 C2094 1.383 . S
C2089 C2085 1.495 1_556 S
C2089 H2095 0.959 1_556 S
C2089 H2096 0.961 . S
C2089 H2097 0.960 . S
C2090 C2088 1.381 . S
C2090 C2091 1.394 . S
C2090 H2098 0.930 . S
C2091 C2090 1.394 . S
C2091 C2092 1.383 . S
C2091 H2099 0.929 . S
C2092 C2091 1.383 . S
C2092 C2093 1.377 . S
C2093 H2077 0.930 . S
C2093 C2092 1.377 . S
C2093 C2094 1.379 . S
C2094 H2078 0.931 . S
C2094 C2088 1.383 . S
C2094 C2093 1.379 . S
H2095 C2089 0.959 1_554 S
H2096 C2089 0.961 . S
H2097 C2089 0.960 . S
H2098 C2090 0.930 . S
H2099 C2091 0.929 . S
H2100 C2108 0.929 . S
H2101 C2110 0.930 . S
H2102 C2112 0.930 . S
H2103 C2115 0.929 . S
H2104 C2118 0.930 . S
H2105 C2120 0.960 . S
H2106 C2120 0.960 . S
H2107 C2120 0.960 . S
C2108 H2100 0.929 . S
C2108 C2109 1.377 . S
C2108 C2110 1.384 1_554 S
C2109 C2108 1.377 . S
C2109 C2115 1.390 . S
C2110 H2101 0.930 . S
C2110 C2108 1.384 1_556 S
C2110 C2111 1.372 . S
C2111 C2110 1.372 . S
C2111 C2112 1.400 . S
C2111 C2116 1.490 . S
C2112 H2102 0.930 . S
C2112 C2111 1.400 . S
C2112 C2115 1.386 1_556 S
H2113 C2129 0.930 . S
H2114 C2130 0.931 . S
C2115 H2103 0.929 . S
C2115 C2109 1.390 . S
C2115 C2112 1.386 1_554 S
C2116 C2111 1.490 . S
C2116 C2118 1.395 . S
C2116 C2119 1.403 . S
H2117 C2123 0.930 . S
C2118 H2104 0.930 . S
C2118 C2116 1.395 . S
C2118 C2121 1.403 . S
C2119 C2116 1.403 . S
C2119 C2120 1.524 . S
C2119 C2123 1.400 . S
C2120 H2105 0.960 . S
C2120 H2106 0.960 . S
C2120 H2107 0.960 . S
C2120 C2119 1.524 . S
C2121 C2118 1.403 . S
C2121 C2122 1.392 . S
C2121 C2125 1.495 . S
C2122 C2121 1.392 . S
C2122 C2123 1.385 . S
C2122 C2124 1.478 . S
C2123 H2117 0.930 . S
C2123 C2119 1.400 . S
C2123 C2122 1.385 . S
C2124 C2122 1.478 . S
C2124 C2126 1.381 . S
C2124 C2130 1.383 . S
C2125 C2121 1.495 . S
C2125 H2131 0.959 . S
C2125 H2132 0.961 . S
C2125 H2133 0.960 . S
C2126 C2124 1.381 . S
C2126 C2127 1.394 . S
C2126 H2134 0.930 . S
C2127 C2126 1.394 . S
C2127 C2128 1.383 . S
C2127 H2135 0.929 . S
C2128 C2127 1.383 . S
C2128 C2129 1.377 . S
C2129 H2113 0.930 . S
C2129 C2128 1.377 . S
C2129 C2130 1.379 . S
C2130 H2114 0.931 . S
C2130 C2124 1.383 . S
C2130 C2129 1.379 . S
H2131 C2125 0.959 . S
H2132 C2125 0.961 . S
H2133 C2125 0.960 . S
H2134 C2126 0.930 . S
H2135 C2127 0.929 . S
H2136 C2144 0.929 . S
H2137 C2146 0.930 . S
H2138 C2148 0.930 . S
H2139 C2151 0.929 . S
H2140 C2154 0.930 . S
H2141 C2156 0.960 . S
H2142 C2156 0.960 . S
H2143 C2156 0.960 . S
C2144 H2136 0.929 . S
C2144 C2145 1.377 . S
C2144 C2146 1.384 . S
C2145 C2144 1.377 . S
C2145 C2151 1.390 . S
C2146 H2137 0.930 . S
C2146 C2144 1.384 . S
C2146 C2147 1.372 . S
C2147 C2146 1.372 . S
C2147 C2148 1.400 . S
C2147 C2152 1.490 . S
C2148 H2138 0.930 . S
C2148 C2147 1.400 . S
C2148 C2151 1.386 . S
H2149 C2165 0.930 . S
H2150 C2166 0.931 . S
C2151 H2139 0.929 . S
C2151 C2145 1.390 . S
C2151 C2148 1.386 . S
C2152 C2147 1.490 . S
C2152 C2154 1.395 . S
C2152 C2155 1.403 . S
H2153 C2159 0.930 . S
C2154 H2140 0.930 . S
C2154 C2152 1.395 . S
C2154 C2157 1.403 . S
C2155 C2152 1.403 . S
C2155 C2156 1.524 . S
C2155 C2159 1.400 . S
C2156 H2141 0.960 . S
C2156 H2142 0.960 . S
C2156 H2143 0.960 . S
C2156 C2155 1.524 . S
C2157 C2154 1.403 . S
C2157 C2158 1.392 . S
C2157 C2161 1.495 . S
C2158 C2157 1.392 . S
C2158 C2159 1.385 . S
C2158 C2160 1.478 . S
C2159 H2153 0.930 . S
C2159 C2155 1.400 . S
C2159 C2158 1.385 . S
C2160 C2158 1.478 . S
C2160 C2162 1.381 . S
C2160 C2166 1.383 . S
C2161 C2157 1.495 . S
C2161 H2167 0.959 . S
C2161 H2168 0.961 . S
C2161 H2169 0.960 . S
C2162 C2160 1.381 . S
C2162 C2163 1.394 . S
C2162 H2170 0.930 . S
C2163 C2162 1.394 . S
C2163 C2164 1.383 . S
C2163 H2171 0.929 . S
C2164 C2163 1.383 . S
C2164 C2165 1.377 . S
C2165 H2149 0.930 . S
C2165 C2164 1.377 . S
C2165 C2166 1.379 . S
C2166 H2150 0.931 . S
C2166 C2160 1.383 . S
C2166 C2165 1.379 . S
H2167 C2161 0.959 . S
H2168 C2161 0.961 . S
H2169 C2161 0.960 . S
H2170 C2162 0.930 . S
H2171 C2163 0.929 . S
H2172 C2180 0.929 . S
H2173 C2182 0.930 . S
H2174 C2184 0.930 . S
H2175 C2187 0.929 . S
H2176 C2190 0.930 . S
H2177 C2192 0.960 . S
H2178 C2192 0.960 . S
H2179 C2192 0.960 . S
C2180 H2172 0.929 . S
C2180 C2181 1.377 . S
C2180 C2182 1.384 . S
C2181 C2180 1.377 . S
C2181 C2187 1.390 . S
C2182 H2173 0.930 . S
C2182 C2180 1.384 . S
C2182 C2183 1.372 . S
C2183 C2182 1.372 . S
C2183 C2184 1.400 . S
C2183 C2188 1.490 . S
C2184 H2174 0.930 . S
C2184 C2183 1.400 . S
C2184 C2187 1.386 . S
H2185 C2201 0.930 . S
H2186 C2202 0.931 . S
C2187 H2175 0.929 . S
C2187 C2181 1.390 . S
C2187 C2184 1.386 . S
C2188 C2183 1.490 . S
C2188 C2190 1.395 . S
C2188 C2191 1.403 . S
H2189 C2195 0.930 . S
C2190 H2176 0.930 . S
C2190 C2188 1.395 . S
C2190 C2193 1.403 . S
C2191 C2188 1.403 . S
C2191 C2192 1.524 . S
C2191 C2195 1.400 . S
C2192 H2177 0.960 . S
C2192 H2178 0.960 . S
C2192 H2179 0.960 . S
C2192 C2191 1.524 . S
C2193 C2190 1.403 . S
C2193 C2194 1.392 . S
C2193 C2197 1.495 . S
C2194 C2193 1.392 . S
C2194 C2195 1.385 . S
C2194 C2196 1.478 . S
C2195 H2189 0.930 . S
C2195 C2191 1.400 . S
C2195 C2194 1.385 . S
C2196 C2194 1.478 . S
C2196 C2198 1.381 . S
C2196 C2202 1.383 . S
C2197 C2193 1.495 . S
C2197 H2203 0.959 . S
C2197 H2204 0.961 . S
C2197 H2205 0.960 . S
C2198 C2196 1.381 . S
C2198 C2199 1.394 . S
C2198 H2206 0.930 . S
C2199 C2198 1.394 . S
C2199 C2200 1.383 . S
C2199 H2207 0.929 . S
C2200 C2199 1.383 . S
C2200 C2201 1.377 . S
C2201 H2185 0.930 . S
C2201 C2200 1.377 . S
C2201 C2202 1.379 . S
C2202 H2186 0.931 . S
C2202 C2196 1.383 . S
C2202 C2201 1.379 . S
H2203 C2197 0.959 . S
H2204 C2197 0.961 . S
H2205 C2197 0.960 . S
H2206 C2198 0.930 . S
H2207 C2199 0.929 . S
H2208 C2216 0.929 . S
H2209 C2218 0.930 . S
H2210 C2220 0.930 . S
H2211 C2223 0.929 . S
H2212 C2226 0.930 . S
H2213 C2228 0.960 1_556 S
H2214 C2228 0.960 . S
H2215 C2228 0.960 . S
C2216 H2208 0.929 . S
C2216 C2217 1.377 . S
C2216 C2218 1.384 . S
C2217 C2216 1.377 . S
C2217 C2223 1.390 . S
C2218 H2209 0.930 . S
C2218 C2216 1.384 . S
C2218 C2219 1.372 . S
C2219 C2218 1.372 . S
C2219 C2220 1.400 . S
C2219 C2224 1.490 . S
C2220 H2210 0.930 . S
C2220 C2219 1.400 . S
C2220 C2223 1.386 . S
H2221 C2237 0.930 . S
H2222 C2238 0.931 . S
C2223 H2211 0.929 . S
C2223 C2217 1.390 . S
C2223 C2220 1.386 . S
C2224 C2219 1.490 . S
C2224 C2226 1.395 . S
C2224 C2227 1.403 . S
H2225 C2231 0.930 . S
C2226 H2212 0.930 . S
C2226 C2224 1.395 . S
C2226 C2229 1.403 . S
C2227 C2224 1.403 . S
C2227 C2228 1.524 . S
C2227 C2231 1.400 . S
C2228 H2213 0.960 1_554 S
C2228 H2214 0.960 . S
C2228 H2215 0.960 . S
C2228 C2227 1.524 . S
C2229 C2226 1.403 . S
C2229 C2230 1.392 . S
C2229 C2233 1.495 . S
C2230 C2229 1.392 . S
C2230 C2231 1.385 . S
C2230 C2232 1.478 . S
C2231 H2225 0.930 . S
C2231 C2227 1.400 . S
C2231 C2230 1.385 . S
C2232 C2230 1.478 . S
C2232 C2234 1.381 . S
C2232 C2238 1.383 . S
C2233 C2229 1.495 . S
C2233 H2239 0.959 . S
C2233 H2240 0.961 . S
C2233 H2241 0.960 . S
C2234 C2232 1.381 . S
C2234 C2235 1.394 . S
C2234 H2242 0.930 . S
C2235 C2234 1.394 . S
C2235 C2236 1.383 . S
C2235 H2243 0.929 . S
C2236 C2235 1.383 . S
C2236 C2237 1.377 . S
C2237 H2221 0.930 . S
C2237 C2236 1.377 . S
C2237 C2238 1.379 . S
C2238 H2222 0.931 . S
C2238 C2232 1.383 . S
C2238 C2237 1.379 . S
H2239 C2233 0.959 . S
H2240 C2233 0.961 . S
H2241 C2233 0.960 . S
H2242 C2234 0.930 . S
H2243 C2235 0.929 . S
H2244 C2252 0.929 . S
H2245 C2254 0.930 . S
H2246 C2256 0.930 . S
H2247 C2259 0.929 . S
H2248 C2262 0.930 . S
H2249 C2264 0.960 . S
H2250 C2264 0.960 . S
H2251 C2264 0.960 . S
C2252 H2244 0.929 . S
C2252 C2253 1.377 . S
C2252 C2254 1.384 . S
C2253 C2252 1.377 . S
C2253 C2259 1.390 . S
C2254 H2245 0.930 . S
C2254 C2252 1.384 . S
C2254 C2255 1.372 . S
C2255 C2254 1.372 . S
C2255 C2256 1.400 . S
C2255 C2260 1.490 . S
C2256 H2246 0.930 . S
C2256 C2255 1.400 . S
C2256 C2259 1.386 . S
H2257 C2273 0.930 . S
H2258 C2274 0.931 . S
C2259 H2247 0.929 . S
C2259 C2253 1.390 . S
C2259 C2256 1.386 . S
C2260 C2255 1.490 . S
C2260 C2262 1.395 . S
C2260 C2263 1.403 . S
H2261 C2267 0.930 . S
C2262 H2248 0.930 . S
C2262 C2260 1.395 . S
C2262 C2265 1.403 . S
C2263 C2260 1.403 . S
C2263 C2264 1.524 . S
C2263 C2267 1.400 . S
C2264 H2249 0.960 . S
C2264 H2250 0.960 . S
C2264 H2251 0.960 . S
C2264 C2263 1.524 . S
C2265 C2262 1.403 . S
C2265 C2266 1.392 . S
C2265 C2269 1.495 . S
C2266 C2265 1.392 . S
C2266 C2267 1.385 . S
C2266 C2268 1.478 . S
C2267 H2261 0.930 . S
C2267 C2263 1.400 . S
C2267 C2266 1.385 . S
C2268 C2266 1.478 . S
C2268 C2270 1.381 . S
C2268 C2274 1.383 . S
C2269 C2265 1.495 . S
C2269 H2275 0.959 . S
C2269 H2276 0.961 . S
C2269 H2277 0.960 . S
C2270 C2268 1.381 . S
C2270 C2271 1.394 . S
C2270 H2278 0.930 . S
C2271 C2270 1.394 . S
C2271 C2272 1.383 . S
C2271 H2279 0.929 . S
C2272 C2271 1.383 . S
C2272 C2273 1.377 . S
C2273 H2257 0.930 . S
C2273 C2272 1.377 . S
C2273 C2274 1.379 . S
C2274 H2258 0.931 . S
C2274 C2268 1.383 . S
C2274 C2273 1.379 . S
H2275 C2269 0.959 . S
H2276 C2269 0.961 . S
H2277 C2269 0.960 . S
H2278 C2270 0.930 . S
H2279 C2271 0.929 . S
H2280 C2288 0.929 . S
H2281 C2290 0.930 . S
H2282 C2292 0.930 . S
H2283 C2295 0.929 . S
H2284 C2298 0.930 . S
H2285 C2300 0.960 . S
H2286 C2300 0.960 . S
H2287 C2300 0.960 . S
C2288 H2280 0.929 . S
C2288 C2289 1.377 . S
C2288 C2290 1.384 . S
C2289 C2288 1.377 . S
C2289 C2295 1.390 . S
C2290 H2281 0.930 . S
C2290 C2288 1.384 . S
C2290 C2291 1.372 . S
C2291 C2290 1.372 . S
C2291 C2292 1.400 . S
C2291 C2296 1.490 . S
C2292 H2282 0.930 . S
C2292 C2291 1.400 . S
C2292 C2295 1.386 . S
H2293 C2309 0.930 . S
H2294 C2310 0.931 . S
C2295 H2283 0.929 . S
C2295 C2289 1.390 . S
C2295 C2292 1.386 . S
C2296 C2291 1.490 . S
C2296 C2298 1.395 . S
C2296 C2299 1.403 . S
H2297 C2303 0.930 . S
C2298 H2284 0.930 . S
C2298 C2296 1.395 . S
C2298 C2301 1.403 . S
C2299 C2296 1.403 . S
C2299 C2300 1.524 . S
C2299 C2303 1.400 . S
C2300 H2285 0.960 . S
C2300 H2286 0.960 . S
C2300 H2287 0.960 . S
C2300 C2299 1.524 . S
C2301 C2298 1.403 . S
C2301 C2302 1.392 . S
C2301 C2305 1.495 . S
C2302 C2301 1.392 . S
C2302 C2303 1.385 . S
C2302 C2304 1.478 . S
C2303 H2297 0.930 . S
C2303 C2299 1.400 . S
C2303 C2302 1.385 . S
C2304 C2302 1.478 . S
C2304 C2306 1.381 . S
C2304 C2310 1.383 . S
C2305 C2301 1.495 . S
C2305 H2311 0.959 . S
C2305 H2312 0.961 . S
C2305 H2313 0.960 . S
C2306 C2304 1.381 . S
C2306 C2307 1.394 . S
C2306 H2314 0.930 . S
C2307 C2306 1.394 . S
C2307 C2308 1.383 . S
C2307 H2315 0.929 . S
C2308 C2307 1.383 . S
C2308 C2309 1.377 . S
C2309 H2293 0.930 . S
C2309 C2308 1.377 . S
C2309 C2310 1.379 . S
C2310 H2294 0.931 . S
C2310 C2304 1.383 . S
C2310 C2309 1.379 . S
H2311 C2305 0.959 . S
H2312 C2305 0.961 . S
H2313 C2305 0.960 . S
H2314 C2306 0.930 . S
H2315 C2307 0.929 . S
H2316 C2324 0.929 . S
H2317 C2326 0.930 . S
H2318 C2328 0.930 . S
H2319 C2331 0.929 . S
H2320 C2334 0.930 . S
H2321 C2336 0.960 . S
H2322 C2336 0.960 . S
H2323 C2336 0.960 . S
C2324 H2316 0.929 . S
C2324 C2325 1.377 . S
C2324 C2326 1.384 . S
C2325 C2324 1.377 . S
C2325 C2331 1.390 . S
C2326 H2317 0.930 . S
C2326 C2324 1.384 . S
C2326 C2327 1.372 . S
C2327 C2326 1.372 . S
C2327 C2328 1.400 . S
C2327 C2332 1.490 . S
C2328 H2318 0.930 . S
C2328 C2327 1.400 . S
C2328 C2331 1.386 . S
H2329 C2345 0.930 . S
H2330 C2346 0.931 . S
C2331 H2319 0.929 . S
C2331 C2325 1.390 . S
C2331 C2328 1.386 . S
C2332 C2327 1.490 . S
C2332 C2334 1.395 . S
C2332 C2335 1.403 . S
H2333 C2339 0.930 . S
C2334 H2320 0.930 . S
C2334 C2332 1.395 . S
C2334 C2337 1.403 . S
C2335 C2332 1.403 . S
C2335 C2336 1.524 . S
C2335 C2339 1.400 . S
C2336 H2321 0.960 . S
C2336 H2322 0.960 . S
C2336 H2323 0.960 . S
C2336 C2335 1.524 . S
C2337 C2334 1.403 . S
C2337 C2338 1.392 . S
C2337 C2341 1.495 . S
C2338 C2337 1.392 . S
C2338 C2339 1.385 . S
C2338 C2340 1.478 . S
C2339 H2333 0.930 . S
C2339 C2335 1.400 . S
C2339 C2338 1.385 . S
C2340 C2338 1.478 . S
C2340 C2342 1.381 . S
C2340 C2346 1.383 . S
C2341 C2337 1.495 . S
C2341 H2347 0.959 1_556 S
C2341 H2348 0.961 . S
C2341 H2349 0.960 . S
C2342 C2340 1.381 . S
C2342 C2343 1.394 . S
C2342 H2350 0.930 . S
C2343 C2342 1.394 . S
C2343 C2344 1.383 . S
C2343 H2351 0.929 . S
C2344 C2343 1.383 . S
C2344 C2345 1.377 . S
C2345 H2329 0.930 . S
C2345 C2344 1.377 . S
C2345 C2346 1.379 . S
C2346 H2330 0.931 . S
C2346 C2340 1.383 . S
C2346 C2345 1.379 . S
H2347 C2341 0.959 1_554 S
H2348 C2341 0.961 . S
H2349 C2341 0.960 . S
H2350 C2342 0.930 . S
H2351 C2343 0.929 . S
H2352 C2360 0.929 . S
H2353 C2362 0.930 . S
H2354 C2364 0.930 . S
H2355 C2367 0.929 . S
H2356 C2370 0.930 . S
H2357 C2372 0.960 . S
H2358 C2372 0.960 . S
H2359 C2372 0.960 . S
C2360 H2352 0.929 . S
C2360 C2361 1.377 . S
C2360 C2362 1.384 . S
C2361 C2360 1.377 . S
C2361 C2367 1.390 . S
C2362 H2353 0.930 . S
C2362 C2360 1.384 . S
C2362 C2363 1.372 . S
C2363 C2362 1.372 . S
C2363 C2364 1.400 . S
C2363 C2368 1.490 . S
C2364 H2354 0.930 . S
C2364 C2363 1.400 . S
C2364 C2367 1.386 . S
H2365 C2381 0.930 . S
H2366 C2382 0.931 . S
C2367 H2355 0.929 . S
C2367 C2361 1.390 . S
C2367 C2364 1.386 . S
C2368 C2363 1.490 . S
C2368 C2370 1.395 . S
C2368 C2371 1.403 . S
H2369 C2375 0.930 . S
C2370 H2356 0.930 . S
C2370 C2368 1.395 . S
C2370 C2373 1.403 . S
C2371 C2368 1.403 . S
C2371 C2372 1.524 . S
C2371 C2375 1.400 . S
C2372 H2357 0.960 . S
C2372 H2358 0.960 . S
C2372 H2359 0.960 . S
C2372 C2371 1.524 . S
C2373 C2370 1.403 . S
C2373 C2374 1.392 . S
C2373 C2377 1.495 . S
C2374 C2373 1.392 . S
C2374 C2375 1.385 . S
C2374 C2376 1.478 . S
C2375 H2369 0.930 . S
C2375 C2371 1.400 . S
C2375 C2374 1.385 . S
C2376 C2374 1.478 . S
C2376 C2378 1.381 . S
C2376 C2382 1.383 . S
C2377 C2373 1.495 . S
C2377 H2383 0.959 . S
C2377 H2384 0.961 . S
C2377 H2385 0.960 . S
C2378 C2376 1.381 . S
C2378 C2379 1.394 . S
C2378 H2386 0.930 . S
C2379 C2378 1.394 . S
C2379 C2380 1.383 . S
C2379 H2387 0.929 . S
C2380 C2379 1.383 . S
C2380 C2381 1.377 . S
C2381 H2365 0.930 . S
C2381 C2380 1.377 . S
C2381 C2382 1.379 . S
C2382 H2366 0.931 . S
C2382 C2376 1.383 . S
C2382 C2381 1.379 . S
H2383 C2377 0.959 . S
H2384 C2377 0.961 . S
H2385 C2377 0.960 . S
H2386 C2378 0.930 . S
H2387 C2379 0.929 . S
H2388 C2396 0.929 1_556 S
H2389 C2398 0.930 . S
H2390 C2400 0.930 . S
H2391 C2403 0.929 . S
H2392 C2406 0.930 . S
H2393 C2408 0.960 . S
H2394 C2408 0.960 . S
H2395 C2408 0.960 . S
C2396 H2388 0.929 1_554 S
C2396 C2397 1.377 . S
C2396 C2398 1.384 . S
C2397 C2396 1.377 . S
C2397 C2403 1.390 . S
C2398 H2389 0.930 . S
C2398 C2396 1.384 . S
C2398 C2399 1.372 . S
C2399 C2398 1.372 . S
C2399 C2400 1.400 . S
C2399 C2404 1.490 . S
C2400 H2390 0.930 . S
C2400 C2399 1.400 . S
C2400 C2403 1.386 . S
H2401 C2417 0.930 . S
H2402 C2418 0.931 . S
C2403 H2391 0.929 . S
C2403 C2397 1.390 . S
C2403 C2400 1.386 . S
C2404 C2399 1.490 . S
C2404 C2406 1.395 . S
C2404 C2407 1.403 . S
H2405 C2411 0.930 . S
C2406 H2392 0.930 . S
C2406 C2404 1.395 . S
C2406 C2409 1.403 . S
C2407 C2404 1.403 . S
C2407 C2408 1.524 . S
C2407 C2411 1.400 . S
C2408 H2393 0.960 . S
C2408 H2394 0.960 . S
C2408 H2395 0.960 . S
C2408 C2407 1.524 . S
C2409 C2406 1.403 . S
C2409 C2410 1.392 . S
C2409 C2413 1.495 . S
C2410 C2409 1.392 . S
C2410 C2411 1.385 . S
C2410 C2412 1.478 . S
C2411 H2405 0.930 . S
C2411 C2407 1.400 . S
C2411 C2410 1.385 . S
C2412 C2410 1.478 . S
C2412 C2414 1.381 . S
C2412 C2418 1.383 . S
C2413 C2409 1.495 . S
C2413 H2419 0.959 . S
C2413 H2420 0.961 . S
C2413 H2421 0.960 . S
C2414 C2412 1.381 . S
C2414 C2415 1.394 . S
C2414 H2422 0.930 . S
C2415 C2414 1.394 . S
C2415 C2416 1.383 . S
C2415 H2423 0.929 . S
C2416 C2415 1.383 . S
C2416 C2417 1.377 . S
C2417 H2401 0.930 . S
C2417 C2416 1.377 . S
C2417 C2418 1.379 . S
C2418 H2402 0.931 . S
C2418 C2412 1.383 . S
C2418 C2417 1.379 . S
H2419 C2413 0.959 . S
H2420 C2413 0.961 . S
H2421 C2413 0.960 . S
H2422 C2414 0.930 . S
H2423 C2415 0.929 . S
H2424 C2432 0.929 . S
H2425 C2434 0.930 . S
H2426 C2436 0.930 . S
H2427 C2439 0.929 . S
H2428 C2442 0.930 . S
H2429 C2444 0.960 . S
H2430 C2444 0.960 . S
H2431 C2444 0.960 . S
C2432 H2424 0.929 . S
C2432 C2433 1.377 . S
C2432 C2434 1.384 . S
C2433 C2432 1.377 . S
C2433 C2439 1.390 . S
C2434 H2425 0.930 . S
C2434 C2432 1.384 . S
C2434 C2435 1.372 . S
C2435 C2434 1.372 . S
C2435 C2436 1.400 . S
C2435 C2440 1.490 . S
C2436 H2426 0.930 . S
C2436 C2435 1.400 . S
C2436 C2439 1.386 . S
H2437 C2453 0.930 . S
H2438 C2454 0.931 . S
C2439 H2427 0.929 . S
C2439 C2433 1.390 . S
C2439 C2436 1.386 . S
C2440 C2435 1.490 . S
C2440 C2442 1.395 . S
C2440 C2443 1.403 . S
H2441 C2447 0.930 . S
C2442 H2428 0.930 . S
C2442 C2440 1.395 . S
C2442 C2445 1.403 . S
C2443 C2440 1.403 . S
C2443 C2444 1.524 . S
C2443 C2447 1.400 . S
C2444 H2429 0.960 . S
C2444 H2430 0.960 . S
C2444 H2431 0.960 . S
C2444 C2443 1.524 . S
C2445 C2442 1.403 . S
C2445 C2446 1.392 . S
C2445 C2449 1.495 . S
C2446 C2445 1.392 . S
C2446 C2447 1.385 . S
C2446 C2448 1.478 . S
C2447 H2441 0.930 . S
C2447 C2443 1.400 . S
C2447 C2446 1.385 . S
C2448 C2446 1.478 . S
C2448 C2450 1.381 . S
C2448 C2454 1.383 . S
C2449 C2445 1.495 . S
C2449 H2455 0.959 . S
C2449 H2456 0.961 . S
C2449 H2457 0.960 . S
C2450 C2448 1.381 . S
C2450 C2451 1.394 . S
C2450 H2458 0.930 . S
C2451 C2450 1.394 . S
C2451 C2452 1.383 . S
C2451 H2459 0.929 . S
C2452 C2451 1.383 . S
C2452 C2453 1.377 . S
C2453 H2437 0.930 . S
C2453 C2452 1.377 . S
C2453 C2454 1.379 . S
C2454 H2438 0.931 . S
C2454 C2448 1.383 . S
C2454 C2453 1.379 . S
H2455 C2449 0.959 . S
H2456 C2449 0.961 . S
H2457 C2449 0.960 . S
H2458 C2450 0.930 . S
H2459 C2451 0.929 . S
H2460 C2468 0.929 . S
H2461 C2470 0.930 . S
H2462 C2472 0.930 . S
H2463 C2475 0.929 . S
H2464 C2478 0.930 . S
H2465 C2480 0.960 . S
H2466 C2480 0.960 . S
H2467 C2480 0.960 . S
C2468 H2460 0.929 . S
C2468 C2469 1.377 . S
C2468 C2470 1.384 . S
C2469 C2468 1.377 . S
C2469 C2475 1.390 . S
C2470 H2461 0.930 . S
C2470 C2468 1.384 . S
C2470 C2471 1.372 . S
C2471 C2470 1.372 . S
C2471 C2472 1.400 . S
C2471 C2476 1.490 . S
C2472 H2462 0.930 . S
C2472 C2471 1.400 . S
C2472 C2475 1.386 . S
H2473 C2489 0.930 . S
H2474 C2490 0.931 . S
C2475 H2463 0.929 . S
C2475 C2469 1.390 . S
C2475 C2472 1.386 . S
C2476 C2471 1.490 . S
C2476 C2478 1.395 . S
C2476 C2479 1.403 . S
H2477 C2483 0.930 . S
C2478 H2464 0.930 . S
C2478 C2476 1.395 . S
C2478 C2481 1.403 . S
C2479 C2476 1.403 . S
C2479 C2480 1.524 . S
C2479 C2483 1.400 . S
C2480 H2465 0.960 . S
C2480 H2466 0.960 . S
C2480 H2467 0.960 . S
C2480 C2479 1.524 . S
C2481 C2478 1.403 . S
C2481 C2482 1.392 . S
C2481 C2485 1.495 . S
C2482 C2481 1.392 . S
C2482 C2483 1.385 . S
C2482 C2484 1.478 . S
C2483 H2477 0.930 . S
C2483 C2479 1.400 . S
C2483 C2482 1.385 . S
C2484 C2482 1.478 . S
C2484 C2486 1.381 . S
C2484 C2490 1.383 . S
C2485 C2481 1.495 . S
C2485 H2491 0.959 . S
C2485 H2492 0.961 . S
C2485 H2493 0.960 . S
C2486 C2484 1.381 . S
C2486 C2487 1.394 . S
C2486 H2494 0.930 . S
C2487 C2486 1.394 . S
C2487 C2488 1.383 . S
C2487 H2495 0.929 . S
C2488 C2487 1.383 . S
C2488 C2489 1.377 . S
C2489 H2473 0.930 . S
C2489 C2488 1.377 . S
C2489 C2490 1.379 . S
C2490 H2474 0.931 . S
C2490 C2484 1.383 . S
C2490 C2489 1.379 . S
H2491 C2485 0.959 . S
H2492 C2485 0.961 . S
H2493 C2485 0.960 . S
H2494 C2486 0.930 . S
H2495 C2487 0.929 . S
H2496 C2504 0.929 . S
H2497 C2506 0.930 . S
H2498 C2508 0.930 . S
H2499 C2511 0.929 . S
H2500 C2514 0.930 . S
H2501 C2516 0.960 . S
H2502 C2516 0.960 . S
H2503 C2516 0.960 . S
C2504 H2496 0.929 . S
C2504 C2505 1.377 . S
C2504 C2506 1.384 . S
C2505 C2504 1.377 . S
C2505 C2511 1.390 . S
C2506 H2497 0.930 . S
C2506 C2504 1.384 . S
C2506 C2507 1.372 . S
C2507 C2506 1.372 . S
C2507 C2508 1.400 . S
C2507 C2512 1.490 . S
C2508 H2498 0.930 . S
C2508 C2507 1.400 . S
C2508 C2511 1.386 . S
H2509 C2525 0.930 . S
H2510 C2526 0.931 . S
C2511 H2499 0.929 . S
C2511 C2505 1.390 . S
C2511 C2508 1.386 . S
C2512 C2507 1.490 . S
C2512 C2514 1.395 . S
C2512 C2515 1.403 . S
H2513 C2519 0.930 . S
C2514 H2500 0.930 . S
C2514 C2512 1.395 . S
C2514 C2517 1.403 . S
C2515 C2512 1.403 . S
C2515 C2516 1.524 . S
C2515 C2519 1.400 . S
C2516 H2501 0.960 . S
C2516 H2502 0.960 . S
C2516 H2503 0.960 . S
C2516 C2515 1.524 . S
C2517 C2514 1.403 . S
C2517 C2518 1.392 . S
C2517 C2521 1.495 . S
C2518 C2517 1.392 . S
C2518 C2519 1.385 . S
C2518 C2520 1.478 . S
C2519 H2513 0.930 . S
C2519 C2515 1.400 . S
C2519 C2518 1.385 . S
C2520 C2518 1.478 . S
C2520 C2522 1.381 . S
C2520 C2526 1.383 . S
C2521 C2517 1.495 . S
C2521 H2527 0.959 . S
C2521 H2528 0.961 . S
C2521 H2529 0.960 . S
C2522 C2520 1.381 . S
C2522 C2523 1.394 . S
C2522 H2530 0.930 . S
C2523 C2522 1.394 . S
C2523 C2524 1.383 . S
C2523 H2531 0.929 1_556 S
C2524 C2523 1.383 . S
C2524 C2525 1.377 . S
C2525 H2509 0.930 . S
C2525 C2524 1.377 . S
C2525 C2526 1.379 . S
C2526 H2510 0.931 . S
C2526 C2520 1.383 . S
C2526 C2525 1.379 . S
H2527 C2521 0.959 . S
H2528 C2521 0.961 . S
H2529 C2521 0.960 . S
H2530 C2522 0.930 . S
H2531 C2523 0.929 1_554 S
H2532 C2540 0.929 . S
H2533 C2542 0.930 . S
H2534 C2544 0.930 . S
H2535 C2547 0.929 . S
H2536 C2550 0.930 . S
H2537 C2552 0.960 . S
H2538 C2552 0.960 . S
H2539 C2552 0.960 . S
C2540 H2532 0.929 . S
C2540 C2541 1.377 . S
C2540 C2542 1.384 . S
C2541 C2540 1.377 . S
C2541 C2547 1.390 . S
C2542 H2533 0.930 . S
C2542 C2540 1.384 . S
C2542 C2543 1.372 . S
C2543 C2542 1.372 . S
C2543 C2544 1.400 . S
C2543 C2548 1.490 . S
C2544 H2534 0.930 . S
C2544 C2543 1.400 . S
C2544 C2547 1.386 . S
H2545 C2561 0.930 . S
H2546 C2562 0.931 . S
C2547 H2535 0.929 . S
C2547 C2541 1.390 . S
C2547 C2544 1.386 . S
C2548 C2543 1.490 . S
C2548 C2550 1.395 . S
C2548 C2551 1.403 . S
H2549 C2555 0.930 . S
C2550 H2536 0.930 . S
C2550 C2548 1.395 . S
C2550 C2553 1.403 . S
C2551 C2548 1.403 . S
C2551 C2552 1.524 . S
C2551 C2555 1.400 . S
C2552 H2537 0.960 . S
C2552 H2538 0.960 . S
C2552 H2539 0.960 . S
C2552 C2551 1.524 . S
C2553 C2550 1.403 . S
C2553 C2554 1.392 . S
C2553 C2557 1.495 . S
C2554 C2553 1.392 . S
C2554 C2555 1.385 . S
C2554 C2556 1.478 . S
C2555 H2549 0.930 . S
C2555 C2551 1.400 . S
C2555 C2554 1.385 . S
C2556 C2554 1.478 . S
C2556 C2558 1.381 . S
C2556 C2562 1.383 . S
C2557 C2553 1.495 . S
C2557 H2563 0.959 . S
C2557 H2564 0.961 . S
C2557 H2565 0.960 . S
C2558 C2556 1.381 . S
C2558 C2559 1.394 . S
C2558 H2566 0.930 . S
C2559 C2558 1.394 . S
C2559 C2560 1.383 . S
C2559 H2567 0.929 . S
C2560 C2559 1.383 . S
C2560 C2561 1.377 . S
C2561 H2545 0.930 . S
C2561 C2560 1.377 . S
C2561 C2562 1.379 . S
C2562 H2546 0.931 . S
C2562 C2556 1.383 . S
C2562 C2561 1.379 . S
H2563 C2557 0.959 . S
H2564 C2557 0.961 . S
H2565 C2557 0.960 . S
H2566 C2558 0.930 . S
H2567 C2559 0.929 . S
H2568 C2576 0.929 . S
H2569 C2578 0.930 . S
H2570 C2580 0.930 . S
H2571 C2583 0.929 . S
H2572 C2586 0.930 . S
H2573 C2588 0.960 . S
H2574 C2588 0.960 . S
H2575 C2588 0.960 . S
C2576 H2568 0.929 . S
C2576 C2577 1.377 . S
C2576 C2578 1.384 . S
C2577 C2576 1.377 . S
C2577 C2583 1.390 . S
C2578 H2569 0.930 . S
C2578 C2576 1.384 . S
C2578 C2579 1.372 . S
C2579 C2578 1.372 . S
C2579 C2580 1.400 . S
C2579 C2584 1.490 . S
C2580 H2570 0.930 . S
C2580 C2579 1.400 . S
C2580 C2583 1.386 . S
H2581 C2597 0.930 . S
H2582 C2598 0.931 . S
C2583 H2571 0.929 . S
C2583 C2577 1.390 . S
C2583 C2580 1.386 . S
C2584 C2579 1.490 . S
C2584 C2586 1.395 . S
C2584 C2587 1.403 . S
H2585 C2591 0.930 . S
C2586 H2572 0.930 . S
C2586 C2584 1.395 . S
C2586 C2589 1.403 . S
C2587 C2584 1.403 . S
C2587 C2588 1.524 . S
C2587 C2591 1.400 . S
C2588 H2573 0.960 . S
C2588 H2574 0.960 . S
C2588 H2575 0.960 . S
C2588 C2587 1.524 . S
C2589 C2586 1.403 . S
C2589 C2590 1.392 . S
C2589 C2593 1.495 . S
C2590 C2589 1.392 . S
C2590 C2591 1.385 . S
C2590 C2592 1.478 . S
C2591 H2585 0.930 . S
C2591 C2587 1.400 . S
C2591 C2590 1.385 . S
C2592 C2590 1.478 . S
C2592 C2594 1.381 . S
C2592 C2598 1.383 . S
C2593 C2589 1.495 . S
C2593 H2599 0.959 . S
C2593 H2600 0.961 . S
C2593 H2601 0.960 . S
C2594 C2592 1.381 . S
C2594 C2595 1.394 . S
C2594 H2602 0.930 . S
C2595 C2594 1.394 . S
C2595 C2596 1.383 . S
C2595 H2603 0.929 . S
C2596 C2595 1.383 . S
C2596 C2597 1.377 . S
C2597 H2581 0.930 . S
C2597 C2596 1.377 . S
C2597 C2598 1.379 . S
C2598 H2582 0.931 . S
C2598 C2592 1.383 . S
C2598 C2597 1.379 . S
H2599 C2593 0.959 . S
H2600 C2593 0.961 . S
H2601 C2593 0.960 . S
H2602 C2594 0.930 . S
H2603 C2595 0.929 . S
H2604 C2612 0.929 . S
H2605 C2614 0.930 . S
H2606 C2616 0.930 . S
H2607 C2619 0.929 . S
H2608 C2622 0.930 . S
H2609 C2624 0.960 . S
H2610 C2624 0.960 . S
H2611 C2624 0.960 . S
C2612 H2604 0.929 . S
C2612 C2613 1.377 . S
C2612 C2614 1.384 . S
C2613 C2612 1.377 . S
C2613 C2619 1.390 . S
C2614 H2605 0.930 . S
C2614 C2612 1.384 . S
C2614 C2615 1.372 . S
C2615 C2614 1.372 . S
C2615 C2616 1.400 . S
C2615 C2620 1.490 . S
C2616 H2606 0.930 . S
C2616 C2615 1.400 . S
C2616 C2619 1.386 . S
H2617 C2633 0.930 . S
H2618 C2634 0.931 . S
C2619 H2607 0.929 . S
C2619 C2613 1.390 . S
C2619 C2616 1.386 . S
C2620 C2615 1.490 . S
C2620 C2622 1.395 . S
C2620 C2623 1.403 . S
H2621 C2627 0.930 . S
C2622 H2608 0.930 . S
C2622 C2620 1.395 . S
C2622 C2625 1.403 . S
C2623 C2620 1.403 . S
C2623 C2624 1.524 . S
C2623 C2627 1.400 . S
C2624 H2609 0.960 . S
C2624 H2610 0.960 . S
C2624 H2611 0.960 . S
C2624 C2623 1.524 . S
C2625 C2622 1.403 . S
C2625 C2626 1.392 . S
C2625 C2629 1.495 . S
C2626 C2625 1.392 . S
C2626 C2627 1.385 . S
C2626 C2628 1.478 . S
C2627 H2621 0.930 . S
C2627 C2623 1.400 . S
C2627 C2626 1.385 . S
C2628 C2626 1.478 . S
C2628 C2630 1.381 . S
C2628 C2634 1.383 . S
C2629 C2625 1.495 . S
C2629 H2635 0.959 . S
C2629 H2636 0.961 . S
C2629 H2637 0.960 . S
C2630 C2628 1.381 . S
C2630 C2631 1.394 . S
C2630 H2638 0.930 . S
C2631 C2630 1.394 . S
C2631 C2632 1.383 . S
C2631 H2639 0.929 . S
C2632 C2631 1.383 . S
C2632 C2633 1.377 . S
C2633 H2617 0.930 . S
C2633 C2632 1.377 . S
C2633 C2634 1.379 . S
C2634 H2618 0.931 . S
C2634 C2628 1.383 . S
C2634 C2633 1.379 . S
H2635 C2629 0.959 . S
H2636 C2629 0.961 . S
H2637 C2629 0.960 . S
H2638 C2630 0.930 . S
H2639 C2631 0.929 . S
H2640 C2648 0.929 . S
H2641 C2650 0.930 . S
H2642 C2652 0.930 . S
H2643 C2655 0.929 . S
H2644 C2658 0.930 . S
H2645 C2660 0.960 . S
H2646 C2660 0.960 . S
H2647 C2660 0.960 . S
C2648 H2640 0.929 . S
C2648 C2649 1.377 . S
C2648 C2650 1.384 . S
C2649 C2648 1.377 . S
C2649 C2655 1.390 . S
C2650 H2641 0.930 . S
C2650 C2648 1.384 . S
C2650 C2651 1.372 . S
C2651 C2650 1.372 . S
C2651 C2652 1.400 . S
C2651 C2656 1.490 . S
C2652 H2642 0.930 . S
C2652 C2651 1.400 . S
C2652 C2655 1.386 . S
H2653 C2669 0.930 . S
H2654 C2670 0.931 . S
C2655 H2643 0.929 . S
C2655 C2649 1.390 . S
C2655 C2652 1.386 . S
C2656 C2651 1.490 . S
C2656 C2658 1.395 . S
C2656 C2659 1.403 . S
H2657 C2663 0.930 . S
C2658 H2644 0.930 . S
C2658 C2656 1.395 . S
C2658 C2661 1.403 . S
C2659 C2656 1.403 . S
C2659 C2660 1.524 . S
C2659 C2663 1.400 . S
C2660 H2645 0.960 . S
C2660 H2646 0.960 . S
C2660 H2647 0.960 . S
C2660 C2659 1.524 . S
C2661 C2658 1.403 . S
C2661 C2662 1.392 . S
C2661 C2665 1.495 . S
C2662 C2661 1.392 . S
C2662 C2663 1.385 . S
C2662 C2664 1.478 . S
C2663 H2657 0.930 . S
C2663 C2659 1.400 . S
C2663 C2662 1.385 . S
C2664 C2662 1.478 . S
C2664 C2666 1.381 . S
C2664 C2670 1.383 . S
C2665 C2661 1.495 . S
C2665 H2671 0.959 . S
C2665 H2672 0.961 . S
C2665 H2673 0.960 . S
C2666 C2664 1.381 . S
C2666 C2667 1.394 . S
C2666 H2674 0.930 . S
C2667 C2666 1.394 . S
C2667 C2668 1.383 . S
C2667 H2675 0.929 . S
C2668 C2667 1.383 . S
C2668 C2669 1.377 . S
C2669 H2653 0.930 . S
C2669 C2668 1.377 . S
C2669 C2670 1.379 . S
C2670 H2654 0.931 . S
C2670 C2664 1.383 . S
C2670 C2669 1.379 . S
H2671 C2665 0.959 . S
H2672 C2665 0.961 . S
H2673 C2665 0.960 . S
H2674 C2666 0.930 . S
H2675 C2667 0.929 . S
H2676 C2684 0.929 . S
H2677 C2686 0.930 . S
H2678 C2688 0.930 . S
H2679 C2691 0.929 . S
H2680 C2694 0.930 . S
H2681 C2696 0.960 . S
H2682 C2696 0.960 . S
H2683 C2696 0.960 . S
C2684 H2676 0.929 . S
C2684 C2685 1.377 . S
C2684 C2686 1.384 . S
C2685 C2684 1.377 . S
C2685 C2691 1.390 . S
C2686 H2677 0.930 . S
C2686 C2684 1.384 . S
C2686 C2687 1.372 . S
C2687 C2686 1.372 . S
C2687 C2688 1.400 . S
C2687 C2692 1.490 . S
C2688 H2678 0.930 . S
C2688 C2687 1.400 . S
C2688 C2691 1.386 . S
H2689 C2705 0.930 . S
H2690 C2706 0.931 . S
C2691 H2679 0.929 . S
C2691 C2685 1.390 . S
C2691 C2688 1.386 . S
C2692 C2687 1.490 . S
C2692 C2694 1.395 . S
C2692 C2695 1.403 . S
H2693 C2699 0.930 . S
C2694 H2680 0.930 . S
C2694 C2692 1.395 . S
C2694 C2697 1.403 . S
C2695 C2692 1.403 . S
C2695 C2696 1.524 . S
C2695 C2699 1.400 . S
C2696 H2681 0.960 . S
C2696 H2682 0.960 . S
C2696 H2683 0.960 . S
C2696 C2695 1.524 . S
C2697 C2694 1.403 . S
C2697 C2698 1.392 . S
C2697 C2701 1.495 . S
C2698 C2697 1.392 . S
C2698 C2699 1.385 . S
C2698 C2700 1.478 . S
C2699 H2693 0.930 . S
C2699 C2695 1.400 . S
C2699 C2698 1.385 . S
C2700 C2698 1.478 . S
C2700 C2702 1.381 . S
C2700 C2706 1.383 . S
C2701 C2697 1.495 . S
C2701 H2707 0.959 . S
C2701 H2708 0.961 . S
C2701 H2709 0.960 . S
C2702 C2700 1.381 . S
C2702 C2703 1.394 . S
C2702 H2710 0.930 . S
C2703 C2702 1.394 . S
C2703 C2704 1.383 . S
C2703 H2711 0.929 . S
C2704 C2703 1.383 . S
C2704 C2705 1.377 . S
C2705 H2689 0.930 . S
C2705 C2704 1.377 . S
C2705 C2706 1.379 . S
C2706 H2690 0.931 . S
C2706 C2700 1.383 . S
C2706 C2705 1.379 . S
H2707 C2701 0.959 . S
H2708 C2701 0.961 . S
H2709 C2701 0.960 . S
H2710 C2702 0.930 . S
H2711 C2703 0.929 . S
H2712 C2720 0.929 . S
H2713 C2722 0.930 . S
H2714 C2724 0.930 . S
H2715 C2727 0.929 . S
H2716 C2730 0.930 . S
H2717 C2732 0.960 . S
H2718 C2732 0.960 . S
H2719 C2732 0.960 . S
C2720 H2712 0.929 . S
C2720 C2721 1.377 . S
C2720 C2722 1.384 . S
C2721 C2720 1.377 . S
C2721 C2727 1.390 . S
C2722 H2713 0.930 . S
C2722 C2720 1.384 . S
C2722 C2723 1.372 . S
C2723 C2722 1.372 . S
C2723 C2724 1.400 . S
C2723 C2728 1.490 . S
C2724 H2714 0.930 . S
C2724 C2723 1.400 . S
C2724 C2727 1.386 . S
H2725 C2741 0.930 . S
H2726 C2742 0.931 . S
C2727 H2715 0.929 . S
C2727 C2721 1.390 . S
C2727 C2724 1.386 . S
C2728 C2723 1.490 . S
C2728 C2730 1.395 . S
C2728 C2731 1.403 . S
H2729 C2735 0.930 . S
C2730 H2716 0.930 . S
C2730 C2728 1.395 . S
C2730 C2733 1.403 . S
C2731 C2728 1.403 . S
C2731 C2732 1.524 . S
C2731 C2735 1.400 . S
C2732 H2717 0.960 . S
C2732 H2718 0.960 . S
C2732 H2719 0.960 . S
C2732 C2731 1.524 . S
C2733 C2730 1.403 . S
C2733 C2734 1.392 . S
C2733 C2737 1.495 . S
C2734 C2733 1.392 . S
C2734 C2735 1.385 . S
C2734 C2736 1.478 . S
C2735 H2729 0.930 . S
C2735 C2731 1.400 . S
C2735 C2734 1.385 . S
C2736 C2734 1.478 . S
C2736 C2738 1.381 . S
C2736 C2742 1.383 . S
C2737 C2733 1.495 . S
C2737 H2743 0.959 . S
C2737 H2744 0.961 . S
C2737 H2745 0.960 . S
C2738 C2736 1.381 . S
C2738 C2739 1.394 . S
C2738 H2746 0.930 . S
C2739 C2738 1.394 . S
C2739 C2740 1.383 . S
C2739 H2747 0.929 . S
C2740 C2739 1.383 . S
C2740 C2741 1.377 . S
C2741 H2725 0.930 . S
C2741 C2740 1.377 . S
C2741 C2742 1.379 . S
C2742 H2726 0.931 . S
C2742 C2736 1.383 . S
C2742 C2741 1.379 . S
H2743 C2737 0.959 . S
H2744 C2737 0.961 . S
H2745 C2737 0.960 . S
H2746 C2738 0.930 . S
H2747 C2739 0.929 . S
H2748 C2756 0.929 . S
H2749 C2758 0.930 . S
H2750 C2760 0.930 . S
H2751 C2763 0.929 . S
H2752 C2766 0.930 . S
H2753 C2768 0.960 . S
H2754 C2768 0.960 . S
H2755 C2768 0.960 . S
C2756 H2748 0.929 . S
C2756 C2757 1.377 . S
C2756 C2758 1.384 . S
C2757 C2756 1.377 . S
C2757 C2763 1.390 . S
C2758 H2749 0.930 . S
C2758 C2756 1.384 . S
C2758 C2759 1.372 . S
C2759 C2758 1.372 . S
C2759 C2760 1.400 . S
C2759 C2764 1.490 . S
C2760 H2750 0.930 . S
C2760 C2759 1.400 . S
C2760 C2763 1.386 . S
H2761 C2777 0.930 . S
H2762 C2778 0.931 . S
C2763 H2751 0.929 . S
C2763 C2757 1.390 . S
C2763 C2760 1.386 . S
C2764 C2759 1.490 . S
C2764 C2766 1.395 . S
C2764 C2767 1.403 . S
H2765 C2771 0.930 . S
C2766 H2752 0.930 . S
C2766 C2764 1.395 . S
C2766 C2769 1.403 . S
C2767 C2764 1.403 . S
C2767 C2768 1.524 . S
C2767 C2771 1.400 . S
C2768 H2753 0.960 . S
C2768 H2754 0.960 . S
C2768 H2755 0.960 . S
C2768 C2767 1.524 . S
C2769 C2766 1.403 . S
C2769 C2770 1.392 . S
C2769 C2773 1.495 . S
C2770 C2769 1.392 . S
C2770 C2771 1.385 . S
C2770 C2772 1.478 . S
C2771 H2765 0.930 . S
C2771 C2767 1.400 . S
C2771 C2770 1.385 . S
C2772 C2770 1.478 . S
C2772 C2774 1.381 . S
C2772 C2778 1.383 . S
C2773 C2769 1.495 . S
C2773 H2779 0.959 . S
C2773 H2780 0.961 . S
C2773 H2781 0.960 . S
C2774 C2772 1.381 . S
C2774 C2775 1.394 . S
C2774 H2782 0.930 . S
C2775 C2774 1.394 . S
C2775 C2776 1.383 . S
C2775 H2783 0.929 . S
C2776 C2775 1.383 . S
C2776 C2777 1.377 . S
C2777 H2761 0.930 . S
C2777 C2776 1.377 . S
C2777 C2778 1.379 . S
C2778 H2762 0.931 . S
C2778 C2772 1.383 . S
C2778 C2777 1.379 . S
H2779 C2773 0.959 . S
H2780 C2773 0.961 . S
H2781 C2773 0.960 . S
H2782 C2774 0.930 . S
H2783 C2775 0.929 . S
H2784 C2792 0.929 . S
H2785 C2794 0.930 . S
H2786 C2796 0.930 1_554 S
H2787 C2799 0.929 . S
H2788 C2802 0.930 . S
H2789 C2804 0.960 . S
H2790 C2804 0.960 . S
H2791 C2804 0.960 . S
C2792 H2784 0.929 . S
C2792 C2793 1.377 . S
C2792 C2794 1.384 . S
C2793 C2792 1.377 . S
C2793 C2799 1.390 . S
C2794 H2785 0.930 . S
C2794 C2792 1.384 . S
C2794 C2795 1.372 . S
C2795 C2794 1.372 . S
C2795 C2796 1.400 . S
C2795 C2800 1.490 . S
C2796 H2786 0.930 1_556 S
C2796 C2795 1.400 . S
C2796 C2799 1.386 . S
H2797 C2813 0.930 . S
H2798 C2814 0.931 . S
C2799 H2787 0.929 . S
C2799 C2793 1.390 . S
C2799 C2796 1.386 . S
C2800 C2795 1.490 . S
C2800 C2802 1.395 1_556 S
C2800 C2803 1.403 . S
H2801 C2807 0.930 . S
C2802 H2788 0.930 . S
C2802 C2800 1.395 1_554 S
C2802 C2805 1.403 . S
C2803 C2800 1.403 . S
C2803 C2804 1.524 . S
C2803 C2807 1.400 . S
C2804 H2789 0.960 . S
C2804 H2790 0.960 . S
C2804 H2791 0.960 . S
C2804 C2803 1.524 . S
C2805 C2802 1.403 . S
C2805 C2806 1.392 . S
C2805 C2809 1.495 . S
C2806 C2805 1.392 . S
C2806 C2807 1.385 1_554 S
C2806 C2808 1.478 . S
C2807 H2801 0.930 . S
C2807 C2803 1.400 . S
C2807 C2806 1.385 1_556 S
C2808 C2806 1.478 . S
C2808 C2810 1.381 . S
C2808 C2814 1.383 . S
C2809 C2805 1.495 . S
C2809 H2815 0.959 . S
C2809 H2816 0.961 . S
C2809 H2817 0.960 . S
C2810 C2808 1.381 . S
C2810 C2811 1.394 . S
C2810 H2818 0.930 1_554 S
C2811 C2810 1.394 . S
C2811 C2812 1.383 . S
C2811 H2819 0.929 1_554 S
C2812 C2811 1.383 . S
C2812 C2813 1.377 . S
C2813 H2797 0.930 . S
C2813 C2812 1.377 . S
C2813 C2814 1.379 . S
C2814 H2798 0.931 . S
C2814 C2808 1.383 . S
C2814 C2813 1.379 . S
H2815 C2809 0.959 . S
H2816 C2809 0.961 . S
H2817 C2809 0.960 . S
H2818 C2810 0.930 1_556 S
H2819 C2811 0.929 1_556 S
H2820 C2828 0.929 . S
H2821 C2830 0.930 . S
H2822 C2832 0.930 . S
H2823 C2835 0.929 . S
H2824 C2838 0.930 . S
H2825 C2840 0.960 . S
H2826 C2840 0.960 . S
H2827 C2840 0.960 . S
C2828 H2820 0.929 . S
C2828 C2829 1.377 . S
C2828 C2830 1.384 . S
C2829 C2828 1.377 . S
C2829 C2835 1.390 . S
C2830 H2821 0.930 . S
C2830 C2828 1.384 . S
C2830 C2831 1.372 . S
C2831 C2830 1.372 . S
C2831 C2832 1.400 . S
C2831 C2836 1.490 . S
C2832 H2822 0.930 . S
C2832 C2831 1.400 . S
C2832 C2835 1.386 . S
H2833 C2849 0.930 . S
H2834 C2850 0.931 . S
C2835 H2823 0.929 . S
C2835 C2829 1.390 . S
C2835 C2832 1.386 . S
C2836 C2831 1.490 . S
C2836 C2838 1.395 . S
C2836 C2839 1.403 . S
H2837 C2843 0.930 . S
C2838 H2824 0.930 . S
C2838 C2836 1.395 . S
C2838 C2841 1.403 . S
C2839 C2836 1.403 . S
C2839 C2840 1.524 . S
C2839 C2843 1.400 . S
C2840 H2825 0.960 . S
C2840 H2826 0.960 . S
C2840 H2827 0.960 . S
C2840 C2839 1.524 . S
C2841 C2838 1.403 . S
C2841 C2842 1.392 . S
C2841 C2845 1.495 . S
C2842 C2841 1.392 . S
C2842 C2843 1.385 . S
C2842 C2844 1.478 . S
C2843 H2837 0.930 . S
C2843 C2839 1.400 . S
C2843 C2842 1.385 . S
C2844 C2842 1.478 . S
C2844 C2846 1.381 . S
C2844 C2850 1.383 . S
C2845 C2841 1.495 . S
C2845 H2851 0.959 . S
C2845 H2852 0.961 . S
C2845 H2853 0.960 . S
C2846 C2844 1.381 . S
C2846 C2847 1.394 . S
C2846 H2854 0.930 . S
C2847 C2846 1.394 . S
C2847 C2848 1.383 . S
C2847 H2855 0.929 . S
C2848 C2847 1.383 . S
C2848 C2849 1.377 . S
C2849 H2833 0.930 . S
C2849 C2848 1.377 . S
C2849 C2850 1.379 . S
C2850 H2834 0.931 . S
C2850 C2844 1.383 . S
C2850 C2849 1.379 . S
H2851 C2845 0.959 . S
H2852 C2845 0.961 . S
H2853 C2845 0.960 . S
H2854 C2846 0.930 . S
H2855 C2847 0.929 . S
H2856 C2864 0.929 . S
H2857 C2866 0.930 . S
H2858 C2868 0.930 . S
H2859 C2871 0.929 . S
H2860 C2874 0.930 . S
H2861 C2876 0.960 . S
H2862 C2876 0.960 . S
H2863 C2876 0.960 . S
C2864 H2856 0.929 . S
C2864 C2865 1.377 . S
C2864 C2866 1.384 . S
C2865 C2864 1.377 . S
C2865 C2871 1.390 . S
C2866 H2857 0.930 . S
C2866 C2864 1.384 . S
C2866 C2867 1.372 . S
C2867 C2866 1.372 . S
C2867 C2868 1.400 . S
C2867 C2872 1.490 . S
C2868 H2858 0.930 . S
C2868 C2867 1.400 . S
C2868 C2871 1.386 . S
H2869 C2885 0.930 . S
H2870 C2886 0.931 . S
C2871 H2859 0.929 . S
C2871 C2865 1.390 . S
C2871 C2868 1.386 . S
C2872 C2867 1.490 . S
C2872 C2874 1.395 . S
C2872 C2875 1.403 . S
H2873 C2879 0.930 . S
C2874 H2860 0.930 . S
C2874 C2872 1.395 . S
C2874 C2877 1.403 . S
C2875 C2872 1.403 . S
C2875 C2876 1.524 . S
C2875 C2879 1.400 . S
C2876 H2861 0.960 . S
C2876 H2862 0.960 . S
C2876 H2863 0.960 . S
C2876 C2875 1.524 . S
C2877 C2874 1.403 . S
C2877 C2878 1.392 . S
C2877 C2881 1.495 . S
C2878 C2877 1.392 . S
C2878 C2879 1.385 . S
C2878 C2880 1.478 . S
C2879 H2873 0.930 . S
C2879 C2875 1.400 . S
C2879 C2878 1.385 . S
C2880 C2878 1.478 . S
C2880 C2882 1.381 . S
C2880 C2886 1.383 . S
C2881 C2877 1.495 . S
C2881 H2887 0.959 . S
C2881 H2888 0.961 . S
C2881 H2889 0.960 . S
C2882 C2880 1.381 . S
C2882 C2883 1.394 . S
C2882 H2890 0.930 . S
C2883 C2882 1.394 . S
C2883 C2884 1.383 . S
C2883 H2891 0.929 . S
C2884 C2883 1.383 . S
C2884 C2885 1.377 . S
C2885 H2869 0.930 . S
C2885 C2884 1.377 . S
C2885 C2886 1.379 . S
C2886 H2870 0.931 . S
C2886 C2880 1.383 . S
C2886 C2885 1.379 . S
H2887 C2881 0.959 . S
H2888 C2881 0.961 . S
H2889 C2881 0.960 . S
H2890 C2882 0.930 . S
H2891 C2883 0.929 . S
H2892 C2900 0.929 . S
H2893 C2902 0.930 . S
H2894 C2904 0.930 . S
H2895 C2907 0.929 . S
H2896 C2910 0.930 . S
H2897 C2912 0.960 . S
H2898 C2912 0.960 . S
H2899 C2912 0.960 . S
C2900 H2892 0.929 . S
C2900 C2901 1.377 . S
C2900 C2902 1.384 . S
C2901 C2900 1.377 . S
C2901 C2907 1.390 . S
C2902 H2893 0.930 . S
C2902 C2900 1.384 . S
C2902 C2903 1.372 . S
C2903 C2902 1.372 . S
C2903 C2904 1.400 . S
C2903 C2908 1.490 . S
C2904 H2894 0.930 . S
C2904 C2903 1.400 . S
C2904 C2907 1.386 . S
H2905 C2921 0.930 . S
H2906 C2922 0.931 . S
C2907 H2895 0.929 . S
C2907 C2901 1.390 . S
C2907 C2904 1.386 . S
C2908 C2903 1.490 . S
C2908 C2910 1.395 . S
C2908 C2911 1.403 . S
H2909 C2915 0.930 . S
C2910 H2896 0.930 . S
C2910 C2908 1.395 . S
C2910 C2913 1.403 . S
C2911 C2908 1.403 . S
C2911 C2912 1.524 . S
C2911 C2915 1.400 . S
C2912 H2897 0.960 . S
C2912 H2898 0.960 . S
C2912 H2899 0.960 . S
C2912 C2911 1.524 . S
C2913 C2910 1.403 . S
C2913 C2914 1.392 . S
C2913 C2917 1.495 . S
C2914 C2913 1.392 . S
C2914 C2915 1.385 . S
C2914 C2916 1.478 . S
C2915 H2909 0.930 . S
C2915 C2911 1.400 . S
C2915 C2914 1.385 . S
C2916 C2914 1.478 . S
C2916 C2918 1.381 . S
C2916 C2922 1.383 . S
C2917 C2913 1.495 . S
C2917 H2923 0.959 . S
C2917 H2924 0.961 . S
C2917 H2925 0.960 . S
C2918 C2916 1.381 . S
C2918 C2919 1.394 . S
C2918 H2926 0.930 . S
C2919 C2918 1.394 . S
C2919 C2920 1.383 . S
C2919 H2927 0.929 . S
C2920 C2919 1.383 . S
C2920 C2921 1.377 . S
C2921 H2905 0.930 . S
C2921 C2920 1.377 . S
C2921 C2922 1.379 . S
C2922 H2906 0.931 . S
C2922 C2916 1.383 . S
C2922 C2921 1.379 . S
H2923 C2917 0.959 . S
H2924 C2917 0.961 . S
H2925 C2917 0.960 . S
H2926 C2918 0.930 . S
H2927 C2919 0.929 . S
H2928 C2936 0.929 . S
H2929 C2938 0.930 . S
H2930 C2940 0.930 . S
H2931 C2943 0.929 . S
H2932 C2946 0.930 . S
H2933 C2948 0.960 . S
H2934 C2948 0.960 . S
H2935 C2948 0.960 . S
C2936 H2928 0.929 . S
C2936 C2937 1.377 1_554 S
C2936 C2938 1.384 . S
C2937 C2936 1.377 1_556 S
C2937 C2943 1.390 . S
C2938 H2929 0.930 . S
C2938 C2936 1.384 . S
C2938 C2939 1.372 1_554 S
C2939 C2938 1.372 1_556 S
C2939 C2940 1.400 . S
C2939 C2944 1.490 . S
C2940 H2930 0.930 . S
C2940 C2939 1.400 . S
C2940 C2943 1.386 . S
H2941 C2957 0.930 . S
H2942 C2958 0.931 . S
C2943 H2931 0.929 . S
C2943 C2937 1.390 . S
C2943 C2940 1.386 . S
C2944 C2939 1.490 . S
C2944 C2946 1.395 1_556 S
C2944 C2947 1.403 . S
H2945 C2951 0.930 . S
C2946 H2932 0.930 . S
C2946 C2944 1.395 1_554 S
C2946 C2949 1.403 . S
C2947 C2944 1.403 . S
C2947 C2948 1.524 . S
C2947 C2951 1.400 . S
C2948 H2933 0.960 . S
C2948 H2934 0.960 . S
C2948 H2935 0.960 . S
C2948 C2947 1.524 . S
C2949 C2946 1.403 . S
C2949 C2950 1.392 . S
C2949 C2953 1.495 . S
C2950 C2949 1.392 . S
C2950 C2951 1.385 1_554 S
C2950 C2952 1.478 . S
C2951 H2945 0.930 . S
C2951 C2947 1.400 . S
C2951 C2950 1.385 1_556 S
C2952 C2950 1.478 . S
C2952 C2954 1.381 . S
C2952 C2958 1.383 1_554 S
C2953 C2949 1.495 . S
C2953 H2959 0.959 . S
C2953 H2960 0.961 . S
C2953 H2961 0.960 . S
C2954 C2952 1.381 . S
C2954 C2955 1.394 . S
C2954 H2962 0.930 . S
C2955 C2954 1.394 . S
C2955 C2956 1.383 . S
C2955 H2963 0.929 . S
C2956 C2955 1.383 . S
C2956 C2957 1.377 1_554 S
C2957 H2941 0.930 . S
C2957 C2956 1.377 1_556 S
C2957 C2958 1.379 . S
C2958 H2942 0.931 . S
C2958 C2952 1.383 1_556 S
C2958 C2957 1.379 . S
H2959 C2953 0.959 . S
H2960 C2953 0.961 . S
H2961 C2953 0.960 . S
H2962 C2954 0.930 . S
H2963 C2955 0.929 . S
H2964 C2972 0.929 . S
H2965 C2974 0.930 . S
H2966 C2976 0.930 . S
H2967 C2979 0.929 . S
H2968 C2982 0.930 . S
H2969 C2984 0.960 . S
H2970 C2984 0.960 . S
H2971 C2984 0.960 . S
C2972 H2964 0.929 . S
C2972 C2973 1.377 . S
C2972 C2974 1.384 . S
C2973 C2972 1.377 . S
C2973 C2979 1.390 . S
C2974 H2965 0.930 . S
C2974 C2972 1.384 . S
C2974 C2975 1.372 . S
C2975 C2974 1.372 . S
C2975 C2976 1.400 . S
C2975 C2980 1.490 . S
C2976 H2966 0.930 . S
C2976 C2975 1.400 . S
C2976 C2979 1.386 . S
H2977 C2993 0.930 . S
H2978 C2994 0.931 . S
C2979 H2967 0.929 . S
C2979 C2973 1.390 . S
C2979 C2976 1.386 . S
C2980 C2975 1.490 . S
C2980 C2982 1.395 . S
C2980 C2983 1.403 . S
H2981 C2987 0.930 . S
C2982 H2968 0.930 . S
C2982 C2980 1.395 . S
C2982 C2985 1.403 . S
C2983 C2980 1.403 . S
C2983 C2984 1.524 . S
C2983 C2987 1.400 . S
C2984 H2969 0.960 . S
C2984 H2970 0.960 . S
C2984 H2971 0.960 . S
C2984 C2983 1.524 . S
C2985 C2982 1.403 . S
C2985 C2986 1.392 . S
C2985 C2989 1.495 . S
C2986 C2985 1.392 . S
C2986 C2987 1.385 . S
C2986 C2988 1.478 . S
C2987 H2981 0.930 . S
C2987 C2983 1.400 . S
C2987 C2986 1.385 . S
C2988 C2986 1.478 . S
C2988 C2990 1.381 . S
C2988 C2994 1.383 . S
C2989 C2985 1.495 . S
C2989 H2995 0.959 . S
C2989 H2996 0.961 . S
C2989 H2997 0.960 . S
C2990 C2988 1.381 . S
C2990 C2991 1.394 . S
C2990 H2998 0.930 . S
C2991 C2990 1.394 . S
C2991 C2992 1.383 . S
C2991 H2999 0.929 . S
C2992 C2991 1.383 . S
C2992 C2993 1.377 . S
C2993 H2977 0.930 . S
C2993 C2992 1.377 . S
C2993 C2994 1.379 . S
C2994 H2978 0.931 . S
C2994 C2988 1.383 . S
C2994 C2993 1.379 . S
H2995 C2989 0.959 . S
H2996 C2989 0.961 . S
H2997 C2989 0.960 . S
H2998 C2990 0.930 . S
H2999 C2991 0.929 . S
H3000 C3008 0.929 . S
H3001 C3010 0.930 . S
H3002 C3012 0.930 . S
H3003 C3015 0.929 . S
H3004 C3018 0.930 . S
H3005 C3020 0.960 . S
H3006 C3020 0.960 . S
H3007 C3020 0.960 . S
C3008 H3000 0.929 . S
C3008 C3009 1.377 . S
C3008 C3010 1.384 . S
C3009 C3008 1.377 . S
C3009 C3015 1.390 . S
C3010 H3001 0.930 . S
C3010 C3008 1.384 . S
C3010 C3011 1.372 . S
C3011 C3010 1.372 . S
C3011 C3012 1.400 . S
C3011 C3016 1.490 . S
C3012 H3002 0.930 . S
C3012 C3011 1.400 . S
C3012 C3015 1.386 . S
H3013 C3029 0.930 . S
H3014 C3030 0.931 . S
C3015 H3003 0.929 . S
C3015 C3009 1.390 . S
C3015 C3012 1.386 . S
C3016 C3011 1.490 . S
C3016 C3018 1.395 . S
C3016 C3019 1.403 . S
H3017 C3023 0.930 . S
C3018 H3004 0.930 . S
C3018 C3016 1.395 . S
C3018 C3021 1.403 . S
C3019 C3016 1.403 . S
C3019 C3020 1.524 . S
C3019 C3023 1.400 . S
C3020 H3005 0.960 . S
C3020 H3006 0.960 . S
C3020 H3007 0.960 . S
C3020 C3019 1.524 . S
C3021 C3018 1.403 . S
C3021 C3022 1.392 . S
C3021 C3025 1.495 . S
C3022 C3021 1.392 . S
C3022 C3023 1.385 . S
C3022 C3024 1.478 . S
C3023 H3017 0.930 . S
C3023 C3019 1.400 . S
C3023 C3022 1.385 . S
C3024 C3022 1.478 . S
C3024 C3026 1.381 . S
C3024 C3030 1.383 . S
C3025 C3021 1.495 . S
C3025 H3031 0.959 . S
C3025 H3032 0.961 . S
C3025 H3033 0.960 . S
C3026 C3024 1.381 . S
C3026 C3027 1.394 . S
C3026 H3034 0.930 . S
C3027 C3026 1.394 . S
C3027 C3028 1.383 . S
C3027 H3035 0.929 . S
C3028 C3027 1.383 . S
C3028 C3029 1.377 . S
C3029 H3013 0.930 . S
C3029 C3028 1.377 . S
C3029 C3030 1.379 . S
C3030 H3014 0.931 . S
C3030 C3024 1.383 . S
C3030 C3029 1.379 . S
H3031 C3025 0.959 . S
H3032 C3025 0.961 . S
H3033 C3025 0.960 . S
H3034 C3026 0.930 . S
H3035 C3027 0.929 . S
H3036 C3044 0.929 . S
H3037 C3046 0.930 . S
H3038 C3048 0.930 . S
H3039 C3051 0.929 . S
H3040 C3054 0.930 . S
H3041 C3056 0.960 . S
H3042 C3056 0.960 . S
H3043 C3056 0.960 . S
C3044 H3036 0.929 . S
C3044 C3045 1.377 . S
C3044 C3046 1.384 . S
C3045 C3044 1.377 . S
C3045 C3051 1.390 . S
C3046 H3037 0.930 . S
C3046 C3044 1.384 . S
C3046 C3047 1.372 . S
C3047 C3046 1.372 . S
C3047 C3048 1.400 . S
C3047 C3052 1.490 . S
C3048 H3038 0.930 . S
C3048 C3047 1.400 . S
C3048 C3051 1.386 . S
H3049 C3065 0.930 . S
H3050 C3066 0.931 . S
C3051 H3039 0.929 . S
C3051 C3045 1.390 . S
C3051 C3048 1.386 . S
C3052 C3047 1.490 . S
C3052 C3054 1.395 . S
C3052 C3055 1.403 . S
H3053 C3059 0.930 . S
C3054 H3040 0.930 . S
C3054 C3052 1.395 . S
C3054 C3057 1.403 . S
C3055 C3052 1.403 . S
C3055 C3056 1.524 . S
C3055 C3059 1.400 . S
C3056 H3041 0.960 . S
C3056 H3042 0.960 . S
C3056 H3043 0.960 . S
C3056 C3055 1.524 . S
C3057 C3054 1.403 . S
C3057 C3058 1.392 . S
C3057 C3061 1.495 . S
C3058 C3057 1.392 . S
C3058 C3059 1.385 . S
C3058 C3060 1.478 . S
C3059 H3053 0.930 . S
C3059 C3055 1.400 . S
C3059 C3058 1.385 . S
C3060 C3058 1.478 . S
C3060 C3062 1.381 . S
C3060 C3066 1.383 . S
C3061 C3057 1.495 . S
C3061 H3067 0.959 . S
C3061 H3068 0.961 . S
C3061 H3069 0.960 . S
C3062 C3060 1.381 . S
C3062 C3063 1.394 . S
C3062 H3070 0.930 . S
C3063 C3062 1.394 . S
C3063 C3064 1.383 . S
C3063 H3071 0.929 . S
C3064 C3063 1.383 . S
C3064 C3065 1.377 . S
C3065 H3049 0.930 . S
C3065 C3064 1.377 . S
C3065 C3066 1.379 . S
C3066 H3050 0.931 . S
C3066 C3060 1.383 . S
C3066 C3065 1.379 . S
H3067 C3061 0.959 . S
H3068 C3061 0.961 . S
H3069 C3061 0.960 . S
H3070 C3062 0.930 . S
H3071 C3063 0.929 . S
H3072 C3080 0.929 . S
H3073 C3082 0.930 . S
H3074 C3084 0.930 . S
H3075 C3087 0.929 . S
H3076 C3090 0.930 . S
H3077 C3092 0.960 . S
H3078 C3092 0.960 . S
H3079 C3092 0.960 . S
C3080 H3072 0.929 . S
C3080 C3081 1.377 . S
C3080 C3082 1.384 . S
C3081 C3080 1.377 . S
C3081 C3087 1.390 . S
C3082 H3073 0.930 . S
C3082 C3080 1.384 . S
C3082 C3083 1.372 . S
C3083 C3082 1.372 . S
C3083 C3084 1.400 . S
C3083 C3088 1.490 . S
C3084 H3074 0.930 . S
C3084 C3083 1.400 . S
C3084 C3087 1.386 . S
H3085 C3101 0.930 . S
H3086 C3102 0.931 . S
C3087 H3075 0.929 . S
C3087 C3081 1.390 . S
C3087 C3084 1.386 . S
C3088 C3083 1.490 . S
C3088 C3090 1.395 . S
C3088 C3091 1.403 . S
H3089 C3095 0.930 . S
C3090 H3076 0.930 . S
C3090 C3088 1.395 . S
C3090 C3093 1.403 1_565 S
C3091 C3088 1.403 . S
C3091 C3092 1.524 . S
C3091 C3095 1.400 1_565 S
C3092 H3077 0.960 . S
C3092 H3078 0.960 . S
C3092 H3079 0.960 . S
C3092 C3091 1.524 . S
C3093 C3090 1.403 1_545 S
C3093 C3094 1.392 . S
C3093 C3097 1.495 . S
C3094 C3093 1.392 . S
C3094 C3095 1.385 . S
C3094 C3096 1.478 . S
C3095 H3089 0.930 . S
C3095 C3091 1.400 1_545 S
C3095 C3094 1.385 . S
C3096 C3094 1.478 . S
C3096 C3098 1.381 . S
C3096 C3102 1.383 . S
C3097 C3093 1.495 . S
C3097 H3103 0.959 . S
C3097 H3104 0.961 . S
C3097 H3105 0.960 . S
C3098 C3096 1.381 . S
C3098 C3099 1.394 . S
C3098 H3106 0.930 . S
C3099 C3098 1.394 . S
C3099 C3100 1.383 . S
C3099 H3107 0.929 . S
C3100 C3099 1.383 . S
C3100 C3101 1.377 . S
C3101 H3085 0.930 . S
C3101 C3100 1.377 . S
C3101 C3102 1.379 . S
C3102 H3086 0.931 . S
C3102 C3096 1.383 . S
C3102 C3101 1.379 . S
H3103 C3097 0.959 . S
H3104 C3097 0.961 . S
H3105 C3097 0.960 . S
H3106 C3098 0.930 . S
H3107 C3099 0.929 . S
H3108 C3116 0.929 . S
H3109 C3118 0.930 . S
H3110 C3120 0.930 . S
H3111 C3123 0.929 . S
H3112 C3126 0.930 . S
H3113 C3128 0.960 . S
H3114 C3128 0.960 . S
H3115 C3128 0.960 . S
C3116 H3108 0.929 . S
C3116 C3117 1.377 . S
C3116 C3118 1.384 . S
C3117 C3116 1.377 . S
C3117 C3123 1.390 . S
C3118 H3109 0.930 . S
C3118 C3116 1.384 . S
C3118 C3119 1.372 . S
C3119 C3118 1.372 . S
C3119 C3120 1.400 . S
C3119 C3124 1.490 . S
C3120 H3110 0.930 . S
C3120 C3119 1.400 . S
C3120 C3123 1.386 . S
H3121 C3137 0.930 . S
H3122 C3138 0.931 . S
C3123 H3111 0.929 . S
C3123 C3117 1.390 . S
C3123 C3120 1.386 . S
C3124 C3119 1.490 . S
C3124 C3126 1.395 . S
C3124 C3127 1.403 . S
H3125 C3131 0.930 . S
C3126 H3112 0.930 . S
C3126 C3124 1.395 . S
C3126 C3129 1.403 . S
C3127 C3124 1.403 . S
C3127 C3128 1.524 . S
C3127 C3131 1.400 . S
C3128 H3113 0.960 . S
C3128 H3114 0.960 . S
C3128 H3115 0.960 . S
C3128 C3127 1.524 . S
C3129 C3126 1.403 . S
C3129 C3130 1.392 . S
C3129 C3133 1.495 . S
C3130 C3129 1.392 . S
C3130 C3131 1.385 . S
C3130 C3132 1.478 . S
C3131 H3125 0.930 . S
C3131 C3127 1.400 . S
C3131 C3130 1.385 . S
C3132 C3130 1.478 . S
C3132 C3134 1.381 . S
C3132 C3138 1.383 . S
C3133 C3129 1.495 . S
C3133 H3139 0.959 . S
C3133 H3140 0.961 . S
C3133 H3141 0.960 . S
C3134 C3132 1.381 . S
C3134 C3135 1.394 . S
C3134 H3142 0.930 . S
C3135 C3134 1.394 . S
C3135 C3136 1.383 . S
C3135 H3143 0.929 . S
C3136 C3135 1.383 . S
C3136 C3137 1.377 . S
C3137 H3121 0.930 . S
C3137 C3136 1.377 . S
C3137 C3138 1.379 . S
C3138 H3122 0.931 . S
C3138 C3132 1.383 . S
C3138 C3137 1.379 . S
H3139 C3133 0.959 . S
H3140 C3133 0.961 . S
H3141 C3133 0.960 . S
H3142 C3134 0.930 . S
H3143 C3135 0.929 . S
H3144 C3152 0.929 . S
H3145 C3154 0.930 . S
H3146 C3156 0.930 . S
H3147 C3159 0.929 . S
H3148 C3162 0.930 . S
H3149 C3164 0.960 . S
H3150 C3164 0.960 . S
H3151 C3164 0.960 . S
C3152 H3144 0.929 . S
C3152 C3153 1.377 . S
C3152 C3154 1.384 . S
C3153 C3152 1.377 . S
C3153 C3159 1.390 1_554 S
C3154 H3145 0.930 . S
C3154 C3152 1.384 . S
C3154 C3155 1.372 . S
C3155 C3154 1.372 . S
C3155 C3156 1.400 1_554 S
C3155 C3160 1.490 . S
C3156 H3146 0.930 . S
C3156 C3155 1.400 1_556 S
C3156 C3159 1.386 . S
H3157 C3173 0.930 . S
H3158 C3174 0.931 . S
C3159 H3147 0.929 . S
C3159 C3153 1.390 1_556 S
C3159 C3156 1.386 . S
C3160 C3155 1.490 . S
C3160 C3162 1.395 . S
C3160 C3163 1.403 1_554 S
H3161 C3167 0.930 . S
C3162 H3148 0.930 . S
C3162 C3160 1.395 . S
C3162 C3165 1.403 1_565 S
C3163 C3160 1.403 1_556 S
C3163 C3164 1.524 . S
C3163 C3167 1.400 1_565 S
C3164 H3149 0.960 . S
C3164 H3150 0.960 . S
C3164 H3151 0.960 . S
C3164 C3163 1.524 . S
C3165 C3162 1.403 1_545 S
C3165 C3166 1.392 . S
C3165 C3169 1.495 . S
C3166 C3165 1.392 . S
C3166 C3167 1.385 1_554 S
C3166 C3168 1.478 1_554 S
C3167 H3161 0.930 . S
C3167 C3163 1.400 1_545 S
C3167 C3166 1.385 1_556 S
C3168 C3166 1.478 1_556 S
C3168 C3170 1.381 1_556 S
C3168 C3174 1.383 . S
C3169 C3165 1.495 . S
C3169 H3175 0.959 . S
C3169 H3176 0.961 . S
C3169 H3177 0.960 . S
C3170 C3168 1.381 1_554 S
C3170 C3171 1.394 . S
C3170 H3178 0.930 . S
C3171 C3170 1.394 . S
C3171 C3172 1.383 1_554 S
C3171 H3179 0.929 . S
C3172 C3171 1.383 1_556 S
C3172 C3173 1.377 . S
C3173 H3157 0.930 . S
C3173 C3172 1.377 . S
C3173 C3174 1.379 . S
C3174 H3158 0.931 . S
C3174 C3168 1.383 . S
C3174 C3173 1.379 . S
H3175 C3169 0.959 . S
H3176 C3169 0.961 . S
H3177 C3169 0.960 . S
H3178 C3170 0.930 . S
H3179 C3171 0.929 . S
H3180 C3188 0.929 . S
H3181 C3190 0.930 . S
H3182 C3192 0.930 . S
H3183 C3195 0.929 . S
H3184 C3198 0.930 . S
H3185 C3200 0.960 . S
H3186 C3200 0.960 . S
H3187 C3200 0.960 . S
C3188 H3180 0.929 . S
C3188 C3189 1.377 . S
C3188 C3190 1.384 . S
C3189 C3188 1.377 . S
C3189 C3195 1.390 . S
C3190 H3181 0.930 . S
C3190 C3188 1.384 . S
C3190 C3191 1.372 . S
C3191 C3190 1.372 . S
C3191 C3192 1.400 . S
C3191 C3196 1.490 . S
C3192 H3182 0.930 . S
C3192 C3191 1.400 . S
C3192 C3195 1.386 . S
H3193 C3209 0.930 . S
H3194 C3210 0.931 . S
C3195 H3183 0.929 . S
C3195 C3189 1.390 . S
C3195 C3192 1.386 . S
C3196 C3191 1.490 . S
C3196 C3198 1.395 . S
C3196 C3199 1.403 . S
H3197 C3203 0.930 . S
C3198 H3184 0.930 . S
C3198 C3196 1.395 . S
C3198 C3201 1.403 . S
C3199 C3196 1.403 . S
C3199 C3200 1.524 . S
C3199 C3203 1.400 . S
C3200 H3185 0.960 . S
C3200 H3186 0.960 . S
C3200 H3187 0.960 . S
C3200 C3199 1.524 . S
C3201 C3198 1.403 . S
C3201 C3202 1.392 . S
C3201 C3205 1.495 . S
C3202 C3201 1.392 . S
C3202 C3203 1.385 . S
C3202 C3204 1.478 . S
C3203 H3197 0.930 . S
C3203 C3199 1.400 . S
C3203 C3202 1.385 . S
C3204 C3202 1.478 . S
C3204 C3206 1.381 . S
C3204 C3210 1.383 . S
C3205 C3201 1.495 . S
C3205 H3211 0.959 . S
C3205 H3212 0.961 . S
C3205 H3213 0.960 . S
C3206 C3204 1.381 . S
C3206 C3207 1.394 . S
C3206 H3214 0.930 . S
C3207 C3206 1.394 . S
C3207 C3208 1.383 . S
C3207 H3215 0.929 . S
C3208 C3207 1.383 . S
C3208 C3209 1.377 . S
C3209 H3193 0.930 . S
C3209 C3208 1.377 . S
C3209 C3210 1.379 . S
C3210 H3194 0.931 . S
C3210 C3204 1.383 . S
C3210 C3209 1.379 . S
H3211 C3205 0.959 . S
H3212 C3205 0.961 . S
H3213 C3205 0.960 . S
H3214 C3206 0.930 . S
H3215 C3207 0.929 . S
H3216 C3224 0.929 . S
H3217 C3226 0.930 . S
H3218 C3228 0.930 . S
H3219 C3231 0.929 . S
H3220 C3234 0.930 . S
H3221 C3236 0.960 . S
H3222 C3236 0.960 . S
H3223 C3236 0.960 . S
C3224 H3216 0.929 . S
C3224 C3225 1.377 . S
C3224 C3226 1.384 . S
C3225 C3224 1.377 . S
C3225 C3231 1.390 . S
C3226 H3217 0.930 . S
C3226 C3224 1.384 . S
C3226 C3227 1.372 . S
C3227 C3226 1.372 . S
C3227 C3228 1.400 . S
C3227 C3232 1.490 . S
C3228 H3218 0.930 . S
C3228 C3227 1.400 . S
C3228 C3231 1.386 . S
H3229 C3245 0.930 . S
H3230 C3246 0.931 . S
C3231 H3219 0.929 . S
C3231 C3225 1.390 . S
C3231 C3228 1.386 . S
C3232 C3227 1.490 . S
C3232 C3234 1.395 . S
C3232 C3235 1.403 . S
H3233 C3239 0.930 . S
C3234 H3220 0.930 . S
C3234 C3232 1.395 . S
C3234 C3237 1.403 1_545 S
C3235 C3232 1.403 . S
C3235 C3236 1.524 . S
C3235 C3239 1.400 1_545 S
C3236 H3221 0.960 . S
C3236 H3222 0.960 . S
C3236 H3223 0.960 . S
C3236 C3235 1.524 . S
C3237 C3234 1.403 1_565 S
C3237 C3238 1.392 . S
C3237 C3241 1.495 . S
C3238 C3237 1.392 . S
C3238 C3239 1.385 . S
C3238 C3240 1.478 . S
C3239 H3233 0.930 . S
C3239 C3235 1.400 1_565 S
C3239 C3238 1.385 . S
C3240 C3238 1.478 . S
C3240 C3242 1.381 . S
C3240 C3246 1.383 . S
C3241 C3237 1.495 . S
C3241 H3247 0.959 . S
C3241 H3248 0.961 . S
C3241 H3249 0.960 . S
C3242 C3240 1.381 . S
C3242 C3243 1.394 . S
C3242 H3250 0.930 . S
C3243 C3242 1.394 . S
C3243 C3244 1.383 . S
C3243 H3251 0.929 . S
C3244 C3243 1.383 . S
C3244 C3245 1.377 . S
C3245 H3229 0.930 . S
C3245 C3244 1.377 . S
C3245 C3246 1.379 . S
C3246 H3230 0.931 . S
C3246 C3240 1.383 . S
C3246 C3245 1.379 . S
H3247 C3241 0.959 . S
H3248 C3241 0.961 . S
H3249 C3241 0.960 . S
H3250 C3242 0.930 . S
H3251 C3243 0.929 . S
H3252 C3260 0.929 . S
H3253 C3262 0.930 . S
H3254 C3264 0.930 . S
H3255 C3267 0.929 . S
H3256 C3270 0.930 . S
H3257 C3272 0.960 . S
H3258 C3272 0.960 . S
H3259 C3272 0.960 . S
C3260 H3252 0.929 . S
C3260 C3261 1.377 . S
C3260 C3262 1.384 . S
C3261 C3260 1.377 . S
C3261 C3267 1.390 . S
C3262 H3253 0.930 . S
C3262 C3260 1.384 . S
C3262 C3263 1.372 . S
C3263 C3262 1.372 . S
C3263 C3264 1.400 . S
C3263 C3268 1.490 . S
C3264 H3254 0.930 . S
C3264 C3263 1.400 . S
C3264 C3267 1.386 . S
H3265 C3281 0.930 . S
H3266 C3282 0.931 . S
C3267 H3255 0.929 . S
C3267 C3261 1.390 . S
C3267 C3264 1.386 . S
C3268 C3263 1.490 . S
C3268 C3270 1.395 . S
C3268 C3271 1.403 . S
H3269 C3275 0.930 . S
C3270 H3256 0.930 . S
C3270 C3268 1.395 . S
C3270 C3273 1.403 . S
C3271 C3268 1.403 . S
C3271 C3272 1.524 . S
C3271 C3275 1.400 . S
C3272 H3257 0.960 . S
C3272 H3258 0.960 . S
C3272 H3259 0.960 . S
C3272 C3271 1.524 . S
C3273 C3270 1.403 . S
C3273 C3274 1.392 . S
C3273 C3277 1.495 . S
C3274 C3273 1.392 . S
C3274 C3275 1.385 . S
C3274 C3276 1.478 . S
C3275 H3269 0.930 . S
C3275 C3271 1.400 . S
C3275 C3274 1.385 . S
C3276 C3274 1.478 . S
C3276 C3278 1.381 . S
C3276 C3282 1.383 . S
C3277 C3273 1.495 . S
C3277 H3283 0.959 . S
C3277 H3284 0.961 . S
C3277 H3285 0.960 . S
C3278 C3276 1.381 . S
C3278 C3279 1.394 . S
C3278 H3286 0.930 . S
C3279 C3278 1.394 . S
C3279 C3280 1.383 . S
C3279 H3287 0.929 . S
C3280 C3279 1.383 . S
C3280 C3281 1.377 . S
C3281 H3265 0.930 . S
C3281 C3280 1.377 . S
C3281 C3282 1.379 . S
C3282 H3266 0.931 . S
C3282 C3276 1.383 . S
C3282 C3281 1.379 . S
H3283 C3277 0.959 . S
H3284 C3277 0.961 . S
H3285 C3277 0.960 . S
H3286 C3278 0.930 . S
H3287 C3279 0.929 . S
H3288 C3296 0.929 . S
H3289 C3298 0.930 . S
H3290 C3300 0.930 . S
H3291 C3303 0.929 . S
H3292 C3306 0.930 . S
H3293 C3308 0.960 . S
H3294 C3308 0.960 . S
H3295 C3308 0.960 . S
C3296 H3288 0.929 . S
C3296 C3297 1.377 . S
C3296 C3298 1.384 . S
C3297 C3296 1.377 . S
C3297 C3303 1.390 . S
C3298 H3289 0.930 . S
C3298 C3296 1.384 . S
C3298 C3299 1.372 . S
C3299 C3298 1.372 . S
C3299 C3300 1.400 . S
C3299 C3304 1.490 . S
C3300 H3290 0.930 . S
C3300 C3299 1.400 . S
C3300 C3303 1.386 . S
H3301 C3317 0.930 . S
H3302 C3318 0.931 . S
C3303 H3291 0.929 . S
C3303 C3297 1.390 . S
C3303 C3300 1.386 . S
C3304 C3299 1.490 . S
C3304 C3306 1.395 1_554 S
C3304 C3307 1.403 . S
H3305 C3311 0.930 . S
C3306 H3292 0.930 . S
C3306 C3304 1.395 1_556 S
C3306 C3309 1.403 1_565 S
C3307 C3304 1.403 . S
C3307 C3308 1.524 . S
C3307 C3311 1.400 1_565 S
C3308 H3293 0.960 . S
C3308 H3294 0.960 . S
C3308 H3295 0.960 . S
C3308 C3307 1.524 . S
C3309 C3306 1.403 1_545 S
C3309 C3310 1.392 . S
C3309 C3313 1.495 . S
C3310 C3309 1.392 . S
C3310 C3311 1.385 1_556 S
C3310 C3312 1.478 . S
C3311 H3305 0.930 . S
C3311 C3307 1.400 1_545 S
C3311 C3310 1.385 1_554 S
C3312 C3310 1.478 . S
C3312 C3314 1.381 . S
C3312 C3318 1.383 . S
C3313 C3309 1.495 . S
C3313 H3319 0.959 . S
C3313 H3320 0.961 . S
C3313 H3321 0.960 . S
C3314 C3312 1.381 . S
C3314 C3315 1.394 . S
C3314 H3322 0.933 . S
C3315 C3314 1.394 . S
C3315 C3316 1.383 . S
C3315 H3323 0.929 . S
C3316 C3315 1.383 . S
C3316 C3317 1.377 . S
C3317 H3301 0.930 . S
C3317 C3316 1.377 . S
C3317 C3318 1.379 . S
C3318 H3302 0.931 . S
C3318 C3312 1.383 . S
C3318 C3317 1.379 . S
H3319 C3313 0.959 . S
H3320 C3313 0.961 . S
H3321 C3313 0.960 . S
H3322 C3314 0.933 . S
H3323 C3315 0.929 . S
H3324 C3332 0.929 . S
H3325 C3334 0.930 . S
H3326 C3336 0.930 . S
H3327 C3339 0.929 . S
H3328 C3342 0.930 . S
H3329 C3344 0.960 . S
H3330 C3344 0.960 . S
H3331 C3344 0.960 . S
C3332 H3324 0.929 . S
C3332 C3333 1.377 . S
C3332 C3334 1.384 . S
C3333 C3332 1.377 . S
C3333 C3339 1.390 . S
C3334 H3325 0.930 . S
C3334 C3332 1.384 . S
C3334 C3335 1.372 . S
C3335 C3334 1.372 . S
C3335 C3336 1.400 . S
C3335 C3340 1.490 . S
C3336 H3326 0.930 . S
C3336 C3335 1.400 . S
C3336 C3339 1.386 . S
H3337 C3353 0.930 . S
H3338 C3354 0.931 . S
C3339 H3327 0.929 . S
C3339 C3333 1.390 . S
C3339 C3336 1.386 . S
C3340 C3335 1.490 . S
C3340 C3342 1.395 . S
C3340 C3343 1.403 . S
H3341 C3347 0.930 . S
C3342 H3328 0.930 . S
C3342 C3340 1.395 . S
C3342 C3345 1.403 . S
C3343 C3340 1.403 . S
C3343 C3344 1.524 . S
C3343 C3347 1.400 . S
C3344 H3329 0.960 . S
C3344 H3330 0.960 . S
C3344 H3331 0.960 . S
C3344 C3343 1.524 . S
C3345 C3342 1.403 . S
C3345 C3346 1.392 . S
C3345 C3349 1.495 . S
C3346 C3345 1.392 . S
C3346 C3347 1.385 . S
C3346 C3348 1.478 . S
C3347 H3341 0.930 . S
C3347 C3343 1.400 . S
C3347 C3346 1.385 . S
C3348 C3346 1.478 . S
C3348 C3350 1.381 . S
C3348 C3354 1.383 . S
C3349 C3345 1.495 . S
C3349 H3355 0.959 . S
C3349 H3356 0.961 . S
C3349 H3357 0.960 . S
C3350 C3348 1.381 . S
C3350 C3351 1.394 . S
C3350 H3358 0.930 . S
C3351 C3350 1.394 . S
C3351 C3352 1.383 . S
C3351 H3359 0.929 . S
C3352 C3351 1.383 . S
C3352 C3353 1.377 . S
C3353 H3337 0.930 . S
C3353 C3352 1.377 . S
C3353 C3354 1.379 . S
C3354 H3338 0.931 . S
C3354 C3348 1.383 . S
C3354 C3353 1.379 . S
H3355 C3349 0.959 . S
H3356 C3349 0.961 . S
H3357 C3349 0.960 . S
H3358 C3350 0.930 . S
H3359 C3351 0.929 . S
H3360 C3368 0.929 . S
H3361 C3370 0.930 . S
H3362 C3372 0.946 . S
H3363 C3375 0.929 . S
H3364 C3378 0.930 . S
H3365 C3380 0.960 . S
H3366 C3380 0.961 . S
H3367 C3380 0.960 . S
C3368 H3360 0.929 . S
C3368 C3369 1.377 . S
C3368 C3370 1.384 . S
C3369 C3368 1.377 . S
C3369 C3375 1.390 1_554 S
C3370 H3361 0.930 . S
C3370 C3368 1.384 . S
C3370 C3371 1.372 . S
C3371 C3370 1.372 . S
C3371 C3372 1.383 1_554 S
C3371 C3376 1.490 . S
C3372 H3362 0.946 . S
C3372 C3371 1.383 1_556 S
C3372 C3375 1.386 . S
H3373 C3389 0.930 1_556 S
H3374 C3390 0.931 1_556 S
C3375 H3363 0.929 . S
C3375 C3369 1.390 1_556 S
C3375 C3372 1.386 . S
C3376 C3371 1.490 . S
C3376 C3378 1.395 . S
C3376 C3379 1.403 . S
H3377 C3383 0.930 1_556 S
C3378 H3364 0.930 . S
C3378 C3376 1.395 . S
C3378 C3381 1.403 1_455 S
C3379 C3376 1.403 . S
C3379 C3380 1.524 1_554 S
C3379 C3383 1.400 1_455 S
C3380 H3365 0.960 . S
C3380 H3366 0.961 . S
C3380 H3367 0.960 . S
C3380 C3379 1.524 1_556 S
C3381 C3378 1.403 1_655 S
C3381 C3382 1.392 . S
C3381 C3385 1.495 . S
C3382 C3381 1.392 . S
C3382 C3383 1.385 . S
C3382 C3384 1.478 . S
C3383 H3377 0.930 1_554 S
C3383 C3379 1.400 1_655 S
C3383 C3382 1.385 . S
C3384 C3382 1.478 . S
C3384 C3386 1.381 . S
C3384 C3390 1.383 . S
C3385 C3381 1.495 . S
C3385 H3391 0.959 . S
C3385 H3392 0.961 . S
C3385 H3393 0.960 . S
C3386 C3384 1.381 . S
C3386 C3387 1.394 . S
C3386 H3394 0.930 . S
C3387 C3386 1.394 . S
C3387 C3388 1.383 . S
C3387 H3395 0.929 . S
C3388 C3387 1.383 . S
C3388 C3389 1.377 . S
C3389 H3373 0.930 1_554 S
C3389 C3388 1.377 . S
C3389 C3390 1.379 . S
C3390 H3374 0.931 1_554 S
C3390 C3384 1.383 . S
C3390 C3389 1.379 . S
H3391 C3385 0.959 . S
H3392 C3385 0.961 . S
H3393 C3385 0.960 . S
H3394 C3386 0.930 . S
H3395 C3387 0.929 . S
H3396 C3404 0.929 . S
H3397 C3406 0.930 . S
H3398 C3408 0.930 . S
H3399 C3411 0.929 . S
H3400 C3414 0.930 . S
H3401 C3416 0.960 . S
H3402 C3416 0.960 . S
H3403 C3416 0.960 . S
C3404 H3396 0.929 . S
C3404 C3405 1.377 . S
C3404 C3406 1.384 . S
C3405 C3404 1.377 . S
C3405 C3411 1.390 . S
C3406 H3397 0.930 . S
C3406 C3404 1.384 . S
C3406 C3407 1.372 . S
C3407 C3406 1.372 . S
C3407 C3408 1.400 . S
C3407 C3412 1.490 . S
C3408 H3398 0.930 . S
C3408 C3407 1.400 . S
C3408 C3411 1.386 . S
H3409 C3425 0.930 . S
H3410 C3426 0.931 . S
C3411 H3399 0.929 . S
C3411 C3405 1.390 . S
C3411 C3408 1.386 . S
C3412 C3407 1.490 . S
C3412 C3414 1.395 . S
C3412 C3415 1.403 . S
H3413 C3419 0.930 . S
C3414 H3400 0.930 . S
C3414 C3412 1.395 . S
C3414 C3417 1.403 . S
C3415 C3412 1.403 . S
C3415 C3416 1.524 . S
C3415 C3419 1.400 . S
C3416 H3401 0.960 . S
C3416 H3402 0.960 . S
C3416 H3403 0.960 . S
C3416 C3415 1.524 . S
C3417 C3414 1.403 . S
C3417 C3418 1.392 . S
C3417 C3421 1.495 . S
C3418 C3417 1.392 . S
C3418 C3419 1.385 . S
C3418 C3420 1.478 . S
C3419 H3413 0.930 . S
C3419 C3415 1.400 . S
C3419 C3418 1.385 . S
C3420 C3418 1.478 . S
C3420 C3422 1.381 . S
C3420 C3426 1.383 . S
C3421 C3417 1.495 . S
C3421 H3427 0.959 . S
C3421 H3428 0.961 . S
C3421 H3429 0.960 . S
C3422 C3420 1.381 . S
C3422 C3423 1.394 . S
C3422 H3430 0.930 . S
C3423 C3422 1.394 . S
C3423 C3424 1.383 . S
C3423 H3431 0.929 . S
C3424 C3423 1.383 . S
C3424 C3425 1.377 . S
C3425 H3409 0.930 . S
C3425 C3424 1.377 . S
C3425 C3426 1.379 . S
C3426 H3410 0.931 . S
C3426 C3420 1.383 . S
C3426 C3425 1.379 . S
H3427 C3421 0.959 . S
H3428 C3421 0.961 . S
H3429 C3421 0.960 . S
H3430 C3422 0.930 . S
H3431 C3423 0.929 . S
H3432 C3440 0.929 . S
H3433 C3442 0.930 . S
H3434 C3444 0.930 . S
H3435 C3447 0.929 . S
H3436 C3450 0.930 . S
H3437 C3452 0.960 . S
H3438 C3452 0.960 . S
H3439 C3452 0.960 . S
C3440 H3432 0.929 . S
C3440 C3441 1.377 . S
C3440 C3442 1.384 . S
C3441 C3440 1.377 . S
C3441 C3447 1.390 . S
C3442 H3433 0.930 . S
C3442 C3440 1.384 . S
C3442 C3443 1.372 . S
C3443 C3442 1.372 . S
C3443 C3444 1.400 . S
C3443 C3448 1.490 . S
C3444 H3434 0.930 . S
C3444 C3443 1.400 . S
C3444 C3447 1.386 . S
H3445 C3461 0.930 . S
H3446 C3462 0.931 . S
C3447 H3435 0.929 . S
C3447 C3441 1.390 . S
C3447 C3444 1.386 . S
C3448 C3443 1.490 . S
C3448 C3450 1.395 . S
C3448 C3451 1.403 . S
H3449 C3455 0.930 . S
C3450 H3436 0.930 . S
C3450 C3448 1.395 . S
C3450 C3453 1.403 . S
C3451 C3448 1.403 . S
C3451 C3452 1.524 . S
C3451 C3455 1.400 . S
C3452 H3437 0.960 . S
C3452 H3438 0.960 . S
C3452 H3439 0.960 . S
C3452 C3451 1.524 . S
C3453 C3450 1.403 . S
C3453 C3454 1.392 . S
C3453 C3457 1.495 . S
C3454 C3453 1.392 . S
C3454 C3455 1.385 . S
C3454 C3456 1.478 . S
C3455 H3449 0.930 . S
C3455 C3451 1.400 . S
C3455 C3454 1.385 . S
C3456 C3454 1.478 . S
C3456 C3458 1.381 . S
C3456 C3462 1.383 . S
C3457 C3453 1.495 . S
C3457 H3463 0.959 . S
C3457 H3464 0.961 . S
C3457 H3465 0.960 . S
C3458 C3456 1.381 . S
C3458 C3459 1.394 . S
C3458 H3466 0.930 . S
C3459 C3458 1.394 . S
C3459 C3460 1.383 . S
C3459 H3467 0.929 . S
C3460 C3459 1.383 . S
C3460 C3461 1.377 . S
C3461 H3445 0.930 . S
C3461 C3460 1.377 . S
C3461 C3462 1.379 . S
C3462 H3446 0.931 . S
C3462 C3456 1.383 . S
C3462 C3461 1.379 . S
H3463 C3457 0.959 . S
H3464 C3457 0.961 . S
H3465 C3457 0.960 . S
H3466 C3458 0.930 . S
H3467 C3459 0.929 . S
H3468 C3476 0.929 . S
H3469 C3478 0.930 . S
H3470 C3480 0.930 . S
H3471 C3483 0.929 . S
H3472 C3486 0.930 . S
H3473 C3488 0.960 . S
H3474 C3488 0.960 . S
H3475 C3488 0.960 . S
C3476 H3468 0.929 . S
C3476 C3477 1.377 . S
C3476 C3478 1.384 . S
C3477 C3476 1.377 . S
C3477 C3483 1.390 . S
C3478 H3469 0.930 . S
C3478 C3476 1.384 . S
C3478 C3479 1.372 . S
C3479 C3478 1.372 . S
C3479 C3480 1.400 . S
C3479 C3484 1.490 . S
C3480 H3470 0.930 . S
C3480 C3479 1.400 . S
C3480 C3483 1.386 . S
H3481 C3497 0.930 . S
H3482 C3498 0.931 . S
C3483 H3471 0.929 . S
C3483 C3477 1.390 . S
C3483 C3480 1.386 . S
C3484 C3479 1.490 . S
C3484 C3486 1.395 . S
C3484 C3487 1.403 . S
H3485 C3491 0.930 . S
C3486 H3472 0.930 . S
C3486 C3484 1.395 . S
C3486 C3489 1.403 . S
C3487 C3484 1.403 . S
C3487 C3488 1.524 . S
C3487 C3491 1.400 . S
C3488 H3473 0.960 . S
C3488 H3474 0.960 . S
C3488 H3475 0.960 . S
C3488 C3487 1.524 . S
C3489 C3486 1.403 . S
C3489 C3490 1.392 . S
C3489 C3493 1.495 . S
C3490 C3489 1.392 . S
C3490 C3491 1.385 . S
C3490 C3492 1.478 . S
C3491 H3485 0.930 . S
C3491 C3487 1.400 . S
C3491 C3490 1.385 . S
C3492 C3490 1.478 . S
C3492 C3494 1.381 . S
C3492 C3498 1.383 . S
C3493 C3489 1.495 . S
C3493 H3499 0.959 . S
C3493 H3500 0.961 . S
C3493 H3501 0.960 . S
C3494 C3492 1.381 . S
C3494 C3495 1.394 . S
C3494 H3502 0.930 . S
C3495 C3494 1.394 . S
C3495 C3496 1.383 . S
C3495 H3503 0.929 . S
C3496 C3495 1.383 . S
C3496 C3497 1.377 . S
C3497 H3481 0.930 . S
C3497 C3496 1.377 . S
C3497 C3498 1.379 . S
C3498 H3482 0.931 . S
C3498 C3492 1.383 . S
C3498 C3497 1.379 . S
H3499 C3493 0.959 . S
H3500 C3493 0.961 . S
H3501 C3493 0.960 . S
H3502 C3494 0.930 . S
H3503 C3495 0.929 . S
H3504 C3512 0.915 1_554 S
H3505 C3514 0.930 1_554 S
H3506 C3516 0.930 . S
H3507 C3519 0.929 . S
H3508 C3522 0.930 . S
H3509 C3524 0.960 . S
H3510 C3524 0.960 . S
H3511 C3524 0.960 . S
C3512 H3504 0.915 1_556 S
C3512 C3513 1.392 . S
C3512 C3514 1.384 . S
C3513 C3512 1.392 . S
C3513 C3519 1.390 . S
C3514 H3505 0.930 1_556 S
C3514 C3512 1.384 . S
C3514 C3515 1.372 . S
C3515 C3514 1.372 . S
C3515 C3516 1.400 . S
C3515 C3520 1.490 . S
C3516 H3506 0.930 . S
C3516 C3515 1.400 . S
C3516 C3519 1.386 . S
H3517 C3533 0.930 . S
H3518 C3534 0.931 . S
C3519 H3507 0.929 . S
C3519 C3513 1.390 . S
C3519 C3516 1.386 . S
C3520 C3515 1.490 . S
C3520 C3522 1.395 . S
C3520 C3523 1.403 . S
H3521 C3527 0.930 . S
C3522 H3508 0.930 . S
C3522 C3520 1.395 . S
C3522 C3525 1.403 1_655 S
C3523 C3520 1.403 . S
C3523 C3524 1.524 . S
C3523 C3527 1.400 1_655 S
C3524 H3509 0.960 . S
C3524 H3510 0.960 . S
C3524 H3511 0.960 . S
C3524 C3523 1.524 . S
C3525 C3522 1.403 1_455 S
C3525 C3526 1.392 . S
C3525 C3529 1.495 . S
C3526 C3525 1.392 . S
C3526 C3527 1.385 . S
C3526 C3528 1.478 . S
C3527 H3521 0.930 . S
C3527 C3523 1.400 1_455 S
C3527 C3526 1.385 . S
C3528 C3526 1.478 . S
C3528 C3530 1.377 1_556 S
C3528 C3534 1.383 . S
C3529 C3525 1.495 . S
C3529 H3535 0.959 . S
C3529 H3536 0.961 . S
C3529 H3537 0.960 . S
C3530 C3528 1.377 1_554 S
C3530 C3531 1.394 . S
C3530 H3538 0.934 . S
C3531 C3530 1.394 . S
C3531 C3532 1.376 1_554 S
C3531 H3539 0.936 . S
C3532 C3531 1.376 1_556 S
C3532 C3533 1.377 . S
C3533 H3517 0.930 . S
C3533 C3532 1.377 . S
C3533 C3534 1.379 . S
C3534 H3518 0.931 . S
C3534 C3528 1.383 . S
C3534 C3533 1.379 . S
H3535 C3529 0.959 . S
H3536 C3529 0.961 . S
H3537 C3529 0.960 . S
H3538 C3530 0.934 . S
H3539 C3531 0.936 . S
H3540 C3548 0.929 . S
H3541 C3550 0.930 . S
H3542 C3552 0.930 . S
H3543 C3555 0.929 . S
H3544 C3558 0.930 . S
H3545 C3560 0.960 . S
H3546 C3560 0.960 . S
H3547 C3560 0.960 . S
C3548 H3540 0.929 . S
C3548 C3549 1.377 . S
C3548 C3550 1.384 . S
C3549 C3548 1.377 . S
C3549 C3555 1.390 . S
C3550 H3541 0.930 . S
C3550 C3548 1.384 . S
C3550 C3551 1.372 . S
C3551 C3550 1.372 . S
C3551 C3552 1.400 . S
C3551 C3556 1.490 . S
C3552 H3542 0.930 . S
C3552 C3551 1.400 . S
C3552 C3555 1.386 . S
H3553 C3569 0.930 . S
H3554 C3570 0.931 . S
C3555 H3543 0.929 . S
C3555 C3549 1.390 . S
C3555 C3552 1.386 . S
C3556 C3551 1.490 . S
C3556 C3558 1.395 . S
C3556 C3559 1.403 . S
H3557 C3563 0.930 . S
C3558 H3544 0.930 . S
C3558 C3556 1.395 . S
C3558 C3561 1.403 . S
C3559 C3556 1.403 . S
C3559 C3560 1.524 . S
C3559 C3563 1.400 . S
C3560 H3545 0.960 . S
C3560 H3546 0.960 . S
C3560 H3547 0.960 . S
C3560 C3559 1.524 . S
C3561 C3558 1.403 . S
C3561 C3562 1.392 . S
C3561 C3565 1.495 . S
C3562 C3561 1.392 . S
C3562 C3563 1.385 . S
C3562 C3564 1.478 . S
C3563 H3557 0.930 . S
C3563 C3559 1.400 . S
C3563 C3562 1.385 . S
C3564 C3562 1.478 . S
C3564 C3566 1.381 . S
C3564 C3570 1.383 . S
C3565 C3561 1.495 . S
C3565 H3571 0.959 . S
C3565 H3572 0.961 . S
C3565 H3573 0.960 . S
C3566 C3564 1.381 . S
C3566 C3567 1.394 . S
C3566 H3574 0.930 . S
C3567 C3566 1.394 . S
C3567 C3568 1.383 . S
C3567 H3575 0.929 . S
C3568 C3567 1.383 . S
C3568 C3569 1.377 . S
C3569 H3553 0.930 . S
C3569 C3568 1.377 . S
C3569 C3570 1.379 . S
C3570 H3554 0.931 . S
C3570 C3564 1.383 . S
C3570 C3569 1.379 . S
H3571 C3565 0.959 . S
H3572 C3565 0.961 . S
H3573 C3565 0.960 . S
H3574 C3566 0.930 . S
H3575 C3567 0.929 . S
H3576 C3584 0.929 . S
H3577 C3586 0.930 . S
H3578 C3588 0.930 . S
H3579 C3591 0.929 . S
H3580 C3594 0.930 . S
H3581 C3596 0.960 . S
H3582 C3596 0.960 . S
H3583 C3596 0.960 . S
C3584 H3576 0.929 . S
C3584 C3585 1.377 . S
C3584 C3586 1.384 . S
C3585 C3584 1.377 . S
C3585 C3591 1.390 . S
C3586 H3577 0.930 . S
C3586 C3584 1.384 . S
C3586 C3587 1.372 . S
C3587 C3586 1.372 . S
C3587 C3588 1.400 . S
C3587 C3592 1.490 . S
C3588 H3578 0.930 . S
C3588 C3587 1.400 . S
C3588 C3591 1.386 . S
H3589 C3605 0.930 . S
H3590 C3606 0.931 . S
C3591 H3579 0.929 . S
C3591 C3585 1.390 . S
C3591 C3588 1.386 . S
C3592 C3587 1.490 . S
C3592 C3594 1.395 . S
C3592 C3595 1.403 . S
H3593 C3599 0.930 . S
C3594 H3580 0.930 . S
C3594 C3592 1.395 . S
C3594 C3597 1.403 . S
C3595 C3592 1.403 . S
C3595 C3596 1.524 . S
C3595 C3599 1.400 . S
C3596 H3581 0.960 . S
C3596 H3582 0.960 . S
C3596 H3583 0.960 . S
C3596 C3595 1.524 . S
C3597 C3594 1.403 . S
C3597 C3598 1.392 . S
C3597 C3601 1.495 . S
C3598 C3597 1.392 . S
C3598 C3599 1.385 . S
C3598 C3600 1.478 . S
C3599 H3593 0.930 . S
C3599 C3595 1.400 . S
C3599 C3598 1.385 . S
C3600 C3598 1.478 . S
C3600 C3602 1.381 . S
C3600 C3606 1.383 . S
C3601 C3597 1.495 . S
C3601 H3607 0.959 . S
C3601 H3608 0.961 . S
C3601 H3609 0.960 . S
C3602 C3600 1.381 . S
C3602 C3603 1.394 . S
C3602 H3610 0.930 . S
C3603 C3602 1.394 . S
C3603 C3604 1.383 . S
C3603 H3611 0.929 . S
C3604 C3603 1.383 . S
C3604 C3605 1.377 . S
C3605 H3589 0.930 . S
C3605 C3604 1.377 . S
C3605 C3606 1.379 . S
C3606 H3590 0.931 . S
C3606 C3600 1.383 . S
C3606 C3605 1.379 . S
H3607 C3601 0.959 . S
H3608 C3601 0.961 . S
H3609 C3601 0.960 . S
H3610 C3602 0.930 . S
H3611 C3603 0.929 . S
H3612 C3620 0.929 . S
H3613 C3622 0.930 . S
H3614 C3624 0.930 . S
H3615 C3627 0.929 . S
H3616 C3630 0.930 . S
H3617 C3632 0.960 . S
H3618 C3632 0.960 . S
H3619 C3632 0.960 . S
C3620 H3612 0.929 . S
C3620 C3621 1.377 . S
C3620 C3622 1.384 . S
C3621 C3620 1.377 . S
C3621 C3627 1.390 . S
C3622 H3613 0.930 . S
C3622 C3620 1.384 . S
C3622 C3623 1.372 . S
C3623 C3622 1.372 . S
C3623 C3624 1.400 . S
C3623 C3628 1.490 . S
C3624 H3614 0.930 . S
C3624 C3623 1.400 . S
C3624 C3627 1.386 . S
H3625 C3641 0.930 . S
H3626 C3642 0.931 . S
C3627 H3615 0.929 . S
C3627 C3621 1.390 . S
C3627 C3624 1.386 . S
C3628 C3623 1.490 . S
C3628 C3630 1.395 . S
C3628 C3631 1.403 . S
H3629 C3635 0.930 . S
C3630 H3616 0.930 . S
C3630 C3628 1.395 . S
C3630 C3633 1.403 . S
C3631 C3628 1.403 . S
C3631 C3632 1.524 . S
C3631 C3635 1.400 . S
C3632 H3617 0.960 . S
C3632 H3618 0.960 . S
C3632 H3619 0.960 . S
C3632 C3631 1.524 . S
C3633 C3630 1.403 . S
C3633 C3634 1.392 . S
C3633 C3637 1.495 . S
C3634 C3633 1.392 . S
C3634 C3635 1.385 . S
C3634 C3636 1.478 . S
C3635 H3629 0.930 . S
C3635 C3631 1.400 . S
C3635 C3634 1.385 . S
C3636 C3634 1.478 . S
C3636 C3638 1.381 . S
C3636 C3642 1.383 . S
C3637 C3633 1.495 . S
C3637 H3643 0.959 . S
C3637 H3644 0.961 . S
C3637 H3645 0.960 . S
C3638 C3636 1.381 . S
C3638 C3639 1.394 . S
C3638 H3646 0.930 . S
C3639 C3638 1.394 . S
C3639 C3640 1.383 . S
C3639 H3647 0.929 . S
C3640 C3639 1.383 . S
C3640 C3641 1.377 . S
C3641 H3625 0.930 . S
C3641 C3640 1.377 . S
C3641 C3642 1.379 . S
C3642 H3626 0.931 . S
C3642 C3636 1.383 . S
C3642 C3641 1.379 . S
H3643 C3637 0.959 . S
H3644 C3637 0.961 . S
H3645 C3637 0.960 . S
H3646 C3638 0.930 . S
H3647 C3639 0.929 . S
H3648 C3656 0.929 . S
H3649 C3658 0.930 . S
H3650 C3660 0.930 . S
H3651 C3663 0.929 . S
H3652 C3666 0.930 . S
H3653 C3668 0.960 . S
H3654 C3668 0.960 . S
H3655 C3668 0.960 . S
C3656 H3648 0.929 . S
C3656 C3657 1.377 . S
C3656 C3658 1.384 . S
C3657 C3656 1.377 . S
C3657 C3663 1.390 . S
C3658 H3649 0.930 . S
C3658 C3656 1.384 . S
C3658 C3659 1.372 . S
C3659 C3658 1.372 . S
C3659 C3660 1.400 . S
C3659 C3664 1.490 . S
C3660 H3650 0.930 . S
C3660 C3659 1.400 . S
C3660 C3663 1.386 . S
H3661 C3677 0.930 . S
H3662 C3678 0.931 . S
C3663 H3651 0.929 . S
C3663 C3657 1.390 . S
C3663 C3660 1.386 . S
C3664 C3659 1.490 . S
C3664 C3666 1.395 . S
C3664 C3667 1.403 . S
H3665 C3671 0.930 . S
C3666 H3652 0.930 . S
C3666 C3664 1.395 . S
C3666 C3669 1.403 . S
C3667 C3664 1.403 . S
C3667 C3668 1.524 . S
C3667 C3671 1.400 . S
C3668 H3653 0.960 . S
C3668 H3654 0.960 . S
C3668 H3655 0.960 . S
C3668 C3667 1.524 . S
C3669 C3666 1.403 . S
C3669 C3670 1.392 . S
C3669 C3673 1.495 . S
C3670 C3669 1.392 . S
C3670 C3671 1.385 . S
C3670 C3672 1.478 . S
C3671 H3665 0.930 . S
C3671 C3667 1.400 . S
C3671 C3670 1.385 . S
C3672 C3670 1.478 . S
C3672 C3674 1.381 . S
C3672 C3678 1.383 . S
C3673 C3669 1.495 . S
C3673 H3679 0.959 . S
C3673 H3680 0.961 . S
C3673 H3681 0.960 . S
C3674 C3672 1.381 . S
C3674 C3675 1.394 . S
C3674 H3682 0.930 . S
C3675 C3674 1.394 . S
C3675 C3676 1.383 . S
C3675 H3683 0.929 . S
C3676 C3675 1.383 . S
C3676 C3677 1.377 . S
C3677 H3661 0.930 . S
C3677 C3676 1.377 . S
C3677 C3678 1.379 . S
C3678 H3662 0.931 . S
C3678 C3672 1.383 . S
C3678 C3677 1.379 . S
H3679 C3673 0.959 . S
H3680 C3673 0.961 . S
H3681 C3673 0.960 . S
H3682 C3674 0.930 . S
H3683 C3675 0.929 . S
H3684 C3692 0.929 . S
H3685 C3694 0.930 . S
H3686 C3696 0.930 . S
H3687 C3699 0.929 . S
H3688 C3702 0.930 . S
H3689 C3704 0.960 . S
H3690 C3704 0.960 . S
H3691 C3704 0.960 . S
C3692 H3684 0.929 . S
C3692 C3693 1.377 . S
C3692 C3694 1.384 . S
C3693 C3692 1.377 . S
C3693 C3699 1.390 . S
C3694 H3685 0.930 . S
C3694 C3692 1.384 . S
C3694 C3695 1.372 . S
C3695 C3694 1.372 . S
C3695 C3696 1.400 . S
C3695 C3700 1.490 . S
C3696 H3686 0.930 . S
C3696 C3695 1.400 . S
C3696 C3699 1.386 . S
H3697 C3713 0.930 . S
H3698 C3714 0.931 . S
C3699 H3687 0.929 . S
C3699 C3693 1.390 . S
C3699 C3696 1.386 . S
C3700 C3695 1.490 . S
C3700 C3702 1.395 . S
C3700 C3703 1.403 . S
H3701 C3707 0.930 . S
C3702 H3688 0.930 . S
C3702 C3700 1.395 . S
C3702 C3705 1.403 . S
C3703 C3700 1.403 . S
C3703 C3704 1.524 . S
C3703 C3707 1.400 . S
C3704 H3689 0.960 . S
C3704 H3690 0.960 . S
C3704 H3691 0.960 . S
C3704 C3703 1.524 . S
C3705 C3702 1.403 . S
C3705 C3706 1.392 . S
C3705 C3709 1.495 . S
C3706 C3705 1.392 . S
C3706 C3707 1.385 . S
C3706 C3708 1.478 . S
C3707 H3701 0.930 . S
C3707 C3703 1.400 . S
C3707 C3706 1.385 . S
C3708 C3706 1.478 . S
C3708 C3710 1.381 . S
C3708 C3714 1.383 . S
C3709 C3705 1.495 . S
C3709 H3715 0.959 . S
C3709 H3716 0.961 . S
C3709 H3717 0.960 . S
C3710 C3708 1.381 . S
C3710 C3711 1.394 . S
C3710 H3718 0.930 . S
C3711 C3710 1.394 . S
C3711 C3712 1.383 . S
C3711 H3719 0.929 . S
C3712 C3711 1.383 . S
C3712 C3713 1.377 . S
C3713 H3697 0.930 . S
C3713 C3712 1.377 . S
C3713 C3714 1.379 . S
C3714 H3698 0.931 . S
C3714 C3708 1.383 . S
C3714 C3713 1.379 . S
H3715 C3709 0.959 . S
H3716 C3709 0.961 . S
H3717 C3709 0.960 . S
H3718 C3710 0.930 . S
H3719 C3711 0.929 . S
H3720 C3728 0.929 . S
H3721 C3730 0.930 . S
H3722 C3732 0.930 . S
H3723 C3735 0.929 . S
H3724 C3738 0.930 . S
H3725 C3740 0.960 . S
H3726 C3740 0.960 . S
H3727 C3740 0.960 . S
C3728 H3720 0.929 . S
C3728 C3729 1.377 . S
C3728 C3730 1.384 . S
C3729 C3728 1.377 . S
C3729 C3735 1.390 . S
C3730 H3721 0.930 . S
C3730 C3728 1.384 . S
C3730 C3731 1.372 . S
C3731 C3730 1.372 . S
C3731 C3732 1.400 . S
C3731 C3736 1.490 . S
C3732 H3722 0.930 . S
C3732 C3731 1.400 . S
C3732 C3735 1.386 . S
H3733 C3749 0.930 . S
H3734 C3750 0.931 . S
C3735 H3723 0.929 . S
C3735 C3729 1.390 . S
C3735 C3732 1.386 . S
C3736 C3731 1.490 . S
C3736 C3738 1.395 . S
C3736 C3739 1.403 . S
H3737 C3743 0.930 . S
C3738 H3724 0.930 . S
C3738 C3736 1.395 . S
C3738 C3741 1.403 . S
C3739 C3736 1.403 . S
C3739 C3740 1.524 . S
C3739 C3743 1.400 . S
C3740 H3725 0.960 . S
C3740 H3726 0.960 . S
C3740 H3727 0.960 . S
C3740 C3739 1.524 . S
C3741 C3738 1.403 . S
C3741 C3742 1.392 . S
C3741 C3745 1.495 . S
C3742 C3741 1.392 . S
C3742 C3743 1.385 . S
C3742 C3744 1.478 . S
C3743 H3737 0.930 . S
C3743 C3739 1.400 . S
C3743 C3742 1.385 . S
C3744 C3742 1.478 . S
C3744 C3746 1.381 . S
C3744 C3750 1.383 . S
C3745 C3741 1.495 . S
C3745 H3751 0.959 . S
C3745 H3752 0.961 . S
C3745 H3753 0.960 . S
C3746 C3744 1.381 . S
C3746 C3747 1.394 . S
C3746 H3754 0.930 . S
C3747 C3746 1.394 . S
C3747 C3748 1.383 . S
C3747 H3755 0.929 . S
C3748 C3747 1.383 . S
C3748 C3749 1.377 . S
C3749 H3733 0.930 . S
C3749 C3748 1.377 . S
C3749 C3750 1.379 . S
C3750 H3734 0.931 . S
C3750 C3744 1.383 . S
C3750 C3749 1.379 . S
H3751 C3745 0.959 . S
H3752 C3745 0.961 . S
H3753 C3745 0.960 . S
H3754 C3746 0.930 . S
H3755 C3747 0.929 . S
H3756 C3764 0.929 . S
H3757 C3766 0.930 . S
H3758 C3768 0.930 . S
H3759 C3771 0.929 . S
H3760 C3774 0.930 . S
H3761 C3776 0.960 . S
H3762 C3776 0.960 . S
H3763 C3776 0.960 . S
C3764 H3756 0.929 . S
C3764 C3765 1.377 . S
C3764 C3766 1.384 . S
C3765 C3764 1.377 . S
C3765 C3771 1.390 . S
C3766 H3757 0.930 . S
C3766 C3764 1.384 . S
C3766 C3767 1.372 . S
C3767 C3766 1.372 . S
C3767 C3768 1.400 . S
C3767 C3772 1.490 . S
C3768 H3758 0.930 . S
C3768 C3767 1.400 . S
C3768 C3771 1.386 . S
H3769 C3785 0.930 . S
H3770 C3786 0.931 . S
C3771 H3759 0.929 . S
C3771 C3765 1.390 . S
C3771 C3768 1.386 . S
C3772 C3767 1.490 . S
C3772 C3774 1.395 . S
C3772 C3775 1.403 . S
H3773 C3779 0.930 . S
C3774 H3760 0.930 . S
C3774 C3772 1.395 . S
C3774 C3777 1.403 . S
C3775 C3772 1.403 . S
C3775 C3776 1.524 . S
C3775 C3779 1.400 . S
C3776 H3761 0.960 . S
C3776 H3762 0.960 . S
C3776 H3763 0.960 . S
C3776 C3775 1.524 . S
C3777 C3774 1.403 . S
C3777 C3778 1.392 . S
C3777 C3781 1.495 . S
C3778 C3777 1.392 . S
C3778 C3779 1.385 . S
C3778 C3780 1.478 . S
C3779 H3773 0.930 . S
C3779 C3775 1.400 . S
C3779 C3778 1.385 . S
C3780 C3778 1.478 . S
C3780 C3782 1.381 . S
C3780 C3786 1.383 . S
C3781 C3777 1.495 . S
C3781 H3787 0.959 . S
C3781 H3788 0.961 . S
C3781 H3789 0.960 . S
C3782 C3780 1.381 . S
C3782 C3783 1.394 . S
C3782 H3790 0.930 . S
C3783 C3782 1.394 . S
C3783 C3784 1.383 . S
C3783 H3791 0.929 . S
C3784 C3783 1.383 . S
C3784 C3785 1.377 . S
C3785 H3769 0.930 . S
C3785 C3784 1.377 . S
C3785 C3786 1.379 . S
C3786 H3770 0.931 . S
C3786 C3780 1.383 . S
C3786 C3785 1.379 . S
H3787 C3781 0.959 . S
H3788 C3781 0.961 . S
H3789 C3781 0.960 . S
H3790 C3782 0.930 . S
H3791 C3783 0.929 . S
H3792 C3800 0.929 . S
H3793 C3802 0.930 . S
H3794 C3804 0.930 . S
H3795 C3807 0.929 . S
H3796 C3810 0.930 . S
H3797 C3812 0.960 . S
H3798 C3812 0.960 . S
H3799 C3812 0.960 . S
C3800 H3792 0.929 . S
C3800 C3801 1.377 . S
C3800 C3802 1.384 . S
C3801 C3800 1.377 . S
C3801 C3807 1.390 . S
C3802 H3793 0.930 . S
C3802 C3800 1.384 . S
C3802 C3803 1.372 . S
C3803 C3802 1.372 . S
C3803 C3804 1.400 . S
C3803 C3808 1.490 . S
C3804 H3794 0.930 . S
C3804 C3803 1.400 . S
C3804 C3807 1.386 . S
H3805 C3821 0.930 . S
H3806 C3822 0.931 . S
C3807 H3795 0.929 . S
C3807 C3801 1.390 . S
C3807 C3804 1.386 . S
C3808 C3803 1.490 . S
C3808 C3810 1.395 . S
C3808 C3811 1.403 . S
H3809 C3815 0.930 . S
C3810 H3796 0.930 . S
C3810 C3808 1.395 . S
C3810 C3813 1.403 . S
C3811 C3808 1.403 . S
C3811 C3812 1.524 . S
C3811 C3815 1.400 . S
C3812 H3797 0.960 . S
C3812 H3798 0.960 . S
C3812 H3799 0.960 . S
C3812 C3811 1.524 . S
C3813 C3810 1.403 . S
C3813 C3814 1.392 . S
C3813 C3817 1.495 . S
C3814 C3813 1.392 . S
C3814 C3815 1.385 . S
C3814 C3816 1.478 . S
C3815 H3809 0.930 . S
C3815 C3811 1.400 . S
C3815 C3814 1.385 . S
C3816 C3814 1.478 . S
C3816 C3818 1.381 . S
C3816 C3822 1.383 . S
C3817 C3813 1.495 . S
C3817 H3823 0.959 . S
C3817 H3824 0.961 . S
C3817 H3825 0.960 . S
C3818 C3816 1.381 . S
C3818 C3819 1.394 . S
C3818 H3826 0.930 . S
C3819 C3818 1.394 . S
C3819 C3820 1.383 . S
C3819 H3827 0.929 . S
C3820 C3819 1.383 . S
C3820 C3821 1.377 . S
C3821 H3805 0.930 . S
C3821 C3820 1.377 . S
C3821 C3822 1.379 . S
C3822 H3806 0.931 . S
C3822 C3816 1.383 . S
C3822 C3821 1.379 . S
H3823 C3817 0.959 . S
H3824 C3817 0.961 . S
H3825 C3817 0.960 . S
H3826 C3818 0.930 . S
H3827 C3819 0.929 . S
H3828 C3836 0.929 . S
H3829 C3838 0.930 . S
H3830 C3840 0.930 1_556 S
H3831 C3843 0.929 1_556 S
H3832 C3846 0.930 . S
H3833 C3848 0.960 . S
H3834 C3848 0.960 . S
H3835 C3848 0.960 . S
C3836 H3828 0.929 . S
C3836 C3837 1.377 . S
C3836 C3838 1.384 . S
C3837 C3836 1.377 . S
C3837 C3843 1.390 . S
C3838 H3829 0.930 . S
C3838 C3836 1.384 . S
C3838 C3839 1.372 . S
C3839 C3838 1.372 . S
C3839 C3840 1.400 . S
C3839 C3844 1.490 . S
C3840 H3830 0.930 1_554 S
C3840 C3839 1.400 . S
C3840 C3843 1.386 . S
H3841 C3857 0.933 . S
H3842 C3858 0.931 . S
C3843 H3831 0.929 1_554 S
C3843 C3837 1.390 . S
C3843 C3840 1.386 . S
C3844 C3839 1.490 . S
C3844 C3846 1.395 . S
C3844 C3847 1.403 . S
H3845 C3851 0.930 . S
C3846 H3832 0.930 . S
C3846 C3844 1.395 . S
C3846 C3849 1.403 1_455 S
C3847 C3844 1.403 . S
C3847 C3848 1.524 . S
C3847 C3851 1.400 1_455 S
C3848 H3833 0.960 . S
C3848 H3834 0.960 . S
C3848 H3835 0.960 . S
C3848 C3847 1.524 . S
C3849 C3846 1.403 1_655 S
C3849 C3850 1.392 . S
C3849 C3853 1.495 . S
C3850 C3849 1.392 . S
C3850 C3851 1.385 . S
C3850 C3852 1.478 . S
C3851 H3845 0.930 . S
C3851 C3847 1.400 1_655 S
C3851 C3850 1.385 . S
C3852 C3850 1.478 . S
C3852 C3854 1.381 . S
C3852 C3858 1.383 1_554 S
C3853 C3849 1.495 . S
C3853 H3859 0.959 . S
C3853 H3860 0.961 . S
C3853 H3861 0.960 . S
C3854 C3852 1.381 . S
C3854 C3855 1.394 . S
C3854 H3862 0.930 . S
C3855 C3854 1.394 . S
C3855 C3856 1.383 . S
C3855 H3863 0.929 . S
C3856 C3855 1.383 . S
C3856 C3857 1.374 1_554 S
C3857 H3841 0.933 . S
C3857 C3856 1.374 1_556 S
C3857 C3858 1.379 . S
C3858 H3842 0.931 . S
C3858 C3852 1.383 1_556 S
C3858 C3857 1.379 . S
H3859 C3853 0.959 . S
H3860 C3853 0.961 . S
H3861 C3853 0.960 . S
H3862 C3854 0.930 . S
H3863 C3855 0.929 . S
H3864 C3872 0.929 . S
H3865 C3874 0.930 . S
H3866 C3876 0.930 . S
H3867 C3879 0.929 . S
H3868 C3882 0.930 . S
H3869 C3884 0.960 . S
H3870 C3884 0.960 . S
H3871 C3884 0.960 . S
C3872 H3864 0.929 . S
C3872 C3873 1.377 . S
C3872 C3874 1.384 . S
C3873 C3872 1.377 . S
C3873 C3879 1.390 . S
C3874 H3865 0.930 . S
C3874 C3872 1.384 . S
C3874 C3875 1.372 . S
C3875 C3874 1.372 . S
C3875 C3876 1.400 . S
C3875 C3880 1.490 . S
C3876 H3866 0.930 . S
C3876 C3875 1.400 . S
C3876 C3879 1.386 . S
H3877 C3893 0.930 . S
H3878 C3894 0.931 . S
C3879 H3867 0.929 . S
C3879 C3873 1.390 . S
C3879 C3876 1.386 . S
C3880 C3875 1.490 . S
C3880 C3882 1.395 . S
C3880 C3883 1.403 . S
H3881 C3887 0.930 . S
C3882 H3868 0.930 . S
C3882 C3880 1.395 . S
C3882 C3885 1.403 . S
C3883 C3880 1.403 . S
C3883 C3884 1.524 . S
C3883 C3887 1.400 . S
C3884 H3869 0.960 . S
C3884 H3870 0.960 . S
C3884 H3871 0.960 . S
C3884 C3883 1.524 . S
C3885 C3882 1.403 . S
C3885 C3886 1.392 . S
C3885 C3889 1.495 . S
C3886 C3885 1.392 . S
C3886 C3887 1.385 . S
C3886 C3888 1.478 . S
C3887 H3881 0.930 . S
C3887 C3883 1.400 . S
C3887 C3886 1.385 . S
C3888 C3886 1.478 . S
C3888 C3890 1.381 . S
C3888 C3894 1.383 . S
C3889 C3885 1.495 . S
C3889 H3895 0.959 . S
C3889 H3896 0.961 . S
C3889 H3897 0.960 . S
C3890 C3888 1.381 . S
C3890 C3891 1.394 . S
C3890 H3898 0.930 . S
C3891 C3890 1.394 . S
C3891 C3892 1.383 . S
C3891 H3899 0.929 . S
C3892 C3891 1.383 . S
C3892 C3893 1.377 . S
C3893 H3877 0.930 . S
C3893 C3892 1.377 . S
C3893 C3894 1.379 . S
C3894 H3878 0.931 . S
C3894 C3888 1.383 . S
C3894 C3893 1.379 . S
H3895 C3889 0.959 . S
H3896 C3889 0.961 . S
H3897 C3889 0.960 . S
H3898 C3890 0.930 . S
H3899 C3891 0.929 . S
H3900 C3908 0.929 . S
H3901 C3910 0.930 . S
H3902 C3912 0.930 . S
H3903 C3915 0.929 . S
H3904 C3918 0.930 1_554 S
H3905 C3920 0.960 . S
H3906 C3920 0.960 . S
H3907 C3920 0.960 . S
C3908 H3900 0.929 . S
C3908 C3909 1.377 . S
C3908 C3910 1.384 . S
C3909 C3908 1.377 . S
C3909 C3915 1.390 . S
C3910 H3901 0.930 . S
C3910 C3908 1.384 . S
C3910 C3911 1.372 . S
C3911 C3910 1.372 . S
C3911 C3912 1.400 . S
C3911 C3916 1.490 . S
C3912 H3902 0.930 . S
C3912 C3911 1.400 . S
C3912 C3915 1.386 . S
H3913 C3929 0.930 . S
H3914 C3930 0.931 . S
C3915 H3903 0.929 . S
C3915 C3909 1.390 . S
C3915 C3912 1.386 . S
C3916 C3911 1.490 . S
C3916 C3918 1.395 . S
C3916 C3919 1.403 . S
H3917 C3923 0.930 . S
C3918 H3904 0.930 1_556 S
C3918 C3916 1.395 . S
C3918 C3921 1.403 1_456 S
C3919 C3916 1.403 . S
C3919 C3920 1.524 . S
C3919 C3923 1.400 1_455 S
C3920 H3905 0.960 . S
C3920 H3906 0.960 . S
C3920 H3907 0.960 . S
C3920 C3919 1.524 . S
C3921 C3918 1.403 1_654 S
C3921 C3922 1.392 1_554 S
C3921 C3925 1.495 . S
C3922 C3921 1.392 1_556 S
C3922 C3923 1.385 . S
C3922 C3924 1.478 . S
C3923 H3917 0.930 . S
C3923 C3919 1.400 1_655 S
C3923 C3922 1.385 . S
C3924 C3922 1.478 . S
C3924 C3926 1.381 . S
C3924 C3930 1.383 . S
C3925 C3921 1.495 . S
C3925 H3931 0.959 . S
C3925 H3932 0.961 . S
C3925 H3933 0.960 . S
C3926 C3924 1.381 . S
C3926 C3927 1.394 . S
C3926 H3934 0.930 . S
C3927 C3926 1.394 . S
C3927 C3928 1.383 . S
C3927 H3935 0.929 . S
C3928 C3927 1.383 . S
C3928 C3929 1.377 . S
C3929 H3913 0.930 . S
C3929 C3928 1.377 . S
C3929 C3930 1.379 . S
C3930 H3914 0.931 . S
C3930 C3924 1.383 . S
C3930 C3929 1.379 . S
H3931 C3925 0.959 . S
H3932 C3925 0.961 . S
H3933 C3925 0.960 . S
H3934 C3926 0.930 . S
H3935 C3927 0.929 . S
C1065 N2 1.454 . S
C1084 N13 1.473 . S
C1101 N46 1.457 . S
C1120 N35 1.438 . S
C1137 N79 1.456 . S
C1156 N68 1.471 . S
C1173 N112 1.458 1_554 S
C1192 N101 1.470 . S
C1209 N145 1.451 . S
C1228 N134 1.426 . S
C1245 N178 1.450 1_556 S
C1264 N167 1.449 . S
C1281 N200 1.453 . S
C1300 N211 1.473 . S
C1317 N233 1.456 . S
C1336 N244 1.470 . S
C1353 N266 1.450 . S
C1372 N277 1.429 . S
C1389 N299 1.452 . S
C1408 N310 1.433 . S
C1425 N332 1.451 . S
C1444 N343 1.430 . S
C1461 N376 1.450 1_556 S
C1480 N365 1.449 . S
C1497 N398 1.447 . S
C1516 N409 1.441 . S
C1533 N431 1.449 . S
C1552 N442 1.429 1_554 S
C1569 N475 1.450 . S
C1588 N464 1.447 . S
C1605 N497 1.447 . S
C1624 N508 1.438 . S
C1641 N541 1.452 . S
C1660 N530 1.426 . S
C1677 N574 1.453 1_554 S
C1696 N563 1.465 . S
C1713 N607 1.451 . S
C1732 N596 1.427 . S
C1749 N640 1.454 . S
C1768 N629 1.427 . S
C1785 N673 1.456 . S
C1804 N662 1.471 . S
C1821 N706 1.450 . S
C1840 N695 1.450 . S
C1857 N739 1.456 . S
C1876 N728 1.471 . S
C1893 N761 1.456 . S
C1912 N772 1.470 1_556 S
C1929 N805 1.458 . S
C1948 N794 1.443 . S
C1965 N838 1.457 1_556 S
C1984 N827 1.441 . S
C2001 N871 1.457 . S
C2020 N860 1.471 . S
C2037 N893 1.448 . S
C2056 N904 1.431 . S
C2073 N926 1.447 . S
C2092 N937 1.440 . S
C2109 N959 1.449 . S
C2128 N970 1.463 . S
C2145 N1003 1.450 . S
C2164 N992 1.444 . S
C2181 N1025 1.447 . S
C2200 N1036 1.439 1_554 S
C2217 C777 0.972 . S
C2236 C18 0.965 . S
C2253 C678 0.972 . S
C2272 C51 0.972 . S
C2289 C711 0.973 . S
C2308 C84 0.977 . S
C2325 C744 0.972 . S
C2344 C117 0.965 . S
C2361 C579 0.972 . S
C2380 C150 0.966 . S
C2397 C612 0.974 . S
C2416 C183 0.970 . S
C2433 C645 0.972 . S
C2452 C216 0.972 . S
C2469 C546 0.973 . S
C2488 C249 0.970 . S
C2505 C1041 0.972 . S
C2524 C282 0.972 . S
C2541 C942 0.974 . S
C2560 C315 0.975 . S
C2577 C348 0.974 . S
C2596 C975 0.971 . S
C2613 C381 0.974 . S
C2632 C1008 0.974 . S
C2649 C414 0.972 . S
C2668 C843 0.970 . S
C2685 C447 0.972 . S
C2704 C876 0.967 . S
C2721 C480 0.973 . S
C2740 C909 0.965 . S
C2757 C810 0.972 . S
C2776 C513 0.973 . S
C2793 C139 1.368 . S
C2812 C7 1.360 . S
C2829 C40 1.365 . S
C2848 C172 1.380 . S
C2865 C205 1.366 . S
C2884 C73 1.377 . S
C2901 C106 1.370 . S
C2920 C238 1.364 . S
C2937 C271 1.371 . S
C2956 C403 1.358 . S
C2973 C436 1.372 . S
C2992 C304 1.375 . S
C3009 C469 1.369 . S
C3028 C337 1.349 . S
C3045 C502 1.372 . S
C3064 C370 1.377 . S
C3081 C667 1.365 . S
C3100 C535 1.382 . S
C3117 C568 1.368 . S
C3136 C700 1.359 . S
C3153 C601 1.372 . S
C3172 C733 1.350 . S
C3189 C634 1.364 . S
C3208 C766 1.383 . S
C3225 C931 1.364 . S
C3244 C799 1.366 . S
C3261 C964 1.364 . S
C3280 C832 1.364 . S
C3297 C997 1.371 . S
C3316 C865 1.380 . S
C3333 C898 1.371 . S
C3352 C1030 1.357 . S
C3369 C21 1.412 . S
C3388 C417 1.420 . S
C3405 C978 1.415 . S
C3424 C54 1.420 . S
C3441 C87 1.415 . S
C3460 C483 1.400 . S
C3477 C1044 1.416 . S
C3496 C120 1.415 . S
C3513 C285 1.414 . S
C3532 C153 1.423 . S
C3549 C186 1.416 . S
C3568 C846 1.413 . S
C3585 C219 1.415 . S
C3604 C351 1.400 . S
C3621 C252 1.416 . S
C3640 C912 1.416 . S
C3657 C714 1.415 . S
C3676 C318 1.419 . S
C3693 C780 1.412 . S
C3712 C384 1.421 . S
C3729 C582 1.413 . S
C3748 C450 1.407 . S
C3765 C648 1.412 . S
C3784 C516 1.421 . S
C3801 C549 1.415 . S
C3820 C945 1.400 . S
C3837 C1011 1.415 . S
C3856 C615 1.400 . S
C3873 C681 1.412 . S
C3892 C813 1.418 . S
C3909 C879 1.413 . S
C3928 C747 1.406 . S
