# Generated by pormake.
# Topology zfx, (5)-cn, num edge types: 1
# Building blocks:
#     Node 0, Type 0, BuildingBlock: BEQFEK_clean_sbu_0, # of connection points: 5
#     Node 1, Type 0, BuildingBlock: BEQFEK_clean_sbu_0, # of connection points: 5
#     Node 2, Type 0, BuildingBlock: BEQFEK_clean_sbu_0, # of connection points: 5
#     Node 3, Type 0, BuildingBlock: BEQFEK_clean_sbu_0, # of connection points: 5
#     Node 4, Type 0, BuildingBlock: BEQFEK_clean_sbu_0, # of connection points: 5
#     Node 5, Type 0, BuildingBlock: BEQFEK_clean_sbu_0, # of connection points: 5
#     Node 6, Type 0, BuildingBlock: BEQFEK_clean_sbu_0, # of connection points: 5
#     Node 7, Type 0, BuildingBlock: BEQFEK_clean_sbu_0, # of connection points: 5
#     Node 8, Type 0, BuildingBlock: BEQFEK_clean_sbu_0, # of connection points: 5
#     Node 9, Type 0, BuildingBlock: BEQFEK_clean_sbu_0, # of connection points: 5
#     Node 10, Type 0, BuildingBlock: BEQFEK_clean_sbu_0, # of connection points: 5
#     Node 11, Type 0, BuildingBlock: BEQFEK_clean_sbu_0, # of connection points: 5
#     Node 12, Type 0, BuildingBlock: BEQFEK_clean_sbu_0, # of connection points: 5
#     Node 13, Type 0, BuildingBlock: BEQFEK_clean_sbu_0, # of connection points: 5
#     Node 14, Type 0, BuildingBlock: BEQFEK_clean_sbu_0, # of connection points: 5
#     Node 15, Type 0, BuildingBlock: BEQFEK_clean_sbu_0, # of connection points: 5
#     Edge 16, Type (0, 0), BuildingBlock: MIFKUJ_clean_linker_0, # of connection points: 2
#     Edge 17, Type (0, 0), BuildingBlock: MIFKUJ_clean_linker_0, # of connection points: 2
#     Edge 18, Type (0, 0), BuildingBlock: MIFKUJ_clean_linker_0, # of connection points: 2
#     Edge 19, Type (0, 0), BuildingBlock: MIFKUJ_clean_linker_0, # of connection points: 2
#     Edge 20, Type (0, 0), BuildingBlock: MIFKUJ_clean_linker_0, # of connection points: 2
#     Edge 21, Type (0, 0), BuildingBlock: MIFKUJ_clean_linker_0, # of connection points: 2
#     Edge 22, Type (0, 0), BuildingBlock: MIFKUJ_clean_linker_0, # of connection points: 2
#     Edge 23, Type (0, 0), BuildingBlock: MIFKUJ_clean_linker_0, # of connection points: 2
#     Edge 24, Type (0, 0), BuildingBlock: MIFKUJ_clean_linker_0, # of connection points: 2
#     Edge 25, Type (0, 0), BuildingBlock: MIFKUJ_clean_linker_0, # of connection points: 2
#     Edge 26, Type (0, 0), BuildingBlock: MIFKUJ_clean_linker_0, # of connection points: 2
#     Edge 27, Type (0, 0), BuildingBlock: MIFKUJ_clean_linker_0, # of connection points: 2
#     Edge 28, Type (0, 0), BuildingBlock: MIFKUJ_clean_linker_0, # of connection points: 2
#     Edge 29, Type (0, 0), BuildingBlock: MIFKUJ_clean_linker_0, # of connection points: 2
#     Edge 30, Type (0, 0), BuildingBlock: MIFKUJ_clean_linker_0, # of connection points: 2
#     Edge 31, Type (0, 0), BuildingBlock: MIFKUJ_clean_linker_0, # of connection points: 2
#     Edge 32, Type (0, 0), BuildingBlock: MIFKUJ_clean_linker_0, # of connection points: 2
#     Edge 33, Type (0, 0), BuildingBlock: MIFKUJ_clean_linker_0, # of connection points: 2
#     Edge 34, Type (0, 0), BuildingBlock: MIFKUJ_clean_linker_0, # of connection points: 2
#     Edge 35, Type (0, 0), BuildingBlock: MIFKUJ_clean_linker_0, # of connection points: 2
#     Edge 36, Type (0, 0), BuildingBlock: MIFKUJ_clean_linker_0, # of connection points: 2
#     Edge 37, Type (0, 0), BuildingBlock: MIFKUJ_clean_linker_0, # of connection points: 2
#     Edge 38, Type (0, 0), BuildingBlock: MIFKUJ_clean_linker_0, # of connection points: 2
#     Edge 39, Type (0, 0), BuildingBlock: MIFKUJ_clean_linker_0, # of connection points: 2
#     Edge 40, Type (0, 0), BuildingBlock: MIFKUJ_clean_linker_0, # of connection points: 2
#     Edge 41, Type (0, 0), BuildingBlock: MIFKUJ_clean_linker_0, # of connection points: 2
#     Edge 42, Type (0, 0), BuildingBlock: MIFKUJ_clean_linker_0, # of connection points: 2
#     Edge 43, Type (0, 0), BuildingBlock: MIFKUJ_clean_linker_0, # of connection points: 2
#     Edge 44, Type (0, 0), BuildingBlock: MIFKUJ_clean_linker_0, # of connection points: 2
#     Edge 45, Type (0, 0), BuildingBlock: MIFKUJ_clean_linker_0, # of connection points: 2
#     Edge 46, Type (0, 0), BuildingBlock: MIFKUJ_clean_linker_0, # of connection points: 2
#     Edge 47, Type (0, 0), BuildingBlock: MIFKUJ_clean_linker_0, # of connection points: 2
#     Edge 48, Type (0, 0), BuildingBlock: MIFKUJ_clean_linker_0, # of connection points: 2
#     Edge 49, Type (0, 0), BuildingBlock: MIFKUJ_clean_linker_0, # of connection points: 2
#     Edge 50, Type (0, 0), BuildingBlock: MIFKUJ_clean_linker_0, # of connection points: 2
#     Edge 51, Type (0, 0), BuildingBlock: MIFKUJ_clean_linker_0, # of connection points: 2
#     Edge 52, Type (0, 0), BuildingBlock: MIFKUJ_clean_linker_0, # of connection points: 2
#     Edge 53, Type (0, 0), BuildingBlock: MIFKUJ_clean_linker_0, # of connection points: 2
#     Edge 54, Type (0, 0), BuildingBlock: MIFKUJ_clean_linker_0, # of connection points: 2
#     Edge 55, Type (0, 0), BuildingBlock: MIFKUJ_clean_linker_0, # of connection points: 2
# Relax obj value: 0.543
# Max RMSD: 0.177
# Mean RMSD: 0.177
data_MOF--net-zfx--node1-BEQFEK_clean_sbu_0--edge1-MIFKUJ_clean_linker_0
_symmetry_space_group_name_H-M    P1
_symmetry_Int_Tables_number       1
_symmetry_cell_setting            triclinic
loop_
_symmetry_equiv_pos_as_xyz
'x, y, z'
_cell_length_a     74.255864
_cell_length_b     74.281034
_cell_length_c     31.366644
_cell_angle_alpha  89.977476
_cell_angle_beta   90.051665
_cell_angle_gamma 89.994354
loop_
_atom_site_label
_atom_site_type_symbol
_atom_site_fract_x
_atom_site_fract_y
_atom_site_fract_z
_atom_type_partial_charge
Co0 Co 0.49819 0.12675 0.39875 0.0
Co1 Co 0.533 0.11869 0.34815 0.0
C2 C 0.53509 0.13797 0.43093 0.0
O3 O 0.51799 0.13703 0.4342 0.0
O4 O 0.5433 0.13146 0.39868 0.0
C5 C 0.47331 0.1239 0.46084 0.0
O6 O 0.48644 0.11344 0.47412 0.0
C7 C 0.568 0.1162 0.30313 0.0
C8 C 0.56089 0.09534 0.25563 0.0
C9 C 0.575 0.1058 0.27031 0.0
N10 N 0.55052 0.11194 0.30761 0.0
N11 N 0.54642 0.09945 0.27925 0.0
C12 C 0.57783 0.12906 0.33153 0.0
H13 H 0.57463 0.12604 0.3653 0.0
H14 H 0.57317 0.14296 0.32471 0.0
H15 H 0.59262 0.1282 0.32699 0.0
C16 C 0.48812 0.14539 0.31919 0.0
N17 N 0.49952 0.13544 0.3427 0.0
N18 N 0.51448 0.13272 0.32128 0.0
C19 C 0.51323 0.14132 0.28343 0.0
C20 C 0.49644 0.1497 0.2808 0.0
C21 C 0.46934 0.14993 0.3329 0.0
H22 H 0.46342 0.13844 0.35058 0.0
H23 H 0.46977 0.16171 0.35462 0.0
H24 H 0.46061 0.15311 0.30519 0.0
O25 O 0.49883 0.10049 0.39988 0.0
O26 O 0.52436 0.09479 0.36698 0.0
H27 H 0.52846 0.13012 0.23219 0.0
H28 H 0.5268 0.15437 0.23081 0.0
C29 C 0.52833 0.1425 0.25199 0.0
H30 H 0.5414 0.14339 0.26902 0.0
H31 H 0.53369 0.09359 0.27633 0.0
O32 O 0.47532 0.13264 0.42638 0.0
C33 C 0.51049 0.0894 0.38676 0.0
Co34 Co 0.13174 0.24047 0.67143 0.0
Co35 Co 0.13645 0.27384 0.61358 0.0
C36 C 0.11835 0.27784 0.69699 0.0
O37 O 0.12131 0.26113 0.70341 0.0
O38 O 0.12275 0.28541 0.66185 0.0
C39 C 0.13634 0.21812 0.73864 0.0
O40 O 0.14554 0.23244 0.75009 0.0
C41 C 0.14205 0.30721 0.56272 0.0
C42 C 0.15649 0.29517 0.50802 0.0
C43 C 0.15096 0.31143 0.52499 0.0
N44 N 0.14236 0.28922 0.56749 0.0
N45 N 0.15108 0.28219 0.5348 0.0
C46 C 0.13504 0.31994 0.59571 0.0
H47 H 0.13739 0.31438 0.62806 0.0
H48 H 0.1203 0.32156 0.59129 0.0
H49 H 0.1416 0.33331 0.59302 0.0
C50 C 0.11355 0.22593 0.59475 0.0
N51 N 0.12246 0.23899 0.61576 0.0
N52 N 0.12353 0.2534 0.59161 0.0
C53 C 0.11471 0.25015 0.55471 0.0
C54 C 0.10816 0.23254 0.55519 0.0
C55 C 0.11112 0.20726 0.6118 0.0
H56 H 0.12309 0.20328 0.63075 0.0
H57 H 0.0992 0.207 0.6331 0.0
H58 H 0.10914 0.19739 0.58568 0.0
O59 O 0.15774 0.24275 0.67137 0.0
O60 O 0.16118 0.26768 0.63414 0.0
H61 H 0.12205 0.26366 0.49713 0.0
H62 H 0.09815 0.26159 0.50508 0.0
C63 C 0.11119 0.26414 0.52135 0.0
H64 H 0.11097 0.27775 0.53584 0.0
H65 H 0.15379 0.26846 0.53143 0.0
O66 O 0.12756 0.21845 0.7039 0.0
C67 C 0.16772 0.25493 0.65621 0.0
Co68 Co 0.02552 0.85908 0.9246 0.0
Co69 Co 0.99408 0.87552 0.87306 0.0
C70 C 0.98694 0.85127 0.94749 0.0
O71 O 0.00382 0.84897 0.95202 0.0
O72 O 0.98067 0.86149 0.91824 0.0
C73 C 0.04593 0.85187 0.9918 0.0
O74 O 0.03076 0.85802 0.00765 0.0
C75 C 0.96252 0.88074 0.8181 0.0
C76 C 0.96816 0.90783 0.7919 0.0
C77 C 0.95579 0.89391 0.79094 0.0
N78 N 0.97806 0.88674 0.83453 0.0
N79 N 0.98127 0.90299 0.81911 0.0
C80 C 0.95533 0.86221 0.82578 0.0
H81 H 0.96612 0.85325 0.83806 0.0
H82 H 0.94964 0.85652 0.79599 0.0
H83 H 0.94445 0.86289 0.84993 0.0
C84 C 0.03617 0.84543 0.84009 0.0
N85 N 0.02503 0.85475 0.86561 0.0
N86 N 0.01151 0.86114 0.84311 0.0
C87 C 0.01368 0.85602 0.80206 0.0
C88 C 0.02945 0.84593 0.7988 0.0
C89 C 0.05246 0.83555 0.85575 0.0
H90 H 0.049 0.8279 0.88499 0.0
H91 H 0.05778 0.82612 0.83144 0.0
H92 H 0.06305 0.84546 0.86426 0.0
O93 O 0.0278 0.88494 0.93811 0.0
O94 O 0.00565 0.89642 0.90007 0.0
H95 H 0.00683 0.85742 0.73496 0.0
H96 H 0.98807 0.85476 0.77115 0.0
C97 C 0.00133 0.86134 0.76649 0.0
H98 H 0.9992 0.87611 0.76713 0.0
H99 H 0.99263 0.91065 0.82652 0.0
O100 O 0.04698 0.84918 0.95196 0.0
C101 C 0.0188 0.89839 0.92539 0.0
Co102 Co 0.39261 0.76953 0.17338 0.0
Co103 Co 0.39056 0.73612 0.1154 0.0
C104 C 0.4067 0.7325 0.20042 0.0
O105 O 0.40269 0.74896 0.20717 0.0
O106 O 0.40357 0.72509 0.16446 0.0
C107 C 0.3857 0.78982 0.24167 0.0
O108 O 0.37746 0.77451 0.24946 0.0
C109 C 0.38653 0.702 0.0682 0.0
C110 C 0.37639 0.7125 0.00671 0.0
C111 C 0.38028 0.69669 0.02827 0.0
N112 N 0.38658 0.72009 0.06947 0.0
N113 N 0.38023 0.72623 0.03292 0.0
C114 C 0.39006 0.69041 0.10634 0.0
H115 H 0.38615 0.69761 0.13587 0.0
H116 H 0.40467 0.68736 0.10814 0.0
H117 H 0.38239 0.67761 0.10442 0.0
C118 C 0.41347 0.7844 0.10138 0.0
N119 N 0.4039 0.77123 0.12016 0.0
N120 N 0.40371 0.7569 0.09556 0.0
C121 C 0.41387 0.76034 0.06073 0.0
C122 C 0.42016 0.77797 0.06302 0.0
C123 C 0.41669 0.80246 0.12102 0.0
H124 H 0.42203 0.80068 0.1538 0.0
H125 H 0.42632 0.81062 0.10209 0.0
H126 H 0.40368 0.80973 0.12359 0.0
O127 O 0.36672 0.76728 0.16648 0.0
O128 O 0.3653 0.7412 0.13328 0.0
H129 H 0.40744 0.74889 0.00013 0.0
H130 H 0.431 0.74919 0.01166 0.0
C131 C 0.41753 0.74706 0.02587 0.0
H132 H 0.41674 0.73311 0.03823 0.0
H133 H 0.37799 0.73982 0.02636 0.0
O134 O 0.39492 0.79137 0.20776 0.0
C135 C 0.35763 0.75436 0.15155 0.0
Co136 Co 0.49972 0.87766 0.58058 0.0
Co137 Co 0.53793 0.88603 0.61526 0.0
C138 C 0.53259 0.8618 0.53988 0.0
O139 O 0.5156 0.86422 0.54077 0.0
O140 O 0.54293 0.86886 0.56772 0.0
C141 C 0.46853 0.85767 0.55486 0.0
O142 O 0.47953 0.84382 0.55345 0.0
C143 C 0.57193 0.88045 0.66036 0.0
C144 C 0.57914 0.90837 0.67775 0.0
C145 C 0.58433 0.89062 0.68313 0.0
N146 N 0.55976 0.89168 0.64333 0.0
N147 N 0.56437 0.90838 0.65293 0.0
C148 C 0.57167 0.86047 0.65394 0.0
H149 H 0.55956 0.85462 0.6692 0.0
H150 H 0.58398 0.85399 0.66686 0.0
H151 H 0.57065 0.85752 0.61935 0.0
C152 C 0.49403 0.86584 0.6697 0.0
N153 N 0.5046 0.87253 0.63861 0.0
N154 N 0.52049 0.87662 0.65453 0.0
C155 C 0.52036 0.87289 0.69679 0.0
C156 C 0.50365 0.86582 0.7076 0.0
C157 C 0.47537 0.85885 0.66252 0.0
H158 H 0.47587 0.8479 0.63861 0.0
H159 H 0.46923 0.8534 0.69198 0.0
H160 H 0.46676 0.8698 0.64972 0.0
O161 O 0.50219 0.90342 0.56871 0.0
O162 O 0.52981 0.90919 0.59111 0.0
H163 H 0.54263 0.88941 0.71668 0.0
H164 H 0.52981 0.87965 0.75978 0.0
C165 C 0.53523 0.87728 0.72729 0.0
H166 H 0.54465 0.86575 0.72917 0.0
H167 H 0.55698 0.91974 0.6442 0.0
O168 O 0.47448 0.87284 0.56667 0.0
C169 C 0.51518 0.91428 0.57394 0.0
Co170 Co 0.38381 0.2443 0.82744 0.0
Co171 Co 0.37485 0.28022 0.87192 0.0
C172 C 0.39888 0.27999 0.7971 0.0
O173 O 0.39613 0.26314 0.79367 0.0
O174 O 0.3922 0.28911 0.8277 0.0
C175 C 0.40667 0.21855 0.78997 0.0
O176 O 0.419 0.23106 0.795 0.0
C177 C 0.37531 0.31263 0.92653 0.0
C178 C 0.34654 0.31424 0.94416 0.0
C179 C 0.36306 0.32229 0.95083 0.0
N180 N 0.36639 0.29935 0.90663 0.0
N181 N 0.34915 0.30061 0.91671 0.0
C182 C 0.39501 0.31624 0.92135 0.0
H183 H 0.40162 0.30517 0.90349 0.0
H184 H 0.40161 0.31798 0.95278 0.0
H185 H 0.39677 0.32903 0.9035 0.0
C186 C 0.39751 0.23472 0.91255 0.0
N187 N 0.38902 0.24612 0.88597 0.0
N188 N 0.38555 0.2613 0.90592 0.0
C189 C 0.39191 0.25997 0.94631 0.0
C190 C 0.39993 0.24313 0.95158 0.0
C191 C 0.40323 0.21607 0.90065 0.0
H192 H 0.39263 0.20956 0.88109 0.0
H193 H 0.41577 0.21679 0.88152 0.0
H194 H 0.40578 0.2077 0.92934 0.0
O195 O 0.35824 0.24548 0.81556 0.0
O196 O 0.3523 0.27224 0.84254 0.0
H197 H 0.37852 0.28178 0.97776 0.0
H198 H 0.39493 0.27035 0.01053 0.0
C199 C 0.39184 0.27506 0.97784 0.0
H200 H 0.40225 0.28499 0.96861 0.0
H201 H 0.33921 0.29176 0.90605 0.0
O202 O 0.39097 0.22118 0.80434 0.0
C203 C 0.34736 0.25828 0.82225 0.0
Co204 Co 0.02838 0.11424 0.09529 0.0
Co205 Co 0.99181 0.10287 0.13329 0.0
C206 C 0.99291 0.12544 0.05492 0.0
O207 O 0.01004 0.12468 0.05608 0.0
O208 O 0.98343 0.11788 0.08375 0.0
C209 C 0.05346 0.13968 0.06535 0.0
O210 O 0.03993 0.15089 0.07038 0.0
C211 C 0.95682 0.10193 0.17757 0.0
C212 C 0.95673 0.07388 0.20118 0.0
C213 C 0.9469 0.08971 0.2018 0.0
N214 N 0.97181 0.09364 0.16398 0.0
N215 N 0.97148 0.07679 0.17742 0.0
C216 C 0.95318 0.12151 0.17027 0.0
H217 H 0.96523 0.12828 0.15687 0.0
H218 H 0.9492 0.12815 0.20051 0.0
H219 H 0.94194 0.12295 0.14717 0.0
C220 C 0.03364 0.12948 0.18153 0.0
N221 N 0.02377 0.12031 0.15284 0.0
N222 N 0.00809 0.1161 0.16966 0.0
C223 C 0.00749 0.12274 0.20988 0.0
C224 C 0.02363 0.13166 0.21848 0.0
C225 C 0.05267 0.13544 0.17431 0.0
H226 H 0.06001 0.12522 0.15533 0.0
H227 H 0.05263 0.14833 0.15646 0.0
H228 H 0.05985 0.13749 0.20498 0.0
O229 O 0.03001 0.08823 0.0869 0.0
O230 O 0.00339 0.08048 0.11218 0.0
H231 H 0.98555 0.10792 0.23708 0.0
H232 H 0.9946 0.12514 0.27169 0.0
C233 C 0.99134 0.12165 0.23825 0.0
H234 H 0.98109 0.13133 0.22677 0.0
H235 H 0.98165 0.06744 0.17181 0.0
O236 O 0.05159 0.12341 0.07653 0.0
C237 C 0.01835 0.0763 0.09528 0.0
Co238 Co 0.14442 0.76713 0.33044 0.0
Co239 Co 0.15126 0.72924 0.36858 0.0
C240 C 0.12983 0.73366 0.2883 0.0
O241 O 0.13135 0.75077 0.28996 0.0
O242 O 0.13683 0.72361 0.31685 0.0
C243 C 0.12564 0.79884 0.30259 0.0
O244 O 0.11109 0.78878 0.30391 0.0
C245 C 0.14787 0.69264 0.40556 0.0
C246 C 0.17311 0.69164 0.44301 0.0
C247 C 0.15795 0.68174 0.43263 0.0
N248 N 0.15669 0.7083 0.40067 0.0
N249 N 0.17182 0.70752 0.4228 0.0
C250 C 0.13067 0.68804 0.38312 0.0
H251 H 0.13081 0.69351 0.3503 0.0
H252 H 0.11921 0.69428 0.40033 0.0
H253 H 0.12863 0.67326 0.38156 0.0
C254 C 0.12926 0.7736 0.41691 0.0
N255 N 0.13742 0.76308 0.38772 0.0
N256 N 0.13958 0.74682 0.40362 0.0
C257 C 0.13241 0.74639 0.44319 0.0
C258 C 0.12568 0.76337 0.45294 0.0
C259 C 0.12406 0.79281 0.40946 0.0
H260 H 0.13526 0.80007 0.39366 0.0
H261 H 0.11211 0.79321 0.3883 0.0
H262 H 0.12057 0.7998 0.43954 0.0
O263 O 0.17048 0.76426 0.32261 0.0
O264 O 0.17528 0.73721 0.34936 0.0
H265 H 0.14612 0.72547 0.47688 0.0
H266 H 0.12553 0.73285 0.50215 0.0
C267 C 0.13212 0.73007 0.47111 0.0
H268 H 0.12485 0.71906 0.45454 0.0
H269 H 0.18121 0.71794 0.42442 0.0
O270 O 0.1406 0.79216 0.31367 0.0
C271 C 0.18106 0.75139 0.33144 0.0
Co272 Co 0.88599 0.73579 0.33774 0.0
Co273 Co 0.87483 0.77027 0.38676 0.0
C274 C 0.89772 0.77246 0.308 0.0
O275 O 0.89744 0.75536 0.30461 0.0
O276 O 0.88958 0.78049 0.33847 0.0
C277 C 0.88502 0.70859 0.27928 0.0
O278 O 0.87371 0.72028 0.26285 0.0
C279 C 0.8751 0.80276 0.44106 0.0
C280 C 0.84699 0.8023 0.4644 0.0
C281 C 0.86298 0.81178 0.46733 0.0
N282 N 0.86655 0.78864 0.4237 0.0
N283 N 0.84971 0.78859 0.43734 0.0
C284 C 0.89474 0.80643 0.43496 0.0
H285 H 0.9015 0.79463 0.42026 0.0
H286 H 0.90119 0.80969 0.46595 0.0
H287 H 0.89638 0.81815 0.41339 0.0
C288 C 0.90256 0.72647 0.41979 0.0
N289 N 0.89252 0.73746 0.39539 0.0
N290 N 0.88778 0.75176 0.41749 0.0
C291 C 0.89451 0.75002 0.45744 0.0
C292 C 0.9042 0.734 0.45994 0.0
C293 C 0.91072 0.70925 0.40432 0.0
H294 H 0.89986 0.70016 0.39308 0.0
H295 H 0.91963 0.71212 0.37675 0.0
H296 H 0.91857 0.70238 0.42968 0.0
O297 O 0.85975 0.73638 0.32978 0.0
O298 O 0.85193 0.76131 0.36279 0.0
H299 H 0.87855 0.76927 0.49158 0.0
H300 H 0.89509 0.75756 0.52386 0.0
C301 C 0.89236 0.76362 0.49215 0.0
H302 H 0.90208 0.77473 0.48696 0.0
H303 H 0.84016 0.77892 0.4291 0.0
O304 O 0.89329 0.7126 0.31342 0.0
C305 C 0.84784 0.74763 0.34075 0.0
Co306 Co 0.63826 0.2534 0.82252 0.0
Co307 Co 0.64852 0.21821 0.86976 0.0
C308 C 0.62564 0.21668 0.79212 0.0
O309 O 0.62643 0.23381 0.78947 0.0
O310 O 0.63365 0.20813 0.82198 0.0
C311 C 0.6378 0.2797 0.76254 0.0
O312 O 0.64744 0.26705 0.74422 0.0
C313 C 0.65074 0.1845 0.92045 0.0
C314 C 0.6772 0.18887 0.95129 0.0
C315 C 0.66306 0.17679 0.94861 0.0
N316 N 0.65745 0.20036 0.90737 0.0
N317 N 0.67332 0.20276 0.92557 0.0
C318 C 0.63244 0.17779 0.90841 0.0
H319 H 0.62435 0.18872 0.89374 0.0
H320 H 0.62535 0.17243 0.93685 0.0
H321 H 0.63384 0.16675 0.88482 0.0
C322 C 0.62319 0.26288 0.90622 0.0
N323 N 0.63219 0.2516 0.88042 0.0
N324 N 0.63572 0.23654 0.90078 0.0
C325 C 0.62871 0.23766 0.94046 0.0
C326 C 0.62039 0.25442 0.94518 0.0
C327 C 0.61802 0.28166 0.89384 0.0
H328 H 0.62914 0.288 0.87569 0.0
H329 H 0.60598 0.28116 0.87289 0.0
H330 H 0.61503 0.29009 0.92214 0.0
O331 O 0.66444 0.25308 0.8144 0.0
O332 O 0.67127 0.22742 0.84554 0.0
H333 H 0.64285 0.22045 0.98355 0.0
H334 H 0.61983 0.22504 0.99922 0.0
C335 C 0.6289 0.22249 0.97182 0.0
H336 H 0.62459 0.20994 0.95574 0.0
H337 H 0.6814 0.21409 0.92103 0.0
O338 O 0.63084 0.2766 0.79872 0.0
C339 C 0.67595 0.24133 0.82495 0.0
Co340 Co 0.63296 0.72936 0.17271 0.0
Co341 Co 0.64008 0.7629 0.11663 0.0
C342 C 0.61911 0.76641 0.19663 0.0
O343 O 0.62135 0.74965 0.2034 0.0
O344 O 0.62528 0.77392 0.1631 0.0
C345 C 0.63487 0.70918 0.24233 0.0
O346 O 0.64238 0.72459 0.25269 0.0
C347 C 0.63881 0.79601 0.06475 0.0
C348 C 0.66235 0.79145 0.0229 0.0
C349 C 0.64892 0.8037 0.03232 0.0
N350 N 0.64601 0.77989 0.07399 0.0
N351 N 0.6601 0.7773 0.04902 0.0
C352 C 0.6234 0.80416 0.08866 0.0
H353 H 0.62681 0.80472 0.12305 0.0
H354 H 0.61134 0.79546 0.08518 0.0
H355 H 0.6203 0.81799 0.07756 0.0
C356 C 0.61615 0.71587 0.09337 0.0
N357 N 0.62525 0.72837 0.11566 0.0
N358 N 0.62769 0.74274 0.09185 0.0
C359 C 0.61974 0.73999 0.05367 0.0
C360 C 0.61214 0.72279 0.05321 0.0
C361 C 0.6119 0.69751 0.11025 0.0
H362 H 0.62302 0.69273 0.131 0.0
H363 H 0.59947 0.69822 0.12979 0.0
H364 H 0.60985 0.68772 0.08398 0.0
O365 O 0.65898 0.73162 0.17624 0.0
O366 O 0.6643 0.75638 0.13966 0.0
H367 H 0.63089 0.75509 0.00211 0.0
H368 H 0.60691 0.75126 0.99759 0.0
C369 C 0.61805 0.75421 0.02009 0.0
H370 H 0.61554 0.76745 0.03523 0.0
H371 H 0.66825 0.76584 0.05 0.0
O372 O 0.6281 0.70742 0.20535 0.0
C373 C 0.66982 0.74341 0.1626 0.0
Co374 Co 0.89535 0.26133 0.68196 0.0
Co375 Co 0.88761 0.22659 0.63083 0.0
C376 C 0.91124 0.22534 0.70805 0.0
O377 O 0.90903 0.24226 0.71313 0.0
O378 O 0.90406 0.2171 0.67653 0.0
C379 C 0.91392 0.29355 0.71395 0.0
O380 O 0.92948 0.28656 0.70288 0.0
C381 C 0.88951 0.19502 0.57297 0.0
C382 C 0.86259 0.19722 0.54305 0.0
C383 C 0.87846 0.18749 0.54201 0.0
N384 N 0.88054 0.20872 0.59112 0.0
N385 N 0.86437 0.20971 0.57363 0.0
C386 C 0.90878 0.19057 0.58207 0.0
H387 H 0.91532 0.20163 0.60012 0.0
H388 H 0.91616 0.18808 0.55187 0.0
H389 H 0.90937 0.17809 0.60146 0.0
C390 C 0.90606 0.27475 0.59606 0.0
N391 N 0.9003 0.2617 0.62269 0.0
N392 N 0.8977 0.2468 0.60089 0.0
C393 C 0.90216 0.24984 0.55968 0.0
C394 C 0.90767 0.26767 0.55532 0.0
C395 C 0.90839 0.29408 0.60837 0.0
H396 H 0.89807 0.29798 0.6321 0.0
H397 H 0.92196 0.29596 0.62244 0.0
H398 H 0.90716 0.30306 0.58023 0.0
O399 O 0.86968 0.25811 0.6923 0.0
O400 O 0.86419 0.23298 0.65731 0.0
H401 H 0.88768 0.23172 0.51931 0.0
H402 H 0.90803 0.24057 0.49555 0.0
C403 C 0.90181 0.23576 0.52559 0.0
H404 H 0.90929 0.22375 0.5367 0.0
H405 H 0.85478 0.21945 0.58132 0.0
O406 O 0.89952 0.28484 0.70763 0.0
C407 C 0.85888 0.24589 0.6806 0.0
Co408 Co 0.01215 0.63053 0.90742 0.0
Co409 Co 0.04564 0.61756 0.85817 0.0
C410 C 0.04853 0.64499 0.92873 0.0
O411 O 0.03155 0.64462 0.93383 0.0
O412 O 0.05627 0.63515 0.90076 0.0
C413 C 0.98685 0.6522 0.95183 0.0
O414 O 0.99929 0.66475 0.95018 0.0
C415 C 0.07534 0.6171 0.79613 0.0
C416 C 0.07948 0.58778 0.78854 0.0
C417 C 0.08534 0.60434 0.7742 0.0
N418 N 0.06393 0.6084 0.82206 0.0
N419 N 0.06665 0.5909 0.81779 0.0
C420 C 0.07714 0.63715 0.79425 0.0
H421 H 0.06624 0.64372 0.81281 0.0
H422 H 0.07682 0.64199 0.76086 0.0
H423 H 0.09037 0.64107 0.80784 0.0
C424 C -1e-05 0.64145 0.82211 0.0
N425 N 0.01211 0.63358 0.84797 0.0
N426 N 0.02596 0.6279 0.8256 0.0
C427 C 0.0227 0.6316 0.78396 0.0
C428 C 0.00614 0.64039 0.78042 0.0
C429 C 0.98375 0.65133 0.83806 0.0
H430 H 0.9877 0.66008 0.86507 0.0
H431 H 0.97754 0.65992 0.81319 0.0
H432 H 0.97369 0.64147 0.84983 0.0
O433 O 0.01399 0.60518 0.92487 0.0
O434 O 0.03778 0.59584 0.88932 0.0
H435 H 0.02675 0.62454 0.71802 0.0
H436 H 0.04488 0.63673 0.74257 0.0
C437 C 0.03464 0.62612 0.74787 0.0
H438 H 0.04153 0.61327 0.75535 0.0
H439 H 0.05942 0.58101 0.83401 0.0
O440 O 0.9893 0.63745 0.93254 0.0
C441 C 0.025 0.59283 0.91512 0.0
Co442 Co 0.52954 0.37104 0.40446 0.0
Co443 Co 0.49285 0.37399 0.35906 0.0
C444 C 0.49515 0.35455 0.44072 0.0
O445 O 0.51183 0.35861 0.44252 0.0
O446 O 0.48552 0.35911 0.40878 0.0
C447 C 0.55745 0.35255 0.44572 0.0
O448 O 0.54652 0.33878 0.44079 0.0
C449 C 0.45668 0.37277 0.31978 0.0
C450 C 0.45972 0.39479 0.27276 0.0
C451 C 0.44743 0.3827 0.28934 0.0
N452 N 0.47368 0.37891 0.32125 0.0
N453 N 0.47539 0.39204 0.29311 0.0
C454 C 0.44933 0.35879 0.34935 0.0
H455 H 0.45174 0.36304 0.38276 0.0
H456 H 0.45663 0.34593 0.3443 0.0
H457 H 0.43467 0.35671 0.34466 0.0
C458 C 0.53996 0.35381 0.3229 0.0
N459 N 0.52807 0.36235 0.34815 0.0
N460 N 0.51231 0.36291 0.32913 0.0
C461 C 0.51353 0.35428 0.29139 0.0
C462 C 0.53114 0.34815 0.2861 0.0
C463 C 0.5595 0.35166 0.33347 0.0
H464 H 0.56437 0.36356 0.35141 0.0
H465 H 0.56128 0.33956 0.35379 0.0
H466 H 0.56771 0.35005 0.30416 0.0
O467 O 0.52591 0.39695 0.40756 0.0
O468 O 0.4987 0.39853 0.3797 0.0
H469 H 0.49535 0.36256 0.24244 0.0
H470 H 0.5001 0.33872 0.2425 0.0
C471 C 0.49772 0.35065 0.26303 0.0
H472 H 0.48548 0.34839 0.28253 0.0
H473 H 0.48722 0.39936 0.28839 0.0
O474 O 0.5533 0.36752 0.42919 0.0
C475 C 0.51213 0.40602 0.39737 0.0
Co476 Co 0.99732 0.38328 0.08248 0.0
Co477 Co 0.03163 0.38456 0.1376 0.0
C478 C 0.03397 0.36814 0.0531 0.0
O479 O 0.01746 0.3725 0.04808 0.0
O480 O 0.04213 0.37118 0.08826 0.0
C481 C 0.97681 0.39005 0.01424 0.0
O482 O 0.99221 0.39797 0.00556 0.0
C483 C 0.06433 0.38381 0.19339 0.0
C484 C 0.05478 0.40297 0.24246 0.0
C485 C 0.06941 0.39258 0.23073 0.0
N486 N 0.04747 0.389 0.18365 0.0
N487 N 0.04195 0.40047 0.21302 0.0
C488 C 0.07474 0.37009 0.16872 0.0
H489 H 0.06544 0.36124 0.15059 0.0
H490 H 0.08322 0.36184 0.19039 0.0
H491 H 0.08367 0.37709 0.14573 0.0
C492 C 0.98255 0.36456 0.15888 0.0
N493 N 0.99583 0.37264 0.13677 0.0
N494 N 0.01072 0.3724 0.15935 0.0
C495 C 0.00763 0.36343 0.19602 0.0
C496 C 0.98952 0.3583 0.1975 0.0
C497 C 0.96337 0.36407 0.14416 0.0
H498 H 0.96052 0.37569 0.12301 0.0
H499 H 0.96106 0.35152 0.12576 0.0
H500 H 0.95398 0.36436 0.17164 0.0
O501 O 0.00028 0.40911 0.08789 0.0
O502 O 0.02677 0.40987 0.11929 0.0
H503 H 0.02379 0.36982 0.25038 0.0
H504 H 0.01881 0.34614 0.24474 0.0
C505 C 0.02216 0.35867 0.22718 0.0
H506 H 0.03513 0.35677 0.21026 0.0
H507 H 0.02931 0.40664 0.21285 0.0
O508 O 0.97527 0.38118 0.0487 0.0
C509 C 0.01361 0.41789 0.10178 0.0
Co510 Co 0.51922 0.61654 0.58723 0.0
Co511 Co 0.4815 0.61109 0.62707 0.0
C512 C 0.48495 0.63431 0.55215 0.0
O513 O 0.50164 0.63016 0.55091 0.0
O514 O 0.47472 0.62875 0.58212 0.0
C515 C 0.55068 0.63683 0.56192 0.0
O516 O 0.54151 0.65145 0.57111 0.0
C517 C 0.44752 0.61074 0.67864 0.0
C518 C 0.44774 0.58205 0.69743 0.0
C519 C 0.43835 0.59796 0.70306 0.0
N520 N 0.46177 0.60264 0.66038 0.0
N521 N 0.46152 0.58544 0.67114 0.0
C522 C 0.44366 0.63043 0.67469 0.0
H523 H 0.45469 0.63737 0.6574 0.0
H524 H 0.44185 0.63648 0.70675 0.0
H525 H 0.43101 0.63235 0.65641 0.0
C526 C 0.52819 0.62851 0.67451 0.0
N527 N 0.51659 0.62178 0.64567 0.0
N528 N 0.50049 0.62047 0.66282 0.0
C529 C 0.50127 0.62705 0.70303 0.0
C530 C 0.51889 0.63251 0.71166 0.0
C531 C 0.54805 0.63029 0.66744 0.0
H532 H 0.55291 0.61942 0.64617 0.0
H533 H 0.55094 0.64349 0.65242 0.0
H534 H 0.55548 0.62958 0.69812 0.0
O535 O 0.51666 0.59103 0.57662 0.0
O536 O 0.48846 0.58836 0.59749 0.0
H537 H 0.47797 0.61695 0.73523 0.0
H538 H 0.4887 0.63573 0.76183 0.0
C539 C 0.48512 0.6299 0.73054 0.0
H540 H 0.4759 0.63939 0.71432 0.0
H541 H 0.47123 0.57607 0.66193 0.0
O542 O 0.54354 0.62153 0.56736 0.0
C543 C 0.50251 0.58174 0.58067 0.0
H544 H 0.48518 0.07432 0.43861 0.0
H545 H 0.4851 0.04386 0.46752 0.0
H546 H 0.53178 0.03069 0.39203 0.0
H547 H 0.53209 0.06127 0.36285 0.0
H548 H 0.505 0.00266 0.3971 0.0
H549 H 0.53967 0.0424 0.48738 0.0
H550 H 0.54454 0.06992 0.52987 0.0
H551 H 0.50018 0.05575 0.61092 0.0
H552 H 0.4949 0.02827 0.56854 0.0
H553 H 0.54059 0.94092 0.5761 0.0
H554 H 0.53889 0.97055 0.54247 0.0
H555 H 0.48465 0.95927 0.50102 0.0
H556 H 0.48624 0.92956 0.53401 0.0
H557 H 0.51659 -0.00058 0.55291 0.0
H558 H 0.4796 0.9763 0.40104 0.0
H559 H 0.47537 0.94855 0.35897 0.0
H560 H 0.52698 0.92916 0.40044 0.0
H561 H 0.53161 0.95688 0.44228 0.0
C562 C 0.49527 0.0649 0.4275 0.0
C563 C 0.50879 0.07028 0.39881 0.0
C564 C 0.49519 0.04751 0.44413 0.0
C565 C 0.50857 0.03521 0.43223 0.0
C566 C 0.52139 0.0401 0.40157 0.0
C567 C 0.52157 0.05756 0.38508 0.0
C568 C 0.51 0.0178 0.45443 0.0
C569 C 0.50751 0.00191 0.43113 0.0
C570 C 0.51349 0.01694 0.49872 0.0
C571 C 0.51679 0.03336 0.52454 0.0
C572 C 0.53087 0.04522 0.51406 0.0
C573 C 0.53372 0.0608 0.53816 0.0
C574 C 0.52264 0.0646 0.57299 0.0
C575 C 0.50873 0.0528 0.5839 0.0
C576 C 0.50582 0.03721 0.55988 0.0
C577 C 0.52824 0.94478 0.56013 0.0
C578 C 0.51362 0.93281 0.55736 0.0
C579 C 0.52729 0.96172 0.54104 0.0
C580 C 0.51175 0.96692 0.5188 0.0
C581 C 0.49686 0.95534 0.5175 0.0
C582 C 0.49779 0.9384 0.5365 0.0
C583 C 0.51136 0.98423 0.49573 0.0
C584 C 0.51404 0.00014 0.51888 0.0
C585 C 0.50822 0.98507 0.45124 0.0
C586 C 0.50587 0.9686 0.42506 0.0
C587 C 0.49009 0.96616 0.40095 0.0
C588 C 0.48761 0.95042 0.37721 0.0
C589 C 0.50087 0.93707 0.37715 0.0
C590 C 0.51669 0.93948 0.40063 0.0
C591 C 0.51924 0.9552 0.42439 0.0
H592 H 0.4989 0.92487 0.35886 0.0
H593 H 0.52485 0.07667 0.5916 0.0
H594 H 0.3349 0.23376 0.76476 0.0
H595 H 0.30564 0.23317 0.7298 0.0
H596 H 0.28908 0.27966 0.80239 0.0
H597 H 0.31868 0.28072 0.83664 0.0
H598 H 0.27365 0.22796 0.75619 0.0
H599 H 0.26026 0.30522 0.74547 0.0
H600 H 0.27767 0.33327 0.73672 0.0
H601 H 0.32037 0.30376 0.67651 0.0
H602 H 0.30312 0.2756 0.68433 0.0
H603 H 0.18216 0.24232 0.72936 0.0
H604 H 0.2135 0.24286 0.75146 0.0
H605 H 0.22825 0.26753 0.63178 0.0
H606 H 0.19638 0.26806 0.61055 0.0
H607 H 0.24657 0.28238 0.69045 0.0
H608 H 0.2363 0.22108 0.65511 0.0
H609 H 0.22049 0.19188 0.65496 0.0
H610 H 0.22843 0.18711 0.79011 0.0
H611 H 0.24409 0.21638 0.79118 0.0
C612 C 0.32504 0.24386 0.77347 0.0
C613 C 0.32914 0.25733 0.80345 0.0
C614 C 0.3083 0.24349 0.75338 0.0
C615 C 0.29525 0.2565 0.763 0.0
C616 C 0.2991 0.26971 0.79376 0.0
C617 C 0.31596 0.27022 0.81356 0.0
C618 C 0.27751 0.25601 0.74133 0.0
C619 C 0.26776 0.23984 0.74168 0.0
C620 C 0.27006 0.27135 0.72113 0.0
C621 C 0.28045 0.28828 0.71588 0.0
C622 C 0.27333 0.30473 0.7302 0.0
C623 C 0.28318 0.32065 0.72543 0.0
C624 C 0.30014 0.32029 0.70619 0.0
C625 C 0.30726 0.30402 0.69155 0.0
C626 C 0.29746 0.28807 0.69619 0.0
C627 C 0.19208 0.24777 0.70758 0.0
C628 C 0.18691 0.25495 0.66801 0.0
C629 C 0.21003 0.24798 0.72017 0.0
C630 C 0.22336 0.25475 0.69282 0.0
C631 C 0.21822 0.26211 0.6533 0.0
C632 C 0.20008 0.26236 0.64113 0.0
C633 C 0.24251 0.25443 0.70638 0.0
C634 C 0.25253 0.27044 0.70456 0.0
C635 C 0.25051 0.23874 0.72379 0.0
C636 C 0.2413 0.22099 0.72323 0.0
C637 C 0.23461 0.21384 0.68483 0.0
C638 C 0.22568 0.19727 0.68459 0.0
C639 C 0.22344 0.18766 0.72251 0.0
C640 C 0.23018 0.19457 0.76075 0.0
C641 C 0.23911 0.21113 0.76118 0.0
H642 H 0.2165 0.17485 0.72226 0.0
H643 H 0.30775 0.33262 0.70256 0.0
H644 H 0.0435 0.06355 0.03942 0.0
H645 H 0.04683 0.03266 0.01383 0.0
H646 H 0.00492 0.01535 0.09983 0.0
H647 H 0.00108 0.04629 0.12445 0.0
H648 H 0.05476 0.00046 0.04488 0.0
H649 H 0.97853 0.98518 0.05155 0.0
H650 H 0.9496 0.00153 0.04993 0.0
H651 H 0.97418 0.0444 0.97888 0.0
H652 H 0.00317 0.0282 0.9796 0.0
H653 H 0.0371 0.90731 0.99824 0.0
H654 H 0.04062 0.9374 0.02898 0.0
H655 H 0.01393 0.96042 0.91939 0.0
H656 H 0.0098 0.93045 0.88946 0.0
H657 H 0.99923 0.97264 0.98664 0.0
H658 H 0.06017 0.9651 0.94054 0.0
H659 H 0.09008 0.95092 0.93475 0.0
H660 H 0.09775 0.95637 0.06982 0.0
H661 H 0.06769 0.97019 0.07661 0.0
C662 C 0.03512 0.05313 0.05319 0.0
C663 C 0.02181 0.05738 0.08342 0.0
C664 C 0.0371 0.03547 0.03867 0.0
C665 C 0.02591 0.02178 0.05437 0.0
C666 C 0.01344 0.0258 0.08662 0.0
C667 C 0.01125 0.04348 0.10066 0.0
C668 C 0.02626 0.00367 0.03463 0.0
C669 C 0.04264 0.99429 0.03224 0.0
C670 C 0.01051 0.99585 0.01733 0.0
C671 C 0.99305 0.00556 0.01603 0.0
C672 C 0.97773 0.99806 0.03544 0.0
C673 C 0.96133 0.00731 0.0347 0.0
C674 C 0.96007 0.02402 0.01444 0.0
C675 C 0.97519 0.03149 0.99469 0.0
C676 C 0.99161 0.02228 0.99528 0.0
C677 C 0.03221 0.91884 0.98051 0.0
C678 C 0.023 0.91654 0.94168 0.0
C679 C 0.03429 0.93603 0.99801 0.0
C680 C 0.02752 0.95119 0.97651 0.0
C681 C 0.01911 0.94892 0.93676 0.0
C682 C 0.01677 0.93178 0.91965 0.0
C683 C 0.02778 0.96927 0.99657 0.0
C684 C 0.01142 0.97867 -0.00069 0.0
C685 C 0.04367 0.97723 0.01301 0.0
C686 C 0.06158 0.96852 0.00913 0.0
C687 C 0.06813 0.96308 0.9691 0.0
C688 C 0.08514 0.95514 0.96562 0.0
C689 C 0.09581 0.95274 0.00189 0.0
C690 C 0.08948 0.95826 0.04174 0.0
C691 C 0.07244 0.9661 0.04543 0.0
H692 H 0.10897 0.9466 0.99914 0.0
H693 H 0.94737 0.03117 0.01397 0.0
H694 H 0.33518 0.78293 0.1612 0.0
H695 H 0.30448 0.78244 0.18901 0.0
H696 H 0.306 0.72437 0.19299 0.0
H697 H 0.33645 0.72479 0.1632 0.0
H698 H 0.27369 0.73473 0.17323 0.0
H699 H 0.3162 0.75115 0.28097 0.0
H700 H 0.34086 0.76868 0.31344 0.0
H701 H 0.3082 0.81635 0.30972 0.0
H702 H 0.28347 0.7992 0.27635 0.0
H703 H 0.20577 0.72412 0.32985 0.0
H704 H 0.2359 0.72486 0.29861 0.0
H705 H 0.22939 0.78125 0.26972 0.0
H706 H 0.19917 0.78068 0.30064 0.0
H707 H 0.26411 0.7714 0.30357 0.0
H708 H 0.22166 0.75326 0.1938 0.0
H709 H 0.19734 0.73411 0.16525 0.0
H710 H 0.23093 0.6874 0.17896 0.0
H711 H 0.25535 0.70625 0.20818 0.0
C712 C 0.32879 0.77005 0.16714 0.0
C713 C 0.33819 0.75389 0.16046 0.0
C714 C 0.31132 0.76979 0.18334 0.0
C715 C 0.30318 0.75339 0.19439 0.0
C716 C 0.31209 0.73718 0.18505 0.0
C717 C 0.32946 0.73743 0.16794 0.0
C718 C 0.28585 0.7532 0.21777 0.0
C719 C 0.2717 0.7426 0.20197 0.0
C720 C 0.28319 0.76356 0.25526 0.0
C721 C 0.29802 0.7739 0.27571 0.0
C722 C 0.31432 0.7654 0.28676 0.0
C723 C 0.32831 0.77527 0.30534 0.0
C724 C 0.32611 0.79363 0.31355 0.0
C725 C 0.3099 0.80214 0.30326 0.0
C726 C 0.29589 0.79235 0.28449 0.0
C727 C 0.21081 0.73676 0.3174 0.0
C728 C 0.20002 0.75232 0.3174 0.0
C729 C 0.228 0.73712 0.29947 0.0
C730 C 0.23471 0.75306 0.28153 0.0
C731 C 0.22437 0.76882 0.28337 0.0
C732 C 0.20711 0.76845 0.30094 0.0
C733 C 0.25209 0.75305 0.25877 0.0
C734 C 0.26621 0.76358 0.27479 0.0
C735 C 0.25484 0.7424 0.22199 0.0
C736 C 0.24027 0.73114 0.20355 0.0
C737 C 0.22382 0.73889 0.19098 0.0
C738 C 0.21002 0.72809 0.17464 0.0
C739 C 0.21257 0.70954 0.17043 0.0
C740 C 0.22896 0.70177 0.18231 0.0
C741 C 0.24279 0.7125 0.19872 0.0
H742 H 0.20187 0.70118 0.15792 0.0
H743 H 0.33695 0.80124 0.32797 0.0
H744 H 0.81714 0.76346 0.37086 0.0
H745 H 0.78686 0.76149 0.34042 0.0
H746 H 0.80686 0.72639 0.24152 0.0
H747 H 0.83682 0.7276 0.2729 0.0
H748 H 0.77401 0.77203 0.26902 0.0
H749 H 0.77514 0.69854 0.20567 0.0
H750 H 0.78827 0.66912 0.22497 0.0
H751 H 0.79114 0.68538 0.35616 0.0
H752 H 0.77783 0.71479 0.33773 0.0
H753 H 0.69897 0.76189 0.13098 0.0
H754 H 0.72983 0.76153 0.15889 0.0
H755 H 0.71374 0.72357 0.25593 0.0
H756 H 0.68338 0.72326 0.22732 0.0
H757 H 0.7446 0.71442 0.22968 0.0
H758 H 0.71815 0.77021 0.27486 0.0
H759 H 0.703 0.7995 0.26555 0.0
H760 H 0.74709 0.81832 0.18907 0.0
H761 H 0.76241 0.78904 0.19751 0.0
C762 C 0.81499 0.75512 0.34298 0.0
C763 C 0.82931 0.74558 0.32446 0.0
C764 C 0.79772 0.75409 0.32548 0.0
C765 C 0.79453 0.74367 0.28888 0.0
C766 C 0.80886 0.73417 0.27032 0.0
C767 C 0.82602 0.73492 0.28827 0.0
C768 C 0.77634 0.7431 0.2694 0.0
C769 C 0.76757 0.75942 0.26051 0.0
C770 C 0.76781 0.72666 0.25871 0.0
C771 C 0.77565 0.70893 0.2702 0.0
C772 C 0.77851 0.6958 0.23865 0.0
C773 C 0.786 0.67914 0.24944 0.0
C774 C 0.79059 0.67541 0.29174 0.0
C775 C 0.78764 0.68831 0.32338 0.0
C776 C 0.78015 0.70499 0.31277 0.0
C777 C 0.70211 0.75335 0.15799 0.0
C778 C 0.68874 0.74264 0.17698 0.0
C779 C 0.7197 0.75323 0.17406 0.0
C780 C 0.72405 0.74272 0.20994 0.0
C781 C 0.71077 0.73174 0.22818 0.0
C782 C 0.69336 0.73162 0.21177 0.0
C783 C 0.74222 0.74335 0.22953 0.0
C784 C 0.75105 0.72703 0.23816 0.0
C785 C 0.75048 0.75976 0.2415 0.0
C786 C 0.74133 0.77738 0.23644 0.0
C787 C 0.72455 0.78056 0.25581 0.0
C788 C 0.71595 0.79716 0.25073 0.0
C789 C 0.72405 0.81074 0.22663 0.0
C790 C 0.74082 0.80777 0.20766 0.0
C791 C 0.74947 0.79118 0.2126 0.0
H792 H 0.71737 0.82359 0.22273 0.0
H793 H 0.7964 0.66251 0.30002 0.0
H794 H 0.83144 0.22267 0.66088 0.0
H795 H 0.80024 0.22401 0.68561 0.0
H796 H 0.81222 0.27228 0.75663 0.0
H797 H 0.84341 0.27098 0.73257 0.0
H798 H 0.79329 0.24893 0.80381 0.0
H799 H 0.78918 0.27506 0.66482 0.0
H800 H 0.79357 0.27667 0.587 0.0
H801 H 0.76144 0.22911 0.57057 0.0
H802 H 0.75706 0.22707 0.64839 0.0
H803 H 0.69047 0.26831 0.77654 0.0
H804 H 0.7217 0.27132 0.7531 0.0
H805 H 0.73547 0.22235 0.81956 0.0
H806 H 0.70437 0.21931 0.84362 0.0
H807 H 0.74147 0.24929 0.70376 0.0
H808 H 0.77816 0.22587 0.8575 0.0
H809 H 0.77373 0.22674 0.93541 0.0
H810 H 0.74066 0.27385 0.92255 0.0
H811 H 0.74508 0.27341 0.84466 0.0
C812 C 0.82743 0.23359 0.6817 0.0
C813 C 0.83992 0.24672 0.69474 0.0
C814 C 0.8096 0.23437 0.69566 0.0
C815 C 0.80393 0.24832 0.72268 0.0
C816 C 0.81635 0.2614 0.7358 0.0
C817 C 0.83416 0.26065 0.72189 0.0
C818 C 0.78511 0.24913 0.73787 0.0
C819 C 0.78195 0.24902 0.78196 0.0
C820 C 0.77038 0.24961 0.7093 0.0
C821 C 0.77293 0.25083 0.66247 0.0
C822 C 0.78316 0.26486 0.64464 0.0
C823 C 0.78563 0.26587 0.60053 0.0
C824 C 0.77783 0.25298 0.57387 0.0
C825 C 0.7675 0.23908 0.59126 0.0
C826 C 0.765 0.238 0.63537 0.0
C827 C 0.70016 0.25824 0.78645 0.0
C828 C 0.69494 0.24357 0.812 0.0
C829 C 0.71797 0.25995 0.77288 0.0
C830 C 0.73088 0.24712 0.78483 0.0
C831 C 0.72574 0.23252 0.81046 0.0
C832 C 0.70795 0.23078 0.82405 0.0
C833 C 0.74965 0.24873 0.76968 0.0
C834 C 0.75281 0.24925 0.72561 0.0
C835 C 0.76439 0.24897 0.79828 0.0
C836 C 0.76183 0.24949 0.84519 0.0
C837 C 0.77 0.23646 0.87132 0.0
C838 C 0.76748 0.23687 0.91548 0.0
C839 C 0.75688 0.25031 0.93391 0.0
C840 C 0.74881 0.26341 0.90822 0.0
C841 C 0.7513 0.26306 0.86406 0.0
H842 H 0.75493 0.25059 0.96809 0.0
H843 H 0.77975 0.25378 0.53972 0.0
H844 H 0.00316 0.58319 0.98146 0.0
H845 H 0.00162 0.554 0.01726 0.0
H846 H 0.04154 0.53283 0.93097 0.0
H847 H 0.04322 0.56198 0.89493 0.0
H848 H 0.01266 0.50967 0.94317 0.0
H849 H 0.05436 0.54424 0.02714 0.0
H850 H 0.06429 0.57061 0.0687 0.0
H851 H 0.0213 0.56208 0.15791 0.0
H852 H 0.01095 0.5358 0.11651 0.0
H853 H 0.04277 0.44039 0.10818 0.0
H854 H 0.04479 0.47141 0.08194 0.0
H855 H 0.98822 0.47052 0.05076 0.0
H856 H 0.98609 0.4396 0.07624 0.0
H857 H 0.02734 0.50447 0.09721 0.0
H858 H 0.98373 0.48715 0.95141 0.0
H859 H 0.97431 0.46019 0.91117 0.0
H860 H 0.02373 0.43368 0.9447 0.0
H861 H 0.03354 0.46057 0.98456 0.0
C862 C 0.01155 0.57231 0.9699 0.0
C863 C 0.02337 0.57493 0.93541 0.0
C864 C 0.0107 0.55568 0.99053 0.0
C865 C 0.02159 0.54137 0.97696 0.0
C866 C 0.03306 0.54377 0.94192 0.0
C867 C 0.03403 0.56043 0.92146 0.0
C868 C 0.02113 0.52391 -0.00044 0.0
C869 C 0.01587 0.50854 0.97682 0.0
C870 C 0.0255 0.52245 0.04336 0.0
C871 C 0.03179 0.53815 0.0685 0.0
C872 C 0.04694 0.54807 0.05544 0.0
C873 C 0.05266 0.56299 0.07899 0.0
C874 C 0.04341 0.56805 0.11586 0.0
C875 C 0.02845 0.55816 0.12932 0.0
C876 C 0.02266 0.54324 0.10584 0.0
C877 C 0.03069 0.44693 0.09654 0.0
C878 C 0.01435 0.43745 0.09355 0.0
C879 C 0.03187 0.46465 0.08167 0.0
C880 C 0.01673 0.47305 0.06374 0.0
C881 C 0.00011 0.46411 0.06388 0.0
C882 C 0.99894 0.44644 0.07844 0.0
C883 C 0.0186 0.49036 0.04095 0.0
C884 C 0.02412 0.50565 0.06359 0.0
C885 C 0.01465 0.49174 0.9969 0.0
C886 C 0.00929 0.47583 0.97122 0.0
C887 C 0.99264 0.47562 0.94988 0.0
C888 C 0.98722 0.46034 0.92721 0.0
C889 C 0.99839 0.44521 0.92549 0.0
C890 C 0.01507 0.44539 0.94615 0.0
C891 C 0.02056 0.46065 0.96877 0.0
H892 H 0.99413 0.43336 0.90812 0.0
H893 H 0.04786 0.5796 0.13405 0.0
H894 H 0.48297 0.42844 0.39231 0.0
H895 H 0.48034 0.45882 0.42141 0.0
H896 H 0.53619 0.4573 0.45935 0.0
H897 H 0.53887 0.42683 0.43113 0.0
H898 H 0.51552 0.46755 0.52367 0.0
H899 H 0.52184 0.48362 0.37644 0.0
H900 H 0.51475 0.48299 0.29965 0.0
H901 H 0.4613 0.50212 0.32557 0.0
H902 H 0.468 0.50263 0.40263 0.0
H903 H 0.53132 0.56013 0.56483 0.0
H904 H 0.5311 0.53007 0.53321 0.0
H905 H 0.47313 0.53163 0.52573 0.0
H906 H 0.47316 0.56168 0.5582 0.0
H907 H 0.49269 0.52142 0.4472 0.0
H908 H 0.48757 0.50626 0.59536 0.0
H909 H 0.49583 0.50764 0.67143 0.0
H910 H 0.54855 0.48735 0.64225 0.0
H911 H 0.54069 0.48613 0.56585 0.0
C912 C 0.49477 0.43467 0.40628 0.0
C913 C 0.5111 0.42518 0.40967 0.0
C914 C 0.49325 0.45205 0.4228 0.0
C915 C 0.50808 0.46029 0.4425 0.0
C916 C 0.52456 0.45112 0.44446 0.0
C917 C 0.52608 0.43373 0.42818 0.0
C918 C 0.50618 0.47802 0.46344 0.0
C919 C 0.51073 0.47937 0.50676 0.0
C920 C 0.49944 0.49329 0.44166 0.0
C921 C 0.49536 0.49296 0.39536 0.0
C922 C 0.50852 0.48753 0.36581 0.0
C923 C 0.50458 0.48723 0.32223 0.0
C924 C 0.48757 0.49246 0.30775 0.0
C925 C 0.47447 0.49804 0.33684 0.0
C926 C 0.47833 0.49835 0.38047 0.0
C927 C 0.51851 0.55404 0.55674 0.0
C928 C 0.50225 0.56321 0.56396 0.0
C929 C 0.51842 0.5369 0.53875 0.0
C930 C 0.5021 0.52876 0.52725 0.0
C931 C 0.48583 0.5378 0.53447 0.0
C932 C 0.48588 0.55486 0.55318 0.0
C933 C 0.50226 0.51088 0.50701 0.0
C934 C 0.49736 0.50952 0.46397 0.0
C935 C 0.50883 0.49562 0.52887 0.0
C936 C 0.51359 0.49627 0.57482 0.0
C937 C 0.50098 0.50226 0.6051 0.0
C938 C 0.50558 0.50298 0.64829 0.0
C939 C 0.52272 0.49763 0.66165 0.0
C940 C 0.53528 0.49151 0.63184 0.0
C941 C 0.53076 0.49079 0.5886 0.0
H942 H 0.52626 0.49819 0.69511 0.0
H943 H 0.48455 0.49222 0.27399 0.0
H944 H 0.47897 0.18182 0.28861 0.0
H945 H 0.46392 0.19915 0.23251 0.0
H946 H 0.48299 0.16152 0.13828 0.0
H947 H 0.4973 0.14351 0.19468 0.0
H948 H 0.48449 0.20811 0.1318 0.0
H949 H 0.44858 0.15155 0.13881 0.0
H950 H 0.43298 0.12845 0.1816 0.0
H951 H 0.40108 0.16946 0.24161 0.0
H952 H 0.41671 0.19282 0.19952 0.0
H953 H 0.43419 0.23056 0.94773 0.0
H954 H 0.45183 0.21661 0.00449 0.0
H955 H 0.40879 0.22696 0.09365 0.0
H956 H 0.39064 0.23994 0.03586 0.0
H957 H 0.41985 0.19499 0.10603 0.0
H958 H 0.45039 0.25086 0.09279 0.0
H959 H 0.46623 0.27607 0.05808 0.0
H960 H 0.50842 0.24026 0.01854 0.0
H961 H 0.49267 0.21475 0.05234 0.0
C962 C 0.47987 0.17716 0.25598 0.0
C963 C 0.48907 0.16115 0.24609 0.0
C964 C 0.47142 0.18716 0.22399 0.0
C965 C 0.4723 0.18153 0.18144 0.0
C966 C 0.48219 0.16604 0.17105 0.0
C967 C 0.49041 0.15584 0.20321 0.0
C968 C 0.462 0.19134 0.14839 0.0
C969 C 0.47044 0.20513 0.12544 0.0
C970 C 0.44352 0.18792 0.14181 0.0
C971 C 0.43392 0.1739 0.16642 0.0
C972 C 0.43834 0.15563 0.1614 0.0
C973 C 0.42948 0.1425 0.18545 0.0
C974 C 0.41609 0.14749 0.2144 0.0
C975 C 0.41148 0.16562 0.21923 0.0
C976 C 0.42032 0.1788 0.19526 0.0
C977 C 0.42853 0.2299 0.97951 0.0
C978 C 0.41109 0.2364 0.98749 0.0
C979 C 0.43871 0.22209 0.0121 0.0
C980 C 0.43183 0.22094 0.05373 0.0
C981 C 0.41447 0.22773 0.0619 0.0
C982 C 0.40417 0.23534 0.02904 0.0
C983 C 0.44236 0.21174 0.08793 0.0
C984 C 0.43393 0.19808 0.1117 0.0
C985 C 0.46083 0.21556 0.09565 0.0
C986 C 0.47023 0.23084 0.07474 0.0
C987 C 0.46294 0.24831 0.07631 0.0
C988 C 0.47193 0.26266 0.05685 0.0
C989 C 0.48829 0.25976 0.03601 0.0
C990 C 0.49572 0.24249 0.03461 0.0
C991 C 0.48677 0.22807 0.05392 0.0
H992 H 0.49524 0.2709 0.02104 0.0
H993 H 0.40925 0.1373 0.23302 0.0
H994 H 0.03602 0.166 0.21836 0.0
H995 H 0.0484 0.1831 0.27833 0.0
H996 H 0.0352 0.13957 0.36361 0.0
H997 H 0.02361 0.12193 0.3031 0.0
H998 H 0.02702 0.18198 0.38697 0.0
H999 H 0.0725 0.13688 0.34881 0.0
H1000 H 0.09084 0.12093 0.29529 0.0
H1001 H 0.11357 0.17116 0.25413 0.0
H1002 H 0.09509 0.18743 0.30695 0.0
H1003 H 0.07876 0.21064 0.56492 0.0
H1004 H 0.06286 0.19357 0.51005 0.0
H1005 H 0.09727 0.21678 0.41375 0.0
H1006 H 0.11408 0.23275 0.46907 0.0
H1007 H 0.09373 0.18388 0.39602 0.0
H1008 H 0.05132 0.22958 0.43102 0.0
H1009 H 0.03186 0.24838 0.4765 0.0
H1010 H 0.00241 0.20149 0.5158 0.0
H1011 H 0.02187 0.18236 0.47102 0.0
C1012 C 0.03566 0.16011 0.24994 0.0
C1013 C 0.02882 0.14265 0.2561 0.0
C1014 C 0.04264 0.16993 0.28414 0.0
C1015 C 0.04267 0.1626 0.32531 0.0
C1016 C 0.03514 0.14549 0.33204 0.0
C1017 C 0.02843 0.13549 0.29757 0.0
C1018 C 0.05187 0.17235 0.36035 0.0
C1019 C 0.04159 0.18219 0.38965 0.0
C1020 C 0.07085 0.17317 0.36246 0.0
C1021 C 0.08229 0.16337 0.33151 0.0
C1022 C 0.08129 0.14453 0.3281 0.0
C1023 C 0.09173 0.13543 0.29793 0.0
C1024 C 0.10333 0.14503 0.27124 0.0
C1025 C 0.10457 0.16374 0.27478 0.0
C1026 C 0.09412 0.17291 0.30485 0.0
C1027 C 0.08307 0.21194 0.5321 0.0
C1028 C 0.09776 0.223 0.52143 0.0
C1029 C 0.07377 0.20238 0.50057 0.0
C1030 C 0.07862 0.20401 0.45741 0.0
C1031 C 0.09318 0.21524 0.4467 0.0
C1032 C 0.10268 0.22457 0.47834 0.0
C1033 C 0.06894 0.19361 0.42363 0.0
C1034 C 0.07914 0.18367 0.39409 0.0
C1035 C 0.04985 0.19307 0.4208 0.0
C1036 C 0.03819 0.20451 0.44802 0.0
C1037 C 0.0408 0.22325 0.44966 0.0
C1038 C 0.02975 0.23398 0.47526 0.0
C1039 C 0.01594 0.22613 0.49913 0.0
C1040 C 0.01313 0.20755 0.49737 0.0
C1041 C 0.02417 0.19675 0.47186 0.0
H1042 H 0.00739 0.23446 0.5189 0.0
H1043 H 0.11139 0.13797 0.24788 0.0
H1044 H 0.13587 0.78871 0.51038 0.0
H1045 H 0.11818 0.80084 0.56977 0.0
H1046 H 0.0752 0.76374 0.54054 0.0
H1047 H 0.09298 0.75164 0.48084 0.0
H1048 H 0.06274 0.79831 0.55253 0.0
H1049 H 0.10031 0.75679 0.62709 0.0
H1050 H 0.12882 0.74223 0.64801 0.0
H1051 H 0.14829 0.7924 0.69798 0.0
H1052 H 0.11999 0.80734 0.67679 0.0
H1053 H 0.01449 0.82171 0.74357 0.0
H1054 H 0.02955 0.80595 0.68471 0.0
H1055 H 0.07813 0.83614 0.70939 0.0
H1056 H 0.06321 0.85145 0.76873 0.0
H1057 H 0.0862 0.80227 0.70032 0.0
H1058 H 0.04954 0.84426 0.62081 0.0
H1059 H 0.02106 0.85887 0.59975 0.0
H1060 H -0.00017 0.80787 0.55939 0.0
H1061 H 0.02814 0.79292 0.58065 0.0
C1062 C 0.12274 0.78303 0.51709 0.0
C1063 C 0.11576 0.76925 0.49138 0.0
C1064 C 0.11264 0.78993 0.55095 0.0
C1065 C 0.09537 0.78315 0.55976 0.0
C1066 C 0.08848 0.76918 0.53434 0.0
C1067 C 0.09866 0.76219 0.50056 0.0
C1068 C 0.08443 0.79108 0.59482 0.0
C1069 C 0.06772 0.79892 0.58502 0.0
C1070 C 0.09105 0.79215 0.63706 0.0
C1071 C 0.10807 0.78321 0.65002 0.0
C1072 C 0.11072 0.76475 0.64224 0.0
C1073 C 0.12684 0.75643 0.6542 0.0
C1074 C 0.14037 0.76639 0.67423 0.0
C1075 C 0.1378 0.7847 0.68243 0.0
C1076 C 0.12171 0.7931 0.67049 0.0
C1077 C 0.0283 0.8251 0.73587 0.0
C1078 C 0.03773 0.83776 0.76048 0.0
C1079 C 0.03691 0.81612 0.70227 0.0
C1080 C 0.055 0.81989 0.69232 0.0
C1081 C 0.06423 0.83289 0.71645 0.0
C1082 C 0.05569 0.8417 0.7502 0.0
C1083 C 0.06466 0.80992 0.65795 0.0
C1084 C 0.08114 0.80162 0.6679 0.0
C1085 C 0.05782 0.80846 0.61589 0.0
C1086 C 0.04089 0.81746 0.60268 0.0
C1087 C 0.03876 0.83615 0.60767 0.0
C1088 C 0.02265 0.84449 0.59566 0.0
C1089 C 0.00863 0.8343 0.57833 0.0
C1090 C 0.0107 0.81575 0.57284 0.0
C1091 C 0.02678 0.80733 0.58481 0.0
H1092 H 0.99617 0.84078 0.56908 0.0
H1093 H 0.15284 0.75992 0.68347 0.0
H1094 H 0.40989 0.8085 0.02244 0.0
H1095 H 0.42599 0.82472 0.96607 0.0
H1096 H 0.46952 0.78636 0.97388 0.0
H1097 H 0.45362 0.77046 0.03129 0.0
H1098 H 0.48227 0.82032 0.96379 0.0
H1099 H 0.43847 0.7828 0.89603 0.0
H1100 H 0.40824 0.7702 0.88302 0.0
H1101 H 0.3886 0.82267 0.84915 0.0
H1102 H 0.41866 0.83565 0.86264 0.0
H1103 H 0.5193 0.84009 0.75715 0.0
H1104 H 0.50695 0.82636 0.82204 0.0
H1105 H 0.46182 0.86294 0.81701 0.0
H1106 H 0.47409 0.87647 0.75196 0.0
H1107 H 0.45061 0.82921 0.82604 0.0
H1108 H 0.49532 0.86651 0.8935 0.0
H1109 H 0.52595 0.87828 0.90509 0.0
H1110 H 0.54451 0.82526 0.93754 0.0
H1111 H 0.514 0.81312 0.92557 0.0
C1112 C 0.42296 0.80365 0.01225 0.0
C1113 C 0.4304 0.78808 0.03044 0.0
C1114 C 0.43211 0.81285 0.98 0.0
C1115 C 0.44883 0.80657 0.9652 0.0
C1116 C 0.45659 0.79137 0.98455 0.0
C1117 C 0.44743 0.7822 0.01694 0.0
C1118 C 0.45783 0.8155 0.92855 0.0
C1119 C 0.47544 0.8221 0.9335 0.0
C1120 C 0.44885 0.818 0.88915 0.0
C1121 C 0.43078 0.81022 0.88075 0.0
C1122 C 0.42767 0.79168 0.88613 0.0
C1123 C 0.41057 0.78447 0.87863 0.0
C1124 C 0.3965 0.79564 0.86536 0.0
C1125 C 0.39951 0.81404 0.85948 0.0
C1126 C 0.41658 0.82133 0.86703 0.0
C1127 C 0.50692 0.84536 0.77048 0.0
C1128 C 0.49751 0.85917 0.74958 0.0
C1129 C 0.49987 0.83754 0.8075 0.0
C1130 C 0.48343 0.84361 0.82448 0.0
C1131 C 0.47445 0.85795 0.80441 0.0
C1132 C 0.48145 0.86569 0.76738 0.0
C1133 C 0.47496 0.83435 0.8614 0.0
C1134 C 0.45744 0.82754 0.85638 0.0
C1135 C 0.48409 0.83157 0.90051 0.0
C1136 C 0.5024 0.83888 0.90826 0.0
C1137 C 0.50596 0.85734 0.90283 0.0
C1138 C 0.5233 0.86408 0.9095 0.0
C1139 C 0.5372 0.85252 0.92194 0.0
C1140 C 0.53375 0.83419 0.92786 0.0
C1141 C 0.51642 0.82738 0.92119 0.0
H1142 H 0.55063 0.85775 0.92708 0.0
H1143 H 0.38327 0.79002 0.85956 0.0
H1144 H 0.57811 0.86441 0.74145 0.0
H1145 H 0.59566 0.85793 0.80508 0.0
H1146 H 0.635 0.89765 0.76804 0.0
H1147 H 0.61729 0.9043 0.70344 0.0
H1148 H 0.6474 0.86002 0.8026 0.0
H1149 H 0.61345 0.9126 0.83679 0.0
H1150 H 0.58641 0.93185 0.83667 0.0
H1151 H 0.55738 0.89166 0.90693 0.0
H1152 H 0.58409 0.87194 0.90658 0.0
H1153 H 0.67321 0.82874 0.00653 0.0
H1154 H 0.66823 0.85275 0.95407 0.0
H1155 H 0.61194 0.8384 0.94785 0.0
H1156 H 0.61683 0.81476 0.00036 0.0
H1157 H 0.61583 0.87376 0.93822 0.0
H1158 H 0.64429 0.81889 0.88177 0.0
H1159 H 0.669 0.79674 0.87779 0.0
H1160 H 0.70634 0.83898 0.84727 0.0
H1161 H 0.68183 0.86139 0.85157 0.0
C1162 C 0.59079 0.87133 0.74586 0.0
C1163 C 0.59659 0.88456 0.71704 0.0
C1164 C 0.60067 0.86779 0.78255 0.0
C1165 C 0.61646 0.87745 0.79113 0.0
C1166 C 0.62279 0.89013 0.7617 0.0
C1167 C 0.61275 0.89384 0.72497 0.0
C1168 C 0.6256 0.87443 0.8321 0.0
C1169 C 0.64095 0.86353 0.83251 0.0
C1170 C 0.61691 0.87889 0.87073 0.0
C1171 C 0.6008 0.89077 0.87153 0.0
C1172 C 0.60126 0.90779 0.85192 0.0
C1173 C 0.58598 0.91878 0.85192 0.0
C1174 C 0.57016 0.91295 0.87169 0.0
C1175 C 0.56962 0.89612 0.89155 0.0
C1176 C 0.58484 0.88505 0.8915 0.0
C1177 C 0.6597 0.83115 0.99475 0.0
C1178 C 0.64535 0.82012 0.00766 0.0
C1179 C 0.65689 0.8448 0.96486 0.0
C1180 C 0.63976 0.84721 0.94679 0.0
C1181 C 0.62523 0.83688 0.96168 0.0
C1182 C 0.62801 0.8234 0.99181 0.0
C1183 C 0.63711 0.85856 0.9086 0.0
C1184 C 0.6229 0.87099 0.90869 0.0
C1185 C 0.64667 0.85526 0.87029 0.0
C1186 C 0.66133 0.84181 0.86754 0.0
C1187 C 0.6578 0.82344 0.87446 0.0
C1188 C 0.67175 0.81085 0.87213 0.0
C1189 C 0.68924 0.81646 0.86243 0.0
C1190 C 0.6928 0.83466 0.85491 0.0
C1191 C 0.67889 0.84731 0.8573 0.0
H1192 H 0.70003 0.80669 0.86063 0.0
H1193 H 0.55835 0.92148 0.87169 0.0
H1194 H 0.92243 0.87977 0.80648 0.0
H1195 H 0.89953 0.87249 0.75307 0.0
H1196 H 0.93153 0.8984 0.65606 0.0
H1197 H 0.95445 0.90566 0.70925 0.0
H1198 H 0.89453 0.9011 0.63989 0.0
H1199 H 0.93946 0.85623 0.67155 0.0
H1200 H 0.95752 0.83676 0.71882 0.0
H1201 H 0.90928 0.81144 0.76463 0.0
H1202 H 0.89092 0.83092 0.71784 0.0
H1203 H 0.88518 0.84134 0.45989 0.0
H1204 H 0.89398 0.86189 0.51732 0.0
H1205 H 0.85686 0.83542 0.60246 0.0
H1206 H 0.84831 0.81468 0.54582 0.0
H1207 H 0.89299 0.83449 0.6278 0.0
H1208 H 0.84905 0.87715 0.57971 0.0
H1209 H 0.8336 0.89646 0.52724 0.0
H1210 H 0.88263 0.92569 0.50563 0.0
H1211 H 0.89846 0.90638 0.55753 0.0
C1212 C 0.92445 0.88406 0.77386 0.0
C1213 C 0.94046 0.8926 0.76147 0.0
C1214 C 0.91129 0.88014 0.74358 0.0
C1215 C 0.91408 0.88464 0.70064 0.0
C1216 C 0.92918 0.89482 0.68908 0.0
C1217 C 0.9423 0.89883 0.71941 0.0
C1218 C 0.90324 0.87594 0.66714 0.0
C1219 C 0.8941 0.88656 0.63709 0.0
C1220 C 0.90285 0.85698 0.66368 0.0
C1221 C 0.91382 0.84515 0.69162 0.0
C1222 C 0.93271 0.84658 0.69191 0.0
C1223 C 0.943 0.83552 0.7185 0.0
C1224 C 0.93455 0.8229 0.74479 0.0
C1225 C 0.9158 0.82125 0.74432 0.0
C1226 C 0.90544 0.83228 0.71774 0.0
C1227 C 0.87889 0.83994 0.49079 0.0
C1228 C 0.86654 0.82604 0.49886 0.0
C1229 C 0.88366 0.85188 0.52328 0.0
C1230 C 0.87605 0.85007 0.56397 0.0
C1231 C 0.86281 0.83701 0.57115 0.0
C1232 C 0.858 0.82516 0.53877 0.0
C1233 C 0.88399 0.85958 0.60056 0.0
C1234 C 0.89291 0.84905 0.63102 0.0
C1235 C 0.88446 0.87856 0.60354 0.0
C1236 C 0.87498 0.8902 0.57229 0.0
C1237 C 0.85659 0.88758 0.56349 0.0
C1238 C 0.84775 0.89856 0.53391 0.0
C1239 C 0.85714 0.91227 0.51305 0.0
C1240 C 0.87538 0.91506 0.5218 0.0
C1241 C 0.88429 0.90412 0.55134 0.0
H1242 H 0.85027 0.92076 0.49016 0.0
H1243 H 0.94254 0.81438 0.76545 0.0
H1244 H 0.94219 0.07495 0.28013 0.0
H1245 H 0.92364 0.08686 0.33749 0.0
H1246 H 0.90008 0.12519 0.2505 0.0
H1247 H 0.91819 0.11289 0.19234 0.0
H1248 H 0.92245 0.13942 0.31579 0.0
H1249 H 0.87311 0.09806 0.30076 0.0
H1250 H 0.85909 0.06807 0.29534 0.0
H1251 H 0.87921 0.05432 0.41953 0.0
H1252 H 0.89359 0.08415 0.42547 0.0
H1253 H 0.87137 0.19081 0.45817 0.0
H1254 H 0.87943 0.1701 0.40089 0.0
H1255 H 0.90381 0.13418 0.49235 0.0
H1256 H 0.89592 0.15514 0.55023 0.0
H1257 H 0.88051 0.11728 0.42704 0.0
H1258 H 0.93033 0.15611 0.44374 0.0
H1259 H 0.94871 0.18357 0.44956 0.0
H1260 H 0.93273 0.19938 0.32342 0.0
H1261 H 0.91349 0.17249 0.31764 0.0
C1262 C 0.93258 0.08546 0.2727 0.0
C1263 C 0.93226 0.09363 0.23223 0.0
C1264 C 0.9219 0.09217 0.30556 0.0
C1265 C 0.91074 0.10703 0.29822 0.0
C1266 C 0.90879 0.11378 0.25668 0.0
C1267 C 0.91937 0.10697 0.22371 0.0
C1268 C 0.90473 0.11795 0.33469 0.0
C1269 C 0.91288 0.13481 0.33958 0.0
C1270 C 0.89324 0.11125 0.36687 0.0
C1271 C 0.88456 0.09331 0.3634 0.0
C1272 C 0.87469 0.08859 0.32676 0.0
C1273 C 0.86665 0.07163 0.32364 0.0
C1274 C 0.86829 0.05928 0.35703 0.0
C1275 C 0.87796 0.0639 0.39368 0.0
C1276 C 0.88603 0.08084 0.39696 0.0
C1277 C 0.87838 0.17845 0.46611 0.0
C1278 C 0.88321 0.17457 0.50839 0.0
C1279 C 0.88296 0.16669 0.43344 0.0
C1280 C 0.89222 0.15073 0.44259 0.0
C1281 C 0.89665 0.14649 0.48493 0.0
C1282 C 0.89232 0.15849 0.51773 0.0
C1283 C 0.89781 0.139 0.4072 0.0
C1284 C 0.88982 0.12198 0.40284 0.0
C1285 C 0.90983 0.14534 0.37571 0.0
C1286 C 0.92017 0.16236 0.38055 0.0
C1287 C 0.93029 0.16567 0.4177 0.0
C1288 C 0.94093 0.18114 0.42095 0.0
C1289 C 0.94182 0.19326 0.38698 0.0
C1290 C 0.93192 0.19005 0.34987 0.0
C1291 C 0.92106 0.17475 0.34669 0.0
H1292 H 0.9503 0.20506 0.38928 0.0
H1293 H 0.86206 0.04616 0.35455 0.0
H1294 H 0.59408 0.136 0.25116 0.0
H1295 H 0.61776 0.13819 0.19779 0.0
H1296 H 0.61828 0.08043 0.18473 0.0
H1297 H 0.5947 0.07807 0.23904 0.0
H1298 H 0.65448 0.10443 0.1675 0.0
H1299 H 0.59231 0.09138 0.12405 0.0
H1300 H 0.55965 0.09554 0.13458 0.0
H1301 H 0.56552 0.15247 0.11525 0.0
H1302 H 0.59828 0.14865 0.10544 0.0
H1303 H 0.64616 0.14443 0.93173 0.0
H1304 H 0.63876 0.12101 0.98377 0.0
H1305 H 0.66832 0.15004 0.08034 0.0
H1306 H 0.6756 0.1733 0.02903 0.0
H1307 H 0.61805 0.12881 0.04782 0.0
H1308 H 0.68084 0.12517 0.1614 0.0
H1309 H 0.71378 0.12225 0.15498 0.0
H1310 H 0.70765 0.09827 0.03131 0.0
H1311 H 0.67465 0.10077 0.03717 0.0
C1312 C 0.59997 0.1237 0.23897 0.0
C1313 C 0.59262 0.10686 0.24919 0.0
C1314 C 0.61347 0.12497 0.20836 0.0
C1315 C 0.6196 0.10946 0.18742 0.0
C1316 C 0.61377 0.09249 0.20094 0.0
C1317 C 0.60023 0.0912 0.2316 0.0
C1318 C 0.62802 0.11151 0.14534 0.0
C1319 C 0.64666 0.10953 0.14089 0.0
C1320 C 0.61752 0.11752 0.11059 0.0
C1321 C 0.59772 0.11973 0.1142 0.0
C1322 C 0.58662 0.10478 0.12216 0.0
C1323 C 0.5681 0.10708 0.12805 0.0
C1324 C 0.56051 0.12426 0.12564 0.0
C1325 C 0.57141 0.13917 0.1171 0.0
C1326 C 0.58995 0.13694 0.11133 0.0
C1327 C 0.65113 0.14574 0.96399 0.0
C1328 C 0.66086 0.16103 0.97676 0.0
C1329 C 0.64717 0.1322 0.99347 0.0
C1330 C 0.65303 0.13373 0.03591 0.0
C1331 C 0.66395 0.14831 0.04764 0.0
C1332 C 0.66793 0.16175 0.01827 0.0
C1333 C 0.6449 0.12256 0.06981 0.0
C1334 C 0.62608 0.12295 0.07321 0.0
C1335 C 0.65532 0.11497 0.10318 0.0
C1336 C 0.67521 0.11319 0.09974 0.0
C1337 C 0.68648 0.11912 0.13297 0.0
C1338 C 0.70518 0.11758 0.12938 0.0
C1339 C 0.7128 0.11009 0.09275 0.0
C1340 C 0.70173 0.1041 0.05964 0.0
C1341 C 0.68302 0.10561 0.06305 0.0
H1342 H 0.72729 0.10892 0.09003 0.0
H1343 H 0.54618 0.12603 0.13034 0.0
H1344 H 0.97115 0.63645 0.75643 0.0
H1345 H 0.95514 0.65254 0.70017 0.0
H1346 H 0.005 0.67708 0.65991 0.0
H1347 H 0.02087 0.66171 0.71819 0.0
H1348 H 0.9807 0.70168 0.6623 0.0
H1349 H 0.98211 0.6434 0.59996 0.0
H1350 H 0.9784 0.61046 0.59568 0.0
H1351 H 0.92158 0.61604 0.6173 0.0
H1352 H 0.92498 0.649 0.6223 0.0
H1353 H 0.94056 0.7348 0.46774 0.0
H1354 H 0.95907 0.71933 0.52142 0.0
H1355 H 0.91086 0.70066 0.58406 0.0
H1356 H 0.89238 0.71632 0.53048 0.0
H1357 H 0.93565 0.67324 0.56692 0.0
H1358 H 0.93576 0.73256 0.62977 0.0
H1359 H 0.94072 0.76538 0.63046 0.0
H1360 H 0.9967 0.75736 0.60211 0.0
H1361 H 0.99203 0.72447 0.60066 0.0
C1362 C 0.97871 0.6452 0.73538 0.0
C1363 C 0.99722 0.64795 0.74191 0.0
C1364 C 0.96957 0.65429 0.70288 0.0
C1365 C 0.97881 0.66598 0.67527 0.0
C1366 C 0.99751 0.66818 0.68072 0.0
C1367 C 0.00663 0.65923 0.71372 0.0
C1368 C 0.96875 0.67658 0.64246 0.0
C1369 C 0.9711 0.69536 0.64094 0.0
C1370 C 0.95595 0.66851 0.61485 0.0
C1371 C 0.95383 0.64868 0.61186 0.0
C1372 C 0.96884 0.6376 0.60412 0.0
C1373 C 0.96679 0.61892 0.60151 0.0
C1374 C 0.94977 0.61116 0.60631 0.0
C1375 C 0.93476 0.62207 0.61363 0.0
C1376 C 0.93673 0.64075 0.6163 0.0
C1377 C 0.93399 0.72772 0.49362 0.0
C1378 C 0.91513 0.72688 0.49557 0.0
C1379 C 0.94453 0.71886 0.52414 0.0
C1380 C 0.93636 0.70887 0.55687 0.0
C1381 C 0.91745 0.7083 0.55916 0.0
C1382 C 0.90692 0.71733 0.52884 0.0
C1383 C 0.94749 0.69823 0.58732 0.0
C1384 C 0.94533 0.67946 0.58823 0.0
C1385 C 0.96068 0.70627 0.61376 0.0
C1386 C 0.96349 0.72605 0.61466 0.0
C1387 C 0.94909 0.73779 0.62329 0.0
C1388 C 0.95186 0.75641 0.62391 0.0
C1389 C 0.969 0.76345 0.61622 0.0
C1390 C 0.98343 0.75188 0.608 0.0
C1391 C 0.98073 0.73325 0.60731 0.0
H1392 H 0.97112 0.77787 0.61672 0.0
H1393 H 0.94821 0.5967 0.60428 0.0
H1394 H 0.61913 0.72206 0.9675 0.0
H1395 H 0.60123 0.70759 0.91128 0.0
H1396 H 0.56346 0.68875 0.00554 0.0
H1397 H 0.58068 0.70401 0.06147 0.0
H1398 H 0.57789 0.66166 0.94279 0.0
H1399 H 0.54931 0.72022 0.95236 0.0
H1400 H 0.5495 0.75342 0.95244 0.0
H1401 H 0.57176 0.75365 0.82614 0.0
H1402 H 0.57196 0.72043 0.82558 0.0
H1403 H 0.51501 0.62481 0.79701 0.0
H1404 H 0.52822 0.64107 0.85739 0.0
H1405 H 0.55366 0.6781 0.77 0.0
H1406 H 0.53907 0.663 0.71039 0.0
H1407 H 0.54454 0.69624 0.83283 0.0
H1408 H 0.57589 0.64007 0.82071 0.0
H1409 H 0.57918 0.60706 0.81729 0.0
H1410 H 0.55634 0.60215 0.94249 0.0
H1411 H 0.55272 0.63514 0.94643 0.0
C1412 C 0.60687 0.71506 0.97613 0.0
C1413 C 0.60135 0.71413 0.01894 0.0
C1414 C 0.59674 0.70671 0.94407 0.0
C1415 C 0.58107 0.69707 0.95436 0.0
C1416 C 0.57558 0.69603 0.99703 0.0
C1417 C 0.5855 0.70466 0.02895 0.0
C1418 C 0.57043 0.68802 0.92059 0.0
C1419 C 0.57037 0.66916 0.91901 0.0
C1420 C 0.56113 0.69787 0.88897 0.0
C1421 C 0.5608 0.71784 0.8891 0.0
C1422 C 0.55439 0.72735 0.92475 0.0
C1423 C 0.5544 0.74617 0.92485 0.0
C1424 C 0.56068 0.75564 0.88936 0.0
C1425 C 0.56692 0.7463 0.85363 0.0
C1426 C 0.56695 0.72748 0.85339 0.0
C1427 C 0.52307 0.63668 0.79089 0.0
C1428 C 0.52607 0.64257 0.74895 0.0
C1429 C 0.53089 0.64581 0.82537 0.0
C1430 C 0.54238 0.66063 0.81845 0.0
C1431 C 0.54497 0.66671 0.7765 0.0
C1432 C 0.53679 0.6579 0.74228 0.0
C1433 C 0.55202 0.66967 0.8544 0.0
C1434 C 0.55195 0.6886 0.85653 0.0
C1435 C 0.56165 0.65986 0.88588 0.0
C1436 C 0.56385 0.64004 0.88367 0.0
C1437 C 0.57146 0.63193 0.84739 0.0
C1438 C 0.5734 0.61323 0.84538 0.0
C1439 C 0.56792 0.60251 0.8796 0.0
C1440 C 0.56055 0.61047 0.91597 0.0
C1441 C 0.55856 0.62917 0.91813 0.0
H1442 H 0.56944 0.58803 0.87798 0.0
H1443 H 0.56068 0.77021 0.8895 0.0
H1444 H 0.62941 0.25449 0.03009 0.0
H1445 H 0.61254 0.26835 0.08904 0.0
H1446 H 0.57125 0.2851 0.00087 0.0
H1447 H 0.58746 0.27046 0.94248 0.0
H1448 H 0.58946 0.31333 0.05932 0.0
H1449 H 0.55732 0.25644 0.05604 0.0
H1450 H 0.55534 0.22331 0.05766 0.0
H1451 H 0.58096 0.22254 0.18043 0.0
H1452 H 0.5833 0.25568 0.17927 0.0
H1453 H 0.52667 0.35281 0.20014 0.0
H1454 H 0.54016 0.33516 0.14247 0.0
H1455 H 0.5669 0.30154 0.23525 0.0
H1456 H 0.55248 0.31837 0.29269 0.0
H1457 H 0.55633 0.28133 0.17384 0.0
H1458 H 0.58875 0.33687 0.18041 0.0
H1459 H 0.59276 0.36983 0.181 0.0
H1460 H 0.56989 0.37333 0.05549 0.0
H1461 H 0.56551 0.3404 0.05438 0.0
C1462 C 0.61654 0.26076 0.02353 0.0
C1463 C 0.6098 0.2615 0.98167 0.0
C1464 C 0.60699 0.26877 0.0571 0.0
C1465 C 0.59072 0.27781 0.04913 0.0
C1466 C 0.58383 0.27827 0.00756 0.0
C1467 C 0.59315 0.26998 0.97426 0.0
C1468 C 0.58126 0.28754 0.0837 0.0
C1469 C 0.58201 0.3064 0.08414 0.0
C1470 C 0.57205 0.27841 0.11659 0.0
C1471 C 0.57069 0.25851 0.11731 0.0
C1472 C 0.56271 0.24919 0.08316 0.0
C1473 C 0.56147 0.23041 0.08405 0.0
C1474 C 0.56808 0.22081 0.11906 0.0
C1475 C 0.57589 0.22999 0.1533 0.0
C1476 C 0.57715 0.24877 0.15256 0.0
C1477 C 0.53521 0.34148 0.20813 0.0
C1478 C 0.53871 0.33712 0.25091 0.0
C1479 C 0.5431 0.33152 0.17518 0.0
C1480 C 0.55493 0.31722 0.18438 0.0
C1481 C 0.55797 0.31255 0.22717 0.0
C1482 C 0.54988 0.32234 0.26004 0.0
C1483 C 0.56437 0.30731 0.14963 0.0
C1484 C 0.56372 0.28839 0.14913 0.0
C1485 C 0.57397 0.3164 0.11701 0.0
C1486 C 0.57663 0.33619 0.1175 0.0
C1487 C 0.58446 0.34469 0.15306 0.0
C1488 C 0.58681 0.36336 0.15347 0.0
C1489 C 0.58154 0.37367 0.11835 0.0
C1490 C 0.57394 0.36533 0.08269 0.0
C1491 C 0.57153 0.34666 0.08214 0.0
H1492 H 0.58338 0.38812 0.11872 0.0
H1493 H 0.56711 0.20628 0.1197 0.0
H1494 H 0.89193 0.26974 0.47634 0.0
H1495 H 0.90315 0.28599 0.41343 0.0
H1496 H 0.94946 0.30357 0.48535 0.0
H1497 H 0.93833 0.28733 0.54795 0.0
H1498 H 0.93368 0.33111 0.43605 0.0
H1499 H 0.95168 0.26773 0.41793 0.0
H1500 H 0.94195 0.23603 0.41506 0.0
H1501 H 0.90835 0.24777 0.30705 0.0
H1502 H 0.91754 0.27966 0.31 0.0
H1503 H 0.99417 0.3627 0.28358 0.0
H1504 H 0.9791 0.34702 0.34132 0.0
H1505 H 0.94596 0.31879 0.25003 0.0
H1506 H 0.96284 0.33266 0.19197 0.0
H1507 H 0.95129 0.29704 0.30663 0.0
H1508 H 0.93133 0.35728 0.31623 0.0
H1509 H 0.93318 0.39038 0.31979 0.0
H1510 H 0.96214 0.3868 0.43804 0.0
H1511 H 0.96068 0.35365 0.43492 0.0
C1512 C 0.90457 0.27696 0.47847 0.0
C1513 C 0.91437 0.27716 0.5168 0.0
C1514 C 0.91091 0.28632 0.44268 0.0
C1515 C 0.92722 0.29593 0.4446 0.0
C1516 C 0.93683 0.29632 0.48313 0.0
C1517 C 0.9305 0.287 0.51881 0.0
C1518 C 0.93474 0.30507 0.40632 0.0
C1519 C 0.93772 0.3237 0.40783 0.0
C1520 C 0.93916 0.29553 0.36874 0.0
C1521 C 0.93519 0.27608 0.36437 0.0
C1522 C 0.94229 0.26352 0.39344 0.0
C1523 C 0.93682 0.24553 0.3919 0.0
C1524 C 0.92448 0.23991 0.36097 0.0
C1525 C 0.91786 0.25217 0.33104 0.0
C1526 C 0.9232 0.2702 0.33263 0.0
C1527 C 0.98401 0.35283 0.27561 0.0
C1528 C 0.9798 0.349 0.23287 0.0
C1529 C 0.975 0.34414 0.30891 0.0
C1530 C 0.96086 0.33204 0.30054 0.0
C1531 C 0.95667 0.32814 0.25777 0.0
C1532 C 0.96617 0.33634 0.2244 0.0
C1533 C 0.95076 0.32328 0.33634 0.0
C1534 C 0.94726 0.30466 0.3345 0.0
C1535 C 0.94515 0.33301 0.37299 0.0
C1536 C 0.94602 0.35296 0.37514 0.0
C1537 C 0.93819 0.36354 0.34286 0.0
C1538 C 0.93916 0.38232 0.34481 0.0
C1539 C 0.94781 0.39068 0.37907 0.0
C1540 C 0.95546 0.38029 0.4115 0.0
C1541 C 0.95455 0.36151 0.40969 0.0
H1542 H 0.94855 0.40522 0.38051 0.0
H1543 H 0.91993 0.22611 0.36036 0.0
H1544 H 0.10454 0.38916 0.20306 0.0
H1545 H 0.13146 0.38577 0.24795 0.0
H1546 H 0.09822 0.38956 0.3605 0.0
H1547 H 0.07166 0.39311 0.31628 0.0
H1548 H 0.12951 0.40631 0.37375 0.0
H1549 H 0.10924 0.34789 0.31122 0.0
H1550 H 0.10405 0.32808 0.24922 0.0
H1551 H 0.15898 0.33525 0.20995 0.0
H1552 H 0.1644 0.35527 0.27155 0.0
H1553 H 0.12745 0.33975 0.52213 0.0
H1554 H 0.12802 0.36438 0.47127 0.0
H1555 H 0.17982 0.34664 0.42535 0.0
H1556 H 0.17942 0.32195 0.4769 0.0
H1557 H 0.1551 0.34479 0.36528 0.0
H1558 H 0.1752 0.39091 0.45465 0.0
H1559 H 0.17848 0.40894 0.52013 0.0
H1560 H 0.12277 0.42412 0.51315 0.0
H1561 H 0.11904 0.40598 0.44804 0.0
C1562 C 0.10305 0.38917 0.23737 0.0
C1563 C 0.08599 0.3909 0.25627 0.0
C1564 C 0.11843 0.38749 0.26293 0.0
C1565 C 0.11683 0.38735 0.30758 0.0
C1566 C 0.09985 0.38983 0.32617 0.0
C1567 C 0.08463 0.39166 0.30083 0.0
C1568 C 0.13199 0.3823 0.33578 0.0
C1569 C 0.13539 0.39297 0.37188 0.0
C1570 C 0.14037 0.36529 0.33221 0.0
C1571 C 0.13715 0.35319 0.29552 0.0
C1572 C 0.12017 0.34527 0.28921 0.0
C1573 C 0.11719 0.33403 0.25418 0.0
C1574 C 0.13117 0.33045 0.22559 0.0
C1575 C 0.14816 0.33808 0.23205 0.0
C1576 C 0.15119 0.34938 0.26698 0.0
C1577 C 0.13942 0.34163 0.50296 0.0
C1578 C 0.15337 0.32891 0.50344 0.0
C1579 C 0.13976 0.35578 0.47375 0.0
C1580 C 0.15401 0.35739 0.44451 0.0
C1581 C 0.16875 0.34569 0.44771 0.0
C1582 C 0.16843 0.33155 0.47699 0.0
C1583 C 0.15114 0.36809 0.4053 0.0
C1584 C 0.15019 0.35854 0.36674 0.0
C1585 C 0.1448 0.386 0.40705 0.0
C1586 C 0.14687 0.39709 0.44621 0.0
C1587 C 0.16362 0.39803 0.46713 0.0
C1588 C 0.16556 0.40828 0.50422 0.0
C1589 C 0.15085 0.41769 0.52076 0.0
C1590 C 0.13417 0.41687 0.50023 0.0
C1591 C 0.13215 0.40664 0.46312 0.0
H1592 H 0.15238 0.4256 0.54949 0.0
H1593 H 0.12884 0.32174 0.19849 0.0
H1594 H 0.38468 0.31498 0.01749 0.0
H1595 H 0.38808 0.33247 0.0828 0.0
H1596 H 0.35227 0.37309 0.03297 0.0
H1597 H 0.34865 0.35533 0.96699 0.0
H1598 H 0.38943 0.38365 0.07345 0.0
H1599 H 0.33353 0.35514 0.10255 0.0
H1600 H 0.31178 0.33007 0.10224 0.0
H1601 H 0.34716 0.29881 0.18133 0.0
H1602 H 0.36927 0.32356 0.18156 0.0
H1603 H 0.42298 0.40869 0.27111 0.0
H1604 H 0.39662 0.40538 0.22474 0.0
H1605 H 0.40544 0.34797 0.22053 0.0
H1606 H 0.43143 0.35121 0.26727 0.0
H1607 H 0.37024 0.35555 0.20967 0.0
H1608 H 0.42856 0.37662 0.15349 0.0
H1609 H 0.4536 0.39841 0.15013 0.0
H1610 H 0.41636 0.44068 0.11896 0.0
H1611 H 0.39108 0.41912 0.12271 0.0
C1612 C 0.37794 0.32787 0.01993 0.0
C1613 C 0.36687 0.33417 0.98697 0.0
C1614 C 0.37963 0.33767 0.05743 0.0
C1615 C 0.37027 0.3539 0.06255 0.0
C1616 C 0.35949 0.36052 0.02937 0.0
C1617 C 0.35756 0.3505 0.99186 0.0
C1618 C 0.37245 0.36376 0.10285 0.0
C1619 C 0.38466 0.37808 0.10339 0.0
C1620 C 0.3664 0.35616 0.14156 0.0
C1621 C 0.35307 0.34124 0.14204 0.0
C1622 C 0.33673 0.34288 0.11969 0.0
C1623 C 0.32432 0.32873 0.11954 0.0
C1624 C 0.32808 0.31286 0.14176 0.0
C1625 C 0.34425 0.31112 0.1642 0.0
C1626 C 0.35671 0.32523 0.16442 0.0
C1627 C 0.41877 0.39532 0.2616 0.0
C1628 C 0.42915 0.38019 0.27254 0.0
C1629 C 0.40375 0.39345 0.23522 0.0
C1630 C 0.39931 0.37649 0.2186 0.0
C1631 C 0.40859 0.36118 0.23314 0.0
C1632 C 0.42345 0.36302 0.25991 0.0
C1633 C 0.38793 0.37481 0.18015 0.0
C1634 C 0.37413 0.36193 0.17997 0.0
C1635 C 0.3928 0.38346 0.14153 0.0
C1636 C 0.40796 0.39636 0.13892 0.0
C1637 C 0.42573 0.39058 0.14613 0.0
C1638 C 0.43995 0.40288 0.14417 0.0
C1639 C 0.43657 0.42093 0.13447 0.0
C1640 C 0.41895 0.42671 0.1266 0.0
C1641 C 0.40467 0.41446 0.12867 0.0
H1642 H 0.44759 0.43044 0.13295 0.0
H1643 H 0.31847 0.30191 0.14159 0.0
H1644 H 0.35795 0.68654 0.96431 0.0
H1645 H 0.36087 0.66014 0.91956 0.0
H1646 H 0.40144 0.63884 0.00443 0.0
H1647 H 0.39988 0.66608 0.04691 0.0
H1648 H 0.41492 0.64156 0.93293 0.0
H1649 H 0.3604 0.6152 0.97671 0.0
H1650 H 0.32839 0.61294 0.99668 0.0
H1651 H 0.3128 0.62852 0.87011 0.0
H1652 H 0.34471 0.63116 0.84947 0.0
H1653 H 0.43601 0.57951 0.77727 0.0
H1654 H 0.41839 0.58727 0.8398 0.0
H1655 H 0.3926 0.6301 0.76998 0.0
H1656 H 0.40992 0.62213 0.70632 0.0
H1657 H 0.37077 0.60958 0.84139 0.0
H1658 H 0.42629 0.64428 0.81087 0.0
H1659 H 0.45854 0.64623 0.79292 0.0
H1660 H 0.47154 0.61261 0.90009 0.0
H1661 H 0.43927 0.61041 0.91846 0.0
C1662 C 0.36721 0.67605 0.97409 0.0
C1663 C 0.37874 0.67855 0.00916 0.0
C1664 C 0.36864 0.66073 0.94875 0.0
C1665 C 0.38136 0.64738 0.95854 0.0
C1666 C 0.39152 0.64896 0.9962 0.0
C1667 C 0.39045 0.66455 0.02092 0.0
C1668 C 0.38688 0.63442 0.92505 0.0
C1669 C 0.40519 0.63412 0.91404 0.0
C1670 C 0.37429 0.62496 0.89941 0.0
C1671 C 0.35501 0.62345 0.91158 0.0
C1672 C 0.35016 0.61828 0.95318 0.0
C1673 C 0.33202 0.61691 0.96462 0.0
C1674 C 0.31857 0.6206 0.9347 0.0
C1675 C 0.32324 0.62565 0.89325 0.0
C1676 C 0.34136 0.62705 0.88163 0.0
C1677 C 0.42622 0.59026 0.77455 0.0
C1678 C 0.42493 0.60073 0.73725 0.0
C1679 C 0.41607 0.59456 0.81036 0.0
C1680 C 0.4044 0.60932 0.80942 0.0
C1681 C 0.40162 0.61864 0.77109 0.0
C1682 C 0.41184 0.61435 0.73508 0.0
C1683 C 0.39844 0.61729 0.84992 0.0
C1684 C 0.38026 0.61665 0.86167 0.0
C1685 C 0.41108 0.62577 0.87684 0.0
C1686 C 0.43042 0.62701 0.8657 0.0
C1687 C 0.43603 0.63717 0.83033 0.0
C1688 C 0.45431 0.63834 0.82014 0.0
C1689 C 0.4671 0.62947 0.84525 0.0
C1690 C 0.46162 0.61944 0.88062 0.0
C1691 C 0.44335 0.61824 0.89097 0.0
H1692 H 0.48126 0.63044 0.83749 0.0
H1693 H 0.30454 0.61952 0.94362 0.0
H1694 H 0.11876 0.59069 0.75992 0.0
H1695 H 0.13648 0.5931 0.69379 0.0
H1696 H 0.09408 0.62488 0.63711 0.0
H1697 H 0.07645 0.62231 0.70242 0.0
H1698 H 0.10748 0.59764 0.58319 0.0
H1699 H 0.12931 0.64549 0.67927 0.0
H1700 H 0.1436 0.65593 0.74586 0.0
H1701 H 0.19032 0.62383 0.7188 0.0
H1702 H 0.17617 0.61304 0.65225 0.0
H1703 H 0.12461 0.67063 0.45833 0.0
H1704 H 0.11779 0.64546 0.50459 0.0
H1705 H 0.17369 0.62962 0.50395 0.0
H1706 H 0.1806 0.65478 0.45612 0.0
H1707 H 0.16181 0.63646 0.58253 0.0
H1708 H 0.14265 0.5989 0.47164 0.0
H1709 H 0.12799 0.59008 0.4043 0.0
H1710 H 0.07623 0.60299 0.45698 0.0
H1711 H 0.09057 0.61216 0.52441 0.0
C1712 C 0.11343 0.59833 0.73332 0.0
C1713 C 0.09665 0.60691 0.73645 0.0
C1714 C 0.12343 0.59956 0.6957 0.0
C1715 C 0.11651 0.60913 0.66077 0.0
C1716 C 0.09959 0.6174 0.66378 0.0
C1717 C 0.08972 0.61629 0.70133 0.0
C1718 C 0.12704 0.61164 0.62145 0.0
C1719 C 0.11948 0.60596 0.58274 0.0
C1720 C 0.14313 0.62176 0.62134 0.0
C1721 C 0.15161 0.62827 0.6612 0.0
C1722 C 0.14257 0.64055 0.68774 0.0
C1723 C 0.15065 0.64655 0.72541 0.0
C1724 C 0.16783 0.6405 0.73664 0.0
C1725 C 0.17699 0.62847 0.71013 0.0
C1726 C 0.16895 0.6224 0.67245 0.0
C1727 C 0.13531 0.66127 0.46585 0.0
C1728 C 0.15309 0.66451 0.45289 0.0
C1729 C 0.1314 0.64686 0.49262 0.0
C1730 C 0.14521 0.63552 0.5073 0.0
C1731 C 0.16284 0.63811 0.4926 0.0
C1732 C 0.16674 0.65249 0.46547 0.0
C1733 C 0.14151 0.62356 0.54387 0.0
C1734 C 0.15036 0.62738 0.58239 0.0
C1735 C 0.12657 0.61178 0.54369 0.0
C1736 C 0.11773 0.6062 0.50324 0.0
C1737 C 0.12815 0.59995 0.46884 0.0
C1738 C 0.11989 0.59488 0.43063 0.0
C1739 C 0.10119 0.59596 0.42638 0.0
C1740 C 0.09071 0.60211 0.46036 0.0
C1741 C 0.09891 0.60721 0.49865 0.0
H1742 H 0.09482 0.59204 0.39676 0.0
H1743 H 0.17407 0.64517 0.76581 0.0
H1744 H 0.38235 0.19296 0.76589 0.0
H1745 H 0.38509 0.17226 0.70595 0.0
H1746 H 0.44011 0.18928 0.68729 0.0
H1747 H 0.43734 0.21043 0.74635 0.0
H1748 H 0.42099 0.19231 0.61606 0.0
H1749 H 0.42879 0.14736 0.72759 0.0
H1750 H 0.41943 0.13021 0.79117 0.0
H1751 H 0.37217 0.11187 0.72522 0.0
H1752 H 0.38116 0.12911 0.66138 0.0
H1753 H 0.46938 0.11345 0.54299 0.0
H1754 H 0.44695 0.12402 0.59294 0.0
H1755 H 0.41837 0.15056 0.49067 0.0
H1756 H 0.44161 0.14073 0.44035 0.0
H1757 H 0.41336 0.12598 0.61374 0.0
H1758 H 0.40669 0.19144 0.5246 0.0
H1759 H 0.42029 0.20855 0.46521 0.0
H1760 H 0.47202 0.18565 0.49394 0.0
H1761 H 0.45871 0.16857 0.55371 0.0
C1762 C 0.39516 0.19207 0.74953 0.0
C1763 C 0.40959 0.2035 0.76038 0.0
C1764 C 0.39667 0.18021 0.71535 0.0
C1765 C 0.41271 0.17942 0.69207 0.0
C1766 C 0.42753 0.1899 0.70472 0.0
C1767 C 0.42599 0.20187 0.73861 0.0
C1768 C 0.41389 0.16879 0.65259 0.0
C1769 C 0.41913 0.17781 0.61543 0.0
C1770 C 0.41093 0.15 0.65159 0.0
C1771 C 0.40551 0.13972 0.68997 0.0
C1772 C 0.41631 0.13981 0.7268 0.0
C1773 C 0.4111 0.13004 0.76284 0.0
C1774 C 0.39518 0.12001 0.76229 0.0
C1775 C 0.38447 0.11969 0.72564 0.0
C1776 C 0.38962 0.12945 0.68952 0.0
C1777 C 0.45815 0.12124 0.53083 0.0
C1778 C 0.45757 0.1269 0.48819 0.0
C1779 C 0.44515 0.12709 0.55942 0.0
C1780 C 0.43125 0.1385 0.54571 0.0
C1781 C 0.42927 0.14212 0.502 0.0
C1782 C 0.44257 0.1366 0.4734 0.0
C1783 C 0.42185 0.14934 0.57822 0.0
C1784 C 0.41461 0.14053 0.61397 0.0
C1785 C 0.42353 0.16833 0.57857 0.0
C1786 C 0.43168 0.17859 0.54305 0.0
C1787 C 0.42096 0.1901 0.51817 0.0
C1788 C 0.42861 0.19978 0.48451 0.0
C1789 C 0.44699 0.19812 0.4757 0.0
C1790 C 0.45778 0.18687 0.50071 0.0
C1791 C 0.4502 0.17721 0.53448 0.0
H1792 H 0.45288 0.2056 0.44957 0.0
H1793 H 0.39117 0.11245 0.79022 0.0
H1794 H 0.05942 0.17158 0.02469 0.0
H1795 H 0.08073 0.1767 0.96683 0.0
H1796 H 0.10343 0.12388 0.98646 0.0
H1797 H 0.08239 0.11871 0.04498 0.0
H1798 H 0.12895 0.14866 0.96009 0.0
H1799 H 0.07226 0.12673 0.91722 0.0
H1800 H 0.03921 0.12432 0.91237 0.0
H1801 H 0.03651 0.17685 0.85568 0.0
H1802 H 0.06944 0.17995 0.86185 0.0
H1803 H 0.12331 0.18459 0.72034 0.0
H1804 H 0.11817 0.16009 0.77099 0.0
H1805 H 0.14203 0.19216 0.87107 0.0
H1806 H 0.14786 0.21613 0.82059 0.0
H1807 H 0.09544 0.16411 0.82816 0.0
H1808 H 0.15382 0.17048 0.95608 0.0
H1809 H 0.18698 0.17025 0.95635 0.0
H1810 H 0.18731 0.14368 0.83486 0.0
H1811 H 0.15414 0.14343 0.83408 0.0
C1812 C 0.06927 0.16125 0.01757 0.0
C1813 C 0.06895 0.14459 0.0386 0.0
C1814 C 0.08138 0.16416 0.98445 0.0
C1815 C 0.09321 0.15043 0.97183 0.0
C1816 C 0.09422 0.13452 0.99557 0.0
C1817 C 0.08215 0.13161 0.02886 0.0
C1818 C 0.10289 0.15206 0.93113 0.0
C1819 C 0.12177 0.15197 0.93101 0.0
C1820 C 0.09334 0.15514 0.89282 0.0
C1821 C 0.07339 0.15359 0.89017 0.0
C1822 C 0.06461 0.13789 0.90431 0.0
C1823 C 0.04588 0.13642 0.90139 0.0
C1824 C 0.03578 0.15045 0.88386 0.0
C1825 C 0.04435 0.16605 0.86952 0.0
C1826 C 0.06305 0.16768 0.87278 0.0
C1827 C 0.12785 0.18616 0.75296 0.0
C1828 C 0.13555 0.20239 0.76692 0.0
C1829 C 0.12507 0.17211 0.78173 0.0
C1830 C 0.12971 0.17424 0.82486 0.0
C1831 C 0.13867 0.18995 0.83788 0.0
C1832 C 0.14171 0.20384 0.80906 0.0
C1833 C 0.12164 0.1625 0.85774 0.0
C1834 C 0.10288 0.16041 0.85661 0.0
C1835 C 0.13137 0.15702 0.89435 0.0
C1836 C 0.1514 0.15695 0.89503 0.0
C1837 C 0.16092 0.16442 0.92958 0.0
C1838 C 0.17975 0.16442 0.92977 0.0
C1839 C 0.18925 0.15697 0.89564 0.0
C1840 C 0.17994 0.14948 0.86125 0.0
C1841 C 0.16111 0.14943 0.86089 0.0
H1842 H 0.20382 0.157 0.89584 0.0
H1843 H 0.02132 0.14919 0.88103 0.0
H1844 H 0.04685 0.85307 0.07772 0.0
H1845 H 0.07307 0.85658 0.12309 0.0
H1846 H 0.10787 0.85421 0.01307 0.0
H1847 H 0.08135 0.85047 0.96687 0.0
H1848 H 0.11967 0.83336 0.07895 0.0
H1849 H 0.10555 0.89327 0.0618 0.0
H1850 H 0.08605 0.91961 0.05105 0.0
H1851 H 0.06612 0.91463 0.1789 0.0
H1852 H 0.08483 0.88769 0.18994 0.0
H1853 H 0.15456 0.81963 0.28063 0.0
H1854 H 0.15463 0.84344 0.22699 0.0
H1855 H 0.09663 0.84169 0.22228 0.0
H1856 H 0.09638 0.81784 0.27553 0.0
H1857 H 0.115 0.87734 0.19754 0.0
H1858 H 0.11268 0.80741 0.15442 0.0
H1859 H 0.12805 0.77831 0.16618 0.0
H1860 H 0.17946 0.80437 0.1548 0.0
H1861 H 0.16432 0.8336 0.14303 0.0
C1862 C 0.06005 0.85322 0.06306 0.0
C1863 C 0.06208 0.85158 0.01883 0.0
C1864 C 0.07502 0.85548 0.08895 0.0
C1865 C 0.09233 0.85636 0.07115 0.0
C1866 C 0.09456 0.85398 0.02713 0.0
C1867 C 0.07946 0.85165 0.00099 0.0
C1868 C 0.10782 0.85826 0.10019 0.0
C1869 C 0.11944 0.84352 0.10381 0.0
C1870 C 0.10773 0.87172 0.13216 0.0
C1871 C 0.09683 0.88844 0.12683 0.0
C1872 C 0.09702 0.89774 0.08771 0.0
C1873 C 0.08604 0.91279 0.0815 0.0
C1874 C 0.07497 0.91892 0.11439 0.0
C1875 C 0.07479 0.90993 0.15351 0.0
C1876 C 0.0856 0.89473 0.15977 0.0
C1877 C 0.14177 0.82478 0.26938 0.0
C1878 C 0.12544 0.81646 0.28104 0.0
C1879 C 0.14188 0.83852 0.23903 0.0
C1880 C 0.12568 0.84407 0.22039 0.0
C1881 C 0.10929 0.83756 0.23649 0.0
C1882 C 0.10915 0.82376 0.26652 0.0
C1883 C 0.12544 0.85178 0.1772 0.0
C1884 C 0.11655 0.8682 0.17087 0.0
C1885 C 0.1283 0.84011 0.14224 0.0
C1886 C 0.13743 0.82256 0.14766 0.0
C1887 C 0.12726 0.80685 0.15411 0.0
C1888 C 0.13592 0.79037 0.16093 0.0
C1889 C 0.15472 0.78949 0.16117 0.0
C1890 C 0.1649 0.80508 0.15454 0.0
C1891 C 0.1563 0.82159 0.14777 0.0
H1892 H 0.1614 0.77673 0.16652 0.0
H1893 H 0.06648 0.93059 0.10948 0.0
H1894 H 0.3769 0.7868 0.32495 0.0
H1895 H 0.37952 0.8096 0.37956 0.0
H1896 H 0.39399 0.84904 0.28417 0.0
H1897 H 0.39258 0.82561 0.2293 0.0
H1898 H 0.41722 0.85011 0.33968 0.0
H1899 H 0.35505 0.85394 0.35356 0.0
H1900 H 0.32349 0.84373 0.35499 0.0
H1901 H 0.33378 0.81381 0.46954 0.0
H1902 H 0.36548 0.82354 0.46852 0.0
H1903 H 0.44465 0.88514 0.54182 0.0
H1904 H 0.41829 0.88434 0.49524 0.0
H1905 H 0.42472 0.82703 0.48031 0.0
H1906 H 0.45117 0.82762 0.52642 0.0
H1907 H 0.38388 0.85052 0.47676 0.0
H1908 H 0.44697 0.83567 0.38934 0.0
H1909 H 0.47901 0.84467 0.38826 0.0
H1910 H 0.46413 0.89926 0.41616 0.0
H1911 H 0.43202 0.89057 0.41724 0.0
C1912 C 0.38036 0.80039 0.31545 0.0
C1913 C 0.38491 0.8044 0.27314 0.0
C1914 C 0.38152 0.81358 0.3467 0.0
C1915 C 0.38667 0.83123 0.33611 0.0
C1916 C 0.38997 0.83554 0.29317 0.0
C1917 C 0.38928 0.82217 0.26193 0.0
C1918 C 0.39201 0.84373 0.37071 0.0
C1919 C 0.40947 0.85091 0.36892 0.0
C1920 C 0.38198 0.84507 0.40909 0.0
C1921 C 0.36272 0.83958 0.41101 0.0
C1922 C 0.35062 0.84517 0.37908 0.0
C1923 C 0.33269 0.83944 0.37978 0.0
C1924 C 0.32663 0.82814 0.41235 0.0
C1925 C 0.33848 0.82261 0.4444 0.0
C1926 C 0.35644 0.82829 0.44386 0.0
C1927 C 0.4401 0.87224 0.52985 0.0
C1928 C 0.45027 0.85648 0.53671 0.0
C1929 C 0.42491 0.87184 0.50365 0.0
C1930 C 0.4197 0.85567 0.48446 0.0
C1931 C 0.42854 0.83961 0.49529 0.0
C1932 C 0.44378 0.84 0.5212 0.0
C1933 C 0.40897 0.85584 0.44513 0.0
C1934 C 0.39081 0.85083 0.44636 0.0
C1935 C 0.418 0.85706 0.40572 0.0
C1936 C 0.43718 0.86249 0.40333 0.0
C1937 C 0.45056 0.84961 0.3949 0.0
C1938 C 0.46872 0.85464 0.39443 0.0
C1939 C 0.4736 0.87252 0.40216 0.0
C1940 C 0.46033 0.88542 0.41022 0.0
C1941 C 0.44216 0.88045 0.41077 0.0
H1942 H 0.48766 0.87637 0.40189 0.0
H1943 H 0.31277 0.82366 0.41272 0.0
H1944 H 0.52211 0.86252 0.45692 0.0
H1945 H 0.53648 0.84783 0.39629 0.0
H1946 H 0.57486 0.82285 0.48137 0.0
H1947 H 0.56137 0.83889 0.5416 0.0
H1948 H 0.59206 0.83175 0.41788 0.0
H1949 H 0.53588 0.80021 0.4293 0.0
H1950 H 0.50287 0.79698 0.43381 0.0
H1951 H 0.49707 0.82202 0.31117 0.0
H1952 H 0.53005 0.82556 0.30611 0.0
H1953 H 0.61518 0.75831 0.28069 0.0
H1954 H 0.60005 0.77592 0.33579 0.0
H1955 H 0.5862 0.81635 0.24279 0.0
H1956 H 0.60181 0.79895 0.18719 0.0
H1957 H 0.55662 0.80063 0.30581 0.0
H1958 H 0.61505 0.82992 0.29715 0.0
H1959 H 0.64826 0.8297 0.29556 0.0
H1960 H 0.64947 0.80425 0.41848 0.0
H1961 H 0.61625 0.80408 0.42047 0.0
C1962 C 0.53356 0.85379 0.46263 0.0
C1963 C 0.54056 0.85171 0.50395 0.0
C1964 C 0.54172 0.84526 0.42792 0.0
C1965 C 0.55658 0.83378 0.43397 0.0
C1966 C 0.56345 0.83159 0.47553 0.0
C1967 C 0.55568 0.84066 0.51006 0.0
C1968 C 0.5653 0.82448 0.39703 0.0
C1969 C 0.5842 0.8248 0.39381 0.0
C1970 C 0.55523 0.81558 0.36476 0.0
C1971 C 0.53542 0.81329 0.36751 0.0
C1972 C 0.52755 0.8051 0.40339 0.0
C1973 C 0.50885 0.8032 0.40602 0.0
C1974 C 0.49788 0.80931 0.37281 0.0
C1975 C 0.50559 0.81729 0.33685 0.0
C1976 C 0.52428 0.81923 0.33406 0.0
C1977 C 0.6089 0.77093 0.27179 0.0
C1978 C 0.60969 0.77723 0.2295 0.0
C1979 C 0.60029 0.78097 0.30338 0.0
C1980 C 0.59203 0.79739 0.2933 0.0
C1981 C 0.59251 0.80367 0.25108 0.0
C1982 C 0.60148 0.79377 0.21947 0.0
C1983 C 0.58311 0.80792 0.3274 0.0
C1984 C 0.56428 0.80774 0.33001 0.0
C1985 C 0.5932 0.81652 0.3597 0.0
C1986 C 0.61317 0.81683 0.35876 0.0
C1987 C 0.6224 0.82414 0.32366 0.0
C1988 C 0.64122 0.82411 0.32272 0.0
C1989 C 0.65097 0.81692 0.35685 0.0
C1990 C 0.6419 0.8098 0.39205 0.0
C1991 C 0.62308 0.80978 0.39311 0.0
H1992 H 0.66554 0.81691 0.35606 0.0
H1993 H 0.48341 0.80785 0.37494 0.0
H1994 H 0.8906 0.80687 0.28047 0.0
H1995 H 0.90427 0.82253 0.21941 0.0
H1996 H 0.93964 0.77734 0.19881 0.0
H1997 H 0.92582 0.7615 0.25877 0.0
H1998 H 0.95661 0.81289 0.19525 0.0
H1999 H 0.90569 0.77926 0.13917 0.0
H2000 H 0.87356 0.77097 0.13602 0.0
H2001 H 0.85959 0.82583 0.10811 0.0
H2002 H 0.89165 0.83449 0.11175 0.0
H2003 H 0.99314 0.82083 0.99314 0.0
H2004 H 0.97624 0.80951 0.05402 0.0
H2005 H 0.93708 0.85186 0.03768 0.0
H2006 H 0.95378 0.86297 0.9753 0.0
H2007 H 0.92072 0.82179 0.06331 0.0
H2008 H 0.97106 0.85552 0.11182 0.0
H2009 H 0.00287 0.86487 0.11582 0.0
H2010 H 0.01768 0.8123 0.16069 0.0
H2011 H 0.98599 0.80251 0.15624 0.0
C2012 C 0.90143 0.80039 0.26322 0.0
C2013 C 0.9071 0.78294 0.2744 0.0
C2014 C 0.90916 0.8093 0.22826 0.0
C2015 C 0.92291 0.80105 0.20449 0.0
C2016 C 0.92905 0.78395 0.2167 0.0
C2017 C 0.92111 0.77491 0.25094 0.0
C2018 C 0.93061 0.80981 0.16597 0.0
C2019 C 0.94882 0.81477 0.16632 0.0
C2020 C 0.92026 0.81277 0.1287 0.0
C2021 C 0.90103 0.80756 0.12628 0.0
C2022 C 0.89575 0.78959 0.13278 0.0
C2023 C 0.87756 0.78481 0.13082 0.0
C2024 C 0.86453 0.79788 0.12201 0.0
C2025 C 0.86969 0.81573 0.11502 0.0
C2026 C 0.88786 0.82058 0.11702 0.0
C2027 C 0.98078 0.82759 0.00202 0.0
C2028 C 0.97489 0.8429 0.97961 0.0
C2029 C 0.97117 0.82117 0.0371 0.0
C2030 C 0.95567 0.83015 0.05139 0.0
C2031 C 0.94911 0.84481 0.02757 0.0
C2032 C 0.95862 0.85111 0.99185 0.0
C2033 C 0.94693 0.82453 0.09212 0.0
C2034 C 0.92852 0.82017 0.09231 0.0
C2035 C 0.95705 0.82236 0.1302 0.0
C2036 C 0.97614 0.82824 0.13341 0.0
C2037 C 0.98111 0.84591 0.12229 0.0
C2038 C 0.99912 0.85129 0.12464 0.0
C2039 C 0.01229 0.83918 0.13846 0.0
C2040 C 0.00746 0.82166 0.14998 0.0
C2041 C 0.98947 0.81619 0.14758 0.0
H2042 H 0.02622 0.84338 0.14034 0.0
H2043 H 0.85045 0.79416 0.12049 0.0
H2044 H 0.92054 0.18939 0.70824 0.0
H2045 H 0.93477 0.17232 0.76598 0.0
H2046 H 0.93785 0.2206 0.842 0.0
H2047 H 0.92423 0.23779 0.78422 0.0
H2048 H 0.96697 0.20288 0.85355 0.0
H2049 H 0.90444 0.18732 0.85687 0.0
H2050 H 0.87558 0.17636 0.8278 0.0
H2051 H 0.89959 0.12501 0.80098 0.0
H2052 H 0.92867 0.13575 0.82941 0.0
H2053 H 0.95749 0.13607 0.04708 0.0
H2054 H 0.94377 0.15307 0.98834 0.0
H2055 H 0.99458 0.1532 0.92204 0.0
H2056 H 0.00849 0.13686 0.98079 0.0
H2057 H 0.93771 0.14741 0.90793 0.0
H2058 H 0.00025 0.1907 0.8635 0.0
H2059 H 0.02688 0.20396 0.89868 0.0
H2060 H 0.99915 0.20367 0.01869 0.0
H2061 H 0.97221 0.19087 0.98412 0.0
C2062 C 0.92439 0.19642 0.73709 0.0
C2063 C 0.92114 0.215 0.74146 0.0
C2064 C 0.93243 0.18659 0.7703 0.0
C2065 C 0.93714 0.19505 0.80889 0.0
C2066 C 0.93436 0.21368 0.81274 0.0
C2067 C 0.92651 0.22352 0.77952 0.0
C2068 C 0.94472 0.18459 0.84557 0.0
C2069 C 0.96058 0.19072 0.86527 0.0
C2070 C 0.93623 0.16892 0.86183 0.0
C2071 C 0.91877 0.1624 0.84487 0.0
C2072 C 0.90359 0.17373 0.8445 0.0
C2073 C 0.88719 0.16755 0.82818 0.0
C2074 C 0.88577 0.15001 0.81245 0.0
C2075 C 0.90073 0.1386 0.81312 0.0
C2076 C 0.91716 0.14472 0.82936 0.0
C2077 C 0.96574 0.13975 0.01999 0.0
C2078 C 0.98414 0.13522 0.01899 0.0
C2079 C 0.95787 0.14943 0.98631 0.0
C2080 C 0.96819 0.15473 0.95085 0.0
C2081 C 0.98641 0.14971 0.94934 0.0
C2082 C 0.99433 0.14026 0.98306 0.0
C2083 C 0.96008 0.16559 0.91554 0.0
C2084 C 0.94413 0.15954 0.89609 0.0
C2085 C 0.96821 0.18163 0.90028 0.0
C2086 C 0.98427 0.18963 0.92124 0.0
C2087 C -0.0002 0.19355 0.89735 0.0
C2088 C 0.01495 0.20098 0.91719 0.0
C2089 C 0.01474 0.20453 0.96091 0.0
C2090 C 0.99933 0.20082 0.98485 0.0
C2091 C 0.9841 0.1935 0.96514 0.0
H2092 H 0.02651 0.21022 0.97621 0.0
H2093 H 0.87306 0.14525 0.79983 0.0
H2094 H 0.57013 0.13154 0.45426 0.0
H2095 H 0.5863 0.14394 0.51603 0.0
H2096 H 0.53978 0.17578 0.54857 0.0
H2097 H 0.52338 0.16311 0.48785 0.0
H2098 H 0.57631 0.19421 0.54753 0.0
H2099 H 0.54364 0.14261 0.60373 0.0
H2100 H 0.5353 0.11048 0.60393 0.0
H2101 H 0.59071 0.09582 0.62217 0.0
H2102 H 0.59942 0.12789 0.62135 0.0
H2103 H 0.59563 0.22768 0.74998 0.0
H2104 H 0.58069 0.21312 0.6899 0.0
H2105 H 0.61893 0.16941 0.69596 0.0
H2106 H 0.63324 0.18351 0.75813 0.0
H2107 H 0.58857 0.15607 0.67425 0.0
H2108 H 0.62218 0.20599 0.62174 0.0
H2109 H 0.63249 0.23751 0.61809 0.0
H2110 H 0.57878 0.25477 0.58793 0.0
H2111 H 0.56809 0.22337 0.59202 0.0
C2112 C 0.5634 0.14128 0.47441 0.0
C2113 C 0.54547 0.14633 0.46621 0.0
C2114 C 0.57263 0.14829 0.50972 0.0
C2115 C 0.5642 0.16073 0.53686 0.0
C2116 C 0.54651 0.1662 0.528 0.0
C2117 C 0.53716 0.15891 0.49335 0.0
C2118 C 0.57362 0.16785 0.57506 0.0
C2119 C 0.57888 0.18596 0.57544 0.0
C2120 C 0.57747 0.15688 0.61077 0.0
C2121 C 0.57221 0.13763 0.61195 0.0
C2122 C 0.55407 0.13253 0.60738 0.0
C2123 C 0.54927 0.11433 0.60768 0.0
C2124 C 0.56247 0.10111 0.6129 0.0
C2125 C 0.5805 0.10607 0.61803 0.0
C2126 C 0.58537 0.12426 0.61767 0.0
C2127 C 0.60072 0.21486 0.7388 0.0
C2128 C 0.61569 0.2068 0.7585 0.0
C2129 C 0.59227 0.20659 0.70415 0.0
C2130 C 0.59901 0.19041 0.68721 0.0
C2131 C 0.61352 0.18195 0.70803 0.0
C2132 C 0.62171 0.19001 0.74358 0.0
C2133 C 0.59113 0.18268 0.64733 0.0
C2134 C 0.58617 0.16441 0.64643 0.0
C2135 C 0.58788 0.19344 0.61066 0.0
C2136 C 0.59431 0.21233 0.60752 0.0
C2137 C 0.61255 0.21652 0.61454 0.0
C2138 C 0.61846 0.23436 0.61239 0.0
C2139 C 0.60629 0.24814 0.60288 0.0
C2140 C 0.58819 0.24409 0.59534 0.0
C2141 C 0.5822 0.22627 0.59752 0.0
H2142 H 0.61089 0.26195 0.60128 0.0
H2143 H 0.55874 0.08702 0.6131 0.0
H2144 H 0.96684 0.62461 0.98355 0.0
H2145 H 0.94663 0.62565 0.04448 0.0
H2146 H 0.95301 0.68338 0.05074 0.0
H2147 H 0.97404 0.68232 0.99096 0.0
H2148 H 0.95899 0.66955 0.12443 0.0
H2149 H 0.91311 0.66129 0.01633 0.0
H2150 H 0.89804 0.6458 0.95661 0.0
H2151 H 0.89161 0.59845 0.03372 0.0
H2152 H 0.90685 0.61362 0.09376 0.0
H2153 H 0.87254 0.699 0.20128 0.0
H2154 H 0.88646 0.67775 0.15306 0.0
H2155 H 0.92143 0.65931 0.25408 0.0
H2156 H 0.90802 0.68139 0.30249 0.0
H2157 H 0.89697 0.64513 0.13551 0.0
H2158 H 0.96323 0.66022 0.21781 0.0
H2159 H 0.97623 0.68059 0.27196 0.0
H2160 H 0.93885 0.722 0.2357 0.0
H2161 H 0.92579 0.70191 0.18111 0.0
C2162 C 0.96369 0.63759 0.99738 0.0
C2163 C 0.97211 0.65342 0.98282 0.0
C2164 C 0.95208 0.63813 0.03217 0.0
C2165 C 0.94837 0.65455 0.05217 0.0
C2166 C 0.95589 0.67052 0.03594 0.0
C2167 C 0.96779 0.66994 0.00171 0.0
C2168 C 0.93783 0.65514 0.09194 0.0
C2169 C 0.94547 0.66407 0.12687 0.0
C2170 C 0.92037 0.64764 0.09546 0.0
C2171 C 0.91133 0.6385 0.05931 0.0
C2172 C 0.90863 0.64752 0.0204 0.0
C2173 C 0.90003 0.63881 0.98653 0.0
C2174 C 0.89393 0.62113 0.99131 0.0
C2175 C 0.89638 0.61213 0.03003 0.0
C2176 C 0.905 0.62078 0.06398 0.0
C2177 C 0.88289 0.69015 0.21368 0.0
C2178 C 0.88983 0.6924 0.25496 0.0
C2179 C 0.89067 0.67777 0.18614 0.0
C2180 C 0.90538 0.6674 0.19967 0.0
C2181 C 0.91036 0.66756 0.24287 0.0
C2182 C 0.90279 0.68024 0.27036 0.0
C2183 C 0.91775 0.66049 0.16676 0.0
C2184 C 0.91069 0.6501 0.13334 0.0
C2185 C 0.93551 0.66729 0.16368 0.0
C2186 C 0.94342 0.67951 0.19594 0.0
C2187 C 0.95783 0.67368 0.22144 0.0
C2188 C 0.9652 0.68517 0.25215 0.0
C2189 C 0.95832 0.70255 0.25739 0.0
C2190 C 0.94413 0.70852 0.23172 0.0
C2191 C 0.93676 0.69711 0.20087 0.0
H2192 H 0.96401 0.7114 0.28125 0.0
H2193 H 0.88727 0.61441 0.96507 0.0
H2194 H 0.64149 0.71191 0.32681 0.0
H2195 H 0.63749 0.68906 0.3808 0.0
H2196 H 0.62352 0.65022 0.28375 0.0
H2197 H 0.62671 0.67362 0.2291 0.0
H2198 H 0.59934 0.65005 0.33884 0.0
H2199 H 0.66137 0.64385 0.35372 0.0
H2200 H 0.69345 0.65217 0.35739 0.0
H2201 H 0.68385 0.68161 0.4729 0.0
H2202 H 0.65166 0.67375 0.46965 0.0
H2203 H 0.5695 0.60914 0.52661 0.0
H2204 H 0.59438 0.61161 0.47643 0.0
H2205 H 0.5967 0.66886 0.49808 0.0
H2206 H 0.57141 0.66668 0.54776 0.0
H2207 H 0.63265 0.64682 0.47595 0.0
H2208 H 0.56911 0.66217 0.43087 0.0
H2209 H 0.53713 0.65313 0.42777 0.0
H2210 H 0.55195 0.60356 0.36675 0.0
H2211 H 0.58407 0.61215 0.37057 0.0
C2212 C 0.63785 0.69844 0.31675 0.0
C2213 C 0.63413 0.69459 0.27388 0.0
C2214 C 0.63587 0.68524 0.34771 0.0
C2215 C 0.63055 0.66775 0.33641 0.0
C2216 C 0.62775 0.66359 0.29318 0.0
C2217 C 0.62944 0.67696 0.26209 0.0
C2218 C 0.62469 0.65527 0.37045 0.0
C2219 C 0.607 0.64871 0.36814 0.0
C2220 C 0.63459 0.65339 0.40891 0.0
C2221 C 0.65402 0.65815 0.41143 0.0
C2222 C 0.66606 0.65217 0.37983 0.0
C2223 C 0.68428 0.65681 0.38184 0.0
C2224 C 0.69069 0.6674 0.41537 0.0
C2225 C 0.67888 0.67336 0.447 0.0
C2226 C 0.66063 0.66877 0.44515 0.0
C2227 C 0.57561 0.62222 0.52175 0.0
C2228 C 0.5682 0.63785 0.54015 0.0
C2229 C 0.58997 0.62351 0.49343 0.0
C2230 C 0.59723 0.64038 0.48373 0.0
C2231 C 0.59126 0.65571 0.50567 0.0
C2232 C 0.57669 0.65448 0.53357 0.0
C2233 C 0.60736 0.64282 0.44404 0.0
C2234 C 0.62561 0.64741 0.44567 0.0
C2235 C 0.5982 0.64262 0.40461 0.0
C2236 C 0.57892 0.63769 0.40138 0.0
C2237 C 0.56553 0.6493 0.41704 0.0
C2238 C 0.5474 0.64428 0.41513 0.0
C2239 C 0.54251 0.6278 0.39703 0.0
C2240 C 0.55575 0.61631 0.3808 0.0
C2241 C 0.57392 0.62123 0.38291 0.0
H2242 H 0.52847 0.62394 0.39555 0.0
H2243 H 0.7048 0.67099 0.41685 0.0
H2244 H 0.56724 0.32412 0.49532 0.0
H2245 H 0.58553 0.32534 0.55974 0.0
H2246 H 0.59775 0.38118 0.53565 0.0
H2247 H 0.57953 0.38012 0.4706 0.0
H2248 H 0.62713 0.36078 0.56996 0.0
H2249 H 0.56865 0.37707 0.60592 0.0
H2250 H 0.53546 0.37694 0.60373 0.0
H2251 H 0.53479 0.32324 0.6543 0.0
H2252 H 0.56797 0.3229 0.65615 0.0
H2253 H 0.62153 0.31008 0.79387 0.0
H2254 H 0.61448 0.33762 0.75425 0.0
H2255 H 0.64039 0.31535 0.64282 0.0
H2256 H 0.64795 0.28846 0.68226 0.0
H2257 H 0.59246 0.33871 0.69463 0.0
H2258 H 0.65347 0.34202 0.57209 0.0
H2259 H 0.68649 0.34426 0.57631 0.0
H2260 H 0.68266 0.3638 0.70475 0.0
H2261 H 0.64956 0.36201 0.7012 0.0
C2262 C 0.57411 0.33655 0.50309 0.0
C2263 C 0.57167 0.35209 0.47838 0.0
C2264 C 0.58446 0.33727 0.54001 0.0
C2265 C 0.59247 0.35351 0.55278 0.0
C2266 C 0.59141 0.36864 0.5264 0.0
C2267 C 0.58104 0.36795 0.48931 0.0
C2268 C 0.60097 0.35445 0.59507 0.0
C2269 C 0.61969 0.35626 0.59769 0.0
C2270 C 0.59092 0.34994 0.63175 0.0
C2271 C 0.57087 0.35 0.6313 0.0
C2272 C 0.56144 0.3652 0.61643 0.0
C2273 C 0.54261 0.3652 0.61523 0.0
C2274 C 0.53302 0.3501 0.62894 0.0
C2275 C 0.54224 0.33495 0.64383 0.0
C2276 C 0.56107 0.33486 0.64506 0.0
C2277 C 0.62604 0.31131 0.76116 0.0
C2278 C 0.635 0.29702 0.74084 0.0
C2279 C 0.62214 0.3271 0.73871 0.0
C2280 C 0.62709 0.32874 0.69567 0.0
C2281 C 0.63689 0.31479 0.67631 0.0
C2282 C 0.64093 0.29918 0.69873 0.0
C2283 C 0.61897 0.34272 0.66806 0.0
C2284 C 0.60011 0.34401 0.66803 0.0
C2285 C 0.62893 0.35064 0.63442 0.0
C2286 C 0.64892 0.35196 0.63628 0.0
C2287 C 0.65959 0.34703 0.60109 0.0
C2288 C 0.67836 0.34815 0.60343 0.0
C2289 C 0.68666 0.35419 0.64075 0.0
C2290 C 0.67621 0.35912 0.67585 0.0
C2291 C 0.65744 0.35802 0.67371 0.0
H2292 H 0.7012 0.35503 0.64249 0.0
H2293 H 0.51845 0.35016 0.62808 0.0
H2294 H 0.94059 0.38695 0.02766 0.0
H2295 H 0.91735 0.38282 0.97292 0.0
H2296 H 0.95793 0.38812 0.87502 0.0
H2297 H 0.98062 0.39365 0.92909 0.0
H2298 H 0.92807 0.39752 0.84217 0.0
H2299 H 0.94746 0.34565 0.93082 0.0
H2300 H 0.95015 0.32957 -0.00055 0.0
H2301 H 0.89293 0.33325 0.01739 0.0
H2302 H 0.88997 0.34949 0.94897 0.0
H2303 H 0.94081 0.31829 0.72597 0.0
H2304 H 0.93914 0.34572 0.76899 0.0
H2305 H 0.88273 0.33609 0.79219 0.0
H2306 H 0.88412 0.30892 0.74888 0.0
H2307 H 0.90569 0.33533 0.86434 0.0
H2308 H 0.89041 0.37411 0.75141 0.0
H2309 H 0.89173 0.38715 0.67924 0.0
H2310 H 0.9458 0.40517 0.70233 0.0
H2311 H 0.94494 0.39199 0.7744 0.0
C2312 C 0.94434 0.38767 0.99433 0.0
C2313 C 0.96238 0.39007 0.98237 0.0
C2314 C 0.9311 0.38538 0.96314 0.0
C2315 C 0.93599 0.38455 0.9199 0.0
C2316 C 0.95376 0.38861 0.9081 0.0
C2317 C 0.96682 0.39154 0.93909 0.0
C2318 C 0.92406 0.37616 0.88773 0.0
C2319 C 0.92297 0.38399 0.84698 0.0
C2320 C 0.9168 0.35874 0.89434 0.0
C2321 C 0.91853 0.34896 0.93527 0.0
C2322 C 0.93549 0.34306 0.94955 0.0
C2323 C 0.93705 0.33394 0.98836 0.0
C2324 C 0.92173 0.33045 0.01284 0.0
C2325 C 0.90479 0.33602 0.99847 0.0
C2326 C 0.90316 0.34519 0.95971 0.0
C2327 C 0.92798 0.32224 0.73942 0.0
C2328 C 0.91273 0.31127 0.73484 0.0
C2329 C 0.92697 0.33802 0.76345 0.0
C2330 C 0.91075 0.34291 0.78336 0.0
C2331 C 0.89527 0.3326 0.77661 0.0
C2332 C 0.8962 0.31698 0.75221 0.0
C2333 C 0.91122 0.3561 0.81829 0.0
C2334 C 0.90996 0.34918 0.85968 0.0
C2335 C 0.91693 0.374 0.8118 0.0
C2336 C 0.91759 0.38202 0.76844 0.0
C2337 C 0.90263 0.38075 0.74104 0.0
C2338 C 0.9033 0.38819 0.70013 0.0
C2339 C 0.91884 0.39699 0.68621 0.0
C2340 C 0.93376 0.39837 0.71319 0.0
C2341 C 0.93317 0.39095 0.75414 0.0
H2342 H 0.91933 0.40274 0.65452 0.0
H2343 H 0.92297 0.32338 0.04289 0.0
H2344 H 0.12208 0.27158 0.78169 0.0
H2345 H 0.10871 0.28786 0.84101 0.0
H2346 H 0.08247 0.32391 0.75267 0.0
H2347 H 0.09688 0.30814 0.6928 0.0
H2348 H 0.09217 0.34252 0.81657 0.0
H2349 H 0.06008 0.28717 0.80713 0.0
H2350 H 0.05575 0.25431 0.80277 0.0
H2351 H 0.08109 0.24775 0.92488 0.0
H2352 H 0.08579 0.28057 0.92974 0.0
H2353 H 0.02505 0.36963 0.96876 0.0
H2354 H 0.04033 0.35537 0.90858 0.0
H2355 H 0.0797 0.33274 0.99421 0.0
H2356 H 0.06468 0.34736 0.05487 0.0
H2357 H 0.06259 0.30769 0.93197 0.0
H2358 H 0.09345 0.36494 0.93855 0.0
H2359 H 0.09477 0.39809 0.94085 0.0
H2360 H 0.06751 0.40099 0.82026 0.0
H2361 H 0.06578 0.36784 0.81755 0.0
C2362 C 0.11346 0.28299 0.77478 0.0
C2363 C 0.11036 0.28843 0.73245 0.0
C2364 C 0.10568 0.29225 0.80886 0.0
C2365 C 0.09403 0.30684 0.80164 0.0
C2366 C 0.09126 0.31262 0.75931 0.0
C2367 C 0.09946 0.30359 0.72505 0.0
C2368 C 0.08489 0.31596 0.83835 0.0
C2369 C 0.0855 0.33484 0.84138 0.0
C2370 C 0.07626 0.30609 0.87136 0.0
C2371 C 0.07343 0.28633 0.86861 0.0
C2372 C 0.06484 0.27871 0.83292 0.0
C2373 C 0.06231 0.26009 0.83038 0.0
C2374 C 0.06818 0.24895 0.86348 0.0
C2375 C 0.07657 0.2564 0.89925 0.0
C2376 C 0.07915 0.27502 0.90193 0.0
C2377 C 0.03699 0.36166 0.97492 0.0
C2378 C 0.04362 0.35962 0.01675 0.0
C2379 C 0.04573 0.35356 0.94039 0.0
C2380 C 0.06117 0.34302 0.94686 0.0
C2381 C 0.06781 0.34084 0.98853 0.0
C2382 C 0.05925 0.34924 0.02312 0.0
C2383 C 0.07009 0.33406 0.91005 0.0
C2384 C 0.06933 0.31524 0.90703 0.0
C2385 C 0.07816 0.34399 0.87663 0.0
C2386 C 0.07933 0.36391 0.87806 0.0
C2387 C 0.08759 0.37265 0.9127 0.0
C2388 C 0.08845 0.39144 0.91404 0.0
C2389 C 0.08118 0.40165 0.88078 0.0
C2390 C 0.07311 0.39307 0.84603 0.0
C2391 C 0.0722 0.37428 0.84456 0.0
H2392 H 0.08185 0.41619 0.88188 0.0
H2393 H 0.0662 0.23453 0.86146 0.0
H2394 H 0.39228 0.27801 0.71286 0.0
H2395 H 0.41014 0.29039 0.65459 0.0
H2396 H 0.44745 0.31302 0.74571 0.0
H2397 H 0.4286 0.30168 0.80434 0.0
H2398 H 0.44547 0.33496 0.68577 0.0
H2399 H 0.45539 0.27231 0.68573 0.0
H2400 H 0.44823 0.2399 0.6867 0.0
H2401 H 0.42208 0.24472 0.56512 0.0
H2402 H 0.42873 0.27725 0.56378 0.0
H2403 H 0.51004 0.34773 0.51905 0.0
H2404 H 0.49559 0.33398 0.58103 0.0
H2405 H 0.44695 0.3262 0.5083 0.0
H2406 H 0.46123 0.34001 0.44596 0.0
H2407 H 0.45831 0.29562 0.5616 0.0
H2408 H 0.44814 0.36099 0.57169 0.0
H2409 H 0.45968 0.39214 0.57333 0.0
H2410 H 0.49299 0.37909 0.68099 0.0
H2411 H 0.48173 0.34783 0.67975 0.0
C2412 C 0.4042 0.28583 0.72035 0.0
C2413 C 0.40914 0.2889 0.76289 0.0
C2414 C 0.41455 0.29271 0.68704 0.0
C2415 C 0.43058 0.30215 0.69543 0.0
C2416 C 0.43526 0.30568 0.73818 0.0
C2417 C 0.42451 0.29924 0.77169 0.0
C2418 C 0.44224 0.30831 0.65944 0.0
C2419 C 0.44847 0.32618 0.65909 0.0
C2420 C 0.44643 0.29694 0.62437 0.0
C2421 C 0.44245 0.2773 0.62484 0.0
C2422 C 0.44799 0.26651 0.65933 0.0
C2423 C 0.44403 0.2481 0.65995 0.0
C2424 C 0.43468 0.24027 0.62604 0.0
C2425 C 0.4293 0.25082 0.5914 0.0
C2426 C 0.43317 0.26925 0.59069 0.0
C2427 C 0.49631 0.34298 0.51598 0.0
C2428 C 0.48676 0.3451 0.47746 0.0
C2429 C 0.48808 0.33515 0.55155 0.0
C2430 C 0.47017 0.3292 0.54933 0.0
C2431 C 0.46079 0.33071 0.51063 0.0
C2432 C 0.46895 0.33868 0.47509 0.0
C2433 C 0.46092 0.3222 0.58788 0.0
C2434 C 0.45529 0.30419 0.58865 0.0
C2435 C 0.45787 0.33318 0.62397 0.0
C2436 C 0.46416 0.3521 0.62551 0.0
C2437 C 0.45795 0.36478 0.59565 0.0
C2438 C 0.46443 0.38245 0.59652 0.0
C2439 C 0.47707 0.38759 0.62723 0.0
C2440 C 0.48318 0.3751 0.65726 0.0
C2441 C 0.47672 0.35742 0.65656 0.0
H2442 H 0.48211 0.40126 0.62779 0.0
H2443 H 0.43163 0.22602 0.62657 0.0
H2444 H 0.4954 0.63361 0.46921 0.0
H2445 H 0.48217 0.6496 0.40906 0.0
H2446 H 0.44449 0.67552 0.49404 0.0
H2447 H 0.4569 0.65833 0.55398 0.0
H2448 H 0.42741 0.66807 0.42842 0.0
H2449 H 0.48455 0.69708 0.44568 0.0
H2450 H 0.51757 0.69911 0.45294 0.0
H2451 H 0.52416 0.67491 0.32966 0.0
H2452 H 0.49117 0.6726 0.3218 0.0
H2453 H 0.40608 0.74013 0.28548 0.0
H2454 H 0.41949 0.7229 0.34385 0.0
H2455 H 0.43967 0.68394 0.25402 0.0
H2456 H 0.42591 0.70093 0.19516 0.0
H2457 H 0.46559 0.69815 0.31998 0.0
H2458 H 0.40676 0.67081 0.30515 0.0
H2459 H 0.37363 0.67155 0.3001 0.0
H2460 H 0.37058 0.69639 0.42347 0.0
H2461 H 0.40373 0.69604 0.42897 0.0
C2462 C 0.48434 0.64279 0.4751 0.0
C2463 C 0.47726 0.64482 0.51637 0.0
C2464 C 0.47684 0.65208 0.44063 0.0
C2465 C 0.46256 0.66424 0.44678 0.0
C2466 C 0.45551 0.6663 0.48818 0.0
C2467 C 0.46264 0.65653 0.52253 0.0
C2468 C 0.45469 0.67438 0.40996 0.0
C2469 C 0.43585 0.67485 0.40522 0.0
C2470 C 0.46554 0.68306 0.37882 0.0
C2471 C 0.48539 0.68455 0.3833 0.0
C2472 C 0.49304 0.69212 0.4202 0.0
C2473 C 0.51175 0.69335 0.42439 0.0
C2474 C 0.52295 0.68716 0.39176 0.0
C2475 C 0.51547 0.67974 0.35486 0.0
C2476 C 0.49676 0.67849 0.35049 0.0
C2477 C 0.41337 0.7279 0.27801 0.0
C2478 C 0.41494 0.72191 0.23559 0.0
C2479 C 0.42099 0.71806 0.31146 0.0
C2480 C 0.43055 0.70216 0.30324 0.0
C2481 C 0.43235 0.69621 0.26097 0.0
C2482 C 0.42443 0.70588 0.22744 0.0
C2483 C 0.43853 0.69178 0.33904 0.0
C2484 C 0.45732 0.69133 0.34345 0.0
C2485 C 0.42767 0.6835 0.37038 0.0
C2486 C 0.40773 0.68355 0.36728 0.0
C2487 C 0.39903 0.67657 0.33104 0.0
C2488 C 0.38025 0.67689 0.32813 0.0
C2489 C 0.37001 0.68405 0.3614 0.0
C2490 C 0.37853 0.69086 0.39771 0.0
C2491 C 0.39731 0.69059 0.40075 0.0
H2492 H 0.35546 0.68429 0.35908 0.0
H2493 H 0.53743 0.68809 0.3951 0.0
H2494 H 0.13311 0.69896 0.26043 0.0
H2495 H 0.11982 0.6854 0.19667 0.0
H2496 H 0.0926 0.73523 0.16832 0.0
H2497 H 0.10626 0.74916 0.23156 0.0
H2498 H 0.07104 0.69988 0.16425 0.0
H2499 H 0.12436 0.72985 0.11184 0.0
H2500 H 0.15675 0.73713 0.11232 0.0
H2501 H 0.16963 0.68135 0.09334 0.0
H2502 H 0.13727 0.67369 0.09349 0.0
H2503 H 0.03914 0.67747 0.9614 0.0
H2504 H 0.05382 0.69395 0.01904 0.0
H2505 H 0.09578 0.65378 0.0238 0.0
H2506 H 0.08152 0.63773 0.96424 0.0
H2507 H 0.10999 0.68474 0.0408 0.0
H2508 H 0.05793 0.65391 0.09333 0.0
H2509 H 0.02589 0.64518 0.09528 0.0
H2510 H 0.01083 0.70014 0.11805 0.0
H2511 H 0.04278 0.70926 0.1156 0.0
C2512 C 0.1242 0.70705 0.24086 0.0
C2513 C 0.12075 0.72517 0.25115 0.0
C2514 C 0.11667 0.69927 0.20436 0.0
C2515 C 0.10528 0.70933 0.17778 0.0
C2516 C 0.10136 0.72725 0.18849 0.0
C2517 C 0.1092 0.73518 0.22457 0.0
C2518 C 0.09781 0.70114 0.13837 0.0
C2519 C 0.07945 0.6968 0.13693 0.0
C2520 C 0.10895 0.69662 0.10344 0.0
C2521 C 0.1284 0.70118 0.10311 0.0
C2522 C 0.1341 0.71911 0.10821 0.0
C2523 C 0.15245 0.72331 0.10828 0.0
C2524 C 0.16524 0.7097 0.10292 0.0
C2525 C 0.1597 0.69187 0.09751 0.0
C2526 C 0.14136 0.68759 0.09749 0.0
C2527 C 0.05169 0.67234 0.97419 0.0
C2528 C 0.05915 0.65627 0.95848 0.0
C2529 C 0.06 0.68169 0.00748 0.0
C2530 C 0.07562 0.67484 0.02693 0.0
C2531 C 0.08365 0.6593 0.00968 0.0
C2532 C 0.07554 0.65014 0.97554 0.0
C2533 C 0.08305 0.68349 0.0662 0.0
C2534 C 0.10146 0.68784 0.06787 0.0
C2535 C 0.07197 0.68778 0.10171 0.0
C2536 C 0.05275 0.68229 0.10387 0.0
C2537 C 0.04778 0.66415 0.09851 0.0
C2538 C 0.02964 0.65914 0.09972 0.0
C2539 C 0.01633 0.67211 0.10666 0.0
C2540 C 0.02115 0.69012 0.1126 0.0
C2541 C 0.03928 0.69521 0.11134 0.0
H2542 H 0.00229 0.6682 0.10751 0.0
H2543 H 0.17943 0.713 0.10277 0.0
loop_
_geom_bond_atom_site_label_1
_geom_bond_atom_site_label_2
_geom_bond_distance
_geom_bond_site_symmetry_2
_ccdc_geom_bond_type
Co0 O3 1.970 . S
Co0 N17 1.989 . S
Co0 O25 1.967 . S
Co0 O32 1.920 . S
Co1 O4 1.966 . S
Co1 N10 2.022 . S
Co1 N18 1.993 . S
Co1 O26 1.941 . S
C2 O3 1.258 . S
C2 O4 1.263 . S
O3 Co0 1.970 . S
O3 C2 1.258 . S
O4 Co1 1.966 . S
O4 C2 1.263 . S
C5 O6 1.235 . S
C5 O32 1.289 . S
O6 C5 1.235 . S
C7 C9 1.400 . S
C7 N10 1.351 . S
C7 C12 1.501 . S
C8 C9 1.387 . S
C8 N11 1.341 . S
C9 C7 1.400 . S
C9 C8 1.387 . S
N10 Co1 2.022 . S
N10 C7 1.351 . S
N10 N11 1.365 . S
N11 C8 1.341 . S
N11 N10 1.365 . S
N11 H31 0.862 . S
C12 C7 1.501 . S
C12 H13 0.961 . S
C12 H14 0.961 . S
C12 H15 0.960 . S
H13 C12 0.961 . S
H14 C12 0.961 . S
H15 C12 0.960 . S
C16 N17 1.342 . S
C16 C20 1.401 . S
C16 C21 1.499 . S
N17 Co0 1.989 . S
N17 C16 1.342 . S
N17 N18 1.388 . S
N18 Co1 1.993 . S
N18 N17 1.388 . S
N18 C19 1.346 . S
C19 N18 1.346 . S
C19 C20 1.396 . S
C19 C29 1.510 . S
C20 C16 1.401 . S
C20 C19 1.396 . S
C21 C16 1.499 . S
C21 H22 0.959 . S
C21 H23 0.960 . S
C21 H24 0.961 . S
H22 C21 0.959 . S
H23 C21 0.960 . S
H24 C21 0.961 . S
O25 Co0 1.967 . S
O25 C33 1.258 . S
O26 Co1 1.941 . S
O26 C33 1.266 . S
H27 C29 0.959 . S
H28 C29 0.961 . S
C29 C19 1.510 . S
C29 H27 0.959 . S
C29 H28 0.961 . S
C29 H30 0.960 . S
H30 C29 0.960 . S
H31 N11 0.862 . S
O32 Co0 1.920 . S
O32 C5 1.289 . S
C33 O25 1.258 . S
C33 O26 1.266 . S
Co34 O37 1.970 . S
Co34 N51 1.989 . S
Co34 O59 1.967 . S
Co34 O66 1.920 . S
Co35 O38 1.966 . S
Co35 N44 2.022 . S
Co35 N52 1.993 . S
Co35 O60 1.941 . S
C36 O37 1.258 . S
C36 O38 1.263 . S
O37 Co34 1.970 . S
O37 C36 1.258 . S
O38 Co35 1.966 . S
O38 C36 1.263 . S
C39 O40 1.235 . S
C39 O66 1.289 . S
O40 C39 1.235 . S
C41 C43 1.400 . S
C41 N44 1.351 . S
C41 C46 1.501 . S
C42 C43 1.387 . S
C42 N45 1.341 . S
C43 C41 1.400 . S
C43 C42 1.387 . S
N44 Co35 2.022 . S
N44 C41 1.351 . S
N44 N45 1.365 . S
N45 C42 1.341 . S
N45 N44 1.365 . S
N45 H65 0.862 . S
C46 C41 1.501 . S
C46 H47 0.961 . S
C46 H48 0.961 . S
C46 H49 0.960 . S
H47 C46 0.961 . S
H48 C46 0.961 . S
H49 C46 0.960 . S
C50 N51 1.342 . S
C50 C54 1.401 . S
C50 C55 1.499 . S
N51 Co34 1.989 . S
N51 C50 1.342 . S
N51 N52 1.388 . S
N52 Co35 1.993 . S
N52 N51 1.388 . S
N52 C53 1.346 . S
C53 N52 1.346 . S
C53 C54 1.396 . S
C53 C63 1.510 . S
C54 C50 1.401 . S
C54 C53 1.396 . S
C55 C50 1.499 . S
C55 H56 0.959 . S
C55 H57 0.960 . S
C55 H58 0.961 . S
H56 C55 0.959 . S
H57 C55 0.960 . S
H58 C55 0.961 . S
O59 Co34 1.967 . S
O59 C67 1.258 . S
O60 Co35 1.941 . S
O60 C67 1.266 . S
H61 C63 0.959 . S
H62 C63 0.961 . S
C63 C53 1.510 . S
C63 H61 0.959 . S
C63 H62 0.961 . S
C63 H64 0.960 . S
H64 C63 0.960 . S
H65 N45 0.862 . S
O66 Co34 1.920 . S
O66 C39 1.289 . S
C67 O59 1.258 . S
C67 O60 1.266 . S
Co68 O71 1.970 . S
Co68 N85 1.989 . S
Co68 O93 1.967 . S
Co68 O100 1.920 . S
Co69 O72 1.966 . S
Co69 N78 2.022 . S
Co69 N86 1.993 1_655 S
Co69 O94 1.938 1_655 S
C70 O71 1.258 1_655 S
C70 O72 1.263 . S
O71 Co68 1.970 . S
O71 C70 1.258 1_455 S
O72 Co69 1.966 . S
O72 C70 1.263 . S
C73 O74 1.235 . S
C73 O100 1.289 . S
O74 C73 1.235 . S
C75 C77 1.400 . S
C75 N78 1.351 . S
C75 C80 1.501 . S
C76 C77 1.387 . S
C76 N79 1.341 . S
C77 C75 1.400 . S
C77 C76 1.387 . S
N78 Co69 2.022 . S
N78 C75 1.351 . S
N78 N79 1.365 . S
N79 C76 1.341 . S
N79 N78 1.365 . S
N79 H99 0.862 . S
C80 C75 1.501 . S
C80 H81 0.961 . S
C80 H82 0.961 . S
C80 H83 0.960 . S
H81 C80 0.961 . S
H82 C80 0.961 . S
H83 C80 0.960 . S
C84 N85 1.342 . S
C84 C88 1.401 . S
C84 C89 1.499 . S
N85 Co68 1.989 . S
N85 C84 1.342 . S
N85 N86 1.388 . S
N86 Co69 1.993 1_455 S
N86 N85 1.388 . S
N86 C87 1.346 . S
C87 N86 1.346 . S
C87 C88 1.396 . S
C87 C97 1.510 . S
C88 C84 1.401 . S
C88 C87 1.396 . S
C89 C84 1.499 . S
C89 H90 0.959 . S
C89 H91 0.960 . S
C89 H92 0.961 . S
H90 C89 0.959 . S
H91 C89 0.960 . S
H92 C89 0.961 . S
O93 Co68 1.967 . S
O93 C101 1.258 . S
O94 Co69 1.938 1_455 S
O94 C101 1.286 . S
H95 C97 0.959 . S
H96 C97 0.961 . S
C97 C87 1.510 . S
C97 H95 0.959 . S
C97 H96 0.961 . S
C97 H98 0.960 . S
H98 C97 0.960 . S
H99 N79 0.862 . S
O100 Co68 1.920 . S
O100 C73 1.289 . S
C101 O93 1.258 . S
C101 O94 1.286 . S
Co102 O105 1.970 . S
Co102 N119 1.989 . S
Co102 O127 1.967 . S
Co102 O134 1.920 . S
Co103 O106 1.966 . S
Co103 N112 2.022 . S
Co103 N120 1.993 . S
Co103 O128 1.941 . S
C104 O105 1.258 . S
C104 O106 1.263 . S
O105 Co102 1.970 . S
O105 C104 1.258 . S
O106 Co103 1.966 . S
O106 C104 1.263 . S
C107 O108 1.235 . S
C107 O134 1.289 . S
O108 C107 1.235 . S
C109 C111 1.400 . S
C109 N112 1.351 . S
C109 C114 1.501 . S
C110 C111 1.387 1_556 S
C110 N113 1.341 1_556 S
C111 C109 1.400 . S
C111 C110 1.387 1_554 S
N112 Co103 2.022 . S
N112 C109 1.351 . S
N112 N113 1.365 . S
N113 C110 1.341 1_554 S
N113 N112 1.365 . S
N113 H133 0.862 . S
C114 C109 1.501 . S
C114 H115 0.961 . S
C114 H116 0.961 . S
C114 H117 0.960 . S
H115 C114 0.961 . S
H116 C114 0.961 . S
H117 C114 0.960 . S
C118 N119 1.342 . S
C118 C122 1.401 . S
C118 C123 1.499 . S
N119 Co102 1.989 . S
N119 C118 1.342 . S
N119 N120 1.388 . S
N120 Co103 1.993 . S
N120 N119 1.388 . S
N120 C121 1.346 . S
C121 N120 1.346 . S
C121 C122 1.396 . S
C121 C131 1.510 . S
C122 C118 1.401 . S
C122 C121 1.396 . S
C123 C118 1.499 . S
C123 H124 0.959 . S
C123 H125 0.960 . S
C123 H126 0.961 . S
H124 C123 0.959 . S
H125 C123 0.960 . S
H126 C123 0.961 . S
O127 Co102 1.967 . S
O127 C135 1.258 . S
O128 Co103 1.941 . S
O128 C135 1.266 . S
H129 C131 0.959 1_556 S
H130 C131 0.963 . S
C131 C121 1.510 . S
C131 H129 0.959 1_554 S
C131 H130 0.963 . S
C131 H132 0.960 . S
H132 C131 0.960 . S
H133 N113 0.862 . S
O134 Co102 1.920 . S
O134 C107 1.289 . S
C135 O127 1.258 . S
C135 O128 1.266 . S
Co136 O139 1.970 . S
Co136 N153 1.989 . S
Co136 O161 1.967 . S
Co136 O168 1.920 . S
Co137 O140 1.966 . S
Co137 N146 2.022 . S
Co137 N154 1.993 . S
Co137 O162 1.941 . S
C138 O139 1.258 . S
C138 O140 1.263 . S
O139 Co136 1.970 . S
O139 C138 1.258 . S
O140 Co137 1.966 . S
O140 C138 1.263 . S
C141 O142 1.235 . S
C141 O168 1.289 . S
O142 C141 1.235 . S
C143 C145 1.400 . S
C143 N146 1.351 . S
C143 C148 1.501 . S
C144 C145 1.387 . S
C144 N147 1.341 . S
C145 C143 1.400 . S
C145 C144 1.387 . S
N146 Co137 2.022 . S
N146 C143 1.351 . S
N146 N147 1.365 . S
N147 C144 1.341 . S
N147 N146 1.365 . S
N147 H167 0.862 . S
C148 C143 1.501 . S
C148 H149 0.961 . S
C148 H150 0.961 . S
C148 H151 0.960 . S
H149 C148 0.961 . S
H150 C148 0.961 . S
H151 C148 0.960 . S
C152 N153 1.342 . S
C152 C156 1.401 . S
C152 C157 1.499 . S
N153 Co136 1.989 . S
N153 C152 1.342 . S
N153 N154 1.388 . S
N154 Co137 1.993 . S
N154 N153 1.388 . S
N154 C155 1.346 . S
C155 N154 1.346 . S
C155 C156 1.396 . S
C155 C165 1.510 . S
C156 C152 1.401 . S
C156 C155 1.396 . S
C157 C152 1.499 . S
C157 H158 0.959 . S
C157 H159 0.960 . S
C157 H160 0.961 . S
H158 C157 0.959 . S
H159 C157 0.960 . S
H160 C157 0.961 . S
O161 Co136 1.967 . S
O161 C169 1.258 . S
O162 Co137 1.941 . S
O162 C169 1.266 . S
H163 C165 0.959 . S
H164 C165 0.961 . S
C165 C155 1.510 . S
C165 H163 0.959 . S
C165 H164 0.961 . S
C165 H166 0.960 . S
H166 C165 0.960 . S
H167 N147 0.862 . S
O168 Co136 1.920 . S
O168 C141 1.289 . S
C169 O161 1.258 . S
C169 O162 1.266 . S
Co170 O173 1.970 . S
Co170 N187 1.989 . S
Co170 O195 1.967 . S
Co170 O202 1.920 . S
Co171 O174 1.966 . S
Co171 N180 2.022 . S
Co171 N188 1.993 . S
Co171 O196 1.941 . S
C172 O173 1.258 . S
C172 O174 1.263 . S
O173 Co170 1.970 . S
O173 C172 1.258 . S
O174 Co171 1.966 . S
O174 C172 1.263 . S
C175 O176 1.235 . S
C175 O202 1.289 . S
O176 C175 1.235 . S
C177 C179 1.400 . S
C177 N180 1.351 . S
C177 C182 1.501 . S
C178 C179 1.387 1_554 S
C178 N181 1.341 1_554 S
C179 C177 1.400 . S
C179 C178 1.387 1_556 S
N180 Co171 2.022 . S
N180 C177 1.351 . S
N180 N181 1.365 . S
N181 C178 1.341 1_556 S
N181 N180 1.365 . S
N181 H201 0.862 . S
C182 C177 1.501 . S
C182 H183 0.961 . S
C182 H184 0.961 . S
C182 H185 0.960 . S
H183 C182 0.961 . S
H184 C182 0.961 . S
H185 C182 0.960 . S
C186 N187 1.342 . S
C186 C190 1.401 . S
C186 C191 1.499 . S
N187 Co170 1.989 . S
N187 C186 1.342 . S
N187 N188 1.388 . S
N188 Co171 1.993 . S
N188 N187 1.388 . S
N188 C189 1.346 . S
C189 N188 1.346 . S
C189 C190 1.396 . S
C189 C199 1.510 . S
C190 C186 1.401 . S
C190 C189 1.396 . S
C191 C186 1.499 . S
C191 H192 0.959 . S
C191 H193 0.960 . S
C191 H194 0.961 . S
H192 C191 0.959 . S
H193 C191 0.960 . S
H194 C191 0.961 . S
O195 Co170 1.967 . S
O195 C203 1.258 . S
O196 Co171 1.941 . S
O196 C203 1.266 . S
H197 C199 0.959 1_554 S
H198 C199 0.963 . S
C199 C189 1.510 . S
C199 H197 0.959 1_556 S
C199 H198 0.963 . S
C199 H200 0.960 . S
H200 C199 0.960 . S
H201 N181 0.862 . S
O202 Co170 1.920 . S
O202 C175 1.289 . S
C203 O195 1.258 . S
C203 O196 1.266 . S
Co204 O207 1.970 . S
Co204 N221 1.989 . S
Co204 O229 1.967 . S
Co204 O236 1.920 . S
Co205 O208 1.966 . S
Co205 N214 2.022 . S
Co205 N222 1.993 1_655 S
Co205 O230 1.938 1_655 S
C206 O207 1.258 1_655 S
C206 O208 1.263 . S
O207 Co204 1.970 . S
O207 C206 1.258 1_455 S
O208 Co205 1.966 . S
O208 C206 1.263 . S
C209 O210 1.235 . S
C209 O236 1.289 . S
O210 C209 1.235 . S
C211 C213 1.400 . S
C211 N214 1.351 . S
C211 C216 1.501 . S
C212 C213 1.387 . S
C212 N215 1.341 . S
C213 C211 1.400 . S
C213 C212 1.387 . S
N214 Co205 2.022 . S
N214 C211 1.351 . S
N214 N215 1.365 . S
N215 C212 1.341 . S
N215 N214 1.365 . S
N215 H235 0.862 . S
C216 C211 1.501 . S
C216 H217 0.961 . S
C216 H218 0.961 . S
C216 H219 0.960 . S
H217 C216 0.961 . S
H218 C216 0.961 . S
H219 C216 0.960 . S
C220 N221 1.342 . S
C220 C224 1.401 . S
C220 C225 1.499 . S
N221 Co204 1.989 . S
N221 C220 1.342 . S
N221 N222 1.388 . S
N222 Co205 1.993 1_455 S
N222 N221 1.388 . S
N222 C223 1.346 . S
C223 N222 1.346 . S
C223 C224 1.396 . S
C223 C233 1.510 . S
C224 C220 1.401 . S
C224 C223 1.396 . S
C225 C220 1.499 . S
C225 H226 0.959 . S
C225 H227 0.960 . S
C225 H228 0.961 . S
H226 C225 0.959 . S
H227 C225 0.960 . S
H228 C225 0.961 . S
O229 Co204 1.967 . S
O229 C237 1.258 . S
O230 Co205 1.938 1_455 S
O230 C237 1.286 . S
H231 C233 0.959 . S
H232 C233 0.961 . S
C233 C223 1.510 . S
C233 H231 0.959 . S
C233 H232 0.961 . S
C233 H234 0.960 . S
H234 C233 0.960 . S
H235 N215 0.862 . S
O236 Co204 1.920 . S
O236 C209 1.289 . S
C237 O229 1.258 . S
C237 O230 1.286 . S
Co238 O241 1.970 . S
Co238 N255 1.989 . S
Co238 O263 1.967 . S
Co238 O270 1.920 . S
Co239 O242 1.966 . S
Co239 N248 2.022 . S
Co239 N256 1.993 . S
Co239 O264 1.941 . S
C240 O241 1.258 . S
C240 O242 1.263 . S
O241 Co238 1.970 . S
O241 C240 1.258 . S
O242 Co239 1.966 . S
O242 C240 1.263 . S
C243 O244 1.235 . S
C243 O270 1.289 . S
O244 C243 1.235 . S
C245 C247 1.400 . S
C245 N248 1.351 . S
C245 C250 1.501 . S
C246 C247 1.387 . S
C246 N249 1.341 . S
C247 C245 1.400 . S
C247 C246 1.387 . S
N248 Co239 2.022 . S
N248 C245 1.351 . S
N248 N249 1.365 . S
N249 C246 1.341 . S
N249 N248 1.365 . S
N249 H269 0.862 . S
C250 C245 1.501 . S
C250 H251 0.961 . S
C250 H252 0.961 . S
C250 H253 0.960 . S
H251 C250 0.961 . S
H252 C250 0.961 . S
H253 C250 0.960 . S
C254 N255 1.342 . S
C254 C258 1.401 . S
C254 C259 1.499 . S
N255 Co238 1.989 . S
N255 C254 1.342 . S
N255 N256 1.388 . S
N256 Co239 1.993 . S
N256 N255 1.388 . S
N256 C257 1.346 . S
C257 N256 1.346 . S
C257 C258 1.396 . S
C257 C267 1.510 . S
C258 C254 1.401 . S
C258 C257 1.396 . S
C259 C254 1.499 . S
C259 H260 0.959 . S
C259 H261 0.960 . S
C259 H262 0.961 . S
H260 C259 0.959 . S
H261 C259 0.960 . S
H262 C259 0.961 . S
O263 Co238 1.967 . S
O263 C271 1.258 . S
O264 Co239 1.941 . S
O264 C271 1.266 . S
H265 C267 0.959 . S
H266 C267 0.961 . S
C267 C257 1.510 . S
C267 H265 0.959 . S
C267 H266 0.961 . S
C267 H268 0.960 . S
H268 C267 0.960 . S
H269 N249 0.862 . S
O270 Co238 1.920 . S
O270 C243 1.289 . S
C271 O263 1.258 . S
C271 O264 1.266 . S
Co272 O275 1.970 . S
Co272 N289 1.989 . S
Co272 O297 1.967 . S
Co272 O304 1.920 . S
Co273 O276 1.966 . S
Co273 N282 2.022 . S
Co273 N290 1.993 . S
Co273 O298 1.941 . S
C274 O275 1.258 . S
C274 O276 1.263 . S
O275 Co272 1.970 . S
O275 C274 1.258 . S
O276 Co273 1.966 . S
O276 C274 1.263 . S
C277 O278 1.235 . S
C277 O304 1.289 . S
O278 C277 1.235 . S
C279 C281 1.400 . S
C279 N282 1.351 . S
C279 C284 1.501 . S
C280 C281 1.387 . S
C280 N283 1.341 . S
C281 C279 1.400 . S
C281 C280 1.387 . S
N282 Co273 2.022 . S
N282 C279 1.351 . S
N282 N283 1.365 . S
N283 C280 1.341 . S
N283 N282 1.365 . S
N283 H303 0.862 . S
C284 C279 1.501 . S
C284 H285 0.961 . S
C284 H286 0.961 . S
C284 H287 0.960 . S
H285 C284 0.961 . S
H286 C284 0.961 . S
H287 C284 0.960 . S
C288 N289 1.342 . S
C288 C292 1.401 . S
C288 C293 1.499 . S
N289 Co272 1.989 . S
N289 C288 1.342 . S
N289 N290 1.388 . S
N290 Co273 1.993 . S
N290 N289 1.388 . S
N290 C291 1.346 . S
C291 N290 1.346 . S
C291 C292 1.396 . S
C291 C301 1.510 . S
C292 C288 1.401 . S
C292 C291 1.396 . S
C293 C288 1.499 . S
C293 H294 0.959 . S
C293 H295 0.960 . S
C293 H296 0.961 . S
H294 C293 0.959 . S
H295 C293 0.960 . S
H296 C293 0.961 . S
O297 Co272 1.967 . S
O297 C305 1.258 . S
O298 Co273 1.941 . S
O298 C305 1.266 . S
H299 C301 0.959 . S
H300 C301 0.961 . S
C301 C291 1.510 . S
C301 H299 0.959 . S
C301 H300 0.961 . S
C301 H302 0.960 . S
H302 C301 0.960 . S
H303 N283 0.862 . S
O304 Co272 1.920 . S
O304 C277 1.289 . S
C305 O297 1.258 . S
C305 O298 1.266 . S
Co306 O309 1.970 . S
Co306 N323 1.989 . S
Co306 O331 1.967 . S
Co306 O338 1.920 . S
Co307 O310 1.966 . S
Co307 N316 2.022 . S
Co307 N324 1.993 . S
Co307 O332 1.941 . S
C308 O309 1.258 . S
C308 O310 1.263 . S
O309 Co306 1.970 . S
O309 C308 1.258 . S
O310 Co307 1.966 . S
O310 C308 1.263 . S
C311 O312 1.235 . S
C311 O338 1.289 . S
O312 C311 1.235 . S
C313 C315 1.400 . S
C313 N316 1.351 . S
C313 C318 1.501 . S
C314 C315 1.387 1_554 S
C314 N317 1.341 1_554 S
C315 C313 1.400 . S
C315 C314 1.387 1_556 S
N316 Co307 2.022 . S
N316 C313 1.351 . S
N316 N317 1.365 . S
N317 C314 1.341 1_556 S
N317 N316 1.365 . S
N317 H337 0.862 . S
C318 C313 1.501 . S
C318 H319 0.961 . S
C318 H320 0.961 . S
C318 H321 0.960 . S
H319 C318 0.961 . S
H320 C318 0.961 . S
H321 C318 0.960 . S
C322 N323 1.342 . S
C322 C326 1.401 . S
C322 C327 1.499 . S
N323 Co306 1.989 . S
N323 C322 1.342 . S
N323 N324 1.388 . S
N324 Co307 1.993 . S
N324 N323 1.388 . S
N324 C325 1.346 . S
C325 N324 1.346 . S
C325 C326 1.396 . S
C325 C335 1.510 . S
C326 C322 1.401 . S
C326 C325 1.396 . S
C327 C322 1.499 . S
C327 H328 0.959 . S
C327 H329 0.960 . S
C327 H330 0.961 . S
H328 C327 0.959 . S
H329 C327 0.960 . S
H330 C327 0.961 . S
O331 Co306 1.967 . S
O331 C339 1.258 . S
O332 Co307 1.941 . S
O332 C339 1.266 . S
H333 C335 0.959 1_554 S
H334 C335 0.963 . S
C335 C325 1.510 . S
C335 H333 0.959 1_556 S
C335 H334 0.963 . S
C335 H336 0.960 . S
H336 C335 0.960 . S
H337 N317 0.862 . S
O338 Co306 1.920 . S
O338 C311 1.289 . S
C339 O331 1.258 . S
C339 O332 1.266 . S
Co340 O343 1.970 . S
Co340 N357 1.989 . S
Co340 O365 1.967 . S
Co340 O372 1.920 . S
Co341 O344 1.966 . S
Co341 N350 2.022 . S
Co341 N358 1.993 . S
Co341 O366 1.941 . S
C342 O343 1.258 . S
C342 O344 1.263 . S
O343 Co340 1.970 . S
O343 C342 1.258 . S
O344 Co341 1.966 . S
O344 C342 1.263 . S
C345 O346 1.235 . S
C345 O372 1.289 . S
O346 C345 1.235 . S
C347 C349 1.400 . S
C347 N350 1.351 . S
C347 C352 1.501 . S
C348 C349 1.387 1_556 S
C348 N351 1.341 1_556 S
C349 C347 1.400 . S
C349 C348 1.387 1_554 S
N350 Co341 2.022 . S
N350 C347 1.351 . S
N350 N351 1.365 . S
N351 C348 1.341 1_554 S
N351 N350 1.365 . S
N351 H371 0.862 . S
C352 C347 1.501 . S
C352 H353 0.961 . S
C352 H354 0.961 . S
C352 H355 0.960 . S
H353 C352 0.961 . S
H354 C352 0.961 . S
H355 C352 0.960 . S
C356 N357 1.342 . S
C356 C360 1.401 . S
C356 C361 1.499 . S
N357 Co340 1.989 . S
N357 C356 1.342 . S
N357 N358 1.388 . S
N358 Co341 1.993 . S
N358 N357 1.388 . S
N358 C359 1.346 . S
C359 N358 1.346 . S
C359 C360 1.396 . S
C359 C369 1.510 . S
C360 C356 1.401 . S
C360 C359 1.396 . S
C361 C356 1.499 . S
C361 H362 0.959 . S
C361 H363 0.960 . S
C361 H364 0.961 . S
H362 C361 0.959 . S
H363 C361 0.960 . S
H364 C361 0.961 . S
O365 Co340 1.967 . S
O365 C373 1.258 . S
O366 Co341 1.941 . S
O366 C373 1.266 . S
H367 C369 0.959 1_556 S
H368 C369 0.963 . S
C369 C359 1.510 . S
C369 H367 0.959 1_554 S
C369 H368 0.963 . S
C369 H370 0.960 . S
H370 C369 0.960 . S
H371 N351 0.862 . S
O372 Co340 1.920 . S
O372 C345 1.289 . S
C373 O365 1.258 . S
C373 O366 1.266 . S
Co374 O377 1.970 . S
Co374 N391 1.989 . S
Co374 O399 1.967 . S
Co374 O406 1.920 . S
Co375 O378 1.966 . S
Co375 N384 2.022 . S
Co375 N392 1.993 . S
Co375 O400 1.941 . S
C376 O377 1.258 . S
C376 O378 1.263 . S
O377 Co374 1.970 . S
O377 C376 1.258 . S
O378 Co375 1.966 . S
O378 C376 1.263 . S
C379 O380 1.235 . S
C379 O406 1.289 . S
O380 C379 1.235 . S
C381 C383 1.400 . S
C381 N384 1.351 . S
C381 C386 1.501 . S
C382 C383 1.387 . S
C382 N385 1.341 . S
C383 C381 1.400 . S
C383 C382 1.387 . S
N384 Co375 2.022 . S
N384 C381 1.351 . S
N384 N385 1.365 . S
N385 C382 1.341 . S
N385 N384 1.365 . S
N385 H405 0.862 . S
C386 C381 1.501 . S
C386 H387 0.961 . S
C386 H388 0.961 . S
C386 H389 0.960 . S
H387 C386 0.961 . S
H388 C386 0.961 . S
H389 C386 0.960 . S
C390 N391 1.342 . S
C390 C394 1.401 . S
C390 C395 1.499 . S
N391 Co374 1.989 . S
N391 C390 1.342 . S
N391 N392 1.388 . S
N392 Co375 1.993 . S
N392 N391 1.388 . S
N392 C393 1.346 . S
C393 N392 1.346 . S
C393 C394 1.396 . S
C393 C403 1.510 . S
C394 C390 1.401 . S
C394 C393 1.396 . S
C395 C390 1.499 . S
C395 H396 0.959 . S
C395 H397 0.960 . S
C395 H398 0.961 . S
H396 C395 0.959 . S
H397 C395 0.960 . S
H398 C395 0.961 . S
O399 Co374 1.967 . S
O399 C407 1.258 . S
O400 Co375 1.941 . S
O400 C407 1.266 . S
H401 C403 0.959 . S
H402 C403 0.961 . S
C403 C393 1.510 . S
C403 H401 0.959 . S
C403 H402 0.961 . S
C403 H404 0.960 . S
H404 C403 0.960 . S
H405 N385 0.862 . S
O406 Co374 1.920 . S
O406 C379 1.289 . S
C407 O399 1.258 . S
C407 O400 1.266 . S
Co408 O411 1.970 . S
Co408 N425 1.989 1_455 S
Co408 O433 1.967 . S
Co408 O440 1.920 1_455 S
Co409 O412 1.966 . S
Co409 N418 2.022 . S
Co409 N426 1.993 . S
Co409 O434 1.941 . S
C410 O411 1.258 . S
C410 O412 1.263 . S
O411 Co408 1.970 . S
O411 C410 1.258 . S
O412 Co409 1.966 . S
O412 C410 1.263 . S
C413 O414 1.235 . S
C413 O440 1.289 . S
O414 C413 1.235 . S
C415 C417 1.400 . S
C415 N418 1.351 . S
C415 C420 1.501 . S
C416 C417 1.387 . S
C416 N419 1.341 . S
C417 C415 1.400 . S
C417 C416 1.387 . S
N418 Co409 2.022 . S
N418 C415 1.351 . S
N418 N419 1.365 . S
N419 C416 1.341 . S
N419 N418 1.365 . S
N419 H439 0.862 . S
C420 C415 1.501 . S
C420 H421 0.961 . S
C420 H422 0.961 . S
C420 H423 0.960 . S
H421 C420 0.961 . S
H422 C420 0.961 . S
H423 C420 0.960 . S
C424 N425 1.342 . S
C424 C428 1.401 . S
C424 C429 1.499 . S
N425 Co408 1.989 1_655 S
N425 C424 1.342 . S
N425 N426 1.388 1_655 S
N426 Co409 1.993 . S
N426 N425 1.388 1_455 S
N426 C427 1.346 . S
C427 N426 1.346 . S
C427 C428 1.396 1_455 S
C427 C437 1.510 . S
C428 C424 1.401 . S
C428 C427 1.396 1_655 S
C429 C424 1.499 . S
C429 H430 0.959 . S
C429 H431 0.960 . S
C429 H432 0.961 . S
H430 C429 0.959 . S
H431 C429 0.960 . S
H432 C429 0.961 . S
O433 Co408 1.967 . S
O433 C441 1.258 . S
O434 Co409 1.941 . S
O434 C441 1.266 . S
H435 C437 0.959 . S
H436 C437 0.961 . S
C437 C427 1.510 . S
C437 H435 0.959 . S
C437 H436 0.961 . S
C437 H438 0.960 . S
H438 C437 0.960 . S
H439 N419 0.862 . S
O440 Co408 1.920 1_655 S
O440 C413 1.289 . S
C441 O433 1.258 . S
C441 O434 1.266 . S
Co442 O445 1.970 . S
Co442 N459 1.989 . S
Co442 O467 1.967 . S
Co442 O474 1.920 . S
Co443 O446 1.966 . S
Co443 N452 2.022 . S
Co443 N460 1.993 . S
Co443 O468 1.941 . S
C444 O445 1.258 . S
C444 O446 1.263 . S
O445 Co442 1.970 . S
O445 C444 1.258 . S
O446 Co443 1.966 . S
O446 C444 1.263 . S
C447 O448 1.235 . S
C447 O474 1.289 . S
O448 C447 1.235 . S
C449 C451 1.400 . S
C449 N452 1.351 . S
C449 C454 1.501 . S
C450 C451 1.387 . S
C450 N453 1.341 . S
C451 C449 1.400 . S
C451 C450 1.387 . S
N452 Co443 2.022 . S
N452 C449 1.351 . S
N452 N453 1.365 . S
N453 C450 1.341 . S
N453 N452 1.365 . S
N453 H473 0.862 . S
C454 C449 1.501 . S
C454 H455 0.961 . S
C454 H456 0.961 . S
C454 H457 0.960 . S
H455 C454 0.961 . S
H456 C454 0.961 . S
H457 C454 0.960 . S
C458 N459 1.342 . S
C458 C462 1.401 . S
C458 C463 1.499 . S
N459 Co442 1.989 . S
N459 C458 1.342 . S
N459 N460 1.388 . S
N460 Co443 1.993 . S
N460 N459 1.388 . S
N460 C461 1.346 . S
C461 N460 1.346 . S
C461 C462 1.396 . S
C461 C471 1.510 . S
C462 C458 1.401 . S
C462 C461 1.396 . S
C463 C458 1.499 . S
C463 H464 0.959 . S
C463 H465 0.960 . S
C463 H466 0.961 . S
H464 C463 0.959 . S
H465 C463 0.960 . S
H466 C463 0.961 . S
O467 Co442 1.967 . S
O467 C475 1.258 . S
O468 Co443 1.941 . S
O468 C475 1.266 . S
H469 C471 0.959 . S
H470 C471 0.961 . S
C471 C461 1.510 . S
C471 H469 0.959 . S
C471 H470 0.961 . S
C471 H472 0.960 . S
H472 C471 0.960 . S
H473 N453 0.862 . S
O474 Co442 1.920 . S
O474 C447 1.289 . S
C475 O467 1.258 . S
C475 O468 1.266 . S
Co476 O479 1.970 . S
Co476 N493 1.989 1_455 S
Co476 O501 1.967 . S
Co476 O508 1.920 1_455 S
Co477 O480 1.966 . S
Co477 N486 2.022 . S
Co477 N494 1.993 . S
Co477 O502 1.941 . S
C478 O479 1.258 . S
C478 O480 1.263 . S
O479 Co476 1.970 . S
O479 C478 1.258 . S
O480 Co477 1.966 . S
O480 C478 1.263 . S
C481 O482 1.235 . S
C481 O508 1.289 . S
O482 C481 1.235 . S
C483 C485 1.400 . S
C483 N486 1.351 . S
C483 C488 1.501 . S
C484 C485 1.387 . S
C484 N487 1.341 . S
C485 C483 1.400 . S
C485 C484 1.387 . S
N486 Co477 2.022 . S
N486 C483 1.351 . S
N486 N487 1.365 . S
N487 C484 1.341 . S
N487 N486 1.365 . S
N487 H507 0.862 . S
C488 C483 1.501 . S
C488 H489 0.961 . S
C488 H490 0.961 . S
C488 H491 0.960 . S
H489 C488 0.961 . S
H490 C488 0.961 . S
H491 C488 0.960 . S
C492 N493 1.342 . S
C492 C496 1.401 . S
C492 C497 1.499 . S
N493 Co476 1.989 1_655 S
N493 C492 1.342 . S
N493 N494 1.388 1_655 S
N494 Co477 1.993 . S
N494 N493 1.388 1_455 S
N494 C495 1.346 . S
C495 N494 1.346 . S
C495 C496 1.396 1_455 S
C495 C505 1.510 . S
C496 C492 1.401 . S
C496 C495 1.396 1_655 S
C497 C492 1.499 . S
C497 H498 0.959 . S
C497 H499 0.960 . S
C497 H500 0.961 . S
H498 C497 0.959 . S
H499 C497 0.960 . S
H500 C497 0.961 . S
O501 Co476 1.967 . S
O501 C509 1.258 . S
O502 Co477 1.941 . S
O502 C509 1.266 . S
H503 C505 0.959 . S
H504 C505 0.961 . S
C505 C495 1.510 . S
C505 H503 0.959 . S
C505 H504 0.961 . S
C505 H506 0.960 . S
H506 C505 0.960 . S
H507 N487 0.862 . S
O508 Co476 1.920 1_655 S
O508 C481 1.289 . S
C509 O501 1.258 . S
C509 O502 1.266 . S
Co510 O513 1.970 . S
Co510 N527 1.989 . S
Co510 O535 1.967 . S
Co510 O542 1.920 . S
Co511 O514 1.966 . S
Co511 N520 2.022 . S
Co511 N528 1.993 . S
Co511 O536 1.941 . S
C512 O513 1.258 . S
C512 O514 1.263 . S
O513 Co510 1.970 . S
O513 C512 1.258 . S
O514 Co511 1.966 . S
O514 C512 1.263 . S
C515 O516 1.235 . S
C515 O542 1.289 . S
O516 C515 1.235 . S
C517 C519 1.400 . S
C517 N520 1.351 . S
C517 C522 1.501 . S
C518 C519 1.387 . S
C518 N521 1.341 . S
C519 C517 1.400 . S
C519 C518 1.387 . S
N520 Co511 2.022 . S
N520 C517 1.351 . S
N520 N521 1.365 . S
N521 C518 1.341 . S
N521 N520 1.365 . S
N521 H541 0.862 . S
C522 C517 1.501 . S
C522 H523 0.961 . S
C522 H524 0.961 . S
C522 H525 0.960 . S
H523 C522 0.961 . S
H524 C522 0.961 . S
H525 C522 0.960 . S
C526 N527 1.342 . S
C526 C530 1.401 . S
C526 C531 1.499 . S
N527 Co510 1.989 . S
N527 C526 1.342 . S
N527 N528 1.388 . S
N528 Co511 1.993 . S
N528 N527 1.388 . S
N528 C529 1.346 . S
C529 N528 1.346 . S
C529 C530 1.396 . S
C529 C539 1.510 . S
C530 C526 1.401 . S
C530 C529 1.396 . S
C531 C526 1.499 . S
C531 H532 0.959 . S
C531 H533 0.960 . S
C531 H534 0.961 . S
H532 C531 0.959 . S
H533 C531 0.960 . S
H534 C531 0.961 . S
O535 Co510 1.967 . S
O535 C543 1.258 . S
O536 Co511 1.941 . S
O536 C543 1.266 . S
H537 C539 0.959 . S
H538 C539 0.961 . S
C539 C529 1.510 . S
C539 H537 0.959 . S
C539 H538 0.961 . S
C539 H540 0.960 . S
H540 C539 0.960 . S
H541 N521 0.862 . S
O542 Co510 1.920 . S
O542 C515 1.289 . S
C543 O535 1.258 . S
C543 O536 1.266 . S
H544 C562 0.951 . S
H545 C564 0.951 . S
H546 C566 0.950 . S
H547 C567 0.950 . S
H548 C569 0.950 . S
H549 C572 0.950 . S
H550 C573 0.950 . S
H551 C575 0.950 . S
H552 C576 0.950 . S
H553 C577 0.951 . S
H554 C579 0.951 . S
H555 C581 0.950 . S
H556 C582 0.950 . S
H557 C584 0.950 . S
H558 C587 0.950 . S
H559 C588 0.950 . S
H560 C590 0.950 . S
H561 C591 0.950 . S
C562 H544 0.951 . S
C562 C563 1.366 . S
C562 C564 1.388 . S
C563 C562 1.366 . S
C563 C567 1.385 . S
C564 H545 0.951 . S
C564 C562 1.388 . S
C564 C565 1.366 . S
C565 C564 1.366 . S
C565 C566 1.414 . S
C565 C568 1.499 . S
C566 H546 0.950 . S
C566 C565 1.414 . S
C566 C567 1.374 . S
C567 H547 0.950 . S
C567 C563 1.385 . S
C567 C566 1.374 . S
C568 C565 1.499 . S
C568 C569 1.355 1_545 S
C568 C570 1.389 . S
C569 H548 0.950 . S
C569 C568 1.355 1_565 S
C569 C585 1.395 . S
C570 C568 1.389 . S
C570 C571 1.524 . S
C570 C584 1.394 . S
C571 C570 1.524 . S
C571 C572 1.397 . S
C571 C576 1.363 . S
C572 H549 0.950 . S
C572 C571 1.397 . S
C572 C573 1.334 . S
C573 H550 0.950 . S
C573 C572 1.334 . S
C573 C574 1.287 . S
C574 C573 1.287 . S
C574 C575 1.524 . S
C574 H593 0.913 . S
C575 H551 0.950 . S
C575 C574 1.524 . S
C575 C576 1.415 . S
C576 H552 0.950 . S
C576 C571 1.363 . S
C576 C575 1.415 . S
C577 H553 0.951 . S
C577 C578 1.366 . S
C577 C579 1.388 . S
C578 C577 1.366 . S
C578 C582 1.385 . S
C579 H554 0.951 . S
C579 C577 1.388 . S
C579 C580 1.366 . S
C580 C579 1.366 . S
C580 C581 1.414 . S
C580 C583 1.499 . S
C581 H555 0.950 . S
C581 C580 1.414 . S
C581 C582 1.374 . S
C582 H556 0.950 . S
C582 C578 1.385 . S
C582 C581 1.374 . S
C583 C580 1.499 . S
C583 C584 1.355 1_565 S
C583 C585 1.389 . S
C584 H557 0.950 . S
C584 C570 1.394 . S
C584 C583 1.355 1_545 S
C585 C569 1.395 . S
C585 C583 1.389 . S
C585 C586 1.524 . S
C586 C585 1.524 . S
C586 C587 1.397 . S
C586 C591 1.363 . S
C587 H558 0.950 . S
C587 C586 1.397 . S
C587 C588 1.334 . S
C588 H559 0.950 . S
C588 C587 1.334 . S
C588 C589 1.287 . S
C589 C588 1.287 . S
C589 C590 1.524 . S
C589 H592 0.999 . S
C590 H560 0.950 . S
C590 C589 1.524 . S
C590 C591 1.415 . S
C591 H561 0.950 . S
C591 C586 1.363 . S
C591 C590 1.415 . S
H592 C589 0.999 . S
H593 C574 0.913 . S
H594 C612 0.951 . S
H595 C614 0.951 . S
H596 C616 0.950 . S
H597 C617 0.950 . S
H598 C619 0.950 . S
H599 C622 0.950 . S
H600 C623 0.950 . S
H601 C625 0.950 . S
H602 C626 0.950 . S
H603 C627 0.951 . S
H604 C629 0.951 . S
H605 C631 0.950 . S
H606 C632 0.950 . S
H607 C634 0.950 . S
H608 C637 0.950 . S
H609 C638 0.950 . S
H610 C640 0.950 . S
H611 C641 0.950 . S
C612 H594 0.951 . S
C612 C613 1.366 . S
C612 C614 1.388 . S
C613 C612 1.366 . S
C613 C617 1.385 . S
C614 H595 0.951 . S
C614 C612 1.388 . S
C614 C615 1.366 . S
C615 C614 1.366 . S
C615 C616 1.414 . S
C615 C618 1.499 . S
C616 H596 0.950 . S
C616 C615 1.414 . S
C616 C617 1.374 . S
C617 H597 0.950 . S
C617 C613 1.385 . S
C617 C616 1.374 . S
C618 C615 1.499 . S
C618 C619 1.373 . S
C618 C620 1.389 . S
C619 H598 0.950 . S
C619 C618 1.373 . S
C619 C635 1.377 . S
C620 C618 1.389 . S
C620 C621 1.524 . S
C620 C634 1.377 . S
C621 C620 1.524 . S
C621 C622 1.397 . S
C621 C626 1.363 . S
C622 H599 0.950 . S
C622 C621 1.397 . S
C622 C623 1.334 . S
C623 H600 0.950 . S
C623 C622 1.334 . S
C623 C624 1.287 . S
C624 C623 1.287 . S
C624 C625 1.524 . S
C624 H643 0.913 . S
C625 H601 0.950 . S
C625 C624 1.524 . S
C625 C626 1.415 . S
C626 H602 0.950 . S
C626 C621 1.363 . S
C626 C625 1.415 . S
C627 H603 0.951 . S
C627 C628 1.366 . S
C627 C629 1.388 . S
C628 C627 1.366 . S
C628 C632 1.385 . S
C629 H604 0.951 . S
C629 C627 1.388 . S
C629 C630 1.366 . S
C630 C629 1.366 . S
C630 C631 1.414 . S
C630 C633 1.499 . S
C631 H605 0.950 . S
C631 C630 1.414 . S
C631 C632 1.374 . S
C632 H606 0.950 . S
C632 C628 1.385 . S
C632 C631 1.374 . S
C633 C630 1.499 . S
C633 C634 1.373 . S
C633 C635 1.389 . S
C634 H607 0.950 . S
C634 C620 1.377 . S
C634 C633 1.373 . S
C635 C619 1.377 . S
C635 C633 1.389 . S
C635 C636 1.524 . S
C636 C635 1.524 . S
C636 C637 1.397 . S
C636 C641 1.363 . S
C637 H608 0.950 . S
C637 C636 1.397 . S
C637 C638 1.334 . S
C638 H609 0.950 . S
C638 C637 1.334 . S
C638 C639 1.287 . S
C639 C638 1.287 . S
C639 C640 1.524 . S
C639 H642 0.999 . S
C640 H610 0.950 . S
C640 C639 1.524 . S
C640 C641 1.415 . S
C641 H611 0.950 . S
C641 C636 1.363 . S
C641 C640 1.415 . S
H642 C639 0.999 . S
H643 C624 0.913 . S
H644 C662 0.951 . S
H645 C664 0.951 . S
H646 C666 0.950 . S
H647 C667 0.950 . S
H648 C669 0.950 . S
H649 C672 0.950 . S
H650 C673 0.950 . S
H651 C675 0.950 . S
H652 C676 0.950 . S
H653 C677 0.951 . S
H654 C679 0.951 . S
H655 C681 0.950 . S
H656 C682 0.950 . S
H657 C684 0.950 . S
H658 C687 0.950 . S
H659 C688 0.950 . S
H660 C690 0.950 . S
H661 C691 0.950 . S
C662 H644 0.951 . S
C662 C663 1.366 . S
C662 C664 1.388 . S
C663 C662 1.366 . S
C663 C667 1.385 . S
C664 H645 0.951 . S
C664 C662 1.388 . S
C664 C665 1.366 . S
C665 C664 1.366 . S
C665 C666 1.414 . S
C665 C668 1.499 . S
C666 H646 0.950 . S
C666 C665 1.414 . S
C666 C667 1.374 . S
C667 H647 0.950 . S
C667 C663 1.385 . S
C667 C666 1.374 . S
C668 C665 1.499 . S
C668 C669 1.373 . S
C668 C670 1.400 1_455 S
C669 H648 0.950 . S
C669 C668 1.373 . S
C669 C685 1.366 1_544 S
C670 C668 1.400 1_655 S
C670 C671 1.525 . S
C670 C684 1.366 1_544 S
C671 C670 1.525 . S
C671 C672 1.397 . S
C671 C676 1.363 1_554 S
C672 H649 0.950 . S
C672 C671 1.397 . S
C672 C673 1.334 . S
C673 H650 0.950 . S
C673 C672 1.334 . S
C673 C674 1.287 . S
C674 C673 1.287 . S
C674 C675 1.524 1_554 S
C674 H693 0.913 . S
C675 H651 0.950 . S
C675 C674 1.524 1_556 S
C675 C676 1.415 . S
C676 H652 0.950 . S
C676 C671 1.363 1_556 S
C676 C675 1.415 . S
C677 H653 0.951 . S
C677 C678 1.366 . S
C677 C679 1.388 . S
C678 C677 1.366 . S
C678 C682 1.385 . S
C679 H654 0.951 . S
C679 C677 1.388 . S
C679 C680 1.366 . S
C680 C679 1.366 . S
C680 C681 1.414 . S
C680 C683 1.499 . S
C681 H655 0.950 . S
C681 C680 1.414 . S
C681 C682 1.374 . S
C682 H656 0.950 . S
C682 C678 1.385 . S
C682 C681 1.374 . S
C683 C680 1.499 . S
C683 C684 1.373 1_455 S
C683 C685 1.400 . S
C684 H657 0.950 . S
C684 C670 1.366 1_566 S
C684 C683 1.373 1_655 S
C685 C669 1.366 1_566 S
C685 C683 1.400 . S
C685 C686 1.525 . S
C686 C685 1.525 . S
C686 C687 1.397 . S
C686 C691 1.363 1_556 S
C687 H658 0.950 . S
C687 C686 1.397 . S
C687 C688 1.334 . S
C688 H659 0.950 . S
C688 C687 1.334 . S
C688 C689 1.287 . S
C689 C688 1.287 . S
C689 C690 1.524 1_556 S
C689 H692 0.999 . S
C690 H660 0.950 . S
C690 C689 1.524 1_554 S
C690 C691 1.415 . S
C691 H661 0.950 . S
C691 C686 1.363 1_554 S
C691 C690 1.415 . S
H692 C689 0.999 . S
H693 C674 0.913 . S
H694 C712 0.951 . S
H695 C714 0.951 . S
H696 C716 0.950 . S
H697 C717 0.950 . S
H698 C719 0.950 . S
H699 C722 0.950 . S
H700 C723 0.950 . S
H701 C725 0.950 . S
H702 C726 0.950 . S
H703 C727 0.951 . S
H704 C729 0.951 . S
H705 C731 0.950 . S
H706 C732 0.950 . S
H707 C734 0.950 . S
H708 C737 0.950 . S
H709 C738 0.950 . S
H710 C740 0.950 . S
H711 C741 0.950 . S
C712 H694 0.951 . S
C712 C713 1.366 . S
C712 C714 1.388 . S
C713 C712 1.366 . S
C713 C717 1.385 . S
C714 H695 0.951 . S
C714 C712 1.388 . S
C714 C715 1.366 . S
C715 C714 1.366 . S
C715 C716 1.414 . S
C715 C718 1.499 . S
C716 H696 0.950 . S
C716 C715 1.414 . S
C716 C717 1.374 . S
C717 H697 0.950 . S
C717 C713 1.385 . S
C717 C716 1.374 . S
C718 C715 1.499 . S
C718 C719 1.373 . S
C718 C720 1.389 . S
C719 H698 0.950 . S
C719 C718 1.373 . S
C719 C735 1.377 . S
C720 C718 1.389 . S
C720 C721 1.524 . S
C720 C734 1.377 . S
C721 C720 1.524 . S
C721 C722 1.397 . S
C721 C726 1.363 . S
C722 H699 0.950 . S
C722 C721 1.397 . S
C722 C723 1.334 . S
C723 H700 0.950 . S
C723 C722 1.334 . S
C723 C724 1.287 . S
C724 C723 1.287 . S
C724 C725 1.524 . S
C724 H743 0.913 . S
C725 H701 0.950 . S
C725 C724 1.524 . S
C725 C726 1.415 . S
C726 H702 0.950 . S
C726 C721 1.363 . S
C726 C725 1.415 . S
C727 H703 0.951 . S
C727 C728 1.366 . S
C727 C729 1.388 . S
C728 C727 1.366 . S
C728 C732 1.385 . S
C729 H704 0.951 . S
C729 C727 1.388 . S
C729 C730 1.366 . S
C730 C729 1.366 . S
C730 C731 1.414 . S
C730 C733 1.499 . S
C731 H705 0.950 . S
C731 C730 1.414 . S
C731 C732 1.374 . S
C732 H706 0.950 . S
C732 C728 1.385 . S
C732 C731 1.374 . S
C733 C730 1.499 . S
C733 C734 1.373 . S
C733 C735 1.389 . S
C734 H707 0.950 . S
C734 C720 1.377 . S
C734 C733 1.373 . S
C735 C719 1.377 . S
C735 C733 1.389 . S
C735 C736 1.524 . S
C736 C735 1.524 . S
C736 C737 1.397 . S
C736 C741 1.363 . S
C737 H708 0.950 . S
C737 C736 1.397 . S
C737 C738 1.334 . S
C738 H709 0.950 . S
C738 C737 1.334 . S
C738 C739 1.287 . S
C739 C738 1.287 . S
C739 C740 1.524 . S
C739 H742 0.999 . S
C740 H710 0.950 . S
C740 C739 1.524 . S
C740 C741 1.415 . S
C741 H711 0.950 . S
C741 C736 1.363 . S
C741 C740 1.415 . S
H742 C739 0.999 . S
H743 C724 0.913 . S
H744 C762 0.951 . S
H745 C764 0.951 . S
H746 C766 0.950 . S
H747 C767 0.950 . S
H748 C769 0.950 . S
H749 C772 0.950 . S
H750 C773 0.950 . S
H751 C775 0.950 . S
H752 C776 0.950 . S
H753 C777 0.951 . S
H754 C779 0.951 . S
H755 C781 0.950 . S
H756 C782 0.950 . S
H757 C784 0.950 . S
H758 C787 0.950 . S
H759 C788 0.950 . S
H760 C790 0.950 . S
H761 C791 0.950 . S
C762 H744 0.951 . S
C762 C763 1.366 . S
C762 C764 1.388 . S
C763 C762 1.366 . S
C763 C767 1.385 . S
C764 H745 0.951 . S
C764 C762 1.388 . S
C764 C765 1.366 . S
C765 C764 1.366 . S
C765 C766 1.414 . S
C765 C768 1.499 . S
C766 H746 0.950 . S
C766 C765 1.414 . S
C766 C767 1.374 . S
C767 H747 0.950 . S
C767 C763 1.385 . S
C767 C766 1.374 . S
C768 C765 1.499 . S
C768 C769 1.373 . S
C768 C770 1.389 . S
C769 H748 0.950 . S
C769 C768 1.373 . S
C769 C785 1.377 . S
C770 C768 1.389 . S
C770 C771 1.524 . S
C770 C784 1.377 . S
C771 C770 1.524 . S
C771 C772 1.397 . S
C771 C776 1.363 . S
C772 H749 0.950 . S
C772 C771 1.397 . S
C772 C773 1.334 . S
C773 H750 0.950 . S
C773 C772 1.334 . S
C773 C774 1.287 . S
C774 C773 1.287 . S
C774 C775 1.524 . S
C774 H793 0.913 . S
C775 H751 0.950 . S
C775 C774 1.524 . S
C775 C776 1.415 . S
C776 H752 0.950 . S
C776 C771 1.363 . S
C776 C775 1.415 . S
C777 H753 0.951 . S
C777 C778 1.366 . S
C777 C779 1.388 . S
C778 C777 1.366 . S
C778 C782 1.385 . S
C779 H754 0.951 . S
C779 C777 1.388 . S
C779 C780 1.366 . S
C780 C779 1.366 . S
C780 C781 1.414 . S
C780 C783 1.499 . S
C781 H755 0.950 . S
C781 C780 1.414 . S
C781 C782 1.374 . S
C782 H756 0.950 . S
C782 C778 1.385 . S
C782 C781 1.374 . S
C783 C780 1.499 . S
C783 C784 1.373 . S
C783 C785 1.389 . S
C784 H757 0.950 . S
C784 C770 1.377 . S
C784 C783 1.373 . S
C785 C769 1.377 . S
C785 C783 1.389 . S
C785 C786 1.524 . S
C786 C785 1.524 . S
C786 C787 1.397 . S
C786 C791 1.363 . S
C787 H758 0.950 . S
C787 C786 1.397 . S
C787 C788 1.334 . S
C788 H759 0.950 . S
C788 C787 1.334 . S
C788 C789 1.287 . S
C789 C788 1.287 . S
C789 C790 1.524 . S
C789 H792 0.999 . S
C790 H760 0.950 . S
C790 C789 1.524 . S
C790 C791 1.415 . S
C791 H761 0.950 . S
C791 C786 1.363 . S
C791 C790 1.415 . S
H792 C789 0.999 . S
H793 C774 0.913 . S
H794 C812 0.951 . S
H795 C814 0.951 . S
H796 C816 0.950 . S
H797 C817 0.950 . S
H798 C819 0.950 . S
H799 C822 0.950 . S
H800 C823 0.950 . S
H801 C825 0.950 . S
H802 C826 0.950 . S
H803 C827 0.951 . S
H804 C829 0.951 . S
H805 C831 0.950 . S
H806 C832 0.950 . S
H807 C834 0.950 . S
H808 C837 0.950 . S
H809 C838 0.950 . S
H810 C840 0.950 . S
H811 C841 0.950 . S
C812 H794 0.951 . S
C812 C813 1.366 . S
C812 C814 1.388 . S
C813 C812 1.366 . S
C813 C817 1.385 . S
C814 H795 0.951 . S
C814 C812 1.388 . S
C814 C815 1.366 . S
C815 C814 1.366 . S
C815 C816 1.414 . S
C815 C818 1.499 . S
C816 H796 0.950 . S
C816 C815 1.414 . S
C816 C817 1.374 . S
C817 H797 0.950 . S
C817 C813 1.385 . S
C817 C816 1.374 . S
C818 C815 1.499 . S
C818 C819 1.373 . S
C818 C820 1.389 . S
C819 H798 0.950 . S
C819 C818 1.373 . S
C819 C835 1.377 . S
C820 C818 1.389 . S
C820 C821 1.524 . S
C820 C834 1.377 . S
C821 C820 1.524 . S
C821 C822 1.397 . S
C821 C826 1.363 . S
C822 H799 0.950 . S
C822 C821 1.397 . S
C822 C823 1.334 . S
C823 H800 0.950 . S
C823 C822 1.334 . S
C823 C824 1.287 . S
C824 C823 1.287 . S
C824 C825 1.524 . S
C824 H843 0.913 . S
C825 H801 0.950 . S
C825 C824 1.524 . S
C825 C826 1.415 . S
C826 H802 0.950 . S
C826 C821 1.363 . S
C826 C825 1.415 . S
C827 H803 0.951 . S
C827 C828 1.366 . S
C827 C829 1.388 . S
C828 C827 1.366 . S
C828 C832 1.385 . S
C829 H804 0.951 . S
C829 C827 1.388 . S
C829 C830 1.366 . S
C830 C829 1.366 . S
C830 C831 1.414 . S
C830 C833 1.499 . S
C831 H805 0.950 . S
C831 C830 1.414 . S
C831 C832 1.374 . S
C832 H806 0.950 . S
C832 C828 1.385 . S
C832 C831 1.374 . S
C833 C830 1.499 . S
C833 C834 1.373 . S
C833 C835 1.389 . S
C834 H807 0.950 . S
C834 C820 1.377 . S
C834 C833 1.373 . S
C835 C819 1.377 . S
C835 C833 1.389 . S
C835 C836 1.524 . S
C836 C835 1.524 . S
C836 C837 1.397 . S
C836 C841 1.363 . S
C837 H808 0.950 . S
C837 C836 1.397 . S
C837 C838 1.334 . S
C838 H809 0.950 . S
C838 C837 1.334 . S
C838 C839 1.287 . S
C839 C838 1.287 . S
C839 C840 1.524 . S
C839 H842 0.999 . S
C840 H810 0.950 . S
C840 C839 1.524 . S
C840 C841 1.415 . S
C841 H811 0.950 . S
C841 C836 1.363 . S
C841 C840 1.415 . S
H842 C839 0.999 . S
H843 C824 0.913 . S
H844 C862 0.951 . S
H845 C864 0.951 . S
H846 C866 0.950 . S
H847 C867 0.950 . S
H848 C869 0.950 . S
H849 C872 0.950 1_556 S
H850 C873 0.950 . S
H851 C875 0.950 . S
H852 C876 0.950 . S
H853 C877 0.951 . S
H854 C879 0.951 . S
H855 C881 0.950 . S
H856 C882 0.950 . S
H857 C884 0.950 . S
H858 C887 0.950 1_554 S
H859 C888 0.950 . S
H860 C890 0.950 . S
H861 C891 0.950 . S
C862 H844 0.951 . S
C862 C863 1.366 . S
C862 C864 1.388 . S
C863 C862 1.366 . S
C863 C867 1.385 . S
C864 H845 0.951 . S
C864 C862 1.388 . S
C864 C865 1.366 . S
C865 C864 1.366 . S
C865 C866 1.414 . S
C865 C868 1.499 . S
C866 H846 0.950 . S
C866 C865 1.414 . S
C866 C867 1.374 . S
C867 H847 0.950 . S
C867 C863 1.385 . S
C867 C866 1.374 . S
C868 C865 1.499 . S
C868 C869 1.373 . S
C868 C870 1.389 1_556 S
C869 H848 0.950 . S
C869 C868 1.373 . S
C869 C885 1.377 . S
C870 C868 1.389 1_554 S
C870 C871 1.524 . S
C870 C884 1.377 . S
C871 C870 1.524 . S
C871 C872 1.397 . S
C871 C876 1.363 . S
C872 H849 0.950 1_554 S
C872 C871 1.397 . S
C872 C873 1.334 . S
C873 H850 0.950 . S
C873 C872 1.334 . S
C873 C874 1.287 . S
C874 C873 1.287 . S
C874 C875 1.524 . S
C874 H893 0.913 . S
C875 H851 0.950 . S
C875 C874 1.524 . S
C875 C876 1.415 . S
C876 H852 0.950 . S
C876 C871 1.363 . S
C876 C875 1.415 . S
C877 H853 0.951 . S
C877 C878 1.366 . S
C877 C879 1.388 . S
C878 C877 1.366 . S
C878 C882 1.385 . S
C879 H854 0.951 . S
C879 C877 1.388 . S
C879 C880 1.366 . S
C880 C879 1.366 . S
C880 C881 1.414 . S
C880 C883 1.499 . S
C881 H855 0.950 . S
C881 C880 1.414 . S
C881 C882 1.374 . S
C882 H856 0.950 . S
C882 C878 1.385 . S
C882 C881 1.374 . S
C883 C880 1.499 . S
C883 C884 1.373 . S
C883 C885 1.389 1_554 S
C884 H857 0.950 . S
C884 C870 1.377 . S
C884 C883 1.373 . S
C885 C869 1.377 . S
C885 C883 1.389 1_556 S
C885 C886 1.524 . S
C886 C885 1.524 . S
C886 C887 1.397 1_455 S
C886 C891 1.363 . S
C887 H858 0.950 1_556 S
C887 C886 1.397 1_655 S
C887 C888 1.334 . S
C888 H859 0.950 . S
C888 C887 1.334 . S
C888 C889 1.287 . S
C889 C888 1.287 . S
C889 C890 1.524 1_655 S
C889 H892 0.999 . S
C890 H860 0.950 . S
C890 C889 1.524 1_455 S
C890 C891 1.415 . S
C891 H861 0.950 . S
C891 C886 1.363 . S
C891 C890 1.415 . S
H892 C889 0.999 . S
H893 C874 0.913 . S
H894 C912 0.951 . S
H895 C914 0.951 . S
H896 C916 0.950 . S
H897 C917 0.950 . S
H898 C919 0.950 . S
H899 C922 0.950 . S
H900 C923 0.950 . S
H901 C925 0.950 . S
H902 C926 0.950 . S
H903 C927 0.951 . S
H904 C929 0.951 . S
H905 C931 0.950 . S
H906 C932 0.950 . S
H907 C934 0.950 . S
H908 C937 0.950 . S
H909 C938 0.950 . S
H910 C940 0.950 . S
H911 C941 0.950 . S
C912 H894 0.951 . S
C912 C913 1.366 . S
C912 C914 1.388 . S
C913 C912 1.366 . S
C913 C917 1.385 . S
C914 H895 0.951 . S
C914 C912 1.388 . S
C914 C915 1.366 . S
C915 C914 1.366 . S
C915 C916 1.414 . S
C915 C918 1.499 . S
C916 H896 0.950 . S
C916 C915 1.414 . S
C916 C917 1.374 . S
C917 H897 0.950 . S
C917 C913 1.385 . S
C917 C916 1.374 . S
C918 C915 1.499 . S
C918 C919 1.373 . S
C918 C920 1.389 . S
C919 H898 0.950 . S
C919 C918 1.373 . S
C919 C935 1.377 . S
C920 C918 1.389 . S
C920 C921 1.524 . S
C920 C934 1.377 . S
C921 C920 1.524 . S
C921 C922 1.397 . S
C921 C926 1.363 . S
C922 H899 0.950 . S
C922 C921 1.397 . S
C922 C923 1.334 . S
C923 H900 0.950 . S
C923 C922 1.334 . S
C923 C924 1.287 . S
C924 C923 1.287 . S
C924 C925 1.524 . S
C924 H943 0.913 . S
C925 H901 0.950 . S
C925 C924 1.524 . S
C925 C926 1.415 . S
C926 H902 0.950 . S
C926 C921 1.363 . S
C926 C925 1.415 . S
C927 H903 0.951 . S
C927 C928 1.366 . S
C927 C929 1.388 . S
C928 C927 1.366 . S
C928 C932 1.385 . S
C929 H904 0.951 . S
C929 C927 1.388 . S
C929 C930 1.366 . S
C930 C929 1.366 . S
C930 C931 1.414 . S
C930 C933 1.499 . S
C931 H905 0.950 . S
C931 C930 1.414 . S
C931 C932 1.374 . S
C932 H906 0.950 . S
C932 C928 1.385 . S
C932 C931 1.374 . S
C933 C930 1.499 . S
C933 C934 1.373 . S
C933 C935 1.389 . S
C934 H907 0.950 . S
C934 C920 1.377 . S
C934 C933 1.373 . S
C935 C919 1.377 . S
C935 C933 1.389 . S
C935 C936 1.524 . S
C936 C935 1.524 . S
C936 C937 1.397 . S
C936 C941 1.363 . S
C937 H908 0.950 . S
C937 C936 1.397 . S
C937 C938 1.334 . S
C938 H909 0.950 . S
C938 C937 1.334 . S
C938 C939 1.287 . S
C939 C938 1.287 . S
C939 C940 1.524 . S
C939 H942 0.999 . S
C940 H910 0.950 . S
C940 C939 1.524 . S
C940 C941 1.415 . S
C941 H911 0.950 . S
C941 C936 1.363 . S
C941 C940 1.415 . S
H942 C939 0.999 . S
H943 C924 0.913 . S
H944 C962 0.951 . S
H945 C964 0.951 . S
H946 C966 0.950 . S
H947 C967 0.950 . S
H948 C969 0.950 . S
H949 C972 0.950 . S
H950 C973 0.950 . S
H951 C975 0.950 . S
H952 C976 0.950 . S
H953 C977 0.951 . S
H954 C979 0.951 . S
H955 C981 0.950 . S
H956 C982 0.950 . S
H957 C984 0.950 . S
H958 C987 0.950 . S
H959 C988 0.950 . S
H960 C990 0.950 . S
H961 C991 0.950 . S
C962 H944 0.951 . S
C962 C963 1.366 . S
C962 C964 1.388 . S
C963 C962 1.366 . S
C963 C967 1.385 . S
C964 H945 0.951 . S
C964 C962 1.388 . S
C964 C965 1.366 . S
C965 C964 1.366 . S
C965 C966 1.414 . S
C965 C968 1.499 . S
C966 H946 0.950 . S
C966 C965 1.414 . S
C966 C967 1.374 . S
C967 H947 0.950 . S
C967 C963 1.385 . S
C967 C966 1.374 . S
C968 C965 1.499 . S
C968 C969 1.373 . S
C968 C970 1.389 . S
C969 H948 0.950 . S
C969 C968 1.373 . S
C969 C985 1.377 . S
C970 C968 1.389 . S
C970 C971 1.524 . S
C970 C984 1.377 . S
C971 C970 1.524 . S
C971 C972 1.397 . S
C971 C976 1.363 . S
C972 H949 0.950 . S
C972 C971 1.397 . S
C972 C973 1.334 . S
C973 H950 0.950 . S
C973 C972 1.334 . S
C973 C974 1.287 . S
C974 C973 1.287 . S
C974 C975 1.524 . S
C974 H993 0.913 . S
C975 H951 0.950 . S
C975 C974 1.524 . S
C975 C976 1.415 . S
C976 H952 0.950 . S
C976 C971 1.363 . S
C976 C975 1.415 . S
C977 H953 0.951 . S
C977 C978 1.366 . S
C977 C979 1.388 1_556 S
C978 C977 1.366 . S
C978 C982 1.385 1_556 S
C979 H954 0.951 . S
C979 C977 1.388 1_554 S
C979 C980 1.366 . S
C980 C979 1.366 . S
C980 C981 1.414 . S
C980 C983 1.499 . S
C981 H955 0.950 . S
C981 C980 1.414 . S
C981 C982 1.374 . S
C982 H956 0.950 . S
C982 C978 1.385 1_554 S
C982 C981 1.374 . S
C983 C980 1.499 . S
C983 C984 1.373 . S
C983 C985 1.389 . S
C984 H957 0.950 . S
C984 C970 1.377 . S
C984 C983 1.373 . S
C985 C969 1.377 . S
C985 C983 1.389 . S
C985 C986 1.524 . S
C986 C985 1.524 . S
C986 C987 1.397 . S
C986 C991 1.363 . S
C987 H958 0.950 . S
C987 C986 1.397 . S
C987 C988 1.334 . S
C988 H959 0.950 . S
C988 C987 1.334 . S
C988 C989 1.287 . S
C989 C988 1.287 . S
C989 C990 1.524 . S
C989 H992 0.999 . S
C990 H960 0.950 . S
C990 C989 1.524 . S
C990 C991 1.415 . S
C991 H961 0.950 . S
C991 C986 1.363 . S
C991 C990 1.415 . S
H992 C989 0.999 . S
H993 C974 0.913 . S
H994 C1012 0.951 . S
H995 C1014 0.951 . S
H996 C1016 0.950 . S
H997 C1017 0.950 . S
H998 C1019 0.950 . S
H999 C1022 0.950 . S
H1000 C1023 0.950 . S
H1001 C1025 0.950 . S
H1002 C1026 0.950 . S
H1003 C1027 0.951 . S
H1004 C1029 0.951 . S
H1005 C1031 0.950 . S
H1006 C1032 0.950 . S
H1007 C1034 0.950 . S
H1008 C1037 0.950 . S
H1009 C1038 0.950 . S
H1010 C1040 0.950 . S
H1011 C1041 0.950 . S
C1012 H994 0.951 . S
C1012 C1013 1.366 . S
C1012 C1014 1.388 . S
C1013 C1012 1.366 . S
C1013 C1017 1.385 . S
C1014 H995 0.951 . S
C1014 C1012 1.388 . S
C1014 C1015 1.366 . S
C1015 C1014 1.366 . S
C1015 C1016 1.414 . S
C1015 C1018 1.499 . S
C1016 H996 0.950 . S
C1016 C1015 1.414 . S
C1016 C1017 1.374 . S
C1017 H997 0.950 . S
C1017 C1013 1.385 . S
C1017 C1016 1.374 . S
C1018 C1015 1.499 . S
C1018 C1019 1.373 . S
C1018 C1020 1.389 . S
C1019 H998 0.950 . S
C1019 C1018 1.373 . S
C1019 C1035 1.377 . S
C1020 C1018 1.389 . S
C1020 C1021 1.524 . S
C1020 C1034 1.377 . S
C1021 C1020 1.524 . S
C1021 C1022 1.397 . S
C1021 C1026 1.363 . S
C1022 H999 0.950 . S
C1022 C1021 1.397 . S
C1022 C1023 1.334 . S
C1023 H1000 0.950 . S
C1023 C1022 1.334 . S
C1023 C1024 1.287 . S
C1024 C1023 1.287 . S
C1024 C1025 1.524 . S
C1024 H1043 0.913 . S
C1025 H1001 0.950 . S
C1025 C1024 1.524 . S
C1025 C1026 1.415 . S
C1026 H1002 0.950 . S
C1026 C1021 1.363 . S
C1026 C1025 1.415 . S
C1027 H1003 0.951 . S
C1027 C1028 1.366 . S
C1027 C1029 1.388 . S
C1028 C1027 1.366 . S
C1028 C1032 1.385 . S
C1029 H1004 0.951 . S
C1029 C1027 1.388 . S
C1029 C1030 1.366 . S
C1030 C1029 1.366 . S
C1030 C1031 1.414 . S
C1030 C1033 1.499 . S
C1031 H1005 0.950 . S
C1031 C1030 1.414 . S
C1031 C1032 1.374 . S
C1032 H1006 0.950 . S
C1032 C1028 1.385 . S
C1032 C1031 1.374 . S
C1033 C1030 1.499 . S
C1033 C1034 1.373 . S
C1033 C1035 1.389 . S
C1034 H1007 0.950 . S
C1034 C1020 1.377 . S
C1034 C1033 1.373 . S
C1035 C1019 1.377 . S
C1035 C1033 1.389 . S
C1035 C1036 1.524 . S
C1036 C1035 1.524 . S
C1036 C1037 1.397 . S
C1036 C1041 1.363 . S
C1037 H1008 0.950 . S
C1037 C1036 1.397 . S
C1037 C1038 1.334 . S
C1038 H1009 0.950 . S
C1038 C1037 1.334 . S
C1038 C1039 1.287 . S
C1039 C1038 1.287 . S
C1039 C1040 1.524 . S
C1039 H1042 0.999 . S
C1040 H1010 0.950 . S
C1040 C1039 1.524 . S
C1040 C1041 1.415 . S
C1041 H1011 0.950 . S
C1041 C1036 1.363 . S
C1041 C1040 1.415 . S
H1042 C1039 0.999 . S
H1043 C1024 0.913 . S
H1044 C1062 0.951 . S
H1045 C1064 0.951 . S
H1046 C1066 0.950 . S
H1047 C1067 0.950 . S
H1048 C1069 0.950 . S
H1049 C1072 0.950 . S
H1050 C1073 0.950 . S
H1051 C1075 0.950 . S
H1052 C1076 0.950 . S
H1053 C1077 0.951 . S
H1054 C1079 0.951 . S
H1055 C1081 0.950 . S
H1056 C1082 0.950 . S
H1057 C1084 0.950 . S
H1058 C1087 0.950 . S
H1059 C1088 0.950 . S
H1060 C1090 0.950 . S
H1061 C1091 0.950 . S
C1062 H1044 0.951 . S
C1062 C1063 1.366 . S
C1062 C1064 1.388 . S
C1063 C1062 1.366 . S
C1063 C1067 1.385 . S
C1064 H1045 0.951 . S
C1064 C1062 1.388 . S
C1064 C1065 1.366 . S
C1065 C1064 1.366 . S
C1065 C1066 1.414 . S
C1065 C1068 1.499 . S
C1066 H1046 0.950 . S
C1066 C1065 1.414 . S
C1066 C1067 1.374 . S
C1067 H1047 0.950 . S
C1067 C1063 1.385 . S
C1067 C1066 1.374 . S
C1068 C1065 1.499 . S
C1068 C1069 1.373 . S
C1068 C1070 1.389 . S
C1069 H1048 0.950 . S
C1069 C1068 1.373 . S
C1069 C1085 1.377 . S
C1070 C1068 1.389 . S
C1070 C1071 1.524 . S
C1070 C1084 1.377 . S
C1071 C1070 1.524 . S
C1071 C1072 1.397 . S
C1071 C1076 1.363 . S
C1072 H1049 0.950 . S
C1072 C1071 1.397 . S
C1072 C1073 1.334 . S
C1073 H1050 0.950 . S
C1073 C1072 1.334 . S
C1073 C1074 1.287 . S
C1074 C1073 1.287 . S
C1074 C1075 1.524 . S
C1074 H1093 0.913 . S
C1075 H1051 0.950 . S
C1075 C1074 1.524 . S
C1075 C1076 1.415 . S
C1076 H1052 0.950 . S
C1076 C1071 1.363 . S
C1076 C1075 1.415 . S
C1077 H1053 0.951 . S
C1077 C1078 1.366 . S
C1077 C1079 1.388 . S
C1078 C1077 1.366 . S
C1078 C1082 1.385 . S
C1079 H1054 0.951 . S
C1079 C1077 1.388 . S
C1079 C1080 1.366 . S
C1080 C1079 1.366 . S
C1080 C1081 1.414 . S
C1080 C1083 1.499 . S
C1081 H1055 0.950 . S
C1081 C1080 1.414 . S
C1081 C1082 1.374 . S
C1082 H1056 0.950 . S
C1082 C1078 1.385 . S
C1082 C1081 1.374 . S
C1083 C1080 1.499 . S
C1083 C1084 1.373 . S
C1083 C1085 1.389 . S
C1084 H1057 0.950 . S
C1084 C1070 1.377 . S
C1084 C1083 1.373 . S
C1085 C1069 1.377 . S
C1085 C1083 1.389 . S
C1085 C1086 1.524 . S
C1086 C1085 1.524 . S
C1086 C1087 1.397 . S
C1086 C1091 1.363 . S
C1087 H1058 0.950 . S
C1087 C1086 1.397 . S
C1087 C1088 1.334 . S
C1088 H1059 0.950 . S
C1088 C1087 1.334 . S
C1088 C1089 1.287 . S
C1089 C1088 1.287 . S
C1089 C1090 1.524 . S
C1089 H1092 0.999 . S
C1090 H1060 0.950 . S
C1090 C1089 1.524 . S
C1090 C1091 1.415 . S
C1091 H1061 0.950 . S
C1091 C1086 1.363 . S
C1091 C1090 1.415 . S
H1092 C1089 0.999 . S
H1093 C1074 0.913 . S
H1094 C1112 0.950 . S
H1095 C1114 0.951 . S
H1096 C1116 0.950 . S
H1097 C1117 0.950 1_554 S
H1098 C1119 0.950 . S
H1099 C1122 0.950 . S
H1100 C1123 0.950 . S
H1101 C1125 0.950 . S
H1102 C1126 0.950 . S
H1103 C1127 0.951 . S
H1104 C1129 0.951 . S
H1105 C1131 0.950 . S
H1106 C1132 0.950 . S
H1107 C1134 0.950 . S
H1108 C1137 0.950 . S
H1109 C1138 0.950 . S
H1110 C1140 0.950 . S
H1111 C1141 0.950 . S
C1112 H1094 0.950 . S
C1112 C1113 1.366 1_556 S
C1112 C1114 1.388 . S
C1113 C1112 1.366 1_554 S
C1113 C1117 1.385 1_554 S
C1114 H1095 0.951 . S
C1114 C1112 1.388 . S
C1114 C1115 1.366 . S
C1115 C1114 1.366 . S
C1115 C1116 1.414 . S
C1115 C1118 1.499 . S
C1116 H1096 0.950 . S
C1116 C1115 1.414 . S
C1116 C1117 1.374 . S
C1117 H1097 0.950 1_556 S
C1117 C1113 1.385 1_556 S
C1117 C1116 1.374 . S
C1118 C1115 1.499 . S
C1118 C1119 1.373 . S
C1118 C1120 1.389 . S
C1119 H1098 0.950 . S
C1119 C1118 1.373 . S
C1119 C1135 1.377 . S
C1120 C1118 1.389 . S
C1120 C1121 1.524 . S
C1120 C1134 1.377 . S
C1121 C1120 1.524 . S
C1121 C1122 1.397 . S
C1121 C1126 1.363 . S
C1122 H1099 0.950 . S
C1122 C1121 1.397 . S
C1122 C1123 1.334 . S
C1123 H1100 0.950 . S
C1123 C1122 1.334 . S
C1123 C1124 1.287 . S
C1124 C1123 1.287 . S
C1124 C1125 1.524 . S
C1124 H1143 0.913 . S
C1125 H1101 0.950 . S
C1125 C1124 1.524 . S
C1125 C1126 1.415 . S
C1126 H1102 0.950 . S
C1126 C1121 1.363 . S
C1126 C1125 1.415 . S
C1127 H1103 0.951 . S
C1127 C1128 1.366 . S
C1127 C1129 1.388 . S
C1128 C1127 1.366 . S
C1128 C1132 1.385 . S
C1129 H1104 0.951 . S
C1129 C1127 1.388 . S
C1129 C1130 1.366 . S
C1130 C1129 1.366 . S
C1130 C1131 1.414 . S
C1130 C1133 1.499 . S
C1131 H1105 0.950 . S
C1131 C1130 1.414 . S
C1131 C1132 1.374 . S
C1132 H1106 0.950 . S
C1132 C1128 1.385 . S
C1132 C1131 1.374 . S
C1133 C1130 1.499 . S
C1133 C1134 1.373 . S
C1133 C1135 1.389 . S
C1134 H1107 0.950 . S
C1134 C1120 1.377 . S
C1134 C1133 1.373 . S
C1135 C1119 1.377 . S
C1135 C1133 1.389 . S
C1135 C1136 1.524 . S
C1136 C1135 1.524 . S
C1136 C1137 1.397 . S
C1136 C1141 1.363 . S
C1137 H1108 0.950 . S
C1137 C1136 1.397 . S
C1137 C1138 1.334 . S
C1138 H1109 0.950 . S
C1138 C1137 1.334 . S
C1138 C1139 1.287 . S
C1139 C1138 1.287 . S
C1139 C1140 1.524 . S
C1139 H1142 0.999 . S
C1140 H1110 0.950 . S
C1140 C1139 1.524 . S
C1140 C1141 1.415 . S
C1141 H1111 0.950 . S
C1141 C1136 1.363 . S
C1141 C1140 1.415 . S
H1142 C1139 0.999 . S
H1143 C1124 0.913 . S
H1144 C1162 0.951 . S
H1145 C1164 0.951 . S
H1146 C1166 0.950 . S
H1147 C1167 0.950 . S
H1148 C1169 0.950 . S
H1149 C1172 0.950 . S
H1150 C1173 0.950 . S
H1151 C1175 0.950 . S
H1152 C1176 0.950 . S
H1153 C1177 0.951 . S
H1154 C1179 0.951 . S
H1155 C1181 0.950 . S
H1156 C1182 0.950 1_554 S
H1157 C1184 0.950 . S
H1158 C1187 0.950 . S
H1159 C1188 0.950 . S
H1160 C1190 0.950 . S
H1161 C1191 0.950 . S
C1162 H1144 0.951 . S
C1162 C1163 1.366 . S
C1162 C1164 1.388 . S
C1163 C1162 1.366 . S
C1163 C1167 1.385 . S
C1164 H1145 0.951 . S
C1164 C1162 1.388 . S
C1164 C1165 1.366 . S
C1165 C1164 1.366 . S
C1165 C1166 1.414 . S
C1165 C1168 1.499 . S
C1166 H1146 0.950 . S
C1166 C1165 1.414 . S
C1166 C1167 1.374 . S
C1167 H1147 0.950 . S
C1167 C1163 1.385 . S
C1167 C1166 1.374 . S
C1168 C1165 1.499 . S
C1168 C1169 1.373 . S
C1168 C1170 1.389 . S
C1169 H1148 0.950 . S
C1169 C1168 1.373 . S
C1169 C1185 1.377 . S
C1170 C1168 1.389 . S
C1170 C1171 1.524 . S
C1170 C1184 1.377 . S
C1171 C1170 1.524 . S
C1171 C1172 1.397 . S
C1171 C1176 1.363 . S
C1172 H1149 0.950 . S
C1172 C1171 1.397 . S
C1172 C1173 1.334 . S
C1173 H1150 0.950 . S
C1173 C1172 1.334 . S
C1173 C1174 1.287 . S
C1174 C1173 1.287 . S
C1174 C1175 1.524 . S
C1174 H1193 0.913 . S
C1175 H1151 0.950 . S
C1175 C1174 1.524 . S
C1175 C1176 1.415 . S
C1176 H1152 0.950 . S
C1176 C1171 1.363 . S
C1176 C1175 1.415 . S
C1177 H1153 0.951 . S
C1177 C1178 1.366 . S
C1177 C1179 1.388 . S
C1178 C1177 1.366 . S
C1178 C1182 1.385 . S
C1179 H1154 0.951 . S
C1179 C1177 1.388 . S
C1179 C1180 1.366 . S
C1180 C1179 1.366 . S
C1180 C1181 1.414 . S
C1180 C1183 1.499 . S
C1181 H1155 0.950 . S
C1181 C1180 1.414 . S
C1181 C1182 1.374 . S
C1182 H1156 0.950 1_556 S
C1182 C1178 1.385 . S
C1182 C1181 1.374 . S
C1183 C1180 1.499 . S
C1183 C1184 1.373 . S
C1183 C1185 1.389 . S
C1184 H1157 0.950 . S
C1184 C1170 1.377 . S
C1184 C1183 1.373 . S
C1185 C1169 1.377 . S
C1185 C1183 1.389 . S
C1185 C1186 1.524 . S
C1186 C1185 1.524 . S
C1186 C1187 1.397 . S
C1186 C1191 1.363 . S
C1187 H1158 0.950 . S
C1187 C1186 1.397 . S
C1187 C1188 1.334 . S
C1188 H1159 0.950 . S
C1188 C1187 1.334 . S
C1188 C1189 1.287 . S
C1189 C1188 1.287 . S
C1189 C1190 1.524 . S
C1189 H1192 0.999 . S
C1190 H1160 0.950 . S
C1190 C1189 1.524 . S
C1190 C1191 1.415 . S
C1191 H1161 0.950 . S
C1191 C1186 1.363 . S
C1191 C1190 1.415 . S
H1192 C1189 0.999 . S
H1193 C1174 0.913 . S
H1194 C1212 0.951 . S
H1195 C1214 0.951 . S
H1196 C1216 0.950 . S
H1197 C1217 0.950 . S
H1198 C1219 0.950 . S
H1199 C1222 0.950 . S
H1200 C1223 0.950 . S
H1201 C1225 0.950 . S
H1202 C1226 0.950 . S
H1203 C1227 0.951 . S
H1204 C1229 0.951 . S
H1205 C1231 0.950 . S
H1206 C1232 0.950 . S
H1207 C1234 0.950 . S
H1208 C1237 0.950 . S
H1209 C1238 0.950 . S
H1210 C1240 0.950 . S
H1211 C1241 0.950 . S
C1212 H1194 0.951 . S
C1212 C1213 1.366 . S
C1212 C1214 1.388 . S
C1213 C1212 1.366 . S
C1213 C1217 1.385 . S
C1214 H1195 0.951 . S
C1214 C1212 1.388 . S
C1214 C1215 1.366 . S
C1215 C1214 1.366 . S
C1215 C1216 1.414 . S
C1215 C1218 1.499 . S
C1216 H1196 0.950 . S
C1216 C1215 1.414 . S
C1216 C1217 1.374 . S
C1217 H1197 0.950 . S
C1217 C1213 1.385 . S
C1217 C1216 1.374 . S
C1218 C1215 1.499 . S
C1218 C1219 1.373 . S
C1218 C1220 1.389 . S
C1219 H1198 0.950 . S
C1219 C1218 1.373 . S
C1219 C1235 1.377 . S
C1220 C1218 1.389 . S
C1220 C1221 1.524 . S
C1220 C1234 1.377 . S
C1221 C1220 1.524 . S
C1221 C1222 1.397 . S
C1221 C1226 1.363 . S
C1222 H1199 0.950 . S
C1222 C1221 1.397 . S
C1222 C1223 1.334 . S
C1223 H1200 0.950 . S
C1223 C1222 1.334 . S
C1223 C1224 1.287 . S
C1224 C1223 1.287 . S
C1224 C1225 1.524 . S
C1224 H1243 0.913 . S
C1225 H1201 0.950 . S
C1225 C1224 1.524 . S
C1225 C1226 1.415 . S
C1226 H1202 0.950 . S
C1226 C1221 1.363 . S
C1226 C1225 1.415 . S
C1227 H1203 0.951 . S
C1227 C1228 1.366 . S
C1227 C1229 1.388 . S
C1228 C1227 1.366 . S
C1228 C1232 1.385 . S
C1229 H1204 0.951 . S
C1229 C1227 1.388 . S
C1229 C1230 1.366 . S
C1230 C1229 1.366 . S
C1230 C1231 1.414 . S
C1230 C1233 1.499 . S
C1231 H1205 0.950 . S
C1231 C1230 1.414 . S
C1231 C1232 1.374 . S
C1232 H1206 0.950 . S
C1232 C1228 1.385 . S
C1232 C1231 1.374 . S
C1233 C1230 1.499 . S
C1233 C1234 1.373 . S
C1233 C1235 1.389 . S
C1234 H1207 0.950 . S
C1234 C1220 1.377 . S
C1234 C1233 1.373 . S
C1235 C1219 1.377 . S
C1235 C1233 1.389 . S
C1235 C1236 1.524 . S
C1236 C1235 1.524 . S
C1236 C1237 1.397 . S
C1236 C1241 1.363 . S
C1237 H1208 0.950 . S
C1237 C1236 1.397 . S
C1237 C1238 1.334 . S
C1238 H1209 0.950 . S
C1238 C1237 1.334 . S
C1238 C1239 1.287 . S
C1239 C1238 1.287 . S
C1239 C1240 1.524 . S
C1239 H1242 0.999 . S
C1240 H1210 0.950 . S
C1240 C1239 1.524 . S
C1240 C1241 1.415 . S
C1241 H1211 0.950 . S
C1241 C1236 1.363 . S
C1241 C1240 1.415 . S
H1242 C1239 0.999 . S
H1243 C1224 0.913 . S
H1244 C1262 0.951 . S
H1245 C1264 0.951 . S
H1246 C1266 0.950 . S
H1247 C1267 0.950 . S
H1248 C1269 0.950 . S
H1249 C1272 0.950 . S
H1250 C1273 0.950 . S
H1251 C1275 0.950 . S
H1252 C1276 0.950 . S
H1253 C1277 0.951 . S
H1254 C1279 0.951 . S
H1255 C1281 0.950 . S
H1256 C1282 0.950 . S
H1257 C1284 0.950 . S
H1258 C1287 0.950 . S
H1259 C1288 0.950 . S
H1260 C1290 0.950 . S
H1261 C1291 0.950 . S
C1262 H1244 0.951 . S
C1262 C1263 1.366 . S
C1262 C1264 1.388 . S
C1263 C1262 1.366 . S
C1263 C1267 1.385 . S
C1264 H1245 0.951 . S
C1264 C1262 1.388 . S
C1264 C1265 1.366 . S
C1265 C1264 1.366 . S
C1265 C1266 1.414 . S
C1265 C1268 1.499 . S
C1266 H1246 0.950 . S
C1266 C1265 1.414 . S
C1266 C1267 1.374 . S
C1267 H1247 0.950 . S
C1267 C1263 1.385 . S
C1267 C1266 1.374 . S
C1268 C1265 1.499 . S
C1268 C1269 1.373 . S
C1268 C1270 1.389 . S
C1269 H1248 0.950 . S
C1269 C1268 1.373 . S
C1269 C1285 1.377 . S
C1270 C1268 1.389 . S
C1270 C1271 1.524 . S
C1270 C1284 1.377 . S
C1271 C1270 1.524 . S
C1271 C1272 1.397 . S
C1271 C1276 1.363 . S
C1272 H1249 0.950 . S
C1272 C1271 1.397 . S
C1272 C1273 1.334 . S
C1273 H1250 0.950 . S
C1273 C1272 1.334 . S
C1273 C1274 1.287 . S
C1274 C1273 1.287 . S
C1274 C1275 1.524 . S
C1274 H1293 0.913 . S
C1275 H1251 0.950 . S
C1275 C1274 1.524 . S
C1275 C1276 1.415 . S
C1276 H1252 0.950 . S
C1276 C1271 1.363 . S
C1276 C1275 1.415 . S
C1277 H1253 0.951 . S
C1277 C1278 1.366 . S
C1277 C1279 1.388 . S
C1278 C1277 1.366 . S
C1278 C1282 1.385 . S
C1279 H1254 0.951 . S
C1279 C1277 1.388 . S
C1279 C1280 1.366 . S
C1280 C1279 1.366 . S
C1280 C1281 1.414 . S
C1280 C1283 1.499 . S
C1281 H1255 0.950 . S
C1281 C1280 1.414 . S
C1281 C1282 1.374 . S
C1282 H1256 0.950 . S
C1282 C1278 1.385 . S
C1282 C1281 1.374 . S
C1283 C1280 1.499 . S
C1283 C1284 1.373 . S
C1283 C1285 1.389 . S
C1284 H1257 0.950 . S
C1284 C1270 1.377 . S
C1284 C1283 1.373 . S
C1285 C1269 1.377 . S
C1285 C1283 1.389 . S
C1285 C1286 1.524 . S
C1286 C1285 1.524 . S
C1286 C1287 1.397 . S
C1286 C1291 1.363 . S
C1287 H1258 0.950 . S
C1287 C1286 1.397 . S
C1287 C1288 1.334 . S
C1288 H1259 0.950 . S
C1288 C1287 1.334 . S
C1288 C1289 1.287 . S
C1289 C1288 1.287 . S
C1289 C1290 1.524 . S
C1289 H1292 0.999 . S
C1290 H1260 0.950 . S
C1290 C1289 1.524 . S
C1290 C1291 1.415 . S
C1291 H1261 0.950 . S
C1291 C1286 1.363 . S
C1291 C1290 1.415 . S
H1292 C1289 0.999 . S
H1293 C1274 0.913 . S
H1294 C1312 0.951 . S
H1295 C1314 0.951 . S
H1296 C1316 0.950 . S
H1297 C1317 0.950 . S
H1298 C1319 0.950 . S
H1299 C1322 0.950 . S
H1300 C1323 0.950 . S
H1301 C1325 0.950 . S
H1302 C1326 0.950 . S
H1303 C1327 0.951 1_556 S
H1304 C1329 0.951 . S
H1305 C1331 0.950 . S
H1306 C1332 0.950 . S
H1307 C1334 0.950 . S
H1308 C1337 0.950 . S
H1309 C1338 0.950 . S
H1310 C1340 0.950 . S
H1311 C1341 0.950 . S
C1312 H1294 0.951 . S
C1312 C1313 1.366 . S
C1312 C1314 1.388 . S
C1313 C1312 1.366 . S
C1313 C1317 1.385 . S
C1314 H1295 0.951 . S
C1314 C1312 1.388 . S
C1314 C1315 1.366 . S
C1315 C1314 1.366 . S
C1315 C1316 1.414 . S
C1315 C1318 1.499 . S
C1316 H1296 0.950 . S
C1316 C1315 1.414 . S
C1316 C1317 1.374 . S
C1317 H1297 0.950 . S
C1317 C1313 1.385 . S
C1317 C1316 1.374 . S
C1318 C1315 1.499 . S
C1318 C1319 1.373 . S
C1318 C1320 1.389 . S
C1319 H1298 0.950 . S
C1319 C1318 1.373 . S
C1319 C1335 1.377 . S
C1320 C1318 1.389 . S
C1320 C1321 1.524 . S
C1320 C1334 1.377 . S
C1321 C1320 1.524 . S
C1321 C1322 1.397 . S
C1321 C1326 1.363 . S
C1322 H1299 0.950 . S
C1322 C1321 1.397 . S
C1322 C1323 1.334 . S
C1323 H1300 0.950 . S
C1323 C1322 1.334 . S
C1323 C1324 1.287 . S
C1324 C1323 1.287 . S
C1324 C1325 1.524 . S
C1324 H1343 0.913 . S
C1325 H1301 0.950 . S
C1325 C1324 1.524 . S
C1325 C1326 1.415 . S
C1326 H1302 0.950 . S
C1326 C1321 1.363 . S
C1326 C1325 1.415 . S
C1327 H1303 0.951 1_554 S
C1327 C1328 1.366 . S
C1327 C1329 1.388 . S
C1328 C1327 1.366 . S
C1328 C1332 1.385 . S
C1329 H1304 0.951 . S
C1329 C1327 1.388 . S
C1329 C1330 1.366 . S
C1330 C1329 1.366 . S
C1330 C1331 1.414 . S
C1330 C1333 1.499 . S
C1331 H1305 0.950 . S
C1331 C1330 1.414 . S
C1331 C1332 1.374 . S
C1332 H1306 0.950 . S
C1332 C1328 1.385 . S
C1332 C1331 1.374 . S
C1333 C1330 1.499 . S
C1333 C1334 1.373 . S
C1333 C1335 1.389 . S
C1334 H1307 0.950 . S
C1334 C1320 1.377 . S
C1334 C1333 1.373 . S
C1335 C1319 1.377 . S
C1335 C1333 1.389 . S
C1335 C1336 1.524 . S
C1336 C1335 1.524 . S
C1336 C1337 1.397 . S
C1336 C1341 1.363 . S
C1337 H1308 0.950 . S
C1337 C1336 1.397 . S
C1337 C1338 1.334 . S
C1338 H1309 0.950 . S
C1338 C1337 1.334 . S
C1338 C1339 1.287 . S
C1339 C1338 1.287 . S
C1339 C1340 1.524 . S
C1339 H1342 0.999 . S
C1340 H1310 0.950 . S
C1340 C1339 1.524 . S
C1340 C1341 1.415 . S
C1341 H1311 0.950 . S
C1341 C1336 1.363 . S
C1341 C1340 1.415 . S
H1342 C1339 0.999 . S
H1343 C1324 0.913 . S
H1344 C1362 0.951 . S
H1345 C1364 0.951 . S
H1346 C1366 0.950 . S
H1347 C1367 0.950 . S
H1348 C1369 0.950 . S
H1349 C1372 0.950 . S
H1350 C1373 0.950 . S
H1351 C1375 0.950 . S
H1352 C1376 0.950 . S
H1353 C1377 0.951 . S
H1354 C1379 0.951 . S
H1355 C1381 0.950 . S
H1356 C1382 0.950 . S
H1357 C1384 0.950 . S
H1358 C1387 0.950 . S
H1359 C1388 0.950 . S
H1360 C1390 0.950 . S
H1361 C1391 0.950 . S
C1362 H1344 0.951 . S
C1362 C1363 1.366 . S
C1362 C1364 1.388 . S
C1363 C1362 1.366 . S
C1363 C1367 1.385 . S
C1364 H1345 0.951 . S
C1364 C1362 1.388 . S
C1364 C1365 1.366 . S
C1365 C1364 1.366 . S
C1365 C1366 1.414 . S
C1365 C1368 1.499 . S
C1366 H1346 0.950 . S
C1366 C1365 1.414 . S
C1366 C1367 1.374 . S
C1367 H1347 0.950 . S
C1367 C1363 1.385 . S
C1367 C1366 1.374 . S
C1368 C1365 1.499 . S
C1368 C1369 1.373 . S
C1368 C1370 1.389 . S
C1369 H1348 0.950 . S
C1369 C1368 1.373 . S
C1369 C1385 1.377 . S
C1370 C1368 1.389 . S
C1370 C1371 1.524 . S
C1370 C1384 1.377 . S
C1371 C1370 1.524 . S
C1371 C1372 1.397 . S
C1371 C1376 1.363 . S
C1372 H1349 0.950 . S
C1372 C1371 1.397 . S
C1372 C1373 1.334 . S
C1373 H1350 0.950 . S
C1373 C1372 1.334 . S
C1373 C1374 1.287 . S
C1374 C1373 1.287 . S
C1374 C1375 1.524 . S
C1374 H1393 0.913 . S
C1375 H1351 0.950 . S
C1375 C1374 1.524 . S
C1375 C1376 1.415 . S
C1376 H1352 0.950 . S
C1376 C1371 1.363 . S
C1376 C1375 1.415 . S
C1377 H1353 0.951 . S
C1377 C1378 1.366 . S
C1377 C1379 1.388 . S
C1378 C1377 1.366 . S
C1378 C1382 1.385 . S
C1379 H1354 0.951 . S
C1379 C1377 1.388 . S
C1379 C1380 1.366 . S
C1380 C1379 1.366 . S
C1380 C1381 1.414 . S
C1380 C1383 1.499 . S
C1381 H1355 0.950 . S
C1381 C1380 1.414 . S
C1381 C1382 1.374 . S
C1382 H1356 0.950 . S
C1382 C1378 1.385 . S
C1382 C1381 1.374 . S
C1383 C1380 1.499 . S
C1383 C1384 1.373 . S
C1383 C1385 1.389 . S
C1384 H1357 0.950 . S
C1384 C1370 1.377 . S
C1384 C1383 1.373 . S
C1385 C1369 1.377 . S
C1385 C1383 1.389 . S
C1385 C1386 1.524 . S
C1386 C1385 1.524 . S
C1386 C1387 1.397 . S
C1386 C1391 1.363 . S
C1387 H1358 0.950 . S
C1387 C1386 1.397 . S
C1387 C1388 1.334 . S
C1388 H1359 0.950 . S
C1388 C1387 1.334 . S
C1388 C1389 1.287 . S
C1389 C1388 1.287 . S
C1389 C1390 1.524 . S
C1389 H1392 0.999 . S
C1390 H1360 0.950 . S
C1390 C1389 1.524 . S
C1390 C1391 1.415 . S
C1391 H1361 0.950 . S
C1391 C1386 1.363 . S
C1391 C1390 1.415 . S
H1392 C1389 0.999 . S
H1393 C1374 0.913 . S
H1394 C1412 0.951 . S
H1395 C1414 0.951 . S
H1396 C1416 0.950 . S
H1397 C1417 0.950 . S
H1398 C1419 0.950 . S
H1399 C1422 0.950 . S
H1400 C1423 0.950 . S
H1401 C1425 0.950 . S
H1402 C1426 0.950 . S
H1403 C1427 0.951 . S
H1404 C1429 0.951 . S
H1405 C1431 0.950 . S
H1406 C1432 0.950 . S
H1407 C1434 0.950 . S
H1408 C1437 0.950 . S
H1409 C1438 0.950 . S
H1410 C1440 0.950 . S
H1411 C1441 0.950 . S
C1412 H1394 0.951 . S
C1412 C1413 1.366 1_556 S
C1412 C1414 1.388 . S
C1413 C1412 1.366 1_554 S
C1413 C1417 1.385 . S
C1414 H1395 0.951 . S
C1414 C1412 1.388 . S
C1414 C1415 1.366 . S
C1415 C1414 1.366 . S
C1415 C1416 1.414 . S
C1415 C1418 1.499 . S
C1416 H1396 0.950 . S
C1416 C1415 1.414 . S
C1416 C1417 1.374 1_556 S
C1417 H1397 0.950 . S
C1417 C1413 1.385 . S
C1417 C1416 1.374 1_554 S
C1418 C1415 1.499 . S
C1418 C1419 1.373 . S
C1418 C1420 1.389 . S
C1419 H1398 0.950 . S
C1419 C1418 1.373 . S
C1419 C1435 1.377 . S
C1420 C1418 1.389 . S
C1420 C1421 1.524 . S
C1420 C1434 1.377 . S
C1421 C1420 1.524 . S
C1421 C1422 1.397 . S
C1421 C1426 1.363 . S
C1422 H1399 0.950 . S
C1422 C1421 1.397 . S
C1422 C1423 1.334 . S
C1423 H1400 0.950 . S
C1423 C1422 1.334 . S
C1423 C1424 1.287 . S
C1424 C1423 1.287 . S
C1424 C1425 1.524 . S
C1424 H1443 0.913 . S
C1425 H1401 0.950 . S
C1425 C1424 1.524 . S
C1425 C1426 1.415 . S
C1426 H1402 0.950 . S
C1426 C1421 1.363 . S
C1426 C1425 1.415 . S
C1427 H1403 0.951 . S
C1427 C1428 1.366 . S
C1427 C1429 1.388 . S
C1428 C1427 1.366 . S
C1428 C1432 1.385 . S
C1429 H1404 0.951 . S
C1429 C1427 1.388 . S
C1429 C1430 1.366 . S
C1430 C1429 1.366 . S
C1430 C1431 1.414 . S
C1430 C1433 1.499 . S
C1431 H1405 0.950 . S
C1431 C1430 1.414 . S
C1431 C1432 1.374 . S
C1432 H1406 0.950 . S
C1432 C1428 1.385 . S
C1432 C1431 1.374 . S
C1433 C1430 1.499 . S
C1433 C1434 1.373 . S
C1433 C1435 1.389 . S
C1434 H1407 0.950 . S
C1434 C1420 1.377 . S
C1434 C1433 1.373 . S
C1435 C1419 1.377 . S
C1435 C1433 1.389 . S
C1435 C1436 1.524 . S
C1436 C1435 1.524 . S
C1436 C1437 1.397 . S
C1436 C1441 1.363 . S
C1437 H1408 0.950 . S
C1437 C1436 1.397 . S
C1437 C1438 1.334 . S
C1438 H1409 0.950 . S
C1438 C1437 1.334 . S
C1438 C1439 1.287 . S
C1439 C1438 1.287 . S
C1439 C1440 1.524 . S
C1439 H1442 0.999 . S
C1440 H1410 0.950 . S
C1440 C1439 1.524 . S
C1440 C1441 1.415 . S
C1441 H1411 0.950 . S
C1441 C1436 1.363 . S
C1441 C1440 1.415 . S
H1442 C1439 0.999 . S
H1443 C1424 0.913 . S
H1444 C1462 0.951 . S
H1445 C1464 0.951 . S
H1446 C1466 0.950 . S
H1447 C1467 0.950 . S
H1448 C1469 0.950 . S
H1449 C1472 0.950 . S
H1450 C1473 0.950 . S
H1451 C1475 0.950 . S
H1452 C1476 0.950 . S
H1453 C1477 0.951 . S
H1454 C1479 0.951 . S
H1455 C1481 0.950 . S
H1456 C1482 0.950 . S
H1457 C1484 0.950 . S
H1458 C1487 0.950 . S
H1459 C1488 0.950 . S
H1460 C1490 0.950 . S
H1461 C1491 0.950 . S
C1462 H1444 0.951 . S
C1462 C1463 1.366 1_554 S
C1462 C1464 1.388 . S
C1463 C1462 1.366 1_556 S
C1463 C1467 1.385 . S
C1464 H1445 0.951 . S
C1464 C1462 1.388 . S
C1464 C1465 1.366 . S
C1465 C1464 1.366 . S
C1465 C1466 1.414 . S
C1465 C1468 1.499 . S
C1466 H1446 0.950 . S
C1466 C1465 1.414 . S
C1466 C1467 1.374 1_554 S
C1467 H1447 0.950 . S
C1467 C1463 1.385 . S
C1467 C1466 1.374 1_556 S
C1468 C1465 1.499 . S
C1468 C1469 1.373 . S
C1468 C1470 1.389 . S
C1469 H1448 0.950 . S
C1469 C1468 1.373 . S
C1469 C1485 1.377 . S
C1470 C1468 1.389 . S
C1470 C1471 1.524 . S
C1470 C1484 1.377 . S
C1471 C1470 1.524 . S
C1471 C1472 1.397 . S
C1471 C1476 1.363 . S
C1472 H1449 0.950 . S
C1472 C1471 1.397 . S
C1472 C1473 1.334 . S
C1473 H1450 0.950 . S
C1473 C1472 1.334 . S
C1473 C1474 1.287 . S
C1474 C1473 1.287 . S
C1474 C1475 1.524 . S
C1474 H1493 0.913 . S
C1475 H1451 0.950 . S
C1475 C1474 1.524 . S
C1475 C1476 1.415 . S
C1476 H1452 0.950 . S
C1476 C1471 1.363 . S
C1476 C1475 1.415 . S
C1477 H1453 0.951 . S
C1477 C1478 1.366 . S
C1477 C1479 1.388 . S
C1478 C1477 1.366 . S
C1478 C1482 1.385 . S
C1479 H1454 0.951 . S
C1479 C1477 1.388 . S
C1479 C1480 1.366 . S
C1480 C1479 1.366 . S
C1480 C1481 1.414 . S
C1480 C1483 1.499 . S
C1481 H1455 0.950 . S
C1481 C1480 1.414 . S
C1481 C1482 1.374 . S
C1482 H1456 0.950 . S
C1482 C1478 1.385 . S
C1482 C1481 1.374 . S
C1483 C1480 1.499 . S
C1483 C1484 1.373 . S
C1483 C1485 1.389 . S
C1484 H1457 0.950 . S
C1484 C1470 1.377 . S
C1484 C1483 1.373 . S
C1485 C1469 1.377 . S
C1485 C1483 1.389 . S
C1485 C1486 1.524 . S
C1486 C1485 1.524 . S
C1486 C1487 1.397 . S
C1486 C1491 1.363 . S
C1487 H1458 0.950 . S
C1487 C1486 1.397 . S
C1487 C1488 1.334 . S
C1488 H1459 0.950 . S
C1488 C1487 1.334 . S
C1488 C1489 1.287 . S
C1489 C1488 1.287 . S
C1489 C1490 1.524 . S
C1489 H1492 0.999 . S
C1490 H1460 0.950 . S
C1490 C1489 1.524 . S
C1490 C1491 1.415 . S
C1491 H1461 0.950 . S
C1491 C1486 1.363 . S
C1491 C1490 1.415 . S
H1492 C1489 0.999 . S
H1493 C1474 0.913 . S
H1494 C1512 0.951 . S
H1495 C1514 0.951 . S
H1496 C1516 0.950 . S
H1497 C1517 0.950 . S
H1498 C1519 0.950 . S
H1499 C1522 0.950 . S
H1500 C1523 0.950 . S
H1501 C1525 0.950 . S
H1502 C1526 0.950 . S
H1503 C1527 0.951 . S
H1504 C1529 0.951 . S
H1505 C1531 0.950 . S
H1506 C1532 0.950 . S
H1507 C1534 0.950 . S
H1508 C1537 0.950 . S
H1509 C1538 0.950 . S
H1510 C1540 0.950 . S
H1511 C1541 0.950 . S
C1512 H1494 0.951 . S
C1512 C1513 1.366 . S
C1512 C1514 1.388 . S
C1513 C1512 1.366 . S
C1513 C1517 1.385 . S
C1514 H1495 0.951 . S
C1514 C1512 1.388 . S
C1514 C1515 1.366 . S
C1515 C1514 1.366 . S
C1515 C1516 1.414 . S
C1515 C1518 1.499 . S
C1516 H1496 0.950 . S
C1516 C1515 1.414 . S
C1516 C1517 1.374 . S
C1517 H1497 0.950 . S
C1517 C1513 1.385 . S
C1517 C1516 1.374 . S
C1518 C1515 1.499 . S
C1518 C1519 1.373 . S
C1518 C1520 1.389 . S
C1519 H1498 0.950 . S
C1519 C1518 1.373 . S
C1519 C1535 1.377 . S
C1520 C1518 1.389 . S
C1520 C1521 1.524 . S
C1520 C1534 1.377 . S
C1521 C1520 1.524 . S
C1521 C1522 1.397 . S
C1521 C1526 1.363 . S
C1522 H1499 0.950 . S
C1522 C1521 1.397 . S
C1522 C1523 1.334 . S
C1523 H1500 0.950 . S
C1523 C1522 1.334 . S
C1523 C1524 1.287 . S
C1524 C1523 1.287 . S
C1524 C1525 1.524 . S
C1524 H1543 0.913 . S
C1525 H1501 0.950 . S
C1525 C1524 1.524 . S
C1525 C1526 1.415 . S
C1526 H1502 0.950 . S
C1526 C1521 1.363 . S
C1526 C1525 1.415 . S
C1527 H1503 0.951 . S
C1527 C1528 1.366 . S
C1527 C1529 1.388 . S
C1528 C1527 1.366 . S
C1528 C1532 1.385 . S
C1529 H1504 0.951 . S
C1529 C1527 1.388 . S
C1529 C1530 1.366 . S
C1530 C1529 1.366 . S
C1530 C1531 1.414 . S
C1530 C1533 1.499 . S
C1531 H1505 0.950 . S
C1531 C1530 1.414 . S
C1531 C1532 1.374 . S
C1532 H1506 0.950 . S
C1532 C1528 1.385 . S
C1532 C1531 1.374 . S
C1533 C1530 1.499 . S
C1533 C1534 1.373 . S
C1533 C1535 1.389 . S
C1534 H1507 0.950 . S
C1534 C1520 1.377 . S
C1534 C1533 1.373 . S
C1535 C1519 1.377 . S
C1535 C1533 1.389 . S
C1535 C1536 1.524 . S
C1536 C1535 1.524 . S
C1536 C1537 1.397 . S
C1536 C1541 1.363 . S
C1537 H1508 0.950 . S
C1537 C1536 1.397 . S
C1537 C1538 1.334 . S
C1538 H1509 0.950 . S
C1538 C1537 1.334 . S
C1538 C1539 1.287 . S
C1539 C1538 1.287 . S
C1539 C1540 1.524 . S
C1539 H1542 0.999 . S
C1540 H1510 0.950 . S
C1540 C1539 1.524 . S
C1540 C1541 1.415 . S
C1541 H1511 0.950 . S
C1541 C1536 1.363 . S
C1541 C1540 1.415 . S
H1542 C1539 0.999 . S
H1543 C1524 0.913 . S
H1544 C1562 0.951 . S
H1545 C1564 0.951 . S
H1546 C1566 0.950 . S
H1547 C1567 0.950 . S
H1548 C1569 0.950 . S
H1549 C1572 0.950 . S
H1550 C1573 0.950 . S
H1551 C1575 0.950 . S
H1552 C1576 0.950 . S
H1553 C1577 0.951 . S
H1554 C1579 0.951 . S
H1555 C1581 0.950 . S
H1556 C1582 0.950 . S
H1557 C1584 0.950 . S
H1558 C1587 0.950 . S
H1559 C1588 0.950 . S
H1560 C1590 0.950 . S
H1561 C1591 0.950 . S
C1562 H1544 0.951 . S
C1562 C1563 1.366 . S
C1562 C1564 1.388 . S
C1563 C1562 1.366 . S
C1563 C1567 1.385 . S
C1564 H1545 0.951 . S
C1564 C1562 1.388 . S
C1564 C1565 1.366 . S
C1565 C1564 1.366 . S
C1565 C1566 1.414 . S
C1565 C1568 1.499 . S
C1566 H1546 0.950 . S
C1566 C1565 1.414 . S
C1566 C1567 1.374 . S
C1567 H1547 0.950 . S
C1567 C1563 1.385 . S
C1567 C1566 1.374 . S
C1568 C1565 1.499 . S
C1568 C1569 1.373 . S
C1568 C1570 1.389 . S
C1569 H1548 0.950 . S
C1569 C1568 1.373 . S
C1569 C1585 1.377 . S
C1570 C1568 1.389 . S
C1570 C1571 1.524 . S
C1570 C1584 1.377 . S
C1571 C1570 1.524 . S
C1571 C1572 1.397 . S
C1571 C1576 1.363 . S
C1572 H1549 0.950 . S
C1572 C1571 1.397 . S
C1572 C1573 1.334 . S
C1573 H1550 0.950 . S
C1573 C1572 1.334 . S
C1573 C1574 1.287 . S
C1574 C1573 1.287 . S
C1574 C1575 1.524 . S
C1574 H1593 0.913 . S
C1575 H1551 0.950 . S
C1575 C1574 1.524 . S
C1575 C1576 1.415 . S
C1576 H1552 0.950 . S
C1576 C1571 1.363 . S
C1576 C1575 1.415 . S
C1577 H1553 0.951 . S
C1577 C1578 1.366 . S
C1577 C1579 1.388 . S
C1578 C1577 1.366 . S
C1578 C1582 1.385 . S
C1579 H1554 0.951 . S
C1579 C1577 1.388 . S
C1579 C1580 1.366 . S
C1580 C1579 1.366 . S
C1580 C1581 1.414 . S
C1580 C1583 1.499 . S
C1581 H1555 0.950 . S
C1581 C1580 1.414 . S
C1581 C1582 1.374 . S
C1582 H1556 0.950 . S
C1582 C1578 1.385 . S
C1582 C1581 1.374 . S
C1583 C1580 1.499 . S
C1583 C1584 1.373 . S
C1583 C1585 1.389 . S
C1584 H1557 0.950 . S
C1584 C1570 1.377 . S
C1584 C1583 1.373 . S
C1585 C1569 1.377 . S
C1585 C1583 1.389 . S
C1585 C1586 1.524 . S
C1586 C1585 1.524 . S
C1586 C1587 1.397 . S
C1586 C1591 1.363 . S
C1587 H1558 0.950 . S
C1587 C1586 1.397 . S
C1587 C1588 1.334 . S
C1588 H1559 0.950 . S
C1588 C1587 1.334 . S
C1588 C1589 1.287 . S
C1589 C1588 1.287 . S
C1589 C1590 1.524 . S
C1589 H1592 0.999 . S
C1590 H1560 0.950 . S
C1590 C1589 1.524 . S
C1590 C1591 1.415 . S
C1591 H1561 0.950 . S
C1591 C1586 1.363 . S
C1591 C1590 1.415 . S
H1592 C1589 0.999 . S
H1593 C1574 0.913 . S
H1594 C1612 0.951 . S
H1595 C1614 0.951 . S
H1596 C1616 0.950 . S
H1597 C1617 0.950 1_556 S
H1598 C1619 0.950 . S
H1599 C1622 0.950 . S
H1600 C1623 0.950 . S
H1601 C1625 0.950 . S
H1602 C1626 0.950 . S
H1603 C1627 0.951 . S
H1604 C1629 0.951 . S
H1605 C1631 0.950 . S
H1606 C1632 0.950 . S
H1607 C1634 0.950 . S
H1608 C1637 0.950 . S
H1609 C1638 0.950 . S
H1610 C1640 0.950 . S
H1611 C1641 0.950 . S
C1612 H1594 0.951 . S
C1612 C1613 1.366 . S
C1612 C1614 1.388 . S
C1613 C1612 1.366 . S
C1613 C1617 1.385 . S
C1614 H1595 0.951 . S
C1614 C1612 1.388 . S
C1614 C1615 1.366 . S
C1615 C1614 1.366 . S
C1615 C1616 1.414 . S
C1615 C1618 1.499 . S
C1616 H1596 0.950 . S
C1616 C1615 1.414 . S
C1616 C1617 1.374 . S
C1617 H1597 0.950 1_554 S
C1617 C1613 1.385 . S
C1617 C1616 1.374 . S
C1618 C1615 1.499 . S
C1618 C1619 1.373 . S
C1618 C1620 1.389 . S
C1619 H1598 0.950 . S
C1619 C1618 1.373 . S
C1619 C1635 1.377 . S
C1620 C1618 1.389 . S
C1620 C1621 1.524 . S
C1620 C1634 1.377 . S
C1621 C1620 1.524 . S
C1621 C1622 1.397 . S
C1621 C1626 1.363 . S
C1622 H1599 0.950 . S
C1622 C1621 1.397 . S
C1622 C1623 1.334 . S
C1623 H1600 0.950 . S
C1623 C1622 1.334 . S
C1623 C1624 1.287 . S
C1624 C1623 1.287 . S
C1624 C1625 1.524 . S
C1624 H1643 0.913 . S
C1625 H1601 0.950 . S
C1625 C1624 1.524 . S
C1625 C1626 1.415 . S
C1626 H1602 0.950 . S
C1626 C1621 1.363 . S
C1626 C1625 1.415 . S
C1627 H1603 0.951 . S
C1627 C1628 1.366 . S
C1627 C1629 1.388 . S
C1628 C1627 1.366 . S
C1628 C1632 1.385 . S
C1629 H1604 0.951 . S
C1629 C1627 1.388 . S
C1629 C1630 1.366 . S
C1630 C1629 1.366 . S
C1630 C1631 1.414 . S
C1630 C1633 1.499 . S
C1631 H1605 0.950 . S
C1631 C1630 1.414 . S
C1631 C1632 1.374 . S
C1632 H1606 0.950 . S
C1632 C1628 1.385 . S
C1632 C1631 1.374 . S
C1633 C1630 1.499 . S
C1633 C1634 1.373 . S
C1633 C1635 1.389 . S
C1634 H1607 0.950 . S
C1634 C1620 1.377 . S
C1634 C1633 1.373 . S
C1635 C1619 1.377 . S
C1635 C1633 1.389 . S
C1635 C1636 1.524 . S
C1636 C1635 1.524 . S
C1636 C1637 1.397 . S
C1636 C1641 1.363 . S
C1637 H1608 0.950 . S
C1637 C1636 1.397 . S
C1637 C1638 1.334 . S
C1638 H1609 0.950 . S
C1638 C1637 1.334 . S
C1638 C1639 1.287 . S
C1639 C1638 1.287 . S
C1639 C1640 1.524 . S
C1639 H1642 0.999 . S
C1640 H1610 0.950 . S
C1640 C1639 1.524 . S
C1640 C1641 1.415 . S
C1641 H1611 0.950 . S
C1641 C1636 1.363 . S
C1641 C1640 1.415 . S
H1642 C1639 0.999 . S
H1643 C1624 0.913 . S
H1644 C1662 0.951 . S
H1645 C1664 0.951 . S
H1646 C1666 0.950 . S
H1647 C1667 0.950 . S
H1648 C1669 0.950 . S
H1649 C1672 0.950 . S
H1650 C1673 0.950 . S
H1651 C1675 0.950 . S
H1652 C1676 0.950 . S
H1653 C1677 0.951 . S
H1654 C1679 0.951 . S
H1655 C1681 0.950 . S
H1656 C1682 0.950 . S
H1657 C1684 0.950 . S
H1658 C1687 0.950 . S
H1659 C1688 0.950 . S
H1660 C1690 0.950 . S
H1661 C1691 0.950 . S
C1662 H1644 0.951 . S
C1662 C1663 1.366 . S
C1662 C1664 1.388 . S
C1663 C1662 1.366 . S
C1663 C1667 1.385 1_556 S
C1664 H1645 0.951 . S
C1664 C1662 1.388 . S
C1664 C1665 1.366 . S
C1665 C1664 1.366 . S
C1665 C1666 1.414 . S
C1665 C1668 1.499 . S
C1666 H1646 0.950 . S
C1666 C1665 1.414 . S
C1666 C1667 1.374 1_556 S
C1667 H1647 0.950 . S
C1667 C1663 1.385 1_554 S
C1667 C1666 1.374 1_554 S
C1668 C1665 1.499 . S
C1668 C1669 1.373 . S
C1668 C1670 1.389 . S
C1669 H1648 0.950 . S
C1669 C1668 1.373 . S
C1669 C1685 1.377 . S
C1670 C1668 1.389 . S
C1670 C1671 1.524 . S
C1670 C1684 1.377 . S
C1671 C1670 1.524 . S
C1671 C1672 1.397 . S
C1671 C1676 1.363 . S
C1672 H1649 0.950 . S
C1672 C1671 1.397 . S
C1672 C1673 1.334 . S
C1673 H1650 0.950 . S
C1673 C1672 1.334 . S
C1673 C1674 1.287 . S
C1674 C1673 1.287 . S
C1674 C1675 1.524 . S
C1674 H1693 0.913 . S
C1675 H1651 0.950 . S
C1675 C1674 1.524 . S
C1675 C1676 1.415 . S
C1676 H1652 0.950 . S
C1676 C1671 1.363 . S
C1676 C1675 1.415 . S
C1677 H1653 0.951 . S
C1677 C1678 1.366 . S
C1677 C1679 1.388 . S
C1678 C1677 1.366 . S
C1678 C1682 1.385 . S
C1679 H1654 0.951 . S
C1679 C1677 1.388 . S
C1679 C1680 1.366 . S
C1680 C1679 1.366 . S
C1680 C1681 1.414 . S
C1680 C1683 1.499 . S
C1681 H1655 0.950 . S
C1681 C1680 1.414 . S
C1681 C1682 1.374 . S
C1682 H1656 0.950 . S
C1682 C1678 1.385 . S
C1682 C1681 1.374 . S
C1683 C1680 1.499 . S
C1683 C1684 1.373 . S
C1683 C1685 1.389 . S
C1684 H1657 0.950 . S
C1684 C1670 1.377 . S
C1684 C1683 1.373 . S
C1685 C1669 1.377 . S
C1685 C1683 1.389 . S
C1685 C1686 1.524 . S
C1686 C1685 1.524 . S
C1686 C1687 1.397 . S
C1686 C1691 1.363 . S
C1687 H1658 0.950 . S
C1687 C1686 1.397 . S
C1687 C1688 1.334 . S
C1688 H1659 0.950 . S
C1688 C1687 1.334 . S
C1688 C1689 1.287 . S
C1689 C1688 1.287 . S
C1689 C1690 1.524 . S
C1689 H1692 0.999 . S
C1690 H1660 0.950 . S
C1690 C1689 1.524 . S
C1690 C1691 1.415 . S
C1691 H1661 0.950 . S
C1691 C1686 1.363 . S
C1691 C1690 1.415 . S
H1692 C1689 0.999 . S
H1693 C1674 0.913 . S
H1694 C1712 0.951 . S
H1695 C1714 0.951 . S
H1696 C1716 0.950 . S
H1697 C1717 0.950 . S
H1698 C1719 0.950 . S
H1699 C1722 0.950 . S
H1700 C1723 0.950 . S
H1701 C1725 0.950 . S
H1702 C1726 0.950 . S
H1703 C1727 0.951 . S
H1704 C1729 0.951 . S
H1705 C1731 0.950 . S
H1706 C1732 0.950 . S
H1707 C1734 0.950 . S
H1708 C1737 0.950 . S
H1709 C1738 0.950 . S
H1710 C1740 0.950 . S
H1711 C1741 0.950 . S
C1712 H1694 0.951 . S
C1712 C1713 1.366 . S
C1712 C1714 1.388 . S
C1713 C1712 1.366 . S
C1713 C1717 1.385 . S
C1714 H1695 0.951 . S
C1714 C1712 1.388 . S
C1714 C1715 1.366 . S
C1715 C1714 1.366 . S
C1715 C1716 1.414 . S
C1715 C1718 1.499 . S
C1716 H1696 0.950 . S
C1716 C1715 1.414 . S
C1716 C1717 1.374 . S
C1717 H1697 0.950 . S
C1717 C1713 1.385 . S
C1717 C1716 1.374 . S
C1718 C1715 1.499 . S
C1718 C1719 1.373 . S
C1718 C1720 1.389 . S
C1719 H1698 0.950 . S
C1719 C1718 1.373 . S
C1719 C1735 1.377 . S
C1720 C1718 1.389 . S
C1720 C1721 1.524 . S
C1720 C1734 1.377 . S
C1721 C1720 1.524 . S
C1721 C1722 1.397 . S
C1721 C1726 1.363 . S
C1722 H1699 0.950 . S
C1722 C1721 1.397 . S
C1722 C1723 1.334 . S
C1723 H1700 0.950 . S
C1723 C1722 1.334 . S
C1723 C1724 1.287 . S
C1724 C1723 1.287 . S
C1724 C1725 1.524 . S
C1724 H1743 0.913 . S
C1725 H1701 0.950 . S
C1725 C1724 1.524 . S
C1725 C1726 1.415 . S
C1726 H1702 0.950 . S
C1726 C1721 1.363 . S
C1726 C1725 1.415 . S
C1727 H1703 0.951 . S
C1727 C1728 1.366 . S
C1727 C1729 1.388 . S
C1728 C1727 1.366 . S
C1728 C1732 1.385 . S
C1729 H1704 0.951 . S
C1729 C1727 1.388 . S
C1729 C1730 1.366 . S
C1730 C1729 1.366 . S
C1730 C1731 1.414 . S
C1730 C1733 1.499 . S
C1731 H1705 0.950 . S
C1731 C1730 1.414 . S
C1731 C1732 1.374 . S
C1732 H1706 0.950 . S
C1732 C1728 1.385 . S
C1732 C1731 1.374 . S
C1733 C1730 1.499 . S
C1733 C1734 1.373 . S
C1733 C1735 1.389 . S
C1734 H1707 0.950 . S
C1734 C1720 1.377 . S
C1734 C1733 1.373 . S
C1735 C1719 1.377 . S
C1735 C1733 1.389 . S
C1735 C1736 1.524 . S
C1736 C1735 1.524 . S
C1736 C1737 1.397 . S
C1736 C1741 1.363 . S
C1737 H1708 0.950 . S
C1737 C1736 1.397 . S
C1737 C1738 1.334 . S
C1738 H1709 0.950 . S
C1738 C1737 1.334 . S
C1738 C1739 1.287 . S
C1739 C1738 1.287 . S
C1739 C1740 1.524 . S
C1739 H1742 0.999 . S
C1740 H1710 0.950 . S
C1740 C1739 1.524 . S
C1740 C1741 1.415 . S
C1741 H1711 0.950 . S
C1741 C1736 1.363 . S
C1741 C1740 1.415 . S
H1742 C1739 0.999 . S
H1743 C1724 0.913 . S
H1744 C1762 0.951 . S
H1745 C1764 0.951 . S
H1746 C1766 0.950 . S
H1747 C1767 0.950 . S
H1748 C1769 0.950 . S
H1749 C1772 0.950 . S
H1750 C1773 0.950 . S
H1751 C1775 0.950 . S
H1752 C1776 0.950 . S
H1753 C1777 0.951 . S
H1754 C1779 0.951 . S
H1755 C1781 0.950 . S
H1756 C1782 0.950 . S
H1757 C1784 0.950 . S
H1758 C1787 0.950 . S
H1759 C1788 0.950 . S
H1760 C1790 0.950 . S
H1761 C1791 0.950 . S
C1762 H1744 0.951 . S
C1762 C1763 1.366 . S
C1762 C1764 1.388 . S
C1763 C1762 1.366 . S
C1763 C1767 1.385 . S
C1764 H1745 0.951 . S
C1764 C1762 1.388 . S
C1764 C1765 1.366 . S
C1765 C1764 1.366 . S
C1765 C1766 1.414 . S
C1765 C1768 1.499 . S
C1766 H1746 0.950 . S
C1766 C1765 1.414 . S
C1766 C1767 1.374 . S
C1767 H1747 0.950 . S
C1767 C1763 1.385 . S
C1767 C1766 1.374 . S
C1768 C1765 1.499 . S
C1768 C1769 1.373 . S
C1768 C1770 1.389 . S
C1769 H1748 0.950 . S
C1769 C1768 1.373 . S
C1769 C1785 1.377 . S
C1770 C1768 1.389 . S
C1770 C1771 1.524 . S
C1770 C1784 1.377 . S
C1771 C1770 1.524 . S
C1771 C1772 1.397 . S
C1771 C1776 1.363 . S
C1772 H1749 0.950 . S
C1772 C1771 1.397 . S
C1772 C1773 1.334 . S
C1773 H1750 0.950 . S
C1773 C1772 1.334 . S
C1773 C1774 1.287 . S
C1774 C1773 1.287 . S
C1774 C1775 1.524 . S
C1774 H1793 0.913 . S
C1775 H1751 0.950 . S
C1775 C1774 1.524 . S
C1775 C1776 1.415 . S
C1776 H1752 0.950 . S
C1776 C1771 1.363 . S
C1776 C1775 1.415 . S
C1777 H1753 0.951 . S
C1777 C1778 1.366 . S
C1777 C1779 1.388 . S
C1778 C1777 1.366 . S
C1778 C1782 1.385 . S
C1779 H1754 0.951 . S
C1779 C1777 1.388 . S
C1779 C1780 1.366 . S
C1780 C1779 1.366 . S
C1780 C1781 1.414 . S
C1780 C1783 1.499 . S
C1781 H1755 0.950 . S
C1781 C1780 1.414 . S
C1781 C1782 1.374 . S
C1782 H1756 0.950 . S
C1782 C1778 1.385 . S
C1782 C1781 1.374 . S
C1783 C1780 1.499 . S
C1783 C1784 1.373 . S
C1783 C1785 1.389 . S
C1784 H1757 0.950 . S
C1784 C1770 1.377 . S
C1784 C1783 1.373 . S
C1785 C1769 1.377 . S
C1785 C1783 1.389 . S
C1785 C1786 1.524 . S
C1786 C1785 1.524 . S
C1786 C1787 1.397 . S
C1786 C1791 1.363 . S
C1787 H1758 0.950 . S
C1787 C1786 1.397 . S
C1787 C1788 1.334 . S
C1788 H1759 0.950 . S
C1788 C1787 1.334 . S
C1788 C1789 1.287 . S
C1789 C1788 1.287 . S
C1789 C1790 1.524 . S
C1789 H1792 0.999 . S
C1790 H1760 0.950 . S
C1790 C1789 1.524 . S
C1790 C1791 1.415 . S
C1791 H1761 0.950 . S
C1791 C1786 1.363 . S
C1791 C1790 1.415 . S
H1792 C1789 0.999 . S
H1793 C1774 0.913 . S
H1794 C1812 0.951 1_554 S
H1795 C1814 0.951 . S
H1796 C1816 0.950 . S
H1797 C1817 0.950 . S
H1798 C1819 0.950 . S
H1799 C1822 0.950 . S
H1800 C1823 0.950 . S
H1801 C1825 0.950 . S
H1802 C1826 0.950 . S
H1803 C1827 0.951 . S
H1804 C1829 0.951 . S
H1805 C1831 0.950 . S
H1806 C1832 0.950 . S
H1807 C1834 0.950 . S
H1808 C1837 0.950 . S
H1809 C1838 0.950 . S
H1810 C1840 0.950 . S
H1811 C1841 0.950 . S
C1812 H1794 0.951 1_556 S
C1812 C1813 1.366 . S
C1812 C1814 1.388 . S
C1813 C1812 1.366 . S
C1813 C1817 1.385 . S
C1814 H1795 0.951 . S
C1814 C1812 1.388 . S
C1814 C1815 1.366 . S
C1815 C1814 1.366 . S
C1815 C1816 1.414 . S
C1815 C1818 1.499 . S
C1816 H1796 0.950 . S
C1816 C1815 1.414 . S
C1816 C1817 1.374 . S
C1817 H1797 0.950 . S
C1817 C1813 1.385 . S
C1817 C1816 1.374 . S
C1818 C1815 1.499 . S
C1818 C1819 1.373 . S
C1818 C1820 1.389 . S
C1819 H1798 0.950 . S
C1819 C1818 1.373 . S
C1819 C1835 1.377 . S
C1820 C1818 1.389 . S
C1820 C1821 1.524 . S
C1820 C1834 1.377 . S
C1821 C1820 1.524 . S
C1821 C1822 1.397 . S
C1821 C1826 1.363 . S
C1822 H1799 0.950 . S
C1822 C1821 1.397 . S
C1822 C1823 1.334 . S
C1823 H1800 0.950 . S
C1823 C1822 1.334 . S
C1823 C1824 1.287 . S
C1824 C1823 1.287 . S
C1824 C1825 1.524 . S
C1824 H1843 0.913 . S
C1825 H1801 0.950 . S
C1825 C1824 1.524 . S
C1825 C1826 1.415 . S
C1826 H1802 0.950 . S
C1826 C1821 1.363 . S
C1826 C1825 1.415 . S
C1827 H1803 0.951 . S
C1827 C1828 1.366 . S
C1827 C1829 1.388 . S
C1828 C1827 1.366 . S
C1828 C1832 1.385 . S
C1829 H1804 0.951 . S
C1829 C1827 1.388 . S
C1829 C1830 1.366 . S
C1830 C1829 1.366 . S
C1830 C1831 1.414 . S
C1830 C1833 1.499 . S
C1831 H1805 0.950 . S
C1831 C1830 1.414 . S
C1831 C1832 1.374 . S
C1832 H1806 0.950 . S
C1832 C1828 1.385 . S
C1832 C1831 1.374 . S
C1833 C1830 1.499 . S
C1833 C1834 1.373 . S
C1833 C1835 1.389 . S
C1834 H1807 0.950 . S
C1834 C1820 1.377 . S
C1834 C1833 1.373 . S
C1835 C1819 1.377 . S
C1835 C1833 1.389 . S
C1835 C1836 1.524 . S
C1836 C1835 1.524 . S
C1836 C1837 1.397 . S
C1836 C1841 1.363 . S
C1837 H1808 0.950 . S
C1837 C1836 1.397 . S
C1837 C1838 1.334 . S
C1838 H1809 0.950 . S
C1838 C1837 1.334 . S
C1838 C1839 1.287 . S
C1839 C1838 1.287 . S
C1839 C1840 1.524 . S
C1839 H1842 0.999 . S
C1840 H1810 0.950 . S
C1840 C1839 1.524 . S
C1840 C1841 1.415 . S
C1841 H1811 0.950 . S
C1841 C1836 1.363 . S
C1841 C1840 1.415 . S
H1842 C1839 0.999 . S
H1843 C1824 0.913 . S
H1844 C1862 0.951 . S
H1845 C1864 0.951 . S
H1846 C1866 0.950 . S
H1847 C1867 0.942 1_556 S
H1848 C1869 0.950 . S
H1849 C1872 0.950 . S
H1850 C1873 0.950 . S
H1851 C1875 0.950 . S
H1852 C1876 0.950 . S
H1853 C1877 0.951 . S
H1854 C1879 0.951 . S
H1855 C1881 0.950 . S
H1856 C1882 0.950 . S
H1857 C1884 0.950 . S
H1858 C1887 0.950 . S
H1859 C1888 0.950 . S
H1860 C1890 0.950 . S
H1861 C1891 0.950 . S
C1862 H1844 0.951 . S
C1862 C1863 1.366 . S
C1862 C1864 1.388 . S
C1863 C1862 1.366 . S
C1863 C1867 1.386 . S
C1864 H1845 0.951 . S
C1864 C1862 1.388 . S
C1864 C1865 1.366 . S
C1865 C1864 1.366 . S
C1865 C1866 1.414 . S
C1865 C1868 1.499 . S
C1866 H1846 0.950 . S
C1866 C1865 1.414 . S
C1866 C1867 1.381 . S
C1867 H1847 0.942 1_554 S
C1867 C1863 1.386 . S
C1867 C1866 1.381 . S
C1868 C1865 1.499 . S
C1868 C1869 1.373 . S
C1868 C1870 1.389 . S
C1869 H1848 0.950 . S
C1869 C1868 1.373 . S
C1869 C1885 1.377 . S
C1870 C1868 1.389 . S
C1870 C1871 1.524 . S
C1870 C1884 1.377 . S
C1871 C1870 1.524 . S
C1871 C1872 1.397 . S
C1871 C1876 1.363 . S
C1872 H1849 0.950 . S
C1872 C1871 1.397 . S
C1872 C1873 1.334 . S
C1873 H1850 0.950 . S
C1873 C1872 1.334 . S
C1873 C1874 1.287 . S
C1874 C1873 1.287 . S
C1874 C1875 1.524 . S
C1874 H1893 0.913 . S
C1875 H1851 0.950 . S
C1875 C1874 1.524 . S
C1875 C1876 1.415 . S
C1876 H1852 0.950 . S
C1876 C1871 1.363 . S
C1876 C1875 1.415 . S
C1877 H1853 0.951 . S
C1877 C1878 1.366 . S
C1877 C1879 1.388 . S
C1878 C1877 1.366 . S
C1878 C1882 1.385 . S
C1879 H1854 0.951 . S
C1879 C1877 1.388 . S
C1879 C1880 1.366 . S
C1880 C1879 1.366 . S
C1880 C1881 1.414 . S
C1880 C1883 1.499 . S
C1881 H1855 0.950 . S
C1881 C1880 1.414 . S
C1881 C1882 1.374 . S
C1882 H1856 0.950 . S
C1882 C1878 1.385 . S
C1882 C1881 1.374 . S
C1883 C1880 1.499 . S
C1883 C1884 1.373 . S
C1883 C1885 1.389 . S
C1884 H1857 0.950 . S
C1884 C1870 1.377 . S
C1884 C1883 1.373 . S
C1885 C1869 1.377 . S
C1885 C1883 1.389 . S
C1885 C1886 1.524 . S
C1886 C1885 1.524 . S
C1886 C1887 1.397 . S
C1886 C1891 1.363 . S
C1887 H1858 0.950 . S
C1887 C1886 1.397 . S
C1887 C1888 1.334 . S
C1888 H1859 0.950 . S
C1888 C1887 1.334 . S
C1888 C1889 1.287 . S
C1889 C1888 1.287 . S
C1889 C1890 1.524 . S
C1889 H1892 0.999 . S
C1890 H1860 0.950 . S
C1890 C1889 1.524 . S
C1890 C1891 1.415 . S
C1891 H1861 0.950 . S
C1891 C1886 1.363 . S
C1891 C1890 1.415 . S
H1892 C1889 0.999 . S
H1893 C1874 0.913 . S
H1894 C1912 0.951 . S
H1895 C1914 0.951 . S
H1896 C1916 0.950 . S
H1897 C1917 0.950 . S
H1898 C1919 0.950 . S
H1899 C1922 0.950 . S
H1900 C1923 0.950 . S
H1901 C1925 0.950 . S
H1902 C1926 0.950 . S
H1903 C1927 0.951 . S
H1904 C1929 0.951 . S
H1905 C1931 0.950 . S
H1906 C1932 0.950 . S
H1907 C1934 0.950 . S
H1908 C1937 0.950 . S
H1909 C1938 0.950 . S
H1910 C1940 0.950 . S
H1911 C1941 0.950 . S
C1912 H1894 0.951 . S
C1912 C1913 1.366 . S
C1912 C1914 1.388 . S
C1913 C1912 1.366 . S
C1913 C1917 1.385 . S
C1914 H1895 0.951 . S
C1914 C1912 1.388 . S
C1914 C1915 1.366 . S
C1915 C1914 1.366 . S
C1915 C1916 1.414 . S
C1915 C1918 1.499 . S
C1916 H1896 0.950 . S
C1916 C1915 1.414 . S
C1916 C1917 1.374 . S
C1917 H1897 0.950 . S
C1917 C1913 1.385 . S
C1917 C1916 1.374 . S
C1918 C1915 1.499 . S
C1918 C1919 1.373 . S
C1918 C1920 1.389 . S
C1919 H1898 0.950 . S
C1919 C1918 1.373 . S
C1919 C1935 1.377 . S
C1920 C1918 1.389 . S
C1920 C1921 1.524 . S
C1920 C1934 1.377 . S
C1921 C1920 1.524 . S
C1921 C1922 1.397 . S
C1921 C1926 1.363 . S
C1922 H1899 0.950 . S
C1922 C1921 1.397 . S
C1922 C1923 1.334 . S
C1923 H1900 0.950 . S
C1923 C1922 1.334 . S
C1923 C1924 1.287 . S
C1924 C1923 1.287 . S
C1924 C1925 1.524 . S
C1924 H1943 0.913 . S
C1925 H1901 0.950 . S
C1925 C1924 1.524 . S
C1925 C1926 1.415 . S
C1926 H1902 0.950 . S
C1926 C1921 1.363 . S
C1926 C1925 1.415 . S
C1927 H1903 0.951 . S
C1927 C1928 1.366 . S
C1927 C1929 1.388 . S
C1928 C1927 1.366 . S
C1928 C1932 1.385 . S
C1929 H1904 0.951 . S
C1929 C1927 1.388 . S
C1929 C1930 1.366 . S
C1930 C1929 1.366 . S
C1930 C1931 1.414 . S
C1930 C1933 1.499 . S
C1931 H1905 0.950 . S
C1931 C1930 1.414 . S
C1931 C1932 1.374 . S
C1932 H1906 0.950 . S
C1932 C1928 1.385 . S
C1932 C1931 1.374 . S
C1933 C1930 1.499 . S
C1933 C1934 1.373 . S
C1933 C1935 1.389 . S
C1934 H1907 0.950 . S
C1934 C1920 1.377 . S
C1934 C1933 1.373 . S
C1935 C1919 1.377 . S
C1935 C1933 1.389 . S
C1935 C1936 1.524 . S
C1936 C1935 1.524 . S
C1936 C1937 1.397 . S
C1936 C1941 1.363 . S
C1937 H1908 0.950 . S
C1937 C1936 1.397 . S
C1937 C1938 1.334 . S
C1938 H1909 0.950 . S
C1938 C1937 1.334 . S
C1938 C1939 1.287 . S
C1939 C1938 1.287 . S
C1939 C1940 1.524 . S
C1939 H1942 0.999 . S
C1940 H1910 0.950 . S
C1940 C1939 1.524 . S
C1940 C1941 1.415 . S
C1941 H1911 0.950 . S
C1941 C1936 1.363 . S
C1941 C1940 1.415 . S
H1942 C1939 0.999 . S
H1943 C1924 0.913 . S
H1944 C1962 0.951 . S
H1945 C1964 0.951 . S
H1946 C1966 0.950 . S
H1947 C1967 0.950 . S
H1948 C1969 0.950 . S
H1949 C1972 0.950 . S
H1950 C1973 0.950 . S
H1951 C1975 0.950 . S
H1952 C1976 0.950 . S
H1953 C1977 0.951 . S
H1954 C1979 0.951 . S
H1955 C1981 0.950 . S
H1956 C1982 0.950 . S
H1957 C1984 0.950 . S
H1958 C1987 0.950 . S
H1959 C1988 0.950 . S
H1960 C1990 0.950 . S
H1961 C1991 0.950 . S
C1962 H1944 0.951 . S
C1962 C1963 1.366 . S
C1962 C1964 1.388 . S
C1963 C1962 1.366 . S
C1963 C1967 1.385 . S
C1964 H1945 0.951 . S
C1964 C1962 1.388 . S
C1964 C1965 1.366 . S
C1965 C1964 1.366 . S
C1965 C1966 1.414 . S
C1965 C1968 1.499 . S
C1966 H1946 0.950 . S
C1966 C1965 1.414 . S
C1966 C1967 1.374 . S
C1967 H1947 0.950 . S
C1967 C1963 1.385 . S
C1967 C1966 1.374 . S
C1968 C1965 1.499 . S
C1968 C1969 1.373 . S
C1968 C1970 1.389 . S
C1969 H1948 0.950 . S
C1969 C1968 1.373 . S
C1969 C1985 1.377 . S
C1970 C1968 1.389 . S
C1970 C1971 1.524 . S
C1970 C1984 1.377 . S
C1971 C1970 1.524 . S
C1971 C1972 1.397 . S
C1971 C1976 1.363 . S
C1972 H1949 0.950 . S
C1972 C1971 1.397 . S
C1972 C1973 1.334 . S
C1973 H1950 0.950 . S
C1973 C1972 1.334 . S
C1973 C1974 1.287 . S
C1974 C1973 1.287 . S
C1974 C1975 1.524 . S
C1974 H1993 0.913 . S
C1975 H1951 0.950 . S
C1975 C1974 1.524 . S
C1975 C1976 1.415 . S
C1976 H1952 0.950 . S
C1976 C1971 1.363 . S
C1976 C1975 1.415 . S
C1977 H1953 0.951 . S
C1977 C1978 1.366 . S
C1977 C1979 1.388 . S
C1978 C1977 1.366 . S
C1978 C1982 1.385 . S
C1979 H1954 0.951 . S
C1979 C1977 1.388 . S
C1979 C1980 1.366 . S
C1980 C1979 1.366 . S
C1980 C1981 1.414 . S
C1980 C1983 1.499 . S
C1981 H1955 0.950 . S
C1981 C1980 1.414 . S
C1981 C1982 1.374 . S
C1982 H1956 0.950 . S
C1982 C1978 1.385 . S
C1982 C1981 1.374 . S
C1983 C1980 1.499 . S
C1983 C1984 1.373 . S
C1983 C1985 1.389 . S
C1984 H1957 0.950 . S
C1984 C1970 1.377 . S
C1984 C1983 1.373 . S
C1985 C1969 1.377 . S
C1985 C1983 1.389 . S
C1985 C1986 1.524 . S
C1986 C1985 1.524 . S
C1986 C1987 1.397 . S
C1986 C1991 1.363 . S
C1987 H1958 0.950 . S
C1987 C1986 1.397 . S
C1987 C1988 1.334 . S
C1988 H1959 0.950 . S
C1988 C1987 1.334 . S
C1988 C1989 1.287 . S
C1989 C1988 1.287 . S
C1989 C1990 1.524 . S
C1989 H1992 0.999 . S
C1990 H1960 0.950 . S
C1990 C1989 1.524 . S
C1990 C1991 1.415 . S
C1991 H1961 0.950 . S
C1991 C1986 1.363 . S
C1991 C1990 1.415 . S
H1992 C1989 0.999 . S
H1993 C1974 0.913 . S
H1994 C2012 0.951 . S
H1995 C2014 0.951 . S
H1996 C2016 0.950 . S
H1997 C2017 0.950 . S
H1998 C2019 0.950 . S
H1999 C2022 0.950 . S
H2000 C2023 0.950 . S
H2001 C2025 0.950 . S
H2002 C2026 0.950 . S
H2003 C2027 0.951 . S
H2004 C2029 0.951 . S
H2005 C2031 0.950 . S
H2006 C2032 0.950 1_556 S
H2007 C2034 0.950 . S
H2008 C2037 0.950 . S
H2009 C2038 0.950 . S
H2010 C2040 0.950 1_455 S
H2011 C2041 0.950 . S
C2012 H1994 0.951 . S
C2012 C2013 1.366 . S
C2012 C2014 1.388 . S
C2013 C2012 1.366 . S
C2013 C2017 1.385 . S
C2014 H1995 0.951 . S
C2014 C2012 1.388 . S
C2014 C2015 1.366 . S
C2015 C2014 1.366 . S
C2015 C2016 1.414 . S
C2015 C2018 1.499 . S
C2016 H1996 0.950 . S
C2016 C2015 1.414 . S
C2016 C2017 1.374 . S
C2017 H1997 0.950 . S
C2017 C2013 1.385 . S
C2017 C2016 1.374 . S
C2018 C2015 1.499 . S
C2018 C2019 1.373 . S
C2018 C2020 1.389 . S
C2019 H1998 0.950 . S
C2019 C2018 1.373 . S
C2019 C2035 1.377 . S
C2020 C2018 1.389 . S
C2020 C2021 1.524 . S
C2020 C2034 1.377 . S
C2021 C2020 1.524 . S
C2021 C2022 1.397 . S
C2021 C2026 1.363 . S
C2022 H1999 0.950 . S
C2022 C2021 1.397 . S
C2022 C2023 1.334 . S
C2023 H2000 0.950 . S
C2023 C2022 1.334 . S
C2023 C2024 1.287 . S
C2024 C2023 1.287 . S
C2024 C2025 1.524 . S
C2024 H2043 0.913 . S
C2025 H2001 0.950 . S
C2025 C2024 1.524 . S
C2025 C2026 1.415 . S
C2026 H2002 0.950 . S
C2026 C2021 1.363 . S
C2026 C2025 1.415 . S
C2027 H2003 0.951 . S
C2027 C2028 1.366 1_554 S
C2027 C2029 1.388 . S
C2028 C2027 1.366 1_556 S
C2028 C2032 1.385 1_556 S
C2029 H2004 0.951 . S
C2029 C2027 1.388 . S
C2029 C2030 1.366 . S
C2030 C2029 1.366 . S
C2030 C2031 1.414 . S
C2030 C2033 1.499 . S
C2031 H2005 0.950 . S
C2031 C2030 1.414 . S
C2031 C2032 1.374 . S
C2032 H2006 0.950 1_554 S
C2032 C2028 1.385 1_554 S
C2032 C2031 1.374 . S
C2033 C2030 1.499 . S
C2033 C2034 1.373 . S
C2033 C2035 1.389 . S
C2034 H2007 0.950 . S
C2034 C2020 1.377 . S
C2034 C2033 1.373 . S
C2035 C2019 1.377 . S
C2035 C2033 1.389 . S
C2035 C2036 1.524 . S
C2036 C2035 1.524 . S
C2036 C2037 1.397 . S
C2036 C2041 1.363 . S
C2037 H2008 0.950 . S
C2037 C2036 1.397 . S
C2037 C2038 1.334 . S
C2038 H2009 0.950 . S
C2038 C2037 1.334 . S
C2038 C2039 1.287 . S
C2039 C2038 1.287 . S
C2039 C2040 1.524 . S
C2039 H2042 0.999 1_655 S
C2040 H2010 0.950 1_655 S
C2040 C2039 1.524 . S
C2040 C2041 1.415 . S
C2041 H2011 0.950 . S
C2041 C2036 1.363 . S
C2041 C2040 1.415 . S
H2042 C2039 0.999 1_455 S
H2043 C2024 0.913 . S
H2044 C2062 0.951 . S
H2045 C2064 0.951 . S
H2046 C2066 0.950 . S
H2047 C2067 0.950 . S
H2048 C2069 0.950 . S
H2049 C2072 0.950 . S
H2050 C2073 0.950 . S
H2051 C2075 0.950 . S
H2052 C2076 0.950 . S
H2053 C2077 0.951 . S
H2054 C2079 0.951 . S
H2055 C2081 0.950 . S
H2056 C2082 0.950 . S
H2057 C2084 0.950 . S
H2058 C2087 0.950 . S
H2059 C2088 0.950 1_455 S
H2060 C2090 0.950 . S
H2061 C2091 0.950 . S
C2062 H2044 0.951 . S
C2062 C2063 1.366 . S
C2062 C2064 1.388 . S
C2063 C2062 1.366 . S
C2063 C2067 1.385 . S
C2064 H2045 0.951 . S
C2064 C2062 1.388 . S
C2064 C2065 1.366 . S
C2065 C2064 1.366 . S
C2065 C2066 1.414 . S
C2065 C2068 1.499 . S
C2066 H2046 0.950 . S
C2066 C2065 1.414 . S
C2066 C2067 1.374 . S
C2067 H2047 0.950 . S
C2067 C2063 1.385 . S
C2067 C2066 1.374 . S
C2068 C2065 1.499 . S
C2068 C2069 1.373 . S
C2068 C2070 1.389 . S
C2069 H2048 0.950 . S
C2069 C2068 1.373 . S
C2069 C2085 1.377 . S
C2070 C2068 1.389 . S
C2070 C2071 1.524 . S
C2070 C2084 1.377 . S
C2071 C2070 1.524 . S
C2071 C2072 1.397 . S
C2071 C2076 1.363 . S
C2072 H2049 0.950 . S
C2072 C2071 1.397 . S
C2072 C2073 1.334 . S
C2073 H2050 0.950 . S
C2073 C2072 1.334 . S
C2073 C2074 1.287 . S
C2074 C2073 1.287 . S
C2074 C2075 1.524 . S
C2074 H2093 0.913 . S
C2075 H2051 0.950 . S
C2075 C2074 1.524 . S
C2075 C2076 1.415 . S
C2076 H2052 0.950 . S
C2076 C2071 1.363 . S
C2076 C2075 1.415 . S
C2077 H2053 0.951 . S
C2077 C2078 1.366 . S
C2077 C2079 1.388 1_554 S
C2078 C2077 1.366 . S
C2078 C2082 1.385 1_554 S
C2079 H2054 0.951 . S
C2079 C2077 1.388 1_556 S
C2079 C2080 1.366 . S
C2080 C2079 1.366 . S
C2080 C2081 1.414 . S
C2080 C2083 1.499 . S
C2081 H2055 0.950 . S
C2081 C2080 1.414 . S
C2081 C2082 1.374 . S
C2082 H2056 0.950 . S
C2082 C2078 1.385 1_556 S
C2082 C2081 1.374 . S
C2083 C2080 1.499 . S
C2083 C2084 1.373 . S
C2083 C2085 1.389 . S
C2084 H2057 0.950 . S
C2084 C2070 1.377 . S
C2084 C2083 1.373 . S
C2085 C2069 1.377 . S
C2085 C2083 1.389 . S
C2085 C2086 1.524 . S
C2086 C2085 1.524 . S
C2086 C2087 1.397 . S
C2086 C2091 1.363 . S
C2087 H2058 0.950 . S
C2087 C2086 1.397 . S
C2087 C2088 1.334 . S
C2088 H2059 0.950 1_655 S
C2088 C2087 1.334 . S
C2088 C2089 1.287 . S
C2089 C2088 1.287 . S
C2089 C2090 1.524 . S
C2089 H2092 0.999 1_655 S
C2090 H2060 0.950 . S
C2090 C2089 1.524 . S
C2090 C2091 1.415 . S
C2091 H2061 0.950 . S
C2091 C2086 1.363 . S
C2091 C2090 1.415 . S
H2092 C2089 0.999 1_455 S
H2093 C2074 0.913 . S
H2094 C2112 0.951 . S
H2095 C2114 0.951 . S
H2096 C2116 0.950 . S
H2097 C2117 0.950 . S
H2098 C2119 0.950 . S
H2099 C2122 0.950 . S
H2100 C2123 0.950 . S
H2101 C2125 0.950 . S
H2102 C2126 0.950 . S
H2103 C2127 0.951 . S
H2104 C2129 0.951 . S
H2105 C2131 0.950 . S
H2106 C2132 0.950 . S
H2107 C2134 0.950 . S
H2108 C2137 0.950 . S
H2109 C2138 0.950 . S
H2110 C2140 0.950 . S
H2111 C2141 0.950 . S
C2112 H2094 0.951 . S
C2112 C2113 1.366 . S
C2112 C2114 1.388 . S
C2113 C2112 1.366 . S
C2113 C2117 1.385 . S
C2114 H2095 0.951 . S
C2114 C2112 1.388 . S
C2114 C2115 1.366 . S
C2115 C2114 1.366 . S
C2115 C2116 1.414 . S
C2115 C2118 1.499 . S
C2116 H2096 0.950 . S
C2116 C2115 1.414 . S
C2116 C2117 1.374 . S
C2117 H2097 0.950 . S
C2117 C2113 1.385 . S
C2117 C2116 1.374 . S
C2118 C2115 1.499 . S
C2118 C2119 1.373 . S
C2118 C2120 1.389 . S
C2119 H2098 0.950 . S
C2119 C2118 1.373 . S
C2119 C2135 1.377 . S
C2120 C2118 1.389 . S
C2120 C2121 1.524 . S
C2120 C2134 1.377 . S
C2121 C2120 1.524 . S
C2121 C2122 1.397 . S
C2121 C2126 1.363 . S
C2122 H2099 0.950 . S
C2122 C2121 1.397 . S
C2122 C2123 1.334 . S
C2123 H2100 0.950 . S
C2123 C2122 1.334 . S
C2123 C2124 1.287 . S
C2124 C2123 1.287 . S
C2124 C2125 1.524 . S
C2124 H2143 0.913 . S
C2125 H2101 0.950 . S
C2125 C2124 1.524 . S
C2125 C2126 1.415 . S
C2126 H2102 0.950 . S
C2126 C2121 1.363 . S
C2126 C2125 1.415 . S
C2127 H2103 0.951 . S
C2127 C2128 1.366 . S
C2127 C2129 1.388 . S
C2128 C2127 1.366 . S
C2128 C2132 1.385 . S
C2129 H2104 0.951 . S
C2129 C2127 1.388 . S
C2129 C2130 1.366 . S
C2130 C2129 1.366 . S
C2130 C2131 1.414 . S
C2130 C2133 1.499 . S
C2131 H2105 0.950 . S
C2131 C2130 1.414 . S
C2131 C2132 1.374 . S
C2132 H2106 0.950 . S
C2132 C2128 1.385 . S
C2132 C2131 1.374 . S
C2133 C2130 1.499 . S
C2133 C2134 1.373 . S
C2133 C2135 1.389 . S
C2134 H2107 0.950 . S
C2134 C2120 1.377 . S
C2134 C2133 1.373 . S
C2135 C2119 1.377 . S
C2135 C2133 1.389 . S
C2135 C2136 1.524 . S
C2136 C2135 1.524 . S
C2136 C2137 1.397 . S
C2136 C2141 1.363 . S
C2137 H2108 0.950 . S
C2137 C2136 1.397 . S
C2137 C2138 1.334 . S
C2138 H2109 0.950 . S
C2138 C2137 1.334 . S
C2138 C2139 1.287 . S
C2139 C2138 1.287 . S
C2139 C2140 1.524 . S
C2139 H2142 0.999 . S
C2140 H2110 0.950 . S
C2140 C2139 1.524 . S
C2140 C2141 1.415 . S
C2141 H2111 0.950 . S
C2141 C2136 1.363 . S
C2141 C2140 1.415 . S
H2142 C2139 0.999 . S
H2143 C2124 0.913 . S
H2144 C2162 0.951 . S
H2145 C2164 0.951 . S
H2146 C2166 0.950 . S
H2147 C2167 0.956 . S
H2148 C2169 0.950 . S
H2149 C2172 0.950 . S
H2150 C2173 0.950 1_556 S
H2151 C2175 0.950 . S
H2152 C2176 0.950 . S
H2153 C2177 0.951 . S
H2154 C2179 0.951 . S
H2155 C2181 0.950 . S
H2156 C2182 0.950 . S
H2157 C2184 0.950 . S
H2158 C2187 0.950 . S
H2159 C2188 0.950 . S
H2160 C2190 0.950 . S
H2161 C2191 0.950 . S
C2162 H2144 0.951 . S
C2162 C2163 1.366 . S
C2162 C2164 1.388 . S
C2163 C2162 1.366 . S
C2163 C2167 1.383 1_554 S
C2164 H2145 0.951 . S
C2164 C2162 1.388 . S
C2164 C2165 1.366 . S
C2165 C2164 1.366 . S
C2165 C2166 1.414 . S
C2165 C2168 1.499 . S
C2166 H2146 0.950 . S
C2166 C2165 1.414 . S
C2166 C2167 1.369 1_554 S
C2167 H2147 0.956 . S
C2167 C2163 1.383 1_556 S
C2167 C2166 1.369 1_556 S
C2168 C2165 1.499 . S
C2168 C2169 1.373 . S
C2168 C2170 1.389 . S
C2169 H2148 0.950 . S
C2169 C2168 1.373 . S
C2169 C2185 1.377 . S
C2170 C2168 1.389 . S
C2170 C2171 1.524 . S
C2170 C2184 1.377 . S
C2171 C2170 1.524 . S
C2171 C2172 1.397 . S
C2171 C2176 1.363 . S
C2172 H2149 0.950 . S
C2172 C2171 1.397 . S
C2172 C2173 1.334 . S
C2173 H2150 0.950 1_554 S
C2173 C2172 1.334 . S
C2173 C2174 1.287 . S
C2174 C2173 1.287 . S
C2174 C2175 1.524 . S
C2174 H2193 0.913 . S
C2175 H2151 0.950 . S
C2175 C2174 1.524 . S
C2175 C2176 1.415 . S
C2176 H2152 0.950 . S
C2176 C2171 1.363 . S
C2176 C2175 1.415 . S
C2177 H2153 0.951 . S
C2177 C2178 1.366 . S
C2177 C2179 1.388 . S
C2178 C2177 1.366 . S
C2178 C2182 1.385 . S
C2179 H2154 0.951 . S
C2179 C2177 1.388 . S
C2179 C2180 1.366 . S
C2180 C2179 1.366 . S
C2180 C2181 1.414 . S
C2180 C2183 1.499 . S
C2181 H2155 0.950 . S
C2181 C2180 1.414 . S
C2181 C2182 1.374 . S
C2182 H2156 0.950 . S
C2182 C2178 1.385 . S
C2182 C2181 1.374 . S
C2183 C2180 1.499 . S
C2183 C2184 1.373 . S
C2183 C2185 1.389 . S
C2184 H2157 0.950 . S
C2184 C2170 1.377 . S
C2184 C2183 1.373 . S
C2185 C2169 1.377 . S
C2185 C2183 1.389 . S
C2185 C2186 1.524 . S
C2186 C2185 1.524 . S
C2186 C2187 1.397 . S
C2186 C2191 1.363 . S
C2187 H2158 0.950 . S
C2187 C2186 1.397 . S
C2187 C2188 1.334 . S
C2188 H2159 0.950 . S
C2188 C2187 1.334 . S
C2188 C2189 1.287 . S
C2189 C2188 1.287 . S
C2189 C2190 1.524 . S
C2189 H2192 0.999 . S
C2190 H2160 0.950 . S
C2190 C2189 1.524 . S
C2190 C2191 1.415 . S
C2191 H2161 0.950 . S
C2191 C2186 1.363 . S
C2191 C2190 1.415 . S
H2192 C2189 0.999 . S
H2193 C2174 0.913 . S
H2194 C2212 0.951 . S
H2195 C2214 0.951 . S
H2196 C2216 0.950 . S
H2197 C2217 0.950 . S
H2198 C2219 0.950 . S
H2199 C2222 0.950 . S
H2200 C2223 0.950 . S
H2201 C2225 0.950 . S
H2202 C2226 0.950 . S
H2203 C2227 0.951 . S
H2204 C2229 0.951 . S
H2205 C2231 0.950 . S
H2206 C2232 0.950 . S
H2207 C2234 0.950 . S
H2208 C2237 0.950 . S
H2209 C2238 0.950 . S
H2210 C2240 0.950 . S
H2211 C2241 0.950 . S
C2212 H2194 0.951 . S
C2212 C2213 1.366 . S
C2212 C2214 1.388 . S
C2213 C2212 1.366 . S
C2213 C2217 1.385 . S
C2214 H2195 0.951 . S
C2214 C2212 1.388 . S
C2214 C2215 1.366 . S
C2215 C2214 1.366 . S
C2215 C2216 1.414 . S
C2215 C2218 1.499 . S
C2216 H2196 0.950 . S
C2216 C2215 1.414 . S
C2216 C2217 1.374 . S
C2217 H2197 0.950 . S
C2217 C2213 1.385 . S
C2217 C2216 1.374 . S
C2218 C2215 1.499 . S
C2218 C2219 1.373 . S
C2218 C2220 1.389 . S
C2219 H2198 0.950 . S
C2219 C2218 1.373 . S
C2219 C2235 1.377 . S
C2220 C2218 1.389 . S
C2220 C2221 1.524 . S
C2220 C2234 1.377 . S
C2221 C2220 1.524 . S
C2221 C2222 1.397 . S
C2221 C2226 1.363 . S
C2222 H2199 0.950 . S
C2222 C2221 1.397 . S
C2222 C2223 1.334 . S
C2223 H2200 0.950 . S
C2223 C2222 1.334 . S
C2223 C2224 1.287 . S
C2224 C2223 1.287 . S
C2224 C2225 1.524 . S
C2224 H2243 0.913 . S
C2225 H2201 0.950 . S
C2225 C2224 1.524 . S
C2225 C2226 1.415 . S
C2226 H2202 0.950 . S
C2226 C2221 1.363 . S
C2226 C2225 1.415 . S
C2227 H2203 0.951 . S
C2227 C2228 1.366 . S
C2227 C2229 1.388 . S
C2228 C2227 1.366 . S
C2228 C2232 1.385 . S
C2229 H2204 0.951 . S
C2229 C2227 1.388 . S
C2229 C2230 1.366 . S
C2230 C2229 1.366 . S
C2230 C2231 1.414 . S
C2230 C2233 1.499 . S
C2231 H2205 0.950 . S
C2231 C2230 1.414 . S
C2231 C2232 1.374 . S
C2232 H2206 0.950 . S
C2232 C2228 1.385 . S
C2232 C2231 1.374 . S
C2233 C2230 1.499 . S
C2233 C2234 1.373 . S
C2233 C2235 1.389 . S
C2234 H2207 0.950 . S
C2234 C2220 1.377 . S
C2234 C2233 1.373 . S
C2235 C2219 1.377 . S
C2235 C2233 1.389 . S
C2235 C2236 1.524 . S
C2236 C2235 1.524 . S
C2236 C2237 1.397 . S
C2236 C2241 1.363 . S
C2237 H2208 0.950 . S
C2237 C2236 1.397 . S
C2237 C2238 1.334 . S
C2238 H2209 0.950 . S
C2238 C2237 1.334 . S
C2238 C2239 1.287 . S
C2239 C2238 1.287 . S
C2239 C2240 1.524 . S
C2239 H2242 0.999 . S
C2240 H2210 0.950 . S
C2240 C2239 1.524 . S
C2240 C2241 1.415 . S
C2241 H2211 0.950 . S
C2241 C2236 1.363 . S
C2241 C2240 1.415 . S
H2242 C2239 0.999 . S
H2243 C2224 0.913 . S
H2244 C2262 0.951 . S
H2245 C2264 0.951 . S
H2246 C2266 0.950 . S
H2247 C2267 0.950 . S
H2248 C2269 0.950 . S
H2249 C2272 0.950 . S
H2250 C2273 0.950 . S
H2251 C2275 0.950 . S
H2252 C2276 0.950 . S
H2253 C2277 0.951 . S
H2254 C2279 0.951 . S
H2255 C2281 0.950 . S
H2256 C2282 0.950 . S
H2257 C2284 0.950 . S
H2258 C2287 0.950 . S
H2259 C2288 0.950 . S
H2260 C2290 0.950 . S
H2261 C2291 0.950 . S
C2262 H2244 0.951 . S
C2262 C2263 1.366 . S
C2262 C2264 1.388 . S
C2263 C2262 1.366 . S
C2263 C2267 1.385 . S
C2264 H2245 0.951 . S
C2264 C2262 1.388 . S
C2264 C2265 1.366 . S
C2265 C2264 1.366 . S
C2265 C2266 1.414 . S
C2265 C2268 1.499 . S
C2266 H2246 0.950 . S
C2266 C2265 1.414 . S
C2266 C2267 1.374 . S
C2267 H2247 0.950 . S
C2267 C2263 1.385 . S
C2267 C2266 1.374 . S
C2268 C2265 1.499 . S
C2268 C2269 1.373 . S
C2268 C2270 1.389 . S
C2269 H2248 0.950 . S
C2269 C2268 1.373 . S
C2269 C2285 1.377 . S
C2270 C2268 1.389 . S
C2270 C2271 1.524 . S
C2270 C2284 1.377 . S
C2271 C2270 1.524 . S
C2271 C2272 1.397 . S
C2271 C2276 1.363 . S
C2272 H2249 0.950 . S
C2272 C2271 1.397 . S
C2272 C2273 1.334 . S
C2273 H2250 0.950 . S
C2273 C2272 1.334 . S
C2273 C2274 1.287 . S
C2274 C2273 1.287 . S
C2274 C2275 1.524 . S
C2274 H2293 0.913 . S
C2275 H2251 0.950 . S
C2275 C2274 1.524 . S
C2275 C2276 1.415 . S
C2276 H2252 0.950 . S
C2276 C2271 1.363 . S
C2276 C2275 1.415 . S
C2277 H2253 0.951 . S
C2277 C2278 1.366 . S
C2277 C2279 1.388 . S
C2278 C2277 1.366 . S
C2278 C2282 1.385 . S
C2279 H2254 0.951 . S
C2279 C2277 1.388 . S
C2279 C2280 1.366 . S
C2280 C2279 1.366 . S
C2280 C2281 1.414 . S
C2280 C2283 1.499 . S
C2281 H2255 0.950 . S
C2281 C2280 1.414 . S
C2281 C2282 1.374 . S
C2282 H2256 0.950 . S
C2282 C2278 1.385 . S
C2282 C2281 1.374 . S
C2283 C2280 1.499 . S
C2283 C2284 1.373 . S
C2283 C2285 1.389 . S
C2284 H2257 0.950 . S
C2284 C2270 1.377 . S
C2284 C2283 1.373 . S
C2285 C2269 1.377 . S
C2285 C2283 1.389 . S
C2285 C2286 1.524 . S
C2286 C2285 1.524 . S
C2286 C2287 1.397 . S
C2286 C2291 1.363 . S
C2287 H2258 0.950 . S
C2287 C2286 1.397 . S
C2287 C2288 1.334 . S
C2288 H2259 0.950 . S
C2288 C2287 1.334 . S
C2288 C2289 1.287 . S
C2289 C2288 1.287 . S
C2289 C2290 1.524 . S
C2289 H2292 0.999 . S
C2290 H2260 0.950 . S
C2290 C2289 1.524 . S
C2290 C2291 1.415 . S
C2291 H2261 0.950 . S
C2291 C2286 1.363 . S
C2291 C2290 1.415 . S
H2292 C2289 0.999 . S
H2293 C2274 0.913 . S
H2294 C2312 0.951 . S
H2295 C2314 0.951 . S
H2296 C2316 0.950 . S
H2297 C2317 0.950 . S
H2298 C2319 0.950 . S
H2299 C2322 0.950 . S
H2300 C2323 0.950 . S
H2301 C2325 0.950 . S
H2302 C2326 0.950 . S
H2303 C2327 0.951 . S
H2304 C2329 0.951 . S
H2305 C2331 0.950 . S
H2306 C2332 0.950 . S
H2307 C2334 0.950 . S
H2308 C2337 0.950 . S
H2309 C2338 0.950 . S
H2310 C2340 0.950 . S
H2311 C2341 0.950 . S
C2312 H2294 0.951 . S
C2312 C2313 1.366 1_554 S
C2312 C2314 1.388 1_554 S
C2313 C2312 1.366 1_556 S
C2313 C2317 1.385 . S
C2314 H2295 0.951 . S
C2314 C2312 1.388 1_556 S
C2314 C2315 1.366 . S
C2315 C2314 1.366 . S
C2315 C2316 1.414 . S
C2315 C2318 1.499 . S
C2316 H2296 0.950 . S
C2316 C2315 1.414 . S
C2316 C2317 1.374 . S
C2317 H2297 0.950 . S
C2317 C2313 1.385 . S
C2317 C2316 1.374 . S
C2318 C2315 1.499 . S
C2318 C2319 1.373 . S
C2318 C2320 1.389 . S
C2319 H2298 0.950 . S
C2319 C2318 1.373 . S
C2319 C2335 1.377 . S
C2320 C2318 1.389 . S
C2320 C2321 1.524 . S
C2320 C2334 1.377 . S
C2321 C2320 1.524 . S
C2321 C2322 1.397 . S
C2321 C2326 1.363 . S
C2322 H2299 0.950 . S
C2322 C2321 1.397 . S
C2322 C2323 1.334 1_556 S
C2323 H2300 0.950 . S
C2323 C2322 1.334 1_554 S
C2323 C2324 1.287 . S
C2324 C2323 1.287 . S
C2324 C2325 1.524 . S
C2324 H2343 0.913 . S
C2325 H2301 0.950 . S
C2325 C2324 1.524 . S
C2325 C2326 1.415 1_554 S
C2326 H2302 0.950 . S
C2326 C2321 1.363 . S
C2326 C2325 1.415 1_556 S
C2327 H2303 0.951 . S
C2327 C2328 1.366 . S
C2327 C2329 1.388 . S
C2328 C2327 1.366 . S
C2328 C2332 1.385 . S
C2329 H2304 0.951 . S
C2329 C2327 1.388 . S
C2329 C2330 1.366 . S
C2330 C2329 1.366 . S
C2330 C2331 1.414 . S
C2330 C2333 1.499 . S
C2331 H2305 0.950 . S
C2331 C2330 1.414 . S
C2331 C2332 1.374 . S
C2332 H2306 0.950 . S
C2332 C2328 1.385 . S
C2332 C2331 1.374 . S
C2333 C2330 1.499 . S
C2333 C2334 1.373 . S
C2333 C2335 1.389 . S
C2334 H2307 0.950 . S
C2334 C2320 1.377 . S
C2334 C2333 1.373 . S
C2335 C2319 1.377 . S
C2335 C2333 1.389 . S
C2335 C2336 1.524 . S
C2336 C2335 1.524 . S
C2336 C2337 1.397 . S
C2336 C2341 1.363 . S
C2337 H2308 0.950 . S
C2337 C2336 1.397 . S
C2337 C2338 1.334 . S
C2338 H2309 0.950 . S
C2338 C2337 1.334 . S
C2338 C2339 1.287 . S
C2339 C2338 1.287 . S
C2339 C2340 1.524 . S
C2339 H2342 0.999 . S
C2340 H2310 0.950 . S
C2340 C2339 1.524 . S
C2340 C2341 1.415 . S
C2341 H2311 0.950 . S
C2341 C2336 1.363 . S
C2341 C2340 1.415 . S
H2342 C2339 0.999 . S
H2343 C2324 0.913 . S
H2344 C2362 0.951 . S
H2345 C2364 0.951 . S
H2346 C2366 0.950 . S
H2347 C2367 0.950 . S
H2348 C2369 0.950 . S
H2349 C2372 0.950 . S
H2350 C2373 0.950 . S
H2351 C2375 0.950 . S
H2352 C2376 0.950 . S
H2353 C2377 0.951 . S
H2354 C2379 0.951 . S
H2355 C2381 0.950 . S
H2356 C2382 0.950 . S
H2357 C2384 0.950 . S
H2358 C2387 0.950 . S
H2359 C2388 0.950 . S
H2360 C2390 0.950 . S
H2361 C2391 0.950 . S
C2362 H2344 0.951 . S
C2362 C2363 1.366 . S
C2362 C2364 1.388 . S
C2363 C2362 1.366 . S
C2363 C2367 1.385 . S
C2364 H2345 0.951 . S
C2364 C2362 1.388 . S
C2364 C2365 1.366 . S
C2365 C2364 1.366 . S
C2365 C2366 1.414 . S
C2365 C2368 1.499 . S
C2366 H2346 0.950 . S
C2366 C2365 1.414 . S
C2366 C2367 1.374 . S
C2367 H2347 0.950 . S
C2367 C2363 1.385 . S
C2367 C2366 1.374 . S
C2368 C2365 1.499 . S
C2368 C2369 1.373 . S
C2368 C2370 1.389 . S
C2369 H2348 0.950 . S
C2369 C2368 1.373 . S
C2369 C2385 1.377 . S
C2370 C2368 1.389 . S
C2370 C2371 1.524 . S
C2370 C2384 1.377 . S
C2371 C2370 1.524 . S
C2371 C2372 1.397 . S
C2371 C2376 1.363 . S
C2372 H2349 0.950 . S
C2372 C2371 1.397 . S
C2372 C2373 1.334 . S
C2373 H2350 0.950 . S
C2373 C2372 1.334 . S
C2373 C2374 1.287 . S
C2374 C2373 1.287 . S
C2374 C2375 1.524 . S
C2374 H2393 0.913 . S
C2375 H2351 0.950 . S
C2375 C2374 1.524 . S
C2375 C2376 1.415 . S
C2376 H2352 0.950 . S
C2376 C2371 1.363 . S
C2376 C2375 1.415 . S
C2377 H2353 0.951 . S
C2377 C2378 1.366 1_556 S
C2377 C2379 1.388 . S
C2378 C2377 1.366 1_554 S
C2378 C2382 1.385 . S
C2379 H2354 0.951 . S
C2379 C2377 1.388 . S
C2379 C2380 1.366 . S
C2380 C2379 1.366 . S
C2380 C2381 1.414 . S
C2380 C2383 1.499 . S
C2381 H2355 0.950 . S
C2381 C2380 1.414 . S
C2381 C2382 1.374 1_556 S
C2382 H2356 0.950 . S
C2382 C2378 1.385 . S
C2382 C2381 1.374 1_554 S
C2383 C2380 1.499 . S
C2383 C2384 1.373 . S
C2383 C2385 1.389 . S
C2384 H2357 0.950 . S
C2384 C2370 1.377 . S
C2384 C2383 1.373 . S
C2385 C2369 1.377 . S
C2385 C2383 1.389 . S
C2385 C2386 1.524 . S
C2386 C2385 1.524 . S
C2386 C2387 1.397 . S
C2386 C2391 1.363 . S
C2387 H2358 0.950 . S
C2387 C2386 1.397 . S
C2387 C2388 1.334 . S
C2388 H2359 0.950 . S
C2388 C2387 1.334 . S
C2388 C2389 1.287 . S
C2389 C2388 1.287 . S
C2389 C2390 1.524 . S
C2389 H2392 0.999 . S
C2390 H2360 0.950 . S
C2390 C2389 1.524 . S
C2390 C2391 1.415 . S
C2391 H2361 0.950 . S
C2391 C2386 1.363 . S
C2391 C2390 1.415 . S
H2392 C2389 0.999 . S
H2393 C2374 0.913 . S
H2394 C2412 0.951 . S
H2395 C2414 0.951 . S
H2396 C2416 0.950 . S
H2397 C2417 0.950 . S
H2398 C2419 0.950 . S
H2399 C2422 0.950 . S
H2400 C2423 0.950 . S
H2401 C2425 0.950 . S
H2402 C2426 0.950 . S
H2403 C2427 0.951 . S
H2404 C2429 0.951 . S
H2405 C2431 0.950 . S
H2406 C2432 0.950 . S
H2407 C2434 0.950 . S
H2408 C2437 0.950 . S
H2409 C2438 0.950 . S
H2410 C2440 0.950 . S
H2411 C2441 0.950 . S
C2412 H2394 0.951 . S
C2412 C2413 1.366 . S
C2412 C2414 1.388 . S
C2413 C2412 1.366 . S
C2413 C2417 1.385 . S
C2414 H2395 0.951 . S
C2414 C2412 1.388 . S
C2414 C2415 1.366 . S
C2415 C2414 1.366 . S
C2415 C2416 1.414 . S
C2415 C2418 1.499 . S
C2416 H2396 0.950 . S
C2416 C2415 1.414 . S
C2416 C2417 1.374 . S
C2417 H2397 0.950 . S
C2417 C2413 1.385 . S
C2417 C2416 1.374 . S
C2418 C2415 1.499 . S
C2418 C2419 1.373 . S
C2418 C2420 1.389 . S
C2419 H2398 0.950 . S
C2419 C2418 1.373 . S
C2419 C2435 1.377 . S
C2420 C2418 1.389 . S
C2420 C2421 1.524 . S
C2420 C2434 1.377 . S
C2421 C2420 1.524 . S
C2421 C2422 1.397 . S
C2421 C2426 1.363 . S
C2422 H2399 0.950 . S
C2422 C2421 1.397 . S
C2422 C2423 1.334 . S
C2423 H2400 0.950 . S
C2423 C2422 1.334 . S
C2423 C2424 1.287 . S
C2424 C2423 1.287 . S
C2424 C2425 1.524 . S
C2424 H2443 0.913 . S
C2425 H2401 0.950 . S
C2425 C2424 1.524 . S
C2425 C2426 1.415 . S
C2426 H2402 0.950 . S
C2426 C2421 1.363 . S
C2426 C2425 1.415 . S
C2427 H2403 0.951 . S
C2427 C2428 1.366 . S
C2427 C2429 1.388 . S
C2428 C2427 1.366 . S
C2428 C2432 1.385 . S
C2429 H2404 0.951 . S
C2429 C2427 1.388 . S
C2429 C2430 1.366 . S
C2430 C2429 1.366 . S
C2430 C2431 1.414 . S
C2430 C2433 1.499 . S
C2431 H2405 0.950 . S
C2431 C2430 1.414 . S
C2431 C2432 1.374 . S
C2432 H2406 0.950 . S
C2432 C2428 1.385 . S
C2432 C2431 1.374 . S
C2433 C2430 1.499 . S
C2433 C2434 1.373 . S
C2433 C2435 1.389 . S
C2434 H2407 0.950 . S
C2434 C2420 1.377 . S
C2434 C2433 1.373 . S
C2435 C2419 1.377 . S
C2435 C2433 1.389 . S
C2435 C2436 1.524 . S
C2436 C2435 1.524 . S
C2436 C2437 1.397 . S
C2436 C2441 1.363 . S
C2437 H2408 0.950 . S
C2437 C2436 1.397 . S
C2437 C2438 1.334 . S
C2438 H2409 0.950 . S
C2438 C2437 1.334 . S
C2438 C2439 1.287 . S
C2439 C2438 1.287 . S
C2439 C2440 1.524 . S
C2439 H2442 0.999 . S
C2440 H2410 0.950 . S
C2440 C2439 1.524 . S
C2440 C2441 1.415 . S
C2441 H2411 0.950 . S
C2441 C2436 1.363 . S
C2441 C2440 1.415 . S
H2442 C2439 0.999 . S
H2443 C2424 0.913 . S
H2444 C2462 0.951 . S
H2445 C2464 0.951 . S
H2446 C2466 0.950 . S
H2447 C2467 0.950 . S
H2448 C2469 0.950 . S
H2449 C2472 0.950 . S
H2450 C2473 0.950 . S
H2451 C2475 0.950 . S
H2452 C2476 0.950 . S
H2453 C2477 0.951 . S
H2454 C2479 0.951 . S
H2455 C2481 0.950 . S
H2456 C2482 0.950 . S
H2457 C2484 0.950 . S
H2458 C2487 0.950 . S
H2459 C2488 0.950 . S
H2460 C2490 0.950 . S
H2461 C2491 0.950 . S
C2462 H2444 0.951 . S
C2462 C2463 1.366 . S
C2462 C2464 1.388 . S
C2463 C2462 1.366 . S
C2463 C2467 1.385 . S
C2464 H2445 0.951 . S
C2464 C2462 1.388 . S
C2464 C2465 1.366 . S
C2465 C2464 1.366 . S
C2465 C2466 1.414 . S
C2465 C2468 1.499 . S
C2466 H2446 0.950 . S
C2466 C2465 1.414 . S
C2466 C2467 1.374 . S
C2467 H2447 0.950 . S
C2467 C2463 1.385 . S
C2467 C2466 1.374 . S
C2468 C2465 1.499 . S
C2468 C2469 1.373 . S
C2468 C2470 1.389 . S
C2469 H2448 0.950 . S
C2469 C2468 1.373 . S
C2469 C2485 1.377 . S
C2470 C2468 1.389 . S
C2470 C2471 1.524 . S
C2470 C2484 1.377 . S
C2471 C2470 1.524 . S
C2471 C2472 1.397 . S
C2471 C2476 1.363 . S
C2472 H2449 0.950 . S
C2472 C2471 1.397 . S
C2472 C2473 1.334 . S
C2473 H2450 0.950 . S
C2473 C2472 1.334 . S
C2473 C2474 1.287 . S
C2474 C2473 1.287 . S
C2474 C2475 1.524 . S
C2474 H2493 0.913 . S
C2475 H2451 0.950 . S
C2475 C2474 1.524 . S
C2475 C2476 1.415 . S
C2476 H2452 0.950 . S
C2476 C2471 1.363 . S
C2476 C2475 1.415 . S
C2477 H2453 0.951 . S
C2477 C2478 1.366 . S
C2477 C2479 1.388 . S
C2478 C2477 1.366 . S
C2478 C2482 1.385 . S
C2479 H2454 0.951 . S
C2479 C2477 1.388 . S
C2479 C2480 1.366 . S
C2480 C2479 1.366 . S
C2480 C2481 1.414 . S
C2480 C2483 1.499 . S
C2481 H2455 0.950 . S
C2481 C2480 1.414 . S
C2481 C2482 1.374 . S
C2482 H2456 0.950 . S
C2482 C2478 1.385 . S
C2482 C2481 1.374 . S
C2483 C2480 1.499 . S
C2483 C2484 1.373 . S
C2483 C2485 1.389 . S
C2484 H2457 0.950 . S
C2484 C2470 1.377 . S
C2484 C2483 1.373 . S
C2485 C2469 1.377 . S
C2485 C2483 1.389 . S
C2485 C2486 1.524 . S
C2486 C2485 1.524 . S
C2486 C2487 1.397 . S
C2486 C2491 1.363 . S
C2487 H2458 0.950 . S
C2487 C2486 1.397 . S
C2487 C2488 1.334 . S
C2488 H2459 0.950 . S
C2488 C2487 1.334 . S
C2488 C2489 1.287 . S
C2489 C2488 1.287 . S
C2489 C2490 1.524 . S
C2489 H2492 0.999 . S
C2490 H2460 0.950 . S
C2490 C2489 1.524 . S
C2490 C2491 1.415 . S
C2491 H2461 0.950 . S
C2491 C2486 1.363 . S
C2491 C2490 1.415 . S
H2492 C2489 0.999 . S
H2493 C2474 0.913 . S
H2494 C2512 0.951 . S
H2495 C2514 0.951 . S
H2496 C2516 0.950 . S
H2497 C2517 0.950 . S
H2498 C2519 0.950 . S
H2499 C2522 0.950 . S
H2500 C2523 0.950 . S
H2501 C2525 0.950 . S
H2502 C2526 0.950 . S
H2503 C2527 0.961 . S
H2504 C2529 0.951 . S
H2505 C2531 0.950 . S
H2506 C2532 0.950 . S
H2507 C2534 0.950 . S
H2508 C2537 0.950 . S
H2509 C2538 0.950 . S
H2510 C2540 0.950 . S
H2511 C2541 0.950 . S
C2512 H2494 0.951 . S
C2512 C2513 1.366 . S
C2512 C2514 1.388 . S
C2513 C2512 1.366 . S
C2513 C2517 1.385 . S
C2514 H2495 0.951 . S
C2514 C2512 1.388 . S
C2514 C2515 1.366 . S
C2515 C2514 1.366 . S
C2515 C2516 1.414 . S
C2515 C2518 1.499 . S
C2516 H2496 0.950 . S
C2516 C2515 1.414 . S
C2516 C2517 1.374 . S
C2517 H2497 0.950 . S
C2517 C2513 1.385 . S
C2517 C2516 1.374 . S
C2518 C2515 1.499 . S
C2518 C2519 1.373 . S
C2518 C2520 1.389 . S
C2519 H2498 0.950 . S
C2519 C2518 1.373 . S
C2519 C2535 1.377 . S
C2520 C2518 1.389 . S
C2520 C2521 1.524 . S
C2520 C2534 1.377 . S
C2521 C2520 1.524 . S
C2521 C2522 1.397 . S
C2521 C2526 1.363 . S
C2522 H2499 0.950 . S
C2522 C2521 1.397 . S
C2522 C2523 1.334 . S
C2523 H2500 0.950 . S
C2523 C2522 1.334 . S
C2523 C2524 1.287 . S
C2524 C2523 1.287 . S
C2524 C2525 1.524 . S
C2524 H2543 0.913 . S
C2525 H2501 0.950 . S
C2525 C2524 1.524 . S
C2525 C2526 1.415 . S
C2526 H2502 0.950 . S
C2526 C2521 1.363 . S
C2526 C2525 1.415 . S
C2527 H2503 0.961 . S
C2527 C2528 1.367 . S
C2527 C2529 1.377 1_556 S
C2528 C2527 1.367 . S
C2528 C2532 1.385 1_556 S
C2529 H2504 0.951 . S
C2529 C2527 1.377 1_554 S
C2529 C2530 1.366 . S
C2530 C2529 1.366 . S
C2530 C2531 1.414 . S
C2530 C2533 1.499 . S
C2531 H2505 0.950 . S
C2531 C2530 1.414 . S
C2531 C2532 1.374 . S
C2532 H2506 0.950 . S
C2532 C2528 1.385 1_554 S
C2532 C2531 1.374 . S
C2533 C2530 1.499 . S
C2533 C2534 1.373 . S
C2533 C2535 1.389 . S
C2534 H2507 0.950 . S
C2534 C2520 1.377 . S
C2534 C2533 1.373 . S
C2535 C2519 1.377 . S
C2535 C2533 1.389 . S
C2535 C2536 1.524 . S
C2536 C2535 1.524 . S
C2536 C2537 1.397 . S
C2536 C2541 1.363 . S
C2537 H2508 0.950 . S
C2537 C2536 1.397 . S
C2537 C2538 1.334 . S
C2538 H2509 0.950 . S
C2538 C2537 1.334 . S
C2538 C2539 1.287 . S
C2539 C2538 1.287 . S
C2539 C2540 1.524 . S
C2539 H2542 0.999 . S
C2540 H2510 0.950 . S
C2540 C2539 1.524 . S
C2540 C2541 1.415 . S
C2541 H2511 0.950 . S
C2541 C2536 1.363 . S
C2541 C2540 1.415 . S
H2542 C2539 0.999 . S
H2543 C2524 0.913 . S
C563 C33 0.234 . S
C578 C169 0.233 . S
C613 C203 0.232 . S
C628 C67 0.232 . S
C663 C237 0.232 . S
C678 C101 0.231 . S
C713 C135 0.233 . S
C728 C271 0.233 . S
C763 C305 0.232 . S
C778 C373 0.232 . S
C813 C407 0.229 . S
C828 C339 0.230 . S
C863 C441 0.233 . S
C878 C509 0.233 . S
C913 C475 0.229 . S
C928 C543 0.230 . S
C963 C20 2.111 . S
C978 C190 2.112 . S
C1013 C224 2.111 . S
C1028 C54 2.112 . S
C1063 C258 2.112 . S
C1078 C88 2.111 . S
C1113 C122 2.111 . S
C1128 C156 2.112 . S
C1163 C145 0.655 . S
C1178 C349 0.655 1_556 S
C1213 C77 0.654 . S
C1228 C281 0.654 . S
C1263 C213 0.654 . S
C1278 C383 0.654 . S
C1313 C9 0.655 . S
C1328 C315 0.654 1_554 S
C1363 C428 2.112 . S
C1378 C292 2.112 . S
C1413 C360 2.112 . S
C1428 C530 2.112 . S
C1463 C326 2.112 . S
C1478 C462 2.111 . S
C1513 C394 2.112 . S
C1528 C496 2.111 . S
C1563 C485 0.654 . S
C1578 C43 0.653 . S
C1613 C179 0.654 1_554 S
C1628 C451 0.655 . S
C1663 C111 0.654 1_556 S
C1678 C519 0.654 . S
C1713 C417 0.654 . S
C1728 C247 0.654 . S
C1763 C175 1.093 . S
C1778 C5 1.094 . S
C1813 C209 1.093 1_556 S
C1828 C39 1.092 . S
C1863 C73 1.092 1_554 S
C1878 C243 1.093 . S
C1913 C107 1.092 . S
C1928 C141 1.093 . S
C1963 C138 2.616 . S
C1978 C342 2.616 . S
C2013 C274 2.616 . S
C2028 C70 2.616 . S
C2063 C376 2.616 . S
C2078 C206 2.616 . S
C2113 C2 2.616 . S
C2128 C308 2.616 . S
C2163 C413 1.092 1_554 S
C2178 C277 1.094 . S
C2213 C345 1.092 . S
C2228 C515 1.093 . S
C2263 C447 1.093 . S
C2278 C311 1.092 . S
C2313 C481 1.093 1_556 S
C2328 C379 1.092 . S
C2363 C36 2.616 . S
C2378 C478 2.616 . S
C2413 C172 2.616 . S
C2428 C444 2.616 . S
C2463 C512 2.616 . S
C2478 C104 2.616 . S
C2513 C240 2.616 . S
C2528 C410 2.616 . S
