# Generated by pormake.
# Topology lta, (4)-cn, num edge types: 1
# Building blocks:
#     Node 0, Type 0, BuildingBlock: TATPOV_clean_sbu_0, # of connection points: 4
#     Node 1, Type 0, BuildingBlock: TATPOV_clean_sbu_0, # of connection points: 4
#     Node 2, Type 0, BuildingBlock: TATPOV_clean_sbu_0, # of connection points: 4
#     Node 3, Type 0, BuildingBlock: TATPOV_clean_sbu_0, # of connection points: 4
#     Node 4, Type 0, BuildingBlock: TATPOV_clean_sbu_0, # of connection points: 4
#     Node 5, Type 0, BuildingBlock: TATPOV_clean_sbu_0, # of connection points: 4
#     Node 6, Type 0, BuildingBlock: TATPOV_clean_sbu_0, # of connection points: 4
#     Node 7, Type 0, BuildingBlock: TATPOV_clean_sbu_0, # of connection points: 4
#     Node 8, Type 0, BuildingBlock: TATPOV_clean_sbu_0, # of connection points: 4
#     Node 9, Type 0, BuildingBlock: TATPOV_clean_sbu_0, # of connection points: 4
#     Node 10, Type 0, BuildingBlock: TATPOV_clean_sbu_0, # of connection points: 4
#     Node 11, Type 0, BuildingBlock: TATPOV_clean_sbu_0, # of connection points: 4
#     Node 12, Type 0, BuildingBlock: TATPOV_clean_sbu_0, # of connection points: 4
#     Node 13, Type 0, BuildingBlock: TATPOV_clean_sbu_0, # of connection points: 4
#     Node 14, Type 0, BuildingBlock: TATPOV_clean_sbu_0, # of connection points: 4
#     Node 15, Type 0, BuildingBlock: TATPOV_clean_sbu_0, # of connection points: 4
#     Node 16, Type 0, BuildingBlock: TATPOV_clean_sbu_0, # of connection points: 4
#     Node 17, Type 0, BuildingBlock: TATPOV_clean_sbu_0, # of connection points: 4
#     Node 18, Type 0, BuildingBlock: TATPOV_clean_sbu_0, # of connection points: 4
#     Node 19, Type 0, BuildingBlock: TATPOV_clean_sbu_0, # of connection points: 4
#     Node 20, Type 0, BuildingBlock: TATPOV_clean_sbu_0, # of connection points: 4
#     Node 21, Type 0, BuildingBlock: TATPOV_clean_sbu_0, # of connection points: 4
#     Node 22, Type 0, BuildingBlock: TATPOV_clean_sbu_0, # of connection points: 4
#     Node 23, Type 0, BuildingBlock: TATPOV_clean_sbu_0, # of connection points: 4
#     Edge 24, Type (0, 0), BuildingBlock: AJUNOK_clean_linker_0, # of connection points: 2
#     Edge 25, Type (0, 0), BuildingBlock: AJUNOK_clean_linker_0, # of connection points: 2
#     Edge 26, Type (0, 0), BuildingBlock: AJUNOK_clean_linker_0, # of connection points: 2
#     Edge 27, Type (0, 0), BuildingBlock: AJUNOK_clean_linker_0, # of connection points: 2
#     Edge 28, Type (0, 0), BuildingBlock: AJUNOK_clean_linker_0, # of connection points: 2
#     Edge 29, Type (0, 0), BuildingBlock: AJUNOK_clean_linker_0, # of connection points: 2
#     Edge 30, Type (0, 0), BuildingBlock: AJUNOK_clean_linker_0, # of connection points: 2
#     Edge 31, Type (0, 0), BuildingBlock: AJUNOK_clean_linker_0, # of connection points: 2
#     Edge 32, Type (0, 0), BuildingBlock: AJUNOK_clean_linker_0, # of connection points: 2
#     Edge 33, Type (0, 0), BuildingBlock: AJUNOK_clean_linker_0, # of connection points: 2
#     Edge 34, Type (0, 0), BuildingBlock: AJUNOK_clean_linker_0, # of connection points: 2
#     Edge 35, Type (0, 0), BuildingBlock: AJUNOK_clean_linker_0, # of connection points: 2
#     Edge 36, Type (0, 0), BuildingBlock: AJUNOK_clean_linker_0, # of connection points: 2
#     Edge 37, Type (0, 0), BuildingBlock: AJUNOK_clean_linker_0, # of connection points: 2
#     Edge 38, Type (0, 0), BuildingBlock: AJUNOK_clean_linker_0, # of connection points: 2
#     Edge 39, Type (0, 0), BuildingBlock: AJUNOK_clean_linker_0, # of connection points: 2
#     Edge 40, Type (0, 0), BuildingBlock: AJUNOK_clean_linker_0, # of connection points: 2
#     Edge 41, Type (0, 0), BuildingBlock: AJUNOK_clean_linker_0, # of connection points: 2
#     Edge 42, Type (0, 0), BuildingBlock: AJUNOK_clean_linker_0, # of connection points: 2
#     Edge 43, Type (0, 0), BuildingBlock: AJUNOK_clean_linker_0, # of connection points: 2
#     Edge 44, Type (0, 0), BuildingBlock: AJUNOK_clean_linker_0, # of connection points: 2
#     Edge 45, Type (0, 0), BuildingBlock: AJUNOK_clean_linker_0, # of connection points: 2
#     Edge 46, Type (0, 0), BuildingBlock: AJUNOK_clean_linker_0, # of connection points: 2
#     Edge 47, Type (0, 0), BuildingBlock: AJUNOK_clean_linker_0, # of connection points: 2
#     Edge 48, Type (0, 0), BuildingBlock: AJUNOK_clean_linker_0, # of connection points: 2
#     Edge 49, Type (0, 0), BuildingBlock: AJUNOK_clean_linker_0, # of connection points: 2
#     Edge 50, Type (0, 0), BuildingBlock: AJUNOK_clean_linker_0, # of connection points: 2
#     Edge 51, Type (0, 0), BuildingBlock: AJUNOK_clean_linker_0, # of connection points: 2
#     Edge 52, Type (0, 0), BuildingBlock: AJUNOK_clean_linker_0, # of connection points: 2
#     Edge 53, Type (0, 0), BuildingBlock: AJUNOK_clean_linker_0, # of connection points: 2
#     Edge 54, Type (0, 0), BuildingBlock: AJUNOK_clean_linker_0, # of connection points: 2
#     Edge 55, Type (0, 0), BuildingBlock: AJUNOK_clean_linker_0, # of connection points: 2
#     Edge 56, Type (0, 0), BuildingBlock: AJUNOK_clean_linker_0, # of connection points: 2
#     Edge 57, Type (0, 0), BuildingBlock: AJUNOK_clean_linker_0, # of connection points: 2
#     Edge 58, Type (0, 0), BuildingBlock: AJUNOK_clean_linker_0, # of connection points: 2
#     Edge 59, Type (0, 0), BuildingBlock: AJUNOK_clean_linker_0, # of connection points: 2
#     Edge 60, Type (0, 0), BuildingBlock: AJUNOK_clean_linker_0, # of connection points: 2
#     Edge 61, Type (0, 0), BuildingBlock: AJUNOK_clean_linker_0, # of connection points: 2
#     Edge 62, Type (0, 0), BuildingBlock: AJUNOK_clean_linker_0, # of connection points: 2
#     Edge 63, Type (0, 0), BuildingBlock: AJUNOK_clean_linker_0, # of connection points: 2
#     Edge 64, Type (0, 0), BuildingBlock: AJUNOK_clean_linker_0, # of connection points: 2
#     Edge 65, Type (0, 0), BuildingBlock: AJUNOK_clean_linker_0, # of connection points: 2
#     Edge 66, Type (0, 0), BuildingBlock: AJUNOK_clean_linker_0, # of connection points: 2
#     Edge 67, Type (0, 0), BuildingBlock: AJUNOK_clean_linker_0, # of connection points: 2
#     Edge 68, Type (0, 0), BuildingBlock: AJUNOK_clean_linker_0, # of connection points: 2
#     Edge 69, Type (0, 0), BuildingBlock: AJUNOK_clean_linker_0, # of connection points: 2
#     Edge 70, Type (0, 0), BuildingBlock: AJUNOK_clean_linker_0, # of connection points: 2
#     Edge 71, Type (0, 0), BuildingBlock: AJUNOK_clean_linker_0, # of connection points: 2
# Relax obj value: 0.189
# Max RMSD: 0.079
# Mean RMSD: 0.079
data_MOF--net-lta--node1-TATPOV_clean_sbu_0--edge1-AJUNOK_clean_linker_0
_symmetry_space_group_name_H-M    P1
_symmetry_Int_Tables_number       1
_symmetry_cell_setting            triclinic
loop_
_symmetry_equiv_pos_as_xyz
'x, y, z'
_cell_length_a     41.494916
_cell_length_b     41.559567
_cell_length_c     41.651417
_cell_angle_alpha  90.173081
_cell_angle_beta   89.945727
_cell_angle_gamma 89.964795
loop_
_atom_site_label
_atom_site_type_symbol
_atom_site_fract_x
_atom_site_fract_y
_atom_site_fract_z
_atom_type_partial_charge
Zn0 Zn 0.11176 0.27448 0.54911 0.0
Zn1 Zn 0.15409 0.26356 0.51439 0.0
O2 O 0.15007 0.29829 0.48151 0.0
O3 O 0.10825 0.30915 0.51234 0.0
O4 O 0.18973 0.23139 0.50534 0.0
O5 O 0.13067 0.28671 0.59123 0.0
O6 O 0.16898 0.2901 0.55535 0.0
C7 C 0.12487 0.31497 0.48719 0.0
C8 C 0.08282 0.23413 0.51582 0.0
O9 O 0.10971 0.24178 0.503 0.0
O10 O 0.0794 0.23892 0.54563 0.0
C11 C 0.21323 0.23446 0.48595 0.0
O12 O 0.21508 0.26044 0.46818 0.0
C13 C 0.1585 0.29623 0.58361 0.0
Zn14 Zn 0.64966 0.14852 0.4908 0.0
Zn15 Zn 0.70689 0.16554 0.48708 0.0
O16 O 0.68811 0.1635 0.44007 0.0
O17 O 0.63651 0.15317 0.44533 0.0
O18 O 0.74701 0.19235 0.48183 0.0
O19 O 0.63293 0.17924 0.52321 0.0
O20 O 0.68504 0.18589 0.5284 0.0
C21 C 0.66045 0.15868 0.4275 0.0
C22 C 0.6997 0.0992 0.50645 0.0
O23 O 0.72062 0.12001 0.49839 0.0
O24 O 0.66986 0.10606 0.50583 0.0
C25 C 0.76496 0.19956 0.50549 0.0
O26 O 0.75819 0.1876 0.53387 0.0
C27 C 0.65641 0.19058 0.53876 0.0
Zn28 Zn 0.86134 0.64796 0.48227 0.0
Zn29 Zn 0.83188 0.70013 0.49051 0.0
O30 O 0.81811 0.682 0.44458 0.0
O31 O 0.83805 0.63294 0.44434 0.0
O32 O 0.80637 0.74144 0.49611 0.0
O33 O 0.84913 0.62962 0.52416 0.0
O34 O 0.82243 0.67455 0.53291 0.0
C35 C 0.8214 0.65446 0.43104 0.0
C36 C 0.90479 0.70096 0.48574 0.0
O37 O 0.87893 0.71596 0.49268 0.0
O38 O 0.90369 0.67152 0.47793 0.0
C39 C 0.77595 0.74338 0.49293 0.0
O40 O 0.75974 0.7174 0.48497 0.0
C41 C 0.8317 0.64678 0.5422 0.0
Zn42 Zn 0.35571 0.84704 0.51971 0.0
Zn43 Zn 0.2988 0.85106 0.51163 0.0
O44 O 0.32172 0.84031 0.46767 0.0
O45 O 0.37226 0.8297 0.47838 0.0
O46 O 0.25425 0.83221 0.50844 0.0
O47 O 0.36082 0.82187 0.56011 0.0
O48 O 0.31278 0.84326 0.55974 0.0
C49 C 0.34979 0.83204 0.45814 0.0
C50 C 0.32227 0.91283 0.51967 0.0
O51 O 0.29635 0.89897 0.51113 0.0
O52 O 0.34776 0.89643 0.52455 0.0
C53 C 0.25143 0.80392 0.4971 0.0
O54 O 0.27744 0.78898 0.4869 0.0
C55 C 0.33633 0.83132 0.57548 0.0
Zn56 Zn 0.05759 0.64147 0.54744 0.0
Zn57 Zn 0.09902 0.66996 0.51372 0.0
O58 O 0.12225 0.6503 0.55365 0.0
O59 O 0.08478 0.63099 0.58529 0.0
O60 O 0.13274 0.70047 0.49722 0.0
O61 O 0.05579 0.61027 0.50885 0.0
O62 O 0.09375 0.6344 0.48091 0.0
C63 C 0.11417 0.63641 0.57972 0.0
C64 C 0.02995 0.69729 0.52882 0.0
O65 O 0.0562 0.69662 0.51283 0.0
O66 O 0.02527 0.67666 0.55049 0.0
C67 C 0.13465 0.72791 0.51066 0.0
O68 O 0.11359 0.73535 0.53306 0.0
C69 C 0.07331 0.61178 0.48381 0.0
Zn70 Zn 0.41749 0.06907 0.4928 0.0
Zn71 Zn 0.37638 0.10613 0.48079 0.0
O72 O 0.40356 0.12863 0.51689 0.0
O73 O 0.4481 0.10099 0.51035 0.0
O74 O 0.34016 0.13787 0.47224 0.0
O75 O 0.42364 0.05444 0.44793 0.0
O76 O 0.40128 0.10099 0.4373 0.0
C77 C 0.43353 0.12469 0.52257 0.0
C78 C 0.36246 0.04237 0.51404 0.0
O79 O 0.35265 0.06394 0.49461 0.0
O80 O 0.39165 0.04228 0.52253 0.0
C81 C 0.31798 0.1406 0.49318 0.0
O82 O 0.31948 0.12257 0.51901 0.0
C83 C 0.41715 0.0763 0.42798 0.0
Zn84 Zn 0.96887 0.36485 0.45616 0.0
Zn85 Zn 0.91546 0.33581 0.46666 0.0
O86 O 0.91575 0.36483 0.5066 0.0
O87 O 0.96268 0.38789 0.49859 0.0
O88 O 0.8755 0.30861 0.47088 0.0
O89 O 0.95284 0.38717 0.41734 0.0
O90 O 0.90603 0.36436 0.4264 0.0
C91 C 0.9374 0.38472 0.51537 0.0
C92 C 0.98172 0.2998 0.46052 0.0
O93 O 0.95174 0.30057 0.46743 0.0
O94 O 0.99593 0.32541 0.45248 0.0
C95 C 0.87273 0.28908 0.49415 0.0
O96 O 0.89557 0.28819 0.51596 0.0
C97 C 0.92341 0.38386 0.41027 0.0
Zn98 Zn 0.6142 0.95089 0.5 0.0
Zn99 Zn 0.64811 0.90573 0.50384 0.0
O100 O 0.61653 0.8993 0.54274 0.0
O101 O 0.57857 0.93077 0.52394 0.0
O102 O 0.67627 0.8656 0.50305 0.0
O103 O 0.61017 0.95256 0.45257 0.0
O104 O 0.62364 0.90226 0.46017 0.0
C105 C 0.58765 0.90992 0.54394 0.0
C106 C 0.67233 0.9731 0.51939 0.0
O107 O 0.67951 0.94547 0.50795 0.0
O108 O 0.64312 0.98061 0.52314 0.0
C109 C 0.70585 0.86443 0.51103 0.0
O110 O 0.71987 0.89072 0.5216 0.0
C111 C 0.61179 0.92406 0.44213 0.0
Zn112 Zn 0.57396 0.04631 0.30593 0.0
Zn113 Zn 0.55099 0.09234 0.27409 0.0
O114 O 0.51404 0.09412 0.30533 0.0
O115 O 0.5307 0.05046 0.33015 0.0
O116 O 0.54144 0.12539 0.24071 0.0
O117 O 0.61304 0.06918 0.32296 0.0
O118 O 0.5913 0.11017 0.298 0.0
C119 C 0.50973 0.07243 0.3263 0.0
C120 C 0.55628 0.02035 0.24988 0.0
O121 O 0.54542 0.04906 0.24942 0.0
O122 O 0.57648 0.01278 0.27127 0.0
C123 C 0.51346 0.12707 0.22853 0.0
O124 O 0.49094 0.10735 0.23868 0.0
C125 C 0.61311 0.09886 0.31636 0.0
Zn126 Zn 0.89339 0.55316 0.30074 0.0
Zn127 Zn 0.84622 0.52402 0.28316 0.0
O128 O 0.84839 0.489 0.31632 0.0
O129 O 0.89478 0.51166 0.3289 0.0
O130 O 0.81081 0.51576 0.25099 0.0
O131 O 0.87525 0.59431 0.31699 0.0
O132 O 0.83161 0.56628 0.3076 0.0
C133 C 0.87482 0.48853 0.33187 0.0
C134 C 0.91723 0.5246 0.25308 0.0
O135 O 0.88951 0.51285 0.25937 0.0
O136 O 0.9233 0.55275 0.26292 0.0
C137 C 0.78696 0.49678 0.25378 0.0
O138 O 0.78446 0.47886 0.2796 0.0
C139 C 0.84501 0.59173 0.31856 0.0
Zn140 Zn 0.45242 0.91237 0.31807 0.0
Zn141 Zn 0.47654 0.85877 0.3025 0.0
O142 O 0.51243 0.86684 0.3339 0.0
O143 O 0.49502 0.91613 0.34328 0.0
O144 O 0.4848 0.81601 0.28164 0.0
O145 O 0.41244 0.89647 0.34009 0.0
O146 O 0.43467 0.85005 0.32855 0.0
C147 C 0.51616 0.89428 0.34696 0.0
C148 C 0.47326 0.91999 0.25791 0.0
O149 O 0.48424 0.89267 0.26654 0.0
O150 O 0.4514 0.93302 0.27466 0.0
C151 C 0.50661 0.81099 0.2608 0.0
O152 O 0.52608 0.8346 0.25296 0.0
C153 C 0.41224 0.86613 0.34208 0.0
Zn154 Zn 0.02623 0.44841 0.37058 0.0
Zn155 Zn 0.08063 0.45863 0.34368 0.0
O156 O 0.07953 0.49863 0.37248 0.0
O157 O 0.03126 0.49156 0.39305 0.0
O158 O 0.12242 0.46172 0.31897 0.0
O159 O 0.04072 0.40991 0.39474 0.0
O160 O 0.0881 0.41809 0.37269 0.0
C161 C 0.05687 0.50806 0.39091 0.0
C162 C 0.01562 0.45473 0.30547 0.0
O163 O 0.04549 0.46172 0.30756 0.0
O164 O 0.00088 0.44471 0.33002 0.0
C165 C 0.12557 0.47939 0.29429 0.0
O166 O 0.101 0.4969 0.28484 0.0
C167 C 0.0702 0.40268 0.39231 0.0
Zn168 Zn 0.43501 0.94805 0.66636 0.0
Zn169 Zn 0.46126 0.91032 0.70607 0.0
O170 O 0.41772 0.8906 0.6899 0.0
O171 O 0.39122 0.92822 0.66444 0.0
O172 O 0.47311 0.88037 0.74174 0.0
O173 O 0.46966 0.93102 0.63539 0.0
O174 O 0.49479 0.90207 0.67178 0.0
C175 C 0.39263 0.89967 0.67467 0.0
C176 C 0.46079 0.98495 0.71561 0.0
O177 O 0.46885 0.95662 0.72432 0.0
O178 O 0.44334 0.98855 0.69101 0.0
C179 C 0.50167 0.87598 0.75175 0.0
O180 O 0.52522 0.89298 0.73927 0.0
C181 C 0.49273 0.91254 0.64325 0.0
Zn182 Zn 0.13049 0.46824 0.63508 0.0
Zn183 Zn 0.16201 0.47448 0.68742 0.0
O184 O 0.17546 0.42938 0.66777 0.0
O185 O 0.15278 0.4292 0.62003 0.0
O186 O 0.19022 0.47876 0.72655 0.0
O187 O 0.14445 0.51058 0.61794 0.0
O188 O 0.17097 0.51738 0.66314 0.0
C189 C 0.17076 0.41595 0.6405 0.0
C190 C 0.08936 0.47172 0.69088 0.0
O191 O 0.11587 0.47686 0.70536 0.0
O192 O 0.08924 0.4655 0.66109 0.0
C193 C 0.18783 0.46033 0.75075 0.0
O194 O 0.16629 0.43718 0.75025 0.0
C195 C 0.16193 0.52785 0.63583 0.0
Zn196 Zn 0.56639 0.12825 0.66702 0.0
Zn197 Zn 0.5346 0.17077 0.69126 0.0
O198 O 0.57717 0.18697 0.66862 0.0
O199 O 0.61064 0.14667 0.66389 0.0
O200 O 0.5224 0.20469 0.72382 0.0
O201 O 0.53461 0.13847 0.62981 0.0
O202 O 0.50291 0.17275 0.65519 0.0
C203 C 0.60467 0.17617 0.65989 0.0
C204 C 0.53468 0.09779 0.7136 0.0
O205 O 0.52407 0.12667 0.71393 0.0
O206 O 0.55779 0.09068 0.69519 0.0
C207 C 0.53123 0.23394 0.72219 0.0
O208 O 0.54857 0.24337 0.69756 0.0
C209 C 0.5101 0.15693 0.63004 0.0
Zn210 Zn 0.93657 0.54445 0.64504 0.0
Zn211 Zn 0.89474 0.51167 0.6733 0.0
O212 O 0.8725 0.55334 0.65593 0.0
O213 O 0.9106 0.58366 0.63575 0.0
O214 O 0.86257 0.49658 0.70594 0.0
O215 O 0.93627 0.50562 0.61396 0.0
O216 O 0.89691 0.47902 0.63742 0.0
C217 C 0.88121 0.57937 0.6423 0.0
C218 C 0.96607 0.52205 0.69737 0.0
O219 O 0.939 0.50751 0.69685 0.0
O220 O 0.9706 0.54552 0.67873 0.0
C221 C 0.86187 0.51376 0.7312 0.0
O222 O 0.88248 0.53763 0.73377 0.0
C223 C 0.91779 0.48121 0.61515 0.0
Zn224 Zn 0.33619 0.47854 0.1367 0.0
Zn225 Zn 0.28167 0.48463 0.16058 0.0
O226 O 0.29668 0.43619 0.16567 0.0
O227 O 0.34862 0.4373 0.15606 0.0
O228 O 0.24099 0.48634 0.18708 0.0
O229 O 0.35531 0.51792 0.15498 0.0
O230 O 0.30774 0.52474 0.17715 0.0
C231 C 0.32398 0.42195 0.1648 0.0
C232 C 0.28523 0.48823 0.08952 0.0
O233 O 0.26781 0.49342 0.11417 0.0
O234 O 0.31443 0.47982 0.09277 0.0
C235 C 0.24252 0.47749 0.21624 0.0
O236 O 0.27041 0.4679 0.22764 0.0
C237 C 0.33657 0.53436 0.17235 0.0
Zn238 Zn 0.35062 0.5536 0.93816 0.0
Zn239 Zn 0.31943 0.52468 0.89481 0.0
O240 O 0.33951 0.56623 0.87481 0.0
O241 O 0.3603 0.59388 0.91461 0.0
O242 O 0.28907 0.51041 0.85988 0.0
O243 O 0.38166 0.51512 0.93525 0.0
O244 O 0.3546 0.49096 0.89668 0.0
C245 C 0.35408 0.59125 0.88507 0.0
C246 C 0.29435 0.53441 0.96545 0.0
O247 O 0.2928 0.52141 0.93765 0.0
O248 O 0.31688 0.5538 0.97173 0.0
C249 C 0.27108 0.48569 0.86099 0.0
O250 O 0.27178 0.46742 0.88665 0.0
C251 C 0.37848 0.49171 0.9158 0.0
Zn252 Zn 0.53344 0.36177 0.94996 0.0
Zn253 Zn 0.52721 0.34894 0.89059 0.0
O254 O 0.48933 0.38012 0.89348 0.0
O255 O 0.49276 0.38889 0.94549 0.0
O256 O 0.52859 0.33259 0.845 0.0
O257 O 0.57535 0.38421 0.94654 0.0
O258 O 0.57033 0.37491 0.89493 0.0
C259 C 0.47883 0.39379 0.91883 0.0
C260 C 0.51989 0.29729 0.9447 0.0
O261 O 0.51609 0.307 0.91595 0.0
O262 O 0.5311 0.31644 0.96543 0.0
C263 C 0.50714 0.31313 0.83511 0.0
O264 O 0.48314 0.30577 0.85434 0.0
C265 C 0.58572 0.38773 0.91825 0.0
Zn266 Zn 0.69917 0.55754 0.93017 0.0
Zn267 Zn 0.72699 0.534 0.8835 0.0
O268 O 0.69381 0.49873 0.87982 0.0
O269 O 0.67355 0.51472 0.92613 0.0
O270 O 0.7618 0.52638 0.85079 0.0
O271 O 0.6827 0.59804 0.9112 0.0
O272 O 0.70507 0.57694 0.86836 0.0
C273 C 0.67453 0.49441 0.90318 0.0
C274 C 0.75017 0.53414 0.95609 0.0
O275 O 0.74846 0.52295 0.92755 0.0
O276 O 0.73465 0.55948 0.96253 0.0
C277 C 0.76052 0.5064 0.82766 0.0
O278 O 0.73485 0.48823 0.82437 0.0
C279 C 0.6887 0.59942 0.88153 0.0
Zn280 Zn 0.52234 0.64589 0.88214 0.0
Zn281 Zn 0.51717 0.7023 0.85922 0.0
O282 O 0.56428 0.68674 0.84785 0.0
O283 O 0.56319 0.63539 0.86032 0.0
O284 O 0.51163 0.74412 0.83609 0.0
O285 O 0.48148 0.62923 0.8637 0.0
O286 O 0.47567 0.67809 0.84464 0.0
C287 C 0.57786 0.65913 0.84848 0.0
C288 C 0.51582 0.69612 0.93059 0.0
O289 O 0.51184 0.71434 0.90646 0.0
O290 O 0.52214 0.66652 0.92663 0.0
C291 C 0.53216 0.76656 0.8332 0.0
O292 O 0.56104 0.76302 0.84561 0.0
C293 C 0.46497 0.6496 0.84844 0.0
Zn294 Zn 0.62893 0.45098 0.04912 0.0
Zn295 Zn 0.65063 0.45774 0.1066 0.0
O296 O 0.61994 0.49627 0.10593 0.0
O297 O 0.60239 0.49142 0.05637 0.0
O298 O 0.67438 0.46121 0.14881 0.0
O299 O 0.60834 0.40921 0.05864 0.0
O300 O 0.62288 0.41575 0.10904 0.0
C301 C 0.60206 0.50606 0.08313 0.0
C302 C 0.69426 0.46006 0.04472 0.0
O303 O 0.68935 0.46341 0.07477 0.0
O304 O 0.67112 0.45231 0.0266 0.0
C305 C 0.69072 0.48691 0.15197 0.0
O306 O 0.6882 0.50901 0.12963 0.0
C307 C 0.60776 0.39989 0.08748 0.0
Zn308 Zn 0.44253 0.6366 0.08156 0.0
Zn309 Zn 0.47522 0.66481 0.12449 0.0
O310 O 0.43248 0.64934 0.14655 0.0
O311 O 0.40298 0.6297 0.10746 0.0
O312 O 0.49393 0.69665 0.15563 0.0
O313 O 0.47987 0.60396 0.08226 0.0
O314 O 0.50643 0.62758 0.12149 0.0
C315 C 0.40626 0.63662 0.1368 0.0
C316 C 0.46535 0.69022 0.05396 0.0
O317 O 0.47921 0.68966 0.08127 0.0
O318 O 0.44297 0.67053 0.0481 0.0
C319 C 0.49128 0.69432 0.18591 0.0
O320 O 0.47673 0.6691 0.19813 0.0
C321 C 0.50401 0.60493 0.10102 0.0
Zn322 Zn 0.42856 0.31723 0.06617 0.0
Zn323 Zn 0.44457 0.27565 0.10766 0.0
O324 O 0.48318 0.30488 0.11537 0.0
O325 O 0.47368 0.33639 0.07405 0.0
O326 O 0.45336 0.23842 0.13663 0.0
O327 O 0.38962 0.33212 0.08986 0.0
O328 O 0.40212 0.29576 0.12596 0.0
C329 C 0.49174 0.32765 0.09701 0.0
C330 C 0.44023 0.26221 0.03351 0.0
O331 O 0.45013 0.25588 0.0618 0.0
O332 O 0.4232 0.28704 0.02926 0.0
C333 C 0.48128 0.22591 0.13545 0.0
O334 O 0.5023 0.23723 0.11477 0.0
C335 C 0.38347 0.31798 0.11596 0.0
C336 C 0.11237 0.36225 0.40945 0.0
C337 C 0.08434 0.38017 0.41614 0.0
C338 C 0.12599 0.34172 0.43269 0.0
C339 C 0.11241 0.33887 0.46362 0.0
H340 H 0.12357 0.36376 0.38601 0.0
H341 H 0.14701 0.32767 0.42618 0.0
S342 S 0.04112 0.38379 0.4943 0.0
N343 N 0.04486 0.39541 0.45668 0.0
N344 N 0.07054 0.35782 0.50013 0.0
C345 C 0.085 0.35762 0.47079 0.0
C346 C 0.07095 0.37797 0.44715 0.0
C347 C 0.62962 0.16399 0.37667 0.0
C348 C 0.65675 0.15195 0.39287 0.0
C349 C 0.61804 0.14904 0.34872 0.0
C350 C 0.63258 0.12083 0.33668 0.0
H351 H 0.61566 0.18339 0.3872 0.0
H352 H 0.59552 0.15756 0.33871 0.0
S353 S 0.70728 0.08289 0.36739 0.0
N354 N 0.7006 0.11324 0.39224 0.0
N355 N 0.67814 0.0843 0.34043 0.0
C356 C 0.66159 0.11058 0.35079 0.0
C357 C 0.67385 0.12637 0.37876 0.0
C358 C 0.79755 0.61893 0.38999 0.0
C359 C 0.8127 0.64837 0.39728 0.0
C360 C 0.80443 0.60237 0.36135 0.0
C361 C 0.82717 0.61454 0.33947 0.0
H362 H 0.78358 0.6067 0.40825 0.0
H363 H 0.79512 0.57818 0.35848 0.0
S364 S 0.8666 0.69447 0.34362 0.0
N365 N 0.84577 0.69205 0.37735 0.0
N366 N 0.85926 0.6608 0.32376 0.0
C367 C 0.83857 0.64608 0.34431 0.0
C368 C 0.83107 0.66312 0.3732 0.0
C369 C 0.34671 0.85825 0.40462 0.0
C370 C 0.3584 0.83292 0.42368 0.0
C371 C 0.36253 0.8671 0.37617 0.0
C372 C 0.39019 0.85054 0.36548 0.0
H373 H 0.32727 0.87338 0.41328 0.0
H374 H 0.35444 0.88851 0.36378 0.0
S375 S 0.42574 0.77792 0.40334 0.0
N376 N 0.39594 0.78834 0.42754 0.0
N377 N 0.4251 0.80413 0.37362 0.0
C378 C 0.39955 0.82269 0.38232 0.0
C379 C 0.38381 0.81412 0.41159 0.0
C380 C 0.17269 0.57087 0.59632 0.0
C381 C 0.16395 0.56224 0.62775 0.0
C382 C 0.16043 0.5989 0.58214 0.0
C383 C 0.13821 0.61845 0.5987 0.0
H384 H 0.18607 0.55409 0.58145 0.0
H385 H 0.16493 0.60272 0.55681 0.0
S386 S 0.11333 0.60986 0.68367 0.0
N387 N 0.13695 0.57855 0.67691 0.0
N388 N 0.11277 0.63052 0.64985 0.0
C389 C 0.13282 0.61234 0.63142 0.0
C390 C 0.14603 0.58431 0.64609 0.0
C391 C 0.43663 0.14929 0.57716 0.0
C392 C 0.45086 0.14361 0.547 0.0
C393 C 0.4558 0.15656 0.60403 0.0
C394 C 0.48956 0.15817 0.60127 0.0
H395 H 0.4111 0.14514 0.58065 0.0
H396 H 0.44444 0.15818 0.6274 0.0
S397 S 0.53723 0.15305 0.52617 0.0
N398 N 0.49974 0.14593 0.5149 0.0
N399 N 0.53563 0.15945 0.56528 0.0
C400 C 0.50347 0.15615 0.57063 0.0
C401 C 0.48409 0.14895 0.54345 0.0
C402 C 0.95074 0.45388 0.57319 0.0
C403 C 0.92209 0.45505 0.5912 0.0
C404 C 0.9558 0.43025 0.54984 0.0
C405 C 0.9323 0.40673 0.54311 0.0
H406 H 0.9696 0.47151 0.57699 0.0
H407 H 0.97817 0.43101 0.53646 0.0
S408 S 0.85355 0.39804 0.58464 0.0
N409 N 0.87032 0.42974 0.60181 0.0
N410 N 0.87965 0.38529 0.55747 0.0
C411 C 0.90381 0.40698 0.56154 0.0
C412 C 0.89873 0.4311 0.58565 0.0
C413 C 0.50846 0.90397 0.58649 0.0
C414 C 0.51739 0.90436 0.61898 0.0
C415 C 0.53165 0.90232 0.56229 0.0
C416 C 0.56473 0.90127 0.56957 0.0
H417 H 0.4834 0.90647 0.57962 0.0
H418 H 0.52367 0.90397 0.53757 0.0
S419 S 0.60054 0.89764 0.65093 0.0
N420 N 0.56131 0.9 0.65741 0.0
N421 N 0.6052 0.89741 0.61152 0.0
C422 C 0.57396 0.89887 0.60191 0.0
C423 C 0.55017 0.90035 0.62676 0.0
C424 C 0.4444 0.10353 0.3819 0.0
C425 C 0.43346 0.07504 0.39645 0.0
C426 C 0.46781 0.10255 0.35753 0.0
C427 C 0.48105 0.07308 0.34723 0.0
H428 H 0.43674 0.12675 0.391 0.0
H429 H 0.47713 0.12505 0.34829 0.0
S430 S 0.45513 0.99163 0.37248 0.0
N431 N 0.43354 0.01647 0.39483 0.0
N432 N 0.4777 0.01476 0.34947 0.0
C433 C 0.46804 0.04444 0.35941 0.0
C434 C 0.44412 0.0454 0.38388 0.0
C435 C 0.9301 0.42766 0.37033 0.0
C436 C 0.9092 0.40661 0.38662 0.0
C437 C 0.91842 0.45363 0.35272 0.0
C438 C 0.8852 0.45973 0.35007 0.0
H439 H 0.95597 0.42488 0.37213 0.0
H440 H 0.93582 0.46927 0.34123 0.0
S441 S 0.81976 0.41017 0.38497 0.0
N442 N 0.85323 0.39235 0.39703 0.0
N443 N 0.83122 0.44113 0.36293 0.0
C444 C 0.86375 0.43791 0.36448 0.0
C445 C 0.87574 0.41138 0.38295 0.0
C446 C 0.55888 0.87656 0.38539 0.0
C447 C 0.54472 0.90104 0.36694 0.0
C448 C 0.58288 0.88371 0.40802 0.0
C449 C 0.59361 0.91553 0.41272 0.0
H450 H 0.55007 0.85208 0.38371 0.0
H451 H 0.59149 0.8645 0.4233 0.0
S452 S 0.56912 0.98687 0.36503 0.0
N453 N 0.54656 0.95727 0.35111 0.0
N454 N 0.5919 0.9707 0.39318 0.0
C455 C 0.58176 0.9396 0.39213 0.0
C456 C 0.55717 0.93237 0.3694 0.0
C457 C 0.0418 0.56741 0.45853 0.0
C458 C 0.06937 0.58708 0.4583 0.0
C459 C 0.03763 0.54285 0.43594 0.0
C460 C 0.06097 0.53655 0.41217 0.0
H461 H 0.02322 0.57077 0.47652 0.0
H462 H 0.01614 0.52818 0.43777 0.0
S463 S 0.13695 0.58213 0.39998 0.0
N464 N 0.1199 0.59955 0.43139 0.0
N465 N 0.1122 0.55305 0.38893 0.0
C466 C 0.08834 0.55656 0.41105 0.0
C467 C 0.0925 0.58188 0.43406 0.0
C468 C 0.32701 0.86906 0.621 0.0
C469 C 0.34069 0.84007 0.60982 0.0
C470 C 0.34158 0.88666 0.64584 0.0
C471 C 0.36999 0.87567 0.6607 0.0
H472 H 0.30752 0.88038 0.60795 0.0
H473 H 0.33253 0.91061 0.65094 0.0
S474 S 0.40838 0.79598 0.64758 0.0
N475 N 0.37911 0.79741 0.62079 0.0
N476 N 0.40611 0.83006 0.66796 0.0
C477 C 0.3803 0.84412 0.65362 0.0
C478 C 0.36571 0.82639 0.628 0.0
C479 C 0.1945 0.37651 0.60281 0.0
C480 C 0.18137 0.38286 0.63332 0.0
C481 C 0.19125 0.34617 0.58836 0.0
C482 C 0.17398 0.32144 0.60368 0.0
H483 H 0.20429 0.39603 0.58863 0.0
H484 H 0.19887 0.34349 0.56361 0.0
S485 S 0.14199 0.32385 0.68688 0.0
N486 N 0.15624 0.36044 0.68084 0.0
N487 N 0.1495 0.30343 0.6536 0.0
C488 C 0.16475 0.32625 0.63592 0.0
C489 C 0.16858 0.35705 0.65079 0.0
C490 C 0.65516 0.18264 0.62789 0.0
C491 C 0.62375 0.19344 0.63509 0.0
C492 C 0.66833 0.18642 0.59704 0.0
C493 C 0.65029 0.20072 0.57232 0.0
H494 H 0.66817 0.168 0.64504 0.0
H495 H 0.6909 0.17444 0.59159 0.0
S496 S 0.5709 0.24065 0.58087 0.0
N497 N 0.57822 0.22551 0.61673 0.0
N498 N 0.60262 0.23155 0.55867 0.0
C499 C 0.62108 0.21576 0.58048 0.0
C500 C 0.60792 0.21248 0.612 0.0
C501 C 0.86536 0.63354 0.62244 0.0
C502 C 0.85733 0.60098 0.62714 0.0
C503 C 0.85144 0.65133 0.59744 0.0
C504 C 0.82974 0.63679 0.57596 0.0
H505 H 0.88496 0.64426 0.63589 0.0
H506 H 0.86123 0.67491 0.59218 0.0
S507 S 0.79549 0.55486 0.58231 0.0
N508 N 0.82145 0.55717 0.61227 0.0
N509 N 0.79652 0.59026 0.56441 0.0
C510 C 0.81825 0.6059 0.58318 0.0
C511 C 0.83181 0.58801 0.60907 0.0
C512 C 0.35308 0.37242 0.17974 0.0
C513 C 0.32671 0.38665 0.16395 0.0
C514 C 0.36877 0.34548 0.1666 0.0
C515 C 0.35885 0.33259 0.13699 0.0
H516 H 0.36422 0.38467 0.19987 0.0
H517 H 0.39131 0.33781 0.17724 0.0
S518 S 0.28643 0.35604 0.09074 0.0
N519 N 0.28732 0.38155 0.12121 0.0
N520 N 0.31747 0.33168 0.09588 0.0
C521 C 0.32972 0.3435 0.12377 0.0
C522 C 0.31333 0.37037 0.13757 0.0
C523 C 0.42236 0.61138 0.83179 0.0
C524 C 0.43066 0.64205 0.84343 0.0
C525 C 0.39337 0.59667 0.84096 0.0
C526 C 0.37249 0.61187 0.8629 0.0
H527 H 0.43994 0.59723 0.81865 0.0
H528 H 0.38974 0.57164 0.83455 0.0
S529 S 0.37978 0.69508 0.89404 0.0
N530 N 0.41269 0.68965 0.87233 0.0
N531 N 0.35891 0.66139 0.8908 0.0
C532 C 0.37835 0.64419 0.87085 0.0
C533 C 0.4074 0.65949 0.86077 0.0
C534 C 0.44678 0.43817 0.94358 0.0
C535 C 0.4518 0.41715 0.91747 0.0
C536 C 0.42291 0.46187 0.94274 0.0
C537 C 0.40269 0.46546 0.91593 0.0
H538 H 0.46185 0.43684 0.96475 0.0
H539 H 0.4204 0.47758 0.9634 0.0
S540 S 0.40472 0.41573 0.84173 0.0
N541 N 0.43386 0.40087 0.86424 0.0
N542 N 0.38859 0.44536 0.86282 0.0
C543 C 0.40681 0.44415 0.88988 0.0
C544 C 0.43147 0.42009 0.89059 0.0
C545 C 0.64649 0.45316 0.93589 0.0
C546 C 0.6546 0.46495 0.90536 0.0
C547 C 0.62609 0.4267 0.9395 0.0
C548 C 0.61237 0.41104 0.91274 0.0
H549 H 0.65564 0.46476 0.95736 0.0
H550 H 0.62006 0.4194 0.96372 0.0
S551 S 0.62848 0.43075 0.82728 0.0
N552 N 0.64969 0.4575 0.84768 0.0
N553 N 0.61053 0.40796 0.85436 0.0
C554 C 0.62161 0.42155 0.88192 0.0
C555 C 0.64289 0.44845 0.87826 0.0
C556 C 0.66146 0.65244 0.87609 0.0
C557 C 0.67013 0.62275 0.86215 0.0
C558 C 0.63331 0.66858 0.86663 0.0
C559 C 0.61273 0.65503 0.8435 0.0
H560 H 0.6744 0.66135 0.89688 0.0
H561 H 0.62535 0.68901 0.88079 0.0
S562 S 0.62884 0.58255 0.79416 0.0
N563 N 0.65966 0.58446 0.81917 0.0
N564 N 0.60613 0.61419 0.80237 0.0
C565 C 0.62373 0.62821 0.82608 0.0
C566 C 0.65269 0.61213 0.83521 0.0
C567 C 0.55437 0.53776 0.06523 0.0
C568 C 0.57872 0.5327 0.08817 0.0
C569 C 0.53044 0.56095 0.06986 0.0
C570 C 0.52983 0.58044 0.09753 0.0
H571 H 0.5533 0.52329 0.04358 0.0
H572 H 0.51229 0.56361 0.05138 0.0
S573 S 0.58869 0.57784 0.16459 0.0
N574 N 0.60121 0.54969 0.13944 0.0
N575 N 0.55622 0.59368 0.14804 0.0
C576 C 0.55433 0.57615 0.12051 0.0
C577 C 0.57872 0.55221 0.11588 0.0
C578 C 0.37785 0.57271 0.19126 0.0
C579 C 0.34658 0.56765 0.17922 0.0
C580 C 0.39595 0.59961 0.18187 0.0
C581 C 0.38349 0.6216 0.15949 0.0
H582 H 0.38985 0.55377 0.2045 0.0
H583 H 0.42123 0.6004 0.18834 0.0
S584 S 0.30012 0.6235 0.12796 0.0
N585 N 0.30156 0.59052 0.14997 0.0
N586 N 0.33598 0.64043 0.13128 0.0
C587 C 0.35067 0.61947 0.15153 0.0
C588 C 0.33202 0.59254 0.16175 0.0
C589 C 0.56283 0.37929 0.12177 0.0
C590 C 0.58409 0.37469 0.09574 0.0
C591 C 0.53342 0.36247 0.12341 0.0
C592 C 0.5246 0.34079 0.09901 0.0
H593 H 0.56759 0.39789 0.13942 0.0
H594 H 0.51666 0.368 0.14261 0.0
S595 S 0.57435 0.31599 0.02939 0.0
N596 N 0.59626 0.34346 0.0479 0.0
N597 N 0.54094 0.31244 0.05068 0.0
C598 C 0.54681 0.33401 0.07455 0.0
C599 C 0.57667 0.35075 0.07307 0.0
C600 C 0.02283 0.237 0.51028 0.0
C601 C 0.05335 0.23549 0.49529 0.0
C602 C 0.9974 0.25464 0.4966 0.0
C603 C 0.00173 0.27119 0.46753 0.0
H604 H 0.01972 0.22804 0.53448 0.0
H605 H 0.97577 0.25842 0.51071 0.0
S606 S 0.07245 0.2655 0.41349 0.0
N607 N 0.08281 0.24444 0.4454 0.0
N608 N 0.0355 0.27843 0.42056 0.0
C609 C 0.02998 0.26531 0.44991 0.0
C610 C 0.0556 0.24692 0.46347 0.0
C611 C 0.71598 0.04427 0.48991 0.0
C612 C 0.70869 0.06608 0.51475 0.0
C613 C 0.70971 0.01123 0.49356 0.0
C614 C 0.69576 0.99951 0.52201 0.0
H615 H 0.72259 0.05314 0.46637 0.0
H616 H 0.7114 0.99582 0.47259 0.0
S617 S 0.68006 0.04597 0.59637 0.0
N618 N 0.69301 0.07303 0.5704 0.0
N619 N 0.68129 0.01107 0.5773 0.0
C620 C 0.69324 0.02044 0.54841 0.0
C621 C 0.69951 0.05388 0.54469 0.0
C622 C 0.96237 0.70941 0.47206 0.0
C623 C 0.9366 0.71471 0.49335 0.0
C624 C 0.99431 0.70951 0.48302 0.0
C625 C 0.00125 0.7137 0.51584 0.0
H626 H 0.95763 0.70203 0.44754 0.0
H627 H 0.01306 0.70193 0.46651 0.0
S628 S 0.94282 0.73479 0.57981 0.0
N629 N 0.92048 0.73009 0.54732 0.0
N630 N 0.98045 0.72877 0.56825 0.0
C631 C 0.97607 0.72304 0.53642 0.0
C632 C 0.94364 0.72383 0.52507 0.0
C633 C 0.32235 0.00071 0.49766 0.0
C634 C 0.34304 0.01353 0.52123 0.0
C635 C 0.31287 0.96827 0.49869 0.0
C636 C 0.32398 0.94798 0.52324 0.0
H637 H 0.31597 0.01482 0.47678 0.0
H638 H 0.29927 0.95842 0.47877 0.0
S639 S 0.37158 0.97192 0.59459 0.0
N640 N 0.36894 0.00502 0.5729 0.0
N641 N 0.35151 0.94412 0.57449 0.0
C642 C 0.34143 0.96146 0.54875 0.0
C643 C 0.3508 0.99433 0.54788 0.0
C644 C 0.52749 0.93623 0.23847 0.0
C645 C 0.49391 0.94138 0.23808 0.0
C646 C 0.54902 0.9622 0.23683 0.0
C647 C 0.53766 0.99402 0.23421 0.0
H648 H 0.53721 0.91287 0.24472 0.0
H649 H 0.57424 0.95764 0.24176 0.0
S650 S 0.45299 0.01802 0.21813 0.0
N651 N 0.45112 0.97891 0.22478 0.0
N652 N 0.49151 0.02763 0.22068 0.0
C653 C 0.5048 0.99838 0.22672 0.0
C654 C 0.48286 0.97198 0.22891 0.0
C655 C 0.9766 0.51432 0.25104 0.0
C656 C 0.94496 0.50192 0.24952 0.0
C657 C 0.0017 0.49655 0.2651 0.0
C658 C 0.99593 0.46584 0.27798 0.0
H659 H 0.98111 0.53932 0.24529 0.0
H660 H 0.02441 0.5086 0.26959 0.0
S661 S 0.92119 0.41799 0.2689 0.0
N662 N 0.91227 0.45332 0.2532 0.0
N663 N 0.95916 0.42057 0.28043 0.0
C664 C 0.96627 0.4511 0.27119 0.0
C665 C 0.94086 0.46894 0.25647 0.0
C666 C 0.46306 0.04419 0.72522 0.0
C667 C 0.47761 0.01374 0.72846 0.0
C668 C 0.48158 0.07245 0.72502 0.0
C669 C 0.51538 0.07114 0.72735 0.0
H670 H 0.43757 0.04598 0.71988 0.0
H671 H 0.46964 0.09492 0.71936 0.0
S672 S 0.56437 0.99833 0.74341 0.0
N673 N 0.52714 0.9847 0.74007 0.0
N674 N 0.56198 0.03771 0.73875 0.0
C675 C 0.5297 0.04135 0.73456 0.0
C676 C 0.51078 0.01264 0.7354 0.0
C677 C 0.02211 0.52444 0.71852 0.0
C678 C 0.99502 0.5058 0.71024 0.0
C679 C 0.05333 0.5115 0.71684 0.0
C680 C 0.05835 0.47978 0.70614 0.0
H681 H 0.01943 0.54999 0.72306 0.0
H682 H 0.07365 0.52754 0.72013 0.0
S683 S 0.99554 0.41926 0.68796 0.0
N684 N 0.9752 0.45233 0.69668 0.0
N685 N 0.03397 0.42866 0.69218 0.0
C686 C 0.03146 0.45991 0.70158 0.0
C687 C 0.99967 0.47276 0.70412 0.0
C688 C 0.26864 0.54084 0.01892 0.0
C689 C 0.27719 0.52048 0.99319 0.0
C690 C 0.26674 0.52906 0.05042 0.0
C691 C 0.27402 0.49676 0.05711 0.0
H692 H 0.26678 0.56656 0.01518 0.0
H693 H 0.2633 0.54607 0.06991 0.0
S694 S 0.29166 0.43259 0.99781 0.0
N695 N 0.28758 0.46548 0.97602 0.0
N696 N 0.28524 0.44373 0.03539 0.0
C697 C 0.27891 0.47554 0.03131 0.0
C698 C 0.28002 0.48732 -0.00081 0.0
C699 C 0.46855 0.26837 0.9505 0.0
C700 C 0.50183 0.26923 0.9568 0.0
C701 C 0.44683 0.25865 0.97443 0.0
C702 C 0.45802 0.2497 0.0051 0.0
H703 H 0.45893 0.28025 0.92946 0.0
H704 H 0.42143 0.2634 0.97069 0.0
S705 S 0.54295 0.23182 0.02611 0.0
N706 N 0.54495 0.2488 0.99034 0.0
N707 N 0.50422 0.22978 0.0351 0.0
C708 C 0.49104 0.24254 0.00813 0.0
C709 C 0.5131 0.2528 0.98395 0.0
C710 C 0.74898 0.47831 0.97663 0.0
C711 C 0.75523 0.5111 0.98287 0.0
C712 C 0.73295 0.45933 -0.00066 0.0
C713 C 0.72401 0.47213 0.02933 0.0
H714 H 0.75152 0.46863 0.95258 0.0
H715 H 0.72402 0.43597 0.99189 0.0
S716 S 0.74829 0.55148 0.06206 0.0
N717 N 0.76095 0.55188 0.02444 0.0
N718 N 0.73184 0.51573 0.06756 0.0
C719 C 0.73682 0.50214 0.03827 0.0
C720 C 0.75255 0.52174 0.01489 0.0
C721 C 0.4753 0.71689 0.96899 0.0
C722 C 0.50719 0.70717 0.96303 0.0
C723 C 0.46241 0.71561 0.00011 0.0
C724 C 0.48131 0.70535 0.02617 0.0
H725 H 0.45921 0.72194 0.94914 0.0
H726 H 0.43679 0.71961 0.00326 0.0
S727 S 0.56808 0.68392 0.02352 0.0
N728 N 0.55857 0.69149 0.98579 0.0
N729 N 0.53494 0.69045 0.04454 0.0
C730 C 0.51439 0.69985 0.02096 0.0
C731 C 0.52719 0.70027 0.9892 0.0
C732 C 0.24034 0.18631 0.50984 0.0
C733 C 0.23949 0.20997 0.48573 0.0
C734 C 0.26556 0.16397 0.51168 0.0
C735 C 0.29107 0.16403 0.48938 0.0
H736 H 0.22164 0.18528 0.52798 0.0
H737 H 0.26505 0.14664 0.53104 0.0
S738 S 0.29963 0.2198 0.42036 0.0
N739 N 0.26597 0.23132 0.43819 0.0
N740 N 0.3133 0.18918 0.44154 0.0
C741 C 0.29022 0.18704 0.46461 0.0
C742 C 0.26452 0.21001 0.46283 0.0
C743 C 0.81456 0.22649 0.52673 0.0
C744 C 0.79235 0.22226 0.50155 0.0
C745 C 0.84029 0.24816 0.52409 0.0
C746 C 0.84483 0.26676 0.49626 0.0
H747 H 0.81218 0.21289 0.54875 0.0
H748 H 0.8567 0.25037 0.54419 0.0
S749 S 0.79332 0.26507 0.42335 0.0
N750 N 0.77658 0.23869 0.44774 0.0
N751 N 0.82477 0.27948 0.44287 0.0
C752 C 0.82274 0.26289 0.47087 0.0
C753 C 0.79661 0.24063 0.47348 0.0
C754 C 0.72578 0.77709 0.49098 0.0
C755 C 0.75883 0.77452 0.49815 0.0
C756 C 0.70895 0.80607 0.49541 0.0
C757 C 0.72436 0.83385 0.50733 0.0
H758 H 0.71267 0.75659 0.48162 0.0
H759 H 0.6836 0.80664 0.48927 0.0
S760 S 0.81058 0.83985 0.53074 0.0
N761 N 0.8063 0.80233 0.51839 0.0
N762 N 0.77476 0.85665 0.52678 0.0
C763 C 0.75739 0.83158 0.5149 0.0
C764 C 0.77457 0.80203 0.51029 0.0
C765 C 0.1897 0.73716 0.48797 0.0
C766 C 0.16255 0.74929 0.50426 0.0
C767 C 0.21788 0.75544 0.48493 0.0
C768 C 0.22007 0.7867 0.49787 0.0
H769 H 0.18969 0.71289 0.47842 0.0
H770 H 0.23836 0.74454 0.47298 0.0
S771 S 0.15443 0.83108 0.53955 0.0
N772 N 0.13867 0.79558 0.53118 0.0
N773 N 0.19157 0.82998 0.52537 0.0
C774 C 0.19253 0.79978 0.51279 0.0
C775 C 0.16383 0.78107 0.51602 0.0
C776 C 0.4738 0.1599 0.19769 0.0
C777 C 0.50603 0.15151 0.20387 0.0
C778 C 0.46606 0.18379 0.17535 0.0
C779 C 0.49022 0.19993 0.15799 0.0
H780 H 0.45433 0.14837 0.21062 0.0
H781 H 0.44088 0.18966 0.17176 0.0
S782 S 0.57839 0.18581 0.16417 0.0
N783 N 0.56233 0.16052 0.19012 0.0
N784 N 0.54779 0.20519 0.14792 0.0
C785 C 0.52256 0.19128 0.16342 0.0
C786 C 0.53046 0.16717 0.18642 0.0
C787 C 0.73941 0.47003 0.22763 0.0
C788 C 0.76204 0.49526 0.22816 0.0
C789 C 0.71614 0.46774 0.20325 0.0
C790 C 0.71434 0.49075 0.17856 0.0
H791 H 0.73991 0.45156 0.24592 0.0
H792 H 0.6996 0.44759 0.20368 0.0
S793 S 0.76714 0.56245 0.16967 0.0
N794 N 0.7805 0.54435 0.20224 0.0
N795 N 0.73689 0.54019 0.15675 0.0
C796 C 0.73645 0.51648 0.17918 0.0
C797 C 0.76026 0.51868 0.20384 0.0
C798 C 0.48518 0.72557 0.23685 0.0
C799 C 0.49978 0.72214 0.20656 0.0
C800 C 0.48871 0.7539 0.25478 0.0
C801 C 0.50723 0.77984 0.24331 0.0
H802 H 0.46964 0.70688 0.24621 0.0
H803 H 0.47593 0.75579 0.2774 0.0
S804 S 0.55413 0.78113 0.16735 0.0
N805 N 0.53613 0.74572 0.16726 0.0
N806 N 0.54296 0.79891 0.20107 0.0
C807 C 0.52372 0.77588 0.21402 0.0
C808 C 0.51991 0.74708 0.19561 0.0
C809 C 0.15696 0.49368 0.24495 0.0
C810 C 0.15601 0.47916 0.27544 0.0
C811 C 0.18495 0.49299 0.22607 0.0
C812 C 0.21331 0.47798 0.23695 0.0
H813 H 0.13578 0.50542 0.2353 0.0
H814 H 0.18427 0.50441 0.20274 0.0
S815 S 0.22388 0.43689 0.31537 0.0
N816 N 0.1862 0.44962 0.31585 0.0
N817 N 0.23876 0.44844 0.28051 0.0
C818 C 0.21285 0.46363 0.26756 0.0
C819 C 0.18425 0.46417 0.28673 0.0
C820 C 0.54805 0.81623 0.80305 0.0
C821 C 0.52371 0.79581 0.8147 0.0
C822 C 0.54066 0.84263 0.78346 0.0
C823 C 0.50861 0.84975 0.77491 0.0
H824 H 0.57313 0.81131 0.80831 0.0
H825 H 0.56036 0.85709 0.77439 0.0
S826 S 0.43562 0.80567 0.80208 0.0
N827 N 0.46599 0.78594 0.81829 0.0
N828 N 0.45209 0.83541 0.78172 0.0
C829 C 0.48391 0.83028 0.78757 0.0
C830 C 0.49146 0.80336 0.80737 0.0
C831 C 0.25108 0.49716 0.80554 0.0
C832 C 0.24966 0.47805 0.83337 0.0
C833 C 0.23118 0.49106 0.77911 0.0
C834 C 0.20885 0.46558 0.77921 0.0
H835 H 0.26773 0.51716 0.80403 0.0
H836 H 0.23334 0.50667 0.75844 0.0
S837 S 0.19549 0.40809 0.84607 0.0
N838 N 0.22406 0.43232 0.85935 0.0
N839 N 0.1866 0.42085 0.80965 0.0
C840 C 0.20718 0.44611 0.80682 0.0
C841 C 0.22757 0.45233 0.83384 0.0
C842 C 0.50027 0.24763 0.77192 0.0
C843 C 0.52357 0.25636 0.74897 0.0
C844 C 0.49421 0.26687 0.79892 0.0
C845 C 0.51147 0.2955 0.80436 0.0
H846 H 0.48686 0.2254 0.76935 0.0
H847 H 0.47658 0.25855 0.81619 0.0
S848 S 0.57342 0.33057 0.75045 0.0
N849 N 0.56269 0.29675 0.73254 0.0
N850 N 0.5515 0.33274 0.78348 0.0
C851 C 0.53405 0.30518 0.78106 0.0
C852 C 0.54002 0.28568 0.75333 0.0
C853 C 0.81302 0.52708 0.80695 0.0
C854 C 0.78703 0.50558 0.80368 0.0
C855 C 0.83738 0.52879 0.78382 0.0
C856 C 0.83695 0.50905 0.75633 0.0
H857 H 0.8144 0.54332 0.82729 0.0
H858 H 0.85642 0.54626 0.78738 0.0
S859 S 0.77558 0.44686 0.73724 0.0
N860 N 0.76325 0.46276 0.77148 0.0
N861 N 0.80916 0.46598 0.72792 0.0
C862 C 0.81173 0.4866 0.75318 0.0
C863 C 0.78677 0.48487 0.77683 0.0
loop_
_geom_bond_atom_site_label_1
_geom_bond_atom_site_label_2
_geom_bond_distance
_geom_bond_site_symmetry_2
_ccdc_geom_bond_type
Zn0 O3 2.031 . S
Zn0 O5 2.049 . S
Zn0 O10 2.067 . S
Zn1 O2 1.962 . S
Zn1 O4 1.986 . S
Zn1 O6 1.996 . S
Zn1 O9 1.943 . S
O2 Zn1 1.962 . S
O2 C7 1.254 . S
O3 Zn0 2.031 . S
O3 C7 1.269 . S
O4 Zn1 1.986 . S
O4 C11 1.262 . S
O5 Zn0 2.049 . S
O5 C13 1.260 . S
O6 Zn1 1.996 . S
O6 C13 1.257 . S
C7 O2 1.254 . S
C7 O3 1.269 . S
C8 O9 1.249 . S
C8 O10 1.270 . S
O9 Zn1 1.943 . S
O9 C8 1.249 . S
O10 Zn0 2.067 . S
O10 C8 1.270 . S
C11 O4 1.262 . S
C11 O12 1.232 . S
O12 C11 1.232 . S
C13 O5 1.260 . S
C13 O6 1.257 . S
Zn14 O17 2.031 . S
Zn14 O19 2.049 . S
Zn14 O24 2.067 . S
Zn15 O16 1.962 . S
Zn15 O18 1.986 . S
Zn15 O20 1.996 . S
Zn15 O23 1.943 . S
O16 Zn15 1.962 . S
O16 C21 1.254 . S
O17 Zn14 2.031 . S
O17 C21 1.269 . S
O18 Zn15 1.986 . S
O18 C25 1.262 . S
O19 Zn14 2.049 . S
O19 C27 1.260 . S
O20 Zn15 1.996 . S
O20 C27 1.257 . S
C21 O16 1.254 . S
C21 O17 1.269 . S
C22 O23 1.249 . S
C22 O24 1.270 . S
O23 Zn15 1.943 . S
O23 C22 1.249 . S
O24 Zn14 2.067 . S
O24 C22 1.270 . S
C25 O18 1.262 . S
C25 O26 1.232 . S
O26 C25 1.232 . S
C27 O19 1.260 . S
C27 O20 1.257 . S
Zn28 O31 2.031 . S
Zn28 O33 2.049 . S
Zn28 O38 2.067 . S
Zn29 O30 1.962 . S
Zn29 O32 1.986 . S
Zn29 O34 1.996 . S
Zn29 O37 1.943 . S
O30 Zn29 1.962 . S
O30 C35 1.254 . S
O31 Zn28 2.031 . S
O31 C35 1.269 . S
O32 Zn29 1.986 . S
O32 C39 1.262 . S
O33 Zn28 2.049 . S
O33 C41 1.260 . S
O34 Zn29 1.996 . S
O34 C41 1.257 . S
C35 O30 1.254 . S
C35 O31 1.269 . S
C36 O37 1.249 . S
C36 O38 1.270 . S
O37 Zn29 1.943 . S
O37 C36 1.249 . S
O38 Zn28 2.067 . S
O38 C36 1.270 . S
C39 O32 1.262 . S
C39 O40 1.232 . S
O40 C39 1.232 . S
C41 O33 1.260 . S
C41 O34 1.257 . S
Zn42 O45 2.031 . S
Zn42 O47 2.049 . S
Zn42 O52 2.067 . S
Zn43 O44 1.962 . S
Zn43 O46 1.986 . S
Zn43 O48 1.996 . S
Zn43 O51 1.943 . S
O44 Zn43 1.962 . S
O44 C49 1.254 . S
O45 Zn42 2.031 . S
O45 C49 1.269 . S
O46 Zn43 1.986 . S
O46 C53 1.262 . S
O47 Zn42 2.049 . S
O47 C55 1.260 . S
O48 Zn43 1.996 . S
O48 C55 1.257 . S
C49 O44 1.254 . S
C49 O45 1.269 . S
C50 O51 1.249 . S
C50 O52 1.270 . S
O51 Zn43 1.943 . S
O51 C50 1.249 . S
O52 Zn42 2.067 . S
O52 C50 1.270 . S
C53 O46 1.262 . S
C53 O54 1.232 . S
O54 C53 1.232 . S
C55 O47 1.260 . S
C55 O48 1.257 . S
Zn56 O59 2.031 . S
Zn56 O61 2.049 . S
Zn56 O66 2.067 . S
Zn57 O58 1.962 . S
Zn57 O60 1.986 . S
Zn57 O62 1.996 . S
Zn57 O65 1.943 . S
O58 Zn57 1.962 . S
O58 C63 1.254 . S
O59 Zn56 2.031 . S
O59 C63 1.269 . S
O60 Zn57 1.986 . S
O60 C67 1.262 . S
O61 Zn56 2.049 . S
O61 C69 1.260 . S
O62 Zn57 1.996 . S
O62 C69 1.257 . S
C63 O58 1.254 . S
C63 O59 1.269 . S
C64 O65 1.249 . S
C64 O66 1.270 . S
O65 Zn57 1.943 . S
O65 C64 1.249 . S
O66 Zn56 2.067 . S
O66 C64 1.270 . S
C67 O60 1.262 . S
C67 O68 1.232 . S
O68 C67 1.232 . S
C69 O61 1.260 . S
C69 O62 1.257 . S
Zn70 O73 2.031 . S
Zn70 O75 2.049 . S
Zn70 O80 2.067 . S
Zn71 O72 1.962 . S
Zn71 O74 1.986 . S
Zn71 O76 1.996 . S
Zn71 O79 1.943 . S
O72 Zn71 1.962 . S
O72 C77 1.254 . S
O73 Zn70 2.031 . S
O73 C77 1.269 . S
O74 Zn71 1.986 . S
O74 C81 1.262 . S
O75 Zn70 2.049 . S
O75 C83 1.260 . S
O76 Zn71 1.996 . S
O76 C83 1.257 . S
C77 O72 1.254 . S
C77 O73 1.269 . S
C78 O79 1.249 . S
C78 O80 1.270 . S
O79 Zn71 1.943 . S
O79 C78 1.249 . S
O80 Zn70 2.067 . S
O80 C78 1.270 . S
C81 O74 1.262 . S
C81 O82 1.232 . S
O82 C81 1.232 . S
C83 O75 1.260 . S
C83 O76 1.257 . S
Zn84 O87 2.031 . S
Zn84 O89 2.049 . S
Zn84 O94 2.067 . S
Zn85 O86 1.962 . S
Zn85 O88 1.986 . S
Zn85 O90 1.996 . S
Zn85 O93 1.943 . S
O86 Zn85 1.962 . S
O86 C91 1.254 . S
O87 Zn84 2.031 . S
O87 C91 1.269 . S
O88 Zn85 1.986 . S
O88 C95 1.262 . S
O89 Zn84 2.049 . S
O89 C97 1.260 . S
O90 Zn85 1.996 . S
O90 C97 1.257 . S
C91 O86 1.254 . S
C91 O87 1.269 . S
C92 O93 1.249 . S
C92 O94 1.270 . S
O93 Zn85 1.943 . S
O93 C92 1.249 . S
O94 Zn84 2.067 . S
O94 C92 1.270 . S
C95 O88 1.262 . S
C95 O96 1.232 . S
O96 C95 1.232 . S
C97 O89 1.260 . S
C97 O90 1.257 . S
Zn98 O101 2.031 . S
Zn98 O103 2.049 . S
Zn98 O108 2.067 . S
Zn99 O100 1.962 . S
Zn99 O102 1.986 . S
Zn99 O104 1.996 . S
Zn99 O107 1.943 . S
O100 Zn99 1.962 . S
O100 C105 1.254 . S
O101 Zn98 2.031 . S
O101 C105 1.269 . S
O102 Zn99 1.986 . S
O102 C109 1.262 . S
O103 Zn98 2.049 . S
O103 C111 1.260 . S
O104 Zn99 1.996 . S
O104 C111 1.257 . S
C105 O100 1.254 . S
C105 O101 1.269 . S
C106 O107 1.249 . S
C106 O108 1.270 . S
O107 Zn99 1.943 . S
O107 C106 1.249 . S
O108 Zn98 2.067 . S
O108 C106 1.270 . S
C109 O102 1.262 . S
C109 O110 1.232 . S
O110 C109 1.232 . S
C111 O103 1.260 . S
C111 O104 1.257 . S
Zn112 O115 2.031 . S
Zn112 O117 2.049 . S
Zn112 O122 2.067 . S
Zn113 O114 1.962 . S
Zn113 O116 1.986 . S
Zn113 O118 1.996 . S
Zn113 O121 1.943 . S
O114 Zn113 1.962 . S
O114 C119 1.254 . S
O115 Zn112 2.031 . S
O115 C119 1.269 . S
O116 Zn113 1.986 . S
O116 C123 1.262 . S
O117 Zn112 2.049 . S
O117 C125 1.260 . S
O118 Zn113 1.996 . S
O118 C125 1.257 . S
C119 O114 1.254 . S
C119 O115 1.269 . S
C120 O121 1.249 . S
C120 O122 1.270 . S
O121 Zn113 1.943 . S
O121 C120 1.249 . S
O122 Zn112 2.067 . S
O122 C120 1.270 . S
C123 O116 1.262 . S
C123 O124 1.232 . S
O124 C123 1.232 . S
C125 O117 1.260 . S
C125 O118 1.257 . S
Zn126 O129 2.031 . S
Zn126 O131 2.049 . S
Zn126 O136 2.067 . S
Zn127 O128 1.962 . S
Zn127 O130 1.986 . S
Zn127 O132 1.996 . S
Zn127 O135 1.943 . S
O128 Zn127 1.962 . S
O128 C133 1.254 . S
O129 Zn126 2.031 . S
O129 C133 1.269 . S
O130 Zn127 1.986 . S
O130 C137 1.262 . S
O131 Zn126 2.049 . S
O131 C139 1.260 . S
O132 Zn127 1.996 . S
O132 C139 1.257 . S
C133 O128 1.254 . S
C133 O129 1.269 . S
C134 O135 1.249 . S
C134 O136 1.270 . S
O135 Zn127 1.943 . S
O135 C134 1.249 . S
O136 Zn126 2.067 . S
O136 C134 1.270 . S
C137 O130 1.262 . S
C137 O138 1.232 . S
O138 C137 1.232 . S
C139 O131 1.260 . S
C139 O132 1.257 . S
Zn140 O143 2.031 . S
Zn140 O145 2.049 . S
Zn140 O150 2.067 . S
Zn141 O142 1.962 . S
Zn141 O144 1.986 . S
Zn141 O146 1.996 . S
Zn141 O149 1.943 . S
O142 Zn141 1.962 . S
O142 C147 1.254 . S
O143 Zn140 2.031 . S
O143 C147 1.269 . S
O144 Zn141 1.986 . S
O144 C151 1.262 . S
O145 Zn140 2.049 . S
O145 C153 1.260 . S
O146 Zn141 1.996 . S
O146 C153 1.257 . S
C147 O142 1.254 . S
C147 O143 1.269 . S
C148 O149 1.249 . S
C148 O150 1.270 . S
O149 Zn141 1.943 . S
O149 C148 1.249 . S
O150 Zn140 2.067 . S
O150 C148 1.270 . S
C151 O144 1.262 . S
C151 O152 1.232 . S
O152 C151 1.232 . S
C153 O145 1.260 . S
C153 O146 1.257 . S
Zn154 O157 2.031 . S
Zn154 O159 2.049 . S
Zn154 O164 2.067 . S
Zn155 O156 1.962 . S
Zn155 O158 1.986 . S
Zn155 O160 1.996 . S
Zn155 O163 1.943 . S
O156 Zn155 1.962 . S
O156 C161 1.254 . S
O157 Zn154 2.031 . S
O157 C161 1.269 . S
O158 Zn155 1.986 . S
O158 C165 1.262 . S
O159 Zn154 2.049 . S
O159 C167 1.260 . S
O160 Zn155 1.996 . S
O160 C167 1.257 . S
C161 O156 1.254 . S
C161 O157 1.269 . S
C162 O163 1.249 . S
C162 O164 1.270 . S
O163 Zn155 1.943 . S
O163 C162 1.249 . S
O164 Zn154 2.067 . S
O164 C162 1.270 . S
C165 O158 1.262 . S
C165 O166 1.232 . S
O166 C165 1.232 . S
C167 O159 1.260 . S
C167 O160 1.257 . S
Zn168 O171 2.031 . S
Zn168 O173 2.049 . S
Zn168 O178 2.067 . S
Zn169 O170 1.962 . S
Zn169 O172 1.986 . S
Zn169 O174 1.996 . S
Zn169 O177 1.943 . S
O170 Zn169 1.962 . S
O170 C175 1.254 . S
O171 Zn168 2.031 . S
O171 C175 1.269 . S
O172 Zn169 1.986 . S
O172 C179 1.262 . S
O173 Zn168 2.049 . S
O173 C181 1.260 . S
O174 Zn169 1.996 . S
O174 C181 1.257 . S
C175 O170 1.254 . S
C175 O171 1.269 . S
C176 O177 1.249 . S
C176 O178 1.270 . S
O177 Zn169 1.943 . S
O177 C176 1.249 . S
O178 Zn168 2.067 . S
O178 C176 1.270 . S
C179 O172 1.262 . S
C179 O180 1.232 . S
O180 C179 1.232 . S
C181 O173 1.260 . S
C181 O174 1.257 . S
Zn182 O185 2.031 . S
Zn182 O187 2.049 . S
Zn182 O192 2.067 . S
Zn183 O184 1.962 . S
Zn183 O186 1.986 . S
Zn183 O188 1.996 . S
Zn183 O191 1.943 . S
O184 Zn183 1.962 . S
O184 C189 1.254 . S
O185 Zn182 2.031 . S
O185 C189 1.269 . S
O186 Zn183 1.986 . S
O186 C193 1.262 . S
O187 Zn182 2.049 . S
O187 C195 1.260 . S
O188 Zn183 1.996 . S
O188 C195 1.257 . S
C189 O184 1.254 . S
C189 O185 1.269 . S
C190 O191 1.249 . S
C190 O192 1.270 . S
O191 Zn183 1.943 . S
O191 C190 1.249 . S
O192 Zn182 2.067 . S
O192 C190 1.270 . S
C193 O186 1.262 . S
C193 O194 1.232 . S
O194 C193 1.232 . S
C195 O187 1.260 . S
C195 O188 1.257 . S
Zn196 O199 2.031 . S
Zn196 O201 2.049 . S
Zn196 O206 2.067 . S
Zn197 O198 1.962 . S
Zn197 O200 1.986 . S
Zn197 O202 1.996 . S
Zn197 O205 1.943 . S
O198 Zn197 1.962 . S
O198 C203 1.254 . S
O199 Zn196 2.031 . S
O199 C203 1.269 . S
O200 Zn197 1.986 . S
O200 C207 1.262 . S
O201 Zn196 2.049 . S
O201 C209 1.260 . S
O202 Zn197 1.996 . S
O202 C209 1.257 . S
C203 O198 1.254 . S
C203 O199 1.269 . S
C204 O205 1.249 . S
C204 O206 1.270 . S
O205 Zn197 1.943 . S
O205 C204 1.249 . S
O206 Zn196 2.067 . S
O206 C204 1.270 . S
C207 O200 1.262 . S
C207 O208 1.232 . S
O208 C207 1.232 . S
C209 O201 1.260 . S
C209 O202 1.257 . S
Zn210 O213 2.031 . S
Zn210 O215 2.049 . S
Zn210 O220 2.067 . S
Zn211 O212 1.962 . S
Zn211 O214 1.986 . S
Zn211 O216 1.996 . S
Zn211 O219 1.943 . S
O212 Zn211 1.962 . S
O212 C217 1.254 . S
O213 Zn210 2.031 . S
O213 C217 1.269 . S
O214 Zn211 1.986 . S
O214 C221 1.262 . S
O215 Zn210 2.049 . S
O215 C223 1.260 . S
O216 Zn211 1.996 . S
O216 C223 1.257 . S
C217 O212 1.254 . S
C217 O213 1.269 . S
C218 O219 1.249 . S
C218 O220 1.270 . S
O219 Zn211 1.943 . S
O219 C218 1.249 . S
O220 Zn210 2.067 . S
O220 C218 1.270 . S
C221 O214 1.262 . S
C221 O222 1.232 . S
O222 C221 1.232 . S
C223 O215 1.260 . S
C223 O216 1.257 . S
Zn224 O227 2.031 . S
Zn224 O229 2.049 . S
Zn224 O234 2.067 . S
Zn225 O226 1.962 . S
Zn225 O228 1.986 . S
Zn225 O230 1.996 . S
Zn225 O233 1.943 . S
O226 Zn225 1.962 . S
O226 C231 1.254 . S
O227 Zn224 2.031 . S
O227 C231 1.269 . S
O228 Zn225 1.986 . S
O228 C235 1.262 . S
O229 Zn224 2.049 . S
O229 C237 1.260 . S
O230 Zn225 1.996 . S
O230 C237 1.257 . S
C231 O226 1.254 . S
C231 O227 1.269 . S
C232 O233 1.249 . S
C232 O234 1.270 . S
O233 Zn225 1.943 . S
O233 C232 1.249 . S
O234 Zn224 2.067 . S
O234 C232 1.270 . S
C235 O228 1.262 . S
C235 O236 1.232 . S
O236 C235 1.232 . S
C237 O229 1.260 . S
C237 O230 1.257 . S
Zn238 O241 2.031 . S
Zn238 O243 2.049 . S
Zn238 O248 2.067 . S
Zn239 O240 1.962 . S
Zn239 O242 1.986 . S
Zn239 O244 1.996 . S
Zn239 O247 1.943 . S
O240 Zn239 1.962 . S
O240 C245 1.254 . S
O241 Zn238 2.031 . S
O241 C245 1.269 . S
O242 Zn239 1.986 . S
O242 C249 1.262 . S
O243 Zn238 2.049 . S
O243 C251 1.260 . S
O244 Zn239 1.996 . S
O244 C251 1.257 . S
C245 O240 1.254 . S
C245 O241 1.269 . S
C246 O247 1.249 . S
C246 O248 1.270 . S
O247 Zn239 1.943 . S
O247 C246 1.249 . S
O248 Zn238 2.067 . S
O248 C246 1.270 . S
C249 O242 1.262 . S
C249 O250 1.232 . S
O250 C249 1.232 . S
C251 O243 1.260 . S
C251 O244 1.257 . S
Zn252 O255 2.031 . S
Zn252 O257 2.049 . S
Zn252 O262 2.067 . S
Zn253 O254 1.962 . S
Zn253 O256 1.986 . S
Zn253 O258 1.996 . S
Zn253 O261 1.943 . S
O254 Zn253 1.962 . S
O254 C259 1.254 . S
O255 Zn252 2.031 . S
O255 C259 1.269 . S
O256 Zn253 1.986 . S
O256 C263 1.262 . S
O257 Zn252 2.049 . S
O257 C265 1.260 . S
O258 Zn253 1.996 . S
O258 C265 1.257 . S
C259 O254 1.254 . S
C259 O255 1.269 . S
C260 O261 1.249 . S
C260 O262 1.270 . S
O261 Zn253 1.943 . S
O261 C260 1.249 . S
O262 Zn252 2.067 . S
O262 C260 1.270 . S
C263 O256 1.262 . S
C263 O264 1.232 . S
O264 C263 1.232 . S
C265 O257 1.260 . S
C265 O258 1.257 . S
Zn266 O269 2.031 . S
Zn266 O271 2.049 . S
Zn266 O276 2.067 . S
Zn267 O268 1.962 . S
Zn267 O270 1.986 . S
Zn267 O272 1.996 . S
Zn267 O275 1.943 . S
O268 Zn267 1.962 . S
O268 C273 1.254 . S
O269 Zn266 2.031 . S
O269 C273 1.269 . S
O270 Zn267 1.986 . S
O270 C277 1.262 . S
O271 Zn266 2.049 . S
O271 C279 1.260 . S
O272 Zn267 1.996 . S
O272 C279 1.257 . S
C273 O268 1.254 . S
C273 O269 1.269 . S
C274 O275 1.249 . S
C274 O276 1.270 . S
O275 Zn267 1.943 . S
O275 C274 1.249 . S
O276 Zn266 2.067 . S
O276 C274 1.270 . S
C277 O270 1.262 . S
C277 O278 1.232 . S
O278 C277 1.232 . S
C279 O271 1.260 . S
C279 O272 1.257 . S
Zn280 O283 2.031 . S
Zn280 O285 2.049 . S
Zn280 O290 2.067 . S
Zn281 O282 1.962 . S
Zn281 O284 1.986 . S
Zn281 O286 1.996 . S
Zn281 O289 1.943 . S
O282 Zn281 1.962 . S
O282 C287 1.254 . S
O283 Zn280 2.031 . S
O283 C287 1.269 . S
O284 Zn281 1.986 . S
O284 C291 1.262 . S
O285 Zn280 2.049 . S
O285 C293 1.260 . S
O286 Zn281 1.996 . S
O286 C293 1.257 . S
C287 O282 1.254 . S
C287 O283 1.269 . S
C288 O289 1.249 . S
C288 O290 1.270 . S
O289 Zn281 1.943 . S
O289 C288 1.249 . S
O290 Zn280 2.067 . S
O290 C288 1.270 . S
C291 O284 1.262 . S
C291 O292 1.232 . S
O292 C291 1.232 . S
C293 O285 1.260 . S
C293 O286 1.257 . S
Zn294 O297 2.031 . S
Zn294 O299 2.049 . S
Zn294 O304 2.067 . S
Zn295 O296 1.962 . S
Zn295 O298 1.986 . S
Zn295 O300 1.996 . S
Zn295 O303 1.943 . S
O296 Zn295 1.962 . S
O296 C301 1.254 . S
O297 Zn294 2.031 . S
O297 C301 1.269 . S
O298 Zn295 1.986 . S
O298 C305 1.262 . S
O299 Zn294 2.049 . S
O299 C307 1.260 . S
O300 Zn295 1.996 . S
O300 C307 1.257 . S
C301 O296 1.254 . S
C301 O297 1.269 . S
C302 O303 1.249 . S
C302 O304 1.270 . S
O303 Zn295 1.943 . S
O303 C302 1.249 . S
O304 Zn294 2.067 . S
O304 C302 1.270 . S
C305 O298 1.262 . S
C305 O306 1.232 . S
O306 C305 1.232 . S
C307 O299 1.260 . S
C307 O300 1.257 . S
Zn308 O311 2.031 . S
Zn308 O313 2.049 . S
Zn308 O318 2.067 . S
Zn309 O310 1.962 . S
Zn309 O312 1.986 . S
Zn309 O314 1.996 . S
Zn309 O317 1.943 . S
O310 Zn309 1.962 . S
O310 C315 1.254 . S
O311 Zn308 2.031 . S
O311 C315 1.269 . S
O312 Zn309 1.986 . S
O312 C319 1.262 . S
O313 Zn308 2.049 . S
O313 C321 1.260 . S
O314 Zn309 1.996 . S
O314 C321 1.257 . S
C315 O310 1.254 . S
C315 O311 1.269 . S
C316 O317 1.249 . S
C316 O318 1.270 . S
O317 Zn309 1.943 . S
O317 C316 1.249 . S
O318 Zn308 2.067 . S
O318 C316 1.270 . S
C319 O312 1.262 . S
C319 O320 1.232 . S
O320 C319 1.232 . S
C321 O313 1.260 . S
C321 O314 1.257 . S
Zn322 O325 2.031 . S
Zn322 O327 2.049 . S
Zn322 O332 2.067 . S
Zn323 O324 1.962 . S
Zn323 O326 1.986 . S
Zn323 O328 1.996 . S
Zn323 O331 1.943 . S
O324 Zn323 1.962 . S
O324 C329 1.254 . S
O325 Zn322 2.031 . S
O325 C329 1.269 . S
O326 Zn323 1.986 . S
O326 C333 1.262 . S
O327 Zn322 2.049 . S
O327 C335 1.260 . S
O328 Zn323 1.996 . S
O328 C335 1.257 . S
C329 O324 1.254 . S
C329 O325 1.269 . S
C330 O331 1.249 . S
C330 O332 1.270 . S
O331 Zn323 1.943 . S
O331 C330 1.249 . S
O332 Zn322 2.067 . S
O332 C330 1.270 . S
C333 O326 1.262 . S
C333 O334 1.232 . S
O334 C333 1.232 . S
C335 O327 1.260 . S
C335 O328 1.257 . S
C336 C337 1.369 . S
C336 C338 1.419 . S
C336 H340 0.930 . S
C337 C336 1.369 . S
C337 C346 1.429 . S
C338 C336 1.419 . S
C338 C339 1.363 . S
C338 H341 0.929 . S
C339 C338 1.363 . S
C339 C345 1.428 . S
H340 C336 0.930 . S
H341 C338 0.929 . S
S342 N343 1.613 . S
S342 N344 1.610 . S
N343 S342 1.613 . S
N343 C346 1.350 . S
N344 S342 1.610 . S
N344 C345 1.351 . S
C345 C339 1.428 . S
C345 N344 1.351 . S
C345 C346 1.434 . S
C346 C337 1.429 . S
C346 N343 1.350 . S
C346 C345 1.434 . S
C347 C348 1.369 . S
C347 C349 1.419 . S
C347 H351 0.930 . S
C348 C347 1.369 . S
C348 C357 1.429 . S
C349 C347 1.419 . S
C349 C350 1.363 . S
C349 H352 0.929 . S
C350 C349 1.363 . S
C350 C356 1.428 . S
H351 C347 0.930 . S
H352 C349 0.929 . S
S353 N354 1.613 . S
S353 N355 1.610 . S
N354 S353 1.613 . S
N354 C357 1.350 . S
N355 S353 1.610 . S
N355 C356 1.351 . S
C356 C350 1.428 . S
C356 N355 1.351 . S
C356 C357 1.434 . S
C357 C348 1.429 . S
C357 N354 1.350 . S
C357 C356 1.434 . S
C358 C359 1.369 . S
C358 C360 1.419 . S
C358 H362 0.930 . S
C359 C358 1.369 . S
C359 C368 1.429 . S
C360 C358 1.419 . S
C360 C361 1.363 . S
C360 H363 0.929 . S
C361 C360 1.363 . S
C361 C367 1.428 . S
H362 C358 0.930 . S
H363 C360 0.929 . S
S364 N365 1.613 . S
S364 N366 1.610 . S
N365 S364 1.613 . S
N365 C368 1.350 . S
N366 S364 1.610 . S
N366 C367 1.351 . S
C367 C361 1.428 . S
C367 N366 1.351 . S
C367 C368 1.434 . S
C368 C359 1.429 . S
C368 N365 1.350 . S
C368 C367 1.434 . S
C369 C370 1.369 . S
C369 C371 1.419 . S
C369 H373 0.930 . S
C370 C369 1.369 . S
C370 C379 1.429 . S
C371 C369 1.419 . S
C371 C372 1.363 . S
C371 H374 0.929 . S
C372 C371 1.363 . S
C372 C378 1.428 . S
H373 C369 0.930 . S
H374 C371 0.929 . S
S375 N376 1.613 . S
S375 N377 1.610 . S
N376 S375 1.613 . S
N376 C379 1.350 . S
N377 S375 1.610 . S
N377 C378 1.351 . S
C378 C372 1.428 . S
C378 N377 1.351 . S
C378 C379 1.434 . S
C379 C370 1.429 . S
C379 N376 1.350 . S
C379 C378 1.434 . S
C380 C381 1.369 . S
C380 C382 1.419 . S
C380 H384 0.930 . S
C381 C380 1.369 . S
C381 C390 1.429 . S
C382 C380 1.419 . S
C382 C383 1.363 . S
C382 H385 0.929 . S
C383 C382 1.363 . S
C383 C389 1.428 . S
H384 C380 0.930 . S
H385 C382 0.929 . S
S386 N387 1.613 . S
S386 N388 1.610 . S
N387 S386 1.613 . S
N387 C390 1.350 . S
N388 S386 1.610 . S
N388 C389 1.351 . S
C389 C383 1.428 . S
C389 N388 1.351 . S
C389 C390 1.434 . S
C390 C381 1.429 . S
C390 N387 1.350 . S
C390 C389 1.434 . S
C391 C392 1.369 . S
C391 C393 1.419 . S
C391 H395 0.930 . S
C392 C391 1.369 . S
C392 C401 1.429 . S
C393 C391 1.419 . S
C393 C394 1.363 . S
C393 H396 0.929 . S
C394 C393 1.363 . S
C394 C400 1.428 . S
H395 C391 0.930 . S
H396 C393 0.929 . S
S397 N398 1.613 . S
S397 N399 1.610 . S
N398 S397 1.613 . S
N398 C401 1.350 . S
N399 S397 1.610 . S
N399 C400 1.351 . S
C400 C394 1.428 . S
C400 N399 1.351 . S
C400 C401 1.434 . S
C401 C392 1.429 . S
C401 N398 1.350 . S
C401 C400 1.434 . S
C402 C403 1.369 . S
C402 C404 1.419 . S
C402 H406 0.930 . S
C403 C402 1.369 . S
C403 C412 1.429 . S
C404 C402 1.419 . S
C404 C405 1.363 . S
C404 H407 0.929 . S
C405 C404 1.363 . S
C405 C411 1.428 . S
H406 C402 0.930 . S
H407 C404 0.929 . S
S408 N409 1.613 . S
S408 N410 1.610 . S
N409 S408 1.613 . S
N409 C412 1.350 . S
N410 S408 1.610 . S
N410 C411 1.351 . S
C411 C405 1.428 . S
C411 N410 1.351 . S
C411 C412 1.434 . S
C412 C403 1.429 . S
C412 N409 1.350 . S
C412 C411 1.434 . S
C413 C414 1.369 . S
C413 C415 1.419 . S
C413 H417 0.930 . S
C414 C413 1.369 . S
C414 C423 1.429 . S
C415 C413 1.419 . S
C415 C416 1.363 . S
C415 H418 0.929 . S
C416 C415 1.363 . S
C416 C422 1.428 . S
H417 C413 0.930 . S
H418 C415 0.929 . S
S419 N420 1.613 . S
S419 N421 1.610 . S
N420 S419 1.613 . S
N420 C423 1.350 . S
N421 S419 1.610 . S
N421 C422 1.351 . S
C422 C416 1.428 . S
C422 N421 1.351 . S
C422 C423 1.434 . S
C423 C414 1.429 . S
C423 N420 1.350 . S
C423 C422 1.434 . S
C424 C425 1.369 . S
C424 C426 1.419 . S
C424 H428 0.930 . S
C425 C424 1.369 . S
C425 C434 1.429 . S
C426 C424 1.419 . S
C426 C427 1.363 . S
C426 H429 0.929 . S
C427 C426 1.363 . S
C427 C433 1.428 . S
H428 C424 0.930 . S
H429 C426 0.929 . S
S430 N431 1.613 . S
S430 N432 1.610 . S
N431 S430 1.613 . S
N431 C434 1.350 . S
N432 S430 1.610 . S
N432 C433 1.351 . S
C433 C427 1.428 . S
C433 N432 1.351 . S
C433 C434 1.434 . S
C434 C425 1.429 . S
C434 N431 1.350 . S
C434 C433 1.434 . S
C435 C436 1.369 . S
C435 C437 1.419 . S
C435 H439 0.930 . S
C436 C435 1.369 . S
C436 C445 1.429 . S
C437 C435 1.419 . S
C437 C438 1.363 . S
C437 H440 0.929 . S
C438 C437 1.363 . S
C438 C444 1.428 . S
H439 C435 0.930 . S
H440 C437 0.929 . S
S441 N442 1.613 . S
S441 N443 1.610 . S
N442 S441 1.613 . S
N442 C445 1.350 . S
N443 S441 1.610 . S
N443 C444 1.351 . S
C444 C438 1.428 . S
C444 N443 1.351 . S
C444 C445 1.434 . S
C445 C436 1.429 . S
C445 N442 1.350 . S
C445 C444 1.434 . S
C446 C447 1.369 . S
C446 C448 1.419 . S
C446 H450 0.930 . S
C447 C446 1.369 . S
C447 C456 1.429 . S
C448 C446 1.419 . S
C448 C449 1.363 . S
C448 H451 0.929 . S
C449 C448 1.363 . S
C449 C455 1.428 . S
H450 C446 0.930 . S
H451 C448 0.929 . S
S452 N453 1.613 . S
S452 N454 1.610 . S
N453 S452 1.613 . S
N453 C456 1.350 . S
N454 S452 1.610 . S
N454 C455 1.351 . S
C455 C449 1.428 . S
C455 N454 1.351 . S
C455 C456 1.434 . S
C456 C447 1.429 . S
C456 N453 1.350 . S
C456 C455 1.434 . S
C457 C458 1.369 . S
C457 C459 1.419 . S
C457 H461 0.930 . S
C458 C457 1.369 . S
C458 C467 1.429 . S
C459 C457 1.419 . S
C459 C460 1.363 . S
C459 H462 0.929 . S
C460 C459 1.363 . S
C460 C466 1.428 . S
H461 C457 0.930 . S
H462 C459 0.929 . S
S463 N464 1.613 . S
S463 N465 1.610 . S
N464 S463 1.613 . S
N464 C467 1.350 . S
N465 S463 1.610 . S
N465 C466 1.351 . S
C466 C460 1.428 . S
C466 N465 1.351 . S
C466 C467 1.434 . S
C467 C458 1.429 . S
C467 N464 1.350 . S
C467 C466 1.434 . S
C468 C469 1.369 . S
C468 C470 1.419 . S
C468 H472 0.930 . S
C469 C468 1.369 . S
C469 C478 1.429 . S
C470 C468 1.419 . S
C470 C471 1.363 . S
C470 H473 0.929 . S
C471 C470 1.363 . S
C471 C477 1.428 . S
H472 C468 0.930 . S
H473 C470 0.929 . S
S474 N475 1.613 . S
S474 N476 1.610 . S
N475 S474 1.613 . S
N475 C478 1.350 . S
N476 S474 1.610 . S
N476 C477 1.351 . S
C477 C471 1.428 . S
C477 N476 1.351 . S
C477 C478 1.434 . S
C478 C469 1.429 . S
C478 N475 1.350 . S
C478 C477 1.434 . S
C479 C480 1.369 . S
C479 C481 1.419 . S
C479 H483 0.930 . S
C480 C479 1.369 . S
C480 C489 1.429 . S
C481 C479 1.419 . S
C481 C482 1.363 . S
C481 H484 0.929 . S
C482 C481 1.363 . S
C482 C488 1.428 . S
H483 C479 0.930 . S
H484 C481 0.929 . S
S485 N486 1.613 . S
S485 N487 1.610 . S
N486 S485 1.613 . S
N486 C489 1.350 . S
N487 S485 1.610 . S
N487 C488 1.351 . S
C488 C482 1.428 . S
C488 N487 1.351 . S
C488 C489 1.434 . S
C489 C480 1.429 . S
C489 N486 1.350 . S
C489 C488 1.434 . S
C490 C491 1.369 . S
C490 C492 1.419 . S
C490 H494 0.930 . S
C491 C490 1.369 . S
C491 C500 1.429 . S
C492 C490 1.419 . S
C492 C493 1.363 . S
C492 H495 0.929 . S
C493 C492 1.363 . S
C493 C499 1.428 . S
H494 C490 0.930 . S
H495 C492 0.929 . S
S496 N497 1.613 . S
S496 N498 1.610 . S
N497 S496 1.613 . S
N497 C500 1.350 . S
N498 S496 1.610 . S
N498 C499 1.351 . S
C499 C493 1.428 . S
C499 N498 1.351 . S
C499 C500 1.434 . S
C500 C491 1.429 . S
C500 N497 1.350 . S
C500 C499 1.434 . S
C501 C502 1.369 . S
C501 C503 1.419 . S
C501 H505 0.930 . S
C502 C501 1.369 . S
C502 C511 1.429 . S
C503 C501 1.419 . S
C503 C504 1.363 . S
C503 H506 0.929 . S
C504 C503 1.363 . S
C504 C510 1.428 . S
H505 C501 0.930 . S
H506 C503 0.929 . S
S507 N508 1.613 . S
S507 N509 1.610 . S
N508 S507 1.613 . S
N508 C511 1.350 . S
N509 S507 1.610 . S
N509 C510 1.351 . S
C510 C504 1.428 . S
C510 N509 1.351 . S
C510 C511 1.434 . S
C511 C502 1.429 . S
C511 N508 1.350 . S
C511 C510 1.434 . S
C512 C513 1.369 . S
C512 C514 1.419 . S
C512 H516 0.930 . S
C513 C512 1.369 . S
C513 C522 1.429 . S
C514 C512 1.419 . S
C514 C515 1.363 . S
C514 H517 0.929 . S
C515 C514 1.363 . S
C515 C521 1.428 . S
H516 C512 0.930 . S
H517 C514 0.929 . S
S518 N519 1.613 . S
S518 N520 1.610 . S
N519 S518 1.613 . S
N519 C522 1.350 . S
N520 S518 1.610 . S
N520 C521 1.351 . S
C521 C515 1.428 . S
C521 N520 1.351 . S
C521 C522 1.434 . S
C522 C513 1.429 . S
C522 N519 1.350 . S
C522 C521 1.434 . S
C523 C524 1.369 . S
C523 C525 1.419 . S
C523 H527 0.930 . S
C524 C523 1.369 . S
C524 C533 1.429 . S
C525 C523 1.419 . S
C525 C526 1.363 . S
C525 H528 0.929 . S
C526 C525 1.363 . S
C526 C532 1.428 . S
H527 C523 0.930 . S
H528 C525 0.929 . S
S529 N530 1.613 . S
S529 N531 1.610 . S
N530 S529 1.613 . S
N530 C533 1.350 . S
N531 S529 1.610 . S
N531 C532 1.351 . S
C532 C526 1.428 . S
C532 N531 1.351 . S
C532 C533 1.434 . S
C533 C524 1.429 . S
C533 N530 1.350 . S
C533 C532 1.434 . S
C534 C535 1.369 . S
C534 C536 1.419 . S
C534 H538 0.930 . S
C535 C534 1.369 . S
C535 C544 1.429 . S
C536 C534 1.419 . S
C536 C537 1.363 . S
C536 H539 0.929 . S
C537 C536 1.363 . S
C537 C543 1.428 . S
H538 C534 0.930 . S
H539 C536 0.929 . S
S540 N541 1.613 . S
S540 N542 1.610 . S
N541 S540 1.613 . S
N541 C544 1.350 . S
N542 S540 1.610 . S
N542 C543 1.351 . S
C543 C537 1.428 . S
C543 N542 1.351 . S
C543 C544 1.434 . S
C544 C535 1.429 . S
C544 N541 1.350 . S
C544 C543 1.434 . S
C545 C546 1.369 . S
C545 C547 1.419 . S
C545 H549 0.930 . S
C546 C545 1.369 . S
C546 C555 1.429 . S
C547 C545 1.419 . S
C547 C548 1.363 . S
C547 H550 0.929 . S
C548 C547 1.363 . S
C548 C554 1.428 . S
H549 C545 0.930 . S
H550 C547 0.929 . S
S551 N552 1.613 . S
S551 N553 1.610 . S
N552 S551 1.613 . S
N552 C555 1.350 . S
N553 S551 1.610 . S
N553 C554 1.351 . S
C554 C548 1.428 . S
C554 N553 1.351 . S
C554 C555 1.434 . S
C555 C546 1.429 . S
C555 N552 1.350 . S
C555 C554 1.434 . S
C556 C557 1.369 . S
C556 C558 1.419 . S
C556 H560 0.930 . S
C557 C556 1.369 . S
C557 C566 1.429 . S
C558 C556 1.419 . S
C558 C559 1.363 . S
C558 H561 0.929 . S
C559 C558 1.363 . S
C559 C565 1.428 . S
H560 C556 0.930 . S
H561 C558 0.929 . S
S562 N563 1.613 . S
S562 N564 1.610 . S
N563 S562 1.613 . S
N563 C566 1.350 . S
N564 S562 1.610 . S
N564 C565 1.351 . S
C565 C559 1.428 . S
C565 N564 1.351 . S
C565 C566 1.434 . S
C566 C557 1.429 . S
C566 N563 1.350 . S
C566 C565 1.434 . S
C567 C568 1.369 . S
C567 C569 1.419 . S
C567 H571 0.930 . S
C568 C567 1.369 . S
C568 C577 1.429 . S
C569 C567 1.419 . S
C569 C570 1.363 . S
C569 H572 0.929 . S
C570 C569 1.363 . S
C570 C576 1.428 . S
H571 C567 0.930 . S
H572 C569 0.929 . S
S573 N574 1.613 . S
S573 N575 1.610 . S
N574 S573 1.613 . S
N574 C577 1.350 . S
N575 S573 1.610 . S
N575 C576 1.351 . S
C576 C570 1.428 . S
C576 N575 1.351 . S
C576 C577 1.434 . S
C577 C568 1.429 . S
C577 N574 1.350 . S
C577 C576 1.434 . S
C578 C579 1.369 . S
C578 C580 1.419 . S
C578 H582 0.930 . S
C579 C578 1.369 . S
C579 C588 1.429 . S
C580 C578 1.419 . S
C580 C581 1.363 . S
C580 H583 0.929 . S
C581 C580 1.363 . S
C581 C587 1.428 . S
H582 C578 0.930 . S
H583 C580 0.929 . S
S584 N585 1.613 . S
S584 N586 1.610 . S
N585 S584 1.613 . S
N585 C588 1.350 . S
N586 S584 1.610 . S
N586 C587 1.351 . S
C587 C581 1.428 . S
C587 N586 1.351 . S
C587 C588 1.434 . S
C588 C579 1.429 . S
C588 N585 1.350 . S
C588 C587 1.434 . S
C589 C590 1.369 . S
C589 C591 1.419 . S
C589 H593 0.930 . S
C590 C589 1.369 . S
C590 C599 1.429 . S
C591 C589 1.419 . S
C591 C592 1.363 . S
C591 H594 0.929 . S
C592 C591 1.363 . S
C592 C598 1.428 . S
H593 C589 0.930 . S
H594 C591 0.929 . S
S595 N596 1.613 . S
S595 N597 1.610 . S
N596 S595 1.613 . S
N596 C599 1.350 . S
N597 S595 1.610 . S
N597 C598 1.351 . S
C598 C592 1.428 . S
C598 N597 1.351 . S
C598 C599 1.434 . S
C599 C590 1.429 . S
C599 N596 1.350 . S
C599 C598 1.434 . S
C600 C601 1.369 . S
C600 C602 1.419 1_455 S
C600 H604 0.930 . S
C601 C600 1.369 . S
C601 C610 1.429 . S
C602 C600 1.419 1_655 S
C602 C603 1.363 . S
C602 H605 0.929 . S
C603 C602 1.363 . S
C603 C609 1.428 . S
H604 C600 0.930 . S
H605 C602 0.929 . S
S606 N607 1.613 1_655 S
S606 N608 1.610 . S
N607 S606 1.613 1_455 S
N607 C610 1.350 . S
N608 S606 1.610 . S
N608 C609 1.351 . S
C609 C603 1.428 . S
C609 N608 1.351 . S
C609 C610 1.434 1_655 S
C610 C601 1.429 . S
C610 N607 1.350 . S
C610 C609 1.434 1_455 S
C611 C612 1.369 . S
C611 C613 1.419 1_545 S
C611 H615 0.930 . S
C612 C611 1.369 . S
C612 C621 1.429 . S
C613 C611 1.419 1_565 S
C613 C614 1.363 . S
C613 H616 0.929 . S
C614 C613 1.363 . S
C614 C620 1.428 . S
H615 C611 0.930 . S
H616 C613 0.929 . S
S617 N618 1.613 . S
S617 N619 1.610 1_545 S
N618 S617 1.613 . S
N618 C621 1.350 . S
N619 S617 1.610 1_565 S
N619 C620 1.351 . S
C620 C614 1.428 . S
C620 N619 1.351 . S
C620 C621 1.434 1_565 S
C621 C612 1.429 . S
C621 N618 1.350 . S
C621 C620 1.434 1_545 S
C622 C623 1.369 . S
C622 C624 1.419 1_655 S
C622 H626 0.930 . S
C623 C622 1.369 . S
C623 C632 1.429 . S
C624 C622 1.419 1_455 S
C624 C625 1.363 . S
C624 H627 0.929 . S
C625 C624 1.363 . S
C625 C631 1.428 . S
H626 C622 0.930 . S
H627 C624 0.929 . S
S628 N629 1.613 . S
S628 N630 1.610 1_655 S
N629 S628 1.613 . S
N629 C632 1.350 . S
N630 S628 1.610 1_455 S
N630 C631 1.351 . S
C631 C625 1.428 . S
C631 N630 1.351 . S
C631 C632 1.434 1_455 S
C632 C623 1.429 . S
C632 N629 1.350 . S
C632 C631 1.434 1_655 S
C633 C634 1.369 . S
C633 C635 1.419 1_545 S
C633 H637 0.930 . S
C634 C633 1.369 . S
C634 C643 1.429 . S
C635 C633 1.419 1_565 S
C635 C636 1.363 . S
C635 H638 0.929 . S
C636 C635 1.363 . S
C636 C642 1.428 . S
H637 C633 0.930 . S
H638 C635 0.929 . S
S639 N640 1.615 . S
S639 N641 1.609 1_545 S
N640 S639 1.615 . S
N640 C643 1.350 . S
N641 S639 1.609 1_565 S
N641 C642 1.351 . S
C642 C636 1.428 . S
C642 N641 1.351 . S
C642 C643 1.434 1_565 S
C643 C634 1.429 . S
C643 N640 1.350 . S
C643 C642 1.434 1_545 S
C644 C645 1.369 . S
C644 C646 1.419 1_565 S
C644 H648 0.930 . S
C645 C644 1.369 . S
C645 C654 1.429 . S
C646 C644 1.419 1_545 S
C646 C647 1.363 . S
C646 H649 0.929 . S
C647 C646 1.363 . S
C647 C653 1.428 . S
H648 C644 0.930 . S
H649 C646 0.929 . S
S650 N651 1.613 . S
S650 N652 1.610 1_565 S
N651 S650 1.613 . S
N651 C654 1.350 . S
N652 S650 1.610 1_545 S
N652 C653 1.351 . S
C653 C647 1.428 . S
C653 N652 1.351 . S
C653 C654 1.434 1_545 S
C654 C645 1.429 . S
C654 N651 1.350 . S
C654 C653 1.434 1_565 S
C655 C656 1.369 . S
C655 C657 1.419 1_655 S
C655 H659 0.930 . S
C656 C655 1.369 . S
C656 C665 1.429 . S
C657 C655 1.419 1_455 S
C657 C658 1.363 . S
C657 H660 0.929 . S
C658 C657 1.363 . S
C658 C664 1.428 . S
H659 C655 0.930 . S
H660 C657 0.929 . S
S661 N662 1.613 1_455 S
S661 N663 1.610 . S
N662 S661 1.613 1_655 S
N662 C665 1.350 . S
N663 S661 1.610 . S
N663 C664 1.351 . S
C664 C658 1.428 . S
C664 N663 1.351 . S
C664 C665 1.434 1_455 S
C665 C656 1.429 . S
C665 N662 1.350 . S
C665 C664 1.434 1_655 S
C666 C667 1.369 . S
C666 C668 1.419 1_565 S
C666 H670 0.930 . S
C667 C666 1.369 . S
C667 C676 1.429 . S
C668 C666 1.419 1_545 S
C668 C669 1.363 . S
C668 H671 0.929 . S
C669 C668 1.363 . S
C669 C675 1.428 . S
H670 C666 0.930 . S
H671 C668 0.929 . S
S672 N673 1.613 . S
S672 N674 1.610 1_565 S
N673 S672 1.613 . S
N673 C676 1.350 . S
N674 S672 1.610 1_545 S
N674 C675 1.351 . S
C675 C669 1.428 . S
C675 N674 1.351 . S
C675 C676 1.434 1_545 S
C676 C667 1.429 . S
C676 N673 1.350 . S
C676 C675 1.434 1_565 S
C677 C678 1.369 . S
C677 C679 1.419 1_655 S
C677 H681 0.930 . S
C678 C677 1.369 . S
C678 C687 1.429 . S
C679 C677 1.419 1_455 S
C679 C680 1.363 . S
C679 H682 0.929 . S
C680 C679 1.363 . S
C680 C686 1.428 . S
H681 C677 0.930 . S
H682 C679 0.929 . S
S683 N684 1.613 . S
S683 N685 1.610 1_655 S
N684 S683 1.613 . S
N684 C687 1.350 . S
N685 S683 1.610 1_455 S
N685 C686 1.351 . S
C686 C680 1.428 . S
C686 N685 1.351 . S
C686 C687 1.434 1_455 S
C687 C678 1.429 . S
C687 N684 1.350 . S
C687 C686 1.434 1_655 S
C688 C689 1.369 . S
C688 C690 1.419 1_556 S
C688 H692 0.930 . S
C689 C688 1.369 . S
C689 C698 1.429 . S
C690 C688 1.419 1_554 S
C690 C691 1.363 . S
C690 H693 0.929 . S
C691 C690 1.363 . S
C691 C697 1.428 . S
H692 C688 0.930 . S
H693 C690 0.929 . S
S694 N695 1.613 . S
S694 N696 1.610 1_556 S
N695 S694 1.613 . S
N695 C698 1.350 . S
N696 S694 1.610 1_554 S
N696 C697 1.351 . S
C697 C691 1.428 . S
C697 N696 1.351 . S
C697 C698 1.434 1_554 S
C698 C689 1.429 . S
C698 N695 1.350 . S
C698 C697 1.434 1_556 S
C699 C700 1.369 . S
C699 C701 1.419 1_556 S
C699 H703 0.930 . S
C700 C699 1.369 . S
C700 C709 1.429 . S
C701 C699 1.419 1_554 S
C701 C702 1.363 . S
C701 H704 0.929 . S
C702 C701 1.363 . S
C702 C708 1.428 . S
H703 C699 0.930 . S
H704 C701 0.929 . S
S705 N706 1.633 . S
S705 N707 1.590 1_556 S
N706 S705 1.633 . S
N706 C709 1.350 . S
N707 S705 1.590 1_554 S
N707 C708 1.351 . S
C708 C702 1.428 . S
C708 N707 1.351 . S
C708 C709 1.434 1_554 S
C709 C700 1.429 . S
C709 N706 1.350 . S
C709 C708 1.434 1_556 S
C710 C711 1.369 . S
C710 C712 1.419 1_556 S
C710 H714 0.930 . S
C711 C710 1.369 . S
C711 C720 1.429 . S
C712 C710 1.419 1_554 S
C712 C713 1.363 . S
C712 H715 0.929 . S
C713 C712 1.363 . S
C713 C719 1.428 . S
H714 C710 0.930 . S
H715 C712 0.929 . S
S716 N717 1.613 . S
S716 N718 1.610 1_556 S
N717 S716 1.613 . S
N717 C720 1.350 . S
N718 S716 1.610 1_554 S
N718 C719 1.351 . S
C719 C713 1.428 . S
C719 N718 1.351 . S
C719 C720 1.434 1_554 S
C720 C711 1.429 . S
C720 N717 1.350 . S
C720 C719 1.434 1_556 S
C721 C722 1.369 . S
C721 C723 1.419 1_556 S
C721 H725 0.930 . S
C722 C721 1.369 . S
C722 C731 1.429 . S
C723 C721 1.419 1_554 S
C723 C724 1.363 . S
C723 H726 0.929 . S
C724 C723 1.363 . S
C724 C730 1.428 . S
H725 C721 0.930 . S
H726 C723 0.929 . S
S727 N728 1.613 1_554 S
S727 N729 1.610 . S
N728 S727 1.613 1_556 S
N728 C731 1.350 . S
N729 S727 1.610 . S
N729 C730 1.351 . S
C730 C724 1.428 . S
C730 N729 1.351 . S
C730 C731 1.434 1_554 S
C731 C722 1.429 . S
C731 N728 1.350 . S
C731 C730 1.434 1_556 S
C732 C733 1.369 . S
C732 C734 1.419 . S
C732 H736 0.930 . S
C733 C732 1.369 . S
C733 C742 1.429 . S
C734 C732 1.419 . S
C734 C735 1.363 . S
C734 H737 0.929 . S
C735 C734 1.363 . S
C735 C741 1.428 . S
H736 C732 0.930 . S
H737 C734 0.929 . S
S738 N739 1.613 . S
S738 N740 1.610 . S
N739 S738 1.613 . S
N739 C742 1.350 . S
N740 S738 1.610 . S
N740 C741 1.351 . S
C741 C735 1.428 . S
C741 N740 1.351 . S
C741 C742 1.434 . S
C742 C733 1.429 . S
C742 N739 1.350 . S
C742 C741 1.434 . S
C743 C744 1.369 . S
C743 C745 1.419 . S
C743 H747 0.930 . S
C744 C743 1.369 . S
C744 C753 1.429 . S
C745 C743 1.419 . S
C745 C746 1.363 . S
C745 H748 0.929 . S
C746 C745 1.363 . S
C746 C752 1.428 . S
H747 C743 0.930 . S
H748 C745 0.929 . S
S749 N750 1.613 . S
S749 N751 1.610 . S
N750 S749 1.613 . S
N750 C753 1.350 . S
N751 S749 1.610 . S
N751 C752 1.351 . S
C752 C746 1.428 . S
C752 N751 1.351 . S
C752 C753 1.434 . S
C753 C744 1.429 . S
C753 N750 1.350 . S
C753 C752 1.434 . S
C754 C755 1.369 . S
C754 C756 1.419 . S
C754 H758 0.930 . S
C755 C754 1.369 . S
C755 C764 1.429 . S
C756 C754 1.419 . S
C756 C757 1.363 . S
C756 H759 0.929 . S
C757 C756 1.363 . S
C757 C763 1.428 . S
H758 C754 0.930 . S
H759 C756 0.929 . S
S760 N761 1.613 . S
S760 N762 1.610 . S
N761 S760 1.613 . S
N761 C764 1.350 . S
N762 S760 1.610 . S
N762 C763 1.351 . S
C763 C757 1.428 . S
C763 N762 1.351 . S
C763 C764 1.434 . S
C764 C755 1.429 . S
C764 N761 1.350 . S
C764 C763 1.434 . S
C765 C766 1.369 . S
C765 C767 1.419 . S
C765 H769 0.930 . S
C766 C765 1.369 . S
C766 C775 1.429 . S
C767 C765 1.419 . S
C767 C768 1.363 . S
C767 H770 0.929 . S
C768 C767 1.363 . S
C768 C774 1.428 . S
H769 C765 0.930 . S
H770 C767 0.929 . S
S771 N772 1.613 . S
S771 N773 1.610 . S
N772 S771 1.613 . S
N772 C775 1.350 . S
N773 S771 1.610 . S
N773 C774 1.351 . S
C774 C768 1.428 . S
C774 N773 1.351 . S
C774 C775 1.434 . S
C775 C766 1.429 . S
C775 N772 1.350 . S
C775 C774 1.434 . S
C776 C777 1.369 . S
C776 C778 1.419 . S
C776 H780 0.930 . S
C777 C776 1.369 . S
C777 C786 1.429 . S
C778 C776 1.419 . S
C778 C779 1.363 . S
C778 H781 0.929 . S
C779 C778 1.363 . S
C779 C785 1.428 . S
H780 C776 0.930 . S
H781 C778 0.929 . S
S782 N783 1.613 . S
S782 N784 1.610 . S
N783 S782 1.613 . S
N783 C786 1.350 . S
N784 S782 1.610 . S
N784 C785 1.351 . S
C785 C779 1.428 . S
C785 N784 1.351 . S
C785 C786 1.434 . S
C786 C777 1.429 . S
C786 N783 1.350 . S
C786 C785 1.434 . S
C787 C788 1.369 . S
C787 C789 1.419 . S
C787 H791 0.930 . S
C788 C787 1.369 . S
C788 C797 1.429 . S
C789 C787 1.419 . S
C789 C790 1.363 . S
C789 H792 0.929 . S
C790 C789 1.363 . S
C790 C796 1.428 . S
H791 C787 0.930 . S
H792 C789 0.929 . S
S793 N794 1.613 . S
S793 N795 1.610 . S
N794 S793 1.613 . S
N794 C797 1.350 . S
N795 S793 1.610 . S
N795 C796 1.351 . S
C796 C790 1.428 . S
C796 N795 1.351 . S
C796 C797 1.434 . S
C797 C788 1.429 . S
C797 N794 1.350 . S
C797 C796 1.434 . S
C798 C799 1.369 . S
C798 C800 1.419 . S
C798 H802 0.930 . S
C799 C798 1.369 . S
C799 C808 1.429 . S
C800 C798 1.419 . S
C800 C801 1.363 . S
C800 H803 0.929 . S
C801 C800 1.363 . S
C801 C807 1.428 . S
H802 C798 0.930 . S
H803 C800 0.929 . S
S804 N805 1.613 . S
S804 N806 1.610 . S
N805 S804 1.613 . S
N805 C808 1.350 . S
N806 S804 1.610 . S
N806 C807 1.351 . S
C807 C801 1.428 . S
C807 N806 1.351 . S
C807 C808 1.434 . S
C808 C799 1.429 . S
C808 N805 1.350 . S
C808 C807 1.434 . S
C809 C810 1.369 . S
C809 C811 1.419 . S
C809 H813 0.930 . S
C810 C809 1.369 . S
C810 C819 1.429 . S
C811 C809 1.419 . S
C811 C812 1.363 . S
C811 H814 0.929 . S
C812 C811 1.363 . S
C812 C818 1.428 . S
H813 C809 0.930 . S
H814 C811 0.929 . S
S815 N816 1.613 . S
S815 N817 1.610 . S
N816 S815 1.613 . S
N816 C819 1.350 . S
N817 S815 1.610 . S
N817 C818 1.351 . S
C818 C812 1.428 . S
C818 N817 1.351 . S
C818 C819 1.434 . S
C819 C810 1.429 . S
C819 N816 1.350 . S
C819 C818 1.434 . S
C820 C821 1.369 . S
C820 C822 1.419 . S
C820 H824 0.930 . S
C821 C820 1.369 . S
C821 C830 1.429 . S
C822 C820 1.419 . S
C822 C823 1.363 . S
C822 H825 0.929 . S
C823 C822 1.363 . S
C823 C829 1.428 . S
H824 C820 0.930 . S
H825 C822 0.929 . S
S826 N827 1.613 . S
S826 N828 1.610 . S
N827 S826 1.613 . S
N827 C830 1.350 . S
N828 S826 1.610 . S
N828 C829 1.351 . S
C829 C823 1.428 . S
C829 N828 1.351 . S
C829 C830 1.434 . S
C830 C821 1.429 . S
C830 N827 1.350 . S
C830 C829 1.434 . S
C831 C832 1.369 . S
C831 C833 1.419 . S
C831 H835 0.930 . S
C832 C831 1.369 . S
C832 C841 1.429 . S
C833 C831 1.419 . S
C833 C834 1.363 . S
C833 H836 0.929 . S
C834 C833 1.363 . S
C834 C840 1.428 . S
H835 C831 0.930 . S
H836 C833 0.929 . S
S837 N838 1.613 . S
S837 N839 1.610 . S
N838 S837 1.613 . S
N838 C841 1.350 . S
N839 S837 1.610 . S
N839 C840 1.351 . S
C840 C834 1.428 . S
C840 N839 1.351 . S
C840 C841 1.434 . S
C841 C832 1.429 . S
C841 N838 1.350 . S
C841 C840 1.434 . S
C842 C843 1.369 . S
C842 C844 1.419 . S
C842 H846 0.930 . S
C843 C842 1.369 . S
C843 C852 1.429 . S
C844 C842 1.419 . S
C844 C845 1.363 . S
C844 H847 0.929 . S
C845 C844 1.363 . S
C845 C851 1.428 . S
H846 C842 0.930 . S
H847 C844 0.929 . S
S848 N849 1.613 . S
S848 N850 1.610 . S
N849 S848 1.613 . S
N849 C852 1.350 . S
N850 S848 1.610 . S
N850 C851 1.351 . S
C851 C845 1.428 . S
C851 N850 1.351 . S
C851 C852 1.434 . S
C852 C843 1.429 . S
C852 N849 1.350 . S
C852 C851 1.434 . S
C853 C854 1.369 . S
C853 C855 1.419 . S
C853 H857 0.930 . S
C854 C853 1.369 . S
C854 C863 1.429 . S
C855 C853 1.419 . S
C855 C856 1.363 . S
C855 H858 0.929 . S
C856 C855 1.363 . S
C856 C862 1.428 . S
H857 C853 0.930 . S
H858 C855 0.929 . S
S859 N860 1.613 . S
S859 N861 1.610 . S
N860 S859 1.613 . S
N860 C863 1.350 . S
N861 S859 1.610 . S
N861 C862 1.351 . S
C862 C856 1.428 . S
C862 N861 1.351 . S
C862 C863 1.434 . S
C863 C854 1.429 . S
C863 N860 1.350 . S
C863 C862 1.434 . S
C337 C167 1.318 . S
C339 C7 1.484 . S
C348 C21 1.488 . S
C350 C125 1.325 . S
C359 C35 1.490 . S
C361 C139 1.333 . S
C370 C49 1.488 . S
C372 C153 1.331 . S
C381 C195 1.329 . S
C383 C63 1.489 . S
C392 C77 1.483 . S
C394 C209 1.322 . S
C403 C223 1.335 . S
C405 C91 1.489 . S
C414 C181 1.326 . S
C416 C105 1.488 . S
C425 C83 1.323 . S
C427 C119 1.487 . S
C436 C97 1.335 . S
C438 C133 1.489 . S
C447 C147 1.484 . S
C449 C111 1.320 . S
C458 C69 1.320 . S
C460 C161 1.484 . S
C469 C55 1.333 . S
C471 C175 1.488 . S
C480 C189 1.490 . S
C482 C13 1.331 . S
C491 C203 1.483 . S
C493 C27 1.320 . S
C502 C217 1.484 . S
C504 C41 1.324 . S
C513 C231 1.490 . S
C515 C335 1.333 . S
C524 C293 1.322 . S
C526 C245 1.487 . S
C535 C259 1.483 . S
C537 C251 1.320 . S
C546 C273 1.483 . S
C548 C265 1.322 . S
C557 C279 1.331 . S
C559 C287 1.487 . S
C568 C301 1.487 . S
C570 C321 1.330 . S
C579 C237 1.334 . S
C581 C315 1.490 . S
C590 C307 1.323 . S
C592 C329 1.487 . S
C601 C8 1.283 . S
C603 C92 1.278 . S
C612 C22 1.279 . S
C614 C106 1.285 . S
C623 C36 1.276 . S
C625 C64 1.282 . S
C634 C78 1.275 . S
C636 C50 1.279 . S
C645 C148 1.284 . S
C647 C120 1.287 . S
C656 C134 1.285 . S
C658 C162 1.279 . S
C667 C176 1.278 . S
C669 C204 1.284 . S
C678 C218 1.282 . S
C680 C190 1.286 . S
C689 C246 1.279 . S
C691 C232 1.285 . S
C700 C260 1.288 . S
C702 C330 1.286 . S
C711 C274 1.275 . S
C713 C302 1.281 . S
C722 C288 1.287 . S
C724 C316 1.281 . S
C733 C11 1.163 . S
C735 C81 1.165 . S
C744 C25 1.160 . S
C746 C95 1.164 . S
C755 C39 1.165 . S
C757 C109 1.161 . S
C766 C67 1.164 . S
C768 C53 1.165 . S
C777 C123 1.163 . S
C779 C333 1.161 . S
C788 C137 1.165 . S
C790 C305 1.161 . S
C799 C319 1.162 . S
C801 C151 1.162 . S
C810 C165 1.162 . S
C812 C235 1.162 . S
C821 C291 1.161 . S
C823 C179 1.162 . S
C832 C249 1.166 . S
C834 C193 1.163 . S
C843 C207 1.162 . S
C845 C263 1.165 . S
C854 C277 1.161 . S
C856 C221 1.165 . S
