# Generated by pormake.
# Topology tsi, (8)-cn, num edge types: 1
# Building blocks:
#     Node 0, Type 0, BuildingBlock: LIZSOE_clean_sbu_0, # of connection points: 8
#     Node 1, Type 0, BuildingBlock: LIZSOE_clean_sbu_0, # of connection points: 8
#     Node 2, Type 0, BuildingBlock: LIZSOE_clean_sbu_0, # of connection points: 8
#     Node 3, Type 0, BuildingBlock: LIZSOE_clean_sbu_0, # of connection points: 8
#     Edge 4, Type (0, 0), BuildingBlock: FUNLAD_clean_linker_0, # of connection points: 2
#     Edge 5, Type (0, 0), BuildingBlock: FUNLAD_clean_linker_0, # of connection points: 2
#     Edge 6, Type (0, 0), BuildingBlock: FUNLAD_clean_linker_0, # of connection points: 2
#     Edge 7, Type (0, 0), BuildingBlock: FUNLAD_clean_linker_0, # of connection points: 2
#     Edge 8, Type (0, 0), BuildingBlock: FUNLAD_clean_linker_0, # of connection points: 2
#     Edge 9, Type (0, 0), BuildingBlock: FUNLAD_clean_linker_0, # of connection points: 2
#     Edge 10, Type (0, 0), BuildingBlock: FUNLAD_clean_linker_0, # of connection points: 2
#     Edge 11, Type (0, 0), BuildingBlock: FUNLAD_clean_linker_0, # of connection points: 2
#     Edge 12, Type (0, 0), BuildingBlock: FUNLAD_clean_linker_0, # of connection points: 2
#     Edge 13, Type (0, 0), BuildingBlock: FUNLAD_clean_linker_0, # of connection points: 2
#     Edge 14, Type (0, 0), BuildingBlock: FUNLAD_clean_linker_0, # of connection points: 2
#     Edge 15, Type (0, 0), BuildingBlock: FUNLAD_clean_linker_0, # of connection points: 2
#     Edge 16, Type (0, 0), BuildingBlock: FUNLAD_clean_linker_0, # of connection points: 2
#     Edge 17, Type (0, 0), BuildingBlock: FUNLAD_clean_linker_0, # of connection points: 2
#     Edge 18, Type (0, 0), BuildingBlock: FUNLAD_clean_linker_0, # of connection points: 2
#     Edge 19, Type (0, 0), BuildingBlock: FUNLAD_clean_linker_0, # of connection points: 2
# Relax obj value: 0.219
# Max RMSD: 0.260
# Mean RMSD: 0.249
data_MOF--net-tsi--node1-LIZSOE_clean_sbu_0--edge1-FUNLAD_clean_linker_0
_symmetry_space_group_name_H-M    P1
_symmetry_Int_Tables_number       1
_symmetry_cell_setting            triclinic
loop_
_symmetry_equiv_pos_as_xyz
'x, y, z'
_cell_length_a     18.036093
_cell_length_b     18.062995
_cell_length_c     75.70765
_cell_angle_alpha  100.29958
_cell_angle_beta   100.27114
_cell_angle_gamma 89.863156
loop_
_atom_site_label
_atom_site_type_symbol
_atom_site_fract_x
_atom_site_fract_y
_atom_site_fract_z
_atom_type_partial_charge
Co0 Co 0.20867 0.39276 0.46227 0.0
N1 N 0.27971 0.34093 0.47623 0.0
C2 C 0.35104 0.36641 0.48336 0.0
N3 N 0.33297 0.26941 0.49625 0.0
C4 C 0.27066 0.28084 0.48428 0.0
C5 C 0.3839 0.32248 0.49556 0.0
Co6 Co 1.01898 0.46348 0.38368 0.0
N7 N 0.94024 0.50015 0.3682 0.0
N8 N 0.8612 0.52295 0.34323 0.0
C9 C 0.83405 0.55434 0.35822 0.0
C10 C 0.88264 0.54091 0.37344 0.0
C11 C 0.9262 0.49061 0.34969 0.0
Co12 Co 0.11214 0.43142 0.42342 0.0
C13 C 0.07686 0.36818 0.38201 0.0
H14 H 0.8754 0.55821 0.38745 0.0
O15 O 0.13465 0.44366 0.45124 0.0
O16 O 1.00282 0.42464 0.4249 0.0
O17 O 0.11371 0.31783 0.4196 0.0
O18 O 0.22329 0.43803 0.42248 0.0
O19 O 0.28191 0.42256 0.45029 0.0
O20 O 0.94838 0.43599 0.39688 0.0
O21 O 0.09322 0.42345 0.39604 0.0
O22 O 0.03457 0.55824 0.3991 0.0
O23 O 0.19017 0.30433 0.44498 0.0
O24 O 0.13366 0.36836 0.47181 0.0
O25 O 0.10691 0.54551 0.42595 0.0
O26 O 1.01292 0.37014 0.37094 0.0
C27 C 0.1526 0.27654 0.42951 0.0
C28 C 0.97436 0.44395 0.33803 0.0
H29 H 0.95196 0.38498 0.33468 0.0
H30 H 0.97409 0.46409 0.32506 0.0
H31 H 0.03328 0.44466 0.34549 0.0
C32 C 0.94435 0.42436 0.41268 0.0
C33 C 0.2832 0.43656 0.43446 0.0
H34 H 0.37606 0.41687 0.48081 0.0
H35 H 0.1618 0.2597 0.49039 0.0
H36 H 0.21185 0.17612 0.48386 0.0
H37 H 0.16842 0.22803 0.46687 0.0
C38 C 0.19924 0.23348 0.48103 0.0
C39 C 0.1002 0.41827 0.46311 0.0
C40 C 0.07083 0.58612 0.415 0.0
H41 H 0.43882 0.33219 0.50426 0.0
H42 H 0.78161 0.5837 0.35814 0.0
Co43 Co 0.14041 0.57748 0.69598 0.0
N44 N 0.08794 0.51926 0.70804 0.0
C45 C 0.11813 0.45723 0.71373 0.0
N46 N 1.01446 0.47563 0.72522 0.0
C47 C 0.02424 0.52938 0.71535 0.0
C48 C 0.07341 0.43051 0.72419 0.0
Co49 Co 0.23312 0.67231 0.62251 0.0
N50 N 0.29564 0.71801 0.61036 0.0
N51 N 0.33927 0.78896 0.59273 0.0
C52 C 0.39228 0.7397 0.59721 0.0
C53 C 0.36537 0.69618 0.60796 0.0
C54 C 0.2808 0.77414 0.60072 0.0
Co55 Co 0.18304 0.62932 0.65945 0.0
C56 C 0.18714 0.57089 0.61816 0.0
H57 H 0.3943 0.65024 0.61334 0.0
O58 O 0.19287 0.63834 0.68707 0.0
O59 O 0.18652 0.743 0.66263 0.0
O60 O 0.07028 0.63106 0.65536 0.0
O61 O 0.18091 0.51553 0.65559 0.0
O62 O 0.17528 0.4916 0.68332 0.0
O63 O 0.21237 0.76433 0.63581 0.0
O64 O 0.17217 0.62193 0.6318 0.0
O65 O 0.31783 0.66506 0.63986 0.0
O66 O 0.05361 0.57343 0.67787 0.0
O67 O 0.11121 0.66471 0.70641 0.0
O68 O 0.29598 0.62613 0.66432 0.0
O69 O 0.24806 0.5802 0.61173 0.0
C70 C 0.02752 0.5986 0.66352 0.0
C71 C 0.20547 0.80946 0.59773 0.0
H72 H 0.16138 0.77375 0.60089 0.0
H73 H 0.20847 0.86521 0.6068 0.0
H74 H 0.19015 0.81826 0.58341 0.0
C75 C 0.19533 0.78707 0.6515 0.0
C76 C 0.18584 0.47077 0.66708 0.0
H77 H 0.17179 0.43492 0.71128 0.0
H78 H 1.00168 0.64274 0.7264 0.0
H79 H 0.91835 0.58586 0.71636 0.0
H80 H 0.97516 0.61909 0.702 0.0
C81 C 0.97686 0.59777 0.71487 0.0
C82 C 0.16866 0.6857 0.70013 0.0
C83 C 0.34149 0.64659 0.65505 0.0
H84 H 0.08508 0.38353 0.73127 0.0
H85 H 0.44645 0.73526 0.59288 0.0
Co86 Co 0.34563 0.78491 0.9367 0.0
N87 N 0.30164 0.85449 0.95273 0.0
C88 C 0.23945 0.89521 0.94962 0.0
N89 N 0.28176 0.92236 0.97941 0.0
C90 C 0.32668 0.87275 0.97097 0.0
C91 C 0.22677 0.9362 0.96595 0.0
Co92 Co 0.4132 0.60616 0.85692 0.0
N93 N 0.46347 0.53633 0.84234 0.0
N94 N 0.53542 0.48075 0.82269 0.0
C95 C 0.47641 0.43425 0.8219 0.0
C96 C 0.43272 0.46819 0.83399 0.0
C97 C 0.52662 0.54248 0.83515 0.0
Co98 Co 0.37689 0.69642 0.89634 0.0
C99 C 0.38796 0.71443 0.85688 0.0
H100 H 0.3792 0.44641 0.83573 0.0
O101 O 0.38985 0.71321 0.92378 0.0
O102 O 0.49032 0.69763 0.89972 0.0
O103 O 0.38064 0.80925 0.89648 0.0
O104 O 0.26355 0.69663 0.89358 0.0
O105 O 0.25173 0.76851 0.92013 0.0
O106 O 0.50198 0.61974 0.87441 0.0
O107 O 0.36308 0.67833 0.86853 0.0
O108 O 0.38042 0.53033 0.86763 0.0
O109 O 0.37232 0.86117 0.92528 0.0
O110 O 0.3234 0.70687 0.94593 0.0
O111 O 0.37294 0.58363 0.89634 0.0
O112 O 0.44063 0.684 0.84861 0.0
C113 C 0.38233 0.86672 0.90935 0.0
C114 C 0.57452 0.61343 0.83839 0.0
H115 H 0.57671 0.64631 0.85226 0.0
H116 H 0.63307 0.60113 0.83655 0.0
H117 H 0.55044 0.64879 0.82833 0.0
C118 C 0.53073 0.65732 0.88982 0.0
C119 C 0.22313 0.73263 0.90434 0.0
H120 H 0.20531 0.89524 0.93639 0.0
H121 H 0.38552 0.82681 0.99376 0.0
H122 H 0.44342 0.88017 0.98318 0.0
H123 H 0.41099 0.78737 0.97193 0.0
C124 C 0.39523 0.83925 0.9805 0.0
C125 C 0.36579 0.674 0.93484 0.0
C126 C 0.36981 0.52575 0.88355 0.0
H127 H 0.18093 0.97397 0.96778 0.0
H128 H 0.46373 0.38131 0.8125 0.0
Co129 Co 0.42003 0.31322 0.20017 0.0
N130 N 0.3675 0.27603 0.2164 0.0
C131 C 0.31155 0.223 0.21123 0.0
N132 N 0.31919 0.25908 0.24106 0.0
C133 C 0.37151 0.29663 0.23476 0.0
C134 C 0.28177 0.21299 0.22617 0.0
Co135 Co 0.47108 0.36518 0.11825 0.0
N136 N 0.50593 0.41266 0.10088 0.0
N137 N 0.51994 0.44459 0.07403 0.0
C138 C 0.56444 0.49061 0.08782 0.0
C139 C 0.55628 0.47067 0.10414 0.0
C140 C 0.48504 0.39743 0.08238 0.0
Co141 Co 0.44953 0.33851 0.15939 0.0
C142 C 0.37082 0.32004 0.11982 0.0
H143 H 0.58442 0.49765 0.11758 0.0
O144 O 0.47171 0.35534 0.1869 0.0
O145 O 0.45 0.45028 0.1607 0.0
O146 O 0.33783 0.33994 0.15803 0.0
O147 O 0.44807 0.22655 0.15882 0.0
O148 O 0.42339 0.21583 0.18645 0.0
O149 O 0.46001 0.46004 0.13233 0.0
O150 O 0.43101 0.31724 0.13216 0.0
O151 O 0.56988 0.36165 0.13147 0.0
O152 O 0.32671 0.32749 0.18602 0.0
O153 O 0.42214 0.40886 0.21099 0.0
O154 O 0.56119 0.33859 0.15944 0.0
O155 O 0.37392 0.36391 0.10804 0.0
C156 C 0.29772 0.33607 0.17005 0.0
C157 C 0.42462 0.33951 0.07287 0.0
H158 H 0.36885 0.36558 0.07285 0.0
H159 H 0.42909 0.31777 0.05854 0.0
H160 H 0.42653 0.2916 0.08029 0.0
C161 C 0.45343 0.48971 0.14846 0.0
C162 C 0.43539 0.18686 0.17056 0.0
H163 H 0.29177 0.19504 0.1973 0.0
H164 H 0.47702 0.35936 0.24083 0.0
H165 H 0.43675 0.35201 0.26068 0.0
H166 H 0.39638 0.41314 0.24557 0.0
C167 C 0.42372 0.35835 0.2462 0.0
C168 C 0.46796 0.41385 0.1997 0.0
C169 C 0.59988 0.35027 0.14738 0.0
H170 H 0.23459 0.17582 0.22604 0.0
H171 H 0.60011 0.53616 0.0862 0.0
C172 C 1.00609 0.4306 0.48347 0.0
C173 C 0.05575 0.4672 0.47511 0.0
C174 C 0.99901 0.45642 0.50174 0.0
C175 C 0.03989 0.52088 0.51204 0.0
C176 C 0.08005 0.5637 0.5028 0.0
C177 C 0.08811 0.53714 0.48458 0.0
C178 C 0.0461 0.54223 0.53247 0.0
C179 C 0.04445 0.49126 0.54364 0.0
C180 C 0.06534 0.50912 0.56418 0.0
C181 C 0.09846 0.45324 0.5736 0.0
C182 C 0.12917 0.47032 0.59235 0.0
C183 C 0.12565 0.54329 0.60239 0.0
H184 H 0.02928 0.62461 0.56795 0.0
C185 C 0.08531 0.59703 0.59339 0.0
C186 C 0.05618 0.58049 0.57451 0.0
H187 H 0.08312 0.65438 0.60052 0.0
H188 H 0.9806 0.37631 0.47669 0.0
H189 H 0.96489 0.42334 0.50804 0.0
H190 H 0.11092 0.61456 0.51016 0.0
H191 H 0.12762 0.5665 0.47883 0.0
H192 H 0.06161 0.60043 0.53859 0.0
H193 H 0.03591 0.4321 0.53749 0.0
H194 H 0.10571 0.3974 0.56617 0.0
H195 H 0.16158 0.42821 0.59863 0.0
C196 C 0.66407 0.47247 0.81593 0.0
C197 C 0.58606 0.47288 0.80988 0.0
C198 C 0.71346 0.4707 0.80358 0.0
C199 C 0.68535 0.46818 0.78485 0.0
C200 C 0.60692 0.46684 0.77886 0.0
C201 C 0.55774 0.46878 0.79125 0.0
C202 C 0.73533 0.47097 0.77128 0.0
C203 C 0.80882 0.45406 0.77402 0.0
C204 C 0.85976 0.46088 0.76092 0.0
C205 C 0.93773 0.46773 0.76754 0.0
C206 C 0.98812 0.47373 0.75583 0.0
C207 C 0.96165 0.47292 0.73723 0.0
H208 H 0.77402 0.45112 0.73631 0.0
C209 C 0.88402 0.4649 0.73042 0.0
C210 C 0.83331 0.45898 0.74214 0.0
H211 H 0.86294 0.46179 0.71598 0.0
H212 H 0.68662 0.47525 0.83029 0.0
H213 H 0.77324 0.47376 0.80898 0.0
H214 H 0.58356 0.46522 0.76458 0.0
H215 H 0.49753 0.4692 0.78639 0.0
H216 H 0.71004 0.48867 0.75866 0.0
H217 H 0.83422 0.43625 0.78662 0.0
H218 H 0.95983 0.46875 0.78187 0.0
H219 H 0.04801 0.47904 0.76126 0.0
C220 C 0.36751 0.55585 0.94713 0.0
C221 C 0.4083 0.61137 0.94161 0.0
C222 C 0.39835 0.52312 0.96219 0.0
C223 C 0.47082 0.54559 0.97215 0.0
C224 C 0.51469 0.59403 0.96522 0.0
C225 C 0.48417 0.62577 0.94996 0.0
C226 C 0.49675 0.53064 0.99113 0.0
C227 C 0.47136 0.47272 0.99777 0.0
C228 C 0.4891 0.46668 1.01755 0.0
C229 C 0.50109 0.39586 1.02265 0.0
C230 C 0.51301 0.38855 0.04112 0.0
C231 C 0.50936 0.45134 0.05491 0.0
H232 H 0.47866 0.58535 1.02798 0.0
C233 C 0.49858 0.52237 0.04981 0.0
C234 C 0.48884 0.53006 1.0314 0.0
H235 H 0.49652 0.57197 0.0601 0.0
H236 H 0.30847 0.54457 0.9412 0.0
H237 H 0.36229 0.48643 0.96703 0.0
H238 H 0.5708 0.61223 0.9725 0.0
H239 H 0.5167 0.66935 0.94636 0.0
H240 H 0.53685 0.57118 1.00028 0.0
H241 H 0.43667 0.42796 0.98852 0.0
H242 H 0.5021 0.34611 1.01232 0.0
H243 H 0.52581 0.33383 0.0446 0.0
C244 C 0.85482 0.54271 0.31124 0.0
C245 C 0.82134 0.51805 0.32469 0.0
C246 C 0.81301 0.54251 0.29365 0.0
C247 C 0.73647 0.5189 0.28933 0.0
C248 C 0.70342 0.49489 0.30288 0.0
C249 C 0.74524 0.49423 0.32026 0.0
C250 C 0.68743 0.52154 0.27134 0.0
C251 C 0.71154 0.51658 0.25526 0.0
C252 C 0.65654 0.50791 0.23769 0.0
C253 C 0.66759 0.45318 0.22276 0.0
C254 C 0.60794 0.42993 0.20813 0.0
C255 C 0.53652 0.4615 0.20817 0.0
H256 H 0.57965 0.59164 0.24731 0.0
C257 C 0.52978 0.52464 0.22164 0.0
C258 C 0.58891 0.54717 0.23634 0.0
H259 H 0.47575 0.5507 0.222 0.0
H260 H 0.9124 0.56453 0.31451 0.0
H261 H 0.83993 0.56324 0.28373 0.0
H262 H 0.64458 0.47677 0.30004 0.0
H263 H 0.71787 0.47579 0.33041 0.0
H264 H 0.627 0.52152 0.27116 0.0
H265 H 0.77088 0.50882 0.25473 0.0
H266 H 0.71971 0.42303 0.22326 0.0
H267 H 0.61522 0.38104 0.19809 0.0
C268 C 0.34946 0.26276 0.27472 0.0
C269 C 0.29775 0.27032 0.25889 0.0
C270 C 0.32557 0.26702 0.29161 0.0
C271 C 0.24907 0.27763 0.29292 0.0
C272 C 0.19789 0.28495 0.27704 0.0
C273 C 0.22184 0.28159 0.26033 0.0
C274 C 0.21877 0.27756 0.31012 0.0
C275 C 0.25878 0.29648 0.32727 0.0
C276 C 0.22202 0.30375 0.34374 0.0
C277 C 0.24354 0.36383 0.35838 0.0
C278 C 0.20112 0.37994 0.37239 0.0
C279 C 0.13765 0.33489 0.37243 0.0
H280 H 0.14544 0.20695 0.33376 0.0
C281 C 0.12101 0.27023 0.35877 0.0
C282 C 0.16238 0.25501 0.34455 0.0
H283 H 0.07175 0.23504 0.35819 0.0
H284 H 0.40771 0.25085 0.2739 0.0
H285 H 0.36648 0.25923 0.3034 0.0
H286 H 0.13863 0.29276 0.2775 0.0
H287 H 0.18062 0.2867 0.24835 0.0
H288 H 0.15852 0.26629 0.30851 0.0
H289 H 0.31738 0.31501 0.32925 0.0
H290 H 0.28946 0.40213 0.35821 0.0
H291 H 0.21351 0.43205 0.3821 0.0
C292 C 0.26948 0.67969 0.72659 0.0
C293 C 0.22376 0.72515 0.71603 0.0
C294 C 0.29067 0.70205 0.7456 0.0
C295 C 0.26897 0.77166 0.75454 0.0
C296 C 0.23098 0.82083 0.74376 0.0
C297 C 0.20737 0.79732 0.72479 0.0
C298 C 0.28387 0.79245 0.77502 0.0
C299 C 0.26589 0.74497 0.78573 0.0
C300 C 0.28219 0.75857 0.80632 0.0
C301 C 0.2451 0.71254 0.81544 0.0
C302 C 0.27059 0.70964 0.83398 0.0
C303 C 0.33522 0.75143 0.84385 0.0
H304 H 0.37049 0.84459 0.81053 0.0
C305 C 0.366 0.80483 0.83541 0.0
C306 C 0.34016 0.80818 0.81687 0.0
H307 H 0.41669 0.83694 0.84244 0.0
H308 H 0.28125 0.62289 0.7205 0.0
H309 H 0.32138 0.66345 0.75343 0.0
H310 H 0.21434 0.87524 0.7502 0.0
H311 H 0.17038 0.83284 0.71727 0.0
H312 H 0.30595 0.8488 0.78117 0.0
H313 H 0.23773 0.69162 0.77894 0.0
H314 H 0.19974 0.67412 0.80785 0.0
H315 H 0.24606 0.66692 0.83976 0.0
C316 C 0.22484 0.95774 1.00708 0.0
C317 C 0.28844 0.95394 0.9986 0.0
C318 C 0.23058 0.98971 1.02561 0.0
C319 C 0.30024 1.01927 0.03603 0.0
C320 C 0.36363 1.01513 1.02747 0.0
C321 C 0.35772 0.98354 1.00899 0.0
C322 C 0.31003 0.05576 0.05568 0.0
C323 C 0.25384 0.08488 0.06421 0.0
C324 C 0.26995 0.13459 0.08253 0.0
C325 C 0.22784 0.19952 0.08579 0.0
C326 C 0.25425 0.25762 0.10049 0.0
C327 C 0.32292 0.25135 0.11223 0.0
H328 H 0.36396 0.07283 0.09419 0.0
C329 C 0.3579 0.1814 0.1107 0.0
C330 C 0.33197 0.12361 0.0959 0.0
H331 H 0.41102 0.17466 0.11941 0.0
H332 H 0.17073 0.93528 0.99936 0.0
H333 H 0.18056 0.99042 1.03166 0.0
H334 H 0.41796 0.03784 0.03504 0.0
H335 H 0.4071 0.98396 1.00274 0.0
H336 H 0.36777 0.06545 0.06298 0.0
H337 H 0.19644 0.08195 0.05671 0.0
H338 H 0.17886 0.20878 0.07594 0.0
H339 H 0.22603 0.31083 0.10132 0.0
C340 C 0.39489 0.16963 0.51139 0.0
C341 C 0.33833 0.22259 0.50986 0.0
C342 C 0.39686 0.12126 0.52401 0.0
C343 C 0.34208 0.12554 0.53532 0.0
C344 C 0.28784 0.18118 0.53424 0.0
C345 C 0.28597 0.22915 0.52166 0.0
C346 C 0.33893 0.07382 0.54844 0.0
C347 C 0.36991 1.00551 0.54708 0.0
C348 C 0.36127 0.95124 0.55933 0.0
C349 C 0.37837 0.8756 0.55386 0.0
C350 C 0.37061 0.82239 0.56477 0.0
C351 C 0.34506 0.84355 0.58134 0.0
H352 H 0.3262 0.03042 0.58144 0.0
C353 C 0.32895 0.91906 0.58704 0.0
C354 C 0.33733 0.97259 0.57623 0.0
H355 H 0.31172 0.93696 0.60008 0.0
H356 H 0.43644 0.16485 0.50257 0.0
H357 H 0.44136 0.08113 0.52484 0.0
H358 H 0.24578 0.1868 0.54295 0.0
H359 H 0.24324 0.27126 0.52102 0.0
H360 H 0.30473 0.09116 0.55878 0.0
H361 H 0.39916 0.98604 0.53584 0.0
H362 H 0.39751 0.85741 0.54104 0.0
H363 H 0.38398 0.76441 0.56023 0.0
C364 C 0.08404 0.15182 0.41602 0.0
C365 C 0.15088 0.19315 0.42439 0.0
C366 C 0.08035 0.07319 0.4149 0.0
C367 C 0.14378 0.03451 0.42201 0.0
C368 C 0.21148 0.07575 0.42931 0.0
C369 C 0.21483 0.15386 0.43065 0.0
C370 C 0.14261 0.9517 0.42211 0.0
C371 C 0.08008 0.91106 0.42227 0.0
C372 C 0.07902 0.82823 0.42236 0.0
C373 C 1.01152 0.78678 0.41495 0.0
C374 C 1.00841 0.70863 0.41357 0.0
C375 C 0.07234 0.66957 0.41993 0.0
H376 H 0.19492 0.81986 0.43591 0.0
C377 C 0.13894 0.71111 0.42841 0.0
C378 C 0.14243 0.78974 0.42954 0.0
H379 H 0.1892 0.68253 0.43334 0.0
H380 H 0.03374 0.18055 0.41119 0.0
H381 H 0.02769 0.04324 0.40863 0.0
H382 H 0.26152 0.04779 0.43466 0.0
H383 H 0.26721 0.18406 0.4372 0.0
H384 H 0.19625 0.92401 0.42267 0.0
H385 H 0.02641 0.9387 0.42169 0.0
H386 H 0.96147 0.81462 0.40955 0.0
H387 H 0.95614 0.67829 0.407 0.0
C388 C 0.47047 0.69247 0.65436 0.0
C389 C 0.42422 0.64436 0.66071 0.0
C390 C 0.54803 0.68285 0.65631 0.0
C391 C 0.58152 0.62427 0.66457 0.0
C392 C 0.53611 0.57944 0.6721 0.0
C393 C 0.45797 0.58923 0.67015 0.0
C394 C 0.66332 0.60893 0.66558 0.0
C395 C 0.7042 0.62704 0.65351 0.0
C396 C 0.7863 0.61347 0.65455 0.0
C397 C 0.82968 0.65817 0.6465 0.0
C398 C 0.90799 0.65072 0.64836 0.0
C399 C 0.94426 0.59793 0.65821 0.0
H400 H 0.7907 0.51936 0.669 0.0
C401 C 0.90004 0.54971 0.66512 0.0
C402 C 0.82216 0.55731 0.66333 0.0
H403 H 0.92602 0.5074 0.67251 0.0
H404 H 0.44623 0.73661 0.64736 0.0
H405 H 0.58116 0.72117 0.65116 0.0
H406 H 0.56067 0.53481 0.67886 0.0
H407 H 0.42372 0.55131 0.67517 0.0
H408 H 0.68977 0.58072 0.67648 0.0
H409 H 0.67735 0.65486 0.64257 0.0
H410 H 0.80332 0.70102 0.63936 0.0
H411 H 0.94034 0.68863 0.64286 0.0
C412 C 0.38916 0.42668 0.90347 0.0
C413 C 0.35737 0.44879 0.88696 0.0
C414 C 0.38665 0.35052 0.90518 0.0
C415 C 0.35196 0.2952 0.89039 0.0
C416 C 0.31695 0.31845 0.8743 0.0
C417 C 0.32017 0.39394 0.87254 0.0
C418 C 0.35041 0.213 0.89101 0.0
C419 C 0.40195 0.17983 0.90203 0.0
C420 C 0.39989 0.09779 0.90272 0.0
C421 C 0.43123 0.0751 0.91914 0.0
C422 C 0.42765 0.99967 0.92089 0.0
C423 C 0.39398 0.94423 0.90614 0.0
H424 H 0.34592 0.05712 0.87457 0.0
C425 C 0.36607 0.96584 0.88932 0.0
C426 C 0.36855 0.04211 0.88764 0.0
H427 H 0.3399 0.92441 0.87772 0.0
H428 H 0.41881 0.46752 0.91473 0.0
H429 H 0.41228 0.33541 0.91804 0.0
H430 H 0.28892 0.27764 0.86278 0.0
H431 H 0.29479 0.40923 0.85965 0.0
H432 H 0.30605 0.17838 0.88159 0.0
H433 H 0.44632 0.21421 0.91149 0.0
H434 H 0.45665 0.11629 0.93089 0.0
H435 H 0.45029 0.98486 0.93401 0.0
C436 C 0.1707 0.328 0.17844 0.0
C437 C 0.21461 0.33938 0.1655 0.0
C438 C 0.09238 0.3296 0.17443 0.0
C439 C 0.05554 0.34384 0.15742 0.0
C440 C 0.09931 0.35455 0.1444 0.0
C441 C 0.17808 0.35243 0.14838 0.0
C442 C 0.97191 0.34547 0.15258 0.0
C443 C 0.92591 0.3543 0.16501 0.0
C444 C 0.84245 0.3534 0.16011 0.0
C445 C 0.79944 0.33205 0.17222 0.0
C446 C 0.7207 0.33048 0.16813 0.0
C447 C 0.68329 0.35132 0.15191 0.0
H448 H 0.83605 0.39432 0.13458 0.0
C449 C 0.7265 0.3738 0.13991 0.0
C450 C 0.80509 0.37502 0.14397 0.0
H451 H 0.69973 0.39116 0.12739 0.0
H452 H 0.19667 0.31693 0.19171 0.0
H453 H 0.0616 0.31806 0.18469 0.0
H454 H 0.07252 0.3648 0.1311 0.0
H455 H 0.21018 0.36101 0.13807 0.0
H456 H 0.94779 0.33872 0.13817 0.0
H457 H 0.94926 0.36089 0.17944 0.0
H458 H 0.82686 0.31562 0.18482 0.0
H459 H 0.68936 0.31235 0.1776 0.0
C460 C 0.15043 0.90665 0.64261 0.0
C461 C 0.18485 0.86836 0.65634 0.0
C462 C 0.15116 0.98488 0.64558 0.0
C463 C 0.18689 0.02666 0.66239 0.0
C464 C 0.21638 0.98833 0.67661 0.0
C465 C 0.21549 0.90947 0.67362 0.0
C466 C 0.19416 0.10992 0.66543 0.0
C467 C 0.19658 0.1488 0.65184 0.0
C468 C 0.20296 0.23214 0.65498 0.0
C469 C 0.171 0.27086 0.64103 0.0
C470 C 0.16943 0.34968 0.64437 0.0
C471 C 0.20006 0.39036 0.66171 0.0
H472 H 0.26791 0.2461 0.68252 0.0
C473 C 0.23731 0.35176 0.67511 0.0
C474 C 0.23917 0.27362 0.67177 0.0
H475 H 0.26307 0.38205 0.68847 0.0
H476 H 0.1242 0.87583 0.62935 0.0
H477 H 0.1242 1.01213 0.6346 0.0
H478 H 0.24282 1.01942 0.68983 0.0
H479 H 0.24202 0.88095 0.68443 0.0
H480 H 0.19912 0.13954 0.6794 0.0
H481 H 0.19146 0.11935 0.63784 0.0
H482 H 0.14411 0.24002 0.62783 0.0
H483 H 0.14064 0.37827 0.63381 0.0
C484 C 0.65653 0.72392 0.9033 0.0
C485 C 0.61423 0.65781 0.89482 0.0
C486 C 0.73537 0.72628 0.90458 0.0
C487 C 0.77329 0.6622 0.89757 0.0
C488 C 0.73103 0.5953 0.89009 0.0
C489 C 0.65267 0.59331 0.88855 0.0
C490 C 0.85642 0.662 0.89783 0.0
C491 C 0.89772 0.72324 0.89706 0.0
C492 C 0.98081 0.72345 0.89704 0.0
C493 C 1.02143 0.79244 0.90239 0.0
C494 C 0.09972 0.79554 0.90369 0.0
C495 C 0.13968 0.72988 0.89942 0.0
H496 H 0.99128 0.60384 0.88699 0.0
C497 C 0.09909 0.66122 0.89297 0.0
C498 C 1.0204 0.65788 0.89182 0.0
H499 H 0.12851 0.60967 0.88963 0.0
H500 H 0.62847 0.77463 0.90814 0.0
H501 H 0.76621 0.77834 0.91095 0.0
H502 H 0.75845 0.54485 0.88478 0.0
H503 H 0.62171 0.5415 0.88191 0.0
H504 H 0.88344 0.60831 0.89793 0.0
H505 H 0.87001 0.7766 0.89685 0.0
H506 H 0.9928 0.84411 0.90616 0.0
H507 H 0.12933 0.84944 0.90837 0.0
C508 C 0.4612 0.61598 0.13969 0.0
C509 C 0.45116 0.57289 0.15288 0.0
C510 C 0.4597 0.69427 0.1435 0.0
C511 C 0.44702 0.73195 0.16059 0.0
C512 C 0.43783 0.68899 0.17387 0.0
C513 C 0.43983 0.61028 0.17009 0.0
C514 C 0.44498 0.81556 0.16523 0.0
C515 C 0.43608 0.86122 0.15273 0.0
C516 C 0.4353 0.9446 0.15756 0.0
C517 C 0.45641 0.98817 0.14553 0.0
C518 C 0.4566 0.06683 0.14965 0.0
C519 C 0.43468 0.10357 0.16581 0.0
H520 H 0.39287 0.94996 0.18289 0.0
C521 C 0.41213 0.05974 0.17766 0.0
C522 C 0.41221 0.98132 0.17358 0.0
H523 H 0.39396 0.08588 0.19014 0.0
H524 H 0.47091 0.58936 0.12634 0.0
H525 H 0.46985 0.72433 0.133 0.0
H526 H 0.42874 0.71639 0.18723 0.0
H527 H 0.43233 0.57889 0.1806 0.0
H528 H 0.45121 0.84004 0.17961 0.0
H529 H 0.43043 0.83777 0.13833 0.0
H530 H 0.47381 0.96127 0.13301 0.0
H531 H 0.47471 0.09866 0.14027 0.0
C532 C 0.80555 0.40294 0.40277 0.0
C533 C 0.86835 0.41635 0.41701 0.0
C534 C 0.73264 0.40356 0.4065 0.0
C535 C 0.72055 0.41864 0.42462 0.0
C536 C 0.78338 0.4283 0.43889 0.0
C537 C 0.85668 0.42728 0.43514 0.0
C538 C 0.64354 0.42428 0.42911 0.0
C539 C 0.58249 0.44067 0.41747 0.0
C540 C 0.50568 0.44527 0.42196 0.0
C541 C 0.44308 0.42678 0.40784 0.0
C542 C 0.37016 0.42657 0.41174 0.0
C543 C 0.35839 0.44598 0.42979 0.0
H544 H 0.54024 0.48548 0.4511 0.0
C545 C 0.42086 0.46813 0.4438 0.0
C546 C 0.49368 0.4679 0.43995 0.0
H547 H 0.41363 0.4847 0.45784 0.0
H548 H 0.81256 0.39294 0.38862 0.0
H549 H 0.68628 0.39216 0.39507 0.0
H550 H 0.77574 0.43878 0.45299 0.0
H551 H 0.90389 0.43762 0.44641 0.0
H552 H 0.63757 0.41573 0.44263 0.0
H553 H 0.58769 0.44913 0.40391 0.0
H554 H 0.45078 0.40983 0.39383 0.0
H555 H 0.32366 0.40791 0.40075 0.0
loop_
_geom_bond_atom_site_label_1
_geom_bond_atom_site_label_2
_geom_bond_distance
_geom_bond_site_symmetry_2
_ccdc_geom_bond_type
Co0 N1 2.034 . S
Co0 O15 2.262 . S
Co0 O19 1.958 . S
Co0 O23 1.950 . S
Co0 O24 2.057 . S
N1 Co0 2.034 . S
N1 C2 1.366 . S
N1 C4 1.332 . S
C2 N1 1.366 . S
C2 C5 1.377 . S
C2 H34 0.931 . S
N3 C4 1.346 . S
N3 C5 1.337 . S
C4 N1 1.332 . S
C4 N3 1.346 . S
C4 C38 1.361 . S
C5 C2 1.377 . S
C5 N3 1.337 . S
C5 H41 0.930 . S
Co6 N7 2.034 . S
Co6 O20 1.950 . S
Co6 O21 2.262 1_655 S
Co6 O22 1.958 1_655 S
Co6 O26 2.057 1_655 S
N7 Co6 2.034 . S
N7 C10 1.366 . S
N7 C11 1.332 . S
N8 C9 1.337 . S
N8 C11 1.346 . S
C9 N8 1.337 . S
C9 C10 1.377 . S
C9 H42 0.930 . S
C10 N7 1.366 . S
C10 C9 1.377 . S
C10 H14 0.931 . S
C11 N7 1.332 . S
C11 N8 1.346 . S
C11 C28 1.361 . S
Co12 O15 2.097 . S
Co12 O16 2.065 1_455 S
Co12 O17 2.065 . S
Co12 O18 2.042 . S
Co12 O21 2.097 . S
Co12 O25 2.042 . S
C13 O21 1.253 . S
C13 O26 1.263 . S
H14 C10 0.931 . S
O15 Co0 2.262 . S
O15 Co12 2.097 . S
O15 C39 1.253 . S
O16 Co12 2.065 1_655 S
O16 C32 1.221 . S
O17 Co12 2.065 . S
O17 C27 1.221 . S
O18 Co12 2.042 . S
O18 C33 1.237 . S
O19 Co0 1.958 . S
O19 C33 1.278 . S
O20 Co6 1.950 . S
O20 C32 1.277 . S
O21 Co6 2.262 1_455 S
O21 Co12 2.097 . S
O21 C13 1.253 . S
O22 Co6 1.958 1_455 S
O22 C40 1.278 . S
O23 Co0 1.950 . S
O23 C27 1.277 . S
O24 Co0 2.057 . S
O24 C39 1.263 . S
O25 Co12 2.042 . S
O25 C40 1.237 . S
O26 Co6 2.057 1_455 S
O26 C13 1.263 . S
C27 O17 1.221 . S
C27 O23 1.277 . S
C28 C11 1.361 . S
C28 H29 0.960 . S
C28 H30 0.961 . S
C28 H31 0.961 . S
H29 C28 0.960 . S
H30 C28 0.961 . S
H31 C28 0.961 . S
C32 O16 1.221 . S
C32 O20 1.277 . S
C33 O18 1.237 . S
C33 O19 1.278 . S
H34 C2 0.931 . S
H35 C38 0.961 . S
H36 C38 0.961 . S
H37 C38 0.960 . S
C38 C4 1.361 . S
C38 H35 0.961 . S
C38 H36 0.961 . S
C38 H37 0.960 . S
C39 O15 1.253 . S
C39 O24 1.263 . S
C40 O22 1.278 . S
C40 O25 1.237 . S
H41 C5 0.930 . S
H42 C9 0.930 . S
Co43 N44 2.034 . S
Co43 O58 2.262 . S
Co43 O62 1.958 . S
Co43 O66 1.950 . S
Co43 O67 2.057 . S
N44 Co43 2.034 . S
N44 C45 1.366 . S
N44 C47 1.332 . S
C45 N44 1.366 . S
C45 C48 1.377 . S
C45 H77 0.931 . S
N46 C47 1.346 . S
N46 C48 1.337 . S
C47 N44 1.332 . S
C47 N46 1.346 . S
C47 C81 1.361 1_455 S
C48 C45 1.377 . S
C48 N46 1.337 . S
C48 H84 0.930 . S
Co49 N50 2.034 . S
Co49 O63 1.950 . S
Co49 O64 2.262 . S
Co49 O65 1.958 . S
Co49 O69 2.057 . S
N50 Co49 2.034 . S
N50 C53 1.366 . S
N50 C54 1.332 . S
N51 C52 1.337 . S
N51 C54 1.346 . S
C52 N51 1.337 . S
C52 C53 1.377 . S
C52 H85 0.930 . S
C53 N50 1.366 . S
C53 C52 1.377 . S
C53 H57 0.931 . S
C54 N50 1.332 . S
C54 N51 1.346 . S
C54 C71 1.361 . S
Co55 O58 2.097 . S
Co55 O59 2.065 . S
Co55 O60 2.065 . S
Co55 O61 2.042 . S
Co55 O64 2.097 . S
Co55 O68 2.042 . S
C56 O64 1.253 . S
C56 O69 1.263 . S
H57 C53 0.931 . S
O58 Co43 2.262 . S
O58 Co55 2.097 . S
O58 C82 1.253 . S
O59 Co55 2.065 . S
O59 C75 1.221 . S
O60 Co55 2.065 . S
O60 C70 1.221 . S
O61 Co55 2.042 . S
O61 C76 1.237 . S
O62 Co43 1.958 . S
O62 C76 1.278 . S
O63 Co49 1.950 . S
O63 C75 1.277 . S
O64 Co49 2.262 . S
O64 Co55 2.097 . S
O64 C56 1.253 . S
O65 Co49 1.958 . S
O65 C83 1.278 . S
O66 Co43 1.950 . S
O66 C70 1.277 . S
O67 Co43 2.057 . S
O67 C82 1.263 . S
O68 Co55 2.042 . S
O68 C83 1.237 . S
O69 Co49 2.057 . S
O69 C56 1.263 . S
C70 O60 1.221 . S
C70 O66 1.277 . S
C71 C54 1.361 . S
C71 H72 0.960 . S
C71 H73 0.961 . S
C71 H74 0.961 . S
H72 C71 0.960 . S
H73 C71 0.961 . S
H74 C71 0.961 . S
C75 O59 1.221 . S
C75 O63 1.277 . S
C76 O61 1.237 . S
C76 O62 1.278 . S
H77 C45 0.931 . S
H78 C81 0.961 1_455 S
H79 C81 0.961 . S
H80 C81 0.960 1_455 S
C81 C47 1.361 1_655 S
C81 H78 0.961 1_655 S
C81 H79 0.961 . S
C81 H80 0.960 1_655 S
C82 O58 1.253 . S
C82 O67 1.263 . S
C83 O65 1.278 . S
C83 O68 1.237 . S
H84 C48 0.930 . S
H85 C52 0.930 . S
Co86 N87 2.034 . S
Co86 O101 2.262 . S
Co86 O105 1.958 . S
Co86 O109 1.950 . S
Co86 O110 2.057 . S
N87 Co86 2.034 . S
N87 C88 1.366 . S
N87 C90 1.332 . S
C88 N87 1.366 . S
C88 C91 1.377 . S
C88 H120 0.931 . S
N89 C90 1.346 . S
N89 C91 1.337 . S
C90 N87 1.332 . S
C90 N89 1.346 . S
C90 C124 1.361 . S
C91 C88 1.377 . S
C91 N89 1.337 . S
C91 H127 0.930 . S
Co92 N93 2.034 . S
Co92 O106 1.950 . S
Co92 O107 2.262 . S
Co92 O108 1.958 . S
Co92 O112 2.057 . S
N93 Co92 2.034 . S
N93 C96 1.366 . S
N93 C97 1.332 . S
N94 C95 1.337 . S
N94 C97 1.346 . S
C95 N94 1.337 . S
C95 C96 1.377 . S
C95 H128 0.930 . S
C96 N93 1.366 . S
C96 C95 1.377 . S
C96 H100 0.931 . S
C97 N93 1.332 . S
C97 N94 1.346 . S
C97 C114 1.361 . S
Co98 O101 2.097 . S
Co98 O102 2.065 . S
Co98 O103 2.065 . S
Co98 O104 2.042 . S
Co98 O107 2.097 . S
Co98 O111 2.042 . S
C99 O107 1.253 . S
C99 O112 1.263 . S
H100 C96 0.931 . S
O101 Co86 2.262 . S
O101 Co98 2.097 . S
O101 C125 1.253 . S
O102 Co98 2.065 . S
O102 C118 1.221 . S
O103 Co98 2.065 . S
O103 C113 1.221 . S
O104 Co98 2.042 . S
O104 C119 1.237 . S
O105 Co86 1.958 . S
O105 C119 1.278 . S
O106 Co92 1.950 . S
O106 C118 1.277 . S
O107 Co92 2.262 . S
O107 Co98 2.097 . S
O107 C99 1.253 . S
O108 Co92 1.958 . S
O108 C126 1.278 . S
O109 Co86 1.950 . S
O109 C113 1.277 . S
O110 Co86 2.057 . S
O110 C125 1.263 . S
O111 Co98 2.042 . S
O111 C126 1.237 . S
O112 Co92 2.057 . S
O112 C99 1.263 . S
C113 O103 1.221 . S
C113 O109 1.277 . S
C114 C97 1.361 . S
C114 H115 0.960 . S
C114 H116 0.961 . S
C114 H117 0.961 . S
H115 C114 0.960 . S
H116 C114 0.961 . S
H117 C114 0.961 . S
C118 O102 1.221 . S
C118 O106 1.277 . S
C119 O104 1.237 . S
C119 O105 1.278 . S
H120 C88 0.931 . S
H121 C124 0.961 . S
H122 C124 0.961 . S
H123 C124 0.960 . S
C124 C90 1.361 . S
C124 H121 0.961 . S
C124 H122 0.961 . S
C124 H123 0.960 . S
C125 O101 1.253 . S
C125 O110 1.263 . S
C126 O108 1.278 . S
C126 O111 1.237 . S
H127 C91 0.930 . S
H128 C95 0.930 . S
Co129 N130 2.034 . S
Co129 O144 2.262 . S
Co129 O148 1.958 . S
Co129 O152 1.950 . S
Co129 O153 2.057 . S
N130 Co129 2.034 . S
N130 C131 1.366 . S
N130 C133 1.332 . S
C131 N130 1.366 . S
C131 C134 1.377 . S
C131 H163 0.931 . S
N132 C133 1.346 . S
N132 C134 1.337 . S
C133 N130 1.332 . S
C133 N132 1.346 . S
C133 C167 1.361 . S
C134 C131 1.377 . S
C134 N132 1.337 . S
C134 H170 0.930 . S
Co135 N136 2.034 . S
Co135 O149 1.950 . S
Co135 O150 2.262 . S
Co135 O151 1.958 . S
Co135 O155 2.057 . S
N136 Co135 2.034 . S
N136 C139 1.366 . S
N136 C140 1.332 . S
N137 C138 1.337 . S
N137 C140 1.346 . S
C138 N137 1.337 . S
C138 C139 1.377 . S
C138 H171 0.930 . S
C139 N136 1.366 . S
C139 C138 1.377 . S
C139 H143 0.931 . S
C140 N136 1.332 . S
C140 N137 1.346 . S
C140 C157 1.361 . S
Co141 O144 2.097 . S
Co141 O145 2.065 . S
Co141 O146 2.065 . S
Co141 O147 2.042 . S
Co141 O150 2.097 . S
Co141 O154 2.042 . S
C142 O150 1.253 . S
C142 O155 1.263 . S
H143 C139 0.931 . S
O144 Co129 2.262 . S
O144 Co141 2.097 . S
O144 C168 1.253 . S
O145 Co141 2.065 . S
O145 C161 1.221 . S
O146 Co141 2.065 . S
O146 C156 1.221 . S
O147 Co141 2.042 . S
O147 C162 1.237 . S
O148 Co129 1.958 . S
O148 C162 1.278 . S
O149 Co135 1.950 . S
O149 C161 1.277 . S
O150 Co135 2.262 . S
O150 Co141 2.097 . S
O150 C142 1.253 . S
O151 Co135 1.958 . S
O151 C169 1.278 . S
O152 Co129 1.950 . S
O152 C156 1.277 . S
O153 Co129 2.057 . S
O153 C168 1.263 . S
O154 Co141 2.042 . S
O154 C169 1.237 . S
O155 Co135 2.057 . S
O155 C142 1.263 . S
C156 O146 1.221 . S
C156 O152 1.277 . S
C157 C140 1.361 . S
C157 H158 0.960 . S
C157 H159 0.961 . S
C157 H160 0.961 . S
H158 C157 0.960 . S
H159 C157 0.961 . S
H160 C157 0.961 . S
C161 O145 1.221 . S
C161 O149 1.277 . S
C162 O147 1.237 . S
C162 O148 1.278 . S
H163 C131 0.931 . S
H164 C167 0.961 . S
H165 C167 0.961 . S
H166 C167 0.960 . S
C167 C133 1.361 . S
C167 H164 0.961 . S
C167 H165 0.961 . S
C167 H166 0.960 . S
C168 O144 1.253 . S
C168 O153 1.263 . S
C169 O151 1.278 . S
C169 O154 1.237 . S
H170 C134 0.930 . S
H171 C138 0.930 . S
C172 C173 1.386 . S
C172 C174 1.383 . S
C172 H188 0.951 . S
C173 C172 1.386 . S
C173 C177 1.383 . S
C174 C172 1.383 . S
C174 C175 1.402 . S
C174 H189 0.951 . S
C175 C174 1.402 . S
C175 C176 1.375 . S
C175 C178 1.481 . S
C176 C175 1.375 . S
C176 C177 1.367 . S
C176 H190 0.951 . S
C177 C173 1.383 . S
C177 C176 1.367 . S
C177 H191 0.950 . S
C178 C175 1.481 . S
C178 C179 1.297 . S
C178 H192 0.950 . S
C179 C178 1.297 . S
C179 C180 1.479 . S
C179 H193 0.950 . S
C180 C179 1.479 . S
C180 C181 1.375 . S
C180 C186 1.404 . S
C181 C180 1.375 . S
C181 C182 1.369 . S
C181 H194 0.950 . S
C182 C181 1.369 . S
C182 C183 1.392 . S
C182 H195 0.951 . S
C183 C182 1.392 . S
C183 C185 1.384 . S
H184 C186 0.949 . S
C185 C183 1.384 . S
C185 C186 1.385 . S
C185 H187 0.950 . S
C186 C180 1.404 . S
C186 H184 0.949 . S
C186 C185 1.385 . S
H187 C185 0.950 . S
H188 C172 0.951 . S
H189 C174 0.951 . S
H190 C176 0.951 . S
H191 C177 0.950 . S
H192 C178 0.950 . S
H193 C179 0.950 . S
H194 C181 0.950 . S
H195 C182 0.951 . S
C196 C197 1.386 . S
C196 C198 1.383 . S
C196 H212 0.951 . S
C197 C196 1.386 . S
C197 C201 1.383 . S
C198 C196 1.383 . S
C198 C199 1.402 . S
C198 H213 0.951 . S
C199 C198 1.402 . S
C199 C200 1.375 . S
C199 C202 1.481 . S
C200 C199 1.375 . S
C200 C201 1.367 . S
C200 H214 0.951 . S
C201 C197 1.383 . S
C201 C200 1.367 . S
C201 H215 0.950 . S
C202 C199 1.481 . S
C202 C203 1.297 . S
C202 H216 0.950 . S
C203 C202 1.297 . S
C203 C204 1.479 . S
C203 H217 0.950 . S
C204 C203 1.479 . S
C204 C205 1.375 . S
C204 C210 1.404 . S
C205 C204 1.375 . S
C205 C206 1.369 . S
C205 H218 0.950 . S
C206 C205 1.369 . S
C206 C207 1.392 . S
C206 H219 0.951 1_655 S
C207 C206 1.392 . S
C207 C209 1.384 . S
H208 C210 0.949 . S
C209 C207 1.384 . S
C209 C210 1.385 . S
C209 H211 0.950 . S
C210 C204 1.404 . S
C210 H208 0.949 . S
C210 C209 1.385 . S
H211 C209 0.950 . S
H212 C196 0.951 . S
H213 C198 0.951 . S
H214 C200 0.951 . S
H215 C201 0.950 . S
H216 C202 0.950 . S
H217 C203 0.950 . S
H218 C205 0.950 . S
H219 C206 0.951 1_455 S
C220 C221 1.386 . S
C220 C222 1.383 . S
C220 H236 0.951 . S
C221 C220 1.386 . S
C221 C225 1.383 . S
C222 C220 1.383 . S
C222 C223 1.402 . S
C222 H237 0.951 . S
C223 C222 1.402 . S
C223 C224 1.375 . S
C223 C226 1.481 . S
C224 C223 1.375 . S
C224 C225 1.367 . S
C224 H238 0.951 . S
C225 C221 1.383 . S
C225 C224 1.367 . S
C225 H239 0.950 . S
C226 C223 1.481 . S
C226 C227 1.297 . S
C226 H240 0.950 . S
C227 C226 1.297 . S
C227 C228 1.479 1_556 S
C227 H241 0.950 . S
C228 C227 1.479 1_554 S
C228 C229 1.375 . S
C228 C234 1.404 . S
C229 C228 1.375 . S
C229 C230 1.369 . S
C229 H242 0.950 1_554 S
C230 C229 1.369 . S
C230 C231 1.392 . S
C230 H243 0.951 . S
C231 C230 1.392 . S
C231 C233 1.384 . S
H232 C234 0.949 . S
C233 C231 1.384 . S
C233 C234 1.385 . S
C233 H235 0.950 . S
C234 C228 1.404 . S
C234 H232 0.949 . S
C234 C233 1.385 . S
H235 C233 0.950 . S
H236 C220 0.951 . S
H237 C222 0.951 . S
H238 C224 0.951 . S
H239 C225 0.950 . S
H240 C226 0.950 . S
H241 C227 0.950 . S
H242 C229 0.950 1_556 S
H243 C230 0.951 . S
C244 C245 1.386 . S
C244 C246 1.383 . S
C244 H260 0.951 . S
C245 C244 1.386 . S
C245 C249 1.383 . S
C246 C244 1.383 . S
C246 C247 1.402 . S
C246 H261 0.951 . S
C247 C246 1.402 . S
C247 C248 1.375 . S
C247 C250 1.481 . S
C248 C247 1.375 . S
C248 C249 1.367 . S
C248 H262 0.951 . S
C249 C245 1.383 . S
C249 C248 1.367 . S
C249 H263 0.950 . S
C250 C247 1.481 . S
C250 C251 1.297 . S
C250 H264 0.950 . S
C251 C250 1.297 . S
C251 C252 1.479 . S
C251 H265 0.950 . S
C252 C251 1.479 . S
C252 C253 1.375 . S
C252 C258 1.404 . S
C253 C252 1.375 . S
C253 C254 1.369 . S
C253 H266 0.950 . S
C254 C253 1.369 . S
C254 C255 1.392 . S
C254 H267 0.951 . S
C255 C254 1.392 . S
C255 C257 1.384 . S
H256 C258 0.949 . S
C257 C255 1.384 . S
C257 C258 1.385 . S
C257 H259 0.950 . S
C258 C252 1.404 . S
C258 H256 0.949 . S
C258 C257 1.385 . S
H259 C257 0.950 . S
H260 C244 0.951 . S
H261 C246 0.951 . S
H262 C248 0.951 . S
H263 C249 0.950 . S
H264 C250 0.950 . S
H265 C251 0.950 . S
H266 C253 0.950 . S
H267 C254 0.951 . S
C268 C269 1.386 . S
C268 C270 1.383 . S
C268 H284 0.951 . S
C269 C268 1.386 . S
C269 C273 1.383 . S
C270 C268 1.383 . S
C270 C271 1.402 . S
C270 H285 0.951 . S
C271 C270 1.402 . S
C271 C272 1.375 . S
C271 C274 1.481 . S
C272 C271 1.375 . S
C272 C273 1.367 . S
C272 H286 0.951 . S
C273 C269 1.383 . S
C273 C272 1.367 . S
C273 H287 0.950 . S
C274 C271 1.481 . S
C274 C275 1.297 . S
C274 H288 0.950 . S
C275 C274 1.297 . S
C275 C276 1.479 . S
C275 H289 0.950 . S
C276 C275 1.479 . S
C276 C277 1.375 . S
C276 C282 1.404 . S
C277 C276 1.375 . S
C277 C278 1.369 . S
C277 H290 0.950 . S
C278 C277 1.369 . S
C278 C279 1.392 . S
C278 H291 0.951 . S
C279 C278 1.392 . S
C279 C281 1.384 . S
H280 C282 0.949 . S
C281 C279 1.384 . S
C281 C282 1.385 . S
C281 H283 0.950 . S
C282 C276 1.404 . S
C282 H280 0.949 . S
C282 C281 1.385 . S
H283 C281 0.950 . S
H284 C268 0.951 . S
H285 C270 0.951 . S
H286 C272 0.951 . S
H287 C273 0.950 . S
H288 C274 0.950 . S
H289 C275 0.950 . S
H290 C277 0.950 . S
H291 C278 0.951 . S
C292 C293 1.386 . S
C292 C294 1.383 . S
C292 H308 0.951 . S
C293 C292 1.386 . S
C293 C297 1.383 . S
C294 C292 1.383 . S
C294 C295 1.402 . S
C294 H309 0.951 . S
C295 C294 1.402 . S
C295 C296 1.375 . S
C295 C298 1.481 . S
C296 C295 1.375 . S
C296 C297 1.367 . S
C296 H310 0.951 . S
C297 C293 1.383 . S
C297 C296 1.367 . S
C297 H311 0.950 . S
C298 C295 1.481 . S
C298 C299 1.297 . S
C298 H312 0.950 . S
C299 C298 1.297 . S
C299 C300 1.479 . S
C299 H313 0.950 . S
C300 C299 1.479 . S
C300 C301 1.375 . S
C300 C306 1.404 . S
C301 C300 1.375 . S
C301 C302 1.369 . S
C301 H314 0.950 . S
C302 C301 1.369 . S
C302 C303 1.392 . S
C302 H315 0.951 . S
C303 C302 1.392 . S
C303 C305 1.384 . S
H304 C306 0.949 . S
C305 C303 1.384 . S
C305 C306 1.385 . S
C305 H307 0.950 . S
C306 C300 1.404 . S
C306 H304 0.949 . S
C306 C305 1.385 . S
H307 C305 0.950 . S
H308 C292 0.951 . S
H309 C294 0.951 . S
H310 C296 0.951 . S
H311 C297 0.950 . S
H312 C298 0.950 . S
H313 C299 0.950 . S
H314 C301 0.950 . S
H315 C302 0.951 . S
C316 C317 1.386 . S
C316 C318 1.383 1_565 S
C316 H332 0.951 . S
C317 C316 1.386 . S
C317 C321 1.383 1_565 S
C318 C316 1.383 1_545 S
C318 C319 1.402 . S
C318 H333 0.951 . S
C319 C318 1.402 . S
C319 C320 1.375 . S
C319 C322 1.481 1_556 S
C320 C319 1.375 . S
C320 C321 1.367 . S
C320 H334 0.951 . S
C321 C317 1.383 1_545 S
C321 C320 1.367 . S
C321 H335 0.950 . S
C322 C319 1.481 1_554 S
C322 C323 1.297 . S
C322 H336 0.950 . S
C323 C322 1.297 . S
C323 C324 1.479 . S
C323 H337 0.950 . S
C324 C323 1.479 . S
C324 C325 1.375 . S
C324 C330 1.404 . S
C325 C324 1.375 . S
C325 C326 1.369 . S
C325 H338 0.950 . S
C326 C325 1.369 . S
C326 C327 1.392 . S
C326 H339 0.951 . S
C327 C326 1.392 . S
C327 C329 1.384 . S
H328 C330 0.949 . S
C329 C327 1.384 . S
C329 C330 1.385 . S
C329 H331 0.950 . S
C330 C324 1.404 . S
C330 H328 0.949 . S
C330 C329 1.385 . S
H331 C329 0.950 . S
H332 C316 0.951 . S
H333 C318 0.951 . S
H334 C320 0.951 . S
H335 C321 0.950 . S
H336 C322 0.950 . S
H337 C323 0.950 . S
H338 C325 0.950 . S
H339 C326 0.951 . S
C340 C341 1.386 . S
C340 C342 1.383 . S
C340 H356 0.951 . S
C341 C340 1.386 . S
C341 C345 1.383 . S
C342 C340 1.383 . S
C342 C343 1.402 . S
C342 H357 0.951 1_545 S
C343 C342 1.402 . S
C343 C344 1.375 . S
C343 C346 1.481 1_545 S
C344 C343 1.375 . S
C344 C345 1.367 . S
C344 H358 0.951 . S
C345 C341 1.383 . S
C345 C344 1.367 . S
C345 H359 0.950 . S
C346 C343 1.481 1_565 S
C346 C347 1.297 . S
C346 H360 0.950 1_565 S
C347 C346 1.297 . S
C347 C348 1.479 . S
C347 H361 0.950 . S
C348 C347 1.479 . S
C348 C349 1.375 . S
C348 C354 1.404 . S
C349 C348 1.375 . S
C349 C350 1.369 . S
C349 H362 0.950 . S
C350 C349 1.369 . S
C350 C351 1.392 . S
C350 H363 0.951 . S
C351 C350 1.392 . S
C351 C353 1.384 . S
H352 C354 0.949 . S
C353 C351 1.384 . S
C353 C354 1.385 . S
C353 H355 0.950 . S
C354 C348 1.404 . S
C354 H352 0.949 . S
C354 C353 1.385 . S
H355 C353 0.950 . S
H356 C340 0.951 . S
H357 C342 0.951 1_565 S
H358 C344 0.951 . S
H359 C345 0.950 . S
H360 C346 0.950 1_545 S
H361 C347 0.950 . S
H362 C349 0.950 . S
H363 C350 0.951 . S
C364 C365 1.386 1_655 S
C364 C366 1.383 1_645 S
C364 H380 0.951 . S
C365 C364 1.386 1_455 S
C365 C369 1.383 . S
C366 C364 1.383 1_465 S
C366 C367 1.402 . S
C366 H381 0.951 1_455 S
C367 C366 1.402 . S
C367 C368 1.375 . S
C367 C370 1.481 . S
C368 C367 1.375 . S
C368 C369 1.367 1_565 S
C368 H382 0.951 . S
C369 C365 1.383 . S
C369 C368 1.367 1_545 S
C369 H383 0.950 . S
C370 C367 1.481 . S
C370 C371 1.297 . S
C370 H384 0.950 . S
C371 C370 1.297 . S
C371 C372 1.479 . S
C371 H385 0.950 1_455 S
C372 C371 1.479 . S
C372 C373 1.375 1_455 S
C372 C378 1.404 . S
C373 C372 1.375 1_655 S
C373 C374 1.369 . S
C373 H386 0.950 . S
C374 C373 1.369 . S
C374 C375 1.392 1_655 S
C374 H387 0.951 . S
C375 C374 1.392 1_455 S
C375 C377 1.384 . S
H376 C378 0.949 . S
C377 C375 1.384 . S
C377 C378 1.385 . S
C377 H379 0.950 . S
C378 C372 1.404 . S
C378 H376 0.949 . S
C378 C377 1.385 . S
H379 C377 0.950 . S
H380 C364 0.951 . S
H381 C366 0.951 1_655 S
H382 C368 0.951 . S
H383 C369 0.950 . S
H384 C370 0.950 . S
H385 C371 0.950 1_655 S
H386 C373 0.950 . S
H387 C374 0.951 . S
C388 C389 1.386 . S
C388 C390 1.383 . S
C388 H404 0.951 . S
C389 C388 1.386 . S
C389 C393 1.383 . S
C390 C388 1.383 . S
C390 C391 1.402 . S
C390 H405 0.951 . S
C391 C390 1.402 . S
C391 C392 1.375 . S
C391 C394 1.481 . S
C392 C391 1.375 . S
C392 C393 1.367 . S
C392 H406 0.951 . S
C393 C389 1.383 . S
C393 C392 1.367 . S
C393 H407 0.950 . S
C394 C391 1.481 . S
C394 C395 1.297 . S
C394 H408 0.950 . S
C395 C394 1.297 . S
C395 C396 1.479 . S
C395 H409 0.950 . S
C396 C395 1.479 . S
C396 C397 1.375 . S
C396 C402 1.404 . S
C397 C396 1.375 . S
C397 C398 1.369 . S
C397 H410 0.950 . S
C398 C397 1.369 . S
C398 C399 1.392 . S
C398 H411 0.951 . S
C399 C398 1.392 . S
C399 C401 1.384 . S
H400 C402 0.949 . S
C401 C399 1.384 . S
C401 C402 1.385 . S
C401 H403 0.950 . S
C402 C396 1.404 . S
C402 H400 0.949 . S
C402 C401 1.385 . S
H403 C401 0.950 . S
H404 C388 0.951 . S
H405 C390 0.951 . S
H406 C392 0.951 . S
H407 C393 0.950 . S
H408 C394 0.950 . S
H409 C395 0.950 . S
H410 C397 0.950 . S
H411 C398 0.951 . S
C412 C413 1.386 . S
C412 C414 1.383 . S
C412 H428 0.951 . S
C413 C412 1.386 . S
C413 C417 1.383 . S
C414 C412 1.383 . S
C414 C415 1.402 . S
C414 H429 0.951 . S
C415 C414 1.402 . S
C415 C416 1.375 . S
C415 C418 1.481 . S
C416 C415 1.375 . S
C416 C417 1.367 . S
C416 H430 0.951 . S
C417 C413 1.383 . S
C417 C416 1.367 . S
C417 H431 0.950 . S
C418 C415 1.481 . S
C418 C419 1.297 . S
C418 H432 0.950 . S
C419 C418 1.297 . S
C419 C420 1.479 . S
C419 H433 0.950 . S
C420 C419 1.479 . S
C420 C421 1.375 . S
C420 C426 1.404 . S
C421 C420 1.375 . S
C421 C422 1.369 1_545 S
C421 H434 0.950 . S
C422 C421 1.369 1_565 S
C422 C423 1.392 . S
C422 H435 0.951 . S
C423 C422 1.392 . S
C423 C425 1.384 . S
H424 C426 0.949 . S
C425 C423 1.384 . S
C425 C426 1.385 1_565 S
C425 H427 0.950 . S
C426 C420 1.404 . S
C426 H424 0.949 . S
C426 C425 1.385 1_545 S
H427 C425 0.950 . S
H428 C412 0.951 . S
H429 C414 0.951 . S
H430 C416 0.951 . S
H431 C417 0.950 . S
H432 C418 0.950 . S
H433 C419 0.950 . S
H434 C421 0.950 . S
H435 C422 0.951 . S
C436 C437 1.386 . S
C436 C438 1.391 . S
C436 H452 0.951 . S
C437 C436 1.386 . S
C437 C441 1.383 . S
C438 C436 1.391 . S
C438 C439 1.398 1_455 S
C438 H453 0.946 1_455 S
C439 C438 1.398 1_655 S
C439 C440 1.375 1_655 S
C439 C442 1.481 . S
C440 C439 1.375 1_455 S
C440 C441 1.367 . S
C440 H454 0.951 1_455 S
C441 C437 1.383 . S
C441 C440 1.367 . S
C441 H455 0.950 . S
C442 C439 1.481 . S
C442 C443 1.297 . S
C442 H456 0.950 . S
C443 C442 1.297 . S
C443 C444 1.479 . S
C443 H457 0.950 . S
C444 C443 1.479 . S
C444 C445 1.375 . S
C444 C450 1.404 . S
C445 C444 1.375 . S
C445 C446 1.369 . S
C445 H458 0.950 . S
C446 C445 1.369 . S
C446 C447 1.392 . S
C446 H459 0.951 . S
C447 C446 1.392 . S
C447 C449 1.384 . S
H448 C450 0.949 . S
C449 C447 1.384 . S
C449 C450 1.385 . S
C449 H451 0.950 . S
C450 C444 1.404 . S
C450 H448 0.949 . S
C450 C449 1.385 . S
H451 C449 0.950 . S
H452 C436 0.951 . S
H453 C438 0.946 1_655 S
H454 C440 0.951 1_655 S
H455 C441 0.950 . S
H456 C442 0.950 . S
H457 C443 0.950 . S
H458 C445 0.950 . S
H459 C446 0.951 . S
C460 C461 1.386 . S
C460 C462 1.383 . S
C460 H476 0.951 . S
C461 C460 1.386 . S
C461 C465 1.383 . S
C462 C460 1.383 . S
C462 C463 1.402 . S
C462 H477 0.951 . S
C463 C462 1.402 . S
C463 C464 1.375 . S
C463 C466 1.481 1_565 S
C464 C463 1.375 . S
C464 C465 1.367 . S
C464 H478 0.951 . S
C465 C461 1.383 . S
C465 C464 1.367 . S
C465 H479 0.950 . S
C466 C463 1.481 1_545 S
C466 C467 1.297 . S
C466 H480 0.950 . S
C467 C466 1.297 . S
C467 C468 1.479 . S
C467 H481 0.950 . S
C468 C467 1.479 . S
C468 C469 1.375 . S
C468 C474 1.404 . S
C469 C468 1.375 . S
C469 C470 1.369 . S
C469 H482 0.950 . S
C470 C469 1.369 . S
C470 C471 1.392 . S
C470 H483 0.951 . S
C471 C470 1.392 . S
C471 C473 1.384 . S
H472 C474 0.949 . S
C473 C471 1.384 . S
C473 C474 1.385 . S
C473 H475 0.950 . S
C474 C468 1.404 . S
C474 H472 0.949 . S
C474 C473 1.385 . S
H475 C473 0.950 . S
H476 C460 0.951 . S
H477 C462 0.951 . S
H478 C464 0.951 . S
H479 C465 0.950 . S
H480 C466 0.950 . S
H481 C467 0.950 . S
H482 C469 0.950 . S
H483 C470 0.951 . S
C484 C485 1.386 . S
C484 C486 1.383 . S
C484 H500 0.951 . S
C485 C484 1.386 . S
C485 C489 1.383 . S
C486 C484 1.383 . S
C486 C487 1.402 . S
C486 H501 0.951 . S
C487 C486 1.402 . S
C487 C488 1.375 . S
C487 C490 1.481 . S
C488 C487 1.375 . S
C488 C489 1.367 . S
C488 H502 0.951 . S
C489 C485 1.383 . S
C489 C488 1.367 . S
C489 H503 0.950 . S
C490 C487 1.481 . S
C490 C491 1.297 . S
C490 H504 0.950 . S
C491 C490 1.297 . S
C491 C492 1.479 1_655 S
C491 H505 0.950 . S
C492 C491 1.479 1_455 S
C492 C493 1.375 . S
C492 C498 1.404 . S
C493 C492 1.375 . S
C493 C494 1.369 . S
C493 H506 0.950 . S
C494 C493 1.369 . S
C494 C495 1.392 . S
C494 H507 0.951 . S
C495 C494 1.392 . S
C495 C497 1.384 . S
H496 C498 0.949 . S
C497 C495 1.384 . S
C497 C498 1.385 . S
C497 H499 0.950 . S
C498 C492 1.404 . S
C498 H496 0.949 . S
C498 C497 1.385 . S
H499 C497 0.950 . S
H500 C484 0.951 . S
H501 C486 0.951 . S
H502 C488 0.951 . S
H503 C489 0.950 . S
H504 C490 0.950 . S
H505 C491 0.950 . S
H506 C493 0.950 . S
H507 C494 0.951 . S
C508 C509 1.386 . S
C508 C510 1.383 . S
C508 H524 0.951 . S
C509 C508 1.386 . S
C509 C513 1.383 . S
C510 C508 1.383 . S
C510 C511 1.402 . S
C510 H525 0.951 . S
C511 C510 1.402 . S
C511 C512 1.375 . S
C511 C514 1.481 . S
C512 C511 1.375 . S
C512 C513 1.367 . S
C512 H526 0.951 . S
C513 C509 1.383 . S
C513 C512 1.367 . S
C513 H527 0.950 . S
C514 C511 1.481 . S
C514 C515 1.297 . S
C514 H528 0.950 . S
C515 C514 1.297 . S
C515 C516 1.479 1_565 S
C515 H529 0.950 . S
C516 C515 1.479 1_545 S
C516 C517 1.375 . S
C516 C522 1.404 . S
C517 C516 1.375 . S
C517 C518 1.369 . S
C517 H530 0.950 . S
C518 C517 1.369 . S
C518 C519 1.392 . S
C518 H531 0.951 . S
C519 C518 1.392 . S
C519 C521 1.384 . S
H520 C522 0.949 . S
C521 C519 1.384 . S
C521 C522 1.385 . S
C521 H523 0.950 . S
C522 C516 1.404 . S
C522 H520 0.949 . S
C522 C521 1.385 . S
H523 C521 0.950 . S
H524 C508 0.951 . S
H525 C510 0.951 . S
H526 C512 0.951 . S
H527 C513 0.950 . S
H528 C514 0.950 . S
H529 C515 0.950 . S
H530 C517 0.950 . S
H531 C518 0.951 . S
C532 C533 1.386 . S
C532 C534 1.383 . S
C532 H548 0.951 . S
C533 C532 1.386 . S
C533 C537 1.383 . S
C534 C532 1.383 . S
C534 C535 1.402 . S
C534 H549 0.951 . S
C535 C534 1.402 . S
C535 C536 1.375 . S
C535 C538 1.481 . S
C536 C535 1.375 . S
C536 C537 1.367 . S
C536 H550 0.951 . S
C537 C533 1.383 . S
C537 C536 1.367 . S
C537 H551 0.950 . S
C538 C535 1.481 . S
C538 C539 1.297 . S
C538 H552 0.950 . S
C539 C538 1.297 . S
C539 C540 1.479 . S
C539 H553 0.950 . S
C540 C539 1.479 . S
C540 C541 1.375 . S
C540 C546 1.404 . S
C541 C540 1.375 . S
C541 C542 1.369 . S
C541 H554 0.950 . S
C542 C541 1.369 . S
C542 C543 1.392 . S
C542 H555 0.951 . S
C543 C542 1.392 . S
C543 C545 1.384 . S
H544 C546 0.949 . S
C545 C543 1.384 . S
C545 C546 1.385 . S
C545 H547 0.950 . S
C546 C540 1.404 . S
C546 H544 0.949 . S
C546 C545 1.385 . S
H547 C545 0.950 . S
H548 C532 0.951 . S
H549 C534 0.951 . S
H550 C536 0.951 . S
H551 C537 0.950 . S
H552 C538 0.950 . S
H553 C539 0.950 . S
H554 C541 0.950 . S
H555 C542 0.951 . S
C173 C39 1.762 . S
C183 C56 1.684 . S
C197 N94 1.525 . S
C207 N46 1.508 1_655 S
C221 C125 1.356 . S
C231 N137 1.557 . S
C245 N8 1.758 . S
C255 C168 1.446 . S
C269 N132 1.569 . S
C279 C13 1.303 . S
C293 C82 1.797 . S
C303 C99 1.698 . S
C317 N89 1.764 . S
C327 C142 1.545 . S
C341 N3 1.530 . S
C351 N51 1.477 . S
C365 C27 1.326 . S
C375 C40 1.258 . S
C389 C83 1.353 . S
C399 C70 1.269 1_655 S
C413 C126 1.455 . S
C423 C113 1.436 . S
C437 C156 1.396 . S
C447 C169 1.410 . S
C461 C75 1.344 . S
C471 C76 1.273 . S
C485 C118 1.307 . S
C495 C119 1.275 . S
C509 C161 1.393 . S
C519 C162 1.334 . S
C533 C32 1.448 . S
C543 C33 1.438 . S
