# Generated by pormake.
# Topology lcy-e, (6)-cn, num edge types: 1
# Building blocks:
#     Node 0, Type 0, BuildingBlock: CUWYAW_clean_sbu_0, # of connection points: 6
#     Node 1, Type 0, BuildingBlock: CUWYAW_clean_sbu_0, # of connection points: 6
#     Node 2, Type 0, BuildingBlock: CUWYAW_clean_sbu_0, # of connection points: 6
#     Node 3, Type 0, BuildingBlock: CUWYAW_clean_sbu_0, # of connection points: 6
#     Node 4, Type 0, BuildingBlock: CUWYAW_clean_sbu_0, # of connection points: 6
#     Node 5, Type 0, BuildingBlock: CUWYAW_clean_sbu_0, # of connection points: 6
#     Node 6, Type 0, BuildingBlock: CUWYAW_clean_sbu_0, # of connection points: 6
#     Node 7, Type 0, BuildingBlock: CUWYAW_clean_sbu_0, # of connection points: 6
#     Node 8, Type 0, BuildingBlock: CUWYAW_clean_sbu_0, # of connection points: 6
#     Node 9, Type 0, BuildingBlock: CUWYAW_clean_sbu_0, # of connection points: 6
#     Node 10, Type 0, BuildingBlock: CUWYAW_clean_sbu_0, # of connection points: 6
#     Node 11, Type 0, BuildingBlock: CUWYAW_clean_sbu_0, # of connection points: 6
#     Edge 12, Type (0, 0), BuildingBlock: CIFDUS_clean_linker_0, # of connection points: 2
#     Edge 13, Type (0, 0), BuildingBlock: CIFDUS_clean_linker_0, # of connection points: 2
#     Edge 14, Type (0, 0), BuildingBlock: CIFDUS_clean_linker_0, # of connection points: 2
#     Edge 15, Type (0, 0), BuildingBlock: CIFDUS_clean_linker_0, # of connection points: 2
#     Edge 16, Type (0, 0), BuildingBlock: CIFDUS_clean_linker_0, # of connection points: 2
#     Edge 17, Type (0, 0), BuildingBlock: CIFDUS_clean_linker_0, # of connection points: 2
#     Edge 18, Type (0, 0), BuildingBlock: CIFDUS_clean_linker_0, # of connection points: 2
#     Edge 19, Type (0, 0), BuildingBlock: CIFDUS_clean_linker_0, # of connection points: 2
#     Edge 20, Type (0, 0), BuildingBlock: CIFDUS_clean_linker_0, # of connection points: 2
#     Edge 21, Type (0, 0), BuildingBlock: CIFDUS_clean_linker_0, # of connection points: 2
#     Edge 22, Type (0, 0), BuildingBlock: CIFDUS_clean_linker_0, # of connection points: 2
#     Edge 23, Type (0, 0), BuildingBlock: CIFDUS_clean_linker_0, # of connection points: 2
#     Edge 24, Type (0, 0), BuildingBlock: CIFDUS_clean_linker_0, # of connection points: 2
#     Edge 25, Type (0, 0), BuildingBlock: CIFDUS_clean_linker_0, # of connection points: 2
#     Edge 26, Type (0, 0), BuildingBlock: CIFDUS_clean_linker_0, # of connection points: 2
#     Edge 27, Type (0, 0), BuildingBlock: CIFDUS_clean_linker_0, # of connection points: 2
#     Edge 28, Type (0, 0), BuildingBlock: CIFDUS_clean_linker_0, # of connection points: 2
#     Edge 29, Type (0, 0), BuildingBlock: CIFDUS_clean_linker_0, # of connection points: 2
#     Edge 30, Type (0, 0), BuildingBlock: CIFDUS_clean_linker_0, # of connection points: 2
#     Edge 31, Type (0, 0), BuildingBlock: CIFDUS_clean_linker_0, # of connection points: 2
#     Edge 32, Type (0, 0), BuildingBlock: CIFDUS_clean_linker_0, # of connection points: 2
#     Edge 33, Type (0, 0), BuildingBlock: CIFDUS_clean_linker_0, # of connection points: 2
#     Edge 34, Type (0, 0), BuildingBlock: CIFDUS_clean_linker_0, # of connection points: 2
#     Edge 35, Type (0, 0), BuildingBlock: CIFDUS_clean_linker_0, # of connection points: 2
#     Edge 36, Type (0, 0), BuildingBlock: CIFDUS_clean_linker_0, # of connection points: 2
#     Edge 37, Type (0, 0), BuildingBlock: CIFDUS_clean_linker_0, # of connection points: 2
#     Edge 38, Type (0, 0), BuildingBlock: CIFDUS_clean_linker_0, # of connection points: 2
#     Edge 39, Type (0, 0), BuildingBlock: CIFDUS_clean_linker_0, # of connection points: 2
#     Edge 40, Type (0, 0), BuildingBlock: CIFDUS_clean_linker_0, # of connection points: 2
#     Edge 41, Type (0, 0), BuildingBlock: CIFDUS_clean_linker_0, # of connection points: 2
#     Edge 42, Type (0, 0), BuildingBlock: CIFDUS_clean_linker_0, # of connection points: 2
#     Edge 43, Type (0, 0), BuildingBlock: CIFDUS_clean_linker_0, # of connection points: 2
#     Edge 44, Type (0, 0), BuildingBlock: CIFDUS_clean_linker_0, # of connection points: 2
#     Edge 45, Type (0, 0), BuildingBlock: CIFDUS_clean_linker_0, # of connection points: 2
#     Edge 46, Type (0, 0), BuildingBlock: CIFDUS_clean_linker_0, # of connection points: 2
#     Edge 47, Type (0, 0), BuildingBlock: CIFDUS_clean_linker_0, # of connection points: 2
# Relax obj value: 0.183
# Max RMSD: 0.291
# Mean RMSD: 0.274
data_MOF--net-lcy-e--node1-CUWYAW_clean_sbu_0--edge1-CIFDUS_clean_linker_0
_symmetry_space_group_name_H-M    P1
_symmetry_Int_Tables_number       1
_symmetry_cell_setting            triclinic
loop_
_symmetry_equiv_pos_as_xyz
'x, y, z'
_cell_length_a     37.89223
_cell_length_b     40.491462
_cell_length_c     40.50366
_cell_angle_alpha  91.338883
_cell_angle_beta   90.20382
_cell_angle_gamma 88.393686
loop_
_atom_site_label
_atom_site_type_symbol
_atom_site_fract_x
_atom_site_fract_y
_atom_site_fract_z
_atom_type_partial_charge
C0 C 0.12265 0.33204 0.45338 0.0
Eu1 Eu 0.13313 0.30517 0.5105 0.0
C2 C 0.14221 0.34468 0.42522 0.0
C3 C 0.12574 0.34514 0.39425 0.0
C4 C 0.14284 0.35796 0.36712 0.0
C5 C 0.17684 0.37082 0.37039 0.0
C6 C 0.19382 0.36936 0.40135 0.0
C7 C 0.17663 0.35636 0.42859 0.0
C8 C 0.10551 0.31741 0.57179 0.0
C9 C 0.19437 0.32329 0.5598 0.0
C10 C 0.14959 0.21674 0.61793 0.0
Eu11 Eu 0.15497 0.25326 0.56626 0.0
C12 C 0.13741 0.18303 0.62401 0.0
C13 C 0.15956 0.16014 0.64001 0.0
C14 C 0.14714 0.12916 0.64821 0.0
C15 C 0.11206 0.12062 0.64104 0.0
C16 C 0.09037 0.14322 0.62395 0.0
C17 C 0.10294 0.17393 0.61536 0.0
C18 C 0.19761 0.24429 0.51238 0.0
C19 C 0.09078 0.23615 0.51528 0.0
O20 O 0.12475 0.30005 0.45743 0.0
O21 O 0.12372 0.34907 0.48129 0.0
O22 O 0.10957 0.34048 0.55039 0.0
O23 O 0.11206 0.28968 0.558 0.0
O24 O 0.18587 0.32271 0.5281 0.0
O25 O 0.18243 0.30125 0.58059 0.0
O26 O 0.12521 0.23795 0.60851 0.0
O27 O 0.17937 0.2196 0.60201 0.0
O28 O 0.20027 0.22688 0.53885 0.0
O29 O 0.17222 0.26481 0.51616 0.0
O30 O 0.11444 0.22471 0.53666 0.0
O31 O 0.09126 0.26663 0.50405 0.0
H32 H 0.09936 0.33585 0.3911 0.0
H33 H 0.12926 0.358 0.34355 0.0
H34 H 0.21992 0.37915 0.40476 0.0
H35 H 0.18993 0.35589 0.4523 0.0
H36 H 0.18629 0.16644 0.64671 0.0
H37 H 0.16492 0.11212 0.66065 0.0
H38 H 0.06317 0.13783 0.61826 0.0
H39 H 0.08515 0.19086 0.60274 0.0
C40 C 0.11664 0.90447 0.81914 0.0
Eu41 Eu 0.05227 0.90949 0.79674 0.0
C42 C 0.1403 0.88468 0.84018 0.0
C43 C 0.12785 0.8691 0.86825 0.0
C44 C 0.15171 0.85421 0.89014 0.0
C45 C 0.18833 0.85467 0.88429 0.0
C46 C 0.20039 0.86853 0.85507 0.0
C47 C 0.17653 0.88346 0.83325 0.0
C48 C 0.99521 0.94411 0.82029 0.0
C49 C 0.99176 0.86245 0.81541 0.0
C50 C 0.92743 0.9142 0.71929 0.0
Eu51 Eu 0.98769 0.91046 0.7505 0.0
C52 C 0.91358 0.92961 0.68868 0.0
C53 C 0.91052 0.91083 0.65917 0.0
C54 C 0.89574 0.92489 0.63079 0.0
C55 C 0.88336 0.95797 0.63135 0.0
C56 C 0.88723 0.97692 0.66064 0.0
C57 C 0.90204 0.96294 0.68894 0.0
C58 C 0.04413 0.87296 0.72972 0.0
C59 C 0.04628 0.96397 0.73817 0.0
O60 O 0.10657 0.89083 0.79116 0.0
O61 O 0.09151 0.9221 0.83384 0.0
O62 O 0.01781 0.92841 0.83893 0.0
O63 O 1.00585 0.94332 0.7907 0.0
O64 O 0.02632 0.86547 0.81625 0.0
O65 O 0.97138 0.87892 0.79417 0.0
O66 O 0.9359 0.93412 0.74381 0.0
O67 O 0.94986 0.8892 0.71576 0.0
O68 O 0.02476 0.89094 0.71024 0.0
O69 O 0.03226 0.87504 0.75865 0.0
O70 O 0.01348 0.95583 0.7314 0.0
O71 O 0.06591 0.948 0.7599 0.0
H72 H 0.0999 0.86949 0.87383 0.0
H73 H 0.14162 0.84333 0.91226 0.0
H74 H 0.22838 0.86956 0.84999 0.0
H75 H 0.18655 0.8953 0.81161 0.0
H76 H 0.9189 0.88504 0.65817 0.0
H77 H 0.89273 0.90946 0.60881 0.0
H78 H 0.87829 1.00256 0.66186 0.0
H79 H 0.90387 0.9782 0.71117 0.0
C80 C 0.4121 0.71098 0.93903 0.0
Eu81 Eu 0.40829 0.74307 0.99543 0.0
C82 C 0.39136 0.6971 0.91126 0.0
C83 C 0.39717 0.70879 0.87943 0.0
C84 C 0.38059 0.69452 0.852 0.0
C85 C 0.35786 0.66804 0.85567 0.0
C86 C 0.35119 0.65691 0.8877 0.0
C87 C 0.36786 0.67126 0.91526 0.0
C88 C 0.44419 0.73476 0.0532 0.0
C89 C 0.34491 0.72171 0.04353 0.0
C90 C 0.39072 0.81962 0.11592 0.0
Eu91 Eu 0.38617 0.79001 0.05856 0.0
C92 C 0.39744 0.8536 0.12849 0.0
C93 C 0.37071 0.87842 0.12918 0.0
C94 C 0.37791 0.91042 0.14075 0.0
C95 C 0.41198 0.91831 0.15181 0.0
C96 C 0.43856 0.89341 0.1513 0.0
C97 C 0.43134 0.86144 0.13996 0.0
C98 C 0.34813 0.80694 1.00412 0.0
C99 C 0.44857 0.81138 1.00733 0.0
O100 O 0.4123 0.74327 0.94194 0.0
O101 O 0.41192 0.69625 0.96758 0.0
O102 O 0.45879 0.72872 0.02454 0.0
O103 O 0.41231 0.74199 0.04918 0.0
O104 O 0.35816 0.72035 1.01321 0.0
O105 O 0.3539 0.74429 0.06626 0.0
O106 O 0.41748 0.80427 0.10118 0.0
O107 O 0.36037 0.8142 0.10115 0.0
O108 O 0.34423 0.82145 0.03292 0.0
O109 O 0.3727 0.78552 1.0062 0.0
O110 O 0.43291 0.81592 0.0364 0.0
O111 O 0.44096 0.78702 0.98654 0.0
H112 H 0.41522 0.72864 0.87566 0.0
H113 H 0.38588 0.70405 0.8278 0.0
H114 H 0.33402 0.63639 0.89137 0.0
H115 H 0.36292 0.66167 0.9395 0.0
H116 H 0.34426 0.87322 0.1207 0.0
H117 H 0.35687 0.92908 0.14074 0.0
H118 H 0.46488 0.89846 0.16024 0.0
H119 H 0.45241 0.8428 0.14017 0.0
C120 C 0.42286 0.14491 0.31668 0.0
Eu121 Eu 0.48154 0.13783 0.28304 0.0
C122 C 0.40042 0.16634 0.33869 0.0
C123 C 0.36408 0.1695 0.33201 0.0
C124 C 0.34095 0.18444 0.3552 0.0
C125 C 0.35369 0.19636 0.38573 0.0
C126 C 0.39043 0.19508 0.39145 0.0
C127 C 0.41355 0.1802 0.36822 0.0
C128 C 0.53883 0.09741 0.2974 0.0
C129 C 0.5389 0.18951 0.30568 0.0
C130 C 0.60508 0.13653 0.20639 0.0
Eu131 Eu 0.54694 0.14494 0.24026 0.0
C132 C 0.61663 0.13163 0.17182 0.0
C133 C 0.64693 0.14736 0.1613 0.0
C134 C 0.65907 0.14277 0.12895 0.0
C135 C 0.64118 0.12223 0.10634 0.0
C136 C 0.61068 0.10652 0.11691 0.0
C137 C 0.5984 0.11128 0.14934 0.0
C138 C 0.49539 0.19 0.22755 0.0
C139 C 0.48862 0.08843 0.22122 0.0
O140 O 0.42547 0.15261 0.28561 0.0
O141 O 0.45228 0.13233 0.32865 0.0
O142 O 0.50639 0.08834 0.30041 0.0
O143 O 0.5388 0.127 0.28956 0.0
O144 O 0.50471 0.18563 0.30186 0.0
O145 O 0.56185 0.17061 0.28867 0.0
O146 O 0.58843 0.11233 0.21977 0.0
O147 O 0.59145 0.16561 0.21447 0.0
O148 O 0.52881 0.19496 0.22477 0.0
O149 O 0.48997 0.15995 0.23363 0.0
O150 O 0.5203 0.10047 0.21635 0.0
O151 O 0.46703 0.10084 0.24398 0.0
H152 H 0.35327 0.15887 0.30948 0.0
H153 H 0.31288 0.18475 0.35005 0.0
H154 H 0.40121 0.20447 0.41452 0.0
H155 H 0.44146 0.17832 0.37403 0.0
H156 H 0.66143 0.16305 0.17827 0.0
H157 H 0.68294 0.15484 0.12183 0.0
H158 H 0.59615 0.09077 0.10004 0.0
H159 H 0.5748 0.099 0.15683 0.0
C160 C 0.62931 0.36642 0.49275 0.0
Eu161 Eu 0.63276 0.30674 0.51567 0.0
C162 C 0.60979 0.39079 0.47245 0.0
C163 C 0.60767 0.38716 0.43793 0.0
C164 C 0.59468 0.41325 0.41889 0.0
C165 C 0.58372 0.44354 0.43393 0.0
C166 C 0.58393 0.44635 0.46856 0.0
C167 C 0.59694 0.42028 0.48759 0.0
C168 C 0.68076 0.25711 0.50158 0.0
C169 C 0.59134 0.24744 0.48739 0.0
C170 C 0.63434 0.18894 0.58752 0.0
Eu171 Eu 0.63071 0.24643 0.55993 0.0
C172 C 0.64334 0.17664 0.62044 0.0
C173 C 0.65848 0.19733 0.64459 0.0
C174 C 0.66678 0.18524 0.67588 0.0
C175 C 0.65985 0.15233 0.68356 0.0
C176 C 0.64476 0.13178 0.65912 0.0
C177 C 0.63659 0.14384 0.62788 0.0
C178 C 0.58334 0.29554 0.57477 0.0
C179 C 0.67461 0.30697 0.58693 0.0
O180 O 0.61526 0.35837 0.52081 0.0
O181 O 0.64639 0.34172 0.47796 0.0
O182 O 0.66513 0.27481 0.47923 0.0
O183 O 0.67178 0.26785 0.52978 0.0
O184 O 0.5902 0.27999 0.48931 0.0
O185 O 0.60862 0.22963 0.50972 0.0
O186 O 0.66031 0.20114 0.57091 0.0
O187 O 0.60514 0.20679 0.58545 0.0
O188 O 0.59948 0.27788 0.59683 0.0
O189 O 0.59136 0.28536 0.54606 0.0
O190 O 0.66987 0.27503 0.59013 0.0
O191 O 0.66113 0.32358 0.56198 0.0
H192 H 0.61731 0.36473 0.42552 0.0
H193 H 0.59434 0.41011 0.39226 0.0
H194 H 0.576 0.46936 0.48093 0.0
H195 H 0.59855 0.42382 0.51415 0.0
H196 H 0.66377 0.22281 0.63925 0.0
H197 H 0.67811 0.20176 0.6942 0.0
H198 H 0.6396 0.10618 0.66402 0.0
H199 H 0.62503 0.12752 0.6095 0.0
C200 C 0.06776 0.38137 0.87465 0.0
Eu201 Eu 0.03361 0.38924 0.81928 0.0
C202 C 0.08623 0.39813 0.9024 0.0
C203 C 0.12233 0.3912 0.90716 0.0
C204 C 0.13916 0.40126 0.93626 0.0
C205 C 0.12025 0.41832 0.9615 0.0
C206 C 0.08466 0.42725 0.95594 0.0
C207 C 0.06772 0.41712 0.92667 0.0
C208 C 0.04588 0.36376 0.75765 0.0
C209 C 0.04631 0.44588 0.77057 0.0
C210 C 0.93045 0.41536 0.72211 0.0
Eu211 Eu 0.97408 0.40415 0.77069 0.0
C212 C 0.89389 0.40674 0.71525 0.0
C213 C 0.87611 0.3861 0.73661 0.0
C214 C 0.84417 0.37239 0.72695 0.0
C215 C 0.82955 0.37931 0.69586 0.0
C216 C 0.8466 0.40146 0.67536 0.0
C217 C 0.87862 0.41498 0.68497 0.0
C218 C 0.96592 0.43254 0.83187 0.0
C219 C 0.96601 0.33992 0.81401 0.0
O220 O 0.03339 0.38531 0.87268 0.0
O221 O 0.08315 0.3796 0.84569 0.0
O222 O 0.07087 0.37137 0.77827 0.0
O223 O 0.01627 0.36566 0.77208 0.0
O224 O 0.05097 0.43818 0.80175 0.0
O225 O 0.0205 0.43312 0.75269 0.0
O226 O 0.9522 0.38987 0.72314 0.0
O227 O 0.93581 0.43682 0.7461 0.0
O228 O 0.94059 0.41933 0.81497 0.0
O229 O 0.99411 0.43016 0.81555 0.0
O230 O 0.95349 0.35633 0.7886 0.0
O231 O 0.99489 0.34891 0.82989 0.0
H232 H 0.13724 0.37655 0.88903 0.0
H233 H 0.16678 0.39447 0.93962 0.0
H234 H 0.06944 0.44033 0.97494 0.0
H235 H 0.0398 0.42285 0.92381 0.0
H236 H 0.8878 0.37933 0.76005 0.0
H237 H 0.83146 0.35563 0.74331 0.0
H238 H 0.83622 0.40692 0.65107 0.0
H239 H 0.89229 0.43052 0.66806 0.0
C240 C 0.87475 0.67722 0.99791 0.0
Eu241 Eu 0.87553 0.73979 1.01436 0.0
C242 C 0.88716 0.65047 0.97488 0.0
C243 C 0.87161 0.64597 0.94361 0.0
C244 C 0.87971 0.61764 0.92437 0.0
C245 C 0.90336 0.59311 0.93603 0.0
C246 C 0.9199 0.59828 0.96676 0.0
C247 C 0.91179 0.62659 0.98599 0.0
C248 C 0.84042 0.79379 0.99246 0.0
C249 C 0.92559 0.79448 0.98643 0.0
C250 C 0.8734 0.86651 0.08465 0.0
Eu251 Eu 0.885 0.80828 0.05753 0.0
C252 C 0.86798 0.87942 0.11868 0.0
C253 C 0.85705 0.85869 0.14382 0.0
C254 C 0.85064 0.87146 0.17575 0.0
C255 C 0.85533 0.90517 0.18323 0.0
C256 C 0.86662 0.92573 0.15796 0.0
C257 C 0.87281 0.91297 0.12602 0.0
C258 C 0.93324 0.76031 0.07485 0.0
C259 C 0.8308 0.75381 0.0831 0.0
O260 O 0.89786 0.68993 0.01833 0.0
O261 O 0.85114 0.69898 0.9876 0.0
O262 O 0.84935 0.76868 0.97321 0.0
O263 O 0.8467 0.78727 0.02231 0.0
O264 O 0.91979 0.76233 0.98695 0.0
O265 O 0.91235 0.81656 1.00833 0.0
O266 O 0.84836 0.84795 0.07279 0.0
O267 O 0.90512 0.85484 0.07732 0.0
O268 O 0.93111 0.78924 0.08938 0.0
O269 O 0.9091 0.75906 0.05362 0.0
O270 O 0.84724 0.7816 0.08992 0.0
O271 O 0.83687 0.73542 0.05615 0.0
H272 H 0.85236 0.66378 0.93439 0.0
H273 H 0.86694 0.61467 0.90056 0.0
H274 H 0.93796 0.57979 0.97664 0.0
H275 H 0.92382 0.62913 1.0102 0.0
H276 H 0.85327 0.83265 0.13871 0.0
H277 H 0.84237 0.85489 0.19466 0.0
H278 H 0.87009 0.95187 0.16274 0.0
H279 H 0.88107 0.92939 0.10694 0.0
C280 C 0.59354 0.62985 0.23925 0.0
Eu281 Eu 0.53727 0.64225 0.27475 0.0
C282 C 0.61874 0.64736 0.21857 0.0
C283 C 0.60952 0.65806 0.18682 0.0
C284 C 0.63462 0.6725 0.1669 0.0
C285 C 0.66936 0.67661 0.17834 0.0
C286 C 0.67826 0.66667 0.21036 0.0
C287 C 0.65327 0.65204 0.23017 0.0
C288 C 0.47594 0.60815 0.27453 0.0
C289 C 0.48697 0.69703 0.24136 0.0
C290 C 0.42864 0.69009 0.35636 0.0
Eu291 Eu 0.4796 0.67379 0.31557 0.0
C292 C 0.41129 0.67452 0.38416 0.0
C293 C 0.39293 0.69445 0.40736 0.0
C294 C 0.37732 0.68041 0.43466 0.0
C295 C 0.37957 0.64602 0.43923 0.0
C296 C 0.39841 0.62611 0.41602 0.0
C297 C 0.41425 0.64028 0.38877 0.0
C298 C 0.5375 0.71117 0.31135 0.0
C299 C 0.52545 0.6102 0.34324 0.0
O300 O 0.59439 0.63669 0.27095 0.0
O301 O 0.56139 0.62624 0.22804 0.0
O302 O 0.50688 0.59393 0.27118 0.0
O303 O 0.47888 0.63883 0.27394 0.0
O304 O 0.51971 0.68542 0.24386 0.0
O305 O 0.46375 0.6925 0.26515 0.0
O306 O 0.42335 0.67711 0.32694 0.0
O307 O 0.46151 0.69771 0.36138 0.0
O308 O 0.50527 0.72237 0.30939 0.0
O309 O 0.53815 0.68024 0.31582 0.0
O310 O 0.49514 0.62726 0.34404 0.0
O311 O 0.54936 0.61562 0.32083 0.0
H312 H 0.58314 0.65484 0.17712 0.0
H313 H 0.62694 0.68019 0.1424 0.0
H314 H 0.70491 0.66913 0.21969 0.0
H315 H 0.6612 0.64377 0.25442 0.0
H316 H 0.3909 0.72098 0.4045 0.0
H317 H 0.36373 0.69661 0.45239 0.0
H318 H 0.40051 0.59957 0.41861 0.0
H319 H 0.42882 0.6245 0.37138 0.0
C320 C 0.17829 0.58553 0.1761 0.0
Eu321 Eu 0.22957 0.5414 0.17208 0.0
C322 C 0.15277 0.60693 0.15811 0.0
C323 C 0.15603 0.64134 0.16049 0.0
C324 C 0.12903 0.66246 0.14926 0.0
C325 C 0.09799 0.64968 0.13551 0.0
C326 C 0.09557 0.61524 0.13128 0.0
C327 C 0.12265 0.59403 0.14261 0.0
C328 C 0.29375 0.54428 0.20331 0.0
C329 C 0.27833 0.55138 0.1092 0.0
C330 C 0.34625 0.45077 0.15604 0.0
Eu331 Eu 0.28802 0.48595 0.15383 0.0
C332 C 0.3591 0.41642 0.16053 0.0
C333 C 0.34457 0.39608 0.18441 0.0
C334 C 0.36099 0.36563 0.19178 0.0
C335 C 0.39218 0.35526 0.17546 0.0
C336 C 0.40511 0.3747 0.15007 0.0
C337 C 0.38877 0.40498 0.14276 0.0
C338 C 0.22727 0.47198 0.12118 0.0
C339 C 0.23167 0.47546 0.21394 0.0
O340 O 0.17342 0.55359 0.17589 0.0
O341 O 0.21171 0.59306 0.17572 0.0
O342 O 0.2643 0.55322 0.2177 0.0
O343 O 0.28745 0.53636 0.17398 0.0
O344 O 0.24599 0.55488 0.12106 0.0
O345 O 0.3011 0.52847 0.12017 0.0
O346 O 0.33204 0.46593 0.18195 0.0
O347 O 0.33006 0.45766 0.1282 0.0
O348 O 0.2559 0.45366 0.11962 0.0
O349 O 0.23215 0.49598 0.14096 0.0
O350 O 0.26314 0.46758 0.20123 0.0
O351 O 0.2122 0.50073 0.20374 0.0
H352 H 0.1788 0.65201 0.17245 0.0
H353 H 0.13195 0.68889 0.15236 0.0
H354 H 0.07195 0.60464 0.12089 0.0
H355 H 0.11922 0.5676 0.14052 0.0
H356 H 0.3215 0.40434 0.19837 0.0
H357 H 0.35055 0.35121 0.21151 0.0
H358 H 0.42889 0.36712 0.13684 0.0
H359 H 0.40031 0.42017 0.12418 0.0
C360 C 0.6698 0.98209 0.87817 0.0
Eu361 Eu 0.73242 1.00614 0.88604 0.0
C362 C 0.6458 0.959 0.89353 0.0
C363 C 0.62221 0.94176 0.87334 0.0
C364 C 0.59856 0.92013 0.88704 0.0
C365 C 0.598 0.91528 0.92131 0.0
C366 C 0.6216 0.93277 0.94162 0.0
C367 C 0.64545 0.95439 0.92782 0.0
C368 C 0.79188 0.99226 0.85059 0.0
C369 C 0.78779 0.97558 0.93475 0.0
C370 C 0.85512 0.07701 0.9114 0.0
Eu371 Eu 0.79457 0.04896 0.90251 0.0
C372 C 0.87004 0.10864 0.90211 0.0
C373 C 0.84803 0.13506 0.89214 0.0
C374 C 0.86249 0.16513 0.8836 0.0
C375 C 0.89925 0.16928 0.88474 0.0
C376 C 0.92114 0.14247 0.89438 0.0
C377 C 0.90663 0.11248 0.90301 0.0
C378 C 0.73574 0.0624 0.9392 0.0
C379 C 0.74048 0.07635 0.8483 0.0
O380 O 0.6758 1.00965 0.89453 0.0
O381 O 0.69809 0.96922 0.86392 0.0
O382 O 0.77119 0.96969 0.86095 0.0
O383 O 0.77945 0.0205 0.85821 0.0
O384 O 0.75387 0.9768 0.92761 0.0
O385 O 0.80936 0.99883 0.9252 0.0
O386 O 0.84892 0.05613 0.8871 0.0
O387 O 0.8295 0.07881 0.93297 0.0
O388 O 0.75596 0.08483 0.92779 0.0
O389 O 0.74786 0.03404 0.93117 0.0
O390 O 0.77271 0.07891 0.86046 0.0
O391 O 0.71974 0.05236 0.85709 0.0
H392 H 0.62194 0.94516 0.84687 0.0
H393 H 0.58041 0.90744 0.87075 0.0
H394 H 0.62199 0.92935 0.96806 0.0
H395 H 0.66354 0.96746 0.94386 0.0
H396 H 0.81966 0.13249 0.89115 0.0
H397 H 0.8448 0.18527 0.87664 0.0
H398 H 0.94956 0.14452 0.89497 0.0
H399 H 0.92403 0.09224 0.91037 0.0
C400 C 0.84419 0.08011 0.39818 0.0
Eu401 Eu 0.78909 0.04264 0.40017 0.0
C402 C 0.86792 0.10326 0.41561 0.0
C403 C 0.87853 0.13131 0.39905 0.0
C404 C 0.90413 0.15183 0.41267 0.0
C405 C 0.91987 0.14491 0.4434 0.0
C406 C 0.90866 0.11706 0.46035 0.0
C407 C 0.88297 0.09641 0.44659 0.0
C408 C 0.73184 0.04397 0.35822 0.0
C409 C 0.72795 0.07048 0.44879 0.0
C410 C 0.68326 0.95225 0.42387 0.0
Eu411 Eu 0.73113 0.99705 0.41836 0.0
C412 C 0.67003 0.92377 0.40451 0.0
C413 C 0.65922 0.89578 0.4211 0.0
C414 C 0.64605 0.8686 0.4035 0.0
C415 C 0.64328 0.86889 0.36887 0.0
C416 C 0.65497 0.89674 0.35223 0.0
C417 C 0.66834 0.92387 0.36986 0.0
C418 C 0.7832 1.00172 0.46398 0.0
C419 C 0.78535 0.9765 0.35783 0.0
O420 O 0.84562 0.04901 0.4063 0.0
O421 O 0.81229 0.09048 0.39039 0.0
O422 O 0.76397 0.04909 0.34893 0.0
O423 O 0.73152 0.04152 0.38895 0.0
O424 O 0.76232 0.06995 0.44324 0.0
O425 O 0.70803 0.04612 0.43767 0.0
O426 O 0.67657 0.98181 0.41263 0.0
O427 O 0.71535 0.94892 0.43541 0.0
O428 O 0.74984 1.00153 0.47069 0.0
O429 O 0.78815 0.99915 0.43305 0.0
O430 O 0.75376 0.97327 0.37101 0.0
O431 O 0.80678 0.99935 0.36867 0.0
H432 H 0.86774 0.13686 0.37492 0.0
H433 H 0.91237 0.17259 0.3985 0.0
H434 H 0.9198 0.11113 0.48422 0.0
H435 H 0.87541 0.07482 0.45988 0.0
H436 H 0.66053 0.89512 0.4478 0.0
H437 H 0.6369 0.84782 0.41714 0.0
H438 H 0.65353 0.89764 0.32555 0.0
H439 H 0.67703 0.945 0.35646 0.0
C440 C 0.21192 0.62582 0.64295 0.0
Eu441 Eu 0.24107 0.56731 0.64995 0.0
C442 C 0.19617 0.65456 0.66101 0.0
C443 C 0.17101 0.65115 0.68599 0.0
C444 C 0.15447 0.6792 0.70056 0.0
C445 C 0.16281 0.71108 0.69036 0.0
C446 C 0.18889 0.71426 0.66613 0.0
C447 C 0.20531 0.68629 0.6516 0.0
C448 C 0.22098 0.51001 0.61967 0.0
C449 C 0.22323 0.521 0.706 0.0
C450 C 0.32414 0.45388 0.66853 0.0
Eu451 Eu 0.29195 0.51059 0.65882 0.0
C452 C 0.35869 0.43825 0.66139 0.0
C453 C 0.36914 0.40982 0.67822 0.0
C454 C 0.40153 0.39401 0.67118 0.0
C455 C 0.42398 0.4064 0.64711 0.0
C456 C 0.41351 0.43519 0.63048 0.0
C457 C 0.38111 0.45108 0.63766 0.0
C458 C 0.3111 0.56753 0.69005 0.0
C459 C 0.3082 0.55679 0.59906 0.0
O460 O 0.24598 0.62064 0.64627 0.0
O461 O 0.19425 0.59848 0.64173 0.0
O462 O 0.19914 0.5315 0.63319 0.0
O463 O 0.25183 0.52081 0.62077 0.0
O464 O 0.22449 0.55274 0.70031 0.0
O465 O 0.24261 0.49944 0.68836 0.0
O466 O 0.30399 0.45986 0.643 0.0
O467 O 0.32375 0.47826 0.69022 0.0
O468 O 0.33279 0.54778 0.67392 0.0
O469 O 0.28043 0.55628 0.68904 0.0
O470 O 0.3165 0.52793 0.61192 0.0
O471 O 0.28241 0.57598 0.61119 0.0
H472 H 0.16358 0.62689 0.69374 0.0
H473 H 0.13432 0.67588 0.71899 0.0
H474 H 0.19637 0.73841 0.65813 0.0
H475 H 0.22475 0.68944 0.63244 0.0
H476 H 0.35206 0.39962 0.69657 0.0
H477 H 0.40862 0.37162 0.68406 0.0
H478 H 0.4304 0.44545 0.61203 0.0
H479 H 0.37342 0.47319 0.62455 0.0
H480 H 0.158 0.36874 0.59548 0.0
H481 H 0.25967 0.34923 0.5511 0.0
H482 H 0.27761 0.40558 0.56621 0.0
H483 H 0.26259 0.46157 0.58963 0.0
H484 H 0.15751 0.48177 0.62689 0.0
H485 H 0.14228 0.42439 0.61642 0.0
C486 C 0.18433 0.37667 0.58973 0.0
C487 C 0.20793 0.35472 0.57315 0.0
C488 C 0.1935 0.40948 0.59673 0.0
C489 C 0.24148 0.36555 0.56465 0.0
C490 C 0.25151 0.39783 0.57296 0.0
C491 C 0.23649 0.45327 0.59564 0.0
C492 C 0.2116 0.47571 0.61009 0.0
C493 C 0.2275 0.42023 0.58858 0.0
C494 C 0.17746 0.46489 0.61657 0.0
C495 C 0.16868 0.43204 0.61056 0.0
H496 H 0.83905 0.94751 0.87462 0.0
H497 H 0.8272 0.02454 0.80356 0.0
H498 H 0.88909 1.01616 0.78695 0.0
H499 H 0.94708 0.98713 0.79339 0.0
H500 H 0.95995 0.9149 0.86938 0.0
H501 H 0.89759 0.92126 0.88357 0.0
C502 C 0.85005 0.96219 0.8553 0.0
C503 C 0.82866 0.98612 0.8398 0.0
C504 C 0.88597 0.95829 0.84705 0.0
C505 C 0.84327 1.00571 0.81548 0.0
C506 C 0.87862 1.00101 0.80611 0.0
C507 C 0.93614 0.97296 0.81312 0.0
C508 C 0.95799 0.9504 0.8301 0.0
C509 C 0.90032 0.97747 0.82185 0.0
C510 C 0.94369 0.93242 0.8559 0.0
C511 C 0.90796 0.93594 0.86397 0.0
H512 H 0.35837 0.65743 0.02827 0.0
H513 H 0.28715 0.7224 0.08357 0.0
H514 H 0.25747 0.67452 0.10535 0.0
H515 H 0.25513 0.61483 0.11209 0.0
H516 H 0.3313 0.54972 0.06291 0.0
H517 H 0.3558 0.59711 0.03496 0.0
C518 C 0.3359 0.66103 0.04462 0.0
C519 C 0.32449 0.69331 0.05401 0.0
C520 C 0.32019 0.63342 0.05821 0.0
C521 C 0.2961 0.69777 0.07589 0.0
C522 C 0.27927 0.67043 0.08836 0.0
C523 C 0.27667 0.61081 0.09474 0.0
C524 C 0.2911 0.57869 0.08915 0.0
C525 C 0.29152 0.63821 0.08013 0.0
C526 C 0.31962 0.57413 0.06737 0.0
C527 C 0.33364 0.60122 0.05153 0.0
H528 H 0.60564 0.11123 0.28122 0.0
H529 H 0.54557 0.04435 0.33848 0.0
H530 H 0.60065 0.02055 0.36117 0.0
H531 H 0.66569 0.02211 0.36749 0.0
H532 H 0.72528 0.08626 0.30684 0.0
H533 H 0.67045 0.10741 0.28181 0.0
C534 C 0.60453 0.09086 0.298 0.0
C535 C 0.5715 0.07952 0.30809 0.0
C536 C 0.6362 0.07699 0.31031 0.0
C537 C 0.57059 0.05341 0.33022 0.0
C538 C 0.60209 0.03994 0.34327 0.0
C539 C 0.66667 0.0403 0.34845 0.0
C540 C 0.6995 0.05277 0.33924 0.0
C541 C 0.63501 0.05198 0.33391 0.0
C542 C 0.70043 0.0762 0.3143 0.0
C543 C 0.66905 0.08843 0.30016 0.0
H544 H 0.65665 0.21224 0.45694 0.0
H545 H 0.73426 0.22528 0.53371 0.0
H546 H 0.755 0.16768 0.52572 0.0
H547 H 0.75159 0.11383 0.49567 0.0
H548 H 0.66865 0.09944 0.42405 0.0
H549 H 0.64871 0.15695 0.4318 0.0
C550 C 0.67802 0.20239 0.47193 0.0
C551 C 0.69433 0.22296 0.49551 0.0
C552 C 0.68831 0.16885 0.46854 0.0
C553 C 0.7217 0.2099 0.51511 0.0
C554 C 0.73334 0.17696 0.51072 0.0
C555 C 0.72858 0.12316 0.48245 0.0
C556 C 0.71144 0.1024 0.45952 0.0
C557 C 0.71679 0.15617 0.48751 0.0
C558 C 0.68183 0.11474 0.44232 0.0
C559 C 0.67066 0.14777 0.44645 0.0
H560 H 0.0945 0.48819 0.79672 0.0
H561 H 0.06368 0.43839 0.70608 0.0
H562 H 0.11777 0.45458 0.67971 0.0
H563 H 0.17498 0.48045 0.68304 0.0
H564 H 0.20337 0.53744 0.76944 0.0
H565 H 0.14954 0.52026 0.79753 0.0
C566 C 0.09942 0.48147 0.77103 0.0
C567 C 0.07521 0.46197 0.75346 0.0
C568 C 0.13043 0.49146 0.75566 0.0
C569 C 0.08173 0.45352 0.72015 0.0
C570 C 0.11286 0.46246 0.70509 0.0
C571 C 0.1693 0.48899 0.70798 0.0
C572 C 0.19306 0.50939 0.72452 0.0
C573 C 0.1376 0.48085 0.7228 0.0
C574 C 0.18546 0.52111 0.75663 0.0
C575 C 0.15466 0.51154 0.77246 0.0
H576 H 0.76727 0.91404 0.9212 0.0
H577 H 0.84034 0.96882 0.98137 0.0
H578 H 0.86162 0.91721 1.00658 0.0
H579 H 0.85931 0.85635 1.01067 0.0
H580 H 0.79053 0.80201 0.94569 0.0
H581 H 0.7673 0.85376 0.9231 0.0
C582 C 0.78772 0.91471 0.94002 0.0
C583 C 0.80187 0.94511 0.94992 0.0
C584 C 0.80039 0.88507 0.95345 0.0
C585 C 0.829 0.94564 0.97357 0.0
C586 C 0.84104 0.91619 0.98796 0.0
C587 C 0.83898 0.8559 0.99191 0.0
C588 C 0.82605 0.8255 0.9803 0.0
C589 C 0.82685 0.88574 0.9781 0.0
C590 C 0.80053 0.82519 0.95517 0.0
C591 C 0.78734 0.85472 0.94223 0.0
H592 H 0.4567 0.56583 0.22508 0.0
H593 H 0.41808 0.6161 0.31291 0.0
H594 H 0.35799 0.59881 0.30064 0.0
H595 H 0.31529 0.57345 0.26176 0.0
H596 H 0.35442 0.52673 0.17182 0.0
H597 H 0.41479 0.53789 0.18804 0.0
C598 C 0.43518 0.57226 0.24184 0.0
C599 C 0.44161 0.59224 0.26984 0.0
C600 C 0.40051 0.56297 0.23401 0.0
C601 C 0.41352 0.60101 0.29108 0.0
C602 C 0.37917 0.5911 0.28403 0.0
C603 C 0.33711 0.56534 0.24603 0.0
C604 C 0.33022 0.549 0.21578 0.0
C605 C 0.3721 0.57278 0.25506 0.0
C606 C 0.35883 0.53898 0.19546 0.0
C607 C 0.39352 0.54552 0.2046 0.0
H608 H 0.56402 0.16009 0.35949 0.0
H609 H 0.53534 0.25526 0.3207 0.0
H610 H 0.54684 0.28163 0.37477 0.0
H611 H 0.56486 0.27715 0.43272 0.0
H612 H 0.59061 0.18123 0.47225 0.0
H613 H 0.57919 0.1553 0.41837 0.0
C614 C 0.56098 0.18668 0.36291 0.0
C615 C 0.55007 0.20608 0.33629 0.0
C616 C 0.56622 0.20127 0.39423 0.0
C617 C 0.54469 0.24023 0.34089 0.0
C618 C 0.55087 0.25513 0.37178 0.0
C619 C 0.56758 0.25051 0.42978 0.0
C620 C 0.57875 0.23119 0.45657 0.0
C621 C 0.56143 0.23582 0.39866 0.0
C622 C 0.582 0.19671 0.45214 0.0
C623 C 0.57581 0.18188 0.42125 0.0
H624 H 0.05488 0.35731 0.60096 0.0
H625 H 0.14283 0.29229 0.62423 0.0
H626 H 0.13167 0.29981 0.68259 0.0
H627 H 0.09678 0.32499 0.72832 0.0
H628 H 0.01087 0.39218 0.70597 0.0
H629 H 0.02065 0.38369 0.64708 0.0
C630 C 0.07147 0.34474 0.61886 0.0
C631 C 0.09896 0.32324 0.60776 0.0
C632 C 0.06487 0.34935 0.65302 0.0
C633 C 0.12054 0.3077 0.63143 0.0
C634 C 0.11442 0.31234 0.66521 0.0
C635 C 0.07997 0.33743 0.71048 0.0
C636 C 0.05168 0.35781 0.72167 0.0
C637 C 0.08648 0.33289 0.67638 0.0
C638 C 0.03087 0.37445 0.69824 0.0
C639 C 0.03718 0.37023 0.66436 0.0
H640 H 0.01899 0.85478 0.87636 0.0
H641 H 0.92738 0.83298 0.81704 0.0
H642 H 0.89946 0.80847 0.86493 0.0
H643 H 0.90067 0.79499 0.92427 0.0
H644 H 0.98996 0.82214 0.9841 0.0
H645 H 0.01954 0.84299 0.93527 0.0
C646 C 0.99314 0.84415 0.87366 0.0
C647 C 0.97552 0.84504 0.84298 0.0
C648 C 0.97688 0.83139 0.90146 0.0
C649 C 0.94159 0.83219 0.84027 0.0
C650 C 0.92563 0.81833 0.86766 0.0
C651 C 0.92672 0.80532 0.92637 0.0
C652 C 0.94355 0.80682 0.95734 0.0
C653 C 0.94294 0.81804 0.89842 0.0
C654 C 0.97685 0.82071 0.96031 0.0
C655 C 0.99365 0.83254 0.93247 0.0
H656 H 0.52585 0.70145 0.1851 0.0
H657 H 0.42187 0.72265 0.22514 0.0
H658 H 0.40042 0.73716 0.17032 0.0
H659 H 0.40976 0.73922 0.111 0.0
H660 H 0.51296 0.71811 0.06979 0.0
H661 H 0.53619 0.70743 0.12544 0.0
C662 C 0.49859 0.7097 0.18202 0.0
C663 C 0.47542 0.71078 0.20933 0.0
C664 C 0.48625 0.71743 0.15026 0.0
C665 C 0.44024 0.72153 0.20469 0.0
C666 C 0.42791 0.72965 0.1733 0.0
C667 C 0.43752 0.73277 0.1141 0.0
C668 C 0.45971 0.7296 0.08632 0.0
C669 C 0.45047 0.72695 0.1459 0.0
C670 C 0.49542 0.72074 0.0908 0.0
C671 C 0.50863 0.71471 0.12258 0.0
H672 H 0.14484 0.41207 0.3273 0.0
H673 H 0.24614 0.36668 0.34967 0.0
H674 H 0.27234 0.39403 0.30261 0.0
H675 H 0.26617 0.43161 0.255 0.0
H676 H 0.16357 0.47576 0.2341 0.0
H677 H 0.13829 0.44758 0.28012 0.0
C678 C 0.17257 0.40769 0.32169 0.0
C679 C 0.19336 0.38712 0.34189 0.0
C680 C 0.1873 0.42328 0.29467 0.0
C681 C 0.2295 0.38256 0.33467 0.0
C682 C 0.24446 0.39806 0.30763 0.0
C683 C 0.23826 0.43481 0.2604 0.0
C684 C 0.21697 0.45599 0.24105 0.0
C685 C 0.2236 0.41856 0.28741 0.0
C686 C 0.18082 0.45992 0.24857 0.0
C687 C 0.16618 0.44377 0.27497 0.0
H688 H 0.89935 0.95189 0.56511 0.0
H689 H 0.82251 0.99498 0.6331 0.0
H690 H 0.78722 1.01515 0.58715 0.0
H691 H 0.7755 1.01709 0.52809 0.0
H692 H 0.85047 0.97403 0.45869 0.0
H693 H 0.8894 0.95769 0.50462 0.0
C694 C 0.87494 0.9658 0.5698 0.0
C695 C 0.86367 0.97186 0.60265 0.0
C696 C 0.85444 0.97732 0.54302 0.0
C697 C 0.83214 0.99026 0.60824 0.0
C698 C 0.81176 1.00168 0.58193 0.0
C699 C 0.80059 1.00445 0.52296 0.0
C700 C 0.80999 0.99646 0.49015 0.0
C701 C 0.82235 0.99492 0.54932 0.0
C702 C 0.8427 0.98046 0.48379 0.0
C703 C 0.86478 0.97092 0.51006 0.0
H704 H 0.27428 0.59101 0.74365 0.0
H705 H 0.37552 0.59484 0.69574 0.0
H706 H 0.39844 0.62749 0.74221 0.0
H707 H 0.39096 0.65156 0.79791 0.0
H708 H 0.29039 0.64648 0.84688 0.0
H709 H 0.2661 0.61721 0.79878 0.0
C710 C 0.30121 0.59939 0.74321 0.0
C711 C 0.32324 0.59053 0.71633 0.0
C712 C 0.31446 0.61747 0.77041 0.0
C713 C 0.35812 0.60133 0.71619 0.0
C714 C 0.37125 0.61988 0.74279 0.0
C715 C 0.36355 0.64452 0.79791 0.0
C716 C 0.34254 0.65126 0.82602 0.0
C717 C 0.34985 0.62759 0.77027 0.0
C718 C 0.30727 0.64131 0.82576 0.0
C719 C 0.29331 0.62473 0.79818 0.0
H720 H 0.64707 0.06421 0.07064 0.0
H721 H 0.66655 0.16844 0.06523 0.0
H722 H 0.69489 0.15945 1.01165 0.0
H723 H 0.71813 0.12155 0.96829 0.0
H724 H 0.69954 1.01723 0.97366 0.0
H725 H 0.66618 0.02676 0.02479 0.0
C726 C 0.65696 0.08503 0.05747 0.0
C727 C 0.65504 0.11691 0.07219 0.0
C728 C 0.67347 0.07966 0.02665 0.0
C729 C 0.66827 0.14356 0.05482 0.0
C730 C 0.68436 0.13848 0.02408 0.0
C731 C 0.70639 0.10096 0.98044 0.0
C732 C 0.71157 0.06871 0.96741 0.0
C733 C 0.68777 0.10656 1.01008 0.0
C734 C 0.69607 0.04229 0.98332 0.0
C735 C 0.6771 0.04771 1.01262 0.0
H736 H 0.71908 0.16196 0.72103 0.0
H737 H 0.6192 0.11324 0.72091 0.0
H738 H 0.63424 0.0878 0.77326 0.0
H739 H 0.67696 0.07647 0.81703 0.0
H740 H 0.77748 0.12414 0.81746 0.0
H741 H 0.76053 0.15356 0.76752 0.0
C742 C 0.7004 0.14617 0.73272 0.0
C743 C 0.66823 0.13921 0.71679 0.0
C744 C 0.70928 0.13145 0.7629 0.0
C745 C 0.64443 0.1185 0.73223 0.0
C746 C 0.65292 0.10407 0.76229 0.0
C747 C 0.69513 0.09355 0.80651 0.0
C748 C 0.72861 0.0978 0.82093 0.0
C749 C 0.6855 0.10989 0.77752 0.0
C750 C 0.75158 0.12026 0.80691 0.0
C751 C 0.74196 0.137 0.77822 0.0
H752 H 0.21098 0.41523 0.09148 0.0
H753 H 0.1785 0.51796 0.09771 0.0
H754 H 0.13968 0.51009 0.0494 0.0
H755 H 0.12075 0.47466 1.00133 0.0
H756 H 0.1567 0.37254 0.99615 0.0
H757 H 0.18858 0.37953 0.04788 0.0
C758 C 0.19489 0.43582 0.08266 0.0
C759 C 0.19766 0.46712 0.09791 0.0
C760 C 0.1738 0.43128 0.05459 0.0
C761 C 0.17658 0.49355 0.08643 0.0
C762 C 0.15474 0.48909 0.0586 0.0
C763 C 0.13529 0.45395 1.01181 0.0
C764 C 0.13701 0.42328 0.99448 0.0
C765 C 0.15403 0.45822 0.04179 0.0
C766 C 0.15572 0.39659 1.00847 0.0
C767 C 0.17377 0.40048 0.0382 0.0
H768 H 0.84444 0.98197 0.32057 0.0
H769 H 0.74865 0.92715 0.32662 0.0
H770 H 0.76259 0.89915 0.27392 0.0
H771 H 0.80025 0.89279 0.22433 0.0
H772 H 0.89521 0.94874 0.21846 0.0
H773 H 0.88307 0.97391 0.27269 0.0
C774 C 0.82669 0.96365 0.31065 0.0
C775 C 0.79547 0.95679 0.32769 0.0
C776 C 0.83453 0.94808 0.28007 0.0
C777 C 0.77288 0.93299 0.31418 0.0
C778 C 0.78077 0.91702 0.28392 0.0
C779 C 0.81851 0.91017 0.23511 0.0
C780 C 0.8485 0.91901 0.21714 0.0
C781 C 0.81127 0.92474 0.26638 0.0
C782 C 0.87166 0.94187 0.23141 0.0
C783 C 0.86483 0.95616 0.26254 0.0
H784 H 0.28556 0.60474 0.55847 0.0
H785 H 0.37156 0.53426 0.57236 0.0
H786 H 0.40129 0.55526 0.52364 0.0
H787 H 0.40323 0.59511 0.47807 0.0
H788 H 0.315 0.66344 0.46443 0.0
H789 H 0.28602 0.64196 0.51251 0.0
C790 C 0.31089 0.5939 0.55104 0.0
C791 C 0.32649 0.56817 0.56928 0.0
C792 C 0.32752 0.60587 0.52313 0.0
C793 C 0.35902 0.55416 0.55881 0.0
C794 C 0.37602 0.5662 0.531 0.0
C795 C 0.37749 0.60504 0.4854 0.0
C796 C 0.36162 0.63127 0.4678 0.0
C797 C 0.36056 0.59221 0.51304 0.0
C798 C 0.32832 0.64389 0.47786 0.0
C799 C 0.31154 0.63145 0.50526 0.0
H800 H 0.26013 0.21221 0.51378 0.0
H801 H 0.19335 0.27022 0.44969 0.0
H802 H 0.23632 0.26151 0.40459 0.0
H803 H 0.29242 0.23505 0.38315 0.0
H804 H 0.35821 0.1784 0.44968 0.0
H805 H 0.3163 0.1893 0.49411 0.0
C806 C 0.25489 0.22307 0.48996 0.0
C807 C 0.2234 0.24147 0.48493 0.0
C808 C 0.27971 0.21824 0.4646 0.0
C809 C 0.21731 0.25577 0.45409 0.0
C810 C 0.24188 0.25073 0.42835 0.0
C811 C 0.2976 0.22527 0.40743 0.0
C812 C 0.3287 0.20602 0.41298 0.0
C813 C 0.2731 0.23165 0.43323 0.0
C814 C 0.335 0.19373 0.4447 0.0
C815 C 0.31084 0.1997 0.47015 0.0
H816 H 0.12661 0.09096 0.69919 0.0
H817 H 0.06372 0.08008 0.61072 0.0
H818 H 0.03652 0.03147 0.63322 0.0
H819 H 0.03036 0.99193 0.67864 0.0
H820 H 0.09686 1.00201 0.76489 0.0
H821 H 0.12321 0.05054 0.74228 0.0
C822 C 0.10756 0.07767 0.68436 0.0
C823 C 0.09735 0.08939 0.65326 0.0
C824 C 0.09249 0.04947 0.69713 0.0
C825 C 0.07182 0.07205 0.63497 0.0
C826 C 0.05632 0.04409 0.64775 0.0
C827 C 0.05058 1.00484 0.69239 0.0
C828 C 0.06157 0.99336 0.72338 0.0
C829 C 0.06627 0.03267 0.67896 0.0
C830 C 0.08804 1.01014 0.74086 0.0
C831 C 0.10313 0.038 0.72801 0.0
H832 H 0.25035 0.81826 0.87747 0.0
H833 H 0.18413 0.86976 0.94963 0.0
H834 H 0.22772 0.8589 0.99245 0.0
H835 H 0.2852 0.83755 1.00911 0.0
H836 H 0.35252 0.7847 0.93916 0.0
H837 H 0.30806 0.79355 0.89551 0.0
C838 C 0.24548 0.82689 0.90263 0.0
C839 C 0.2139 0.84469 0.91034 0.0
C840 C 0.27092 0.82067 0.92734 0.0
C841 C 0.20783 0.85554 0.94308 0.0
C842 C 0.23291 0.84964 0.96756 0.0
C843 C 0.29027 0.82792 0.9843 0.0
C844 C 0.3222 0.81088 0.97715 0.0
C845 C 0.26462 0.83267 0.95987 0.0
C846 C 0.32816 0.79811 0.94509 0.0
C847 C 0.30275 0.80316 0.92024 0.0
H848 H 0.42683 0.05612 0.22598 0.0
H849 H 0.52603 0.05322 0.17365 0.0
H850 H 0.51033 1.00115 0.14645 0.0
H851 H 0.46981 0.95487 0.1398 0.0
H852 H 0.37143 0.95754 0.19328 0.0
H853 H 0.38536 1.01143 0.21745 0.0
C854 C 0.44499 0.04435 0.20842 0.0
C855 C 0.47771 0.05862 0.20209 0.0
C856 C 0.43598 1.01423 0.19313 0.0
C857 C 0.50071 0.04288 0.17913 0.0
C858 C 0.4918 1.01299 0.16361 0.0
C859 C 0.45144 0.96725 0.15678 0.0
C860 C 0.41968 0.95206 0.16482 0.0
C861 C 0.45977 0.99816 0.17085 0.0
C862 C 0.3959 0.96873 0.18641 0.0
C863 C 0.40395 0.99949 0.20041 0.0
H864 H 0.77288 0.40495 0.66342 0.0
H865 H 0.81696 0.31341 0.69984 0.0
H866 H 0.77032 0.28275 0.67206 0.0
H867 H 0.72091 0.28153 0.63226 0.0
H868 H 0.67889 0.37353 0.59452 0.0
H869 H 0.72079 0.40425 0.62781 0.0
C870 C 0.77208 0.37831 0.66546 0.0
C871 C 0.79845 0.36147 0.68335 0.0
C872 C 0.74577 0.36082 0.64886 0.0
C873 C 0.7968 0.327 0.68634 0.0
C874 C 0.77032 0.30941 0.67022 0.0
C875 C 0.72063 0.30831 0.6317 0.0
C876 C 0.6972 0.32511 0.61051 0.0
C877 C 0.74522 0.32598 0.65065 0.0
C878 C 0.69703 0.35986 0.61019 0.0
C879 C 0.72096 0.37754 0.62926 0.0
H880 H 0.90303 0.4615 0.849 0.0
H881 H 0.01466 0.46411 0.86967 0.0
H882 H 1.00521 0.5137 0.90466 0.0
H883 H 0.96563 0.55858 0.92598 0.0
H884 H 0.8542 0.55626 0.90384 0.0
H885 H 0.86329 0.50473 0.87227 0.0
C886 C 0.92522 0.47262 0.86158 0.0
C887 C 0.95949 0.45923 0.85678 0.0
C888 C 0.91971 0.50159 0.88083 0.0
C889 C 0.98802 0.47404 0.87303 0.0
C890 C 0.98265 0.50247 0.89285 0.0
C891 C 0.94329 0.54663 0.91451 0.0
C892 C 0.90933 0.56153 0.91703 0.0
C893 C 0.94869 0.51687 0.89638 0.0
C894 C 0.88073 0.54579 0.90175 0.0
C895 C 0.88584 0.51612 0.88392 0.0
H896 H 0.78013 0.70976 0.06932 0.0
H897 H 0.81777 0.77457 0.14711 0.0
H898 H 0.7707 0.75683 0.18342 0.0
H899 H 0.71899 0.72239 0.19301 0.0
H900 H 0.68159 0.65871 0.11422 0.0
H901 H 0.72832 0.67688 0.0782 0.0
C902 C 0.77828 0.71995 0.09428 0.0
C903 C 0.80271 0.74323 0.10556 0.0
C904 C 0.75102 0.71 0.11476 0.0
C905 C 0.79941 0.75653 0.13781 0.0
C906 C 0.77249 0.7464 0.15858 0.0
C907 C 0.72116 0.71251 0.16795 0.0
C908 C 0.69682 0.68927 0.15628 0.0
C909 C 0.74818 0.72309 0.14731 0.0
C910 C 0.69968 0.67694 0.12366 0.0
C911 C 0.72655 0.68713 0.10312 0.0
H912 H 0.53066 0.49079 0.44212 0.0
H913 H 0.61991 0.46312 0.38042 0.0
H914 H 0.61018 0.51245 0.34816 0.0
H915 H 0.57731 0.5633 0.33752 0.0
H916 H 0.48702 0.59203 0.39735 0.0
H917 H 0.49659 0.54268 0.43066 0.0
C918 C 0.54794 0.49562 0.42161 0.0
C919 C 0.57582 0.47302 0.41358 0.0
C920 C 0.54227 0.52434 0.40305 0.0
C921 C 0.59784 0.4796 0.38679 0.0
C922 C 0.59252 0.50802 0.36849 0.0
C923 C 0.55974 0.5591 0.35799 0.0
C924 C 0.53164 0.58162 0.36506 0.0
C925 C 0.56497 0.53056 0.37646 0.0
C926 C 0.50899 0.57526 0.39145 0.0
C927 C 0.5144 0.54697 0.41042 0.0
H928 H 0.37226 0.2916 0.18812 0.0
H929 H 0.46126 0.35594 0.19063 0.0
H930 H 0.49966 0.3108 0.2086 0.0
H931 H 0.50897 0.25349 0.22142 0.0
H932 H 0.42267 0.18637 0.21857 0.0
H933 H 0.38193 0.23221 0.20338 0.0
C934 C 0.40003 0.29557 0.19275 0.0
C935 C 0.41406 0.32696 0.18745 0.0
C936 C 0.42234 0.26913 0.20298 0.0
C937 C 0.45002 0.3319 0.19376 0.0
C938 C 0.47197 0.30616 0.20423 0.0
C939 C 0.48122 0.24868 0.2175 0.0
C940 C 0.46889 0.21653 0.22071 0.0
C941 C 0.45855 0.27471 0.20847 0.0
C942 C 0.43278 0.21093 0.21608 0.0
C943 C 0.40961 0.23712 0.20731 0.0
H944 H 0.98372 0.29992 0.86504 0.0
H945 H 0.90834 0.31123 0.78559 0.0
H946 H 0.88088 0.2599 0.80062 0.0
H947 H 0.8794 0.21078 0.83521 0.0
H948 H 0.95411 0.20033 0.91527 0.0
H949 H 0.98089 0.25205 0.90072 0.0
C950 C 0.96121 0.29129 0.85101 0.0
C951 C 0.9483 0.30948 0.8241 0.0
C952 C 0.94554 0.26168 0.85972 0.0
C953 C 0.91898 0.29782 0.80638 0.0
C954 C 0.90324 0.26838 0.81493 0.0
C955 C 0.90126 0.21997 0.84975 0.0
C956 C 0.9148 0.20142 0.87619 0.0
C957 C 0.91644 0.24999 0.84143 0.0
C958 C 0.9435 0.21365 0.89442 0.0
C959 C 0.95872 0.2434 0.88626 0.0
H960 H 0.05444 0.6497 0.08118 0.0
H961 H 0.07211 0.6999 0.17471 0.0
H962 H 0.02208 0.73737 0.16457 0.0
H963 H 0.97381 0.75663 0.12911 0.0
H964 H 0.95709 0.70918 0.03437 0.0
H965 H 1.00541 0.66939 0.04522 0.0
C966 C 0.04717 0.66876 0.09935 0.0
C967 C 0.06727 0.67217 0.12852 0.0
C968 C 0.01822 0.69044 0.09333 0.0
C969 C 0.05759 0.6971 0.15178 0.0
C970 C 0.02879 0.71842 0.14613 0.0
C971 C 0.98057 0.73738 0.11095 0.0
C972 C 0.96116 0.73509 0.08144 0.0
C973 C 1.00905 0.71543 0.11698 0.0
C974 C 0.97052 0.71042 0.0579 0.0
C975 C 0.9986 0.68806 0.0639 0.0
H976 H 0.65161 0.80193 0.37724 0.0
H977 H 0.59462 0.87434 0.3196 0.0
H978 H 0.56021 0.8309 0.29366 0.0
H979 H 0.54177 0.77353 0.29162 0.0
H980 H 0.59713 0.70031 0.34917 0.0
H981 H 0.63703 0.74267 0.37054 0.0
C982 C 0.63183 0.80812 0.35882 0.0
C983 C 0.6256 0.8415 0.3506 0.0
C984 C 0.61179 0.78288 0.34406 0.0
C985 C 0.60024 0.84898 0.32628 0.0
C986 C 0.58034 0.82414 0.31155 0.0
C987 C 0.563 0.76673 0.30841 0.0
C988 C 0.56636 0.73399 0.31908 0.0
C989 C 0.58531 0.79119 0.32082 0.0
C990 C 0.5941 0.72537 0.34056 0.0
C991 C 0.61667 0.74966 0.35299 0.0
H992 H 0.56238 0.31713 0.63523 0.0
H993 H 0.54116 0.32912 0.53144 0.0
H994 H 0.49111 0.36659 0.54471 0.0
H995 H 0.45091 0.39252 0.58599 0.0
H996 H 0.47239 0.38005 0.68973 0.0
H997 H 0.52482 0.34603 0.67631 0.0
C998 C 0.54691 0.32813 0.61553 0.0
C999 C 0.55507 0.32017 0.58247 0.0
C1000 C 0.51813 0.34933 0.62334 0.0
C1001 C 0.53513 0.33476 0.55712 0.0
C1002 C 0.50653 0.35612 0.56469 0.0
C1003 C 0.46741 0.38282 0.60564 0.0
C1004 C 0.45761 0.38854 0.6388 0.0
C1005 C 0.49743 0.36312 0.59774 0.0
C1006 C 0.47906 0.37553 0.66401 0.0
C1007 C 0.50909 0.35618 0.65637 0.0
H1008 H 0.13797 0.76388 0.65622 0.0
H1009 H 0.14339 0.72498 0.75445 0.0
H1010 H 0.10885 0.77275 0.77569 0.0
H1011 H 0.07515 0.8245 0.76585 0.0
H1012 H 0.06929 0.86276 0.66741 0.0
H1013 H 0.10676 0.81667 0.64686 0.0
C1014 C 0.13211 0.76607 0.68238 0.0
C1015 C 0.14326 0.74083 0.7037 0.0
C1016 C 0.11222 0.79352 0.69437 0.0
C1017 C 0.13479 0.74383 0.73743 0.0
C1018 C 0.1152 0.77122 0.74961 0.0
C1019 C 0.08237 0.82287 0.73996 0.0
C1020 C 0.06939 0.84686 0.7181 0.0
C1021 C 0.10347 0.79604 0.72825 0.0
C1022 C 0.0789 0.84451 0.68465 0.0
C1023 C 0.10023 0.81813 0.67289 0.0
H1024 H 0.49353 0.80299 0.95584 0.0
H1025 H 0.46644 0.87104 0.03602 0.0
H1026 H 0.51133 0.9088 1.01736 0.0
H1027 H 0.5569 0.92324 0.97669 0.0
H1028 H 0.58326 0.8539 0.89739 0.0
H1029 H 0.53983 0.81597 0.91732 0.0
C1030 C 0.49725 0.82608 0.96935 0.0
C1031 C 0.47631 0.83424 0.99715 0.0
C1032 C 0.52298 0.84752 0.95855 0.0
C1033 C 0.48206 0.86413 1.01447 0.0
C1034 C 0.50772 0.88575 1.00379 0.0
C1035 C 0.55337 0.89966 0.96404 0.0
C1036 C 0.57306 0.89161 0.93534 0.0
C1037 C 0.52819 0.8778 0.97568 0.0
C1038 C 0.56803 0.86102 0.91913 0.0
C1039 C 0.5433 0.83922 0.93059 0.0
H1040 H 0.98037 0.12649 0.47681 0.0
H1041 H 0.92347 0.21227 0.4407 0.0
H1042 H 0.9713 0.24741 0.4587 0.0
H1043 H 0.02963 0.25411 0.48393 0.0
H1044 H 0.0858 0.1692 0.52263 0.0
H1045 H 0.03784 0.1337 0.50477 0.0
C1046 C 0.97814 0.15291 0.47327 0.0
C1047 C 0.94827 0.16646 0.45697 0.0
C1048 C 1.00577 0.17326 0.48405 0.0
C1049 C 0.94629 0.20085 0.45244 0.0
C1050 C 0.97363 0.2211 0.46291 0.0
C1051 C 0.03155 0.22782 0.4884 0.0
C1052 C 0.06161 0.21442 0.50436 0.0
C1053 C 1.00364 0.20757 0.47845 0.0
C1054 C 0.06316 0.18029 0.51029 0.0
C1055 C 0.03567 0.15992 0.50009 0.0
loop_
_geom_bond_atom_site_label_1
_geom_bond_atom_site_label_2
_geom_bond_distance
_geom_bond_site_symmetry_2
_ccdc_geom_bond_type
C0 Eu1 2.835 . S
C0 C2 1.500 . S
C0 O20 1.257 . S
C0 O21 1.260 . S
Eu1 C0 2.835 . S
Eu1 O20 2.473 . S
Eu1 O21 2.480 . S
Eu1 O22 2.430 . S
Eu1 O23 2.670 . S
Eu1 O24 2.394 . S
Eu1 O29 2.355 . S
Eu1 O31 2.374 . S
C2 C0 1.500 . S
C2 C3 1.377 . S
C2 C7 1.377 . S
C3 C2 1.377 . S
C3 C4 1.395 . S
C3 H32 0.931 . S
C4 C3 1.395 . S
C4 C5 1.383 . S
C4 H33 0.931 . S
C5 C4 1.383 . S
C5 C6 1.394 . S
C6 C5 1.394 . S
C6 C7 1.378 . S
C6 H34 0.931 . S
C7 C2 1.377 . S
C7 C6 1.378 . S
C7 H35 0.931 . S
C8 O22 1.259 . S
C8 O23 1.270 . S
C9 O24 1.251 . S
C9 O25 1.251 . S
C10 Eu11 2.835 . S
C10 C12 1.500 . S
C10 O26 1.257 . S
C10 O27 1.260 . S
Eu11 C10 2.835 . S
Eu11 O23 2.355 . S
Eu11 O25 2.374 . S
Eu11 O26 2.473 . S
Eu11 O27 2.480 . S
Eu11 O28 2.430 . S
Eu11 O29 2.670 . S
Eu11 O30 2.394 . S
C12 C10 1.500 . S
C12 C13 1.377 . S
C12 C17 1.377 . S
C13 C12 1.377 . S
C13 C14 1.395 . S
C13 H36 0.931 . S
C14 C13 1.395 . S
C14 C15 1.383 . S
C14 H37 0.931 . S
C15 C14 1.383 . S
C15 C16 1.394 . S
C16 C15 1.394 . S
C16 C17 1.378 . S
C16 H38 0.931 . S
C17 C12 1.377 . S
C17 C16 1.378 . S
C17 H39 0.931 . S
C18 O28 1.259 . S
C18 O29 1.270 . S
C19 O30 1.251 . S
C19 O31 1.251 . S
O20 C0 1.257 . S
O20 Eu1 2.473 . S
O21 C0 1.260 . S
O21 Eu1 2.480 . S
O22 Eu1 2.430 . S
O22 C8 1.259 . S
O23 Eu1 2.670 . S
O23 C8 1.270 . S
O23 Eu11 2.355 . S
O24 Eu1 2.394 . S
O24 C9 1.251 . S
O25 C9 1.251 . S
O25 Eu11 2.374 . S
O26 C10 1.257 . S
O26 Eu11 2.473 . S
O27 C10 1.260 . S
O27 Eu11 2.480 . S
O28 Eu11 2.430 . S
O28 C18 1.259 . S
O29 Eu1 2.355 . S
O29 Eu11 2.670 . S
O29 C18 1.270 . S
O30 Eu11 2.394 . S
O30 C19 1.251 . S
O31 Eu1 2.374 . S
O31 C19 1.251 . S
H32 C3 0.931 . S
H33 C4 0.931 . S
H34 C6 0.931 . S
H35 C7 0.931 . S
H36 C13 0.931 . S
H37 C14 0.931 . S
H38 C16 0.931 . S
H39 C17 0.931 . S
C40 Eu41 2.835 . S
C40 C42 1.500 . S
C40 O60 1.257 . S
C40 O61 1.260 . S
Eu41 C40 2.835 . S
Eu41 O60 2.473 . S
Eu41 O61 2.480 . S
Eu41 O62 2.430 1_455 S
Eu41 O63 2.670 1_455 S
Eu41 O64 2.394 1_455 S
Eu41 O69 2.355 . S
Eu41 O71 2.374 . S
C42 C40 1.500 . S
C42 C43 1.377 . S
C42 C47 1.377 . S
C43 C42 1.377 . S
C43 C44 1.395 . S
C43 H72 0.931 . S
C44 C43 1.395 . S
C44 C45 1.383 . S
C44 H73 0.931 . S
C45 C44 1.383 . S
C45 C46 1.394 . S
C46 C45 1.394 . S
C46 C47 1.378 . S
C46 H74 0.931 . S
C47 C42 1.377 . S
C47 C46 1.378 . S
C47 H75 0.931 . S
C48 O62 1.259 . S
C48 O63 1.270 . S
C49 O64 1.251 . S
C49 O65 1.251 . S
C50 Eu51 2.835 . S
C50 C52 1.500 . S
C50 O66 1.257 . S
C50 O67 1.260 . S
Eu51 C50 2.835 . S
Eu51 O63 2.355 . S
Eu51 O65 2.374 . S
Eu51 O66 2.473 . S
Eu51 O67 2.480 . S
Eu51 O68 2.430 1_655 S
Eu51 O69 2.670 1_655 S
Eu51 O70 2.394 1_655 S
C52 C50 1.500 . S
C52 C53 1.377 . S
C52 C57 1.377 . S
C53 C52 1.377 . S
C53 C54 1.395 . S
C53 H76 0.931 . S
C54 C53 1.395 . S
C54 C55 1.383 . S
C54 H77 0.931 . S
C55 C54 1.383 . S
C55 C56 1.394 . S
C56 C55 1.394 . S
C56 C57 1.378 . S
C56 H78 0.931 . S
C57 C52 1.377 . S
C57 C56 1.378 . S
C57 H79 0.931 . S
C58 O68 1.259 . S
C58 O69 1.270 . S
C59 O70 1.251 . S
C59 O71 1.251 . S
O60 C40 1.257 . S
O60 Eu41 2.473 . S
O61 C40 1.260 . S
O61 Eu41 2.480 . S
O62 Eu41 2.430 1_655 S
O62 C48 1.259 . S
O63 Eu41 2.670 1_655 S
O63 C48 1.270 . S
O63 Eu51 2.355 . S
O64 Eu41 2.394 1_655 S
O64 C49 1.251 . S
O65 C49 1.251 . S
O65 Eu51 2.374 . S
O66 C50 1.257 . S
O66 Eu51 2.473 . S
O67 C50 1.260 . S
O67 Eu51 2.480 . S
O68 Eu51 2.430 1_455 S
O68 C58 1.259 . S
O69 Eu41 2.355 . S
O69 Eu51 2.670 1_455 S
O69 C58 1.270 . S
O70 Eu51 2.394 1_455 S
O70 C59 1.251 . S
O71 Eu41 2.374 . S
O71 C59 1.251 . S
H72 C43 0.931 . S
H73 C44 0.931 . S
H74 C46 0.931 . S
H75 C47 0.931 . S
H76 C53 0.931 . S
H77 C54 0.931 . S
H78 C56 0.931 . S
H79 C57 0.931 . S
C80 Eu81 2.835 . S
C80 C82 1.500 . S
C80 O100 1.257 . S
C80 O101 1.260 . S
Eu81 C80 2.835 . S
Eu81 O100 2.473 . S
Eu81 O101 2.480 . S
Eu81 O102 2.430 1_556 S
Eu81 O103 2.670 1_556 S
Eu81 O104 2.378 1_556 S
Eu81 O109 2.355 . S
Eu81 O111 2.374 . S
C82 C80 1.500 . S
C82 C83 1.377 . S
C82 C87 1.377 . S
C83 C82 1.377 . S
C83 C84 1.395 . S
C83 H112 0.931 . S
C84 C83 1.395 . S
C84 C85 1.383 . S
C84 H113 0.931 . S
C85 C84 1.383 . S
C85 C86 1.394 . S
C86 C85 1.394 . S
C86 C87 1.378 . S
C86 H114 0.931 . S
C87 C82 1.377 . S
C87 C86 1.378 . S
C87 H115 0.931 . S
C88 O102 1.259 . S
C88 O103 1.270 . S
C89 O104 1.265 . S
C89 O105 1.251 . S
C90 Eu91 2.835 . S
C90 C92 1.500 . S
C90 O106 1.257 . S
C90 O107 1.260 . S
Eu91 C90 2.835 . S
Eu91 O103 2.355 . S
Eu91 O105 2.374 . S
Eu91 O106 2.473 . S
Eu91 O107 2.480 . S
Eu91 O108 2.430 1_554 S
Eu91 O109 2.670 1_554 S
Eu91 O110 2.394 1_554 S
C92 C90 1.500 . S
C92 C93 1.377 . S
C92 C97 1.377 . S
C93 C92 1.377 . S
C93 C94 1.395 . S
C93 H116 0.931 . S
C94 C93 1.395 . S
C94 C95 1.383 . S
C94 H117 0.931 . S
C95 C94 1.383 . S
C95 C96 1.394 . S
C96 C95 1.394 . S
C96 C97 1.378 . S
C96 H118 0.931 . S
C97 C92 1.377 . S
C97 C96 1.378 . S
C97 H119 0.931 . S
C98 O108 1.259 . S
C98 O109 1.270 . S
C99 O110 1.251 . S
C99 O111 1.251 . S
O100 C80 1.257 . S
O100 Eu81 2.473 . S
O101 C80 1.260 . S
O101 Eu81 2.480 . S
O102 Eu81 2.430 1_554 S
O102 C88 1.259 . S
O103 Eu81 2.670 1_554 S
O103 C88 1.270 . S
O103 Eu91 2.355 . S
O104 Eu81 2.378 1_554 S
O104 C89 1.265 . S
O105 C89 1.251 . S
O105 Eu91 2.374 . S
O106 C90 1.257 . S
O106 Eu91 2.473 . S
O107 C90 1.260 . S
O107 Eu91 2.480 . S
O108 Eu91 2.430 1_556 S
O108 C98 1.259 . S
O109 Eu81 2.355 . S
O109 Eu91 2.670 1_556 S
O109 C98 1.270 . S
O110 Eu91 2.394 1_556 S
O110 C99 1.251 . S
O111 Eu81 2.374 . S
O111 C99 1.251 . S
H112 C83 0.931 . S
H113 C84 0.931 . S
H114 C86 0.931 . S
H115 C87 0.931 . S
H116 C93 0.931 . S
H117 C94 0.931 . S
H118 C96 0.931 . S
H119 C97 0.931 . S
C120 Eu121 2.835 . S
C120 C122 1.500 . S
C120 O140 1.257 . S
C120 O141 1.260 . S
Eu121 C120 2.835 . S
Eu121 O140 2.473 . S
Eu121 O141 2.480 . S
Eu121 O142 2.430 . S
Eu121 O143 2.670 . S
Eu121 O144 2.394 . S
Eu121 O149 2.355 . S
Eu121 O151 2.374 . S
C122 C120 1.500 . S
C122 C123 1.377 . S
C122 C127 1.377 . S
C123 C122 1.377 . S
C123 C124 1.395 . S
C123 H152 0.931 . S
C124 C123 1.395 . S
C124 C125 1.383 . S
C124 H153 0.931 . S
C125 C124 1.383 . S
C125 C126 1.394 . S
C126 C125 1.394 . S
C126 C127 1.378 . S
C126 H154 0.931 . S
C127 C122 1.377 . S
C127 C126 1.378 . S
C127 H155 0.931 . S
C128 O142 1.259 . S
C128 O143 1.270 . S
C129 O144 1.251 . S
C129 O145 1.251 . S
C130 Eu131 2.835 . S
C130 C132 1.500 . S
C130 O146 1.257 . S
C130 O147 1.260 . S
Eu131 C130 2.835 . S
Eu131 O143 2.355 . S
Eu131 O145 2.374 . S
Eu131 O146 2.473 . S
Eu131 O147 2.480 . S
Eu131 O148 2.430 . S
Eu131 O149 2.670 . S
Eu131 O150 2.394 . S
C132 C130 1.500 . S
C132 C133 1.377 . S
C132 C137 1.377 . S
C133 C132 1.377 . S
C133 C134 1.395 . S
C133 H156 0.931 . S
C134 C133 1.395 . S
C134 C135 1.383 . S
C134 H157 0.931 . S
C135 C134 1.383 . S
C135 C136 1.394 . S
C136 C135 1.394 . S
C136 C137 1.378 . S
C136 H158 0.931 . S
C137 C132 1.377 . S
C137 C136 1.378 . S
C137 H159 0.931 . S
C138 O148 1.259 . S
C138 O149 1.270 . S
C139 O150 1.251 . S
C139 O151 1.251 . S
O140 C120 1.257 . S
O140 Eu121 2.473 . S
O141 C120 1.260 . S
O141 Eu121 2.480 . S
O142 Eu121 2.430 . S
O142 C128 1.259 . S
O143 Eu121 2.670 . S
O143 C128 1.270 . S
O143 Eu131 2.355 . S
O144 Eu121 2.394 . S
O144 C129 1.251 . S
O145 C129 1.251 . S
O145 Eu131 2.374 . S
O146 C130 1.257 . S
O146 Eu131 2.473 . S
O147 C130 1.260 . S
O147 Eu131 2.480 . S
O148 Eu131 2.430 . S
O148 C138 1.259 . S
O149 Eu121 2.355 . S
O149 Eu131 2.670 . S
O149 C138 1.270 . S
O150 Eu131 2.394 . S
O150 C139 1.251 . S
O151 Eu121 2.374 . S
O151 C139 1.251 . S
H152 C123 0.931 . S
H153 C124 0.931 . S
H154 C126 0.931 . S
H155 C127 0.931 . S
H156 C133 0.931 . S
H157 C134 0.931 . S
H158 C136 0.931 . S
H159 C137 0.931 . S
C160 Eu161 2.835 . S
C160 C162 1.500 . S
C160 O180 1.257 . S
C160 O181 1.260 . S
Eu161 C160 2.835 . S
Eu161 O180 2.473 . S
Eu161 O181 2.480 . S
Eu161 O182 2.430 . S
Eu161 O183 2.670 . S
Eu161 O184 2.394 . S
Eu161 O189 2.355 . S
Eu161 O191 2.374 . S
C162 C160 1.500 . S
C162 C163 1.377 . S
C162 C167 1.377 . S
C163 C162 1.377 . S
C163 C164 1.395 . S
C163 H192 0.931 . S
C164 C163 1.395 . S
C164 C165 1.383 . S
C164 H193 0.931 . S
C165 C164 1.383 . S
C165 C166 1.394 . S
C166 C165 1.394 . S
C166 C167 1.378 . S
C166 H194 0.931 . S
C167 C162 1.377 . S
C167 C166 1.378 . S
C167 H195 0.931 . S
C168 O182 1.259 . S
C168 O183 1.270 . S
C169 O184 1.251 . S
C169 O185 1.251 . S
C170 Eu171 2.835 . S
C170 C172 1.500 . S
C170 O186 1.257 . S
C170 O187 1.260 . S
Eu171 C170 2.835 . S
Eu171 O183 2.355 . S
Eu171 O185 2.374 . S
Eu171 O186 2.473 . S
Eu171 O187 2.480 . S
Eu171 O188 2.430 . S
Eu171 O189 2.670 . S
Eu171 O190 2.394 . S
C172 C170 1.500 . S
C172 C173 1.377 . S
C172 C177 1.377 . S
C173 C172 1.377 . S
C173 C174 1.395 . S
C173 H196 0.931 . S
C174 C173 1.395 . S
C174 C175 1.383 . S
C174 H197 0.931 . S
C175 C174 1.383 . S
C175 C176 1.394 . S
C176 C175 1.394 . S
C176 C177 1.378 . S
C176 H198 0.931 . S
C177 C172 1.377 . S
C177 C176 1.378 . S
C177 H199 0.931 . S
C178 O188 1.259 . S
C178 O189 1.270 . S
C179 O190 1.251 . S
C179 O191 1.251 . S
O180 C160 1.257 . S
O180 Eu161 2.473 . S
O181 C160 1.260 . S
O181 Eu161 2.480 . S
O182 Eu161 2.430 . S
O182 C168 1.259 . S
O183 Eu161 2.670 . S
O183 C168 1.270 . S
O183 Eu171 2.355 . S
O184 Eu161 2.394 . S
O184 C169 1.251 . S
O185 C169 1.251 . S
O185 Eu171 2.374 . S
O186 C170 1.257 . S
O186 Eu171 2.473 . S
O187 C170 1.260 . S
O187 Eu171 2.480 . S
O188 Eu171 2.430 . S
O188 C178 1.259 . S
O189 Eu161 2.355 . S
O189 Eu171 2.670 . S
O189 C178 1.270 . S
O190 Eu171 2.394 . S
O190 C179 1.251 . S
O191 Eu161 2.374 . S
O191 C179 1.251 . S
H192 C163 0.931 . S
H193 C164 0.931 . S
H194 C166 0.931 . S
H195 C167 0.931 . S
H196 C173 0.931 . S
H197 C174 0.931 . S
H198 C176 0.931 . S
H199 C177 0.931 . S
C200 Eu201 2.835 . S
C200 C202 1.500 . S
C200 O220 1.257 . S
C200 O221 1.260 . S
Eu201 C200 2.835 . S
Eu201 O220 2.473 . S
Eu201 O221 2.480 . S
Eu201 O222 2.430 . S
Eu201 O223 2.670 . S
Eu201 O224 2.394 . S
Eu201 O229 2.355 1_455 S
Eu201 O231 2.374 1_455 S
C202 C200 1.500 . S
C202 C203 1.377 . S
C202 C207 1.377 . S
C203 C202 1.377 . S
C203 C204 1.395 . S
C203 H232 0.931 . S
C204 C203 1.395 . S
C204 C205 1.383 . S
C204 H233 0.931 . S
C205 C204 1.383 . S
C205 C206 1.394 . S
C206 C205 1.394 . S
C206 C207 1.378 . S
C206 H234 0.931 . S
C207 C202 1.377 . S
C207 C206 1.378 . S
C207 H235 0.931 . S
C208 O222 1.259 . S
C208 O223 1.270 . S
C209 O224 1.251 . S
C209 O225 1.251 . S
C210 Eu211 2.835 . S
C210 C212 1.500 . S
C210 O226 1.257 . S
C210 O227 1.260 . S
Eu211 C210 2.835 . S
Eu211 O223 2.355 1_655 S
Eu211 O225 2.374 1_655 S
Eu211 O226 2.473 . S
Eu211 O227 2.480 . S
Eu211 O228 2.430 . S
Eu211 O229 2.670 . S
Eu211 O230 2.394 . S
C212 C210 1.500 . S
C212 C213 1.377 . S
C212 C217 1.377 . S
C213 C212 1.377 . S
C213 C214 1.395 . S
C213 H236 0.931 . S
C214 C213 1.395 . S
C214 C215 1.383 . S
C214 H237 0.931 . S
C215 C214 1.383 . S
C215 C216 1.394 . S
C216 C215 1.394 . S
C216 C217 1.378 . S
C216 H238 0.931 . S
C217 C212 1.377 . S
C217 C216 1.378 . S
C217 H239 0.931 . S
C218 O228 1.259 . S
C218 O229 1.270 . S
C219 O230 1.251 . S
C219 O231 1.251 . S
O220 C200 1.257 . S
O220 Eu201 2.473 . S
O221 C200 1.260 . S
O221 Eu201 2.480 . S
O222 Eu201 2.430 . S
O222 C208 1.259 . S
O223 Eu201 2.670 . S
O223 C208 1.270 . S
O223 Eu211 2.355 1_455 S
O224 Eu201 2.394 . S
O224 C209 1.251 . S
O225 C209 1.251 . S
O225 Eu211 2.374 1_455 S
O226 C210 1.257 . S
O226 Eu211 2.473 . S
O227 C210 1.260 . S
O227 Eu211 2.480 . S
O228 Eu211 2.430 . S
O228 C218 1.259 . S
O229 Eu201 2.355 1_655 S
O229 Eu211 2.670 . S
O229 C218 1.270 . S
O230 Eu211 2.394 . S
O230 C219 1.251 . S
O231 Eu201 2.374 1_655 S
O231 C219 1.251 . S
H232 C203 0.931 . S
H233 C204 0.931 . S
H234 C206 0.931 . S
H235 C207 0.931 . S
H236 C213 0.931 . S
H237 C214 0.931 . S
H238 C216 0.931 . S
H239 C217 0.931 . S
C240 Eu241 2.835 . S
C240 C242 1.500 . S
C240 O260 1.257 . S
C240 O261 1.260 . S
Eu241 C240 2.835 . S
Eu241 O260 2.473 . S
Eu241 O261 2.480 . S
Eu241 O262 2.430 . S
Eu241 O263 2.670 1_556 S
Eu241 O264 2.394 . S
Eu241 O269 2.355 1_556 S
Eu241 O271 2.374 1_556 S
C242 C240 1.500 . S
C242 C243 1.377 . S
C242 C247 1.377 . S
C243 C242 1.377 . S
C243 C244 1.395 . S
C243 H272 0.931 . S
C244 C243 1.395 . S
C244 C245 1.383 . S
C244 H273 0.931 . S
C245 C244 1.383 . S
C245 C246 1.394 . S
C246 C245 1.394 . S
C246 C247 1.378 . S
C246 H274 0.931 . S
C247 C242 1.377 . S
C247 C246 1.378 . S
C247 H275 0.931 . S
C248 O262 1.259 . S
C248 O263 1.270 1_556 S
C249 O264 1.251 . S
C249 O265 1.251 . S
C250 Eu251 2.835 . S
C250 C252 1.500 . S
C250 O266 1.257 . S
C250 O267 1.260 . S
Eu251 C250 2.835 . S
Eu251 O263 2.355 . S
Eu251 O265 2.374 1_554 S
Eu251 O266 2.473 . S
Eu251 O267 2.480 . S
Eu251 O268 2.430 . S
Eu251 O269 2.670 . S
Eu251 O270 2.394 . S
C252 C250 1.500 . S
C252 C253 1.377 . S
C252 C257 1.377 . S
C253 C252 1.377 . S
C253 C254 1.395 . S
C253 H276 0.931 . S
C254 C253 1.395 . S
C254 C255 1.383 . S
C254 H277 0.931 . S
C255 C254 1.383 . S
C255 C256 1.394 . S
C256 C255 1.394 . S
C256 C257 1.378 . S
C256 H278 0.931 . S
C257 C252 1.377 . S
C257 C256 1.378 . S
C257 H279 0.931 . S
C258 O268 1.259 . S
C258 O269 1.270 . S
C259 O270 1.251 . S
C259 O271 1.251 . S
O260 C240 1.257 . S
O260 Eu241 2.473 . S
O261 C240 1.260 . S
O261 Eu241 2.480 . S
O262 Eu241 2.430 . S
O262 C248 1.259 . S
O263 Eu241 2.670 1_554 S
O263 C248 1.270 1_554 S
O263 Eu251 2.355 . S
O264 Eu241 2.394 . S
O264 C249 1.251 . S
O265 C249 1.251 . S
O265 Eu251 2.374 1_556 S
O266 C250 1.257 . S
O266 Eu251 2.473 . S
O267 C250 1.260 . S
O267 Eu251 2.480 . S
O268 Eu251 2.430 . S
O268 C258 1.259 . S
O269 Eu241 2.355 1_554 S
O269 Eu251 2.670 . S
O269 C258 1.270 . S
O270 Eu251 2.394 . S
O270 C259 1.251 . S
O271 Eu241 2.374 1_554 S
O271 C259 1.251 . S
H272 C243 0.931 . S
H273 C244 0.931 . S
H274 C246 0.931 . S
H275 C247 0.931 . S
H276 C253 0.931 . S
H277 C254 0.931 . S
H278 C256 0.931 . S
H279 C257 0.931 . S
C280 Eu281 2.835 . S
C280 C282 1.500 . S
C280 O300 1.257 . S
C280 O301 1.260 . S
Eu281 C280 2.835 . S
Eu281 O300 2.473 . S
Eu281 O301 2.480 . S
Eu281 O302 2.430 . S
Eu281 O303 2.670 . S
Eu281 O304 2.394 . S
Eu281 O309 2.355 . S
Eu281 O311 2.374 . S
C282 C280 1.500 . S
C282 C283 1.377 . S
C282 C287 1.377 . S
C283 C282 1.377 . S
C283 C284 1.395 . S
C283 H312 0.931 . S
C284 C283 1.395 . S
C284 C285 1.383 . S
C284 H313 0.931 . S
C285 C284 1.383 . S
C285 C286 1.394 . S
C286 C285 1.394 . S
C286 C287 1.378 . S
C286 H314 0.931 . S
C287 C282 1.377 . S
C287 C286 1.378 . S
C287 H315 0.931 . S
C288 O302 1.259 . S
C288 O303 1.270 . S
C289 O304 1.251 . S
C289 O305 1.251 . S
C290 Eu291 2.835 . S
C290 C292 1.500 . S
C290 O306 1.257 . S
C290 O307 1.260 . S
Eu291 C290 2.835 . S
Eu291 O303 2.355 . S
Eu291 O305 2.374 . S
Eu291 O306 2.473 . S
Eu291 O307 2.480 . S
Eu291 O308 2.430 . S
Eu291 O309 2.670 . S
Eu291 O310 2.394 . S
C292 C290 1.500 . S
C292 C293 1.377 . S
C292 C297 1.377 . S
C293 C292 1.377 . S
C293 C294 1.395 . S
C293 H316 0.931 . S
C294 C293 1.395 . S
C294 C295 1.383 . S
C294 H317 0.931 . S
C295 C294 1.383 . S
C295 C296 1.394 . S
C296 C295 1.394 . S
C296 C297 1.378 . S
C296 H318 0.931 . S
C297 C292 1.377 . S
C297 C296 1.378 . S
C297 H319 0.931 . S
C298 O308 1.259 . S
C298 O309 1.270 . S
C299 O310 1.251 . S
C299 O311 1.251 . S
O300 C280 1.257 . S
O300 Eu281 2.473 . S
O301 C280 1.260 . S
O301 Eu281 2.480 . S
O302 Eu281 2.430 . S
O302 C288 1.259 . S
O303 Eu281 2.670 . S
O303 C288 1.270 . S
O303 Eu291 2.355 . S
O304 Eu281 2.394 . S
O304 C289 1.251 . S
O305 C289 1.251 . S
O305 Eu291 2.374 . S
O306 C290 1.257 . S
O306 Eu291 2.473 . S
O307 C290 1.260 . S
O307 Eu291 2.480 . S
O308 Eu291 2.430 . S
O308 C298 1.259 . S
O309 Eu281 2.355 . S
O309 Eu291 2.670 . S
O309 C298 1.270 . S
O310 Eu291 2.394 . S
O310 C299 1.251 . S
O311 Eu281 2.374 . S
O311 C299 1.251 . S
H312 C283 0.931 . S
H313 C284 0.931 . S
H314 C286 0.931 . S
H315 C287 0.931 . S
H316 C293 0.931 . S
H317 C294 0.931 . S
H318 C296 0.931 . S
H319 C297 0.931 . S
C320 Eu321 2.835 . S
C320 C322 1.500 . S
C320 O340 1.257 . S
C320 O341 1.260 . S
Eu321 C320 2.835 . S
Eu321 O340 2.473 . S
Eu321 O341 2.480 . S
Eu321 O342 2.430 . S
Eu321 O343 2.670 . S
Eu321 O344 2.394 . S
Eu321 O349 2.355 . S
Eu321 O351 2.374 . S
C322 C320 1.500 . S
C322 C323 1.377 . S
C322 C327 1.377 . S
C323 C322 1.377 . S
C323 C324 1.395 . S
C323 H352 0.931 . S
C324 C323 1.395 . S
C324 C325 1.383 . S
C324 H353 0.931 . S
C325 C324 1.383 . S
C325 C326 1.394 . S
C326 C325 1.394 . S
C326 C327 1.378 . S
C326 H354 0.931 . S
C327 C322 1.377 . S
C327 C326 1.378 . S
C327 H355 0.931 . S
C328 O342 1.259 . S
C328 O343 1.270 . S
C329 O344 1.251 . S
C329 O345 1.251 . S
C330 Eu331 2.835 . S
C330 C332 1.500 . S
C330 O346 1.257 . S
C330 O347 1.260 . S
Eu331 C330 2.835 . S
Eu331 O343 2.355 . S
Eu331 O345 2.374 . S
Eu331 O346 2.473 . S
Eu331 O347 2.480 . S
Eu331 O348 2.430 . S
Eu331 O349 2.670 . S
Eu331 O350 2.394 . S
C332 C330 1.500 . S
C332 C333 1.377 . S
C332 C337 1.377 . S
C333 C332 1.377 . S
C333 C334 1.395 . S
C333 H356 0.931 . S
C334 C333 1.395 . S
C334 C335 1.383 . S
C334 H357 0.931 . S
C335 C334 1.383 . S
C335 C336 1.394 . S
C336 C335 1.394 . S
C336 C337 1.378 . S
C336 H358 0.931 . S
C337 C332 1.377 . S
C337 C336 1.378 . S
C337 H359 0.931 . S
C338 O348 1.259 . S
C338 O349 1.270 . S
C339 O350 1.251 . S
C339 O351 1.251 . S
O340 C320 1.257 . S
O340 Eu321 2.473 . S
O341 C320 1.260 . S
O341 Eu321 2.480 . S
O342 Eu321 2.430 . S
O342 C328 1.259 . S
O343 Eu321 2.670 . S
O343 C328 1.270 . S
O343 Eu331 2.355 . S
O344 Eu321 2.394 . S
O344 C329 1.251 . S
O345 C329 1.251 . S
O345 Eu331 2.374 . S
O346 C330 1.257 . S
O346 Eu331 2.473 . S
O347 C330 1.260 . S
O347 Eu331 2.480 . S
O348 Eu331 2.430 . S
O348 C338 1.259 . S
O349 Eu321 2.355 . S
O349 Eu331 2.670 . S
O349 C338 1.270 . S
O350 Eu331 2.394 . S
O350 C339 1.251 . S
O351 Eu321 2.374 . S
O351 C339 1.251 . S
H352 C323 0.931 . S
H353 C324 0.931 . S
H354 C326 0.931 . S
H355 C327 0.931 . S
H356 C333 0.931 . S
H357 C334 0.931 . S
H358 C336 0.931 . S
H359 C337 0.931 . S
C360 Eu361 2.835 . S
C360 C362 1.500 . S
C360 O380 1.257 . S
C360 O381 1.260 . S
Eu361 C360 2.835 . S
Eu361 O380 2.473 . S
Eu361 O381 2.480 . S
Eu361 O382 2.430 . S
Eu361 O383 2.670 1_565 S
Eu361 O384 2.394 . S
Eu361 O389 2.355 1_565 S
Eu361 O391 2.374 1_565 S
C362 C360 1.500 . S
C362 C363 1.377 . S
C362 C367 1.377 . S
C363 C362 1.377 . S
C363 C364 1.395 . S
C363 H392 0.931 . S
C364 C363 1.395 . S
C364 C365 1.383 . S
C364 H393 0.931 . S
C365 C364 1.383 . S
C365 C366 1.394 . S
C366 C365 1.394 . S
C366 C367 1.378 . S
C366 H394 0.931 . S
C367 C362 1.377 . S
C367 C366 1.378 . S
C367 H395 0.931 . S
C368 O382 1.259 . S
C368 O383 1.270 1_565 S
C369 O384 1.251 . S
C369 O385 1.251 . S
C370 Eu371 2.835 . S
C370 C372 1.500 . S
C370 O386 1.257 . S
C370 O387 1.260 . S
Eu371 C370 2.835 . S
Eu371 O383 2.355 . S
Eu371 O385 2.374 1_545 S
Eu371 O386 2.473 . S
Eu371 O387 2.480 . S
Eu371 O388 2.430 . S
Eu371 O389 2.670 . S
Eu371 O390 2.394 . S
C372 C370 1.500 . S
C372 C373 1.377 . S
C372 C377 1.377 . S
C373 C372 1.377 . S
C373 C374 1.395 . S
C373 H396 0.931 . S
C374 C373 1.395 . S
C374 C375 1.383 . S
C374 H397 0.931 . S
C375 C374 1.383 . S
C375 C376 1.394 . S
C376 C375 1.394 . S
C376 C377 1.378 . S
C376 H398 0.931 . S
C377 C372 1.377 . S
C377 C376 1.378 . S
C377 H399 0.931 . S
C378 O388 1.259 . S
C378 O389 1.270 . S
C379 O390 1.251 . S
C379 O391 1.251 . S
O380 C360 1.257 . S
O380 Eu361 2.473 . S
O381 C360 1.260 . S
O381 Eu361 2.480 . S
O382 Eu361 2.430 . S
O382 C368 1.259 . S
O383 Eu361 2.670 1_545 S
O383 C368 1.270 1_545 S
O383 Eu371 2.355 . S
O384 Eu361 2.394 . S
O384 C369 1.251 . S
O385 C369 1.251 . S
O385 Eu371 2.374 1_565 S
O386 C370 1.257 . S
O386 Eu371 2.473 . S
O387 C370 1.260 . S
O387 Eu371 2.480 . S
O388 Eu371 2.430 . S
O388 C378 1.259 . S
O389 Eu361 2.355 1_545 S
O389 Eu371 2.670 . S
O389 C378 1.270 . S
O390 Eu371 2.394 . S
O390 C379 1.251 . S
O391 Eu361 2.374 1_545 S
O391 C379 1.251 . S
H392 C363 0.931 . S
H393 C364 0.931 . S
H394 C366 0.931 . S
H395 C367 0.931 . S
H396 C373 0.931 . S
H397 C374 0.931 . S
H398 C376 0.931 . S
H399 C377 0.931 . S
C400 Eu401 2.835 . S
C400 C402 1.500 . S
C400 O420 1.257 . S
C400 O421 1.260 . S
Eu401 C400 2.835 . S
Eu401 O420 2.473 . S
Eu401 O421 2.480 . S
Eu401 O422 2.430 . S
Eu401 O423 2.670 . S
Eu401 O424 2.394 . S
Eu401 O429 2.355 1_545 S
Eu401 O431 2.374 1_545 S
C402 C400 1.500 . S
C402 C403 1.377 . S
C402 C407 1.377 . S
C403 C402 1.377 . S
C403 C404 1.395 . S
C403 H432 0.931 . S
C404 C403 1.395 . S
C404 C405 1.383 . S
C404 H433 0.931 . S
C405 C404 1.383 . S
C405 C406 1.394 . S
C406 C405 1.394 . S
C406 C407 1.378 . S
C406 H434 0.931 . S
C407 C402 1.377 . S
C407 C406 1.378 . S
C407 H435 0.931 . S
C408 O422 1.259 . S
C408 O423 1.270 . S
C409 O424 1.251 . S
C409 O425 1.251 . S
C410 Eu411 2.835 . S
C410 C412 1.500 . S
C410 O426 1.257 . S
C410 O427 1.260 . S
Eu411 C410 2.835 . S
Eu411 O423 2.355 1_565 S
Eu411 O425 2.374 1_565 S
Eu411 O426 2.473 . S
Eu411 O427 2.480 . S
Eu411 O428 2.430 . S
Eu411 O429 2.670 . S
Eu411 O430 2.394 . S
C412 C410 1.500 . S
C412 C413 1.377 . S
C412 C417 1.377 . S
C413 C412 1.377 . S
C413 C414 1.395 . S
C413 H436 0.931 . S
C414 C413 1.395 . S
C414 C415 1.383 . S
C414 H437 0.931 . S
C415 C414 1.383 . S
C415 C416 1.394 . S
C416 C415 1.394 . S
C416 C417 1.378 . S
C416 H438 0.931 . S
C417 C412 1.377 . S
C417 C416 1.378 . S
C417 H439 0.931 . S
C418 O428 1.259 . S
C418 O429 1.270 . S
C419 O430 1.251 . S
C419 O431 1.251 . S
O420 C400 1.257 . S
O420 Eu401 2.473 . S
O421 C400 1.260 . S
O421 Eu401 2.480 . S
O422 Eu401 2.430 . S
O422 C408 1.259 . S
O423 Eu401 2.670 . S
O423 C408 1.270 . S
O423 Eu411 2.355 1_545 S
O424 Eu401 2.394 . S
O424 C409 1.251 . S
O425 C409 1.251 . S
O425 Eu411 2.374 1_545 S
O426 C410 1.257 . S
O426 Eu411 2.473 . S
O427 C410 1.260 . S
O427 Eu411 2.480 . S
O428 Eu411 2.430 . S
O428 C418 1.259 . S
O429 Eu401 2.355 1_565 S
O429 Eu411 2.670 . S
O429 C418 1.270 . S
O430 Eu411 2.394 . S
O430 C419 1.251 . S
O431 Eu401 2.374 1_565 S
O431 C419 1.251 . S
H432 C403 0.931 . S
H433 C404 0.931 . S
H434 C406 0.931 . S
H435 C407 0.931 . S
H436 C413 0.931 . S
H437 C414 0.931 . S
H438 C416 0.931 . S
H439 C417 0.931 . S
C440 Eu441 2.835 . S
C440 C442 1.500 . S
C440 O460 1.257 . S
C440 O461 1.260 . S
Eu441 C440 2.835 . S
Eu441 O460 2.473 . S
Eu441 O461 2.480 . S
Eu441 O462 2.430 . S
Eu441 O463 2.670 . S
Eu441 O464 2.394 . S
Eu441 O469 2.355 . S
Eu441 O471 2.374 . S
C442 C440 1.500 . S
C442 C443 1.377 . S
C442 C447 1.377 . S
C443 C442 1.377 . S
C443 C444 1.395 . S
C443 H472 0.931 . S
C444 C443 1.395 . S
C444 C445 1.383 . S
C444 H473 0.931 . S
C445 C444 1.383 . S
C445 C446 1.394 . S
C446 C445 1.394 . S
C446 C447 1.378 . S
C446 H474 0.931 . S
C447 C442 1.377 . S
C447 C446 1.378 . S
C447 H475 0.931 . S
C448 O462 1.259 . S
C448 O463 1.270 . S
C449 O464 1.251 . S
C449 O465 1.251 . S
C450 Eu451 2.835 . S
C450 C452 1.500 . S
C450 O466 1.257 . S
C450 O467 1.260 . S
Eu451 C450 2.835 . S
Eu451 O463 2.355 . S
Eu451 O465 2.374 . S
Eu451 O466 2.473 . S
Eu451 O467 2.480 . S
Eu451 O468 2.430 . S
Eu451 O469 2.670 . S
Eu451 O470 2.394 . S
C452 C450 1.500 . S
C452 C453 1.377 . S
C452 C457 1.377 . S
C453 C452 1.377 . S
C453 C454 1.395 . S
C453 H476 0.931 . S
C454 C453 1.395 . S
C454 C455 1.383 . S
C454 H477 0.931 . S
C455 C454 1.383 . S
C455 C456 1.394 . S
C456 C455 1.394 . S
C456 C457 1.378 . S
C456 H478 0.931 . S
C457 C452 1.377 . S
C457 C456 1.378 . S
C457 H479 0.931 . S
C458 O468 1.259 . S
C458 O469 1.270 . S
C459 O470 1.251 . S
C459 O471 1.251 . S
O460 C440 1.257 . S
O460 Eu441 2.473 . S
O461 C440 1.260 . S
O461 Eu441 2.480 . S
O462 Eu441 2.430 . S
O462 C448 1.259 . S
O463 Eu441 2.670 . S
O463 C448 1.270 . S
O463 Eu451 2.355 . S
O464 Eu441 2.394 . S
O464 C449 1.251 . S
O465 C449 1.251 . S
O465 Eu451 2.374 . S
O466 C450 1.257 . S
O466 Eu451 2.473 . S
O467 C450 1.260 . S
O467 Eu451 2.480 . S
O468 Eu451 2.430 . S
O468 C458 1.259 . S
O469 Eu441 2.355 . S
O469 Eu451 2.670 . S
O469 C458 1.270 . S
O470 Eu451 2.394 . S
O470 C459 1.251 . S
O471 Eu441 2.374 . S
O471 C459 1.251 . S
H472 C443 0.931 . S
H473 C444 0.931 . S
H474 C446 0.931 . S
H475 C447 0.931 . S
H476 C453 0.931 . S
H477 C454 0.931 . S
H478 C456 0.931 . S
H479 C457 0.931 . S
H480 C486 0.930 . S
H481 C489 0.930 . S
H482 C490 0.930 . S
H483 C491 0.930 . S
H484 C494 0.930 . S
H485 C495 0.930 . S
C486 H480 0.930 . S
C486 C487 1.355 . S
C486 C488 1.415 . S
C487 C486 1.355 . S
C487 C489 1.419 . S
C488 C486 1.415 . S
C488 C493 1.425 . S
C488 C495 1.409 . S
C489 H481 0.930 . S
C489 C487 1.419 . S
C489 C490 1.362 . S
C490 H482 0.930 . S
C490 C489 1.362 . S
C490 C493 1.409 . S
C491 H483 0.930 . S
C491 C492 1.355 . S
C491 C493 1.415 . S
C492 C491 1.355 . S
C492 C494 1.419 . S
C493 C488 1.425 . S
C493 C490 1.409 . S
C493 C491 1.415 . S
C494 H484 0.930 . S
C494 C492 1.419 . S
C494 C495 1.362 . S
C495 H485 0.930 . S
C495 C488 1.409 . S
C495 C494 1.362 . S
H496 C502 0.930 . S
H497 C505 0.930 . S
H498 C506 0.930 . S
H499 C507 0.930 . S
H500 C510 0.930 . S
H501 C511 0.930 . S
C502 H496 0.930 . S
C502 C503 1.355 . S
C502 C504 1.415 . S
C503 C502 1.355 . S
C503 C505 1.419 . S
C504 C502 1.415 . S
C504 C509 1.425 . S
C504 C511 1.409 . S
C505 H497 0.930 . S
C505 C503 1.419 . S
C505 C506 1.362 . S
C506 H498 0.930 . S
C506 C505 1.362 . S
C506 C509 1.409 . S
C507 H499 0.930 . S
C507 C508 1.355 . S
C507 C509 1.415 . S
C508 C507 1.355 . S
C508 C510 1.419 . S
C509 C504 1.425 . S
C509 C506 1.409 . S
C509 C507 1.415 . S
C510 H500 0.930 . S
C510 C508 1.419 . S
C510 C511 1.362 . S
C511 H501 0.930 . S
C511 C504 1.409 . S
C511 C510 1.362 . S
H512 C518 0.930 . S
H513 C521 0.930 . S
H514 C522 0.930 . S
H515 C523 0.930 . S
H516 C526 0.930 . S
H517 C527 0.930 . S
C518 H512 0.930 . S
C518 C519 1.355 . S
C518 C520 1.415 . S
C519 C518 1.355 . S
C519 C521 1.419 . S
C520 C518 1.415 . S
C520 C525 1.425 . S
C520 C527 1.409 . S
C521 H513 0.930 . S
C521 C519 1.419 . S
C521 C522 1.362 . S
C522 H514 0.930 . S
C522 C521 1.362 . S
C522 C525 1.409 . S
C523 H515 0.930 . S
C523 C524 1.355 . S
C523 C525 1.415 . S
C524 C523 1.355 . S
C524 C526 1.419 . S
C525 C520 1.425 . S
C525 C522 1.409 . S
C525 C523 1.415 . S
C526 H516 0.930 . S
C526 C524 1.419 . S
C526 C527 1.362 . S
C527 H517 0.930 . S
C527 C520 1.409 . S
C527 C526 1.362 . S
H528 C534 0.930 . S
H529 C537 0.930 . S
H530 C538 0.930 . S
H531 C539 0.930 . S
H532 C542 0.930 . S
H533 C543 0.930 . S
C534 H528 0.930 . S
C534 C535 1.355 . S
C534 C536 1.415 . S
C535 C534 1.355 . S
C535 C537 1.419 . S
C536 C534 1.415 . S
C536 C541 1.425 . S
C536 C543 1.409 . S
C537 H529 0.930 . S
C537 C535 1.419 . S
C537 C538 1.362 . S
C538 H530 0.930 . S
C538 C537 1.362 . S
C538 C541 1.409 . S
C539 H531 0.930 . S
C539 C540 1.355 . S
C539 C541 1.415 . S
C540 C539 1.355 . S
C540 C542 1.419 . S
C541 C536 1.425 . S
C541 C538 1.409 . S
C541 C539 1.415 . S
C542 H532 0.930 . S
C542 C540 1.419 . S
C542 C543 1.362 . S
C543 H533 0.930 . S
C543 C536 1.409 . S
C543 C542 1.362 . S
H544 C550 0.930 . S
H545 C553 0.930 . S
H546 C554 0.930 . S
H547 C555 0.930 . S
H548 C558 0.930 . S
H549 C559 0.930 . S
C550 H544 0.930 . S
C550 C551 1.355 . S
C550 C552 1.415 . S
C551 C550 1.355 . S
C551 C553 1.419 . S
C552 C550 1.415 . S
C552 C557 1.425 . S
C552 C559 1.409 . S
C553 H545 0.930 . S
C553 C551 1.419 . S
C553 C554 1.362 . S
C554 H546 0.930 . S
C554 C553 1.362 . S
C554 C557 1.409 . S
C555 H547 0.930 . S
C555 C556 1.355 . S
C555 C557 1.415 . S
C556 C555 1.355 . S
C556 C558 1.419 . S
C557 C552 1.425 . S
C557 C554 1.409 . S
C557 C555 1.415 . S
C558 H548 0.930 . S
C558 C556 1.419 . S
C558 C559 1.362 . S
C559 H549 0.930 . S
C559 C552 1.409 . S
C559 C558 1.362 . S
H560 C566 0.930 . S
H561 C569 0.930 . S
H562 C570 0.930 . S
H563 C571 0.930 . S
H564 C574 0.930 . S
H565 C575 0.930 . S
C566 H560 0.930 . S
C566 C567 1.355 . S
C566 C568 1.415 . S
C567 C566 1.355 . S
C567 C569 1.419 . S
C568 C566 1.415 . S
C568 C573 1.425 . S
C568 C575 1.409 . S
C569 H561 0.930 . S
C569 C567 1.419 . S
C569 C570 1.362 . S
C570 H562 0.930 . S
C570 C569 1.362 . S
C570 C573 1.409 . S
C571 H563 0.930 . S
C571 C572 1.355 . S
C571 C573 1.415 . S
C572 C571 1.355 . S
C572 C574 1.419 . S
C573 C568 1.425 . S
C573 C570 1.409 . S
C573 C571 1.415 . S
C574 H564 0.930 . S
C574 C572 1.419 . S
C574 C575 1.362 . S
C575 H565 0.930 . S
C575 C568 1.409 . S
C575 C574 1.362 . S
H576 C582 0.930 . S
H577 C585 0.930 . S
H578 C586 0.930 1_554 S
H579 C587 0.930 1_554 S
H580 C590 0.930 . S
H581 C591 0.930 . S
C582 H576 0.930 . S
C582 C583 1.355 . S
C582 C584 1.415 . S
C583 C582 1.355 . S
C583 C585 1.419 . S
C584 C582 1.415 . S
C584 C589 1.425 . S
C584 C591 1.409 . S
C585 H577 0.930 . S
C585 C583 1.419 . S
C585 C586 1.362 . S
C586 H578 0.930 1_556 S
C586 C585 1.362 . S
C586 C589 1.409 . S
C587 H579 0.930 1_556 S
C587 C588 1.355 . S
C587 C589 1.415 . S
C588 C587 1.355 . S
C588 C590 1.419 . S
C589 C584 1.425 . S
C589 C586 1.409 . S
C589 C587 1.415 . S
C590 H580 0.930 . S
C590 C588 1.419 . S
C590 C591 1.362 . S
C591 H581 0.930 . S
C591 C584 1.409 . S
C591 C590 1.362 . S
H592 C598 0.930 . S
H593 C601 0.930 . S
H594 C602 0.930 . S
H595 C603 0.930 . S
H596 C606 0.930 . S
H597 C607 0.930 . S
C598 H592 0.930 . S
C598 C599 1.355 . S
C598 C600 1.415 . S
C599 C598 1.355 . S
C599 C601 1.419 . S
C600 C598 1.415 . S
C600 C605 1.425 . S
C600 C607 1.409 . S
C601 H593 0.930 . S
C601 C599 1.419 . S
C601 C602 1.362 . S
C602 H594 0.930 . S
C602 C601 1.362 . S
C602 C605 1.409 . S
C603 H595 0.930 . S
C603 C604 1.355 . S
C603 C605 1.415 . S
C604 C603 1.355 . S
C604 C606 1.419 . S
C605 C600 1.425 . S
C605 C602 1.409 . S
C605 C603 1.415 . S
C606 H596 0.930 . S
C606 C604 1.419 . S
C606 C607 1.362 . S
C607 H597 0.930 . S
C607 C600 1.409 . S
C607 C606 1.362 . S
H608 C614 0.930 . S
H609 C617 0.930 . S
H610 C618 0.930 . S
H611 C619 0.930 . S
H612 C622 0.930 . S
H613 C623 0.930 . S
C614 H608 0.930 . S
C614 C615 1.355 . S
C614 C616 1.415 . S
C615 C614 1.355 . S
C615 C617 1.419 . S
C616 C614 1.415 . S
C616 C621 1.425 . S
C616 C623 1.409 . S
C617 H609 0.930 . S
C617 C615 1.419 . S
C617 C618 1.362 . S
C618 H610 0.930 . S
C618 C617 1.362 . S
C618 C621 1.409 . S
C619 H611 0.930 . S
C619 C620 1.355 . S
C619 C621 1.415 . S
C620 C619 1.355 . S
C620 C622 1.419 . S
C621 C616 1.425 . S
C621 C618 1.409 . S
C621 C619 1.415 . S
C622 H612 0.930 . S
C622 C620 1.419 . S
C622 C623 1.362 . S
C623 H613 0.930 . S
C623 C616 1.409 . S
C623 C622 1.362 . S
H624 C630 0.930 . S
H625 C633 0.930 . S
H626 C634 0.930 . S
H627 C635 0.930 . S
H628 C638 0.930 1_655 S
H629 C639 0.930 1_655 S
C630 H624 0.930 . S
C630 C631 1.355 . S
C630 C632 1.415 . S
C631 C630 1.355 . S
C631 C633 1.419 . S
C632 C630 1.415 . S
C632 C637 1.425 . S
C632 C639 1.409 . S
C633 H625 0.930 . S
C633 C631 1.419 . S
C633 C634 1.362 . S
C634 H626 0.930 . S
C634 C633 1.362 . S
C634 C637 1.409 . S
C635 H627 0.930 . S
C635 C636 1.355 . S
C635 C637 1.415 . S
C636 C635 1.355 . S
C636 C638 1.419 . S
C637 C632 1.425 . S
C637 C634 1.409 . S
C637 C635 1.415 . S
C638 H628 0.930 1_455 S
C638 C636 1.419 . S
C638 C639 1.362 . S
C639 H629 0.930 1_455 S
C639 C632 1.409 . S
C639 C638 1.362 . S
H640 C646 0.930 1_455 S
H641 C649 0.930 . S
H642 C650 0.930 . S
H643 C651 0.930 . S
H644 C654 0.930 . S
H645 C655 0.930 1_455 S
C646 H640 0.930 1_655 S
C646 C647 1.355 . S
C646 C648 1.415 . S
C647 C646 1.355 . S
C647 C649 1.419 . S
C648 C646 1.415 . S
C648 C653 1.425 . S
C648 C655 1.409 . S
C649 H641 0.930 . S
C649 C647 1.419 . S
C649 C650 1.362 . S
C650 H642 0.930 . S
C650 C649 1.362 . S
C650 C653 1.409 . S
C651 H643 0.930 . S
C651 C652 1.355 . S
C651 C653 1.415 . S
C652 C651 1.355 . S
C652 C654 1.419 . S
C653 C648 1.425 . S
C653 C650 1.409 . S
C653 C651 1.415 . S
C654 H644 0.930 . S
C654 C652 1.419 . S
C654 C655 1.362 . S
C655 H645 0.930 1_655 S
C655 C648 1.409 . S
C655 C654 1.362 . S
H656 C662 0.930 . S
H657 C665 0.930 . S
H658 C666 0.930 . S
H659 C667 0.930 . S
H660 C670 0.930 . S
H661 C671 0.930 . S
C662 H656 0.930 . S
C662 C663 1.355 . S
C662 C664 1.415 . S
C663 C662 1.355 . S
C663 C665 1.419 . S
C664 C662 1.415 . S
C664 C669 1.425 . S
C664 C671 1.409 . S
C665 H657 0.930 . S
C665 C663 1.419 . S
C665 C666 1.362 . S
C666 H658 0.930 . S
C666 C665 1.362 . S
C666 C669 1.409 . S
C667 H659 0.930 . S
C667 C668 1.355 . S
C667 C669 1.415 . S
C668 C667 1.355 . S
C668 C670 1.419 . S
C669 C664 1.425 . S
C669 C666 1.409 . S
C669 C667 1.415 . S
C670 H660 0.930 . S
C670 C668 1.419 . S
C670 C671 1.362 . S
C671 H661 0.930 . S
C671 C664 1.409 . S
C671 C670 1.362 . S
H672 C678 0.930 . S
H673 C681 0.930 . S
H674 C682 0.930 . S
H675 C683 0.930 . S
H676 C686 0.930 . S
H677 C687 0.930 . S
C678 H672 0.930 . S
C678 C679 1.355 . S
C678 C680 1.415 . S
C679 C678 1.355 . S
C679 C681 1.419 . S
C680 C678 1.415 . S
C680 C685 1.425 . S
C680 C687 1.409 . S
C681 H673 0.930 . S
C681 C679 1.419 . S
C681 C682 1.362 . S
C682 H674 0.930 . S
C682 C681 1.362 . S
C682 C685 1.409 . S
C683 H675 0.930 . S
C683 C684 1.355 . S
C683 C685 1.415 . S
C684 C683 1.355 . S
C684 C686 1.419 . S
C685 C680 1.425 . S
C685 C682 1.409 . S
C685 C683 1.415 . S
C686 H676 0.930 . S
C686 C684 1.419 . S
C686 C687 1.362 . S
C687 H677 0.930 . S
C687 C680 1.409 . S
C687 C686 1.362 . S
H688 C694 0.930 . S
H689 C697 0.930 . S
H690 C698 0.930 . S
H691 C699 0.930 . S
H692 C702 0.930 . S
H693 C703 0.930 . S
C694 H688 0.930 . S
C694 C695 1.355 . S
C694 C696 1.415 . S
C695 C694 1.355 . S
C695 C697 1.419 . S
C696 C694 1.415 . S
C696 C701 1.425 . S
C696 C703 1.409 . S
C697 H689 0.930 . S
C697 C695 1.419 . S
C697 C698 1.362 . S
C698 H690 0.930 . S
C698 C697 1.362 . S
C698 C701 1.409 . S
C699 H691 0.930 . S
C699 C700 1.355 . S
C699 C701 1.415 . S
C700 C699 1.355 . S
C700 C702 1.419 . S
C701 C696 1.425 . S
C701 C698 1.409 . S
C701 C699 1.415 . S
C702 H692 0.930 . S
C702 C700 1.419 . S
C702 C703 1.362 . S
C703 H693 0.930 . S
C703 C696 1.409 . S
C703 C702 1.362 . S
H704 C710 0.930 . S
H705 C713 0.930 . S
H706 C714 0.930 . S
H707 C715 0.930 . S
H708 C718 0.930 . S
H709 C719 0.930 . S
C710 H704 0.930 . S
C710 C711 1.355 . S
C710 C712 1.415 . S
C711 C710 1.355 . S
C711 C713 1.419 . S
C712 C710 1.415 . S
C712 C717 1.425 . S
C712 C719 1.409 . S
C713 H705 0.930 . S
C713 C711 1.419 . S
C713 C714 1.362 . S
C714 H706 0.930 . S
C714 C713 1.362 . S
C714 C717 1.409 . S
C715 H707 0.930 . S
C715 C716 1.355 . S
C715 C717 1.415 . S
C716 C715 1.355 . S
C716 C718 1.419 . S
C717 C712 1.425 . S
C717 C714 1.409 . S
C717 C715 1.415 . S
C718 H708 0.930 . S
C718 C716 1.419 . S
C718 C719 1.362 . S
C719 H709 0.930 . S
C719 C712 1.409 . S
C719 C718 1.362 . S
H720 C726 0.930 . S
H721 C729 0.930 . S
H722 C730 0.934 . S
H723 C731 0.930 . S
H724 C734 0.930 . S
H725 C735 0.930 . S
C726 H720 0.930 . S
C726 C727 1.355 . S
C726 C728 1.415 . S
C727 C726 1.355 . S
C727 C729 1.419 . S
C728 C726 1.415 . S
C728 C733 1.425 . S
C728 C735 1.409 . S
C729 H721 0.930 . S
C729 C727 1.419 . S
C729 C730 1.362 . S
C730 H722 0.934 . S
C730 C729 1.362 . S
C730 C733 1.409 . S
C731 H723 0.930 . S
C731 C732 1.355 . S
C731 C733 1.415 1_556 S
C732 C731 1.355 . S
C732 C734 1.419 . S
C733 C728 1.425 . S
C733 C730 1.409 . S
C733 C731 1.415 1_554 S
C734 H724 0.930 . S
C734 C732 1.419 . S
C734 C735 1.362 1_556 S
C735 H725 0.930 . S
C735 C728 1.409 . S
C735 C734 1.362 1_554 S
H736 C742 0.930 . S
H737 C745 0.930 . S
H738 C746 0.930 . S
H739 C747 0.930 . S
H740 C750 0.930 . S
H741 C751 0.930 . S
C742 H736 0.930 . S
C742 C743 1.355 . S
C742 C744 1.415 . S
C743 C742 1.355 . S
C743 C745 1.419 . S
C744 C742 1.415 . S
C744 C749 1.425 . S
C744 C751 1.409 . S
C745 H737 0.930 . S
C745 C743 1.419 . S
C745 C746 1.362 . S
C746 H738 0.930 . S
C746 C745 1.362 . S
C746 C749 1.409 . S
C747 H739 0.930 . S
C747 C748 1.355 . S
C747 C749 1.415 . S
C748 C747 1.355 . S
C748 C750 1.419 . S
C749 C744 1.425 . S
C749 C746 1.409 . S
C749 C747 1.415 . S
C750 H740 0.930 . S
C750 C748 1.419 . S
C750 C751 1.362 . S
C751 H741 0.930 . S
C751 C744 1.409 . S
C751 C750 1.362 . S
H752 C758 0.930 . S
H753 C761 0.930 . S
H754 C762 0.930 1_556 S
H755 C763 0.930 . S
H756 C766 0.930 . S
H757 C767 0.930 . S
C758 H752 0.930 . S
C758 C759 1.355 . S
C758 C760 1.415 . S
C759 C758 1.355 . S
C759 C761 1.419 . S
C760 C758 1.415 . S
C760 C765 1.425 1_554 S
C760 C767 1.409 1_554 S
C761 H753 0.930 . S
C761 C759 1.419 . S
C761 C762 1.362 . S
C762 H754 0.930 1_554 S
C762 C761 1.362 . S
C762 C765 1.409 1_554 S
C763 H755 0.930 . S
C763 C764 1.355 . S
C763 C765 1.415 . S
C764 C763 1.355 . S
C764 C766 1.419 . S
C765 C760 1.425 1_556 S
C765 C762 1.409 1_556 S
C765 C763 1.415 . S
C766 H756 0.930 . S
C766 C764 1.419 . S
C766 C767 1.362 . S
C767 H757 0.930 . S
C767 C760 1.409 1_556 S
C767 C766 1.362 . S
H768 C774 0.930 . S
H769 C777 0.930 . S
H770 C778 0.930 . S
H771 C779 0.930 . S
H772 C782 0.930 . S
H773 C783 0.930 . S
C774 H768 0.930 . S
C774 C775 1.355 . S
C774 C776 1.415 . S
C775 C774 1.355 . S
C775 C777 1.419 . S
C776 C774 1.415 . S
C776 C781 1.425 . S
C776 C783 1.409 . S
C777 H769 0.930 . S
C777 C775 1.419 . S
C777 C778 1.362 . S
C778 H770 0.930 . S
C778 C777 1.362 . S
C778 C781 1.409 . S
C779 H771 0.930 . S
C779 C780 1.355 . S
C779 C781 1.415 . S
C780 C779 1.355 . S
C780 C782 1.419 . S
C781 C776 1.425 . S
C781 C778 1.409 . S
C781 C779 1.415 . S
C782 H772 0.930 . S
C782 C780 1.419 . S
C782 C783 1.362 . S
C783 H773 0.930 . S
C783 C776 1.409 . S
C783 C782 1.362 . S
H784 C790 0.930 . S
H785 C793 0.930 . S
H786 C794 0.930 . S
H787 C795 0.930 . S
H788 C798 0.930 . S
H789 C799 0.930 . S
C790 H784 0.930 . S
C790 C791 1.355 . S
C790 C792 1.415 . S
C791 C790 1.355 . S
C791 C793 1.419 . S
C792 C790 1.415 . S
C792 C797 1.425 . S
C792 C799 1.409 . S
C793 H785 0.930 . S
C793 C791 1.419 . S
C793 C794 1.362 . S
C794 H786 0.930 . S
C794 C793 1.362 . S
C794 C797 1.409 . S
C795 H787 0.930 . S
C795 C796 1.355 . S
C795 C797 1.415 . S
C796 C795 1.355 . S
C796 C798 1.419 . S
C797 C792 1.425 . S
C797 C794 1.409 . S
C797 C795 1.415 . S
C798 H788 0.930 . S
C798 C796 1.419 . S
C798 C799 1.362 . S
C799 H789 0.930 . S
C799 C792 1.409 . S
C799 C798 1.362 . S
H800 C806 0.930 . S
H801 C809 0.930 . S
H802 C810 0.930 . S
H803 C811 0.930 . S
H804 C814 0.930 . S
H805 C815 0.930 . S
C806 H800 0.930 . S
C806 C807 1.355 . S
C806 C808 1.415 . S
C807 C806 1.355 . S
C807 C809 1.419 . S
C808 C806 1.415 . S
C808 C813 1.425 . S
C808 C815 1.409 . S
C809 H801 0.930 . S
C809 C807 1.419 . S
C809 C810 1.362 . S
C810 H802 0.930 . S
C810 C809 1.362 . S
C810 C813 1.409 . S
C811 H803 0.930 . S
C811 C812 1.355 . S
C811 C813 1.415 . S
C812 C811 1.355 . S
C812 C814 1.419 . S
C813 C808 1.425 . S
C813 C810 1.409 . S
C813 C811 1.415 . S
C814 H804 0.930 . S
C814 C812 1.419 . S
C814 C815 1.362 . S
C815 H805 0.930 . S
C815 C808 1.409 . S
C815 C814 1.362 . S
H816 C822 0.930 . S
H817 C825 0.930 . S
H818 C826 0.930 1_655 S
H819 C827 0.930 1_655 S
H820 C830 0.930 . S
H821 C831 0.930 . S
C822 H816 0.930 . S
C822 C823 1.355 . S
C822 C824 1.415 . S
C823 C822 1.355 . S
C823 C825 1.419 . S
C824 C822 1.415 . S
C824 C829 1.425 . S
C824 C831 1.409 1_545 S
C825 H817 0.930 . S
C825 C823 1.419 . S
C825 C826 1.362 . S
C826 H818 0.930 1_455 S
C826 C825 1.362 . S
C826 C829 1.409 . S
C827 H819 0.930 1_455 S
C827 C828 1.355 . S
C827 C829 1.415 1_565 S
C828 C827 1.355 . S
C828 C830 1.419 . S
C829 C824 1.425 . S
C829 C826 1.409 . S
C829 C827 1.415 1_545 S
C830 H820 0.930 . S
C830 C828 1.419 . S
C830 C831 1.362 . S
C831 H821 0.930 . S
C831 C824 1.409 1_565 S
C831 C830 1.362 . S
H832 C838 0.930 . S
H833 C841 0.930 . S
H834 C842 0.930 . S
H835 C843 0.930 . S
H836 C846 0.930 . S
H837 C847 0.930 . S
C838 H832 0.930 . S
C838 C839 1.355 . S
C838 C840 1.415 . S
C839 C838 1.355 . S
C839 C841 1.419 . S
C840 C838 1.415 . S
C840 C845 1.425 . S
C840 C847 1.409 . S
C841 H833 0.930 . S
C841 C839 1.419 . S
C841 C842 1.362 . S
C842 H834 0.930 . S
C842 C841 1.362 . S
C842 C845 1.409 . S
C843 H835 0.930 . S
C843 C844 1.355 . S
C843 C845 1.415 . S
C844 C843 1.355 . S
C844 C846 1.419 . S
C845 C840 1.425 . S
C845 C842 1.409 . S
C845 C843 1.415 . S
C846 H836 0.930 . S
C846 C844 1.419 . S
C846 C847 1.362 . S
C847 H837 0.930 . S
C847 C840 1.409 . S
C847 C846 1.362 . S
H848 C854 0.930 . S
H849 C857 0.930 . S
H850 C858 0.930 . S
H851 C859 0.930 . S
H852 C862 0.930 . S
H853 C863 0.930 1_545 S
C854 H848 0.930 . S
C854 C855 1.355 . S
C854 C856 1.415 . S
C855 C854 1.355 . S
C855 C857 1.419 . S
C856 C854 1.415 . S
C856 C861 1.425 . S
C856 C863 1.409 1_545 S
C857 H849 0.930 . S
C857 C855 1.419 . S
C857 C858 1.362 . S
C858 H850 0.930 . S
C858 C857 1.362 . S
C858 C861 1.409 . S
C859 H851 0.930 . S
C859 C860 1.355 . S
C859 C861 1.415 1_565 S
C860 C859 1.355 . S
C860 C862 1.419 . S
C861 C856 1.425 . S
C861 C858 1.409 . S
C861 C859 1.415 1_545 S
C862 H852 0.930 . S
C862 C860 1.419 . S
C862 C863 1.362 . S
C863 H853 0.930 1_565 S
C863 C856 1.409 1_565 S
C863 C862 1.362 . S
H864 C870 0.930 . S
H865 C873 0.930 . S
H866 C874 0.930 . S
H867 C875 0.930 . S
H868 C878 0.930 . S
H869 C879 0.930 . S
C870 H864 0.930 . S
C870 C871 1.355 . S
C870 C872 1.415 . S
C871 C870 1.355 . S
C871 C873 1.419 . S
C872 C870 1.415 . S
C872 C877 1.425 . S
C872 C879 1.409 . S
C873 H865 0.930 . S
C873 C871 1.419 . S
C873 C874 1.362 . S
C874 H866 0.930 . S
C874 C873 1.362 . S
C874 C877 1.409 . S
C875 H867 0.930 . S
C875 C876 1.355 . S
C875 C877 1.415 . S
C876 C875 1.355 . S
C876 C878 1.419 . S
C877 C872 1.425 . S
C877 C874 1.409 . S
C877 C875 1.415 . S
C878 H868 0.930 . S
C878 C876 1.419 . S
C878 C879 1.362 . S
C879 H869 0.930 . S
C879 C872 1.409 . S
C879 C878 1.362 . S
H880 C886 0.930 . S
H881 C889 0.930 1_455 S
H882 C890 0.930 1_455 S
H883 C891 0.930 . S
H884 C894 0.930 . S
H885 C895 0.930 . S
C886 H880 0.930 . S
C886 C887 1.355 . S
C886 C888 1.415 . S
C887 C886 1.355 . S
C887 C889 1.419 . S
C888 C886 1.415 . S
C888 C893 1.425 . S
C888 C895 1.409 . S
C889 H881 0.930 1_655 S
C889 C887 1.419 . S
C889 C890 1.362 . S
C890 H882 0.930 1_655 S
C890 C889 1.362 . S
C890 C893 1.409 . S
C891 H883 0.930 . S
C891 C892 1.355 . S
C891 C893 1.415 . S
C892 C891 1.355 . S
C892 C894 1.419 . S
C893 C888 1.425 . S
C893 C890 1.409 . S
C893 C891 1.415 . S
C894 H884 0.930 . S
C894 C892 1.419 . S
C894 C895 1.362 . S
C895 H885 0.930 . S
C895 C888 1.409 . S
C895 C894 1.362 . S
H896 C902 0.930 . S
H897 C905 0.930 . S
H898 C906 0.930 . S
H899 C907 0.930 . S
H900 C910 0.930 . S
H901 C911 0.930 . S
C902 H896 0.930 . S
C902 C903 1.355 . S
C902 C904 1.415 . S
C903 C902 1.355 . S
C903 C905 1.419 . S
C904 C902 1.415 . S
C904 C909 1.425 . S
C904 C911 1.409 . S
C905 H897 0.930 . S
C905 C903 1.419 . S
C905 C906 1.362 . S
C906 H898 0.930 . S
C906 C905 1.362 . S
C906 C909 1.409 . S
C907 H899 0.930 . S
C907 C908 1.355 . S
C907 C909 1.415 . S
C908 C907 1.355 . S
C908 C910 1.419 . S
C909 C904 1.425 . S
C909 C906 1.409 . S
C909 C907 1.415 . S
C910 H900 0.930 . S
C910 C908 1.419 . S
C910 C911 1.362 . S
C911 H901 0.930 . S
C911 C904 1.409 . S
C911 C910 1.362 . S
H912 C918 0.930 . S
H913 C921 0.930 . S
H914 C922 0.930 . S
H915 C923 0.930 . S
H916 C926 0.930 . S
H917 C927 0.930 . S
C918 H912 0.930 . S
C918 C919 1.355 . S
C918 C920 1.415 . S
C919 C918 1.355 . S
C919 C921 1.419 . S
C920 C918 1.415 . S
C920 C925 1.425 . S
C920 C927 1.409 . S
C921 H913 0.930 . S
C921 C919 1.419 . S
C921 C922 1.362 . S
C922 H914 0.930 . S
C922 C921 1.362 . S
C922 C925 1.409 . S
C923 H915 0.930 . S
C923 C924 1.355 . S
C923 C925 1.415 . S
C924 C923 1.355 . S
C924 C926 1.419 . S
C925 C920 1.425 . S
C925 C922 1.409 . S
C925 C923 1.415 . S
C926 H916 0.930 . S
C926 C924 1.419 . S
C926 C927 1.362 . S
C927 H917 0.930 . S
C927 C920 1.409 . S
C927 C926 1.362 . S
H928 C934 0.930 . S
H929 C937 0.930 . S
H930 C938 0.930 . S
H931 C939 0.930 . S
H932 C942 0.930 . S
H933 C943 0.930 . S
C934 H928 0.930 . S
C934 C935 1.355 . S
C934 C936 1.415 . S
C935 C934 1.355 . S
C935 C937 1.419 . S
C936 C934 1.415 . S
C936 C941 1.425 . S
C936 C943 1.409 . S
C937 H929 0.930 . S
C937 C935 1.419 . S
C937 C938 1.362 . S
C938 H930 0.930 . S
C938 C937 1.362 . S
C938 C941 1.409 . S
C939 H931 0.930 . S
C939 C940 1.355 . S
C939 C941 1.415 . S
C940 C939 1.355 . S
C940 C942 1.419 . S
C941 C936 1.425 . S
C941 C938 1.409 . S
C941 C939 1.415 . S
C942 H932 0.930 . S
C942 C940 1.419 . S
C942 C943 1.362 . S
C943 H933 0.930 . S
C943 C936 1.409 . S
C943 C942 1.362 . S
H944 C950 0.930 . S
H945 C953 0.930 . S
H946 C954 0.930 . S
H947 C955 0.930 . S
H948 C958 0.930 . S
H949 C959 0.930 . S
C950 H944 0.930 . S
C950 C951 1.355 . S
C950 C952 1.415 . S
C951 C950 1.355 . S
C951 C953 1.419 . S
C952 C950 1.415 . S
C952 C957 1.425 . S
C952 C959 1.409 . S
C953 H945 0.930 . S
C953 C951 1.419 . S
C953 C954 1.362 . S
C954 H946 0.930 . S
C954 C953 1.362 . S
C954 C957 1.409 . S
C955 H947 0.930 . S
C955 C956 1.355 . S
C955 C957 1.415 . S
C956 C955 1.355 . S
C956 C958 1.419 . S
C957 C952 1.425 . S
C957 C954 1.409 . S
C957 C955 1.415 . S
C958 H948 0.930 . S
C958 C956 1.419 . S
C958 C959 1.362 . S
C959 H949 0.930 . S
C959 C952 1.409 . S
C959 C958 1.362 . S
H960 C966 0.930 . S
H961 C969 0.930 . S
H962 C970 0.930 . S
H963 C971 0.930 . S
H964 C974 0.930 1_556 S
H965 C975 0.930 1_556 S
C966 H960 0.930 . S
C966 C967 1.355 . S
C966 C968 1.415 . S
C967 C966 1.355 . S
C967 C969 1.419 . S
C968 C966 1.415 . S
C968 C973 1.425 . S
C968 C975 1.409 . S
C969 H961 0.930 . S
C969 C967 1.419 . S
C969 C970 1.362 . S
C970 H962 0.930 . S
C970 C969 1.362 . S
C970 C973 1.409 . S
C971 H963 0.930 . S
C971 C972 1.355 . S
C971 C973 1.415 1_655 S
C972 C971 1.355 . S
C972 C974 1.419 . S
C973 C968 1.425 . S
C973 C970 1.409 . S
C973 C971 1.415 1_455 S
C974 H964 0.930 1_554 S
C974 C972 1.419 . S
C974 C975 1.362 1_655 S
C975 H965 0.930 1_554 S
C975 C968 1.409 . S
C975 C974 1.362 1_455 S
H976 C982 0.930 . S
H977 C985 0.930 . S
H978 C986 0.930 . S
H979 C987 0.930 . S
H980 C990 0.930 . S
H981 C991 0.930 . S
C982 H976 0.930 . S
C982 C983 1.355 . S
C982 C984 1.415 . S
C983 C982 1.355 . S
C983 C985 1.419 . S
C984 C982 1.415 . S
C984 C989 1.425 . S
C984 C991 1.409 . S
C985 H977 0.930 . S
C985 C983 1.419 . S
C985 C986 1.362 . S
C986 H978 0.930 . S
C986 C985 1.362 . S
C986 C989 1.409 . S
C987 H979 0.930 . S
C987 C988 1.355 . S
C987 C989 1.415 . S
C988 C987 1.355 . S
C988 C990 1.419 . S
C989 C984 1.425 . S
C989 C986 1.409 . S
C989 C987 1.415 . S
C990 H980 0.930 . S
C990 C988 1.419 . S
C990 C991 1.362 . S
C991 H981 0.930 . S
C991 C984 1.409 . S
C991 C990 1.362 . S
H992 C998 0.930 . S
H993 C1001 0.930 . S
H994 C1002 0.930 . S
H995 C1003 0.930 . S
H996 C1006 0.930 . S
H997 C1007 0.930 . S
C998 H992 0.930 . S
C998 C999 1.355 . S
C998 C1000 1.415 . S
C999 C998 1.355 . S
C999 C1001 1.419 . S
C1000 C998 1.415 . S
C1000 C1005 1.425 . S
C1000 C1007 1.409 . S
C1001 H993 0.930 . S
C1001 C999 1.419 . S
C1001 C1002 1.362 . S
C1002 H994 0.930 . S
C1002 C1001 1.362 . S
C1002 C1005 1.409 . S
C1003 H995 0.930 . S
C1003 C1004 1.355 . S
C1003 C1005 1.415 . S
C1004 C1003 1.355 . S
C1004 C1006 1.419 . S
C1005 C1000 1.425 . S
C1005 C1002 1.409 . S
C1005 C1003 1.415 . S
C1006 H996 0.930 . S
C1006 C1004 1.419 . S
C1006 C1007 1.362 . S
C1007 H997 0.930 . S
C1007 C1000 1.409 . S
C1007 C1006 1.362 . S
H1008 C1014 0.930 . S
H1009 C1017 0.930 . S
H1010 C1018 0.930 1_655 S
H1011 C1019 0.930 . S
H1012 C1022 0.930 . S
H1013 C1023 0.930 . S
C1014 H1008 0.930 . S
C1014 C1015 1.355 . S
C1014 C1016 1.415 . S
C1015 C1014 1.355 . S
C1015 C1017 1.419 . S
C1016 C1014 1.415 . S
C1016 C1021 1.425 . S
C1016 C1023 1.409 . S
C1017 H1009 0.930 . S
C1017 C1015 1.419 . S
C1017 C1018 1.362 . S
C1018 H1010 0.930 1_455 S
C1018 C1017 1.362 . S
C1018 C1021 1.409 . S
C1019 H1011 0.930 . S
C1019 C1020 1.355 . S
C1019 C1021 1.415 . S
C1020 C1019 1.355 . S
C1020 C1022 1.419 . S
C1021 C1016 1.425 . S
C1021 C1018 1.409 . S
C1021 C1019 1.415 . S
C1022 H1012 0.930 . S
C1022 C1020 1.419 . S
C1022 C1023 1.362 . S
C1023 H1013 0.930 . S
C1023 C1016 1.409 . S
C1023 C1022 1.362 . S
H1024 C1030 0.930 . S
H1025 C1033 0.930 . S
H1026 C1034 0.930 . S
H1027 C1035 0.930 . S
H1028 C1038 0.930 . S
H1029 C1039 0.930 . S
C1030 H1024 0.930 . S
C1030 C1031 1.355 . S
C1030 C1032 1.415 . S
C1031 C1030 1.355 . S
C1031 C1033 1.419 . S
C1032 C1030 1.415 . S
C1032 C1037 1.425 . S
C1032 C1039 1.409 . S
C1033 H1025 0.930 . S
C1033 C1031 1.419 . S
C1033 C1034 1.362 . S
C1034 H1026 0.930 . S
C1034 C1033 1.362 . S
C1034 C1037 1.409 . S
C1035 H1027 0.930 . S
C1035 C1036 1.355 . S
C1035 C1037 1.415 . S
C1036 C1035 1.355 . S
C1036 C1038 1.419 . S
C1037 C1032 1.425 . S
C1037 C1034 1.409 . S
C1037 C1035 1.415 . S
C1038 H1028 0.930 . S
C1038 C1036 1.419 . S
C1038 C1039 1.362 . S
C1039 H1029 0.930 . S
C1039 C1032 1.409 . S
C1039 C1038 1.362 . S
H1040 C1046 0.930 . S
H1041 C1049 0.930 . S
H1042 C1050 0.930 . S
H1043 C1051 0.930 . S
H1044 C1054 0.930 . S
H1045 C1055 0.930 . S
C1046 H1040 0.930 . S
C1046 C1047 1.355 . S
C1046 C1048 1.415 . S
C1047 C1046 1.355 . S
C1047 C1049 1.419 . S
C1048 C1046 1.415 . S
C1048 C1053 1.425 . S
C1048 C1055 1.409 . S
C1049 H1041 0.930 . S
C1049 C1047 1.419 . S
C1049 C1050 1.362 . S
C1050 H1042 0.930 . S
C1050 C1049 1.362 . S
C1050 C1053 1.409 . S
C1051 H1043 0.930 . S
C1051 C1052 1.355 . S
C1051 C1053 1.415 1_455 S
C1052 C1051 1.355 . S
C1052 C1054 1.419 . S
C1053 C1048 1.425 . S
C1053 C1050 1.409 . S
C1053 C1051 1.415 1_655 S
C1054 H1044 0.930 . S
C1054 C1052 1.419 . S
C1054 C1055 1.362 1_455 S
C1055 H1045 0.930 . S
C1055 C1048 1.409 . S
C1055 C1054 1.362 1_655 S
C487 C9 1.612 . S
C492 C448 1.705 . S
C503 C368 1.760 . S
C508 C48 1.751 . S
C519 C89 1.457 . S
C524 C329 1.400 . S
C535 C128 1.695 . S
C540 C408 1.683 . S
C551 C168 2.023 . S
C556 C409 1.899 . S
C567 C209 1.370 . S
C572 C449 1.415 . S
C583 C369 1.785 . S
C588 C248 1.852 . S
C599 C288 1.502 . S
C604 C328 1.516 . S
C615 C129 1.828 . S
C620 C169 1.778 . S
C631 C8 1.866 . S
C636 C208 1.878 . S
C647 C49 1.504 . S
C652 C249 1.529 . S
C663 C289 1.697 . S
C668 C88 1.761 . S
C679 C5 2.514 . S
C684 C339 2.603 . S
C695 C55 1.216 . S
C700 C418 1.160 . S
C711 C458 1.619 . S
C716 C85 1.748 . S
C727 C135 1.422 . S
C732 C378 1.300 . S
C743 C175 1.486 . S
C748 C379 1.470 . S
C759 C338 1.708 . S
C764 C205 1.824 . S
C775 C419 1.882 . S
C780 C255 1.887 . S
C791 C459 1.736 . S
C796 C295 1.738 . S
C807 C18 1.535 . S
C812 C125 1.648 . S
C823 C15 2.058 . S
C828 C59 2.031 . S
C839 C45 1.952 . S
C844 C98 1.838 . S
C855 C139 1.832 . S
C860 C95 1.830 . S
C871 C215 1.084 . S
C876 C179 1.062 . S
C887 C218 1.697 . S
C892 C245 1.824 . S
C903 C259 1.481 . S
C908 C285 1.438 . S
C919 C165 1.758 . S
C924 C299 1.828 . S
C935 C335 1.313 . S
C940 C138 1.216 . S
C951 C219 1.624 . S
C956 C375 1.642 . S
C967 C325 2.015 . S
C972 C258 1.903 . S
C983 C415 1.637 . S
C988 C298 1.541 . S
C999 C178 0.785 . S
C1004 C455 0.865 . S
C1015 C445 1.698 . S
C1020 C58 1.609 . S
C1031 C99 1.480 . S
C1036 C365 1.470 . S
C1047 C405 1.889 . S
C1052 C19 1.930 . S
