# Generated by pormake.
# Topology rob, (6)-cn, num edge types: 1
# Building blocks:
#     Node 0, Type 0, BuildingBlock: PAMTOO_clean_sbu_0, # of connection points: 6
#     Node 1, Type 0, BuildingBlock: PAMTOO_clean_sbu_0, # of connection points: 6
#     Node 2, Type 0, BuildingBlock: PAMTOO_clean_sbu_0, # of connection points: 6
#     Node 3, Type 0, BuildingBlock: PAMTOO_clean_sbu_0, # of connection points: 6
#     Edge 4, Type (0, 0), BuildingBlock: FUNLAD_clean_linker_0, # of connection points: 2
#     Edge 5, Type (0, 0), BuildingBlock: FUNLAD_clean_linker_0, # of connection points: 2
#     Edge 6, Type (0, 0), BuildingBlock: FUNLAD_clean_linker_0, # of connection points: 2
#     Edge 7, Type (0, 0), BuildingBlock: FUNLAD_clean_linker_0, # of connection points: 2
#     Edge 8, Type (0, 0), BuildingBlock: FUNLAD_clean_linker_0, # of connection points: 2
#     Edge 9, Type (0, 0), BuildingBlock: FUNLAD_clean_linker_0, # of connection points: 2
#     Edge 10, Type (0, 0), BuildingBlock: FUNLAD_clean_linker_0, # of connection points: 2
#     Edge 11, Type (0, 0), BuildingBlock: FUNLAD_clean_linker_0, # of connection points: 2
#     Edge 12, Type (0, 0), BuildingBlock: FUNLAD_clean_linker_0, # of connection points: 2
#     Edge 13, Type (0, 0), BuildingBlock: FUNLAD_clean_linker_0, # of connection points: 2
#     Edge 14, Type (0, 0), BuildingBlock: FUNLAD_clean_linker_0, # of connection points: 2
#     Edge 15, Type (0, 0), BuildingBlock: FUNLAD_clean_linker_0, # of connection points: 2
# Relax obj value: 0.076
# Max RMSD: 0.189
# Mean RMSD: 0.189
data_MOF--net-rob--node1-PAMTOO_clean_sbu_0--edge1-FUNLAD_clean_linker_0
_symmetry_space_group_name_H-M    P1
_symmetry_Int_Tables_number       1
_symmetry_cell_setting            triclinic
loop_
_symmetry_equiv_pos_as_xyz
'x, y, z'
_cell_length_a     18.201864
_cell_length_b     30.390471
_cell_length_c     40.525517
_cell_angle_alpha  101.69822
_cell_angle_beta   90.085911
_cell_angle_gamma 89.643126
loop_
_atom_site_label
_atom_site_type_symbol
_atom_site_fract_x
_atom_site_fract_y
_atom_site_fract_z
_atom_type_partial_charge
Dy0 Dy 0.3072 0.20384 0.98159 0.0
Dy1 Dy 0.18104 0.26566 0.02827 0.0
C2 C 0.3261 0.30801 1.00494 0.0
O3 O 0.35022 0.21353 0.03448 0.0
O4 O 0.24113 0.23017 0.06313 0.0
O5 O 0.41846 0.1925 0.96326 0.0
O6 O 0.33307 0.1447 0.94396 0.0
O7 O 0.13461 0.19676 1.01027 0.0
O8 O 0.24222 0.15676 1.00486 0.0
O9 O 0.16739 0.2808 0.97692 0.0
O10 O 0.21426 0.2141 0.94778 0.0
O11 O 0.06879 0.27693 0.04563 0.0
O12 O 0.15231 0.32553 0.06473 0.0
C13 C 0.3109 0.21857 0.06229 0.0
O14 O 0.32819 0.27489 0.9787 0.0
O15 O 0.28361 0.30617 0.03071 0.0
C16 C 0.41914 0.16036 0.90525 0.0
C17 C 0.44743 0.16326 0.83731 0.0
C18 C 0.41752 0.20085 0.85937 0.0
C19 C 0.40317 0.19932 0.89296 0.0
C20 C 0.44894 0.1228 0.8835 0.0
C21 C 0.46299 0.12419 0.84979 0.0
C22 C 0.39989 0.15795 0.94001 0.0
C23 C 0.17074 0.15875 1.00844 0.0
C24 C 0.17665 0.25133 0.94865 0.0
C25 C 0.06323 0.31206 0.10296 0.0
C26 C 0.02682 0.31282 0.17075 0.0
C27 C 0.07291 0.27908 0.15258 0.0
C28 C 0.09058 0.27863 0.11902 0.0
C29 C 0.01756 0.34591 0.12083 0.0
C30 C -0.0007 0.34626 0.15445 0.0
C31 C 0.08527 0.31254 0.06817 0.0
H32 H 0.40579 0.23168 0.85082 0.0
H33 H 0.37916 0.22851 0.9093 0.0
H34 H 0.46044 0.09222 0.89246 0.0
H35 H 0.48497 0.09441 0.83341 0.0
H36 H 0.09618 0.25324 0.16439 0.0
H37 H 0.12609 0.2523 0.10561 0.0
H38 H -0.00381 0.37209 0.10882 0.0
H39 H 0.963 0.3724 0.16753 0.0
Dy40 Dy 0.8093 0.70831 0.99423 0.0
Dy41 Dy 0.675 0.76664 0.03774 0.0
C42 C 0.80927 0.8158 0.01206 0.0
O43 O 0.8263 0.69841 0.04683 0.0
O44 O 0.76695 0.76261 0.07383 0.0
O45 O 0.92272 0.69875 0.97815 0.0
O46 O 0.84138 0.64918 0.95783 0.0
O47 O 0.66484 0.69647 0.04496 0.0
O48 O 0.71237 0.6634 0.99398 0.0
O49 O 0.63666 0.75031 0.98392 0.0
O50 O 0.74957 0.74198 0.95836 0.0
O51 O 0.5601 0.77426 0.05079 0.0
O52 O 0.63838 0.82431 0.07453 0.0
C53 C 0.81191 0.72864 0.07423 0.0
O54 O 0.84865 0.77905 1.01075 0.0
O55 O 0.73764 0.81577 0.01533 0.0
C56 C 0.93113 0.66432 0.92054 0.0
C57 C 0.9649 0.66275 0.85233 0.0
C58 C 0.92434 0.69862 0.87139 0.0
C59 C 0.90765 0.69938 0.90516 0.0
C60 C 0.97213 0.6287 0.90183 0.0
C61 C 0.98912 0.62796 0.86803 0.0
C62 C 0.90806 0.66324 0.95514 0.0
C63 C 0.6717 0.66153 0.02033 0.0
C64 C 0.67849 0.74863 0.95723 0.0
C65 C 0.54201 0.80695 0.10799 0.0
C66 C 0.48864 0.80325 0.17266 0.0
C67 C 0.52999 0.76737 0.15406 0.0
C68 C 0.55667 0.76931 0.12209 0.0
C69 C 0.5009 0.84279 0.1263 0.0
C70 C 0.47441 0.841 0.15838 0.0
C71 C 0.57136 0.80942 0.07469 0.0
H72 H 0.90572 0.72625 0.86027 0.0
H73 H 0.87565 0.72711 0.91918 0.0
H74 H 0.98994 0.60109 0.9132 0.0
H75 H 0.01978 0.59962 0.85399 0.0
H76 H 0.54112 0.73753 0.16401 0.0
H77 H 0.58877 0.74138 0.10835 0.0
H78 H 0.48972 0.87228 0.11587 0.0
H79 H 0.44368 0.86947 0.17218 0.0
Dy80 Dy 0.30414 0.76537 0.53685 0.0
Dy81 Dy 0.16479 0.71018 0.49479 0.0
C82 C 0.31403 0.66085 0.50688 0.0
O83 O 0.33607 0.75793 0.48295 0.0
O84 O 0.2218 0.7451 0.45861 0.0
O85 O 0.41938 0.77346 0.54931 0.0
O86 O 0.3397 0.82192 0.5746 0.0
O87 O 0.12538 0.77597 0.52448 0.0
O88 O 0.2297 0.81518 0.52033 0.0
O89 O 0.15723 0.69208 0.54557 0.0
O90 O 0.22581 0.75043 0.57531 0.0
O91 O 0.05716 0.71449 0.47319 0.0
O92 O 0.11235 0.65022 0.46691 0.0
C93 C 0.29176 0.755 0.45698 0.0
O94 O 0.32714 0.69263 0.5333 0.0
O95 O 0.26269 0.66493 0.48492 0.0
C96 C 0.43532 0.80158 0.60724 0.0
C97 C 0.48494 0.79213 0.67135 0.0
C98 C 0.43272 0.76233 0.65381 0.0
C99 C 0.40836 0.76695 0.62199 0.0
C100 C 0.48735 0.8314 0.62453 0.0
C101 C 0.51222 0.82664 0.65632 0.0
C102 C 0.40714 0.80711 0.57436 0.0
C103 C 0.15821 0.81394 0.52359 0.0
C104 C 0.18104 0.71638 0.57419 0.0
C105 C 0.04418 0.66581 0.4209 0.0
C106 C 0.01445 0.66276 0.35207 0.0
C107 C 0.08579 0.67178 0.365 0.0
C108 C 0.10051 0.67317 0.39907 0.0
C109 C 0.9734 0.65578 0.40805 0.0
C110 C 0.95867 0.65405 0.37389 0.0
C111 C 0.05768 0.67267 0.4574 0.0
H112 H 0.41141 0.73507 0.66447 0.0
H113 H 0.36831 0.7435 0.60885 0.0
H114 H 0.50837 0.85846 0.61354 0.0
H115 H 0.55202 0.85033 0.66936 0.0
H116 H 0.13017 0.67809 0.34882 0.0
H117 H 0.15556 0.68094 0.40855 0.0
H118 H 0.9291 0.65044 0.4246 0.0
H119 H 0.90302 0.64747 0.36482 0.0
Dy120 Dy 0.80949 0.27578 0.52999 0.0
Dy121 Dy 0.68594 0.21058 0.48508 0.0
C122 C 0.82786 0.16845 0.51214 0.0
O123 O 0.81977 0.28879 0.47769 0.0
O124 O 0.7791 0.21943 0.45156 0.0
O125 O 0.92175 0.29604 0.54195 0.0
O126 O 0.83227 0.33061 0.57162 0.0
O127 O 0.66323 0.28096 0.47979 0.0
O128 O 0.70447 0.31459 0.53177 0.0
O129 O 0.64671 0.22039 0.53856 0.0
O130 O 0.75817 0.23683 0.56463 0.0
O131 O 0.5736 0.19781 0.46885 0.0
O132 O 0.66044 0.15236 0.44664 0.0
C133 C 0.81243 0.25723 0.45045 0.0
O134 O 0.86051 0.20748 0.51464 0.0
O135 O 0.75685 0.1639 0.50693 0.0
C136 C 0.93786 0.31667 0.60084 0.0
C137 C 0.99336 0.30378 0.66329 0.0
C138 C 0.96382 0.26758 0.63993 0.0
C139 C 0.93613 0.274 0.60907 0.0
C140 C 0.96774 0.35284 0.62384 0.0
C141 C -0.0047 0.34648 0.65484 0.0
C142 C 0.90301 0.32396 0.5696 0.0
C143 C 0.66285 0.31487 0.50545 0.0
C144 C 0.6892 0.22471 0.56534 0.0
C145 C 0.56935 0.16983 0.41047 0.0
C146 C 0.52679 0.18052 0.34564 0.0
C147 C 0.57406 0.21162 0.36541 0.0
C148 C 0.59528 0.20625 0.39747 0.0
C149 C 0.52296 0.13835 0.3908 0.0
C150 C 0.50192 0.14358 0.35853 0.0
C151 C 0.59225 0.16478 0.44428 0.0
H152 H 0.96043 0.23445 0.64583 0.0
H153 H 0.9121 0.24578 0.59185 0.0
H154 H 0.9688 0.3861 0.61804 0.0
H155 H 0.01824 0.37495 0.67216 0.0
H156 H 0.59498 0.24003 0.356 0.0
H157 H 0.63196 0.23059 0.41218 0.0
H158 H 0.50283 0.10993 0.40041 0.0
H159 H 0.46505 0.11927 0.34396 0.0
C160 C 0.63411 0.58284 0.99492 0.0
C161 C 0.63072 0.62014 0.02178 0.0
C162 C 0.59328 0.54432 0.99578 0.0
C163 C 0.54857 0.54217 0.02374 0.0
C164 C 0.54544 0.57945 0.05058 0.0
C165 C 0.58622 0.61795 0.04971 0.0
C166 C 0.50168 0.50278 0.02523 0.0
C167 C 0.51447 0.46121 1.00698 0.0
C168 C 0.46548 0.42243 1.0074 0.0
C169 C 0.46596 0.38655 0.97947 0.0
C170 C 0.42037 0.34956 0.97856 0.0
C171 C 0.37365 0.34746 1.00577 0.0
H172 H 0.41921 0.44617 0.0574 0.0
C173 C 0.3739 0.38301 0.03398 0.0
C174 C 0.41949 0.42004 0.03488 0.0
H175 H 0.33922 0.38218 0.05555 0.0
H176 H 0.66741 0.58357 0.9729 0.0
H177 H 0.59562 0.51704 0.97404 0.0
H178 H 0.5111 0.57887 0.07231 0.0
H179 H 0.5822 0.64613 0.07082 0.0
H180 H 0.45465 0.50877 0.04199 0.0
H181 H 0.56144 0.45515 0.9902 0.0
H182 H 0.50125 0.38732 0.95808 0.0
H183 H 0.42194 0.32261 0.95651 0.0
C184 C 0.32739 0.57763 0.48896 0.0
C185 C 0.35903 0.61967 0.50166 0.0
C186 C 0.36995 0.53847 0.48524 0.0
C187 C 0.44515 0.54107 0.4932 0.0
C188 C 0.47721 0.58317 0.5048 0.0
C189 C 0.43419 0.62216 0.50961 0.0
C190 C 0.49085 0.50014 0.48983 0.0
C191 C 0.47104 0.46597 0.50425 0.0
C192 C 0.52008 0.42706 0.50407 0.0
C193 C 0.53332 0.41254 0.53424 0.0
C194 C 0.58103 0.37652 0.5348 0.0
C195 C 0.61405 0.35349 0.50492 0.0
H196 H 0.54322 0.41464 0.45053 0.0
C197 C 0.59929 0.36728 0.47452 0.0
C198 C 0.55343 0.40425 0.47417 0.0
H199 H 0.6241 0.34992 0.45116 0.0
H200 H 0.26949 0.57499 0.48267 0.0
H201 H 0.3444 0.50624 0.47593 0.0
H202 H 0.53519 0.58577 0.51096 0.0
H203 H 0.45982 0.65431 0.51919 0.0
H204 H 0.54474 0.49996 0.47826 0.0
H205 H 0.42096 0.46857 0.51914 0.0
H206 H 0.50782 0.42964 0.55751 0.0
H207 H 0.5911 0.36617 0.55847 0.0
C208 C 0.05377 0.11653 0.01186 0.0
C209 C 0.13086 0.11709 1.01029 0.0
C210 C 0.0168 0.07673 0.01327 0.0
C211 C 0.0564 0.03669 0.01305 0.0
C212 C 0.13334 0.03759 0.01203 0.0
C213 C 0.17017 0.07719 1.01049 0.0
C214 C 0.0203 -0.00646 0.01474 0.0
C215 C 0.95074 0.98353 1.00478 0.0
C216 C 0.9161 0.93988 1.00628 0.0
C217 C 0.83948 0.93813 1.00918 0.0
C218 C 0.80483 0.89786 0.01106 0.0
C219 C 0.84613 0.85828 1.00972 0.0
H220 H 0.0163 0.89957 1.00064 0.0
C221 C 0.92273 0.85975 1.00602 0.0
C222 C 0.95739 0.90006 1.0042 0.0
H223 H 0.95607 0.82976 1.00445 0.0
H224 H 0.02193 0.1468 0.01204 0.0
H225 H 0.95753 0.07784 0.01512 0.0
H226 H 0.16523 0.00738 0.01212 0.0
H227 H 0.22965 0.0764 1.00951 0.0
H228 H 0.05347 0.96883 0.02403 0.0
H229 H 0.91702 0.00818 0.99572 0.0
H230 H 0.80632 0.96817 1.01044 0.0
H231 H 0.7456 0.8979 0.01365 0.0
C232 C 0.83762 0.08788 0.51709 0.0
C233 C 0.872 0.12887 0.51619 0.0
C234 C 0.87896 0.05058 0.52135 0.0
C235 C 0.95598 0.0533 0.5244 0.0
C236 C 0.9901 0.09449 0.52401 0.0
C237 C 0.94869 0.13187 0.5199 0.0
C238 C 0.0026 0.0144 0.5285 0.0
C239 C 0.98091 0.97129 0.51961 0.0
C240 C 0.02824 0.93233 0.52261 0.0
C241 C -0.0055 0.89142 0.5242 0.0
C242 C 0.03669 0.85325 0.52533 0.0
C243 C 0.11377 0.85505 0.52454 0.0
H244 H 0.13377 0.96471 0.51987 0.0
C245 C 0.14773 0.89603 0.52317 0.0
C246 C 0.10549 0.93428 0.52213 0.0
H247 H 0.20702 0.89846 0.52226 0.0
H248 H 0.7785 0.08459 0.51485 0.0
H249 H 0.8498 0.02015 0.52275 0.0
H250 H 0.04919 0.09773 0.52661 0.0
H251 H 0.97694 0.16303 0.51957 0.0
H252 H 0.05738 0.02187 0.53862 0.0
H253 H 0.92619 0.96357 0.50958 0.0
H254 H 0.93514 0.88889 0.52438 0.0
H255 H 0.00872 0.82217 0.52625 0.0
C256 C 0.50042 0.15159 0.28409 0.0
C257 C 0.50219 0.18748 0.3121 0.0
C258 C 0.47662 0.1585 0.25264 0.0
C259 C 0.4538 0.20149 0.24868 0.0
C260 C 0.45523 0.23714 0.27675 0.0
C261 C 0.47957 0.23034 0.30802 0.0
C262 C 0.42382 0.21007 0.21643 0.0
C263 C 0.44039 0.18518 0.18584 0.0
C264 C 0.40712 0.19422 0.15431 0.0
C265 C 0.44634 0.18342 0.12387 0.0
C266 C 0.41577 0.1916 0.0939 0.0
C267 C 0.34479 0.21012 0.09375 0.0
H268 H 0.30282 0.21962 0.17667 0.0
C269 C 0.30528 0.22019 0.12418 0.0
C270 C 0.33586 0.21226 0.15401 0.0
H271 H 0.25035 0.23423 0.1251 0.0
H272 H 0.51769 0.11821 0.28647 0.0
H273 H 0.47452 0.12994 0.23181 0.0
H274 H 0.43717 0.27047 0.27453 0.0
H275 H 0.4793 0.25853 0.32922 0.0
H276 H 0.38839 0.23934 0.21806 0.0
H277 H 0.4814 0.15863 0.18357 0.0
H278 H 0.50103 0.16901 0.12333 0.0
H279 H 0.44752 0.18315 0.07088 0.0
C280 C 0.50322 0.78212 0.22919 0.0
C281 C 0.4603 0.8011 0.20672 0.0
C282 C 0.47589 0.77885 0.26081 0.0
C283 C 0.40505 0.79503 0.27093 0.0
C284 C 0.36234 0.8141 0.24849 0.0
C285 C 0.38959 0.81719 0.21682 0.0
C286 C 0.37222 0.79083 0.30381 0.0
C287 C 0.41158 0.78304 0.33031 0.0
C288 C 0.37833 0.77715 0.3627 0.0
C289 C 0.42355 0.7814 0.39127 0.0
C290 C 0.39548 0.77465 0.42194 0.0
C291 C 0.32132 0.76329 0.42473 0.0
H292 H 0.26756 0.76049 0.344 0.0
C293 C 0.27594 0.75906 0.39617 0.0
C294 C 0.30408 0.76559 0.36547 0.0
H295 H 0.21859 0.75017 0.3973 0.0
H296 H 0.55817 0.76972 0.22237 0.0
H297 H 0.51022 0.76276 0.27673 0.0
H298 H 0.30736 0.82641 0.25537 0.0
H299 H 0.35452 0.83136 0.19997 0.0
H300 H 0.31325 0.79561 0.30628 0.0
H301 H 0.47105 0.78211 0.3289 0.0
H302 H 0.48105 0.78988 0.38988 0.0
H303 H 0.43212 0.7781 0.44335 0.0
C304 C 0.69294 0.76264 0.89901 0.0
C305 C 0.64635 0.75558 0.92506 0.0
C306 C 0.66427 0.76877 0.86834 0.0
C307 C 0.58795 0.76728 0.86258 0.0
C308 C 0.5412 0.76103 0.88885 0.0
C309 C 0.57003 0.75523 0.91979 0.0
C310 C 0.55534 0.77336 0.83 0.0
C311 C 0.59364 0.76721 0.8009 0.0
C312 C 0.56317 0.77468 0.76841 0.0
C313 C 0.61224 0.78386 0.74399 0.0
C314 C 0.58678 0.79013 0.71274 0.0
C315 C 0.51155 0.78676 0.70498 0.0
H316 H 0.44828 0.76316 0.77845 0.0
C317 C 0.46228 0.77728 0.7293 0.0
C318 C 0.48773 0.77132 0.76071 0.0
H319 H 0.40392 0.77459 0.72406 0.0
H320 H 0.75201 0.76393 0.90234 0.0
H321 H 0.70259 0.77542 0.84964 0.0
H322 H 0.48217 0.76027 0.88534 0.0
H323 H 0.53263 0.75005 0.93939 0.0
H324 H 0.49792 0.78323 0.83025 0.0
H325 H 0.65086 0.75701 0.80051 0.0
H326 H 0.67069 0.78624 0.74911 0.0
H327 H 0.62624 0.79673 0.69438 0.0
C328 C 0.58777 0.20054 0.59995 0.0
C329 C 0.66087 0.21393 0.59701 0.0
C330 C 0.56259 0.1901 0.63012 0.0
C331 C 0.6102 0.19303 0.65795 0.0
C332 C 0.68316 0.20609 0.65474 0.0
C333 C 0.70813 0.21655 0.62481 0.0
C334 C 0.58758 0.18208 0.69058 0.0
C335 C 0.51751 0.18101 0.70105 0.0
C336 C 0.49841 0.17349 0.73518 0.0
C337 C 0.43293 0.19189 0.75044 0.0
C338 C 0.41565 0.18794 0.78332 0.0
C339 C 0.46339 0.16522 0.80163 0.0
H340 H 0.59414 0.13283 0.74167 0.0
C341 C 0.52747 0.14525 0.78583 0.0
C342 C 0.54457 0.14904 0.75294 0.0
H343 H 0.56555 0.12751 0.79912 0.0
H344 H 0.55011 0.19788 0.57894 0.0
H345 H 0.50641 0.17913 0.63121 0.0
H346 H 0.72123 0.20845 0.67561 0.0
H347 H 0.76493 0.22658 0.62356 0.0
H348 H 0.63169 0.17759 0.7077 0.0
H349 H 0.47304 0.18938 0.68551 0.0
H350 H 0.39578 0.21028 0.73718 0.0
H351 H 0.36493 0.20283 0.79441 0.0
C352 C 0.88141 0.68424 0.11035 0.0
C353 C 0.84551 0.72414 0.10679 0.0
C354 C 0.90981 0.67955 0.14162 0.0
C355 C 0.90311 0.71481 0.16998 0.0
C356 C 0.8691 0.75503 0.16613 0.0
C357 C 0.84011 0.75955 0.13503 0.0
C358 C 0.9316 0.71134 0.20382 0.0
C359 C 0.93714 0.67226 0.21457 0.0
C360 C 0.95993 0.66974 0.24947 0.0
C361 C 0.93357 0.6345 0.26378 0.0
C362 C 0.95165 0.63194 0.29692 0.0
C363 C -0.00245 0.66424 0.31636 0.0
H364 H 0.03055 0.72838 0.25819 0.0
C365 C 0.02582 0.69874 0.30167 0.0
C366 C 0.00731 0.70148 0.26863 0.0
H367 H 0.06116 0.72424 0.31597 0.0
H368 H 0.8868 0.65636 0.08908 0.0
H369 H 0.93748 0.64849 0.14337 0.0
H370 H 0.86375 0.78289 0.18743 0.0
H371 H 0.81325 0.79088 0.13323 0.0
H372 H 0.94292 0.74266 0.22132 0.0
H373 H 0.91898 0.64137 0.19824 0.0
H374 H 0.8977 0.60928 0.24949 0.0
H375 H 0.92982 0.60458 0.30731 0.0
C376 C 0.87858 0.30231 0.4138 0.0
C377 C 0.83918 0.26386 0.41727 0.0
C378 C 0.90127 0.30811 0.38185 0.0
C379 C 0.88453 0.27552 0.35276 0.0
C380 C 0.84513 0.23732 0.35653 0.0
C381 C 0.82291 0.2315 0.3882 0.0
C382 C 0.90603 0.27896 0.31789 0.0
C383 C 0.94813 0.31135 0.30949 0.0
C384 C 0.96875 0.31118 0.27388 0.0
C385 C 0.98355 0.35199 0.26408 0.0
C386 C 0.00212 0.35272 0.23066 0.0
C387 C 0.00698 0.31253 0.20635 0.0
H388 H 0.96705 0.23859 0.25632 0.0
C389 C 0.9934 0.27168 0.21637 0.0
C390 C 0.97516 0.27094 0.24968 0.0
H391 H -0.00378 0.24006 0.19837 0.0
H392 H 0.89167 0.32796 0.43569 0.0
H393 H 0.93117 0.33822 0.38032 0.0
H394 H 0.83121 0.21161 0.33477 0.0
H395 H 0.79216 0.20156 0.3897 0.0
H396 H 0.88507 0.25283 0.29781 0.0
H397 H 0.96677 0.33932 0.32863 0.0
H398 H 0.98008 0.38344 0.28226 0.0
H399 H 0.01353 0.38474 0.22398 0.0
C400 C 0.00493 0.32817 0.72627 0.0
C401 C 0.02099 0.29692 0.69647 0.0
C402 C 0.02918 0.32089 0.75756 0.0
C403 C 0.0701 0.28207 0.7597 0.0
C404 C 0.08724 0.25139 0.72981 0.0
C405 C 0.06273 0.25855 0.69863 0.0
C406 C 0.09756 0.27251 0.79221 0.0
C407 C 0.06856 0.29033 0.82267 0.0
C408 C 0.09579 0.2792 0.85476 0.0
C409 C 0.08265 0.3096 0.88527 0.0
C410 C 0.10795 0.3005 0.91587 0.0
C411 C 0.14646 0.26047 0.91665 0.0
H412 H 0.14173 0.21339 0.83307 0.0
C413 C 0.15803 0.22955 0.8862 0.0
C414 C 0.13278 0.23863 0.85569 0.0
H415 H 0.18699 0.19818 0.8858 0.0
H416 H 0.97266 0.358 0.72549 0.0
H417 H 0.01639 0.34608 0.77976 0.0
H418 H 0.11929 0.22145 0.73058 0.0
H419 H 0.07702 0.23415 0.67613 0.0
H420 H 0.14306 0.24893 0.79055 0.0
H421 H 0.02361 0.3143 0.82458 0.0
H422 H 0.05356 0.34086 0.88542 0.0
H423 H 0.09788 0.32502 0.93883 0.0
C424 C 0.09965 0.67647 0.60908 0.0
C425 C 0.1584 0.70557 0.60679 0.0
C426 C 0.07951 0.66707 0.64036 0.0
C427 C 0.1184 0.68629 0.66981 0.0
C428 C 0.17768 0.71461 0.66726 0.0
C429 C 0.19699 0.72448 0.63632 0.0
C430 C 0.10057 0.67726 0.70361 0.0
C431 C 0.03281 0.66728 0.7131 0.0
C432 C 0.01563 0.66354 0.74835 0.0
C433 C 0.9451 0.67532 0.76125 0.0
C434 C 0.92843 0.67473 0.79485 0.0
C435 C 0.98178 0.66178 0.81625 0.0
H436 H 0.12263 0.6385 0.76015 0.0
C437 C 0.0516 0.64842 0.80298 0.0
C438 C 0.06834 0.64919 0.76943 0.0
H439 H 0.09396 0.63824 0.81873 0.0
H440 H 0.06908 0.66118 0.58679 0.0
H441 H 0.0345 0.64425 0.64127 0.0
H442 H 0.20892 0.72966 0.68944 0.0
H443 H 0.24282 0.74681 0.63564 0.0
H444 H 0.14419 0.68299 0.72229 0.0
H445 H 0.98735 0.66582 0.69553 0.0
H446 H 0.90317 0.68598 0.7455 0.0
H447 H 0.87364 0.68438 0.80407 0.0
loop_
_geom_bond_atom_site_label_1
_geom_bond_atom_site_label_2
_geom_bond_distance
_geom_bond_site_symmetry_2
_ccdc_geom_bond_type
Dy0 O3 2.307 1_556 S
Dy0 O5 2.395 . S
Dy0 O6 2.379 . S
Dy0 O8 2.339 . S
Dy0 O10 2.298 . S
Dy0 O14 2.275 . S
Dy0 C22 2.738 . S
Dy1 O4 2.298 . S
Dy1 O7 2.275 . S
Dy1 O9 2.307 1_554 S
Dy1 O11 2.395 . S
Dy1 O12 2.379 . S
Dy1 O15 2.339 . S
Dy1 C31 2.738 . S
C2 O14 1.254 1_554 S
C2 O15 1.257 . S
O3 Dy0 2.307 1_554 S
O3 C13 1.266 . S
O4 Dy1 2.298 . S
O4 C13 1.236 . S
O5 Dy0 2.395 . S
O5 C22 1.255 . S
O6 Dy0 2.379 . S
O6 C22 1.249 . S
O7 Dy1 2.275 . S
O7 C23 1.254 1_554 S
O8 Dy0 2.339 . S
O8 C23 1.257 . S
O9 Dy1 2.307 1_556 S
O9 C24 1.266 . S
O10 Dy0 2.298 . S
O10 C24 1.236 . S
O11 Dy1 2.395 . S
O11 C31 1.255 . S
O12 Dy1 2.379 . S
O12 C31 1.249 . S
C13 O3 1.266 . S
C13 O4 1.236 . S
O14 Dy0 2.275 . S
O14 C2 1.254 1_556 S
O15 Dy1 2.339 . S
O15 C2 1.257 . S
C16 C19 1.344 . S
C16 C20 1.328 . S
C16 C22 1.516 . S
C17 C18 1.304 . S
C17 C21 1.323 . S
C18 C17 1.304 . S
C18 C19 1.371 . S
C18 H32 0.930 . S
C19 C16 1.344 . S
C19 C18 1.371 . S
C19 H33 0.931 . S
C20 C16 1.328 . S
C20 C21 1.433 . S
C20 H34 0.931 . S
C21 C17 1.323 . S
C21 C20 1.433 . S
C21 H35 0.933 . S
C22 Dy0 2.738 . S
C22 O5 1.255 . S
C22 O6 1.249 . S
C22 C16 1.516 . S
C23 O7 1.254 1_556 S
C23 O8 1.257 . S
C24 O9 1.266 . S
C24 O10 1.236 . S
C25 C28 1.344 . S
C25 C29 1.328 . S
C25 C31 1.516 . S
C26 C27 1.304 . S
C26 C30 1.323 . S
C27 C26 1.304 . S
C27 C28 1.371 . S
C27 H36 0.930 . S
C28 C25 1.344 . S
C28 C27 1.371 . S
C28 H37 0.931 . S
C29 C25 1.328 . S
C29 C30 1.433 . S
C29 H38 0.931 . S
C30 C26 1.323 . S
C30 C29 1.433 . S
C30 H39 0.933 . S
C31 Dy1 2.738 . S
C31 O11 1.255 . S
C31 O12 1.249 . S
C31 C25 1.516 . S
H32 C18 0.930 . S
H33 C19 0.931 . S
H34 C20 0.931 . S
H35 C21 0.933 . S
H36 C27 0.930 . S
H37 C28 0.931 . S
H38 C29 0.931 . S
H39 C30 0.933 . S
Dy40 O43 2.307 1_556 S
Dy40 O45 2.395 . S
Dy40 O46 2.379 . S
Dy40 O48 2.339 . S
Dy40 O50 2.298 . S
Dy40 O54 2.275 . S
Dy40 C62 2.738 . S
Dy41 O44 2.298 . S
Dy41 O47 2.275 . S
Dy41 O49 2.307 1_554 S
Dy41 O51 2.395 . S
Dy41 O52 2.379 . S
Dy41 O55 2.339 . S
Dy41 C71 2.738 . S
C42 O54 1.254 1_554 S
C42 O55 1.257 . S
O43 Dy40 2.307 1_554 S
O43 C53 1.266 . S
O44 Dy41 2.298 . S
O44 C53 1.236 . S
O45 Dy40 2.395 . S
O45 C62 1.255 . S
O46 Dy40 2.379 . S
O46 C62 1.249 . S
O47 Dy41 2.275 . S
O47 C63 1.254 1_554 S
O48 Dy40 2.339 . S
O48 C63 1.257 . S
O49 Dy41 2.307 1_556 S
O49 C64 1.266 . S
O50 Dy40 2.298 . S
O50 C64 1.236 . S
O51 Dy41 2.395 . S
O51 C71 1.255 . S
O52 Dy41 2.379 . S
O52 C71 1.249 . S
C53 O43 1.266 . S
C53 O44 1.236 . S
O54 Dy40 2.275 . S
O54 C42 1.254 1_556 S
O55 Dy41 2.339 . S
O55 C42 1.257 . S
C56 C59 1.344 . S
C56 C60 1.328 . S
C56 C62 1.516 . S
C57 C58 1.304 . S
C57 C61 1.323 . S
C58 C57 1.304 . S
C58 C59 1.371 . S
C58 H72 0.930 . S
C59 C56 1.344 . S
C59 C58 1.371 . S
C59 H73 0.931 . S
C60 C56 1.328 . S
C60 C61 1.433 . S
C60 H74 0.931 . S
C61 C57 1.323 . S
C61 C60 1.433 . S
C61 H75 0.933 . S
C62 Dy40 2.738 . S
C62 O45 1.255 . S
C62 O46 1.249 . S
C62 C56 1.516 . S
C63 O47 1.254 1_556 S
C63 O48 1.257 . S
C64 O49 1.266 . S
C64 O50 1.236 . S
C65 C68 1.344 . S
C65 C69 1.328 . S
C65 C71 1.516 . S
C66 C67 1.304 . S
C66 C70 1.323 . S
C67 C66 1.304 . S
C67 C68 1.371 . S
C67 H76 0.930 . S
C68 C65 1.344 . S
C68 C67 1.371 . S
C68 H77 0.931 . S
C69 C65 1.328 . S
C69 C70 1.433 . S
C69 H78 0.931 . S
C70 C66 1.323 . S
C70 C69 1.433 . S
C70 H79 0.933 . S
C71 Dy41 2.738 . S
C71 O51 1.255 . S
C71 O52 1.249 . S
C71 C65 1.516 . S
H72 C58 0.930 . S
H73 C59 0.931 . S
H74 C60 0.931 . S
H75 C61 0.933 . S
H76 C67 0.930 . S
H77 C68 0.931 . S
H78 C69 0.931 . S
H79 C70 0.933 . S
Dy80 O83 2.307 . S
Dy80 O85 2.395 . S
Dy80 O86 2.379 . S
Dy80 O88 2.339 . S
Dy80 O90 2.298 . S
Dy80 O94 2.275 . S
Dy80 C102 2.738 . S
Dy81 O84 2.298 . S
Dy81 O87 2.275 . S
Dy81 O89 2.307 . S
Dy81 O91 2.395 . S
Dy81 O92 2.379 . S
Dy81 O95 2.339 . S
Dy81 C111 2.738 . S
C82 O94 1.254 . S
C82 O95 1.257 . S
O83 Dy80 2.307 . S
O83 C93 1.266 . S
O84 Dy81 2.298 . S
O84 C93 1.236 . S
O85 Dy80 2.395 . S
O85 C102 1.255 . S
O86 Dy80 2.379 . S
O86 C102 1.249 . S
O87 Dy81 2.275 . S
O87 C103 1.254 . S
O88 Dy80 2.339 . S
O88 C103 1.257 . S
O89 Dy81 2.307 . S
O89 C104 1.266 . S
O90 Dy80 2.298 . S
O90 C104 1.236 . S
O91 Dy81 2.395 . S
O91 C111 1.255 . S
O92 Dy81 2.379 . S
O92 C111 1.249 . S
C93 O83 1.266 . S
C93 O84 1.236 . S
O94 Dy80 2.275 . S
O94 C82 1.254 . S
O95 Dy81 2.339 . S
O95 C82 1.257 . S
C96 C99 1.344 . S
C96 C100 1.328 . S
C96 C102 1.516 . S
C97 C98 1.304 . S
C97 C101 1.323 . S
C98 C97 1.304 . S
C98 C99 1.371 . S
C98 H112 0.930 . S
C99 C96 1.344 . S
C99 C98 1.371 . S
C99 H113 0.931 . S
C100 C96 1.328 . S
C100 C101 1.433 . S
C100 H114 0.931 . S
C101 C97 1.323 . S
C101 C100 1.433 . S
C101 H115 0.933 . S
C102 Dy80 2.738 . S
C102 O85 1.255 . S
C102 O86 1.249 . S
C102 C96 1.516 . S
C103 O87 1.254 . S
C103 O88 1.257 . S
C104 O89 1.266 . S
C104 O90 1.236 . S
C105 C108 1.344 . S
C105 C109 1.328 . S
C105 C111 1.516 . S
C106 C107 1.304 . S
C106 C110 1.323 . S
C107 C106 1.304 . S
C107 C108 1.371 . S
C107 H116 0.930 . S
C108 C105 1.344 . S
C108 C107 1.371 . S
C108 H117 0.931 . S
C109 C105 1.328 . S
C109 C110 1.433 . S
C109 H118 0.931 . S
C110 C106 1.323 . S
C110 C109 1.433 . S
C110 H119 0.933 . S
C111 Dy81 2.738 . S
C111 O91 1.255 . S
C111 O92 1.249 . S
C111 C105 1.516 . S
H112 C98 0.930 . S
H113 C99 0.931 . S
H114 C100 0.931 . S
H115 C101 0.933 . S
H116 C107 0.930 . S
H117 C108 0.931 . S
H118 C109 0.931 . S
H119 C110 0.933 . S
Dy120 O123 2.307 . S
Dy120 O125 2.395 . S
Dy120 O126 2.379 . S
Dy120 O128 2.339 . S
Dy120 O130 2.298 . S
Dy120 O134 2.275 . S
Dy120 C142 2.738 . S
Dy121 O124 2.298 . S
Dy121 O127 2.275 . S
Dy121 O129 2.307 . S
Dy121 O131 2.395 . S
Dy121 O132 2.379 . S
Dy121 O135 2.339 . S
Dy121 C151 2.738 . S
C122 O134 1.254 . S
C122 O135 1.257 . S
O123 Dy120 2.307 . S
O123 C133 1.266 . S
O124 Dy121 2.298 . S
O124 C133 1.236 . S
O125 Dy120 2.395 . S
O125 C142 1.255 . S
O126 Dy120 2.379 . S
O126 C142 1.249 . S
O127 Dy121 2.275 . S
O127 C143 1.254 . S
O128 Dy120 2.339 . S
O128 C143 1.257 . S
O129 Dy121 2.307 . S
O129 C144 1.266 . S
O130 Dy120 2.298 . S
O130 C144 1.236 . S
O131 Dy121 2.395 . S
O131 C151 1.255 . S
O132 Dy121 2.379 . S
O132 C151 1.249 . S
C133 O123 1.266 . S
C133 O124 1.236 . S
O134 Dy120 2.275 . S
O134 C122 1.254 . S
O135 Dy121 2.339 . S
O135 C122 1.257 . S
C136 C139 1.344 . S
C136 C140 1.328 . S
C136 C142 1.516 . S
C137 C138 1.304 . S
C137 C141 1.323 . S
C138 C137 1.304 . S
C138 C139 1.371 . S
C138 H152 0.930 . S
C139 C136 1.344 . S
C139 C138 1.371 . S
C139 H153 0.931 . S
C140 C136 1.328 . S
C140 C141 1.433 . S
C140 H154 0.931 . S
C141 C137 1.323 . S
C141 C140 1.433 . S
C141 H155 0.933 . S
C142 Dy120 2.738 . S
C142 O125 1.255 . S
C142 O126 1.249 . S
C142 C136 1.516 . S
C143 O127 1.254 . S
C143 O128 1.257 . S
C144 O129 1.266 . S
C144 O130 1.236 . S
C145 C148 1.344 . S
C145 C149 1.328 . S
C145 C151 1.516 . S
C146 C147 1.304 . S
C146 C150 1.323 . S
C147 C146 1.304 . S
C147 C148 1.371 . S
C147 H156 0.930 . S
C148 C145 1.344 . S
C148 C147 1.371 . S
C148 H157 0.931 . S
C149 C145 1.328 . S
C149 C150 1.433 . S
C149 H158 0.931 . S
C150 C146 1.323 . S
C150 C149 1.433 . S
C150 H159 0.933 . S
C151 Dy121 2.738 . S
C151 O131 1.255 . S
C151 O132 1.249 . S
C151 C145 1.516 . S
H152 C138 0.930 . S
H153 C139 0.931 . S
H154 C140 0.931 . S
H155 C141 0.933 . S
H156 C147 0.930 . S
H157 C148 0.931 . S
H158 C149 0.931 . S
H159 C150 0.933 . S
C160 C161 1.386 1_556 S
C160 C162 1.383 . S
C160 H176 0.951 . S
C161 C160 1.386 1_554 S
C161 C165 1.383 . S
C162 C160 1.383 . S
C162 C163 1.402 1_556 S
C162 H177 0.951 . S
C163 C162 1.402 1_554 S
C163 C164 1.375 . S
C163 C166 1.481 . S
C164 C163 1.375 . S
C164 C165 1.367 . S
C164 H178 0.951 . S
C165 C161 1.383 . S
C165 C164 1.367 . S
C165 H179 0.950 . S
C166 C163 1.481 . S
C166 C167 1.297 1_554 S
C166 H180 0.950 . S
C167 C166 1.297 1_556 S
C167 C168 1.476 1_556 S
C167 H181 0.950 . S
C168 C167 1.476 1_554 S
C168 C169 1.365 1_554 S
C168 C174 1.416 . S
C169 C168 1.365 1_556 S
C169 C170 1.369 . S
C169 H182 0.950 . S
C170 C169 1.369 . S
C170 C171 1.392 1_556 S
C170 H183 0.951 . S
C171 C170 1.392 1_554 S
C171 C173 1.384 . S
H172 C174 0.949 . S
C173 C171 1.384 . S
C173 C174 1.385 . S
C173 H175 0.950 . S
C174 C168 1.416 . S
C174 H172 0.949 . S
C174 C173 1.385 . S
H175 C173 0.950 . S
H176 C160 0.951 . S
H177 C162 0.951 . S
H178 C164 0.951 . S
H179 C165 0.950 . S
H180 C166 0.950 . S
H181 C167 0.950 . S
H182 C169 0.950 . S
H183 C170 0.951 . S
C184 C185 1.386 . S
C184 C186 1.383 . S
C184 H200 0.951 . S
C185 C184 1.386 . S
C185 C189 1.383 . S
C186 C184 1.383 . S
C186 C187 1.402 . S
C186 H201 0.951 . S
C187 C186 1.402 . S
C187 C188 1.375 . S
C187 C190 1.481 . S
C188 C187 1.375 . S
C188 C189 1.367 . S
C188 H202 0.951 . S
C189 C185 1.383 . S
C189 C188 1.367 . S
C189 H203 0.950 . S
C190 C187 1.481 . S
C190 C191 1.297 . S
C190 H204 0.950 . S
C191 C190 1.297 . S
C191 C192 1.479 . S
C191 H205 0.950 . S
C192 C191 1.479 . S
C192 C193 1.375 . S
C192 C198 1.404 . S
C193 C192 1.375 . S
C193 C194 1.369 . S
C193 H206 0.950 . S
C194 C193 1.369 . S
C194 C195 1.392 . S
C194 H207 0.951 . S
C195 C194 1.392 . S
C195 C197 1.384 . S
H196 C198 0.949 . S
C197 C195 1.384 . S
C197 C198 1.385 . S
C197 H199 0.950 . S
C198 C192 1.404 . S
C198 H196 0.949 . S
C198 C197 1.385 . S
H199 C197 0.950 . S
H200 C184 0.951 . S
H201 C186 0.951 . S
H202 C188 0.951 . S
H203 C189 0.950 . S
H204 C190 0.950 . S
H205 C191 0.950 . S
H206 C193 0.950 . S
H207 C194 0.951 . S
C208 C209 1.386 . S
C208 C210 1.383 . S
C208 H224 0.951 . S
C209 C208 1.386 . S
C209 C213 1.383 . S
C210 C208 1.383 . S
C210 C211 1.402 . S
C210 H225 0.951 1_455 S
C211 C210 1.402 . S
C211 C212 1.375 . S
C211 C214 1.481 1_545 S
C212 C211 1.375 . S
C212 C213 1.367 . S
C212 H226 0.951 . S
C213 C209 1.383 . S
C213 C212 1.367 . S
C213 H227 0.950 . S
C214 C211 1.481 1_565 S
C214 C215 1.297 1_455 S
C214 H228 0.950 . S
C215 C214 1.297 1_655 S
C215 C216 1.479 . S
C215 H229 0.950 1_565 S
C216 C215 1.479 . S
C216 C217 1.375 . S
C216 C222 1.404 . S
C217 C216 1.375 . S
C217 C218 1.369 . S
C217 H230 0.950 . S
C218 C217 1.369 . S
C218 C219 1.392 . S
C218 H231 0.951 . S
C219 C218 1.392 . S
C219 C221 1.384 . S
H220 C222 0.949 1_455 S
C221 C219 1.384 . S
C221 C222 1.385 . S
C221 H223 0.950 . S
C222 C216 1.404 . S
C222 H220 0.949 1_655 S
C222 C221 1.385 . S
H223 C221 0.950 . S
H224 C208 0.951 . S
H225 C210 0.951 1_655 S
H226 C212 0.951 . S
H227 C213 0.950 . S
H228 C214 0.950 . S
H229 C215 0.950 1_545 S
H230 C217 0.950 . S
H231 C218 0.951 . S
C232 C233 1.386 . S
C232 C234 1.383 . S
C232 H248 0.951 . S
C233 C232 1.386 . S
C233 C237 1.383 . S
C234 C232 1.383 . S
C234 C235 1.402 . S
C234 H249 0.951 . S
C235 C234 1.402 . S
C235 C236 1.375 . S
C235 C238 1.481 . S
C236 C235 1.375 . S
C236 C237 1.367 . S
C236 H250 0.951 . S
C237 C233 1.383 . S
C237 C236 1.367 . S
C237 H251 0.950 . S
C238 C235 1.481 . S
C238 C239 1.297 1_545 S
C238 H252 0.950 1_655 S
C239 C238 1.297 1_565 S
C239 C240 1.479 1_655 S
C239 H253 0.950 . S
C240 C239 1.479 1_455 S
C240 C241 1.375 . S
C240 C246 1.404 . S
C241 C240 1.375 . S
C241 C242 1.369 . S
C241 H254 0.950 1_455 S
C242 C241 1.369 . S
C242 C243 1.392 . S
C242 H255 0.951 . S
C243 C242 1.392 . S
C243 C245 1.384 . S
H244 C246 0.949 . S
C245 C243 1.384 . S
C245 C246 1.385 . S
C245 H247 0.950 . S
C246 C240 1.404 . S
C246 H244 0.949 . S
C246 C245 1.385 . S
H247 C245 0.950 . S
H248 C232 0.951 . S
H249 C234 0.951 . S
H250 C236 0.951 . S
H251 C237 0.950 . S
H252 C238 0.950 1_455 S
H253 C239 0.950 . S
H254 C241 0.950 1_655 S
H255 C242 0.951 . S
C256 C257 1.386 . S
C256 C258 1.383 . S
C256 H272 0.951 . S
C257 C256 1.386 . S
C257 C261 1.383 . S
C258 C256 1.383 . S
C258 C259 1.402 . S
C258 H273 0.951 . S
C259 C258 1.402 . S
C259 C260 1.375 . S
C259 C262 1.481 . S
C260 C259 1.375 . S
C260 C261 1.367 . S
C260 H274 0.951 . S
C261 C257 1.383 . S
C261 C260 1.367 . S
C261 H275 0.950 . S
C262 C259 1.481 . S
C262 C263 1.297 . S
C262 H276 0.950 . S
C263 C262 1.297 . S
C263 C264 1.479 . S
C263 H277 0.950 . S
C264 C263 1.479 . S
C264 C265 1.375 . S
C264 C270 1.404 . S
C265 C264 1.375 . S
C265 C266 1.369 . S
C265 H278 0.950 . S
C266 C265 1.369 . S
C266 C267 1.392 . S
C266 H279 0.951 . S
C267 C266 1.392 . S
C267 C269 1.384 . S
H268 C270 0.949 . S
C269 C267 1.384 . S
C269 C270 1.385 . S
C269 H271 0.950 . S
C270 C264 1.404 . S
C270 H268 0.949 . S
C270 C269 1.385 . S
H271 C269 0.950 . S
H272 C256 0.951 . S
H273 C258 0.951 . S
H274 C260 0.951 . S
H275 C261 0.950 . S
H276 C262 0.950 . S
H277 C263 0.950 . S
H278 C265 0.950 . S
H279 C266 0.951 . S
C280 C281 1.386 . S
C280 C282 1.383 . S
C280 H296 0.951 . S
C281 C280 1.386 . S
C281 C285 1.383 . S
C282 C280 1.383 . S
C282 C283 1.402 . S
C282 H297 0.951 . S
C283 C282 1.402 . S
C283 C284 1.375 . S
C283 C286 1.481 . S
C284 C283 1.375 . S
C284 C285 1.367 . S
C284 H298 0.951 . S
C285 C281 1.383 . S
C285 C284 1.367 . S
C285 H299 0.950 . S
C286 C283 1.481 . S
C286 C287 1.297 . S
C286 H300 0.950 . S
C287 C286 1.297 . S
C287 C288 1.479 . S
C287 H301 0.950 . S
C288 C287 1.479 . S
C288 C289 1.375 . S
C288 C294 1.404 . S
C289 C288 1.375 . S
C289 C290 1.369 . S
C289 H302 0.950 . S
C290 C289 1.369 . S
C290 C291 1.392 . S
C290 H303 0.951 . S
C291 C290 1.392 . S
C291 C293 1.384 . S
H292 C294 0.949 . S
C293 C291 1.384 . S
C293 C294 1.385 . S
C293 H295 0.950 . S
C294 C288 1.404 . S
C294 H292 0.949 . S
C294 C293 1.385 . S
H295 C293 0.950 . S
H296 C280 0.951 . S
H297 C282 0.951 . S
H298 C284 0.951 . S
H299 C285 0.950 . S
H300 C286 0.950 . S
H301 C287 0.950 . S
H302 C289 0.950 . S
H303 C290 0.951 . S
C304 C305 1.386 . S
C304 C306 1.383 . S
C304 H320 0.951 . S
C305 C304 1.386 . S
C305 C309 1.383 . S
C306 C304 1.383 . S
C306 C307 1.402 . S
C306 H321 0.951 . S
C307 C306 1.402 . S
C307 C308 1.375 . S
C307 C310 1.481 . S
C308 C307 1.375 . S
C308 C309 1.367 . S
C308 H322 0.951 . S
C309 C305 1.383 . S
C309 C308 1.367 . S
C309 H323 0.950 . S
C310 C307 1.481 . S
C310 C311 1.297 . S
C310 H324 0.950 . S
C311 C310 1.297 . S
C311 C312 1.479 . S
C311 H325 0.950 . S
C312 C311 1.479 . S
C312 C313 1.375 . S
C312 C318 1.404 . S
C313 C312 1.375 . S
C313 C314 1.369 . S
C313 H326 0.950 . S
C314 C313 1.369 . S
C314 C315 1.392 . S
C314 H327 0.951 . S
C315 C314 1.392 . S
C315 C317 1.384 . S
H316 C318 0.949 . S
C317 C315 1.384 . S
C317 C318 1.385 . S
C317 H319 0.950 . S
C318 C312 1.404 . S
C318 H316 0.949 . S
C318 C317 1.385 . S
H319 C317 0.950 . S
H320 C304 0.951 . S
H321 C306 0.951 . S
H322 C308 0.951 . S
H323 C309 0.950 . S
H324 C310 0.950 . S
H325 C311 0.950 . S
H326 C313 0.950 . S
H327 C314 0.951 . S
C328 C329 1.386 . S
C328 C330 1.383 . S
C328 H344 0.951 . S
C329 C328 1.386 . S
C329 C333 1.383 . S
C330 C328 1.383 . S
C330 C331 1.402 . S
C330 H345 0.951 . S
C331 C330 1.402 . S
C331 C332 1.375 . S
C331 C334 1.481 . S
C332 C331 1.375 . S
C332 C333 1.367 . S
C332 H346 0.951 . S
C333 C329 1.383 . S
C333 C332 1.367 . S
C333 H347 0.950 . S
C334 C331 1.481 . S
C334 C335 1.297 . S
C334 H348 0.950 . S
C335 C334 1.297 . S
C335 C336 1.479 . S
C335 H349 0.950 . S
C336 C335 1.479 . S
C336 C337 1.375 . S
C336 C342 1.404 . S
C337 C336 1.375 . S
C337 C338 1.369 . S
C337 H350 0.950 . S
C338 C337 1.369 . S
C338 C339 1.392 . S
C338 H351 0.951 . S
C339 C338 1.392 . S
C339 C341 1.384 . S
H340 C342 0.949 . S
C341 C339 1.384 . S
C341 C342 1.385 . S
C341 H343 0.950 . S
C342 C336 1.404 . S
C342 H340 0.949 . S
C342 C341 1.385 . S
H343 C341 0.950 . S
H344 C328 0.951 . S
H345 C330 0.951 . S
H346 C332 0.951 . S
H347 C333 0.950 . S
H348 C334 0.950 . S
H349 C335 0.950 . S
H350 C337 0.950 . S
H351 C338 0.951 . S
C352 C353 1.386 . S
C352 C354 1.383 . S
C352 H368 0.951 . S
C353 C352 1.386 . S
C353 C357 1.383 . S
C354 C352 1.383 . S
C354 C355 1.402 . S
C354 H369 0.951 . S
C355 C354 1.402 . S
C355 C356 1.375 . S
C355 C358 1.481 . S
C356 C355 1.375 . S
C356 C357 1.367 . S
C356 H370 0.951 . S
C357 C353 1.383 . S
C357 C356 1.367 . S
C357 H371 0.950 . S
C358 C355 1.481 . S
C358 C359 1.297 . S
C358 H372 0.950 . S
C359 C358 1.297 . S
C359 C360 1.479 . S
C359 H373 0.950 . S
C360 C359 1.479 . S
C360 C361 1.375 1_655 S
C360 C366 1.404 . S
C361 C360 1.375 1_455 S
C361 C362 1.369 . S
C361 H374 0.950 . S
C362 C361 1.369 . S
C362 C363 1.387 1_455 S
C362 H375 0.951 . S
C363 C362 1.387 1_655 S
C363 C365 1.391 . S
H364 C366 0.949 . S
C365 C363 1.391 . S
C365 C366 1.385 . S
C365 H367 0.950 . S
C366 C360 1.404 . S
C366 H364 0.949 . S
C366 C365 1.385 . S
H367 C365 0.950 . S
H368 C352 0.951 . S
H369 C354 0.951 . S
H370 C356 0.951 . S
H371 C357 0.950 . S
H372 C358 0.950 . S
H373 C359 0.950 . S
H374 C361 0.950 . S
H375 C362 0.951 . S
C376 C377 1.386 . S
C376 C378 1.383 . S
C376 H392 0.951 . S
C377 C376 1.386 . S
C377 C381 1.383 . S
C378 C376 1.383 . S
C378 C379 1.402 . S
C378 H393 0.951 . S
C379 C378 1.402 . S
C379 C380 1.375 . S
C379 C382 1.481 . S
C380 C379 1.375 . S
C380 C381 1.367 . S
C380 H394 0.951 . S
C381 C377 1.383 . S
C381 C380 1.367 . S
C381 H395 0.950 . S
C382 C379 1.481 . S
C382 C383 1.297 . S
C382 H396 0.950 . S
C383 C382 1.297 . S
C383 C384 1.479 . S
C383 H397 0.950 . S
C384 C383 1.479 . S
C384 C385 1.375 1_655 S
C384 C390 1.404 . S
C385 C384 1.375 1_455 S
C385 C386 1.369 . S
C385 H398 0.950 . S
C386 C385 1.369 . S
C386 C387 1.395 . S
C386 H399 0.951 . S
C387 C386 1.395 . S
C387 C389 1.381 1_455 S
H388 C390 0.949 . S
C389 C387 1.381 1_655 S
C389 C390 1.385 . S
C389 H391 0.950 . S
C390 C384 1.404 . S
C390 H388 0.949 . S
C390 C389 1.385 . S
H391 C389 0.950 . S
H392 C376 0.951 . S
H393 C378 0.951 . S
H394 C380 0.951 . S
H395 C381 0.950 . S
H396 C382 0.950 . S
H397 C383 0.950 . S
H398 C385 0.950 . S
H399 C386 0.951 . S
C400 C401 1.386 1_655 S
C400 C402 1.383 1_655 S
C400 H416 0.951 . S
C401 C400 1.386 1_455 S
C401 C405 1.383 . S
C402 C400 1.383 1_455 S
C402 C403 1.402 . S
C402 H417 0.951 1_455 S
C403 C402 1.402 . S
C403 C404 1.375 . S
C403 C406 1.481 . S
C404 C403 1.375 . S
C404 C405 1.367 . S
C404 H418 0.951 . S
C405 C401 1.383 . S
C405 C404 1.367 . S
C405 H419 0.950 . S
C406 C403 1.481 . S
C406 C407 1.297 . S
C406 H420 0.950 . S
C407 C406 1.297 . S
C407 C408 1.479 . S
C407 H421 0.950 . S
C408 C407 1.479 . S
C408 C409 1.375 . S
C408 C414 1.404 . S
C409 C408 1.375 . S
C409 C410 1.369 . S
C409 H422 0.950 . S
C410 C409 1.369 . S
C410 C411 1.392 . S
C410 H423 0.951 . S
C411 C410 1.392 . S
C411 C413 1.384 . S
H412 C414 0.949 . S
C413 C411 1.384 . S
C413 C414 1.385 . S
C413 H415 0.950 . S
C414 C408 1.404 . S
C414 H412 0.949 . S
C414 C413 1.385 . S
H415 C413 0.950 . S
H416 C400 0.951 . S
H417 C402 0.951 1_655 S
H418 C404 0.951 . S
H419 C405 0.950 . S
H420 C406 0.950 . S
H421 C407 0.950 . S
H422 C409 0.950 . S
H423 C410 0.951 . S
C424 C425 1.386 . S
C424 C426 1.383 . S
C424 H440 0.951 . S
C425 C424 1.386 . S
C425 C429 1.383 . S
C426 C424 1.383 . S
C426 C427 1.402 . S
C426 H441 0.951 . S
C427 C426 1.402 . S
C427 C428 1.375 . S
C427 C430 1.481 . S
C428 C427 1.375 . S
C428 C429 1.367 . S
C428 H442 0.951 . S
C429 C425 1.383 . S
C429 C428 1.367 . S
C429 H443 0.950 . S
C430 C427 1.481 . S
C430 C431 1.297 . S
C430 H444 0.950 . S
C431 C430 1.297 . S
C431 C432 1.479 . S
C431 H445 0.950 . S
C432 C431 1.479 . S
C432 C433 1.375 1_455 S
C432 C438 1.404 . S
C433 C432 1.375 1_655 S
C433 C434 1.369 . S
C433 H446 0.950 . S
C434 C433 1.369 . S
C434 C435 1.392 1_655 S
C434 H447 0.951 . S
C435 C434 1.392 1_455 S
C435 C437 1.384 . S
H436 C438 0.949 . S
C437 C435 1.384 . S
C437 C438 1.385 . S
C437 H439 0.950 . S
C438 C432 1.404 . S
C438 H436 0.949 . S
C438 C437 1.385 . S
H439 C437 0.950 . S
H440 C424 0.951 . S
H441 C426 0.951 . S
H442 C428 0.951 . S
H443 C429 0.950 . S
H444 C430 0.950 . S
H445 C431 0.950 . S
H446 C433 0.950 . S
H447 C434 0.951 . S
C161 C63 1.549 1_554 S
C171 C2 1.527 . S
C185 C82 1.523 . S
C195 C143 1.553 . S
C209 C23 1.524 . S
C219 C42 1.554 1_556 S
C233 C122 1.520 . S
C243 C103 1.547 . S
C257 C146 1.125 . S
C267 C13 1.137 . S
C281 C66 1.166 . S
C291 C93 1.177 . S
C305 C64 1.162 . S
C315 C97 1.098 . S
C329 C144 1.176 . S
C339 C17 1.134 . S
C353 C53 1.151 . S
C363 C106 1.075 1_655 S
C377 C133 1.156 . S
C387 C26 1.096 . S
C401 C137 1.113 1_455 S
C411 C24 1.163 . S
C425 C104 1.172 . S
C435 C57 1.156 1_455 S
