# Generated by pormake.
# Topology umx, (4)-cn, num edge types: 1
# Building blocks:
#     Node 0, Type 0, BuildingBlock: CEKHIL_clean_sbu_0, # of connection points: 4
#     Node 1, Type 0, BuildingBlock: CEKHIL_clean_sbu_0, # of connection points: 4
#     Node 2, Type 0, BuildingBlock: CEKHIL_clean_sbu_0, # of connection points: 4
#     Node 3, Type 0, BuildingBlock: CEKHIL_clean_sbu_0, # of connection points: 4
#     Node 4, Type 0, BuildingBlock: CEKHIL_clean_sbu_0, # of connection points: 4
#     Node 5, Type 0, BuildingBlock: CEKHIL_clean_sbu_0, # of connection points: 4
#     Node 6, Type 0, BuildingBlock: CEKHIL_clean_sbu_0, # of connection points: 4
#     Node 7, Type 0, BuildingBlock: CEKHIL_clean_sbu_0, # of connection points: 4
#     Edge 8, Type (0, 0), BuildingBlock: CIFDUS_clean_linker_0, # of connection points: 2
#     Edge 9, Type (0, 0), BuildingBlock: CIFDUS_clean_linker_0, # of connection points: 2
#     Edge 10, Type (0, 0), BuildingBlock: CIFDUS_clean_linker_0, # of connection points: 2
#     Edge 11, Type (0, 0), BuildingBlock: CIFDUS_clean_linker_0, # of connection points: 2
#     Edge 12, Type (0, 0), BuildingBlock: CIFDUS_clean_linker_0, # of connection points: 2
#     Edge 13, Type (0, 0), BuildingBlock: CIFDUS_clean_linker_0, # of connection points: 2
#     Edge 14, Type (0, 0), BuildingBlock: CIFDUS_clean_linker_0, # of connection points: 2
#     Edge 15, Type (0, 0), BuildingBlock: CIFDUS_clean_linker_0, # of connection points: 2
#     Edge 16, Type (0, 0), BuildingBlock: CIFDUS_clean_linker_0, # of connection points: 2
#     Edge 17, Type (0, 0), BuildingBlock: CIFDUS_clean_linker_0, # of connection points: 2
#     Edge 18, Type (0, 0), BuildingBlock: CIFDUS_clean_linker_0, # of connection points: 2
#     Edge 19, Type (0, 0), BuildingBlock: CIFDUS_clean_linker_0, # of connection points: 2
#     Edge 20, Type (0, 0), BuildingBlock: CIFDUS_clean_linker_0, # of connection points: 2
#     Edge 21, Type (0, 0), BuildingBlock: CIFDUS_clean_linker_0, # of connection points: 2
#     Edge 22, Type (0, 0), BuildingBlock: CIFDUS_clean_linker_0, # of connection points: 2
#     Edge 23, Type (0, 0), BuildingBlock: CIFDUS_clean_linker_0, # of connection points: 2
# Relax obj value: 0.076
# Max RMSD: 0.186
# Mean RMSD: 0.186
data_MOF--net-umx--node1-CEKHIL_clean_sbu_0--edge1-CIFDUS_clean_linker_0
_symmetry_space_group_name_H-M    P1
_symmetry_Int_Tables_number       1
_symmetry_cell_setting            triclinic
loop_
_symmetry_equiv_pos_as_xyz
'x, y, z'
_cell_length_a     34.405351
_cell_length_b     34.396038
_cell_length_c     24.343374
_cell_angle_alpha  89.986568
_cell_angle_beta   90.012116
_cell_angle_gamma 89.835451
loop_
_atom_site_label
_atom_site_type_symbol
_atom_site_fract_x
_atom_site_fract_y
_atom_site_fract_z
_atom_type_partial_charge
Co0 Co 0.18767 0.44819 -0.00231 0.0
O1 O 0.23345 0.41664 0.99069 0.0
O2 O 0.17863 0.39697 0.02941 0.0
C3 C 0.18841 0.4702 0.91119 0.0
O4 O 0.13401 0.47331 0.00855 0.0
Co5 Co 0.19609 0.53773 0.98521 0.0
O6 O 0.1386 0.53663 0.98557 0.0
C7 C 0.21825 0.50095 0.0896 0.0
C8 C 0.21402 0.38902 0.01393 0.0
C9 C 0.11865 0.50712 -0.00024 0.0
O10 O 0.20566 0.46822 0.0713 0.0
O11 O 0.21966 0.53176 0.06016 0.0
O12 O 0.17393 0.43629 0.92208 0.0
O13 O 0.2056 0.48772 0.95132 0.0
Co14 Co 0.54677 0.19824 0.51817 0.0
O15 O 0.56904 0.24911 0.52277 0.0
O16 O 0.59791 0.19529 0.55222 0.0
C17 C 0.52902 0.20257 0.42862 0.0
O18 O 0.53234 0.14057 0.51779 0.0
Co19 Co 0.45901 0.19121 0.49905 0.0
O20 O 0.47031 0.13521 0.48957 0.0
C21 C 0.48635 0.20982 0.61051 0.0
C22 C 0.59923 0.23272 0.5446 0.0
C23 C 0.50264 0.12003 0.50354 0.0
O24 O 0.52144 0.20572 0.59294 0.0
O25 O 0.45689 0.20765 0.57849 0.0
O26 O 0.56412 0.1933 0.44273 0.0
O27 O 0.50644 0.21311 0.46879 0.0
Co28 Co 0.8158 0.56177 0.00913 0.0
O29 O 0.76893 0.59128 0.00114 0.0
O30 O 0.82404 0.61534 0.03321 0.0
C31 C 0.81304 0.53436 0.92553 0.0
O32 O 0.87042 0.53856 0.01931 0.0
Co33 Co 0.80866 0.47165 0.00841 0.0
O34 O 0.86589 0.47436 0.00162 0.0
C35 C 0.78975 0.51438 0.10948 0.0
C36 C 0.78797 0.62111 0.01883 0.0
C37 C 0.88593 0.50466 0.01172 0.0
O38 O 0.80071 0.5461 0.08613 0.0
O39 O 0.78814 0.48177 0.08426 0.0
O40 O 0.82696 0.56911 0.93156 0.0
O41 O 0.79755 0.51917 0.96888 0.0
Co42 Co 0.43653 0.80979 0.49673 0.0
O43 O 0.41491 0.75889 0.48978 0.0
O44 O 0.3817 0.8105 0.51732 0.0
C45 C 0.46629 0.80911 0.41456 0.0
O46 O 0.45013 0.86741 0.50529 0.0
Co47 Co 0.52646 0.81797 0.49964 0.0
O48 O 0.51445 0.8739 0.49046 0.0
C49 C 0.48511 0.79316 0.59956 0.0
C50 C 0.38188 0.77374 0.5043 0.0
C51 C 0.48082 0.88847 0.49852 0.0
O52 O 0.45238 0.79889 0.57512 0.0
O53 O 0.51793 0.79633 0.57522 0.0
O54 O 0.42971 0.81795 0.41833 0.0
O55 O 0.48264 0.7974 0.45946 0.0
Co56 Co 0.20121 0.54558 0.5086 0.0
O57 O 0.25118 0.56991 0.50672 0.0
O58 O 0.19657 0.59766 0.47793 0.0
C59 C 0.2057 0.52389 0.59527 0.0
O60 O 0.14419 0.52886 0.50663 0.0
Co61 Co 0.19656 0.45614 0.52284 0.0
O62 O 0.14014 0.46599 0.53179 0.0
C63 C 0.21803 0.48852 0.41519 0.0
C64 C 0.23388 0.60005 0.48619 0.0
C65 C 0.12429 0.49831 0.51911 0.0
O66 O 0.21076 0.52289 0.43343 0.0
O67 O 0.2168 0.45812 0.44551 0.0
O68 O 0.19495 0.5594 0.58531 0.0
O69 O 0.2171 0.50394 0.55317 0.0
Co70 Co 0.42547 0.19223 0.03265 0.0
O71 O 0.39812 0.24091 0.03373 0.0
O72 O 0.37496 0.18667 -0.00267 0.0
C73 C 0.44287 0.1943 0.12261 0.0
O74 O 0.44531 0.13608 0.0275 0.0
Co75 Co 0.51333 0.19174 0.05149 0.0
O76 O 0.50737 0.1347 0.05644 0.0
C77 C 0.48453 0.21115 0.941 0.0
C78 C 0.36973 0.22314 0.00974 0.0
C79 C 0.47667 0.11747 0.0405 0.0
O80 O 0.44979 0.20518 0.95875 0.0
O81 O 0.51426 0.20951 0.9726 0.0
O82 O 0.40895 0.18209 0.10743 0.0
O83 O 0.46426 0.20851 0.08349 0.0
Co84 Co 0.81381 0.43147 0.53385 0.0
O85 O 0.76265 0.4111 0.54306 0.0
O86 O 0.81261 0.37661 0.51301 0.0
C87 C 0.81567 0.46076 0.61628 0.0
O88 O 0.87151 0.44411 0.52263 0.0
Co89 Co 0.82286 0.52124 0.53076 0.0
O90 O 0.87874 0.50839 0.53747 0.0
C91 C 0.79478 0.48059 0.43221 0.0
C92 C 0.77617 0.37772 0.52769 0.0
C93 C 0.89292 0.47467 0.52865 0.0
O94 O 0.80116 0.4478 0.45618 0.0
O95 O 0.79884 0.51336 0.45644 0.0
O96 O 0.82377 0.42406 0.61167 0.0
O97 O 0.80313 0.47758 0.57216 0.0
Co98 Co 0.57089 0.81385 0.02356 0.0
O99 O 0.59702 0.76454 0.02374 0.0
O100 O 0.62438 0.82016 -0.00097 0.0
C101 C 0.54368 0.80796 0.10689 0.0
O102 O 0.55203 0.87045 0.02077 0.0
Co103 Co 0.48049 0.8144 0.02534 0.0
O104 O 0.48749 0.87094 0.03689 0.0
C105 C 0.52097 0.79562 0.92251 0.0
C106 C 0.62755 0.78281 0.00671 0.0
C107 C 0.51961 0.88857 0.02935 0.0
O108 O 0.55341 0.80464 0.94553 0.0
O109 O 0.48867 0.79473 0.94854 0.0
O110 O 0.5795 0.81928 0.10217 0.0
O111 O 0.52718 0.79653 0.06201 0.0
H112 H 0.22212 0.44246 0.1651 0.0
H113 H 0.23494 0.56681 0.14818 0.0
H114 H 0.23948 0.57346 0.2476 0.0
H115 H 0.23282 0.54498 0.33948 0.0
H116 H 0.21925 0.42073 0.35636 0.0
H117 H 0.22236 0.41323 0.25692 0.0
C118 C 0.22641 0.47101 0.18299 0.0
C119 C 0.22756 0.5041 0.14898 0.0
C120 C 0.22851 0.47477 0.24035 0.0
C121 C 0.23367 0.54077 0.17312 0.0
C122 C 0.2361 0.54468 0.23013 0.0
C123 C 0.2309 0.51619 0.32152 0.0
C124 C 0.22518 0.48358 0.3555 0.0
C125 C 0.2324 0.51203 0.26417 0.0
C126 C 0.22341 0.44644 0.33138 0.0
C127 C 0.22506 0.44209 0.27438 0.0
H128 H 0.5404 0.21843 0.69279 0.0
H129 H 0.41661 0.21213 0.66504 0.0
H130 H 0.40504 0.21447 0.76377 0.0
H131 H 0.4299 0.21423 0.85868 0.0
H132 H 0.55369 0.22047 0.88648 0.0
H133 H 0.56504 0.22256 0.78768 0.0
C134 C 0.51083 0.21786 0.70816 0.0
C135 C 0.47952 0.21481 0.6709 0.0
C136 C 0.50423 0.21908 0.76542 0.0
C137 C 0.44143 0.21436 0.6922 0.0
C138 C 0.43471 0.21562 0.74893 0.0
C139 C 0.45939 0.21645 0.84332 0.0
C140 C 0.49083 0.21693 0.88064 0.0
C141 C 0.46588 0.21738 0.78604 0.0
C142 C 0.52878 0.21995 0.8593 0.0
C143 C 0.53539 0.22102 0.80253 0.0
H144 H 0.78625 0.54328 0.36457 0.0
H145 H 0.78303 0.41771 0.36511 0.0
H146 H 0.77682 0.41741 0.26534 0.0
H147 H 0.77906 0.45234 0.17762 0.0
H148 H 0.78468 0.57781 0.17709 0.0
H149 H 0.78273 0.5784 0.2772 0.0
C150 C 0.78368 0.51579 0.3431 0.0
C151 C 0.78561 0.48057 0.37256 0.0
C152 C 0.78079 0.51574 0.28555 0.0
C153 C 0.78198 0.44531 0.34371 0.0
C154 C 0.77849 0.44507 0.28652 0.0
C155 C 0.77924 0.47991 0.19923 0.0
C156 C 0.78246 0.51495 0.16961 0.0
C157 C 0.77889 0.48007 0.25693 0.0
C158 C 0.78256 0.55033 0.19862 0.0
C159 C 0.78153 0.55073 0.25598 0.0
H160 H 0.458 0.78682 0.85541 0.0
H161 H 0.58358 0.78856 0.85393 0.0
H162 H 0.58337 0.78407 0.75404 0.0
H163 H 0.54782 0.78539 0.6671 0.0
H164 H 0.42224 0.78561 0.66803 0.0
H165 H 0.42239 0.78306 0.76819 0.0
C166 C 0.48538 0.78576 0.8334 0.0
C167 C 0.52074 0.78851 0.86237 0.0
C168 C 0.48513 0.7837 0.77575 0.0
C169 C 0.55588 0.78693 0.83289 0.0
C170 C 0.55583 0.78436 0.77565 0.0
C171 C 0.5204 0.7844 0.68899 0.0
C172 C 0.48508 0.78613 0.65978 0.0
C173 C 0.52063 0.78362 0.74663 0.0
C174 C 0.44992 0.78458 0.68921 0.0
C175 C 0.44994 0.78323 0.74661 0.0
H176 H 0.81309 0.42719 0.71611 0.0
H177 H 0.82153 0.53862 0.63571 0.0
H178 H 0.82306 0.57117 0.72519 0.0
H179 H 0.82064 0.56772 0.82591 0.0
H180 H 0.80734 0.45658 0.9058 0.0
H181 H 0.80903 0.42386 0.81655 0.0
C182 C 0.81551 0.4586 0.71824 0.0
C183 C 0.81744 0.48059 0.66968 0.0
C184 C 0.81534 0.477 0.76954 0.0
C185 C 0.81998 0.52122 0.67274 0.0
C186 C 0.82088 0.53976 0.72377 0.0
C187 C 0.81828 0.53631 0.82371 0.0
C188 C 0.81406 0.51445 0.87212 0.0
C189 C 0.81838 0.51792 0.77237 0.0
C190 C 0.81053 0.4739 0.86893 0.0
C191 C 0.81157 0.45525 0.81802 0.0
H192 H 0.57622 0.81159 0.20775 0.0
H193 H 0.46555 0.8058 0.12479 0.0
H194 H 0.43185 0.80739 0.21316 0.0
H195 H 0.434 0.80948 0.31372 0.0
H196 H 0.54461 0.81112 0.39718 0.0
H197 H 0.5784 0.81218 0.30867 0.0
C198 C 0.54472 0.81079 0.2091 0.0
C199 C 0.52332 0.80873 0.16002 0.0
C200 C 0.52565 0.81095 0.25998 0.0
C201 C 0.48258 0.80731 0.16214 0.0
C202 C 0.46334 0.80829 0.21258 0.0
C203 C 0.46551 0.81028 0.31249 0.0
C204 C 0.48688 0.81043 0.36166 0.0
C205 C 0.4846 0.81001 0.26169 0.0
C206 C 0.52764 0.81096 0.3597 0.0
C207 C 0.5469 0.81159 0.3092 0.0
H208 H 0.22006 0.43696 0.82239 0.0
H209 H 0.15591 0.5377 0.87614 0.0
H210 H 0.15412 0.56255 0.78175 0.0
H211 H 0.17193 0.55583 0.68469 0.0
H212 H 0.23856 0.45628 0.6313 0.0
H213 H 0.23894 0.43081 0.72516 0.0
C214 C 0.20582 0.46438 0.81309 0.0
C215 C 0.18823 0.48574 0.85537 0.0
C216 C 0.20565 0.47865 0.75919 0.0
C217 C 0.16995 0.52123 0.84381 0.0
C218 C 0.16886 0.53527 0.79002 0.0
C219 C 0.18649 0.52853 0.6936 0.0
C220 C 0.20507 0.50783 0.65129 0.0
C221 C 0.1868 0.5143 0.74749 0.0
C222 C 0.22376 0.4725 0.66324 0.0
C223 C 0.22407 0.458 0.71682 0.0
H224 H 0.45656 0.19618 0.38242 0.0
H225 H 0.57755 0.21184 0.34225 0.0
H226 H 0.56216 0.21193 0.24452 0.0
H227 H 0.51444 0.20604 0.16932 0.0
H228 H 0.39397 0.18639 0.20934 0.0
H229 H 0.40893 0.18927 0.30706 0.0
C230 C 0.4794 0.1999 0.3522 0.0
C231 C 0.51806 0.20414 0.36969 0.0
C232 C 0.47049 0.19898 0.29558 0.0
C233 C 0.54749 0.20841 0.32996 0.0
C234 C 0.53876 0.20848 0.27391 0.0
C235 C 0.49153 0.20249 0.19948 0.0
C236 C 0.4532 0.19606 0.18184 0.0
C237 C 0.5004 0.20351 0.25607 0.0
C238 C 0.42384 0.19123 0.22158 0.0
C239 C 0.4323 0.19296 0.27769 0.0
H240 H 0.94258 0.56067 0.01084 0.0
H241 H 0.926 0.43637 0.01877 0.0
H242 H 0.99586 0.42609 0.01801 0.0
H243 H 0.06216 0.45181 0.01141 0.0
H244 H 0.07898 0.57599 0.00183 0.0
H245 H 0.00916 0.58653 0.00716 0.0
C246 C 0.95424 0.53137 0.01284 0.0
C247 C 0.92881 0.49949 0.01453 0.0
C248 C 0.99478 0.52543 0.01187 0.0
C249 C 0.94465 0.46165 0.01696 0.0
C250 C 0.98476 0.4556 0.0166 0.0
C251 C 0.05061 0.48118 0.01086 0.0
C252 C 0.07602 0.51289 0.00591 0.0
C253 C 0.01016 0.48721 0.01346 0.0
C254 C 0.06029 0.55081 0.00517 0.0
C255 C 0.02023 0.557 0.00829 0.0
H256 H 0.54005 0.94025 0.50664 0.0
H257 H 0.41495 0.93372 0.49517 0.0
H258 H 0.41096 0.00475 0.49571 0.0
H259 H 0.44302 0.06835 0.49811 0.0
H260 H 0.56806 0.07464 0.51125 0.0
H261 H 0.57193 0.00367 0.51133 0.0
C262 C 0.51181 0.95422 0.50417 0.0
C263 C 0.47781 0.93152 0.50053 0.0
C264 C 0.50974 0.99497 0.50473 0.0
C265 C 0.44156 0.95035 0.49802 0.0
C266 C 0.43928 0.99098 0.4982 0.0
C267 C 0.47121 0.05431 0.50086 0.0
C268 C 0.50527 0.07695 0.50433 0.0
C269 C 0.4732 0.01353 0.50127 0.0
C270 C 0.54141 0.05806 0.50852 0.0
C271 C 0.54364 0.01746 0.5085 0.0
H272 H 0.07321 0.43786 0.52484 0.0
H273 H 0.07809 0.56302 0.51149 0.0
H274 H 0.00722 0.56619 0.51224 0.0
H275 H 0.9443 0.5339 0.51825 0.0
H276 H 0.93856 0.40879 0.53055 0.0
H277 H 0.00966 0.40522 0.52829 0.0
C278 C 0.05886 0.46591 0.52214 0.0
C279 C 0.08115 0.50023 0.5184 0.0
C280 C 0.01802 0.46753 0.52233 0.0
C281 C 0.06185 0.53617 0.51439 0.0
C282 C 0.02128 0.53801 0.51489 0.0
C283 C 0.95843 0.50572 0.5205 0.0
C284 C 0.93594 0.47162 0.52496 0.0
C285 C 0.99914 0.50392 0.5191 0.0
C286 C 0.95501 0.43548 0.52711 0.0
C287 C 0.99569 0.43345 0.52596 0.0
H288 H 0.45591 0.9354 0.02351 0.0
H289 H 0.58103 0.93916 0.03679 0.0
H290 H 0.57851 0.0102 0.04115 0.0
H291 H 0.54077 0.07087 0.04278 0.0
H292 H 0.41575 0.06698 0.02773 0.0
H293 H 0.41838 0.99604 0.02243 0.0
C294 C 0.48274 0.95163 0.02743 0.0
C295 C 0.51866 0.93178 0.03018 0.0
C296 C 0.48108 0.99239 0.02965 0.0
C297 C 0.55302 0.95354 0.03456 0.0
C298 C 0.55157 0.99418 0.03719 0.0
C299 C 0.51399 0.0546 0.03844 0.0
C300 C 0.47801 0.07439 0.03604 0.0
C301 C 0.51575 0.01386 0.03506 0.0
C302 C 0.44379 0.05266 0.02972 0.0
C303 C 0.44529 0.01206 0.02677 0.0
H304 H 0.24622 0.34514 0.93484 0.0
H305 H 0.22419 0.34837 0.10893 0.0
H306 H 0.26803 0.29271 0.12253 0.0
H307 H 0.31969 0.24983 0.08566 0.0
H308 H 0.34008 0.24539 0.91125 0.0
H309 H 0.28922 0.29446 0.89633 0.0
C310 C 0.25029 0.33285 0.97551 0.0
C311 C 0.23232 0.35061 0.02095 0.0
C312 C 0.27533 0.30094 0.98273 0.0
C313 C 0.23757 0.33478 0.07348 0.0
C314 C 0.26285 0.30324 0.0812 0.0
C315 C 0.312 0.25882 0.04432 0.0
C316 C 0.33321 0.24419 -0.00054 0.0
C317 C 0.28286 0.28699 0.03632 0.0
C318 C 0.32362 0.25606 0.9461 0.0
C319 C 0.29487 0.28432 0.93774 0.0
H320 H 0.71119 0.37097 0.58731 0.0
H321 H 0.78435 0.30663 0.4757 0.0
H322 H 0.73791 0.25233 0.47733 0.0
H323 H 0.67279 0.22644 0.50399 0.0
H324 H 0.60013 0.29406 0.61224 0.0
H325 H 0.65049 0.34363 0.61951 0.0
C326 C 0.71719 0.34504 0.56335 0.0
C327 C 0.75078 0.34308 0.53059 0.0
C328 C 0.69051 0.31444 0.56442 0.0
C329 C 0.75849 0.30893 0.50086 0.0
C330 C 0.73194 0.27796 0.50183 0.0
C331 C 0.66873 0.25151 0.5304 0.0
C332 C 0.6332 0.25661 0.55824 0.0
C333 C 0.69741 0.28071 0.53269 0.0
C334 C 0.62752 0.28955 0.59113 0.0
C335 C 0.65611 0.31798 0.59486 0.0
H336 H 0.73927 0.64832 0.94255 0.0
H337 H 0.7931 0.67942 0.09606 0.0
H338 H 0.75101 0.73725 0.10234 0.0
H339 H 0.69237 0.77334 0.0695 0.0
H340 H 0.63919 0.74 0.91642 0.0
H341 H 0.68792 0.68896 0.90381 0.0
C342 C 0.74223 0.66816 0.97696 0.0
C343 C 0.76873 0.65954 0.01919 0.0
C344 C 0.718 0.70088 0.98016 0.0
C345 C 0.77281 0.68558 0.06315 0.0
C346 C 0.7486 0.71845 0.0668 0.0
C347 C 0.69251 0.7557 0.03257 0.0
C348 C 0.66278 0.76052 0.99341 0.0
C349 C 0.72023 0.72572 0.02632 0.0
C350 C 0.66231 0.73703 0.94641 0.0
C351 C 0.68989 0.70767 0.93953 0.0
H352 H 0.37052 0.71272 0.43837 0.0
H353 H 0.3138 0.78077 0.56368 0.0
H354 H 0.25877 0.73518 0.56359 0.0
H355 H 0.23076 0.67152 0.5343 0.0
H356 H 0.29036 0.60412 0.41098 0.0
H357 H 0.34005 0.65432 0.40277 0.0
C358 C 0.34601 0.71777 0.46553 0.0
C359 C 0.34646 0.74954 0.50178 0.0
C360 C 0.31493 0.69163 0.46515 0.0
C361 C 0.31416 0.75627 0.53574 0.0
C362 C 0.2828 0.73018 0.53569 0.0
C363 C 0.25402 0.66866 0.5045 0.0
C364 C 0.25692 0.63461 0.47267 0.0
C365 C 0.28329 0.69723 0.50137 0.0
C366 C 0.28754 0.63041 0.43522 0.0
C367 C 0.31606 0.65889 0.43093 0.0
loop_
_geom_bond_atom_site_label_1
_geom_bond_atom_site_label_2
_geom_bond_distance
_geom_bond_site_symmetry_2
_ccdc_geom_bond_type
Co0 O1 2.216 . S
Co0 O2 2.091 . S
Co0 O4 2.004 . S
Co0 O10 2.021 . S
Co0 O12 2.137 1_554 S
Co0 O13 2.244 1_554 S
O1 Co0 2.216 . S
O1 C8 1.247 . S
O2 Co0 2.091 . S
O2 C8 1.261 . S
C3 O12 1.247 . S
C3 O13 1.272 . S
O4 Co0 2.004 . S
O4 C9 1.259 . S
Co5 O6 2.061 . S
Co5 O11 2.052 . S
Co5 O13 2.135 1_554 S
O6 Co5 2.061 . S
O6 C9 1.235 . S
C7 O10 1.238 . S
C7 O11 1.241 . S
C8 O1 1.247 . S
C8 O2 1.261 . S
C9 O4 1.259 . S
C9 O6 1.235 . S
O10 Co0 2.021 . S
O10 C7 1.238 . S
O11 Co5 2.052 . S
O11 C7 1.241 . S
O12 Co0 2.137 1_556 S
O12 C3 1.247 . S
O13 Co0 2.244 1_556 S
O13 C3 1.272 . S
O13 Co5 2.135 1_556 S
Co14 O15 2.216 . S
Co14 O16 2.091 . S
Co14 O18 2.004 . S
Co14 O24 2.021 . S
Co14 O26 2.137 . S
Co14 O27 2.244 . S
O15 Co14 2.216 . S
O15 C22 1.247 . S
O16 Co14 2.091 . S
O16 C22 1.261 . S
C17 O26 1.247 . S
C17 O27 1.272 . S
O18 Co14 2.004 . S
O18 C23 1.259 . S
Co19 O20 2.061 . S
Co19 O25 2.052 . S
Co19 O27 2.135 . S
O20 Co19 2.061 . S
O20 C23 1.235 . S
C21 O24 1.238 . S
C21 O25 1.241 . S
C22 O15 1.247 . S
C22 O16 1.261 . S
C23 O18 1.259 . S
C23 O20 1.235 . S
O24 Co14 2.021 . S
O24 C21 1.238 . S
O25 Co19 2.052 . S
O25 C21 1.241 . S
O26 Co14 2.137 . S
O26 C17 1.247 . S
O27 Co14 2.244 . S
O27 C17 1.272 . S
O27 Co19 2.135 . S
Co28 O29 2.216 . S
Co28 O30 2.091 . S
Co28 O32 2.004 . S
Co28 O38 2.021 . S
Co28 O40 2.137 1_554 S
Co28 O41 2.244 1_554 S
O29 Co28 2.216 . S
O29 C36 1.247 . S
O30 Co28 2.091 . S
O30 C36 1.261 . S
C31 O40 1.247 . S
C31 O41 1.272 . S
O32 Co28 2.004 . S
O32 C37 1.259 . S
Co33 O34 2.061 . S
Co33 O39 2.052 . S
Co33 O41 2.135 1_554 S
O34 Co33 2.061 . S
O34 C37 1.235 . S
C35 O38 1.238 . S
C35 O39 1.241 . S
C36 O29 1.247 . S
C36 O30 1.261 . S
C37 O32 1.259 . S
C37 O34 1.235 . S
O38 Co28 2.021 . S
O38 C35 1.238 . S
O39 Co33 2.052 . S
O39 C35 1.241 . S
O40 Co28 2.137 1_556 S
O40 C31 1.247 . S
O41 Co28 2.244 1_556 S
O41 C31 1.272 . S
O41 Co33 2.135 1_556 S
Co42 O43 2.216 . S
Co42 O44 2.091 . S
Co42 O46 2.004 . S
Co42 O52 2.021 . S
Co42 O54 2.137 . S
Co42 O55 2.244 . S
O43 Co42 2.216 . S
O43 C50 1.247 . S
O44 Co42 2.091 . S
O44 C50 1.261 . S
C45 O54 1.247 . S
C45 O55 1.272 . S
O46 Co42 2.004 . S
O46 C51 1.259 . S
Co47 O48 2.061 . S
Co47 O53 2.052 . S
Co47 O55 2.135 . S
O48 Co47 2.061 . S
O48 C51 1.235 . S
C49 O52 1.238 . S
C49 O53 1.241 . S
C50 O43 1.247 . S
C50 O44 1.261 . S
C51 O46 1.259 . S
C51 O48 1.235 . S
O52 Co42 2.021 . S
O52 C49 1.238 . S
O53 Co47 2.052 . S
O53 C49 1.241 . S
O54 Co42 2.137 . S
O54 C45 1.247 . S
O55 Co42 2.244 . S
O55 C45 1.272 . S
O55 Co47 2.135 . S
Co56 O57 2.216 . S
Co56 O58 2.091 . S
Co56 O60 2.004 . S
Co56 O66 2.021 . S
Co56 O68 2.137 . S
Co56 O69 2.244 . S
O57 Co56 2.216 . S
O57 C64 1.247 . S
O58 Co56 2.091 . S
O58 C64 1.261 . S
C59 O68 1.247 . S
C59 O69 1.272 . S
O60 Co56 2.004 . S
O60 C65 1.259 . S
Co61 O62 2.061 . S
Co61 O67 2.052 . S
Co61 O69 2.135 . S
O62 Co61 2.061 . S
O62 C65 1.235 . S
C63 O66 1.238 . S
C63 O67 1.241 . S
C64 O57 1.247 . S
C64 O58 1.261 . S
C65 O60 1.259 . S
C65 O62 1.235 . S
O66 Co56 2.021 . S
O66 C63 1.238 . S
O67 Co61 2.052 . S
O67 C63 1.241 . S
O68 Co56 2.137 . S
O68 C59 1.247 . S
O69 Co56 2.244 . S
O69 C59 1.272 . S
O69 Co61 2.135 . S
Co70 O71 2.216 . S
Co70 O72 2.091 . S
Co70 O74 2.004 . S
Co70 O80 2.021 1_554 S
Co70 O82 2.137 . S
Co70 O83 2.244 . S
O71 Co70 2.216 . S
O71 C78 1.247 . S
O72 Co70 2.091 . S
O72 C78 1.261 . S
C73 O82 1.247 . S
C73 O83 1.272 . S
O74 Co70 2.004 . S
O74 C79 1.259 . S
Co75 O76 2.061 . S
Co75 O81 2.052 1_554 S
Co75 O83 2.135 . S
O76 Co75 2.061 . S
O76 C79 1.235 . S
C77 O80 1.238 . S
C77 O81 1.241 . S
C78 O71 1.247 . S
C78 O72 1.261 . S
C79 O74 1.259 . S
C79 O76 1.235 . S
O80 Co70 2.021 1_556 S
O80 C77 1.238 . S
O81 Co75 2.052 1_556 S
O81 C77 1.241 . S
O82 Co70 2.137 . S
O82 C73 1.247 . S
O83 Co70 2.244 . S
O83 C73 1.272 . S
O83 Co75 2.135 . S
Co84 O85 2.216 . S
Co84 O86 2.091 . S
Co84 O88 2.004 . S
Co84 O94 2.021 . S
Co84 O96 2.137 . S
Co84 O97 2.244 . S
O85 Co84 2.216 . S
O85 C92 1.247 . S
O86 Co84 2.091 . S
O86 C92 1.261 . S
C87 O96 1.247 . S
C87 O97 1.272 . S
O88 Co84 2.004 . S
O88 C93 1.259 . S
Co89 O90 2.061 . S
Co89 O95 2.052 . S
Co89 O97 2.135 . S
O90 Co89 2.061 . S
O90 C93 1.235 . S
C91 O94 1.238 . S
C91 O95 1.241 . S
C92 O85 1.247 . S
C92 O86 1.261 . S
C93 O88 1.259 . S
C93 O90 1.235 . S
O94 Co84 2.021 . S
O94 C91 1.238 . S
O95 Co89 2.052 . S
O95 C91 1.241 . S
O96 Co84 2.137 . S
O96 C87 1.247 . S
O97 Co84 2.244 . S
O97 C87 1.272 . S
O97 Co89 2.135 . S
Co98 O99 2.216 . S
Co98 O100 2.091 . S
Co98 O102 2.004 . S
Co98 O108 2.021 1_554 S
Co98 O110 2.137 . S
Co98 O111 2.244 . S
O99 Co98 2.216 . S
O99 C106 1.247 . S
O100 Co98 2.091 . S
O100 C106 1.261 . S
C101 O110 1.247 . S
C101 O111 1.272 . S
O102 Co98 2.004 . S
O102 C107 1.259 . S
Co103 O104 2.061 . S
Co103 O109 2.052 1_554 S
Co103 O111 2.135 . S
O104 Co103 2.061 . S
O104 C107 1.235 . S
C105 O108 1.238 . S
C105 O109 1.241 . S
C106 O99 1.247 . S
C106 O100 1.261 . S
C107 O102 1.259 . S
C107 O104 1.235 . S
O108 Co98 2.021 1_556 S
O108 C105 1.238 . S
O109 Co103 2.052 1_556 S
O109 C105 1.241 . S
O110 Co98 2.137 . S
O110 C101 1.247 . S
O111 Co98 2.244 . S
O111 C101 1.272 . S
O111 Co103 2.135 . S
H112 C118 0.930 . S
H113 C121 0.930 . S
H114 C122 0.930 . S
H115 C123 0.930 . S
H116 C126 0.930 . S
H117 C127 0.930 . S
C118 H112 0.930 . S
C118 C119 1.355 . S
C118 C120 1.415 . S
C119 C118 1.355 . S
C119 C121 1.419 . S
C120 C118 1.415 . S
C120 C125 1.425 . S
C120 C127 1.409 . S
C121 H113 0.930 . S
C121 C119 1.419 . S
C121 C122 1.362 . S
C122 H114 0.930 . S
C122 C121 1.362 . S
C122 C125 1.409 . S
C123 H115 0.930 . S
C123 C124 1.355 . S
C123 C125 1.415 . S
C124 C123 1.355 . S
C124 C126 1.419 . S
C125 C120 1.425 . S
C125 C122 1.409 . S
C125 C123 1.415 . S
C126 H116 0.930 . S
C126 C124 1.419 . S
C126 C127 1.362 . S
C127 H117 0.930 . S
C127 C120 1.409 . S
C127 C126 1.362 . S
H128 C134 0.930 . S
H129 C137 0.930 . S
H130 C138 0.930 . S
H131 C139 0.930 . S
H132 C142 0.930 . S
H133 C143 0.930 . S
C134 H128 0.930 . S
C134 C135 1.355 . S
C134 C136 1.415 . S
C135 C134 1.355 . S
C135 C137 1.419 . S
C136 C134 1.415 . S
C136 C141 1.425 . S
C136 C143 1.409 . S
C137 H129 0.930 . S
C137 C135 1.419 . S
C137 C138 1.362 . S
C138 H130 0.930 . S
C138 C137 1.362 . S
C138 C141 1.409 . S
C139 H131 0.930 . S
C139 C140 1.355 . S
C139 C141 1.415 . S
C140 C139 1.355 . S
C140 C142 1.419 . S
C141 C136 1.425 . S
C141 C138 1.409 . S
C141 C139 1.415 . S
C142 H132 0.930 . S
C142 C140 1.419 . S
C142 C143 1.362 . S
C143 H133 0.930 . S
C143 C136 1.409 . S
C143 C142 1.362 . S
H144 C150 0.930 . S
H145 C153 0.930 . S
H146 C154 0.930 . S
H147 C155 0.930 . S
H148 C158 0.930 . S
H149 C159 0.930 . S
C150 H144 0.930 . S
C150 C151 1.355 . S
C150 C152 1.415 . S
C151 C150 1.355 . S
C151 C153 1.419 . S
C152 C150 1.415 . S
C152 C157 1.425 . S
C152 C159 1.409 . S
C153 H145 0.930 . S
C153 C151 1.419 . S
C153 C154 1.362 . S
C154 H146 0.930 . S
C154 C153 1.362 . S
C154 C157 1.409 . S
C155 H147 0.930 . S
C155 C156 1.355 . S
C155 C157 1.415 . S
C156 C155 1.355 . S
C156 C158 1.419 . S
C157 C152 1.425 . S
C157 C154 1.409 . S
C157 C155 1.415 . S
C158 H148 0.930 . S
C158 C156 1.419 . S
C158 C159 1.362 . S
C159 H149 0.930 . S
C159 C152 1.409 . S
C159 C158 1.362 . S
H160 C166 0.930 . S
H161 C169 0.930 . S
H162 C170 0.930 . S
H163 C171 0.930 . S
H164 C174 0.930 . S
H165 C175 0.930 . S
C166 H160 0.930 . S
C166 C167 1.355 . S
C166 C168 1.415 . S
C167 C166 1.355 . S
C167 C169 1.419 . S
C168 C166 1.415 . S
C168 C173 1.425 . S
C168 C175 1.409 . S
C169 H161 0.930 . S
C169 C167 1.419 . S
C169 C170 1.362 . S
C170 H162 0.930 . S
C170 C169 1.362 . S
C170 C173 1.409 . S
C171 H163 0.930 . S
C171 C172 1.355 . S
C171 C173 1.415 . S
C172 C171 1.355 . S
C172 C174 1.419 . S
C173 C168 1.425 . S
C173 C170 1.409 . S
C173 C171 1.415 . S
C174 H164 0.930 . S
C174 C172 1.419 . S
C174 C175 1.362 . S
C175 H165 0.930 . S
C175 C168 1.409 . S
C175 C174 1.362 . S
H176 C182 0.930 . S
H177 C185 0.930 . S
H178 C186 0.930 . S
H179 C187 0.930 . S
H180 C190 0.930 . S
H181 C191 0.930 . S
C182 H176 0.930 . S
C182 C183 1.355 . S
C182 C184 1.415 . S
C183 C182 1.355 . S
C183 C185 1.419 . S
C184 C182 1.415 . S
C184 C189 1.425 . S
C184 C191 1.409 . S
C185 H177 0.930 . S
C185 C183 1.419 . S
C185 C186 1.362 . S
C186 H178 0.930 . S
C186 C185 1.362 . S
C186 C189 1.409 . S
C187 H179 0.930 . S
C187 C188 1.355 . S
C187 C189 1.415 . S
C188 C187 1.355 . S
C188 C190 1.419 . S
C189 C184 1.425 . S
C189 C186 1.409 . S
C189 C187 1.415 . S
C190 H180 0.930 . S
C190 C188 1.419 . S
C190 C191 1.362 . S
C191 H181 0.930 . S
C191 C184 1.409 . S
C191 C190 1.362 . S
H192 C198 0.930 . S
H193 C201 0.930 . S
H194 C202 0.930 . S
H195 C203 0.930 . S
H196 C206 0.930 . S
H197 C207 0.930 . S
C198 H192 0.930 . S
C198 C199 1.355 . S
C198 C200 1.415 . S
C199 C198 1.355 . S
C199 C201 1.419 . S
C200 C198 1.415 . S
C200 C205 1.425 . S
C200 C207 1.409 . S
C201 H193 0.930 . S
C201 C199 1.419 . S
C201 C202 1.362 . S
C202 H194 0.930 . S
C202 C201 1.362 . S
C202 C205 1.409 . S
C203 H195 0.930 . S
C203 C204 1.355 . S
C203 C205 1.415 . S
C204 C203 1.355 . S
C204 C206 1.419 . S
C205 C200 1.425 . S
C205 C202 1.409 . S
C205 C203 1.415 . S
C206 H196 0.930 . S
C206 C204 1.419 . S
C206 C207 1.362 . S
C207 H197 0.930 . S
C207 C200 1.409 . S
C207 C206 1.362 . S
H208 C214 0.930 . S
H209 C217 0.930 . S
H210 C218 0.930 . S
H211 C219 0.930 . S
H212 C222 0.930 . S
H213 C223 0.930 . S
C214 H208 0.930 . S
C214 C215 1.355 . S
C214 C216 1.415 . S
C215 C214 1.355 . S
C215 C217 1.419 . S
C216 C214 1.415 . S
C216 C221 1.425 . S
C216 C223 1.409 . S
C217 H209 0.930 . S
C217 C215 1.419 . S
C217 C218 1.362 . S
C218 H210 0.930 . S
C218 C217 1.362 . S
C218 C221 1.409 . S
C219 H211 0.930 . S
C219 C220 1.355 . S
C219 C221 1.415 . S
C220 C219 1.355 . S
C220 C222 1.419 . S
C221 C216 1.425 . S
C221 C218 1.409 . S
C221 C219 1.415 . S
C222 H212 0.930 . S
C222 C220 1.419 . S
C222 C223 1.362 . S
C223 H213 0.930 . S
C223 C216 1.409 . S
C223 C222 1.362 . S
H224 C230 0.930 . S
H225 C233 0.930 . S
H226 C234 0.930 . S
H227 C235 0.930 . S
H228 C238 0.930 . S
H229 C239 0.930 . S
C230 H224 0.930 . S
C230 C231 1.355 . S
C230 C232 1.415 . S
C231 C230 1.355 . S
C231 C233 1.419 . S
C232 C230 1.415 . S
C232 C237 1.425 . S
C232 C239 1.409 . S
C233 H225 0.930 . S
C233 C231 1.419 . S
C233 C234 1.362 . S
C234 H226 0.930 . S
C234 C233 1.362 . S
C234 C237 1.409 . S
C235 H227 0.930 . S
C235 C236 1.355 . S
C235 C237 1.415 . S
C236 C235 1.355 . S
C236 C238 1.419 . S
C237 C232 1.425 . S
C237 C234 1.409 . S
C237 C235 1.415 . S
C238 H228 0.930 . S
C238 C236 1.419 . S
C238 C239 1.362 . S
C239 H229 0.930 . S
C239 C232 1.409 . S
C239 C238 1.362 . S
H240 C246 0.930 . S
H241 C249 0.930 . S
H242 C250 0.930 . S
H243 C251 0.930 . S
H244 C254 0.930 . S
H245 C255 0.930 . S
C246 H240 0.930 . S
C246 C247 1.355 . S
C246 C248 1.415 . S
C247 C246 1.355 . S
C247 C249 1.419 1_554 S
C248 C246 1.415 . S
C248 C253 1.425 1_654 S
C248 C255 1.409 1_655 S
C249 H241 0.930 . S
C249 C247 1.419 1_556 S
C249 C250 1.362 . S
C250 H242 0.930 . S
C250 C249 1.362 . S
C250 C253 1.409 1_655 S
C251 H243 0.930 . S
C251 C252 1.355 1_556 S
C251 C253 1.415 . S
C252 C251 1.355 1_554 S
C252 C254 1.419 . S
C253 C248 1.425 1_456 S
C253 C250 1.409 1_455 S
C253 C251 1.415 . S
C254 H244 0.930 . S
C254 C252 1.419 . S
C254 C255 1.362 . S
C255 H245 0.930 . S
C255 C248 1.409 1_455 S
C255 C254 1.362 . S
H256 C262 0.930 . S
H257 C265 0.930 . S
H258 C266 0.930 1_545 S
H259 C267 0.930 . S
H260 C270 0.930 . S
H261 C271 0.930 1_565 S
C262 H256 0.930 . S
C262 C263 1.355 . S
C262 C264 1.415 . S
C263 C262 1.355 . S
C263 C265 1.419 . S
C264 C262 1.415 . S
C264 C269 1.425 1_565 S
C264 C271 1.409 1_565 S
C265 H257 0.930 . S
C265 C263 1.419 . S
C265 C266 1.362 . S
C266 H258 0.930 1_565 S
C266 C265 1.362 . S
C266 C269 1.409 1_565 S
C267 H259 0.930 . S
C267 C268 1.355 . S
C267 C269 1.415 . S
C268 C267 1.355 . S
C268 C270 1.419 . S
C269 C264 1.425 1_545 S
C269 C266 1.409 1_545 S
C269 C267 1.415 . S
C270 H260 0.930 . S
C270 C268 1.419 . S
C270 C271 1.362 . S
C271 H261 0.930 1_545 S
C271 C264 1.409 1_545 S
C271 C270 1.362 . S
H272 C278 0.930 . S
H273 C281 0.930 . S
H274 C282 0.930 1_655 S
H275 C283 0.930 . S
H276 C286 0.930 . S
H277 C287 0.930 1_455 S
C278 H272 0.930 . S
C278 C279 1.355 . S
C278 C280 1.415 . S
C279 C278 1.355 . S
C279 C281 1.419 . S
C280 C278 1.415 . S
C280 C285 1.425 1_455 S
C280 C287 1.409 1_455 S
C281 H273 0.930 . S
C281 C279 1.419 . S
C281 C282 1.362 . S
C282 H274 0.930 1_455 S
C282 C281 1.362 . S
C282 C285 1.409 1_455 S
C283 H275 0.930 . S
C283 C284 1.355 . S
C283 C285 1.415 . S
C284 C283 1.355 . S
C284 C286 1.419 . S
C285 C280 1.425 1_655 S
C285 C282 1.409 1_655 S
C285 C283 1.415 . S
C286 H276 0.930 . S
C286 C284 1.419 . S
C286 C287 1.362 . S
C287 H277 0.930 1_655 S
C287 C280 1.409 1_655 S
C287 C286 1.362 . S
H288 C294 0.930 . S
H289 C297 0.930 . S
H290 C298 0.930 1_545 S
H291 C299 0.930 . S
H292 C302 0.930 . S
H293 C303 0.930 1_565 S
C294 H288 0.930 . S
C294 C295 1.355 1_556 S
C294 C296 1.415 . S
C295 C294 1.355 1_554 S
C295 C297 1.419 . S
C296 C294 1.415 . S
C296 C301 1.425 1_566 S
C296 C303 1.409 1_565 S
C297 H289 0.930 . S
C297 C295 1.419 . S
C297 C298 1.362 . S
C298 H290 0.930 1_565 S
C298 C297 1.362 . S
C298 C301 1.409 1_565 S
C299 H291 0.930 . S
C299 C300 1.355 . S
C299 C301 1.415 . S
C300 C299 1.355 . S
C300 C302 1.419 1_554 S
C301 C296 1.425 1_544 S
C301 C298 1.409 1_545 S
C301 C299 1.415 . S
C302 H292 0.930 . S
C302 C300 1.419 1_556 S
C302 C303 1.362 . S
C303 H293 0.930 1_545 S
C303 C296 1.409 1_545 S
C303 C302 1.362 . S
H304 C310 0.928 . S
H305 C313 0.930 . S
H306 C314 0.930 . S
H307 C315 0.930 . S
H308 C318 0.930 . S
H309 C319 0.930 . S
C310 H304 0.928 . S
C310 C311 1.356 1_556 S
C310 C312 1.415 1_556 S
C311 C310 1.356 1_554 S
C311 C313 1.419 . S
C312 C310 1.415 1_554 S
C312 C317 1.425 . S
C312 C319 1.409 1_554 S
C313 H305 0.930 . S
C313 C311 1.419 . S
C313 C314 1.362 . S
C314 H306 0.930 . S
C314 C313 1.362 . S
C314 C317 1.409 . S
C315 H307 0.930 . S
C315 C316 1.355 . S
C315 C317 1.415 . S
C316 C315 1.355 . S
C316 C318 1.419 1_554 S
C317 C312 1.425 . S
C317 C314 1.409 . S
C317 C315 1.415 . S
C318 H308 0.930 . S
C318 C316 1.419 1_556 S
C318 C319 1.362 . S
C319 H309 0.930 . S
C319 C312 1.409 1_556 S
C319 C318 1.362 . S
H320 C326 0.930 . S
H321 C329 0.930 . S
H322 C330 0.930 . S
H323 C331 0.930 . S
H324 C334 0.930 . S
H325 C335 0.930 . S
C326 H320 0.930 . S
C326 C327 1.355 . S
C326 C328 1.415 . S
C327 C326 1.355 . S
C327 C329 1.419 . S
C328 C326 1.415 . S
C328 C333 1.425 . S
C328 C335 1.409 . S
C329 H321 0.930 . S
C329 C327 1.419 . S
C329 C330 1.362 . S
C330 H322 0.930 . S
C330 C329 1.362 . S
C330 C333 1.409 . S
C331 H323 0.930 . S
C331 C332 1.355 . S
C331 C333 1.415 . S
C332 C331 1.355 . S
C332 C334 1.419 . S
C333 C328 1.425 . S
C333 C330 1.409 . S
C333 C331 1.415 . S
C334 H324 0.930 . S
C334 C332 1.419 . S
C334 C335 1.362 . S
C335 H325 0.930 . S
C335 C328 1.409 . S
C335 C334 1.362 . S
H336 C342 0.930 . S
H337 C345 0.926 1_556 S
H338 C346 0.930 . S
H339 C347 0.932 . S
H340 C350 0.930 . S
H341 C351 0.930 . S
C342 H336 0.930 . S
C342 C343 1.355 . S
C342 C344 1.415 . S
C343 C342 1.355 . S
C343 C345 1.425 . S
C344 C342 1.415 . S
C344 C349 1.425 . S
C344 C351 1.409 . S
C345 H337 0.926 1_554 S
C345 C343 1.425 . S
C345 C346 1.361 1_554 S
C346 H338 0.930 . S
C346 C345 1.361 1_556 S
C346 C349 1.409 1_556 S
C347 H339 0.932 . S
C347 C348 1.355 . S
C347 C349 1.415 . S
C348 C347 1.355 . S
C348 C350 1.419 . S
C349 C344 1.425 . S
C349 C346 1.409 1_554 S
C349 C347 1.415 . S
C350 H340 0.930 . S
C350 C348 1.419 . S
C350 C351 1.362 . S
C351 H341 0.930 . S
C351 C344 1.409 . S
C351 C350 1.362 . S
H352 C358 0.930 . S
H353 C361 0.930 . S
H354 C362 0.930 . S
H355 C363 0.930 . S
H356 C366 0.930 . S
H357 C367 0.930 . S
C358 H352 0.930 . S
C358 C359 1.355 . S
C358 C360 1.415 . S
C359 C358 1.355 . S
C359 C361 1.419 . S
C360 C358 1.415 . S
C360 C365 1.425 . S
C360 C367 1.409 . S
C361 H353 0.930 . S
C361 C359 1.419 . S
C361 C362 1.362 . S
C362 H354 0.930 . S
C362 C361 1.362 . S
C362 C365 1.409 . S
C363 H355 0.930 . S
C363 C364 1.355 . S
C363 C365 1.415 . S
C364 C363 1.355 . S
C364 C366 1.419 . S
C365 C360 1.425 . S
C365 C362 1.409 . S
C365 C363 1.415 . S
C366 H356 0.930 . S
C366 C364 1.419 . S
C366 C367 1.362 . S
C367 H357 0.930 . S
C367 C360 1.409 . S
C367 C366 1.362 . S
C119 C7 1.356 . S
C124 C63 1.381 . S
C135 C21 1.342 . S
C140 C77 1.392 . S
C151 C91 1.383 . S
C156 C35 1.345 . S
C167 C105 1.392 . S
C172 C49 1.340 . S
C183 C87 1.288 . S
C188 C31 1.304 . S
C199 C101 1.276 . S
C204 C45 1.298 . S
C215 C3 1.240 . S
C220 C59 1.270 . S
C231 C17 1.228 . S
C236 C73 1.218 . S
C247 C37 1.347 . S
C252 C9 1.352 . S
C263 C51 1.387 . S
C268 C23 1.382 . S
C279 C65 1.402 . S
C284 C93 1.399 . S
C295 C107 1.393 . S
C300 C79 1.397 . S
C311 C8 1.377 . S
C316 C78 1.380 . S
C327 C92 1.371 . S
C332 C22 1.367 . S
C343 C36 1.372 . S
C348 C106 1.368 . S
C359 C50 1.372 . S
C364 C64 1.368 . S
