# Generated by pormake.
# Topology yfu, (5)-cn, num edge types: 1
# Building blocks:
#     Node 0, Type 0, BuildingBlock: BEQFEK_clean_sbu_0, # of connection points: 5
#     Node 1, Type 0, BuildingBlock: BEQFEK_clean_sbu_0, # of connection points: 5
#     Node 2, Type 0, BuildingBlock: BEQFEK_clean_sbu_0, # of connection points: 5
#     Node 3, Type 0, BuildingBlock: BEQFEK_clean_sbu_0, # of connection points: 5
#     Node 4, Type 0, BuildingBlock: BEQFEK_clean_sbu_0, # of connection points: 5
#     Node 5, Type 0, BuildingBlock: BEQFEK_clean_sbu_0, # of connection points: 5
#     Node 6, Type 0, BuildingBlock: BEQFEK_clean_sbu_0, # of connection points: 5
#     Node 7, Type 0, BuildingBlock: BEQFEK_clean_sbu_0, # of connection points: 5
#     Node 8, Type 0, BuildingBlock: BEQFEK_clean_sbu_0, # of connection points: 5
#     Node 9, Type 0, BuildingBlock: BEQFEK_clean_sbu_0, # of connection points: 5
#     Node 10, Type 0, BuildingBlock: BEQFEK_clean_sbu_0, # of connection points: 5
#     Node 11, Type 0, BuildingBlock: BEQFEK_clean_sbu_0, # of connection points: 5
#     Node 12, Type 0, BuildingBlock: BEQFEK_clean_sbu_0, # of connection points: 5
#     Node 13, Type 0, BuildingBlock: BEQFEK_clean_sbu_0, # of connection points: 5
#     Node 14, Type 0, BuildingBlock: BEQFEK_clean_sbu_0, # of connection points: 5
#     Node 15, Type 0, BuildingBlock: BEQFEK_clean_sbu_0, # of connection points: 5
#     Node 16, Type 0, BuildingBlock: BEQFEK_clean_sbu_0, # of connection points: 5
#     Node 17, Type 0, BuildingBlock: BEQFEK_clean_sbu_0, # of connection points: 5
#     Node 18, Type 0, BuildingBlock: BEQFEK_clean_sbu_0, # of connection points: 5
#     Node 19, Type 0, BuildingBlock: BEQFEK_clean_sbu_0, # of connection points: 5
#     Node 20, Type 0, BuildingBlock: BEQFEK_clean_sbu_0, # of connection points: 5
#     Node 21, Type 0, BuildingBlock: BEQFEK_clean_sbu_0, # of connection points: 5
#     Node 22, Type 0, BuildingBlock: BEQFEK_clean_sbu_0, # of connection points: 5
#     Node 23, Type 0, BuildingBlock: BEQFEK_clean_sbu_0, # of connection points: 5
#     Node 24, Type 0, BuildingBlock: BEQFEK_clean_sbu_0, # of connection points: 5
#     Node 25, Type 0, BuildingBlock: BEQFEK_clean_sbu_0, # of connection points: 5
#     Node 26, Type 0, BuildingBlock: BEQFEK_clean_sbu_0, # of connection points: 5
#     Node 27, Type 0, BuildingBlock: BEQFEK_clean_sbu_0, # of connection points: 5
#     Node 28, Type 0, BuildingBlock: BEQFEK_clean_sbu_0, # of connection points: 5
#     Node 29, Type 0, BuildingBlock: BEQFEK_clean_sbu_0, # of connection points: 5
#     Node 30, Type 0, BuildingBlock: BEQFEK_clean_sbu_0, # of connection points: 5
#     Node 31, Type 0, BuildingBlock: BEQFEK_clean_sbu_0, # of connection points: 5
#     Edge 32, Type (0, 0), BuildingBlock: CIFDUS_clean_linker_0, # of connection points: 2
#     Edge 33, Type (0, 0), BuildingBlock: CIFDUS_clean_linker_0, # of connection points: 2
#     Edge 34, Type (0, 0), BuildingBlock: CIFDUS_clean_linker_0, # of connection points: 2
#     Edge 35, Type (0, 0), BuildingBlock: CIFDUS_clean_linker_0, # of connection points: 2
#     Edge 36, Type (0, 0), BuildingBlock: CIFDUS_clean_linker_0, # of connection points: 2
#     Edge 37, Type (0, 0), BuildingBlock: CIFDUS_clean_linker_0, # of connection points: 2
#     Edge 38, Type (0, 0), BuildingBlock: CIFDUS_clean_linker_0, # of connection points: 2
#     Edge 39, Type (0, 0), BuildingBlock: CIFDUS_clean_linker_0, # of connection points: 2
#     Edge 40, Type (0, 0), BuildingBlock: CIFDUS_clean_linker_0, # of connection points: 2
#     Edge 41, Type (0, 0), BuildingBlock: CIFDUS_clean_linker_0, # of connection points: 2
#     Edge 42, Type (0, 0), BuildingBlock: CIFDUS_clean_linker_0, # of connection points: 2
#     Edge 43, Type (0, 0), BuildingBlock: CIFDUS_clean_linker_0, # of connection points: 2
#     Edge 44, Type (0, 0), BuildingBlock: CIFDUS_clean_linker_0, # of connection points: 2
#     Edge 45, Type (0, 0), BuildingBlock: CIFDUS_clean_linker_0, # of connection points: 2
#     Edge 46, Type (0, 0), BuildingBlock: CIFDUS_clean_linker_0, # of connection points: 2
#     Edge 47, Type (0, 0), BuildingBlock: CIFDUS_clean_linker_0, # of connection points: 2
#     Edge 48, Type (0, 0), BuildingBlock: CIFDUS_clean_linker_0, # of connection points: 2
#     Edge 49, Type (0, 0), BuildingBlock: CIFDUS_clean_linker_0, # of connection points: 2
#     Edge 50, Type (0, 0), BuildingBlock: CIFDUS_clean_linker_0, # of connection points: 2
#     Edge 51, Type (0, 0), BuildingBlock: CIFDUS_clean_linker_0, # of connection points: 2
#     Edge 52, Type (0, 0), BuildingBlock: CIFDUS_clean_linker_0, # of connection points: 2
#     Edge 53, Type (0, 0), BuildingBlock: CIFDUS_clean_linker_0, # of connection points: 2
#     Edge 54, Type (0, 0), BuildingBlock: CIFDUS_clean_linker_0, # of connection points: 2
#     Edge 55, Type (0, 0), BuildingBlock: CIFDUS_clean_linker_0, # of connection points: 2
#     Edge 56, Type (0, 0), BuildingBlock: CIFDUS_clean_linker_0, # of connection points: 2
#     Edge 57, Type (0, 0), BuildingBlock: CIFDUS_clean_linker_0, # of connection points: 2
#     Edge 58, Type (0, 0), BuildingBlock: CIFDUS_clean_linker_0, # of connection points: 2
#     Edge 59, Type (0, 0), BuildingBlock: CIFDUS_clean_linker_0, # of connection points: 2
#     Edge 60, Type (0, 0), BuildingBlock: CIFDUS_clean_linker_0, # of connection points: 2
#     Edge 61, Type (0, 0), BuildingBlock: CIFDUS_clean_linker_0, # of connection points: 2
#     Edge 62, Type (0, 0), BuildingBlock: CIFDUS_clean_linker_0, # of connection points: 2
#     Edge 63, Type (0, 0), BuildingBlock: CIFDUS_clean_linker_0, # of connection points: 2
#     Edge 64, Type (0, 0), BuildingBlock: CIFDUS_clean_linker_0, # of connection points: 2
#     Edge 65, Type (0, 0), BuildingBlock: CIFDUS_clean_linker_0, # of connection points: 2
#     Edge 66, Type (0, 0), BuildingBlock: CIFDUS_clean_linker_0, # of connection points: 2
#     Edge 67, Type (0, 0), BuildingBlock: CIFDUS_clean_linker_0, # of connection points: 2
#     Edge 68, Type (0, 0), BuildingBlock: CIFDUS_clean_linker_0, # of connection points: 2
#     Edge 69, Type (0, 0), BuildingBlock: CIFDUS_clean_linker_0, # of connection points: 2
#     Edge 70, Type (0, 0), BuildingBlock: CIFDUS_clean_linker_0, # of connection points: 2
#     Edge 71, Type (0, 0), BuildingBlock: CIFDUS_clean_linker_0, # of connection points: 2
#     Edge 72, Type (0, 0), BuildingBlock: CIFDUS_clean_linker_0, # of connection points: 2
#     Edge 73, Type (0, 0), BuildingBlock: CIFDUS_clean_linker_0, # of connection points: 2
#     Edge 74, Type (0, 0), BuildingBlock: CIFDUS_clean_linker_0, # of connection points: 2
#     Edge 75, Type (0, 0), BuildingBlock: CIFDUS_clean_linker_0, # of connection points: 2
#     Edge 76, Type (0, 0), BuildingBlock: CIFDUS_clean_linker_0, # of connection points: 2
#     Edge 77, Type (0, 0), BuildingBlock: CIFDUS_clean_linker_0, # of connection points: 2
#     Edge 78, Type (0, 0), BuildingBlock: CIFDUS_clean_linker_0, # of connection points: 2
#     Edge 79, Type (0, 0), BuildingBlock: CIFDUS_clean_linker_0, # of connection points: 2
#     Edge 80, Type (0, 0), BuildingBlock: CIFDUS_clean_linker_0, # of connection points: 2
#     Edge 81, Type (0, 0), BuildingBlock: CIFDUS_clean_linker_0, # of connection points: 2
#     Edge 82, Type (0, 0), BuildingBlock: CIFDUS_clean_linker_0, # of connection points: 2
#     Edge 83, Type (0, 0), BuildingBlock: CIFDUS_clean_linker_0, # of connection points: 2
#     Edge 84, Type (0, 0), BuildingBlock: CIFDUS_clean_linker_0, # of connection points: 2
#     Edge 85, Type (0, 0), BuildingBlock: CIFDUS_clean_linker_0, # of connection points: 2
#     Edge 86, Type (0, 0), BuildingBlock: CIFDUS_clean_linker_0, # of connection points: 2
#     Edge 87, Type (0, 0), BuildingBlock: CIFDUS_clean_linker_0, # of connection points: 2
#     Edge 88, Type (0, 0), BuildingBlock: CIFDUS_clean_linker_0, # of connection points: 2
#     Edge 89, Type (0, 0), BuildingBlock: CIFDUS_clean_linker_0, # of connection points: 2
#     Edge 90, Type (0, 0), BuildingBlock: CIFDUS_clean_linker_0, # of connection points: 2
#     Edge 91, Type (0, 0), BuildingBlock: CIFDUS_clean_linker_0, # of connection points: 2
#     Edge 92, Type (0, 0), BuildingBlock: CIFDUS_clean_linker_0, # of connection points: 2
#     Edge 93, Type (0, 0), BuildingBlock: CIFDUS_clean_linker_0, # of connection points: 2
#     Edge 94, Type (0, 0), BuildingBlock: CIFDUS_clean_linker_0, # of connection points: 2
#     Edge 95, Type (0, 0), BuildingBlock: CIFDUS_clean_linker_0, # of connection points: 2
#     Edge 96, Type (0, 0), BuildingBlock: CIFDUS_clean_linker_0, # of connection points: 2
#     Edge 97, Type (0, 0), BuildingBlock: CIFDUS_clean_linker_0, # of connection points: 2
#     Edge 98, Type (0, 0), BuildingBlock: CIFDUS_clean_linker_0, # of connection points: 2
#     Edge 99, Type (0, 0), BuildingBlock: CIFDUS_clean_linker_0, # of connection points: 2
#     Edge 100, Type (0, 0), BuildingBlock: CIFDUS_clean_linker_0, # of connection points: 2
#     Edge 101, Type (0, 0), BuildingBlock: CIFDUS_clean_linker_0, # of connection points: 2
#     Edge 102, Type (0, 0), BuildingBlock: CIFDUS_clean_linker_0, # of connection points: 2
#     Edge 103, Type (0, 0), BuildingBlock: CIFDUS_clean_linker_0, # of connection points: 2
#     Edge 104, Type (0, 0), BuildingBlock: CIFDUS_clean_linker_0, # of connection points: 2
#     Edge 105, Type (0, 0), BuildingBlock: CIFDUS_clean_linker_0, # of connection points: 2
#     Edge 106, Type (0, 0), BuildingBlock: CIFDUS_clean_linker_0, # of connection points: 2
#     Edge 107, Type (0, 0), BuildingBlock: CIFDUS_clean_linker_0, # of connection points: 2
#     Edge 108, Type (0, 0), BuildingBlock: CIFDUS_clean_linker_0, # of connection points: 2
#     Edge 109, Type (0, 0), BuildingBlock: CIFDUS_clean_linker_0, # of connection points: 2
#     Edge 110, Type (0, 0), BuildingBlock: CIFDUS_clean_linker_0, # of connection points: 2
#     Edge 111, Type (0, 0), BuildingBlock: CIFDUS_clean_linker_0, # of connection points: 2
# Relax obj value: 0.367
# Max RMSD: 0.205
# Mean RMSD: 0.205
data_MOF--net-yfu--node1-BEQFEK_clean_sbu_0--edge1-CIFDUS_clean_linker_0
_symmetry_space_group_name_H-M    P1
_symmetry_Int_Tables_number       1
_symmetry_cell_setting            triclinic
loop_
_symmetry_equiv_pos_as_xyz
'x, y, z'
_cell_length_a     43.32638
_cell_length_b     43.402803
_cell_length_c     80.010303
_cell_angle_alpha  89.960263
_cell_angle_beta   89.976978
_cell_angle_gamma 90.019762
loop_
_atom_site_label
_atom_site_type_symbol
_atom_site_fract_x
_atom_site_fract_y
_atom_site_fract_z
_atom_type_partial_charge
Co0 Co 0.04881 0.12577 0.31471 0.0
Co1 Co 0.0675 0.06972 0.33755 0.0
C2 C 0.09917 0.13095 0.33997 0.0
O3 O 0.08262 0.14227 0.32839 0.0
O4 O 0.09556 0.10333 0.34497 0.0
C5 C 0.05326 0.18082 0.2949 0.0
O6 O 0.08272 0.17914 0.29868 0.0
C7 C 0.10946 0.02138 0.34944 0.0
C8 C 0.07863 0.99299 0.36517 0.0
C9 C 0.10891 0.99592 0.35989 0.0
N10 N 0.08073 0.03296 0.34851 0.0
N11 N 0.06239 0.01581 0.3579 0.0
C12 C 0.13721 0.03608 0.34168 0.0
H13 H 0.13032 0.05517 0.33323 0.0
H14 H 0.1506 0.01873 0.33455 0.0
H15 H 0.15242 0.04517 0.35169 0.0
C16 C 0.06371 0.08174 0.28814 0.0
N17 N 0.06148 0.0893 0.30436 0.0
N18 N 0.06816 0.06517 0.31369 0.0
C19 C 0.07413 0.04109 0.30354 0.0
C20 C 0.0719 0.051 0.28708 0.0
C21 C 0.05614 0.10322 0.2741 0.0
H22 H 0.03263 0.11272 0.27599 0.0
H23 H 0.07257 0.12284 0.27427 0.0
H24 H 0.05727 0.09158 0.26177 0.0
O25 O 0.01214 0.11751 0.32861 0.0
O26 O 0.02506 0.0791 0.34558 0.0
H27 H 0.07849 0.99198 0.29933 0.0
H28 H 0.10586 0.00842 0.31359 0.0
C29 C 0.08149 0.0092 0.30943 0.0
H30 H 0.06652 0.00304 0.32017 0.0
H31 H 0.0389 0.02005 0.35962 0.0
O32 O 0.03557 0.15876 0.29909 0.0
C33 C 0.00563 0.09886 0.34035 0.0
Co34 Co 0.14311 0.78585 0.56793 0.0
Co35 Co 0.19949 0.81027 0.58849 0.0
C36 C 0.13766 0.83827 0.59292 0.0
O37 O 0.12622 0.82034 0.58189 0.0
O38 O 0.16608 0.83696 0.59695 0.0
C39 C 0.0866 0.78477 0.54853 0.0
O40 O 0.08421 0.8141 0.55238 0.0
C41 C 0.24814 0.84911 0.6037 0.0
C42 C 0.28791 0.81725 0.60252 0.0
C43 C 0.27942 0.84672 0.60727 0.0
N44 N 0.23867 0.8222 0.59714 0.0
N45 N 0.26249 0.80322 0.59662 0.0
C46 C 0.22822 0.87716 0.60499 0.0
H47 H 0.21093 0.87736 0.59477 0.0
H48 H 0.24226 0.89852 0.6044 0.0
H49 H 0.21568 0.87662 0.61709 0.0
C50 C 0.18567 0.79731 0.53984 0.0
N51 N 0.17836 0.79823 0.55616 0.0
N52 N 0.20091 0.81118 0.56457 0.0
C53 C 0.22253 0.82098 0.55368 0.0
C54 C 0.21395 0.81209 0.53755 0.0
C55 C 0.16724 0.77959 0.52726 0.0
H56 H 0.15513 0.76014 0.5334 0.0
H57 H 0.14967 0.795 0.52161 0.0
H58 H 0.18223 0.77016 0.51725 0.0
O59 O 0.15334 0.75076 0.58212 0.0
O60 O 0.19226 0.76781 0.59755 0.0
H61 H 0.26855 0.82599 0.56298 0.0
H62 H 0.25739 0.85512 0.54796 0.0
C63 C 0.24932 0.84081 0.55859 0.0
H64 H 0.24251 0.85635 0.56892 0.0
H65 H 0.2615 0.78085 0.59188 0.0
O66 O 0.11037 0.76994 0.55312 0.0
C67 C 0.1733 0.74671 0.59349 0.0
Co68 Co 0.43271 0.87281 0.81553 0.0
Co69 Co 0.41105 0.92484 0.84007 0.0
C70 C 0.38564 0.86049 0.84208 0.0
O71 O 0.40198 0.85178 0.82972 0.0
O72 O 0.38676 0.88811 0.84752 0.0
C73 C 0.43625 0.81886 0.79446 0.0
O74 O 0.40831 0.81276 0.79993 0.0
C75 C 0.37098 0.97193 0.85617 0.0
C76 C 0.40667 0.0042 0.8653 0.0
C77 C 0.37505 -0.00036 0.86468 0.0
N78 N 0.39898 0.961 0.85192 0.0
N79 N 0.42012 0.98039 0.85746 0.0
C80 C 0.34137 0.95549 0.85257 0.0
H81 H 0.34552 0.93053 0.85077 0.0
H82 H 0.33131 0.96475 0.84085 0.0
H83 H 0.32459 0.95904 0.86288 0.0
C84 C 0.41602 0.91878 0.79054 0.0
N85 N 0.41638 0.90889 0.80643 0.0
N86 N 0.40828 0.93147 0.81648 0.0
C87 C 0.40297 0.95685 0.80717 0.0
C88 C 0.40756 0.94956 0.79045 0.0
C89 C 0.42846 0.90032 0.77623 0.0
H90 H 0.41605 0.87798 0.77558 0.0
H91 H 0.42613 0.91248 0.76412 0.0
H92 H 0.45322 0.8953 0.7785 0.0
O93 O 0.46982 0.88265 0.82866 0.0
O94 O 0.4545 0.91812 0.84673 0.0
H95 H 0.39342 0.00556 0.80424 0.0
H96 H 0.37502 0.98707 0.82181 0.0
C97 C 0.39641 0.98807 0.81423 0.0
H98 H 0.41564 0.99507 0.82256 0.0
H99 H 0.44383 0.97746 0.85582 0.0
O100 O 0.4488 0.84422 0.79847 0.0
C101 C 0.47536 0.9008 0.84072 0.0
Co102 Co 0.36156 0.20255 0.06766 0.0
Co103 Co 0.30742 0.16988 0.08646 0.0
C104 C 0.36968 0.1428 0.0872 0.0
O105 O 0.37958 0.1649 0.07811 0.0
O106 O 0.34152 0.14119 0.09177 0.0
C107 C 0.41463 0.20856 0.04618 0.0
O108 O 0.41491 0.17829 0.04626 0.0
C109 C 0.25958 0.12928 0.10143 0.0
C110 C 0.21856 0.15917 0.09861 0.0
C111 C 0.22802 0.13069 0.10446 0.0
N112 N 0.26827 0.15587 0.09417 0.0
N113 N 0.24366 0.17362 0.09261 0.0
C114 C 0.28076 0.10256 0.10422 0.0
H115 H 0.29702 0.10045 0.09357 0.0
H116 H 0.26772 0.08071 0.10562 0.0
H117 H 0.29448 0.10671 0.11571 0.0
C118 C 0.3204 0.19465 0.039 0.0
N119 N 0.32667 0.19215 0.05537 0.0
N120 N 0.30507 0.17591 0.06278 0.0
C121 C 0.28505 0.1659 0.05109 0.0
C122 C 0.29393 0.17764 0.03555 0.0
C123 C 0.33872 0.21444 0.02729 0.0
H124 H 0.34834 0.23451 0.03409 0.0
H125 H 0.35819 0.20083 0.02214 0.0
H126 H 0.32422 0.22299 0.01685 0.0
O127 O 0.35139 0.23257 0.08482 0.0
O128 O 0.315 0.20874 0.09939 0.0
H129 H 0.23891 0.15484 0.05843 0.0
H130 H 0.25514 0.12876 0.04322 0.0
C131 C 0.26024 0.1427 0.0545 0.0
H132 H 0.26745 0.12703 0.06473 0.0
H133 H 0.244 0.19556 0.08728 0.0
O134 O 0.39325 0.22269 0.05383 0.0
C135 C 0.33273 0.2317 0.09702 0.0
Co136 Co 0.05673 0.8739 0.17424 0.0
Co137 Co 0.06434 0.93635 0.15493 0.0
C138 C 0.10903 0.88171 0.15192 0.0
O139 O 0.09657 0.86581 0.16349 0.0
O140 O 0.09803 0.90778 0.14756 0.0
C141 C 0.05418 0.81272 0.1887 0.0
O142 O 0.08142 0.80859 0.18185 0.0
C143 C 0.09969 0.98881 0.14172 0.0
C144 C 0.06268 0.02251 0.13643 0.0
C145 C 0.09431 0.01818 0.13541 0.0
N146 N 0.07247 0.97665 0.14643 0.0
N147 N 0.05048 -0.00311 0.14322 0.0
C148 C 0.12914 0.97074 0.1414 0.0
H149 H 0.1334 0.96062 0.15393 0.0
H150 H 0.14928 0.98455 0.13743 0.0
H151 H 0.1266 0.95151 0.1324 0.0
C152 C 0.0566 0.9156 0.20305 0.0
N153 N 0.05795 0.91057 0.18651 0.0
N154 N 0.06075 0.937 0.17861 0.0
C155 C 0.0609 0.95993 0.18996 0.0
C156 C 0.05829 0.94707 0.20583 0.0
C157 C 0.05546 0.89045 0.21584 0.0
H158 H 0.03133 0.88217 0.21704 0.0
H159 H 0.06996 0.8708 0.21174 0.0
H160 H 0.06359 0.89865 0.22821 0.0
O161 O 0.02585 0.87561 0.15623 0.0
O162 O 0.02575 0.92174 0.14433 0.0
H163 H 0.04319 -0.00162 0.17636 0.0
H164 H 0.05825 0.00842 0.19656 0.0
C165 C 0.06171 0.99343 0.18552 0.0
H166 H 0.08418 -0.00107 0.17956 0.0
H167 H 0.02706 0.99298 0.14541 0.0
O168 O 0.04168 0.83913 0.18797 0.0
C169 C 0.01483 0.89471 0.14578 0.0
Co170 Co 0.36088 0.79182 0.41768 0.0
Co171 Co 0.30998 0.82393 0.39582 0.0
C172 C 0.37266 0.85031 0.39771 0.0
O173 O 0.38069 0.82853 0.40745 0.0
O174 O 0.34535 0.85198 0.39188 0.0
C175 C 0.41077 0.79087 0.44109 0.0
O176 O 0.408 0.82097 0.44023 0.0
C177 C 0.26457 0.86877 0.38234 0.0
C178 C 0.23089 0.83725 0.37059 0.0
C179 C 0.23738 0.86805 0.37324 0.0
N180 N 0.2738 0.83956 0.38502 0.0
N181 N 0.25352 0.8209 0.37795 0.0
C182 C 0.28226 0.89675 0.38756 0.0
H183 H 0.29964 0.89084 0.39722 0.0
H184 H 0.26634 0.91464 0.39243 0.0
H185 H 0.29427 0.90646 0.3765 0.0
C186 C 0.3139 0.79878 0.44369 0.0
N187 N 0.32363 0.80266 0.42792 0.0
N188 N 0.30292 0.81821 0.41937 0.0
C189 C 0.2798 0.82622 0.42983 0.0
C190 C 0.28589 0.81408 0.44567 0.0
C191 C 0.33027 0.77853 0.45601 0.0
H192 H 0.3419 0.75934 0.44938 0.0
H193 H 0.34817 0.79219 0.4626 0.0
H194 H 0.31398 0.76872 0.46529 0.0
O195 O 0.3534 0.76053 0.40065 0.0
O196 O 0.31932 0.78381 0.38423 0.0
H197 H 0.23619 0.83385 0.41804 0.0
H198 H 0.24317 0.85832 0.43599 0.0
C199 C 0.2539 0.84719 0.42496 0.0
H200 H 0.2627 0.86553 0.41666 0.0
H201 H 0.25525 0.79692 0.37804 0.0
O202 O 0.39146 0.77406 0.43336 0.0
C203 C 0.33644 0.7608 0.38772 0.0
Co204 Co 0.46262 0.1006 0.67362 0.0
Co205 Co 0.4496 0.04119 0.65229 0.0
C206 C 0.41677 0.10154 0.64613 0.0
O207 O 0.43017 0.11499 0.65826 0.0
O208 O 0.42264 0.07362 0.64234 0.0
C209 C 0.45858 0.158 0.69185 0.0
O210 O 0.43089 0.16016 0.68526 0.0
C211 C 0.41181 0.98985 0.63922 0.0
C212 C 0.4481 0.95734 0.63115 0.0
C213 C 0.41635 0.96104 0.63197 0.0
N214 N 0.4396 0.00227 0.64258 0.0
N215 N 0.46114 0.98267 0.63774 0.0
C216 C 0.38181 0.00604 0.64225 0.0
H217 H 0.38532 0.03105 0.64394 0.0
H218 H 0.37114 -0.00299 0.65386 0.0
H219 H 0.36566 0.00197 0.63171 0.0
C220 C 0.44142 0.06026 0.70071 0.0
N221 N 0.44911 0.06508 0.68466 0.0
N222 N 0.44501 0.03959 0.67605 0.0
C223 C 0.43557 0.01723 0.6866 0.0
C224 C 0.43266 0.02969 0.70255 0.0
C225 C 0.43991 0.08534 0.71352 0.0
H226 H 0.46358 0.09054 0.71799 0.0
H227 H 0.43034 0.10651 0.70777 0.0
H228 H 0.42523 0.07879 0.72431 0.0
O229 O 0.50093 0.09277 0.66085 0.0
O230 O 0.49234 0.05112 0.64549 0.0
H231 H 0.44859 0.97753 0.67227 0.0
H232 H 0.43328 0.96873 0.69266 0.0
C233 C 0.43113 0.98425 0.6817 0.0
H234 H 0.40784 0.98132 0.67621 0.0
H235 H 0.4848 0.98667 0.63888 0.0
O236 O 0.47441 0.13384 0.68929 0.0
C237 C 0.50983 0.07299 0.65018 0.0
Co238 Co 0.11891 0.20343 0.92358 0.0
Co239 Co 0.17132 0.17097 0.90361 0.0
C240 C 0.1079 0.14643 0.90241 0.0
O241 O 0.09902 0.16792 0.91213 0.0
O242 O 0.13595 0.14428 0.89779 0.0
C243 C 0.071 0.20372 0.9479 0.0
O244 O 0.07523 0.17375 0.94782 0.0
C245 C 0.2153 0.12589 0.88968 0.0
C246 C 0.25811 0.15364 0.88925 0.0
C247 C 0.24653 0.12455 0.88592 0.0
N248 N 0.20878 0.15456 0.89499 0.0
N249 N 0.2344 0.17107 0.89453 0.0
C250 C 0.19268 0.09983 0.88986 0.0
H251 H 0.1781 0.10123 0.90124 0.0
H252 H 0.2045 0.07717 0.88954 0.0
H253 H 0.17734 0.10183 0.87881 0.0
C254 C 0.16122 0.19319 0.95149 0.0
N255 N 0.15391 0.19097 0.93524 0.0
N256 N 0.17499 0.17481 0.92737 0.0
C257 C 0.19575 0.16462 0.93868 0.0
C258 C 0.18772 0.17602 0.9544 0.0
C259 C 0.14452 0.21372 0.96352 0.0
H260 H 0.13461 0.23381 0.95684 0.0
H261 H 0.12545 0.20066 0.96947 0.0
H262 H 0.16028 0.22226 0.97342 0.0
O263 O 0.12932 0.23536 0.90732 0.0
O264 O 0.16499 0.21178 0.89207 0.0
H265 H 0.24122 0.15521 0.9297 0.0
H266 H 0.2283 0.12927 0.94593 0.0
C267 C 0.22107 0.14237 0.93468 0.0
H268 H 0.2132 0.12585 0.92504 0.0
H269 H 0.23582 0.19405 0.89829 0.0
O270 O 0.08797 0.22068 0.93879 0.0
C271 C 0.14796 0.2351 0.89507 0.0
Co272 Co 0.9593 0.88133 0.66601 0.0
Co273 Co 0.93176 0.9374 0.64646 0.0
C274 C 0.90368 0.87541 0.64341 0.0
O275 O 0.92327 0.86399 0.65359 0.0
O276 O 0.90418 0.90382 0.63947 0.0
C277 C 0.9605 0.82827 0.68764 0.0
O278 O 0.93032 0.82853 0.68603 0.0
C279 C 0.88914 0.98428 0.63289 0.0
C280 C 0.91838 0.02596 0.63412 0.0
C281 C 0.88891 0.01591 0.63021 0.0
N282 N 0.91727 0.97624 0.6385 0.0
N283 N 0.9347 0.0012 0.63902 0.0
C284 C 0.86371 0.96173 0.62959 0.0
H285 H 0.87297 0.94188 0.62249 0.0
H286 H 0.85461 0.95298 0.64166 0.0
H287 H 0.84472 0.97214 0.62222 0.0
C288 C 0.94862 0.92216 0.69467 0.0
N289 N 0.94795 0.91622 0.6782 0.0
N290 N 0.93388 0.93875 0.67034 0.0
C291 C 0.92329 0.95901 0.68176 0.0
C292 C 0.93256 0.94937 0.69763 0.0
C293 C 0.9663 0.90304 0.70697 0.0
H294 H 0.98688 0.89285 0.70086 0.0
H295 H 0.95139 0.88402 0.71153 0.0
H296 H 0.97409 0.91704 0.71776 0.0
O297 O 0.99216 0.89125 0.65021 0.0
O298 O 0.97276 0.92986 0.63537 0.0
H299 H 0.91531 0.00508 0.67332 0.0
H300 H 0.88773 0.99167 0.68865 0.0
C301 C 0.90176 0.98491 0.67765 0.0
H302 H 0.88588 0.97783 0.66752 0.0
H303 H 0.95756 0.00143 0.64313 0.0
O304 O 0.97641 0.8491 0.68059 0.0
C305 C 0.99434 0.91073 0.63843 0.0
Co306 Co 0.86102 0.21993 0.41658 0.0
Co307 Co 0.80844 0.18719 0.39598 0.0
C308 C 0.87079 0.16136 0.39591 0.0
O309 O 0.87941 0.18316 0.4055 0.0
O310 O 0.84304 0.15916 0.39079 0.0
C311 C 0.91273 0.21959 0.43877 0.0
O312 O 0.9082 0.18967 0.43825 0.0
C313 C 0.75912 0.14497 0.38364 0.0
C314 C 0.72172 0.17887 0.37975 0.0
C315 C 0.7282 0.14765 0.37917 0.0
N316 N 0.7701 0.17338 0.38691 0.0
N317 N 0.74772 0.19347 0.38428 0.0
C318 C 0.77702 0.11595 0.38646 0.0
H319 H 0.79673 0.12018 0.395 0.0
H320 H 0.7619 0.09773 0.39175 0.0
H321 H 0.78622 0.1077 0.37432 0.0
C322 C 0.81474 0.2142 0.44344 0.0
N323 N 0.82462 0.20914 0.42776 0.0
N324 N 0.80389 0.19299 0.41959 0.0
C325 C 0.78085 0.18556 0.43016 0.0
C326 C 0.78652 0.19924 0.44562 0.0
C327 C 0.83109 0.23511 0.45539 0.0
H328 H 0.84427 0.25289 0.44842 0.0
H329 H 0.84768 0.22143 0.46291 0.0
H330 H 0.81452 0.24665 0.46391 0.0
O331 O 0.85167 0.2512 0.39974 0.0
O332 O 0.81678 0.22696 0.38424 0.0
H333 H 0.73699 0.17539 0.41916 0.0
H334 H 0.74612 0.15206 0.43725 0.0
C335 C 0.75572 0.1632 0.42592 0.0
H336 H 0.76503 0.14488 0.41776 0.0
H337 H 0.74992 0.21715 0.38621 0.0
O338 O 0.89365 0.2372 0.43138 0.0
C339 C 0.83366 0.25032 0.38722 0.0
Co340 Co 0.5312 0.10326 0.17061 0.0
Co341 Co 0.55635 0.04543 0.15182 0.0
C342 C 0.58407 0.10689 0.14595 0.0
O343 O 0.56601 0.11932 0.1566 0.0
O344 O 0.58264 0.07825 0.14259 0.0
C345 C 0.53085 0.15897 0.19045 0.0
O346 O 0.56091 0.15907 0.18828 0.0
C347 C 0.59756 -0.00303 0.13878 0.0
C348 C 0.56588 0.95704 0.13854 0.0
C349 C 0.596 0.9657 0.13509 0.0
N350 N 0.56962 0.00615 0.14414 0.0
N351 N 0.55078 0.98223 0.14386 0.0
C352 C 0.62553 0.01727 0.13876 0.0
H353 H 0.62296 0.03604 0.14804 0.0
H354 H 0.64661 0.00381 0.14169 0.0
H355 H 0.62819 0.02784 0.12621 0.0
C356 C 0.54465 0.06494 0.19998 0.0
N357 N 0.544 0.06958 0.18339 0.0
N358 N 0.55732 0.04638 0.17573 0.0
C359 C 0.56886 0.02702 0.18733 0.0
C360 C 0.56094 0.03791 0.2032 0.0
C361 C 0.52756 0.08486 0.21214 0.0
H362 H 0.50675 0.09474 0.20613 0.0
H363 H 0.5427 0.10412 0.21614 0.0
H364 H 0.52018 0.07155 0.22329 0.0
O365 O 0.49646 0.09148 0.15653 0.0
O366 O 0.51383 0.0511 0.14242 0.0
H367 H 0.57565 0.98033 0.17961 0.0
H368 H 0.60482 0.99449 0.19391 0.0
C369 C 0.58974 0.00061 0.18322 0.0
H370 H 0.60474 0.00685 0.17257 0.0
H371 H 0.52769 0.98304 0.14756 0.0
O372 O 0.51503 0.13691 0.18456 0.0
C373 C 0.4926 0.07037 0.14579 0.0
Co374 Co 0.62527 0.79799 0.91957 0.0
Co375 Co 0.67715 0.82934 0.89804 0.0
C376 C 0.61419 0.85409 0.89751 0.0
O377 O 0.60578 0.83311 0.9077 0.0
O378 O 0.64192 0.85618 0.89231 0.0
C379 C 0.57505 0.7979 0.94296 0.0
O380 O 0.57689 0.82799 0.94145 0.0
C381 C 0.72334 0.86926 0.88082 0.0
C382 C 0.76316 0.83738 0.88063 0.0
C383 C 0.75391 0.86653 0.87573 0.0
N384 N 0.71512 0.84285 0.88848 0.0
N385 N 0.73905 0.82401 0.8883 0.0
C386 C 0.70169 0.89545 0.87762 0.0
H387 H 0.67922 0.88642 0.87316 0.0
H388 H 0.69753 0.90795 0.88951 0.0
H389 H 0.71104 0.91166 0.86817 0.0
C390 C 0.66916 0.81035 0.9465 0.0
N391 N 0.66104 0.81111 0.93033 0.0
N392 N 0.68178 0.82651 0.92174 0.0
C393 C 0.70323 0.83748 0.9324 0.0
C394 C 0.69602 0.82749 0.94851 0.0
C395 C 0.65235 0.7917 0.95937 0.0
H396 H 0.64202 0.77098 0.95351 0.0
H397 H 0.63347 0.80578 0.96479 0.0
H398 H 0.66808 0.78423 0.96953 0.0
O399 O 0.63469 0.76536 0.90356 0.0
O400 O 0.66913 0.7885 0.88731 0.0
H401 H 0.74837 0.84601 0.92268 0.0
H402 H 0.73584 0.87371 0.93809 0.0
C403 C 0.72832 0.85933 0.92738 0.0
H404 H 0.72009 0.87464 0.91723 0.0
H405 H 0.73882 0.80184 0.89337 0.0
O406 O 0.59438 0.78107 0.93527 0.0
C407 C 0.65235 0.76533 0.89089 0.0
Co408 Co 0.96056 0.11976 0.81099 0.0
Co409 Co 0.92274 0.06921 0.82972 0.0
C410 C 0.90508 0.13474 0.83278 0.0
O411 O 0.92725 0.14221 0.82309 0.0
O412 O 0.89995 0.10671 0.8367 0.0
C413 C 0.96973 0.17086 0.78887 0.0
O414 O 0.93943 0.17158 0.78828 0.0
C415 C 0.87401 0.0269 0.84224 0.0
C416 C 0.90055 0.98344 0.84332 0.0
C417 C 0.87149 0.99573 0.84605 0.0
N418 N 0.90327 0.03255 0.83746 0.0
N419 N 0.91897 0.00652 0.83825 0.0
C420 C 0.84876 0.05037 0.84174 0.0
H421 H 0.85358 0.0678 0.83193 0.0
H422 H 0.82611 0.03932 0.83929 0.0
H423 H 0.8477 0.06233 0.85398 0.0
C424 C 0.94673 0.08091 0.78209 0.0
N425 N 0.94444 0.08753 0.79841 0.0
N426 N 0.92651 0.0673 0.80583 0.0
C427 C 0.91535 0.04786 0.79413 0.0
C428 C 0.92793 0.05575 0.77864 0.0
C429 C 0.96907 0.09658 0.77058 0.0
H430 H 0.98968 0.1043 0.77763 0.0
H431 H 0.95785 0.11708 0.76495 0.0
H432 H 0.97675 0.08092 0.76045 0.0
O433 O 0.99086 0.1041 0.82674 0.0
O434 O 0.9639 0.07002 0.84137 0.0
H435 H 0.90307 0.00288 0.80273 0.0
H436 H 0.87876 0.01733 0.78612 0.0
C437 C 0.89157 0.02368 0.79762 0.0
H438 H 0.8749 0.03226 0.80702 0.0
H439 H 0.94223 0.00444 0.83505 0.0
O440 O 0.98294 0.14975 0.79718 0.0
C441 C 0.98888 0.08454 0.83846 0.0
Co442 Co 0.62998 0.2026 0.56554 0.0
Co443 Co 0.68835 0.17943 0.5853 0.0
C444 C 0.62926 0.14698 0.58891 0.0
O445 O 0.61692 0.16568 0.5786 0.0
O446 O 0.65749 0.14926 0.59311 0.0
C447 C 0.57343 0.19659 0.54704 0.0
O448 O 0.57804 0.16699 0.54942 0.0
C449 C 0.74131 0.14246 0.59728 0.0
C450 C 0.77679 0.17881 0.59972 0.0
C451 C 0.77217 0.14736 0.60122 0.0
N452 N 0.72848 0.16982 0.59352 0.0
N453 N 0.74972 0.19144 0.59523 0.0
C454 C 0.72503 0.11224 0.59538 0.0
H455 H 0.7056 0.11438 0.58643 0.0
H456 H 0.74122 0.09416 0.59098 0.0
H457 H 0.71556 0.10514 0.60768 0.0
C458 C 0.67417 0.2001 0.53746 0.0
N459 N 0.66608 0.19448 0.5534 0.0
N460 N 0.6895 0.18206 0.56138 0.0
C461 C 0.71268 0.17746 0.55046 0.0
C462 C 0.70417 0.18942 0.53495 0.0
C463 C 0.65464 0.2186 0.52573 0.0
H464 H 0.6391 0.23409 0.53284 0.0
H465 H 0.64019 0.20276 0.51817 0.0
H466 H 0.66915 0.23268 0.51722 0.0
O467 O 0.63825 0.23698 0.5806 0.0
O468 O 0.67816 0.22013 0.59545 0.0
H469 H 0.75815 0.17531 0.56086 0.0
H470 H 0.75216 0.14991 0.54323 0.0
C471 C 0.74139 0.15984 0.55459 0.0
H472 H 0.73571 0.14064 0.56314 0.0
H473 H 0.74593 0.21477 0.5928 0.0
O474 O 0.59411 0.21554 0.55169 0.0
C475 C 0.65818 0.24067 0.59205 0.0
Co476 Co 0.54271 0.87453 0.31971 0.0
Co477 Co 0.57135 0.93222 0.33745 0.0
C478 C 0.59319 0.86953 0.3457 0.0
O479 O 0.57459 0.85799 0.33509 0.0
O480 O 0.59461 0.89845 0.34821 0.0
C481 C 0.54546 0.81995 0.29976 0.0
O482 O 0.57545 0.82367 0.30111 0.0
C483 C 0.61515 0.97968 0.34972 0.0
C484 C 0.58646 0.02153 0.34725 0.0
C485 C 0.61566 0.0115 0.35171 0.0
N486 N 0.58706 0.9715 0.34405 0.0
N487 N 0.57002 -0.00338 0.34273 0.0
C488 C 0.64021 0.95716 0.35379 0.0
H489 H 0.64989 0.94775 0.342 0.0
H490 H 0.65889 0.96789 0.36125 0.0
H491 H 0.63049 0.93769 0.36104 0.0
C492 C 0.5577 0.91025 0.28983 0.0
N493 N 0.55858 0.90596 0.30642 0.0
N494 N 0.5732 0.92895 0.31356 0.0
C495 C 0.58409 0.94778 0.3015 0.0
C496 C 0.57431 0.93678 0.28597 0.0
C497 C 0.53756 0.89159 0.27846 0.0
H498 H 0.51763 0.88213 0.28547 0.0
H499 H 0.5511 0.8721 0.27329 0.0
H500 H 0.52853 0.90573 0.268 0.0
O501 O 0.50774 0.89018 0.33235 0.0
O502 O 0.5276 0.93017 0.34598 0.0
H503 H 0.59066 0.99488 0.30847 0.0
H504 H 0.61881 0.98056 0.29368 0.0
C505 C 0.60482 0.97466 0.30485 0.0
H506 H 0.62067 0.96914 0.31528 0.0
H507 H 0.54725 -0.00322 0.33849 0.0
O508 O 0.52753 0.83966 0.30631 0.0
C509 C 0.50499 0.91248 0.34249 0.0
Co510 Co 0.8672 0.79406 0.06127 0.0
Co511 Co 0.81326 0.82889 0.07881 0.0
C512 C 0.87541 0.84686 0.08666 0.0
O513 O 0.884 0.82479 0.07725 0.0
O514 O 0.84703 0.8538 0.08827 0.0
C515 C 0.92255 0.79942 0.0431 0.0
O516 O 0.91597 0.82884 0.04458 0.0
C517 C 0.76417 0.86981 0.09216 0.0
C518 C 0.72369 0.83924 0.08905 0.0
C519 C 0.73246 0.86813 0.0946 0.0
N520 N 0.77354 0.8431 0.08531 0.0
N521 N 0.74923 0.825 0.08352 0.0
C522 C 0.78555 0.89527 0.09714 0.0
H523 H 0.80572 0.88555 0.10383 0.0
H524 H 0.79421 0.90701 0.08574 0.0
H525 H 0.77401 0.9123 0.10536 0.0
C526 C 0.8321 0.81149 0.03121 0.0
N527 N 0.83684 0.81172 0.0478 0.0
N528 N 0.81556 0.82853 0.05507 0.0
C529 C 0.79744 0.84108 0.04324 0.0
C530 C 0.8069 0.83031 0.02762 0.0
C531 C 0.84966 0.79111 0.01949 0.0
H532 H 0.85971 0.7713 0.02634 0.0
H533 H 0.86877 0.80448 0.01376 0.0
H534 H 0.83446 0.78229 0.00941 0.0
O535 O 0.85052 0.75976 0.07417 0.0
O536 O 0.81634 0.78649 0.08884 0.0
H537 H 0.75143 0.85269 0.05062 0.0
H538 H 0.76844 0.87927 0.03583 0.0
C539 C 0.77304 0.86457 0.0469 0.0
H540 H 0.78049 0.87942 0.05742 0.0
H541 H 0.75016 0.80282 0.07852 0.0
O542 O 0.90319 0.77965 0.04836 0.0
C543 C 0.83061 0.76141 0.0858 0.0
Co544 Co 0.53914 0.61163 0.81862 0.0
Co545 Co 0.56568 0.55549 0.83884 0.0
C546 C 0.59037 0.62011 0.84289 0.0
O547 O 0.5726 0.63121 0.83171 0.0
O548 O 0.58961 0.59166 0.84682 0.0
C549 C 0.52995 0.6664 0.79788 0.0
O550 O 0.5593 0.6726 0.80028 0.0
C551 C 0.61269 0.50979 0.84913 0.0
C552 C 0.5829 0.47292 0.85925 0.0
C553 C 0.61351 0.48065 0.85642 0.0
N554 N 0.58299 0.51851 0.84767 0.0
N555 N 0.56536 0.49634 0.85375 0.0
C556 C 0.63942 0.52958 0.84408 0.0
H557 H 0.63243 0.554 0.84301 0.0
H558 H 0.6479 0.52204 0.83166 0.0
H559 H 0.65852 0.52741 0.85325 0.0
C560 C 0.55147 0.57058 0.79046 0.0
N561 N 0.55349 0.57749 0.80677 0.0
N562 N 0.5642 0.55354 0.81504 0.0
C563 C 0.56936 0.53049 0.8041 0.0
C564 C 0.56153 0.54067 0.78823 0.0
C565 C 0.53779 0.59142 0.77754 0.0
H566 H 0.51313 0.59557 0.78055 0.0
H567 H 0.5499 0.61393 0.77783 0.0
H568 H 0.53963 0.58145 0.76481 0.0
O569 O 0.50581 0.59881 0.83376 0.0
O570 O 0.52365 0.55931 0.84849 0.0
H571 H 0.56216 0.48966 0.81858 0.0
H572 H 0.57813 0.48264 0.79802 0.0
C573 C 0.57833 0.49841 0.80893 0.0
H574 H 0.60184 0.49873 0.81437 0.0
H575 H 0.54131 0.49723 0.85415 0.0
O576 O 0.51864 0.64182 0.80392 0.0
C577 C 0.50222 0.57817 0.84485 0.0
Co578 Co 0.63423 0.27916 0.07128 0.0
Co579 Co 0.69261 0.30483 0.08956 0.0
C580 C 0.6325 0.33614 0.09324 0.0
O581 O 0.61974 0.31675 0.08342 0.0
O582 O 0.66104 0.33441 0.09697 0.0
C583 C 0.57976 0.27838 0.05024 0.0
O584 O 0.58025 0.30857 0.0514 0.0
C585 C 0.7439 0.34415 0.10139 0.0
C586 C 0.78286 0.3114 0.09965 0.0
C587 C 0.77562 0.34165 0.10345 0.0
N588 N 0.73297 0.31656 0.09655 0.0
N589 N 0.75633 0.29704 0.09575 0.0
C590 C 0.72478 0.37285 0.10217 0.0
H591 H 0.70614 0.37201 0.0927 0.0
H592 H 0.73907 0.3937 0.10004 0.0
H593 H 0.71394 0.37447 0.11471 0.0
C594 C 0.674 0.28617 0.04191 0.0
N595 N 0.66903 0.28787 0.05845 0.0
N596 N 0.69231 0.30178 0.06571 0.0
C597 C 0.71205 0.31151 0.05379 0.0
C598 C 0.70135 0.30161 0.03821 0.0
C599 C 0.6538 0.26814 0.03029 0.0
H600 H 0.64335 0.24834 0.037 0.0
H601 H 0.63492 0.28316 0.02567 0.0
H602 H 0.66712 0.25918 0.0195 0.0
O603 O 0.6432 0.24678 0.08737 0.0
O604 O 0.68352 0.26491 0.10131 0.0
H605 H 0.75889 0.3198 0.06097 0.0
H606 H 0.74385 0.34731 0.04604 0.0
C607 C 0.73822 0.33317 0.05718 0.0
H608 H 0.73197 0.34897 0.06748 0.0
H609 H 0.75425 0.27412 0.09197 0.0
O610 O 0.60062 0.2627 0.05741 0.0
C611 C 0.66318 0.24422 0.09885 0.0
Co612 Co 0.95548 0.38893 0.31615 0.0
Co613 Co 0.93413 0.44941 0.33462 0.0
C614 C 0.89942 0.39022 0.33809 0.0
O615 O 0.91785 0.37628 0.32827 0.0
O616 O 0.90293 0.4186 0.34165 0.0
C617 C 0.95303 0.33153 0.2981 0.0
O618 O 0.92324 0.33353 0.30097 0.0
C619 C 0.89282 0.49969 0.34447 0.0
C620 C 0.92581 0.53557 0.3525 0.0
C621 C 0.89458 0.52938 0.35084 0.0
N622 N 0.92165 0.48886 0.34254 0.0
N623 N 0.94127 0.51037 0.34742 0.0
C624 C 0.86453 0.4824 0.33928 0.0
H625 H 0.87004 0.46661 0.32879 0.0
H626 H 0.84589 0.49848 0.33548 0.0
H627 H 0.85626 0.46832 0.34997 0.0
C628 C 0.94918 0.4292 0.28675 0.0
N629 N 0.9478 0.42428 0.30332 0.0
N630 N 0.93941 0.44983 0.31092 0.0
C631 C 0.93548 0.47206 0.29934 0.0
C632 C 0.94149 0.45969 0.28365 0.0
C633 C 0.95589 0.40448 0.27424 0.0
H634 H 0.98049 0.39765 0.27526 0.0
H635 H 0.94161 0.38393 0.27708 0.0
H636 H 0.95094 0.41205 0.26127 0.0
O637 O 0.98828 0.39702 0.33272 0.0
O638 O 0.97279 0.43874 0.34645 0.0
H639 H 0.94286 0.5132 0.31349 0.0
H640 H 0.93041 0.52013 0.29236 0.0
C641 C 0.92761 0.50481 0.30335 0.0
H642 H 0.9034 0.50602 0.30782 0.0
H643 H 0.96522 0.50787 0.34721 0.0
O644 O 0.97051 0.35353 0.30263 0.0
C645 C 0.99205 0.41704 0.34415 0.0
Co646 Co 0.86784 0.70037 0.56868 0.0
Co647 Co 0.81093 0.67068 0.58662 0.0
C648 C 0.87243 0.64204 0.5897 0.0
O649 O 0.88423 0.66287 0.58037 0.0
O650 O 0.84374 0.64184 0.59323 0.0
C651 C 0.92387 0.70683 0.54881 0.0
O652 O 0.92615 0.67668 0.54962 0.0
C653 C 0.76023 0.62965 0.59783 0.0
C654 C 0.72125 0.66255 0.59708 0.0
C655 C 0.72854 0.63201 0.60007 0.0
N656 N 0.77106 0.65762 0.59358 0.0
N657 N 0.74771 0.67719 0.59338 0.0
C658 C 0.77937 0.60096 0.59803 0.0
H659 H 0.7983 0.6027 0.58875 0.0
H660 H 0.76509 0.58034 0.59531 0.0
H661 H 0.78984 0.59825 0.6106 0.0
C662 C 0.82689 0.69468 0.53938 0.0
N663 N 0.83323 0.69087 0.5557 0.0
N664 N 0.81051 0.67589 0.56292 0.0
C665 C 0.7898 0.66778 0.55117 0.0
C666 C 0.7991 0.67992 0.53582 0.0
C667 C 0.84616 0.71408 0.52794 0.0
H668 H 0.85724 0.733 0.53505 0.0
H669 H 0.8646 0.69962 0.52236 0.0
H670 H 0.83201 0.72427 0.5178 0.0
O671 O 0.85703 0.73136 0.5853 0.0
O672 O 0.81821 0.70991 0.59911 0.0
H673 H 0.7436 0.65864 0.55925 0.0
H674 H 0.75694 0.63357 0.54272 0.0
C675 C 0.76377 0.64581 0.55431 0.0
H676 H 0.77085 0.62838 0.56365 0.0
H677 H 0.74973 0.70041 0.59015 0.0
O678 O 0.90078 0.72006 0.55541 0.0
C679 C 0.8371 0.73196 0.5969 0.0
Co680 Co 0.53837 0.37516 0.67446 0.0
Co681 Co 0.56871 0.42758 0.65282 0.0
C682 C 0.59485 0.36382 0.6539 0.0
O683 O 0.57436 0.35459 0.66417 0.0
O684 O 0.59523 0.39141 0.64846 0.0
C685 C 0.53023 0.32252 0.69588 0.0
O686 O 0.56031 0.31972 0.69448 0.0
C687 C 0.61489 0.4724 0.64002 0.0
C688 C 0.58382 0.50982 0.63176 0.0
C689 C 0.61466 0.50178 0.63308 0.0
N690 N 0.58548 0.46386 0.64292 0.0
N691 N 0.56711 0.48626 0.63782 0.0
C692 C 0.64229 0.45218 0.64313 0.0
H693 H 0.63639 0.42779 0.64076 0.0
H694 H 0.64943 0.45439 0.65639 0.0
H695 H 0.66192 0.45864 0.63494 0.0
C696 C 0.55048 0.4193 0.70139 0.0
N697 N 0.5507 0.41134 0.68518 0.0
N698 N 0.56346 0.43349 0.6763 0.0
C699 C 0.57193 0.45639 0.68672 0.0
C700 C 0.564 0.44807 0.70291 0.0
C701 C 0.53943 0.39861 0.71512 0.0
H702 H 0.51447 0.39387 0.71337 0.0
H703 H 0.55183 0.37631 0.71437 0.0
H704 H 0.54328 0.40878 0.72766 0.0
O705 O 0.50777 0.38411 0.65703 0.0
O706 O 0.52913 0.42002 0.64105 0.0
H707 H 0.57261 0.49669 0.67134 0.0
H708 H 0.58925 0.50237 0.69174 0.0
C709 C 0.58678 0.48586 0.68125 0.0
H710 H 0.6099 0.48081 0.67599 0.0
H711 H 0.54308 0.48557 0.63867 0.0
O712 O 0.51708 0.34584 0.68946 0.0
C713 C 0.50697 0.40187 0.64441 0.0
Co714 Co 0.87361 0.29526 0.92359 0.0
Co715 Co 0.81673 0.32158 0.90456 0.0
C716 C 0.8766 0.35321 0.90216 0.0
O717 O 0.88804 0.3328 0.9118 0.0
O718 O 0.84837 0.35233 0.89769 0.0
C719 C 0.92365 0.30066 0.94672 0.0
O720 O 0.9181 0.33037 0.94587 0.0
C721 C 0.76423 0.35935 0.89242 0.0
C722 C 0.72714 0.32434 0.89293 0.0
C723 C 0.73283 0.35517 0.8898 0.0
N724 N 0.77645 0.33211 0.89696 0.0
N725 N 0.75421 0.31128 0.89704 0.0
C726 C 0.78171 0.38909 0.89234 0.0
H727 H 0.80019 0.38858 0.90192 0.0
H728 H 0.76614 0.4089 0.89473 0.0
H729 H 0.79268 0.3922 0.87992 0.0
C730 C 0.83209 0.29961 0.95207 0.0
N731 N 0.83827 0.30356 0.9358 0.0
N732 N 0.81526 0.31777 0.92846 0.0
C733 C 0.7942 0.32524 0.94022 0.0
C734 C 0.80412 0.31382 0.95566 0.0
C735 C 0.85128 0.27972 0.96332 0.0
H736 H 0.86265 0.26127 0.95598 0.0
H737 H 0.86944 0.29398 0.9693 0.0
H738 H 0.83697 0.26882 0.97319 0.0
O739 O 0.86569 0.26186 0.90793 0.0
O740 O 0.82663 0.28112 0.8933 0.0
H741 H 0.74734 0.33037 0.93236 0.0
H742 H 0.75913 0.35736 0.94834 0.0
C743 C 0.76659 0.34501 0.93689 0.0
H744 H 0.7721 0.36224 0.92713 0.0
H745 H 0.75737 0.28829 0.90045 0.0
O746 O 0.90704 0.28206 0.93842 0.0
C747 C 0.8461 0.25975 0.89621 0.0
Co748 Co 0.92561 0.62484 0.16948 0.0
Co749 Co 0.91656 0.56373 0.14932 0.0
C750 C 0.88183 0.62352 0.1417 0.0
O751 O 0.89254 0.6378 0.15433 0.0
O752 O 0.88999 0.59592 0.13837 0.0
C753 C 0.92656 0.68467 0.18584 0.0
O754 O 0.89954 0.68946 0.17886 0.0
C755 C 0.878 0.51139 0.13918 0.0
C756 C 0.91304 0.47809 0.13047 0.0
C757 C 0.88156 0.48168 0.13295 0.0
N758 N 0.90609 0.52434 0.14054 0.0
N759 N 0.9269 0.50438 0.13524 0.0
C760 C 0.8486 0.52776 0.1434 0.0
H761 H 0.85189 0.55303 0.14304 0.0
H762 H 0.84142 0.52147 0.15626 0.0
H763 H 0.82997 0.5211 0.13459 0.0
C764 C 0.91165 0.58411 0.19773 0.0
N765 N 0.91457 0.58936 0.18126 0.0
N766 N 0.91207 0.56322 0.17306 0.0
C767 C 0.90829 0.54022 0.18421 0.0
C768 C 0.90756 0.55281 0.20015 0.0
C769 C 0.91606 0.60828 0.21084 0.0
H770 H 0.94068 0.61531 0.21104 0.0
H771 H 0.90213 0.62889 0.20763 0.0
H772 H 0.90944 0.59977 0.22342 0.0
O773 O 0.96276 0.61744 0.15593 0.0
O774 O 0.95988 0.57257 0.14292 0.0
H775 H 0.92595 0.50133 0.17077 0.0
H776 H 0.90977 0.49186 0.19102 0.0
C777 C 0.90731 0.50672 0.17981 0.0
H778 H 0.88487 0.50142 0.17385 0.0
H779 H 0.95061 0.50859 0.13506 0.0
O780 O 0.93926 0.65847 0.18436 0.0
C781 C 0.97451 0.59711 0.14644 0.0
Co782 Co 0.61637 0.69218 0.4246 0.0
Co783 Co 0.67329 0.66235 0.40632 0.0
C784 C 0.61196 0.63395 0.40347 0.0
O785 O 0.60077 0.65513 0.41268 0.0
O786 O 0.64051 0.63319 0.39973 0.0
C787 C 0.56096 0.69083 0.44415 0.0
O788 O 0.56422 0.66084 0.4428 0.0
C789 C 0.72261 0.62349 0.39125 0.0
C790 C 0.76292 0.65404 0.39479 0.0
C791 C 0.75432 0.62549 0.38862 0.0
N792 N 0.7132 0.6495 0.39887 0.0
N793 N 0.73739 0.66768 0.4008 0.0
C794 C 0.70114 0.59862 0.38553 0.0
H795 H 0.67985 0.60902 0.38033 0.0
H796 H 0.69457 0.58412 0.39639 0.0
H797 H 0.71186 0.58398 0.37577 0.0
C798 C 0.65782 0.68707 0.45349 0.0
N799 N 0.65118 0.68245 0.4373 0.0
N800 N 0.67395 0.66752 0.43008 0.0
C801 C 0.69514 0.66039 0.44178 0.0
C802 C 0.68595 0.67298 0.45704 0.0
C803 C 0.63868 0.70706 0.46468 0.0
H804 H 0.62661 0.72491 0.45722 0.0
H805 H 0.62102 0.69268 0.47102 0.0
H806 H 0.65314 0.71862 0.47424 0.0
O807 O 0.6269 0.72414 0.40835 0.0
O808 O 0.6653 0.70211 0.39437 0.0
H809 H 0.74212 0.65342 0.43447 0.0
H810 H 0.72852 0.62682 0.45016 0.0
C811 C 0.72205 0.63953 0.43864 0.0
H812 H 0.71632 0.62265 0.42872 0.0
H813 H 0.73646 0.68943 0.40633 0.0
O814 O 0.58173 0.70837 0.43817 0.0
C815 C 0.6468 0.72451 0.3967 0.0
Co816 Co 0.45806 0.37835 0.16641 0.0
Co817 Co 0.42923 0.43484 0.14797 0.0
C818 C 0.40098 0.37335 0.14449 0.0
O819 O 0.42139 0.36164 0.15411 0.0
O820 O 0.40087 0.40199 0.14096 0.0
C821 C 0.46169 0.32449 0.18777 0.0
O822 O 0.43137 0.32439 0.18734 0.0
C823 C 0.38955 0.48381 0.13382 0.0
C824 C 0.4217 0.52337 0.13497 0.0
C825 C 0.39214 0.515 0.13024 0.0
N826 N 0.41638 0.47433 0.14051 0.0
N827 N 0.43545 0.49807 0.14113 0.0
C828 C 0.36308 0.4628 0.13003 0.0
H829 H 0.37163 0.44251 0.123 0.0
H830 H 0.35297 0.45434 0.14192 0.0
H831 H 0.34502 0.47439 0.1225 0.0
C832 C 0.44869 0.4182 0.19565 0.0
N833 N 0.44721 0.41273 0.17916 0.0
N834 N 0.43246 0.43529 0.17173 0.0
C835 C 0.42209 0.45502 0.18345 0.0
C836 C 0.4323 0.44508 0.19911 0.0
C837 C 0.46749 0.39903 0.20743 0.0
H838 H 0.48764 0.3891 0.2008 0.0
H839 H 0.45312 0.3798 0.21224 0.0
H840 H 0.47602 0.41295 0.2181 0.0
O841 O 0.49033 0.38909 0.15049 0.0
O842 O 0.4694 0.42757 0.13626 0.0
H843 H 0.41299 0.50152 0.17612 0.0
H844 H 0.38531 0.48592 0.19079 0.0
C845 C 0.39991 0.48059 0.17977 0.0
H846 H 0.38464 0.47402 0.16925 0.0
H847 H 0.45794 0.49691 0.14575 0.0
O848 O 0.47637 0.34563 0.18023 0.0
C849 C 0.49151 0.40892 0.13887 0.0
Co850 Co 0.37489 0.69423 0.93268 0.0
Co851 Co 0.31938 0.66679 0.91231 0.0
C852 C 0.38196 0.64068 0.90873 0.0
O853 O 0.39239 0.66004 0.91927 0.0
O854 O 0.35365 0.64048 0.90447 0.0
C855 C 0.43011 0.69298 0.95245 0.0
O856 O 0.42832 0.66303 0.95025 0.0
C857 C 0.27223 0.62526 0.89748 0.0
C858 C 0.23177 0.65629 0.89723 0.0
C859 C 0.24108 0.62663 0.89335 0.0
N860 N 0.28067 0.6528 0.90373 0.0
N861 N 0.2564 0.67121 0.90346 0.0
C862 C 0.29414 0.59909 0.89473 0.0
H863 H 0.30138 0.58965 0.90701 0.0
H864 H 0.28373 0.58056 0.88705 0.0
H865 H 0.31507 0.60765 0.88825 0.0
C866 C 0.33357 0.68112 0.96087 0.0
N867 N 0.34037 0.68057 0.94451 0.0
N868 N 0.31796 0.66702 0.93623 0.0
C869 C 0.29671 0.65696 0.94727 0.0
C870 C 0.30567 0.66587 0.96329 0.0
C871 C 0.35219 0.69861 0.97346 0.0
H872 H 0.36383 0.71844 0.96742 0.0
H873 H 0.37014 0.6832 0.97875 0.0
H874 H 0.33746 0.70735 0.98376 0.0
O875 O 0.36324 0.72868 0.91828 0.0
O876 O 0.32525 0.70934 0.90293 0.0
H877 H 0.25085 0.65223 0.93776 0.0
H878 H 0.26097 0.62403 0.95348 0.0
C879 C 0.26963 0.63734 0.9426 0.0
H880 H 0.27638 0.62094 0.93265 0.0
H881 H 0.25663 0.69397 0.90765 0.0
O882 O 0.40838 0.70996 0.94709 0.0
C883 C 0.3432 0.73147 0.90681 0.0
Co884 Co 0.0394 0.61118 0.66879 0.0
Co885 Co 0.07589 0.55778 0.65169 0.0
C886 C 0.10052 0.62066 0.65039 0.0
O887 O 0.07721 0.62992 0.65877 0.0
O888 O 0.10384 0.59244 0.64631 0.0
C889 C 0.03115 0.66385 0.69008 0.0
O890 O 0.06143 0.66397 0.69093 0.0
C891 C 0.1196 0.50893 0.64054 0.0
C892 C 0.08802 0.46888 0.64104 0.0
C893 C 0.11826 0.47729 0.63783 0.0
N894 N 0.09133 0.51857 0.64514 0.0
N895 N 0.07262 0.49453 0.64531 0.0
C896 C 0.1475 0.52923 0.64015 0.0
H897 H 0.14488 0.54847 0.64915 0.0
H898 H 0.16865 0.51595 0.64318 0.0
H899 H 0.15001 0.53916 0.62743 0.0
C900 C 0.04722 0.5724 0.69833 0.0
N901 N 0.0503 0.57757 0.68188 0.0
N902 N 0.06838 0.55662 0.67526 0.0
C903 C 0.07904 0.53829 0.68759 0.0
C904 C 0.06585 0.54756 0.70271 0.0
C905 C 0.0255 0.59016 0.70924 0.0
H906 H 0.00535 0.59807 0.70185 0.0
H907 H 0.03753 0.61072 0.71428 0.0
H908 H 0.01709 0.57584 0.71979 0.0
O909 O 0.01081 0.59895 0.6513 0.0
O910 O 0.03762 0.56329 0.63782 0.0
H911 H 0.0939 0.49288 0.68111 0.0
H912 H 0.11756 0.51142 0.69677 0.0
C913 C 0.10419 0.51509 0.68512 0.0
H914 H 0.12021 0.52306 0.67523 0.0
H915 H 0.04935 0.49562 0.64863 0.0
O916 O 0.01767 0.64282 0.68184 0.0
C917 C 0.01359 0.57987 0.63941 0.0
Co918 Co 0.12913 0.29791 0.42489 0.0
Co919 Co 0.18812 0.31765 0.40463 0.0
C920 C 0.12764 0.34554 0.39716 0.0
O921 O 0.11481 0.33018 0.40881 0.0
O922 O 0.15621 0.34282 0.39402 0.0
C923 C 0.07185 0.30738 0.44197 0.0
O924 O 0.07692 0.33626 0.43787 0.0
C925 C 0.2351 0.35739 0.38963 0.0
C926 C 0.27474 0.32573 0.38705 0.0
C927 C 0.2654 0.35578 0.38403 0.0
N928 N 0.22696 0.32957 0.39556 0.0
N929 N 0.2507 0.31071 0.39393 0.0
C930 C 0.21492 0.38531 0.39071 0.0
H931 H 0.19876 0.38321 0.40141 0.0
H932 H 0.22895 0.40652 0.39221 0.0
H933 H 0.20112 0.38725 0.37907 0.0
C934 C 0.17262 0.30707 0.453 0.0
N935 N 0.16454 0.31024 0.43686 0.0
N936 N 0.18795 0.3216 0.42841 0.0
C937 C 0.21094 0.32831 0.43911 0.0
C938 C 0.20256 0.31854 0.45513 0.0
C939 C 0.15369 0.28899 0.46522 0.0
H940 H 0.1377 0.27331 0.45855 0.0
H941 H 0.13976 0.30508 0.47291 0.0
H942 H 0.16863 0.27506 0.47357 0.0
O943 O 0.13938 0.26047 0.41249 0.0
O944 O 0.18069 0.27407 0.39771 0.0
H945 H 0.25644 0.3286 0.42865 0.0
H946 H 0.25024 0.35727 0.44478 0.0
C947 C 0.23963 0.34514 0.43402 0.0
H948 H 0.23399 0.36251 0.42436 0.0
H949 H 0.25051 0.28764 0.39761 0.0
O950 O 0.09271 0.2875 0.43901 0.0
C951 C 0.16053 0.25419 0.40202 0.0
Co952 Co 0.45281 0.6127 0.31481 0.0
Co953 Co 0.42602 0.55464 0.33288 0.0
C954 C 0.39984 0.61584 0.33984 0.0
O955 O 0.41909 0.62768 0.32963 0.0
O956 O 0.39919 0.58693 0.34265 0.0
C957 C 0.44851 0.6685 0.29581 0.0
O958 O 0.41862 0.6648 0.29775 0.0
C959 C 0.38984 0.50319 0.34777 0.0
C960 C 0.42244 0.46472 0.34364 0.0
C961 C 0.39387 0.47176 0.35035 0.0
N962 N 0.41489 0.51406 0.33976 0.0
N963 N 0.43421 0.49093 0.33735 0.0
C964 C 0.36392 0.52308 0.3538 0.0
H965 H 0.37341 0.54393 0.35992 0.0
H966 H 0.34999 0.5307 0.34292 0.0
H967 H 0.3489 0.51079 0.36283 0.0
C968 C 0.44008 0.57537 0.28508 0.0
N969 N 0.43924 0.58001 0.30165 0.0
N970 N 0.42546 0.5567 0.309 0.0
C971 C 0.41524 0.53716 0.29714 0.0
C972 C 0.42448 0.5481 0.28148 0.0
C973 C 0.45861 0.59511 0.27343 0.0
H974 H 0.47818 0.60583 0.28019 0.0
H975 H 0.44372 0.61374 0.26842 0.0
H976 H 0.46797 0.58143 0.26288 0.0
O977 O 0.48823 0.59981 0.32808 0.0
O978 O 0.4685 0.56052 0.34225 0.0
H979 H 0.41 0.48975 0.30385 0.0
H980 H 0.38042 0.50407 0.28995 0.0
C981 C 0.39522 0.50986 0.30082 0.0
H982 H 0.38027 0.51471 0.31175 0.0
H983 H 0.45562 0.49313 0.33149 0.0
O984 O 0.46677 0.64806 0.30138 0.0
C985 C 0.4908 0.57861 0.33892 0.0
Co986 Co 0.13414 0.72079 0.07332 0.0
Co987 Co 0.18212 0.68051 0.09236 0.0
C988 C 0.11814 0.67087 0.09942 0.0
O989 O 0.11297 0.69361 0.08974 0.0
O990 O 0.14514 0.65993 0.10139 0.0
C991 C 0.08293 0.71797 0.05212 0.0
O992 O 0.08883 0.68842 0.05373 0.0
C993 C 0.22644 0.63413 0.10531 0.0
C994 C 0.26921 0.66194 0.10455 0.0
C995 C 0.25806 0.6328 0.10821 0.0
N996 N 0.2195 0.66276 0.10006 0.0
N997 N 0.2451 0.67927 0.09982 0.0
C998 C 0.20367 0.60824 0.10606 0.0
H999 H 0.18358 0.61309 0.09789 0.0
H1000 H 0.21466 0.58625 0.10223 0.0
H1001 H 0.19526 0.60576 0.11909 0.0
C1002 C 0.16952 0.69885 0.04435 0.0
N1003 N 0.16332 0.69918 0.06079 0.0
N1004 N 0.18201 0.68025 0.06859 0.0
C1005 C 0.1998 0.66587 0.05721 0.0
C1006 C 0.19281 0.67744 0.0414 0.0
C1007 C 0.15568 0.7212 0.03221 0.0
H1008 H 0.14778 0.74223 0.03881 0.0
H1009 H 0.13547 0.71035 0.02606 0.0
H1010 H 0.17265 0.72786 0.02247 0.0
O1011 O 0.1537 0.75378 0.08591 0.0
O1012 O 0.1825 0.7234 0.10184 0.0
H1013 H 0.24362 0.6503 0.06616 0.0
H1014 H 0.22663 0.62576 0.05036 0.0
C1015 C 0.22171 0.64036 0.06142 0.0
H1016 H 0.21163 0.62568 0.07133 0.0
H1017 H 0.2462 0.70224 0.096 0.0
O1018 O 0.10092 0.7373 0.05901 0.0
C1019 C 0.17187 0.74997 0.09821 0.0
Co1020 Co 0.03984 0.38652 0.81946 0.0
Co1021 Co 0.06601 0.44351 0.83863 0.0
C1022 C 0.09012 0.38067 0.8455 0.0
O1023 O 0.07215 0.3693 0.83449 0.0
O1024 O 0.0904 0.40946 0.84868 0.0
C1025 C 0.04067 0.33348 0.79756 0.0
O1026 O 0.07083 0.33403 0.79924 0.0
C1027 C 0.10804 0.49204 0.85138 0.0
C1028 C 0.07657 0.53211 0.8513 0.0
C1029 C 0.10676 0.52353 0.85458 0.0
N1030 N 0.07989 0.48269 0.84638 0.0
N1031 N 0.06118 0.50671 0.84653 0.0
C1032 C 0.13593 0.47172 0.85144 0.0
H1033 H 0.13278 0.45221 0.84265 0.0
H1034 H 0.15688 0.48495 0.84792 0.0
H1035 H 0.13923 0.46219 0.86418 0.0
C1036 C 0.05559 0.42409 0.79037 0.0
N1037 N 0.05501 0.41936 0.80694 0.0
N1038 N 0.06833 0.44251 0.81466 0.0
C1039 C 0.07951 0.46214 0.80302 0.0
C1040 C 0.07172 0.45112 0.78718 0.0
C1041 C 0.0376 0.40502 0.77817 0.0
H1042 H 0.0164 0.39596 0.78417 0.0
H1043 H 0.05195 0.3853 0.774 0.0
H1044 H 0.03064 0.41871 0.76709 0.0
O1045 O 0.00426 0.39985 0.8324 0.0
O1046 O 0.02236 0.43929 0.84704 0.0
H1047 H 0.08334 0.50876 0.81137 0.0
H1048 H 0.11206 0.49778 0.79604 0.0
C1049 C 0.09863 0.48988 0.80704 0.0
H1050 H 0.11499 0.48426 0.8172 0.0
H1051 H 0.03803 0.50588 0.84296 0.0
O1052 O 0.02437 0.35356 0.80495 0.0
C1053 C 0.00047 0.42107 0.84309 0.0
Co1054 Co 0.36091 0.27746 0.57238 0.0
Co1055 Co 0.30496 0.29965 0.59437 0.0
C1056 C 0.36542 0.33019 0.59729 0.0
O1057 O 0.37695 0.31261 0.58615 0.0
O1058 O 0.33734 0.32785 0.60171 0.0
C1059 C 0.41461 0.28426 0.5517 0.0
O1060 O 0.4104 0.31371 0.55474 0.0
C1061 C 0.25774 0.33741 0.61121 0.0
C1062 C 0.21767 0.30587 0.61096 0.0
C1063 C 0.22678 0.33528 0.61552 0.0
N1064 N 0.26633 0.31067 0.60412 0.0
N1065 N 0.24235 0.29183 0.60417 0.0
C1066 C 0.27942 0.36358 0.6145 0.0
H1067 H 0.28749 0.37331 0.60244 0.0
H1068 H 0.26867 0.38192 0.62217 0.0
H1069 H 0.29986 0.35482 0.62133 0.0
C1070 C 0.3146 0.28698 0.54549 0.0
N1071 N 0.32368 0.28798 0.56156 0.0
N1072 N 0.30161 0.30018 0.57065 0.0
C1073 C 0.27868 0.30959 0.56054 0.0
C1074 C 0.28557 0.3009 0.54416 0.0
C1075 C 0.33262 0.27064 0.53222 0.0
H1076 H 0.34734 0.25253 0.53789 0.0
H1077 H 0.34789 0.28739 0.52577 0.0
H1078 H 0.31701 0.25981 0.52293 0.0
O1079 O 0.35403 0.24218 0.58719 0.0
O1080 O 0.3155 0.25806 0.60333 0.0
H1081 H 0.23365 0.31535 0.57112 0.0
H1082 H 0.24413 0.34468 0.55606 0.0
C1083 C 0.2528 0.32984 0.56633 0.0
H1084 H 0.26091 0.34501 0.57655 0.0
H1085 H 0.24273 0.26955 0.59928 0.0
O1086 O 0.39468 0.26503 0.55693 0.0
C1087 C 0.33537 0.2378 0.59922 0.0
H1088 H 0.16926 0.2445 0.36911 0.0
H1089 H 0.14555 0.19839 0.41508 0.0
H1090 H 0.12968 0.1526 0.39949 0.0
H1091 H 0.11412 0.12969 0.37276 0.0
H1092 H 0.13141 0.17896 0.32689 0.0
H1093 H 0.15856 0.21927 0.34231 0.0
C1094 C 0.16155 0.22402 0.37568 0.0
C1095 C 0.15852 0.22463 0.39314 0.0
C1096 C 0.15082 0.19855 0.3666 0.0
C1097 C 0.14799 0.19828 0.4016 0.0
C1098 C 0.13876 0.17223 0.39269 0.0
C1099 C 0.12458 0.14885 0.36614 0.0
C1100 C 0.12067 0.15157 0.34879 0.0
C1101 C 0.13878 0.17265 0.37517 0.0
C1102 C 0.13397 0.17662 0.3403 0.0
C1103 C 0.14942 0.19967 0.3491 0.0
H1104 H 0.05392 0.90156 0.64676 0.0
H1105 H 0.99322 0.91104 0.60443 0.0
H1106 H 0.03366 0.8913 0.58589 0.0
H1107 H 0.08368 0.86446 0.58261 0.0
H1108 H 0.14493 0.85744 0.62496 0.0
H1109 H 0.10705 0.88338 0.64258 0.0
C1110 C 0.04993 0.90012 0.63339 0.0
C1111 C 0.02073 0.9075 0.62693 0.0
C1112 C 0.0732 0.88875 0.62288 0.0
C1113 C 0.01568 0.90569 0.60963 0.0
C1114 C 0.03866 0.89407 0.59907 0.0
C1115 C 0.08887 0.8691 0.59563 0.0
C1116 C 0.11681 0.85857 0.60255 0.0
C1117 C 0.0671 0.88442 0.60568 0.0
C1118 C 0.12353 0.86518 0.61935 0.0
C1119 C 0.10184 0.87992 0.62946 0.0
H1120 H 0.33481 0.73811 0.87341 0.0
H1121 H 0.35235 0.78928 0.91857 0.0
H1122 H 0.36181 0.83595 0.90227 0.0
H1123 H 0.37252 0.86003 0.87517 0.0
H1124 H 0.36078 0.80732 0.82995 0.0
H1125 H 0.34122 0.7637 0.84614 0.0
C1126 C 0.33992 0.7597 0.87964 0.0
C1127 C 0.34294 0.76036 0.89711 0.0
C1128 C 0.34673 0.7861 0.87013 0.0
C1129 C 0.35004 0.7883 0.9051 0.0
C1130 C 0.35554 0.81493 0.89579 0.0
C1131 C 0.36493 0.83928 0.86884 0.0
C1132 C 0.36818 0.83683 0.85142 0.0
C1133 C 0.35505 0.81383 0.87828 0.0
C1134 C 0.35863 0.80966 0.84338 0.0
C1135 C 0.34755 0.78468 0.85263 0.0
H1136 H 0.36658 0.112 0.11662 0.0
H1137 H 0.424 0.12482 0.07311 0.0
H1138 H 0.46587 0.09644 0.08658 0.0
H1139 H 0.48892 0.07613 0.11241 0.0
H1140 H 0.43367 0.07 0.15703 0.0
H1141 H 0.38802 0.08681 0.14148 0.0
C1142 C 0.38799 0.10787 0.10994 0.0
C1143 C 0.39234 0.12066 0.09397 0.0
C1144 C 0.41243 0.09282 0.11806 0.0
C1145 C 0.42026 0.11541 0.08549 0.0
C1146 C 0.44421 0.09924 0.0932 0.0
C1147 C 0.46657 0.07742 0.1185 0.0
C1148 C 0.46433 0.07159 0.13571 0.0
C1149 C 0.44099 0.08895 0.10972 0.0
C1150 C 0.43563 0.07412 0.14371 0.0
C1151 C 0.40967 0.084 0.13487 0.0
H1152 H 0.16562 0.81127 0.09233 0.0
H1153 H 0.18466 0.74558 0.13149 0.0
H1154 H 0.17247 0.78421 0.15259 0.0
H1155 H 0.14499 0.83215 0.15936 0.0
H1156 H 0.12512 0.89739 0.12006 0.0
H1157 H 0.14978 0.86383 0.0997 0.0
C1158 C 0.16804 0.80572 0.10549 0.0
C1159 C 0.17514 0.77542 0.11034 0.0
C1160 C 0.16038 0.82785 0.11756 0.0
C1161 C 0.17888 0.76867 0.12741 0.0
C1162 C 0.17163 0.79069 0.13951 0.0
C1163 C 0.14689 0.83944 0.14643 0.0
C1164 C 0.13244 0.86679 0.14118 0.0
C1165 C 0.16056 0.81971 0.13468 0.0
C1166 C 0.13571 0.87629 0.12445 0.0
C1167 C 0.1496 0.85696 0.11273 0.0
H1168 H 0.49759 0.90965 0.37582 0.0
H1169 H 0.44756 0.91723 0.32952 0.0
H1170 H 0.39935 0.90425 0.34383 0.0
H1171 H 0.374 0.88088 0.36814 0.0
H1172 H 0.42582 0.86677 0.41353 0.0
H1173 H 0.47052 0.89242 0.40117 0.0
C1174 C 0.47586 0.90964 0.36908 0.0
C1175 C 0.47582 0.9146 0.35176 0.0
C1176 C 0.44868 0.90026 0.3772 0.0
C1177 C 0.44785 0.91374 0.34294 0.0
C1178 C 0.42041 0.90601 0.35108 0.0
C1179 C 0.39479 0.8842 0.37547 0.0
C1180 C 0.39676 0.87165 0.39163 0.0
C1181 C 0.42086 0.8977 0.36802 0.0
C1182 C 0.4239 0.87594 0.40097 0.0
C1183 C 0.44949 0.89055 0.39391 0.0
H1184 H 0.37915 0.14827 0.65546 0.0
H1185 H 0.4085 0.09562 0.61261 0.0
H1186 H 0.38198 0.1316 0.594 0.0
H1187 H 0.35677 0.18179 0.58991 0.0
H1188 H 0.32588 0.23356 0.63276 0.0
H1189 H 0.34605 0.19378 0.65143 0.0
C1190 C 0.37923 0.14445 0.64206 0.0
C1191 C 0.39613 0.11976 0.63535 0.0
C1192 C 0.36377 0.16507 0.63147 0.0
C1193 C 0.3957 0.11459 0.61803 0.0
C1194 C 0.38069 0.13522 0.60739 0.0
C1195 C 0.35384 0.18396 0.60333 0.0
C1196 C 0.34032 0.21069 0.60999 0.0
C1197 C 0.36556 0.16109 0.61396 0.0
C1198 C 0.33623 0.21315 0.62736 0.0
C1199 C 0.34801 0.19056 0.63803 0.0
H1200 H 0.11276 0.11341 0.87373 0.0
H1201 H 0.04984 0.13436 0.91398 0.0
H1202 H 0.00772 0.10978 0.89871 0.0
H1203 H 0.98711 0.09109 0.87192 0.0
H1204 H 0.04905 0.07626 0.8306 0.0
H1205 H 0.09328 0.08882 0.84832 0.0
C1206 C 0.09002 0.11192 0.87935 0.0
C1207 C 0.08434 0.12608 0.89485 0.0
C1208 C 0.06563 0.09891 0.87021 0.0
C1209 C 0.05471 0.12398 0.90195 0.0
C1210 C 0.03059 0.10996 0.89322 0.0
C1211 C 0.01043 0.08949 0.86705 0.0
C1212 C 0.01504 0.08263 0.8501 0.0
C1213 C 0.03549 0.09856 0.87704 0.0
C1214 C 0.04517 0.08132 0.84369 0.0
C1215 C 0.07037 0.08878 0.85377 0.0
H1216 H 0.83953 0.79249 0.58997 0.0
H1217 H 0.84054 0.72755 0.63069 0.0
H1218 H 0.85863 0.76788 0.64976 0.0
H1219 H 0.88187 0.81945 0.65347 0.0
H1220 H 0.87883 0.88452 0.61267 0.0
H1221 H 0.85328 0.84652 0.59508 0.0
C1222 C 0.84281 0.78753 0.60315 0.0
C1223 C 0.839 0.75731 0.60899 0.0
C1224 C 0.85322 0.81071 0.61394 0.0
C1225 C 0.84318 0.75085 0.62603 0.0
C1226 C 0.85383 0.77379 0.63686 0.0
C1227 C 0.87502 0.82545 0.64084 0.0
C1228 C 0.88274 0.85452 0.63428 0.0
C1229 C 0.86015 0.80348 0.63077 0.0
C1230 C 0.87329 0.86225 0.618 0.0
C1231 C 0.85881 0.84048 0.60788 0.0
H1232 H 0.99451 0.09922 0.37359 0.0
H1233 H 0.95 0.10741 0.32564 0.0
H1234 H 0.90163 0.12211 0.33924 0.0
H1235 H 0.8745 0.13981 0.36436 0.0
H1236 H 0.92132 0.13865 0.41188 0.0
H1237 H 0.96604 0.11362 0.39905 0.0
C1238 C 0.97394 0.10348 0.36622 0.0
C1239 C 0.97558 0.10221 0.34871 0.0
C1240 C 0.94673 0.11347 0.37408 0.0
C1241 C 0.94909 0.10833 0.33917 0.0
C1242 C 0.92152 0.1168 0.34693 0.0
C1243 C 0.89418 0.13327 0.37196 0.0
C1244 C 0.89471 0.14088 0.389 0.0
C1245 C 0.92038 0.12048 0.36432 0.0
C1246 C 0.92052 0.13293 0.3987 0.0
C1247 C 0.9461 0.11878 0.39136 0.0
H1248 H 0.61188 0.16033 0.15561 0.0
H1249 H 0.60353 0.09726 0.11417 0.0
H1250 H 0.63183 0.13287 0.09623 0.0
H1251 H 0.6525 0.18476 0.0914 0.0
H1252 H 0.66315 0.24728 0.13278 0.0
H1253 H 0.64114 0.20882 0.15181 0.0
C1254 C 0.6167 0.15427 0.14272 0.0
C1255 C 0.60515 0.12654 0.13612 0.0
C1256 C 0.63341 0.17469 0.1325 0.0
C1257 C 0.61201 0.11859 0.1195 0.0
C1258 C 0.62813 0.13895 0.10922 0.0
C1259 C 0.65086 0.1895 0.10469 0.0
C1260 C 0.6592 0.21867 0.11074 0.0
C1261 C 0.63808 0.16743 0.11545 0.0
C1262 C 0.6571 0.22478 0.12793 0.0
C1263 C 0.64415 0.20296 0.13875 0.0
H1264 H 0.60891 0.86886 0.86499 0.0
H1265 H 0.56456 0.87988 0.91283 0.0
H1266 H 0.51857 0.90083 0.89919 0.0
H1267 H 0.4884 0.90814 0.87352 0.0
H1268 H 0.53054 0.88996 0.8257 0.0
H1269 H 0.58002 0.87993 0.83933 0.0
C1270 C 0.58949 0.87676 0.8724 0.0
C1271 C 0.58998 0.87309 0.88983 0.0
C1272 C 0.56256 0.88697 0.86442 0.0
C1273 C 0.56455 0.88268 0.89937 0.0
C1274 C 0.53825 0.89443 0.89157 0.0
C1275 C 0.50863 0.90266 0.8661 0.0
C1276 C 0.50596 0.89964 0.84869 0.0
C1277 C 0.53655 0.8955 0.87408 0.0
C1278 C 0.53214 0.89217 0.83916 0.0
C1279 C 0.56037 0.88643 0.84694 0.0
H1280 H 0.87742 0.13305 0.86315 0.0
H1281 H 0.89373 0.1925 0.82084 0.0
H1282 H 0.87158 0.23604 0.83607 0.0
H1283 H 0.85391 0.25859 0.86271 0.0
H1284 H 0.84387 0.20016 0.90589 0.0
H1285 H 0.85665 0.15482 0.88909 0.0
C1286 C 0.87548 0.15538 0.85714 0.0
C1287 C 0.88722 0.15959 0.84092 0.0
C1288 C 0.86396 0.18057 0.86622 0.0
C1289 C 0.88496 0.18875 0.83336 0.0
C1290 C 0.87235 0.21366 0.84207 0.0
C1291 C 0.85372 0.23576 0.86824 0.0
C1292 C 0.84768 0.23244 0.88538 0.0
C1293 C 0.86267 0.21007 0.85869 0.0
C1294 C 0.84825 0.20301 0.89265 0.0
C1295 C 0.85572 0.17718 0.88308 0.0
H1296 H 0.63101 0.13055 0.62145 0.0
H1297 H 0.58199 0.11423 0.57542 0.0
H1298 H 0.54323 0.08392 0.59043 0.0
H1299 H 0.51945 0.06886 0.61704 0.0
H1300 H 0.56446 0.09204 0.66337 0.0
H1301 H 0.60891 0.11235 0.64798 0.0
C1302 C 0.61223 0.11966 0.61469 0.0
C1303 C 0.60925 0.12445 0.59741 0.0
C1304 C 0.58922 0.10372 0.62353 0.0
C1305 C 0.58459 0.11081 0.58877 0.0
C1306 C 0.56244 0.09358 0.59734 0.0
C1307 C 0.53943 0.07754 0.62372 0.0
C1308 C 0.53896 0.07882 0.64125 0.0
C1309 C 0.56394 0.09081 0.61479 0.0
C1310 C 0.56453 0.09077 0.64985 0.0
C1311 C 0.5898 0.10252 0.64105 0.0
H1312 H 0.63957 0.78487 0.40375 0.0
H1313 H 0.65115 0.72127 0.36289 0.0
H1314 H 0.63824 0.762 0.34288 0.0
H1315 H 0.6169 0.81374 0.33755 0.0
H1316 H 0.60796 0.87802 0.37836 0.0
H1317 H 0.62712 0.83915 0.39789 0.0
C1318 C 0.63991 0.78022 0.39043 0.0
C1319 C 0.64589 0.75022 0.38473 0.0
C1320 C 0.63273 0.80374 0.37906 0.0
C1321 C 0.64666 0.74431 0.36749 0.0
C1322 C 0.63906 0.76749 0.35608 0.0
C1323 C 0.61977 0.81935 0.35068 0.0
C1324 C 0.61063 0.84843 0.3566 0.0
C1325 C 0.63103 0.797 0.36179 0.0
C1326 C 0.61482 0.85572 0.37355 0.0
C1327 C 0.62558 0.83346 0.38472 0.0
H1328 H 0.96307 0.92411 0.13421 0.0
H1329 H 0.01512 0.83958 0.13079 0.0
H1330 H 0.97759 0.8185 0.11129 0.0
H1331 H 0.92964 0.823 0.09609 0.0
H1332 H 0.87365 0.90467 0.10086 0.0
H1333 H 0.913 0.92808 0.11898 0.0
C1334 C 0.96607 0.90118 0.12909 0.0
C1335 C 0.99167 0.88334 0.13388 0.0
C1336 C 0.94377 0.88872 0.11821 0.0
C1337 C 0.99538 0.85356 0.12735 0.0
C1338 C 0.97403 0.84153 0.11618 0.0
C1339 C 0.92609 0.84608 0.10093 0.0
C1340 C 0.89899 0.86224 0.09702 0.0
C1341 C 0.94809 0.85878 0.11164 0.0
C1342 C 0.89446 0.89185 0.10368 0.0
C1343 C 0.91691 0.90518 0.11403 0.0
H1344 H 0.64523 0.70515 0.89857 0.0
H1345 H 0.65333 0.76772 0.85694 0.0
H1346 H 0.63741 0.72687 0.8377 0.0
H1347 H 0.6143 0.67547 0.83347 0.0
H1348 H 0.60851 0.61246 0.87511 0.0
H1349 H 0.63083 0.6512 0.89356 0.0
C1350 C 0.64417 0.70956 0.88523 0.0
C1351 C 0.65002 0.73934 0.87915 0.0
C1352 C 0.63512 0.68601 0.87429 0.0
C1353 C 0.64896 0.74487 0.86186 0.0
C1354 C 0.63961 0.72162 0.85089 0.0
C1355 C 0.61848 0.67009 0.84652 0.0
C1356 C 0.6093 0.64139 0.85298 0.0
C1357 C 0.63156 0.69242 0.85706 0.0
C1358 C 0.61528 0.63445 0.86984 0.0
C1359 C 0.62789 0.65664 0.88043 0.0
H1360 H 0.57842 0.36157 0.08279 0.0
H1361 H 0.64257 0.36036 0.12404 0.0
H1362 H 0.6055 0.38775 0.14148 0.0
H1363 H 0.5519 0.40398 0.14628 0.0
H1364 H 0.48815 0.40722 0.10502 0.0
H1365 H 0.52817 0.38772 0.08616 0.0
C1366 C 0.58447 0.36793 0.09548 0.0
C1367 C 0.61286 0.35841 0.10224 0.0
C1368 C 0.56308 0.38388 0.10544 0.0
C1369 C 0.62074 0.36725 0.11859 0.0
C1370 C 0.59951 0.38278 0.12861 0.0
C1371 C 0.54718 0.40134 0.13304 0.0
C1372 C 0.51727 0.40667 0.12699 0.0
C1373 C 0.57019 0.39007 0.12236 0.0
C1374 C 0.51118 0.40337 0.10986 0.0
C1375 C 0.53393 0.3919 0.09914 0.0
H1376 H 0.83861 0.3111 0.39381 0.0
H1377 H 0.83316 0.24575 0.35338 0.0
H1378 H 0.84882 0.28565 0.33349 0.0
H1379 H 0.87262 0.33642 0.32872 0.0
H1380 H 0.87674 0.40207 0.36914 0.0
H1381 H 0.8522 0.36504 0.38785 0.0
C1382 C 0.84012 0.3059 0.38057 0.0
C1383 C 0.83534 0.27561 0.37502 0.0
C1384 C 0.84907 0.32891 0.36926 0.0
C1385 C 0.83684 0.269 0.35787 0.0
C1386 C 0.846 0.29173 0.34654 0.0
C1387 C 0.86738 0.34285 0.34151 0.0
C1388 C 0.87706 0.37161 0.34765 0.0
C1389 C 0.85345 0.32138 0.35223 0.0
C1390 C 0.86968 0.37997 0.36414 0.0
C1391 C 0.85588 0.35872 0.3749 0.0
H1392 H 0.93082 0.62469 0.58098 0.0
H1393 H 0.8606 0.61122 0.6186 0.0
H1394 H 0.8979 0.5857 0.63666 0.0
H1395 H 0.95217 0.57567 0.64366 0.0
H1396 H 0.02237 0.58733 0.60607 0.0
H1397 H 0.98336 0.60456 0.58596 0.0
C1398 C 0.92356 0.61554 0.59297 0.0
C1399 C 0.89317 0.6205 0.59859 0.0
C1400 C 0.94516 0.60076 0.60334 0.0
C1401 C 0.88391 0.608 0.61402 0.0
C1402 C 0.90527 0.59351 0.62442 0.0
C1403 C 0.95865 0.58099 0.63088 0.0
C1404 C 0.98989 0.58052 0.62629 0.0
C1405 C 0.93619 0.59098 0.61949 0.0
C1406 C -0.00169 0.58737 0.60976 0.0
C1407 C 0.97607 0.59755 0.59835 0.0
H1408 H 0.65545 0.24388 0.62565 0.0
H1409 H 0.65483 0.29938 0.58099 0.0
H1410 H 0.6409 0.34491 0.59734 0.0
H1411 H 0.62088 0.36647 0.62332 0.0
H1412 H 0.61428 0.30926 0.66729 0.0
H1413 H 0.63949 0.26695 0.65242 0.0
C1414 C 0.65308 0.2662 0.61966 0.0
C1415 C 0.65617 0.2686 0.60226 0.0
C1416 C 0.64339 0.29178 0.62901 0.0
C1417 C 0.65252 0.29728 0.59443 0.0
C1418 C 0.64445 0.32318 0.60374 0.0
C1419 C 0.62568 0.34502 0.62978 0.0
C1420 C 0.61561 0.34086 0.64631 0.0
C1421 C 0.63863 0.3204 0.62091 0.0
C1422 C 0.62168 0.31286 0.6545 0.0
C1423 C 0.63597 0.28866 0.64599 0.0
H1424 H 0.99358 0.42254 0.87657 0.0
H1425 H 0.94261 0.41693 0.83047 0.0
H1426 H 0.89635 0.40092 0.8457 0.0
H1427 H 0.87395 0.37881 0.87125 0.0
H1428 H 0.92745 0.37817 0.91668 0.0
H1429 H 0.96884 0.4066 0.90282 0.0
C1430 C 0.97197 0.41895 0.87 0.0
C1431 C 0.97129 0.42097 0.8525 0.0
C1432 C 0.94607 0.40795 0.87873 0.0
C1433 C 0.94347 0.41559 0.84399 0.0
C1434 C 0.91714 0.40618 0.85267 0.0
C1435 C 0.89429 0.38573 0.87821 0.0
C1436 C 0.89783 0.37621 0.89488 0.0
C1437 C 0.91863 0.40078 0.86993 0.0
C1438 C 0.9244 0.38502 0.90376 0.0
C1439 C 0.9481 0.40121 0.89583 0.0
H1440 H 0.84283 0.70108 0.07969 0.0
H1441 H 0.81332 0.76339 0.11853 0.0
H1442 H 0.82231 0.72365 0.13957 0.0
H1443 H 0.84723 0.67473 0.14719 0.0
H1444 H 0.8763 0.61223 0.10833 0.0
H1445 H 0.85823 0.64825 0.08705 0.0
C1446 C 0.83765 0.70568 0.09271 0.0
C1447 C 0.82805 0.7353 0.09758 0.0
C1448 C 0.84312 0.68282 0.10477 0.0
C1449 C 0.8209 0.74083 0.11446 0.0
C1450 C 0.82626 0.71818 0.12652 0.0
C1451 C 0.84892 0.66869 0.13406 0.0
C1452 C 0.86367 0.64118 0.12934 0.0
C1453 C 0.83871 0.68962 0.12188 0.0
C1454 C 0.86521 0.63335 0.11231 0.0
C1455 C 0.85509 0.65406 0.10011 0.0
H1456 H 0.6163 0.6119 0.37205 0.0
H1457 H 0.55843 0.61034 0.41588 0.0
H1458 H 0.51696 0.58605 0.39988 0.0
H1459 H 0.49427 0.57434 0.37246 0.0
H1460 H 0.5499 0.58345 0.32808 0.0
H1461 H 0.59529 0.5951 0.34513 0.0
C1462 C 0.59495 0.60534 0.37818 0.0
C1463 C 0.59028 0.6129 0.39506 0.0
C1464 C 0.57066 0.59307 0.36869 0.0
C1465 C 0.56239 0.60479 0.40286 0.0
C1466 C 0.53866 0.59106 0.3937 0.0
C1467 C 0.5166 0.5779 0.36662 0.0
C1468 C 0.51897 0.57802 0.34913 0.0
C1469 C 0.54206 0.58639 0.37645 0.0
C1470 C 0.54774 0.58327 0.34158 0.0
C1471 C 0.57358 0.59008 0.35131 0.0
H1472 H 0.38066 0.3165 0.15404 0.0
H1473 H 0.37366 0.38384 0.11448 0.0
H1474 H 0.34719 0.34654 0.09686 0.0
H1475 H 0.33364 0.29267 0.09114 0.0
H1476 H 0.33867 0.22541 0.13065 0.0
H1477 H 0.35773 0.26486 0.14998 0.0
C1478 C 0.37276 0.32313 0.14169 0.0
C1479 C 0.37962 0.35268 0.13547 0.0
C1480 C 0.35735 0.30156 0.13159 0.0
C1481 C 0.36882 0.3612 0.11955 0.0
C1482 C 0.3538 0.33983 0.10941 0.0
C1483 C 0.33801 0.28698 0.10414 0.0
C1484 C 0.33506 0.25636 0.10952 0.0
C1485 C 0.34901 0.30967 0.11507 0.0
C1486 C 0.34064 0.249 0.12633 0.0
C1487 C 0.35185 0.27145 0.13731 0.0
H1488 H 0.49865 0.57676 0.87841 0.0
H1489 H 0.4434 0.58449 0.83386 0.0
H1490 H 0.39856 0.59944 0.8506 0.0
H1491 H 0.37802 0.6186 0.87719 0.0
H1492 H 0.4357 0.61764 0.92111 0.0
H1493 H 0.47652 0.59152 0.90551 0.0
C1494 C 0.47648 0.58076 0.8725 0.0
C1495 C 0.47405 0.57942 0.85503 0.0
C1496 C 0.45144 0.59112 0.88209 0.0
C1497 C 0.44555 0.58531 0.84734 0.0
C1498 C 0.42005 0.59406 0.85689 0.0
C1499 C 0.39925 0.61198 0.88342 0.0
C1500 C 0.40401 0.62017 0.9002 0.0
C1501 C 0.42311 0.59831 0.87418 0.0
C1502 C 0.4317 0.61178 0.90813 0.0
C1503 C 0.45503 0.59689 0.89922 0.0
H1504 H 0.16565 0.74184 0.62674 0.0
H1505 H 0.17406 0.68828 0.58169 0.0
H1506 H 0.1573 0.64197 0.59664 0.0
H1507 H 0.13194 0.6192 0.62115 0.0
H1508 H 0.11678 0.67486 0.66501 0.0
H1509 H 0.14469 0.71768 0.65213 0.0
C1510 C 0.16479 0.71974 0.62042 0.0
C1511 C 0.1713 0.71815 0.60327 0.0
C1512 C 0.15334 0.69374 0.62885 0.0
C1513 C 0.16936 0.68975 0.59497 0.0
C1514 C 0.15955 0.6634 0.60347 0.0
C1515 C 0.13547 0.64045 0.62802 0.0
C1516 C 0.12224 0.644 0.64394 0.0
C1517 C 0.15022 0.66544 0.62022 0.0
C1518 C 0.12661 0.67174 0.65267 0.0
C1519 C 0.1425 0.69623 0.64531 0.0
H1520 H 0.07485 0.37671 0.40443 0.0
H1521 H 0.13731 0.35507 0.3641 0.0
H1522 H 0.10179 0.37801 0.34399 0.0
H1523 H 0.0504 0.39882 0.33757 0.0
H1524 H 0.9892 0.42372 0.37783 0.0
H1525 H 0.02694 0.4054 0.39832 0.0
C1526 C 0.08081 0.3775 0.39127 0.0
C1527 C 0.10835 0.36387 0.3857 0.0
C1528 C 0.0605 0.39119 0.37978 0.0
C1529 C 0.11616 0.36539 0.36867 0.0
C1530 C 0.09582 0.37837 0.35714 0.0
C1531 C 0.0457 0.4008 0.35085 0.0
C1532 C 0.01713 0.41225 0.35626 0.0
C1533 C 0.06757 0.39055 0.36251 0.0
C1534 C 0.01121 0.41505 0.37345 0.0
C1535 C 0.03264 0.40435 0.38514 0.0
H1536 H 0.37656 0.67124 0.33046 0.0
H1537 H 0.38013 0.60756 0.37183 0.0
H1538 H 0.35734 0.64635 0.39021 0.0
H1539 H 0.34311 0.70047 0.39523 0.0
H1540 H 0.33735 0.76358 0.35373 0.0
H1541 H 0.35384 0.72278 0.33457 0.0
C1542 C 0.37177 0.66571 0.34343 0.0
C1543 C 0.38042 0.6368 0.34987 0.0
C1544 C 0.3585 0.68806 0.35389 0.0
C1545 C 0.37371 0.62968 0.36661 0.0
C1546 C 0.36087 0.65191 0.37714 0.0
C1547 C 0.34483 0.70503 0.38193 0.0
C1548 C 0.33944 0.73496 0.37587 0.0
C1549 C 0.35417 0.68148 0.37104 0.0
C1550 C 0.34135 0.74065 0.35863 0.0
C1551 C 0.35101 0.71741 0.34772 0.0
H1552 H 0.09852 0.61177 0.10506 0.0
H1553 H 0.08081 0.70686 0.11741 0.0
H1554 H 0.03645 0.69185 0.13425 0.0
H1555 H 0.00126 0.65274 0.14407 0.0
H1556 H 0.0144 0.55757 0.1302 0.0
H1557 H 0.06205 0.57145 0.11534 0.0
C1558 C 0.08497 0.62898 0.11159 0.0
C1559 C 0.09268 0.66031 0.11007 0.0
C1560 C 0.05871 0.62023 0.12085 0.0
C1561 C 0.07501 0.68263 0.11838 0.0
C1562 C 0.04972 0.67409 0.128 0.0
C1563 C 0.01462 0.63483 0.13797 0.0
C1564 C 0.00436 0.60414 0.1383 0.0
C1565 C 0.04115 0.64307 0.12912 0.0
C1566 C 0.02183 0.5814 0.13012 0.0
C1567 C 0.04903 0.58934 0.12162 0.0
H1568 H 0.14101 0.29548 0.90241 0.0
H1569 H 0.1508 0.23251 0.86111 0.0
H1570 H 0.13625 0.27337 0.84152 0.0
H1571 H 0.11393 0.32498 0.83676 0.0
H1572 H 0.10649 0.38848 0.87803 0.0
H1573 H 0.12734 0.3496 0.897 0.0
C1574 C 0.14065 0.29097 0.88907 0.0
C1575 C 0.14662 0.26106 0.88318 0.0
C1576 C 0.13237 0.31456 0.87793 0.0
C1577 C 0.14639 0.25543 0.8659 0.0
C1578 C 0.1378 0.27871 0.85473 0.0
C1579 C 0.11744 0.33044 0.84986 0.0
C1580 C 0.10825 0.35935 0.85605 0.0
C1581 C 0.12969 0.30804 0.86068 0.0
C1582 C 0.11332 0.36636 0.87297 0.0
C1583 C 0.12508 0.34408 0.88385 0.0
H1584 H 0.42024 0.35536 0.58746 0.0
H1585 H 0.35656 0.35084 0.62892 0.0
H1586 H 0.39377 0.37665 0.64685 0.0
H1587 H 0.4469 0.39371 0.65178 0.0
H1588 H 0.51042 0.40028 0.61048 0.0
H1589 H 0.47068 0.38099 0.59138 0.0
C1590 C 0.41436 0.36056 0.60034 0.0
C1591 C 0.38589 0.35078 0.60691 0.0
C1592 C 0.43588 0.37561 0.61063 0.0
C1593 C 0.37833 0.35806 0.62354 0.0
C1594 C 0.39967 0.37269 0.63386 0.0
C1595 C 0.4517 0.39163 0.63851 0.0
C1596 C 0.48143 0.39801 0.6325 0.0
C1597 C 0.42885 0.38059 0.62769 0.0
C1598 C 0.48754 0.39556 0.61532 0.0
C1599 C 0.46495 0.38426 0.60445 0.0
H1600 H 0.14688 0.96321 0.33975 0.0
H1601 H 0.12745 0.98305 0.39143 0.0
H1602 H 0.168 0.9472 0.40023 0.0
H1603 H 0.20685 0.90782 0.39315 0.0
H1604 H 0.22294 0.8846 0.34157 0.0
H1605 H 0.18621 0.92433 0.33266 0.0
C1606 C 0.15205 0.96005 0.3529 0.0
C1607 C 0.13475 0.97595 0.36497 0.0
C1608 C 0.17471 0.93876 0.35783 0.0
C1609 C 0.14076 0.97107 0.38199 0.0
C1610 C 0.16387 0.95062 0.387 0.0
C1611 C 0.20263 0.912 0.37998 0.0
C1612 C 0.21774 0.89393 0.36797 0.0
C1613 C 0.18074 0.93405 0.37503 0.0
C1614 C 0.21165 0.89864 0.35095 0.0
C1615 C 0.19064 0.92122 0.34588 0.0
H1616 H 0.35779 0.94888 0.64363 0.0
H1617 H 0.42402 0.92134 0.60619 0.0
H1618 H 0.38764 0.88345 0.59537 0.0
H1619 H 0.33695 0.85844 0.59634 0.0
H1620 H 0.2698 0.88741 0.63284 0.0
H1621 H 0.30625 0.92544 0.64387 0.0
C1622 C 0.36404 0.93542 0.63279 0.0
C1623 C 0.39342 0.93865 0.62549 0.0
C1624 C 0.34277 0.91401 0.62642 0.0
C1625 C 0.40152 0.9195 0.61202 0.0
C1626 C 0.3807 0.89787 0.60577 0.0
C1627 C 0.33032 0.87317 0.60668 0.0
C1628 C 0.30073 0.87046 0.61368 0.0
C1629 C 0.35128 0.89496 0.61286 0.0
C1630 C 0.2923 0.88958 0.62706 0.0
C1631 C 0.3132 0.91112 0.63344 0.0
H1632 H 0.30049 0.10656 0.89914 0.0
H1633 H 0.23423 0.08318 0.86108 0.0
H1634 H 0.26743 0.04096 0.85149 0.0
H1635 H 0.31701 0.01338 0.85286 0.0
H1636 H 0.38222 0.03614 0.89174 0.0
H1637 H 0.34784 0.07629 0.90198 0.0
C1638 C 0.29331 0.09204 0.88881 0.0
C1639 C 0.26512 0.09776 0.8808 0.0
C1640 C 0.31235 0.06788 0.88349 0.0
C1641 C 0.25579 0.07885 0.86751 0.0
C1642 C 0.27481 0.05488 0.86199 0.0
C1643 C 0.32332 0.02633 0.86389 0.0
C1644 C 0.35206 0.02139 0.87164 0.0
C1645 C 0.30332 0.04938 0.8698 0.0
C1646 C 0.36026 0.03946 0.88553 0.0
C1647 C 0.34063 0.06244 0.89141 0.0
H1648 H 0.17118 0.11505 0.09402 0.0
H1649 H 0.2385 0.0954 0.13221 0.0
H1650 H 0.20277 0.05906 0.14545 0.0
H1651 H 0.15159 0.03435 0.14659 0.0
H1652 H 0.08538 0.05248 0.10757 0.0
H1653 H 0.121 0.08894 0.09454 0.0
C1654 C 0.17803 0.10264 0.10519 0.0
C1655 C 0.20748 0.10745 0.11202 0.0
C1656 C 0.15746 0.08187 0.11266 0.0
C1657 C 0.21616 0.09145 0.12653 0.0
C1658 C 0.19566 0.07093 0.13417 0.0
C1659 C 0.14536 0.04558 0.13496 0.0
C1660 C 0.11632 0.04004 0.12775 0.0
C1661 C 0.16623 0.06599 0.12735 0.0
C1662 C 0.10778 0.05616 0.11325 0.0
C1663 C 0.12815 0.0769 0.10576 0.0
H1664 H 0.89134 0.06588 0.61029 0.0
H1665 H 0.82878 0.01263 0.64069 0.0
H1666 H 0.78664 0.04777 0.63378 0.0
H1667 H 0.76817 0.09504 0.62004 0.0
H1668 H 0.83144 0.14931 0.59057 0.0
H1669 H 0.87289 0.11283 0.59648 0.0
C1670 C 0.8684 0.06189 0.61528 0.0
C1671 C 0.86293 0.03619 0.62552 0.0
C1672 C 0.84451 0.08258 0.61158 0.0
C1673 C 0.83327 0.03151 0.63218 0.0
C1674 C 0.80926 0.05185 0.62843 0.0
C1675 C 0.79086 0.09853 0.61466 0.0
C1676 C 0.79664 0.12453 0.60467 0.0
C1677 C 0.81464 0.07752 0.61817 0.0
C1678 C 0.82645 0.12939 0.59828 0.0
C1679 C 0.85014 0.10853 0.60161 0.0
H1680 H 0.73487 0.09309 0.36231 0.0
H1681 H 0.66878 0.14821 0.38939 0.0
H1682 H 0.62864 0.11018 0.38397 0.0
H1683 H 0.61176 0.06223 0.37084 0.0
H1684 H 0.67675 0.00774 0.34275 0.0
H1685 H 0.71804 0.044 0.34964 0.0
C1686 C 0.71186 0.09643 0.3673 0.0
C1687 C 0.70489 0.12328 0.37637 0.0
C1688 C 0.68872 0.0745 0.36403 0.0
C1689 C 0.6747 0.12775 0.38232 0.0
C1690 C 0.65173 0.106 0.37928 0.0
C1691 C 0.63505 0.05817 0.36635 0.0
C1692 C 0.64136 0.03197 0.35668 0.0
C1693 C 0.65841 0.07945 0.37003 0.0
C1694 C 0.67152 0.02714 0.35075 0.0
C1695 C 0.69506 0.04811 0.3545 0.0
H1696 H 0.6446 0.97788 0.11414 0.0
H1697 H 0.60193 0.90535 0.14298 0.0
H1698 H 0.64095 0.86902 0.13334 0.0
H1699 H 0.68659 0.85761 0.11641 0.0
H1700 H 0.72999 0.9299 0.08788 0.0
H1701 H 0.69191 0.96701 0.09821 0.0
C1702 C 0.6443 0.9544 0.11871 0.0
C1703 C 0.6207 0.94452 0.12954 0.0
C1704 C 0.66702 0.93366 0.11324 0.0
C1705 C 0.6199 0.91356 0.13467 0.0
C1706 C 0.64224 0.89278 0.12922 0.0
C1707 C 0.6878 0.88157 0.11258 0.0
C1708 C 0.71121 0.89122 0.10165 0.0
C1709 C 0.6658 0.90255 0.11846 0.0
C1710 C 0.71257 0.92219 0.09665 0.0
C1711 C 0.69064 0.94329 0.10241 0.0
H1712 H 0.75994 0.92839 0.88134 0.0
H1713 H 0.79367 0.85383 0.85074 0.0
H1714 H 0.83156 0.88809 0.83796 0.0
H1715 H 0.85743 0.93796 0.83688 0.0
H1716 H 0.82545 0.01261 0.86789 0.0
H1717 H 0.78398 0.97993 0.87879 0.0
C1718 C 0.77504 0.91994 0.87155 0.0
C1719 C 0.77385 0.88875 0.86684 0.0
C1720 C 0.79709 0.93974 0.86438 0.0
C1721 C 0.79418 0.87779 0.85454 0.0
C1722 C 0.81584 0.89733 0.84723 0.0
C1723 C 0.84119 0.94717 0.84591 0.0
C1724 C 0.84433 0.97767 0.85147 0.0
C1725 C 0.81789 0.92815 0.85229 0.0
C1726 C 0.82313 0.98938 0.86314 0.0
C1727 C 0.79961 0.97059 0.86951 0.0
H1728 H 0.73436 0.40049 0.86626 0.0
H1729 H 0.67748 0.36095 0.90496 0.0
H1730 H 0.63622 0.39736 0.89849 0.0
H1731 H 0.61586 0.43929 0.88145 0.0
H1732 H 0.67074 0.47618 0.84109 0.0
H1733 H 0.71339 0.44259 0.84882 0.0
C1734 C 0.71306 0.40024 0.87338 0.0
C1735 C 0.70894 0.37839 0.88615 0.0
C1736 C 0.68917 0.42086 0.86937 0.0
C1737 C 0.68105 0.37765 0.89507 0.0
C1738 C 0.65751 0.39844 0.8914 0.0
C1739 C 0.63718 0.44011 0.87434 0.0
C1740 C 0.64023 0.461 0.86101 0.0
C1741 C 0.66123 0.41995 0.87848 0.0
C1742 C 0.66797 0.46145 0.85187 0.0
C1743 C 0.69234 0.44182 0.85613 0.0
H1744 H 0.77163 0.38635 0.12712 0.0
H1745 H 0.83049 0.35111 0.08811 0.0
H1746 H 0.8682 0.39175 0.09363 0.0
H1747 H 0.88412 0.43747 0.10934 0.0
H1748 H 0.82686 0.47066 0.14962 0.0
H1749 H 0.78853 0.43127 0.14354 0.0
C1750 C 0.79257 0.38787 0.11973 0.0
C1751 C 0.79816 0.3662 0.10707 0.0
C1752 C 0.81424 0.41111 0.12307 0.0
C1753 C 0.82575 0.3677 0.0979 0.0
C1754 C 0.84723 0.39094 0.10101 0.0
C1755 C 0.86322 0.43614 0.11677 0.0
C1756 C 0.85794 0.45782 0.1295 0.0
C1757 C 0.84168 0.41279 0.11354 0.0
C1758 C 0.83096 0.45542 0.1392 0.0
C1759 C 0.80917 0.43249 0.1359 0.0
H1760 H 0.84061 0.51549 0.36669 0.0
H1761 H 0.89285 0.59113 0.3461 0.0
H1762 H 0.85311 0.62738 0.35522 0.0
H1763 H 0.80454 0.63771 0.36988 0.0
H1764 H 0.7536 0.56247 0.39181 0.0
H1765 H 0.7913 0.52579 0.38091 0.0
C1766 C 0.84291 0.5398 0.36385 0.0
C1767 C 0.86933 0.55061 0.35548 0.0
C1768 C 0.82016 0.56053 0.36932 0.0
C1769 C 0.87261 0.58231 0.35246 0.0
C1770 C 0.84992 0.60302 0.35766 0.0
C1771 C 0.80157 0.61324 0.37215 0.0
C1772 C 0.77587 0.60278 0.38125 0.0
C1773 C 0.82376 0.59241 0.36623 0.0
C1774 C 0.7725 0.57106 0.38429 0.0
C1775 C 0.79431 0.55009 0.37826 0.0
H1776 H 0.61551 0.54247 0.60775 0.0
H1777 H 0.67151 0.50772 0.64814 0.0
H1778 H 0.71297 0.54311 0.64049 0.0
H1779 H 0.73204 0.5864 0.62332 0.0
H1780 H 0.67395 0.62359 0.5845 0.0
H1781 H 0.63437 0.58516 0.59067 0.0
C1782 C 0.63688 0.5425 0.61481 0.0
C1783 C 0.64072 0.52186 0.62817 0.0
C1784 C 0.66013 0.5636 0.61072 0.0
C1785 C 0.66838 0.52242 0.63735 0.0
C1786 C 0.69197 0.543 0.63314 0.0
C1787 C 0.7109 0.58567 0.61608 0.0
C1788 C 0.70589 0.60747 0.6034 0.0
C1789 C 0.68799 0.56388 0.61992 0.0
C1790 C 0.67817 0.60694 0.59433 0.0
C1791 C 0.6556 0.585 0.59783 0.0
H1792 H 0.31534 0.62124 0.09718 0.0
H1793 H 0.24505 0.58565 0.13015 0.0
H1794 H 0.27971 0.54422 0.13893 0.0
H1795 H 0.33156 0.52056 0.13871 0.0
H1796 H 0.40198 0.55788 0.1064 0.0
H1797 H 0.36585 0.59661 0.09605 0.0
C1798 C 0.30753 0.60431 0.10623 0.0
C1799 C 0.2776 0.6063 0.11287 0.0
C1800 C 0.32771 0.58105 0.11141 0.0
C1801 C 0.26773 0.58421 0.12454 0.0
C1802 C 0.28767 0.5607 0.1297 0.0
C1803 C 0.33866 0.53671 0.1291 0.0
C1804 C 0.36913 0.53619 0.12309 0.0
C1805 C 0.31784 0.55913 0.12336 0.0
C1806 C 0.37852 0.55786 0.11111 0.0
C1807 C 0.35792 0.57996 0.1052 0.0
H1808 H 0.15518 0.51357 0.87596 0.0
H1809 H 0.11362 0.58244 0.84422 0.0
H1810 H 0.1524 0.61989 0.85285 0.0
H1811 H 0.19695 0.63371 0.87006 0.0
H1812 H 0.23808 0.56572 0.9024 0.0
H1813 H 0.20126 0.52702 0.89254 0.0
C1814 C 0.15506 0.53652 0.87064 0.0
C1815 C 0.13177 0.54507 0.8593 0.0
C1816 C 0.17742 0.55807 0.87571 0.0
C1817 C 0.1313 0.57529 0.85298 0.0
C1818 C 0.15349 0.59672 0.85787 0.0
C1819 C 0.19799 0.61032 0.87483 0.0
C1820 C 0.22058 0.60238 0.88664 0.0
C1821 C 0.17645 0.58845 0.86934 0.0
C1822 C 0.22154 0.57213 0.89287 0.0
C1823 C 0.20025 0.55009 0.88739 0.0
H1824 H 0.22366 0.39559 0.60643 0.0
H1825 H 0.18253 0.32801 0.6391 0.0
H1826 H 0.14604 0.36656 0.64941 0.0
H1827 H 0.12515 0.41896 0.64856 0.0
H1828 H 0.16577 0.48651 0.61565 0.0
H1829 H 0.20401 0.44877 0.60643 0.0
C1830 C 0.2073 0.38957 0.61616 0.0
C1831 C 0.20622 0.35926 0.62234 0.0
C1832 C 0.18646 0.41184 0.622 0.0
C1833 C 0.18392 0.35132 0.63432 0.0
C1834 C 0.16311 0.37332 0.6402 0.0
C1835 C 0.14253 0.42547 0.63944 0.0
C1836 C 0.14295 0.45558 0.63299 0.0
C1837 C 0.16407 0.40357 0.63405 0.0
C1838 C 0.16548 0.46373 0.62116 0.0
C1839 C 0.18713 0.44205 0.61574 0.0
H1840 H 0.33175 0.46559 0.34656 0.0
H1841 H 0.4104 0.42683 0.372 0.0
H1842 H 0.37749 0.38765 0.38482 0.0
H1843 H 0.32649 0.36413 0.38855 0.0
H1844 H 0.24803 0.4017 0.3624 0.0
H1845 H 0.2805 0.44201 0.35039 0.0
C1846 C 0.34149 0.44894 0.35519 0.0
C1847 C 0.37326 0.4494 0.35863 0.0
C1848 C 0.32246 0.42635 0.3624 0.0
C1849 C 0.3859 0.427 0.3693 0.0
C1850 C 0.36713 0.40463 0.37661 0.0
C1851 C 0.31652 0.3812 0.38024 0.0
C1852 C 0.28479 0.38039 0.37671 0.0
C1853 C 0.33541 0.40401 0.3732 0.0
C1854 C 0.27218 0.40245 0.36581 0.0
C1855 C 0.29081 0.42533 0.35878 0.0
H1856 H 0.03515 0.00464 0.27702 0.0
H1857 H 0.11507 0.05762 0.26292 0.0
H1858 H 0.1186 0.02936 0.23645 0.0
H1859 H 0.09804 0.99026 0.21718 0.0
H1860 H 0.01649 0.93913 0.23074 0.0
H1861 H 0.01459 0.96552 0.25774 0.0
C1862 C 0.05347 0.00959 0.26817 0.0
C1863 C 0.07504 0.0327 0.27176 0.0
C1864 C 0.05495 0.99367 0.25296 0.0
C1865 C 0.09844 0.03962 0.26027 0.0
C1866 C 0.10038 0.02358 0.24519 0.0
C1867 C 0.07976 0.98517 0.22604 0.0
C1868 C 0.05734 0.96305 0.22207 0.0
C1869 C 0.07859 0.00075 0.24136 0.0
C1870 C 0.03404 0.95607 0.23366 0.0
C1871 C 0.0329 0.97118 0.24903 0.0
H1872 H 0.19167 0.82097 0.50588 0.0
H1873 H 0.27675 0.81019 0.5334 0.0
H1874 H 0.30608 0.81573 0.50771 0.0
H1875 H 0.30758 0.82071 0.47732 0.0
H1876 H 0.22274 0.81388 0.44932 0.0
H1877 H 0.19313 0.81815 0.47519 0.0
C1878 C 0.21656 0.81902 0.50631 0.0
C1879 C 0.23179 0.81559 0.52175 0.0
C1880 C 0.23331 0.81913 0.49129 0.0
C1881 C 0.26422 0.8141 0.52191 0.0
C1882 C 0.28111 0.81672 0.50714 0.0
C1883 C 0.28265 0.81931 0.4768 0.0
C1884 C 0.26755 0.8171 0.4613 0.0
C1885 C 0.26586 0.81878 0.49175 0.0
C1886 C 0.2351 0.81651 0.46098 0.0
C1887 C 0.21812 0.81848 0.47581 0.0
H1888 H 0.45838 0.03374 0.73322 0.0
H1889 H 0.38342 0.99115 0.70637 0.0
H1890 H 0.36738 0.96401 0.73174 0.0
H1891 H 0.37638 0.95069 0.76132 0.0
H1892 H 0.4502 0.99485 0.78824 0.0
H1893 H 0.46432 0.02429 0.76326 0.0
C1894 C 0.43821 0.01894 0.73302 0.0
C1895 C 0.42225 0.01417 0.71798 0.0
C1896 C 0.42876 0.00408 0.74769 0.0
C1897 C 0.39642 0.99463 0.71777 0.0
C1898 C 0.38708 0.97936 0.73228 0.0
C1899 C 0.39512 0.96727 0.76169 0.0
C1900 C 0.41222 0.97092 0.77642 0.0
C1901 C 0.40328 0.98369 0.74726 0.0
C1902 C 0.43662 0.99212 0.77697 0.0
C1903 C 0.44484 0.00864 0.76269 0.0
H1904 H 0.24962 0.17427 0.96063 0.0
H1905 H 0.16091 0.16676 0.98484 0.0
H1906 H 0.18575 0.16759 0.01213 0.0
H1907 H 0.23243 0.1744 0.02899 0.0
H1908 H 0.32152 0.17012 0.00498 0.0
H1909 H 0.29676 0.16986 0.97763 0.0
C1910 C 0.23573 0.1719 0.97182 0.0
C1911 C 0.20338 0.17149 0.97069 0.0
C1912 C 0.25023 0.1707 0.98749 0.0
C1913 C 0.1858 0.16852 0.98537 0.0
C1914 C 0.19998 0.16866 0.001 0.0
C1915 C 0.24652 0.17246 0.01785 0.0
C1916 C 0.27883 0.17327 0.01908 0.0
C1917 C 0.23216 0.17041 0.0022 0.0
C1918 C 0.2966 0.17101 0.00441 0.0
C1919 C 0.28246 0.17044 0.98875 0.0
H1920 H 0.93204 0.01092 0.70414 0.0
H1921 H 0.92033 0.92241 0.72792 0.0
H1922 H 0.91836 0.94725 0.75523 0.0
H1923 H 0.92349 0.99409 0.77233 0.0
H1924 H 0.92298 0.08284 0.74798 0.0
H1925 H 0.92551 0.0579 0.72074 0.0
C1926 C 0.92805 -0.00298 0.71518 0.0
C1927 C 0.92724 0.96474 0.71396 0.0
C1928 C 0.92492 0.01152 0.73073 0.0
C1929 C 0.92244 0.94722 0.72853 0.0
C1930 C 0.92089 0.96143 0.74415 0.0
C1931 C 0.92291 0.00804 0.7611 0.0
C1932 C 0.92401 0.04033 0.76224 0.0
C1933 C 0.92266 0.99357 0.74542 0.0
C1934 C 0.92346 0.05793 0.74748 0.0
C1935 C 0.92462 0.04371 0.73188 0.0
H1936 H 0.68609 0.1862 0.50227 0.0
H1937 H 0.76633 0.20079 0.53327 0.0
H1938 H 0.79908 0.20167 0.5086 0.0
H1939 H 0.80487 0.1976 0.47824 0.0
H1940 H 0.72331 0.19952 0.44728 0.0
H1941 H 0.69093 0.19311 0.47192 0.0
C1942 C 0.71057 0.19041 0.50371 0.0
C1943 C 0.72368 0.19235 0.51974 0.0
C1944 C 0.72903 0.19367 0.48942 0.0
C1945 C 0.75564 0.19749 0.52119 0.0
C1946 C 0.77442 0.19856 0.50705 0.0
C1947 C 0.78003 0.19759 0.47681 0.0
C1948 C 0.76675 0.19819 0.46079 0.0
C1949 C 0.76135 0.19653 0.4911 0.0
C1950 C 0.73439 0.19761 0.45935 0.0
C1951 C 0.71575 0.1944 0.47347 0.0
H1952 H 0.56413 0.97672 0.21096 0.0
H1953 H 0.57354 0.06717 0.23283 0.0
H1954 H 0.57728 0.04418 0.26053 0.0
H1955 H 0.57433 -0.00171 0.27844 0.0
H1956 H 0.58146 0.90836 0.25573 0.0
H1957 H 0.57568 0.93137 0.22813 0.0
C1958 C 0.56825 0.99157 0.22159 0.0
C1959 C 0.56755 0.02377 0.21974 0.0
C1960 C 0.5732 0.97823 0.23731 0.0
C1961 C 0.57231 0.04236 0.2339 0.0
C1962 C 0.575 0.02924 0.24976 0.0
C1963 C 0.57593 0.98366 0.26753 0.0
C1964 C 0.57723 0.95145 0.26928 0.0
C1965 C 0.57495 -0.00285 0.25162 0.0
C1966 C 0.57891 0.9331 0.25482 0.0
C1967 C 0.57593 0.94624 0.239 0.0
H1968 H 0.74525 0.83427 0.02189 0.0
H1969 H 0.83311 0.83536 -0.00353 0.0
H1970 H 0.8067 0.83428 0.96951 0.0
H1971 H 0.75833 0.82926 0.95347 0.0
H1972 H 0.67131 0.83987 0.97909 0.0
H1973 H 0.69789 0.84103 0.00588 0.0
C1974 C 0.75883 0.83553 0.01055 0.0
C1975 C 0.79119 0.83432 0.01129 0.0
C1976 C 0.74359 0.83674 -0.00484 0.0
C1977 C 0.80815 0.83512 -0.00369 0.0
C1978 C 0.79307 0.83485 0.98087 0.0
C1979 C 0.74521 0.83274 0.96484 0.0
C1980 C 0.71278 0.83335 0.96432 0.0
C1981 C 0.76074 0.83505 0.98017 0.0
C1982 C 0.6962 0.83786 0.97921 0.0
C1983 C 0.71138 0.83886 -0.00547 0.0
H1984 H 0.60578 0.52118 0.76707 0.0
H1985 H 0.50777 0.51936 0.77594 0.0
H1986 H 0.49974 0.49012 0.75012 0.0
H1987 H 0.52072 0.46601 0.72482 0.0
H1988 H 0.61851 0.46884 0.71533 0.0
H1989 H 0.62683 0.49709 0.7415 0.0
C1990 C 0.58281 0.5141 0.76328 0.0
C1991 C 0.55736 0.52196 0.77317 0.0
C1992 C 0.57843 0.49782 0.74834 0.0
C1993 C 0.52754 0.5132 0.76835 0.0
C1994 C 0.52299 0.49665 0.75364 0.0
C1995 C 0.54379 0.47283 0.72858 0.0
C1996 C 0.569 0.46557 0.71838 0.0
C1997 C 0.54824 0.489 0.74351 0.0
C1998 C 0.59885 0.47452 0.72311 0.0
C1999 C 0.60357 0.49048 0.73804 0.0
H2000 H 0.76257 0.30419 0.03058 0.0
H2001 H 0.6723 0.31092 0.00805 0.0
H2002 H 0.69577 0.31329 0.98041 0.0
H2003 H 0.74228 0.31141 0.96272 0.0
H2004 H 0.83152 0.3213 0.98611 0.0
H2005 H 0.80806 0.31536 0.01353 0.0
C2006 C 0.74786 0.3073 0.01978 0.0
C2007 C 0.71561 0.30646 0.02151 0.0
C2008 C 0.76143 0.31153 0.00406 0.0
C2009 C 0.69717 0.30987 0.00714 0.0
C2010 C 0.71057 0.3118 0.9913 0.0
C2011 C 0.75659 0.31331 0.97376 0.0
C2012 C 0.78884 0.31555 0.97224 0.0
C2013 C 0.74274 0.31232 0.98961 0.0
C2014 C 0.80683 0.31785 0.98682 0.0
C2015 C 0.79341 0.31486 0.00256 0.0
H2016 H 0.89393 0.49321 0.2715 0.0
H2017 H 0.98523 0.46079 0.25936 0.0
H2018 H 0.98228 0.48585 0.23199 0.0
H2019 H 0.95388 0.51772 0.21173 0.0
H2020 H 0.86362 0.55214 0.22425 0.0
H2021 H 0.86588 0.52589 0.25141 0.0
C2022 C 0.9132 0.49192 0.26286 0.0
C2023 C 0.93972 0.47527 0.2673 0.0
C2024 C 0.91144 0.50669 0.24731 0.0
C2025 C 0.9645 0.47333 0.25605 0.0
C2026 C 0.96285 0.4877 0.24048 0.0
C2027 C 0.93472 0.51917 0.22044 0.0
C2028 C 0.90851 0.53634 0.21617 0.0
C2029 C 0.93645 0.50444 0.23599 0.0
C2030 C 0.88386 0.53872 0.22743 0.0
C2031 C 0.88521 0.52382 0.24289 0.0
H2032 H 0.7371 0.68115 0.53057 0.0
H2033 H 0.82396 0.67421 0.50439 0.0
H2034 H 0.79676 0.67411 0.47772 0.0
H2035 H 0.74819 0.67639 0.46198 0.0
H2036 H 0.66181 0.6688 0.4886 0.0
H2037 H 0.68896 0.67372 0.51511 0.0
C2038 C 0.7502 0.67865 0.51912 0.0
C2039 C 0.78263 0.67812 0.51957 0.0
C2040 C 0.73441 0.6761 0.50391 0.0
C2041 C 0.79905 0.67579 0.50447 0.0
C2042 C 0.78349 0.67527 0.48919 0.0
C2043 C 0.73525 0.67484 0.47353 0.0
C2044 C 0.70284 0.67288 0.47319 0.0
C2045 C 0.75115 0.67542 0.48878 0.0
C2046 C 0.68662 0.67157 0.48839 0.0
C2047 C 0.70216 0.674 0.5036 0.0
H2048 H 0.42561 0.48657 0.2743 0.0
H2049 H 0.4153 0.57583 0.25112 0.0
H2050 H 0.41881 0.5522 0.22357 0.0
H2051 H 0.42848 0.50643 0.20635 0.0
H2052 H 0.42347 0.41654 0.22935 0.0
H2053 H 0.4221 0.44024 0.25689 0.0
C2054 C 0.42294 0.50092 0.26333 0.0
C2055 C 0.42121 0.53313 0.26489 0.0
C2056 C 0.42271 0.48704 0.24752 0.0
C2057 C 0.4182 0.55112 0.25035 0.0
C2058 C 0.41982 0.53761 0.23456 0.0
C2059 C 0.426 0.49187 0.21727 0.0
C2060 C 0.42719 0.45964 0.21569 0.0
C2061 C 0.4227 0.5056 0.23302 0.0
C2062 C 0.42433 0.44139 0.23015 0.0
C2063 C 0.42302 0.45492 0.24594 0.0
H2064 H 0.24365 0.67083 0.96796 0.0
H2065 H 0.32874 0.65336 0.99434 0.0
H2066 H 0.30143 0.65604 0.02097 0.0
H2067 H 0.25417 0.66754 0.03653 0.0
H2068 H 0.16751 0.6736 0.01014 0.0
H2069 H 0.19478 0.671 0.98348 0.0
C2070 C 0.25614 0.66653 0.97945 0.0
C2071 C 0.28834 0.66265 0.97916 0.0
C2072 C 0.24009 0.66643 -0.00535 0.0
C2073 C 0.30412 0.65757 0.99425 0.0
C2074 C 0.2885 0.65881 0.00947 0.0
C2075 C 0.24099 0.66713 0.02503 0.0
C2076 C 0.20884 0.67135 0.02537 0.0
C2077 C 0.25657 0.66386 0.00981 0.0
C2078 C 0.19239 0.67148 0.01024 0.0
C2079 C 0.20792 0.66968 -0.00501 0.0
H2080 H 0.07466 0.48746 0.71139 0.0
H2081 H 0.06959 0.5789 0.73238 0.0
H2082 H 0.07043 0.55737 0.76048 0.0
H2083 H 0.0687 0.51206 0.77891 0.0
H2084 H 0.08686 0.4222 0.75808 0.0
H2085 H 0.08561 0.44375 0.72993 0.0
C2086 C 0.07474 0.50286 0.72203 0.0
C2087 C 0.07088 0.5347 0.71969 0.0
C2088 C 0.07747 0.49056 0.73817 0.0
C2089 C 0.07084 0.55415 0.73376 0.0
C2090 C 0.07182 0.54191 0.74987 0.0
C2091 C 0.07351 0.4973 0.76831 0.0
C2092 C 0.07693 0.4654 0.77059 0.0
C2093 C 0.07451 0.51007 0.75222 0.0
C2094 C 0.0829 0.44668 0.75662 0.0
C2095 C 0.08242 0.45899 0.74052 0.0
H2096 H 0.18509 0.32141 0.48802 0.0
H2097 H 0.26544 0.30946 0.4567 0.0
H2098 H 0.29823 0.30837 0.48121 0.0
H2099 H 0.30397 0.30939 0.51165 0.0
H2100 H 0.22224 0.30047 0.54221 0.0
H2101 H 0.19002 0.31081 0.51802 0.0
C2102 C 0.2096 0.31769 0.48641 0.0
C2103 C 0.22253 0.31664 0.47029 0.0
C2104 C 0.22815 0.31339 0.5006 0.0
C2105 C 0.25464 0.31236 0.46876 0.0
C2106 C 0.27353 0.31098 0.48286 0.0
C2107 C 0.27917 0.30863 0.5131 0.0
C2108 C 0.2659 0.30497 0.52902 0.0
C2109 C 0.26049 0.31127 0.49885 0.0
C2110 C 0.23348 0.30489 0.53039 0.0
C2111 C 0.21486 0.31025 0.51646 0.0
H2112 H 0.99263 0.19371 0.28925 0.0
H2113 H 0.083 0.23566 0.28992 0.0
H2114 H 0.05958 0.2867 0.28863 0.0
H2115 H 0.01357 0.31924 0.29173 0.0
H2116 H 0.92326 0.27714 0.2921 0.0
H2117 H 0.94657 0.22648 0.28836 0.0
C2118 C 0.00727 0.21396 0.28876 0.0
C2119 C 0.03953 0.2108 0.29002 0.0
C2120 C 0.99364 0.24331 0.28844 0.0
C2121 C 0.0581 0.23734 0.28915 0.0
C2122 C 0.04471 0.26661 0.2885 0.0
C2123 C -0.00107 0.29906 0.2907 0.0
C2124 C 0.96674 0.30198 0.29253 0.0
C2125 C 0.01251 0.26987 0.28886 0.0
C2126 C 0.94812 0.2756 0.29092 0.0
C2127 C 0.96144 0.24655 0.28884 0.0
H2128 H 0.98161 0.68748 0.54028 0.0
H2129 H 0.92584 0.76935 0.54545 0.0
H2130 H 0.97168 0.80152 0.54297 0.0
H2131 H 0.02804 0.80593 0.54408 0.0
H2132 H 0.08396 0.724 0.53984 0.0
H2133 H 0.03768 0.69256 0.53686 0.0
C2134 C 0.97938 0.71237 0.54049 0.0
C2135 C 0.95043 0.72591 0.54346 0.0
C2136 C 0.00595 0.73081 0.5394 0.0
C2137 C 0.94793 0.75825 0.54348 0.0
C2138 C 0.97416 0.77672 0.5421 0.0
C2139 C 0.03016 0.7813 0.54211 0.0
C2140 C 0.05939 0.7673 0.5426 0.0
C2141 C 0.00341 0.7632 0.5408 0.0
C2142 C 0.0617 0.73536 0.53981 0.0
C2143 C 0.03523 0.71729 0.53816 0.0
H2144 H 0.42092 0.75866 0.78976 0.0
H2145 H 0.49688 0.82253 0.78519 0.0
H2146 H 0.53305 0.77978 0.78304 0.0
H2147 H 0.54382 0.72495 0.78799 0.0
H2148 H 0.46778 0.66131 0.79322 0.0
H2149 H 0.43114 0.70317 0.78931 0.0
C2150 C 0.44527 0.76327 0.78785 0.0
C2151 C 0.45622 0.79374 0.78816 0.0
C2152 C 0.46611 0.73856 0.78702 0.0
C2153 C 0.48782 0.79927 0.78534 0.0
C2154 C 0.50862 0.77481 0.78419 0.0
C2155 C 0.51926 0.72011 0.78789 0.0
C2156 C 0.50862 0.6902 0.79139 0.0
C2157 C 0.49817 0.74442 0.78591 0.0
C2158 C 0.47668 0.68425 0.7909 0.0
C2159 C 0.45562 0.7082 0.7887 0.0
H2160 H 0.47161 0.18622 0.03889 0.0
H2161 H 0.41936 0.27069 0.04181 0.0
H2162 H 0.46689 0.30067 0.04027 0.0
H2163 H 0.52319 0.30237 0.04338 0.0
H2164 H 0.57526 0.21764 0.04215 0.0
H2165 H 0.52801 0.18841 0.03746 0.0
C2166 C 0.47054 0.21118 0.03874 0.0
C2167 C 0.44209 0.22618 0.04085 0.0
C2168 C 0.49802 0.22828 0.03841 0.0
C2169 C 0.44108 0.25857 0.04049 0.0
C2170 C 0.46826 0.27576 0.03967 0.0
C2171 C 0.52429 0.27761 0.04167 0.0
C2172 C 0.55255 0.26214 0.0435 0.0
C2173 C 0.49691 0.26081 0.03946 0.0
C2174 C 0.55365 0.23005 0.04111 0.0
C2175 C 0.52664 0.21328 0.03845 0.0
H2176 H 0.988 0.68485 0.19258 0.0
H2177 H 0.9078 0.74387 0.19176 0.0
H2178 H 0.9408 0.789 0.19555 0.0
H2179 H 0.99245 0.81187 0.19473 0.0
H2180 H 0.07267 0.75296 0.19287 0.0
H2181 H 0.03954 0.70752 0.19475 0.0
C2182 C 0.97759 0.7075 0.19358 0.0
C2183 C 0.94545 0.71101 0.19166 0.0
C2184 C 0.99678 0.73339 0.1951 0.0
C2185 C 0.93246 0.74054 0.19304 0.0
C2186 C 0.95135 0.76637 0.19515 0.0
C2187 C 0.00281 0.78914 0.19509 0.0
C2188 C 0.03502 0.78582 0.19343 0.0
C2189 C 0.98358 0.76313 0.19552 0.0
C2190 C 0.04796 0.75616 0.19398 0.0
C2191 C 0.02901 0.73017 0.19499 0.0
H2192 H 0.54797 0.7508 0.45097 0.0
H2193 H 0.506 0.66077 0.44784 0.0
H2194 H 0.45481 0.68401 0.44924 0.0
H2195 H 0.42236 0.73017 0.44671 0.0
H2196 H 0.46441 0.82022 0.44934 0.0
H2197 H 0.51503 0.79666 0.4531 0.0
C2198 C 0.52763 0.73621 0.45093 0.0
C2199 C 0.5308 0.70417 0.44894 0.0
C2200 C 0.49823 0.74975 0.45148 0.0
C2201 C 0.50425 0.68554 0.44921 0.0
C2202 C 0.47492 0.69882 0.44991 0.0
C2203 C 0.44252 0.74465 0.44845 0.0
C2204 C 0.43968 0.77688 0.44738 0.0
C2205 C 0.47166 0.73096 0.45033 0.0
C2206 C 0.46593 0.79534 0.44996 0.0
C2207 C 0.49496 0.78188 0.45201 0.0
H2208 H 0.43445 0.21547 0.69576 0.0
H2209 H 0.51756 0.16256 0.70368 0.0
H2210 H 0.54654 0.20975 0.70867 0.0
H2211 H 0.55007 0.26587 0.70574 0.0
H2212 H 0.46727 0.31878 0.69693 0.0
H2213 H 0.43644 0.27184 0.69772 0.0
C2214 C 0.45874 0.21419 0.69895 0.0
C2215 C 0.47393 0.18557 0.6989 0.0
C2216 C 0.47549 0.24149 0.70147 0.0
C2217 C 0.50533 0.18432 0.70334 0.0
C2218 C 0.52202 0.21134 0.70615 0.0
C2219 C 0.5252 0.26726 0.70439 0.0
C2220 C 0.51116 0.29571 0.70083 0.0
C2221 C 0.50763 0.24008 0.70446 0.0
C2222 C 0.47881 0.29711 0.6994 0.0
C2223 C 0.46112 0.27024 0.69977 0.0
H2224 H 0.06039 0.26384 0.95464 0.0
H2225 H 0.01852 0.17374 0.95752 0.0
H2226 H 0.96785 0.19725 0.96129 0.0
H2227 H 0.93512 0.24268 0.95717 0.0
H2228 H 0.9768 0.33259 0.95265 0.0
H2229 H 0.02792 0.30999 0.95653 0.0
C2230 C 0.04025 0.24938 0.95653 0.0
C2231 C 0.04293 0.21719 0.95527 0.0
C2232 C 0.01114 0.26303 0.95817 0.0
C2233 C 0.01693 0.19862 0.95818 0.0
C2234 C 0.98792 0.21205 0.96022 0.0
C2235 C 0.95537 0.25739 0.95748 0.0
C2236 C 0.95245 0.28903 0.95414 0.0
C2237 C 0.98464 0.24414 0.9592 0.0
C2238 C 0.97859 0.30807 0.955 0.0
C2239 C 0.00784 0.29513 0.95708 0.0
H2240 H 0.93643 0.77146 0.69339 0.0
H2241 H 0.02087 0.82386 0.69679 0.0
H2242 H 0.05021 0.77658 0.70112 0.0
H2243 H 0.05281 0.72039 0.69865 0.0
H2244 H 0.96868 0.66802 0.69337 0.0
H2245 H 0.93831 0.71515 0.6954 0.0
C2246 C 0.96113 0.7726 0.69552 0.0
C2247 C 0.97655 0.80099 0.6944 0.0
C2248 C 0.97801 0.74525 0.69744 0.0
C2249 C 0.00854 0.80216 0.6973 0.0
C2250 C 0.02536 0.77513 0.69974 0.0
C2251 C 0.02781 0.71919 0.69838 0.0
C2252 C 0.01306 0.69088 0.69548 0.0
C2253 C 0.01052 0.74649 0.699 0.0
C2254 C 0.98062 0.68966 0.69529 0.0
C2255 C 0.96321 0.71661 0.69641 0.0
H2256 H 0.05277 0.24942 0.4502 0.0
H2257 H 0.01919 0.34199 0.44251 0.0
H2258 H 0.96613 0.32329 0.44301 0.0
H2259 H 0.92983 0.27986 0.44156 0.0
H2260 H 0.96349 0.1872 0.44881 0.0
H2261 H 0.01571 0.20682 0.45279 0.0
C2262 C 0.03385 0.26561 0.44896 0.0
C2263 C 0.04007 0.29699 0.44602 0.0
C2264 C 0.00331 0.25465 0.449 0.0
C2265 C 0.01519 0.31767 0.44465 0.0
C2266 C 0.98476 0.30698 0.44485 0.0
C2267 C 0.94848 0.26398 0.44431 0.0
C2268 C 0.94277 0.23205 0.44457 0.0
C2269 C 0.97862 0.27537 0.44637 0.0
C2270 C 0.96718 0.21187 0.44839 0.0
C2271 C 0.99715 0.22306 0.45059 0.0
H2272 H 0.43873 0.26849 0.19671 0.0
H2273 H 0.52379 0.31975 0.19252 0.0
H2274 H 0.55345 0.27252 0.19611 0.0
H2275 H 0.55495 0.21611 0.19533 0.0
H2276 H 0.46981 0.16468 0.19817 0.0
H2277 H 0.44062 0.21246 0.20058 0.0
C2278 C 0.46374 0.26944 0.19699 0.0
C2279 C 0.47899 0.29745 0.19394 0.0
C2280 C 0.48071 0.24206 0.19862 0.0
C2281 C 0.51144 0.29835 0.19452 0.0
C2282 C 0.52847 0.27134 0.19654 0.0
C2283 C 0.5301 0.21531 0.19691 0.0
C2284 C 0.51454 0.18695 0.19616 0.0
C2285 C 0.51333 0.24291 0.19781 0.0
C2286 C 0.48233 0.18629 0.1984 0.0
C2287 C 0.46557 0.21362 0.19972 0.0
H2288 H 0.56669 0.73747 0.95054 0.0
H2289 H 0.5213 0.82593 0.95232 0.0
H2290 H 0.47228 0.80076 0.9586 0.0
H2291 H 0.44117 0.75354 0.9586 0.0
H2292 H 0.48633 0.66504 0.95577 0.0
H2293 H 0.5366 0.69035 0.9553 0.0
C2294 C 0.54619 0.75129 0.95263 0.0
C2295 C 0.54748 0.78346 0.95056 0.0
C2296 C 0.51796 0.73664 0.95591 0.0
C2297 C 0.52089 0.8011 0.95364 0.0
C2298 C 0.49278 0.78671 0.95716 0.0
C2299 C 0.46203 0.73974 0.95826 0.0
C2300 C 0.45995 0.70749 0.9568 0.0
C2301 C 0.49083 0.75446 0.95756 0.0
C2302 C 0.4872 0.68992 0.9567 0.0
C2303 C 0.516 0.70439 0.95632 0.0
H2304 H 0.94869 0.22797 0.78116 0.0
H2305 H 0.03226 0.17453 0.7856 0.0
H2306 H 0.06301 0.2216 0.78546 0.0
H2307 H 0.06498 0.27751 0.78992 0.0
H2308 H 0.98089 0.33057 0.78735 0.0
H2309 H 0.95166 0.28422 0.78065 0.0
C2310 C 0.97367 0.22657 0.7816 0.0
C2311 C 0.98812 0.19792 0.78382 0.0
C2312 C 0.99113 0.25374 0.78215 0.0
C2313 C 0.02055 0.19643 0.7842 0.0
C2314 C 0.03816 0.22334 0.7842 0.0
C2315 C 0.04041 0.27904 0.78745 0.0
C2316 C 0.02498 0.3072 0.78956 0.0
C2317 C 0.02356 0.25213 0.78412 0.0
C2318 C 0.99318 0.30895 0.78617 0.0
C2319 C 0.97642 0.28246 0.78235 0.0
H2320 H 0.55541 0.25613 0.54227 0.0
H2321 H 0.52082 0.16283 0.54254 0.0
H2322 H 0.46795 0.18201 0.54166 0.0
H2323 H 0.43171 0.22508 0.54499 0.0
H2324 H 0.46636 0.31836 0.54539 0.0
H2325 H 0.51884 0.29934 0.54157 0.0
C2326 C 0.53635 0.23995 0.54181 0.0
C2327 C 0.54215 0.20808 0.54279 0.0
C2328 C 0.5059 0.25114 0.5416 0.0
C2329 C 0.51712 0.18749 0.54196 0.0
C2330 C 0.4868 0.19844 0.54154 0.0
C2331 C 0.45065 0.24131 0.54393 0.0
C2332 C 0.44509 0.27309 0.54579 0.0
C2333 C 0.48092 0.2302 0.54201 0.0
C2334 C 0.46992 0.29377 0.54415 0.0
C2335 C 0.50003 0.2829 0.54205 0.0
H2336 H 0.48537 0.80723 0.2932 0.0
H2337 H 0.57639 0.7668 0.29239 0.0
H2338 H 0.55384 0.71588 0.28808 0.0
H2339 H 0.50836 0.68238 0.28929 0.0
H2340 H 0.41734 0.72267 0.29142 0.0
H2341 H 0.43985 0.77417 0.2901 0.0
C2342 C 0.50032 0.78736 0.29179 0.0
C2343 C 0.53247 0.79067 0.29351 0.0
C2344 C 0.48719 0.7581 0.28968 0.0
C2345 C 0.55155 0.76483 0.2913 0.0
C2346 C 0.53867 0.73567 0.28891 0.0
C2347 C 0.49339 0.70241 0.28914 0.0
C2348 C 0.46128 0.69873 0.29085 0.0
C2349 C 0.50651 0.73193 0.28882 0.0
C2350 C 0.44216 0.72485 0.29029 0.0
C2351 C 0.45503 0.75434 0.28964 0.0
H2352 H 0.94313 0.74118 0.03763 0.0
H2353 H 0.97386 0.83566 0.04048 0.0
H2354 H 0.02746 0.81859 0.04119 0.0
H2355 H 0.06472 0.77672 0.04557 0.0
H2356 H 0.03377 0.68225 0.04329 0.0
H2357 H 0.98128 0.69948 0.03756 0.0
C2358 C 0.96158 0.75807 0.03806 0.0
C2359 C 0.95448 0.78959 0.03938 0.0
C2360 C 0.99233 0.74809 0.03878 0.0
C2361 C 0.97864 0.81122 0.03962 0.0
C2362 C 0.00934 0.80147 0.04014 0.0
C2363 C 0.0466 0.75989 0.04352 0.0
C2364 C 0.05301 0.72829 0.04523 0.0
C2365 C 0.01634 0.76994 0.04045 0.0
C2366 C 0.02941 0.70675 0.04224 0.0
C2367 C -0.00068 0.71657 0.03902 0.0
loop_
_geom_bond_atom_site_label_1
_geom_bond_atom_site_label_2
_geom_bond_distance
_geom_bond_site_symmetry_2
_ccdc_geom_bond_type
Co0 O3 1.970 . S
Co0 N17 1.989 . S
Co0 O25 1.967 . S
Co0 O32 1.920 . S
Co1 O4 1.966 . S
Co1 N10 2.022 . S
Co1 N18 1.993 . S
Co1 O26 1.941 . S
C2 O3 1.258 . S
C2 O4 1.263 . S
O3 Co0 1.970 . S
O3 C2 1.258 . S
O4 Co1 1.966 . S
O4 C2 1.263 . S
C5 O6 1.235 . S
C5 O32 1.289 . S
O6 C5 1.235 . S
C7 C9 1.418 . S
C7 N10 1.351 . S
C7 C12 1.501 . S
C8 C9 1.378 1_565 S
C8 N11 1.341 1_565 S
C9 C7 1.418 . S
C9 C8 1.378 1_545 S
N10 Co1 2.022 . S
N10 C7 1.351 . S
N10 N11 1.365 . S
N11 C8 1.341 1_545 S
N11 N10 1.365 . S
N11 H31 0.863 . S
C12 C7 1.501 . S
C12 H13 0.961 . S
C12 H14 0.961 . S
C12 H15 0.960 . S
H13 C12 0.961 . S
H14 C12 0.961 . S
H15 C12 0.960 . S
C16 N17 1.342 . S
C16 C20 1.401 . S
C16 C21 1.499 . S
N17 Co0 1.989 . S
N17 C16 1.342 . S
N17 N18 1.388 . S
N18 Co1 1.993 . S
N18 N17 1.388 . S
N18 C19 1.346 . S
C19 N18 1.346 . S
C19 C20 1.396 . S
C19 C29 1.510 . S
C20 C16 1.401 . S
C20 C19 1.396 . S
C21 C16 1.499 . S
C21 H22 0.959 . S
C21 H23 0.960 . S
C21 H24 0.961 . S
H22 C21 0.959 . S
H23 C21 0.960 . S
H24 C21 0.961 . S
O25 Co0 1.967 . S
O25 C33 1.258 . S
O26 Co1 1.941 . S
O26 C33 1.266 . S
H27 C29 0.959 . S
H28 C29 0.961 . S
C29 C19 1.510 . S
C29 H27 0.959 . S
C29 H28 0.961 . S
C29 H30 0.960 . S
H30 C29 0.960 . S
H31 N11 0.863 . S
O32 Co0 1.920 . S
O32 C5 1.289 . S
C33 O25 1.258 . S
C33 O26 1.266 . S
Co34 O37 1.970 . S
Co34 N51 1.989 . S
Co34 O59 1.967 . S
Co34 O66 1.920 . S
Co35 O38 1.966 . S
Co35 N44 2.022 . S
Co35 N52 1.993 . S
Co35 O60 1.941 . S
C36 O37 1.258 . S
C36 O38 1.263 . S
O37 Co34 1.970 . S
O37 C36 1.258 . S
O38 Co35 1.966 . S
O38 C36 1.263 . S
C39 O40 1.235 . S
C39 O66 1.289 . S
O40 C39 1.235 . S
C41 C43 1.400 . S
C41 N44 1.351 . S
C41 C46 1.501 . S
C42 C43 1.387 . S
C42 N45 1.341 . S
C43 C41 1.400 . S
C43 C42 1.387 . S
N44 Co35 2.022 . S
N44 C41 1.351 . S
N44 N45 1.365 . S
N45 C42 1.341 . S
N45 N44 1.365 . S
N45 H65 0.862 . S
C46 C41 1.501 . S
C46 H47 0.961 . S
C46 H48 0.961 . S
C46 H49 0.960 . S
H47 C46 0.961 . S
H48 C46 0.961 . S
H49 C46 0.960 . S
C50 N51 1.342 . S
C50 C54 1.401 . S
C50 C55 1.499 . S
N51 Co34 1.989 . S
N51 C50 1.342 . S
N51 N52 1.388 . S
N52 Co35 1.993 . S
N52 N51 1.388 . S
N52 C53 1.346 . S
C53 N52 1.346 . S
C53 C54 1.396 . S
C53 C63 1.510 . S
C54 C50 1.401 . S
C54 C53 1.396 . S
C55 C50 1.499 . S
C55 H56 0.959 . S
C55 H57 0.960 . S
C55 H58 0.961 . S
H56 C55 0.959 . S
H57 C55 0.960 . S
H58 C55 0.961 . S
O59 Co34 1.967 . S
O59 C67 1.258 . S
O60 Co35 1.941 . S
O60 C67 1.266 . S
H61 C63 0.959 . S
H62 C63 0.961 . S
C63 C53 1.510 . S
C63 H61 0.959 . S
C63 H62 0.961 . S
C63 H64 0.960 . S
H64 C63 0.960 . S
H65 N45 0.862 . S
O66 Co34 1.920 . S
O66 C39 1.289 . S
C67 O59 1.258 . S
C67 O60 1.266 . S
Co68 O71 1.970 . S
Co68 N85 1.989 . S
Co68 O93 1.967 . S
Co68 O100 1.920 . S
Co69 O72 1.966 . S
Co69 N78 2.022 . S
Co69 N86 1.993 . S
Co69 O94 1.941 . S
C70 O71 1.258 . S
C70 O72 1.263 . S
O71 Co68 1.970 . S
O71 C70 1.258 . S
O72 Co69 1.966 . S
O72 C70 1.263 . S
C73 O74 1.235 . S
C73 O100 1.289 . S
O74 C73 1.235 . S
C75 C77 1.418 . S
C75 N78 1.351 . S
C75 C80 1.501 . S
C76 C77 1.378 1_545 S
C76 N79 1.341 1_545 S
C77 C75 1.418 . S
C77 C76 1.378 1_565 S
N78 Co69 2.022 . S
N78 C75 1.351 . S
N78 N79 1.365 . S
N79 C76 1.341 1_565 S
N79 N78 1.365 . S
N79 H99 0.863 . S
C80 C75 1.501 . S
C80 H81 0.961 . S
C80 H82 0.961 . S
C80 H83 0.960 . S
H81 C80 0.961 . S
H82 C80 0.961 . S
H83 C80 0.960 . S
C84 N85 1.342 . S
C84 C88 1.401 . S
C84 C89 1.499 . S
N85 Co68 1.989 . S
N85 C84 1.342 . S
N85 N86 1.388 . S
N86 Co69 1.993 . S
N86 N85 1.388 . S
N86 C87 1.346 . S
C87 N86 1.346 . S
C87 C88 1.396 . S
C87 C97 1.510 . S
C88 C84 1.401 . S
C88 C87 1.396 . S
C89 C84 1.499 . S
C89 H90 0.959 . S
C89 H91 0.960 . S
C89 H92 0.961 . S
H90 C89 0.959 . S
H91 C89 0.960 . S
H92 C89 0.961 . S
O93 Co68 1.967 . S
O93 C101 1.258 . S
O94 Co69 1.941 . S
O94 C101 1.266 . S
H95 C97 0.959 . S
H96 C97 0.961 . S
C97 C87 1.510 . S
C97 H95 0.959 . S
C97 H96 0.961 . S
C97 H98 0.960 . S
H98 C97 0.960 . S
H99 N79 0.863 . S
O100 Co68 1.920 . S
O100 C73 1.289 . S
C101 O93 1.258 . S
C101 O94 1.266 . S
Co102 O105 1.970 . S
Co102 N119 1.989 . S
Co102 O127 1.967 . S
Co102 O134 1.920 . S
Co103 O106 1.966 . S
Co103 N112 2.022 . S
Co103 N120 1.993 . S
Co103 O128 1.941 . S
C104 O105 1.258 . S
C104 O106 1.263 . S
O105 Co102 1.970 . S
O105 C104 1.258 . S
O106 Co103 1.966 . S
O106 C104 1.263 . S
C107 O108 1.235 . S
C107 O134 1.289 . S
O108 C107 1.235 . S
C109 C111 1.400 . S
C109 N112 1.351 . S
C109 C114 1.501 . S
C110 C111 1.387 . S
C110 N113 1.341 . S
C111 C109 1.400 . S
C111 C110 1.387 . S
N112 Co103 2.022 . S
N112 C109 1.351 . S
N112 N113 1.365 . S
N113 C110 1.341 . S
N113 N112 1.365 . S
N113 H133 0.862 . S
C114 C109 1.501 . S
C114 H115 0.961 . S
C114 H116 0.961 . S
C114 H117 0.960 . S
H115 C114 0.961 . S
H116 C114 0.961 . S
H117 C114 0.960 . S
C118 N119 1.342 . S
C118 C122 1.401 . S
C118 C123 1.499 . S
N119 Co102 1.989 . S
N119 C118 1.342 . S
N119 N120 1.388 . S
N120 Co103 1.993 . S
N120 N119 1.388 . S
N120 C121 1.346 . S
C121 N120 1.346 . S
C121 C122 1.396 . S
C121 C131 1.510 . S
C122 C118 1.401 . S
C122 C121 1.396 . S
C123 C118 1.499 . S
C123 H124 0.959 . S
C123 H125 0.960 . S
C123 H126 0.961 . S
H124 C123 0.959 . S
H125 C123 0.960 . S
H126 C123 0.961 . S
O127 Co102 1.967 . S
O127 C135 1.258 . S
O128 Co103 1.941 . S
O128 C135 1.266 . S
H129 C131 0.959 . S
H130 C131 0.961 . S
C131 C121 1.510 . S
C131 H129 0.959 . S
C131 H130 0.961 . S
C131 H132 0.960 . S
H132 C131 0.960 . S
H133 N113 0.862 . S
O134 Co102 1.920 . S
O134 C107 1.289 . S
C135 O127 1.258 . S
C135 O128 1.266 . S
Co136 O139 1.970 . S
Co136 N153 1.989 . S
Co136 O161 1.967 . S
Co136 O168 1.920 . S
Co137 O140 1.966 . S
Co137 N146 2.022 . S
Co137 N154 1.993 . S
Co137 O162 1.941 . S
C138 O139 1.258 . S
C138 O140 1.263 . S
O139 Co136 1.970 . S
O139 C138 1.258 . S
O140 Co137 1.966 . S
O140 C138 1.263 . S
C141 O142 1.235 . S
C141 O168 1.289 . S
O142 C141 1.235 . S
C143 C145 1.418 . S
C143 N146 1.351 . S
C143 C148 1.501 . S
C144 C145 1.378 1_545 S
C144 N147 1.341 1_545 S
C145 C143 1.418 . S
C145 C144 1.378 1_565 S
N146 Co137 2.022 . S
N146 C143 1.351 . S
N146 N147 1.365 . S
N147 C144 1.341 1_565 S
N147 N146 1.365 . S
N147 H167 0.863 . S
C148 C143 1.501 . S
C148 H149 0.961 . S
C148 H150 0.961 . S
C148 H151 0.960 . S
H149 C148 0.961 . S
H150 C148 0.961 . S
H151 C148 0.960 . S
C152 N153 1.342 . S
C152 C156 1.401 . S
C152 C157 1.499 . S
N153 Co136 1.989 . S
N153 C152 1.342 . S
N153 N154 1.388 . S
N154 Co137 1.993 . S
N154 N153 1.388 . S
N154 C155 1.346 . S
C155 N154 1.346 . S
C155 C156 1.396 . S
C155 C165 1.510 . S
C156 C152 1.401 . S
C156 C155 1.396 . S
C157 C152 1.499 . S
C157 H158 0.959 . S
C157 H159 0.960 . S
C157 H160 0.961 . S
H158 C157 0.959 . S
H159 C157 0.960 . S
H160 C157 0.961 . S
O161 Co136 1.967 . S
O161 C169 1.258 . S
O162 Co137 1.941 . S
O162 C169 1.266 . S
H163 C165 0.959 . S
H164 C165 0.961 . S
C165 C155 1.510 . S
C165 H163 0.959 . S
C165 H164 0.961 . S
C165 H166 0.960 . S
H166 C165 0.960 . S
H167 N147 0.863 . S
O168 Co136 1.920 . S
O168 C141 1.289 . S
C169 O161 1.258 . S
C169 O162 1.266 . S
Co170 O173 1.970 . S
Co170 N187 1.989 . S
Co170 O195 1.967 . S
Co170 O202 1.920 . S
Co171 O174 1.966 . S
Co171 N180 2.022 . S
Co171 N188 1.993 . S
Co171 O196 1.941 . S
C172 O173 1.258 . S
C172 O174 1.263 . S
O173 Co170 1.970 . S
O173 C172 1.258 . S
O174 Co171 1.966 . S
O174 C172 1.263 . S
C175 O176 1.235 . S
C175 O202 1.289 . S
O176 C175 1.235 . S
C177 C179 1.400 . S
C177 N180 1.351 . S
C177 C182 1.501 . S
C178 C179 1.387 . S
C178 N181 1.341 . S
C179 C177 1.400 . S
C179 C178 1.387 . S
N180 Co171 2.022 . S
N180 C177 1.351 . S
N180 N181 1.365 . S
N181 C178 1.341 . S
N181 N180 1.365 . S
N181 H201 0.862 . S
C182 C177 1.501 . S
C182 H183 0.961 . S
C182 H184 0.961 . S
C182 H185 0.960 . S
H183 C182 0.961 . S
H184 C182 0.961 . S
H185 C182 0.960 . S
C186 N187 1.342 . S
C186 C190 1.401 . S
C186 C191 1.499 . S
N187 Co170 1.989 . S
N187 C186 1.342 . S
N187 N188 1.388 . S
N188 Co171 1.993 . S
N188 N187 1.388 . S
N188 C189 1.346 . S
C189 N188 1.346 . S
C189 C190 1.396 . S
C189 C199 1.510 . S
C190 C186 1.401 . S
C190 C189 1.396 . S
C191 C186 1.499 . S
C191 H192 0.959 . S
C191 H193 0.960 . S
C191 H194 0.961 . S
H192 C191 0.959 . S
H193 C191 0.960 . S
H194 C191 0.961 . S
O195 Co170 1.967 . S
O195 C203 1.258 . S
O196 Co171 1.941 . S
O196 C203 1.266 . S
H197 C199 0.959 . S
H198 C199 0.961 . S
C199 C189 1.510 . S
C199 H197 0.959 . S
C199 H198 0.961 . S
C199 H200 0.960 . S
H200 C199 0.960 . S
H201 N181 0.862 . S
O202 Co170 1.920 . S
O202 C175 1.289 . S
C203 O195 1.258 . S
C203 O196 1.266 . S
Co204 O207 1.970 . S
Co204 N221 1.989 . S
Co204 O229 1.967 . S
Co204 O236 1.920 . S
Co205 O208 1.966 . S
Co205 N214 2.022 . S
Co205 N222 1.993 . S
Co205 O230 1.941 . S
C206 O207 1.258 . S
C206 O208 1.263 . S
O207 Co204 1.970 . S
O207 C206 1.258 . S
O208 Co205 1.966 . S
O208 C206 1.263 . S
C209 O210 1.235 . S
C209 O236 1.289 . S
O210 C209 1.235 . S
C211 C213 1.418 . S
C211 N214 1.351 . S
C211 C216 1.501 . S
C212 C213 1.378 1_565 S
C212 N215 1.341 1_565 S
C213 C211 1.418 . S
C213 C212 1.378 1_545 S
N214 Co205 2.022 . S
N214 C211 1.351 . S
N214 N215 1.365 . S
N215 C212 1.341 1_545 S
N215 N214 1.365 . S
N215 H235 0.863 . S
C216 C211 1.501 . S
C216 H217 0.961 . S
C216 H218 0.961 . S
C216 H219 0.960 . S
H217 C216 0.961 . S
H218 C216 0.961 . S
H219 C216 0.960 . S
C220 N221 1.342 . S
C220 C224 1.401 . S
C220 C225 1.499 . S
N221 Co204 1.989 . S
N221 C220 1.342 . S
N221 N222 1.388 . S
N222 Co205 1.993 . S
N222 N221 1.388 . S
N222 C223 1.346 . S
C223 N222 1.346 . S
C223 C224 1.396 . S
C223 C233 1.510 . S
C224 C220 1.401 . S
C224 C223 1.396 . S
C225 C220 1.499 . S
C225 H226 0.959 . S
C225 H227 0.960 . S
C225 H228 0.961 . S
H226 C225 0.959 . S
H227 C225 0.960 . S
H228 C225 0.961 . S
O229 Co204 1.967 . S
O229 C237 1.258 . S
O230 Co205 1.941 . S
O230 C237 1.266 . S
H231 C233 0.959 . S
H232 C233 0.961 . S
C233 C223 1.510 . S
C233 H231 0.959 . S
C233 H232 0.961 . S
C233 H234 0.960 . S
H234 C233 0.960 . S
H235 N215 0.863 . S
O236 Co204 1.920 . S
O236 C209 1.289 . S
C237 O229 1.258 . S
C237 O230 1.266 . S
Co238 O241 1.970 . S
Co238 N255 1.989 . S
Co238 O263 1.967 . S
Co238 O270 1.920 . S
Co239 O242 1.966 . S
Co239 N248 2.022 . S
Co239 N256 1.993 . S
Co239 O264 1.941 . S
C240 O241 1.258 . S
C240 O242 1.263 . S
O241 Co238 1.970 . S
O241 C240 1.258 . S
O242 Co239 1.966 . S
O242 C240 1.263 . S
C243 O244 1.235 . S
C243 O270 1.289 . S
O244 C243 1.235 . S
C245 C247 1.400 . S
C245 N248 1.351 . S
C245 C250 1.501 . S
C246 C247 1.387 . S
C246 N249 1.341 . S
C247 C245 1.400 . S
C247 C246 1.387 . S
N248 Co239 2.022 . S
N248 C245 1.351 . S
N248 N249 1.365 . S
N249 C246 1.341 . S
N249 N248 1.365 . S
N249 H269 0.862 . S
C250 C245 1.501 . S
C250 H251 0.961 . S
C250 H252 0.961 . S
C250 H253 0.960 . S
H251 C250 0.961 . S
H252 C250 0.961 . S
H253 C250 0.960 . S
C254 N255 1.342 . S
C254 C258 1.401 . S
C254 C259 1.499 . S
N255 Co238 1.989 . S
N255 C254 1.342 . S
N255 N256 1.388 . S
N256 Co239 1.993 . S
N256 N255 1.388 . S
N256 C257 1.346 . S
C257 N256 1.346 . S
C257 C258 1.396 . S
C257 C267 1.510 . S
C258 C254 1.401 . S
C258 C257 1.396 . S
C259 C254 1.499 . S
C259 H260 0.959 . S
C259 H261 0.960 . S
C259 H262 0.961 . S
H260 C259 0.959 . S
H261 C259 0.960 . S
H262 C259 0.961 . S
O263 Co238 1.967 . S
O263 C271 1.258 . S
O264 Co239 1.941 . S
O264 C271 1.266 . S
H265 C267 0.959 . S
H266 C267 0.961 . S
C267 C257 1.510 . S
C267 H265 0.959 . S
C267 H266 0.961 . S
C267 H268 0.960 . S
H268 C267 0.960 . S
H269 N249 0.862 . S
O270 Co238 1.920 . S
O270 C243 1.289 . S
C271 O263 1.258 . S
C271 O264 1.266 . S
Co272 O275 1.970 . S
Co272 N289 1.989 . S
Co272 O297 1.967 . S
Co272 O304 1.920 . S
Co273 O276 1.966 . S
Co273 N282 2.022 . S
Co273 N290 1.993 . S
Co273 O298 1.941 . S
C274 O275 1.258 . S
C274 O276 1.263 . S
O275 Co272 1.970 . S
O275 C274 1.258 . S
O276 Co273 1.966 . S
O276 C274 1.263 . S
C277 O278 1.235 . S
C277 O304 1.289 . S
O278 C277 1.235 . S
C279 C281 1.418 . S
C279 N282 1.351 . S
C279 C284 1.501 . S
C280 C281 1.378 1_545 S
C280 N283 1.341 1_545 S
C281 C279 1.418 . S
C281 C280 1.378 1_565 S
N282 Co273 2.022 . S
N282 C279 1.351 . S
N282 N283 1.365 . S
N283 C280 1.341 1_565 S
N283 N282 1.365 . S
N283 H303 0.863 . S
C284 C279 1.501 . S
C284 H285 0.961 . S
C284 H286 0.961 . S
C284 H287 0.960 . S
H285 C284 0.961 . S
H286 C284 0.961 . S
H287 C284 0.960 . S
C288 N289 1.342 . S
C288 C292 1.401 . S
C288 C293 1.499 . S
N289 Co272 1.989 . S
N289 C288 1.342 . S
N289 N290 1.388 . S
N290 Co273 1.993 . S
N290 N289 1.388 . S
N290 C291 1.346 . S
C291 N290 1.346 . S
C291 C292 1.396 . S
C291 C301 1.510 . S
C292 C288 1.401 . S
C292 C291 1.396 . S
C293 C288 1.499 . S
C293 H294 0.959 . S
C293 H295 0.960 . S
C293 H296 0.961 . S
H294 C293 0.959 . S
H295 C293 0.960 . S
H296 C293 0.961 . S
O297 Co272 1.967 . S
O297 C305 1.258 . S
O298 Co273 1.941 . S
O298 C305 1.266 . S
H299 C301 0.959 . S
H300 C301 0.961 . S
C301 C291 1.510 . S
C301 H299 0.959 . S
C301 H300 0.961 . S
C301 H302 0.960 . S
H302 C301 0.960 . S
H303 N283 0.863 . S
O304 Co272 1.920 . S
O304 C277 1.289 . S
C305 O297 1.258 . S
C305 O298 1.266 . S
Co306 O309 1.970 . S
Co306 N323 1.989 . S
Co306 O331 1.967 . S
Co306 O338 1.920 . S
Co307 O310 1.966 . S
Co307 N316 2.022 . S
Co307 N324 1.993 . S
Co307 O332 1.941 . S
C308 O309 1.258 . S
C308 O310 1.263 . S
O309 Co306 1.970 . S
O309 C308 1.258 . S
O310 Co307 1.966 . S
O310 C308 1.263 . S
C311 O312 1.235 . S
C311 O338 1.289 . S
O312 C311 1.235 . S
C313 C315 1.400 . S
C313 N316 1.351 . S
C313 C318 1.501 . S
C314 C315 1.387 . S
C314 N317 1.341 . S
C315 C313 1.400 . S
C315 C314 1.387 . S
N316 Co307 2.022 . S
N316 C313 1.351 . S
N316 N317 1.365 . S
N317 C314 1.341 . S
N317 N316 1.365 . S
N317 H337 0.862 . S
C318 C313 1.501 . S
C318 H319 0.961 . S
C318 H320 0.961 . S
C318 H321 0.960 . S
H319 C318 0.961 . S
H320 C318 0.961 . S
H321 C318 0.960 . S
C322 N323 1.342 . S
C322 C326 1.401 . S
C322 C327 1.499 . S
N323 Co306 1.989 . S
N323 C322 1.342 . S
N323 N324 1.388 . S
N324 Co307 1.993 . S
N324 N323 1.388 . S
N324 C325 1.346 . S
C325 N324 1.346 . S
C325 C326 1.396 . S
C325 C335 1.510 . S
C326 C322 1.401 . S
C326 C325 1.396 . S
C327 C322 1.499 . S
C327 H328 0.959 . S
C327 H329 0.960 . S
C327 H330 0.961 . S
H328 C327 0.959 . S
H329 C327 0.960 . S
H330 C327 0.961 . S
O331 Co306 1.967 . S
O331 C339 1.258 . S
O332 Co307 1.941 . S
O332 C339 1.266 . S
H333 C335 0.959 . S
H334 C335 0.961 . S
C335 C325 1.510 . S
C335 H333 0.959 . S
C335 H334 0.961 . S
C335 H336 0.960 . S
H336 C335 0.960 . S
H337 N317 0.862 . S
O338 Co306 1.920 . S
O338 C311 1.289 . S
C339 O331 1.258 . S
C339 O332 1.266 . S
Co340 O343 1.970 . S
Co340 N357 1.989 . S
Co340 O365 1.967 . S
Co340 O372 1.920 . S
Co341 O344 1.966 . S
Co341 N350 2.022 . S
Co341 N358 1.993 . S
Co341 O366 1.941 . S
C342 O343 1.258 . S
C342 O344 1.263 . S
O343 Co340 1.970 . S
O343 C342 1.258 . S
O344 Co341 1.966 . S
O344 C342 1.263 . S
C345 O346 1.235 . S
C345 O372 1.289 . S
O346 C345 1.235 . S
C347 C349 1.418 . S
C347 N350 1.351 . S
C347 C352 1.501 . S
C348 C349 1.378 1_565 S
C348 N351 1.341 1_565 S
C349 C347 1.418 . S
C349 C348 1.378 1_545 S
N350 Co341 2.022 . S
N350 C347 1.351 . S
N350 N351 1.365 . S
N351 C348 1.341 1_545 S
N351 N350 1.365 . S
N351 H371 0.863 . S
C352 C347 1.501 . S
C352 H353 0.961 . S
C352 H354 0.961 . S
C352 H355 0.960 . S
H353 C352 0.961 . S
H354 C352 0.961 . S
H355 C352 0.960 . S
C356 N357 1.342 . S
C356 C360 1.401 . S
C356 C361 1.499 . S
N357 Co340 1.989 . S
N357 C356 1.342 . S
N357 N358 1.388 . S
N358 Co341 1.993 . S
N358 N357 1.388 . S
N358 C359 1.346 . S
C359 N358 1.346 . S
C359 C360 1.396 . S
C359 C369 1.510 . S
C360 C356 1.401 . S
C360 C359 1.396 . S
C361 C356 1.499 . S
C361 H362 0.959 . S
C361 H363 0.960 . S
C361 H364 0.961 . S
H362 C361 0.959 . S
H363 C361 0.960 . S
H364 C361 0.961 . S
O365 Co340 1.967 . S
O365 C373 1.258 . S
O366 Co341 1.941 . S
O366 C373 1.266 . S
H367 C369 0.959 . S
H368 C369 0.961 . S
C369 C359 1.510 . S
C369 H367 0.959 . S
C369 H368 0.961 . S
C369 H370 0.960 . S
H370 C369 0.960 . S
H371 N351 0.863 . S
O372 Co340 1.920 . S
O372 C345 1.289 . S
C373 O365 1.258 . S
C373 O366 1.266 . S
Co374 O377 1.970 . S
Co374 N391 1.989 . S
Co374 O399 1.967 . S
Co374 O406 1.920 . S
Co375 O378 1.966 . S
Co375 N384 2.022 . S
Co375 N392 1.993 . S
Co375 O400 1.941 . S
C376 O377 1.258 . S
C376 O378 1.263 . S
O377 Co374 1.970 . S
O377 C376 1.258 . S
O378 Co375 1.966 . S
O378 C376 1.263 . S
C379 O380 1.235 . S
C379 O406 1.289 . S
O380 C379 1.235 . S
C381 C383 1.400 . S
C381 N384 1.351 . S
C381 C386 1.501 . S
C382 C383 1.387 . S
C382 N385 1.341 . S
C383 C381 1.400 . S
C383 C382 1.387 . S
N384 Co375 2.022 . S
N384 C381 1.351 . S
N384 N385 1.365 . S
N385 C382 1.341 . S
N385 N384 1.365 . S
N385 H405 0.862 . S
C386 C381 1.501 . S
C386 H387 0.961 . S
C386 H388 0.961 . S
C386 H389 0.960 . S
H387 C386 0.961 . S
H388 C386 0.961 . S
H389 C386 0.960 . S
C390 N391 1.342 . S
C390 C394 1.401 . S
C390 C395 1.499 . S
N391 Co374 1.989 . S
N391 C390 1.342 . S
N391 N392 1.388 . S
N392 Co375 1.993 . S
N392 N391 1.388 . S
N392 C393 1.346 . S
C393 N392 1.346 . S
C393 C394 1.396 . S
C393 C403 1.510 . S
C394 C390 1.401 . S
C394 C393 1.396 . S
C395 C390 1.499 . S
C395 H396 0.959 . S
C395 H397 0.960 . S
C395 H398 0.961 . S
H396 C395 0.959 . S
H397 C395 0.960 . S
H398 C395 0.961 . S
O399 Co374 1.967 . S
O399 C407 1.258 . S
O400 Co375 1.941 . S
O400 C407 1.266 . S
H401 C403 0.959 . S
H402 C403 0.961 . S
C403 C393 1.510 . S
C403 H401 0.959 . S
C403 H402 0.961 . S
C403 H404 0.960 . S
H404 C403 0.960 . S
H405 N385 0.862 . S
O406 Co374 1.920 . S
O406 C379 1.289 . S
C407 O399 1.258 . S
C407 O400 1.266 . S
Co408 O411 1.970 . S
Co408 N425 1.989 . S
Co408 O433 1.967 . S
Co408 O440 1.920 . S
Co409 O412 1.966 . S
Co409 N418 2.022 . S
Co409 N426 1.993 . S
Co409 O434 1.941 . S
C410 O411 1.258 . S
C410 O412 1.263 . S
O411 Co408 1.970 . S
O411 C410 1.258 . S
O412 Co409 1.966 . S
O412 C410 1.263 . S
C413 O414 1.235 . S
C413 O440 1.289 . S
O414 C413 1.235 . S
C415 C417 1.418 . S
C415 N418 1.351 . S
C415 C420 1.501 . S
C416 C417 1.378 1_565 S
C416 N419 1.341 1_565 S
C417 C415 1.418 . S
C417 C416 1.378 1_545 S
N418 Co409 2.022 . S
N418 C415 1.351 . S
N418 N419 1.365 . S
N419 C416 1.341 1_545 S
N419 N418 1.365 . S
N419 H439 0.863 . S
C420 C415 1.501 . S
C420 H421 0.961 . S
C420 H422 0.961 . S
C420 H423 0.960 . S
H421 C420 0.961 . S
H422 C420 0.961 . S
H423 C420 0.960 . S
C424 N425 1.342 . S
C424 C428 1.401 . S
C424 C429 1.499 . S
N425 Co408 1.989 . S
N425 C424 1.342 . S
N425 N426 1.388 . S
N426 Co409 1.993 . S
N426 N425 1.388 . S
N426 C427 1.346 . S
C427 N426 1.346 . S
C427 C428 1.396 . S
C427 C437 1.510 . S
C428 C424 1.401 . S
C428 C427 1.396 . S
C429 C424 1.499 . S
C429 H430 0.959 . S
C429 H431 0.960 . S
C429 H432 0.961 . S
H430 C429 0.959 . S
H431 C429 0.960 . S
H432 C429 0.961 . S
O433 Co408 1.967 . S
O433 C441 1.258 . S
O434 Co409 1.941 . S
O434 C441 1.266 . S
H435 C437 0.959 . S
H436 C437 0.961 . S
C437 C427 1.510 . S
C437 H435 0.959 . S
C437 H436 0.961 . S
C437 H438 0.960 . S
H438 C437 0.960 . S
H439 N419 0.863 . S
O440 Co408 1.920 . S
O440 C413 1.289 . S
C441 O433 1.258 . S
C441 O434 1.266 . S
Co442 O445 1.970 . S
Co442 N459 1.989 . S
Co442 O467 1.967 . S
Co442 O474 1.920 . S
Co443 O446 1.966 . S
Co443 N452 2.022 . S
Co443 N460 1.993 . S
Co443 O468 1.941 . S
C444 O445 1.258 . S
C444 O446 1.263 . S
O445 Co442 1.970 . S
O445 C444 1.258 . S
O446 Co443 1.966 . S
O446 C444 1.263 . S
C447 O448 1.235 . S
C447 O474 1.289 . S
O448 C447 1.235 . S
C449 C451 1.400 . S
C449 N452 1.351 . S
C449 C454 1.501 . S
C450 C451 1.387 . S
C450 N453 1.341 . S
C451 C449 1.400 . S
C451 C450 1.387 . S
N452 Co443 2.022 . S
N452 C449 1.351 . S
N452 N453 1.365 . S
N453 C450 1.341 . S
N453 N452 1.365 . S
N453 H473 0.862 . S
C454 C449 1.501 . S
C454 H455 0.961 . S
C454 H456 0.961 . S
C454 H457 0.960 . S
H455 C454 0.961 . S
H456 C454 0.961 . S
H457 C454 0.960 . S
C458 N459 1.342 . S
C458 C462 1.401 . S
C458 C463 1.499 . S
N459 Co442 1.989 . S
N459 C458 1.342 . S
N459 N460 1.388 . S
N460 Co443 1.993 . S
N460 N459 1.388 . S
N460 C461 1.346 . S
C461 N460 1.346 . S
C461 C462 1.396 . S
C461 C471 1.510 . S
C462 C458 1.401 . S
C462 C461 1.396 . S
C463 C458 1.499 . S
C463 H464 0.959 . S
C463 H465 0.960 . S
C463 H466 0.961 . S
H464 C463 0.959 . S
H465 C463 0.960 . S
H466 C463 0.961 . S
O467 Co442 1.967 . S
O467 C475 1.258 . S
O468 Co443 1.941 . S
O468 C475 1.266 . S
H469 C471 0.959 . S
H470 C471 0.961 . S
C471 C461 1.510 . S
C471 H469 0.959 . S
C471 H470 0.961 . S
C471 H472 0.960 . S
H472 C471 0.960 . S
H473 N453 0.862 . S
O474 Co442 1.920 . S
O474 C447 1.289 . S
C475 O467 1.258 . S
C475 O468 1.266 . S
Co476 O479 1.970 . S
Co476 N493 1.989 . S
Co476 O501 1.967 . S
Co476 O508 1.920 . S
Co477 O480 1.966 . S
Co477 N486 2.022 . S
Co477 N494 1.993 . S
Co477 O502 1.941 . S
C478 O479 1.258 . S
C478 O480 1.263 . S
O479 Co476 1.970 . S
O479 C478 1.258 . S
O480 Co477 1.966 . S
O480 C478 1.263 . S
C481 O482 1.235 . S
C481 O508 1.289 . S
O482 C481 1.235 . S
C483 C485 1.418 . S
C483 N486 1.351 . S
C483 C488 1.501 . S
C484 C485 1.378 1_545 S
C484 N487 1.341 1_545 S
C485 C483 1.418 . S
C485 C484 1.378 1_565 S
N486 Co477 2.022 . S
N486 C483 1.351 . S
N486 N487 1.365 . S
N487 C484 1.341 1_565 S
N487 N486 1.365 . S
N487 H507 0.863 . S
C488 C483 1.501 . S
C488 H489 0.961 . S
C488 H490 0.961 . S
C488 H491 0.960 . S
H489 C488 0.961 . S
H490 C488 0.961 . S
H491 C488 0.960 . S
C492 N493 1.342 . S
C492 C496 1.401 . S
C492 C497 1.499 . S
N493 Co476 1.989 . S
N493 C492 1.342 . S
N493 N494 1.388 . S
N494 Co477 1.993 . S
N494 N493 1.388 . S
N494 C495 1.346 . S
C495 N494 1.346 . S
C495 C496 1.396 . S
C495 C505 1.510 . S
C496 C492 1.401 . S
C496 C495 1.396 . S
C497 C492 1.499 . S
C497 H498 0.959 . S
C497 H499 0.960 . S
C497 H500 0.961 . S
H498 C497 0.959 . S
H499 C497 0.960 . S
H500 C497 0.961 . S
O501 Co476 1.967 . S
O501 C509 1.258 . S
O502 Co477 1.941 . S
O502 C509 1.266 . S
H503 C505 0.959 . S
H504 C505 0.961 . S
C505 C495 1.510 . S
C505 H503 0.959 . S
C505 H504 0.961 . S
C505 H506 0.960 . S
H506 C505 0.960 . S
H507 N487 0.863 . S
O508 Co476 1.920 . S
O508 C481 1.289 . S
C509 O501 1.258 . S
C509 O502 1.266 . S
Co510 O513 1.970 . S
Co510 N527 1.989 . S
Co510 O535 1.967 . S
Co510 O542 1.920 . S
Co511 O514 1.966 . S
Co511 N520 2.022 . S
Co511 N528 1.993 . S
Co511 O536 1.941 . S
C512 O513 1.258 . S
C512 O514 1.263 . S
O513 Co510 1.970 . S
O513 C512 1.258 . S
O514 Co511 1.966 . S
O514 C512 1.263 . S
C515 O516 1.235 . S
C515 O542 1.289 . S
O516 C515 1.235 . S
C517 C519 1.400 . S
C517 N520 1.351 . S
C517 C522 1.501 . S
C518 C519 1.387 . S
C518 N521 1.341 . S
C519 C517 1.400 . S
C519 C518 1.387 . S
N520 Co511 2.022 . S
N520 C517 1.351 . S
N520 N521 1.365 . S
N521 C518 1.341 . S
N521 N520 1.365 . S
N521 H541 0.862 . S
C522 C517 1.501 . S
C522 H523 0.961 . S
C522 H524 0.961 . S
C522 H525 0.960 . S
H523 C522 0.961 . S
H524 C522 0.961 . S
H525 C522 0.960 . S
C526 N527 1.342 . S
C526 C530 1.401 . S
C526 C531 1.499 . S
N527 Co510 1.989 . S
N527 C526 1.342 . S
N527 N528 1.388 . S
N528 Co511 1.993 . S
N528 N527 1.388 . S
N528 C529 1.346 . S
C529 N528 1.346 . S
C529 C530 1.396 . S
C529 C539 1.510 . S
C530 C526 1.401 . S
C530 C529 1.396 . S
C531 C526 1.499 . S
C531 H532 0.959 . S
C531 H533 0.960 . S
C531 H534 0.961 . S
H532 C531 0.959 . S
H533 C531 0.960 . S
H534 C531 0.961 . S
O535 Co510 1.967 . S
O535 C543 1.258 . S
O536 Co511 1.941 . S
O536 C543 1.266 . S
H537 C539 0.959 . S
H538 C539 0.961 . S
C539 C529 1.510 . S
C539 H537 0.959 . S
C539 H538 0.961 . S
C539 H540 0.960 . S
H540 C539 0.960 . S
H541 N521 0.862 . S
O542 Co510 1.920 . S
O542 C515 1.289 . S
C543 O535 1.258 . S
C543 O536 1.266 . S
Co544 O547 1.970 . S
Co544 N561 1.989 . S
Co544 O569 1.967 . S
Co544 O576 1.920 . S
Co545 O548 1.966 . S
Co545 N554 2.022 . S
Co545 N562 1.993 . S
Co545 O570 1.941 . S
C546 O547 1.258 . S
C546 O548 1.263 . S
O547 Co544 1.970 . S
O547 C546 1.258 . S
O548 Co545 1.966 . S
O548 C546 1.263 . S
C549 O550 1.235 . S
C549 O576 1.289 . S
O550 C549 1.235 . S
C551 C553 1.400 . S
C551 N554 1.351 . S
C551 C556 1.501 . S
C552 C553 1.387 . S
C552 N555 1.341 . S
C553 C551 1.400 . S
C553 C552 1.387 . S
N554 Co545 2.022 . S
N554 C551 1.351 . S
N554 N555 1.365 . S
N555 C552 1.341 . S
N555 N554 1.365 . S
N555 H575 0.862 . S
C556 C551 1.501 . S
C556 H557 0.961 . S
C556 H558 0.961 . S
C556 H559 0.960 . S
H557 C556 0.961 . S
H558 C556 0.961 . S
H559 C556 0.960 . S
C560 N561 1.342 . S
C560 C564 1.401 . S
C560 C565 1.499 . S
N561 Co544 1.989 . S
N561 C560 1.342 . S
N561 N562 1.388 . S
N562 Co545 1.993 . S
N562 N561 1.388 . S
N562 C563 1.346 . S
C563 N562 1.346 . S
C563 C564 1.396 . S
C563 C573 1.510 . S
C564 C560 1.401 . S
C564 C563 1.396 . S
C565 C560 1.499 . S
C565 H566 0.959 . S
C565 H567 0.960 . S
C565 H568 0.961 . S
H566 C565 0.959 . S
H567 C565 0.960 . S
H568 C565 0.961 . S
O569 Co544 1.967 . S
O569 C577 1.258 . S
O570 Co545 1.941 . S
O570 C577 1.266 . S
H571 C573 0.959 . S
H572 C573 0.961 . S
C573 C563 1.510 . S
C573 H571 0.959 . S
C573 H572 0.961 . S
C573 H574 0.960 . S
H574 C573 0.960 . S
H575 N555 0.862 . S
O576 Co544 1.920 . S
O576 C549 1.289 . S
C577 O569 1.258 . S
C577 O570 1.266 . S
Co578 O581 1.970 . S
Co578 N595 1.989 . S
Co578 O603 1.967 . S
Co578 O610 1.920 . S
Co579 O582 1.966 . S
Co579 N588 2.022 . S
Co579 N596 1.993 . S
Co579 O604 1.941 . S
C580 O581 1.258 . S
C580 O582 1.263 . S
O581 Co578 1.970 . S
O581 C580 1.258 . S
O582 Co579 1.966 . S
O582 C580 1.263 . S
C583 O584 1.235 . S
C583 O610 1.289 . S
O584 C583 1.235 . S
C585 C587 1.400 . S
C585 N588 1.351 . S
C585 C590 1.501 . S
C586 C587 1.387 . S
C586 N589 1.341 . S
C587 C585 1.400 . S
C587 C586 1.387 . S
N588 Co579 2.022 . S
N588 C585 1.351 . S
N588 N589 1.365 . S
N589 C586 1.341 . S
N589 N588 1.365 . S
N589 H609 0.862 . S
C590 C585 1.501 . S
C590 H591 0.961 . S
C590 H592 0.961 . S
C590 H593 0.960 . S
H591 C590 0.961 . S
H592 C590 0.961 . S
H593 C590 0.960 . S
C594 N595 1.342 . S
C594 C598 1.401 . S
C594 C599 1.499 . S
N595 Co578 1.989 . S
N595 C594 1.342 . S
N595 N596 1.388 . S
N596 Co579 1.993 . S
N596 N595 1.388 . S
N596 C597 1.346 . S
C597 N596 1.346 . S
C597 C598 1.396 . S
C597 C607 1.510 . S
C598 C594 1.401 . S
C598 C597 1.396 . S
C599 C594 1.499 . S
C599 H600 0.959 . S
C599 H601 0.960 . S
C599 H602 0.961 . S
H600 C599 0.959 . S
H601 C599 0.960 . S
H602 C599 0.961 . S
O603 Co578 1.967 . S
O603 C611 1.258 . S
O604 Co579 1.941 . S
O604 C611 1.266 . S
H605 C607 0.959 . S
H606 C607 0.961 . S
C607 C597 1.510 . S
C607 H605 0.959 . S
C607 H606 0.961 . S
C607 H608 0.960 . S
H608 C607 0.960 . S
H609 N589 0.862 . S
O610 Co578 1.920 . S
O610 C583 1.289 . S
C611 O603 1.258 . S
C611 O604 1.266 . S
Co612 O615 1.970 . S
Co612 N629 1.989 . S
Co612 O637 1.967 . S
Co612 O644 1.920 . S
Co613 O616 1.966 . S
Co613 N622 2.022 . S
Co613 N630 1.993 . S
Co613 O638 1.941 . S
C614 O615 1.258 . S
C614 O616 1.263 . S
O615 Co612 1.970 . S
O615 C614 1.258 . S
O616 Co613 1.966 . S
O616 C614 1.263 . S
C617 O618 1.235 . S
C617 O644 1.289 . S
O618 C617 1.235 . S
C619 C621 1.400 . S
C619 N622 1.351 . S
C619 C624 1.501 . S
C620 C621 1.387 . S
C620 N623 1.341 . S
C621 C619 1.400 . S
C621 C620 1.387 . S
N622 Co613 2.022 . S
N622 C619 1.351 . S
N622 N623 1.365 . S
N623 C620 1.341 . S
N623 N622 1.365 . S
N623 H643 0.862 . S
C624 C619 1.501 . S
C624 H625 0.961 . S
C624 H626 0.961 . S
C624 H627 0.960 . S
H625 C624 0.961 . S
H626 C624 0.961 . S
H627 C624 0.960 . S
C628 N629 1.342 . S
C628 C632 1.401 . S
C628 C633 1.499 . S
N629 Co612 1.989 . S
N629 C628 1.342 . S
N629 N630 1.388 . S
N630 Co613 1.993 . S
N630 N629 1.388 . S
N630 C631 1.346 . S
C631 N630 1.346 . S
C631 C632 1.396 . S
C631 C641 1.510 . S
C632 C628 1.401 . S
C632 C631 1.396 . S
C633 C628 1.499 . S
C633 H634 0.959 . S
C633 H635 0.960 . S
C633 H636 0.961 . S
H634 C633 0.959 . S
H635 C633 0.960 . S
H636 C633 0.961 . S
O637 Co612 1.967 . S
O637 C645 1.258 . S
O638 Co613 1.941 . S
O638 C645 1.266 . S
H639 C641 0.959 . S
H640 C641 0.961 . S
C641 C631 1.510 . S
C641 H639 0.959 . S
C641 H640 0.961 . S
C641 H642 0.960 . S
H642 C641 0.960 . S
H643 N623 0.862 . S
O644 Co612 1.920 . S
O644 C617 1.289 . S
C645 O637 1.258 . S
C645 O638 1.266 . S
Co646 O649 1.970 . S
Co646 N663 1.989 . S
Co646 O671 1.967 . S
Co646 O678 1.920 . S
Co647 O650 1.966 . S
Co647 N656 2.022 . S
Co647 N664 1.993 . S
Co647 O672 1.941 . S
C648 O649 1.258 . S
C648 O650 1.263 . S
O649 Co646 1.970 . S
O649 C648 1.258 . S
O650 Co647 1.966 . S
O650 C648 1.263 . S
C651 O652 1.235 . S
C651 O678 1.289 . S
O652 C651 1.235 . S
C653 C655 1.400 . S
C653 N656 1.351 . S
C653 C658 1.501 . S
C654 C655 1.387 . S
C654 N657 1.341 . S
C655 C653 1.400 . S
C655 C654 1.387 . S
N656 Co647 2.022 . S
N656 C653 1.351 . S
N656 N657 1.365 . S
N657 C654 1.341 . S
N657 N656 1.365 . S
N657 H677 0.862 . S
C658 C653 1.501 . S
C658 H659 0.961 . S
C658 H660 0.961 . S
C658 H661 0.960 . S
H659 C658 0.961 . S
H660 C658 0.961 . S
H661 C658 0.960 . S
C662 N663 1.342 . S
C662 C666 1.401 . S
C662 C667 1.499 . S
N663 Co646 1.989 . S
N663 C662 1.342 . S
N663 N664 1.388 . S
N664 Co647 1.993 . S
N664 N663 1.388 . S
N664 C665 1.346 . S
C665 N664 1.346 . S
C665 C666 1.396 . S
C665 C675 1.510 . S
C666 C662 1.401 . S
C666 C665 1.396 . S
C667 C662 1.499 . S
C667 H668 0.959 . S
C667 H669 0.960 . S
C667 H670 0.961 . S
H668 C667 0.959 . S
H669 C667 0.960 . S
H670 C667 0.961 . S
O671 Co646 1.967 . S
O671 C679 1.258 . S
O672 Co647 1.941 . S
O672 C679 1.266 . S
H673 C675 0.959 . S
H674 C675 0.961 . S
C675 C665 1.510 . S
C675 H673 0.959 . S
C675 H674 0.961 . S
C675 H676 0.960 . S
H676 C675 0.960 . S
H677 N657 0.862 . S
O678 Co646 1.920 . S
O678 C651 1.289 . S
C679 O671 1.258 . S
C679 O672 1.266 . S
Co680 O683 1.970 . S
Co680 N697 1.989 . S
Co680 O705 1.967 . S
Co680 O712 1.920 . S
Co681 O684 1.966 . S
Co681 N690 2.022 . S
Co681 N698 1.993 . S
Co681 O706 1.941 . S
C682 O683 1.258 . S
C682 O684 1.263 . S
O683 Co680 1.970 . S
O683 C682 1.258 . S
O684 Co681 1.966 . S
O684 C682 1.263 . S
C685 O686 1.235 . S
C685 O712 1.289 . S
O686 C685 1.235 . S
C687 C689 1.400 . S
C687 N690 1.351 . S
C687 C692 1.501 . S
C688 C689 1.387 . S
C688 N691 1.341 . S
C689 C687 1.400 . S
C689 C688 1.387 . S
N690 Co681 2.022 . S
N690 C687 1.351 . S
N690 N691 1.365 . S
N691 C688 1.341 . S
N691 N690 1.365 . S
N691 H711 0.862 . S
C692 C687 1.501 . S
C692 H693 0.961 . S
C692 H694 0.961 . S
C692 H695 0.960 . S
H693 C692 0.961 . S
H694 C692 0.961 . S
H695 C692 0.960 . S
C696 N697 1.342 . S
C696 C700 1.401 . S
C696 C701 1.499 . S
N697 Co680 1.989 . S
N697 C696 1.342 . S
N697 N698 1.388 . S
N698 Co681 1.993 . S
N698 N697 1.388 . S
N698 C699 1.346 . S
C699 N698 1.346 . S
C699 C700 1.396 . S
C699 C709 1.510 . S
C700 C696 1.401 . S
C700 C699 1.396 . S
C701 C696 1.499 . S
C701 H702 0.959 . S
C701 H703 0.960 . S
C701 H704 0.961 . S
H702 C701 0.959 . S
H703 C701 0.960 . S
H704 C701 0.961 . S
O705 Co680 1.967 . S
O705 C713 1.258 . S
O706 Co681 1.941 . S
O706 C713 1.266 . S
H707 C709 0.959 . S
H708 C709 0.961 . S
C709 C699 1.510 . S
C709 H707 0.959 . S
C709 H708 0.961 . S
C709 H710 0.960 . S
H710 C709 0.960 . S
H711 N691 0.862 . S
O712 Co680 1.920 . S
O712 C685 1.289 . S
C713 O705 1.258 . S
C713 O706 1.266 . S
Co714 O717 1.970 . S
Co714 N731 1.989 . S
Co714 O739 1.967 . S
Co714 O746 1.920 . S
Co715 O718 1.966 . S
Co715 N724 2.022 . S
Co715 N732 1.993 . S
Co715 O740 1.941 . S
C716 O717 1.258 . S
C716 O718 1.263 . S
O717 Co714 1.970 . S
O717 C716 1.258 . S
O718 Co715 1.966 . S
O718 C716 1.263 . S
C719 O720 1.235 . S
C719 O746 1.289 . S
O720 C719 1.235 . S
C721 C723 1.400 . S
C721 N724 1.351 . S
C721 C726 1.501 . S
C722 C723 1.387 . S
C722 N725 1.341 . S
C723 C721 1.400 . S
C723 C722 1.387 . S
N724 Co715 2.022 . S
N724 C721 1.351 . S
N724 N725 1.365 . S
N725 C722 1.341 . S
N725 N724 1.365 . S
N725 H745 0.862 . S
C726 C721 1.501 . S
C726 H727 0.961 . S
C726 H728 0.961 . S
C726 H729 0.960 . S
H727 C726 0.961 . S
H728 C726 0.961 . S
H729 C726 0.960 . S
C730 N731 1.342 . S
C730 C734 1.401 . S
C730 C735 1.499 . S
N731 Co714 1.989 . S
N731 C730 1.342 . S
N731 N732 1.388 . S
N732 Co715 1.993 . S
N732 N731 1.388 . S
N732 C733 1.346 . S
C733 N732 1.346 . S
C733 C734 1.396 . S
C733 C743 1.510 . S
C734 C730 1.401 . S
C734 C733 1.396 . S
C735 C730 1.499 . S
C735 H736 0.959 . S
C735 H737 0.960 . S
C735 H738 0.961 . S
H736 C735 0.959 . S
H737 C735 0.960 . S
H738 C735 0.961 . S
O739 Co714 1.967 . S
O739 C747 1.258 . S
O740 Co715 1.941 . S
O740 C747 1.266 . S
H741 C743 0.959 . S
H742 C743 0.961 . S
C743 C733 1.510 . S
C743 H741 0.959 . S
C743 H742 0.961 . S
C743 H744 0.960 . S
H744 C743 0.960 . S
H745 N725 0.862 . S
O746 Co714 1.920 . S
O746 C719 1.289 . S
C747 O739 1.258 . S
C747 O740 1.266 . S
Co748 O751 1.970 . S
Co748 N765 1.989 . S
Co748 O773 1.967 . S
Co748 O780 1.920 . S
Co749 O752 1.966 . S
Co749 N758 2.022 . S
Co749 N766 1.993 . S
Co749 O774 1.941 . S
C750 O751 1.258 . S
C750 O752 1.263 . S
O751 Co748 1.970 . S
O751 C750 1.258 . S
O752 Co749 1.966 . S
O752 C750 1.263 . S
C753 O754 1.235 . S
C753 O780 1.289 . S
O754 C753 1.235 . S
C755 C757 1.400 . S
C755 N758 1.351 . S
C755 C760 1.501 . S
C756 C757 1.387 . S
C756 N759 1.341 . S
C757 C755 1.400 . S
C757 C756 1.387 . S
N758 Co749 2.022 . S
N758 C755 1.351 . S
N758 N759 1.365 . S
N759 C756 1.341 . S
N759 N758 1.365 . S
N759 H779 0.862 . S
C760 C755 1.501 . S
C760 H761 0.961 . S
C760 H762 0.961 . S
C760 H763 0.960 . S
H761 C760 0.961 . S
H762 C760 0.961 . S
H763 C760 0.960 . S
C764 N765 1.342 . S
C764 C768 1.401 . S
C764 C769 1.499 . S
N765 Co748 1.989 . S
N765 C764 1.342 . S
N765 N766 1.388 . S
N766 Co749 1.993 . S
N766 N765 1.388 . S
N766 C767 1.346 . S
C767 N766 1.346 . S
C767 C768 1.396 . S
C767 C777 1.510 . S
C768 C764 1.401 . S
C768 C767 1.396 . S
C769 C764 1.499 . S
C769 H770 0.959 . S
C769 H771 0.960 . S
C769 H772 0.961 . S
H770 C769 0.959 . S
H771 C769 0.960 . S
H772 C769 0.961 . S
O773 Co748 1.967 . S
O773 C781 1.258 . S
O774 Co749 1.941 . S
O774 C781 1.266 . S
H775 C777 0.959 . S
H776 C777 0.961 . S
C777 C767 1.510 . S
C777 H775 0.959 . S
C777 H776 0.961 . S
C777 H778 0.960 . S
H778 C777 0.960 . S
H779 N759 0.862 . S
O780 Co748 1.920 . S
O780 C753 1.289 . S
C781 O773 1.258 . S
C781 O774 1.266 . S
Co782 O785 1.970 . S
Co782 N799 1.989 . S
Co782 O807 1.967 . S
Co782 O814 1.920 . S
Co783 O786 1.966 . S
Co783 N792 2.022 . S
Co783 N800 1.993 . S
Co783 O808 1.941 . S
C784 O785 1.258 . S
C784 O786 1.263 . S
O785 Co782 1.970 . S
O785 C784 1.258 . S
O786 Co783 1.966 . S
O786 C784 1.263 . S
C787 O788 1.235 . S
C787 O814 1.289 . S
O788 C787 1.235 . S
C789 C791 1.400 . S
C789 N792 1.351 . S
C789 C794 1.501 . S
C790 C791 1.387 . S
C790 N793 1.341 . S
C791 C789 1.400 . S
C791 C790 1.387 . S
N792 Co783 2.022 . S
N792 C789 1.351 . S
N792 N793 1.365 . S
N793 C790 1.341 . S
N793 N792 1.365 . S
N793 H813 0.862 . S
C794 C789 1.501 . S
C794 H795 0.961 . S
C794 H796 0.961 . S
C794 H797 0.960 . S
H795 C794 0.961 . S
H796 C794 0.961 . S
H797 C794 0.960 . S
C798 N799 1.342 . S
C798 C802 1.401 . S
C798 C803 1.499 . S
N799 Co782 1.989 . S
N799 C798 1.342 . S
N799 N800 1.388 . S
N800 Co783 1.993 . S
N800 N799 1.388 . S
N800 C801 1.346 . S
C801 N800 1.346 . S
C801 C802 1.396 . S
C801 C811 1.510 . S
C802 C798 1.401 . S
C802 C801 1.396 . S
C803 C798 1.499 . S
C803 H804 0.959 . S
C803 H805 0.960 . S
C803 H806 0.961 . S
H804 C803 0.959 . S
H805 C803 0.960 . S
H806 C803 0.961 . S
O807 Co782 1.967 . S
O807 C815 1.258 . S
O808 Co783 1.941 . S
O808 C815 1.266 . S
H809 C811 0.959 . S
H810 C811 0.961 . S
C811 C801 1.510 . S
C811 H809 0.959 . S
C811 H810 0.961 . S
C811 H812 0.960 . S
H812 C811 0.960 . S
H813 N793 0.862 . S
O814 Co782 1.920 . S
O814 C787 1.289 . S
C815 O807 1.258 . S
C815 O808 1.266 . S
Co816 O819 1.970 . S
Co816 N833 1.989 . S
Co816 O841 1.967 . S
Co816 O848 1.920 . S
Co817 O820 1.966 . S
Co817 N826 2.022 . S
Co817 N834 1.993 . S
Co817 O842 1.941 . S
C818 O819 1.258 . S
C818 O820 1.263 . S
O819 Co816 1.970 . S
O819 C818 1.258 . S
O820 Co817 1.966 . S
O820 C818 1.263 . S
C821 O822 1.235 . S
C821 O848 1.289 . S
O822 C821 1.235 . S
C823 C825 1.400 . S
C823 N826 1.351 . S
C823 C828 1.501 . S
C824 C825 1.387 . S
C824 N827 1.341 . S
C825 C823 1.400 . S
C825 C824 1.387 . S
N826 Co817 2.022 . S
N826 C823 1.351 . S
N826 N827 1.365 . S
N827 C824 1.341 . S
N827 N826 1.365 . S
N827 H847 0.862 . S
C828 C823 1.501 . S
C828 H829 0.961 . S
C828 H830 0.961 . S
C828 H831 0.960 . S
H829 C828 0.961 . S
H830 C828 0.961 . S
H831 C828 0.960 . S
C832 N833 1.342 . S
C832 C836 1.401 . S
C832 C837 1.499 . S
N833 Co816 1.989 . S
N833 C832 1.342 . S
N833 N834 1.388 . S
N834 Co817 1.993 . S
N834 N833 1.388 . S
N834 C835 1.346 . S
C835 N834 1.346 . S
C835 C836 1.396 . S
C835 C845 1.510 . S
C836 C832 1.401 . S
C836 C835 1.396 . S
C837 C832 1.499 . S
C837 H838 0.959 . S
C837 H839 0.960 . S
C837 H840 0.961 . S
H838 C837 0.959 . S
H839 C837 0.960 . S
H840 C837 0.961 . S
O841 Co816 1.967 . S
O841 C849 1.258 . S
O842 Co817 1.941 . S
O842 C849 1.266 . S
H843 C845 0.959 . S
H844 C845 0.961 . S
C845 C835 1.510 . S
C845 H843 0.959 . S
C845 H844 0.961 . S
C845 H846 0.960 . S
H846 C845 0.960 . S
H847 N827 0.862 . S
O848 Co816 1.920 . S
O848 C821 1.289 . S
C849 O841 1.258 . S
C849 O842 1.266 . S
Co850 O853 1.970 . S
Co850 N867 1.989 . S
Co850 O875 1.967 . S
Co850 O882 1.920 . S
Co851 O854 1.966 . S
Co851 N860 2.022 . S
Co851 N868 1.993 . S
Co851 O876 1.941 . S
C852 O853 1.258 . S
C852 O854 1.263 . S
O853 Co850 1.970 . S
O853 C852 1.258 . S
O854 Co851 1.966 . S
O854 C852 1.263 . S
C855 O856 1.235 . S
C855 O882 1.289 . S
O856 C855 1.235 . S
C857 C859 1.400 . S
C857 N860 1.351 . S
C857 C862 1.501 . S
C858 C859 1.387 . S
C858 N861 1.341 . S
C859 C857 1.400 . S
C859 C858 1.387 . S
N860 Co851 2.022 . S
N860 C857 1.351 . S
N860 N861 1.365 . S
N861 C858 1.341 . S
N861 N860 1.365 . S
N861 H881 0.862 . S
C862 C857 1.501 . S
C862 H863 0.961 . S
C862 H864 0.961 . S
C862 H865 0.960 . S
H863 C862 0.961 . S
H864 C862 0.961 . S
H865 C862 0.960 . S
C866 N867 1.342 . S
C866 C870 1.401 . S
C866 C871 1.499 . S
N867 Co850 1.989 . S
N867 C866 1.342 . S
N867 N868 1.388 . S
N868 Co851 1.993 . S
N868 N867 1.388 . S
N868 C869 1.346 . S
C869 N868 1.346 . S
C869 C870 1.396 . S
C869 C879 1.510 . S
C870 C866 1.401 . S
C870 C869 1.396 . S
C871 C866 1.499 . S
C871 H872 0.959 . S
C871 H873 0.960 . S
C871 H874 0.961 . S
H872 C871 0.959 . S
H873 C871 0.960 . S
H874 C871 0.961 . S
O875 Co850 1.967 . S
O875 C883 1.258 . S
O876 Co851 1.941 . S
O876 C883 1.266 . S
H877 C879 0.959 . S
H878 C879 0.961 . S
C879 C869 1.510 . S
C879 H877 0.959 . S
C879 H878 0.961 . S
C879 H880 0.960 . S
H880 C879 0.960 . S
H881 N861 0.862 . S
O882 Co850 1.920 . S
O882 C855 1.289 . S
C883 O875 1.258 . S
C883 O876 1.266 . S
Co884 O887 1.970 . S
Co884 N901 1.989 . S
Co884 O909 1.967 . S
Co884 O916 1.920 . S
Co885 O888 1.966 . S
Co885 N894 2.022 . S
Co885 N902 1.993 . S
Co885 O910 1.941 . S
C886 O887 1.258 . S
C886 O888 1.263 . S
O887 Co884 1.970 . S
O887 C886 1.258 . S
O888 Co885 1.966 . S
O888 C886 1.263 . S
C889 O890 1.235 . S
C889 O916 1.289 . S
O890 C889 1.235 . S
C891 C893 1.400 . S
C891 N894 1.351 . S
C891 C896 1.501 . S
C892 C893 1.387 . S
C892 N895 1.341 . S
C893 C891 1.400 . S
C893 C892 1.387 . S
N894 Co885 2.022 . S
N894 C891 1.351 . S
N894 N895 1.365 . S
N895 C892 1.341 . S
N895 N894 1.365 . S
N895 H915 0.862 . S
C896 C891 1.501 . S
C896 H897 0.961 . S
C896 H898 0.961 . S
C896 H899 0.960 . S
H897 C896 0.961 . S
H898 C896 0.961 . S
H899 C896 0.960 . S
C900 N901 1.342 . S
C900 C904 1.401 . S
C900 C905 1.499 . S
N901 Co884 1.989 . S
N901 C900 1.342 . S
N901 N902 1.388 . S
N902 Co885 1.993 . S
N902 N901 1.388 . S
N902 C903 1.346 . S
C903 N902 1.346 . S
C903 C904 1.396 . S
C903 C913 1.510 . S
C904 C900 1.401 . S
C904 C903 1.396 . S
C905 C900 1.499 . S
C905 H906 0.959 . S
C905 H907 0.960 . S
C905 H908 0.961 . S
H906 C905 0.959 . S
H907 C905 0.960 . S
H908 C905 0.961 . S
O909 Co884 1.967 . S
O909 C917 1.258 . S
O910 Co885 1.941 . S
O910 C917 1.266 . S
H911 C913 0.959 . S
H912 C913 0.961 . S
C913 C903 1.510 . S
C913 H911 0.959 . S
C913 H912 0.961 . S
C913 H914 0.960 . S
H914 C913 0.960 . S
H915 N895 0.862 . S
O916 Co884 1.920 . S
O916 C889 1.289 . S
C917 O909 1.258 . S
C917 O910 1.266 . S
Co918 O921 1.970 . S
Co918 N935 1.989 . S
Co918 O943 1.967 . S
Co918 O950 1.920 . S
Co919 O922 1.966 . S
Co919 N928 2.022 . S
Co919 N936 1.993 . S
Co919 O944 1.941 . S
C920 O921 1.258 . S
C920 O922 1.263 . S
O921 Co918 1.970 . S
O921 C920 1.258 . S
O922 Co919 1.966 . S
O922 C920 1.263 . S
C923 O924 1.235 . S
C923 O950 1.289 . S
O924 C923 1.235 . S
C925 C927 1.400 . S
C925 N928 1.351 . S
C925 C930 1.501 . S
C926 C927 1.387 . S
C926 N929 1.341 . S
C927 C925 1.400 . S
C927 C926 1.387 . S
N928 Co919 2.022 . S
N928 C925 1.351 . S
N928 N929 1.365 . S
N929 C926 1.341 . S
N929 N928 1.365 . S
N929 H949 0.862 . S
C930 C925 1.501 . S
C930 H931 0.961 . S
C930 H932 0.961 . S
C930 H933 0.960 . S
H931 C930 0.961 . S
H932 C930 0.961 . S
H933 C930 0.960 . S
C934 N935 1.342 . S
C934 C938 1.401 . S
C934 C939 1.499 . S
N935 Co918 1.989 . S
N935 C934 1.342 . S
N935 N936 1.388 . S
N936 Co919 1.993 . S
N936 N935 1.388 . S
N936 C937 1.346 . S
C937 N936 1.346 . S
C937 C938 1.396 . S
C937 C947 1.510 . S
C938 C934 1.401 . S
C938 C937 1.396 . S
C939 C934 1.499 . S
C939 H940 0.959 . S
C939 H941 0.960 . S
C939 H942 0.961 . S
H940 C939 0.959 . S
H941 C939 0.960 . S
H942 C939 0.961 . S
O943 Co918 1.967 . S
O943 C951 1.258 . S
O944 Co919 1.941 . S
O944 C951 1.266 . S
H945 C947 0.959 . S
H946 C947 0.961 . S
C947 C937 1.510 . S
C947 H945 0.959 . S
C947 H946 0.961 . S
C947 H948 0.960 . S
H948 C947 0.960 . S
H949 N929 0.862 . S
O950 Co918 1.920 . S
O950 C923 1.289 . S
C951 O943 1.258 . S
C951 O944 1.266 . S
Co952 O955 1.970 . S
Co952 N969 1.989 . S
Co952 O977 1.967 . S
Co952 O984 1.920 . S
Co953 O956 1.966 . S
Co953 N962 2.022 . S
Co953 N970 1.993 . S
Co953 O978 1.941 . S
C954 O955 1.258 . S
C954 O956 1.263 . S
O955 Co952 1.970 . S
O955 C954 1.258 . S
O956 Co953 1.966 . S
O956 C954 1.263 . S
C957 O958 1.235 . S
C957 O984 1.289 . S
O958 C957 1.235 . S
C959 C961 1.400 . S
C959 N962 1.351 . S
C959 C964 1.501 . S
C960 C961 1.387 . S
C960 N963 1.341 . S
C961 C959 1.400 . S
C961 C960 1.387 . S
N962 Co953 2.022 . S
N962 C959 1.351 . S
N962 N963 1.365 . S
N963 C960 1.341 . S
N963 N962 1.365 . S
N963 H983 0.862 . S
C964 C959 1.501 . S
C964 H965 0.961 . S
C964 H966 0.961 . S
C964 H967 0.960 . S
H965 C964 0.961 . S
H966 C964 0.961 . S
H967 C964 0.960 . S
C968 N969 1.342 . S
C968 C972 1.401 . S
C968 C973 1.499 . S
N969 Co952 1.989 . S
N969 C968 1.342 . S
N969 N970 1.388 . S
N970 Co953 1.993 . S
N970 N969 1.388 . S
N970 C971 1.346 . S
C971 N970 1.346 . S
C971 C972 1.396 . S
C971 C981 1.510 . S
C972 C968 1.401 . S
C972 C971 1.396 . S
C973 C968 1.499 . S
C973 H974 0.959 . S
C973 H975 0.960 . S
C973 H976 0.961 . S
H974 C973 0.959 . S
H975 C973 0.960 . S
H976 C973 0.961 . S
O977 Co952 1.967 . S
O977 C985 1.258 . S
O978 Co953 1.941 . S
O978 C985 1.266 . S
H979 C981 0.959 . S
H980 C981 0.961 . S
C981 C971 1.510 . S
C981 H979 0.959 . S
C981 H980 0.961 . S
C981 H982 0.960 . S
H982 C981 0.960 . S
H983 N963 0.862 . S
O984 Co952 1.920 . S
O984 C957 1.289 . S
C985 O977 1.258 . S
C985 O978 1.266 . S
Co986 O989 1.970 . S
Co986 N1003 1.989 . S
Co986 O1011 1.967 . S
Co986 O1018 1.920 . S
Co987 O990 1.966 . S
Co987 N996 2.022 . S
Co987 N1004 1.993 . S
Co987 O1012 1.941 . S
C988 O989 1.258 . S
C988 O990 1.263 . S
O989 Co986 1.970 . S
O989 C988 1.258 . S
O990 Co987 1.966 . S
O990 C988 1.263 . S
C991 O992 1.235 . S
C991 O1018 1.289 . S
O992 C991 1.235 . S
C993 C995 1.400 . S
C993 N996 1.351 . S
C993 C998 1.501 . S
C994 C995 1.387 . S
C994 N997 1.341 . S
C995 C993 1.400 . S
C995 C994 1.387 . S
N996 Co987 2.022 . S
N996 C993 1.351 . S
N996 N997 1.365 . S
N997 C994 1.341 . S
N997 N996 1.365 . S
N997 H1017 0.862 . S
C998 C993 1.501 . S
C998 H999 0.961 . S
C998 H1000 0.961 . S
C998 H1001 0.960 . S
H999 C998 0.961 . S
H1000 C998 0.961 . S
H1001 C998 0.960 . S
C1002 N1003 1.342 . S
C1002 C1006 1.401 . S
C1002 C1007 1.499 . S
N1003 Co986 1.989 . S
N1003 C1002 1.342 . S
N1003 N1004 1.388 . S
N1004 Co987 1.993 . S
N1004 N1003 1.388 . S
N1004 C1005 1.346 . S
C1005 N1004 1.346 . S
C1005 C1006 1.396 . S
C1005 C1015 1.510 . S
C1006 C1002 1.401 . S
C1006 C1005 1.396 . S
C1007 C1002 1.499 . S
C1007 H1008 0.959 . S
C1007 H1009 0.960 . S
C1007 H1010 0.961 . S
H1008 C1007 0.959 . S
H1009 C1007 0.960 . S
H1010 C1007 0.961 . S
O1011 Co986 1.967 . S
O1011 C1019 1.258 . S
O1012 Co987 1.941 . S
O1012 C1019 1.266 . S
H1013 C1015 0.959 . S
H1014 C1015 0.961 . S
C1015 C1005 1.510 . S
C1015 H1013 0.959 . S
C1015 H1014 0.961 . S
C1015 H1016 0.960 . S
H1016 C1015 0.960 . S
H1017 N997 0.862 . S
O1018 Co986 1.920 . S
O1018 C991 1.289 . S
C1019 O1011 1.258 . S
C1019 O1012 1.266 . S
Co1020 O1023 1.970 . S
Co1020 N1037 1.989 . S
Co1020 O1045 1.967 . S
Co1020 O1052 1.920 . S
Co1021 O1024 1.966 . S
Co1021 N1030 2.022 . S
Co1021 N1038 1.993 . S
Co1021 O1046 1.941 . S
C1022 O1023 1.258 . S
C1022 O1024 1.263 . S
O1023 Co1020 1.970 . S
O1023 C1022 1.258 . S
O1024 Co1021 1.966 . S
O1024 C1022 1.263 . S
C1025 O1026 1.235 . S
C1025 O1052 1.289 . S
O1026 C1025 1.235 . S
C1027 C1029 1.400 . S
C1027 N1030 1.351 . S
C1027 C1032 1.501 . S
C1028 C1029 1.387 . S
C1028 N1031 1.341 . S
C1029 C1027 1.400 . S
C1029 C1028 1.387 . S
N1030 Co1021 2.022 . S
N1030 C1027 1.351 . S
N1030 N1031 1.365 . S
N1031 C1028 1.341 . S
N1031 N1030 1.365 . S
N1031 H1051 0.862 . S
C1032 C1027 1.501 . S
C1032 H1033 0.961 . S
C1032 H1034 0.961 . S
C1032 H1035 0.960 . S
H1033 C1032 0.961 . S
H1034 C1032 0.961 . S
H1035 C1032 0.960 . S
C1036 N1037 1.342 . S
C1036 C1040 1.401 . S
C1036 C1041 1.499 . S
N1037 Co1020 1.989 . S
N1037 C1036 1.342 . S
N1037 N1038 1.388 . S
N1038 Co1021 1.993 . S
N1038 N1037 1.388 . S
N1038 C1039 1.346 . S
C1039 N1038 1.346 . S
C1039 C1040 1.396 . S
C1039 C1049 1.510 . S
C1040 C1036 1.401 . S
C1040 C1039 1.396 . S
C1041 C1036 1.499 . S
C1041 H1042 0.959 . S
C1041 H1043 0.960 . S
C1041 H1044 0.961 . S
H1042 C1041 0.959 . S
H1043 C1041 0.960 . S
H1044 C1041 0.961 . S
O1045 Co1020 1.967 . S
O1045 C1053 1.258 . S
O1046 Co1021 1.941 . S
O1046 C1053 1.266 . S
H1047 C1049 0.959 . S
H1048 C1049 0.961 . S
C1049 C1039 1.510 . S
C1049 H1047 0.959 . S
C1049 H1048 0.961 . S
C1049 H1050 0.960 . S
H1050 C1049 0.960 . S
H1051 N1031 0.862 . S
O1052 Co1020 1.920 . S
O1052 C1025 1.289 . S
C1053 O1045 1.258 . S
C1053 O1046 1.266 . S
Co1054 O1057 1.970 . S
Co1054 N1071 1.989 . S
Co1054 O1079 1.967 . S
Co1054 O1086 1.920 . S
Co1055 O1058 1.966 . S
Co1055 N1064 2.022 . S
Co1055 N1072 1.993 . S
Co1055 O1080 1.941 . S
C1056 O1057 1.258 . S
C1056 O1058 1.263 . S
O1057 Co1054 1.970 . S
O1057 C1056 1.258 . S
O1058 Co1055 1.966 . S
O1058 C1056 1.263 . S
C1059 O1060 1.235 . S
C1059 O1086 1.289 . S
O1060 C1059 1.235 . S
C1061 C1063 1.400 . S
C1061 N1064 1.351 . S
C1061 C1066 1.501 . S
C1062 C1063 1.387 . S
C1062 N1065 1.341 . S
C1063 C1061 1.400 . S
C1063 C1062 1.387 . S
N1064 Co1055 2.022 . S
N1064 C1061 1.351 . S
N1064 N1065 1.365 . S
N1065 C1062 1.341 . S
N1065 N1064 1.365 . S
N1065 H1085 0.862 . S
C1066 C1061 1.501 . S
C1066 H1067 0.961 . S
C1066 H1068 0.961 . S
C1066 H1069 0.960 . S
H1067 C1066 0.961 . S
H1068 C1066 0.961 . S
H1069 C1066 0.960 . S
C1070 N1071 1.342 . S
C1070 C1074 1.401 . S
C1070 C1075 1.499 . S
N1071 Co1054 1.989 . S
N1071 C1070 1.342 . S
N1071 N1072 1.388 . S
N1072 Co1055 1.993 . S
N1072 N1071 1.388 . S
N1072 C1073 1.346 . S
C1073 N1072 1.346 . S
C1073 C1074 1.396 . S
C1073 C1083 1.510 . S
C1074 C1070 1.401 . S
C1074 C1073 1.396 . S
C1075 C1070 1.499 . S
C1075 H1076 0.959 . S
C1075 H1077 0.960 . S
C1075 H1078 0.961 . S
H1076 C1075 0.959 . S
H1077 C1075 0.960 . S
H1078 C1075 0.961 . S
O1079 Co1054 1.967 . S
O1079 C1087 1.258 . S
O1080 Co1055 1.941 . S
O1080 C1087 1.266 . S
H1081 C1083 0.959 . S
H1082 C1083 0.961 . S
C1083 C1073 1.510 . S
C1083 H1081 0.959 . S
C1083 H1082 0.961 . S
C1083 H1084 0.960 . S
H1084 C1083 0.960 . S
H1085 N1065 0.862 . S
O1086 Co1054 1.920 . S
O1086 C1059 1.289 . S
C1087 O1079 1.258 . S
C1087 O1080 1.266 . S
H1088 C1094 0.930 . S
H1089 C1097 0.930 . S
H1090 C1098 0.930 . S
H1091 C1099 0.930 . S
H1092 C1102 0.930 . S
H1093 C1103 0.930 . S
C1094 H1088 0.930 . S
C1094 C1095 1.355 . S
C1094 C1096 1.415 . S
C1095 C1094 1.355 . S
C1095 C1097 1.419 . S
C1096 C1094 1.415 . S
C1096 C1101 1.425 . S
C1096 C1103 1.409 . S
C1097 H1089 0.930 . S
C1097 C1095 1.419 . S
C1097 C1098 1.362 . S
C1098 H1090 0.930 . S
C1098 C1097 1.362 . S
C1098 C1101 1.409 . S
C1099 H1091 0.930 . S
C1099 C1100 1.355 . S
C1099 C1101 1.415 . S
C1100 C1099 1.355 . S
C1100 C1102 1.419 . S
C1101 C1096 1.425 . S
C1101 C1098 1.409 . S
C1101 C1099 1.415 . S
C1102 H1092 0.930 . S
C1102 C1100 1.419 . S
C1102 C1103 1.362 . S
C1103 H1093 0.930 . S
C1103 C1096 1.409 . S
C1103 C1102 1.362 . S
H1104 C1110 0.930 . S
H1105 C1113 0.930 . S
H1106 C1114 0.930 . S
H1107 C1115 0.930 . S
H1108 C1118 0.930 . S
H1109 C1119 0.930 . S
C1110 H1104 0.930 . S
C1110 C1111 1.355 . S
C1110 C1112 1.415 . S
C1111 C1110 1.355 . S
C1111 C1113 1.419 1_455 S
C1112 C1110 1.415 . S
C1112 C1117 1.425 . S
C1112 C1119 1.409 . S
C1113 H1105 0.930 . S
C1113 C1111 1.419 1_655 S
C1113 C1114 1.362 1_655 S
C1114 H1106 0.930 . S
C1114 C1113 1.362 1_455 S
C1114 C1117 1.409 . S
C1115 H1107 0.930 . S
C1115 C1116 1.355 . S
C1115 C1117 1.415 . S
C1116 C1115 1.355 . S
C1116 C1118 1.419 . S
C1117 C1112 1.425 . S
C1117 C1114 1.409 . S
C1117 C1115 1.415 . S
C1118 H1108 0.930 . S
C1118 C1116 1.419 . S
C1118 C1119 1.362 . S
C1119 H1109 0.930 . S
C1119 C1112 1.409 . S
C1119 C1118 1.362 . S
H1120 C1126 0.930 . S
H1121 C1129 0.930 . S
H1122 C1130 0.930 . S
H1123 C1131 0.930 . S
H1124 C1134 0.930 . S
H1125 C1135 0.930 . S
C1126 H1120 0.930 . S
C1126 C1127 1.355 . S
C1126 C1128 1.415 . S
C1127 C1126 1.355 . S
C1127 C1129 1.419 . S
C1128 C1126 1.415 . S
C1128 C1133 1.425 . S
C1128 C1135 1.409 . S
C1129 H1121 0.930 . S
C1129 C1127 1.419 . S
C1129 C1130 1.362 . S
C1130 H1122 0.930 . S
C1130 C1129 1.362 . S
C1130 C1133 1.409 . S
C1131 H1123 0.930 . S
C1131 C1132 1.355 . S
C1131 C1133 1.415 . S
C1132 C1131 1.355 . S
C1132 C1134 1.419 . S
C1133 C1128 1.425 . S
C1133 C1130 1.409 . S
C1133 C1131 1.415 . S
C1134 H1124 0.930 . S
C1134 C1132 1.419 . S
C1134 C1135 1.362 . S
C1135 H1125 0.930 . S
C1135 C1128 1.409 . S
C1135 C1134 1.362 . S
H1136 C1142 0.930 . S
H1137 C1145 0.930 . S
H1138 C1146 0.930 . S
H1139 C1147 0.930 . S
H1140 C1150 0.930 . S
H1141 C1151 0.930 . S
C1142 H1136 0.930 . S
C1142 C1143 1.355 . S
C1142 C1144 1.415 . S
C1143 C1142 1.355 . S
C1143 C1145 1.419 . S
C1144 C1142 1.415 . S
C1144 C1149 1.425 . S
C1144 C1151 1.409 . S
C1145 H1137 0.930 . S
C1145 C1143 1.419 . S
C1145 C1146 1.362 . S
C1146 H1138 0.930 . S
C1146 C1145 1.362 . S
C1146 C1149 1.409 . S
C1147 H1139 0.930 . S
C1147 C1148 1.355 . S
C1147 C1149 1.415 . S
C1148 C1147 1.355 . S
C1148 C1150 1.419 . S
C1149 C1144 1.425 . S
C1149 C1146 1.409 . S
C1149 C1147 1.415 . S
C1150 H1140 0.930 . S
C1150 C1148 1.419 . S
C1150 C1151 1.362 . S
C1151 H1141 0.930 . S
C1151 C1144 1.409 . S
C1151 C1150 1.362 . S
H1152 C1158 0.930 . S
H1153 C1161 0.930 . S
H1154 C1162 0.930 . S
H1155 C1163 0.930 . S
H1156 C1166 0.930 . S
H1157 C1167 0.930 . S
C1158 H1152 0.930 . S
C1158 C1159 1.355 . S
C1158 C1160 1.415 . S
C1159 C1158 1.355 . S
C1159 C1161 1.419 . S
C1160 C1158 1.415 . S
C1160 C1165 1.425 . S
C1160 C1167 1.409 . S
C1161 H1153 0.930 . S
C1161 C1159 1.419 . S
C1161 C1162 1.362 . S
C1162 H1154 0.930 . S
C1162 C1161 1.362 . S
C1162 C1165 1.409 . S
C1163 H1155 0.930 . S
C1163 C1164 1.355 . S
C1163 C1165 1.415 . S
C1164 C1163 1.355 . S
C1164 C1166 1.419 . S
C1165 C1160 1.425 . S
C1165 C1162 1.409 . S
C1165 C1163 1.415 . S
C1166 H1156 0.930 . S
C1166 C1164 1.419 . S
C1166 C1167 1.362 . S
C1167 H1157 0.930 . S
C1167 C1160 1.409 . S
C1167 C1166 1.362 . S
H1168 C1174 0.930 . S
H1169 C1177 0.930 . S
H1170 C1178 0.930 . S
H1171 C1179 0.930 . S
H1172 C1182 0.930 . S
H1173 C1183 0.930 . S
C1174 H1168 0.930 . S
C1174 C1175 1.355 . S
C1174 C1176 1.415 . S
C1175 C1174 1.355 . S
C1175 C1177 1.419 . S
C1176 C1174 1.415 . S
C1176 C1181 1.425 . S
C1176 C1183 1.409 . S
C1177 H1169 0.930 . S
C1177 C1175 1.419 . S
C1177 C1178 1.362 . S
C1178 H1170 0.930 . S
C1178 C1177 1.362 . S
C1178 C1181 1.409 . S
C1179 H1171 0.930 . S
C1179 C1180 1.355 . S
C1179 C1181 1.415 . S
C1180 C1179 1.355 . S
C1180 C1182 1.419 . S
C1181 C1176 1.425 . S
C1181 C1178 1.409 . S
C1181 C1179 1.415 . S
C1182 H1172 0.930 . S
C1182 C1180 1.419 . S
C1182 C1183 1.362 . S
C1183 H1173 0.930 . S
C1183 C1176 1.409 . S
C1183 C1182 1.362 . S
H1184 C1190 0.930 . S
H1185 C1193 0.930 . S
H1186 C1194 0.930 . S
H1187 C1195 0.930 . S
H1188 C1198 0.930 . S
H1189 C1199 0.930 . S
C1190 H1184 0.930 . S
C1190 C1191 1.355 . S
C1190 C1192 1.415 . S
C1191 C1190 1.355 . S
C1191 C1193 1.419 . S
C1192 C1190 1.415 . S
C1192 C1197 1.425 . S
C1192 C1199 1.409 . S
C1193 H1185 0.930 . S
C1193 C1191 1.419 . S
C1193 C1194 1.362 . S
C1194 H1186 0.930 . S
C1194 C1193 1.362 . S
C1194 C1197 1.409 . S
C1195 H1187 0.930 . S
C1195 C1196 1.355 . S
C1195 C1197 1.415 . S
C1196 C1195 1.355 . S
C1196 C1198 1.419 . S
C1197 C1192 1.425 . S
C1197 C1194 1.409 . S
C1197 C1195 1.415 . S
C1198 H1188 0.930 . S
C1198 C1196 1.419 . S
C1198 C1199 1.362 . S
C1199 H1189 0.930 . S
C1199 C1192 1.409 . S
C1199 C1198 1.362 . S
H1200 C1206 0.930 . S
H1201 C1209 0.930 . S
H1202 C1210 0.930 . S
H1203 C1211 0.930 1_655 S
H1204 C1214 0.930 . S
H1205 C1215 0.930 . S
C1206 H1200 0.930 . S
C1206 C1207 1.355 . S
C1206 C1208 1.415 . S
C1207 C1206 1.355 . S
C1207 C1209 1.419 . S
C1208 C1206 1.415 . S
C1208 C1213 1.425 . S
C1208 C1215 1.409 . S
C1209 H1201 0.930 . S
C1209 C1207 1.419 . S
C1209 C1210 1.362 . S
C1210 H1202 0.930 . S
C1210 C1209 1.362 . S
C1210 C1213 1.409 . S
C1211 H1203 0.930 1_455 S
C1211 C1212 1.355 . S
C1211 C1213 1.415 . S
C1212 C1211 1.355 . S
C1212 C1214 1.419 . S
C1213 C1208 1.425 . S
C1213 C1210 1.409 . S
C1213 C1211 1.415 . S
C1214 H1204 0.930 . S
C1214 C1212 1.419 . S
C1214 C1215 1.362 . S
C1215 H1205 0.930 . S
C1215 C1208 1.409 . S
C1215 C1214 1.362 . S
H1216 C1222 0.930 . S
H1217 C1225 0.930 . S
H1218 C1226 0.930 . S
H1219 C1227 0.930 . S
H1220 C1230 0.930 . S
H1221 C1231 0.930 . S
C1222 H1216 0.930 . S
C1222 C1223 1.355 . S
C1222 C1224 1.415 . S
C1223 C1222 1.355 . S
C1223 C1225 1.419 . S
C1224 C1222 1.415 . S
C1224 C1229 1.425 . S
C1224 C1231 1.409 . S
C1225 H1217 0.930 . S
C1225 C1223 1.419 . S
C1225 C1226 1.362 . S
C1226 H1218 0.930 . S
C1226 C1225 1.362 . S
C1226 C1229 1.409 . S
C1227 H1219 0.930 . S
C1227 C1228 1.355 . S
C1227 C1229 1.415 . S
C1228 C1227 1.355 . S
C1228 C1230 1.419 . S
C1229 C1224 1.425 . S
C1229 C1226 1.409 . S
C1229 C1227 1.415 . S
C1230 H1220 0.930 . S
C1230 C1228 1.419 . S
C1230 C1231 1.362 . S
C1231 H1221 0.930 . S
C1231 C1224 1.409 . S
C1231 C1230 1.362 . S
H1232 C1238 0.930 1_455 S
H1233 C1241 0.930 . S
H1234 C1242 0.930 . S
H1235 C1243 0.930 . S
H1236 C1246 0.930 . S
H1237 C1247 0.930 . S
C1238 H1232 0.930 1_655 S
C1238 C1239 1.355 . S
C1238 C1240 1.415 . S
C1239 C1238 1.355 . S
C1239 C1241 1.419 . S
C1240 C1238 1.415 . S
C1240 C1245 1.425 . S
C1240 C1247 1.409 . S
C1241 H1233 0.930 . S
C1241 C1239 1.419 . S
C1241 C1242 1.362 . S
C1242 H1234 0.930 . S
C1242 C1241 1.362 . S
C1242 C1245 1.409 . S
C1243 H1235 0.930 . S
C1243 C1244 1.355 . S
C1243 C1245 1.415 . S
C1244 C1243 1.355 . S
C1244 C1246 1.419 . S
C1245 C1240 1.425 . S
C1245 C1242 1.409 . S
C1245 C1243 1.415 . S
C1246 H1236 0.930 . S
C1246 C1244 1.419 . S
C1246 C1247 1.362 . S
C1247 H1237 0.930 . S
C1247 C1240 1.409 . S
C1247 C1246 1.362 . S
H1248 C1254 0.930 . S
H1249 C1257 0.930 . S
H1250 C1258 0.930 . S
H1251 C1259 0.930 . S
H1252 C1262 0.930 . S
H1253 C1263 0.930 . S
C1254 H1248 0.930 . S
C1254 C1255 1.355 . S
C1254 C1256 1.415 . S
C1255 C1254 1.355 . S
C1255 C1257 1.419 . S
C1256 C1254 1.415 . S
C1256 C1261 1.425 . S
C1256 C1263 1.409 . S
C1257 H1249 0.930 . S
C1257 C1255 1.419 . S
C1257 C1258 1.362 . S
C1258 H1250 0.930 . S
C1258 C1257 1.362 . S
C1258 C1261 1.409 . S
C1259 H1251 0.930 . S
C1259 C1260 1.355 . S
C1259 C1261 1.415 . S
C1260 C1259 1.355 . S
C1260 C1262 1.419 . S
C1261 C1256 1.425 . S
C1261 C1258 1.409 . S
C1261 C1259 1.415 . S
C1262 H1252 0.930 . S
C1262 C1260 1.419 . S
C1262 C1263 1.362 . S
C1263 H1253 0.930 . S
C1263 C1256 1.409 . S
C1263 C1262 1.362 . S
H1264 C1270 0.930 . S
H1265 C1273 0.930 . S
H1266 C1274 0.930 . S
H1267 C1275 0.930 . S
H1268 C1278 0.930 . S
H1269 C1279 0.930 . S
C1270 H1264 0.930 . S
C1270 C1271 1.355 . S
C1270 C1272 1.415 . S
C1271 C1270 1.355 . S
C1271 C1273 1.419 . S
C1272 C1270 1.415 . S
C1272 C1277 1.425 . S
C1272 C1279 1.409 . S
C1273 H1265 0.930 . S
C1273 C1271 1.419 . S
C1273 C1274 1.362 . S
C1274 H1266 0.930 . S
C1274 C1273 1.362 . S
C1274 C1277 1.409 . S
C1275 H1267 0.930 . S
C1275 C1276 1.355 . S
C1275 C1277 1.415 . S
C1276 C1275 1.355 . S
C1276 C1278 1.419 . S
C1277 C1272 1.425 . S
C1277 C1274 1.409 . S
C1277 C1275 1.415 . S
C1278 H1268 0.930 . S
C1278 C1276 1.419 . S
C1278 C1279 1.362 . S
C1279 H1269 0.930 . S
C1279 C1272 1.409 . S
C1279 C1278 1.362 . S
H1280 C1286 0.930 . S
H1281 C1289 0.930 . S
H1282 C1290 0.930 . S
H1283 C1291 0.930 . S
H1284 C1294 0.930 . S
H1285 C1295 0.930 . S
C1286 H1280 0.930 . S
C1286 C1287 1.355 . S
C1286 C1288 1.415 . S
C1287 C1286 1.355 . S
C1287 C1289 1.419 . S
C1288 C1286 1.415 . S
C1288 C1293 1.425 . S
C1288 C1295 1.409 . S
C1289 H1281 0.930 . S
C1289 C1287 1.419 . S
C1289 C1290 1.362 . S
C1290 H1282 0.930 . S
C1290 C1289 1.362 . S
C1290 C1293 1.409 . S
C1291 H1283 0.930 . S
C1291 C1292 1.355 . S
C1291 C1293 1.415 . S
C1292 C1291 1.355 . S
C1292 C1294 1.419 . S
C1293 C1288 1.425 . S
C1293 C1290 1.409 . S
C1293 C1291 1.415 . S
C1294 H1284 0.930 . S
C1294 C1292 1.419 . S
C1294 C1295 1.362 . S
C1295 H1285 0.930 . S
C1295 C1288 1.409 . S
C1295 C1294 1.362 . S
H1296 C1302 0.930 . S
H1297 C1305 0.930 . S
H1298 C1306 0.930 . S
H1299 C1307 0.930 . S
H1300 C1310 0.930 . S
H1301 C1311 0.930 . S
C1302 H1296 0.930 . S
C1302 C1303 1.355 . S
C1302 C1304 1.415 . S
C1303 C1302 1.355 . S
C1303 C1305 1.419 . S
C1304 C1302 1.415 . S
C1304 C1309 1.425 . S
C1304 C1311 1.409 . S
C1305 H1297 0.930 . S
C1305 C1303 1.419 . S
C1305 C1306 1.362 . S
C1306 H1298 0.930 . S
C1306 C1305 1.362 . S
C1306 C1309 1.409 . S
C1307 H1299 0.930 . S
C1307 C1308 1.355 . S
C1307 C1309 1.415 . S
C1308 C1307 1.355 . S
C1308 C1310 1.419 . S
C1309 C1304 1.425 . S
C1309 C1306 1.409 . S
C1309 C1307 1.415 . S
C1310 H1300 0.930 . S
C1310 C1308 1.419 . S
C1310 C1311 1.362 . S
C1311 H1301 0.930 . S
C1311 C1304 1.409 . S
C1311 C1310 1.362 . S
H1312 C1318 0.930 . S
H1313 C1321 0.930 . S
H1314 C1322 0.930 . S
H1315 C1323 0.930 . S
H1316 C1326 0.930 . S
H1317 C1327 0.930 . S
C1318 H1312 0.930 . S
C1318 C1319 1.355 . S
C1318 C1320 1.415 . S
C1319 C1318 1.355 . S
C1319 C1321 1.419 . S
C1320 C1318 1.415 . S
C1320 C1325 1.425 . S
C1320 C1327 1.409 . S
C1321 H1313 0.930 . S
C1321 C1319 1.419 . S
C1321 C1322 1.362 . S
C1322 H1314 0.930 . S
C1322 C1321 1.362 . S
C1322 C1325 1.409 . S
C1323 H1315 0.930 . S
C1323 C1324 1.355 . S
C1323 C1325 1.415 . S
C1324 C1323 1.355 . S
C1324 C1326 1.419 . S
C1325 C1320 1.425 . S
C1325 C1322 1.409 . S
C1325 C1323 1.415 . S
C1326 H1316 0.930 . S
C1326 C1324 1.419 . S
C1326 C1327 1.362 . S
C1327 H1317 0.930 . S
C1327 C1320 1.409 . S
C1327 C1326 1.362 . S
H1328 C1334 0.930 . S
H1329 C1337 0.930 . S
H1330 C1338 0.930 . S
H1331 C1339 0.930 . S
H1332 C1342 0.930 . S
H1333 C1343 0.930 . S
C1334 H1328 0.930 . S
C1334 C1335 1.355 . S
C1334 C1336 1.415 . S
C1335 C1334 1.355 . S
C1335 C1337 1.419 1_655 S
C1336 C1334 1.415 . S
C1336 C1341 1.425 . S
C1336 C1343 1.409 . S
C1337 H1329 0.930 . S
C1337 C1335 1.419 1_455 S
C1337 C1338 1.362 1_455 S
C1338 H1330 0.930 . S
C1338 C1337 1.362 1_655 S
C1338 C1341 1.409 . S
C1339 H1331 0.930 . S
C1339 C1340 1.355 . S
C1339 C1341 1.415 . S
C1340 C1339 1.355 . S
C1340 C1342 1.419 . S
C1341 C1336 1.425 . S
C1341 C1338 1.409 . S
C1341 C1339 1.415 . S
C1342 H1332 0.930 . S
C1342 C1340 1.419 . S
C1342 C1343 1.362 . S
C1343 H1333 0.930 . S
C1343 C1336 1.409 . S
C1343 C1342 1.362 . S
H1344 C1350 0.930 . S
H1345 C1353 0.930 . S
H1346 C1354 0.930 . S
H1347 C1355 0.930 . S
H1348 C1358 0.930 . S
H1349 C1359 0.930 . S
C1350 H1344 0.930 . S
C1350 C1351 1.355 . S
C1350 C1352 1.415 . S
C1351 C1350 1.355 . S
C1351 C1353 1.419 . S
C1352 C1350 1.415 . S
C1352 C1357 1.425 . S
C1352 C1359 1.409 . S
C1353 H1345 0.930 . S
C1353 C1351 1.419 . S
C1353 C1354 1.362 . S
C1354 H1346 0.930 . S
C1354 C1353 1.362 . S
C1354 C1357 1.409 . S
C1355 H1347 0.930 . S
C1355 C1356 1.355 . S
C1355 C1357 1.415 . S
C1356 C1355 1.355 . S
C1356 C1358 1.419 . S
C1357 C1352 1.425 . S
C1357 C1354 1.409 . S
C1357 C1355 1.415 . S
C1358 H1348 0.930 . S
C1358 C1356 1.419 . S
C1358 C1359 1.362 . S
C1359 H1349 0.930 . S
C1359 C1352 1.409 . S
C1359 C1358 1.362 . S
H1360 C1366 0.930 . S
H1361 C1369 0.930 . S
H1362 C1370 0.930 . S
H1363 C1371 0.930 . S
H1364 C1374 0.930 . S
H1365 C1375 0.930 . S
C1366 H1360 0.930 . S
C1366 C1367 1.355 . S
C1366 C1368 1.415 . S
C1367 C1366 1.355 . S
C1367 C1369 1.419 . S
C1368 C1366 1.415 . S
C1368 C1373 1.425 . S
C1368 C1375 1.409 . S
C1369 H1361 0.930 . S
C1369 C1367 1.419 . S
C1369 C1370 1.362 . S
C1370 H1362 0.930 . S
C1370 C1369 1.362 . S
C1370 C1373 1.409 . S
C1371 H1363 0.930 . S
C1371 C1372 1.355 . S
C1371 C1373 1.415 . S
C1372 C1371 1.355 . S
C1372 C1374 1.419 . S
C1373 C1368 1.425 . S
C1373 C1370 1.409 . S
C1373 C1371 1.415 . S
C1374 H1364 0.930 . S
C1374 C1372 1.419 . S
C1374 C1375 1.362 . S
C1375 H1365 0.930 . S
C1375 C1368 1.409 . S
C1375 C1374 1.362 . S
H1376 C1382 0.930 . S
H1377 C1385 0.930 . S
H1378 C1386 0.930 . S
H1379 C1387 0.930 . S
H1380 C1390 0.930 . S
H1381 C1391 0.930 . S
C1382 H1376 0.930 . S
C1382 C1383 1.355 . S
C1382 C1384 1.415 . S
C1383 C1382 1.355 . S
C1383 C1385 1.419 . S
C1384 C1382 1.415 . S
C1384 C1389 1.425 . S
C1384 C1391 1.409 . S
C1385 H1377 0.930 . S
C1385 C1383 1.419 . S
C1385 C1386 1.362 . S
C1386 H1378 0.930 . S
C1386 C1385 1.362 . S
C1386 C1389 1.409 . S
C1387 H1379 0.930 . S
C1387 C1388 1.355 . S
C1387 C1389 1.415 . S
C1388 C1387 1.355 . S
C1388 C1390 1.419 . S
C1389 C1384 1.425 . S
C1389 C1386 1.409 . S
C1389 C1387 1.415 . S
C1390 H1380 0.930 . S
C1390 C1388 1.419 . S
C1390 C1391 1.362 . S
C1391 H1381 0.930 . S
C1391 C1384 1.409 . S
C1391 C1390 1.362 . S
H1392 C1398 0.930 . S
H1393 C1401 0.930 . S
H1394 C1402 0.930 . S
H1395 C1403 0.930 . S
H1396 C1406 0.930 . S
H1397 C1407 0.930 . S
C1398 H1392 0.930 . S
C1398 C1399 1.355 . S
C1398 C1400 1.415 . S
C1399 C1398 1.355 . S
C1399 C1401 1.419 . S
C1400 C1398 1.415 . S
C1400 C1405 1.425 . S
C1400 C1407 1.409 . S
C1401 H1393 0.930 . S
C1401 C1399 1.419 . S
C1401 C1402 1.362 . S
C1402 H1394 0.930 . S
C1402 C1401 1.362 . S
C1402 C1405 1.409 . S
C1403 H1395 0.930 . S
C1403 C1404 1.355 . S
C1403 C1405 1.415 . S
C1404 C1403 1.355 . S
C1404 C1406 1.419 1_655 S
C1405 C1400 1.425 . S
C1405 C1402 1.409 . S
C1405 C1403 1.415 . S
C1406 H1396 0.930 . S
C1406 C1404 1.419 1_455 S
C1406 C1407 1.362 1_455 S
C1407 H1397 0.930 . S
C1407 C1400 1.409 . S
C1407 C1406 1.362 1_655 S
H1408 C1414 0.930 . S
H1409 C1417 0.930 . S
H1410 C1418 0.930 . S
H1411 C1419 0.930 . S
H1412 C1422 0.930 . S
H1413 C1423 0.930 . S
C1414 H1408 0.930 . S
C1414 C1415 1.355 . S
C1414 C1416 1.415 . S
C1415 C1414 1.355 . S
C1415 C1417 1.419 . S
C1416 C1414 1.415 . S
C1416 C1421 1.425 . S
C1416 C1423 1.409 . S
C1417 H1409 0.930 . S
C1417 C1415 1.419 . S
C1417 C1418 1.362 . S
C1418 H1410 0.930 . S
C1418 C1417 1.362 . S
C1418 C1421 1.409 . S
C1419 H1411 0.930 . S
C1419 C1420 1.355 . S
C1419 C1421 1.415 . S
C1420 C1419 1.355 . S
C1420 C1422 1.419 . S
C1421 C1416 1.425 . S
C1421 C1418 1.409 . S
C1421 C1419 1.415 . S
C1422 H1412 0.930 . S
C1422 C1420 1.419 . S
C1422 C1423 1.362 . S
C1423 H1413 0.930 . S
C1423 C1416 1.409 . S
C1423 C1422 1.362 . S
H1424 C1430 0.930 1_455 S
H1425 C1433 0.930 . S
H1426 C1434 0.930 . S
H1427 C1435 0.930 . S
H1428 C1438 0.930 . S
H1429 C1439 0.930 . S
C1430 H1424 0.930 1_655 S
C1430 C1431 1.355 . S
C1430 C1432 1.415 . S
C1431 C1430 1.355 . S
C1431 C1433 1.419 . S
C1432 C1430 1.415 . S
C1432 C1437 1.425 . S
C1432 C1439 1.409 . S
C1433 H1425 0.930 . S
C1433 C1431 1.419 . S
C1433 C1434 1.362 . S
C1434 H1426 0.930 . S
C1434 C1433 1.362 . S
C1434 C1437 1.409 . S
C1435 H1427 0.930 . S
C1435 C1436 1.355 . S
C1435 C1437 1.415 . S
C1436 C1435 1.355 . S
C1436 C1438 1.419 . S
C1437 C1432 1.425 . S
C1437 C1434 1.409 . S
C1437 C1435 1.415 . S
C1438 H1428 0.930 . S
C1438 C1436 1.419 . S
C1438 C1439 1.362 . S
C1439 H1429 0.930 . S
C1439 C1432 1.409 . S
C1439 C1438 1.362 . S
H1440 C1446 0.930 . S
H1441 C1449 0.930 . S
H1442 C1450 0.930 . S
H1443 C1451 0.930 . S
H1444 C1454 0.930 . S
H1445 C1455 0.930 . S
C1446 H1440 0.930 . S
C1446 C1447 1.355 . S
C1446 C1448 1.415 . S
C1447 C1446 1.355 . S
C1447 C1449 1.419 . S
C1448 C1446 1.415 . S
C1448 C1453 1.425 . S
C1448 C1455 1.409 . S
C1449 H1441 0.930 . S
C1449 C1447 1.419 . S
C1449 C1450 1.362 . S
C1450 H1442 0.930 . S
C1450 C1449 1.362 . S
C1450 C1453 1.409 . S
C1451 H1443 0.930 . S
C1451 C1452 1.355 . S
C1451 C1453 1.415 . S
C1452 C1451 1.355 . S
C1452 C1454 1.419 . S
C1453 C1448 1.425 . S
C1453 C1450 1.409 . S
C1453 C1451 1.415 . S
C1454 H1444 0.930 . S
C1454 C1452 1.419 . S
C1454 C1455 1.362 . S
C1455 H1445 0.930 . S
C1455 C1448 1.409 . S
C1455 C1454 1.362 . S
H1456 C1462 0.930 . S
H1457 C1465 0.930 . S
H1458 C1466 0.930 . S
H1459 C1467 0.930 . S
H1460 C1470 0.930 . S
H1461 C1471 0.930 . S
C1462 H1456 0.930 . S
C1462 C1463 1.355 . S
C1462 C1464 1.415 . S
C1463 C1462 1.355 . S
C1463 C1465 1.419 . S
C1464 C1462 1.415 . S
C1464 C1469 1.425 . S
C1464 C1471 1.409 . S
C1465 H1457 0.930 . S
C1465 C1463 1.419 . S
C1465 C1466 1.362 . S
C1466 H1458 0.930 . S
C1466 C1465 1.362 . S
C1466 C1469 1.409 . S
C1467 H1459 0.930 . S
C1467 C1468 1.355 . S
C1467 C1469 1.415 . S
C1468 C1467 1.355 . S
C1468 C1470 1.419 . S
C1469 C1464 1.425 . S
C1469 C1466 1.409 . S
C1469 C1467 1.415 . S
C1470 H1460 0.930 . S
C1470 C1468 1.419 . S
C1470 C1471 1.362 . S
C1471 H1461 0.930 . S
C1471 C1464 1.409 . S
C1471 C1470 1.362 . S
H1472 C1478 0.930 . S
H1473 C1481 0.930 . S
H1474 C1482 0.930 . S
H1475 C1483 0.930 . S
H1476 C1486 0.930 . S
H1477 C1487 0.930 . S
C1478 H1472 0.930 . S
C1478 C1479 1.355 . S
C1478 C1480 1.415 . S
C1479 C1478 1.355 . S
C1479 C1481 1.419 . S
C1480 C1478 1.415 . S
C1480 C1485 1.425 . S
C1480 C1487 1.409 . S
C1481 H1473 0.930 . S
C1481 C1479 1.419 . S
C1481 C1482 1.362 . S
C1482 H1474 0.930 . S
C1482 C1481 1.362 . S
C1482 C1485 1.409 . S
C1483 H1475 0.930 . S
C1483 C1484 1.355 . S
C1483 C1485 1.415 . S
C1484 C1483 1.355 . S
C1484 C1486 1.419 . S
C1485 C1480 1.425 . S
C1485 C1482 1.409 . S
C1485 C1483 1.415 . S
C1486 H1476 0.930 . S
C1486 C1484 1.419 . S
C1486 C1487 1.362 . S
C1487 H1477 0.930 . S
C1487 C1480 1.409 . S
C1487 C1486 1.362 . S
H1488 C1494 0.930 . S
H1489 C1497 0.930 . S
H1490 C1498 0.930 . S
H1491 C1499 0.930 . S
H1492 C1502 0.930 . S
H1493 C1503 0.930 . S
C1494 H1488 0.930 . S
C1494 C1495 1.355 . S
C1494 C1496 1.415 . S
C1495 C1494 1.355 . S
C1495 C1497 1.419 . S
C1496 C1494 1.415 . S
C1496 C1501 1.425 . S
C1496 C1503 1.409 . S
C1497 H1489 0.930 . S
C1497 C1495 1.419 . S
C1497 C1498 1.362 . S
C1498 H1490 0.930 . S
C1498 C1497 1.362 . S
C1498 C1501 1.409 . S
C1499 H1491 0.930 . S
C1499 C1500 1.355 . S
C1499 C1501 1.415 . S
C1500 C1499 1.355 . S
C1500 C1502 1.419 . S
C1501 C1496 1.425 . S
C1501 C1498 1.409 . S
C1501 C1499 1.415 . S
C1502 H1492 0.930 . S
C1502 C1500 1.419 . S
C1502 C1503 1.362 . S
C1503 H1493 0.930 . S
C1503 C1496 1.409 . S
C1503 C1502 1.362 . S
H1504 C1510 0.930 . S
H1505 C1513 0.930 . S
H1506 C1514 0.930 . S
H1507 C1515 0.930 . S
H1508 C1518 0.930 . S
H1509 C1519 0.930 . S
C1510 H1504 0.930 . S
C1510 C1511 1.355 . S
C1510 C1512 1.415 . S
C1511 C1510 1.355 . S
C1511 C1513 1.419 . S
C1512 C1510 1.415 . S
C1512 C1517 1.425 . S
C1512 C1519 1.409 . S
C1513 H1505 0.930 . S
C1513 C1511 1.419 . S
C1513 C1514 1.362 . S
C1514 H1506 0.930 . S
C1514 C1513 1.362 . S
C1514 C1517 1.409 . S
C1515 H1507 0.930 . S
C1515 C1516 1.355 . S
C1515 C1517 1.415 . S
C1516 C1515 1.355 . S
C1516 C1518 1.419 . S
C1517 C1512 1.425 . S
C1517 C1514 1.409 . S
C1517 C1515 1.415 . S
C1518 H1508 0.930 . S
C1518 C1516 1.419 . S
C1518 C1519 1.362 . S
C1519 H1509 0.930 . S
C1519 C1512 1.409 . S
C1519 C1518 1.362 . S
H1520 C1526 0.930 . S
H1521 C1529 0.930 . S
H1522 C1530 0.930 . S
H1523 C1531 0.930 . S
H1524 C1534 0.930 1_655 S
H1525 C1535 0.930 . S
C1526 H1520 0.930 . S
C1526 C1527 1.355 . S
C1526 C1528 1.415 . S
C1527 C1526 1.355 . S
C1527 C1529 1.419 . S
C1528 C1526 1.415 . S
C1528 C1533 1.425 . S
C1528 C1535 1.409 . S
C1529 H1521 0.930 . S
C1529 C1527 1.419 . S
C1529 C1530 1.362 . S
C1530 H1522 0.930 . S
C1530 C1529 1.362 . S
C1530 C1533 1.409 . S
C1531 H1523 0.930 . S
C1531 C1532 1.355 . S
C1531 C1533 1.415 . S
C1532 C1531 1.355 . S
C1532 C1534 1.419 . S
C1533 C1528 1.425 . S
C1533 C1530 1.409 . S
C1533 C1531 1.415 . S
C1534 H1524 0.930 1_455 S
C1534 C1532 1.419 . S
C1534 C1535 1.362 . S
C1535 H1525 0.930 . S
C1535 C1528 1.409 . S
C1535 C1534 1.362 . S
H1536 C1542 0.930 . S
H1537 C1545 0.930 . S
H1538 C1546 0.930 . S
H1539 C1547 0.930 . S
H1540 C1550 0.930 . S
H1541 C1551 0.930 . S
C1542 H1536 0.930 . S
C1542 C1543 1.355 . S
C1542 C1544 1.415 . S
C1543 C1542 1.355 . S
C1543 C1545 1.419 . S
C1544 C1542 1.415 . S
C1544 C1549 1.425 . S
C1544 C1551 1.409 . S
C1545 H1537 0.930 . S
C1545 C1543 1.419 . S
C1545 C1546 1.362 . S
C1546 H1538 0.930 . S
C1546 C1545 1.362 . S
C1546 C1549 1.409 . S
C1547 H1539 0.930 . S
C1547 C1548 1.355 . S
C1547 C1549 1.415 . S
C1548 C1547 1.355 . S
C1548 C1550 1.419 . S
C1549 C1544 1.425 . S
C1549 C1546 1.409 . S
C1549 C1547 1.415 . S
C1550 H1540 0.930 . S
C1550 C1548 1.419 . S
C1550 C1551 1.362 . S
C1551 H1541 0.930 . S
C1551 C1544 1.409 . S
C1551 C1550 1.362 . S
H1552 C1558 0.930 . S
H1553 C1561 0.930 . S
H1554 C1562 0.930 . S
H1555 C1563 0.930 . S
H1556 C1566 0.930 . S
H1557 C1567 0.930 . S
C1558 H1552 0.930 . S
C1558 C1559 1.355 . S
C1558 C1560 1.415 . S
C1559 C1558 1.355 . S
C1559 C1561 1.419 . S
C1560 C1558 1.415 . S
C1560 C1565 1.425 . S
C1560 C1567 1.409 . S
C1561 H1553 0.930 . S
C1561 C1559 1.419 . S
C1561 C1562 1.362 . S
C1562 H1554 0.930 . S
C1562 C1561 1.362 . S
C1562 C1565 1.409 . S
C1563 H1555 0.930 . S
C1563 C1564 1.355 . S
C1563 C1565 1.415 . S
C1564 C1563 1.355 . S
C1564 C1566 1.419 . S
C1565 C1560 1.425 . S
C1565 C1562 1.409 . S
C1565 C1563 1.415 . S
C1566 H1556 0.930 . S
C1566 C1564 1.419 . S
C1566 C1567 1.362 . S
C1567 H1557 0.930 . S
C1567 C1560 1.409 . S
C1567 C1566 1.362 . S
H1568 C1574 0.930 . S
H1569 C1577 0.930 . S
H1570 C1578 0.930 . S
H1571 C1579 0.930 . S
H1572 C1582 0.930 . S
H1573 C1583 0.930 . S
C1574 H1568 0.930 . S
C1574 C1575 1.355 . S
C1574 C1576 1.415 . S
C1575 C1574 1.355 . S
C1575 C1577 1.419 . S
C1576 C1574 1.415 . S
C1576 C1581 1.425 . S
C1576 C1583 1.409 . S
C1577 H1569 0.930 . S
C1577 C1575 1.419 . S
C1577 C1578 1.362 . S
C1578 H1570 0.930 . S
C1578 C1577 1.362 . S
C1578 C1581 1.409 . S
C1579 H1571 0.930 . S
C1579 C1580 1.355 . S
C1579 C1581 1.415 . S
C1580 C1579 1.355 . S
C1580 C1582 1.419 . S
C1581 C1576 1.425 . S
C1581 C1578 1.409 . S
C1581 C1579 1.415 . S
C1582 H1572 0.930 . S
C1582 C1580 1.419 . S
C1582 C1583 1.362 . S
C1583 H1573 0.930 . S
C1583 C1576 1.409 . S
C1583 C1582 1.362 . S
H1584 C1590 0.930 . S
H1585 C1593 0.930 . S
H1586 C1594 0.930 . S
H1587 C1595 0.930 . S
H1588 C1598 0.930 . S
H1589 C1599 0.930 . S
C1590 H1584 0.930 . S
C1590 C1591 1.355 . S
C1590 C1592 1.415 . S
C1591 C1590 1.355 . S
C1591 C1593 1.419 . S
C1592 C1590 1.415 . S
C1592 C1597 1.425 . S
C1592 C1599 1.409 . S
C1593 H1585 0.930 . S
C1593 C1591 1.419 . S
C1593 C1594 1.362 . S
C1594 H1586 0.930 . S
C1594 C1593 1.362 . S
C1594 C1597 1.409 . S
C1595 H1587 0.930 . S
C1595 C1596 1.355 . S
C1595 C1597 1.415 . S
C1596 C1595 1.355 . S
C1596 C1598 1.419 . S
C1597 C1592 1.425 . S
C1597 C1594 1.409 . S
C1597 C1595 1.415 . S
C1598 H1588 0.930 . S
C1598 C1596 1.419 . S
C1598 C1599 1.362 . S
C1599 H1589 0.930 . S
C1599 C1592 1.409 . S
C1599 C1598 1.362 . S
H1600 C1606 0.930 . S
H1601 C1609 0.930 1_545 S
H1602 C1610 0.930 . S
H1603 C1611 0.930 . S
H1604 C1614 0.930 . S
H1605 C1615 0.930 . S
C1606 H1600 0.930 . S
C1606 C1607 1.355 . S
C1606 C1608 1.415 . S
C1607 C1606 1.355 . S
C1607 C1609 1.419 . S
C1608 C1606 1.415 . S
C1608 C1613 1.425 . S
C1608 C1615 1.409 . S
C1609 H1601 0.930 1_565 S
C1609 C1607 1.419 . S
C1609 C1610 1.362 . S
C1610 H1602 0.930 . S
C1610 C1609 1.362 . S
C1610 C1613 1.409 . S
C1611 H1603 0.930 . S
C1611 C1612 1.355 . S
C1611 C1613 1.415 . S
C1612 C1611 1.355 . S
C1612 C1614 1.419 . S
C1613 C1608 1.425 . S
C1613 C1610 1.409 . S
C1613 C1611 1.415 . S
C1614 H1604 0.930 . S
C1614 C1612 1.419 . S
C1614 C1615 1.362 . S
C1615 H1605 0.930 . S
C1615 C1608 1.409 . S
C1615 C1614 1.362 . S
H1616 C1622 0.918 1_545 S
H1617 C1625 0.930 . S
H1618 C1626 0.930 . S
H1619 C1627 0.930 . S
H1620 C1630 0.930 . S
H1621 C1631 0.930 . S
C1622 H1616 0.918 1_565 S
C1622 C1623 1.355 . S
C1622 C1624 1.415 . S
C1623 C1622 1.355 . S
C1623 C1625 1.419 . S
C1624 C1622 1.415 . S
C1624 C1629 1.425 . S
C1624 C1631 1.409 . S
C1625 H1617 0.930 . S
C1625 C1623 1.419 . S
C1625 C1626 1.362 . S
C1626 H1618 0.930 . S
C1626 C1625 1.362 . S
C1626 C1629 1.409 . S
C1627 H1619 0.930 . S
C1627 C1628 1.355 . S
C1627 C1629 1.415 . S
C1628 C1627 1.355 . S
C1628 C1630 1.419 . S
C1629 C1624 1.425 . S
C1629 C1626 1.409 . S
C1629 C1627 1.415 . S
C1630 H1620 0.930 . S
C1630 C1628 1.419 . S
C1630 C1631 1.362 . S
C1631 H1621 0.930 . S
C1631 C1624 1.409 . S
C1631 C1630 1.362 . S
H1632 C1638 0.930 . S
H1633 C1641 0.930 . S
H1634 C1642 0.930 . S
H1635 C1643 0.930 . S
H1636 C1646 0.930 . S
H1637 C1647 0.930 . S
C1638 H1632 0.930 . S
C1638 C1639 1.355 . S
C1638 C1640 1.415 . S
C1639 C1638 1.355 . S
C1639 C1641 1.419 . S
C1640 C1638 1.415 . S
C1640 C1645 1.425 . S
C1640 C1647 1.409 . S
C1641 H1633 0.930 . S
C1641 C1639 1.419 . S
C1641 C1642 1.362 . S
C1642 H1634 0.930 . S
C1642 C1641 1.362 . S
C1642 C1645 1.409 . S
C1643 H1635 0.930 . S
C1643 C1644 1.355 . S
C1643 C1645 1.415 . S
C1644 C1643 1.355 . S
C1644 C1646 1.419 . S
C1645 C1640 1.425 . S
C1645 C1642 1.409 . S
C1645 C1643 1.415 . S
C1646 H1636 0.930 . S
C1646 C1644 1.419 . S
C1646 C1647 1.362 . S
C1647 H1637 0.930 . S
C1647 C1640 1.409 . S
C1647 C1646 1.362 . S
H1648 C1654 0.930 . S
H1649 C1657 0.930 . S
H1650 C1658 0.930 . S
H1651 C1659 0.930 . S
H1652 C1662 0.930 . S
H1653 C1663 0.930 . S
C1654 H1648 0.930 . S
C1654 C1655 1.355 . S
C1654 C1656 1.415 . S
C1655 C1654 1.355 . S
C1655 C1657 1.419 . S
C1656 C1654 1.415 . S
C1656 C1661 1.425 . S
C1656 C1663 1.409 . S
C1657 H1649 0.930 . S
C1657 C1655 1.419 . S
C1657 C1658 1.362 . S
C1658 H1650 0.930 . S
C1658 C1657 1.362 . S
C1658 C1661 1.409 . S
C1659 H1651 0.930 . S
C1659 C1660 1.355 . S
C1659 C1661 1.415 . S
C1660 C1659 1.355 . S
C1660 C1662 1.419 . S
C1661 C1656 1.425 . S
C1661 C1658 1.409 . S
C1661 C1659 1.415 . S
C1662 H1652 0.930 . S
C1662 C1660 1.419 . S
C1662 C1663 1.362 . S
C1663 H1653 0.930 . S
C1663 C1656 1.409 . S
C1663 C1662 1.362 . S
H1664 C1670 0.930 . S
H1665 C1673 0.930 1_565 S
H1666 C1674 0.930 . S
H1667 C1675 0.930 . S
H1668 C1678 0.930 . S
H1669 C1679 0.930 . S
C1670 H1664 0.930 . S
C1670 C1671 1.355 . S
C1670 C1672 1.415 . S
C1671 C1670 1.355 . S
C1671 C1673 1.419 . S
C1672 C1670 1.415 . S
C1672 C1677 1.425 . S
C1672 C1679 1.409 . S
C1673 H1665 0.930 1_545 S
C1673 C1671 1.419 . S
C1673 C1674 1.362 . S
C1674 H1666 0.930 . S
C1674 C1673 1.362 . S
C1674 C1677 1.409 . S
C1675 H1667 0.930 . S
C1675 C1676 1.355 . S
C1675 C1677 1.415 . S
C1676 C1675 1.355 . S
C1676 C1678 1.419 . S
C1677 C1672 1.425 . S
C1677 C1674 1.409 . S
C1677 C1675 1.415 . S
C1678 H1668 0.930 . S
C1678 C1676 1.419 . S
C1678 C1679 1.362 . S
C1679 H1669 0.930 . S
C1679 C1672 1.409 . S
C1679 C1678 1.362 . S
H1680 C1686 0.930 . S
H1681 C1689 0.930 . S
H1682 C1690 0.930 . S
H1683 C1691 0.930 . S
H1684 C1694 0.930 . S
H1685 C1695 0.930 . S
C1686 H1680 0.930 . S
C1686 C1687 1.355 . S
C1686 C1688 1.415 . S
C1687 C1686 1.355 . S
C1687 C1689 1.419 . S
C1688 C1686 1.415 . S
C1688 C1693 1.425 . S
C1688 C1695 1.409 . S
C1689 H1681 0.930 . S
C1689 C1687 1.419 . S
C1689 C1690 1.362 . S
C1690 H1682 0.930 . S
C1690 C1689 1.362 . S
C1690 C1693 1.409 . S
C1691 H1683 0.930 . S
C1691 C1692 1.355 . S
C1691 C1693 1.415 . S
C1692 C1691 1.355 . S
C1692 C1694 1.419 . S
C1693 C1688 1.425 . S
C1693 C1690 1.409 . S
C1693 C1691 1.415 . S
C1694 H1684 0.930 . S
C1694 C1692 1.419 . S
C1694 C1695 1.362 . S
C1695 H1685 0.930 . S
C1695 C1688 1.409 . S
C1695 C1694 1.362 . S
H1696 C1702 0.930 1_545 S
H1697 C1705 0.930 . S
H1698 C1706 0.930 . S
H1699 C1707 0.930 . S
H1700 C1710 0.930 . S
H1701 C1711 0.930 . S
C1702 H1696 0.930 1_565 S
C1702 C1703 1.355 . S
C1702 C1704 1.415 . S
C1703 C1702 1.355 . S
C1703 C1705 1.419 . S
C1704 C1702 1.415 . S
C1704 C1709 1.425 . S
C1704 C1711 1.409 . S
C1705 H1697 0.930 . S
C1705 C1703 1.419 . S
C1705 C1706 1.362 . S
C1706 H1698 0.930 . S
C1706 C1705 1.362 . S
C1706 C1709 1.409 . S
C1707 H1699 0.930 . S
C1707 C1708 1.355 . S
C1707 C1709 1.415 . S
C1708 C1707 1.355 . S
C1708 C1710 1.419 . S
C1709 C1704 1.425 . S
C1709 C1706 1.409 . S
C1709 C1707 1.415 . S
C1710 H1700 0.930 . S
C1710 C1708 1.419 . S
C1710 C1711 1.362 . S
C1711 H1701 0.930 . S
C1711 C1704 1.409 . S
C1711 C1710 1.362 . S
H1712 C1718 0.930 . S
H1713 C1721 0.930 . S
H1714 C1722 0.930 . S
H1715 C1723 0.930 . S
H1716 C1726 0.930 . S
H1717 C1727 0.930 1_545 S
C1718 H1712 0.930 . S
C1718 C1719 1.355 . S
C1718 C1720 1.415 . S
C1719 C1718 1.355 . S
C1719 C1721 1.419 . S
C1720 C1718 1.415 . S
C1720 C1725 1.425 . S
C1720 C1727 1.409 . S
C1721 H1713 0.930 . S
C1721 C1719 1.419 . S
C1721 C1722 1.362 . S
C1722 H1714 0.930 . S
C1722 C1721 1.362 . S
C1722 C1725 1.409 . S
C1723 H1715 0.930 . S
C1723 C1724 1.355 . S
C1723 C1725 1.415 . S
C1724 C1723 1.355 . S
C1724 C1726 1.419 1_565 S
C1725 C1720 1.425 . S
C1725 C1722 1.409 . S
C1725 C1723 1.415 . S
C1726 H1716 0.930 . S
C1726 C1724 1.419 1_545 S
C1726 C1727 1.362 1_545 S
C1727 H1717 0.930 1_565 S
C1727 C1720 1.409 . S
C1727 C1726 1.362 1_565 S
H1728 C1734 0.930 . S
H1729 C1737 0.930 . S
H1730 C1738 0.930 . S
H1731 C1739 0.930 . S
H1732 C1742 0.930 . S
H1733 C1743 0.930 . S
C1734 H1728 0.930 . S
C1734 C1735 1.355 . S
C1734 C1736 1.415 . S
C1735 C1734 1.355 . S
C1735 C1737 1.419 . S
C1736 C1734 1.415 . S
C1736 C1741 1.425 . S
C1736 C1743 1.409 . S
C1737 H1729 0.930 . S
C1737 C1735 1.419 . S
C1737 C1738 1.362 . S
C1738 H1730 0.930 . S
C1738 C1737 1.362 . S
C1738 C1741 1.409 . S
C1739 H1731 0.930 . S
C1739 C1740 1.355 . S
C1739 C1741 1.415 . S
C1740 C1739 1.355 . S
C1740 C1742 1.419 . S
C1741 C1736 1.425 . S
C1741 C1738 1.409 . S
C1741 C1739 1.415 . S
C1742 H1732 0.930 . S
C1742 C1740 1.419 . S
C1742 C1743 1.362 . S
C1743 H1733 0.930 . S
C1743 C1736 1.409 . S
C1743 C1742 1.362 . S
H1744 C1750 0.930 . S
H1745 C1753 0.930 . S
H1746 C1754 0.930 . S
H1747 C1755 0.930 . S
H1748 C1758 0.930 . S
H1749 C1759 0.930 . S
C1750 H1744 0.930 . S
C1750 C1751 1.355 . S
C1750 C1752 1.415 . S
C1751 C1750 1.355 . S
C1751 C1753 1.419 . S
C1752 C1750 1.415 . S
C1752 C1757 1.425 . S
C1752 C1759 1.409 . S
C1753 H1745 0.930 . S
C1753 C1751 1.419 . S
C1753 C1754 1.362 . S
C1754 H1746 0.930 . S
C1754 C1753 1.362 . S
C1754 C1757 1.409 . S
C1755 H1747 0.930 . S
C1755 C1756 1.355 . S
C1755 C1757 1.415 . S
C1756 C1755 1.355 . S
C1756 C1758 1.419 . S
C1757 C1752 1.425 . S
C1757 C1754 1.409 . S
C1757 C1755 1.415 . S
C1758 H1748 0.930 . S
C1758 C1756 1.419 . S
C1758 C1759 1.362 . S
C1759 H1749 0.930 . S
C1759 C1752 1.409 . S
C1759 C1758 1.362 . S
H1760 C1766 0.930 . S
H1761 C1769 0.930 . S
H1762 C1770 0.930 . S
H1763 C1771 0.930 . S
H1764 C1774 0.930 . S
H1765 C1775 0.930 . S
C1766 H1760 0.930 . S
C1766 C1767 1.355 . S
C1766 C1768 1.415 . S
C1767 C1766 1.355 . S
C1767 C1769 1.419 . S
C1768 C1766 1.415 . S
C1768 C1773 1.425 . S
C1768 C1775 1.409 . S
C1769 H1761 0.930 . S
C1769 C1767 1.419 . S
C1769 C1770 1.362 . S
C1770 H1762 0.930 . S
C1770 C1769 1.362 . S
C1770 C1773 1.409 . S
C1771 H1763 0.930 . S
C1771 C1772 1.355 . S
C1771 C1773 1.415 . S
C1772 C1771 1.355 . S
C1772 C1774 1.419 . S
C1773 C1768 1.425 . S
C1773 C1770 1.409 . S
C1773 C1771 1.415 . S
C1774 H1764 0.930 . S
C1774 C1772 1.419 . S
C1774 C1775 1.362 . S
C1775 H1765 0.930 . S
C1775 C1768 1.409 . S
C1775 C1774 1.362 . S
H1776 C1782 0.930 . S
H1777 C1785 0.930 . S
H1778 C1786 0.930 . S
H1779 C1787 0.930 . S
H1780 C1790 0.930 . S
H1781 C1791 0.930 . S
C1782 H1776 0.930 . S
C1782 C1783 1.355 . S
C1782 C1784 1.415 . S
C1783 C1782 1.355 . S
C1783 C1785 1.419 . S
C1784 C1782 1.415 . S
C1784 C1789 1.425 . S
C1784 C1791 1.409 . S
C1785 H1777 0.930 . S
C1785 C1783 1.419 . S
C1785 C1786 1.362 . S
C1786 H1778 0.930 . S
C1786 C1785 1.362 . S
C1786 C1789 1.409 . S
C1787 H1779 0.930 . S
C1787 C1788 1.355 . S
C1787 C1789 1.415 . S
C1788 C1787 1.355 . S
C1788 C1790 1.419 . S
C1789 C1784 1.425 . S
C1789 C1786 1.409 . S
C1789 C1787 1.415 . S
C1790 H1780 0.930 . S
C1790 C1788 1.419 . S
C1790 C1791 1.362 . S
C1791 H1781 0.930 . S
C1791 C1784 1.409 . S
C1791 C1790 1.362 . S
H1792 C1798 0.930 . S
H1793 C1801 0.930 . S
H1794 C1802 0.930 . S
H1795 C1803 0.930 . S
H1796 C1806 0.930 . S
H1797 C1807 0.930 . S
C1798 H1792 0.930 . S
C1798 C1799 1.355 . S
C1798 C1800 1.415 . S
C1799 C1798 1.355 . S
C1799 C1801 1.419 . S
C1800 C1798 1.415 . S
C1800 C1805 1.425 . S
C1800 C1807 1.409 . S
C1801 H1793 0.930 . S
C1801 C1799 1.419 . S
C1801 C1802 1.362 . S
C1802 H1794 0.930 . S
C1802 C1801 1.362 . S
C1802 C1805 1.409 . S
C1803 H1795 0.930 . S
C1803 C1804 1.355 . S
C1803 C1805 1.415 . S
C1804 C1803 1.355 . S
C1804 C1806 1.419 . S
C1805 C1800 1.425 . S
C1805 C1802 1.409 . S
C1805 C1803 1.415 . S
C1806 H1796 0.930 . S
C1806 C1804 1.419 . S
C1806 C1807 1.362 . S
C1807 H1797 0.930 . S
C1807 C1800 1.409 . S
C1807 C1806 1.362 . S
H1808 C1814 0.930 . S
H1809 C1817 0.930 . S
H1810 C1818 0.930 . S
H1811 C1819 0.930 . S
H1812 C1822 0.930 . S
H1813 C1823 0.930 . S
C1814 H1808 0.930 . S
C1814 C1815 1.355 . S
C1814 C1816 1.415 . S
C1815 C1814 1.355 . S
C1815 C1817 1.419 . S
C1816 C1814 1.415 . S
C1816 C1821 1.425 . S
C1816 C1823 1.409 . S
C1817 H1809 0.930 . S
C1817 C1815 1.419 . S
C1817 C1818 1.362 . S
C1818 H1810 0.930 . S
C1818 C1817 1.362 . S
C1818 C1821 1.409 . S
C1819 H1811 0.930 . S
C1819 C1820 1.355 . S
C1819 C1821 1.415 . S
C1820 C1819 1.355 . S
C1820 C1822 1.419 . S
C1821 C1816 1.425 . S
C1821 C1818 1.409 . S
C1821 C1819 1.415 . S
C1822 H1812 0.930 . S
C1822 C1820 1.419 . S
C1822 C1823 1.362 . S
C1823 H1813 0.930 . S
C1823 C1816 1.409 . S
C1823 C1822 1.362 . S
H1824 C1830 0.930 . S
H1825 C1833 0.930 . S
H1826 C1834 0.930 . S
H1827 C1835 0.930 . S
H1828 C1838 0.930 . S
H1829 C1839 0.930 . S
C1830 H1824 0.930 . S
C1830 C1831 1.355 . S
C1830 C1832 1.415 . S
C1831 C1830 1.355 . S
C1831 C1833 1.419 . S
C1832 C1830 1.415 . S
C1832 C1837 1.425 . S
C1832 C1839 1.409 . S
C1833 H1825 0.930 . S
C1833 C1831 1.419 . S
C1833 C1834 1.362 . S
C1834 H1826 0.930 . S
C1834 C1833 1.362 . S
C1834 C1837 1.409 . S
C1835 H1827 0.930 . S
C1835 C1836 1.355 . S
C1835 C1837 1.415 . S
C1836 C1835 1.355 . S
C1836 C1838 1.419 . S
C1837 C1832 1.425 . S
C1837 C1834 1.409 . S
C1837 C1835 1.415 . S
C1838 H1828 0.930 . S
C1838 C1836 1.419 . S
C1838 C1839 1.362 . S
C1839 H1829 0.930 . S
C1839 C1832 1.409 . S
C1839 C1838 1.362 . S
H1840 C1846 0.930 . S
H1841 C1849 0.930 . S
H1842 C1850 0.930 . S
H1843 C1851 0.930 . S
H1844 C1854 0.930 . S
H1845 C1855 0.930 . S
C1846 H1840 0.930 . S
C1846 C1847 1.355 . S
C1846 C1848 1.415 . S
C1847 C1846 1.355 . S
C1847 C1849 1.419 . S
C1848 C1846 1.415 . S
C1848 C1853 1.425 . S
C1848 C1855 1.409 . S
C1849 H1841 0.930 . S
C1849 C1847 1.419 . S
C1849 C1850 1.362 . S
C1850 H1842 0.930 . S
C1850 C1849 1.362 . S
C1850 C1853 1.409 . S
C1851 H1843 0.930 . S
C1851 C1852 1.355 . S
C1851 C1853 1.415 . S
C1852 C1851 1.355 . S
C1852 C1854 1.419 . S
C1853 C1848 1.425 . S
C1853 C1850 1.409 . S
C1853 C1851 1.415 . S
C1854 H1844 0.930 . S
C1854 C1852 1.419 . S
C1854 C1855 1.362 . S
C1855 H1845 0.930 . S
C1855 C1848 1.409 . S
C1855 C1854 1.362 . S
H1856 C1862 0.930 . S
H1857 C1865 0.930 . S
H1858 C1866 0.930 . S
H1859 C1867 0.930 . S
H1860 C1870 0.930 . S
H1861 C1871 0.930 . S
C1862 H1856 0.930 . S
C1862 C1863 1.355 . S
C1862 C1864 1.415 . S
C1863 C1862 1.355 . S
C1863 C1865 1.419 . S
C1864 C1862 1.415 . S
C1864 C1869 1.425 1_545 S
C1864 C1871 1.409 . S
C1865 H1857 0.930 . S
C1865 C1863 1.419 . S
C1865 C1866 1.362 1_545 S
C1866 H1858 0.930 . S
C1866 C1865 1.362 1_565 S
C1866 C1869 1.409 . S
C1867 H1859 0.930 . S
C1867 C1868 1.355 . S
C1867 C1869 1.415 . S
C1868 C1867 1.355 . S
C1868 C1870 1.419 . S
C1869 C1864 1.425 1_565 S
C1869 C1866 1.409 . S
C1869 C1867 1.415 . S
C1870 H1860 0.930 . S
C1870 C1868 1.419 . S
C1870 C1871 1.362 1_565 S
C1871 H1861 0.930 . S
C1871 C1864 1.409 . S
C1871 C1870 1.362 1_545 S
H1872 C1878 0.930 . S
H1873 C1881 0.930 . S
H1874 C1882 0.930 . S
H1875 C1883 0.930 . S
H1876 C1886 0.930 . S
H1877 C1887 0.930 . S
C1878 H1872 0.930 . S
C1878 C1879 1.355 . S
C1878 C1880 1.415 . S
C1879 C1878 1.355 . S
C1879 C1881 1.419 . S
C1880 C1878 1.415 . S
C1880 C1885 1.425 . S
C1880 C1887 1.409 . S
C1881 H1873 0.930 . S
C1881 C1879 1.419 . S
C1881 C1882 1.362 . S
C1882 H1874 0.930 . S
C1882 C1881 1.362 . S
C1882 C1885 1.409 . S
C1883 H1875 0.930 . S
C1883 C1884 1.355 . S
C1883 C1885 1.415 . S
C1884 C1883 1.355 . S
C1884 C1886 1.419 . S
C1885 C1880 1.425 . S
C1885 C1882 1.409 . S
C1885 C1883 1.415 . S
C1886 H1876 0.930 . S
C1886 C1884 1.419 . S
C1886 C1887 1.362 . S
C1887 H1877 0.930 . S
C1887 C1880 1.409 . S
C1887 C1886 1.362 . S
H1888 C1894 0.930 . S
H1889 C1897 0.930 . S
H1890 C1898 0.930 . S
H1891 C1899 0.930 . S
H1892 C1902 0.930 . S
H1893 C1903 0.930 . S
C1894 H1888 0.930 . S
C1894 C1895 1.355 . S
C1894 C1896 1.415 1_545 S
C1895 C1894 1.355 . S
C1895 C1897 1.419 . S
C1896 C1894 1.415 1_565 S
C1896 C1901 1.425 1_565 S
C1896 C1903 1.409 . S
C1897 H1889 0.930 . S
C1897 C1895 1.419 . S
C1897 C1898 1.362 . S
C1898 H1890 0.930 . S
C1898 C1897 1.362 . S
C1898 C1901 1.409 . S
C1899 H1891 0.930 . S
C1899 C1900 1.355 . S
C1899 C1901 1.415 1_565 S
C1900 C1899 1.355 . S
C1900 C1902 1.419 . S
C1901 C1896 1.425 1_545 S
C1901 C1898 1.409 . S
C1901 C1899 1.415 1_545 S
C1902 H1892 0.930 . S
C1902 C1900 1.419 . S
C1902 C1903 1.362 . S
C1903 H1893 0.930 . S
C1903 C1896 1.409 . S
C1903 C1902 1.362 . S
H1904 C1910 0.930 . S
H1905 C1913 0.930 . S
H1906 C1914 0.930 . S
H1907 C1915 0.930 . S
H1908 C1918 0.930 . S
H1909 C1919 0.930 . S
C1910 H1904 0.930 . S
C1910 C1911 1.355 . S
C1910 C1912 1.415 . S
C1911 C1910 1.355 . S
C1911 C1913 1.419 . S
C1912 C1910 1.415 . S
C1912 C1917 1.425 1_556 S
C1912 C1919 1.409 . S
C1913 H1905 0.930 . S
C1913 C1911 1.419 . S
C1913 C1914 1.362 1_556 S
C1914 H1906 0.930 . S
C1914 C1913 1.362 1_554 S
C1914 C1917 1.409 . S
C1915 H1907 0.930 . S
C1915 C1916 1.355 . S
C1915 C1917 1.415 . S
C1916 C1915 1.355 . S
C1916 C1918 1.419 . S
C1917 C1912 1.425 1_554 S
C1917 C1914 1.409 . S
C1917 C1915 1.415 . S
C1918 H1908 0.930 . S
C1918 C1916 1.419 . S
C1918 C1919 1.362 1_554 S
C1919 H1909 0.930 . S
C1919 C1912 1.409 . S
C1919 C1918 1.362 1_556 S
H1920 C1926 0.928 . S
H1921 C1929 0.930 . S
H1922 C1930 0.930 . S
H1923 C1931 0.928 . S
H1924 C1934 0.930 . S
H1925 C1935 0.930 . S
C1926 H1920 0.928 . S
C1926 C1927 1.355 . S
C1926 C1928 1.415 1_565 S
C1927 C1926 1.355 . S
C1927 C1929 1.419 . S
C1928 C1926 1.415 1_545 S
C1928 C1933 1.425 1_545 S
C1928 C1935 1.409 . S
C1929 H1921 0.930 . S
C1929 C1927 1.419 . S
C1929 C1930 1.362 . S
C1930 H1922 0.930 . S
C1930 C1929 1.362 . S
C1930 C1933 1.409 . S
C1931 H1923 0.928 . S
C1931 C1932 1.355 . S
C1931 C1933 1.415 1_545 S
C1932 C1931 1.355 . S
C1932 C1934 1.419 . S
C1933 C1928 1.425 1_565 S
C1933 C1930 1.409 . S
C1933 C1931 1.415 1_565 S
C1934 H1924 0.930 . S
C1934 C1932 1.419 . S
C1934 C1935 1.362 . S
C1935 H1925 0.930 . S
C1935 C1928 1.409 . S
C1935 C1934 1.362 . S
H1936 C1942 0.930 . S
H1937 C1945 0.930 . S
H1938 C1946 0.930 . S
H1939 C1947 0.930 . S
H1940 C1950 0.930 . S
H1941 C1951 0.930 . S
C1942 H1936 0.930 . S
C1942 C1943 1.355 . S
C1942 C1944 1.415 . S
C1943 C1942 1.355 . S
C1943 C1945 1.419 . S
C1944 C1942 1.415 . S
C1944 C1949 1.425 . S
C1944 C1951 1.409 . S
C1945 H1937 0.930 . S
C1945 C1943 1.419 . S
C1945 C1946 1.362 . S
C1946 H1938 0.930 . S
C1946 C1945 1.362 . S
C1946 C1949 1.409 . S
C1947 H1939 0.930 . S
C1947 C1948 1.355 . S
C1947 C1949 1.415 . S
C1948 C1947 1.355 . S
C1948 C1950 1.419 . S
C1949 C1944 1.425 . S
C1949 C1946 1.409 . S
C1949 C1947 1.415 . S
C1950 H1940 0.930 . S
C1950 C1948 1.419 . S
C1950 C1951 1.362 . S
C1951 H1941 0.930 . S
C1951 C1944 1.409 . S
C1951 C1950 1.362 . S
H1952 C1958 0.930 . S
H1953 C1961 0.930 . S
H1954 C1962 0.930 . S
H1955 C1963 0.930 . S
H1956 C1966 0.930 . S
H1957 C1967 0.930 . S
C1958 H1952 0.930 . S
C1958 C1959 1.355 . S
C1958 C1960 1.415 1_545 S
C1959 C1958 1.355 . S
C1959 C1961 1.419 . S
C1960 C1958 1.415 1_565 S
C1960 C1965 1.425 1_565 S
C1960 C1967 1.409 . S
C1961 H1953 0.930 . S
C1961 C1959 1.419 . S
C1961 C1962 1.362 . S
C1962 H1954 0.930 . S
C1962 C1961 1.362 . S
C1962 C1965 1.409 . S
C1963 H1955 0.930 . S
C1963 C1964 1.355 . S
C1963 C1965 1.415 1_565 S
C1964 C1963 1.355 . S
C1964 C1966 1.419 . S
C1965 C1960 1.425 1_545 S
C1965 C1962 1.409 . S
C1965 C1963 1.415 1_545 S
C1966 H1956 0.930 . S
C1966 C1964 1.419 . S
C1966 C1967 1.362 . S
C1967 H1957 0.930 . S
C1967 C1960 1.409 . S
C1967 C1966 1.362 . S
H1968 C1974 0.930 . S
H1969 C1977 0.930 . S
H1970 C1978 0.930 . S
H1971 C1979 0.930 . S
H1972 C1982 0.930 . S
H1973 C1983 0.930 . S
C1974 H1968 0.930 . S
C1974 C1975 1.355 . S
C1974 C1976 1.415 . S
C1975 C1974 1.355 . S
C1975 C1977 1.419 . S
C1976 C1974 1.415 . S
C1976 C1981 1.425 1_554 S
C1976 C1983 1.409 . S
C1977 H1969 0.930 . S
C1977 C1975 1.419 . S
C1977 C1978 1.362 1_554 S
C1978 H1970 0.930 . S
C1978 C1977 1.362 1_556 S
C1978 C1981 1.409 . S
C1979 H1971 0.930 . S
C1979 C1980 1.355 . S
C1979 C1981 1.415 . S
C1980 C1979 1.355 . S
C1980 C1982 1.419 . S
C1981 C1976 1.425 1_556 S
C1981 C1978 1.409 . S
C1981 C1979 1.415 . S
C1982 H1972 0.930 . S
C1982 C1980 1.419 . S
C1982 C1983 1.362 1_556 S
C1983 H1973 0.930 . S
C1983 C1976 1.409 . S
C1983 C1982 1.362 1_554 S
H1984 C1990 0.930 . S
H1985 C1993 0.930 . S
H1986 C1994 0.930 . S
H1987 C1995 0.930 . S
H1988 C1998 0.930 . S
H1989 C1999 0.930 . S
C1990 H1984 0.930 . S
C1990 C1991 1.355 . S
C1990 C1992 1.415 . S
C1991 C1990 1.355 . S
C1991 C1993 1.419 . S
C1992 C1990 1.415 . S
C1992 C1997 1.425 . S
C1992 C1999 1.409 . S
C1993 H1985 0.930 . S
C1993 C1991 1.419 . S
C1993 C1994 1.362 . S
C1994 H1986 0.930 . S
C1994 C1993 1.362 . S
C1994 C1997 1.409 . S
C1995 H1987 0.930 . S
C1995 C1996 1.355 . S
C1995 C1997 1.415 . S
C1996 C1995 1.355 . S
C1996 C1998 1.419 . S
C1997 C1992 1.425 . S
C1997 C1994 1.409 . S
C1997 C1995 1.415 . S
C1998 H1988 0.930 . S
C1998 C1996 1.419 . S
C1998 C1999 1.362 . S
C1999 H1989 0.930 . S
C1999 C1992 1.409 . S
C1999 C1998 1.362 . S
H2000 C2006 0.930 . S
H2001 C2009 0.930 . S
H2002 C2010 0.930 . S
H2003 C2011 0.930 . S
H2004 C2014 0.930 . S
H2005 C2015 0.930 . S
C2006 H2000 0.930 . S
C2006 C2007 1.355 . S
C2006 C2008 1.415 . S
C2007 C2006 1.355 . S
C2007 C2009 1.419 . S
C2008 C2006 1.415 . S
C2008 C2013 1.425 1_554 S
C2008 C2015 1.409 . S
C2009 H2001 0.930 . S
C2009 C2007 1.419 . S
C2009 C2010 1.362 1_554 S
C2010 H2002 0.930 . S
C2010 C2009 1.362 1_556 S
C2010 C2013 1.409 . S
C2011 H2003 0.930 . S
C2011 C2012 1.355 . S
C2011 C2013 1.415 . S
C2012 C2011 1.355 . S
C2012 C2014 1.419 . S
C2013 C2008 1.425 1_556 S
C2013 C2010 1.409 . S
C2013 C2011 1.415 . S
C2014 H2004 0.930 . S
C2014 C2012 1.419 . S
C2014 C2015 1.362 1_556 S
C2015 H2005 0.930 . S
C2015 C2008 1.409 . S
C2015 C2014 1.362 1_554 S
H2016 C2022 0.930 . S
H2017 C2025 0.930 . S
H2018 C2026 0.930 . S
H2019 C2027 0.930 . S
H2020 C2030 0.930 . S
H2021 C2031 0.930 . S
C2022 H2016 0.930 . S
C2022 C2023 1.355 . S
C2022 C2024 1.415 . S
C2023 C2022 1.355 . S
C2023 C2025 1.419 . S
C2024 C2022 1.415 . S
C2024 C2029 1.425 . S
C2024 C2031 1.409 . S
C2025 H2017 0.930 . S
C2025 C2023 1.419 . S
C2025 C2026 1.362 . S
C2026 H2018 0.930 . S
C2026 C2025 1.362 . S
C2026 C2029 1.409 . S
C2027 H2019 0.930 . S
C2027 C2028 1.355 . S
C2027 C2029 1.415 . S
C2028 C2027 1.355 . S
C2028 C2030 1.419 . S
C2029 C2024 1.425 . S
C2029 C2026 1.409 . S
C2029 C2027 1.415 . S
C2030 H2020 0.930 . S
C2030 C2028 1.419 . S
C2030 C2031 1.362 . S
C2031 H2021 0.930 . S
C2031 C2024 1.409 . S
C2031 C2030 1.362 . S
H2032 C2038 0.930 . S
H2033 C2041 0.930 . S
H2034 C2042 0.930 . S
H2035 C2043 0.930 . S
H2036 C2046 0.930 . S
H2037 C2047 0.930 . S
C2038 H2032 0.930 . S
C2038 C2039 1.355 . S
C2038 C2040 1.415 . S
C2039 C2038 1.355 . S
C2039 C2041 1.419 . S
C2040 C2038 1.415 . S
C2040 C2045 1.425 . S
C2040 C2047 1.409 . S
C2041 H2033 0.930 . S
C2041 C2039 1.419 . S
C2041 C2042 1.362 . S
C2042 H2034 0.930 . S
C2042 C2041 1.362 . S
C2042 C2045 1.409 . S
C2043 H2035 0.930 . S
C2043 C2044 1.355 . S
C2043 C2045 1.415 . S
C2044 C2043 1.355 . S
C2044 C2046 1.419 . S
C2045 C2040 1.425 . S
C2045 C2042 1.409 . S
C2045 C2043 1.415 . S
C2046 H2036 0.930 . S
C2046 C2044 1.419 . S
C2046 C2047 1.362 . S
C2047 H2037 0.930 . S
C2047 C2040 1.409 . S
C2047 C2046 1.362 . S
H2048 C2054 0.930 . S
H2049 C2057 0.930 . S
H2050 C2058 0.930 . S
H2051 C2059 0.930 . S
H2052 C2062 0.930 . S
H2053 C2063 0.930 . S
C2054 H2048 0.930 . S
C2054 C2055 1.355 . S
C2054 C2056 1.415 . S
C2055 C2054 1.355 . S
C2055 C2057 1.419 . S
C2056 C2054 1.415 . S
C2056 C2061 1.425 . S
C2056 C2063 1.409 . S
C2057 H2049 0.930 . S
C2057 C2055 1.419 . S
C2057 C2058 1.362 . S
C2058 H2050 0.930 . S
C2058 C2057 1.362 . S
C2058 C2061 1.409 . S
C2059 H2051 0.930 . S
C2059 C2060 1.355 . S
C2059 C2061 1.415 . S
C2060 C2059 1.355 . S
C2060 C2062 1.419 . S
C2061 C2056 1.425 . S
C2061 C2058 1.409 . S
C2061 C2059 1.415 . S
C2062 H2052 0.930 . S
C2062 C2060 1.419 . S
C2062 C2063 1.362 . S
C2063 H2053 0.930 . S
C2063 C2056 1.409 . S
C2063 C2062 1.362 . S
H2064 C2070 0.930 . S
H2065 C2073 0.930 . S
H2066 C2074 0.930 . S
H2067 C2075 0.930 . S
H2068 C2078 0.930 . S
H2069 C2079 0.930 . S
C2070 H2064 0.930 . S
C2070 C2071 1.355 . S
C2070 C2072 1.415 . S
C2071 C2070 1.355 . S
C2071 C2073 1.419 . S
C2072 C2070 1.415 . S
C2072 C2077 1.425 1_556 S
C2072 C2079 1.409 . S
C2073 H2065 0.930 . S
C2073 C2071 1.419 . S
C2073 C2074 1.362 1_556 S
C2074 H2066 0.930 . S
C2074 C2073 1.362 1_554 S
C2074 C2077 1.409 . S
C2075 H2067 0.930 . S
C2075 C2076 1.355 . S
C2075 C2077 1.415 . S
C2076 C2075 1.355 . S
C2076 C2078 1.419 . S
C2077 C2072 1.425 1_554 S
C2077 C2074 1.409 . S
C2077 C2075 1.415 . S
C2078 H2068 0.930 . S
C2078 C2076 1.419 . S
C2078 C2079 1.362 1_554 S
C2079 H2069 0.930 . S
C2079 C2072 1.409 . S
C2079 C2078 1.362 1_556 S
H2080 C2086 0.930 . S
H2081 C2089 0.930 . S
H2082 C2090 0.930 . S
H2083 C2091 0.930 . S
H2084 C2094 0.930 . S
H2085 C2095 0.930 . S
C2086 H2080 0.930 . S
C2086 C2087 1.355 . S
C2086 C2088 1.415 . S
C2087 C2086 1.355 . S
C2087 C2089 1.419 . S
C2088 C2086 1.415 . S
C2088 C2093 1.425 . S
C2088 C2095 1.409 . S
C2089 H2081 0.930 . S
C2089 C2087 1.419 . S
C2089 C2090 1.362 . S
C2090 H2082 0.930 . S
C2090 C2089 1.362 . S
C2090 C2093 1.409 . S
C2091 H2083 0.930 . S
C2091 C2092 1.355 . S
C2091 C2093 1.415 . S
C2092 C2091 1.355 . S
C2092 C2094 1.419 . S
C2093 C2088 1.425 . S
C2093 C2090 1.409 . S
C2093 C2091 1.415 . S
C2094 H2084 0.930 . S
C2094 C2092 1.419 . S
C2094 C2095 1.362 . S
C2095 H2085 0.930 . S
C2095 C2088 1.409 . S
C2095 C2094 1.362 . S
H2096 C2102 0.930 . S
H2097 C2105 0.930 . S
H2098 C2106 0.930 . S
H2099 C2107 0.930 . S
H2100 C2110 0.930 . S
H2101 C2111 0.930 . S
C2102 H2096 0.930 . S
C2102 C2103 1.355 . S
C2102 C2104 1.415 . S
C2103 C2102 1.355 . S
C2103 C2105 1.419 . S
C2104 C2102 1.415 . S
C2104 C2109 1.425 . S
C2104 C2111 1.409 . S
C2105 H2097 0.930 . S
C2105 C2103 1.419 . S
C2105 C2106 1.362 . S
C2106 H2098 0.930 . S
C2106 C2105 1.362 . S
C2106 C2109 1.409 . S
C2107 H2099 0.930 . S
C2107 C2108 1.355 . S
C2107 C2109 1.415 . S
C2108 C2107 1.355 . S
C2108 C2110 1.419 . S
C2109 C2104 1.425 . S
C2109 C2106 1.409 . S
C2109 C2107 1.415 . S
C2110 H2100 0.930 . S
C2110 C2108 1.419 . S
C2110 C2111 1.362 . S
C2111 H2101 0.930 . S
C2111 C2104 1.409 . S
C2111 C2110 1.362 . S
H2112 C2118 0.930 . S
H2113 C2121 0.930 . S
H2114 C2122 0.930 . S
H2115 C2123 0.930 . S
H2116 C2126 0.930 . S
H2117 C2127 0.930 . S
C2118 H2112 0.930 . S
C2118 C2119 1.355 . S
C2118 C2120 1.415 . S
C2119 C2118 1.355 . S
C2119 C2121 1.419 . S
C2120 C2118 1.415 . S
C2120 C2125 1.425 1_455 S
C2120 C2127 1.409 1_455 S
C2121 H2113 0.930 . S
C2121 C2119 1.419 . S
C2121 C2122 1.362 . S
C2122 H2114 0.930 . S
C2122 C2121 1.362 . S
C2122 C2125 1.409 1_455 S
C2123 H2115 0.930 . S
C2123 C2124 1.355 . S
C2123 C2125 1.415 . S
C2124 C2123 1.355 . S
C2124 C2126 1.419 . S
C2125 C2120 1.425 1_655 S
C2125 C2122 1.409 1_655 S
C2125 C2123 1.415 . S
C2126 H2116 0.930 . S
C2126 C2124 1.419 . S
C2126 C2127 1.362 . S
C2127 H2117 0.930 . S
C2127 C2120 1.409 1_655 S
C2127 C2126 1.362 . S
H2128 C2134 0.930 . S
H2129 C2137 0.930 . S
H2130 C2138 0.930 . S
H2131 C2139 0.930 . S
H2132 C2142 0.930 . S
H2133 C2143 0.930 . S
C2134 H2128 0.930 . S
C2134 C2135 1.355 . S
C2134 C2136 1.404 1_655 S
C2135 C2134 1.355 . S
C2135 C2137 1.419 . S
C2136 C2134 1.404 1_455 S
C2136 C2141 1.425 1_455 S
C2136 C2143 1.420 . S
C2137 H2129 0.930 . S
C2137 C2135 1.419 . S
C2137 C2138 1.362 . S
C2138 H2130 0.930 . S
C2138 C2137 1.362 . S
C2138 C2141 1.420 . S
C2139 H2131 0.930 . S
C2139 C2140 1.355 . S
C2139 C2141 1.404 1_455 S
C2140 C2139 1.355 . S
C2140 C2142 1.419 . S
C2141 C2136 1.425 1_655 S
C2141 C2138 1.420 . S
C2141 C2139 1.404 1_655 S
C2142 H2132 0.930 . S
C2142 C2140 1.419 . S
C2142 C2143 1.362 . S
C2143 H2133 0.930 . S
C2143 C2136 1.420 . S
C2143 C2142 1.362 . S
H2144 C2150 0.930 . S
H2145 C2153 0.930 . S
H2146 C2154 0.930 . S
H2147 C2155 0.930 . S
H2148 C2158 0.930 . S
H2149 C2159 0.930 . S
C2150 H2144 0.930 . S
C2150 C2151 1.355 . S
C2150 C2152 1.415 . S
C2151 C2150 1.355 . S
C2151 C2153 1.419 . S
C2152 C2150 1.415 . S
C2152 C2157 1.425 . S
C2152 C2159 1.409 . S
C2153 H2145 0.930 . S
C2153 C2151 1.419 . S
C2153 C2154 1.362 . S
C2154 H2146 0.930 . S
C2154 C2153 1.362 . S
C2154 C2157 1.409 . S
C2155 H2147 0.930 . S
C2155 C2156 1.355 . S
C2155 C2157 1.415 . S
C2156 C2155 1.355 . S
C2156 C2158 1.419 . S
C2157 C2152 1.425 . S
C2157 C2154 1.409 . S
C2157 C2155 1.415 . S
C2158 H2148 0.930 . S
C2158 C2156 1.419 . S
C2158 C2159 1.362 . S
C2159 H2149 0.930 . S
C2159 C2152 1.409 . S
C2159 C2158 1.362 . S
H2160 C2166 0.930 . S
H2161 C2169 0.930 . S
H2162 C2170 0.930 . S
H2163 C2171 0.930 . S
H2164 C2174 0.930 . S
H2165 C2175 0.930 . S
C2166 H2160 0.930 . S
C2166 C2167 1.355 . S
C2166 C2168 1.415 . S
C2167 C2166 1.355 . S
C2167 C2169 1.419 . S
C2168 C2166 1.415 . S
C2168 C2173 1.425 . S
C2168 C2175 1.409 . S
C2169 H2161 0.930 . S
C2169 C2167 1.419 . S
C2169 C2170 1.362 . S
C2170 H2162 0.930 . S
C2170 C2169 1.362 . S
C2170 C2173 1.409 . S
C2171 H2163 0.930 . S
C2171 C2172 1.355 . S
C2171 C2173 1.415 . S
C2172 C2171 1.355 . S
C2172 C2174 1.419 . S
C2173 C2168 1.425 . S
C2173 C2170 1.409 . S
C2173 C2171 1.415 . S
C2174 H2164 0.930 . S
C2174 C2172 1.419 . S
C2174 C2175 1.362 . S
C2175 H2165 0.930 . S
C2175 C2168 1.409 . S
C2175 C2174 1.362 . S
H2176 C2182 0.932 . S
H2177 C2185 0.930 . S
H2178 C2186 0.930 . S
H2179 C2187 0.932 . S
H2180 C2190 0.930 . S
H2181 C2191 0.930 . S
C2182 H2176 0.932 . S
C2182 C2183 1.351 1_455 S
C2182 C2184 1.416 . S
C2183 C2182 1.351 1_655 S
C2183 C2185 1.419 . S
C2184 C2182 1.416 . S
C2184 C2189 1.425 1_455 S
C2184 C2191 1.409 . S
C2185 H2177 0.930 . S
C2185 C2183 1.419 . S
C2185 C2186 1.362 . S
C2186 H2178 0.930 . S
C2186 C2185 1.362 . S
C2186 C2189 1.409 . S
C2187 H2179 0.932 . S
C2187 C2188 1.351 1_655 S
C2187 C2189 1.416 . S
C2188 C2187 1.351 1_455 S
C2188 C2190 1.419 . S
C2189 C2184 1.425 1_655 S
C2189 C2186 1.409 . S
C2189 C2187 1.416 . S
C2190 H2180 0.930 . S
C2190 C2188 1.419 . S
C2190 C2191 1.362 . S
C2191 H2181 0.930 . S
C2191 C2184 1.409 . S
C2191 C2190 1.362 . S
H2192 C2198 0.930 . S
H2193 C2201 0.930 . S
H2194 C2202 0.930 . S
H2195 C2203 0.930 . S
H2196 C2206 0.930 . S
H2197 C2207 0.930 . S
C2198 H2192 0.930 . S
C2198 C2199 1.355 . S
C2198 C2200 1.415 . S
C2199 C2198 1.355 . S
C2199 C2201 1.419 . S
C2200 C2198 1.415 . S
C2200 C2205 1.425 . S
C2200 C2207 1.409 . S
C2201 H2193 0.930 . S
C2201 C2199 1.419 . S
C2201 C2202 1.362 . S
C2202 H2194 0.930 . S
C2202 C2201 1.362 . S
C2202 C2205 1.409 . S
C2203 H2195 0.930 . S
C2203 C2204 1.355 . S
C2203 C2205 1.415 . S
C2204 C2203 1.355 . S
C2204 C2206 1.419 . S
C2205 C2200 1.425 . S
C2205 C2202 1.409 . S
C2205 C2203 1.415 . S
C2206 H2196 0.930 . S
C2206 C2204 1.419 . S
C2206 C2207 1.362 . S
C2207 H2197 0.930 . S
C2207 C2200 1.409 . S
C2207 C2206 1.362 . S
H2208 C2214 0.930 . S
H2209 C2217 0.930 . S
H2210 C2218 0.930 . S
H2211 C2219 0.930 . S
H2212 C2222 0.930 . S
H2213 C2223 0.930 . S
C2214 H2208 0.930 . S
C2214 C2215 1.355 . S
C2214 C2216 1.415 . S
C2215 C2214 1.355 . S
C2215 C2217 1.419 . S
C2216 C2214 1.415 . S
C2216 C2221 1.425 . S
C2216 C2223 1.409 . S
C2217 H2209 0.930 . S
C2217 C2215 1.419 . S
C2217 C2218 1.362 . S
C2218 H2210 0.930 . S
C2218 C2217 1.362 . S
C2218 C2221 1.409 . S
C2219 H2211 0.930 . S
C2219 C2220 1.355 . S
C2219 C2221 1.415 . S
C2220 C2219 1.355 . S
C2220 C2222 1.419 . S
C2221 C2216 1.425 . S
C2221 C2218 1.409 . S
C2221 C2219 1.415 . S
C2222 H2212 0.930 . S
C2222 C2220 1.419 . S
C2222 C2223 1.362 . S
C2223 H2213 0.930 . S
C2223 C2216 1.409 . S
C2223 C2222 1.362 . S
H2224 C2230 0.930 . S
H2225 C2233 0.930 . S
H2226 C2234 0.926 1_655 S
H2227 C2235 0.930 . S
H2228 C2238 0.930 . S
H2229 C2239 0.926 1_455 S
C2230 H2224 0.930 . S
C2230 C2231 1.355 . S
C2230 C2232 1.415 . S
C2231 C2230 1.355 . S
C2231 C2233 1.419 . S
C2232 C2230 1.415 . S
C2232 C2237 1.425 1_455 S
C2232 C2239 1.407 1_455 S
C2233 H2225 0.930 . S
C2233 C2231 1.419 . S
C2233 C2234 1.368 . S
C2234 H2226 0.926 1_455 S
C2234 C2233 1.368 . S
C2234 C2237 1.407 1_455 S
C2235 H2227 0.930 . S
C2235 C2236 1.355 . S
C2235 C2237 1.415 . S
C2236 C2235 1.355 . S
C2236 C2238 1.419 . S
C2237 C2232 1.425 1_655 S
C2237 C2234 1.407 1_655 S
C2237 C2235 1.415 . S
C2238 H2228 0.930 . S
C2238 C2236 1.419 . S
C2238 C2239 1.368 . S
C2239 H2229 0.926 1_655 S
C2239 C2232 1.407 1_655 S
C2239 C2238 1.368 . S
H2240 C2246 0.930 . S
H2241 C2249 0.930 . S
H2242 C2250 0.930 . S
H2243 C2251 0.930 . S
H2244 C2254 0.930 . S
H2245 C2255 0.930 . S
C2246 H2240 0.930 . S
C2246 C2247 1.355 . S
C2246 C2248 1.415 . S
C2247 C2246 1.355 . S
C2247 C2249 1.419 1_655 S
C2248 C2246 1.415 . S
C2248 C2253 1.425 1_655 S
C2248 C2255 1.409 . S
C2249 H2241 0.930 . S
C2249 C2247 1.419 1_455 S
C2249 C2250 1.362 . S
C2250 H2242 0.930 . S
C2250 C2249 1.362 . S
C2250 C2253 1.409 . S
C2251 H2243 0.930 . S
C2251 C2252 1.355 . S
C2251 C2253 1.415 . S
C2252 C2251 1.355 . S
C2252 C2254 1.419 1_455 S
C2253 C2248 1.425 1_455 S
C2253 C2250 1.409 . S
C2253 C2251 1.415 . S
C2254 H2244 0.930 . S
C2254 C2252 1.419 1_655 S
C2254 C2255 1.362 . S
C2255 H2245 0.930 . S
C2255 C2248 1.409 . S
C2255 C2254 1.362 . S
H2256 C2262 0.930 . S
H2257 C2265 0.930 . S
H2258 C2266 0.934 . S
H2259 C2267 0.930 . S
H2260 C2270 0.930 . S
H2261 C2271 0.934 . S
C2262 H2256 0.930 . S
C2262 C2263 1.355 . S
C2262 C2264 1.415 . S
C2263 C2262 1.355 . S
C2263 C2265 1.419 . S
C2264 C2262 1.415 . S
C2264 C2269 1.425 1_455 S
C2264 C2271 1.411 . S
C2265 H2257 0.930 . S
C2265 C2263 1.419 . S
C2265 C2266 1.357 1_455 S
C2266 H2258 0.934 . S
C2266 C2265 1.357 1_655 S
C2266 C2269 1.411 . S
C2267 H2259 0.930 . S
C2267 C2268 1.355 . S
C2267 C2269 1.415 . S
C2268 C2267 1.355 . S
C2268 C2270 1.419 . S
C2269 C2264 1.425 1_655 S
C2269 C2266 1.411 . S
C2269 C2267 1.415 . S
C2270 H2260 0.930 . S
C2270 C2268 1.419 . S
C2270 C2271 1.357 1_655 S
C2271 H2261 0.934 . S
C2271 C2264 1.411 . S
C2271 C2270 1.357 1_455 S
H2272 C2278 0.930 . S
H2273 C2281 0.930 . S
H2274 C2282 0.930 . S
H2275 C2283 0.930 . S
H2276 C2286 0.930 . S
H2277 C2287 0.930 . S
C2278 H2272 0.930 . S
C2278 C2279 1.355 . S
C2278 C2280 1.415 . S
C2279 C2278 1.355 . S
C2279 C2281 1.419 . S
C2280 C2278 1.415 . S
C2280 C2285 1.425 . S
C2280 C2287 1.409 . S
C2281 H2273 0.930 . S
C2281 C2279 1.419 . S
C2281 C2282 1.362 . S
C2282 H2274 0.930 . S
C2282 C2281 1.362 . S
C2282 C2285 1.409 . S
C2283 H2275 0.930 . S
C2283 C2284 1.355 . S
C2283 C2285 1.415 . S
C2284 C2283 1.355 . S
C2284 C2286 1.419 . S
C2285 C2280 1.425 . S
C2285 C2282 1.409 . S
C2285 C2283 1.415 . S
C2286 H2276 0.930 . S
C2286 C2284 1.419 . S
C2286 C2287 1.362 . S
C2287 H2277 0.930 . S
C2287 C2280 1.409 . S
C2287 C2286 1.362 . S
H2288 C2294 0.930 . S
H2289 C2297 0.930 . S
H2290 C2298 0.930 . S
H2291 C2299 0.930 . S
H2292 C2302 0.930 . S
H2293 C2303 0.930 . S
C2294 H2288 0.930 . S
C2294 C2295 1.355 . S
C2294 C2296 1.415 . S
C2295 C2294 1.355 . S
C2295 C2297 1.419 . S
C2296 C2294 1.415 . S
C2296 C2301 1.425 . S
C2296 C2303 1.409 . S
C2297 H2289 0.930 . S
C2297 C2295 1.419 . S
C2297 C2298 1.362 . S
C2298 H2290 0.930 . S
C2298 C2297 1.362 . S
C2298 C2301 1.409 . S
C2299 H2291 0.930 . S
C2299 C2300 1.355 . S
C2299 C2301 1.415 . S
C2300 C2299 1.355 . S
C2300 C2302 1.419 . S
C2301 C2296 1.425 . S
C2301 C2298 1.409 . S
C2301 C2299 1.415 . S
C2302 H2292 0.930 . S
C2302 C2300 1.419 . S
C2302 C2303 1.362 . S
C2303 H2293 0.930 . S
C2303 C2296 1.409 . S
C2303 C2302 1.362 . S
H2304 C2310 0.930 . S
H2305 C2313 0.930 . S
H2306 C2314 0.930 . S
H2307 C2315 0.930 . S
H2308 C2318 0.930 . S
H2309 C2319 0.930 . S
C2310 H2304 0.930 . S
C2310 C2311 1.355 . S
C2310 C2312 1.415 . S
C2311 C2310 1.355 . S
C2311 C2313 1.419 1_655 S
C2312 C2310 1.415 . S
C2312 C2317 1.425 1_655 S
C2312 C2319 1.409 . S
C2313 H2305 0.930 . S
C2313 C2311 1.419 1_455 S
C2313 C2314 1.362 . S
C2314 H2306 0.930 . S
C2314 C2313 1.362 . S
C2314 C2317 1.409 . S
C2315 H2307 0.930 . S
C2315 C2316 1.355 . S
C2315 C2317 1.415 . S
C2316 C2315 1.355 . S
C2316 C2318 1.419 1_455 S
C2317 C2312 1.425 1_455 S
C2317 C2314 1.409 . S
C2317 C2315 1.415 . S
C2318 H2308 0.930 . S
C2318 C2316 1.419 1_655 S
C2318 C2319 1.362 . S
C2319 H2309 0.930 . S
C2319 C2312 1.409 . S
C2319 C2318 1.362 . S
H2320 C2326 0.930 . S
H2321 C2329 0.930 . S
H2322 C2330 0.930 . S
H2323 C2331 0.930 . S
H2324 C2334 0.930 . S
H2325 C2335 0.930 . S
C2326 H2320 0.930 . S
C2326 C2327 1.355 . S
C2326 C2328 1.415 . S
C2327 C2326 1.355 . S
C2327 C2329 1.419 . S
C2328 C2326 1.415 . S
C2328 C2333 1.425 . S
C2328 C2335 1.409 . S
C2329 H2321 0.930 . S
C2329 C2327 1.419 . S
C2329 C2330 1.362 . S
C2330 H2322 0.930 . S
C2330 C2329 1.362 . S
C2330 C2333 1.409 . S
C2331 H2323 0.930 . S
C2331 C2332 1.355 . S
C2331 C2333 1.415 . S
C2332 C2331 1.355 . S
C2332 C2334 1.419 . S
C2333 C2328 1.425 . S
C2333 C2330 1.409 . S
C2333 C2331 1.415 . S
C2334 H2324 0.930 . S
C2334 C2332 1.419 . S
C2334 C2335 1.362 . S
C2335 H2325 0.930 . S
C2335 C2328 1.409 . S
C2335 C2334 1.362 . S
H2336 C2342 0.930 . S
H2337 C2345 0.930 . S
H2338 C2346 0.930 . S
H2339 C2347 0.930 . S
H2340 C2350 0.930 . S
H2341 C2351 0.930 . S
C2342 H2336 0.930 . S
C2342 C2343 1.355 . S
C2342 C2344 1.415 . S
C2343 C2342 1.355 . S
C2343 C2345 1.419 . S
C2344 C2342 1.415 . S
C2344 C2349 1.425 . S
C2344 C2351 1.409 . S
C2345 H2337 0.930 . S
C2345 C2343 1.419 . S
C2345 C2346 1.362 . S
C2346 H2338 0.930 . S
C2346 C2345 1.362 . S
C2346 C2349 1.409 . S
C2347 H2339 0.930 . S
C2347 C2348 1.355 . S
C2347 C2349 1.415 . S
C2348 C2347 1.355 . S
C2348 C2350 1.419 . S
C2349 C2344 1.425 . S
C2349 C2346 1.409 . S
C2349 C2347 1.415 . S
C2350 H2340 0.930 . S
C2350 C2348 1.419 . S
C2350 C2351 1.362 . S
C2351 H2341 0.930 . S
C2351 C2344 1.409 . S
C2351 C2350 1.362 . S
H2352 C2358 0.930 . S
H2353 C2361 0.930 . S
H2354 C2362 0.930 . S
H2355 C2363 0.930 . S
H2356 C2366 0.930 . S
H2357 C2367 0.930 . S
C2358 H2352 0.930 . S
C2358 C2359 1.355 . S
C2358 C2360 1.415 . S
C2359 C2358 1.355 . S
C2359 C2361 1.419 . S
C2360 C2358 1.415 . S
C2360 C2365 1.425 1_655 S
C2360 C2367 1.409 1_655 S
C2361 H2353 0.930 . S
C2361 C2359 1.419 . S
C2361 C2362 1.362 . S
C2362 H2354 0.930 . S
C2362 C2361 1.362 . S
C2362 C2365 1.409 1_655 S
C2363 H2355 0.930 . S
C2363 C2364 1.355 . S
C2363 C2365 1.415 . S
C2364 C2363 1.355 . S
C2364 C2366 1.419 . S
C2365 C2360 1.425 1_455 S
C2365 C2362 1.409 1_455 S
C2365 C2363 1.415 . S
C2366 H2356 0.930 . S
C2366 C2364 1.419 . S
C2366 C2367 1.362 . S
C2367 H2357 0.930 . S
C2367 C2360 1.409 1_455 S
C2367 C2366 1.362 . S
C1095 C951 1.248 . S
C1100 C2 1.315 . S
C1111 C305 1.284 1_455 S
C1116 C36 1.298 . S
C1127 C883 1.252 . S
C1132 C70 1.311 . S
C1143 C104 1.289 . S
C1148 C373 1.287 . S
C1159 C1019 1.282 . S
C1164 C138 1.299 . S
C1175 C509 1.256 . S
C1180 C172 1.308 . S
C1191 C206 1.285 . S
C1196 C1087 1.303 . S
C1207 C240 1.285 . S
C1212 C441 1.294 1_455 S
C1223 C679 1.248 . S
C1228 C274 1.314 . S
C1239 C33 1.311 1_655 S
C1244 C308 1.278 . S
C1255 C342 1.283 . S
C1260 C611 1.306 . S
C1271 C376 1.295 . S
C1276 C101 1.276 . S
C1287 C410 1.289 . S
C1292 C747 1.287 . S
C1303 C444 1.300 . S
C1308 C237 1.269 . S
C1319 C815 1.303 . S
C1324 C478 1.286 . S
C1335 C169 1.248 1_655 S
C1340 C512 1.315 . S
C1351 C407 1.253 . S
C1356 C546 1.314 . S
C1367 C580 1.309 . S
C1372 C849 1.265 . S
C1383 C339 1.277 . S
C1388 C614 1.302 . S
C1399 C648 1.311 . S
C1404 C917 1.260 1_655 S
C1415 C475 1.308 . S
C1420 C682 1.278 . S
C1431 C1053 1.264 1_655 S
C1436 C716 1.303 . S
C1447 C543 1.278 . S
C1452 C750 1.301 . S
C1463 C784 1.282 . S
C1468 C985 1.308 . S
C1479 C818 1.304 . S
C1484 C135 1.275 . S
C1495 C577 1.297 . S
C1500 C852 1.283 . S
C1511 C67 1.306 . S
C1516 C886 1.279 . S
C1527 C920 1.285 . S
C1532 C645 1.304 1_455 S
C1543 C954 1.283 . S
C1548 C203 1.307 . S
C1559 C988 1.278 . S
C1564 C781 1.311 1_455 S
C1575 C271 1.275 . S
C1580 C1022 1.303 . S
C1591 C1056 1.287 . S
C1596 C713 1.302 . S
C1607 C9 1.301 1_565 S
C1612 C179 1.336 . S
C1623 C213 1.309 1_565 S
C1628 C43 1.382 . S
C1639 C247 1.334 . S
C1644 C77 1.302 1_545 S
C1655 C111 1.324 . S
C1660 C145 1.308 1_545 S
C1671 C281 1.383 1_545 S
C1676 C451 1.351 . S
C1687 C315 1.357 . S
C1692 C485 1.381 1_545 S
C1703 C349 1.320 1_565 S
C1708 C519 1.388 . S
C1719 C383 1.305 . S
C1724 C417 1.345 1_565 S
C1735 C723 1.330 . S
C1740 C553 1.388 . S
C1751 C587 1.353 . S
C1756 C757 1.390 . S
C1767 C621 1.335 . S
C1772 C791 1.390 . S
C1783 C689 1.386 . S
C1788 C655 1.366 . S
C1799 C995 1.375 . S
C1804 C825 1.312 . S
C1815 C1029 1.359 . S
C1820 C859 1.389 . S
C1831 C1063 1.325 . S
C1836 C893 1.316 . S
C1847 C961 1.307 . S
C1852 C927 1.341 . S
C1863 C20 1.378 . S
C1868 C156 1.382 . S
C1879 C54 1.379 . S
C1884 C190 1.378 . S
C1895 C224 1.387 . S
C1900 C88 1.393 . S
C1911 C258 1.393 . S
C1916 C122 1.396 . S
C1927 C292 1.396 . S
C1932 C428 1.396 . S
C1943 C462 1.378 . S
C1948 C326 1.380 . S
C1959 C360 1.396 . S
C1964 C496 1.391 . S
C1975 C530 1.396 . S
C1980 C394 1.396 . S
C1991 C564 1.392 . S
C1996 C700 1.386 . S
C2007 C598 1.391 . S
C2012 C734 1.395 . S
C2023 C632 1.393 . S
C2028 C768 1.387 . S
C2039 C666 1.397 . S
C2044 C802 1.395 . S
C2055 C972 1.396 . S
C2060 C836 1.396 . S
C2071 C870 1.397 . S
C2076 C1006 1.395 . S
C2087 C904 1.397 . S
C2092 C1040 1.395 . S
C2103 C938 1.378 . S
C2108 C1074 1.380 . S
C2119 C5 0.999 . S
C2124 C617 0.925 . S
C2135 C651 0.947 . S
C2140 C39 1.001 . S
C2151 C73 0.997 . S
C2156 C549 0.964 . S
C2167 C107 0.971 . S
C2172 C583 0.993 . S
C2183 C753 0.905 . S
C2188 C141 0.931 . S
C2199 C787 0.956 . S
C2204 C175 0.897 . S
C2215 C209 0.984 . S
C2220 C685 0.983 . S
C2231 C243 0.919 . S
C2236 C719 0.914 . S
C2247 C277 1.000 . S
C2252 C889 0.955 . S
C2263 C923 0.904 . S
C2268 C311 0.931 . S
C2279 C821 0.980 . S
C2284 C345 0.987 . S
C2295 C379 0.899 . S
C2300 C855 0.944 . S
C2311 C413 0.988 . S
C2316 C1025 0.978 . S
C2327 C447 0.972 . S
C2332 C1059 0.898 . S
C2343 C481 0.930 . S
C2348 C957 0.905 . S
C2359 C515 0.976 . S
C2364 C991 0.900 . S
