# Generated by pormake.
# Topology wjd, (6)-cn, num edge types: 1
# Building blocks:
#     Node 0, Type 0, BuildingBlock: BETFEN_clean_sbu_0, # of connection points: 6
#     Node 1, Type 0, BuildingBlock: BETFEN_clean_sbu_0, # of connection points: 6
#     Node 2, Type 0, BuildingBlock: BETFEN_clean_sbu_0, # of connection points: 6
#     Node 3, Type 0, BuildingBlock: BETFEN_clean_sbu_0, # of connection points: 6
#     Node 4, Type 0, BuildingBlock: BETFEN_clean_sbu_0, # of connection points: 6
#     Node 5, Type 0, BuildingBlock: BETFEN_clean_sbu_0, # of connection points: 6
#     Node 6, Type 0, BuildingBlock: BETFEN_clean_sbu_0, # of connection points: 6
#     Node 7, Type 0, BuildingBlock: BETFEN_clean_sbu_0, # of connection points: 6
#     Node 8, Type 0, BuildingBlock: BETFEN_clean_sbu_0, # of connection points: 6
#     Node 9, Type 0, BuildingBlock: BETFEN_clean_sbu_0, # of connection points: 6
#     Node 10, Type 0, BuildingBlock: BETFEN_clean_sbu_0, # of connection points: 6
#     Node 11, Type 0, BuildingBlock: BETFEN_clean_sbu_0, # of connection points: 6
#     Edge 12, Type (0, 0), BuildingBlock: UVAHIK_clean_linker_0, # of connection points: 2
#     Edge 13, Type (0, 0), BuildingBlock: UVAHIK_clean_linker_0, # of connection points: 2
#     Edge 14, Type (0, 0), BuildingBlock: UVAHIK_clean_linker_0, # of connection points: 2
#     Edge 15, Type (0, 0), BuildingBlock: UVAHIK_clean_linker_0, # of connection points: 2
#     Edge 16, Type (0, 0), BuildingBlock: UVAHIK_clean_linker_0, # of connection points: 2
#     Edge 17, Type (0, 0), BuildingBlock: UVAHIK_clean_linker_0, # of connection points: 2
#     Edge 18, Type (0, 0), BuildingBlock: UVAHIK_clean_linker_0, # of connection points: 2
#     Edge 19, Type (0, 0), BuildingBlock: UVAHIK_clean_linker_0, # of connection points: 2
#     Edge 20, Type (0, 0), BuildingBlock: UVAHIK_clean_linker_0, # of connection points: 2
#     Edge 21, Type (0, 0), BuildingBlock: UVAHIK_clean_linker_0, # of connection points: 2
#     Edge 22, Type (0, 0), BuildingBlock: UVAHIK_clean_linker_0, # of connection points: 2
#     Edge 23, Type (0, 0), BuildingBlock: UVAHIK_clean_linker_0, # of connection points: 2
#     Edge 24, Type (0, 0), BuildingBlock: UVAHIK_clean_linker_0, # of connection points: 2
#     Edge 25, Type (0, 0), BuildingBlock: UVAHIK_clean_linker_0, # of connection points: 2
#     Edge 26, Type (0, 0), BuildingBlock: UVAHIK_clean_linker_0, # of connection points: 2
#     Edge 27, Type (0, 0), BuildingBlock: UVAHIK_clean_linker_0, # of connection points: 2
#     Edge 28, Type (0, 0), BuildingBlock: UVAHIK_clean_linker_0, # of connection points: 2
#     Edge 29, Type (0, 0), BuildingBlock: UVAHIK_clean_linker_0, # of connection points: 2
#     Edge 30, Type (0, 0), BuildingBlock: UVAHIK_clean_linker_0, # of connection points: 2
#     Edge 31, Type (0, 0), BuildingBlock: UVAHIK_clean_linker_0, # of connection points: 2
#     Edge 32, Type (0, 0), BuildingBlock: UVAHIK_clean_linker_0, # of connection points: 2
#     Edge 33, Type (0, 0), BuildingBlock: UVAHIK_clean_linker_0, # of connection points: 2
#     Edge 34, Type (0, 0), BuildingBlock: UVAHIK_clean_linker_0, # of connection points: 2
#     Edge 35, Type (0, 0), BuildingBlock: UVAHIK_clean_linker_0, # of connection points: 2
#     Edge 36, Type (0, 0), BuildingBlock: UVAHIK_clean_linker_0, # of connection points: 2
#     Edge 37, Type (0, 0), BuildingBlock: UVAHIK_clean_linker_0, # of connection points: 2
#     Edge 38, Type (0, 0), BuildingBlock: UVAHIK_clean_linker_0, # of connection points: 2
#     Edge 39, Type (0, 0), BuildingBlock: UVAHIK_clean_linker_0, # of connection points: 2
#     Edge 40, Type (0, 0), BuildingBlock: UVAHIK_clean_linker_0, # of connection points: 2
#     Edge 41, Type (0, 0), BuildingBlock: UVAHIK_clean_linker_0, # of connection points: 2
#     Edge 42, Type (0, 0), BuildingBlock: UVAHIK_clean_linker_0, # of connection points: 2
#     Edge 43, Type (0, 0), BuildingBlock: UVAHIK_clean_linker_0, # of connection points: 2
#     Edge 44, Type (0, 0), BuildingBlock: UVAHIK_clean_linker_0, # of connection points: 2
#     Edge 45, Type (0, 0), BuildingBlock: UVAHIK_clean_linker_0, # of connection points: 2
#     Edge 46, Type (0, 0), BuildingBlock: UVAHIK_clean_linker_0, # of connection points: 2
#     Edge 47, Type (0, 0), BuildingBlock: UVAHIK_clean_linker_0, # of connection points: 2
# Relax obj value: 0.100
# Max RMSD: 0.207
# Mean RMSD: 0.207
data_MOF--net-wjd--node1-BETFEN_clean_sbu_0--edge1-UVAHIK_clean_linker_0
_symmetry_space_group_name_H-M    P1
_symmetry_Int_Tables_number       1
_symmetry_cell_setting            triclinic
loop_
_symmetry_equiv_pos_as_xyz
'x, y, z'
_cell_length_a     50.035707
_cell_length_b     50.085574
_cell_length_c     69.310415
_cell_angle_alpha  90.008192
_cell_angle_beta   90.147171
_cell_angle_gamma 120.06114
loop_
_atom_site_label
_atom_site_type_symbol
_atom_site_fract_x
_atom_site_fract_y
_atom_site_fract_z
_atom_type_partial_charge
Pr0 Pr 0.36005 0.17032 0.12222 0.0
Pr1 Pr 0.32414 0.10469 0.13504 0.0
C2 C 0.40336 0.23003 0.11612 0.0
C3 C 0.43682 0.25337 0.11699 0.0
C4 C 0.45223 0.26747 0.09982 0.0
C5 C 0.48205 0.29307 0.10022 0.0
C6 C 0.49727 0.30543 0.11785 0.0
C7 C 0.48273 0.29003 0.13503 0.0
C8 C 0.45275 0.2643 0.13462 0.0
C9 C 0.33529 0.1264 0.09211 0.0
C10 C 0.39781 0.13427 0.13349 0.0
C11 C 0.27939 0.04511 0.13731 0.0
C12 C 0.24516 0.02733 0.13849 0.0
C13 C 0.23046 0.01247 0.15574 0.0
C14 C 0.19837 0.9928 0.15627 0.0
C15 C 0.18054 0.98737 0.13951 0.0
C16 C 0.19496 1.00347 0.12258 0.0
C17 C 0.22688 0.02333 0.12207 0.0
C18 C 0.34884 0.14454 0.16621 0.0
C19 C 0.2883 0.14638 0.12816 0.0
O20 O 0.38799 0.22004 0.13225 0.0
O21 O 0.39393 0.20883 0.10273 0.0
O22 O 0.34906 0.12493 0.10692 0.0
O23 O 0.33402 0.15171 0.09219 0.0
O24 O 0.37216 0.10769 0.13061 0.0
O25 O 0.39723 0.16016 0.13462 0.0
O26 O 0.29132 0.05923 0.12103 0.0
O27 O 0.29481 0.06108 0.15245 0.0
O28 O 0.33621 0.14941 0.15169 0.0
O29 O 0.34863 0.11855 0.16468 0.0
O30 O 0.31496 0.17158 0.12551 0.0
O31 O 0.2861 0.11918 0.13068 0.0
H32 H 0.44065 0.25954 0.08603 0.0
H33 H 0.49279 0.30392 0.0867 0.0
H34 H 0.49376 0.29891 0.14887 0.0
H35 H 0.44161 0.25388 0.14815 0.0
H36 H 0.24389 0.01519 0.16862 0.0
H37 H 0.18774 0.98053 0.16948 0.0
H38 H 0.1816 0.99984 0.10952 0.0
H39 H 0.23726 0.03463 0.10858 0.0
Pr40 Pr 0.79179 0.69703 0.40037 0.0
Pr41 Pr 0.82294 0.65389 0.41485 0.0
C42 C 0.77449 0.73976 0.40017 0.0
C43 C 0.7911 0.77386 0.39882 0.0
C44 C 0.7949 0.78839 0.38087 0.0
C45 C 0.80896 0.82047 0.3797 0.0
C46 C 0.81932 0.83874 0.39646 0.0
C47 C 0.81678 0.8243 0.4143 0.0
C48 C 0.80281 0.79223 0.41547 0.0
C49 C 0.81292 0.67841 0.36874 0.0
C50 C 0.86926 0.72825 0.40718 0.0
C51 C 0.84186 0.61219 0.41497 0.0
C52 C 0.83057 0.57871 0.41713 0.0
C53 C 0.83614 0.56754 0.43436 0.0
C54 C 0.83159 0.53768 0.43528 0.0
C55 C 0.82159 0.51838 0.41896 0.0
C56 C 0.8133 0.52846 0.40226 0.0
C57 C 0.81783 0.55839 0.40133 0.0
C58 C 0.80277 0.6773 0.44564 0.0
C59 C 0.74737 0.62042 0.40471 0.0
O60 O 0.77809 0.7278 0.41607 0.0
O61 O 0.77387 0.72451 0.38466 0.0
O62 O 0.8144 0.67206 0.38629 0.0
O63 O 0.79965 0.6949 0.36727 0.0
O64 O 0.86708 0.70091 0.40906 0.0
O65 O 0.84498 0.73232 0.40577 0.0
O66 O 0.83411 0.62122 0.39925 0.0
O67 O 0.84317 0.62809 0.43035 0.0
O68 O 0.80188 0.68034 0.42777 0.0
O69 O 0.81453 0.6596 0.44864 0.0
O70 O 0.74751 0.64706 0.40331 0.0
O71 O 0.77227 0.61826 0.40767 0.0
H72 H 0.78648 0.77497 0.36773 0.0
H73 H 0.81113 0.83094 0.36569 0.0
H74 H 0.82431 0.83763 0.42752 0.0
H75 H 0.80051 0.78183 0.42952 0.0
H76 H 0.84572 0.58246 0.44682 0.0
H77 H 0.83762 0.53029 0.44846 0.0
H78 H 0.80555 0.51413 0.38945 0.0
H79 H 0.81303 0.56613 0.38785 0.0
Pr80 Pr 0.84494 0.19202 0.12156 0.0
Pr81 Pr 0.91454 0.22363 0.13399 0.0
C82 C 0.78474 0.17441 0.1171 0.0
C83 C 0.76239 0.18572 0.11722 0.0
C84 C 0.74917 0.1877 0.09978 0.0
C85 C 0.72411 0.19274 0.09974 0.0
C86 C 0.71143 0.19564 0.11717 0.0
C87 C 0.72611 0.19601 0.13459 0.0
C88 C 0.7513 0.19103 0.13462 0.0
C89 C 0.88882 0.20882 0.09198 0.0
C90 C 0.88385 0.26821 0.12992 0.0
C91 C 0.97404 0.2393 0.13073 0.0
C92 C 0.99207 0.22346 0.13389 0.0
C93 C 1.0091 0.22792 0.15098 0.0
C94 C 0.02836 0.2152 0.15295 0.0
C95 C 0.03109 0.19807 0.1378 0.0
C96 C 0.01266 0.19208 0.12127 0.0
C97 C 0.99343 0.20461 0.11932 0.0
C98 C 0.88032 0.20302 0.16776 0.0
C99 C 0.87082 0.14613 0.12994 0.0
O100 O 0.79686 0.17306 0.13356 0.0
O101 O 0.8039 0.18206 0.1026 0.0
O102 O 0.89043 0.22485 0.10641 0.0
O103 O 0.86352 0.18205 0.0924 0.0
O104 O 0.91028 0.26842 0.13231 0.0
O105 O 0.85726 0.24272 0.12705 0.0
O106 O 0.95454 0.22926 0.11625 0.0
O107 O 0.96352 0.24679 0.14589 0.0
O108 O 0.86876 0.19961 0.15102 0.0
O109 O 0.91022 0.21831 0.16736 0.0
O110 O 0.84551 0.1479 0.1302 0.0
O111 O 0.89854 0.17094 0.12847 0.0
H112 H 0.75724 0.18385 0.08614 0.0
H113 H 0.71376 0.19299 0.08605 0.0
H114 H 0.71694 0.19815 0.14828 0.0
H115 H 0.76101 0.1898 0.14835 0.0
H116 H 1.00833 0.24206 0.16254 0.0
H117 H 0.04233 0.22013 0.16586 0.0
H118 H 0.01397 0.17853 0.10951 0.0
H119 H 0.98038 0.20025 0.10606 0.0
Pr120 Pr 0.32288 0.10297 0.40281 0.0
Pr121 Pr 0.36083 0.17259 0.415 0.0
C122 C 0.27831 0.04411 0.40781 0.0
C123 C 0.24474 0.02505 0.40357 0.0
C124 C 0.23382 0.0098 0.38581 0.0
C125 C 0.20207 0.99037 0.38268 0.0
C126 C 0.18058 0.98568 0.39726 0.0
C127 C 0.19154 1.00197 0.4147 0.0
C128 C 0.22314 0.02129 0.41782 0.0
C129 C 0.33431 0.13601 0.36892 0.0
C130 C 0.2888 0.14685 0.40691 0.0
C131 C 0.40417 0.23232 0.42065 0.0
C132 C 0.43765 0.25534 0.41962 0.0
C133 C 0.4535 0.26928 0.43676 0.0
C134 C 0.48347 0.29456 0.43628 0.0
C135 C 0.49836 0.30679 0.41862 0.0
C136 C 0.4834 0.29148 0.40145 0.0
C137 C 0.45326 0.26603 0.40193 0.0
C138 C 0.33574 0.12862 0.44482 0.0
C139 C 0.3982 0.13527 0.40319 0.0
O140 O 0.28583 0.06571 0.42081 0.0
O141 O 0.29806 0.05259 0.39347 0.0
O142 O 0.34357 0.14864 0.38539 0.0
O143 O 0.32023 0.10613 0.36974 0.0
O144 O 0.31543 0.17233 0.40912 0.0
O145 O 0.28613 0.11926 0.40586 0.0
O146 O 0.3884 0.22209 0.40459 0.0
O147 O 0.39498 0.21142 0.4342 0.0
O148 O 0.34932 0.12726 0.42992 0.0
O149 O 0.33477 0.1541 0.44497 0.0
O150 O 0.3724 0.10809 0.4041 0.0
O151 O 0.39821 0.1615 0.40458 0.0
H152 H 0.24976 0.01238 0.37445 0.0
H153 H 0.19441 0.97858 0.36894 0.0
H154 H 0.17584 0.99874 0.42636 0.0
H155 H 0.23067 0.03269 0.43168 0.0
H156 H 0.44217 0.26151 0.45059 0.0
H157 H 0.49454 0.30535 0.44979 0.0
H158 H 0.4942 0.30026 0.38759 0.0
H159 H 0.44177 0.25566 0.38844 0.0
Pr160 Pr 0.82277 0.65504 0.12095 0.0
Pr161 Pr 0.79279 0.69377 0.1341 0.0
C162 C 0.83803 0.61159 0.11282 0.0
C163 C 0.82991 0.57905 0.11537 0.0
C164 C 0.83413 0.56378 0.09977 0.0
C165 C 0.83003 0.53422 0.10197 0.0
C166 C 0.82137 0.51897 0.11989 0.0
C167 C 0.81558 0.53379 0.13531 0.0
C168 C 0.8199 0.56359 0.1331 0.0
C169 C 0.80483 0.68196 0.09171 0.0
C170 C 0.74912 0.61874 0.13399 0.0
C171 C 0.77823 0.7383 0.12976 0.0
C172 C 0.79295 0.77207 0.13318 0.0
C173 C 0.79355 0.78442 0.15151 0.0
C174 C 0.80624 0.81634 0.15395 0.0
C175 C 0.8186 0.83656 0.13813 0.0
C176 C 0.81883 0.82417 0.11998 0.0
C177 C 0.80612 0.79241 0.11754 0.0
C178 C 0.81353 0.67989 0.16773 0.0
C179 C 0.8706 0.72686 0.12923 0.0
O180 O 0.84924 0.63034 0.12761 0.0
O181 O 0.82013 0.61708 0.10177 0.0
O182 O 0.7896 0.66806 0.10645 0.0
O183 O 0.83115 0.68267 0.09157 0.0
O184 O 0.74801 0.64454 0.13208 0.0
O185 O 0.77541 0.61867 0.13368 0.0
O186 O 0.79085 0.73008 0.11621 0.0
O187 O 0.76873 0.71945 0.1446 0.0
O188 O 0.81664 0.67124 0.15102 0.0
O189 O 0.79856 0.69483 0.1673 0.0
O190 O 0.86858 0.69983 0.12707 0.0
O191 O 0.84593 0.73 0.13039 0.0
H192 H 0.84175 0.57522 0.08595 0.0
H193 H 0.83515 0.52404 0.08978 0.0
H194 H 0.80823 0.52264 0.14921 0.0
H195 H 0.81611 0.57475 0.14532 0.0
H196 H 0.78387 0.76947 0.1639 0.0
H197 H 0.80607 0.82516 0.16819 0.0
H198 H 0.82773 0.83887 0.10742 0.0
H199 H 0.80604 0.78371 0.10321 0.0
Pr200 Pr 0.91491 0.22399 0.40252 0.0
Pr201 Pr 0.84463 0.19226 0.4149 0.0
C202 C 0.97443 0.2395 0.40563 0.0
C203 C 0.99239 0.22366 0.40221 0.0
C204 C 0.01176 0.23085 0.38606 0.0
C205 C 0.03095 0.21808 0.38398 0.0
C206 C 0.03127 0.19808 0.39811 0.0
C207 C 0.01053 0.18947 0.41359 0.0
C208 C 0.99138 0.20208 0.41564 0.0
C209 C 0.87972 0.20081 0.36907 0.0
C210 C 0.8708 0.1467 0.40736 0.0
C211 C 0.78468 0.17542 0.41943 0.0
C212 C 0.76246 0.18683 0.41992 0.0
C213 C 0.74597 0.18331 0.43695 0.0
C214 C 0.72065 0.18789 0.43701 0.0
C215 C 0.71093 0.19574 0.41995 0.0
C216 C 0.72907 0.20199 0.40326 0.0
C217 C 0.75462 0.19751 0.40322 0.0
C218 C 0.88911 0.2114 0.44462 0.0
C219 C 0.8825 0.26718 0.40336 0.0
O220 O 0.95499 0.22916 0.42005 0.0
O221 O 0.96384 0.24731 0.39061 0.0
O222 O 0.8689 0.19854 0.38588 0.0
O223 O 0.90963 0.21633 0.36922 0.0
O224 O 0.84539 0.14826 0.40659 0.0
O225 O 0.89848 0.17154 0.4091 0.0
O226 O 0.79665 0.17468 0.40282 0.0
O227 O 0.80379 0.18221 0.43394 0.0
O228 O 0.89056 0.22624 0.4296 0.0
O229 O 0.86331 0.18509 0.44494 0.0
O230 O 0.90968 0.26844 0.40325 0.0
O231 O 0.85628 0.24125 0.40587 0.0
H232 H 0.01282 0.24711 0.37536 0.0
H233 H 0.04664 0.2251 0.37186 0.0
H234 H 1.00976 0.17358 0.42449 0.0
H235 H 0.97644 0.19551 0.42813 0.0
H236 H 0.75159 0.17533 0.45004 0.0
H237 H 0.70762 0.18361 0.45023 0.0
H238 H 0.72231 0.2082 0.3899 0.0
H239 H 0.76711 0.2008 0.38988 0.0
Pr240 Pr 0.10529 0.31832 0.63403 0.0
Pr241 Pr 0.17546 0.35874 0.62138 0.0
C242 C 0.04608 0.2735 0.63116 0.0
C243 C 0.02826 0.23983 0.63499 0.0
C244 C 0.01026 0.22802 0.65174 0.0
C245 C 0.99083 0.19611 0.65402 0.0
C246 C 0.98897 0.17567 0.6395 0.0
C247 C 1.00841 0.18734 0.62343 0.0
C248 C 0.02782 0.21899 0.62118 0.0
C249 C 0.14079 0.33202 0.66739 0.0
C250 C 0.1504 0.28635 0.62858 0.0
C251 C 0.23566 0.40213 0.6183 0.0
C252 C 0.2583 0.43573 0.61796 0.0
C253 C 0.2722 0.44996 0.60046 0.0
C254 C 0.29766 0.47986 0.60024 0.0
C255 C 0.31001 0.49619 0.61754 0.0
C256 C 0.29478 0.48283 0.63494 0.0
C257 C 0.26924 0.45287 0.63517 0.0
C258 C 0.13128 0.3324 0.59158 0.0
C259 C 0.13466 0.3938 0.63012 0.0
O260 O 0.06573 0.28209 0.61689 0.0
O261 O 0.05631 0.29254 0.64591 0.0
O262 O 0.1515 0.34067 0.65056 0.0
O263 O 0.11089 0.31637 0.66728 0.0
O264 O 0.17545 0.31373 0.62866 0.0
O265 O 0.12239 0.28284 0.62777 0.0
O266 O 0.22232 0.38972 0.6347 0.0
O267 O 0.21764 0.38959 0.60331 0.0
O268 O 0.12905 0.34492 0.6068 0.0
O269 O 0.15801 0.33381 0.59094 0.0
O270 O 0.10864 0.36712 0.63255 0.0
O271 O 0.1616 0.39585 0.62702 0.0
H272 H 0.01031 0.24344 0.66271 0.0
H273 H 0.97602 0.18757 0.66656 0.0
H274 H 1.00766 0.17197 0.61215 0.0
H275 H 0.0416 0.22707 0.6082 0.0
H276 H 0.26436 0.43744 0.58697 0.0
H277 H 0.3085 0.48971 0.58655 0.0
H278 H 0.30375 0.49471 0.64854 0.0
H279 H 0.25911 0.44264 0.64894 0.0
Pr280 Pr 0.19676 0.84173 0.91445 0.0
Pr281 Pr 0.22692 0.91227 0.90202 0.0
C282 C 0.18057 0.78193 0.91906 0.0
C283 C 0.19089 0.75881 0.91854 0.0
C284 C 0.19183 0.74474 0.93585 0.0
C285 C 0.19609 0.71923 0.93572 0.0
C286 C 0.19931 0.70689 0.91823 0.0
C287 C 0.20054 0.72223 0.90094 0.0
C288 C 0.19625 0.74789 0.90108 0.0
C289 C 0.21236 0.88526 0.94424 0.0
C290 C 0.27223 0.88228 0.90422 0.0
C291 C 0.24262 0.97193 0.90477 0.0
C292 C 0.2271 0.99031 0.90176 0.0
C293 C 0.22629 1.00228 0.88355 0.0
C294 C 0.21329 0.02122 0.88135 0.0
C295 C 0.20083 0.02862 0.8973 0.0
C296 C 0.2006 0.01566 0.91532 0.0
C297 C 0.21363 0.99685 0.91753 0.0
C298 C 0.2066 0.87692 0.86844 0.0
C299 C 0.14945 0.86683 0.90677 0.0
O300 O 0.17702 0.79311 0.90279 0.0
O301 O 0.19048 0.80196 0.9332 0.0
O302 O 0.22842 0.88814 0.92956 0.0
O303 O 0.18732 0.85839 0.94443 0.0
O304 O 0.27212 0.90872 0.90407 0.0
O305 O 0.24695 0.8552 0.90601 0.0
O306 O 0.23269 0.95275 0.91929 0.0
O307 O 0.24952 0.96086 0.88963 0.0
O308 O 0.20379 0.86617 0.88535 0.0
O309 O 0.22142 0.90683 0.86867 0.0
O310 O 0.15142 0.84166 0.908 0.0
O311 O 0.17387 0.89492 0.90635 0.0
H312 H 0.18782 0.7526 0.94953 0.0
H313 H 0.19565 0.70838 0.94932 0.0
H314 H 0.20296 0.71334 0.88721 0.0
H315 H 0.19577 0.75824 0.88746 0.0
H316 H 0.2362 0.9975 0.87106 0.0
H317 H 0.21341 0.03046 0.8672 0.0
H318 H 0.19155 0.0211 0.92796 0.0
H319 H 0.2138 0.98804 0.93177 0.0
Pr320 Pr 0.69796 0.79013 0.63327 0.0
Pr321 Pr 0.65857 0.82025 0.62113 0.0
C322 C 0.7428 0.77632 0.62824 0.0
C323 C 0.77636 0.79101 0.63237 0.0
C324 C 0.78752 0.78854 0.65054 0.0
C325 C 0.81926 0.801 0.65362 0.0
C326 C 0.84046 0.81627 0.63864 0.0
C327 C 0.82935 0.81981 0.62076 0.0
C328 C 0.79772 0.80721 0.61764 0.0
C329 C 0.68441 0.80999 0.66735 0.0
C330 C 0.7305 0.86782 0.62891 0.0
C331 C 0.61446 0.83544 0.61514 0.0
C332 C 0.5811 0.82532 0.61646 0.0
C333 C 0.56465 0.82206 0.59937 0.0
C334 C 0.53476 0.81753 0.59991 0.0
C335 C 0.52059 0.81676 0.61759 0.0
C336 C 0.53627 0.81787 0.63478 0.0
C337 C 0.56622 0.8221 0.63423 0.0
C338 C 0.68404 0.80167 0.5913 0.0
C339 C 0.62312 0.74588 0.63337 0.0
O340 O 0.73503 0.7901 0.61516 0.0
O341 O 0.72325 0.76519 0.6427 0.0
O342 O 0.6756 0.81339 0.65074 0.0
O343 O 0.69927 0.79493 0.66647 0.0
O344 O 0.70359 0.86601 0.62658 0.0
O345 O 0.73376 0.84329 0.63025 0.0
O346 O 0.63099 0.84249 0.63097 0.0
O347 O 0.62297 0.82247 0.60203 0.0
O348 O 0.67079 0.78685 0.60629 0.0
O349 O 0.68461 0.82793 0.5911 0.0
O350 O 0.64912 0.74512 0.63169 0.0
O351 O 0.62238 0.77179 0.63249 0.0
H352 H 0.77175 0.77649 0.66225 0.0
H353 H 0.82722 0.79823 0.66762 0.0
H354 H 0.84501 0.83113 0.60886 0.0
H355 H 0.78995 0.80956 0.60347 0.0
H356 H 0.57543 0.8243 0.58547 0.0
H357 H 0.52322 0.81576 0.58634 0.0
H358 H 0.52625 0.8173 0.64871 0.0
H359 H 0.57816 0.82423 0.6477 0.0
Pr360 Pr 0.17492 0.35838 0.91569 0.0
Pr361 Pr 0.10687 0.31971 0.90274 0.0
C362 C 0.23357 0.40185 0.92431 0.0
C363 C 0.2577 0.43441 0.92152 0.0
C364 C 0.27701 0.45035 0.93711 0.0
C365 C 0.30229 0.47998 0.9347 0.0
C366 C 0.30885 0.49455 0.91657 0.0
C367 C 0.28836 0.47912 0.90115 0.0
C368 C 0.26304 0.44928 0.90358 0.0
C369 C 0.13029 0.33123 0.945 0.0
C370 C 0.13761 0.39433 0.90235 0.0
C371 C 0.0474 0.2755 0.9054 0.0
C372 C 0.02966 0.24163 0.90214 0.0
C373 C 0.01356 0.22893 0.88478 0.0
C374 C 0.99429 0.1969 0.88283 0.0
C375 C 0.99071 0.17715 0.89826 0.0
C376 C 1.00854 0.18973 0.915 0.0
C377 C 0.02763 0.22151 0.91696 0.0
C378 C 0.14106 0.33315 0.86899 0.0
C379 C 0.15116 0.28704 0.90784 0.0
O380 O 0.2263 0.38286 0.9097 0.0
O381 O 0.20997 0.3964 0.93506 0.0
O382 O 0.12899 0.34556 0.93046 0.0
O383 O 0.15537 0.32952 0.94467 0.0
O384 O 0.11085 0.36853 0.90459 0.0
O385 O 0.16404 0.39455 0.90248 0.0
O386 O 0.06658 0.28489 0.92003 0.0
O387 O 0.05815 0.29373 0.89035 0.0
O388 O 0.15312 0.34213 0.88558 0.0
O389 O 0.1112 0.31786 0.86957 0.0
O390 O 0.17619 0.31436 0.90763 0.0
O391 O 0.12329 0.28372 0.90907 0.0
H392 H 0.27321 0.43936 0.9511 0.0
H393 H 0.31753 0.49074 0.9469 0.0
H394 H 0.29222 0.48981 0.88708 0.0
H395 H 0.24818 0.4376 0.89136 0.0
H396 H 0.01495 0.24377 0.873 0.0
H397 H 0.9809 0.1878 0.86972 0.0
H398 H 1.00676 0.17502 0.92697 0.0
H399 H 0.03997 0.23027 0.93045 0.0
Pr400 Pr 0.22558 0.91017 0.63322 0.0
Pr401 Pr 0.19641 0.84123 0.62104 0.0
C402 C 0.24113 0.96976 0.63034 0.0
C403 C 0.2259 0.98831 0.63389 0.0
C404 C 0.2283 1.00248 0.65183 0.0
C405 C 0.21586 0.02184 0.65441 0.0
C406 C 0.20072 0.02741 0.63913 0.0
C407 C 0.19714 0.01216 0.62149 0.0
C408 C 0.20967 0.99298 0.61888 0.0
C409 C 0.20548 0.87608 0.66723 0.0
C410 C 0.14852 0.86507 0.62832 0.0
C411 C 0.18111 0.78233 0.61337 0.0
C412 C 0.1898 0.75828 0.61567 0.0
C413 C 0.18473 0.73839 0.60014 0.0
C414 C 0.18921 0.71316 0.60219 0.0
C415 C 0.19912 0.70719 0.61987 0.0
C416 C 0.20582 0.72824 0.63519 0.0
C417 C 0.2011 0.75349 0.63314 0.0
C418 C 0.2125 0.885 0.59134 0.0
C419 C 0.27013 0.87995 0.63384 0.0
O420 O 0.23017 0.95023 0.61597 0.0
O421 O 0.24909 0.95907 0.64523 0.0
O422 O 0.20251 0.86432 0.6506 0.0
O423 O 0.22001 0.90593 0.66651 0.0
O424 O 0.15104 0.84016 0.6287 0.0
O425 O 0.17295 0.89304 0.62714 0.0
O426 O 0.17101 0.79033 0.62846 0.0
O427 O 0.19782 0.80531 0.60179 0.0
O428 O 0.2288 0.88708 0.60573 0.0
O429 O 0.18603 0.85957 0.59192 0.0
O430 O 0.27056 0.9064 0.63135 0.0
O431 O 0.24425 0.85319 0.63376 0.0
H432 H 0.24038 0.9992 0.66376 0.0
H433 H 0.21862 0.03297 0.66826 0.0
H434 H 0.18588 0.01615 0.60937 0.0
H435 H 0.20732 0.98246 0.60485 0.0
H436 H 0.17611 0.74171 0.58652 0.0
H437 H 0.18337 0.69751 0.59009 0.0
H438 H 0.21412 0.72491 0.64891 0.0
H439 H 0.20557 0.76876 0.6453 0.0
Pr440 Pr 0.65929 0.82117 0.91501 0.0
Pr441 Pr 0.6974 0.78931 0.90217 0.0
C442 C 0.61645 0.83858 0.91921 0.0
C443 C 0.58287 0.82813 0.91849 0.0
C444 C 0.56701 0.82558 0.93569 0.0
C445 C 0.53684 0.82049 0.93534 0.0
C446 C 0.52176 0.81847 0.91772 0.0
C447 C 0.53709 0.81927 0.90049 0.0
C448 C 0.56721 0.82397 0.90087 0.0
C449 C 0.68772 0.80572 0.94444 0.0
C450 C 0.62221 0.74477 0.90706 0.0
C451 C 0.74118 0.7734 0.90503 0.0
C452 C 0.77514 0.78924 0.90203 0.0
C453 C 0.78766 0.78241 0.8859 0.0
C454 C 0.81969 0.79519 0.88411 0.0
C455 C 0.83981 0.81487 0.89849 0.0
C456 C 0.82735 0.82305 0.91402 0.0
C457 C 0.79548 0.8104 0.9158 0.0
C458 C 0.68165 0.80833 0.86852 0.0
C459 C 0.73182 0.86706 0.90676 0.0
O460 O 0.63095 0.84123 0.90299 0.0
O461 O 0.62672 0.82927 0.9336 0.0
O462 O 0.67343 0.78927 0.93007 0.0
O463 O 0.687 0.83135 0.94449 0.0
O464 O 0.64832 0.74458 0.90415 0.0
O465 O 0.62118 0.7702 0.91018 0.0
O466 O 0.73164 0.78292 0.91965 0.0
O467 O 0.72329 0.76657 0.8898 0.0
O468 O 0.67431 0.81245 0.88536 0.0
O469 O 0.69623 0.79302 0.86897 0.0
O470 O 0.70514 0.86584 0.90898 0.0
O471 O 0.73451 0.84217 0.90541 0.0
H472 H 0.57836 0.82863 0.94951 0.0
H473 H 0.52572 0.819 0.94898 0.0
H474 H 0.52661 0.81794 0.88658 0.0
H475 H 0.57864 0.82567 0.8873 0.0
H476 H 0.77264 0.76644 0.87497 0.0
H477 H 0.82857 0.78845 0.87195 0.0
H478 H 0.84226 0.83868 0.92513 0.0
H479 H 0.78686 0.81664 0.9283 0.0
C480 C 0.0598 0.17455 0.15385 0.0
C481 C 0.05546 0.18949 0.13801 0.0
C482 C 0.08316 0.16682 0.1535 0.0
C483 C 0.13645 0.15908 0.11908 0.0
H484 H 0.18367 0.16642 0.16519 0.0
C485 C 0.25538 0.16746 0.11654 0.0
C486 C 0.26029 0.14882 0.12949 0.0
C487 C 0.22894 0.17007 0.11803 0.0
C488 C 0.17048 0.16404 0.15224 0.0
H489 H 0.07281 0.20921 0.10984 0.0
H490 H 0.11381 0.19691 0.10945 0.0
H491 H 0.13967 0.17478 0.16722 0.0
H492 H 0.24239 0.11918 0.1545 0.0
H493 H 0.19642 0.12442 0.15747 0.0
H494 H 0.16796 0.14945 0.10403 0.0
C495 C 0.09862 0.18981 0.12182 0.0
C496 C 0.14516 0.16867 0.1534 0.0
C497 C 0.07516 0.19706 0.12207 0.0
C498 C 0.23874 0.1333 0.14417 0.0
C499 C 0.21266 0.13651 0.14597 0.0
C500 C 0.16194 0.15492 0.1179 0.0
C501 C 0.10283 0.17431 0.13742 0.0
C502 C 0.12812 0.16677 0.13675 0.0
C503 C 0.20737 0.15472 0.13281 0.0
C504 C 0.17946 0.15773 0.1344 0.0
H505 H 0.04489 0.16848 0.16633 0.0
H506 H 0.08554 0.1547 0.16572 0.0
H507 H 0.12339 0.15647 0.10604 0.0
H508 H 0.27181 0.1797 0.10514 0.0
H509 H 0.22557 0.18448 0.1078 0.0
C510 C 0.124 0.96627 0.40329 0.0
C511 C 0.1473 0.96187 0.39517 0.0
C512 C 0.09327 0.94219 0.4036 0.0
C513 C 0.04869 0.85725 0.40272 0.0
H514 H 0.97803 0.86796 0.39448 0.0
C515 C 0.92575 0.75223 0.40045 0.0
C516 C 0.90067 0.75559 0.40617 0.0
C517 C 0.95533 0.7779 0.39892 0.0
C518 C 0.9974 0.8645 0.39718 0.0
H519 H 0.15603 0.92889 0.38027 0.0
H520 H 0.10256 0.88744 0.38031 0.0
H521 H 0.02994 0.91207 0.3915 0.0
H522 H 0.88714 0.78848 0.41525 0.0
H523 H 0.93897 0.83313 0.41366 0.0
H524 H 0.01672 0.8102 0.40908 0.0
C525 C 0.10813 0.90931 0.3868 0.0
C526 C 0.02725 0.88989 0.39533 0.0
C527 C 0.13879 0.93329 0.38652 0.0
C528 C 0.90596 0.78519 0.41065 0.0
C529 C 0.93576 0.81086 0.40956 0.0
C530 C 0.01896 0.83203 0.40486 0.0
C531 C 0.08513 0.91316 0.39579 0.0
C532 C 0.05325 0.88648 0.39787 0.0
C533 C 0.96092 0.80768 0.40353 0.0
C534 C 0.99276 0.83509 0.40191 0.0
H535 H 0.12961 0.98812 0.40982 0.0
H536 H 0.07613 0.94596 0.41064 0.0
H537 H 0.0682 0.85392 0.40524 0.0
H538 H 0.92244 0.72976 0.3967 0.0
H539 H 0.97365 0.77426 0.39375 0.0
C540 C 0.84388 0.09197 0.14206 0.0
C541 C 0.86795 0.11538 0.1313 0.0
C542 C 0.84112 0.06287 0.14361 0.0
C543 C 0.86333 0.01091 0.11974 0.0
H544 H 0.84098 0.96849 0.16894 0.0
C545 C 0.85466 0.89231 0.12955 0.0
C546 C 0.82911 0.87007 0.14004 0.0
C547 C 0.86221 0.92326 0.12956 0.0
C548 C 0.84698 0.97986 0.15505 0.0
H549 H 0.90759 0.12669 0.11337 0.0
H550 H 0.90258 0.07561 0.11583 0.0
H551 H 0.84804 0.02013 0.16639 0.0
H552 H 0.79206 0.86335 0.15921 0.0
H553 H 0.80514 0.91707 0.15924 0.0
H554 H 0.86179 0.97049 0.1083 0.0
C555 C 0.88596 0.07978 0.1232 0.0
C556 C 0.85102 0.00951 0.15358 0.0
C557 C 0.889 0.10908 0.1219 0.0
C558 C 0.81211 0.87983 0.15116 0.0
C559 C 0.81963 0.91074 0.15115 0.0
C560 C 0.8592 0.98121 0.12118 0.0
C561 C 0.86211 0.05639 0.13421 0.0
C562 C 0.85898 0.0253 0.13588 0.0
C563 C 0.84441 0.93278 0.14007 0.0
C564 C 0.85069 0.96516 0.13883 0.0
H565 H 0.82739 0.09627 0.14951 0.0
H566 H 0.82226 0.04532 0.152 0.0
H567 H 0.86909 0.02225 0.10583 0.0
H568 H 0.86863 0.88573 0.12109 0.0
H569 H 0.88186 0.93968 0.12119 0.0
C570 C 0.24396 0.14122 0.38808 0.0
C571 C 0.26083 0.14916 0.40536 0.0
C572 C 0.21761 0.14401 0.38643 0.0
C573 C 0.15811 0.14782 0.41571 0.0
H574 H 0.14616 0.18593 0.37031 0.0
C575 C 0.07105 0.19038 0.41498 0.0
C576 C 0.05505 0.18858 0.3979 0.0
C577 C 0.09436 0.18286 0.41506 0.0
C578 C 0.1488 0.17474 0.38294 0.0
H579 H 0.26387 0.16591 0.43449 0.0
H580 H 0.21735 0.17024 0.43186 0.0
H581 H 0.19043 0.17809 0.3721 0.0
H582 H 0.05077 0.17711 0.36748 0.0
H583 H 0.09132 0.16328 0.36766 0.0
H584 H 0.1166 0.14434 0.42659 0.0
C585 C 0.22439 0.16196 0.41953 0.0
C586 C 0.17426 0.17033 0.38398 0.0
C587 C 0.25104 0.15969 0.42104 0.0
C588 C 0.06281 0.17886 0.38085 0.0
C589 C 0.08609 0.17104 0.38096 0.0
C590 C 0.13258 0.15201 0.41461 0.0
C591 C 0.20744 0.15427 0.40218 0.0
C592 C 0.17946 0.15729 0.40052 0.0
C593 C 0.10224 0.17308 0.39809 0.0
C594 C 0.12788 0.16605 0.39838 0.0
H595 H 0.25143 0.13327 0.37579 0.0
H596 H 0.20499 0.13779 0.37291 0.0
H597 H 0.16113 0.13713 0.42848 0.0
H598 H 0.06613 0.19846 0.42827 0.0
H599 H 0.10673 0.18552 0.42842 0.0
C600 C 0.12582 0.96141 0.15173 0.0
C601 C 0.14787 0.96235 0.13886 0.0
C602 C 0.095 0.93743 0.15065 0.0
C603 C 0.04128 0.87076 0.11835 0.0
H604 H 0.98887 0.84588 0.16352 0.0
C605 C 0.92702 0.75497 0.12161 0.0
C606 C 0.90156 0.75471 0.13028 0.0
C607 C 0.95631 0.78127 0.1226 0.0
C608 C 1.00317 0.85268 0.15073 0.0
H609 H 0.15561 0.93851 0.11546 0.0
H610 H 0.10322 0.89591 0.1144 0.0
H611 H 0.04104 0.88945 0.16567 0.0
H612 H 0.88679 0.78156 0.14701 0.0
H613 H 0.93806 0.82749 0.14887 0.0
H614 H 1.00359 0.83307 0.10373 0.0
C615 C 0.10849 0.91424 0.1246 0.0
C616 C 0.03324 0.87793 0.15189 0.0
C617 C 0.13886 0.9386 0.1253 0.0
C618 C 0.90599 0.7812 0.14007 0.0
C619 C 0.93539 0.8074 0.14127 0.0
C620 C 0.01154 0.8452 0.11734 0.0
C621 C 0.08579 0.91334 0.13703 0.0
C622 C 0.05301 0.88724 0.13576 0.0
C623 C 0.96089 0.8078 0.13248 0.0
C624 C 0.99219 0.83568 0.13353 0.0
H625 H 0.13231 0.9795 0.16237 0.0
H626 H 0.07852 0.93818 0.16036 0.0
H627 H 0.05485 0.87751 0.10528 0.0
H628 H 0.92427 0.73494 0.11388 0.0
H629 H 0.97548 0.78065 0.11584 0.0
C630 C 0.81449 0.88295 0.38385 0.0
C631 C 0.83008 0.87226 0.39561 0.0
C632 C 0.82228 0.91385 0.38434 0.0
C633 C 0.85799 0.98183 0.41616 0.0
H634 H 0.85427 0.02405 0.37022 0.0
C635 C 0.88809 0.10953 0.41654 0.0
C636 C 0.86813 0.11617 0.40605 0.0
C637 C 0.88532 0.0804 0.41519 0.0
C638 C 0.85517 0.01248 0.3832 0.0
H639 H 0.86709 0.88604 0.41649 0.0
H640 H 0.88083 0.9402 0.41729 0.0
H641 H 0.84757 0.97257 0.36744 0.0
H642 H 0.82992 0.09809 0.38581 0.0
H643 H 0.82531 0.04736 0.38321 0.0
H644 H 0.86536 0.02173 0.43192 0.0
C645 C 0.86217 0.92446 0.40793 0.0
C646 C 0.85136 0.98299 0.38161 0.0
C647 C 0.85435 0.89346 0.40745 0.0
C648 C 0.84547 0.09339 0.39413 0.0
C649 C 0.84303 0.06449 0.39253 0.0
C650 C 0.86189 0.01138 0.41775 0.0
C651 C 0.8459 0.93489 0.39658 0.0
C652 C 0.85236 0.96716 0.39809 0.0
C653 C 0.86292 0.05766 0.40304 0.0
C654 C 0.86017 0.02687 0.40131 0.0
H655 H 0.79531 0.86719 0.37483 0.0
H656 H 0.80892 0.92095 0.37564 0.0
H657 H 0.8584 0.9701 0.42919 0.0
H658 H 0.90558 0.12673 0.42594 0.0
H659 H 0.90103 0.07584 0.42342 0.0
C660 C 0.16321 0.04626 0.63306 0.0
C661 C 0.19129 0.05117 0.64086 0.0
C662 C 0.15602 0.06994 0.63307 0.0
C663 C 0.18178 0.1486 0.65365 0.0
H664 H 0.13912 0.15581 0.60895 0.0
C665 C 0.18101 0.26095 0.63718 0.0
C666 C 0.15376 0.25866 0.62979 0.0
C667 C 0.18389 0.23471 0.63902 0.0
C668 C 0.15076 0.15401 0.62166 0.0
H669 H 0.23373 0.08476 0.65487 0.0
H670 H 0.22184 0.12609 0.65443 0.0
H671 H 0.14623 0.11143 0.61197 0.0
H672 H 0.10838 0.22713 0.61816 0.0
H673 H 0.11332 0.18127 0.62138 0.0
H674 H 0.18681 0.19151 0.66312 0.0
C675 C 0.20474 0.1038 0.64881 0.0
C676 C 0.15478 0.12839 0.62345 0.0
C677 C 0.21168 0.08004 0.64904 0.0
C678 C 0.1296 0.22961 0.62401 0.0
C679 C 0.13255 0.20335 0.62573 0.0
C680 C 0.17794 0.17427 0.65179 0.0
C681 C 0.17697 0.09928 0.64064 0.0
C682 C 0.17069 0.12547 0.63937 0.0
C683 C 0.15964 0.20551 0.63342 0.0
C684 C 0.16268 0.17752 0.63567 0.0
H685 H 0.14687 0.02415 0.6268 0.0
H686 H 0.13411 0.06523 0.62702 0.0
H687 H 0.19345 0.14696 0.66638 0.0
H688 H 0.20001 0.28298 0.64185 0.0
H689 H 0.20528 0.23741 0.64471 0.0
C690 C 0.0994 0.8549 0.92155 0.0
C691 C 0.11872 0.86359 0.9054 0.0
C692 C 0.07025 0.85221 0.92019 0.0
C693 C 1.01 0.84114 0.88472 0.0
H694 H 0.97962 0.86923 0.92694 0.0
C695 C 0.89076 0.83413 0.88137 0.0
C696 C 0.8732 0.82457 0.8984 0.0
C697 C 0.92185 0.84185 0.88153 0.0
C698 C 0.98761 0.86102 0.91507 0.0
H699 H 0.12324 0.87579 0.8752 0.0
H700 H 0.07215 0.87091 0.87265 0.0
H701 H 0.03127 0.87612 0.92874 0.0
H702 H 0.87445 0.81511 0.92882 0.0
H703 H 0.92805 0.82805 0.92907 0.0
H704 H 0.96615 0.82559 0.87118 0.0
C705 C 0.07931 0.86621 0.88638 0.0
C706 C 0.01726 0.86496 0.91612 0.0
C707 C 0.10857 0.86923 0.88783 0.0
C708 C 0.88745 0.82304 0.91554 0.0
C709 C 0.91831 0.83053 0.91568 0.0
C710 C 0.98027 0.83711 0.88369 0.0
C711 C 0.05983 0.85782 0.90257 0.0
C712 C 0.02871 0.85472 0.90107 0.0
C713 C 0.93595 0.83995 0.8987 0.0
C714 C 0.96851 0.84659 0.89898 0.0
H715 H 0.10696 0.85046 0.93523 0.0
H716 H 0.05572 0.84533 0.93287 0.0
H717 H 0.01796 0.83272 0.87293 0.0
H718 H 0.8805 0.83575 0.86796 0.0
H719 H 0.93483 0.84937 0.86822 0.0
C720 C 0.77929 0.90478 0.64548 0.0
C721 C 0.75819 0.8984 0.6304 0.0
C722 C 0.80557 0.93393 0.64711 0.0
C723 C 0.85738 1.00223 0.61871 0.0
H724 H 0.87892 0.04481 0.66798 0.0
C725 C 0.94479 0.13106 0.62345 0.0
C726 C 0.96426 0.14292 0.63959 0.0
C727 C 0.92117 0.10043 0.62299 0.0
C728 C 0.87363 0.03307 0.65419 0.0
H729 H 0.74774 0.91675 0.60505 0.0
H730 H 0.79429 0.96768 0.60753 0.0
H731 H 0.83462 0.99271 0.66573 0.0
H732 H 0.97435 0.13225 0.668 0.0
H733 H 0.93336 0.07789 0.66702 0.0
H734 H 0.89641 0.04212 0.60713 0.0
C735 C 0.7904 0.95032 0.61821 0.0
C736 C 0.84814 1.00327 0.65289 0.0
C737 C 0.76375 0.92136 0.61684 0.0
C738 C 0.95957 0.12355 0.6554 0.0
C739 C 0.93605 0.09254 0.65483 0.0
C740 C 0.88303 0.03182 0.62004 0.0
C741 C 0.81149 0.95692 0.63343 0.0
C742 C 0.83947 0.9878 0.63507 0.0
C743 C 0.9166 0.08061 0.63855 0.0
C744 C 0.89111 0.04793 0.6377 0.0
H745 H 0.77518 0.88733 0.65615 0.0
H746 H 0.82147 0.93835 0.65893 0.0
H747 H 0.85159 0.9906 0.60486 0.0
H748 H 0.94755 0.14571 0.61124 0.0
H749 H 0.90616 0.09249 0.61047 0.0
C750 C 0.17872 0.26019 0.89617 0.0
C751 C 0.15424 0.25931 0.90654 0.0
C752 C 0.18111 0.23368 0.89431 0.0
C753 C 0.15663 0.15816 0.91686 0.0
H754 H 0.18022 0.1396 0.8676 0.0
C755 C 0.1647 0.04813 0.90598 0.0
C756 C 0.19047 0.05171 0.89565 0.0
C757 C 0.15724 0.07158 0.90614 0.0
C758 C 0.17386 0.14455 0.88151 0.0
H759 H 0.11343 0.23038 0.92346 0.0
H760 H 0.11783 0.18408 0.92049 0.0
H761 H 0.17397 0.18461 0.87066 0.0
H762 H 0.22814 0.08262 0.87703 0.0
H763 H 0.21532 0.12339 0.87737 0.0
H764 H 0.15709 0.1185 0.92783 0.0
C765 C 0.13508 0.20517 0.91367 0.0
C766 C 0.17029 0.17038 0.88326 0.0
C767 C 0.13243 0.23159 0.91528 0.0
C768 C 0.20788 0.07884 0.88492 0.0
C769 C 0.2005 0.1023 0.88513 0.0
C770 C 0.16033 0.13238 0.91513 0.0
C771 C 0.1593 0.20584 0.90302 0.0
C772 C 0.16193 0.17768 0.901 0.0
C773 C 0.17542 0.09924 0.89601 0.0
C774 C 0.16932 0.12541 0.89748 0.0
H775 H 0.19573 0.28124 0.88918 0.0
H776 H 0.20024 0.23508 0.88619 0.0
H777 H 0.15048 0.1633 0.93078 0.0
H778 H 0.1505 0.02732 0.91417 0.0
H779 H 0.13739 0.06814 0.91436 0.0
C780 C 0.11266 0.88573 0.62334 0.0
C781 C 0.11752 0.86174 0.62944 0.0
C782 C 0.08358 0.88302 0.62511 0.0
C783 C 0.01015 0.83961 0.65206 0.0
H784 H 0.97761 0.86887 0.61164 0.0
C785 C 0.88203 0.80559 0.64918 0.0
C786 C 0.87362 0.82591 0.6409 0.0
C787 C 0.91277 0.81257 0.64913 0.0
C788 C 0.98648 0.86105 0.62326 0.0
H789 H 0.0957 0.81599 0.64201 0.0
H790 H 0.04496 0.81111 0.64498 0.0
H791 H 0.0289 0.87539 0.6083 0.0
H792 H 0.89109 0.87032 0.62699 0.0
H793 H 0.94501 0.88305 0.62742 0.0
H794 H 0.96786 0.82526 0.66704 0.0
C795 C 0.06364 0.83219 0.63901 0.0
C796 C 0.01595 0.86471 0.6213 0.0
C797 C 0.09265 0.83484 0.63713 0.0
C798 C 0.89685 0.85404 0.63329 0.0
C799 C 0.92772 0.86121 0.63343 0.0
C800 C 0.98078 0.83608 0.65407 0.0
C801 C 0.05877 0.85633 0.63316 0.0
C802 C 0.02797 0.85365 0.63555 0.0
C803 C 0.93601 0.84026 0.64099 0.0
C804 C 0.96833 0.84633 0.63957 0.0
H805 H 0.13137 0.90667 0.61723 0.0
H806 H 0.08072 0.90212 0.62055 0.0
H807 H 0.01894 0.83143 0.66354 0.0
H808 H 0.86463 0.78352 0.65487 0.0
H809 H 0.91801 0.79556 0.65478 0.0
C810 C 0.94662 0.13242 0.91435 0.0
C811 C 0.96589 0.14428 0.89817 0.0
C812 C 0.9226 0.10197 0.91468 0.0
C813 C 0.89236 0.02546 0.89193 0.0
H814 H 0.81597 0.01168 0.91487 0.0
C815 C 0.78227 0.9043 0.89184 0.0
C816 C 0.75989 0.89756 0.90603 0.0
C817 C 0.80806 0.93393 0.89051 0.0
C818 C 0.83717 0.01465 0.9088 0.0
H819 H 0.97511 0.13338 0.86958 0.0
H820 H 0.93242 0.07968 0.87002 0.0
H821 H 0.85929 0.06335 0.91289 0.0
H822 H 0.74733 0.91547 0.93061 0.0
H823 H 0.79329 0.96612 0.92954 0.0
H824 H 0.87059 0.97666 0.88828 0.0
C825 C 0.93632 0.0941 0.88256 0.0
C826 C 0.86213 0.04461 0.90752 0.0
C827 C 0.96055 0.12485 0.88222 0.0
C828 C 0.76416 0.92038 0.91935 0.0
C829 C 0.79046 0.94961 0.91852 0.0
C830 C 0.86745 0.99527 0.89347 0.0
C831 C 0.91685 0.08246 0.89876 0.0
C832 C 0.89011 0.05043 0.8992 0.0
C833 C 0.81253 0.9572 0.90378 0.0
C834 C 0.83943 0.98934 0.90204 0.0
H835 H 0.94979 0.1469 0.92674 0.0
H836 H 0.90847 0.09373 0.92752 0.0
H837 H 0.91366 0.02912 0.88553 0.0
H838 H 0.77927 0.88695 0.88136 0.0
H839 H 0.82393 0.9386 0.87873 0.0
C840 C 0.31137 0.14192 0.33901 0.0
C841 C 0.33793 0.15162 0.35031 0.0
C842 C 0.31364 0.14771 0.31923 0.0
C843 C 0.36657 0.18981 0.2786 0.0
H844 H 0.30827 0.11694 0.25006 0.0
C845 C 0.37604 0.17211 0.19623 0.0
C846 C 0.34847 0.15591 0.18573 0.0
C847 C 0.3754 0.17623 0.2162 0.0
C848 C 0.3244 0.13773 0.25772 0.0
H849 H 0.38786 0.17616 0.35009 0.0
H850 H 0.39207 0.18649 0.31521 0.0
H851 H 0.30665 0.11662 0.28502 0.0
H852 H 0.29863 0.13145 0.18757 0.0
H853 H 0.29729 0.13875 0.22236 0.0
H854 H 0.38458 0.21065 0.25107 0.0
C855 C 0.36939 0.17475 0.32173 0.0
C856 C 0.32349 0.13755 0.27785 0.0
C857 C 0.36705 0.1691 0.34172 0.0
C858 C 0.32021 0.14474 0.19532 0.0
C859 C 0.31951 0.14851 0.21529 0.0
C860 C 0.36748 0.19 0.25835 0.0
C861 C 0.34261 0.16289 0.31014 0.0
C862 C 0.34432 0.16366 0.28861 0.0
C863 C 0.3471 0.16358 0.2261 0.0
C864 C 0.34621 0.16401 0.24764 0.0
H865 H 0.28865 0.12808 0.3453 0.0
H866 H 0.29254 0.13892 0.31089 0.0
H867 H 0.38295 0.2103 0.28641 0.0
H868 H 0.39807 0.18029 0.18914 0.0
H869 H 0.39707 0.18773 0.22402 0.0
C870 C 0.84822 0.69353 0.34098 0.0
C871 C 0.8239 0.66978 0.35139 0.0
C872 C 0.85132 0.69063 0.32111 0.0
C873 C 0.80226 0.6473 0.27885 0.0
H874 H 0.87947 0.69185 0.25108 0.0
C875 C 0.80362 0.64461 0.1955 0.0
C876 C 0.82304 0.6727 0.18627 0.0
C877 C 0.80668 0.64124 0.21536 0.0
C878 C 0.85762 0.67937 0.25855 0.0
H879 H 0.78432 0.62388 0.34928 0.0
H880 H 0.79052 0.61784 0.31485 0.0
H881 H 0.87989 0.69078 0.28617 0.0
H882 H 0.86114 0.71906 0.19033 0.0
H883 H 0.86695 0.71331 0.22477 0.0
H884 H 0.77995 0.63637 0.25128 0.0
C885 C 0.80706 0.63911 0.32187 0.0
C886 C 0.85785 0.67875 0.2788 0.0
C887 C 0.80393 0.64216 0.34177 0.0
C888 C 0.84646 0.69686 0.19703 0.0
C889 C 0.84963 0.69354 0.21684 0.0
C890 C 0.80204 0.64785 0.25863 0.0
C891 C 0.83 0.66384 0.31104 0.0
C892 C 0.83015 0.66283 0.28933 0.0
C893 C 0.82911 0.66601 0.22649 0.0
C894 C 0.8297 0.664 0.24811 0.0
H895 H 0.86328 0.7155 0.34789 0.0
H896 H 0.86908 0.71041 0.31349 0.0
H897 H 0.78029 0.63547 0.28624 0.0
H898 H 0.78477 0.62595 0.18763 0.0
H899 H 0.79072 0.61951 0.22211 0.0
C900 C 0.86196 0.21736 0.19694 0.0
C901 C 0.8635 0.19448 0.18618 0.0
C902 C 0.8556 0.21344 0.21673 0.0
C903 C 0.86136 0.16939 0.2583 0.0
H904 H 0.82342 0.20899 0.28599 0.0
C905 C 0.85608 0.16498 0.34138 0.0
C906 C 0.86237 0.19231 0.35079 0.0
C907 C 0.84951 0.1613 0.32155 0.0
C908 C 0.83428 0.19792 0.27856 0.0
H909 H 0.85902 0.1493 0.18738 0.0
H910 H 0.84632 0.14153 0.22173 0.0
H911 H 0.82388 0.20958 0.25093 0.0
H912 H 0.86633 0.23698 0.34715 0.0
H913 H 0.8552 0.23097 0.3127 0.0
H914 H 0.87244 0.15836 0.28585 0.0
C915 C 0.85048 0.16283 0.21509 0.0
C916 C 0.83455 0.19826 0.25833 0.0
C917 C 0.85709 0.16692 0.1953 0.0
C918 C 0.86057 0.21529 0.3403 0.0
C919 C 0.85433 0.21181 0.32046 0.0
C920 C 0.8611 0.16906 0.2785 0.0
C921 C 0.85072 0.1865 0.22627 0.0
C922 C 0.84832 0.18423 0.24786 0.0
C923 C 0.84974 0.18518 0.31062 0.0
C924 C 0.8478 0.18354 0.289 0.0
H925 H 0.86782 0.23922 0.19032 0.0
H926 H 0.8565 0.23245 0.22472 0.0
H927 H 0.87286 0.15892 0.25092 0.0
H928 H 0.85817 0.14729 0.34909 0.0
H929 H 0.8455 0.14019 0.31468 0.0
C930 C 0.15834 0.31606 0.69624 0.0
C931 C 0.15822 0.33984 0.68564 0.0
C932 C 0.16461 0.31936 0.71608 0.0
C933 C 0.16086 0.36426 0.75789 0.0
H934 H 0.19352 0.31978 0.78581 0.0
C935 C 0.16592 0.36805 0.84108 0.0
C936 C 0.15748 0.34013 0.85044 0.0
C937 C 0.17222 0.37122 0.82124 0.0
C938 C 0.18415 0.33224 0.77831 0.0
H939 H 0.16525 0.386 0.68722 0.0
H940 H 0.17766 0.3926 0.72165 0.0
H941 H 0.19398 0.31994 0.75075 0.0
H942 H 0.14955 0.2939 0.84672 0.0
H943 H 0.1607 0.29921 0.81227 0.0
H944 H 0.15045 0.37605 0.78539 0.0
C945 C 0.17252 0.37109 0.71484 0.0
C946 C 0.18439 0.33233 0.75807 0.0
C947 C 0.16615 0.36768 0.69498 0.0
C948 C 0.15685 0.31594 0.83988 0.0
C949 C 0.16314 0.31904 0.82007 0.0
C950 C 0.16066 0.36422 0.7781 0.0
C951 C 0.17068 0.34652 0.72586 0.0
C952 C 0.17256 0.34817 0.7475 0.0
C953 C 0.16989 0.34638 0.81028 0.0
C954 C 0.17211 0.34804 0.78867 0.0
H955 H 0.1514 0.29403 0.68944 0.0
H956 H 0.16255 0.2997 0.72388 0.0
H957 H 0.15075 0.3761 0.75047 0.0
H958 H 0.16566 0.38672 0.84883 0.0
H959 H 0.17785 0.39283 0.81439 0.0
C960 C 0.22707 0.86731 0.83873 0.0
C961 C 0.20121 0.86005 0.85012 0.0
C962 C 0.22393 0.86128 0.81895 0.0
C963 C 0.17033 0.82221 0.77808 0.0
H964 H 0.23131 0.89461 0.7506 0.0
C965 C 0.17112 0.84429 0.69431 0.0
C966 C 0.20052 0.86009 0.68583 0.0
C967 C 0.16813 0.83831 0.71427 0.0
C968 C 0.21434 0.87397 0.75797 0.0
H969 H 0.15152 0.83957 0.85001 0.0
H970 H 0.14578 0.82839 0.81515 0.0
H971 H 0.23144 0.89449 0.78554 0.0
H972 H 0.2495 0.88048 0.69108 0.0
H973 H 0.24444 0.86936 0.72547 0.0
H974 H 0.15319 0.80195 0.75012 0.0
C975 C 0.16852 0.83852 0.82163 0.0
C976 C 0.21441 0.87391 0.77808 0.0
C977 C 0.17173 0.84463 0.84159 0.0
C978 C 0.22657 0.86786 0.69725 0.0
C979 C 0.22365 0.86189 0.71701 0.0
C980 C 0.17027 0.82226 0.75776 0.0
C981 C 0.19482 0.84815 0.80997 0.0
C982 C 0.1929 0.84785 0.78845 0.0
C983 C 0.19457 0.84837 0.72597 0.0
C984 C 0.19278 0.84796 0.74749 0.0
H985 H 0.25008 0.87976 0.8449 0.0
H986 H 0.24461 0.86849 0.8105 0.0
H987 H 0.15328 0.80187 0.78565 0.0
H988 H 0.15074 0.83871 0.68583 0.0
H989 H 0.1454 0.82784 0.72071 0.0
C990 C 0.65868 0.78872 0.69827 0.0
C991 C 0.67337 0.81446 0.68612 0.0
C992 C 0.656 0.79231 0.71797 0.0
C993 C 0.6617 0.84375 0.75774 0.0
H994 H 0.68757 0.79355 0.78588 0.0
C995 C 0.68178 0.84317 0.84235 0.0
C996 C 0.67043 0.81341 0.84997 0.0
C997 C 0.67972 0.84721 0.82237 0.0
C998 C 0.6801 0.8076 0.77828 0.0
H999 H 0.69544 0.86422 0.68482 0.0
H1000 H 0.69043 0.87067 0.71971 0.0
H1001 H 0.68837 0.79374 0.75089 0.0
H1002 H 0.64657 0.76473 0.84313 0.0
H1003 H 0.64241 0.77156 0.80876 0.0
H1004 H 0.65341 0.8574 0.78559 0.0
C1005 C 0.68081 0.84763 0.71381 0.0
C1006 C 0.68053 0.80769 0.75819 0.0
C1007 C 0.68347 0.84397 0.69386 0.0
C1008 C 0.65509 0.78788 0.83766 0.0
C1009 C 0.65307 0.79183 0.81793 0.0
C1010 C 0.66132 0.84369 0.77807 0.0
C1011 C 0.66828 0.82183 0.72617 0.0
C1012 C 0.67048 0.82498 0.74761 0.0
C1013 C 0.66659 0.82151 0.80989 0.0
C1014 C 0.66967 0.82485 0.78851 0.0
H1015 H 0.65097 0.76576 0.69269 0.0
H1016 H 0.64566 0.77191 0.72698 0.0
H1017 H 0.65407 0.8575 0.74997 0.0
H1018 H 0.69439 0.86326 0.85149 0.0
H1019 H 0.69034 0.87036 0.81656 0.0
C1020 C 0.24123 0.90819 0.9751 0.0
C1021 C 0.22253 0.90838 0.96009 0.0
C1022 C 0.25219 0.93096 0.98958 0.0
C1023 C 0.24668 1.0009 1.00715 0.0
H1024 H 0.31567 0.01271 0.0387 0.0
C1025 C 0.30891 0.10566 0.05992 0.0
C1026 C 0.32216 0.10196 0.07689 0.0
C1027 C 0.29667 0.08239 0.04572 0.0
C1028 C 0.29613 0.00971 0.03026 0.0
H1029 H 0.19947 0.93177 0.94889 0.0
H1030 H 0.22091 0.97315 0.97238 0.0
H1031 H 0.29532 0.9728 1.01468 0.0
H1032 H 0.33273 0.07067 0.09219 0.0
H1033 H 0.31023 0.0298 0.06822 0.0
H1034 H 0.24841 0.03871 0.02269 0.0
C1035 C 0.2266 0.95513 0.97395 0.0
C1036 C 0.28407 0.98628 1.01623 0.0
C1037 C 0.21462 0.93156 0.95999 0.0
C1038 C 0.32268 0.07435 0.07933 0.0
C1039 C 0.31001 0.05092 0.06534 0.0
C1040 C 0.25902 0.02459 0.02105 0.0
C1041 C 0.24576 0.95551 0.98917 0.0
C1042 C 0.25888 0.98107 1.00433 0.0
C1043 C 0.29694 0.0545 0.04816 0.0
C1044 C 0.28389 0.02938 0.03298 0.0
H1045 H 0.24737 0.89031 0.97567 0.0
H1046 H 0.26562 0.92884 1.00106 0.0
H1047 H 0.22708 0.99815 0.99896 0.0
H1048 H 0.30824 0.12668 0.05753 0.0
H1049 H 0.28743 0.0866 0.03268 0.0
C1050 C 0.79632 0.72107 0.45828 0.0
C1051 C 0.79258 0.69155 0.46079 0.0
C1052 C 0.78613 0.73419 0.47236 0.0
C1053 C 0.76102 0.72581 0.52441 0.0
H1054 H 0.7272 0.777 0.50839 0.0
C1055 C 0.69582 0.76167 0.57841 0.0
C1056 C 0.69758 0.79045 0.57631 0.0
C1057 C 0.70859 0.75087 0.56455 0.0
C1058 C 0.73691 0.76312 0.51327 0.0
H1059 H 0.7766 0.6533 0.48062 0.0
H1060 H 0.7584 0.6756 0.50504 0.0
H1061 H 0.74722 0.75632 0.48431 0.0
H1062 H 0.71406 0.83031 0.55775 0.0
H1063 H 0.73652 0.81176 0.5336 0.0
H1064 H 0.75072 0.73258 0.55335 0.0
C1065 C 0.76921 0.68896 0.49221 0.0
C1066 C 0.74851 0.75114 0.49932 0.0
C1067 C 0.77948 0.67594 0.47811 0.0
C1068 C 0.7123 0.80807 0.55986 0.0
C1069 C 0.72504 0.79723 0.54591 0.0
C1070 C 0.74945 0.7378 0.53833 0.0
C1071 C 0.77211 0.71827 0.48956 0.0
C1072 C 0.76056 0.73201 0.50459 0.0
C1073 C 0.72348 0.7684 0.548 0.0
C1074 C 0.73691 0.75647 0.53304 0.0
H1075 H 0.80807 0.7345 0.44567 0.0
H1076 H 0.78985 0.75714 0.46985 0.0
H1077 H 0.77069 0.71191 0.52931 0.0
H1078 H 0.68453 0.74736 0.59086 0.0
H1079 H 0.70622 0.72838 0.56673 0.0
C1080 C 0.08186 0.3248 0.96017 0.0
C1081 C 0.10566 0.31762 0.96002 0.0
C1082 C 0.05847 0.31228 0.97413 0.0
C1083 C 0.02351 0.25065 1.01275 0.0
H1084 H 0.98386 0.29718 0.0269 0.0
C1085 C 0.91837 0.19963 0.06568 0.0
C1086 C 0.91292 0.22 0.07665 0.0
C1087 C 0.94177 0.21085 0.05159 0.0
C1088 C 0.99481 0.28382 0.02356 0.0
H1089 H 0.12324 0.29124 0.97442 0.0
H1090 H 0.08311 0.26998 0.9991 0.0
H1091 H 0.02518 0.31827 1.00378 0.0
H1092 H 0.92785 0.26815 0.08145 0.0
H1093 H 0.96843 0.28775 0.05746 0.0
H1094 H 0.99454 0.21718 0.03361 0.0
C1095 C 0.08199 0.28494 0.98828 0.0
C1096 C 0.01841 0.29581 1.00972 0.0
C1097 C 0.10536 0.29741 0.97419 0.0
C1098 C 0.93142 0.25179 0.07324 0.0
C1099 C 0.95465 0.26302 0.05917 0.0
C1100 C 1.00034 0.23896 0.02698 0.0
C1101 C 0.0581 0.29224 0.9886 0.0
C1102 C 0.03313 0.2794 1.00387 0.0
C1103 C 0.96035 0.24285 0.04795 0.0
C1104 C 0.98537 0.25525 0.03266 0.0
H1105 H 0.08126 0.3402 0.94943 0.0
H1106 H 0.04045 0.31817 0.97329 0.0
H1107 H 0.03361 0.23678 1.00866 0.0
H1108 H 0.90479 0.175 0.06816 0.0
H1109 H 0.94481 0.19421 0.04339 0.0
C1110 C 0.32238 0.07609 0.45703 0.0
C1111 C 0.32223 0.10381 0.45976 0.0
C1112 C 0.30918 0.05225 0.47066 0.0
C1113 C 0.26216 0.02823 0.51724 0.0
H1114 H 0.28681 0.96654 0.51616 0.0
C1115 C 0.2108 0.9282 0.57395 0.0
C1116 C 0.22286 0.9084 0.57573 0.0
C1117 C 0.22217 0.95162 0.55991 0.0
C1118 C 0.27951 0.98338 0.51731 0.0
H1119 H 0.30879 0.12847 0.47942 0.0
H1120 H 0.28811 0.08836 0.50391 0.0
H1121 H 0.30858 0.0076 0.49368 0.0
H1122 H 0.25585 0.89706 0.56409 0.0
H1123 H 0.27557 0.93668 0.53985 0.0
H1124 H 0.23512 1.00571 0.54184 0.0
C1125 C 0.29684 0.08386 0.49081 0.0
C1126 C 0.29188 0.00727 0.50366 0.0
C1127 C 0.30914 0.10733 0.47679 0.0
C1128 C 0.24616 0.91211 0.56303 0.0
C1129 C 0.2574 0.93524 0.54887 0.0
C1130 C 0.25051 1.00487 0.53133 0.0
C1131 C 0.29646 0.05564 0.48806 0.0
C1132 C 0.28333 0.03016 0.50313 0.0
C1133 C 0.24592 0.95593 0.54693 0.0
C1134 C 0.25867 0.98155 0.53173 0.0
H1135 H 0.33233 0.07252 0.44411 0.0
H1136 H 0.30887 0.03106 0.4672 0.0
H1137 H 0.25409 0.0446 0.51752 0.0
H1138 H 0.19289 0.92597 0.5837 0.0
H1139 H 0.21179 0.96597 0.55949 0.0
C1140 C 0.76441 0.69275 0.07825 0.0
C1141 C 0.79378 0.69564 0.07671 0.0
C1142 C 0.75368 0.70538 0.06424 0.0
C1143 C 0.77966 0.76175 0.0232 0.0
H1144 H 0.69274 0.7172 1.01012 0.0
C1145 C 0.73203 0.80475 0.96087 0.0
C1146 C 0.7005 0.79528 0.9602 0.0
C1147 C 0.74364 0.79276 0.9748 0.0
C1148 C 0.717 0.73062 1.01367 0.0
H1149 H 0.83486 0.71415 0.05907 0.0
H1150 H 0.81597 0.73558 0.03435 0.0
H1151 H 0.71225 0.69699 0.03452 0.0
H1152 H 0.6565 0.76676 0.97395 0.0
H1153 H 0.67663 0.74799 0.99923 0.0
H1154 H 0.78454 0.7958 1.00282 0.0
C1155 C 0.80133 0.72405 0.04661 0.0
C1156 C 0.72833 0.71871 0.02781 0.0
C1157 C 0.81215 0.71153 0.06073 0.0
C1158 C 0.68094 0.77439 0.97413 0.0
C1159 C 0.69265 0.76321 0.9885 0.0
C1160 C 0.76828 0.77395 1.00924 0.0
C1161 C 0.77182 0.7211 0.04807 0.0
C1162 C 0.75985 0.73401 0.03284 0.0
C1163 C 0.72423 0.77171 0.98901 0.0
C1164 C 0.73664 0.75867 1.00412 0.0
H1165 H 0.74965 0.68076 0.09039 0.0
H1166 H 0.73115 0.70303 0.06624 0.0
H1167 H 0.80401 0.77458 0.02673 0.0
H1168 H 0.74763 0.8209 0.95028 0.0
H1169 H 0.76785 0.79976 0.97402 0.0
C1170 C 0.07797 0.31678 0.57921 0.0
C1171 C 0.107 0.3194 0.57617 0.0
C1172 C 0.0547 0.30394 0.56507 0.0
C1173 C 0.04197 0.28751 0.51224 0.0
H1174 H 0.95671 0.2354 0.52762 0.0
C1175 C 0.94099 0.25153 0.45766 0.0
C1176 C 0.91397 0.22267 0.45964 0.0
C1177 C 0.9646 0.26231 0.47158 0.0
C1178 C 0.98035 0.2496 0.52291 0.0
H1179 H 0.13468 0.3119 0.55531 0.0
H1180 H 0.0945 0.29037 0.53036 0.0
H1181 H 0.99736 0.25518 0.55193 0.0
H1182 H 0.89059 0.18267 0.4781 0.0
H1183 H 0.93161 0.20118 0.50235 0.0
H1184 H 0.02517 0.28135 0.4832 0.0
C1185 C 0.0894 0.29759 0.54391 0.0
C1186 C 1.00379 0.26139 0.537 0.0
C1187 C 0.11247 0.30982 0.55827 0.0
C1188 C 0.91109 0.20497 0.47607 0.0
C1189 C 0.93468 0.21579 0.49008 0.0
C1190 C 0.01854 0.27564 0.49814 0.0
C1191 C 0.05997 0.29413 0.54714 0.0
C1192 C 0.035 0.28074 0.53194 0.0
C1193 C 0.96194 0.24469 0.4881 0.0
C1194 C 0.98722 0.25663 0.5032 0.0
H1195 H 0.0731 0.32463 0.5926 0.0
H1196 H 0.03271 0.30229 0.56809 0.0
H1197 H 0.06558 0.30248 0.50768 0.0
H1198 H 0.94396 0.26594 0.44527 0.0
H1199 H 0.98472 0.28485 0.46949 0.0
C1200 C 0.65704 0.17276 0.10536 0.0
C1201 C 0.68095 0.19423 0.11722 0.0
C1202 C 0.62733 0.1685 0.10654 0.0
C1203 C 0.57788 0.18744 0.1386 0.0
H1204 H 0.51805 0.14285 0.09833 0.0
C1205 C 0.45239 0.16253 0.14414 0.0
C1206 C 0.42861 0.13707 0.13441 0.0
C1207 C 0.48309 0.17023 0.14199 0.0
C1208 C 0.53419 0.15486 0.10994 0.0
H1209 H 0.69262 0.2293 0.13906 0.0
H1210 H 0.64153 0.2236 0.14035 0.0
H1211 H 0.57126 0.15799 0.09337 0.0
H1212 H 0.41815 0.09872 0.11548 0.0
H1213 H 0.47178 0.11079 0.11261 0.0
H1214 H 0.54069 0.18474 0.15497 0.0
C1215 C 0.64495 0.20868 0.13066 0.0
C1216 C 0.56522 0.16367 0.1071 0.0
C1217 C 0.67463 0.21233 0.12982 0.0
C1218 C 0.43599 0.11825 0.12334 0.0
C1219 C 0.46691 0.1257 0.12139 0.0
C1220 C 0.54691 0.17884 0.14135 0.0
C1221 C 0.62043 0.1861 0.11935 0.0
C1222 C 0.58767 0.17952 0.12156 0.0
C1223 C 0.49107 0.15231 0.13032 0.0
C1224 C 0.52438 0.16192 0.12721 0.0
H1225 H 0.66087 0.15799 0.09571 0.0
H1226 H 0.60971 0.1503 0.09782 0.0
H1227 H 0.59368 0.19932 0.15034 0.0
H1228 H 0.4474 0.17752 0.15281 0.0
H1229 H 0.50052 0.19112 0.14892 0.0
C1230 C 0.71999 0.56776 0.39126 0.0
C1231 C 0.7188 0.59029 0.40272 0.0
C1232 C 0.69765 0.53667 0.39296 0.0
C1233 C 0.63811 0.48178 0.42715 0.0
H1234 H 0.61304 0.42645 0.3832 0.0
C1235 C 0.53025 0.36137 0.43001 0.0
C1236 C 0.52748 0.33732 0.41818 0.0
C1237 C 0.55606 0.39087 0.42889 0.0
C1238 C 0.62007 0.4413 0.39576 0.0
H1239 H 0.69278 0.5981 0.4246 0.0
H1240 H 0.65241 0.54367 0.42696 0.0
H1241 H 0.65085 0.48051 0.37897 0.0
H1242 H 0.5505 0.32534 0.39626 0.0
H1243 H 0.59626 0.37684 0.39462 0.0
H1244 H 0.60742 0.44256 0.44395 0.0
C1245 C 0.67113 0.54999 0.41689 0.0
C1246 C 0.64182 0.47259 0.39331 0.0
C1247 C 0.69379 0.5813 0.41525 0.0
C1248 C 0.55177 0.34342 0.40547 0.0
C1249 C 0.57796 0.37304 0.4045 0.0
C1250 C 0.61646 0.45048 0.42962 0.0
C1251 C 0.6732 0.52712 0.40611 0.0
C1252 C 0.65067 0.49347 0.40887 0.0
C1253 C 0.58026 0.39738 0.416 0.0
C1254 C 0.60644 0.42986 0.41387 0.0
H1255 H 0.7394 0.57404 0.38173 0.0
H1256 H 0.70056 0.52005 0.38461 0.0
H1257 H 0.64506 0.49675 0.43965 0.0
H1258 H 0.51177 0.35777 0.43968 0.0
H1259 H 0.55628 0.40884 0.43767 0.0
C1260 C 0.88978 0.31674 0.14445 0.0
C1261 C 0.88272 0.29699 0.12858 0.0
C1262 C 0.88155 0.33976 0.14433 0.0
C1263 C 0.82899 0.36148 0.11861 0.0
H1264 H 0.87952 0.4397 0.14441 0.0
C1265 C 0.81325 0.46783 0.10746 0.0
C1266 C 0.82113 0.48917 0.1227 0.0
C1267 C 0.81758 0.44237 0.1092 0.0
C1268 C 0.86476 0.41781 0.13738 0.0
H1269 H 0.86253 0.28607 0.09999 0.0
H1270 H 0.84987 0.32703 0.09922 0.0
H1271 H 0.89499 0.40097 0.14513 0.0
H1272 H 0.83796 0.4988 0.15223 0.0
H1273 H 0.84395 0.45387 0.15554 0.0
H1274 H 0.79904 0.37873 0.11058 0.0
C1275 C 0.86073 0.32448 0.11207 0.0
C1276 C 0.87373 0.39548 0.13778 0.0
C1277 C 0.86853 0.30134 0.11234 0.0
C1278 C 0.83149 0.48305 0.14015 0.0
C1279 C 0.83547 0.45743 0.14195 0.0
C1280 C 0.82007 0.38392 0.11815 0.0
C1281 C 0.86638 0.34359 0.12823 0.0
C1282 C 0.85617 0.36706 0.12829 0.0
C1283 C 0.8296 0.4373 0.1263 0.0
C1284 C 0.83793 0.4125 0.12746 0.0
H1285 H 0.89994 0.31325 0.15733 0.0
H1286 H 0.88597 0.35366 0.15717 0.0
H1287 H 0.81436 0.33965 0.11147 0.0
H1288 H 0.80447 0.47118 0.09393 0.0
H1289 H 0.81272 0.42745 0.0968 0.0
C1290 C 0.45364 0.16596 0.39449 0.0
C1291 C 0.42913 0.13828 0.40178 0.0
C1292 C 0.4841 0.17254 0.39606 0.0
C1293 C 0.5325 0.13713 0.40604 0.0
H1294 H 0.59558 0.22187 0.41657 0.0
C1295 C 0.65469 0.16722 0.42773 0.0
C1296 C 0.67981 0.19282 0.41905 0.0
C1297 C 0.62481 0.16223 0.42586 0.0
C1298 C 0.57829 0.19819 0.41344 0.0
H1299 H 0.41742 0.09537 0.41603 0.0
H1300 H 0.47098 0.1068 0.4189 0.0
H1301 H 0.54182 0.20872 0.41296 0.0
H1302 H 0.69319 0.23385 0.40196 0.0
H1303 H 0.64043 0.22498 0.39857 0.0
H1304 H 0.56888 0.12656 0.40677 0.0
C1305 C 0.4665 0.12336 0.41172 0.0
C1306 C 0.5474 0.19057 0.41133 0.0
C1307 C 0.43574 0.11665 0.41002 0.0
C1308 C 0.6743 0.21382 0.40874 0.0
C1309 C 0.64415 0.20884 0.40692 0.0
C1310 C 0.56327 0.14471 0.40827 0.0
C1311 C 0.49113 0.15172 0.40508 0.0
C1312 C 0.52404 0.15988 0.4076 0.0
C1313 C 0.61899 0.18256 0.41514 0.0
C1314 C 0.58653 0.17526 0.41211 0.0
H1315 H 0.44937 0.18314 0.38795 0.0
H1316 H 0.50217 0.19419 0.3903 0.0
H1317 H 0.51543 0.11344 0.40279 0.0
H1318 H 0.6579 0.15028 0.43551 0.0
H1319 H 0.60611 0.14209 0.43267 0.0
C1320 C 0.55091 0.34205 0.13087 0.0
C1321 C 0.5264 0.336 0.11828 0.0
C1322 C 0.57715 0.37164 0.13187 0.0
C1323 C 0.61539 0.44945 0.10721 0.0
H1324 H 0.65195 0.47831 0.15768 0.0
C1325 C 0.69532 0.57986 0.12317 0.0
C1326 C 0.72097 0.58797 0.13512 0.0
C1327 C 0.67227 0.54875 0.12109 0.0
C1328 C 0.64229 0.47069 0.14339 0.0
H1329 H 0.51043 0.35654 0.09695 0.0
H1330 H 0.55503 0.40763 0.09906 0.0
H1331 H 0.61315 0.42459 0.15327 0.0
H1332 H 0.74211 0.57017 0.1547 0.0
H1333 H 0.70246 0.51655 0.15113 0.0
H1334 H 0.64432 0.49584 0.09747 0.0
C1335 C 0.55492 0.38962 0.10773 0.0
C1336 C 0.61997 0.4396 0.14082 0.0
C1337 C 0.52904 0.36011 0.10656 0.0
C1338 C 0.72242 0.56465 0.14554 0.0
C1339 C 0.69957 0.53378 0.14348 0.0
C1340 C 0.63758 0.4806 0.10982 0.0
C1341 C 0.57932 0.39608 0.12054 0.0
C1342 C 0.60566 0.42853 0.12277 0.0
C1343 C 0.6744 0.5252 0.13096 0.0
C1344 C 0.65103 0.49182 0.12803 0.0
H1345 H 0.54978 0.32393 0.13997 0.0
H1346 H 0.5956 0.37531 0.14164 0.0
H1347 H 0.60581 0.44187 0.09291 0.0
H1348 H 0.69395 0.59726 0.11464 0.0
H1349 H 0.65304 0.54313 0.11149 0.0
C1350 C 0.85237 0.49263 0.42504 0.0
C1351 C 0.82479 0.49044 0.41841 0.0
C1352 C 0.85755 0.46793 0.4231 0.0
C1353 C 0.82045 0.38417 0.41509 0.0
H1354 H 0.90259 0.40537 0.39802 0.0
C1355 C 0.85049 0.29082 0.39578 0.0
C1356 C 0.8793 0.29493 0.40164 0.0
C1357 C 0.84394 0.31464 0.39726 0.0
C1358 C 0.87971 0.39904 0.40305 0.0
H1359 H 0.78058 0.46019 0.4049 0.0
H1360 H 0.78963 0.41647 0.40154 0.0
H1361 H 0.88942 0.44567 0.40176 0.0
H1362 H 0.92432 0.32787 0.41297 0.0
H1363 H 0.91303 0.37017 0.41542 0.0
H1364 H 0.8108 0.33751 0.41654 0.0
C1365 C 0.80722 0.43753 0.40829 0.0
C1366 C 0.87208 0.42215 0.40515 0.0
C1367 C 0.80208 0.46253 0.41012 0.0
C1368 C 0.90209 0.32411 0.40816 0.0
C1369 C 0.89547 0.34821 0.40964 0.0
C1370 C 0.82813 0.361 0.41306 0.0
C1371 C 0.83537 0.44027 0.41441 0.0
C1372 C 0.84249 0.41508 0.41135 0.0
C1373 C 0.86601 0.34347 0.40461 0.0
C1374 C 0.85793 0.36817 0.40705 0.0
H1375 H 0.87055 0.51394 0.43119 0.0
H1376 H 0.87924 0.47067 0.42826 0.0
H1377 H 0.79755 0.37799 0.42005 0.0
H1378 H 0.83238 0.26869 0.39051 0.0
H1379 H 0.82135 0.31026 0.39276 0.0
C1380 C 0.20639 0.66379 0.60721 0.0
C1381 C 0.19957 0.67773 0.62264 0.0
C1382 C 0.20193 0.63395 0.60896 0.0
C1383 C 0.15578 0.56307 0.63791 0.0
H1384 H 0.20342 0.53353 0.61065 0.0
C1385 C 0.12972 0.43664 0.64503 0.0
C1386 C 0.13493 0.42325 0.62879 0.0
C1387 C 0.13829 0.46797 0.64485 0.0
C1388 C 0.18958 0.54126 0.61819 0.0
H1389 H 0.18463 0.6714 0.65251 0.0
H1390 H 0.17847 0.62043 0.65581 0.0
H1391 H 0.21963 0.58819 0.60971 0.0
H1392 H 0.15233 0.43145 0.59955 0.0
H1393 H 0.16568 0.48531 0.59879 0.0
H1394 H 0.12548 0.51626 0.64615 0.0
C1395 C 0.18617 0.6321 0.64208 0.0
C1396 C 0.199 0.57274 0.61768 0.0
C1397 C 0.19026 0.66174 0.64027 0.0
C1398 C 0.14759 0.44121 0.61216 0.0
C1399 C 0.15584 0.47227 0.61189 0.0
C1400 C 0.14635 0.53166 0.63837 0.0
C1401 C 0.19084 0.61731 0.62626 0.0
C1402 C 0.18211 0.58409 0.62747 0.0
C1403 C 0.15209 0.48639 0.62839 0.0
C1404 C 0.16289 0.52018 0.62839 0.0
H1405 H 0.21437 0.67556 0.59353 0.0
H1406 H 0.20587 0.62348 0.59643 0.0
H1407 H 0.14174 0.57067 0.64531 0.0
H1408 H 0.1209 0.42348 0.6582 0.0
H1409 H 0.13535 0.47802 0.65793 0.0
C1410 C 0.32173 0.89128 0.91875 0.0
C1411 C 0.30111 0.88131 0.90311 0.0
C1412 C 0.344 0.88215 0.92031 0.0
C1413 C 0.38227 0.84649 0.89224 0.0
H1414 H 0.40225 0.82986 0.94324 0.0
C1415 C 0.47018 0.80448 0.9022 0.0
C1416 C 0.49166 0.81838 0.91737 0.0
C1417 C 0.44382 0.80754 0.901 0.0
C1418 C 0.39717 0.83459 0.92887 0.0
H1419 H 0.2875 0.85435 0.87686 0.0
H1420 H 0.32622 0.8387 0.87931 0.0
H1421 H 0.3646 0.8467 0.93966 0.0
H1422 H 0.501 0.84584 0.94346 0.0
H1423 H 0.45559 0.85074 0.94147 0.0
H1424 H 0.41494 0.83463 0.88143 0.0
C1425 C 0.32594 0.85395 0.89027 0.0
C1426 C 0.37557 0.84443 0.92682 0.0
C1427 C 0.30378 0.86304 0.88877 0.0
C1428 C 0.48508 0.83422 0.9317 0.0
C1429 C 0.45876 0.83713 0.93054 0.0
C1430 C 0.40384 0.83664 0.89429 0.0
C1431 C 0.34598 0.86276 0.90628 0.0
C1432 C 0.36823 0.85114 0.90849 0.0
C1433 C 0.43807 0.82451 0.91495 0.0
C1434 C 0.41217 0.83119 0.91266 0.0
H1435 H 0.31941 0.9045 0.93033 0.0
H1436 H 0.35921 0.8898 0.93273 0.0
H1437 H 0.37746 0.85146 0.87787 0.0
H1438 H 0.4738 0.79145 0.89108 0.0
H1439 H 0.42814 0.79686 0.88897 0.0
C1440 C 0.58471 0.69175 0.62329 0.0
C1441 C 0.59271 0.71759 0.63495 0.0
C1442 C 0.55363 0.6686 0.62136 0.0
C1443 C 0.47527 0.63973 0.64307 0.0
H1444 H 0.4473 0.60248 0.59268 0.0
C1445 C 0.34661 0.55023 0.62958 0.0
C1446 C 0.34058 0.52515 0.61759 0.0
C1447 C 0.37635 0.57616 0.63058 0.0
C1448 C 0.45465 0.61233 0.60694 0.0
H1449 H 0.57499 0.7389 0.65438 0.0
H1450 H 0.5214 0.69925 0.65094 0.0
H1451 H 0.50135 0.64045 0.59759 0.0
H1452 H 0.36118 0.50775 0.59733 0.0
H1453 H 0.41259 0.55192 0.59945 0.0
H1454 H 0.42878 0.61149 0.65253 0.0
C1455 C 0.53862 0.6962 0.64342 0.0
C1456 C 0.48584 0.63416 0.60976 0.0
C1457 C 0.56946 0.71906 0.64539 0.0
C1458 C 0.36479 0.52687 0.60642 0.0
C1459 C 0.39446 0.55246 0.60761 0.0
C1460 C 0.44412 0.61783 0.64027 0.0
C1461 C 0.53008 0.67093 0.63106 0.0
C1462 C 0.49672 0.64784 0.62795 0.0
C1463 C 0.40089 0.57739 0.61987 0.0
C1464 C 0.4334 0.60331 0.62226 0.0
H1465 H 0.60212 0.69035 0.6148 0.0
H1466 H 0.54804 0.64923 0.61195 0.0
H1467 H 0.48262 0.64958 0.65732 0.0
H1468 H 0.3284 0.54972 0.63826 0.0
H1469 H 0.38008 0.59506 0.63991 0.0
C1470 C 0.17604 0.65226 0.92959 0.0
C1471 C 0.19783 0.67638 0.91802 0.0
C1472 C 0.17228 0.62274 0.92851 0.0
C1473 C 0.18684 0.57289 0.89551 0.0
H1474 H 0.15557 0.51662 0.93887 0.0
C1475 C 0.16428 0.44819 0.89052 0.0
C1476 C 0.13993 0.42487 0.90118 0.0
C1477 C 0.17212 0.47897 0.89256 0.0
C1478 C 0.16387 0.53186 0.92653 0.0
H1479 H 0.23375 0.68851 0.89674 0.0
H1480 H 0.22788 0.63706 0.89519 0.0
H1481 H 0.17122 0.5706 0.94351 0.0
H1482 H 0.10408 0.41535 0.92198 0.0
H1483 H 0.11697 0.46931 0.92508 0.0
H1484 H 0.17954 0.53421 0.87854 0.0
C1485 C 0.21301 0.64078 0.90479 0.0
C1486 C 0.17298 0.563 0.92919 0.0
C1487 C 0.21651 0.67037 0.90571 0.0
C1488 C 0.12255 0.43279 0.91329 0.0
C1489 C 0.13041 0.4638 0.91535 0.0
C1490 C 0.17784 0.5418 0.89287 0.0
C1491 C 0.19038 0.61633 0.91593 0.0
C1492 C 0.18403 0.58391 0.91363 0.0
C1493 C 0.15576 0.4874 0.90528 0.0
C1494 C 0.16574 0.5207 0.90825 0.0
H1495 H 0.16083 0.65582 0.93898 0.0
H1496 H 0.15416 0.60468 0.93704 0.0
H1497 H 0.19486 0.58794 0.88308 0.0
H1498 H 0.17828 0.44276 0.88121 0.0
H1499 H 0.19199 0.49625 0.88474 0.0
C1500 C 0.3001 0.85692 0.64716 0.0
C1501 C 0.29882 0.8785 0.63485 0.0
C1502 C 0.32358 0.84971 0.64535 0.0
C1503 C 0.39886 0.87427 0.62005 0.0
H1504 H 0.38055 0.79196 0.63431 0.0
C1505 C 0.48624 0.83538 0.60382 0.0
C1506 C 0.49139 0.8182 0.61793 0.0
C1507 C 0.46079 0.83965 0.60487 0.0
C1508 C 0.38617 0.81511 0.63036 0.0
H1509 H 0.32101 0.90956 0.61099 0.0
H1510 H 0.36133 0.89632 0.60713 0.0
H1511 H 0.34143 0.80663 0.6384 0.0
H1512 H 0.47223 0.79062 0.64374 0.0
H1513 H 0.42853 0.79936 0.64609 0.0
H1514 H 0.44339 0.88262 0.61181 0.0
C1515 C 0.34509 0.88565 0.61881 0.0
C1516 C 0.36369 0.82372 0.63281 0.0
C1517 C 0.32199 0.89346 0.62101 0.0
C1518 C 0.46949 0.80449 0.63279 0.0
C1519 C 0.44411 0.80917 0.634 0.0
C1520 C 0.42113 0.86558 0.61743 0.0
C1521 C 0.346 0.86322 0.63076 0.0
C1522 C 0.36974 0.8536 0.62784 0.0
C1523 C 0.43989 0.82755 0.6203 0.0
C1524 C 0.41526 0.83594 0.62261 0.0
H1525 H 0.28225 0.84483 0.65785 0.0
H1526 H 0.32369 0.8331 0.65528 0.0
H1527 H 0.40503 0.89764 0.61635 0.0
H1528 H 0.50255 0.84675 0.59225 0.0
H1529 H 0.45796 0.85317 0.59371 0.0
C1530 C 0.57311 0.7126 0.92412 0.0
C1531 C 0.59226 0.71604 0.90842 0.0
C1532 C 0.54217 0.68945 0.9242 0.0
C1533 C 0.48514 0.61674 0.89974 0.0
H1534 H 0.42627 0.63548 0.92345 0.0
C1535 C 0.35528 0.52926 0.8964 0.0
C1536 C 0.33842 0.52421 0.91354 0.0
C1537 C 0.38498 0.55474 0.89454 0.0
C1538 C 0.44239 0.62978 0.91687 0.0
H1539 H 0.59435 0.69798 0.88051 0.0
H1540 H 0.53986 0.65741 0.88035 0.0
H1541 H 0.48077 0.67464 0.92268 0.0
H1542 H 0.33907 0.54372 0.94164 0.0
H1543 H 0.39125 0.58744 0.93867 0.0
H1544 H 0.44685 0.57191 0.89397 0.0
C1545 C 0.54891 0.67218 0.8929 0.0
C1546 C 0.47377 0.65224 0.91647 0.0
C1547 C 0.58018 0.69525 0.89298 0.0
C1548 C 0.35153 0.54638 0.92837 0.0
C1549 C 0.38141 0.57176 0.92657 0.0
C1550 C 0.4538 0.59438 0.90006 0.0
C1551 C 0.52933 0.66937 0.90838 0.0
C1552 C 0.49567 0.64591 0.90808 0.0
C1553 C 0.39886 0.57578 0.90982 0.0
C1554 C 0.432 0.60046 0.90873 0.0
H1555 H 0.58192 0.72859 0.93616 0.0
H1556 H 0.52826 0.68765 0.9366 0.0
H1557 H 0.50119 0.61074 0.89341 0.0
H1558 H 0.34623 0.51276 0.88467 0.0
H1559 H 0.3974 0.55748 0.88124 0.0
loop_
_geom_bond_atom_site_label_1
_geom_bond_atom_site_label_2
_geom_bond_distance
_geom_bond_site_symmetry_2
_ccdc_geom_bond_type
Pr0 C2 2.880 . S
Pr0 O20 2.562 . S
Pr0 O21 2.490 . S
Pr0 O22 2.695 . S
Pr0 O23 2.512 . S
Pr0 O25 2.437 . S
Pr0 O28 2.436 . S
Pr0 O30 2.438 . S
Pr1 C11 2.880 . S
Pr1 O22 2.436 . S
Pr1 O24 2.438 . S
Pr1 O26 2.562 . S
Pr1 O27 2.490 . S
Pr1 O28 2.695 . S
Pr1 O29 2.512 . S
Pr1 O31 2.437 . S
C2 Pr0 2.880 . S
C2 C3 1.491 . S
C2 O20 1.254 . S
C2 O21 1.225 . S
C3 C2 1.491 . S
C3 C4 1.392 . S
C3 C8 1.356 . S
C4 C3 1.392 . S
C4 C5 1.368 . S
C4 H32 0.929 . S
C5 C4 1.368 . S
C5 C6 1.386 . S
C5 H33 0.929 . S
C6 C5 1.386 . S
C6 C7 1.373 . S
C7 C6 1.373 . S
C7 C8 1.409 . S
C7 H34 0.931 . S
C8 C3 1.356 . S
C8 C7 1.409 . S
C8 H35 0.930 . S
C9 O22 1.270 . S
C9 O23 1.248 . S
C10 O24 1.267 . S
C10 O25 1.278 . S
C11 Pr1 2.880 . S
C11 C12 1.491 . S
C11 O26 1.254 . S
C11 O27 1.225 . S
C12 C11 1.491 . S
C12 C13 1.392 . S
C12 C17 1.356 . S
C13 C12 1.392 . S
C13 C14 1.368 1_545 S
C13 H36 0.929 . S
C14 C13 1.368 1_565 S
C14 C15 1.386 . S
C14 H37 0.929 . S
C15 C14 1.386 . S
C15 C16 1.373 . S
C16 C15 1.373 . S
C16 C17 1.409 1_565 S
C16 H38 0.931 . S
C17 C12 1.356 . S
C17 C16 1.409 1_545 S
C17 H39 0.930 . S
C18 O28 1.270 . S
C18 O29 1.248 . S
C19 O30 1.267 . S
C19 O31 1.278 . S
O20 Pr0 2.562 . S
O20 C2 1.254 . S
O21 Pr0 2.490 . S
O21 C2 1.225 . S
O22 Pr0 2.695 . S
O22 Pr1 2.436 . S
O22 C9 1.270 . S
O23 Pr0 2.512 . S
O23 C9 1.248 . S
O24 Pr1 2.438 . S
O24 C10 1.267 . S
O25 Pr0 2.437 . S
O25 C10 1.278 . S
O26 Pr1 2.562 . S
O26 C11 1.254 . S
O27 Pr1 2.490 . S
O27 C11 1.225 . S
O28 Pr0 2.436 . S
O28 Pr1 2.695 . S
O28 C18 1.270 . S
O29 Pr1 2.512 . S
O29 C18 1.248 . S
O30 Pr0 2.438 . S
O30 C19 1.267 . S
O31 Pr1 2.437 . S
O31 C19 1.278 . S
H32 C4 0.929 . S
H33 C5 0.929 . S
H34 C7 0.931 . S
H35 C8 0.930 . S
H36 C13 0.929 . S
H37 C14 0.929 . S
H38 C16 0.931 . S
H39 C17 0.930 . S
Pr40 C42 2.880 . S
Pr40 O60 2.562 . S
Pr40 O61 2.490 . S
Pr40 O62 2.695 . S
Pr40 O63 2.512 . S
Pr40 O65 2.437 . S
Pr40 O68 2.436 . S
Pr40 O70 2.438 . S
Pr41 C51 2.880 . S
Pr41 O62 2.436 . S
Pr41 O64 2.438 . S
Pr41 O66 2.562 . S
Pr41 O67 2.490 . S
Pr41 O68 2.695 . S
Pr41 O69 2.512 . S
Pr41 O71 2.437 . S
C42 Pr40 2.880 . S
C42 C43 1.491 . S
C42 O60 1.254 . S
C42 O61 1.225 . S
C43 C42 1.491 . S
C43 C44 1.392 . S
C43 C48 1.356 . S
C44 C43 1.392 . S
C44 C45 1.368 . S
C44 H72 0.929 . S
C45 C44 1.368 . S
C45 C46 1.386 . S
C45 H73 0.929 . S
C46 C45 1.386 . S
C46 C47 1.373 . S
C47 C46 1.373 . S
C47 C48 1.409 . S
C47 H74 0.931 . S
C48 C43 1.356 . S
C48 C47 1.409 . S
C48 H75 0.930 . S
C49 O62 1.270 . S
C49 O63 1.248 . S
C50 O64 1.267 . S
C50 O65 1.278 . S
C51 Pr41 2.880 . S
C51 C52 1.491 . S
C51 O66 1.254 . S
C51 O67 1.225 . S
C52 C51 1.491 . S
C52 C53 1.392 . S
C52 C57 1.356 . S
C53 C52 1.392 . S
C53 C54 1.368 . S
C53 H76 0.929 . S
C54 C53 1.368 . S
C54 C55 1.386 . S
C54 H77 0.929 . S
C55 C54 1.386 . S
C55 C56 1.373 . S
C56 C55 1.373 . S
C56 C57 1.409 . S
C56 H78 0.931 . S
C57 C52 1.356 . S
C57 C56 1.409 . S
C57 H79 0.930 . S
C58 O68 1.270 . S
C58 O69 1.248 . S
C59 O70 1.267 . S
C59 O71 1.278 . S
O60 Pr40 2.562 . S
O60 C42 1.254 . S
O61 Pr40 2.490 . S
O61 C42 1.225 . S
O62 Pr40 2.695 . S
O62 Pr41 2.436 . S
O62 C49 1.270 . S
O63 Pr40 2.512 . S
O63 C49 1.248 . S
O64 Pr41 2.438 . S
O64 C50 1.267 . S
O65 Pr40 2.437 . S
O65 C50 1.278 . S
O66 Pr41 2.562 . S
O66 C51 1.254 . S
O67 Pr41 2.490 . S
O67 C51 1.225 . S
O68 Pr40 2.436 . S
O68 Pr41 2.695 . S
O68 C58 1.270 . S
O69 Pr41 2.512 . S
O69 C58 1.248 . S
O70 Pr40 2.438 . S
O70 C59 1.267 . S
O71 Pr41 2.437 . S
O71 C59 1.278 . S
H72 C44 0.929 . S
H73 C45 0.929 . S
H74 C47 0.931 . S
H75 C48 0.930 . S
H76 C53 0.929 . S
H77 C54 0.929 . S
H78 C56 0.931 . S
H79 C57 0.930 . S
Pr80 C82 2.880 . S
Pr80 O100 2.562 . S
Pr80 O101 2.490 . S
Pr80 O102 2.695 . S
Pr80 O103 2.512 . S
Pr80 O105 2.437 . S
Pr80 O108 2.436 . S
Pr80 O110 2.438 . S
Pr81 C91 2.880 . S
Pr81 O102 2.436 . S
Pr81 O104 2.438 . S
Pr81 O106 2.562 . S
Pr81 O107 2.490 . S
Pr81 O108 2.695 . S
Pr81 O109 2.512 . S
Pr81 O111 2.437 . S
C82 Pr80 2.880 . S
C82 C83 1.491 . S
C82 O100 1.254 . S
C82 O101 1.225 . S
C83 C82 1.491 . S
C83 C84 1.392 . S
C83 C88 1.356 . S
C84 C83 1.392 . S
C84 C85 1.368 . S
C84 H112 0.929 . S
C85 C84 1.368 . S
C85 C86 1.386 . S
C85 H113 0.929 . S
C86 C85 1.386 . S
C86 C87 1.373 . S
C87 C86 1.373 . S
C87 C88 1.409 . S
C87 H114 0.931 . S
C88 C83 1.356 . S
C88 C87 1.409 . S
C88 H115 0.930 . S
C89 O102 1.270 . S
C89 O103 1.248 . S
C90 O104 1.267 . S
C90 O105 1.278 . S
C91 Pr81 2.880 . S
C91 C92 1.491 . S
C91 O106 1.254 . S
C91 O107 1.225 . S
C92 C91 1.491 . S
C92 C93 1.392 . S
C92 C97 1.356 . S
C93 C92 1.392 . S
C93 C94 1.368 1_655 S
C93 H116 0.929 . S
C94 C93 1.368 1_455 S
C94 C95 1.386 . S
C94 H117 0.929 . S
C95 C94 1.386 . S
C95 C96 1.373 . S
C96 C95 1.373 . S
C96 C97 1.409 1_455 S
C96 H118 0.931 . S
C97 C92 1.356 . S
C97 C96 1.409 1_655 S
C97 H119 0.930 . S
C98 O108 1.270 . S
C98 O109 1.248 . S
C99 O110 1.267 . S
C99 O111 1.278 . S
O100 Pr80 2.562 . S
O100 C82 1.254 . S
O101 Pr80 2.490 . S
O101 C82 1.225 . S
O102 Pr80 2.695 . S
O102 Pr81 2.436 . S
O102 C89 1.270 . S
O103 Pr80 2.512 . S
O103 C89 1.248 . S
O104 Pr81 2.438 . S
O104 C90 1.267 . S
O105 Pr80 2.437 . S
O105 C90 1.278 . S
O106 Pr81 2.562 . S
O106 C91 1.254 . S
O107 Pr81 2.490 . S
O107 C91 1.225 . S
O108 Pr80 2.436 . S
O108 Pr81 2.695 . S
O108 C98 1.270 . S
O109 Pr81 2.512 . S
O109 C98 1.248 . S
O110 Pr80 2.438 . S
O110 C99 1.267 . S
O111 Pr81 2.437 . S
O111 C99 1.278 . S
H112 C84 0.929 . S
H113 C85 0.929 . S
H114 C87 0.931 . S
H115 C88 0.930 . S
H116 C93 0.929 . S
H117 C94 0.929 . S
H118 C96 0.931 . S
H119 C97 0.930 . S
Pr120 C122 2.880 . S
Pr120 O140 2.562 . S
Pr120 O141 2.490 . S
Pr120 O142 2.695 . S
Pr120 O143 2.512 . S
Pr120 O145 2.437 . S
Pr120 O148 2.436 . S
Pr120 O150 2.438 . S
Pr121 C131 2.880 . S
Pr121 O142 2.436 . S
Pr121 O144 2.438 . S
Pr121 O146 2.562 . S
Pr121 O147 2.490 . S
Pr121 O148 2.695 . S
Pr121 O149 2.512 . S
Pr121 O151 2.437 . S
C122 Pr120 2.880 . S
C122 C123 1.491 . S
C122 O140 1.254 . S
C122 O141 1.225 . S
C123 C122 1.491 . S
C123 C124 1.392 . S
C123 C128 1.356 . S
C124 C123 1.392 . S
C124 C125 1.368 1_545 S
C124 H152 0.929 . S
C125 C124 1.368 1_565 S
C125 C126 1.386 . S
C125 H153 0.929 . S
C126 C125 1.386 . S
C126 C127 1.373 . S
C127 C126 1.373 . S
C127 C128 1.409 1_565 S
C127 H154 0.931 . S
C128 C123 1.356 . S
C128 C127 1.409 1_545 S
C128 H155 0.930 . S
C129 O142 1.270 . S
C129 O143 1.248 . S
C130 O144 1.267 . S
C130 O145 1.278 . S
C131 Pr121 2.880 . S
C131 C132 1.491 . S
C131 O146 1.254 . S
C131 O147 1.225 . S
C132 C131 1.491 . S
C132 C133 1.392 . S
C132 C137 1.356 . S
C133 C132 1.392 . S
C133 C134 1.368 . S
C133 H156 0.929 . S
C134 C133 1.368 . S
C134 C135 1.386 . S
C134 H157 0.929 . S
C135 C134 1.386 . S
C135 C136 1.373 . S
C136 C135 1.373 . S
C136 C137 1.409 . S
C136 H158 0.931 . S
C137 C132 1.356 . S
C137 C136 1.409 . S
C137 H159 0.930 . S
C138 O148 1.270 . S
C138 O149 1.248 . S
C139 O150 1.267 . S
C139 O151 1.278 . S
O140 Pr120 2.562 . S
O140 C122 1.254 . S
O141 Pr120 2.490 . S
O141 C122 1.225 . S
O142 Pr120 2.695 . S
O142 Pr121 2.436 . S
O142 C129 1.270 . S
O143 Pr120 2.512 . S
O143 C129 1.248 . S
O144 Pr121 2.438 . S
O144 C130 1.267 . S
O145 Pr120 2.437 . S
O145 C130 1.278 . S
O146 Pr121 2.562 . S
O146 C131 1.254 . S
O147 Pr121 2.490 . S
O147 C131 1.225 . S
O148 Pr120 2.436 . S
O148 Pr121 2.695 . S
O148 C138 1.270 . S
O149 Pr121 2.512 . S
O149 C138 1.248 . S
O150 Pr120 2.438 . S
O150 C139 1.267 . S
O151 Pr121 2.437 . S
O151 C139 1.278 . S
H152 C124 0.929 . S
H153 C125 0.929 . S
H154 C127 0.931 . S
H155 C128 0.930 . S
H156 C133 0.929 . S
H157 C134 0.929 . S
H158 C136 0.931 . S
H159 C137 0.930 . S
Pr160 C162 2.880 . S
Pr160 O180 2.562 . S
Pr160 O181 2.490 . S
Pr160 O182 2.695 . S
Pr160 O183 2.512 . S
Pr160 O185 2.437 . S
Pr160 O188 2.436 . S
Pr160 O190 2.438 . S
Pr161 C171 2.880 . S
Pr161 O182 2.436 . S
Pr161 O184 2.438 . S
Pr161 O186 2.562 . S
Pr161 O187 2.490 . S
Pr161 O188 2.695 . S
Pr161 O189 2.512 . S
Pr161 O191 2.437 . S
C162 Pr160 2.880 . S
C162 C163 1.491 . S
C162 O180 1.254 . S
C162 O181 1.225 . S
C163 C162 1.491 . S
C163 C164 1.392 . S
C163 C168 1.356 . S
C164 C163 1.392 . S
C164 C165 1.368 . S
C164 H192 0.929 . S
C165 C164 1.368 . S
C165 C166 1.386 . S
C165 H193 0.929 . S
C166 C165 1.386 . S
C166 C167 1.373 . S
C167 C166 1.373 . S
C167 C168 1.409 . S
C167 H194 0.931 . S
C168 C163 1.356 . S
C168 C167 1.409 . S
C168 H195 0.930 . S
C169 O182 1.270 . S
C169 O183 1.248 . S
C170 O184 1.267 . S
C170 O185 1.278 . S
C171 Pr161 2.880 . S
C171 C172 1.491 . S
C171 O186 1.254 . S
C171 O187 1.225 . S
C172 C171 1.491 . S
C172 C173 1.392 . S
C172 C177 1.356 . S
C173 C172 1.392 . S
C173 C174 1.368 . S
C173 H196 0.929 . S
C174 C173 1.368 . S
C174 C175 1.386 . S
C174 H197 0.929 . S
C175 C174 1.386 . S
C175 C176 1.373 . S
C176 C175 1.373 . S
C176 C177 1.409 . S
C176 H198 0.931 . S
C177 C172 1.356 . S
C177 C176 1.409 . S
C177 H199 0.930 . S
C178 O188 1.270 . S
C178 O189 1.248 . S
C179 O190 1.267 . S
C179 O191 1.278 . S
O180 Pr160 2.562 . S
O180 C162 1.254 . S
O181 Pr160 2.490 . S
O181 C162 1.225 . S
O182 Pr160 2.695 . S
O182 Pr161 2.436 . S
O182 C169 1.270 . S
O183 Pr160 2.512 . S
O183 C169 1.248 . S
O184 Pr161 2.438 . S
O184 C170 1.267 . S
O185 Pr160 2.437 . S
O185 C170 1.278 . S
O186 Pr161 2.562 . S
O186 C171 1.254 . S
O187 Pr161 2.490 . S
O187 C171 1.225 . S
O188 Pr160 2.436 . S
O188 Pr161 2.695 . S
O188 C178 1.270 . S
O189 Pr161 2.512 . S
O189 C178 1.248 . S
O190 Pr160 2.438 . S
O190 C179 1.267 . S
O191 Pr161 2.437 . S
O191 C179 1.278 . S
H192 C164 0.929 . S
H193 C165 0.929 . S
H194 C167 0.931 . S
H195 C168 0.930 . S
H196 C173 0.929 . S
H197 C174 0.929 . S
H198 C176 0.931 . S
H199 C177 0.930 . S
Pr200 C202 2.880 . S
Pr200 O220 2.562 . S
Pr200 O221 2.490 . S
Pr200 O222 2.695 . S
Pr200 O223 2.512 . S
Pr200 O225 2.437 . S
Pr200 O228 2.436 . S
Pr200 O230 2.438 . S
Pr201 C211 2.880 . S
Pr201 O222 2.436 . S
Pr201 O224 2.438 . S
Pr201 O226 2.562 . S
Pr201 O227 2.490 . S
Pr201 O228 2.695 . S
Pr201 O229 2.512 . S
Pr201 O231 2.437 . S
C202 Pr200 2.880 . S
C202 C203 1.491 . S
C202 O220 1.254 . S
C202 O221 1.225 . S
C203 C202 1.491 . S
C203 C204 1.392 . S
C203 C208 1.356 . S
C204 C203 1.392 . S
C204 C205 1.368 1_655 S
C204 H232 0.929 . S
C205 C204 1.368 1_455 S
C205 C206 1.386 . S
C205 H233 0.929 . S
C206 C205 1.386 . S
C206 C207 1.373 . S
C207 C206 1.373 . S
C207 C208 1.409 1_455 S
C207 H234 0.931 . S
C208 C203 1.356 . S
C208 C207 1.409 1_655 S
C208 H235 0.930 . S
C209 O222 1.270 . S
C209 O223 1.248 . S
C210 O224 1.267 . S
C210 O225 1.278 . S
C211 Pr201 2.880 . S
C211 C212 1.491 . S
C211 O226 1.254 . S
C211 O227 1.225 . S
C212 C211 1.491 . S
C212 C213 1.392 . S
C212 C217 1.356 . S
C213 C212 1.392 . S
C213 C214 1.368 . S
C213 H236 0.929 . S
C214 C213 1.368 . S
C214 C215 1.386 . S
C214 H237 0.929 . S
C215 C214 1.386 . S
C215 C216 1.373 . S
C216 C215 1.373 . S
C216 C217 1.409 . S
C216 H238 0.931 . S
C217 C212 1.356 . S
C217 C216 1.409 . S
C217 H239 0.930 . S
C218 O228 1.270 . S
C218 O229 1.248 . S
C219 O230 1.267 . S
C219 O231 1.278 . S
O220 Pr200 2.562 . S
O220 C202 1.254 . S
O221 Pr200 2.490 . S
O221 C202 1.225 . S
O222 Pr200 2.695 . S
O222 Pr201 2.436 . S
O222 C209 1.270 . S
O223 Pr200 2.512 . S
O223 C209 1.248 . S
O224 Pr201 2.438 . S
O224 C210 1.267 . S
O225 Pr200 2.437 . S
O225 C210 1.278 . S
O226 Pr201 2.562 . S
O226 C211 1.254 . S
O227 Pr201 2.490 . S
O227 C211 1.225 . S
O228 Pr200 2.436 . S
O228 Pr201 2.695 . S
O228 C218 1.270 . S
O229 Pr201 2.512 . S
O229 C218 1.248 . S
O230 Pr200 2.438 . S
O230 C219 1.267 . S
O231 Pr201 2.437 . S
O231 C219 1.278 . S
H232 C204 0.929 . S
H233 C205 0.929 . S
H234 C207 0.931 . S
H235 C208 0.930 . S
H236 C213 0.929 . S
H237 C214 0.929 . S
H238 C216 0.931 . S
H239 C217 0.930 . S
Pr240 C242 2.880 . S
Pr240 O260 2.562 . S
Pr240 O261 2.490 . S
Pr240 O262 2.695 . S
Pr240 O263 2.512 . S
Pr240 O265 2.437 . S
Pr240 O268 2.436 . S
Pr240 O270 2.438 . S
Pr241 C251 2.880 . S
Pr241 O262 2.436 . S
Pr241 O264 2.438 . S
Pr241 O266 2.562 . S
Pr241 O267 2.490 . S
Pr241 O268 2.695 . S
Pr241 O269 2.512 . S
Pr241 O271 2.437 . S
C242 Pr240 2.880 . S
C242 C243 1.491 . S
C242 O260 1.254 . S
C242 O261 1.225 . S
C243 C242 1.491 . S
C243 C244 1.392 . S
C243 C248 1.356 . S
C244 C243 1.392 . S
C244 C245 1.368 1_455 S
C244 H272 0.929 . S
C245 C244 1.368 1_655 S
C245 C246 1.386 . S
C245 H273 0.929 . S
C246 C245 1.386 . S
C246 C247 1.373 . S
C247 C246 1.373 . S
C247 C248 1.409 1_655 S
C247 H274 0.931 . S
C248 C243 1.356 . S
C248 C247 1.409 1_455 S
C248 H275 0.930 . S
C249 O262 1.270 . S
C249 O263 1.248 . S
C250 O264 1.267 . S
C250 O265 1.278 . S
C251 Pr241 2.880 . S
C251 C252 1.491 . S
C251 O266 1.254 . S
C251 O267 1.225 . S
C252 C251 1.491 . S
C252 C253 1.392 . S
C252 C257 1.356 . S
C253 C252 1.392 . S
C253 C254 1.368 . S
C253 H276 0.929 . S
C254 C253 1.368 . S
C254 C255 1.386 . S
C254 H277 0.929 . S
C255 C254 1.386 . S
C255 C256 1.373 . S
C256 C255 1.373 . S
C256 C257 1.409 . S
C256 H278 0.931 . S
C257 C252 1.356 . S
C257 C256 1.409 . S
C257 H279 0.930 . S
C258 O268 1.270 . S
C258 O269 1.248 . S
C259 O270 1.267 . S
C259 O271 1.278 . S
O260 Pr240 2.562 . S
O260 C242 1.254 . S
O261 Pr240 2.490 . S
O261 C242 1.225 . S
O262 Pr240 2.695 . S
O262 Pr241 2.436 . S
O262 C249 1.270 . S
O263 Pr240 2.512 . S
O263 C249 1.248 . S
O264 Pr241 2.438 . S
O264 C250 1.267 . S
O265 Pr240 2.437 . S
O265 C250 1.278 . S
O266 Pr241 2.562 . S
O266 C251 1.254 . S
O267 Pr241 2.490 . S
O267 C251 1.225 . S
O268 Pr240 2.436 . S
O268 Pr241 2.695 . S
O268 C258 1.270 . S
O269 Pr241 2.512 . S
O269 C258 1.248 . S
O270 Pr240 2.438 . S
O270 C259 1.267 . S
O271 Pr241 2.437 . S
O271 C259 1.278 . S
H272 C244 0.929 . S
H273 C245 0.929 . S
H274 C247 0.931 . S
H275 C248 0.930 . S
H276 C253 0.929 . S
H277 C254 0.929 . S
H278 C256 0.931 . S
H279 C257 0.930 . S
Pr280 C282 2.880 . S
Pr280 O300 2.562 . S
Pr280 O301 2.490 . S
Pr280 O302 2.695 . S
Pr280 O303 2.512 . S
Pr280 O305 2.437 . S
Pr280 O308 2.436 . S
Pr280 O310 2.438 . S
Pr281 C291 2.880 . S
Pr281 O302 2.436 . S
Pr281 O304 2.438 . S
Pr281 O306 2.562 . S
Pr281 O307 2.490 . S
Pr281 O308 2.695 . S
Pr281 O309 2.512 . S
Pr281 O311 2.437 . S
C282 Pr280 2.880 . S
C282 C283 1.491 . S
C282 O300 1.254 . S
C282 O301 1.225 . S
C283 C282 1.491 . S
C283 C284 1.392 . S
C283 C288 1.356 . S
C284 C283 1.392 . S
C284 C285 1.368 . S
C284 H312 0.929 . S
C285 C284 1.368 . S
C285 C286 1.386 . S
C285 H313 0.929 . S
C286 C285 1.386 . S
C286 C287 1.373 . S
C287 C286 1.373 . S
C287 C288 1.409 . S
C287 H314 0.931 . S
C288 C283 1.356 . S
C288 C287 1.409 . S
C288 H315 0.930 . S
C289 O302 1.270 . S
C289 O303 1.248 . S
C290 O304 1.267 . S
C290 O305 1.278 . S
C291 Pr281 2.880 . S
C291 C292 1.491 . S
C291 O306 1.254 . S
C291 O307 1.225 . S
C292 C291 1.491 . S
C292 C293 1.392 . S
C292 C297 1.356 . S
C293 C292 1.392 . S
C293 C294 1.368 1_565 S
C293 H316 0.929 . S
C294 C293 1.368 1_545 S
C294 C295 1.386 . S
C294 H317 0.929 . S
C295 C294 1.386 . S
C295 C296 1.373 . S
C296 C295 1.373 . S
C296 C297 1.409 1_545 S
C296 H318 0.931 . S
C297 C292 1.356 . S
C297 C296 1.409 1_565 S
C297 H319 0.930 . S
C298 O308 1.270 . S
C298 O309 1.248 . S
C299 O310 1.267 . S
C299 O311 1.278 . S
O300 Pr280 2.562 . S
O300 C282 1.254 . S
O301 Pr280 2.490 . S
O301 C282 1.225 . S
O302 Pr280 2.695 . S
O302 Pr281 2.436 . S
O302 C289 1.270 . S
O303 Pr280 2.512 . S
O303 C289 1.248 . S
O304 Pr281 2.438 . S
O304 C290 1.267 . S
O305 Pr280 2.437 . S
O305 C290 1.278 . S
O306 Pr281 2.562 . S
O306 C291 1.254 . S
O307 Pr281 2.490 . S
O307 C291 1.225 . S
O308 Pr280 2.436 . S
O308 Pr281 2.695 . S
O308 C298 1.270 . S
O309 Pr281 2.512 . S
O309 C298 1.248 . S
O310 Pr280 2.438 . S
O310 C299 1.267 . S
O311 Pr281 2.437 . S
O311 C299 1.278 . S
H312 C284 0.929 . S
H313 C285 0.929 . S
H314 C287 0.931 . S
H315 C288 0.930 . S
H316 C293 0.929 . S
H317 C294 0.929 . S
H318 C296 0.931 . S
H319 C297 0.930 . S
Pr320 C322 2.880 . S
Pr320 O340 2.562 . S
Pr320 O341 2.490 . S
Pr320 O342 2.695 . S
Pr320 O343 2.512 . S
Pr320 O345 2.437 . S
Pr320 O348 2.436 . S
Pr320 O350 2.438 . S
Pr321 C331 2.880 . S
Pr321 O342 2.436 . S
Pr321 O344 2.438 . S
Pr321 O346 2.562 . S
Pr321 O347 2.490 . S
Pr321 O348 2.695 . S
Pr321 O349 2.512 . S
Pr321 O351 2.437 . S
C322 Pr320 2.880 . S
C322 C323 1.491 . S
C322 O340 1.254 . S
C322 O341 1.225 . S
C323 C322 1.491 . S
C323 C324 1.392 . S
C323 C328 1.356 . S
C324 C323 1.392 . S
C324 C325 1.368 . S
C324 H352 0.929 . S
C325 C324 1.368 . S
C325 C326 1.386 . S
C325 H353 0.929 . S
C326 C325 1.386 . S
C326 C327 1.373 . S
C327 C326 1.373 . S
C327 C328 1.409 . S
C327 H354 0.931 . S
C328 C323 1.356 . S
C328 C327 1.409 . S
C328 H355 0.930 . S
C329 O342 1.270 . S
C329 O343 1.248 . S
C330 O344 1.267 . S
C330 O345 1.278 . S
C331 Pr321 2.880 . S
C331 C332 1.491 . S
C331 O346 1.254 . S
C331 O347 1.225 . S
C332 C331 1.491 . S
C332 C333 1.392 . S
C332 C337 1.356 . S
C333 C332 1.392 . S
C333 C334 1.368 . S
C333 H356 0.929 . S
C334 C333 1.368 . S
C334 C335 1.386 . S
C334 H357 0.929 . S
C335 C334 1.386 . S
C335 C336 1.373 . S
C336 C335 1.373 . S
C336 C337 1.409 . S
C336 H358 0.931 . S
C337 C332 1.356 . S
C337 C336 1.409 . S
C337 H359 0.930 . S
C338 O348 1.270 . S
C338 O349 1.248 . S
C339 O350 1.267 . S
C339 O351 1.278 . S
O340 Pr320 2.562 . S
O340 C322 1.254 . S
O341 Pr320 2.490 . S
O341 C322 1.225 . S
O342 Pr320 2.695 . S
O342 Pr321 2.436 . S
O342 C329 1.270 . S
O343 Pr320 2.512 . S
O343 C329 1.248 . S
O344 Pr321 2.438 . S
O344 C330 1.267 . S
O345 Pr320 2.437 . S
O345 C330 1.278 . S
O346 Pr321 2.562 . S
O346 C331 1.254 . S
O347 Pr321 2.490 . S
O347 C331 1.225 . S
O348 Pr320 2.436 . S
O348 Pr321 2.695 . S
O348 C338 1.270 . S
O349 Pr321 2.512 . S
O349 C338 1.248 . S
O350 Pr320 2.438 . S
O350 C339 1.267 . S
O351 Pr321 2.437 . S
O351 C339 1.278 . S
H352 C324 0.929 . S
H353 C325 0.929 . S
H354 C327 0.931 . S
H355 C328 0.930 . S
H356 C333 0.929 . S
H357 C334 0.929 . S
H358 C336 0.931 . S
H359 C337 0.930 . S
Pr360 C362 2.880 . S
Pr360 O380 2.562 . S
Pr360 O381 2.490 . S
Pr360 O382 2.695 . S
Pr360 O383 2.512 . S
Pr360 O385 2.437 . S
Pr360 O388 2.436 . S
Pr360 O390 2.438 . S
Pr361 C371 2.880 . S
Pr361 O382 2.436 . S
Pr361 O384 2.438 . S
Pr361 O386 2.562 . S
Pr361 O387 2.490 . S
Pr361 O388 2.695 . S
Pr361 O389 2.512 . S
Pr361 O391 2.437 . S
C362 Pr360 2.880 . S
C362 C363 1.491 . S
C362 O380 1.254 . S
C362 O381 1.225 . S
C363 C362 1.491 . S
C363 C364 1.392 . S
C363 C368 1.356 . S
C364 C363 1.392 . S
C364 C365 1.368 . S
C364 H392 0.929 . S
C365 C364 1.368 . S
C365 C366 1.386 . S
C365 H393 0.929 . S
C366 C365 1.386 . S
C366 C367 1.373 . S
C367 C366 1.373 . S
C367 C368 1.409 . S
C367 H394 0.931 . S
C368 C363 1.356 . S
C368 C367 1.409 . S
C368 H395 0.930 . S
C369 O382 1.270 . S
C369 O383 1.248 . S
C370 O384 1.267 . S
C370 O385 1.278 . S
C371 Pr361 2.880 . S
C371 C372 1.491 . S
C371 O386 1.254 . S
C371 O387 1.225 . S
C372 C371 1.491 . S
C372 C373 1.392 . S
C372 C377 1.356 . S
C373 C372 1.392 . S
C373 C374 1.368 1_455 S
C373 H396 0.929 . S
C374 C373 1.368 1_655 S
C374 C375 1.386 . S
C374 H397 0.929 . S
C375 C374 1.386 . S
C375 C376 1.373 . S
C376 C375 1.373 . S
C376 C377 1.409 1_655 S
C376 H398 0.931 . S
C377 C372 1.356 . S
C377 C376 1.409 1_455 S
C377 H399 0.930 . S
C378 O388 1.270 . S
C378 O389 1.248 . S
C379 O390 1.267 . S
C379 O391 1.278 . S
O380 Pr360 2.562 . S
O380 C362 1.254 . S
O381 Pr360 2.490 . S
O381 C362 1.225 . S
O382 Pr360 2.695 . S
O382 Pr361 2.436 . S
O382 C369 1.270 . S
O383 Pr360 2.512 . S
O383 C369 1.248 . S
O384 Pr361 2.438 . S
O384 C370 1.267 . S
O385 Pr360 2.437 . S
O385 C370 1.278 . S
O386 Pr361 2.562 . S
O386 C371 1.254 . S
O387 Pr361 2.490 . S
O387 C371 1.225 . S
O388 Pr360 2.436 . S
O388 Pr361 2.695 . S
O388 C378 1.270 . S
O389 Pr361 2.512 . S
O389 C378 1.248 . S
O390 Pr360 2.438 . S
O390 C379 1.267 . S
O391 Pr361 2.437 . S
O391 C379 1.278 . S
H392 C364 0.929 . S
H393 C365 0.929 . S
H394 C367 0.931 . S
H395 C368 0.930 . S
H396 C373 0.929 . S
H397 C374 0.929 . S
H398 C376 0.931 . S
H399 C377 0.930 . S
Pr400 C402 2.880 . S
Pr400 O420 2.562 . S
Pr400 O421 2.490 . S
Pr400 O422 2.695 . S
Pr400 O423 2.512 . S
Pr400 O425 2.437 . S
Pr400 O428 2.436 . S
Pr400 O430 2.438 . S
Pr401 C411 2.880 . S
Pr401 O422 2.436 . S
Pr401 O424 2.438 . S
Pr401 O426 2.562 . S
Pr401 O427 2.490 . S
Pr401 O428 2.695 . S
Pr401 O429 2.512 . S
Pr401 O431 2.437 . S
C402 Pr400 2.880 . S
C402 C403 1.491 . S
C402 O420 1.254 . S
C402 O421 1.225 . S
C403 C402 1.491 . S
C403 C404 1.392 . S
C403 C408 1.356 . S
C404 C403 1.392 . S
C404 C405 1.368 1_565 S
C404 H432 0.929 . S
C405 C404 1.368 1_545 S
C405 C406 1.386 . S
C405 H433 0.929 . S
C406 C405 1.386 . S
C406 C407 1.373 . S
C407 C406 1.373 . S
C407 C408 1.409 1_545 S
C407 H434 0.931 . S
C408 C403 1.356 . S
C408 C407 1.409 1_565 S
C408 H435 0.930 . S
C409 O422 1.270 . S
C409 O423 1.248 . S
C410 O424 1.267 . S
C410 O425 1.278 . S
C411 Pr401 2.880 . S
C411 C412 1.491 . S
C411 O426 1.254 . S
C411 O427 1.225 . S
C412 C411 1.491 . S
C412 C413 1.392 . S
C412 C417 1.356 . S
C413 C412 1.392 . S
C413 C414 1.368 . S
C413 H436 0.929 . S
C414 C413 1.368 . S
C414 C415 1.386 . S
C414 H437 0.929 . S
C415 C414 1.386 . S
C415 C416 1.373 . S
C416 C415 1.373 . S
C416 C417 1.409 . S
C416 H438 0.931 . S
C417 C412 1.356 . S
C417 C416 1.409 . S
C417 H439 0.930 . S
C418 O428 1.270 . S
C418 O429 1.248 . S
C419 O430 1.267 . S
C419 O431 1.278 . S
O420 Pr400 2.562 . S
O420 C402 1.254 . S
O421 Pr400 2.490 . S
O421 C402 1.225 . S
O422 Pr400 2.695 . S
O422 Pr401 2.436 . S
O422 C409 1.270 . S
O423 Pr400 2.512 . S
O423 C409 1.248 . S
O424 Pr401 2.438 . S
O424 C410 1.267 . S
O425 Pr400 2.437 . S
O425 C410 1.278 . S
O426 Pr401 2.562 . S
O426 C411 1.254 . S
O427 Pr401 2.490 . S
O427 C411 1.225 . S
O428 Pr400 2.436 . S
O428 Pr401 2.695 . S
O428 C418 1.270 . S
O429 Pr401 2.512 . S
O429 C418 1.248 . S
O430 Pr400 2.438 . S
O430 C419 1.267 . S
O431 Pr401 2.437 . S
O431 C419 1.278 . S
H432 C404 0.929 . S
H433 C405 0.929 . S
H434 C407 0.931 . S
H435 C408 0.930 . S
H436 C413 0.929 . S
H437 C414 0.929 . S
H438 C416 0.931 . S
H439 C417 0.930 . S
Pr440 C442 2.880 . S
Pr440 O460 2.562 . S
Pr440 O461 2.490 . S
Pr440 O462 2.695 . S
Pr440 O463 2.512 . S
Pr440 O465 2.437 . S
Pr440 O468 2.436 . S
Pr440 O470 2.438 . S
Pr441 C451 2.880 . S
Pr441 O462 2.436 . S
Pr441 O464 2.438 . S
Pr441 O466 2.562 . S
Pr441 O467 2.490 . S
Pr441 O468 2.695 . S
Pr441 O469 2.512 . S
Pr441 O471 2.437 . S
C442 Pr440 2.880 . S
C442 C443 1.491 . S
C442 O460 1.254 . S
C442 O461 1.225 . S
C443 C442 1.491 . S
C443 C444 1.392 . S
C443 C448 1.356 . S
C444 C443 1.392 . S
C444 C445 1.368 . S
C444 H472 0.929 . S
C445 C444 1.368 . S
C445 C446 1.386 . S
C445 H473 0.929 . S
C446 C445 1.386 . S
C446 C447 1.373 . S
C447 C446 1.373 . S
C447 C448 1.409 . S
C447 H474 0.931 . S
C448 C443 1.356 . S
C448 C447 1.409 . S
C448 H475 0.930 . S
C449 O462 1.270 . S
C449 O463 1.248 . S
C450 O464 1.267 . S
C450 O465 1.278 . S
C451 Pr441 2.880 . S
C451 C452 1.491 . S
C451 O466 1.254 . S
C451 O467 1.225 . S
C452 C451 1.491 . S
C452 C453 1.392 . S
C452 C457 1.356 . S
C453 C452 1.392 . S
C453 C454 1.368 . S
C453 H476 0.929 . S
C454 C453 1.368 . S
C454 C455 1.386 . S
C454 H477 0.929 . S
C455 C454 1.386 . S
C455 C456 1.373 . S
C456 C455 1.373 . S
C456 C457 1.409 . S
C456 H478 0.931 . S
C457 C452 1.356 . S
C457 C456 1.409 . S
C457 H479 0.930 . S
C458 O468 1.270 . S
C458 O469 1.248 . S
C459 O470 1.267 . S
C459 O471 1.278 . S
O460 Pr440 2.562 . S
O460 C442 1.254 . S
O461 Pr440 2.490 . S
O461 C442 1.225 . S
O462 Pr440 2.695 . S
O462 Pr441 2.436 . S
O462 C449 1.270 . S
O463 Pr440 2.512 . S
O463 C449 1.248 . S
O464 Pr441 2.438 . S
O464 C450 1.267 . S
O465 Pr440 2.437 . S
O465 C450 1.278 . S
O466 Pr441 2.562 . S
O466 C451 1.254 . S
O467 Pr441 2.490 . S
O467 C451 1.225 . S
O468 Pr440 2.436 . S
O468 Pr441 2.695 . S
O468 C458 1.270 . S
O469 Pr441 2.512 . S
O469 C458 1.248 . S
O470 Pr440 2.438 . S
O470 C459 1.267 . S
O471 Pr441 2.437 . S
O471 C459 1.278 . S
H472 C444 0.929 . S
H473 C445 0.929 . S
H474 C447 0.931 . S
H475 C448 0.930 . S
H476 C453 0.929 . S
H477 C454 0.929 . S
H478 C456 0.931 . S
H479 C457 0.930 . S
C480 C481 1.349 . S
C480 C482 1.327 . S
C480 H505 0.950 . S
C481 C480 1.349 . S
C481 C497 1.349 . S
C482 C480 1.327 . S
C482 C501 1.429 . S
C482 H506 0.950 . S
C483 C500 1.574 . S
C483 C502 1.368 . S
C483 H507 0.949 . S
H484 C488 0.949 . S
C485 C486 1.349 . S
C485 C487 1.327 . S
C485 H508 0.950 . S
C486 C485 1.349 . S
C486 C498 1.349 . S
C487 C485 1.327 . S
C487 C503 1.429 . S
C487 H509 0.950 . S
C488 H484 0.949 . S
C488 C496 1.574 . S
C488 C504 1.368 . S
H489 C497 0.950 . S
H490 C495 0.950 . S
H491 C496 0.949 . S
H492 C498 0.950 . S
H493 C499 0.950 . S
H494 C500 0.949 . S
C495 H490 0.950 . S
C495 C497 1.327 . S
C495 C501 1.429 . S
C496 C488 1.574 . S
C496 H491 0.949 . S
C496 C502 1.368 . S
C497 C481 1.349 . S
C497 H489 0.950 . S
C497 C495 1.327 . S
C498 C486 1.349 . S
C498 H492 0.950 . S
C498 C499 1.327 . S
C499 H493 0.950 . S
C499 C498 1.327 . S
C499 C503 1.429 . S
C500 C483 1.574 . S
C500 H494 0.949 . S
C500 C504 1.368 . S
C501 C482 1.429 . S
C501 C495 1.429 . S
C501 C502 1.523 . S
C502 C483 1.368 . S
C502 C496 1.368 . S
C502 C501 1.523 . S
C503 C487 1.429 . S
C503 C499 1.429 . S
C503 C504 1.523 . S
C504 C488 1.368 . S
C504 C500 1.368 . S
C504 C503 1.523 . S
H505 C480 0.950 . S
H506 C482 0.950 . S
H507 C483 0.949 . S
H508 C485 0.950 . S
H509 C487 0.950 . S
C510 C511 1.349 . S
C510 C512 1.327 . S
C510 H535 0.950 . S
C511 C510 1.349 . S
C511 C527 1.349 . S
C512 C510 1.327 . S
C512 C531 1.429 . S
C512 H536 0.950 . S
C513 C530 1.574 1_455 S
C513 C532 1.368 . S
C513 H537 0.949 . S
H514 C518 0.949 . S
C515 C516 1.349 . S
C515 C517 1.327 . S
C515 H538 0.950 . S
C516 C515 1.349 . S
C516 C528 1.349 . S
C517 C515 1.327 . S
C517 C533 1.429 . S
C517 H539 0.950 . S
C518 H514 0.949 . S
C518 C526 1.574 1_655 S
C518 C534 1.368 . S
H519 C527 0.950 . S
H520 C525 0.950 . S
H521 C526 0.949 . S
H522 C528 0.950 . S
H523 C529 0.950 . S
H524 C530 0.949 . S
C525 H520 0.950 . S
C525 C527 1.327 . S
C525 C531 1.429 . S
C526 C518 1.574 1_455 S
C526 H521 0.949 . S
C526 C532 1.368 . S
C527 C511 1.349 . S
C527 H519 0.950 . S
C527 C525 1.327 . S
C528 C516 1.349 . S
C528 H522 0.950 . S
C528 C529 1.327 . S
C529 H523 0.950 . S
C529 C528 1.327 . S
C529 C533 1.429 . S
C530 C513 1.574 1_655 S
C530 H524 0.949 . S
C530 C534 1.368 . S
C531 C512 1.429 . S
C531 C525 1.429 . S
C531 C532 1.523 . S
C532 C513 1.368 . S
C532 C526 1.368 . S
C532 C531 1.523 . S
C533 C517 1.429 . S
C533 C529 1.429 . S
C533 C534 1.523 . S
C534 C518 1.368 . S
C534 C530 1.368 . S
C534 C533 1.523 . S
H535 C510 0.950 . S
H536 C512 0.950 . S
H537 C513 0.949 . S
H538 C515 0.950 . S
H539 C517 0.950 . S
C540 C541 1.349 . S
C540 C542 1.327 . S
C540 H565 0.950 . S
C541 C540 1.349 . S
C541 C557 1.349 . S
C542 C540 1.327 . S
C542 C561 1.429 . S
C542 H566 0.950 . S
C543 C560 1.574 1_545 S
C543 C562 1.368 . S
C543 H567 0.949 . S
H544 C548 0.949 . S
C545 C546 1.349 . S
C545 C547 1.327 . S
C545 H568 0.950 . S
C546 C545 1.349 . S
C546 C558 1.349 . S
C547 C545 1.327 . S
C547 C563 1.429 . S
C547 H569 0.950 . S
C548 H544 0.949 . S
C548 C556 1.574 1_565 S
C548 C564 1.368 . S
H549 C557 0.950 . S
H550 C555 0.950 . S
H551 C556 0.949 . S
H552 C558 0.950 . S
H553 C559 0.950 . S
H554 C560 0.949 . S
C555 H550 0.950 . S
C555 C557 1.327 . S
C555 C561 1.429 . S
C556 C548 1.574 1_545 S
C556 H551 0.949 . S
C556 C562 1.368 . S
C557 C541 1.349 . S
C557 H549 0.950 . S
C557 C555 1.327 . S
C558 C546 1.349 . S
C558 H552 0.950 . S
C558 C559 1.327 . S
C559 H553 0.950 . S
C559 C558 1.327 . S
C559 C563 1.429 . S
C560 C543 1.574 1_565 S
C560 H554 0.949 . S
C560 C564 1.368 . S
C561 C542 1.429 . S
C561 C555 1.429 . S
C561 C562 1.523 . S
C562 C543 1.368 . S
C562 C556 1.368 . S
C562 C561 1.523 . S
C563 C547 1.429 . S
C563 C559 1.429 . S
C563 C564 1.523 . S
C564 C548 1.368 . S
C564 C560 1.368 . S
C564 C563 1.523 . S
H565 C540 0.950 . S
H566 C542 0.950 . S
H567 C543 0.949 . S
H568 C545 0.950 . S
H569 C547 0.950 . S
C570 C571 1.349 . S
C570 C572 1.327 . S
C570 H595 0.950 . S
C571 C570 1.349 . S
C571 C587 1.349 . S
C572 C570 1.327 . S
C572 C591 1.429 . S
C572 H596 0.950 . S
C573 C590 1.574 . S
C573 C592 1.368 . S
C573 H597 0.949 . S
H574 C578 0.949 . S
C575 C576 1.349 . S
C575 C577 1.327 . S
C575 H598 0.950 . S
C576 C575 1.349 . S
C576 C588 1.349 . S
C577 C575 1.327 . S
C577 C593 1.429 . S
C577 H599 0.950 . S
C578 H574 0.949 . S
C578 C586 1.574 . S
C578 C594 1.368 . S
H579 C587 0.950 . S
H580 C585 0.950 . S
H581 C586 0.949 . S
H582 C588 0.950 . S
H583 C589 0.950 . S
H584 C590 0.949 . S
C585 H580 0.950 . S
C585 C587 1.327 . S
C585 C591 1.429 . S
C586 C578 1.574 . S
C586 H581 0.949 . S
C586 C592 1.368 . S
C587 C571 1.349 . S
C587 H579 0.950 . S
C587 C585 1.327 . S
C588 C576 1.349 . S
C588 H582 0.950 . S
C588 C589 1.327 . S
C589 H583 0.950 . S
C589 C588 1.327 . S
C589 C593 1.429 . S
C590 C573 1.574 . S
C590 H584 0.949 . S
C590 C594 1.368 . S
C591 C572 1.429 . S
C591 C585 1.429 . S
C591 C592 1.523 . S
C592 C573 1.368 . S
C592 C586 1.368 . S
C592 C591 1.523 . S
C593 C577 1.429 . S
C593 C589 1.429 . S
C593 C594 1.523 . S
C594 C578 1.368 . S
C594 C590 1.368 . S
C594 C593 1.523 . S
H595 C570 0.950 . S
H596 C572 0.950 . S
H597 C573 0.949 . S
H598 C575 0.950 . S
H599 C577 0.950 . S
C600 C601 1.349 . S
C600 C602 1.327 . S
C600 H625 0.950 . S
C601 C600 1.349 . S
C601 C617 1.349 . S
C602 C600 1.327 . S
C602 C621 1.429 . S
C602 H626 0.950 . S
C603 C620 1.574 1_455 S
C603 C622 1.368 . S
C603 H627 0.949 . S
H604 C608 0.949 . S
C605 C606 1.349 . S
C605 C607 1.327 . S
C605 H628 0.950 . S
C606 C605 1.349 . S
C606 C618 1.349 . S
C607 C605 1.327 . S
C607 C623 1.429 . S
C607 H629 0.950 . S
C608 H604 0.949 . S
C608 C616 1.574 1_655 S
C608 C624 1.368 . S
H609 C617 0.950 . S
H610 C615 0.950 . S
H611 C616 0.949 . S
H612 C618 0.950 . S
H613 C619 0.950 . S
H614 C620 0.949 . S
C615 H610 0.950 . S
C615 C617 1.327 . S
C615 C621 1.429 . S
C616 C608 1.574 1_455 S
C616 H611 0.949 . S
C616 C622 1.368 . S
C617 C601 1.349 . S
C617 H609 0.950 . S
C617 C615 1.327 . S
C618 C606 1.349 . S
C618 H612 0.950 . S
C618 C619 1.327 . S
C619 H613 0.950 . S
C619 C618 1.327 . S
C619 C623 1.429 . S
C620 C603 1.574 1_655 S
C620 H614 0.949 . S
C620 C624 1.368 . S
C621 C602 1.429 . S
C621 C615 1.429 . S
C621 C622 1.523 . S
C622 C603 1.368 . S
C622 C616 1.368 . S
C622 C621 1.523 . S
C623 C607 1.429 . S
C623 C619 1.429 . S
C623 C624 1.523 . S
C624 C608 1.368 . S
C624 C620 1.368 . S
C624 C623 1.523 . S
H625 C600 0.950 . S
H626 C602 0.950 . S
H627 C603 0.949 . S
H628 C605 0.950 . S
H629 C607 0.950 . S
C630 C631 1.349 . S
C630 C632 1.327 . S
C630 H655 0.950 . S
C631 C630 1.349 . S
C631 C647 1.349 . S
C632 C630 1.327 . S
C632 C651 1.429 . S
C632 H656 0.950 . S
C633 C650 1.574 1_565 S
C633 C652 1.368 . S
C633 H657 0.949 . S
H634 C638 0.949 . S
C635 C636 1.349 . S
C635 C637 1.327 . S
C635 H658 0.950 . S
C636 C635 1.349 . S
C636 C648 1.349 . S
C637 C635 1.327 . S
C637 C653 1.429 . S
C637 H659 0.950 . S
C638 H634 0.949 . S
C638 C646 1.574 1_545 S
C638 C654 1.368 . S
H639 C647 0.950 . S
H640 C645 0.950 . S
H641 C646 0.949 . S
H642 C648 0.950 . S
H643 C649 0.950 . S
H644 C650 0.949 . S
C645 H640 0.950 . S
C645 C647 1.327 . S
C645 C651 1.429 . S
C646 C638 1.574 1_565 S
C646 H641 0.949 . S
C646 C652 1.368 . S
C647 C631 1.349 . S
C647 H639 0.950 . S
C647 C645 1.327 . S
C648 C636 1.349 . S
C648 H642 0.950 . S
C648 C649 1.327 . S
C649 H643 0.950 . S
C649 C648 1.327 . S
C649 C653 1.429 . S
C650 C633 1.574 1_545 S
C650 H644 0.949 . S
C650 C654 1.368 . S
C651 C632 1.429 . S
C651 C645 1.429 . S
C651 C652 1.523 . S
C652 C633 1.368 . S
C652 C646 1.368 . S
C652 C651 1.523 . S
C653 C637 1.429 . S
C653 C649 1.429 . S
C653 C654 1.523 . S
C654 C638 1.368 . S
C654 C650 1.368 . S
C654 C653 1.523 . S
H655 C630 0.950 . S
H656 C632 0.950 . S
H657 C633 0.949 . S
H658 C635 0.950 . S
H659 C637 0.950 . S
C660 C661 1.349 . S
C660 C662 1.327 . S
C660 H685 0.950 . S
C661 C660 1.349 . S
C661 C677 1.349 . S
C662 C660 1.327 . S
C662 C681 1.429 . S
C662 H686 0.950 . S
C663 C680 1.574 . S
C663 C682 1.368 . S
C663 H687 0.949 . S
H664 C668 0.949 . S
C665 C666 1.349 . S
C665 C667 1.327 . S
C665 H688 0.950 . S
C666 C665 1.349 . S
C666 C678 1.349 . S
C667 C665 1.327 . S
C667 C683 1.429 . S
C667 H689 0.950 . S
C668 H664 0.949 . S
C668 C676 1.574 . S
C668 C684 1.368 . S
H669 C677 0.950 . S
H670 C675 0.950 . S
H671 C676 0.949 . S
H672 C678 0.950 . S
H673 C679 0.950 . S
H674 C680 0.949 . S
C675 H670 0.950 . S
C675 C677 1.327 . S
C675 C681 1.429 . S
C676 C668 1.574 . S
C676 H671 0.949 . S
C676 C682 1.368 . S
C677 C661 1.349 . S
C677 H669 0.950 . S
C677 C675 1.327 . S
C678 C666 1.349 . S
C678 H672 0.950 . S
C678 C679 1.327 . S
C679 H673 0.950 . S
C679 C678 1.327 . S
C679 C683 1.429 . S
C680 C663 1.574 . S
C680 H674 0.949 . S
C680 C684 1.368 . S
C681 C662 1.429 . S
C681 C675 1.429 . S
C681 C682 1.523 . S
C682 C663 1.368 . S
C682 C676 1.368 . S
C682 C681 1.523 . S
C683 C667 1.429 . S
C683 C679 1.429 . S
C683 C684 1.523 . S
C684 C668 1.368 . S
C684 C680 1.368 . S
C684 C683 1.523 . S
H685 C660 0.950 . S
H686 C662 0.950 . S
H687 C663 0.949 . S
H688 C665 0.950 . S
H689 C667 0.950 . S
C690 C691 1.349 . S
C690 C692 1.327 . S
C690 H715 0.950 . S
C691 C690 1.349 . S
C691 C707 1.349 . S
C692 C690 1.327 . S
C692 C711 1.429 . S
C692 H716 0.950 . S
C693 C710 1.574 1_455 S
C693 C712 1.368 . S
C693 H717 0.949 . S
H694 C698 0.949 . S
C695 C696 1.349 . S
C695 C697 1.327 . S
C695 H718 0.950 . S
C696 C695 1.349 . S
C696 C708 1.349 . S
C697 C695 1.327 . S
C697 C713 1.429 . S
C697 H719 0.950 . S
C698 H694 0.949 . S
C698 C706 1.574 1_655 S
C698 C714 1.368 . S
H699 C707 0.950 . S
H700 C705 0.950 . S
H701 C706 0.949 . S
H702 C708 0.950 . S
H703 C709 0.950 . S
H704 C710 0.949 . S
C705 H700 0.950 . S
C705 C707 1.327 . S
C705 C711 1.429 . S
C706 C698 1.574 1_455 S
C706 H701 0.949 . S
C706 C712 1.368 . S
C707 C691 1.349 . S
C707 H699 0.950 . S
C707 C705 1.327 . S
C708 C696 1.349 . S
C708 H702 0.950 . S
C708 C709 1.327 . S
C709 H703 0.950 . S
C709 C708 1.327 . S
C709 C713 1.429 . S
C710 C693 1.574 1_655 S
C710 H704 0.949 . S
C710 C714 1.368 . S
C711 C692 1.429 . S
C711 C705 1.429 . S
C711 C712 1.523 . S
C712 C693 1.368 . S
C712 C706 1.368 . S
C712 C711 1.523 . S
C713 C697 1.429 . S
C713 C709 1.429 . S
C713 C714 1.523 . S
C714 C698 1.368 . S
C714 C710 1.368 . S
C714 C713 1.523 . S
H715 C690 0.950 . S
H716 C692 0.950 . S
H717 C693 0.949 . S
H718 C695 0.950 . S
H719 C697 0.950 . S
C720 C721 1.349 . S
C720 C722 1.327 . S
C720 H745 0.950 . S
C721 C720 1.349 . S
C721 C737 1.349 . S
C722 C720 1.327 . S
C722 C741 1.429 . S
C722 H746 0.950 . S
C723 C740 1.574 1_565 S
C723 C742 1.368 . S
C723 H747 0.949 . S
H724 C728 0.949 . S
C725 C726 1.349 . S
C725 C727 1.327 . S
C725 H748 0.950 . S
C726 C725 1.349 . S
C726 C738 1.349 . S
C727 C725 1.327 . S
C727 C743 1.429 . S
C727 H749 0.950 . S
C728 H724 0.949 . S
C728 C736 1.574 1_545 S
C728 C744 1.368 . S
H729 C737 0.950 . S
H730 C735 0.950 . S
H731 C736 0.949 . S
H732 C738 0.950 . S
H733 C739 0.950 . S
H734 C740 0.949 . S
C735 H730 0.950 . S
C735 C737 1.327 . S
C735 C741 1.429 . S
C736 C728 1.574 1_565 S
C736 H731 0.949 . S
C736 C742 1.368 . S
C737 C721 1.349 . S
C737 H729 0.950 . S
C737 C735 1.327 . S
C738 C726 1.349 . S
C738 H732 0.950 . S
C738 C739 1.327 . S
C739 H733 0.950 . S
C739 C738 1.327 . S
C739 C743 1.429 . S
C740 C723 1.574 1_545 S
C740 H734 0.949 . S
C740 C744 1.368 . S
C741 C722 1.429 . S
C741 C735 1.429 . S
C741 C742 1.523 . S
C742 C723 1.368 . S
C742 C736 1.368 . S
C742 C741 1.523 . S
C743 C727 1.429 . S
C743 C739 1.429 . S
C743 C744 1.523 . S
C744 C728 1.368 . S
C744 C740 1.368 . S
C744 C743 1.523 . S
H745 C720 0.950 . S
H746 C722 0.950 . S
H747 C723 0.949 . S
H748 C725 0.950 . S
H749 C727 0.950 . S
C750 C751 1.349 . S
C750 C752 1.327 . S
C750 H775 0.950 . S
C751 C750 1.349 . S
C751 C767 1.349 . S
C752 C750 1.327 . S
C752 C771 1.429 . S
C752 H776 0.950 . S
C753 C770 1.574 . S
C753 C772 1.368 . S
C753 H777 0.949 . S
H754 C758 0.949 . S
C755 C756 1.349 . S
C755 C757 1.327 . S
C755 H778 0.950 . S
C756 C755 1.349 . S
C756 C768 1.349 . S
C757 C755 1.327 . S
C757 C773 1.429 . S
C757 H779 0.950 . S
C758 H754 0.949 . S
C758 C766 1.574 . S
C758 C774 1.368 . S
H759 C767 0.950 . S
H760 C765 0.950 . S
H761 C766 0.949 . S
H762 C768 0.950 . S
H763 C769 0.950 . S
H764 C770 0.949 . S
C765 H760 0.950 . S
C765 C767 1.327 . S
C765 C771 1.429 . S
C766 C758 1.574 . S
C766 H761 0.949 . S
C766 C772 1.368 . S
C767 C751 1.349 . S
C767 H759 0.950 . S
C767 C765 1.327 . S
C768 C756 1.349 . S
C768 H762 0.950 . S
C768 C769 1.327 . S
C769 H763 0.950 . S
C769 C768 1.327 . S
C769 C773 1.429 . S
C770 C753 1.574 . S
C770 H764 0.949 . S
C770 C774 1.368 . S
C771 C752 1.429 . S
C771 C765 1.429 . S
C771 C772 1.523 . S
C772 C753 1.368 . S
C772 C766 1.368 . S
C772 C771 1.523 . S
C773 C757 1.429 . S
C773 C769 1.429 . S
C773 C774 1.523 . S
C774 C758 1.368 . S
C774 C770 1.368 . S
C774 C773 1.523 . S
H775 C750 0.950 . S
H776 C752 0.950 . S
H777 C753 0.949 . S
H778 C755 0.950 . S
H779 C757 0.950 . S
C780 C781 1.349 . S
C780 C782 1.327 . S
C780 H805 0.950 . S
C781 C780 1.349 . S
C781 C797 1.349 . S
C782 C780 1.327 . S
C782 C801 1.429 . S
C782 H806 0.950 . S
C783 C800 1.574 1_455 S
C783 C802 1.368 . S
C783 H807 0.949 . S
H784 C788 0.949 . S
C785 C786 1.349 . S
C785 C787 1.327 . S
C785 H808 0.950 . S
C786 C785 1.349 . S
C786 C798 1.349 . S
C787 C785 1.327 . S
C787 C803 1.429 . S
C787 H809 0.950 . S
C788 H784 0.949 . S
C788 C796 1.574 1_655 S
C788 C804 1.368 . S
H789 C797 0.950 . S
H790 C795 0.950 . S
H791 C796 0.949 . S
H792 C798 0.950 . S
H793 C799 0.950 . S
H794 C800 0.949 . S
C795 H790 0.950 . S
C795 C797 1.327 . S
C795 C801 1.429 . S
C796 C788 1.574 1_455 S
C796 H791 0.949 . S
C796 C802 1.368 . S
C797 C781 1.349 . S
C797 H789 0.950 . S
C797 C795 1.327 . S
C798 C786 1.349 . S
C798 H792 0.950 . S
C798 C799 1.327 . S
C799 H793 0.950 . S
C799 C798 1.327 . S
C799 C803 1.429 . S
C800 C783 1.574 1_655 S
C800 H794 0.949 . S
C800 C804 1.368 . S
C801 C782 1.429 . S
C801 C795 1.429 . S
C801 C802 1.523 . S
C802 C783 1.368 . S
C802 C796 1.368 . S
C802 C801 1.523 . S
C803 C787 1.429 . S
C803 C799 1.429 . S
C803 C804 1.523 . S
C804 C788 1.368 . S
C804 C800 1.368 . S
C804 C803 1.523 . S
H805 C780 0.950 . S
H806 C782 0.950 . S
H807 C783 0.949 . S
H808 C785 0.950 . S
H809 C787 0.950 . S
C810 C811 1.349 . S
C810 C812 1.327 . S
C810 H835 0.950 . S
C811 C810 1.349 . S
C811 C827 1.349 . S
C812 C810 1.327 . S
C812 C831 1.429 . S
C812 H836 0.950 . S
C813 C830 1.574 1_545 S
C813 C832 1.368 . S
C813 H837 0.949 . S
H814 C818 0.949 . S
C815 C816 1.349 . S
C815 C817 1.327 . S
C815 H838 0.950 . S
C816 C815 1.349 . S
C816 C828 1.349 . S
C817 C815 1.327 . S
C817 C833 1.429 . S
C817 H839 0.950 . S
C818 H814 0.949 . S
C818 C826 1.574 1_565 S
C818 C834 1.368 . S
H819 C827 0.950 . S
H820 C825 0.950 . S
H821 C826 0.949 . S
H822 C828 0.950 . S
H823 C829 0.950 . S
H824 C830 0.949 . S
C825 H820 0.950 . S
C825 C827 1.327 . S
C825 C831 1.429 . S
C826 C818 1.574 1_545 S
C826 H821 0.949 . S
C826 C832 1.368 . S
C827 C811 1.349 . S
C827 H819 0.950 . S
C827 C825 1.327 . S
C828 C816 1.349 . S
C828 H822 0.950 . S
C828 C829 1.327 . S
C829 H823 0.950 . S
C829 C828 1.327 . S
C829 C833 1.429 . S
C830 C813 1.574 1_565 S
C830 H824 0.949 . S
C830 C834 1.368 . S
C831 C812 1.429 . S
C831 C825 1.429 . S
C831 C832 1.523 . S
C832 C813 1.368 . S
C832 C826 1.368 . S
C832 C831 1.523 . S
C833 C817 1.429 . S
C833 C829 1.429 . S
C833 C834 1.523 . S
C834 C818 1.368 . S
C834 C830 1.368 . S
C834 C833 1.523 . S
H835 C810 0.950 . S
H836 C812 0.950 . S
H837 C813 0.949 . S
H838 C815 0.950 . S
H839 C817 0.950 . S
C840 C841 1.349 . S
C840 C842 1.327 . S
C840 H865 0.950 . S
C841 C840 1.349 . S
C841 C857 1.349 . S
C842 C840 1.327 . S
C842 C861 1.429 . S
C842 H866 0.950 . S
C843 C860 1.574 . S
C843 C862 1.368 . S
C843 H867 0.949 . S
H844 C848 0.949 . S
C845 C846 1.349 . S
C845 C847 1.327 . S
C845 H868 0.950 . S
C846 C845 1.349 . S
C846 C858 1.349 . S
C847 C845 1.327 . S
C847 C863 1.429 . S
C847 H869 0.950 . S
C848 H844 0.949 . S
C848 C856 1.574 . S
C848 C864 1.368 . S
H849 C857 0.950 . S
H850 C855 0.950 . S
H851 C856 0.949 . S
H852 C858 0.950 . S
H853 C859 0.950 . S
H854 C860 0.949 . S
C855 H850 0.950 . S
C855 C857 1.327 . S
C855 C861 1.429 . S
C856 C848 1.574 . S
C856 H851 0.949 . S
C856 C862 1.368 . S
C857 C841 1.349 . S
C857 H849 0.950 . S
C857 C855 1.327 . S
C858 C846 1.349 . S
C858 H852 0.950 . S
C858 C859 1.327 . S
C859 H853 0.950 . S
C859 C858 1.327 . S
C859 C863 1.429 . S
C860 C843 1.574 . S
C860 H854 0.949 . S
C860 C864 1.368 . S
C861 C842 1.429 . S
C861 C855 1.429 . S
C861 C862 1.523 . S
C862 C843 1.368 . S
C862 C856 1.368 . S
C862 C861 1.523 . S
C863 C847 1.429 . S
C863 C859 1.429 . S
C863 C864 1.523 . S
C864 C848 1.368 . S
C864 C860 1.368 . S
C864 C863 1.523 . S
H865 C840 0.950 . S
H866 C842 0.950 . S
H867 C843 0.949 . S
H868 C845 0.950 . S
H869 C847 0.950 . S
C870 C871 1.349 . S
C870 C872 1.327 . S
C870 H895 0.950 . S
C871 C870 1.349 . S
C871 C887 1.349 . S
C872 C870 1.327 . S
C872 C891 1.429 . S
C872 H896 0.950 . S
C873 C890 1.574 . S
C873 C892 1.368 . S
C873 H897 0.949 . S
H874 C878 0.949 . S
C875 C876 1.349 . S
C875 C877 1.327 . S
C875 H898 0.950 . S
C876 C875 1.349 . S
C876 C888 1.349 . S
C877 C875 1.327 . S
C877 C893 1.429 . S
C877 H899 0.950 . S
C878 H874 0.949 . S
C878 C886 1.574 . S
C878 C894 1.368 . S
H879 C887 0.950 . S
H880 C885 0.950 . S
H881 C886 0.949 . S
H882 C888 0.950 . S
H883 C889 0.950 . S
H884 C890 0.949 . S
C885 H880 0.950 . S
C885 C887 1.327 . S
C885 C891 1.429 . S
C886 C878 1.574 . S
C886 H881 0.949 . S
C886 C892 1.368 . S
C887 C871 1.349 . S
C887 H879 0.950 . S
C887 C885 1.327 . S
C888 C876 1.349 . S
C888 H882 0.950 . S
C888 C889 1.327 . S
C889 H883 0.950 . S
C889 C888 1.327 . S
C889 C893 1.429 . S
C890 C873 1.574 . S
C890 H884 0.949 . S
C890 C894 1.368 . S
C891 C872 1.429 . S
C891 C885 1.429 . S
C891 C892 1.523 . S
C892 C873 1.368 . S
C892 C886 1.368 . S
C892 C891 1.523 . S
C893 C877 1.429 . S
C893 C889 1.429 . S
C893 C894 1.523 . S
C894 C878 1.368 . S
C894 C890 1.368 . S
C894 C893 1.523 . S
H895 C870 0.950 . S
H896 C872 0.950 . S
H897 C873 0.949 . S
H898 C875 0.950 . S
H899 C877 0.950 . S
C900 C901 1.349 . S
C900 C902 1.327 . S
C900 H925 0.950 . S
C901 C900 1.349 . S
C901 C917 1.349 . S
C902 C900 1.327 . S
C902 C921 1.429 . S
C902 H926 0.950 . S
C903 C920 1.574 . S
C903 C922 1.368 . S
C903 H927 0.949 . S
H904 C908 0.949 . S
C905 C906 1.349 . S
C905 C907 1.327 . S
C905 H928 0.950 . S
C906 C905 1.349 . S
C906 C918 1.349 . S
C907 C905 1.327 . S
C907 C923 1.429 . S
C907 H929 0.950 . S
C908 H904 0.949 . S
C908 C916 1.574 . S
C908 C924 1.368 . S
H909 C917 0.950 . S
H910 C915 0.950 . S
H911 C916 0.949 . S
H912 C918 0.950 . S
H913 C919 0.950 . S
H914 C920 0.949 . S
C915 H910 0.950 . S
C915 C917 1.327 . S
C915 C921 1.429 . S
C916 C908 1.574 . S
C916 H911 0.949 . S
C916 C922 1.368 . S
C917 C901 1.349 . S
C917 H909 0.950 . S
C917 C915 1.327 . S
C918 C906 1.349 . S
C918 H912 0.950 . S
C918 C919 1.327 . S
C919 H913 0.950 . S
C919 C918 1.327 . S
C919 C923 1.429 . S
C920 C903 1.574 . S
C920 H914 0.949 . S
C920 C924 1.368 . S
C921 C902 1.429 . S
C921 C915 1.429 . S
C921 C922 1.523 . S
C922 C903 1.368 . S
C922 C916 1.368 . S
C922 C921 1.523 . S
C923 C907 1.429 . S
C923 C919 1.429 . S
C923 C924 1.523 . S
C924 C908 1.368 . S
C924 C920 1.368 . S
C924 C923 1.523 . S
H925 C900 0.950 . S
H926 C902 0.950 . S
H927 C903 0.949 . S
H928 C905 0.950 . S
H929 C907 0.950 . S
C930 C931 1.349 . S
C930 C932 1.327 . S
C930 H955 0.950 . S
C931 C930 1.349 . S
C931 C947 1.349 . S
C932 C930 1.327 . S
C932 C951 1.429 . S
C932 H956 0.950 . S
C933 C950 1.574 . S
C933 C952 1.368 . S
C933 H957 0.949 . S
H934 C938 0.949 . S
C935 C936 1.349 . S
C935 C937 1.327 . S
C935 H958 0.950 . S
C936 C935 1.349 . S
C936 C948 1.349 . S
C937 C935 1.327 . S
C937 C953 1.429 . S
C937 H959 0.950 . S
C938 H934 0.949 . S
C938 C946 1.574 . S
C938 C954 1.368 . S
H939 C947 0.950 . S
H940 C945 0.950 . S
H941 C946 0.949 . S
H942 C948 0.950 . S
H943 C949 0.950 . S
H944 C950 0.949 . S
C945 H940 0.950 . S
C945 C947 1.327 . S
C945 C951 1.429 . S
C946 C938 1.574 . S
C946 H941 0.949 . S
C946 C952 1.368 . S
C947 C931 1.349 . S
C947 H939 0.950 . S
C947 C945 1.327 . S
C948 C936 1.349 . S
C948 H942 0.950 . S
C948 C949 1.327 . S
C949 H943 0.950 . S
C949 C948 1.327 . S
C949 C953 1.429 . S
C950 C933 1.574 . S
C950 H944 0.949 . S
C950 C954 1.368 . S
C951 C932 1.429 . S
C951 C945 1.429 . S
C951 C952 1.523 . S
C952 C933 1.368 . S
C952 C946 1.368 . S
C952 C951 1.523 . S
C953 C937 1.429 . S
C953 C949 1.429 . S
C953 C954 1.523 . S
C954 C938 1.368 . S
C954 C950 1.368 . S
C954 C953 1.523 . S
H955 C930 0.950 . S
H956 C932 0.950 . S
H957 C933 0.949 . S
H958 C935 0.950 . S
H959 C937 0.950 . S
C960 C961 1.349 . S
C960 C962 1.327 . S
C960 H985 0.950 . S
C961 C960 1.349 . S
C961 C977 1.349 . S
C962 C960 1.327 . S
C962 C981 1.429 . S
C962 H986 0.950 . S
C963 C980 1.574 . S
C963 C982 1.368 . S
C963 H987 0.949 . S
H964 C968 0.949 . S
C965 C966 1.349 . S
C965 C967 1.327 . S
C965 H988 0.950 . S
C966 C965 1.349 . S
C966 C978 1.349 . S
C967 C965 1.327 . S
C967 C983 1.429 . S
C967 H989 0.950 . S
C968 H964 0.949 . S
C968 C976 1.574 . S
C968 C984 1.368 . S
H969 C977 0.950 . S
H970 C975 0.950 . S
H971 C976 0.949 . S
H972 C978 0.950 . S
H973 C979 0.950 . S
H974 C980 0.949 . S
C975 H970 0.950 . S
C975 C977 1.327 . S
C975 C981 1.429 . S
C976 C968 1.574 . S
C976 H971 0.949 . S
C976 C982 1.368 . S
C977 C961 1.349 . S
C977 H969 0.950 . S
C977 C975 1.327 . S
C978 C966 1.349 . S
C978 H972 0.950 . S
C978 C979 1.327 . S
C979 H973 0.950 . S
C979 C978 1.327 . S
C979 C983 1.429 . S
C980 C963 1.574 . S
C980 H974 0.949 . S
C980 C984 1.368 . S
C981 C962 1.429 . S
C981 C975 1.429 . S
C981 C982 1.523 . S
C982 C963 1.368 . S
C982 C976 1.368 . S
C982 C981 1.523 . S
C983 C967 1.429 . S
C983 C979 1.429 . S
C983 C984 1.523 . S
C984 C968 1.368 . S
C984 C980 1.368 . S
C984 C983 1.523 . S
H985 C960 0.950 . S
H986 C962 0.950 . S
H987 C963 0.949 . S
H988 C965 0.950 . S
H989 C967 0.950 . S
C990 C991 1.349 . S
C990 C992 1.327 . S
C990 H1015 0.950 . S
C991 C990 1.349 . S
C991 C1007 1.349 . S
C992 C990 1.327 . S
C992 C1011 1.429 . S
C992 H1016 0.950 . S
C993 C1010 1.574 . S
C993 C1012 1.368 . S
C993 H1017 0.949 . S
H994 C998 0.949 . S
C995 C996 1.349 . S
C995 C997 1.327 . S
C995 H1018 0.950 . S
C996 C995 1.349 . S
C996 C1008 1.349 . S
C997 C995 1.327 . S
C997 C1013 1.429 . S
C997 H1019 0.950 . S
C998 H994 0.949 . S
C998 C1006 1.574 . S
C998 C1014 1.368 . S
H999 C1007 0.950 . S
H1000 C1005 0.950 . S
H1001 C1006 0.949 . S
H1002 C1008 0.950 . S
H1003 C1009 0.950 . S
H1004 C1010 0.949 . S
C1005 H1000 0.950 . S
C1005 C1007 1.327 . S
C1005 C1011 1.429 . S
C1006 C998 1.574 . S
C1006 H1001 0.949 . S
C1006 C1012 1.368 . S
C1007 C991 1.349 . S
C1007 H999 0.950 . S
C1007 C1005 1.327 . S
C1008 C996 1.349 . S
C1008 H1002 0.950 . S
C1008 C1009 1.327 . S
C1009 H1003 0.950 . S
C1009 C1008 1.327 . S
C1009 C1013 1.429 . S
C1010 C993 1.574 . S
C1010 H1004 0.949 . S
C1010 C1014 1.368 . S
C1011 C992 1.429 . S
C1011 C1005 1.429 . S
C1011 C1012 1.523 . S
C1012 C993 1.368 . S
C1012 C1006 1.368 . S
C1012 C1011 1.523 . S
C1013 C997 1.429 . S
C1013 C1009 1.429 . S
C1013 C1014 1.523 . S
C1014 C998 1.368 . S
C1014 C1010 1.368 . S
C1014 C1013 1.523 . S
H1015 C990 0.950 . S
H1016 C992 0.950 . S
H1017 C993 0.949 . S
H1018 C995 0.950 . S
H1019 C997 0.950 . S
C1020 C1021 1.349 . S
C1020 C1022 1.327 . S
C1020 H1045 0.950 . S
C1021 C1020 1.349 . S
C1021 C1037 1.349 . S
C1022 C1020 1.327 . S
C1022 C1041 1.429 . S
C1022 H1046 0.950 . S
C1023 C1040 1.573 . S
C1023 C1042 1.370 1_545 S
C1023 H1047 0.953 1_545 S
H1024 C1028 0.953 1_545 S
C1025 C1026 1.349 . S
C1025 C1027 1.327 . S
C1025 H1048 0.950 . S
C1026 C1025 1.349 . S
C1026 C1038 1.349 . S
C1027 C1025 1.327 . S
C1027 C1043 1.429 . S
C1027 H1049 0.950 . S
C1028 H1024 0.953 1_565 S
C1028 C1036 1.573 . S
C1028 C1044 1.370 1_565 S
H1029 C1037 0.950 . S
H1030 C1035 0.950 . S
H1031 C1036 0.949 . S
H1032 C1038 0.950 . S
H1033 C1039 0.950 . S
H1034 C1040 0.949 . S
C1035 H1030 0.950 . S
C1035 C1037 1.327 . S
C1035 C1041 1.429 . S
C1036 C1028 1.573 . S
C1036 H1031 0.949 . S
C1036 C1042 1.368 1_554 S
C1037 C1021 1.349 . S
C1037 H1029 0.950 . S
C1037 C1035 1.327 . S
C1038 C1026 1.349 . S
C1038 H1032 0.950 . S
C1038 C1039 1.327 . S
C1039 H1033 0.950 . S
C1039 C1038 1.327 . S
C1039 C1043 1.429 . S
C1040 C1023 1.573 . S
C1040 H1034 0.949 . S
C1040 C1044 1.368 1_556 S
C1041 C1022 1.429 . S
C1041 C1035 1.429 . S
C1041 C1042 1.523 . S
C1042 C1023 1.370 1_565 S
C1042 C1036 1.368 1_556 S
C1042 C1041 1.523 . S
C1043 C1027 1.429 . S
C1043 C1039 1.429 . S
C1043 C1044 1.523 . S
C1044 C1028 1.370 1_545 S
C1044 C1040 1.368 1_554 S
C1044 C1043 1.523 . S
H1045 C1020 0.950 . S
H1046 C1022 0.950 . S
H1047 C1023 0.953 1_565 S
H1048 C1025 0.950 . S
H1049 C1027 0.950 . S
C1050 C1051 1.349 . S
C1050 C1052 1.327 . S
C1050 H1075 0.950 . S
C1051 C1050 1.349 . S
C1051 C1067 1.349 . S
C1052 C1050 1.327 . S
C1052 C1071 1.429 . S
C1052 H1076 0.950 . S
C1053 C1070 1.574 . S
C1053 C1072 1.368 . S
C1053 H1077 0.949 . S
H1054 C1058 0.949 . S
C1055 C1056 1.349 . S
C1055 C1057 1.327 . S
C1055 H1078 0.950 . S
C1056 C1055 1.349 . S
C1056 C1068 1.349 . S
C1057 C1055 1.327 . S
C1057 C1073 1.429 . S
C1057 H1079 0.950 . S
C1058 H1054 0.949 . S
C1058 C1066 1.574 . S
C1058 C1074 1.368 . S
H1059 C1067 0.950 . S
H1060 C1065 0.950 . S
H1061 C1066 0.949 . S
H1062 C1068 0.950 . S
H1063 C1069 0.950 . S
H1064 C1070 0.949 . S
C1065 H1060 0.950 . S
C1065 C1067 1.327 . S
C1065 C1071 1.429 . S
C1066 C1058 1.574 . S
C1066 H1061 0.949 . S
C1066 C1072 1.368 . S
C1067 C1051 1.349 . S
C1067 H1059 0.950 . S
C1067 C1065 1.327 . S
C1068 C1056 1.349 . S
C1068 H1062 0.950 . S
C1068 C1069 1.327 . S
C1069 H1063 0.950 . S
C1069 C1068 1.327 . S
C1069 C1073 1.429 . S
C1070 C1053 1.574 . S
C1070 H1064 0.949 . S
C1070 C1074 1.368 . S
C1071 C1052 1.429 . S
C1071 C1065 1.429 . S
C1071 C1072 1.523 . S
C1072 C1053 1.368 . S
C1072 C1066 1.368 . S
C1072 C1071 1.523 . S
C1073 C1057 1.429 . S
C1073 C1069 1.429 . S
C1073 C1074 1.523 . S
C1074 C1058 1.368 . S
C1074 C1070 1.368 . S
C1074 C1073 1.523 . S
H1075 C1050 0.950 . S
H1076 C1052 0.950 . S
H1077 C1053 0.949 . S
H1078 C1055 0.950 . S
H1079 C1057 0.950 . S
C1080 C1081 1.349 . S
C1080 C1082 1.327 . S
C1080 H1105 0.950 . S
C1081 C1080 1.349 . S
C1081 C1097 1.349 . S
C1082 C1080 1.327 . S
C1082 C1101 1.429 . S
C1082 H1106 0.950 . S
C1083 C1100 1.574 1_456 S
C1083 C1102 1.368 . S
C1083 H1107 0.949 . S
H1084 C1088 0.949 . S
C1085 C1086 1.349 . S
C1085 C1087 1.327 . S
C1085 H1108 0.950 . S
C1086 C1085 1.349 . S
C1086 C1098 1.349 . S
C1087 C1085 1.327 . S
C1087 C1103 1.429 . S
C1087 H1109 0.950 . S
C1088 H1084 0.949 . S
C1088 C1096 1.574 1_654 S
C1088 C1104 1.368 . S
H1089 C1097 0.950 . S
H1090 C1095 0.950 . S
H1091 C1096 0.949 . S
H1092 C1098 0.950 . S
H1093 C1099 0.950 . S
H1094 C1100 0.949 . S
C1095 H1090 0.950 . S
C1095 C1097 1.327 . S
C1095 C1101 1.429 . S
C1096 C1088 1.574 1_456 S
C1096 H1091 0.949 . S
C1096 C1102 1.368 . S
C1097 C1081 1.349 . S
C1097 H1089 0.950 . S
C1097 C1095 1.327 . S
C1098 C1086 1.349 . S
C1098 H1092 0.950 . S
C1098 C1099 1.327 . S
C1099 H1093 0.950 . S
C1099 C1098 1.327 . S
C1099 C1103 1.429 . S
C1100 C1083 1.574 1_654 S
C1100 H1094 0.949 . S
C1100 C1104 1.368 . S
C1101 C1082 1.429 . S
C1101 C1095 1.429 . S
C1101 C1102 1.523 . S
C1102 C1083 1.368 . S
C1102 C1096 1.368 . S
C1102 C1101 1.523 . S
C1103 C1087 1.429 . S
C1103 C1099 1.429 . S
C1103 C1104 1.523 . S
C1104 C1088 1.368 . S
C1104 C1100 1.368 . S
C1104 C1103 1.523 . S
H1105 C1080 0.950 . S
H1106 C1082 0.950 . S
H1107 C1083 0.949 . S
H1108 C1085 0.950 . S
H1109 C1087 0.950 . S
C1110 C1111 1.349 . S
C1110 C1112 1.327 . S
C1110 H1135 0.950 . S
C1111 C1110 1.349 . S
C1111 C1127 1.349 . S
C1112 C1110 1.327 . S
C1112 C1131 1.429 . S
C1112 H1136 0.950 . S
C1113 C1130 1.586 . S
C1113 C1132 1.368 . S
C1113 H1137 0.949 . S
H1114 C1118 0.949 . S
C1115 C1116 1.349 . S
C1115 C1117 1.327 . S
C1115 H1138 0.950 . S
C1116 C1115 1.349 . S
C1116 C1128 1.349 . S
C1117 C1115 1.327 . S
C1117 C1133 1.429 . S
C1117 H1139 0.950 . S
C1118 H1114 0.949 . S
C1118 C1126 1.586 . S
C1118 C1134 1.368 . S
H1119 C1127 0.950 . S
H1120 C1125 0.950 . S
H1121 C1126 0.952 . S
H1122 C1128 0.950 . S
H1123 C1129 0.950 . S
H1124 C1130 0.952 . S
C1125 H1120 0.950 . S
C1125 C1127 1.327 . S
C1125 C1131 1.429 . S
C1126 C1118 1.586 . S
C1126 H1121 0.952 . S
C1126 C1132 1.350 1_565 S
C1127 C1111 1.349 . S
C1127 H1119 0.950 . S
C1127 C1125 1.327 . S
C1128 C1116 1.349 . S
C1128 H1122 0.950 . S
C1128 C1129 1.327 . S
C1129 H1123 0.950 . S
C1129 C1128 1.327 . S
C1129 C1133 1.429 . S
C1130 C1113 1.586 . S
C1130 H1124 0.952 . S
C1130 C1134 1.350 1_545 S
C1131 C1112 1.429 . S
C1131 C1125 1.429 . S
C1131 C1132 1.523 . S
C1132 C1113 1.368 . S
C1132 C1126 1.350 1_545 S
C1132 C1131 1.523 . S
C1133 C1117 1.429 . S
C1133 C1129 1.429 . S
C1133 C1134 1.523 . S
C1134 C1118 1.368 . S
C1134 C1130 1.350 1_565 S
C1134 C1133 1.523 . S
H1135 C1110 0.950 . S
H1136 C1112 0.950 . S
H1137 C1113 0.949 . S
H1138 C1115 0.950 . S
H1139 C1117 0.950 . S
C1140 C1141 1.349 . S
C1140 C1142 1.327 . S
C1140 H1165 0.950 . S
C1141 C1140 1.349 . S
C1141 C1157 1.349 . S
C1142 C1140 1.327 . S
C1142 C1161 1.429 . S
C1142 H1166 0.950 . S
C1143 C1160 1.538 1_554 S
C1143 C1162 1.402 . S
C1143 H1167 0.954 . S
H1144 C1148 0.954 . S
C1145 C1146 1.349 . S
C1145 C1147 1.327 . S
C1145 H1168 0.950 . S
C1146 C1145 1.349 . S
C1146 C1158 1.349 . S
C1147 C1145 1.327 . S
C1147 C1163 1.429 . S
C1147 H1169 0.950 . S
C1148 H1144 0.954 . S
C1148 C1156 1.538 1_556 S
C1148 C1164 1.402 . S
H1149 C1157 0.950 . S
H1150 C1155 0.950 . S
H1151 C1156 0.949 . S
H1152 C1158 0.950 . S
H1153 C1159 0.950 . S
H1154 C1160 0.949 . S
C1155 H1150 0.950 . S
C1155 C1157 1.327 . S
C1155 C1161 1.429 . S
C1156 C1148 1.538 1_554 S
C1156 H1151 0.949 . S
C1156 C1162 1.368 . S
C1157 C1141 1.349 . S
C1157 H1149 0.950 . S
C1157 C1155 1.327 . S
C1158 C1146 1.349 . S
C1158 H1152 0.950 . S
C1158 C1159 1.327 . S
C1159 H1153 0.950 . S
C1159 C1158 1.327 . S
C1159 C1163 1.429 . S
C1160 C1143 1.538 1_556 S
C1160 H1154 0.949 . S
C1160 C1164 1.368 . S
C1161 C1142 1.429 . S
C1161 C1155 1.429 . S
C1161 C1162 1.523 . S
C1162 C1143 1.402 . S
C1162 C1156 1.368 . S
C1162 C1161 1.523 . S
C1163 C1147 1.429 . S
C1163 C1159 1.429 . S
C1163 C1164 1.523 . S
C1164 C1148 1.402 . S
C1164 C1160 1.368 . S
C1164 C1163 1.523 . S
H1165 C1140 0.950 . S
H1166 C1142 0.950 . S
H1167 C1143 0.954 . S
H1168 C1145 0.950 . S
H1169 C1147 0.950 . S
C1170 C1171 1.349 . S
C1170 C1172 1.327 . S
C1170 H1195 0.950 . S
C1171 C1170 1.349 . S
C1171 C1187 1.349 . S
C1172 C1170 1.327 . S
C1172 C1191 1.429 . S
C1172 H1196 0.950 . S
C1173 C1190 1.574 . S
C1173 C1192 1.368 . S
C1173 H1197 0.949 . S
H1174 C1178 0.949 . S
C1175 C1176 1.349 . S
C1175 C1177 1.327 . S
C1175 H1198 0.950 . S
C1176 C1175 1.349 . S
C1176 C1188 1.349 . S
C1177 C1175 1.327 . S
C1177 C1193 1.429 . S
C1177 H1199 0.950 . S
C1178 H1174 0.949 . S
C1178 C1186 1.574 . S
C1178 C1194 1.368 . S
H1179 C1187 0.950 . S
H1180 C1185 0.950 . S
H1181 C1186 0.949 . S
H1182 C1188 0.950 . S
H1183 C1189 0.950 . S
H1184 C1190 0.949 . S
C1185 H1180 0.950 . S
C1185 C1187 1.327 . S
C1185 C1191 1.429 . S
C1186 C1178 1.574 . S
C1186 H1181 0.949 . S
C1186 C1192 1.368 1_655 S
C1187 C1171 1.349 . S
C1187 H1179 0.950 . S
C1187 C1185 1.327 . S
C1188 C1176 1.349 . S
C1188 H1182 0.950 . S
C1188 C1189 1.327 . S
C1189 H1183 0.950 . S
C1189 C1188 1.327 . S
C1189 C1193 1.429 . S
C1190 C1173 1.574 . S
C1190 H1184 0.949 . S
C1190 C1194 1.368 1_455 S
C1191 C1172 1.429 . S
C1191 C1185 1.429 . S
C1191 C1192 1.523 . S
C1192 C1173 1.368 . S
C1192 C1186 1.368 1_455 S
C1192 C1191 1.523 . S
C1193 C1177 1.429 . S
C1193 C1189 1.429 . S
C1193 C1194 1.523 . S
C1194 C1178 1.368 . S
C1194 C1190 1.368 1_655 S
C1194 C1193 1.523 . S
H1195 C1170 0.950 . S
H1196 C1172 0.950 . S
H1197 C1173 0.949 . S
H1198 C1175 0.950 . S
H1199 C1177 0.950 . S
C1200 C1201 1.349 . S
C1200 C1202 1.327 . S
C1200 H1225 0.950 . S
C1201 C1200 1.349 . S
C1201 C1217 1.349 . S
C1202 C1200 1.327 . S
C1202 C1221 1.429 . S
C1202 H1226 0.950 . S
C1203 C1220 1.574 . S
C1203 C1222 1.368 . S
C1203 H1227 0.949 . S
H1204 C1208 0.949 . S
C1205 C1206 1.349 . S
C1205 C1207 1.327 . S
C1205 H1228 0.950 . S
C1206 C1205 1.349 . S
C1206 C1218 1.349 . S
C1207 C1205 1.327 . S
C1207 C1223 1.429 . S
C1207 H1229 0.950 . S
C1208 H1204 0.949 . S
C1208 C1216 1.574 . S
C1208 C1224 1.368 . S
H1209 C1217 0.950 . S
H1210 C1215 0.950 . S
H1211 C1216 0.949 . S
H1212 C1218 0.950 . S
H1213 C1219 0.950 . S
H1214 C1220 0.949 . S
C1215 H1210 0.950 . S
C1215 C1217 1.327 . S
C1215 C1221 1.429 . S
C1216 C1208 1.574 . S
C1216 H1211 0.949 . S
C1216 C1222 1.368 . S
C1217 C1201 1.349 . S
C1217 H1209 0.950 . S
C1217 C1215 1.327 . S
C1218 C1206 1.349 . S
C1218 H1212 0.950 . S
C1218 C1219 1.327 . S
C1219 H1213 0.950 . S
C1219 C1218 1.327 . S
C1219 C1223 1.429 . S
C1220 C1203 1.574 . S
C1220 H1214 0.949 . S
C1220 C1224 1.368 . S
C1221 C1202 1.429 . S
C1221 C1215 1.429 . S
C1221 C1222 1.523 . S
C1222 C1203 1.368 . S
C1222 C1216 1.368 . S
C1222 C1221 1.523 . S
C1223 C1207 1.429 . S
C1223 C1219 1.429 . S
C1223 C1224 1.523 . S
C1224 C1208 1.368 . S
C1224 C1220 1.368 . S
C1224 C1223 1.523 . S
H1225 C1200 0.950 . S
H1226 C1202 0.950 . S
H1227 C1203 0.949 . S
H1228 C1205 0.950 . S
H1229 C1207 0.950 . S
C1230 C1231 1.349 . S
C1230 C1232 1.327 . S
C1230 H1255 0.950 . S
C1231 C1230 1.349 . S
C1231 C1247 1.349 . S
C1232 C1230 1.327 . S
C1232 C1251 1.429 . S
C1232 H1256 0.950 . S
C1233 C1250 1.574 . S
C1233 C1252 1.368 . S
C1233 H1257 0.949 . S
H1234 C1238 0.949 . S
C1235 C1236 1.349 . S
C1235 C1237 1.327 . S
C1235 H1258 0.950 . S
C1236 C1235 1.349 . S
C1236 C1248 1.349 . S
C1237 C1235 1.327 . S
C1237 C1253 1.429 . S
C1237 H1259 0.950 . S
C1238 H1234 0.949 . S
C1238 C1246 1.574 . S
C1238 C1254 1.368 . S
H1239 C1247 0.950 . S
H1240 C1245 0.950 . S
H1241 C1246 0.949 . S
H1242 C1248 0.950 . S
H1243 C1249 0.950 . S
H1244 C1250 0.949 . S
C1245 H1240 0.950 . S
C1245 C1247 1.327 . S
C1245 C1251 1.429 . S
C1246 C1238 1.574 . S
C1246 H1241 0.949 . S
C1246 C1252 1.368 . S
C1247 C1231 1.349 . S
C1247 H1239 0.950 . S
C1247 C1245 1.327 . S
C1248 C1236 1.349 . S
C1248 H1242 0.950 . S
C1248 C1249 1.327 . S
C1249 H1243 0.950 . S
C1249 C1248 1.327 . S
C1249 C1253 1.429 . S
C1250 C1233 1.574 . S
C1250 H1244 0.949 . S
C1250 C1254 1.368 . S
C1251 C1232 1.429 . S
C1251 C1245 1.429 . S
C1251 C1252 1.523 . S
C1252 C1233 1.368 . S
C1252 C1246 1.368 . S
C1252 C1251 1.523 . S
C1253 C1237 1.429 . S
C1253 C1249 1.429 . S
C1253 C1254 1.523 . S
C1254 C1238 1.368 . S
C1254 C1250 1.368 . S
C1254 C1253 1.523 . S
H1255 C1230 0.950 . S
H1256 C1232 0.950 . S
H1257 C1233 0.949 . S
H1258 C1235 0.950 . S
H1259 C1237 0.950 . S
C1260 C1261 1.349 . S
C1260 C1262 1.327 . S
C1260 H1285 0.950 . S
C1261 C1260 1.349 . S
C1261 C1277 1.349 . S
C1262 C1260 1.327 . S
C1262 C1281 1.429 . S
C1262 H1286 0.950 . S
C1263 C1280 1.574 . S
C1263 C1282 1.368 . S
C1263 H1287 0.949 . S
H1264 C1268 0.949 . S
C1265 C1266 1.349 . S
C1265 C1267 1.327 . S
C1265 H1288 0.950 . S
C1266 C1265 1.349 . S
C1266 C1278 1.349 . S
C1267 C1265 1.327 . S
C1267 C1283 1.429 . S
C1267 H1289 0.950 . S
C1268 H1264 0.949 . S
C1268 C1276 1.574 . S
C1268 C1284 1.368 . S
H1269 C1277 0.950 . S
H1270 C1275 0.950 . S
H1271 C1276 0.949 . S
H1272 C1278 0.950 . S
H1273 C1279 0.950 . S
H1274 C1280 0.949 . S
C1275 H1270 0.950 . S
C1275 C1277 1.327 . S
C1275 C1281 1.429 . S
C1276 C1268 1.574 . S
C1276 H1271 0.949 . S
C1276 C1282 1.368 . S
C1277 C1261 1.349 . S
C1277 H1269 0.950 . S
C1277 C1275 1.327 . S
C1278 C1266 1.349 . S
C1278 H1272 0.950 . S
C1278 C1279 1.327 . S
C1279 H1273 0.950 . S
C1279 C1278 1.327 . S
C1279 C1283 1.429 . S
C1280 C1263 1.574 . S
C1280 H1274 0.949 . S
C1280 C1284 1.368 . S
C1281 C1262 1.429 . S
C1281 C1275 1.429 . S
C1281 C1282 1.523 . S
C1282 C1263 1.368 . S
C1282 C1276 1.368 . S
C1282 C1281 1.523 . S
C1283 C1267 1.429 . S
C1283 C1279 1.429 . S
C1283 C1284 1.523 . S
C1284 C1268 1.368 . S
C1284 C1280 1.368 . S
C1284 C1283 1.523 . S
H1285 C1260 0.950 . S
H1286 C1262 0.950 . S
H1287 C1263 0.949 . S
H1288 C1265 0.950 . S
H1289 C1267 0.950 . S
C1290 C1291 1.349 . S
C1290 C1292 1.327 . S
C1290 H1315 0.950 . S
C1291 C1290 1.349 . S
C1291 C1307 1.349 . S
C1292 C1290 1.327 . S
C1292 C1311 1.429 . S
C1292 H1316 0.950 . S
C1293 C1310 1.574 . S
C1293 C1312 1.368 . S
C1293 H1317 0.949 . S
H1294 C1298 0.949 . S
C1295 C1296 1.349 . S
C1295 C1297 1.327 . S
C1295 H1318 0.950 . S
C1296 C1295 1.349 . S
C1296 C1308 1.349 . S
C1297 C1295 1.327 . S
C1297 C1313 1.429 . S
C1297 H1319 0.950 . S
C1298 H1294 0.949 . S
C1298 C1306 1.574 . S
C1298 C1314 1.368 . S
H1299 C1307 0.950 . S
H1300 C1305 0.950 . S
H1301 C1306 0.949 . S
H1302 C1308 0.950 . S
H1303 C1309 0.950 . S
H1304 C1310 0.949 . S
C1305 H1300 0.950 . S
C1305 C1307 1.327 . S
C1305 C1311 1.429 . S
C1306 C1298 1.574 . S
C1306 H1301 0.949 . S
C1306 C1312 1.368 . S
C1307 C1291 1.349 . S
C1307 H1299 0.950 . S
C1307 C1305 1.327 . S
C1308 C1296 1.349 . S
C1308 H1302 0.950 . S
C1308 C1309 1.327 . S
C1309 H1303 0.950 . S
C1309 C1308 1.327 . S
C1309 C1313 1.429 . S
C1310 C1293 1.574 . S
C1310 H1304 0.949 . S
C1310 C1314 1.368 . S
C1311 C1292 1.429 . S
C1311 C1305 1.429 . S
C1311 C1312 1.523 . S
C1312 C1293 1.368 . S
C1312 C1306 1.368 . S
C1312 C1311 1.523 . S
C1313 C1297 1.429 . S
C1313 C1309 1.429 . S
C1313 C1314 1.523 . S
C1314 C1298 1.368 . S
C1314 C1310 1.368 . S
C1314 C1313 1.523 . S
H1315 C1290 0.950 . S
H1316 C1292 0.950 . S
H1317 C1293 0.949 . S
H1318 C1295 0.950 . S
H1319 C1297 0.950 . S
C1320 C1321 1.349 . S
C1320 C1322 1.327 . S
C1320 H1345 0.950 . S
C1321 C1320 1.349 . S
C1321 C1337 1.349 . S
C1322 C1320 1.327 . S
C1322 C1341 1.429 . S
C1322 H1346 0.950 . S
C1323 C1340 1.574 . S
C1323 C1342 1.368 . S
C1323 H1347 0.949 . S
H1324 C1328 0.949 . S
C1325 C1326 1.349 . S
C1325 C1327 1.327 . S
C1325 H1348 0.950 . S
C1326 C1325 1.349 . S
C1326 C1338 1.349 . S
C1327 C1325 1.327 . S
C1327 C1343 1.429 . S
C1327 H1349 0.950 . S
C1328 H1324 0.949 . S
C1328 C1336 1.574 . S
C1328 C1344 1.368 . S
H1329 C1337 0.950 . S
H1330 C1335 0.950 . S
H1331 C1336 0.949 . S
H1332 C1338 0.950 . S
H1333 C1339 0.950 . S
H1334 C1340 0.949 . S
C1335 H1330 0.950 . S
C1335 C1337 1.327 . S
C1335 C1341 1.429 . S
C1336 C1328 1.574 . S
C1336 H1331 0.949 . S
C1336 C1342 1.368 . S
C1337 C1321 1.349 . S
C1337 H1329 0.950 . S
C1337 C1335 1.327 . S
C1338 C1326 1.349 . S
C1338 H1332 0.950 . S
C1338 C1339 1.327 . S
C1339 H1333 0.950 . S
C1339 C1338 1.327 . S
C1339 C1343 1.429 . S
C1340 C1323 1.574 . S
C1340 H1334 0.949 . S
C1340 C1344 1.368 . S
C1341 C1322 1.429 . S
C1341 C1335 1.429 . S
C1341 C1342 1.523 . S
C1342 C1323 1.368 . S
C1342 C1336 1.368 . S
C1342 C1341 1.523 . S
C1343 C1327 1.429 . S
C1343 C1339 1.429 . S
C1343 C1344 1.523 . S
C1344 C1328 1.368 . S
C1344 C1340 1.368 . S
C1344 C1343 1.523 . S
H1345 C1320 0.950 . S
H1346 C1322 0.950 . S
H1347 C1323 0.949 . S
H1348 C1325 0.950 . S
H1349 C1327 0.950 . S
C1350 C1351 1.349 . S
C1350 C1352 1.327 . S
C1350 H1375 0.950 . S
C1351 C1350 1.349 . S
C1351 C1367 1.349 . S
C1352 C1350 1.327 . S
C1352 C1371 1.429 . S
C1352 H1376 0.950 . S
C1353 C1370 1.574 . S
C1353 C1372 1.368 . S
C1353 H1377 0.949 . S
H1354 C1358 0.949 . S
C1355 C1356 1.349 . S
C1355 C1357 1.327 . S
C1355 H1378 0.950 . S
C1356 C1355 1.349 . S
C1356 C1368 1.349 . S
C1357 C1355 1.327 . S
C1357 C1373 1.429 . S
C1357 H1379 0.950 . S
C1358 H1354 0.949 . S
C1358 C1366 1.574 . S
C1358 C1374 1.368 . S
H1359 C1367 0.950 . S
H1360 C1365 0.950 . S
H1361 C1366 0.949 . S
H1362 C1368 0.950 . S
H1363 C1369 0.950 . S
H1364 C1370 0.949 . S
C1365 H1360 0.950 . S
C1365 C1367 1.327 . S
C1365 C1371 1.429 . S
C1366 C1358 1.574 . S
C1366 H1361 0.949 . S
C1366 C1372 1.368 . S
C1367 C1351 1.349 . S
C1367 H1359 0.950 . S
C1367 C1365 1.327 . S
C1368 C1356 1.349 . S
C1368 H1362 0.950 . S
C1368 C1369 1.327 . S
C1369 H1363 0.950 . S
C1369 C1368 1.327 . S
C1369 C1373 1.429 . S
C1370 C1353 1.574 . S
C1370 H1364 0.949 . S
C1370 C1374 1.368 . S
C1371 C1352 1.429 . S
C1371 C1365 1.429 . S
C1371 C1372 1.523 . S
C1372 C1353 1.368 . S
C1372 C1366 1.368 . S
C1372 C1371 1.523 . S
C1373 C1357 1.429 . S
C1373 C1369 1.429 . S
C1373 C1374 1.523 . S
C1374 C1358 1.368 . S
C1374 C1370 1.368 . S
C1374 C1373 1.523 . S
H1375 C1350 0.950 . S
H1376 C1352 0.950 . S
H1377 C1353 0.949 . S
H1378 C1355 0.950 . S
H1379 C1357 0.950 . S
C1380 C1381 1.349 . S
C1380 C1382 1.327 . S
C1380 H1405 0.950 . S
C1381 C1380 1.349 . S
C1381 C1397 1.349 . S
C1382 C1380 1.327 . S
C1382 C1401 1.429 . S
C1382 H1406 0.950 . S
C1383 C1400 1.574 . S
C1383 C1402 1.368 . S
C1383 H1407 0.949 . S
H1384 C1388 0.949 . S
C1385 C1386 1.349 . S
C1385 C1387 1.327 . S
C1385 H1408 0.950 . S
C1386 C1385 1.349 . S
C1386 C1398 1.349 . S
C1387 C1385 1.327 . S
C1387 C1403 1.429 . S
C1387 H1409 0.950 . S
C1388 H1384 0.949 . S
C1388 C1396 1.574 . S
C1388 C1404 1.368 . S
H1389 C1397 0.950 . S
H1390 C1395 0.950 . S
H1391 C1396 0.949 . S
H1392 C1398 0.950 . S
H1393 C1399 0.950 . S
H1394 C1400 0.949 . S
C1395 H1390 0.950 . S
C1395 C1397 1.327 . S
C1395 C1401 1.429 . S
C1396 C1388 1.574 . S
C1396 H1391 0.949 . S
C1396 C1402 1.368 . S
C1397 C1381 1.349 . S
C1397 H1389 0.950 . S
C1397 C1395 1.327 . S
C1398 C1386 1.349 . S
C1398 H1392 0.950 . S
C1398 C1399 1.327 . S
C1399 H1393 0.950 . S
C1399 C1398 1.327 . S
C1399 C1403 1.429 . S
C1400 C1383 1.574 . S
C1400 H1394 0.949 . S
C1400 C1404 1.368 . S
C1401 C1382 1.429 . S
C1401 C1395 1.429 . S
C1401 C1402 1.523 . S
C1402 C1383 1.368 . S
C1402 C1396 1.368 . S
C1402 C1401 1.523 . S
C1403 C1387 1.429 . S
C1403 C1399 1.429 . S
C1403 C1404 1.523 . S
C1404 C1388 1.368 . S
C1404 C1400 1.368 . S
C1404 C1403 1.523 . S
H1405 C1380 0.950 . S
H1406 C1382 0.950 . S
H1407 C1383 0.949 . S
H1408 C1385 0.950 . S
H1409 C1387 0.950 . S
C1410 C1411 1.349 . S
C1410 C1412 1.327 . S
C1410 H1435 0.950 . S
C1411 C1410 1.349 . S
C1411 C1427 1.349 . S
C1412 C1410 1.327 . S
C1412 C1431 1.429 . S
C1412 H1436 0.950 . S
C1413 C1430 1.574 . S
C1413 C1432 1.368 . S
C1413 H1437 0.949 . S
H1414 C1418 0.949 . S
C1415 C1416 1.349 . S
C1415 C1417 1.327 . S
C1415 H1438 0.950 . S
C1416 C1415 1.349 . S
C1416 C1428 1.349 . S
C1417 C1415 1.327 . S
C1417 C1433 1.429 . S
C1417 H1439 0.950 . S
C1418 H1414 0.949 . S
C1418 C1426 1.574 . S
C1418 C1434 1.368 . S
H1419 C1427 0.950 . S
H1420 C1425 0.950 . S
H1421 C1426 0.949 . S
H1422 C1428 0.950 . S
H1423 C1429 0.950 . S
H1424 C1430 0.949 . S
C1425 H1420 0.950 . S
C1425 C1427 1.327 . S
C1425 C1431 1.429 . S
C1426 C1418 1.574 . S
C1426 H1421 0.949 . S
C1426 C1432 1.368 . S
C1427 C1411 1.349 . S
C1427 H1419 0.950 . S
C1427 C1425 1.327 . S
C1428 C1416 1.349 . S
C1428 H1422 0.950 . S
C1428 C1429 1.327 . S
C1429 H1423 0.950 . S
C1429 C1428 1.327 . S
C1429 C1433 1.429 . S
C1430 C1413 1.574 . S
C1430 H1424 0.949 . S
C1430 C1434 1.368 . S
C1431 C1412 1.429 . S
C1431 C1425 1.429 . S
C1431 C1432 1.523 . S
C1432 C1413 1.368 . S
C1432 C1426 1.368 . S
C1432 C1431 1.523 . S
C1433 C1417 1.429 . S
C1433 C1429 1.429 . S
C1433 C1434 1.523 . S
C1434 C1418 1.368 . S
C1434 C1430 1.368 . S
C1434 C1433 1.523 . S
H1435 C1410 0.950 . S
H1436 C1412 0.950 . S
H1437 C1413 0.949 . S
H1438 C1415 0.950 . S
H1439 C1417 0.950 . S
C1440 C1441 1.349 . S
C1440 C1442 1.327 . S
C1440 H1465 0.950 . S
C1441 C1440 1.349 . S
C1441 C1457 1.349 . S
C1442 C1440 1.327 . S
C1442 C1461 1.429 . S
C1442 H1466 0.950 . S
C1443 C1460 1.574 . S
C1443 C1462 1.368 . S
C1443 H1467 0.949 . S
H1444 C1448 0.949 . S
C1445 C1446 1.349 . S
C1445 C1447 1.327 . S
C1445 H1468 0.950 . S
C1446 C1445 1.349 . S
C1446 C1458 1.349 . S
C1447 C1445 1.327 . S
C1447 C1463 1.429 . S
C1447 H1469 0.950 . S
C1448 H1444 0.949 . S
C1448 C1456 1.574 . S
C1448 C1464 1.368 . S
H1449 C1457 0.950 . S
H1450 C1455 0.950 . S
H1451 C1456 0.949 . S
H1452 C1458 0.950 . S
H1453 C1459 0.950 . S
H1454 C1460 0.949 . S
C1455 H1450 0.950 . S
C1455 C1457 1.327 . S
C1455 C1461 1.429 . S
C1456 C1448 1.574 . S
C1456 H1451 0.949 . S
C1456 C1462 1.368 . S
C1457 C1441 1.349 . S
C1457 H1449 0.950 . S
C1457 C1455 1.327 . S
C1458 C1446 1.349 . S
C1458 H1452 0.950 . S
C1458 C1459 1.327 . S
C1459 H1453 0.950 . S
C1459 C1458 1.327 . S
C1459 C1463 1.429 . S
C1460 C1443 1.574 . S
C1460 H1454 0.949 . S
C1460 C1464 1.368 . S
C1461 C1442 1.429 . S
C1461 C1455 1.429 . S
C1461 C1462 1.523 . S
C1462 C1443 1.368 . S
C1462 C1456 1.368 . S
C1462 C1461 1.523 . S
C1463 C1447 1.429 . S
C1463 C1459 1.429 . S
C1463 C1464 1.523 . S
C1464 C1448 1.368 . S
C1464 C1460 1.368 . S
C1464 C1463 1.523 . S
H1465 C1440 0.950 . S
H1466 C1442 0.950 . S
H1467 C1443 0.949 . S
H1468 C1445 0.950 . S
H1469 C1447 0.950 . S
C1470 C1471 1.349 . S
C1470 C1472 1.327 . S
C1470 H1495 0.950 . S
C1471 C1470 1.349 . S
C1471 C1487 1.349 . S
C1472 C1470 1.327 . S
C1472 C1491 1.429 . S
C1472 H1496 0.950 . S
C1473 C1490 1.574 . S
C1473 C1492 1.368 . S
C1473 H1497 0.949 . S
H1474 C1478 0.949 . S
C1475 C1476 1.349 . S
C1475 C1477 1.327 . S
C1475 H1498 0.950 . S
C1476 C1475 1.349 . S
C1476 C1488 1.349 . S
C1477 C1475 1.327 . S
C1477 C1493 1.429 . S
C1477 H1499 0.950 . S
C1478 H1474 0.949 . S
C1478 C1486 1.574 . S
C1478 C1494 1.368 . S
H1479 C1487 0.950 . S
H1480 C1485 0.950 . S
H1481 C1486 0.949 . S
H1482 C1488 0.950 . S
H1483 C1489 0.950 . S
H1484 C1490 0.949 . S
C1485 H1480 0.950 . S
C1485 C1487 1.327 . S
C1485 C1491 1.429 . S
C1486 C1478 1.574 . S
C1486 H1481 0.949 . S
C1486 C1492 1.368 . S
C1487 C1471 1.349 . S
C1487 H1479 0.950 . S
C1487 C1485 1.327 . S
C1488 C1476 1.349 . S
C1488 H1482 0.950 . S
C1488 C1489 1.327 . S
C1489 H1483 0.950 . S
C1489 C1488 1.327 . S
C1489 C1493 1.429 . S
C1490 C1473 1.574 . S
C1490 H1484 0.949 . S
C1490 C1494 1.368 . S
C1491 C1472 1.429 . S
C1491 C1485 1.429 . S
C1491 C1492 1.523 . S
C1492 C1473 1.368 . S
C1492 C1486 1.368 . S
C1492 C1491 1.523 . S
C1493 C1477 1.429 . S
C1493 C1489 1.429 . S
C1493 C1494 1.523 . S
C1494 C1478 1.368 . S
C1494 C1490 1.368 . S
C1494 C1493 1.523 . S
H1495 C1470 0.950 . S
H1496 C1472 0.950 . S
H1497 C1473 0.949 . S
H1498 C1475 0.950 . S
H1499 C1477 0.950 . S
C1500 C1501 1.349 . S
C1500 C1502 1.327 . S
C1500 H1525 0.950 . S
C1501 C1500 1.349 . S
C1501 C1517 1.349 . S
C1502 C1500 1.327 . S
C1502 C1521 1.429 . S
C1502 H1526 0.950 . S
C1503 C1520 1.574 . S
C1503 C1522 1.368 . S
C1503 H1527 0.949 . S
H1504 C1508 0.949 . S
C1505 C1506 1.349 . S
C1505 C1507 1.327 . S
C1505 H1528 0.950 . S
C1506 C1505 1.349 . S
C1506 C1518 1.349 . S
C1507 C1505 1.327 . S
C1507 C1523 1.429 . S
C1507 H1529 0.950 . S
C1508 H1504 0.949 . S
C1508 C1516 1.574 . S
C1508 C1524 1.368 . S
H1509 C1517 0.950 . S
H1510 C1515 0.950 . S
H1511 C1516 0.949 . S
H1512 C1518 0.950 . S
H1513 C1519 0.950 . S
H1514 C1520 0.949 . S
C1515 H1510 0.950 . S
C1515 C1517 1.327 . S
C1515 C1521 1.429 . S
C1516 C1508 1.574 . S
C1516 H1511 0.949 . S
C1516 C1522 1.368 . S
C1517 C1501 1.349 . S
C1517 H1509 0.950 . S
C1517 C1515 1.327 . S
C1518 C1506 1.349 . S
C1518 H1512 0.950 . S
C1518 C1519 1.327 . S
C1519 H1513 0.950 . S
C1519 C1518 1.327 . S
C1519 C1523 1.429 . S
C1520 C1503 1.574 . S
C1520 H1514 0.949 . S
C1520 C1524 1.368 . S
C1521 C1502 1.429 . S
C1521 C1515 1.429 . S
C1521 C1522 1.523 . S
C1522 C1503 1.368 . S
C1522 C1516 1.368 . S
C1522 C1521 1.523 . S
C1523 C1507 1.429 . S
C1523 C1519 1.429 . S
C1523 C1524 1.523 . S
C1524 C1508 1.368 . S
C1524 C1520 1.368 . S
C1524 C1523 1.523 . S
H1525 C1500 0.950 . S
H1526 C1502 0.950 . S
H1527 C1503 0.949 . S
H1528 C1505 0.950 . S
H1529 C1507 0.950 . S
C1530 C1531 1.349 . S
C1530 C1532 1.327 . S
C1530 H1555 0.950 . S
C1531 C1530 1.349 . S
C1531 C1547 1.349 . S
C1532 C1530 1.327 . S
C1532 C1551 1.429 . S
C1532 H1556 0.950 . S
C1533 C1550 1.574 . S
C1533 C1552 1.368 . S
C1533 H1557 0.949 . S
H1534 C1538 0.949 . S
C1535 C1536 1.349 . S
C1535 C1537 1.327 . S
C1535 H1558 0.950 . S
C1536 C1535 1.349 . S
C1536 C1548 1.349 . S
C1537 C1535 1.327 . S
C1537 C1553 1.429 . S
C1537 H1559 0.950 . S
C1538 H1534 0.949 . S
C1538 C1546 1.574 . S
C1538 C1554 1.368 . S
H1539 C1547 0.950 . S
H1540 C1545 0.950 . S
H1541 C1546 0.949 . S
H1542 C1548 0.950 . S
H1543 C1549 0.950 . S
H1544 C1550 0.949 . S
C1545 H1540 0.950 . S
C1545 C1547 1.327 . S
C1545 C1551 1.429 . S
C1546 C1538 1.574 . S
C1546 H1541 0.949 . S
C1546 C1552 1.368 . S
C1547 C1531 1.349 . S
C1547 H1539 0.950 . S
C1547 C1545 1.327 . S
C1548 C1536 1.349 . S
C1548 H1542 0.950 . S
C1548 C1549 1.327 . S
C1549 H1543 0.950 . S
C1549 C1548 1.327 . S
C1549 C1553 1.429 . S
C1550 C1533 1.574 . S
C1550 H1544 0.949 . S
C1550 C1554 1.368 . S
C1551 C1532 1.429 . S
C1551 C1545 1.429 . S
C1551 C1552 1.523 . S
C1552 C1533 1.368 . S
C1552 C1546 1.368 . S
C1552 C1551 1.523 . S
C1553 C1537 1.429 . S
C1553 C1549 1.429 . S
C1553 C1554 1.523 . S
C1554 C1538 1.368 . S
C1554 C1550 1.368 . S
C1554 C1553 1.523 . S
H1555 C1530 0.950 . S
H1556 C1532 0.950 . S
H1557 C1533 0.949 . S
H1558 C1535 0.950 . S
H1559 C1537 0.950 . S
C481 C95 1.224 . S
C486 C19 1.194 . S
C511 C126 1.224 . S
C516 C50 1.194 . S
C541 C99 1.194 . S
C546 C175 1.224 . S
C571 C130 1.194 . S
C576 C206 1.224 . S
C601 C15 1.224 . S
C606 C179 1.194 . S
C631 C46 1.224 . S
C636 C210 1.194 . S
C661 C406 1.224 . S
C666 C250 1.194 . S
C691 C299 1.194 . S
C696 C455 1.224 . S
C721 C330 1.194 . S
C726 C246 1.224 . S
C751 C379 1.194 . S
C756 C295 1.224 . S
C781 C410 1.194 . S
C786 C326 1.224 . S
C811 C375 1.224 . S
C816 C459 1.194 . S
C841 C129 1.730 . S
C846 C18 1.730 . S
C871 C49 1.730 . S
C876 C178 1.730 . S
C901 C98 1.730 . S
C906 C209 1.730 . S
C931 C249 1.730 . S
C936 C378 1.730 . S
C961 C298 1.730 . S
C966 C409 1.730 . S
C991 C329 1.730 . S
C996 C458 1.730 . S
C1021 C289 2.289 . S
C1026 C9 2.289 . S
C1051 C58 2.289 . S
C1056 C338 2.289 . S
C1081 C369 2.289 . S
C1086 C89 2.289 . S
C1111 C138 2.289 . S
C1116 C418 2.289 . S
C1141 C169 2.289 . S
C1146 C449 2.289 . S
C1171 C258 2.289 . S
C1176 C218 2.289 . S
C1201 C86 1.749 . S
C1206 C10 1.757 . S
C1231 C59 1.757 . S
C1236 C135 1.750 . S
C1261 C90 1.757 . S
C1266 C166 1.749 . S
C1291 C139 1.757 . S
C1296 C215 1.749 . S
C1321 C6 1.750 . S
C1326 C170 1.757 . S
C1351 C55 1.749 . S
C1356 C219 1.757 . S
C1381 C415 1.749 . S
C1386 C259 1.757 . S
C1411 C290 1.757 . S
C1416 C446 1.749 . S
C1441 C339 1.757 . S
C1446 C255 1.750 . S
C1471 C286 1.749 . S
C1476 C370 1.757 . S
C1501 C419 1.757 . S
C1506 C335 1.749 . S
C1531 C450 1.757 . S
C1536 C366 1.750 . S
