# Generated by pormake.
# Topology yfs, (5)-cn, num edge types: 1
# Building blocks:
#     Node 0, Type 0, BuildingBlock: XOMCOT_clean_sbu_1, # of connection points: 5
#     Node 1, Type 0, BuildingBlock: XOMCOT_clean_sbu_1, # of connection points: 5
#     Node 2, Type 0, BuildingBlock: XOMCOT_clean_sbu_1, # of connection points: 5
#     Node 3, Type 0, BuildingBlock: XOMCOT_clean_sbu_1, # of connection points: 5
#     Node 4, Type 0, BuildingBlock: XOMCOT_clean_sbu_1, # of connection points: 5
#     Node 5, Type 0, BuildingBlock: XOMCOT_clean_sbu_1, # of connection points: 5
#     Node 6, Type 0, BuildingBlock: XOMCOT_clean_sbu_1, # of connection points: 5
#     Node 7, Type 0, BuildingBlock: XOMCOT_clean_sbu_1, # of connection points: 5
#     Node 8, Type 0, BuildingBlock: XOMCOT_clean_sbu_1, # of connection points: 5
#     Node 9, Type 0, BuildingBlock: XOMCOT_clean_sbu_1, # of connection points: 5
#     Node 10, Type 0, BuildingBlock: XOMCOT_clean_sbu_1, # of connection points: 5
#     Node 11, Type 0, BuildingBlock: XOMCOT_clean_sbu_1, # of connection points: 5
#     Node 12, Type 0, BuildingBlock: XOMCOT_clean_sbu_1, # of connection points: 5
#     Node 13, Type 0, BuildingBlock: XOMCOT_clean_sbu_1, # of connection points: 5
#     Node 14, Type 0, BuildingBlock: XOMCOT_clean_sbu_1, # of connection points: 5
#     Node 15, Type 0, BuildingBlock: XOMCOT_clean_sbu_1, # of connection points: 5
#     Node 16, Type 0, BuildingBlock: XOMCOT_clean_sbu_1, # of connection points: 5
#     Node 17, Type 0, BuildingBlock: XOMCOT_clean_sbu_1, # of connection points: 5
#     Node 18, Type 0, BuildingBlock: XOMCOT_clean_sbu_1, # of connection points: 5
#     Node 19, Type 0, BuildingBlock: XOMCOT_clean_sbu_1, # of connection points: 5
#     Node 20, Type 0, BuildingBlock: XOMCOT_clean_sbu_1, # of connection points: 5
#     Node 21, Type 0, BuildingBlock: XOMCOT_clean_sbu_1, # of connection points: 5
#     Node 22, Type 0, BuildingBlock: XOMCOT_clean_sbu_1, # of connection points: 5
#     Node 23, Type 0, BuildingBlock: XOMCOT_clean_sbu_1, # of connection points: 5
#     Node 24, Type 0, BuildingBlock: XOMCOT_clean_sbu_1, # of connection points: 5
#     Node 25, Type 0, BuildingBlock: XOMCOT_clean_sbu_1, # of connection points: 5
#     Node 26, Type 0, BuildingBlock: XOMCOT_clean_sbu_1, # of connection points: 5
#     Node 27, Type 0, BuildingBlock: XOMCOT_clean_sbu_1, # of connection points: 5
#     Node 28, Type 0, BuildingBlock: XOMCOT_clean_sbu_1, # of connection points: 5
#     Node 29, Type 0, BuildingBlock: XOMCOT_clean_sbu_1, # of connection points: 5
#     Node 30, Type 0, BuildingBlock: XOMCOT_clean_sbu_1, # of connection points: 5
#     Node 31, Type 0, BuildingBlock: XOMCOT_clean_sbu_1, # of connection points: 5
#     Edge 32, Type (0, 0), BuildingBlock: UVAHIK_clean_linker_0, # of connection points: 2
#     Edge 33, Type (0, 0), BuildingBlock: UVAHIK_clean_linker_0, # of connection points: 2
#     Edge 34, Type (0, 0), BuildingBlock: UVAHIK_clean_linker_0, # of connection points: 2
#     Edge 35, Type (0, 0), BuildingBlock: UVAHIK_clean_linker_0, # of connection points: 2
#     Edge 36, Type (0, 0), BuildingBlock: UVAHIK_clean_linker_0, # of connection points: 2
#     Edge 37, Type (0, 0), BuildingBlock: UVAHIK_clean_linker_0, # of connection points: 2
#     Edge 38, Type (0, 0), BuildingBlock: UVAHIK_clean_linker_0, # of connection points: 2
#     Edge 39, Type (0, 0), BuildingBlock: UVAHIK_clean_linker_0, # of connection points: 2
#     Edge 40, Type (0, 0), BuildingBlock: UVAHIK_clean_linker_0, # of connection points: 2
#     Edge 41, Type (0, 0), BuildingBlock: UVAHIK_clean_linker_0, # of connection points: 2
#     Edge 42, Type (0, 0), BuildingBlock: UVAHIK_clean_linker_0, # of connection points: 2
#     Edge 43, Type (0, 0), BuildingBlock: UVAHIK_clean_linker_0, # of connection points: 2
#     Edge 44, Type (0, 0), BuildingBlock: UVAHIK_clean_linker_0, # of connection points: 2
#     Edge 45, Type (0, 0), BuildingBlock: UVAHIK_clean_linker_0, # of connection points: 2
#     Edge 46, Type (0, 0), BuildingBlock: UVAHIK_clean_linker_0, # of connection points: 2
#     Edge 47, Type (0, 0), BuildingBlock: UVAHIK_clean_linker_0, # of connection points: 2
#     Edge 48, Type (0, 0), BuildingBlock: UVAHIK_clean_linker_0, # of connection points: 2
#     Edge 49, Type (0, 0), BuildingBlock: UVAHIK_clean_linker_0, # of connection points: 2
#     Edge 50, Type (0, 0), BuildingBlock: UVAHIK_clean_linker_0, # of connection points: 2
#     Edge 51, Type (0, 0), BuildingBlock: UVAHIK_clean_linker_0, # of connection points: 2
#     Edge 52, Type (0, 0), BuildingBlock: UVAHIK_clean_linker_0, # of connection points: 2
#     Edge 53, Type (0, 0), BuildingBlock: UVAHIK_clean_linker_0, # of connection points: 2
#     Edge 54, Type (0, 0), BuildingBlock: UVAHIK_clean_linker_0, # of connection points: 2
#     Edge 55, Type (0, 0), BuildingBlock: UVAHIK_clean_linker_0, # of connection points: 2
#     Edge 56, Type (0, 0), BuildingBlock: UVAHIK_clean_linker_0, # of connection points: 2
#     Edge 57, Type (0, 0), BuildingBlock: UVAHIK_clean_linker_0, # of connection points: 2
#     Edge 58, Type (0, 0), BuildingBlock: UVAHIK_clean_linker_0, # of connection points: 2
#     Edge 59, Type (0, 0), BuildingBlock: UVAHIK_clean_linker_0, # of connection points: 2
#     Edge 60, Type (0, 0), BuildingBlock: UVAHIK_clean_linker_0, # of connection points: 2
#     Edge 61, Type (0, 0), BuildingBlock: UVAHIK_clean_linker_0, # of connection points: 2
#     Edge 62, Type (0, 0), BuildingBlock: UVAHIK_clean_linker_0, # of connection points: 2
#     Edge 63, Type (0, 0), BuildingBlock: UVAHIK_clean_linker_0, # of connection points: 2
#     Edge 64, Type (0, 0), BuildingBlock: UVAHIK_clean_linker_0, # of connection points: 2
#     Edge 65, Type (0, 0), BuildingBlock: UVAHIK_clean_linker_0, # of connection points: 2
#     Edge 66, Type (0, 0), BuildingBlock: UVAHIK_clean_linker_0, # of connection points: 2
#     Edge 67, Type (0, 0), BuildingBlock: UVAHIK_clean_linker_0, # of connection points: 2
#     Edge 68, Type (0, 0), BuildingBlock: UVAHIK_clean_linker_0, # of connection points: 2
#     Edge 69, Type (0, 0), BuildingBlock: UVAHIK_clean_linker_0, # of connection points: 2
#     Edge 70, Type (0, 0), BuildingBlock: UVAHIK_clean_linker_0, # of connection points: 2
#     Edge 71, Type (0, 0), BuildingBlock: UVAHIK_clean_linker_0, # of connection points: 2
#     Edge 72, Type (0, 0), BuildingBlock: UVAHIK_clean_linker_0, # of connection points: 2
#     Edge 73, Type (0, 0), BuildingBlock: UVAHIK_clean_linker_0, # of connection points: 2
#     Edge 74, Type (0, 0), BuildingBlock: UVAHIK_clean_linker_0, # of connection points: 2
#     Edge 75, Type (0, 0), BuildingBlock: UVAHIK_clean_linker_0, # of connection points: 2
#     Edge 76, Type (0, 0), BuildingBlock: UVAHIK_clean_linker_0, # of connection points: 2
#     Edge 77, Type (0, 0), BuildingBlock: UVAHIK_clean_linker_0, # of connection points: 2
#     Edge 78, Type (0, 0), BuildingBlock: UVAHIK_clean_linker_0, # of connection points: 2
#     Edge 79, Type (0, 0), BuildingBlock: UVAHIK_clean_linker_0, # of connection points: 2
#     Edge 80, Type (0, 0), BuildingBlock: UVAHIK_clean_linker_0, # of connection points: 2
#     Edge 81, Type (0, 0), BuildingBlock: UVAHIK_clean_linker_0, # of connection points: 2
#     Edge 82, Type (0, 0), BuildingBlock: UVAHIK_clean_linker_0, # of connection points: 2
#     Edge 83, Type (0, 0), BuildingBlock: UVAHIK_clean_linker_0, # of connection points: 2
#     Edge 84, Type (0, 0), BuildingBlock: UVAHIK_clean_linker_0, # of connection points: 2
#     Edge 85, Type (0, 0), BuildingBlock: UVAHIK_clean_linker_0, # of connection points: 2
#     Edge 86, Type (0, 0), BuildingBlock: UVAHIK_clean_linker_0, # of connection points: 2
#     Edge 87, Type (0, 0), BuildingBlock: UVAHIK_clean_linker_0, # of connection points: 2
#     Edge 88, Type (0, 0), BuildingBlock: UVAHIK_clean_linker_0, # of connection points: 2
#     Edge 89, Type (0, 0), BuildingBlock: UVAHIK_clean_linker_0, # of connection points: 2
#     Edge 90, Type (0, 0), BuildingBlock: UVAHIK_clean_linker_0, # of connection points: 2
#     Edge 91, Type (0, 0), BuildingBlock: UVAHIK_clean_linker_0, # of connection points: 2
#     Edge 92, Type (0, 0), BuildingBlock: UVAHIK_clean_linker_0, # of connection points: 2
#     Edge 93, Type (0, 0), BuildingBlock: UVAHIK_clean_linker_0, # of connection points: 2
#     Edge 94, Type (0, 0), BuildingBlock: UVAHIK_clean_linker_0, # of connection points: 2
#     Edge 95, Type (0, 0), BuildingBlock: UVAHIK_clean_linker_0, # of connection points: 2
#     Edge 96, Type (0, 0), BuildingBlock: UVAHIK_clean_linker_0, # of connection points: 2
#     Edge 97, Type (0, 0), BuildingBlock: UVAHIK_clean_linker_0, # of connection points: 2
#     Edge 98, Type (0, 0), BuildingBlock: UVAHIK_clean_linker_0, # of connection points: 2
#     Edge 99, Type (0, 0), BuildingBlock: UVAHIK_clean_linker_0, # of connection points: 2
#     Edge 100, Type (0, 0), BuildingBlock: UVAHIK_clean_linker_0, # of connection points: 2
#     Edge 101, Type (0, 0), BuildingBlock: UVAHIK_clean_linker_0, # of connection points: 2
#     Edge 102, Type (0, 0), BuildingBlock: UVAHIK_clean_linker_0, # of connection points: 2
#     Edge 103, Type (0, 0), BuildingBlock: UVAHIK_clean_linker_0, # of connection points: 2
#     Edge 104, Type (0, 0), BuildingBlock: UVAHIK_clean_linker_0, # of connection points: 2
#     Edge 105, Type (0, 0), BuildingBlock: UVAHIK_clean_linker_0, # of connection points: 2
#     Edge 106, Type (0, 0), BuildingBlock: UVAHIK_clean_linker_0, # of connection points: 2
#     Edge 107, Type (0, 0), BuildingBlock: UVAHIK_clean_linker_0, # of connection points: 2
#     Edge 108, Type (0, 0), BuildingBlock: UVAHIK_clean_linker_0, # of connection points: 2
#     Edge 109, Type (0, 0), BuildingBlock: UVAHIK_clean_linker_0, # of connection points: 2
#     Edge 110, Type (0, 0), BuildingBlock: UVAHIK_clean_linker_0, # of connection points: 2
#     Edge 111, Type (0, 0), BuildingBlock: UVAHIK_clean_linker_0, # of connection points: 2
# Relax obj value: 0.527
# Max RMSD: 0.267
# Mean RMSD: 0.267
data_MOF--net-yfs--node1-XOMCOT_clean_sbu_1--edge1-UVAHIK_clean_linker_0
_symmetry_space_group_name_H-M    P1
_symmetry_Int_Tables_number       1
_symmetry_cell_setting            triclinic
loop_
_symmetry_equiv_pos_as_xyz
'x, y, z'
_cell_length_a     53.478751
_cell_length_b     53.526135
_cell_length_c     107.12657
_cell_angle_alpha  89.891923
_cell_angle_beta   89.895175
_cell_angle_gamma 90.114181
loop_
_atom_site_label
_atom_site_type_symbol
_atom_site_fract_x
_atom_site_fract_y
_atom_site_fract_z
_atom_type_partial_charge
C0 C 0.40157 0.07968 0.21471 0.0
C1 C 0.42132 0.07081 0.20779 0.0
N2 N 0.41855 0.07873 0.19597 0.0
N3 N 0.38651 0.09396 0.20749 0.0
C4 C 0.39686 0.09164 0.19593 0.0
H5 H 0.39855 0.0757 0.22448 0.0
Co6 Co 0.35667 0.11088 0.21319 0.0
C7 C 0.36726 0.14067 0.19047 0.0
O8 O 0.39016 0.14315 0.19477 0.0
N9 N 0.32718 0.12647 0.2186 0.0
C10 C 0.28909 0.14278 0.21831 0.0
C11 C 0.30613 0.12872 0.2118 0.0
C12 C 0.32232 0.13883 0.22933 0.0
N13 N 0.29932 0.14933 0.22933 0.0
O14 O 0.33769 0.0812 0.20981 0.0
H15 H 0.3036 0.12122 0.20252 0.0
H16 H 0.33574 0.14064 0.23682 0.0
O17 O 0.3516 0.12674 0.19641 0.0
C18 C 0.33863 0.07177 0.22083 0.0
O19 O 0.35131 0.08362 0.2295 0.0
N20 N 0.37485 0.13852 0.21894 0.0
C21 C 0.3968 0.17621 0.23302 0.0
C22 C 0.38019 0.18215 0.22335 0.0
C23 C 0.36889 0.16296 0.21661 0.0
C24 C 0.39011 0.13266 0.22865 0.0
C25 C 0.40148 0.15111 0.23571 0.0
H26 H 0.35456 0.16774 0.20992 0.0
H27 H 0.39218 0.11364 0.23164 0.0
H28 H 0.38863 0.0987 0.18745 0.0
H29 H 0.43689 0.05998 0.21128 0.0
H30 H 0.27098 0.14861 0.21491 0.0
H31 H 0.37576 0.20136 0.22109 0.0
H32 H 0.41323 0.14567 0.24347 0.0
C33 C 0.16274 0.15167 0.46134 0.0
C34 C 0.17183 0.1713 0.45441 0.0
N35 N 0.16418 0.16841 0.44257 0.0
N36 N 0.14865 0.13647 0.45412 0.0
C37 C 0.15108 0.14676 0.44254 0.0
H38 H 0.16613 0.14901 0.47119 0.0
Co39 Co 0.13155 0.10723 0.46045 0.0
C40 C 0.10425 0.11226 0.43636 0.0
O41 O 0.09987 0.13576 0.43912 0.0
N42 N 0.11582 0.07847 0.46661 0.0
C43 C 0.10051 0.03998 0.4676 0.0
C44 C 0.11468 0.05632 0.46067 0.0
C45 C 0.10268 0.07502 0.47726 0.0
N46 N 0.0928 0.05179 0.47802 0.0
O47 O 0.16177 0.08818 0.45867 0.0
H48 H 0.12313 0.05248 0.4517 0.0
H49 H 0.09996 0.08951 0.48415 0.0
O50 O 0.11785 0.09883 0.44362 0.0
C51 C 0.17014 0.09016 0.46985 0.0
O52 O 0.15777 0.10408 0.47783 0.0
N53 N 0.10299 0.12563 0.46459 0.0
C54 C 0.06321 0.14612 0.47786 0.0
C55 C 0.05881 0.12897 0.46823 0.0
C56 C 0.079 0.11843 0.46193 0.0
C57 C 0.1074 0.14217 0.47396 0.0
C58 C 0.0879 0.15269 0.48066 0.0
H59 H 0.07535 0.10324 0.45557 0.0
H60 H 0.12611 0.1456 0.47715 0.0
H61 H 0.14415 0.1385 0.43406 0.0
H62 H 0.18255 0.18695 0.45792 0.0
H63 H 0.09546 0.02118 0.46488 0.0
H64 H 0.04004 0.12317 0.46581 0.0
H65 H 0.09233 0.16496 0.48837 0.0
C66 C 0.09353 0.90596 0.71535 0.0
C67 C 0.07275 0.91301 0.70873 0.0
N68 N 0.07668 0.9077 0.69665 0.0
N69 N 0.11043 0.89513 0.70768 0.0
C70 C 0.10003 0.89805 0.69616 0.0
H71 H 0.09595 0.90884 0.72524 0.0
Co72 Co 0.14113 0.88028 0.71351 0.0
C73 C 0.13534 0.8527 0.68949 0.0
O74 O 0.11202 0.84781 0.69254 0.0
N75 N 0.17121 0.8665 0.71931 0.0
C76 C 0.21035 0.85277 0.71994 0.0
C77 C 0.19337 0.86676 0.7133 0.0
C78 C 0.17529 0.85269 0.72969 0.0
N79 N 0.19886 0.8437 0.7302 0.0
O80 O 0.15802 0.91152 0.71064 0.0
H81 H 0.19672 0.87582 0.70441 0.0
H82 H 0.16099 0.84867 0.73656 0.0
O83 O 0.14895 0.86626 0.69667 0.0
C84 C 0.15649 0.92124 0.72154 0.0
O85 O 0.14495 0.90871 0.7304 0.0
N86 N 0.12467 0.85098 0.71845 0.0
C87 C 0.10455 0.81073 0.73156 0.0
C88 C 0.12046 0.80669 0.72134 0.0
C89 C 0.13097 0.82712 0.71514 0.0
C90 C 0.11033 0.85496 0.72876 0.0
C91 C 0.09994 0.83525 0.73537 0.0
H92 H 0.14511 0.82364 0.70819 0.0
H93 H 0.10855 0.87339 0.73258 0.0
H94 H 0.10905 0.893 0.68751 0.0
H95 H 0.05598 0.92138 0.71253 0.0
H96 H 0.22931 0.84862 0.71708 0.0
H97 H 0.12501 0.78801 0.71823 0.0
H98 H 0.089 0.83926 0.74364 0.0
C99 C 0.31837 0.86501 0.95295 0.0
C100 C 0.31294 0.84473 0.94562 0.0
N101 N 0.33373 0.83814 0.93933 0.0
N102 N 0.34253 0.87162 0.95134 0.0
C103 C 0.35141 0.85477 0.94299 0.0
H104 H 0.30522 0.8742 0.95904 0.0
Co105 Co 0.35955 0.89816 0.95944 0.0
C106 C 0.36574 0.911 0.93201 0.0
O107 O 0.34393 0.90226 0.92845 0.0
N108 N 0.37616 0.92441 0.96729 0.0
C109 C 0.3905 0.96246 0.97126 0.0
C110 C 0.37592 0.9484 0.96343 0.0
C111 C 0.39081 0.92432 0.97754 0.0
N112 N 0.39994 0.94728 0.98011 0.0
O113 O 0.32956 0.9179 0.95994 0.0
H114 H 0.36596 0.95516 0.95532 0.0
H115 H 0.39482 0.9077 0.98295 0.0
O116 O 0.37145 0.91099 0.94354 0.0
C117 C 0.32221 0.91357 0.97114 0.0
O118 O 0.33421 0.89677 0.97777 0.0
N119 N 0.38804 0.8789 0.96073 0.0
C120 C 0.43016 0.85562 0.97014 0.0
C121 C 0.43254 0.87485 0.96133 0.0
C122 C 0.41114 0.88636 0.95673 0.0
C123 C 0.38536 0.85943 0.96879 0.0
C124 C 0.40622 0.84733 0.97354 0.0
H125 H 0.41335 0.90262 0.95091 0.0
H126 H 0.36695 0.85429 0.97213 0.0
H127 H 0.37057 0.85469 0.93974 0.0
H128 H 0.29482 0.83585 0.94488 0.0
H129 H 0.39441 0.98222 0.9703 0.0
H130 H 0.45074 0.88188 0.95856 0.0
H131 H 0.40363 0.83213 0.98011 0.0
C132 C 0.39107 0.90932 0.33086 0.0
C133 C 0.41245 0.91571 0.33723 0.0
N134 N 0.41036 0.90724 0.34901 0.0
N135 N 0.37553 0.89664 0.33853 0.0
C136 C 0.38774 0.89599 0.34963 0.0
H137 H 0.38805 0.91191 0.32097 0.0
Co138 Co 0.34885 0.87705 0.33257 0.0
C139 C 0.32991 0.87189 0.36023 0.0
O140 O 0.32488 0.89453 0.3642 0.0
N141 N 0.32214 0.85734 0.32671 0.0
C142 C 0.28315 0.84337 0.32474 0.0
C143 C 0.29873 0.85874 0.33139 0.0
C144 C 0.32025 0.84096 0.31713 0.0
N145 N 0.29668 0.83221 0.31575 0.0
O146 O 0.32807 0.90632 0.33094 0.0
H147 H 0.29319 0.87062 0.33906 0.0
H148 H 0.33555 0.83605 0.31102 0.0
O149 O 0.33814 0.86869 0.34921 0.0
C150 C 0.33037 0.91128 0.31929 0.0
O151 O 0.34457 0.89681 0.31241 0.0
N152 N 0.3702 0.8501 0.33251 0.0
C153 C 0.41647 0.82819 0.32978 0.0
C154 C 0.40442 0.82746 0.34138 0.0
C155 C 0.38104 0.8388 0.3426 0.0
C156 C 0.38087 0.84883 0.32102 0.0
C157 C 0.40394 0.83779 0.31941 0.0
H158 H 0.3733 0.84073 0.35183 0.0
H159 H 0.37268 0.85875 0.31326 0.0
H160 H 0.38143 0.8854 0.35764 0.0
H161 H 0.42886 0.92471 0.33333 0.0
H162 H 0.26338 0.84061 0.32643 0.0
H163 H 0.41372 0.81991 0.34953 0.0
H164 H 0.41258 0.83806 0.31025 0.0
C165 C 0.32239 0.13452 0.58252 0.0
C166 C 0.31647 0.15412 0.59019 0.0
N167 N 0.33294 0.15476 0.59971 0.0
N168 N 0.34244 0.12236 0.58709 0.0
C169 C 0.34832 0.13504 0.59764 0.0
H170 H 0.31289 0.13 0.57393 0.0
Co171 Co 0.359 0.09591 0.57888 0.0
C172 C 0.39802 0.07762 0.596 0.0
O173 O 0.41198 0.07559 0.58596 0.0
N174 N 0.37504 0.06882 0.57053 0.0
C175 C 0.38599 0.02933 0.56687 0.0
C176 C 0.37139 0.04476 0.574 0.0
C177 C 0.39206 0.06732 0.56114 0.0
N178 N 0.39912 0.04353 0.55883 0.0
O179 O 0.32971 0.07485 0.58078 0.0
H180 H 0.35952 0.03877 0.58162 0.0
H181 H 0.39983 0.08319 0.55628 0.0
O182 O 0.37533 0.08541 0.59495 0.0
C183 C 0.31953 0.078 0.57004 0.0
O184 O 0.33002 0.0936 0.56216 0.0
N185 N 0.38488 0.11787 0.57509 0.0
C186 C 0.41333 0.157 0.5658 0.0
C187 C 0.41579 0.14965 0.5783 0.0
C188 C 0.40111 0.13002 0.58285 0.0
C189 C 0.38202 0.12547 0.56305 0.0
C190 C 0.3964 0.14458 0.55813 0.0
H191 H 0.40207 0.12563 0.59265 0.0
H192 H 0.36819 0.11676 0.55718 0.0
H193 H 0.36415 0.13042 0.60344 0.0
H194 H 0.30126 0.16704 0.58868 0.0
H195 H 0.38764 0.00929 0.56794 0.0
H196 H 0.42841 0.15936 0.58454 0.0
H197 H 0.39349 0.15029 0.54853 0.0
C198 C 0.12416 0.06553 0.84263 0.0
C199 C 0.10822 0.05443 0.85111 0.0
N200 N 0.10068 0.07178 0.85943 0.0
N201 N 0.12699 0.08986 0.84553 0.0
C202 C 0.11329 0.09274 0.85611 0.0
H203 H 0.13087 0.05687 0.83418 0.0
Co204 Co 0.13589 0.11584 0.83431 0.0
C205 C 0.17604 0.14269 0.84928 0.0
O206 O 0.19364 0.14213 0.84075 0.0
N207 N 0.14381 0.14199 0.82283 0.0
C208 C 0.13836 0.17256 0.80893 0.0
C209 C 0.12677 0.15705 0.81729 0.0
C210 C 0.16573 0.14851 0.81727 0.0
N211 N 0.16286 0.1672 0.8089 0.0
O212 O 0.16348 0.09657 0.82795 0.0
H213 H 0.10685 0.15661 0.81886 0.0
H214 H 0.18321 0.13885 0.81871 0.0
O215 O 0.15517 0.13181 0.8474 0.0
C216 C 0.15531 0.08712 0.81778 0.0
O217 O 0.13208 0.09154 0.81451 0.0
N218 N 0.10785 0.13331 0.83943 0.0
C219 C 0.06348 0.15942 0.84142 0.0
C220 C 0.08503 0.16797 0.84756 0.0
C221 C 0.10732 0.15491 0.84619 0.0
C222 C 0.08653 0.1232 0.83473 0.0
C223 C 0.06408 0.13594 0.8356 0.0
H224 H 0.12418 0.1631 0.84988 0.0
H225 H 0.08746 0.10604 0.82943 0.0
H226 H 0.1101 0.11075 0.86034 0.0
H227 H 0.10123 0.03552 0.85047 0.0
H228 H 0.12938 0.18658 0.8032 0.0
H229 H 0.08524 0.1857 0.85241 0.0
H230 H 0.04815 0.12852 0.83061 0.0
C231 C 0.15555 0.85485 0.07651 0.0
C232 C 0.16182 0.833 0.0825 0.0
N233 N 0.15412 0.83454 0.09443 0.0
N234 N 0.14378 0.8702 0.08458 0.0
C235 C 0.14337 0.85729 0.0955 0.0
H236 H 0.15806 0.85865 0.06668 0.0
Co237 Co 0.12659 0.89913 0.07944 0.0
C238 C 0.11751 0.91154 0.10715 0.0
O239 O 0.14024 0.91745 0.11072 0.0
N240 N 0.10928 0.9282 0.0745 0.0
C241 C 0.09632 0.96771 0.07486 0.0
C242 C 0.11108 0.95019 0.08061 0.0
C243 C 0.09337 0.93298 0.06499 0.0
N244 N 0.08517 0.95684 0.06502 0.0
O245 O 0.15649 0.9189 0.08145 0.0
H246 H 0.12253 0.95335 0.08877 0.0
H247 H 0.08747 0.9193 0.05824 0.0
O248 O 0.11348 0.90484 0.09596 0.0
C249 C 0.16461 0.91859 0.07018 0.0
O250 O 0.1518 0.90632 0.06174 0.0
N251 N 0.09947 0.87906 0.07573 0.0
C252 C 0.07642 0.83604 0.06747 0.0
C253 C 0.07461 0.84286 0.08005 0.0
C254 C 0.08632 0.86476 0.08405 0.0
C255 C 0.09992 0.8732 0.06337 0.0
C256 C 0.08811 0.85194 0.05899 0.0
H257 H 0.08712 0.86841 0.09394 0.0
H258 H 0.11162 0.88369 0.05703 0.0
H259 H 0.13378 0.86346 0.10382 0.0
H260 H 0.17067 0.81687 0.07831 0.0
H261 H 0.09425 0.98703 0.07764 0.0
H262 H 0.06611 0.83039 0.08682 0.0
H263 H 0.09024 0.84672 0.04928 0.0
C264 C 0.59875 0.91076 0.83052 0.0
C265 C 0.5781 0.91896 0.83697 0.0
N266 N 0.57694 0.90686 0.84802 0.0
N267 N 0.61088 0.89355 0.83739 0.0
C268 C 0.59718 0.89162 0.84804 0.0
H269 H 0.60399 0.91629 0.82117 0.0
Co270 Co 0.63807 0.87478 0.83139 0.0
C271 C 0.65425 0.86734 0.85886 0.0
O272 O 0.66028 0.89015 0.86222 0.0
N273 N 0.66564 0.85594 0.82561 0.0
C274 C 0.70486 0.84222 0.82452 0.0
C275 C 0.68847 0.85714 0.83094 0.0
C276 C 0.66874 0.84013 0.81587 0.0
N277 N 0.69242 0.8315 0.81503 0.0
O278 O 0.65902 0.90421 0.83177 0.0
H279 H 0.69304 0.86844 0.83898 0.0
H280 H 0.65427 0.83537 0.80928 0.0
O281 O 0.64632 0.86316 0.84788 0.0
C282 C 0.65892 0.91063 0.82023 0.0
O283 O 0.64656 0.89675 0.81225 0.0
N284 N 0.6167 0.848 0.82931 0.0
C285 C 0.57501 0.8205 0.82283 0.0
C286 C 0.58306 0.82086 0.83525 0.0
C287 C 0.60436 0.8347 0.83833 0.0
C288 C 0.60915 0.84723 0.81721 0.0
C289 C 0.58875 0.83304 0.8137 0.0
H290 H 0.60932 0.83644 0.84804 0.0
H291 H 0.618 0.85909 0.81035 0.0
H292 H 0.60157 0.87878 0.85551 0.0
H293 H 0.56438 0.93199 0.83345 0.0
H294 H 0.72438 0.83933 0.82675 0.0
H295 H 0.57224 0.81178 0.84253 0.0
H296 H 0.58246 0.83367 0.80409 0.0
C297 C 0.82542 0.86237 0.58153 0.0
C298 C 0.81912 0.84265 0.58911 0.0
N299 N 0.83578 0.84148 0.59847 0.0
N300 N 0.84589 0.87398 0.58609 0.0
C301 C 0.85179 0.8607 0.59648 0.0
H302 H 0.81583 0.86741 0.57304 0.0
Co303 Co 0.86201 0.90115 0.57819 0.0
C304 C 0.90199 0.91807 0.59498 0.0
O305 O 0.91541 0.92007 0.58476 0.0
N306 N 0.87759 0.92914 0.57019 0.0
C307 C 0.8887 0.96891 0.56757 0.0
C308 C 0.87416 0.95272 0.57432 0.0
C309 C 0.89431 0.93174 0.56073 0.0
N310 N 0.90168 0.95576 0.55902 0.0
O311 O 0.83284 0.92178 0.58088 0.0
H312 H 0.86255 0.95783 0.58217 0.0
H313 H 0.90183 0.9163 0.55555 0.0
O314 O 0.87911 0.91059 0.59422 0.0
C315 C 0.82238 0.91948 0.57017 0.0
O316 O 0.83278 0.90478 0.56187 0.0
N317 N 0.88773 0.87967 0.57368 0.0
C318 C 0.91744 0.84279 0.56341 0.0
C319 C 0.91924 0.84836 0.57614 0.0
C320 C 0.90394 0.86686 0.58117 0.0
C321 C 0.88514 0.87337 0.56143 0.0
C322 C 0.90031 0.8555 0.556 0.0
H323 H 0.90461 0.87005 0.5911 0.0
H324 H 0.87116 0.88239 0.55577 0.0
H325 H 0.86752 0.86487 0.60246 0.0
H326 H 0.80392 0.82961 0.58762 0.0
H327 H 0.89009 0.98875 0.56927 0.0
H328 H 0.93197 0.8382 0.58214 0.0
H329 H 0.89801 0.851 0.54621 0.0
C330 C 0.89011 0.0819 0.32945 0.0
C331 C 0.91008 0.07453 0.33656 0.0
N332 N 0.90749 0.08409 0.34813 0.0
N333 N 0.87463 0.09606 0.33638 0.0
C334 C 0.88567 0.097 0.34777 0.0
H335 H 0.88784 0.07825 0.3196 0.0
Co336 Co 0.8473 0.11334 0.32947 0.0
C337 C 0.82918 0.14841 0.34847 0.0
O338 O 0.82615 0.16431 0.33925 0.0
N339 N 0.81933 0.13006 0.32229 0.0
C340 C 0.7793 0.14005 0.3194 0.0
C341 C 0.79561 0.12564 0.32613 0.0
C342 C 0.81674 0.14736 0.31311 0.0
N343 N 0.79261 0.15376 0.31122 0.0
O344 O 0.82702 0.0836 0.33056 0.0
H345 H 0.79046 0.11306 0.33361 0.0
H346 H 0.83203 0.15539 0.3079 0.0
O347 O 0.83758 0.12635 0.34625 0.0
C348 C 0.82961 0.07477 0.31953 0.0
O349 O 0.84428 0.08659 0.31165 0.0
N350 N 0.86861 0.14022 0.32664 0.0
C351 C 0.9123 0.1644 0.31977 0.0
C352 C 0.90447 0.16464 0.33223 0.0
C353 C 0.88239 0.15234 0.33552 0.0
C354 C 0.87597 0.14045 0.31447 0.0
C355 C 0.89741 0.15304 0.31076 0.0
H356 H 0.87811 0.15042 0.34529 0.0
H357 H 0.86626 0.12906 0.30772 0.0
H358 H 0.87838 0.10774 0.35549 0.0
H359 H 0.92602 0.06412 0.33317 0.0
H360 H 0.75924 0.14088 0.3207 0.0
H361 H 0.91613 0.17274 0.33943 0.0
H362 H 0.90348 0.15193 0.30112 0.0
C363 C 0.65775 0.13979 0.07753 0.0
C364 C 0.66328 0.16152 0.08381 0.0
N365 N 0.65363 0.15987 0.09538 0.0
N366 N 0.64455 0.12441 0.08505 0.0
C367 C 0.64248 0.13719 0.09594 0.0
H368 H 0.66184 0.13612 0.06782 0.0
Co369 Co 0.62782 0.09567 0.07921 0.0
C370 C 0.62155 0.08113 0.10684 0.0
O371 O 0.64504 0.07977 0.11033 0.0
N372 N 0.61095 0.06688 0.07356 0.0
C373 C 0.59906 0.02703 0.07266 0.0
C374 C 0.61406 0.04401 0.07867 0.0
C375 C 0.59394 0.06324 0.0644 0.0
N376 N 0.58634 0.0392 0.0637 0.0
O377 O 0.65838 0.07666 0.0801 0.0
H378 H 0.62635 0.03995 0.08642 0.0
H379 H 0.58721 0.07773 0.05827 0.0
O380 O 0.61614 0.08705 0.09567 0.0
C381 C 0.66572 0.0779 0.06873 0.0
O382 O 0.65202 0.09025 0.06067 0.0
N383 N 0.5999 0.11524 0.07666 0.0
C384 C 0.5748 0.15836 0.07036 0.0
C385 C 0.57359 0.14927 0.08261 0.0
C386 C 0.5862 0.12723 0.0856 0.0
C387 C 0.59978 0.12323 0.0646 0.0
C388 C 0.58688 0.14453 0.06117 0.0
H389 H 0.58709 0.1216 0.09527 0.0
H390 H 0.61168 0.11436 0.05778 0.0
H391 H 0.63142 0.131 0.10382 0.0
H392 H 0.67299 0.17762 0.08003 0.0
H393 H 0.59722 0.0074 0.07492 0.0
H394 H 0.56467 0.16005 0.08992 0.0
H395 H 0.58848 0.15149 0.0517 0.0
C396 C 0.59305 0.1007 0.71462 0.0
C397 C 0.57116 0.09408 0.70876 0.0
N398 N 0.57508 0.09432 0.69634 0.0
N399 N 0.6109 0.10519 0.706 0.0
C400 C 0.59944 0.10066 0.69492 0.0
H401 H 0.59521 0.10397 0.72451 0.0
Co402 Co 0.64079 0.12237 0.70986 0.0
C403 C 0.65767 0.12124 0.68115 0.0
O404 O 0.66337 0.09961 0.67613 0.0
N405 N 0.67068 0.13974 0.71391 0.0
C406 C 0.70758 0.15907 0.71299 0.0
C407 C 0.69042 0.14518 0.70647 0.0
C408 C 0.67695 0.14987 0.72506 0.0
N409 N 0.69902 0.16219 0.72469 0.0
O410 O 0.65717 0.09122 0.71361 0.0
H411 H 0.69246 0.13982 0.69684 0.0
H412 H 0.66564 0.14819 0.73337 0.0
O413 O 0.65095 0.12173 0.69257 0.0
C414 C 0.65463 0.08816 0.72538 0.0
O415 O 0.64231 0.10508 0.73175 0.0
N416 N 0.62374 0.15227 0.70766 0.0
C417 C 0.58228 0.18271 0.71011 0.0
C418 C 0.58908 0.17356 0.69835 0.0
C419 C 0.61018 0.15838 0.69729 0.0
C420 C 0.61853 0.16302 0.71885 0.0
C421 C 0.59832 0.17888 0.72022 0.0
H422 H 0.61344 0.14911 0.68852 0.0
H423 H 0.62759 0.15654 0.72719 0.0
H424 H 0.60797 0.10423 0.68593 0.0
H425 H 0.55338 0.09058 0.71329 0.0
H426 H 0.72463 0.16698 0.70921 0.0
H427 H 0.57687 0.17596 0.69038 0.0
H428 H 0.59333 0.18497 0.72954 0.0
C429 C 0.65774 0.84358 0.46012 0.0
C430 C 0.66096 0.82297 0.45271 0.0
N431 N 0.64774 0.82621 0.44217 0.0
N432 N 0.64258 0.86008 0.45437 0.0
C433 C 0.63683 0.84895 0.44334 0.0
H434 H 0.66516 0.84569 0.46942 0.0
Co435 Co 0.63006 0.88858 0.4626 0.0
C436 C 0.59621 0.91523 0.44503 0.0
O437 O 0.58315 0.92154 0.45491 0.0
N438 N 0.61811 0.91734 0.47128 0.0
C439 C 0.61166 0.95758 0.47563 0.0
C440 C 0.6247 0.94105 0.46831 0.0
C441 C 0.60132 0.92017 0.48068 0.0
N442 N 0.59675 0.94439 0.48334 0.0
O443 O 0.66195 0.90534 0.46105 0.0
H444 H 0.63735 0.94613 0.46084 0.0
H445 H 0.59194 0.90502 0.48534 0.0
O446 O 0.61632 0.90223 0.44642 0.0
C447 C 0.67218 0.90138 0.47168 0.0
O448 O 0.66058 0.88675 0.47966 0.0
N449 N 0.60071 0.87104 0.46578 0.0
C450 C 0.55706 0.85123 0.4754 0.0
C451 C 0.55877 0.85722 0.46268 0.0
C452 C 0.58121 0.86637 0.45793 0.0
C453 C 0.60053 0.86167 0.47761 0.0
C454 C 0.57861 0.85211 0.48275 0.0
H455 H 0.58253 0.87002 0.44806 0.0
H456 H 0.6169 0.8637 0.48343 0.0
H457 H 0.62381 0.85661 0.43664 0.0
H458 H 0.67175 0.80652 0.45504 0.0
H459 H 0.61218 0.97773 0.47485 0.0
H460 H 0.54292 0.85486 0.45651 0.0
H461 H 0.57826 0.84656 0.49248 0.0
C462 C 0.88874 0.91915 0.21037 0.0
C463 C 0.90858 0.92542 0.20286 0.0
N464 N 0.9088 0.90996 0.19297 0.0
N465 N 0.87609 0.89987 0.2053 0.0
C466 C 0.88889 0.89457 0.19466 0.0
H467 H 0.88439 0.92784 0.21919 0.0
Co468 Co 0.84849 0.88435 0.21312 0.0
C469 C 0.83041 0.84501 0.19628 0.0
O470 O 0.8276 0.83164 0.20647 0.0
N471 N 0.82009 0.86936 0.22113 0.0
C472 C 0.78005 0.85869 0.22365 0.0
C473 C 0.79654 0.87303 0.21693 0.0
C474 C 0.81715 0.85275 0.23063 0.0
N475 N 0.79304 0.84575 0.23222 0.0
O476 O 0.82839 0.91375 0.21038 0.0
H477 H 0.79168 0.88453 0.20899 0.0
H478 H 0.83224 0.84506 0.23603 0.0
O479 O 0.83875 0.86755 0.1971 0.0
C480 C 0.83051 0.92446 0.22102 0.0
O481 O 0.84505 0.91423 0.22944 0.0
N482 N 0.86929 0.85812 0.21759 0.0
C483 C 0.90086 0.82349 0.22826 0.0
C484 C 0.8966 0.82308 0.21538 0.0
C485 C 0.8809 0.841 0.21013 0.0
C486 C 0.87543 0.86001 0.22988 0.0
C487 C 0.8906 0.84239 0.23553 0.0
H488 H 0.87841 0.84113 0.20014 0.0
H489 H 0.86769 0.87486 0.23548 0.0
H490 H 0.88393 0.87963 0.18835 0.0
H491 H 0.92237 0.93971 0.2048 0.0
H492 H 0.76021 0.85695 0.22187 0.0
H493 H 0.90536 0.80916 0.20949 0.0
H494 H 0.89448 0.84363 0.24543 0.0
C495 C 0.82413 0.13472 0.95037 0.0
C496 C 0.81869 0.15418 0.9425 0.0
N497 N 0.83977 0.16096 0.93651 0.0
N498 N 0.8486 0.12883 0.94939 0.0
C499 C 0.85771 0.14545 0.94091 0.0
H500 H 0.81074 0.1256 0.9564 0.0
Co501 Co 0.86513 0.10284 0.95817 0.0
C502 C 0.87308 0.08714 0.93104 0.0
O503 O 0.85287 0.09724 0.92627 0.0
N504 N 0.88133 0.07692 0.96659 0.0
C505 C 0.89525 0.03867 0.97042 0.0
C506 C 0.87974 0.05277 0.9631 0.0
C507 C 0.8976 0.07702 0.97624 0.0
N508 N 0.90665 0.05395 0.9786 0.0
O509 O 0.83485 0.08337 0.95899 0.0
H510 H 0.86842 0.04593 0.95548 0.0
H511 H 0.90357 0.09378 0.98103 0.0
O512 O 0.87701 0.0884 0.94273 0.0
C513 C 0.82723 0.08827 0.97007 0.0
O514 O 0.83916 0.10538 0.97653 0.0
N515 N 0.89385 0.12196 0.95915 0.0
C516 C 0.93614 0.14327 0.96945 0.0
C517 C 0.93842 0.12522 0.96008 0.0
C518 C 0.91689 0.11464 0.95504 0.0
C519 C 0.89135 0.14094 0.96746 0.0
C520 C 0.91233 0.15199 0.97272 0.0
H521 H 0.91897 0.09897 0.94885 0.0
H522 H 0.87296 0.14608 0.97079 0.0
H523 H 0.87698 0.1458 0.93781 0.0
H524 H 0.80058 0.16288 0.94138 0.0
H525 H 0.89813 0.01872 0.96967 0.0
H526 H 0.95655 0.11807 0.95735 0.0
H527 H 0.90992 0.16637 0.97972 0.0
C528 C 0.88951 0.57839 0.70912 0.0
C529 C 0.90968 0.57102 0.7021 0.0
N530 N 0.91066 0.58516 0.6917 0.0
N531 N 0.87744 0.59708 0.70323 0.0
C532 C 0.89083 0.60082 0.6926 0.0
H533 H 0.88465 0.57105 0.71819 0.0
Co534 Co 0.8503 0.61456 0.71032 0.0
C535 C 0.8335 0.6514 0.69178 0.0
O536 O 0.83036 0.6668 0.70117 0.0
N537 N 0.82257 0.63146 0.71761 0.0
C538 C 0.78278 0.64249 0.72033 0.0
C539 C 0.79896 0.62842 0.71335 0.0
C540 C 0.82005 0.64749 0.72732 0.0
N541 N 0.79603 0.65452 0.72912 0.0
O542 O 0.82914 0.58551 0.70847 0.0
H543 H 0.79383 0.61701 0.70544 0.0
H544 H 0.83532 0.65397 0.73303 0.0
O545 O 0.84168 0.62916 0.69374 0.0
C546 C 0.83055 0.57604 0.71944 0.0
O547 O 0.84494 0.58695 0.72771 0.0
N548 N 0.87213 0.64054 0.71396 0.0
C549 C 0.9142 0.66505 0.72257 0.0
C550 C 0.90677 0.66803 0.71015 0.0
C551 C 0.88561 0.65522 0.70593 0.0
C552 C 0.87913 0.63816 0.72611 0.0
C553 C 0.8999 0.65053 0.73067 0.0
H554 H 0.88156 0.6556 0.69609 0.0
H555 H 0.86934 0.62537 0.73219 0.0
H556 H 0.88647 0.61507 0.68578 0.0
H557 H 0.92325 0.55704 0.70479 0.0
H558 H 0.76285 0.64416 0.71881 0.0
H559 H 0.91808 0.6787 0.70364 0.0
H560 H 0.9056 0.64757 0.74026 0.0
C561 C 0.6696 0.6312 0.95873 0.0
C562 C 0.67616 0.65252 0.95231 0.0
N563 N 0.65887 0.65674 0.94343 0.0
N564 N 0.64827 0.62181 0.95395 0.0
C565 C 0.6422 0.63784 0.94461 0.0
H566 H 0.67944 0.62355 0.96666 0.0
Co567 Co 0.62989 0.59485 0.96061 0.0
C568 C 0.6209 0.58432 0.93318 0.0
O569 O 0.64431 0.58625 0.92957 0.0
N570 N 0.61129 0.56783 0.96695 0.0
C571 C 0.59608 0.52928 0.9684 0.0
C572 C 0.61247 0.54456 0.96216 0.0
C573 C 0.59396 0.56619 0.97613 0.0
N574 N 0.58428 0.54291 0.97717 0.0
O575 O 0.65851 0.57301 0.95875 0.0
H576 H 0.62433 0.53909 0.95445 0.0
H577 H 0.58799 0.58186 0.98172 0.0
O578 O 0.61524 0.58735 0.94461 0.0
C579 C 0.6667 0.57291 0.96999 0.0
O580 O 0.65495 0.58624 0.97841 0.0
N581 N 0.6043 0.61666 0.96427 0.0
C582 C 0.57647 0.65646 0.97308 0.0
C583 C 0.57125 0.64612 0.9613 0.0
C584 C 0.58552 0.62593 0.95701 0.0
C585 C 0.60867 0.6259 0.97587 0.0
C586 C 0.59471 0.6454 0.98055 0.0
H587 H 0.58233 0.61883 0.94772 0.0
H588 H 0.62366 0.6185 0.98146 0.0
H589 H 0.62528 0.63638 0.93914 0.0
H590 H 0.69229 0.66419 0.95414 0.0
H591 H 0.59317 0.50961 0.96659 0.0
H592 H 0.55728 0.65432 0.95525 0.0
H593 H 0.5989 0.65238 0.9898 0.0
C594 C 0.60919 0.42279 0.20363 0.0
C595 C 0.58992 0.42893 0.19578 0.0
N596 N 0.58598 0.4097 0.18796 0.0
N597 N 0.6178 0.39977 0.20081 0.0
C598 C 0.60312 0.39225 0.19117 0.0
H599 H 0.61594 0.43446 0.2111 0.0
Co600 Co 0.64341 0.38295 0.20967 0.0
C601 C 0.66137 0.34224 0.19343 0.0
O602 O 0.66305 0.32897 0.20371 0.0
N603 N 0.66956 0.36675 0.21856 0.0
C604 C 0.70865 0.35515 0.2227 0.0
C605 C 0.69376 0.36913 0.21504 0.0
C606 C 0.67037 0.35106 0.22851 0.0
N607 N 0.69396 0.34369 0.23115 0.0
O608 O 0.66588 0.41121 0.20741 0.0
H609 H 0.70021 0.37972 0.20705 0.0
H610 H 0.65414 0.34464 0.2336 0.0
O611 O 0.65376 0.36503 0.19404 0.0
C612 C 0.66309 0.4225 0.21789 0.0
O613 O 0.64622 0.41406 0.22573 0.0
N614 N 0.62038 0.35819 0.2139 0.0
C615 C 0.57966 0.33303 0.22383 0.0
C616 C 0.58838 0.32702 0.21186 0.0
C617 C 0.60868 0.3403 0.2069 0.0
C618 C 0.61203 0.36372 0.22557 0.0
C619 C 0.59191 0.35127 0.23076 0.0
H620 H 0.6139 0.33694 0.19733 0.0
H621 H 0.62084 0.3783 0.2309 0.0
H622 H 0.60489 0.37439 0.18657 0.0
H623 H 0.57907 0.44597 0.19606 0.0
H624 H 0.72866 0.35277 0.22178 0.0
H625 H 0.57885 0.3132 0.20622 0.0
H626 H 0.58563 0.35627 0.24005 0.0
C627 C 0.82703 0.35807 0.4593 0.0
C628 C 0.81988 0.3385 0.45183 0.0
N629 N 0.83684 0.33606 0.44263 0.0
N630 N 0.84835 0.36828 0.45483 0.0
C631 C 0.85386 0.35435 0.44462 0.0
H632 H 0.8174 0.36397 0.46765 0.0
Co633 Co 0.86622 0.39467 0.46238 0.0
C634 C 0.90332 0.41228 0.44384 0.0
O635 O 0.91872 0.41574 0.45321 0.0
N636 N 0.88352 0.42162 0.47001 0.0
C637 C 0.89535 0.461 0.4732 0.0
C638 C 0.88072 0.44551 0.46613 0.0
C639 C 0.89994 0.42324 0.4796 0.0
N640 N 0.90749 0.44702 0.48168 0.0
O641 O 0.83737 0.41637 0.46086 0.0
H642 H 0.86921 0.4513 0.45836 0.0
H643 H 0.9064 0.40746 0.48496 0.0
O644 O 0.8811 0.40393 0.44587 0.0
C645 C 0.82782 0.4143 0.47181 0.0
O646 O 0.83825 0.39889 0.47977 0.0
N647 N 0.8919 0.37232 0.46584 0.0
C648 C 0.91549 0.32958 0.47425 0.0
C649 C 0.91996 0.33823 0.46211 0.0
C650 C 0.90763 0.35974 0.45797 0.0
C651 C 0.8884 0.36434 0.47779 0.0
C652 C 0.90016 0.34317 0.48223 0.0
H653 H 0.90934 0.36483 0.44828 0.0
H654 H 0.87532 0.37378 0.48379 0.0
H655 H 0.87004 0.35739 0.43876 0.0
H656 H 0.80385 0.32645 0.45328 0.0
H657 H 0.89741 0.48095 0.4719 0.0
H658 H 0.93149 0.32764 0.45571 0.0
H659 H 0.89631 0.33675 0.49164 0.0
C660 C 0.90052 0.41388 0.82463 0.0
C661 C 0.92117 0.41783 0.83195 0.0
N662 N 0.91594 0.40985 0.84357 0.0
N663 N 0.88212 0.40342 0.83155 0.0
C664 C 0.89209 0.40139 0.84315 0.0
H665 H 0.89975 0.41677 0.81466 0.0
Co666 Co 0.85338 0.38887 0.82436 0.0
C667 C 0.83673 0.34921 0.84184 0.0
O668 O 0.83143 0.33555 0.83203 0.0
N669 N 0.82423 0.37424 0.81699 0.0
C670 C 0.78407 0.36401 0.8145 0.0
C671 C 0.80063 0.37879 0.82092 0.0
C672 C 0.82126 0.35637 0.80813 0.0
N673 N 0.79709 0.34966 0.8065 0.0
O674 O 0.83375 0.41798 0.82818 0.0
H675 H 0.79565 0.39147 0.82836 0.0
H676 H 0.8365 0.34697 0.80358 0.0
O677 O 0.84561 0.37137 0.8404 0.0
C678 C 0.83752 0.43143 0.81845 0.0
O679 O 0.85416 0.42389 0.81029 0.0
N680 N 0.87349 0.3633 0.81884 0.0
C681 C 0.90799 0.33315 0.80715 0.0
C682 C 0.90384 0.33083 0.82002 0.0
C683 C 0.88661 0.3465 0.8258 0.0
C684 C 0.87875 0.36674 0.80649 0.0
C685 C 0.89548 0.35133 0.80033 0.0
H686 H 0.8846 0.34569 0.83582 0.0
H687 H 0.86944 0.38138 0.80134 0.0
H688 H 0.88286 0.39225 0.8509 0.0
H689 H 0.93906 0.42505 0.82884 0.0
H690 H 0.76404 0.36362 0.81587 0.0
H691 H 0.91396 0.31718 0.82552 0.0
H692 H 0.89881 0.35374 0.79043 0.0
C693 C 0.83828 0.6504 0.078 0.0
C694 C 0.83373 0.6714 0.08495 0.0
N695 N 0.84238 0.66749 0.09656 0.0
N696 N 0.84975 0.63311 0.08514 0.0
C697 C 0.85186 0.64405 0.0965 0.0
H698 H 0.83459 0.64847 0.06814 0.0
Co699 Co 0.8633 0.60396 0.07827 0.0
C700 C 0.89284 0.57799 0.09816 0.0
O701 O 0.90693 0.56885 0.08924 0.0
N702 N 0.87632 0.57454 0.0708 0.0
C703 C 0.88209 0.53413 0.06665 0.0
C704 C 0.86853 0.55105 0.07349 0.0
C705 C 0.89432 0.57123 0.06205 0.0
N706 N 0.89833 0.54692 0.05947 0.0
O707 O 0.83103 0.58777 0.07878 0.0
H708 H 0.85432 0.54641 0.08031 0.0
H709 H 0.90513 0.58606 0.0579 0.0
O710 O 0.87391 0.59181 0.09533 0.0
C711 C 0.82262 0.59106 0.06771 0.0
O712 O 0.83586 0.60462 0.0599 0.0
N713 N 0.89336 0.62105 0.07613 0.0
C714 C 0.93763 0.64432 0.06921 0.0
C715 C 0.9334 0.63741 0.08167 0.0
C716 C 0.91074 0.62658 0.08501 0.0
C717 C 0.89594 0.63027 0.06435 0.0
C718 C 0.91816 0.64158 0.06059 0.0
H719 H 0.90741 0.62292 0.09471 0.0
H720 H 0.8811 0.62756 0.05764 0.0
H721 H 0.86143 0.63572 0.10434 0.0
H722 H 0.82533 0.68855 0.08162 0.0
H723 H 0.88022 0.514 0.06698 0.0
H724 H 0.94752 0.64 0.08878 0.0
H725 H 0.92011 0.64789 0.05102 0.0
C726 C 0.60026 0.56897 0.32856 0.0
C727 C 0.58089 0.56193 0.3362 0.0
N728 N 0.58083 0.57684 0.34631 0.0
N729 N 0.61278 0.58821 0.33375 0.0
C730 C 0.60041 0.59264 0.34461 0.0
H731 H 0.60425 0.56096 0.31954 0.0
Co732 Co 0.63927 0.60516 0.32571 0.0
C733 C 0.65384 0.6472 0.34198 0.0
O734 O 0.6556 0.6598 0.33149 0.0
N735 N 0.66664 0.62167 0.31758 0.0
C736 C 0.70607 0.63448 0.31514 0.0
C737 C 0.6902 0.61988 0.32207 0.0
C738 C 0.66895 0.63754 0.30772 0.0
N739 N 0.69269 0.64574 0.30615 0.0
O740 O 0.6614 0.5772 0.32868 0.0
H741 H 0.69544 0.60942 0.3303 0.0
H742 H 0.65367 0.64376 0.30198 0.0
O743 O 0.64771 0.62386 0.3416 0.0
C744 C 0.65943 0.56608 0.31811 0.0
O745 O 0.64376 0.57509 0.30986 0.0
N746 N 0.61663 0.62948 0.32085 0.0
C747 C 0.58373 0.66236 0.30986 0.0
C748 C 0.58699 0.66255 0.32282 0.0
C749 C 0.60334 0.64547 0.32823 0.0
C750 C 0.61112 0.62727 0.30849 0.0
C751 C 0.59531 0.64414 0.30267 0.0
H752 H 0.6054 0.64538 0.33825 0.0
H753 H 0.62012 0.61308 0.30294 0.0
H754 H 0.60532 0.60743 0.35102 0.0
H755 H 0.56719 0.54761 0.33416 0.0
H756 H 0.72573 0.63753 0.317 0.0
H757 H 0.57752 0.67615 0.32862 0.0
H758 H 0.59252 0.64326 0.29266 0.0
C759 C 0.67105 0.35727 0.58281 0.0
C760 C 0.67588 0.33635 0.5898 0.0
N761 N 0.65947 0.33545 0.59932 0.0
N762 N 0.65166 0.36984 0.58783 0.0
C763 C 0.64509 0.35611 0.59801 0.0
H764 H 0.68063 0.3623 0.57429 0.0
Co765 Co 0.63642 0.39752 0.58007 0.0
C766 C 0.59889 0.41754 0.59774 0.0
O767 O 0.58512 0.42209 0.58787 0.0
N768 N 0.62172 0.42576 0.57204 0.0
C769 C 0.61202 0.46566 0.56851 0.0
C770 C 0.62576 0.44957 0.57575 0.0
C771 C 0.60562 0.42809 0.56234 0.0
N772 N 0.59921 0.45208 0.56012 0.0
O773 O 0.66656 0.41718 0.58215 0.0
H774 H 0.63736 0.45492 0.58356 0.0
H775 H 0.59829 0.41271 0.55703 0.0
O776 O 0.62077 0.40784 0.59634 0.0
C777 C 0.67656 0.41477 0.57132 0.0
O778 O 0.66554 0.40027 0.56314 0.0
N779 N 0.60935 0.3772 0.57612 0.0
C780 C 0.57246 0.34804 0.56517 0.0
C781 C 0.57179 0.35315 0.57805 0.0
C782 C 0.59069 0.36761 0.58341 0.0
C783 C 0.61168 0.36995 0.56403 0.0
C784 C 0.59305 0.35633 0.55823 0.0
H785 H 0.59026 0.37077 0.59335 0.0
H786 H 0.62741 0.37624 0.55855 0.0
H787 H 0.6293 0.36038 0.60395 0.0
H788 H 0.69009 0.32252 0.58785 0.0
H789 H 0.61085 0.4857 0.56968 0.0
H790 H 0.55704 0.34587 0.58397 0.0
H791 H 0.5947 0.35299 0.54831 0.0
C792 C 0.11172 0.4203 0.33182 0.0
C793 C 0.09173 0.42646 0.33928 0.0
N794 N 0.08747 0.4075 0.34727 0.0
N795 N 0.1204 0.39757 0.33512 0.0
C796 C 0.10501 0.39013 0.34452 0.0
H797 H 0.11927 0.43185 0.32446 0.0
Co798 Co 0.1482 0.38087 0.32812 0.0
C799 C 0.17268 0.37186 0.35386 0.0
O800 O 0.19052 0.38876 0.35371 0.0
N801 N 0.17618 0.36418 0.32137 0.0
C802 C 0.21561 0.35307 0.31806 0.0
C803 C 0.20012 0.36871 0.32457 0.0
C804 C 0.17768 0.3458 0.31273 0.0
N805 N 0.20154 0.33836 0.31064 0.0
O806 O 0.16737 0.41147 0.32817 0.0
H807 H 0.2061 0.3827 0.33117 0.0
H808 H 0.16149 0.33778 0.30824 0.0
O809 O 0.15784 0.3699 0.34464 0.0
C810 C 0.16499 0.41833 0.31676 0.0
O811 O 0.15053 0.40507 0.30939 0.0
N812 N 0.12928 0.35233 0.32628 0.0
C813 C 0.10602 0.31011 0.31678 0.0
C814 C 0.12222 0.30826 0.32705 0.0
C815 C 0.13406 0.32962 0.33155 0.0
C816 C 0.11271 0.3547 0.31675 0.0
C817 C 0.10103 0.33381 0.31177 0.0
H818 H 0.14828 0.32751 0.33859 0.0
H819 H 0.10986 0.37277 0.31246 0.0
H820 H 0.10682 0.37248 0.34936 0.0
H821 H 0.08092 0.44351 0.33874 0.0
H822 H 0.23576 0.35288 0.31877 0.0
H823 H 0.12633 0.29044 0.33137 0.0
H824 H 0.08906 0.33623 0.30372 0.0
C825 C 0.32532 0.35212 0.0814 0.0
C826 C 0.31916 0.33256 0.08913 0.0
N827 N 0.33349 0.33397 0.09942 0.0
N828 N 0.34336 0.36611 0.08675 0.0
C829 C 0.34797 0.35448 0.09775 0.0
H830 H 0.31741 0.35543 0.07228 0.0
Co831 Co 0.35837 0.3941 0.07918 0.0
C832 C 0.38975 0.41958 0.0984 0.0
O833 O 0.40443 0.42673 0.08924 0.0
N834 N 0.37256 0.42262 0.07123 0.0
C835 C 0.37953 0.46289 0.06706 0.0
C836 C 0.36578 0.44632 0.07405 0.0
C837 C 0.39019 0.42546 0.06223 0.0
N838 N 0.39493 0.44972 0.05967 0.0
O839 O 0.32688 0.41157 0.0795 0.0
H840 H 0.35217 0.45135 0.08108 0.0
H841 H 0.40016 0.41034 0.05788 0.0
O842 O 0.3698 0.40689 0.09597 0.0
C843 C 0.31864 0.4082 0.06841 0.0
O844 O 0.33159 0.39402 0.06078 0.0
N845 N 0.38774 0.37569 0.07724 0.0
C846 C 0.43119 0.35058 0.07078 0.0
C847 C 0.42678 0.35764 0.08318 0.0
C848 C 0.40457 0.3695 0.08628 0.0
C849 C 0.39045 0.36651 0.06547 0.0
C850 C 0.41234 0.35435 0.06193 0.0
H851 H 0.40122 0.37354 0.09593 0.0
H852 H 0.37603 0.36986 0.05861 0.0
H853 H 0.36179 0.36072 0.10437 0.0
H854 H 0.30583 0.31788 0.08711 0.0
H855 H 0.37837 0.48306 0.06745 0.0
H856 H 0.44048 0.3544 0.09044 0.0
H857 H 0.41451 0.34812 0.05238 0.0
C858 C 0.40743 0.58941 0.82316 0.0
C859 C 0.42694 0.58026 0.83014 0.0
N860 N 0.4222 0.58496 0.84223 0.0
N861 N 0.3905 0.60067 0.83066 0.0
C862 C 0.39961 0.59625 0.84232 0.0
H863 H 0.40578 0.58737 0.81318 0.0
Co864 Co 0.35976 0.61631 0.82538 0.0
C865 C 0.37097 0.64505 0.84816 0.0
O866 O 0.39364 0.64725 0.8435 0.0
N867 N 0.32939 0.63063 0.82025 0.0
C868 C 0.29084 0.64599 0.82059 0.0
C869 C 0.30812 0.6319 0.82699 0.0
C870 C 0.32441 0.64353 0.80967 0.0
N871 N 0.30126 0.65357 0.80976 0.0
O872 O 0.3423 0.58574 0.8289 0.0
H873 H 0.30569 0.62393 0.8362 0.0
H874 H 0.33791 0.64638 0.80227 0.0
O875 O 0.35481 0.63149 0.84237 0.0
C876 C 0.34373 0.5761 0.81797 0.0
O877 O 0.35621 0.58815 0.80926 0.0
N878 N 0.37625 0.64513 0.81959 0.0
C879 C 0.39138 0.68534 0.80479 0.0
C880 C 0.37704 0.68926 0.81558 0.0
C881 C 0.36903 0.6689 0.82262 0.0
C882 C 0.38994 0.64112 0.80905 0.0
C883 C 0.39781 0.66086 0.80157 0.0
H884 H 0.35554 0.67225 0.82993 0.0
H885 H 0.39281 0.62249 0.80566 0.0
H886 H 0.38993 0.601 0.85085 0.0
H887 H 0.44365 0.57139 0.82656 0.0
H888 H 0.27255 0.65137 0.82397 0.0
H889 H 0.37152 0.70782 0.81847 0.0
H890 H 0.40797 0.65679 0.79307 0.0
C891 C 0.1715 0.63597 0.58288 0.0
C892 C 0.17727 0.65728 0.58947 0.0
N893 N 0.16249 0.65818 0.59964 0.0
N894 N 0.15308 0.62345 0.58882 0.0
C895 C 0.14797 0.63752 0.59903 0.0
H896 H 0.17951 0.63054 0.57403 0.0
Co897 Co 0.13615 0.59572 0.5822 0.0
C898 C 0.12532 0.58273 0.60963 0.0
O899 O 0.14829 0.58217 0.61393 0.0
N900 N 0.11886 0.56792 0.57582 0.0
C901 C 0.10452 0.52904 0.57432 0.0
C902 C 0.11971 0.54489 0.58094 0.0
C903 C 0.10304 0.56558 0.56605 0.0
N904 N 0.09398 0.5421 0.56497 0.0
O905 O 0.16579 0.57536 0.58413 0.0
H906 H 0.13046 0.54 0.58913 0.0
H907 H 0.09823 0.58069 0.55981 0.0
O908 O 0.12142 0.58771 0.59818 0.0
C909 C 0.17403 0.57533 0.57287 0.0
O910 O 0.16118 0.58705 0.56425 0.0
N911 N 0.10971 0.61626 0.57847 0.0
C912 C 0.07666 0.6506 0.56848 0.0
C913 C 0.07273 0.64091 0.58054 0.0
C914 C 0.08966 0.62359 0.58543 0.0
C915 C 0.11383 0.62581 0.56689 0.0
C916 C 0.09732 0.64249 0.56161 0.0
H917 H 0.08694 0.61678 0.59481 0.0
H918 H 0.13007 0.62022 0.56163 0.0
H919 H 0.13292 0.6336 0.60551 0.0
H920 H 0.19095 0.6713 0.58687 0.0
H921 H 0.10099 0.50957 0.57645 0.0
H922 H 0.05717 0.64708 0.58624 0.0
H923 H 0.10087 0.64897 0.55219 0.0
C924 C 0.11326 0.57285 0.20309 0.0
C925 C 0.09382 0.56673 0.19533 0.0
N926 N 0.09041 0.58555 0.18719 0.0
N927 N 0.12254 0.59546 0.19988 0.0
C928 C 0.10809 0.60274 0.1901 0.0
H929 H 0.11964 0.56154 0.21079 0.0
Co930 Co 0.14837 0.61221 0.20864 0.0
C931 C 0.16686 0.65238 0.1922 0.0
O932 O 0.1684 0.66588 0.20239 0.0
N933 N 0.17478 0.62837 0.21747 0.0
C934 C 0.21403 0.63975 0.2215 0.0
C935 C 0.19891 0.62594 0.21387 0.0
C936 C 0.1759 0.64387 0.22747 0.0
N937 N 0.1996 0.65111 0.23006 0.0
O938 O 0.17038 0.58369 0.20657 0.0
H939 H 0.20515 0.61537 0.20586 0.0
H940 H 0.15982 0.6501 0.2327 0.0
O941 O 0.15907 0.62963 0.19292 0.0
C942 C 0.16754 0.57283 0.21718 0.0
O943 O 0.15107 0.58189 0.22503 0.0
N944 N 0.12572 0.63726 0.21263 0.0
C945 C 0.08589 0.6639 0.22238 0.0
C946 C 0.09439 0.66885 0.21022 0.0
C947 C 0.11421 0.65488 0.20538 0.0
C948 C 0.11739 0.63245 0.22439 0.0
C949 C 0.09779 0.6457 0.22951 0.0
H950 H 0.11931 0.6576 0.19574 0.0
H951 H 0.12593 0.61796 0.2299 0.0
H952 H 0.11035 0.62029 0.18521 0.0
H953 H 0.08241 0.55003 0.19595 0.0
H954 H 0.23406 0.64196 0.22051 0.0
H955 H 0.08516 0.68258 0.2044 0.0
H956 H 0.09184 0.64153 0.23896 0.0
C957 C 0.15483 0.34819 0.96215 0.0
C958 C 0.16031 0.32793 0.95485 0.0
N959 N 0.1531 0.33297 0.94311 0.0
N960 N 0.14414 0.36615 0.9551 0.0
C961 C 0.14346 0.35634 0.94343 0.0
H962 H 0.15713 0.34905 0.97215 0.0
Co963 Co 0.12945 0.39461 0.96234 0.0
C964 C 0.08926 0.41065 0.94564 0.0
O965 O 0.07608 0.41315 0.95591 0.0
N966 N 0.11515 0.42365 0.96979 0.0
C967 C 0.1054 0.46391 0.97195 0.0
C968 C 0.11936 0.44697 0.96536 0.0
C969 C 0.09846 0.42713 0.97917 0.0
N970 N 0.09208 0.45138 0.98059 0.0
O971 O 0.15892 0.41414 0.9588 0.0
H972 H 0.13122 0.45145 0.95749 0.0
H973 H 0.08969 0.41224 0.98435 0.0
O974 O 0.11205 0.40307 0.94635 0.0
C975 C 0.17137 0.4105 0.96885 0.0
O976 O 0.16258 0.39455 0.97707 0.0
N977 N 0.10342 0.37421 0.96763 0.0
C978 C 0.07779 0.33466 0.97847 0.0
C979 C 0.07457 0.34015 0.96576 0.0
C980 C 0.08811 0.3598 0.9604 0.0
C981 C 0.10657 0.36892 0.97996 0.0
C982 C 0.09359 0.3496 0.98563 0.0
H983 H 0.08764 0.3621 0.95039 0.0
H984 H 0.12015 0.37922 0.98536 0.0
H985 H 0.13465 0.36535 0.93554 0.0
H986 H 0.16819 0.31042 0.95802 0.0
H987 H 0.10482 0.48385 0.97031 0.0
H988 H 0.06314 0.32833 0.95987 0.0
H989 H 0.09674 0.34569 0.99543 0.0
C990 C 0.41485 0.38637 0.72032 0.0
C991 C 0.43536 0.39357 0.7135 0.0
N992 N 0.42907 0.394 0.70138 0.0
N993 N 0.39546 0.38138 0.71262 0.0
C994 C 0.40452 0.38771 0.70113 0.0
H995 H 0.41451 0.38518 0.73034 0.0
Co996 Co 0.36304 0.36859 0.71751 0.0
C997 C 0.37349 0.34039 0.69446 0.0
O998 O 0.39602 0.33732 0.69909 0.0
N999 N 0.33132 0.35692 0.72228 0.0
C1000 C 0.29159 0.34498 0.7215 0.0
C1001 C 0.31022 0.35807 0.71546 0.0
C1002 C 0.32488 0.34362 0.73255 0.0
N1003 N 0.30093 0.33551 0.73221 0.0
O1004 O 0.34838 0.40043 0.71375 0.0
H1005 H 0.30874 0.3671 0.70646 0.0
H1006 H 0.338 0.33874 0.73979 0.0
O1007 O 0.35774 0.35415 0.7004 0.0
C1008 C 0.3517 0.41164 0.72418 0.0
O1009 O 0.36513 0.40051 0.73279 0.0
N1010 N 0.37653 0.33837 0.72342 0.0
C1011 C 0.38956 0.29622 0.73732 0.0
C1012 C 0.37636 0.29384 0.72607 0.0
C1013 C 0.36918 0.31513 0.71954 0.0
C1014 C 0.38794 0.34096 0.73471 0.0
C1015 C 0.39482 0.32025 0.74174 0.0
H1016 H 0.3565 0.31279 0.71182 0.0
H1017 H 0.38965 0.35911 0.7389 0.0
H1018 H 0.39374 0.38646 0.69262 0.0
H1019 H 0.45368 0.39793 0.71721 0.0
H1020 H 0.27283 0.3422 0.71801 0.0
H1021 H 0.37139 0.27575 0.72231 0.0
H1022 H 0.40361 0.32316 0.75072 0.0
C1023 C 0.33455 0.63793 0.46133 0.0
C1024 C 0.32701 0.65926 0.45526 0.0
N1025 N 0.33766 0.65978 0.44386 0.0
N1026 N 0.34982 0.62471 0.45382 0.0
C1027 C 0.35111 0.63841 0.44315 0.0
H1028 H 0.33035 0.63323 0.47091 0.0
Co1029 Co 0.36921 0.59752 0.45938 0.0
C1030 C 0.37143 0.57966 0.43147 0.0
O1031 O 0.34832 0.57745 0.4275 0.0
N1032 N 0.38857 0.57036 0.4648 0.0
C1033 C 0.40258 0.53141 0.46647 0.0
C1034 C 0.38668 0.54702 0.46013 0.0
C1035 C 0.40566 0.56841 0.47403 0.0
N1036 N 0.41452 0.5449 0.47522 0.0
O1037 O 0.33935 0.57761 0.46161 0.0
H1038 H 0.37425 0.54158 0.45266 0.0
H1039 H 0.41107 0.58366 0.48004 0.0
O1040 O 0.37561 0.58683 0.44258 0.0
C1041 C 0.33516 0.57969 0.47334 0.0
O1042 O 0.35098 0.5926 0.48013 0.0
N1043 N 0.397 0.61806 0.45888 0.0
C1044 C 0.42223 0.66276 0.46089 0.0
C1045 C 0.42107 0.65069 0.44935 0.0
C1046 C 0.4085 0.62785 0.44855 0.0
C1047 C 0.39968 0.6289 0.47026 0.0
C1048 C 0.41263 0.65113 0.47152 0.0
H1049 H 0.40572 0.61991 0.43943 0.0
H1050 H 0.38952 0.62164 0.47819 0.0
H1051 H 0.36308 0.63377 0.43536 0.0
H1052 H 0.31527 0.67373 0.45917 0.0
H1053 H 0.40524 0.51169 0.46471 0.0
H1054 H 0.42813 0.65962 0.44097 0.0
H1055 H 0.41299 0.66037 0.48052 0.0
C1056 C 0.26275 0.17028 0.23886 0.0
C1057 C 0.28873 0.16617 0.23844 0.0
C1058 C 0.25254 0.18792 0.24699 0.0
C1059 C 0.26488 0.22293 0.27581 0.0
H1060 H 0.21624 0.26969 0.26266 0.0
C1061 C 0.23523 0.31003 0.30336 0.0
C1062 C 0.2103 0.3184 0.30263 0.0
C1063 C 0.24386 0.29083 0.29571 0.0
C1064 C 0.22947 0.25655 0.26656 0.0
H1065 H 0.32425 0.17742 0.24648 0.0
H1066 H 0.30631 0.2078 0.26084 0.0
H1067 H 0.23309 0.23713 0.24918 0.0
H1068 H 0.17499 0.31243 0.29305 0.0
H1069 H 0.18988 0.27844 0.28005 0.0
H1070 H 0.26114 0.24202 0.29321 0.0
C1071 C 0.29389 0.19725 0.25485 0.0
C1072 C 0.2392 0.23794 0.25881 0.0
C1073 C 0.30416 0.17973 0.24663 0.0
C1074 C 0.19424 0.30667 0.29402 0.0
C1075 C 0.20288 0.28723 0.28642 0.0
C1076 C 0.255 0.24138 0.28359 0.0
C1077 C 0.268 0.20174 0.255 0.0
C1078 C 0.25717 0.22106 0.26333 0.0
C1079 C 0.22783 0.27907 0.28717 0.0
C1080 C 0.23735 0.25862 0.27903 0.0
H1081 H 0.2502 0.15991 0.23288 0.0
H1082 H 0.23247 0.19067 0.24704 0.0
H1083 H 0.27841 0.20995 0.2796 0.0
H1084 H 0.24832 0.3181 0.30988 0.0
H1085 H 0.26331 0.28542 0.29643 0.0
C1086 C 0.92648 0.99095 0.55019 0.0
C1087 C 0.92095 0.9652 0.55071 0.0
C1088 C 0.94567 4e-05 0.5426 0.0
C1089 C 0.98442 0.98387 0.51521 0.0
H1090 H 0.02696 0.03721 0.5275 0.0
C1091 C 0.07246 0.01624 0.48877 0.0
C1092 C 0.07556 0.04217 0.48724 0.0
C1093 C 0.05434 0.00676 0.49689 0.0
C1094 C 0.0151 0.02245 0.52392 0.0
H1095 H 0.93178 0.92903 0.54315 0.0
H1096 H 0.96509 0.94494 0.53006 0.0
H1097 H 0.99387 0.02046 0.54082 0.0
H1098 H 0.06219 0.07845 0.49333 0.0
H1099 H 0.03086 0.06182 0.50768 0.0
H1100 H 0.00583 0.98576 0.49834 0.0
C1101 C 0.95432 0.95808 0.53555 0.0
C1102 C 0.99612 0.01287 0.53153 0.0
C1103 C 0.93511 0.94893 0.54316 0.0
C1104 C 0.0606 0.0584 0.49436 0.0
C1105 C 0.04256 0.04888 0.50257 0.0
C1106 C 0.0035 0.99334 0.50764 0.0
C1107 C 0.95993 0.98373 0.53524 0.0
C1108 C 0.98047 0.99354 0.52724 0.0
C1109 C 0.03901 0.02296 0.50376 0.0
C1110 C 0.01898 0.01277 0.5119 0.0
H1111 H 0.91613 0.00439 0.55563 0.0
H1112 H 0.94914 0.01998 0.5424 0.0
H1113 H 0.97247 0.96928 0.51154 0.0
H1114 H 0.08395 0.00318 0.48365 0.0
H1115 H 0.05233 0.9867 0.49779 0.0
C1116 C 0.2651 0.67362 0.7995 0.0
C1117 C 0.29108 0.67156 0.80111 0.0
C1118 C 0.25507 0.69213 0.79176 0.0
C1119 C 0.27166 0.73654 0.76635 0.0
H1120 H 0.21127 0.77038 0.77704 0.0
C1121 C 0.23478 0.8242 0.74097 0.0
C1122 C 0.20886 0.82574 0.73893 0.0
C1123 C 0.2447 0.80574 0.74876 0.0
C1124 C 0.228 0.76095 0.77385 0.0
H1125 H 0.32692 0.68752 0.79588 0.0
H1126 H 0.30949 0.71987 0.78248 0.0
H1127 H 0.2288 0.73725 0.78995 0.0
H1128 H 0.17306 0.80894 0.74358 0.0
H1129 H 0.19035 0.77683 0.75718 0.0
H1130 H 0.2709 0.76033 0.75028 0.0
C1131 C 0.29681 0.70687 0.78699 0.0
C1132 C 0.23805 0.7419 0.78125 0.0
C1133 C 0.30684 0.68826 0.79467 0.0
C1134 C 0.19306 0.80862 0.74508 0.0
C1135 C 0.203 0.79013 0.75288 0.0
C1136 C 0.26164 0.75563 0.75897 0.0
C1137 C 0.27077 0.70917 0.7855 0.0
C1138 C 0.26001 0.72942 0.77759 0.0
C1139 C 0.22898 0.78831 0.75471 0.0
C1140 C 0.23968 0.76808 0.76263 0.0
H1141 H 0.25249 0.66087 0.80422 0.0
H1142 H 0.23496 0.693 0.79066 0.0
H1143 H 0.28835 0.7271 0.76312 0.0
H1144 H 0.24743 0.83729 0.73654 0.0
H1145 H 0.26475 0.80519 0.75015 0.0
C1146 C 0.41731 0.9787 0.99446 0.0
C1147 C 0.41727 0.95423 0.98976 0.0
C1148 C 0.43514 0.98618 1.00316 0.0
C1149 C 0.49801 0.97076 1.01461 0.0
H1150 H 0.48014 0.01645 0.04122 0.0
C1151 C 0.5685 0.00342 0.05215 0.0
C1152 C 0.56775 0.02882 0.05547 0.0
C1153 C 0.55006 0.99317 0.04447 0.0
C1154 C 0.48547 0.00387 0.03377 0.0
H1155 H 0.4357 0.91822 0.99068 0.0
H1156 H 0.4667 0.93118 1.00613 0.0
H1157 H 0.44766 -0.00014 0.02764 0.0
H1158 H 0.54697 0.06331 0.05333 0.0
H1159 H 0.51511 0.04556 0.03975 0.0
H1160 H 0.53588 0.97493 0.02072 0.0
C1161 C 0.45305 0.94466 1.00293 0.0
C1162 C 0.46686 0.99433 0.026 0.0
C1163 C 0.43513 0.93716 0.9942 0.0
C1164 C 0.54826 0.04376 0.05085 0.0
C1165 C 0.52981 0.0335 0.0432 0.0
C1166 C 0.51665 0.98027 0.02241 0.0
C1167 C 0.45335 0.96934 1.00742 0.0
C1168 C 0.47294 0.97792 1.01623 0.0
C1169 C 0.53043 0.00806 0.03998 0.0
C1170 C 0.5106 -0.00284 0.03198 0.0
H1171 H 0.40362 0.99219 0.99133 0.0
H1172 H 0.435 0.0054 1.0063 0.0
H1173 H 0.50336 0.95841 1.00707 0.0
H1174 H 0.58339 0.99147 0.05544 0.0
H1175 H 0.55098 0.97347 0.04222 0.0
C1176 C 0.19269 0.68789 0.24369 0.0
C1177 C 0.20814 0.66845 0.23943 0.0
C1178 C 0.20188 0.70567 0.2521 0.0
C1179 C 0.25347 0.71683 0.27467 0.0
H1180 H 0.23636 0.78651 0.26983 0.0
C1181 C 0.30296 0.7961 0.30168 0.0
C1182 C 0.28745 0.81488 0.30655 0.0
C1183 C 0.29344 0.7785 0.29327 0.0
C1184 C 0.24116 0.7671 0.27137 0.0
H1185 H 0.24502 0.65201 0.24104 0.0
H1186 H 0.26115 0.68314 0.25535 0.0
H1187 H 0.2186 0.75495 0.25605 0.0
H1188 H 0.25009 0.83051 0.30601 0.0
H1189 H 0.23346 0.79976 0.29152 0.0
H1190 H 0.27617 0.72902 0.28993 0.0
C1191 C 0.24189 0.68463 0.25234 0.0
C1192 C 0.2309 0.74899 0.2635 0.0
C1193 C 0.23272 0.6669 0.24399 0.0
C1194 C 0.26243 0.81606 0.30258 0.0
C1195 C 0.25296 0.79859 0.29416 0.0
C1196 C 0.2638 0.73495 0.2825 0.0
C1197 C 0.22668 0.70436 0.25644 0.0
C1198 C 0.23695 0.72362 0.26504 0.0
C1199 C 0.26827 0.77946 0.28949 0.0
C1200 C 0.25776 0.76029 0.28095 0.0
H1201 H 0.17375 0.68975 0.24028 0.0
H1202 H 0.18955 0.72045 0.25519 0.0
H1203 H 0.25824 0.69744 0.27627 0.0
H1204 H 0.32226 0.79462 0.3046 0.0
H1205 H 0.30579 0.76414 0.28974 0.0
C1206 C 0.55627 0.94001 0.4944 0.0
C1207 C 0.57772 0.95419 0.49154 0.0
C1208 C 0.53716 0.95008 0.50173 0.0
C1209 C 0.52301 0.00098 0.52404 0.0
H1210 H 0.45448 0.98742 0.51437 0.0
C1211 C 0.43891 0.05019 0.54742 0.0
C1212 C 0.41831 0.03494 0.55042 0.0
C1213 C 0.45831 0.04106 0.53994 0.0
C1214 C 0.4735 0.99122 0.51726 0.0
H1215 H 0.59605 0.98986 0.49444 0.0
H1216 H 0.56247 0.00763 0.50696 0.0
H1217 H 0.48866 0.96967 0.50228 0.0
H1218 H 0.4016 -0.00153 0.54759 0.0
H1219 H 0.43549 0.98244 0.53474 0.0
H1220 H 0.50776 0.02255 0.53903 0.0
C1221 C 0.56056 0.98861 0.50365 0.0
C1222 C 0.49312 0.98099 0.51035 0.0
C1223 C 0.57972 0.97852 0.49636 0.0
C1224 C 0.41731 0.01059 0.54556 0.0
C1225 C 0.43663 0.00149 0.53808 0.0
C1226 C 0.50336 0.01125 0.53095 0.0
C1227 C 0.53894 0.9746 0.50633 0.0
C1228 C 0.51811 0.98564 0.51368 0.0
C1229 C 0.45747 0.01653 0.53527 0.0
C1230 C 0.47838 0.00639 0.52767 0.0
H1231 H 0.55385 0.92134 0.49075 0.0
H1232 H 0.52093 0.93862 0.50376 0.0
H1233 H 0.54203 0.00468 0.52697 0.0
H1234 H 0.44039 0.06893 0.55111 0.0
H1235 H 0.47398 0.0532 0.53783 0.0
C1236 C 0.20512 0.18517 0.80574 0.0
C1237 C 0.18139 0.17894 0.80108 0.0
C1238 C 0.22167 0.19965 0.79854 0.0
C1239 C 0.23381 0.22119 0.76615 0.0
H1240 H 0.262 0.28019 0.7817 0.0
C1241 C 0.26754 0.30454 0.73687 0.0
C1242 C 0.28914 0.31765 0.74055 0.0
C1243 C 0.25696 0.28628 0.74457 0.0
C1244 C 0.25464 0.26361 0.77724 0.0
H1245 H 0.15691 0.18155 0.78507 0.0
H1246 H 0.18552 0.20655 0.77255 0.0
H1247 H 0.24015 0.24925 0.7945 0.0
H1248 H 0.316 0.32184 0.75562 0.0
H1249 H 0.29789 0.28958 0.76885 0.0
H1250 H 0.2479 0.23553 0.74888 0.0
C1251 C 0.19149 0.20047 0.78172 0.0
C1252 C 0.24215 0.24585 0.78459 0.0
C1253 C 0.175 0.18632 0.78892 0.0
C1254 C 0.2996 0.31209 0.7523 0.0
C1255 C 0.28905 0.29367 0.76 0.0
C1256 C 0.24635 0.23883 0.75882 0.0
C1257 C 0.21484 0.20772 0.7865 0.0
C1258 C 0.23108 0.22475 0.77907 0.0
C1259 C 0.2677 0.28039 0.75618 0.0
C1260 C 0.2564 0.26058 0.76421 0.0
H1261 H 0.2104 0.17979 0.81512 0.0
H1262 H 0.23962 0.20481 0.80244 0.0
H1263 H 0.22585 0.20491 0.76165 0.0
H1264 H 0.25889 0.30792 0.72792 0.0
H1265 H 0.2402 0.27682 0.74142 0.0
C1266 C 0.06512 0.9588 0.04427 0.0
C1267 C 0.06786 0.96822 0.05643 0.0
C1268 C 0.04801 0.96948 0.03603 0.0
C1269 C 0.01122 0.02651 0.03002 0.0
H1270 H 0.97087 0.98155 1.01008 0.0
C1271 C 0.92849 0.05926 0.99878 0.0
C1272 C 0.92587 0.04693 0.98729 0.0
C1273 C 0.94618 0.05104 1.00749 0.0
C1274 C 0.98217 0.9944 1.01548 0.0
H1275 H 0.05468 0.99635 0.06942 0.0
H1276 H 0.02483 0.01501 0.05501 0.0
H1277 H 0.00116 0.96449 0.02464 0.0
H1278 H 0.94086 0.01763 0.97553 0.0
H1279 H 0.9717 0.00354 0.99053 0.0
H1280 H 0.99217 0.05644 0.02075 0.0
C1281 C 0.03617 -0.00047 0.05183 0.0
C1282 C -0.00046 0.9846 0.02382 0.0
C1283 C 0.05329 0.98881 0.06009 0.0
C1284 C 0.94194 0.02702 0.98445 0.0
C1285 C 0.95961 0.01894 0.99306 0.0
C1286 C 0.99382 0.03635 0.02162 0.0
C1287 C 0.03323 0.98985 0.03975 0.0
C1288 C 0.01443 0.00052 0.0311 0.0
C1289 C 0.9616 0.03046 1.00478 0.0
C1290 C 0.97932 0.02037 1.01415 0.0
H1291 H 0.07637 0.94331 0.04106 0.0
H1292 H 0.04649 0.96189 0.0267 0.0
H1293 H 0.02255 0.03925 0.03547 0.0
H1294 H 0.91634 0.07468 1.00118 0.0
H1295 H 0.94724 0.06028 1.01646 0.0
C1296 C 0.72798 0.81542 0.8027 0.0
C1297 C 0.70252 0.8144 0.80595 0.0
C1298 C 0.73809 0.7983 0.79429 0.0
C1299 C 0.7274 0.7357 0.7812 0.0
H1300 H 0.7751 0.7572 0.75604 0.0
C1301 C 0.76122 0.67021 0.74209 0.0
C1302 C 0.78633 0.67176 0.73826 0.0
C1303 C 0.75133 0.6875 0.75047 0.0
C1304 C 0.76208 0.75082 0.76312 0.0
H1305 H 0.66767 0.79466 0.80283 0.0
H1306 H 0.68527 0.76487 0.78799 0.0
H1307 H 0.75672 0.78786 0.77011 0.0
H1308 H 0.82081 0.69271 0.74039 0.0
H1309 H 0.80373 0.72253 0.75531 0.0
H1310 H 0.73285 0.69865 0.7743 0.0
C1311 C 0.69745 0.77883 0.79206 0.0
C1312 C 0.75149 0.76841 0.77116 0.0
C1313 C 0.6873 0.79605 0.80045 0.0
C1314 C 0.80146 0.69082 0.74321 0.0
C1315 C 0.79157 0.70812 0.75164 0.0
C1316 C 0.73806 0.71809 0.77319 0.0
C1317 C 0.72299 0.77969 0.78893 0.0
C1318 C 0.734 0.76105 0.78027 0.0
C1319 C 0.76632 0.70675 0.75532 0.0
C1320 C 0.75548 0.72543 0.76403 0.0
H1321 H 0.74014 0.82951 0.80665 0.0
H1322 H 0.75787 0.79935 0.79216 0.0
H1323 H 0.71431 0.72937 0.78825 0.0
H1324 H 0.7491 0.6556 0.73861 0.0
H1325 H 0.73175 0.68602 0.75297 0.0
C1326 C 0.79753 0.19288 0.29909 0.0
C1327 C 0.78292 0.17223 0.3027 0.0
C1328 C 0.78755 0.21141 0.29136 0.0
C1329 C 0.73617 0.22396 0.26911 0.0
H1330 H 0.74997 0.29321 0.27717 0.0
C1331 C 0.68678 0.3056 0.24382 0.0
C1332 C 0.70214 0.32575 0.2403 0.0
C1333 C 0.69584 0.28703 0.25183 0.0
C1334 C 0.7461 0.27396 0.27472 0.0
H1335 H 0.74668 0.15447 0.30068 0.0
H1336 H 0.72915 0.18695 0.28743 0.0
H1337 H 0.76815 0.26015 0.28986 0.0
H1338 H 0.73859 0.34276 0.2428 0.0
H1339 H 0.7545 0.31032 0.25653 0.0
H1340 H 0.71421 0.2378 0.25393 0.0
C1341 C 0.74835 0.18878 0.29049 0.0
C1342 C 0.75658 0.25501 0.28198 0.0
C1343 C 0.75831 0.17029 0.29821 0.0
C1344 C 0.72642 0.32732 0.24523 0.0
C1345 C 0.73544 0.30884 0.25321 0.0
C1346 C 0.7257 0.24293 0.26184 0.0
C1347 C 0.76277 0.20967 0.28706 0.0
C1348 C 0.75179 0.22979 0.27925 0.0
C1349 C 0.72038 0.28833 0.25651 0.0
C1350 C 0.73062 0.26815 0.26453 0.0
H1351 H 0.81646 0.19506 0.30246 0.0
H1352 H 0.79925 0.22713 0.28876 0.0
H1353 H 0.73237 0.2047 0.26666 0.0
H1354 H 0.66808 0.30376 0.24008 0.0
H1355 H 0.68367 0.27159 0.25431 0.0
C1356 C 0.76354 0.31975 0.80061 0.0
C1357 C 0.78758 0.32983 0.79864 0.0
C1358 C 0.75448 0.30043 0.7931 0.0
C1359 C 0.76533 0.26966 0.76253 0.0
H1360 H 0.72302 0.2178 0.7766 0.0
C1361 C 0.73547 0.18387 0.73392 0.0
C1362 C 0.70988 0.17776 0.73426 0.0
C1363 C 0.74553 0.20097 0.74238 0.0
C1364 C 0.73471 0.23224 0.77254 0.0
H1365 H 0.82075 0.32715 0.78697 0.0
H1366 H 0.80544 0.29299 0.77432 0.0
H1367 H 0.7396 0.25052 0.79011 0.0
H1368 H 0.67501 0.18446 0.74412 0.0
H1369 H 0.6927 0.21399 0.75896 0.0
H1370 H 0.7606 0.25121 0.74499 0.0
C1371 C 0.79334 0.30038 0.78153 0.0
C1372 C 0.74415 0.25106 0.78026 0.0
C1373 C 0.8023 0.31988 0.78895 0.0
C1374 C 0.69483 0.18843 0.74363 0.0
C1375 C 0.70495 0.20544 0.75214 0.0
C1376 C 0.75608 0.25074 0.75485 0.0
C1377 C 0.76927 0.29046 0.78346 0.0
C1378 C 0.75952 0.27009 0.77534 0.0
C1379 C 0.7303 0.21226 0.75144 0.0
C1380 C 0.74061 0.23187 0.75976 0.0
H1381 H 0.75164 0.32655 0.80802 0.0
H1382 H 0.73572 0.29355 0.79477 0.0
H1383 H 0.77664 0.28424 0.75834 0.0
H1384 H 0.74774 0.17567 0.72702 0.0
H1385 H 0.76524 0.20551 0.74176 0.0
C1386 C 0.75796 0.8263 0.24376 0.0
C1387 C 0.78332 0.82637 0.24028 0.0
C1388 C 0.74797 0.80669 0.2508 0.0
C1389 C 0.75964 0.74073 0.25927 0.0
H1390 H 0.71007 0.75355 0.28492 0.0
C1391 C 0.727 0.66503 0.29405 0.0
C1392 C 0.70171 0.66462 0.29763 0.0
C1393 C 0.73641 0.68437 0.28664 0.0
C1394 C 0.72364 0.74961 0.27767 0.0
H1395 H 0.81813 0.80577 0.24166 0.0
H1396 H 0.80091 0.77199 0.25429 0.0
H1397 H 0.72815 0.78838 0.27333 0.0
H1398 H 0.66633 0.68411 0.296 0.0
H1399 H 0.68263 0.71759 0.28279 0.0
H1400 H 0.75521 0.70197 0.26366 0.0
C1401 C 0.78862 0.78695 0.25136 0.0
C1402 C 0.73405 0.76959 0.27104 0.0
C1403 C 0.7986 0.80655 0.24427 0.0
C1404 C 0.68585 0.6837 0.29333 0.0
C1405 C 0.69527 0.70308 0.28589 0.0
C1406 C 0.74925 0.72075 0.26591 0.0
C1407 C 0.76312 0.78666 0.25461 0.0
C1408 C 0.75222 0.76541 0.26177 0.0
C1409 C 0.72074 0.70378 0.28258 0.0
C1410 C 0.73116 0.72495 0.27522 0.0
H1411 H 0.7457 0.84136 0.24097 0.0
H1412 H 0.72821 0.80699 0.25302 0.0
H1413 H 0.77323 0.73677 0.25204 0.0
H1414 H 0.73965 0.65049 0.29708 0.0
H1415 H 0.75615 0.68442 0.28437 0.0
C1416 C 0.5594 0.54739 0.99658 0.0
C1417 C 0.56475 0.53446 0.98548 0.0
C1418 C 0.54053 0.539 1.00461 0.0
C1419 C 0.48457 0.49792 1.00555 0.0
H1420 H 0.49533 0.4998 0.04132 0.0
C1421 C 0.42067 0.44622 0.04058 0.0
C1422 C 0.41362 0.45954 0.05131 0.0
C1423 C 0.43888 0.45579 0.03251 0.0
C1424 C 0.49199 0.49936 0.03136 0.0
H1425 H 0.55391 0.50272 0.97408 0.0
H1426 H 0.5219 0.48767 0.98823 0.0
H1427 H 0.52741 0.51613 0.0273 0.0
H1428 H 0.42045 0.49309 0.0621 0.0
H1429 H 0.45206 0.50989 0.04797 0.0
H1430 H 0.44929 0.48078 1.00964 0.0
C1431 C 0.53197 0.50454 0.99065 0.0
C1432 C 0.51031 0.50879 0.02332 0.0
C1433 C 0.55068 0.513 0.9826 0.0
C1434 C 0.42524 0.48255 0.05383 0.0
C1435 C 0.44354 0.49204 0.04582 0.0
C1436 C 0.46633 0.48835 1.01358 0.0
C1437 C 0.52664 0.51743 1.00175 0.0
C1438 C 0.50685 0.50811 1.01032 0.0
C1439 C 0.45052 0.47877 0.03507 0.0
C1440 C 0.46988 0.48894 0.02656 0.0
H1441 H 0.56995 0.56384 0.99917 0.0
H1442 H 0.53673 0.54952 1.01302 0.0
H1443 H 0.48109 0.49751 0.9956 0.0
H1444 H 0.4119 0.42854 0.03835 0.0
H1445 H 0.44404 0.44506 0.02434 0.0
C1446 C 0.05791 0.54899 0.55094 0.0
C1447 C 0.07595 0.53295 0.55609 0.0
C1448 C 0.0397 0.53973 0.54281 0.0
C1449 C 0.02558 0.48661 0.52199 0.0
H1450 H 0.95684 0.5078 0.52634 0.0
C1451 C 0.94432 0.44001 0.49524 0.0
C1452 C 0.92551 0.45586 0.49065 0.0
C1453 C 0.96249 0.44913 0.50345 0.0
C1454 C 0.97598 0.50188 0.5249 0.0
H1455 H 0.08941 0.49477 0.55646 0.0
H1456 H 0.05753 0.47858 0.54243 0.0
H1457 H 0.98927 0.52495 0.53978 0.0
H1458 H 0.91068 0.49353 0.49145 0.0
H1459 H 0.94263 0.50953 0.50534 0.0
H1460 H 0.01238 0.4637 0.50705 0.0
C1461 C 0.05751 0.49833 0.54462 0.0
C1462 C 0.99457 0.51174 0.5326 0.0
C1463 C 0.07563 0.50756 0.55277 0.0
C1464 C 0.92507 0.48087 0.49463 0.0
C1465 C 0.94325 0.48999 0.50276 0.0
C1466 C 0.00701 0.47682 0.51425 0.0
C1467 C 0.03924 0.51426 0.53961 0.0
C1468 C 0.01957 0.50419 0.53125 0.0
C1469 C 0.96227 0.47429 0.50722 0.0
C1470 C 0.98198 0.48433 0.51561 0.0
H1471 H 0.05749 0.56858 0.5534 0.0
H1472 H 0.02602 0.55253 0.539 0.0
H1473 H 0.04473 0.48066 0.52061 0.0
H1474 H 0.94538 0.42072 0.49231 0.0
H1475 H 0.97669 0.43643 0.50683 0.0
C1476 C 0.06602 0.44842 0.99966 0.0
C1477 C 0.07314 0.46136 0.98878 0.0
C1478 C 0.04708 0.45767 1.00735 0.0
C1479 C 0.99316 0.50085 1.00714 0.0
H1480 H -0.00096 0.49601 0.04313 0.0
C1481 C 0.92554 0.55063 0.04091 0.0
C1482 C 0.9172 0.53688 0.05131 0.0
C1483 C 0.94442 0.54129 0.03322 0.0
C1484 C 0.99704 0.49727 0.03309 0.0
H1485 H 0.06574 0.4943 0.97752 0.0
H1486 H 0.03343 0.51078 0.99113 0.0
H1487 H 0.03259 0.48017 0.02992 0.0
H1488 H 0.92221 0.50261 0.06182 0.0
H1489 H 0.955 0.48614 0.0483 0.0
H1490 H 0.9577 0.51817 1.01035 0.0
C1491 C 0.04219 0.49323 0.9936 0.0
C1492 C 0.01623 0.48817 0.02552 0.0
C1493 C 0.06103 0.48393 0.98588 0.0
C1494 C 0.92804 0.51351 0.05381 0.0
C1495 C 0.94701 0.50423 0.04615 0.0
C1496 C 0.97404 0.51005 1.01472 0.0
C1497 C 0.03488 0.48014 1.00438 0.0
C1498 C 0.01451 0.48984 1.01245 0.0
C1499 C 0.95545 0.51806 0.03581 0.0
C1500 C 0.97576 0.50832 0.02777 0.0
H1501 H 0.0751 0.43115 1.00228 0.0
H1502 H 0.04175 0.44698 1.01553 0.0
H1503 H 0.99104 0.50205 0.9971 0.0
H1504 H 0.91738 0.56857 0.03867 0.0
H1505 H 0.95066 0.55245 0.02536 0.0
C1506 C 0.58239 0.4859 0.54684 0.0
C1507 C 0.58116 0.46117 0.55123 0.0
C1508 C 0.56444 0.49501 0.53856 0.0
C1509 C 0.51686 0.47472 0.51584 0.0
H1510 H 0.48981 0.54107 0.52105 0.0
C1511 C 0.43231 0.51087 0.48799 0.0
C1512 C 0.43274 0.53591 0.48403 0.0
C1513 C 0.45031 0.5019 0.49628 0.0
C1514 C 0.49739 0.52263 0.51937 0.0
H1515 H 0.55978 0.42667 0.55039 0.0
H1516 H 0.52863 0.44251 0.53588 0.0
H1517 H 0.52168 0.52505 0.53517 0.0
H1518 H 0.45247 0.57115 0.48564 0.0
H1519 H 0.48408 0.55548 0.50002 0.0
H1520 H 0.49272 0.47231 0.50001 0.0
C1521 C 0.5437 0.45477 0.53874 0.0
C1522 C 0.51564 0.51345 0.52747 0.0
C1523 C 0.56163 0.44567 0.54704 0.0
C1524 C 0.45145 0.55185 0.48864 0.0
C1525 C 0.46955 0.54285 0.49689 0.0
C1526 C 0.49867 0.48393 0.50772 0.0
C1527 C 0.54484 0.47958 0.53445 0.0
C1528 C 0.52556 0.48938 0.5258 0.0
C1529 C 0.46926 0.51773 0.50077 0.0
C1530 C 0.48868 0.50799 0.50939 0.0
H1531 H 0.59736 0.49822 0.54973 0.0
H1532 H 0.56606 0.51409 0.53527 0.0
H1533 H 0.52439 0.45624 0.51421 0.0
H1534 H 0.41789 0.49822 0.48479 0.0
H1535 H 0.4492 0.48258 0.49927 0.0
C1536 C 0.33472 0.16342 0.17758 0.0
C1537 C 0.3598 0.157 0.17991 0.0
C1538 C 0.32895 0.18235 0.16891 0.0
C1539 C 0.35676 0.23923 0.15595 0.0
H1540 H 0.31089 0.23297 0.1282 0.0
C1541 C 0.35668 0.31095 0.11578 0.0
C1542 C 0.33425 0.31598 0.10947 0.0
C1543 C 0.35776 0.2921 0.12483 0.0
C1544 C 0.32344 0.23529 0.13603 0.0
H1545 H 0.39823 0.16437 0.1744 0.0
H1546 H 0.38817 0.19709 0.15959 0.0
H1547 H 0.31528 0.19847 0.14303 0.0
H1548 H 0.2951 0.30586 0.10813 0.0
H1549 H 0.29672 0.27355 0.12414 0.0
H1550 H 0.36482 0.27596 0.14924 0.0
C1551 C 0.37301 0.18786 0.16451 0.0
C1552 C 0.32596 0.21543 0.1445 0.0
C1553 C 0.37872 0.16897 0.17297 0.0
C1554 C 0.31276 0.30219 0.1127 0.0
C1555 C 0.31375 0.28354 0.12185 0.0
C1556 C 0.35401 0.25915 0.14763 0.0
C1557 C 0.34819 0.19523 0.16259 0.0
C1558 C 0.34307 0.21702 0.15437 0.0
C1559 C 0.33633 0.27799 0.12796 0.0
C1560 C 0.33774 0.25733 0.13737 0.0
H1561 H 0.31974 0.15469 0.18283 0.0
H1562 H 0.30961 0.18767 0.16755 0.0
H1563 H 0.36985 0.2411 0.1636 0.0
H1564 H 0.37363 0.32098 0.1134 0.0
H1565 H 0.37564 0.28818 0.12912 0.0
C1566 C 0.94464 0.06439 0.35784 0.0
C1567 C 0.92593 0.0829 0.35803 0.0
C1568 C 0.96404 0.06449 0.36657 0.0
C1569 C 0.98332 0.08675 0.39751 0.0
H1570 H 0.05061 0.082 0.38412 0.0
C1571 C 0.07199 0.08187 0.42892 0.0
C1572 C 0.08907 0.10118 0.42629 0.0
C1573 C 0.05256 0.07646 0.42053 0.0
C1574 C 0.03193 0.08316 0.388 0.0
H1575 H 0.91276 0.11552 0.36808 0.0
H1576 H 0.94637 0.11521 0.38354 0.0
H1577 H 0.01473 0.07949 0.37004 0.0
H1578 H 0.10002 0.12912 0.41274 0.0
H1579 H 0.06711 0.11874 0.3978 0.0
H1580 H 0.00067 0.09052 0.41549 0.0
C1581 C 0.94596 0.10074 0.37648 0.0
C1582 C 0.01138 0.08167 0.37996 0.0
C1583 C 0.92663 0.10086 0.36762 0.0
C1584 C 0.08738 0.11383 0.41485 0.0
C1585 C 0.06844 0.108 0.40635 0.0
C1586 C 0.00391 0.0878 0.4056 0.0
C1587 C 0.96516 0.08284 0.37588 0.0
C1588 C 0.98684 0.08371 0.38459 0.0
C1589 C 0.05033 0.08986 0.40927 0.0
C1590 C 0.02844 0.0863 0.4009 0.0
H1591 H 0.94454 0.04983 0.35086 0.0
H1592 H 0.97829 0.05017 0.36599 0.0
H1593 H 0.96464 0.08823 0.40137 0.0
H1594 H 0.07255 0.07221 0.43781 0.0
H1595 H 0.03889 0.06231 0.42299 0.0
C1596 C 0.16488 0.82025 0.68154 0.0
C1597 C 0.14618 0.83805 0.67915 0.0
C1598 C 0.16989 0.80134 0.67283 0.0
C1599 C 0.17172 0.78162 0.64144 0.0
H1600 H 0.13914 0.71903 0.64985 0.0
C1601 C 0.16264 0.70311 0.60478 0.0
C1602 C 0.16134 0.6781 0.60867 0.0
C1603 C 0.16216 0.72256 0.61349 0.0
C1604 C 0.14889 0.73606 0.64738 0.0
H1605 H 0.11898 0.85084 0.66568 0.0
H1606 H 0.12887 0.81873 0.65012 0.0
H1607 H 0.13848 0.75352 0.66467 0.0
H1608 H 0.15876 0.65372 0.62471 0.0
H1609 H 0.15937 0.6874 0.64005 0.0
H1610 H 0.18299 0.76439 0.62439 0.0
C1611 C 0.13929 0.81918 0.65878 0.0
C1612 C 0.14832 0.7559 0.65589 0.0
C1613 C 0.1338 0.83761 0.66761 0.0
C1614 C 0.15957 0.67289 0.62148 0.0
C1615 C 0.15978 0.69233 0.63025 0.0
C1616 C 0.17282 0.76163 0.63302 0.0
C1617 C 0.15675 0.80042 0.66149 0.0
C1618 C 0.15947 0.7789 0.65292 0.0
C1619 C 0.16107 0.71757 0.62641 0.0
C1620 C 0.16106 0.73858 0.63574 0.0
H1621 H 0.17431 0.81984 0.69048 0.0
H1622 H 0.18336 0.78695 0.6751 0.0
H1623 H 0.18042 0.79925 0.63896 0.0
H1624 H 0.16366 0.70763 0.59493 0.0
H1625 H 0.16237 0.74153 0.60998 0.0
C1626 C 0.55267 0.88935 0.86596 0.0
C1627 C 0.55693 0.90854 0.85717 0.0
C1628 C 0.5323 0.89051 0.87425 0.0
C1629 C 0.46981 0.9193 0.87761 0.0
H1630 H 0.47602 0.90146 0.91255 0.0
C1631 C 0.38424 0.9056 0.91054 0.0
C1632 C 0.3862 0.91503 0.92274 0.0
C1633 C 0.40494 0.90583 0.90248 0.0
C1634 C 0.474 0.90663 0.90282 0.0
H1635 H 0.54335 0.94458 0.85079 0.0
H1636 H 0.50795 0.94628 0.86497 0.0
H1637 H 0.51271 0.89948 0.8989 0.0
H1638 H 0.41119 0.93369 0.93568 0.0
H1639 H 0.44731 0.93358 0.92173 0.0
H1640 H 0.43114 0.92644 0.8815 0.0
C1641 C 0.52013 0.93015 0.86533 0.0
C1642 C 0.49499 0.90525 0.89498 0.0
C1643 C 0.54053 0.92912 0.85715 0.0
C1644 C 0.4091 0.9257 0.92646 0.0
C1645 C 0.42986 0.92563 0.91847 0.0
C1646 C 0.4488 0.92041 0.88541 0.0
C1647 C 0.51556 0.91077 0.8739 0.0
C1648 C 0.49319 0.91169 0.88227 0.0
C1649 C 0.42817 0.91534 0.90644 0.0
C1650 C 0.45061 0.91418 0.89813 0.0
H1651 H 0.56461 0.87309 0.86626 0.0
H1652 H 0.52927 0.87519 0.88069 0.0
H1653 H 0.46768 0.92418 0.86785 0.0
H1654 H 0.367 0.89711 0.90736 0.0
H1655 H 0.40298 0.8977 0.89328 0.0
C1656 C 0.32941 0.82546 0.36379 0.0
C1657 C 0.32809 0.84984 0.36869 0.0
C1658 C 0.3301 0.80461 0.37168 0.0
C1659 C 0.34413 0.78676 0.40456 0.0
H1660 H 0.31312 0.724 0.3952 0.0
C1661 C 0.33356 0.70502 0.43937 0.0
C1662 C 0.33728 0.68045 0.4351 0.0
C1663 C 0.33292 0.72513 0.43103 0.0
C1664 C 0.32215 0.74129 0.39789 0.0
H1665 H 0.32516 0.87116 0.38578 0.0
H1666 H 0.32554 0.83478 0.39957 0.0
H1667 H 0.30972 0.76009 0.38137 0.0
H1668 H 0.34353 0.65795 0.41861 0.0
H1669 H 0.34254 0.6932 0.40396 0.0
H1670 H 0.35632 0.76803 0.42113 0.0
C1671 C 0.32686 0.8318 0.3896 0.0
C1672 C 0.32019 0.76207 0.38995 0.0
C1673 C 0.32636 0.85271 0.38169 0.0
C1674 C 0.34065 0.6766 0.42222 0.0
C1675 C 0.33987 0.6968 0.41382 0.0
C1676 C 0.34597 0.76605 0.4125 0.0
C1677 C 0.32914 0.80744 0.38473 0.0
C1678 C 0.33106 0.78518 0.39319 0.0
C1679 C 0.33599 0.72135 0.41813 0.0
C1680 C 0.3349 0.74305 0.40933 0.0
H1681 H 0.33039 0.82246 0.3538 0.0
H1682 H 0.33207 0.7863 0.36752 0.0
H1683 H 0.35328 0.80396 0.40728 0.0
H1684 H 0.33136 0.70887 0.44922 0.0
H1685 H 0.32964 0.74367 0.4347 0.0
C1686 C 0.4336 0.06166 0.60852 0.0
C1687 C 0.41103 0.07509 0.60818 0.0
C1688 C 0.44926 0.06269 0.61889 0.0
C1689 C 0.46348 0.10186 0.64669 0.0
H1690 H 0.50808 0.04674 0.6541 0.0
C1691 C 0.53164 0.10076 0.68899 0.0
C1692 C 0.55617 0.09234 0.68674 0.0
C1693 C 0.51315 0.09871 0.6798 0.0
C1694 C 0.4959 0.06237 0.65209 0.0
H1695 H 0.38674 0.0994 0.61881 0.0
H1696 H 0.41373 0.10045 0.63733 0.0
H1697 H 0.47565 0.04159 0.63844 0.0
H1698 H 0.5805 0.07548 0.67299 0.0
H1699 H 0.54805 0.07151 0.65694 0.0
H1700 H 0.48359 0.12231 0.66069 0.0
C1701 C 0.41959 0.08952 0.62935 0.0
C1702 C 0.47724 0.05949 0.64306 0.0
C1703 C 0.40386 0.08862 0.61882 0.0
C1704 C 0.5618 0.08207 0.67501 0.0
C1705 C 0.54318 0.07968 0.66586 0.0
C1706 C 0.48194 0.10459 0.65589 0.0
C1707 C 0.44281 0.07693 0.62943 0.0
C1708 C 0.46099 0.07932 0.64003 0.0
C1709 C 0.5186 0.08794 0.66817 0.0
C1710 C 0.49861 0.08499 0.65857 0.0
H1711 H 0.43981 0.05108 0.60048 0.0
H1712 H 0.46703 0.05311 0.61834 0.0
H1713 H 0.4517 0.11773 0.64457 0.0
H1714 H 0.52674 0.10917 0.69784 0.0
H1715 H 0.49443 0.10516 0.68191 0.0
C1716 C 0.1622 0.32194 0.92112 0.0
C1717 C 0.1532 0.31531 0.93298 0.0
C1718 C 0.16528 0.30365 0.91185 0.0
C1719 C 0.16991 0.23396 0.90855 0.0
H1720 H 0.16309 0.24836 0.87326 0.0
C1721 C 0.16244 0.15776 0.87035 0.0
C1722 C 0.1775 0.16089 0.85968 0.0
C1723 C 0.16086 0.1766 0.87935 0.0
C1724 C 0.16523 0.24414 0.88309 0.0
H1725 H 0.13875 0.28495 0.94423 0.0
H1726 H 0.14276 0.25345 0.92807 0.0
H1727 H 0.1562 0.28155 0.8885 0.0
H1728 H 0.20278 0.18631 0.85015 0.0
H1729 H 0.19974 0.21938 0.86586 0.0
H1730 H 0.178 0.19632 0.90309 0.0
C1731 C 0.14871 0.27233 0.92595 0.0
C1732 C 0.16138 0.2632 0.89185 0.0
C1733 C 0.14612 0.29044 0.93521 0.0
C1734 C 0.19132 0.18314 0.85835 0.0
C1735 C 0.18935 0.2022 0.86725 0.0
C1736 C 0.17329 0.21488 0.89982 0.0
C1737 C 0.15899 0.27843 0.91422 0.0
C1738 C 0.16353 0.25837 0.90474 0.0
C1739 C 0.17392 0.1992 0.87779 0.0
C1740 C 0.17097 0.21973 0.887 0.0
H1741 H 0.16789 0.341 0.91923 0.0
H1742 H 0.17339 0.30918 0.903 0.0
H1743 H 0.1725 0.22949 0.91832 0.0
H1744 H 0.15136 0.14095 0.87157 0.0
H1745 H 0.14872 0.17382 0.88735 0.0
C1746 C 0.94025 0.93171 0.17996 0.0
C1747 C 0.92769 0.90956 0.18329 0.0
C1748 C 0.96025 0.93138 0.17156 0.0
C1749 C 0.99168 0.893 0.14724 0.0
H1750 H 0.04735 0.93738 0.15417 0.0
C1751 C 0.07146 0.90921 0.11159 0.0
C1752 C 0.09609 0.91175 0.11606 0.0
C1753 C 0.05114 0.90841 0.11982 0.0
C1754 C 0.03213 0.92466 0.15214 0.0
H1755 H 0.92599 0.86968 0.18005 0.0
H1756 H 0.96114 0.86896 0.16536 0.0
H1757 H 0.01169 0.9363 0.16828 0.0
H1758 H 0.11848 0.91587 0.13275 0.0
H1759 H 0.083 0.91435 0.14717 0.0
H1760 H 0.01246 0.88095 0.13124 0.0
C1761 C 0.95533 0.88672 0.16921 0.0
C1762 C 0.01142 0.92429 0.16016 0.0
C1763 C 0.93513 0.88709 0.17762 0.0
C1764 C 0.0998 0.91392 0.12899 0.0
C1765 C 0.0794 0.91311 0.13725 0.0
C1766 C 0.01245 0.89333 0.13923 0.0
C1767 C 0.96844 0.90884 0.16622 0.0
C1768 C 0.99079 0.9086 0.15778 0.0
C1769 C 0.05478 0.91019 0.13278 0.0
C1770 C 0.03292 0.90928 0.14152 0.0
H1771 H 0.93469 0.94942 0.18395 0.0
H1772 H 0.96931 0.9489 0.16925 0.0
H1773 H 0.97614 0.8808 0.14503 0.0
H1774 H 0.06776 0.90793 0.10168 0.0
H1775 H 0.0325 0.90672 0.11597 0.0
C1776 C 0.64763 0.67544 0.92298 0.0
C1777 C 0.65784 0.67785 0.93501 0.0
C1778 C 0.64741 0.69584 0.91473 0.0
C1779 C 0.64961 0.76475 0.91377 0.0
H1780 H 0.67254 0.75589 0.87974 0.0
C1781 C 0.66186 0.84942 0.88037 0.0
C1782 C 0.65627 0.84589 0.86769 0.0
C1783 C 0.66277 0.82899 0.8886 0.0
C1784 C 0.66567 0.75875 0.88914 0.0
H1785 H 0.67512 0.70381 0.94789 0.0
H1786 H 0.67454 0.73933 0.93359 0.0
H1787 H 0.67123 0.72019 0.89385 0.0
H1788 H 0.64832 0.8177 0.85367 0.0
H1789 H 0.64849 0.7827 0.86795 0.0
H1790 H 0.64338 0.80308 0.90907 0.0
C1791 C 0.66684 0.72166 0.9305 0.0
C1792 C 0.66501 0.73819 0.89725 0.0
C1793 C 0.66739 0.70123 0.93866 0.0
C1794 C 0.65215 0.82136 0.86341 0.0
C1795 C 0.65268 0.80106 0.87163 0.0
C1796 C 0.64992 0.78525 0.90562 0.0
C1797 C 0.657 0.71921 0.91841 0.0
C1798 C 0.65705 0.74095 0.90967 0.0
C1799 C 0.65793 0.80448 0.88438 0.0
C1800 C 0.65801 0.78262 0.89317 0.0
H1801 H 0.64026 0.65766 0.91987 0.0
H1802 H 0.63955 0.69339 0.9055 0.0
H1803 H 0.64314 0.76745 0.92326 0.0
H1804 H 0.66538 0.86799 0.88397 0.0
H1805 H 0.66741 0.83246 0.89827 0.0
C1806 C 0.033 0.90427 0.68934 0.0
C1807 C 0.05837 0.90913 0.68676 0.0
C1808 C 0.01501 0.90548 0.6799 0.0
C1809 C 0.00138 0.93548 0.6502 0.0
H1810 H 0.95344 0.88191 0.64533 0.0
C1811 C 0.93902 0.9328 0.60681 0.0
C1812 C 0.91559 0.9208 0.60698 0.0
C1813 C 0.95469 0.93229 0.61716 0.0
C1814 C 0.96628 0.89732 0.64669 0.0
H1815 H 0.08472 0.9189 0.67219 0.0
H1816 H 0.05304 0.92167 0.65564 0.0
H1817 H 0.98482 0.87852 0.66178 0.0
H1818 H 0.88987 0.89961 0.6185 0.0
H1819 H 0.9169 0.89969 0.63702 0.0
H1820 H 0.98259 0.95486 0.63558 0.0
C1821 C 0.04722 0.91677 0.66503 0.0
C1822 C 0.98445 0.89522 0.65606 0.0
C1823 C 0.06535 0.91509 0.67446 0.0
C1824 C 0.90769 0.90923 0.6181 0.0
C1825 C 0.92342 0.90896 0.62864 0.0
C1826 C 0.98295 0.93783 0.64103 0.0
C1827 C 0.02185 0.91194 0.66766 0.0
C1828 C 0.00242 0.91413 0.65779 0.0
C1829 C 0.94738 0.92017 0.62823 0.0
C1830 C 0.96537 0.91859 0.63894 0.0
H1831 H 0.02706 0.89924 0.69868 0.0
H1832 H 0.99563 0.90179 0.68223 0.0
H1833 H 0.01464 0.95058 0.65148 0.0
H1834 H 0.94583 0.94192 0.59842 0.0
H1835 H 0.97304 0.94065 0.61622 0.0
C1836 C 0.84871 0.16025 0.36879 0.0
C1837 C 0.82744 0.15885 0.36117 0.0
C1838 C 0.84985 0.17772 0.37854 0.0
C1839 C 0.81927 0.23778 0.38764 0.0
H1840 H 0.85996 0.23157 0.41738 0.0
C1841 C 0.81432 0.30821 0.42816 0.0
C1842 C 0.83698 0.31691 0.43317 0.0
C1843 C 0.81401 0.28865 0.41955 0.0
C1844 C 0.84868 0.23361 0.40905 0.0
H1845 H 0.79001 0.17291 0.35834 0.0
H1846 H 0.79102 0.20165 0.37587 0.0
H1847 H 0.85647 0.19626 0.40302 0.0
H1848 H 0.87714 0.31184 0.43309 0.0
H1849 H 0.87662 0.27722 0.41803 0.0
H1850 H 0.811 0.27485 0.39385 0.0
C1851 C 0.80743 0.19042 0.37405 0.0
C1852 C 0.84667 0.21337 0.40079 0.0
C1853 C 0.80657 0.17349 0.36415 0.0
C1854 C 0.85944 0.30566 0.42929 0.0
C1855 C 0.8591 0.28572 0.42079 0.0
C1856 C 0.82098 0.25777 0.39596 0.0
C1857 C 0.82953 0.19378 0.38098 0.0
C1858 C 0.83176 0.21508 0.38999 0.0
C1859 C 0.83635 0.27701 0.41583 0.0
C1860 C 0.83559 0.25592 0.40679 0.0
H1861 H 0.86523 0.14946 0.36658 0.0
H1862 H 0.86725 0.17965 0.38359 0.0
H1863 H 0.8083 0.24037 0.37926 0.0
H1864 H 0.79677 0.3166 0.43093 0.0
H1865 H 0.79618 0.28229 0.41596 0.0
C1866 C 0.60495 0.07898 0.12888 0.0
C1867 C 0.60073 0.07809 0.11596 0.0
C1868 C 0.58484 0.07795 0.13731 0.0
C1869 C 0.51539 0.08651 0.13878 0.0
H1870 H 0.52299 0.05536 0.17121 0.0
C1871 C 0.43991 0.09629 0.17737 0.0
C1872 C 0.43672 0.07672 0.186 0.0
C1873 C 0.45929 0.09563 0.16855 0.0
C1874 C 0.5203 0.06387 0.16213 0.0
H1875 H 0.57201 0.07448 0.10177 0.0
H1876 H 0.53729 0.07191 0.11635 0.0
H1877 H 0.55763 0.05485 0.15652 0.0
H1878 H 0.45076 0.04062 0.19177 0.0
H1879 H 0.48392 0.0389 0.17615 0.0
H1880 H 0.47775 0.09463 0.14416 0.0
C1881 C 0.55596 0.0742 0.12007 0.0
C1882 C 0.54045 0.06394 0.15375 0.0
C1883 C 0.57599 0.07547 0.11168 0.0
C1884 C 0.45288 0.0561 0.18533 0.0
C1885 C 0.47206 0.05526 0.17641 0.0
C1886 C 0.49515 0.08617 0.1471 0.0
C1887 C 0.55999 0.07575 0.13302 0.0
C1888 C 0.53837 0.07537 0.14195 0.0
C1889 C 0.47587 0.0752 0.16801 0.0
C1890 C 0.4973 0.07496 0.15895 0.0
H1891 H 0.62373 0.08115 0.13249 0.0
H1892 H 0.58879 0.07952 0.14718 0.0
H1893 H 0.51301 0.09584 0.12988 0.0
H1894 H 0.42805 0.11264 0.17775 0.0
H1895 H 0.46171 0.11158 0.16244 0.0
C1896 C 0.64994 0.31938 0.6206 0.0
C1897 C 0.65678 0.3151 0.60811 0.0
C1898 C 0.64894 0.29947 0.62918 0.0
C1899 C 0.64206 0.23089 0.63084 0.0
H1900 H 0.67674 0.23542 0.66249 0.0
C1901 C 0.65941 0.14275 0.66036 0.0
C1902 C 0.65847 0.14443 0.67343 0.0
C1903 C 0.65893 0.16426 0.65292 0.0
C1904 C 0.6666 0.23387 0.65379 0.0
H1905 H 0.66693 0.28651 0.59474 0.0
H1906 H 0.66496 0.25204 0.60954 0.0
H1907 H 0.67477 0.27193 0.64878 0.0
H1908 H 0.6579 0.17046 0.68892 0.0
H1909 H 0.65576 0.20788 0.67601 0.0
H1910 H 0.63344 0.19319 0.63576 0.0
C1911 C 0.66057 0.27068 0.61279 0.0
C1912 C 0.66551 0.25486 0.64593 0.0
C1913 C 0.6619 0.2905 0.60432 0.0
C1914 C 0.65794 0.16834 0.67888 0.0
C1915 C 0.65708 0.18991 0.67144 0.0
C1916 C 0.64286 0.21007 0.63872 0.0
C1917 C 0.65425 0.27488 0.62534 0.0
C1918 C 0.65357 0.25347 0.63427 0.0
C1919 C 0.65727 0.18819 0.65832 0.0
C1920 C 0.65552 0.21104 0.65023 0.0
H1921 H 0.64597 0.33815 0.62378 0.0
H1922 H 0.64389 0.30327 0.63879 0.0
H1923 H 0.63239 0.2293 0.62199 0.0
H1924 H 0.66019 0.12472 0.6558 0.0
H1925 H 0.6599 0.16202 0.64289 0.0
C1926 C 0.42542 0.91379 0.37057 0.0
C1927 C 0.43002 0.90659 0.35819 0.0
C1928 C 0.44504 0.91477 0.37924 0.0
C1929 C 0.50588 0.88945 0.38743 0.0
H1930 H 0.51883 0.95348 0.40292 0.0
C1931 C 0.58774 0.90179 0.42273 0.0
C1932 C 0.58321 0.91787 0.43284 0.0
C1933 C 0.5712 0.9012 0.41251 0.0
C1934 C 0.51535 0.93525 0.39893 0.0
H1935 H 0.45829 0.89354 0.34529 0.0
H1936 H 0.49245 0.8944 0.36056 0.0
H1937 H 0.48425 0.94918 0.38842 0.0
H1938 H 0.55846 0.9468 0.43977 0.0
H1939 H 0.52966 0.94504 0.42266 0.0
H1940 H 0.53603 0.87501 0.39838 0.0
C1941 C 0.47382 0.89976 0.36348 0.0
C1942 C 0.49552 0.93292 0.39052 0.0
C1943 C 0.45436 0.89942 0.35476 0.0
C1944 C 0.56264 0.93414 0.43217 0.0
C1945 C 0.54604 0.93327 0.42218 0.0
C1946 C 0.52537 0.89157 0.39614 0.0
C1947 C 0.46945 0.90784 0.37575 0.0
C1948 C 0.49049 0.91 0.38474 0.0
C1949 C 0.54968 0.91652 0.41224 0.0
C1950 C 0.5303 0.9145 0.40214 0.0
H1951 H 0.40681 0.91938 0.37341 0.0
H1952 H 0.44118 0.92099 0.38866 0.0
H1953 H 0.50241 0.87156 0.38305 0.0
H1954 H 0.60328 0.88888 0.42297 0.0
H1955 H 0.57506 0.88834 0.40497 0.0
C1956 C 0.84074 0.83879 0.17339 0.0
C1957 C 0.82799 0.83145 0.18427 0.0
C1958 C 0.84154 0.82281 0.16297 0.0
C1959 C 0.81279 0.76343 0.15043 0.0
H1960 H 0.87428 0.75961 0.13134 0.0
C1961 C 0.83746 0.67925 0.11876 0.0
C1962 C 0.84321 0.6858 0.10639 0.0
C1963 C 0.836 0.69771 0.12802 0.0
C1964 C 0.857 0.76052 0.13662 0.0
H1965 H 0.80522 0.80209 0.19253 0.0
H1966 H 0.80743 0.7744 0.17497 0.0
H1967 H 0.86965 0.79181 0.14731 0.0
H1968 H 0.85315 0.71644 0.0941 0.0
H1969 H 0.85125 0.74852 0.1103 0.0
H1970 H 0.80071 0.73141 0.14006 0.0
C1971 C 0.81633 0.7925 0.17409 0.0
C1972 C 0.85419 0.77916 0.14569 0.0
C1973 C 0.81526 0.80844 0.18431 0.0
C1974 C 0.84846 0.71094 0.10355 0.0
C1975 C 0.84753 0.72925 0.11281 0.0
C1976 C 0.81586 0.74451 0.14159 0.0
C1977 C 0.82972 0.79917 0.16329 0.0
C1978 C 0.8321 0.78077 0.15283 0.0
C1979 C 0.84087 0.72292 0.12509 0.0
C1980 C 0.83802 0.74277 0.13465 0.0
H1981 H 0.85091 0.8563 0.17311 0.0
H1982 H 0.85177 0.82885 0.15477 0.0
H1983 H 0.79517 0.76435 0.15539 0.0
H1984 H 0.83324 0.66004 0.12116 0.0
H1985 H 0.83092 0.69234 0.13744 0.0
C1986 C 0.91532 0.06754 0.92803 0.0
C1987 C 0.89443 0.07979 0.92288 0.0
C1988 C 0.93743 0.06486 0.92116 0.0
C1989 C 0.96416 0.06543 0.88933 0.0
H1990 H 0.02558 0.08408 0.90615 0.0
C1991 C 0.06127 0.05106 0.86646 0.0
C1992 C 0.07899 0.07047 0.86763 0.0
C1993 C 0.03904 0.05122 0.87339 0.0
C1994 C 0.00862 0.0789 0.90128 0.0
H1995 H 0.88003 0.09722 0.90611 0.0
H1996 H 0.91842 0.09183 0.89396 0.0
H1997 H 0.98592 0.08556 0.91745 0.0
H1998 H 0.08703 0.1048 0.87766 0.0
H1999 H 0.04821 0.10524 0.88948 0.0
H2000 H 0.98679 0.05902 0.87313 0.0
C2001 C 0.91775 0.08467 0.90342 0.0
C2002 C 0.98589 0.0795 0.90781 0.0
C2003 C 0.89568 0.08767 0.91037 0.0
C2004 C 0.07395 0.08964 0.87629 0.0
C2005 C 0.05166 0.0898 0.8832 0.0
C2006 C 0.98693 0.06462 0.88283 0.0
C2007 C 0.93913 0.07388 0.90885 0.0
C2008 C 0.96335 0.0728 0.90191 0.0
C2009 C 0.03374 0.07075 0.88173 0.0
C2010 C 0.00949 0.0714 0.88871 0.0
H2011 H 0.9149 0.06073 0.93756 0.0
H2012 H 0.95335 0.05597 0.92554 0.0
H2013 H 0.94719 0.06005 0.88452 0.0
H2014 H 0.06404 0.03594 0.85994 0.0
H2015 H 0.02591 0.03599 0.87217 0.0
C2016 C 0.85937 0.8119 0.61184 0.0
C2017 C 0.83657 0.82248 0.60802 0.0
C2018 C 0.85963 0.79176 0.62026 0.0
C2019 C 0.82215 0.76184 0.64491 0.0
H2020 H 0.85984 0.70182 0.63757 0.0
C2021 C 0.81029 0.67617 0.6762 0.0
C2022 C 0.83169 0.66235 0.67919 0.0
C2023 C 0.81066 0.69337 0.66638 0.0
C2024 C 0.84942 0.71851 0.63986 0.0
H2025 H 0.79639 0.82085 0.61027 0.0
H2026 H 0.79682 0.78622 0.62512 0.0
H2027 H 0.86229 0.73765 0.6234 0.0
H2028 H 0.87003 0.65482 0.67398 0.0
H2029 H 0.87114 0.68544 0.65706 0.0
H2030 H 0.80982 0.7435 0.66148 0.0
C2031 C 0.81446 0.79324 0.62156 0.0
C2032 C 0.85084 0.73905 0.63172 0.0
C2033 C 0.81419 0.813 0.61303 0.0
C2034 C 0.8531 0.66491 0.67171 0.0
C2035 C 0.85372 0.68261 0.66202 0.0
C2036 C 0.82099 0.74156 0.6531 0.0
C2037 C 0.83714 0.78221 0.62519 0.0
C2038 C 0.83699 0.76083 0.6341 0.0
C2039 C 0.83277 0.69782 0.65955 0.0
C2040 C 0.83432 0.7194 0.65065 0.0
H2041 H 0.87686 0.8187 0.60801 0.0
H2042 H 0.8774 0.78373 0.62296 0.0
H2043 H 0.81156 0.77851 0.6471 0.0
H2044 H 0.79363 0.67471 0.68194 0.0
H2045 H 0.79384 0.70396 0.66453 0.0
C2046 C 0.44057 0.59953 0.86216 0.0
C2047 C 0.43938 0.58178 0.85252 0.0
C2048 C 0.4593 0.59818 0.87128 0.0
C2049 C 0.52202 0.56943 0.87694 0.0
H2050 H 0.51139 0.59443 0.91043 0.0
C2051 C 0.6045 0.58487 0.91114 0.0
C2052 C 0.60032 0.58128 0.92397 0.0
C2053 C 0.58459 0.5838 0.90265 0.0
C2054 C 0.51471 0.58705 0.90118 0.0
H2055 H 0.45612 0.54798 0.8453 0.0
H2056 H 0.4881 0.54497 0.86141 0.0
H2057 H 0.47674 0.59347 0.89581 0.0
H2058 H 0.57189 0.57296 0.93787 0.0
H2059 H 0.53752 0.57031 0.92311 0.0
H2060 H 0.55972 0.5621 0.88245 0.0
C2061 C 0.47522 0.56053 0.86173 0.0
C2062 C 0.49481 0.58687 0.89268 0.0
C2063 C 0.45672 0.5621 0.85252 0.0
C2064 C 0.57583 0.576 0.92805 0.0
C2065 C 0.55599 0.57469 0.91957 0.0
C2066 C 0.54183 0.56934 0.88547 0.0
C2067 C 0.47717 0.57884 0.87111 0.0
C2068 C 0.49817 0.57822 0.88038 0.0
C2069 C 0.55998 0.57884 0.90674 0.0
C2070 C 0.53858 0.57833 0.89771 0.0
H2071 H 0.42773 0.61514 0.86232 0.0
H2072 H 0.46024 0.61288 0.87819 0.0
H2073 H 0.52565 0.56296 0.86754 0.0
H2074 H 0.62305 0.58918 0.90768 0.0
H2075 H 0.58849 0.58748 0.8929 0.0
C2076 C 0.64973 0.2044 0.10119 0.0
C2077 C 0.65327 0.17934 0.10469 0.0
C2078 C 0.64992 0.22344 0.11014 0.0
C2079 C 0.6476 0.2339 0.14485 0.0
H2080 H 0.6717 0.29996 0.13583 0.0
C2081 C 0.67653 0.30531 0.18165 0.0
C2082 C 0.66402 0.32843 0.18148 0.0
C2083 C 0.67517 0.28905 0.17153 0.0
C2084 C 0.66471 0.28166 0.13843 0.0
H2085 H 0.65992 0.15456 0.12025 0.0
H2086 H 0.66161 0.18765 0.13585 0.0
H2087 H 0.66972 0.26723 0.12 0.0
H2088 H 0.6415 0.3532 0.17013 0.0
H2089 H 0.63976 0.32472 0.15206 0.0
H2090 H 0.64389 0.24818 0.16343 0.0
C2091 C 0.65772 0.19279 0.12628 0.0
C2092 C 0.66343 0.26281 0.12935 0.0
C2093 C 0.65694 0.1737 0.11734 0.0
C2094 C 0.65149 0.33564 0.17051 0.0
C2095 C 0.65036 0.3193 0.16023 0.0
C2096 C 0.64937 0.25255 0.15393 0.0
C2097 C 0.65418 0.21804 0.12285 0.0
C2098 C 0.655 0.23852 0.13243 0.0
C2099 C 0.66152 0.2955 0.16085 0.0
C2100 C 0.6581 0.27656 0.15085 0.0
H2101 H 0.64645 0.20923 0.09151 0.0
H2102 H 0.64646 0.24238 0.10706 0.0
H2103 H 0.64031 0.21586 0.14764 0.0
H2104 H 0.68659 0.2992 0.18987 0.0
H2105 H 0.68431 0.27104 0.17218 0.0
C2106 C 0.91316 0.39322 0.42304 0.0
C2107 C 0.91428 0.41372 0.43119 0.0
C2108 C 0.92933 0.39188 0.41271 0.0
C2109 C 0.97097 0.42945 0.39234 0.0
H2110 H 0.01114 0.36943 0.39004 0.0
C2111 C 0.06088 0.42861 0.36285 0.0
C2112 C 0.06813 0.40663 0.3567 0.0
C2113 C 0.04109 0.42849 0.37139 0.0
C2114 C -0.00012 0.38619 0.39034 0.0
H2115 H 0.93223 0.44929 0.43467 0.0
H2116 H 0.95953 0.44754 0.41643 0.0
H2117 H 0.97663 0.37129 0.40494 0.0
H2118 H 0.06046 0.36713 0.35482 0.0
H2119 H 0.02527 0.36689 0.36947 0.0
H2120 H 0.99369 0.44439 0.37772 0.0
C2121 C 0.94641 0.43241 0.41799 0.0
C2122 C 0.98005 0.38723 0.39892 0.0
C2123 C 0.93069 0.43348 0.42841 0.0
C2124 C 0.05539 0.38432 0.35949 0.0
C2125 C 0.03522 0.38425 0.36792 0.0
C2126 C 0.9905 0.4283 0.38365 0.0
C2127 C 0.9465 0.41127 0.41023 0.0
C2128 C 0.96565 0.40905 0.40017 0.0
C2129 C 0.02757 0.40643 0.37391 0.0
C2130 C 0.00564 0.40685 0.38267 0.0
H2131 H 0.90111 0.37748 0.42511 0.0
H2132 H 0.92889 0.37541 0.40686 0.0
H2133 H 0.96005 0.44643 0.39298 0.0
H2134 H 0.07063 0.44601 0.36107 0.0
H2135 H 0.03653 0.44582 0.37605 0.0
C2136 C 0.82142 0.18586 0.91946 0.0
C2137 C 0.8418 0.18057 0.92727 0.0
C2138 C 0.82213 0.20604 0.91119 0.0
C2139 C 0.86449 0.25178 0.89556 0.0
H2140 H 0.80208 0.28715 0.89054 0.0
C2141 C 0.8559 0.3383 0.86258 0.0
C2142 C 0.83595 0.33653 0.85411 0.0
C2143 C 0.85741 0.3218 0.87278 0.0
C2144 C 0.81967 0.27749 0.89182 0.0
H2145 H 0.8793 0.19199 0.93228 0.0
H2146 H 0.88053 0.22774 0.91791 0.0
H2147 H 0.80389 0.25301 0.90548 0.0
H2148 H 0.80163 0.31682 0.84986 0.0
H2149 H 0.80384 0.28869 0.86767 0.0
H2150 H 0.88013 0.2765 0.88178 0.0
C2151 C 0.864 0.21603 0.91809 0.0
C2152 C 0.82071 0.25774 0.90035 0.0
C2153 C 0.86335 0.19556 0.92633 0.0
C2154 C 0.81704 0.31884 0.85634 0.0
C2155 C 0.81834 0.30268 0.86655 0.0
C2156 C 0.86348 0.27174 0.88705 0.0
C2157 C 0.84319 0.2218 0.91056 0.0
C2158 C 0.84296 0.24417 0.90214 0.0
C2159 C 0.83879 0.30354 0.87476 0.0
C2160 C 0.8409 0.28448 0.88489 0.0
H2161 H 0.80477 0.17434 0.91974 0.0
H2162 H 0.80604 0.20925 0.90529 0.0
H2163 H 0.88193 0.24176 0.89661 0.0
H2164 H 0.87103 0.35138 0.86093 0.0
H2165 H 0.87336 0.32298 0.87897 0.0
C2166 C 0.91936 0.55748 0.11413 0.0
C2167 C 0.90422 0.57787 0.1108 0.0
C2168 C 0.9368 0.55944 0.12377 0.0
C2169 C 0.97629 0.6061 0.13928 0.0
H2170 H 0.99197 0.55085 0.16132 0.0
C2171 C 0.05811 0.60951 0.17556 0.0
C2172 C 0.07061 0.58695 0.17804 0.0
C2173 C 0.03684 0.60986 0.16784 0.0
C2174 C 0.98817 0.56639 0.15513 0.0
H2175 H 0.89447 0.61589 0.11569 0.0
H2176 H 0.92516 0.61942 0.13256 0.0
H2177 H 0.95533 0.54851 0.148 0.0
H2178 H 0.07159 0.5475 0.17373 0.0
H2179 H 0.03541 0.54812 0.16007 0.0
H2180 H 0.00959 0.6237 0.14617 0.0
C2181 C 0.92355 0.6019 0.12758 0.0
C2182 C 0.96695 0.56509 0.14754 0.0
C2183 C 0.90568 0.59976 0.11802 0.0
C2184 C 0.06211 0.56508 0.17219 0.0
C2185 C 0.04116 0.56544 0.16441 0.0
C2186 C -0.00229 0.60735 0.14684 0.0
C2187 C 0.93981 0.58196 0.13033 0.0
C2188 C 0.96088 0.58473 0.13938 0.0
C2189 C 0.02775 0.58768 0.16235 0.0
C2190 C 0.00422 0.5873 0.15473 0.0
H2191 H 0.91889 0.54043 0.10868 0.0
H2192 H 0.94904 0.54373 0.12554 0.0
H2193 H 0.97236 0.62147 0.133 0.0
H2194 H 0.0641 0.62664 0.18001 0.0
H2195 H 0.02706 0.62736 0.16655 0.0
C2196 C 0.64307 0.78233 0.43551 0.0
C2197 C 0.64477 0.80781 0.43243 0.0
C2198 C 0.6424 0.76402 0.42622 0.0
C2199 C 0.63466 0.75502 0.39163 0.0
H2200 H 0.66563 0.69103 0.39871 0.0
C2201 C 0.66334 0.68705 0.35296 0.0
C2202 C 0.65486 0.66213 0.35371 0.0
C2203 C 0.66109 0.70328 0.36305 0.0
C2204 C 0.65664 0.70868 0.39666 0.0
H2205 H 0.64673 0.83413 0.41715 0.0
H2206 H 0.64657 0.80226 0.4008 0.0
H2207 H 0.66399 0.72295 0.4149 0.0
H2208 H 0.6384 0.63455 0.36608 0.0
H2209 H 0.63529 0.66308 0.38411 0.0
H2210 H 0.6286 0.74097 0.37315 0.0
C2211 C 0.64504 0.79625 0.41042 0.0
C2212 C 0.65558 0.7271 0.40596 0.0
C2213 C 0.64522 0.81464 0.41978 0.0
C2214 C 0.64523 0.65352 0.36518 0.0
C2215 C 0.64332 0.66989 0.37546 0.0
C2216 C 0.63615 0.73679 0.3823 0.0
C2217 C 0.64389 0.77056 0.4135 0.0
C2218 C 0.64464 0.75066 0.4036 0.0
C2219 C 0.65065 0.69513 0.37434 0.0
C2220 C 0.64729 0.71347 0.38467 0.0
H2221 H 0.64229 0.77651 0.44519 0.0
H2222 H 0.64069 0.7447 0.42908 0.0
H2223 H 0.62557 0.77252 0.38942 0.0
H2224 H 0.67114 0.69445 0.34437 0.0
H2225 H 0.66737 0.72243 0.36196 0.0
C2226 C 0.56411 0.4334 0.61093 0.0
C2227 C 0.58609 0.4191 0.61004 0.0
C2228 C 0.54854 0.43168 0.62134 0.0
C2229 C 0.53351 0.38948 0.64803 0.0
H2230 H 0.49106 0.4449 0.65769 0.0
C2231 C 0.47093 0.38793 0.69211 0.0
C2232 C 0.44626 0.39679 0.69103 0.0
C2233 C 0.48802 0.39069 0.68233 0.0
C2234 C 0.50261 0.42919 0.65502 0.0
H2235 H 0.6095 0.39256 0.6198 0.0
H2236 H 0.58279 0.39031 0.6384 0.0
H2237 H 0.52271 0.45094 0.6416 0.0
H2238 H 0.42017 0.4153 0.6787 0.0
H2239 H 0.45036 0.42058 0.66151 0.0
H2240 H 0.51372 0.36804 0.66181 0.0
C2241 C 0.57723 0.40242 0.6308 0.0
C2242 C 0.52082 0.43258 0.64575 0.0
C2243 C 0.59283 0.40399 0.62022 0.0
C2244 C 0.43902 0.40832 0.6798 0.0
C2245 C 0.45634 0.41145 0.67002 0.0
C2246 C 0.51555 0.38622 0.65744 0.0
C2247 C 0.55452 0.41586 0.63138 0.0
C2248 C 0.53642 0.4127 0.64199 0.0
C2249 C 0.48104 0.40261 0.67119 0.0
C2250 C 0.49976 0.40598 0.66098 0.0
H2251 H 0.55825 0.44524 0.60326 0.0
H2252 H 0.53117 0.44203 0.62119 0.0
H2253 H 0.54467 0.37354 0.6453 0.0
H2254 H 0.47702 0.37859 0.70053 0.0
H2255 H 0.5069 0.38384 0.68357 0.0
C2256 C 0.14764 0.18985 0.42376 0.0
C2257 C 0.16679 0.18649 0.43259 0.0
C2258 C 0.14881 0.20942 0.41505 0.0
C2259 C 0.18072 0.27079 0.40966 0.0
H2260 H 0.15231 0.26447 0.37657 0.0
C2261 C 0.19229 0.3476 0.37155 0.0
C2262 C 0.17164 0.35234 0.36379 0.0
C2263 C 0.19196 0.32747 0.37997 0.0
C2264 C 0.16014 0.26666 0.38582 0.0
H2265 H 0.20278 0.20033 0.43871 0.0
H2266 H 0.2053 0.23384 0.42334 0.0
H2267 H 0.15177 0.22873 0.39067 0.0
H2268 H 0.134 0.34016 0.35931 0.0
H2269 H 0.13345 0.3053 0.37388 0.0
H2270 H 0.18925 0.30868 0.40473 0.0
C2271 C 0.18889 0.22197 0.42337 0.0
C2272 C 0.15979 0.2461 0.39395 0.0
C2273 C 0.18757 0.20259 0.43215 0.0
C2274 C 0.15042 0.33689 0.36496 0.0
C2275 C 0.15013 0.31676 0.37331 0.0
C2276 C 0.1812 0.29128 0.4015 0.0
C2277 C 0.16931 0.22604 0.41484 0.0
C2278 C 0.17002 0.24784 0.40602 0.0
C2279 C 0.17099 0.31155 0.38084 0.0
C2280 C 0.17083 0.28956 0.38948 0.0
H2281 H 0.1312 0.17801 0.42394 0.0
H2282 H 0.13318 0.21201 0.40878 0.0
H2283 H 0.18834 0.27317 0.41894 0.0
H2284 H 0.209 0.35898 0.37086 0.0
H2285 H 0.20844 0.32396 0.38556 0.0
C2286 C 0.55257 0.3863 0.17686 0.0
C2287 C 0.56633 0.40838 0.17875 0.0
C2288 C 0.53139 0.38631 0.16909 0.0
C2289 C 0.48549 0.43108 0.15515 0.0
H2290 H 0.4664 0.37493 0.13444 0.0
C2291 C 0.41771 0.43996 0.11377 0.0
C2292 C 0.40117 0.42028 0.11102 0.0
C2293 C 0.435 0.4379 0.12347 0.0
C2294 C 0.47126 0.39063 0.14033 0.0
H2295 H 0.56972 0.4472 0.17338 0.0
H2296 H 0.53372 0.44713 0.15959 0.0
H2297 H 0.5034 0.37185 0.14774 0.0
H2298 H 0.38884 0.38357 0.11697 0.0
H2299 H 0.41926 0.37983 0.13394 0.0
H2300 H 0.45385 0.4501 0.14748 0.0
C2301 C 0.53839 0.42999 0.16443 0.0
C2302 C 0.49254 0.38889 0.14795 0.0
C2303 C 0.55923 0.43003 0.17226 0.0
C2304 C 0.40115 0.39914 0.11884 0.0
C2305 C 0.41885 0.39685 0.12846 0.0
C2306 C 0.46443 0.43286 0.14748 0.0
C2307 C 0.52368 0.40835 0.16296 0.0
C2308 C 0.50023 0.40929 0.15532 0.0
C2309 C 0.43643 0.41596 0.13066 0.0
C2310 C 0.45722 0.41283 0.13983 0.0
H2311 H 0.55752 0.36938 0.18182 0.0
H2312 H 0.52058 0.36927 0.16825 0.0
H2313 H 0.49021 0.44695 0.16093 0.0
H2314 H 0.41841 0.45639 0.10785 0.0
H2315 H 0.4483 0.45294 0.12481 0.0
C2316 C 0.3184 0.79823 0.93032 0.0
C2317 C 0.33605 0.81781 0.93048 0.0
C2318 C 0.31991 0.77906 0.92151 0.0
C2319 C 0.34957 0.76343 0.89097 0.0
H2320 H 0.33096 0.69549 0.89973 0.0
C2321 C 0.38203 0.67922 0.86287 0.0
C2322 C 0.36399 0.66212 0.85854 0.0
C2323 C 0.37588 0.6975 0.87156 0.0
C2324 C 0.33584 0.71445 0.89712 0.0
H2325 H 0.36946 0.83205 0.9214 0.0
H2326 H 0.37274 0.79818 0.90641 0.0
H2327 H 0.32688 0.72875 0.91523 0.0
H2328 H 0.32529 0.65051 0.86037 0.0
H2329 H 0.31468 0.68239 0.87614 0.0
H2330 H 0.35962 0.7488 0.87306 0.0
C2331 C 0.35724 0.79799 0.91292 0.0
C2332 C 0.33353 0.73358 0.90598 0.0
C2333 C 0.35559 0.81733 0.92168 0.0
C2334 C 0.33965 0.66329 0.86354 0.0
C2335 C 0.33357 0.68153 0.87251 0.0
C2336 C 0.35217 0.7443 0.88221 0.0
C2337 C 0.33929 0.77866 0.91263 0.0
C2338 C 0.34072 0.75831 0.90309 0.0
C2339 C 0.3516 0.69911 0.87637 0.0
C2340 C 0.34567 0.71957 0.88524 0.0
H2341 H 0.30328 0.79757 0.93703 0.0
H2342 H 0.30558 0.76475 0.92156 0.0
H2343 H 0.35463 0.78225 0.88822 0.0
H2344 H 0.401 0.67905 0.85932 0.0
H2345 H 0.39023 0.71054 0.87449 0.0
C2346 C 0.106 0.58268 0.63115 0.0
C2347 C 0.10334 0.58064 0.61814 0.0
C2348 C 0.08488 0.5829 0.63896 0.0
C2349 C 0.01647 0.59541 0.63852 0.0
H2350 H 0.01696 0.56086 0.67033 0.0
C2351 C 0.93708 0.6061 0.6756 0.0
C2352 C 0.93032 0.58457 0.68238 0.0
C2353 C 0.95771 0.60578 0.66744 0.0
C2354 C 0.01639 0.57051 0.66144 0.0
H2355 H 0.07628 0.57589 0.60324 0.0
H2356 H 0.03971 0.57641 0.61679 0.0
H2357 H 0.05373 0.55923 0.6569 0.0
H2358 H 0.93923 0.54549 0.68529 0.0
H2359 H 0.97484 0.54493 0.67119 0.0
H2360 H 0.97894 0.60634 0.64299 0.0
C2361 C 0.05803 0.5784 0.62097 0.0
C2362 C 0.03765 0.5698 0.65379 0.0
C2363 C 0.07909 0.57802 0.61319 0.0
C2364 C 0.94417 0.56258 0.68046 0.0
C2365 C 0.9647 0.56227 0.67237 0.0
C2366 C 0.99522 0.5962 0.6462 0.0
C2367 C 0.06058 0.58112 0.63396 0.0
C2368 C 0.03798 0.58216 0.6422 0.0
C2369 C 0.97205 0.58394 0.66589 0.0
C2370 C 0.99483 0.58364 0.65774 0.0
H2371 H 0.12434 0.58476 0.63528 0.0
H2372 H 0.0876 0.58515 0.64891 0.0
H2373 H 0.0161 0.6054 0.62972 0.0
H2374 H 0.92701 0.62342 0.6769 0.0
H2375 H 0.96286 0.62288 0.66266 0.0
C2376 C 0.18317 0.68861 0.18021 0.0
C2377 C 0.17004 0.66584 0.18017 0.0
C2378 C 0.18268 0.70453 0.16991 0.0
C2379 C 0.14523 0.71862 0.14148 0.0
H2380 H 0.19924 0.76587 0.13591 0.0
C2381 C 0.15006 0.78999 0.10022 0.0
C2382 C 0.15497 0.81487 0.10365 0.0
C2383 C 0.15169 0.77068 0.10902 0.0
C2384 C 0.18397 0.75286 0.1374 0.0
H2385 H 0.14698 0.64136 0.16896 0.0
H2386 H 0.14698 0.66878 0.15057 0.0
H2387 H 0.20444 0.73247 0.1511 0.0
H2388 H 0.16526 0.8391 0.11893 0.0
H2389 H 0.16893 0.80516 0.13431 0.0
H2390 H 0.12528 0.73885 0.12731 0.0
C2391 C 0.15717 0.67464 0.15878 0.0
C2392 C 0.18684 0.73369 0.14616 0.0
C2393 C 0.15748 0.65867 0.16924 0.0
C2394 C 0.16135 0.8201 0.11608 0.0
C2395 C 0.16355 0.8007 0.12483 0.0
C2396 C 0.14261 0.73752 0.13249 0.0
C2397 C 0.16936 0.6981 0.15908 0.0
C2398 C 0.1673 0.7166 0.14859 0.0
C2399 C 0.15878 0.77578 0.12137 0.0
C2400 C 0.16178 0.75512 0.13054 0.0
H2401 H 0.19306 0.69478 0.18847 0.0
H2402 H 0.1919 0.72246 0.17076 0.0
H2403 H 0.1296 0.70617 0.14312 0.0
H2404 H 0.14486 0.7855 0.09072 0.0
H2405 H 0.14798 0.75167 0.1061 0.0
C2406 C 0.95842 0.40078 0.85128 0.0
C2407 C 0.93359 0.40797 0.85368 0.0
C2408 C 0.9762 0.40056 0.86082 0.0
C2409 C 0.99139 0.43111 0.8901 0.0
H2410 H 0.03612 0.3753 0.89581 0.0
C2411 C 0.05277 0.42641 0.93375 0.0
C2412 C 0.0757 0.4136 0.93366 0.0
C2413 C 0.03722 0.42642 0.92336 0.0
C2414 C 0.02417 0.39128 0.8942 0.0
H2415 H 0.90777 0.42007 0.86798 0.0
H2416 H 0.93913 0.42029 0.88475 0.0
H2417 H 0.0046 0.37277 0.87936 0.0
H2418 H 0.10074 0.39151 0.92227 0.0
H2419 H 0.07383 0.39228 0.90371 0.0
H2420 H 0.0112 0.45012 0.90452 0.0
C2421 C 0.94471 0.41468 0.87545 0.0
C2422 C 0.00593 0.3897 0.88484 0.0
C2423 C 0.92676 0.41442 0.86591 0.0
C2424 C 0.08328 0.4017 0.92261 0.0
C2425 C 0.06765 0.40187 0.91205 0.0
C2426 C 0.00986 0.4329 0.89927 0.0
C2427 C 0.96967 0.40792 0.87296 0.0
C2428 C 0.98911 0.40946 0.88284 0.0
C2429 C 0.04417 0.41393 0.91236 0.0
C2430 C 0.02626 0.41285 0.90165 0.0
H2431 H 0.9641 0.39546 0.84195 0.0
H2432 H 0.99527 0.39536 0.85862 0.0
H2433 H 0.97906 0.44686 0.88858 0.0
H2434 H 0.04628 0.43583 0.94209 0.0
H2435 H 0.01922 0.43548 0.92419 0.0
C2436 C 0.32094 0.19608 0.60848 0.0
C2437 C 0.33455 0.1736 0.60942 0.0
C2438 C 0.32246 0.21437 0.61776 0.0
C2439 C 0.3425 0.22411 0.65073 0.0
H2440 H 0.34133 0.29423 0.64147 0.0
C2441 C 0.37964 0.30097 0.68262 0.0
C2442 C 0.36549 0.32281 0.68449 0.0
C2443 C 0.37273 0.28338 0.67373 0.0
C2444 C 0.34126 0.27474 0.6442 0.0
H2445 H 0.3606 0.15324 0.62116 0.0
H2446 H 0.36394 0.1854 0.63702 0.0
H2447 H 0.3367 0.26228 0.62538 0.0
H2448 H 0.33272 0.34313 0.67839 0.0
H2449 H 0.32092 0.31229 0.66229 0.0
H2450 H 0.34815 0.23668 0.66948 0.0
C2451 C 0.35156 0.18862 0.62919 0.0
C2452 C 0.33863 0.25634 0.63499 0.0
C2453 C 0.34988 0.17017 0.61996 0.0
C2454 C 0.34408 0.32659 0.67712 0.0
C2455 C 0.33736 0.30899 0.66794 0.0
C2456 C 0.34539 0.24247 0.65988 0.0
C2457 C 0.33782 0.21099 0.62825 0.0
C2458 C 0.33957 0.23072 0.6381 0.0
C2459 C 0.35158 0.28709 0.66626 0.0
C2460 C 0.34518 0.26797 0.65671 0.0
H2461 H 0.30914 0.1999 0.60054 0.0
H2462 H 0.31131 0.23111 0.61672 0.0
H2463 H 0.34268 0.2047 0.65358 0.0
H2464 H 0.39607 0.2971 0.68819 0.0
H2465 H 0.38423 0.26689 0.67258 0.0
C2466 C 0.41755 0.575 0.42763 0.0
C2467 C 0.39308 0.57657 0.42284 0.0
C2468 C 0.43828 0.57463 0.41963 0.0
C2469 C 0.45731 0.56234 0.3869 0.0
H2470 H 0.51585 0.60133 0.39576 0.0
C2471 C 0.54898 0.55457 0.3589 0.0
C2472 C 0.56214 0.57668 0.35611 0.0
C2473 C 0.52915 0.55456 0.36741 0.0
C2474 C 0.49961 0.59048 0.3931 0.0
H2475 H 0.37132 0.57793 0.40583 0.0
H2476 H 0.40747 0.57709 0.39184 0.0
H2477 H 0.47944 0.60108 0.40956 0.0
H2478 H 0.5651 0.61608 0.3605 0.0
H2479 H 0.5304 0.6161 0.37545 0.0
H2480 H 0.47723 0.55206 0.37036 0.0
C2481 C 0.41063 0.57622 0.40181 0.0
C2482 C 0.4788 0.5901 0.40109 0.0
C2483 C 0.38985 0.5767 0.40983 0.0
C2484 C 0.55551 0.59868 0.36247 0.0
C2485 C 0.53557 0.59868 0.37103 0.0
C2486 C 0.47811 0.56267 0.37894 0.0
C2487 C 0.43515 0.57555 0.40661 0.0
C2488 C 0.45736 0.57599 0.3981 0.0
C2489 C 0.52182 0.57668 0.37343 0.0
C2490 C 0.49959 0.57669 0.38193 0.0
H2491 H 0.42077 0.57446 0.43761 0.0
H2492 H 0.45679 0.57356 0.42367 0.0
H2493 H 0.44128 0.55109 0.38433 0.0
H2494 H 0.55389 0.53716 0.35441 0.0
H2495 H 0.51949 0.53713 0.36924 0.0
C2496 C 0.53756 0.33698 0.23327 0.0
C2497 C 0.5571 0.32159 0.2291 0.0
C2498 C 0.51701 0.32666 0.23939 0.0
C2499 C 0.47006 0.29424 0.24188 0.0
H2500 H 0.47881 0.23972 0.26534 0.0
C2501 C 0.43523 0.19277 0.24302 0.0
C2502 C 0.40989 0.19591 0.24007 0.0
C2503 C 0.44876 0.21223 0.24823 0.0
C2504 C 0.47593 0.25525 0.25901 0.0
H2505 H 0.57089 0.28371 0.22792 0.0
H2506 H 0.53461 0.26539 0.23856 0.0
H2507 H 0.5139 0.26747 0.2607 0.0
H2508 H 0.37817 0.22098 0.24139 0.0
H2509 H 0.40225 0.25558 0.25024 0.0
H2510 H 0.43311 0.28055 0.23906 0.0
C2511 C 0.53541 0.28546 0.23726 0.0
C2512 C 0.49599 0.271 0.25633 0.0
C2513 C 0.55585 0.29576 0.231 0.0
C2514 C 0.39787 0.21833 0.24328 0.0
C2515 C 0.41153 0.23797 0.24847 0.0
C2516 C 0.45011 0.27827 0.24441 0.0
C2517 C 0.51593 0.30087 0.24153 0.0
C2518 C 0.49356 0.28951 0.24714 0.0
C2519 C 0.43734 0.23539 0.25053 0.0
C2520 C 0.45353 0.25748 0.25225 0.0
H2521 H 0.53832 0.35702 0.23186 0.0
H2522 H 0.50205 0.33878 0.24248 0.0
H2523 H 0.46778 0.30857 0.23482 0.0
H2524 H 0.44511 0.17583 0.24056 0.0
H2525 H 0.4687 0.20967 0.24942 0.0
C2526 C 0.94926 0.30214 0.48209 0.0
C2527 C 0.92437 0.30523 0.4785 0.0
C2528 C 0.9567 0.27994 0.48776 0.0
C2529 C 0.96453 0.23623 0.50508 0.0
H2530 H 0.95761 0.17833 0.4837 0.0
C2531 C 0.02056 0.14343 0.48774 0.0
C2532 C 0.04237 0.1572 0.48503 0.0
C2533 C 5e-05 0.15508 0.49333 0.0
C2534 C 0.95896 0.19382 0.49015 0.0
H2535 H 0.8876 0.28827 0.4778 0.0
H2536 H 0.90088 0.24881 0.48738 0.0
H2537 H 0.93092 0.21433 0.48035 0.0
H2538 H 0.06021 0.19353 0.48675 0.0
H2539 H 0.0251 0.21343 0.49658 0.0
H2540 H 0.99416 0.21657 0.51411 0.0
C2541 C 0.91448 0.26359 0.48599 0.0
C2542 C 0.94378 0.21456 0.48816 0.0
C2543 C 0.90701 0.2859 0.48043 0.0
C2544 C 0.04392 0.18221 0.48883 0.0
C2545 C 0.02373 0.19364 0.49458 0.0
C2546 C 0.97954 0.21542 0.50714 0.0
C2547 C 0.93931 0.26058 0.48984 0.0
C2548 C 0.94801 0.23658 0.49492 0.0
C2549 C 0.00128 0.1805 0.49647 0.0
C2550 C 0.97847 0.19509 0.49889 0.0
H2551 H 0.96273 0.31708 0.48078 0.0
H2552 H 0.97614 0.27775 0.49037 0.0
H2553 H 0.96758 0.25288 0.51061 0.0
H2554 H 0.01906 0.1239 0.48523 0.0
H2555 H 0.98289 0.14461 0.49466 0.0
C2556 C 0.94106 0.6986 0.73112 0.0
C2557 C 0.9384 0.67404 0.72694 0.0
C2558 C 0.96324 0.70601 0.73682 0.0
C2559 C 0.00717 0.71313 0.75408 0.0
H2560 H 0.0659 0.70691 0.73308 0.0
C2561 C 0.10416 0.76661 0.73968 0.0
C2562 C 0.09214 0.78974 0.73807 0.0
C2563 C 0.09087 0.74609 0.74432 0.0
C2564 C 0.05012 0.70807 0.7394 0.0
H2565 H 0.95594 0.63777 0.72532 0.0
H2566 H 0.99529 0.65097 0.73503 0.0
H2567 H 0.02932 0.68155 0.72874 0.0
H2568 H 0.05733 0.80986 0.74083 0.0
H2569 H 0.03455 0.77465 0.74891 0.0
H2570 H 0.02733 0.74108 0.76414 0.0
C2571 C 0.98029 0.66438 0.734 0.0
C2572 C 0.02905 0.69365 0.73684 0.0
C2573 C 0.95804 0.65696 0.72837 0.0
C2574 C 0.06731 0.79246 0.74209 0.0
C2575 C 0.05422 0.77217 0.74683 0.0
C2576 C 0.02831 0.72736 0.75672 0.0
C2577 C 0.98295 0.6889 0.73838 0.0
C2578 C 0.00689 0.69753 0.74357 0.0
C2579 C 0.0655 0.74855 0.74751 0.0
C2580 C 0.04913 0.72648 0.74872 0.0
H2581 H 0.92584 0.71181 0.7302 0.0
H2582 H 0.96513 0.72521 0.73986 0.0
H2583 H 0.99039 0.71588 0.75959 0.0
H2584 H 0.12351 0.76414 0.73697 0.0
H2585 H 0.09999 0.72806 0.7448 0.0
C2586 C 0.57959 0.69819 0.98315 0.0
C2587 C 0.56474 0.67981 0.97739 0.0
C2588 C 0.56896 0.72017 0.98751 0.0
C2589 C 0.54488 0.77094 0.9858 0.0
H2590 H 0.47649 0.7731 0.99775 0.0
C2591 C 0.47312 0.838 0.9685 0.0
C2592 C 0.45242 0.84428 0.97589 0.0
C2593 C 0.4924 0.82378 0.97351 0.0
C2594 C 0.49588 0.77299 0.9948 0.0
H2595 H 0.5272 0.66997 0.97164 0.0
H2596 H 0.50858 0.70905 0.97884 0.0
H2597 H 0.49876 0.73355 0.9976 0.0
H2598 H 0.43699 0.84346 0.99464 0.0
H2599 H 0.47051 0.81787 1.00332 0.0
H2600 H 0.5415 0.81017 0.98238 0.0
C2601 C 0.52838 0.70602 0.98032 0.0
C2602 C 0.50846 0.75026 0.99454 0.0
C2603 C 0.53903 0.68388 0.97601 0.0
C2604 C 0.45242 0.83812 0.98865 0.0
C2605 C 0.47167 0.82378 0.99365 0.0
C2606 C 0.53232 0.79369 0.98609 0.0
C2607 C 0.5433 0.7244 0.98606 0.0
C2608 C 0.5325 0.74884 0.98934 0.0
C2609 C 0.49123 0.81555 0.98597 0.0
C2610 C 0.5072 0.79457 0.98986 0.0
H2611 H 0.59959 0.69574 0.98415 0.0
H2612 H 0.58088 0.734 0.99187 0.0
H2613 H 0.56348 0.77043 0.98179 0.0
H2614 H 0.47362 0.84254 0.95864 0.0
H2615 H 0.50709 0.81745 0.9673 0.0
C2616 C 0.45934 0.83519 0.32173 0.0
C2617 C 0.44228 0.81974 0.32815 0.0
C2618 C 0.4809 0.82503 0.31654 0.0
C2619 C 0.5285 0.78586 0.3127 0.0
H2620 H 0.50015 0.7412 0.2879 0.0
C2621 C 0.54382 0.68366 0.30556 0.0
C2622 C 0.56967 0.68227 0.30386 0.0
C2623 C 0.53123 0.70536 0.30227 0.0
C2624 C 0.50853 0.75421 0.29441 0.0
H2625 H 0.43553 0.78279 0.33566 0.0
H2626 H 0.47362 0.76497 0.32666 0.0
H2627 H 0.47396 0.77323 0.29747 0.0
H2628 H 0.60269 0.70077 0.29664 0.0
H2629 H 0.58066 0.73953 0.29133 0.0
H2630 H 0.56239 0.76528 0.31058 0.0
C2631 C 0.47005 0.78477 0.32555 0.0
C2632 C 0.4936 0.77231 0.29993 0.0
C2633 C 0.44846 0.7949 0.33072 0.0
C2634 C 0.58262 0.70177 0.29794 0.0
C2635 C 0.57011 0.72373 0.29487 0.0
C2636 C 0.54354 0.76781 0.30712 0.0
C2637 C 0.48549 0.79951 0.31788 0.0
C2638 C 0.50316 0.787 0.30964 0.0
C2639 C 0.54455 0.726 0.29753 0.0
C2640 C 0.53305 0.75072 0.29863 0.0
H2641 H 0.4549 0.85457 0.31984 0.0
H2642 H 0.49277 0.83653 0.31066 0.0
H2643 H 0.53601 0.79718 0.32019 0.0
H2644 H 0.53372 0.66866 0.31016 0.0
H2645 H 0.51157 0.70685 0.30461 0.0
C2646 C 0.55774 0.318 0.54882 0.0
C2647 C 0.55229 0.33367 0.55899 0.0
C2648 C 0.53912 0.30356 0.54338 0.0
C2649 C 0.50624 0.25893 0.54332 0.0
H2650 H 0.43523 0.26987 0.54807 0.0
C2651 C 0.42575 0.20163 0.56712 0.0
C2652 C 0.42674 0.17876 0.56081 0.0
C2653 C 0.43697 0.22271 0.56193 0.0
C2654 C 0.45498 0.2667 0.54646 0.0
H2655 H 0.52241 0.34769 0.5708 0.0
H2656 H 0.49055 0.32053 0.56224 0.0
H2657 H 0.46348 0.30573 0.54677 0.0
H2658 H 0.43972 0.15968 0.54419 0.0
H2659 H 0.46008 0.1966 0.53524 0.0
H2660 H 0.49792 0.22 0.54353 0.0
C2661 C 0.509 0.32015 0.55807 0.0
C2662 C 0.47115 0.28712 0.54579 0.0
C2663 C 0.52749 0.33527 0.56324 0.0
C2664 C 0.43889 0.17721 0.54921 0.0
C2665 C 0.45029 0.19824 0.54407 0.0
C2666 C 0.49007 0.23864 0.54377 0.0
C2667 C 0.51482 0.30352 0.54834 0.0
C2668 C 0.49711 0.28333 0.54504 0.0
C2669 C 0.44947 0.2211 0.55042 0.0
C2670 C 0.46459 0.24234 0.54611 0.0
H2671 H 0.57659 0.31596 0.54529 0.0
H2672 H 0.54413 0.29138 0.53572 0.0
H2673 H 0.52608 0.25511 0.54283 0.0
H2674 H 0.41608 0.20326 0.57598 0.0
H2675 H 0.4366 0.24005 0.56712 0.0
C2676 C 0.04941 0.20165 0.8349 0.0
C2677 C 0.04317 0.17696 0.83818 0.0
C2678 C 0.03324 0.21579 0.82768 0.0
C2679 C 0.00785 0.23287 0.8046 0.0
H2680 H 0.93633 0.2382 0.80944 0.0
C2681 C 0.91565 0.29557 0.79448 0.0
C2682 C 0.92519 0.3162 0.80093 0.0
C2683 C 0.93115 0.27532 0.79197 0.0
C2684 C 0.95617 0.23621 0.80762 0.0
H2685 H 0.01339 0.14933 0.83816 0.0
H2686 H 0.98555 0.17372 0.825 0.0
H2687 H 0.95992 0.20929 0.82218 0.0
H2688 H 0.95829 0.33413 0.80826 0.0
H2689 H 0.98554 0.29883 0.80389 0.0
H2690 H 0.00422 0.2619 0.79095 0.0
C2691 C 0.0031 0.18196 0.8279 0.0
C2692 C 0.96972 0.21979 0.81503 0.0
C2693 C 0.01909 0.16797 0.83541 0.0
C2694 C 0.9508 0.31812 0.80332 0.0
C2695 C 0.96635 0.29805 0.80067 0.0
C2696 C 0.99433 0.24962 0.79733 0.0
C2697 C 0.01073 0.20542 0.8234 0.0
C2698 C 0.99583 0.21902 0.81406 0.0
C2699 C 0.95613 0.27578 0.79594 0.0
C2700 C 0.96859 0.25234 0.79929 0.0
H2701 H 0.06767 0.20946 0.83686 0.0
H2702 H 0.03903 0.23438 0.82488 0.0
H2703 H 0.02792 0.23188 0.80332 0.0
H2704 H 0.89582 0.29407 0.79256 0.0
H2705 H 0.92299 0.2583 0.78831 0.0
C2706 C 0.97485 0.67108 0.07335 0.0
C2707 C 0.96197 0.65487 0.06534 0.0
C2708 C 0.99751 0.68145 0.06972 0.0
C2709 C 0.04918 0.6951 0.06177 0.0
H2710 H 0.03482 0.74285 0.03552 0.0
C2711 C 0.09004 0.79258 0.06432 0.0
C2712 C 0.07108 0.81054 0.06353 0.0
C2713 C 0.08593 0.76846 0.05992 0.0
C2714 C 0.03944 0.72941 0.04272 0.0
H2715 H 0.96309 0.63626 0.04734 0.0
H2716 H 0.00245 0.65581 0.04069 0.0
H2717 H 0.01043 0.70448 0.03696 0.0
H2718 H 0.03365 0.8185 0.05717 0.0
H2719 H 0.02566 0.77593 0.05004 0.0
H2720 H 0.07586 0.72125 0.06856 0.0
C2721 C 0.99506 0.6598 0.0499 0.0
C2722 C 0.02573 0.70728 0.04343 0.0
C2723 C 0.97245 0.649 0.05364 0.0
C2724 C 0.04823 0.80457 0.05801 0.0
C2725 C 0.04399 0.7804 0.0537 0.0
C2726 C 0.06272 0.71728 0.06114 0.0
C2727 C 0.00768 0.67615 0.05793 0.0
C2728 C 0.02904 0.69118 0.05363 0.0
C2729 C 0.0627 0.76199 0.05474 0.0
C2730 C 0.05636 0.73557 0.05227 0.0
H2731 H 0.96705 0.6765 0.08228 0.0
H2732 H 0.00644 0.69472 0.07591 0.0
H2733 H 0.05224 0.68263 0.0696 0.0
H2734 H 0.10803 0.79727 0.06835 0.0
H2735 H 0.10071 0.75477 0.06079 0.0
C2736 C 0.38663 0.729 0.79649 0.0
C2737 C 0.40056 0.70677 0.79732 0.0
C2738 C 0.39813 0.75107 0.79255 0.0
C2739 C 0.43747 0.78581 0.80251 0.0
H2740 H 0.49778 0.79033 0.78256 0.0
C2741 C 0.54831 0.79185 0.81071 0.0
C2742 C 0.5503 0.81129 0.81935 0.0
C2743 C 0.52568 0.78742 0.80472 0.0
C2744 C 0.48093 0.78951 0.78817 0.0
H2745 H 0.43613 0.68948 0.79272 0.0
H2746 H 0.45572 0.72738 0.78569 0.0
H2747 H 0.46134 0.76855 0.77429 0.0
H2748 H 0.53082 0.84137 0.82867 0.0
H2749 H 0.49097 0.83364 0.81819 0.0
H2750 H 0.45777 0.80408 0.81696 0.0
C2751 C 0.43608 0.72809 0.78815 0.0
C2752 C 0.45996 0.77747 0.78333 0.0
C2753 C 0.42481 0.7062 0.7923 0.0
C2754 C 0.5293 0.8258 0.82226 0.0
C2755 C 0.50669 0.8216 0.81614 0.0
C2756 C 0.45848 0.79762 0.80739 0.0
C2757 C 0.42351 0.75101 0.78922 0.0
C2758 C 0.43889 0.77361 0.79092 0.0
C2759 C 0.50483 0.80272 0.8071 0.0
C2760 C 0.48096 0.79776 0.80063 0.0
H2761 H 0.36748 0.72977 0.79976 0.0
H2762 H 0.38798 0.7685 0.79329 0.0
H2763 H 0.42144 0.78323 0.80858 0.0
H2764 H 0.56454 0.78082 0.80823 0.0
H2765 H 0.52463 0.77214 0.79812 0.0
C2766 C 0.92958 0.79831 0.56267 0.0
C2767 C 0.93204 0.82255 0.55792 0.0
C2768 C 0.94342 0.77897 0.5575 0.0
C2769 C 0.97052 0.73986 0.54231 0.0
H2770 H 0.03959 0.75457 0.55039 0.0
C2771 C 0.06996 0.68867 0.55548 0.0
C2772 C 0.05992 0.66949 0.56296 0.0
C2773 C 0.0544 0.7059 0.54971 0.0
C2774 C 0.02064 0.75006 0.54765 0.0
H2775 H 0.94968 0.84592 0.54391 0.0
H2776 H 0.97512 0.81197 0.53519 0.0
H2777 H 0.0102 0.78849 0.54802 0.0
H2778 H 0.02568 0.65344 0.57033 0.0
H2779 H -0.00147 0.68478 0.56107 0.0
H2780 H 0.98072 0.70129 0.54252 0.0
C2781 C 0.96207 0.80793 0.54268 0.0
C2782 C 0.0038 0.7696 0.54627 0.0
C2783 C 0.94783 0.82723 0.54771 0.0
C2784 C 0.03397 0.66813 0.56471 0.0
C2785 C 0.0184 0.68576 0.55915 0.0
C2786 C 0.98746 0.72027 0.54348 0.0
C2787 C 0.96013 0.78376 0.54766 0.0
C2788 C 0.9784 0.76449 0.54439 0.0
C2789 C 0.02848 0.70486 0.55161 0.0
C2790 C 0.01231 0.72516 0.54697 0.0
H2791 H 0.91715 0.79442 0.57043 0.0
H2792 H 0.94205 0.76054 0.56165 0.0
H2793 H 0.95095 0.73566 0.54074 0.0
H2794 H 0.08995 0.69058 0.55413 0.0
H2795 H 0.06277 0.72028 0.54392 0.0
C2796 C 0.95802 0.15794 0.32053 0.0
C2797 C 0.93764 0.17207 0.31636 0.0
C2798 C 0.9821 0.16356 0.3164 0.0
C2799 C 0.01692 0.20366 0.29356 0.0
H2800 H 0.06441 0.2086 0.32072 0.0
C2801 C 0.07003 0.28865 0.30648 0.0
C2802 C 0.09442 0.28752 0.31129 0.0
C2803 C 0.05821 0.26714 0.30228 0.0
C2804 C 0.05183 0.20658 0.31287 0.0
H2805 H 0.92571 0.2025 0.30453 0.0
H2806 H 0.96792 0.21369 0.29792 0.0
H2807 H 0.02718 0.18342 0.32337 0.0
H2808 H 0.12625 0.2631 0.31446 0.0
H2809 H 0.10456 0.22502 0.30797 0.0
H2810 H 0.04041 0.22953 0.28373 0.0
C2811 C 0.9655 0.19766 0.30399 0.0
C2812 C 0.03035 0.19217 0.31438 0.0
C2813 C 0.9414 0.19169 0.30794 0.0
C2814 C 0.10717 0.26452 0.31117 0.0
C2815 C 0.09504 0.24281 0.30724 0.0
C2816 C 0.03822 0.21845 0.29214 0.0
C2817 C 0.98616 0.18367 0.30817 0.0
C2818 C 0.01185 0.19201 0.30507 0.0
C2819 C 0.07027 0.24395 0.30305 0.0
C2820 C 0.05487 0.22129 0.30213 0.0
H2821 H 0.95521 0.14226 0.3268 0.0
H2822 H 0.99751 0.15224 0.31969 0.0
H2823 H 0.00344 0.20311 0.28603 0.0
H2824 H 0.05944 0.30586 0.30657 0.0
H2825 H 0.03885 0.26839 0.29937 0.0
C2826 C 0.58585 0.20304 0.06991 0.0
C2827 C 0.56834 0.18418 0.06746 0.0
C2828 C 0.58147 0.22741 0.0659 0.0
C2829 C 0.5371 0.26574 0.04684 0.0
H2830 H 0.54377 0.31162 0.07457 0.0
C2831 C 0.46649 0.32183 0.07536 0.0
C2832 C 0.4552 0.33901 0.06726 0.0
C2833 C 0.48935 0.31127 0.07233 0.0
C2834 C 0.54243 0.2994 0.06654 0.0
H2835 H 0.53325 0.17505 0.05862 0.0
H2836 H 0.52444 0.21795 0.05232 0.0
H2837 H 0.56847 0.27379 0.0743 0.0
H2838 H 0.45896 0.35863 0.04959 0.0
H2839 H 0.49886 0.33887 0.04399 0.0
H2840 H 0.50851 0.29008 0.04003 0.0
C2841 C 0.54199 0.21407 0.05695 0.0
C2842 C 0.55661 0.27765 0.06635 0.0
C2843 C 0.54662 0.18964 0.0608 0.0
C2844 C 0.4672 0.34525 0.05596 0.0
C2845 C 0.49007 0.3343 0.05282 0.0
C2846 C 0.52265 0.2874 0.04714 0.0
C2847 C 0.55932 0.23328 0.0595 0.0
C2848 C 0.5524 0.2596 0.05707 0.0
C2849 C 0.50134 0.31738 0.06107 0.0
C2850 C 0.52371 0.30309 0.05758 0.0
H2851 H 0.60312 0.19878 0.07475 0.0
H2852 H 0.59527 0.24166 0.06792 0.0
H2853 H 0.53427 0.2526 0.0393 0.0
H2854 H 0.45744 0.31612 0.08396 0.0
H2855 H 0.49721 0.29751 0.07863 0.0
C2856 C 0.42338 0.27487 0.74921 0.0
C2857 C 0.39952 0.27384 0.74378 0.0
C2858 C 0.43639 0.253 0.75166 0.0
C2859 C 0.46559 0.20604 0.75143 0.0
H2860 H 0.46256 0.18893 0.71628 0.0
C2861 C 0.53704 0.17271 0.71 0.0
C2862 C 0.55628 0.18966 0.71292 0.0
C2863 C 0.51401 0.17419 0.71609 0.0
C2864 C 0.46352 0.19289 0.72618 0.0
H2865 H 0.36855 0.24915 0.73926 0.0
H2866 H 0.39206 0.2108 0.74282 0.0
H2867 H 0.42521 0.20339 0.72682 0.0
H2868 H 0.56606 0.22253 0.72361 0.0
H2869 H 0.52553 0.22561 0.73399 0.0
H2870 H 0.50465 0.19778 0.75034 0.0
C2871 C 0.40069 0.22855 0.74507 0.0
C2872 C 0.44201 0.20092 0.73232 0.0
C2873 C 0.38744 0.25054 0.74281 0.0
C2874 C 0.55147 0.20931 0.72122 0.0
C2875 C 0.52854 0.21071 0.72732 0.0
C2876 C 0.48713 0.19813 0.74527 0.0
C2877 C 0.42601 0.22973 0.74845 0.0
C2878 C 0.44343 0.20973 0.74467 0.0
C2879 C 0.51002 0.19255 0.72519 0.0
C2880 C 0.48654 0.19339 0.73238 0.0
H2881 H 0.43331 0.29238 0.75024 0.0
H2882 H 0.45584 0.25469 0.75435 0.0
H2883 H 0.46705 0.21222 0.76102 0.0
H2884 H 0.54045 0.15709 0.70381 0.0
H2885 H 0.49985 0.16021 0.71418 0.0
C2886 C 0.511 0.85591 0.47787 0.0
C2887 C 0.53308 0.84296 0.4807 0.0
C2888 C 0.48781 0.84526 0.4806 0.0
C2889 C 0.45302 0.80483 0.47231 0.0
H2890 H 0.44566 0.74878 0.49495 0.0
C2891 C 0.45151 0.69549 0.46772 0.0
C2892 C 0.42908 0.68904 0.4619 0.0
C2893 C 0.45498 0.71968 0.4721 0.0
C2894 C 0.44697 0.76465 0.48868 0.0
H2895 H 0.54866 0.81052 0.48991 0.0
H2896 H 0.50857 0.7915 0.49432 0.0
H2897 H 0.46665 0.78663 0.50208 0.0
H2898 H 0.39288 0.7022 0.45567 0.0
H2899 H 0.39938 0.74519 0.46308 0.0
H2900 H 0.43498 0.78196 0.45864 0.0
C2901 C 0.50872 0.81 0.49021 0.0
C2902 C 0.45889 0.78628 0.49275 0.0
C2903 C 0.53183 0.82073 0.48757 0.0
C2904 C 0.4106 0.70722 0.45989 0.0
C2905 C 0.41409 0.73151 0.46427 0.0
C2906 C 0.44081 0.7833 0.4683 0.0
C2907 C 0.48653 0.82137 0.48601 0.0
C2908 C 0.46415 0.80554 0.48422 0.0
C2909 C 0.43594 0.73755 0.47079 0.0
C2910 C 0.43965 0.76245 0.47616 0.0
H2911 H 0.51167 0.87352 0.47287 0.0
H2912 H 0.47101 0.85465 0.47749 0.0
H2913 H 0.45654 0.81939 0.46549 0.0
H2914 H 0.4657 0.6815 0.46949 0.0
H2915 H 0.47228 0.72429 0.47683 0.0
C2916 C 0.90709 0.78631 0.24172 0.0
C2917 C 0.91716 0.80516 0.23411 0.0
C2918 C 0.92282 0.76855 0.24708 0.0
C2919 C 0.96031 0.72548 0.24378 0.0
H2920 H 0.02701 0.74312 0.25493 0.0
C2921 C 0.06355 0.70319 0.22757 0.0
C2922 C 0.06443 0.67708 0.22776 0.0
C2923 C 0.04427 0.7156 0.23368 0.0
C2924 C 0.00834 0.73776 0.25205 0.0
H2925 H 0.95087 0.82158 0.2265 0.0
H2926 H 0.97854 0.79064 0.23587 0.0
H2927 H 0.99291 0.77292 0.25747 0.0
H2928 H 0.04582 0.64325 0.23406 0.0
H2929 H 0.0118 0.6651 0.24466 0.0
H2930 H 0.97618 0.6914 0.23719 0.0
C2931 C 0.95867 0.78953 0.23781 0.0
C2932 C 0.98888 0.75467 0.25359 0.0
C2933 C 0.94295 0.80692 0.23229 0.0
C2934 C 0.04555 0.66349 0.23392 0.0
C2935 C 0.0262 0.6759 0.23998 0.0
C2936 C 0.9798 0.70857 0.24221 0.0
C2937 C 0.94871 0.76999 0.24507 0.0
C2938 C 0.96526 0.74935 0.24858 0.0
C2939 C 0.02556 0.70205 0.24001 0.0
C2940 C 0.00426 0.71547 0.24549 0.0
H2941 H 0.88708 0.78502 0.24322 0.0
H2942 H 0.91483 0.75341 0.25251 0.0
H2943 H 0.94219 0.72103 0.23985 0.0
H2944 H 0.07801 0.71397 0.22293 0.0
H2945 H 0.04376 0.73582 0.23327 0.0
C2946 C 0.9574 0.15492 0.98929 0.0
C2947 C 0.95827 0.1523 0.97625 0.0
C2948 C 0.97674 0.16696 0.99557 0.0
C2949 C 0.03847 0.19797 0.99104 0.0
H2950 H 0.00396 0.25507 1.00511 0.0
C2951 C 0.04174 0.30608 0.98226 0.0
C2952 C 0.06701 0.31191 0.984 0.0
C2953 C 0.03205 0.28383 0.98701 0.0
C2954 C 0.01401 0.23908 1.00148 0.0
H2955 H 0.98096 0.15768 0.95969 0.0
H2956 H 0.01453 0.17914 0.97056 0.0
H2957 H 0.9821 0.21549 1.00318 0.0
H2958 H 0.10204 0.2995 0.9921 0.0
H2959 H 0.08506 0.2603 1.00025 0.0
H2960 H 0.06955 0.22247 0.98819 0.0
C2961 C -0.00086 0.17171 0.97601 0.0
C2962 C 0.00162 0.21631 1.00049 0.0
C2963 C 0.97981 0.15966 0.96974 0.0
C2964 C 0.08237 0.29547 0.99077 0.0
C2965 C 0.07274 0.2731 0.99541 0.0
C2966 C 0.05089 0.22078 0.99206 0.0
C2967 C 0.9972 0.17655 0.98888 0.0
C2968 C 0.01315 0.19612 0.9944 0.0
C2969 C 0.04758 0.26699 0.99344 0.0
C2970 C 0.03807 0.24188 0.99647 0.0
H2971 H 0.94126 0.14862 0.99456 0.0
H2972 H 0.97494 0.17022 1.00551 0.0
H2973 H 0.04785 0.18252 0.9865 0.0
H2974 H 0.02961 0.31854 0.97709 0.0
H2975 H 0.01268 0.27928 0.98513 0.0
C2976 C 0.29975 0.92445 0.30356 0.0
C2977 C 0.3172 0.93145 0.3127 0.0
C2978 C 0.29511 0.93988 0.29328 0.0
C2979 C 0.30526 0.00282 0.27954 0.0
H2980 H 0.31158 0.96622 0.24844 0.0
C2981 C 0.30327 0.05464 0.23263 0.0
C2982 C 0.3243 0.04994 0.22512 0.0
C2983 C 0.29688 0.03841 0.2424 0.0
C2984 C 0.30961 0.9767 0.25703 0.0
H2985 H 0.34269 0.96055 0.31852 0.0
H2986 H 0.33397 0.98809 0.30077 0.0
H2987 H 0.31044 0.94357 0.26825 0.0
H2988 H 0.35408 0.02373 0.22143 0.0
H2989 H 0.34229 0.9947 0.23806 0.0
H2990 H 0.30523 0.03601 0.26832 0.0
C2991 C 0.32367 0.97072 0.3016 0.0
C2992 C 0.30876 0.96373 0.26839 0.0
C2993 C 0.32842 0.95513 0.31188 0.0
C2994 C 0.3372 0.02735 0.22674 0.0
C2995 C 0.33067 0.01093 0.23644 0.0
C2996 C 0.30584 0.01578 0.26816 0.0
C2997 C 0.30787 0.9627 0.29188 0.0
C2998 C 0.3068 0.97663 0.2798 0.0
C2999 C 0.31131 0.01701 0.24482 0.0
C3000 C 0.30827 0.0029 0.25676 0.0
H3001 H 0.29147 0.90595 0.30377 0.0
H3002 H 0.28261 0.93328 0.28605 0.0
H3003 H 0.30379 0.01333 0.28814 0.0
H3004 H 0.29354 0.07233 0.23189 0.0
H3005 H 0.28167 0.04349 0.24859 0.0
C3006 C 0.27567 0.07478 0.56346 0.0
C3007 C 0.29891 0.06298 0.56496 0.0
C3008 C 0.26049 0.0693 0.55315 0.0
C3009 C 0.22953 0.05122 0.53073 0.0
H3010 H 0.26975 0.055 0.50059 0.0
C3011 C 0.18281 0.05401 0.48247 0.0
C3012 C 0.19013 0.07466 0.4752 0.0
C3013 C 0.19728 0.04626 0.49266 0.0
C3014 C 0.25825 0.05372 0.5089 0.0
H3015 H 0.32359 0.03492 0.55733 0.0
H3016 H 0.29692 0.02485 0.53954 0.0
H3017 H 0.29017 0.05218 0.52092 0.0
H3018 H 0.21893 0.10252 0.47251 0.0
H3019 H 0.24488 0.08833 0.48988 0.0
H3020 H 0.19761 0.05367 0.51873 0.0
C3021 C 0.29041 0.03842 0.54629 0.0
C3022 C 0.26994 0.05188 0.52057 0.0
C3023 C 0.30541 0.04372 0.55667 0.0
C3024 C 0.21333 0.08593 0.47762 0.0
C3025 C 0.228 0.07801 0.48772 0.0
C3026 C 0.21783 0.05277 0.51905 0.0
C3027 C 0.26842 0.05209 0.54406 0.0
C3028 C 0.25574 0.05098 0.53165 0.0
C3029 C 0.21949 0.05892 0.49575 0.0
C3030 C 0.23205 0.05442 0.50799 0.0
H3031 H 0.27063 0.09035 0.5694 0.0
H3032 H 0.24376 0.0803 0.55171 0.0
H3033 H 0.21804 0.05063 0.53906 0.0
H3034 H 0.16457 0.04558 0.48112 0.0
H3035 H 0.1903 0.03135 0.49857 0.0
C3036 C 0.19084 0.9443 0.73165 0.0
C3037 C 0.16801 0.94508 0.72522 0.0
C3038 C 0.19692 0.9628 0.74039 0.0
C3039 C 0.17642 0.02408 0.75389 0.0
H3040 H 0.19945 0.99472 0.78492 0.0
C3041 C 0.18109 0.08314 0.79871 0.0
C3042 C 0.17052 0.07182 0.8093 0.0
C3043 C 0.18727 0.06883 0.78821 0.0
C3044 C 0.19304 0.00328 0.77634 0.0
H3045 H 0.13415 0.96632 0.72248 0.0
H3046 H 0.1448 -0.00112 0.73743 0.0
H3047 H 0.19782 0.96935 0.76611 0.0
H3048 H 0.15858 0.03674 0.81739 0.0
H3049 H 0.1696 0.01163 0.79923 0.0
H3050 H 0.17026 0.05761 0.76429 0.0
C3051 C 0.15835 0.9843 0.73567 0.0
C3052 C 0.19242 0.98879 0.76546 0.0
C3053 C 0.15231 0.96577 0.72694 0.0
C3054 C 0.16754 0.04579 0.8095 0.0
C3055 C 0.17371 0.03144 0.79902 0.0
C3056 C 0.17701 0.03857 0.76477 0.0
C3057 C 0.18015 0.98239 0.74297 0.0
C3058 C 0.18371 -0.00115 0.75412 0.0
C3059 C 0.18274 0.04289 0.78804 0.0
C3060 C 0.18493 0.02826 0.7762 0.0
H3061 H 0.20287 0.92811 0.73083 0.0
H3062 H 0.21405 0.96089 0.74568 0.0
H3063 H 0.16974 0.03256 0.74533 0.0
H3064 H 0.1828 0.1033 0.79819 0.0
H3065 H 0.19449 0.07828 0.78001 0.0
C3066 C 0.18247 0.95283 0.05785 0.0
C3067 C 0.18674 0.93211 0.06561 0.0
C3068 C 0.19888 0.95842 0.04803 0.0
C3069 C 0.22091 0.94754 0.02241 0.0
H3070 H 0.29298 0.94038 0.02202 0.0
C3071 C 0.27903 0.91802 0.97912 0.0
C3072 C 0.30307 0.92818 0.9777 0.0
C3073 C 0.26411 0.92467 0.98936 0.0
C3074 C 0.27288 0.9428 0.02196 0.0
H3075 H 0.21235 0.90203 0.06972 0.0
H3076 H 0.24161 0.91231 0.05293 0.0
H3077 H 0.27075 0.94148 0.04196 0.0
H3078 H 0.3301 0.95376 0.98556 0.0
H3079 H 0.30395 0.96581 1.00329 0.0
H3080 H 0.22295 0.94801 1.00241 0.0
C3081 C 0.22564 0.92436 0.05442 0.0
C3082 C 0.26014 0.94322 0.0334 0.0
C3083 C 0.20908 0.91868 0.06419 0.0
C3084 C 0.31127 0.94633 0.98621 0.0
C3085 C 0.29651 0.95281 0.99651 0.0
C3086 C 0.23362 0.94686 1.01097 0.0
C3087 C 0.21997 0.94342 0.0458 0.0
C3088 C 0.23397 0.94541 0.03377 0.0
C3089 C 0.2732 0.94126 0.99849 0.0
C3090 C 0.25974 0.94428 1.0106 0.0
H3091 H 0.16499 0.96298 0.05847 0.0
H3092 H 0.19413 0.97342 0.04166 0.0
H3093 H 0.2007 0.94879 0.02233 0.0
H3094 H 0.2727 0.90326 0.97297 0.0
H3095 H 0.24636 0.91523 0.99066 0.0
C3096 C 0.68956 0.92979 0.80604 0.0
C3097 C 0.67089 0.93319 0.8151 0.0
C3098 C 0.69343 0.94761 0.79665 0.0
C3099 C 0.67715 0.01174 0.78588 0.0
H3100 H 0.68071 0.98178 0.75295 0.0
C3101 C 0.68231 0.07366 0.74226 0.0
C3102 C 0.66603 0.06752 0.73247 0.0
C3103 C 0.68723 0.05655 0.7518 0.0
C3104 C 0.67971 0.99046 0.76206 0.0
H3105 H 0.64234 0.95839 0.82179 0.0
H3106 H 0.64948 0.98998 0.80564 0.0
H3107 H 0.6817 0.95521 0.77149 0.0
H3108 H 0.64269 0.03844 0.72472 0.0
H3109 H 0.65138 0.00818 0.74139 0.0
H3110 H 0.67424 0.0469 0.77648 0.0
C3111 C 0.66141 0.97366 0.80582 0.0
C3112 C 0.68058 0.97525 0.77272 0.0
C3113 C 0.65754 0.95574 0.81522 0.0
C3114 C 0.65589 0.04334 0.73198 0.0
C3115 C 0.66072 0.02614 0.7416 0.0
C3116 C 0.67637 0.02694 0.77523 0.0
C3117 C 0.67856 0.96922 0.79607 0.0
C3118 C 0.67921 0.98568 0.78478 0.0
C3119 C 0.67567 0.03293 0.7519 0.0
C3120 C 0.67757 0.01653 0.76317 0.0
H3121 H 0.69955 0.91222 0.8055 0.0
H3122 H 0.70709 0.94375 0.78943 0.0
H3123 H 0.67605 0.02043 0.79498 0.0
H3124 H 0.69 0.09236 0.74295 0.0
H3125 H 0.69925 0.06227 0.75941 0.0
C3126 C 0.68622 0.93884 0.48309 0.0
C3127 C 0.6926 0.91667 0.47684 0.0
C3128 C 0.70078 0.94756 0.49303 0.0
C3129 C 0.76073 0.94093 0.50991 0.0
H3130 H 0.72005 0.94685 0.53981 0.0
C3131 C 0.7782 0.92243 0.56429 0.0
C3132 C 0.80137 0.93453 0.56562 0.0
C3133 C 0.76271 0.92781 0.5541 0.0
C3134 C 0.73163 0.94555 0.53153 0.0
H3135 H 0.71999 0.88714 0.47563 0.0
H3136 H 0.74622 0.90306 0.49252 0.0
H3137 H 0.69991 0.94229 0.51944 0.0
H3138 H 0.82542 0.96325 0.55796 0.0
H3139 H 0.79827 0.97299 0.54031 0.0
H3140 H 0.79245 0.94337 0.52203 0.0
C3141 C 0.72993 0.91371 0.48976 0.0
C3142 C 0.72014 0.9431 0.51985 0.0
C3143 C 0.7151 0.90475 0.47996 0.0
C3144 C 0.80733 0.95415 0.5574 0.0
C3145 C 0.79205 0.95931 0.54711 0.0
C3146 C 0.77222 0.94378 0.52156 0.0
C3147 C 0.7222 0.93445 0.49682 0.0
C3148 C 0.73456 0.94029 0.50893 0.0
C3149 C 0.7703 0.94519 0.54497 0.0
C3150 C 0.75782 0.94569 0.53254 0.0
H3151 H 0.66862 0.94799 0.48121 0.0
H3152 H 0.69443 0.96369 0.49824 0.0
H3153 H 0.77233 0.93873 0.50168 0.0
H3154 H 0.77354 0.90665 0.57021 0.0
H3155 H 0.74613 0.9165 0.55269 0.0
C3156 C 0.82576 0.03135 0.31223 0.0
C3157 C 0.81433 0.05457 0.31426 0.0
C3158 C 0.81847 0.01632 0.30217 0.0
C3159 C 0.79593 0.02595 0.27047 0.0
H3160 H 0.79661 0.95367 0.2687 0.0
C3161 C 0.82577 0.96825 0.22737 0.0
C3162 C 0.81452 0.94484 0.22548 0.0
C3163 C 0.81824 0.98348 0.23731 0.0
C3164 C 0.79593 0.97388 0.26903 0.0
H3165 H 0.78545 0.07968 0.30782 0.0
H3166 H 0.77229 0.05328 0.29043 0.0
H3167 H 0.79667 0.9742 0.28905 0.0
H3168 H 0.78541 0.91985 0.23193 0.0
H3169 H 0.77188 0.94656 0.24911 0.0
H3170 H 0.79632 0.02563 0.25044 0.0
C3171 C 0.78685 0.0466 0.2966 0.0
C3172 C 0.79619 0.98562 0.2807 0.0
C3173 C 0.794 0.06146 0.30673 0.0
C3174 C 0.79388 0.93815 0.2329 0.0
C3175 C 0.78653 0.95319 0.24293 0.0
C3176 C 0.79597 0.01421 0.2588 0.0
C3177 C 0.79985 0.02447 0.29384 0.0
C3178 C 0.7965 0.0118 0.28157 0.0
C3179 C 0.79953 0.97538 0.24564 0.0
C3180 C 0.79627 0.98803 0.25793 0.0
H3181 H 0.8421 0.02607 0.31758 0.0
H3182 H 0.82901 -0.0005 0.30027 0.0
H3183 H 0.7966 0.04617 0.27079 0.0
H3184 H 0.8423 0.97344 0.22209 0.0
H3185 H 0.82877 0.00037 0.23917 0.0
C3186 C 0.78389 0.08397 0.97795 0.0
C3187 C 0.80795 0.07386 0.97671 0.0
C3188 C 0.76861 0.07718 0.98806 0.0
C3189 C 0.77592 0.05829 0.02071 0.0
H3190 H 0.70377 0.05174 1.02018 0.0
C3191 C 0.6841 0.04538 0.0555 0.0
C3192 C 0.68802 0.06548 0.06368 0.0
C3193 C 0.70085 0.04072 0.04572 0.0
C3194 C 0.72396 0.05316 1.02051 0.0
H3195 H 0.83472 0.04836 0.98481 0.0
H3196 H 0.80797 0.03608 1.00233 0.0
H3197 H 0.72695 0.05342 1.00054 0.0
H3198 H 0.7132 0.09556 0.06848 0.0
H3199 H 0.74304 0.08694 0.05172 0.0
H3200 H 0.77284 0.0588 0.04069 0.0
C3201 C 0.80077 0.04913 0.99548 0.0
C3202 C 0.73721 0.05437 1.00923 0.0
C3203 C 0.81589 0.05575 0.98532 0.0
C3204 C 0.71022 0.07936 0.06262 0.0
C3205 C 0.72712 0.07462 0.05288 0.0
C3206 C 0.76264 0.05735 0.032 0.0
C3207 C 0.77736 0.06052 0.99725 0.0
C3208 C 0.76334 0.05712 1.00919 0.0
C3209 C 0.72191 0.0561 0.04392 0.0
C3210 C 0.73647 0.05492 0.03204 0.0
H3211 H 0.77775 0.09869 0.97172 0.0
H3212 H 0.75079 0.0865 0.98919 0.0
H3213 H 0.79601 0.06083 0.02102 0.0
H3214 H 0.66673 0.03493 0.05585 0.0
H3215 H 0.69645 0.02611 0.03909 0.0
C3216 C 0.82613 0.53252 0.72635 0.0
C3217 C 0.81471 0.55571 0.72419 0.0
C3218 C 0.81876 0.51764 0.73649 0.0
C3219 C 0.79606 0.52842 0.76808 0.0
H3220 H 0.79931 0.45633 0.77092 0.0
C3221 C 0.79944 0.4426 0.80695 0.0
C3222 C 0.82017 0.45067 0.81392 0.0
C3223 C 0.79079 0.45674 0.79682 0.0
C3224 C 0.79787 0.47647 0.7703 0.0
H3225 H 0.78548 0.58067 0.73035 0.0
H3226 H 0.7721 0.55448 0.74784 0.0
H3227 H 0.79815 0.47575 0.75028 0.0
H3228 H 0.84653 0.48086 0.81648 0.0
H3229 H 0.83074 0.50615 0.79928 0.0
H3230 H 0.79693 0.52917 0.7881 0.0
C3231 C 0.78681 0.54777 0.74175 0.0
C3232 C 0.79743 0.48759 0.75846 0.0
C3233 C 0.79406 0.5625 0.73154 0.0
C3234 C 0.83003 0.47453 0.81154 0.0
C3235 C 0.82119 0.48885 0.80153 0.0
C3236 C 0.79675 0.51731 0.77992 0.0
C3237 C 0.8 0.52586 0.74474 0.0
C3238 C 0.79692 0.51372 0.7572 0.0
C3239 C 0.8025 0.4794 0.7936 0.0
C3240 C 0.79807 0.49121 0.78118 0.0
H3241 H 0.84268 0.52729 0.72112 0.0
H3242 H 0.82946 0.50098 0.73855 0.0
H3243 H 0.79609 0.54862 0.76747 0.0
H3244 H 0.79193 0.424 0.80828 0.0
H3245 H 0.77618 0.44906 0.79098 0.0
C3246 C 0.77936 0.5877 0.05972 0.0
C3247 C 0.80235 0.57612 0.0622 0.0
C3248 C 0.76418 0.57928 0.04992 0.0
C3249 C 0.73269 0.55302 0.02973 0.0
H3250 H 0.77138 0.54891 0.9991 0.0
C3251 C 0.68314 0.53926 0.98302 0.0
C3252 C 0.6883 0.55866 0.97453 0.0
C3253 C 0.69912 0.53466 0.9931 0.0
C3254 C 0.76034 0.54976 1.00758 0.0
H3255 H 0.82705 0.54614 0.05665 0.0
H3256 H 0.80053 0.53123 0.0397 0.0
H3257 H 0.79282 0.5533 1.01914 0.0
H3258 H 0.71537 0.58683 0.96929 0.0
H3259 H 0.74394 0.57806 0.98651 0.0
H3260 H 0.7002 0.55026 1.01816 0.0
C3261 C 0.79408 0.54667 0.04537 0.0
C3262 C 0.7726 0.5521 1.01907 0.0
C3263 C 0.80903 0.55489 0.05526 0.0
C3264 C 0.71131 0.5712 0.97542 0.0
C3265 C 0.72748 0.56645 0.98545 0.0
C3266 C 0.72045 0.55032 1.01826 0.0
C3267 C 0.77202 0.55944 0.04225 0.0
C3268 C 0.7589 0.55416 0.03027 0.0
C3269 C 0.72075 0.5492 0.99481 0.0
C3270 C 0.73411 0.54902 1.00702 0.0
H3271 H 0.77424 0.60466 0.0646 0.0
H3272 H 0.7474 0.58966 0.0477 0.0
H3273 H 0.72163 0.55461 0.03817 0.0
H3274 H 0.66521 0.52981 0.98278 0.0
H3275 H 0.69358 0.52102 1.00006 0.0
C3276 C 0.66657 0.5229 0.31129 0.0
C3277 C 0.67657 0.5468 0.3134 0.0
C3278 C 0.67456 0.50857 0.30109 0.0
C3279 C 0.69696 0.52046 0.2693 0.0
H3280 H 0.69693 0.44828 0.26675 0.0
C3281 C 0.6694 0.4657 0.22488 0.0
C3282 C 0.67978 0.44195 0.22286 0.0
C3283 C 0.67659 0.48008 0.2352 0.0
C3284 C 0.69745 0.46847 0.26727 0.0
H3285 H 0.70409 0.57359 0.30701 0.0
H3286 H 0.7186 0.5484 0.28946 0.0
H3287 H 0.69653 0.46791 0.28729 0.0
H3288 H 0.70713 0.41551 0.2296 0.0
H3289 H 0.72032 0.44082 0.24736 0.0
H3290 H 0.69703 0.52103 0.24927 0.0
C3291 C 0.70445 0.54072 0.29562 0.0
C3292 C 0.69697 0.47973 0.27908 0.0
C3293 C 0.69659 0.55491 0.30589 0.0
C3294 C 0.69938 0.43407 0.23064 0.0
C3295 C 0.70646 0.44832 0.24103 0.0
C3296 C 0.69726 0.50921 0.25749 0.0
C3297 C 0.69258 0.51798 0.2927 0.0
C3298 C 0.69635 0.50588 0.28026 0.0
C3299 C 0.69419 0.47089 0.24381 0.0
C3300 C 0.69714 0.48305 0.2563 0.0
H3301 H 0.6505 0.51656 0.31661 0.0
H3302 H 0.66486 0.49124 0.29913 0.0
H3303 H 0.69607 0.54065 0.26981 0.0
H3304 H 0.65362 0.47185 0.21934 0.0
H3305 H 0.66658 0.49725 0.23705 0.0
C3306 C 0.81497 0.44969 0.48479 0.0
C3307 C 0.80776 0.43004 0.47689 0.0
C3308 C 0.80016 0.45633 0.49506 0.0
C3309 C 0.77893 0.44621 0.52105 0.0
H3310 H 0.70657 0.44684 0.52277 0.0
C3311 C 0.72037 0.41815 0.56452 0.0
C3312 C 0.6973 0.43001 0.56645 0.0
C3313 C 0.73565 0.42488 0.55439 0.0
C3314 C 0.72681 0.4471 0.52247 0.0
H3315 H 0.77859 0.40314 0.47307 0.0
H3316 H 0.75211 0.41544 0.49059 0.0
H3317 H 0.72734 0.44702 0.50243 0.0
H3318 H 0.67289 0.45926 0.55976 0.0
H3319 H 0.69971 0.47146 0.54229 0.0
H3320 H 0.77839 0.44531 0.54108 0.0
C3321 C 0.7692 0.4258 0.48889 0.0
C3322 C 0.73869 0.44699 0.51079 0.0
C3323 C 0.78418 0.419 0.47869 0.0
C3324 C 0.69097 0.45036 0.55878 0.0
C3325 C 0.70606 0.45692 0.54857 0.0
C3326 C 0.76705 0.44603 0.53272 0.0
C3327 C 0.77769 0.44357 0.49759 0.0
C3328 C 0.76491 0.44633 0.50992 0.0
C3329 C 0.72794 0.44341 0.54589 0.0
C3330 C 0.74082 0.44626 0.53359 0.0
H3331 H 0.83343 0.45791 0.4839 0.0
H3332 H 0.80712 0.47029 0.50149 0.0
H3333 H 0.79915 0.44525 0.52074 0.0
H3334 H 0.72526 0.40178 0.56996 0.0
H3335 H 0.75228 0.41395 0.55258 0.0
C3336 C 0.20228 0.5602 0.23063 0.0
C3337 C 0.18357 0.55292 0.22217 0.0
C3338 C 0.20826 0.54508 0.24089 0.0
C3339 C 0.19863 0.48271 0.25566 0.0
H3340 H 0.19352 0.52081 0.28635 0.0
C3341 C 0.19916 0.43281 0.30315 0.0
C3342 C 0.1789 0.43899 0.31089 0.0
C3343 C 0.20579 0.4482 0.29308 0.0
C3344 C 0.19514 0.5099 0.27788 0.0
H3345 H 0.15788 0.52329 0.21734 0.0
H3346 H 0.16912 0.49631 0.23483 0.0
H3347 H 0.19495 0.54256 0.26629 0.0
H3348 H 0.15036 0.46658 0.31451 0.0
H3349 H 0.16241 0.49401 0.29723 0.0
H3350 H 0.19786 0.45003 0.26722 0.0
C3351 C 0.1792 0.51372 0.2336 0.0
C3352 C 0.19622 0.52237 0.26637 0.0
C3353 C 0.17304 0.52899 0.22341 0.0
C3354 C 0.16666 0.46186 0.30899 0.0
C3355 C 0.1734 0.47739 0.29897 0.0
C3356 C 0.19781 0.47026 0.26718 0.0
C3357 C 0.19582 0.52223 0.24285 0.0
C3358 C 0.19763 0.50892 0.25509 0.0
C3359 C 0.19224 0.47012 0.29053 0.0
C3360 C 0.19571 0.48367 0.27843 0.0
H3361 H 0.21007 0.57889 0.23018 0.0
H3362 H 0.22137 0.55208 0.24775 0.0
H3363 H 0.19967 0.47178 0.24718 0.0
H3364 H 0.20832 0.41487 0.30415 0.0
H3365 H 0.22057 0.44217 0.28686 0.0
C3366 C 0.27566 0.41074 0.06018 0.0
C3367 C 0.29836 0.42282 0.06278 0.0
C3368 C 0.26078 0.41859 0.05017 0.0
C3369 C 0.27072 0.44472 1.0192 0.0
H3370 H 0.19846 0.44248 1.01686 0.0
C3371 C 0.18391 0.44714 0.98101 0.0
C3372 C 0.19127 0.42704 0.97343 0.0
C3373 C 0.19852 0.45436 0.99123 0.0
C3374 C 0.21865 0.44363 1.01735 0.0
H3375 H 0.32279 0.45321 0.05732 0.0
H3376 H 0.29672 0.4672 0.03997 0.0
H3377 H 0.21842 0.44097 0.03735 0.0
H3378 H 0.22069 0.40035 0.96992 0.0
H3379 H 0.24686 0.41373 0.98729 0.0
H3380 H 0.27099 0.44616 0.99918 0.0
C3381 C 0.29027 0.45177 0.0457 0.0
C3382 C 0.23007 0.44254 0.0291 0.0
C3383 C 0.30496 0.44408 0.0558 0.0
C3384 C 0.21495 0.41645 0.97533 0.0
C3385 C 0.22976 0.42388 0.98544 0.0
C3386 C 0.25932 0.44549 1.00745 0.0
C3387 C 0.26863 0.43839 0.04242 0.0
C3388 C 0.25624 0.44272 0.03016 0.0
C3389 C 0.22096 0.44184 0.99395 0.0
C3390 C 0.23315 0.4446 1.00637 0.0
H3391 H 0.27065 0.39375 0.06511 0.0
H3392 H 0.24434 0.40773 0.04783 0.0
H3393 H 0.29095 0.4445 1.01967 0.0
H3394 H 0.16541 0.45511 0.98004 0.0
H3395 H 0.19136 0.46844 0.99754 0.0
C3396 C 0.34234 0.53138 0.81258 0.0
C3397 C 0.32956 0.55415 0.81374 0.0
C3398 C 0.33619 0.51461 0.80301 0.0
C3399 C 0.3156 0.51919 0.77089 0.0
H3400 H 0.31697 0.44682 0.77125 0.0
C3401 C 0.34903 0.456 0.73023 0.0
C3402 C 0.33681 0.43305 0.72846 0.0
C3403 C 0.34123 0.47238 0.73966 0.0
C3404 C 0.31618 0.46703 0.77098 0.0
H3405 H 0.29935 0.57648 0.80634 0.0
H3406 H 0.28837 0.54716 0.78977 0.0
H3407 H 0.31544 0.46976 0.79098 0.0
H3408 H 0.30607 0.40983 0.7347 0.0
H3409 H 0.29231 0.43844 0.7511 0.0
H3410 H 0.31769 0.5165 0.75091 0.0
C3411 C 0.30305 0.54216 0.79626 0.0
C3412 C 0.31548 0.48014 0.78229 0.0
C3413 C 0.30897 0.55869 0.80593 0.0
C3414 C 0.31531 0.42779 0.73557 0.0
C3415 C 0.30777 0.44392 0.74514 0.0
C3416 C 0.31675 0.5061 0.75959 0.0
C3417 C 0.31743 0.52057 0.7943 0.0
C3418 C 0.3154 0.50638 0.78238 0.0
C3419 C 0.32139 0.46582 0.74767 0.0
C3420 C 0.31728 0.47987 0.7595 0.0
H3421 H 0.35886 0.52785 0.81815 0.0
H3422 H 0.34773 0.49821 0.80171 0.0
H3423 H 0.31597 0.53942 0.77063 0.0
H3424 H 0.36618 0.46009 0.72522 0.0
H3425 H 0.35223 0.48902 0.74142 0.0
C3426 C 0.19714 0.54228 0.5619 0.0
C3427 C 0.19793 0.56464 0.56873 0.0
C3428 C 0.21406 0.53803 0.55211 0.0
C3429 C 0.26989 0.56568 0.53537 0.0
H3430 H 0.23748 0.53765 0.50616 0.0
C3431 C 0.29596 0.58883 0.48442 0.0
C3432 C 0.31246 0.57071 0.47973 0.0
C3433 C 0.28093 0.58372 0.49481 0.0
C3434 C 0.24678 0.54527 0.51428 0.0
H3435 H 0.21804 0.59931 0.57116 0.0
H3436 H 0.24741 0.5922 0.55428 0.0
H3437 H 0.21624 0.53621 0.52638 0.0
H3438 H 0.32546 0.53273 0.48194 0.0
H3439 H 0.2982 0.52337 0.49991 0.0
H3440 H 0.29973 0.57602 0.52293 0.0
C3441 C 0.23423 0.57748 0.5565 0.0
C3442 C 0.23479 0.5443 0.52594 0.0
C3443 C 0.21752 0.58149 0.56638 0.0
C3444 C 0.31221 0.5467 0.48505 0.0
C3445 C 0.29695 0.54148 0.49543 0.0
C3446 C 0.28167 0.56691 0.5237 0.0
C3447 C 0.23193 0.55628 0.54878 0.0
C3448 C 0.24601 0.55477 0.53666 0.0
C3449 C 0.28199 0.56031 0.50067 0.0
C3450 C 0.27012 0.55694 0.51306 0.0
H3451 H 0.18177 0.52931 0.56324 0.0
H3452 H 0.21202 0.52115 0.54666 0.0
H3453 H 0.27942 0.57362 0.54333 0.0
H3454 H 0.2964 0.60773 0.48078 0.0
H3455 H 0.26969 0.59856 0.49876 0.0
loop_
_geom_bond_atom_site_label_1
_geom_bond_atom_site_label_2
_geom_bond_distance
_geom_bond_site_symmetry_2
_ccdc_geom_bond_type
C0 C1 1.351 . S
C0 N3 1.368 . S
C0 H5 0.931 . S
C1 C0 1.351 . S
C1 N2 1.373 . S
C1 H29 0.930 . S
N2 C1 1.373 . S
N2 C4 1.340 . S
N3 C0 1.368 . S
N3 C4 1.321 . S
N3 Co6 2.135 . S
C4 N2 1.340 . S
C4 N3 1.321 . S
C4 H28 0.930 . S
H5 C0 0.931 . S
Co6 N3 2.135 . S
Co6 N9 2.121 . S
Co6 O14 2.055 . S
Co6 O17 2.039 . S
Co6 N20 2.140 . S
C7 O8 1.227 . S
C7 O17 1.265 . S
O8 C7 1.227 . S
N9 Co6 2.121 . S
N9 C11 1.375 . S
N9 C12 1.313 . S
C10 C11 1.338 . S
C10 N13 1.377 . S
C10 H30 0.930 . S
C11 N9 1.375 . S
C11 C10 1.338 . S
C11 H15 0.931 . S
C12 N9 1.313 . S
C12 N13 1.344 . S
C12 H16 0.930 . S
N13 C10 1.377 . S
N13 C12 1.344 . S
O14 Co6 2.055 . S
O14 C18 1.253 . S
H15 C11 0.931 . S
H16 C12 0.930 . S
O17 Co6 2.039 . S
O17 C7 1.265 . S
C18 O14 1.253 . S
C18 O19 1.227 . S
O19 C18 1.227 . S
N20 Co6 2.140 . S
N20 C23 1.346 . S
N20 C24 1.345 . S
C21 C22 1.387 . S
C21 C25 1.391 . S
C22 C21 1.387 . S
C22 C23 1.369 . S
C22 H31 0.929 . S
C23 N20 1.346 . S
C23 C22 1.369 . S
C23 H26 0.928 . S
C24 N20 1.345 . S
C24 C25 1.371 . S
C24 H27 0.931 . S
C25 C21 1.391 . S
C25 C24 1.371 . S
C25 H32 0.930 . S
H26 C23 0.928 . S
H27 C24 0.931 . S
H28 C4 0.930 . S
H29 C1 0.930 . S
H30 C10 0.930 . S
H31 C22 0.929 . S
H32 C25 0.930 . S
C33 C34 1.351 . S
C33 N36 1.368 . S
C33 H38 0.931 . S
C34 C33 1.351 . S
C34 N35 1.373 . S
C34 H62 0.930 . S
N35 C34 1.373 . S
N35 C37 1.340 . S
N36 C33 1.368 . S
N36 C37 1.321 . S
N36 Co39 2.135 . S
C37 N35 1.340 . S
C37 N36 1.321 . S
C37 H61 0.930 . S
H38 C33 0.931 . S
Co39 N36 2.135 . S
Co39 N42 2.121 . S
Co39 O47 2.055 . S
Co39 O50 2.039 . S
Co39 N53 2.140 . S
C40 O41 1.227 . S
C40 O50 1.265 . S
O41 C40 1.227 . S
N42 Co39 2.121 . S
N42 C44 1.375 . S
N42 C45 1.313 . S
C43 C44 1.338 . S
C43 N46 1.377 . S
C43 H63 0.930 . S
C44 N42 1.375 . S
C44 C43 1.338 . S
C44 H48 0.931 . S
C45 N42 1.313 . S
C45 N46 1.344 . S
C45 H49 0.930 . S
N46 C43 1.377 . S
N46 C45 1.344 . S
O47 Co39 2.055 . S
O47 C51 1.253 . S
H48 C44 0.931 . S
H49 C45 0.930 . S
O50 Co39 2.039 . S
O50 C40 1.265 . S
C51 O47 1.253 . S
C51 O52 1.227 . S
O52 C51 1.227 . S
N53 Co39 2.140 . S
N53 C56 1.346 . S
N53 C57 1.345 . S
C54 C55 1.387 . S
C54 C58 1.391 . S
C55 C54 1.387 . S
C55 C56 1.369 . S
C55 H64 0.929 . S
C56 N53 1.346 . S
C56 C55 1.369 . S
C56 H59 0.928 . S
C57 N53 1.345 . S
C57 C58 1.371 . S
C57 H60 0.931 . S
C58 C54 1.391 . S
C58 C57 1.371 . S
C58 H65 0.930 . S
H59 C56 0.928 . S
H60 C57 0.931 . S
H61 C37 0.930 . S
H62 C34 0.930 . S
H63 C43 0.930 . S
H64 C55 0.929 . S
H65 C58 0.930 . S
C66 C67 1.351 . S
C66 N69 1.368 . S
C66 H71 0.931 . S
C67 C66 1.351 . S
C67 N68 1.373 . S
C67 H95 0.930 . S
N68 C67 1.373 . S
N68 C70 1.340 . S
N69 C66 1.368 . S
N69 C70 1.321 . S
N69 Co72 2.135 . S
C70 N68 1.340 . S
C70 N69 1.321 . S
C70 H94 0.930 . S
H71 C66 0.931 . S
Co72 N69 2.135 . S
Co72 N75 2.121 . S
Co72 O80 2.055 . S
Co72 O83 2.039 . S
Co72 N86 2.140 . S
C73 O74 1.227 . S
C73 O83 1.265 . S
O74 C73 1.227 . S
N75 Co72 2.121 . S
N75 C77 1.375 . S
N75 C78 1.313 . S
C76 C77 1.338 . S
C76 N79 1.377 . S
C76 H96 0.930 . S
C77 N75 1.375 . S
C77 C76 1.338 . S
C77 H81 0.931 . S
C78 N75 1.313 . S
C78 N79 1.344 . S
C78 H82 0.930 . S
N79 C76 1.377 . S
N79 C78 1.344 . S
O80 Co72 2.055 . S
O80 C84 1.253 . S
H81 C77 0.931 . S
H82 C78 0.930 . S
O83 Co72 2.039 . S
O83 C73 1.265 . S
C84 O80 1.253 . S
C84 O85 1.227 . S
O85 C84 1.227 . S
N86 Co72 2.140 . S
N86 C89 1.346 . S
N86 C90 1.345 . S
C87 C88 1.387 . S
C87 C91 1.391 . S
C88 C87 1.387 . S
C88 C89 1.369 . S
C88 H97 0.929 . S
C89 N86 1.346 . S
C89 C88 1.369 . S
C89 H92 0.928 . S
C90 N86 1.345 . S
C90 C91 1.371 . S
C90 H93 0.931 . S
C91 C87 1.391 . S
C91 C90 1.371 . S
C91 H98 0.930 . S
H92 C89 0.928 . S
H93 C90 0.931 . S
H94 C70 0.930 . S
H95 C67 0.930 . S
H96 C76 0.930 . S
H97 C88 0.929 . S
H98 C91 0.930 . S
C99 C100 1.351 . S
C99 N102 1.368 . S
C99 H104 0.931 . S
C100 C99 1.351 . S
C100 N101 1.373 . S
C100 H128 0.930 . S
N101 C100 1.373 . S
N101 C103 1.340 . S
N102 C99 1.368 . S
N102 C103 1.321 . S
N102 Co105 2.135 . S
C103 N101 1.340 . S
C103 N102 1.321 . S
C103 H127 0.930 . S
H104 C99 0.931 . S
Co105 N102 2.135 . S
Co105 N108 2.121 . S
Co105 O113 2.055 . S
Co105 O116 2.039 . S
Co105 N119 2.140 . S
C106 O107 1.227 . S
C106 O116 1.265 . S
O107 C106 1.227 . S
N108 Co105 2.121 . S
N108 C110 1.375 . S
N108 C111 1.313 . S
C109 C110 1.338 . S
C109 N112 1.377 . S
C109 H129 0.930 . S
C110 N108 1.375 . S
C110 C109 1.338 . S
C110 H114 0.931 . S
C111 N108 1.313 . S
C111 N112 1.344 . S
C111 H115 0.930 . S
N112 C109 1.377 . S
N112 C111 1.344 . S
O113 Co105 2.055 . S
O113 C117 1.253 . S
H114 C110 0.931 . S
H115 C111 0.930 . S
O116 Co105 2.039 . S
O116 C106 1.265 . S
C117 O113 1.253 . S
C117 O118 1.227 . S
O118 C117 1.227 . S
N119 Co105 2.140 . S
N119 C122 1.346 . S
N119 C123 1.345 . S
C120 C121 1.387 . S
C120 C124 1.391 . S
C121 C120 1.387 . S
C121 C122 1.369 . S
C121 H130 0.929 . S
C122 N119 1.346 . S
C122 C121 1.369 . S
C122 H125 0.928 . S
C123 N119 1.345 . S
C123 C124 1.371 . S
C123 H126 0.931 . S
C124 C120 1.391 . S
C124 C123 1.371 . S
C124 H131 0.930 . S
H125 C122 0.928 . S
H126 C123 0.931 . S
H127 C103 0.930 . S
H128 C100 0.930 . S
H129 C109 0.930 . S
H130 C121 0.929 . S
H131 C124 0.930 . S
C132 C133 1.351 . S
C132 N135 1.368 . S
C132 H137 0.931 . S
C133 C132 1.351 . S
C133 N134 1.373 . S
C133 H161 0.930 . S
N134 C133 1.373 . S
N134 C136 1.340 . S
N135 C132 1.368 . S
N135 C136 1.321 . S
N135 Co138 2.135 . S
C136 N134 1.340 . S
C136 N135 1.321 . S
C136 H160 0.930 . S
H137 C132 0.931 . S
Co138 N135 2.135 . S
Co138 N141 2.121 . S
Co138 O146 2.055 . S
Co138 O149 2.039 . S
Co138 N152 2.140 . S
C139 O140 1.227 . S
C139 O149 1.265 . S
O140 C139 1.227 . S
N141 Co138 2.121 . S
N141 C143 1.375 . S
N141 C144 1.313 . S
C142 C143 1.338 . S
C142 N145 1.377 . S
C142 H162 0.930 . S
C143 N141 1.375 . S
C143 C142 1.338 . S
C143 H147 0.931 . S
C144 N141 1.313 . S
C144 N145 1.344 . S
C144 H148 0.930 . S
N145 C142 1.377 . S
N145 C144 1.344 . S
O146 Co138 2.055 . S
O146 C150 1.253 . S
H147 C143 0.931 . S
H148 C144 0.930 . S
O149 Co138 2.039 . S
O149 C139 1.265 . S
C150 O146 1.253 . S
C150 O151 1.227 . S
O151 C150 1.227 . S
N152 Co138 2.140 . S
N152 C155 1.346 . S
N152 C156 1.345 . S
C153 C154 1.387 . S
C153 C157 1.391 . S
C154 C153 1.387 . S
C154 C155 1.369 . S
C154 H163 0.929 . S
C155 N152 1.346 . S
C155 C154 1.369 . S
C155 H158 0.928 . S
C156 N152 1.345 . S
C156 C157 1.371 . S
C156 H159 0.931 . S
C157 C153 1.391 . S
C157 C156 1.371 . S
C157 H164 0.930 . S
H158 C155 0.928 . S
H159 C156 0.931 . S
H160 C136 0.930 . S
H161 C133 0.930 . S
H162 C142 0.930 . S
H163 C154 0.929 . S
H164 C157 0.930 . S
C165 C166 1.351 . S
C165 N168 1.368 . S
C165 H170 0.931 . S
C166 C165 1.351 . S
C166 N167 1.373 . S
C166 H194 0.930 . S
N167 C166 1.373 . S
N167 C169 1.340 . S
N168 C165 1.368 . S
N168 C169 1.321 . S
N168 Co171 2.135 . S
C169 N167 1.340 . S
C169 N168 1.321 . S
C169 H193 0.930 . S
H170 C165 0.931 . S
Co171 N168 2.135 . S
Co171 N174 2.121 . S
Co171 O179 2.055 . S
Co171 O182 2.039 . S
Co171 N185 2.140 . S
C172 O173 1.227 . S
C172 O182 1.265 . S
O173 C172 1.227 . S
N174 Co171 2.121 . S
N174 C176 1.375 . S
N174 C177 1.313 . S
C175 C176 1.338 . S
C175 N178 1.377 . S
C175 H195 0.930 . S
C176 N174 1.375 . S
C176 C175 1.338 . S
C176 H180 0.931 . S
C177 N174 1.313 . S
C177 N178 1.344 . S
C177 H181 0.930 . S
N178 C175 1.377 . S
N178 C177 1.344 . S
O179 Co171 2.055 . S
O179 C183 1.253 . S
H180 C176 0.931 . S
H181 C177 0.930 . S
O182 Co171 2.039 . S
O182 C172 1.265 . S
C183 O179 1.253 . S
C183 O184 1.227 . S
O184 C183 1.227 . S
N185 Co171 2.140 . S
N185 C188 1.346 . S
N185 C189 1.345 . S
C186 C187 1.387 . S
C186 C190 1.391 . S
C187 C186 1.387 . S
C187 C188 1.369 . S
C187 H196 0.929 . S
C188 N185 1.346 . S
C188 C187 1.369 . S
C188 H191 0.928 . S
C189 N185 1.345 . S
C189 C190 1.371 . S
C189 H192 0.931 . S
C190 C186 1.391 . S
C190 C189 1.371 . S
C190 H197 0.930 . S
H191 C188 0.928 . S
H192 C189 0.931 . S
H193 C169 0.930 . S
H194 C166 0.930 . S
H195 C175 0.930 . S
H196 C187 0.929 . S
H197 C190 0.930 . S
C198 C199 1.351 . S
C198 N201 1.368 . S
C198 H203 0.931 . S
C199 C198 1.351 . S
C199 N200 1.373 . S
C199 H227 0.930 . S
N200 C199 1.373 . S
N200 C202 1.340 . S
N201 C198 1.368 . S
N201 C202 1.321 . S
N201 Co204 2.135 . S
C202 N200 1.340 . S
C202 N201 1.321 . S
C202 H226 0.930 . S
H203 C198 0.931 . S
Co204 N201 2.135 . S
Co204 N207 2.121 . S
Co204 O212 2.055 . S
Co204 O215 2.039 . S
Co204 N218 2.140 . S
C205 O206 1.227 . S
C205 O215 1.265 . S
O206 C205 1.227 . S
N207 Co204 2.121 . S
N207 C209 1.375 . S
N207 C210 1.313 . S
C208 C209 1.338 . S
C208 N211 1.377 . S
C208 H228 0.930 . S
C209 N207 1.375 . S
C209 C208 1.338 . S
C209 H213 0.931 . S
C210 N207 1.313 . S
C210 N211 1.344 . S
C210 H214 0.930 . S
N211 C208 1.377 . S
N211 C210 1.344 . S
O212 Co204 2.055 . S
O212 C216 1.253 . S
H213 C209 0.931 . S
H214 C210 0.930 . S
O215 Co204 2.039 . S
O215 C205 1.265 . S
C216 O212 1.253 . S
C216 O217 1.227 . S
O217 C216 1.227 . S
N218 Co204 2.140 . S
N218 C221 1.346 . S
N218 C222 1.345 . S
C219 C220 1.387 . S
C219 C223 1.391 . S
C220 C219 1.387 . S
C220 C221 1.369 . S
C220 H229 0.929 . S
C221 N218 1.346 . S
C221 C220 1.369 . S
C221 H224 0.928 . S
C222 N218 1.345 . S
C222 C223 1.371 . S
C222 H225 0.931 . S
C223 C219 1.391 . S
C223 C222 1.371 . S
C223 H230 0.930 . S
H224 C221 0.928 . S
H225 C222 0.931 . S
H226 C202 0.930 . S
H227 C199 0.930 . S
H228 C208 0.930 . S
H229 C220 0.929 . S
H230 C223 0.930 . S
C231 C232 1.351 . S
C231 N234 1.368 . S
C231 H236 0.931 . S
C232 C231 1.351 . S
C232 N233 1.373 . S
C232 H260 0.930 . S
N233 C232 1.373 . S
N233 C235 1.340 . S
N234 C231 1.368 . S
N234 C235 1.321 . S
N234 Co237 2.135 . S
C235 N233 1.340 . S
C235 N234 1.321 . S
C235 H259 0.930 . S
H236 C231 0.931 . S
Co237 N234 2.135 . S
Co237 N240 2.121 . S
Co237 O245 2.055 . S
Co237 O248 2.039 . S
Co237 N251 2.140 . S
C238 O239 1.227 . S
C238 O248 1.265 . S
O239 C238 1.227 . S
N240 Co237 2.121 . S
N240 C242 1.375 . S
N240 C243 1.313 . S
C241 C242 1.338 . S
C241 N244 1.377 . S
C241 H261 0.930 . S
C242 N240 1.375 . S
C242 C241 1.338 . S
C242 H246 0.931 . S
C243 N240 1.313 . S
C243 N244 1.344 . S
C243 H247 0.930 . S
N244 C241 1.377 . S
N244 C243 1.344 . S
O245 Co237 2.055 . S
O245 C249 1.253 . S
H246 C242 0.931 . S
H247 C243 0.930 . S
O248 Co237 2.039 . S
O248 C238 1.265 . S
C249 O245 1.253 . S
C249 O250 1.227 . S
O250 C249 1.227 . S
N251 Co237 2.140 . S
N251 C254 1.346 . S
N251 C255 1.345 . S
C252 C253 1.387 . S
C252 C256 1.391 . S
C253 C252 1.387 . S
C253 C254 1.369 . S
C253 H262 0.929 . S
C254 N251 1.346 . S
C254 C253 1.369 . S
C254 H257 0.928 . S
C255 N251 1.345 . S
C255 C256 1.371 . S
C255 H258 0.931 . S
C256 C252 1.391 . S
C256 C255 1.371 . S
C256 H263 0.930 . S
H257 C254 0.928 . S
H258 C255 0.931 . S
H259 C235 0.930 . S
H260 C232 0.930 . S
H261 C241 0.930 . S
H262 C253 0.929 . S
H263 C256 0.930 . S
C264 C265 1.351 . S
C264 N267 1.368 . S
C264 H269 0.931 . S
C265 C264 1.351 . S
C265 N266 1.373 . S
C265 H293 0.930 . S
N266 C265 1.373 . S
N266 C268 1.340 . S
N267 C264 1.368 . S
N267 C268 1.321 . S
N267 Co270 2.135 . S
C268 N266 1.340 . S
C268 N267 1.321 . S
C268 H292 0.930 . S
H269 C264 0.931 . S
Co270 N267 2.135 . S
Co270 N273 2.121 . S
Co270 O278 2.055 . S
Co270 O281 2.039 . S
Co270 N284 2.140 . S
C271 O272 1.227 . S
C271 O281 1.265 . S
O272 C271 1.227 . S
N273 Co270 2.121 . S
N273 C275 1.375 . S
N273 C276 1.313 . S
C274 C275 1.338 . S
C274 N277 1.377 . S
C274 H294 0.930 . S
C275 N273 1.375 . S
C275 C274 1.338 . S
C275 H279 0.931 . S
C276 N273 1.313 . S
C276 N277 1.344 . S
C276 H280 0.930 . S
N277 C274 1.377 . S
N277 C276 1.344 . S
O278 Co270 2.055 . S
O278 C282 1.253 . S
H279 C275 0.931 . S
H280 C276 0.930 . S
O281 Co270 2.039 . S
O281 C271 1.265 . S
C282 O278 1.253 . S
C282 O283 1.227 . S
O283 C282 1.227 . S
N284 Co270 2.140 . S
N284 C287 1.346 . S
N284 C288 1.345 . S
C285 C286 1.387 . S
C285 C289 1.391 . S
C286 C285 1.387 . S
C286 C287 1.369 . S
C286 H295 0.929 . S
C287 N284 1.346 . S
C287 C286 1.369 . S
C287 H290 0.928 . S
C288 N284 1.345 . S
C288 C289 1.371 . S
C288 H291 0.931 . S
C289 C285 1.391 . S
C289 C288 1.371 . S
C289 H296 0.930 . S
H290 C287 0.928 . S
H291 C288 0.931 . S
H292 C268 0.930 . S
H293 C265 0.930 . S
H294 C274 0.930 . S
H295 C286 0.929 . S
H296 C289 0.930 . S
C297 C298 1.351 . S
C297 N300 1.368 . S
C297 H302 0.931 . S
C298 C297 1.351 . S
C298 N299 1.373 . S
C298 H326 0.930 . S
N299 C298 1.373 . S
N299 C301 1.340 . S
N300 C297 1.368 . S
N300 C301 1.321 . S
N300 Co303 2.135 . S
C301 N299 1.340 . S
C301 N300 1.321 . S
C301 H325 0.930 . S
H302 C297 0.931 . S
Co303 N300 2.135 . S
Co303 N306 2.121 . S
Co303 O311 2.055 . S
Co303 O314 2.039 . S
Co303 N317 2.140 . S
C304 O305 1.227 . S
C304 O314 1.265 . S
O305 C304 1.227 . S
N306 Co303 2.121 . S
N306 C308 1.375 . S
N306 C309 1.313 . S
C307 C308 1.338 . S
C307 N310 1.377 . S
C307 H327 0.930 . S
C308 N306 1.375 . S
C308 C307 1.338 . S
C308 H312 0.931 . S
C309 N306 1.313 . S
C309 N310 1.344 . S
C309 H313 0.930 . S
N310 C307 1.377 . S
N310 C309 1.344 . S
O311 Co303 2.055 . S
O311 C315 1.253 . S
H312 C308 0.931 . S
H313 C309 0.930 . S
O314 Co303 2.039 . S
O314 C304 1.265 . S
C315 O311 1.253 . S
C315 O316 1.227 . S
O316 C315 1.227 . S
N317 Co303 2.140 . S
N317 C320 1.346 . S
N317 C321 1.345 . S
C318 C319 1.387 . S
C318 C322 1.391 . S
C319 C318 1.387 . S
C319 C320 1.369 . S
C319 H328 0.929 . S
C320 N317 1.346 . S
C320 C319 1.369 . S
C320 H323 0.928 . S
C321 N317 1.345 . S
C321 C322 1.371 . S
C321 H324 0.931 . S
C322 C318 1.391 . S
C322 C321 1.371 . S
C322 H329 0.930 . S
H323 C320 0.928 . S
H324 C321 0.931 . S
H325 C301 0.930 . S
H326 C298 0.930 . S
H327 C307 0.930 . S
H328 C319 0.929 . S
H329 C322 0.930 . S
C330 C331 1.351 . S
C330 N333 1.368 . S
C330 H335 0.931 . S
C331 C330 1.351 . S
C331 N332 1.373 . S
C331 H359 0.930 . S
N332 C331 1.373 . S
N332 C334 1.340 . S
N333 C330 1.368 . S
N333 C334 1.321 . S
N333 Co336 2.135 . S
C334 N332 1.340 . S
C334 N333 1.321 . S
C334 H358 0.930 . S
H335 C330 0.931 . S
Co336 N333 2.135 . S
Co336 N339 2.121 . S
Co336 O344 2.055 . S
Co336 O347 2.039 . S
Co336 N350 2.140 . S
C337 O338 1.227 . S
C337 O347 1.265 . S
O338 C337 1.227 . S
N339 Co336 2.121 . S
N339 C341 1.375 . S
N339 C342 1.313 . S
C340 C341 1.338 . S
C340 N343 1.377 . S
C340 H360 0.930 . S
C341 N339 1.375 . S
C341 C340 1.338 . S
C341 H345 0.931 . S
C342 N339 1.313 . S
C342 N343 1.344 . S
C342 H346 0.930 . S
N343 C340 1.377 . S
N343 C342 1.344 . S
O344 Co336 2.055 . S
O344 C348 1.253 . S
H345 C341 0.931 . S
H346 C342 0.930 . S
O347 Co336 2.039 . S
O347 C337 1.265 . S
C348 O344 1.253 . S
C348 O349 1.227 . S
O349 C348 1.227 . S
N350 Co336 2.140 . S
N350 C353 1.346 . S
N350 C354 1.345 . S
C351 C352 1.387 . S
C351 C355 1.391 . S
C352 C351 1.387 . S
C352 C353 1.369 . S
C352 H361 0.929 . S
C353 N350 1.346 . S
C353 C352 1.369 . S
C353 H356 0.928 . S
C354 N350 1.345 . S
C354 C355 1.371 . S
C354 H357 0.931 . S
C355 C351 1.391 . S
C355 C354 1.371 . S
C355 H362 0.930 . S
H356 C353 0.928 . S
H357 C354 0.931 . S
H358 C334 0.930 . S
H359 C331 0.930 . S
H360 C340 0.930 . S
H361 C352 0.929 . S
H362 C355 0.930 . S
C363 C364 1.351 . S
C363 N366 1.368 . S
C363 H368 0.931 . S
C364 C363 1.351 . S
C364 N365 1.373 . S
C364 H392 0.930 . S
N365 C364 1.373 . S
N365 C367 1.340 . S
N366 C363 1.368 . S
N366 C367 1.321 . S
N366 Co369 2.135 . S
C367 N365 1.340 . S
C367 N366 1.321 . S
C367 H391 0.930 . S
H368 C363 0.931 . S
Co369 N366 2.135 . S
Co369 N372 2.121 . S
Co369 O377 2.055 . S
Co369 O380 2.039 . S
Co369 N383 2.140 . S
C370 O371 1.227 . S
C370 O380 1.265 . S
O371 C370 1.227 . S
N372 Co369 2.121 . S
N372 C374 1.375 . S
N372 C375 1.313 . S
C373 C374 1.338 . S
C373 N376 1.377 . S
C373 H393 0.930 . S
C374 N372 1.375 . S
C374 C373 1.338 . S
C374 H378 0.931 . S
C375 N372 1.313 . S
C375 N376 1.344 . S
C375 H379 0.930 . S
N376 C373 1.377 . S
N376 C375 1.344 . S
O377 Co369 2.055 . S
O377 C381 1.253 . S
H378 C374 0.931 . S
H379 C375 0.930 . S
O380 Co369 2.039 . S
O380 C370 1.265 . S
C381 O377 1.253 . S
C381 O382 1.227 . S
O382 C381 1.227 . S
N383 Co369 2.140 . S
N383 C386 1.346 . S
N383 C387 1.345 . S
C384 C385 1.387 . S
C384 C388 1.391 . S
C385 C384 1.387 . S
C385 C386 1.369 . S
C385 H394 0.929 . S
C386 N383 1.346 . S
C386 C385 1.369 . S
C386 H389 0.928 . S
C387 N383 1.345 . S
C387 C388 1.371 . S
C387 H390 0.931 . S
C388 C384 1.391 . S
C388 C387 1.371 . S
C388 H395 0.930 . S
H389 C386 0.928 . S
H390 C387 0.931 . S
H391 C367 0.930 . S
H392 C364 0.930 . S
H393 C373 0.930 . S
H394 C385 0.929 . S
H395 C388 0.930 . S
C396 C397 1.351 . S
C396 N399 1.368 . S
C396 H401 0.931 . S
C397 C396 1.351 . S
C397 N398 1.373 . S
C397 H425 0.930 . S
N398 C397 1.373 . S
N398 C400 1.340 . S
N399 C396 1.368 . S
N399 C400 1.321 . S
N399 Co402 2.135 . S
C400 N398 1.340 . S
C400 N399 1.321 . S
C400 H424 0.930 . S
H401 C396 0.931 . S
Co402 N399 2.135 . S
Co402 N405 2.121 . S
Co402 O410 2.055 . S
Co402 O413 2.039 . S
Co402 N416 2.140 . S
C403 O404 1.227 . S
C403 O413 1.265 . S
O404 C403 1.227 . S
N405 Co402 2.121 . S
N405 C407 1.375 . S
N405 C408 1.313 . S
C406 C407 1.338 . S
C406 N409 1.377 . S
C406 H426 0.930 . S
C407 N405 1.375 . S
C407 C406 1.338 . S
C407 H411 0.931 . S
C408 N405 1.313 . S
C408 N409 1.344 . S
C408 H412 0.930 . S
N409 C406 1.377 . S
N409 C408 1.344 . S
O410 Co402 2.055 . S
O410 C414 1.253 . S
H411 C407 0.931 . S
H412 C408 0.930 . S
O413 Co402 2.039 . S
O413 C403 1.265 . S
C414 O410 1.253 . S
C414 O415 1.227 . S
O415 C414 1.227 . S
N416 Co402 2.140 . S
N416 C419 1.346 . S
N416 C420 1.345 . S
C417 C418 1.387 . S
C417 C421 1.391 . S
C418 C417 1.387 . S
C418 C419 1.369 . S
C418 H427 0.929 . S
C419 N416 1.346 . S
C419 C418 1.369 . S
C419 H422 0.928 . S
C420 N416 1.345 . S
C420 C421 1.371 . S
C420 H423 0.931 . S
C421 C417 1.391 . S
C421 C420 1.371 . S
C421 H428 0.930 . S
H422 C419 0.928 . S
H423 C420 0.931 . S
H424 C400 0.930 . S
H425 C397 0.930 . S
H426 C406 0.930 . S
H427 C418 0.929 . S
H428 C421 0.930 . S
C429 C430 1.351 . S
C429 N432 1.368 . S
C429 H434 0.931 . S
C430 C429 1.351 . S
C430 N431 1.373 . S
C430 H458 0.930 . S
N431 C430 1.373 . S
N431 C433 1.340 . S
N432 C429 1.368 . S
N432 C433 1.321 . S
N432 Co435 2.135 . S
C433 N431 1.340 . S
C433 N432 1.321 . S
C433 H457 0.930 . S
H434 C429 0.931 . S
Co435 N432 2.135 . S
Co435 N438 2.121 . S
Co435 O443 2.055 . S
Co435 O446 2.039 . S
Co435 N449 2.140 . S
C436 O437 1.227 . S
C436 O446 1.265 . S
O437 C436 1.227 . S
N438 Co435 2.121 . S
N438 C440 1.375 . S
N438 C441 1.313 . S
C439 C440 1.338 . S
C439 N442 1.377 . S
C439 H459 0.930 . S
C440 N438 1.375 . S
C440 C439 1.338 . S
C440 H444 0.931 . S
C441 N438 1.313 . S
C441 N442 1.344 . S
C441 H445 0.930 . S
N442 C439 1.377 . S
N442 C441 1.344 . S
O443 Co435 2.055 . S
O443 C447 1.253 . S
H444 C440 0.931 . S
H445 C441 0.930 . S
O446 Co435 2.039 . S
O446 C436 1.265 . S
C447 O443 1.253 . S
C447 O448 1.227 . S
O448 C447 1.227 . S
N449 Co435 2.140 . S
N449 C452 1.346 . S
N449 C453 1.345 . S
C450 C451 1.387 . S
C450 C454 1.391 . S
C451 C450 1.387 . S
C451 C452 1.369 . S
C451 H460 0.929 . S
C452 N449 1.346 . S
C452 C451 1.369 . S
C452 H455 0.928 . S
C453 N449 1.345 . S
C453 C454 1.371 . S
C453 H456 0.931 . S
C454 C450 1.391 . S
C454 C453 1.371 . S
C454 H461 0.930 . S
H455 C452 0.928 . S
H456 C453 0.931 . S
H457 C433 0.930 . S
H458 C430 0.930 . S
H459 C439 0.930 . S
H460 C451 0.929 . S
H461 C454 0.930 . S
C462 C463 1.351 . S
C462 N465 1.368 . S
C462 H467 0.931 . S
C463 C462 1.351 . S
C463 N464 1.373 . S
C463 H491 0.930 . S
N464 C463 1.373 . S
N464 C466 1.340 . S
N465 C462 1.368 . S
N465 C466 1.321 . S
N465 Co468 2.135 . S
C466 N464 1.340 . S
C466 N465 1.321 . S
C466 H490 0.930 . S
H467 C462 0.931 . S
Co468 N465 2.135 . S
Co468 N471 2.121 . S
Co468 O476 2.055 . S
Co468 O479 2.039 . S
Co468 N482 2.140 . S
C469 O470 1.227 . S
C469 O479 1.265 . S
O470 C469 1.227 . S
N471 Co468 2.121 . S
N471 C473 1.375 . S
N471 C474 1.313 . S
C472 C473 1.338 . S
C472 N475 1.377 . S
C472 H492 0.930 . S
C473 N471 1.375 . S
C473 C472 1.338 . S
C473 H477 0.931 . S
C474 N471 1.313 . S
C474 N475 1.344 . S
C474 H478 0.930 . S
N475 C472 1.377 . S
N475 C474 1.344 . S
O476 Co468 2.055 . S
O476 C480 1.253 . S
H477 C473 0.931 . S
H478 C474 0.930 . S
O479 Co468 2.039 . S
O479 C469 1.265 . S
C480 O476 1.253 . S
C480 O481 1.227 . S
O481 C480 1.227 . S
N482 Co468 2.140 . S
N482 C485 1.346 . S
N482 C486 1.345 . S
C483 C484 1.387 . S
C483 C487 1.391 . S
C484 C483 1.387 . S
C484 C485 1.369 . S
C484 H493 0.929 . S
C485 N482 1.346 . S
C485 C484 1.369 . S
C485 H488 0.928 . S
C486 N482 1.345 . S
C486 C487 1.371 . S
C486 H489 0.931 . S
C487 C483 1.391 . S
C487 C486 1.371 . S
C487 H494 0.930 . S
H488 C485 0.928 . S
H489 C486 0.931 . S
H490 C466 0.930 . S
H491 C463 0.930 . S
H492 C472 0.930 . S
H493 C484 0.929 . S
H494 C487 0.930 . S
C495 C496 1.351 . S
C495 N498 1.368 . S
C495 H500 0.931 . S
C496 C495 1.351 . S
C496 N497 1.373 . S
C496 H524 0.930 . S
N497 C496 1.373 . S
N497 C499 1.340 . S
N498 C495 1.368 . S
N498 C499 1.321 . S
N498 Co501 2.135 . S
C499 N497 1.340 . S
C499 N498 1.321 . S
C499 H523 0.930 . S
H500 C495 0.931 . S
Co501 N498 2.135 . S
Co501 N504 2.121 . S
Co501 O509 2.055 . S
Co501 O512 2.039 . S
Co501 N515 2.140 . S
C502 O503 1.227 . S
C502 O512 1.265 . S
O503 C502 1.227 . S
N504 Co501 2.121 . S
N504 C506 1.375 . S
N504 C507 1.313 . S
C505 C506 1.338 . S
C505 N508 1.377 . S
C505 H525 0.930 . S
C506 N504 1.375 . S
C506 C505 1.338 . S
C506 H510 0.931 . S
C507 N504 1.313 . S
C507 N508 1.344 . S
C507 H511 0.930 . S
N508 C505 1.377 . S
N508 C507 1.344 . S
O509 Co501 2.055 . S
O509 C513 1.253 . S
H510 C506 0.931 . S
H511 C507 0.930 . S
O512 Co501 2.039 . S
O512 C502 1.265 . S
C513 O509 1.253 . S
C513 O514 1.227 . S
O514 C513 1.227 . S
N515 Co501 2.140 . S
N515 C518 1.346 . S
N515 C519 1.345 . S
C516 C517 1.387 . S
C516 C520 1.391 . S
C517 C516 1.387 . S
C517 C518 1.369 . S
C517 H526 0.929 . S
C518 N515 1.346 . S
C518 C517 1.369 . S
C518 H521 0.928 . S
C519 N515 1.345 . S
C519 C520 1.371 . S
C519 H522 0.931 . S
C520 C516 1.391 . S
C520 C519 1.371 . S
C520 H527 0.930 . S
H521 C518 0.928 . S
H522 C519 0.931 . S
H523 C499 0.930 . S
H524 C496 0.930 . S
H525 C505 0.930 . S
H526 C517 0.929 . S
H527 C520 0.930 . S
C528 C529 1.351 . S
C528 N531 1.368 . S
C528 H533 0.931 . S
C529 C528 1.351 . S
C529 N530 1.373 . S
C529 H557 0.930 . S
N530 C529 1.373 . S
N530 C532 1.340 . S
N531 C528 1.368 . S
N531 C532 1.321 . S
N531 Co534 2.135 . S
C532 N530 1.340 . S
C532 N531 1.321 . S
C532 H556 0.930 . S
H533 C528 0.931 . S
Co534 N531 2.135 . S
Co534 N537 2.121 . S
Co534 O542 2.055 . S
Co534 O545 2.039 . S
Co534 N548 2.140 . S
C535 O536 1.227 . S
C535 O545 1.265 . S
O536 C535 1.227 . S
N537 Co534 2.121 . S
N537 C539 1.375 . S
N537 C540 1.313 . S
C538 C539 1.338 . S
C538 N541 1.377 . S
C538 H558 0.930 . S
C539 N537 1.375 . S
C539 C538 1.338 . S
C539 H543 0.931 . S
C540 N537 1.313 . S
C540 N541 1.344 . S
C540 H544 0.930 . S
N541 C538 1.377 . S
N541 C540 1.344 . S
O542 Co534 2.055 . S
O542 C546 1.253 . S
H543 C539 0.931 . S
H544 C540 0.930 . S
O545 Co534 2.039 . S
O545 C535 1.265 . S
C546 O542 1.253 . S
C546 O547 1.227 . S
O547 C546 1.227 . S
N548 Co534 2.140 . S
N548 C551 1.346 . S
N548 C552 1.345 . S
C549 C550 1.387 . S
C549 C553 1.391 . S
C550 C549 1.387 . S
C550 C551 1.369 . S
C550 H559 0.929 . S
C551 N548 1.346 . S
C551 C550 1.369 . S
C551 H554 0.928 . S
C552 N548 1.345 . S
C552 C553 1.371 . S
C552 H555 0.931 . S
C553 C549 1.391 . S
C553 C552 1.371 . S
C553 H560 0.930 . S
H554 C551 0.928 . S
H555 C552 0.931 . S
H556 C532 0.930 . S
H557 C529 0.930 . S
H558 C538 0.930 . S
H559 C550 0.929 . S
H560 C553 0.930 . S
C561 C562 1.351 . S
C561 N564 1.368 . S
C561 H566 0.931 . S
C562 C561 1.351 . S
C562 N563 1.373 . S
C562 H590 0.930 . S
N563 C562 1.373 . S
N563 C565 1.340 . S
N564 C561 1.368 . S
N564 C565 1.321 . S
N564 Co567 2.135 . S
C565 N563 1.340 . S
C565 N564 1.321 . S
C565 H589 0.930 . S
H566 C561 0.931 . S
Co567 N564 2.135 . S
Co567 N570 2.121 . S
Co567 O575 2.055 . S
Co567 O578 2.039 . S
Co567 N581 2.140 . S
C568 O569 1.227 . S
C568 O578 1.265 . S
O569 C568 1.227 . S
N570 Co567 2.121 . S
N570 C572 1.375 . S
N570 C573 1.313 . S
C571 C572 1.338 . S
C571 N574 1.377 . S
C571 H591 0.930 . S
C572 N570 1.375 . S
C572 C571 1.338 . S
C572 H576 0.931 . S
C573 N570 1.313 . S
C573 N574 1.344 . S
C573 H577 0.930 . S
N574 C571 1.377 . S
N574 C573 1.344 . S
O575 Co567 2.055 . S
O575 C579 1.253 . S
H576 C572 0.931 . S
H577 C573 0.930 . S
O578 Co567 2.039 . S
O578 C568 1.265 . S
C579 O575 1.253 . S
C579 O580 1.227 . S
O580 C579 1.227 . S
N581 Co567 2.140 . S
N581 C584 1.346 . S
N581 C585 1.345 . S
C582 C583 1.387 . S
C582 C586 1.391 . S
C583 C582 1.387 . S
C583 C584 1.369 . S
C583 H592 0.929 . S
C584 N581 1.346 . S
C584 C583 1.369 . S
C584 H587 0.928 . S
C585 N581 1.345 . S
C585 C586 1.371 . S
C585 H588 0.931 . S
C586 C582 1.391 . S
C586 C585 1.371 . S
C586 H593 0.930 . S
H587 C584 0.928 . S
H588 C585 0.931 . S
H589 C565 0.930 . S
H590 C562 0.930 . S
H591 C571 0.930 . S
H592 C583 0.929 . S
H593 C586 0.930 . S
C594 C595 1.351 . S
C594 N597 1.368 . S
C594 H599 0.931 . S
C595 C594 1.351 . S
C595 N596 1.373 . S
C595 H623 0.930 . S
N596 C595 1.373 . S
N596 C598 1.340 . S
N597 C594 1.368 . S
N597 C598 1.321 . S
N597 Co600 2.135 . S
C598 N596 1.340 . S
C598 N597 1.321 . S
C598 H622 0.930 . S
H599 C594 0.931 . S
Co600 N597 2.135 . S
Co600 N603 2.121 . S
Co600 O608 2.055 . S
Co600 O611 2.039 . S
Co600 N614 2.140 . S
C601 O602 1.227 . S
C601 O611 1.265 . S
O602 C601 1.227 . S
N603 Co600 2.121 . S
N603 C605 1.375 . S
N603 C606 1.313 . S
C604 C605 1.338 . S
C604 N607 1.377 . S
C604 H624 0.930 . S
C605 N603 1.375 . S
C605 C604 1.338 . S
C605 H609 0.931 . S
C606 N603 1.313 . S
C606 N607 1.344 . S
C606 H610 0.930 . S
N607 C604 1.377 . S
N607 C606 1.344 . S
O608 Co600 2.055 . S
O608 C612 1.253 . S
H609 C605 0.931 . S
H610 C606 0.930 . S
O611 Co600 2.039 . S
O611 C601 1.265 . S
C612 O608 1.253 . S
C612 O613 1.227 . S
O613 C612 1.227 . S
N614 Co600 2.140 . S
N614 C617 1.346 . S
N614 C618 1.345 . S
C615 C616 1.387 . S
C615 C619 1.391 . S
C616 C615 1.387 . S
C616 C617 1.369 . S
C616 H625 0.929 . S
C617 N614 1.346 . S
C617 C616 1.369 . S
C617 H620 0.928 . S
C618 N614 1.345 . S
C618 C619 1.371 . S
C618 H621 0.931 . S
C619 C615 1.391 . S
C619 C618 1.371 . S
C619 H626 0.930 . S
H620 C617 0.928 . S
H621 C618 0.931 . S
H622 C598 0.930 . S
H623 C595 0.930 . S
H624 C604 0.930 . S
H625 C616 0.929 . S
H626 C619 0.930 . S
C627 C628 1.351 . S
C627 N630 1.368 . S
C627 H632 0.931 . S
C628 C627 1.351 . S
C628 N629 1.373 . S
C628 H656 0.930 . S
N629 C628 1.373 . S
N629 C631 1.340 . S
N630 C627 1.368 . S
N630 C631 1.321 . S
N630 Co633 2.135 . S
C631 N629 1.340 . S
C631 N630 1.321 . S
C631 H655 0.930 . S
H632 C627 0.931 . S
Co633 N630 2.135 . S
Co633 N636 2.121 . S
Co633 O641 2.055 . S
Co633 O644 2.039 . S
Co633 N647 2.140 . S
C634 O635 1.227 . S
C634 O644 1.265 . S
O635 C634 1.227 . S
N636 Co633 2.121 . S
N636 C638 1.375 . S
N636 C639 1.313 . S
C637 C638 1.338 . S
C637 N640 1.377 . S
C637 H657 0.930 . S
C638 N636 1.375 . S
C638 C637 1.338 . S
C638 H642 0.931 . S
C639 N636 1.313 . S
C639 N640 1.344 . S
C639 H643 0.930 . S
N640 C637 1.377 . S
N640 C639 1.344 . S
O641 Co633 2.055 . S
O641 C645 1.253 . S
H642 C638 0.931 . S
H643 C639 0.930 . S
O644 Co633 2.039 . S
O644 C634 1.265 . S
C645 O641 1.253 . S
C645 O646 1.227 . S
O646 C645 1.227 . S
N647 Co633 2.140 . S
N647 C650 1.346 . S
N647 C651 1.345 . S
C648 C649 1.387 . S
C648 C652 1.391 . S
C649 C648 1.387 . S
C649 C650 1.369 . S
C649 H658 0.929 . S
C650 N647 1.346 . S
C650 C649 1.369 . S
C650 H653 0.928 . S
C651 N647 1.345 . S
C651 C652 1.371 . S
C651 H654 0.931 . S
C652 C648 1.391 . S
C652 C651 1.371 . S
C652 H659 0.930 . S
H653 C650 0.928 . S
H654 C651 0.931 . S
H655 C631 0.930 . S
H656 C628 0.930 . S
H657 C637 0.930 . S
H658 C649 0.929 . S
H659 C652 0.930 . S
C660 C661 1.351 . S
C660 N663 1.368 . S
C660 H665 0.931 . S
C661 C660 1.351 . S
C661 N662 1.373 . S
C661 H689 0.930 . S
N662 C661 1.373 . S
N662 C664 1.340 . S
N663 C660 1.368 . S
N663 C664 1.321 . S
N663 Co666 2.135 . S
C664 N662 1.340 . S
C664 N663 1.321 . S
C664 H688 0.930 . S
H665 C660 0.931 . S
Co666 N663 2.135 . S
Co666 N669 2.121 . S
Co666 O674 2.055 . S
Co666 O677 2.039 . S
Co666 N680 2.140 . S
C667 O668 1.227 . S
C667 O677 1.265 . S
O668 C667 1.227 . S
N669 Co666 2.121 . S
N669 C671 1.375 . S
N669 C672 1.313 . S
C670 C671 1.338 . S
C670 N673 1.377 . S
C670 H690 0.930 . S
C671 N669 1.375 . S
C671 C670 1.338 . S
C671 H675 0.931 . S
C672 N669 1.313 . S
C672 N673 1.344 . S
C672 H676 0.930 . S
N673 C670 1.377 . S
N673 C672 1.344 . S
O674 Co666 2.055 . S
O674 C678 1.253 . S
H675 C671 0.931 . S
H676 C672 0.930 . S
O677 Co666 2.039 . S
O677 C667 1.265 . S
C678 O674 1.253 . S
C678 O679 1.227 . S
O679 C678 1.227 . S
N680 Co666 2.140 . S
N680 C683 1.346 . S
N680 C684 1.345 . S
C681 C682 1.387 . S
C681 C685 1.391 . S
C682 C681 1.387 . S
C682 C683 1.369 . S
C682 H691 0.929 . S
C683 N680 1.346 . S
C683 C682 1.369 . S
C683 H686 0.928 . S
C684 N680 1.345 . S
C684 C685 1.371 . S
C684 H687 0.931 . S
C685 C681 1.391 . S
C685 C684 1.371 . S
C685 H692 0.930 . S
H686 C683 0.928 . S
H687 C684 0.931 . S
H688 C664 0.930 . S
H689 C661 0.930 . S
H690 C670 0.930 . S
H691 C682 0.929 . S
H692 C685 0.930 . S
C693 C694 1.351 . S
C693 N696 1.368 . S
C693 H698 0.931 . S
C694 C693 1.351 . S
C694 N695 1.373 . S
C694 H722 0.930 . S
N695 C694 1.373 . S
N695 C697 1.340 . S
N696 C693 1.368 . S
N696 C697 1.321 . S
N696 Co699 2.135 . S
C697 N695 1.340 . S
C697 N696 1.321 . S
C697 H721 0.930 . S
H698 C693 0.931 . S
Co699 N696 2.135 . S
Co699 N702 2.121 . S
Co699 O707 2.055 . S
Co699 O710 2.039 . S
Co699 N713 2.140 . S
C700 O701 1.227 . S
C700 O710 1.265 . S
O701 C700 1.227 . S
N702 Co699 2.121 . S
N702 C704 1.375 . S
N702 C705 1.313 . S
C703 C704 1.338 . S
C703 N706 1.377 . S
C703 H723 0.930 . S
C704 N702 1.375 . S
C704 C703 1.338 . S
C704 H708 0.931 . S
C705 N702 1.313 . S
C705 N706 1.344 . S
C705 H709 0.930 . S
N706 C703 1.377 . S
N706 C705 1.344 . S
O707 Co699 2.055 . S
O707 C711 1.253 . S
H708 C704 0.931 . S
H709 C705 0.930 . S
O710 Co699 2.039 . S
O710 C700 1.265 . S
C711 O707 1.253 . S
C711 O712 1.227 . S
O712 C711 1.227 . S
N713 Co699 2.140 . S
N713 C716 1.346 . S
N713 C717 1.345 . S
C714 C715 1.387 . S
C714 C718 1.391 . S
C715 C714 1.387 . S
C715 C716 1.369 . S
C715 H724 0.929 . S
C716 N713 1.346 . S
C716 C715 1.369 . S
C716 H719 0.928 . S
C717 N713 1.345 . S
C717 C718 1.371 . S
C717 H720 0.931 . S
C718 C714 1.391 . S
C718 C717 1.371 . S
C718 H725 0.930 . S
H719 C716 0.928 . S
H720 C717 0.931 . S
H721 C697 0.930 . S
H722 C694 0.930 . S
H723 C703 0.930 . S
H724 C715 0.929 . S
H725 C718 0.930 . S
C726 C727 1.351 . S
C726 N729 1.368 . S
C726 H731 0.931 . S
C727 C726 1.351 . S
C727 N728 1.373 . S
C727 H755 0.930 . S
N728 C727 1.373 . S
N728 C730 1.340 . S
N729 C726 1.368 . S
N729 C730 1.321 . S
N729 Co732 2.135 . S
C730 N728 1.340 . S
C730 N729 1.321 . S
C730 H754 0.930 . S
H731 C726 0.931 . S
Co732 N729 2.135 . S
Co732 N735 2.121 . S
Co732 O740 2.055 . S
Co732 O743 2.039 . S
Co732 N746 2.140 . S
C733 O734 1.227 . S
C733 O743 1.265 . S
O734 C733 1.227 . S
N735 Co732 2.121 . S
N735 C737 1.375 . S
N735 C738 1.313 . S
C736 C737 1.338 . S
C736 N739 1.377 . S
C736 H756 0.930 . S
C737 N735 1.375 . S
C737 C736 1.338 . S
C737 H741 0.931 . S
C738 N735 1.313 . S
C738 N739 1.344 . S
C738 H742 0.930 . S
N739 C736 1.377 . S
N739 C738 1.344 . S
O740 Co732 2.055 . S
O740 C744 1.253 . S
H741 C737 0.931 . S
H742 C738 0.930 . S
O743 Co732 2.039 . S
O743 C733 1.265 . S
C744 O740 1.253 . S
C744 O745 1.227 . S
O745 C744 1.227 . S
N746 Co732 2.140 . S
N746 C749 1.346 . S
N746 C750 1.345 . S
C747 C748 1.387 . S
C747 C751 1.391 . S
C748 C747 1.387 . S
C748 C749 1.369 . S
C748 H757 0.929 . S
C749 N746 1.346 . S
C749 C748 1.369 . S
C749 H752 0.928 . S
C750 N746 1.345 . S
C750 C751 1.371 . S
C750 H753 0.931 . S
C751 C747 1.391 . S
C751 C750 1.371 . S
C751 H758 0.930 . S
H752 C749 0.928 . S
H753 C750 0.931 . S
H754 C730 0.930 . S
H755 C727 0.930 . S
H756 C736 0.930 . S
H757 C748 0.929 . S
H758 C751 0.930 . S
C759 C760 1.351 . S
C759 N762 1.368 . S
C759 H764 0.931 . S
C760 C759 1.351 . S
C760 N761 1.373 . S
C760 H788 0.930 . S
N761 C760 1.373 . S
N761 C763 1.340 . S
N762 C759 1.368 . S
N762 C763 1.321 . S
N762 Co765 2.135 . S
C763 N761 1.340 . S
C763 N762 1.321 . S
C763 H787 0.930 . S
H764 C759 0.931 . S
Co765 N762 2.135 . S
Co765 N768 2.121 . S
Co765 O773 2.055 . S
Co765 O776 2.039 . S
Co765 N779 2.140 . S
C766 O767 1.227 . S
C766 O776 1.265 . S
O767 C766 1.227 . S
N768 Co765 2.121 . S
N768 C770 1.375 . S
N768 C771 1.313 . S
C769 C770 1.338 . S
C769 N772 1.377 . S
C769 H789 0.930 . S
C770 N768 1.375 . S
C770 C769 1.338 . S
C770 H774 0.931 . S
C771 N768 1.313 . S
C771 N772 1.344 . S
C771 H775 0.930 . S
N772 C769 1.377 . S
N772 C771 1.344 . S
O773 Co765 2.055 . S
O773 C777 1.253 . S
H774 C770 0.931 . S
H775 C771 0.930 . S
O776 Co765 2.039 . S
O776 C766 1.265 . S
C777 O773 1.253 . S
C777 O778 1.227 . S
O778 C777 1.227 . S
N779 Co765 2.140 . S
N779 C782 1.346 . S
N779 C783 1.345 . S
C780 C781 1.387 . S
C780 C784 1.391 . S
C781 C780 1.387 . S
C781 C782 1.369 . S
C781 H790 0.929 . S
C782 N779 1.346 . S
C782 C781 1.369 . S
C782 H785 0.928 . S
C783 N779 1.345 . S
C783 C784 1.371 . S
C783 H786 0.931 . S
C784 C780 1.391 . S
C784 C783 1.371 . S
C784 H791 0.930 . S
H785 C782 0.928 . S
H786 C783 0.931 . S
H787 C763 0.930 . S
H788 C760 0.930 . S
H789 C769 0.930 . S
H790 C781 0.929 . S
H791 C784 0.930 . S
C792 C793 1.351 . S
C792 N795 1.368 . S
C792 H797 0.931 . S
C793 C792 1.351 . S
C793 N794 1.373 . S
C793 H821 0.930 . S
N794 C793 1.373 . S
N794 C796 1.340 . S
N795 C792 1.368 . S
N795 C796 1.321 . S
N795 Co798 2.135 . S
C796 N794 1.340 . S
C796 N795 1.321 . S
C796 H820 0.930 . S
H797 C792 0.931 . S
Co798 N795 2.135 . S
Co798 N801 2.121 . S
Co798 O806 2.055 . S
Co798 O809 2.039 . S
Co798 N812 2.140 . S
C799 O800 1.227 . S
C799 O809 1.265 . S
O800 C799 1.227 . S
N801 Co798 2.121 . S
N801 C803 1.375 . S
N801 C804 1.313 . S
C802 C803 1.338 . S
C802 N805 1.377 . S
C802 H822 0.930 . S
C803 N801 1.375 . S
C803 C802 1.338 . S
C803 H807 0.931 . S
C804 N801 1.313 . S
C804 N805 1.344 . S
C804 H808 0.930 . S
N805 C802 1.377 . S
N805 C804 1.344 . S
O806 Co798 2.055 . S
O806 C810 1.253 . S
H807 C803 0.931 . S
H808 C804 0.930 . S
O809 Co798 2.039 . S
O809 C799 1.265 . S
C810 O806 1.253 . S
C810 O811 1.227 . S
O811 C810 1.227 . S
N812 Co798 2.140 . S
N812 C815 1.346 . S
N812 C816 1.345 . S
C813 C814 1.387 . S
C813 C817 1.391 . S
C814 C813 1.387 . S
C814 C815 1.369 . S
C814 H823 0.929 . S
C815 N812 1.346 . S
C815 C814 1.369 . S
C815 H818 0.928 . S
C816 N812 1.345 . S
C816 C817 1.371 . S
C816 H819 0.931 . S
C817 C813 1.391 . S
C817 C816 1.371 . S
C817 H824 0.930 . S
H818 C815 0.928 . S
H819 C816 0.931 . S
H820 C796 0.930 . S
H821 C793 0.930 . S
H822 C802 0.930 . S
H823 C814 0.929 . S
H824 C817 0.930 . S
C825 C826 1.351 . S
C825 N828 1.368 . S
C825 H830 0.931 . S
C826 C825 1.351 . S
C826 N827 1.373 . S
C826 H854 0.930 . S
N827 C826 1.373 . S
N827 C829 1.340 . S
N828 C825 1.368 . S
N828 C829 1.321 . S
N828 Co831 2.135 . S
C829 N827 1.340 . S
C829 N828 1.321 . S
C829 H853 0.930 . S
H830 C825 0.931 . S
Co831 N828 2.135 . S
Co831 N834 2.121 . S
Co831 O839 2.055 . S
Co831 O842 2.039 . S
Co831 N845 2.140 . S
C832 O833 1.227 . S
C832 O842 1.265 . S
O833 C832 1.227 . S
N834 Co831 2.121 . S
N834 C836 1.375 . S
N834 C837 1.313 . S
C835 C836 1.338 . S
C835 N838 1.377 . S
C835 H855 0.930 . S
C836 N834 1.375 . S
C836 C835 1.338 . S
C836 H840 0.931 . S
C837 N834 1.313 . S
C837 N838 1.344 . S
C837 H841 0.930 . S
N838 C835 1.377 . S
N838 C837 1.344 . S
O839 Co831 2.055 . S
O839 C843 1.253 . S
H840 C836 0.931 . S
H841 C837 0.930 . S
O842 Co831 2.039 . S
O842 C832 1.265 . S
C843 O839 1.253 . S
C843 O844 1.227 . S
O844 C843 1.227 . S
N845 Co831 2.140 . S
N845 C848 1.346 . S
N845 C849 1.345 . S
C846 C847 1.387 . S
C846 C850 1.391 . S
C847 C846 1.387 . S
C847 C848 1.369 . S
C847 H856 0.929 . S
C848 N845 1.346 . S
C848 C847 1.369 . S
C848 H851 0.928 . S
C849 N845 1.345 . S
C849 C850 1.371 . S
C849 H852 0.931 . S
C850 C846 1.391 . S
C850 C849 1.371 . S
C850 H857 0.930 . S
H851 C848 0.928 . S
H852 C849 0.931 . S
H853 C829 0.930 . S
H854 C826 0.930 . S
H855 C835 0.930 . S
H856 C847 0.929 . S
H857 C850 0.930 . S
C858 C859 1.351 . S
C858 N861 1.368 . S
C858 H863 0.931 . S
C859 C858 1.351 . S
C859 N860 1.373 . S
C859 H887 0.930 . S
N860 C859 1.373 . S
N860 C862 1.340 . S
N861 C858 1.368 . S
N861 C862 1.321 . S
N861 Co864 2.135 . S
C862 N860 1.340 . S
C862 N861 1.321 . S
C862 H886 0.930 . S
H863 C858 0.931 . S
Co864 N861 2.135 . S
Co864 N867 2.121 . S
Co864 O872 2.055 . S
Co864 O875 2.039 . S
Co864 N878 2.140 . S
C865 O866 1.227 . S
C865 O875 1.265 . S
O866 C865 1.227 . S
N867 Co864 2.121 . S
N867 C869 1.375 . S
N867 C870 1.313 . S
C868 C869 1.338 . S
C868 N871 1.377 . S
C868 H888 0.930 . S
C869 N867 1.375 . S
C869 C868 1.338 . S
C869 H873 0.931 . S
C870 N867 1.313 . S
C870 N871 1.344 . S
C870 H874 0.930 . S
N871 C868 1.377 . S
N871 C870 1.344 . S
O872 Co864 2.055 . S
O872 C876 1.253 . S
H873 C869 0.931 . S
H874 C870 0.930 . S
O875 Co864 2.039 . S
O875 C865 1.265 . S
C876 O872 1.253 . S
C876 O877 1.227 . S
O877 C876 1.227 . S
N878 Co864 2.140 . S
N878 C881 1.346 . S
N878 C882 1.345 . S
C879 C880 1.387 . S
C879 C883 1.391 . S
C880 C879 1.387 . S
C880 C881 1.369 . S
C880 H889 0.929 . S
C881 N878 1.346 . S
C881 C880 1.369 . S
C881 H884 0.928 . S
C882 N878 1.345 . S
C882 C883 1.371 . S
C882 H885 0.931 . S
C883 C879 1.391 . S
C883 C882 1.371 . S
C883 H890 0.930 . S
H884 C881 0.928 . S
H885 C882 0.931 . S
H886 C862 0.930 . S
H887 C859 0.930 . S
H888 C868 0.930 . S
H889 C880 0.929 . S
H890 C883 0.930 . S
C891 C892 1.351 . S
C891 N894 1.368 . S
C891 H896 0.931 . S
C892 C891 1.351 . S
C892 N893 1.373 . S
C892 H920 0.930 . S
N893 C892 1.373 . S
N893 C895 1.340 . S
N894 C891 1.368 . S
N894 C895 1.321 . S
N894 Co897 2.135 . S
C895 N893 1.340 . S
C895 N894 1.321 . S
C895 H919 0.930 . S
H896 C891 0.931 . S
Co897 N894 2.135 . S
Co897 N900 2.121 . S
Co897 O905 2.055 . S
Co897 O908 2.039 . S
Co897 N911 2.140 . S
C898 O899 1.227 . S
C898 O908 1.265 . S
O899 C898 1.227 . S
N900 Co897 2.121 . S
N900 C902 1.375 . S
N900 C903 1.313 . S
C901 C902 1.338 . S
C901 N904 1.377 . S
C901 H921 0.930 . S
C902 N900 1.375 . S
C902 C901 1.338 . S
C902 H906 0.931 . S
C903 N900 1.313 . S
C903 N904 1.344 . S
C903 H907 0.930 . S
N904 C901 1.377 . S
N904 C903 1.344 . S
O905 Co897 2.055 . S
O905 C909 1.253 . S
H906 C902 0.931 . S
H907 C903 0.930 . S
O908 Co897 2.039 . S
O908 C898 1.265 . S
C909 O905 1.253 . S
C909 O910 1.227 . S
O910 C909 1.227 . S
N911 Co897 2.140 . S
N911 C914 1.346 . S
N911 C915 1.345 . S
C912 C913 1.387 . S
C912 C916 1.391 . S
C913 C912 1.387 . S
C913 C914 1.369 . S
C913 H922 0.929 . S
C914 N911 1.346 . S
C914 C913 1.369 . S
C914 H917 0.928 . S
C915 N911 1.345 . S
C915 C916 1.371 . S
C915 H918 0.931 . S
C916 C912 1.391 . S
C916 C915 1.371 . S
C916 H923 0.930 . S
H917 C914 0.928 . S
H918 C915 0.931 . S
H919 C895 0.930 . S
H920 C892 0.930 . S
H921 C901 0.930 . S
H922 C913 0.929 . S
H923 C916 0.930 . S
C924 C925 1.351 . S
C924 N927 1.368 . S
C924 H929 0.931 . S
C925 C924 1.351 . S
C925 N926 1.373 . S
C925 H953 0.930 . S
N926 C925 1.373 . S
N926 C928 1.340 . S
N927 C924 1.368 . S
N927 C928 1.321 . S
N927 Co930 2.135 . S
C928 N926 1.340 . S
C928 N927 1.321 . S
C928 H952 0.930 . S
H929 C924 0.931 . S
Co930 N927 2.135 . S
Co930 N933 2.121 . S
Co930 O938 2.055 . S
Co930 O941 2.039 . S
Co930 N944 2.140 . S
C931 O932 1.227 . S
C931 O941 1.265 . S
O932 C931 1.227 . S
N933 Co930 2.121 . S
N933 C935 1.375 . S
N933 C936 1.313 . S
C934 C935 1.338 . S
C934 N937 1.377 . S
C934 H954 0.930 . S
C935 N933 1.375 . S
C935 C934 1.338 . S
C935 H939 0.931 . S
C936 N933 1.313 . S
C936 N937 1.344 . S
C936 H940 0.930 . S
N937 C934 1.377 . S
N937 C936 1.344 . S
O938 Co930 2.055 . S
O938 C942 1.253 . S
H939 C935 0.931 . S
H940 C936 0.930 . S
O941 Co930 2.039 . S
O941 C931 1.265 . S
C942 O938 1.253 . S
C942 O943 1.227 . S
O943 C942 1.227 . S
N944 Co930 2.140 . S
N944 C947 1.346 . S
N944 C948 1.345 . S
C945 C946 1.387 . S
C945 C949 1.391 . S
C946 C945 1.387 . S
C946 C947 1.369 . S
C946 H955 0.929 . S
C947 N944 1.346 . S
C947 C946 1.369 . S
C947 H950 0.928 . S
C948 N944 1.345 . S
C948 C949 1.371 . S
C948 H951 0.931 . S
C949 C945 1.391 . S
C949 C948 1.371 . S
C949 H956 0.930 . S
H950 C947 0.928 . S
H951 C948 0.931 . S
H952 C928 0.930 . S
H953 C925 0.930 . S
H954 C934 0.930 . S
H955 C946 0.929 . S
H956 C949 0.930 . S
C957 C958 1.351 . S
C957 N960 1.368 . S
C957 H962 0.931 . S
C958 C957 1.351 . S
C958 N959 1.373 . S
C958 H986 0.930 . S
N959 C958 1.373 . S
N959 C961 1.340 . S
N960 C957 1.368 . S
N960 C961 1.321 . S
N960 Co963 2.135 . S
C961 N959 1.340 . S
C961 N960 1.321 . S
C961 H985 0.930 . S
H962 C957 0.931 . S
Co963 N960 2.135 . S
Co963 N966 2.121 . S
Co963 O971 2.055 . S
Co963 O974 2.039 . S
Co963 N977 2.140 . S
C964 O965 1.227 . S
C964 O974 1.265 . S
O965 C964 1.227 . S
N966 Co963 2.121 . S
N966 C968 1.375 . S
N966 C969 1.313 . S
C967 C968 1.338 . S
C967 N970 1.377 . S
C967 H987 0.930 . S
C968 N966 1.375 . S
C968 C967 1.338 . S
C968 H972 0.931 . S
C969 N966 1.313 . S
C969 N970 1.344 . S
C969 H973 0.930 . S
N970 C967 1.377 . S
N970 C969 1.344 . S
O971 Co963 2.055 . S
O971 C975 1.253 . S
H972 C968 0.931 . S
H973 C969 0.930 . S
O974 Co963 2.039 . S
O974 C964 1.265 . S
C975 O971 1.253 . S
C975 O976 1.227 . S
O976 C975 1.227 . S
N977 Co963 2.140 . S
N977 C980 1.346 . S
N977 C981 1.345 . S
C978 C979 1.387 . S
C978 C982 1.391 . S
C979 C978 1.387 . S
C979 C980 1.369 . S
C979 H988 0.929 . S
C980 N977 1.346 . S
C980 C979 1.369 . S
C980 H983 0.928 . S
C981 N977 1.345 . S
C981 C982 1.371 . S
C981 H984 0.931 . S
C982 C978 1.391 . S
C982 C981 1.371 . S
C982 H989 0.930 . S
H983 C980 0.928 . S
H984 C981 0.931 . S
H985 C961 0.930 . S
H986 C958 0.930 . S
H987 C967 0.930 . S
H988 C979 0.929 . S
H989 C982 0.930 . S
C990 C991 1.351 . S
C990 N993 1.368 . S
C990 H995 0.931 . S
C991 C990 1.351 . S
C991 N992 1.373 . S
C991 H1019 0.930 . S
N992 C991 1.373 . S
N992 C994 1.340 . S
N993 C990 1.368 . S
N993 C994 1.321 . S
N993 Co996 2.135 . S
C994 N992 1.340 . S
C994 N993 1.321 . S
C994 H1018 0.930 . S
H995 C990 0.931 . S
Co996 N993 2.135 . S
Co996 N999 2.121 . S
Co996 O1004 2.055 . S
Co996 O1007 2.039 . S
Co996 N1010 2.140 . S
C997 O998 1.227 . S
C997 O1007 1.265 . S
O998 C997 1.227 . S
N999 Co996 2.121 . S
N999 C1001 1.375 . S
N999 C1002 1.313 . S
C1000 C1001 1.338 . S
C1000 N1003 1.377 . S
C1000 H1020 0.930 . S
C1001 N999 1.375 . S
C1001 C1000 1.338 . S
C1001 H1005 0.931 . S
C1002 N999 1.313 . S
C1002 N1003 1.344 . S
C1002 H1006 0.930 . S
N1003 C1000 1.377 . S
N1003 C1002 1.344 . S
O1004 Co996 2.055 . S
O1004 C1008 1.253 . S
H1005 C1001 0.931 . S
H1006 C1002 0.930 . S
O1007 Co996 2.039 . S
O1007 C997 1.265 . S
C1008 O1004 1.253 . S
C1008 O1009 1.227 . S
O1009 C1008 1.227 . S
N1010 Co996 2.140 . S
N1010 C1013 1.346 . S
N1010 C1014 1.345 . S
C1011 C1012 1.387 . S
C1011 C1015 1.391 . S
C1012 C1011 1.387 . S
C1012 C1013 1.369 . S
C1012 H1021 0.929 . S
C1013 N1010 1.346 . S
C1013 C1012 1.369 . S
C1013 H1016 0.928 . S
C1014 N1010 1.345 . S
C1014 C1015 1.371 . S
C1014 H1017 0.931 . S
C1015 C1011 1.391 . S
C1015 C1014 1.371 . S
C1015 H1022 0.930 . S
H1016 C1013 0.928 . S
H1017 C1014 0.931 . S
H1018 C994 0.930 . S
H1019 C991 0.930 . S
H1020 C1000 0.930 . S
H1021 C1012 0.929 . S
H1022 C1015 0.930 . S
C1023 C1024 1.351 . S
C1023 N1026 1.368 . S
C1023 H1028 0.931 . S
C1024 C1023 1.351 . S
C1024 N1025 1.373 . S
C1024 H1052 0.930 . S
N1025 C1024 1.373 . S
N1025 C1027 1.340 . S
N1026 C1023 1.368 . S
N1026 C1027 1.321 . S
N1026 Co1029 2.135 . S
C1027 N1025 1.340 . S
C1027 N1026 1.321 . S
C1027 H1051 0.930 . S
H1028 C1023 0.931 . S
Co1029 N1026 2.135 . S
Co1029 N1032 2.121 . S
Co1029 O1037 2.055 . S
Co1029 O1040 2.039 . S
Co1029 N1043 2.140 . S
C1030 O1031 1.227 . S
C1030 O1040 1.265 . S
O1031 C1030 1.227 . S
N1032 Co1029 2.121 . S
N1032 C1034 1.375 . S
N1032 C1035 1.313 . S
C1033 C1034 1.338 . S
C1033 N1036 1.377 . S
C1033 H1053 0.930 . S
C1034 N1032 1.375 . S
C1034 C1033 1.338 . S
C1034 H1038 0.931 . S
C1035 N1032 1.313 . S
C1035 N1036 1.344 . S
C1035 H1039 0.930 . S
N1036 C1033 1.377 . S
N1036 C1035 1.344 . S
O1037 Co1029 2.055 . S
O1037 C1041 1.253 . S
H1038 C1034 0.931 . S
H1039 C1035 0.930 . S
O1040 Co1029 2.039 . S
O1040 C1030 1.265 . S
C1041 O1037 1.253 . S
C1041 O1042 1.227 . S
O1042 C1041 1.227 . S
N1043 Co1029 2.140 . S
N1043 C1046 1.346 . S
N1043 C1047 1.345 . S
C1044 C1045 1.387 . S
C1044 C1048 1.391 . S
C1045 C1044 1.387 . S
C1045 C1046 1.369 . S
C1045 H1054 0.929 . S
C1046 N1043 1.346 . S
C1046 C1045 1.369 . S
C1046 H1049 0.928 . S
C1047 N1043 1.345 . S
C1047 C1048 1.371 . S
C1047 H1050 0.931 . S
C1048 C1044 1.391 . S
C1048 C1047 1.371 . S
C1048 H1055 0.930 . S
H1049 C1046 0.928 . S
H1050 C1047 0.931 . S
H1051 C1027 0.930 . S
H1052 C1024 0.930 . S
H1053 C1033 0.930 . S
H1054 C1045 0.929 . S
H1055 C1048 0.930 . S
C1056 C1057 1.349 . S
C1056 C1058 1.327 . S
C1056 H1081 0.950 . S
C1057 C1056 1.349 . S
C1057 C1073 1.349 . S
C1058 C1056 1.327 . S
C1058 C1077 1.429 . S
C1058 H1082 0.950 . S
C1059 C1076 1.574 . S
C1059 C1078 1.368 . S
C1059 H1083 0.949 . S
H1060 C1064 0.949 . S
C1061 C1062 1.349 . S
C1061 C1063 1.327 . S
C1061 H1084 0.950 . S
C1062 C1061 1.349 . S
C1062 C1074 1.349 . S
C1063 C1061 1.327 . S
C1063 C1079 1.429 . S
C1063 H1085 0.950 . S
C1064 H1060 0.949 . S
C1064 C1072 1.574 . S
C1064 C1080 1.368 . S
H1065 C1073 0.950 . S
H1066 C1071 0.950 . S
H1067 C1072 0.949 . S
H1068 C1074 0.950 . S
H1069 C1075 0.950 . S
H1070 C1076 0.949 . S
C1071 H1066 0.950 . S
C1071 C1073 1.327 . S
C1071 C1077 1.429 . S
C1072 C1064 1.574 . S
C1072 H1067 0.949 . S
C1072 C1078 1.368 . S
C1073 C1057 1.349 . S
C1073 H1065 0.950 . S
C1073 C1071 1.327 . S
C1074 C1062 1.349 . S
C1074 H1068 0.950 . S
C1074 C1075 1.327 . S
C1075 H1069 0.950 . S
C1075 C1074 1.327 . S
C1075 C1079 1.429 . S
C1076 C1059 1.574 . S
C1076 H1070 0.949 . S
C1076 C1080 1.368 . S
C1077 C1058 1.429 . S
C1077 C1071 1.429 . S
C1077 C1078 1.523 . S
C1078 C1059 1.368 . S
C1078 C1072 1.368 . S
C1078 C1077 1.523 . S
C1079 C1063 1.429 . S
C1079 C1075 1.429 . S
C1079 C1080 1.523 . S
C1080 C1064 1.368 . S
C1080 C1076 1.368 . S
C1080 C1079 1.523 . S
H1081 C1056 0.950 . S
H1082 C1058 0.950 . S
H1083 C1059 0.949 . S
H1084 C1061 0.950 . S
H1085 C1063 0.950 . S
C1086 C1087 1.349 . S
C1086 C1088 1.327 . S
C1086 H1111 0.950 . S
C1087 C1086 1.349 . S
C1087 C1103 1.349 . S
C1088 C1086 1.327 . S
C1088 C1107 1.429 . S
C1088 H1112 0.950 . S
C1089 C1106 1.574 1_655 S
C1089 C1108 1.368 . S
C1089 H1113 0.949 . S
H1090 C1094 0.949 . S
C1091 C1092 1.349 . S
C1091 C1093 1.327 . S
C1091 H1114 0.950 . S
C1092 C1091 1.349 . S
C1092 C1104 1.349 . S
C1093 C1091 1.327 . S
C1093 C1109 1.429 . S
C1093 H1115 0.950 . S
C1094 H1090 0.949 . S
C1094 C1102 1.574 1_455 S
C1094 C1110 1.368 . S
H1095 C1103 0.950 . S
H1096 C1101 0.950 . S
H1097 C1102 0.949 . S
H1098 C1104 0.950 . S
H1099 C1105 0.950 . S
H1100 C1106 0.949 . S
C1101 H1096 0.950 . S
C1101 C1103 1.327 . S
C1101 C1107 1.429 . S
C1102 C1094 1.574 1_655 S
C1102 H1097 0.949 . S
C1102 C1108 1.368 1_545 S
C1103 C1087 1.349 . S
C1103 H1095 0.950 . S
C1103 C1101 1.327 . S
C1104 C1092 1.349 . S
C1104 H1098 0.950 . S
C1104 C1105 1.327 . S
C1105 H1099 0.950 . S
C1105 C1104 1.327 . S
C1105 C1109 1.429 . S
C1106 C1089 1.574 1_455 S
C1106 H1100 0.949 . S
C1106 C1110 1.368 1_565 S
C1107 C1088 1.429 . S
C1107 C1101 1.429 . S
C1107 C1108 1.523 . S
C1108 C1089 1.368 . S
C1108 C1102 1.368 1_565 S
C1108 C1107 1.523 . S
C1109 C1093 1.429 . S
C1109 C1105 1.429 . S
C1109 C1110 1.523 . S
C1110 C1094 1.368 . S
C1110 C1106 1.368 1_545 S
C1110 C1109 1.523 . S
H1111 C1086 0.950 . S
H1112 C1088 0.950 . S
H1113 C1089 0.949 . S
H1114 C1091 0.950 . S
H1115 C1093 0.950 . S
C1116 C1117 1.349 . S
C1116 C1118 1.327 . S
C1116 H1141 0.950 . S
C1117 C1116 1.349 . S
C1117 C1133 1.349 . S
C1118 C1116 1.327 . S
C1118 C1137 1.429 . S
C1118 H1142 0.950 . S
C1119 C1136 1.574 . S
C1119 C1138 1.368 . S
C1119 H1143 0.949 . S
H1120 C1124 0.949 . S
C1121 C1122 1.349 . S
C1121 C1123 1.327 . S
C1121 H1144 0.950 . S
C1122 C1121 1.349 . S
C1122 C1134 1.349 . S
C1123 C1121 1.327 . S
C1123 C1139 1.429 . S
C1123 H1145 0.950 . S
C1124 H1120 0.949 . S
C1124 C1132 1.574 . S
C1124 C1140 1.368 . S
H1125 C1133 0.950 . S
H1126 C1131 0.950 . S
H1127 C1132 0.949 . S
H1128 C1134 0.950 . S
H1129 C1135 0.950 . S
H1130 C1136 0.949 . S
C1131 H1126 0.950 . S
C1131 C1133 1.327 . S
C1131 C1137 1.429 . S
C1132 C1124 1.574 . S
C1132 H1127 0.949 . S
C1132 C1138 1.368 . S
C1133 C1117 1.349 . S
C1133 H1125 0.950 . S
C1133 C1131 1.327 . S
C1134 C1122 1.349 . S
C1134 H1128 0.950 . S
C1134 C1135 1.327 . S
C1135 H1129 0.950 . S
C1135 C1134 1.327 . S
C1135 C1139 1.429 . S
C1136 C1119 1.574 . S
C1136 H1130 0.949 . S
C1136 C1140 1.368 . S
C1137 C1118 1.429 . S
C1137 C1131 1.429 . S
C1137 C1138 1.523 . S
C1138 C1119 1.368 . S
C1138 C1132 1.368 . S
C1138 C1137 1.523 . S
C1139 C1123 1.429 . S
C1139 C1135 1.429 . S
C1139 C1140 1.523 . S
C1140 C1124 1.368 . S
C1140 C1136 1.368 . S
C1140 C1139 1.523 . S
H1141 C1116 0.950 . S
H1142 C1118 0.950 . S
H1143 C1119 0.949 . S
H1144 C1121 0.950 . S
H1145 C1123 0.950 . S
C1146 C1147 1.349 . S
C1146 C1148 1.327 . S
C1146 H1171 0.950 . S
C1147 C1146 1.349 . S
C1147 C1163 1.349 . S
C1148 C1146 1.327 . S
C1148 C1167 1.429 . S
C1148 H1172 0.950 . S
C1149 C1166 1.574 1_565 S
C1149 C1168 1.368 . S
C1149 H1173 0.949 . S
H1150 C1154 0.949 . S
C1151 C1152 1.349 . S
C1151 C1153 1.327 . S
C1151 H1174 0.950 . S
C1152 C1151 1.349 . S
C1152 C1164 1.349 . S
C1153 C1151 1.327 . S
C1153 C1169 1.429 . S
C1153 H1175 0.950 . S
C1154 H1150 0.949 . S
C1154 C1162 1.574 1_545 S
C1154 C1170 1.368 . S
H1155 C1163 0.950 . S
H1156 C1161 0.950 . S
H1157 C1162 0.949 . S
H1158 C1164 0.950 . S
H1159 C1165 0.950 . S
H1160 C1166 0.949 . S
C1161 H1156 0.950 . S
C1161 C1163 1.327 . S
C1161 C1167 1.429 . S
C1162 C1154 1.574 1_565 S
C1162 H1157 0.949 . S
C1162 C1168 1.368 1_554 S
C1163 C1147 1.349 . S
C1163 H1155 0.950 . S
C1163 C1161 1.327 . S
C1164 C1152 1.349 . S
C1164 H1158 0.950 . S
C1164 C1165 1.327 . S
C1165 H1159 0.950 . S
C1165 C1164 1.327 . S
C1165 C1169 1.429 . S
C1166 C1149 1.574 1_545 S
C1166 H1160 0.949 . S
C1166 C1170 1.368 1_556 S
C1167 C1148 1.429 . S
C1167 C1161 1.429 . S
C1167 C1168 1.523 . S
C1168 C1149 1.368 . S
C1168 C1162 1.368 1_556 S
C1168 C1167 1.523 . S
C1169 C1153 1.429 . S
C1169 C1165 1.429 . S
C1169 C1170 1.523 . S
C1170 C1154 1.368 . S
C1170 C1166 1.368 1_554 S
C1170 C1169 1.523 . S
H1171 C1146 0.950 . S
H1172 C1148 0.950 . S
H1173 C1149 0.949 . S
H1174 C1151 0.950 . S
H1175 C1153 0.950 . S
C1176 C1177 1.349 . S
C1176 C1178 1.327 . S
C1176 H1201 0.950 . S
C1177 C1176 1.349 . S
C1177 C1193 1.349 . S
C1178 C1176 1.327 . S
C1178 C1197 1.429 . S
C1178 H1202 0.950 . S
C1179 C1196 1.574 . S
C1179 C1198 1.368 . S
C1179 H1203 0.949 . S
H1180 C1184 0.949 . S
C1181 C1182 1.349 . S
C1181 C1183 1.327 . S
C1181 H1204 0.950 . S
C1182 C1181 1.349 . S
C1182 C1194 1.349 . S
C1183 C1181 1.327 . S
C1183 C1199 1.429 . S
C1183 H1205 0.950 . S
C1184 H1180 0.949 . S
C1184 C1192 1.574 . S
C1184 C1200 1.368 . S
H1185 C1193 0.950 . S
H1186 C1191 0.950 . S
H1187 C1192 0.949 . S
H1188 C1194 0.950 . S
H1189 C1195 0.950 . S
H1190 C1196 0.949 . S
C1191 H1186 0.950 . S
C1191 C1193 1.327 . S
C1191 C1197 1.429 . S
C1192 C1184 1.574 . S
C1192 H1187 0.949 . S
C1192 C1198 1.368 . S
C1193 C1177 1.349 . S
C1193 H1185 0.950 . S
C1193 C1191 1.327 . S
C1194 C1182 1.349 . S
C1194 H1188 0.950 . S
C1194 C1195 1.327 . S
C1195 H1189 0.950 . S
C1195 C1194 1.327 . S
C1195 C1199 1.429 . S
C1196 C1179 1.574 . S
C1196 H1190 0.949 . S
C1196 C1200 1.368 . S
C1197 C1178 1.429 . S
C1197 C1191 1.429 . S
C1197 C1198 1.523 . S
C1198 C1179 1.368 . S
C1198 C1192 1.368 . S
C1198 C1197 1.523 . S
C1199 C1183 1.429 . S
C1199 C1195 1.429 . S
C1199 C1200 1.523 . S
C1200 C1184 1.368 . S
C1200 C1196 1.368 . S
C1200 C1199 1.523 . S
H1201 C1176 0.950 . S
H1202 C1178 0.950 . S
H1203 C1179 0.949 . S
H1204 C1181 0.950 . S
H1205 C1183 0.950 . S
C1206 C1207 1.349 . S
C1206 C1208 1.327 . S
C1206 H1231 0.950 . S
C1207 C1206 1.349 . S
C1207 C1223 1.349 . S
C1208 C1206 1.327 . S
C1208 C1227 1.429 . S
C1208 H1232 0.950 . S
C1209 C1226 1.574 . S
C1209 C1228 1.368 1_545 S
C1209 H1233 0.949 . S
H1210 C1214 0.949 . S
C1211 C1212 1.349 . S
C1211 C1213 1.327 . S
C1211 H1234 0.950 . S
C1212 C1211 1.349 . S
C1212 C1224 1.349 . S
C1213 C1211 1.327 . S
C1213 C1229 1.429 . S
C1213 H1235 0.950 . S
C1214 H1210 0.949 . S
C1214 C1222 1.574 . S
C1214 C1230 1.368 1_565 S
H1215 C1223 0.950 . S
H1216 C1221 0.950 . S
H1217 C1222 0.949 . S
H1218 C1224 0.950 . S
H1219 C1225 0.950 . S
H1220 C1226 0.949 . S
C1221 H1216 0.950 . S
C1221 C1223 1.327 . S
C1221 C1227 1.429 . S
C1222 C1214 1.574 . S
C1222 H1217 0.949 . S
C1222 C1228 1.368 . S
C1223 C1207 1.349 . S
C1223 H1215 0.950 . S
C1223 C1221 1.327 . S
C1224 C1212 1.349 . S
C1224 H1218 0.950 . S
C1224 C1225 1.327 . S
C1225 H1219 0.950 . S
C1225 C1224 1.327 . S
C1225 C1229 1.429 . S
C1226 C1209 1.574 . S
C1226 H1220 0.949 . S
C1226 C1230 1.368 . S
C1227 C1208 1.429 . S
C1227 C1221 1.429 . S
C1227 C1228 1.523 . S
C1228 C1209 1.368 1_565 S
C1228 C1222 1.368 . S
C1228 C1227 1.523 . S
C1229 C1213 1.429 . S
C1229 C1225 1.429 . S
C1229 C1230 1.523 . S
C1230 C1214 1.368 1_545 S
C1230 C1226 1.368 . S
C1230 C1229 1.523 . S
H1231 C1206 0.950 . S
H1232 C1208 0.950 . S
H1233 C1209 0.949 . S
H1234 C1211 0.950 . S
H1235 C1213 0.950 . S
C1236 C1237 1.349 . S
C1236 C1238 1.327 . S
C1236 H1261 0.950 . S
C1237 C1236 1.349 . S
C1237 C1253 1.349 . S
C1238 C1236 1.327 . S
C1238 C1257 1.429 . S
C1238 H1262 0.950 . S
C1239 C1256 1.574 . S
C1239 C1258 1.368 . S
C1239 H1263 0.949 . S
H1240 C1244 0.949 . S
C1241 C1242 1.349 . S
C1241 C1243 1.327 . S
C1241 H1264 0.950 . S
C1242 C1241 1.349 . S
C1242 C1254 1.349 . S
C1243 C1241 1.327 . S
C1243 C1259 1.429 . S
C1243 H1265 0.950 . S
C1244 H1240 0.949 . S
C1244 C1252 1.574 . S
C1244 C1260 1.368 . S
H1245 C1253 0.950 . S
H1246 C1251 0.950 . S
H1247 C1252 0.949 . S
H1248 C1254 0.950 . S
H1249 C1255 0.950 . S
H1250 C1256 0.949 . S
C1251 H1246 0.950 . S
C1251 C1253 1.327 . S
C1251 C1257 1.429 . S
C1252 C1244 1.574 . S
C1252 H1247 0.949 . S
C1252 C1258 1.368 . S
C1253 C1237 1.349 . S
C1253 H1245 0.950 . S
C1253 C1251 1.327 . S
C1254 C1242 1.349 . S
C1254 H1248 0.950 . S
C1254 C1255 1.327 . S
C1255 H1249 0.950 . S
C1255 C1254 1.327 . S
C1255 C1259 1.429 . S
C1256 C1239 1.574 . S
C1256 H1250 0.949 . S
C1256 C1260 1.368 . S
C1257 C1238 1.429 . S
C1257 C1251 1.429 . S
C1257 C1258 1.523 . S
C1258 C1239 1.368 . S
C1258 C1252 1.368 . S
C1258 C1257 1.523 . S
C1259 C1243 1.429 . S
C1259 C1255 1.429 . S
C1259 C1260 1.523 . S
C1260 C1244 1.368 . S
C1260 C1256 1.368 . S
C1260 C1259 1.523 . S
H1261 C1236 0.950 . S
H1262 C1238 0.950 . S
H1263 C1239 0.949 . S
H1264 C1241 0.950 . S
H1265 C1243 0.950 . S
C1266 C1267 1.349 . S
C1266 C1268 1.327 . S
C1266 H1291 0.950 . S
C1267 C1266 1.349 . S
C1267 C1283 1.349 . S
C1268 C1266 1.327 . S
C1268 C1287 1.429 . S
C1268 H1292 0.950 . S
C1269 C1286 1.574 1_565 S
C1269 C1288 1.368 1_655 S
C1269 H1293 0.949 . S
H1270 C1274 0.949 . S
C1271 C1272 1.349 . S
C1271 C1273 1.327 . S
C1271 H1294 0.950 . S
C1272 C1271 1.349 . S
C1272 C1284 1.349 . S
C1273 C1271 1.327 . S
C1273 C1289 1.429 . S
C1273 H1295 0.950 . S
C1274 H1270 0.949 . S
C1274 C1282 1.574 1_545 S
C1274 C1290 1.368 1_455 S
H1275 C1283 0.950 . S
H1276 C1281 0.950 . S
H1277 C1282 0.949 . S
H1278 C1284 0.950 . S
H1279 C1285 0.950 . S
H1280 C1286 0.949 . S
C1281 H1276 0.950 . S
C1281 C1283 1.327 . S
C1281 C1287 1.429 . S
C1282 C1274 1.574 1_565 S
C1282 H1277 0.949 . S
C1282 C1288 1.368 1_556 S
C1283 C1267 1.349 . S
C1283 H1275 0.950 . S
C1283 C1281 1.327 . S
C1284 C1272 1.349 . S
C1284 H1278 0.950 . S
C1284 C1285 1.327 . S
C1285 H1279 0.950 . S
C1285 C1284 1.327 . S
C1285 C1289 1.429 . S
C1286 C1269 1.574 1_545 S
C1286 H1280 0.949 . S
C1286 C1290 1.368 1_554 S
C1287 C1268 1.429 . S
C1287 C1281 1.429 . S
C1287 C1288 1.523 . S
C1288 C1269 1.368 1_455 S
C1288 C1282 1.368 1_554 S
C1288 C1287 1.523 . S
C1289 C1273 1.429 . S
C1289 C1285 1.429 . S
C1289 C1290 1.523 . S
C1290 C1274 1.368 1_655 S
C1290 C1286 1.368 1_556 S
C1290 C1289 1.523 . S
H1291 C1266 0.950 . S
H1292 C1268 0.950 . S
H1293 C1269 0.949 . S
H1294 C1271 0.950 . S
H1295 C1273 0.950 . S
C1296 C1297 1.349 . S
C1296 C1298 1.327 . S
C1296 H1321 0.950 . S
C1297 C1296 1.349 . S
C1297 C1313 1.349 . S
C1298 C1296 1.327 . S
C1298 C1317 1.429 . S
C1298 H1322 0.950 . S
C1299 C1316 1.574 . S
C1299 C1318 1.368 . S
C1299 H1323 0.949 . S
H1300 C1304 0.949 . S
C1301 C1302 1.349 . S
C1301 C1303 1.327 . S
C1301 H1324 0.950 . S
C1302 C1301 1.349 . S
C1302 C1314 1.349 . S
C1303 C1301 1.327 . S
C1303 C1319 1.429 . S
C1303 H1325 0.950 . S
C1304 H1300 0.949 . S
C1304 C1312 1.574 . S
C1304 C1320 1.368 . S
H1305 C1313 0.950 . S
H1306 C1311 0.950 . S
H1307 C1312 0.949 . S
H1308 C1314 0.950 . S
H1309 C1315 0.950 . S
H1310 C1316 0.949 . S
C1311 H1306 0.950 . S
C1311 C1313 1.327 . S
C1311 C1317 1.429 . S
C1312 C1304 1.574 . S
C1312 H1307 0.949 . S
C1312 C1318 1.368 . S
C1313 C1297 1.349 . S
C1313 H1305 0.950 . S
C1313 C1311 1.327 . S
C1314 C1302 1.349 . S
C1314 H1308 0.950 . S
C1314 C1315 1.327 . S
C1315 H1309 0.950 . S
C1315 C1314 1.327 . S
C1315 C1319 1.429 . S
C1316 C1299 1.574 . S
C1316 H1310 0.949 . S
C1316 C1320 1.368 . S
C1317 C1298 1.429 . S
C1317 C1311 1.429 . S
C1317 C1318 1.523 . S
C1318 C1299 1.368 . S
C1318 C1312 1.368 . S
C1318 C1317 1.523 . S
C1319 C1303 1.429 . S
C1319 C1315 1.429 . S
C1319 C1320 1.523 . S
C1320 C1304 1.368 . S
C1320 C1316 1.368 . S
C1320 C1319 1.523 . S
H1321 C1296 0.950 . S
H1322 C1298 0.950 . S
H1323 C1299 0.949 . S
H1324 C1301 0.950 . S
H1325 C1303 0.950 . S
C1326 C1327 1.349 . S
C1326 C1328 1.327 . S
C1326 H1351 0.950 . S
C1327 C1326 1.349 . S
C1327 C1343 1.349 . S
C1328 C1326 1.327 . S
C1328 C1347 1.429 . S
C1328 H1352 0.950 . S
C1329 C1346 1.574 . S
C1329 C1348 1.368 . S
C1329 H1353 0.949 . S
H1330 C1334 0.949 . S
C1331 C1332 1.349 . S
C1331 C1333 1.327 . S
C1331 H1354 0.950 . S
C1332 C1331 1.349 . S
C1332 C1344 1.349 . S
C1333 C1331 1.327 . S
C1333 C1349 1.429 . S
C1333 H1355 0.950 . S
C1334 H1330 0.949 . S
C1334 C1342 1.574 . S
C1334 C1350 1.368 . S
H1335 C1343 0.950 . S
H1336 C1341 0.950 . S
H1337 C1342 0.949 . S
H1338 C1344 0.950 . S
H1339 C1345 0.950 . S
H1340 C1346 0.949 . S
C1341 H1336 0.950 . S
C1341 C1343 1.327 . S
C1341 C1347 1.429 . S
C1342 C1334 1.574 . S
C1342 H1337 0.949 . S
C1342 C1348 1.368 . S
C1343 C1327 1.349 . S
C1343 H1335 0.950 . S
C1343 C1341 1.327 . S
C1344 C1332 1.349 . S
C1344 H1338 0.950 . S
C1344 C1345 1.327 . S
C1345 H1339 0.950 . S
C1345 C1344 1.327 . S
C1345 C1349 1.429 . S
C1346 C1329 1.574 . S
C1346 H1340 0.949 . S
C1346 C1350 1.368 . S
C1347 C1328 1.429 . S
C1347 C1341 1.429 . S
C1347 C1348 1.523 . S
C1348 C1329 1.368 . S
C1348 C1342 1.368 . S
C1348 C1347 1.523 . S
C1349 C1333 1.429 . S
C1349 C1345 1.429 . S
C1349 C1350 1.523 . S
C1350 C1334 1.368 . S
C1350 C1346 1.368 . S
C1350 C1349 1.523 . S
H1351 C1326 0.950 . S
H1352 C1328 0.950 . S
H1353 C1329 0.949 . S
H1354 C1331 0.950 . S
H1355 C1333 0.950 . S
C1356 C1357 1.349 . S
C1356 C1358 1.327 . S
C1356 H1381 0.950 . S
C1357 C1356 1.349 . S
C1357 C1373 1.349 . S
C1358 C1356 1.327 . S
C1358 C1377 1.429 . S
C1358 H1382 0.950 . S
C1359 C1376 1.574 . S
C1359 C1378 1.368 . S
C1359 H1383 0.949 . S
H1360 C1364 0.949 . S
C1361 C1362 1.349 . S
C1361 C1363 1.327 . S
C1361 H1384 0.950 . S
C1362 C1361 1.349 . S
C1362 C1374 1.349 . S
C1363 C1361 1.327 . S
C1363 C1379 1.429 . S
C1363 H1385 0.950 . S
C1364 H1360 0.949 . S
C1364 C1372 1.574 . S
C1364 C1380 1.368 . S
H1365 C1373 0.950 . S
H1366 C1371 0.950 . S
H1367 C1372 0.949 . S
H1368 C1374 0.950 . S
H1369 C1375 0.950 . S
H1370 C1376 0.949 . S
C1371 H1366 0.950 . S
C1371 C1373 1.327 . S
C1371 C1377 1.429 . S
C1372 C1364 1.574 . S
C1372 H1367 0.949 . S
C1372 C1378 1.368 . S
C1373 C1357 1.349 . S
C1373 H1365 0.950 . S
C1373 C1371 1.327 . S
C1374 C1362 1.349 . S
C1374 H1368 0.950 . S
C1374 C1375 1.327 . S
C1375 H1369 0.950 . S
C1375 C1374 1.327 . S
C1375 C1379 1.429 . S
C1376 C1359 1.574 . S
C1376 H1370 0.949 . S
C1376 C1380 1.368 . S
C1377 C1358 1.429 . S
C1377 C1371 1.429 . S
C1377 C1378 1.523 . S
C1378 C1359 1.368 . S
C1378 C1372 1.368 . S
C1378 C1377 1.523 . S
C1379 C1363 1.429 . S
C1379 C1375 1.429 . S
C1379 C1380 1.523 . S
C1380 C1364 1.368 . S
C1380 C1376 1.368 . S
C1380 C1379 1.523 . S
H1381 C1356 0.950 . S
H1382 C1358 0.950 . S
H1383 C1359 0.949 . S
H1384 C1361 0.950 . S
H1385 C1363 0.950 . S
C1386 C1387 1.349 . S
C1386 C1388 1.327 . S
C1386 H1411 0.950 . S
C1387 C1386 1.349 . S
C1387 C1403 1.349 . S
C1388 C1386 1.327 . S
C1388 C1407 1.429 . S
C1388 H1412 0.950 . S
C1389 C1406 1.574 . S
C1389 C1408 1.368 . S
C1389 H1413 0.949 . S
H1390 C1394 0.949 . S
C1391 C1392 1.349 . S
C1391 C1393 1.327 . S
C1391 H1414 0.950 . S
C1392 C1391 1.349 . S
C1392 C1404 1.349 . S
C1393 C1391 1.327 . S
C1393 C1409 1.429 . S
C1393 H1415 0.950 . S
C1394 H1390 0.949 . S
C1394 C1402 1.574 . S
C1394 C1410 1.368 . S
H1395 C1403 0.950 . S
H1396 C1401 0.950 . S
H1397 C1402 0.949 . S
H1398 C1404 0.950 . S
H1399 C1405 0.950 . S
H1400 C1406 0.949 . S
C1401 H1396 0.950 . S
C1401 C1403 1.327 . S
C1401 C1407 1.429 . S
C1402 C1394 1.574 . S
C1402 H1397 0.949 . S
C1402 C1408 1.368 . S
C1403 C1387 1.349 . S
C1403 H1395 0.950 . S
C1403 C1401 1.327 . S
C1404 C1392 1.349 . S
C1404 H1398 0.950 . S
C1404 C1405 1.327 . S
C1405 H1399 0.950 . S
C1405 C1404 1.327 . S
C1405 C1409 1.429 . S
C1406 C1389 1.574 . S
C1406 H1400 0.949 . S
C1406 C1410 1.368 . S
C1407 C1388 1.429 . S
C1407 C1401 1.429 . S
C1407 C1408 1.523 . S
C1408 C1389 1.368 . S
C1408 C1402 1.368 . S
C1408 C1407 1.523 . S
C1409 C1393 1.429 . S
C1409 C1405 1.429 . S
C1409 C1410 1.523 . S
C1410 C1394 1.368 . S
C1410 C1406 1.368 . S
C1410 C1409 1.523 . S
H1411 C1386 0.950 . S
H1412 C1388 0.950 . S
H1413 C1389 0.949 . S
H1414 C1391 0.950 . S
H1415 C1393 0.950 . S
C1416 C1417 1.349 . S
C1416 C1418 1.327 . S
C1416 H1441 0.950 . S
C1417 C1416 1.349 . S
C1417 C1433 1.349 . S
C1418 C1416 1.327 . S
C1418 C1437 1.429 . S
C1418 H1442 0.950 . S
C1419 C1436 1.574 . S
C1419 C1438 1.368 . S
C1419 H1443 0.949 . S
H1420 C1424 0.949 . S
C1421 C1422 1.349 . S
C1421 C1423 1.327 . S
C1421 H1444 0.950 . S
C1422 C1421 1.349 . S
C1422 C1434 1.349 . S
C1423 C1421 1.327 . S
C1423 C1439 1.429 . S
C1423 H1445 0.950 . S
C1424 H1420 0.949 . S
C1424 C1432 1.574 . S
C1424 C1440 1.368 . S
H1425 C1433 0.950 . S
H1426 C1431 0.950 . S
H1427 C1432 0.949 . S
H1428 C1434 0.950 . S
H1429 C1435 0.950 . S
H1430 C1436 0.949 . S
C1431 H1426 0.950 . S
C1431 C1433 1.327 . S
C1431 C1437 1.429 . S
C1432 C1424 1.574 . S
C1432 H1427 0.949 . S
C1432 C1438 1.368 1_554 S
C1433 C1417 1.349 . S
C1433 H1425 0.950 . S
C1433 C1431 1.327 . S
C1434 C1422 1.349 . S
C1434 H1428 0.950 . S
C1434 C1435 1.327 . S
C1435 H1429 0.950 . S
C1435 C1434 1.327 . S
C1435 C1439 1.429 . S
C1436 C1419 1.574 . S
C1436 H1430 0.949 . S
C1436 C1440 1.368 1_556 S
C1437 C1418 1.429 . S
C1437 C1431 1.429 . S
C1437 C1438 1.523 . S
C1438 C1419 1.368 . S
C1438 C1432 1.368 1_556 S
C1438 C1437 1.523 . S
C1439 C1423 1.429 . S
C1439 C1435 1.429 . S
C1439 C1440 1.523 . S
C1440 C1424 1.368 . S
C1440 C1436 1.368 1_554 S
C1440 C1439 1.523 . S
H1441 C1416 0.950 . S
H1442 C1418 0.950 . S
H1443 C1419 0.949 . S
H1444 C1421 0.950 . S
H1445 C1423 0.950 . S
C1446 C1447 1.349 . S
C1446 C1448 1.327 . S
C1446 H1471 0.950 . S
C1447 C1446 1.349 . S
C1447 C1463 1.349 . S
C1448 C1446 1.327 . S
C1448 C1467 1.429 . S
C1448 H1472 0.950 . S
C1449 C1466 1.581 . S
C1449 C1468 1.368 . S
C1449 H1473 0.949 . S
H1450 C1454 0.949 . S
C1451 C1452 1.349 . S
C1451 C1453 1.327 . S
C1451 H1474 0.950 . S
C1452 C1451 1.349 . S
C1452 C1464 1.349 . S
C1453 C1451 1.327 . S
C1453 C1469 1.429 . S
C1453 H1475 0.950 . S
C1454 H1450 0.949 . S
C1454 C1462 1.581 . S
C1454 C1470 1.368 . S
H1455 C1463 0.950 . S
H1456 C1461 0.950 . S
H1457 C1462 0.949 . S
H1458 C1464 0.950 . S
H1459 C1465 0.950 . S
H1460 C1466 0.949 . S
C1461 H1456 0.950 . S
C1461 C1463 1.327 . S
C1461 C1467 1.429 . S
C1462 C1454 1.581 . S
C1462 H1457 0.949 . S
C1462 C1468 1.362 1_655 S
C1463 C1447 1.349 . S
C1463 H1455 0.950 . S
C1463 C1461 1.327 . S
C1464 C1452 1.349 . S
C1464 H1458 0.950 . S
C1464 C1465 1.327 . S
C1465 H1459 0.950 . S
C1465 C1464 1.327 . S
C1465 C1469 1.429 . S
C1466 C1449 1.581 . S
C1466 H1460 0.949 . S
C1466 C1470 1.362 1_455 S
C1467 C1448 1.429 . S
C1467 C1461 1.429 . S
C1467 C1468 1.523 . S
C1468 C1449 1.368 . S
C1468 C1462 1.362 1_455 S
C1468 C1467 1.523 . S
C1469 C1453 1.429 . S
C1469 C1465 1.429 . S
C1469 C1470 1.523 . S
C1470 C1454 1.368 . S
C1470 C1466 1.362 1_655 S
C1470 C1469 1.523 . S
H1471 C1446 0.950 . S
H1472 C1448 0.950 . S
H1473 C1449 0.949 . S
H1474 C1451 0.950 . S
H1475 C1453 0.950 . S
C1476 C1477 1.349 . S
C1476 C1478 1.327 . S
C1476 H1501 0.950 . S
C1477 C1476 1.349 . S
C1477 C1493 1.349 . S
C1478 C1476 1.327 . S
C1478 C1497 1.429 . S
C1478 H1502 0.950 . S
C1479 C1496 1.574 . S
C1479 C1498 1.368 1_655 S
C1479 H1503 0.949 . S
H1480 C1484 0.949 . S
C1481 C1482 1.349 . S
C1481 C1483 1.327 . S
C1481 H1504 0.950 . S
C1482 C1481 1.349 . S
C1482 C1494 1.349 . S
C1483 C1481 1.327 . S
C1483 C1499 1.429 . S
C1483 H1505 0.950 . S
C1484 H1480 0.949 . S
C1484 C1492 1.574 . S
C1484 C1500 1.368 1_455 S
H1485 C1493 0.950 . S
H1486 C1491 0.950 . S
H1487 C1492 0.949 . S
H1488 C1494 0.950 . S
H1489 C1495 0.950 . S
H1490 C1496 0.949 . S
C1491 H1486 0.950 . S
C1491 C1493 1.327 . S
C1491 C1497 1.429 . S
C1492 C1484 1.574 . S
C1492 H1487 0.949 . S
C1492 C1498 1.368 1_554 S
C1493 C1477 1.349 . S
C1493 H1485 0.950 . S
C1493 C1491 1.327 . S
C1494 C1482 1.349 . S
C1494 H1488 0.950 . S
C1494 C1495 1.327 . S
C1495 H1489 0.950 . S
C1495 C1494 1.327 . S
C1495 C1499 1.429 . S
C1496 C1479 1.574 . S
C1496 H1490 0.949 . S
C1496 C1500 1.368 1_556 S
C1497 C1478 1.429 . S
C1497 C1491 1.429 . S
C1497 C1498 1.523 . S
C1498 C1479 1.368 1_455 S
C1498 C1492 1.368 1_556 S
C1498 C1497 1.523 . S
C1499 C1483 1.429 . S
C1499 C1495 1.429 . S
C1499 C1500 1.523 . S
C1500 C1484 1.368 1_655 S
C1500 C1496 1.368 1_554 S
C1500 C1499 1.523 . S
H1501 C1476 0.950 . S
H1502 C1478 0.950 . S
H1503 C1479 0.949 . S
H1504 C1481 0.950 . S
H1505 C1483 0.950 . S
C1506 C1507 1.349 . S
C1506 C1508 1.327 . S
C1506 H1531 0.950 . S
C1507 C1506 1.349 . S
C1507 C1523 1.349 . S
C1508 C1506 1.327 . S
C1508 C1527 1.429 . S
C1508 H1532 0.950 . S
C1509 C1526 1.574 . S
C1509 C1528 1.368 . S
C1509 H1533 0.949 . S
H1510 C1514 0.949 . S
C1511 C1512 1.349 . S
C1511 C1513 1.327 . S
C1511 H1534 0.950 . S
C1512 C1511 1.349 . S
C1512 C1524 1.349 . S
C1513 C1511 1.327 . S
C1513 C1529 1.429 . S
C1513 H1535 0.950 . S
C1514 H1510 0.949 . S
C1514 C1522 1.574 . S
C1514 C1530 1.368 . S
H1515 C1523 0.950 . S
H1516 C1521 0.950 . S
H1517 C1522 0.949 . S
H1518 C1524 0.950 . S
H1519 C1525 0.950 . S
H1520 C1526 0.949 . S
C1521 H1516 0.950 . S
C1521 C1523 1.327 . S
C1521 C1527 1.429 . S
C1522 C1514 1.574 . S
C1522 H1517 0.949 . S
C1522 C1528 1.368 . S
C1523 C1507 1.349 . S
C1523 H1515 0.950 . S
C1523 C1521 1.327 . S
C1524 C1512 1.349 . S
C1524 H1518 0.950 . S
C1524 C1525 1.327 . S
C1525 H1519 0.950 . S
C1525 C1524 1.327 . S
C1525 C1529 1.429 . S
C1526 C1509 1.574 . S
C1526 H1520 0.949 . S
C1526 C1530 1.368 . S
C1527 C1508 1.429 . S
C1527 C1521 1.429 . S
C1527 C1528 1.523 . S
C1528 C1509 1.368 . S
C1528 C1522 1.368 . S
C1528 C1527 1.523 . S
C1529 C1513 1.429 . S
C1529 C1525 1.429 . S
C1529 C1530 1.523 . S
C1530 C1514 1.368 . S
C1530 C1526 1.368 . S
C1530 C1529 1.523 . S
H1531 C1506 0.950 . S
H1532 C1508 0.950 . S
H1533 C1509 0.949 . S
H1534 C1511 0.950 . S
H1535 C1513 0.950 . S
C1536 C1537 1.349 . S
C1536 C1538 1.327 . S
C1536 H1561 0.950 . S
C1537 C1536 1.349 . S
C1537 C1553 1.349 . S
C1538 C1536 1.327 . S
C1538 C1557 1.429 . S
C1538 H1562 0.950 . S
C1539 C1556 1.574 . S
C1539 C1558 1.368 . S
C1539 H1563 0.949 . S
H1540 C1544 0.949 . S
C1541 C1542 1.349 . S
C1541 C1543 1.327 . S
C1541 H1564 0.950 . S
C1542 C1541 1.349 . S
C1542 C1554 1.349 . S
C1543 C1541 1.327 . S
C1543 C1559 1.429 . S
C1543 H1565 0.950 . S
C1544 H1540 0.949 . S
C1544 C1552 1.574 . S
C1544 C1560 1.368 . S
H1545 C1553 0.950 . S
H1546 C1551 0.950 . S
H1547 C1552 0.949 . S
H1548 C1554 0.950 . S
H1549 C1555 0.950 . S
H1550 C1556 0.949 . S
C1551 H1546 0.950 . S
C1551 C1553 1.327 . S
C1551 C1557 1.429 . S
C1552 C1544 1.574 . S
C1552 H1547 0.949 . S
C1552 C1558 1.368 . S
C1553 C1537 1.349 . S
C1553 H1545 0.950 . S
C1553 C1551 1.327 . S
C1554 C1542 1.349 . S
C1554 H1548 0.950 . S
C1554 C1555 1.327 . S
C1555 H1549 0.950 . S
C1555 C1554 1.327 . S
C1555 C1559 1.429 . S
C1556 C1539 1.574 . S
C1556 H1550 0.949 . S
C1556 C1560 1.368 . S
C1557 C1538 1.429 . S
C1557 C1551 1.429 . S
C1557 C1558 1.523 . S
C1558 C1539 1.368 . S
C1558 C1552 1.368 . S
C1558 C1557 1.523 . S
C1559 C1543 1.429 . S
C1559 C1555 1.429 . S
C1559 C1560 1.523 . S
C1560 C1544 1.368 . S
C1560 C1556 1.368 . S
C1560 C1559 1.523 . S
H1561 C1536 0.950 . S
H1562 C1538 0.950 . S
H1563 C1539 0.949 . S
H1564 C1541 0.950 . S
H1565 C1543 0.950 . S
C1566 C1567 1.349 . S
C1566 C1568 1.327 . S
C1566 H1591 0.950 . S
C1567 C1566 1.349 . S
C1567 C1583 1.349 . S
C1568 C1566 1.327 . S
C1568 C1587 1.429 . S
C1568 H1592 0.950 . S
C1569 C1586 1.574 1_655 S
C1569 C1588 1.368 . S
C1569 H1593 0.949 . S
H1570 C1574 0.949 . S
C1571 C1572 1.349 . S
C1571 C1573 1.327 . S
C1571 H1594 0.950 . S
C1572 C1571 1.349 . S
C1572 C1584 1.349 . S
C1573 C1571 1.327 . S
C1573 C1589 1.429 . S
C1573 H1595 0.950 . S
C1574 H1570 0.949 . S
C1574 C1582 1.605 . S
C1574 C1590 1.368 . S
H1575 C1583 0.950 . S
H1576 C1581 0.950 . S
H1577 C1582 0.945 1_655 S
H1578 C1584 0.950 . S
H1579 C1585 0.950 . S
H1580 C1586 0.949 . S
C1581 H1576 0.950 . S
C1581 C1583 1.327 . S
C1581 C1587 1.429 . S
C1582 C1574 1.605 . S
C1582 H1577 0.945 1_455 S
C1582 C1588 1.343 1_455 S
C1583 C1567 1.349 . S
C1583 H1575 0.950 . S
C1583 C1581 1.327 . S
C1584 C1572 1.349 . S
C1584 H1578 0.950 . S
C1584 C1585 1.327 . S
C1585 H1579 0.950 . S
C1585 C1584 1.327 . S
C1585 C1589 1.429 . S
C1586 C1569 1.574 1_455 S
C1586 H1580 0.949 . S
C1586 C1590 1.368 . S
C1587 C1568 1.429 . S
C1587 C1581 1.429 . S
C1587 C1588 1.523 . S
C1588 C1569 1.368 . S
C1588 C1582 1.343 1_655 S
C1588 C1587 1.523 . S
C1589 C1573 1.429 . S
C1589 C1585 1.429 . S
C1589 C1590 1.523 . S
C1590 C1574 1.368 . S
C1590 C1586 1.368 . S
C1590 C1589 1.523 . S
H1591 C1566 0.950 . S
H1592 C1568 0.950 . S
H1593 C1569 0.949 . S
H1594 C1571 0.950 . S
H1595 C1573 0.950 . S
C1596 C1597 1.349 . S
C1596 C1598 1.327 . S
C1596 H1621 0.950 . S
C1597 C1596 1.349 . S
C1597 C1613 1.349 . S
C1598 C1596 1.327 . S
C1598 C1617 1.429 . S
C1598 H1622 0.950 . S
C1599 C1616 1.574 . S
C1599 C1618 1.368 . S
C1599 H1623 0.949 . S
H1600 C1604 0.949 . S
C1601 C1602 1.349 . S
C1601 C1603 1.327 . S
C1601 H1624 0.950 . S
C1602 C1601 1.349 . S
C1602 C1614 1.349 . S
C1603 C1601 1.327 . S
C1603 C1619 1.429 . S
C1603 H1625 0.950 . S
C1604 H1600 0.949 . S
C1604 C1612 1.574 . S
C1604 C1620 1.368 . S
H1605 C1613 0.950 . S
H1606 C1611 0.950 . S
H1607 C1612 0.949 . S
H1608 C1614 0.950 . S
H1609 C1615 0.950 . S
H1610 C1616 0.949 . S
C1611 H1606 0.950 . S
C1611 C1613 1.327 . S
C1611 C1617 1.429 . S
C1612 C1604 1.574 . S
C1612 H1607 0.949 . S
C1612 C1618 1.368 . S
C1613 C1597 1.349 . S
C1613 H1605 0.950 . S
C1613 C1611 1.327 . S
C1614 C1602 1.349 . S
C1614 H1608 0.950 . S
C1614 C1615 1.327 . S
C1615 H1609 0.950 . S
C1615 C1614 1.327 . S
C1615 C1619 1.429 . S
C1616 C1599 1.574 . S
C1616 H1610 0.949 . S
C1616 C1620 1.368 . S
C1617 C1598 1.429 . S
C1617 C1611 1.429 . S
C1617 C1618 1.523 . S
C1618 C1599 1.368 . S
C1618 C1612 1.368 . S
C1618 C1617 1.523 . S
C1619 C1603 1.429 . S
C1619 C1615 1.429 . S
C1619 C1620 1.523 . S
C1620 C1604 1.368 . S
C1620 C1616 1.368 . S
C1620 C1619 1.523 . S
H1621 C1596 0.950 . S
H1622 C1598 0.950 . S
H1623 C1599 0.949 . S
H1624 C1601 0.950 . S
H1625 C1603 0.950 . S
C1626 C1627 1.349 . S
C1626 C1628 1.327 . S
C1626 H1651 0.950 . S
C1627 C1626 1.349 . S
C1627 C1643 1.349 . S
C1628 C1626 1.327 . S
C1628 C1647 1.429 . S
C1628 H1652 0.950 . S
C1629 C1646 1.574 . S
C1629 C1648 1.368 . S
C1629 H1653 0.949 . S
H1630 C1634 0.949 . S
C1631 C1632 1.349 . S
C1631 C1633 1.327 . S
C1631 H1654 0.950 . S
C1632 C1631 1.349 . S
C1632 C1644 1.349 . S
C1633 C1631 1.327 . S
C1633 C1649 1.429 . S
C1633 H1655 0.950 . S
C1634 H1630 0.949 . S
C1634 C1642 1.574 . S
C1634 C1650 1.368 . S
H1635 C1643 0.950 . S
H1636 C1641 0.950 . S
H1637 C1642 0.949 . S
H1638 C1644 0.950 . S
H1639 C1645 0.950 . S
H1640 C1646 0.949 . S
C1641 H1636 0.950 . S
C1641 C1643 1.327 . S
C1641 C1647 1.429 . S
C1642 C1634 1.574 . S
C1642 H1637 0.949 . S
C1642 C1648 1.368 . S
C1643 C1627 1.349 . S
C1643 H1635 0.950 . S
C1643 C1641 1.327 . S
C1644 C1632 1.349 . S
C1644 H1638 0.950 . S
C1644 C1645 1.327 . S
C1645 H1639 0.950 . S
C1645 C1644 1.327 . S
C1645 C1649 1.429 . S
C1646 C1629 1.574 . S
C1646 H1640 0.949 . S
C1646 C1650 1.368 . S
C1647 C1628 1.429 . S
C1647 C1641 1.429 . S
C1647 C1648 1.523 . S
C1648 C1629 1.368 . S
C1648 C1642 1.368 . S
C1648 C1647 1.523 . S
C1649 C1633 1.429 . S
C1649 C1645 1.429 . S
C1649 C1650 1.523 . S
C1650 C1634 1.368 . S
C1650 C1646 1.368 . S
C1650 C1649 1.523 . S
H1651 C1626 0.950 . S
H1652 C1628 0.950 . S
H1653 C1629 0.949 . S
H1654 C1631 0.950 . S
H1655 C1633 0.950 . S
C1656 C1657 1.349 . S
C1656 C1658 1.327 . S
C1656 H1681 0.950 . S
C1657 C1656 1.349 . S
C1657 C1673 1.349 . S
C1658 C1656 1.327 . S
C1658 C1677 1.429 . S
C1658 H1682 0.950 . S
C1659 C1676 1.574 . S
C1659 C1678 1.368 . S
C1659 H1683 0.949 . S
H1660 C1664 0.949 . S
C1661 C1662 1.349 . S
C1661 C1663 1.327 . S
C1661 H1684 0.950 . S
C1662 C1661 1.349 . S
C1662 C1674 1.349 . S
C1663 C1661 1.327 . S
C1663 C1679 1.429 . S
C1663 H1685 0.950 . S
C1664 H1660 0.949 . S
C1664 C1672 1.574 . S
C1664 C1680 1.368 . S
H1665 C1673 0.950 . S
H1666 C1671 0.950 . S
H1667 C1672 0.949 . S
H1668 C1674 0.950 . S
H1669 C1675 0.950 . S
H1670 C1676 0.949 . S
C1671 H1666 0.950 . S
C1671 C1673 1.327 . S
C1671 C1677 1.429 . S
C1672 C1664 1.574 . S
C1672 H1667 0.949 . S
C1672 C1678 1.368 . S
C1673 C1657 1.349 . S
C1673 H1665 0.950 . S
C1673 C1671 1.327 . S
C1674 C1662 1.349 . S
C1674 H1668 0.950 . S
C1674 C1675 1.327 . S
C1675 H1669 0.950 . S
C1675 C1674 1.327 . S
C1675 C1679 1.429 . S
C1676 C1659 1.574 . S
C1676 H1670 0.949 . S
C1676 C1680 1.368 . S
C1677 C1658 1.429 . S
C1677 C1671 1.429 . S
C1677 C1678 1.523 . S
C1678 C1659 1.368 . S
C1678 C1672 1.368 . S
C1678 C1677 1.523 . S
C1679 C1663 1.429 . S
C1679 C1675 1.429 . S
C1679 C1680 1.523 . S
C1680 C1664 1.368 . S
C1680 C1676 1.368 . S
C1680 C1679 1.523 . S
H1681 C1656 0.950 . S
H1682 C1658 0.950 . S
H1683 C1659 0.949 . S
H1684 C1661 0.950 . S
H1685 C1663 0.950 . S
C1686 C1687 1.349 . S
C1686 C1688 1.327 . S
C1686 H1711 0.950 . S
C1687 C1686 1.349 . S
C1687 C1703 1.349 . S
C1688 C1686 1.327 . S
C1688 C1707 1.429 . S
C1688 H1712 0.950 . S
C1689 C1706 1.574 . S
C1689 C1708 1.368 . S
C1689 H1713 0.949 . S
H1690 C1694 0.949 . S
C1691 C1692 1.349 . S
C1691 C1693 1.327 . S
C1691 H1714 0.950 . S
C1692 C1691 1.349 . S
C1692 C1704 1.349 . S
C1693 C1691 1.327 . S
C1693 C1709 1.429 . S
C1693 H1715 0.950 . S
C1694 H1690 0.949 . S
C1694 C1702 1.574 . S
C1694 C1710 1.368 . S
H1695 C1703 0.950 . S
H1696 C1701 0.950 . S
H1697 C1702 0.949 . S
H1698 C1704 0.950 . S
H1699 C1705 0.950 . S
H1700 C1706 0.949 . S
C1701 H1696 0.950 . S
C1701 C1703 1.327 . S
C1701 C1707 1.429 . S
C1702 C1694 1.574 . S
C1702 H1697 0.949 . S
C1702 C1708 1.368 . S
C1703 C1687 1.349 . S
C1703 H1695 0.950 . S
C1703 C1701 1.327 . S
C1704 C1692 1.349 . S
C1704 H1698 0.950 . S
C1704 C1705 1.327 . S
C1705 H1699 0.950 . S
C1705 C1704 1.327 . S
C1705 C1709 1.429 . S
C1706 C1689 1.574 . S
C1706 H1700 0.949 . S
C1706 C1710 1.368 . S
C1707 C1688 1.429 . S
C1707 C1701 1.429 . S
C1707 C1708 1.523 . S
C1708 C1689 1.368 . S
C1708 C1702 1.368 . S
C1708 C1707 1.523 . S
C1709 C1693 1.429 . S
C1709 C1705 1.429 . S
C1709 C1710 1.523 . S
C1710 C1694 1.368 . S
C1710 C1706 1.368 . S
C1710 C1709 1.523 . S
H1711 C1686 0.950 . S
H1712 C1688 0.950 . S
H1713 C1689 0.949 . S
H1714 C1691 0.950 . S
H1715 C1693 0.950 . S
C1716 C1717 1.349 . S
C1716 C1718 1.327 . S
C1716 H1741 0.950 . S
C1717 C1716 1.349 . S
C1717 C1733 1.349 . S
C1718 C1716 1.327 . S
C1718 C1737 1.429 . S
C1718 H1742 0.950 . S
C1719 C1736 1.574 . S
C1719 C1738 1.368 . S
C1719 H1743 0.949 . S
H1720 C1724 0.949 . S
C1721 C1722 1.349 . S
C1721 C1723 1.327 . S
C1721 H1744 0.950 . S
C1722 C1721 1.349 . S
C1722 C1734 1.349 . S
C1723 C1721 1.327 . S
C1723 C1739 1.429 . S
C1723 H1745 0.950 . S
C1724 H1720 0.949 . S
C1724 C1732 1.574 . S
C1724 C1740 1.368 . S
H1725 C1733 0.950 . S
H1726 C1731 0.950 . S
H1727 C1732 0.949 . S
H1728 C1734 0.950 . S
H1729 C1735 0.950 . S
H1730 C1736 0.949 . S
C1731 H1726 0.950 . S
C1731 C1733 1.327 . S
C1731 C1737 1.429 . S
C1732 C1724 1.574 . S
C1732 H1727 0.949 . S
C1732 C1738 1.368 . S
C1733 C1717 1.349 . S
C1733 H1725 0.950 . S
C1733 C1731 1.327 . S
C1734 C1722 1.349 . S
C1734 H1728 0.950 . S
C1734 C1735 1.327 . S
C1735 H1729 0.950 . S
C1735 C1734 1.327 . S
C1735 C1739 1.429 . S
C1736 C1719 1.574 . S
C1736 H1730 0.949 . S
C1736 C1740 1.368 . S
C1737 C1718 1.429 . S
C1737 C1731 1.429 . S
C1737 C1738 1.523 . S
C1738 C1719 1.368 . S
C1738 C1732 1.368 . S
C1738 C1737 1.523 . S
C1739 C1723 1.429 . S
C1739 C1735 1.429 . S
C1739 C1740 1.523 . S
C1740 C1724 1.368 . S
C1740 C1736 1.368 . S
C1740 C1739 1.523 . S
H1741 C1716 0.950 . S
H1742 C1718 0.950 . S
H1743 C1719 0.949 . S
H1744 C1721 0.950 . S
H1745 C1723 0.950 . S
C1746 C1747 1.349 . S
C1746 C1748 1.327 . S
C1746 H1771 0.950 . S
C1747 C1746 1.349 . S
C1747 C1763 1.349 . S
C1748 C1746 1.327 . S
C1748 C1767 1.429 . S
C1748 H1772 0.950 . S
C1749 C1766 1.574 1_655 S
C1749 C1768 1.368 . S
C1749 H1773 0.949 . S
H1750 C1754 0.949 . S
C1751 C1752 1.349 . S
C1751 C1753 1.327 . S
C1751 H1774 0.950 . S
C1752 C1751 1.349 . S
C1752 C1764 1.349 . S
C1753 C1751 1.327 . S
C1753 C1769 1.429 . S
C1753 H1775 0.950 . S
C1754 H1750 0.949 . S
C1754 C1762 1.574 . S
C1754 C1770 1.368 . S
H1755 C1763 0.950 . S
H1756 C1761 0.950 . S
H1757 C1762 0.945 1_655 S
H1758 C1764 0.950 . S
H1759 C1765 0.950 . S
H1760 C1766 0.949 . S
C1761 H1756 0.950 . S
C1761 C1763 1.327 . S
C1761 C1767 1.429 . S
C1762 C1754 1.574 . S
C1762 H1757 0.945 1_455 S
C1762 C1768 1.368 1_455 S
C1763 C1747 1.349 . S
C1763 H1755 0.950 . S
C1763 C1761 1.327 . S
C1764 C1752 1.349 . S
C1764 H1758 0.950 . S
C1764 C1765 1.327 . S
C1765 H1759 0.950 . S
C1765 C1764 1.327 . S
C1765 C1769 1.429 . S
C1766 C1749 1.574 1_455 S
C1766 H1760 0.949 . S
C1766 C1770 1.368 . S
C1767 C1748 1.429 . S
C1767 C1761 1.429 . S
C1767 C1768 1.523 . S
C1768 C1749 1.368 . S
C1768 C1762 1.368 1_655 S
C1768 C1767 1.523 . S
C1769 C1753 1.429 . S
C1769 C1765 1.429 . S
C1769 C1770 1.523 . S
C1770 C1754 1.368 . S
C1770 C1766 1.368 . S
C1770 C1769 1.523 . S
H1771 C1746 0.950 . S
H1772 C1748 0.950 . S
H1773 C1749 0.949 . S
H1774 C1751 0.950 . S
H1775 C1753 0.950 . S
C1776 C1777 1.349 . S
C1776 C1778 1.327 . S
C1776 H1801 0.950 . S
C1777 C1776 1.349 . S
C1777 C1793 1.349 . S
C1778 C1776 1.327 . S
C1778 C1797 1.429 . S
C1778 H1802 0.950 . S
C1779 C1796 1.574 . S
C1779 C1798 1.368 . S
C1779 H1803 0.949 . S
H1780 C1784 0.949 . S
C1781 C1782 1.349 . S
C1781 C1783 1.327 . S
C1781 H1804 0.950 . S
C1782 C1781 1.349 . S
C1782 C1794 1.349 . S
C1783 C1781 1.327 . S
C1783 C1799 1.429 . S
C1783 H1805 0.950 . S
C1784 H1780 0.949 . S
C1784 C1792 1.574 . S
C1784 C1800 1.368 . S
H1785 C1793 0.950 . S
H1786 C1791 0.950 . S
H1787 C1792 0.949 . S
H1788 C1794 0.950 . S
H1789 C1795 0.950 . S
H1790 C1796 0.949 . S
C1791 H1786 0.950 . S
C1791 C1793 1.327 . S
C1791 C1797 1.429 . S
C1792 C1784 1.574 . S
C1792 H1787 0.949 . S
C1792 C1798 1.368 . S
C1793 C1777 1.349 . S
C1793 H1785 0.950 . S
C1793 C1791 1.327 . S
C1794 C1782 1.349 . S
C1794 H1788 0.950 . S
C1794 C1795 1.327 . S
C1795 H1789 0.950 . S
C1795 C1794 1.327 . S
C1795 C1799 1.429 . S
C1796 C1779 1.574 . S
C1796 H1790 0.949 . S
C1796 C1800 1.368 . S
C1797 C1778 1.429 . S
C1797 C1791 1.429 . S
C1797 C1798 1.523 . S
C1798 C1779 1.368 . S
C1798 C1792 1.368 . S
C1798 C1797 1.523 . S
C1799 C1783 1.429 . S
C1799 C1795 1.429 . S
C1799 C1800 1.523 . S
C1800 C1784 1.368 . S
C1800 C1796 1.368 . S
C1800 C1799 1.523 . S
H1801 C1776 0.950 . S
H1802 C1778 0.950 . S
H1803 C1779 0.949 . S
H1804 C1781 0.950 . S
H1805 C1783 0.950 . S
C1806 C1807 1.349 . S
C1806 C1808 1.327 . S
C1806 H1831 0.950 . S
C1807 C1806 1.349 . S
C1807 C1823 1.349 . S
C1808 C1806 1.327 . S
C1808 C1827 1.429 . S
C1808 H1832 0.950 . S
C1809 C1826 1.574 1_455 S
C1809 C1828 1.368 . S
C1809 H1833 0.949 . S
H1810 C1814 0.949 . S
C1811 C1812 1.349 . S
C1811 C1813 1.327 . S
C1811 H1834 0.950 . S
C1812 C1811 1.349 . S
C1812 C1824 1.349 . S
C1813 C1811 1.327 . S
C1813 C1829 1.429 . S
C1813 H1835 0.950 . S
C1814 H1810 0.949 . S
C1814 C1822 1.574 . S
C1814 C1830 1.368 . S
H1815 C1823 0.950 . S
H1816 C1821 0.950 . S
H1817 C1822 0.947 1_455 S
H1818 C1824 0.950 . S
H1819 C1825 0.950 . S
H1820 C1826 0.949 . S
C1821 H1816 0.950 . S
C1821 C1823 1.327 . S
C1821 C1827 1.429 . S
C1822 C1814 1.574 . S
C1822 H1817 0.947 1_655 S
C1822 C1828 1.368 1_655 S
C1823 C1807 1.349 . S
C1823 H1815 0.950 . S
C1823 C1821 1.327 . S
C1824 C1812 1.349 . S
C1824 H1818 0.950 . S
C1824 C1825 1.327 . S
C1825 H1819 0.950 . S
C1825 C1824 1.327 . S
C1825 C1829 1.429 . S
C1826 C1809 1.574 1_655 S
C1826 H1820 0.949 . S
C1826 C1830 1.368 . S
C1827 C1808 1.429 . S
C1827 C1821 1.429 . S
C1827 C1828 1.523 . S
C1828 C1809 1.368 . S
C1828 C1822 1.368 1_455 S
C1828 C1827 1.523 . S
C1829 C1813 1.429 . S
C1829 C1825 1.429 . S
C1829 C1830 1.523 . S
C1830 C1814 1.368 . S
C1830 C1826 1.368 . S
C1830 C1829 1.523 . S
H1831 C1806 0.950 . S
H1832 C1808 0.950 . S
H1833 C1809 0.949 . S
H1834 C1811 0.950 . S
H1835 C1813 0.950 . S
C1836 C1837 1.349 . S
C1836 C1838 1.327 . S
C1836 H1861 0.950 . S
C1837 C1836 1.349 . S
C1837 C1853 1.349 . S
C1838 C1836 1.327 . S
C1838 C1857 1.429 . S
C1838 H1862 0.950 . S
C1839 C1856 1.574 . S
C1839 C1858 1.368 . S
C1839 H1863 0.949 . S
H1840 C1844 0.949 . S
C1841 C1842 1.349 . S
C1841 C1843 1.327 . S
C1841 H1864 0.950 . S
C1842 C1841 1.349 . S
C1842 C1854 1.349 . S
C1843 C1841 1.327 . S
C1843 C1859 1.429 . S
C1843 H1865 0.950 . S
C1844 H1840 0.949 . S
C1844 C1852 1.574 . S
C1844 C1860 1.368 . S
H1845 C1853 0.950 . S
H1846 C1851 0.950 . S
H1847 C1852 0.949 . S
H1848 C1854 0.950 . S
H1849 C1855 0.950 . S
H1850 C1856 0.949 . S
C1851 H1846 0.950 . S
C1851 C1853 1.327 . S
C1851 C1857 1.429 . S
C1852 C1844 1.574 . S
C1852 H1847 0.949 . S
C1852 C1858 1.368 . S
C1853 C1837 1.349 . S
C1853 H1845 0.950 . S
C1853 C1851 1.327 . S
C1854 C1842 1.349 . S
C1854 H1848 0.950 . S
C1854 C1855 1.327 . S
C1855 H1849 0.950 . S
C1855 C1854 1.327 . S
C1855 C1859 1.429 . S
C1856 C1839 1.574 . S
C1856 H1850 0.949 . S
C1856 C1860 1.368 . S
C1857 C1838 1.429 . S
C1857 C1851 1.429 . S
C1857 C1858 1.523 . S
C1858 C1839 1.368 . S
C1858 C1852 1.368 . S
C1858 C1857 1.523 . S
C1859 C1843 1.429 . S
C1859 C1855 1.429 . S
C1859 C1860 1.523 . S
C1860 C1844 1.368 . S
C1860 C1856 1.368 . S
C1860 C1859 1.523 . S
H1861 C1836 0.950 . S
H1862 C1838 0.950 . S
H1863 C1839 0.949 . S
H1864 C1841 0.950 . S
H1865 C1843 0.950 . S
C1866 C1867 1.349 . S
C1866 C1868 1.327 . S
C1866 H1891 0.950 . S
C1867 C1866 1.349 . S
C1867 C1883 1.349 . S
C1868 C1866 1.327 . S
C1868 C1887 1.429 . S
C1868 H1892 0.950 . S
C1869 C1886 1.574 . S
C1869 C1888 1.368 . S
C1869 H1893 0.949 . S
H1870 C1874 0.949 . S
C1871 C1872 1.349 . S
C1871 C1873 1.327 . S
C1871 H1894 0.950 . S
C1872 C1871 1.349 . S
C1872 C1884 1.349 . S
C1873 C1871 1.327 . S
C1873 C1889 1.429 . S
C1873 H1895 0.950 . S
C1874 H1870 0.949 . S
C1874 C1882 1.574 . S
C1874 C1890 1.368 . S
H1875 C1883 0.950 . S
H1876 C1881 0.950 . S
H1877 C1882 0.949 . S
H1878 C1884 0.950 . S
H1879 C1885 0.950 . S
H1880 C1886 0.949 . S
C1881 H1876 0.950 . S
C1881 C1883 1.327 . S
C1881 C1887 1.429 . S
C1882 C1874 1.574 . S
C1882 H1877 0.949 . S
C1882 C1888 1.368 . S
C1883 C1867 1.349 . S
C1883 H1875 0.950 . S
C1883 C1881 1.327 . S
C1884 C1872 1.349 . S
C1884 H1878 0.950 . S
C1884 C1885 1.327 . S
C1885 H1879 0.950 . S
C1885 C1884 1.327 . S
C1885 C1889 1.429 . S
C1886 C1869 1.574 . S
C1886 H1880 0.949 . S
C1886 C1890 1.368 . S
C1887 C1868 1.429 . S
C1887 C1881 1.429 . S
C1887 C1888 1.523 . S
C1888 C1869 1.368 . S
C1888 C1882 1.368 . S
C1888 C1887 1.523 . S
C1889 C1873 1.429 . S
C1889 C1885 1.429 . S
C1889 C1890 1.523 . S
C1890 C1874 1.368 . S
C1890 C1886 1.368 . S
C1890 C1889 1.523 . S
H1891 C1866 0.950 . S
H1892 C1868 0.950 . S
H1893 C1869 0.949 . S
H1894 C1871 0.950 . S
H1895 C1873 0.950 . S
C1896 C1897 1.349 . S
C1896 C1898 1.327 . S
C1896 H1921 0.950 . S
C1897 C1896 1.349 . S
C1897 C1913 1.349 . S
C1898 C1896 1.327 . S
C1898 C1917 1.429 . S
C1898 H1922 0.950 . S
C1899 C1916 1.574 . S
C1899 C1918 1.368 . S
C1899 H1923 0.949 . S
H1900 C1904 0.949 . S
C1901 C1902 1.349 . S
C1901 C1903 1.327 . S
C1901 H1924 0.950 . S
C1902 C1901 1.349 . S
C1902 C1914 1.349 . S
C1903 C1901 1.327 . S
C1903 C1919 1.429 . S
C1903 H1925 0.950 . S
C1904 H1900 0.949 . S
C1904 C1912 1.574 . S
C1904 C1920 1.368 . S
H1905 C1913 0.950 . S
H1906 C1911 0.950 . S
H1907 C1912 0.949 . S
H1908 C1914 0.950 . S
H1909 C1915 0.950 . S
H1910 C1916 0.949 . S
C1911 H1906 0.950 . S
C1911 C1913 1.327 . S
C1911 C1917 1.429 . S
C1912 C1904 1.574 . S
C1912 H1907 0.949 . S
C1912 C1918 1.368 . S
C1913 C1897 1.349 . S
C1913 H1905 0.950 . S
C1913 C1911 1.327 . S
C1914 C1902 1.349 . S
C1914 H1908 0.950 . S
C1914 C1915 1.327 . S
C1915 H1909 0.950 . S
C1915 C1914 1.327 . S
C1915 C1919 1.429 . S
C1916 C1899 1.574 . S
C1916 H1910 0.949 . S
C1916 C1920 1.368 . S
C1917 C1898 1.429 . S
C1917 C1911 1.429 . S
C1917 C1918 1.523 . S
C1918 C1899 1.368 . S
C1918 C1912 1.368 . S
C1918 C1917 1.523 . S
C1919 C1903 1.429 . S
C1919 C1915 1.429 . S
C1919 C1920 1.523 . S
C1920 C1904 1.368 . S
C1920 C1916 1.368 . S
C1920 C1919 1.523 . S
H1921 C1896 0.950 . S
H1922 C1898 0.950 . S
H1923 C1899 0.949 . S
H1924 C1901 0.950 . S
H1925 C1903 0.950 . S
C1926 C1927 1.349 . S
C1926 C1928 1.327 . S
C1926 H1951 0.950 . S
C1927 C1926 1.349 . S
C1927 C1943 1.349 . S
C1928 C1926 1.327 . S
C1928 C1947 1.429 . S
C1928 H1952 0.950 . S
C1929 C1946 1.574 . S
C1929 C1948 1.368 . S
C1929 H1953 0.949 . S
H1930 C1934 0.949 . S
C1931 C1932 1.349 . S
C1931 C1933 1.327 . S
C1931 H1954 0.950 . S
C1932 C1931 1.349 . S
C1932 C1944 1.349 . S
C1933 C1931 1.327 . S
C1933 C1949 1.429 . S
C1933 H1955 0.950 . S
C1934 H1930 0.949 . S
C1934 C1942 1.574 . S
C1934 C1950 1.368 . S
H1935 C1943 0.950 . S
H1936 C1941 0.950 . S
H1937 C1942 0.949 . S
H1938 C1944 0.950 . S
H1939 C1945 0.950 . S
H1940 C1946 0.949 . S
C1941 H1936 0.950 . S
C1941 C1943 1.327 . S
C1941 C1947 1.429 . S
C1942 C1934 1.574 . S
C1942 H1937 0.949 . S
C1942 C1948 1.368 . S
C1943 C1927 1.349 . S
C1943 H1935 0.950 . S
C1943 C1941 1.327 . S
C1944 C1932 1.349 . S
C1944 H1938 0.950 . S
C1944 C1945 1.327 . S
C1945 H1939 0.950 . S
C1945 C1944 1.327 . S
C1945 C1949 1.429 . S
C1946 C1929 1.574 . S
C1946 H1940 0.949 . S
C1946 C1950 1.368 . S
C1947 C1928 1.429 . S
C1947 C1941 1.429 . S
C1947 C1948 1.523 . S
C1948 C1929 1.368 . S
C1948 C1942 1.368 . S
C1948 C1947 1.523 . S
C1949 C1933 1.429 . S
C1949 C1945 1.429 . S
C1949 C1950 1.523 . S
C1950 C1934 1.368 . S
C1950 C1946 1.368 . S
C1950 C1949 1.523 . S
H1951 C1926 0.950 . S
H1952 C1928 0.950 . S
H1953 C1929 0.949 . S
H1954 C1931 0.950 . S
H1955 C1933 0.950 . S
C1956 C1957 1.349 . S
C1956 C1958 1.327 . S
C1956 H1981 0.950 . S
C1957 C1956 1.349 . S
C1957 C1973 1.349 . S
C1958 C1956 1.327 . S
C1958 C1977 1.429 . S
C1958 H1982 0.950 . S
C1959 C1976 1.574 . S
C1959 C1978 1.368 . S
C1959 H1983 0.949 . S
H1960 C1964 0.949 . S
C1961 C1962 1.349 . S
C1961 C1963 1.327 . S
C1961 H1984 0.950 . S
C1962 C1961 1.349 . S
C1962 C1974 1.349 . S
C1963 C1961 1.327 . S
C1963 C1979 1.429 . S
C1963 H1985 0.950 . S
C1964 H1960 0.949 . S
C1964 C1972 1.574 . S
C1964 C1980 1.368 . S
H1965 C1973 0.950 . S
H1966 C1971 0.950 . S
H1967 C1972 0.949 . S
H1968 C1974 0.950 . S
H1969 C1975 0.950 . S
H1970 C1976 0.949 . S
C1971 H1966 0.950 . S
C1971 C1973 1.327 . S
C1971 C1977 1.429 . S
C1972 C1964 1.574 . S
C1972 H1967 0.949 . S
C1972 C1978 1.368 . S
C1973 C1957 1.349 . S
C1973 H1965 0.950 . S
C1973 C1971 1.327 . S
C1974 C1962 1.349 . S
C1974 H1968 0.950 . S
C1974 C1975 1.327 . S
C1975 H1969 0.950 . S
C1975 C1974 1.327 . S
C1975 C1979 1.429 . S
C1976 C1959 1.574 . S
C1976 H1970 0.949 . S
C1976 C1980 1.368 . S
C1977 C1958 1.429 . S
C1977 C1971 1.429 . S
C1977 C1978 1.523 . S
C1978 C1959 1.368 . S
C1978 C1972 1.368 . S
C1978 C1977 1.523 . S
C1979 C1963 1.429 . S
C1979 C1975 1.429 . S
C1979 C1980 1.523 . S
C1980 C1964 1.368 . S
C1980 C1976 1.368 . S
C1980 C1979 1.523 . S
H1981 C1956 0.950 . S
H1982 C1958 0.950 . S
H1983 C1959 0.949 . S
H1984 C1961 0.950 . S
H1985 C1963 0.950 . S
C1986 C1987 1.349 . S
C1986 C1988 1.327 . S
C1986 H2011 0.950 . S
C1987 C1986 1.349 . S
C1987 C2003 1.349 . S
C1988 C1986 1.327 . S
C1988 C2007 1.429 . S
C1988 H2012 0.950 . S
C1989 C2006 1.574 . S
C1989 C2008 1.368 . S
C1989 H2013 0.949 . S
H1990 C1994 0.949 . S
C1991 C1992 1.349 . S
C1991 C1993 1.327 . S
C1991 H2014 0.950 . S
C1992 C1991 1.349 . S
C1992 C2004 1.349 . S
C1993 C1991 1.327 . S
C1993 C2009 1.429 . S
C1993 H2015 0.950 . S
C1994 H1990 0.949 . S
C1994 C2002 1.574 1_455 S
C1994 C2010 1.368 . S
H1995 C2003 0.950 . S
H1996 C2001 0.950 . S
H1997 C2002 0.949 . S
H1998 C2004 0.950 . S
H1999 C2005 0.950 . S
H2000 C2006 0.945 1_455 S
C2001 H1996 0.950 . S
C2001 C2003 1.327 . S
C2001 C2007 1.429 . S
C2002 C1994 1.574 1_655 S
C2002 H1997 0.949 . S
C2002 C2008 1.368 . S
C2003 C1987 1.349 . S
C2003 H1995 0.950 . S
C2003 C2001 1.327 . S
C2004 C1992 1.349 . S
C2004 H1998 0.950 . S
C2004 C2005 1.327 . S
C2005 H1999 0.950 . S
C2005 C2004 1.327 . S
C2005 C2009 1.429 . S
C2006 C1989 1.574 . S
C2006 H2000 0.945 1_655 S
C2006 C2010 1.368 1_655 S
C2007 C1988 1.429 . S
C2007 C2001 1.429 . S
C2007 C2008 1.523 . S
C2008 C1989 1.368 . S
C2008 C2002 1.368 . S
C2008 C2007 1.523 . S
C2009 C1993 1.429 . S
C2009 C2005 1.429 . S
C2009 C2010 1.523 . S
C2010 C1994 1.368 . S
C2010 C2006 1.368 1_455 S
C2010 C2009 1.523 . S
H2011 C1986 0.950 . S
H2012 C1988 0.950 . S
H2013 C1989 0.949 . S
H2014 C1991 0.950 . S
H2015 C1993 0.950 . S
C2016 C2017 1.349 . S
C2016 C2018 1.327 . S
C2016 H2041 0.950 . S
C2017 C2016 1.349 . S
C2017 C2033 1.349 . S
C2018 C2016 1.327 . S
C2018 C2037 1.429 . S
C2018 H2042 0.950 . S
C2019 C2036 1.574 . S
C2019 C2038 1.368 . S
C2019 H2043 0.949 . S
H2020 C2024 0.949 . S
C2021 C2022 1.349 . S
C2021 C2023 1.327 . S
C2021 H2044 0.950 . S
C2022 C2021 1.349 . S
C2022 C2034 1.349 . S
C2023 C2021 1.327 . S
C2023 C2039 1.429 . S
C2023 H2045 0.950 . S
C2024 H2020 0.949 . S
C2024 C2032 1.574 . S
C2024 C2040 1.368 . S
H2025 C2033 0.950 . S
H2026 C2031 0.950 . S
H2027 C2032 0.949 . S
H2028 C2034 0.950 . S
H2029 C2035 0.950 . S
H2030 C2036 0.949 . S
C2031 H2026 0.950 . S
C2031 C2033 1.327 . S
C2031 C2037 1.429 . S
C2032 C2024 1.574 . S
C2032 H2027 0.949 . S
C2032 C2038 1.368 . S
C2033 C2017 1.349 . S
C2033 H2025 0.950 . S
C2033 C2031 1.327 . S
C2034 C2022 1.349 . S
C2034 H2028 0.950 . S
C2034 C2035 1.327 . S
C2035 H2029 0.950 . S
C2035 C2034 1.327 . S
C2035 C2039 1.429 . S
C2036 C2019 1.574 . S
C2036 H2030 0.949 . S
C2036 C2040 1.368 . S
C2037 C2018 1.429 . S
C2037 C2031 1.429 . S
C2037 C2038 1.523 . S
C2038 C2019 1.368 . S
C2038 C2032 1.368 . S
C2038 C2037 1.523 . S
C2039 C2023 1.429 . S
C2039 C2035 1.429 . S
C2039 C2040 1.523 . S
C2040 C2024 1.368 . S
C2040 C2036 1.368 . S
C2040 C2039 1.523 . S
H2041 C2016 0.950 . S
H2042 C2018 0.950 . S
H2043 C2019 0.949 . S
H2044 C2021 0.950 . S
H2045 C2023 0.950 . S
C2046 C2047 1.349 . S
C2046 C2048 1.327 . S
C2046 H2071 0.950 . S
C2047 C2046 1.349 . S
C2047 C2063 1.349 . S
C2048 C2046 1.327 . S
C2048 C2067 1.429 . S
C2048 H2072 0.950 . S
C2049 C2066 1.574 . S
C2049 C2068 1.368 . S
C2049 H2073 0.949 . S
H2050 C2054 0.949 . S
C2051 C2052 1.349 . S
C2051 C2053 1.327 . S
C2051 H2074 0.950 . S
C2052 C2051 1.349 . S
C2052 C2064 1.349 . S
C2053 C2051 1.327 . S
C2053 C2069 1.429 . S
C2053 H2075 0.950 . S
C2054 H2050 0.949 . S
C2054 C2062 1.574 . S
C2054 C2070 1.368 . S
H2055 C2063 0.950 . S
H2056 C2061 0.950 . S
H2057 C2062 0.949 . S
H2058 C2064 0.950 . S
H2059 C2065 0.950 . S
H2060 C2066 0.949 . S
C2061 H2056 0.950 . S
C2061 C2063 1.327 . S
C2061 C2067 1.429 . S
C2062 C2054 1.574 . S
C2062 H2057 0.949 . S
C2062 C2068 1.368 . S
C2063 C2047 1.349 . S
C2063 H2055 0.950 . S
C2063 C2061 1.327 . S
C2064 C2052 1.349 . S
C2064 H2058 0.950 . S
C2064 C2065 1.327 . S
C2065 H2059 0.950 . S
C2065 C2064 1.327 . S
C2065 C2069 1.429 . S
C2066 C2049 1.574 . S
C2066 H2060 0.949 . S
C2066 C2070 1.368 . S
C2067 C2048 1.429 . S
C2067 C2061 1.429 . S
C2067 C2068 1.523 . S
C2068 C2049 1.368 . S
C2068 C2062 1.368 . S
C2068 C2067 1.523 . S
C2069 C2053 1.429 . S
C2069 C2065 1.429 . S
C2069 C2070 1.523 . S
C2070 C2054 1.368 . S
C2070 C2066 1.368 . S
C2070 C2069 1.523 . S
H2071 C2046 0.950 . S
H2072 C2048 0.950 . S
H2073 C2049 0.949 . S
H2074 C2051 0.950 . S
H2075 C2053 0.950 . S
C2076 C2077 1.349 . S
C2076 C2078 1.327 . S
C2076 H2101 0.950 . S
C2077 C2076 1.349 . S
C2077 C2093 1.349 . S
C2078 C2076 1.327 . S
C2078 C2097 1.429 . S
C2078 H2102 0.950 . S
C2079 C2096 1.574 . S
C2079 C2098 1.368 . S
C2079 H2103 0.949 . S
H2080 C2084 0.949 . S
C2081 C2082 1.349 . S
C2081 C2083 1.327 . S
C2081 H2104 0.950 . S
C2082 C2081 1.349 . S
C2082 C2094 1.349 . S
C2083 C2081 1.327 . S
C2083 C2099 1.429 . S
C2083 H2105 0.950 . S
C2084 H2080 0.949 . S
C2084 C2092 1.574 . S
C2084 C2100 1.368 . S
H2085 C2093 0.950 . S
H2086 C2091 0.950 . S
H2087 C2092 0.949 . S
H2088 C2094 0.950 . S
H2089 C2095 0.950 . S
H2090 C2096 0.949 . S
C2091 H2086 0.950 . S
C2091 C2093 1.327 . S
C2091 C2097 1.429 . S
C2092 C2084 1.574 . S
C2092 H2087 0.949 . S
C2092 C2098 1.368 . S
C2093 C2077 1.349 . S
C2093 H2085 0.950 . S
C2093 C2091 1.327 . S
C2094 C2082 1.349 . S
C2094 H2088 0.950 . S
C2094 C2095 1.327 . S
C2095 H2089 0.950 . S
C2095 C2094 1.327 . S
C2095 C2099 1.429 . S
C2096 C2079 1.574 . S
C2096 H2090 0.949 . S
C2096 C2100 1.368 . S
C2097 C2078 1.429 . S
C2097 C2091 1.429 . S
C2097 C2098 1.523 . S
C2098 C2079 1.368 . S
C2098 C2092 1.368 . S
C2098 C2097 1.523 . S
C2099 C2083 1.429 . S
C2099 C2095 1.429 . S
C2099 C2100 1.523 . S
C2100 C2084 1.368 . S
C2100 C2096 1.368 . S
C2100 C2099 1.523 . S
H2101 C2076 0.950 . S
H2102 C2078 0.950 . S
H2103 C2079 0.949 . S
H2104 C2081 0.950 . S
H2105 C2083 0.950 . S
C2106 C2107 1.349 . S
C2106 C2108 1.327 . S
C2106 H2131 0.950 . S
C2107 C2106 1.349 . S
C2107 C2123 1.349 . S
C2108 C2106 1.327 . S
C2108 C2127 1.429 . S
C2108 H2132 0.950 . S
C2109 C2126 1.574 1_655 S
C2109 C2128 1.368 . S
C2109 H2133 0.949 . S
H2110 C2114 0.945 1_455 S
C2111 C2112 1.349 . S
C2111 C2113 1.327 . S
C2111 H2134 0.950 . S
C2112 C2111 1.349 . S
C2112 C2124 1.349 . S
C2113 C2111 1.327 . S
C2113 C2129 1.429 . S
C2113 H2135 0.950 . S
C2114 H2110 0.945 1_655 S
C2114 C2122 1.603 . S
C2114 C2130 1.345 1_655 S
H2115 C2123 0.950 . S
H2116 C2121 0.950 . S
H2117 C2122 0.949 . S
H2118 C2124 0.950 . S
H2119 C2125 0.950 . S
H2120 C2126 0.949 . S
C2121 H2116 0.950 . S
C2121 C2123 1.327 . S
C2121 C2127 1.429 . S
C2122 C2114 1.603 . S
C2122 H2117 0.949 . S
C2122 C2128 1.368 . S
C2123 C2107 1.349 . S
C2123 H2115 0.950 . S
C2123 C2121 1.327 . S
C2124 C2112 1.349 . S
C2124 H2118 0.950 . S
C2124 C2125 1.327 . S
C2125 H2119 0.950 . S
C2125 C2124 1.327 . S
C2125 C2129 1.429 . S
C2126 C2109 1.574 1_455 S
C2126 H2120 0.949 . S
C2126 C2130 1.368 . S
C2127 C2108 1.429 . S
C2127 C2121 1.429 . S
C2127 C2128 1.523 . S
C2128 C2109 1.368 . S
C2128 C2122 1.368 . S
C2128 C2127 1.523 . S
C2129 C2113 1.429 . S
C2129 C2125 1.429 . S
C2129 C2130 1.523 . S
C2130 C2114 1.345 1_455 S
C2130 C2126 1.368 . S
C2130 C2129 1.523 . S
H2131 C2106 0.950 . S
H2132 C2108 0.950 . S
H2133 C2109 0.949 . S
H2134 C2111 0.950 . S
H2135 C2113 0.950 . S
C2136 C2137 1.349 . S
C2136 C2138 1.327 . S
C2136 H2161 0.950 . S
C2137 C2136 1.349 . S
C2137 C2153 1.349 . S
C2138 C2136 1.327 . S
C2138 C2157 1.429 . S
C2138 H2162 0.950 . S
C2139 C2156 1.574 . S
C2139 C2158 1.368 . S
C2139 H2163 0.949 . S
H2140 C2144 0.949 . S
C2141 C2142 1.349 . S
C2141 C2143 1.327 . S
C2141 H2164 0.950 . S
C2142 C2141 1.349 . S
C2142 C2154 1.349 . S
C2143 C2141 1.327 . S
C2143 C2159 1.429 . S
C2143 H2165 0.950 . S
C2144 H2140 0.949 . S
C2144 C2152 1.574 . S
C2144 C2160 1.368 . S
H2145 C2153 0.950 . S
H2146 C2151 0.950 . S
H2147 C2152 0.949 . S
H2148 C2154 0.950 . S
H2149 C2155 0.950 . S
H2150 C2156 0.949 . S
C2151 H2146 0.950 . S
C2151 C2153 1.327 . S
C2151 C2157 1.429 . S
C2152 C2144 1.574 . S
C2152 H2147 0.949 . S
C2152 C2158 1.368 . S
C2153 C2137 1.349 . S
C2153 H2145 0.950 . S
C2153 C2151 1.327 . S
C2154 C2142 1.349 . S
C2154 H2148 0.950 . S
C2154 C2155 1.327 . S
C2155 H2149 0.950 . S
C2155 C2154 1.327 . S
C2155 C2159 1.429 . S
C2156 C2139 1.574 . S
C2156 H2150 0.949 . S
C2156 C2160 1.368 . S
C2157 C2138 1.429 . S
C2157 C2151 1.429 . S
C2157 C2158 1.523 . S
C2158 C2139 1.368 . S
C2158 C2152 1.368 . S
C2158 C2157 1.523 . S
C2159 C2143 1.429 . S
C2159 C2155 1.429 . S
C2159 C2160 1.523 . S
C2160 C2144 1.368 . S
C2160 C2156 1.368 . S
C2160 C2159 1.523 . S
H2161 C2136 0.950 . S
H2162 C2138 0.950 . S
H2163 C2139 0.949 . S
H2164 C2141 0.950 . S
H2165 C2143 0.950 . S
C2166 C2167 1.349 . S
C2166 C2168 1.327 . S
C2166 H2191 0.950 . S
C2167 C2166 1.349 . S
C2167 C2183 1.349 . S
C2168 C2166 1.327 . S
C2168 C2187 1.429 . S
C2168 H2192 0.950 . S
C2169 C2186 1.602 . S
C2169 C2188 1.368 . S
C2169 H2193 0.949 . S
H2170 C2174 0.949 . S
C2171 C2172 1.349 . S
C2171 C2173 1.327 . S
C2171 H2194 0.950 . S
C2172 C2171 1.349 . S
C2172 C2184 1.349 . S
C2173 C2171 1.327 . S
C2173 C2189 1.429 . S
C2173 H2195 0.950 . S
C2174 H2170 0.949 . S
C2174 C2182 1.574 1_455 S
C2174 C2190 1.368 . S
H2175 C2183 0.950 . S
H2176 C2181 0.950 . S
H2177 C2182 0.949 . S
H2178 C2184 0.950 . S
H2179 C2185 0.950 . S
H2180 C2186 0.945 1_455 S
C2181 H2176 0.950 . S
C2181 C2183 1.327 . S
C2181 C2187 1.429 . S
C2182 C2174 1.574 1_655 S
C2182 H2177 0.949 . S
C2182 C2188 1.368 . S
C2183 C2167 1.349 . S
C2183 H2175 0.950 . S
C2183 C2181 1.327 . S
C2184 C2172 1.349 . S
C2184 H2178 0.950 . S
C2184 C2185 1.327 . S
C2185 H2179 0.950 . S
C2185 C2184 1.327 . S
C2185 C2189 1.429 . S
C2186 C2169 1.602 . S
C2186 H2180 0.945 1_655 S
C2186 C2190 1.345 1_655 S
C2187 C2168 1.429 . S
C2187 C2181 1.429 . S
C2187 C2188 1.523 . S
C2188 C2169 1.368 . S
C2188 C2182 1.368 . S
C2188 C2187 1.523 . S
C2189 C2173 1.429 . S
C2189 C2185 1.429 . S
C2189 C2190 1.523 . S
C2190 C2174 1.368 . S
C2190 C2186 1.345 1_455 S
C2190 C2189 1.523 . S
H2191 C2166 0.950 . S
H2192 C2168 0.950 . S
H2193 C2169 0.949 . S
H2194 C2171 0.950 . S
H2195 C2173 0.950 . S
C2196 C2197 1.349 . S
C2196 C2198 1.327 . S
C2196 H2221 0.950 . S
C2197 C2196 1.349 . S
C2197 C2213 1.349 . S
C2198 C2196 1.327 . S
C2198 C2217 1.429 . S
C2198 H2222 0.950 . S
C2199 C2216 1.574 . S
C2199 C2218 1.368 . S
C2199 H2223 0.949 . S
H2200 C2204 0.949 . S
C2201 C2202 1.349 . S
C2201 C2203 1.327 . S
C2201 H2224 0.950 . S
C2202 C2201 1.349 . S
C2202 C2214 1.349 . S
C2203 C2201 1.327 . S
C2203 C2219 1.429 . S
C2203 H2225 0.950 . S
C2204 H2200 0.949 . S
C2204 C2212 1.574 . S
C2204 C2220 1.368 . S
H2205 C2213 0.950 . S
H2206 C2211 0.950 . S
H2207 C2212 0.949 . S
H2208 C2214 0.950 . S
H2209 C2215 0.950 . S
H2210 C2216 0.949 . S
C2211 H2206 0.950 . S
C2211 C2213 1.327 . S
C2211 C2217 1.429 . S
C2212 C2204 1.574 . S
C2212 H2207 0.949 . S
C2212 C2218 1.368 . S
C2213 C2197 1.349 . S
C2213 H2205 0.950 . S
C2213 C2211 1.327 . S
C2214 C2202 1.349 . S
C2214 H2208 0.950 . S
C2214 C2215 1.327 . S
C2215 H2209 0.950 . S
C2215 C2214 1.327 . S
C2215 C2219 1.429 . S
C2216 C2199 1.574 . S
C2216 H2210 0.949 . S
C2216 C2220 1.368 . S
C2217 C2198 1.429 . S
C2217 C2211 1.429 . S
C2217 C2218 1.523 . S
C2218 C2199 1.368 . S
C2218 C2212 1.368 . S
C2218 C2217 1.523 . S
C2219 C2203 1.429 . S
C2219 C2215 1.429 . S
C2219 C2220 1.523 . S
C2220 C2204 1.368 . S
C2220 C2216 1.368 . S
C2220 C2219 1.523 . S
H2221 C2196 0.950 . S
H2222 C2198 0.950 . S
H2223 C2199 0.949 . S
H2224 C2201 0.950 . S
H2225 C2203 0.950 . S
C2226 C2227 1.349 . S
C2226 C2228 1.327 . S
C2226 H2251 0.950 . S
C2227 C2226 1.349 . S
C2227 C2243 1.349 . S
C2228 C2226 1.327 . S
C2228 C2247 1.429 . S
C2228 H2252 0.950 . S
C2229 C2246 1.574 . S
C2229 C2248 1.368 . S
C2229 H2253 0.949 . S
H2230 C2234 0.949 . S
C2231 C2232 1.349 . S
C2231 C2233 1.327 . S
C2231 H2254 0.950 . S
C2232 C2231 1.349 . S
C2232 C2244 1.349 . S
C2233 C2231 1.327 . S
C2233 C2249 1.429 . S
C2233 H2255 0.950 . S
C2234 H2230 0.949 . S
C2234 C2242 1.574 . S
C2234 C2250 1.368 . S
H2235 C2243 0.950 . S
H2236 C2241 0.950 . S
H2237 C2242 0.949 . S
H2238 C2244 0.950 . S
H2239 C2245 0.950 . S
H2240 C2246 0.949 . S
C2241 H2236 0.950 . S
C2241 C2243 1.327 . S
C2241 C2247 1.429 . S
C2242 C2234 1.574 . S
C2242 H2237 0.949 . S
C2242 C2248 1.368 . S
C2243 C2227 1.349 . S
C2243 H2235 0.950 . S
C2243 C2241 1.327 . S
C2244 C2232 1.349 . S
C2244 H2238 0.950 . S
C2244 C2245 1.327 . S
C2245 H2239 0.950 . S
C2245 C2244 1.327 . S
C2245 C2249 1.429 . S
C2246 C2229 1.574 . S
C2246 H2240 0.949 . S
C2246 C2250 1.368 . S
C2247 C2228 1.429 . S
C2247 C2241 1.429 . S
C2247 C2248 1.523 . S
C2248 C2229 1.368 . S
C2248 C2242 1.368 . S
C2248 C2247 1.523 . S
C2249 C2233 1.429 . S
C2249 C2245 1.429 . S
C2249 C2250 1.523 . S
C2250 C2234 1.368 . S
C2250 C2246 1.368 . S
C2250 C2249 1.523 . S
H2251 C2226 0.950 . S
H2252 C2228 0.950 . S
H2253 C2229 0.949 . S
H2254 C2231 0.950 . S
H2255 C2233 0.950 . S
C2256 C2257 1.349 . S
C2256 C2258 1.327 . S
C2256 H2281 0.950 . S
C2257 C2256 1.349 . S
C2257 C2273 1.349 . S
C2258 C2256 1.327 . S
C2258 C2277 1.429 . S
C2258 H2282 0.950 . S
C2259 C2276 1.574 . S
C2259 C2278 1.368 . S
C2259 H2283 0.949 . S
H2260 C2264 0.949 . S
C2261 C2262 1.349 . S
C2261 C2263 1.327 . S
C2261 H2284 0.950 . S
C2262 C2261 1.349 . S
C2262 C2274 1.349 . S
C2263 C2261 1.327 . S
C2263 C2279 1.429 . S
C2263 H2285 0.950 . S
C2264 H2260 0.949 . S
C2264 C2272 1.574 . S
C2264 C2280 1.368 . S
H2265 C2273 0.950 . S
H2266 C2271 0.950 . S
H2267 C2272 0.949 . S
H2268 C2274 0.950 . S
H2269 C2275 0.950 . S
H2270 C2276 0.949 . S
C2271 H2266 0.950 . S
C2271 C2273 1.327 . S
C2271 C2277 1.429 . S
C2272 C2264 1.574 . S
C2272 H2267 0.949 . S
C2272 C2278 1.368 . S
C2273 C2257 1.349 . S
C2273 H2265 0.950 . S
C2273 C2271 1.327 . S
C2274 C2262 1.349 . S
C2274 H2268 0.950 . S
C2274 C2275 1.327 . S
C2275 H2269 0.950 . S
C2275 C2274 1.327 . S
C2275 C2279 1.429 . S
C2276 C2259 1.574 . S
C2276 H2270 0.949 . S
C2276 C2280 1.368 . S
C2277 C2258 1.429 . S
C2277 C2271 1.429 . S
C2277 C2278 1.523 . S
C2278 C2259 1.368 . S
C2278 C2272 1.368 . S
C2278 C2277 1.523 . S
C2279 C2263 1.429 . S
C2279 C2275 1.429 . S
C2279 C2280 1.523 . S
C2280 C2264 1.368 . S
C2280 C2276 1.368 . S
C2280 C2279 1.523 . S
H2281 C2256 0.950 . S
H2282 C2258 0.950 . S
H2283 C2259 0.949 . S
H2284 C2261 0.950 . S
H2285 C2263 0.950 . S
C2286 C2287 1.349 . S
C2286 C2288 1.327 . S
C2286 H2311 0.950 . S
C2287 C2286 1.349 . S
C2287 C2303 1.349 . S
C2288 C2286 1.327 . S
C2288 C2307 1.429 . S
C2288 H2312 0.950 . S
C2289 C2306 1.574 . S
C2289 C2308 1.368 . S
C2289 H2313 0.949 . S
H2290 C2294 0.949 . S
C2291 C2292 1.349 . S
C2291 C2293 1.327 . S
C2291 H2314 0.950 . S
C2292 C2291 1.349 . S
C2292 C2304 1.349 . S
C2293 C2291 1.327 . S
C2293 C2309 1.429 . S
C2293 H2315 0.950 . S
C2294 H2290 0.949 . S
C2294 C2302 1.574 . S
C2294 C2310 1.368 . S
H2295 C2303 0.950 . S
H2296 C2301 0.950 . S
H2297 C2302 0.949 . S
H2298 C2304 0.950 . S
H2299 C2305 0.950 . S
H2300 C2306 0.949 . S
C2301 H2296 0.950 . S
C2301 C2303 1.327 . S
C2301 C2307 1.429 . S
C2302 C2294 1.574 . S
C2302 H2297 0.949 . S
C2302 C2308 1.368 . S
C2303 C2287 1.349 . S
C2303 H2295 0.950 . S
C2303 C2301 1.327 . S
C2304 C2292 1.349 . S
C2304 H2298 0.950 . S
C2304 C2305 1.327 . S
C2305 H2299 0.950 . S
C2305 C2304 1.327 . S
C2305 C2309 1.429 . S
C2306 C2289 1.574 . S
C2306 H2300 0.949 . S
C2306 C2310 1.368 . S
C2307 C2288 1.429 . S
C2307 C2301 1.429 . S
C2307 C2308 1.523 . S
C2308 C2289 1.368 . S
C2308 C2302 1.368 . S
C2308 C2307 1.523 . S
C2309 C2293 1.429 . S
C2309 C2305 1.429 . S
C2309 C2310 1.523 . S
C2310 C2294 1.368 . S
C2310 C2306 1.368 . S
C2310 C2309 1.523 . S
H2311 C2286 0.950 . S
H2312 C2288 0.950 . S
H2313 C2289 0.949 . S
H2314 C2291 0.950 . S
H2315 C2293 0.950 . S
C2316 C2317 1.349 . S
C2316 C2318 1.327 . S
C2316 H2341 0.950 . S
C2317 C2316 1.349 . S
C2317 C2333 1.349 . S
C2318 C2316 1.327 . S
C2318 C2337 1.429 . S
C2318 H2342 0.950 . S
C2319 C2336 1.574 . S
C2319 C2338 1.368 . S
C2319 H2343 0.949 . S
H2320 C2324 0.949 . S
C2321 C2322 1.349 . S
C2321 C2323 1.327 . S
C2321 H2344 0.950 . S
C2322 C2321 1.349 . S
C2322 C2334 1.349 . S
C2323 C2321 1.327 . S
C2323 C2339 1.429 . S
C2323 H2345 0.950 . S
C2324 H2320 0.949 . S
C2324 C2332 1.574 . S
C2324 C2340 1.368 . S
H2325 C2333 0.950 . S
H2326 C2331 0.950 . S
H2327 C2332 0.949 . S
H2328 C2334 0.950 . S
H2329 C2335 0.950 . S
H2330 C2336 0.949 . S
C2331 H2326 0.950 . S
C2331 C2333 1.327 . S
C2331 C2337 1.429 . S
C2332 C2324 1.574 . S
C2332 H2327 0.949 . S
C2332 C2338 1.368 . S
C2333 C2317 1.349 . S
C2333 H2325 0.950 . S
C2333 C2331 1.327 . S
C2334 C2322 1.349 . S
C2334 H2328 0.950 . S
C2334 C2335 1.327 . S
C2335 H2329 0.950 . S
C2335 C2334 1.327 . S
C2335 C2339 1.429 . S
C2336 C2319 1.574 . S
C2336 H2330 0.949 . S
C2336 C2340 1.368 . S
C2337 C2318 1.429 . S
C2337 C2331 1.429 . S
C2337 C2338 1.523 . S
C2338 C2319 1.368 . S
C2338 C2332 1.368 . S
C2338 C2337 1.523 . S
C2339 C2323 1.429 . S
C2339 C2335 1.429 . S
C2339 C2340 1.523 . S
C2340 C2324 1.368 . S
C2340 C2336 1.368 . S
C2340 C2339 1.523 . S
H2341 C2316 0.950 . S
H2342 C2318 0.950 . S
H2343 C2319 0.949 . S
H2344 C2321 0.950 . S
H2345 C2323 0.950 . S
C2346 C2347 1.349 . S
C2346 C2348 1.327 . S
C2346 H2371 0.950 . S
C2347 C2346 1.349 . S
C2347 C2363 1.349 . S
C2348 C2346 1.327 . S
C2348 C2367 1.429 . S
C2348 H2372 0.950 . S
C2349 C2366 1.574 1_455 S
C2349 C2368 1.368 . S
C2349 H2373 0.949 . S
H2350 C2354 0.948 1_655 S
C2351 C2352 1.349 . S
C2351 C2353 1.327 . S
C2351 H2374 0.950 . S
C2352 C2351 1.349 . S
C2352 C2364 1.349 . S
C2353 C2351 1.327 . S
C2353 C2369 1.429 . S
C2353 H2375 0.950 . S
C2354 H2350 0.948 1_455 S
C2354 C2362 1.574 . S
C2354 C2370 1.368 1_455 S
H2355 C2363 0.950 . S
H2356 C2361 0.950 . S
H2357 C2362 0.949 . S
H2358 C2364 0.950 . S
H2359 C2365 0.950 . S
H2360 C2366 0.949 . S
C2361 H2356 0.950 . S
C2361 C2363 1.327 . S
C2361 C2367 1.429 . S
C2362 C2354 1.574 . S
C2362 H2357 0.949 . S
C2362 C2368 1.368 . S
C2363 C2347 1.349 . S
C2363 H2355 0.950 . S
C2363 C2361 1.327 . S
C2364 C2352 1.349 . S
C2364 H2358 0.950 . S
C2364 C2365 1.327 . S
C2365 H2359 0.950 . S
C2365 C2364 1.327 . S
C2365 C2369 1.429 . S
C2366 C2349 1.574 1_655 S
C2366 H2360 0.949 . S
C2366 C2370 1.368 . S
C2367 C2348 1.429 . S
C2367 C2361 1.429 . S
C2367 C2368 1.523 . S
C2368 C2349 1.368 . S
C2368 C2362 1.368 . S
C2368 C2367 1.523 . S
C2369 C2353 1.429 . S
C2369 C2365 1.429 . S
C2369 C2370 1.523 . S
C2370 C2354 1.368 1_655 S
C2370 C2366 1.368 . S
C2370 C2369 1.523 . S
H2371 C2346 0.950 . S
H2372 C2348 0.950 . S
H2373 C2349 0.949 . S
H2374 C2351 0.950 . S
H2375 C2353 0.950 . S
C2376 C2377 1.349 . S
C2376 C2378 1.327 . S
C2376 H2401 0.950 . S
C2377 C2376 1.349 . S
C2377 C2393 1.349 . S
C2378 C2376 1.327 . S
C2378 C2397 1.429 . S
C2378 H2402 0.950 . S
C2379 C2396 1.574 . S
C2379 C2398 1.368 . S
C2379 H2403 0.949 . S
H2380 C2384 0.949 . S
C2381 C2382 1.349 . S
C2381 C2383 1.327 . S
C2381 H2404 0.950 . S
C2382 C2381 1.349 . S
C2382 C2394 1.349 . S
C2383 C2381 1.327 . S
C2383 C2399 1.429 . S
C2383 H2405 0.950 . S
C2384 H2380 0.949 . S
C2384 C2392 1.574 . S
C2384 C2400 1.368 . S
H2385 C2393 0.950 . S
H2386 C2391 0.950 . S
H2387 C2392 0.949 . S
H2388 C2394 0.950 . S
H2389 C2395 0.950 . S
H2390 C2396 0.949 . S
C2391 H2386 0.950 . S
C2391 C2393 1.327 . S
C2391 C2397 1.429 . S
C2392 C2384 1.574 . S
C2392 H2387 0.949 . S
C2392 C2398 1.368 . S
C2393 C2377 1.349 . S
C2393 H2385 0.950 . S
C2393 C2391 1.327 . S
C2394 C2382 1.349 . S
C2394 H2388 0.950 . S
C2394 C2395 1.327 . S
C2395 H2389 0.950 . S
C2395 C2394 1.327 . S
C2395 C2399 1.429 . S
C2396 C2379 1.574 . S
C2396 H2390 0.949 . S
C2396 C2400 1.368 . S
C2397 C2378 1.429 . S
C2397 C2391 1.429 . S
C2397 C2398 1.523 . S
C2398 C2379 1.368 . S
C2398 C2392 1.368 . S
C2398 C2397 1.523 . S
C2399 C2383 1.429 . S
C2399 C2395 1.429 . S
C2399 C2400 1.523 . S
C2400 C2384 1.368 . S
C2400 C2396 1.368 . S
C2400 C2399 1.523 . S
H2401 C2376 0.950 . S
H2402 C2378 0.950 . S
H2403 C2379 0.949 . S
H2404 C2381 0.950 . S
H2405 C2383 0.950 . S
C2406 C2407 1.349 . S
C2406 C2408 1.327 . S
C2406 H2431 0.950 . S
C2407 C2406 1.349 . S
C2407 C2423 1.349 . S
C2408 C2406 1.327 . S
C2408 C2427 1.429 . S
C2408 H2432 0.950 . S
C2409 C2426 1.574 1_655 S
C2409 C2428 1.368 . S
C2409 H2433 0.949 . S
H2410 C2414 0.949 . S
C2411 C2412 1.349 . S
C2411 C2413 1.327 . S
C2411 H2434 0.950 . S
C2412 C2411 1.349 . S
C2412 C2424 1.349 . S
C2413 C2411 1.327 . S
C2413 C2429 1.429 . S
C2413 H2435 0.950 . S
C2414 H2410 0.949 . S
C2414 C2422 1.574 . S
C2414 C2430 1.368 . S
H2415 C2423 0.950 . S
H2416 C2421 0.950 . S
H2417 C2422 0.950 . S
H2418 C2424 0.950 . S
H2419 C2425 0.950 . S
H2420 C2426 0.949 . S
C2421 H2416 0.950 . S
C2421 C2423 1.327 . S
C2421 C2427 1.429 . S
C2422 C2414 1.574 . S
C2422 H2417 0.950 . S
C2422 C2428 1.368 1_455 S
C2423 C2407 1.349 . S
C2423 H2415 0.950 . S
C2423 C2421 1.327 . S
C2424 C2412 1.349 . S
C2424 H2418 0.950 . S
C2424 C2425 1.327 . S
C2425 H2419 0.950 . S
C2425 C2424 1.327 . S
C2425 C2429 1.429 . S
C2426 C2409 1.574 1_455 S
C2426 H2420 0.949 . S
C2426 C2430 1.368 . S
C2427 C2408 1.429 . S
C2427 C2421 1.429 . S
C2427 C2428 1.523 . S
C2428 C2409 1.368 . S
C2428 C2422 1.368 1_655 S
C2428 C2427 1.523 . S
C2429 C2413 1.429 . S
C2429 C2425 1.429 . S
C2429 C2430 1.523 . S
C2430 C2414 1.368 . S
C2430 C2426 1.368 . S
C2430 C2429 1.523 . S
H2431 C2406 0.950 . S
H2432 C2408 0.950 . S
H2433 C2409 0.949 . S
H2434 C2411 0.950 . S
H2435 C2413 0.950 . S
C2436 C2437 1.349 . S
C2436 C2438 1.327 . S
C2436 H2461 0.950 . S
C2437 C2436 1.349 . S
C2437 C2453 1.349 . S
C2438 C2436 1.327 . S
C2438 C2457 1.429 . S
C2438 H2462 0.950 . S
C2439 C2456 1.574 . S
C2439 C2458 1.368 . S
C2439 H2463 0.949 . S
H2440 C2444 0.949 . S
C2441 C2442 1.349 . S
C2441 C2443 1.327 . S
C2441 H2464 0.950 . S
C2442 C2441 1.349 . S
C2442 C2454 1.349 . S
C2443 C2441 1.327 . S
C2443 C2459 1.429 . S
C2443 H2465 0.950 . S
C2444 H2440 0.949 . S
C2444 C2452 1.574 . S
C2444 C2460 1.368 . S
H2445 C2453 0.950 . S
H2446 C2451 0.950 . S
H2447 C2452 0.949 . S
H2448 C2454 0.950 . S
H2449 C2455 0.950 . S
H2450 C2456 0.949 . S
C2451 H2446 0.950 . S
C2451 C2453 1.327 . S
C2451 C2457 1.429 . S
C2452 C2444 1.574 . S
C2452 H2447 0.949 . S
C2452 C2458 1.368 . S
C2453 C2437 1.349 . S
C2453 H2445 0.950 . S
C2453 C2451 1.327 . S
C2454 C2442 1.349 . S
C2454 H2448 0.950 . S
C2454 C2455 1.327 . S
C2455 H2449 0.950 . S
C2455 C2454 1.327 . S
C2455 C2459 1.429 . S
C2456 C2439 1.574 . S
C2456 H2450 0.949 . S
C2456 C2460 1.368 . S
C2457 C2438 1.429 . S
C2457 C2451 1.429 . S
C2457 C2458 1.523 . S
C2458 C2439 1.368 . S
C2458 C2452 1.368 . S
C2458 C2457 1.523 . S
C2459 C2443 1.429 . S
C2459 C2455 1.429 . S
C2459 C2460 1.523 . S
C2460 C2444 1.368 . S
C2460 C2456 1.368 . S
C2460 C2459 1.523 . S
H2461 C2436 0.950 . S
H2462 C2438 0.950 . S
H2463 C2439 0.949 . S
H2464 C2441 0.950 . S
H2465 C2443 0.950 . S
C2466 C2467 1.349 . S
C2466 C2468 1.327 . S
C2466 H2491 0.950 . S
C2467 C2466 1.349 . S
C2467 C2483 1.349 . S
C2468 C2466 1.327 . S
C2468 C2487 1.429 . S
C2468 H2492 0.950 . S
C2469 C2486 1.574 . S
C2469 C2488 1.368 . S
C2469 H2493 0.949 . S
H2470 C2474 0.949 . S
C2471 C2472 1.349 . S
C2471 C2473 1.327 . S
C2471 H2494 0.950 . S
C2472 C2471 1.349 . S
C2472 C2484 1.349 . S
C2473 C2471 1.327 . S
C2473 C2489 1.429 . S
C2473 H2495 0.950 . S
C2474 H2470 0.949 . S
C2474 C2482 1.574 . S
C2474 C2490 1.368 . S
H2475 C2483 0.950 . S
H2476 C2481 0.950 . S
H2477 C2482 0.949 . S
H2478 C2484 0.950 . S
H2479 C2485 0.950 . S
H2480 C2486 0.949 . S
C2481 H2476 0.950 . S
C2481 C2483 1.327 . S
C2481 C2487 1.429 . S
C2482 C2474 1.574 . S
C2482 H2477 0.949 . S
C2482 C2488 1.368 . S
C2483 C2467 1.349 . S
C2483 H2475 0.950 . S
C2483 C2481 1.327 . S
C2484 C2472 1.349 . S
C2484 H2478 0.950 . S
C2484 C2485 1.327 . S
C2485 H2479 0.950 . S
C2485 C2484 1.327 . S
C2485 C2489 1.429 . S
C2486 C2469 1.574 . S
C2486 H2480 0.949 . S
C2486 C2490 1.368 . S
C2487 C2468 1.429 . S
C2487 C2481 1.429 . S
C2487 C2488 1.523 . S
C2488 C2469 1.368 . S
C2488 C2482 1.368 . S
C2488 C2487 1.523 . S
C2489 C2473 1.429 . S
C2489 C2485 1.429 . S
C2489 C2490 1.523 . S
C2490 C2474 1.368 . S
C2490 C2486 1.368 . S
C2490 C2489 1.523 . S
H2491 C2466 0.950 . S
H2492 C2468 0.950 . S
H2493 C2469 0.949 . S
H2494 C2471 0.950 . S
H2495 C2473 0.950 . S
C2496 C2497 1.349 . S
C2496 C2498 1.327 . S
C2496 H2521 0.950 . S
C2497 C2496 1.349 . S
C2497 C2513 1.349 . S
C2498 C2496 1.327 . S
C2498 C2517 1.429 . S
C2498 H2522 0.950 . S
C2499 C2516 1.574 . S
C2499 C2518 1.368 . S
C2499 H2523 0.949 . S
H2500 C2504 0.949 . S
C2501 C2502 1.349 . S
C2501 C2503 1.327 . S
C2501 H2524 0.950 . S
C2502 C2501 1.349 . S
C2502 C2514 1.349 . S
C2503 C2501 1.327 . S
C2503 C2519 1.429 . S
C2503 H2525 0.950 . S
C2504 H2500 0.949 . S
C2504 C2512 1.574 . S
C2504 C2520 1.368 . S
H2505 C2513 0.950 . S
H2506 C2511 0.950 . S
H2507 C2512 0.949 . S
H2508 C2514 0.950 . S
H2509 C2515 0.950 . S
H2510 C2516 0.949 . S
C2511 H2506 0.950 . S
C2511 C2513 1.327 . S
C2511 C2517 1.429 . S
C2512 C2504 1.574 . S
C2512 H2507 0.949 . S
C2512 C2518 1.368 . S
C2513 C2497 1.349 . S
C2513 H2505 0.950 . S
C2513 C2511 1.327 . S
C2514 C2502 1.349 . S
C2514 H2508 0.950 . S
C2514 C2515 1.327 . S
C2515 H2509 0.950 . S
C2515 C2514 1.327 . S
C2515 C2519 1.429 . S
C2516 C2499 1.574 . S
C2516 H2510 0.949 . S
C2516 C2520 1.368 . S
C2517 C2498 1.429 . S
C2517 C2511 1.429 . S
C2517 C2518 1.523 . S
C2518 C2499 1.368 . S
C2518 C2512 1.368 . S
C2518 C2517 1.523 . S
C2519 C2503 1.429 . S
C2519 C2515 1.429 . S
C2519 C2520 1.523 . S
C2520 C2504 1.368 . S
C2520 C2516 1.368 . S
C2520 C2519 1.523 . S
H2521 C2496 0.950 . S
H2522 C2498 0.950 . S
H2523 C2499 0.949 . S
H2524 C2501 0.950 . S
H2525 C2503 0.950 . S
C2526 C2527 1.349 . S
C2526 C2528 1.327 . S
C2526 H2551 0.950 . S
C2527 C2526 1.349 . S
C2527 C2543 1.349 . S
C2528 C2526 1.327 . S
C2528 C2547 1.429 . S
C2528 H2552 0.950 . S
C2529 C2546 1.574 1_655 S
C2529 C2548 1.368 . S
C2529 H2553 0.949 . S
H2530 C2534 0.949 . S
C2531 C2532 1.349 . S
C2531 C2533 1.327 . S
C2531 H2554 0.950 . S
C2532 C2531 1.349 . S
C2532 C2544 1.349 . S
C2533 C2531 1.327 . S
C2533 C2549 1.429 . S
C2533 H2555 0.950 . S
C2534 H2530 0.949 . S
C2534 C2542 1.574 1_455 S
C2534 C2550 1.368 . S
H2535 C2543 0.950 . S
H2536 C2541 0.950 . S
H2537 C2542 0.949 . S
H2538 C2544 0.950 . S
H2539 C2545 0.950 . S
H2540 C2546 0.949 . S
C2541 H2536 0.950 . S
C2541 C2543 1.327 . S
C2541 C2547 1.429 . S
C2542 C2534 1.574 1_655 S
C2542 H2537 0.949 . S
C2542 C2548 1.368 . S
C2543 C2527 1.349 . S
C2543 H2535 0.950 . S
C2543 C2541 1.327 . S
C2544 C2532 1.349 . S
C2544 H2538 0.950 . S
C2544 C2545 1.327 . S
C2545 H2539 0.950 . S
C2545 C2544 1.327 . S
C2545 C2549 1.429 . S
C2546 C2529 1.574 1_455 S
C2546 H2540 0.949 . S
C2546 C2550 1.368 . S
C2547 C2528 1.429 . S
C2547 C2541 1.429 . S
C2547 C2548 1.523 . S
C2548 C2529 1.368 . S
C2548 C2542 1.368 . S
C2548 C2547 1.523 . S
C2549 C2533 1.429 . S
C2549 C2545 1.429 . S
C2549 C2550 1.523 . S
C2550 C2534 1.368 . S
C2550 C2546 1.368 . S
C2550 C2549 1.523 . S
H2551 C2526 0.950 . S
H2552 C2528 0.950 . S
H2553 C2529 0.949 . S
H2554 C2531 0.950 . S
H2555 C2533 0.950 . S
C2556 C2557 1.349 . S
C2556 C2558 1.327 . S
C2556 H2581 0.950 . S
C2557 C2556 1.349 . S
C2557 C2573 1.349 . S
C2558 C2556 1.327 . S
C2558 C2577 1.429 . S
C2558 H2582 0.950 . S
C2559 C2576 1.565 1_655 S
C2559 C2578 1.376 . S
C2559 H2583 0.949 . S
H2560 C2564 0.949 . S
C2561 C2562 1.349 . S
C2561 C2563 1.327 . S
C2561 H2584 0.950 . S
C2562 C2561 1.349 . S
C2562 C2574 1.349 . S
C2563 C2561 1.327 . S
C2563 C2579 1.429 . S
C2563 H2585 0.950 . S
C2564 H2560 0.949 . S
C2564 C2572 1.565 1_455 S
C2564 C2580 1.377 . S
H2565 C2573 0.950 . S
H2566 C2571 0.950 . S
H2567 C2572 0.949 . S
H2568 C2574 0.950 . S
H2569 C2575 0.950 . S
H2570 C2576 0.949 . S
C2571 H2566 0.950 . S
C2571 C2573 1.327 . S
C2571 C2577 1.429 . S
C2572 C2564 1.565 1_655 S
C2572 H2567 0.949 . S
C2572 C2578 1.368 . S
C2573 C2557 1.349 . S
C2573 H2565 0.950 . S
C2573 C2571 1.327 . S
C2574 C2562 1.349 . S
C2574 H2568 0.950 . S
C2574 C2575 1.327 . S
C2575 H2569 0.950 . S
C2575 C2574 1.327 . S
C2575 C2579 1.429 . S
C2576 C2559 1.565 1_455 S
C2576 H2570 0.949 . S
C2576 C2580 1.368 . S
C2577 C2558 1.429 . S
C2577 C2571 1.429 . S
C2577 C2578 1.523 . S
C2578 C2559 1.376 . S
C2578 C2572 1.368 . S
C2578 C2577 1.523 . S
C2579 C2563 1.429 . S
C2579 C2575 1.429 . S
C2579 C2580 1.523 . S
C2580 C2564 1.377 . S
C2580 C2576 1.368 . S
C2580 C2579 1.523 . S
H2581 C2556 0.950 . S
H2582 C2558 0.950 . S
H2583 C2559 0.949 . S
H2584 C2561 0.950 . S
H2585 C2563 0.950 . S
C2586 C2587 1.349 . S
C2586 C2588 1.327 . S
C2586 H2611 0.950 . S
C2587 C2586 1.349 . S
C2587 C2603 1.349 . S
C2588 C2586 1.327 . S
C2588 C2607 1.429 . S
C2588 H2612 0.950 . S
C2589 C2606 1.574 . S
C2589 C2608 1.368 . S
C2589 H2613 0.949 . S
H2590 C2594 0.949 . S
C2591 C2592 1.349 . S
C2591 C2593 1.327 . S
C2591 H2614 0.950 . S
C2592 C2591 1.349 . S
C2592 C2604 1.349 . S
C2593 C2591 1.327 . S
C2593 C2609 1.429 . S
C2593 H2615 0.950 . S
C2594 H2590 0.949 . S
C2594 C2602 1.574 . S
C2594 C2610 1.368 . S
H2595 C2603 0.950 . S
H2596 C2601 0.950 . S
H2597 C2602 0.949 . S
H2598 C2604 0.950 . S
H2599 C2605 0.950 . S
H2600 C2606 0.949 . S
C2601 H2596 0.950 . S
C2601 C2603 1.327 . S
C2601 C2607 1.429 . S
C2602 C2594 1.574 . S
C2602 H2597 0.949 . S
C2602 C2608 1.368 . S
C2603 C2587 1.349 . S
C2603 H2595 0.950 . S
C2603 C2601 1.327 . S
C2604 C2592 1.349 . S
C2604 H2598 0.950 . S
C2604 C2605 1.327 . S
C2605 H2599 0.950 . S
C2605 C2604 1.327 . S
C2605 C2609 1.429 . S
C2606 C2589 1.574 . S
C2606 H2600 0.949 . S
C2606 C2610 1.368 . S
C2607 C2588 1.429 . S
C2607 C2601 1.429 . S
C2607 C2608 1.523 . S
C2608 C2589 1.368 . S
C2608 C2602 1.368 . S
C2608 C2607 1.523 . S
C2609 C2593 1.429 . S
C2609 C2605 1.429 . S
C2609 C2610 1.523 . S
C2610 C2594 1.368 . S
C2610 C2606 1.368 . S
C2610 C2609 1.523 . S
H2611 C2586 0.950 . S
H2612 C2588 0.950 . S
H2613 C2589 0.949 . S
H2614 C2591 0.950 . S
H2615 C2593 0.950 . S
C2616 C2617 1.349 . S
C2616 C2618 1.327 . S
C2616 H2641 0.950 . S
C2617 C2616 1.349 . S
C2617 C2633 1.349 . S
C2618 C2616 1.327 . S
C2618 C2637 1.429 . S
C2618 H2642 0.950 . S
C2619 C2636 1.574 . S
C2619 C2638 1.368 . S
C2619 H2643 0.949 . S
H2620 C2624 0.949 . S
C2621 C2622 1.349 . S
C2621 C2623 1.327 . S
C2621 H2644 0.950 . S
C2622 C2621 1.349 . S
C2622 C2634 1.349 . S
C2623 C2621 1.327 . S
C2623 C2639 1.429 . S
C2623 H2645 0.950 . S
C2624 H2620 0.949 . S
C2624 C2632 1.574 . S
C2624 C2640 1.368 . S
H2625 C2633 0.950 . S
H2626 C2631 0.950 . S
H2627 C2632 0.949 . S
H2628 C2634 0.950 . S
H2629 C2635 0.950 . S
H2630 C2636 0.949 . S
C2631 H2626 0.950 . S
C2631 C2633 1.327 . S
C2631 C2637 1.429 . S
C2632 C2624 1.574 . S
C2632 H2627 0.949 . S
C2632 C2638 1.368 . S
C2633 C2617 1.349 . S
C2633 H2625 0.950 . S
C2633 C2631 1.327 . S
C2634 C2622 1.349 . S
C2634 H2628 0.950 . S
C2634 C2635 1.327 . S
C2635 H2629 0.950 . S
C2635 C2634 1.327 . S
C2635 C2639 1.429 . S
C2636 C2619 1.574 . S
C2636 H2630 0.949 . S
C2636 C2640 1.368 . S
C2637 C2618 1.429 . S
C2637 C2631 1.429 . S
C2637 C2638 1.523 . S
C2638 C2619 1.368 . S
C2638 C2632 1.368 . S
C2638 C2637 1.523 . S
C2639 C2623 1.429 . S
C2639 C2635 1.429 . S
C2639 C2640 1.523 . S
C2640 C2624 1.368 . S
C2640 C2636 1.368 . S
C2640 C2639 1.523 . S
H2641 C2616 0.950 . S
H2642 C2618 0.950 . S
H2643 C2619 0.949 . S
H2644 C2621 0.950 . S
H2645 C2623 0.950 . S
C2646 C2647 1.349 . S
C2646 C2648 1.327 . S
C2646 H2671 0.950 . S
C2647 C2646 1.349 . S
C2647 C2663 1.349 . S
C2648 C2646 1.327 . S
C2648 C2667 1.429 . S
C2648 H2672 0.950 . S
C2649 C2666 1.574 . S
C2649 C2668 1.368 . S
C2649 H2673 0.949 . S
H2650 C2654 0.949 . S
C2651 C2652 1.349 . S
C2651 C2653 1.327 . S
C2651 H2674 0.950 . S
C2652 C2651 1.349 . S
C2652 C2664 1.349 . S
C2653 C2651 1.327 . S
C2653 C2669 1.429 . S
C2653 H2675 0.950 . S
C2654 H2650 0.949 . S
C2654 C2662 1.574 . S
C2654 C2670 1.368 . S
H2655 C2663 0.950 . S
H2656 C2661 0.950 . S
H2657 C2662 0.949 . S
H2658 C2664 0.950 . S
H2659 C2665 0.950 . S
H2660 C2666 0.949 . S
C2661 H2656 0.950 . S
C2661 C2663 1.327 . S
C2661 C2667 1.429 . S
C2662 C2654 1.574 . S
C2662 H2657 0.949 . S
C2662 C2668 1.368 . S
C2663 C2647 1.349 . S
C2663 H2655 0.950 . S
C2663 C2661 1.327 . S
C2664 C2652 1.349 . S
C2664 H2658 0.950 . S
C2664 C2665 1.327 . S
C2665 H2659 0.950 . S
C2665 C2664 1.327 . S
C2665 C2669 1.429 . S
C2666 C2649 1.574 . S
C2666 H2660 0.949 . S
C2666 C2670 1.368 . S
C2667 C2648 1.429 . S
C2667 C2661 1.429 . S
C2667 C2668 1.523 . S
C2668 C2649 1.368 . S
C2668 C2662 1.368 . S
C2668 C2667 1.523 . S
C2669 C2653 1.429 . S
C2669 C2665 1.429 . S
C2669 C2670 1.523 . S
C2670 C2654 1.368 . S
C2670 C2666 1.368 . S
C2670 C2669 1.523 . S
H2671 C2646 0.950 . S
H2672 C2648 0.950 . S
H2673 C2649 0.949 . S
H2674 C2651 0.950 . S
H2675 C2653 0.950 . S
C2676 C2677 1.349 . S
C2676 C2678 1.327 . S
C2676 H2701 0.950 . S
C2677 C2676 1.349 . S
C2677 C2693 1.349 . S
C2678 C2676 1.327 . S
C2678 C2697 1.429 . S
C2678 H2702 0.950 . S
C2679 C2696 1.565 1_455 S
C2679 C2698 1.377 . S
C2679 H2703 0.949 . S
H2680 C2684 0.949 . S
C2681 C2682 1.349 . S
C2681 C2683 1.327 . S
C2681 H2704 0.950 . S
C2682 C2681 1.349 . S
C2682 C2694 1.349 . S
C2683 C2681 1.327 . S
C2683 C2699 1.429 . S
C2683 H2705 0.950 . S
C2684 H2680 0.949 . S
C2684 C2692 1.565 1_655 S
C2684 C2700 1.376 . S
H2685 C2693 0.950 . S
H2686 C2691 0.950 . S
H2687 C2692 0.949 . S
H2688 C2694 0.950 . S
H2689 C2695 0.950 . S
H2690 C2696 0.949 . S
C2691 H2686 0.950 . S
C2691 C2693 1.327 . S
C2691 C2697 1.429 . S
C2692 C2684 1.565 1_455 S
C2692 H2687 0.949 . S
C2692 C2698 1.368 . S
C2693 C2677 1.349 . S
C2693 H2685 0.950 . S
C2693 C2691 1.327 . S
C2694 C2682 1.349 . S
C2694 H2688 0.950 . S
C2694 C2695 1.327 . S
C2695 H2689 0.950 . S
C2695 C2694 1.327 . S
C2695 C2699 1.429 . S
C2696 C2679 1.565 1_655 S
C2696 H2690 0.949 . S
C2696 C2700 1.368 . S
C2697 C2678 1.429 . S
C2697 C2691 1.429 . S
C2697 C2698 1.523 . S
C2698 C2679 1.377 . S
C2698 C2692 1.368 . S
C2698 C2697 1.523 . S
C2699 C2683 1.429 . S
C2699 C2695 1.429 . S
C2699 C2700 1.523 . S
C2700 C2684 1.376 . S
C2700 C2696 1.368 . S
C2700 C2699 1.523 . S
H2701 C2676 0.950 . S
H2702 C2678 0.950 . S
H2703 C2679 0.949 . S
H2704 C2681 0.950 . S
H2705 C2683 0.950 . S
C2706 C2707 1.349 . S
C2706 C2708 1.327 . S
C2706 H2731 0.950 . S
C2707 C2706 1.349 . S
C2707 C2723 1.349 . S
C2708 C2706 1.327 . S
C2708 C2727 1.429 . S
C2708 H2732 0.950 . S
C2709 C2726 1.574 1_655 S
C2709 C2728 1.368 . S
C2709 H2733 0.949 . S
H2710 C2714 0.949 . S
C2711 C2712 1.349 . S
C2711 C2713 1.327 . S
C2711 H2734 0.950 . S
C2712 C2711 1.349 . S
C2712 C2724 1.349 . S
C2713 C2711 1.327 . S
C2713 C2729 1.429 . S
C2713 H2735 0.950 . S
C2714 H2710 0.949 . S
C2714 C2722 1.574 1_455 S
C2714 C2730 1.368 . S
H2715 C2723 0.950 . S
H2716 C2721 0.950 . S
H2717 C2722 0.949 . S
H2718 C2724 0.950 . S
H2719 C2725 0.950 . S
H2720 C2726 0.949 . S
C2721 H2716 0.950 . S
C2721 C2723 1.327 . S
C2721 C2727 1.429 . S
C2722 C2714 1.574 1_655 S
C2722 H2717 0.949 . S
C2722 C2728 1.368 . S
C2723 C2707 1.349 . S
C2723 H2715 0.950 . S
C2723 C2721 1.327 . S
C2724 C2712 1.349 . S
C2724 H2718 0.950 . S
C2724 C2725 1.327 . S
C2725 H2719 0.950 . S
C2725 C2724 1.327 . S
C2725 C2729 1.429 . S
C2726 C2709 1.574 1_455 S
C2726 H2720 0.949 . S
C2726 C2730 1.368 . S
C2727 C2708 1.429 . S
C2727 C2721 1.429 . S
C2727 C2728 1.523 . S
C2728 C2709 1.368 . S
C2728 C2722 1.368 . S
C2728 C2727 1.523 . S
C2729 C2713 1.429 . S
C2729 C2725 1.429 . S
C2729 C2730 1.523 . S
C2730 C2714 1.368 . S
C2730 C2726 1.368 . S
C2730 C2729 1.523 . S
H2731 C2706 0.950 . S
H2732 C2708 0.950 . S
H2733 C2709 0.949 . S
H2734 C2711 0.950 . S
H2735 C2713 0.950 . S
C2736 C2737 1.349 . S
C2736 C2738 1.327 . S
C2736 H2761 0.950 . S
C2737 C2736 1.349 . S
C2737 C2753 1.349 . S
C2738 C2736 1.327 . S
C2738 C2757 1.429 . S
C2738 H2762 0.950 . S
C2739 C2756 1.574 . S
C2739 C2758 1.368 . S
C2739 H2763 0.949 . S
H2740 C2744 0.949 . S
C2741 C2742 1.349 . S
C2741 C2743 1.327 . S
C2741 H2764 0.950 . S
C2742 C2741 1.349 . S
C2742 C2754 1.349 . S
C2743 C2741 1.327 . S
C2743 C2759 1.429 . S
C2743 H2765 0.950 . S
C2744 H2740 0.949 . S
C2744 C2752 1.574 . S
C2744 C2760 1.368 . S
H2745 C2753 0.950 . S
H2746 C2751 0.950 . S
H2747 C2752 0.949 . S
H2748 C2754 0.950 . S
H2749 C2755 0.950 . S
H2750 C2756 0.949 . S
C2751 H2746 0.950 . S
C2751 C2753 1.327 . S
C2751 C2757 1.429 . S
C2752 C2744 1.574 . S
C2752 H2747 0.949 . S
C2752 C2758 1.368 . S
C2753 C2737 1.349 . S
C2753 H2745 0.950 . S
C2753 C2751 1.327 . S
C2754 C2742 1.349 . S
C2754 H2748 0.950 . S
C2754 C2755 1.327 . S
C2755 H2749 0.950 . S
C2755 C2754 1.327 . S
C2755 C2759 1.429 . S
C2756 C2739 1.574 . S
C2756 H2750 0.949 . S
C2756 C2760 1.368 . S
C2757 C2738 1.429 . S
C2757 C2751 1.429 . S
C2757 C2758 1.523 . S
C2758 C2739 1.368 . S
C2758 C2752 1.368 . S
C2758 C2757 1.523 . S
C2759 C2743 1.429 . S
C2759 C2755 1.429 . S
C2759 C2760 1.523 . S
C2760 C2744 1.368 . S
C2760 C2756 1.368 . S
C2760 C2759 1.523 . S
H2761 C2736 0.950 . S
H2762 C2738 0.950 . S
H2763 C2739 0.949 . S
H2764 C2741 0.950 . S
H2765 C2743 0.950 . S
C2766 C2767 1.349 . S
C2766 C2768 1.327 . S
C2766 H2791 0.950 . S
C2767 C2766 1.349 . S
C2767 C2783 1.349 . S
C2768 C2766 1.327 . S
C2768 C2787 1.429 . S
C2768 H2792 0.950 . S
C2769 C2786 1.574 1_655 S
C2769 C2788 1.368 . S
C2769 H2793 0.949 . S
H2770 C2774 0.949 . S
C2771 C2772 1.349 . S
C2771 C2773 1.327 . S
C2771 H2794 0.950 . S
C2772 C2771 1.349 . S
C2772 C2784 1.349 . S
C2773 C2771 1.327 . S
C2773 C2789 1.429 . S
C2773 H2795 0.950 . S
C2774 H2770 0.949 . S
C2774 C2782 1.574 1_455 S
C2774 C2790 1.368 . S
H2775 C2783 0.950 . S
H2776 C2781 0.950 . S
H2777 C2782 0.949 . S
H2778 C2784 0.950 . S
H2779 C2785 0.950 . S
H2780 C2786 0.949 . S
C2781 H2776 0.950 . S
C2781 C2783 1.327 . S
C2781 C2787 1.429 . S
C2782 C2774 1.574 1_655 S
C2782 H2777 0.949 . S
C2782 C2788 1.368 . S
C2783 C2767 1.349 . S
C2783 H2775 0.950 . S
C2783 C2781 1.327 . S
C2784 C2772 1.349 . S
C2784 H2778 0.950 . S
C2784 C2785 1.327 . S
C2785 H2779 0.950 . S
C2785 C2784 1.327 . S
C2785 C2789 1.429 . S
C2786 C2769 1.574 1_455 S
C2786 H2780 0.949 . S
C2786 C2790 1.368 . S
C2787 C2768 1.429 . S
C2787 C2781 1.429 . S
C2787 C2788 1.523 . S
C2788 C2769 1.368 . S
C2788 C2782 1.368 . S
C2788 C2787 1.523 . S
C2789 C2773 1.429 . S
C2789 C2785 1.429 . S
C2789 C2790 1.523 . S
C2790 C2774 1.368 . S
C2790 C2786 1.368 . S
C2790 C2789 1.523 . S
H2791 C2766 0.950 . S
H2792 C2768 0.950 . S
H2793 C2769 0.949 . S
H2794 C2771 0.950 . S
H2795 C2773 0.950 . S
C2796 C2797 1.349 . S
C2796 C2798 1.327 . S
C2796 H2821 0.950 . S
C2797 C2796 1.349 . S
C2797 C2813 1.349 . S
C2798 C2796 1.327 . S
C2798 C2817 1.429 . S
C2798 H2822 0.950 . S
C2799 C2816 1.565 1_655 S
C2799 C2818 1.368 . S
C2799 H2823 0.949 . S
H2800 C2804 0.949 . S
C2801 C2802 1.349 . S
C2801 C2803 1.327 . S
C2801 H2824 0.950 . S
C2802 C2801 1.349 . S
C2802 C2814 1.349 . S
C2803 C2801 1.327 . S
C2803 C2819 1.429 . S
C2803 H2825 0.950 . S
C2804 H2800 0.949 . S
C2804 C2812 1.565 1_455 S
C2804 C2820 1.368 . S
H2805 C2813 0.950 . S
H2806 C2811 0.950 . S
H2807 C2812 0.949 . S
H2808 C2814 0.950 . S
H2809 C2815 0.950 . S
H2810 C2816 0.949 . S
C2811 H2806 0.950 . S
C2811 C2813 1.327 . S
C2811 C2817 1.429 . S
C2812 C2804 1.565 1_655 S
C2812 H2807 0.949 . S
C2812 C2818 1.377 . S
C2813 C2797 1.349 . S
C2813 H2805 0.950 . S
C2813 C2811 1.327 . S
C2814 C2802 1.349 . S
C2814 H2808 0.950 . S
C2814 C2815 1.327 . S
C2815 H2809 0.950 . S
C2815 C2814 1.327 . S
C2815 C2819 1.429 . S
C2816 C2799 1.565 1_455 S
C2816 H2810 0.949 . S
C2816 C2820 1.376 . S
C2817 C2798 1.429 . S
C2817 C2811 1.429 . S
C2817 C2818 1.523 . S
C2818 C2799 1.368 . S
C2818 C2812 1.377 . S
C2818 C2817 1.523 . S
C2819 C2803 1.429 . S
C2819 C2815 1.429 . S
C2819 C2820 1.523 . S
C2820 C2804 1.368 . S
C2820 C2816 1.376 . S
C2820 C2819 1.523 . S
H2821 C2796 0.950 . S
H2822 C2798 0.950 . S
H2823 C2799 0.949 . S
H2824 C2801 0.950 . S
H2825 C2803 0.950 . S
C2826 C2827 1.349 . S
C2826 C2828 1.327 . S
C2826 H2851 0.950 . S
C2827 C2826 1.349 . S
C2827 C2843 1.349 . S
C2828 C2826 1.327 . S
C2828 C2847 1.429 . S
C2828 H2852 0.950 . S
C2829 C2846 1.574 . S
C2829 C2848 1.368 . S
C2829 H2853 0.949 . S
H2830 C2834 0.949 . S
C2831 C2832 1.349 . S
C2831 C2833 1.327 . S
C2831 H2854 0.950 . S
C2832 C2831 1.349 . S
C2832 C2844 1.349 . S
C2833 C2831 1.327 . S
C2833 C2849 1.429 . S
C2833 H2855 0.950 . S
C2834 H2830 0.949 . S
C2834 C2842 1.574 . S
C2834 C2850 1.368 . S
H2835 C2843 0.950 . S
H2836 C2841 0.950 . S
H2837 C2842 0.949 . S
H2838 C2844 0.950 . S
H2839 C2845 0.950 . S
H2840 C2846 0.949 . S
C2841 H2836 0.950 . S
C2841 C2843 1.327 . S
C2841 C2847 1.429 . S
C2842 C2834 1.574 . S
C2842 H2837 0.949 . S
C2842 C2848 1.368 . S
C2843 C2827 1.349 . S
C2843 H2835 0.950 . S
C2843 C2841 1.327 . S
C2844 C2832 1.349 . S
C2844 H2838 0.950 . S
C2844 C2845 1.327 . S
C2845 H2839 0.950 . S
C2845 C2844 1.327 . S
C2845 C2849 1.429 . S
C2846 C2829 1.574 . S
C2846 H2840 0.949 . S
C2846 C2850 1.368 . S
C2847 C2828 1.429 . S
C2847 C2841 1.429 . S
C2847 C2848 1.523 . S
C2848 C2829 1.368 . S
C2848 C2842 1.368 . S
C2848 C2847 1.523 . S
C2849 C2833 1.429 . S
C2849 C2845 1.429 . S
C2849 C2850 1.523 . S
C2850 C2834 1.368 . S
C2850 C2846 1.368 . S
C2850 C2849 1.523 . S
H2851 C2826 0.950 . S
H2852 C2828 0.950 . S
H2853 C2829 0.949 . S
H2854 C2831 0.950 . S
H2855 C2833 0.950 . S
C2856 C2857 1.349 . S
C2856 C2858 1.327 . S
C2856 H2881 0.950 . S
C2857 C2856 1.349 . S
C2857 C2873 1.349 . S
C2858 C2856 1.327 . S
C2858 C2877 1.429 . S
C2858 H2882 0.950 . S
C2859 C2876 1.574 . S
C2859 C2878 1.368 . S
C2859 H2883 0.949 . S
H2860 C2864 0.949 . S
C2861 C2862 1.349 . S
C2861 C2863 1.327 . S
C2861 H2884 0.950 . S
C2862 C2861 1.349 . S
C2862 C2874 1.349 . S
C2863 C2861 1.327 . S
C2863 C2879 1.429 . S
C2863 H2885 0.950 . S
C2864 H2860 0.949 . S
C2864 C2872 1.574 . S
C2864 C2880 1.368 . S
H2865 C2873 0.950 . S
H2866 C2871 0.950 . S
H2867 C2872 0.949 . S
H2868 C2874 0.950 . S
H2869 C2875 0.950 . S
H2870 C2876 0.949 . S
C2871 H2866 0.950 . S
C2871 C2873 1.327 . S
C2871 C2877 1.429 . S
C2872 C2864 1.574 . S
C2872 H2867 0.949 . S
C2872 C2878 1.368 . S
C2873 C2857 1.349 . S
C2873 H2865 0.950 . S
C2873 C2871 1.327 . S
C2874 C2862 1.349 . S
C2874 H2868 0.950 . S
C2874 C2875 1.327 . S
C2875 H2869 0.950 . S
C2875 C2874 1.327 . S
C2875 C2879 1.429 . S
C2876 C2859 1.574 . S
C2876 H2870 0.949 . S
C2876 C2880 1.368 . S
C2877 C2858 1.429 . S
C2877 C2871 1.429 . S
C2877 C2878 1.523 . S
C2878 C2859 1.368 . S
C2878 C2872 1.368 . S
C2878 C2877 1.523 . S
C2879 C2863 1.429 . S
C2879 C2875 1.429 . S
C2879 C2880 1.523 . S
C2880 C2864 1.368 . S
C2880 C2876 1.368 . S
C2880 C2879 1.523 . S
H2881 C2856 0.950 . S
H2882 C2858 0.950 . S
H2883 C2859 0.949 . S
H2884 C2861 0.950 . S
H2885 C2863 0.950 . S
C2886 C2887 1.349 . S
C2886 C2888 1.327 . S
C2886 H2911 0.950 . S
C2887 C2886 1.349 . S
C2887 C2903 1.349 . S
C2888 C2886 1.327 . S
C2888 C2907 1.429 . S
C2888 H2912 0.950 . S
C2889 C2906 1.574 . S
C2889 C2908 1.368 . S
C2889 H2913 0.949 . S
H2890 C2894 0.949 . S
C2891 C2892 1.349 . S
C2891 C2893 1.327 . S
C2891 H2914 0.950 . S
C2892 C2891 1.349 . S
C2892 C2904 1.349 . S
C2893 C2891 1.327 . S
C2893 C2909 1.429 . S
C2893 H2915 0.950 . S
C2894 H2890 0.949 . S
C2894 C2902 1.574 . S
C2894 C2910 1.368 . S
H2895 C2903 0.950 . S
H2896 C2901 0.950 . S
H2897 C2902 0.949 . S
H2898 C2904 0.950 . S
H2899 C2905 0.950 . S
H2900 C2906 0.949 . S
C2901 H2896 0.950 . S
C2901 C2903 1.327 . S
C2901 C2907 1.429 . S
C2902 C2894 1.574 . S
C2902 H2897 0.949 . S
C2902 C2908 1.368 . S
C2903 C2887 1.349 . S
C2903 H2895 0.950 . S
C2903 C2901 1.327 . S
C2904 C2892 1.349 . S
C2904 H2898 0.950 . S
C2904 C2905 1.327 . S
C2905 H2899 0.950 . S
C2905 C2904 1.327 . S
C2905 C2909 1.429 . S
C2906 C2889 1.574 . S
C2906 H2900 0.949 . S
C2906 C2910 1.368 . S
C2907 C2888 1.429 . S
C2907 C2901 1.429 . S
C2907 C2908 1.523 . S
C2908 C2889 1.368 . S
C2908 C2902 1.368 . S
C2908 C2907 1.523 . S
C2909 C2893 1.429 . S
C2909 C2905 1.429 . S
C2909 C2910 1.523 . S
C2910 C2894 1.368 . S
C2910 C2906 1.368 . S
C2910 C2909 1.523 . S
H2911 C2886 0.950 . S
H2912 C2888 0.950 . S
H2913 C2889 0.949 . S
H2914 C2891 0.950 . S
H2915 C2893 0.950 . S
C2916 C2917 1.349 . S
C2916 C2918 1.327 . S
C2916 H2941 0.950 . S
C2917 C2916 1.349 . S
C2917 C2933 1.349 . S
C2918 C2916 1.327 . S
C2918 C2937 1.429 . S
C2918 H2942 0.950 . S
C2919 C2936 1.565 1_655 S
C2919 C2938 1.377 . S
C2919 H2943 0.949 . S
H2920 C2924 0.949 . S
C2921 C2922 1.349 . S
C2921 C2923 1.327 . S
C2921 H2944 0.950 . S
C2922 C2921 1.349 . S
C2922 C2934 1.349 . S
C2923 C2921 1.327 . S
C2923 C2939 1.429 . S
C2923 H2945 0.950 . S
C2924 H2920 0.949 . S
C2924 C2932 1.565 1_455 S
C2924 C2940 1.376 . S
H2925 C2933 0.950 . S
H2926 C2931 0.950 . S
H2927 C2932 0.949 . S
H2928 C2934 0.950 . S
H2929 C2935 0.950 . S
H2930 C2936 0.949 . S
C2931 H2926 0.950 . S
C2931 C2933 1.327 . S
C2931 C2937 1.429 . S
C2932 C2924 1.565 1_655 S
C2932 H2927 0.949 . S
C2932 C2938 1.368 . S
C2933 C2917 1.349 . S
C2933 H2925 0.950 . S
C2933 C2931 1.327 . S
C2934 C2922 1.349 . S
C2934 H2928 0.950 . S
C2934 C2935 1.327 . S
C2935 H2929 0.950 . S
C2935 C2934 1.327 . S
C2935 C2939 1.429 . S
C2936 C2919 1.565 1_455 S
C2936 H2930 0.949 . S
C2936 C2940 1.368 . S
C2937 C2918 1.429 . S
C2937 C2931 1.429 . S
C2937 C2938 1.523 . S
C2938 C2919 1.377 . S
C2938 C2932 1.368 . S
C2938 C2937 1.523 . S
C2939 C2923 1.429 . S
C2939 C2935 1.429 . S
C2939 C2940 1.523 . S
C2940 C2924 1.376 . S
C2940 C2936 1.368 . S
C2940 C2939 1.523 . S
H2941 C2916 0.950 . S
H2942 C2918 0.950 . S
H2943 C2919 0.949 . S
H2944 C2921 0.950 . S
H2945 C2923 0.950 . S
C2946 C2947 1.349 . S
C2946 C2948 1.327 . S
C2946 H2971 0.950 . S
C2947 C2946 1.349 . S
C2947 C2963 1.349 . S
C2948 C2946 1.327 . S
C2948 C2967 1.429 . S
C2948 H2972 0.950 . S
C2949 C2966 1.574 1_655 S
C2949 C2968 1.368 . S
C2949 H2973 0.949 . S
H2950 C2954 0.949 . S
C2951 C2952 1.349 . S
C2951 C2953 1.327 . S
C2951 H2974 0.950 . S
C2952 C2951 1.349 . S
C2952 C2964 1.349 . S
C2953 C2951 1.327 . S
C2953 C2969 1.429 . S
C2953 H2975 0.950 . S
C2954 H2950 0.949 . S
C2954 C2962 1.574 1_455 S
C2954 C2970 1.368 . S
H2955 C2963 0.950 . S
H2956 C2961 0.950 . S
H2957 C2962 0.949 . S
H2958 C2964 0.950 . S
H2959 C2965 0.950 . S
H2960 C2966 0.949 . S
C2961 H2956 0.950 . S
C2961 C2963 1.327 . S
C2961 C2967 1.429 . S
C2962 C2954 1.574 1_655 S
C2962 H2957 0.949 . S
C2962 C2968 1.368 . S
C2963 C2947 1.349 . S
C2963 H2955 0.950 . S
C2963 C2961 1.327 . S
C2964 C2952 1.349 . S
C2964 H2958 0.950 . S
C2964 C2965 1.327 . S
C2965 H2959 0.950 . S
C2965 C2964 1.327 . S
C2965 C2969 1.429 . S
C2966 C2949 1.574 1_455 S
C2966 H2960 0.949 . S
C2966 C2970 1.368 . S
C2967 C2948 1.429 . S
C2967 C2961 1.429 . S
C2967 C2968 1.523 . S
C2968 C2949 1.368 . S
C2968 C2962 1.368 . S
C2968 C2967 1.523 . S
C2969 C2953 1.429 . S
C2969 C2965 1.429 . S
C2969 C2970 1.523 . S
C2970 C2954 1.368 . S
C2970 C2966 1.368 . S
C2970 C2969 1.523 . S
H2971 C2946 0.950 . S
H2972 C2948 0.950 . S
H2973 C2949 0.949 . S
H2974 C2951 0.950 . S
H2975 C2953 0.950 . S
C2976 C2977 1.349 . S
C2976 C2978 1.327 . S
C2976 H3001 0.950 . S
C2977 C2976 1.349 . S
C2977 C2993 1.349 . S
C2978 C2976 1.327 . S
C2978 C2997 1.429 . S
C2978 H3002 0.950 . S
C2979 C2996 1.574 . S
C2979 C2998 1.368 1_545 S
C2979 H3003 0.949 . S
H2980 C2984 0.949 . S
C2981 C2982 1.349 . S
C2981 C2983 1.327 . S
C2981 H3004 0.950 . S
C2982 C2981 1.349 . S
C2982 C2994 1.349 . S
C2983 C2981 1.327 . S
C2983 C2999 1.429 . S
C2983 H3005 0.950 . S
C2984 H2980 0.949 . S
C2984 C2992 1.574 . S
C2984 C3000 1.368 1_565 S
H2985 C2993 0.950 . S
H2986 C2991 0.950 . S
H2987 C2992 0.949 . S
H2988 C2994 0.950 . S
H2989 C2995 0.950 . S
H2990 C2996 0.949 . S
C2991 H2986 0.950 . S
C2991 C2993 1.327 . S
C2991 C2997 1.429 . S
C2992 C2984 1.574 . S
C2992 H2987 0.949 . S
C2992 C2998 1.368 . S
C2993 C2977 1.349 . S
C2993 H2985 0.950 . S
C2993 C2991 1.327 . S
C2994 C2982 1.349 . S
C2994 H2988 0.950 . S
C2994 C2995 1.327 . S
C2995 H2989 0.950 . S
C2995 C2994 1.327 . S
C2995 C2999 1.429 . S
C2996 C2979 1.574 . S
C2996 H2990 0.949 . S
C2996 C3000 1.368 . S
C2997 C2978 1.429 . S
C2997 C2991 1.429 . S
C2997 C2998 1.523 . S
C2998 C2979 1.368 1_565 S
C2998 C2992 1.368 . S
C2998 C2997 1.523 . S
C2999 C2983 1.429 . S
C2999 C2995 1.429 . S
C2999 C3000 1.523 . S
C3000 C2984 1.368 1_545 S
C3000 C2996 1.368 . S
C3000 C2999 1.523 . S
H3001 C2976 0.950 . S
H3002 C2978 0.950 . S
H3003 C2979 0.949 . S
H3004 C2981 0.950 . S
H3005 C2983 0.950 . S
C3006 C3007 1.349 . S
C3006 C3008 1.327 . S
C3006 H3031 0.950 . S
C3007 C3006 1.349 . S
C3007 C3023 1.349 . S
C3008 C3006 1.327 . S
C3008 C3027 1.429 . S
C3008 H3032 0.950 . S
C3009 C3026 1.574 . S
C3009 C3028 1.368 . S
C3009 H3033 0.949 . S
H3010 C3014 0.949 . S
C3011 C3012 1.349 . S
C3011 C3013 1.327 . S
C3011 H3034 0.950 . S
C3012 C3011 1.349 . S
C3012 C3024 1.349 . S
C3013 C3011 1.327 . S
C3013 C3029 1.429 . S
C3013 H3035 0.950 . S
C3014 H3010 0.949 . S
C3014 C3022 1.574 . S
C3014 C3030 1.368 . S
H3015 C3023 0.950 . S
H3016 C3021 0.950 . S
H3017 C3022 0.949 . S
H3018 C3024 0.950 . S
H3019 C3025 0.950 . S
H3020 C3026 0.949 . S
C3021 H3016 0.950 . S
C3021 C3023 1.327 . S
C3021 C3027 1.429 . S
C3022 C3014 1.574 . S
C3022 H3017 0.949 . S
C3022 C3028 1.368 . S
C3023 C3007 1.349 . S
C3023 H3015 0.950 . S
C3023 C3021 1.327 . S
C3024 C3012 1.349 . S
C3024 H3018 0.950 . S
C3024 C3025 1.327 . S
C3025 H3019 0.950 . S
C3025 C3024 1.327 . S
C3025 C3029 1.429 . S
C3026 C3009 1.574 . S
C3026 H3020 0.949 . S
C3026 C3030 1.368 . S
C3027 C3008 1.429 . S
C3027 C3021 1.429 . S
C3027 C3028 1.523 . S
C3028 C3009 1.368 . S
C3028 C3022 1.368 . S
C3028 C3027 1.523 . S
C3029 C3013 1.429 . S
C3029 C3025 1.429 . S
C3029 C3030 1.523 . S
C3030 C3014 1.368 . S
C3030 C3026 1.368 . S
C3030 C3029 1.523 . S
H3031 C3006 0.950 . S
H3032 C3008 0.950 . S
H3033 C3009 0.949 . S
H3034 C3011 0.950 . S
H3035 C3013 0.950 . S
C3036 C3037 1.349 . S
C3036 C3038 1.327 . S
C3036 H3061 0.950 . S
C3037 C3036 1.349 . S
C3037 C3053 1.349 . S
C3038 C3036 1.327 . S
C3038 C3057 1.429 . S
C3038 H3062 0.950 . S
C3039 C3056 1.574 . S
C3039 C3058 1.368 1_545 S
C3039 H3063 0.949 . S
H3040 C3044 0.949 . S
C3041 C3042 1.349 . S
C3041 C3043 1.327 . S
C3041 H3064 0.950 . S
C3042 C3041 1.349 . S
C3042 C3054 1.349 . S
C3043 C3041 1.327 . S
C3043 C3059 1.429 . S
C3043 H3065 0.950 . S
C3044 H3040 0.949 . S
C3044 C3052 1.574 . S
C3044 C3060 1.368 1_565 S
H3045 C3053 0.950 . S
H3046 C3051 0.950 . S
H3047 C3052 0.949 . S
H3048 C3054 0.950 . S
H3049 C3055 0.950 . S
H3050 C3056 0.949 . S
C3051 H3046 0.950 . S
C3051 C3053 1.327 . S
C3051 C3057 1.429 . S
C3052 C3044 1.574 . S
C3052 H3047 0.949 . S
C3052 C3058 1.368 . S
C3053 C3037 1.349 . S
C3053 H3045 0.950 . S
C3053 C3051 1.327 . S
C3054 C3042 1.349 . S
C3054 H3048 0.950 . S
C3054 C3055 1.327 . S
C3055 H3049 0.950 . S
C3055 C3054 1.327 . S
C3055 C3059 1.429 . S
C3056 C3039 1.574 . S
C3056 H3050 0.949 . S
C3056 C3060 1.368 . S
C3057 C3038 1.429 . S
C3057 C3051 1.429 . S
C3057 C3058 1.523 . S
C3058 C3039 1.368 1_565 S
C3058 C3052 1.368 . S
C3058 C3057 1.523 . S
C3059 C3043 1.429 . S
C3059 C3055 1.429 . S
C3059 C3060 1.523 . S
C3060 C3044 1.368 1_545 S
C3060 C3056 1.368 . S
C3060 C3059 1.523 . S
H3061 C3036 0.950 . S
H3062 C3038 0.950 . S
H3063 C3039 0.949 . S
H3064 C3041 0.950 . S
H3065 C3043 0.950 . S
C3066 C3067 1.349 . S
C3066 C3068 1.327 . S
C3066 H3091 0.950 . S
C3067 C3066 1.349 . S
C3067 C3083 1.349 . S
C3068 C3066 1.327 . S
C3068 C3087 1.429 . S
C3068 H3092 0.950 . S
C3069 C3086 1.574 1_554 S
C3069 C3088 1.368 . S
C3069 H3093 0.949 . S
H3070 C3074 0.949 . S
C3071 C3072 1.349 . S
C3071 C3073 1.327 . S
C3071 H3094 0.950 . S
C3072 C3071 1.349 . S
C3072 C3084 1.349 . S
C3073 C3071 1.327 . S
C3073 C3089 1.429 . S
C3073 H3095 0.950 . S
C3074 H3070 0.949 . S
C3074 C3082 1.574 1_556 S
C3074 C3090 1.368 . S
H3075 C3083 0.950 . S
H3076 C3081 0.950 . S
H3077 C3082 0.949 . S
H3078 C3084 0.950 . S
H3079 C3085 0.950 . S
H3080 C3086 0.949 . S
C3081 H3076 0.950 . S
C3081 C3083 1.327 . S
C3081 C3087 1.429 . S
C3082 C3074 1.574 1_554 S
C3082 H3077 0.949 . S
C3082 C3088 1.368 . S
C3083 C3067 1.349 . S
C3083 H3075 0.950 . S
C3083 C3081 1.327 . S
C3084 C3072 1.349 . S
C3084 H3078 0.950 . S
C3084 C3085 1.327 . S
C3085 H3079 0.950 . S
C3085 C3084 1.327 . S
C3085 C3089 1.429 . S
C3086 C3069 1.574 1_556 S
C3086 H3080 0.949 . S
C3086 C3090 1.368 . S
C3087 C3068 1.429 . S
C3087 C3081 1.429 . S
C3087 C3088 1.523 . S
C3088 C3069 1.368 . S
C3088 C3082 1.368 . S
C3088 C3087 1.523 . S
C3089 C3073 1.429 . S
C3089 C3085 1.429 . S
C3089 C3090 1.523 . S
C3090 C3074 1.368 . S
C3090 C3086 1.368 . S
C3090 C3089 1.523 . S
H3091 C3066 0.950 . S
H3092 C3068 0.950 . S
H3093 C3069 0.949 . S
H3094 C3071 0.950 . S
H3095 C3073 0.950 . S
C3096 C3097 1.349 . S
C3096 C3098 1.327 . S
C3096 H3121 0.950 . S
C3097 C3096 1.349 . S
C3097 C3113 1.349 . S
C3098 C3096 1.327 . S
C3098 C3117 1.429 . S
C3098 H3122 0.950 . S
C3099 C3116 1.574 . S
C3099 C3118 1.368 1_545 S
C3099 H3123 0.949 . S
H3100 C3104 0.949 . S
C3101 C3102 1.349 . S
C3101 C3103 1.327 . S
C3101 H3124 0.950 . S
C3102 C3101 1.349 . S
C3102 C3114 1.349 . S
C3103 C3101 1.327 . S
C3103 C3119 1.429 . S
C3103 H3125 0.950 . S
C3104 H3100 0.949 . S
C3104 C3112 1.574 . S
C3104 C3120 1.368 1_565 S
H3105 C3113 0.950 . S
H3106 C3111 0.950 . S
H3107 C3112 0.949 . S
H3108 C3114 0.950 . S
H3109 C3115 0.950 . S
H3110 C3116 0.949 . S
C3111 H3106 0.950 . S
C3111 C3113 1.327 . S
C3111 C3117 1.429 . S
C3112 C3104 1.574 . S
C3112 H3107 0.949 . S
C3112 C3118 1.368 . S
C3113 C3097 1.349 . S
C3113 H3105 0.950 . S
C3113 C3111 1.327 . S
C3114 C3102 1.349 . S
C3114 H3108 0.950 . S
C3114 C3115 1.327 . S
C3115 H3109 0.950 . S
C3115 C3114 1.327 . S
C3115 C3119 1.429 . S
C3116 C3099 1.574 . S
C3116 H3110 0.949 . S
C3116 C3120 1.368 . S
C3117 C3098 1.429 . S
C3117 C3111 1.429 . S
C3117 C3118 1.523 . S
C3118 C3099 1.368 1_565 S
C3118 C3112 1.368 . S
C3118 C3117 1.523 . S
C3119 C3103 1.429 . S
C3119 C3115 1.429 . S
C3119 C3120 1.523 . S
C3120 C3104 1.368 1_545 S
C3120 C3116 1.368 . S
C3120 C3119 1.523 . S
H3121 C3096 0.950 . S
H3122 C3098 0.950 . S
H3123 C3099 0.949 . S
H3124 C3101 0.950 . S
H3125 C3103 0.950 . S
C3126 C3127 1.349 . S
C3126 C3128 1.327 . S
C3126 H3151 0.950 . S
C3127 C3126 1.349 . S
C3127 C3143 1.349 . S
C3128 C3126 1.327 . S
C3128 C3147 1.429 . S
C3128 H3152 0.950 . S
C3129 C3146 1.574 . S
C3129 C3148 1.368 . S
C3129 H3153 0.949 . S
H3130 C3134 0.949 . S
C3131 C3132 1.349 . S
C3131 C3133 1.327 . S
C3131 H3154 0.950 . S
C3132 C3131 1.349 . S
C3132 C3144 1.349 . S
C3133 C3131 1.327 . S
C3133 C3149 1.429 . S
C3133 H3155 0.950 . S
C3134 H3130 0.949 . S
C3134 C3142 1.574 . S
C3134 C3150 1.368 . S
H3135 C3143 0.950 . S
H3136 C3141 0.950 . S
H3137 C3142 0.949 . S
H3138 C3144 0.950 . S
H3139 C3145 0.950 . S
H3140 C3146 0.949 . S
C3141 H3136 0.950 . S
C3141 C3143 1.327 . S
C3141 C3147 1.429 . S
C3142 C3134 1.574 . S
C3142 H3137 0.949 . S
C3142 C3148 1.368 . S
C3143 C3127 1.349 . S
C3143 H3135 0.950 . S
C3143 C3141 1.327 . S
C3144 C3132 1.349 . S
C3144 H3138 0.950 . S
C3144 C3145 1.327 . S
C3145 H3139 0.950 . S
C3145 C3144 1.327 . S
C3145 C3149 1.429 . S
C3146 C3129 1.574 . S
C3146 H3140 0.949 . S
C3146 C3150 1.368 . S
C3147 C3128 1.429 . S
C3147 C3141 1.429 . S
C3147 C3148 1.523 . S
C3148 C3129 1.368 . S
C3148 C3142 1.368 . S
C3148 C3147 1.523 . S
C3149 C3133 1.429 . S
C3149 C3145 1.429 . S
C3149 C3150 1.523 . S
C3150 C3134 1.368 . S
C3150 C3146 1.368 . S
C3150 C3149 1.523 . S
H3151 C3126 0.950 . S
H3152 C3128 0.950 . S
H3153 C3129 0.949 . S
H3154 C3131 0.950 . S
H3155 C3133 0.950 . S
C3156 C3157 1.349 . S
C3156 C3158 1.327 . S
C3156 H3181 0.950 . S
C3157 C3156 1.349 . S
C3157 C3173 1.349 . S
C3158 C3156 1.327 . S
C3158 C3177 1.429 . S
C3158 H3182 0.950 . S
C3159 C3176 1.574 . S
C3159 C3178 1.368 . S
C3159 H3183 0.949 . S
H3160 C3164 0.949 . S
C3161 C3162 1.349 . S
C3161 C3163 1.327 . S
C3161 H3184 0.950 . S
C3162 C3161 1.349 . S
C3162 C3174 1.349 . S
C3163 C3161 1.327 . S
C3163 C3179 1.429 . S
C3163 H3185 0.950 . S
C3164 H3160 0.949 . S
C3164 C3172 1.574 . S
C3164 C3180 1.368 . S
H3165 C3173 0.950 . S
H3166 C3171 0.950 . S
H3167 C3172 0.949 . S
H3168 C3174 0.950 . S
H3169 C3175 0.950 . S
H3170 C3176 0.949 . S
C3171 H3166 0.950 . S
C3171 C3173 1.327 . S
C3171 C3177 1.429 . S
C3172 C3164 1.574 . S
C3172 H3167 0.949 . S
C3172 C3178 1.368 1_565 S
C3173 C3157 1.349 . S
C3173 H3165 0.950 . S
C3173 C3171 1.327 . S
C3174 C3162 1.349 . S
C3174 H3168 0.950 . S
C3174 C3175 1.327 . S
C3175 H3169 0.950 . S
C3175 C3174 1.327 . S
C3175 C3179 1.429 . S
C3176 C3159 1.574 . S
C3176 H3170 0.949 . S
C3176 C3180 1.368 1_545 S
C3177 C3158 1.429 . S
C3177 C3171 1.429 . S
C3177 C3178 1.523 . S
C3178 C3159 1.368 . S
C3178 C3172 1.368 1_545 S
C3178 C3177 1.523 . S
C3179 C3163 1.429 . S
C3179 C3175 1.429 . S
C3179 C3180 1.523 . S
C3180 C3164 1.368 . S
C3180 C3176 1.368 1_565 S
C3180 C3179 1.523 . S
H3181 C3156 0.950 . S
H3182 C3158 0.950 . S
H3183 C3159 0.949 . S
H3184 C3161 0.950 . S
H3185 C3163 0.950 . S
C3186 C3187 1.349 . S
C3186 C3188 1.327 . S
C3186 H3211 0.950 . S
C3187 C3186 1.349 . S
C3187 C3203 1.349 . S
C3188 C3186 1.327 . S
C3188 C3207 1.429 . S
C3188 H3212 0.950 . S
C3189 C3206 1.574 1_556 S
C3189 C3208 1.368 . S
C3189 H3213 0.949 . S
H3190 C3194 0.949 . S
C3191 C3192 1.349 . S
C3191 C3193 1.327 . S
C3191 H3214 0.950 . S
C3192 C3191 1.349 . S
C3192 C3204 1.349 . S
C3193 C3191 1.327 . S
C3193 C3209 1.429 . S
C3193 H3215 0.950 . S
C3194 H3190 0.949 . S
C3194 C3202 1.574 1_554 S
C3194 C3210 1.368 . S
H3195 C3203 0.950 . S
H3196 C3201 0.950 . S
H3197 C3202 0.949 . S
H3198 C3204 0.950 . S
H3199 C3205 0.950 . S
H3200 C3206 0.949 . S
C3201 H3196 0.950 . S
C3201 C3203 1.327 . S
C3201 C3207 1.429 . S
C3202 C3194 1.574 1_556 S
C3202 H3197 0.949 . S
C3202 C3208 1.368 . S
C3203 C3187 1.349 . S
C3203 H3195 0.950 . S
C3203 C3201 1.327 . S
C3204 C3192 1.349 . S
C3204 H3198 0.950 . S
C3204 C3205 1.327 . S
C3205 H3199 0.950 . S
C3205 C3204 1.327 . S
C3205 C3209 1.429 . S
C3206 C3189 1.574 1_554 S
C3206 H3200 0.949 . S
C3206 C3210 1.368 . S
C3207 C3188 1.429 . S
C3207 C3201 1.429 . S
C3207 C3208 1.523 . S
C3208 C3189 1.368 . S
C3208 C3202 1.368 . S
C3208 C3207 1.523 . S
C3209 C3193 1.429 . S
C3209 C3205 1.429 . S
C3209 C3210 1.523 . S
C3210 C3194 1.368 . S
C3210 C3206 1.368 . S
C3210 C3209 1.523 . S
H3211 C3186 0.950 . S
H3212 C3188 0.950 . S
H3213 C3189 0.949 . S
H3214 C3191 0.950 . S
H3215 C3193 0.950 . S
C3216 C3217 1.349 . S
C3216 C3218 1.327 . S
C3216 H3241 0.950 . S
C3217 C3216 1.349 . S
C3217 C3233 1.349 . S
C3218 C3216 1.327 . S
C3218 C3237 1.429 . S
C3218 H3242 0.950 . S
C3219 C3236 1.574 . S
C3219 C3238 1.368 . S
C3219 H3243 0.949 . S
H3220 C3224 0.949 . S
C3221 C3222 1.349 . S
C3221 C3223 1.327 . S
C3221 H3244 0.950 . S
C3222 C3221 1.349 . S
C3222 C3234 1.349 . S
C3223 C3221 1.327 . S
C3223 C3239 1.429 . S
C3223 H3245 0.950 . S
C3224 H3220 0.949 . S
C3224 C3232 1.574 . S
C3224 C3240 1.368 . S
H3225 C3233 0.950 . S
H3226 C3231 0.950 . S
H3227 C3232 0.949 . S
H3228 C3234 0.950 . S
H3229 C3235 0.950 . S
H3230 C3236 0.949 . S
C3231 H3226 0.950 . S
C3231 C3233 1.327 . S
C3231 C3237 1.429 . S
C3232 C3224 1.574 . S
C3232 H3227 0.949 . S
C3232 C3238 1.368 . S
C3233 C3217 1.349 . S
C3233 H3225 0.950 . S
C3233 C3231 1.327 . S
C3234 C3222 1.349 . S
C3234 H3228 0.950 . S
C3234 C3235 1.327 . S
C3235 H3229 0.950 . S
C3235 C3234 1.327 . S
C3235 C3239 1.429 . S
C3236 C3219 1.574 . S
C3236 H3230 0.949 . S
C3236 C3240 1.368 . S
C3237 C3218 1.429 . S
C3237 C3231 1.429 . S
C3237 C3238 1.523 . S
C3238 C3219 1.368 . S
C3238 C3232 1.368 . S
C3238 C3237 1.523 . S
C3239 C3223 1.429 . S
C3239 C3235 1.429 . S
C3239 C3240 1.523 . S
C3240 C3224 1.368 . S
C3240 C3236 1.368 . S
C3240 C3239 1.523 . S
H3241 C3216 0.950 . S
H3242 C3218 0.950 . S
H3243 C3219 0.949 . S
H3244 C3221 0.950 . S
H3245 C3223 0.950 . S
C3246 C3247 1.349 . S
C3246 C3248 1.327 . S
C3246 H3271 0.950 . S
C3247 C3246 1.349 . S
C3247 C3263 1.349 . S
C3248 C3246 1.327 . S
C3248 C3267 1.429 . S
C3248 H3272 0.950 . S
C3249 C3266 1.574 1_554 S
C3249 C3268 1.368 . S
C3249 H3273 0.949 . S
H3250 C3254 0.949 . S
C3251 C3252 1.349 . S
C3251 C3253 1.327 . S
C3251 H3274 0.950 . S
C3252 C3251 1.349 . S
C3252 C3264 1.349 . S
C3253 C3251 1.327 . S
C3253 C3269 1.429 . S
C3253 H3275 0.950 . S
C3254 H3250 0.949 . S
C3254 C3262 1.574 1_556 S
C3254 C3270 1.368 . S
H3255 C3263 0.950 . S
H3256 C3261 0.950 . S
H3257 C3262 0.949 . S
H3258 C3264 0.950 . S
H3259 C3265 0.950 . S
H3260 C3266 0.949 . S
C3261 H3256 0.950 . S
C3261 C3263 1.327 . S
C3261 C3267 1.429 . S
C3262 C3254 1.574 1_554 S
C3262 H3257 0.949 . S
C3262 C3268 1.368 . S
C3263 C3247 1.349 . S
C3263 H3255 0.950 . S
C3263 C3261 1.327 . S
C3264 C3252 1.349 . S
C3264 H3258 0.950 . S
C3264 C3265 1.327 . S
C3265 H3259 0.950 . S
C3265 C3264 1.327 . S
C3265 C3269 1.429 . S
C3266 C3249 1.574 1_556 S
C3266 H3260 0.949 . S
C3266 C3270 1.368 . S
C3267 C3248 1.429 . S
C3267 C3261 1.429 . S
C3267 C3268 1.523 . S
C3268 C3249 1.368 . S
C3268 C3262 1.368 . S
C3268 C3267 1.523 . S
C3269 C3253 1.429 . S
C3269 C3265 1.429 . S
C3269 C3270 1.523 . S
C3270 C3254 1.368 . S
C3270 C3266 1.368 . S
C3270 C3269 1.523 . S
H3271 C3246 0.950 . S
H3272 C3248 0.950 . S
H3273 C3249 0.949 . S
H3274 C3251 0.950 . S
H3275 C3253 0.950 . S
C3276 C3277 1.349 . S
C3276 C3278 1.327 . S
C3276 H3301 0.950 . S
C3277 C3276 1.349 . S
C3277 C3293 1.349 . S
C3278 C3276 1.327 . S
C3278 C3297 1.429 . S
C3278 H3302 0.950 . S
C3279 C3296 1.574 . S
C3279 C3298 1.368 . S
C3279 H3303 0.949 . S
H3280 C3284 0.949 . S
C3281 C3282 1.349 . S
C3281 C3283 1.327 . S
C3281 H3304 0.950 . S
C3282 C3281 1.349 . S
C3282 C3294 1.349 . S
C3283 C3281 1.327 . S
C3283 C3299 1.429 . S
C3283 H3305 0.950 . S
C3284 H3280 0.949 . S
C3284 C3292 1.574 . S
C3284 C3300 1.368 . S
H3285 C3293 0.950 . S
H3286 C3291 0.950 . S
H3287 C3292 0.949 . S
H3288 C3294 0.950 . S
H3289 C3295 0.950 . S
H3290 C3296 0.949 . S
C3291 H3286 0.950 . S
C3291 C3293 1.327 . S
C3291 C3297 1.429 . S
C3292 C3284 1.574 . S
C3292 H3287 0.949 . S
C3292 C3298 1.368 . S
C3293 C3277 1.349 . S
C3293 H3285 0.950 . S
C3293 C3291 1.327 . S
C3294 C3282 1.349 . S
C3294 H3288 0.950 . S
C3294 C3295 1.327 . S
C3295 H3289 0.950 . S
C3295 C3294 1.327 . S
C3295 C3299 1.429 . S
C3296 C3279 1.574 . S
C3296 H3290 0.949 . S
C3296 C3300 1.368 . S
C3297 C3278 1.429 . S
C3297 C3291 1.429 . S
C3297 C3298 1.523 . S
C3298 C3279 1.368 . S
C3298 C3292 1.368 . S
C3298 C3297 1.523 . S
C3299 C3283 1.429 . S
C3299 C3295 1.429 . S
C3299 C3300 1.523 . S
C3300 C3284 1.368 . S
C3300 C3296 1.368 . S
C3300 C3299 1.523 . S
H3301 C3276 0.950 . S
H3302 C3278 0.950 . S
H3303 C3279 0.949 . S
H3304 C3281 0.950 . S
H3305 C3283 0.950 . S
C3306 C3307 1.349 . S
C3306 C3308 1.327 . S
C3306 H3331 0.950 . S
C3307 C3306 1.349 . S
C3307 C3323 1.349 . S
C3308 C3306 1.327 . S
C3308 C3327 1.429 . S
C3308 H3332 0.950 . S
C3309 C3326 1.574 . S
C3309 C3328 1.368 . S
C3309 H3333 0.949 . S
H3310 C3314 0.949 . S
C3311 C3312 1.349 . S
C3311 C3313 1.327 . S
C3311 H3334 0.950 . S
C3312 C3311 1.349 . S
C3312 C3324 1.349 . S
C3313 C3311 1.327 . S
C3313 C3329 1.429 . S
C3313 H3335 0.950 . S
C3314 H3310 0.949 . S
C3314 C3322 1.574 . S
C3314 C3330 1.368 . S
H3315 C3323 0.950 . S
H3316 C3321 0.950 . S
H3317 C3322 0.949 . S
H3318 C3324 0.950 . S
H3319 C3325 0.950 . S
H3320 C3326 0.949 . S
C3321 H3316 0.950 . S
C3321 C3323 1.327 . S
C3321 C3327 1.429 . S
C3322 C3314 1.574 . S
C3322 H3317 0.949 . S
C3322 C3328 1.368 . S
C3323 C3307 1.349 . S
C3323 H3315 0.950 . S
C3323 C3321 1.327 . S
C3324 C3312 1.349 . S
C3324 H3318 0.950 . S
C3324 C3325 1.327 . S
C3325 H3319 0.950 . S
C3325 C3324 1.327 . S
C3325 C3329 1.429 . S
C3326 C3309 1.574 . S
C3326 H3320 0.949 . S
C3326 C3330 1.368 . S
C3327 C3308 1.429 . S
C3327 C3321 1.429 . S
C3327 C3328 1.523 . S
C3328 C3309 1.368 . S
C3328 C3322 1.368 . S
C3328 C3327 1.523 . S
C3329 C3313 1.429 . S
C3329 C3325 1.429 . S
C3329 C3330 1.523 . S
C3330 C3314 1.368 . S
C3330 C3326 1.368 . S
C3330 C3329 1.523 . S
H3331 C3306 0.950 . S
H3332 C3308 0.950 . S
H3333 C3309 0.949 . S
H3334 C3311 0.950 . S
H3335 C3313 0.950 . S
C3336 C3337 1.349 . S
C3336 C3338 1.327 . S
C3336 H3361 0.950 . S
C3337 C3336 1.349 . S
C3337 C3353 1.349 . S
C3338 C3336 1.327 . S
C3338 C3357 1.429 . S
C3338 H3362 0.950 . S
C3339 C3356 1.574 . S
C3339 C3358 1.368 . S
C3339 H3363 0.949 . S
H3340 C3344 0.949 . S
C3341 C3342 1.349 . S
C3341 C3343 1.327 . S
C3341 H3364 0.950 . S
C3342 C3341 1.349 . S
C3342 C3354 1.349 . S
C3343 C3341 1.327 . S
C3343 C3359 1.429 . S
C3343 H3365 0.950 . S
C3344 H3340 0.949 . S
C3344 C3352 1.574 . S
C3344 C3360 1.368 . S
H3345 C3353 0.950 . S
H3346 C3351 0.950 . S
H3347 C3352 0.949 . S
H3348 C3354 0.950 . S
H3349 C3355 0.950 . S
H3350 C3356 0.949 . S
C3351 H3346 0.950 . S
C3351 C3353 1.327 . S
C3351 C3357 1.429 . S
C3352 C3344 1.574 . S
C3352 H3347 0.949 . S
C3352 C3358 1.368 . S
C3353 C3337 1.349 . S
C3353 H3345 0.950 . S
C3353 C3351 1.327 . S
C3354 C3342 1.349 . S
C3354 H3348 0.950 . S
C3354 C3355 1.327 . S
C3355 H3349 0.950 . S
C3355 C3354 1.327 . S
C3355 C3359 1.429 . S
C3356 C3339 1.574 . S
C3356 H3350 0.949 . S
C3356 C3360 1.368 . S
C3357 C3338 1.429 . S
C3357 C3351 1.429 . S
C3357 C3358 1.523 . S
C3358 C3339 1.368 . S
C3358 C3352 1.368 . S
C3358 C3357 1.523 . S
C3359 C3343 1.429 . S
C3359 C3355 1.429 . S
C3359 C3360 1.523 . S
C3360 C3344 1.368 . S
C3360 C3356 1.368 . S
C3360 C3359 1.523 . S
H3361 C3336 0.950 . S
H3362 C3338 0.950 . S
H3363 C3339 0.949 . S
H3364 C3341 0.950 . S
H3365 C3343 0.950 . S
C3366 C3367 1.349 . S
C3366 C3368 1.327 . S
C3366 H3391 0.950 . S
C3367 C3366 1.349 . S
C3367 C3383 1.349 . S
C3368 C3366 1.327 . S
C3368 C3387 1.429 . S
C3368 H3392 0.950 . S
C3369 C3386 1.574 1_554 S
C3369 C3388 1.368 . S
C3369 H3393 0.949 . S
H3370 C3374 0.949 . S
C3371 C3372 1.349 . S
C3371 C3373 1.327 . S
C3371 H3394 0.950 . S
C3372 C3371 1.349 . S
C3372 C3384 1.349 . S
C3373 C3371 1.327 . S
C3373 C3389 1.429 . S
C3373 H3395 0.950 . S
C3374 H3370 0.949 . S
C3374 C3382 1.574 1_556 S
C3374 C3390 1.368 . S
H3375 C3383 0.950 . S
H3376 C3381 0.950 . S
H3377 C3382 0.949 . S
H3378 C3384 0.950 . S
H3379 C3385 0.950 . S
H3380 C3386 0.949 . S
C3381 H3376 0.950 . S
C3381 C3383 1.327 . S
C3381 C3387 1.429 . S
C3382 C3374 1.574 1_554 S
C3382 H3377 0.949 . S
C3382 C3388 1.368 . S
C3383 C3367 1.349 . S
C3383 H3375 0.950 . S
C3383 C3381 1.327 . S
C3384 C3372 1.349 . S
C3384 H3378 0.950 . S
C3384 C3385 1.327 . S
C3385 H3379 0.950 . S
C3385 C3384 1.327 . S
C3385 C3389 1.429 . S
C3386 C3369 1.574 1_556 S
C3386 H3380 0.949 . S
C3386 C3390 1.368 . S
C3387 C3368 1.429 . S
C3387 C3381 1.429 . S
C3387 C3388 1.523 . S
C3388 C3369 1.368 . S
C3388 C3382 1.368 . S
C3388 C3387 1.523 . S
C3389 C3373 1.429 . S
C3389 C3385 1.429 . S
C3389 C3390 1.523 . S
C3390 C3374 1.368 . S
C3390 C3386 1.368 . S
C3390 C3389 1.523 . S
H3391 C3366 0.950 . S
H3392 C3368 0.950 . S
H3393 C3369 0.949 . S
H3394 C3371 0.950 . S
H3395 C3373 0.950 . S
C3396 C3397 1.349 . S
C3396 C3398 1.327 . S
C3396 H3421 0.950 . S
C3397 C3396 1.349 . S
C3397 C3413 1.349 . S
C3398 C3396 1.327 . S
C3398 C3417 1.429 . S
C3398 H3422 0.950 . S
C3399 C3416 1.574 . S
C3399 C3418 1.368 . S
C3399 H3423 0.949 . S
H3400 C3404 0.949 . S
C3401 C3402 1.349 . S
C3401 C3403 1.327 . S
C3401 H3424 0.950 . S
C3402 C3401 1.349 . S
C3402 C3414 1.349 . S
C3403 C3401 1.327 . S
C3403 C3419 1.429 . S
C3403 H3425 0.950 . S
C3404 H3400 0.949 . S
C3404 C3412 1.574 . S
C3404 C3420 1.368 . S
H3405 C3413 0.950 . S
H3406 C3411 0.950 . S
H3407 C3412 0.949 . S
H3408 C3414 0.950 . S
H3409 C3415 0.950 . S
H3410 C3416 0.949 . S
C3411 H3406 0.950 . S
C3411 C3413 1.327 . S
C3411 C3417 1.429 . S
C3412 C3404 1.574 . S
C3412 H3407 0.949 . S
C3412 C3418 1.368 . S
C3413 C3397 1.349 . S
C3413 H3405 0.950 . S
C3413 C3411 1.327 . S
C3414 C3402 1.349 . S
C3414 H3408 0.950 . S
C3414 C3415 1.327 . S
C3415 H3409 0.950 . S
C3415 C3414 1.327 . S
C3415 C3419 1.429 . S
C3416 C3399 1.574 . S
C3416 H3410 0.949 . S
C3416 C3420 1.368 . S
C3417 C3398 1.429 . S
C3417 C3411 1.429 . S
C3417 C3418 1.523 . S
C3418 C3399 1.368 . S
C3418 C3412 1.368 . S
C3418 C3417 1.523 . S
C3419 C3403 1.429 . S
C3419 C3415 1.429 . S
C3419 C3420 1.523 . S
C3420 C3404 1.368 . S
C3420 C3416 1.368 . S
C3420 C3419 1.523 . S
H3421 C3396 0.950 . S
H3422 C3398 0.950 . S
H3423 C3399 0.949 . S
H3424 C3401 0.950 . S
H3425 C3403 0.950 . S
C3426 C3427 1.349 . S
C3426 C3428 1.327 . S
C3426 H3451 0.950 . S
C3427 C3426 1.349 . S
C3427 C3443 1.349 . S
C3428 C3426 1.327 . S
C3428 C3447 1.429 . S
C3428 H3452 0.950 . S
C3429 C3446 1.574 . S
C3429 C3448 1.368 . S
C3429 H3453 0.949 . S
H3430 C3434 0.949 . S
C3431 C3432 1.349 . S
C3431 C3433 1.327 . S
C3431 H3454 0.950 . S
C3432 C3431 1.349 . S
C3432 C3444 1.349 . S
C3433 C3431 1.327 . S
C3433 C3449 1.429 . S
C3433 H3455 0.950 . S
C3434 H3430 0.949 . S
C3434 C3442 1.574 . S
C3434 C3450 1.368 . S
H3435 C3443 0.950 . S
H3436 C3441 0.950 . S
H3437 C3442 0.949 . S
H3438 C3444 0.950 . S
H3439 C3445 0.950 . S
H3440 C3446 0.949 . S
C3441 H3436 0.950 . S
C3441 C3443 1.327 . S
C3441 C3447 1.429 . S
C3442 C3434 1.574 . S
C3442 H3437 0.949 . S
C3442 C3448 1.368 . S
C3443 C3427 1.349 . S
C3443 H3435 0.950 . S
C3443 C3441 1.327 . S
C3444 C3432 1.349 . S
C3444 H3438 0.950 . S
C3444 C3445 1.327 . S
C3445 H3439 0.950 . S
C3445 C3444 1.327 . S
C3445 C3449 1.429 . S
C3446 C3429 1.574 . S
C3446 H3440 0.949 . S
C3446 C3450 1.368 . S
C3447 C3428 1.429 . S
C3447 C3441 1.429 . S
C3447 C3448 1.523 . S
C3448 C3429 1.368 . S
C3448 C3442 1.368 . S
C3448 C3447 1.523 . S
C3449 C3433 1.429 . S
C3449 C3445 1.429 . S
C3449 C3450 1.523 . S
C3450 C3434 1.368 . S
C3450 C3446 1.368 . S
C3450 C3449 1.523 . S
H3451 C3426 0.950 . S
H3452 C3428 0.950 . S
H3453 C3429 0.949 . S
H3454 C3431 0.950 . S
H3455 C3433 0.950 . S
C1057 N13 1.495 . S
C1062 N805 1.495 . S
C1087 N310 1.495 . S
C1092 N46 1.495 . S
C1117 N871 1.495 . S
C1122 N79 1.495 . S
C1147 N112 1.495 . S
C1152 N376 1.495 . S
C1177 N937 1.495 . S
C1182 N145 1.495 . S
C1207 N442 1.495 . S
C1212 N178 1.495 . S
C1237 N211 1.495 . S
C1242 N1003 1.495 . S
C1267 N244 1.495 . S
C1272 N508 1.495 . S
C1297 N277 1.495 . S
C1302 N541 1.495 . S
C1327 N343 1.495 . S
C1332 N607 1.495 . S
C1357 N673 1.495 . S
C1362 N409 1.495 . S
C1387 N475 1.495 . S
C1392 N739 1.495 . S
C1417 N574 1.495 . S
C1422 N838 1.495 . S
C1447 N904 1.495 . S
C1452 N640 1.495 . S
C1477 N970 1.495 . S
C1482 N706 1.495 . S
C1507 N772 1.495 . S
C1512 N1036 1.495 . S
C1537 C7 0.826 . S
C1542 N827 0.849 . S
C1567 N332 0.849 . S
C1572 C40 0.826 . S
C1597 C73 0.826 . S
C1602 N893 0.849 . S
C1627 N266 0.849 . S
C1632 C106 0.826 . S
C1657 C139 0.826 . S
C1662 N1025 0.849 . S
C1687 C172 0.826 . S
C1692 N398 0.849 . S
C1717 N959 0.849 . S
C1722 C205 0.826 . S
C1747 N464 0.849 . S
C1752 C238 0.826 . S
C1777 N563 0.849 . S
C1782 C271 0.826 . S
C1807 N68 0.849 . S
C1812 C304 0.826 . S
C1837 C337 0.826 . S
C1842 N629 0.849 . S
C1867 C370 0.826 . S
C1872 N2 0.849 . S
C1897 N761 0.849 . S
C1902 C403 0.826 . S
C1927 N134 0.849 . S
C1932 C436 0.826 . S
C1957 C469 0.826 . S
C1962 N695 0.849 . S
C1987 C502 0.826 . S
C1992 N200 0.849 . S
C2017 N299 0.849 . S
C2022 C535 0.826 . S
C2047 N860 0.849 . S
C2052 C568 0.826 . S
C2077 N365 0.849 . S
C2082 C601 0.826 . S
C2107 C634 0.826 . S
C2112 N794 0.849 . S
C2137 N497 0.849 . S
C2142 C667 0.826 . S
C2167 C700 0.826 . S
C2172 N926 0.849 . S
C2197 N431 0.849 . S
C2202 C733 0.826 . S
C2227 C766 0.826 . S
C2232 N992 0.849 . S
C2257 N35 0.849 . S
C2262 C799 0.826 . S
C2287 N596 0.849 . S
C2292 C832 0.826 . S
C2317 N101 0.849 . S
C2322 C865 0.826 . S
C2347 C898 0.826 . S
C2352 N530 0.849 . S
C2377 C931 0.826 . S
C2382 N233 0.849 . S
C2407 N662 0.849 . S
C2412 C964 0.826 . S
C2437 N167 0.849 . S
C2442 C997 0.826 . S
C2467 C1030 0.826 . S
C2472 N728 0.849 . S
C2497 C615 0.753 . S
C2502 C21 0.753 . S
C2527 C648 0.753 . S
C2532 C54 0.753 . S
C2557 C549 0.753 . S
C2562 C87 0.753 . S
C2587 C582 0.753 . S
C2592 C120 0.753 . S
C2617 C153 0.753 . S
C2622 C747 0.753 . S
C2647 C780 0.753 . S
C2652 C186 0.753 . S
C2677 C219 0.753 . S
C2682 C681 0.753 . S
C2707 C714 0.753 . S
C2712 C252 0.753 . S
C2737 C879 0.753 . S
C2742 C285 0.753 . S
C2767 C318 0.753 . S
C2772 C912 0.753 . S
C2797 C351 0.753 . S
C2802 C813 0.753 . S
C2827 C384 0.753 . S
C2832 C846 0.753 . S
C2857 C1011 0.753 . S
C2862 C417 0.753 . S
C2887 C450 0.753 . S
C2892 C1044 0.753 . S
C2917 C483 0.753 . S
C2922 C945 0.753 . S
C2947 C516 0.753 . S
C2952 C978 0.753 . S
C2977 C150 1.808 . S
C2982 C18 1.808 . S
C3007 C183 1.808 . S
C3012 C51 1.808 . S
C3037 C84 1.808 . S
C3042 C216 1.808 . S
C3067 C249 1.808 . S
C3072 C117 1.808 . S
C3097 C282 1.808 . S
C3102 C414 1.808 . S
C3127 C447 1.808 . S
C3132 C315 1.808 . S
C3157 C348 1.808 . S
C3162 C480 1.808 . S
C3187 C513 1.808 . S
C3192 C381 1.808 . S
C3217 C546 1.808 . S
C3222 C678 1.808 . S
C3247 C711 1.808 . S
C3252 C579 1.808 . S
C3277 C744 1.808 . S
C3282 C612 1.808 . S
C3307 C645 1.808 . S
C3312 C777 1.808 . S
C3337 C942 1.808 . S
C3342 C810 1.808 . S
C3367 C843 1.808 . S
C3372 C975 1.808 . S
C3397 C876 1.808 . S
C3402 C1008 1.808 . S
C3427 C909 1.808 . S
C3432 C1041 1.808 . S
