# Generated by pormake.
# Topology afw, (4)-cn, num edge types: 1
# Building blocks:
#     Node 0, Type 0, BuildingBlock: AZAVOO_clean_sbu_0, # of connection points: 4
#     Node 1, Type 0, BuildingBlock: AZAVOO_clean_sbu_0, # of connection points: 4
#     Node 2, Type 0, BuildingBlock: AZAVOO_clean_sbu_0, # of connection points: 4
#     Node 3, Type 0, BuildingBlock: AZAVOO_clean_sbu_0, # of connection points: 4
#     Node 4, Type 0, BuildingBlock: AZAVOO_clean_sbu_0, # of connection points: 4
#     Node 5, Type 0, BuildingBlock: AZAVOO_clean_sbu_0, # of connection points: 4
#     Node 6, Type 0, BuildingBlock: AZAVOO_clean_sbu_0, # of connection points: 4
#     Node 7, Type 0, BuildingBlock: AZAVOO_clean_sbu_0, # of connection points: 4
#     Node 8, Type 0, BuildingBlock: AZAVOO_clean_sbu_0, # of connection points: 4
#     Edge 9, Type (0, 0), BuildingBlock: UVAHIK_clean_linker_0, # of connection points: 2
#     Edge 10, Type (0, 0), BuildingBlock: UVAHIK_clean_linker_0, # of connection points: 2
#     Edge 11, Type (0, 0), BuildingBlock: UVAHIK_clean_linker_0, # of connection points: 2
#     Edge 12, Type (0, 0), BuildingBlock: UVAHIK_clean_linker_0, # of connection points: 2
#     Edge 13, Type (0, 0), BuildingBlock: UVAHIK_clean_linker_0, # of connection points: 2
#     Edge 14, Type (0, 0), BuildingBlock: UVAHIK_clean_linker_0, # of connection points: 2
#     Edge 15, Type (0, 0), BuildingBlock: UVAHIK_clean_linker_0, # of connection points: 2
#     Edge 16, Type (0, 0), BuildingBlock: UVAHIK_clean_linker_0, # of connection points: 2
#     Edge 17, Type (0, 0), BuildingBlock: UVAHIK_clean_linker_0, # of connection points: 2
#     Edge 18, Type (0, 0), BuildingBlock: UVAHIK_clean_linker_0, # of connection points: 2
#     Edge 19, Type (0, 0), BuildingBlock: UVAHIK_clean_linker_0, # of connection points: 2
#     Edge 20, Type (0, 0), BuildingBlock: UVAHIK_clean_linker_0, # of connection points: 2
#     Edge 21, Type (0, 0), BuildingBlock: UVAHIK_clean_linker_0, # of connection points: 2
#     Edge 22, Type (0, 0), BuildingBlock: UVAHIK_clean_linker_0, # of connection points: 2
#     Edge 23, Type (0, 0), BuildingBlock: UVAHIK_clean_linker_0, # of connection points: 2
#     Edge 24, Type (0, 0), BuildingBlock: UVAHIK_clean_linker_0, # of connection points: 2
#     Edge 25, Type (0, 0), BuildingBlock: UVAHIK_clean_linker_0, # of connection points: 2
#     Edge 26, Type (0, 0), BuildingBlock: UVAHIK_clean_linker_0, # of connection points: 2
# Relax obj value: 0.307
# Max RMSD: 0.278
# Mean RMSD: 0.259
data_MOF--net-afw--node1-AZAVOO_clean_sbu_0--edge1-UVAHIK_clean_linker_0
_symmetry_space_group_name_H-M    P1
_symmetry_Int_Tables_number       1
_symmetry_cell_setting            triclinic
loop_
_symmetry_equiv_pos_as_xyz
'x, y, z'
_cell_length_a     51.124581
_cell_length_b     48.91449
_cell_length_c     46.638228
_cell_angle_alpha  90.292266
_cell_angle_beta   90.658707
_cell_angle_gamma 119.91923
loop_
_atom_site_label
_atom_site_type_symbol
_atom_site_fract_x
_atom_site_fract_y
_atom_site_fract_z
_atom_type_partial_charge
Mg0 Mg 0.04747 0.26142 0.02535 0.0
O1 O -0.00052 0.22072 0.0298 0.0
O2 O 0.96558 0.23669 0.02819 0.0
Mg3 Mg 0.99313 0.28966 0.0199 0.0
C4 C 0.97234 0.21502 0.031 0.0
C5 C 0.05496 0.20443 0.04034 0.0
O6 O 0.04051 0.20647 0.06263 0.0
O7 O 0.04044 0.26277 0.97699 0.0
O8 O 0.00731 0.28005 0.97636 0.0
O9 O 0.04852 0.26992 0.07253 0.0
O10 O 0.03362 0.29233 0.04009 0.0
C11 C 0.02356 0.2709 0.96345 0.0
C12 C 0.03654 0.28717 0.06662 0.0
O13 O 0.06238 0.22473 0.02059 0.0
Mg14 Mg 0.81864 0.83756 -0.00174 0.0
O15 O 0.81641 0.87977 0.01627 0.0
O16 O 0.7691 0.87075 0.01424 0.0
Mg17 Mg 0.74012 0.82075 -0.00357 0.0
C18 C 0.79702 0.88849 0.02043 0.0
C19 C 0.88822 0.88006 3e-05 0.0
O20 O 0.88137 0.88759 0.9752 0.0
O21 O 0.7991 0.81016 0.03934 0.0
O22 O 0.75159 0.80082 0.03595 0.0
O23 O 0.82302 0.85629 0.95399 0.0
O24 O 0.77943 0.82429 0.97404 0.0
C25 C 0.77238 0.7983 0.04899 0.0
C26 C 0.79386 0.84131 0.95253 0.0
O27 O 0.86715 0.85957 0.0153 0.0
Mg28 Mg 0.2361 0.98933 0.03521 0.0
O29 O 0.20194 0.00706 0.03292 0.0
O30 O 0.22774 0.05485 0.01313 0.0
Mg31 Mg 0.27732 0.06982 0.00775 0.0
C32 C 0.2034 0.03206 0.02288 0.0
C33 C 0.17303 0.92152 0.04649 0.0
O34 O 0.16093 0.89118 0.05119 0.0
O35 O 0.23371 0.98293 0.98664 0.0
O36 O 0.26312 0.03248 0.97209 0.0
O37 O 0.25096 0.0091 0.07959 0.0
O38 O 0.27118 0.03514 0.04003 0.0
C39 C 0.24718 0.0029 0.96686 0.0
C40 C 0.27075 0.0349 0.06756 0.0
O41 O 0.2011 0.93749 0.04164 0.0
Mg42 Mg 0.56784 0.52009 0.27761 0.0
O43 O 0.61704 0.53216 0.28298 0.0
O44 O 0.64762 0.58437 0.28165 0.0
Mg45 Mg 0.61698 0.60596 0.27874 0.0
C46 C 0.64342 0.55643 0.28349 0.0
C47 C 0.52733 0.44677 0.2826 0.0
O48 O 0.50863 0.45255 0.2678 0.0
O49 O 0.56776 0.53353 0.32444 0.0
O50 O 0.59889 0.58565 0.32288 0.0
O51 O 0.57476 0.52225 0.23027 0.0
O52 O 0.58196 0.56276 0.25741 0.0
C53 C 0.58209 0.56056 0.33674 0.0
C54 C 0.58467 0.55223 0.23297 0.0
O55 O 0.5531 0.46958 0.28983 0.0
Mg56 Mg 0.51666 0.09759 0.29174 0.0
O57 O 0.49782 0.13026 0.30222 0.0
O58 O 0.45094 0.11006 0.2845 0.0
Mg59 Mg 0.43774 0.06076 0.26772 0.0
C60 C 0.47416 0.13215 0.29729 0.0
C61 C 0.57108 0.15776 0.31676 0.0
O62 O 0.55948 0.16933 0.29849 0.0
O63 O 0.49088 0.06646 0.32901 0.0
O64 O 0.44325 0.04609 0.31322 0.0
O65 O 0.52935 0.12081 0.2495 0.0
O66 O 0.48547 0.07796 0.2581 0.0
C67 C 0.4625 0.0491 0.33251 0.0
C68 C 0.50207 0.10076 0.24125 0.0
O69 O 0.55818 0.12804 0.31982 0.0
Mg70 Mg 0.91832 0.45273 0.30222 0.0
O71 O 0.88035 0.40888 0.32314 0.0
O72 O 0.89666 0.37514 0.33283 0.0
Mg73 Mg 0.94542 0.39739 0.31755 0.0
C74 C 0.87608 0.3827 0.33306 0.0
C75 C 0.88713 0.49035 0.28628 0.0
O76 O 0.89911 0.48903 0.2619 0.0
O77 O 0.94252 0.47007 0.34563 0.0
O78 O 0.96053 0.43703 0.35067 0.0
O79 O 0.90325 0.42974 0.25884 0.0
O80 O 0.93597 0.42535 0.28702 0.0
C81 C 0.95841 0.46069 0.35916 0.0
C82 C 0.91983 0.41712 0.26387 0.0
O83 O 0.89182 0.47823 0.30838 0.0
Mg84 Mg 0.38408 0.92157 0.67989 0.0
O85 O 0.34154 0.87286 0.67643 0.0
O86 O 0.30116 0.87838 0.6694 0.0
Mg87 Mg 0.31849 0.93131 0.66673 0.0
C88 C 0.3131 0.8611 0.67303 0.0
C89 C 0.40702 0.87432 0.68978 0.0
O90 O 0.38497 0.86401 0.70824 0.0
O91 O 0.38336 0.9275 0.63192 0.0
O92 O 0.34369 0.93432 0.62503 0.0
O93 O 0.37701 0.92201 0.7265 0.0
O94 O 0.35766 0.94026 0.69422 0.0
C95 C 0.3661 0.93246 0.61549 0.0
C96 C 0.35932 0.93315 0.72054 0.0
O97 O 0.41299 0.89844 0.67498 0.0
Mg98 Mg 0.12667 0.46496 0.64535 0.0
O99 O 0.1366 0.51104 0.6671 0.0
O100 O 0.0941 0.51312 0.67037 0.0
Mg101 Mg 0.05598 0.46556 0.65327 0.0
C102 C 0.1226 0.52553 0.67401 0.0
C103 C 0.18704 0.46306 0.64609 0.0
O104 O 0.1736 0.44356 0.62439 0.0
O105 O 0.10722 0.43802 0.68601 0.0
O106 O 0.06372 0.43809 0.68948 0.0
O107 O 0.13288 0.48895 0.60387 0.0
O108 O 0.08879 0.46208 0.62534 0.0
C109 C 0.08256 0.43008 0.69874 0.0
C110 C 0.10456 0.48061 0.60507 0.0
O111 O 0.17342 0.47522 0.65885 0.0
Mg112 Mg 0.56958 0.64091 0.69567 0.0
O113 O 0.55708 0.6781 0.68269 0.0
O114 O 0.59836 0.72139 0.66816 0.0
Mg115 Mg 0.63737 0.71121 0.6711 0.0
C116 C 0.57016 0.70628 0.67337 0.0
C117 C 0.5017 0.60833 0.71054 0.0
O118 O 0.51249 0.63321 0.72757 0.0
O119 O 0.57287 0.63028 0.64907 0.0
O120 O 0.61512 0.67321 0.63567 0.0
O121 O 0.5796 0.66134 0.73956 0.0
O122 O 0.61332 0.67674 0.7051 0.0
C123 C 0.5925 0.64591 0.63025 0.0
C124 C 0.60636 0.68104 0.73055 0.0
O125 O 0.51979 0.60419 0.69513 0.0
C126 C 0.15649 0.02542 0.0459 0.0
C127 C 0.17653 0.0358 0.02288 0.0
C128 C 0.13413 0.03393 0.04773 0.0
C129 C 0.09598 0.06971 0.00648 0.0
H130 H 0.10108 0.11247 0.0783 0.0
C131 C 0.0763 0.17524 0.01408 0.0
C132 C 0.06191 0.17851 0.03826 0.0
C133 C 0.08313 0.15095 0.01244 0.0
C134 C 0.09884 0.10013 0.05827 0.0
H135 H 0.18766 0.06101 0.98277 0.0
H136 H 0.14882 0.0756 0.98576 0.0
H137 H 0.12394 0.07925 0.07481 0.0
H138 H 0.04277 0.15833 0.07942 0.0
H139 H 0.05485 0.11606 0.07654 0.0
H140 H 0.07212 0.09185 0.98958 0.0
C141 C 0.15013 0.06099 0.00245 0.0
C142 C 0.11186 0.08096 0.05631 0.0
C143 C 0.1726 0.05289 0.00084 0.0
C144 C 0.05408 0.15664 0.06056 0.0
C145 C 0.06101 0.13242 0.05896 0.0
C146 C 0.08304 0.08894 0.00842 0.0
C147 C 0.13124 0.0525 0.02632 0.0
C148 C 0.11156 0.0665 0.03009 0.0
C149 C 0.07579 0.12942 0.03497 0.0
C150 C 0.08526 0.10524 0.03406 0.0
H151 H 0.15913 0.01222 0.06316 0.0
H152 H 0.1197 0.02681 0.06625 0.0
H153 H 0.09494 0.05842 0.98612 0.0
H154 H 0.08256 0.19163 -0.00349 0.0
H155 H 0.09494 0.14958 -0.00616 0.0
C156 C 0.78919 0.93452 0.02946 0.0
C157 C 0.80775 0.92091 0.03121 0.0
C158 C 0.80069 0.96632 0.03663 0.0
C159 C 0.86545 0.03531 0.07217 0.0
H160 H 0.85538 0.08324 0.01136 0.0
C161 C 0.95627 0.15968 0.04467 0.0
C162 C 0.94836 0.1823 0.0366 0.0
C163 C 0.93409 0.1287 0.04981 0.0
C164 C 0.85788 0.07024 0.02888 0.0
H165 H 0.85234 0.9295 0.04349 0.0
H166 H 0.8723 0.98472 0.05581 0.0
H167 H 0.82443 0.02588 0.01098 0.0
H168 H 0.9108 0.19008 0.02792 0.0
H169 H 0.87179 0.13536 0.03651 0.0
H170 H 0.90001 0.07958 0.08922 0.0
C171 C 0.84886 0.9709 0.04904 0.0
C172 C 0.84014 0.03738 0.0287 0.0
C173 C 0.83748 0.93927 0.0417 0.0
C174 C 0.91762 0.17321 0.03406 0.0
C175 C 0.89532 0.14195 0.03896 0.0
C176 C 0.88317 0.06811 0.07234 0.0
C177 C 0.83082 0.98496 0.04596 0.0
C178 C 0.84465 0.01955 0.04969 0.0
C179 C 0.9034 0.11942 0.04685 0.0
C180 C 0.88041 0.08577 0.05005 0.0
H181 H 0.76614 0.92097 0.02154 0.0
H182 H 0.78624 0.97653 0.03424 0.0
H183 H 0.86899 0.02218 0.08893 0.0
H184 H 0.97967 0.16578 0.0469 0.0
H185 H 0.94104 0.11174 0.0553 0.0
C186 C 0.9279 0.89203 0.03781 0.0
C187 C 0.92016 0.89435 0.00931 0.0
C188 C 0.95813 0.90436 0.04605 0.0
C189 C 0.03754 0.95455 0.02098 0.0
H190 H 0.05194 0.89959 0.07008 0.0
C191 C 0.14528 0.94424 0.02149 0.0
C192 C 0.15361 0.9356 0.04715 0.0
C193 C 0.12028 0.94868 0.02064 0.0
C194 C 0.04847 0.91569 0.05686 0.0
H195 H 0.93804 0.91213 0.96725 0.0
H196 H 0.99048 0.93239 0.98124 0.0
H197 H 0.00082 0.88852 0.06165 0.0
H198 H 0.14421 0.92686 0.09228 0.0
H199 H 0.10115 0.93561 0.09114 0.0
H200 H 0.08542 0.98047 0.01488 0.0
C201 C 0.97345 0.9219 -0.00248 0.0
C202 C 0.01901 0.90933 0.05202 0.0
C203 C 0.94328 0.90998 0.98941 0.0
C204 C 0.13822 0.9338 0.07234 0.0
C205 C 0.11347 0.93851 0.07158 0.0
C206 C 0.06712 0.96072 0.0256 0.0
C207 C 0.98127 0.91885 0.02585 0.0
C208 C 0.01304 0.92827 0.03359 0.0
C209 C 0.10328 0.94437 0.04545 0.0
C210 C 0.07283 0.94104 0.04327 0.0
H211 H 0.91059 0.8805 0.05372 0.0
H212 H 0.96332 0.90213 0.06819 0.0
H213 H 0.03386 0.96999 0.00704 0.0
H214 H 0.15667 0.94523 0.00174 0.0
H215 H 0.11296 0.95306 0.00015 0.0
C216 C 0.85268 0.50385 0.31303 0.0
C217 C 0.86604 0.50277 0.28717 0.0
C218 C 0.83069 0.51289 0.31325 0.0
C219 C 0.77319 0.51318 0.2663 0.0
H220 H 0.76885 0.5677 0.32446 0.0
C221 C 0.66611 0.52137 0.28292 0.0
C222 C 0.6699 0.55181 0.28551 0.0
C223 C 0.69104 0.51695 0.28373 0.0
C224 C 0.7699 0.55258 0.30801 0.0
H225 H 0.86764 0.51154 0.24147 0.0
H226 H 0.82927 0.5272 0.24192 0.0
H227 H 0.81182 0.55857 0.32447 0.0
H228 H 0.70294 0.6014 0.29162 0.0
H229 H 0.74652 0.59352 0.2932 0.0
H230 H 0.7313 0.507 0.24989 0.0
C231 C 0.83561 0.52078 0.26194 0.0
C232 C 0.79433 0.54719 0.30814 0.0
C233 C 0.8577 0.51195 0.26174 0.0
C234 C 0.69921 0.57765 0.28948 0.0
C235 C 0.72416 0.57316 0.29054 0.0
C236 C 0.74869 0.51832 0.26633 0.0
C237 C 0.82152 0.52083 0.2876 0.0
C238 C 0.79618 0.52742 0.28727 0.0
C239 C 0.72032 0.54279 0.28737 0.0
C240 C 0.74673 0.53797 0.28723 0.0
H241 H 0.85865 0.49697 0.333 0.0
H242 H 0.82007 0.51254 0.33331 0.0
H243 H 0.77384 0.49756 0.25014 0.0
H244 H 0.64389 0.50091 0.27988 0.0
H245 H 0.68739 0.49323 0.28158 0.0
C246 C 0.49951 0.18608 0.3198 0.0
C247 C 0.47516 0.16232 0.3039 0.0
C248 C 0.50292 0.21612 0.32257 0.0
C249 C 0.46447 0.26285 0.31217 0.0
H250 H 0.5456 0.3305 0.29722 0.0
C251 C 0.49203 0.38834 0.27937 0.0
C252 C 0.51914 0.41403 0.28976 0.0
C253 C 0.48521 0.3574 0.28481 0.0
C254 C 0.52291 0.31201 0.30192 0.0
H255 H 0.43442 0.15111 0.27971 0.0
H256 H 0.44058 0.20366 0.28433 0.0
H257 H 0.53589 0.27675 0.301 0.0
H258 H 0.55979 0.42738 0.31497 0.0
H259 H 0.54772 0.37352 0.32471 0.0
H260 H 0.45149 0.29829 0.31253 0.0
C261 C 0.4569 0.19896 0.29486 0.0
C262 C 0.51734 0.28114 0.30411 0.0
C263 C 0.45342 0.16883 0.29215 0.0
C264 C 0.53884 0.40813 0.30641 0.0
C265 C 0.53199 0.37724 0.3119 0.0
C266 C 0.47007 0.29383 0.30999 0.0
C267 C 0.48214 0.22317 0.30944 0.0
C268 C 0.48804 0.25614 0.30906 0.0
C269 C 0.50532 0.3515 0.3008 0.0
C270 C 0.49934 0.31874 0.30463 0.0
H271 H 0.5165 0.1818 0.32943 0.0
H272 H 0.52229 0.23409 0.33444 0.0
H273 H 0.44171 0.24415 0.31626 0.0
H274 H 0.47635 0.39208 0.26649 0.0
H275 H 0.46462 0.33812 0.27569 0.0
C276 C 0.61258 0.21181 0.32983 0.0
C277 C 0.6004 0.17899 0.33098 0.0
C278 C 0.64186 0.23222 0.33987 0.0
C279 C 0.71385 0.23487 0.34697 0.0
H280 H 0.73952 0.31677 0.38171 0.0
C281 C 0.83942 0.32972 0.35301 0.0
C282 C 0.84565 0.35954 0.34333 0.0
C283 C 0.80995 0.30674 0.3597 0.0
C284 C 0.73271 0.29398 0.37202 0.0
H285 H 0.60873 0.14177 0.34508 0.0
H286 H 0.66015 0.17759 0.36251 0.0
H287 H 0.68587 0.27741 0.37923 0.0
H288 H 0.82591 0.38903 0.33453 0.0
H289 H 0.77471 0.34895 0.34565 0.0
H290 H 0.76038 0.2518 0.33842 0.0
C291 C 0.64701 0.18744 0.35365 0.0
C292 C 0.70203 0.27144 0.37066 0.0
C293 C 0.61755 0.16697 0.34378 0.0
C294 C 0.82198 0.36631 0.34182 0.0
C295 C 0.79257 0.34335 0.34845 0.0
C296 C 0.74451 0.25743 0.34822 0.0
C297 C 0.65969 0.22027 0.35116 0.0
C298 C 0.69222 0.242 0.35734 0.0
C299 C 0.78608 0.31307 0.35686 0.0
C300 C 0.75422 0.28759 0.35996 0.0
H301 H 0.59985 0.2218 0.32027 0.0
H302 H 0.65105 0.25737 0.33737 0.0
H303 H 0.707 0.21254 0.33627 0.0
H304 H 0.85713 0.32376 0.35467 0.0
H305 H 0.80577 0.28379 0.36651 0.0
C306 C 0.45015 0.87046 0.6691 0.0
C307 C 0.42393 0.85739 0.68566 0.0
C308 C 0.4659 0.8542 0.66512 0.0
C309 C 0.45665 0.77473 0.66673 0.0
H310 H 0.54342 0.8186 0.67879 0.0
C311 C 0.52293 0.7088 0.68075 0.0
C312 C 0.5524 0.72252 0.67014 0.0
C313 C 0.50699 0.7251 0.67979 0.0
C314 C 0.51927 0.80607 0.67482 0.0
H315 H 0.39351 0.8169 0.71081 0.0
H316 H 0.42093 0.78855 0.70375 0.0
H317 H 0.51627 0.84763 0.68248 0.0
H318 H 0.58774 0.76371 0.64917 0.0
H319 H 0.55964 0.79182 0.64691 0.0
H320 H 0.45954 0.73319 0.65898 0.0
C321 C 0.42925 0.81131 0.69379 0.0
C322 C 0.50373 0.82272 0.67704 0.0
C323 C 0.41369 0.82767 0.698 0.0
C324 C 0.56518 0.75253 0.65774 0.0
C325 C 0.54913 0.76875 0.65661 0.0
C326 C 0.47221 0.75812 0.66428 0.0
C327 C 0.45553 0.82441 0.67735 0.0
C328 C 0.47222 0.80713 0.67339 0.0
C329 C 0.52 0.75543 0.668 0.0
C330 C 0.50367 0.77349 0.66866 0.0
H331 H 0.4586 0.8933 0.65928 0.0
H332 H 0.48599 0.86476 0.6522 0.0
H333 H 0.43241 0.76221 0.66338 0.0
H334 H 0.5124 0.68577 0.69055 0.0
H335 H 0.48479 0.71426 0.68914 0.0
C336 C 0.30579 0.80684 0.67918 0.0
C337 C 0.29332 0.82643 0.67468 0.0
C338 C 0.28716 0.7743 0.68196 0.0
C339 C 0.20908 0.71327 0.6988 0.0
H340 H 0.23141 0.65729 0.66101 0.0
C341 C 0.12818 0.57898 0.682 0.0
C342 C 0.14075 0.55915 0.68279 0.0
C343 C 0.14665 0.61169 0.68495 0.0
C344 C 0.22507 0.67257 0.67211 0.0
H345 H 0.25133 0.82697 0.66931 0.0
H346 H 0.21888 0.77012 0.67373 0.0
H347 H 0.26383 0.71405 0.65712 0.0
H348 H 0.18223 0.55795 0.68972 0.0
H349 H 0.21421 0.61477 0.69535 0.0
H350 H 0.17003 0.67158 0.71345 0.0
C351 C 0.2431 0.78005 0.67556 0.0
C352 C 0.24365 0.70514 0.66982 0.0
C353 C 0.26174 0.81263 0.67278 0.0
C354 C 0.17183 0.57254 0.68862 0.0
C355 C 0.19022 0.60515 0.69166 0.0
C356 C 0.19043 0.68061 0.70109 0.0
C357 C 0.2556 0.76053 0.68025 0.0
C358 C 0.23586 0.72589 0.68306 0.0
C359 C 0.17802 0.62517 0.68885 0.0
C360 C 0.19823 0.6599 0.68773 0.0
H361 H 0.32999 0.8166 0.68084 0.0
H362 H 0.29751 0.75998 0.68587 0.0
H363 H 0.20265 0.72865 0.70959 0.0
H364 H 0.10434 0.56947 0.67751 0.0
H365 H 0.13654 0.62646 0.6826 0.0
C366 C 0.23227 0.49293 0.67817 0.0
C367 C 0.21816 0.47193 0.655 0.0
C368 C 0.2621 0.50261 0.68588 0.0
C369 C 0.33209 0.5123 0.65575 0.0
H370 H 0.35903 0.52625 0.7353 0.0
C371 C 0.4571 0.56206 0.68725 0.0
C372 C 0.46877 0.58703 0.70737 0.0
C373 C 0.426 0.54364 0.68249 0.0
C374 C 0.35184 0.52255 0.713 0.0
H375 H 0.22408 0.44397 0.62218 0.0
H376 H 0.27627 0.46079 0.63579 0.0
H377 H 0.30522 0.50153 0.7238 0.0
H378 H 0.4569 0.61154 0.73898 0.0
H379 H 0.40267 0.57954 0.73054 0.0
H380 H 0.37871 0.5339 0.64491 0.0
C381 C 0.26427 0.47001 0.64778 0.0
C382 C 0.32106 0.50842 0.70641 0.0
C383 C 0.23435 0.46028 0.64007 0.0
C384 C 0.44864 0.59249 0.72333 0.0
C385 C 0.41754 0.57402 0.71861 0.0
C386 C 0.36286 0.52639 0.66234 0.0
C387 C 0.27855 0.49151 0.67061 0.0
C388 C 0.31089 0.50365 0.6777 0.0
C389 C 0.40591 0.54974 0.69781 0.0
C390 C 0.3731 0.53214 0.69102 0.0
H391 H 0.22045 0.50237 0.69014 0.0
H392 H 0.27256 0.51954 0.7033 0.0
H393 H 0.32504 0.50936 0.63342 0.0
H394 H 0.472 0.55714 0.67469 0.0
H395 H 0.41767 0.52483 0.66659 0.0
C396 C 0.00119 0.27344 0.91664 0.0
C397 C 0.02521 0.2739 0.93197 0.0
C398 C 0.00499 0.28398 0.88849 0.0
C399 C 0.05561 0.3097 0.82603 0.0
H400 H 0.02864 0.3708 0.81888 0.0
C401 C 0.09629 0.40292 0.73654 0.0
C402 C 0.07506 0.40998 0.7244 0.0
C403 C 0.08894 0.38329 0.76031 0.0
C404 C 0.0359 0.35348 0.82025 0.0
H405 H 0.07114 0.28298 0.9291 0.0
H406 H 0.07797 0.30188 0.8798 0.0
H407 H 0.01694 0.33913 0.86171 0.0
H408 H 0.02931 0.40158 0.72758 0.0
H409 H 0.01643 0.36711 0.76873 0.0
H410 H 0.07491 0.32453 0.78452 0.0
C411 C 0.05614 0.29319 0.88954 0.0
C412 C 0.02915 0.33526 0.84482 0.0
C413 C 0.05224 0.28235 0.91776 0.0
C414 C 0.04631 0.39688 0.73652 0.0
C415 C 0.03893 0.37716 0.76018 0.0
C416 C 0.06229 0.32793 0.80129 0.0
C417 C 0.03298 0.29548 0.87516 0.0
C418 C 0.03894 0.3132 0.84805 0.0
C419 C 0.06018 0.37021 0.77241 0.0
C420 C 0.05258 0.35012 0.7982 0.0
H421 H 0.97993 0.26657 0.92694 0.0
H422 H 0.98647 0.28468 0.87766 0.0
H423 H 0.06337 0.29283 0.82791 0.0
H424 H 0.11868 0.41264 0.72778 0.0
H425 H 0.10598 0.37881 0.76948 0.0
C426 C 0.74592 0.82668 0.926 0.0
C427 C 0.77759 0.84229 0.92657 0.0
C428 C 0.73019 0.82277 0.90033 0.0
C429 C 0.70076 0.82049 0.84317 0.0
H430 H 0.72693 0.77781 0.79035 0.0
C431 C 0.65644 0.7299 0.73827 0.0
C432 C 0.62728 0.70892 0.74797 0.0
C433 C 0.67646 0.75581 0.75511 0.0
C434 C 0.71956 0.79033 0.80431 0.0
H435 H 0.81771 0.86825 0.90107 0.0
H436 H 0.79004 0.86081 0.8559 0.0
H437 H 0.76031 0.80958 0.82924 0.0
H438 H 0.59598 0.69904 0.78264 0.0
H439 H 0.63118 0.74348 0.81246 0.0
H440 H 0.65935 0.79988 0.81895 0.0
C441 C 0.77749 0.85168 0.87544 0.0
C442 C 0.73879 0.80865 0.82663 0.0
C443 C 0.79328 0.85591 0.90127 0.0
C444 C 0.61833 0.71473 0.77458 0.0
C445 C 0.6384 0.74049 0.79152 0.0
C446 C 0.68155 0.80229 0.82071 0.0
C447 C 0.7458 0.83409 0.87461 0.0
C448 C 0.72903 0.82267 0.84705 0.0
C449 C 0.66784 0.7611 0.78214 0.0
C450 C 0.69022 0.78581 0.80186 0.0
H451 H 0.73309 0.81588 0.945 0.0
H452 H 0.70579 0.80875 0.90036 0.0
H453 H 0.69287 0.83142 0.85844 0.0
H454 H 0.66413 0.72605 0.71793 0.0
H455 H 0.69888 0.77137 0.74717 0.0
C456 C 0.34376 0.92917 0.77159 0.0
C457 C 0.34026 0.93548 0.74291 0.0
C458 C 0.3262 0.93175 0.79294 0.0
C459 C 0.28076 0.96976 0.80789 0.0
H460 H 0.26174 0.91904 0.87629 0.0
C461 C 0.26447 0.01308 0.91621 0.0
C462 C 0.24678 0.99153 0.93728 0.0
C463 C 0.26804 0.00249 0.88956 0.0
C464 C 0.26618 0.93301 0.85715 0.0
H465 H 0.31529 0.94923 0.71417 0.0
H466 H 0.2838 0.95243 0.75111 0.0
H467 H 0.28235 0.90604 0.8352 0.0
H468 H 0.21702 0.94193 0.94601 0.0
H469 H 0.22268 0.92341 0.89904 0.0
H470 H 0.26412 0.99639 0.82966 0.0
C471 C 0.30058 0.94614 0.75728 0.0
C472 C 0.27856 0.92589 0.8337 0.0
C473 C 0.3185 0.94402 0.73598 0.0
C474 C 0.23108 0.95916 0.93037 0.0
C475 C 0.23448 0.94853 0.9035 0.0
C476 C 0.26796 0.97658 0.83116 0.0
C477 C 0.30438 0.94031 0.78609 0.0
C478 C 0.28706 0.94489 0.8092 0.0
C479 C 0.25375 0.97005 0.88311 0.0
C480 C 0.2616 0.95906 0.85649 0.0
H481 H 0.36046 0.92271 0.7777 0.0
H482 H 0.33034 0.92781 0.81494 0.0
H483 H 0.28704 0.98502 0.78948 0.0
H484 H 0.27682 0.03822 0.92067 0.0
H485 H 0.2834 0.01982 0.87467 0.0
C486 C 0.46663 0.08284 0.19964 0.0
C487 C 0.48784 0.10763 0.21701 0.0
C488 C 0.44916 0.08817 0.17974 0.0
C489 C 0.40949 0.12895 0.17265 0.0
H490 H 0.39757 0.10001 0.09352 0.0
C491 C 0.31962 0.08567 0.07049 0.0
C492 C 0.29491 0.06113 0.0845 0.0
C493 C 0.34639 0.10515 0.0856 0.0
C494 C 0.40098 0.10901 0.11533 0.0
H495 H 0.50778 0.15736 0.22746 0.0
H496 H 0.47612 0.16643 0.19312 0.0
H497 H 0.44183 0.10728 0.12033 0.0
H498 H 0.27744 0.0405 0.12587 0.0
H499 H 0.32415 0.07446 0.15223 0.0
H500 H 0.3672 0.12798 0.16839 0.0
C501 C 0.47379 0.14321 0.19439 0.0
C502 C 0.42624 0.11299 0.13065 0.0
C503 C 0.49193 0.13806 0.21377 0.0
C504 C 0.2962 0.05897 0.11444 0.0
C505 C 0.32295 0.0786 0.12958 0.0
C506 C 0.38389 0.12448 0.15744 0.0
C507 C 0.45206 0.11817 0.17751 0.0
C508 C 0.43007 0.12184 0.15968 0.0
C509 C 0.3488 0.10057 0.11498 0.0
C510 C 0.37886 0.11331 0.12895 0.0
H511 H 0.46289 0.05914 0.20212 0.0
H512 H 0.43222 0.06844 0.16716 0.0
H513 H 0.41198 0.13558 0.19515 0.0
H514 H 0.31926 0.0882 0.04746 0.0
H515 H 0.36589 0.1222 0.07392 0.0
C516 C 0.0164 0.28318 0.11613 0.0
C517 C 0.02241 0.29682 0.08884 0.0
C518 C 0.00053 0.29061 0.13602 0.0
C519 C 0.98342 0.32705 0.17817 0.0
H520 H 0.91578 0.33559 0.15115 0.0
C521 C 0.92127 0.39908 0.21421 0.0
C522 C 0.92068 0.39429 0.24386 0.0
C523 C 0.92775 0.38089 0.19552 0.0
C524 C 0.93462 0.33334 0.15899 0.0
H525 H 0.01778 0.32992 0.06141 0.0
H526 H 0.99036 0.34288 0.09598 0.0
H527 H 0.94012 0.31637 0.11841 0.0
H528 H 0.92252 0.36441 0.27698 0.0
H529 H 0.93361 0.33255 0.24452 0.0
H530 H 0.97872 0.345 0.21842 0.0
C531 C 0.99716 0.3259 0.10182 0.0
C532 C 0.94855 0.32235 0.14029 0.0
C533 C 0.01304 0.31859 0.08209 0.0
C534 C 0.92406 0.36939 0.25434 0.0
C535 C 0.93027 0.35106 0.23572 0.0
C536 C 0.96955 0.3381 0.19686 0.0
C537 C 0.99041 0.31172 0.12884 0.0
C538 C 0.97352 0.3198 0.14953 0.0
C539 C 0.93339 0.35743 0.20625 0.0
C540 C 0.94541 0.34198 0.18731 0.0
H541 H 0.02328 0.26623 0.12187 0.0
H542 H 0.99563 0.27936 0.15674 0.0
H543 H 0.00278 0.32559 0.1858 0.0
H544 H 0.91864 0.41814 0.20566 0.0
H545 H 0.93011 0.3865 0.17293 0.0
C546 C 0.6229 0.56864 0.19416 0.0
C547 C 0.60413 0.57493 0.21141 0.0
C548 C 0.64553 0.59273 0.17802 0.0
C549 C 0.69001 0.68014 0.17638 0.0
H550 H 0.70932 0.66796 0.09894 0.0
C551 C 0.74173 0.77705 0.09268 0.0
C552 C 0.76365 0.77793 0.07429 0.0
C553 C 0.72846 0.75344 0.11305 0.0
C554 C 0.70458 0.67154 0.12079 0.0
H555 H 0.59281 0.61041 0.22397 0.0
H556 H 0.63121 0.65191 0.19509 0.0
H557 H 0.67164 0.62273 0.12552 0.0
H558 H 0.78997 0.75584 0.06347 0.0
H559 H 0.76605 0.71376 0.09889 0.0
H560 H 0.7218 0.72919 0.17103 0.0
C561 C 0.62942 0.62889 0.19473 0.0
C562 C 0.68296 0.64567 0.13598 0.0
C563 C 0.60714 0.60502 0.21099 0.0
C564 C 0.77331 0.7558 0.07763 0.0
C565 C 0.7595 0.73165 0.09766 0.0
C566 C 0.71134 0.70595 0.16112 0.0
C567 C 0.64954 0.62337 0.17879 0.0
C568 C 0.67478 0.64987 0.16364 0.0
C569 C 0.73643 0.72987 0.11501 0.0
C570 C 0.71825 0.70202 0.13293 0.0
H571 H 0.62124 0.54568 0.1944 0.0
H572 H 0.66065 0.5877 0.16596 0.0
H573 H 0.68492 0.68405 0.19798 0.0
H574 H 0.73388 0.79384 0.09043 0.0
H575 H 0.71057 0.75247 0.12602 0.0
C576 C 0.05983 0.47716 0.57978 0.0
C577 C 0.09109 0.49336 0.58491 0.0
C578 C 0.04724 0.48749 0.55876 0.0
C579 C 0.07026 0.53211 0.49175 0.0
H580 H 0.98454 0.50319 0.48784 0.0
C581 C 0.96843 0.49662 0.40189 0.0
C582 C 0.9762 0.47801 0.38486 0.0
C583 C 0.98485 0.51099 0.42718 0.0
C584 C 0.00868 0.51228 0.4887 0.0
H585 H 0.13346 0.53462 0.57413 0.0
H586 H 0.11142 0.5535 0.53818 0.0
H587 H 0.00873 0.50697 0.53419 0.0
H588 H 0.00807 0.46125 0.38008 0.0
H589 H 0.03617 0.48582 0.42359 0.0
H590 H 0.07006 0.53688 0.44627 0.0
C591 C 0.09666 0.53207 0.54949 0.0
C592 C 0.02249 0.51396 0.51522 0.0
C593 C 0.10933 0.5213 0.57009 0.0
C594 C 0.00127 0.47515 0.39285 0.0
C595 C 0.01771 0.48966 0.41767 0.0
C596 C 0.05658 0.53093 0.46542 0.0
C597 C 0.06559 0.51466 0.54277 0.0
C598 C 0.05302 0.52186 0.51678 0.0
C599 C 0.00955 0.50741 0.43534 0.0
C600 C 0.02529 0.51891 0.4634 0.0
H601 H 0.04524 0.45559 0.59103 0.0
H602 H 0.02334 0.47305 0.55404 0.0
H603 H 0.09378 0.53843 0.49184 0.0
H604 H 0.94922 0.49925 0.39616 0.0
H605 H 0.97803 0.52447 0.44051 0.0
C606 C 0.60204 0.5911 0.38235 0.0
C607 C 0.58062 0.56328 0.36818 0.0
C608 C 0.60161 0.59406 0.41198 0.0
C609 C 0.55309 0.56827 0.47335 0.0
H610 H 0.62921 0.60506 0.51554 0.0
C611 C 0.56479 0.60192 0.59434 0.0
C612 C 0.58936 0.63187 0.60136 0.0
C613 C 0.56227 0.58865 0.56711 0.0
C614 C 0.60779 0.59483 0.50406 0.0
H615 H 0.54173 0.51678 0.37406 0.0
H616 H 0.54071 0.52235 0.42634 0.0
H617 H 0.62715 0.58988 0.46536 0.0
H618 H 0.63037 0.67142 0.58512 0.0
H619 H 0.62577 0.64848 0.53779 0.0
H620 H 0.534 0.57446 0.51181 0.0
C621 C 0.5579 0.54165 0.4142 0.0
C622 C 0.60661 0.58604 0.47542 0.0
C623 C 0.55855 0.53848 0.38439 0.0
C624 C 0.61123 0.64826 0.58055 0.0
C625 C 0.60873 0.635 0.55345 0.0
C626 C 0.5543 0.57722 0.50209 0.0
C627 C 0.57963 0.56941 0.4282 0.0
C628 C 0.57947 0.57359 0.45958 0.0
C629 C 0.58433 0.60501 0.54647 0.0
C630 C 0.58189 0.5915 0.51742 0.0
H631 H 0.61944 0.61065 0.37061 0.0
H632 H 0.61833 0.61591 0.4222 0.0
H633 H 0.53194 0.55885 0.46151 0.0
H634 H 0.54754 0.58864 0.60988 0.0
H635 H 0.54328 0.56545 0.56234 0.0
C636 C 0.35263 0.93887 0.5651 0.0
C637 C 0.37335 0.93816 0.5847 0.0
C638 C 0.36045 0.94677 0.53651 0.0
C639 C 0.41752 0.9577 0.48198 0.0
H640 H 0.39261 0.01337 0.44777 0.0
C641 C 0.47124 0.03185 0.38059 0.0
C642 C 0.45128 0.0326 0.36002 0.0
C643 C 0.46055 0.01729 0.40696 0.0
C644 C 0.39946 0.99755 0.45692 0.0
H645 H 0.41829 0.94437 0.58942 0.0
H646 H 0.43221 0.95897 0.53987 0.0
H647 H 0.37571 0.99299 0.49556 0.0
H648 H 0.40432 0.01812 0.35093 0.0
H649 H 0.38589 0.99304 0.39697 0.0
H650 H 0.4421 0.96328 0.44345 0.0
C651 C 0.40967 0.95282 0.54636 0.0
C652 C 0.38967 0.98573 0.48428 0.0
C653 C 0.40174 0.9446 0.57487 0.0
C654 C 0.42037 0.01805 0.36626 0.0
C655 C 0.40978 0.00378 0.39268 0.0
C656 C 0.42756 0.9698 0.45469 0.0
C657 C 0.3893 0.95447 0.52692 0.0
C658 C 0.39865 0.96573 0.49722 0.0
C659 C 0.42978 0.00349 0.41337 0.0
C660 C 0.41867 0.98991 0.44196 0.0
H661 H 0.33045 0.9337 0.5719 0.0
H662 H 0.34396 0.94715 0.52198 0.0
H663 H 0.42451 0.94199 0.49111 0.0
H664 H 0.49516 0.04275 0.37644 0.0
H665 H 0.47649 0.01757 0.42264 0.0
loop_
_geom_bond_atom_site_label_1
_geom_bond_atom_site_label_2
_geom_bond_distance
_geom_bond_site_symmetry_2
_ccdc_geom_bond_type
Mg0 O1 2.028 1_455 S
Mg0 O7 1.986 1_554 S
Mg0 O9 2.114 . S
Mg0 O10 2.251 1_455 S
Mg0 O13 2.010 . S
O1 Mg0 2.028 1_655 S
O1 C4 1.251 . S
O2 Mg3 2.028 . S
O2 C4 1.247 1_556 S
Mg3 O2 2.028 . S
Mg3 O8 2.032 . S
Mg3 O10 2.079 1_556 S
C4 O1 1.251 . S
C4 O2 1.247 1_554 S
C5 O6 1.264 . S
C5 O13 1.249 . S
O6 C5 1.264 . S
O7 Mg0 1.986 1_556 S
O7 C11 1.246 . S
O8 Mg3 2.032 . S
O8 C11 1.259 1_655 S
O9 Mg0 2.114 . S
O9 C12 1.252 . S
O10 Mg0 2.251 1_655 S
O10 Mg3 2.079 1_554 S
O10 C12 1.273 1_655 S
C11 O7 1.246 . S
C11 O8 1.259 1_455 S
C12 O9 1.252 . S
C12 O10 1.273 1_455 S
O13 Mg0 2.010 . S
O13 C5 1.249 . S
Mg14 O15 2.028 . S
Mg14 O21 1.986 . S
Mg14 O23 2.114 1_554 S
Mg14 O24 2.251 1_554 S
Mg14 O27 2.010 . S
O15 Mg14 2.028 . S
O15 C18 1.250 . S
O16 Mg17 2.028 . S
O16 C18 1.248 . S
Mg17 O16 2.028 . S
Mg17 O22 2.032 . S
Mg17 O24 2.079 1_554 S
C18 O15 1.250 . S
C18 O16 1.248 . S
C19 O20 1.264 . S
C19 O27 1.249 1_556 S
O20 C19 1.264 . S
O21 Mg14 1.986 . S
O21 C25 1.246 . S
O22 Mg17 2.032 . S
O22 C25 1.259 . S
O23 Mg14 2.114 1_556 S
O23 C26 1.252 . S
O24 Mg14 2.251 1_556 S
O24 Mg17 2.079 1_556 S
O24 C26 1.273 . S
C25 O21 1.246 . S
C25 O22 1.259 . S
C26 O23 1.252 . S
C26 O24 1.273 . S
O27 Mg14 2.010 . S
O27 C19 1.249 1_554 S
Mg28 O29 2.028 . S
Mg28 O35 1.986 1_544 S
Mg28 O37 2.114 . S
Mg28 O38 2.251 . S
Mg28 O41 2.010 1_545 S
O29 Mg28 2.028 . S
O29 C32 1.245 1_554 S
O30 Mg31 2.028 . S
O30 C32 1.251 . S
Mg31 O30 2.028 . S
Mg31 O36 2.032 . S
Mg31 O38 2.079 1_556 S
C32 O29 1.245 1_556 S
C32 O30 1.251 . S
C33 O34 1.264 . S
C33 O41 1.249 . S
O34 C33 1.264 . S
O35 Mg28 1.986 1_566 S
O35 C39 1.246 1_565 S
O36 Mg31 2.032 . S
O36 C39 1.259 . S
O37 Mg28 2.114 . S
O37 C40 1.252 . S
O38 Mg28 2.251 . S
O38 Mg31 2.079 1_554 S
O38 C40 1.273 . S
C39 O35 1.246 1_545 S
C39 O36 1.259 . S
C40 O37 1.252 . S
C40 O38 1.273 . S
O41 Mg28 2.010 1_565 S
O41 C33 1.249 . S
Mg42 O43 2.028 . S
Mg42 O49 1.986 . S
Mg42 O51 2.114 . S
Mg42 O52 2.251 . S
Mg42 O55 2.010 . S
O43 Mg42 2.028 . S
O43 C46 1.250 . S
O44 Mg45 2.028 . S
O44 C46 1.248 . S
Mg45 O44 2.028 . S
Mg45 O50 2.032 . S
Mg45 O52 2.079 . S
C46 O43 1.250 . S
C46 O44 1.248 . S
C47 O48 1.264 . S
C47 O55 1.249 . S
O48 C47 1.264 . S
O49 Mg42 1.986 . S
O49 C53 1.246 . S
O50 Mg45 2.032 . S
O50 C53 1.259 . S
O51 Mg42 2.114 . S
O51 C54 1.252 . S
O52 Mg42 2.251 . S
O52 Mg45 2.079 . S
O52 C54 1.273 . S
C53 O49 1.246 . S
C53 O50 1.259 . S
C54 O51 1.252 . S
C54 O52 1.273 . S
O55 Mg42 2.010 . S
O55 C47 1.249 . S
Mg56 O57 2.028 . S
Mg56 O63 1.986 . S
Mg56 O65 2.114 . S
Mg56 O66 2.251 . S
Mg56 O69 2.010 . S
O57 Mg56 2.028 . S
O57 C60 1.250 . S
O58 Mg59 2.028 . S
O58 C60 1.248 . S
Mg59 O58 2.028 . S
Mg59 O64 2.032 . S
Mg59 O66 2.079 . S
C60 O57 1.250 . S
C60 O58 1.248 . S
C61 O62 1.264 . S
C61 O69 1.249 . S
O62 C61 1.264 . S
O63 Mg56 1.986 . S
O63 C67 1.246 . S
O64 Mg59 2.032 . S
O64 C67 1.259 . S
O65 Mg56 2.114 . S
O65 C68 1.252 . S
O66 Mg56 2.251 . S
O66 Mg59 2.079 . S
O66 C68 1.273 . S
C67 O63 1.246 . S
C67 O64 1.259 . S
C68 O65 1.252 . S
C68 O66 1.273 . S
O69 Mg56 2.010 . S
O69 C61 1.249 . S
Mg70 O71 2.028 . S
Mg70 O77 1.986 . S
Mg70 O79 2.114 . S
Mg70 O80 2.251 . S
Mg70 O83 2.010 . S
O71 Mg70 2.028 . S
O71 C74 1.250 . S
O72 Mg73 2.028 . S
O72 C74 1.248 . S
Mg73 O72 2.028 . S
Mg73 O78 2.032 . S
Mg73 O80 2.079 . S
C74 O71 1.250 . S
C74 O72 1.248 . S
C75 O76 1.264 . S
C75 O83 1.249 . S
O76 C75 1.264 . S
O77 Mg70 1.986 . S
O77 C81 1.246 . S
O78 Mg73 2.032 . S
O78 C81 1.259 . S
O79 Mg70 2.114 . S
O79 C82 1.252 . S
O80 Mg70 2.251 . S
O80 Mg73 2.079 . S
O80 C82 1.273 . S
C81 O77 1.246 . S
C81 O78 1.259 . S
C82 O79 1.252 . S
C82 O80 1.273 . S
O83 Mg70 2.010 . S
O83 C75 1.249 . S
Mg84 O85 2.028 . S
Mg84 O91 1.986 . S
Mg84 O93 2.114 . S
Mg84 O94 2.251 . S
Mg84 O97 2.010 . S
O85 Mg84 2.028 . S
O85 C88 1.250 . S
O86 Mg87 2.028 . S
O86 C88 1.248 . S
Mg87 O86 2.028 . S
Mg87 O92 2.032 . S
Mg87 O94 2.079 . S
C88 O85 1.250 . S
C88 O86 1.248 . S
C89 O90 1.264 . S
C89 O97 1.249 . S
O90 C89 1.264 . S
O91 Mg84 1.986 . S
O91 C95 1.246 . S
O92 Mg87 2.032 . S
O92 C95 1.259 . S
O93 Mg84 2.114 . S
O93 C96 1.252 . S
O94 Mg84 2.251 . S
O94 Mg87 2.079 . S
O94 C96 1.273 . S
C95 O91 1.246 . S
C95 O92 1.259 . S
C96 O93 1.252 . S
C96 O94 1.273 . S
O97 Mg84 2.010 . S
O97 C89 1.249 . S
Mg98 O99 2.028 . S
Mg98 O105 1.986 . S
Mg98 O107 2.114 . S
Mg98 O108 2.251 . S
Mg98 O111 2.010 . S
O99 Mg98 2.028 . S
O99 C102 1.250 . S
O100 Mg101 2.028 . S
O100 C102 1.248 . S
Mg101 O100 2.028 . S
Mg101 O106 2.032 . S
Mg101 O108 2.079 . S
C102 O99 1.250 . S
C102 O100 1.248 . S
C103 O104 1.264 . S
C103 O111 1.249 . S
O104 C103 1.264 . S
O105 Mg98 1.986 . S
O105 C109 1.246 . S
O106 Mg101 2.032 . S
O106 C109 1.259 . S
O107 Mg98 2.114 . S
O107 C110 1.252 . S
O108 Mg98 2.251 . S
O108 Mg101 2.079 . S
O108 C110 1.273 . S
C109 O105 1.246 . S
C109 O106 1.259 . S
C110 O107 1.252 . S
C110 O108 1.273 . S
O111 Mg98 2.010 . S
O111 C103 1.249 . S
Mg112 O113 2.028 . S
Mg112 O119 1.986 . S
Mg112 O121 2.114 . S
Mg112 O122 2.251 . S
Mg112 O125 2.010 . S
O113 Mg112 2.028 . S
O113 C116 1.250 . S
O114 Mg115 2.028 . S
O114 C116 1.248 . S
Mg115 O114 2.028 . S
Mg115 O120 2.032 . S
Mg115 O122 2.079 . S
C116 O113 1.250 . S
C116 O114 1.248 . S
C117 O118 1.264 . S
C117 O125 1.249 . S
O118 C117 1.264 . S
O119 Mg112 1.986 . S
O119 C123 1.246 . S
O120 Mg115 2.032 . S
O120 C123 1.259 . S
O121 Mg112 2.114 . S
O121 C124 1.252 . S
O122 Mg112 2.251 . S
O122 Mg115 2.079 . S
O122 C124 1.273 . S
C123 O119 1.246 . S
C123 O120 1.259 . S
C124 O121 1.252 . S
C124 O122 1.273 . S
O125 Mg112 2.010 . S
O125 C117 1.249 . S
C126 C127 1.349 1_554 S
C126 C128 1.327 . S
C126 H151 0.950 . S
C127 C126 1.349 1_556 S
C127 C143 1.349 . S
C128 C126 1.327 . S
C128 C147 1.429 . S
C128 H152 0.950 . S
C129 C146 1.574 . S
C129 C148 1.368 1_556 S
C129 H153 0.949 . S
H130 C134 0.949 . S
C131 C132 1.349 1_556 S
C131 C133 1.327 . S
C131 H154 0.950 . S
C132 C131 1.349 1_554 S
C132 C144 1.349 . S
C133 C131 1.327 . S
C133 C149 1.429 1_556 S
C133 H155 0.950 . S
C134 H130 0.949 . S
C134 C142 1.574 . S
C134 C150 1.368 . S
H135 C143 0.950 . S
H136 C141 0.950 . S
H137 C142 0.949 . S
H138 C144 0.950 . S
H139 C145 0.950 . S
H140 C146 0.949 . S
C141 H136 0.950 . S
C141 C143 1.327 . S
C141 C147 1.429 1_556 S
C142 C134 1.574 . S
C142 H137 0.949 . S
C142 C148 1.368 . S
C143 C127 1.349 . S
C143 H135 0.950 . S
C143 C141 1.327 . S
C144 C132 1.349 . S
C144 H138 0.950 . S
C144 C145 1.327 . S
C145 H139 0.950 . S
C145 C144 1.327 . S
C145 C149 1.429 . S
C146 C129 1.574 . S
C146 H140 0.949 . S
C146 C150 1.368 1_556 S
C147 C128 1.429 . S
C147 C141 1.429 1_554 S
C147 C148 1.523 . S
C148 C129 1.368 1_554 S
C148 C142 1.368 . S
C148 C147 1.523 . S
C149 C133 1.429 1_554 S
C149 C145 1.429 . S
C149 C150 1.523 . S
C150 C134 1.368 . S
C150 C146 1.368 1_554 S
C150 C149 1.523 . S
H151 C126 0.950 . S
H152 C128 0.950 . S
H153 C129 0.949 . S
H154 C131 0.950 . S
H155 C133 0.950 . S
C156 C157 1.327 1_556 S
C156 C158 1.331 . S
C156 H181 0.968 . S
C157 C156 1.327 1_554 S
C157 C173 1.349 . S
C158 C156 1.331 . S
C158 C177 1.429 1_556 S
C158 H182 0.950 . S
C159 C176 1.574 . S
C159 C178 1.368 1_545 S
C159 H183 0.930 1_545 S
H160 C164 0.949 . S
C161 C162 1.349 1_554 S
C161 C163 1.327 . S
C161 H184 0.950 . S
C162 C161 1.349 1_556 S
C162 C174 1.349 . S
C163 C161 1.327 . S
C163 C179 1.429 . S
C163 H185 0.950 . S
C164 H160 0.949 . S
C164 C172 1.574 . S
C164 C180 1.368 1_556 S
H165 C173 0.950 . S
H166 C171 0.950 . S
H167 C172 0.949 1_565 S
H168 C174 0.950 . S
H169 C175 0.950 . S
H170 C176 0.949 . S
C171 H166 0.950 . S
C171 C173 1.327 . S
C171 C177 1.429 . S
C172 C164 1.574 . S
C172 H167 0.949 1_545 S
C172 C178 1.368 1_546 S
C173 C157 1.349 . S
C173 H165 0.950 . S
C173 C171 1.327 . S
C174 C162 1.349 . S
C174 H168 0.950 . S
C174 C175 1.327 . S
C175 H169 0.950 . S
C175 C174 1.327 . S
C175 C179 1.429 1_556 S
C176 C159 1.574 . S
C176 H170 0.949 . S
C176 C180 1.368 . S
C177 C158 1.429 1_554 S
C177 C171 1.429 . S
C177 C178 1.523 . S
C178 C159 1.368 1_565 S
C178 C172 1.368 1_564 S
C178 C177 1.523 . S
C179 C163 1.429 . S
C179 C175 1.429 1_554 S
C179 C180 1.523 . S
C180 C164 1.368 1_554 S
C180 C176 1.368 . S
C180 C179 1.523 . S
H181 C156 0.968 . S
H182 C158 0.950 . S
H183 C159 0.930 1_565 S
H184 C161 0.950 . S
H185 C163 0.950 . S
C186 C187 1.349 1_554 S
C186 C188 1.327 . S
C186 H211 0.950 . S
C187 C186 1.349 1_556 S
C187 C203 1.349 . S
C188 C186 1.327 . S
C188 C207 1.429 . S
C188 H212 0.950 . S
C189 C206 1.574 1_655 S
C189 C208 1.368 1_556 S
C189 H213 0.949 . S
H190 C194 0.949 . S
C191 C192 1.349 1_556 S
C191 C193 1.327 . S
C191 H214 0.950 . S
C192 C191 1.349 1_554 S
C192 C204 1.349 . S
C193 C191 1.327 . S
C193 C209 1.429 1_556 S
C193 H215 0.950 . S
C194 H190 0.949 . S
C194 C202 1.574 1_455 S
C194 C210 1.368 . S
H195 C203 0.950 . S
H196 C201 0.950 . S
H197 C202 0.949 . S
H198 C204 0.950 . S
H199 C205 0.950 . S
H200 C206 0.949 . S
C201 H196 0.950 . S
C201 C203 1.327 . S
C201 C207 1.429 1_556 S
C202 C194 1.574 1_655 S
C202 H197 0.949 . S
C202 C208 1.368 . S
C203 C187 1.349 . S
C203 H195 0.950 . S
C203 C201 1.327 . S
C204 C192 1.349 . S
C204 H198 0.950 . S
C204 C205 1.327 . S
C205 H199 0.950 . S
C205 C204 1.327 . S
C205 C209 1.429 . S
C206 C189 1.574 1_455 S
C206 H200 0.949 . S
C206 C210 1.368 1_556 S
C207 C188 1.429 . S
C207 C201 1.429 1_554 S
C207 C208 1.523 . S
C208 C189 1.368 1_554 S
C208 C202 1.368 . S
C208 C207 1.523 . S
C209 C193 1.429 1_554 S
C209 C205 1.429 . S
C209 C210 1.523 . S
C210 C194 1.368 . S
C210 C206 1.368 1_554 S
C210 C209 1.523 . S
H211 C186 0.950 . S
H212 C188 0.950 . S
H213 C189 0.949 . S
H214 C191 0.950 . S
H215 C193 0.950 . S
C216 C217 1.349 . S
C216 C218 1.327 . S
C216 H241 0.950 . S
C217 C216 1.349 . S
C217 C233 1.349 . S
C218 C216 1.327 . S
C218 C237 1.429 . S
C218 H242 0.950 . S
C219 C236 1.574 . S
C219 C238 1.368 . S
C219 H243 0.949 . S
H220 C224 0.949 . S
C221 C222 1.349 . S
C221 C223 1.327 . S
C221 H244 0.950 . S
C222 C221 1.349 . S
C222 C234 1.349 . S
C223 C221 1.327 . S
C223 C239 1.429 . S
C223 H245 0.950 . S
C224 H220 0.949 . S
C224 C232 1.574 . S
C224 C240 1.368 . S
H225 C233 0.950 . S
H226 C231 0.950 . S
H227 C232 0.949 . S
H228 C234 0.950 . S
H229 C235 0.950 . S
H230 C236 0.949 . S
C231 H226 0.950 . S
C231 C233 1.327 . S
C231 C237 1.429 . S
C232 C224 1.574 . S
C232 H227 0.949 . S
C232 C238 1.368 . S
C233 C217 1.349 . S
C233 H225 0.950 . S
C233 C231 1.327 . S
C234 C222 1.349 . S
C234 H228 0.950 . S
C234 C235 1.327 . S
C235 H229 0.950 . S
C235 C234 1.327 . S
C235 C239 1.429 . S
C236 C219 1.574 . S
C236 H230 0.949 . S
C236 C240 1.368 . S
C237 C218 1.429 . S
C237 C231 1.429 . S
C237 C238 1.523 . S
C238 C219 1.368 . S
C238 C232 1.368 . S
C238 C237 1.523 . S
C239 C223 1.429 . S
C239 C235 1.429 . S
C239 C240 1.523 . S
C240 C224 1.368 . S
C240 C236 1.368 . S
C240 C239 1.523 . S
H241 C216 0.950 . S
H242 C218 0.950 . S
H243 C219 0.949 . S
H244 C221 0.950 . S
H245 C223 0.950 . S
C246 C247 1.349 . S
C246 C248 1.327 . S
C246 H271 0.950 . S
C247 C246 1.349 . S
C247 C263 1.349 . S
C248 C246 1.327 . S
C248 C267 1.429 . S
C248 H272 0.950 . S
C249 C266 1.574 . S
C249 C268 1.368 . S
C249 H273 0.949 . S
H250 C254 0.949 . S
C251 C252 1.349 . S
C251 C253 1.327 . S
C251 H274 0.950 . S
C252 C251 1.349 . S
C252 C264 1.349 . S
C253 C251 1.327 . S
C253 C269 1.429 . S
C253 H275 0.950 . S
C254 H250 0.949 . S
C254 C262 1.574 . S
C254 C270 1.368 . S
H255 C263 0.950 . S
H256 C261 0.950 . S
H257 C262 0.949 . S
H258 C264 0.950 . S
H259 C265 0.950 . S
H260 C266 0.949 . S
C261 H256 0.950 . S
C261 C263 1.327 . S
C261 C267 1.429 . S
C262 C254 1.574 . S
C262 H257 0.949 . S
C262 C268 1.368 . S
C263 C247 1.349 . S
C263 H255 0.950 . S
C263 C261 1.327 . S
C264 C252 1.349 . S
C264 H258 0.950 . S
C264 C265 1.327 . S
C265 H259 0.950 . S
C265 C264 1.327 . S
C265 C269 1.429 . S
C266 C249 1.574 . S
C266 H260 0.949 . S
C266 C270 1.368 . S
C267 C248 1.429 . S
C267 C261 1.429 . S
C267 C268 1.523 . S
C268 C249 1.368 . S
C268 C262 1.368 . S
C268 C267 1.523 . S
C269 C253 1.429 . S
C269 C265 1.429 . S
C269 C270 1.523 . S
C270 C254 1.368 . S
C270 C266 1.368 . S
C270 C269 1.523 . S
H271 C246 0.950 . S
H272 C248 0.950 . S
H273 C249 0.949 . S
H274 C251 0.950 . S
H275 C253 0.950 . S
C276 C277 1.349 . S
C276 C278 1.327 . S
C276 H301 0.950 . S
C277 C276 1.349 . S
C277 C293 1.349 . S
C278 C276 1.327 . S
C278 C297 1.429 . S
C278 H302 0.950 . S
C279 C296 1.574 . S
C279 C298 1.368 . S
C279 H303 0.949 . S
H280 C284 0.949 . S
C281 C282 1.349 . S
C281 C283 1.327 . S
C281 H304 0.950 . S
C282 C281 1.349 . S
C282 C294 1.349 . S
C283 C281 1.327 . S
C283 C299 1.429 . S
C283 H305 0.950 . S
C284 H280 0.949 . S
C284 C292 1.574 . S
C284 C300 1.368 . S
H285 C293 0.950 . S
H286 C291 0.950 . S
H287 C292 0.949 . S
H288 C294 0.950 . S
H289 C295 0.950 . S
H290 C296 0.949 . S
C291 H286 0.950 . S
C291 C293 1.327 . S
C291 C297 1.429 . S
C292 C284 1.574 . S
C292 H287 0.949 . S
C292 C298 1.368 . S
C293 C277 1.349 . S
C293 H285 0.950 . S
C293 C291 1.327 . S
C294 C282 1.349 . S
C294 H288 0.950 . S
C294 C295 1.327 . S
C295 H289 0.950 . S
C295 C294 1.327 . S
C295 C299 1.429 . S
C296 C279 1.574 . S
C296 H290 0.949 . S
C296 C300 1.368 . S
C297 C278 1.429 . S
C297 C291 1.429 . S
C297 C298 1.523 . S
C298 C279 1.368 . S
C298 C292 1.368 . S
C298 C297 1.523 . S
C299 C283 1.429 . S
C299 C295 1.429 . S
C299 C300 1.523 . S
C300 C284 1.368 . S
C300 C296 1.368 . S
C300 C299 1.523 . S
H301 C276 0.950 . S
H302 C278 0.950 . S
H303 C279 0.949 . S
H304 C281 0.950 . S
H305 C283 0.950 . S
C306 C307 1.349 . S
C306 C308 1.327 . S
C306 H331 0.950 . S
C307 C306 1.349 . S
C307 C323 1.349 . S
C308 C306 1.327 . S
C308 C327 1.429 . S
C308 H332 0.950 . S
C309 C326 1.574 . S
C309 C328 1.368 . S
C309 H333 0.949 . S
H310 C314 0.949 . S
C311 C312 1.349 . S
C311 C313 1.327 . S
C311 H334 0.950 . S
C312 C311 1.349 . S
C312 C324 1.349 . S
C313 C311 1.327 . S
C313 C329 1.429 . S
C313 H335 0.950 . S
C314 H310 0.949 . S
C314 C322 1.574 . S
C314 C330 1.368 . S
H315 C323 0.950 . S
H316 C321 0.950 . S
H317 C322 0.949 . S
H318 C324 0.950 . S
H319 C325 0.950 . S
H320 C326 0.949 . S
C321 H316 0.950 . S
C321 C323 1.327 . S
C321 C327 1.429 . S
C322 C314 1.574 . S
C322 H317 0.949 . S
C322 C328 1.368 . S
C323 C307 1.349 . S
C323 H315 0.950 . S
C323 C321 1.327 . S
C324 C312 1.349 . S
C324 H318 0.950 . S
C324 C325 1.327 . S
C325 H319 0.950 . S
C325 C324 1.327 . S
C325 C329 1.429 . S
C326 C309 1.574 . S
C326 H320 0.949 . S
C326 C330 1.368 . S
C327 C308 1.429 . S
C327 C321 1.429 . S
C327 C328 1.523 . S
C328 C309 1.368 . S
C328 C322 1.368 . S
C328 C327 1.523 . S
C329 C313 1.429 . S
C329 C325 1.429 . S
C329 C330 1.523 . S
C330 C314 1.368 . S
C330 C326 1.368 . S
C330 C329 1.523 . S
H331 C306 0.950 . S
H332 C308 0.950 . S
H333 C309 0.949 . S
H334 C311 0.950 . S
H335 C313 0.950 . S
C336 C337 1.349 . S
C336 C338 1.327 . S
C336 H361 0.950 . S
C337 C336 1.349 . S
C337 C353 1.349 . S
C338 C336 1.327 . S
C338 C357 1.429 . S
C338 H362 0.950 . S
C339 C356 1.574 . S
C339 C358 1.368 . S
C339 H363 0.949 . S
H340 C344 0.949 . S
C341 C342 1.349 . S
C341 C343 1.327 . S
C341 H364 0.950 . S
C342 C341 1.349 . S
C342 C354 1.349 . S
C343 C341 1.327 . S
C343 C359 1.429 . S
C343 H365 0.950 . S
C344 H340 0.949 . S
C344 C352 1.574 . S
C344 C360 1.368 . S
H345 C353 0.950 . S
H346 C351 0.950 . S
H347 C352 0.949 . S
H348 C354 0.950 . S
H349 C355 0.950 . S
H350 C356 0.949 . S
C351 H346 0.950 . S
C351 C353 1.327 . S
C351 C357 1.429 . S
C352 C344 1.574 . S
C352 H347 0.949 . S
C352 C358 1.368 . S
C353 C337 1.349 . S
C353 H345 0.950 . S
C353 C351 1.327 . S
C354 C342 1.349 . S
C354 H348 0.950 . S
C354 C355 1.327 . S
C355 H349 0.950 . S
C355 C354 1.327 . S
C355 C359 1.429 . S
C356 C339 1.574 . S
C356 H350 0.949 . S
C356 C360 1.368 . S
C357 C338 1.429 . S
C357 C351 1.429 . S
C357 C358 1.523 . S
C358 C339 1.368 . S
C358 C352 1.368 . S
C358 C357 1.523 . S
C359 C343 1.429 . S
C359 C355 1.429 . S
C359 C360 1.523 . S
C360 C344 1.368 . S
C360 C356 1.368 . S
C360 C359 1.523 . S
H361 C336 0.950 . S
H362 C338 0.950 . S
H363 C339 0.949 . S
H364 C341 0.950 . S
H365 C343 0.950 . S
C366 C367 1.349 . S
C366 C368 1.327 . S
C366 H391 0.950 . S
C367 C366 1.349 . S
C367 C383 1.349 . S
C368 C366 1.327 . S
C368 C387 1.429 . S
C368 H392 0.950 . S
C369 C386 1.574 . S
C369 C388 1.368 . S
C369 H393 0.949 . S
H370 C374 0.949 . S
C371 C372 1.349 . S
C371 C373 1.327 . S
C371 H394 0.950 . S
C372 C371 1.349 . S
C372 C384 1.349 . S
C373 C371 1.327 . S
C373 C389 1.429 . S
C373 H395 0.950 . S
C374 H370 0.949 . S
C374 C382 1.574 . S
C374 C390 1.368 . S
H375 C383 0.950 . S
H376 C381 0.950 . S
H377 C382 0.949 . S
H378 C384 0.950 . S
H379 C385 0.950 . S
H380 C386 0.949 . S
C381 H376 0.950 . S
C381 C383 1.327 . S
C381 C387 1.429 . S
C382 C374 1.574 . S
C382 H377 0.949 . S
C382 C388 1.368 . S
C383 C367 1.349 . S
C383 H375 0.950 . S
C383 C381 1.327 . S
C384 C372 1.349 . S
C384 H378 0.950 . S
C384 C385 1.327 . S
C385 H379 0.950 . S
C385 C384 1.327 . S
C385 C389 1.429 . S
C386 C369 1.574 . S
C386 H380 0.949 . S
C386 C390 1.368 . S
C387 C368 1.429 . S
C387 C381 1.429 . S
C387 C388 1.523 . S
C388 C369 1.368 . S
C388 C382 1.368 . S
C388 C387 1.523 . S
C389 C373 1.429 . S
C389 C385 1.429 . S
C389 C390 1.523 . S
C390 C374 1.368 . S
C390 C386 1.368 . S
C390 C389 1.523 . S
H391 C366 0.950 . S
H392 C368 0.950 . S
H393 C369 0.949 . S
H394 C371 0.950 . S
H395 C373 0.950 . S
C396 C397 1.349 . S
C396 C398 1.327 . S
C396 H421 0.950 1_455 S
C397 C396 1.349 . S
C397 C413 1.349 . S
C398 C396 1.327 . S
C398 C417 1.429 . S
C398 H422 0.946 . S
C399 C416 1.574 . S
C399 C418 1.368 . S
C399 H423 0.949 . S
H400 C404 0.949 . S
C401 C402 1.349 . S
C401 C403 1.327 . S
C401 H424 0.950 . S
C402 C401 1.349 . S
C402 C414 1.349 . S
C403 C401 1.327 . S
C403 C419 1.429 . S
C403 H425 0.950 . S
C404 H400 0.949 . S
C404 C412 1.574 . S
C404 C420 1.368 . S
H405 C413 0.950 . S
H406 C411 0.950 . S
H407 C412 0.949 . S
H408 C414 0.950 . S
H409 C415 0.950 . S
H410 C416 0.949 . S
C411 H406 0.950 . S
C411 C413 1.327 . S
C411 C417 1.429 . S
C412 C404 1.574 . S
C412 H407 0.949 . S
C412 C418 1.368 . S
C413 C397 1.349 . S
C413 H405 0.950 . S
C413 C411 1.327 . S
C414 C402 1.349 . S
C414 H408 0.950 . S
C414 C415 1.327 . S
C415 H409 0.950 . S
C415 C414 1.327 . S
C415 C419 1.429 . S
C416 C399 1.574 . S
C416 H410 0.949 . S
C416 C420 1.368 . S
C417 C398 1.429 . S
C417 C411 1.429 . S
C417 C418 1.523 . S
C418 C399 1.368 . S
C418 C412 1.368 . S
C418 C417 1.523 . S
C419 C403 1.429 . S
C419 C415 1.429 . S
C419 C420 1.523 . S
C420 C404 1.368 . S
C420 C416 1.368 . S
C420 C419 1.523 . S
H421 C396 0.950 1_655 S
H422 C398 0.946 . S
H423 C399 0.949 . S
H424 C401 0.950 . S
H425 C403 0.950 . S
C426 C427 1.349 . S
C426 C428 1.327 . S
C426 H451 0.950 . S
C427 C426 1.349 . S
C427 C443 1.349 . S
C428 C426 1.327 . S
C428 C447 1.429 . S
C428 H452 0.950 . S
C429 C446 1.574 . S
C429 C448 1.368 . S
C429 H453 0.949 . S
H430 C434 0.949 . S
C431 C432 1.349 . S
C431 C433 1.327 . S
C431 H454 0.950 . S
C432 C431 1.349 . S
C432 C444 1.349 . S
C433 C431 1.327 . S
C433 C449 1.429 . S
C433 H455 0.950 . S
C434 H430 0.949 . S
C434 C442 1.574 . S
C434 C450 1.368 . S
H435 C443 0.950 . S
H436 C441 0.950 . S
H437 C442 0.949 . S
H438 C444 0.950 . S
H439 C445 0.950 . S
H440 C446 0.949 . S
C441 H436 0.950 . S
C441 C443 1.327 . S
C441 C447 1.429 . S
C442 C434 1.574 . S
C442 H437 0.949 . S
C442 C448 1.368 . S
C443 C427 1.349 . S
C443 H435 0.950 . S
C443 C441 1.327 . S
C444 C432 1.349 . S
C444 H438 0.950 . S
C444 C445 1.327 . S
C445 H439 0.950 . S
C445 C444 1.327 . S
C445 C449 1.429 . S
C446 C429 1.574 . S
C446 H440 0.949 . S
C446 C450 1.368 . S
C447 C428 1.429 . S
C447 C441 1.429 . S
C447 C448 1.523 . S
C448 C429 1.368 . S
C448 C442 1.368 . S
C448 C447 1.523 . S
C449 C433 1.429 . S
C449 C445 1.429 . S
C449 C450 1.523 . S
C450 C434 1.368 . S
C450 C446 1.368 . S
C450 C449 1.523 . S
H451 C426 0.950 . S
H452 C428 0.950 . S
H453 C429 0.949 . S
H454 C431 0.950 . S
H455 C433 0.950 . S
C456 C457 1.349 . S
C456 C458 1.327 . S
C456 H481 0.950 . S
C457 C456 1.349 . S
C457 C473 1.349 . S
C458 C456 1.327 . S
C458 C477 1.429 . S
C458 H482 0.950 . S
C459 C476 1.574 . S
C459 C478 1.368 . S
C459 H483 0.939 1_565 S
H460 C464 0.949 . S
C461 C462 1.349 . S
C461 C463 1.327 . S
C461 H484 0.950 . S
C462 C461 1.349 . S
C462 C474 1.349 1_545 S
C463 C461 1.327 . S
C463 C479 1.429 1_545 S
C463 H485 0.950 . S
C464 H460 0.949 . S
C464 C472 1.574 . S
C464 C480 1.368 . S
H465 C473 0.950 . S
H466 C471 0.950 . S
H467 C472 0.949 . S
H468 C474 0.950 . S
H469 C475 0.950 . S
H470 C476 0.949 1_545 S
C471 H466 0.950 . S
C471 C473 1.327 . S
C471 C477 1.429 . S
C472 C464 1.574 . S
C472 H467 0.949 . S
C472 C478 1.368 . S
C473 C457 1.349 . S
C473 H465 0.950 . S
C473 C471 1.327 . S
C474 C462 1.349 1_565 S
C474 H468 0.950 . S
C474 C475 1.327 . S
C475 H469 0.950 . S
C475 C474 1.327 . S
C475 C479 1.429 . S
C476 C459 1.574 . S
C476 H470 0.949 1_565 S
C476 C480 1.368 . S
C477 C458 1.429 . S
C477 C471 1.429 . S
C477 C478 1.523 . S
C478 C459 1.368 . S
C478 C472 1.368 . S
C478 C477 1.523 . S
C479 C463 1.429 1_565 S
C479 C475 1.429 . S
C479 C480 1.523 . S
C480 C464 1.368 . S
C480 C476 1.368 . S
C480 C479 1.523 . S
H481 C456 0.950 . S
H482 C458 0.950 . S
H483 C459 0.939 1_545 S
H484 C461 0.950 . S
H485 C463 0.950 . S
C486 C487 1.349 . S
C486 C488 1.327 . S
C486 H511 0.950 . S
C487 C486 1.349 . S
C487 C503 1.349 . S
C488 C486 1.327 . S
C488 C507 1.429 . S
C488 H512 0.950 . S
C489 C506 1.574 . S
C489 C508 1.368 . S
C489 H513 0.949 . S
H490 C494 0.949 . S
C491 C492 1.349 . S
C491 C493 1.327 . S
C491 H514 0.950 . S
C492 C491 1.349 . S
C492 C504 1.349 . S
C493 C491 1.327 . S
C493 C509 1.429 . S
C493 H515 0.950 . S
C494 H490 0.949 . S
C494 C502 1.574 . S
C494 C510 1.368 . S
H495 C503 0.950 . S
H496 C501 0.950 . S
H497 C502 0.949 . S
H498 C504 0.950 1_565 S
H499 C505 0.950 . S
H500 C506 0.949 . S
C501 H496 0.950 . S
C501 C503 1.327 . S
C501 C507 1.429 . S
C502 C494 1.574 . S
C502 H497 0.949 . S
C502 C508 1.368 . S
C503 C487 1.349 . S
C503 H495 0.950 . S
C503 C501 1.327 . S
C504 C492 1.349 . S
C504 H498 0.950 1_545 S
C504 C505 1.327 . S
C505 H499 0.950 . S
C505 C504 1.327 . S
C505 C509 1.429 . S
C506 C489 1.574 . S
C506 H500 0.949 . S
C506 C510 1.368 . S
C507 C488 1.429 . S
C507 C501 1.429 . S
C507 C508 1.523 . S
C508 C489 1.368 . S
C508 C502 1.368 . S
C508 C507 1.523 . S
C509 C493 1.429 . S
C509 C505 1.429 . S
C509 C510 1.523 . S
C510 C494 1.368 . S
C510 C506 1.368 . S
C510 C509 1.523 . S
H511 C486 0.950 . S
H512 C488 0.950 . S
H513 C489 0.949 . S
H514 C491 0.950 . S
H515 C493 0.950 . S
C516 C517 1.349 . S
C516 C518 1.327 . S
C516 H541 0.950 . S
C517 C516 1.349 . S
C517 C533 1.349 1_655 S
C518 C516 1.327 . S
C518 C537 1.429 . S
C518 H542 0.950 . S
C519 C536 1.574 . S
C519 C538 1.368 . S
C519 H543 0.949 . S
H520 C524 0.949 . S
C521 C522 1.349 . S
C521 C523 1.327 . S
C521 H544 0.950 . S
C522 C521 1.349 . S
C522 C534 1.349 . S
C523 C521 1.327 . S
C523 C539 1.429 . S
C523 H545 0.950 . S
C524 H520 0.949 . S
C524 C532 1.574 . S
C524 C540 1.368 . S
H525 C533 0.950 . S
H526 C531 0.950 . S
H527 C532 0.949 . S
H528 C534 0.950 . S
H529 C535 0.950 . S
H530 C536 0.949 . S
C531 H526 0.950 . S
C531 C533 1.327 1_655 S
C531 C537 1.429 . S
C532 C524 1.574 . S
C532 H527 0.949 . S
C532 C538 1.368 . S
C533 C517 1.349 1_455 S
C533 H525 0.950 . S
C533 C531 1.327 1_455 S
C534 C522 1.349 . S
C534 H528 0.950 . S
C534 C535 1.327 . S
C535 H529 0.950 . S
C535 C534 1.327 . S
C535 C539 1.429 . S
C536 C519 1.574 . S
C536 H530 0.949 . S
C536 C540 1.368 . S
C537 C518 1.429 . S
C537 C531 1.429 . S
C537 C538 1.523 . S
C538 C519 1.368 . S
C538 C532 1.368 . S
C538 C537 1.523 . S
C539 C523 1.429 . S
C539 C535 1.429 . S
C539 C540 1.523 . S
C540 C524 1.368 . S
C540 C536 1.368 . S
C540 C539 1.523 . S
H541 C516 0.950 . S
H542 C518 0.950 . S
H543 C519 0.949 . S
H544 C521 0.950 . S
H545 C523 0.950 . S
C546 C547 1.349 . S
C546 C548 1.327 . S
C546 H571 0.950 . S
C547 C546 1.349 . S
C547 C563 1.349 . S
C548 C546 1.327 . S
C548 C567 1.429 . S
C548 H572 0.950 . S
C549 C566 1.574 . S
C549 C568 1.368 . S
C549 H573 0.949 . S
H550 C554 0.949 . S
C551 C552 1.349 . S
C551 C553 1.327 . S
C551 H574 0.950 . S
C552 C551 1.349 . S
C552 C564 1.349 . S
C553 C551 1.327 . S
C553 C569 1.429 . S
C553 H575 0.950 . S
C554 H550 0.949 . S
C554 C562 1.574 . S
C554 C570 1.368 . S
H555 C563 0.950 . S
H556 C561 0.950 . S
H557 C562 0.949 . S
H558 C564 0.950 . S
H559 C565 0.950 . S
H560 C566 0.949 . S
C561 H556 0.950 . S
C561 C563 1.327 . S
C561 C567 1.429 . S
C562 C554 1.574 . S
C562 H557 0.949 . S
C562 C568 1.368 . S
C563 C547 1.349 . S
C563 H555 0.950 . S
C563 C561 1.327 . S
C564 C552 1.349 . S
C564 H558 0.950 . S
C564 C565 1.327 . S
C565 H559 0.950 . S
C565 C564 1.327 . S
C565 C569 1.429 . S
C566 C549 1.574 . S
C566 H560 0.949 . S
C566 C570 1.368 . S
C567 C548 1.429 . S
C567 C561 1.429 . S
C567 C568 1.523 . S
C568 C549 1.368 . S
C568 C562 1.368 . S
C568 C567 1.523 . S
C569 C553 1.429 . S
C569 C565 1.429 . S
C569 C570 1.523 . S
C570 C554 1.368 . S
C570 C566 1.368 . S
C570 C569 1.523 . S
H571 C546 0.950 . S
H572 C548 0.950 . S
H573 C549 0.949 . S
H574 C551 0.950 . S
H575 C553 0.950 . S
C576 C577 1.349 . S
C576 C578 1.327 . S
C576 H601 0.950 . S
C577 C576 1.349 . S
C577 C593 1.349 . S
C578 C576 1.327 . S
C578 C597 1.429 . S
C578 H602 0.950 . S
C579 C596 1.574 . S
C579 C598 1.368 . S
C579 H603 0.949 . S
H580 C584 0.949 . S
C581 C582 1.349 . S
C581 C583 1.327 . S
C581 H604 0.950 . S
C582 C581 1.349 . S
C582 C594 1.349 . S
C583 C581 1.327 . S
C583 C599 1.429 . S
C583 H605 0.950 1_655 S
C584 H580 0.949 . S
C584 C592 1.596 . S
C584 C600 1.368 . S
H585 C593 0.950 . S
H586 C591 0.950 . S
H587 C592 0.962 . S
H588 C594 0.950 . S
H589 C595 0.950 . S
H590 C596 0.949 . S
C591 H586 0.950 . S
C591 C593 1.327 . S
C591 C597 1.429 . S
C592 C584 1.596 . S
C592 H587 0.962 . S
C592 C598 1.334 1_655 S
C593 C577 1.349 . S
C593 H585 0.950 . S
C593 C591 1.327 . S
C594 C582 1.349 . S
C594 H588 0.950 . S
C594 C595 1.327 . S
C595 H589 0.950 . S
C595 C594 1.327 . S
C595 C599 1.429 . S
C596 C579 1.574 . S
C596 H590 0.949 . S
C596 C600 1.368 1_455 S
C597 C578 1.429 . S
C597 C591 1.429 . S
C597 C598 1.523 . S
C598 C579 1.368 . S
C598 C592 1.334 1_455 S
C598 C597 1.523 . S
C599 C583 1.429 . S
C599 C595 1.429 . S
C599 C600 1.523 . S
C600 C584 1.368 . S
C600 C596 1.368 1_655 S
C600 C599 1.523 . S
H601 C576 0.950 . S
H602 C578 0.950 . S
H603 C579 0.949 . S
H604 C581 0.950 . S
H605 C583 0.950 1_455 S
C606 C607 1.349 . S
C606 C608 1.327 . S
C606 H631 0.950 . S
C607 C606 1.349 . S
C607 C623 1.349 . S
C608 C606 1.327 . S
C608 C627 1.429 . S
C608 H632 0.950 . S
C609 C626 1.574 . S
C609 C628 1.368 . S
C609 H633 0.949 . S
H610 C614 0.949 . S
C611 C612 1.349 . S
C611 C613 1.327 . S
C611 H634 0.950 . S
C612 C611 1.349 . S
C612 C624 1.349 . S
C613 C611 1.327 . S
C613 C629 1.429 . S
C613 H635 0.950 . S
C614 H610 0.949 . S
C614 C622 1.574 . S
C614 C630 1.368 . S
H615 C623 0.950 . S
H616 C621 0.950 . S
H617 C622 0.949 . S
H618 C624 0.950 . S
H619 C625 0.950 . S
H620 C626 0.949 . S
C621 H616 0.950 . S
C621 C623 1.327 . S
C621 C627 1.429 . S
C622 C614 1.574 . S
C622 H617 0.949 . S
C622 C628 1.368 . S
C623 C607 1.349 . S
C623 H615 0.950 . S
C623 C621 1.327 . S
C624 C612 1.349 . S
C624 H618 0.950 . S
C624 C625 1.327 . S
C625 H619 0.950 . S
C625 C624 1.327 . S
C625 C629 1.429 . S
C626 C609 1.574 . S
C626 H620 0.949 . S
C626 C630 1.368 . S
C627 C608 1.429 . S
C627 C621 1.429 . S
C627 C628 1.523 . S
C628 C609 1.368 . S
C628 C622 1.368 . S
C628 C627 1.523 . S
C629 C613 1.429 . S
C629 C625 1.429 . S
C629 C630 1.523 . S
C630 C614 1.368 . S
C630 C626 1.368 . S
C630 C629 1.523 . S
H631 C606 0.950 . S
H632 C608 0.950 . S
H633 C609 0.949 . S
H634 C611 0.950 . S
H635 C613 0.950 . S
C636 C637 1.349 . S
C636 C638 1.327 . S
C636 H661 0.950 . S
C637 C636 1.349 . S
C637 C653 1.349 . S
C638 C636 1.327 . S
C638 C657 1.429 . S
C638 H662 0.950 . S
C639 C656 1.574 . S
C639 C658 1.368 . S
C639 H663 0.949 . S
H640 C644 0.949 . S
C641 C642 1.349 . S
C641 C643 1.327 . S
C641 H664 0.950 . S
C642 C641 1.349 . S
C642 C654 1.349 . S
C643 C641 1.327 . S
C643 C659 1.429 . S
C643 H665 0.950 . S
C644 H640 0.949 . S
C644 C652 1.574 1_545 S
C644 C660 1.368 . S
H645 C653 0.950 . S
H646 C651 0.950 1_545 S
H647 C652 0.949 . S
H648 C654 0.950 . S
H649 C655 0.950 . S
H650 C656 0.949 . S
C651 H646 0.950 1_565 S
C651 C653 1.327 . S
C651 C657 1.429 . S
C652 C644 1.574 1_565 S
C652 H647 0.949 . S
C652 C658 1.368 1_565 S
C653 C637 1.349 . S
C653 H645 0.950 . S
C653 C651 1.327 . S
C654 C642 1.349 . S
C654 H648 0.950 . S
C654 C655 1.327 . S
C655 H649 0.950 . S
C655 C654 1.327 . S
C655 C659 1.429 . S
C656 C639 1.574 . S
C656 H650 0.949 . S
C656 C660 1.368 . S
C657 C638 1.429 . S
C657 C651 1.429 . S
C657 C658 1.523 1_565 S
C658 C639 1.368 . S
C658 C652 1.368 1_545 S
C658 C657 1.523 1_545 S
C659 C643 1.429 . S
C659 C655 1.429 . S
C659 C660 1.523 . S
C660 C644 1.368 . S
C660 C656 1.368 . S
C660 C659 1.523 . S
H661 C636 0.950 . S
H662 C638 0.950 . S
H663 C639 0.949 . S
H664 C641 0.950 . S
H665 C643 0.950 . S
C127 C32 0.859 . S
C132 C5 0.830 . S
C157 C18 0.842 . S
C162 C4 0.842 1_556 S
C187 C19 0.662 . S
C192 C33 0.650 . S
C217 C75 0.771 . S
C222 C46 0.776 . S
C247 C60 0.705 . S
C252 C47 0.715 . S
C277 C61 0.818 . S
C282 C74 0.834 . S
C307 C89 0.678 . S
C312 C116 0.643 . S
C337 C88 0.912 . S
C342 C102 0.912 . S
C367 C103 0.688 . S
C372 C117 0.684 . S
C397 C11 1.270 . S
C402 C109 1.274 . S
C427 C26 1.235 . S
C432 C124 1.234 . S
C457 C96 1.241 . S
C462 C39 1.236 . S
C487 C68 1.253 . S
C492 C40 1.256 . S
C517 C12 1.397 1_655 S
C522 C82 1.396 . S
C547 C54 1.245 . S
C552 C25 1.242 . S
C577 C110 1.272 . S
C582 C81 1.266 . S
C607 C53 1.121 . S
C612 C123 1.124 . S
C637 C95 1.255 . S
C642 C67 1.248 . S
