# Generated by pormake.
# Topology fch, (5)-cn, num edge types: 1
# Building blocks:
#     Node 0, Type 0, BuildingBlock: XOMCOT_clean_sbu_1, # of connection points: 5
#     Node 1, Type 0, BuildingBlock: XOMCOT_clean_sbu_1, # of connection points: 5
#     Node 2, Type 0, BuildingBlock: XOMCOT_clean_sbu_1, # of connection points: 5
#     Node 3, Type 0, BuildingBlock: XOMCOT_clean_sbu_1, # of connection points: 5
#     Node 4, Type 0, BuildingBlock: XOMCOT_clean_sbu_1, # of connection points: 5
#     Node 5, Type 0, BuildingBlock: XOMCOT_clean_sbu_1, # of connection points: 5
#     Node 6, Type 0, BuildingBlock: XOMCOT_clean_sbu_1, # of connection points: 5
#     Node 7, Type 0, BuildingBlock: XOMCOT_clean_sbu_1, # of connection points: 5
#     Node 8, Type 0, BuildingBlock: XOMCOT_clean_sbu_1, # of connection points: 5
#     Node 9, Type 0, BuildingBlock: XOMCOT_clean_sbu_1, # of connection points: 5
#     Node 10, Type 0, BuildingBlock: XOMCOT_clean_sbu_1, # of connection points: 5
#     Node 11, Type 0, BuildingBlock: XOMCOT_clean_sbu_1, # of connection points: 5
#     Node 12, Type 0, BuildingBlock: XOMCOT_clean_sbu_1, # of connection points: 5
#     Node 13, Type 0, BuildingBlock: XOMCOT_clean_sbu_1, # of connection points: 5
#     Node 14, Type 0, BuildingBlock: XOMCOT_clean_sbu_1, # of connection points: 5
#     Node 15, Type 0, BuildingBlock: XOMCOT_clean_sbu_1, # of connection points: 5
#     Node 16, Type 0, BuildingBlock: XOMCOT_clean_sbu_1, # of connection points: 5
#     Node 17, Type 0, BuildingBlock: XOMCOT_clean_sbu_1, # of connection points: 5
#     Node 18, Type 0, BuildingBlock: XOMCOT_clean_sbu_1, # of connection points: 5
#     Node 19, Type 0, BuildingBlock: XOMCOT_clean_sbu_1, # of connection points: 5
#     Node 20, Type 0, BuildingBlock: XOMCOT_clean_sbu_1, # of connection points: 5
#     Node 21, Type 0, BuildingBlock: XOMCOT_clean_sbu_1, # of connection points: 5
#     Node 22, Type 0, BuildingBlock: XOMCOT_clean_sbu_1, # of connection points: 5
#     Node 23, Type 0, BuildingBlock: XOMCOT_clean_sbu_1, # of connection points: 5
#     Node 24, Type 0, BuildingBlock: XOMCOT_clean_sbu_1, # of connection points: 5
#     Node 25, Type 0, BuildingBlock: XOMCOT_clean_sbu_1, # of connection points: 5
#     Node 26, Type 0, BuildingBlock: XOMCOT_clean_sbu_1, # of connection points: 5
#     Node 27, Type 0, BuildingBlock: XOMCOT_clean_sbu_1, # of connection points: 5
#     Node 28, Type 0, BuildingBlock: XOMCOT_clean_sbu_1, # of connection points: 5
#     Node 29, Type 0, BuildingBlock: XOMCOT_clean_sbu_1, # of connection points: 5
#     Node 30, Type 0, BuildingBlock: XOMCOT_clean_sbu_1, # of connection points: 5
#     Node 31, Type 0, BuildingBlock: XOMCOT_clean_sbu_1, # of connection points: 5
#     Node 32, Type 0, BuildingBlock: XOMCOT_clean_sbu_1, # of connection points: 5
#     Node 33, Type 0, BuildingBlock: XOMCOT_clean_sbu_1, # of connection points: 5
#     Node 34, Type 0, BuildingBlock: XOMCOT_clean_sbu_1, # of connection points: 5
#     Node 35, Type 0, BuildingBlock: XOMCOT_clean_sbu_1, # of connection points: 5
#     Node 36, Type 0, BuildingBlock: XOMCOT_clean_sbu_1, # of connection points: 5
#     Node 37, Type 0, BuildingBlock: XOMCOT_clean_sbu_1, # of connection points: 5
#     Node 38, Type 0, BuildingBlock: XOMCOT_clean_sbu_1, # of connection points: 5
#     Node 39, Type 0, BuildingBlock: XOMCOT_clean_sbu_1, # of connection points: 5
#     Node 40, Type 0, BuildingBlock: XOMCOT_clean_sbu_1, # of connection points: 5
#     Node 41, Type 0, BuildingBlock: XOMCOT_clean_sbu_1, # of connection points: 5
#     Node 42, Type 0, BuildingBlock: XOMCOT_clean_sbu_1, # of connection points: 5
#     Node 43, Type 0, BuildingBlock: XOMCOT_clean_sbu_1, # of connection points: 5
#     Node 44, Type 0, BuildingBlock: XOMCOT_clean_sbu_1, # of connection points: 5
#     Node 45, Type 0, BuildingBlock: XOMCOT_clean_sbu_1, # of connection points: 5
#     Node 46, Type 0, BuildingBlock: XOMCOT_clean_sbu_1, # of connection points: 5
#     Node 47, Type 0, BuildingBlock: XOMCOT_clean_sbu_1, # of connection points: 5
#     Edge 48, Type (0, 0), BuildingBlock: EZIPEK_clean_linker_0, # of connection points: 2
#     Edge 49, Type (0, 0), BuildingBlock: EZIPEK_clean_linker_0, # of connection points: 2
#     Edge 50, Type (0, 0), BuildingBlock: EZIPEK_clean_linker_0, # of connection points: 2
#     Edge 51, Type (0, 0), BuildingBlock: EZIPEK_clean_linker_0, # of connection points: 2
#     Edge 52, Type (0, 0), BuildingBlock: EZIPEK_clean_linker_0, # of connection points: 2
#     Edge 53, Type (0, 0), BuildingBlock: EZIPEK_clean_linker_0, # of connection points: 2
#     Edge 54, Type (0, 0), BuildingBlock: EZIPEK_clean_linker_0, # of connection points: 2
#     Edge 55, Type (0, 0), BuildingBlock: EZIPEK_clean_linker_0, # of connection points: 2
#     Edge 56, Type (0, 0), BuildingBlock: EZIPEK_clean_linker_0, # of connection points: 2
#     Edge 57, Type (0, 0), BuildingBlock: EZIPEK_clean_linker_0, # of connection points: 2
#     Edge 58, Type (0, 0), BuildingBlock: EZIPEK_clean_linker_0, # of connection points: 2
#     Edge 59, Type (0, 0), BuildingBlock: EZIPEK_clean_linker_0, # of connection points: 2
#     Edge 60, Type (0, 0), BuildingBlock: EZIPEK_clean_linker_0, # of connection points: 2
#     Edge 61, Type (0, 0), BuildingBlock: EZIPEK_clean_linker_0, # of connection points: 2
#     Edge 62, Type (0, 0), BuildingBlock: EZIPEK_clean_linker_0, # of connection points: 2
#     Edge 63, Type (0, 0), BuildingBlock: EZIPEK_clean_linker_0, # of connection points: 2
#     Edge 64, Type (0, 0), BuildingBlock: EZIPEK_clean_linker_0, # of connection points: 2
#     Edge 65, Type (0, 0), BuildingBlock: EZIPEK_clean_linker_0, # of connection points: 2
#     Edge 66, Type (0, 0), BuildingBlock: EZIPEK_clean_linker_0, # of connection points: 2
#     Edge 67, Type (0, 0), BuildingBlock: EZIPEK_clean_linker_0, # of connection points: 2
#     Edge 68, Type (0, 0), BuildingBlock: EZIPEK_clean_linker_0, # of connection points: 2
#     Edge 69, Type (0, 0), BuildingBlock: EZIPEK_clean_linker_0, # of connection points: 2
#     Edge 70, Type (0, 0), BuildingBlock: EZIPEK_clean_linker_0, # of connection points: 2
#     Edge 71, Type (0, 0), BuildingBlock: EZIPEK_clean_linker_0, # of connection points: 2
#     Edge 72, Type (0, 0), BuildingBlock: EZIPEK_clean_linker_0, # of connection points: 2
#     Edge 73, Type (0, 0), BuildingBlock: EZIPEK_clean_linker_0, # of connection points: 2
#     Edge 74, Type (0, 0), BuildingBlock: EZIPEK_clean_linker_0, # of connection points: 2
#     Edge 75, Type (0, 0), BuildingBlock: EZIPEK_clean_linker_0, # of connection points: 2
#     Edge 76, Type (0, 0), BuildingBlock: EZIPEK_clean_linker_0, # of connection points: 2
#     Edge 77, Type (0, 0), BuildingBlock: EZIPEK_clean_linker_0, # of connection points: 2
#     Edge 78, Type (0, 0), BuildingBlock: EZIPEK_clean_linker_0, # of connection points: 2
#     Edge 79, Type (0, 0), BuildingBlock: EZIPEK_clean_linker_0, # of connection points: 2
#     Edge 80, Type (0, 0), BuildingBlock: EZIPEK_clean_linker_0, # of connection points: 2
#     Edge 81, Type (0, 0), BuildingBlock: EZIPEK_clean_linker_0, # of connection points: 2
#     Edge 82, Type (0, 0), BuildingBlock: EZIPEK_clean_linker_0, # of connection points: 2
#     Edge 83, Type (0, 0), BuildingBlock: EZIPEK_clean_linker_0, # of connection points: 2
#     Edge 84, Type (0, 0), BuildingBlock: EZIPEK_clean_linker_0, # of connection points: 2
#     Edge 85, Type (0, 0), BuildingBlock: EZIPEK_clean_linker_0, # of connection points: 2
#     Edge 86, Type (0, 0), BuildingBlock: EZIPEK_clean_linker_0, # of connection points: 2
#     Edge 87, Type (0, 0), BuildingBlock: EZIPEK_clean_linker_0, # of connection points: 2
#     Edge 88, Type (0, 0), BuildingBlock: EZIPEK_clean_linker_0, # of connection points: 2
#     Edge 89, Type (0, 0), BuildingBlock: EZIPEK_clean_linker_0, # of connection points: 2
#     Edge 90, Type (0, 0), BuildingBlock: EZIPEK_clean_linker_0, # of connection points: 2
#     Edge 91, Type (0, 0), BuildingBlock: EZIPEK_clean_linker_0, # of connection points: 2
#     Edge 92, Type (0, 0), BuildingBlock: EZIPEK_clean_linker_0, # of connection points: 2
#     Edge 93, Type (0, 0), BuildingBlock: EZIPEK_clean_linker_0, # of connection points: 2
#     Edge 94, Type (0, 0), BuildingBlock: EZIPEK_clean_linker_0, # of connection points: 2
#     Edge 95, Type (0, 0), BuildingBlock: EZIPEK_clean_linker_0, # of connection points: 2
#     Edge 96, Type (0, 0), BuildingBlock: EZIPEK_clean_linker_0, # of connection points: 2
#     Edge 97, Type (0, 0), BuildingBlock: EZIPEK_clean_linker_0, # of connection points: 2
#     Edge 98, Type (0, 0), BuildingBlock: EZIPEK_clean_linker_0, # of connection points: 2
#     Edge 99, Type (0, 0), BuildingBlock: EZIPEK_clean_linker_0, # of connection points: 2
#     Edge 100, Type (0, 0), BuildingBlock: EZIPEK_clean_linker_0, # of connection points: 2
#     Edge 101, Type (0, 0), BuildingBlock: EZIPEK_clean_linker_0, # of connection points: 2
#     Edge 102, Type (0, 0), BuildingBlock: EZIPEK_clean_linker_0, # of connection points: 2
#     Edge 103, Type (0, 0), BuildingBlock: EZIPEK_clean_linker_0, # of connection points: 2
#     Edge 104, Type (0, 0), BuildingBlock: EZIPEK_clean_linker_0, # of connection points: 2
#     Edge 105, Type (0, 0), BuildingBlock: EZIPEK_clean_linker_0, # of connection points: 2
#     Edge 106, Type (0, 0), BuildingBlock: EZIPEK_clean_linker_0, # of connection points: 2
#     Edge 107, Type (0, 0), BuildingBlock: EZIPEK_clean_linker_0, # of connection points: 2
#     Edge 108, Type (0, 0), BuildingBlock: EZIPEK_clean_linker_0, # of connection points: 2
#     Edge 109, Type (0, 0), BuildingBlock: EZIPEK_clean_linker_0, # of connection points: 2
#     Edge 110, Type (0, 0), BuildingBlock: EZIPEK_clean_linker_0, # of connection points: 2
#     Edge 111, Type (0, 0), BuildingBlock: EZIPEK_clean_linker_0, # of connection points: 2
#     Edge 112, Type (0, 0), BuildingBlock: EZIPEK_clean_linker_0, # of connection points: 2
#     Edge 113, Type (0, 0), BuildingBlock: EZIPEK_clean_linker_0, # of connection points: 2
#     Edge 114, Type (0, 0), BuildingBlock: EZIPEK_clean_linker_0, # of connection points: 2
#     Edge 115, Type (0, 0), BuildingBlock: EZIPEK_clean_linker_0, # of connection points: 2
#     Edge 116, Type (0, 0), BuildingBlock: EZIPEK_clean_linker_0, # of connection points: 2
#     Edge 117, Type (0, 0), BuildingBlock: EZIPEK_clean_linker_0, # of connection points: 2
#     Edge 118, Type (0, 0), BuildingBlock: EZIPEK_clean_linker_0, # of connection points: 2
#     Edge 119, Type (0, 0), BuildingBlock: EZIPEK_clean_linker_0, # of connection points: 2
#     Edge 120, Type (0, 0), BuildingBlock: EZIPEK_clean_linker_0, # of connection points: 2
#     Edge 121, Type (0, 0), BuildingBlock: EZIPEK_clean_linker_0, # of connection points: 2
#     Edge 122, Type (0, 0), BuildingBlock: EZIPEK_clean_linker_0, # of connection points: 2
#     Edge 123, Type (0, 0), BuildingBlock: EZIPEK_clean_linker_0, # of connection points: 2
#     Edge 124, Type (0, 0), BuildingBlock: EZIPEK_clean_linker_0, # of connection points: 2
#     Edge 125, Type (0, 0), BuildingBlock: EZIPEK_clean_linker_0, # of connection points: 2
#     Edge 126, Type (0, 0), BuildingBlock: EZIPEK_clean_linker_0, # of connection points: 2
#     Edge 127, Type (0, 0), BuildingBlock: EZIPEK_clean_linker_0, # of connection points: 2
#     Edge 128, Type (0, 0), BuildingBlock: EZIPEK_clean_linker_0, # of connection points: 2
#     Edge 129, Type (0, 0), BuildingBlock: EZIPEK_clean_linker_0, # of connection points: 2
#     Edge 130, Type (0, 0), BuildingBlock: EZIPEK_clean_linker_0, # of connection points: 2
#     Edge 131, Type (0, 0), BuildingBlock: EZIPEK_clean_linker_0, # of connection points: 2
#     Edge 132, Type (0, 0), BuildingBlock: EZIPEK_clean_linker_0, # of connection points: 2
#     Edge 133, Type (0, 0), BuildingBlock: EZIPEK_clean_linker_0, # of connection points: 2
#     Edge 134, Type (0, 0), BuildingBlock: EZIPEK_clean_linker_0, # of connection points: 2
#     Edge 135, Type (0, 0), BuildingBlock: EZIPEK_clean_linker_0, # of connection points: 2
#     Edge 136, Type (0, 0), BuildingBlock: EZIPEK_clean_linker_0, # of connection points: 2
#     Edge 137, Type (0, 0), BuildingBlock: EZIPEK_clean_linker_0, # of connection points: 2
#     Edge 138, Type (0, 0), BuildingBlock: EZIPEK_clean_linker_0, # of connection points: 2
#     Edge 139, Type (0, 0), BuildingBlock: EZIPEK_clean_linker_0, # of connection points: 2
#     Edge 140, Type (0, 0), BuildingBlock: EZIPEK_clean_linker_0, # of connection points: 2
#     Edge 141, Type (0, 0), BuildingBlock: EZIPEK_clean_linker_0, # of connection points: 2
#     Edge 142, Type (0, 0), BuildingBlock: EZIPEK_clean_linker_0, # of connection points: 2
#     Edge 143, Type (0, 0), BuildingBlock: EZIPEK_clean_linker_0, # of connection points: 2
#     Edge 144, Type (0, 0), BuildingBlock: EZIPEK_clean_linker_0, # of connection points: 2
#     Edge 145, Type (0, 0), BuildingBlock: EZIPEK_clean_linker_0, # of connection points: 2
#     Edge 146, Type (0, 0), BuildingBlock: EZIPEK_clean_linker_0, # of connection points: 2
#     Edge 147, Type (0, 0), BuildingBlock: EZIPEK_clean_linker_0, # of connection points: 2
#     Edge 148, Type (0, 0), BuildingBlock: EZIPEK_clean_linker_0, # of connection points: 2
#     Edge 149, Type (0, 0), BuildingBlock: EZIPEK_clean_linker_0, # of connection points: 2
#     Edge 150, Type (0, 0), BuildingBlock: EZIPEK_clean_linker_0, # of connection points: 2
#     Edge 151, Type (0, 0), BuildingBlock: EZIPEK_clean_linker_0, # of connection points: 2
#     Edge 152, Type (0, 0), BuildingBlock: EZIPEK_clean_linker_0, # of connection points: 2
#     Edge 153, Type (0, 0), BuildingBlock: EZIPEK_clean_linker_0, # of connection points: 2
#     Edge 154, Type (0, 0), BuildingBlock: EZIPEK_clean_linker_0, # of connection points: 2
#     Edge 155, Type (0, 0), BuildingBlock: EZIPEK_clean_linker_0, # of connection points: 2
#     Edge 156, Type (0, 0), BuildingBlock: EZIPEK_clean_linker_0, # of connection points: 2
#     Edge 157, Type (0, 0), BuildingBlock: EZIPEK_clean_linker_0, # of connection points: 2
#     Edge 158, Type (0, 0), BuildingBlock: EZIPEK_clean_linker_0, # of connection points: 2
#     Edge 159, Type (0, 0), BuildingBlock: EZIPEK_clean_linker_0, # of connection points: 2
#     Edge 160, Type (0, 0), BuildingBlock: EZIPEK_clean_linker_0, # of connection points: 2
#     Edge 161, Type (0, 0), BuildingBlock: EZIPEK_clean_linker_0, # of connection points: 2
#     Edge 162, Type (0, 0), BuildingBlock: EZIPEK_clean_linker_0, # of connection points: 2
#     Edge 163, Type (0, 0), BuildingBlock: EZIPEK_clean_linker_0, # of connection points: 2
#     Edge 164, Type (0, 0), BuildingBlock: EZIPEK_clean_linker_0, # of connection points: 2
#     Edge 165, Type (0, 0), BuildingBlock: EZIPEK_clean_linker_0, # of connection points: 2
#     Edge 166, Type (0, 0), BuildingBlock: EZIPEK_clean_linker_0, # of connection points: 2
#     Edge 167, Type (0, 0), BuildingBlock: EZIPEK_clean_linker_0, # of connection points: 2
# Relax obj value: 0.588
# Max RMSD: 0.227
# Mean RMSD: 0.227
data_MOF--net-fch--node1-XOMCOT_clean_sbu_1--edge1-EZIPEK_clean_linker_0
_symmetry_space_group_name_H-M    P1
_symmetry_Int_Tables_number       1
_symmetry_cell_setting            triclinic
loop_
_symmetry_equiv_pos_as_xyz
'x, y, z'
_cell_length_a     59.827803
_cell_length_b     59.844577
_cell_length_c     59.853578
_cell_angle_alpha  90.046132
_cell_angle_beta   89.972526
_cell_angle_gamma 90.022904
loop_
_atom_site_label
_atom_site_type_symbol
_atom_site_fract_x
_atom_site_fract_y
_atom_site_fract_z
_atom_type_partial_charge
C0 C 0.01631 0.38578 0.13556 0.0
C1 C 0.99629 0.37552 0.13005 0.0
N2 N 0.98818 0.3856 0.11163 0.0
N3 N 0.02046 0.40214 0.1206 0.0
C4 C 0.00351 0.40086 0.10585 0.0
H5 H 0.02657 0.38222 0.15 0.0
Co6 Co 0.0427 0.42372 0.11807 0.0
C7 C -0.00012 0.45176 0.11958 0.0
O8 O 0.98816 0.43658 0.13022 0.0
N9 N 0.06459 0.44582 0.11417 0.0
C10 C 0.07922 0.47652 0.09912 0.0
C11 C 0.06251 0.46104 0.09758 0.0
C12 C 0.08331 0.45219 0.12522 0.0
N13 N 0.09208 0.47094 0.11655 0.0
O14 O 0.04444 0.41779 0.08661 0.0
H15 H 0.04913 0.46132 0.08544 0.0
H16 H 0.09036 0.44401 0.13959 0.0
O17 O 0.02016 0.4478 0.114 0.0
C18 C 0.0566 0.40056 0.08347 0.0
O19 O 0.06309 0.38895 0.10093 0.0
N20 N 0.04371 0.42767 0.14949 0.0
C21 C 0.05749 0.43603 0.19343 0.0
C22 C 0.03616 0.4425 0.18605 0.0
C23 C 0.02996 0.439 0.1638 0.0
C24 C 0.0627 0.41808 0.15752 0.0
C25 C 0.07075 0.42345 0.17873 0.0
H26 H 0.01449 0.4461 0.15851 0.0
H27 H 0.07305 0.40829 0.14637 0.0
H28 H 0.00144 0.4123 0.09199 0.0
H29 H 0.98762 0.3629 0.13968 0.0
H30 H 0.08138 0.49123 0.08883 0.0
H31 H 0.02488 0.45148 0.197 0.0
H32 H 0.08739 0.41808 0.18336 0.0
C33 C 0.62657 0.02668 0.11355 0.0
C34 C 0.63062 0.00672 0.10284 0.0
N35 N 0.61282 0.99327 0.10586 0.0
N36 N 0.606 0.02617 0.12279 0.0
C37 C 0.5984 0.00528 0.11842 0.0
H38 H 0.63729 0.04118 0.11303 0.0
Co39 Co 0.58912 0.05142 0.13077 0.0
C40 C 0.54497 0.03121 0.14242 0.0
O41 O 0.54523 0.03994 0.16249 0.0
N42 N 0.57082 0.07712 0.13815 0.0
C43 C 0.54655 0.10003 0.15475 0.0
C44 C 0.56218 0.08378 0.15797 0.0
C45 C 0.5595 0.08987 0.12326 0.0
N46 N 0.54503 0.10455 0.13276 0.0
O47 O 0.58664 0.05855 0.09979 0.0
H48 H 0.56452 0.07568 0.17382 0.0
H49 H 0.55985 0.08649 0.10565 0.0
O50 O 0.56143 0.0339 0.12909 0.0
C51 C 0.6021 0.07197 0.09376 0.0
O52 O 0.61742 0.07777 0.10839 0.0
N53 N 0.59463 0.04584 0.16109 0.0
C54 C 0.59357 0.05125 0.20704 0.0
C55 C 0.58949 0.03005 0.19744 0.0
C56 C 0.58945 0.02785 0.17404 0.0
C57 C 0.60528 0.06364 0.1704 0.0
C58 C 0.60345 0.06751 0.19323 0.0
H59 H 0.5837 0.01254 0.16645 0.0
H60 H 0.61139 0.0769 0.15974 0.0
H61 H 0.58187 0.9994 0.12275 0.0
H62 H 0.64506 0.00279 0.09267 0.0
H63 H 0.53536 0.10576 0.1677 0.0
H64 H 0.58388 0.01617 0.2076 0.0
H65 H 0.60755 0.08405 0.19926 0.0
C66 C 0.97349 0.61528 0.13474 0.0
C67 C 0.99535 0.61909 0.12851 0.0
N68 N 0.00182 0.60209 0.1153 0.0
N69 N 0.96651 0.59587 0.12561 0.0
C70 C 0.98408 0.58839 0.11361 0.0
H71 H 0.9634 0.62588 0.14533 0.0
Co72 Co 0.93862 0.58292 0.12838 0.0
C73 C 0.94997 0.53289 0.13065 0.0
O74 O 0.93521 0.52887 0.14637 0.0
N75 N 0.9098 0.5702 0.13103 0.0
C76 C 0.87539 0.5611 0.14232 0.0
C77 C 0.8923 0.57657 0.14396 0.0
C78 C 0.90228 0.55181 0.12045 0.0
N79 N 0.882 0.54543 0.12775 0.0
O80 O 0.93463 0.5861 0.09676 0.0
H81 H 0.89161 0.59131 0.15428 0.0
H82 H 0.91178 0.54286 0.10803 0.0
O83 O 0.95241 0.55282 0.12311 0.0
C84 C 0.91823 0.59701 0.08871 0.0
O85 O 0.90335 0.60543 0.10249 0.0
N86 N 0.9422 0.58166 0.15961 0.0
C87 C 0.9324 0.57792 0.20457 0.0
C88 C 0.94772 0.56327 0.19465 0.0
C89 C 0.95294 0.56585 0.17204 0.0
C90 C 0.93081 0.59838 0.17006 0.0
C91 C 0.92509 0.59654 0.19256 0.0
H92 H 0.9646 0.55444 0.16457 0.0
H93 H 0.92403 0.61198 0.16028 0.0
H94 H 0.98401 0.57321 0.10378 0.0
H95 H 0.0058 0.63299 0.13351 0.0
H96 H 0.86 0.56073 0.15184 0.0
H97 H 0.95455 0.54932 0.20393 0.0
H98 H 0.91388 0.60863 0.20003 0.0
C99 C 0.38252 0.97617 0.12193 0.0
C100 C 0.3747 0.99408 0.10968 0.0
N101 N 0.39247 0.0056 0.10204 0.0
N102 N 0.40508 0.97642 0.12192 0.0
C103 C 0.41041 0.99395 0.10886 0.0
H104 H 0.37234 0.96346 0.12973 0.0
Co105 Co 0.42443 0.95456 0.13273 0.0
C106 C 0.45733 0.99416 0.13362 0.0
O107 O 0.44284 0.00905 0.14077 0.0
N108 N 0.44415 0.93223 0.14301 0.0
C109 C 0.46428 0.90965 0.16467 0.0
C110 C 0.44518 0.92215 0.16319 0.0
C111 C 0.46251 0.92468 0.13218 0.0
N112 N 0.47505 0.9111 0.14505 0.0
O113 O 0.42803 0.94471 0.10253 0.0
H114 H 0.43324 0.92397 0.17636 0.0
H115 H 0.46711 0.9297 0.11546 0.0
O116 O 0.45119 0.97398 0.13004 0.0
C117 C 0.41854 0.9261 0.09833 0.0
O118 O 0.41099 0.91415 0.11514 0.0
N119 N 0.41832 0.96294 0.16266 0.0
C120 C 0.41417 0.95445 0.20809 0.0
C121 C 0.43079 0.96885 0.20021 0.0
C122 C 0.43245 0.97312 0.17742 0.0
C123 C 0.39996 0.95179 0.17045 0.0
C124 C 0.39747 0.94737 0.19328 0.0
H125 H 0.44653 0.98262 0.17214 0.0
H126 H 0.38899 0.94344 0.15879 0.0
H127 H 0.42709 0.99767 0.1034 0.0
H128 H 0.35738 0.99846 0.10685 0.0
H129 H 0.46974 0.89996 0.17893 0.0
H130 H 0.44377 0.97496 0.21128 0.0
H131 H 0.38419 0.93642 0.19888 0.0
C132 C 0.0323 0.61618 0.88029 0.0
C133 C 0.01008 0.61961 0.88476 0.0
N134 N 0.99854 0.60037 0.88157 0.0
N135 N 0.03558 0.59454 0.87549 0.0
C136 C 0.01494 0.58527 0.87702 0.0
H137 H 0.04523 0.62876 0.8808 0.0
Co138 Co 0.06326 0.58147 0.86811 0.0
C139 C 0.04386 0.53542 0.85788 0.0
O140 O 0.04402 0.53767 0.83615 0.0
N141 N 0.09092 0.5677 0.86058 0.0
C142 C 0.12614 0.54031 0.83522 0.0
C143 C 0.09339 0.55019 0.8355 0.0
C144 C 0.11731 0.57014 0.87576 0.0
N145 N 0.13799 0.55311 0.86041 0.0
O146 O 0.07079 0.57966 0.8991 0.0
H147 H 0.08061 0.54616 0.82351 0.0
H148 H 0.11876 0.57497 0.89304 0.0
O149 O 0.05028 0.55138 0.8705 0.0
C150 C 0.07952 0.59729 0.90736 0.0
O151 O 0.082 0.61489 0.89452 0.0
N152 N 0.05727 0.58584 0.83749 0.0
C153 C 0.06184 0.58327 0.79155 0.0
C154 C 0.04078 0.57969 0.80155 0.0
C155 C 0.03888 0.58084 0.82495 0.0
C156 C 0.07514 0.59575 0.82744 0.0
C157 C 0.0786 0.59304 0.80472 0.0
H158 H 0.02353 0.57554 0.83286 0.0
H159 H 0.08849 0.60264 0.8375 0.0
H160 H 0.01231 0.56764 0.87525 0.0
H161 H 0.00342 0.63525 0.89082 0.0
H162 H 0.13371 0.5273 0.8252 0.0
H163 H 0.02675 0.57378 0.79176 0.0
H164 H 0.09494 0.597 0.79804 0.0
C165 C 0.38265 0.01264 0.85772 0.0
C166 C 0.37661 0.99219 0.86639 0.0
N167 N 0.38901 0.98855 0.88475 0.0
N168 N 0.39899 0.02164 0.87049 0.0
C169 C 0.40167 0.00692 0.88733 0.0
H170 H 0.37587 0.01986 0.8427 0.0
Co171 Co 0.41553 0.04802 0.86777 0.0
C172 C 0.45059 0.01226 0.87112 0.0
O173 O 0.43882 0.0006 0.85671 0.0
N174 N 0.43106 0.07461 0.86526 0.0
C175 C 0.442 0.10761 0.85217 0.0
C176 C 0.42566 0.09151 0.85129 0.0
C177 C 0.45028 0.08102 0.87498 0.0
N178 N 0.45735 0.10079 0.86701 0.0
O179 O 0.40901 0.05455 0.89855 0.0
H180 H 0.41106 0.09181 0.84066 0.0
H181 H 0.45925 0.07125 0.88722 0.0
O182 O 0.44357 0.03167 0.87714 0.0
C183 C 0.39767 0.07193 0.90338 0.0
O184 O 0.39041 0.08466 0.88704 0.0
N185 N 0.42115 0.04324 0.83704 0.0
C186 C 0.42951 0.05211 0.79213 0.0
C187 C 0.44673 0.04509 0.80613 0.0
C188 C 0.44234 0.04137 0.8286 0.0
C189 C 0.40401 0.04931 0.82327 0.0
C190 C 0.40779 0.05372 0.80064 0.0
H191 H 0.45655 0.03938 0.83925 0.0
H192 H 0.38782 0.05318 0.8303 0.0
H193 H 0.41354 0.00917 0.90076 0.0
H194 H 0.36512 0.9803 0.85903 0.0
H195 H 0.44298 0.12272 0.84229 0.0
H196 H 0.46381 0.04442 0.80013 0.0
H197 H 0.39425 0.0598 0.79029 0.0
C198 C 0.97923 0.38152 0.88223 0.0
C199 C 0.99757 0.37612 0.89527 0.0
N200 N 0.01209 0.39331 0.89443 0.0
N201 N 0.98186 0.40232 0.87403 0.0
C202 C 0.00254 0.40838 0.88085 0.0
H203 H 0.96392 0.372 0.881 0.0
Co204 Co 0.95893 0.42279 0.86772 0.0
C205 C 0.99234 0.46069 0.85552 0.0
O206 O 0.99112 0.45987 0.83368 0.0
N207 N 0.93658 0.44452 0.8619 0.0
C208 C 0.92229 0.47465 0.84558 0.0
C209 C 0.93941 0.4599 0.84568 0.0
C210 C 0.91673 0.4502 0.87133 0.0
N211 N 0.9079 0.46866 0.86161 0.0
O212 O 0.9549 0.42664 0.89929 0.0
H213 H 0.95282 0.46022 0.83402 0.0
H214 H 0.90899 0.4412 0.88494 0.0
O215 O 0.98092 0.44748 0.86789 0.0
C216 C 0.94022 0.41346 0.90741 0.0
O217 O 0.92937 0.40023 0.89362 0.0
N218 N 0.96095 0.41663 0.83684 0.0
C219 C 0.9538 0.41946 0.79125 0.0
C220 C 0.97568 0.42023 0.79981 0.0
C221 C 0.97899 0.41784 0.82296 0.0
C222 C 0.94046 0.4114 0.82827 0.0
C223 C 0.93636 0.41329 0.80548 0.0
H224 H 0.99565 0.41916 0.82982 0.0
H225 H 0.92659 0.40828 0.83944 0.0
H226 H 0.00974 0.42467 0.87859 0.0
H227 H 0.99924 0.36161 0.90593 0.0
H228 H 0.92035 0.48874 0.83439 0.0
H229 H 0.98971 0.424 0.78902 0.0
H230 H 0.91942 0.41168 0.79929 0.0
C231 C 0.61598 0.9797 0.87245 0.0
C232 C 0.62158 0.00024 0.88123 0.0
N233 N 0.60388 0.00784 0.89284 0.0
N234 N 0.59486 0.97462 0.87848 0.0
C235 C 0.58806 0.99196 0.89117 0.0
H236 H 0.6266 0.96912 0.86235 0.0
Co237 Co 0.58017 0.94828 0.87208 0.0
C238 C 0.53117 0.96202 0.86948 0.0
O239 O 0.52773 0.94859 0.85247 0.0
N240 N 0.56601 0.92081 0.86605 0.0
C241 C 0.5559 0.88759 0.85236 0.0
C242 C 0.57154 0.90441 0.85142 0.0
C243 C 0.54786 0.91273 0.8767 0.0
N244 N 0.54099 0.89312 0.86814 0.0
O245 O 0.5826 0.93973 0.90251 0.0
H246 H 0.58598 0.90427 0.84067 0.0
H247 H 0.5396 0.92123 0.89031 0.0
O248 O 0.55068 0.96314 0.87838 0.0
C249 C 0.6009 0.9298 0.90687 0.0
O250 O 0.6158 0.92716 0.89096 0.0
N251 N 0.57971 0.95592 0.84158 0.0
C252 C 0.57535 0.95201 0.7959 0.0
C253 C 0.56203 0.96722 0.80761 0.0
C254 C 0.56504 0.96951 0.83062 0.0
C255 C 0.59559 0.94467 0.82976 0.0
C256 C 0.59341 0.94195 0.80674 0.0
H257 H 0.5546 0.98109 0.83948 0.0
H258 H 0.60856 0.93568 0.83857 0.0
H259 H 0.57199 0.99291 0.89939 0.0
H260 H 0.63714 0.00917 0.87887 0.0
H261 H 0.55515 0.87282 0.84195 0.0
H262 H 0.54864 0.97615 0.79933 0.0
H263 H 0.60454 0.93075 0.79787 0.0
C264 C 0.13749 0.00927 0.38305 0.0
C265 C 0.12922 0.98853 0.37736 0.0
N266 N 0.11027 0.98527 0.38898 0.0
N267 N 0.12388 0.0188 0.39839 0.0
C268 C 0.10712 0.00396 0.40101 0.0
H269 H 0.15271 0.01646 0.37662 0.0
Co270 Co 0.12517 0.04649 0.41291 0.0
C271 C 0.12303 0.01301 0.4502 0.0
O272 O 0.13762 0.00094 0.43913 0.0
N273 N 0.12614 0.07429 0.42601 0.0
C274 C 0.13697 0.10909 0.43314 0.0
C275 C 0.13778 0.09187 0.41794 0.0
C276 C 0.1177 0.08135 0.44559 0.0
N277 N 0.12439 0.10225 0.45041 0.0
O278 O 0.09438 0.05116 0.40665 0.0
H279 H 0.14696 0.09185 0.40238 0.0
H280 H 0.10735 0.07131 0.45645 0.0
O281 O 0.11672 0.03189 0.44214 0.0
C282 C 0.08895 0.0569 0.38695 0.0
O283 O 0.10415 0.05689 0.3711 0.0
N284 N 0.15613 0.04397 0.41847 0.0
C285 C 0.20033 0.0566 0.42586 0.0
C286 C 0.18705 0.04934 0.44354 0.0
C287 C 0.16489 0.04358 0.43958 0.0
C288 C 0.16924 0.05043 0.40093 0.0
C289 C 0.19151 0.05675 0.40423 0.0
H290 H 0.15463 0.04102 0.45394 0.0
H291 H 0.16181 0.0528 0.38464 0.0
H292 H 0.09312 0.00655 0.41211 0.0
H293 H 0.13712 0.97629 0.36664 0.0
H294 H 0.14554 0.12499 0.43206 0.0
H295 H 0.19333 0.04959 0.46052 0.0
H296 H 0.20137 0.06274 0.39029 0.0
C297 C 0.97996 0.12903 0.37315 0.0
C298 C 0.9987 0.11899 0.36418 0.0
N299 N 0.00569 0.10328 0.37867 0.0
N300 N 0.9755 0.11973 0.3932 0.0
C301 C 0.99107 0.10367 0.39569 0.0
H302 H 0.97051 0.14253 0.36576 0.0
Co303 Co 0.95246 0.12628 0.41297 0.0
C304 C 0.99348 0.12627 0.4448 0.0
O305 O 0.00878 0.12977 0.42947 0.0
N306 N 0.92932 0.13276 0.433 0.0
C307 C 0.9107 0.14844 0.46086 0.0
C308 C 0.92948 0.14946 0.44807 0.0
C309 C 0.91017 0.12163 0.4372 0.0
N310 N 0.89821 0.13098 0.45405 0.0
O311 O 0.94593 0.09466 0.4156 0.0
H312 H 0.94254 0.16159 0.45008 0.0
H313 H 0.90588 0.10657 0.42855 0.0
O314 O 0.97272 0.12506 0.4395 0.0
C315 C 0.93643 0.08653 0.39824 0.0
O316 O 0.93418 0.09933 0.38055 0.0
N317 N 0.95652 0.15719 0.40848 0.0
C318 C 0.9473 0.2023 0.41331 0.0
C319 C 0.96791 0.19362 0.42035 0.0
C320 C 0.97248 0.1709 0.41723 0.0
C321 C 0.93814 0.16607 0.39834 0.0
C322 C 0.93312 0.18872 0.40061 0.0
H323 H 0.98786 0.16433 0.42363 0.0
H324 H 0.92599 0.15504 0.39072 0.0
H325 H 0.99239 0.09315 0.41031 0.0
H326 H 0.00719 0.12358 0.34889 0.0
H327 H 0.90725 0.15903 0.47513 0.0
H328 H 0.97968 0.20397 0.42942 0.0
H329 H 0.91741 0.19511 0.39429 0.0
C330 C 0.88719 0.96465 0.38376 0.0
C331 C 0.89855 0.98348 0.37666 0.0
N332 N 0.89511 -0.00025 0.3918 0.0
N333 N 0.87681 0.96916 0.40328 0.0
C334 C 0.88179 0.99082 0.40751 0.0
H335 H 0.8879 0.94828 0.37614 0.0
Co336 Co 0.86564 0.94823 0.42352 0.0
C337 C 0.85331 0.97602 0.46304 0.0
O338 O 0.83349 0.96684 0.46471 0.0
N339 N 0.85435 0.92715 0.44541 0.0
C340 C 0.83166 0.90815 0.46845 0.0
C341 C 0.83275 0.92187 0.45033 0.0
C342 C 0.86595 0.9166 0.46178 0.0
N343 N 0.8525 0.90493 0.47559 0.0
O344 O 0.896 0.94017 0.42944 0.0
H345 H 0.81808 0.92924 0.44325 0.0
H346 H 0.88378 0.91821 0.46429 0.0
O347 O 0.86661 0.97055 0.44732 0.0
C348 C 0.90107 0.92122 0.42108 0.0
O349 O 0.88464 0.90743 0.41634 0.0
N350 N 0.83659 0.95434 0.41402 0.0
C351 C 0.79119 0.94681 0.41021 0.0
C352 C 0.79927 0.96853 0.41481 0.0
C353 C 0.82239 0.97178 0.41748 0.0
C354 C 0.82938 0.936 0.40266 0.0
C355 C 0.80666 0.93123 0.40171 0.0
H356 H 0.82853 0.98738 0.42395 0.0
H357 H 0.84123 0.92303 0.39839 0.0
H358 H 0.8772 -0.00031 0.42254 0.0
H359 H 0.90945 0.98477 0.36228 0.0
H360 H 0.81668 0.90224 0.47673 0.0
H361 H 0.78792 0.98188 0.41934 0.0
H362 H 0.80193 0.91434 0.39735 0.0
C363 C 0.01605 0.86709 0.38522 0.0
C364 C 0.99629 0.87763 0.37975 0.0
N365 N 0.98915 0.88917 0.39775 0.0
N366 N 0.02144 0.87215 0.4065 0.0
C367 C 0.0054 0.88653 0.41307 0.0
H368 H 0.02595 0.85676 0.37422 0.0
Co369 Co 0.04755 0.86538 0.42207 0.0
C370 C 0.0127 0.86454 0.45909 0.0
O371 O 0.99844 0.85384 0.44623 0.0
N372 N 0.07419 0.85922 0.43662 0.0
C373 C 0.10855 0.84697 0.44402 0.0
C374 C 0.09179 0.84774 0.42829 0.0
C375 C 0.0808 0.86576 0.45709 0.0
N376 N 0.10152 0.85855 0.46191 0.0
O377 O 0.05502 0.89628 0.42173 0.0
H378 H 0.09266 0.84075 0.41167 0.0
H379 H 0.07103 0.87638 0.46801 0.0
O380 O 0.03214 0.8696 0.45152 0.0
C381 C 0.06558 0.9022 0.40425 0.0
O382 O 0.06929 0.88742 0.38845 0.0
N383 N 0.04189 0.83431 0.4211 0.0
C384 C 0.05598 0.78998 0.42198 0.0
C385 C 0.04358 0.7988 0.43966 0.0
C386 C 0.0372 0.82114 0.43918 0.0
C387 C 0.05123 0.825 0.40247 0.0
C388 C 0.05895 0.80294 0.40273 0.0
H389 H 0.03079 0.82774 0.45442 0.0
H390 H 0.05584 0.83561 0.38861 0.0
H391 H 0.00587 0.89534 0.42873 0.0
H392 H 0.98746 0.87628 0.36402 0.0
H393 H 0.1248 0.83924 0.44226 0.0
H394 H 0.04093 0.78916 0.45476 0.0
H395 H 0.06859 0.79665 0.38876 0.0
C396 C 0.12175 0.97654 0.61829 0.0
C397 C 0.11226 0.99661 0.62442 0.0
N398 N 0.10893 0.00873 0.60577 0.0
N399 N 0.12405 0.97594 0.59589 0.0
C400 C 0.11595 0.99571 0.58881 0.0
H401 H 0.12544 0.96268 0.62927 0.0
Co402 Co 0.13024 0.95006 0.58024 0.0
C403 C 0.12911 0.96402 0.5306 0.0
O404 O 0.14465 0.94951 0.52517 0.0
N405 N 0.13616 0.92283 0.56571 0.0
C406 C 0.14992 0.88925 0.557 0.0
C407 C 0.15121 0.90695 0.57156 0.0
C408 C 0.12499 0.91363 0.54846 0.0
N409 N 0.13348 0.89371 0.5425 0.0
O410 O 0.09944 0.94173 0.58375 0.0
H411 H 0.16228 0.90765 0.58573 0.0
H412 H 0.11095 0.92142 0.54034 0.0
O413 O 0.12257 0.96551 0.55104 0.0
C414 C 0.09442 0.92485 0.59574 0.0
O415 O 0.11065 0.91255 0.60393 0.0
N416 N 0.16093 0.95777 0.57863 0.0
C417 C 0.2064 0.95199 0.5724 0.0
C418 C 0.19432 0.96573 0.55801 0.0
C419 C 0.17157 0.96886 0.56176 0.0
C420 C 0.1733 0.94788 0.595 0.0
C421 C 0.1962 0.94425 0.59196 0.0
H422 H 0.16276 0.97904 0.55017 0.0
H423 H 0.1649 0.94027 0.60909 0.0
H424 H 0.11316 -0.00013 0.5716 0.0
H425 H 0.10759 0.00168 0.64116 0.0
H426 H 0.16042 0.87452 0.55675 0.0
H427 H 0.20208 0.97283 0.54328 0.0
H428 H 0.20537 0.93409 0.60379 0.0
C429 C 0.02678 0.1187 0.6156 0.0
C430 C 0.00622 0.10965 0.62064 0.0
N431 N 0.99245 0.11356 0.6033 0.0
N432 N 0.02594 0.12795 0.59508 0.0
C433 C 0.00466 0.12501 0.58827 0.0
H434 H 0.0419 0.11683 0.62533 0.0
Co435 Co 0.05103 0.13425 0.57824 0.0
C436 C 0.0341 0.13472 0.53002 0.0
O437 O 0.04738 0.15136 0.52474 0.0
N438 N 0.07723 0.14015 0.5617 0.0
C439 C 0.10943 0.15366 0.54842 0.0
C440 C 0.09373 0.15531 0.56517 0.0
C441 C 0.08412 0.12868 0.54361 0.0
N442 N 0.10304 0.13697 0.53492 0.0
O443 O 0.05918 0.10336 0.58039 0.0
H444 H 0.09469 0.16688 0.57893 0.0
H445 H 0.0752 0.11478 0.5365 0.0
O446 O 0.03381 0.12721 0.5501 0.0
C447 C 0.07713 0.09815 0.59058 0.0
O448 O 0.09034 0.11425 0.59757 0.0
N449 N 0.04381 0.16489 0.57819 0.0
C450 C 0.05012 0.21037 0.57323 0.0
C451 C 0.03443 0.1992 0.55998 0.0
C452 C 0.03111 0.17634 0.56315 0.0
C453 C 0.05566 0.17633 0.59392 0.0
C454 C 0.05956 0.19921 0.59145 0.0
H455 H 0.01956 0.16791 0.55251 0.0
H456 H 0.06459 0.16717 0.60669 0.0
H457 H 0.99866 0.12915 0.57184 0.0
H458 H 0.00207 0.09975 0.6352 0.0
H459 H 0.12396 0.16416 0.54598 0.0
H460 H 0.02612 0.20769 0.54633 0.0
H461 H 0.0713 0.20759 0.60238 0.0
C462 C 0.88688 0.03362 0.61963 0.0
C463 C 0.89481 0.0129 0.62566 0.0
N464 N 0.88873 0.99758 0.61007 0.0
N465 N 0.87661 0.03196 0.59981 0.0
C466 C 0.87835 0.01015 0.5943 0.0
H467 H 0.88979 0.04912 0.62838 0.0
Co468 Co 0.86686 0.05537 0.58173 0.0
C469 C 0.85345 0.03001 0.5404 0.0
O470 O 0.8323 0.03444 0.54379 0.0
N471 N 0.85705 0.07895 0.56182 0.0
C472 C 0.83681 0.09588 0.53528 0.0
C473 C 0.83609 0.0827 0.55385 0.0
C474 C 0.87012 0.09045 0.54725 0.0
N475 N 0.85824 0.10021 0.53079 0.0
O476 O 0.8976 0.06326 0.57742 0.0
H477 H 0.82114 0.07395 0.55858 0.0
H478 H 0.88808 0.08937 0.54671 0.0
O479 O 0.86798 0.03637 0.55473 0.0
C480 C 0.90314 0.08089 0.58808 0.0
O481 O 0.88712 0.09318 0.59677 0.0
N482 N 0.8372 0.04888 0.58973 0.0
C483 C 0.79129 0.05171 0.59207 0.0
C484 C 0.80163 0.03067 0.58956 0.0
C485 C 0.82504 0.02966 0.58801 0.0
C486 C 0.8278 0.06707 0.59965 0.0
C487 C 0.80471 0.06951 0.59953 0.0
H488 H 0.83295 0.0142 0.58306 0.0
H489 H 0.83812 0.08139 0.60362 0.0
H490 H 0.87336 0.00414 0.5782 0.0
H491 H 0.90581 0.01012 0.63968 0.0
H492 H 0.82293 0.09954 0.52426 0.0
H493 H 0.79184 0.01591 0.58583 0.0
H494 H 0.79794 0.08598 0.60267 0.0
C495 C 0.97112 0.88625 0.6268 0.0
C496 C 0.99144 0.89574 0.63236 0.0
N497 N 0.00486 0.89467 0.61431 0.0
N498 N 0.9716 0.87988 0.60518 0.0
C499 C 0.99255 0.88474 0.59833 0.0
H500 H 0.9565 0.88548 0.63739 0.0
Co501 Co 0.94741 0.8722 0.58694 0.0
C502 C 0.97702 0.8589 0.54693 0.0
O503 O 0.9771 0.8373 0.55033 0.0
N504 N 0.9235 0.86452 0.56751 0.0
C505 C 0.90498 0.84627 0.54113 0.0
C506 C 0.92387 0.84674 0.55365 0.0
C507 C 0.90381 0.87457 0.56293 0.0
N508 N 0.89185 0.86364 0.54696 0.0
O509 O 0.94168 0.90371 0.58219 0.0
H510 H 0.9371 0.83464 0.55246 0.0
H511 H 0.89905 0.89014 0.57048 0.0
O512 O 0.96677 0.87219 0.56019 0.0
C513 C 0.92889 0.91137 0.59747 0.0
O514 O 0.92152 0.89747 0.61278 0.0
N515 N 0.95109 0.84167 0.59425 0.0
C516 C 0.94489 0.79587 0.59167 0.0
C517 C 0.96672 0.80487 0.59264 0.0
C518 C 0.96949 0.82824 0.59373 0.0
C519 C 0.93104 0.83272 0.60027 0.0
C520 C 0.92709 0.81012 0.59716 0.0
H521 H 0.98598 0.83543 0.59192 0.0
H522 H 0.91699 0.84357 0.60371 0.0
H523 H 0.99852 0.88264 0.58147 0.0
H524 H 0.99571 0.90363 0.64807 0.0
H525 H 0.90223 0.8347 0.52754 0.0
H526 H 0.98121 0.79429 0.59027 0.0
H527 H 0.90995 0.80434 0.59749 0.0
C528 C 0.37506 0.11478 0.02627 0.0
C529 C 0.368 0.10472 0.00679 0.0
N530 N 0.38348 0.10862 0.99095 0.0
N531 N 0.39507 0.12456 0.02277 0.0
C532 C 0.39937 0.12111 0.0009 0.0
H533 H 0.36721 0.11317 0.04245 0.0
Co534 Co 0.41512 0.13175 0.04536 0.0
C535 C 0.45744 0.14266 0.02038 0.0
O536 O 0.45701 0.16329 0.02773 0.0
N537 N 0.43642 0.13864 0.0686 0.0
C538 C 0.46281 0.15616 0.08844 0.0
C539 C 0.44537 0.1588 0.07407 0.0
C540 C 0.44934 0.12399 0.08015 0.0
N541 N 0.4655 0.13428 0.092 0.0
O542 O 0.41731 0.10044 0.05137 0.0
H543 H 0.44163 0.1746 0.06641 0.0
H544 H 0.44844 0.10605 0.07851 0.0
O545 O 0.44115 0.12947 0.02488 0.0
C546 C 0.40648 0.09452 0.06873 0.0
O547 O 0.39915 0.11035 0.0821 0.0
N548 N 0.40956 0.16209 0.04055 0.0
C549 C 0.40955 0.20802 0.0455 0.0
C550 C 0.4127 0.1984 0.02419 0.0
C551 C 0.41298 0.17502 0.0221 0.0
C552 C 0.40014 0.17124 0.05912 0.0
C553 C 0.40142 0.19415 0.06261 0.0
H554 H 0.41784 0.16746 0.00642 0.0
H555 H 0.39533 0.16051 0.07285 0.0
H556 H 0.41466 0.12603 0.99272 0.0
H557 H 0.3536 0.09393 0.00484 0.0
H558 H 0.47403 0.16915 0.09422 0.0
H559 H 0.41729 0.20863 0.00999 0.0
H560 H 0.39809 0.20044 0.07924 0.0
C561 C 0.38164 0.88608 0.97803 0.0
C562 C 0.37877 0.89569 0.99873 0.0
N563 N 0.3976 0.89249 0.0106 0.0
N564 N 0.40236 0.87729 0.97673 0.0
C565 C 0.41146 0.88098 0.99707 0.0
H566 H 0.36992 0.88684 0.96433 0.0
Co567 Co 0.41638 0.86904 0.95027 0.0
C568 C 0.46424 0.8602 0.96393 0.0
O569 O 0.46557 0.84324 0.95008 0.0
N570 N 0.43052 0.86152 0.92279 0.0
C571 C 0.44084 0.84801 0.88946 0.0
C572 C 0.42461 0.8477 0.9058 0.0
C573 C 0.44967 0.87104 0.91549 0.0
N574 N 0.45653 0.86267 0.89582 0.0
O575 O 0.4179 0.8996 0.94185 0.0
H576 H 0.40945 0.83807 0.90475 0.0
H577 H 0.45879 0.88367 0.9246 0.0
O578 O 0.44603 0.87141 0.96533 0.0
C579 C 0.40157 0.90494 0.92931 0.0
O580 O 0.38662 0.88971 0.92412 0.0
N581 N 0.413 0.83886 0.95784 0.0
C582 C 0.41648 0.79323 0.9546 0.0
C583 C 0.42742 0.80451 0.97192 0.0
C584 C 0.42488 0.82766 0.97368 0.0
C585 C 0.39808 0.82753 0.94492 0.0
C586 C 0.40007 0.80445 0.94235 0.0
H587 H 0.43383 0.83668 0.98645 0.0
H588 H 0.38652 0.83671 0.93451 0.0
H589 H 0.42844 0.87675 0.00158 0.0
H590 H 0.36438 0.90513 0.00433 0.0
H591 H 0.44121 0.83823 0.87425 0.0
H592 H 0.43913 0.79584 0.98264 0.0
H593 H 0.39054 0.79593 0.92954 0.0
C594 C 0.12984 0.38198 0.97591 0.0
C595 C 0.11831 0.37142 0.99301 0.0
N596 N 0.10341 0.38606 0.00145 0.0
N597 N 0.1221 0.40307 0.9739 0.0
C598 C 0.10563 0.40463 0.98916 0.0
H599 H 0.14357 0.37512 0.96635 0.0
Co600 Co 0.13031 0.42755 0.95661 0.0
C601 C 0.13141 0.44897 0.0043 0.0
O602 O 0.13458 0.43114 0.01661 0.0
N603 N 0.13829 0.45313 0.94025 0.0
C604 C 0.15478 0.48584 0.93433 0.0
C605 C 0.15215 0.46871 0.94902 0.0
C606 C 0.13331 0.46096 0.91964 0.0
N607 N 0.14304 0.48102 0.91586 0.0
O608 O 0.09922 0.43242 0.95082 0.0
H609 H 0.16026 0.46764 0.96511 0.0
H610 H 0.12294 0.45223 0.90768 0.0
O611 O 0.12986 0.44746 0.98305 0.0
C612 C 0.09474 0.42024 0.93383 0.0
O613 O 0.11155 0.41159 0.92263 0.0
N614 N 0.16075 0.42056 0.95921 0.0
C615 C 0.20718 0.41475 0.95283 0.0
C616 C 0.19766 0.41719 0.97447 0.0
C617 C 0.1744 0.41918 0.97729 0.0
C618 C 0.16919 0.41731 0.9384 0.0
C619 C 0.192 0.41545 0.9348 0.0
H620 H 0.1675 0.41996 0.99384 0.0
H621 H 0.15812 0.41773 0.92413 0.0
H622 H 0.09628 0.41979 0.99234 0.0
H623 H 0.12177 0.35503 -0.00018 0.0
H624 H 0.16485 0.50069 0.93683 0.0
H625 H 0.20764 0.41868 0.98936 0.0
H626 H 0.19717 0.4159 0.91758 0.0
C627 C 0.617 0.13763 0.98099 0.0
C628 C 0.62279 0.12951 0.00174 0.0
N629 N 0.60657 0.11546 0.00843 0.0
N630 N 0.5971 0.1289 0.97493 0.0
C631 C 0.59131 0.11524 0.99193 0.0
H632 H 0.62668 0.14913 0.97096 0.0
Co633 Co 0.58202 0.13335 0.94827 0.0
C634 C 0.5338 0.13935 0.9632 0.0
O635 O 0.52988 0.15471 0.94807 0.0
N636 N 0.56729 0.13718 0.92073 0.0
C637 C 0.55683 0.147 0.88629 0.0
C638 C 0.5729 0.14944 0.90253 0.0
C639 C 0.54858 0.12632 0.91442 0.0
N640 N 0.54161 0.13251 0.89402 0.0
O641 O 0.58195 0.10217 0.94305 0.0
H642 H 0.58783 0.15931 0.9006 0.0
H643 H 0.54007 0.11414 0.92467 0.0
O644 O 0.55317 0.13032 0.9645 0.0
C645 C 0.59838 0.09518 0.93155 0.0
O646 O 0.61431 0.10923 0.92595 0.0
N647 N 0.58342 0.16453 0.95241 0.0
C648 C 0.57847 0.2085 0.9399 0.0
C649 C 0.56569 0.19992 0.95752 0.0
C650 C 0.56897 0.17777 0.96408 0.0
C651 C 0.59916 0.1741 0.93905 0.0
C652 C 0.59662 0.19612 0.93195 0.0
H653 H 0.55866 0.17109 0.97716 0.0
H654 H 0.61181 0.16371 0.93135 0.0
H655 H 0.57614 0.10537 0.9923 0.0
H656 H 0.63759 0.13369 0.01127 0.0
H657 H 0.55618 0.1553 0.87024 0.0
H658 H 0.55231 0.20964 0.9649 0.0
H659 H 0.6074 0.20267 0.91896 0.0
C660 C 0.88857 0.61614 0.96117 0.0
C661 C 0.8977 0.62333 0.98107 0.0
N662 N 0.89723 0.6061 0.9955 0.0
N663 N 0.88305 0.59436 0.96292 0.0
C664 C 0.88826 0.58886 0.98415 0.0
H665 H 0.88612 0.62611 0.94634 0.0
Co666 Co 0.87233 0.57655 0.93984 0.0
C667 C 0.86509 0.53472 0.96935 0.0
O668 O 0.84356 0.53746 0.97169 0.0
N669 N 0.86138 0.55851 0.91625 0.0
C670 C 0.83069 0.52704 0.88982 0.0
C671 C 0.83717 0.54026 0.92068 0.0
C672 C 0.87077 0.55862 0.88716 0.0
N673 N 0.85233 0.53916 0.87184 0.0
O674 O 0.90275 0.57322 0.92909 0.0
H675 H 0.82806 0.53754 0.9358 0.0
H676 H 0.88616 0.56573 0.88092 0.0
O677 O 0.87673 0.54875 0.95805 0.0
C678 C 0.90871 0.58779 0.91469 0.0
O679 O 0.89363 0.6021 0.90763 0.0
N680 N 0.84251 0.58215 0.94919 0.0
C681 C 0.79664 0.57984 0.95394 0.0
C682 C 0.81038 0.57853 0.97287 0.0
C683 C 0.83363 0.58043 0.97017 0.0
C684 C 0.82908 0.58887 0.93203 0.0
C685 C 0.80597 0.58702 0.93379 0.0
H686 H 0.8443 0.57776 0.98445 0.0
H687 H 0.83633 0.59314 0.91603 0.0
H688 H 0.8854 0.57263 0.99143 0.0
H689 H 0.90398 0.63989 0.98475 0.0
H690 H 0.81982 0.51316 0.88573 0.0
H691 H 0.80348 0.57414 0.98901 0.0
H692 H 0.79566 0.58943 0.9191 0.0
C693 C 0.61815 0.86101 0.01718 0.0
C694 C 0.626 0.8694 0.99721 0.0
N695 N 0.61289 0.88671 0.99141 0.0
N696 N 0.60006 0.87288 0.02363 0.0
C697 C 0.59797 0.88904 0.00806 0.0
H698 H 0.62469 0.84663 0.02591 0.0
Co699 Co 0.58178 0.86802 0.04836 0.0
C700 C 0.54752 0.87043 0.01015 0.0
O701 O 0.56185 0.86485 0.99456 0.0
N702 N 0.56346 0.86308 0.0739 0.0
C703 C 0.53887 0.84755 0.097 0.0
C704 C 0.54974 0.8455 0.07715 0.0
C705 C 0.56015 0.87577 0.09235 0.0
N706 N 0.54553 0.86656 0.10705 0.0
O707 O 0.58242 0.89976 0.05408 0.0
H708 H 0.54698 0.83195 0.06574 0.0
H709 H 0.56728 0.89204 0.09425 0.0
O710 O 0.55374 0.87162 0.03064 0.0
C711 C 0.59766 0.90559 0.06781 0.0
O712 O 0.60967 0.88967 0.07701 0.0
N713 N 0.5832 0.83674 0.0439 0.0
C714 C 0.57795 0.79178 0.05376 0.0
C715 C 0.56705 0.80113 0.0353 0.0
C716 C 0.57032 0.82369 0.03027 0.0
C717 C 0.59638 0.82708 0.0598 0.0
C718 C 0.59412 0.80443 0.06495 0.0
H719 H 0.5606 0.83065 0.01701 0.0
H720 H 0.60694 0.83751 0.07012 0.0
H721 H 0.58467 0.9013 0.00804 0.0
H722 H 0.63924 0.86247 0.98703 0.0
H723 H 0.5257 0.83649 0.10254 0.0
H724 H 0.55497 0.7915 0.02585 0.0
H725 H 0.60325 0.79747 0.07893 0.0
C726 C 0.11445 0.61818 0.03201 0.0
C727 C 0.1062 0.6226 0.01103 0.0
N728 N 0.1063 0.60338 0.99938 0.0
N729 N 0.11955 0.59629 0.03348 0.0
C730 C 0.1145 0.58768 0.01324 0.0
H731 H 0.11627 0.63004 0.04554 0.0
Co732 Co 0.12906 0.58307 0.05958 0.0
C733 C 0.14059 0.53561 0.04746 0.0
O734 O 0.15801 0.53669 0.06077 0.0
N735 N 0.13811 0.57018 0.08714 0.0
C736 C 0.15344 0.56061 0.11994 0.0
C737 C 0.15272 0.57654 0.10333 0.0
C738 C 0.12922 0.55114 0.09524 0.0
N739 N 0.1386 0.54476 0.11456 0.0
O740 O 0.09861 0.57971 0.06846 0.0
H741 H 0.16231 0.59174 0.10365 0.0
H742 H 0.11638 0.54163 0.08681 0.0
O743 O 0.12796 0.55281 0.04519 0.0
C744 C 0.09099 0.59421 0.082 0.0
O745 O 0.10427 0.60996 0.08958 0.0
N746 N 0.15884 0.58773 0.05078 0.0
C747 C 0.20463 0.58534 0.0498 0.0
C748 C 0.19218 0.57485 0.03307 0.0
C749 C 0.16892 0.57669 0.03357 0.0
C750 C 0.17089 0.60268 0.063 0.0
C751 C 0.19417 0.60112 0.06352 0.0
H752 H 0.15909 0.56765 0.02144 0.0
H753 H 0.16239 0.61399 0.07423 0.0
H754 H 0.11654 0.5703 0.00868 0.0
H755 H 0.1007 0.63863 0.0047 0.0
H756 H 0.16404 0.56053 0.13458 0.0
H757 H 0.20016 0.56377 0.02119 0.0
H758 H 0.20356 0.61043 0.07589 0.0
C759 C 0.86383 0.39355 0.00725 0.0
C760 C 0.87523 0.39226 0.98723 0.0
N761 N 0.89502 0.4027 0.98966 0.0
N762 N 0.87646 0.4048 0.0222 0.0
C763 C 0.89562 0.40951 0.01108 0.0
H764 H 0.84691 0.38792 0.0101 0.0
Co765 Co 0.86906 0.41826 0.04947 0.0
C766 C 0.87001 0.46761 0.03293 0.0
O767 O 0.85613 0.47643 0.04742 0.0
N768 N 0.86235 0.43201 0.07669 0.0
C769 C 0.84649 0.44123 0.10913 0.0
C770 C 0.84809 0.42507 0.09282 0.0
C771 C 0.87037 0.45158 0.08438 0.0
N772 N 0.86043 0.45786 0.1035 0.0
O773 O 0.89957 0.41626 0.05873 0.0
H774 H 0.83901 0.4095 0.09272 0.0
H775 H 0.883 0.4614 0.07598 0.0
O776 O 0.87489 0.44683 0.03388 0.0
C777 C 0.90399 0.39771 0.06821 0.0
O778 O 0.88828 0.38246 0.06978 0.0
N779 N 0.83819 0.41839 0.04228 0.0
C780 C 0.79291 0.42033 0.05243 0.0
C781 C 0.80291 0.43727 0.03986 0.0
C782 C 0.82563 0.43594 0.03483 0.0
C783 C 0.82786 0.40023 0.05141 0.0
C784 C 0.8052 0.40099 0.0571 0.0
H785 H 0.83283 0.4498 0.02629 0.0
H786 H 0.83787 0.38625 0.05699 0.0
H787 H 0.90914 0.41934 0.01798 0.0
H788 H 0.86911 0.38506 0.9718 0.0
H789 H 0.83549 0.44119 0.12349 0.0
H790 H 0.79362 0.45216 0.03543 0.0
H791 H 0.79782 0.38742 0.06653 0.0
C792 C 0.51875 0.88411 0.6344 0.0
C793 C 0.4992 0.87608 0.62507 0.0
N794 N 0.49283 0.89039 0.60891 0.0
N795 N 0.52446 0.90336 0.62414 0.0
C796 C 0.50899 0.90598 0.60794 0.0
H797 H 0.5274 0.87708 0.64861 0.0
Co798 Co 0.54697 0.92387 0.63111 0.0
C799 C 0.50539 0.95367 0.62881 0.0
O800 O 0.49187 0.93804 0.63609 0.0
N801 N 0.56991 0.94492 0.63797 0.0
C802 C 0.58722 0.97371 0.65431 0.0
C803 C 0.56953 0.95943 0.65538 0.0
C804 C 0.58877 0.95068 0.62679 0.0
N805 N 0.59929 0.96822 0.63635 0.0
O806 O 0.55476 0.92436 0.59988 0.0
H807 H 0.55718 0.96019 0.6683 0.0
H808 H 0.59437 0.94302 0.61145 0.0
O809 O 0.52639 0.94971 0.6268 0.0
C810 C 0.57002 0.91003 0.59569 0.0
O811 O 0.5793 0.89972 0.61272 0.0
N812 N 0.54102 0.92096 0.66201 0.0
C813 C 0.54912 0.92336 0.70755 0.0
C814 C 0.53035 0.93383 0.69841 0.0
C815 C 0.52636 0.93221 0.67549 0.0
C816 C 0.55751 0.90822 0.67124 0.0
C817 C 0.56189 0.90914 0.69412 0.0
H818 H 0.51332 0.94241 0.6689 0.0
H819 H 0.56879 0.8991 0.66044 0.0
H820 H 0.50843 0.92027 0.59689 0.0
H821 H 0.48938 0.86211 0.63103 0.0
H822 H 0.59078 0.98741 0.6656 0.0
H823 H 0.51999 0.94468 0.70856 0.0
H824 H 0.57631 0.90053 0.70086 0.0
C825 C 0.12769 0.52189 0.62704 0.0
C826 C 0.13693 0.50313 0.61714 0.0
N827 N 0.12116 0.49379 0.60408 0.0
N828 N 0.10628 0.52397 0.62021 0.0
C829 C 0.10319 0.50704 0.60574 0.0
H830 H 0.13563 0.53251 0.63933 0.0
Co831 Co 0.08354 0.54314 0.62939 0.0
C832 C 0.0585 0.49806 0.63376 0.0
O833 O 0.07513 0.48428 0.63737 0.0
N834 N 0.05947 0.56123 0.63886 0.0
C835 C 0.03012 0.571 0.65968 0.0
C836 C 0.04825 0.55737 0.65821 0.0
C837 C 0.04698 0.57681 0.62836 0.0
N838 N 0.02928 0.58303 0.64088 0.0
O839 O 0.07614 0.54858 0.5987 0.0
H840 H 0.05201 0.54433 0.67004 0.0
H841 H 0.04963 0.58219 0.61134 0.0
O842 O 0.06186 0.51892 0.63117 0.0
C843 C 0.09078 0.56229 0.59135 0.0
O844 O 0.10663 0.56906 0.60498 0.0
N845 N 0.09293 0.54085 0.65907 0.0
C846 C 0.09124 0.55135 0.70407 0.0
C847 C 0.0921 0.5288 0.69713 0.0
C848 C 0.09232 0.52383 0.67416 0.0
C849 C 0.09787 0.562 0.66582 0.0
C850 C 0.0955 0.56791 0.68805 0.0
H851 H 0.09039 0.5068 0.6687 0.0
H852 H 0.09962 0.57508 0.65347 0.0
H853 H 0.08745 0.50351 0.59765 0.0
H854 H 0.15322 0.49603 0.62051 0.0
H855 H 0.01745 0.57084 0.67261 0.0
H856 H 0.09022 0.51537 0.7091 0.0
H857 H 0.09533 0.58551 0.69225 0.0
C858 C 0.49429 0.11574 0.63196 0.0
C859 C 0.51579 0.11484 0.62348 0.0
N860 N 0.51665 0.09809 0.60844 0.0
N861 N 0.48195 0.09957 0.62223 0.0
C862 C 0.49589 0.08966 0.60758 0.0
H863 H 0.48846 0.1265 0.64527 0.0
Co864 Co 0.45364 0.08883 0.6286 0.0
C865 C 0.46159 0.03849 0.63127 0.0
O866 O 0.44779 0.03613 0.64819 0.0
N867 N 0.42479 0.07741 0.63451 0.0
C868 C 0.39183 0.06576 0.6477 0.0
C869 C 0.40863 0.08145 0.6499 0.0
C870 C 0.4166 0.06036 0.62244 0.0
N871 N 0.39749 0.05217 0.63076 0.0
O872 O 0.44591 0.09229 0.5975 0.0
H873 H 0.40888 0.09449 0.66233 0.0
H874 H 0.42518 0.05321 0.60827 0.0
O875 O 0.46492 0.05785 0.62275 0.0
C876 C 0.42937 0.10477 0.59251 0.0
O877 O 0.41815 0.11418 0.60889 0.0
N878 N 0.46079 0.08744 0.65912 0.0
C879 C 0.4571 0.08196 0.70471 0.0
C880 C 0.47179 0.06849 0.69248 0.0
C881 C 0.47383 0.07191 0.66952 0.0
C882 C 0.45013 0.10334 0.67144 0.0
C883 C 0.44746 0.10057 0.69441 0.0
H884 H 0.48467 0.06113 0.66018 0.0
H885 H 0.44147 0.11679 0.66304 0.0
H886 H 0.49137 0.07546 0.5973 0.0
H887 H 0.53 0.12458 0.62904 0.0
H888 H 0.37729 0.06381 0.65829 0.0
H889 H 0.48028 0.05454 0.70028 0.0
H890 H 0.43661 0.11174 0.70365 0.0
C891 C 0.8877 0.47769 0.62476 0.0
C892 C 0.88303 0.49824 0.61548 0.0
N893 N 0.90187 0.50607 0.60597 0.0
N894 N 0.90939 0.47275 0.62116 0.0
C895 C 0.91759 0.49038 0.60965 0.0
H896 H 0.87599 0.46682 0.63321 0.0
Co897 Co 0.92351 0.44596 0.62789 0.0
C898 C 0.97003 0.45972 0.64042 0.0
O899 O 0.96897 0.4461 0.65759 0.0
N900 N 0.93805 0.41817 0.63388 0.0
C901 C 0.94855 0.38406 0.64514 0.0
C902 C 0.93168 0.39973 0.64544 0.0
C903 C 0.95829 0.41242 0.62557 0.0
N904 N 0.96518 0.39226 0.63258 0.0
O905 O 0.92517 0.43933 0.59675 0.0
H906 H 0.9157 0.39713 0.65329 0.0
H907 H 0.96795 0.42274 0.6144 0.0
O908 O 0.9531 0.46156 0.62736 0.0
C909 C 0.9071 0.42974 0.59073 0.0
O910 O 0.89131 0.42645 0.60562 0.0
N911 N 0.91953 0.45164 0.6585 0.0
C912 C 0.92306 0.44761 0.70409 0.0
C913 C 0.93199 0.46642 0.69336 0.0
C914 C 0.9293 0.46853 0.67023 0.0
C915 C 0.90601 0.43694 0.66936 0.0
C916 C 0.90826 0.43387 0.69232 0.0
H917 H 0.93679 0.48246 0.66154 0.0
H918 H 0.89502 0.42619 0.6599 0.0
H919 H 0.9346 0.49157 0.6036 0.0
H920 H 0.86709 0.50679 0.61562 0.0
H921 H 0.94854 0.36788 0.6532 0.0
H922 H 0.94223 0.47828 0.70242 0.0
H923 H 0.89983 0.42007 0.70045 0.0
C924 C 0.51289 0.11688 0.36303 0.0
C925 C 0.49269 0.12269 0.37279 0.0
N926 N 0.48878 0.10847 0.38976 0.0
N927 N 0.5214 0.0989 0.37369 0.0
C928 C 0.50642 0.0945 0.39006 0.0
H929 H 0.52055 0.12494 0.34878 0.0
Co930 Co 0.54732 0.08179 0.36848 0.0
C931 C 0.51098 0.04635 0.36434 0.0
O932 O 0.49492 0.05982 0.35836 0.0
N933 N 0.57284 0.06284 0.36361 0.0
C934 C 0.59267 0.03533 0.34779 0.0
C935 C 0.57769 0.05204 0.3442 0.0
C936 C 0.58487 0.0513 0.37896 0.0
N937 N 0.59681 0.03457 0.36969 0.0
O938 O 0.55099 0.07981 0.40025 0.0
H939 H 0.56868 0.05349 0.32873 0.0
H940 H 0.58266 0.05278 0.39679 0.0
O941 O 0.53056 0.05379 0.36809 0.0
C942 C 0.56634 0.09272 0.40743 0.0
O943 O 0.57896 0.10275 0.39249 0.0
N944 N 0.54535 0.08685 0.33734 0.0
C945 C 0.55788 0.08348 0.2927 0.0
C946 C 0.53559 0.07938 0.29924 0.0
C947 C 0.5299 0.08017 0.32198 0.0
C948 C 0.56452 0.09697 0.33029 0.0
C949 C 0.57194 0.09386 0.30843 0.0
H950 H 0.51375 0.07428 0.327 0.0
H951 H 0.57606 0.10357 0.34255 0.0
H952 H 0.50805 0.0808 0.40169 0.0
H953 H 0.48149 0.13585 0.36749 0.0
H954 H 0.59742 0.02258 0.33585 0.0
H955 H 0.52344 0.07311 0.28739 0.0
H956 H 0.58924 0.09763 0.30477 0.0
C957 C 0.87667 0.51122 0.36537 0.0
C958 C 0.87349 0.4906 0.37523 0.0
N959 N 0.88901 0.48813 0.39129 0.0
N960 N 0.89429 0.52148 0.37506 0.0
C961 C 0.90091 0.50722 0.39128 0.0
H962 H 0.86727 0.51782 0.35144 0.0
Co963 Co 0.90831 0.54853 0.36751 0.0
C964 C 0.94705 0.51596 0.36594 0.0
O965 O 0.93491 0.49864 0.36025 0.0
N966 N 0.92331 0.57585 0.36015 0.0
C967 C 0.94974 0.59534 0.3424 0.0
C968 C 0.93183 0.58147 0.33992 0.0
C969 C 0.93566 0.58828 0.37448 0.0
N970 N 0.95252 0.59927 0.36424 0.0
O971 O 0.91126 0.55481 0.39878 0.0
H972 H 0.92792 0.57385 0.32426 0.0
H973 H 0.9344 0.58716 0.39235 0.0
O974 O 0.938 0.53505 0.36852 0.0
C975 C 0.89515 0.56395 0.40915 0.0
O976 O 0.87718 0.56932 0.39773 0.0
N977 N 0.90375 0.54278 0.33668 0.0
C978 C 0.90106 0.55167 0.29127 0.0
C979 C 0.91667 0.5363 0.29933 0.0
C980 C 0.91769 0.5319 0.32217 0.0
C981 C 0.88629 0.55507 0.32861 0.0
C982 C 0.88455 0.55972 0.30576 0.0
H983 H 0.93142 0.52201 0.32775 0.0
H984 H 0.87513 0.56331 0.34022 0.0
H985 H 0.91507 0.51023 0.40209 0.0
H986 H 0.86158 0.47794 0.37022 0.0
H987 H 0.96136 0.60007 0.32934 0.0
H988 H 0.92932 0.52937 0.28836 0.0
H989 H 0.87191 0.57126 0.29987 0.0
C990 C 0.48161 0.87679 0.36419 0.0
C991 C 0.50154 0.87031 0.37385 0.0
N992 N 0.50834 0.88687 0.38749 0.0
N993 N 0.4763 0.89743 0.37157 0.0
C994 C 0.49282 0.90298 0.38588 0.0
H995 H 0.47183 0.86728 0.35233 0.0
Co996 Co 0.45199 0.91521 0.36497 0.0
C997 C 0.47393 0.96051 0.35712 0.0
O998 O 0.46129 0.9648 0.33971 0.0
N999 N 0.42693 0.93352 0.35875 0.0
C1000 C 0.39332 0.94694 0.34949 0.0
C1001 C 0.4076 0.92898 0.34781 0.0
C1002 C 0.42354 0.95405 0.36733 0.0
N1003 N 0.40365 0.9627 0.36162 0.0
O1004 O 0.44538 0.91678 0.39626 0.0
H1005 H 0.40325 0.91318 0.3403 0.0
H1006 H 0.43475 0.96212 0.37882 0.0
O1007 O 0.47176 0.94202 0.36767 0.0
C1008 C 0.42755 0.90663 0.40197 0.0
O1009 O 0.41516 0.89766 0.3862 0.0
N1010 N 0.45709 0.9115 0.33431 0.0
C1011 C 0.44674 0.91656 0.28991 0.0
C1012 C 0.4664 0.92606 0.29843 0.0
C1013 C 0.47169 0.92267 0.32091 0.0
C1014 C 0.44135 0.89796 0.32501 0.0
C1015 C 0.43528 0.90077 0.30274 0.0
H1016 H 0.48616 0.93065 0.32783 0.0
H1017 H 0.43135 0.88731 0.33566 0.0
H1018 H 0.49374 0.91872 0.39476 0.0
H1019 H 0.51064 0.85499 0.37071 0.0
H1020 H 0.37633 0.94793 0.34334 0.0
H1021 H 0.47632 0.93745 0.28846 0.0
H1022 H 0.42054 0.89242 0.29632 0.0
C1023 C 0.11608 0.47518 0.36424 0.0
C1024 C 0.12501 0.49444 0.37355 0.0
N1025 N 0.10873 0.50463 0.38531 0.0
N1026 N 0.09432 0.47366 0.37006 0.0
C1027 C 0.09062 0.49163 0.3832 0.0
H1028 H 0.12462 0.4635 0.3534 0.0
Co1029 Co 0.07179 0.4535 0.3627 0.0
C1030 C 0.03749 0.49072 0.35551 0.0
O1031 O 0.04099 0.49386 0.33411 0.0
N1032 N 0.04727 0.43431 0.35586 0.0
C1033 C 0.01458 0.4248 0.34064 0.0
C1034 C 0.03186 0.43962 0.34012 0.0
C1035 C 0.0389 0.41563 0.36552 0.0
N1036 N 0.01898 0.40977 0.35659 0.0
O1037 O 0.06941 0.44667 0.39374 0.0
H1038 H 0.03291 0.45355 0.32879 0.0
H1039 H 0.04661 0.40692 0.37932 0.0
O1040 O 0.04932 0.47676 0.36629 0.0
C1041 C 0.08148 0.42965 0.39801 0.0
O1042 O 0.08977 0.41837 0.38106 0.0
N1043 N 0.07693 0.45808 0.33184 0.0
C1044 C 0.08006 0.45662 0.28534 0.0
C1045 C 0.08367 0.47683 0.29695 0.0
C1046 C 0.08172 0.47725 0.32041 0.0
C1047 C 0.07807 0.43807 0.321 0.0
C1048 C 0.07789 0.43703 0.29793 0.0
H1049 H 0.08351 0.49292 0.32926 0.0
H1050 H 0.0774 0.4226 0.3303 0.0
H1051 H 0.07476 0.49556 0.39093 0.0
H1052 H 0.14175 0.50088 0.3712 0.0
H1053 H -0.00024 0.42506 0.33027 0.0
H1054 H 0.08692 0.49219 0.28798 0.0
H1055 H 0.07583 0.42085 0.29006 0.0
C1056 C 0.63586 0.51566 0.88481 0.0
C1057 C 0.62838 0.49463 0.87907 0.0
N1058 N 0.61845 0.48568 0.89713 0.0
N1059 N 0.6305 0.51974 0.90631 0.0
C1060 C 0.62003 0.50109 0.91342 0.0
H1061 H 0.64357 0.52768 0.87374 0.0
Co1062 Co 0.63212 0.54711 0.92029 0.0
C1063 C 0.63448 0.53766 0.96916 0.0
O1064 O 0.65041 0.55263 0.97055 0.0
N1065 N 0.63287 0.57554 0.93453 0.0
C1066 C 0.64323 0.60529 0.95433 0.0
C1067 C 0.64932 0.59075 0.93769 0.0
C1068 C 0.61629 0.58264 0.94822 0.0
N1069 N 0.62256 0.5999 0.96125 0.0
O1070 O 0.60063 0.55043 0.91642 0.0
H1071 H 0.66541 0.59095 0.92977 0.0
H1072 H 0.60024 0.57452 0.9494 0.0
O1073 O 0.62672 0.53304 0.94973 0.0
C1074 C 0.59283 0.55783 0.89811 0.0
O1075 O 0.60723 0.56256 0.88222 0.0
N1076 N 0.6634 0.54368 0.92269 0.0
C1077 C 0.70842 0.54943 0.93143 0.0
C1078 C 0.69634 0.53269 0.94246 0.0
C1079 C 0.67389 0.52938 0.93704 0.0
C1080 C 0.67585 0.55675 0.90881 0.0
C1081 C 0.6985 0.56035 0.91326 0.0
H1082 H 0.6647 0.51644 0.9456 0.0
H1083 H 0.66763 0.56647 0.89599 0.0
H1084 H 0.61233 0.49928 0.92965 0.0
H1085 H 0.62936 0.48684 0.86277 0.0
H1086 H 0.65371 0.61806 0.96173 0.0
H1087 H 0.70388 0.52302 0.95577 0.0
H1088 H 0.70769 0.57269 0.90373 0.0
C1089 C 0.48107 0.62671 0.8867 0.0
C1090 C 0.50117 0.61778 0.88015 0.0
N1091 N 0.51267 0.61072 0.89835 0.0
N1092 N 0.47905 0.62466 0.9089 0.0
C1093 C 0.4979 0.61403 0.91538 0.0
H1094 H 0.46816 0.63314 0.87583 0.0
Co1095 Co 0.45327 0.63215 0.92462 0.0
C1096 C 0.47032 0.63642 0.97316 0.0
O1097 O 0.45698 0.65309 0.97823 0.0
N1098 N 0.42654 0.63946 0.93942 0.0
C1099 C 0.39263 0.65318 0.94687 0.0
C1100 C 0.40937 0.6517 0.9312 0.0
C1101 C 0.41915 0.63258 0.95953 0.0
N1102 N 0.39899 0.6411 0.9646 0.0
O1103 O 0.44453 0.6012 0.9249 0.0
H1104 H 0.40855 0.65873 0.91464 0.0
H1105 H 0.42795 0.62091 0.97002 0.0
O1106 O 0.46986 0.62782 0.95348 0.0
C1107 C 0.43031 0.59601 0.90988 0.0
O1108 O 0.42389 0.61137 0.89559 0.0
N1109 N 0.46056 0.66295 0.92261 0.0
C1110 C 0.45212 0.70826 0.92585 0.0
C1111 C 0.4678 0.6983 0.93991 0.0
C1112 C 0.4722 0.67555 0.93766 0.0
C1113 C 0.44885 0.67335 0.90607 0.0
C1114 C 0.44384 0.69611 0.90767 0.0
H1115 H 0.48361 0.6683 0.9492 0.0
H1116 H 0.44088 0.66342 0.89323 0.0
H1117 H 0.4997 0.60741 0.932 0.0
H1118 H 0.5059 0.61538 0.8629 0.0
H1119 H 0.37692 0.662 0.94529 0.0
H1120 H 0.47525 0.7076 0.95355 0.0
H1121 H 0.43215 0.7036 0.89607 0.0
C1122 C 0.36145 0.48469 0.89173 0.0
C1123 C 0.36847 0.50579 0.88523 0.0
N1124 N 0.38535 0.51198 0.89878 0.0
N1125 N 0.37378 0.47806 0.90941 0.0
C1126 C 0.38826 0.49495 0.91303 0.0
H1127 H 0.34773 0.47528 0.88465 0.0
Co1128 Co 0.37288 0.45371 0.92856 0.0
C1129 C 0.36524 0.47483 0.97365 0.0
O1130 O 0.35351 0.45757 0.98043 0.0
N1131 N 0.37322 0.42964 0.94898 0.0
C1132 C 0.3852 0.41244 0.97959 0.0
C1133 C 0.38921 0.42934 0.96494 0.0
C1134 C 0.36007 0.41179 0.95399 0.0
N1135 N 0.36707 0.40129 0.97259 0.0
O1136 O 0.4049 0.45153 0.92651 0.0
H1137 H 0.40242 0.44153 0.96664 0.0
H1138 H 0.34544 0.40658 0.94489 0.0
O1139 O 0.37386 0.47502 0.95402 0.0
C1140 C 0.40949 0.43874 0.91007 0.0
O1141 O 0.39299 0.43114 0.89773 0.0
N1142 N 0.34159 0.45384 0.92798 0.0
C1143 C 0.29677 0.44279 0.93192 0.0
C1144 C 0.30443 0.46379 0.93916 0.0
C1145 C 0.32718 0.46915 0.93676 0.0
C1146 C 0.33352 0.43566 0.91699 0.0
C1147 C 0.31132 0.42925 0.91956 0.0
H1148 H 0.33332 0.48506 0.94261 0.0
H1149 H 0.34498 0.42468 0.90832 0.0
H1150 H 0.4002 0.49527 0.92662 0.0
H1151 H 0.36125 0.51609 0.87225 0.0
H1152 H 0.39439 0.40918 0.99476 0.0
H1153 H 0.2933 0.47525 0.94767 0.0
H1154 H 0.30588 0.4133 0.91292 0.0
C1155 C 0.51488 0.37006 0.8739 0.0
C1156 C 0.49546 0.38188 0.86987 0.0
N1157 N 0.49207 0.39585 0.88719 0.0
N1158 N 0.52342 0.37643 0.89379 0.0
C1159 C 0.50952 0.39271 0.90097 0.0
H1160 H 0.52175 0.35704 0.86343 0.0
Co1161 Co 0.54833 0.36561 0.9093 0.0
C1162 C 0.51372 0.36619 0.94704 0.0
O1163 O 0.49589 0.36303 0.9347 0.0
N1164 N 0.57347 0.35522 0.92603 0.0
C1165 C 0.59154 0.3341 0.95103 0.0
C1166 C 0.57865 0.33405 0.93215 0.0
C1167 C 0.58444 0.36779 0.94134 0.0
N1168 N 0.59502 0.35539 0.95691 0.0
O1169 O 0.5582 0.39568 0.91302 0.0
H1170 H 0.57132 0.3192 0.92563 0.0
H1171 H 0.58232 0.38564 0.94311 0.0
O1172 O 0.53309 0.3671 0.93821 0.0
C1173 C 0.57152 0.40217 0.89777 0.0
O1174 O 0.57638 0.3885 0.88128 0.0
N1175 N 0.53968 0.33579 0.90332 0.0
C1176 C 0.54741 0.29028 0.90075 0.0
C1177 C 0.53159 0.29873 0.91584 0.0
C1178 C 0.52752 0.3217 0.91652 0.0
C1179 C 0.55162 0.32739 0.88577 0.0
C1180 C 0.55535 0.30438 0.88385 0.0
H1181 H 0.51662 0.32779 0.92927 0.0
H1182 H 0.56061 0.3387 0.87491 0.0
H1183 H 0.51148 0.40139 0.91666 0.0
H1184 H 0.48393 0.3793 0.85617 0.0
H1185 H 0.59595 0.31965 0.96098 0.0
H1186 H 0.52419 0.28806 0.92845 0.0
H1187 H 0.56675 0.29817 0.87123 0.0
C1188 C 0.61972 0.4693 0.12316 0.0
C1189 C 0.61027 0.48901 0.13062 0.0
N1190 N 0.60671 0.5023 0.1128 0.0
N1191 N 0.62174 0.47003 0.10072 0.0
C1192 C 0.61356 0.49031 0.09505 0.0
H1193 H 0.62386 0.45496 0.13332 0.0
Co1194 Co 0.62856 0.44622 0.0816 0.0
C1195 C 0.63147 0.46843 0.03496 0.0
O1196 O 0.64312 0.45241 0.02564 0.0
N1197 N 0.63506 0.42171 0.06217 0.0
C1198 C 0.65109 0.40133 0.03542 0.0
C1199 C 0.65464 0.41655 0.05204 0.0
C1200 C 0.62023 0.40775 0.05228 0.0
N1201 N 0.62932 0.39595 0.03533 0.0
O1202 O 0.59706 0.43908 0.08078 0.0
H1203 H 0.67032 0.42484 0.05443 0.0
H1204 H 0.60263 0.40734 0.05613 0.0
O1205 O 0.6254 0.46686 0.05546 0.0
C1206 C 0.5911 0.42591 0.09654 0.0
O1207 O 0.60621 0.41911 0.11092 0.0
N1208 N 0.65942 0.45187 0.08496 0.0
C1209 C 0.70498 0.44307 0.08449 0.0
C1210 C 0.69608 0.45989 0.07093 0.0
C1211 C 0.67314 0.46422 0.07151 0.0
C1212 C 0.66835 0.43777 0.10049 0.0
C1213 C 0.69126 0.4331 0.10059 0.0
H1214 H 0.66664 0.47536 0.05921 0.0
H1215 H 0.65732 0.4283 0.11123 0.0
H1216 H 0.61106 0.4959 0.07813 0.0
H1217 H 0.60599 0.49312 0.14771 0.0
H1218 H 0.66333 0.39584 0.02326 0.0
H1219 H 0.70643 0.46824 0.05863 0.0
H1220 H 0.69779 0.42036 0.11165 0.0
C1221 C 0.52659 0.61418 0.12975 0.0
C1222 C 0.50581 0.60596 0.13534 0.0
N1223 N 0.49174 0.61082 0.11853 0.0
N1224 N 0.5255 0.62385 0.10943 0.0
C1225 C 0.50393 0.62197 0.10326 0.0
H1226 H 0.54191 0.61157 0.13898 0.0
Co1227 Co 0.5502 0.63048 0.09223 0.0
C1228 C 0.53297 0.63384 0.04467 0.0
O1229 O 0.54567 0.65148 0.04134 0.0
N1230 N 0.57598 0.63668 0.07514 0.0
C1231 C 0.60728 0.64974 0.05945 0.0
C1232 C 0.59297 0.65153 0.07744 0.0
C1233 C 0.58123 0.6253 0.05649 0.0
N1234 N 0.59935 0.63351 0.04619 0.0
O1235 O 0.5584 0.59934 0.09343 0.0
H1236 H 0.59523 0.66294 0.09119 0.0
H1237 H 0.5715 0.6115 0.05003 0.0
O1238 O 0.53277 0.62465 0.06408 0.0
C1239 C 0.57669 0.59333 0.10256 0.0
O1240 O 0.59062 0.60883 0.10951 0.0
N1241 N 0.54263 0.6609 0.09278 0.0
C1242 C 0.54666 0.70617 0.08599 0.0
C1243 C 0.52937 0.69435 0.07556 0.0
C1244 C 0.52711 0.67152 0.07989 0.0
C1245 C 0.55612 0.67301 0.10651 0.0
C1246 C 0.55889 0.69586 0.10298 0.0
H1247 H 0.51418 0.66229 0.07137 0.0
H1248 H 0.56685 0.66446 0.11827 0.0
H1249 H 0.49747 0.62726 0.08728 0.0
H1250 H 0.5017 0.59588 0.14978 0.0
H1251 H 0.62201 0.65971 0.05617 0.0
H1252 H 0.51888 0.70227 0.06313 0.0
H1253 H 0.57179 0.70486 0.11195 0.0
C1254 C 0.38421 0.52928 0.11536 0.0
C1255 C 0.39455 0.50887 0.1173 0.0
N1256 N 0.39087 0.49724 0.09838 0.0
N1257 N 0.37439 0.53068 0.09516 0.0
C1258 C 0.37836 0.51072 0.08532 0.0
H1259 H 0.38547 0.543 0.12708 0.0
Co1260 Co 0.36661 0.55786 0.08278 0.0
C1261 C 0.36227 0.54951 0.03376 0.0
O1262 O 0.34483 0.56276 0.03413 0.0
N1263 N 0.3596 0.58629 0.0704 0.0
C1264 C 0.34556 0.61954 0.06075 0.0
C1265 C 0.34395 0.60191 0.07546 0.0
C1266 C 0.37127 0.59562 0.05348 0.0
N1267 N 0.3626 0.6152 0.04686 0.0
O1268 O 0.39712 0.5667 0.08574 0.0
H1269 H 0.33195 0.60096 0.08884 0.0
H1270 H 0.38532 0.58766 0.04532 0.0
O1271 O 0.37246 0.54574 0.05226 0.0
C1272 C 0.40228 0.58351 0.09774 0.0
O1273 O 0.38619 0.59626 0.10553 0.0
N1274 N 0.33647 0.54911 0.08203 0.0
C1275 C 0.29104 0.55149 0.07579 0.0
C1276 C 0.30368 0.5364 0.06315 0.0
C1277 C 0.32661 0.53479 0.06722 0.0
C1278 C 0.32373 0.55979 0.09754 0.0
C1279 C 0.30075 0.56179 0.09437 0.0
H1280 H 0.33648 0.52363 0.05707 0.0
H1281 H 0.33176 0.5691 0.1108 0.0
H1282 H 0.37376 0.50669 0.0683 0.0
H1283 H 0.40485 0.50334 0.1311 0.0
H1284 H 0.33463 0.63391 0.05974 0.0
H1285 H 0.29628 0.52731 0.04935 0.0
H1286 H 0.29112 0.57282 0.10502 0.0
C1287 C 0.47114 0.37187 0.11341 0.0
C1288 C 0.4914 0.37961 0.12161 0.0
N1289 N 0.5017 0.39103 0.10516 0.0
N1290 N 0.469 0.37838 0.09193 0.0
C1291 C 0.48773 0.39027 0.08764 0.0
H1292 H 0.45911 0.3617 0.12227 0.0
Co1293 Co 0.44711 0.37318 0.07039 0.0
C1294 C 0.47515 0.35939 0.03139 0.0
O1295 O 0.46227 0.34195 0.02776 0.0
N1296 N 0.42535 0.36887 0.04723 0.0
C1297 C 0.41204 0.37041 0.01262 0.0
C1298 C 0.4287 0.37713 0.02652 0.0
C1299 C 0.40486 0.35903 0.04573 0.0
N1300 N 0.39675 0.35926 0.02468 0.0
O1301 O 0.44352 0.40478 0.06749 0.0
H1302 H 0.44228 0.38787 0.02166 0.0
H1303 H 0.39555 0.35249 0.05966 0.0
O1304 O 0.47098 0.3724 0.04777 0.0
C1305 C 0.42532 0.41007 0.07729 0.0
O1306 O 0.41251 0.39393 0.0849 0.0
N1307 N 0.44872 0.34235 0.07551 0.0
C1308 C 0.4395 0.29704 0.0728 0.0
C1309 C 0.4618 0.30475 0.0717 0.0
C1310 C 0.46606 0.32784 0.0727 0.0
C1311 C 0.42871 0.33456 0.08275 0.0
C1312 C 0.42305 0.31234 0.07955 0.0
H1313 H 0.48278 0.33407 0.06989 0.0
H1314 H 0.41627 0.34619 0.08872 0.0
H1315 H 0.49145 0.39802 0.07174 0.0
H1316 H 0.49839 0.37638 0.13796 0.0
H1317 H 0.41062 0.37454 0.9951 0.0
H1318 H 0.47542 0.29335 0.0682 0.0
H1319 H 0.40572 0.30752 0.08151 0.0
C1320 C 0.88434 0.63656 0.51702 0.0
C1321 C 0.87838 0.6271 0.49681 0.0
N1322 N 0.89364 0.61136 0.49169 0.0
N1323 N 0.90339 0.62693 0.52429 0.0
C1324 C 0.90847 0.61157 0.50859 0.0
H1325 H 0.87552 0.64975 0.52569 0.0
Co1326 Co 0.92056 0.63254 0.54961 0.0
C1327 C 0.96441 0.64361 0.52619 0.0
O1328 O 0.96618 0.66397 0.53401 0.0
N1329 N 0.93884 0.63802 0.57514 0.0
C1330 C 0.96308 0.65314 0.59888 0.0
C1331 C 0.95071 0.65658 0.5801 0.0
C1332 C 0.94456 0.62356 0.59148 0.0
N1333 N 0.95902 0.63237 0.60659 0.0
O1334 O 0.92307 0.60087 0.5547 0.0
H1335 H 0.95115 0.67175 0.57045 0.0
H1336 H 0.93951 0.60634 0.59118 0.0
O1337 O 0.94764 0.63131 0.53104 0.0
C1338 C 0.90541 0.59128 0.56186 0.0
O1339 O 0.88662 0.60262 0.56249 0.0
N1340 N 0.91575 0.66337 0.54644 0.0
C1341 C 0.91815 0.70861 0.55624 0.0
C1342 C 0.92237 0.7009 0.53431 0.0
C1343 C 0.92151 0.67783 0.52981 0.0
C1344 C 0.90606 0.67125 0.56545 0.0
C1345 C 0.90859 0.69351 0.57142 0.0
H1346 H 0.92703 0.67155 0.51381 0.0
H1347 H 0.89981 0.65956 0.57775 0.0
H1348 H 0.92308 0.60093 0.50927 0.0
H1349 H 0.86407 0.63144 0.48664 0.0
H1350 H 0.97552 0.66471 0.60497 0.0
H1351 H 0.92836 0.71221 0.52152 0.0
H1352 H 0.90459 0.69831 0.58839 0.0
C1353 C 0.88331 0.36252 0.48086 0.0
C1354 C 0.87536 0.37211 0.5003 0.0
N1355 N 0.88951 0.38858 0.50622 0.0
N1356 N 0.90245 0.37285 0.47484 0.0
C1357 C 0.90513 0.38925 0.49007 0.0
H1358 H 0.87621 0.34825 0.47233 0.0
Co1359 Co 0.92187 0.36626 0.45132 0.0
C1360 C 0.95316 0.36627 0.49234 0.0
O1361 O 0.93751 0.36131 0.50679 0.0
N1362 N 0.94079 0.35966 0.42766 0.0
C1363 C 0.97558 0.33397 0.40014 0.0
C1364 C 0.96541 0.34212 0.43187 0.0
C1365 C 0.93402 0.36362 0.39823 0.0
N1366 N 0.95545 0.34846 0.38204 0.0
O1367 O 0.92466 0.39764 0.44511 0.0
H1368 H 0.97259 0.33717 0.44744 0.0
H1369 H 0.92115 0.37442 0.39159 0.0
O1370 O 0.94868 0.36774 0.47138 0.0
C1371 C 0.90816 0.40501 0.43381 0.0
O1372 O 0.8919 0.39125 0.42853 0.0
N1373 N 0.91779 0.3353 0.45509 0.0
C1374 C 0.92154 0.29016 0.44513 0.0
C1375 C 0.92954 0.29845 0.46551 0.0
C1376 C 0.92725 0.32124 0.47033 0.0
C1377 C 0.90715 0.32678 0.43681 0.0
C1378 C 0.90918 0.30424 0.43125 0.0
H1379 H 0.93419 0.32742 0.48557 0.0
H1380 H 0.89915 0.33803 0.42515 0.0
H1381 H 0.91927 0.40049 0.49024 0.0
H1382 H 0.86146 0.36625 0.51029 0.0
H1383 H 0.99129 0.32659 0.39503 0.0
H1384 H 0.93866 0.28774 0.47688 0.0
H1385 H 0.90244 0.2982 0.41557 0.0
C1386 C 0.6155 0.87056 0.47773 0.0
C1387 C 0.60494 0.86816 0.49803 0.0
N1388 N 0.60874 0.88668 0.51027 0.0
N1389 N 0.62546 0.89076 0.47683 0.0
C1390 C 0.62172 0.89979 0.49728 0.0
H1391 H 0.61392 0.85926 0.46375 0.0
Co1392 Co 0.63085 0.90609 0.45006 0.0
C1393 C 0.64406 0.95189 0.46436 0.0
O1394 O 0.65991 0.95157 0.44915 0.0
N1395 N 0.6347 0.92218 0.42273 0.0
C1396 C 0.64184 0.93704 0.38912 0.0
C1397 C 0.64548 0.91903 0.40296 0.0
C1398 C 0.62354 0.94154 0.41955 0.0
N1399 N 0.62821 0.95111 0.39992 0.0
O1400 O 0.59933 0.90815 0.44523 0.0
H1401 H 0.65484 0.9045 0.39799 0.0
H1402 H 0.6121 0.94874 0.43149 0.0
O1403 O 0.6314 0.93479 0.46672 0.0
C1404 C 0.59303 0.89268 0.43195 0.0
O1405 O 0.60761 0.87746 0.42578 0.0
N1406 N 0.66192 0.90217 0.45341 0.0
C1407 C 0.70658 0.90933 0.44329 0.0
C1408 C 0.69843 0.91358 0.46508 0.0
C1409 C 0.67556 0.91055 0.4696 0.0
C1410 C 0.67115 0.89137 0.43577 0.0
C1411 C 0.69275 0.89674 0.42905 0.0
H1412 H 0.66857 0.91663 0.48512 0.0
H1413 H 0.66061 0.88137 0.42504 0.0
H1414 H 0.6264 0.9166 0.50198 0.0
H1415 H 0.59406 0.85454 0.50286 0.0
H1416 H 0.64839 0.93951 0.37244 0.0
H1417 H 0.70891 0.92144 0.47756 0.0
H1418 H 0.69775 0.89221 0.41229 0.0
C1419 C 0.11818 0.62855 0.48234 0.0
C1420 C 0.12246 0.61878 0.50278 0.0
N1421 N 0.1066 0.60329 0.50657 0.0
N1422 N 0.09956 0.61935 0.47347 0.0
C1423 C 0.09355 0.60339 0.48828 0.0
H1424 H 0.12757 0.64213 0.47509 0.0
Co1425 Co 0.08308 0.62669 0.44778 0.0
C1426 C 0.04798 0.62808 0.48383 0.0
O1427 O 0.06206 0.63767 0.49764 0.0
N1428 N 0.06591 0.63332 0.42209 0.0
C1429 C 0.04219 0.65211 0.40052 0.0
C1430 C 0.06137 0.6534 0.41285 0.0
C1431 C 0.05006 0.61972 0.41343 0.0
N1432 N 0.03501 0.63084 0.40079 0.0
O1433 O 0.08316 0.59565 0.43965 0.0
H1434 H 0.07007 0.66865 0.41618 0.0
H1435 H 0.04847 0.60225 0.41777 0.0
O1436 O 0.05438 0.6229 0.46409 0.0
C1437 C 0.09941 0.59066 0.42677 0.0
O1438 O 0.11375 0.60631 0.42118 0.0
N1439 N 0.08534 0.65784 0.45424 0.0
C1440 C 0.088 0.70347 0.44527 0.0
C1441 C 0.06982 0.69475 0.45701 0.0
C1442 C 0.06869 0.67189 0.46126 0.0
C1443 C 0.10427 0.66657 0.44484 0.0
C1444 C 0.10603 0.68946 0.44026 0.0
H1445 H 0.05319 0.66584 0.46767 0.0
H1446 H 0.11704 0.6554 0.4386 0.0
H1447 H 0.07896 0.5929 0.48632 0.0
H1448 H 0.13523 0.62371 0.51461 0.0
H1449 H 0.03356 0.66604 0.39287 0.0
H1450 H 0.05563 0.70525 0.46112 0.0
H1451 H 0.12036 0.69577 0.43118 0.0
C1452 C 0.37318 0.12651 0.47436 0.0
C1453 C 0.38404 0.13354 0.49343 0.0
N1454 N 0.3884 0.11547 0.50613 0.0
N1455 N 0.37123 0.10407 0.47482 0.0
C1456 C 0.3804 0.09793 0.49448 0.0
H1457 H 0.36862 0.13687 0.46029 0.0
Co1458 Co 0.36537 0.08579 0.45042 0.0
C1459 C 0.35258 0.04198 0.47406 0.0
O1460 O 0.33346 0.03982 0.46372 0.0
N1461 N 0.35993 0.06701 0.42513 0.0
C1462 C 0.34581 0.03991 0.40371 0.0
C1463 C 0.34115 0.05557 0.41968 0.0
C1464 C 0.37536 0.05879 0.4108 0.0
N1465 N 0.36749 0.04168 0.39849 0.0
O1466 O 0.3974 0.08244 0.44653 0.0
H1467 H 0.32522 0.05706 0.4278 0.0
H1468 H 0.39259 0.06367 0.41062 0.0
O1469 O 0.36533 0.0588 0.47018 0.0
C1470 C 0.40733 0.09886 0.4372 0.0
O1471 O 0.3952 0.11583 0.43038 0.0
N1472 N 0.33447 0.09109 0.45363 0.0
C1473 C 0.28855 0.08851 0.44928 0.0
C1474 C 0.29862 0.08391 0.46992 0.0
C1475 C 0.32188 0.08559 0.47182 0.0
C1476 C 0.32448 0.10024 0.43531 0.0
C1477 C 0.3014 0.09841 0.43242 0.0
H1478 H 0.32979 0.08069 0.48716 0.0
H1479 H 0.33468 0.10618 0.42161 0.0
H1480 H 0.38307 0.0808 0.49942 0.0
H1481 H 0.38921 0.15047 0.49722 0.0
H1482 H 0.33468 0.02688 0.39787 0.0
H1483 H 0.28893 0.07715 0.48363 0.0
H1484 H 0.29396 0.10296 0.41657 0.0
C1485 C 0.12333 0.38657 0.51599 0.0
C1486 C 0.12582 0.3967 0.49547 0.0
N1487 N 0.10621 0.39532 0.48453 0.0
N1488 N 0.10209 0.37934 0.51821 0.0
C1489 C 0.0923 0.38446 0.49852 0.0
H1490 H 0.13577 0.38611 0.52906 0.0
Co1491 Co 0.08845 0.3724 0.54541 0.0
C1492 C 0.03935 0.36746 0.53235 0.0
O1493 O 0.03677 0.35012 0.54553 0.0
N1494 N 0.07511 0.36624 0.57344 0.0
C1495 C 0.06699 0.35383 0.60773 0.0
C1496 C 0.08241 0.35344 0.59064 0.0
C1497 C 0.05601 0.37535 0.58129 0.0
N1498 N 0.05043 0.36756 0.60157 0.0
O1499 O 0.08955 0.40314 0.55348 0.0
H1500 H 0.09802 0.3445 0.5912 0.0
H1501 H 0.04615 0.38739 0.5723 0.0
O1502 O 0.05837 0.37725 0.53116 0.0
C1503 C 0.10691 0.40773 0.56492 0.0
O1504 O 0.12129 0.39175 0.56936 0.0
N1505 N 0.08934 0.34158 0.53848 0.0
C1506 C 0.08373 0.2961 0.54393 0.0
C1507 C 0.07134 0.30753 0.52781 0.0
C1508 C 0.07503 0.33035 0.52483 0.0
C1509 C 0.10465 0.32985 0.55058 0.0
C1510 C 0.10176 0.30694 0.55415 0.0
H1511 H 0.06522 0.33908 0.51291 0.0
H1512 H 0.11765 0.3387 0.55948 0.0
H1513 H 0.07483 0.38213 0.49497 0.0
H1514 H 0.14057 0.40529 0.48945 0.0
H1515 H 0.06769 0.34459 0.62326 0.0
H1516 H 0.058 0.29929 0.51875 0.0
H1517 H 0.11228 0.29827 0.56604 0.0
C1518 C 0.61764 0.11053 0.52824 0.0
C1519 C 0.60518 0.11899 0.5107 0.0
N1520 N 0.59935 0.10186 0.49725 0.0
N1521 N 0.61937 0.08818 0.52598 0.0
C1522 C 0.60749 0.0835 0.50739 0.0
H1523 H 0.62468 0.12 0.54194 0.0
Co1524 Co 0.63244 0.06768 0.54566 0.0
C1525 C 0.63885 0.0406 0.50165 0.0
O1526 O 0.64246 0.05658 0.48705 0.0
N1527 N 0.64561 0.04691 0.56498 0.0
C1528 C 0.67424 0.00812 0.58247 0.0
C1529 C 0.66113 0.02271 0.55433 0.0
C1530 C 0.64735 0.04962 0.5953 0.0
N1531 N 0.66414 0.02586 0.60541 0.0
O1532 O 0.6033 0.05685 0.55302 0.0
H1533 H 0.66255 0.01718 0.53726 0.0
H1534 H 0.63853 0.06161 0.60552 0.0
O1535 O 0.63534 0.04504 0.52223 0.0
C1536 C 0.59662 0.06844 0.56962 0.0
O1537 O 0.61019 0.08363 0.57781 0.0
N1538 N 0.66074 0.0799 0.54152 0.0
C1539 C 0.70477 0.07861 0.55566 0.0
C1540 C 0.69949 0.07562 0.53287 0.0
C1541 C 0.677 0.07543 0.52625 0.0
C1542 C 0.66622 0.0886 0.5618 0.0
C1543 C 0.68786 0.08648 0.56984 0.0
H1544 H 0.67284 0.0703 0.50962 0.0
H1545 H 0.65309 0.09288 0.57344 0.0
H1546 H 0.60411 0.06684 0.50151 0.0
H1547 H 0.60092 0.13635 0.50795 0.0
H1548 H 0.68147 0.99162 0.58404 0.0
H1549 H 0.71225 0.0708 0.52096 0.0
H1550 H 0.69074 0.08916 0.5875 0.0
C1551 C 0.38337 0.88295 0.52399 0.0
C1552 C 0.3929 0.87768 0.50376 0.0
N1553 N 0.39152 0.89575 0.49047 0.0
N1554 N 0.37653 0.90441 0.52364 0.0
C1555 C 0.38113 0.91155 0.50274 0.0
H1556 H 0.38295 0.87227 0.53852 0.0
Co1557 Co 0.37018 0.92081 0.54919 0.0
C1558 C 0.3606 0.96742 0.53458 0.0
O1559 O 0.34251 0.9661 0.54685 0.0
N1560 N 0.36478 0.93776 0.57576 0.0
C1561 C 0.35009 0.95977 0.60204 0.0
C1562 C 0.34653 0.94143 0.58868 0.0
C1563 C 0.37964 0.95325 0.58305 0.0
N1564 N 0.37086 0.96735 0.59822 0.0
O1565 O 0.40145 0.92079 0.55611 0.0
H1566 H 0.33087 0.93273 0.58784 0.0
H1567 H 0.39636 0.95502 0.57647 0.0
O1568 O 0.37296 0.94991 0.53278 0.0
C1569 C 0.40663 0.90492 0.56933 0.0
O1570 O 0.39086 0.89124 0.57617 0.0
N1571 N 0.3395 0.91825 0.54282 0.0
C1572 C 0.29363 0.9211 0.54461 0.0
C1573 C 0.30518 0.93062 0.52661 0.0
C1574 C 0.3284 0.92817 0.52553 0.0
C1575 C 0.32811 0.90473 0.55716 0.0
C1576 C 0.30491 0.90638 0.55881 0.0
H1577 H 0.33748 0.9363 0.51221 0.0
H1578 H 0.33723 0.89505 0.5694 0.0
H1579 H 0.37827 0.92836 0.49695 0.0
H1580 H 0.40111 0.86214 0.49945 0.0
H1581 H 0.338 0.96757 0.61302 0.0
H1582 H 0.29667 0.94125 0.5147 0.0
H1583 H 0.29625 0.8981 0.57238 0.0
C1584 C 0.08822 0.43637 0.24951 0.0
C1585 C 0.07822 0.45494 0.26038 0.0
C1586 C 0.06157 0.46483 0.22442 0.0
C1587 C 0.06593 0.44298 0.21605 0.0
N1588 N 0.07933 0.40574 0.22521 0.0
N1589 N 0.05072 0.48479 0.25757 0.0
C1590 C 0.07837 0.42808 0.22972 0.0
C1591 C 0.06373 0.46888 0.24769 0.0
N1592 N 0.10669 0.42633 0.2583 0.0
N1593 N 0.05594 0.48186 0.21037 0.0
H1594 H 0.04972 0.48709 0.27476 0.0
H1595 H 0.03886 0.4939 0.24862 0.0
H1596 H 0.05613 0.48012 0.19303 0.0
H1597 H 0.05396 0.49826 0.21596 0.0
H1598 H 0.115 0.41337 0.2501 0.0
H1599 H 0.11485 0.4327 0.27235 0.0
H1600 H 0.08727 0.39447 0.23587 0.0
H1601 H 0.06977 0.39818 0.21277 0.0
C1602 C 0.56487 0.04931 0.23901 0.0
C1603 C 0.5854 0.05758 0.23011 0.0
C1604 C 0.58477 0.08594 0.25949 0.0
C1605 C 0.56708 0.07481 0.27083 0.0
N1606 N 0.54834 0.03874 0.27394 0.0
N1607 N 0.61888 0.07848 0.23957 0.0
C1608 C 0.5595 0.05424 0.2615 0.0
C1609 C 0.59673 0.07422 0.24277 0.0
N1610 N 0.54953 0.03838 0.22618 0.0
N1611 N 0.5895 0.10787 0.26341 0.0
H1612 H 0.62878 0.06862 0.22913 0.0
H1613 H 0.62756 0.09 0.2494 0.0
H1614 H 0.57925 0.11799 0.27324 0.0
H1615 H 0.60182 0.11637 0.25445 0.0
H1616 H 0.53421 0.03315 0.23269 0.0
H1617 H 0.55043 0.03769 0.20884 0.0
H1618 H 0.54354 0.02335 0.26726 0.0
H1619 H 0.54696 0.03982 0.29126 0.0
C1620 C 0.92792 0.58547 0.24558 0.0
C1621 C 0.9223 0.57262 0.22655 0.0
C1622 C 0.89898 0.54798 0.24956 0.0
C1623 C 0.90436 0.56105 0.26853 0.0
N1624 N 0.91801 0.59611 0.28326 0.0
N1625 N 0.89798 0.54554 0.20915 0.0
C1626 C 0.91691 0.58108 0.26611 0.0
C1627 C 0.90641 0.55503 0.22814 0.0
N1628 N 0.94437 0.60128 0.24426 0.0
N1629 N 0.88716 0.52861 0.25212 0.0
H1630 H 0.90274 0.55065 0.19319 0.0
H1631 H 0.88484 0.53413 0.20912 0.0
H1632 H 0.88032 0.52376 0.26742 0.0
H1633 H 0.88503 0.51692 0.2394 0.0
H1634 H 0.95098 0.60937 0.25819 0.0
H1635 H 0.95278 0.60498 0.22945 0.0
H1636 H 0.92543 0.61178 0.2818 0.0
H1637 H 0.90913 0.59414 0.29807 0.0
C1638 C 0.43501 0.91234 0.24986 0.0
C1639 C 0.43621 0.92559 0.26942 0.0
C1640 C 0.41848 0.95699 0.24987 0.0
C1641 C 0.41743 0.94376 0.2303 0.0
N1642 N 0.41838 0.908 0.21296 0.0
N1643 N 0.42399 0.95817 0.28996 0.0
C1644 C 0.42364 0.92096 0.23089 0.0
C1645 C 0.4264 0.94725 0.27002 0.0
N1646 N 0.44575 0.89219 0.24907 0.0
N1647 N 0.41208 0.97889 0.24904 0.0
H1648 H 0.42908 0.95142 0.30519 0.0
H1649 H 0.41525 0.97308 0.29175 0.0
H1650 H 0.40443 0.98585 0.23501 0.0
H1651 H 0.41511 0.99033 0.2618 0.0
H1652 H 0.44795 0.88298 0.23448 0.0
H1653 H 0.45424 0.88548 0.26273 0.0
H1654 H 0.42079 0.89077 0.21208 0.0
H1655 H 0.42079 0.89077 0.21208 0.0
C1656 C 0.06545 0.54802 0.73799 0.0
C1657 C 0.08399 0.55825 0.72709 0.0
C1658 C 0.08227 0.58802 0.7549 0.0
C1659 C 0.06749 0.57531 0.76841 0.0
N1660 N 0.05154 0.53828 0.77433 0.0
N1661 N 0.11455 0.58456 0.73123 0.0
C1662 C 0.06086 0.55382 0.7605 0.0
C1663 C 0.09388 0.57721 0.73742 0.0
N1664 N 0.0514 0.53382 0.72698 0.0
N1665 N 0.08488 0.61042 0.75817 0.0
H1666 H 0.12453 0.57583 0.7199 0.0
H1667 H 0.12255 0.59772 0.73943 0.0
H1668 H 0.07514 0.61934 0.76958 0.0
H1669 H 0.09477 0.62023 0.74767 0.0
H1670 H 0.03707 0.52732 0.73452 0.0
H1671 H 0.05219 0.53104 0.70984 0.0
H1672 H 0.04788 0.52211 0.76891 0.0
H1673 H 0.05042 0.54032 0.79154 0.0
C1674 C 0.4345 0.05649 0.72892 0.0
C1675 C 0.44944 0.07488 0.72711 0.0
C1676 C 0.44752 0.08068 0.76749 0.0
C1677 C 0.43507 0.06055 0.76955 0.0
N1678 N 0.4189 0.0277 0.7527 0.0
N1679 N 0.47229 0.10308 0.74455 0.0
C1680 C 0.42907 0.04802 0.75038 0.0
C1681 C 0.45651 0.08665 0.74637 0.0
N1682 N 0.42495 0.04757 0.71015 0.0
N1683 N 0.45019 0.09436 0.78561 0.0
H1684 H 0.47912 0.10797 0.72928 0.0
H1685 H 0.47991 0.1106 0.75827 0.0
H1686 H 0.44349 0.09074 0.80129 0.0
H1687 H 0.45721 0.11026 0.78467 0.0
H1688 H 0.41217 0.03576 0.71063 0.0
H1689 H 0.42829 0.0534 0.69408 0.0
H1690 H 0.41645 0.01667 0.73946 0.0
H1691 H 0.41445 0.02104 0.76818 0.0
C1692 C 0.95195 0.41382 0.74945 0.0
C1693 C 0.94824 0.42755 0.76839 0.0
C1694 C 0.92638 0.45377 0.74557 0.0
C1695 C 0.93122 0.4408 0.72648 0.0
N1696 N 0.95138 0.4116 0.70866 0.0
N1697 N 0.9367 0.46316 0.78341 0.0
C1698 C 0.94491 0.42159 0.72809 0.0
C1699 C 0.93684 0.44831 0.76611 0.0
N1700 N 0.96134 0.39317 0.75204 0.0
N1701 N 0.91126 0.47083 0.74423 0.0
H1702 H 0.94526 0.46012 0.79818 0.0
H1703 H 0.93037 0.47932 0.78224 0.0
H1704 H 0.90322 0.47511 0.72937 0.0
H1705 H 0.90521 0.47937 0.75814 0.0
H1706 H 0.96205 0.38125 0.73939 0.0
H1707 H 0.96708 0.38731 0.76741 0.0
H1708 H 0.96272 0.39842 0.70758 0.0
H1709 H 0.96272 0.39842 0.70758 0.0
C1710 C 0.55351 0.92655 0.77097 0.0
C1711 C 0.56888 0.94453 0.77327 0.0
C1712 C 0.57359 0.94627 0.73275 0.0
C1713 C 0.55679 0.92959 0.73029 0.0
N1714 N 0.52937 0.90497 0.74649 0.0
N1715 N 0.59153 0.97345 0.75695 0.0
C1716 C 0.54635 0.92002 0.74927 0.0
C1717 C 0.57839 0.95493 0.75431 0.0
N1718 N 0.54617 0.91542 0.78955 0.0
N1719 N 0.58526 0.95356 0.71451 0.0
H1720 H 0.59578 0.97991 0.77258 0.0
H1721 H 0.59687 0.98345 0.74376 0.0
H1722 H 0.58214 0.94792 0.69838 0.0
H1723 H 0.59928 0.96382 0.71545 0.0
H1724 H 0.53701 0.90064 0.78898 0.0
H1725 H 0.55045 0.9201 0.80578 0.0
H1726 H 0.51923 0.89935 0.75945 0.0
H1727 H 0.52453 0.89893 0.73087 0.0
C1728 C 0.22576 0.08784 0.43763 0.0
C1729 C 0.22299 0.06532 0.43061 0.0
C1730 C 0.26228 0.05755 0.43855 0.0
C1731 C 0.26558 0.08047 0.44413 0.0
N1732 N 0.2513 0.11798 0.4471 0.0
N1733 N 0.23876 0.0296 0.42098 0.0
C1734 C 0.24753 0.0958 0.44309 0.0
C1735 C 0.24133 0.05045 0.43004 0.0
N1736 N 0.20746 0.10141 0.43956 0.0
N1737 N 0.279 0.04238 0.44194 0.0
H1738 H 0.22348 0.0236 0.41511 0.0
H1739 H 0.25204 0.0189 0.41754 0.0
H1740 H 0.29468 0.04674 0.44789 0.0
H1741 H 0.27682 0.02517 0.44075 0.0
H1742 H 0.20782 0.11712 0.44703 0.0
H1743 H 0.19144 0.09647 0.43478 0.0
H1744 H 0.23956 0.13046 0.44414 0.0
H1745 H 0.26674 0.12415 0.45236 0.0
C1746 C 0.92188 0.22714 0.43614 0.0
C1747 C 0.93993 0.2249 0.42073 0.0
C1748 C 0.94708 0.26506 0.42329 0.0
C1749 C 0.92797 0.26755 0.43717 0.0
N1750 N 0.89508 0.25175 0.45408 0.0
N1751 N 0.96671 0.24226 0.39618 0.0
C1752 C 0.91471 0.24881 0.44276 0.0
C1753 C 0.95168 0.24404 0.4133 0.0
N1754 N 0.91219 0.2086 0.44526 0.0
N1755 N 0.96123 0.28268 0.42016 0.0
H1756 H 0.97023 0.22714 0.38822 0.0
H1757 H 0.97407 0.256 0.38844 0.0
H1758 H 0.95843 0.29825 0.42735 0.0
H1759 H 0.97667 0.28134 0.41223 0.0
H1760 H 0.90091 0.20916 0.4585 0.0
H1761 H 0.91671 0.19244 0.44084 0.0
H1762 H 0.88335 0.23909 0.45635 0.0
H1763 H 0.88968 0.26732 0.45978 0.0
C1764 C 0.758 0.94708 0.43757 0.0
C1765 C 0.7683 0.93906 0.41758 0.0
C1766 C 0.74123 0.90851 0.4181 0.0
C1767 C 0.72823 0.91931 0.43485 0.0
N1768 N 0.72171 0.95561 0.45214 0.0
N1769 N 0.76187 0.91639 0.38454 0.0
C1770 C 0.73571 0.94072 0.44212 0.0
C1771 C 0.75743 0.92114 0.40636 0.0
N1772 N 0.76939 0.95907 0.45325 0.0
N1773 N 0.73952 0.88613 0.41425 0.0
H1774 H 0.77196 0.9267 0.37472 0.0
H1775 H 0.75336 0.90382 0.37594 0.0
H1776 H 0.7303 0.8756 0.42463 0.0
H1777 H 0.74969 0.87799 0.40263 0.0
H1778 H 0.76181 0.96419 0.46812 0.0
H1779 H 0.7867 0.96071 0.45326 0.0
H1780 H 0.72706 0.97155 0.45682 0.0
H1781 H 0.70447 0.95334 0.45248 0.0
C1782 C 0.06353 0.74981 0.41143 0.0
C1783 C 0.06812 0.76852 0.42519 0.0
C1784 C 0.09095 0.74507 0.44988 0.0
C1785 C 0.08621 0.72647 0.43612 0.0
N1786 N 0.07576 0.71313 0.39963 0.0
N1787 N 0.09208 0.78541 0.45301 0.0
C1788 C 0.07506 0.72952 0.41546 0.0
C1789 C 0.08378 0.76662 0.44301 0.0
N1790 N 0.04735 0.75091 0.39536 0.0
N1791 N 0.1017 0.74203 0.46976 0.0
H1792 H 0.08776 0.80148 0.44786 0.0
H1793 H 0.10487 0.78511 0.4648 0.0
H1794 H 0.10812 0.72656 0.47462 0.0
H1795 H 0.10327 0.75453 0.48178 0.0
H1796 H 0.04179 0.73697 0.38653 0.0
H1797 H 0.03807 0.7653 0.39222 0.0
H1798 H 0.06913 0.71503 0.38365 0.0
H1799 H 0.08567 0.69897 0.40151 0.0
C1800 C 0.26939 0.94884 0.56447 0.0
C1801 C 0.27113 0.92935 0.55093 0.0
C1802 C 0.2306 0.92394 0.55287 0.0
C1803 C 0.22881 0.94396 0.5656 0.0
N1804 N 0.24551 0.9771 0.58113 0.0
N1805 N 0.25385 0.89986 0.5298 0.0
C1806 C 0.24795 0.95688 0.57074 0.0
C1807 C 0.25183 0.91729 0.54445 0.0
N1808 N 0.28833 0.95932 0.57185 0.0
N1809 N 0.21198 0.9112 0.54911 0.0
H1810 H 0.26925 0.89446 0.52362 0.0
H1811 H 0.24036 0.89167 0.5225 0.0
H1812 H 0.19601 0.91598 0.55416 0.0
H1813 H 0.21234 0.89528 0.54212 0.0
H1814 H 0.28842 0.97177 0.584 0.0
H1815 H 0.30431 0.95471 0.56678 0.0
H1816 H 0.25839 0.98865 0.58296 0.0
H1817 H 0.23012 0.98309 0.58674 0.0
C1818 C 0.07564 0.23319 0.54916 0.0
C1819 C 0.05899 0.23239 0.56613 0.0
C1820 C 0.06062 0.27308 0.57014 0.0
C1821 C 0.07597 0.274 0.55199 0.0
N1822 N 0.09648 0.25572 0.52261 0.0
N1823 N 0.03375 0.25111 0.59123 0.0
C1824 C 0.08306 0.25425 0.54106 0.0
C1825 C 0.05101 0.25222 0.57627 0.0
N1826 N 0.08476 0.21377 0.54123 0.0
N1827 N 0.05549 0.29215 0.58168 0.0
H1828 H 0.02664 0.23604 0.59634 0.0
H1829 H 0.0254 0.26505 0.59743 0.0
H1830 H 0.06152 0.30788 0.57724 0.0
H1831 H 0.04648 0.29234 0.59655 0.0
H1832 H 0.09867 0.21318 0.5308 0.0
H1833 H 0.07943 0.19799 0.5463 0.0
H1834 H 0.10014 0.24224 0.51224 0.0
H1835 H 0.10289 0.27084 0.51676 0.0
C1836 C 0.75939 0.04688 0.56386 0.0
C1837 C 0.76787 0.05628 0.58409 0.0
C1838 C 0.73714 0.08309 0.58295 0.0
C1839 C 0.72672 0.07115 0.56524 0.0
N1840 N 0.72522 0.03507 0.54649 0.0
N1841 N 0.75817 0.07801 0.61687 0.0
C1842 C 0.73688 0.05091 0.55804 0.0
C1843 C 0.75459 0.07266 0.59502 0.0
N1844 N 0.77271 0.03574 0.54909 0.0
N1845 N 0.73147 0.10466 0.58764 0.0
H1846 H 0.76963 0.06934 0.62674 0.0
H1847 H 0.74789 0.08916 0.62549 0.0
H1848 H 0.72059 0.11385 0.5776 0.0
H1849 H 0.73981 0.11401 0.59978 0.0
H1850 H 0.76666 0.02989 0.53381 0.0
H1851 H 0.79001 0.03536 0.5503 0.0
H1852 H 0.73234 0.01975 0.54213 0.0
H1853 H 0.70799 0.03587 0.54412 0.0
C1854 C 0.94626 0.74085 0.55834 0.0
C1855 C 0.92519 0.73142 0.56425 0.0
C1856 C 0.92185 0.7604 0.59277 0.0
C1857 C 0.93991 0.77262 0.58338 0.0
N1858 N 0.96425 0.77595 0.55088 0.0
N1859 N 0.88973 0.73854 0.58257 0.0
C1860 C 0.95079 0.76336 0.5643 0.0
C1861 C 0.91192 0.74311 0.58009 0.0
N1862 N 0.96252 0.72844 0.54826 0.0
N1863 N 0.91445 0.76471 0.61389 0.0
H1864 H 0.88125 0.72755 0.572 0.0
H1865 H 0.87951 0.74776 0.59329 0.0
H1866 H 0.92261 0.77592 0.62448 0.0
H1867 H 0.90195 0.75517 0.62145 0.0
H1868 H 0.97839 0.73491 0.54501 0.0
H1869 H 0.96133 0.71121 0.54611 0.0
H1870 H 0.97121 0.76958 0.53621 0.0
H1871 H 0.96586 0.79318 0.55253 0.0
C1872 C 0.40457 0.24438 0.06664 0.0
C1873 C 0.41679 0.23149 0.0509 0.0
C1874 C 0.44211 0.26333 0.04668 0.0
C1875 C 0.43282 0.27381 0.06593 0.0
N1876 N 0.40952 0.26813 0.09864 0.0
N1877 N 0.45299 0.22739 0.0326 0.0
C1878 C 0.41533 0.26249 0.07734 0.0
C1879 C 0.4373 0.24048 0.04272 0.0
N1880 N 0.38264 0.23997 0.07102 0.0
N1881 N 0.45448 0.27499 0.03149 0.0
H1882 H 0.45198 0.21004 0.0321 0.0
H1883 H 0.46849 0.2337 0.02767 0.0
H1884 H 0.45618 0.2923 0.03193 0.0
H1885 H 0.46034 0.26764 0.01678 0.0
H1886 H 0.37314 0.24998 0.0817 0.0
H1887 H 0.37356 0.22812 0.06199 0.0
H1888 H 0.39751 0.25923 0.10763 0.0
H1889 H 0.4186 0.27971 0.10801 0.0
C1890 C 0.42378 0.73047 0.94716 0.0
C1891 C 0.44225 0.73007 0.93216 0.0
C1892 C 0.4424 0.77091 0.93058 0.0
C1893 C 0.42495 0.77134 0.94677 0.0
N1894 N 0.40017 0.75229 0.97203 0.0
N1895 N 0.47074 0.74923 0.91123 0.0
C1896 C 0.41589 0.75131 0.95545 0.0
C1897 C 0.45195 0.75012 0.92424 0.0
N1898 N 0.41369 0.71088 0.95325 0.0
N1899 N 0.44955 0.79042 0.92102 0.0
H1900 H 0.4777 0.73424 0.90566 0.0
H1901 H 0.48029 0.76314 0.90704 0.0
H1902 H 0.44374 0.80612 0.92585 0.0
H1903 H 0.4602 0.79112 0.9073 0.0
H1904 H 0.39874 0.70997 0.96208 0.0
H1905 H 0.41957 0.69526 0.94832 0.0
H1906 H 0.39453 0.73845 0.9809 0.0
H1907 H 0.39362 0.76732 0.97796 0.0
C1908 C 0.26906 0.42837 0.96059 0.0
C1909 C 0.27424 0.43391 0.93796 0.0
C1910 C 0.24067 0.41397 0.92625 0.0
C1911 C 0.23235 0.41456 0.94838 0.0
N1912 N 0.24613 0.40536 0.98481 0.0
N1913 N 0.26346 0.43266 0.89898 0.0
C1914 C 0.24852 0.4172 0.9655 0.0
C1915 C 0.25963 0.42684 0.9207 0.0
N1916 N 0.28383 0.43322 0.97731 0.0
N1917 N 0.23271 0.39853 0.91151 0.0
H1918 H 0.27668 0.44296 0.89416 0.0
H1919 H 0.25214 0.42892 0.88626 0.0
H1920 H 0.22104 0.38649 0.91642 0.0
H1921 H 0.2397 0.39609 0.89572 0.0
H1922 H 0.27968 0.43215 0.99418 0.0
H1923 H 0.29993 0.4392 0.97443 0.0
H1924 H 0.25814 0.40483 0.99739 0.0
H1925 H 0.23361 0.39333 0.98652 0.0
C1926 C 0.57901 0.26725 0.91614 0.0
C1927 C 0.55774 0.26811 0.90546 0.0
C1928 C 0.55239 0.22836 0.91374 0.0
C1929 C 0.5714 0.22901 0.92799 0.0
N1930 N 0.60139 0.24982 0.94493 0.0
N1931 N 0.52413 0.2494 0.8937 0.0
C1932 C 0.58438 0.24864 0.92973 0.0
C1933 C 0.54446 0.24854 0.90404 0.0
N1934 N 0.59442 0.28378 0.91294 0.0
N1935 N 0.54234 0.20839 0.909 0.0
H1936 H 0.51865 0.2635 0.88503 0.0
H1937 H 0.5124 0.23656 0.89449 0.0
H1938 H 0.54778 0.19324 0.91565 0.0
H1939 H 0.52988 0.20654 0.897 0.0
H1940 H 0.61074 0.28285 0.91892 0.0
H1941 H 0.59205 0.29708 0.90208 0.0
H1942 H 0.60968 0.26465 0.94879 0.0
H1943 H 0.60582 0.23647 0.95522 0.0
C1944 C 0.76959 0.54845 0.94905 0.0
C1945 C 0.77328 0.57139 0.95379 0.0
C1946 C 0.73331 0.57849 0.94895 0.0
C1947 C 0.73066 0.55664 0.93989 0.0
N1948 N 0.74718 0.52154 0.92885 0.0
N1949 N 0.75889 0.60873 0.95767 0.0
C1950 C 0.74901 0.54172 0.93941 0.0
C1951 C 0.75515 0.58657 0.95367 0.0
N1952 N 0.78562 0.53304 0.95403 0.0
N1953 N 0.71494 0.59116 0.95378 0.0
H1954 H 0.77452 0.61489 0.9624 0.0
H1955 H 0.74683 0.62103 0.95518 0.0
H1956 H 0.69867 0.58536 0.95154 0.0
H1957 H 0.71578 0.6064 0.96217 0.0
H1958 H 0.78315 0.51587 0.95254 0.0
H1959 H 0.80032 0.53729 0.96228 0.0
H1960 H 0.76079 0.51107 0.92596 0.0
H1961 H 0.73252 0.51619 0.92109 0.0
C1962 C 0.55643 0.76864 0.08154 0.0
C1963 C 0.57074 0.76965 0.06251 0.0
C1964 C 0.5697 0.72882 0.0594 0.0
C1965 C 0.55405 0.7281 0.07728 0.0
N1966 N 0.52987 0.74696 0.10323 0.0
N1967 N 0.58955 0.7512 0.03203 0.0
C1968 C 0.54665 0.74792 0.08773 0.0
C1969 C 0.57692 0.74985 0.05103 0.0
N1970 N 0.55257 0.78735 0.09405 0.0
N1971 N 0.57816 0.70934 0.0509 0.0
H1972 H 0.5964 0.76615 0.02623 0.0
H1973 H 0.59229 0.73778 0.0213 0.0
H1974 H 0.57277 0.69357 0.056 0.0
H1975 H 0.59157 0.70867 0.03984 0.0
H1976 H 0.54439 0.78719 0.10941 0.0
H1977 H 0.55923 0.80289 0.09019 0.0
H1978 H 0.52183 0.761 0.10962 0.0
H1979 H 0.52261 0.73197 0.10839 0.0
C1980 C 0.26764 0.57737 0.0528 0.0
C1981 C 0.26889 0.55908 0.06793 0.0
C1982 C 0.22824 0.55881 0.07174 0.0
C1983 C 0.22689 0.57643 0.05582 0.0
N1984 N 0.24445 0.60034 0.0287 0.0
N1985 N 0.25092 0.52998 0.08902 0.0
C1986 C 0.24637 0.58506 0.04556 0.0
C1987 C 0.24932 0.54907 0.07657 0.0
N1988 N 0.28679 0.5878 0.04592 0.0
N1989 N 0.20941 0.55179 0.08267 0.0
H1990 H 0.26621 0.52266 0.09313 0.0
H1991 H 0.23722 0.52038 0.09379 0.0
H1992 H 0.19349 0.55787 0.07916 0.0
H1993 H 0.20966 0.54105 0.09633 0.0
H1994 H 0.28698 0.60279 0.03712 0.0
H1995 H 0.30274 0.58225 0.05022 0.0
H1996 H 0.25779 0.6055 0.0188 0.0
H1997 H 0.22911 0.6068 0.02353 0.0
C1998 C 0.75173 0.41212 0.05513 0.0
C1999 C 0.77063 0.42413 0.06275 0.0
C2000 C 0.74674 0.4469 0.08718 0.0
C2001 C 0.7279 0.4346 0.07985 0.0
N2002 N 0.71333 0.40145 0.06193 0.0
N2003 N 0.7871 0.44885 0.09006 0.0
C2004 C 0.73068 0.41587 0.06547 0.0
C2005 C 0.76842 0.44029 0.08005 0.0
N2006 N 0.75366 0.39788 0.03736 0.0
N2007 N 0.74384 0.46516 0.10061 0.0
H2008 H 0.80322 0.44408 0.08552 0.0
H2009 H 0.78666 0.45904 0.10416 0.0
H2010 H 0.72831 0.46966 0.10717 0.0
H2011 H 0.75655 0.47646 0.1043 0.0
H2012 H 0.73998 0.39066 0.02937 0.0
H2013 H 0.76882 0.39467 0.02938 0.0
H2014 H 0.71495 0.38647 0.05322 0.0
H2015 H 0.69794 0.4031 0.06983 0.0
C2016 C 0.95436 0.49463 0.11337 0.0
C2017 C 0.96441 0.51404 0.12283 0.0
C2018 C 1e-05 0.4937 0.12636 0.0
C2019 C 0.9898 0.47437 0.11692 0.0
N2020 N 0.95972 0.45867 0.09537 0.0
N2021 N 0.99828 0.5335 0.13332 0.0
C2022 C 0.96776 0.47565 0.10842 0.0
C2023 C 0.98776 0.51412 0.12738 0.0
N2024 N 0.93184 0.49396 0.10969 0.0
N2025 N 0.02068 0.49233 0.13605 0.0
H2026 H 0.98994 0.54847 0.13601 0.0
H2027 H 0.0156 0.53517 0.13389 0.0
H2028 H 0.03071 0.47818 0.13558 0.0
H2029 H 0.02743 0.50488 0.14604 0.0
H2030 H 0.92317 0.47938 0.10574 0.0
H2031 H 0.92149 0.50769 0.11191 0.0
H2032 H 0.94452 0.45938 0.08694 0.0
H2033 H 0.96936 0.44477 0.0911 0.0
C2034 C 0.51969 0.99858 0.14645 0.0
C2035 C 0.52478 0.01879 0.13544 0.0
C2036 C 0.48766 0.01865 0.11808 0.0
C2037 C 0.48132 0.00056 0.1321 0.0
N2038 N 0.49123 0.97444 0.16141 0.0
N2039 N 0.51374 0.04889 0.11111 0.0
C2040 C 0.49737 0.99063 0.14657 0.0
C2041 C 0.50892 0.02892 0.12105 0.0
N2042 N 0.53639 0.98666 0.15644 0.0
N2043 N 0.47347 0.02579 0.10169 0.0
H2044 H 0.52946 0.0563 0.11205 0.0
H2045 H 0.50192 0.05868 0.10293 0.0
H2046 H 0.45793 0.0185 0.0989 0.0
H2047 H 0.47788 0.03746 0.08956 0.0
H2048 H 0.53417 0.97065 0.16289 0.0
H2049 H 0.55302 0.99182 0.15599 0.0
H2050 H 0.50121 0.96955 0.17481 0.0
H2051 H 0.47625 0.96576 0.16042 0.0
C2052 C 0.03118 0.47433 0.85695 0.0
C2053 C 0.00911 0.47585 0.86525 0.0
C2054 C 0.01781 0.51236 0.8813 0.0
C2055 C 0.03663 0.51352 0.86699 0.0
N2056 N 0.0639 0.49436 0.84431 0.0
N2057 N 0.9816 0.49522 0.8875 0.0
C2058 C 0.04448 0.49386 0.8563 0.0
C2059 C 0.00262 0.49427 0.87865 0.0
N2060 N 0.03901 0.45436 0.8491 0.0
N2061 N 0.01451 0.52835 0.89719 0.0
H2062 H 0.97021 0.4821 0.88624 0.0
H2063 H 0.97515 0.50941 0.89524 0.0
H2064 H 0.02636 0.54069 0.90045 0.0
H2065 H 0.00164 0.52771 0.9089 0.0
H2066 H 0.0556 0.45159 0.84464 0.0
H2067 H 0.02922 0.43994 0.84892 0.0
H2068 H 0.06909 0.48159 0.8337 0.0
H2069 H 0.07449 0.50813 0.84436 0.0
C2070 C 0.51333 0.00027 0.8742 0.0
C2071 C 0.51224 0.97664 0.87687 0.0
C2072 C 0.47233 0.98004 0.88611 0.0
C2073 C 0.47242 0.00252 0.87868 0.0
N2074 N 0.49354 0.0348 0.86702 0.0
N2075 N 0.49046 0.94396 0.88617 0.0
C2076 C 0.49315 0.01303 0.8737 0.0
C2077 C 0.4917 0.96657 0.88333 0.0
N2078 N 0.53352 0.01061 0.87168 0.0
N2079 N 0.45365 0.97171 0.89622 0.0
H2080 H 0.50446 0.93368 0.886 0.0
H2081 H 0.47547 0.93524 0.88767 0.0
H2082 H 0.43968 0.9816 0.89922 0.0
H2083 H 0.45287 0.95608 0.90382 0.0
H2084 H 0.53571 0.02785 0.8726 0.0
H2085 H 0.54849 0.00202 0.87035 0.0
H2086 H 0.50729 0.0424 0.85955 0.0
H2087 H 0.47978 0.04522 0.86829 0.0
C2088 C 0.1238 0.01521 0.49248 0.0
C2089 C 0.11599 0.00466 0.47275 0.0
C2090 C 0.11025 0.96968 0.49344 0.0
C2091 C 0.12065 0.97927 0.51256 0.0
N2092 N 0.13333 0.01252 0.53171 0.0
N2093 N 0.09421 0.97524 0.4566 0.0
C2094 C 0.12584 0.00256 0.51263 0.0
C2095 C 0.10676 0.98293 0.47401 0.0
N2096 N 0.13041 0.03702 0.49163 0.0
N2097 N 0.1044 0.94761 0.4936 0.0
H2098 H 0.09084 0.98516 0.44273 0.0
H2099 H 0.08523 0.96035 0.45682 0.0
H2100 H 0.10506 0.93785 0.50793 0.0
H2101 H 0.09951 0.93872 0.47948 0.0
H2102 H 0.13947 0.04515 0.50402 0.0
H2103 H 0.12667 0.04721 0.47813 0.0
H2104 H 0.13471 0.02969 0.53398 0.0
H2105 H 0.13733 0.00364 0.54595 0.0
C2106 C 0.02632 0.10987 0.49702 0.0
C2107 C 0.01869 0.12621 0.51238 0.0
C2108 C 0.993 0.14095 0.48441 0.0
C2109 C 0.00066 0.12496 0.46864 0.0
N2110 N 0.021 0.09091 0.46144 0.0
N2111 N 0.98842 0.15005 0.52343 0.0
C2112 C 0.01621 0.10831 0.47545 0.0
C2113 C -0.00014 0.13929 0.50696 0.0
N2114 N 0.04343 0.09611 0.50306 0.0
N2115 N 0.98082 0.15895 0.47766 0.0
H2116 H 0.99219 0.14749 0.54018 0.0
H2117 H 0.97352 0.15863 0.52066 0.0
H2118 H 0.97747 0.16203 0.46097 0.0
H2119 H 0.97661 0.17216 0.4882 0.0
H2120 H 0.05212 0.08594 0.49193 0.0
H2121 H 0.04884 0.09509 0.51956 0.0
H2122 H 0.03081 0.07729 0.46597 0.0
H2123 H 0.01366 0.08919 0.44573 0.0
C2124 C 0.84832 0.02692 0.49879 0.0
C2125 C 0.85985 0.01982 0.51844 0.0
C2126 C 0.87345 0.98675 0.49828 0.0
C2127 C 0.85994 0.99286 0.47985 0.0
N2128 N 0.84287 0.02236 0.45894 0.0
N2129 N 0.8906 0.99798 0.53321 0.0
C2130 C 0.84998 0.01413 0.47898 0.0
C2131 C 0.87485 0.00136 0.51707 0.0
N2132 N 0.8356 0.04587 0.49906 0.0
N2133 N 0.88447 0.96676 0.49796 0.0
H2134 H 0.89363 0.00928 0.54602 0.0
H2135 H 0.90272 0.98554 0.53244 0.0
H2136 H 0.88477 0.95647 0.4839 0.0
H2137 H 0.89249 0.95991 0.51176 0.0
H2138 H 0.82411 0.04993 0.48664 0.0
H2139 H 0.83635 0.05753 0.5119 0.0
H2140 H 0.83725 0.03865 0.4566 0.0
H2141 H 0.84527 0.01365 0.44407 0.0
C2142 C 0.01074 0.86194 0.52299 0.0
C2143 C 0.98799 0.86724 0.5264 0.0
C2144 C 0.98497 0.8787 0.48725 0.0
C2145 C 0.00621 0.86891 0.4828 0.0
N2146 N 0.03886 0.84959 0.49705 0.0
N2147 N 0.9529 0.88078 0.51182 0.0
C2148 C 0.01926 0.86058 0.50088 0.0
C2149 C 0.97505 0.87612 0.50867 0.0
N2150 N 0.0242 0.85796 0.54099 0.0
N2151 N 0.97431 0.89066 0.47102 0.0
H2152 H 0.94517 0.88029 0.52737 0.0
H2153 H 0.94185 0.88406 0.49879 0.0
H2154 H 0.98096 0.89291 0.45516 0.0
H2155 H 0.96001 0.90016 0.4739 0.0
H2156 H 0.04151 0.8564 0.5398 0.0
H2157 H 0.01827 0.85847 0.55738 0.0
H2158 H 0.047 0.84028 0.50928 0.0
H2159 H 0.04619 0.84812 0.48144 0.0
C2160 C 0.51867 0.1396 0.00263 0.0
C2161 C 0.51585 0.13417 0.97969 0.0
C2162 C 0.47672 0.12423 0.98734 0.0
C2163 C 0.47811 0.13498 0.0084 0.0
N2164 N 0.50132 0.15109 0.03729 0.0
N2165 N 0.4919 0.1209 0.95003 0.0
C2166 C 0.49944 0.14187 0.01647 0.0
C2167 C 0.49479 0.12629 0.97202 0.0
N2168 N 0.53956 0.14267 0.01134 0.0
N2169 N 0.45868 0.11132 0.9822 0.0
H2170 H 0.50503 0.12043 0.93864 0.0
H2171 H 0.47629 0.11802 0.94288 0.0
H2172 H 0.44685 0.10685 0.99406 0.0
H2173 H 0.45732 0.10219 0.96747 0.0
H2174 H 0.54274 0.144 0.02839 0.0
H2175 H 0.5541 0.14183 0.00192 0.0
H2176 H 0.51543 0.15965 0.04283 0.0
H2177 H 0.48845 0.15066 0.04898 0.0
C2178 C 0.49139 0.84832 0.99392 0.0
C2179 C 0.48355 0.86506 0.97896 0.0
C2180 C 0.51631 0.88814 0.98832 0.0
C2181 C 0.52353 0.87157 0.00364 0.0
N2182 N 0.5136 0.84001 0.02645 0.0
N2183 N 0.48624 0.90314 0.96566 0.0
C2184 C 0.50957 0.8531 0.00829 0.0
C2185 C 0.49514 0.88581 0.97753 0.0
N2186 N 0.48227 0.8274 0.99397 0.0
N2187 N 0.53006 0.90574 0.98357 0.0
H2188 H 0.47121 0.90201 0.95698 0.0
H2189 H 0.49285 0.91923 0.96585 0.0
H2190 H 0.54494 0.90859 0.99221 0.0
H2191 H 0.52726 0.91685 0.97048 0.0
H2192 H 0.48929 0.81398 0.00255 0.0
H2193 H 0.46905 0.82267 0.98387 0.0
H2194 H 0.50275 0.82752 0.03189 0.0
H2195 H 0.52629 0.84359 0.03765 0.0
C2196 C 0.15426 0.48173 0.01689 0.0
C2197 C 0.13306 0.47145 0.01478 0.0
C2198 C 0.11582 0.50353 0.03396 0.0
C2199 C 0.13694 0.51458 0.03437 0.0
N2200 N 0.17478 0.51608 0.02023 0.0
N2201 N 0.09304 0.47372 0.01821 0.0
C2202 C 0.15568 0.50421 0.02407 0.0
C2203 C 0.11361 0.48278 0.02228 0.0
N2204 N 0.1733 0.46988 0.01273 0.0
N2205 N 0.09817 0.51208 0.04566 0.0
H2206 H 0.09094 0.45825 0.01043 0.0
H2207 H 0.07811 0.48221 0.02102 0.0
H2208 H 0.0989 0.52702 0.05452 0.0
H2209 H 0.0832 0.50353 0.04802 0.0
H2210 H 0.18925 0.47575 0.01655 0.0
H2211 H 0.17313 0.45334 0.00762 0.0
H2212 H 0.18794 0.51017 0.01046 0.0
H2213 H 0.17647 0.53274 0.02455 0.0
C2214 C 0.86293 0.49378 0.97607 0.0
C2215 C 0.87467 0.5141 0.97942 0.0
C2216 C 0.88935 0.50013 0.01488 0.0
C2217 C 0.87565 0.4809 0.01275 0.0
N2218 N 0.85561 0.45587 0.98805 0.0
N2219 N 0.90651 0.53179 0.99622 0.0
C2220 C 0.86447 0.47651 0.99224 0.0
C2221 C 0.8904 0.51573 0.99695 0.0
N2222 N 0.84959 0.49148 0.9577 0.0
N2223 N 0.90072 0.50383 0.03431 0.0
H2224 H 0.90842 0.54225 0.98244 0.0
H2225 H 0.91958 0.53265 0.00765 0.0
H2226 H 0.90125 0.49213 0.04723 0.0
H2227 H 0.90871 0.51885 0.03797 0.0
H2228 H 0.83789 0.47879 0.95561 0.0
H2229 H 0.84991 0.50296 0.94465 0.0
H2230 H 0.84884 0.45111 0.97277 0.0
H2231 H 0.8575 0.44242 0.99883 0.0
C2232 C 0.4974 0.01696 0.63025 0.0
C2233 C 0.47469 0.01866 0.62395 0.0
C2234 C 0.47533 0.97891 0.61372 0.0
C2235 C 0.49604 0.97645 0.62508 0.0
N2236 N 0.52369 0.99343 0.64913 0.0
N2237 N 0.44158 0.00083 0.60947 0.0
C2238 C 0.50653 0.99559 0.63435 0.0
C2239 C 0.46353 0.9995 0.61548 0.0
N2240 N 0.51021 0.03557 0.63297 0.0
N2241 N 0.46714 0.96181 0.60097 0.0
H2242 H 0.43297 0.01592 0.60912 0.0
H2243 H 0.43179 0.98689 0.60585 0.0
H2244 H 0.47582 0.9469 0.59857 0.0
H2245 H 0.453 0.9633 0.59093 0.0
H2246 H 0.52735 0.03473 0.63594 0.0
H2247 H 0.50433 0.05149 0.62945 0.0
H2248 H 0.53066 0.0069 0.65772 0.0
H2249 H 0.5284 0.97802 0.65535 0.0
C2250 C 0.00125 0.48278 0.65618 0.0
C2251 C 0.99105 0.47285 0.63712 0.0
C2252 C 0.02403 0.48328 0.61483 0.0
C2253 C 0.03524 0.48973 0.63469 0.0
N2254 N 0.03541 0.49374 0.67475 0.0
N2255 N 0.99375 0.46239 0.59806 0.0
C2256 C 0.0241 0.48896 0.65549 0.0
C2257 C 0.00257 0.47299 0.61626 0.0
N2258 N 0.98882 0.48729 0.67477 0.0
N2259 N 0.03376 0.48725 0.59456 0.0
H2260 H 0.97777 0.45561 0.59764 0.0
H2261 H 0.00283 0.45919 0.58356 0.0
H2262 H 0.04961 0.49428 0.59292 0.0
H2263 H 0.02543 0.48533 0.57941 0.0
H2264 H 0.99467 0.49661 0.68826 0.0
H2265 H 0.97182 0.48406 0.67559 0.0
H2266 H 0.02892 0.49078 0.69064 0.0
H2267 H 0.05199 0.49899 0.67496 0.0
C2268 C 0.48338 0.99228 0.38283 0.0
C2269 C 0.48957 0.97823 0.36482 0.0
C2270 C 0.51433 0.00713 0.34992 0.0
C2271 C 0.50616 0.02217 0.36632 0.0
N2272 N 0.48719 0.02836 0.40128 0.0
N2273 N 0.51754 0.96852 0.33794 0.0
C2274 C 0.49205 0.01446 0.38381 0.0
C2275 C 0.50721 0.98451 0.35047 0.0
N2276 N 0.46907 0.98433 0.39872 0.0
N2277 N 0.52783 0.01469 0.33312 0.0
H2278 H 0.51364 0.95167 0.33985 0.0
H2279 H 0.53166 0.97147 0.3282 0.0
H2280 H 0.53353 0.03111 0.33223 0.0
H2281 H 0.53224 0.00509 0.31929 0.0
H2282 H 0.46148 0.99406 0.41095 0.0
H2283 H 0.4653 0.96738 0.39991 0.0
H2284 H 0.47785 0.0238 0.41519 0.0
H2285 H 0.49365 0.04449 0.40248 0.0
C2286 C 0.00156 0.48717 0.37834 0.0
C2287 C 0.01684 0.50038 0.36559 0.0
C2288 C 0.98694 0.52671 0.35661 0.0
C2289 C 0.97151 0.51306 0.36841 0.0
N2290 N 0.96576 0.48552 0.39717 0.0
N2291 N 0.02581 0.53693 0.35157 0.0
C2292 C 0.97939 0.49499 0.38145 0.0
C2293 C 0.01006 0.52168 0.35791 0.0
N2294 N 0.00734 0.46669 0.38654 0.0
N2295 N 0.97967 0.54327 0.34273 0.0
H2296 H 0.04291 0.53363 0.3529 0.0
H2297 H 0.02196 0.55343 0.34754 0.0
H2298 H 0.96288 0.5468 0.34011 0.0
H2299 H 0.99028 0.55213 0.33214 0.0
H2300 H 0.99548 0.45508 0.39182 0.0
H2301 H 0.02358 0.46087 0.38809 0.0
H2302 H 0.97126 0.47376 0.40876 0.0
H2303 H 0.94959 0.49121 0.40025 0.0
C2304 C 0.63872 0.52686 0.01052 0.0
C2305 C 0.62806 0.52394 0.98936 0.0
C2306 C 0.61474 0.48716 0.00114 0.0
C2307 C 0.62698 0.48896 0.02141 0.0
N2308 N 0.64396 0.51388 0.04839 0.0
N2309 N 0.59553 0.50752 0.97212 0.0
C2310 C 0.63684 0.50986 0.0271 0.0
C2311 C 0.61282 0.50599 0.98692 0.0
N2312 N 0.65056 0.54584 0.01511 0.0
N2313 N 0.60503 0.46741 0.99522 0.0
H2314 H 0.59179 0.52236 0.96379 0.0
H2315 H 0.58309 0.4954 0.97075 0.0
H2316 H 0.60495 0.45359 0.00568 0.0
H2317 H 0.59827 0.46455 0.97942 0.0
H2318 H 0.66261 0.54679 0.02763 0.0
H2319 H 0.64772 0.561 0.00711 0.0
H2320 H 0.64872 0.52957 0.05422 0.0
H2321 H 0.64304 0.50219 0.06107 0.0
C2322 C 0.51048 0.63335 0.98611 0.0
C2323 C 0.48734 0.62945 0.99004 0.0
C2324 C 0.49622 0.61881 0.02883 0.0
C2325 C 0.51846 0.62618 0.02563 0.0
N2326 N 0.54848 0.62915 0.99928 0.0
N2327 N 0.45798 0.61817 0.01533 0.0
C2328 C 0.52609 0.63003 0.00362 0.0
C2329 C 0.48019 0.62189 0.01145 0.0
N2330 N 0.51756 0.64196 0.96627 0.0
N2331 N 0.49085 0.60728 0.04765 0.0
H2332 H 0.44603 0.61851 0.00272 0.0
H2333 H 0.45117 0.6158 0.03116 0.0
H2334 H 0.50304 0.60105 0.05832 0.0
H2335 H 0.47504 0.60097 0.05092 0.0
H2336 H 0.5333 0.64909 0.96406 0.0
H2337 H 0.50771 0.64229 0.95203 0.0
H2338 H 0.55524 0.62967 0.98324 0.0
H2339 H 0.56 0.62495 0.01164 0.0
C2340 C 0.38626 0.52252 0.01111 0.0
C2341 C 0.36606 0.53471 0.01385 0.0
C2342 C 0.34616 0.50799 0.99066 0.0
C2343 C 0.36596 0.49531 0.98771 0.0
N2344 N 0.40591 0.49218 0.99221 0.0
N2345 N 0.33254 0.54552 0.99398 0.0
C2346 C 0.38648 0.50324 0.99686 0.0
C2347 C 0.34774 0.52958 -0.00017 0.0
N2348 N 0.40517 0.52987 0.02155 0.0
N2349 N 0.32564 0.49955 0.98535 0.0
H2350 H 0.33523 0.56245 0.99701 0.0
H2351 H 0.31957 0.54241 0.98275 0.0
H2352 H 0.32311 0.48321 0.98007 0.0
H2353 H 0.31085 0.50808 0.98892 0.0
H2354 H 0.42016 0.52111 0.02199 0.0
H2355 H 0.40593 0.54537 0.02951 0.0
H2356 H 0.42168 0.49768 0.99699 0.0
H2357 H 0.40638 0.47763 0.98265 0.0
C2358 C 0.50609 0.34694 0.0067 0.0
C2359 C 0.49263 0.36477 0.01455 0.0
C2360 C 0.50247 0.38684 0.98145 0.0
C2361 C 0.51118 0.36723 0.97161 0.0
N2362 N 0.52704 0.33056 0.97601 0.0
N2363 N 0.48255 0.40391 0.01231 0.0
C2364 C 0.51508 0.34792 0.98474 0.0
C2365 C 0.49261 0.38562 0.00307 0.0
N2366 N 0.51033 0.32931 0.02056 0.0
N2367 N 0.50425 0.40663 0.97021 0.0
H2368 H 0.47808 0.40489 0.02906 0.0
H2369 H 0.47877 0.41842 0.00354 0.0
H2370 H 0.51231 0.40781 0.95481 0.0
H2371 H 0.49973 0.4221 0.97672 0.0
H2372 H 0.52071 0.31595 0.01664 0.0
H2373 H 0.5046 0.32896 0.03702 0.0
H2374 H 0.52836 0.31486 0.9833 0.0
H2375 H 0.53627 0.33215 0.96135 0.0
C2376 C 0.98607 0.64169 0.49057 0.0
C2377 C 0.9832 0.63453 0.51292 0.0
C2378 C 0.01958 0.61577 0.51171 0.0
C2379 C 0.02417 0.62627 0.49094 0.0
N2380 N 0.01144 0.649 0.45997 0.0
N2381 N 0.99675 0.61476 0.54523 0.0
C2382 C 0.00714 0.63872 0.4799 0.0
C2383 C -0.00035 0.6212 0.5235 0.0
N2384 N 0.96855 0.65139 0.4796 0.0
N2385 N 0.03437 0.6005 0.52004 0.0
H2386 H 0.98208 0.61781 0.55415 0.0
H2387 H 0.00924 0.60747 0.55488 0.0
H2388 H 0.04887 0.59597 0.51152 0.0
H2389 H 0.03135 0.59079 0.53415 0.0
H2390 H 0.96852 0.65478 0.46255 0.0
H2391 H 0.95315 0.65429 0.48725 0.0
H2392 H 0.00107 0.661 0.45286 0.0
H2393 H 0.02581 0.64619 0.45064 0.0
C2394 C 0.00342 0.38823 0.52538 0.0
C2395 C 0.02036 0.37364 0.51751 0.0
C2396 C 0.99322 0.35416 0.49449 0.0
C2397 C 0.97633 0.36941 0.50074 0.0
N2398 N 0.96597 0.40318 0.52033 0.0
N2399 N 0.03234 0.35083 0.48665 0.0
C2400 C 0.98162 0.38726 0.51561 0.0
C2401 C 0.01559 0.35922 0.49951 0.0
N2402 N 0.00814 0.40268 0.54235 0.0
N2403 N 0.98802 0.33386 0.48565 0.0
H2404 H 0.04845 0.35719 0.48776 0.0
H2405 H 0.02934 0.3408 0.4727 0.0
H2406 H 0.97161 0.32841 0.48402 0.0
H2407 H 6e-05 0.32163 0.48253 0.0
H2408 H 0.99603 0.41167 0.55105 0.0
H2409 H 0.02447 0.40535 0.5478 0.0
H2410 H 0.96937 0.41758 0.52949 0.0
H2411 H 0.94985 0.40272 0.51382 0.0
C2412 C 0.66052 0.00651 0.49071 0.0
C2413 C 0.6396 0.01695 0.49435 0.0
C2414 C 0.6203 0.98309 0.48137 0.0
C2415 C 0.64141 0.9725 0.47818 0.0
N2416 N 0.68035 0.97152 0.48842 0.0
N2417 N 0.59971 0.01326 0.49899 0.0
C2418 C 0.66114 0.98346 0.48546 0.0
C2419 C 0.61952 0.00459 0.49164 0.0
N2420 N 0.67988 0.01851 0.49221 0.0
N2421 N 0.60107 0.97342 0.47373 0.0
H2422 H 0.59839 0.029 0.50629 0.0
H2423 H 0.58495 0.00404 0.49973 0.0
H2424 H 0.6002 0.95738 0.4672 0.0
H2425 H 0.58591 0.98192 0.47275 0.0
H2426 H 0.69535 0.01224 0.4872 0.0
H2427 H 0.68034 0.03524 0.49692 0.0
H2428 H 0.69476 0.97816 0.49559 0.0
H2429 H 0.68091 0.95427 0.48634 0.0
C2430 C 0.37314 0.98725 0.49916 0.0
C2431 C 0.36429 0.98846 0.52115 0.0
C2432 C 0.35509 0.02803 0.51367 0.0
C2433 C 0.35884 0.02451 0.49058 0.0
N2434 N 0.36617 0.99802 0.46106 0.0
N2435 N 0.34594 0.01173 0.54926 0.0
C2436 C 0.36634 0.00333 0.4832 0.0
C2437 C 0.3551 0.00939 0.52845 0.0
N2438 N 0.38867 0.9716 0.49348 0.0
N2439 N 0.35136 0.04908 0.52159 0.0
H2440 H 0.34788 0.00027 0.56214 0.0
H2441 H 0.33588 0.02523 0.55371 0.0
H2442 H 0.35091 0.06299 0.51127 0.0
H2443 H 0.35087 0.05299 0.53855 0.0
H2444 H 0.39592 0.97097 0.47763 0.0
H2445 H 0.39701 0.96206 0.50537 0.0
H2446 H 0.36958 0.9819 0.45537 0.0
H2447 H 0.36035 0.00897 0.44884 0.0
C2448 C 0.14326 0.50451 0.11394 0.0
C2449 C 0.13471 0.52357 0.12485 0.0
C2450 C 0.10416 0.50175 0.14047 0.0
C2451 C 0.1097 0.48456 0.12519 0.0
N2452 N 0.13577 0.46679 0.10069 0.0
N2453 N 0.11149 0.53988 0.15288 0.0
C2454 C 0.13017 0.4848 0.11353 0.0
C2455 C 0.11689 0.52176 0.14014 0.0
N2456 N 0.16313 0.50615 0.10289 0.0
N2457 N 0.0858 0.49932 0.1538 0.0
H2458 H 0.12104 0.55448 0.15242 0.0
H2459 H 0.09825 0.54045 0.16411 0.0
H2460 H 0.07639 0.48465 0.15396 0.0
H2461 H 0.08027 0.51122 0.16519 0.0
H2462 H 0.17088 0.49297 0.09464 0.0
H2463 H 0.1725 0.52087 0.10328 0.0
H2464 H 0.14956 0.46619 0.09012 0.0
H2465 H 0.12614 0.45223 0.10072 0.0
C2466 C 0.52428 0.11547 0.09827 0.0
C2467 C 0.52711 0.11681 0.12168 0.0
C2468 C 0.48874 0.13028 0.12524 0.0
C2469 C 0.48492 0.125 0.10251 0.0
N2470 N 0.49895 0.11009 0.0676 0.0
N2471 N 0.51655 0.13974 0.1529 0.0
C2472 C 0.50259 0.11665 0.08912 0.0
C2473 C 0.51056 0.12819 0.13419 0.0
N2474 N 0.54247 0.117 0.08469 0.0
N2475 N 0.4713 0.13716 0.13824 0.0
H2476 H 0.53331 0.14167 0.15737 0.0
H2477 H 0.5056 0.14991 0.16183 0.0
H2478 H 0.45508 0.13856 0.13197 0.0
H2479 H 0.47259 0.13939 0.15546 0.0
H2480 H 0.54146 0.11815 0.06734 0.0
H2481 H 0.55809 0.12083 0.09131 0.0
H2482 H 0.51113 0.102 0.0581 0.0
H2483 H 0.48349 0.11108 0.05974 0.0
C2484 C 0.8577 0.51983 0.10685 0.0
C2485 C 0.87252 0.52367 0.12474 0.0
C2486 C 0.87599 0.48354 0.13141 0.0
C2487 C 0.86171 0.47972 0.11309 0.0
N2488 N 0.834 0.49325 0.08747 0.0
N2489 N 0.89105 0.51031 0.15778 0.0
C2490 C 0.85086 0.49765 0.10216 0.0
C2491 C 0.88003 0.50582 0.13835 0.0
N2492 N 0.85099 0.53735 0.0939 0.0
N2493 N 0.88648 0.46591 0.14134 0.0
H2494 H 0.89422 0.52658 0.16308 0.0
H2495 H 0.89541 0.49815 0.16942 0.0
H2496 H 0.88314 0.44939 0.13685 0.0
H2497 H 0.89921 0.46764 0.15307 0.0
H2498 H 0.84206 0.53548 0.07909 0.0
H2499 H 0.85548 0.55382 0.09752 0.0
H2500 H 0.82416 0.50557 0.08015 0.0
H2501 H 0.82874 0.47698 0.08404 0.0
C2502 C 0.51489 0.91213 0.13311 0.0
C2503 C 0.49546 0.89978 0.13922 0.0
C2504 C 0.51716 0.86533 0.13692 0.0
C2505 C 0.53408 0.87717 0.12564 0.0
N2506 N 0.55518 0.91094 0.12916 0.0
N2507 N 0.47786 0.86392 0.14549 0.0
C2508 C 0.53495 0.90049 0.12844 0.0
C2509 C 0.49666 0.87616 0.14134 0.0
N2510 N 0.51413 0.93478 0.13111 0.0
N2511 N 0.52113 0.84398 0.14375 0.0
H2512 H 0.46201 0.87103 0.14674 0.0
H2513 H 0.47766 0.84651 0.14521 0.0
H2514 H 0.53675 0.83654 0.14134 0.0
H2515 H 0.51002 0.83491 0.15364 0.0
H2516 H 0.52716 0.94419 0.12437 0.0
H2517 H 0.49988 0.94394 0.13458 0.0
H2518 H 0.55715 0.92785 0.13283 0.0
H2519 H 0.57002 0.90176 0.12924 0.0
C2520 C 0.16383 0.52396 0.87612 0.0
C2521 C 0.1436 0.53515 0.87392 0.0
C2522 C 0.12191 0.50595 0.89032 0.0
C2523 C 0.14233 0.49534 0.89664 0.0
N2524 N 0.18204 0.49072 0.89091 0.0
N2525 N 0.10747 0.53727 0.86579 0.0
C2526 C 0.16323 0.50316 0.88773 0.0
C2527 C 0.12378 0.52556 0.8775 0.0
N2528 N 0.18274 0.53309 0.86738 0.0
N2529 N 0.10168 0.49846 0.8976 0.0
H2530 H 0.11674 0.56795 0.84511 0.0
H2531 H 0.09143 0.53064 0.86898 0.0
H2532 H 0.09988 0.48424 0.90742 0.0
H2533 H 0.08677 0.50683 0.89435 0.0
H2534 H 0.19844 0.52567 0.86826 0.0
H2535 H 0.18221 0.54845 0.8591 0.0
H2536 H 0.19787 0.49549 0.88554 0.0
H2537 H 0.18138 0.47498 0.89842 0.0
C2538 C 0.51911 0.10957 0.86852 0.0
C2539 C 0.52049 0.127 0.8843 0.0
C2540 C 0.47977 0.12877 0.88689 0.0
C2541 C 0.47847 0.11098 0.87143 0.0
N2542 N 0.49683 0.08634 0.84505 0.0
N2543 N 0.50303 0.15713 0.9042 0.0
C2544 C 0.49797 0.10213 0.86138 0.0
C2545 C 0.50101 0.13788 0.89214 0.0
N2546 N 0.53807 0.09991 0.86037 0.0
N2547 N 0.46079 0.13616 0.89718 0.0
H2548 H 0.51854 0.16433 0.90749 0.0
H2549 H 0.48954 0.16692 0.90914 0.0
H2550 H 0.44501 0.12975 0.89339 0.0
H2551 H 0.46076 0.14752 0.91035 0.0
H2552 H 0.53768 0.08671 0.84895 0.0
H2553 H 0.55397 0.10526 0.86507 0.0
H2554 H 0.48184 0.0802 0.83854 0.0
H2555 H 0.48184 0.0802 0.83854 0.0
C2556 C 0.87397 0.48629 0.84715 0.0
C2557 C 0.88785 0.48108 0.86599 0.0
C2558 C 0.87313 0.51362 0.8847 0.0
C2559 C 0.8651 0.52096 0.86518 0.0
N2560 N 0.84859 0.51351 0.8298 0.0
N2561 N 0.89764 0.48866 0.90471 0.0
C2562 C 0.86217 0.507 0.8468 0.0
C2563 C 0.8861 0.49406 0.88591 0.0
N2564 N 0.87333 0.47183 0.82955 0.0
N2565 N 0.86454 0.5267 0.90191 0.0
H2566 H 0.90704 0.47412 0.90593 0.0
H2567 H 0.89801 0.49887 0.91882 0.0
H2568 H 0.841 0.55574 0.89428 0.0
H2569 H 0.87093 0.52158 0.91757 0.0
H2570 H 0.86467 0.47488 0.8148 0.0
H2571 H 0.88146 0.4564 0.83021 0.0
H2572 H 0.84518 0.50375 0.81582 0.0
H2573 H 0.84052 0.52899 0.83027 0.0
C2574 C 0.50069 0.89004 0.86085 0.0
C2575 C 0.51992 0.88258 0.87242 0.0
C2576 C 0.49711 0.85704 0.89452 0.0
C2577 C 0.47771 0.86705 0.88549 0.0
N2578 N 0.46022 0.89277 0.86029 0.0
N2579 N 0.5372 0.85957 0.90027 0.0
C2580 C 0.47927 0.8833 0.86847 0.0
C2581 C 0.51837 0.86604 0.88915 0.0
N2582 N 0.5031 0.90341 0.84254 0.0
N2583 N 0.49499 0.83871 0.90788 0.0
H2584 H 0.55301 0.86554 0.89598 0.0
H2585 H 0.53706 0.84932 0.91431 0.0
H2586 H 0.47947 0.83143 0.91109 0.0
H2587 H 0.50846 0.82955 0.91395 0.0
H2588 H 0.48991 0.90816 0.83225 0.0
H2589 H 0.51871 0.90834 0.83658 0.0
H2590 H 0.46004 0.90665 0.84982 0.0
H2591 H 0.4444 0.88712 0.86488 0.0
C2592 C 0.10589 0.13098 0.47312 0.0
C2593 C 0.12151 0.11339 0.47135 0.0
C2594 C 0.12731 0.11349 0.51172 0.0
C2595 C 0.11185 0.13121 0.51348 0.0
N2596 N 0.08994 0.16013 0.49635 0.0
N2597 N 0.15076 0.09106 0.48739 0.0
C2598 C 0.10235 0.14111 0.49423 0.0
C2599 C 0.13344 0.10566 0.49023 0.0
N2600 N 0.09372 0.13711 0.45483 0.0
N2601 N 0.13532 0.1037 0.53069 0.0
H2602 H 0.15565 0.08532 0.47167 0.0
H2603 H 0.16134 0.08608 0.50025 0.0
H2604 H 0.13142 0.1097 0.5466 0.0
H2605 H 0.14475 0.08908 0.53071 0.0
H2606 H 0.08035 0.14821 0.45543 0.0
H2607 H 0.09611 0.12985 0.43915 0.0
H2608 H 0.08393 0.16926 0.48283 0.0
H2609 H 0.08724 0.16784 0.51175 0.0
C2610 C 0.87528 0.09212 0.4939 0.0
C2611 C 0.86608 0.10768 0.50938 0.0
C2612 C 0.8676 0.1368 0.48073 0.0
C2613 C 0.87983 0.122 0.46697 0.0
N2614 N 0.87946 0.08387 0.45471 0.0
N2615 N 0.85214 0.14449 0.51752 0.0
C2616 C 0.87916 0.09901 0.47171 0.0
C2617 C 0.86134 0.12988 0.50257 0.0
N2618 N 0.88049 0.07086 0.50017 0.0
N2619 N 0.86239 0.15742 0.47254 0.0
H2620 H 0.84829 0.13991 0.53389 0.0
H2621 H 0.84942 0.16133 0.51429 0.0
H2622 H 0.86665 0.16192 0.45622 0.0
H2623 H 0.85273 0.16918 0.48093 0.0
H2624 H 0.88944 0.05998 0.48991 0.0
H2625 H 0.87721 0.06444 0.51593 0.0
H2626 H 0.87761 0.06673 0.45717 0.0
H2627 H 0.87721 0.08889 0.43819 0.0
C2628 C 0.86532 0.85885 0.51559 0.0
C2629 C 0.87293 0.87156 0.53397 0.0
C2630 C 0.85926 0.90542 0.51614 0.0
C2631 C 0.85831 0.89351 0.4957 0.0
N2632 N 0.85764 0.85852 0.47591 0.0
N2633 N 0.8612 0.9024 0.55655 0.0
C2634 C 0.86012 0.86999 0.49546 0.0
C2635 C 0.86531 0.89378 0.53589 0.0
N2636 N 0.86176 0.8365 0.5181 0.0
N2637 N 0.8545 0.92769 0.5165 0.0
H2638 H 0.86245 0.89246 0.57083 0.0
H2639 H 0.85356 0.91778 0.55919 0.0
H2640 H 0.84908 0.93629 0.50234 0.0
H2641 H 0.85678 0.93773 0.5305 0.0
H2642 H 0.85461 0.82648 0.50579 0.0
H2643 H 0.86384 0.82877 0.53362 0.0
H2644 H 0.8609 0.84148 0.47443 0.0
H2645 H 0.8537 0.86644 0.46089 0.0
C2646 C 0.13886 0.8886 0.50218 0.0
C2647 C 0.12854 0.88187 0.52235 0.0
C2648 C 0.10596 0.85468 0.50237 0.0
C2649 C 0.11361 0.86367 0.48191 0.0
N2650 N 0.13746 0.88897 0.46168 0.0
N2651 N 0.10369 0.85747 0.54238 0.0
C2652 C 0.13046 0.88031 0.48159 0.0
C2653 C 0.11267 0.86448 0.52265 0.0
N2654 N 0.15674 0.90278 0.50293 0.0
N2655 N 0.09187 0.83685 0.50284 0.0
H2656 H 0.10828 0.8644 0.55771 0.0
H2657 H 0.09164 0.84486 0.54317 0.0
H2658 H 0.08659 0.82839 0.48852 0.0
H2659 H 0.08659 0.82839 0.48852 0.0
H2660 H 0.16634 0.90705 0.48908 0.0
H2661 H 0.16314 0.90894 0.51792 0.0
H2662 H 0.14792 0.9028 0.46026 0.0
H2663 H 0.13183 0.88305 0.44633 0.0
C2664 C 0.61647 0.9927 0.6078 0.0
C2665 C 0.61806 0.98078 0.62838 0.0
C2666 C 0.65354 0.00011 0.63704 0.0
C2667 C 0.64981 0.01222 0.61758 0.0
N2668 N 0.63949 0.01719 0.58238 0.0
N2669 N 0.63929 0.97068 0.66128 0.0
C2670 C 0.6341 0.00724 0.60263 0.0
C2671 C 0.63714 0.98368 0.6427 0.0
N2672 N 0.59798 0.99148 0.59458 0.0
N2673 N 0.67222 0.00419 0.64933 0.0
H2674 H 0.6281 0.95778 0.66486 0.0
H2675 H 0.65229 0.97219 0.6727 0.0
H2676 H 0.68365 0.01644 0.64438 0.0
H2677 H 0.67628 0.99575 0.66396 0.0
H2678 H 0.59597 0.00121 0.58029 0.0
H2679 H 0.58397 0.98207 0.59877 0.0
H2680 H 0.62725 0.01362 0.57009 0.0
H2681 H 0.67092 0.03853 0.57894 0.0
C2682 C 0.99014 0.63115 0.63417 0.0
C2683 C 0.97236 0.62036 0.62293 0.0
C2684 C 0.99063 0.58446 0.6276 0.0
C2685 C 0.01032 0.5958 0.63419 0.0
N2686 N 0.02897 0.62946 0.64567 0.0
N2687 N 0.95043 0.587 0.62582 0.0
C2688 C 0.01008 0.61906 0.63826 0.0
C2689 C 0.97087 0.5969 0.62449 0.0
N2690 N 0.98687 0.65192 0.64292 0.0
N2691 N 0.99096 0.56196 0.62393 0.0
H2692 H 0.93598 0.59667 0.62721 0.0
H2693 H 0.9482 0.56997 0.62869 0.0
H2694 H 0.00538 0.55235 0.62587 0.0
H2695 H 0.9774 0.5533 0.61722 0.0
H2696 H 0.99857 0.66018 0.65281 0.0
H2697 H 0.97116 0.65953 0.64242 0.0
H2698 H 0.03045 0.64676 0.64696 0.0
H2699 H 0.04365 0.62071 0.64915 0.0
C2700 C 0.38426 0.00624 0.59212 0.0
C2701 C 0.38005 0.98798 0.60669 0.0
C2702 C 0.38821 0.01246 0.63857 0.0
C2703 C 0.38809 0.03117 0.62396 0.0
N2704 N 0.38131 0.04616 0.58744 0.0
N2705 N 0.37804 0.97363 0.64417 0.0
C2706 C 0.38434 0.02805 0.60096 0.0
C2707 C 0.3818 0.99117 0.63011 0.0
N2708 N 0.38961 0.00309 0.57022 0.0
N2709 N 0.39601 0.01455 0.6599 0.0
H2710 H 0.37577 0.95733 0.63839 0.0
H2711 H 0.37641 0.97545 0.66141 0.0
H2712 H 0.40176 0.02956 0.66652 0.0
H2713 H 0.39869 0.00097 0.67043 0.0
H2714 H 0.3953 0.01604 0.56003 0.0
H2715 H 0.39046 0.98764 0.56256 0.0
H2716 H 0.37701 0.04474 0.57062 0.0
H2717 H 0.38092 0.06245 0.59369 0.0
C2718 C 0.00585 0.39251 0.6379 0.0
C2719 C 0.98671 0.3826 0.62817 0.0
C2720 C 0.01056 0.35851 0.60539 0.0
C2721 C 0.02937 0.37097 0.6125 0.0
N2722 N 0.04556 0.40024 0.63462 0.0
N2723 N 0.97015 0.35644 0.60262 0.0
C2724 C 0.02724 0.38798 0.62872 0.0
C2725 C 0.98886 0.3654 0.6121 0.0
N2726 N 0.00336 0.40588 0.6562 0.0
N2727 N 0.01364 0.34007 0.5923 0.0
H2728 H 0.95409 0.36071 0.60783 0.0
H2729 H 0.97045 0.3457 0.58893 0.0
H2730 H 0.02948 0.33477 0.58735 0.0
H2731 H 0.00089 0.32908 0.58793 0.0
H2732 H 0.01668 0.41265 0.66511 0.0
H2733 H 0.98782 0.40823 0.66376 0.0
H2734 H 0.04479 0.41447 0.64461 0.0
H2735 H 0.06147 0.39681 0.62835 0.0
C2736 C 0.5976 0.9748 0.3867 0.0
C2737 C 0.62029 0.97248 0.39277 0.0
C2738 C 0.62685 0.01224 0.38623 0.0
C2739 C 0.60407 0.0146 0.38059 0.0
N2740 N 0.56667 -0.00024 0.3791 0.0
N2741 N 0.65567 0.98886 0.40251 0.0
C2742 C 0.58906 0.99634 0.38211 0.0
C2743 C 0.63473 0.99121 0.39378 0.0
N2744 N 0.58457 0.95619 0.38456 0.0
N2745 N 0.64091 0.03001 0.38361 0.0
H2746 H 0.66185 0.97352 0.408 0.0
H2747 H 0.66634 0.00222 0.40573 0.0
H2748 H 0.63516 0.04576 0.37879 0.0
H2749 H 0.65821 0.02896 0.38514 0.0
H2750 H 0.56843 0.95625 0.37809 0.0
H2751 H 0.59066 0.94022 0.38777 0.0
H2752 H 0.55454 0.98761 0.38193 0.0
H2753 H 0.55993 0.01537 0.37543 0.0
C2754 C 0.00114 0.60652 0.40333 0.0
C2755 C 0.01413 0.62268 0.39173 0.0
C2756 C 0.98359 0.62658 0.36497 0.0
C2757 C 0.97286 0.60761 0.37417 0.0
N2758 N 0.97809 0.57442 0.39694 0.0
N2759 N 0.01973 0.6422 0.35672 0.0
C2760 C 0.98345 0.59598 0.39191 0.0
C2761 C 0.00597 0.63111 0.37111 0.0
N2762 N 0.00464 0.6018 0.42533 0.0
N2763 N 0.97249 0.64039 0.35067 0.0
H2764 H 0.03692 0.64345 0.3593 0.0
H2765 H 0.01451 0.64734 0.34091 0.0
H2766 H 0.95558 0.63831 0.34697 0.0
H2767 H 0.97949 0.6552 0.34472 0.0
H2768 H 0.99436 0.59084 0.43417 0.0
H2769 H 0.01551 0.61093 0.43534 0.0
H2770 H 0.98667 0.56535 0.4091 0.0
H2771 H 0.96761 0.56473 0.38699 0.0
C2772 C 0.39004 0.00757 0.40242 0.0
C2773 C 0.38018 0.02395 0.3885 0.0
C2774 C 0.38805 0.00061 0.35584 0.0
C2775 C 0.39443 0.98304 0.37034 0.0
N2776 N 0.39569 0.96808 0.40758 0.0
N2777 N 0.36859 0.03605 0.3521 0.0
C2778 C 0.39389 0.98608 0.39369 0.0
C2779 C 0.37886 0.02046 0.36516 0.0
N2780 N 0.39586 0.01236 0.42392 0.0
N2781 N 0.39143 0.99858 0.3334 0.0
H2782 H 0.36276 0.05116 0.35859 0.0
H2783 H 0.36497 0.03352 0.33527 0.0
H2784 H 0.39845 0.98431 0.32631 0.0
H2785 H 0.38896 0.0116 0.32213 0.0
H2786 H 0.40548 0.00153 0.43359 0.0
H2787 H 0.39279 0.02764 0.43157 0.0
H2788 H 0.39355 0.9692 0.42483 0.0
H2789 H 0.39667 0.95173 0.40162 0.0
C2790 C 0.99793 0.37582 0.34612 0.0
C2791 C 0.00414 0.39198 0.36272 0.0
C2792 C 0.9761 0.37666 0.38738 0.0
C2793 C 0.96823 0.36409 0.37057 0.0
N2794 N 0.97318 0.34451 0.33639 0.0
N2795 N 0.99891 0.40728 0.40008 0.0
C2796 C 0.97957 0.36121 0.35044 0.0
C2797 C 0.99335 0.39221 0.38397 0.0
N2798 N 0.00974 0.37459 0.32666 0.0
N2799 N 0.96821 0.3683 0.40759 0.0
H2800 H 0.01165 0.41891 0.39808 0.0
H2801 H 0.98999 0.40884 0.41496 0.0
H2802 H 0.94606 0.3372 0.40833 0.0
H2803 H 0.97386 0.37808 0.42123 0.0
H2804 H 0.00552 0.36417 0.31341 0.0
H2805 H 0.02417 0.38403 0.324 0.0
H2806 H 0.9813 0.34064 0.32151 0.0
H2807 H 0.95955 0.3343 0.34028 0.0
C2808 C 0.61004 0.59394 0.00035 0.0
C2809 C 0.61237 0.60819 0.9815 0.0
C2810 C 0.60495 0.6404 0.00578 0.0
C2811 C 0.60696 0.62625 0.02468 0.0
N2812 N 0.61584 0.59037 0.0401 0.0
N2813 N 0.61163 0.64524 0.96609 0.0
C2814 C 0.61118 0.60331 0.0219 0.0
C2815 C 0.60977 0.63159 0.98424 0.0
N2816 N 0.60504 0.57187 0.99806 0.0
N2817 N 0.59706 0.66166 0.00822 0.0
H2818 H 0.613 0.63896 0.94987 0.0
H2819 H 0.61255 0.66259 0.96725 0.0
H2820 H 0.59272 0.6684 0.02366 0.0
H2821 H 0.59304 0.67195 0.99478 0.0
H2822 H 0.60128 0.56163 0.01165 0.0
H2823 H 0.60111 0.56448 0.98296 0.0
H2824 H 0.62053 0.57364 0.03888 0.0
H2825 H 0.61717 0.59707 0.05616 0.0
C2826 C 0.36811 0.62402 0.98569 0.0
C2827 C 0.38715 0.63793 0.98515 0.0
C2828 C 0.38702 0.64059 0.02592 0.0
C2829 C 0.36824 0.62629 0.02643 0.0
N2830 N 0.33859 0.60729 0.00643 0.0
N2831 N 0.41136 0.6641 0.00351 0.0
C2832 C 0.35788 0.61929 0.00633 0.0
C2833 C 0.39556 0.64771 0.00497 0.0
N2834 N 0.36006 0.6146 0.96653 0.0
N2835 N 0.3971 0.64649 0.04551 0.0
H2836 H 0.4171 0.67004 0.98816 0.0
H2837 H 0.4172 0.67313 0.01718 0.0
H2838 H 0.39053 0.64197 0.06103 0.0
H2839 H 0.41234 0.65484 0.04637 0.0
H2840 H 0.34622 0.60397 0.96644 0.0
H2841 H 0.36759 0.61693 0.95099 0.0
H2842 H 0.32973 0.60334 0.02091 0.0
H2843 H 0.32973 0.60334 0.02091 0.0
C2844 C 0.37319 0.34645 0.99492 0.0
C2845 C 0.37442 0.3551 0.01678 0.0
C2846 C 0.35054 0.38588 0.0061 0.0
C2847 C 0.35784 0.38234 0.98395 0.0
N2848 N 0.36874 0.35626 0.95565 0.0
N2849 N 0.3525 0.37324 0.04479 0.0
C2850 C 0.36575 0.361 0.97771 0.0
C2851 C 0.3583 0.3711 0.02293 0.0
N2852 N 0.38267 0.32622 0.99073 0.0
N2853 N 0.33878 0.40475 0.0109 0.0
H2854 H 0.35854 0.36209 0.05675 0.0
H2855 H 0.34068 0.38462 0.05059 0.0
H2856 H 0.33359 0.4155 0.99816 0.0
H2857 H 0.33436 0.40963 0.027 0.0
H2858 H 0.38277 0.3186 0.9751 0.0
H2859 H 0.38948 0.3168 0.00376 0.0
H2860 H 0.37609 0.34165 0.94976 0.0
H2861 H 0.36345 0.36734 0.94327 0.0
C2862 C 0.62913 0.36415 0.00904 0.0
C2863 C 0.61828 0.38329 0.01797 0.0
C2864 C 0.58839 0.37768 0.99091 0.0
C2865 C 0.6022 0.36304 0.97856 0.0
N2866 N 0.63743 0.34372 0.9752 0.0
N2867 N 0.58859 0.41087 0.01306 0.0
C2868 C 0.62304 0.35642 0.9875 0.0
C2869 C 0.598 0.39074 0.00797 0.0
N2870 N 0.64492 0.35321 0.02129 0.0
N2871 N 0.56605 0.37885 0.98665 0.0
H2872 H 0.5959 0.42262 0.02345 0.0
H2873 H 0.57478 0.41714 0.00447 0.0
H2874 H 0.55834 0.36808 0.97538 0.0
H2875 H 0.55508 0.38825 0.99641 0.0
H2876 H 0.65222 0.33828 0.01605 0.0
H2877 H 0.64858 0.35769 0.03774 0.0
H2878 H 0.65364 0.34011 0.98048 0.0
H2879 H 0.63395 0.33867 0.9589 0.0
C2880 C 0.09174 0.39884 0.06123 0.0
C2881 C 0.06812 0.39665 0.06191 0.0
C2882 C 0.06808 0.38498 0.02261 0.0
C2883 C 0.09177 0.38568 0.02251 0.0
N2884 N 0.1264 0.38948 0.04269 0.0
N2885 N 0.03373 0.38527 0.04437 0.0
C2886 C 0.10364 0.39123 0.04221 0.0
C2887 C 0.0562 0.38905 0.04288 0.0
N2888 N 0.10272 0.40946 0.07825 0.0
N2889 N 0.05707 0.38097 0.00303 0.0
H2890 H 0.02457 0.38862 0.05882 0.0
H2891 H 0.0244 0.37763 0.03183 0.0
H2892 H 0.06551 0.37692 0.9883 0.0
H2893 H 0.03986 0.38263 0.00113 0.0
H2894 H 0.11954 0.41391 0.07753 0.0
H2895 H 0.0946 0.41596 0.09222 0.0
H2896 H 0.13576 0.39079 0.0573 0.0
H2897 H 0.13592 0.38496 0.02886 0.0
C2898 C 0.60867 0.08109 0.03116 0.0
C2899 C 0.60495 0.10437 0.02968 0.0
C2900 C 0.60053 0.1066 0.07018 0.0
C2901 C 0.60196 0.08288 0.07154 0.0
N2902 N 0.60523 0.04713 0.053 0.0
N2903 N 0.59308 0.13868 0.04669 0.0
C2904 C 0.60512 0.06994 0.05187 0.0
C2905 C 0.5997 0.11696 0.0489 0.0
N2906 N 0.61685 0.06997 0.01301 0.0
N2907 N 0.60028 0.11938 0.08911 0.0
H2908 H 0.59212 0.14665 0.03122 0.0
H2909 H 0.58657 0.14807 0.05983 0.0
H2910 H 0.59866 0.11285 0.10515 0.0
H2911 H 0.60242 0.13666 0.08891 0.0
H2912 H 0.62188 0.05332 0.01331 0.0
H2913 H 0.62068 0.07819 0.99814 0.0
H2914 H 0.6051 0.03687 0.03895 0.0
H2915 H 0.60401 0.03835 0.06798 0.0
C2916 C 0.92239 0.58404 0.04827 0.0
C2917 C 0.91556 0.60045 0.06414 0.0
C2918 C 0.89645 0.62087 0.03427 0.0
C2919 C 0.90486 0.60557 0.01834 0.0
N2920 N 0.93231 0.57759 0.00958 0.0
N2921 N 0.9039 0.63891 0.06947 0.0
C2922 C 0.92 0.58877 0.02516 0.0
C2923 C 0.90498 0.62027 0.05633 0.0
N2924 N 0.92972 0.56345 0.05483 0.0
N2925 N 0.87965 0.63527 0.02881 0.0
H2926 H 0.912 0.64006 0.08485 0.0
H2927 H 0.89764 0.6541 0.0637 0.0
H2928 H 0.87199 0.63533 0.01319 0.0
H2929 H 0.87178 0.64539 0.04063 0.0
H2930 H 0.93357 0.55081 0.04349 0.0
H2931 H 0.92946 0.5579 0.07128 0.0
H2932 H 0.94511 0.56657 0.01384 0.0
H2933 H 0.93139 0.58133 0.99258 0.0
C2934 C 0.42218 0.91503 0.03536 0.0
C2935 C 0.40278 0.90172 0.03227 0.0
C2936 C 0.39171 0.9096 0.07068 0.0
C2937 C 0.41307 0.9191 0.07507 0.0
N2938 N 0.4503 0.92749 0.06151 0.0
N2939 N 0.37142 0.88254 0.04869 0.0
C2940 C 0.42883 0.92097 0.05739 0.0
C2941 C 0.3882 0.89789 0.05044 0.0
N2942 N 0.43368 0.92288 0.01729 0.0
N2943 N 0.37433 0.91275 0.08517 0.0
H2944 H 0.36907 0.87277 0.03446 0.0
H2945 H 0.36153 0.87785 0.06225 0.0
H2946 H 0.37543 0.92314 0.09913 0.0
H2947 H 0.35809 0.90751 0.08166 0.0
H2948 H 0.44686 0.9342 0.01866 0.0
H2949 H 0.42836 0.92025 0.00092 0.0
H2950 H 0.4628 0.92695 0.04938 0.0
H2951 H 0.45621 0.93127 0.07742 0.0
C2952 C 0.07143 0.59215 0.94834 0.0
C2953 C 0.08668 0.59834 0.93115 0.0
C2954 C 0.11482 0.60809 0.95952 0.0
C2955 C 0.10007 0.60065 0.97636 0.0
N2956 N 0.06568 0.58339 0.98758 0.0
N2957 N 0.12375 0.61076 0.92024 0.0
C2958 C 0.07882 0.59186 0.97095 0.0
C2959 C 0.10859 0.60605 0.9367 0.0
N2960 N 0.04948 0.58817 0.94328 0.0
N2961 N 0.13477 0.61748 0.96557 0.0
H2962 H 0.11999 0.61085 0.90329 0.0
H2963 H 0.14069 0.61339 0.92313 0.0
H2964 H 0.1405 0.6176 0.98203 0.0
H2965 H 0.14519 0.62612 0.95466 0.0
H2966 H 0.03709 0.58577 0.95524 0.0
H2967 H 0.04302 0.58937 0.92716 0.0
H2968 H 0.05107 0.57438 0.9847 0.0
H2969 H 0.07021 0.58411 0.00439 0.0
C2970 C 0.36988 0.10069 0.9527 0.0
C2971 C 0.38566 0.09718 0.96986 0.0
C2972 C 0.40945 0.07619 0.94404 0.0
C2973 C 0.39303 0.07858 0.92698 0.0
N2974 N 0.35428 0.0864 0.91832 0.0
N2975 N 0.41591 0.07481 0.98395 0.0
C2976 C 0.37219 0.08883 0.93227 0.0
C2977 C 0.40401 0.08271 0.9662 0.0
N2978 N 0.35308 0.11582 0.95564 0.0
N2979 N 0.43063 0.06916 0.93918 0.0
H2980 H 0.41167 0.0786 0.00044 0.0
H2981 H 0.42829 0.06265 0.98239 0.0
H2982 H 0.43638 0.06623 0.92305 0.0
H2983 H 0.44336 0.06859 0.95103 0.0
H2984 H 0.34238 0.12066 0.94279 0.0
H2985 H 0.35113 0.12491 0.97038 0.0
H2986 H 0.33832 0.09211 0.92234 0.0
H2987 H 0.35469 0.07626 0.90415 0.0
C2988 C 0.92224 0.38801 0.96271 0.0
C2989 C 0.91143 0.40657 0.97234 0.0
C2990 C 0.92816 0.43122 0.94392 0.0
C2991 C 0.93504 0.41201 0.9318 0.0
N2992 N 0.94221 0.37234 0.93125 0.0
N2993 N 0.90569 0.44632 0.974 0.0
C2994 C 0.93335 0.39048 0.94186 0.0
C2995 C 0.91527 0.42839 0.96376 0.0
N2996 N 0.92213 0.36816 0.97398 0.0
N2997 N 0.93387 0.4521 0.93663 0.0
H2998 H 0.89801 0.44516 0.98948 0.0
H2999 H 0.90475 0.46221 0.96702 0.0
H3000 H 0.94284 0.45512 0.92208 0.0
H3001 H 0.93142 0.4666 0.94591 0.0
H3002 H 0.93103 0.35406 0.96908 0.0
H3003 H 0.91444 0.36639 0.98954 0.0
H3004 H 0.93914 0.35585 0.93578 0.0
H3005 H 0.95273 0.37393 0.91755 0.0
C3006 C 0.61333 0.93098 0.94685 0.0
C3007 C 0.60441 0.91872 0.92861 0.0
C3008 C 0.60194 0.88506 0.95168 0.0
C3009 C 0.61129 0.89712 0.96983 0.0
N3010 N 0.62798 0.93027 0.98484 0.0
N3011 N 0.59393 0.8835 0.91205 0.0
C3012 C 0.61754 0.9198 0.96743 0.0
C3013 C 0.59981 0.89557 0.93055 0.0
N3014 N 0.61786 0.95322 0.9443 0.0
N3015 N 0.59416 0.86384 0.95493 0.0
H3016 H 0.5913 0.89069 0.89641 0.0
H3017 H 0.5932 0.86612 0.91172 0.0
H3018 H 0.59596 0.85526 0.96994 0.0
H3019 H 0.5845 0.85521 0.94332 0.0
H3020 H 0.62252 0.96383 0.95724 0.0
H3021 H 0.61631 0.96135 0.92897 0.0
H3022 H 0.63446 0.94637 0.98416 0.0
H3023 H 0.63129 0.92217 -8e-05 0.0
C3024 C 0.02698 0.06806 0.37757 0.0
C3025 C 0.02673 0.09168 0.37881 0.0
C3026 C 0.06744 0.09234 0.38267 0.0
C3027 C 0.06754 0.06862 0.38332 0.0
N3028 N 0.04761 0.03363 0.38376 0.0
N3029 N 0.04576 0.12615 0.38718 0.0
C3030 C 0.04733 0.05635 0.38146 0.0
C3031 C 0.04673 0.10383 0.38243 0.0
N3032 N 0.00773 0.057 0.37225 0.0
N3033 N 0.08714 0.10397 0.38242 0.0
H3034 H 0.03084 0.13508 0.38787 0.0
H3035 H 0.05947 0.13544 0.39254 0.0
H3036 H 0.10275 0.09641 0.38386 0.0
H3037 H 0.08811 0.12103 0.37917 0.0
H3038 H 0.00689 0.03989 0.36926 0.0
H3039 H 0.99274 0.06536 0.36917 0.0
H3040 H 0.03326 0.02386 0.38489 0.0
H3041 H 0.06234 0.02458 0.3859 0.0
C3042 C 0.93824 0.04444 0.40323 0.0
C3043 C 0.92571 0.06399 0.39814 0.0
C3044 C 0.89387 0.04049 0.38677 0.0
C3045 C 0.90586 0.02126 0.39316 0.0
N3046 N 0.93767 0.00457 0.41099 0.0
N3047 N 0.88985 0.0806 0.38939 0.0
C3048 C 0.92755 0.02314 0.40245 0.0
C3049 C 0.90302 0.062 0.39107 0.0
N3050 N 0.96057 0.04602 0.40771 0.0
N3051 N 0.8738 0.03805 0.37617 0.0
H3052 H 0.89553 0.09671 0.39271 0.0
H3053 H 0.87266 0.07996 0.38675 0.0
H3054 H 0.86665 0.02242 0.37319 0.0
H3055 H 0.8652 0.05122 0.36875 0.0
H3056 H 0.97108 0.03223 0.40904 0.0
H3057 H 0.96905 0.06119 0.40835 0.0
H3058 H 0.9524 0.00507 0.42023 0.0
H3059 H 0.93037 0.98875 0.41026 0.0
C3060 C 0.92711 0.89947 0.3963 0.0
C3061 C 0.92433 0.91538 0.41377 0.0
C3062 C 0.96518 0.91887 0.41459 0.0
C3063 C 0.96735 0.89899 0.40175 0.0
N3064 N 0.94788 0.8666 0.38691 0.0
N3065 N 0.94276 0.93759 0.44243 0.0
C3066 C 0.94765 0.88814 0.39437 0.0
C3067 C 0.94393 0.92455 0.42376 0.0
N3068 N 0.91078 0.8957 0.38082 0.0
N3069 N 0.98313 0.9326 0.41758 0.0
H3070 H 0.92799 0.94074 0.45104 0.0
H3071 H 0.95701 0.94301 0.45089 0.0
H3072 H 0.99839 0.92974 0.40962 0.0
H3073 H 0.98189 0.94804 0.42557 0.0
H3074 H 0.9131 0.88477 0.36742 0.0
H3075 H 0.8967 0.90585 0.37935 0.0
H3076 H 0.93323 0.85819 0.38254 0.0
H3077 H 0.96179 0.85625 0.38827 0.0
C3078 C 0.07834 0.96027 0.38166 0.0
C3079 C 0.09886 0.96448 0.39259 0.0
C3080 C 0.0947 0.93033 0.41454 0.0
C3081 C 0.07535 0.9248 0.40204 0.0
N3082 N 0.0486 0.93383 0.37333 0.0
N3083 N 0.12827 0.95266 0.4173 0.0
C3084 C 0.06707 0.93963 0.38547 0.0
C3085 C 0.10749 0.94927 0.40845 0.0
N3086 N 0.06967 0.97622 0.36785 0.0
N3087 N 0.10071 0.91771 0.43252 0.0
H3088 H 0.13804 0.96654 0.41352 0.0
H3089 H 0.13667 0.94089 0.42696 0.0
H3090 H 0.09229 0.90329 0.43715 0.0
H3091 H 0.11272 0.92269 0.44405 0.0
H3092 H 0.05373 0.97546 0.36095 0.0
H3093 H 0.07822 0.99097 0.36418 0.0
H3094 H 0.04298 0.94267 0.35947 0.0
H3095 H 0.03921 0.91952 0.37671 0.0
C3096 C 0.05328 0.92198 0.58536 0.0
C3097 C 0.07072 0.91924 0.60126 0.0
C3098 C 0.04447 0.89972 0.626 0.0
C3099 C 0.02672 0.90451 0.61114 0.0
N3100 N 0.01353 0.92731 0.58068 0.0
N3101 N 0.07992 0.91263 0.64016 0.0
C3102 C 0.0309 0.91793 0.59207 0.0
C3103 C 0.06545 0.91027 0.62267 0.0
N3104 N 0.05783 0.92708 0.56359 0.0
N3105 N 0.04178 0.88439 0.64264 0.0
H3106 H 0.09449 0.92214 0.63914 0.0
H3107 H 0.0759 0.9077 0.65638 0.0
H3108 H 0.02708 0.87533 0.64485 0.0
H3109 H 0.055 0.87902 0.65263 0.0
H3110 H 0.04552 0.92726 0.55127 0.0
H3111 H 0.07396 0.92845 0.55723 0.0
H3112 H 0.01588 0.93857 0.56759 0.0
H3113 H 0.99702 0.92601 0.58615 0.0
C3114 C 0.09493 0.06938 0.61546 0.0
C3115 C 0.08299 0.07444 0.59554 0.0
C3116 C 0.08252 0.03448 0.58696 0.0
C3117 C 0.09883 0.03056 0.60369 0.0
N3118 N 0.12423 0.04649 0.6308 0.0
N3119 N 0.06952 0.06096 0.55965 0.0
C3120 C 0.10606 0.04859 0.6172 0.0
C3121 C 0.07773 0.05677 0.58051 0.0
N3122 N 0.09499 0.08384 0.63311 0.0
N3123 N 0.0712 0.01703 0.57763 0.0
H3124 H 0.0676 0.07695 0.55316 0.0
H3125 H 0.06728 0.04837 0.54779 0.0
H3126 H 0.07313 0.00064 0.58324 0.0
H3127 H 0.05804 0.01929 0.56644 0.0
H3128 H 0.10238 0.07989 0.64839 0.0
H3129 H 0.08514 0.0982 0.63356 0.0
H3130 H 0.13093 0.05999 0.63958 0.0
H3131 H 0.13415 0.0322 0.6312 0.0
C3132 C 0.94389 0.08447 0.57572 0.0
C3133 C 0.92695 0.08722 0.59224 0.0
C3134 C 0.95331 0.1086 0.61529 0.0
C3135 C 0.97054 0.10414 0.59984 0.0
N3136 N 0.98371 0.08195 0.56892 0.0
N3137 N 0.919 0.0951 0.63127 0.0
C3138 C 0.9663 0.09029 0.58109 0.0
C3139 C 0.93265 0.09729 0.61309 0.0
N3140 N 0.9388 0.07733 0.55465 0.0
N3141 N 0.9564 0.12412 0.63171 0.0
H3142 H 0.90466 0.08525 0.63126 0.0
H3143 H 0.92351 0.10064 0.64716 0.0
H3144 H 0.97115 0.13327 0.63335 0.0
H3145 H 0.94351 0.12949 0.64215 0.0
H3146 H 0.95036 0.0775 0.54162 0.0
H3147 H 0.92275 0.07327 0.54942 0.0
H3148 H 0.98162 0.07016 0.55627 0.0
H3149 H 0.00036 0.08474 0.57323 0.0
C3150 C 0.89183 0.96149 0.58856 0.0
C3151 C 0.89603 0.97421 0.60818 0.0
C3152 C 0.92356 0.94617 0.61967 0.0
C3153 C 0.9214 0.93511 0.59879 0.0
N3154 N 0.90611 0.93506 0.5615 0.0
N3155 N 0.9047 0.96894 0.64701 0.0
C3156 C 0.90649 0.94375 0.58257 0.0
C3157 C 0.90897 0.96404 0.62517 0.0
N3158 N 0.8718 0.96361 0.57797 0.0
N3159 N 0.93996 0.93984 0.63416 0.0
H3160 H 0.89085 0.97847 0.65167 0.0
H3161 H 0.91235 0.96071 0.66031 0.0
H3162 H 0.95155 0.9275 0.63012 0.0
H3163 H 0.94355 0.94857 0.64881 0.0
H3164 H 0.86726 0.9542 0.56411 0.0
H3165 H 0.85849 0.97213 0.58539 0.0
H3166 H 0.89662 0.94198 0.54867 0.0
H3167 H 0.91708 0.92261 0.55626 0.0
C3168 C 0.40872 0.03039 0.07315 0.0
C3169 C 0.39326 0.02697 0.09079 0.0
C3170 C 0.38191 0.06585 0.08706 0.0
C3171 C 0.40124 0.07063 0.07401 0.0
N3172 N 0.43558 0.05604 0.05764 0.0
N3173 N 0.36896 0.04425 0.11826 0.0
C3174 C 0.41535 0.05252 0.0676 0.0
C3175 C 0.38073 0.04541 0.09877 0.0
N3176 N 0.41693 0.01253 0.06161 0.0
N3177 N 0.36431 0.08034 0.08789 0.0
H3178 H 0.36951 0.03057 0.12894 0.0
H3179 H 0.36101 0.05816 0.12515 0.0
H3180 H 0.36325 0.09443 0.07774 0.0
H3181 H 0.34951 0.07654 0.0963 0.0
H3182 H 0.42706 0.01427 0.04753 0.0
H3183 H 0.41139 0.99626 0.06461 0.0
H3184 H 0.44686 0.0431 0.05464 0.0
H3185 H 0.44238 0.07175 0.05474 0.0
C3186 C 0.39354 0.94602 0.93083 0.0
C3187 C 0.40039 0.927 0.91843 0.0
C3188 C 0.40199 0.94943 0.88433 0.0
C3189 C 0.39245 0.96765 0.89607 0.0
N3190 N 0.37713 0.98316 0.92974 0.0
N3191 N 0.40878 0.90971 0.88293 0.0
C3192 C 0.38781 0.96595 0.9192 0.0
C3193 C 0.4039 0.92845 0.89504 0.0
N3194 N 0.39247 0.94498 0.95361 0.0
N3195 N 0.41043 0.95249 0.86334 0.0
H3196 H 0.41186 0.89419 0.89019 0.0
H3197 H 0.40839 0.90928 0.86553 0.0
H3198 H 0.40992 0.96776 0.85505 0.0
H3199 H 0.41996 0.94052 0.85502 0.0
H3200 H 0.38961 0.95882 0.96376 0.0
H3201 H 0.39618 0.93051 0.96256 0.0
H3202 H 0.37129 0.98234 0.9461 0.0
H3203 H 0.3725 0.99775 0.92141 0.0
C3204 C 0.04966 0.38346 0.90929 0.0
C3205 C 0.03108 0.398 0.90869 0.0
C3206 C 0.05326 0.42723 0.92719 0.0
C3207 C 0.07169 0.4124 0.92836 0.0
N3208 N 0.08358 0.37375 0.92881 0.0
N3209 N 0.01295 0.43007 0.92503 0.0
C3210 C 0.06866 0.38963 0.92207 0.0
C3211 C 0.03216 0.41874 0.92029 0.0
N3212 N 0.04981 0.36441 0.89677 0.0
N3213 N 0.05591 0.44952 0.9313 0.0
H3214 H 0.99721 0.42343 0.9215 0.0
H3215 H 0.01264 0.44452 0.93477 0.0
H3216 H 0.07116 0.45665 0.93573 0.0
H3217 H 0.04333 0.46118 0.9283 0.0
H3218 H 0.06398 0.35442 0.89501 0.0
H3219 H 0.03654 0.3597 0.88654 0.0
H3220 H 0.08111 0.35672 0.92605 0.0
H3221 H 0.09683 0.37733 0.93955 0.0
C3222 C 0.59907 0.04844 0.88856 0.0
C3223 C 0.6013 0.0296 0.90269 0.0
C3224 C 0.59967 0.05353 0.93594 0.0
C3225 C 0.59808 0.07248 0.9218 0.0
N3226 N 0.59325 0.08848 0.88514 0.0
N3227 N 0.60094 0.01308 0.93921 0.0
C3228 C 0.59702 0.07008 0.89819 0.0
C3229 C 0.60067 0.03185 0.92625 0.0
N3230 N 0.59848 0.04532 0.86593 0.0
N3231 N 0.60114 0.05642 0.95856 0.0
H3232 H 0.60272 0.99716 0.93249 0.0
H3233 H 0.59835 0.01296 0.95639 0.0
H3234 H 0.59976 0.07201 0.96617 0.0
H3235 H 0.60462 0.04373 0.96987 0.0
H3236 H 0.59878 0.05806 0.85415 0.0
H3237 H 0.59786 0.02952 0.8586 0.0
H3238 H 0.59169 0.08823 0.86787 0.0
H3239 H 0.59056 0.10439 0.89169 0.0
C3240 C 0.94151 0.6116 0.90419 0.0
C3241 C 0.93218 0.58985 0.90608 0.0
C3242 C 0.96422 0.57531 0.88438 0.0
C3243 C 0.97445 0.59682 0.88522 0.0
N3244 N 0.96343 0.63512 0.88027 0.0
N3245 N 0.93485 0.55042 0.89748 0.0
C3246 C 0.96049 0.61506 0.89064 0.0
C3247 C 0.94367 0.57144 0.89618 0.0
N3248 N 0.9328 0.62912 0.91593 0.0
N3249 N 0.97164 0.56013 0.86908 0.0
H3250 H 0.91918 0.547 0.90422 0.0
H3251 H 0.94363 0.53611 0.89294 0.0
H3252 H 0.98236 0.56486 0.85617 0.0
H3253 H 0.96443 0.54451 0.86652 0.0
H3254 H 0.94032 0.64486 0.91615 0.0
H3255 H 0.91989 0.62724 0.92741 0.0
H3256 H 0.95248 0.64852 0.8824 0.0
H3257 H 0.97458 0.63696 0.86698 0.0
C3258 C 0.62571 0.95518 0.09553 0.0
C3259 C 0.6089 0.9718 0.09529 0.0
C3260 C 0.58344 0.94503 0.07737 0.0
C3261 C 0.60124 0.92931 0.07517 0.0
N3262 N 0.64145 0.92425 0.07513 0.0
N3263 N 0.57442 0.98438 0.07848 0.0
C3264 C 0.62306 0.93585 0.08209 0.0
C3265 C 0.58851 0.96732 0.08397 0.0
N3266 N 0.64382 0.95728 0.1092 0.0
N3267 N 0.56166 0.93891 0.07434 0.0
H3268 H 0.57849 0.00112 0.08109 0.0
H3269 H 0.56018 0.98201 0.06872 0.0
H3270 H 0.55651 0.92276 0.07062 0.0
H3271 H 0.5484 0.94961 0.07801 0.0
H3272 H 0.65563 0.94461 0.11108 0.0
H3273 H 0.64556 0.9704 0.12054 0.0
H3274 H 0.6577 0.92948 0.07866 0.0
H3275 H 0.64056 0.91136 0.06343 0.0
C3276 C 0.05025 0.60124 0.0752 0.0
C3277 C 0.06747 0.59348 0.08957 0.0
C3278 C 0.04072 0.5898 0.12044 0.0
C3279 C 0.02377 0.5983 0.10632 0.0
N3280 N 0.01071 0.60951 0.07017 0.0
N3281 N 0.07922 0.5774 0.12451 0.0
C3282 C 0.02805 0.60311 0.08358 0.0
C3283 C 0.06271 0.58686 0.11185 0.0
N3284 N 0.0554 0.60762 0.05386 0.0
N3285 N 0.03556 0.58475 0.14212 0.0
H3286 H 0.09544 0.57502 0.11862 0.0
H3287 H 0.07686 0.57084 0.1404 0.0
H3288 H 0.01929 0.5856 0.14833 0.0
H3289 H 0.04715 0.58021 0.15421 0.0
H3290 H 0.04432 0.61543 0.04301 0.0
H3291 H 0.07128 0.6057 0.047 0.0
H3292 H 0.01185 0.61149 0.05295 0.0
H3293 H 0.99456 0.61197 0.07625 0.0
C3294 C 0.94857 0.39691 0.11344 0.0
C3295 C 0.96594 0.38511 0.10244 0.0
C3296 C 0.94213 0.38033 0.06934 0.0
C3297 C 0.92559 0.39388 0.07962 0.0
N3298 N 0.91315 0.41631 0.11068 0.0
N3299 N 0.98025 0.36618 0.07019 0.0
C3300 C 0.9288 0.40243 0.1015 0.0
C3301 C 0.96288 0.37684 0.08048 0.0
N3302 N 0.95094 0.40276 0.13538 0.0
N3303 N 0.93787 0.37072 0.04904 0.0
H3304 H 0.99506 0.36235 0.07857 0.0
H3305 H 0.98046 0.36189 0.05334 0.0
H3306 H 0.92324 0.37372 0.04004 0.0
H3307 H 0.94821 0.35894 0.04152 0.0
H3308 H 0.93804 0.40907 0.14519 0.0
H3309 H 0.96543 0.39989 0.14451 0.0
H3310 H 0.91577 0.4257 0.12507 0.0
H3311 H 0.89783 0.41954 0.10315 0.0
C3312 C 0.58422 0.88187 0.56803 0.0
C3313 C 0.57756 0.90426 0.57253 0.0
C3314 C 0.58696 0.91356 0.5337 0.0
C3315 C 0.59797 0.89265 0.53115 0.0
N3316 N 0.61087 0.8587 0.54856 0.0
N3317 N 0.57671 0.94272 0.55965 0.0
C3318 C 0.59768 0.87729 0.5491 0.0
C3319 C 0.57999 0.92056 0.55537 0.0
N3320 N 0.57692 0.86473 0.58121 0.0
N3321 N 0.58206 0.92627 0.51543 0.0
H3322 H 0.57253 0.94896 0.57532 0.0
H3323 H 0.58046 0.95514 0.54802 0.0
H3324 H 0.58488 0.92077 0.49914 0.0
H3325 H 0.57258 0.94086 0.51638 0.0
H3326 H 0.58014 0.84801 0.57748 0.0
H3327 H 0.56524 0.86698 0.59396 0.0
H3328 H 0.61245 0.84796 0.56218 0.0
H3329 H 0.62211 0.85553 0.53563 0.0
C3330 C 0.10279 0.56932 0.52971 0.0
C3331 C 0.10114 0.5928 0.52757 0.0
C3332 C 0.08898 0.5958 0.56656 0.0
C3333 C 0.09011 0.57215 0.56861 0.0
N3334 N 0.0936 0.53606 0.55102 0.0
N3335 N 0.08823 0.62802 0.54217 0.0
C3336 C 0.09539 0.55877 0.54974 0.0
C3337 C 0.09287 0.60592 0.54547 0.0
N3338 N 0.11257 0.55731 0.51296 0.0
N3339 N 0.08493 0.60873 0.58498 0.0
H3340 H 0.09168 0.6363 0.5273 0.0
H3341 H 0.07942 0.6378 0.55356 0.0
H3342 H 0.08074 0.60212 0.60052 0.0
H3343 H 0.08696 0.626 0.58525 0.0
H3344 H 0.11632 0.54037 0.51408 0.0
H3345 H 0.11881 0.56491 0.49858 0.0
H3346 H 0.09539 0.52547 0.53734 0.0
H3347 H 0.08826 0.52789 0.56539 0.0
C3348 C 0.41009 0.12859 0.56382 0.0
C3349 C 0.42195 0.1086 0.56892 0.0
C3350 C 0.4175 0.09769 0.52973 0.0
C3351 C 0.40096 0.1144 0.52675 0.0
N3352 N 0.37836 0.14321 0.54387 0.0
N3353 N 0.43291 0.07151 0.55594 0.0
C3354 C 0.39637 0.12926 0.54457 0.0
C3355 C 0.42475 0.09237 0.55167 0.0
N3356 N 0.41244 0.14725 0.57674 0.0
N3357 N 0.42678 0.08734 0.51166 0.0
H3358 H 0.43688 0.06567 0.57178 0.0
H3359 H 0.4332 0.05898 0.54382 0.0
H3360 H 0.4232 0.09222 0.49531 0.0
H3361 H 0.44003 0.07611 0.51306 0.0
H3362 H 0.405 0.16246 0.57262 0.0
H3363 H 0.42422 0.14837 0.58955 0.0
H3364 H 0.3737 0.15309 0.55746 0.0
H3365 H 0.36667 0.14289 0.531 0.0
C3366 C 0.9039 0.38676 0.54474 0.0
C3367 C 0.89212 0.39855 0.52797 0.0
C3368 C 0.89015 0.43142 0.55241 0.0
C3369 C 0.90404 0.4203 0.5681 0.0
N3370 N 0.92712 0.38874 0.57763 0.0
N3371 N 0.87476 0.4321 0.5148 0.0
C3372 C 0.91185 0.3984 0.56375 0.0
C3373 C 0.88551 0.42096 0.53151 0.0
N3374 N 0.90681 0.3642 0.54292 0.0
N3375 N 0.88095 0.45163 0.55777 0.0
H3376 H 0.86972 0.42409 0.50016 0.0
H3377 H 0.87158 0.4492 0.51505 0.0
H3378 H 0.88439 0.45986 0.57275 0.0
H3379 H 0.86897 0.45965 0.54805 0.0
H3380 H 0.91306 0.3543 0.55579 0.0
H3381 H 0.90113 0.35494 0.52934 0.0
H3382 H 0.93554 0.37403 0.57369 0.0
H3383 H 0.93292 0.3965 0.59205 0.0
C3384 C 0.56632 0.08028 0.44863 0.0
C3385 C 0.57099 0.09647 0.43179 0.0
C3386 C 0.59398 0.11715 0.45869 0.0
C3387 C 0.58786 0.1021 0.47589 0.0
N3388 N 0.56095 0.07503 0.48828 0.0
N3389 N 0.58064 0.13535 0.42543 0.0
C3390 C 0.57163 0.08549 0.47116 0.0
C3391 C 0.58204 0.11656 0.43827 0.0
N3392 N 0.55812 0.05958 0.44358 0.0
N3393 N 0.61193 0.13103 0.46092 0.0
H3394 H 0.57003 0.13647 0.41165 0.0
H3395 H 0.58748 0.15059 0.43044 0.0
H3396 H 0.6227 0.13054 0.47455 0.0
H3397 H 0.61763 0.14102 0.44783 0.0
H3398 H 0.55661 0.04703 0.45556 0.0
H3399 H 0.5551 0.05386 0.42749 0.0
H3400 H 0.54781 0.06383 0.48587 0.0
H3401 H 0.56345 0.08008 0.50473 0.0
C3402 C 0.91622 0.58149 0.44133 0.0
C3403 C 0.8968 0.57059 0.43321 0.0
C3404 C 0.87702 0.58217 0.46738 0.0
C3405 C 0.89456 0.5974 0.47206 0.0
N3406 N 0.92967 0.61385 0.46121 0.0
N3407 N 0.85944 0.55734 0.44051 0.0
C3408 C 0.91389 0.59762 0.45845 0.0
C3409 C 0.87735 0.56997 0.4469 0.0
N3410 N 0.93695 0.57578 0.43379 0.0
N3411 N 0.8607 0.57869 0.48295 0.0
H3412 H 0.86031 0.54593 0.42733 0.0
H3413 H 0.84378 0.55835 0.44804 0.0
H3414 H 0.86064 0.58676 0.49839 0.0
H3415 H 0.84843 0.56644 0.4815 0.0
H3416 H 0.95156 0.58259 0.44043 0.0
H3417 H 0.93976 0.56199 0.42358 0.0
H3418 H 0.94321 0.61576 0.45039 0.0
H3419 H 0.92775 0.62682 0.47266 0.0
C3420 C 0.42351 0.92057 0.44215 0.0
C3421 C 0.42084 0.9035 0.42577 0.0
C3422 C 0.3973 0.8825 0.4518 0.0
C3423 C 0.40164 0.89836 0.46874 0.0
N3424 N 0.42514 0.92844 0.48177 0.0
N3425 N 0.41238 0.86444 0.41917 0.0
C3426 C 0.41663 0.91624 0.46447 0.0
C3427 C 0.40991 0.88328 0.43183 0.0
N3428 N 0.43158 0.94117 0.43655 0.0
N3429 N 0.38066 0.86712 0.45438 0.0
H3430 H 0.42335 0.86357 0.40564 0.0
H3431 H 0.40593 0.84898 0.42398 0.0
H3432 H 0.37018 0.86687 0.4683 0.0
H3433 H 0.37576 0.85636 0.44157 0.0
H3434 H 0.43163 0.95457 0.44769 0.0
H3435 H 0.43594 0.94571 0.42037 0.0
H3436 H 0.43757 0.94046 0.47963 0.0
H3437 H 0.42178 0.92468 0.49843 0.0
C3438 C 0.11439 0.40235 0.44452 0.0
C3439 C 0.10045 0.40545 0.46335 0.0
C3440 C 0.07294 0.42429 0.43948 0.0
C3441 C 0.08808 0.42323 0.42119 0.0
N3442 N 0.12678 0.41881 0.41 0.0
N3443 N 0.07 0.42631 0.47973 0.0
C3444 C 0.10993 0.41457 0.4248 0.0
C3445 C 0.08074 0.41853 0.46117 0.0
N3446 N 0.13129 0.38706 0.44497 0.0
N3447 N 0.05101 0.42973 0.43629 0.0
H3448 H 0.07634 0.42411 0.4958 0.0
H3449 H 0.05651 0.4373 0.47889 0.0
H3450 H 0.04416 0.43297 0.42066 0.0
H3451 H 0.03915 0.42866 0.44902 0.0
H3452 H 0.14072 0.38311 0.43085 0.0
H3453 H 0.13408 0.37652 0.45853 0.0
H3454 H 0.14328 0.41401 0.41296 0.0
H3455 H 0.12494 0.42965 0.39649 0.0
C3456 C 0.56229 0.57793 0.87722 0.0
C3457 C 0.5694 0.56682 0.89687 0.0
C3458 C 0.54213 0.5882 0.91836 0.0
C3459 C 0.53419 0.59883 0.89868 0.0
N3460 N 0.54746 0.61245 0.86315 0.0
N3461 N 0.55825 0.55481 0.93379 0.0
C3462 C 0.54701 0.59599 0.87887 0.0
C3463 C 0.55681 0.56978 0.91669 0.0
N3464 N 0.56937 0.57068 0.8568 0.0
N3465 N 0.53937 0.5982 0.93856 0.0
H3466 H 0.56657 0.53959 0.93211 0.0
H3467 H 0.54843 0.55612 0.94814 0.0
H3468 H 0.53448 0.61483 0.93938 0.0
H3469 H 0.5462 0.59191 0.9533 0.0
H3470 H 0.56331 0.57732 0.84188 0.0
H3471 H 0.57872 0.55607 0.85491 0.0
H3472 H 0.55786 0.61191 0.84918 0.0
H3473 H 0.54046 0.62814 0.86616 0.0
C3474 C 0.41364 0.53922 0.88605 0.0
C3475 C 0.39605 0.53344 0.90074 0.0
C3476 C 0.40424 0.56616 0.92398 0.0
C3477 C 0.42047 0.57323 0.90815 0.0
N3478 N 0.43999 0.56735 0.87335 0.0
N3479 N 0.37224 0.54241 0.93175 0.0
C3480 C 0.42495 0.56 0.8889 0.0
C3481 C 0.39071 0.54723 0.91919 0.0
N3482 N 0.42 0.52435 0.86994 0.0
N3483 N 0.40194 0.57731 0.94374 0.0
H3484 H 0.36189 0.52879 0.92836 0.0
H3485 H 0.36599 0.55284 0.9442 0.0
H3486 H 0.41169 0.59104 0.94786 0.0
H3487 H 0.39197 0.5718 0.9569 0.0
H3488 H 0.4342 0.52626 0.86007 0.0
H3489 H 0.41175 0.50918 0.86746 0.0
H3490 H 0.44211 0.55992 0.85776 0.0
H3491 H 0.4498 0.58158 0.87567 0.0
C3492 C 0.46974 0.43047 0.89081 0.0
C3493 C 0.47156 0.40698 0.8932 0.0
C3494 C 0.43471 0.40566 0.9111 0.0
C3495 C 0.43198 0.42884 0.90688 0.0
N3496 N 0.44593 0.46345 0.89186 0.0
N3497 N 0.45548 0.37168 0.90381 0.0
C3498 C 0.44935 0.44139 0.8967 0.0
C3499 C 0.45396 0.39445 0.9029 0.0
N3500 N 0.48763 0.44217 0.88282 0.0
N3501 N 0.41908 0.39449 0.9235 0.0
H3502 H 0.46966 0.3629 0.89887 0.0
H3503 H 0.44222 0.36126 0.90809 0.0
H3504 H 0.40462 0.40205 0.92954 0.0
H3505 H 0.42119 0.37828 0.92944 0.0
H3506 H 0.4886 0.45952 0.88266 0.0
H3507 H 0.5021 0.43426 0.87716 0.0
H3508 H 0.45688 0.47312 0.88243 0.0
H3509 H 0.43144 0.47196 0.89651 0.0
C3510 C 0.5711 0.44417 0.89747 0.0
C3511 C 0.58327 0.42389 0.89941 0.0
C3512 C 0.61865 0.44467 0.89968 0.0
C3513 C 0.6065 0.46486 0.89821 0.0
N3514 N 0.57163 0.48478 0.89785 0.0
N3515 N 0.61809 0.40466 0.90606 0.0
C3516 C 0.58282 0.46487 0.89792 0.0
C3517 C 0.60694 0.42408 0.90149 0.0
N3518 N 0.54852 0.44353 0.894 0.0
N3519 N 0.64148 0.44533 0.89909 0.0
H3520 H 0.61012 0.38925 0.90754 0.0
H3521 H 0.63499 0.40388 0.91005 0.0
H3522 H 0.65045 0.46028 0.89911 0.0
H3523 H 0.65155 0.43126 0.89739 0.0
H3524 H 0.53884 0.45744 0.89019 0.0
H3525 H 0.53945 0.42868 0.89357 0.0
H3526 H 0.55449 0.4863 0.90035 0.0
H3527 H 0.57971 0.50014 0.89629 0.0
C3528 C 0.56408 0.39364 0.09657 0.0
C3529 C 0.56788 0.41708 0.09844 0.0
C3530 C 0.52781 0.42305 0.10549 0.0
C3531 C 0.52422 0.39968 0.10449 0.0
N3532 N 0.53835 0.36237 0.10044 0.0
N3533 N 0.55431 0.45368 0.10833 0.0
C3534 C 0.54225 0.38488 0.1005 0.0
C3535 C 0.54996 0.43172 0.10376 0.0
N3536 N 0.5812 0.37985 0.09028 0.0
N3537 N 0.50983 0.43692 0.10783 0.0
H3538 H 0.57034 0.46047 0.10763 0.0
H3539 H 0.54247 0.46484 0.11447 0.0
H3540 H 0.49365 0.43089 0.11034 0.0
H3541 H 0.51066 0.4542 0.10612 0.0
H3542 H 0.57919 0.36312 0.086 0.0
H3543 H 0.59756 0.38531 0.08804 0.0
H3544 H 0.55084 0.3503 0.10021 0.0
H3545 H 0.52238 0.35555 0.10177 0.0
C3546 C 0.59431 0.56289 0.1257 0.0
C3547 C 0.58223 0.56925 0.10623 0.0
C3548 C 0.58088 0.52978 0.09552 0.0
C3549 C 0.59707 0.52451 0.11202 0.0
N3550 N 0.62304 0.53842 0.1397 0.0
N3551 N 0.56821 0.55802 0.06983 0.0
C3552 C 0.60485 0.54168 0.12637 0.0
C3553 C 0.57651 0.55251 0.09034 0.0
N3554 N 0.59511 0.57659 0.14394 0.0
N3555 N 0.56923 0.51316 0.08514 0.0
H3556 H 0.5663 0.5744 0.06437 0.0
H3557 H 0.56578 0.54621 0.05724 0.0
H3558 H 0.57095 0.49643 0.08962 0.0
H3559 H 0.55607 0.51632 0.07418 0.0
H3560 H 0.6025 0.57174 0.15895 0.0
H3561 H 0.58587 0.59132 0.14509 0.0
H3562 H 0.6302 0.55128 0.14905 0.0
H3563 H 0.63254 0.52386 0.13936 0.0
C3564 C 0.43047 0.59908 0.12487 0.0
C3565 C 0.42592 0.58828 0.10409 0.0
C3566 C 0.46625 0.58609 0.09768 0.0
C3567 C 0.4698 0.60171 0.11504 0.0
N3568 N 0.45489 0.62475 0.14434 0.0
N3569 N 0.44072 0.57405 0.06894 0.0
C3570 C 0.45177 0.60873 0.12843 0.0
C3571 C 0.44415 0.58221 0.09 0.0
N3572 N 0.41519 0.59877 0.14184 0.0
N3573 N 0.48396 0.57481 0.08883 0.0
H3574 H 0.42524 0.57402 0.06104 0.0
H3575 H 0.45368 0.56975 0.05816 0.0
H3576 H 0.50025 0.57711 0.09464 0.0
H3577 H 0.48214 0.56175 0.07744 0.0
H3578 H 0.41858 0.60522 0.15767 0.0
H3579 H 0.40061 0.58925 0.14124 0.0
H3580 H 0.44168 0.63194 0.15315 0.0
H3581 H 0.47044 0.63208 0.14731 0.0
C3582 C 0.41052 0.43804 0.10437 0.0
C3583 C 0.41922 0.43352 0.08275 0.0
C3584 C 0.41291 0.47271 0.07284 0.0
C3585 C 0.40035 0.47575 0.09279 0.0
N3586 N 0.38324 0.45914 0.12523 0.0
N3587 N 0.42544 0.44627 0.04489 0.0
C3588 C 0.39804 0.45778 0.10792 0.0
C3589 C 0.41963 0.45078 0.06649 0.0
N3590 N 0.41482 0.42392 0.12177 0.0
N3591 N 0.41944 0.49076 0.06056 0.0
H3592 H 0.42996 0.43039 0.03936 0.0
H3593 H 0.42375 0.45795 0.03209 0.0
H3594 H 0.41627 0.50714 0.06555 0.0
H3595 H 0.43029 0.48946 0.04699 0.0
H3596 H 0.41021 0.42753 0.13818 0.0
H3597 H 0.42538 0.41012 0.12028 0.0
H3598 H 0.37968 0.44564 0.13564 0.0
H3599 H 0.3727 0.47282 0.12752 0.0
C3600 C 0.91066 0.54946 0.56089 0.0
C3601 C 0.90656 0.56928 0.5733 0.0
C3602 C 0.90311 0.54714 0.60769 0.0
C3603 C 0.90467 0.52732 0.59496 0.0
N3604 N 0.90785 0.50896 0.5594 0.0
N3605 N 0.89688 0.58704 0.60834 0.0
C3606 C 0.90812 0.52829 0.57154 0.0
C3607 C 0.90218 0.56812 0.59666 0.0
N3608 N 0.91673 0.55088 0.53892 0.0
N3609 N 0.90346 0.54582 0.63047 0.0
H3610 H 0.89801 0.60308 0.60167 0.0
H3611 H 0.89051 0.5868 0.62454 0.0
H3612 H 0.90466 0.53064 0.63894 0.0
H3613 H 0.90472 0.55969 0.64091 0.0
H3614 H 0.9222 0.53729 0.52954 0.0
H3615 H 0.9177 0.566 0.53036 0.0
H3616 H 0.90782 0.50842 0.54202 0.0
H3617 H 0.90606 0.49331 0.56679 0.0
C3618 C 0.88636 0.46401 0.42468 0.0
C3619 C 0.89478 0.46788 0.40295 0.0
C3620 C 0.91782 0.43417 0.40572 0.0
C3621 C 0.90686 0.42844 0.42585 0.0
N3622 N 0.87982 0.43718 0.45437 0.0
N3623 N 0.91523 0.45457 0.37098 0.0
C3624 C 0.89095 0.44327 0.43541 0.0
C3625 C 0.90972 0.45244 0.39299 0.0
N3626 N 0.87396 0.48021 0.4349 0.0
N3627 N 0.93594 0.42218 0.39878 0.0
H3628 H 0.90838 0.46693 0.36084 0.0
H3629 H 0.92455 0.44273 0.36226 0.0
H3630 H 0.94258 0.40917 0.40823 0.0
H3631 H 0.94577 0.42673 0.38514 0.0
H3632 H 0.86903 0.47946 0.45157 0.0
H3633 H 0.86987 0.49519 0.42697 0.0
H3634 H 0.86633 0.44602 0.46089 0.0
H3635 H 0.88352 0.42251 0.46299 0.0
C3636 C 0.53039 0.8862 0.42233 0.0
C3637 C 0.5294 0.88881 0.39885 0.0
C3638 C 0.56975 0.8948 0.39722 0.0
C3639 C 0.57084 0.89308 0.42094 0.0
N3640 N 0.55213 0.88959 0.4565 0.0
N3641 N 0.54655 0.90042 0.36453 0.0
C3642 C 0.55107 0.8897 0.43367 0.0
C3643 C 0.54866 0.89444 0.38646 0.0
N3644 N 0.5116 0.87965 0.43352 0.0
N3645 N 0.58889 0.89649 0.38484 0.0
H3646 H 0.53125 0.90036 0.35619 0.0
H3647 H 0.55949 0.90733 0.35516 0.0
H3648 H 0.6046 0.89908 0.39181 0.0
H3649 H 0.58931 0.89454 0.36756 0.0
H3650 H 0.5113 0.87536 0.45036 0.0
H3651 H 0.49636 0.87709 0.42544 0.0
H3652 H 0.53815 0.88936 0.46683 0.0
H3653 H 0.56709 0.89101 0.46531 0.0
C3654 C 0.10381 0.54537 0.38231 0.0
C3655 C 0.10865 0.5264 0.39557 0.0
C3656 C 0.10753 0.54944 0.42951 0.0
C3657 C 0.10142 0.56821 0.41637 0.0
N3658 N 0.09064 0.5837 0.38078 0.0
N3659 N 0.11271 0.50918 0.43148 0.0
C3660 C 0.09884 0.56611 0.39285 0.0
C3661 C 0.10984 0.52814 0.41912 0.0
N3662 N 0.10387 0.54337 0.35957 0.0
N3663 N 0.11194 0.55219 0.45174 0.0
H3664 H 0.11548 0.49359 0.42415 0.0
H3665 H 0.11119 0.50861 0.4488 0.0
H3666 H 0.11026 0.56753 0.45982 0.0
H3667 H 0.11864 0.53976 0.46187 0.0
H3668 H 0.10285 0.55685 0.34866 0.0
H3669 H 0.10643 0.52816 0.35145 0.0
H3670 H 0.08613 0.5827 0.36403 0.0
H3671 H 0.08662 0.59908 0.38793 0.0
C3672 C 0.4643 0.12141 0.42083 0.0
C3673 C 0.46884 0.10628 0.4032 0.0
C3674 C 0.43968 0.08154 0.41721 0.0
C3675 C 0.43156 0.09863 0.43126 0.0
N3676 N 0.43735 0.13466 0.44827 0.0
N3677 N 0.45569 0.07569 0.3809 0.0
C3678 C 0.44437 0.11856 0.43371 0.0
C3679 C 0.4552 0.08723 0.40045 0.0
N3680 N 0.47912 0.13814 0.42533 0.0
N3681 N 0.43305 0.05995 0.41993 0.0
H3682 H 0.4638 0.08232 0.367 0.0
H3683 H 0.44522 0.06211 0.37771 0.0
H3684 H 0.42348 0.05497 0.4336 0.0
H3685 H 0.43948 0.04692 0.41028 0.0
H3686 H 0.47783 0.14864 0.43915 0.0
H3687 H 0.49361 0.14048 0.4159 0.0
H3688 H 0.44438 0.15056 0.44913 0.0
H3689 H 0.42398 0.13206 0.45919 0.0
C3690 C 0.11597 0.45316 0.60841 0.0
C3691 C 0.12061 0.47176 0.59449 0.0
C3692 C 0.11454 0.44887 0.56098 0.0
C3693 C 0.11035 0.4301 0.57492 0.0
N3694 N 0.10761 0.41362 0.61163 0.0
N3695 N 0.12654 0.48773 0.55837 0.0
C3696 C 0.11136 0.43203 0.59858 0.0
C3697 C 0.12053 0.46965 0.57096 0.0
N3698 N 0.11479 0.45612 0.63104 0.0
N3699 N 0.11273 0.44675 0.53829 0.0
H3700 H 0.13117 0.50294 0.56558 0.0
H3701 H 0.12828 0.48758 0.54109 0.0
H3702 H 0.10917 0.43164 0.5304 0.0
H3703 H 0.11378 0.45999 0.52711 0.0
H3704 H 0.10897 0.44416 0.64221 0.0
H3705 H 0.11855 0.4712 0.63886 0.0
H3706 H 0.1109 0.41289 0.62867 0.0
H3707 H 0.10161 0.39852 0.60533 0.0
C3708 C 0.53752 0.08543 0.57521 0.0
C3709 C 0.53604 0.08759 0.59873 0.0
C3710 C 0.57161 0.06769 0.60278 0.0
C3711 C 0.57374 0.06723 0.5792 0.0
N3712 N 0.55439 0.06574 0.54416 0.0
N3713 N 0.54823 0.07529 0.63509 0.0
C3714 C 0.55529 0.07291 0.56573 0.0
C3715 C 0.55209 0.07704 0.61266 0.0
N3716 N 0.52255 0.09629 0.56188 0.0
N3717 N 0.58845 0.05907 0.6155 0.0
H3718 H 0.53358 0.08093 0.64262 0.0
H3719 H 0.55847 0.06654 0.64605 0.0
H3720 H 0.6013 0.0497 0.60835 0.0
H3721 H 0.58974 0.06107 0.63272 0.0
H3722 H 0.52411 0.09709 0.54456 0.0
H3723 H 0.50974 0.10621 0.56833 0.0
H3724 H 0.54011 0.06738 0.53432 0.0
H3725 H 0.56672 0.05557 0.53724 0.0
C3726 C 0.45286 0.9006 0.61264 0.0
C3727 C 0.4709 0.89293 0.59922 0.0
C3728 C 0.44769 0.89651 0.5655 0.0
C3729 C 0.4293 0.90287 0.57911 0.0
N3730 N 0.41368 0.91054 0.6155 0.0
N3731 N 0.4856 0.8817 0.56374 0.0
C3732 C 0.43172 0.90477 0.60265 0.0
C3733 C 0.46832 0.89049 0.57582 0.0
N3734 N 0.45624 0.90492 0.63482 0.0
N3735 N 0.44536 0.89615 0.54277 0.0
H3736 H 0.50069 0.877 0.57112 0.0
H3737 H 0.48468 0.87761 0.54688 0.0
H3738 H 0.43031 0.89965 0.53474 0.0
H3739 H 0.45849 0.89364 0.53166 0.0
H3740 H 0.4449 0.91334 0.64495 0.0
H3741 H 0.47111 0.90147 0.6431 0.0
H3742 H 0.41318 0.90903 0.63281 0.0
H3743 H 0.3986 0.91615 0.60882 0.0
loop_
_geom_bond_atom_site_label_1
_geom_bond_atom_site_label_2
_geom_bond_distance
_geom_bond_site_symmetry_2
_ccdc_geom_bond_type
C0 C1 1.351 . S
C0 N3 1.368 . S
C0 H5 0.931 . S
C1 C0 1.351 . S
C1 N2 1.373 1_455 S
C1 H29 0.930 . S
N2 C1 1.373 1_655 S
N2 C4 1.340 1_655 S
N3 C0 1.368 . S
N3 C4 1.321 . S
N3 Co6 2.135 . S
C4 N2 1.340 1_455 S
C4 N3 1.321 . S
C4 H28 0.930 1_455 S
H5 C0 0.931 . S
Co6 N3 2.135 . S
Co6 N9 2.121 . S
Co6 O14 2.055 . S
Co6 O17 2.039 . S
Co6 N20 2.140 . S
C7 O8 1.227 . S
C7 O17 1.265 . S
O8 C7 1.227 . S
N9 Co6 2.121 . S
N9 C11 1.375 . S
N9 C12 1.313 . S
C10 C11 1.338 . S
C10 N13 1.377 . S
C10 H30 0.930 . S
C11 N9 1.375 . S
C11 C10 1.338 . S
C11 H15 0.931 . S
C12 N9 1.313 . S
C12 N13 1.344 . S
C12 H16 0.930 . S
N13 C10 1.377 . S
N13 C12 1.344 . S
O14 Co6 2.055 . S
O14 C18 1.253 . S
H15 C11 0.931 . S
H16 C12 0.930 . S
O17 Co6 2.039 . S
O17 C7 1.265 . S
C18 O14 1.253 . S
C18 O19 1.227 . S
O19 C18 1.227 . S
N20 Co6 2.140 . S
N20 C23 1.346 . S
N20 C24 1.345 . S
C21 C22 1.387 . S
C21 C25 1.391 . S
C22 C21 1.387 . S
C22 C23 1.369 . S
C22 H31 0.929 . S
C23 N20 1.346 . S
C23 C22 1.369 . S
C23 H26 0.928 . S
C24 N20 1.345 . S
C24 C25 1.371 . S
C24 H27 0.931 . S
C25 C21 1.391 . S
C25 C24 1.371 . S
C25 H32 0.930 . S
H26 C23 0.928 . S
H27 C24 0.931 . S
H28 C4 0.930 1_655 S
H29 C1 0.930 . S
H30 C10 0.930 . S
H31 C22 0.929 . S
H32 C25 0.930 . S
C33 C34 1.351 . S
C33 N36 1.368 . S
C33 H38 0.931 . S
C34 C33 1.351 . S
C34 N35 1.373 1_545 S
C34 H62 0.930 . S
N35 C34 1.373 1_565 S
N35 C37 1.340 1_565 S
N36 C33 1.368 . S
N36 C37 1.321 . S
N36 Co39 2.135 . S
C37 N35 1.340 1_545 S
C37 N36 1.321 . S
C37 H61 0.930 1_545 S
H38 C33 0.931 . S
Co39 N36 2.135 . S
Co39 N42 2.121 . S
Co39 O47 2.055 . S
Co39 O50 2.039 . S
Co39 N53 2.140 . S
C40 O41 1.227 . S
C40 O50 1.265 . S
O41 C40 1.227 . S
N42 Co39 2.121 . S
N42 C44 1.375 . S
N42 C45 1.313 . S
C43 C44 1.338 . S
C43 N46 1.377 . S
C43 H63 0.930 . S
C44 N42 1.375 . S
C44 C43 1.338 . S
C44 H48 0.931 . S
C45 N42 1.313 . S
C45 N46 1.344 . S
C45 H49 0.930 . S
N46 C43 1.377 . S
N46 C45 1.344 . S
O47 Co39 2.055 . S
O47 C51 1.253 . S
H48 C44 0.931 . S
H49 C45 0.930 . S
O50 Co39 2.039 . S
O50 C40 1.265 . S
C51 O47 1.253 . S
C51 O52 1.227 . S
O52 C51 1.227 . S
N53 Co39 2.140 . S
N53 C56 1.346 . S
N53 C57 1.345 . S
C54 C55 1.387 . S
C54 C58 1.391 . S
C55 C54 1.387 . S
C55 C56 1.369 . S
C55 H64 0.929 . S
C56 N53 1.346 . S
C56 C55 1.369 . S
C56 H59 0.928 . S
C57 N53 1.345 . S
C57 C58 1.371 . S
C57 H60 0.931 . S
C58 C54 1.391 . S
C58 C57 1.371 . S
C58 H65 0.930 . S
H59 C56 0.928 . S
H60 C57 0.931 . S
H61 C37 0.930 1_565 S
H62 C34 0.930 . S
H63 C43 0.930 . S
H64 C55 0.929 . S
H65 C58 0.930 . S
C66 C67 1.351 . S
C66 N69 1.368 . S
C66 H71 0.931 . S
C67 C66 1.351 . S
C67 N68 1.373 1_655 S
C67 H95 0.930 . S
N68 C67 1.373 1_455 S
N68 C70 1.340 1_455 S
N69 C66 1.368 . S
N69 C70 1.321 . S
N69 Co72 2.135 . S
C70 N68 1.340 1_655 S
C70 N69 1.321 . S
C70 H94 0.930 1_655 S
H71 C66 0.931 . S
Co72 N69 2.135 . S
Co72 N75 2.121 . S
Co72 O80 2.055 . S
Co72 O83 2.039 . S
Co72 N86 2.140 . S
C73 O74 1.227 . S
C73 O83 1.265 . S
O74 C73 1.227 . S
N75 Co72 2.121 . S
N75 C77 1.375 . S
N75 C78 1.313 . S
C76 C77 1.338 . S
C76 N79 1.377 . S
C76 H96 0.930 . S
C77 N75 1.375 . S
C77 C76 1.338 . S
C77 H81 0.931 . S
C78 N75 1.313 . S
C78 N79 1.344 . S
C78 H82 0.930 . S
N79 C76 1.377 . S
N79 C78 1.344 . S
O80 Co72 2.055 . S
O80 C84 1.253 . S
H81 C77 0.931 . S
H82 C78 0.930 . S
O83 Co72 2.039 . S
O83 C73 1.265 . S
C84 O80 1.253 . S
C84 O85 1.227 . S
O85 C84 1.227 . S
N86 Co72 2.140 . S
N86 C89 1.346 . S
N86 C90 1.345 . S
C87 C88 1.387 . S
C87 C91 1.391 . S
C88 C87 1.387 . S
C88 C89 1.369 . S
C88 H97 0.929 . S
C89 N86 1.346 . S
C89 C88 1.369 . S
C89 H92 0.928 . S
C90 N86 1.345 . S
C90 C91 1.371 . S
C90 H93 0.931 . S
C91 C87 1.391 . S
C91 C90 1.371 . S
C91 H98 0.930 . S
H92 C89 0.928 . S
H93 C90 0.931 . S
H94 C70 0.930 1_455 S
H95 C67 0.930 . S
H96 C76 0.930 . S
H97 C88 0.929 . S
H98 C91 0.930 . S
C99 C100 1.351 . S
C99 N102 1.368 . S
C99 H104 0.931 . S
C100 C99 1.351 . S
C100 N101 1.373 1_565 S
C100 H128 0.930 . S
N101 C100 1.373 1_545 S
N101 C103 1.340 1_545 S
N102 C99 1.368 . S
N102 C103 1.321 . S
N102 Co105 2.135 . S
C103 N101 1.340 1_565 S
C103 N102 1.321 . S
C103 H127 0.930 1_565 S
H104 C99 0.931 . S
Co105 N102 2.135 . S
Co105 N108 2.121 . S
Co105 O113 2.055 . S
Co105 O116 2.039 . S
Co105 N119 2.140 . S
C106 O107 1.227 . S
C106 O116 1.265 . S
O107 C106 1.227 . S
N108 Co105 2.121 . S
N108 C110 1.375 . S
N108 C111 1.313 . S
C109 C110 1.338 . S
C109 N112 1.377 . S
C109 H129 0.930 . S
C110 N108 1.375 . S
C110 C109 1.338 . S
C110 H114 0.931 . S
C111 N108 1.313 . S
C111 N112 1.344 . S
C111 H115 0.930 . S
N112 C109 1.377 . S
N112 C111 1.344 . S
O113 Co105 2.055 . S
O113 C117 1.253 . S
H114 C110 0.931 . S
H115 C111 0.930 . S
O116 Co105 2.039 . S
O116 C106 1.265 . S
C117 O113 1.253 . S
C117 O118 1.227 . S
O118 C117 1.227 . S
N119 Co105 2.140 . S
N119 C122 1.346 . S
N119 C123 1.345 . S
C120 C121 1.387 . S
C120 C124 1.391 . S
C121 C120 1.387 . S
C121 C122 1.369 . S
C121 H130 0.929 . S
C122 N119 1.346 . S
C122 C121 1.369 . S
C122 H125 0.928 . S
C123 N119 1.345 . S
C123 C124 1.371 . S
C123 H126 0.931 . S
C124 C120 1.391 . S
C124 C123 1.371 . S
C124 H131 0.930 . S
H125 C122 0.928 . S
H126 C123 0.931 . S
H127 C103 0.930 1_545 S
H128 C100 0.930 . S
H129 C109 0.930 . S
H130 C121 0.929 . S
H131 C124 0.930 . S
C132 C133 1.351 . S
C132 N135 1.368 . S
C132 H137 0.931 . S
C133 C132 1.351 . S
C133 N134 1.373 1_455 S
C133 H161 0.930 . S
N134 C133 1.373 1_655 S
N134 C136 1.340 1_655 S
N135 C132 1.368 . S
N135 C136 1.321 . S
N135 Co138 2.135 . S
C136 N134 1.340 1_455 S
C136 N135 1.321 . S
C136 H160 0.930 1_455 S
H137 C132 0.931 . S
Co138 N135 2.135 . S
Co138 N141 2.121 . S
Co138 O146 2.055 . S
Co138 O149 2.039 . S
Co138 N152 2.140 . S
C139 O140 1.227 . S
C139 O149 1.265 . S
O140 C139 1.227 . S
N141 Co138 2.121 . S
N141 C143 1.375 . S
N141 C144 1.313 . S
C142 C143 1.338 . S
C142 N145 1.377 . S
C142 H162 0.930 . S
C143 N141 1.375 . S
C143 C142 1.338 . S
C143 H147 0.931 . S
C144 N141 1.313 . S
C144 N145 1.344 . S
C144 H148 0.930 . S
N145 C142 1.377 . S
N145 C144 1.344 . S
O146 Co138 2.055 . S
O146 C150 1.253 . S
H147 C143 0.931 . S
H148 C144 0.930 . S
O149 Co138 2.039 . S
O149 C139 1.265 . S
C150 O146 1.253 . S
C150 O151 1.227 . S
O151 C150 1.227 . S
N152 Co138 2.140 . S
N152 C155 1.346 . S
N152 C156 1.345 . S
C153 C154 1.387 . S
C153 C157 1.391 . S
C154 C153 1.387 . S
C154 C155 1.369 . S
C154 H163 0.929 . S
C155 N152 1.346 . S
C155 C154 1.369 . S
C155 H158 0.928 . S
C156 N152 1.345 . S
C156 C157 1.371 . S
C156 H159 0.931 . S
C157 C153 1.391 . S
C157 C156 1.371 . S
C157 H164 0.930 . S
H158 C155 0.928 . S
H159 C156 0.931 . S
H160 C136 0.930 1_655 S
H161 C133 0.930 . S
H162 C142 0.930 . S
H163 C154 0.929 . S
H164 C157 0.930 . S
C165 C166 1.351 . S
C165 N168 1.368 . S
C165 H170 0.931 . S
C166 C165 1.351 . S
C166 N167 1.373 1_545 S
C166 H194 0.930 . S
N167 C166 1.373 1_565 S
N167 C169 1.340 1_565 S
N168 C165 1.368 . S
N168 C169 1.321 . S
N168 Co171 2.135 . S
C169 N167 1.340 1_545 S
C169 N168 1.321 . S
C169 H193 0.930 1_545 S
H170 C165 0.931 . S
Co171 N168 2.135 . S
Co171 N174 2.121 . S
Co171 O179 2.055 . S
Co171 O182 2.039 . S
Co171 N185 2.140 . S
C172 O173 1.227 . S
C172 O182 1.265 . S
O173 C172 1.227 . S
N174 Co171 2.121 . S
N174 C176 1.375 . S
N174 C177 1.313 . S
C175 C176 1.338 . S
C175 N178 1.377 . S
C175 H195 0.930 . S
C176 N174 1.375 . S
C176 C175 1.338 . S
C176 H180 0.931 . S
C177 N174 1.313 . S
C177 N178 1.344 . S
C177 H181 0.930 . S
N178 C175 1.377 . S
N178 C177 1.344 . S
O179 Co171 2.055 . S
O179 C183 1.253 . S
H180 C176 0.931 . S
H181 C177 0.930 . S
O182 Co171 2.039 . S
O182 C172 1.265 . S
C183 O179 1.253 . S
C183 O184 1.227 . S
O184 C183 1.227 . S
N185 Co171 2.140 . S
N185 C188 1.346 . S
N185 C189 1.345 . S
C186 C187 1.387 . S
C186 C190 1.391 . S
C187 C186 1.387 . S
C187 C188 1.369 . S
C187 H196 0.929 . S
C188 N185 1.346 . S
C188 C187 1.369 . S
C188 H191 0.928 . S
C189 N185 1.345 . S
C189 C190 1.371 . S
C189 H192 0.931 . S
C190 C186 1.391 . S
C190 C189 1.371 . S
C190 H197 0.930 . S
H191 C188 0.928 . S
H192 C189 0.931 . S
H193 C169 0.930 1_565 S
H194 C166 0.930 . S
H195 C175 0.930 . S
H196 C187 0.929 . S
H197 C190 0.930 . S
C198 C199 1.351 . S
C198 N201 1.368 . S
C198 H203 0.931 . S
C199 C198 1.351 . S
C199 N200 1.373 1_655 S
C199 H227 0.930 . S
N200 C199 1.373 1_455 S
N200 C202 1.340 1_455 S
N201 C198 1.368 . S
N201 C202 1.321 . S
N201 Co204 2.135 . S
C202 N200 1.340 1_655 S
C202 N201 1.321 . S
C202 H226 0.930 1_655 S
H203 C198 0.931 . S
Co204 N201 2.135 . S
Co204 N207 2.121 . S
Co204 O212 2.055 . S
Co204 O215 2.039 . S
Co204 N218 2.140 . S
C205 O206 1.227 . S
C205 O215 1.265 . S
O206 C205 1.227 . S
N207 Co204 2.121 . S
N207 C209 1.375 . S
N207 C210 1.313 . S
C208 C209 1.338 . S
C208 N211 1.377 . S
C208 H228 0.930 . S
C209 N207 1.375 . S
C209 C208 1.338 . S
C209 H213 0.931 . S
C210 N207 1.313 . S
C210 N211 1.344 . S
C210 H214 0.930 . S
N211 C208 1.377 . S
N211 C210 1.344 . S
O212 Co204 2.055 . S
O212 C216 1.253 . S
H213 C209 0.931 . S
H214 C210 0.930 . S
O215 Co204 2.039 . S
O215 C205 1.265 . S
C216 O212 1.253 . S
C216 O217 1.227 . S
O217 C216 1.227 . S
N218 Co204 2.140 . S
N218 C221 1.346 . S
N218 C222 1.345 . S
C219 C220 1.387 . S
C219 C223 1.391 . S
C220 C219 1.387 . S
C220 C221 1.369 . S
C220 H229 0.929 . S
C221 N218 1.346 . S
C221 C220 1.369 . S
C221 H224 0.928 . S
C222 N218 1.345 . S
C222 C223 1.371 . S
C222 H225 0.931 . S
C223 C219 1.391 . S
C223 C222 1.371 . S
C223 H230 0.930 . S
H224 C221 0.928 . S
H225 C222 0.931 . S
H226 C202 0.930 1_455 S
H227 C199 0.930 . S
H228 C208 0.930 . S
H229 C220 0.929 . S
H230 C223 0.930 . S
C231 C232 1.351 . S
C231 N234 1.368 . S
C231 H236 0.931 . S
C232 C231 1.351 . S
C232 N233 1.373 1_565 S
C232 H260 0.930 . S
N233 C232 1.373 1_545 S
N233 C235 1.340 1_545 S
N234 C231 1.368 . S
N234 C235 1.321 . S
N234 Co237 2.135 . S
C235 N233 1.340 1_565 S
C235 N234 1.321 . S
C235 H259 0.930 1_565 S
H236 C231 0.931 . S
Co237 N234 2.135 . S
Co237 N240 2.121 . S
Co237 O245 2.055 . S
Co237 O248 2.039 . S
Co237 N251 2.140 . S
C238 O239 1.227 . S
C238 O248 1.265 . S
O239 C238 1.227 . S
N240 Co237 2.121 . S
N240 C242 1.375 . S
N240 C243 1.313 . S
C241 C242 1.338 . S
C241 N244 1.377 . S
C241 H261 0.930 . S
C242 N240 1.375 . S
C242 C241 1.338 . S
C242 H246 0.931 . S
C243 N240 1.313 . S
C243 N244 1.344 . S
C243 H247 0.930 . S
N244 C241 1.377 . S
N244 C243 1.344 . S
O245 Co237 2.055 . S
O245 C249 1.253 . S
H246 C242 0.931 . S
H247 C243 0.930 . S
O248 Co237 2.039 . S
O248 C238 1.265 . S
C249 O245 1.253 . S
C249 O250 1.227 . S
O250 C249 1.227 . S
N251 Co237 2.140 . S
N251 C254 1.346 . S
N251 C255 1.345 . S
C252 C253 1.387 . S
C252 C256 1.391 . S
C253 C252 1.387 . S
C253 C254 1.369 . S
C253 H262 0.929 . S
C254 N251 1.346 . S
C254 C253 1.369 . S
C254 H257 0.928 . S
C255 N251 1.345 . S
C255 C256 1.371 . S
C255 H258 0.931 . S
C256 C252 1.391 . S
C256 C255 1.371 . S
C256 H263 0.930 . S
H257 C254 0.928 . S
H258 C255 0.931 . S
H259 C235 0.930 1_545 S
H260 C232 0.930 . S
H261 C241 0.930 . S
H262 C253 0.929 . S
H263 C256 0.930 . S
C264 C265 1.351 . S
C264 N267 1.368 . S
C264 H269 0.931 . S
C265 C264 1.351 . S
C265 N266 1.373 1_545 S
C265 H293 0.930 . S
N266 C265 1.373 1_565 S
N266 C268 1.340 1_565 S
N267 C264 1.368 . S
N267 C268 1.321 . S
N267 Co270 2.135 . S
C268 N266 1.340 1_545 S
C268 N267 1.321 . S
C268 H292 0.930 1_545 S
H269 C264 0.931 . S
Co270 N267 2.135 . S
Co270 N273 2.121 . S
Co270 O278 2.055 . S
Co270 O281 2.039 . S
Co270 N284 2.140 . S
C271 O272 1.227 . S
C271 O281 1.265 . S
O272 C271 1.227 . S
N273 Co270 2.121 . S
N273 C275 1.375 . S
N273 C276 1.313 . S
C274 C275 1.338 . S
C274 N277 1.377 . S
C274 H294 0.930 . S
C275 N273 1.375 . S
C275 C274 1.338 . S
C275 H279 0.931 . S
C276 N273 1.313 . S
C276 N277 1.344 . S
C276 H280 0.930 . S
N277 C274 1.377 . S
N277 C276 1.344 . S
O278 Co270 2.055 . S
O278 C282 1.253 . S
H279 C275 0.931 . S
H280 C276 0.930 . S
O281 Co270 2.039 . S
O281 C271 1.265 . S
C282 O278 1.253 . S
C282 O283 1.227 . S
O283 C282 1.227 . S
N284 Co270 2.140 . S
N284 C287 1.346 . S
N284 C288 1.345 . S
C285 C286 1.387 . S
C285 C289 1.391 . S
C286 C285 1.387 . S
C286 C287 1.369 . S
C286 H295 0.929 . S
C287 N284 1.346 . S
C287 C286 1.369 . S
C287 H290 0.928 . S
C288 N284 1.345 . S
C288 C289 1.371 . S
C288 H291 0.931 . S
C289 C285 1.391 . S
C289 C288 1.371 . S
C289 H296 0.930 . S
H290 C287 0.928 . S
H291 C288 0.931 . S
H292 C268 0.930 1_565 S
H293 C265 0.930 . S
H294 C274 0.930 . S
H295 C286 0.929 . S
H296 C289 0.930 . S
C297 C298 1.351 . S
C297 N300 1.368 . S
C297 H302 0.931 . S
C298 C297 1.351 . S
C298 N299 1.373 1_655 S
C298 H326 0.930 . S
N299 C298 1.373 1_455 S
N299 C301 1.340 1_455 S
N300 C297 1.368 . S
N300 C301 1.321 . S
N300 Co303 2.135 . S
C301 N299 1.340 1_655 S
C301 N300 1.321 . S
C301 H325 0.930 1_655 S
H302 C297 0.931 . S
Co303 N300 2.135 . S
Co303 N306 2.121 . S
Co303 O311 2.055 . S
Co303 O314 2.039 . S
Co303 N317 2.140 . S
C304 O305 1.227 . S
C304 O314 1.265 . S
O305 C304 1.227 . S
N306 Co303 2.121 . S
N306 C308 1.375 . S
N306 C309 1.313 . S
C307 C308 1.338 . S
C307 N310 1.377 . S
C307 H327 0.930 . S
C308 N306 1.375 . S
C308 C307 1.338 . S
C308 H312 0.931 . S
C309 N306 1.313 . S
C309 N310 1.344 . S
C309 H313 0.930 . S
N310 C307 1.377 . S
N310 C309 1.344 . S
O311 Co303 2.055 . S
O311 C315 1.253 . S
H312 C308 0.931 . S
H313 C309 0.930 . S
O314 Co303 2.039 . S
O314 C304 1.265 . S
C315 O311 1.253 . S
C315 O316 1.227 . S
O316 C315 1.227 . S
N317 Co303 2.140 . S
N317 C320 1.346 . S
N317 C321 1.345 . S
C318 C319 1.387 . S
C318 C322 1.391 . S
C319 C318 1.387 . S
C319 C320 1.369 . S
C319 H328 0.929 . S
C320 N317 1.346 . S
C320 C319 1.369 . S
C320 H323 0.928 . S
C321 N317 1.345 . S
C321 C322 1.371 . S
C321 H324 0.931 . S
C322 C318 1.391 . S
C322 C321 1.371 . S
C322 H329 0.930 . S
H323 C320 0.928 . S
H324 C321 0.931 . S
H325 C301 0.930 1_455 S
H326 C298 0.930 . S
H327 C307 0.930 . S
H328 C319 0.929 . S
H329 C322 0.930 . S
C330 C331 1.351 . S
C330 N333 1.368 . S
C330 H335 0.931 . S
C331 C330 1.351 . S
C331 N332 1.373 1_565 S
C331 H359 0.930 . S
N332 C331 1.373 1_545 S
N332 C334 1.340 1_545 S
N333 C330 1.368 . S
N333 C334 1.321 . S
N333 Co336 2.135 . S
C334 N332 1.340 1_565 S
C334 N333 1.321 . S
C334 H358 0.930 1_565 S
H335 C330 0.931 . S
Co336 N333 2.135 . S
Co336 N339 2.121 . S
Co336 O344 2.055 . S
Co336 O347 2.039 . S
Co336 N350 2.140 . S
C337 O338 1.227 . S
C337 O347 1.265 . S
O338 C337 1.227 . S
N339 Co336 2.121 . S
N339 C341 1.375 . S
N339 C342 1.313 . S
C340 C341 1.338 . S
C340 N343 1.377 . S
C340 H360 0.930 . S
C341 N339 1.375 . S
C341 C340 1.338 . S
C341 H345 0.931 . S
C342 N339 1.313 . S
C342 N343 1.344 . S
C342 H346 0.930 . S
N343 C340 1.377 . S
N343 C342 1.344 . S
O344 Co336 2.055 . S
O344 C348 1.253 . S
H345 C341 0.931 . S
H346 C342 0.930 . S
O347 Co336 2.039 . S
O347 C337 1.265 . S
C348 O344 1.253 . S
C348 O349 1.227 . S
O349 C348 1.227 . S
N350 Co336 2.140 . S
N350 C353 1.346 . S
N350 C354 1.345 . S
C351 C352 1.387 . S
C351 C355 1.391 . S
C352 C351 1.387 . S
C352 C353 1.369 . S
C352 H361 0.929 . S
C353 N350 1.346 . S
C353 C352 1.369 . S
C353 H356 0.928 . S
C354 N350 1.345 . S
C354 C355 1.371 . S
C354 H357 0.931 . S
C355 C351 1.391 . S
C355 C354 1.371 . S
C355 H362 0.930 . S
H356 C353 0.928 . S
H357 C354 0.931 . S
H358 C334 0.930 1_545 S
H359 C331 0.930 . S
H360 C340 0.930 . S
H361 C352 0.929 . S
H362 C355 0.930 . S
C363 C364 1.351 . S
C363 N366 1.368 . S
C363 H368 0.931 . S
C364 C363 1.351 . S
C364 N365 1.373 1_455 S
C364 H392 0.930 . S
N365 C364 1.373 1_655 S
N365 C367 1.340 1_655 S
N366 C363 1.368 . S
N366 C367 1.321 . S
N366 Co369 2.135 . S
C367 N365 1.340 1_455 S
C367 N366 1.321 . S
C367 H391 0.930 1_455 S
H368 C363 0.931 . S
Co369 N366 2.135 . S
Co369 N372 2.121 . S
Co369 O377 2.055 . S
Co369 O380 2.039 . S
Co369 N383 2.140 . S
C370 O371 1.227 . S
C370 O380 1.265 . S
O371 C370 1.227 . S
N372 Co369 2.121 . S
N372 C374 1.375 . S
N372 C375 1.313 . S
C373 C374 1.338 . S
C373 N376 1.377 . S
C373 H393 0.930 . S
C374 N372 1.375 . S
C374 C373 1.338 . S
C374 H378 0.931 . S
C375 N372 1.313 . S
C375 N376 1.344 . S
C375 H379 0.930 . S
N376 C373 1.377 . S
N376 C375 1.344 . S
O377 Co369 2.055 . S
O377 C381 1.253 . S
H378 C374 0.931 . S
H379 C375 0.930 . S
O380 Co369 2.039 . S
O380 C370 1.265 . S
C381 O377 1.253 . S
C381 O382 1.227 . S
O382 C381 1.227 . S
N383 Co369 2.140 . S
N383 C386 1.346 . S
N383 C387 1.345 . S
C384 C385 1.387 . S
C384 C388 1.391 . S
C385 C384 1.387 . S
C385 C386 1.369 . S
C385 H394 0.929 . S
C386 N383 1.346 . S
C386 C385 1.369 . S
C386 H389 0.928 . S
C387 N383 1.345 . S
C387 C388 1.371 . S
C387 H390 0.931 . S
C388 C384 1.391 . S
C388 C387 1.371 . S
C388 H395 0.930 . S
H389 C386 0.928 . S
H390 C387 0.931 . S
H391 C367 0.930 1_655 S
H392 C364 0.930 . S
H393 C373 0.930 . S
H394 C385 0.929 . S
H395 C388 0.930 . S
C396 C397 1.351 . S
C396 N399 1.368 . S
C396 H401 0.931 . S
C397 C396 1.351 . S
C397 N398 1.373 1_565 S
C397 H425 0.930 . S
N398 C397 1.373 1_545 S
N398 C400 1.340 1_545 S
N399 C396 1.368 . S
N399 C400 1.321 . S
N399 Co402 2.135 . S
C400 N398 1.340 1_565 S
C400 N399 1.321 . S
C400 H424 0.930 1_565 S
H401 C396 0.931 . S
Co402 N399 2.135 . S
Co402 N405 2.121 . S
Co402 O410 2.055 . S
Co402 O413 2.039 . S
Co402 N416 2.140 . S
C403 O404 1.227 . S
C403 O413 1.265 . S
O404 C403 1.227 . S
N405 Co402 2.121 . S
N405 C407 1.375 . S
N405 C408 1.313 . S
C406 C407 1.338 . S
C406 N409 1.377 . S
C406 H426 0.930 . S
C407 N405 1.375 . S
C407 C406 1.338 . S
C407 H411 0.931 . S
C408 N405 1.313 . S
C408 N409 1.344 . S
C408 H412 0.930 . S
N409 C406 1.377 . S
N409 C408 1.344 . S
O410 Co402 2.055 . S
O410 C414 1.253 . S
H411 C407 0.931 . S
H412 C408 0.930 . S
O413 Co402 2.039 . S
O413 C403 1.265 . S
C414 O410 1.253 . S
C414 O415 1.227 . S
O415 C414 1.227 . S
N416 Co402 2.140 . S
N416 C419 1.346 . S
N416 C420 1.345 . S
C417 C418 1.387 . S
C417 C421 1.391 . S
C418 C417 1.387 . S
C418 C419 1.369 . S
C418 H427 0.929 . S
C419 N416 1.346 . S
C419 C418 1.369 . S
C419 H422 0.928 . S
C420 N416 1.345 . S
C420 C421 1.371 . S
C420 H423 0.931 . S
C421 C417 1.391 . S
C421 C420 1.371 . S
C421 H428 0.930 . S
H422 C419 0.928 . S
H423 C420 0.931 . S
H424 C400 0.930 1_545 S
H425 C397 0.930 . S
H426 C406 0.930 . S
H427 C418 0.929 . S
H428 C421 0.930 . S
C429 C430 1.351 . S
C429 N432 1.368 . S
C429 H434 0.931 . S
C430 C429 1.351 . S
C430 N431 1.373 1_455 S
C430 H458 0.930 . S
N431 C430 1.373 1_655 S
N431 C433 1.340 1_655 S
N432 C429 1.368 . S
N432 C433 1.321 . S
N432 Co435 2.135 . S
C433 N431 1.340 1_455 S
C433 N432 1.321 . S
C433 H457 0.930 1_455 S
H434 C429 0.931 . S
Co435 N432 2.135 . S
Co435 N438 2.121 . S
Co435 O443 2.055 . S
Co435 O446 2.039 . S
Co435 N449 2.140 . S
C436 O437 1.227 . S
C436 O446 1.265 . S
O437 C436 1.227 . S
N438 Co435 2.121 . S
N438 C440 1.375 . S
N438 C441 1.313 . S
C439 C440 1.338 . S
C439 N442 1.377 . S
C439 H459 0.930 . S
C440 N438 1.375 . S
C440 C439 1.338 . S
C440 H444 0.931 . S
C441 N438 1.313 . S
C441 N442 1.344 . S
C441 H445 0.930 . S
N442 C439 1.377 . S
N442 C441 1.344 . S
O443 Co435 2.055 . S
O443 C447 1.253 . S
H444 C440 0.931 . S
H445 C441 0.930 . S
O446 Co435 2.039 . S
O446 C436 1.265 . S
C447 O443 1.253 . S
C447 O448 1.227 . S
O448 C447 1.227 . S
N449 Co435 2.140 . S
N449 C452 1.346 . S
N449 C453 1.345 . S
C450 C451 1.387 . S
C450 C454 1.391 . S
C451 C450 1.387 . S
C451 C452 1.369 . S
C451 H460 0.929 . S
C452 N449 1.346 . S
C452 C451 1.369 . S
C452 H455 0.928 . S
C453 N449 1.345 . S
C453 C454 1.371 . S
C453 H456 0.931 . S
C454 C450 1.391 . S
C454 C453 1.371 . S
C454 H461 0.930 . S
H455 C452 0.928 . S
H456 C453 0.931 . S
H457 C433 0.930 1_655 S
H458 C430 0.930 . S
H459 C439 0.930 . S
H460 C451 0.929 . S
H461 C454 0.930 . S
C462 C463 1.351 . S
C462 N465 1.368 . S
C462 H467 0.931 . S
C463 C462 1.351 . S
C463 N464 1.373 1_545 S
C463 H491 0.930 . S
N464 C463 1.373 1_565 S
N464 C466 1.340 1_565 S
N465 C462 1.368 . S
N465 C466 1.321 . S
N465 Co468 2.135 . S
C466 N464 1.340 1_545 S
C466 N465 1.321 . S
C466 H490 0.930 1_545 S
H467 C462 0.931 . S
Co468 N465 2.135 . S
Co468 N471 2.121 . S
Co468 O476 2.055 . S
Co468 O479 2.039 . S
Co468 N482 2.140 . S
C469 O470 1.227 . S
C469 O479 1.265 . S
O470 C469 1.227 . S
N471 Co468 2.121 . S
N471 C473 1.375 . S
N471 C474 1.313 . S
C472 C473 1.338 . S
C472 N475 1.377 . S
C472 H492 0.930 . S
C473 N471 1.375 . S
C473 C472 1.338 . S
C473 H477 0.931 . S
C474 N471 1.313 . S
C474 N475 1.344 . S
C474 H478 0.930 . S
N475 C472 1.377 . S
N475 C474 1.344 . S
O476 Co468 2.055 . S
O476 C480 1.253 . S
H477 C473 0.931 . S
H478 C474 0.930 . S
O479 Co468 2.039 . S
O479 C469 1.265 . S
C480 O476 1.253 . S
C480 O481 1.227 . S
O481 C480 1.227 . S
N482 Co468 2.140 . S
N482 C485 1.346 . S
N482 C486 1.345 . S
C483 C484 1.387 . S
C483 C487 1.391 . S
C484 C483 1.387 . S
C484 C485 1.369 . S
C484 H493 0.929 . S
C485 N482 1.346 . S
C485 C484 1.369 . S
C485 H488 0.928 . S
C486 N482 1.345 . S
C486 C487 1.371 . S
C486 H489 0.931 . S
C487 C483 1.391 . S
C487 C486 1.371 . S
C487 H494 0.930 . S
H488 C485 0.928 . S
H489 C486 0.931 . S
H490 C466 0.930 1_565 S
H491 C463 0.930 . S
H492 C472 0.930 . S
H493 C484 0.929 . S
H494 C487 0.930 . S
C495 C496 1.351 . S
C495 N498 1.368 . S
C495 H500 0.931 . S
C496 C495 1.351 . S
C496 N497 1.373 1_655 S
C496 H524 0.930 . S
N497 C496 1.373 1_455 S
N497 C499 1.340 1_455 S
N498 C495 1.368 . S
N498 C499 1.321 . S
N498 Co501 2.135 . S
C499 N497 1.340 1_655 S
C499 N498 1.321 . S
C499 H523 0.930 1_655 S
H500 C495 0.931 . S
Co501 N498 2.135 . S
Co501 N504 2.121 . S
Co501 O509 2.055 . S
Co501 O512 2.039 . S
Co501 N515 2.140 . S
C502 O503 1.227 . S
C502 O512 1.265 . S
O503 C502 1.227 . S
N504 Co501 2.121 . S
N504 C506 1.375 . S
N504 C507 1.313 . S
C505 C506 1.338 . S
C505 N508 1.377 . S
C505 H525 0.930 . S
C506 N504 1.375 . S
C506 C505 1.338 . S
C506 H510 0.931 . S
C507 N504 1.313 . S
C507 N508 1.344 . S
C507 H511 0.930 . S
N508 C505 1.377 . S
N508 C507 1.344 . S
O509 Co501 2.055 . S
O509 C513 1.253 . S
H510 C506 0.931 . S
H511 C507 0.930 . S
O512 Co501 2.039 . S
O512 C502 1.265 . S
C513 O509 1.253 . S
C513 O514 1.227 . S
O514 C513 1.227 . S
N515 Co501 2.140 . S
N515 C518 1.346 . S
N515 C519 1.345 . S
C516 C517 1.387 . S
C516 C520 1.391 . S
C517 C516 1.387 . S
C517 C518 1.369 . S
C517 H526 0.929 . S
C518 N515 1.346 . S
C518 C517 1.369 . S
C518 H521 0.928 . S
C519 N515 1.345 . S
C519 C520 1.371 . S
C519 H522 0.931 . S
C520 C516 1.391 . S
C520 C519 1.371 . S
C520 H527 0.930 . S
H521 C518 0.928 . S
H522 C519 0.931 . S
H523 C499 0.930 1_455 S
H524 C496 0.930 . S
H525 C505 0.930 . S
H526 C517 0.929 . S
H527 C520 0.930 . S
C528 C529 1.351 . S
C528 N531 1.368 . S
C528 H533 0.931 . S
C529 C528 1.351 . S
C529 N530 1.373 1_554 S
C529 H557 0.930 . S
N530 C529 1.373 1_556 S
N530 C532 1.340 1_556 S
N531 C528 1.368 . S
N531 C532 1.321 . S
N531 Co534 2.135 . S
C532 N530 1.340 1_554 S
C532 N531 1.321 . S
C532 H556 0.930 1_554 S
H533 C528 0.931 . S
Co534 N531 2.135 . S
Co534 N537 2.121 . S
Co534 O542 2.055 . S
Co534 O545 2.039 . S
Co534 N548 2.140 . S
C535 O536 1.227 . S
C535 O545 1.265 . S
O536 C535 1.227 . S
N537 Co534 2.121 . S
N537 C539 1.375 . S
N537 C540 1.313 . S
C538 C539 1.338 . S
C538 N541 1.377 . S
C538 H558 0.930 . S
C539 N537 1.375 . S
C539 C538 1.338 . S
C539 H543 0.931 . S
C540 N537 1.313 . S
C540 N541 1.344 . S
C540 H544 0.930 . S
N541 C538 1.377 . S
N541 C540 1.344 . S
O542 Co534 2.055 . S
O542 C546 1.253 . S
H543 C539 0.931 . S
H544 C540 0.930 . S
O545 Co534 2.039 . S
O545 C535 1.265 . S
C546 O542 1.253 . S
C546 O547 1.227 . S
O547 C546 1.227 . S
N548 Co534 2.140 . S
N548 C551 1.346 . S
N548 C552 1.345 . S
C549 C550 1.387 . S
C549 C553 1.391 . S
C550 C549 1.387 . S
C550 C551 1.369 . S
C550 H559 0.929 . S
C551 N548 1.346 . S
C551 C550 1.369 . S
C551 H554 0.928 . S
C552 N548 1.345 . S
C552 C553 1.371 . S
C552 H555 0.931 . S
C553 C549 1.391 . S
C553 C552 1.371 . S
C553 H560 0.930 . S
H554 C551 0.928 . S
H555 C552 0.931 . S
H556 C532 0.930 1_556 S
H557 C529 0.930 . S
H558 C538 0.930 . S
H559 C550 0.929 . S
H560 C553 0.930 . S
C561 C562 1.351 . S
C561 N564 1.368 . S
C561 H566 0.931 . S
C562 C561 1.351 . S
C562 N563 1.373 1_556 S
C562 H590 0.930 . S
N563 C562 1.373 1_554 S
N563 C565 1.340 1_554 S
N564 C561 1.368 . S
N564 C565 1.321 . S
N564 Co567 2.135 . S
C565 N563 1.340 1_556 S
C565 N564 1.321 . S
C565 H589 0.930 1_556 S
H566 C561 0.931 . S
Co567 N564 2.135 . S
Co567 N570 2.121 . S
Co567 O575 2.055 . S
Co567 O578 2.039 . S
Co567 N581 2.140 . S
C568 O569 1.227 . S
C568 O578 1.265 . S
O569 C568 1.227 . S
N570 Co567 2.121 . S
N570 C572 1.375 . S
N570 C573 1.313 . S
C571 C572 1.338 . S
C571 N574 1.377 . S
C571 H591 0.930 . S
C572 N570 1.375 . S
C572 C571 1.338 . S
C572 H576 0.931 . S
C573 N570 1.313 . S
C573 N574 1.344 . S
C573 H577 0.930 . S
N574 C571 1.377 . S
N574 C573 1.344 . S
O575 Co567 2.055 . S
O575 C579 1.253 . S
H576 C572 0.931 . S
H577 C573 0.930 . S
O578 Co567 2.039 . S
O578 C568 1.265 . S
C579 O575 1.253 . S
C579 O580 1.227 . S
O580 C579 1.227 . S
N581 Co567 2.140 . S
N581 C584 1.346 . S
N581 C585 1.345 . S
C582 C583 1.387 . S
C582 C586 1.391 . S
C583 C582 1.387 . S
C583 C584 1.369 . S
C583 H592 0.929 . S
C584 N581 1.346 . S
C584 C583 1.369 . S
C584 H587 0.928 . S
C585 N581 1.345 . S
C585 C586 1.371 . S
C585 H588 0.931 . S
C586 C582 1.391 . S
C586 C585 1.371 . S
C586 H593 0.930 . S
H587 C584 0.928 . S
H588 C585 0.931 . S
H589 C565 0.930 1_554 S
H590 C562 0.930 . S
H591 C571 0.930 . S
H592 C583 0.929 . S
H593 C586 0.930 . S
C594 C595 1.351 . S
C594 N597 1.368 . S
C594 H599 0.931 . S
C595 C594 1.351 . S
C595 N596 1.373 1_556 S
C595 H623 0.930 . S
N596 C595 1.373 1_554 S
N596 C598 1.340 1_554 S
N597 C594 1.368 . S
N597 C598 1.321 . S
N597 Co600 2.135 . S
C598 N596 1.340 1_556 S
C598 N597 1.321 . S
C598 H622 0.930 1_556 S
H599 C594 0.931 . S
Co600 N597 2.135 . S
Co600 N603 2.121 . S
Co600 O608 2.055 . S
Co600 O611 2.039 . S
Co600 N614 2.140 . S
C601 O602 1.227 . S
C601 O611 1.265 . S
O602 C601 1.227 . S
N603 Co600 2.121 . S
N603 C605 1.375 . S
N603 C606 1.313 . S
C604 C605 1.338 . S
C604 N607 1.377 . S
C604 H624 0.930 . S
C605 N603 1.375 . S
C605 C604 1.338 . S
C605 H609 0.931 . S
C606 N603 1.313 . S
C606 N607 1.344 . S
C606 H610 0.930 . S
N607 C604 1.377 . S
N607 C606 1.344 . S
O608 Co600 2.055 . S
O608 C612 1.253 . S
H609 C605 0.931 . S
H610 C606 0.930 . S
O611 Co600 2.039 . S
O611 C601 1.265 . S
C612 O608 1.253 . S
C612 O613 1.227 . S
O613 C612 1.227 . S
N614 Co600 2.140 . S
N614 C617 1.346 . S
N614 C618 1.345 . S
C615 C616 1.387 . S
C615 C619 1.391 . S
C616 C615 1.387 . S
C616 C617 1.369 . S
C616 H625 0.929 . S
C617 N614 1.346 . S
C617 C616 1.369 . S
C617 H620 0.928 . S
C618 N614 1.345 . S
C618 C619 1.371 . S
C618 H621 0.931 . S
C619 C615 1.391 . S
C619 C618 1.371 . S
C619 H626 0.930 . S
H620 C617 0.928 . S
H621 C618 0.931 . S
H622 C598 0.930 1_554 S
H623 C595 0.930 . S
H624 C604 0.930 . S
H625 C616 0.929 . S
H626 C619 0.930 . S
C627 C628 1.351 . S
C627 N630 1.368 . S
C627 H632 0.931 . S
C628 C627 1.351 . S
C628 N629 1.373 1_556 S
C628 H656 0.930 . S
N629 C628 1.373 1_554 S
N629 C631 1.340 1_554 S
N630 C627 1.368 . S
N630 C631 1.321 . S
N630 Co633 2.135 . S
C631 N629 1.340 1_556 S
C631 N630 1.321 . S
C631 H655 0.930 1_556 S
H632 C627 0.931 . S
Co633 N630 2.135 . S
Co633 N636 2.121 . S
Co633 O641 2.055 . S
Co633 O644 2.039 . S
Co633 N647 2.140 . S
C634 O635 1.227 . S
C634 O644 1.265 . S
O635 C634 1.227 . S
N636 Co633 2.121 . S
N636 C638 1.375 . S
N636 C639 1.313 . S
C637 C638 1.338 . S
C637 N640 1.377 . S
C637 H657 0.930 . S
C638 N636 1.375 . S
C638 C637 1.338 . S
C638 H642 0.931 . S
C639 N636 1.313 . S
C639 N640 1.344 . S
C639 H643 0.930 . S
N640 C637 1.377 . S
N640 C639 1.344 . S
O641 Co633 2.055 . S
O641 C645 1.253 . S
H642 C638 0.931 . S
H643 C639 0.930 . S
O644 Co633 2.039 . S
O644 C634 1.265 . S
C645 O641 1.253 . S
C645 O646 1.227 . S
O646 C645 1.227 . S
N647 Co633 2.140 . S
N647 C650 1.346 . S
N647 C651 1.345 . S
C648 C649 1.387 . S
C648 C652 1.391 . S
C649 C648 1.387 . S
C649 C650 1.369 . S
C649 H658 0.929 . S
C650 N647 1.346 . S
C650 C649 1.369 . S
C650 H653 0.928 . S
C651 N647 1.345 . S
C651 C652 1.371 . S
C651 H654 0.931 . S
C652 C648 1.391 . S
C652 C651 1.371 . S
C652 H659 0.930 . S
H653 C650 0.928 . S
H654 C651 0.931 . S
H655 C631 0.930 1_554 S
H656 C628 0.930 . S
H657 C637 0.930 . S
H658 C649 0.929 . S
H659 C652 0.930 . S
C660 C661 1.351 . S
C660 N663 1.368 . S
C660 H665 0.931 . S
C661 C660 1.351 . S
C661 N662 1.373 1_556 S
C661 H689 0.930 . S
N662 C661 1.373 1_554 S
N662 C664 1.340 1_554 S
N663 C660 1.368 . S
N663 C664 1.321 . S
N663 Co666 2.135 . S
C664 N662 1.340 1_556 S
C664 N663 1.321 . S
C664 H688 0.930 1_556 S
H665 C660 0.931 . S
Co666 N663 2.135 . S
Co666 N669 2.121 . S
Co666 O674 2.055 . S
Co666 O677 2.039 . S
Co666 N680 2.140 . S
C667 O668 1.227 . S
C667 O677 1.265 . S
O668 C667 1.227 . S
N669 Co666 2.121 . S
N669 C671 1.375 . S
N669 C672 1.313 . S
C670 C671 1.338 . S
C670 N673 1.377 . S
C670 H690 0.930 . S
C671 N669 1.375 . S
C671 C670 1.338 . S
C671 H675 0.931 . S
C672 N669 1.313 . S
C672 N673 1.344 . S
C672 H676 0.930 . S
N673 C670 1.377 . S
N673 C672 1.344 . S
O674 Co666 2.055 . S
O674 C678 1.253 . S
H675 C671 0.931 . S
H676 C672 0.930 . S
O677 Co666 2.039 . S
O677 C667 1.265 . S
C678 O674 1.253 . S
C678 O679 1.227 . S
O679 C678 1.227 . S
N680 Co666 2.140 . S
N680 C683 1.346 . S
N680 C684 1.345 . S
C681 C682 1.387 . S
C681 C685 1.391 . S
C682 C681 1.387 . S
C682 C683 1.369 . S
C682 H691 0.929 . S
C683 N680 1.346 . S
C683 C682 1.369 . S
C683 H686 0.928 . S
C684 N680 1.345 . S
C684 C685 1.371 . S
C684 H687 0.931 . S
C685 C681 1.391 . S
C685 C684 1.371 . S
C685 H692 0.930 . S
H686 C683 0.928 . S
H687 C684 0.931 . S
H688 C664 0.930 1_554 S
H689 C661 0.930 . S
H690 C670 0.930 . S
H691 C682 0.929 . S
H692 C685 0.930 . S
C693 C694 1.351 . S
C693 N696 1.368 . S
C693 H698 0.931 . S
C694 C693 1.351 . S
C694 N695 1.373 1_554 S
C694 H722 0.930 . S
N695 C694 1.373 1_556 S
N695 C697 1.340 1_556 S
N696 C693 1.368 . S
N696 C697 1.321 . S
N696 Co699 2.135 . S
C697 N695 1.340 1_554 S
C697 N696 1.321 . S
C697 H721 0.930 1_554 S
H698 C693 0.931 . S
Co699 N696 2.135 . S
Co699 N702 2.121 . S
Co699 O707 2.055 . S
Co699 O710 2.039 . S
Co699 N713 2.140 . S
C700 O701 1.227 . S
C700 O710 1.265 . S
O701 C700 1.227 . S
N702 Co699 2.121 . S
N702 C704 1.375 . S
N702 C705 1.313 . S
C703 C704 1.338 . S
C703 N706 1.377 . S
C703 H723 0.930 . S
C704 N702 1.375 . S
C704 C703 1.338 . S
C704 H708 0.931 . S
C705 N702 1.313 . S
C705 N706 1.344 . S
C705 H709 0.930 . S
N706 C703 1.377 . S
N706 C705 1.344 . S
O707 Co699 2.055 . S
O707 C711 1.253 . S
H708 C704 0.931 . S
H709 C705 0.930 . S
O710 Co699 2.039 . S
O710 C700 1.265 . S
C711 O707 1.253 . S
C711 O712 1.227 . S
O712 C711 1.227 . S
N713 Co699 2.140 . S
N713 C716 1.346 . S
N713 C717 1.345 . S
C714 C715 1.387 . S
C714 C718 1.391 . S
C715 C714 1.387 . S
C715 C716 1.369 . S
C715 H724 0.929 . S
C716 N713 1.346 . S
C716 C715 1.369 . S
C716 H719 0.928 . S
C717 N713 1.345 . S
C717 C718 1.371 . S
C717 H720 0.931 . S
C718 C714 1.391 . S
C718 C717 1.371 . S
C718 H725 0.930 . S
H719 C716 0.928 . S
H720 C717 0.931 . S
H721 C697 0.930 1_556 S
H722 C694 0.930 . S
H723 C703 0.930 . S
H724 C715 0.929 . S
H725 C718 0.930 . S
C726 C727 1.351 . S
C726 N729 1.368 . S
C726 H731 0.931 . S
C727 C726 1.351 . S
C727 N728 1.373 1_554 S
C727 H755 0.930 . S
N728 C727 1.373 1_556 S
N728 C730 1.340 1_556 S
N729 C726 1.368 . S
N729 C730 1.321 . S
N729 Co732 2.135 . S
C730 N728 1.340 1_554 S
C730 N729 1.321 . S
C730 H754 0.930 1_554 S
H731 C726 0.931 . S
Co732 N729 2.135 . S
Co732 N735 2.121 . S
Co732 O740 2.055 . S
Co732 O743 2.039 . S
Co732 N746 2.140 . S
C733 O734 1.227 . S
C733 O743 1.265 . S
O734 C733 1.227 . S
N735 Co732 2.121 . S
N735 C737 1.375 . S
N735 C738 1.313 . S
C736 C737 1.338 . S
C736 N739 1.377 . S
C736 H756 0.930 . S
C737 N735 1.375 . S
C737 C736 1.338 . S
C737 H741 0.931 . S
C738 N735 1.313 . S
C738 N739 1.344 . S
C738 H742 0.930 . S
N739 C736 1.377 . S
N739 C738 1.344 . S
O740 Co732 2.055 . S
O740 C744 1.253 . S
H741 C737 0.931 . S
H742 C738 0.930 . S
O743 Co732 2.039 . S
O743 C733 1.265 . S
C744 O740 1.253 . S
C744 O745 1.227 . S
O745 C744 1.227 . S
N746 Co732 2.140 . S
N746 C749 1.346 . S
N746 C750 1.345 . S
C747 C748 1.387 . S
C747 C751 1.391 . S
C748 C747 1.387 . S
C748 C749 1.369 . S
C748 H757 0.929 . S
C749 N746 1.346 . S
C749 C748 1.369 . S
C749 H752 0.928 . S
C750 N746 1.345 . S
C750 C751 1.371 . S
C750 H753 0.931 . S
C751 C747 1.391 . S
C751 C750 1.371 . S
C751 H758 0.930 . S
H752 C749 0.928 . S
H753 C750 0.931 . S
H754 C730 0.930 1_556 S
H755 C727 0.930 . S
H756 C736 0.930 . S
H757 C748 0.929 . S
H758 C751 0.930 . S
C759 C760 1.351 . S
C759 N762 1.368 . S
C759 H764 0.931 . S
C760 C759 1.351 . S
C760 N761 1.373 1_554 S
C760 H788 0.930 . S
N761 C760 1.373 1_556 S
N761 C763 1.340 1_556 S
N762 C759 1.368 . S
N762 C763 1.321 . S
N762 Co765 2.135 . S
C763 N761 1.340 1_554 S
C763 N762 1.321 . S
C763 H787 0.930 1_554 S
H764 C759 0.931 . S
Co765 N762 2.135 . S
Co765 N768 2.121 . S
Co765 O773 2.055 . S
Co765 O776 2.039 . S
Co765 N779 2.140 . S
C766 O767 1.227 . S
C766 O776 1.265 . S
O767 C766 1.227 . S
N768 Co765 2.121 . S
N768 C770 1.375 . S
N768 C771 1.313 . S
C769 C770 1.338 . S
C769 N772 1.377 . S
C769 H789 0.930 . S
C770 N768 1.375 . S
C770 C769 1.338 . S
C770 H774 0.931 . S
C771 N768 1.313 . S
C771 N772 1.344 . S
C771 H775 0.930 . S
N772 C769 1.377 . S
N772 C771 1.344 . S
O773 Co765 2.055 . S
O773 C777 1.253 . S
H774 C770 0.931 . S
H775 C771 0.930 . S
O776 Co765 2.039 . S
O776 C766 1.265 . S
C777 O773 1.253 . S
C777 O778 1.227 . S
O778 C777 1.227 . S
N779 Co765 2.140 . S
N779 C782 1.346 . S
N779 C783 1.345 . S
C780 C781 1.387 . S
C780 C784 1.391 . S
C781 C780 1.387 . S
C781 C782 1.369 . S
C781 H790 0.929 . S
C782 N779 1.346 . S
C782 C781 1.369 . S
C782 H785 0.928 . S
C783 N779 1.345 . S
C783 C784 1.371 . S
C783 H786 0.931 . S
C784 C780 1.391 . S
C784 C783 1.371 . S
C784 H791 0.930 . S
H785 C782 0.928 . S
H786 C783 0.931 . S
H787 C763 0.930 1_556 S
H788 C760 0.930 . S
H789 C769 0.930 . S
H790 C781 0.929 . S
H791 C784 0.930 . S
C792 C793 1.351 . S
C792 N795 1.368 . S
C792 H797 0.931 . S
C793 C792 1.351 . S
C793 N794 1.373 . S
C793 H821 0.930 . S
N794 C793 1.373 . S
N794 C796 1.340 . S
N795 C792 1.368 . S
N795 C796 1.321 . S
N795 Co798 2.135 . S
C796 N794 1.340 . S
C796 N795 1.321 . S
C796 H820 0.930 . S
H797 C792 0.931 . S
Co798 N795 2.135 . S
Co798 N801 2.121 . S
Co798 O806 2.055 . S
Co798 O809 2.039 . S
Co798 N812 2.140 . S
C799 O800 1.227 . S
C799 O809 1.265 . S
O800 C799 1.227 . S
N801 Co798 2.121 . S
N801 C803 1.375 . S
N801 C804 1.313 . S
C802 C803 1.338 . S
C802 N805 1.377 . S
C802 H822 0.930 . S
C803 N801 1.375 . S
C803 C802 1.338 . S
C803 H807 0.931 . S
C804 N801 1.313 . S
C804 N805 1.344 . S
C804 H808 0.930 . S
N805 C802 1.377 . S
N805 C804 1.344 . S
O806 Co798 2.055 . S
O806 C810 1.253 . S
H807 C803 0.931 . S
H808 C804 0.930 . S
O809 Co798 2.039 . S
O809 C799 1.265 . S
C810 O806 1.253 . S
C810 O811 1.227 . S
O811 C810 1.227 . S
N812 Co798 2.140 . S
N812 C815 1.346 . S
N812 C816 1.345 . S
C813 C814 1.387 . S
C813 C817 1.391 . S
C814 C813 1.387 . S
C814 C815 1.369 . S
C814 H823 0.929 . S
C815 N812 1.346 . S
C815 C814 1.369 . S
C815 H818 0.928 . S
C816 N812 1.345 . S
C816 C817 1.371 . S
C816 H819 0.931 . S
C817 C813 1.391 . S
C817 C816 1.371 . S
C817 H824 0.930 . S
H818 C815 0.928 . S
H819 C816 0.931 . S
H820 C796 0.930 . S
H821 C793 0.930 . S
H822 C802 0.930 . S
H823 C814 0.929 . S
H824 C817 0.930 . S
C825 C826 1.351 . S
C825 N828 1.368 . S
C825 H830 0.931 . S
C826 C825 1.351 . S
C826 N827 1.373 . S
C826 H854 0.930 . S
N827 C826 1.373 . S
N827 C829 1.340 . S
N828 C825 1.368 . S
N828 C829 1.321 . S
N828 Co831 2.135 . S
C829 N827 1.340 . S
C829 N828 1.321 . S
C829 H853 0.930 . S
H830 C825 0.931 . S
Co831 N828 2.135 . S
Co831 N834 2.121 . S
Co831 O839 2.055 . S
Co831 O842 2.039 . S
Co831 N845 2.140 . S
C832 O833 1.227 . S
C832 O842 1.265 . S
O833 C832 1.227 . S
N834 Co831 2.121 . S
N834 C836 1.375 . S
N834 C837 1.313 . S
C835 C836 1.338 . S
C835 N838 1.377 . S
C835 H855 0.930 . S
C836 N834 1.375 . S
C836 C835 1.338 . S
C836 H840 0.931 . S
C837 N834 1.313 . S
C837 N838 1.344 . S
C837 H841 0.930 . S
N838 C835 1.377 . S
N838 C837 1.344 . S
O839 Co831 2.055 . S
O839 C843 1.253 . S
H840 C836 0.931 . S
H841 C837 0.930 . S
O842 Co831 2.039 . S
O842 C832 1.265 . S
C843 O839 1.253 . S
C843 O844 1.227 . S
O844 C843 1.227 . S
N845 Co831 2.140 . S
N845 C848 1.346 . S
N845 C849 1.345 . S
C846 C847 1.387 . S
C846 C850 1.391 . S
C847 C846 1.387 . S
C847 C848 1.369 . S
C847 H856 0.929 . S
C848 N845 1.346 . S
C848 C847 1.369 . S
C848 H851 0.928 . S
C849 N845 1.345 . S
C849 C850 1.371 . S
C849 H852 0.931 . S
C850 C846 1.391 . S
C850 C849 1.371 . S
C850 H857 0.930 . S
H851 C848 0.928 . S
H852 C849 0.931 . S
H853 C829 0.930 . S
H854 C826 0.930 . S
H855 C835 0.930 . S
H856 C847 0.929 . S
H857 C850 0.930 . S
C858 C859 1.351 . S
C858 N861 1.368 . S
C858 H863 0.931 . S
C859 C858 1.351 . S
C859 N860 1.373 . S
C859 H887 0.930 . S
N860 C859 1.373 . S
N860 C862 1.340 . S
N861 C858 1.368 . S
N861 C862 1.321 . S
N861 Co864 2.135 . S
C862 N860 1.340 . S
C862 N861 1.321 . S
C862 H886 0.930 . S
H863 C858 0.931 . S
Co864 N861 2.135 . S
Co864 N867 2.121 . S
Co864 O872 2.055 . S
Co864 O875 2.039 . S
Co864 N878 2.140 . S
C865 O866 1.227 . S
C865 O875 1.265 . S
O866 C865 1.227 . S
N867 Co864 2.121 . S
N867 C869 1.375 . S
N867 C870 1.313 . S
C868 C869 1.338 . S
C868 N871 1.377 . S
C868 H888 0.930 . S
C869 N867 1.375 . S
C869 C868 1.338 . S
C869 H873 0.931 . S
C870 N867 1.313 . S
C870 N871 1.344 . S
C870 H874 0.930 . S
N871 C868 1.377 . S
N871 C870 1.344 . S
O872 Co864 2.055 . S
O872 C876 1.253 . S
H873 C869 0.931 . S
H874 C870 0.930 . S
O875 Co864 2.039 . S
O875 C865 1.265 . S
C876 O872 1.253 . S
C876 O877 1.227 . S
O877 C876 1.227 . S
N878 Co864 2.140 . S
N878 C881 1.346 . S
N878 C882 1.345 . S
C879 C880 1.387 . S
C879 C883 1.391 . S
C880 C879 1.387 . S
C880 C881 1.369 . S
C880 H889 0.929 . S
C881 N878 1.346 . S
C881 C880 1.369 . S
C881 H884 0.928 . S
C882 N878 1.345 . S
C882 C883 1.371 . S
C882 H885 0.931 . S
C883 C879 1.391 . S
C883 C882 1.371 . S
C883 H890 0.930 . S
H884 C881 0.928 . S
H885 C882 0.931 . S
H886 C862 0.930 . S
H887 C859 0.930 . S
H888 C868 0.930 . S
H889 C880 0.929 . S
H890 C883 0.930 . S
C891 C892 1.351 . S
C891 N894 1.368 . S
C891 H896 0.931 . S
C892 C891 1.351 . S
C892 N893 1.373 . S
C892 H920 0.930 . S
N893 C892 1.373 . S
N893 C895 1.340 . S
N894 C891 1.368 . S
N894 C895 1.321 . S
N894 Co897 2.135 . S
C895 N893 1.340 . S
C895 N894 1.321 . S
C895 H919 0.930 . S
H896 C891 0.931 . S
Co897 N894 2.135 . S
Co897 N900 2.121 . S
Co897 O905 2.055 . S
Co897 O908 2.039 . S
Co897 N911 2.140 . S
C898 O899 1.227 . S
C898 O908 1.265 . S
O899 C898 1.227 . S
N900 Co897 2.121 . S
N900 C902 1.375 . S
N900 C903 1.313 . S
C901 C902 1.338 . S
C901 N904 1.377 . S
C901 H921 0.930 . S
C902 N900 1.375 . S
C902 C901 1.338 . S
C902 H906 0.931 . S
C903 N900 1.313 . S
C903 N904 1.344 . S
C903 H907 0.930 . S
N904 C901 1.377 . S
N904 C903 1.344 . S
O905 Co897 2.055 . S
O905 C909 1.253 . S
H906 C902 0.931 . S
H907 C903 0.930 . S
O908 Co897 2.039 . S
O908 C898 1.265 . S
C909 O905 1.253 . S
C909 O910 1.227 . S
O910 C909 1.227 . S
N911 Co897 2.140 . S
N911 C914 1.346 . S
N911 C915 1.345 . S
C912 C913 1.387 . S
C912 C916 1.391 . S
C913 C912 1.387 . S
C913 C914 1.369 . S
C913 H922 0.929 . S
C914 N911 1.346 . S
C914 C913 1.369 . S
C914 H917 0.928 . S
C915 N911 1.345 . S
C915 C916 1.371 . S
C915 H918 0.931 . S
C916 C912 1.391 . S
C916 C915 1.371 . S
C916 H923 0.930 . S
H917 C914 0.928 . S
H918 C915 0.931 . S
H919 C895 0.930 . S
H920 C892 0.930 . S
H921 C901 0.930 . S
H922 C913 0.929 . S
H923 C916 0.930 . S
C924 C925 1.351 . S
C924 N927 1.368 . S
C924 H929 0.931 . S
C925 C924 1.351 . S
C925 N926 1.373 . S
C925 H953 0.930 . S
N926 C925 1.373 . S
N926 C928 1.340 . S
N927 C924 1.368 . S
N927 C928 1.321 . S
N927 Co930 2.135 . S
C928 N926 1.340 . S
C928 N927 1.321 . S
C928 H952 0.930 . S
H929 C924 0.931 . S
Co930 N927 2.135 . S
Co930 N933 2.121 . S
Co930 O938 2.055 . S
Co930 O941 2.039 . S
Co930 N944 2.140 . S
C931 O932 1.227 . S
C931 O941 1.265 . S
O932 C931 1.227 . S
N933 Co930 2.121 . S
N933 C935 1.375 . S
N933 C936 1.313 . S
C934 C935 1.338 . S
C934 N937 1.377 . S
C934 H954 0.930 . S
C935 N933 1.375 . S
C935 C934 1.338 . S
C935 H939 0.931 . S
C936 N933 1.313 . S
C936 N937 1.344 . S
C936 H940 0.930 . S
N937 C934 1.377 . S
N937 C936 1.344 . S
O938 Co930 2.055 . S
O938 C942 1.253 . S
H939 C935 0.931 . S
H940 C936 0.930 . S
O941 Co930 2.039 . S
O941 C931 1.265 . S
C942 O938 1.253 . S
C942 O943 1.227 . S
O943 C942 1.227 . S
N944 Co930 2.140 . S
N944 C947 1.346 . S
N944 C948 1.345 . S
C945 C946 1.387 . S
C945 C949 1.391 . S
C946 C945 1.387 . S
C946 C947 1.369 . S
C946 H955 0.929 . S
C947 N944 1.346 . S
C947 C946 1.369 . S
C947 H950 0.928 . S
C948 N944 1.345 . S
C948 C949 1.371 . S
C948 H951 0.931 . S
C949 C945 1.391 . S
C949 C948 1.371 . S
C949 H956 0.930 . S
H950 C947 0.928 . S
H951 C948 0.931 . S
H952 C928 0.930 . S
H953 C925 0.930 . S
H954 C934 0.930 . S
H955 C946 0.929 . S
H956 C949 0.930 . S
C957 C958 1.351 . S
C957 N960 1.368 . S
C957 H962 0.931 . S
C958 C957 1.351 . S
C958 N959 1.373 . S
C958 H986 0.930 . S
N959 C958 1.373 . S
N959 C961 1.340 . S
N960 C957 1.368 . S
N960 C961 1.321 . S
N960 Co963 2.135 . S
C961 N959 1.340 . S
C961 N960 1.321 . S
C961 H985 0.930 . S
H962 C957 0.931 . S
Co963 N960 2.135 . S
Co963 N966 2.121 . S
Co963 O971 2.055 . S
Co963 O974 2.039 . S
Co963 N977 2.140 . S
C964 O965 1.227 . S
C964 O974 1.265 . S
O965 C964 1.227 . S
N966 Co963 2.121 . S
N966 C968 1.375 . S
N966 C969 1.313 . S
C967 C968 1.338 . S
C967 N970 1.377 . S
C967 H987 0.930 . S
C968 N966 1.375 . S
C968 C967 1.338 . S
C968 H972 0.931 . S
C969 N966 1.313 . S
C969 N970 1.344 . S
C969 H973 0.930 . S
N970 C967 1.377 . S
N970 C969 1.344 . S
O971 Co963 2.055 . S
O971 C975 1.253 . S
H972 C968 0.931 . S
H973 C969 0.930 . S
O974 Co963 2.039 . S
O974 C964 1.265 . S
C975 O971 1.253 . S
C975 O976 1.227 . S
O976 C975 1.227 . S
N977 Co963 2.140 . S
N977 C980 1.346 . S
N977 C981 1.345 . S
C978 C979 1.387 . S
C978 C982 1.391 . S
C979 C978 1.387 . S
C979 C980 1.369 . S
C979 H988 0.929 . S
C980 N977 1.346 . S
C980 C979 1.369 . S
C980 H983 0.928 . S
C981 N977 1.345 . S
C981 C982 1.371 . S
C981 H984 0.931 . S
C982 C978 1.391 . S
C982 C981 1.371 . S
C982 H989 0.930 . S
H983 C980 0.928 . S
H984 C981 0.931 . S
H985 C961 0.930 . S
H986 C958 0.930 . S
H987 C967 0.930 . S
H988 C979 0.929 . S
H989 C982 0.930 . S
C990 C991 1.351 . S
C990 N993 1.368 . S
C990 H995 0.931 . S
C991 C990 1.351 . S
C991 N992 1.373 . S
C991 H1019 0.930 . S
N992 C991 1.373 . S
N992 C994 1.340 . S
N993 C990 1.368 . S
N993 C994 1.321 . S
N993 Co996 2.135 . S
C994 N992 1.340 . S
C994 N993 1.321 . S
C994 H1018 0.930 . S
H995 C990 0.931 . S
Co996 N993 2.135 . S
Co996 N999 2.121 . S
Co996 O1004 2.055 . S
Co996 O1007 2.039 . S
Co996 N1010 2.140 . S
C997 O998 1.227 . S
C997 O1007 1.265 . S
O998 C997 1.227 . S
N999 Co996 2.121 . S
N999 C1001 1.375 . S
N999 C1002 1.313 . S
C1000 C1001 1.338 . S
C1000 N1003 1.377 . S
C1000 H1020 0.930 . S
C1001 N999 1.375 . S
C1001 C1000 1.338 . S
C1001 H1005 0.931 . S
C1002 N999 1.313 . S
C1002 N1003 1.344 . S
C1002 H1006 0.930 . S
N1003 C1000 1.377 . S
N1003 C1002 1.344 . S
O1004 Co996 2.055 . S
O1004 C1008 1.253 . S
H1005 C1001 0.931 . S
H1006 C1002 0.930 . S
O1007 Co996 2.039 . S
O1007 C997 1.265 . S
C1008 O1004 1.253 . S
C1008 O1009 1.227 . S
O1009 C1008 1.227 . S
N1010 Co996 2.140 . S
N1010 C1013 1.346 . S
N1010 C1014 1.345 . S
C1011 C1012 1.387 . S
C1011 C1015 1.391 . S
C1012 C1011 1.387 . S
C1012 C1013 1.369 . S
C1012 H1021 0.929 . S
C1013 N1010 1.346 . S
C1013 C1012 1.369 . S
C1013 H1016 0.928 . S
C1014 N1010 1.345 . S
C1014 C1015 1.371 . S
C1014 H1017 0.931 . S
C1015 C1011 1.391 . S
C1015 C1014 1.371 . S
C1015 H1022 0.930 . S
H1016 C1013 0.928 . S
H1017 C1014 0.931 . S
H1018 C994 0.930 . S
H1019 C991 0.930 . S
H1020 C1000 0.930 . S
H1021 C1012 0.929 . S
H1022 C1015 0.930 . S
C1023 C1024 1.351 . S
C1023 N1026 1.368 . S
C1023 H1028 0.931 . S
C1024 C1023 1.351 . S
C1024 N1025 1.373 . S
C1024 H1052 0.930 . S
N1025 C1024 1.373 . S
N1025 C1027 1.340 . S
N1026 C1023 1.368 . S
N1026 C1027 1.321 . S
N1026 Co1029 2.135 . S
C1027 N1025 1.340 . S
C1027 N1026 1.321 . S
C1027 H1051 0.930 . S
H1028 C1023 0.931 . S
Co1029 N1026 2.135 . S
Co1029 N1032 2.121 . S
Co1029 O1037 2.055 . S
Co1029 O1040 2.039 . S
Co1029 N1043 2.140 . S
C1030 O1031 1.227 . S
C1030 O1040 1.265 . S
O1031 C1030 1.227 . S
N1032 Co1029 2.121 . S
N1032 C1034 1.375 . S
N1032 C1035 1.313 . S
C1033 C1034 1.338 . S
C1033 N1036 1.377 . S
C1033 H1053 0.930 . S
C1034 N1032 1.375 . S
C1034 C1033 1.338 . S
C1034 H1038 0.931 . S
C1035 N1032 1.313 . S
C1035 N1036 1.344 . S
C1035 H1039 0.930 . S
N1036 C1033 1.377 . S
N1036 C1035 1.344 . S
O1037 Co1029 2.055 . S
O1037 C1041 1.253 . S
H1038 C1034 0.931 . S
H1039 C1035 0.930 . S
O1040 Co1029 2.039 . S
O1040 C1030 1.265 . S
C1041 O1037 1.253 . S
C1041 O1042 1.227 . S
O1042 C1041 1.227 . S
N1043 Co1029 2.140 . S
N1043 C1046 1.346 . S
N1043 C1047 1.345 . S
C1044 C1045 1.387 . S
C1044 C1048 1.391 . S
C1045 C1044 1.387 . S
C1045 C1046 1.369 . S
C1045 H1054 0.929 . S
C1046 N1043 1.346 . S
C1046 C1045 1.369 . S
C1046 H1049 0.928 . S
C1047 N1043 1.345 . S
C1047 C1048 1.371 . S
C1047 H1050 0.931 . S
C1048 C1044 1.391 . S
C1048 C1047 1.371 . S
C1048 H1055 0.930 . S
H1049 C1046 0.928 . S
H1050 C1047 0.931 . S
H1051 C1027 0.930 . S
H1052 C1024 0.930 . S
H1053 C1033 0.930 . S
H1054 C1045 0.929 . S
H1055 C1048 0.930 . S
C1056 C1057 1.351 . S
C1056 N1059 1.368 . S
C1056 H1061 0.931 . S
C1057 C1056 1.351 . S
C1057 N1058 1.373 . S
C1057 H1085 0.930 . S
N1058 C1057 1.373 . S
N1058 C1060 1.340 . S
N1059 C1056 1.368 . S
N1059 C1060 1.321 . S
N1059 Co1062 2.135 . S
C1060 N1058 1.340 . S
C1060 N1059 1.321 . S
C1060 H1084 0.930 . S
H1061 C1056 0.931 . S
Co1062 N1059 2.135 . S
Co1062 N1065 2.121 . S
Co1062 O1070 2.055 . S
Co1062 O1073 2.039 . S
Co1062 N1076 2.140 . S
C1063 O1064 1.227 . S
C1063 O1073 1.265 . S
O1064 C1063 1.227 . S
N1065 Co1062 2.121 . S
N1065 C1067 1.375 . S
N1065 C1068 1.313 . S
C1066 C1067 1.338 . S
C1066 N1069 1.377 . S
C1066 H1086 0.930 . S
C1067 N1065 1.375 . S
C1067 C1066 1.338 . S
C1067 H1071 0.931 . S
C1068 N1065 1.313 . S
C1068 N1069 1.344 . S
C1068 H1072 0.930 . S
N1069 C1066 1.377 . S
N1069 C1068 1.344 . S
O1070 Co1062 2.055 . S
O1070 C1074 1.253 . S
H1071 C1067 0.931 . S
H1072 C1068 0.930 . S
O1073 Co1062 2.039 . S
O1073 C1063 1.265 . S
C1074 O1070 1.253 . S
C1074 O1075 1.227 . S
O1075 C1074 1.227 . S
N1076 Co1062 2.140 . S
N1076 C1079 1.346 . S
N1076 C1080 1.345 . S
C1077 C1078 1.387 . S
C1077 C1081 1.391 . S
C1078 C1077 1.387 . S
C1078 C1079 1.369 . S
C1078 H1087 0.929 . S
C1079 N1076 1.346 . S
C1079 C1078 1.369 . S
C1079 H1082 0.928 . S
C1080 N1076 1.345 . S
C1080 C1081 1.371 . S
C1080 H1083 0.931 . S
C1081 C1077 1.391 . S
C1081 C1080 1.371 . S
C1081 H1088 0.930 . S
H1082 C1079 0.928 . S
H1083 C1080 0.931 . S
H1084 C1060 0.930 . S
H1085 C1057 0.930 . S
H1086 C1066 0.930 . S
H1087 C1078 0.929 . S
H1088 C1081 0.930 . S
C1089 C1090 1.351 . S
C1089 N1092 1.368 . S
C1089 H1094 0.931 . S
C1090 C1089 1.351 . S
C1090 N1091 1.373 . S
C1090 H1118 0.930 . S
N1091 C1090 1.373 . S
N1091 C1093 1.340 . S
N1092 C1089 1.368 . S
N1092 C1093 1.321 . S
N1092 Co1095 2.135 . S
C1093 N1091 1.340 . S
C1093 N1092 1.321 . S
C1093 H1117 0.930 . S
H1094 C1089 0.931 . S
Co1095 N1092 2.135 . S
Co1095 N1098 2.121 . S
Co1095 O1103 2.055 . S
Co1095 O1106 2.039 . S
Co1095 N1109 2.140 . S
C1096 O1097 1.227 . S
C1096 O1106 1.265 . S
O1097 C1096 1.227 . S
N1098 Co1095 2.121 . S
N1098 C1100 1.375 . S
N1098 C1101 1.313 . S
C1099 C1100 1.338 . S
C1099 N1102 1.377 . S
C1099 H1119 0.930 . S
C1100 N1098 1.375 . S
C1100 C1099 1.338 . S
C1100 H1104 0.931 . S
C1101 N1098 1.313 . S
C1101 N1102 1.344 . S
C1101 H1105 0.930 . S
N1102 C1099 1.377 . S
N1102 C1101 1.344 . S
O1103 Co1095 2.055 . S
O1103 C1107 1.253 . S
H1104 C1100 0.931 . S
H1105 C1101 0.930 . S
O1106 Co1095 2.039 . S
O1106 C1096 1.265 . S
C1107 O1103 1.253 . S
C1107 O1108 1.227 . S
O1108 C1107 1.227 . S
N1109 Co1095 2.140 . S
N1109 C1112 1.346 . S
N1109 C1113 1.345 . S
C1110 C1111 1.387 . S
C1110 C1114 1.391 . S
C1111 C1110 1.387 . S
C1111 C1112 1.369 . S
C1111 H1120 0.929 . S
C1112 N1109 1.346 . S
C1112 C1111 1.369 . S
C1112 H1115 0.928 . S
C1113 N1109 1.345 . S
C1113 C1114 1.371 . S
C1113 H1116 0.931 . S
C1114 C1110 1.391 . S
C1114 C1113 1.371 . S
C1114 H1121 0.930 . S
H1115 C1112 0.928 . S
H1116 C1113 0.931 . S
H1117 C1093 0.930 . S
H1118 C1090 0.930 . S
H1119 C1099 0.930 . S
H1120 C1111 0.929 . S
H1121 C1114 0.930 . S
C1122 C1123 1.351 . S
C1122 N1125 1.368 . S
C1122 H1127 0.931 . S
C1123 C1122 1.351 . S
C1123 N1124 1.373 . S
C1123 H1151 0.930 . S
N1124 C1123 1.373 . S
N1124 C1126 1.340 . S
N1125 C1122 1.368 . S
N1125 C1126 1.321 . S
N1125 Co1128 2.135 . S
C1126 N1124 1.340 . S
C1126 N1125 1.321 . S
C1126 H1150 0.930 . S
H1127 C1122 0.931 . S
Co1128 N1125 2.135 . S
Co1128 N1131 2.121 . S
Co1128 O1136 2.055 . S
Co1128 O1139 2.039 . S
Co1128 N1142 2.140 . S
C1129 O1130 1.227 . S
C1129 O1139 1.265 . S
O1130 C1129 1.227 . S
N1131 Co1128 2.121 . S
N1131 C1133 1.375 . S
N1131 C1134 1.313 . S
C1132 C1133 1.338 . S
C1132 N1135 1.377 . S
C1132 H1152 0.930 . S
C1133 N1131 1.375 . S
C1133 C1132 1.338 . S
C1133 H1137 0.931 . S
C1134 N1131 1.313 . S
C1134 N1135 1.344 . S
C1134 H1138 0.930 . S
N1135 C1132 1.377 . S
N1135 C1134 1.344 . S
O1136 Co1128 2.055 . S
O1136 C1140 1.253 . S
H1137 C1133 0.931 . S
H1138 C1134 0.930 . S
O1139 Co1128 2.039 . S
O1139 C1129 1.265 . S
C1140 O1136 1.253 . S
C1140 O1141 1.227 . S
O1141 C1140 1.227 . S
N1142 Co1128 2.140 . S
N1142 C1145 1.346 . S
N1142 C1146 1.345 . S
C1143 C1144 1.387 . S
C1143 C1147 1.391 . S
C1144 C1143 1.387 . S
C1144 C1145 1.369 . S
C1144 H1153 0.929 . S
C1145 N1142 1.346 . S
C1145 C1144 1.369 . S
C1145 H1148 0.928 . S
C1146 N1142 1.345 . S
C1146 C1147 1.371 . S
C1146 H1149 0.931 . S
C1147 C1143 1.391 . S
C1147 C1146 1.371 . S
C1147 H1154 0.930 . S
H1148 C1145 0.928 . S
H1149 C1146 0.931 . S
H1150 C1126 0.930 . S
H1151 C1123 0.930 . S
H1152 C1132 0.930 . S
H1153 C1144 0.929 . S
H1154 C1147 0.930 . S
C1155 C1156 1.351 . S
C1155 N1158 1.368 . S
C1155 H1160 0.931 . S
C1156 C1155 1.351 . S
C1156 N1157 1.373 . S
C1156 H1184 0.930 . S
N1157 C1156 1.373 . S
N1157 C1159 1.340 . S
N1158 C1155 1.368 . S
N1158 C1159 1.321 . S
N1158 Co1161 2.135 . S
C1159 N1157 1.340 . S
C1159 N1158 1.321 . S
C1159 H1183 0.930 . S
H1160 C1155 0.931 . S
Co1161 N1158 2.135 . S
Co1161 N1164 2.121 . S
Co1161 O1169 2.055 . S
Co1161 O1172 2.039 . S
Co1161 N1175 2.140 . S
C1162 O1163 1.227 . S
C1162 O1172 1.265 . S
O1163 C1162 1.227 . S
N1164 Co1161 2.121 . S
N1164 C1166 1.375 . S
N1164 C1167 1.313 . S
C1165 C1166 1.338 . S
C1165 N1168 1.377 . S
C1165 H1185 0.930 . S
C1166 N1164 1.375 . S
C1166 C1165 1.338 . S
C1166 H1170 0.931 . S
C1167 N1164 1.313 . S
C1167 N1168 1.344 . S
C1167 H1171 0.930 . S
N1168 C1165 1.377 . S
N1168 C1167 1.344 . S
O1169 Co1161 2.055 . S
O1169 C1173 1.253 . S
H1170 C1166 0.931 . S
H1171 C1167 0.930 . S
O1172 Co1161 2.039 . S
O1172 C1162 1.265 . S
C1173 O1169 1.253 . S
C1173 O1174 1.227 . S
O1174 C1173 1.227 . S
N1175 Co1161 2.140 . S
N1175 C1178 1.346 . S
N1175 C1179 1.345 . S
C1176 C1177 1.387 . S
C1176 C1180 1.391 . S
C1177 C1176 1.387 . S
C1177 C1178 1.369 . S
C1177 H1186 0.929 . S
C1178 N1175 1.346 . S
C1178 C1177 1.369 . S
C1178 H1181 0.928 . S
C1179 N1175 1.345 . S
C1179 C1180 1.371 . S
C1179 H1182 0.931 . S
C1180 C1176 1.391 . S
C1180 C1179 1.371 . S
C1180 H1187 0.930 . S
H1181 C1178 0.928 . S
H1182 C1179 0.931 . S
H1183 C1159 0.930 . S
H1184 C1156 0.930 . S
H1185 C1165 0.930 . S
H1186 C1177 0.929 . S
H1187 C1180 0.930 . S
C1188 C1189 1.351 . S
C1188 N1191 1.368 . S
C1188 H1193 0.931 . S
C1189 C1188 1.351 . S
C1189 N1190 1.373 . S
C1189 H1217 0.930 . S
N1190 C1189 1.373 . S
N1190 C1192 1.340 . S
N1191 C1188 1.368 . S
N1191 C1192 1.321 . S
N1191 Co1194 2.135 . S
C1192 N1190 1.340 . S
C1192 N1191 1.321 . S
C1192 H1216 0.930 . S
H1193 C1188 0.931 . S
Co1194 N1191 2.135 . S
Co1194 N1197 2.121 . S
Co1194 O1202 2.055 . S
Co1194 O1205 2.039 . S
Co1194 N1208 2.140 . S
C1195 O1196 1.227 . S
C1195 O1205 1.265 . S
O1196 C1195 1.227 . S
N1197 Co1194 2.121 . S
N1197 C1199 1.375 . S
N1197 C1200 1.313 . S
C1198 C1199 1.338 . S
C1198 N1201 1.377 . S
C1198 H1218 0.930 . S
C1199 N1197 1.375 . S
C1199 C1198 1.338 . S
C1199 H1203 0.931 . S
C1200 N1197 1.313 . S
C1200 N1201 1.344 . S
C1200 H1204 0.930 . S
N1201 C1198 1.377 . S
N1201 C1200 1.344 . S
O1202 Co1194 2.055 . S
O1202 C1206 1.253 . S
H1203 C1199 0.931 . S
H1204 C1200 0.930 . S
O1205 Co1194 2.039 . S
O1205 C1195 1.265 . S
C1206 O1202 1.253 . S
C1206 O1207 1.227 . S
O1207 C1206 1.227 . S
N1208 Co1194 2.140 . S
N1208 C1211 1.346 . S
N1208 C1212 1.345 . S
C1209 C1210 1.387 . S
C1209 C1213 1.391 . S
C1210 C1209 1.387 . S
C1210 C1211 1.369 . S
C1210 H1219 0.929 . S
C1211 N1208 1.346 . S
C1211 C1210 1.369 . S
C1211 H1214 0.928 . S
C1212 N1208 1.345 . S
C1212 C1213 1.371 . S
C1212 H1215 0.931 . S
C1213 C1209 1.391 . S
C1213 C1212 1.371 . S
C1213 H1220 0.930 . S
H1214 C1211 0.928 . S
H1215 C1212 0.931 . S
H1216 C1192 0.930 . S
H1217 C1189 0.930 . S
H1218 C1198 0.930 . S
H1219 C1210 0.929 . S
H1220 C1213 0.930 . S
C1221 C1222 1.351 . S
C1221 N1224 1.368 . S
C1221 H1226 0.931 . S
C1222 C1221 1.351 . S
C1222 N1223 1.373 . S
C1222 H1250 0.930 . S
N1223 C1222 1.373 . S
N1223 C1225 1.340 . S
N1224 C1221 1.368 . S
N1224 C1225 1.321 . S
N1224 Co1227 2.135 . S
C1225 N1223 1.340 . S
C1225 N1224 1.321 . S
C1225 H1249 0.930 . S
H1226 C1221 0.931 . S
Co1227 N1224 2.135 . S
Co1227 N1230 2.121 . S
Co1227 O1235 2.055 . S
Co1227 O1238 2.039 . S
Co1227 N1241 2.140 . S
C1228 O1229 1.227 . S
C1228 O1238 1.265 . S
O1229 C1228 1.227 . S
N1230 Co1227 2.121 . S
N1230 C1232 1.375 . S
N1230 C1233 1.313 . S
C1231 C1232 1.338 . S
C1231 N1234 1.377 . S
C1231 H1251 0.930 . S
C1232 N1230 1.375 . S
C1232 C1231 1.338 . S
C1232 H1236 0.931 . S
C1233 N1230 1.313 . S
C1233 N1234 1.344 . S
C1233 H1237 0.930 . S
N1234 C1231 1.377 . S
N1234 C1233 1.344 . S
O1235 Co1227 2.055 . S
O1235 C1239 1.253 . S
H1236 C1232 0.931 . S
H1237 C1233 0.930 . S
O1238 Co1227 2.039 . S
O1238 C1228 1.265 . S
C1239 O1235 1.253 . S
C1239 O1240 1.227 . S
O1240 C1239 1.227 . S
N1241 Co1227 2.140 . S
N1241 C1244 1.346 . S
N1241 C1245 1.345 . S
C1242 C1243 1.387 . S
C1242 C1246 1.391 . S
C1243 C1242 1.387 . S
C1243 C1244 1.369 . S
C1243 H1252 0.929 . S
C1244 N1241 1.346 . S
C1244 C1243 1.369 . S
C1244 H1247 0.928 . S
C1245 N1241 1.345 . S
C1245 C1246 1.371 . S
C1245 H1248 0.931 . S
C1246 C1242 1.391 . S
C1246 C1245 1.371 . S
C1246 H1253 0.930 . S
H1247 C1244 0.928 . S
H1248 C1245 0.931 . S
H1249 C1225 0.930 . S
H1250 C1222 0.930 . S
H1251 C1231 0.930 . S
H1252 C1243 0.929 . S
H1253 C1246 0.930 . S
C1254 C1255 1.351 . S
C1254 N1257 1.368 . S
C1254 H1259 0.931 . S
C1255 C1254 1.351 . S
C1255 N1256 1.373 . S
C1255 H1283 0.930 . S
N1256 C1255 1.373 . S
N1256 C1258 1.340 . S
N1257 C1254 1.368 . S
N1257 C1258 1.321 . S
N1257 Co1260 2.135 . S
C1258 N1256 1.340 . S
C1258 N1257 1.321 . S
C1258 H1282 0.930 . S
H1259 C1254 0.931 . S
Co1260 N1257 2.135 . S
Co1260 N1263 2.121 . S
Co1260 O1268 2.055 . S
Co1260 O1271 2.039 . S
Co1260 N1274 2.140 . S
C1261 O1262 1.227 . S
C1261 O1271 1.265 . S
O1262 C1261 1.227 . S
N1263 Co1260 2.121 . S
N1263 C1265 1.375 . S
N1263 C1266 1.313 . S
C1264 C1265 1.338 . S
C1264 N1267 1.377 . S
C1264 H1284 0.930 . S
C1265 N1263 1.375 . S
C1265 C1264 1.338 . S
C1265 H1269 0.931 . S
C1266 N1263 1.313 . S
C1266 N1267 1.344 . S
C1266 H1270 0.930 . S
N1267 C1264 1.377 . S
N1267 C1266 1.344 . S
O1268 Co1260 2.055 . S
O1268 C1272 1.253 . S
H1269 C1265 0.931 . S
H1270 C1266 0.930 . S
O1271 Co1260 2.039 . S
O1271 C1261 1.265 . S
C1272 O1268 1.253 . S
C1272 O1273 1.227 . S
O1273 C1272 1.227 . S
N1274 Co1260 2.140 . S
N1274 C1277 1.346 . S
N1274 C1278 1.345 . S
C1275 C1276 1.387 . S
C1275 C1279 1.391 . S
C1276 C1275 1.387 . S
C1276 C1277 1.369 . S
C1276 H1285 0.929 . S
C1277 N1274 1.346 . S
C1277 C1276 1.369 . S
C1277 H1280 0.928 . S
C1278 N1274 1.345 . S
C1278 C1279 1.371 . S
C1278 H1281 0.931 . S
C1279 C1275 1.391 . S
C1279 C1278 1.371 . S
C1279 H1286 0.930 . S
H1280 C1277 0.928 . S
H1281 C1278 0.931 . S
H1282 C1258 0.930 . S
H1283 C1255 0.930 . S
H1284 C1264 0.930 . S
H1285 C1276 0.929 . S
H1286 C1279 0.930 . S
C1287 C1288 1.351 . S
C1287 N1290 1.368 . S
C1287 H1292 0.931 . S
C1288 C1287 1.351 . S
C1288 N1289 1.373 . S
C1288 H1316 0.930 . S
N1289 C1288 1.373 . S
N1289 C1291 1.340 . S
N1290 C1287 1.368 . S
N1290 C1291 1.321 . S
N1290 Co1293 2.135 . S
C1291 N1289 1.340 . S
C1291 N1290 1.321 . S
C1291 H1315 0.930 . S
H1292 C1287 0.931 . S
Co1293 N1290 2.135 . S
Co1293 N1296 2.121 . S
Co1293 O1301 2.055 . S
Co1293 O1304 2.039 . S
Co1293 N1307 2.140 . S
C1294 O1295 1.227 . S
C1294 O1304 1.265 . S
O1295 C1294 1.227 . S
N1296 Co1293 2.121 . S
N1296 C1298 1.375 . S
N1296 C1299 1.313 . S
C1297 C1298 1.338 . S
C1297 N1300 1.377 . S
C1297 H1317 0.930 . S
C1298 N1296 1.375 . S
C1298 C1297 1.338 . S
C1298 H1302 0.931 . S
C1299 N1296 1.313 . S
C1299 N1300 1.344 . S
C1299 H1303 0.930 . S
N1300 C1297 1.377 . S
N1300 C1299 1.344 . S
O1301 Co1293 2.055 . S
O1301 C1305 1.253 . S
H1302 C1298 0.931 . S
H1303 C1299 0.930 . S
O1304 Co1293 2.039 . S
O1304 C1294 1.265 . S
C1305 O1301 1.253 . S
C1305 O1306 1.227 . S
O1306 C1305 1.227 . S
N1307 Co1293 2.140 . S
N1307 C1310 1.346 . S
N1307 C1311 1.345 . S
C1308 C1309 1.387 . S
C1308 C1312 1.391 . S
C1309 C1308 1.387 . S
C1309 C1310 1.369 . S
C1309 H1318 0.929 . S
C1310 N1307 1.346 . S
C1310 C1309 1.369 . S
C1310 H1313 0.928 . S
C1311 N1307 1.345 . S
C1311 C1312 1.371 . S
C1311 H1314 0.931 . S
C1312 C1308 1.391 . S
C1312 C1311 1.371 . S
C1312 H1319 0.930 . S
H1313 C1310 0.928 . S
H1314 C1311 0.931 . S
H1315 C1291 0.930 . S
H1316 C1288 0.930 . S
H1317 C1297 0.930 . S
H1318 C1309 0.929 . S
H1319 C1312 0.930 . S
C1320 C1321 1.351 . S
C1320 N1323 1.368 . S
C1320 H1325 0.931 . S
C1321 C1320 1.351 . S
C1321 N1322 1.373 . S
C1321 H1349 0.930 . S
N1322 C1321 1.373 . S
N1322 C1324 1.340 . S
N1323 C1320 1.368 . S
N1323 C1324 1.321 . S
N1323 Co1326 2.135 . S
C1324 N1322 1.340 . S
C1324 N1323 1.321 . S
C1324 H1348 0.930 . S
H1325 C1320 0.931 . S
Co1326 N1323 2.135 . S
Co1326 N1329 2.121 . S
Co1326 O1334 2.055 . S
Co1326 O1337 2.039 . S
Co1326 N1340 2.140 . S
C1327 O1328 1.227 . S
C1327 O1337 1.265 . S
O1328 C1327 1.227 . S
N1329 Co1326 2.121 . S
N1329 C1331 1.375 . S
N1329 C1332 1.313 . S
C1330 C1331 1.338 . S
C1330 N1333 1.377 . S
C1330 H1350 0.930 . S
C1331 N1329 1.375 . S
C1331 C1330 1.338 . S
C1331 H1335 0.931 . S
C1332 N1329 1.313 . S
C1332 N1333 1.344 . S
C1332 H1336 0.930 . S
N1333 C1330 1.377 . S
N1333 C1332 1.344 . S
O1334 Co1326 2.055 . S
O1334 C1338 1.253 . S
H1335 C1331 0.931 . S
H1336 C1332 0.930 . S
O1337 Co1326 2.039 . S
O1337 C1327 1.265 . S
C1338 O1334 1.253 . S
C1338 O1339 1.227 . S
O1339 C1338 1.227 . S
N1340 Co1326 2.140 . S
N1340 C1343 1.346 . S
N1340 C1344 1.345 . S
C1341 C1342 1.387 . S
C1341 C1345 1.391 . S
C1342 C1341 1.387 . S
C1342 C1343 1.369 . S
C1342 H1351 0.929 . S
C1343 N1340 1.346 . S
C1343 C1342 1.369 . S
C1343 H1346 0.928 . S
C1344 N1340 1.345 . S
C1344 C1345 1.371 . S
C1344 H1347 0.931 . S
C1345 C1341 1.391 . S
C1345 C1344 1.371 . S
C1345 H1352 0.930 . S
H1346 C1343 0.928 . S
H1347 C1344 0.931 . S
H1348 C1324 0.930 . S
H1349 C1321 0.930 . S
H1350 C1330 0.930 . S
H1351 C1342 0.929 . S
H1352 C1345 0.930 . S
C1353 C1354 1.351 . S
C1353 N1356 1.368 . S
C1353 H1358 0.931 . S
C1354 C1353 1.351 . S
C1354 N1355 1.373 . S
C1354 H1382 0.930 . S
N1355 C1354 1.373 . S
N1355 C1357 1.340 . S
N1356 C1353 1.368 . S
N1356 C1357 1.321 . S
N1356 Co1359 2.135 . S
C1357 N1355 1.340 . S
C1357 N1356 1.321 . S
C1357 H1381 0.930 . S
H1358 C1353 0.931 . S
Co1359 N1356 2.135 . S
Co1359 N1362 2.121 . S
Co1359 O1367 2.055 . S
Co1359 O1370 2.039 . S
Co1359 N1373 2.140 . S
C1360 O1361 1.227 . S
C1360 O1370 1.265 . S
O1361 C1360 1.227 . S
N1362 Co1359 2.121 . S
N1362 C1364 1.375 . S
N1362 C1365 1.313 . S
C1363 C1364 1.338 . S
C1363 N1366 1.377 . S
C1363 H1383 0.930 . S
C1364 N1362 1.375 . S
C1364 C1363 1.338 . S
C1364 H1368 0.931 . S
C1365 N1362 1.313 . S
C1365 N1366 1.344 . S
C1365 H1369 0.930 . S
N1366 C1363 1.377 . S
N1366 C1365 1.344 . S
O1367 Co1359 2.055 . S
O1367 C1371 1.253 . S
H1368 C1364 0.931 . S
H1369 C1365 0.930 . S
O1370 Co1359 2.039 . S
O1370 C1360 1.265 . S
C1371 O1367 1.253 . S
C1371 O1372 1.227 . S
O1372 C1371 1.227 . S
N1373 Co1359 2.140 . S
N1373 C1376 1.346 . S
N1373 C1377 1.345 . S
C1374 C1375 1.387 . S
C1374 C1378 1.391 . S
C1375 C1374 1.387 . S
C1375 C1376 1.369 . S
C1375 H1384 0.929 . S
C1376 N1373 1.346 . S
C1376 C1375 1.369 . S
C1376 H1379 0.928 . S
C1377 N1373 1.345 . S
C1377 C1378 1.371 . S
C1377 H1380 0.931 . S
C1378 C1374 1.391 . S
C1378 C1377 1.371 . S
C1378 H1385 0.930 . S
H1379 C1376 0.928 . S
H1380 C1377 0.931 . S
H1381 C1357 0.930 . S
H1382 C1354 0.930 . S
H1383 C1363 0.930 . S
H1384 C1375 0.929 . S
H1385 C1378 0.930 . S
C1386 C1387 1.351 . S
C1386 N1389 1.368 . S
C1386 H1391 0.931 . S
C1387 C1386 1.351 . S
C1387 N1388 1.373 . S
C1387 H1415 0.930 . S
N1388 C1387 1.373 . S
N1388 C1390 1.340 . S
N1389 C1386 1.368 . S
N1389 C1390 1.321 . S
N1389 Co1392 2.135 . S
C1390 N1388 1.340 . S
C1390 N1389 1.321 . S
C1390 H1414 0.930 . S
H1391 C1386 0.931 . S
Co1392 N1389 2.135 . S
Co1392 N1395 2.121 . S
Co1392 O1400 2.055 . S
Co1392 O1403 2.039 . S
Co1392 N1406 2.140 . S
C1393 O1394 1.227 . S
C1393 O1403 1.265 . S
O1394 C1393 1.227 . S
N1395 Co1392 2.121 . S
N1395 C1397 1.375 . S
N1395 C1398 1.313 . S
C1396 C1397 1.338 . S
C1396 N1399 1.377 . S
C1396 H1416 0.930 . S
C1397 N1395 1.375 . S
C1397 C1396 1.338 . S
C1397 H1401 0.931 . S
C1398 N1395 1.313 . S
C1398 N1399 1.344 . S
C1398 H1402 0.930 . S
N1399 C1396 1.377 . S
N1399 C1398 1.344 . S
O1400 Co1392 2.055 . S
O1400 C1404 1.253 . S
H1401 C1397 0.931 . S
H1402 C1398 0.930 . S
O1403 Co1392 2.039 . S
O1403 C1393 1.265 . S
C1404 O1400 1.253 . S
C1404 O1405 1.227 . S
O1405 C1404 1.227 . S
N1406 Co1392 2.140 . S
N1406 C1409 1.346 . S
N1406 C1410 1.345 . S
C1407 C1408 1.387 . S
C1407 C1411 1.391 . S
C1408 C1407 1.387 . S
C1408 C1409 1.369 . S
C1408 H1417 0.929 . S
C1409 N1406 1.346 . S
C1409 C1408 1.369 . S
C1409 H1412 0.928 . S
C1410 N1406 1.345 . S
C1410 C1411 1.371 . S
C1410 H1413 0.931 . S
C1411 C1407 1.391 . S
C1411 C1410 1.371 . S
C1411 H1418 0.930 . S
H1412 C1409 0.928 . S
H1413 C1410 0.931 . S
H1414 C1390 0.930 . S
H1415 C1387 0.930 . S
H1416 C1396 0.930 . S
H1417 C1408 0.929 . S
H1418 C1411 0.930 . S
C1419 C1420 1.351 . S
C1419 N1422 1.368 . S
C1419 H1424 0.931 . S
C1420 C1419 1.351 . S
C1420 N1421 1.373 . S
C1420 H1448 0.930 . S
N1421 C1420 1.373 . S
N1421 C1423 1.340 . S
N1422 C1419 1.368 . S
N1422 C1423 1.321 . S
N1422 Co1425 2.135 . S
C1423 N1421 1.340 . S
C1423 N1422 1.321 . S
C1423 H1447 0.930 . S
H1424 C1419 0.931 . S
Co1425 N1422 2.135 . S
Co1425 N1428 2.121 . S
Co1425 O1433 2.055 . S
Co1425 O1436 2.039 . S
Co1425 N1439 2.140 . S
C1426 O1427 1.227 . S
C1426 O1436 1.265 . S
O1427 C1426 1.227 . S
N1428 Co1425 2.121 . S
N1428 C1430 1.375 . S
N1428 C1431 1.313 . S
C1429 C1430 1.338 . S
C1429 N1432 1.377 . S
C1429 H1449 0.930 . S
C1430 N1428 1.375 . S
C1430 C1429 1.338 . S
C1430 H1434 0.931 . S
C1431 N1428 1.313 . S
C1431 N1432 1.344 . S
C1431 H1435 0.930 . S
N1432 C1429 1.377 . S
N1432 C1431 1.344 . S
O1433 Co1425 2.055 . S
O1433 C1437 1.253 . S
H1434 C1430 0.931 . S
H1435 C1431 0.930 . S
O1436 Co1425 2.039 . S
O1436 C1426 1.265 . S
C1437 O1433 1.253 . S
C1437 O1438 1.227 . S
O1438 C1437 1.227 . S
N1439 Co1425 2.140 . S
N1439 C1442 1.346 . S
N1439 C1443 1.345 . S
C1440 C1441 1.387 . S
C1440 C1444 1.391 . S
C1441 C1440 1.387 . S
C1441 C1442 1.369 . S
C1441 H1450 0.929 . S
C1442 N1439 1.346 . S
C1442 C1441 1.369 . S
C1442 H1445 0.928 . S
C1443 N1439 1.345 . S
C1443 C1444 1.371 . S
C1443 H1446 0.931 . S
C1444 C1440 1.391 . S
C1444 C1443 1.371 . S
C1444 H1451 0.930 . S
H1445 C1442 0.928 . S
H1446 C1443 0.931 . S
H1447 C1423 0.930 . S
H1448 C1420 0.930 . S
H1449 C1429 0.930 . S
H1450 C1441 0.929 . S
H1451 C1444 0.930 . S
C1452 C1453 1.351 . S
C1452 N1455 1.368 . S
C1452 H1457 0.931 . S
C1453 C1452 1.351 . S
C1453 N1454 1.373 . S
C1453 H1481 0.930 . S
N1454 C1453 1.373 . S
N1454 C1456 1.340 . S
N1455 C1452 1.368 . S
N1455 C1456 1.321 . S
N1455 Co1458 2.135 . S
C1456 N1454 1.340 . S
C1456 N1455 1.321 . S
C1456 H1480 0.930 . S
H1457 C1452 0.931 . S
Co1458 N1455 2.135 . S
Co1458 N1461 2.121 . S
Co1458 O1466 2.055 . S
Co1458 O1469 2.039 . S
Co1458 N1472 2.140 . S
C1459 O1460 1.227 . S
C1459 O1469 1.265 . S
O1460 C1459 1.227 . S
N1461 Co1458 2.121 . S
N1461 C1463 1.375 . S
N1461 C1464 1.313 . S
C1462 C1463 1.338 . S
C1462 N1465 1.377 . S
C1462 H1482 0.930 . S
C1463 N1461 1.375 . S
C1463 C1462 1.338 . S
C1463 H1467 0.931 . S
C1464 N1461 1.313 . S
C1464 N1465 1.344 . S
C1464 H1468 0.930 . S
N1465 C1462 1.377 . S
N1465 C1464 1.344 . S
O1466 Co1458 2.055 . S
O1466 C1470 1.253 . S
H1467 C1463 0.931 . S
H1468 C1464 0.930 . S
O1469 Co1458 2.039 . S
O1469 C1459 1.265 . S
C1470 O1466 1.253 . S
C1470 O1471 1.227 . S
O1471 C1470 1.227 . S
N1472 Co1458 2.140 . S
N1472 C1475 1.346 . S
N1472 C1476 1.345 . S
C1473 C1474 1.387 . S
C1473 C1477 1.391 . S
C1474 C1473 1.387 . S
C1474 C1475 1.369 . S
C1474 H1483 0.929 . S
C1475 N1472 1.346 . S
C1475 C1474 1.369 . S
C1475 H1478 0.928 . S
C1476 N1472 1.345 . S
C1476 C1477 1.371 . S
C1476 H1479 0.931 . S
C1477 C1473 1.391 . S
C1477 C1476 1.371 . S
C1477 H1484 0.930 . S
H1478 C1475 0.928 . S
H1479 C1476 0.931 . S
H1480 C1456 0.930 . S
H1481 C1453 0.930 . S
H1482 C1462 0.930 . S
H1483 C1474 0.929 . S
H1484 C1477 0.930 . S
C1485 C1486 1.351 . S
C1485 N1488 1.368 . S
C1485 H1490 0.931 . S
C1486 C1485 1.351 . S
C1486 N1487 1.373 . S
C1486 H1514 0.930 . S
N1487 C1486 1.373 . S
N1487 C1489 1.340 . S
N1488 C1485 1.368 . S
N1488 C1489 1.321 . S
N1488 Co1491 2.135 . S
C1489 N1487 1.340 . S
C1489 N1488 1.321 . S
C1489 H1513 0.930 . S
H1490 C1485 0.931 . S
Co1491 N1488 2.135 . S
Co1491 N1494 2.121 . S
Co1491 O1499 2.055 . S
Co1491 O1502 2.039 . S
Co1491 N1505 2.140 . S
C1492 O1493 1.227 . S
C1492 O1502 1.265 . S
O1493 C1492 1.227 . S
N1494 Co1491 2.121 . S
N1494 C1496 1.375 . S
N1494 C1497 1.313 . S
C1495 C1496 1.338 . S
C1495 N1498 1.377 . S
C1495 H1515 0.930 . S
C1496 N1494 1.375 . S
C1496 C1495 1.338 . S
C1496 H1500 0.931 . S
C1497 N1494 1.313 . S
C1497 N1498 1.344 . S
C1497 H1501 0.930 . S
N1498 C1495 1.377 . S
N1498 C1497 1.344 . S
O1499 Co1491 2.055 . S
O1499 C1503 1.253 . S
H1500 C1496 0.931 . S
H1501 C1497 0.930 . S
O1502 Co1491 2.039 . S
O1502 C1492 1.265 . S
C1503 O1499 1.253 . S
C1503 O1504 1.227 . S
O1504 C1503 1.227 . S
N1505 Co1491 2.140 . S
N1505 C1508 1.346 . S
N1505 C1509 1.345 . S
C1506 C1507 1.387 . S
C1506 C1510 1.391 . S
C1507 C1506 1.387 . S
C1507 C1508 1.369 . S
C1507 H1516 0.929 . S
C1508 N1505 1.346 . S
C1508 C1507 1.369 . S
C1508 H1511 0.928 . S
C1509 N1505 1.345 . S
C1509 C1510 1.371 . S
C1509 H1512 0.931 . S
C1510 C1506 1.391 . S
C1510 C1509 1.371 . S
C1510 H1517 0.930 . S
H1511 C1508 0.928 . S
H1512 C1509 0.931 . S
H1513 C1489 0.930 . S
H1514 C1486 0.930 . S
H1515 C1495 0.930 . S
H1516 C1507 0.929 . S
H1517 C1510 0.930 . S
C1518 C1519 1.351 . S
C1518 N1521 1.368 . S
C1518 H1523 0.931 . S
C1519 C1518 1.351 . S
C1519 N1520 1.373 . S
C1519 H1547 0.930 . S
N1520 C1519 1.373 . S
N1520 C1522 1.340 . S
N1521 C1518 1.368 . S
N1521 C1522 1.321 . S
N1521 Co1524 2.135 . S
C1522 N1520 1.340 . S
C1522 N1521 1.321 . S
C1522 H1546 0.930 . S
H1523 C1518 0.931 . S
Co1524 N1521 2.135 . S
Co1524 N1527 2.121 . S
Co1524 O1532 2.055 . S
Co1524 O1535 2.039 . S
Co1524 N1538 2.140 . S
C1525 O1526 1.227 . S
C1525 O1535 1.265 . S
O1526 C1525 1.227 . S
N1527 Co1524 2.121 . S
N1527 C1529 1.375 . S
N1527 C1530 1.313 . S
C1528 C1529 1.338 . S
C1528 N1531 1.377 . S
C1528 H1548 0.930 . S
C1529 N1527 1.375 . S
C1529 C1528 1.338 . S
C1529 H1533 0.931 . S
C1530 N1527 1.313 . S
C1530 N1531 1.344 . S
C1530 H1534 0.930 . S
N1531 C1528 1.377 . S
N1531 C1530 1.344 . S
O1532 Co1524 2.055 . S
O1532 C1536 1.253 . S
H1533 C1529 0.931 . S
H1534 C1530 0.930 . S
O1535 Co1524 2.039 . S
O1535 C1525 1.265 . S
C1536 O1532 1.253 . S
C1536 O1537 1.227 . S
O1537 C1536 1.227 . S
N1538 Co1524 2.140 . S
N1538 C1541 1.346 . S
N1538 C1542 1.345 . S
C1539 C1540 1.387 . S
C1539 C1543 1.391 . S
C1540 C1539 1.387 . S
C1540 C1541 1.369 . S
C1540 H1549 0.929 . S
C1541 N1538 1.346 . S
C1541 C1540 1.369 . S
C1541 H1544 0.928 . S
C1542 N1538 1.345 . S
C1542 C1543 1.371 . S
C1542 H1545 0.931 . S
C1543 C1539 1.391 . S
C1543 C1542 1.371 . S
C1543 H1550 0.930 . S
H1544 C1541 0.928 . S
H1545 C1542 0.931 . S
H1546 C1522 0.930 . S
H1547 C1519 0.930 . S
H1548 C1528 0.930 . S
H1549 C1540 0.929 . S
H1550 C1543 0.930 . S
C1551 C1552 1.351 . S
C1551 N1554 1.368 . S
C1551 H1556 0.931 . S
C1552 C1551 1.351 . S
C1552 N1553 1.373 . S
C1552 H1580 0.930 . S
N1553 C1552 1.373 . S
N1553 C1555 1.340 . S
N1554 C1551 1.368 . S
N1554 C1555 1.321 . S
N1554 Co1557 2.135 . S
C1555 N1553 1.340 . S
C1555 N1554 1.321 . S
C1555 H1579 0.930 . S
H1556 C1551 0.931 . S
Co1557 N1554 2.135 . S
Co1557 N1560 2.121 . S
Co1557 O1565 2.055 . S
Co1557 O1568 2.039 . S
Co1557 N1571 2.140 . S
C1558 O1559 1.227 . S
C1558 O1568 1.265 . S
O1559 C1558 1.227 . S
N1560 Co1557 2.121 . S
N1560 C1562 1.375 . S
N1560 C1563 1.313 . S
C1561 C1562 1.338 . S
C1561 N1564 1.377 . S
C1561 H1581 0.930 . S
C1562 N1560 1.375 . S
C1562 C1561 1.338 . S
C1562 H1566 0.931 . S
C1563 N1560 1.313 . S
C1563 N1564 1.344 . S
C1563 H1567 0.930 . S
N1564 C1561 1.377 . S
N1564 C1563 1.344 . S
O1565 Co1557 2.055 . S
O1565 C1569 1.253 . S
H1566 C1562 0.931 . S
H1567 C1563 0.930 . S
O1568 Co1557 2.039 . S
O1568 C1558 1.265 . S
C1569 O1565 1.253 . S
C1569 O1570 1.227 . S
O1570 C1569 1.227 . S
N1571 Co1557 2.140 . S
N1571 C1574 1.346 . S
N1571 C1575 1.345 . S
C1572 C1573 1.387 . S
C1572 C1576 1.391 . S
C1573 C1572 1.387 . S
C1573 C1574 1.369 . S
C1573 H1582 0.929 . S
C1574 N1571 1.346 . S
C1574 C1573 1.369 . S
C1574 H1577 0.928 . S
C1575 N1571 1.345 . S
C1575 C1576 1.371 . S
C1575 H1578 0.931 . S
C1576 C1572 1.391 . S
C1576 C1575 1.371 . S
C1576 H1583 0.930 . S
H1577 C1574 0.928 . S
H1578 C1575 0.931 . S
H1579 C1555 0.930 . S
H1580 C1552 0.930 . S
H1581 C1561 0.930 . S
H1582 C1573 0.929 . S
H1583 C1576 0.930 . S
C1584 C1585 1.363 . S
C1584 C1590 1.379 . S
C1584 N1592 1.356 . S
C1585 C1584 1.363 . S
C1585 C1591 1.363 . S
C1586 C1587 1.363 . S
C1586 C1591 1.379 . S
C1586 N1593 1.356 . S
C1587 C1586 1.363 . S
C1587 C1590 1.363 . S
N1588 C1590 1.356 . S
N1588 H1600 0.984 . S
N1588 H1601 0.985 . S
N1589 C1591 1.356 . S
N1589 H1594 0.984 . S
N1589 H1595 0.985 . S
C1590 C1584 1.379 . S
C1590 C1587 1.363 . S
C1590 N1588 1.356 . S
C1591 C1585 1.363 . S
C1591 C1586 1.379 . S
C1591 N1589 1.356 . S
N1592 C1584 1.356 . S
N1592 H1598 0.984 . S
N1592 H1599 0.984 . S
N1593 C1586 1.356 . S
N1593 H1596 0.984 . S
N1593 H1597 0.985 . S
H1594 N1589 0.984 . S
H1595 N1589 0.985 . S
H1596 N1593 0.984 . S
H1597 N1593 0.985 . S
H1598 N1592 0.984 . S
H1599 N1592 0.984 . S
H1600 N1588 0.984 . S
H1601 N1588 0.985 . S
C1602 C1603 1.363 . S
C1602 C1608 1.379 . S
C1602 N1610 1.356 . S
C1603 C1602 1.363 . S
C1603 C1609 1.363 . S
C1604 C1605 1.363 . S
C1604 C1609 1.379 . S
C1604 N1611 1.356 . S
C1605 C1604 1.363 . S
C1605 C1608 1.363 . S
N1606 C1608 1.356 . S
N1606 H1618 0.984 . S
N1606 H1619 0.985 . S
N1607 C1609 1.356 . S
N1607 H1612 0.984 . S
N1607 H1613 0.985 . S
C1608 C1602 1.379 . S
C1608 C1605 1.363 . S
C1608 N1606 1.356 . S
C1609 C1603 1.363 . S
C1609 C1604 1.379 . S
C1609 N1607 1.356 . S
N1610 C1602 1.356 . S
N1610 H1616 0.984 . S
N1610 H1617 0.984 . S
N1611 C1604 1.356 . S
N1611 H1614 0.984 . S
N1611 H1615 0.985 . S
H1612 N1607 0.984 . S
H1613 N1607 0.985 . S
H1614 N1611 0.984 . S
H1615 N1611 0.985 . S
H1616 N1610 0.984 . S
H1617 N1610 0.984 . S
H1618 N1606 0.984 . S
H1619 N1606 0.985 . S
C1620 C1621 1.363 . S
C1620 C1626 1.379 . S
C1620 N1628 1.356 . S
C1621 C1620 1.363 . S
C1621 C1627 1.363 . S
C1622 C1623 1.363 . S
C1622 C1627 1.379 . S
C1622 N1629 1.356 . S
C1623 C1622 1.363 . S
C1623 C1626 1.363 . S
N1624 C1626 1.356 . S
N1624 H1636 0.984 . S
N1624 H1637 0.985 . S
N1625 C1627 1.356 . S
N1625 H1630 0.984 . S
N1625 H1631 0.985 . S
C1626 C1620 1.379 . S
C1626 C1623 1.363 . S
C1626 N1624 1.356 . S
C1627 C1621 1.363 . S
C1627 C1622 1.379 . S
C1627 N1625 1.356 . S
N1628 C1620 1.356 . S
N1628 H1634 0.984 . S
N1628 H1635 0.984 . S
N1629 C1622 1.356 . S
N1629 H1632 0.984 . S
N1629 H1633 0.985 . S
H1630 N1625 0.984 . S
H1631 N1625 0.985 . S
H1632 N1629 0.984 . S
H1633 N1629 0.985 . S
H1634 N1628 0.984 . S
H1635 N1628 0.984 . S
H1636 N1624 0.984 . S
H1637 N1624 0.985 . S
C1638 C1639 1.363 . S
C1638 C1644 1.379 . S
C1638 N1646 1.356 . S
C1639 C1638 1.363 . S
C1639 C1645 1.363 . S
C1640 C1641 1.363 . S
C1640 C1645 1.379 . S
C1640 N1647 1.356 . S
C1641 C1640 1.363 . S
C1641 C1644 1.363 . S
N1642 C1644 1.356 . S
N1642 H1654 0.984 . S
N1642 H1655 0.985 . S
N1643 C1645 1.356 . S
N1643 H1648 0.984 . S
N1643 H1649 0.985 . S
C1644 C1638 1.379 . S
C1644 C1641 1.363 . S
C1644 N1642 1.356 . S
C1645 C1639 1.363 . S
C1645 C1640 1.379 . S
C1645 N1643 1.356 . S
N1646 C1638 1.356 . S
N1646 H1652 0.984 . S
N1646 H1653 0.984 . S
N1647 C1640 1.356 . S
N1647 H1650 0.984 . S
N1647 H1651 0.985 . S
H1648 N1643 0.984 . S
H1649 N1643 0.985 . S
H1650 N1647 0.984 . S
H1651 N1647 0.985 . S
H1652 N1646 0.984 . S
H1653 N1646 0.984 . S
H1654 N1642 0.984 . S
H1655 N1642 0.985 . S
C1656 C1657 1.363 . S
C1656 C1662 1.379 . S
C1656 N1664 1.356 . S
C1657 C1656 1.363 . S
C1657 C1663 1.363 . S
C1658 C1659 1.363 . S
C1658 C1663 1.379 . S
C1658 N1665 1.356 . S
C1659 C1658 1.363 . S
C1659 C1662 1.363 . S
N1660 C1662 1.356 . S
N1660 H1672 0.984 . S
N1660 H1673 0.985 . S
N1661 C1663 1.356 . S
N1661 H1666 0.984 . S
N1661 H1667 0.985 . S
C1662 C1656 1.379 . S
C1662 C1659 1.363 . S
C1662 N1660 1.356 . S
C1663 C1657 1.363 . S
C1663 C1658 1.379 . S
C1663 N1661 1.356 . S
N1664 C1656 1.356 . S
N1664 H1670 0.984 . S
N1664 H1671 0.984 . S
N1665 C1658 1.356 . S
N1665 H1668 0.984 . S
N1665 H1669 0.985 . S
H1666 N1661 0.984 . S
H1667 N1661 0.985 . S
H1668 N1665 0.984 . S
H1669 N1665 0.985 . S
H1670 N1664 0.984 . S
H1671 N1664 0.984 . S
H1672 N1660 0.984 . S
H1673 N1660 0.985 . S
C1674 C1675 1.363 . S
C1674 C1680 1.379 . S
C1674 N1682 1.356 . S
C1675 C1674 1.363 . S
C1675 C1681 1.363 . S
C1676 C1677 1.363 . S
C1676 C1681 1.379 . S
C1676 N1683 1.356 . S
C1677 C1676 1.363 . S
C1677 C1680 1.363 . S
N1678 C1680 1.356 . S
N1678 H1690 0.984 . S
N1678 H1691 0.985 . S
N1679 C1681 1.356 . S
N1679 H1684 0.984 . S
N1679 H1685 0.985 . S
C1680 C1674 1.379 . S
C1680 C1677 1.363 . S
C1680 N1678 1.356 . S
C1681 C1675 1.363 . S
C1681 C1676 1.379 . S
C1681 N1679 1.356 . S
N1682 C1674 1.356 . S
N1682 H1688 0.984 . S
N1682 H1689 0.984 . S
N1683 C1676 1.356 . S
N1683 H1686 0.984 . S
N1683 H1687 0.985 . S
H1684 N1679 0.984 . S
H1685 N1679 0.985 . S
H1686 N1683 0.984 . S
H1687 N1683 0.985 . S
H1688 N1682 0.984 . S
H1689 N1682 0.984 . S
H1690 N1678 0.984 . S
H1691 N1678 0.985 . S
C1692 C1693 1.363 . S
C1692 C1698 1.379 . S
C1692 N1700 1.356 . S
C1693 C1692 1.363 . S
C1693 C1699 1.363 . S
C1694 C1695 1.363 . S
C1694 C1699 1.379 . S
C1694 N1701 1.356 . S
C1695 C1694 1.363 . S
C1695 C1698 1.363 . S
N1696 C1698 1.356 . S
N1696 H1708 0.984 . S
N1696 H1709 0.985 . S
N1697 C1699 1.356 . S
N1697 H1702 0.984 . S
N1697 H1703 0.985 . S
C1698 C1692 1.379 . S
C1698 C1695 1.363 . S
C1698 N1696 1.356 . S
C1699 C1693 1.363 . S
C1699 C1694 1.379 . S
C1699 N1697 1.356 . S
N1700 C1692 1.356 . S
N1700 H1706 0.984 . S
N1700 H1707 0.984 . S
N1701 C1694 1.356 . S
N1701 H1704 0.984 . S
N1701 H1705 0.985 . S
H1702 N1697 0.984 . S
H1703 N1697 0.985 . S
H1704 N1701 0.984 . S
H1705 N1701 0.985 . S
H1706 N1700 0.984 . S
H1707 N1700 0.984 . S
H1708 N1696 0.984 . S
H1709 N1696 0.985 . S
C1710 C1711 1.363 . S
C1710 C1716 1.379 . S
C1710 N1718 1.356 . S
C1711 C1710 1.363 . S
C1711 C1717 1.363 . S
C1712 C1713 1.363 . S
C1712 C1717 1.379 . S
C1712 N1719 1.356 . S
C1713 C1712 1.363 . S
C1713 C1716 1.363 . S
N1714 C1716 1.356 . S
N1714 H1726 0.984 . S
N1714 H1727 0.985 . S
N1715 C1717 1.356 . S
N1715 H1720 0.984 . S
N1715 H1721 0.985 . S
C1716 C1710 1.379 . S
C1716 C1713 1.363 . S
C1716 N1714 1.356 . S
C1717 C1711 1.363 . S
C1717 C1712 1.379 . S
C1717 N1715 1.356 . S
N1718 C1710 1.356 . S
N1718 H1724 0.984 . S
N1718 H1725 0.984 . S
N1719 C1712 1.356 . S
N1719 H1722 0.984 . S
N1719 H1723 0.985 . S
H1720 N1715 0.984 . S
H1721 N1715 0.985 . S
H1722 N1719 0.984 . S
H1723 N1719 0.985 . S
H1724 N1718 0.984 . S
H1725 N1718 0.984 . S
H1726 N1714 0.984 . S
H1727 N1714 0.985 . S
C1728 C1729 1.363 . S
C1728 C1734 1.379 . S
C1728 N1736 1.356 . S
C1729 C1728 1.363 . S
C1729 C1735 1.363 . S
C1730 C1731 1.363 . S
C1730 C1735 1.379 . S
C1730 N1737 1.356 . S
C1731 C1730 1.363 . S
C1731 C1734 1.363 . S
N1732 C1734 1.356 . S
N1732 H1744 0.984 . S
N1732 H1745 0.985 . S
N1733 C1735 1.356 . S
N1733 H1738 0.984 . S
N1733 H1739 0.985 . S
C1734 C1728 1.379 . S
C1734 C1731 1.363 . S
C1734 N1732 1.356 . S
C1735 C1729 1.363 . S
C1735 C1730 1.379 . S
C1735 N1733 1.356 . S
N1736 C1728 1.356 . S
N1736 H1742 0.984 . S
N1736 H1743 0.984 . S
N1737 C1730 1.356 . S
N1737 H1740 0.984 . S
N1737 H1741 0.985 . S
H1738 N1733 0.984 . S
H1739 N1733 0.985 . S
H1740 N1737 0.984 . S
H1741 N1737 0.985 . S
H1742 N1736 0.984 . S
H1743 N1736 0.984 . S
H1744 N1732 0.984 . S
H1745 N1732 0.985 . S
C1746 C1747 1.363 . S
C1746 C1752 1.379 . S
C1746 N1754 1.356 . S
C1747 C1746 1.363 . S
C1747 C1753 1.363 . S
C1748 C1749 1.363 . S
C1748 C1753 1.379 . S
C1748 N1755 1.356 . S
C1749 C1748 1.363 . S
C1749 C1752 1.363 . S
N1750 C1752 1.356 . S
N1750 H1762 0.984 . S
N1750 H1763 0.985 . S
N1751 C1753 1.356 . S
N1751 H1756 0.984 . S
N1751 H1757 0.985 . S
C1752 C1746 1.379 . S
C1752 C1749 1.363 . S
C1752 N1750 1.356 . S
C1753 C1747 1.363 . S
C1753 C1748 1.379 . S
C1753 N1751 1.356 . S
N1754 C1746 1.356 . S
N1754 H1760 0.984 . S
N1754 H1761 0.984 . S
N1755 C1748 1.356 . S
N1755 H1758 0.984 . S
N1755 H1759 0.985 . S
H1756 N1751 0.984 . S
H1757 N1751 0.985 . S
H1758 N1755 0.984 . S
H1759 N1755 0.985 . S
H1760 N1754 0.984 . S
H1761 N1754 0.984 . S
H1762 N1750 0.984 . S
H1763 N1750 0.985 . S
C1764 C1765 1.363 . S
C1764 C1770 1.379 . S
C1764 N1772 1.356 . S
C1765 C1764 1.363 . S
C1765 C1771 1.363 . S
C1766 C1767 1.363 . S
C1766 C1771 1.379 . S
C1766 N1773 1.356 . S
C1767 C1766 1.363 . S
C1767 C1770 1.363 . S
N1768 C1770 1.356 . S
N1768 H1780 0.984 . S
N1768 H1781 0.985 . S
N1769 C1771 1.356 . S
N1769 H1774 0.984 . S
N1769 H1775 0.985 . S
C1770 C1764 1.379 . S
C1770 C1767 1.363 . S
C1770 N1768 1.356 . S
C1771 C1765 1.363 . S
C1771 C1766 1.379 . S
C1771 N1769 1.356 . S
N1772 C1764 1.356 . S
N1772 H1778 0.984 . S
N1772 H1779 0.984 . S
N1773 C1766 1.356 . S
N1773 H1776 0.984 . S
N1773 H1777 0.985 . S
H1774 N1769 0.984 . S
H1775 N1769 0.985 . S
H1776 N1773 0.984 . S
H1777 N1773 0.985 . S
H1778 N1772 0.984 . S
H1779 N1772 0.984 . S
H1780 N1768 0.984 . S
H1781 N1768 0.985 . S
C1782 C1783 1.363 . S
C1782 C1788 1.379 . S
C1782 N1790 1.356 . S
C1783 C1782 1.363 . S
C1783 C1789 1.363 . S
C1784 C1785 1.363 . S
C1784 C1789 1.379 . S
C1784 N1791 1.356 . S
C1785 C1784 1.363 . S
C1785 C1788 1.363 . S
N1786 C1788 1.356 . S
N1786 H1798 0.984 . S
N1786 H1799 0.985 . S
N1787 C1789 1.356 . S
N1787 H1792 0.984 . S
N1787 H1793 0.985 . S
C1788 C1782 1.379 . S
C1788 C1785 1.363 . S
C1788 N1786 1.356 . S
C1789 C1783 1.363 . S
C1789 C1784 1.379 . S
C1789 N1787 1.356 . S
N1790 C1782 1.356 . S
N1790 H1796 0.984 . S
N1790 H1797 0.984 . S
N1791 C1784 1.356 . S
N1791 H1794 0.984 . S
N1791 H1795 0.985 . S
H1792 N1787 0.984 . S
H1793 N1787 0.985 . S
H1794 N1791 0.984 . S
H1795 N1791 0.985 . S
H1796 N1790 0.984 . S
H1797 N1790 0.984 . S
H1798 N1786 0.984 . S
H1799 N1786 0.985 . S
C1800 C1801 1.363 . S
C1800 C1806 1.379 . S
C1800 N1808 1.356 . S
C1801 C1800 1.363 . S
C1801 C1807 1.363 . S
C1802 C1803 1.363 . S
C1802 C1807 1.379 . S
C1802 N1809 1.356 . S
C1803 C1802 1.363 . S
C1803 C1806 1.363 . S
N1804 C1806 1.356 . S
N1804 H1816 0.984 . S
N1804 H1817 0.985 . S
N1805 C1807 1.356 . S
N1805 H1810 0.984 . S
N1805 H1811 0.985 . S
C1806 C1800 1.379 . S
C1806 C1803 1.363 . S
C1806 N1804 1.356 . S
C1807 C1801 1.363 . S
C1807 C1802 1.379 . S
C1807 N1805 1.356 . S
N1808 C1800 1.356 . S
N1808 H1814 0.984 . S
N1808 H1815 0.984 . S
N1809 C1802 1.356 . S
N1809 H1812 0.984 . S
N1809 H1813 0.985 . S
H1810 N1805 0.984 . S
H1811 N1805 0.985 . S
H1812 N1809 0.984 . S
H1813 N1809 0.985 . S
H1814 N1808 0.984 . S
H1815 N1808 0.984 . S
H1816 N1804 0.984 . S
H1817 N1804 0.985 . S
C1818 C1819 1.363 . S
C1818 C1824 1.379 . S
C1818 N1826 1.356 . S
C1819 C1818 1.363 . S
C1819 C1825 1.363 . S
C1820 C1821 1.363 . S
C1820 C1825 1.379 . S
C1820 N1827 1.356 . S
C1821 C1820 1.363 . S
C1821 C1824 1.363 . S
N1822 C1824 1.356 . S
N1822 H1834 0.984 . S
N1822 H1835 0.985 . S
N1823 C1825 1.356 . S
N1823 H1828 0.984 . S
N1823 H1829 0.985 . S
C1824 C1818 1.379 . S
C1824 C1821 1.363 . S
C1824 N1822 1.356 . S
C1825 C1819 1.363 . S
C1825 C1820 1.379 . S
C1825 N1823 1.356 . S
N1826 C1818 1.356 . S
N1826 H1832 0.984 . S
N1826 H1833 0.984 . S
N1827 C1820 1.356 . S
N1827 H1830 0.984 . S
N1827 H1831 0.985 . S
H1828 N1823 0.984 . S
H1829 N1823 0.985 . S
H1830 N1827 0.984 . S
H1831 N1827 0.985 . S
H1832 N1826 0.984 . S
H1833 N1826 0.984 . S
H1834 N1822 0.984 . S
H1835 N1822 0.985 . S
C1836 C1837 1.363 . S
C1836 C1842 1.379 . S
C1836 N1844 1.356 . S
C1837 C1836 1.363 . S
C1837 C1843 1.363 . S
C1838 C1839 1.363 . S
C1838 C1843 1.379 . S
C1838 N1845 1.356 . S
C1839 C1838 1.363 . S
C1839 C1842 1.363 . S
N1840 C1842 1.356 . S
N1840 H1852 0.984 . S
N1840 H1853 0.985 . S
N1841 C1843 1.356 . S
N1841 H1846 0.984 . S
N1841 H1847 0.985 . S
C1842 C1836 1.379 . S
C1842 C1839 1.363 . S
C1842 N1840 1.356 . S
C1843 C1837 1.363 . S
C1843 C1838 1.379 . S
C1843 N1841 1.356 . S
N1844 C1836 1.356 . S
N1844 H1850 0.984 . S
N1844 H1851 0.984 . S
N1845 C1838 1.356 . S
N1845 H1848 0.984 . S
N1845 H1849 0.985 . S
H1846 N1841 0.984 . S
H1847 N1841 0.985 . S
H1848 N1845 0.984 . S
H1849 N1845 0.985 . S
H1850 N1844 0.984 . S
H1851 N1844 0.984 . S
H1852 N1840 0.984 . S
H1853 N1840 0.985 . S
C1854 C1855 1.363 . S
C1854 C1860 1.379 . S
C1854 N1862 1.356 . S
C1855 C1854 1.363 . S
C1855 C1861 1.363 . S
C1856 C1857 1.363 . S
C1856 C1861 1.379 . S
C1856 N1863 1.356 . S
C1857 C1856 1.363 . S
C1857 C1860 1.363 . S
N1858 C1860 1.356 . S
N1858 H1870 0.984 . S
N1858 H1871 0.985 . S
N1859 C1861 1.356 . S
N1859 H1864 0.984 . S
N1859 H1865 0.985 . S
C1860 C1854 1.379 . S
C1860 C1857 1.363 . S
C1860 N1858 1.356 . S
C1861 C1855 1.363 . S
C1861 C1856 1.379 . S
C1861 N1859 1.356 . S
N1862 C1854 1.356 . S
N1862 H1868 0.984 . S
N1862 H1869 0.984 . S
N1863 C1856 1.356 . S
N1863 H1866 0.984 . S
N1863 H1867 0.985 . S
H1864 N1859 0.984 . S
H1865 N1859 0.985 . S
H1866 N1863 0.984 . S
H1867 N1863 0.985 . S
H1868 N1862 0.984 . S
H1869 N1862 0.984 . S
H1870 N1858 0.984 . S
H1871 N1858 0.985 . S
C1872 C1873 1.363 . S
C1872 C1878 1.379 . S
C1872 N1880 1.356 . S
C1873 C1872 1.363 . S
C1873 C1879 1.363 . S
C1874 C1875 1.363 . S
C1874 C1879 1.379 . S
C1874 N1881 1.356 . S
C1875 C1874 1.363 . S
C1875 C1878 1.363 . S
N1876 C1878 1.356 . S
N1876 H1888 0.984 . S
N1876 H1889 0.985 . S
N1877 C1879 1.356 . S
N1877 H1882 0.984 . S
N1877 H1883 0.985 . S
C1878 C1872 1.379 . S
C1878 C1875 1.363 . S
C1878 N1876 1.356 . S
C1879 C1873 1.363 . S
C1879 C1874 1.379 . S
C1879 N1877 1.356 . S
N1880 C1872 1.356 . S
N1880 H1886 0.984 . S
N1880 H1887 0.984 . S
N1881 C1874 1.356 . S
N1881 H1884 0.984 . S
N1881 H1885 0.985 . S
H1882 N1877 0.984 . S
H1883 N1877 0.985 . S
H1884 N1881 0.984 . S
H1885 N1881 0.985 . S
H1886 N1880 0.984 . S
H1887 N1880 0.984 . S
H1888 N1876 0.984 . S
H1889 N1876 0.985 . S
C1890 C1891 1.363 . S
C1890 C1896 1.379 . S
C1890 N1898 1.356 . S
C1891 C1890 1.363 . S
C1891 C1897 1.363 . S
C1892 C1893 1.363 . S
C1892 C1897 1.379 . S
C1892 N1899 1.356 . S
C1893 C1892 1.363 . S
C1893 C1896 1.363 . S
N1894 C1896 1.356 . S
N1894 H1906 0.984 . S
N1894 H1907 0.985 . S
N1895 C1897 1.356 . S
N1895 H1900 0.984 . S
N1895 H1901 0.985 . S
C1896 C1890 1.379 . S
C1896 C1893 1.363 . S
C1896 N1894 1.356 . S
C1897 C1891 1.363 . S
C1897 C1892 1.379 . S
C1897 N1895 1.356 . S
N1898 C1890 1.356 . S
N1898 H1904 0.984 . S
N1898 H1905 0.984 . S
N1899 C1892 1.356 . S
N1899 H1902 0.984 . S
N1899 H1903 0.985 . S
H1900 N1895 0.984 . S
H1901 N1895 0.985 . S
H1902 N1899 0.984 . S
H1903 N1899 0.985 . S
H1904 N1898 0.984 . S
H1905 N1898 0.984 . S
H1906 N1894 0.984 . S
H1907 N1894 0.985 . S
C1908 C1909 1.363 . S
C1908 C1914 1.379 . S
C1908 N1916 1.356 . S
C1909 C1908 1.363 . S
C1909 C1915 1.363 . S
C1910 C1911 1.363 . S
C1910 C1915 1.379 . S
C1910 N1917 1.356 . S
C1911 C1910 1.363 . S
C1911 C1914 1.363 . S
N1912 C1914 1.356 . S
N1912 H1924 0.984 . S
N1912 H1925 0.985 . S
N1913 C1915 1.356 . S
N1913 H1918 0.984 . S
N1913 H1919 0.985 . S
C1914 C1908 1.379 . S
C1914 C1911 1.363 . S
C1914 N1912 1.356 . S
C1915 C1909 1.363 . S
C1915 C1910 1.379 . S
C1915 N1913 1.356 . S
N1916 C1908 1.356 . S
N1916 H1922 0.984 . S
N1916 H1923 0.984 . S
N1917 C1910 1.356 . S
N1917 H1920 0.984 . S
N1917 H1921 0.985 . S
H1918 N1913 0.984 . S
H1919 N1913 0.985 . S
H1920 N1917 0.984 . S
H1921 N1917 0.985 . S
H1922 N1916 0.984 . S
H1923 N1916 0.984 . S
H1924 N1912 0.984 . S
H1925 N1912 0.985 . S
C1926 C1927 1.363 . S
C1926 C1932 1.379 . S
C1926 N1934 1.356 . S
C1927 C1926 1.363 . S
C1927 C1933 1.363 . S
C1928 C1929 1.363 . S
C1928 C1933 1.379 . S
C1928 N1935 1.356 . S
C1929 C1928 1.363 . S
C1929 C1932 1.363 . S
N1930 C1932 1.356 . S
N1930 H1942 0.984 . S
N1930 H1943 0.985 . S
N1931 C1933 1.356 . S
N1931 H1936 0.984 . S
N1931 H1937 0.985 . S
C1932 C1926 1.379 . S
C1932 C1929 1.363 . S
C1932 N1930 1.356 . S
C1933 C1927 1.363 . S
C1933 C1928 1.379 . S
C1933 N1931 1.356 . S
N1934 C1926 1.356 . S
N1934 H1940 0.984 . S
N1934 H1941 0.984 . S
N1935 C1928 1.356 . S
N1935 H1938 0.984 . S
N1935 H1939 0.985 . S
H1936 N1931 0.984 . S
H1937 N1931 0.985 . S
H1938 N1935 0.984 . S
H1939 N1935 0.985 . S
H1940 N1934 0.984 . S
H1941 N1934 0.984 . S
H1942 N1930 0.984 . S
H1943 N1930 0.985 . S
C1944 C1945 1.363 . S
C1944 C1950 1.379 . S
C1944 N1952 1.356 . S
C1945 C1944 1.363 . S
C1945 C1951 1.363 . S
C1946 C1947 1.363 . S
C1946 C1951 1.379 . S
C1946 N1953 1.356 . S
C1947 C1946 1.363 . S
C1947 C1950 1.363 . S
N1948 C1950 1.356 . S
N1948 H1960 0.984 . S
N1948 H1961 0.985 . S
N1949 C1951 1.356 . S
N1949 H1954 0.984 . S
N1949 H1955 0.985 . S
C1950 C1944 1.379 . S
C1950 C1947 1.363 . S
C1950 N1948 1.356 . S
C1951 C1945 1.363 . S
C1951 C1946 1.379 . S
C1951 N1949 1.356 . S
N1952 C1944 1.356 . S
N1952 H1958 0.984 . S
N1952 H1959 0.984 . S
N1953 C1946 1.356 . S
N1953 H1956 0.984 . S
N1953 H1957 0.985 . S
H1954 N1949 0.984 . S
H1955 N1949 0.985 . S
H1956 N1953 0.984 . S
H1957 N1953 0.985 . S
H1958 N1952 0.984 . S
H1959 N1952 0.984 . S
H1960 N1948 0.984 . S
H1961 N1948 0.985 . S
C1962 C1963 1.363 . S
C1962 C1968 1.379 . S
C1962 N1970 1.356 . S
C1963 C1962 1.363 . S
C1963 C1969 1.363 . S
C1964 C1965 1.363 . S
C1964 C1969 1.379 . S
C1964 N1971 1.356 . S
C1965 C1964 1.363 . S
C1965 C1968 1.363 . S
N1966 C1968 1.356 . S
N1966 H1978 0.984 . S
N1966 H1979 0.985 . S
N1967 C1969 1.356 . S
N1967 H1972 0.984 . S
N1967 H1973 0.985 . S
C1968 C1962 1.379 . S
C1968 C1965 1.363 . S
C1968 N1966 1.356 . S
C1969 C1963 1.363 . S
C1969 C1964 1.379 . S
C1969 N1967 1.356 . S
N1970 C1962 1.356 . S
N1970 H1976 0.984 . S
N1970 H1977 0.984 . S
N1971 C1964 1.356 . S
N1971 H1974 0.984 . S
N1971 H1975 0.985 . S
H1972 N1967 0.984 . S
H1973 N1967 0.985 . S
H1974 N1971 0.984 . S
H1975 N1971 0.985 . S
H1976 N1970 0.984 . S
H1977 N1970 0.984 . S
H1978 N1966 0.984 . S
H1979 N1966 0.985 . S
C1980 C1981 1.363 . S
C1980 C1986 1.379 . S
C1980 N1988 1.356 . S
C1981 C1980 1.363 . S
C1981 C1987 1.363 . S
C1982 C1983 1.363 . S
C1982 C1987 1.379 . S
C1982 N1989 1.356 . S
C1983 C1982 1.363 . S
C1983 C1986 1.363 . S
N1984 C1986 1.356 . S
N1984 H1996 0.984 . S
N1984 H1997 0.985 . S
N1985 C1987 1.356 . S
N1985 H1990 0.984 . S
N1985 H1991 0.985 . S
C1986 C1980 1.379 . S
C1986 C1983 1.363 . S
C1986 N1984 1.356 . S
C1987 C1981 1.363 . S
C1987 C1982 1.379 . S
C1987 N1985 1.356 . S
N1988 C1980 1.356 . S
N1988 H1994 0.984 . S
N1988 H1995 0.984 . S
N1989 C1982 1.356 . S
N1989 H1992 0.984 . S
N1989 H1993 0.985 . S
H1990 N1985 0.984 . S
H1991 N1985 0.985 . S
H1992 N1989 0.984 . S
H1993 N1989 0.985 . S
H1994 N1988 0.984 . S
H1995 N1988 0.984 . S
H1996 N1984 0.984 . S
H1997 N1984 0.985 . S
C1998 C1999 1.363 . S
C1998 C2004 1.379 . S
C1998 N2006 1.356 . S
C1999 C1998 1.363 . S
C1999 C2005 1.363 . S
C2000 C2001 1.363 . S
C2000 C2005 1.379 . S
C2000 N2007 1.356 . S
C2001 C2000 1.363 . S
C2001 C2004 1.363 . S
N2002 C2004 1.356 . S
N2002 H2014 0.984 . S
N2002 H2015 0.985 . S
N2003 C2005 1.356 . S
N2003 H2008 0.984 . S
N2003 H2009 0.985 . S
C2004 C1998 1.379 . S
C2004 C2001 1.363 . S
C2004 N2002 1.356 . S
C2005 C1999 1.363 . S
C2005 C2000 1.379 . S
C2005 N2003 1.356 . S
N2006 C1998 1.356 . S
N2006 H2012 0.984 . S
N2006 H2013 0.984 . S
N2007 C2000 1.356 . S
N2007 H2010 0.984 . S
N2007 H2011 0.985 . S
H2008 N2003 0.984 . S
H2009 N2003 0.985 . S
H2010 N2007 0.984 . S
H2011 N2007 0.985 . S
H2012 N2006 0.984 . S
H2013 N2006 0.984 . S
H2014 N2002 0.984 . S
H2015 N2002 0.985 . S
C2016 C2017 1.363 . S
C2016 C2022 1.379 . S
C2016 N2024 1.356 . S
C2017 C2016 1.363 . S
C2017 C2023 1.363 1_655 S
C2018 C2019 1.363 . S
C2018 C2023 1.379 . S
C2018 N2025 1.356 . S
C2019 C2018 1.363 . S
C2019 C2022 1.363 1_455 S
N2020 C2022 1.356 . S
N2020 H2032 0.984 . S
N2020 H2033 0.985 1_655 S
N2021 C2023 1.356 . S
N2021 H2026 0.984 1_455 S
N2021 H2027 0.985 . S
C2022 C2016 1.379 . S
C2022 C2019 1.363 1_655 S
C2022 N2020 1.356 . S
C2023 C2017 1.363 1_455 S
C2023 C2018 1.379 . S
C2023 N2021 1.356 . S
N2024 C2016 1.356 . S
N2024 H2030 0.984 . S
N2024 H2031 0.984 . S
N2025 C2018 1.356 . S
N2025 H2028 0.984 . S
N2025 H2029 0.985 . S
H2026 N2021 0.984 1_655 S
H2027 N2021 0.985 . S
H2028 N2025 0.984 . S
H2029 N2025 0.985 . S
H2030 N2024 0.984 . S
H2031 N2024 0.984 . S
H2032 N2020 0.984 . S
H2033 N2020 0.985 1_455 S
C2034 C2035 1.363 1_565 S
C2034 C2040 1.379 . S
C2034 N2042 1.356 . S
C2035 C2034 1.363 1_545 S
C2035 C2041 1.363 . S
C2036 C2037 1.363 1_545 S
C2036 C2041 1.379 . S
C2036 N2043 1.356 . S
C2037 C2036 1.363 1_565 S
C2037 C2040 1.363 . S
N2038 C2040 1.356 . S
N2038 H2050 0.984 . S
N2038 H2051 0.985 . S
N2039 C2041 1.356 . S
N2039 H2044 0.984 . S
N2039 H2045 0.985 . S
C2040 C2034 1.379 . S
C2040 C2037 1.363 . S
C2040 N2038 1.356 . S
C2041 C2035 1.363 . S
C2041 C2036 1.379 . S
C2041 N2039 1.356 . S
N2042 C2034 1.356 . S
N2042 H2048 0.984 . S
N2042 H2049 0.984 1_565 S
N2043 C2036 1.356 . S
N2043 H2046 0.984 1_545 S
N2043 H2047 0.985 . S
H2044 N2039 0.984 . S
H2045 N2039 0.985 . S
H2046 N2043 0.984 1_565 S
H2047 N2043 0.985 . S
H2048 N2042 0.984 . S
H2049 N2042 0.984 1_545 S
H2050 N2038 0.984 . S
H2051 N2038 0.985 . S
C2052 C2053 1.363 1_455 S
C2052 C2058 1.379 . S
C2052 N2060 1.356 . S
C2053 C2052 1.363 1_655 S
C2053 C2059 1.363 . S
C2054 C2055 1.363 1_655 S
C2054 C2059 1.379 . S
C2054 N2061 1.356 . S
C2055 C2054 1.363 1_455 S
C2055 C2058 1.363 . S
N2056 C2058 1.356 . S
N2056 H2068 0.984 . S
N2056 H2069 0.985 . S
N2057 C2059 1.356 . S
N2057 H2062 0.984 . S
N2057 H2063 0.985 . S
C2058 C2052 1.379 . S
C2058 C2055 1.363 . S
C2058 N2056 1.356 . S
C2059 C2053 1.363 . S
C2059 C2054 1.379 . S
C2059 N2057 1.356 . S
N2060 C2052 1.356 . S
N2060 H2066 0.984 . S
N2060 H2067 0.984 1_455 S
N2061 C2054 1.356 . S
N2061 H2064 0.984 1_655 S
N2061 H2065 0.985 . S
H2062 N2057 0.984 . S
H2063 N2057 0.985 . S
H2064 N2061 0.984 1_455 S
H2065 N2061 0.985 . S
H2066 N2060 0.984 . S
H2067 N2060 0.984 1_655 S
H2068 N2056 0.984 . S
H2069 N2056 0.985 . S
C2070 C2071 1.363 1_545 S
C2070 C2076 1.379 . S
C2070 N2078 1.356 . S
C2071 C2070 1.363 1_565 S
C2071 C2077 1.363 . S
C2072 C2073 1.363 1_565 S
C2072 C2077 1.379 . S
C2072 N2079 1.356 . S
C2073 C2072 1.363 1_545 S
C2073 C2076 1.363 . S
N2074 C2076 1.356 . S
N2074 H2086 0.984 . S
N2074 H2087 0.985 . S
N2075 C2077 1.356 . S
N2075 H2080 0.984 . S
N2075 H2081 0.985 . S
C2076 C2070 1.379 . S
C2076 C2073 1.363 . S
C2076 N2074 1.356 . S
C2077 C2071 1.363 . S
C2077 C2072 1.379 . S
C2077 N2075 1.356 . S
N2078 C2070 1.356 . S
N2078 H2084 0.984 . S
N2078 H2085 0.984 1_545 S
N2079 C2072 1.356 . S
N2079 H2082 0.984 1_565 S
N2079 H2083 0.985 . S
H2080 N2075 0.984 . S
H2081 N2075 0.985 . S
H2082 N2079 0.984 1_545 S
H2083 N2079 0.985 . S
H2084 N2078 0.984 . S
H2085 N2078 0.984 1_565 S
H2086 N2074 0.984 . S
H2087 N2074 0.985 . S
C2088 C2089 1.363 . S
C2088 C2094 1.379 . S
C2088 N2096 1.356 . S
C2089 C2088 1.363 . S
C2089 C2095 1.363 1_545 S
C2090 C2091 1.363 . S
C2090 C2095 1.379 . S
C2090 N2097 1.356 . S
C2091 C2090 1.363 . S
C2091 C2094 1.363 1_565 S
N2092 C2094 1.356 . S
N2092 H2104 0.984 . S
N2092 H2105 0.985 . S
N2093 C2095 1.356 . S
N2093 H2098 0.984 . S
N2093 H2099 0.985 . S
C2094 C2088 1.379 . S
C2094 C2091 1.363 1_545 S
C2094 N2092 1.356 . S
C2095 C2089 1.363 1_565 S
C2095 C2090 1.379 . S
C2095 N2093 1.356 . S
N2096 C2088 1.356 . S
N2096 H2102 0.984 . S
N2096 H2103 0.984 . S
N2097 C2090 1.356 . S
N2097 H2100 0.984 . S
N2097 H2101 0.985 . S
H2098 N2093 0.984 . S
H2099 N2093 0.985 . S
H2100 N2097 0.984 . S
H2101 N2097 0.985 . S
H2102 N2096 0.984 . S
H2103 N2096 0.984 . S
H2104 N2092 0.984 . S
H2105 N2092 0.985 . S
C2106 C2107 1.363 . S
C2106 C2112 1.379 . S
C2106 N2114 1.356 . S
C2107 C2106 1.363 . S
C2107 C2113 1.363 1_455 S
C2108 C2109 1.363 . S
C2108 C2113 1.379 . S
C2108 N2115 1.356 . S
C2109 C2108 1.363 . S
C2109 C2112 1.363 1_655 S
N2110 C2112 1.356 . S
N2110 H2122 0.984 . S
N2110 H2123 0.985 1_455 S
N2111 C2113 1.356 . S
N2111 H2116 0.984 1_655 S
N2111 H2117 0.985 . S
C2112 C2106 1.379 . S
C2112 C2109 1.363 1_455 S
C2112 N2110 1.356 . S
C2113 C2107 1.363 1_655 S
C2113 C2108 1.379 . S
C2113 N2111 1.356 . S
N2114 C2106 1.356 . S
N2114 H2120 0.984 . S
N2114 H2121 0.984 . S
N2115 C2108 1.356 . S
N2115 H2118 0.984 . S
N2115 H2119 0.985 . S
H2116 N2111 0.984 1_455 S
H2117 N2111 0.985 . S
H2118 N2115 0.984 . S
H2119 N2115 0.985 . S
H2120 N2114 0.984 . S
H2121 N2114 0.984 . S
H2122 N2110 0.984 . S
H2123 N2110 0.985 1_655 S
C2124 C2125 1.363 . S
C2124 C2130 1.379 . S
C2124 N2132 1.356 . S
C2125 C2124 1.363 . S
C2125 C2131 1.363 1_545 S
C2126 C2127 1.363 . S
C2126 C2131 1.379 . S
C2126 N2133 1.356 . S
C2127 C2126 1.363 . S
C2127 C2130 1.363 1_565 S
N2128 C2130 1.356 . S
N2128 H2140 0.984 . S
N2128 H2141 0.985 . S
N2129 C2131 1.356 . S
N2129 H2134 0.984 . S
N2129 H2135 0.985 . S
C2130 C2124 1.379 . S
C2130 C2127 1.363 1_545 S
C2130 N2128 1.356 . S
C2131 C2125 1.363 1_565 S
C2131 C2126 1.379 . S
C2131 N2129 1.356 . S
N2132 C2124 1.356 . S
N2132 H2138 0.984 . S
N2132 H2139 0.984 . S
N2133 C2126 1.356 . S
N2133 H2136 0.984 . S
N2133 H2137 0.985 . S
H2134 N2129 0.984 . S
H2135 N2129 0.985 . S
H2136 N2133 0.984 . S
H2137 N2133 0.985 . S
H2138 N2132 0.984 . S
H2139 N2132 0.984 . S
H2140 N2128 0.984 . S
H2141 N2128 0.985 . S
C2142 C2143 1.363 1_455 S
C2142 C2148 1.379 . S
C2142 N2150 1.356 . S
C2143 C2142 1.363 1_655 S
C2143 C2149 1.363 . S
C2144 C2145 1.363 1_655 S
C2144 C2149 1.379 . S
C2144 N2151 1.356 . S
C2145 C2144 1.363 1_455 S
C2145 C2148 1.363 . S
N2146 C2148 1.356 . S
N2146 H2158 0.984 . S
N2146 H2159 0.985 . S
N2147 C2149 1.356 . S
N2147 H2152 0.984 . S
N2147 H2153 0.985 . S
C2148 C2142 1.379 . S
C2148 C2145 1.363 . S
C2148 N2146 1.356 . S
C2149 C2143 1.363 . S
C2149 C2144 1.379 . S
C2149 N2147 1.356 . S
N2150 C2142 1.356 . S
N2150 H2156 0.984 . S
N2150 H2157 0.984 1_455 S
N2151 C2144 1.356 . S
N2151 H2154 0.984 1_655 S
N2151 H2155 0.985 . S
H2152 N2147 0.984 . S
H2153 N2147 0.985 . S
H2154 N2151 0.984 1_455 S
H2155 N2151 0.985 . S
H2156 N2150 0.984 . S
H2157 N2150 0.984 1_655 S
H2158 N2146 0.984 . S
H2159 N2146 0.985 . S
C2160 C2161 1.363 1_554 S
C2160 C2166 1.379 . S
C2160 N2168 1.356 . S
C2161 C2160 1.363 1_556 S
C2161 C2167 1.363 . S
C2162 C2163 1.363 1_556 S
C2162 C2167 1.379 . S
C2162 N2169 1.356 . S
C2163 C2162 1.363 1_554 S
C2163 C2166 1.363 . S
N2164 C2166 1.356 . S
N2164 H2176 0.984 . S
N2164 H2177 0.985 . S
N2165 C2167 1.356 . S
N2165 H2170 0.984 . S
N2165 H2171 0.985 . S
C2166 C2160 1.379 . S
C2166 C2163 1.363 . S
C2166 N2164 1.356 . S
C2167 C2161 1.363 . S
C2167 C2162 1.379 . S
C2167 N2165 1.356 . S
N2168 C2160 1.356 . S
N2168 H2174 0.984 . S
N2168 H2175 0.984 1_554 S
N2169 C2162 1.356 . S
N2169 H2172 0.984 1_556 S
N2169 H2173 0.985 . S
H2170 N2165 0.984 . S
H2171 N2165 0.985 . S
H2172 N2169 0.984 1_554 S
H2173 N2169 0.985 . S
H2174 N2168 0.984 . S
H2175 N2168 0.984 1_556 S
H2176 N2164 0.984 . S
H2177 N2164 0.985 . S
C2178 C2179 1.363 1_554 S
C2178 C2184 1.379 . S
C2178 N2186 1.356 . S
C2179 C2178 1.363 1_556 S
C2179 C2185 1.363 . S
C2180 C2181 1.363 1_556 S
C2180 C2185 1.379 . S
C2180 N2187 1.356 . S
C2181 C2180 1.363 1_554 S
C2181 C2184 1.363 . S
N2182 C2184 1.356 . S
N2182 H2194 0.984 . S
N2182 H2195 0.985 . S
N2183 C2185 1.356 . S
N2183 H2188 0.984 . S
N2183 H2189 0.985 . S
C2184 C2178 1.379 . S
C2184 C2181 1.363 . S
C2184 N2182 1.356 . S
C2185 C2179 1.363 . S
C2185 C2180 1.379 . S
C2185 N2183 1.356 . S
N2186 C2178 1.356 . S
N2186 H2192 0.984 . S
N2186 H2193 0.984 1_554 S
N2187 C2180 1.356 . S
N2187 H2190 0.984 1_556 S
N2187 H2191 0.985 . S
H2188 N2183 0.984 . S
H2189 N2183 0.985 . S
H2190 N2187 0.984 1_554 S
H2191 N2187 0.985 . S
H2192 N2186 0.984 . S
H2193 N2186 0.984 1_556 S
H2194 N2182 0.984 . S
H2195 N2182 0.985 . S
C2196 C2197 1.363 . S
C2196 C2202 1.379 . S
C2196 N2204 1.356 . S
C2197 C2196 1.363 . S
C2197 C2203 1.363 1_556 S
C2198 C2199 1.363 . S
C2198 C2203 1.379 . S
C2198 N2205 1.356 . S
C2199 C2198 1.363 . S
C2199 C2202 1.363 1_554 S
N2200 C2202 1.356 . S
N2200 H2212 0.984 . S
N2200 H2213 1.014 . S
N2201 C2203 1.356 . S
N2201 H2206 1.014 . S
N2201 H2207 0.985 . S
C2202 C2196 1.379 . S
C2202 C2199 1.363 1_556 S
C2202 N2200 1.356 . S
C2203 C2197 1.363 1_554 S
C2203 C2198 1.379 . S
C2203 N2201 1.356 . S
N2204 C2196 1.356 . S
N2204 H2210 0.984 . S
N2204 H2211 0.984 . S
N2205 C2198 1.356 . S
N2205 H2208 0.984 . S
N2205 H2209 0.985 . S
H2206 N2201 1.014 . S
H2207 N2201 0.985 . S
H2208 N2205 0.984 . S
H2209 N2205 0.985 . S
H2210 N2204 0.984 . S
H2211 N2204 0.984 . S
H2212 N2200 0.984 . S
H2213 N2200 1.014 . S
C2214 C2215 1.363 . S
C2214 C2220 1.379 . S
C2214 N2222 1.356 . S
C2215 C2214 1.363 . S
C2215 C2221 1.363 1_556 S
C2216 C2217 1.363 . S
C2216 C2221 1.379 . S
C2216 N2223 1.356 . S
C2217 C2216 1.363 . S
C2217 C2220 1.363 1_554 S
N2218 C2220 1.356 . S
N2218 H2230 0.984 . S
N2218 H2231 0.985 . S
N2219 C2221 1.356 . S
N2219 H2224 0.984 . S
N2219 H2225 0.985 . S
C2220 C2214 1.379 . S
C2220 C2217 1.363 1_556 S
C2220 N2218 1.356 . S
C2221 C2215 1.363 1_554 S
C2221 C2216 1.379 . S
C2221 N2219 1.356 . S
N2222 C2214 1.356 . S
N2222 H2228 0.984 . S
N2222 H2229 0.984 . S
N2223 C2216 1.356 . S
N2223 H2226 0.984 . S
N2223 H2227 0.985 . S
H2224 N2219 0.984 . S
H2225 N2219 0.985 . S
H2226 N2223 0.984 . S
H2227 N2223 0.985 . S
H2228 N2222 0.984 . S
H2229 N2222 0.984 . S
H2230 N2218 0.984 . S
H2231 N2218 0.985 . S
C2232 C2233 1.363 . S
C2232 C2238 1.379 1_545 S
C2232 N2240 1.356 . S
C2233 C2232 1.363 . S
C2233 C2239 1.363 . S
C2234 C2235 1.363 . S
C2234 C2239 1.379 1_565 S
C2234 N2241 1.356 . S
C2235 C2234 1.363 . S
C2235 C2238 1.363 . S
N2236 C2238 1.356 . S
N2236 H2248 0.984 . S
N2236 H2249 0.985 . S
N2237 C2239 1.356 . S
N2237 H2242 0.984 . S
N2237 H2243 0.985 . S
C2238 C2232 1.379 1_565 S
C2238 C2235 1.363 . S
C2238 N2236 1.356 . S
C2239 C2233 1.363 . S
C2239 C2234 1.379 1_545 S
C2239 N2237 1.356 . S
N2240 C2232 1.356 . S
N2240 H2246 0.984 . S
N2240 H2247 0.984 . S
N2241 C2234 1.356 . S
N2241 H2244 0.984 . S
N2241 H2245 0.985 . S
H2242 N2237 0.984 . S
H2243 N2237 0.985 . S
H2244 N2241 0.984 . S
H2245 N2241 0.985 . S
H2246 N2240 0.984 . S
H2247 N2240 0.984 . S
H2248 N2236 0.984 . S
H2249 N2236 0.985 . S
C2250 C2251 1.363 . S
C2250 C2256 1.379 1_655 S
C2250 N2258 1.356 . S
C2251 C2250 1.363 . S
C2251 C2257 1.363 . S
C2252 C2253 1.363 . S
C2252 C2257 1.379 1_455 S
C2252 N2259 1.356 . S
C2253 C2252 1.363 . S
C2253 C2256 1.363 . S
N2254 C2256 1.356 . S
N2254 H2266 0.984 . S
N2254 H2267 0.985 . S
N2255 C2257 1.356 . S
N2255 H2260 0.984 . S
N2255 H2261 0.985 . S
C2256 C2250 1.379 1_455 S
C2256 C2253 1.363 . S
C2256 N2254 1.356 . S
C2257 C2251 1.363 . S
C2257 C2252 1.379 1_655 S
C2257 N2255 1.356 . S
N2258 C2250 1.356 . S
N2258 H2264 0.984 . S
N2258 H2265 0.984 . S
N2259 C2252 1.356 . S
N2259 H2262 0.984 . S
N2259 H2263 0.985 . S
H2260 N2255 0.984 . S
H2261 N2255 0.985 . S
H2262 N2259 0.984 . S
H2263 N2259 0.985 . S
H2264 N2258 0.984 . S
H2265 N2258 0.984 . S
H2266 N2254 0.984 . S
H2267 N2254 0.985 . S
C2268 C2269 1.363 . S
C2268 C2274 1.379 1_565 S
C2268 N2276 1.356 . S
C2269 C2268 1.363 . S
C2269 C2275 1.363 . S
C2270 C2271 1.363 . S
C2270 C2275 1.379 1_545 S
C2270 N2277 1.356 . S
C2271 C2270 1.363 . S
C2271 C2274 1.363 . S
N2272 C2274 1.356 . S
N2272 H2284 0.984 . S
N2272 H2285 0.985 . S
N2273 C2275 1.356 . S
N2273 H2278 0.984 . S
N2273 H2279 0.985 . S
C2274 C2268 1.379 1_545 S
C2274 C2271 1.363 . S
C2274 N2272 1.356 . S
C2275 C2269 1.363 . S
C2275 C2270 1.379 1_565 S
C2275 N2273 1.356 . S
N2276 C2268 1.356 . S
N2276 H2282 0.984 . S
N2276 H2283 0.984 . S
N2277 C2270 1.356 . S
N2277 H2280 0.984 . S
N2277 H2281 0.985 . S
H2278 N2273 0.984 . S
H2279 N2273 0.985 . S
H2280 N2277 0.984 . S
H2281 N2277 0.985 . S
H2282 N2276 0.984 . S
H2283 N2276 0.984 . S
H2284 N2272 0.984 . S
H2285 N2272 0.985 . S
C2286 C2287 1.363 . S
C2286 C2292 1.379 1_455 S
C2286 N2294 1.356 . S
C2287 C2286 1.363 . S
C2287 C2293 1.363 . S
C2288 C2289 1.363 . S
C2288 C2293 1.379 1_655 S
C2288 N2295 1.356 . S
C2289 C2288 1.363 . S
C2289 C2292 1.363 . S
N2290 C2292 1.356 . S
N2290 H2302 0.984 . S
N2290 H2303 0.985 . S
N2291 C2293 1.356 . S
N2291 H2296 0.984 . S
N2291 H2297 0.985 . S
C2292 C2286 1.379 1_655 S
C2292 C2289 1.363 . S
C2292 N2290 1.356 . S
C2293 C2287 1.363 . S
C2293 C2288 1.379 1_455 S
C2293 N2291 1.356 . S
N2294 C2286 1.356 . S
N2294 H2300 0.984 . S
N2294 H2301 0.984 . S
N2295 C2288 1.356 . S
N2295 H2298 0.984 . S
N2295 H2299 0.985 . S
H2296 N2291 0.984 . S
H2297 N2291 0.985 . S
H2298 N2295 0.984 . S
H2299 N2295 0.985 . S
H2300 N2294 0.984 . S
H2301 N2294 0.984 . S
H2302 N2290 0.984 . S
H2303 N2290 0.985 . S
C2304 C2305 1.363 . S
C2304 C2310 1.379 1_556 S
C2304 N2312 1.356 . S
C2305 C2304 1.363 . S
C2305 C2311 1.363 . S
C2306 C2307 1.363 . S
C2306 C2311 1.379 1_554 S
C2306 N2313 1.356 . S
C2307 C2306 1.363 . S
C2307 C2310 1.363 . S
N2308 C2310 1.356 . S
N2308 H2320 0.984 . S
N2308 H2321 0.985 . S
N2309 C2311 1.356 . S
N2309 H2314 0.984 . S
N2309 H2315 0.985 . S
C2310 C2304 1.379 1_554 S
C2310 C2307 1.363 . S
C2310 N2308 1.356 . S
C2311 C2305 1.363 . S
C2311 C2306 1.379 1_556 S
C2311 N2309 1.356 . S
N2312 C2304 1.356 . S
N2312 H2318 0.984 . S
N2312 H2319 0.984 . S
N2313 C2306 1.356 . S
N2313 H2316 0.984 . S
N2313 H2317 0.985 . S
H2314 N2309 0.984 . S
H2315 N2309 0.985 . S
H2316 N2313 0.984 . S
H2317 N2313 0.985 . S
H2318 N2312 0.984 . S
H2319 N2312 0.984 . S
H2320 N2308 0.984 . S
H2321 N2308 0.985 . S
C2322 C2323 1.363 . S
C2322 C2328 1.379 1_556 S
C2322 N2330 1.356 . S
C2323 C2322 1.363 . S
C2323 C2329 1.363 . S
C2324 C2325 1.363 . S
C2324 C2329 1.379 1_554 S
C2324 N2331 1.356 . S
C2325 C2324 1.363 . S
C2325 C2328 1.363 . S
N2326 C2328 1.356 . S
N2326 H2338 0.984 . S
N2326 H2339 0.985 . S
N2327 C2329 1.356 . S
N2327 H2332 0.984 . S
N2327 H2333 0.985 . S
C2328 C2322 1.379 1_554 S
C2328 C2325 1.363 . S
C2328 N2326 1.356 . S
C2329 C2323 1.363 . S
C2329 C2324 1.379 1_556 S
C2329 N2327 1.356 . S
N2330 C2322 1.356 . S
N2330 H2336 0.984 . S
N2330 H2337 0.984 . S
N2331 C2324 1.356 . S
N2331 H2334 0.984 . S
N2331 H2335 0.985 . S
H2332 N2327 0.984 . S
H2333 N2327 0.985 . S
H2334 N2331 0.984 . S
H2335 N2331 0.985 . S
H2336 N2330 0.984 . S
H2337 N2330 0.984 . S
H2338 N2326 0.984 . S
H2339 N2326 0.985 . S
C2340 C2341 1.363 . S
C2340 C2346 1.379 1_554 S
C2340 N2348 1.356 . S
C2341 C2340 1.363 . S
C2341 C2347 1.363 . S
C2342 C2343 1.363 . S
C2342 C2347 1.379 1_556 S
C2342 N2349 1.356 . S
C2343 C2342 1.363 . S
C2343 C2346 1.363 . S
N2344 C2346 1.356 . S
N2344 H2356 0.984 . S
N2344 H2357 0.985 . S
N2345 C2347 1.356 . S
N2345 H2350 0.984 . S
N2345 H2351 0.985 . S
C2346 C2340 1.379 1_556 S
C2346 C2343 1.363 . S
C2346 N2344 1.356 . S
C2347 C2341 1.363 . S
C2347 C2342 1.379 1_554 S
C2347 N2345 1.356 . S
N2348 C2340 1.356 . S
N2348 H2354 0.984 . S
N2348 H2355 0.984 . S
N2349 C2342 1.356 . S
N2349 H2352 0.984 . S
N2349 H2353 0.985 . S
H2350 N2345 0.984 . S
H2351 N2345 0.985 . S
H2352 N2349 0.984 . S
H2353 N2349 0.985 . S
H2354 N2348 0.984 . S
H2355 N2348 0.984 . S
H2356 N2344 0.984 . S
H2357 N2344 0.985 . S
C2358 C2359 1.363 . S
C2358 C2364 1.379 1_554 S
C2358 N2366 1.356 . S
C2359 C2358 1.363 . S
C2359 C2365 1.363 . S
C2360 C2361 1.363 . S
C2360 C2365 1.379 1_556 S
C2360 N2367 1.356 . S
C2361 C2360 1.363 . S
C2361 C2364 1.363 . S
N2362 C2364 1.356 . S
N2362 H2374 0.984 . S
N2362 H2375 0.985 . S
N2363 C2365 1.356 . S
N2363 H2368 0.984 . S
N2363 H2369 0.985 . S
C2364 C2358 1.379 1_556 S
C2364 C2361 1.363 . S
C2364 N2362 1.356 . S
C2365 C2359 1.363 . S
C2365 C2360 1.379 1_554 S
C2365 N2363 1.356 . S
N2366 C2358 1.356 . S
N2366 H2372 0.984 . S
N2366 H2373 0.984 . S
N2367 C2360 1.356 . S
N2367 H2370 0.984 . S
N2367 H2371 0.985 . S
H2368 N2363 0.984 . S
H2369 N2363 0.985 . S
H2370 N2367 0.984 . S
H2371 N2367 0.985 . S
H2372 N2366 0.984 . S
H2373 N2366 0.984 . S
H2374 N2362 0.984 . S
H2375 N2362 0.985 . S
C2376 C2377 1.363 . S
C2376 C2382 1.379 1_655 S
C2376 N2384 1.356 . S
C2377 C2376 1.363 . S
C2377 C2383 1.363 . S
C2378 C2379 1.363 . S
C2378 C2383 1.379 1_455 S
C2378 N2385 1.356 . S
C2379 C2378 1.363 . S
C2379 C2382 1.363 . S
N2380 C2382 1.356 . S
N2380 H2392 0.984 . S
N2380 H2393 0.985 . S
N2381 C2383 1.356 . S
N2381 H2386 0.984 . S
N2381 H2387 0.985 . S
C2382 C2376 1.379 1_455 S
C2382 C2379 1.363 . S
C2382 N2380 1.356 . S
C2383 C2377 1.363 . S
C2383 C2378 1.379 1_655 S
C2383 N2381 1.356 . S
N2384 C2376 1.356 . S
N2384 H2390 0.984 . S
N2384 H2391 0.984 . S
N2385 C2378 1.356 . S
N2385 H2388 0.984 . S
N2385 H2389 0.985 . S
H2386 N2381 0.984 . S
H2387 N2381 0.985 . S
H2388 N2385 0.984 . S
H2389 N2385 0.985 . S
H2390 N2384 0.984 . S
H2391 N2384 0.984 . S
H2392 N2380 0.984 . S
H2393 N2380 0.985 . S
C2394 C2395 1.363 . S
C2394 C2400 1.379 1_455 S
C2394 N2402 1.356 . S
C2395 C2394 1.363 . S
C2395 C2401 1.363 . S
C2396 C2397 1.363 . S
C2396 C2401 1.379 1_655 S
C2396 N2403 1.356 . S
C2397 C2396 1.363 . S
C2397 C2400 1.363 . S
N2398 C2400 1.356 . S
N2398 H2410 0.984 . S
N2398 H2411 0.985 . S
N2399 C2401 1.356 . S
N2399 H2404 0.984 . S
N2399 H2405 0.985 . S
C2400 C2394 1.379 1_655 S
C2400 C2397 1.363 . S
C2400 N2398 1.356 . S
C2401 C2395 1.363 . S
C2401 C2396 1.379 1_455 S
C2401 N2399 1.356 . S
N2402 C2394 1.356 . S
N2402 H2408 0.984 . S
N2402 H2409 0.984 . S
N2403 C2396 1.356 . S
N2403 H2406 0.984 . S
N2403 H2407 0.985 . S
H2404 N2399 0.984 . S
H2405 N2399 0.985 . S
H2406 N2403 0.984 . S
H2407 N2403 0.985 . S
H2408 N2402 0.984 . S
H2409 N2402 0.984 . S
H2410 N2398 0.984 . S
H2411 N2398 0.985 . S
C2412 C2413 1.363 . S
C2412 C2418 1.379 1_545 S
C2412 N2420 1.356 . S
C2413 C2412 1.363 . S
C2413 C2419 1.363 . S
C2414 C2415 1.363 . S
C2414 C2419 1.379 1_565 S
C2414 N2421 1.356 . S
C2415 C2414 1.363 . S
C2415 C2418 1.363 . S
N2416 C2418 1.356 . S
N2416 H2428 0.984 . S
N2416 H2429 0.985 . S
N2417 C2419 1.356 . S
N2417 H2422 0.984 . S
N2417 H2423 0.985 . S
C2418 C2412 1.379 1_565 S
C2418 C2415 1.363 . S
C2418 N2416 1.356 . S
C2419 C2413 1.363 . S
C2419 C2414 1.379 1_545 S
C2419 N2417 1.356 . S
N2420 C2412 1.356 . S
N2420 H2426 0.984 . S
N2420 H2427 0.984 . S
N2421 C2414 1.356 . S
N2421 H2424 0.984 . S
N2421 H2425 0.985 . S
H2422 N2417 0.984 . S
H2423 N2417 0.985 . S
H2424 N2421 0.984 . S
H2425 N2421 0.985 . S
H2426 N2420 0.984 . S
H2427 N2420 0.984 . S
H2428 N2416 0.984 . S
H2429 N2416 0.985 . S
C2430 C2431 1.363 . S
C2430 C2436 1.379 1_565 S
C2430 N2438 1.356 . S
C2431 C2430 1.363 . S
C2431 C2437 1.363 . S
C2432 C2433 1.363 . S
C2432 C2437 1.379 1_545 S
C2432 N2439 1.356 . S
C2433 C2432 1.363 . S
C2433 C2436 1.363 . S
N2434 C2436 1.356 . S
N2434 H2446 0.984 . S
N2434 H2447 0.985 . S
N2435 C2437 1.356 . S
N2435 H2440 0.984 . S
N2435 H2441 0.985 . S
C2436 C2430 1.379 1_545 S
C2436 C2433 1.363 . S
C2436 N2434 1.356 . S
C2437 C2431 1.363 . S
C2437 C2432 1.379 1_565 S
C2437 N2435 1.356 . S
N2438 C2430 1.356 . S
N2438 H2444 0.984 . S
N2438 H2445 0.984 . S
N2439 C2432 1.356 . S
N2439 H2442 0.984 . S
N2439 H2443 0.985 . S
H2440 N2435 0.984 . S
H2441 N2435 0.985 . S
H2442 N2439 0.984 . S
H2443 N2439 0.985 . S
H2444 N2438 0.984 . S
H2445 N2438 0.984 . S
H2446 N2434 0.984 . S
H2447 N2434 0.985 . S
C2448 C2449 1.363 . S
C2448 C2454 1.379 . S
C2448 N2456 1.356 . S
C2449 C2448 1.363 . S
C2449 C2455 1.363 . S
C2450 C2451 1.363 . S
C2450 C2455 1.379 . S
C2450 N2457 1.356 . S
C2451 C2450 1.363 . S
C2451 C2454 1.363 . S
N2452 C2454 1.356 . S
N2452 H2464 0.984 . S
N2452 H2465 0.985 . S
N2453 C2455 1.356 . S
N2453 H2458 0.984 . S
N2453 H2459 0.985 . S
C2454 C2448 1.379 . S
C2454 C2451 1.363 . S
C2454 N2452 1.356 . S
C2455 C2449 1.363 . S
C2455 C2450 1.379 . S
C2455 N2453 1.356 . S
N2456 C2448 1.356 . S
N2456 H2462 0.984 . S
N2456 H2463 0.984 . S
N2457 C2450 1.356 . S
N2457 H2460 0.984 . S
N2457 H2461 0.985 . S
H2458 N2453 0.984 . S
H2459 N2453 0.985 . S
H2460 N2457 0.984 . S
H2461 N2457 0.985 . S
H2462 N2456 0.984 . S
H2463 N2456 0.984 . S
H2464 N2452 0.984 . S
H2465 N2452 0.985 . S
C2466 C2467 1.363 . S
C2466 C2472 1.379 . S
C2466 N2474 1.356 . S
C2467 C2466 1.363 . S
C2467 C2473 1.363 . S
C2468 C2469 1.363 . S
C2468 C2473 1.379 . S
C2468 N2475 1.356 . S
C2469 C2468 1.363 . S
C2469 C2472 1.363 . S
N2470 C2472 1.356 . S
N2470 H2482 0.984 . S
N2470 H2483 0.985 . S
N2471 C2473 1.356 . S
N2471 H2476 0.984 . S
N2471 H2477 0.985 . S
C2472 C2466 1.379 . S
C2472 C2469 1.363 . S
C2472 N2470 1.356 . S
C2473 C2467 1.363 . S
C2473 C2468 1.379 . S
C2473 N2471 1.356 . S
N2474 C2466 1.356 . S
N2474 H2480 0.984 . S
N2474 H2481 0.984 . S
N2475 C2468 1.356 . S
N2475 H2478 0.984 . S
N2475 H2479 0.985 . S
H2476 N2471 0.984 . S
H2477 N2471 0.985 . S
H2478 N2475 0.984 . S
H2479 N2475 0.985 . S
H2480 N2474 0.984 . S
H2481 N2474 0.984 . S
H2482 N2470 0.984 . S
H2483 N2470 0.985 . S
C2484 C2485 1.363 . S
C2484 C2490 1.379 . S
C2484 N2492 1.356 . S
C2485 C2484 1.363 . S
C2485 C2491 1.363 . S
C2486 C2487 1.363 . S
C2486 C2491 1.379 . S
C2486 N2493 1.356 . S
C2487 C2486 1.363 . S
C2487 C2490 1.363 . S
N2488 C2490 1.356 . S
N2488 H2500 0.984 . S
N2488 H2501 0.985 . S
N2489 C2491 1.356 . S
N2489 H2494 0.984 . S
N2489 H2495 0.985 . S
C2490 C2484 1.379 . S
C2490 C2487 1.363 . S
C2490 N2488 1.356 . S
C2491 C2485 1.363 . S
C2491 C2486 1.379 . S
C2491 N2489 1.356 . S
N2492 C2484 1.356 . S
N2492 H2498 0.984 . S
N2492 H2499 0.984 . S
N2493 C2486 1.356 . S
N2493 H2496 0.984 . S
N2493 H2497 0.985 . S
H2494 N2489 0.984 . S
H2495 N2489 0.985 . S
H2496 N2493 0.984 . S
H2497 N2493 0.985 . S
H2498 N2492 0.984 . S
H2499 N2492 0.984 . S
H2500 N2488 0.984 . S
H2501 N2488 0.985 . S
C2502 C2503 1.363 . S
C2502 C2508 1.379 . S
C2502 N2510 1.356 . S
C2503 C2502 1.363 . S
C2503 C2509 1.363 . S
C2504 C2505 1.363 . S
C2504 C2509 1.379 . S
C2504 N2511 1.356 . S
C2505 C2504 1.363 . S
C2505 C2508 1.363 . S
N2506 C2508 1.356 . S
N2506 H2518 0.984 . S
N2506 H2519 0.985 . S
N2507 C2509 1.356 . S
N2507 H2512 0.984 . S
N2507 H2513 0.985 . S
C2508 C2502 1.379 . S
C2508 C2505 1.363 . S
C2508 N2506 1.356 . S
C2509 C2503 1.363 . S
C2509 C2504 1.379 . S
C2509 N2507 1.356 . S
N2510 C2502 1.356 . S
N2510 H2516 0.984 . S
N2510 H2517 0.984 . S
N2511 C2504 1.356 . S
N2511 H2514 0.984 . S
N2511 H2515 0.985 . S
H2512 N2507 0.984 . S
H2513 N2507 0.985 . S
H2514 N2511 0.984 . S
H2515 N2511 0.985 . S
H2516 N2510 0.984 . S
H2517 N2510 0.984 . S
H2518 N2506 0.984 . S
H2519 N2506 0.985 . S
C2520 C2521 1.363 . S
C2520 C2526 1.379 . S
C2520 N2528 1.356 . S
C2521 C2520 1.363 . S
C2521 C2527 1.363 . S
C2522 C2523 1.363 . S
C2522 C2527 1.379 . S
C2522 N2529 1.356 . S
C2523 C2522 1.363 . S
C2523 C2526 1.363 . S
N2524 C2526 1.356 . S
N2524 H2536 0.984 . S
N2524 H2537 0.985 . S
N2525 C2527 1.356 . S
N2525 H2530 0.984 . S
N2525 H2531 0.985 . S
C2526 C2520 1.379 . S
C2526 C2523 1.363 . S
C2526 N2524 1.356 . S
C2527 C2521 1.363 . S
C2527 C2522 1.379 . S
C2527 N2525 1.356 . S
N2528 C2520 1.356 . S
N2528 H2534 0.984 . S
N2528 H2535 0.984 . S
N2529 C2522 1.356 . S
N2529 H2532 0.984 . S
N2529 H2533 0.985 . S
H2530 N2525 0.984 . S
H2531 N2525 0.985 . S
H2532 N2529 0.984 . S
H2533 N2529 0.985 . S
H2534 N2528 0.984 . S
H2535 N2528 0.984 . S
H2536 N2524 0.984 . S
H2537 N2524 0.985 . S
C2538 C2539 1.363 . S
C2538 C2544 1.379 . S
C2538 N2546 1.356 . S
C2539 C2538 1.363 . S
C2539 C2545 1.363 . S
C2540 C2541 1.363 . S
C2540 C2545 1.379 . S
C2540 N2547 1.356 . S
C2541 C2540 1.363 . S
C2541 C2544 1.363 . S
N2542 C2544 1.356 . S
N2542 H2554 0.984 . S
N2542 H2555 0.985 . S
N2543 C2545 1.356 . S
N2543 H2548 0.984 . S
N2543 H2549 0.985 . S
C2544 C2538 1.379 . S
C2544 C2541 1.363 . S
C2544 N2542 1.356 . S
C2545 C2539 1.363 . S
C2545 C2540 1.379 . S
C2545 N2543 1.356 . S
N2546 C2538 1.356 . S
N2546 H2552 0.984 . S
N2546 H2553 0.984 . S
N2547 C2540 1.356 . S
N2547 H2550 0.984 . S
N2547 H2551 0.985 . S
H2548 N2543 0.984 . S
H2549 N2543 0.985 . S
H2550 N2547 0.984 . S
H2551 N2547 0.985 . S
H2552 N2546 0.984 . S
H2553 N2546 0.984 . S
H2554 N2542 0.984 . S
H2555 N2542 0.985 . S
C2556 C2557 1.363 . S
C2556 C2562 1.379 . S
C2556 N2564 1.356 . S
C2557 C2556 1.363 . S
C2557 C2563 1.363 . S
C2558 C2559 1.363 . S
C2558 C2563 1.379 . S
C2558 N2565 1.356 . S
C2559 C2558 1.363 . S
C2559 C2562 1.363 . S
N2560 C2562 1.356 . S
N2560 H2572 0.984 . S
N2560 H2573 0.985 . S
N2561 C2563 1.356 . S
N2561 H2566 0.984 . S
N2561 H2567 0.985 . S
C2562 C2556 1.379 . S
C2562 C2559 1.363 . S
C2562 N2560 1.356 . S
C2563 C2557 1.363 . S
C2563 C2558 1.379 . S
C2563 N2561 1.356 . S
N2564 C2556 1.356 . S
N2564 H2570 0.984 . S
N2564 H2571 0.984 . S
N2565 C2558 1.356 . S
N2565 H2568 0.984 . S
N2565 H2569 0.985 . S
H2566 N2561 0.984 . S
H2567 N2561 0.985 . S
H2568 N2565 0.984 . S
H2569 N2565 0.985 . S
H2570 N2564 0.984 . S
H2571 N2564 0.984 . S
H2572 N2560 0.984 . S
H2573 N2560 0.985 . S
C2574 C2575 1.363 . S
C2574 C2580 1.379 . S
C2574 N2582 1.356 . S
C2575 C2574 1.363 . S
C2575 C2581 1.363 . S
C2576 C2577 1.363 . S
C2576 C2581 1.379 . S
C2576 N2583 1.356 . S
C2577 C2576 1.363 . S
C2577 C2580 1.363 . S
N2578 C2580 1.356 . S
N2578 H2590 0.984 . S
N2578 H2591 0.985 . S
N2579 C2581 1.356 . S
N2579 H2584 0.984 . S
N2579 H2585 0.985 . S
C2580 C2574 1.379 . S
C2580 C2577 1.363 . S
C2580 N2578 1.356 . S
C2581 C2575 1.363 . S
C2581 C2576 1.379 . S
C2581 N2579 1.356 . S
N2582 C2574 1.356 . S
N2582 H2588 0.984 . S
N2582 H2589 0.984 . S
N2583 C2576 1.356 . S
N2583 H2586 0.984 . S
N2583 H2587 0.985 . S
H2584 N2579 0.984 . S
H2585 N2579 0.985 . S
H2586 N2583 0.984 . S
H2587 N2583 0.985 . S
H2588 N2582 0.984 . S
H2589 N2582 0.984 . S
H2590 N2578 0.984 . S
H2591 N2578 0.985 . S
C2592 C2593 1.363 . S
C2592 C2598 1.379 . S
C2592 N2600 1.356 . S
C2593 C2592 1.363 . S
C2593 C2599 1.363 . S
C2594 C2595 1.363 . S
C2594 C2599 1.379 . S
C2594 N2601 1.356 . S
C2595 C2594 1.363 . S
C2595 C2598 1.363 . S
N2596 C2598 1.356 . S
N2596 H2608 0.984 . S
N2596 H2609 0.985 . S
N2597 C2599 1.356 . S
N2597 H2602 0.984 . S
N2597 H2603 0.985 . S
C2598 C2592 1.379 . S
C2598 C2595 1.363 . S
C2598 N2596 1.356 . S
C2599 C2593 1.363 . S
C2599 C2594 1.379 . S
C2599 N2597 1.356 . S
N2600 C2592 1.356 . S
N2600 H2606 0.984 . S
N2600 H2607 0.984 . S
N2601 C2594 1.356 . S
N2601 H2604 0.984 . S
N2601 H2605 0.985 . S
H2602 N2597 0.984 . S
H2603 N2597 0.985 . S
H2604 N2601 0.984 . S
H2605 N2601 0.985 . S
H2606 N2600 0.984 . S
H2607 N2600 0.984 . S
H2608 N2596 0.984 . S
H2609 N2596 0.985 . S
C2610 C2611 1.363 . S
C2610 C2616 1.379 . S
C2610 N2618 1.356 . S
C2611 C2610 1.363 . S
C2611 C2617 1.363 . S
C2612 C2613 1.363 . S
C2612 C2617 1.379 . S
C2612 N2619 1.356 . S
C2613 C2612 1.363 . S
C2613 C2616 1.363 . S
N2614 C2616 1.356 . S
N2614 H2626 0.984 . S
N2614 H2627 0.985 . S
N2615 C2617 1.356 . S
N2615 H2620 0.984 . S
N2615 H2621 0.985 . S
C2616 C2610 1.379 . S
C2616 C2613 1.363 . S
C2616 N2614 1.356 . S
C2617 C2611 1.363 . S
C2617 C2612 1.379 . S
C2617 N2615 1.356 . S
N2618 C2610 1.356 . S
N2618 H2624 0.984 . S
N2618 H2625 0.984 . S
N2619 C2612 1.356 . S
N2619 H2622 0.984 . S
N2619 H2623 0.985 . S
H2620 N2615 0.984 . S
H2621 N2615 0.985 . S
H2622 N2619 0.984 . S
H2623 N2619 0.985 . S
H2624 N2618 0.984 . S
H2625 N2618 0.984 . S
H2626 N2614 0.984 . S
H2627 N2614 0.985 . S
C2628 C2629 1.363 . S
C2628 C2634 1.379 . S
C2628 N2636 1.356 . S
C2629 C2628 1.363 . S
C2629 C2635 1.363 . S
C2630 C2631 1.363 . S
C2630 C2635 1.379 . S
C2630 N2637 1.356 . S
C2631 C2630 1.363 . S
C2631 C2634 1.363 . S
N2632 C2634 1.356 . S
N2632 H2644 0.984 . S
N2632 H2645 0.985 . S
N2633 C2635 1.356 . S
N2633 H2638 0.984 . S
N2633 H2639 0.985 . S
C2634 C2628 1.379 . S
C2634 C2631 1.363 . S
C2634 N2632 1.356 . S
C2635 C2629 1.363 . S
C2635 C2630 1.379 . S
C2635 N2633 1.356 . S
N2636 C2628 1.356 . S
N2636 H2642 0.984 . S
N2636 H2643 0.984 . S
N2637 C2630 1.356 . S
N2637 H2640 0.984 . S
N2637 H2641 0.985 . S
H2638 N2633 0.984 . S
H2639 N2633 0.985 . S
H2640 N2637 0.984 . S
H2641 N2637 0.985 . S
H2642 N2636 0.984 . S
H2643 N2636 0.984 . S
H2644 N2632 0.984 . S
H2645 N2632 0.985 . S
C2646 C2647 1.363 . S
C2646 C2652 1.379 . S
C2646 N2654 1.356 . S
C2647 C2646 1.363 . S
C2647 C2653 1.363 . S
C2648 C2649 1.363 . S
C2648 C2653 1.379 . S
C2648 N2655 1.356 . S
C2649 C2648 1.363 . S
C2649 C2652 1.363 . S
N2650 C2652 1.356 . S
N2650 H2662 0.984 . S
N2650 H2663 0.985 . S
N2651 C2653 1.356 . S
N2651 H2656 0.984 . S
N2651 H2657 0.985 . S
C2652 C2646 1.379 . S
C2652 C2649 1.363 . S
C2652 N2650 1.356 . S
C2653 C2647 1.363 . S
C2653 C2648 1.379 . S
C2653 N2651 1.356 . S
N2654 C2646 1.356 . S
N2654 H2660 0.984 . S
N2654 H2661 0.984 . S
N2655 C2648 1.356 . S
N2655 H2658 0.984 . S
N2655 H2659 0.985 . S
H2656 N2651 0.984 . S
H2657 N2651 0.985 . S
H2658 N2655 0.984 . S
H2659 N2655 0.985 . S
H2660 N2654 0.984 . S
H2661 N2654 0.984 . S
H2662 N2650 0.984 . S
H2663 N2650 0.985 . S
C2664 C2665 1.363 . S
C2664 C2670 1.379 1_565 S
C2664 N2672 1.356 . S
C2665 C2664 1.363 . S
C2665 C2671 1.363 . S
C2666 C2667 1.363 . S
C2666 C2671 1.379 1_545 S
C2666 N2673 1.356 . S
C2667 C2666 1.363 . S
C2667 C2670 1.363 . S
N2668 C2670 1.356 . S
N2668 H2680 0.984 . S
N2668 H2681 0.985 . S
N2669 C2671 1.356 . S
N2669 H2674 0.984 . S
N2669 H2675 0.985 . S
C2670 C2664 1.379 1_545 S
C2670 C2667 1.363 . S
C2670 N2668 1.356 . S
C2671 C2665 1.363 . S
C2671 C2666 1.379 1_565 S
C2671 N2669 1.356 . S
N2672 C2664 1.356 . S
N2672 H2678 0.984 . S
N2672 H2679 0.984 . S
N2673 C2666 1.356 . S
N2673 H2676 0.984 . S
N2673 H2677 0.985 . S
H2674 N2669 0.984 . S
H2675 N2669 0.985 . S
H2676 N2673 0.984 . S
H2677 N2673 0.985 . S
H2678 N2672 0.984 . S
H2679 N2672 0.984 . S
H2680 N2668 0.984 . S
H2681 N2668 0.985 . S
C2682 C2683 1.363 . S
C2682 C2688 1.379 1_655 S
C2682 N2690 1.356 . S
C2683 C2682 1.363 . S
C2683 C2689 1.363 . S
C2684 C2685 1.363 . S
C2684 C2689 1.379 1_455 S
C2684 N2691 1.356 . S
C2685 C2684 1.363 . S
C2685 C2688 1.363 . S
N2686 C2688 1.356 . S
N2686 H2698 0.984 . S
N2686 H2699 0.985 . S
N2687 C2689 1.356 . S
N2687 H2692 0.984 . S
N2687 H2693 0.985 . S
C2688 C2682 1.379 1_455 S
C2688 C2685 1.363 . S
C2688 N2686 1.356 . S
C2689 C2683 1.363 . S
C2689 C2684 1.379 1_655 S
C2689 N2687 1.356 . S
N2690 C2682 1.356 . S
N2690 H2696 0.984 . S
N2690 H2697 0.984 . S
N2691 C2684 1.356 . S
N2691 H2694 0.984 . S
N2691 H2695 0.985 . S
H2692 N2687 0.984 . S
H2693 N2687 0.985 . S
H2694 N2691 0.984 . S
H2695 N2691 0.985 . S
H2696 N2690 0.984 . S
H2697 N2690 0.984 . S
H2698 N2686 0.984 . S
H2699 N2686 0.985 . S
C2700 C2701 1.363 . S
C2700 C2706 1.379 1_565 S
C2700 N2708 1.356 . S
C2701 C2700 1.363 . S
C2701 C2707 1.363 . S
C2702 C2703 1.363 . S
C2702 C2707 1.379 1_545 S
C2702 N2709 1.356 . S
C2703 C2702 1.363 . S
C2703 C2706 1.363 . S
N2704 C2706 1.356 . S
N2704 H2716 0.984 . S
N2704 H2717 0.985 . S
N2705 C2707 1.356 . S
N2705 H2710 0.984 . S
N2705 H2711 0.985 . S
C2706 C2700 1.379 1_545 S
C2706 C2703 1.363 . S
C2706 N2704 1.356 . S
C2707 C2701 1.363 . S
C2707 C2702 1.379 1_565 S
C2707 N2705 1.356 . S
N2708 C2700 1.356 . S
N2708 H2714 0.984 . S
N2708 H2715 0.984 . S
N2709 C2702 1.356 . S
N2709 H2712 0.984 . S
N2709 H2713 0.985 . S
H2710 N2705 0.984 . S
H2711 N2705 0.985 . S
H2712 N2709 0.984 . S
H2713 N2709 0.985 . S
H2714 N2708 0.984 . S
H2715 N2708 0.984 . S
H2716 N2704 0.984 . S
H2717 N2704 0.985 . S
C2718 C2719 1.363 . S
C2718 C2724 1.379 1_655 S
C2718 N2726 1.356 . S
C2719 C2718 1.363 . S
C2719 C2725 1.363 . S
C2720 C2721 1.363 . S
C2720 C2725 1.379 1_455 S
C2720 N2727 1.356 . S
C2721 C2720 1.363 . S
C2721 C2724 1.363 . S
N2722 C2724 1.356 . S
N2722 H2734 0.984 . S
N2722 H2735 0.985 . S
N2723 C2725 1.356 . S
N2723 H2728 0.984 . S
N2723 H2729 0.985 . S
C2724 C2718 1.379 1_455 S
C2724 C2721 1.363 . S
C2724 N2722 1.356 . S
C2725 C2719 1.363 . S
C2725 C2720 1.379 1_655 S
C2725 N2723 1.356 . S
N2726 C2718 1.356 . S
N2726 H2732 0.984 . S
N2726 H2733 0.984 . S
N2727 C2720 1.356 . S
N2727 H2730 0.984 . S
N2727 H2731 0.985 . S
H2728 N2723 0.984 . S
H2729 N2723 0.985 . S
H2730 N2727 0.984 . S
H2731 N2727 0.985 . S
H2732 N2726 0.984 . S
H2733 N2726 0.984 . S
H2734 N2722 0.984 . S
H2735 N2722 0.985 . S
C2736 C2737 1.363 . S
C2736 C2742 1.379 1_565 S
C2736 N2744 1.356 . S
C2737 C2736 1.363 . S
C2737 C2743 1.363 . S
C2738 C2739 1.363 . S
C2738 C2743 1.379 1_545 S
C2738 N2745 1.356 . S
C2739 C2738 1.363 . S
C2739 C2742 1.363 . S
N2740 C2742 1.356 . S
N2740 H2752 0.984 . S
N2740 H2753 0.985 . S
N2741 C2743 1.356 . S
N2741 H2746 0.984 . S
N2741 H2747 0.985 . S
C2742 C2736 1.379 1_545 S
C2742 C2739 1.363 . S
C2742 N2740 1.356 . S
C2743 C2737 1.363 . S
C2743 C2738 1.379 1_565 S
C2743 N2741 1.356 . S
N2744 C2736 1.356 . S
N2744 H2750 0.984 . S
N2744 H2751 0.984 . S
N2745 C2738 1.356 . S
N2745 H2748 0.984 . S
N2745 H2749 0.985 . S
H2746 N2741 0.984 . S
H2747 N2741 0.985 . S
H2748 N2745 0.984 . S
H2749 N2745 0.985 . S
H2750 N2744 0.984 . S
H2751 N2744 0.984 . S
H2752 N2740 0.984 . S
H2753 N2740 0.985 . S
C2754 C2755 1.363 . S
C2754 C2760 1.379 1_455 S
C2754 N2762 1.356 . S
C2755 C2754 1.363 . S
C2755 C2761 1.363 . S
C2756 C2757 1.363 . S
C2756 C2761 1.379 1_655 S
C2756 N2763 1.356 . S
C2757 C2756 1.363 . S
C2757 C2760 1.363 . S
N2758 C2760 1.356 . S
N2758 H2770 0.984 . S
N2758 H2771 0.985 . S
N2759 C2761 1.356 . S
N2759 H2764 0.984 . S
N2759 H2765 0.985 . S
C2760 C2754 1.379 1_655 S
C2760 C2757 1.363 . S
C2760 N2758 1.356 . S
C2761 C2755 1.363 . S
C2761 C2756 1.379 1_455 S
C2761 N2759 1.356 . S
N2762 C2754 1.356 . S
N2762 H2768 0.984 . S
N2762 H2769 0.984 . S
N2763 C2756 1.356 . S
N2763 H2766 0.984 . S
N2763 H2767 0.985 . S
H2764 N2759 0.984 . S
H2765 N2759 0.985 . S
H2766 N2763 0.984 . S
H2767 N2763 0.985 . S
H2768 N2762 0.984 . S
H2769 N2762 0.984 . S
H2770 N2758 0.984 . S
H2771 N2758 0.985 . S
C2772 C2773 1.363 . S
C2772 C2778 1.379 1_545 S
C2772 N2780 1.356 . S
C2773 C2772 1.363 . S
C2773 C2779 1.363 . S
C2774 C2775 1.363 . S
C2774 C2779 1.379 1_565 S
C2774 N2781 1.356 . S
C2775 C2774 1.363 . S
C2775 C2778 1.363 . S
N2776 C2778 1.356 . S
N2776 H2788 0.984 . S
N2776 H2789 0.985 . S
N2777 C2779 1.356 . S
N2777 H2782 0.984 . S
N2777 H2783 0.985 . S
C2778 C2772 1.379 1_565 S
C2778 C2775 1.363 . S
C2778 N2776 1.356 . S
C2779 C2773 1.363 . S
C2779 C2774 1.379 1_545 S
C2779 N2777 1.356 . S
N2780 C2772 1.356 . S
N2780 H2786 0.984 . S
N2780 H2787 0.984 . S
N2781 C2774 1.356 . S
N2781 H2784 0.984 . S
N2781 H2785 0.985 . S
H2782 N2777 0.984 . S
H2783 N2777 0.985 . S
H2784 N2781 0.984 . S
H2785 N2781 0.985 . S
H2786 N2780 0.984 . S
H2787 N2780 0.984 . S
H2788 N2776 0.984 . S
H2789 N2776 0.985 . S
C2790 C2791 1.363 . S
C2790 C2796 1.379 1_455 S
C2790 N2798 1.356 . S
C2791 C2790 1.363 . S
C2791 C2797 1.363 . S
C2792 C2793 1.363 . S
C2792 C2797 1.379 1_655 S
C2792 N2799 1.356 . S
C2793 C2792 1.363 . S
C2793 C2796 1.363 . S
N2794 C2796 1.356 . S
N2794 H2806 0.984 . S
N2794 H2807 0.985 . S
N2795 C2797 1.356 . S
N2795 H2800 0.984 . S
N2795 H2801 0.985 . S
C2796 C2790 1.379 1_655 S
C2796 C2793 1.363 . S
C2796 N2794 1.356 . S
C2797 C2791 1.363 . S
C2797 C2792 1.379 1_455 S
C2797 N2795 1.356 . S
N2798 C2790 1.356 . S
N2798 H2804 0.984 . S
N2798 H2805 0.984 . S
N2799 C2792 1.356 . S
N2799 H2802 0.984 . S
N2799 H2803 0.985 . S
H2800 N2795 0.984 . S
H2801 N2795 0.985 . S
H2802 N2799 0.984 . S
H2803 N2799 0.985 . S
H2804 N2798 0.984 . S
H2805 N2798 0.984 . S
H2806 N2794 0.984 . S
H2807 N2794 0.985 . S
C2808 C2809 1.363 . S
C2808 C2814 1.379 1_556 S
C2808 N2816 1.356 . S
C2809 C2808 1.363 . S
C2809 C2815 1.363 . S
C2810 C2811 1.363 . S
C2810 C2815 1.379 1_554 S
C2810 N2817 1.356 . S
C2811 C2810 1.363 . S
C2811 C2814 1.363 . S
N2812 C2814 1.356 . S
N2812 H2824 0.984 . S
N2812 H2825 0.985 . S
N2813 C2815 1.356 . S
N2813 H2818 0.984 . S
N2813 H2819 0.985 . S
C2814 C2808 1.379 1_554 S
C2814 C2811 1.363 . S
C2814 N2812 1.356 . S
C2815 C2809 1.363 . S
C2815 C2810 1.379 1_556 S
C2815 N2813 1.356 . S
N2816 C2808 1.356 . S
N2816 H2822 0.984 . S
N2816 H2823 0.984 . S
N2817 C2810 1.356 . S
N2817 H2820 0.984 . S
N2817 H2821 0.985 . S
H2818 N2813 0.984 . S
H2819 N2813 0.985 . S
H2820 N2817 0.984 . S
H2821 N2817 0.985 . S
H2822 N2816 0.984 . S
H2823 N2816 0.984 . S
H2824 N2812 0.984 . S
H2825 N2812 0.985 . S
C2826 C2827 1.363 . S
C2826 C2832 1.379 1_556 S
C2826 N2834 1.356 . S
C2827 C2826 1.363 . S
C2827 C2833 1.363 . S
C2828 C2829 1.363 . S
C2828 C2833 1.379 1_554 S
C2828 N2835 1.356 . S
C2829 C2828 1.363 . S
C2829 C2832 1.363 . S
N2830 C2832 1.356 . S
N2830 H2842 0.984 . S
N2830 H2843 0.985 . S
N2831 C2833 1.356 . S
N2831 H2836 0.984 . S
N2831 H2837 0.985 . S
C2832 C2826 1.379 1_554 S
C2832 C2829 1.363 . S
C2832 N2830 1.356 . S
C2833 C2827 1.363 . S
C2833 C2828 1.379 1_556 S
C2833 N2831 1.356 . S
N2834 C2826 1.356 . S
N2834 H2840 0.984 . S
N2834 H2841 0.984 . S
N2835 C2828 1.356 . S
N2835 H2838 0.984 . S
N2835 H2839 0.985 . S
H2836 N2831 0.984 . S
H2837 N2831 0.985 . S
H2838 N2835 0.984 . S
H2839 N2835 0.985 . S
H2840 N2834 0.984 . S
H2841 N2834 0.984 . S
H2842 N2830 0.984 . S
H2843 N2830 0.985 . S
C2844 C2845 1.363 . S
C2844 C2850 1.379 1_554 S
C2844 N2852 1.356 . S
C2845 C2844 1.363 . S
C2845 C2851 1.363 . S
C2846 C2847 1.363 . S
C2846 C2851 1.379 1_556 S
C2846 N2853 1.356 . S
C2847 C2846 1.363 . S
C2847 C2850 1.363 . S
N2848 C2850 1.356 . S
N2848 H2860 0.984 . S
N2848 H2861 0.985 . S
N2849 C2851 1.356 . S
N2849 H2854 0.984 . S
N2849 H2855 0.985 . S
C2850 C2844 1.379 1_556 S
C2850 C2847 1.363 . S
C2850 N2848 1.356 . S
C2851 C2845 1.363 . S
C2851 C2846 1.379 1_554 S
C2851 N2849 1.356 . S
N2852 C2844 1.356 . S
N2852 H2858 0.984 . S
N2852 H2859 0.984 . S
N2853 C2846 1.356 . S
N2853 H2856 0.984 . S
N2853 H2857 0.985 . S
H2854 N2849 0.984 . S
H2855 N2849 0.985 . S
H2856 N2853 0.984 . S
H2857 N2853 0.985 . S
H2858 N2852 0.984 . S
H2859 N2852 0.984 . S
H2860 N2848 0.984 . S
H2861 N2848 0.985 . S
C2862 C2863 1.363 . S
C2862 C2868 1.379 1_554 S
C2862 N2870 1.356 . S
C2863 C2862 1.363 . S
C2863 C2869 1.363 . S
C2864 C2865 1.363 . S
C2864 C2869 1.379 1_556 S
C2864 N2871 1.356 . S
C2865 C2864 1.363 . S
C2865 C2868 1.363 . S
N2866 C2868 1.356 . S
N2866 H2878 0.984 . S
N2866 H2879 0.985 . S
N2867 C2869 1.356 . S
N2867 H2872 0.984 . S
N2867 H2873 0.985 . S
C2868 C2862 1.379 1_556 S
C2868 C2865 1.363 . S
C2868 N2866 1.356 . S
C2869 C2863 1.363 . S
C2869 C2864 1.379 1_554 S
C2869 N2867 1.356 . S
N2870 C2862 1.356 . S
N2870 H2876 0.984 . S
N2870 H2877 0.984 . S
N2871 C2864 1.356 . S
N2871 H2874 0.984 . S
N2871 H2875 0.985 . S
H2872 N2867 0.984 . S
H2873 N2867 0.985 . S
H2874 N2871 0.984 . S
H2875 N2871 0.985 . S
H2876 N2870 0.984 . S
H2877 N2870 0.984 . S
H2878 N2866 0.984 . S
H2879 N2866 0.985 . S
C2880 C2881 1.363 . S
C2880 C2886 1.379 . S
C2880 N2888 1.356 . S
C2881 C2880 1.363 . S
C2881 C2887 1.363 . S
C2882 C2883 1.363 . S
C2882 C2887 1.379 . S
C2882 N2889 1.356 . S
C2883 C2882 1.363 . S
C2883 C2886 1.363 . S
N2884 C2886 1.356 . S
N2884 H2896 0.984 . S
N2884 H2897 0.985 . S
N2885 C2887 1.356 . S
N2885 H2890 0.984 . S
N2885 H2891 0.985 . S
C2886 C2880 1.379 . S
C2886 C2883 1.363 . S
C2886 N2884 1.356 . S
C2887 C2881 1.363 . S
C2887 C2882 1.379 . S
C2887 N2885 1.356 . S
N2888 C2880 1.356 . S
N2888 H2894 0.984 . S
N2888 H2895 0.984 . S
N2889 C2882 1.356 . S
N2889 H2892 0.984 . S
N2889 H2893 0.985 . S
H2890 N2885 0.984 . S
H2891 N2885 0.985 . S
H2892 N2889 0.984 . S
H2893 N2889 0.985 . S
H2894 N2888 0.984 . S
H2895 N2888 0.984 . S
H2896 N2884 0.984 . S
H2897 N2884 0.985 . S
C2898 C2899 1.363 . S
C2898 C2904 1.379 . S
C2898 N2906 1.356 . S
C2899 C2898 1.363 . S
C2899 C2905 1.363 . S
C2900 C2901 1.363 . S
C2900 C2905 1.379 . S
C2900 N2907 1.356 . S
C2901 C2900 1.363 . S
C2901 C2904 1.363 . S
N2902 C2904 1.356 . S
N2902 H2914 0.984 . S
N2902 H2915 0.985 . S
N2903 C2905 1.356 . S
N2903 H2908 0.984 . S
N2903 H2909 0.985 . S
C2904 C2898 1.379 . S
C2904 C2901 1.363 . S
C2904 N2902 1.356 . S
C2905 C2899 1.363 . S
C2905 C2900 1.379 . S
C2905 N2903 1.356 . S
N2906 C2898 1.356 . S
N2906 H2912 0.984 . S
N2906 H2913 0.984 . S
N2907 C2900 1.356 . S
N2907 H2910 0.984 . S
N2907 H2911 0.985 . S
H2908 N2903 0.984 . S
H2909 N2903 0.985 . S
H2910 N2907 0.984 . S
H2911 N2907 0.985 . S
H2912 N2906 0.984 . S
H2913 N2906 0.984 . S
H2914 N2902 0.984 . S
H2915 N2902 0.985 . S
C2916 C2917 1.363 . S
C2916 C2922 1.379 . S
C2916 N2924 1.356 . S
C2917 C2916 1.363 . S
C2917 C2923 1.363 . S
C2918 C2919 1.363 . S
C2918 C2923 1.379 . S
C2918 N2925 1.356 . S
C2919 C2918 1.363 . S
C2919 C2922 1.363 . S
N2920 C2922 1.356 . S
N2920 H2932 0.984 . S
N2920 H2933 0.985 . S
N2921 C2923 1.356 . S
N2921 H2926 0.984 . S
N2921 H2927 0.985 . S
C2922 C2916 1.379 . S
C2922 C2919 1.363 . S
C2922 N2920 1.356 . S
C2923 C2917 1.363 . S
C2923 C2918 1.379 . S
C2923 N2921 1.356 . S
N2924 C2916 1.356 . S
N2924 H2930 0.984 . S
N2924 H2931 0.984 . S
N2925 C2918 1.356 . S
N2925 H2928 0.984 . S
N2925 H2929 0.985 . S
H2926 N2921 0.984 . S
H2927 N2921 0.985 . S
H2928 N2925 0.984 . S
H2929 N2925 0.985 . S
H2930 N2924 0.984 . S
H2931 N2924 0.984 . S
H2932 N2920 0.984 . S
H2933 N2920 0.985 . S
C2934 C2935 1.363 . S
C2934 C2940 1.379 . S
C2934 N2942 1.356 . S
C2935 C2934 1.363 . S
C2935 C2941 1.363 . S
C2936 C2937 1.363 . S
C2936 C2941 1.379 . S
C2936 N2943 1.356 . S
C2937 C2936 1.363 . S
C2937 C2940 1.363 . S
N2938 C2940 1.356 . S
N2938 H2950 0.984 . S
N2938 H2951 0.985 . S
N2939 C2941 1.356 . S
N2939 H2944 0.984 . S
N2939 H2945 0.985 . S
C2940 C2934 1.379 . S
C2940 C2937 1.363 . S
C2940 N2938 1.356 . S
C2941 C2935 1.363 . S
C2941 C2936 1.379 . S
C2941 N2939 1.356 . S
N2942 C2934 1.356 . S
N2942 H2948 0.984 . S
N2942 H2949 0.984 . S
N2943 C2936 1.356 . S
N2943 H2946 0.984 . S
N2943 H2947 0.985 . S
H2944 N2939 0.984 . S
H2945 N2939 0.985 . S
H2946 N2943 0.984 . S
H2947 N2943 0.985 . S
H2948 N2942 0.984 . S
H2949 N2942 0.984 . S
H2950 N2938 0.984 . S
H2951 N2938 0.985 . S
C2952 C2953 1.363 . S
C2952 C2958 1.379 . S
C2952 N2960 1.356 . S
C2953 C2952 1.363 . S
C2953 C2959 1.363 . S
C2954 C2955 1.363 . S
C2954 C2959 1.379 . S
C2954 N2961 1.356 . S
C2955 C2954 1.363 . S
C2955 C2958 1.363 . S
N2956 C2958 1.356 . S
N2956 H2968 0.984 . S
N2956 H2969 0.985 . S
N2957 C2959 1.356 . S
N2957 H2962 0.984 . S
N2957 H2963 0.985 . S
C2958 C2952 1.379 . S
C2958 C2955 1.363 . S
C2958 N2956 1.356 . S
C2959 C2953 1.363 . S
C2959 C2954 1.379 . S
C2959 N2957 1.356 . S
N2960 C2952 1.356 . S
N2960 H2966 0.984 . S
N2960 H2967 0.984 . S
N2961 C2954 1.356 . S
N2961 H2964 0.984 . S
N2961 H2965 0.985 . S
H2962 N2957 0.984 . S
H2963 N2957 0.985 . S
H2964 N2961 0.984 . S
H2965 N2961 0.985 . S
H2966 N2960 0.984 . S
H2967 N2960 0.984 . S
H2968 N2956 0.984 . S
H2969 N2956 0.985 . S
C2970 C2971 1.363 . S
C2970 C2976 1.379 . S
C2970 N2978 1.356 . S
C2971 C2970 1.363 . S
C2971 C2977 1.363 . S
C2972 C2973 1.363 . S
C2972 C2977 1.379 . S
C2972 N2979 1.356 . S
C2973 C2972 1.363 . S
C2973 C2976 1.363 . S
N2974 C2976 1.356 . S
N2974 H2986 0.984 . S
N2974 H2987 0.985 . S
N2975 C2977 1.356 . S
N2975 H2980 0.984 . S
N2975 H2981 0.985 . S
C2976 C2970 1.379 . S
C2976 C2973 1.363 . S
C2976 N2974 1.356 . S
C2977 C2971 1.363 . S
C2977 C2972 1.379 . S
C2977 N2975 1.356 . S
N2978 C2970 1.356 . S
N2978 H2984 0.984 . S
N2978 H2985 0.984 . S
N2979 C2972 1.356 . S
N2979 H2982 0.984 . S
N2979 H2983 0.985 . S
H2980 N2975 0.984 . S
H2981 N2975 0.985 . S
H2982 N2979 0.984 . S
H2983 N2979 0.985 . S
H2984 N2978 0.984 . S
H2985 N2978 0.984 . S
H2986 N2974 0.984 . S
H2987 N2974 0.985 . S
C2988 C2989 1.363 . S
C2988 C2994 1.379 . S
C2988 N2996 1.356 . S
C2989 C2988 1.363 . S
C2989 C2995 1.363 . S
C2990 C2991 1.363 . S
C2990 C2995 1.379 . S
C2990 N2997 1.356 . S
C2991 C2990 1.363 . S
C2991 C2994 1.363 . S
N2992 C2994 1.356 . S
N2992 H3004 0.984 . S
N2992 H3005 0.985 . S
N2993 C2995 1.356 . S
N2993 H2998 0.984 . S
N2993 H2999 0.985 . S
C2994 C2988 1.379 . S
C2994 C2991 1.363 . S
C2994 N2992 1.356 . S
C2995 C2989 1.363 . S
C2995 C2990 1.379 . S
C2995 N2993 1.356 . S
N2996 C2988 1.356 . S
N2996 H3002 0.984 . S
N2996 H3003 0.984 . S
N2997 C2990 1.356 . S
N2997 H3000 0.984 . S
N2997 H3001 0.985 . S
H2998 N2993 0.984 . S
H2999 N2993 0.985 . S
H3000 N2997 0.984 . S
H3001 N2997 0.985 . S
H3002 N2996 0.984 . S
H3003 N2996 0.984 . S
H3004 N2992 0.984 . S
H3005 N2992 0.985 . S
C3006 C3007 1.363 . S
C3006 C3012 1.379 . S
C3006 N3014 1.356 . S
C3007 C3006 1.363 . S
C3007 C3013 1.363 . S
C3008 C3009 1.363 . S
C3008 C3013 1.379 . S
C3008 N3015 1.356 . S
C3009 C3008 1.363 . S
C3009 C3012 1.363 . S
N3010 C3012 1.356 . S
N3010 H3022 0.984 . S
N3010 H3023 0.985 . S
N3011 C3013 1.356 . S
N3011 H3016 0.984 . S
N3011 H3017 0.985 . S
C3012 C3006 1.379 . S
C3012 C3009 1.363 . S
C3012 N3010 1.356 . S
C3013 C3007 1.363 . S
C3013 C3008 1.379 . S
C3013 N3011 1.356 . S
N3014 C3006 1.356 . S
N3014 H3020 0.984 . S
N3014 H3021 0.984 . S
N3015 C3008 1.356 . S
N3015 H3018 0.984 . S
N3015 H3019 0.985 . S
H3016 N3011 0.984 . S
H3017 N3011 0.985 . S
H3018 N3015 0.984 . S
H3019 N3015 0.985 . S
H3020 N3014 0.984 . S
H3021 N3014 0.984 . S
H3022 N3010 0.984 . S
H3023 N3010 0.985 . S
C3024 C3025 1.363 . S
C3024 C3030 1.379 . S
C3024 N3032 1.356 . S
C3025 C3024 1.363 . S
C3025 C3031 1.363 . S
C3026 C3027 1.363 . S
C3026 C3031 1.379 . S
C3026 N3033 1.356 . S
C3027 C3026 1.363 . S
C3027 C3030 1.363 . S
N3028 C3030 1.356 . S
N3028 H3040 0.984 . S
N3028 H3041 0.985 . S
N3029 C3031 1.356 . S
N3029 H3034 0.984 . S
N3029 H3035 0.985 . S
C3030 C3024 1.379 . S
C3030 C3027 1.363 . S
C3030 N3028 1.356 . S
C3031 C3025 1.363 . S
C3031 C3026 1.379 . S
C3031 N3029 1.356 . S
N3032 C3024 1.356 . S
N3032 H3038 0.984 . S
N3032 H3039 0.984 . S
N3033 C3026 1.356 . S
N3033 H3036 0.984 . S
N3033 H3037 0.985 . S
H3034 N3029 0.984 . S
H3035 N3029 0.985 . S
H3036 N3033 0.984 . S
H3037 N3033 0.985 . S
H3038 N3032 0.984 . S
H3039 N3032 0.984 . S
H3040 N3028 0.984 . S
H3041 N3028 0.985 . S
C3042 C3043 1.363 . S
C3042 C3048 1.379 . S
C3042 N3050 1.356 . S
C3043 C3042 1.363 . S
C3043 C3049 1.363 . S
C3044 C3045 1.363 . S
C3044 C3049 1.379 . S
C3044 N3051 1.356 . S
C3045 C3044 1.363 . S
C3045 C3048 1.363 . S
N3046 C3048 1.356 . S
N3046 H3058 0.984 . S
N3046 H3059 0.985 . S
N3047 C3049 1.356 . S
N3047 H3052 0.984 . S
N3047 H3053 0.985 . S
C3048 C3042 1.379 . S
C3048 C3045 1.363 . S
C3048 N3046 1.356 . S
C3049 C3043 1.363 . S
C3049 C3044 1.379 . S
C3049 N3047 1.356 . S
N3050 C3042 1.356 . S
N3050 H3056 0.984 . S
N3050 H3057 0.984 . S
N3051 C3044 1.356 . S
N3051 H3054 0.984 . S
N3051 H3055 0.985 . S
H3052 N3047 0.984 . S
H3053 N3047 0.985 . S
H3054 N3051 0.984 . S
H3055 N3051 0.985 . S
H3056 N3050 0.984 . S
H3057 N3050 0.984 . S
H3058 N3046 0.984 . S
H3059 N3046 0.985 . S
C3060 C3061 1.363 . S
C3060 C3066 1.379 . S
C3060 N3068 1.356 . S
C3061 C3060 1.363 . S
C3061 C3067 1.363 . S
C3062 C3063 1.363 . S
C3062 C3067 1.379 . S
C3062 N3069 1.356 . S
C3063 C3062 1.363 . S
C3063 C3066 1.363 . S
N3064 C3066 1.356 . S
N3064 H3076 0.984 . S
N3064 H3077 0.985 . S
N3065 C3067 1.356 . S
N3065 H3070 0.984 . S
N3065 H3071 0.985 . S
C3066 C3060 1.379 . S
C3066 C3063 1.363 . S
C3066 N3064 1.356 . S
C3067 C3061 1.363 . S
C3067 C3062 1.379 . S
C3067 N3065 1.356 . S
N3068 C3060 1.356 . S
N3068 H3074 0.984 . S
N3068 H3075 0.984 . S
N3069 C3062 1.356 . S
N3069 H3072 0.984 . S
N3069 H3073 0.985 . S
H3070 N3065 0.984 . S
H3071 N3065 0.985 . S
H3072 N3069 0.984 . S
H3073 N3069 0.985 . S
H3074 N3068 0.984 . S
H3075 N3068 0.984 . S
H3076 N3064 0.984 . S
H3077 N3064 0.985 . S
C3078 C3079 1.363 . S
C3078 C3084 1.379 . S
C3078 N3086 1.356 . S
C3079 C3078 1.363 . S
C3079 C3085 1.363 . S
C3080 C3081 1.363 . S
C3080 C3085 1.379 . S
C3080 N3087 1.356 . S
C3081 C3080 1.363 . S
C3081 C3084 1.363 . S
N3082 C3084 1.356 . S
N3082 H3094 0.984 . S
N3082 H3095 0.985 . S
N3083 C3085 1.356 . S
N3083 H3088 0.984 . S
N3083 H3089 0.985 . S
C3084 C3078 1.379 . S
C3084 C3081 1.363 . S
C3084 N3082 1.356 . S
C3085 C3079 1.363 . S
C3085 C3080 1.379 . S
C3085 N3083 1.356 . S
N3086 C3078 1.356 . S
N3086 H3092 0.984 . S
N3086 H3093 0.984 . S
N3087 C3080 1.356 . S
N3087 H3090 0.984 . S
N3087 H3091 0.985 . S
H3088 N3083 0.984 . S
H3089 N3083 0.985 . S
H3090 N3087 0.984 . S
H3091 N3087 0.985 . S
H3092 N3086 0.984 . S
H3093 N3086 0.984 . S
H3094 N3082 0.984 . S
H3095 N3082 0.985 . S
C3096 C3097 1.363 . S
C3096 C3102 1.379 . S
C3096 N3104 1.356 . S
C3097 C3096 1.363 . S
C3097 C3103 1.363 . S
C3098 C3099 1.363 . S
C3098 C3103 1.379 . S
C3098 N3105 1.356 . S
C3099 C3098 1.363 . S
C3099 C3102 1.363 . S
N3100 C3102 1.356 . S
N3100 H3112 0.984 . S
N3100 H3113 0.985 . S
N3101 C3103 1.356 . S
N3101 H3106 0.984 . S
N3101 H3107 0.985 . S
C3102 C3096 1.379 . S
C3102 C3099 1.363 . S
C3102 N3100 1.356 . S
C3103 C3097 1.363 . S
C3103 C3098 1.379 . S
C3103 N3101 1.356 . S
N3104 C3096 1.356 . S
N3104 H3110 0.984 . S
N3104 H3111 0.984 . S
N3105 C3098 1.356 . S
N3105 H3108 0.984 . S
N3105 H3109 0.985 . S
H3106 N3101 0.984 . S
H3107 N3101 0.985 . S
H3108 N3105 0.984 . S
H3109 N3105 0.985 . S
H3110 N3104 0.984 . S
H3111 N3104 0.984 . S
H3112 N3100 0.984 . S
H3113 N3100 0.985 . S
C3114 C3115 1.363 . S
C3114 C3120 1.379 . S
C3114 N3122 1.356 . S
C3115 C3114 1.363 . S
C3115 C3121 1.363 . S
C3116 C3117 1.363 . S
C3116 C3121 1.379 . S
C3116 N3123 1.356 . S
C3117 C3116 1.363 . S
C3117 C3120 1.363 . S
N3118 C3120 1.356 . S
N3118 H3130 0.984 . S
N3118 H3131 0.985 . S
N3119 C3121 1.356 . S
N3119 H3124 0.984 . S
N3119 H3125 0.985 . S
C3120 C3114 1.379 . S
C3120 C3117 1.363 . S
C3120 N3118 1.356 . S
C3121 C3115 1.363 . S
C3121 C3116 1.379 . S
C3121 N3119 1.356 . S
N3122 C3114 1.356 . S
N3122 H3128 0.984 . S
N3122 H3129 0.984 . S
N3123 C3116 1.356 . S
N3123 H3126 0.984 . S
N3123 H3127 0.985 . S
H3124 N3119 0.984 . S
H3125 N3119 0.985 . S
H3126 N3123 0.984 . S
H3127 N3123 0.985 . S
H3128 N3122 0.984 . S
H3129 N3122 0.984 . S
H3130 N3118 0.984 . S
H3131 N3118 0.985 . S
C3132 C3133 1.363 . S
C3132 C3138 1.379 . S
C3132 N3140 1.356 . S
C3133 C3132 1.363 . S
C3133 C3139 1.363 . S
C3134 C3135 1.363 . S
C3134 C3139 1.379 . S
C3134 N3141 1.356 . S
C3135 C3134 1.363 . S
C3135 C3138 1.363 . S
N3136 C3138 1.356 . S
N3136 H3148 0.984 . S
N3136 H3149 0.985 . S
N3137 C3139 1.356 . S
N3137 H3142 0.984 . S
N3137 H3143 0.985 . S
C3138 C3132 1.379 . S
C3138 C3135 1.363 . S
C3138 N3136 1.356 . S
C3139 C3133 1.363 . S
C3139 C3134 1.379 . S
C3139 N3137 1.356 . S
N3140 C3132 1.356 . S
N3140 H3146 0.984 . S
N3140 H3147 0.984 . S
N3141 C3134 1.356 . S
N3141 H3144 0.984 . S
N3141 H3145 0.985 . S
H3142 N3137 0.984 . S
H3143 N3137 0.985 . S
H3144 N3141 0.984 . S
H3145 N3141 0.985 . S
H3146 N3140 0.984 . S
H3147 N3140 0.984 . S
H3148 N3136 0.984 . S
H3149 N3136 0.985 . S
C3150 C3151 1.363 . S
C3150 C3156 1.379 . S
C3150 N3158 1.356 . S
C3151 C3150 1.363 . S
C3151 C3157 1.363 . S
C3152 C3153 1.363 . S
C3152 C3157 1.379 . S
C3152 N3159 1.356 . S
C3153 C3152 1.363 . S
C3153 C3156 1.363 . S
N3154 C3156 1.356 . S
N3154 H3166 0.984 . S
N3154 H3167 0.985 . S
N3155 C3157 1.356 . S
N3155 H3160 0.984 . S
N3155 H3161 0.985 . S
C3156 C3150 1.379 . S
C3156 C3153 1.363 . S
C3156 N3154 1.356 . S
C3157 C3151 1.363 . S
C3157 C3152 1.379 . S
C3157 N3155 1.356 . S
N3158 C3150 1.356 . S
N3158 H3164 0.984 . S
N3158 H3165 0.984 . S
N3159 C3152 1.356 . S
N3159 H3162 0.984 . S
N3159 H3163 0.985 . S
H3160 N3155 0.984 . S
H3161 N3155 0.985 . S
H3162 N3159 0.984 . S
H3163 N3159 0.985 . S
H3164 N3158 0.984 . S
H3165 N3158 0.984 . S
H3166 N3154 0.984 . S
H3167 N3154 0.985 . S
C3168 C3169 1.363 . S
C3168 C3174 1.379 . S
C3168 N3176 1.356 . S
C3169 C3168 1.363 . S
C3169 C3175 1.363 . S
C3170 C3171 1.363 . S
C3170 C3175 1.379 . S
C3170 N3177 1.356 . S
C3171 C3170 1.363 . S
C3171 C3174 1.363 . S
N3172 C3174 1.356 . S
N3172 H3184 0.984 . S
N3172 H3185 0.985 . S
N3173 C3175 1.356 . S
N3173 H3178 0.984 . S
N3173 H3179 0.985 . S
C3174 C3168 1.379 . S
C3174 C3171 1.363 . S
C3174 N3172 1.356 . S
C3175 C3169 1.363 . S
C3175 C3170 1.379 . S
C3175 N3173 1.356 . S
N3176 C3168 1.356 . S
N3176 H3182 0.984 . S
N3176 H3183 0.984 . S
N3177 C3170 1.356 . S
N3177 H3180 0.984 . S
N3177 H3181 0.985 . S
H3178 N3173 0.984 . S
H3179 N3173 0.985 . S
H3180 N3177 0.984 . S
H3181 N3177 0.985 . S
H3182 N3176 0.984 . S
H3183 N3176 0.984 . S
H3184 N3172 0.984 . S
H3185 N3172 0.985 . S
C3186 C3187 1.363 . S
C3186 C3192 1.379 . S
C3186 N3194 1.356 . S
C3187 C3186 1.363 . S
C3187 C3193 1.363 . S
C3188 C3189 1.363 . S
C3188 C3193 1.379 . S
C3188 N3195 1.356 . S
C3189 C3188 1.363 . S
C3189 C3192 1.363 . S
N3190 C3192 1.356 . S
N3190 H3202 0.984 . S
N3190 H3203 0.985 . S
N3191 C3193 1.356 . S
N3191 H3196 0.984 . S
N3191 H3197 0.985 . S
C3192 C3186 1.379 . S
C3192 C3189 1.363 . S
C3192 N3190 1.356 . S
C3193 C3187 1.363 . S
C3193 C3188 1.379 . S
C3193 N3191 1.356 . S
N3194 C3186 1.356 . S
N3194 H3200 0.984 . S
N3194 H3201 0.984 . S
N3195 C3188 1.356 . S
N3195 H3198 0.984 . S
N3195 H3199 0.985 . S
H3196 N3191 0.984 . S
H3197 N3191 0.985 . S
H3198 N3195 0.984 . S
H3199 N3195 0.985 . S
H3200 N3194 0.984 . S
H3201 N3194 0.984 . S
H3202 N3190 0.984 . S
H3203 N3190 0.985 . S
C3204 C3205 1.363 . S
C3204 C3210 1.379 . S
C3204 N3212 1.356 . S
C3205 C3204 1.363 . S
C3205 C3211 1.363 . S
C3206 C3207 1.363 . S
C3206 C3211 1.379 . S
C3206 N3213 1.356 . S
C3207 C3206 1.363 . S
C3207 C3210 1.363 . S
N3208 C3210 1.356 . S
N3208 H3220 0.984 . S
N3208 H3221 0.985 . S
N3209 C3211 1.356 . S
N3209 H3214 0.984 . S
N3209 H3215 0.985 . S
C3210 C3204 1.379 . S
C3210 C3207 1.363 . S
C3210 N3208 1.356 . S
C3211 C3205 1.363 . S
C3211 C3206 1.379 . S
C3211 N3209 1.356 . S
N3212 C3204 1.356 . S
N3212 H3218 0.984 . S
N3212 H3219 0.984 . S
N3213 C3206 1.356 . S
N3213 H3216 0.984 . S
N3213 H3217 0.985 . S
H3214 N3209 0.984 . S
H3215 N3209 0.985 . S
H3216 N3213 0.984 . S
H3217 N3213 0.985 . S
H3218 N3212 0.984 . S
H3219 N3212 0.984 . S
H3220 N3208 0.984 . S
H3221 N3208 0.985 . S
C3222 C3223 1.363 . S
C3222 C3228 1.379 . S
C3222 N3230 1.356 . S
C3223 C3222 1.363 . S
C3223 C3229 1.363 . S
C3224 C3225 1.363 . S
C3224 C3229 1.379 . S
C3224 N3231 1.356 . S
C3225 C3224 1.363 . S
C3225 C3228 1.363 . S
N3226 C3228 1.356 . S
N3226 H3238 0.984 . S
N3226 H3239 0.985 . S
N3227 C3229 1.356 . S
N3227 H3232 1.006 . S
N3227 H3233 0.985 . S
C3228 C3222 1.379 . S
C3228 C3225 1.363 . S
C3228 N3226 1.356 . S
C3229 C3223 1.363 . S
C3229 C3224 1.379 . S
C3229 N3227 1.356 . S
N3230 C3222 1.356 . S
N3230 H3236 0.984 . S
N3230 H3237 0.984 . S
N3231 C3224 1.356 . S
N3231 H3234 0.984 . S
N3231 H3235 0.985 . S
H3232 N3227 1.006 . S
H3233 N3227 0.985 . S
H3234 N3231 0.984 . S
H3235 N3231 0.985 . S
H3236 N3230 0.984 . S
H3237 N3230 0.984 . S
H3238 N3226 0.984 . S
H3239 N3226 0.985 . S
C3240 C3241 1.363 . S
C3240 C3246 1.379 . S
C3240 N3248 1.356 . S
C3241 C3240 1.363 . S
C3241 C3247 1.363 . S
C3242 C3243 1.363 . S
C3242 C3247 1.379 . S
C3242 N3249 1.356 . S
C3243 C3242 1.363 . S
C3243 C3246 1.363 . S
N3244 C3246 1.356 . S
N3244 H3256 0.984 . S
N3244 H3257 0.985 . S
N3245 C3247 1.356 . S
N3245 H3250 0.984 . S
N3245 H3251 0.985 . S
C3246 C3240 1.379 . S
C3246 C3243 1.363 . S
C3246 N3244 1.356 . S
C3247 C3241 1.363 . S
C3247 C3242 1.379 . S
C3247 N3245 1.356 . S
N3248 C3240 1.356 . S
N3248 H3254 0.984 . S
N3248 H3255 0.984 . S
N3249 C3242 1.356 . S
N3249 H3252 0.984 . S
N3249 H3253 0.985 . S
H3250 N3245 0.984 . S
H3251 N3245 0.985 . S
H3252 N3249 0.984 . S
H3253 N3249 0.985 . S
H3254 N3248 0.984 . S
H3255 N3248 0.984 . S
H3256 N3244 0.984 . S
H3257 N3244 0.985 . S
C3258 C3259 1.363 . S
C3258 C3264 1.379 . S
C3258 N3266 1.356 . S
C3259 C3258 1.363 . S
C3259 C3265 1.363 . S
C3260 C3261 1.363 . S
C3260 C3265 1.379 . S
C3260 N3267 1.356 . S
C3261 C3260 1.363 . S
C3261 C3264 1.363 . S
N3262 C3264 1.356 . S
N3262 H3274 0.984 . S
N3262 H3275 0.985 . S
N3263 C3265 1.356 . S
N3263 H3268 0.984 . S
N3263 H3269 0.985 . S
C3264 C3258 1.379 . S
C3264 C3261 1.363 . S
C3264 N3262 1.356 . S
C3265 C3259 1.363 . S
C3265 C3260 1.379 . S
C3265 N3263 1.356 . S
N3266 C3258 1.356 . S
N3266 H3272 0.984 . S
N3266 H3273 0.984 . S
N3267 C3260 1.356 . S
N3267 H3270 0.984 . S
N3267 H3271 0.985 . S
H3268 N3263 0.984 . S
H3269 N3263 0.985 . S
H3270 N3267 0.984 . S
H3271 N3267 0.985 . S
H3272 N3266 0.984 . S
H3273 N3266 0.984 . S
H3274 N3262 0.984 . S
H3275 N3262 0.985 . S
C3276 C3277 1.363 . S
C3276 C3282 1.379 . S
C3276 N3284 1.356 . S
C3277 C3276 1.363 . S
C3277 C3283 1.363 . S
C3278 C3279 1.363 . S
C3278 C3283 1.379 . S
C3278 N3285 1.356 . S
C3279 C3278 1.363 . S
C3279 C3282 1.363 . S
N3280 C3282 1.356 . S
N3280 H3292 0.984 . S
N3280 H3293 0.985 . S
N3281 C3283 1.356 . S
N3281 H3286 0.984 . S
N3281 H3287 0.985 . S
C3282 C3276 1.379 . S
C3282 C3279 1.363 . S
C3282 N3280 1.356 . S
C3283 C3277 1.363 . S
C3283 C3278 1.379 . S
C3283 N3281 1.356 . S
N3284 C3276 1.356 . S
N3284 H3290 0.984 . S
N3284 H3291 0.984 . S
N3285 C3278 1.356 . S
N3285 H3288 0.984 . S
N3285 H3289 0.985 . S
H3286 N3281 0.984 . S
H3287 N3281 0.985 . S
H3288 N3285 0.984 . S
H3289 N3285 0.985 . S
H3290 N3284 0.984 . S
H3291 N3284 0.984 . S
H3292 N3280 0.984 . S
H3293 N3280 0.985 . S
C3294 C3295 1.363 . S
C3294 C3300 1.379 . S
C3294 N3302 1.356 . S
C3295 C3294 1.363 . S
C3295 C3301 1.363 . S
C3296 C3297 1.363 . S
C3296 C3301 1.379 . S
C3296 N3303 1.356 . S
C3297 C3296 1.363 . S
C3297 C3300 1.363 . S
N3298 C3300 1.356 . S
N3298 H3310 0.984 . S
N3298 H3311 0.985 . S
N3299 C3301 1.356 . S
N3299 H3304 0.984 . S
N3299 H3305 0.985 . S
C3300 C3294 1.379 . S
C3300 C3297 1.363 . S
C3300 N3298 1.356 . S
C3301 C3295 1.363 . S
C3301 C3296 1.379 . S
C3301 N3299 1.356 . S
N3302 C3294 1.356 . S
N3302 H3308 0.984 . S
N3302 H3309 0.984 . S
N3303 C3296 1.356 . S
N3303 H3306 0.984 . S
N3303 H3307 0.985 . S
H3304 N3299 0.984 . S
H3305 N3299 0.985 . S
H3306 N3303 0.984 . S
H3307 N3303 0.985 . S
H3308 N3302 0.984 . S
H3309 N3302 0.984 . S
H3310 N3298 0.984 . S
H3311 N3298 0.985 . S
C3312 C3313 1.363 . S
C3312 C3318 1.379 . S
C3312 N3320 1.356 . S
C3313 C3312 1.363 . S
C3313 C3319 1.363 . S
C3314 C3315 1.363 . S
C3314 C3319 1.379 . S
C3314 N3321 1.356 . S
C3315 C3314 1.363 . S
C3315 C3318 1.363 . S
N3316 C3318 1.356 . S
N3316 H3328 0.984 . S
N3316 H3329 0.985 . S
N3317 C3319 1.356 . S
N3317 H3322 0.984 . S
N3317 H3323 0.985 . S
C3318 C3312 1.379 . S
C3318 C3315 1.363 . S
C3318 N3316 1.356 . S
C3319 C3313 1.363 . S
C3319 C3314 1.379 . S
C3319 N3317 1.356 . S
N3320 C3312 1.356 . S
N3320 H3326 0.984 . S
N3320 H3327 0.984 . S
N3321 C3314 1.356 . S
N3321 H3324 0.984 . S
N3321 H3325 0.985 . S
H3322 N3317 0.984 . S
H3323 N3317 0.985 . S
H3324 N3321 0.984 . S
H3325 N3321 0.985 . S
H3326 N3320 0.984 . S
H3327 N3320 0.984 . S
H3328 N3316 0.984 . S
H3329 N3316 0.985 . S
C3330 C3331 1.363 . S
C3330 C3336 1.379 . S
C3330 N3338 1.356 . S
C3331 C3330 1.363 . S
C3331 C3337 1.363 . S
C3332 C3333 1.363 . S
C3332 C3337 1.379 . S
C3332 N3339 1.356 . S
C3333 C3332 1.363 . S
C3333 C3336 1.363 . S
N3334 C3336 1.356 . S
N3334 H3346 0.984 . S
N3334 H3347 0.985 . S
N3335 C3337 1.356 . S
N3335 H3340 0.984 . S
N3335 H3341 0.985 . S
C3336 C3330 1.379 . S
C3336 C3333 1.363 . S
C3336 N3334 1.356 . S
C3337 C3331 1.363 . S
C3337 C3332 1.379 . S
C3337 N3335 1.356 . S
N3338 C3330 1.356 . S
N3338 H3344 0.984 . S
N3338 H3345 0.984 . S
N3339 C3332 1.356 . S
N3339 H3342 0.984 . S
N3339 H3343 0.985 . S
H3340 N3335 0.984 . S
H3341 N3335 0.985 . S
H3342 N3339 0.984 . S
H3343 N3339 0.985 . S
H3344 N3338 0.984 . S
H3345 N3338 0.984 . S
H3346 N3334 0.984 . S
H3347 N3334 0.985 . S
C3348 C3349 1.363 . S
C3348 C3354 1.379 . S
C3348 N3356 1.356 . S
C3349 C3348 1.363 . S
C3349 C3355 1.363 . S
C3350 C3351 1.363 . S
C3350 C3355 1.379 . S
C3350 N3357 1.356 . S
C3351 C3350 1.363 . S
C3351 C3354 1.363 . S
N3352 C3354 1.356 . S
N3352 H3364 0.984 . S
N3352 H3365 0.985 . S
N3353 C3355 1.356 . S
N3353 H3358 0.984 . S
N3353 H3359 0.985 . S
C3354 C3348 1.379 . S
C3354 C3351 1.363 . S
C3354 N3352 1.356 . S
C3355 C3349 1.363 . S
C3355 C3350 1.379 . S
C3355 N3353 1.356 . S
N3356 C3348 1.356 . S
N3356 H3362 0.984 . S
N3356 H3363 0.984 . S
N3357 C3350 1.356 . S
N3357 H3360 0.984 . S
N3357 H3361 0.985 . S
H3358 N3353 0.984 . S
H3359 N3353 0.985 . S
H3360 N3357 0.984 . S
H3361 N3357 0.985 . S
H3362 N3356 0.984 . S
H3363 N3356 0.984 . S
H3364 N3352 0.984 . S
H3365 N3352 0.985 . S
C3366 C3367 1.363 . S
C3366 C3372 1.379 . S
C3366 N3374 1.356 . S
C3367 C3366 1.363 . S
C3367 C3373 1.363 . S
C3368 C3369 1.363 . S
C3368 C3373 1.379 . S
C3368 N3375 1.356 . S
C3369 C3368 1.363 . S
C3369 C3372 1.363 . S
N3370 C3372 1.356 . S
N3370 H3382 0.984 . S
N3370 H3383 0.985 . S
N3371 C3373 1.356 . S
N3371 H3376 0.984 . S
N3371 H3377 0.985 . S
C3372 C3366 1.379 . S
C3372 C3369 1.363 . S
C3372 N3370 1.356 . S
C3373 C3367 1.363 . S
C3373 C3368 1.379 . S
C3373 N3371 1.356 . S
N3374 C3366 1.356 . S
N3374 H3380 0.984 . S
N3374 H3381 0.984 . S
N3375 C3368 1.356 . S
N3375 H3378 0.984 . S
N3375 H3379 0.985 . S
H3376 N3371 0.984 . S
H3377 N3371 0.985 . S
H3378 N3375 0.984 . S
H3379 N3375 0.985 . S
H3380 N3374 0.984 . S
H3381 N3374 0.984 . S
H3382 N3370 0.984 . S
H3383 N3370 0.985 . S
C3384 C3385 1.363 . S
C3384 C3390 1.379 . S
C3384 N3392 1.356 . S
C3385 C3384 1.363 . S
C3385 C3391 1.363 . S
C3386 C3387 1.363 . S
C3386 C3391 1.379 . S
C3386 N3393 1.356 . S
C3387 C3386 1.363 . S
C3387 C3390 1.363 . S
N3388 C3390 1.356 . S
N3388 H3400 0.984 . S
N3388 H3401 0.985 . S
N3389 C3391 1.356 . S
N3389 H3394 0.984 . S
N3389 H3395 0.985 . S
C3390 C3384 1.379 . S
C3390 C3387 1.363 . S
C3390 N3388 1.356 . S
C3391 C3385 1.363 . S
C3391 C3386 1.379 . S
C3391 N3389 1.356 . S
N3392 C3384 1.356 . S
N3392 H3398 0.984 . S
N3392 H3399 0.984 . S
N3393 C3386 1.356 . S
N3393 H3396 0.984 . S
N3393 H3397 0.985 . S
H3394 N3389 0.984 . S
H3395 N3389 0.985 . S
H3396 N3393 0.984 . S
H3397 N3393 0.985 . S
H3398 N3392 0.984 . S
H3399 N3392 0.984 . S
H3400 N3388 0.984 . S
H3401 N3388 0.985 . S
C3402 C3403 1.363 . S
C3402 C3408 1.379 . S
C3402 N3410 1.356 . S
C3403 C3402 1.363 . S
C3403 C3409 1.363 . S
C3404 C3405 1.363 . S
C3404 C3409 1.379 . S
C3404 N3411 1.356 . S
C3405 C3404 1.363 . S
C3405 C3408 1.363 . S
N3406 C3408 1.356 . S
N3406 H3418 0.984 . S
N3406 H3419 0.985 . S
N3407 C3409 1.356 . S
N3407 H3412 0.984 . S
N3407 H3413 0.985 . S
C3408 C3402 1.379 . S
C3408 C3405 1.363 . S
C3408 N3406 1.356 . S
C3409 C3403 1.363 . S
C3409 C3404 1.379 . S
C3409 N3407 1.356 . S
N3410 C3402 1.356 . S
N3410 H3416 0.984 . S
N3410 H3417 0.984 . S
N3411 C3404 1.356 . S
N3411 H3414 0.984 . S
N3411 H3415 0.985 . S
H3412 N3407 0.984 . S
H3413 N3407 0.985 . S
H3414 N3411 0.984 . S
H3415 N3411 0.985 . S
H3416 N3410 0.984 . S
H3417 N3410 0.984 . S
H3418 N3406 0.984 . S
H3419 N3406 0.985 . S
C3420 C3421 1.363 . S
C3420 C3426 1.379 . S
C3420 N3428 1.356 . S
C3421 C3420 1.363 . S
C3421 C3427 1.363 . S
C3422 C3423 1.363 . S
C3422 C3427 1.379 . S
C3422 N3429 1.356 . S
C3423 C3422 1.363 . S
C3423 C3426 1.363 . S
N3424 C3426 1.356 . S
N3424 H3436 0.984 . S
N3424 H3437 0.985 . S
N3425 C3427 1.356 . S
N3425 H3430 0.984 . S
N3425 H3431 0.985 . S
C3426 C3420 1.379 . S
C3426 C3423 1.363 . S
C3426 N3424 1.356 . S
C3427 C3421 1.363 . S
C3427 C3422 1.379 . S
C3427 N3425 1.356 . S
N3428 C3420 1.356 . S
N3428 H3434 0.984 . S
N3428 H3435 0.984 . S
N3429 C3422 1.356 . S
N3429 H3432 0.984 . S
N3429 H3433 0.985 . S
H3430 N3425 0.984 . S
H3431 N3425 0.985 . S
H3432 N3429 0.984 . S
H3433 N3429 0.985 . S
H3434 N3428 0.984 . S
H3435 N3428 0.984 . S
H3436 N3424 0.984 . S
H3437 N3424 0.985 . S
C3438 C3439 1.363 . S
C3438 C3444 1.379 . S
C3438 N3446 1.356 . S
C3439 C3438 1.363 . S
C3439 C3445 1.363 . S
C3440 C3441 1.363 . S
C3440 C3445 1.379 . S
C3440 N3447 1.356 . S
C3441 C3440 1.363 . S
C3441 C3444 1.363 . S
N3442 C3444 1.356 . S
N3442 H3454 0.984 . S
N3442 H3455 0.985 . S
N3443 C3445 1.356 . S
N3443 H3448 0.984 . S
N3443 H3449 0.985 . S
C3444 C3438 1.379 . S
C3444 C3441 1.363 . S
C3444 N3442 1.356 . S
C3445 C3439 1.363 . S
C3445 C3440 1.379 . S
C3445 N3443 1.356 . S
N3446 C3438 1.356 . S
N3446 H3452 0.984 . S
N3446 H3453 0.984 . S
N3447 C3440 1.356 . S
N3447 H3450 0.984 . S
N3447 H3451 0.985 . S
H3448 N3443 0.984 . S
H3449 N3443 0.985 . S
H3450 N3447 0.984 . S
H3451 N3447 0.985 . S
H3452 N3446 0.984 . S
H3453 N3446 0.984 . S
H3454 N3442 0.984 . S
H3455 N3442 0.985 . S
C3456 C3457 1.363 . S
C3456 C3462 1.379 . S
C3456 N3464 1.356 . S
C3457 C3456 1.363 . S
C3457 C3463 1.363 . S
C3458 C3459 1.363 . S
C3458 C3463 1.379 . S
C3458 N3465 1.356 . S
C3459 C3458 1.363 . S
C3459 C3462 1.363 . S
N3460 C3462 1.356 . S
N3460 H3472 0.984 . S
N3460 H3473 0.985 . S
N3461 C3463 1.356 . S
N3461 H3466 0.984 . S
N3461 H3467 0.985 . S
C3462 C3456 1.379 . S
C3462 C3459 1.363 . S
C3462 N3460 1.356 . S
C3463 C3457 1.363 . S
C3463 C3458 1.379 . S
C3463 N3461 1.356 . S
N3464 C3456 1.356 . S
N3464 H3470 0.984 . S
N3464 H3471 0.984 . S
N3465 C3458 1.356 . S
N3465 H3468 0.984 . S
N3465 H3469 0.985 . S
H3466 N3461 0.984 . S
H3467 N3461 0.985 . S
H3468 N3465 0.984 . S
H3469 N3465 0.985 . S
H3470 N3464 0.984 . S
H3471 N3464 0.984 . S
H3472 N3460 0.984 . S
H3473 N3460 0.985 . S
C3474 C3475 1.363 . S
C3474 C3480 1.379 . S
C3474 N3482 1.356 . S
C3475 C3474 1.363 . S
C3475 C3481 1.363 . S
C3476 C3477 1.363 . S
C3476 C3481 1.379 . S
C3476 N3483 1.356 . S
C3477 C3476 1.363 . S
C3477 C3480 1.363 . S
N3478 C3480 1.356 . S
N3478 H3490 0.984 . S
N3478 H3491 0.985 . S
N3479 C3481 1.356 . S
N3479 H3484 0.984 . S
N3479 H3485 0.985 . S
C3480 C3474 1.379 . S
C3480 C3477 1.363 . S
C3480 N3478 1.356 . S
C3481 C3475 1.363 . S
C3481 C3476 1.379 . S
C3481 N3479 1.356 . S
N3482 C3474 1.356 . S
N3482 H3488 0.984 . S
N3482 H3489 0.984 . S
N3483 C3476 1.356 . S
N3483 H3486 0.984 . S
N3483 H3487 0.985 . S
H3484 N3479 0.984 . S
H3485 N3479 0.985 . S
H3486 N3483 0.984 . S
H3487 N3483 0.985 . S
H3488 N3482 0.984 . S
H3489 N3482 0.984 . S
H3490 N3478 0.984 . S
H3491 N3478 0.985 . S
C3492 C3493 1.363 . S
C3492 C3498 1.379 . S
C3492 N3500 1.356 . S
C3493 C3492 1.363 . S
C3493 C3499 1.363 . S
C3494 C3495 1.363 . S
C3494 C3499 1.379 . S
C3494 N3501 1.356 . S
C3495 C3494 1.363 . S
C3495 C3498 1.363 . S
N3496 C3498 1.356 . S
N3496 H3508 0.984 . S
N3496 H3509 0.985 . S
N3497 C3499 1.356 . S
N3497 H3502 0.984 . S
N3497 H3503 0.985 . S
C3498 C3492 1.379 . S
C3498 C3495 1.363 . S
C3498 N3496 1.356 . S
C3499 C3493 1.363 . S
C3499 C3494 1.379 . S
C3499 N3497 1.356 . S
N3500 C3492 1.356 . S
N3500 H3506 0.984 . S
N3500 H3507 0.984 . S
N3501 C3494 1.356 . S
N3501 H3504 0.984 . S
N3501 H3505 0.985 . S
H3502 N3497 0.984 . S
H3503 N3497 0.985 . S
H3504 N3501 0.984 . S
H3505 N3501 0.985 . S
H3506 N3500 0.984 . S
H3507 N3500 0.984 . S
H3508 N3496 0.984 . S
H3509 N3496 0.985 . S
C3510 C3511 1.363 . S
C3510 C3516 1.379 . S
C3510 N3518 1.356 . S
C3511 C3510 1.363 . S
C3511 C3517 1.363 . S
C3512 C3513 1.363 . S
C3512 C3517 1.379 . S
C3512 N3519 1.356 . S
C3513 C3512 1.363 . S
C3513 C3516 1.363 . S
N3514 C3516 1.356 . S
N3514 H3526 0.984 . S
N3514 H3527 0.985 . S
N3515 C3517 1.356 . S
N3515 H3520 0.984 . S
N3515 H3521 0.985 . S
C3516 C3510 1.379 . S
C3516 C3513 1.363 . S
C3516 N3514 1.356 . S
C3517 C3511 1.363 . S
C3517 C3512 1.379 . S
C3517 N3515 1.356 . S
N3518 C3510 1.356 . S
N3518 H3524 0.984 . S
N3518 H3525 0.984 . S
N3519 C3512 1.356 . S
N3519 H3522 0.984 . S
N3519 H3523 0.985 . S
H3520 N3515 0.984 . S
H3521 N3515 0.985 . S
H3522 N3519 0.984 . S
H3523 N3519 0.985 . S
H3524 N3518 0.984 . S
H3525 N3518 0.984 . S
H3526 N3514 0.984 . S
H3527 N3514 0.985 . S
C3528 C3529 1.363 . S
C3528 C3534 1.379 . S
C3528 N3536 1.356 . S
C3529 C3528 1.363 . S
C3529 C3535 1.363 . S
C3530 C3531 1.363 . S
C3530 C3535 1.379 . S
C3530 N3537 1.356 . S
C3531 C3530 1.363 . S
C3531 C3534 1.363 . S
N3532 C3534 1.356 . S
N3532 H3544 0.984 . S
N3532 H3545 0.985 . S
N3533 C3535 1.356 . S
N3533 H3538 0.984 . S
N3533 H3539 0.985 . S
C3534 C3528 1.379 . S
C3534 C3531 1.363 . S
C3534 N3532 1.356 . S
C3535 C3529 1.363 . S
C3535 C3530 1.379 . S
C3535 N3533 1.356 . S
N3536 C3528 1.356 . S
N3536 H3542 0.984 . S
N3536 H3543 0.984 . S
N3537 C3530 1.356 . S
N3537 H3540 0.984 . S
N3537 H3541 0.985 . S
H3538 N3533 0.984 . S
H3539 N3533 0.985 . S
H3540 N3537 0.984 . S
H3541 N3537 0.985 . S
H3542 N3536 0.984 . S
H3543 N3536 0.984 . S
H3544 N3532 0.984 . S
H3545 N3532 0.985 . S
C3546 C3547 1.363 . S
C3546 C3552 1.379 . S
C3546 N3554 1.356 . S
C3547 C3546 1.363 . S
C3547 C3553 1.363 . S
C3548 C3549 1.363 . S
C3548 C3553 1.379 . S
C3548 N3555 1.356 . S
C3549 C3548 1.363 . S
C3549 C3552 1.363 . S
N3550 C3552 1.356 . S
N3550 H3562 0.984 . S
N3550 H3563 0.985 . S
N3551 C3553 1.356 . S
N3551 H3556 0.984 . S
N3551 H3557 0.985 . S
C3552 C3546 1.379 . S
C3552 C3549 1.363 . S
C3552 N3550 1.356 . S
C3553 C3547 1.363 . S
C3553 C3548 1.379 . S
C3553 N3551 1.356 . S
N3554 C3546 1.356 . S
N3554 H3560 0.984 . S
N3554 H3561 0.984 . S
N3555 C3548 1.356 . S
N3555 H3558 0.984 . S
N3555 H3559 0.985 . S
H3556 N3551 0.984 . S
H3557 N3551 0.985 . S
H3558 N3555 0.984 . S
H3559 N3555 0.985 . S
H3560 N3554 0.984 . S
H3561 N3554 0.984 . S
H3562 N3550 0.984 . S
H3563 N3550 0.985 . S
C3564 C3565 1.363 . S
C3564 C3570 1.379 . S
C3564 N3572 1.356 . S
C3565 C3564 1.363 . S
C3565 C3571 1.363 . S
C3566 C3567 1.363 . S
C3566 C3571 1.379 . S
C3566 N3573 1.356 . S
C3567 C3566 1.363 . S
C3567 C3570 1.363 . S
N3568 C3570 1.356 . S
N3568 H3580 0.984 . S
N3568 H3581 0.985 . S
N3569 C3571 1.356 . S
N3569 H3574 0.984 . S
N3569 H3575 0.985 . S
C3570 C3564 1.379 . S
C3570 C3567 1.363 . S
C3570 N3568 1.356 . S
C3571 C3565 1.363 . S
C3571 C3566 1.379 . S
C3571 N3569 1.356 . S
N3572 C3564 1.356 . S
N3572 H3578 0.984 . S
N3572 H3579 0.984 . S
N3573 C3566 1.356 . S
N3573 H3576 0.984 . S
N3573 H3577 0.985 . S
H3574 N3569 0.984 . S
H3575 N3569 0.985 . S
H3576 N3573 0.984 . S
H3577 N3573 0.985 . S
H3578 N3572 0.984 . S
H3579 N3572 0.984 . S
H3580 N3568 0.984 . S
H3581 N3568 0.985 . S
C3582 C3583 1.363 . S
C3582 C3588 1.379 . S
C3582 N3590 1.356 . S
C3583 C3582 1.363 . S
C3583 C3589 1.363 . S
C3584 C3585 1.363 . S
C3584 C3589 1.379 . S
C3584 N3591 1.356 . S
C3585 C3584 1.363 . S
C3585 C3588 1.363 . S
N3586 C3588 1.356 . S
N3586 H3598 0.984 . S
N3586 H3599 0.985 . S
N3587 C3589 1.356 . S
N3587 H3592 0.984 . S
N3587 H3593 0.985 . S
C3588 C3582 1.379 . S
C3588 C3585 1.363 . S
C3588 N3586 1.356 . S
C3589 C3583 1.363 . S
C3589 C3584 1.379 . S
C3589 N3587 1.356 . S
N3590 C3582 1.356 . S
N3590 H3596 0.984 . S
N3590 H3597 0.984 . S
N3591 C3584 1.356 . S
N3591 H3594 0.984 . S
N3591 H3595 0.985 . S
H3592 N3587 0.984 . S
H3593 N3587 0.985 . S
H3594 N3591 0.984 . S
H3595 N3591 0.985 . S
H3596 N3590 0.984 . S
H3597 N3590 0.984 . S
H3598 N3586 0.984 . S
H3599 N3586 0.985 . S
C3600 C3601 1.363 . S
C3600 C3606 1.379 . S
C3600 N3608 1.356 . S
C3601 C3600 1.363 . S
C3601 C3607 1.363 . S
C3602 C3603 1.363 . S
C3602 C3607 1.379 . S
C3602 N3609 1.356 . S
C3603 C3602 1.363 . S
C3603 C3606 1.363 . S
N3604 C3606 1.356 . S
N3604 H3616 0.984 . S
N3604 H3617 0.985 . S
N3605 C3607 1.356 . S
N3605 H3610 0.984 . S
N3605 H3611 0.985 . S
C3606 C3600 1.379 . S
C3606 C3603 1.363 . S
C3606 N3604 1.356 . S
C3607 C3601 1.363 . S
C3607 C3602 1.379 . S
C3607 N3605 1.356 . S
N3608 C3600 1.356 . S
N3608 H3614 0.984 . S
N3608 H3615 0.984 . S
N3609 C3602 1.356 . S
N3609 H3612 0.984 . S
N3609 H3613 0.985 . S
H3610 N3605 0.984 . S
H3611 N3605 0.985 . S
H3612 N3609 0.984 . S
H3613 N3609 0.985 . S
H3614 N3608 0.984 . S
H3615 N3608 0.984 . S
H3616 N3604 0.984 . S
H3617 N3604 0.985 . S
C3618 C3619 1.363 . S
C3618 C3624 1.379 . S
C3618 N3626 1.356 . S
C3619 C3618 1.363 . S
C3619 C3625 1.363 . S
C3620 C3621 1.363 . S
C3620 C3625 1.379 . S
C3620 N3627 1.356 . S
C3621 C3620 1.363 . S
C3621 C3624 1.363 . S
N3622 C3624 1.356 . S
N3622 H3634 0.984 . S
N3622 H3635 0.985 . S
N3623 C3625 1.356 . S
N3623 H3628 0.984 . S
N3623 H3629 0.985 . S
C3624 C3618 1.379 . S
C3624 C3621 1.363 . S
C3624 N3622 1.356 . S
C3625 C3619 1.363 . S
C3625 C3620 1.379 . S
C3625 N3623 1.356 . S
N3626 C3618 1.356 . S
N3626 H3632 0.984 . S
N3626 H3633 0.984 . S
N3627 C3620 1.356 . S
N3627 H3630 0.984 . S
N3627 H3631 0.985 . S
H3628 N3623 0.984 . S
H3629 N3623 0.985 . S
H3630 N3627 0.984 . S
H3631 N3627 0.985 . S
H3632 N3626 0.984 . S
H3633 N3626 0.984 . S
H3634 N3622 0.984 . S
H3635 N3622 0.985 . S
C3636 C3637 1.363 . S
C3636 C3642 1.379 . S
C3636 N3644 1.356 . S
C3637 C3636 1.363 . S
C3637 C3643 1.363 . S
C3638 C3639 1.363 . S
C3638 C3643 1.379 . S
C3638 N3645 1.356 . S
C3639 C3638 1.363 . S
C3639 C3642 1.363 . S
N3640 C3642 1.356 . S
N3640 H3652 0.984 . S
N3640 H3653 0.985 . S
N3641 C3643 1.356 . S
N3641 H3646 0.984 . S
N3641 H3647 0.985 . S
C3642 C3636 1.379 . S
C3642 C3639 1.363 . S
C3642 N3640 1.356 . S
C3643 C3637 1.363 . S
C3643 C3638 1.379 . S
C3643 N3641 1.356 . S
N3644 C3636 1.356 . S
N3644 H3650 0.984 . S
N3644 H3651 0.984 . S
N3645 C3638 1.356 . S
N3645 H3648 0.984 . S
N3645 H3649 0.985 . S
H3646 N3641 0.984 . S
H3647 N3641 0.985 . S
H3648 N3645 0.984 . S
H3649 N3645 0.985 . S
H3650 N3644 0.984 . S
H3651 N3644 0.984 . S
H3652 N3640 0.984 . S
H3653 N3640 0.985 . S
C3654 C3655 1.363 . S
C3654 C3660 1.379 . S
C3654 N3662 1.356 . S
C3655 C3654 1.363 . S
C3655 C3661 1.363 . S
C3656 C3657 1.363 . S
C3656 C3661 1.379 . S
C3656 N3663 1.356 . S
C3657 C3656 1.363 . S
C3657 C3660 1.363 . S
N3658 C3660 1.356 . S
N3658 H3670 0.984 . S
N3658 H3671 0.985 . S
N3659 C3661 1.356 . S
N3659 H3664 0.984 . S
N3659 H3665 0.985 . S
C3660 C3654 1.379 . S
C3660 C3657 1.363 . S
C3660 N3658 1.356 . S
C3661 C3655 1.363 . S
C3661 C3656 1.379 . S
C3661 N3659 1.356 . S
N3662 C3654 1.356 . S
N3662 H3668 0.984 . S
N3662 H3669 0.984 . S
N3663 C3656 1.356 . S
N3663 H3666 0.984 . S
N3663 H3667 0.985 . S
H3664 N3659 0.984 . S
H3665 N3659 0.985 . S
H3666 N3663 0.984 . S
H3667 N3663 0.985 . S
H3668 N3662 0.984 . S
H3669 N3662 0.984 . S
H3670 N3658 0.984 . S
H3671 N3658 0.985 . S
C3672 C3673 1.363 . S
C3672 C3678 1.379 . S
C3672 N3680 1.356 . S
C3673 C3672 1.363 . S
C3673 C3679 1.363 . S
C3674 C3675 1.363 . S
C3674 C3679 1.379 . S
C3674 N3681 1.356 . S
C3675 C3674 1.363 . S
C3675 C3678 1.363 . S
N3676 C3678 1.356 . S
N3676 H3688 0.984 . S
N3676 H3689 0.985 . S
N3677 C3679 1.356 . S
N3677 H3682 0.984 . S
N3677 H3683 0.985 . S
C3678 C3672 1.379 . S
C3678 C3675 1.363 . S
C3678 N3676 1.356 . S
C3679 C3673 1.363 . S
C3679 C3674 1.379 . S
C3679 N3677 1.356 . S
N3680 C3672 1.356 . S
N3680 H3686 0.984 . S
N3680 H3687 0.984 . S
N3681 C3674 1.356 . S
N3681 H3684 0.984 . S
N3681 H3685 0.985 . S
H3682 N3677 0.984 . S
H3683 N3677 0.985 . S
H3684 N3681 0.984 . S
H3685 N3681 0.985 . S
H3686 N3680 0.984 . S
H3687 N3680 0.984 . S
H3688 N3676 0.984 . S
H3689 N3676 0.985 . S
C3690 C3691 1.363 . S
C3690 C3696 1.379 . S
C3690 N3698 1.356 . S
C3691 C3690 1.363 . S
C3691 C3697 1.363 . S
C3692 C3693 1.363 . S
C3692 C3697 1.379 . S
C3692 N3699 1.356 . S
C3693 C3692 1.363 . S
C3693 C3696 1.363 . S
N3694 C3696 1.356 . S
N3694 H3706 0.984 . S
N3694 H3707 0.985 . S
N3695 C3697 1.356 . S
N3695 H3700 0.984 . S
N3695 H3701 0.985 . S
C3696 C3690 1.379 . S
C3696 C3693 1.363 . S
C3696 N3694 1.356 . S
C3697 C3691 1.363 . S
C3697 C3692 1.379 . S
C3697 N3695 1.356 . S
N3698 C3690 1.356 . S
N3698 H3704 0.984 . S
N3698 H3705 0.984 . S
N3699 C3692 1.356 . S
N3699 H3702 0.984 . S
N3699 H3703 0.985 . S
H3700 N3695 0.984 . S
H3701 N3695 0.985 . S
H3702 N3699 0.984 . S
H3703 N3699 0.985 . S
H3704 N3698 0.984 . S
H3705 N3698 0.984 . S
H3706 N3694 0.984 . S
H3707 N3694 0.985 . S
C3708 C3709 1.363 . S
C3708 C3714 1.379 . S
C3708 N3716 1.356 . S
C3709 C3708 1.363 . S
C3709 C3715 1.363 . S
C3710 C3711 1.363 . S
C3710 C3715 1.379 . S
C3710 N3717 1.356 . S
C3711 C3710 1.363 . S
C3711 C3714 1.363 . S
N3712 C3714 1.356 . S
N3712 H3724 0.984 . S
N3712 H3725 0.985 . S
N3713 C3715 1.356 . S
N3713 H3718 0.984 . S
N3713 H3719 0.985 . S
C3714 C3708 1.379 . S
C3714 C3711 1.363 . S
C3714 N3712 1.356 . S
C3715 C3709 1.363 . S
C3715 C3710 1.379 . S
C3715 N3713 1.356 . S
N3716 C3708 1.356 . S
N3716 H3722 0.984 . S
N3716 H3723 0.984 . S
N3717 C3710 1.356 . S
N3717 H3720 0.984 . S
N3717 H3721 0.985 . S
H3718 N3713 0.984 . S
H3719 N3713 0.985 . S
H3720 N3717 0.984 . S
H3721 N3717 0.985 . S
H3722 N3716 0.984 . S
H3723 N3716 0.984 . S
H3724 N3712 0.984 . S
H3725 N3712 0.985 . S
C3726 C3727 1.363 . S
C3726 C3732 1.379 . S
C3726 N3734 1.356 . S
C3727 C3726 1.363 . S
C3727 C3733 1.363 . S
C3728 C3729 1.363 . S
C3728 C3733 1.379 . S
C3728 N3735 1.356 . S
C3729 C3728 1.363 . S
C3729 C3732 1.363 . S
N3730 C3732 1.356 . S
N3730 H3742 0.984 . S
N3730 H3743 0.985 . S
N3731 C3733 1.356 . S
N3731 H3736 0.984 . S
N3731 H3737 0.985 . S
C3732 C3726 1.379 . S
C3732 C3729 1.363 . S
C3732 N3730 1.356 . S
C3733 C3727 1.363 . S
C3733 C3728 1.379 . S
C3733 N3731 1.356 . S
N3734 C3726 1.356 . S
N3734 H3740 0.984 . S
N3734 H3741 0.984 . S
N3735 C3728 1.356 . S
N3735 H3738 0.984 . S
N3735 H3739 0.985 . S
H3736 N3731 0.984 . S
H3737 N3731 0.985 . S
H3738 N3735 0.984 . S
H3739 N3735 0.985 . S
H3740 N3734 0.984 . S
H3741 N3734 0.984 . S
H3742 N3730 0.984 . S
H3743 N3730 0.985 . S
C1585 C1044 1.528 . S
C1587 C21 1.528 . S
C1603 C54 1.528 . S
C1605 C945 1.528 . S
C1621 C87 1.528 . S
C1623 C978 1.528 . S
C1639 C1011 1.528 . S
C1641 C120 1.528 . S
C1657 C846 1.528 . S
C1659 C153 1.528 . S
C1675 C879 1.528 . S
C1677 C186 1.528 . S
C1693 C219 1.528 . S
C1695 C912 1.528 . S
C1711 C252 1.528 . S
C1713 C813 1.528 . S
C1729 C285 1.528 . S
C1731 C1473 1.528 . S
C1747 C318 1.528 . S
C1749 C1374 1.528 . S
C1765 C351 1.528 . S
C1767 C1407 1.528 . S
C1783 C384 1.528 . S
C1785 C1440 1.528 . S
C1801 C1572 1.528 . S
C1803 C417 1.528 . S
C1819 C450 1.528 . S
C1821 C1506 1.528 . S
C1837 C483 1.528 . S
C1839 C1539 1.528 . S
C1855 C1341 1.528 . S
C1857 C516 1.528 . S
C1873 C549 1.528 . S
C1875 C1308 1.528 . S
C1891 C1110 1.528 . S
C1893 C582 1.528 . S
C1909 C1143 1.528 . S
C1911 C615 1.528 . S
C1927 C1176 1.528 . S
C1929 C648 1.528 . S
C1945 C681 1.528 . S
C1947 C1077 1.528 . S
C1963 C714 1.528 . S
C1965 C1242 1.528 . S
C1981 C1275 1.528 . S
C1983 C747 1.528 . S
C1999 C780 1.528 . S
C2001 C1209 1.528 . S
C2017 C73 1.316 . S
C2019 C7 1.316 . S
C2035 C40 1.316 . S
C2037 C106 1.316 . S
C2053 C205 1.316 . S
C2055 C139 1.316 . S
C2071 C238 1.316 . S
C2073 C172 1.316 . S
C2089 C271 1.316 . S
C2091 C403 1.316 . S
C2107 C436 1.316 . S
C2109 C304 1.316 . S
C2125 C469 1.316 . S
C2127 C337 1.316 . S
C2143 C502 1.316 . S
C2145 C370 1.316 . S
C2161 C634 1.316 . S
C2163 C535 1.316 . S
C2179 C568 1.316 . S
C2181 C700 1.316 . S
C2197 C601 1.316 . S
C2199 C733 1.316 . S
C2215 C667 1.316 . S
C2217 C766 1.316 . S
C2233 C865 1.316 . S
C2235 C799 1.316 . S
C2251 C898 1.316 . S
C2253 C832 1.316 . S
C2269 C997 1.316 . S
C2271 C931 1.316 . S
C2287 C1030 1.316 . S
C2289 C964 1.316 . S
C2305 C1063 1.316 . S
C2307 C1195 1.316 . S
C2323 C1096 1.316 . S
C2325 C1228 1.316 . S
C2341 C1261 1.316 . S
C2343 C1129 1.316 . S
C2359 C1294 1.316 . S
C2361 C1162 1.316 . S
C2377 C1327 1.316 . S
C2379 C1426 1.316 . S
C2395 C1492 1.316 . S
C2397 C1360 1.316 . S
C2413 C1525 1.316 . S
C2415 C1393 1.316 . S
C2431 C1558 1.316 . S
C2433 C1459 1.316 . S
C2449 N739 0.905 . S
C2451 N13 0.905 . S
C2467 N46 0.905 . S
C2469 N541 0.905 . S
C2485 N79 0.905 . S
C2487 N772 0.905 . S
C2503 N112 0.905 . S
C2505 N706 0.905 . S
C2521 N145 0.905 . S
C2523 N607 0.905 . S
C2539 N640 0.905 . S
C2541 N178 0.905 . S
C2557 N211 0.905 . S
C2559 N673 0.905 . S
C2575 N244 0.905 . S
C2577 N574 0.905 . S
C2593 N277 0.905 . S
C2595 N442 0.905 . S
C2611 N475 0.905 . S
C2613 N310 0.905 . S
C2629 N508 0.905 . S
C2631 N343 0.905 . S
C2647 N409 0.905 . S
C2649 N376 0.905 . S
C2665 N805 0.905 . S
C2667 N1531 0.905 . S
C2683 N1333 0.905 . S
C2685 N838 0.905 . S
C2701 N1564 0.905 . S
C2703 N871 0.905 . S
C2719 N904 0.905 . S
C2721 N1498 0.905 . S
C2737 N1399 0.905 . S
C2739 N937 0.905 . S
C2755 N1432 0.905 . S
C2757 N970 0.905 . S
C2773 N1465 0.905 . S
C2775 N1003 0.905 . S
C2791 N1036 0.905 . S
C2793 N1366 0.905 . S
C2809 N1069 0.905 . S
C2811 N1234 0.905 . S
C2827 N1102 0.905 . S
C2829 N1267 0.905 . S
C2845 N1300 0.905 . S
C2847 N1135 0.905 . S
C2863 N1201 0.905 . S
C2865 N1168 0.905 . S
C2881 C18 2.162 . S
C2883 N596 1.933 . S
C2899 N629 1.933 . S
C2901 C51 2.162 . S
C2917 C84 2.162 . S
C2919 N662 1.933 . S
C2935 N563 1.933 . S
C2937 C117 2.162 . S
C2953 C150 2.162 . S
C2955 N728 1.933 . S
C2971 N530 1.933 . S
C2973 C183 2.162 . S
C2989 N761 1.933 . S
C2991 C216 2.162 . S
C3007 C249 2.162 . S
C3009 N695 1.933 . S
C3025 N299 1.933 . S
C3027 C282 2.162 . S
C3043 C315 2.162 . S
C3045 N332 1.933 . S
C3061 C348 2.162 . S
C3063 N365 1.933 . S
C3079 N266 1.933 . S
C3081 C381 2.162 . S
C3097 C414 2.162 . S
C3099 N497 1.933 . S
C3115 C447 2.162 . S
C3117 N398 1.933 . S
C3133 C480 2.162 . S
C3135 N431 1.933 . S
C3151 N464 1.933 . S
C3153 C513 2.162 . S
C3169 N101 1.933 . S
C3171 C546 2.162 . S
C3187 C579 2.162 . S
C3189 N167 1.933 . S
C3205 N200 1.933 . S
C3207 C612 2.162 . S
C3223 N233 1.933 . S
C3225 C645 2.162 . S
C3241 C678 2.162 . S
C3243 N134 1.933 . S
C3259 N35 1.933 . S
C3261 C711 2.162 . S
C3277 C744 2.162 . S
C3279 N68 1.933 . S
C3295 N2 1.933 . S
C3297 C777 2.162 . S
C3313 C810 2.162 . S
C3315 N1388 1.933 . S
C3331 N1421 1.933 . S
C3333 C843 2.162 . S
C3349 C876 2.162 . S
C3351 N1454 1.933 . S
C3367 N1355 1.933 . S
C3369 C909 2.162 . S
C3385 C942 2.162 . S
C3387 N1520 1.933 . S
C3403 C975 2.162 . S
C3405 N1322 1.933 . S
C3421 C1008 2.162 . S
C3423 N1553 1.933 . S
C3439 N1487 1.933 . S
C3441 C1041 2.162 . S
C3457 C1074 2.162 . S
C3459 N1091 1.933 . S
C3475 N1124 1.933 . S
C3477 C1107 2.162 . S
C3493 N1157 1.933 . S
C3495 C1140 2.162 . S
C3511 C1173 2.162 . S
C3513 N1058 1.933 . S
C3529 C1206 2.162 . S
C3531 N1289 1.933 . S
C3547 C1239 2.162 . S
C3549 N1190 1.933 . S
C3565 C1272 2.162 . S
C3567 N1223 1.933 . S
C3583 C1305 2.162 . S
C3585 N1256 1.933 . S
C3601 C1338 2.162 . S
C3603 N893 1.933 . S
C3619 N959 1.933 . S
C3621 C1371 2.162 . S
C3637 N992 1.933 . S
C3639 C1404 2.162 . S
C3655 N1025 1.933 . S
C3657 C1437 2.162 . S
C3673 N926 1.933 . S
C3675 C1470 2.162 . S
C3691 N827 1.933 . S
C3693 C1503 2.162 . S
C3709 N860 1.933 . S
C3711 C1536 2.162 . S
C3727 N794 1.933 . S
C3729 C1569 2.162 . S
