# Generated by pormake.
# Topology sml, (6)-cn, num edge types: 1
# Building blocks:
#     Node 0, Type 0, BuildingBlock: KUMBUR_clean_sbu_0, # of connection points: 6
#     Node 1, Type 0, BuildingBlock: KUMBUR_clean_sbu_0, # of connection points: 6
#     Node 2, Type 0, BuildingBlock: KUMBUR_clean_sbu_0, # of connection points: 6
#     Node 3, Type 0, BuildingBlock: KUMBUR_clean_sbu_0, # of connection points: 6
#     Node 4, Type 0, BuildingBlock: KUMBUR_clean_sbu_0, # of connection points: 6
#     Node 5, Type 0, BuildingBlock: KUMBUR_clean_sbu_0, # of connection points: 6
#     Edge 6, Type (0, 0), BuildingBlock: OJICUG_clean_linker_0, # of connection points: 2
#     Edge 7, Type (0, 0), BuildingBlock: OJICUG_clean_linker_0, # of connection points: 2
#     Edge 8, Type (0, 0), BuildingBlock: OJICUG_clean_linker_0, # of connection points: 2
#     Edge 9, Type (0, 0), BuildingBlock: OJICUG_clean_linker_0, # of connection points: 2
#     Edge 10, Type (0, 0), BuildingBlock: OJICUG_clean_linker_0, # of connection points: 2
#     Edge 11, Type (0, 0), BuildingBlock: OJICUG_clean_linker_0, # of connection points: 2
#     Edge 12, Type (0, 0), BuildingBlock: OJICUG_clean_linker_0, # of connection points: 2
#     Edge 13, Type (0, 0), BuildingBlock: OJICUG_clean_linker_0, # of connection points: 2
#     Edge 14, Type (0, 0), BuildingBlock: OJICUG_clean_linker_0, # of connection points: 2
#     Edge 15, Type (0, 0), BuildingBlock: OJICUG_clean_linker_0, # of connection points: 2
#     Edge 16, Type (0, 0), BuildingBlock: OJICUG_clean_linker_0, # of connection points: 2
#     Edge 17, Type (0, 0), BuildingBlock: OJICUG_clean_linker_0, # of connection points: 2
#     Edge 18, Type (0, 0), BuildingBlock: OJICUG_clean_linker_0, # of connection points: 2
#     Edge 19, Type (0, 0), BuildingBlock: OJICUG_clean_linker_0, # of connection points: 2
#     Edge 20, Type (0, 0), BuildingBlock: OJICUG_clean_linker_0, # of connection points: 2
#     Edge 21, Type (0, 0), BuildingBlock: OJICUG_clean_linker_0, # of connection points: 2
#     Edge 22, Type (0, 0), BuildingBlock: OJICUG_clean_linker_0, # of connection points: 2
#     Edge 23, Type (0, 0), BuildingBlock: OJICUG_clean_linker_0, # of connection points: 2
# Relax obj value: 0.050
# Max RMSD: 0.176
# Mean RMSD: 0.176
data_MOF--net-sml--node1-KUMBUR_clean_sbu_0--edge1-OJICUG_clean_linker_0
_symmetry_space_group_name_H-M    P1
_symmetry_Int_Tables_number       1
_symmetry_cell_setting            triclinic
loop_
_symmetry_equiv_pos_as_xyz
'x, y, z'
_cell_length_a     23.06607
_cell_length_b     23.166919
_cell_length_c     18.452795
_cell_angle_alpha  90.219201
_cell_angle_beta   90.09574
_cell_angle_gamma 120.10941
loop_
_atom_site_label
_atom_site_type_symbol
_atom_site_fract_x
_atom_site_fract_y
_atom_site_fract_z
_atom_type_partial_charge
Tb0 Tb 0.10668 0.38756 1.01274 0.0
C1 C 0.24461 0.26943 0.10791 0.0
C2 C 0.15879 0.17288 0.16984 0.0
C3 C 0.23805 0.16166 0.09399 0.0
C4 C 0.18938 0.24129 0.1515 0.0
C5 C 0.27271 0.23099 0.08393 0.0
C6 C 0.18026 0.13231 0.13649 0.0
C7 C 0.37505 0.33324 0.06428 0.0
N8 N 0.27684 0.33655 0.09868 0.0
C9 C 0.34275 0.36911 0.08001 0.0
C10 C 0.33796 0.26429 0.05835 0.0
Tb11 Tb 0.22629 0.39339 0.14091 0.0
N12 N 0.17484 0.28373 0.18691 0.0
C13 C 0.14126 0.26236 0.25199 0.0
C14 C 0.11354 0.14915 0.22719 0.0
C15 C 0.10719 0.19481 0.27059 0.0
H16 H 0.37128 0.42281 0.08048 0.0
H17 H 0.07739 0.17837 0.3194 0.0
H18 H 0.15656 0.07959 0.14874 0.0
H19 H 0.42867 0.35857 1.05762 0.0
H20 H 0.13896 0.2968 0.29001 0.0
H21 H 0.19657 0.65031 1.02734 0.0
H22 H 0.0889 0.09716 0.2429 0.0
H23 H 0.965 0.23752 1.032 0.0
H24 H 0.19251 0.55286 0.97654 0.0
H25 H 0.84894 0.18578 0.11188 0.0
H26 H 0.25817 0.13127 0.07396 0.0
H27 H 0.10979 0.64027 0.11194 0.0
H28 H 0.01565 0.57293 0.185 0.0
H29 H 0.36182 0.23726 1.04057 0.0
H30 H 0.84284 0.40431 0.20349 0.0
N31 N 0.09591 0.48297 1.01874 0.0
C32 C 0.14913 0.54536 1.00575 0.0
C33 C 0.10257 0.59671 0.08235 0.0
C34 C 0.04467 0.53508 0.09143 0.0
C35 C 0.15187 0.60243 1.03478 0.0
C36 C 0.03725 0.47844 1.03991 0.0
H37 H 0.79198 0.25838 0.16232 0.0
N38 N -0.00764 0.35004 1.01821 0.0
C39 C 0.87148 0.23738 0.09557 0.0
C40 C 0.97426 0.40961 1.02924 0.0
C41 C 0.94694 0.27149 1.04395 0.0
C42 C 0.83204 0.28213 0.1241 0.0
C43 C 0.86699 0.36776 0.10291 0.0
O44 O 0.04586 0.33497 0.92369 0.0
O45 O 0.18004 0.3578 1.036 0.0
O46 O 0.2869 0.44888 1.04358 0.0
O47 O 0.2088 0.46449 0.97911 0.0
O48 O 0.09074 0.28673 0.99706 0.0
O49 O 0.14443 0.42258 0.90754 0.0
O50 O 0.32079 0.46851 0.18044 0.0
O51 O 0.1565 0.42977 0.11735 0.0
O52 O 0.05718 0.31756 0.10571 0.0
O53 O 0.13155 0.36289 0.19983 0.0
O54 O 0.25241 0.49658 0.14972 0.0
O55 O 0.25595 0.3859 0.24633 0.0
C56 C 0.14984 0.29835 1.01308 0.0
C57 C 0.07968 0.366 0.79877 0.0
C58 C 0.12158 0.38846 0.67482 0.0
C59 C 0.1332 0.39938 0.74978 0.0
C60 C 0.0565 0.34516 0.64943 0.0
C61 C 0.01488 0.32265 0.77196 0.0
C62 C 0.0035 0.31247 0.69765 0.0
C63 C 0.27149 0.47843 0.9908 0.0
C64 C 0.09064 0.37461 0.87766 0.0
C65 C 0.87665 0.42319 0.15984 0.0
C66 C -0.00759 0.528 0.1506 0.0
C67 C 0.1955 0.49072 0.13384 0.0
C68 C 0.32344 0.48777 0.30817 0.0
C69 C 0.28938 0.46236 0.37417 0.0
C70 C 0.30225 0.50446 0.43472 0.0
C71 C 0.35032 0.57243 0.42874 0.0
C72 C 0.37189 0.5557 0.30415 0.0
C73 C 0.38483 0.59766 0.36397 0.0
C74 C 0.07098 0.31952 0.17561 0.0
C75 C 0.31058 0.44304 0.24493 0.0
H76 H 0.18348 0.43292 0.76962 0.0
H77 H 0.04674 0.33703 0.59219 0.0
H78 H 0.97287 0.29658 0.8084 0.0
H79 H 0.95352 0.27901 0.67742 0.0
H80 H 0.25231 0.40992 0.3782 0.0
H81 H 0.36158 0.606 0.47435 0.0
H82 H 0.39988 0.57611 0.2548 0.0
H83 H 0.42177 0.65 0.36041 0.0
Tb84 Tb 0.69169 0.12232 0.3599 0.0
C85 C 0.97309 0.34805 0.46076 0.0
C86 C 0.03779 0.29223 0.45411 0.0
C87 C 0.0936 0.41219 0.44014 0.0
C88 C 0.97573 0.28986 0.46435 0.0
C89 C 0.03243 0.41003 0.45019 0.0
C90 C 0.09613 0.35334 0.44153 0.0
C91 C 0.96638 0.46368 0.45166 0.0
N92 N 0.91214 0.34354 0.46211 0.0
C93 C 0.90877 0.40125 0.45814 0.0
C94 C 0.02853 0.46811 0.44761 0.0
Tb95 Tb 0.82008 0.2383 0.48329 0.0
N96 N 0.91718 0.23074 0.47051 0.0
C97 C 0.91953 0.17247 0.46804 0.0
C98 C 0.03941 0.23299 0.45385 0.0
C99 C -0.02001 0.17292 0.46069 0.0
H100 H 0.86181 0.40068 0.46234 0.0
H101 H -0.01965 0.1264 0.45838 0.0
H102 H 0.14314 0.35519 0.43126 0.0
H103 H 0.96267 0.50841 0.45003 0.0
H104 H 0.87581 0.12401 0.46761 0.0
H105 H 0.57096 0.24322 0.24545 0.0
H106 H 0.08603 0.233 0.4465 0.0
H107 H 0.64954 0.06261 0.54491 0.0
H108 H 0.64128 0.23209 0.33467 0.0
H109 H 0.54733 0.01073 0.63826 0.0
H110 H 0.13878 0.45893 0.42889 0.0
H111 H 0.46176 0.14675 0.2198 0.0
H112 H 0.38573 0.09323 0.30951 0.0
H113 H 0.07324 0.51658 0.4427 0.0
H114 H 0.33869 -0.00993 0.49215 0.0
N115 N 0.59624 0.12711 0.32597 0.0
C116 C 0.60373 0.18782 0.30921 0.0
C117 C 0.49792 0.13969 0.2493 0.0
C118 C 0.47673 0.08676 0.29652 0.0
C119 C 0.5599 0.19432 0.26301 0.0
C120 C 0.53255 0.07213 0.32424 0.0
H121 H 0.4157 0.96584 0.60573 0.0
N122 N 0.59526 0.0508 0.43058 0.0
C123 C 0.53543 0.0095 0.58287 0.0
C124 C 0.52448 0.02407 0.3857 0.0
C125 C 0.60236 0.04468 0.51915 0.0
C126 C 0.45022 0.97499 0.56202 0.0
C127 C 0.42418 0.97255 0.47253 0.0
O128 O 0.65452 0.03773 0.29079 0.0
O129 O 0.79727 0.19219 0.37923 0.0
O130 O 0.79389 0.297 0.40435 0.0
O131 O 0.73365 0.22069 0.31297 0.0
O132 O 0.77624 0.10696 0.32723 0.0
O133 O 0.69968 0.13734 0.24779 0.0
O134 O 0.81632 0.31073 0.54725 0.0
O135 O 0.71536 0.19668 0.44812 0.0
O136 O 0.70903 0.05887 0.43211 0.0
O137 O 0.79123 0.13317 0.51484 0.0
O138 O 0.73847 0.18068 0.55253 0.0
O139 O 0.84437 0.2447 0.59583 0.0
C140 C 0.82505 0.16494 0.34596 0.0
C141 C 0.62912 0.05188 0.1669 0.0
C142 C 0.61883 0.05827 1.03466 0.0
C143 C 0.65685 0.08148 0.09924 0.0
C144 C 0.55331 0.00304 1.03916 0.0
C145 C 0.56254 -0.00012 0.16987 0.0
C146 C 0.52555 0.9747 0.10612 0.0
C147 C 0.76406 0.2819 0.33907 0.0
C148 C 0.67221 0.07439 0.23229 0.0
C149 C 0.37253 -0.00441 0.45061 0.0
C150 C 0.40928 0.06776 0.33665 0.0
C151 C 0.69339 0.18091 0.51234 0.0
C152 C 0.78287 0.28356 0.66903 0.0
C153 C 0.7674 0.23846 0.72771 0.0
C154 C 0.71579 0.22746 0.77782 0.0
C155 C 0.68457 0.26621 0.77035 0.0
C156 C 0.7512 0.32194 0.66608 0.0
C157 C 0.70323 0.31376 0.71643 0.0
C158 C 0.7488 0.07144 0.48919 0.0
C159 C 0.82895 0.29095 0.60792 0.0
H160 H 0.70763 0.12335 0.09731 0.0
H161 H 0.52306 0.98184 0.99088 0.0
H162 H 0.54004 0.97653 0.22094 0.0
H163 H 0.47539 0.93217 0.10867 0.0
H164 H 0.79301 0.21029 0.73208 0.0
H165 H 0.64531 0.26031 0.80676 0.0
H166 H 0.76163 0.35708 0.62289 0.0
H167 H 0.67879 0.34312 0.71215 0.0
Tb168 Tb 0.57342 0.70604 0.66977 0.0
C169 C 0.68096 0.95796 0.77795 0.0
C170 C 0.7831 0.97344 0.83185 0.0
C171 C 0.7847 0.06409 0.76537 0.0
C172 C 0.71413 0.93244 0.81544 0.0
C173 C 0.71479 0.02556 0.75775 0.0
C174 C 0.81912 0.03769 0.80221 0.0
C175 C 0.60772 0.01856 0.75072 0.0
N176 N 0.61342 0.91986 0.77255 0.0
C177 C 0.57639 0.95037 0.76493 0.0
C178 C 0.67652 0.05418 0.73899 0.0
Tb179 Tb 0.56471 0.8102 0.80463 0.0
N180 N 0.67583 0.87263 0.84765 0.0
C181 C 0.70151 0.85955 0.90894 0.0
C182 C 0.81182 0.95182 0.88383 0.0
C183 C 0.77009 0.89598 0.92485 0.0
H184 H 0.52294 0.92229 0.7721 0.0
H185 H 0.79036 0.88206 0.97002 0.0
H186 H 0.87224 0.0693 0.8129 0.0
H187 H 0.57872 0.04342 0.74795 0.0
H188 H 0.66982 0.82025 0.94593 0.0
H189 H 0.30803 0.54259 0.66947 0.0
H190 H 0.86449 0.98143 0.89779 0.0
H191 H 0.71946 0.70678 0.68487 0.0
H192 H 0.40929 0.63243 0.62051 0.0
H193 H 0.76533 0.64053 0.77014 0.0
H194 H 0.8117 0.11565 0.74815 0.0
H195 H 0.31071 0.46191 0.75275 0.0
H196 H 0.3739 0.4347 0.8306 0.0
H197 H 0.70028 0.10538 0.72291 0.0
H198 H 0.53976 0.42571 0.86166 0.0
N199 N 0.47471 0.60141 0.66663 0.0
C200 C 0.41383 0.5955 0.65087 0.0
C201 C 0.35603 0.49712 0.72481 0.0
C202 C 0.4162 0.49819 0.73651 0.0
C203 C 0.35437 0.54286 0.67784 0.0
C204 C 0.47507 0.54511 0.68682 0.0
H205 H 0.68657 0.51211 0.8223 0.0
N206 N 0.60525 0.6247 0.66927 0.0
C207 C 0.71354 0.61295 0.75282 0.0
C208 C 0.54275 0.54783 0.67966 0.0
C209 C 0.68328 0.65551 0.69758 0.0
C210 C 0.66498 0.52958 0.78244 0.0
C211 C 0.57919 0.48115 0.75872 0.0
O212 O 0.62776 0.69999 0.58192 0.0
O213 O 0.60258 0.80784 0.69883 0.0
O214 O 0.51419 0.82292 0.70874 0.0
O215 O 0.49869 0.73461 0.63491 0.0
O216 O 0.67491 0.79331 0.65871 0.0
O217 O 0.54122 0.71115 0.56491 0.0
O218 O 0.48496 0.81823 0.84973 0.0
O219 O 0.52764 0.70414 0.77691 0.0
O220 O 0.64787 0.72851 0.75959 0.0
O221 O 0.59821 0.7463 0.85726 0.0
O222 O 0.46014 0.73395 0.80279 0.0
O223 O 0.57302 0.84387 0.91164 0.0
C224 C 0.66278 0.83964 0.67779 0.0
C225 C 0.62873 0.76315 0.48086 0.0
C226 C 0.62459 0.8066 0.3627 0.0
C227 C 0.59246 0.76396 0.42096 0.0
C228 C 0.6937 0.85244 0.36722 0.0
C229 C 0.69815 0.80805 0.48448 0.0
C230 C 0.73011 0.85333 0.42829 0.0
C231 C 0.48466 0.78192 0.65276 0.0
C232 C 0.59248 0.71141 0.53526 0.0
C233 C 0.52185 0.43868 0.81514 0.0
C234 C 0.41986 0.454 0.79813 0.0
C235 C 0.46542 0.68226 0.79055 0.0
C236 C 0.47249 0.79573 0.9758 0.0
C237 C 0.50258 0.81181 1.04439 0.0
C238 C 0.46866 0.77389 0.10518 0.0
C239 C 0.40215 0.72164 0.09704 0.0
C240 C 0.40703 0.74161 0.96811 0.0
C241 C 0.37165 0.70558 1.02875 0.0
C242 C 0.64432 0.73451 0.83048 0.0
C243 C 0.51263 0.83395 0.91335 0.0
H244 H 0.53881 0.72964 0.41909 0.0
H245 H 0.71987 0.88597 0.32291 0.0
H246 H 0.72777 0.80781 0.52988 0.0
H247 H 0.78349 0.88802 0.43125 0.0
H248 H 0.55426 0.85156 1.04916 0.0
H249 H 0.37475 0.69225 0.14333 0.0
H250 H 0.38354 0.72624 0.91545 0.0
H251 H 0.32121 0.66404 1.02216 0.0
Tb252 Tb 0.83958 0.55118 1.02174 0.0
C253 C 0.6222 0.62177 0.12468 0.0
C254 C 0.6808 0.74094 0.10825 0.0
C255 C 0.55955 0.67786 0.09861 0.0
C256 C 0.68147 0.68115 0.12132 0.0
C257 C 0.56029 0.61946 0.11594 0.0
C258 C 0.61965 0.73886 0.09623 0.0
C259 C 0.50511 0.50162 0.13963 0.0
N260 N 0.62522 0.56545 0.1328 0.0
C261 C 0.56738 0.5056 0.14064 0.0
C262 C 0.50115 0.55844 0.12462 0.0
Tb263 Tb 0.72862 0.57388 0.14028 0.0
N264 N 0.73956 0.67946 0.12472 0.0
C265 C 0.79927 0.73854 0.11821 0.0
C266 C 0.74159 0.80055 0.10373 0.0
C267 C 0.80103 0.79927 0.10873 0.0
H268 H 0.56971 0.4612 0.15085 0.0
H269 H 0.84859 0.84503 0.10326 0.0
H270 H 0.61846 0.78388 0.08356 0.0
H271 H 0.46077 0.45477 0.15138 0.0
H272 H 0.84682 0.7409 0.11644 0.0
H273 H 0.71027 0.30559 0.90715 0.0
H274 H 0.74314 0.84748 0.09454 0.0
H275 H 0.87334 0.55647 0.20812 0.0
H276 H 0.71856 0.38856 0.98919 0.0
H277 H 0.92185 0.50662 0.31313 0.0
H278 H 0.51278 0.67612 0.08662 0.0
H279 H 0.80741 0.29224 0.88737 0.0
H280 H 0.85589 0.26736 0.98104 0.0
H281 H 0.45262 0.55504 0.12155 0.0
H282 H 0.95398 0.31979 0.16744 0.0
N283 N 0.82582 0.44663 0.99007 0.0
C284 C 0.76471 0.39453 0.96932 0.0
C285 C 0.81349 0.33472 0.91716 0.0
C286 C 0.86407 0.36493 0.96804 0.0
C287 C 0.75903 0.34317 0.92601 0.0
C288 C 0.87899 0.43507 0.99544 0.0
H289 H 0.97416 0.42407 0.28585 0.0
N290 N 0.89752 0.51825 0.10046 0.0
C291 C 0.92863 0.49804 0.2571 0.0
C292 C 0.92526 0.47418 0.0594 0.0
C293 C 0.89716 0.53018 0.18838 0.0
C294 C 0.96466 0.44739 0.24043 0.0
C295 C 0.97168 0.42413 0.15086 0.0
O296 O 0.93138 0.58178 0.96545 0.0
O297 O 0.774 0.5918 1.0375 0.0
O298 O 0.66401 0.50147 1.05288 0.0
O299 O 0.73914 0.49178 0.97505 0.0
O300 O 0.85713 0.64998 0.98113 0.0
O301 O 0.84133 0.56616 0.91169 0.0
O302 O 0.66974 0.54239 0.23458 0.0
O303 O 0.78151 0.52011 0.12226 0.0
O304 O 0.90781 0.6319 0.09092 0.0
O305 O 0.83584 0.64774 0.1684 0.0
O306 O 0.68238 0.46658 0.15003 0.0
O307 O 0.77663 0.58823 0.24113 0.0
C308 C 0.80099 0.64454 1.00096 0.0
C309 C 0.91466 0.55521 0.8367 0.0
C310 C 0.89171 0.54222 0.70622 0.0
C311 C 0.89414 0.57245 0.77303 0.0
C312 C 0.91023 0.49274 0.70473 0.0
C313 C 0.93478 0.5075 0.83402 0.0
C314 C 0.93044 0.47496 0.76853 0.0
C315 C 0.67753 0.47444 0.99532 0.0
C316 C 0.90353 0.5823 0.90391 0.0
C317 C 0.94892 0.34924 0.12765 0.0
C318 C 0.88066 0.31587 1.00959 0.0
C319 C 0.73503 0.46184 0.14035 0.0
C320 C 0.72019 0.58624 0.3482 0.0
C321 C 0.74933 0.56976 0.40495 0.0
C322 C 0.75386 0.59556 0.47486 0.0
C323 C 0.72424 0.63506 0.48782 0.0
C324 C 0.69163 0.62604 0.36134 0.0
C325 C 0.69308 0.64956 0.43134 0.0
C326 C 0.89693 0.6626 0.14525 0.0
C327 C 0.72071 0.55984 0.27665 0.0
H328 H 0.87545 0.60686 0.77758 0.0
H329 H 0.90897 0.46735 0.65492 0.0
H330 H 0.95219 0.49424 0.882 0.0
H331 H 0.94233 0.43537 0.76734 0.0
H332 H 0.77236 0.54001 0.39299 0.0
H333 H 0.72469 0.65455 0.54129 0.0
H334 H 0.66831 0.63867 0.31795 0.0
H335 H 0.67029 0.67938 0.44152 0.0
Tb336 Tb 0.25589 0.8398 0.33769 0.0
C337 C -0.00099 0.72414 0.46525 0.0
C338 C -0.00669 0.78614 0.56763 0.0
C339 C 0.90993 0.75104 0.4721 0.0
C340 C 0.02565 0.7581 0.52864 0.0
C341 C 0.93822 0.71628 0.43898 0.0
C342 C 0.93745 0.78591 0.53697 0.0
C343 C 0.93319 0.63328 0.35693 0.0
N344 N 0.02973 0.69392 0.43292 0.0
C345 C -0.00462 0.64497 0.38255 0.0
C346 C 0.90671 0.67193 0.38205 0.0
Tb347 Tb 0.13746 0.72929 0.47153 0.0
N348 N 0.08272 0.76145 0.55344 0.0
C349 C 0.10234 0.78048 0.62392 0.0
C350 C 0.01684 0.81138 0.63688 0.0
C351 C 0.06988 0.80618 0.66591 0.0
H352 H 0.01579 0.61584 0.36049 0.0
H353 H 0.08599 0.82303 0.72016 0.0
H354 H 0.91298 0.80905 0.5649 0.0
H355 H 0.90635 0.59635 0.31625 0.0
H356 H 0.14562 0.78036 0.64579 0.0
H357 H 0.43521 0.75805 0.33277 0.0
H358 H -0.00712 0.83248 0.66939 0.0
H359 H 0.24498 0.97933 0.35523 0.0
H360 H 0.34224 0.76421 0.2814 0.0
H361 H 0.30627 0.09323 0.43929 0.0
H362 H 0.8645 0.74763 0.45081 0.0
H363 H 0.50835 0.83996 0.42417 0.0
H364 H 0.52872 0.92769 0.50505 0.0
H365 H 0.86201 0.66702 0.35744 0.0
H366 H 0.52812 0.09762 0.53535 0.0
N367 N 0.36485 0.85562 0.33283 0.0
C368 C 0.37612 0.80464 0.31526 0.0
C369 C 0.47169 0.84758 0.3956 0.0
C370 C 0.46586 0.90368 0.40902 0.0
C371 C 0.43004 0.80089 0.34448 0.0
C372 C 0.41793 0.91295 0.3578 0.0
H373 H 0.43573 0.1504 0.49378 0.0
N374 N 0.33259 0.95546 0.3391 0.0
C375 C 0.33656 0.07212 0.42227 0.0
C376 C 0.411 0.97495 0.35107 0.0
C377 C 0.29748 -0.00129 0.36653 0.0
C378 C 0.42058 0.11174 0.45353 0.0
C379 C 0.47323 0.07896 0.4311 0.0
O380 O 0.25172 0.88488 0.23947 0.0
O381 O 0.15128 0.7716 0.3643 0.0
O382 O 0.1329 0.66994 0.3738 0.0
O383 O 0.24095 0.7378 0.33348 0.0
O384 O 0.17356 0.8608 0.32403 0.0
O385 O 0.24093 0.78863 0.23851 0.0
O386 O 0.17135 0.66865 0.51986 0.0
O387 O 0.24306 0.77975 0.43606 0.0
O388 O 0.25271 0.89374 0.43815 0.0
O389 O 0.15375 0.82921 0.49845 0.0
O390 O 0.22244 0.78399 0.54377 0.0
O391 O 0.06861 0.64096 0.52637 0.0
C392 C 0.12403 0.80358 0.34094 0.0
C393 C 0.27476 0.8475 0.12725 0.0
C394 C 0.27161 0.81289 0.99973 0.0
C395 C 0.24416 0.80013 0.07053 0.0
C396 C 0.3302 0.8745 0.98726 0.0
C397 C 0.33324 0.90803 0.11267 0.0
C398 C 0.36024 0.92145 1.04296 0.0
C399 C 0.18395 0.67979 0.33197 0.0
C400 C 0.24165 0.83468 0.19911 0.0
C401 C 0.51733 0.06717 0.48858 0.0
C402 C 0.50802 0.95249 0.47183 0.0
C403 C 0.27069 0.79933 0.49869 0.0
C404 C 0.11285 0.60842 0.62519 0.0
C405 C 0.14947 0.65415 0.68184 0.0
C406 C 0.14529 0.6313 0.75404 0.0
C407 C 0.10809 0.56261 0.76761 0.0
C408 C 0.07497 0.54034 0.64143 0.0
C409 C 0.07463 0.51763 0.71136 0.0
C410 C 0.20656 0.88757 0.48601 0.0
C411 C 0.1141 0.62777 0.54807 0.0
H412 H 0.19876 0.75363 0.08177 0.0
H413 H 0.35228 0.88746 0.93388 0.0
H414 H 0.35744 0.94545 0.15476 0.0
H415 H 0.40455 0.96893 1.03178 0.0
H416 H 0.18044 0.70669 0.67029 0.0
H417 H 0.10527 0.54369 0.82191 0.0
H418 H 0.04728 0.5041 0.59931 0.0
H419 H 0.04752 0.46469 0.72209 0.0
Tb420 Tb 0.39672 0.26701 0.68242 0.0
C421 C 0.30112 0.97874 0.7971 0.0
C422 C 0.18279 0.93421 0.8167 0.0
C423 C 0.22627 0.85922 0.80658 0.0
C424 C 0.24789 -0.01099 0.80561 0.0
C425 C 0.29033 0.91325 0.79366 0.0
C426 C 0.17355 0.86996 0.82308 0.0
C427 C 0.40644 0.95927 0.76383 0.0
N428 N 0.36233 0.03253 0.78517 0.0
C429 C 0.41535 0.02312 0.77051 0.0
C430 C 0.34372 0.9039 0.77567 0.0
Tb431 Tb 0.37211 0.13562 0.80511 0.0
N432 N 0.25899 0.05163 0.79534 0.0
C433 C 0.20413 0.05931 0.78411 0.0
C434 C 0.12833 0.94461 0.81516 0.0
C435 C 0.13891 0.00702 0.7959 0.0
H436 H 0.4656 0.06419 0.76588 0.0
H437 H 0.09672 0.0148 0.78889 0.0
H438 H 0.12457 0.82747 0.83423 0.0
H439 H 0.44834 0.95318 0.75004 0.0
H440 H 0.20846 0.10472 0.76442 0.0
H441 H 0.63314 0.37789 0.55308 0.0
H442 H 0.07764 0.90379 0.82306 0.0
H443 H 0.38114 0.31082 0.86905 0.0
H444 H 0.55554 0.3099 0.64538 0.0
H445 H 0.43322 0.41305 0.96405 0.0
H446 H 0.21626 0.80895 0.80128 0.0
H447 H 0.65737 0.49145 0.54394 0.0
H448 H 0.68408 0.56522 0.63884 0.0
H449 H 0.33712 0.8544 0.77074 0.0
H450 H 0.63099 0.61715 0.82062 0.0
N451 N 0.49954 0.35987 0.64776 0.0
C452 C 0.54934 0.34885 0.62389 0.0
C453 C 0.613 0.45667 0.57247 0.0
C454 C 0.58429 0.47831 0.62381 0.0
C455 C 0.59923 0.39196 0.57727 0.0
C456 C 0.51241 0.42493 0.65015 0.0
H457 H 0.52445 0.54219 0.93447 0.0
N458 N 0.42626 0.36446 0.7553 0.0
C459 C 0.44626 0.42383 0.90894 0.0
C460 C 0.47343 0.43492 0.71183 0.0
C461 C 0.4123 0.3574 0.84391 0.0
C462 C 0.5004 0.50817 0.88975 0.0
C463 C 0.52574 0.53418 0.80085 0.0
O464 O 0.35203 0.30745 0.61363 0.0
O465 O 0.35583 0.16026 0.69938 0.0
O466 O 0.45528 0.15408 0.72845 0.0
O467 O 0.45249 0.22219 0.63768 0.0
O468 O 0.29618 0.18482 0.64439 0.0
O469 O 0.40298 0.25827 0.57043 0.0
O470 O 0.44536 0.12724 0.86375 0.0
O471 O 0.44277 0.23919 0.77241 0.0
O472 O 0.31668 0.25523 0.75453 0.0
O473 O 0.30348 0.17209 0.83743 0.0
O474 O 0.40399 0.21777 0.8768 0.0
O475 O 0.35655 0.11224 0.91721 0.0
C476 C 0.30223 0.13434 0.66293 0.0
C477 C 0.38813 0.3269 0.4876 0.0
C478 C 0.40919 0.33202 0.35625 0.0
C479 C 0.39253 0.29685 0.42229 0.0
C480 C 0.4197 0.39742 0.35651 0.0
C481 C 0.39957 0.39227 0.48611 0.0
C482 C 0.4151 0.42711 0.42079 0.0
C483 C 0.47642 0.18596 0.66522 0.0
C484 C 0.3688 0.2872 0.55509 0.0
C485 C 0.60175 0.58321 0.77994 0.0
C486 C 0.63492 0.5439 0.66548 0.0
C487 C 0.45119 0.26124 0.83733 0.0
C488 C 0.45937 0.164 0.98629 0.0
C489 C 0.43321 0.17744 1.04985 0.0
C490 C 0.47688 0.2261 0.10108 0.0
C491 C 0.54644 0.2535 0.09154 0.0
C492 C 0.52924 0.1955 0.97837 0.0
C493 C 0.57211 0.2381 1.03131 0.0
C494 C 0.288 0.21656 0.8117 0.0
C495 C 0.41605 0.11978 0.92603 0.0
H496 H 0.38452 0.24656 0.42333 0.0
H497 H 0.43207 0.426 0.30689 0.0
H498 H 0.3963 0.41633 0.53516 0.0
H499 H 0.42398 0.47762 0.41998 0.0
H500 H 0.37954 0.15241 1.05735 0.0
H501 H 0.58182 0.28827 0.13032 0.0
H502 H 0.55131 0.18866 0.93008 0.0
H503 H 0.62574 0.26111 1.02427 0.0
C504 C 0.2495 0.2954 0.85182 0.0
C505 C 0.24404 0.23227 0.8571 0.0
H506 H 0.22777 0.36673 0.89906 0.0
C507 C 0.20201 0.18839 0.911 0.0
H508 H 0.27885 0.32962 0.80935 0.0
C509 C 0.1689 0.20863 0.96005 0.0
C510 C 0.18162 0.27464 0.95988 0.0
H511 H 0.19539 0.13888 0.91591 0.0
H512 H 0.13599 0.17379 1.00034 0.0
C513 C 0.22041 0.31697 0.90365 0.0
C514 C -0.00402 0.30641 0.28129 0.0
C515 C 0.01562 0.27617 0.22812 0.0
H516 H 0.91188 0.29917 0.33864 0.0
C517 C 0.97329 0.20684 0.21671 0.0
H518 H 0.02573 0.35954 0.2903 0.0
C519 C 0.91381 0.16962 0.25776 0.0
C520 C 0.89143 0.20179 0.306 0.0
H521 H -0.01409 0.18155 0.17557 0.0
H522 H 0.8836 0.11634 0.2488 0.0
C523 C 0.93138 0.27139 0.31161 0.0
C524 C 0.67005 0.95235 0.52494 0.0
C525 C 0.73298 0.01087 0.53409 0.0
H526 H 0.59734 0.85676 0.56537 0.0
C527 C 0.7755 0.01044 0.58875 0.0
H528 H 0.63679 0.94808 0.48131 0.0
C529 C 0.75431 0.95381 0.63361 0.0
C530 C 0.68813 0.89936 0.62946 0.0
H531 H 0.82489 0.05348 0.59674 0.0
H532 H 0.78869 0.95375 0.67349 0.0
C533 C 0.64702 0.89919 0.57343 0.0
C534 C 0.75782 0.74666 0.86715 0.0
C535 C 0.68909 0.72214 0.88106 0.0
H536 H 0.84814 0.74557 0.89692 0.0
C537 C 0.65975 0.67516 0.93683 0.0
H538 H 0.78239 0.78238 0.82413 0.0
C539 C 0.69465 0.64659 0.96923 0.0
C540 C 0.76393 0.67343 0.96012 0.0
H541 H 0.607 0.65391 0.94824 0.0
H542 H 0.66676 0.60275 1.00151 0.0
C543 C 0.79532 0.72467 0.90822 0.0
C544 C 0.01532 0.78842 0.28782 0.0
C545 C 0.06706 0.77282 0.28854 0.0
H546 H 0.91851 0.76387 0.24401 0.0
C547 C 0.06657 0.72945 0.23507 0.0
H548 H 0.01576 0.82371 0.32678 0.0
C549 C 0.01393 0.69905 0.18542 0.0
C550 C 0.95775 0.70767 0.18969 0.0
H551 H 0.10678 0.71832 0.23182 0.0
H552 H 0.0163 0.66629 0.14522 0.0
C553 C 0.96003 0.75469 0.24003 0.0
C554 C 0.21783 0.04708 0.5714 0.0
C555 C 0.27025 0.06697 0.62287 0.0
H556 H 0.15808 0.97716 0.48635 0.0
C557 C 0.29597 0.02369 0.63088 0.0
H558 H 0.19686 0.07896 0.56148 0.0
C559 C 0.26777 0.96132 0.59511 0.0
C560 C 0.22106 0.94484 0.53828 0.0
H561 H 0.34123 0.04008 0.66105 0.0
H562 H 0.28972 0.93026 0.60455 0.0
C563 C 0.19484 -0.01204 0.52857 0.0
C564 C 0.20459 0.38762 0.58884 0.0
C565 C 0.17607 0.42219 0.62165 0.0
H566 H 0.26825 0.38716 0.50459 0.0
C567 C 0.19348 0.48584 0.59668 0.0
H568 H 0.19121 0.33804 0.60696 0.0
C569 C 0.23682 0.5138 0.53798 0.0
C570 C 0.26324 0.47817 0.50268 0.0
H571 H 0.17276 0.51353 0.62169 0.0
H572 H 0.24709 0.562 0.51825 0.0
C573 C 0.24825 0.41558 0.53015 0.0
C574 C 0.71212 0.12382 0.94267 0.0
C575 C 0.6444 0.09435 0.964 0.0
H576 H 0.78749 0.18518 0.86498 0.0
C577 C 0.60029 0.10222 0.91822 0.0
H578 H 0.7475 0.11739 0.97533 0.0
C579 C 0.62351 0.14266 0.8571 0.0
C580 C 0.69169 0.17612 0.83767 0.0
H581 H 0.54769 0.08002 0.93151 0.0
H582 H 0.58726 0.14871 0.82611 0.0
C583 C 0.7351 0.16279 0.8792 0.0
C584 C 0.53594 0.73578 0.27328 0.0
C585 C 0.5854 0.7996 0.29662 0.0
H586 H 0.45789 0.67831 0.198 0.0
C587 C 0.59563 0.85552 0.25733 0.0
H588 H 0.52895 0.6913 0.30022 0.0
C589 C 0.55689 0.84741 0.19594 0.0
C590 C 0.50561 0.7838 0.1742 0.0
H591 H 0.63346 0.90535 0.27381 0.0
H592 H 0.56798 0.89083 0.16486 0.0
C593 C 0.49505 0.72823 0.2145 0.0
C594 C 0.86414 0.61973 0.63804 0.0
C595 C 0.86308 0.55839 0.64173 0.0
H596 H 0.82625 0.67673 0.58809 0.0
C597 C 0.82825 0.51067 0.58728 0.0
H598 H 0.89297 0.65984 0.67599 0.0
C599 C 0.79283 0.52243 0.53351 0.0
C600 C 0.79096 0.58231 0.53263 0.0
H601 H 0.82632 0.46323 0.58684 0.0
H602 H 0.76491 0.48319 0.49427 0.0
C603 C 0.82661 0.63031 0.58621 0.0
C604 C 0.24794 0.71418 0.82382 0.0
C605 C 0.17793 0.67759 0.81655 0.0
H606 H 0.33197 0.78582 0.88602 0.0
C607 C 0.1386 0.68287 0.87159 0.0
H608 H 0.27947 0.71038 0.78285 0.0
C609 C 0.1686 0.7259 0.93115 0.0
C610 C 0.23893 0.76391 0.93816 0.0
H611 H 0.08441 0.65444 0.86782 0.0
H612 H 0.13654 0.73012 0.97103 0.0
C613 C 0.27793 0.75689 0.88362 0.0
C614 C 0.37917 0.23713 0.26542 0.0
C615 C 0.42155 0.30369 0.2885 0.0
H616 H 0.36148 0.16034 0.18739 0.0
C617 C 0.47835 0.34417 0.24682 0.0
H618 H 0.33451 0.20453 0.2959 0.0
C619 C 0.4937 0.31904 0.18558 0.0
C620 C 0.45333 0.25219 0.16298 0.0
H621 H 0.51261 0.39531 0.26288 0.0
H622 H 0.53871 0.35243 0.15655 0.0
C623 C 0.39435 0.21195 0.20274 0.0
C624 C 0.22559 0.60338 0.17178 0.0
C625 C 0.17892 0.53549 0.17557 0.0
H626 H 0.26169 0.7001 0.21172 0.0
C627 C 0.13019 0.51384 0.23048 0.0
H628 H 0.26375 0.62126 0.13066 0.0
C629 C 0.12907 0.56024 0.28017 0.0
C630 C 0.17822 0.62857 0.27729 0.0
H631 H 0.09527 0.46127 0.23683 0.0
H632 H 0.09126 0.54248 0.3217 0.0
C633 C 0.22473 0.64887 0.22024 0.0
C634 C 0.61001 0.22245 0.52013 0.0
C635 C 0.64271 0.19111 0.55038 0.0
H636 H 0.53064 0.24407 0.53198 0.0
C637 C 0.62527 0.16532 0.6212 0.0
H638 H 0.62365 0.24487 0.46701 0.0
C639 C 0.5715 0.16317 0.65769 0.0
C640 C 0.53435 0.18871 0.62584 0.0
H641 H 0.65017 0.14187 0.64665 0.0
H642 H 0.55843 0.14008 0.71001 0.0
C643 C 0.55617 0.2211 0.55762 0.0
C644 C 0.30351 0.5522 0.87956 0.0
C645 C 0.32405 0.52779 0.93849 0.0
H646 H 0.33091 0.61816 0.78885 0.0
C647 C 0.3938 0.55349 0.94633 0.0
H648 H 0.25117 0.53605 0.87092 0.0
C649 C 0.44047 0.60129 0.89676 0.0
C650 C 0.41892 0.62306 0.83652 0.0
H651 H 0.4125 0.53805 0.99167 0.0
H652 H 0.49353 0.62341 0.90722 0.0
C653 C 0.3497 0.5993 0.83099 0.0
C654 C 0.72257 0.30789 0.22405 0.0
C655 C 0.75443 0.33001 0.29284 0.0
H656 H 0.69712 0.33293 0.12169 0.0
C657 C 0.77202 0.39496 0.31471 0.0
H658 H 0.7026 0.25695 0.20602 0.0
C659 C 0.76491 0.43795 0.2658 0.0
C660 C 0.74231 0.41775 0.19346 0.0
H661 H 0.79288 0.41319 0.36806 0.0
H662 H 0.78103 0.48795 0.28366 0.0
C663 C 0.71758 0.35107 0.17514 0.0
C664 C 0.35446 0.82982 0.59798 0.0
C665 C 0.33164 0.80011 0.52931 0.0
H666 H 0.42084 0.85011 0.68804 0.0
C667 C 0.35728 0.76034 0.50278 0.0
H668 H 0.33176 0.85564 0.62369 0.0
C669 C 0.40801 0.75541 0.54133 0.0
C670 C 0.43333 0.78887 0.60838 0.0
H671 H 0.33665 0.73132 0.45374 0.0
H672 H 0.42677 0.72471 0.51892 0.0
C673 C 0.40524 0.82589 0.63575 0.0
C674 C 0.63251 0.39316 0.8873 0.0
C675 C 0.62185 0.41685 0.95459 0.0
H676 H 0.58719 0.32752 0.7945 0.0
C677 C 0.55822 0.38105 0.98537 0.0
H678 H 0.68197 0.41642 0.86356 0.0
C679 C 0.5059 0.32776 0.94797 0.0
C680 C 0.51367 0.31032 0.87659 0.0
H681 H 0.54826 0.39482 1.03788 0.0
H682 H 0.45741 0.30293 0.97324 0.0
C683 C 0.57868 0.34121 0.84786 0.0
loop_
_geom_bond_atom_site_label_1
_geom_bond_atom_site_label_2
_geom_bond_distance
_geom_bond_site_symmetry_2
_ccdc_geom_bond_type
Tb0 N31 2.660 . S
Tb0 N38 2.600 . S
Tb0 O44 2.546 . S
Tb0 O45 2.610 . S
Tb0 O47 2.320 . S
Tb0 O48 2.552 . S
Tb0 O49 2.413 . S
Tb0 O51 2.362 1_556 S
Tb0 O52 2.421 1_556 S
Tb0 C64 2.833 . S
C1 C4 1.432 . S
C1 C5 1.414 . S
C1 N8 1.359 . S
C2 C4 1.417 . S
C2 C6 1.432 . S
C2 C14 1.410 . S
C3 C5 1.444 . S
C3 C6 1.317 . S
C3 H26 0.929 . S
C4 C1 1.432 . S
C4 C2 1.417 . S
C4 N12 1.360 . S
C5 C1 1.414 . S
C5 C3 1.444 . S
C5 C10 1.385 . S
C6 C2 1.432 . S
C6 C3 1.317 . S
C6 H18 0.930 . S
C7 C9 1.392 . S
C7 C10 1.370 . S
C7 H19 0.931 . S
N8 C1 1.359 . S
N8 C9 1.327 . S
N8 Tb11 2.600 . S
C9 C7 1.392 . S
C9 N8 1.327 . S
C9 H16 0.930 . S
C10 C5 1.385 . S
C10 C7 1.370 . S
C10 H29 0.930 . S
Tb11 N8 2.600 . S
Tb11 N12 2.660 . S
Tb11 O45 2.362 1_554 S
Tb11 O46 2.421 . S
Tb11 O50 2.546 . S
Tb11 O51 2.610 . S
Tb11 O53 2.320 . S
Tb11 O54 2.552 . S
Tb11 O55 2.413 . S
Tb11 C75 2.833 . S
N12 C4 1.360 . S
N12 Tb11 2.660 . S
N12 C13 1.305 . S
C13 N12 1.305 . S
C13 C15 1.407 . S
C13 H20 0.930 . S
C14 C2 1.410 . S
C14 C15 1.345 . S
C14 H22 0.930 . S
C15 C13 1.407 . S
C15 C14 1.345 . S
C15 H17 0.930 . S
H16 C9 0.930 . S
H17 C15 0.930 . S
H18 C6 0.930 . S
H19 C7 0.931 . S
H20 C13 0.930 . S
H21 C35 0.930 . S
H22 C14 0.930 . S
H23 C41 0.930 . S
H24 C32 0.930 . S
H25 C39 0.931 . S
H26 C3 0.929 . S
H27 C33 0.930 . S
H28 C66 0.930 . S
H29 C10 0.930 . S
H30 C65 0.929 . S
N31 Tb0 2.660 . S
N31 C32 1.305 . S
N31 C36 1.360 . S
C32 H24 0.930 . S
C32 N31 1.305 . S
C32 C35 1.407 . S
C33 H27 0.930 . S
C33 C34 1.410 . S
C33 C35 1.345 . S
C34 C33 1.410 . S
C34 C36 1.417 . S
C34 C66 1.432 . S
C35 H21 0.930 . S
C35 C32 1.407 . S
C35 C33 1.345 . S
C36 N31 1.360 . S
C36 C34 1.417 . S
C36 C40 1.432 . S
H37 C42 0.930 . S
N38 Tb0 2.600 . S
N38 C40 1.359 . S
N38 C41 1.327 1_455 S
C39 H25 0.931 . S
C39 C41 1.392 . S
C39 C42 1.370 . S
C40 C36 1.432 . S
C40 N38 1.359 . S
C40 C43 1.414 1_455 S
C41 H23 0.930 . S
C41 N38 1.327 1_655 S
C41 C39 1.392 . S
C42 H37 0.930 . S
C42 C39 1.370 . S
C42 C43 1.385 . S
C43 C40 1.414 1_655 S
C43 C42 1.385 . S
C43 C65 1.444 . S
O44 Tb0 2.546 . S
O44 C64 1.251 . S
O45 Tb0 2.610 . S
O45 Tb11 2.362 1_556 S
O45 C56 1.283 . S
O46 Tb11 2.421 . S
O46 C63 1.262 1_554 S
O47 Tb0 2.320 . S
O47 C63 1.260 . S
O48 Tb0 2.552 . S
O48 C56 1.243 . S
O49 Tb0 2.413 . S
O49 C64 1.256 . S
O50 Tb11 2.546 . S
O50 C75 1.251 . S
O51 Tb0 2.362 1_554 S
O51 Tb11 2.610 . S
O51 C67 1.283 . S
O52 Tb0 2.421 1_554 S
O52 C74 1.262 . S
O53 Tb11 2.320 . S
O53 C74 1.260 . S
O54 Tb11 2.552 . S
O54 C67 1.243 . S
O55 Tb11 2.413 . S
O55 C75 1.256 . S
C56 O45 1.283 . S
C56 O48 1.243 . S
C57 C59 1.382 . S
C57 C61 1.393 . S
C57 C64 1.500 . S
C58 C59 1.400 . S
C58 C60 1.384 . S
C59 C57 1.382 . S
C59 C58 1.400 . S
C59 H76 0.930 . S
C60 C58 1.384 . S
C60 C62 1.392 1_455 S
C60 H77 0.931 . S
C61 C57 1.393 . S
C61 C62 1.401 1_455 S
C61 H78 0.930 1_455 S
C62 C60 1.392 1_655 S
C62 C61 1.401 1_655 S
C62 H79 0.930 . S
C63 O46 1.262 1_556 S
C63 O47 1.260 . S
C64 Tb0 2.833 . S
C64 O44 1.251 . S
C64 O49 1.256 . S
C64 C57 1.500 . S
C65 H30 0.929 . S
C65 C43 1.444 . S
C65 C66 1.317 1_655 S
C66 H28 0.930 . S
C66 C34 1.432 . S
C66 C65 1.317 1_455 S
C67 O51 1.283 . S
C67 O54 1.243 . S
C68 C69 1.382 . S
C68 C72 1.393 . S
C68 C75 1.500 . S
C69 C68 1.382 . S
C69 C70 1.400 . S
C69 H80 0.930 . S
C70 C69 1.400 . S
C70 C71 1.384 . S
C71 C70 1.384 . S
C71 C73 1.392 . S
C71 H81 0.931 . S
C72 C68 1.393 . S
C72 C73 1.401 . S
C72 H82 0.930 . S
C73 C71 1.392 . S
C73 C72 1.401 . S
C73 H83 0.930 . S
C74 O52 1.262 . S
C74 O53 1.260 . S
C75 Tb11 2.833 . S
C75 O50 1.251 . S
C75 O55 1.256 . S
C75 C68 1.500 . S
H76 C59 0.930 . S
H77 C60 0.931 . S
H78 C61 0.930 1_655 S
H79 C62 0.930 . S
H80 C69 0.930 . S
H81 C71 0.931 . S
H82 C72 0.930 . S
H83 C73 0.930 . S
Tb84 N115 2.660 . S
Tb84 N122 2.600 . S
Tb84 O128 2.546 . S
Tb84 O129 2.610 . S
Tb84 O131 2.320 . S
Tb84 O132 2.552 . S
Tb84 O133 2.413 . S
Tb84 O135 2.362 . S
Tb84 O136 2.421 . S
Tb84 C148 2.833 . S
C85 C88 1.432 . S
C85 C89 1.414 . S
C85 N92 1.359 1_455 S
C86 C88 1.417 . S
C86 C90 1.432 . S
C86 C98 1.410 . S
C87 C89 1.444 . S
C87 C90 1.317 . S
C87 H110 0.929 . S
C88 C85 1.432 . S
C88 C86 1.417 . S
C88 N96 1.360 1_455 S
C89 C85 1.414 . S
C89 C87 1.444 . S
C89 C94 1.385 . S
C90 C86 1.432 . S
C90 C87 1.317 . S
C90 H102 0.930 . S
C91 C93 1.392 1_455 S
C91 C94 1.370 . S
C91 H103 0.931 . S
N92 C85 1.359 1_655 S
N92 C93 1.327 . S
N92 Tb95 2.600 . S
C93 C91 1.392 1_655 S
C93 N92 1.327 . S
C93 H100 0.930 . S
C94 C89 1.385 . S
C94 C91 1.370 . S
C94 H113 0.930 . S
Tb95 N92 2.600 . S
Tb95 N96 2.660 . S
Tb95 O129 2.362 . S
Tb95 O130 2.421 . S
Tb95 O134 2.546 . S
Tb95 O135 2.610 . S
Tb95 O137 2.320 . S
Tb95 O138 2.552 . S
Tb95 O139 2.413 . S
Tb95 C159 2.833 . S
N96 C88 1.360 1_655 S
N96 Tb95 2.660 . S
N96 C97 1.305 . S
C97 N96 1.305 . S
C97 C99 1.407 1_655 S
C97 H104 0.930 . S
C98 C86 1.410 . S
C98 C99 1.345 . S
C98 H106 0.930 . S
C99 C97 1.407 1_455 S
C99 C98 1.345 . S
C99 H101 0.930 . S
H100 C93 0.930 . S
H101 C99 0.930 . S
H102 C90 0.930 . S
H103 C91 0.931 . S
H104 C97 0.930 . S
H105 C119 0.930 . S
H106 C98 0.930 . S
H107 C125 0.930 . S
H108 C116 0.930 . S
H109 C123 0.931 . S
H110 C87 0.929 . S
H111 C117 0.930 . S
H112 C150 0.930 . S
H113 C94 0.930 . S
H114 C149 0.929 . S
N115 Tb84 2.660 . S
N115 C116 1.305 . S
N115 C120 1.360 . S
C116 H108 0.930 . S
C116 N115 1.305 . S
C116 C119 1.407 . S
C117 H111 0.930 . S
C117 C118 1.410 . S
C117 C119 1.345 . S
C118 C117 1.410 . S
C118 C120 1.417 . S
C118 C150 1.432 . S
C119 H105 0.930 . S
C119 C116 1.407 . S
C119 C117 1.345 . S
C120 N115 1.360 . S
C120 C118 1.417 . S
C120 C124 1.432 . S
H121 C126 0.930 . S
N122 Tb84 2.600 . S
N122 C124 1.359 . S
N122 C125 1.327 1_545 S
C123 H109 0.931 . S
C123 C125 1.392 . S
C123 C126 1.370 . S
C124 C120 1.432 . S
C124 N122 1.359 . S
C124 C127 1.414 1_545 S
C125 H107 0.930 . S
C125 N122 1.327 1_565 S
C125 C123 1.392 . S
C126 H121 0.930 . S
C126 C123 1.370 . S
C126 C127 1.385 . S
C127 C124 1.414 1_565 S
C127 C126 1.385 . S
C127 C149 1.444 . S
O128 Tb84 2.546 . S
O128 C148 1.251 . S
O129 Tb84 2.610 . S
O129 Tb95 2.362 . S
O129 C140 1.283 . S
O130 Tb95 2.421 . S
O130 C147 1.262 . S
O131 Tb84 2.320 . S
O131 C147 1.260 . S
O132 Tb84 2.552 . S
O132 C140 1.243 . S
O133 Tb84 2.413 . S
O133 C148 1.256 . S
O134 Tb95 2.546 . S
O134 C159 1.251 . S
O135 Tb84 2.362 . S
O135 Tb95 2.610 . S
O135 C151 1.283 . S
O136 Tb84 2.421 . S
O136 C158 1.262 . S
O137 Tb95 2.320 . S
O137 C158 1.260 . S
O138 Tb95 2.552 . S
O138 C151 1.243 . S
O139 Tb95 2.413 . S
O139 C159 1.256 . S
C140 O129 1.283 . S
C140 O132 1.243 . S
C141 C143 1.382 . S
C141 C145 1.393 . S
C141 C148 1.500 . S
C142 C143 1.400 1_556 S
C142 C144 1.384 . S
C143 C141 1.382 . S
C143 C142 1.400 1_554 S
C143 H160 0.930 . S
C144 C142 1.384 . S
C144 C146 1.392 1_546 S
C144 H161 0.931 . S
C145 C141 1.393 . S
C145 C146 1.401 1_545 S
C145 H162 0.930 1_545 S
C146 C144 1.392 1_564 S
C146 C145 1.401 1_565 S
C146 H163 0.930 1_554 S
C147 O130 1.262 . S
C147 O131 1.260 . S
C148 Tb84 2.833 . S
C148 O128 1.251 . S
C148 O133 1.256 . S
C148 C141 1.500 . S
C149 H114 0.929 . S
C149 C127 1.444 . S
C149 C150 1.317 1_565 S
C150 H112 0.930 . S
C150 C118 1.432 . S
C150 C149 1.317 1_545 S
C151 O135 1.283 . S
C151 O138 1.243 . S
C152 C153 1.382 . S
C152 C156 1.393 . S
C152 C159 1.500 . S
C153 C152 1.382 . S
C153 C154 1.400 . S
C153 H164 0.930 . S
C154 C153 1.400 . S
C154 C155 1.384 . S
C155 C154 1.384 . S
C155 C157 1.392 . S
C155 H165 0.931 . S
C156 C152 1.393 . S
C156 C157 1.401 . S
C156 H166 0.930 . S
C157 C155 1.392 . S
C157 C156 1.401 . S
C157 H167 0.930 . S
C158 O136 1.262 . S
C158 O137 1.260 . S
C159 Tb95 2.833 . S
C159 O134 1.251 . S
C159 O139 1.256 . S
C159 C152 1.500 . S
H160 C143 0.930 . S
H161 C144 0.931 . S
H162 C145 0.930 1_565 S
H163 C146 0.930 1_556 S
H164 C153 0.930 . S
H165 C155 0.931 . S
H166 C156 0.930 . S
H167 C157 0.930 . S
Tb168 N199 2.660 . S
Tb168 N206 2.600 . S
Tb168 O212 2.546 . S
Tb168 O213 2.610 . S
Tb168 O215 2.320 . S
Tb168 O216 2.552 . S
Tb168 O217 2.413 . S
Tb168 O219 2.362 . S
Tb168 O220 2.421 . S
Tb168 C232 2.833 . S
C169 C172 1.432 . S
C169 C173 1.414 . S
C169 N176 1.359 1_545 S
C170 C172 1.417 . S
C170 C174 1.432 . S
C170 C182 1.410 . S
C171 C173 1.444 . S
C171 C174 1.317 . S
C171 H194 0.929 . S
C172 C169 1.432 . S
C172 C170 1.417 . S
C172 N180 1.360 1_545 S
C173 C169 1.414 . S
C173 C171 1.444 . S
C173 C178 1.385 . S
C174 C170 1.432 . S
C174 C171 1.317 . S
C174 H186 0.930 . S
C175 C177 1.392 1_545 S
C175 C178 1.370 . S
C175 H187 0.931 . S
N176 C169 1.359 1_565 S
N176 C177 1.327 . S
N176 Tb179 2.600 . S
C177 C175 1.392 1_565 S
C177 N176 1.327 . S
C177 H184 0.930 . S
C178 C173 1.385 . S
C178 C175 1.370 . S
C178 H197 0.930 . S
Tb179 N176 2.600 . S
Tb179 N180 2.660 . S
Tb179 O213 2.362 . S
Tb179 O214 2.421 . S
Tb179 O218 2.546 . S
Tb179 O219 2.610 . S
Tb179 O221 2.320 . S
Tb179 O222 2.552 . S
Tb179 O223 2.413 . S
Tb179 C243 2.833 . S
N180 C172 1.360 1_565 S
N180 Tb179 2.660 . S
N180 C181 1.305 . S
C181 N180 1.305 . S
C181 C183 1.407 1_565 S
C181 H188 0.930 . S
C182 C170 1.410 . S
C182 C183 1.345 . S
C182 H190 0.930 . S
C183 C181 1.407 1_545 S
C183 C182 1.345 . S
C183 H185 0.930 . S
H184 C177 0.930 . S
H185 C183 0.930 . S
H186 C174 0.930 . S
H187 C175 0.931 . S
H188 C181 0.930 . S
H189 C203 0.930 . S
H190 C182 0.930 . S
H191 C209 0.930 . S
H192 C200 0.930 . S
H193 C207 0.931 . S
H194 C171 0.929 . S
H195 C201 0.930 . S
H196 C234 0.930 . S
H197 C178 0.930 . S
H198 C233 0.929 . S
N199 Tb168 2.660 . S
N199 C200 1.305 . S
N199 C204 1.360 . S
C200 H192 0.930 . S
C200 N199 1.305 . S
C200 C203 1.407 . S
C201 H195 0.930 . S
C201 C202 1.410 . S
C201 C203 1.345 . S
C202 C201 1.410 . S
C202 C204 1.417 . S
C202 C234 1.432 . S
C203 H189 0.930 . S
C203 C200 1.407 . S
C203 C201 1.345 . S
C204 N199 1.360 . S
C204 C202 1.417 . S
C204 C208 1.432 . S
H205 C210 0.930 . S
N206 Tb168 2.600 . S
N206 C208 1.359 . S
N206 C209 1.327 . S
C207 H193 0.931 . S
C207 C209 1.392 . S
C207 C210 1.370 . S
C208 C204 1.432 . S
C208 N206 1.359 . S
C208 C211 1.414 . S
C209 H191 0.930 . S
C209 N206 1.327 . S
C209 C207 1.392 . S
C210 H205 0.930 . S
C210 C207 1.370 . S
C210 C211 1.385 . S
C211 C208 1.414 . S
C211 C210 1.385 . S
C211 C233 1.444 . S
O212 Tb168 2.546 . S
O212 C232 1.251 . S
O213 Tb168 2.610 . S
O213 Tb179 2.362 . S
O213 C224 1.283 . S
O214 Tb179 2.421 . S
O214 C231 1.262 . S
O215 Tb168 2.320 . S
O215 C231 1.260 . S
O216 Tb168 2.552 . S
O216 C224 1.243 . S
O217 Tb168 2.413 . S
O217 C232 1.256 . S
O218 Tb179 2.546 . S
O218 C243 1.251 . S
O219 Tb168 2.362 . S
O219 Tb179 2.610 . S
O219 C235 1.283 . S
O220 Tb168 2.421 . S
O220 C242 1.262 . S
O221 Tb179 2.320 . S
O221 C242 1.260 . S
O222 Tb179 2.552 . S
O222 C235 1.243 . S
O223 Tb179 2.413 . S
O223 C243 1.256 . S
C224 O213 1.283 . S
C224 O216 1.243 . S
C225 C227 1.382 . S
C225 C229 1.393 . S
C225 C232 1.500 . S
C226 C227 1.400 . S
C226 C228 1.384 . S
C227 C225 1.382 . S
C227 C226 1.400 . S
C227 H244 0.930 . S
C228 C226 1.384 . S
C228 C230 1.392 . S
C228 H245 0.931 . S
C229 C225 1.393 . S
C229 C230 1.401 . S
C229 H246 0.930 . S
C230 C228 1.392 . S
C230 C229 1.401 . S
C230 H247 0.930 . S
C231 O214 1.262 . S
C231 O215 1.260 . S
C232 Tb168 2.833 . S
C232 O212 1.251 . S
C232 O217 1.256 . S
C232 C225 1.500 . S
C233 H198 0.929 . S
C233 C211 1.444 . S
C233 C234 1.317 . S
C234 H196 0.930 . S
C234 C202 1.432 . S
C234 C233 1.317 . S
C235 O219 1.283 . S
C235 O222 1.243 . S
C236 C237 1.382 1_556 S
C236 C240 1.393 . S
C236 C243 1.500 . S
C237 C236 1.382 1_554 S
C237 C238 1.400 . S
C237 H248 0.930 1_554 S
C238 C237 1.400 . S
C238 C239 1.384 . S
C239 C238 1.384 . S
C239 C241 1.392 . S
C239 H249 0.931 . S
C240 C236 1.393 . S
C240 C241 1.401 1_556 S
C240 H250 0.930 . S
C241 C239 1.392 . S
C241 C240 1.401 1_554 S
C241 H251 0.930 . S
C242 O220 1.262 . S
C242 O221 1.260 . S
C243 Tb179 2.833 . S
C243 O218 1.251 . S
C243 O223 1.256 . S
C243 C236 1.500 . S
H244 C227 0.930 . S
H245 C228 0.931 . S
H246 C229 0.930 . S
H247 C230 0.930 . S
H248 C237 0.930 1_556 S
H249 C239 0.931 . S
H250 C240 0.930 . S
H251 C241 0.930 . S
Tb252 N283 2.660 . S
Tb252 N290 2.600 . S
Tb252 O296 2.546 . S
Tb252 O297 2.610 . S
Tb252 O299 2.320 . S
Tb252 O300 2.552 . S
Tb252 O301 2.413 . S
Tb252 O303 2.362 1_556 S
Tb252 O304 2.421 1_556 S
Tb252 C316 2.833 . S
C253 C256 1.432 . S
C253 C257 1.414 . S
C253 N260 1.359 . S
C254 C256 1.417 . S
C254 C258 1.432 . S
C254 C266 1.410 . S
C255 C257 1.444 . S
C255 C258 1.317 . S
C255 H278 0.929 . S
C256 C253 1.432 . S
C256 C254 1.417 . S
C256 N264 1.360 . S
C257 C253 1.414 . S
C257 C255 1.444 . S
C257 C262 1.385 . S
C258 C254 1.432 . S
C258 C255 1.317 . S
C258 H270 0.930 . S
C259 C261 1.392 . S
C259 C262 1.370 . S
C259 H271 0.931 . S
N260 C253 1.359 . S
N260 C261 1.327 . S
N260 Tb263 2.600 . S
C261 C259 1.392 . S
C261 N260 1.327 . S
C261 H268 0.930 . S
C262 C257 1.385 . S
C262 C259 1.370 . S
C262 H281 0.930 . S
Tb263 N260 2.600 . S
Tb263 N264 2.660 . S
Tb263 O297 2.362 1_554 S
Tb263 O298 2.421 . S
Tb263 O302 2.546 . S
Tb263 O303 2.610 . S
Tb263 O305 2.320 . S
Tb263 O306 2.552 . S
Tb263 O307 2.413 . S
Tb263 C327 2.833 . S
N264 C256 1.360 . S
N264 Tb263 2.660 . S
N264 C265 1.305 . S
C265 N264 1.305 . S
C265 C267 1.407 . S
C265 H272 0.930 . S
C266 C254 1.410 . S
C266 C267 1.345 . S
C266 H274 0.930 . S
C267 C265 1.407 . S
C267 C266 1.345 . S
C267 H269 0.930 . S
H268 C261 0.930 . S
H269 C267 0.930 . S
H270 C258 0.930 . S
H271 C259 0.931 . S
H272 C265 0.930 . S
H273 C287 0.930 . S
H274 C266 0.930 . S
H275 C293 0.930 . S
H276 C284 0.930 . S
H277 C291 0.931 . S
H278 C255 0.929 . S
H279 C285 0.930 . S
H280 C318 0.930 . S
H281 C262 0.930 . S
H282 C317 0.929 . S
N283 Tb252 2.660 . S
N283 C284 1.305 . S
N283 C288 1.360 . S
C284 H276 0.930 . S
C284 N283 1.305 . S
C284 C287 1.407 . S
C285 H279 0.930 . S
C285 C286 1.410 . S
C285 C287 1.345 . S
C286 C285 1.410 . S
C286 C288 1.417 . S
C286 C318 1.432 . S
C287 H273 0.930 . S
C287 C284 1.407 . S
C287 C285 1.345 . S
C288 N283 1.360 . S
C288 C286 1.417 . S
C288 C292 1.432 . S
H289 C294 0.930 . S
N290 Tb252 2.600 . S
N290 C292 1.359 . S
N290 C293 1.327 1_655 S
C291 H277 0.931 . S
C291 C293 1.392 . S
C291 C294 1.370 . S
C292 C288 1.432 . S
C292 N290 1.359 . S
C292 C295 1.414 1_655 S
C293 H275 0.930 . S
C293 N290 1.327 1_455 S
C293 C291 1.392 . S
C294 H289 0.930 . S
C294 C291 1.370 . S
C294 C295 1.385 . S
C295 C292 1.414 1_455 S
C295 C294 1.385 . S
C295 C317 1.444 . S
O296 Tb252 2.546 . S
O296 C316 1.251 . S
O297 Tb252 2.610 . S
O297 Tb263 2.362 1_556 S
O297 C308 1.283 . S
O298 Tb263 2.421 . S
O298 C315 1.262 1_554 S
O299 Tb252 2.320 . S
O299 C315 1.260 . S
O300 Tb252 2.552 . S
O300 C308 1.243 . S
O301 Tb252 2.413 . S
O301 C316 1.256 . S
O302 Tb263 2.546 . S
O302 C327 1.251 . S
O303 Tb252 2.362 1_554 S
O303 Tb263 2.610 . S
O303 C319 1.283 . S
O304 Tb252 2.421 1_554 S
O304 C326 1.262 . S
O305 Tb263 2.320 . S
O305 C326 1.260 . S
O306 Tb263 2.552 . S
O306 C319 1.243 . S
O307 Tb263 2.413 . S
O307 C327 1.256 . S
C308 O297 1.283 . S
C308 O300 1.243 . S
C309 C311 1.382 . S
C309 C313 1.393 . S
C309 C316 1.500 . S
C310 C311 1.400 . S
C310 C312 1.384 . S
C311 C309 1.382 . S
C311 C310 1.400 . S
C311 H328 0.930 . S
C312 C310 1.384 . S
C312 C314 1.392 1_655 S
C312 H329 0.931 . S
C313 C309 1.393 . S
C313 C314 1.401 1_655 S
C313 H330 0.930 1_655 S
C314 C312 1.392 1_455 S
C314 C313 1.401 1_455 S
C314 H331 0.930 . S
C315 O298 1.262 1_556 S
C315 O299 1.260 . S
C316 Tb252 2.833 . S
C316 O296 1.251 . S
C316 O301 1.256 . S
C316 C309 1.500 . S
C317 H282 0.929 . S
C317 C295 1.444 . S
C317 C318 1.317 1_455 S
C318 H280 0.930 . S
C318 C286 1.432 . S
C318 C317 1.317 1_655 S
C319 O303 1.283 . S
C319 O306 1.243 . S
C320 C321 1.382 . S
C320 C324 1.393 . S
C320 C327 1.500 . S
C321 C320 1.382 . S
C321 C322 1.400 . S
C321 H332 0.930 . S
C322 C321 1.400 . S
C322 C323 1.384 . S
C323 C322 1.384 . S
C323 C325 1.392 . S
C323 H333 0.931 . S
C324 C320 1.393 . S
C324 C325 1.401 . S
C324 H334 0.930 . S
C325 C323 1.392 . S
C325 C324 1.401 . S
C325 H335 0.930 . S
C326 O304 1.262 . S
C326 O305 1.260 . S
C327 Tb263 2.833 . S
C327 O302 1.251 . S
C327 O307 1.256 . S
C327 C320 1.500 . S
H328 C311 0.930 . S
H329 C312 0.931 . S
H330 C313 0.930 1_455 S
H331 C314 0.930 . S
H332 C321 0.930 . S
H333 C323 0.931 . S
H334 C324 0.930 . S
H335 C325 0.930 . S
Tb336 N367 2.660 . S
Tb336 N374 2.600 . S
Tb336 O380 2.546 . S
Tb336 O381 2.610 . S
Tb336 O383 2.320 . S
Tb336 O384 2.552 . S
Tb336 O385 2.413 . S
Tb336 O387 2.362 . S
Tb336 O388 2.421 . S
Tb336 C400 2.833 . S
C337 C340 1.432 . S
C337 C341 1.414 . S
C337 N344 1.359 1_655 S
C338 C340 1.417 . S
C338 C342 1.432 . S
C338 C350 1.410 . S
C339 C341 1.444 . S
C339 C342 1.317 . S
C339 H362 0.929 . S
C340 C337 1.432 . S
C340 C338 1.417 . S
C340 N348 1.360 1_655 S
C341 C337 1.414 . S
C341 C339 1.444 . S
C341 C346 1.385 . S
C342 C338 1.432 . S
C342 C339 1.317 . S
C342 H354 0.930 . S
C343 C345 1.392 1_655 S
C343 C346 1.370 . S
C343 H355 0.931 . S
N344 C337 1.359 1_455 S
N344 C345 1.327 . S
N344 Tb347 2.600 . S
C345 C343 1.392 1_455 S
C345 N344 1.327 . S
C345 H352 0.930 . S
C346 C341 1.385 . S
C346 C343 1.370 . S
C346 H365 0.930 . S
Tb347 N344 2.600 . S
Tb347 N348 2.660 . S
Tb347 O381 2.362 . S
Tb347 O382 2.421 . S
Tb347 O386 2.546 . S
Tb347 O387 2.610 . S
Tb347 O389 2.320 . S
Tb347 O390 2.552 . S
Tb347 O391 2.413 . S
Tb347 C411 2.833 . S
N348 C340 1.360 1_455 S
N348 Tb347 2.660 . S
N348 C349 1.305 . S
C349 N348 1.305 . S
C349 C351 1.407 1_455 S
C349 H356 0.930 . S
C350 C338 1.410 . S
C350 C351 1.345 . S
C350 H358 0.930 . S
C351 C349 1.407 1_655 S
C351 C350 1.345 . S
C351 H353 0.930 . S
H352 C345 0.930 . S
H353 C351 0.930 . S
H354 C342 0.930 . S
H355 C343 0.931 . S
H356 C349 0.930 . S
H357 C371 0.930 . S
H358 C350 0.930 . S
H359 C377 0.930 . S
H360 C368 0.930 . S
H361 C375 0.931 . S
H362 C339 0.929 . S
H363 C369 0.930 . S
H364 C402 0.930 . S
H365 C346 0.930 . S
H366 C401 0.929 . S
N367 Tb336 2.660 . S
N367 C368 1.305 . S
N367 C372 1.360 . S
C368 H360 0.930 . S
C368 N367 1.305 . S
C368 C371 1.407 . S
C369 H363 0.930 . S
C369 C370 1.410 . S
C369 C371 1.345 . S
C370 C369 1.410 . S
C370 C372 1.417 . S
C370 C402 1.432 . S
C371 H357 0.930 . S
C371 C368 1.407 . S
C371 C369 1.345 . S
C372 N367 1.360 . S
C372 C370 1.417 . S
C372 C376 1.432 . S
H373 C378 0.930 . S
N374 Tb336 2.600 . S
N374 C376 1.359 . S
N374 C377 1.327 1_565 S
C375 H361 0.931 . S
C375 C377 1.392 . S
C375 C378 1.370 . S
C376 C372 1.432 . S
C376 N374 1.359 . S
C376 C379 1.414 1_565 S
C377 H359 0.930 . S
C377 N374 1.327 1_545 S
C377 C375 1.392 . S
C378 H373 0.930 . S
C378 C375 1.370 . S
C378 C379 1.385 . S
C379 C376 1.414 1_545 S
C379 C378 1.385 . S
C379 C401 1.444 . S
O380 Tb336 2.546 . S
O380 C400 1.251 . S
O381 Tb336 2.610 . S
O381 Tb347 2.362 . S
O381 C392 1.283 . S
O382 Tb347 2.421 . S
O382 C399 1.262 . S
O383 Tb336 2.320 . S
O383 C399 1.260 . S
O384 Tb336 2.552 . S
O384 C392 1.243 . S
O385 Tb336 2.413 . S
O385 C400 1.256 . S
O386 Tb347 2.546 . S
O386 C411 1.251 . S
O387 Tb336 2.362 . S
O387 Tb347 2.610 . S
O387 C403 1.283 . S
O388 Tb336 2.421 . S
O388 C410 1.262 . S
O389 Tb347 2.320 . S
O389 C410 1.260 . S
O390 Tb347 2.552 . S
O390 C403 1.243 . S
O391 Tb347 2.413 . S
O391 C411 1.256 . S
C392 O381 1.283 . S
C392 O384 1.243 . S
C393 C395 1.382 . S
C393 C397 1.393 . S
C393 C400 1.500 . S
C394 C395 1.400 1_556 S
C394 C396 1.384 . S
C395 C393 1.382 . S
C395 C394 1.400 1_554 S
C395 H412 0.930 . S
C396 C394 1.384 . S
C396 C398 1.392 1_566 S
C396 H413 0.931 . S
C397 C393 1.393 . S
C397 C398 1.401 1_565 S
C397 H414 0.930 1_565 S
C398 C396 1.392 1_544 S
C398 C397 1.401 1_545 S
C398 H415 0.930 1_554 S
C399 O382 1.262 . S
C399 O383 1.260 . S
C400 Tb336 2.833 . S
C400 O380 1.251 . S
C400 O385 1.256 . S
C400 C393 1.500 . S
C401 H366 0.929 . S
C401 C379 1.444 . S
C401 C402 1.317 1_545 S
C402 H364 0.930 . S
C402 C370 1.432 . S
C402 C401 1.317 1_565 S
C403 O387 1.283 . S
C403 O390 1.243 . S
C404 C405 1.382 . S
C404 C408 1.393 . S
C404 C411 1.500 . S
C405 C404 1.382 . S
C405 C406 1.400 . S
C405 H416 0.930 . S
C406 C405 1.400 . S
C406 C407 1.384 . S
C407 C406 1.384 . S
C407 C409 1.392 . S
C407 H417 0.931 . S
C408 C404 1.393 . S
C408 C409 1.401 . S
C408 H418 0.930 . S
C409 C407 1.392 . S
C409 C408 1.401 . S
C409 H419 0.930 . S
C410 O388 1.262 . S
C410 O389 1.260 . S
C411 Tb347 2.833 . S
C411 O386 1.251 . S
C411 O391 1.256 . S
C411 C404 1.500 . S
H412 C395 0.930 . S
H413 C396 0.931 . S
H414 C397 0.930 1_545 S
H415 C398 0.930 1_556 S
H416 C405 0.930 . S
H417 C407 0.931 . S
H418 C408 0.930 . S
H419 C409 0.930 . S
Tb420 N451 2.660 . S
Tb420 N458 2.600 . S
Tb420 O464 2.546 . S
Tb420 O465 2.610 . S
Tb420 O467 2.320 . S
Tb420 O468 2.552 . S
Tb420 O469 2.413 . S
Tb420 O471 2.362 . S
Tb420 O472 2.421 . S
Tb420 C484 2.833 . S
C421 C424 1.432 . S
C421 C425 1.414 . S
C421 N428 1.359 1_565 S
C422 C424 1.417 . S
C422 C426 1.432 . S
C422 C434 1.410 . S
C423 C425 1.444 . S
C423 C426 1.317 . S
C423 H446 0.929 . S
C424 C421 1.432 . S
C424 C422 1.417 . S
C424 N432 1.360 1_565 S
C425 C421 1.414 . S
C425 C423 1.444 . S
C425 C430 1.385 . S
C426 C422 1.432 . S
C426 C423 1.317 . S
C426 H438 0.930 . S
C427 C429 1.392 1_565 S
C427 C430 1.370 . S
C427 H439 0.931 . S
N428 C421 1.359 1_545 S
N428 C429 1.327 . S
N428 Tb431 2.600 . S
C429 C427 1.392 1_545 S
C429 N428 1.327 . S
C429 H436 0.930 . S
C430 C425 1.385 . S
C430 C427 1.370 . S
C430 H449 0.930 . S
Tb431 N428 2.600 . S
Tb431 N432 2.660 . S
Tb431 O465 2.362 . S
Tb431 O466 2.421 . S
Tb431 O470 2.546 . S
Tb431 O471 2.610 . S
Tb431 O473 2.320 . S
Tb431 O474 2.552 . S
Tb431 O475 2.413 . S
Tb431 C495 2.833 . S
N432 C424 1.360 1_545 S
N432 Tb431 2.660 . S
N432 C433 1.305 . S
C433 N432 1.305 . S
C433 C435 1.407 1_545 S
C433 H440 0.930 . S
C434 C422 1.410 . S
C434 C435 1.345 . S
C434 H442 0.930 . S
C435 C433 1.407 1_565 S
C435 C434 1.345 . S
C435 H437 0.930 . S
H436 C429 0.930 . S
H437 C435 0.930 . S
H438 C426 0.930 . S
H439 C427 0.931 . S
H440 C433 0.930 . S
H441 C455 0.930 . S
H442 C434 0.930 . S
H443 C461 0.930 . S
H444 C452 0.930 . S
H445 C459 0.931 . S
H446 C423 0.929 . S
H447 C453 0.930 . S
H448 C486 0.930 . S
H449 C430 0.930 . S
H450 C485 0.929 . S
N451 Tb420 2.660 . S
N451 C452 1.305 . S
N451 C456 1.360 . S
C452 H444 0.930 . S
C452 N451 1.305 . S
C452 C455 1.407 . S
C453 H447 0.930 . S
C453 C454 1.410 . S
C453 C455 1.345 . S
C454 C453 1.410 . S
C454 C456 1.417 . S
C454 C486 1.432 . S
C455 H441 0.930 . S
C455 C452 1.407 . S
C455 C453 1.345 . S
C456 N451 1.360 . S
C456 C454 1.417 . S
C456 C460 1.432 . S
H457 C462 0.930 . S
N458 Tb420 2.600 . S
N458 C460 1.359 . S
N458 C461 1.327 . S
C459 H445 0.931 . S
C459 C461 1.392 . S
C459 C462 1.370 . S
C460 C456 1.432 . S
C460 N458 1.359 . S
C460 C463 1.414 . S
C461 H443 0.930 . S
C461 N458 1.327 . S
C461 C459 1.392 . S
C462 H457 0.930 . S
C462 C459 1.370 . S
C462 C463 1.385 . S
C463 C460 1.414 . S
C463 C462 1.385 . S
C463 C485 1.444 . S
O464 Tb420 2.546 . S
O464 C484 1.251 . S
O465 Tb420 2.610 . S
O465 Tb431 2.362 . S
O465 C476 1.283 . S
O466 Tb431 2.421 . S
O466 C483 1.262 . S
O467 Tb420 2.320 . S
O467 C483 1.260 . S
O468 Tb420 2.552 . S
O468 C476 1.243 . S
O469 Tb420 2.413 . S
O469 C484 1.256 . S
O470 Tb431 2.546 . S
O470 C495 1.251 . S
O471 Tb420 2.362 . S
O471 Tb431 2.610 . S
O471 C487 1.283 . S
O472 Tb420 2.421 . S
O472 C494 1.262 . S
O473 Tb431 2.320 . S
O473 C494 1.260 . S
O474 Tb431 2.552 . S
O474 C487 1.243 . S
O475 Tb431 2.413 . S
O475 C495 1.256 . S
C476 O465 1.283 . S
C476 O468 1.243 . S
C477 C479 1.382 . S
C477 C481 1.393 . S
C477 C484 1.500 . S
C478 C479 1.400 . S
C478 C480 1.384 . S
C479 C477 1.382 . S
C479 C478 1.400 . S
C479 H496 0.930 . S
C480 C478 1.384 . S
C480 C482 1.392 . S
C480 H497 0.931 . S
C481 C477 1.393 . S
C481 C482 1.401 . S
C481 H498 0.930 . S
C482 C480 1.392 . S
C482 C481 1.401 . S
C482 H499 0.930 . S
C483 O466 1.262 . S
C483 O467 1.260 . S
C484 Tb420 2.833 . S
C484 O464 1.251 . S
C484 O469 1.256 . S
C484 C477 1.500 . S
C485 H450 0.929 . S
C485 C463 1.444 . S
C485 C486 1.317 . S
C486 H448 0.930 . S
C486 C454 1.432 . S
C486 C485 1.317 . S
C487 O471 1.283 . S
C487 O474 1.243 . S
C488 C489 1.382 1_556 S
C488 C492 1.393 . S
C488 C495 1.500 . S
C489 C488 1.382 1_554 S
C489 C490 1.400 . S
C489 H500 0.930 1_554 S
C490 C489 1.400 . S
C490 C491 1.384 . S
C491 C490 1.384 . S
C491 C493 1.392 . S
C491 H501 0.931 . S
C492 C488 1.393 . S
C492 C493 1.401 1_556 S
C492 H502 0.930 . S
C493 C491 1.392 . S
C493 C492 1.401 1_554 S
C493 H503 0.930 . S
C494 O472 1.262 . S
C494 O473 1.260 . S
C495 Tb431 2.833 . S
C495 O470 1.251 . S
C495 O475 1.256 . S
C495 C488 1.500 . S
H496 C479 0.930 . S
H497 C480 0.931 . S
H498 C481 0.930 . S
H499 C482 0.930 . S
H500 C489 0.930 1_556 S
H501 C491 0.931 . S
H502 C492 0.930 . S
H503 C493 0.930 . S
C504 C505 1.387 . S
C504 H508 0.950 . S
C504 C513 1.390 . S
C505 C504 1.387 . S
C505 C507 1.387 . S
H506 C513 0.950 . S
C507 C505 1.387 . S
C507 C509 1.390 . S
C507 H511 0.950 . S
H508 C504 0.950 . S
C509 C507 1.390 . S
C509 C510 1.387 . S
C509 H512 0.950 . S
C510 C509 1.387 . S
C510 C513 1.387 . S
H511 C507 0.950 . S
H512 C509 0.950 . S
C513 C504 1.390 . S
C513 H506 0.950 . S
C513 C510 1.387 . S
C514 C515 1.387 . S
C514 H518 0.950 . S
C514 C523 1.390 1_455 S
C515 C514 1.387 . S
C515 C517 1.387 1_455 S
H516 C523 0.950 . S
C517 C515 1.387 1_655 S
C517 C519 1.390 . S
C517 H521 0.950 . S
H518 C514 0.950 . S
C519 C517 1.390 . S
C519 C520 1.387 . S
C519 H522 0.950 . S
C520 C519 1.387 . S
C520 C523 1.387 . S
H521 C517 0.950 . S
H522 C519 0.950 . S
C523 C514 1.390 1_655 S
C523 H516 0.950 . S
C523 C520 1.387 . S
C524 C525 1.387 . S
C524 H528 0.950 . S
C524 C533 1.390 1_545 S
C525 C524 1.387 . S
C525 C527 1.387 . S
H526 C533 0.950 . S
C527 C525 1.387 . S
C527 C529 1.390 1_545 S
C527 H531 0.950 . S
H528 C524 0.950 . S
C529 C527 1.390 1_565 S
C529 C530 1.387 . S
C529 H532 0.950 . S
C530 C529 1.387 . S
C530 C533 1.387 . S
H531 C527 0.950 . S
H532 C529 0.950 . S
C533 C524 1.390 1_565 S
C533 H526 0.950 . S
C533 C530 1.387 . S
C534 C535 1.387 . S
C534 H538 0.950 . S
C534 C543 1.390 . S
C535 C534 1.387 . S
C535 C537 1.387 . S
H536 C543 0.950 . S
C537 C535 1.387 . S
C537 C539 1.390 . S
C537 H541 0.950 . S
H538 C534 0.950 . S
C539 C537 1.390 . S
C539 C540 1.387 . S
C539 H542 0.950 . S
C540 C539 1.387 . S
C540 C543 1.387 . S
H541 C537 0.950 . S
H542 C539 0.950 . S
C543 C534 1.390 . S
C543 H536 0.950 . S
C543 C540 1.387 . S
C544 C545 1.387 . S
C544 H548 0.950 . S
C544 C553 1.390 1_455 S
C545 C544 1.387 . S
C545 C547 1.387 . S
H546 C553 0.950 . S
C547 C545 1.387 . S
C547 C549 1.390 1_455 S
C547 H551 0.950 . S
H548 C544 0.950 . S
C549 C547 1.390 1_655 S
C549 C550 1.387 . S
C549 H552 0.950 . S
C550 C549 1.387 . S
C550 C553 1.387 . S
H551 C547 0.950 . S
H552 C549 0.950 . S
C553 C544 1.390 1_655 S
C553 H546 0.950 . S
C553 C550 1.387 . S
C554 C555 1.387 . S
C554 H558 0.950 . S
C554 C563 1.390 1_545 S
C555 C554 1.387 . S
C555 C557 1.387 . S
H556 C563 0.950 . S
C557 C555 1.387 . S
C557 C559 1.390 1_545 S
C557 H561 0.950 . S
H558 C554 0.950 . S
C559 C557 1.390 1_565 S
C559 C560 1.387 . S
C559 H562 0.950 . S
C560 C559 1.387 . S
C560 C563 1.387 . S
H561 C557 0.950 . S
H562 C559 0.950 . S
C563 C554 1.390 1_565 S
C563 H556 0.950 . S
C563 C560 1.387 . S
C564 C565 1.387 . S
C564 H568 0.950 . S
C564 C573 1.390 . S
C565 C564 1.387 . S
C565 C567 1.387 . S
H566 C573 0.950 . S
C567 C565 1.387 . S
C567 C569 1.390 . S
C567 H571 0.950 . S
H568 C564 0.950 . S
C569 C567 1.390 . S
C569 C570 1.387 . S
C569 H572 0.950 . S
C570 C569 1.387 . S
C570 C573 1.387 . S
H571 C567 0.950 . S
H572 C569 0.950 . S
C573 C564 1.390 . S
C573 H566 0.950 . S
C573 C570 1.387 . S
C574 C575 1.387 . S
C574 H578 0.950 . S
C574 C583 1.390 . S
C575 C574 1.387 . S
C575 C577 1.387 . S
H576 C583 0.950 . S
C577 C575 1.387 . S
C577 C579 1.390 . S
C577 H581 0.950 . S
H578 C574 0.950 . S
C579 C577 1.390 . S
C579 C580 1.387 . S
C579 H582 0.950 . S
C580 C579 1.387 . S
C580 C583 1.387 . S
H581 C577 0.950 . S
H582 C579 0.950 . S
C583 C574 1.390 . S
C583 H576 0.950 . S
C583 C580 1.387 . S
C584 C585 1.387 . S
C584 H588 0.950 . S
C584 C593 1.390 . S
C585 C584 1.387 . S
C585 C587 1.387 . S
H586 C593 0.950 . S
C587 C585 1.387 . S
C587 C589 1.390 . S
C587 H591 0.950 . S
H588 C584 0.950 . S
C589 C587 1.390 . S
C589 C590 1.387 . S
C589 H592 0.950 . S
C590 C589 1.387 . S
C590 C593 1.387 . S
H591 C587 0.950 . S
H592 C589 0.950 . S
C593 C584 1.390 . S
C593 H586 0.950 . S
C593 C590 1.387 . S
C594 C595 1.387 . S
C594 H598 0.950 . S
C594 C603 1.390 . S
C595 C594 1.387 . S
C595 C597 1.387 . S
H596 C603 0.950 . S
C597 C595 1.387 . S
C597 C599 1.390 . S
C597 H601 0.950 . S
H598 C594 0.950 . S
C599 C597 1.390 . S
C599 C600 1.387 . S
C599 H602 0.950 . S
C600 C599 1.387 . S
C600 C603 1.387 . S
H601 C597 0.950 . S
H602 C599 0.950 . S
C603 C594 1.390 . S
C603 H596 0.950 . S
C603 C600 1.387 . S
C604 C605 1.387 . S
C604 H608 0.950 . S
C604 C613 1.390 . S
C605 C604 1.387 . S
C605 C607 1.387 . S
H606 C613 0.950 . S
C607 C605 1.387 . S
C607 C609 1.390 . S
C607 H611 0.950 . S
H608 C604 0.950 . S
C609 C607 1.390 . S
C609 C610 1.387 . S
C609 H612 0.950 . S
C610 C609 1.387 . S
C610 C613 1.387 . S
H611 C607 0.950 . S
H612 C609 0.950 . S
C613 C604 1.390 . S
C613 H606 0.950 . S
C613 C610 1.387 . S
C614 C615 1.387 . S
C614 H618 0.950 . S
C614 C623 1.390 . S
C615 C614 1.387 . S
C615 C617 1.387 . S
H616 C623 0.950 . S
C617 C615 1.387 . S
C617 C619 1.390 . S
C617 H621 0.950 . S
H618 C614 0.950 . S
C619 C617 1.390 . S
C619 C620 1.387 . S
C619 H622 0.950 . S
C620 C619 1.387 . S
C620 C623 1.387 . S
H621 C617 0.950 . S
H622 C619 0.950 . S
C623 C614 1.390 . S
C623 H616 0.950 . S
C623 C620 1.387 . S
C624 C625 1.387 . S
C624 H628 0.950 . S
C624 C633 1.390 . S
C625 C624 1.387 . S
C625 C627 1.387 . S
H626 C633 0.950 . S
C627 C625 1.387 . S
C627 C629 1.390 . S
C627 H631 0.950 . S
H628 C624 0.950 . S
C629 C627 1.390 . S
C629 C630 1.387 . S
C629 H632 0.950 . S
C630 C629 1.387 . S
C630 C633 1.387 . S
H631 C627 0.950 . S
H632 C629 0.950 . S
C633 C624 1.390 . S
C633 H626 0.950 . S
C633 C630 1.387 . S
C634 C635 1.387 . S
C634 H638 0.950 . S
C634 C643 1.390 . S
C635 C634 1.387 . S
C635 C637 1.387 . S
H636 C643 0.950 . S
C637 C635 1.387 . S
C637 C639 1.390 . S
C637 H641 0.950 . S
H638 C634 0.950 . S
C639 C637 1.390 . S
C639 C640 1.387 . S
C639 H642 0.950 . S
C640 C639 1.387 . S
C640 C643 1.387 . S
H641 C637 0.950 . S
H642 C639 0.950 . S
C643 C634 1.390 . S
C643 H636 0.950 . S
C643 C640 1.387 . S
C644 C645 1.387 . S
C644 H648 0.950 . S
C644 C653 1.390 . S
C645 C644 1.387 . S
C645 C647 1.387 . S
H646 C653 0.950 . S
C647 C645 1.387 . S
C647 C649 1.390 . S
C647 H651 0.950 . S
H648 C644 0.950 . S
C649 C647 1.390 . S
C649 C650 1.387 . S
C649 H652 0.950 . S
C650 C649 1.387 . S
C650 C653 1.387 . S
H651 C647 0.950 . S
H652 C649 0.950 . S
C653 C644 1.390 . S
C653 H646 0.950 . S
C653 C650 1.387 . S
C654 C655 1.387 . S
C654 H658 0.950 . S
C654 C663 1.390 . S
C655 C654 1.387 . S
C655 C657 1.387 . S
H656 C663 0.950 . S
C657 C655 1.387 . S
C657 C659 1.390 . S
C657 H661 0.950 . S
H658 C654 0.950 . S
C659 C657 1.390 . S
C659 C660 1.387 . S
C659 H662 0.950 . S
C660 C659 1.387 . S
C660 C663 1.387 . S
H661 C657 0.950 . S
H662 C659 0.950 . S
C663 C654 1.390 . S
C663 H656 0.950 . S
C663 C660 1.387 . S
C664 C665 1.387 . S
C664 H668 0.950 . S
C664 C673 1.390 . S
C665 C664 1.387 . S
C665 C667 1.387 . S
H666 C673 0.950 . S
C667 C665 1.387 . S
C667 C669 1.390 . S
C667 H671 0.950 . S
H668 C664 0.950 . S
C669 C667 1.390 . S
C669 C670 1.387 . S
C669 H672 0.950 . S
C670 C669 1.387 . S
C670 C673 1.387 . S
H671 C667 0.950 . S
H672 C669 0.950 . S
C673 C664 1.390 . S
C673 H666 0.950 . S
C673 C670 1.387 . S
C674 C675 1.387 . S
C674 H678 0.950 . S
C674 C683 1.390 . S
C675 C674 1.387 . S
C675 C677 1.387 . S
H676 C683 0.950 . S
C677 C675 1.387 . S
C677 C679 1.390 . S
C677 H681 0.950 . S
H678 C674 0.950 . S
C679 C677 1.390 . S
C679 C680 1.387 . S
C679 H682 0.950 . S
C680 C679 1.387 . S
C680 C683 1.387 . S
H681 C677 0.950 . S
H682 C679 0.950 . S
C683 C674 1.390 . S
C683 H676 0.950 . S
C683 C680 1.387 . S
C505 C494 1.484 . S
C510 C56 1.389 . S
C515 C74 1.483 . S
C520 C140 1.389 . S
C525 C158 1.484 . S
C530 C224 1.389 . S
C535 C242 1.484 . S
C540 C308 1.393 . S
C545 C392 1.389 . S
C550 C326 1.483 . S
C555 C476 1.393 . S
C560 C410 1.484 . S
C565 C58 1.671 . S
C570 C70 1.671 . S
C575 C142 1.671 . S
C580 C154 1.671 . S
C585 C226 1.669 . S
C590 C238 1.669 . S
C595 C310 1.671 . S
C600 C322 1.671 . S
C605 C406 1.669 . S
C610 C394 1.669 . S
C615 C478 1.670 . S
C620 C490 1.670 . S
C625 C67 1.441 . S
C630 C399 1.537 . S
C635 C151 1.441 . S
C640 C483 1.536 . S
C645 C63 1.535 . S
C650 C235 1.443 . S
C655 C147 1.537 . S
C660 C319 1.442 . S
C665 C403 1.445 . S
C670 C231 1.535 . S
C675 C315 1.535 . S
C680 C487 1.442 . S
