# Generated by pormake.
# Topology wna, (6)-cn, num edge types: 1
# Building blocks:
#     Node 0, Type 0, BuildingBlock: INOVEN_clean_sbu_0, # of connection points: 6
#     Node 1, Type 0, BuildingBlock: INOVEN_clean_sbu_0, # of connection points: 6
#     Node 2, Type 0, BuildingBlock: INOVEN_clean_sbu_0, # of connection points: 6
#     Node 3, Type 0, BuildingBlock: INOVEN_clean_sbu_0, # of connection points: 6
#     Node 4, Type 0, BuildingBlock: INOVEN_clean_sbu_0, # of connection points: 6
#     Node 5, Type 0, BuildingBlock: INOVEN_clean_sbu_0, # of connection points: 6
#     Node 6, Type 0, BuildingBlock: INOVEN_clean_sbu_0, # of connection points: 6
#     Node 7, Type 0, BuildingBlock: INOVEN_clean_sbu_0, # of connection points: 6
#     Node 8, Type 0, BuildingBlock: INOVEN_clean_sbu_0, # of connection points: 6
#     Node 9, Type 0, BuildingBlock: INOVEN_clean_sbu_0, # of connection points: 6
#     Node 10, Type 0, BuildingBlock: INOVEN_clean_sbu_0, # of connection points: 6
#     Node 11, Type 0, BuildingBlock: INOVEN_clean_sbu_0, # of connection points: 6
#     Node 12, Type 0, BuildingBlock: INOVEN_clean_sbu_0, # of connection points: 6
#     Node 13, Type 0, BuildingBlock: INOVEN_clean_sbu_0, # of connection points: 6
#     Node 14, Type 0, BuildingBlock: INOVEN_clean_sbu_0, # of connection points: 6
#     Node 15, Type 0, BuildingBlock: INOVEN_clean_sbu_0, # of connection points: 6
#     Node 16, Type 0, BuildingBlock: INOVEN_clean_sbu_0, # of connection points: 6
#     Node 17, Type 0, BuildingBlock: INOVEN_clean_sbu_0, # of connection points: 6
#     Node 18, Type 0, BuildingBlock: INOVEN_clean_sbu_0, # of connection points: 6
#     Node 19, Type 0, BuildingBlock: INOVEN_clean_sbu_0, # of connection points: 6
#     Node 20, Type 0, BuildingBlock: INOVEN_clean_sbu_0, # of connection points: 6
#     Node 21, Type 0, BuildingBlock: INOVEN_clean_sbu_0, # of connection points: 6
#     Node 22, Type 0, BuildingBlock: INOVEN_clean_sbu_0, # of connection points: 6
#     Node 23, Type 0, BuildingBlock: INOVEN_clean_sbu_0, # of connection points: 6
#     Node 24, Type 0, BuildingBlock: INOVEN_clean_sbu_0, # of connection points: 6
#     Node 25, Type 0, BuildingBlock: INOVEN_clean_sbu_0, # of connection points: 6
#     Node 26, Type 0, BuildingBlock: INOVEN_clean_sbu_0, # of connection points: 6
#     Node 27, Type 0, BuildingBlock: INOVEN_clean_sbu_0, # of connection points: 6
#     Node 28, Type 0, BuildingBlock: INOVEN_clean_sbu_0, # of connection points: 6
#     Node 29, Type 0, BuildingBlock: INOVEN_clean_sbu_0, # of connection points: 6
#     Node 30, Type 0, BuildingBlock: INOVEN_clean_sbu_0, # of connection points: 6
#     Node 31, Type 0, BuildingBlock: INOVEN_clean_sbu_0, # of connection points: 6
#     Node 32, Type 0, BuildingBlock: INOVEN_clean_sbu_0, # of connection points: 6
#     Node 33, Type 0, BuildingBlock: INOVEN_clean_sbu_0, # of connection points: 6
#     Node 34, Type 0, BuildingBlock: INOVEN_clean_sbu_0, # of connection points: 6
#     Node 35, Type 0, BuildingBlock: INOVEN_clean_sbu_0, # of connection points: 6
#     Edge 36, Type (0, 0), BuildingBlock: CIFDUS_clean_linker_0, # of connection points: 2
#     Edge 37, Type (0, 0), BuildingBlock: CIFDUS_clean_linker_0, # of connection points: 2
#     Edge 38, Type (0, 0), BuildingBlock: CIFDUS_clean_linker_0, # of connection points: 2
#     Edge 39, Type (0, 0), BuildingBlock: CIFDUS_clean_linker_0, # of connection points: 2
#     Edge 40, Type (0, 0), BuildingBlock: CIFDUS_clean_linker_0, # of connection points: 2
#     Edge 41, Type (0, 0), BuildingBlock: CIFDUS_clean_linker_0, # of connection points: 2
#     Edge 42, Type (0, 0), BuildingBlock: CIFDUS_clean_linker_0, # of connection points: 2
#     Edge 43, Type (0, 0), BuildingBlock: CIFDUS_clean_linker_0, # of connection points: 2
#     Edge 44, Type (0, 0), BuildingBlock: CIFDUS_clean_linker_0, # of connection points: 2
#     Edge 45, Type (0, 0), BuildingBlock: CIFDUS_clean_linker_0, # of connection points: 2
#     Edge 46, Type (0, 0), BuildingBlock: CIFDUS_clean_linker_0, # of connection points: 2
#     Edge 47, Type (0, 0), BuildingBlock: CIFDUS_clean_linker_0, # of connection points: 2
#     Edge 48, Type (0, 0), BuildingBlock: CIFDUS_clean_linker_0, # of connection points: 2
#     Edge 49, Type (0, 0), BuildingBlock: CIFDUS_clean_linker_0, # of connection points: 2
#     Edge 50, Type (0, 0), BuildingBlock: CIFDUS_clean_linker_0, # of connection points: 2
#     Edge 51, Type (0, 0), BuildingBlock: CIFDUS_clean_linker_0, # of connection points: 2
#     Edge 52, Type (0, 0), BuildingBlock: CIFDUS_clean_linker_0, # of connection points: 2
#     Edge 53, Type (0, 0), BuildingBlock: CIFDUS_clean_linker_0, # of connection points: 2
#     Edge 54, Type (0, 0), BuildingBlock: CIFDUS_clean_linker_0, # of connection points: 2
#     Edge 55, Type (0, 0), BuildingBlock: CIFDUS_clean_linker_0, # of connection points: 2
#     Edge 56, Type (0, 0), BuildingBlock: CIFDUS_clean_linker_0, # of connection points: 2
#     Edge 57, Type (0, 0), BuildingBlock: CIFDUS_clean_linker_0, # of connection points: 2
#     Edge 58, Type (0, 0), BuildingBlock: CIFDUS_clean_linker_0, # of connection points: 2
#     Edge 59, Type (0, 0), BuildingBlock: CIFDUS_clean_linker_0, # of connection points: 2
#     Edge 60, Type (0, 0), BuildingBlock: CIFDUS_clean_linker_0, # of connection points: 2
#     Edge 61, Type (0, 0), BuildingBlock: CIFDUS_clean_linker_0, # of connection points: 2
#     Edge 62, Type (0, 0), BuildingBlock: CIFDUS_clean_linker_0, # of connection points: 2
#     Edge 63, Type (0, 0), BuildingBlock: CIFDUS_clean_linker_0, # of connection points: 2
#     Edge 64, Type (0, 0), BuildingBlock: CIFDUS_clean_linker_0, # of connection points: 2
#     Edge 65, Type (0, 0), BuildingBlock: CIFDUS_clean_linker_0, # of connection points: 2
#     Edge 66, Type (0, 0), BuildingBlock: CIFDUS_clean_linker_0, # of connection points: 2
#     Edge 67, Type (0, 0), BuildingBlock: CIFDUS_clean_linker_0, # of connection points: 2
#     Edge 68, Type (0, 0), BuildingBlock: CIFDUS_clean_linker_0, # of connection points: 2
#     Edge 69, Type (0, 0), BuildingBlock: CIFDUS_clean_linker_0, # of connection points: 2
#     Edge 70, Type (0, 0), BuildingBlock: CIFDUS_clean_linker_0, # of connection points: 2
#     Edge 71, Type (0, 0), BuildingBlock: CIFDUS_clean_linker_0, # of connection points: 2
#     Edge 72, Type (0, 0), BuildingBlock: CIFDUS_clean_linker_0, # of connection points: 2
#     Edge 73, Type (0, 0), BuildingBlock: CIFDUS_clean_linker_0, # of connection points: 2
#     Edge 74, Type (0, 0), BuildingBlock: CIFDUS_clean_linker_0, # of connection points: 2
#     Edge 75, Type (0, 0), BuildingBlock: CIFDUS_clean_linker_0, # of connection points: 2
#     Edge 76, Type (0, 0), BuildingBlock: CIFDUS_clean_linker_0, # of connection points: 2
#     Edge 77, Type (0, 0), BuildingBlock: CIFDUS_clean_linker_0, # of connection points: 2
#     Edge 78, Type (0, 0), BuildingBlock: CIFDUS_clean_linker_0, # of connection points: 2
#     Edge 79, Type (0, 0), BuildingBlock: CIFDUS_clean_linker_0, # of connection points: 2
#     Edge 80, Type (0, 0), BuildingBlock: CIFDUS_clean_linker_0, # of connection points: 2
#     Edge 81, Type (0, 0), BuildingBlock: CIFDUS_clean_linker_0, # of connection points: 2
#     Edge 82, Type (0, 0), BuildingBlock: CIFDUS_clean_linker_0, # of connection points: 2
#     Edge 83, Type (0, 0), BuildingBlock: CIFDUS_clean_linker_0, # of connection points: 2
#     Edge 84, Type (0, 0), BuildingBlock: CIFDUS_clean_linker_0, # of connection points: 2
#     Edge 85, Type (0, 0), BuildingBlock: CIFDUS_clean_linker_0, # of connection points: 2
#     Edge 86, Type (0, 0), BuildingBlock: CIFDUS_clean_linker_0, # of connection points: 2
#     Edge 87, Type (0, 0), BuildingBlock: CIFDUS_clean_linker_0, # of connection points: 2
#     Edge 88, Type (0, 0), BuildingBlock: CIFDUS_clean_linker_0, # of connection points: 2
#     Edge 89, Type (0, 0), BuildingBlock: CIFDUS_clean_linker_0, # of connection points: 2
#     Edge 90, Type (0, 0), BuildingBlock: CIFDUS_clean_linker_0, # of connection points: 2
#     Edge 91, Type (0, 0), BuildingBlock: CIFDUS_clean_linker_0, # of connection points: 2
#     Edge 92, Type (0, 0), BuildingBlock: CIFDUS_clean_linker_0, # of connection points: 2
#     Edge 93, Type (0, 0), BuildingBlock: CIFDUS_clean_linker_0, # of connection points: 2
#     Edge 94, Type (0, 0), BuildingBlock: CIFDUS_clean_linker_0, # of connection points: 2
#     Edge 95, Type (0, 0), BuildingBlock: CIFDUS_clean_linker_0, # of connection points: 2
#     Edge 96, Type (0, 0), BuildingBlock: CIFDUS_clean_linker_0, # of connection points: 2
#     Edge 97, Type (0, 0), BuildingBlock: CIFDUS_clean_linker_0, # of connection points: 2
#     Edge 98, Type (0, 0), BuildingBlock: CIFDUS_clean_linker_0, # of connection points: 2
#     Edge 99, Type (0, 0), BuildingBlock: CIFDUS_clean_linker_0, # of connection points: 2
#     Edge 100, Type (0, 0), BuildingBlock: CIFDUS_clean_linker_0, # of connection points: 2
#     Edge 101, Type (0, 0), BuildingBlock: CIFDUS_clean_linker_0, # of connection points: 2
#     Edge 102, Type (0, 0), BuildingBlock: CIFDUS_clean_linker_0, # of connection points: 2
#     Edge 103, Type (0, 0), BuildingBlock: CIFDUS_clean_linker_0, # of connection points: 2
#     Edge 104, Type (0, 0), BuildingBlock: CIFDUS_clean_linker_0, # of connection points: 2
#     Edge 105, Type (0, 0), BuildingBlock: CIFDUS_clean_linker_0, # of connection points: 2
#     Edge 106, Type (0, 0), BuildingBlock: CIFDUS_clean_linker_0, # of connection points: 2
#     Edge 107, Type (0, 0), BuildingBlock: CIFDUS_clean_linker_0, # of connection points: 2
#     Edge 108, Type (0, 0), BuildingBlock: CIFDUS_clean_linker_0, # of connection points: 2
#     Edge 109, Type (0, 0), BuildingBlock: CIFDUS_clean_linker_0, # of connection points: 2
#     Edge 110, Type (0, 0), BuildingBlock: CIFDUS_clean_linker_0, # of connection points: 2
#     Edge 111, Type (0, 0), BuildingBlock: CIFDUS_clean_linker_0, # of connection points: 2
#     Edge 112, Type (0, 0), BuildingBlock: CIFDUS_clean_linker_0, # of connection points: 2
#     Edge 113, Type (0, 0), BuildingBlock: CIFDUS_clean_linker_0, # of connection points: 2
#     Edge 114, Type (0, 0), BuildingBlock: CIFDUS_clean_linker_0, # of connection points: 2
#     Edge 115, Type (0, 0), BuildingBlock: CIFDUS_clean_linker_0, # of connection points: 2
#     Edge 116, Type (0, 0), BuildingBlock: CIFDUS_clean_linker_0, # of connection points: 2
#     Edge 117, Type (0, 0), BuildingBlock: CIFDUS_clean_linker_0, # of connection points: 2
#     Edge 118, Type (0, 0), BuildingBlock: CIFDUS_clean_linker_0, # of connection points: 2
#     Edge 119, Type (0, 0), BuildingBlock: CIFDUS_clean_linker_0, # of connection points: 2
#     Edge 120, Type (0, 0), BuildingBlock: CIFDUS_clean_linker_0, # of connection points: 2
#     Edge 121, Type (0, 0), BuildingBlock: CIFDUS_clean_linker_0, # of connection points: 2
#     Edge 122, Type (0, 0), BuildingBlock: CIFDUS_clean_linker_0, # of connection points: 2
#     Edge 123, Type (0, 0), BuildingBlock: CIFDUS_clean_linker_0, # of connection points: 2
#     Edge 124, Type (0, 0), BuildingBlock: CIFDUS_clean_linker_0, # of connection points: 2
#     Edge 125, Type (0, 0), BuildingBlock: CIFDUS_clean_linker_0, # of connection points: 2
#     Edge 126, Type (0, 0), BuildingBlock: CIFDUS_clean_linker_0, # of connection points: 2
#     Edge 127, Type (0, 0), BuildingBlock: CIFDUS_clean_linker_0, # of connection points: 2
#     Edge 128, Type (0, 0), BuildingBlock: CIFDUS_clean_linker_0, # of connection points: 2
#     Edge 129, Type (0, 0), BuildingBlock: CIFDUS_clean_linker_0, # of connection points: 2
#     Edge 130, Type (0, 0), BuildingBlock: CIFDUS_clean_linker_0, # of connection points: 2
#     Edge 131, Type (0, 0), BuildingBlock: CIFDUS_clean_linker_0, # of connection points: 2
#     Edge 132, Type (0, 0), BuildingBlock: CIFDUS_clean_linker_0, # of connection points: 2
#     Edge 133, Type (0, 0), BuildingBlock: CIFDUS_clean_linker_0, # of connection points: 2
#     Edge 134, Type (0, 0), BuildingBlock: CIFDUS_clean_linker_0, # of connection points: 2
#     Edge 135, Type (0, 0), BuildingBlock: CIFDUS_clean_linker_0, # of connection points: 2
#     Edge 136, Type (0, 0), BuildingBlock: CIFDUS_clean_linker_0, # of connection points: 2
#     Edge 137, Type (0, 0), BuildingBlock: CIFDUS_clean_linker_0, # of connection points: 2
#     Edge 138, Type (0, 0), BuildingBlock: CIFDUS_clean_linker_0, # of connection points: 2
#     Edge 139, Type (0, 0), BuildingBlock: CIFDUS_clean_linker_0, # of connection points: 2
#     Edge 140, Type (0, 0), BuildingBlock: CIFDUS_clean_linker_0, # of connection points: 2
#     Edge 141, Type (0, 0), BuildingBlock: CIFDUS_clean_linker_0, # of connection points: 2
#     Edge 142, Type (0, 0), BuildingBlock: CIFDUS_clean_linker_0, # of connection points: 2
#     Edge 143, Type (0, 0), BuildingBlock: CIFDUS_clean_linker_0, # of connection points: 2
# Relax obj value: 0.153
# Max RMSD: 0.230
# Mean RMSD: 0.211
data_MOF--net-wna--node1-INOVEN_clean_sbu_0--edge1-CIFDUS_clean_linker_0
_symmetry_space_group_name_H-M    P1
_symmetry_Int_Tables_number       1
_symmetry_cell_setting            triclinic
loop_
_symmetry_equiv_pos_as_xyz
'x, y, z'
_cell_length_a     36.137188
_cell_length_b     36.051779
_cell_length_c     140.26942
_cell_angle_alpha  89.959836
_cell_angle_beta   90.071021
_cell_angle_gamma 119.89737
loop_
_atom_site_label
_atom_site_type_symbol
_atom_site_fract_x
_atom_site_fract_y
_atom_site_fract_z
_atom_type_partial_charge
Gd0 Gd 0.13736 0.25127 0.17652 0.0
Gd1 Gd 0.14303 0.2515 0.19912 0.0
C2 C 0.2316 0.30593 0.18729 0.0
C3 C 0.13763 0.26929 0.15855 0.0
C4 C 0.16249 0.29035 0.14975 0.0
C5 C 0.17858 0.26987 0.14389 0.0
C6 C 0.1644 0.32792 0.14635 0.0
C7 C 0.19496 0.32245 0.1312 0.0
C8 C 0.1804 0.34376 0.13724 0.0
C9 C 0.19475 0.2858 0.13478 0.0
C10 C 0.14214 0.18538 0.184 0.0
C11 C 0.05345 0.18754 0.18855 0.0
C12 C 0.14306 0.22876 0.21668 0.0
C13 C 0.11763 0.21631 0.22566 0.0
C14 C 0.10233 0.2415 0.2299 0.0
C15 C 0.11074 0.17911 0.23041 0.0
C16 C 0.07682 0.19394 0.2438 0.0
C17 C 0.09066 0.16806 0.23932 0.0
C18 C 0.08197 0.23031 0.23886 0.0
C19 C 0.11208 0.3039 0.19307 0.0
O20 O 0.20913 0.29606 0.1792 0.0
O21 O 0.21309 0.2915 0.19569 0.0
O22 O 0.13799 0.23531 0.16169 0.0
O23 O 0.13538 0.29278 0.16542 0.0
O24 O 0.12126 0.18312 0.1763 0.0
O25 O 0.16233 0.2235 0.18721 0.0
O26 O 0.0786 0.19612 0.19603 0.0
O27 O 0.06703 0.20967 0.18046 0.0
O28 O 0.16162 0.26887 0.21391 0.0
O29 O 0.12806 0.20157 0.20958 0.0
O30 O 0.12009 0.29945 0.20186 0.0
O31 O 0.12272 0.28156 0.18814 0.0
H32 H 0.1773 0.24057 0.1462 0.0
H33 H 0.15166 0.34412 0.15058 0.0
H34 H 0.17931 0.37165 0.13478 0.0
H35 H 0.20631 0.2688 0.13046 0.0
H36 H 0.10692 0.27029 0.22641 0.0
H37 H 0.12192 0.15894 0.22731 0.0
H38 H 0.08653 0.13937 0.24278 0.0
H39 H 0.07177 0.25103 0.24208 0.0
Gd40 Gd 0.77512 0.89359 0.17613 0.0
Gd41 Gd 0.77566 0.89649 0.19716 0.0
C42 C 0.71849 0.93035 0.18697 0.0
C43 C 0.7545 0.87232 0.15843 0.0
C44 C 0.73854 0.88009 0.1493 0.0
C45 C 0.76647 0.89631 0.14148 0.0
C46 C 0.69507 0.86616 0.14784 0.0
C47 C 0.7072 0.87997 0.13071 0.0
C48 C 0.67965 0.86636 0.13866 0.0
C49 C 0.75107 0.89628 0.13232 0.0
C50 C 0.83515 0.97039 0.18252 0.0
C51 C 0.84869 0.88463 0.18676 0.0
C52 C 0.79205 0.90727 0.21539 0.0
C53 C 0.80389 0.89131 0.22401 0.0
C54 C 0.77696 0.85039 0.22785 0.0
C55 C 0.84148 0.91924 0.22898 0.0
C56 C 0.82467 0.86628 0.24151 0.0
C57 C 0.85165 0.90698 0.23765 0.0
C58 C 0.78747 0.83791 0.23647 0.0
C59 C 0.72439 0.81591 0.18939 0.0
O60 O 0.72356 0.91263 0.1791 0.0
O61 O 0.73956 0.93192 0.1948 0.0
O62 O 0.79272 0.90112 0.16122 0.0
O63 O 0.72789 0.8539 0.16553 0.0
O64 O 0.83784 0.95288 0.17471 0.0
O65 O 0.79837 0.94852 0.18626 0.0
O66 O 0.83847 0.89938 0.1943 0.0
O67 O 0.82379 0.87227 0.17911 0.0
O68 O 0.7536 0.88451 0.21186 0.0
O69 O 0.82102 0.926 0.20879 0.0
O70 O 0.71415 0.83095 0.19667 0.0
O71 O 0.7611 0.84383 0.1868 0.0
H72 H 0.8001 0.90697 0.14236 0.0
H73 H 0.67264 0.85351 0.1537 0.0
H74 H 0.64581 0.85449 0.13777 0.0
H75 H 0.77338 0.90671 0.12644 0.0
H76 H 0.74752 0.82822 0.22429 0.0
H77 H 0.86271 0.95105 0.22625 0.0
H78 H 0.8807 0.92931 0.24133 0.0
H79 H 0.76604 0.80639 0.23932 0.0
Gd80 Gd 0.14042 0.88867 0.1751 0.0
Gd81 Gd 0.12698 0.88428 0.19837 0.0
C82 C 0.10214 0.79697 0.18627 0.0
C83 C 0.17124 0.8932 0.15822 0.0
C84 C 0.16183 0.87023 0.14893 0.0
C85 C 0.12808 0.86482 0.14297 0.0
C86 C 0.18977 0.85674 0.14559 0.0
C87 C 0.15247 0.83541 0.13027 0.0
C88 C 0.18528 0.83973 0.13642 0.0
C89 C 0.12338 0.84748 0.13377 0.0
C90 C 0.05778 0.86411 0.17994 0.0
C91 C 0.15349 0.97185 0.18668 0.0
C92 C 0.10269 0.88469 0.21576 0.0
C93 C 0.12002 0.90778 0.22498 0.0
C94 C 0.15464 0.90808 0.22966 0.0
C95 C 0.09996 0.92795 0.22946 0.0
C96 C 0.14696 0.94601 0.24337 0.0
C97 C 0.11319 0.94679 0.23851 0.0
C98 C 0.16794 0.92698 0.23871 0.0
C99 C 0.21157 0.9153 0.19323 0.0
O100 O 0.12286 0.82075 0.17875 0.0
O101 O 0.09554 0.81349 0.19418 0.0
O102 O 0.1492 0.9118 0.16055 0.0
O103 O 0.17984 0.87589 0.16552 0.0
O104 O 0.07131 0.86746 0.17124 0.0
O105 O 0.08878 0.87246 0.18539 0.0
O106 O 0.1333 0.94743 0.19412 0.0
O107 O 0.16565 0.95798 0.1792 0.0
O108 O 0.1161 0.85889 0.21277 0.0
O109 O 0.09756 0.90608 0.20881 0.0
O110 O 0.1974 0.90819 0.2019 0.0
O111 O 0.1794 0.90423 0.18801 0.0
H112 H 0.10583 0.87478 0.14532 0.0
H113 H 0.21624 0.86077 0.14997 0.0
H114 H 0.20892 0.83172 0.13405 0.0
H115 H 0.09722 0.84407 0.12937 0.0
H116 H 0.17115 0.89319 0.22641 0.0
H117 H 0.07318 0.92824 0.22606 0.0
H118 H 0.09584 0.96066 0.24181 0.0
H119 H 0.19465 0.92642 0.24206 0.0
Gd120 Gd 0.25996 0.13787 0.3618 0.0
Gd121 Gd 0.25376 0.13334 0.34027 0.0
C122 C 0.3108 0.22721 0.34962 0.0
C123 C 0.2836 0.14151 0.3794 0.0
C124 C 0.2965 0.16472 0.38862 0.0
C125 C 0.26796 0.17226 0.39397 0.0
C126 C 0.33494 0.1727 0.39288 0.0
C127 C 0.31388 0.19027 0.408 0.0
C128 C 0.34361 0.18539 0.40244 0.0
C129 C 0.27661 0.18496 0.40353 0.0
C130 C 0.19496 0.14661 0.35525 0.0
C131 C 0.19095 0.04891 0.35236 0.0
C132 C 0.23244 0.12488 0.32232 0.0
C133 C 0.21843 0.09848 0.31349 0.0
C134 C 0.24308 0.08304 0.30907 0.0
C135 C 0.18171 0.09298 0.30878 0.0
C136 C 0.19602 0.0601 0.2951 0.0
C137 C 0.17064 0.0741 0.29974 0.0
C138 C 0.23183 0.06384 0.3 0.0
C139 C 0.31057 0.11115 0.34807 0.0
O140 O 0.3088 0.20714 0.35772 0.0
O141 O 0.28814 0.20543 0.34211 0.0
O142 O 0.24395 0.12592 0.37668 0.0
O143 O 0.31071 0.15422 0.37227 0.0
O144 O 0.19598 0.13229 0.36365 0.0
O145 O 0.23098 0.1618 0.35118 0.0
O146 O 0.19621 0.07017 0.34433 0.0
O147 O 0.21764 0.06667 0.3596 0.0
O148 O 0.27176 0.14047 0.32531 0.0
O149 O 0.20507 0.11489 0.32929 0.0
O150 O 0.31667 0.13201 0.34015 0.0
O151 O 0.27452 0.10235 0.35114 0.0
H152 H 0.23795 0.16639 0.39093 0.0
H153 H 0.35728 0.16669 0.38898 0.0
H154 H 0.37247 0.18881 0.40562 0.0
H155 H 0.25335 0.18922 0.40752 0.0
H156 H 0.27173 0.08699 0.31248 0.0
H157 H 0.16222 0.10474 0.31197 0.0
H158 H 0.14244 0.07114 0.2963 0.0
H159 H 0.25223 0.05359 0.29665 0.0
Gd160 Gd 0.88586 0.13081 0.36285 0.0
Gd161 Gd 0.89235 0.11881 0.33982 0.0
C162 C 0.7991 0.08629 0.34987 0.0
C163 C 0.88634 0.16257 0.3794 0.0
C164 C 0.8675 0.14956 0.38908 0.0
C165 C 0.87491 0.12167 0.39475 0.0
C166 C 0.84585 0.169 0.39314 0.0
C167 C 0.8444 0.13744 0.40862 0.0
C168 C 0.83422 0.16286 0.40279 0.0
C169 C 0.86355 0.11576 0.4044 0.0
C170 C 0.86652 0.04924 0.35883 0.0
C171 C 0.97367 0.14368 0.35314 0.0
C172 C 0.89618 0.09634 0.32245 0.0
C173 C 0.9194 0.11425 0.31329 0.0
C174 C 0.91931 0.14882 0.30864 0.0
C175 C 0.93991 0.09458 0.3088 0.0
C176 C 0.95789 0.14207 0.29497 0.0
C177 C 0.95885 0.10821 0.29979 0.0
C178 C 0.93833 0.16255 0.29963 0.0
C179 C 0.92079 0.20318 0.34528 0.0
O180 O 0.81806 0.10819 0.35776 0.0
O181 O 0.82084 0.08286 0.3426 0.0
O182 O 0.91394 0.15095 0.3768 0.0
O183 O 0.86142 0.16115 0.37242 0.0
O184 O 0.86578 0.06316 0.36733 0.0
O185 O 0.87651 0.0795 0.35296 0.0
O186 O 0.95247 0.12338 0.34537 0.0
O187 O 0.95652 0.15587 0.36 0.0
O188 O 0.86894 0.10818 0.32527 0.0
O189 O 0.91779 0.09229 0.32951 0.0
O190 O 0.92119 0.19105 0.33661 0.0
O191 O 0.90367 0.16931 0.35005 0.0
H192 H 0.89112 0.10577 0.39185 0.0
H193 H 0.83973 0.19063 0.38895 0.0
H194 H 0.81963 0.18012 0.40581 0.0
H195 H 0.8712 0.0954 0.40867 0.0
H196 H 0.90402 0.16495 0.3119 0.0
H197 H 0.94041 0.06778 0.31217 0.0
H198 H 0.97302 0.09113 0.29649 0.0
H199 H 0.93754 0.18925 0.2963 0.0
Gd200 Gd 0.89768 0.76797 0.36174 0.0
Gd201 Gd 0.90041 0.77139 0.33884 0.0
C202 C 0.93374 0.71301 0.34994 0.0
C203 C 0.87546 0.74399 0.37928 0.0
C204 C 0.88535 0.72963 0.38844 0.0
C205 C 0.9115 0.75969 0.39534 0.0
C206 C 0.86369 0.68606 0.39095 0.0
C207 C 0.89126 0.7033 0.40726 0.0
C208 C 0.86672 0.67306 0.40022 0.0
C209 C 0.91449 0.74671 0.40461 0.0
C210 C 0.97069 0.831 0.35446 0.0
C211 C 0.884 0.83861 0.35054 0.0
C212 C 0.91962 0.79076 0.32103 0.0
C213 C 0.90396 0.80243 0.31229 0.0
C214 C 0.8783 0.77123 0.30555 0.0
C215 C 0.91746 0.84555 0.31023 0.0
C216 C 0.88066 0.82609 0.29483 0.0
C217 C 0.90603 0.85718 0.30165 0.0
C218 C 0.86663 0.78285 0.29697 0.0
C219 C 0.81775 0.72425 0.34575 0.0
O220 O 0.92453 0.72385 0.35834 0.0
O221 O 0.92726 0.72735 0.34171 0.0
O222 O 0.90017 0.78382 0.37668 0.0
O223 O 0.86104 0.71745 0.37203 0.0
O224 O 0.95719 0.83129 0.36302 0.0
O225 O 0.94827 0.7944 0.35064 0.0
O226 O 0.90072 0.83134 0.3429 0.0
O227 O 0.87191 0.81274 0.35811 0.0
O228 O 0.89822 0.75112 0.32413 0.0
O229 O 0.93431 0.81885 0.32796 0.0
O230 O 0.82734 0.73206 0.33681 0.0
O231 O 0.8526 0.74218 0.35013 0.0
H232 H 0.92844 0.79358 0.39373 0.0
H233 H 0.8428 0.66206 0.38588 0.0
H234 H 0.84806 0.6394 0.40197 0.0
H235 H 0.93432 0.77089 0.40976 0.0
H236 H 0.86762 0.73776 0.30683 0.0
H237 H 0.93776 0.87063 0.31517 0.0
H238 H 0.91822 0.89086 0.30028 0.0
H239 H 0.8465 0.75775 0.29203 0.0
Gd240 Gd 0.88885 0.76955 0.83724 0.0
Gd241 Gd 0.88938 0.76568 0.86077 0.0
C242 C 0.97253 0.83784 0.84926 0.0
C243 C 0.8902 0.79178 0.81962 0.0
C244 C 0.91444 0.79937 0.81055 0.0
C245 C 0.90312 0.76617 0.80391 0.0
C246 C 0.94633 0.84106 0.808 0.0
C247 C 0.95291 0.81652 0.79224 0.0
C248 C 0.96558 0.84946 0.79898 0.0
C249 C 0.92204 0.77469 0.79486 0.0
C250 C 0.92 0.71827 0.84406 0.0
C251 C 0.79836 0.71394 0.84898 0.0
C252 C 0.89227 0.74118 0.87799 0.0
C253 C 0.86952 0.72933 0.88734 0.0
C254 C 0.87657 0.76076 0.89418 0.0
C255 C 0.8446 0.68607 0.88995 0.0
C256 C 0.83705 0.70589 0.90622 0.0
C257 C 0.8285 0.6745 0.89924 0.0
C258 C 0.86044 0.7492 0.90347 0.0
C259 C 0.86729 0.8232 0.85414 0.0
O260 O 0.94984 0.82816 0.84131 0.0
O261 O 0.95865 0.81467 0.85723 0.0
O262 O 0.8666 0.75223 0.82264 0.0
O263 O 0.90927 0.81913 0.82655 0.0
O264 O 0.91435 0.72322 0.83512 0.0
O265 O 0.90775 0.74022 0.84863 0.0
O266 O 0.81943 0.71941 0.85716 0.0
O267 O 0.81803 0.73189 0.84081 0.0
O268 O 0.91107 0.7815 0.87537 0.0
O269 O 0.87527 0.71443 0.87081 0.0
O270 O 0.86953 0.81591 0.86316 0.0
O271 O 0.87475 0.79771 0.8495 0.0
H272 H 0.87865 0.73375 0.80558 0.0
H273 H 0.9555 0.86756 0.81287 0.0
H274 H 0.98905 0.88205 0.79713 0.0
H275 H 0.91196 0.74864 0.78982 0.0
H276 H 0.89573 0.79443 0.89247 0.0
H277 H 0.83888 0.66098 0.88492 0.0
H278 H 0.81102 0.64084 0.90105 0.0
H279 H 0.86707 0.77433 0.90857 0.0
Gd280 Gd 0.25636 0.12682 0.83935 0.0
Gd281 Gd 0.25613 0.1273 0.86071 0.0
C282 C 0.18524 0.14031 0.85042 0.0
C283 C 0.23966 0.11638 0.8211 0.0
C284 C 0.2274 0.13181 0.81241 0.0
C285 C 0.25215 0.17388 0.80895 0.0
C286 C 0.19208 0.10252 0.80697 0.0
C287 C 0.20696 0.15647 0.79473 0.0
C288 C 0.1821 0.11458 0.79823 0.0
C289 C 0.24184 0.1861 0.80025 0.0
C290 C 0.30795 0.20593 0.84752 0.0
C291 C 0.31707 0.09844 0.84967 0.0
C292 C 0.27281 0.14312 0.87876 0.0
C293 C 0.29395 0.1396 0.88755 0.0
C294 C 0.2733 0.10367 0.89357 0.0
C295 C 0.33183 0.17515 0.89077 0.0
C296 C 0.3264 0.14035 0.9061 0.0
C297 C 0.34781 0.17556 0.89989 0.0
C298 C 0.28943 0.10395 0.9027 0.0
C299 C 0.19585 0.05249 0.85331 0.0
O300 O 0.19523 0.1272 0.84256 0.0
O301 O 0.20864 0.14932 0.85823 0.0
O302 O 0.27802 0.1398 0.82463 0.0
O303 O 0.21084 0.09696 0.82771 0.0
O304 O 0.31752 0.19199 0.83994 0.0
O305 O 0.2713 0.17796 0.85016 0.0
O306 O 0.31189 0.11649 0.85739 0.0
O307 O 0.29403 0.09297 0.84193 0.0
O308 O 0.23974 0.1086 0.87545 0.0
O309 O 0.2962 0.16967 0.87201 0.0
O310 O 0.19166 0.06937 0.86106 0.0
O311 O 0.23361 0.07406 0.85004 0.0
H312 H 0.27985 0.1972 0.81288 0.0
H313 H 0.17255 0.06983 0.8094 0.0
H314 H 0.15476 0.09111 0.79423 0.0
H315 H 0.26181 0.21856 0.79774 0.0
H316 H 0.24373 0.07583 0.89139 0.0
H317 H 0.34816 0.20365 0.88641 0.0
H318 H 0.3759 0.20453 0.90222 0.0
H319 H 0.27233 0.07588 0.90715 0.0
Gd320 Gd 0.89864 0.135 0.83893 0.0
Gd321 Gd 0.89199 0.13216 0.8601 0.0
C322 C 0.8701 0.04543 0.84997 0.0
C323 C 0.91234 0.12846 0.82087 0.0
C324 C 0.89592 0.10139 0.81208 0.0
C325 C 0.87894 0.11406 0.80454 0.0
C326 C 0.90131 0.0657 0.81065 0.0
C327 C 0.87387 0.05665 0.79431 0.0
C328 C 0.89028 0.04358 0.80192 0.0
C329 C 0.86806 0.09205 0.79579 0.0
C330 C 0.81897 0.11513 0.84571 0.0
C331 C 0.93377 0.22549 0.84975 0.0
C332 C 0.87342 0.13387 0.87791 0.0
C333 C 0.88491 0.15768 0.88709 0.0
C334 C 0.92215 0.16648 0.89211 0.0
C335 C 0.85485 0.16556 0.8916 0.0
C336 C 0.89628 0.18546 0.90637 0.0
C337 C 0.86043 0.1793 0.9011 0.0
C338 C 0.92782 0.18034 0.90162 0.0
C339 C 0.96623 0.14094 0.85372 0.0
O340 O 0.89015 0.06914 0.84244 0.0
O341 O 0.8589 0.06191 0.85705 0.0
O342 O 0.89213 0.14767 0.82399 0.0
O343 O 0.92743 0.11559 0.82781 0.0
O344 O 0.83755 0.1383 0.83829 0.0
O345 O 0.84311 0.10231 0.84892 0.0
O346 O 0.91389 0.20215 0.85732 0.0
O347 O 0.9365 0.20693 0.84182 0.0
O348 O 0.89784 0.11915 0.87487 0.0
O349 O 0.85741 0.14603 0.87099 0.0
O350 O 0.94612 0.11922 0.86119 0.0
O351 O 0.94803 0.16009 0.85025 0.0
H352 H 0.87484 0.14169 0.80532 0.0
H353 H 0.91495 0.05531 0.8162 0.0
H354 H 0.89574 0.01684 0.80105 0.0
H355 H 0.85503 0.10282 0.79018 0.0
H356 H 0.94608 0.16082 0.88887 0.0
H357 H 0.8257 0.15873 0.88794 0.0
H358 H 0.83523 0.1825 0.90447 0.0
H359 H 0.95631 0.18564 0.90534 0.0
Gd360 Gd 0.77595 0.8866 0.69561 0.0
Gd361 Gd 0.77315 0.88721 0.67421 0.0
C362 C 0.83878 0.97456 0.68408 0.0
C363 C 0.79553 0.89424 0.71373 0.0
C364 C 0.80587 0.92142 0.72249 0.0
C365 C 0.77637 0.9084 0.73005 0.0
C366 C 0.84655 0.9575 0.72391 0.0
C367 C 0.82802 0.96618 0.74025 0.0
C368 C 0.85734 0.9797 0.73264 0.0
C369 C 0.78727 0.93038 0.73879 0.0
C370 C 0.71938 0.90912 0.68799 0.0
C371 C 0.71986 0.79568 0.6851 0.0
C372 C 0.75302 0.88506 0.65636 0.0
C373 C 0.73315 0.86011 0.64753 0.0
C374 C 0.75541 0.84683 0.64148 0.0
C375 C 0.69424 0.85549 0.64435 0.0
C376 C 0.70152 0.82771 0.62899 0.0
C377 C 0.67869 0.83962 0.63523 0.0
C378 C 0.73969 0.83064 0.63234 0.0
C379 C 0.83876 0.87944 0.68103 0.0
O380 O 0.83324 0.95199 0.69196 0.0
O381 O 0.81298 0.95752 0.67671 0.0
O382 O 0.7563 0.87507 0.71052 0.0
O383 O 0.82367 0.90674 0.70685 0.0
O384 O 0.71247 0.88673 0.69569 0.0
O385 O 0.75599 0.91939 0.68509 0.0
O386 O 0.72306 0.81887 0.6775 0.0
O387 O 0.74118 0.81434 0.693 0.0
O388 O 0.78923 0.88904 0.65928 0.0
O389 O 0.72827 0.88337 0.66338 0.0
O390 O 0.8398 0.89999 0.67337 0.0
O391 O 0.80138 0.86065 0.68458 0.0
H392 H 0.74497 0.88048 0.72927 0.0
H393 H 0.87048 0.96815 0.71835 0.0
H394 H 0.88914 1.00687 0.73351 0.0
H395 H 0.7637 0.91931 0.74443 0.0
H396 H 0.78577 0.85033 0.64364 0.0
H397 H 0.67669 0.86614 0.64874 0.0
H398 H 0.64966 0.83876 0.63294 0.0
H399 H 0.75795 0.82122 0.62785 0.0
Gd400 Gd 0.14019 0.89804 0.69708 0.0
Gd401 Gd 0.14291 0.89085 0.67466 0.0
C402 C 0.05604 0.87247 0.68455 0.0
C403 C 0.13687 0.92059 0.71444 0.0
C404 C 0.11327 0.90317 0.72356 0.0
C405 C 0.1263 0.88236 0.73011 0.0
C406 C 0.08009 0.91085 0.72621 0.0
C407 C 0.07563 0.87991 0.74195 0.0
C408 C 0.0613 0.89909 0.73527 0.0
C409 C 0.10775 0.87093 0.73918 0.0
C410 C 0.11094 0.81405 0.69193 0.0
C411 C 0.23294 0.93237 0.68677 0.0
C412 C 0.14661 0.87001 0.65709 0.0
C413 C 0.16952 0.88042 0.64781 0.0
C414 C 0.17919 0.91786 0.64272 0.0
C415 C 0.17536 0.84903 0.64327 0.0
C416 C 0.1953 0.8898 0.62839 0.0
C417 C 0.1881 0.85362 0.6337 0.0
C418 C 0.19203 0.92252 0.63314 0.0
C419 C 0.14984 0.96443 0.68124 0.0
O420 O 0.07841 0.89281 0.69217 0.0
O421 O 0.07233 0.86004 0.67762 0.0
O422 O 0.16289 0.90718 0.71165 0.0
O423 O 0.11639 0.92612 0.70734 0.0
O424 O 0.11617 0.82782 0.7006 0.0
O425 O 0.12346 0.84614 0.68657 0.0
O426 O 0.21329 0.91743 0.67845 0.0
O427 O 0.21173 0.93057 0.69465 0.0
O428 O 0.12976 0.89311 0.65973 0.0
O429 O 0.16043 0.8569 0.66428 0.0
O430 O 0.1335 0.94766 0.67306 0.0
O431 O 0.16612 0.94419 0.68507 0.0
H432 H 0.15175 0.87594 0.72836 0.0
H433 H 0.0695 0.92716 0.72139 0.0
H434 H 0.03679 0.90666 0.73719 0.0
H435 H 0.11907 0.85561 0.74411 0.0
H436 H 0.17505 0.94275 0.64599 0.0
H437 H 0.1677 0.81967 0.64697 0.0
H438 H 0.18982 0.82752 0.63033 0.0
H439 H 0.19811 0.95124 0.62937 0.0
Gd440 Gd 0.12942 0.25361 0.69663 0.0
Gd441 Gd 0.13657 0.25169 0.67544 0.0
C442 C 0.1469 0.18222 0.68677 0.0
C443 C 0.11753 0.23758 0.71491 0.0
C444 C 0.13286 0.22412 0.72347 0.0
C445 C 0.15966 0.25452 0.73023 0.0
C446 C 0.11713 0.18055 0.72553 0.0
C447 C 0.15356 0.19814 0.74103 0.0
C448 C 0.12729 0.16778 0.73415 0.0
C449 C 0.17004 0.24179 0.73884 0.0
C450 C 0.20984 0.30813 0.68961 0.0
C451 C 0.1007 0.31104 0.68493 0.0
C452 C 0.15706 0.27048 0.65758 0.0
C453 C 0.15048 0.28877 0.6486 0.0
C454 C 0.11632 0.26383 0.64237 0.0
C455 C 0.18199 0.32951 0.64552 0.0
C456 C 0.14715 0.3189 0.62997 0.0
C457 C 0.18038 0.34434 0.63637 0.0
C458 C 0.11458 0.27876 0.63321 0.0
C459 C 0.06003 0.19123 0.68204 0.0
O460 O 0.12988 0.19201 0.69396 0.0
O461 O 0.16054 0.20651 0.67908 0.0
O462 O 0.14176 0.27581 0.7114 0.0
O463 O 0.09732 0.20927 0.70827 0.0
O464 O 0.19111 0.3167 0.69641 0.0
O465 O 0.18499 0.27037 0.68685 0.0
O466 O 0.12085 0.30476 0.67776 0.0
O467 O 0.09494 0.29023 0.69308 0.0
O468 O 0.12631 0.23346 0.66053 0.0
O469 O 0.17816 0.2964 0.66462 0.0
O470 O 0.07808 0.18718 0.67446 0.0
O471 O 0.08068 0.22908 0.68525 0.0
H472 H 0.17202 0.28832 0.72897 0.0
H473 H 0.09588 0.15604 0.72059 0.0
H474 H 0.11328 0.13386 0.73552 0.0
H475 H 0.191 0.2664 0.74378 0.0
H476 H 0.09156 0.2321 0.64444 0.0
H477 H 0.20909 0.34933 0.65004 0.0
H478 H 0.20651 0.37509 0.63418 0.0
H479 H 0.088 0.25841 0.62862 0.0
Gd480 Gd 0.80531 0.58522 0.50912 0.0
Gd481 Gd 0.8064 0.58425 0.53038 0.0
C482 C 0.89709 0.64074 0.52029 0.0
C483 C 0.80613 0.60572 0.49132 0.0
C484 C 0.82987 0.62181 0.48219 0.0
C485 C 0.81818 0.59388 0.47435 0.0
C486 C 0.85935 0.66538 0.48073 0.0
C487 C 0.86117 0.65331 0.46358 0.0
C488 C 0.87501 0.68086 0.47156 0.0
C489 C 0.83356 0.60934 0.46518 0.0
C490 C 0.81729 0.52212 0.51579 0.0
C491 C 0.72186 0.5142 0.51952 0.0
C492 C 0.80018 0.5669 0.54855 0.0
C493 C 0.77382 0.55652 0.55733 0.0
C494 C 0.7559 0.58123 0.56041 0.0
C495 C 0.77005 0.52333 0.56322 0.0
C496 C 0.73334 0.54124 0.57545 0.0
C497 C 0.75021 0.5158 0.57215 0.0
C498 C 0.73577 0.57356 0.56935 0.0
C499 C 0.77973 0.63737 0.52248 0.0
O500 O 0.87525 0.63486 0.51227 0.0
O501 O 0.87745 0.6207 0.52818 0.0
O502 O 0.7971 0.5676 0.49418 0.0
O503 O 0.81348 0.63239 0.49838 0.0
O504 O 0.79795 0.5208 0.50792 0.0
O505 O 0.8339 0.55927 0.51955 0.0
O506 O 0.74598 0.52312 0.52716 0.0
O507 O 0.73519 0.539 0.51188 0.0
O508 O 0.81736 0.60569 0.5451 0.0
O509 O 0.78796 0.53775 0.5419 0.0
O510 O 0.80318 0.64618 0.53005 0.0
O511 O 0.77069 0.60066 0.51978 0.0
H512 H 0.79523 0.56018 0.4752 0.0
H513 H 0.86912 0.68783 0.4866 0.0
H514 H 0.89703 0.71475 0.47069 0.0
H515 H 0.82171 0.58697 0.45929 0.0
H516 H 0.75821 0.60703 0.55603 0.0
H517 H 0.78386 0.504 0.56105 0.0
H518 H 0.74968 0.49101 0.5766 0.0
H519 H 0.72249 0.59334 0.5715 0.0
Gd520 Gd 0.44244 0.22276 0.50862 0.0
Gd521 Gd 0.44026 0.22661 0.53005 0.0
C522 C 0.38084 0.25425 0.51854 0.0
C523 C 0.42537 0.20468 0.49069 0.0
C524 C 0.40876 0.21313 0.48175 0.0
C525 C 0.42973 0.25333 0.47722 0.0
C526 C 0.37512 0.17869 0.47694 0.0
C527 C 0.38666 0.22301 0.46286 0.0
C528 C 0.36417 0.18351 0.46763 0.0
C529 C 0.41873 0.25821 0.4679 0.0
C530 C 0.50145 0.29848 0.51568 0.0
C531 C 0.51138 0.20999 0.51955 0.0
C532 C 0.45593 0.23786 0.54837 0.0
C533 C 0.47072 0.22431 0.55704 0.0
C534 C 0.44146 0.19195 0.56317 0.0
C535 C 0.51376 0.24719 0.55991 0.0
C536 C 0.49788 0.20622 0.57483 0.0
C537 C 0.52708 0.23835 0.56863 0.0
C538 C 0.45482 0.18294 0.57189 0.0
C539 C 0.38844 0.1474 0.52211 0.0
O540 O 0.38824 0.23586 0.51119 0.0
O541 O 0.40132 0.25928 0.52673 0.0
O542 O 0.46214 0.23483 0.4939 0.0
O543 O 0.39842 0.18271 0.49749 0.0
O544 O 0.50648 0.2809 0.50814 0.0
O545 O 0.46366 0.27722 0.51888 0.0
O546 O 0.50178 0.22519 0.52717 0.0
O547 O 0.4869 0.19823 0.51189 0.0
O548 O 0.41836 0.21166 0.54478 0.0
O549 O 0.4839 0.25999 0.54178 0.0
O550 O 0.37812 0.16238 0.5294 0.0
O551 O 0.42577 0.17424 0.5197 0.0
H552 H 0.45583 0.28065 0.48072 0.0
H553 H 0.35868 0.14728 0.48021 0.0
H554 H 0.33962 0.15551 0.464 0.0
H555 H 0.43621 0.28933 0.46454 0.0
H556 H 0.40792 0.174 0.56132 0.0
H557 H 0.53721 0.27294 0.55553 0.0
H558 H 0.56033 0.25779 0.57059 0.0
H559 H 0.43121 0.15758 0.57631 0.0
Gd560 Gd 0.80594 0.21796 0.50976 0.0
Gd561 Gd 0.79849 0.21892 0.532 0.0
C562 C 0.76596 0.12683 0.52123 0.0
C563 C 0.82677 0.21401 0.49223 0.0
C564 C 0.81278 0.19066 0.483 0.0
C565 C 0.78678 0.19792 0.47666 0.0
C566 C 0.83062 0.16606 0.47982 0.0
C567 C 0.80073 0.16052 0.46387 0.0
C568 C 0.82439 0.15088 0.47042 0.0
C569 C 0.78089 0.18312 0.46724 0.0
C570 C 0.7328 0.21198 0.51609 0.0
C571 C 0.8257 0.30488 0.51988 0.0
C572 C 0.7733 0.22002 0.54924 0.0
C573 C 0.78697 0.24544 0.55822 0.0
C574 C 0.82358 0.25272 0.56333 0.0
C575 C 0.7609 0.26022 0.5621 0.0
C576 C 0.80567 0.28619 0.57636 0.0
C577 C 0.77014 0.28039 0.57101 0.0
C578 C 0.83286 0.27297 0.57229 0.0
C579 C 0.88275 0.24983 0.52716 0.0
O580 O 0.77546 0.14683 0.51288 0.0
O581 O 0.77233 0.14759 0.52944 0.0
O582 O 0.80832 0.23552 0.49497 0.0
O583 O 0.83642 0.19678 0.49936 0.0
O584 O 0.75068 0.22878 0.50801 0.0
O585 O 0.75199 0.19466 0.52005 0.0
O586 O 0.80574 0.28241 0.52753 0.0
O587 O 0.8377 0.28845 0.51291 0.0
O588 O 0.79252 0.19878 0.54676 0.0
O589 O 0.76413 0.23683 0.54196 0.0
O590 O 0.86824 0.24497 0.53577 0.0
O591 O 0.85131 0.23713 0.52158 0.0
H592 H 0.77264 0.21695 0.47881 0.0
H593 H 0.85096 0.16003 0.48448 0.0
H594 H 0.83927 0.13261 0.46823 0.0
H595 H 0.76266 0.19158 0.46248 0.0
H596 H 0.84446 0.24184 0.56054 0.0
H597 H 0.73258 0.2552 0.55833 0.0
H598 H 0.74894 0.29092 0.57378 0.0
H599 H 0.86043 0.27674 0.57618 0.0
Gd600 Gd 0.92589 0.47025 0.69518 0.0
Gd601 Gd 0.91705 0.46801 0.6725 0.0
C602 C 0.97572 0.56055 0.68302 0.0
C603 C 0.95264 0.47287 0.71248 0.0
C604 C 0.96533 0.49672 0.72167 0.0
C605 C 0.9343 0.49014 0.72856 0.0
C606 C 1.00867 0.52093 0.72423 0.0
C607 C 0.9895 0.52761 0.74056 0.0
C608 C 0.02063 0.53646 0.73355 0.0
C609 C 0.94626 0.50536 0.73788 0.0
C610 C 0.86081 0.48005 0.68891 0.0
C611 C 0.85396 0.38574 0.6849 0.0
C612 C 0.89382 0.46543 0.65492 0.0
C613 C 0.88727 0.44137 0.64589 0.0
C614 C 0.91749 0.43111 0.64237 0.0
C615 C 0.85055 0.43013 0.64046 0.0
C616 C 0.87512 0.4007 0.62786 0.0
C617 C 0.84455 0.41017 0.63157 0.0
C618 C 0.91146 0.41098 0.63347 0.0
C619 C 0.96797 0.43496 0.67858 0.0
O620 O 0.97013 0.54076 0.69138 0.0
O621 O 0.95701 0.53952 0.67506 0.0
O622 O 0.91232 0.45418 0.71007 0.0
O623 O 0.97846 0.48796 0.70514 0.0
O624 O 0.86298 0.46633 0.69733 0.0
O625 O 0.89619 0.49377 0.68458 0.0
O626 O 0.85801 0.40952 0.67739 0.0
O627 O 0.8824 0.39963 0.69193 0.0
O628 O 0.93317 0.48999 0.65791 0.0
O629 O 0.86679 0.44539 0.66185 0.0
O630 O 0.96052 0.43914 0.66973 0.0
O631 O 0.94897 0.44976 0.68331 0.0
H632 H 0.9006 0.47147 0.7269 0.0
H633 H 0.03336 0.52613 0.71915 0.0
H634 H 0.05419 0.55326 0.73541 0.0
H635 H 0.92155 0.49847 0.74309 0.0
H636 H 0.946 0.43906 0.64644 0.0
H637 H 0.82678 0.4377 0.643 0.0
H638 H 0.81643 0.40342 0.62749 0.0
H639 H 0.93539 0.40357 0.63099 0.0
Gd640 Gd 0.54974 0.45682 0.69516 0.0
Gd641 Gd 0.55909 0.45732 0.67266 0.0
C642 C 0.46488 0.42437 0.68179 0.0
C643 C 0.53281 0.46351 0.71267 0.0
C644 C 0.52212 0.46545 0.72279 0.0
C645 C 0.49848 0.42754 0.72806 0.0
C646 C 0.53437 0.50481 0.72721 0.0
C647 C 0.49989 0.46836 0.74202 0.0
C648 C 0.52333 0.50625 0.73671 0.0
C649 C 0.48751 0.42897 0.73756 0.0
C650 C 0.55156 0.38922 0.68763 0.0
C651 C 0.64113 0.48185 0.68649 0.0
C652 C 0.5651 0.43766 0.65519 0.0
C653 C 0.59089 0.453 0.64629 0.0
C654 C 0.59065 0.48477 0.64049 0.0
C655 C 0.61249 0.43214 0.64301 0.0
C656 C 0.63041 0.47206 0.62803 0.0
C657 C 0.63209 0.44161 0.63404 0.0
C658 C 0.61029 0.49427 0.63148 0.0
C659 C 0.58543 0.53899 0.67925 0.0
O660 O 0.48363 0.43967 0.69011 0.0
O661 O 0.48696 0.42537 0.67414 0.0
O662 O 0.51888 0.42675 0.70836 0.0
O663 O 0.55693 0.49739 0.70745 0.0
O664 O 0.56679 0.40505 0.69597 0.0
O665 O 0.53299 0.40765 0.68392 0.0
O666 O 0.62246 0.46705 0.6781 0.0
O667 O 0.62089 0.48698 0.69383 0.0
O668 O 0.5424 0.45527 0.65775 0.0
O669 O 0.58161 0.42788 0.66245 0.0
O670 O 0.58554 0.52887 0.67039 0.0
O671 O 0.5698 0.50451 0.68388 0.0
H672 H 0.48849 0.39663 0.72486 0.0
H673 H 0.55227 0.53451 0.72331 0.0
H674 H 0.53289 0.53713 0.73987 0.0
H675 H 0.46997 0.39922 0.74145 0.0
H676 H 0.57412 0.50138 0.64275 0.0
H677 H 0.61312 0.40738 0.64728 0.0
H678 H 0.64796 0.42441 0.63175 0.0
H679 H 0.60809 0.51774 0.62706 0.0
Gd680 Gd 0.56074 0.10058 0.69487 0.0
Gd681 Gd 0.56949 0.10446 0.67251 0.0
C682 C 0.59499 0.04242 0.6842 0.0
C683 C 0.54635 0.08473 0.71297 0.0
C684 C 0.54948 0.0631 0.72171 0.0
C685 C 0.58913 0.07427 0.72594 0.0
C686 C 0.51201 0.03597 0.72673 0.0
C687 C 0.55339 0.03496 0.74039 0.0
C688 C 0.5139 0.02205 0.73594 0.0
C689 C 0.59102 0.06011 0.73517 0.0
C690 C 0.6335 0.16626 0.68784 0.0
C691 C 0.53918 0.16366 0.68383 0.0
C692 C 0.5918 0.12901 0.65496 0.0
C693 C 0.57462 0.13749 0.64601 0.0
C694 C 0.53189 0.11164 0.64312 0.0
C695 C 0.60205 0.17164 0.64008 0.0
C696 C 0.54496 0.15341 0.62838 0.0
C697 C 0.58754 0.17949 0.63141 0.0
C698 C 0.51728 0.11951 0.63444 0.0
C699 C 0.48555 0.05074 0.67761 0.0
O700 O 0.57835 0.0496 0.69193 0.0
O701 O 0.59875 0.06269 0.67601 0.0
O702 O 0.58155 0.11621 0.70948 0.0
O703 O 0.51805 0.06236 0.7064 0.0
O704 O 0.61245 0.169 0.695 0.0
O705 O 0.61566 0.12827 0.68465 0.0
O706 O 0.5609 0.16062 0.67656 0.0
O707 O 0.52748 0.13709 0.69116 0.0
O708 O 0.57527 0.08917 0.6578 0.0
O709 O 0.60039 0.15571 0.66207 0.0
O710 O 0.49973 0.05712 0.66897 0.0
O711 O 0.51719 0.07192 0.68295 0.0
H712 H 0.61873 0.09548 0.72231 0.0
H713 H 0.48108 0.02715 0.72372 0.0
H714 H 0.48432 1.00218 0.73971 0.0
H715 H 0.62194 0.07073 0.73841 0.0
H716 H 0.50983 0.08507 0.64752 0.0
H717 H 0.63507 0.19225 0.64212 0.0
H718 H 0.60978 0.20636 0.62711 0.0
H719 H 0.48439 0.09838 0.63239 0.0
Gd720 Gd 0.5549 0.10661 0.17092 0.0
Gd721 Gd 0.55561 0.09555 0.19413 0.0
C722 C 0.63789 0.17242 0.18327 0.0
C723 C 0.5563 0.13219 0.15355 0.0
C724 C 0.58027 0.13959 0.14448 0.0
C725 C 0.59874 0.11485 0.1418 0.0
C726 C 0.58468 0.17237 0.13835 0.0
C727 C 0.62495 0.1553 0.12689 0.0
C728 C 0.6066 0.18008 0.12967 0.0
C729 C 0.62088 0.12267 0.13311 0.0
C730 C 0.58599 0.05273 0.17618 0.0
C731 C 0.46459 0.0486 0.18234 0.0
C732 C 0.56012 0.06813 0.21097 0.0
C733 C 0.53868 0.05496 0.22046 0.0
C734 C 0.53622 0.08419 0.22674 0.0
C735 C 0.52441 0.01318 0.22372 0.0
C736 C 0.50777 0.03039 0.23948 0.0
C737 C 0.5093 1.00109 0.23305 0.0
C738 C 0.52085 0.07202 0.2361 0.0
C739 C 0.53114 0.15353 0.18938 0.0
O740 O 0.61497 0.16471 0.17542 0.0
O741 O 0.62455 0.14673 0.19086 0.0
O742 O 0.53168 0.09246 0.15634 0.0
O743 O 0.57683 0.15824 0.16061 0.0
O744 O 0.58018 0.06105 0.16751 0.0
O745 O 0.57373 0.07297 0.18141 0.0
O746 O 0.48582 0.04933 0.19021 0.0
O747 O 0.48423 0.07048 0.17452 0.0
O748 O 0.57898 0.10879 0.20867 0.0
O749 O 0.54194 0.04254 0.20366 0.0
O750 O 0.53288 0.14192 0.19807 0.0
O751 O 0.54086 0.13205 0.18383 0.0
H752 H 0.59597 0.08943 0.14639 0.0
H753 H 0.57105 0.19213 0.14028 0.0
H754 H 0.60963 0.20592 0.12519 0.0
H755 H 0.63431 0.10272 0.1312 0.0
H756 H 0.54703 0.11677 0.2245 0.0
H757 H 0.52636 0.99004 0.21914 0.0
H758 H 0.50044 0.96901 0.23531 0.0
H759 H 0.51963 0.09546 0.24071 0.0
Gd760 Gd 0.92108 0.45982 0.17355 0.0
Gd761 Gd 0.92653 0.4608 0.19489 0.0
C762 C 0.85691 0.47985 0.18563 0.0
C763 C 0.90152 0.44863 0.15545 0.0
C764 C 0.89183 0.46475 0.14652 0.0
C765 C 0.91874 0.5063 0.14301 0.0
C766 C 0.85675 0.43635 0.14092 0.0
C767 C 0.87596 0.49018 0.12839 0.0
C768 C 0.84891 0.44881 0.132 0.0
C769 C 0.91083 0.51886 0.13409 0.0
C770 C 0.9767 0.53896 0.18142 0.0
C771 C 0.97815 0.42328 0.18298 0.0
C772 C 0.94768 0.47908 0.21268 0.0
C773 C 0.96387 0.47268 0.22192 0.0
C774 C 0.93595 0.45731 0.22975 0.0
C775 C 1.00746 0.48753 0.22348 0.0
C776 C 0.99533 0.47596 0.24069 0.0
C777 C 0.02293 0.48885 0.23274 0.0
C778 C 0.95138 0.45893 0.23899 0.0
C779 C 0.86175 0.38698 0.1881 0.0
O780 O 0.86258 0.46448 0.17755 0.0
O781 O 0.88364 0.48877 0.19286 0.0
O782 O 0.94069 0.46828 0.1587 0.0
O783 O 0.87304 0.43402 0.16226 0.0
O784 O 0.98367 0.52444 0.17358 0.0
O785 O 0.94072 0.51137 0.18442 0.0
O786 O 0.97691 0.44252 0.19094 0.0
O787 O 0.95443 0.42105 0.17556 0.0
O788 O 0.90975 0.44974 0.20985 0.0
O789 O 0.97418 0.49859 0.20562 0.0
O790 O 0.86131 0.40399 0.19617 0.0
O791 O 0.89847 0.40731 0.18431 0.0
H792 H 0.94633 0.52888 0.14708 0.0
H793 H 0.83566 0.40401 0.14338 0.0
H794 H 0.82143 0.42593 0.12794 0.0
H795 H 0.93274 0.55083 0.13155 0.0
H796 H 0.90223 0.44613 0.22881 0.0
H797 H 0.02989 0.49969 0.21762 0.0
H798 H 0.05683 0.50122 0.23367 0.0
H799 H 0.92898 0.44909 0.24485 0.0
Gd800 Gd 0.5681 0.4713 0.17149 0.0
Gd801 Gd 0.55906 0.46268 0.19255 0.0
C802 C 0.54853 0.38149 0.18131 0.0
C803 C 0.58282 0.46864 0.15333 0.0
C804 C 0.56683 0.44199 0.14451 0.0
C805 C 0.52454 0.42476 0.14126 0.0
C806 C 0.59559 0.43605 0.13887 0.0
C807 C 0.54074 0.39744 0.12675 0.0
C808 C 0.58281 0.41414 0.13013 0.0
C809 C 0.51167 0.40272 0.13251 0.0
C810 C 0.48657 0.44518 0.1779 0.0
C811 C 0.59531 0.5577 0.18307 0.0
C812 C 0.53816 0.46034 0.21041 0.0
C813 C 0.54237 0.48444 0.21938 0.0
C814 C 0.57924 0.50105 0.22514 0.0
C815 C 0.5066 0.48543 0.22294 0.0
C816 C 0.54318 0.51656 0.23804 0.0
C817 C 0.50692 0.50109 0.2321 0.0
C818 C 0.5797 0.51708 0.23431 0.0
C819 C 0.63609 0.47806 0.18647 0.0
O820 O 0.56564 0.40807 0.17406 0.0
O821 O 0.53569 0.39318 0.18901 0.0
O822 O 0.56125 0.48587 0.15675 0.0
O823 O 0.59883 0.45572 0.16004 0.0
O824 O 0.5058 0.47181 0.17102 0.0
O825 O 0.51132 0.43269 0.18101 0.0
O826 O 0.5736 0.53139 0.19015 0.0
O827 O 0.60307 0.54238 0.1752 0.0
O828 O 0.57092 0.45739 0.20751 0.0
O829 O 0.51559 0.4626 0.20334 0.0
O830 O 0.61627 0.45505 0.19382 0.0
O831 O 0.61629 0.49583 0.18302 0.0
H832 H 0.50154 0.42885 0.1454 0.0
H833 H 0.62839 0.44898 0.14116 0.0
H834 H 0.60602 0.41021 0.12605 0.0
H835 H 0.47911 0.39074 0.13016 0.0
H836 H 0.60738 0.50052 0.22269 0.0
H837 H 0.47746 0.47225 0.21879 0.0
H838 H 0.47774 0.49911 0.23465 0.0
H839 H 0.60857 0.52927 0.23852 0.0
Gd840 Gd 0.44611 0.22196 0.02875 0.0
Gd841 Gd 0.4366 0.22402 1.00786 0.0
C842 C 0.50516 0.31048 1.01733 0.0
C843 C 0.46987 0.22933 0.04659 0.0
C844 C 0.48197 0.25724 0.05527 0.0
C845 C 0.45123 0.25999 0.06093 0.0
C846 C 0.5244 0.27786 0.05854 0.0
C847 C 0.50509 0.30242 0.07303 0.0
C848 C 0.53578 0.30003 0.06725 0.0
C849 C 0.46264 0.28233 0.06966 0.0
C850 C 0.38496 0.24205 0.02334 0.0
C851 C 0.38371 0.13265 0.01872 0.0
C852 C 0.41219 0.22109 0.99027 0.0
C853 C 0.39533 0.19564 0.98135 0.0
C854 C 0.42178 0.18828 0.9752 0.0
C855 C 0.35406 0.18416 0.97824 0.0
C856 C 0.36701 0.16169 0.96273 0.0
C857 C 0.3401 0.1675 0.96908 0.0
C858 C 0.40772 0.17133 0.96603 0.0
C859 C 0.50223 0.21202 1.01299 0.0
O860 O 0.50254 0.28669 0.02476 0.0
O861 O 0.47636 0.29453 1.01047 0.0
O862 O 0.43007 0.20979 0.0438 0.0
O863 O 0.49649 0.24182 0.03942 0.0
O864 O 0.38189 0.21743 0.03036 0.0
O865 O 0.42091 0.25552 0.01947 0.0
O866 O 0.38445 0.15669 1.01152 0.0
O867 O 0.41058 0.15015 0.02594 0.0
O868 O 0.45137 0.23312 0.9928 0.0
O869 O 0.38661 0.21246 0.99758 0.0
O870 O 0.50186 0.23301 1.00556 0.0
O871 O 0.46621 0.19478 1.01708 0.0
H872 H 0.41811 0.24424 0.05873 0.0
H873 H 0.5488 0.27585 0.05447 0.0
H874 H 0.56864 0.31421 0.06956 0.0
H875 H 0.43804 0.28379 0.07376 0.0
H876 H 0.45395 0.19698 0.97731 0.0
H877 H 0.33312 0.19 0.98273 0.0
H878 H 0.30883 0.16124 0.96685 0.0
H879 H 0.4292 0.16663 0.96148 0.0
Gd880 Gd 0.79913 0.22638 0.0295 0.0
Gd881 Gd 0.80997 0.21993 1.0072 0.0
C882 C 0.72178 0.20927 1.0159 0.0
C883 C 0.79892 0.24153 0.0476 0.0
C884 C 0.77069 0.22756 0.0562 0.0
C885 C 0.77122 0.19802 0.06269 0.0
C886 C 0.74596 0.24653 0.05849 0.0
C887 C 0.72374 0.20748 0.07364 0.0
C888 C 0.72291 0.23668 0.06706 0.0
C889 C 0.74796 0.18796 0.07124 0.0
C890 C 0.76449 0.14579 0.02217 0.0
C891 C 0.89543 0.26221 0.02008 0.0
C892 C 0.81145 0.18995 0.99048 0.0
C893 C 0.83128 0.20082 0.9809 0.0
C894 C 0.84386 0.24033 0.97646 0.0
C895 C 0.83427 0.16908 0.97578 0.0
C896 C 0.85931 0.21466 0.96164 0.0
C897 C 0.84788 0.17575 0.96629 0.0
C898 C 0.85787 0.24723 0.96694 0.0
C899 C 0.82427 0.29948 1.01182 0.0
O900 O 0.74139 0.22729 0.02399 0.0
O901 O 0.73936 0.19643 1.0093 0.0
O902 O 0.81084 0.21528 0.04414 0.0
O903 O 0.79162 0.26265 0.04092 0.0
O904 O 0.74852 0.15666 0.02917 0.0
O905 O 0.79958 0.17773 0.01967 0.0
O906 O 0.87871 0.2494 1.01148 0.0
O907 O 0.87161 0.257 0.02776 0.0
O908 O 0.78586 0.20445 0.99277 0.0
O909 O 0.83466 0.18981 0.99764 0.0
O910 O 0.82574 0.28739 1.00317 0.0
O911 O 0.81689 0.2688 1.01726 0.0
H912 H 0.79022 0.18306 0.06124 0.0
H913 H 0.74516 0.2699 0.05377 0.0
H914 H 0.70538 0.25307 0.06862 0.0
H915 H 0.74905 0.16479 0.07597 0.0
H916 H 0.84195 0.26545 0.98027 0.0
H917 H 0.8245 0.13829 0.97903 0.0
H918 H 0.84762 0.14947 0.96251 0.0
H919 H 0.86701 0.27788 0.9637 0.0
Gd920 Gd 0.80206 0.58483 0.02951 0.0
Gd921 Gd 0.80418 0.58547 1.00794 0.0
C922 C 0.82032 0.51643 0.01841 0.0
C923 C 0.79052 0.56706 0.0477 0.0
C924 C 0.80464 0.55287 0.05633 0.0
C925 C 0.83836 0.58233 0.06213 0.0
C926 C 0.78086 0.51024 0.0595 0.0
C927 C 0.82317 0.52713 0.07418 0.0
C928 C 0.78995 0.49757 0.06825 0.0
C929 C 0.8476 0.56963 0.07088 0.0
C930 C 0.88092 0.63805 0.02162 0.0
C931 C 0.77292 0.64488 0.01897 0.0
C932 C 0.82227 0.60504 0.99004 0.0
C933 C 0.81511 0.62239 0.98101 0.0
C934 C 0.79743 0.59493 0.97313 0.0
C935 C 0.83098 0.66642 0.97965 0.0
C936 C 0.81598 0.65548 0.96251 0.0
C937 C 0.83116 0.6827 0.97053 0.0
C938 C 0.79782 0.61117 0.96402 0.0
C939 C 0.72923 0.52449 1.01508 0.0
O940 O 0.80703 0.52588 0.02633 0.0
O941 O 0.82827 0.53956 1.01057 0.0
O942 O 0.81509 0.60561 0.04434 0.0
O943 O 0.77048 0.53908 0.04096 0.0
O944 O 0.86588 0.64725 0.02907 0.0
O945 O 0.85372 0.60118 0.01886 0.0
O946 O 0.79128 0.63985 1.01129 0.0
O947 O 0.76769 0.62203 0.02676 0.0
O948 O 0.79204 0.56778 0.993 0.0
O949 O 0.84353 0.63119 0.99704 0.0
O950 O 0.74471 0.52186 1.00697 0.0
O951 O 0.75114 0.5618 0.01855 0.0
H952 H 0.85713 0.61555 0.06001 0.0
H953 H 0.75415 0.48676 0.05534 0.0
H954 H 0.76981 0.46474 0.0705 0.0
H955 H 0.8739 0.59335 0.07509 0.0
H956 H 0.78527 0.56088 0.97391 0.0
H957 H 0.8448 0.68855 0.98555 0.0
H958 H 0.84447 0.71689 0.96974 0.0
H959 H 0.78612 0.58901 0.95809 0.0
Gd960 Gd 0.47621 0.92069 0.84257 0.0
Gd961 Gd 0.47253 0.92031 0.8642 0.0
C962 C 0.5649 0.97819 0.85427 0.0
C963 C 0.47866 0.93944 0.82465 0.0
C964 C 0.50219 0.95883 0.81566 0.0
C965 C 0.50684 0.93316 0.80873 0.0
C966 C 0.5127 1.00071 0.81316 0.0
C967 C 0.52593 0.98864 0.79671 0.0
C968 C 0.52452 0.01544 0.80382 0.0
C969 C 0.51881 0.94799 0.79936 0.0
C970 C 0.4861 0.85863 0.85053 0.0
C971 C 0.39006 0.8503 0.85214 0.0
C972 C 0.46503 0.90306 0.88239 0.0
C973 C 0.43941 0.89334 0.89132 0.0
C974 C 0.43444 0.92495 0.89606 0.0
C975 C 0.42485 0.85369 0.89588 0.0
C976 C 0.40383 0.87854 0.91002 0.0
C977 C 0.40725 0.84633 0.90508 0.0
C978 C 0.41676 0.91758 0.90525 0.0
C979 C 0.44782 0.97305 0.85545 0.0
O980 O 0.5444 0.97135 0.84606 0.0
O981 O 0.54441 0.95872 0.86219 0.0
O982 O 0.47642 0.90412 0.82774 0.0
O983 O 0.47897 0.96429 0.83153 0.0
O984 O 0.46974 0.85584 0.84216 0.0
O985 O 0.50168 0.89615 0.8539 0.0
O986 O 0.41003 0.86048 0.86046 0.0
O987 O 0.40684 0.87397 0.84445 0.0
O988 O 0.48281 0.94184 0.8789 0.0
O989 O 0.45264 0.87373 0.87576 0.0
O990 O 0.46911 0.98178 0.86335 0.0
O991 O 0.43978 0.9364 0.85287 0.0
H992 H 0.49858 0.90056 0.81037 0.0
H993 H 0.50927 0.0213 0.81828 0.0
H994 H 0.53045 0.04718 0.80203 0.0
H995 H 0.51945 0.92649 0.79406 0.0
H996 H 0.44542 0.95596 0.89281 0.0
H997 H 0.42873 0.82885 0.89249 0.0
H998 H 0.39809 0.81598 0.90848 0.0
H999 H 0.41388 0.94292 0.90868 0.0
Gd1000 Gd 0.0997 0.55884 0.84374 0.0
Gd1001 Gd 0.11 0.5621 0.86502 0.0
C1002 C 0.05088 0.59795 0.85589 0.0
C1003 C 0.07643 0.54952 0.82615 0.0
C1004 C 0.06302 0.54412 0.81608 0.0
C1005 C 0.0919 0.56857 0.80888 0.0
C1006 C 0.02035 0.51619 0.81368 0.0
C1007 C 0.03557 0.5357 0.79685 0.0
C1008 C 1.00663 0.51248 0.80422 0.0
C1009 C 0.07848 0.56405 0.79935 0.0
C1010 C 0.17101 0.62873 0.84998 0.0
C1011 C 0.16997 0.53917 0.85264 0.0
C1012 C 0.1216 0.57495 0.88327 0.0
C1013 C 0.13101 0.55847 0.89218 0.0
C1014 C 0.09928 0.52189 0.89687 0.0
C1015 C 0.17131 0.58176 0.89654 0.0
C1016 C 0.14778 0.53277 0.91015 0.0
C1017 C 0.17963 0.56908 0.90538 0.0
C1018 C 0.10758 0.50919 0.90571 0.0
C1019 C 0.06295 0.4812 0.85766 0.0
O1020 O 0.05313 0.58104 0.84772 0.0
O1021 O 0.07221 0.59691 0.86346 0.0
O1022 O 0.09795 0.58714 0.83015 0.0
O1023 O 0.06807 0.51685 0.83167 0.0
O1024 O 0.16874 0.6079 0.84229 0.0
O1025 O 0.13493 0.6125 0.85399 0.0
O1026 O 0.1683 0.55947 0.86034 0.0
O1027 O 0.14115 0.52831 0.84572 0.0
O1028 O 0.08385 0.55225 0.87932 0.0
O1029 O 0.15238 0.59356 0.87698 0.0
O1030 O 0.08945 0.49184 0.86468 0.0
O1031 O 0.0606 0.51362 0.85506 0.0
H1032 H 0.12498 0.59075 0.81061 0.0
H1033 H 0.99732 0.49784 0.81917 0.0
H1034 H 0.97308 0.49146 0.80275 0.0
H1035 H 0.10204 0.58223 0.79396 0.0
H1036 H 0.06766 0.50343 0.89382 0.0
H1037 H 0.19637 0.61037 0.89319 0.0
H1038 H 0.21113 0.58779 0.90847 0.0
H1039 H 0.08198 0.48143 0.90918 0.0
Gd1040 Gd 0.46909 0.55688 0.84359 0.0
Gd1041 Gd 0.46215 0.55099 0.86457 0.0
C1042 C 0.4342 0.46349 0.85335 0.0
C1043 C 0.48798 0.55782 0.82572 0.0
C1044 C 0.48302 0.53387 0.81676 0.0
C1045 C 0.44948 0.52462 0.81033 0.0
C1046 C 0.5164 0.5273 0.81379 0.0
C1047 C 0.48644 0.50923 0.79779 0.0
C1048 C 0.51805 0.51507 0.80443 0.0
C1049 C 0.45107 0.51214 0.80093 0.0
C1050 C 0.39337 0.54485 0.84998 0.0
C1051 C 0.48849 0.64152 0.85427 0.0
C1052 C 0.44812 0.55463 0.88274 0.0
C1053 C 0.4623 0.58194 0.89151 0.0
C1054 C 0.49646 0.58616 0.89716 0.0
C1055 C 0.43827 0.6001 0.89491 0.0
C1056 C 0.48147 0.62521 0.90947 0.0
C1057 C 0.44766 0.62135 0.90372 0.0
C1058 C 0.506 0.60761 0.90598 0.0
C1059 C 0.54272 0.57386 0.85787 0.0
O1060 O 0.45516 0.48904 0.84615 0.0
O1061 O 0.42713 0.47948 0.8612 0.0
O1062 O 0.45599 0.56196 0.82871 0.0
O1063 O 0.5105 0.55473 0.83268 0.0
O1064 O 0.41306 0.56735 0.84257 0.0
O1065 O 0.4126 0.52638 0.85336 0.0
O1066 O 0.46929 0.61651 0.86168 0.0
O1067 O 0.49933 0.62681 0.84681 0.0
O1068 O 0.47204 0.53992 0.8794 0.0
O1069 O 0.42968 0.56445 0.87596 0.0
O1070 O 0.52327 0.5479 0.86486 0.0
O1071 O 0.51848 0.58704 0.85482 0.0
H1072 H 0.42335 0.52956 0.81236 0.0
H1073 H 0.54283 0.53434 0.81852 0.0
H1074 H 0.5454 0.51248 0.80223 0.0
H1075 H 0.42626 0.50784 0.79596 0.0
H1076 H 0.51546 0.57222 0.89486 0.0
H1077 H 0.41123 0.59683 0.89087 0.0
H1078 H 0.42737 0.63361 0.90614 0.0
H1079 H 0.53268 0.6103 0.91006 0.0
Gd1080 Gd 0.59254 0.79804 0.02919 0.0
Gd1081 Gd 0.58948 0.79855 1.00777 0.0
C1082 C 0.6462 0.88984 1.01789 0.0
C1083 C 0.61588 0.80025 0.0468 0.0
C1084 C 0.63083 0.82536 0.0558 0.0
C1085 C 0.60104 0.82209 0.0627 0.0
C1086 C 0.6744 0.8474 0.05823 0.0
C1087 C 0.65762 0.85888 0.07447 0.0
C1088 C 0.68765 0.86412 0.06743 0.0
C1089 C 0.61426 0.8387 0.07188 0.0
C1090 C 0.53084 0.81218 0.02274 0.0
C1091 C 0.52019 0.71444 0.01923 0.0
C1092 C 0.56996 0.79055 0.98966 0.0
C1093 C 0.55823 0.76256 0.98106 0.0
C1094 C 0.58425 0.74683 0.97755 0.0
C1095 C 0.52203 0.75467 0.97574 0.0
C1096 C 0.53885 0.71746 0.96338 0.0
C1097 C 0.51244 0.73248 0.96704 0.0
C1098 C 0.57462 0.72451 0.96885 0.0
C1099 C 0.64302 0.7723 1.01543 0.0
O1100 O 0.64104 0.86795 0.02587 0.0
O1101 O 0.62553 0.87024 1.01002 0.0
O1102 O 0.57657 0.7871 0.04413 0.0
O1103 O 0.6423 0.81015 0.03958 0.0
O1104 O 0.52949 0.79405 0.0308 0.0
O1105 O 0.56732 0.82725 0.01889 0.0
O1106 O 0.52853 0.73778 1.01144 0.0
O1107 O 0.54553 0.72837 0.02675 0.0
O1108 O 0.60905 0.80804 0.9929 0.0
O1109 O 0.5418 0.77958 0.99649 0.0
O1110 O 0.65154 0.796 1.00791 0.0
O1111 O 0.60656 0.76315 1.01826 0.0
H1112 H 0.56717 0.80507 0.06114 0.0
H1113 H 0.69817 0.85008 0.05316 0.0
H1114 H 0.72128 0.8792 0.06916 0.0
H1115 H 0.59028 0.83473 0.07704 0.0
H1116 H 0.61256 0.75254 0.98142 0.0
H1117 H 0.50147 0.76656 0.97822 0.0
H1118 H 0.48427 0.72718 0.96317 0.0
H1119 H 0.59602 0.71387 0.96627 0.0
Gd1120 Gd 0.22975 0.79977 0.02872 0.0
Gd1121 Gd 0.22478 0.79437 1.00743 0.0
C1122 C 0.13764 0.7678 1.01811 0.0
C1123 C 0.23044 0.82081 0.04648 0.0
C1124 C 0.20507 0.816 0.05525 0.0
C1125 C 0.18945 0.77944 0.06109 0.0
C1126 C 0.2018 0.85098 0.05855 0.0
C1127 C 0.17096 0.81454 0.07366 0.0
C1128 C 0.1851 0.85033 0.0676 0.0
C1129 C 0.17243 0.77864 0.07015 0.0
C1130 C 0.21258 0.72254 0.02239 0.0
C1131 C 0.31014 0.80703 1.01786 0.0
C1132 C 0.22956 0.78175 0.98926 0.0
C1133 C 0.25719 0.79447 0.9806 0.0
C1134 C 0.27079 0.83371 0.97589 0.0
C1135 C 0.26587 0.7644 0.97631 0.0
C1136 C 0.29777 0.8107 0.96244 0.0
C1137 C 0.28591 0.77239 0.96739 0.0
C1138 C 0.291 0.84178 0.96694 0.0
C1139 C 0.25467 0.87509 1.01494 0.0
O1140 O 0.16215 0.78735 0.02561 0.0
O1141 O 0.15403 0.76105 1.01034 0.0
O1142 O 0.23412 0.78819 0.04371 0.0
O1143 O 0.22867 0.84336 0.03934 0.0
O1144 O 0.23353 0.74059 0.0301 0.0
O1145 O 0.19715 0.74419 0.01868 0.0
O1146 O 0.28468 0.79219 1.0104 0.0
O1147 O 0.2989 0.82024 0.02558 0.0
O1148 O 0.21709 0.80758 0.99262 0.0
O1149 O 0.23691 0.76117 0.99599 0.0
O1150 O 0.22862 0.85973 1.00779 0.0
O1151 O 0.26384 0.8474 1.01757 0.0
H1152 H 0.19167 0.75189 0.05883 0.0
H1153 H 0.21406 0.87986 0.05432 0.0
H1154 H 0.18537 0.87899 0.06999 0.0
H1155 H 0.16122 0.7501 0.07445 0.0
H1156 H 0.26451 0.8576 0.97895 0.0
H1157 H 0.25572 0.73381 0.9797 0.0
H1158 H 0.29128 0.74799 0.96428 0.0
H1159 H 0.2995 0.8716 0.96336 0.0
Gd1160 Gd 0.22573 0.42914 0.02884 0.0
Gd1161 Gd 0.23075 0.43818 1.00786 0.0
C1162 C 0.26528 0.3792 1.01681 0.0
C1163 C 0.20782 0.4059 0.04657 0.0
C1164 C 0.21531 0.38875 0.05559 0.0
C1165 C 0.24877 0.4151 0.06184 0.0
C1166 C 0.18458 0.34789 0.05876 0.0
C1167 C 0.21856 0.36114 0.07446 0.0
C1168 C 0.18615 0.33428 0.06803 0.0
C1169 C 0.25047 0.40141 0.07112 0.0
C1170 C 0.30002 0.49555 0.02279 0.0
C1171 C 0.20596 0.49864 0.02009 0.0
C1172 C 0.24384 0.46074 0.98997 0.0
C1173 C 0.23031 0.47529 0.98137 0.0
C1174 C 0.19032 0.45007 0.97698 0.0
C1175 C 0.2602 0.51327 0.97685 0.0
C1176 C 0.21125 0.50014 0.96355 0.0
C1177 C 0.25092 0.52549 0.96808 0.0
C1178 C 0.18088 0.46242 0.9682 0.0
C1179 C 0.15137 0.3772 1.01441 0.0
O1180 O 0.24654 0.38072 0.02481 0.0
O1181 O 0.26761 0.40312 1.00943 0.0
O1182 O 0.23643 0.44434 0.04385 0.0
O1183 O 0.1883 0.38005 0.0394 0.0
O1184 O 0.28021 0.49581 0.03044 0.0
O1185 O 0.28121 0.45911 0.01887 0.0
O1186 O 0.22285 0.49463 1.01209 0.0
O1187 O 0.19633 0.4708 0.0271 0.0
O1188 O 0.22012 0.42128 0.99286 0.0
O1189 O 0.26173 0.48762 0.99702 0.0
O1190 O 0.17088 0.37348 1.00706 0.0
O1191 O 0.17537 0.41346 1.01802 0.0
H1192 H 0.27283 0.44703 0.0597 0.0
H1193 H 0.15796 0.3271 0.05422 0.0
H1194 H 0.16054 0.30336 0.07029 0.0
H1195 H 0.27638 0.42283 0.07575 0.0
H1196 H 0.16659 0.4204 0.98023 0.0
H1197 H 0.29153 0.533 0.97996 0.0
H1198 H 0.27559 0.5543 0.96473 0.0
H1199 H 0.14975 0.44227 0.96506 0.0
Gd1200 Gd 0.22643 0.43814 0.5049 0.0
Gd1201 Gd 0.22542 0.43339 0.52774 0.0
C1202 C 0.31332 0.49542 0.51698 0.0
C1203 C 0.22947 0.46228 0.48732 0.0
C1204 C 0.25554 0.47446 0.47839 0.0
C1205 C 0.26118 0.4448 0.47295 0.0
C1206 C 0.27246 0.51626 0.47484 0.0
C1207 C 0.29999 0.49877 0.4606 0.0
C1208 C 0.29421 0.5282 0.46611 0.0
C1209 C 0.28318 0.45682 0.46419 0.0
C1210 C 0.25455 0.38407 0.51151 0.0
C1211 C 0.13494 0.38124 0.51573 0.0
C1212 C 0.22143 0.41586 0.54583 0.0
C1213 C 0.19715 0.39457 0.55467 0.0
C1214 C 0.18336 0.41599 0.56087 0.0
C1215 C 0.19395 0.35604 0.55778 0.0
C1216 C 0.16655 0.36228 0.57332 0.0
C1217 C 0.17886 0.34013 0.56695 0.0
C1218 C 0.16811 0.4 0.57004 0.0
C1219 C 0.2245 0.50149 0.52007 0.0
O1220 O 0.29073 0.4925 0.50929 0.0
O1221 O 0.2964 0.4704 0.52456 0.0
O1222 O 0.20937 0.42199 0.48999 0.0
O1223 O 0.24454 0.489 0.49452 0.0
O1224 O 0.25112 0.39102 0.50257 0.0
O1225 O 0.2413 0.40499 0.51607 0.0
O1226 O 0.15556 0.38741 0.52398 0.0
O1227 O 0.15515 0.39915 0.50764 0.0
O1228 O 0.21842 0.44796 0.54236 0.0
O1229 O 0.22716 0.3934 0.53922 0.0
O1230 O 0.24364 0.50213 0.52794 0.0
O1231 O 0.20445 0.46376 0.51673 0.0
H1232 H 0.24834 0.41219 0.47541 0.0
H1233 H 0.26812 0.53973 0.47875 0.0
H1234 H 0.30566 0.56051 0.4636 0.0
H1235 H 0.28721 0.43322 0.46027 0.0
H1236 H 0.18587 0.44611 0.55879 0.0
H1237 H 0.20498 0.33907 0.5533 0.0
H1238 H 0.17888 0.31139 0.56917 0.0
H1239 H 0.15834 0.41774 0.57461 0.0
Gd1240 Gd 0.58794 0.78956 0.50642 0.0
Gd1241 Gd 0.5871 0.79798 0.52764 0.0
C1242 C 0.51788 0.80924 0.51594 0.0
C1243 C 0.57112 0.7769 0.48816 0.0
C1244 C 0.55776 0.79231 0.47956 0.0
C1245 C 0.58802 0.81916 0.47277 0.0
C1246 C 0.51432 0.77662 0.47749 0.0
C1247 C 0.53172 0.81351 0.46199 0.0
C1248 C 0.50155 0.78696 0.46888 0.0
C1249 C 0.57528 0.82977 0.46417 0.0
C1250 C 0.64168 0.87089 0.5136 0.0
C1251 C 0.64597 0.76162 0.51795 0.0
C1252 C 0.6081 0.82055 0.54532 0.0
C1253 C 0.62692 0.81335 0.55412 0.0
C1254 C 0.60236 0.77873 0.56026 0.0
C1255 C 0.66796 0.84446 0.5571 0.0
C1256 C 0.65817 0.8086 0.57248 0.0
C1257 C 0.68336 0.84216 0.56613 0.0
C1258 C 0.61786 0.77628 0.56929 0.0
C1259 C 0.52502 0.72126 0.52177 0.0
O1260 O 0.52778 0.79203 0.50881 0.0
O1261 O 0.5416 0.82205 0.52378 0.0
O1262 O 0.6095 0.80093 0.49161 0.0
O1263 O 0.54299 0.75696 0.49487 0.0
O1264 O 0.65053 0.85338 0.50658 0.0
O1265 O 0.60416 0.84493 0.51615 0.0
O1266 O 0.63987 0.78153 0.52522 0.0
O1267 O 0.62457 0.75541 0.5099 0.0
O1268 O 0.5704 0.79026 0.54262 0.0
O1269 O 0.63334 0.84062 0.53812 0.0
O1270 O 0.52277 0.74145 0.52916 0.0
O1271 O 0.56229 0.74064 0.51807 0.0
H1272 H 0.62174 0.83148 0.47402 0.0
H1273 H 0.48988 0.75531 0.48242 0.0
H1274 H 0.46769 0.77289 0.46754 0.0
H1275 H 0.59982 0.85083 0.45924 0.0
H1276 H 0.57048 0.75418 0.55826 0.0
H1277 H 0.68756 0.87179 0.55261 0.0
H1278 H 0.7143 0.86805 0.56827 0.0
H1279 H 0.59773 0.7494 0.57383 0.0
Gd1280 Gd 0.23323 0.80373 0.50586 0.0
Gd1281 Gd 0.2249 0.79904 0.52693 0.0
C1282 C 0.21368 0.71656 0.51673 0.0
C1283 C 0.24724 0.79829 0.48776 0.0
C1284 C 0.23031 0.7707 0.47907 0.0
C1285 C 0.18883 0.75642 0.47556 0.0
C1286 C 0.25755 0.76136 0.47372 0.0
C1287 C 0.20293 0.72535 0.46139 0.0
C1288 C 0.24414 0.73906 0.46503 0.0
C1289 C 0.17535 0.73404 0.46687 0.0
C1290 C 0.15199 0.77877 0.51217 0.0
C1291 C 0.25837 0.89116 0.51664 0.0
C1292 C 0.20512 0.79913 0.54476 0.0
C1293 C 0.2149 0.82316 0.55391 0.0
C1294 C 0.2544 0.83846 0.55858 0.0
C1295 C 0.18187 0.82498 0.55875 0.0
C1296 C 0.22584 0.85258 0.57309 0.0
C1297 C 0.18721 0.8395 0.56819 0.0
C1298 C 0.25981 0.85308 0.56803 0.0
C1299 C 0.30276 0.81593 0.52096 0.0
O1300 O 0.23153 0.74141 0.50927 0.0
O1301 O 0.19997 0.72958 0.524 0.0
O1302 O 0.22655 0.81676 0.49101 0.0
O1303 O 0.26314 0.78584 0.4946 0.0
O1304 O 0.17115 0.80422 0.5051 0.0
O1305 O 0.17668 0.76677 0.51555 0.0
O1306 O 0.23711 0.86599 0.52387 0.0
O1307 O 0.2671 0.87513 0.50903 0.0
O1308 O 0.2321 0.78764 0.54175 0.0
O1309 O 0.1872 0.80881 0.5378 0.0
O1310 O 0.28395 0.79438 0.52852 0.0
O1311 O 0.28185 0.83198 0.51731 0.0
H1312 H 0.16698 0.7632 0.47944 0.0
H1313 H 0.28974 0.77205 0.47619 0.0
H1314 H 0.26619 0.73251 0.46118 0.0
H1315 H 0.14355 0.72454 0.46432 0.0
H1316 H 0.28063 0.83756 0.55507 0.0
H1317 H 0.15097 0.81301 0.55538 0.0
H1318 H 0.1601 0.83812 0.5718 0.0
H1319 H 0.29032 0.86368 0.57147 0.0
Gd1320 Gd 0.10587 0.54657 0.36361 0.0
Gd1321 Gd 0.10661 0.55808 0.3426 0.0
C1322 C 0.17622 0.63668 0.35414 0.0
C1323 C 0.12353 0.5502 0.38182 0.0
C1324 C 0.13747 0.57883 0.39041 0.0
C1325 C 0.10858 0.58569 0.39582 0.0
C1326 C 0.17945 0.59608 0.39386 0.0
C1327 C 0.16316 0.62534 0.40801 0.0
C1328 C 0.19208 0.61889 0.40248 0.0
C1329 C 0.12126 0.60869 0.40446 0.0
C1330 C 0.05055 0.57312 0.35723 0.0
C1331 C 0.04994 0.46089 0.35161 0.0
C1332 C 0.08577 0.56082 0.32494 0.0
C1333 C 0.07118 0.53658 0.31578 0.0
C1334 C 0.10111 0.53987 0.30891 0.0
C1335 C 0.02769 0.51471 0.31326 0.0
C1336 C 0.04476 0.50292 0.29706 0.0
C1337 C 1.01465 0.49797 0.30405 0.0
C1338 C 0.08809 0.52319 0.29971 0.0
C1339 C 0.16829 0.54191 0.34828 0.0
O1340 O 0.16677 0.60884 0.36111 0.0
O1341 O 0.15148 0.62707 0.34654 0.0
O1342 O 0.08504 0.53599 0.37846 0.0
O1343 O 0.15137 0.55867 0.37504 0.0
O1344 O 0.04262 0.54522 0.36386 0.0
O1345 O 0.08808 0.5863 0.35432 0.0
O1346 O 0.05624 0.48781 0.34451 0.0
O1347 O 0.0696 0.4756 0.35989 0.0
O1348 O 0.12464 0.57304 0.32778 0.0
O1349 O 0.05878 0.55005 0.33204 0.0
O1350 O 0.17075 0.56468 0.34092 0.0
O1351 O 0.13098 0.52413 0.35185 0.0
H1352 H 0.07587 0.57268 0.39347 0.0
H1353 H 0.20246 0.59094 0.39 0.0
H1354 H 0.22439 0.63032 0.40494 0.0
H1355 H 0.09805 0.61335 0.40835 0.0
H1356 H 0.13492 0.55671 0.31053 0.0
H1357 H 1.00376 0.51196 0.3183 0.0
H1358 H 0.98105 0.48291 0.30229 0.0
H1359 H 0.11218 0.52697 0.2946 0.0
Gd1360 Gd 0.4704 0.56589 0.36309 0.0
Gd1361 Gd 0.47571 0.55466 0.33995 0.0
C1362 C 0.38739 0.53931 0.34968 0.0
C1363 C 0.4656 0.58912 0.38036 0.0
C1364 C 0.44123 0.57157 0.38939 0.0
C1365 C 0.42818 0.5298 0.39257 0.0
C1366 C 0.4319 0.59783 0.3951 0.0
C1367 C 0.39793 0.54158 0.40716 0.0
C1368 C 0.41061 0.58313 0.40384 0.0
C1369 C 0.40677 0.51499 0.40134 0.0
C1370 C 0.44491 0.48221 0.35801 0.0
C1371 C 0.56352 0.60116 0.35241 0.0
C1372 C 0.47534 0.52336 0.3233 0.0
C1373 C 0.49739 0.53247 0.31389 0.0
C1374 C 0.49917 0.56388 0.30762 0.0
C1375 C 0.51271 0.5058 0.31068 0.0
C1376 C 0.52848 0.53944 0.2949 0.0
C1377 C 0.52789 0.5091 0.30135 0.0
C1378 C 0.51469 0.56743 0.29827 0.0
C1379 C 0.49503 0.63615 0.34445 0.0
O1380 O 0.40702 0.556 0.35788 0.0
O1381 O 0.40575 0.53053 0.3425 0.0
O1382 O 0.49215 0.57604 0.37778 0.0
O1383 O 0.44504 0.59355 0.37314 0.0
O1384 O 0.44798 0.49573 0.36668 0.0
O1385 O 0.45725 0.51459 0.35276 0.0
O1386 O 0.54425 0.58048 0.34446 0.0
O1387 O 0.5423 0.60262 0.36005 0.0
O1388 O 0.45374 0.54273 0.32533 0.0
O1389 O 0.49441 0.51818 0.33076 0.0
O1390 O 0.49571 0.62299 0.33586 0.0
O1391 O 0.48518 0.60519 0.35009 0.0
H1392 H 0.43486 0.50872 0.38834 0.0
H1393 H 0.44141 0.63009 0.39282 0.0
H1394 H 0.40379 0.60438 0.40797 0.0
H1395 H 0.39791 0.48294 0.40363 0.0
H1396 H 0.48759 0.58504 0.30984 0.0
H1397 H 0.51138 0.48102 0.31528 0.0
H1398 H 0.53737 0.48633 0.29911 0.0
H1399 H 0.51527 0.59182 0.29366 0.0
Gd1400 Gd 0.46196 0.91743 0.36446 0.0
Gd1401 Gd 0.469 0.91767 0.34196 0.0
C1402 C 0.4839 0.85012 0.35362 0.0
C1403 C 0.44033 0.89539 0.38215 0.0
C1404 C 0.4568 0.88595 0.3911 0.0
C1405 C 0.49895 0.91219 0.39435 0.0
C1406 C 0.42918 0.85031 0.39667 0.0
C1407 C 0.48488 0.86775 0.40864 0.0
C1408 C 0.44289 0.84146 0.40533 0.0
C1409 C 0.51284 0.90304 0.40297 0.0
C1410 C 0.54596 0.96848 0.35891 0.0
C1411 C 0.43645 0.97853 0.3524 0.0
C1412 C 0.48284 0.93205 0.32374 0.0
C1413 C 0.48247 0.95515 0.31491 0.0
C1414 C 0.44659 0.93726 0.30883 0.0
C1415 C 0.51986 0.99133 0.3117 0.0
C1416 C 0.48655 0.98936 0.2963 0.0
C1417 C 0.52187 1.00819 0.30255 0.0
C1418 C 0.44852 0.95419 0.2997 0.0
C1419 C 0.39565 0.85529 0.34955 0.0
O1420 O 0.46674 0.85862 0.36105 0.0
O1421 O 0.49508 0.87403 0.34579 0.0
O1422 O 0.45882 0.93515 0.37913 0.0
O1423 O 0.4295 0.86776 0.37516 0.0
O1424 O 0.53234 0.96382 0.36758 0.0
O1425 O 0.51371 0.94695 0.35373 0.0
O1426 O 0.45295 0.97045 0.34473 0.0
O1427 O 0.4329 0.95907 0.3607 0.0
O1428 O 0.44614 0.90411 0.32742 0.0
O1429 O 0.51274 0.95156 0.33021 0.0
O1430 O 0.41436 0.85044 0.34218 0.0
O1431 O 0.4155 0.89374 0.35242 0.0
H1432 H 0.52113 0.93992 0.39025 0.0
H1433 H 0.39663 0.82935 0.39435 0.0
H1434 H 0.42068 0.81371 0.40942 0.0
H1435 H 0.54535 0.92407 0.40531 0.0
H1436 H 0.41729 0.90903 0.31098 0.0
H1437 H 0.54833 1.0056 0.31608 0.0
H1438 H 0.552 0.03487 0.30026 0.0
H1439 H 0.4203 0.93909 0.29525 0.0
H1440 H 0.2077 0.16816 0.18373 0.0
H1441 H 0.07529 0.1152 0.19103 0.0
H1442 H 0.06741 0.04445 0.19296 0.0
H1443 H 0.09642 0.9962 0.19123 0.0
H1444 H 0.22651 0.04618 0.18214 0.0
H1445 H 0.23751 0.11922 0.18229 0.0
C1446 C 0.17774 0.14136 0.18613 0.0
C1447 C 0.14251 0.14722 0.1877 0.0
C1448 C 0.17293 0.09999 0.18669 0.0
C1449 C 0.1032 0.11183 0.19026 0.0
C1450 C 0.09853 0.07118 0.19118 0.0
C1451 C 0.12727 0.02319 0.18935 0.0
C1452 C 0.16062 0.01601 0.18667 0.0
C1453 C 0.13288 0.06469 0.18922 0.0
C1454 C 0.20027 0.05104 0.18412 0.0
C1455 C 0.20657 0.09275 0.18427 0.0
H1456 H 0.98181 0.15968 0.17702 0.0
H1457 H 0.02824 0.12599 0.20211 0.0
H1458 H 0.96285 0.05827 0.20319 0.0
H1459 H 0.89427 1.00488 0.19638 0.0
H1460 H 0.8453 0.03696 0.17168 0.0
H1461 H 0.90821 0.10884 0.17134 0.0
C1462 C 0.97734 0.13777 0.18278 0.0
C1463 C 1.01059 0.14824 0.18935 0.0
C1464 C 0.93857 0.09843 0.18356 0.0
C1465 C 1.00373 0.1193 0.19685 0.0
C1466 C 0.96606 0.08019 0.19753 0.0
C1467 C 0.89672 0.02828 0.19117 0.0
C1468 C 0.86502 0.01617 0.1842 0.0
C1469 C 0.93344 0.06909 0.19088 0.0
C1470 C 0.86911 0.0461 0.17725 0.0
C1471 C 0.90536 0.08698 0.17697 0.0
H1472 H 0.03559 0.9113 0.19155 0.0
H1473 H 0.98326 0.80202 0.17287 0.0
H1474 H 0.91358 0.7977 0.17331 0.0
H1475 H 0.86861 0.82884 0.17783 0.0
H1476 H 0.92104 0.9388 0.19637 0.0
H1477 H 0.98901 0.93963 0.19698 0.0
C1478 C 1.00855 0.88584 0.18782 0.0
C1479 C 1.01445 0.85656 0.1823 0.0
C1480 C 0.96862 0.88441 0.18785 0.0
C1481 C 0.9794 0.82458 0.17726 0.0
C1482 C 0.9396 0.82236 0.17743 0.0
C1483 C 0.8949 0.85286 0.18202 0.0
C1484 C 0.88959 0.88375 0.18701 0.0
C1485 C 0.93403 0.85282 0.18247 0.0
C1486 C 0.92401 0.91444 0.19248 0.0
C1487 C 0.96304 0.91496 0.19285 0.0
H1488 H 0.16489 0.19521 0.3628 0.0
H1489 H 0.13948 0.10074 0.34118 0.0
H1490 H 0.06847 0.09174 0.33853 0.0
H1491 H 1.01189 0.10702 0.34321 0.0
H1492 H 0.0365 0.20072 0.36509 0.0
H1493 H 0.10963 0.21416 0.36673 0.0
C1494 C 0.14421 0.17377 0.35729 0.0
C1495 C 0.15782 0.1497 0.35196 0.0
C1496 C 0.10311 0.16823 0.35596 0.0
C1497 C 0.13038 0.12087 0.34507 0.0
C1498 C 0.0895 0.11524 0.34368 0.0
C1499 C 0.03328 0.13071 0.34829 0.0
C1500 C 0.01846 0.15267 0.35406 0.0
C1501 C 0.07526 0.1382 0.3492 0.0
C1502 C 0.04674 0.18297 0.36064 0.0
C1503 C 0.08867 0.19082 0.36155 0.0
H1504 H 0.83951 0.86292 0.36258 0.0
H1505 H 0.92406 0.90572 0.33829 0.0
H1506 H 0.92304 0.97252 0.33794 0.0
H1507 H 0.90116 0.02157 0.34498 0.0
H1508 H 0.81777 0.97943 0.36939 0.0
H1509 H 0.81469 0.91033 0.36908 0.0
C1510 C 0.85751 0.88675 0.35719 0.0
C1511 C 0.88162 0.8788 0.35049 0.0
C1512 C 0.85681 0.92561 0.35697 0.0
C1513 C 0.90478 0.91037 0.34354 0.0
C1514 C 0.90435 0.94892 0.34331 0.0
C1515 C 0.88157 0.99683 0.35007 0.0
C1516 C 0.85954 1.00557 0.35715 0.0
C1517 C 0.88066 0.95714 0.35001 0.0
C1518 C 0.83496 0.97346 0.36383 0.0
C1519 C 0.83335 0.93393 0.36371 0.0
H1520 H 0.04485 0.86404 0.36386 0.0
H1521 H 0.9882 0.87895 0.33821 0.0
H1522 H 0.05297 0.94707 0.3349 0.0
H1523 H 0.1231 1.00585 0.34027 0.0
H1524 H 0.1778 0.99136 0.36643 0.0
H1525 H 0.11665 0.91986 0.36859 0.0
C1526 C 0.04729 0.88168 0.3574 0.0
C1527 C 1.01233 0.8659 0.35113 0.0
C1528 C 0.0841 0.92136 0.35575 0.0
C1529 C 0.01528 0.88944 0.34291 0.0
C1530 C 0.0521 0.92886 0.34113 0.0
C1531 C 0.12193 0.98685 0.34638 0.0
C1532 C 0.15505 1.00422 0.35321 0.0
C1533 C 0.08635 0.94563 0.34763 0.0
C1534 C 0.15276 0.97911 0.3611 0.0
C1535 C 0.11779 0.93809 0.36234 0.0
H1536 H 0.8297 0.86147 0.86294 0.0
H1537 H 0.90132 0.87055 0.83772 0.0
H1538 H 0.90703 0.9396 0.83377 0.0
H1539 H 0.89614 1.00053 0.83836 0.0
H1540 H 0.82379 0.98868 0.86382 0.0
H1541 H 0.81387 0.91803 0.86675 0.0
C1542 C 0.84591 0.8782 0.85648 0.0
C1543 C 0.86486 0.86078 0.85061 0.0
C1544 C 0.84928 0.91784 0.85434 0.0
C1545 C 0.88584 0.88285 0.84227 0.0
C1546 C 0.88947 0.92263 0.84008 0.0
C1547 C 0.8777 0.98222 0.84446 0.0
C1548 C 0.86098 1.00039 0.85087 0.0
C1549 C 0.87197 0.94093 0.84617 0.0
C1550 C 0.8373 0.97602 0.85877 0.0
C1551 C 0.83153 0.93538 0.86048 0.0
H1552 H 0.1222 0.02813 0.84422 0.0
H1553 H 0.19525 0.97849 0.85778 0.0
H1554 H 0.13192 0.90656 0.85817 0.0
H1555 H 0.05321 0.8588 0.85579 0.0
H1556 H 0.98197 0.91118 0.84229 0.0
H1557 H 0.04627 0.98073 0.84097 0.0
C1558 C 0.12445 1.00123 0.847 0.0
C1559 C 0.16343 1.00827 0.85075 0.0
C1560 C 0.08768 0.96055 0.84748 0.0
C1561 C 0.16583 0.97347 0.85456 0.0
C1562 C 0.12939 0.93253 0.85495 0.0
C1563 C 0.05195 0.88557 0.85261 0.0
C1564 C 1.01271 0.87983 0.84921 0.0
C1565 C 0.0897 0.92584 0.85167 0.0
C1566 C 1.01168 0.91469 0.84497 0.0
C1567 C 0.04852 0.95453 0.84417 0.0
H1568 H 0.99297 0.08524 0.85651 0.0
H1569 H 0.0341 0.2111 0.84528 0.0
H1570 H 0.10679 0.22269 0.84313 0.0
H1571 H 0.15935 0.1972 0.84524 0.0
H1572 H 0.11584 0.07177 0.85705 0.0
H1573 H 0.0432 0.05938 0.85809 0.0
C1574 C 0.01781 0.11512 0.85352 0.0
C1575 C 1.00851 0.14733 0.85109 0.0
C1576 C 0.05906 0.12153 0.85244 0.0
C1577 C 0.04064 0.18574 0.84713 0.0
C1578 C 0.08216 0.19242 0.84598 0.0
C1579 C 0.13377 0.16737 0.84805 0.0
C1580 C 0.14253 0.13539 0.85112 0.0
C1581 C 0.09192 0.16071 0.84875 0.0
C1582 C 0.10953 0.09671 0.8547 0.0
C1583 C 0.06809 0.08963 0.85529 0.0
H1584 H 0.91583 0.91792 0.6729 0.0
H1585 H 0.84293 0.8252 0.69457 0.0
H1586 H 0.90375 0.81373 0.69757 0.0
H1587 H 0.97872 0.83096 0.69386 0.0
H1588 H 0.04696 0.92055 0.67131 0.0
H1589 H 0.98702 0.93265 0.66884 0.0
C1590 C 0.91296 0.89502 0.67828 0.0
C1591 C 0.87481 0.87238 0.68349 0.0
C1592 C 0.94735 0.88804 0.67977 0.0
C1593 C 0.87198 0.84315 0.69048 0.0
C1594 C 0.90671 0.83652 0.69216 0.0
C1595 C 0.97987 0.85248 0.68832 0.0
C1596 C 0.01679 0.87427 0.68262 0.0
C1597 C 0.9446 0.8587 0.6868 0.0
C1598 C 0.01848 0.90268 0.67558 0.0
C1599 C 0.98436 0.90987 0.67423 0.0
H1600 H 0.20895 0.16071 0.68382 0.0
H1601 H 0.07488 0.10783 0.68966 0.0
H1602 H 0.06416 0.03543 0.68914 0.0
H1603 H 0.09211 0.9868 0.68619 0.0
H1604 H 0.22664 0.03819 0.68156 0.0
H1605 H 0.23844 0.11139 0.6826 0.0
C1606 C 0.17758 0.13322 0.68502 0.0
C1607 C 0.14266 0.13935 0.68671 0.0
C1608 C 0.17187 0.09151 0.68501 0.0
C1609 C 0.10217 0.10371 0.68836 0.0
C1610 C 0.09601 0.06234 0.68806 0.0
C1611 C 0.1241 0.01415 0.68564 0.0
C1612 C 0.15854 1.00751 0.68389 0.0
C1613 C 0.13051 0.05582 0.68633 0.0
C1614 C 0.19985 0.04286 0.68307 0.0
C1615 C 0.20646 0.0846 0.68357 0.0
H1616 H 0.90157 0.02274 0.69717 0.0
H1617 H 0.85734 0.02695 0.66876 0.0
H1618 H 0.91959 0.09663 0.66612 0.0
H1619 H 0.99002 0.15349 0.67114 0.0
H1620 H 0.03566 0.15118 0.69933 0.0
H1621 H 0.96963 0.08448 0.70285 0.0
C1622 C 0.90528 0.03919 0.69046 0.0
C1623 C 0.8748 0.01915 0.68316 0.0
C1624 C 0.94151 0.07983 0.68894 0.0
C1625 C 0.88021 0.04115 0.67451 0.0
C1626 C 0.91592 0.08119 0.67296 0.0
C1627 C 0.98487 0.13895 0.67815 0.0
C1628 C 0.01718 0.15758 0.68504 0.0
C1629 C 0.94716 0.10041 0.68003 0.0
C1630 C 1.01068 0.13819 0.69403 0.0
C1631 C 0.97313 0.09962 0.69598 0.0
H1632 H 0.85716 0.37836 0.53079 0.0
H1633 H 0.78914 0.31912 0.50484 0.0
H1634 H 0.77892 0.37987 0.50174 0.0
H1635 H 0.78912 0.44903 0.50617 0.0
H1636 H 0.86109 0.51386 0.5313 0.0
H1637 H 0.87058 0.45208 0.53493 0.0
C1638 C 0.84072 0.37932 0.52441 0.0
C1639 C 0.82452 0.34465 0.51795 0.0
C1640 C 0.83582 0.41526 0.52252 0.0
C1641 C 0.80275 0.34582 0.50977 0.0
C1642 C 0.79663 0.38041 0.50803 0.0
C1643 C 0.8072 0.45009 0.51244 0.0
C1644 C 0.82452 0.48622 0.51844 0.0
C1645 C 0.8131 0.41524 0.51432 0.0
C1646 C 0.84749 0.48653 0.52656 0.0
C1647 C 0.85288 0.45119 0.52861 0.0
H1648 H 0.58108 0.32022 0.5199 0.0
H1649 H 0.49718 0.3722 0.51723 0.0
H1650 H 0.55891 0.44533 0.51776 0.0
H1651 H 0.63813 0.49421 0.51781 0.0
H1652 H 0.7199 0.43959 0.52087 0.0
H1653 H 0.65792 0.3677 0.52122 0.0
C1654 C 0.57634 0.34767 0.5197 0.0
C1655 C 0.53497 0.34121 0.51868 0.0
C1656 C 0.61174 0.38903 0.51983 0.0
C1657 C 0.52886 0.37669 0.51827 0.0
C1658 C 0.56418 0.41836 0.51841 0.0
C1659 C 0.64203 0.46638 0.51849 0.0
C1660 C 0.68327 0.47177 0.51914 0.0
C1661 C 0.60594 0.42493 0.51895 0.0
C1662 C 0.68832 0.43586 0.52024 0.0
C1663 C 0.65297 0.39486 0.5205 0.0
H1664 H 0.55064 0.17568 0.53054 0.0
H1665 H 0.56841 0.25661 0.5063 0.0
H1666 H 0.63949 0.26696 0.50372 0.0
H1667 H 0.69499 0.25077 0.50769 0.0
H1668 H 0.67876 0.16624 0.53104 0.0
H1669 H 0.60884 0.15937 0.53466 0.0
C1670 C 0.57033 0.19556 0.52473 0.0
C1671 C 0.55438 0.21523 0.51857 0.0
C1672 C 0.6112 0.20045 0.5231 0.0
C1673 C 0.57992 0.24085 0.51105 0.0
C1674 C 0.62059 0.24687 0.50958 0.0
C1675 C 0.67629 0.23078 0.5136 0.0
C1676 C 0.69187 0.20876 0.51904 0.0
C1677 C 0.63626 0.2264 0.51546 0.0
C1678 C 0.66738 0.18345 0.52673 0.0
C1679 C 0.62739 0.17947 0.52877 0.0
H1680 H 0.81138 0.49314 0.701 0.0
H1681 H 0.82949 0.48208 0.67102 0.0
H1682 H 0.76318 0.48299 0.66747 0.0
H1683 H 0.69751 0.48222 0.67322 0.0
H1684 H 0.683 0.49558 0.7034 0.0
H1685 H 0.75062 0.49874 0.70652 0.0
C1686 C 0.80116 0.49142 0.69366 0.0
C1687 C 0.82511 0.4872 0.68627 0.0
C1688 C 0.7635 0.49223 0.69173 0.0
C1689 C 0.81166 0.48543 0.67681 0.0
C1690 C 0.77363 0.48572 0.67481 0.0
C1691 C 0.70939 0.48635 0.68046 0.0
C1692 C 0.68481 0.48852 0.68806 0.0
C1693 C 0.74887 0.4884 0.68225 0.0
C1694 C 0.70095 0.49395 0.69739 0.0
C1695 C 0.73969 0.49562 0.69921 0.0
H1696 H 0.58768 0.2422 0.67588 0.0
H1697 H 0.4752 0.16852 0.69301 0.0
H1698 H 0.46613 0.23109 0.69471 0.0
H1699 H 0.49331 0.30831 0.69233 0.0
H1700 H 0.60818 0.38288 0.67611 0.0
H1701 H 0.61333 0.31869 0.67301 0.0
C1702 C 0.56075 0.23965 0.67984 0.0
C1703 C 0.53191 0.20064 0.68425 0.0
C1704 C 0.5563 0.27605 0.68096 0.0
C1705 C 0.4978 0.19815 0.68956 0.0
C1706 C 0.4926 0.23392 0.69052 0.0
C1707 C 0.51866 0.31003 0.68788 0.0
C1708 C 0.54957 0.34974 0.68418 0.0
C1709 C 0.52195 0.27318 0.68637 0.0
C1710 C 0.58329 0.35227 0.67874 0.0
C1711 C 0.58646 0.31567 0.67706 0.0
H1712 H 0.83131 0.30042 0.68499 0.0
H1713 H 0.78119 0.38647 0.68702 0.0
H1714 H 0.70847 0.3262 0.68724 0.0
H1715 H 0.65886 0.24932 0.68711 0.0
H1716 H 0.706 0.16121 0.6845 0.0
H1717 H 0.77989 0.22148 0.68416 0.0
C1718 C 0.80434 0.30562 0.68564 0.0
C1719 C 0.81145 0.34768 0.68622 0.0
C1720 C 0.76214 0.2705 0.68552 0.0
C1721 C 0.77638 0.35431 0.68677 0.0
C1722 C 0.7348 0.3199 0.68682 0.0
C1723 C 0.68536 0.2434 0.6863 0.0
C1724 C 0.6772 0.20114 0.68573 0.0
C1725 C 0.72729 0.27796 0.68617 0.0
C1726 C 0.7116 0.19364 0.68475 0.0
C1727 C 0.75381 0.22808 0.68468 0.0
H1728 H 0.5688 0.21717 0.1758 0.0
H1729 H 0.47682 0.17118 0.1986 0.0
H1730 H 0.47262 0.23659 0.19804 0.0
H1731 H 0.4996 0.30986 0.19209 0.0
H1732 H 0.59268 0.35729 0.16947 0.0
H1733 H 0.59243 0.28946 0.16904 0.0
C1734 C 0.5471 0.22114 0.18045 0.0
C1735 C 0.52291 0.18914 0.18719 0.0
C1736 C 0.54572 0.25976 0.18028 0.0
C1737 C 0.49558 0.19518 0.19331 0.0
C1738 C 0.4934 0.2328 0.19305 0.0
C1739 C 0.51957 0.30526 0.18702 0.0
C1740 C 0.54604 0.33887 0.18084 0.0
C1741 C 0.51913 0.26586 0.18675 0.0
C1742 C 0.57166 0.33206 0.17429 0.0
C1743 C 0.57162 0.29314 0.17403 0.0
H1744 H 0.78798 0.36315 0.17912 0.0
H1745 H 0.8593 0.31289 0.19323 0.0
H1746 H 0.79569 0.24115 0.19351 0.0
H1747 H 0.7175 0.19341 0.19055 0.0
H1748 H 0.64832 0.24617 0.17623 0.0
H1749 H 0.71261 0.31569 0.1753 0.0
C1750 C 0.78983 0.3361 0.18196 0.0
C1751 C 0.82835 0.3428 0.18588 0.0
C1752 C 0.75301 0.29541 0.18227 0.0
C1753 C 0.83017 0.308 0.18988 0.0
C1754 C 0.79362 0.26717 0.19018 0.0
C1755 C 0.71666 0.22025 0.18729 0.0
C1756 C 0.67798 0.21451 0.18352 0.0
C1757 C 0.75445 0.26059 0.18658 0.0
C1758 C 0.67755 0.24955 0.17919 0.0
C1759 C 0.7144 0.28944 0.17862 0.0
H1760 H 0.80305 0.48173 0.17191 0.0
H1761 H 0.82672 0.49231 0.20227 0.0
H1762 H 0.76288 0.49704 0.20497 0.0
H1763 H 0.69736 0.49238 0.19903 0.0
H1764 H 0.67253 0.48426 0.16887 0.0
H1765 H 0.7399 0.48504 0.16574 0.0
C1766 C 0.7944 0.48548 0.1791 0.0
C1767 C 0.81968 0.48633 0.18688 0.0
C1768 C 0.75744 0.48868 0.18065 0.0
C1769 C 0.80811 0.49155 0.19614 0.0
C1770 C 0.77144 0.4942 0.19772 0.0
C1771 C 0.70713 0.49165 0.19175 0.0
C1772 C 0.68009 0.48816 0.18418 0.0
C1773 C 0.74557 0.49209 0.19006 0.0
C1774 C 0.69304 0.48733 0.17479 0.0
C1775 C 0.73136 0.48736 0.17303 0.0
H1776 H 0.65724 0.19325 0.02838 0.0
H1777 H 0.6933 0.21947 0.99879 0.0
H1778 H 0.6282 0.22167 0.99532 0.0
H1779 H 0.5628 0.21936 1.00076 0.0
H1780 H 0.52271 0.18837 0.03 0.0
H1781 H 0.58723 0.18421 0.03356 0.0
C1782 C 0.6505 0.19901 0.02117 0.0
C1783 C 0.68009 0.20623 1.01384 0.0
C1784 C 0.61235 0.19936 0.01918 0.0
C1785 C 0.67091 0.2134 1.00452 0.0
C1786 C 0.63378 0.2149 1.00254 0.0
C1787 C 0.56795 0.21133 1.00791 0.0
C1788 C 0.53823 0.20457 1.01514 0.0
C1789 C 0.60453 0.20834 1.00982 0.0
C1790 C 0.54513 0.19374 0.02433 0.0
C1791 C 0.58209 0.19154 0.02636 0.0
H1792 H 0.8725 0.3735 0.02179 0.0
H1793 H 0.75601 0.3033 1.00575 0.0
H1794 H 0.7442 0.36436 1.00631 0.0
H1795 H 0.76929 0.43952 1.01049 0.0
H1796 H 0.88528 0.51055 0.0266 0.0
H1797 H 0.89562 0.44813 0.02681 0.0
C1798 C 0.84418 0.37152 0.01862 0.0
C1799 C 0.81487 0.33404 1.01382 0.0
C1800 C 0.83807 0.40726 0.01881 0.0
C1801 C 0.77869 0.33185 1.00955 0.0
C1802 C 0.77211 0.36683 1.0098 0.0
C1803 C 0.79679 0.44111 1.01403 0.0
C1804 C 0.82683 0.4793 0.01842 0.0
C1805 C 0.80201 0.40499 1.01423 0.0
C1806 C 0.86205 0.48127 0.02311 0.0
C1807 C 0.86782 0.44562 0.02326 0.0
H1808 H 0.57145 0.35473 0.02981 0.0
H1809 H 0.52153 0.36617 1.00265 0.0
H1810 H 0.58448 0.43596 1.00015 0.0
H1811 H 0.65671 0.4909 1.00492 0.0
H1812 H 0.7077 0.4802 0.03185 0.0
H1813 H 0.64142 0.41356 0.03528 0.0
C1814 C 0.57405 0.37273 0.02341 0.0
C1815 C 0.5417 0.35487 1.01641 0.0
C1816 C 0.6106 0.41317 0.02198 0.0
C1817 C 0.54579 0.37881 1.00816 0.0
C1818 C 0.58189 0.41885 1.0067 0.0
C1819 C 0.65269 0.47456 1.01166 0.0
C1820 C 0.68655 0.49092 1.01824 0.0
C1821 C 0.61481 0.43597 1.01347 0.0
C1822 C 0.68154 0.46909 0.02685 0.0
C1823 C 0.64384 0.43057 0.02873 0.0
H1824 H 0.54222 0.83358 0.84581 0.0
H1825 H 0.43304 0.80087 0.86351 0.0
H1826 H 0.42536 0.73068 0.86685 0.0
H1827 H 0.44576 0.67588 0.86338 0.0
H1828 H 0.55274 0.7081 0.84482 0.0
H1829 H 0.56574 0.78107 0.84329 0.0
C1830 C 0.51784 0.8116 0.85069 0.0
C1831 C 0.48918 0.82278 0.85469 0.0
C1832 C 0.51293 0.77088 0.85232 0.0
C1833 C 0.45648 0.79353 0.86067 0.0
C1834 C 0.45173 0.75313 0.86246 0.0
C1835 C 0.47237 0.69916 0.85915 0.0
C1836 C 0.49825 0.6866 0.85422 0.0
C1837 C 0.47919 0.74105 0.85814 0.0
C1838 C 0.53218 0.71689 0.84864 0.0
C1839 C 0.5397 0.75867 0.84777 0.0
H1840 H 0.24384 0.66828 0.84009 0.0
H1841 H 0.18296 0.68239 0.86514 0.0
H1842 H 0.24625 0.75253 0.86833 0.0
H1843 H 0.31919 0.81059 0.86365 0.0
H1844 H 0.37528 0.7957 0.83784 0.0
H1845 H 0.31372 0.72499 0.83531 0.0
C1846 C 0.2443 0.68659 0.84627 0.0
C1847 C 0.20887 0.67028 0.85237 0.0
C1848 C 0.28002 0.72683 0.8479 0.0
C1849 C 0.21 0.69438 0.86035 0.0
C1850 C 0.24611 0.73444 0.86215 0.0
C1851 C 0.31758 0.79172 0.85749 0.0
C1852 C 0.35136 0.80833 0.85088 0.0
C1853 C 0.28132 0.75115 0.85593 0.0
C1854 C 0.34924 0.7838 0.84291 0.0
C1855 C 0.31421 0.74329 0.84149 0.0
H1856 H 0.31832 0.5031 0.84046 0.0
H1857 H 0.37617 0.57719 0.86575 0.0
H1858 H 0.31143 0.5806 0.86906 0.0
H1859 H 0.24031 0.56706 0.86408 0.0
H1860 H 0.18259 0.49376 0.83857 0.0
H1861 H 0.24477 0.48501 0.83609 0.0
C1862 C 0.31611 0.51886 0.84684 0.0
C1863 C 0.35144 0.53868 0.85303 0.0
C1864 C 0.27889 0.52123 0.84859 0.0
C1865 C 0.34883 0.5602 0.86111 0.0
C1866 C 0.31198 0.5627 0.86291 0.0
C1867 C 0.241 0.54875 0.85802 0.0
C1868 C 0.20662 0.53131 0.85149 0.0
C1869 C 0.27705 0.54395 0.85661 0.0
C1870 C 0.20848 0.50783 0.84368 0.0
C1871 C 0.24412 0.50277 0.84226 0.0
H1872 H 0.4613 0.76957 1.01188 0.0
H1873 H 0.52734 0.88031 0.02986 0.0
H1874 H 0.46429 0.88922 0.03014 0.0
H1875 H 0.3876 0.86119 0.02629 0.0
H1876 H 0.32257 0.7492 1.00845 0.0
H1877 H 0.38725 0.74457 1.00723 0.0
C1878 C 0.46222 0.79649 1.01557 0.0
C1879 C 0.49904 0.82502 0.02059 0.0
C1880 C 0.4255 0.80044 1.01594 0.0
C1881 C 0.49961 0.85886 0.02567 0.0
C1882 C 0.46335 0.86348 0.02596 0.0
C1883 C 0.38781 0.83595 0.02214 0.0
C1884 C 0.35036 0.80566 1.01747 0.0
C1885 C 0.42563 0.83374 0.02132 0.0
C1886 C 0.35107 0.77317 1.01205 0.0
C1887 C 0.38808 0.77045 1.01133 0.0
H1888 H 0.20397 0.66238 0.0347 0.0
H1889 H 0.19935 0.68426 1.00465 0.0
H1890 H 0.19595 0.61568 1.00112 0.0
H1891 H 0.19987 0.55183 1.00679 0.0
H1892 H 0.20243 0.53183 0.0371 0.0
H1893 H 0.20133 0.59744 0.0403 0.0
C1894 C 0.20156 0.65192 0.02736 0.0
C1895 C 0.2021 0.67839 0.01994 0.0
C1896 C 0.19968 0.61289 0.02545 0.0
C1897 C 0.19872 0.6643 1.01048 0.0
C1898 C 0.19715 0.62527 1.00848 0.0
C1899 C 0.19965 0.56166 1.01408 0.0
C1900 C 0.20111 0.53672 0.02169 0.0
C1901 C 0.19849 0.59964 1.01592 0.0
C1902 C 0.20081 0.54993 0.0311 0.0
C1903 C 0.20037 0.58765 0.03296 0.0
H1904 H 0.32761 0.57819 0.02588 0.0
H1905 H 0.36776 0.49296 1.01451 0.0
H1906 H 0.4408 0.55345 1.01253 0.0
H1907 H 0.49377 0.63115 1.01459 0.0
H1908 H 0.45115 0.71468 0.02585 0.0
H1909 H 0.37844 0.65457 0.02726 0.0
C1910 C 0.35234 0.57297 0.02289 0.0
C1911 C 0.34262 0.53143 0.02035 0.0
C1912 C 0.39378 0.60762 0.02181 0.0
C1913 C 0.37461 0.52488 1.01642 0.0
C1914 C 0.41634 0.55937 1.01537 0.0
C1915 C 0.4684 0.63579 1.01739 0.0
C1916 C 0.47747 0.67685 0.02025 0.0
C1917 C 0.42644 0.60089 1.01814 0.0
C1918 C 0.44466 0.68308 0.02374 0.0
C1919 C 0.40316 0.64882 0.02451 0.0
H1920 H 0.2619 0.5783 0.52835 0.0
H1921 H 0.1758 0.50737 0.50546 0.0
H1922 H 0.16529 0.56861 0.50208 0.0
H1923 H 0.1794 0.64232 0.50619 0.0
H1924 H 0.26094 0.70772 0.53015 0.0
H1925 H 0.27457 0.64867 0.53257 0.0
C1926 C 0.24081 0.57605 0.52259 0.0
C1927 C 0.21953 0.53832 0.51718 0.0
C1928 C 0.23401 0.61044 0.52094 0.0
C1929 C 0.19259 0.53616 0.50972 0.0
C1930 C 0.18648 0.57108 0.50782 0.0
C1931 C 0.19985 0.6432 0.51195 0.0
C1932 C 0.21884 0.67891 0.51807 0.0
C1933 C 0.20668 0.6083 0.51347 0.0
C1934 C 0.24553 0.68018 0.52548 0.0
C1935 C 0.2535 0.64657 0.52683 0.0
H1936 H 0.50953 0.63865 0.51884 0.0
H1937 H 0.45128 0.71763 0.51845 0.0
H1938 H 0.38104 0.65521 0.51661 0.0
H1939 H 0.33489 0.57771 0.51638 0.0
H1940 H 0.38944 0.49578 0.51849 0.0
H1941 H 0.46183 0.55883 0.51845 0.0
C1942 C 0.48153 0.64202 0.51796 0.0
C1943 C 0.48592 0.68314 0.51823 0.0
C1944 C 0.44031 0.60513 0.51749 0.0
C1945 C 0.44906 0.68678 0.51766 0.0
C1946 C 0.40866 0.65089 0.51684 0.0
C1947 C 0.36274 0.57376 0.51682 0.0
C1948 C 0.35712 0.53246 0.5175 0.0
C1949 C 0.40378 0.60993 0.51694 0.0
C1950 C 0.3932 0.52749 0.51811 0.0
C1951 C 0.4345 0.56352 0.51801 0.0
H1952 H 0.49397 0.86201 0.52506 0.0
H1953 H 0.45058 0.75897 0.50466 0.0
H1954 H 0.38154 0.75457 0.50371 0.0
H1955 H 0.33108 0.77638 0.50939 0.0
H1956 H 0.37361 0.88154 0.529 0.0
H1957 H 0.44539 0.88999 0.52925 0.0
C1958 C 0.46949 0.83893 0.52036 0.0
C1959 C 0.47742 0.81038 0.5151 0.0
C1960 C 0.42974 0.83744 0.51955 0.0
C1961 C 0.4455 0.78116 0.50889 0.0
C1962 C 0.40581 0.77859 0.50829 0.0
C1963 C 0.35657 0.80208 0.51344 0.0
C1964 C 0.34761 0.8289 0.519 0.0
C1965 C 0.39738 0.80625 0.51364 0.0
C1966 C 0.3803 0.8612 0.52449 0.0
C1967 C 0.42112 0.86561 0.52473 0.0
H1968 H 0.21938 0.53429 0.33559 0.0
H1969 H 0.19507 0.5289 0.36574 0.0
H1970 H 0.26081 0.52657 0.36898 0.0
H1971 H 0.32829 0.53172 0.36307 0.0
H1972 H 0.34905 0.53419 0.33269 0.0
H1973 H 0.28161 0.5318 0.32972 0.0
C1974 C 0.22807 0.53186 0.34288 0.0
C1975 C 0.20254 0.53193 0.35043 0.0
C1976 C 0.26552 0.53034 0.34463 0.0
C1977 C 0.21404 0.52859 0.35982 0.0
C1978 C 0.25182 0.52761 0.36165 0.0
C1979 C 0.31778 0.53125 0.3558 0.0
C1980 C 0.34399 0.53328 0.34812 0.0
C1981 C 0.27832 0.52936 0.3541 0.0
C1982 C 0.32967 0.5324 0.33875 0.0
C1983 C 0.29107 0.53121 0.33703 0.0
H1984 H 0.46136 0.66423 0.35861 0.0
H1985 H 0.54583 0.70679 0.33437 0.0
H1986 H 0.55141 0.77691 0.33512 0.0
H1987 H 0.52819 0.82508 0.34181 0.0
H1988 H 0.44332 0.78313 0.36601 0.0
H1989 H 0.44189 0.71483 0.36606 0.0
C1990 C 0.48172 0.68923 0.35365 0.0
C1991 C 0.50324 0.68019 0.34646 0.0
C1992 C 0.48424 0.72977 0.35399 0.0
C1993 C 0.5289 0.71281 0.33998 0.0
C1994 C 0.53199 0.753 0.34036 0.0
C1995 C 0.50971 0.8012 0.34716 0.0
C1996 C 0.48606 0.80971 0.35389 0.0
C1997 C 0.50906 0.76165 0.34719 0.0
C1998 C 0.46226 0.77802 0.36076 0.0
C1999 C 0.46126 0.73863 0.36079 0.0
H2000 H 0.19929 0.71963 0.34916 0.0
H2001 H 0.24906 0.64063 0.35968 0.0
H2002 H 0.32088 0.70222 0.3601 0.0
H2003 H 0.37057 0.7777 0.35668 0.0
H2004 H 0.32271 0.85913 0.34701 0.0
H2005 H 0.24935 0.79816 0.34722 0.0
C2006 C 0.22593 0.71618 0.35158 0.0
C2007 C 0.2189 0.67564 0.35437 0.0
C2008 C 0.26744 0.75229 0.35206 0.0
C2009 C 0.25361 0.67155 0.35755 0.0
C2010 C 0.29475 0.70674 0.35779 0.0
C2011 C 0.34383 0.78222 0.35491 0.0
C2012 C 0.35164 0.82271 0.35202 0.0
C2013 C 0.3021 0.74716 0.35503 0.0
C2014 C 0.31711 0.82831 0.34951 0.0
C2015 C 0.2753 0.79333 0.3495 0.0
H2016 H 0.2853 0.33966 0.17174 0.0
H2017 H 0.28728 0.33159 0.20241 0.0
H2018 H 0.36505 0.37192 0.20234 0.0
H2019 H 0.43403 0.41014 0.19356 0.0
H2020 H 0.43148 0.42094 0.163 0.0
H2021 H 0.35363 0.37891 0.16306 0.0
C2022 C 0.3026 0.34679 0.17842 0.0
C2023 C 0.2797 0.33221 0.18705 0.0
C2024 C 0.34788 0.37054 0.17837 0.0
C2025 C 0.30338 0.34204 0.19561 0.0
C2026 C 0.34822 0.36522 0.1956 0.0
C2027 C 0.41636 0.40324 0.18693 0.0
C2028 C 0.43884 0.41894 0.17828 0.0
C2029 C 0.37101 0.37965 0.18702 0.0
C2030 C 0.41523 0.40975 0.16977 0.0
C2031 C 0.37052 0.38557 0.16979 0.0
H2032 H 0.64159 0.05641 0.19061 0.0
H2033 H 0.56701 0.98073 0.16675 0.0
H2034 H 0.59954 0.93578 0.16794 0.0
H2035 H 0.65352 0.92049 0.17484 0.0
H2036 H 0.72829 0.99507 0.1988 0.0
H2037 H 0.69243 0.0373 0.19839 0.0
C2038 C 0.63178 0.02948 0.18583 0.0
C2039 C 0.60142 0.02203 0.17861 0.0
C2040 C 0.65156 1.00371 0.18642 0.0
C2041 C 0.59005 0.98736 0.17238 0.0
C2042 C 0.60892 0.96162 0.17301 0.0
C2043 C 0.66182 0.94576 0.18002 0.0
C2044 C 0.69392 0.95422 0.18681 0.0
C2045 C 0.64052 0.96997 0.17983 0.0
C2046 C 0.70372 0.98724 0.19348 0.0
C2047 C 0.68315 0.0117 0.19326 0.0
H2048 H 0.03066 0.72895 0.19458 0.0
H2049 H 0.13673 0.75805 0.17599 0.0
H2050 H 0.1091 0.68205 0.17315 0.0
H2051 H 0.05265 0.60653 0.1751 0.0
H2052 H 0.94619 0.57663 0.19358 0.0
H2053 H 0.97551 0.65251 0.19716 0.0
C2054 C 0.04798 0.71863 0.19 0.0
C2055 C 0.08584 0.74969 0.18549 0.0
C2056 C 0.03143 0.67426 0.18824 0.0
C2057 C 0.10741 0.73529 0.17951 0.0
C2058 C 0.09158 0.69159 0.17786 0.0
C2059 C 0.03604 0.61658 0.17997 0.0
C2060 C 0.9971 0.5855 0.18402 0.0
C2061 C 0.05325 0.66068 0.18204 0.0
C2062 C 0.97623 0.59947 0.19034 0.0
C2063 C 0.993 0.64312 0.1924 0.0
H2064 H 0.38187 0.28423 0.35981 0.0
H2065 H 0.29355 0.27925 0.3385 0.0
H2066 H 0.32907 0.35745 0.3383 0.0
H2067 H 0.38343 0.42854 0.34495 0.0
H2068 H 0.47131 0.4322 0.36621 0.0
H2069 H 0.43917 0.35456 0.36541 0.0
C2070 C 0.37057 0.30021 0.35507 0.0
C2071 C 0.33484 0.2754 0.3492 0.0
C2072 C 0.39165 0.3456 0.35488 0.0
C2073 C 0.32104 0.29713 0.34307 0.0
C2074 C 0.34139 0.34212 0.34295 0.0
C2075 C 0.39626 0.41238 0.34919 0.0
C2076 C 0.43034 0.43652 0.35555 0.0
C2077 C 0.37666 0.36693 0.34888 0.0
C2078 C 0.44554 0.41467 0.36119 0.0
C2079 C 0.42686 0.37005 0.36081 0.0
H2080 H 0.59842 0.95658 0.34627 0.0
H2081 H 0.59617 0.04701 0.36599 0.0
H2082 H 0.67336 0.09233 0.36469 0.0
H2083 H 0.74281 0.10361 0.35921 0.0
H2084 H 0.74698 0.01412 0.33951 0.0
H2085 H 0.6689 0.97147 0.33961 0.0
C2086 C 0.6148 0.98674 0.35007 0.0
C2087 C 0.59129 0.99847 0.35618 0.0
C2088 C 0.66002 0.01258 0.34947 0.0
C2089 C 0.6133 0.03725 0.36122 0.0
C2090 C 0.65763 0.06314 0.36053 0.0
C2091 C 0.7267 0.07497 0.35488 0.0
C2092 C 0.75116 0.06226 0.3494 0.0
C2093 C 0.68156 0.05064 0.3549 0.0
C2094 C 0.7293 0.02506 0.34377 0.0
C2095 C 0.68443 1.00045 0.34384 0.0
H2096 H 0.95883 0.68142 0.36498 0.0
H2097 H 0.95806 0.68469 0.33423 0.0
H2098 H 0.99518 0.64374 0.33364 0.0
H2099 H 0.02835 0.60609 0.34189 0.0
H2100 H 0.02589 0.60073 0.37258 0.0
H2101 H 0.99067 0.64351 0.37313 0.0
C2102 C 0.96651 0.67308 0.35813 0.0
C2103 C 0.95521 0.68635 0.34968 0.0
C2104 C 0.98784 0.64912 0.35782 0.0
C2105 C 0.966 0.67512 0.3409 0.0
C2106 C 0.98745 0.65163 0.34053 0.0
C2107 C 0.02005 0.61435 0.34868 0.0
C2108 C 0.0296 0.59992 0.35719 0.0
C2109 C 0.99864 0.63838 0.34895 0.0
C2110 C 0.01853 0.6109 0.36592 0.0
C2111 C 0.99838 0.63549 0.36625 0.0
H2112 H 0.59578 0.61035 0.84225 0.0
H2113 H 0.59774 0.59643 0.87274 0.0
H2114 H 0.67549 0.63839 0.87277 0.0
H2115 H 0.74381 0.67829 0.86425 0.0
H2116 H 0.74333 0.69057 0.83366 0.0
H2117 H 0.66533 0.64997 0.83357 0.0
C2118 C 0.6133 0.61646 0.84888 0.0
C2119 C 0.59058 0.59976 0.85749 0.0
C2120 C 0.65874 0.64019 0.84884 0.0
C2121 C 0.61407 0.60818 0.866 0.0
C2122 C 0.65875 0.63238 0.86603 0.0
C2123 C 0.72684 0.67203 0.85753 0.0
C2124 C 0.75018 0.68778 0.84898 0.0
C2125 C 0.68159 0.6483 0.85751 0.0
C2126 C 0.72686 0.67917 0.8404 0.0
C2127 C 0.68193 0.65584 0.84033 0.0
H2128 H 0.29881 0.01538 0.84854 0.0
H2129 H 0.40329 0.14423 0.85161 0.0
H2130 H 0.45357 0.11749 0.85312 0.0
H2131 H 0.46741 0.05682 0.85464 0.0
H2132 H 0.3627 0.92792 0.8516 0.0
H2133 H 0.31314 0.95483 0.84927 0.0
C2134 C 0.33266 0.03752 0.84947 0.0
C2135 C 0.34739 0.08178 0.84999 0.0
C2136 C 0.36133 0.02173 0.85051 0.0
C2137 C 0.39122 0.11008 0.85127 0.0
C2138 C 0.41995 0.09474 0.85214 0.0
C2139 C 0.4338 0.03475 0.85338 0.0
C2140 C 0.4189 0.99043 0.85327 0.0
C2141 C 0.40536 0.05058 0.85195 0.0
C2142 C 0.3752 0.9622 0.85161 0.0
C2143 C 0.34673 0.97759 0.85031 0.0
H2144 H 0.93791 0.29548 0.84008 0.0
H2145 H 0.994 0.26106 0.86315 0.0
H2146 H 0.03956 0.33618 0.86723 0.0
H2147 H 0.06171 0.41133 0.86491 0.0
H2148 H 1.00481 0.44889 0.84267 0.0
H2149 H 0.96175 0.37367 0.83761 0.0
C2150 C 0.96036 0.30463 0.84594 0.0
C2151 C 0.96238 0.27244 0.85133 0.0
C2152 C 0.98617 0.34858 0.84846 0.0
C2153 C 0.99151 0.28495 0.85894 0.0
C2154 C 0.01765 0.32801 0.86128 0.0
C2155 C 0.03992 0.40326 0.85894 0.0
C2156 C 0.0365 0.43597 0.85423 0.0
C2157 C 1.01488 0.36004 0.85621 0.0
C2158 C 1.00809 0.42454 0.84647 0.0
C2159 C 0.98342 0.38139 0.84358 0.0
H2160 H 0.64113 0.60751 0.66933 0.0
H2161 H 0.58293 0.57272 0.69708 0.0
H2162 H 0.62066 0.6489 0.70178 0.0
H2163 H 0.66905 0.72718 0.69749 0.0
H2164 H 0.72455 0.75685 0.66931 0.0
H2165 H 0.68984 0.68147 0.66543 0.0
C2166 C 0.63651 0.61633 0.67644 0.0
C2167 C 0.60877 0.58425 0.68279 0.0
C2168 C 0.65815 0.65979 0.67904 0.0
C2169 C 0.60396 0.59661 0.69201 0.0
C2170 C 0.62556 0.64031 0.69469 0.0
C2171 C 0.67355 0.71698 0.69053 0.0
C2172 C 0.69899 0.7482 0.68364 0.0
C2173 C 0.65258 0.67251 0.6882 0.0
C2174 C 0.70457 0.73407 0.67469 0.0
C2175 C 0.68478 0.69073 0.67245 0.0
H2176 H 0.43322 0.06149 0.69042 0.0
H2177 H 0.43536 0.97325 0.67003 0.0
H2178 H 0.35811 0.92791 0.67126 0.0
H2179 H 0.28863 0.91624 0.6769 0.0
H2180 H 0.28482 1.00326 0.69736 0.0
H2181 H 0.36292 0.04609 0.69722 0.0
C2182 C 0.41677 0.0318 0.68645 0.0
C2183 C 0.44017 0.02065 0.68017 0.0
C2184 C 0.37162 1.00603 0.68702 0.0
C2185 C 0.41819 0.98252 0.67492 0.0
C2186 C 0.37387 0.95665 0.67557 0.0
C2187 C 0.30492 0.94438 0.68138 0.0
C2188 C 0.28071 0.95644 0.6871 0.0
C2189 C 0.35003 0.96861 0.68137 0.0
C2190 C 0.30253 0.99293 0.69293 0.0
C2191 C 0.34734 0.01759 0.69284 0.0
H2192 H 0.02186 0.42003 0.66829 0.0
H2193 H 0.96959 0.40348 0.69655 0.0
H2194 H 1.00648 0.36438 0.7013 0.0
H2195 H 0.05192 0.33185 0.69699 0.0
H2196 H 0.10453 0.35273 0.66854 0.0
H2197 H 0.0696 0.39287 0.66441 0.0
C2198 C 0.01874 0.40819 0.67553 0.0
C2199 C 0.99285 0.4146 0.68202 0.0
C2200 C 0.0402 0.38615 0.67819 0.0
C2201 C 0.98941 0.39916 0.69139 0.0
C2202 C 1.01043 0.37661 0.69409 0.0
C2203 C 0.05605 0.34552 0.68993 0.0
C2204 C 0.08102 0.33866 0.68311 0.0
C2205 C 0.03571 0.36943 0.6875 0.0
C2206 C 0.08573 0.35692 0.67399 0.0
C2207 C 0.0656 0.38007 0.67157 0.0
H2208 H 0.9521 0.67153 0.50506 0.0
H2209 H 0.95034 0.66939 0.53581 0.0
H2210 H 0.02829 0.71015 0.53618 0.0
H2211 H 0.09825 0.7471 0.52771 0.0
H2212 H 0.09882 0.75012 0.49699 0.0
H2213 H 0.02107 0.70809 0.4967 0.0
C2214 C 0.96866 0.68019 0.51185 0.0
C2215 C 0.94491 0.66735 0.52038 0.0
C2216 C 1.01381 0.70369 0.51203 0.0
C2217 C 0.96741 0.67865 0.5291 0.0
C2218 C 1.01222 0.70202 0.52933 0.0
C2219 C 0.08123 0.73847 0.52097 0.0
C2220 C 0.10446 0.75211 0.51238 0.0
C2221 C 0.03594 0.71473 0.52084 0.0
C2222 C 0.08185 0.74062 0.50371 0.0
C2223 C 0.03725 0.71646 0.50353 0.0
H2224 H 0.361 0.30478 0.53041 0.0
H2225 H 0.33572 0.24607 0.5025 0.0
H2226 H 0.29458 0.27958 0.49824 0.0
H2227 H 0.26768 0.32773 0.50178 0.0
H2228 H 0.28897 0.38677 0.5294 0.0
H2229 H 0.3287 0.35092 0.53441 0.0
C2230 C 0.34606 0.29893 0.52345 0.0
C2231 C 0.35215 0.27275 0.51681 0.0
C2232 C 0.3215 0.3185 0.52093 0.0
C2233 C 0.33229 0.26591 0.50782 0.0
C2234 C 0.3085 0.28519 0.50531 0.0
C2235 C 0.28065 0.33252 0.50894 0.0
C2236 C 0.27521 0.35985 0.51519 0.0
C2237 C 0.30327 0.31186 0.51173 0.0
C2238 C 0.29225 0.36557 0.52446 0.0
C2239 C 0.31526 0.34522 0.52729 0.0
H2240 H 0.70691 0.92854 0.52505 0.0
H2241 H 0.61636 0.9191 0.50384 0.0
H2242 H 0.64603 0.9968 0.50432 0.0
H2243 H 0.6998 0.06835 0.51033 0.0
H2244 H 0.78709 0.07796 0.5324 0.0
H2245 H 0.75735 1.00011 0.532 0.0
C2246 C 0.69385 0.94365 0.52054 0.0
C2247 C 0.65997 0.91816 0.51427 0.0
C2248 C 0.71083 0.98861 0.52096 0.0
C2249 C 0.64283 0.93807 0.5086 0.0
C2250 C 0.6598 0.98254 0.50888 0.0
C2251 C 0.71226 0.05334 0.51505 0.0
C2252 C 0.74606 0.07912 0.52131 0.0
C2253 C 0.69417 1.0083 0.51494 0.0
C2254 C 0.7612 0.05899 0.52751 0.0
C2255 C 0.74421 0.0144 0.52726 0.0
H2256 H 0.04952 0.76165 0.67883 0.0
H2257 H 0.13692 0.76347 0.69999 0.0
H2258 H 0.10433 0.68584 0.69897 0.0
H2259 H 0.04657 0.61618 0.69327 0.0
H2260 H 0.95889 0.61297 0.67202 0.0
H2261 H 0.99495 0.69126 0.67199 0.0
C2262 C 0.06206 0.74507 0.68301 0.0
C2263 C 0.09597 0.76851 0.68943 0.0
C2264 C 0.04225 0.69972 0.68256 0.0
C2265 C 0.11108 0.7463 0.69496 0.0
C2266 C 0.09219 0.70176 0.69445 0.0
C2267 C 0.03557 0.63263 0.68858 0.0
C2268 C 0.99991 0.60848 0.68269 0.0
C2269 C 0.05696 0.67791 0.68849 0.0
C2270 C 0.9864 0.63056 0.6766 0.0
C2271 C 1.00702 0.6755 0.67659 0.0
H2272 H 0.26338 0.32699 0.67402 0.0
H2273 H 0.26326 0.33554 0.70468 0.0
H2274 H 0.3409 0.37135 0.70494 0.0
H2275 H 0.40918 0.40212 0.69664 0.0
H2276 H 0.41207 0.39621 0.66596 0.0
H2277 H 0.33376 0.3585 0.66552 0.0
C2278 C 0.2805 0.33673 0.68073 0.0
C2279 C 0.25736 0.32885 0.68933 0.0
C2280 C 0.32586 0.35838 0.68083 0.0
C2281 C 0.28009 0.34166 0.69796 0.0
C2282 C 0.32463 0.36216 0.69813 0.0
C2283 C 0.39293 0.39298 0.68982 0.0
C2284 C 0.41701 0.40261 0.68134 0.0
C2285 C 0.34792 0.37118 0.68962 0.0
C2286 C 0.39475 0.3896 0.67262 0.0
C2287 C 0.34979 0.36786 0.67236 0.0
H2288 H 0.64939 0.90639 0.69638 0.0
H2289 H 0.74055 0.96797 0.67376 0.0
H2290 H 0.70957 0.01313 0.67016 0.0
H2291 H 0.65811 0.03796 0.67391 0.0
H2292 H 0.56828 0.97685 0.69683 0.0
H2293 H 0.59656 0.92905 0.69969 0.0
C2294 C 0.66219 0.92937 0.6906 0.0
C2295 C 0.69737 0.9336 0.68538 0.0
C2296 C 0.64434 0.95569 0.68859 0.0
C2297 C 0.71352 0.96381 0.67792 0.0
C2298 C 0.69581 0.98984 0.67585 0.0
C2299 C 0.64439 0.01384 0.67945 0.0
C2300 C 0.61099 0.01134 0.68514 0.0
C2301 C 0.6614 0.98646 0.6812 0.0
C2302 C 0.5941 0.97999 0.69235 0.0
C2303 C 0.61029 0.95245 0.69402 0.0
H2304 H 0.26262 0.97372 0.17927 0.0
H2305 H 0.26427 0.89381 0.20194 0.0
H2306 H 0.34145 0.92615 0.20048 0.0
H2307 H 0.40999 0.98112 0.19375 0.0
H2308 H 0.41006 0.062 0.1711 0.0
H2309 H 0.33209 0.02623 0.17165 0.0
C2310 C 0.27982 0.96278 0.18373 0.0
C2311 C 0.25731 0.93096 0.19069 0.0
C2312 C 0.32511 0.98249 0.183 0.0
C2313 C 0.28052 0.91801 0.19652 0.0
C2314 C 0.32489 0.93674 0.19573 0.0
C2315 C 0.39302 0.99081 0.18889 0.0
C2316 C 0.41644 0.02449 0.18242 0.0
C2317 C 0.34779 0.96974 0.18918 0.0
C2318 C 0.39334 0.03613 0.17614 0.0
C2319 C 0.34846 0.01564 0.17646 0.0
H2320 H 0.05491 0.44334 0.19123 0.0
H2321 H 0.95241 0.34586 0.17457 0.0
H2322 H 0.98596 0.30129 0.17529 0.0
H2323 H 0.04306 0.28779 0.18159 0.0
H2324 H 0.14528 0.38626 0.19814 0.0
H2325 H 0.11457 0.43273 0.19622 0.0
C2326 C 0.04015 0.41254 0.18768 0.0
C2327 C 1.00107 0.39815 0.18287 0.0
C2328 C 0.06006 0.38718 0.188 0.0
C2329 C 0.98263 0.35809 0.17826 0.0
C2330 C 1.00181 0.33242 0.17869 0.0
C2331 C 0.0591 0.31984 0.18455 0.0
C2332 C 0.09682 0.33366 0.18994 0.0
C2333 C 0.04046 0.34637 0.18361 0.0
C2334 C 0.11649 0.37491 0.19392 0.0
C2335 C 0.09871 0.40146 0.19289 0.0
H2336 H 0.66644 0.62643 0.17485 0.0
H2337 H 0.56377 0.59625 0.19456 0.0
H2338 H 0.59274 0.67217 0.19793 0.0
H2339 H 0.64912 0.74789 0.19595 0.0
H2340 H 0.75302 0.77865 0.1766 0.0
H2341 H 0.72226 0.70291 0.17254 0.0
C2342 C 0.65016 0.63647 0.17981 0.0
C2343 C 0.61269 0.60507 0.18443 0.0
C2344 C 0.66761 0.68076 0.18189 0.0
C2345 C 0.59261 0.61919 0.19092 0.0
C2346 C 0.60924 0.66286 0.19287 0.0
C2347 C 0.66493 0.73809 0.1908 0.0
C2348 C 0.70354 0.76939 0.18662 0.0
C2349 C 0.64703 0.69404 0.18851 0.0
C2350 C 0.72334 0.75565 0.17995 0.0
C2351 C 0.7057 0.71209 0.17762 0.0
H2352 H 0.24334 0.94111 1.00896 0.0
H2353 H 0.32525 0.91397 0.0264 0.0
H2354 H 0.37134 0.99038 0.0296 0.0
H2355 H 0.39051 0.06623 0.02687 0.0
H2356 H 0.30848 0.09234 1.00916 0.0
H2357 H 0.26058 0.01593 1.00681 0.0
C2358 C 0.2711 0.95189 1.01351 0.0
C2359 C 0.28071 0.92161 1.01739 0.0
C2360 C 0.2977 0.99613 1.01531 0.0
C2361 C 0.31688 0.93636 0.02331 0.0
C2362 C 0.34341 0.98023 0.02514 0.0
C2363 C 0.3619 0.05516 0.02259 0.0
C2364 C 0.35339 0.08539 1.01818 0.0
C2365 C 0.33444 0.01062 0.02111 0.0
C2366 C 0.31623 0.07014 1.01259 0.0
C2367 C 0.28867 0.02625 1.01123 0.0
H2368 H 0.09489 0.34929 0.02962 0.0
H2369 H 0.1011 0.36128 0.99898 0.0
H2370 H 0.02383 0.32876 0.99813 0.0
H2371 H 0.95411 0.29473 1.0058 0.0
H2372 H 0.94484 0.28002 0.03637 0.0
H2373 H 0.02292 0.315 0.03751 0.0
C2374 C 0.07916 0.34458 0.02278 0.0
C2375 C 0.10389 0.35714 1.01436 0.0
C2376 C 0.03396 0.32496 0.0223 0.0
C2377 C 0.08299 0.35116 1.00556 0.0
C2378 C 0.03867 0.33266 1.00505 0.0
C2379 C 0.96892 0.29892 1.01275 0.0
C2380 C 0.94315 0.28426 0.02097 0.0
C2381 C 1.01376 0.31894 1.01334 0.0
C2382 C 0.96354 0.29083 0.02989 0.0
C2383 C 1.00835 0.31086 0.03054 0.0
H2384 H 0.69755 0.63454 0.02614 0.0
H2385 H 0.8099 0.72294 1.0105 0.0
H2386 H 0.78127 0.77129 1.0085 0.0
H2387 H 0.72232 0.78689 1.01031 0.0
H2388 H 0.60893 0.69771 0.02555 0.0
H2389 H 0.63925 0.65134 0.02842 0.0
C2390 C 0.71591 0.66462 0.02239 0.0
C2391 C 0.75596 0.6751 0.01848 0.0
C2392 C 0.69866 0.69199 0.02105 0.0
C2393 C 0.77898 0.71394 1.01352 0.0
C2394 C 0.76257 0.74164 1.01237 0.0
C2395 C 0.70443 0.75748 1.01432 0.0
C2396 C 0.66338 0.74599 1.01771 0.0
C2397 C 0.72213 0.73076 1.01595 0.0
C2398 C 0.64069 0.70767 0.02291 0.0
C2399 C 0.65801 0.68097 0.02454 0.0
H2400 H 0.76488 0.10142 0.86079 0.0
H2401 H 0.76716 0.06579 0.83157 0.0
H2402 H 0.68959 0.01979 0.83169 0.0
H2403 H 0.62047 0.99149 0.83982 0.0
H2404 H 0.61666 0.0257 0.86908 0.0
H2405 H 0.69469 0.07082 0.86919 0.0
C2406 C 0.7482 0.08374 0.85445 0.0
C2407 C 0.77166 0.08777 0.8461 0.0
C2408 C 0.70312 0.05744 0.85454 0.0
C2409 C 0.74975 0.0641 0.838 0.0
C2410 C 0.70536 0.03764 0.83807 0.0
C2411 C 0.63664 1.00901 0.84621 0.0
C2412 C 0.61249 1.00553 0.85439 0.0
C2413 C 0.68158 0.03452 0.84624 0.0
C2414 C 0.63429 0.02778 0.86267 0.0
C2415 C 0.67901 0.05365 0.86273 0.0
H2416 H 0.98363 0.73158 0.85711 0.0
H2417 H 0.88948 0.63748 0.83825 0.0
H2418 H 0.91961 0.59086 0.84062 0.0
H2419 H 0.97716 0.57948 0.84661 0.0
H2420 H 0.07182 0.67193 0.86561 0.0
H2421 H 0.03791 0.71626 0.86457 0.0
C2422 C 0.96907 0.70034 0.85376 0.0
C2423 C 0.93391 0.68792 0.84755 0.0
C2424 C 0.9874 0.67364 0.855 0.0
C2425 C 0.91625 0.64776 0.84309 0.0
C2426 C 0.93371 0.62113 0.84439 0.0
C2427 C 0.99003 0.60903 0.85064 0.0
C2428 C 0.02706 0.62217 0.85619 0.0
C2429 C 0.97002 0.63417 0.85009 0.0
C2430 C 0.04313 0.66063 0.86137 0.0
C2431 C 0.02378 0.68619 0.86073 0.0
H2432 H 0.37912 0.27433 0.83994 0.0
H2433 H 0.28394 0.24171 0.86174 0.0
H2434 H 0.31504 0.31746 0.86593 0.0
H2435 H 0.36811 0.39445 0.86291 0.0
H2436 H 0.46178 0.4255 0.84074 0.0
H2437 H 0.43291 0.34991 0.83731 0.0
C2438 C 0.36534 0.28371 0.84566 0.0
C2439 C 0.32907 0.25206 0.85048 0.0
C2440 C 0.38323 0.32758 0.84799 0.0
C2441 C 0.31178 0.26515 0.85787 0.0
C2442 C 0.32959 0.30866 0.86028 0.0
C2443 C 0.3825 0.38466 0.85741 0.0
C2444 C 0.41729 0.41625 0.8521 0.0
C2445 C 0.36517 0.34041 0.85532 0.0
C2446 C 0.43499 0.40245 0.84493 0.0
C2447 C 0.41845 0.35895 0.84294 0.0
H2448 H 0.7221 0.95705 1.01098 0.0
H2449 H 0.60757 0.92755 0.0264 0.0
H2450 H 0.63219 1.00366 0.02829 0.0
H2451 H 0.6876 0.07847 0.02648 0.0
H2452 H 0.8039 0.11062 1.01155 0.0
H2453 H 0.77766 0.03424 1.00855 0.0
C2454 C 0.70277 0.96751 1.01476 0.0
C2455 C 0.66329 0.93672 0.0187 0.0
C2456 C 0.71759 0.01186 1.01595 0.0
C2457 C 0.6383 0.95063 0.02347 0.0
C2458 C 0.65232 0.99417 0.02453 0.0
C2459 C 0.70721 0.06887 0.02252 0.0
C2460 C 0.74784 0.10029 0.01933 0.0
C2461 C 0.69213 0.02505 0.02094 0.0
C2462 C 0.77253 0.08717 1.01411 0.0
C2463 C 0.75755 0.04341 1.01243 0.0
H2464 H 0.94496 0.72026 0.02505 0.0
H2465 H 0.92217 0.59921 1.01392 0.0
H2466 H 0.99876 0.62846 1.01161 0.0
H2467 H 0.07324 0.68836 1.01305 0.0
H2468 H 0.09647 0.80882 0.02457 0.0
H2469 H 0.01941 0.78068 0.02613 0.0
C2470 C 0.95681 0.70045 0.02205 0.0
C2471 C 0.92762 0.6576 0.01963 0.0
C2472 C 1.00126 0.7176 0.02073 0.0
C2473 C 0.94364 0.6324 1.01575 0.0
C2474 C 0.98761 0.6491 1.01445 0.0
C2475 C 0.06134 0.70847 1.01585 0.0
C2476 C 0.09063 0.75069 0.01872 0.0
C2477 C 0.01684 0.69164 1.01694 0.0
C2478 C 0.07468 0.77616 0.02241 0.0
C2479 C 0.03057 0.76004 0.0233 0.0
H2480 H 0.28072 0.33762 0.03132 0.0
H2481 H 0.30107 0.36338 1.00118 0.0
H2482 H 0.34017 0.32429 1.0004 0.0
H2483 H 0.36985 0.28281 1.0084 0.0
H2484 H 0.34691 0.25601 0.03846 0.0
H2485 H 0.3087 0.29567 0.03914 0.0
C2486 C 0.2934 0.33451 0.02456 0.0
C2487 C 0.28761 0.35355 1.01633 0.0
C2488 C 0.31598 0.31187 0.02414 0.0
C2489 C 0.30484 0.34924 1.00766 0.0
C2490 C 0.32738 0.32684 1.0072 0.0
C2491 C 0.35631 0.28557 1.01507 0.0
C2492 C 0.36111 0.26605 0.02335 0.0
C2493 C 0.33337 0.30806 1.01541 0.0
C2494 C 0.34333 0.27007 0.03194 0.0
C2495 C 0.32147 0.29294 0.03236 0.0
H2496 H 0.08209 0.32463 0.52916 0.0
H2497 H 0.07901 0.3802 0.50217 0.0
H2498 H 1.00083 0.34249 0.50267 0.0
H2499 H 0.93207 0.29612 0.51142 0.0
H2500 H 0.93806 0.24186 0.53841 0.0
H2501 H 1.01517 0.2756 0.53715 0.0
C2502 C 0.06446 0.32839 0.52334 0.0
C2503 C 0.08693 0.35559 0.51568 0.0
C2504 C 0.01936 0.30644 0.52365 0.0
C2505 C 0.06297 0.3595 0.50818 0.0
C2506 C 0.01801 0.33792 0.50847 0.0
C2507 C 0.95027 0.29112 0.51692 0.0
C2508 C 0.92895 0.26635 0.52503 0.0
C2509 C 0.99561 0.31152 0.51624 0.0
C2510 C 0.95336 0.26079 0.53212 0.0
C2511 C 0.9977 0.28024 0.53143 0.0
H2512 H 0.64824 0.69543 0.50844 0.0
H2513 H 0.71258 0.79011 0.53037 0.0
H2514 H 0.76069 0.76219 0.53332 0.0
H2515 H 0.78308 0.70878 0.5303 0.0
H2516 H 0.7179 0.61243 0.50878 0.0
H2517 H 0.67207 0.64269 0.50511 0.0
C2518 C 0.673 0.71018 0.51381 0.0
C2519 C 0.67645 0.74498 0.51919 0.0
C2520 C 0.70048 0.69334 0.51562 0.0
C2521 C 0.7087 0.76323 0.52616 0.0
C2522 C 0.73641 0.74725 0.52786 0.0
C2523 C 0.75908 0.69459 0.52476 0.0
C2524 C 0.75412 0.65825 0.51985 0.0
C2525 C 0.73237 0.71199 0.52274 0.0
C2526 C 0.72265 0.64038 0.51269 0.0
C2527 C 0.69626 0.65768 0.51059 0.0
H2528 H 0.32509 0.95855 0.5071 0.0
H2529 H 0.2302 0.93007 0.52885 0.0
H2530 H 0.26017 1.00603 0.53207 0.0
H2531 H 0.31557 0.08091 0.52947 0.0
H2532 H 0.41197 0.11061 0.5081 0.0
H2533 H 0.37936 0.03468 0.50399 0.0
C2534 C 0.31064 0.96901 0.51245 0.0
C2535 C 0.27529 0.93823 0.51772 0.0
C2536 C 0.32858 0.01327 0.51442 0.0
C2537 C 0.25743 0.95268 0.52469 0.0
C2538 C 0.2746 0.99631 0.52657 0.0
C2539 C 0.32923 0.07081 0.52386 0.0
C2540 C 0.36631 0.10153 0.51915 0.0
C2541 C 0.31052 0.02692 0.52159 0.0
C2542 C 0.38353 0.08773 0.51188 0.0
C2543 C 0.36488 0.04419 0.50953 0.0
H2544 H 0.01896 0.39038 0.36403 0.0
H2545 H 0.0228 0.42373 0.33429 0.0
H2546 H 0.98401 0.34881 0.33001 0.0
H2547 H 0.9494 0.27335 0.33428 0.0
H2548 H 0.94153 0.23608 0.36369 0.0
H2549 H 0.9807 0.31201 0.36846 0.0
C2550 C 1.0111 0.38124 0.35663 0.0
C2551 C 0.0241 0.41355 0.34954 0.0
C2552 C 0.98779 0.33701 0.3541 0.0
C2553 C 1.01336 0.40043 0.33998 0.0
C2554 C 0.99108 0.35721 0.33747 0.0
C2555 C 0.956 0.2817 0.34176 0.0
C2556 C 0.94237 0.24883 0.34859 0.0
C2557 C 0.97818 0.32525 0.34442 0.0
C2558 C 0.95132 0.26054 0.35826 0.0
C2559 C 0.97393 0.30411 0.36098 0.0
H2560 H 0.75177 0.73295 0.33968 0.0
H2561 H 0.78379 0.6652 0.36034 0.0
H2562 H 0.708 0.62177 0.3648 0.0
H2563 H 0.63081 0.59949 0.36183 0.0
H2564 H 0.60176 0.67008 0.34122 0.0
H2565 H 0.6776 0.71642 0.33794 0.0
C2566 C 0.74223 0.70909 0.34527 0.0
C2567 C 0.7734 0.70229 0.34965 0.0
C2568 C 0.69877 0.68463 0.34781 0.0
C2569 C 0.76055 0.6714 0.35692 0.0
C2570 C 0.71707 0.64635 0.35941 0.0
C2571 C 0.64129 0.62541 0.35673 0.0
C2572 C 0.61051 0.6311 0.3517 0.0
C2573 C 0.6856 0.65211 0.35479 0.0
C2574 C 0.62466 0.66477 0.3451 0.0
C2575 C 0.66809 0.69129 0.34321 0.0
H2576 H 0.38292 0.11594 0.34038 0.0
H2577 H 0.28574 0.04827 0.36155 0.0
H2578 H 0.31632 1.0027 0.36512 0.0
H2579 H 0.36975 0.97978 0.36186 0.0
H2580 H 0.46561 0.04665 0.34036 0.0
H2581 H 0.43728 0.09461 0.33749 0.0
C2582 C 0.36865 0.09148 0.34583 0.0
C2583 C 0.33194 0.08584 0.35066 0.0
C2584 C 0.38641 0.06498 0.34785 0.0
C2585 C 0.31401 0.05372 0.35771 0.0
C2586 C 0.33151 0.02743 0.35976 0.0
C2587 C 0.38473 1.00513 0.35662 0.0
C2588 C 0.42 1.00934 0.35134 0.0
C2589 C 0.36761 0.03246 0.35483 0.0
C2590 C 0.43842 0.04224 0.3445 0.0
C2591 C 0.42217 0.06982 0.34284 0.0
H2592 H 0.24189 0.41152 0.09056 0.0
H2593 H 0.19232 0.2806 0.08155 0.0
H2594 H 0.18195 0.25746 0.09813 0.0
H2595 H 0.18227 0.27343 0.11518 0.0
H2596 H 0.23676 0.40487 0.12426 0.0
H2597 H 0.25008 0.42841 0.1077 0.0
C2598 C 0.22966 0.378 0.09217 0.0
C2599 C 0.21728 0.34792 0.08468 0.0
C2600 C 0.22422 0.36477 0.10179 0.0
C2601 C 0.2011 0.30456 0.08707 0.0
C2602 C 0.19538 0.29122 0.09659 0.0
C2603 C 0.1979 0.30735 0.11361 0.0
C2604 C 0.20773 0.3371 0.12108 0.0
C2605 C 0.20608 0.32091 0.10402 0.0
C2606 C 0.22762 0.3809 0.11873 0.0
C2607 C 0.23557 0.39452 0.10923 0.0
H2608 H 0.61754 0.8149 0.09059 0.0
H2609 H 0.72842 0.93113 0.0812 0.0
H2610 H 0.75241 0.9492 0.09774 0.0
H2611 H 0.74295 0.93081 0.11486 0.0
H2612 H 0.63277 0.81296 0.12394 0.0
H2613 H 0.60687 0.79784 0.10761 0.0
C2614 C 0.64659 0.84461 0.09214 0.0
C2615 C 0.67104 0.87156 0.0846 0.0
C2616 C 0.66028 0.85475 0.10166 0.0
C2617 C 0.7091 0.90948 0.08681 0.0
C2618 C 0.72277 0.91995 0.09629 0.0
C2619 C 0.71328 0.90177 0.11329 0.0
C2620 C 0.68996 0.87324 0.12074 0.0
C2621 C 0.69886 0.89257 0.10377 0.0
C2622 C 0.65121 0.83611 0.11848 0.0
C2623 C 0.63648 0.82709 0.10908 0.0
H2624 H 0.12724 0.86069 0.11413 0.0
H2625 H 0.1734 0.77667 0.12337 0.0
H2626 H 0.18166 0.76163 0.10684 0.0
H2627 H 0.18202 0.77723 0.08977 0.0
H2628 H 0.12911 0.85544 0.08048 0.0
H2629 H 0.11701 0.8672 0.09699 0.0
C2630 C 0.13818 0.83828 0.1126 0.0
C2631 C 0.15077 0.82093 0.12014 0.0
C2632 C 0.14219 0.82898 0.10301 0.0
C2633 C 0.16491 0.79197 0.11782 0.0
C2634 C 0.16938 0.783 0.10832 0.0
C2635 C 0.1669 0.79606 0.09127 0.0
C2636 C 0.15762 0.81622 0.08374 0.0
C2637 C 0.15916 0.80216 0.10084 0.0
C2638 C 0.13816 0.84062 0.08603 0.0
C2639 C 0.13085 0.84717 0.09552 0.0
H2640 H 0.31063 0.18457 0.45313 0.0
H2641 H 0.44595 0.26826 0.44905 0.0
H2642 H 0.43507 0.26833 0.4319 0.0
H2643 H 0.38793 0.24083 0.41788 0.0
H2644 H 0.25331 0.15354 0.42195 0.0
H2645 H 0.26326 0.15883 0.43918 0.0
C2646 C 0.33782 0.20283 0.44851 0.0
C2647 C 0.37909 0.22626 0.45247 0.0
C2648 C 0.33152 0.20201 0.43858 0.0
C2649 C 0.4137 0.25036 0.4463 0.0
C2650 C 0.40759 0.25011 0.43644 0.0
C2651 C 0.36073 0.22296 0.42253 0.0
C2652 C 0.31991 0.19686 0.41854 0.0
C2653 C 0.36675 0.22546 0.43248 0.0
C2654 C 0.28501 0.17448 0.42474 0.0
C2655 C 0.29071 0.17715 0.43463 0.0
H2656 H 0.77616 0.12885 0.41909 0.0
H2657 H 0.90332 0.14771 0.42195 0.0
H2658 H 0.90027 0.15464 0.43916 0.0
H2659 H 0.86399 0.16029 0.45324 0.0
H2660 H 0.7354 0.13822 0.45085 0.0
H2661 H 0.737 0.12855 0.43365 0.0
C2662 C 0.80304 0.13421 0.4235 0.0
C2663 C 0.8399 0.13767 0.4192 0.0
C2664 C 0.8011 0.13813 0.43348 0.0
C2665 C 0.87434 0.14432 0.42504 0.0
C2666 C 0.87277 0.14862 0.4349 0.0
C2667 C 0.83575 0.15232 0.44906 0.0
C2668 C 0.79972 0.15027 0.45347 0.0
C2669 C 0.83656 0.14608 0.43919 0.0
C2670 C 0.76401 0.14088 0.44773 0.0
C2671 C 0.76476 0.13506 0.43786 0.0
H2672 H 0.88839 0.74419 0.42342 0.0
H2673 H 0.89139 0.63172 0.41407 0.0
H2674 H 0.8846 0.60739 0.43059 0.0
H2675 H 0.8755 0.6169 0.4477 0.0
H2676 H 0.87034 0.72874 0.45677 0.0
H2677 H 0.88202 0.75496 0.44046 0.0
C2678 C 0.88835 0.71471 0.42497 0.0
C2679 C 0.89035 0.6899 0.41743 0.0
C2680 C 0.88431 0.70079 0.4345 0.0
C2681 C 0.88938 0.65134 0.41966 0.0
C2682 C 0.88568 0.63745 0.42914 0.0
C2683 C 0.87682 0.64698 0.44614 0.0
C2684 C 0.87205 0.67064 0.4536 0.0
C2685 C 0.88259 0.66165 0.43662 0.0
C2686 C 0.87465 0.70995 0.45133 0.0
C2687 C 0.88089 0.7249 0.44193 0.0
H2688 H 0.88202 0.74535 0.92238 0.0
H2689 H 0.76282 0.63779 0.91311 0.0
H2690 H 0.74468 0.61394 0.92962 0.0
H2691 H 0.76397 0.62195 0.9467 0.0
H2692 H 0.88425 0.72907 0.95571 0.0
H2693 H 0.89946 0.75538 0.93941 0.0
C2694 C 0.85165 0.71713 0.92394 0.0
C2695 C 0.82405 0.69342 0.91641 0.0
C2696 C 0.84136 0.70349 0.93348 0.0
C2697 C 0.78515 0.65646 0.91868 0.0
C2698 C 0.77461 0.64285 0.92815 0.0
C2699 C 0.79357 0.65104 0.94513 0.0
C2700 C 0.82279 0.67328 0.95256 0.0
C2701 C 0.80277 0.66575 0.93561 0.0
C2702 C 0.8606 0.71139 0.95028 0.0
C2703 C 0.86966 0.72636 0.94089 0.0
H2704 H 0.27799 0.1057 0.92224 0.0
H2705 H 0.40884 0.18105 0.9129 0.0
H2706 H 0.43285 0.19317 0.92942 0.0
H2707 H 0.41657 0.18675 0.94654 0.0
H2708 H 0.28642 0.1062 0.95588 0.0
H2709 H 0.26271 0.09166 0.93935 0.0
C2710 C 0.31188 0.124 0.92375 0.0
C2711 C 0.34132 0.14302 0.91621 0.0
C2712 C 0.32575 0.13035 0.93332 0.0
C2713 C 0.38509 0.16695 0.91847 0.0
C2714 C 0.399 0.17371 0.92796 0.0
C2715 C 0.38311 0.1652 0.94503 0.0
C2716 C 0.35341 0.14836 0.95259 0.0
C2717 C 0.36957 0.15625 0.93545 0.0
C2718 C 0.3101 0.12082 0.95031 0.0
C2719 C 0.29642 0.11216 0.94082 0.0
H2720 H 0.87078 0.23403 0.91659 0.0
H2721 H 0.92592 0.15259 0.92007 0.0
H2722 H 0.92368 0.15845 0.93731 0.0
H2723 H 0.90168 0.18225 0.95146 0.0
H2724 H 0.84038 0.25814 0.94809 0.0
H2725 H 0.85033 0.25951 0.93088 0.0
C2726 C 0.88233 0.21753 0.9211 0.0
C2727 C 0.89853 0.1929 0.91692 0.0
C2728 C 0.87993 0.22004 0.9311 0.0
C2729 C 0.91398 0.17243 0.92297 0.0
C2730 C 0.91234 0.17539 0.93289 0.0
C2731 C 0.89016 0.19893 0.94699 0.0
C2732 C 0.86979 0.21961 0.95119 0.0
C2733 C 0.89466 0.19843 0.93703 0.0
C2734 C 0.8565 0.24216 0.94519 0.0
C2735 C 0.86178 0.24262 0.93529 0.0
H2736 H 0.60967 0.78123 0.58878 0.0
H2737 H 0.74003 0.83735 0.57905 0.0
H2738 H 0.76474 0.84675 0.59552 0.0
H2739 H 0.74992 0.84405 0.61272 0.0
H2740 H 0.61903 0.78212 0.62235 0.0
H2741 H 0.59434 0.76979 0.6059 0.0
C2742 C 0.64345 0.79462 0.59018 0.0
C2743 C 0.67281 0.80919 0.58255 0.0
C2744 C 0.65758 0.79938 0.59971 0.0
C2745 C 0.71653 0.82689 0.58469 0.0
C2746 C 0.73078 0.83205 0.59415 0.0
C2747 C 0.71593 0.82697 0.61128 0.0
C2748 C 0.68659 0.81495 0.6189 0.0
C2749 C 0.70167 0.81921 0.60173 0.0
C2750 C 0.64265 0.79309 0.61673 0.0
C2751 C 0.62836 0.78568 0.60728 0.0
H2752 H 0.19193 0.89397 0.58318 0.0
H2753 H 0.26684 0.83183 0.58678 0.0
H2754 H 0.26702 0.84094 0.604 0.0
H2755 H 0.24199 0.86212 0.6182 0.0
H2756 H 0.16353 0.92039 0.61461 0.0
H2757 H 0.16895 0.91733 0.59735 0.0
C2758 C 0.20829 0.88233 0.58771 0.0
C2759 C 0.22921 0.86207 0.58357 0.0
C2760 C 0.2076 0.88688 0.59769 0.0
C2761 C 0.25091 0.84807 0.58964 0.0
C2762 C 0.25071 0.8529 0.59955 0.0
C2763 C 0.22603 0.87417 0.61366 0.0
C2764 C 0.20232 0.89142 0.61782 0.0
C2765 C 0.22855 0.87158 0.60367 0.0
C2766 C 0.18256 0.90751 0.61173 0.0
C2767 C 0.1853 0.90541 0.60181 0.0
H2768 H 0.18308 0.41059 0.58964 0.0
H2769 H 0.1225 0.27951 0.57997 0.0
H2770 H 0.10999 0.2547 0.59644 0.0
H2771 H 0.12046 0.27005 0.61362 0.0
H2772 H 0.17613 0.40077 0.62331 0.0
H2773 H 0.18584 0.42543 0.60684 0.0
C2774 C 0.16634 0.37652 0.59107 0.0
C2775 C 0.15452 0.34717 0.58344 0.0
C2776 C 0.15863 0.36222 0.60063 0.0
C2777 C 0.13318 0.30314 0.58561 0.0
C2778 C 0.12569 0.28879 0.59507 0.0
C2779 C 0.13391 0.3039 0.6122 0.0
C2780 C 0.14818 0.33336 0.61984 0.0
C2781 C 0.13896 0.31804 0.60265 0.0
C2782 C 0.16588 0.37717 0.61768 0.0
C2783 C 0.17123 0.39141 0.60821 0.0
H2784 H 0.95543 0.4746 0.75568 0.0
H2785 H 0.05198 0.60303 0.74834 0.0
H2786 H 0.07378 0.61779 0.76512 0.0
H2787 H 0.0657 0.59346 0.78186 0.0
H2788 H 0.9729 0.46211 0.78853 0.0
H2789 H 0.94857 0.45001 0.77215 0.0
C2790 C 0.98088 0.50603 0.75776 0.0
C2791 C 1.00176 0.53778 0.75078 0.0
C2792 C 0.99379 0.51391 0.76735 0.0
C2793 C 0.03538 0.57803 0.75358 0.0
C2794 C 0.0478 0.58646 0.76317 0.0
C2795 C 0.0405 0.56199 0.77976 0.0
C2796 C 0.02109 0.52902 0.78663 0.0
C2797 C 0.02744 0.55447 0.77013 0.0
C2798 C 0.98793 0.48873 0.78363 0.0
C2799 C 0.97416 0.48146 0.77417 0.0
H2800 H 0.55121 0.52447 0.75549 0.0
H2801 H 0.4253 0.41558 0.7516 0.0
H2802 H 0.40936 0.41821 0.76847 0.0
H2803 H 0.43168 0.452 0.78448 0.0
H2804 H 0.55796 0.56097 0.7879 0.0
H2805 H 0.57282 0.55824 0.77108 0.0
C2806 C 0.52003 0.50162 0.75828 0.0
C2807 C 0.48952 0.47007 0.75225 0.0
C2808 C 0.51109 0.50334 0.76795 0.0
C2809 C 0.44961 0.44008 0.75608 0.0
C2810 C 0.44036 0.44168 0.76573 0.0
C2811 C 0.46236 0.47506 0.7815 0.0
C2812 C 0.4939 0.50627 0.78747 0.0
C2813 C 0.47092 0.47319 0.77175 0.0
C2814 C 0.53349 0.53608 0.78352 0.0
C2815 C 0.54197 0.53471 0.77388 0.0
H2816 H 0.50897 0.04347 0.75488 0.0
H2817 H 0.6019 1.00484 0.749 0.0
H2818 H 0.60237 0.98731 0.76592 0.0
H2819 H 0.57472 0.98168 0.78245 0.0
H2820 H 0.48256 0.02208 0.78786 0.0
H2821 H 0.48336 0.03996 0.77112 0.0
C2822 C 0.5291 0.03086 0.75728 0.0
C2823 C 0.55485 0.02487 0.75066 0.0
C2824 C 0.52943 0.02127 0.76697 0.0
C2825 C 0.58165 1.00964 0.75394 0.0
C2826 C 0.58182 0.99951 0.76361 0.0
C2827 C 0.55496 0.99452 0.77994 0.0
C2828 C 0.52893 1.00093 0.78646 0.0
C2829 C 0.55563 1.005 0.7702 0.0
C2830 C 0.50353 0.01762 0.78308 0.0
C2831 C 0.5037 0.02758 0.77347 0.0
H2832 H 0.53731 0.08003 0.25575 0.0
H2833 H 0.44749 0.95171 0.24647 0.0
H2834 H 0.43241 0.92821 0.26298 0.0
H2835 H 0.44826 0.94247 0.28008 0.0
H2836 H 0.53337 0.07186 0.28948 0.0
H2837 H 0.54611 0.09613 0.27296 0.0
C2838 C 0.51377 0.04707 0.25728 0.0
C2839 C 0.49451 0.01767 0.2497 0.0
C2840 C 0.50454 0.03363 0.26689 0.0
C2841 C 0.46415 0.97505 0.25202 0.0
C2842 C 0.45515 0.9615 0.26152 0.0
C2843 C 0.46896 0.97618 0.2786 0.0
C2844 C 0.49037 1.00493 0.28617 0.0
C2845 C 0.47579 0.99027 0.26902 0.0
C2846 C 0.51731 0.04846 0.2839 0.0
C2847 C 0.52445 0.06256 0.27441 0.0
H2848 H 0.08539 0.54482 0.28072 0.0
H2849 H 0.97338 0.43059 0.29052 0.0
H2850 H 0.9493 0.41104 0.27404 0.0
H2851 H 0.95903 0.42736 0.25683 0.0
H2852 H 0.07022 0.54329 0.24728 0.0
H2853 H 0.09617 0.55991 0.26359 0.0
C2854 C 0.05605 0.51523 0.27928 0.0
C2855 C 0.03133 0.48935 0.28693 0.0
C2856 C 0.04226 0.50419 0.26977 0.0
C2857 C 0.99294 0.45153 0.28484 0.0
C2858 C 0.9792 0.44018 0.27539 0.0
C2859 C 0.98889 0.45637 0.25828 0.0
C2860 C 1.01247 0.48383 0.25069 0.0
C2861 C 1.00336 0.46651 0.26779 0.0
C2862 C 0.05151 0.52088 0.25283 0.0
C2863 C 0.06629 0.53079 0.26222 0.0
H2864 H 0.58374 0.50883 0.25402 0.0
H2865 H 0.49923 0.55482 0.24513 0.0
H2866 H 0.48823 0.56694 0.26168 0.0
H2867 H 0.49794 0.55938 0.27878 0.0
H2868 H 0.58833 0.5208 0.28764 0.0
H2869 H 0.60168 0.5115 0.27105 0.0
C2870 C 0.56359 0.52238 0.25562 0.0
C2871 C 0.54153 0.52967 0.24817 0.0
C2872 C 0.55797 0.53029 0.26523 0.0
C2873 C 0.51554 0.5472 0.25059 0.0
C2874 C 0.50943 0.55457 0.26011 0.0
C2875 C 0.52132 0.54984 0.27716 0.0
C2876 C 0.54111 0.5398 0.28464 0.0
C2877 C 0.52971 0.54536 0.26752 0.0
C2878 C 0.57119 0.52733 0.28217 0.0
C2879 C 0.57922 0.5223 0.27263 0.0
H2880 H 0.02863 0.14339 0.28726 0.0
H2881 H 0.92759 0.16942 0.28008 0.0
H2882 H 0.95561 0.18899 0.26393 0.0
H2883 H 1.00806 0.19713 0.25151 0.0
H2884 H 0.10731 0.1686 0.25875 0.0
H2885 H 0.08015 0.15078 0.27497 0.0
C2886 C 1.01234 0.15293 0.28218 0.0
C2887 C 0.9759 0.1549 0.28505 0.0
C2888 C 0.02821 0.16351 0.27278 0.0
C2889 C 0.95606 0.16821 0.27826 0.0
C2890 C 0.97191 0.17913 0.26894 0.0
C2891 C 0.0239 0.18727 0.25665 0.0
C2892 C 0.05964 0.18398 0.2538 0.0
C2893 C 1.00795 0.17684 0.26608 0.0
C2894 C 0.07939 0.17079 0.26061 0.0
C2895 C 0.06401 0.1608 0.26995 0.0
H2896 H 0.87136 0.78933 0.27714 0.0
H2897 H 0.86458 0.89202 0.29136 0.0
H2898 H 0.84897 0.91453 0.27623 0.0
H2899 H 0.83617 0.90483 0.25883 0.0
H2900 H 0.83713 0.79892 0.24488 0.0
H2901 H 0.85542 0.77767 0.25998 0.0
C2902 C 0.86586 0.81626 0.27701 0.0
C2903 C 0.86955 0.8389 0.28551 0.0
C2904 C 0.85576 0.82855 0.26827 0.0
C2905 C 0.86298 0.87427 0.28501 0.0
C2906 C 0.85366 0.88708 0.27633 0.0
C2907 C 0.84042 0.87712 0.25913 0.0
C2908 C 0.83538 0.85347 0.25076 0.0
C2909 C 0.85001 0.86454 0.2679 0.0
C2910 C 0.84063 0.81745 0.25124 0.0
C2911 C 0.85116 0.80537 0.25987 0.0
H2912 H 0.19877 0.99182 0.28706 0.0
H2913 H 0.17138 0.09248 0.28033 0.0
H2914 H 0.15446 0.06694 0.26394 0.0
H2915 H 0.14763 0.01628 0.25136 0.0
H2916 H 0.17302 0.91424 0.25815 0.0
H2917 H 0.19138 0.94067 0.27444 0.0
C2918 C 0.18936 1.00834 0.28199 0.0
C2919 C 0.18616 0.04397 0.28502 0.0
C2920 C 0.17954 0.9934 0.27249 0.0
C2921 C 0.1735 0.0646 0.27831 0.0
C2922 C 0.16403 0.05015 0.26888 0.0
C2923 C 0.15683 0.99948 0.25639 0.0
C2924 C 0.15902 0.96323 0.25337 0.0
C2925 C 0.16678 0.01448 0.26588 0.0
C2926 C 0.17174 0.94263 0.26009 0.0
C2927 C 0.18195 0.95754 0.26949 0.0
H2928 H 0.03604 0.85745 0.78634 0.0
H2929 H 0.90681 0.79727 0.77587 0.0
H2930 H 0.93284 0.81267 0.75943 0.0
H2931 H 0.99254 0.84206 0.74795 0.0
H2932 H 0.12172 0.89919 0.75841 0.0
H2933 H 0.09577 0.88601 0.77483 0.0
C2934 C 1.0137 0.84778 0.78044 0.0
C2935 C 0.96956 0.82607 0.7823 0.0
C2936 C 0.02893 0.856 0.77098 0.0
C2937 C 0.94091 0.81358 0.7746 0.0
C2938 C 0.95579 0.82251 0.76521 0.0
C2939 C 1.01496 0.85174 0.75383 0.0
C2940 C 0.05903 0.87143 0.75193 0.0
C2941 C 0.99974 0.84349 0.76329 0.0
C2942 C 0.08763 0.88348 0.75965 0.0
C2943 C 0.07282 0.87613 0.76906 0.0
H2944 H 0.16545 0.23636 0.75868 0.0
H2945 H 0.16335 0.12832 0.74485 0.0
H2946 H 0.17718 0.10495 0.76008 0.0
H2947 H 0.19163 0.11569 0.77744 0.0
H2948 H 0.19873 0.22636 0.79097 0.0
H2949 H 0.18204 0.24833 0.7758 0.0
C2950 C 0.1686 0.20803 0.7589 0.0
C2951 C 0.16308 0.18433 0.75046 0.0
C2952 C 0.17764 0.19512 0.76771 0.0
C2953 C 0.16651 0.1471 0.75113 0.0
C2954 C 0.17481 0.13375 0.75988 0.0
C2955 C 0.18937 0.14454 0.77706 0.0
C2956 C 0.19648 0.16933 0.78537 0.0
C2957 C 0.1805 0.15749 0.76823 0.0
C2958 C 0.1938 0.20685 0.78471 0.0
C2959 C 0.18412 0.21938 0.77602 0.0
H2960 H 0.88842 0.09063 0.7762 0.0
H2961 H 0.83477 0.9701 0.79111 0.0
H2962 H 0.81624 0.93187 0.77593 0.0
H2963 H 0.81407 0.93215 0.75829 0.0
H2964 H 0.86903 0.05265 0.74338 0.0
H2965 H 0.88782 0.09101 0.75858 0.0
C2966 C 0.87236 0.05597 0.77615 0.0
C2967 C 0.86291 0.03349 0.78489 0.0
C2968 C 0.86187 0.03399 0.76733 0.0
C2969 C 0.84283 0.98851 0.78458 0.0
C2970 C 0.83197 0.9665 0.77586 0.0
C2971 C 0.82996 0.96681 0.75837 0.0
C2972 C 0.83986 0.98935 0.74964 0.0
C2973 C 0.84113 0.98882 0.76718 0.0
C2974 C 0.86118 0.03435 0.74993 0.0
C2975 C 0.87182 0.05637 0.75865 0.0
H2976 H 0.67394 0.54721 0.61788 0.0
H2977 H 0.62448 0.41112 0.61553 0.0
H2978 H 0.65111 0.42024 0.59926 0.0
H2979 H 0.6874 0.46632 0.58552 0.0
H2980 H 0.7386 0.60273 0.58789 0.0
H2981 H 0.71104 0.59362 0.60409 0.0
C2982 C 0.66872 0.51948 0.6138 0.0
C2983 C 0.64736 0.47853 0.61804 0.0
C2984 C 0.68401 0.52487 0.60434 0.0
C2985 C 0.64143 0.44315 0.61259 0.0
C2986 C 0.65638 0.44826 0.60322 0.0
C2987 C 0.693 0.49425 0.58957 0.0
C2988 C 0.71512 0.5352 0.58534 0.0
C2989 C 0.67774 0.48895 0.59901 0.0
C2990 C 0.72109 0.57066 0.59077 0.0
C2991 C 0.70565 0.56556 0.60012 0.0
H2992 H 0.58804 0.17926 0.61128 0.0
H2993 H 0.467 0.14601 0.62415 0.0
H2994 H 0.44182 0.15869 0.60899 0.0
H2995 H 0.45423 0.18042 0.59202 0.0
H2996 H 0.57496 0.21184 0.57916 0.0
H2997 H 0.60009 0.20003 0.59433 0.0
C2998 C 0.55624 0.17511 0.61083 0.0
C2999 C 0.52966 0.16153 0.61898 0.0
C3000 C 0.54178 0.18252 0.60203 0.0
C3001 C 0.48825 0.15579 0.61807 0.0
C3002 C 0.47381 0.16332 0.60937 0.0
C3003 C 0.48588 0.18422 0.59245 0.0
C3004 C 0.51247 0.19744 0.58428 0.0
C3005 C 0.50023 0.17665 0.60127 0.0
C3006 C 0.55369 0.20266 0.58522 0.0
C3007 C 0.56815 0.19553 0.59394 0.0
H3008 H 0.80103 0.34135 0.61909 0.0
H3009 H 0.93692 0.41711 0.61442 0.0
H3010 H 0.92799 0.38803 0.59834 0.0
H3011 H 0.88122 0.34262 0.58527 0.0
H3012 H 0.74527 0.26855 0.59001 0.0
H3013 H 0.75467 0.29648 0.60616 0.0
C3014 C 0.82879 0.35195 0.61456 0.0
C3015 C 0.86965 0.38157 0.61808 0.0
C3016 C 0.8234 0.33568 0.60521 0.0
C3017 C 0.9051 0.39393 0.61206 0.0
C3018 C 0.9 0.37755 0.60278 0.0
C3019 C 0.85367 0.33235 0.58985 0.0
C3020 C 0.81251 0.30366 0.58631 0.0
C3021 C 0.85926 0.34852 0.59924 0.0
C3022 C 0.77726 0.29114 0.5924 0.0
C3023 C 0.7826 0.30688 0.6017 0.0
H3024 H 0.74625 0.1899 0.09118 0.0
H3025 H 0.6468 0.20326 0.07726 0.0
H3026 H 0.60889 0.18992 0.09233 0.0
H3027 H 0.6027 0.17311 0.10949 0.0
H3028 H 0.70032 0.15672 0.1233 0.0
H3029 H 0.73915 0.17125 0.10824 0.0
C3030 C 0.71599 0.18933 0.09135 0.0
C3031 C 0.69989 0.19792 0.08295 0.0
C3032 C 0.69363 0.18073 0.10008 0.0
C3033 C 0.66083 0.1977 0.08353 0.0
C3034 C 0.63875 0.18968 0.09218 0.0
C3035 C 0.6326 0.17294 0.10924 0.0
C3036 C 0.64839 0.16376 0.11759 0.0
C3037 C 0.6548 0.18117 0.10051 0.0
C3038 C 0.68698 0.16314 0.11702 0.0
C3039 C 0.7094 0.17171 0.10839 0.0
H3040 H 0.84854 0.44276 0.11183 0.0
H3041 H 0.88489 0.56764 0.12315 0.0
H3042 H 0.87239 0.58991 0.10761 0.0
H3043 H 0.85004 0.57402 0.09083 0.0
H3044 H 0.81533 0.44968 0.07937 0.0
H3045 H 0.82697 0.42712 0.09493 0.0
C3046 C 0.85343 0.47477 0.11095 0.0
C3047 C 0.86784 0.50339 0.11877 0.0
C3048 C 0.84612 0.48755 0.10193 0.0
C3049 C 0.87447 0.54495 0.11733 0.0
C3050 C 0.86705 0.55771 0.10842 0.0
C3051 C 0.84555 0.54214 0.09164 0.0
C3052 C 0.83163 0.5138 0.08378 0.0
C3053 C 0.85295 0.52936 0.10065 0.0
C3054 C 0.82528 0.47228 0.0852 0.0
C3055 C 0.83227 0.45932 0.09414 0.0
H3056 H 0.58676 0.41742 0.11006 0.0
H3057 H 0.46447 0.32633 0.12191 0.0
H3058 H 0.44254 0.28978 0.10654 0.0
H3059 H 0.45833 0.28245 0.08973 0.0
H3060 H 0.58027 0.37483 0.07788 0.0
H3061 H 0.60209 0.4108 0.09323 0.0
C3062 C 0.5554 0.38934 0.10934 0.0
C3063 C 0.52746 0.37493 0.11725 0.0
C3064 C 0.54287 0.36825 0.10043 0.0
C3065 C 0.48667 0.33878 0.116 0.0
C3066 C 0.47411 0.31758 0.10719 0.0
C3067 C 0.4895 0.31076 0.09043 0.0
C3068 C 0.51749 0.32536 0.08251 0.0
C3069 C 0.5019 0.332 0.09933 0.0
C3070 C 0.55805 0.36192 0.08376 0.0
C3071 C 0.57058 0.38291 0.09258 0.0
H3072 H 0.34128 0.80541 0.91871 0.0
H3073 H 0.4332 0.93765 0.92451 0.0
H3074 H 0.40906 0.92876 0.941 0.0
H3075 H 0.36166 0.88358 0.95394 0.0
H3076 H 0.27075 0.75108 0.94815 0.0
H3077 H 0.29549 0.75981 0.93172 0.0
C3078 C 0.35638 0.83229 0.92357 0.0
C3079 C 0.3888 0.87236 0.9202 0.0
C3080 C 0.34267 0.82689 0.93316 0.0
C3081 C 0.40749 0.90668 0.92672 0.0
C3082 C 0.39393 0.90155 0.93622 0.0
C3083 C 0.34709 0.85663 0.94908 0.0
C3084 C 0.31434 0.81666 0.9524 0.0
C3085 C 0.36136 0.86188 0.93953 0.0
C3086 C 0.2964 0.78209 0.94594 0.0
C3087 C 0.31034 0.78711 0.93647 0.0
H3088 H 0.16501 0.44836 0.94852 0.0
H3089 H 0.23732 0.58123 0.95683 0.0
H3090 H 0.22576 0.60276 0.94116 0.0
H3091 H 0.19395 0.58435 0.92512 0.0
H3092 H 0.12044 0.4516 0.91687 0.0
H3093 H 0.13254 0.42991 0.93252 0.0
C3094 C 0.17781 0.48204 0.947 0.0
C3095 C 0.20227 0.51293 0.95397 0.0
C3096 C 0.17055 0.49442 0.93794 0.0
C3097 C 0.21904 0.55648 0.95166 0.0
C3098 C 0.21219 0.56895 0.94267 0.0
C3099 C 0.18089 0.55065 0.92668 0.0
C3100 C 0.15618 0.51977 0.91973 0.0
C3101 C 0.18804 0.53825 0.93574 0.0
C3102 C 0.13907 0.47623 0.92205 0.0
C3103 C 0.14619 0.46372 0.93101 0.0
H3104 H 0.50994 0.60576 0.92601 0.0
H3105 H 0.47367 0.69461 0.91472 0.0
H3106 H 0.48628 0.72918 0.93023 0.0
H3107 H 0.50937 0.73595 0.94698 0.0
H3108 H 0.54729 0.64843 0.95823 0.0
H3109 H 0.53353 0.61286 0.94276 0.0
C3110 C 0.50527 0.63302 0.92686 0.0
C3111 C 0.4906 0.64711 0.91906 0.0
C3112 C 0.51323 0.65346 0.93584 0.0
C3113 C 0.48414 0.68218 0.92051 0.0
C3114 C 0.49169 0.70235 0.92941 0.0
C3115 C 0.51427 0.70883 0.94611 0.0
C3116 C 0.52951 0.69517 0.95387 0.0
C3117 C 0.50626 0.68835 0.93714 0.0
C3118 C 0.53619 0.66026 0.95244 0.0
C3119 C 0.52807 0.63965 0.94357 0.0
H3120 H 0.28497 0.4516 0.44401 0.0
H3121 H 0.36871 0.57674 0.45586 0.0
H3122 H 0.40492 0.60071 0.44061 0.0
H3123 H 0.41387 0.58679 0.42387 0.0
H3124 H 0.33179 0.46163 0.41194 0.0
H3125 H 0.29527 0.43708 0.42725 0.0
C3126 C 0.31147 0.48397 0.44333 0.0
C3127 C 0.32342 0.51223 0.4512 0.0
C3128 C 0.33291 0.4977 0.43448 0.0
C3129 C 0.35774 0.55425 0.44999 0.0
C3130 C 0.37889 0.56805 0.44124 0.0
C3131 C 0.38776 0.5542 0.42455 0.0
C3132 C 0.37578 0.52632 0.41664 0.0
C3133 C 0.36669 0.54019 0.43341 0.0
C3134 C 0.34227 0.48391 0.41785 0.0
C3135 C 0.32109 0.46983 0.42663 0.0
H3136 H 0.44569 0.85095 0.42612 0.0
H3137 H 0.55707 0.86297 0.41205 0.0
H3138 H 0.581 0.84678 0.42704 0.0
H3139 H 0.57013 0.8286 0.44418 0.0
H3140 H 0.4612 0.8222 0.45846 0.0
H3141 H 0.43654 0.83596 0.44344 0.0
C3142 C 0.47517 0.84994 0.42633 0.0
C3143 C 0.49946 0.85818 0.41791 0.0
C3144 C 0.48923 0.84137 0.43506 0.0
C3145 C 0.53783 0.85712 0.41839 0.0
C3146 C 0.55149 0.84771 0.42698 0.0
C3147 C 0.54129 0.83076 0.44411 0.0
C3148 C 0.51764 0.82373 0.45263 0.0
C3149 C 0.52755 0.8399 0.43539 0.0
C3150 C 0.47991 0.82621 0.45213 0.0
C3151 C 0.46579 0.83453 0.44349 0.0
H3152 H 0.25002 0.73971 0.44494 0.0
H3153 H 0.12385 0.65873 0.45637 0.0
H3154 H 0.10045 0.6218 0.44109 0.0
H3155 H 0.11575 0.61111 0.42448 0.0
H3156 H 0.24171 0.69319 0.413 0.0
H3157 H 0.26507 0.72965 0.42828 0.0
C3158 C 0.21747 0.71373 0.44416 0.0
C3159 C 0.18891 0.70238 0.45193 0.0
C3160 C 0.20404 0.69232 0.43529 0.0
C3161 C 0.14664 0.6689 0.45058 0.0
C3162 C 0.13319 0.64745 0.44182 0.0
C3163 C 0.1482 0.63731 0.42523 0.0
C3164 C 0.17674 0.6488 0.41744 0.0
C3165 C 0.16155 0.65886 0.43409 0.0
C3166 C 0.2189 0.68263 0.41879 0.0
C3167 C 0.23235 0.70392 0.42756 0.0
loop_
_geom_bond_atom_site_label_1
_geom_bond_atom_site_label_2
_geom_bond_distance
_geom_bond_site_symmetry_2
_ccdc_geom_bond_type
Gd0 C3 2.818 . S
Gd0 O20 2.377 . S
Gd0 O22 2.448 . S
Gd0 O23 2.506 . S
Gd0 O24 2.435 . S
Gd0 O25 2.717 . S
Gd0 O27 2.395 . S
Gd0 O31 2.327 . S
Gd1 C12 2.818 . S
Gd1 O21 2.395 . S
Gd1 O25 2.327 . S
Gd1 O26 2.377 . S
Gd1 O28 2.448 . S
Gd1 O29 2.506 . S
Gd1 O30 2.435 . S
Gd1 O31 2.717 . S
C2 O20 1.240 . S
C2 O21 1.240 . S
C3 Gd0 2.818 . S
C3 C4 1.510 . S
C3 O22 1.249 . S
C3 O23 1.252 . S
C4 C3 1.510 . S
C4 C5 1.404 . S
C4 C6 1.352 . S
C5 C4 1.404 . S
C5 C9 1.389 . S
C5 H32 0.930 . S
C6 C4 1.352 . S
C6 C8 1.374 . S
C6 H33 0.931 . S
C7 C8 1.359 . S
C7 C9 1.364 . S
C8 C6 1.374 . S
C8 C7 1.359 . S
C8 H34 0.931 . S
C9 C5 1.389 . S
C9 C7 1.364 . S
C9 H35 0.931 . S
C10 O24 1.256 . S
C10 O25 1.257 . S
C11 O26 1.240 . S
C11 O27 1.240 . S
C12 Gd1 2.818 . S
C12 C13 1.510 . S
C12 O28 1.249 . S
C12 O29 1.252 . S
C13 C12 1.510 . S
C13 C14 1.404 . S
C13 C15 1.352 . S
C14 C13 1.404 . S
C14 C18 1.389 . S
C14 H36 0.930 . S
C15 C13 1.352 . S
C15 C17 1.374 . S
C15 H37 0.931 . S
C16 C17 1.359 . S
C16 C18 1.364 . S
C17 C15 1.374 . S
C17 C16 1.359 . S
C17 H38 0.931 . S
C18 C14 1.389 . S
C18 C16 1.364 . S
C18 H39 0.931 . S
C19 O30 1.256 . S
C19 O31 1.257 . S
O20 Gd0 2.377 . S
O20 C2 1.240 . S
O21 Gd1 2.395 . S
O21 C2 1.240 . S
O22 Gd0 2.448 . S
O22 C3 1.249 . S
O23 Gd0 2.506 . S
O23 C3 1.252 . S
O24 Gd0 2.435 . S
O24 C10 1.256 . S
O25 Gd0 2.717 . S
O25 Gd1 2.327 . S
O25 C10 1.257 . S
O26 Gd1 2.377 . S
O26 C11 1.240 . S
O27 Gd0 2.395 . S
O27 C11 1.240 . S
O28 Gd1 2.448 . S
O28 C12 1.249 . S
O29 Gd1 2.506 . S
O29 C12 1.252 . S
O30 Gd1 2.435 . S
O30 C19 1.256 . S
O31 Gd0 2.327 . S
O31 Gd1 2.717 . S
O31 C19 1.257 . S
H32 C5 0.930 . S
H33 C6 0.931 . S
H34 C8 0.931 . S
H35 C9 0.931 . S
H36 C14 0.930 . S
H37 C15 0.931 . S
H38 C17 0.931 . S
H39 C18 0.931 . S
Gd40 C43 2.818 . S
Gd40 O60 2.377 . S
Gd40 O62 2.448 . S
Gd40 O63 2.506 . S
Gd40 O64 2.435 . S
Gd40 O65 2.717 . S
Gd40 O67 2.395 . S
Gd40 O71 2.327 . S
Gd41 C52 2.818 . S
Gd41 O61 2.395 . S
Gd41 O65 2.327 . S
Gd41 O66 2.377 . S
Gd41 O68 2.448 . S
Gd41 O69 2.506 . S
Gd41 O70 2.435 . S
Gd41 O71 2.717 . S
C42 O60 1.240 . S
C42 O61 1.240 . S
C43 Gd40 2.818 . S
C43 C44 1.510 . S
C43 O62 1.249 . S
C43 O63 1.252 . S
C44 C43 1.510 . S
C44 C45 1.404 . S
C44 C46 1.352 . S
C45 C44 1.404 . S
C45 C49 1.389 . S
C45 H72 0.930 . S
C46 C44 1.352 . S
C46 C48 1.374 . S
C46 H73 0.931 . S
C47 C48 1.359 . S
C47 C49 1.364 . S
C48 C46 1.374 . S
C48 C47 1.359 . S
C48 H74 0.931 . S
C49 C45 1.389 . S
C49 C47 1.364 . S
C49 H75 0.931 . S
C50 O64 1.256 . S
C50 O65 1.257 . S
C51 O66 1.240 . S
C51 O67 1.240 . S
C52 Gd41 2.818 . S
C52 C53 1.510 . S
C52 O68 1.249 . S
C52 O69 1.252 . S
C53 C52 1.510 . S
C53 C54 1.404 . S
C53 C55 1.352 . S
C54 C53 1.404 . S
C54 C58 1.389 . S
C54 H76 0.930 . S
C55 C53 1.352 . S
C55 C57 1.374 . S
C55 H77 0.931 . S
C56 C57 1.359 . S
C56 C58 1.364 . S
C57 C55 1.374 . S
C57 C56 1.359 . S
C57 H78 0.931 . S
C58 C54 1.389 . S
C58 C56 1.364 . S
C58 H79 0.931 . S
C59 O70 1.256 . S
C59 O71 1.257 . S
O60 Gd40 2.377 . S
O60 C42 1.240 . S
O61 Gd41 2.395 . S
O61 C42 1.240 . S
O62 Gd40 2.448 . S
O62 C43 1.249 . S
O63 Gd40 2.506 . S
O63 C43 1.252 . S
O64 Gd40 2.435 . S
O64 C50 1.256 . S
O65 Gd40 2.717 . S
O65 Gd41 2.327 . S
O65 C50 1.257 . S
O66 Gd41 2.377 . S
O66 C51 1.240 . S
O67 Gd40 2.395 . S
O67 C51 1.240 . S
O68 Gd41 2.448 . S
O68 C52 1.249 . S
O69 Gd41 2.506 . S
O69 C52 1.252 . S
O70 Gd41 2.435 . S
O70 C59 1.256 . S
O71 Gd40 2.327 . S
O71 Gd41 2.717 . S
O71 C59 1.257 . S
H72 C45 0.930 . S
H73 C46 0.931 . S
H74 C48 0.931 . S
H75 C49 0.931 . S
H76 C54 0.930 . S
H77 C55 0.931 . S
H78 C57 0.931 . S
H79 C58 0.931 . S
Gd80 C83 2.818 . S
Gd80 O100 2.377 . S
Gd80 O102 2.448 . S
Gd80 O103 2.506 . S
Gd80 O104 2.435 . S
Gd80 O105 2.717 . S
Gd80 O107 2.395 . S
Gd80 O111 2.327 . S
Gd81 C92 2.818 . S
Gd81 O101 2.395 . S
Gd81 O105 2.327 . S
Gd81 O106 2.377 . S
Gd81 O108 2.448 . S
Gd81 O109 2.506 . S
Gd81 O110 2.435 . S
Gd81 O111 2.717 . S
C82 O100 1.240 . S
C82 O101 1.240 . S
C83 Gd80 2.818 . S
C83 C84 1.510 . S
C83 O102 1.249 . S
C83 O103 1.252 . S
C84 C83 1.510 . S
C84 C85 1.404 . S
C84 C86 1.352 . S
C85 C84 1.404 . S
C85 C89 1.389 . S
C85 H112 0.930 . S
C86 C84 1.352 . S
C86 C88 1.374 . S
C86 H113 0.931 . S
C87 C88 1.359 . S
C87 C89 1.364 . S
C88 C86 1.374 . S
C88 C87 1.359 . S
C88 H114 0.931 . S
C89 C85 1.389 . S
C89 C87 1.364 . S
C89 H115 0.931 . S
C90 O104 1.256 . S
C90 O105 1.257 . S
C91 O106 1.240 . S
C91 O107 1.240 . S
C92 Gd81 2.818 . S
C92 C93 1.510 . S
C92 O108 1.249 . S
C92 O109 1.252 . S
C93 C92 1.510 . S
C93 C94 1.404 . S
C93 C95 1.352 . S
C94 C93 1.404 . S
C94 C98 1.389 . S
C94 H116 0.930 . S
C95 C93 1.352 . S
C95 C97 1.374 . S
C95 H117 0.931 . S
C96 C97 1.359 . S
C96 C98 1.364 . S
C97 C95 1.374 . S
C97 C96 1.359 . S
C97 H118 0.931 . S
C98 C94 1.389 . S
C98 C96 1.364 . S
C98 H119 0.931 . S
C99 O110 1.256 . S
C99 O111 1.257 . S
O100 Gd80 2.377 . S
O100 C82 1.240 . S
O101 Gd81 2.395 . S
O101 C82 1.240 . S
O102 Gd80 2.448 . S
O102 C83 1.249 . S
O103 Gd80 2.506 . S
O103 C83 1.252 . S
O104 Gd80 2.435 . S
O104 C90 1.256 . S
O105 Gd80 2.717 . S
O105 Gd81 2.327 . S
O105 C90 1.257 . S
O106 Gd81 2.377 . S
O106 C91 1.240 . S
O107 Gd80 2.395 . S
O107 C91 1.240 . S
O108 Gd81 2.448 . S
O108 C92 1.249 . S
O109 Gd81 2.506 . S
O109 C92 1.252 . S
O110 Gd81 2.435 . S
O110 C99 1.256 . S
O111 Gd80 2.327 . S
O111 Gd81 2.717 . S
O111 C99 1.257 . S
H112 C85 0.930 . S
H113 C86 0.931 . S
H114 C88 0.931 . S
H115 C89 0.931 . S
H116 C94 0.930 . S
H117 C95 0.931 . S
H118 C97 0.931 . S
H119 C98 0.931 . S
Gd120 C123 2.818 . S
Gd120 O140 2.377 . S
Gd120 O142 2.448 . S
Gd120 O143 2.506 . S
Gd120 O144 2.435 . S
Gd120 O145 2.717 . S
Gd120 O147 2.395 . S
Gd120 O151 2.327 . S
Gd121 C132 2.818 . S
Gd121 O141 2.395 . S
Gd121 O145 2.327 . S
Gd121 O146 2.377 . S
Gd121 O148 2.448 . S
Gd121 O149 2.506 . S
Gd121 O150 2.435 . S
Gd121 O151 2.717 . S
C122 O140 1.240 . S
C122 O141 1.240 . S
C123 Gd120 2.818 . S
C123 C124 1.510 . S
C123 O142 1.249 . S
C123 O143 1.252 . S
C124 C123 1.510 . S
C124 C125 1.404 . S
C124 C126 1.352 . S
C125 C124 1.404 . S
C125 C129 1.389 . S
C125 H152 0.930 . S
C126 C124 1.352 . S
C126 C128 1.374 . S
C126 H153 0.931 . S
C127 C128 1.359 . S
C127 C129 1.364 . S
C128 C126 1.374 . S
C128 C127 1.359 . S
C128 H154 0.931 . S
C129 C125 1.389 . S
C129 C127 1.364 . S
C129 H155 0.931 . S
C130 O144 1.256 . S
C130 O145 1.257 . S
C131 O146 1.240 . S
C131 O147 1.240 . S
C132 Gd121 2.818 . S
C132 C133 1.510 . S
C132 O148 1.249 . S
C132 O149 1.252 . S
C133 C132 1.510 . S
C133 C134 1.404 . S
C133 C135 1.352 . S
C134 C133 1.404 . S
C134 C138 1.389 . S
C134 H156 0.930 . S
C135 C133 1.352 . S
C135 C137 1.374 . S
C135 H157 0.931 . S
C136 C137 1.359 . S
C136 C138 1.364 . S
C137 C135 1.374 . S
C137 C136 1.359 . S
C137 H158 0.931 . S
C138 C134 1.389 . S
C138 C136 1.364 . S
C138 H159 0.931 . S
C139 O150 1.256 . S
C139 O151 1.257 . S
O140 Gd120 2.377 . S
O140 C122 1.240 . S
O141 Gd121 2.395 . S
O141 C122 1.240 . S
O142 Gd120 2.448 . S
O142 C123 1.249 . S
O143 Gd120 2.506 . S
O143 C123 1.252 . S
O144 Gd120 2.435 . S
O144 C130 1.256 . S
O145 Gd120 2.717 . S
O145 Gd121 2.327 . S
O145 C130 1.257 . S
O146 Gd121 2.377 . S
O146 C131 1.240 . S
O147 Gd120 2.395 . S
O147 C131 1.240 . S
O148 Gd121 2.448 . S
O148 C132 1.249 . S
O149 Gd121 2.506 . S
O149 C132 1.252 . S
O150 Gd121 2.435 . S
O150 C139 1.256 . S
O151 Gd120 2.327 . S
O151 Gd121 2.717 . S
O151 C139 1.257 . S
H152 C125 0.930 . S
H153 C126 0.931 . S
H154 C128 0.931 . S
H155 C129 0.931 . S
H156 C134 0.930 . S
H157 C135 0.931 . S
H158 C137 0.931 . S
H159 C138 0.931 . S
Gd160 C163 2.818 . S
Gd160 O180 2.377 . S
Gd160 O182 2.448 . S
Gd160 O183 2.506 . S
Gd160 O184 2.435 . S
Gd160 O185 2.717 . S
Gd160 O187 2.395 . S
Gd160 O191 2.327 . S
Gd161 C172 2.818 . S
Gd161 O181 2.395 . S
Gd161 O185 2.327 . S
Gd161 O186 2.377 . S
Gd161 O188 2.448 . S
Gd161 O189 2.506 . S
Gd161 O190 2.435 . S
Gd161 O191 2.717 . S
C162 O180 1.240 . S
C162 O181 1.240 . S
C163 Gd160 2.818 . S
C163 C164 1.510 . S
C163 O182 1.249 . S
C163 O183 1.252 . S
C164 C163 1.510 . S
C164 C165 1.404 . S
C164 C166 1.352 . S
C165 C164 1.404 . S
C165 C169 1.389 . S
C165 H192 0.930 . S
C166 C164 1.352 . S
C166 C168 1.374 . S
C166 H193 0.931 . S
C167 C168 1.359 . S
C167 C169 1.364 . S
C168 C166 1.374 . S
C168 C167 1.359 . S
C168 H194 0.931 . S
C169 C165 1.389 . S
C169 C167 1.364 . S
C169 H195 0.931 . S
C170 O184 1.256 . S
C170 O185 1.257 . S
C171 O186 1.240 . S
C171 O187 1.240 . S
C172 Gd161 2.818 . S
C172 C173 1.510 . S
C172 O188 1.249 . S
C172 O189 1.252 . S
C173 C172 1.510 . S
C173 C174 1.404 . S
C173 C175 1.352 . S
C174 C173 1.404 . S
C174 C178 1.389 . S
C174 H196 0.930 . S
C175 C173 1.352 . S
C175 C177 1.374 . S
C175 H197 0.931 . S
C176 C177 1.359 . S
C176 C178 1.364 . S
C177 C175 1.374 . S
C177 C176 1.359 . S
C177 H198 0.931 . S
C178 C174 1.389 . S
C178 C176 1.364 . S
C178 H199 0.931 . S
C179 O190 1.256 . S
C179 O191 1.257 . S
O180 Gd160 2.377 . S
O180 C162 1.240 . S
O181 Gd161 2.395 . S
O181 C162 1.240 . S
O182 Gd160 2.448 . S
O182 C163 1.249 . S
O183 Gd160 2.506 . S
O183 C163 1.252 . S
O184 Gd160 2.435 . S
O184 C170 1.256 . S
O185 Gd160 2.717 . S
O185 Gd161 2.327 . S
O185 C170 1.257 . S
O186 Gd161 2.377 . S
O186 C171 1.240 . S
O187 Gd160 2.395 . S
O187 C171 1.240 . S
O188 Gd161 2.448 . S
O188 C172 1.249 . S
O189 Gd161 2.506 . S
O189 C172 1.252 . S
O190 Gd161 2.435 . S
O190 C179 1.256 . S
O191 Gd160 2.327 . S
O191 Gd161 2.717 . S
O191 C179 1.257 . S
H192 C165 0.930 . S
H193 C166 0.931 . S
H194 C168 0.931 . S
H195 C169 0.931 . S
H196 C174 0.930 . S
H197 C175 0.931 . S
H198 C177 0.931 . S
H199 C178 0.931 . S
Gd200 C203 2.818 . S
Gd200 O220 2.377 . S
Gd200 O222 2.448 . S
Gd200 O223 2.506 . S
Gd200 O224 2.435 . S
Gd200 O225 2.717 . S
Gd200 O227 2.395 . S
Gd200 O231 2.327 . S
Gd201 C212 2.818 . S
Gd201 O221 2.395 . S
Gd201 O225 2.327 . S
Gd201 O226 2.377 . S
Gd201 O228 2.448 . S
Gd201 O229 2.506 . S
Gd201 O230 2.435 . S
Gd201 O231 2.717 . S
C202 O220 1.240 . S
C202 O221 1.240 . S
C203 Gd200 2.818 . S
C203 C204 1.510 . S
C203 O222 1.249 . S
C203 O223 1.252 . S
C204 C203 1.510 . S
C204 C205 1.404 . S
C204 C206 1.352 . S
C205 C204 1.404 . S
C205 C209 1.389 . S
C205 H232 0.930 . S
C206 C204 1.352 . S
C206 C208 1.374 . S
C206 H233 0.931 . S
C207 C208 1.359 . S
C207 C209 1.364 . S
C208 C206 1.374 . S
C208 C207 1.359 . S
C208 H234 0.931 . S
C209 C205 1.389 . S
C209 C207 1.364 . S
C209 H235 0.931 . S
C210 O224 1.256 . S
C210 O225 1.257 . S
C211 O226 1.240 . S
C211 O227 1.240 . S
C212 Gd201 2.818 . S
C212 C213 1.510 . S
C212 O228 1.249 . S
C212 O229 1.252 . S
C213 C212 1.510 . S
C213 C214 1.404 . S
C213 C215 1.352 . S
C214 C213 1.404 . S
C214 C218 1.389 . S
C214 H236 0.930 . S
C215 C213 1.352 . S
C215 C217 1.374 . S
C215 H237 0.931 . S
C216 C217 1.359 . S
C216 C218 1.364 . S
C217 C215 1.374 . S
C217 C216 1.359 . S
C217 H238 0.931 . S
C218 C214 1.389 . S
C218 C216 1.364 . S
C218 H239 0.931 . S
C219 O230 1.256 . S
C219 O231 1.257 . S
O220 Gd200 2.377 . S
O220 C202 1.240 . S
O221 Gd201 2.395 . S
O221 C202 1.240 . S
O222 Gd200 2.448 . S
O222 C203 1.249 . S
O223 Gd200 2.506 . S
O223 C203 1.252 . S
O224 Gd200 2.435 . S
O224 C210 1.256 . S
O225 Gd200 2.717 . S
O225 Gd201 2.327 . S
O225 C210 1.257 . S
O226 Gd201 2.377 . S
O226 C211 1.240 . S
O227 Gd200 2.395 . S
O227 C211 1.240 . S
O228 Gd201 2.448 . S
O228 C212 1.249 . S
O229 Gd201 2.506 . S
O229 C212 1.252 . S
O230 Gd201 2.435 . S
O230 C219 1.256 . S
O231 Gd200 2.327 . S
O231 Gd201 2.717 . S
O231 C219 1.257 . S
H232 C205 0.930 . S
H233 C206 0.931 . S
H234 C208 0.931 . S
H235 C209 0.931 . S
H236 C214 0.930 . S
H237 C215 0.931 . S
H238 C217 0.931 . S
H239 C218 0.931 . S
Gd240 C243 2.818 . S
Gd240 O260 2.377 . S
Gd240 O262 2.448 . S
Gd240 O263 2.506 . S
Gd240 O264 2.435 . S
Gd240 O265 2.717 . S
Gd240 O267 2.395 . S
Gd240 O271 2.327 . S
Gd241 C252 2.818 . S
Gd241 O261 2.395 . S
Gd241 O265 2.327 . S
Gd241 O266 2.377 . S
Gd241 O268 2.448 . S
Gd241 O269 2.506 . S
Gd241 O270 2.435 . S
Gd241 O271 2.717 . S
C242 O260 1.240 . S
C242 O261 1.240 . S
C243 Gd240 2.818 . S
C243 C244 1.510 . S
C243 O262 1.249 . S
C243 O263 1.252 . S
C244 C243 1.510 . S
C244 C245 1.404 . S
C244 C246 1.352 . S
C245 C244 1.404 . S
C245 C249 1.389 . S
C245 H272 0.930 . S
C246 C244 1.352 . S
C246 C248 1.374 . S
C246 H273 0.931 . S
C247 C248 1.359 . S
C247 C249 1.364 . S
C248 C246 1.374 . S
C248 C247 1.359 . S
C248 H274 0.931 . S
C249 C245 1.389 . S
C249 C247 1.364 . S
C249 H275 0.931 . S
C250 O264 1.256 . S
C250 O265 1.257 . S
C251 O266 1.240 . S
C251 O267 1.240 . S
C252 Gd241 2.818 . S
C252 C253 1.510 . S
C252 O268 1.249 . S
C252 O269 1.252 . S
C253 C252 1.510 . S
C253 C254 1.404 . S
C253 C255 1.352 . S
C254 C253 1.404 . S
C254 C258 1.389 . S
C254 H276 0.930 . S
C255 C253 1.352 . S
C255 C257 1.374 . S
C255 H277 0.931 . S
C256 C257 1.359 . S
C256 C258 1.364 . S
C257 C255 1.374 . S
C257 C256 1.359 . S
C257 H278 0.931 . S
C258 C254 1.389 . S
C258 C256 1.364 . S
C258 H279 0.931 . S
C259 O270 1.256 . S
C259 O271 1.257 . S
O260 Gd240 2.377 . S
O260 C242 1.240 . S
O261 Gd241 2.395 . S
O261 C242 1.240 . S
O262 Gd240 2.448 . S
O262 C243 1.249 . S
O263 Gd240 2.506 . S
O263 C243 1.252 . S
O264 Gd240 2.435 . S
O264 C250 1.256 . S
O265 Gd240 2.717 . S
O265 Gd241 2.327 . S
O265 C250 1.257 . S
O266 Gd241 2.377 . S
O266 C251 1.240 . S
O267 Gd240 2.395 . S
O267 C251 1.240 . S
O268 Gd241 2.448 . S
O268 C252 1.249 . S
O269 Gd241 2.506 . S
O269 C252 1.252 . S
O270 Gd241 2.435 . S
O270 C259 1.256 . S
O271 Gd240 2.327 . S
O271 Gd241 2.717 . S
O271 C259 1.257 . S
H272 C245 0.930 . S
H273 C246 0.931 . S
H274 C248 0.931 . S
H275 C249 0.931 . S
H276 C254 0.930 . S
H277 C255 0.931 . S
H278 C257 0.931 . S
H279 C258 0.931 . S
Gd280 C283 2.818 . S
Gd280 O300 2.377 . S
Gd280 O302 2.448 . S
Gd280 O303 2.506 . S
Gd280 O304 2.435 . S
Gd280 O305 2.717 . S
Gd280 O307 2.395 . S
Gd280 O311 2.327 . S
Gd281 C292 2.818 . S
Gd281 O301 2.395 . S
Gd281 O305 2.327 . S
Gd281 O306 2.377 . S
Gd281 O308 2.448 . S
Gd281 O309 2.506 . S
Gd281 O310 2.435 . S
Gd281 O311 2.717 . S
C282 O300 1.240 . S
C282 O301 1.240 . S
C283 Gd280 2.818 . S
C283 C284 1.510 . S
C283 O302 1.249 . S
C283 O303 1.252 . S
C284 C283 1.510 . S
C284 C285 1.404 . S
C284 C286 1.352 . S
C285 C284 1.404 . S
C285 C289 1.389 . S
C285 H312 0.930 . S
C286 C284 1.352 . S
C286 C288 1.374 . S
C286 H313 0.931 . S
C287 C288 1.359 . S
C287 C289 1.364 . S
C288 C286 1.374 . S
C288 C287 1.359 . S
C288 H314 0.931 . S
C289 C285 1.389 . S
C289 C287 1.364 . S
C289 H315 0.931 . S
C290 O304 1.256 . S
C290 O305 1.257 . S
C291 O306 1.240 . S
C291 O307 1.240 . S
C292 Gd281 2.818 . S
C292 C293 1.510 . S
C292 O308 1.249 . S
C292 O309 1.252 . S
C293 C292 1.510 . S
C293 C294 1.404 . S
C293 C295 1.352 . S
C294 C293 1.404 . S
C294 C298 1.389 . S
C294 H316 0.930 . S
C295 C293 1.352 . S
C295 C297 1.374 . S
C295 H317 0.931 . S
C296 C297 1.359 . S
C296 C298 1.364 . S
C297 C295 1.374 . S
C297 C296 1.359 . S
C297 H318 0.931 . S
C298 C294 1.389 . S
C298 C296 1.364 . S
C298 H319 0.931 . S
C299 O310 1.256 . S
C299 O311 1.257 . S
O300 Gd280 2.377 . S
O300 C282 1.240 . S
O301 Gd281 2.395 . S
O301 C282 1.240 . S
O302 Gd280 2.448 . S
O302 C283 1.249 . S
O303 Gd280 2.506 . S
O303 C283 1.252 . S
O304 Gd280 2.435 . S
O304 C290 1.256 . S
O305 Gd280 2.717 . S
O305 Gd281 2.327 . S
O305 C290 1.257 . S
O306 Gd281 2.377 . S
O306 C291 1.240 . S
O307 Gd280 2.395 . S
O307 C291 1.240 . S
O308 Gd281 2.448 . S
O308 C292 1.249 . S
O309 Gd281 2.506 . S
O309 C292 1.252 . S
O310 Gd281 2.435 . S
O310 C299 1.256 . S
O311 Gd280 2.327 . S
O311 Gd281 2.717 . S
O311 C299 1.257 . S
H312 C285 0.930 . S
H313 C286 0.931 . S
H314 C288 0.931 . S
H315 C289 0.931 . S
H316 C294 0.930 . S
H317 C295 0.931 . S
H318 C297 0.931 . S
H319 C298 0.931 . S
Gd320 C323 2.818 . S
Gd320 O340 2.377 . S
Gd320 O342 2.448 . S
Gd320 O343 2.506 . S
Gd320 O344 2.435 . S
Gd320 O345 2.717 . S
Gd320 O347 2.395 . S
Gd320 O351 2.327 . S
Gd321 C332 2.818 . S
Gd321 O341 2.395 . S
Gd321 O345 2.327 . S
Gd321 O346 2.377 . S
Gd321 O348 2.448 . S
Gd321 O349 2.506 . S
Gd321 O350 2.435 . S
Gd321 O351 2.717 . S
C322 O340 1.240 . S
C322 O341 1.240 . S
C323 Gd320 2.818 . S
C323 C324 1.510 . S
C323 O342 1.249 . S
C323 O343 1.252 . S
C324 C323 1.510 . S
C324 C325 1.404 . S
C324 C326 1.352 . S
C325 C324 1.404 . S
C325 C329 1.389 . S
C325 H352 0.930 . S
C326 C324 1.352 . S
C326 C328 1.374 . S
C326 H353 0.931 . S
C327 C328 1.359 . S
C327 C329 1.364 . S
C328 C326 1.374 . S
C328 C327 1.359 . S
C328 H354 0.931 . S
C329 C325 1.389 . S
C329 C327 1.364 . S
C329 H355 0.931 . S
C330 O344 1.256 . S
C330 O345 1.257 . S
C331 O346 1.240 . S
C331 O347 1.240 . S
C332 Gd321 2.818 . S
C332 C333 1.510 . S
C332 O348 1.249 . S
C332 O349 1.252 . S
C333 C332 1.510 . S
C333 C334 1.404 . S
C333 C335 1.352 . S
C334 C333 1.404 . S
C334 C338 1.389 . S
C334 H356 0.930 . S
C335 C333 1.352 . S
C335 C337 1.374 . S
C335 H357 0.931 . S
C336 C337 1.359 . S
C336 C338 1.364 . S
C337 C335 1.374 . S
C337 C336 1.359 . S
C337 H358 0.931 . S
C338 C334 1.389 . S
C338 C336 1.364 . S
C338 H359 0.931 . S
C339 O350 1.256 . S
C339 O351 1.257 . S
O340 Gd320 2.377 . S
O340 C322 1.240 . S
O341 Gd321 2.395 . S
O341 C322 1.240 . S
O342 Gd320 2.448 . S
O342 C323 1.249 . S
O343 Gd320 2.506 . S
O343 C323 1.252 . S
O344 Gd320 2.435 . S
O344 C330 1.256 . S
O345 Gd320 2.717 . S
O345 Gd321 2.327 . S
O345 C330 1.257 . S
O346 Gd321 2.377 . S
O346 C331 1.240 . S
O347 Gd320 2.395 . S
O347 C331 1.240 . S
O348 Gd321 2.448 . S
O348 C332 1.249 . S
O349 Gd321 2.506 . S
O349 C332 1.252 . S
O350 Gd321 2.435 . S
O350 C339 1.256 . S
O351 Gd320 2.327 . S
O351 Gd321 2.717 . S
O351 C339 1.257 . S
H352 C325 0.930 . S
H353 C326 0.931 . S
H354 C328 0.931 . S
H355 C329 0.931 . S
H356 C334 0.930 . S
H357 C335 0.931 . S
H358 C337 0.931 . S
H359 C338 0.931 . S
Gd360 C363 2.818 . S
Gd360 O380 2.377 . S
Gd360 O382 2.448 . S
Gd360 O383 2.506 . S
Gd360 O384 2.435 . S
Gd360 O385 2.717 . S
Gd360 O387 2.395 . S
Gd360 O391 2.327 . S
Gd361 C372 2.818 . S
Gd361 O381 2.395 . S
Gd361 O385 2.327 . S
Gd361 O386 2.377 . S
Gd361 O388 2.448 . S
Gd361 O389 2.506 . S
Gd361 O390 2.435 . S
Gd361 O391 2.717 . S
C362 O380 1.240 . S
C362 O381 1.240 . S
C363 Gd360 2.818 . S
C363 C364 1.510 . S
C363 O382 1.249 . S
C363 O383 1.252 . S
C364 C363 1.510 . S
C364 C365 1.404 . S
C364 C366 1.352 . S
C365 C364 1.404 . S
C365 C369 1.389 . S
C365 H392 0.930 . S
C366 C364 1.352 . S
C366 C368 1.374 . S
C366 H393 0.931 . S
C367 C368 1.359 . S
C367 C369 1.364 . S
C368 C366 1.374 . S
C368 C367 1.359 . S
C368 H394 0.931 . S
C369 C365 1.389 . S
C369 C367 1.364 . S
C369 H395 0.931 . S
C370 O384 1.256 . S
C370 O385 1.257 . S
C371 O386 1.240 . S
C371 O387 1.240 . S
C372 Gd361 2.818 . S
C372 C373 1.510 . S
C372 O388 1.249 . S
C372 O389 1.252 . S
C373 C372 1.510 . S
C373 C374 1.404 . S
C373 C375 1.352 . S
C374 C373 1.404 . S
C374 C378 1.389 . S
C374 H396 0.930 . S
C375 C373 1.352 . S
C375 C377 1.374 . S
C375 H397 0.931 . S
C376 C377 1.359 . S
C376 C378 1.364 . S
C377 C375 1.374 . S
C377 C376 1.359 . S
C377 H398 0.931 . S
C378 C374 1.389 . S
C378 C376 1.364 . S
C378 H399 0.931 . S
C379 O390 1.256 . S
C379 O391 1.257 . S
O380 Gd360 2.377 . S
O380 C362 1.240 . S
O381 Gd361 2.395 . S
O381 C362 1.240 . S
O382 Gd360 2.448 . S
O382 C363 1.249 . S
O383 Gd360 2.506 . S
O383 C363 1.252 . S
O384 Gd360 2.435 . S
O384 C370 1.256 . S
O385 Gd360 2.717 . S
O385 Gd361 2.327 . S
O385 C370 1.257 . S
O386 Gd361 2.377 . S
O386 C371 1.240 . S
O387 Gd360 2.395 . S
O387 C371 1.240 . S
O388 Gd361 2.448 . S
O388 C372 1.249 . S
O389 Gd361 2.506 . S
O389 C372 1.252 . S
O390 Gd361 2.435 . S
O390 C379 1.256 . S
O391 Gd360 2.327 . S
O391 Gd361 2.717 . S
O391 C379 1.257 . S
H392 C365 0.930 . S
H393 C366 0.931 . S
H394 C368 0.931 . S
H395 C369 0.931 . S
H396 C374 0.930 . S
H397 C375 0.931 . S
H398 C377 0.931 . S
H399 C378 0.931 . S
Gd400 C403 2.818 . S
Gd400 O420 2.377 . S
Gd400 O422 2.448 . S
Gd400 O423 2.506 . S
Gd400 O424 2.435 . S
Gd400 O425 2.717 . S
Gd400 O427 2.395 . S
Gd400 O431 2.327 . S
Gd401 C412 2.818 . S
Gd401 O421 2.395 . S
Gd401 O425 2.327 . S
Gd401 O426 2.377 . S
Gd401 O428 2.448 . S
Gd401 O429 2.506 . S
Gd401 O430 2.435 . S
Gd401 O431 2.717 . S
C402 O420 1.240 . S
C402 O421 1.240 . S
C403 Gd400 2.818 . S
C403 C404 1.510 . S
C403 O422 1.249 . S
C403 O423 1.252 . S
C404 C403 1.510 . S
C404 C405 1.404 . S
C404 C406 1.352 . S
C405 C404 1.404 . S
C405 C409 1.389 . S
C405 H432 0.930 . S
C406 C404 1.352 . S
C406 C408 1.374 . S
C406 H433 0.931 . S
C407 C408 1.359 . S
C407 C409 1.364 . S
C408 C406 1.374 . S
C408 C407 1.359 . S
C408 H434 0.931 . S
C409 C405 1.389 . S
C409 C407 1.364 . S
C409 H435 0.931 . S
C410 O424 1.256 . S
C410 O425 1.257 . S
C411 O426 1.240 . S
C411 O427 1.240 . S
C412 Gd401 2.818 . S
C412 C413 1.510 . S
C412 O428 1.249 . S
C412 O429 1.252 . S
C413 C412 1.510 . S
C413 C414 1.404 . S
C413 C415 1.352 . S
C414 C413 1.404 . S
C414 C418 1.389 . S
C414 H436 0.930 . S
C415 C413 1.352 . S
C415 C417 1.374 . S
C415 H437 0.931 . S
C416 C417 1.359 . S
C416 C418 1.364 . S
C417 C415 1.374 . S
C417 C416 1.359 . S
C417 H438 0.931 . S
C418 C414 1.389 . S
C418 C416 1.364 . S
C418 H439 0.931 . S
C419 O430 1.256 . S
C419 O431 1.257 . S
O420 Gd400 2.377 . S
O420 C402 1.240 . S
O421 Gd401 2.395 . S
O421 C402 1.240 . S
O422 Gd400 2.448 . S
O422 C403 1.249 . S
O423 Gd400 2.506 . S
O423 C403 1.252 . S
O424 Gd400 2.435 . S
O424 C410 1.256 . S
O425 Gd400 2.717 . S
O425 Gd401 2.327 . S
O425 C410 1.257 . S
O426 Gd401 2.377 . S
O426 C411 1.240 . S
O427 Gd400 2.395 . S
O427 C411 1.240 . S
O428 Gd401 2.448 . S
O428 C412 1.249 . S
O429 Gd401 2.506 . S
O429 C412 1.252 . S
O430 Gd401 2.435 . S
O430 C419 1.256 . S
O431 Gd400 2.327 . S
O431 Gd401 2.717 . S
O431 C419 1.257 . S
H432 C405 0.930 . S
H433 C406 0.931 . S
H434 C408 0.931 . S
H435 C409 0.931 . S
H436 C414 0.930 . S
H437 C415 0.931 . S
H438 C417 0.931 . S
H439 C418 0.931 . S
Gd440 C443 2.818 . S
Gd440 O460 2.377 . S
Gd440 O462 2.448 . S
Gd440 O463 2.506 . S
Gd440 O464 2.435 . S
Gd440 O465 2.717 . S
Gd440 O467 2.395 . S
Gd440 O471 2.327 . S
Gd441 C452 2.818 . S
Gd441 O461 2.395 . S
Gd441 O465 2.327 . S
Gd441 O466 2.377 . S
Gd441 O468 2.448 . S
Gd441 O469 2.506 . S
Gd441 O470 2.435 . S
Gd441 O471 2.717 . S
C442 O460 1.240 . S
C442 O461 1.240 . S
C443 Gd440 2.818 . S
C443 C444 1.510 . S
C443 O462 1.249 . S
C443 O463 1.252 . S
C444 C443 1.510 . S
C444 C445 1.404 . S
C444 C446 1.352 . S
C445 C444 1.404 . S
C445 C449 1.389 . S
C445 H472 0.930 . S
C446 C444 1.352 . S
C446 C448 1.374 . S
C446 H473 0.931 . S
C447 C448 1.359 . S
C447 C449 1.364 . S
C448 C446 1.374 . S
C448 C447 1.359 . S
C448 H474 0.931 . S
C449 C445 1.389 . S
C449 C447 1.364 . S
C449 H475 0.931 . S
C450 O464 1.256 . S
C450 O465 1.257 . S
C451 O466 1.240 . S
C451 O467 1.240 . S
C452 Gd441 2.818 . S
C452 C453 1.510 . S
C452 O468 1.249 . S
C452 O469 1.252 . S
C453 C452 1.510 . S
C453 C454 1.404 . S
C453 C455 1.352 . S
C454 C453 1.404 . S
C454 C458 1.389 . S
C454 H476 0.930 . S
C455 C453 1.352 . S
C455 C457 1.374 . S
C455 H477 0.931 . S
C456 C457 1.359 . S
C456 C458 1.364 . S
C457 C455 1.374 . S
C457 C456 1.359 . S
C457 H478 0.931 . S
C458 C454 1.389 . S
C458 C456 1.364 . S
C458 H479 0.931 . S
C459 O470 1.256 . S
C459 O471 1.257 . S
O460 Gd440 2.377 . S
O460 C442 1.240 . S
O461 Gd441 2.395 . S
O461 C442 1.240 . S
O462 Gd440 2.448 . S
O462 C443 1.249 . S
O463 Gd440 2.506 . S
O463 C443 1.252 . S
O464 Gd440 2.435 . S
O464 C450 1.256 . S
O465 Gd440 2.717 . S
O465 Gd441 2.327 . S
O465 C450 1.257 . S
O466 Gd441 2.377 . S
O466 C451 1.240 . S
O467 Gd440 2.395 . S
O467 C451 1.240 . S
O468 Gd441 2.448 . S
O468 C452 1.249 . S
O469 Gd441 2.506 . S
O469 C452 1.252 . S
O470 Gd441 2.435 . S
O470 C459 1.256 . S
O471 Gd440 2.327 . S
O471 Gd441 2.717 . S
O471 C459 1.257 . S
H472 C445 0.930 . S
H473 C446 0.931 . S
H474 C448 0.931 . S
H475 C449 0.931 . S
H476 C454 0.930 . S
H477 C455 0.931 . S
H478 C457 0.931 . S
H479 C458 0.931 . S
Gd480 C483 2.818 . S
Gd480 O500 2.377 . S
Gd480 O502 2.448 . S
Gd480 O503 2.506 . S
Gd480 O504 2.435 . S
Gd480 O505 2.717 . S
Gd480 O507 2.395 . S
Gd480 O511 2.327 . S
Gd481 C492 2.818 . S
Gd481 O501 2.395 . S
Gd481 O505 2.327 . S
Gd481 O506 2.377 . S
Gd481 O508 2.448 . S
Gd481 O509 2.506 . S
Gd481 O510 2.435 . S
Gd481 O511 2.717 . S
C482 O500 1.240 . S
C482 O501 1.240 . S
C483 Gd480 2.818 . S
C483 C484 1.510 . S
C483 O502 1.249 . S
C483 O503 1.252 . S
C484 C483 1.510 . S
C484 C485 1.404 . S
C484 C486 1.352 . S
C485 C484 1.404 . S
C485 C489 1.389 . S
C485 H512 0.930 . S
C486 C484 1.352 . S
C486 C488 1.374 . S
C486 H513 0.931 . S
C487 C488 1.359 . S
C487 C489 1.364 . S
C488 C486 1.374 . S
C488 C487 1.359 . S
C488 H514 0.931 . S
C489 C485 1.389 . S
C489 C487 1.364 . S
C489 H515 0.931 . S
C490 O504 1.256 . S
C490 O505 1.257 . S
C491 O506 1.240 . S
C491 O507 1.240 . S
C492 Gd481 2.818 . S
C492 C493 1.510 . S
C492 O508 1.249 . S
C492 O509 1.252 . S
C493 C492 1.510 . S
C493 C494 1.404 . S
C493 C495 1.352 . S
C494 C493 1.404 . S
C494 C498 1.389 . S
C494 H516 0.930 . S
C495 C493 1.352 . S
C495 C497 1.374 . S
C495 H517 0.931 . S
C496 C497 1.359 . S
C496 C498 1.364 . S
C497 C495 1.374 . S
C497 C496 1.359 . S
C497 H518 0.931 . S
C498 C494 1.389 . S
C498 C496 1.364 . S
C498 H519 0.931 . S
C499 O510 1.256 . S
C499 O511 1.257 . S
O500 Gd480 2.377 . S
O500 C482 1.240 . S
O501 Gd481 2.395 . S
O501 C482 1.240 . S
O502 Gd480 2.448 . S
O502 C483 1.249 . S
O503 Gd480 2.506 . S
O503 C483 1.252 . S
O504 Gd480 2.435 . S
O504 C490 1.256 . S
O505 Gd480 2.717 . S
O505 Gd481 2.327 . S
O505 C490 1.257 . S
O506 Gd481 2.377 . S
O506 C491 1.240 . S
O507 Gd480 2.395 . S
O507 C491 1.240 . S
O508 Gd481 2.448 . S
O508 C492 1.249 . S
O509 Gd481 2.506 . S
O509 C492 1.252 . S
O510 Gd481 2.435 . S
O510 C499 1.256 . S
O511 Gd480 2.327 . S
O511 Gd481 2.717 . S
O511 C499 1.257 . S
H512 C485 0.930 . S
H513 C486 0.931 . S
H514 C488 0.931 . S
H515 C489 0.931 . S
H516 C494 0.930 . S
H517 C495 0.931 . S
H518 C497 0.931 . S
H519 C498 0.931 . S
Gd520 C523 2.818 . S
Gd520 O540 2.377 . S
Gd520 O542 2.448 . S
Gd520 O543 2.506 . S
Gd520 O544 2.435 . S
Gd520 O545 2.717 . S
Gd520 O547 2.395 . S
Gd520 O551 2.327 . S
Gd521 C532 2.818 . S
Gd521 O541 2.395 . S
Gd521 O545 2.327 . S
Gd521 O546 2.377 . S
Gd521 O548 2.448 . S
Gd521 O549 2.506 . S
Gd521 O550 2.435 . S
Gd521 O551 2.717 . S
C522 O540 1.240 . S
C522 O541 1.240 . S
C523 Gd520 2.818 . S
C523 C524 1.510 . S
C523 O542 1.249 . S
C523 O543 1.252 . S
C524 C523 1.510 . S
C524 C525 1.404 . S
C524 C526 1.352 . S
C525 C524 1.404 . S
C525 C529 1.389 . S
C525 H552 0.930 . S
C526 C524 1.352 . S
C526 C528 1.374 . S
C526 H553 0.931 . S
C527 C528 1.359 . S
C527 C529 1.364 . S
C528 C526 1.374 . S
C528 C527 1.359 . S
C528 H554 0.931 . S
C529 C525 1.389 . S
C529 C527 1.364 . S
C529 H555 0.931 . S
C530 O544 1.256 . S
C530 O545 1.257 . S
C531 O546 1.240 . S
C531 O547 1.240 . S
C532 Gd521 2.818 . S
C532 C533 1.510 . S
C532 O548 1.249 . S
C532 O549 1.252 . S
C533 C532 1.510 . S
C533 C534 1.404 . S
C533 C535 1.352 . S
C534 C533 1.404 . S
C534 C538 1.389 . S
C534 H556 0.930 . S
C535 C533 1.352 . S
C535 C537 1.374 . S
C535 H557 0.931 . S
C536 C537 1.359 . S
C536 C538 1.364 . S
C537 C535 1.374 . S
C537 C536 1.359 . S
C537 H558 0.931 . S
C538 C534 1.389 . S
C538 C536 1.364 . S
C538 H559 0.931 . S
C539 O550 1.256 . S
C539 O551 1.257 . S
O540 Gd520 2.377 . S
O540 C522 1.240 . S
O541 Gd521 2.395 . S
O541 C522 1.240 . S
O542 Gd520 2.448 . S
O542 C523 1.249 . S
O543 Gd520 2.506 . S
O543 C523 1.252 . S
O544 Gd520 2.435 . S
O544 C530 1.256 . S
O545 Gd520 2.717 . S
O545 Gd521 2.327 . S
O545 C530 1.257 . S
O546 Gd521 2.377 . S
O546 C531 1.240 . S
O547 Gd520 2.395 . S
O547 C531 1.240 . S
O548 Gd521 2.448 . S
O548 C532 1.249 . S
O549 Gd521 2.506 . S
O549 C532 1.252 . S
O550 Gd521 2.435 . S
O550 C539 1.256 . S
O551 Gd520 2.327 . S
O551 Gd521 2.717 . S
O551 C539 1.257 . S
H552 C525 0.930 . S
H553 C526 0.931 . S
H554 C528 0.931 . S
H555 C529 0.931 . S
H556 C534 0.930 . S
H557 C535 0.931 . S
H558 C537 0.931 . S
H559 C538 0.931 . S
Gd560 C563 2.818 . S
Gd560 O580 2.377 . S
Gd560 O582 2.448 . S
Gd560 O583 2.506 . S
Gd560 O584 2.435 . S
Gd560 O585 2.717 . S
Gd560 O587 2.395 . S
Gd560 O591 2.327 . S
Gd561 C572 2.818 . S
Gd561 O581 2.395 . S
Gd561 O585 2.327 . S
Gd561 O586 2.377 . S
Gd561 O588 2.448 . S
Gd561 O589 2.506 . S
Gd561 O590 2.435 . S
Gd561 O591 2.717 . S
C562 O580 1.240 . S
C562 O581 1.240 . S
C563 Gd560 2.818 . S
C563 C564 1.510 . S
C563 O582 1.249 . S
C563 O583 1.252 . S
C564 C563 1.510 . S
C564 C565 1.404 . S
C564 C566 1.352 . S
C565 C564 1.404 . S
C565 C569 1.389 . S
C565 H592 0.930 . S
C566 C564 1.352 . S
C566 C568 1.374 . S
C566 H593 0.931 . S
C567 C568 1.359 . S
C567 C569 1.364 . S
C568 C566 1.374 . S
C568 C567 1.359 . S
C568 H594 0.931 . S
C569 C565 1.389 . S
C569 C567 1.364 . S
C569 H595 0.931 . S
C570 O584 1.256 . S
C570 O585 1.257 . S
C571 O586 1.240 . S
C571 O587 1.240 . S
C572 Gd561 2.818 . S
C572 C573 1.510 . S
C572 O588 1.249 . S
C572 O589 1.252 . S
C573 C572 1.510 . S
C573 C574 1.404 . S
C573 C575 1.352 . S
C574 C573 1.404 . S
C574 C578 1.389 . S
C574 H596 0.930 . S
C575 C573 1.352 . S
C575 C577 1.374 . S
C575 H597 0.931 . S
C576 C577 1.359 . S
C576 C578 1.364 . S
C577 C575 1.374 . S
C577 C576 1.359 . S
C577 H598 0.931 . S
C578 C574 1.389 . S
C578 C576 1.364 . S
C578 H599 0.931 . S
C579 O590 1.256 . S
C579 O591 1.257 . S
O580 Gd560 2.377 . S
O580 C562 1.240 . S
O581 Gd561 2.395 . S
O581 C562 1.240 . S
O582 Gd560 2.448 . S
O582 C563 1.249 . S
O583 Gd560 2.506 . S
O583 C563 1.252 . S
O584 Gd560 2.435 . S
O584 C570 1.256 . S
O585 Gd560 2.717 . S
O585 Gd561 2.327 . S
O585 C570 1.257 . S
O586 Gd561 2.377 . S
O586 C571 1.240 . S
O587 Gd560 2.395 . S
O587 C571 1.240 . S
O588 Gd561 2.448 . S
O588 C572 1.249 . S
O589 Gd561 2.506 . S
O589 C572 1.252 . S
O590 Gd561 2.435 . S
O590 C579 1.256 . S
O591 Gd560 2.327 . S
O591 Gd561 2.717 . S
O591 C579 1.257 . S
H592 C565 0.930 . S
H593 C566 0.931 . S
H594 C568 0.931 . S
H595 C569 0.931 . S
H596 C574 0.930 . S
H597 C575 0.931 . S
H598 C577 0.931 . S
H599 C578 0.931 . S
Gd600 C603 2.818 . S
Gd600 O620 2.377 . S
Gd600 O622 2.448 . S
Gd600 O623 2.506 . S
Gd600 O624 2.435 . S
Gd600 O625 2.717 . S
Gd600 O627 2.395 . S
Gd600 O631 2.327 . S
Gd601 C612 2.818 . S
Gd601 O621 2.395 . S
Gd601 O625 2.327 . S
Gd601 O626 2.377 . S
Gd601 O628 2.448 . S
Gd601 O629 2.506 . S
Gd601 O630 2.435 . S
Gd601 O631 2.717 . S
C602 O620 1.240 . S
C602 O621 1.240 . S
C603 Gd600 2.818 . S
C603 C604 1.510 . S
C603 O622 1.249 . S
C603 O623 1.252 . S
C604 C603 1.510 . S
C604 C605 1.404 . S
C604 C606 1.352 1_655 S
C605 C604 1.404 . S
C605 C609 1.389 . S
C605 H632 0.930 . S
C606 C604 1.352 1_455 S
C606 C608 1.374 . S
C606 H633 0.931 . S
C607 C608 1.350 1_655 S
C607 C609 1.376 . S
C608 C606 1.374 . S
C608 C607 1.350 1_455 S
C608 H634 0.931 . S
C609 C605 1.389 . S
C609 C607 1.376 . S
C609 H635 0.931 . S
C610 O624 1.256 . S
C610 O625 1.257 . S
C611 O626 1.240 . S
C611 O627 1.240 . S
C612 Gd601 2.818 . S
C612 C613 1.510 . S
C612 O628 1.249 . S
C612 O629 1.252 . S
C613 C612 1.510 . S
C613 C614 1.404 . S
C613 C615 1.352 . S
C614 C613 1.404 . S
C614 C618 1.389 . S
C614 H636 0.930 . S
C615 C613 1.352 . S
C615 C617 1.374 . S
C615 H637 0.931 . S
C616 C617 1.359 . S
C616 C618 1.364 . S
C617 C615 1.374 . S
C617 C616 1.359 . S
C617 H638 0.931 . S
C618 C614 1.389 . S
C618 C616 1.364 . S
C618 H639 0.931 . S
C619 O630 1.256 . S
C619 O631 1.257 . S
O620 Gd600 2.377 . S
O620 C602 1.240 . S
O621 Gd601 2.395 . S
O621 C602 1.240 . S
O622 Gd600 2.448 . S
O622 C603 1.249 . S
O623 Gd600 2.506 . S
O623 C603 1.252 . S
O624 Gd600 2.435 . S
O624 C610 1.256 . S
O625 Gd600 2.717 . S
O625 Gd601 2.327 . S
O625 C610 1.257 . S
O626 Gd601 2.377 . S
O626 C611 1.240 . S
O627 Gd600 2.395 . S
O627 C611 1.240 . S
O628 Gd601 2.448 . S
O628 C612 1.249 . S
O629 Gd601 2.506 . S
O629 C612 1.252 . S
O630 Gd601 2.435 . S
O630 C619 1.256 . S
O631 Gd600 2.327 . S
O631 Gd601 2.717 . S
O631 C619 1.257 . S
H632 C605 0.930 . S
H633 C606 0.931 . S
H634 C608 0.931 . S
H635 C609 0.931 . S
H636 C614 0.930 . S
H637 C615 0.931 . S
H638 C617 0.931 . S
H639 C618 0.931 . S
Gd640 C643 2.818 . S
Gd640 O660 2.377 . S
Gd640 O662 2.448 . S
Gd640 O663 2.506 . S
Gd640 O664 2.435 . S
Gd640 O665 2.717 . S
Gd640 O667 2.395 . S
Gd640 O671 2.327 . S
Gd641 C652 2.818 . S
Gd641 O661 2.395 . S
Gd641 O665 2.327 . S
Gd641 O666 2.377 . S
Gd641 O668 2.448 . S
Gd641 O669 2.506 . S
Gd641 O670 2.435 . S
Gd641 O671 2.717 . S
C642 O660 1.240 . S
C642 O661 1.240 . S
C643 Gd640 2.818 . S
C643 C644 1.510 . S
C643 O662 1.249 . S
C643 O663 1.252 . S
C644 C643 1.510 . S
C644 C645 1.404 . S
C644 C646 1.352 . S
C645 C644 1.404 . S
C645 C649 1.389 . S
C645 H672 0.930 . S
C646 C644 1.352 . S
C646 C648 1.374 . S
C646 H673 0.931 . S
C647 C648 1.359 . S
C647 C649 1.364 . S
C648 C646 1.374 . S
C648 C647 1.359 . S
C648 H674 0.931 . S
C649 C645 1.389 . S
C649 C647 1.364 . S
C649 H675 0.931 . S
C650 O664 1.256 . S
C650 O665 1.257 . S
C651 O666 1.240 . S
C651 O667 1.240 . S
C652 Gd641 2.818 . S
C652 C653 1.510 . S
C652 O668 1.249 . S
C652 O669 1.252 . S
C653 C652 1.510 . S
C653 C654 1.404 . S
C653 C655 1.352 . S
C654 C653 1.404 . S
C654 C658 1.389 . S
C654 H676 0.930 . S
C655 C653 1.352 . S
C655 C657 1.374 . S
C655 H677 0.931 . S
C656 C657 1.359 . S
C656 C658 1.364 . S
C657 C655 1.374 . S
C657 C656 1.359 . S
C657 H678 0.931 . S
C658 C654 1.389 . S
C658 C656 1.364 . S
C658 H679 0.931 . S
C659 O670 1.256 . S
C659 O671 1.257 . S
O660 Gd640 2.377 . S
O660 C642 1.240 . S
O661 Gd641 2.395 . S
O661 C642 1.240 . S
O662 Gd640 2.448 . S
O662 C643 1.249 . S
O663 Gd640 2.506 . S
O663 C643 1.252 . S
O664 Gd640 2.435 . S
O664 C650 1.256 . S
O665 Gd640 2.717 . S
O665 Gd641 2.327 . S
O665 C650 1.257 . S
O666 Gd641 2.377 . S
O666 C651 1.240 . S
O667 Gd640 2.395 . S
O667 C651 1.240 . S
O668 Gd641 2.448 . S
O668 C652 1.249 . S
O669 Gd641 2.506 . S
O669 C652 1.252 . S
O670 Gd641 2.435 . S
O670 C659 1.256 . S
O671 Gd640 2.327 . S
O671 Gd641 2.717 . S
O671 C659 1.257 . S
H672 C645 0.930 . S
H673 C646 0.931 . S
H674 C648 0.931 . S
H675 C649 0.931 . S
H676 C654 0.930 . S
H677 C655 0.931 . S
H678 C657 0.931 . S
H679 C658 0.931 . S
Gd680 C683 2.818 . S
Gd680 O700 2.377 . S
Gd680 O702 2.448 . S
Gd680 O703 2.506 . S
Gd680 O704 2.435 . S
Gd680 O705 2.717 . S
Gd680 O707 2.395 . S
Gd680 O711 2.327 . S
Gd681 C692 2.818 . S
Gd681 O701 2.395 . S
Gd681 O705 2.327 . S
Gd681 O706 2.377 . S
Gd681 O708 2.448 . S
Gd681 O709 2.506 . S
Gd681 O710 2.435 . S
Gd681 O711 2.717 . S
C682 O700 1.240 . S
C682 O701 1.240 . S
C683 Gd680 2.818 . S
C683 C684 1.510 . S
C683 O702 1.249 . S
C683 O703 1.252 . S
C684 C683 1.510 . S
C684 C685 1.404 . S
C684 C686 1.352 1_545 S
C685 C684 1.404 . S
C685 C689 1.389 . S
C685 H712 0.930 . S
C686 C684 1.352 1_565 S
C686 C688 1.374 . S
C686 H713 0.931 . S
C687 C688 1.358 1_545 S
C687 C689 1.366 . S
C688 C686 1.374 . S
C688 C687 1.358 1_565 S
C688 H714 0.931 . S
C689 C685 1.389 . S
C689 C687 1.366 . S
C689 H715 0.931 . S
C690 O704 1.256 . S
C690 O705 1.257 . S
C691 O706 1.240 . S
C691 O707 1.240 . S
C692 Gd681 2.818 . S
C692 C693 1.510 . S
C692 O708 1.249 . S
C692 O709 1.252 . S
C693 C692 1.510 . S
C693 C694 1.404 . S
C693 C695 1.352 . S
C694 C693 1.404 . S
C694 C698 1.389 . S
C694 H716 0.930 . S
C695 C693 1.352 . S
C695 C697 1.374 . S
C695 H717 0.931 . S
C696 C697 1.359 . S
C696 C698 1.364 . S
C697 C695 1.374 . S
C697 C696 1.359 . S
C697 H718 0.931 . S
C698 C694 1.389 . S
C698 C696 1.364 . S
C698 H719 0.931 . S
C699 O710 1.256 . S
C699 O711 1.257 . S
O700 Gd680 2.377 . S
O700 C682 1.240 . S
O701 Gd681 2.395 . S
O701 C682 1.240 . S
O702 Gd680 2.448 . S
O702 C683 1.249 . S
O703 Gd680 2.506 . S
O703 C683 1.252 . S
O704 Gd680 2.435 . S
O704 C690 1.256 . S
O705 Gd680 2.717 . S
O705 Gd681 2.327 . S
O705 C690 1.257 . S
O706 Gd681 2.377 . S
O706 C691 1.240 . S
O707 Gd680 2.395 . S
O707 C691 1.240 . S
O708 Gd681 2.448 . S
O708 C692 1.249 . S
O709 Gd681 2.506 . S
O709 C692 1.252 . S
O710 Gd681 2.435 . S
O710 C699 1.256 . S
O711 Gd680 2.327 . S
O711 Gd681 2.717 . S
O711 C699 1.257 . S
H712 C685 0.930 . S
H713 C686 0.931 . S
H714 C688 0.931 . S
H715 C689 0.931 . S
H716 C694 0.930 . S
H717 C695 0.931 . S
H718 C697 0.931 . S
H719 C698 0.931 . S
Gd720 C723 2.818 . S
Gd720 O740 2.377 . S
Gd720 O742 2.448 . S
Gd720 O743 2.506 . S
Gd720 O744 2.435 . S
Gd720 O745 2.717 . S
Gd720 O747 2.395 . S
Gd720 O751 2.327 . S
Gd721 C732 2.818 . S
Gd721 O741 2.395 . S
Gd721 O745 2.327 . S
Gd721 O746 2.377 . S
Gd721 O748 2.448 . S
Gd721 O749 2.506 . S
Gd721 O750 2.435 . S
Gd721 O751 2.717 . S
C722 O740 1.240 . S
C722 O741 1.240 . S
C723 Gd720 2.818 . S
C723 C724 1.510 . S
C723 O742 1.249 . S
C723 O743 1.252 . S
C724 C723 1.510 . S
C724 C725 1.404 . S
C724 C726 1.352 . S
C725 C724 1.404 . S
C725 C729 1.389 . S
C725 H752 0.930 . S
C726 C724 1.352 . S
C726 C728 1.374 . S
C726 H753 0.931 . S
C727 C728 1.359 . S
C727 C729 1.364 . S
C728 C726 1.374 . S
C728 C727 1.359 . S
C728 H754 0.931 . S
C729 C725 1.389 . S
C729 C727 1.364 . S
C729 H755 0.931 . S
C730 O744 1.256 . S
C730 O745 1.257 . S
C731 O746 1.240 . S
C731 O747 1.240 . S
C732 Gd721 2.818 . S
C732 C733 1.510 . S
C732 O748 1.249 . S
C732 O749 1.252 . S
C733 C732 1.510 . S
C733 C734 1.404 . S
C733 C735 1.352 . S
C734 C733 1.404 . S
C734 C738 1.389 . S
C734 H756 0.930 . S
C735 C733 1.352 . S
C735 C737 1.374 1_545 S
C735 H757 0.931 1_545 S
C736 C737 1.359 1_545 S
C736 C738 1.364 . S
C737 C735 1.374 1_565 S
C737 C736 1.359 1_565 S
C737 H758 0.931 . S
C738 C734 1.389 . S
C738 C736 1.364 . S
C738 H759 0.931 . S
C739 O750 1.256 . S
C739 O751 1.257 . S
O740 Gd720 2.377 . S
O740 C722 1.240 . S
O741 Gd721 2.395 . S
O741 C722 1.240 . S
O742 Gd720 2.448 . S
O742 C723 1.249 . S
O743 Gd720 2.506 . S
O743 C723 1.252 . S
O744 Gd720 2.435 . S
O744 C730 1.256 . S
O745 Gd720 2.717 . S
O745 Gd721 2.327 . S
O745 C730 1.257 . S
O746 Gd721 2.377 . S
O746 C731 1.240 . S
O747 Gd720 2.395 . S
O747 C731 1.240 . S
O748 Gd721 2.448 . S
O748 C732 1.249 . S
O749 Gd721 2.506 . S
O749 C732 1.252 . S
O750 Gd721 2.435 . S
O750 C739 1.256 . S
O751 Gd720 2.327 . S
O751 Gd721 2.717 . S
O751 C739 1.257 . S
H752 C725 0.930 . S
H753 C726 0.931 . S
H754 C728 0.931 . S
H755 C729 0.931 . S
H756 C734 0.930 . S
H757 C735 0.931 1_565 S
H758 C737 0.931 . S
H759 C738 0.931 . S
Gd760 C763 2.818 . S
Gd760 O780 2.377 . S
Gd760 O782 2.448 . S
Gd760 O783 2.506 . S
Gd760 O784 2.435 . S
Gd760 O785 2.717 . S
Gd760 O787 2.395 . S
Gd760 O791 2.327 . S
Gd761 C772 2.818 . S
Gd761 O781 2.395 . S
Gd761 O785 2.327 . S
Gd761 O786 2.377 . S
Gd761 O788 2.448 . S
Gd761 O789 2.506 . S
Gd761 O790 2.435 . S
Gd761 O791 2.717 . S
C762 O780 1.240 . S
C762 O781 1.240 . S
C763 Gd760 2.818 . S
C763 C764 1.510 . S
C763 O782 1.249 . S
C763 O783 1.252 . S
C764 C763 1.510 . S
C764 C765 1.404 . S
C764 C766 1.352 . S
C765 C764 1.404 . S
C765 C769 1.389 . S
C765 H792 0.930 . S
C766 C764 1.352 . S
C766 C768 1.374 . S
C766 H793 0.931 . S
C767 C768 1.359 . S
C767 C769 1.364 . S
C768 C766 1.374 . S
C768 C767 1.359 . S
C768 H794 0.931 . S
C769 C765 1.389 . S
C769 C767 1.364 . S
C769 H795 0.931 . S
C770 O784 1.256 . S
C770 O785 1.257 . S
C771 O786 1.240 . S
C771 O787 1.240 . S
C772 Gd761 2.818 . S
C772 C773 1.510 . S
C772 O788 1.249 . S
C772 O789 1.252 . S
C773 C772 1.510 . S
C773 C774 1.404 . S
C773 C775 1.352 . S
C774 C773 1.404 . S
C774 C778 1.389 . S
C774 H796 0.930 . S
C775 C773 1.352 . S
C775 C777 1.374 1_655 S
C775 H797 0.931 1_655 S
C776 C777 1.359 1_655 S
C776 C778 1.364 . S
C777 C775 1.374 1_455 S
C777 C776 1.359 1_455 S
C777 H798 0.931 . S
C778 C774 1.389 . S
C778 C776 1.364 . S
C778 H799 0.931 . S
C779 O790 1.256 . S
C779 O791 1.257 . S
O780 Gd760 2.377 . S
O780 C762 1.240 . S
O781 Gd761 2.395 . S
O781 C762 1.240 . S
O782 Gd760 2.448 . S
O782 C763 1.249 . S
O783 Gd760 2.506 . S
O783 C763 1.252 . S
O784 Gd760 2.435 . S
O784 C770 1.256 . S
O785 Gd760 2.717 . S
O785 Gd761 2.327 . S
O785 C770 1.257 . S
O786 Gd761 2.377 . S
O786 C771 1.240 . S
O787 Gd760 2.395 . S
O787 C771 1.240 . S
O788 Gd761 2.448 . S
O788 C772 1.249 . S
O789 Gd761 2.506 . S
O789 C772 1.252 . S
O790 Gd761 2.435 . S
O790 C779 1.256 . S
O791 Gd760 2.327 . S
O791 Gd761 2.717 . S
O791 C779 1.257 . S
H792 C765 0.930 . S
H793 C766 0.931 . S
H794 C768 0.931 . S
H795 C769 0.931 . S
H796 C774 0.930 . S
H797 C775 0.931 1_455 S
H798 C777 0.931 . S
H799 C778 0.931 . S
Gd800 C803 2.818 . S
Gd800 O820 2.377 . S
Gd800 O822 2.448 . S
Gd800 O823 2.506 . S
Gd800 O824 2.435 . S
Gd800 O825 2.717 . S
Gd800 O827 2.395 . S
Gd800 O831 2.327 . S
Gd801 C812 2.818 . S
Gd801 O821 2.395 . S
Gd801 O825 2.327 . S
Gd801 O826 2.377 . S
Gd801 O828 2.448 . S
Gd801 O829 2.506 . S
Gd801 O830 2.435 . S
Gd801 O831 2.717 . S
C802 O820 1.240 . S
C802 O821 1.240 . S
C803 Gd800 2.818 . S
C803 C804 1.510 . S
C803 O822 1.249 . S
C803 O823 1.252 . S
C804 C803 1.510 . S
C804 C805 1.404 . S
C804 C806 1.352 . S
C805 C804 1.404 . S
C805 C809 1.389 . S
C805 H832 0.930 . S
C806 C804 1.352 . S
C806 C808 1.374 . S
C806 H833 0.931 . S
C807 C808 1.359 . S
C807 C809 1.364 . S
C808 C806 1.374 . S
C808 C807 1.359 . S
C808 H834 0.931 . S
C809 C805 1.389 . S
C809 C807 1.364 . S
C809 H835 0.931 . S
C810 O824 1.256 . S
C810 O825 1.257 . S
C811 O826 1.240 . S
C811 O827 1.240 . S
C812 Gd801 2.818 . S
C812 C813 1.510 . S
C812 O828 1.249 . S
C812 O829 1.252 . S
C813 C812 1.510 . S
C813 C814 1.404 . S
C813 C815 1.352 . S
C814 C813 1.404 . S
C814 C818 1.389 . S
C814 H836 0.930 . S
C815 C813 1.352 . S
C815 C817 1.374 . S
C815 H837 0.931 . S
C816 C817 1.359 . S
C816 C818 1.364 . S
C817 C815 1.374 . S
C817 C816 1.359 . S
C817 H838 0.931 . S
C818 C814 1.389 . S
C818 C816 1.364 . S
C818 H839 0.931 . S
C819 O830 1.256 . S
C819 O831 1.257 . S
O820 Gd800 2.377 . S
O820 C802 1.240 . S
O821 Gd801 2.395 . S
O821 C802 1.240 . S
O822 Gd800 2.448 . S
O822 C803 1.249 . S
O823 Gd800 2.506 . S
O823 C803 1.252 . S
O824 Gd800 2.435 . S
O824 C810 1.256 . S
O825 Gd800 2.717 . S
O825 Gd801 2.327 . S
O825 C810 1.257 . S
O826 Gd801 2.377 . S
O826 C811 1.240 . S
O827 Gd800 2.395 . S
O827 C811 1.240 . S
O828 Gd801 2.448 . S
O828 C812 1.249 . S
O829 Gd801 2.506 . S
O829 C812 1.252 . S
O830 Gd801 2.435 . S
O830 C819 1.256 . S
O831 Gd800 2.327 . S
O831 Gd801 2.717 . S
O831 C819 1.257 . S
H832 C805 0.930 . S
H833 C806 0.931 . S
H834 C808 0.931 . S
H835 C809 0.931 . S
H836 C814 0.930 . S
H837 C815 0.931 . S
H838 C817 0.931 . S
H839 C818 0.931 . S
Gd840 C843 2.818 . S
Gd840 O860 2.377 . S
Gd840 O862 2.448 . S
Gd840 O863 2.506 . S
Gd840 O864 2.435 . S
Gd840 O865 2.717 1_554 S
Gd840 O867 2.395 . S
Gd840 O871 2.327 . S
Gd841 C852 2.818 . S
Gd841 O861 2.395 . S
Gd841 O865 2.327 . S
Gd841 O866 2.377 . S
Gd841 O868 2.448 . S
Gd841 O869 2.506 . S
Gd841 O870 2.435 . S
Gd841 O871 2.717 1_556 S
C842 O860 1.240 . S
C842 O861 1.240 1_554 S
C843 Gd840 2.818 . S
C843 C844 1.510 . S
C843 O862 1.249 . S
C843 O863 1.252 . S
C844 C843 1.510 . S
C844 C845 1.404 . S
C844 C846 1.352 . S
C845 C844 1.404 . S
C845 C849 1.389 . S
C845 H872 0.930 . S
C846 C844 1.352 . S
C846 C848 1.374 . S
C846 H873 0.931 . S
C847 C848 1.359 . S
C847 C849 1.364 . S
C848 C846 1.374 . S
C848 C847 1.359 . S
C848 H874 0.931 . S
C849 C845 1.389 . S
C849 C847 1.364 . S
C849 H875 0.931 . S
C850 O864 1.256 . S
C850 O865 1.257 1_554 S
C851 O866 1.240 . S
C851 O867 1.240 1_556 S
C852 Gd841 2.818 . S
C852 C853 1.510 . S
C852 O868 1.249 . S
C852 O869 1.252 . S
C853 C852 1.510 . S
C853 C854 1.404 . S
C853 C855 1.352 . S
C854 C853 1.404 . S
C854 C858 1.389 . S
C854 H876 0.930 . S
C855 C853 1.352 . S
C855 C857 1.374 . S
C855 H877 0.931 . S
C856 C857 1.359 . S
C856 C858 1.364 . S
C857 C855 1.374 . S
C857 C856 1.359 . S
C857 H878 0.931 . S
C858 C854 1.389 . S
C858 C856 1.364 . S
C858 H879 0.931 . S
C859 O870 1.256 . S
C859 O871 1.257 1_556 S
O860 Gd840 2.377 . S
O860 C842 1.240 . S
O861 Gd841 2.395 . S
O861 C842 1.240 1_556 S
O862 Gd840 2.448 . S
O862 C843 1.249 . S
O863 Gd840 2.506 . S
O863 C843 1.252 . S
O864 Gd840 2.435 . S
O864 C850 1.256 . S
O865 Gd840 2.717 1_556 S
O865 Gd841 2.327 . S
O865 C850 1.257 1_556 S
O866 Gd841 2.377 . S
O866 C851 1.240 . S
O867 Gd840 2.395 . S
O867 C851 1.240 1_554 S
O868 Gd841 2.448 . S
O868 C852 1.249 . S
O869 Gd841 2.506 . S
O869 C852 1.252 . S
O870 Gd841 2.435 . S
O870 C859 1.256 . S
O871 Gd840 2.327 . S
O871 Gd841 2.717 1_554 S
O871 C859 1.257 1_554 S
H872 C845 0.930 . S
H873 C846 0.931 . S
H874 C848 0.931 . S
H875 C849 0.931 . S
H876 C854 0.930 . S
H877 C855 0.931 . S
H878 C857 0.931 . S
H879 C858 0.931 . S
Gd880 C883 2.818 . S
Gd880 O900 2.377 . S
Gd880 O902 2.448 . S
Gd880 O903 2.506 . S
Gd880 O904 2.435 . S
Gd880 O905 2.717 1_554 S
Gd880 O907 2.395 . S
Gd880 O911 2.327 . S
Gd881 C892 2.818 . S
Gd881 O901 2.395 . S
Gd881 O905 2.327 . S
Gd881 O906 2.377 . S
Gd881 O908 2.448 . S
Gd881 O909 2.506 . S
Gd881 O910 2.435 . S
Gd881 O911 2.717 1_556 S
C882 O900 1.240 . S
C882 O901 1.240 1_554 S
C883 Gd880 2.818 . S
C883 C884 1.510 . S
C883 O902 1.249 . S
C883 O903 1.252 . S
C884 C883 1.510 . S
C884 C885 1.404 . S
C884 C886 1.352 . S
C885 C884 1.404 . S
C885 C889 1.389 . S
C885 H912 0.930 . S
C886 C884 1.352 . S
C886 C888 1.374 . S
C886 H913 0.931 . S
C887 C888 1.359 . S
C887 C889 1.364 . S
C888 C886 1.374 . S
C888 C887 1.359 . S
C888 H914 0.931 . S
C889 C885 1.389 . S
C889 C887 1.364 . S
C889 H915 0.931 . S
C890 O904 1.256 . S
C890 O905 1.257 1_554 S
C891 O906 1.240 . S
C891 O907 1.240 1_556 S
C892 Gd881 2.818 . S
C892 C893 1.510 . S
C892 O908 1.249 . S
C892 O909 1.252 . S
C893 C892 1.510 . S
C893 C894 1.404 . S
C893 C895 1.352 . S
C894 C893 1.404 . S
C894 C898 1.389 . S
C894 H916 0.930 . S
C895 C893 1.352 . S
C895 C897 1.374 . S
C895 H917 0.931 . S
C896 C897 1.359 . S
C896 C898 1.364 . S
C897 C895 1.374 . S
C897 C896 1.359 . S
C897 H918 0.931 . S
C898 C894 1.389 . S
C898 C896 1.364 . S
C898 H919 0.931 . S
C899 O910 1.256 . S
C899 O911 1.257 1_556 S
O900 Gd880 2.377 . S
O900 C882 1.240 . S
O901 Gd881 2.395 . S
O901 C882 1.240 1_556 S
O902 Gd880 2.448 . S
O902 C883 1.249 . S
O903 Gd880 2.506 . S
O903 C883 1.252 . S
O904 Gd880 2.435 . S
O904 C890 1.256 . S
O905 Gd880 2.717 1_556 S
O905 Gd881 2.327 . S
O905 C890 1.257 1_556 S
O906 Gd881 2.377 . S
O906 C891 1.240 . S
O907 Gd880 2.395 . S
O907 C891 1.240 1_554 S
O908 Gd881 2.448 . S
O908 C892 1.249 . S
O909 Gd881 2.506 . S
O909 C892 1.252 . S
O910 Gd881 2.435 . S
O910 C899 1.256 . S
O911 Gd880 2.327 . S
O911 Gd881 2.717 1_554 S
O911 C899 1.257 1_554 S
H912 C885 0.930 . S
H913 C886 0.931 . S
H914 C888 0.931 . S
H915 C889 0.931 . S
H916 C894 0.930 . S
H917 C895 0.931 . S
H918 C897 0.931 . S
H919 C898 0.931 . S
Gd920 C923 2.818 . S
Gd920 O940 2.377 . S
Gd920 O942 2.448 . S
Gd920 O943 2.506 . S
Gd920 O944 2.435 . S
Gd920 O945 2.717 1_554 S
Gd920 O947 2.395 . S
Gd920 O951 2.327 . S
Gd921 C932 2.818 . S
Gd921 O941 2.395 . S
Gd921 O945 2.327 . S
Gd921 O946 2.377 . S
Gd921 O948 2.448 . S
Gd921 O949 2.506 . S
Gd921 O950 2.435 . S
Gd921 O951 2.717 1_556 S
C922 O940 1.240 . S
C922 O941 1.240 1_554 S
C923 Gd920 2.818 . S
C923 C924 1.510 . S
C923 O942 1.249 . S
C923 O943 1.252 . S
C924 C923 1.510 . S
C924 C925 1.404 . S
C924 C926 1.352 . S
C925 C924 1.404 . S
C925 C929 1.389 . S
C925 H952 0.930 . S
C926 C924 1.352 . S
C926 C928 1.374 . S
C926 H953 0.931 . S
C927 C928 1.359 . S
C927 C929 1.364 . S
C928 C926 1.374 . S
C928 C927 1.359 . S
C928 H954 0.931 . S
C929 C925 1.389 . S
C929 C927 1.364 . S
C929 H955 0.931 . S
C930 O944 1.256 . S
C930 O945 1.257 1_554 S
C931 O946 1.240 . S
C931 O947 1.240 1_556 S
C932 Gd921 2.818 . S
C932 C933 1.510 . S
C932 O948 1.249 . S
C932 O949 1.252 . S
C933 C932 1.510 . S
C933 C934 1.404 . S
C933 C935 1.352 . S
C934 C933 1.404 . S
C934 C938 1.389 . S
C934 H956 0.930 . S
C935 C933 1.352 . S
C935 C937 1.374 . S
C935 H957 0.931 . S
C936 C937 1.359 . S
C936 C938 1.364 . S
C937 C935 1.374 . S
C937 C936 1.359 . S
C937 H958 0.931 . S
C938 C934 1.389 . S
C938 C936 1.364 . S
C938 H959 0.931 . S
C939 O950 1.256 . S
C939 O951 1.257 1_556 S
O940 Gd920 2.377 . S
O940 C922 1.240 . S
O941 Gd921 2.395 . S
O941 C922 1.240 1_556 S
O942 Gd920 2.448 . S
O942 C923 1.249 . S
O943 Gd920 2.506 . S
O943 C923 1.252 . S
O944 Gd920 2.435 . S
O944 C930 1.256 . S
O945 Gd920 2.717 1_556 S
O945 Gd921 2.327 . S
O945 C930 1.257 1_556 S
O946 Gd921 2.377 . S
O946 C931 1.240 . S
O947 Gd920 2.395 . S
O947 C931 1.240 1_554 S
O948 Gd921 2.448 . S
O948 C932 1.249 . S
O949 Gd921 2.506 . S
O949 C932 1.252 . S
O950 Gd921 2.435 . S
O950 C939 1.256 . S
O951 Gd920 2.327 . S
O951 Gd921 2.717 1_554 S
O951 C939 1.257 1_554 S
H952 C925 0.930 . S
H953 C926 0.931 . S
H954 C928 0.931 . S
H955 C929 0.931 . S
H956 C934 0.930 . S
H957 C935 0.931 . S
H958 C937 0.931 . S
H959 C938 0.931 . S
Gd960 C963 2.818 . S
Gd960 O980 2.377 . S
Gd960 O982 2.448 . S
Gd960 O983 2.506 . S
Gd960 O984 2.435 . S
Gd960 O985 2.717 . S
Gd960 O987 2.395 . S
Gd960 O991 2.327 . S
Gd961 C972 2.818 . S
Gd961 O981 2.395 . S
Gd961 O985 2.327 . S
Gd961 O986 2.377 . S
Gd961 O988 2.448 . S
Gd961 O989 2.506 . S
Gd961 O990 2.435 . S
Gd961 O991 2.717 . S
C962 O980 1.240 . S
C962 O981 1.240 . S
C963 Gd960 2.818 . S
C963 C964 1.510 . S
C963 O982 1.249 . S
C963 O983 1.252 . S
C964 C963 1.510 . S
C964 C965 1.404 . S
C964 C966 1.352 . S
C965 C964 1.404 . S
C965 C969 1.389 . S
C965 H992 0.930 . S
C966 C964 1.352 . S
C966 C968 1.374 1_565 S
C966 H993 0.931 1_565 S
C967 C968 1.359 1_565 S
C967 C969 1.364 . S
C968 C966 1.374 1_545 S
C968 C967 1.359 1_545 S
C968 H994 0.931 . S
C969 C965 1.389 . S
C969 C967 1.364 . S
C969 H995 0.931 . S
C970 O984 1.256 . S
C970 O985 1.257 . S
C971 O986 1.240 . S
C971 O987 1.240 . S
C972 Gd961 2.818 . S
C972 C973 1.510 . S
C972 O988 1.249 . S
C972 O989 1.252 . S
C973 C972 1.510 . S
C973 C974 1.404 . S
C973 C975 1.352 . S
C974 C973 1.404 . S
C974 C978 1.389 . S
C974 H996 0.930 . S
C975 C973 1.352 . S
C975 C977 1.374 . S
C975 H997 0.931 . S
C976 C977 1.359 . S
C976 C978 1.364 . S
C977 C975 1.374 . S
C977 C976 1.359 . S
C977 H998 0.931 . S
C978 C974 1.389 . S
C978 C976 1.364 . S
C978 H999 0.931 . S
C979 O990 1.256 . S
C979 O991 1.257 . S
O980 Gd960 2.377 . S
O980 C962 1.240 . S
O981 Gd961 2.395 . S
O981 C962 1.240 . S
O982 Gd960 2.448 . S
O982 C963 1.249 . S
O983 Gd960 2.506 . S
O983 C963 1.252 . S
O984 Gd960 2.435 . S
O984 C970 1.256 . S
O985 Gd960 2.717 . S
O985 Gd961 2.327 . S
O985 C970 1.257 . S
O986 Gd961 2.377 . S
O986 C971 1.240 . S
O987 Gd960 2.395 . S
O987 C971 1.240 . S
O988 Gd961 2.448 . S
O988 C972 1.249 . S
O989 Gd961 2.506 . S
O989 C972 1.252 . S
O990 Gd961 2.435 . S
O990 C979 1.256 . S
O991 Gd960 2.327 . S
O991 Gd961 2.717 . S
O991 C979 1.257 . S
H992 C965 0.930 . S
H993 C966 0.931 1_545 S
H994 C968 0.931 . S
H995 C969 0.931 . S
H996 C974 0.930 . S
H997 C975 0.931 . S
H998 C977 0.931 . S
H999 C978 0.931 . S
Gd1000 C1003 2.818 . S
Gd1000 O1020 2.377 . S
Gd1000 O1022 2.448 . S
Gd1000 O1023 2.506 . S
Gd1000 O1024 2.435 . S
Gd1000 O1025 2.717 . S
Gd1000 O1027 2.395 . S
Gd1000 O1031 2.327 . S
Gd1001 C1012 2.818 . S
Gd1001 O1021 2.395 . S
Gd1001 O1025 2.327 . S
Gd1001 O1026 2.377 . S
Gd1001 O1028 2.448 . S
Gd1001 O1029 2.506 . S
Gd1001 O1030 2.435 . S
Gd1001 O1031 2.717 . S
C1002 O1020 1.240 . S
C1002 O1021 1.240 . S
C1003 Gd1000 2.818 . S
C1003 C1004 1.510 . S
C1003 O1022 1.249 . S
C1003 O1023 1.252 . S
C1004 C1003 1.510 . S
C1004 C1005 1.404 . S
C1004 C1006 1.352 . S
C1005 C1004 1.404 . S
C1005 C1009 1.389 . S
C1005 H1032 0.930 . S
C1006 C1004 1.352 . S
C1006 C1008 1.374 1_455 S
C1006 H1033 0.931 1_455 S
C1007 C1008 1.359 1_455 S
C1007 C1009 1.364 . S
C1008 C1006 1.374 1_655 S
C1008 C1007 1.359 1_655 S
C1008 H1034 0.931 . S
C1009 C1005 1.389 . S
C1009 C1007 1.364 . S
C1009 H1035 0.931 . S
C1010 O1024 1.256 . S
C1010 O1025 1.257 . S
C1011 O1026 1.240 . S
C1011 O1027 1.240 . S
C1012 Gd1001 2.818 . S
C1012 C1013 1.510 . S
C1012 O1028 1.249 . S
C1012 O1029 1.252 . S
C1013 C1012 1.510 . S
C1013 C1014 1.404 . S
C1013 C1015 1.352 . S
C1014 C1013 1.404 . S
C1014 C1018 1.389 . S
C1014 H1036 0.930 . S
C1015 C1013 1.352 . S
C1015 C1017 1.374 . S
C1015 H1037 0.931 . S
C1016 C1017 1.359 . S
C1016 C1018 1.364 . S
C1017 C1015 1.374 . S
C1017 C1016 1.359 . S
C1017 H1038 0.931 . S
C1018 C1014 1.389 . S
C1018 C1016 1.364 . S
C1018 H1039 0.931 . S
C1019 O1030 1.256 . S
C1019 O1031 1.257 . S
O1020 Gd1000 2.377 . S
O1020 C1002 1.240 . S
O1021 Gd1001 2.395 . S
O1021 C1002 1.240 . S
O1022 Gd1000 2.448 . S
O1022 C1003 1.249 . S
O1023 Gd1000 2.506 . S
O1023 C1003 1.252 . S
O1024 Gd1000 2.435 . S
O1024 C1010 1.256 . S
O1025 Gd1000 2.717 . S
O1025 Gd1001 2.327 . S
O1025 C1010 1.257 . S
O1026 Gd1001 2.377 . S
O1026 C1011 1.240 . S
O1027 Gd1000 2.395 . S
O1027 C1011 1.240 . S
O1028 Gd1001 2.448 . S
O1028 C1012 1.249 . S
O1029 Gd1001 2.506 . S
O1029 C1012 1.252 . S
O1030 Gd1001 2.435 . S
O1030 C1019 1.256 . S
O1031 Gd1000 2.327 . S
O1031 Gd1001 2.717 . S
O1031 C1019 1.257 . S
H1032 C1005 0.930 . S
H1033 C1006 0.931 1_655 S
H1034 C1008 0.931 . S
H1035 C1009 0.931 . S
H1036 C1014 0.930 . S
H1037 C1015 0.931 . S
H1038 C1017 0.931 . S
H1039 C1018 0.931 . S
Gd1040 C1043 2.818 . S
Gd1040 O1060 2.377 . S
Gd1040 O1062 2.448 . S
Gd1040 O1063 2.506 . S
Gd1040 O1064 2.435 . S
Gd1040 O1065 2.717 . S
Gd1040 O1067 2.395 . S
Gd1040 O1071 2.327 . S
Gd1041 C1052 2.818 . S
Gd1041 O1061 2.395 . S
Gd1041 O1065 2.327 . S
Gd1041 O1066 2.377 . S
Gd1041 O1068 2.448 . S
Gd1041 O1069 2.506 . S
Gd1041 O1070 2.435 . S
Gd1041 O1071 2.717 . S
C1042 O1060 1.240 . S
C1042 O1061 1.240 . S
C1043 Gd1040 2.818 . S
C1043 C1044 1.510 . S
C1043 O1062 1.249 . S
C1043 O1063 1.252 . S
C1044 C1043 1.510 . S
C1044 C1045 1.404 . S
C1044 C1046 1.352 . S
C1045 C1044 1.404 . S
C1045 C1049 1.389 . S
C1045 H1072 0.930 . S
C1046 C1044 1.352 . S
C1046 C1048 1.374 . S
C1046 H1073 0.931 . S
C1047 C1048 1.359 . S
C1047 C1049 1.364 . S
C1048 C1046 1.374 . S
C1048 C1047 1.359 . S
C1048 H1074 0.931 . S
C1049 C1045 1.389 . S
C1049 C1047 1.364 . S
C1049 H1075 0.931 . S
C1050 O1064 1.256 . S
C1050 O1065 1.257 . S
C1051 O1066 1.240 . S
C1051 O1067 1.240 . S
C1052 Gd1041 2.818 . S
C1052 C1053 1.510 . S
C1052 O1068 1.249 . S
C1052 O1069 1.252 . S
C1053 C1052 1.510 . S
C1053 C1054 1.404 . S
C1053 C1055 1.352 . S
C1054 C1053 1.404 . S
C1054 C1058 1.389 . S
C1054 H1076 0.930 . S
C1055 C1053 1.352 . S
C1055 C1057 1.374 . S
C1055 H1077 0.931 . S
C1056 C1057 1.359 . S
C1056 C1058 1.364 . S
C1057 C1055 1.374 . S
C1057 C1056 1.359 . S
C1057 H1078 0.931 . S
C1058 C1054 1.389 . S
C1058 C1056 1.364 . S
C1058 H1079 0.931 . S
C1059 O1070 1.256 . S
C1059 O1071 1.257 . S
O1060 Gd1040 2.377 . S
O1060 C1042 1.240 . S
O1061 Gd1041 2.395 . S
O1061 C1042 1.240 . S
O1062 Gd1040 2.448 . S
O1062 C1043 1.249 . S
O1063 Gd1040 2.506 . S
O1063 C1043 1.252 . S
O1064 Gd1040 2.435 . S
O1064 C1050 1.256 . S
O1065 Gd1040 2.717 . S
O1065 Gd1041 2.327 . S
O1065 C1050 1.257 . S
O1066 Gd1041 2.377 . S
O1066 C1051 1.240 . S
O1067 Gd1040 2.395 . S
O1067 C1051 1.240 . S
O1068 Gd1041 2.448 . S
O1068 C1052 1.249 . S
O1069 Gd1041 2.506 . S
O1069 C1052 1.252 . S
O1070 Gd1041 2.435 . S
O1070 C1059 1.256 . S
O1071 Gd1040 2.327 . S
O1071 Gd1041 2.717 . S
O1071 C1059 1.257 . S
H1072 C1045 0.930 . S
H1073 C1046 0.931 . S
H1074 C1048 0.931 . S
H1075 C1049 0.931 . S
H1076 C1054 0.930 . S
H1077 C1055 0.931 . S
H1078 C1057 0.931 . S
H1079 C1058 0.931 . S
Gd1080 C1083 2.818 . S
Gd1080 O1100 2.377 . S
Gd1080 O1102 2.448 . S
Gd1080 O1103 2.506 . S
Gd1080 O1104 2.435 . S
Gd1080 O1105 2.717 1_554 S
Gd1080 O1107 2.395 . S
Gd1080 O1111 2.327 . S
Gd1081 C1092 2.818 . S
Gd1081 O1101 2.395 . S
Gd1081 O1105 2.327 . S
Gd1081 O1106 2.377 . S
Gd1081 O1108 2.448 . S
Gd1081 O1109 2.506 . S
Gd1081 O1110 2.435 . S
Gd1081 O1111 2.717 1_556 S
C1082 O1100 1.240 . S
C1082 O1101 1.240 1_554 S
C1083 Gd1080 2.818 . S
C1083 C1084 1.510 . S
C1083 O1102 1.249 . S
C1083 O1103 1.252 . S
C1084 C1083 1.510 . S
C1084 C1085 1.404 . S
C1084 C1086 1.352 . S
C1085 C1084 1.404 . S
C1085 C1089 1.389 . S
C1085 H1112 0.930 . S
C1086 C1084 1.352 . S
C1086 C1088 1.374 . S
C1086 H1113 0.931 . S
C1087 C1088 1.359 . S
C1087 C1089 1.364 . S
C1088 C1086 1.374 . S
C1088 C1087 1.359 . S
C1088 H1114 0.931 . S
C1089 C1085 1.389 . S
C1089 C1087 1.364 . S
C1089 H1115 0.931 . S
C1090 O1104 1.256 . S
C1090 O1105 1.257 1_554 S
C1091 O1106 1.240 . S
C1091 O1107 1.240 1_556 S
C1092 Gd1081 2.818 . S
C1092 C1093 1.510 . S
C1092 O1108 1.249 . S
C1092 O1109 1.252 . S
C1093 C1092 1.510 . S
C1093 C1094 1.404 . S
C1093 C1095 1.352 . S
C1094 C1093 1.404 . S
C1094 C1098 1.389 . S
C1094 H1116 0.930 . S
C1095 C1093 1.352 . S
C1095 C1097 1.374 . S
C1095 H1117 0.931 . S
C1096 C1097 1.359 . S
C1096 C1098 1.364 . S
C1097 C1095 1.374 . S
C1097 C1096 1.359 . S
C1097 H1118 0.931 . S
C1098 C1094 1.389 . S
C1098 C1096 1.364 . S
C1098 H1119 0.931 . S
C1099 O1110 1.256 . S
C1099 O1111 1.257 1_556 S
O1100 Gd1080 2.377 . S
O1100 C1082 1.240 . S
O1101 Gd1081 2.395 . S
O1101 C1082 1.240 1_556 S
O1102 Gd1080 2.448 . S
O1102 C1083 1.249 . S
O1103 Gd1080 2.506 . S
O1103 C1083 1.252 . S
O1104 Gd1080 2.435 . S
O1104 C1090 1.256 . S
O1105 Gd1080 2.717 1_556 S
O1105 Gd1081 2.327 . S
O1105 C1090 1.257 1_556 S
O1106 Gd1081 2.377 . S
O1106 C1091 1.240 . S
O1107 Gd1080 2.395 . S
O1107 C1091 1.240 1_554 S
O1108 Gd1081 2.448 . S
O1108 C1092 1.249 . S
O1109 Gd1081 2.506 . S
O1109 C1092 1.252 . S
O1110 Gd1081 2.435 . S
O1110 C1099 1.256 . S
O1111 Gd1080 2.327 . S
O1111 Gd1081 2.717 1_554 S
O1111 C1099 1.257 1_554 S
H1112 C1085 0.930 . S
H1113 C1086 0.931 . S
H1114 C1088 0.931 . S
H1115 C1089 0.931 . S
H1116 C1094 0.930 . S
H1117 C1095 0.931 . S
H1118 C1097 0.931 . S
H1119 C1098 0.931 . S
Gd1120 C1123 2.818 . S
Gd1120 O1140 2.377 . S
Gd1120 O1142 2.448 . S
Gd1120 O1143 2.506 . S
Gd1120 O1144 2.435 . S
Gd1120 O1145 2.717 1_554 S
Gd1120 O1147 2.395 . S
Gd1120 O1151 2.327 . S
Gd1121 C1132 2.818 . S
Gd1121 O1141 2.395 . S
Gd1121 O1145 2.327 . S
Gd1121 O1146 2.377 . S
Gd1121 O1148 2.448 . S
Gd1121 O1149 2.506 . S
Gd1121 O1150 2.435 . S
Gd1121 O1151 2.717 1_556 S
C1122 O1140 1.240 . S
C1122 O1141 1.240 1_554 S
C1123 Gd1120 2.818 . S
C1123 C1124 1.510 . S
C1123 O1142 1.249 . S
C1123 O1143 1.252 . S
C1124 C1123 1.510 . S
C1124 C1125 1.404 . S
C1124 C1126 1.352 . S
C1125 C1124 1.404 . S
C1125 C1129 1.389 . S
C1125 H1152 0.930 . S
C1126 C1124 1.352 . S
C1126 C1128 1.374 . S
C1126 H1153 0.931 . S
C1127 C1128 1.359 . S
C1127 C1129 1.364 . S
C1128 C1126 1.374 . S
C1128 C1127 1.359 . S
C1128 H1154 0.931 . S
C1129 C1125 1.389 . S
C1129 C1127 1.364 . S
C1129 H1155 0.931 . S
C1130 O1144 1.256 . S
C1130 O1145 1.257 1_554 S
C1131 O1146 1.240 . S
C1131 O1147 1.240 1_556 S
C1132 Gd1121 2.818 . S
C1132 C1133 1.510 . S
C1132 O1148 1.249 . S
C1132 O1149 1.252 . S
C1133 C1132 1.510 . S
C1133 C1134 1.404 . S
C1133 C1135 1.352 . S
C1134 C1133 1.404 . S
C1134 C1138 1.389 . S
C1134 H1156 0.930 . S
C1135 C1133 1.352 . S
C1135 C1137 1.374 . S
C1135 H1157 0.931 . S
C1136 C1137 1.359 . S
C1136 C1138 1.364 . S
C1137 C1135 1.374 . S
C1137 C1136 1.359 . S
C1137 H1158 0.931 . S
C1138 C1134 1.389 . S
C1138 C1136 1.364 . S
C1138 H1159 0.931 . S
C1139 O1150 1.256 . S
C1139 O1151 1.257 1_556 S
O1140 Gd1120 2.377 . S
O1140 C1122 1.240 . S
O1141 Gd1121 2.395 . S
O1141 C1122 1.240 1_556 S
O1142 Gd1120 2.448 . S
O1142 C1123 1.249 . S
O1143 Gd1120 2.506 . S
O1143 C1123 1.252 . S
O1144 Gd1120 2.435 . S
O1144 C1130 1.256 . S
O1145 Gd1120 2.717 1_556 S
O1145 Gd1121 2.327 . S
O1145 C1130 1.257 1_556 S
O1146 Gd1121 2.377 . S
O1146 C1131 1.240 . S
O1147 Gd1120 2.395 . S
O1147 C1131 1.240 1_554 S
O1148 Gd1121 2.448 . S
O1148 C1132 1.249 . S
O1149 Gd1121 2.506 . S
O1149 C1132 1.252 . S
O1150 Gd1121 2.435 . S
O1150 C1139 1.256 . S
O1151 Gd1120 2.327 . S
O1151 Gd1121 2.717 1_554 S
O1151 C1139 1.257 1_554 S
H1152 C1125 0.930 . S
H1153 C1126 0.931 . S
H1154 C1128 0.931 . S
H1155 C1129 0.931 . S
H1156 C1134 0.930 . S
H1157 C1135 0.931 . S
H1158 C1137 0.931 . S
H1159 C1138 0.931 . S
Gd1160 C1163 2.818 . S
Gd1160 O1180 2.377 . S
Gd1160 O1182 2.448 . S
Gd1160 O1183 2.506 . S
Gd1160 O1184 2.435 . S
Gd1160 O1185 2.717 1_554 S
Gd1160 O1187 2.395 . S
Gd1160 O1191 2.327 . S
Gd1161 C1172 2.818 . S
Gd1161 O1181 2.395 . S
Gd1161 O1185 2.327 . S
Gd1161 O1186 2.377 . S
Gd1161 O1188 2.448 . S
Gd1161 O1189 2.506 . S
Gd1161 O1190 2.435 . S
Gd1161 O1191 2.717 1_556 S
C1162 O1180 1.240 . S
C1162 O1181 1.240 1_554 S
C1163 Gd1160 2.818 . S
C1163 C1164 1.510 . S
C1163 O1182 1.249 . S
C1163 O1183 1.252 . S
C1164 C1163 1.510 . S
C1164 C1165 1.404 . S
C1164 C1166 1.352 . S
C1165 C1164 1.404 . S
C1165 C1169 1.389 . S
C1165 H1192 0.930 . S
C1166 C1164 1.352 . S
C1166 C1168 1.374 . S
C1166 H1193 0.931 . S
C1167 C1168 1.359 . S
C1167 C1169 1.364 . S
C1168 C1166 1.374 . S
C1168 C1167 1.359 . S
C1168 H1194 0.931 . S
C1169 C1165 1.389 . S
C1169 C1167 1.364 . S
C1169 H1195 0.931 . S
C1170 O1184 1.256 . S
C1170 O1185 1.257 1_554 S
C1171 O1186 1.240 . S
C1171 O1187 1.240 1_556 S
C1172 Gd1161 2.818 . S
C1172 C1173 1.510 . S
C1172 O1188 1.249 . S
C1172 O1189 1.252 . S
C1173 C1172 1.510 . S
C1173 C1174 1.404 . S
C1173 C1175 1.352 . S
C1174 C1173 1.404 . S
C1174 C1178 1.389 . S
C1174 H1196 0.930 . S
C1175 C1173 1.352 . S
C1175 C1177 1.374 . S
C1175 H1197 0.931 . S
C1176 C1177 1.359 . S
C1176 C1178 1.364 . S
C1177 C1175 1.374 . S
C1177 C1176 1.359 . S
C1177 H1198 0.931 . S
C1178 C1174 1.389 . S
C1178 C1176 1.364 . S
C1178 H1199 0.931 . S
C1179 O1190 1.256 . S
C1179 O1191 1.257 1_556 S
O1180 Gd1160 2.377 . S
O1180 C1162 1.240 . S
O1181 Gd1161 2.395 . S
O1181 C1162 1.240 1_556 S
O1182 Gd1160 2.448 . S
O1182 C1163 1.249 . S
O1183 Gd1160 2.506 . S
O1183 C1163 1.252 . S
O1184 Gd1160 2.435 . S
O1184 C1170 1.256 . S
O1185 Gd1160 2.717 1_556 S
O1185 Gd1161 2.327 . S
O1185 C1170 1.257 1_556 S
O1186 Gd1161 2.377 . S
O1186 C1171 1.240 . S
O1187 Gd1160 2.395 . S
O1187 C1171 1.240 1_554 S
O1188 Gd1161 2.448 . S
O1188 C1172 1.249 . S
O1189 Gd1161 2.506 . S
O1189 C1172 1.252 . S
O1190 Gd1161 2.435 . S
O1190 C1179 1.256 . S
O1191 Gd1160 2.327 . S
O1191 Gd1161 2.717 1_554 S
O1191 C1179 1.257 1_554 S
H1192 C1165 0.930 . S
H1193 C1166 0.931 . S
H1194 C1168 0.931 . S
H1195 C1169 0.931 . S
H1196 C1174 0.930 . S
H1197 C1175 0.931 . S
H1198 C1177 0.931 . S
H1199 C1178 0.931 . S
Gd1200 C1203 2.818 . S
Gd1200 O1220 2.377 . S
Gd1200 O1222 2.448 . S
Gd1200 O1223 2.506 . S
Gd1200 O1224 2.435 . S
Gd1200 O1225 2.717 . S
Gd1200 O1227 2.395 . S
Gd1200 O1231 2.327 . S
Gd1201 C1212 2.818 . S
Gd1201 O1221 2.395 . S
Gd1201 O1225 2.327 . S
Gd1201 O1226 2.377 . S
Gd1201 O1228 2.448 . S
Gd1201 O1229 2.506 . S
Gd1201 O1230 2.435 . S
Gd1201 O1231 2.717 . S
C1202 O1220 1.240 . S
C1202 O1221 1.240 . S
C1203 Gd1200 2.818 . S
C1203 C1204 1.510 . S
C1203 O1222 1.249 . S
C1203 O1223 1.252 . S
C1204 C1203 1.510 . S
C1204 C1205 1.404 . S
C1204 C1206 1.352 . S
C1205 C1204 1.404 . S
C1205 C1209 1.389 . S
C1205 H1232 0.930 . S
C1206 C1204 1.352 . S
C1206 C1208 1.374 . S
C1206 H1233 0.931 . S
C1207 C1208 1.359 . S
C1207 C1209 1.364 . S
C1208 C1206 1.374 . S
C1208 C1207 1.359 . S
C1208 H1234 0.931 . S
C1209 C1205 1.389 . S
C1209 C1207 1.364 . S
C1209 H1235 0.931 . S
C1210 O1224 1.256 . S
C1210 O1225 1.257 . S
C1211 O1226 1.240 . S
C1211 O1227 1.240 . S
C1212 Gd1201 2.818 . S
C1212 C1213 1.510 . S
C1212 O1228 1.249 . S
C1212 O1229 1.252 . S
C1213 C1212 1.510 . S
C1213 C1214 1.404 . S
C1213 C1215 1.352 . S
C1214 C1213 1.404 . S
C1214 C1218 1.389 . S
C1214 H1236 0.930 . S
C1215 C1213 1.352 . S
C1215 C1217 1.374 . S
C1215 H1237 0.931 . S
C1216 C1217 1.359 . S
C1216 C1218 1.364 . S
C1217 C1215 1.374 . S
C1217 C1216 1.359 . S
C1217 H1238 0.931 . S
C1218 C1214 1.389 . S
C1218 C1216 1.364 . S
C1218 H1239 0.931 . S
C1219 O1230 1.256 . S
C1219 O1231 1.257 . S
O1220 Gd1200 2.377 . S
O1220 C1202 1.240 . S
O1221 Gd1201 2.395 . S
O1221 C1202 1.240 . S
O1222 Gd1200 2.448 . S
O1222 C1203 1.249 . S
O1223 Gd1200 2.506 . S
O1223 C1203 1.252 . S
O1224 Gd1200 2.435 . S
O1224 C1210 1.256 . S
O1225 Gd1200 2.717 . S
O1225 Gd1201 2.327 . S
O1225 C1210 1.257 . S
O1226 Gd1201 2.377 . S
O1226 C1211 1.240 . S
O1227 Gd1200 2.395 . S
O1227 C1211 1.240 . S
O1228 Gd1201 2.448 . S
O1228 C1212 1.249 . S
O1229 Gd1201 2.506 . S
O1229 C1212 1.252 . S
O1230 Gd1201 2.435 . S
O1230 C1219 1.256 . S
O1231 Gd1200 2.327 . S
O1231 Gd1201 2.717 . S
O1231 C1219 1.257 . S
H1232 C1205 0.930 . S
H1233 C1206 0.931 . S
H1234 C1208 0.931 . S
H1235 C1209 0.931 . S
H1236 C1214 0.930 . S
H1237 C1215 0.931 . S
H1238 C1217 0.931 . S
H1239 C1218 0.931 . S
Gd1240 C1243 2.818 . S
Gd1240 O1260 2.377 . S
Gd1240 O1262 2.448 . S
Gd1240 O1263 2.506 . S
Gd1240 O1264 2.435 . S
Gd1240 O1265 2.717 . S
Gd1240 O1267 2.395 . S
Gd1240 O1271 2.327 . S
Gd1241 C1252 2.818 . S
Gd1241 O1261 2.395 . S
Gd1241 O1265 2.327 . S
Gd1241 O1266 2.377 . S
Gd1241 O1268 2.448 . S
Gd1241 O1269 2.506 . S
Gd1241 O1270 2.435 . S
Gd1241 O1271 2.717 . S
C1242 O1260 1.240 . S
C1242 O1261 1.240 . S
C1243 Gd1240 2.818 . S
C1243 C1244 1.510 . S
C1243 O1262 1.249 . S
C1243 O1263 1.252 . S
C1244 C1243 1.510 . S
C1244 C1245 1.404 . S
C1244 C1246 1.352 . S
C1245 C1244 1.404 . S
C1245 C1249 1.389 . S
C1245 H1272 0.930 . S
C1246 C1244 1.352 . S
C1246 C1248 1.374 . S
C1246 H1273 0.931 . S
C1247 C1248 1.359 . S
C1247 C1249 1.364 . S
C1248 C1246 1.374 . S
C1248 C1247 1.359 . S
C1248 H1274 0.931 . S
C1249 C1245 1.389 . S
C1249 C1247 1.364 . S
C1249 H1275 0.931 . S
C1250 O1264 1.256 . S
C1250 O1265 1.257 . S
C1251 O1266 1.240 . S
C1251 O1267 1.240 . S
C1252 Gd1241 2.818 . S
C1252 C1253 1.510 . S
C1252 O1268 1.249 . S
C1252 O1269 1.252 . S
C1253 C1252 1.510 . S
C1253 C1254 1.404 . S
C1253 C1255 1.352 . S
C1254 C1253 1.404 . S
C1254 C1258 1.389 . S
C1254 H1276 0.930 . S
C1255 C1253 1.352 . S
C1255 C1257 1.374 . S
C1255 H1277 0.931 . S
C1256 C1257 1.359 . S
C1256 C1258 1.364 . S
C1257 C1255 1.374 . S
C1257 C1256 1.359 . S
C1257 H1278 0.931 . S
C1258 C1254 1.389 . S
C1258 C1256 1.364 . S
C1258 H1279 0.931 . S
C1259 O1270 1.256 . S
C1259 O1271 1.257 . S
O1260 Gd1240 2.377 . S
O1260 C1242 1.240 . S
O1261 Gd1241 2.395 . S
O1261 C1242 1.240 . S
O1262 Gd1240 2.448 . S
O1262 C1243 1.249 . S
O1263 Gd1240 2.506 . S
O1263 C1243 1.252 . S
O1264 Gd1240 2.435 . S
O1264 C1250 1.256 . S
O1265 Gd1240 2.717 . S
O1265 Gd1241 2.327 . S
O1265 C1250 1.257 . S
O1266 Gd1241 2.377 . S
O1266 C1251 1.240 . S
O1267 Gd1240 2.395 . S
O1267 C1251 1.240 . S
O1268 Gd1241 2.448 . S
O1268 C1252 1.249 . S
O1269 Gd1241 2.506 . S
O1269 C1252 1.252 . S
O1270 Gd1241 2.435 . S
O1270 C1259 1.256 . S
O1271 Gd1240 2.327 . S
O1271 Gd1241 2.717 . S
O1271 C1259 1.257 . S
H1272 C1245 0.930 . S
H1273 C1246 0.931 . S
H1274 C1248 0.931 . S
H1275 C1249 0.931 . S
H1276 C1254 0.930 . S
H1277 C1255 0.931 . S
H1278 C1257 0.931 . S
H1279 C1258 0.931 . S
Gd1280 C1283 2.818 . S
Gd1280 O1300 2.377 . S
Gd1280 O1302 2.448 . S
Gd1280 O1303 2.506 . S
Gd1280 O1304 2.435 . S
Gd1280 O1305 2.717 . S
Gd1280 O1307 2.395 . S
Gd1280 O1311 2.327 . S
Gd1281 C1292 2.818 . S
Gd1281 O1301 2.395 . S
Gd1281 O1305 2.327 . S
Gd1281 O1306 2.377 . S
Gd1281 O1308 2.448 . S
Gd1281 O1309 2.506 . S
Gd1281 O1310 2.435 . S
Gd1281 O1311 2.717 . S
C1282 O1300 1.240 . S
C1282 O1301 1.240 . S
C1283 Gd1280 2.818 . S
C1283 C1284 1.510 . S
C1283 O1302 1.249 . S
C1283 O1303 1.252 . S
C1284 C1283 1.510 . S
C1284 C1285 1.404 . S
C1284 C1286 1.352 . S
C1285 C1284 1.404 . S
C1285 C1289 1.389 . S
C1285 H1312 0.930 . S
C1286 C1284 1.352 . S
C1286 C1288 1.374 . S
C1286 H1313 0.931 . S
C1287 C1288 1.359 . S
C1287 C1289 1.364 . S
C1288 C1286 1.374 . S
C1288 C1287 1.359 . S
C1288 H1314 0.931 . S
C1289 C1285 1.389 . S
C1289 C1287 1.364 . S
C1289 H1315 0.931 . S
C1290 O1304 1.256 . S
C1290 O1305 1.257 . S
C1291 O1306 1.240 . S
C1291 O1307 1.240 . S
C1292 Gd1281 2.818 . S
C1292 C1293 1.510 . S
C1292 O1308 1.249 . S
C1292 O1309 1.252 . S
C1293 C1292 1.510 . S
C1293 C1294 1.404 . S
C1293 C1295 1.352 . S
C1294 C1293 1.404 . S
C1294 C1298 1.389 . S
C1294 H1316 0.930 . S
C1295 C1293 1.352 . S
C1295 C1297 1.374 . S
C1295 H1317 0.931 . S
C1296 C1297 1.359 . S
C1296 C1298 1.364 . S
C1297 C1295 1.374 . S
C1297 C1296 1.359 . S
C1297 H1318 0.931 . S
C1298 C1294 1.389 . S
C1298 C1296 1.364 . S
C1298 H1319 0.931 . S
C1299 O1310 1.256 . S
C1299 O1311 1.257 . S
O1300 Gd1280 2.377 . S
O1300 C1282 1.240 . S
O1301 Gd1281 2.395 . S
O1301 C1282 1.240 . S
O1302 Gd1280 2.448 . S
O1302 C1283 1.249 . S
O1303 Gd1280 2.506 . S
O1303 C1283 1.252 . S
O1304 Gd1280 2.435 . S
O1304 C1290 1.256 . S
O1305 Gd1280 2.717 . S
O1305 Gd1281 2.327 . S
O1305 C1290 1.257 . S
O1306 Gd1281 2.377 . S
O1306 C1291 1.240 . S
O1307 Gd1280 2.395 . S
O1307 C1291 1.240 . S
O1308 Gd1281 2.448 . S
O1308 C1292 1.249 . S
O1309 Gd1281 2.506 . S
O1309 C1292 1.252 . S
O1310 Gd1281 2.435 . S
O1310 C1299 1.256 . S
O1311 Gd1280 2.327 . S
O1311 Gd1281 2.717 . S
O1311 C1299 1.257 . S
H1312 C1285 0.930 . S
H1313 C1286 0.931 . S
H1314 C1288 0.931 . S
H1315 C1289 0.931 . S
H1316 C1294 0.930 . S
H1317 C1295 0.931 . S
H1318 C1297 0.931 . S
H1319 C1298 0.931 . S
Gd1320 C1323 2.818 . S
Gd1320 O1340 2.377 . S
Gd1320 O1342 2.448 . S
Gd1320 O1343 2.506 . S
Gd1320 O1344 2.435 . S
Gd1320 O1345 2.717 . S
Gd1320 O1347 2.395 . S
Gd1320 O1351 2.327 . S
Gd1321 C1332 2.818 . S
Gd1321 O1341 2.395 . S
Gd1321 O1345 2.327 . S
Gd1321 O1346 2.377 . S
Gd1321 O1348 2.448 . S
Gd1321 O1349 2.506 . S
Gd1321 O1350 2.435 . S
Gd1321 O1351 2.717 . S
C1322 O1340 1.240 . S
C1322 O1341 1.240 . S
C1323 Gd1320 2.818 . S
C1323 C1324 1.510 . S
C1323 O1342 1.249 . S
C1323 O1343 1.252 . S
C1324 C1323 1.510 . S
C1324 C1325 1.404 . S
C1324 C1326 1.352 . S
C1325 C1324 1.404 . S
C1325 C1329 1.389 . S
C1325 H1352 0.930 . S
C1326 C1324 1.352 . S
C1326 C1328 1.374 . S
C1326 H1353 0.931 . S
C1327 C1328 1.359 . S
C1327 C1329 1.364 . S
C1328 C1326 1.374 . S
C1328 C1327 1.359 . S
C1328 H1354 0.931 . S
C1329 C1325 1.389 . S
C1329 C1327 1.364 . S
C1329 H1355 0.931 . S
C1330 O1344 1.256 . S
C1330 O1345 1.257 . S
C1331 O1346 1.240 . S
C1331 O1347 1.240 . S
C1332 Gd1321 2.818 . S
C1332 C1333 1.510 . S
C1332 O1348 1.249 . S
C1332 O1349 1.252 . S
C1333 C1332 1.510 . S
C1333 C1334 1.404 . S
C1333 C1335 1.352 1_455 S
C1334 C1333 1.404 . S
C1334 C1338 1.389 . S
C1334 H1356 0.930 . S
C1335 C1333 1.352 1_655 S
C1335 C1337 1.374 . S
C1335 H1357 0.931 . S
C1336 C1337 1.350 1_455 S
C1336 C1338 1.376 . S
C1337 C1335 1.374 . S
C1337 C1336 1.350 1_655 S
C1337 H1358 0.931 . S
C1338 C1334 1.389 . S
C1338 C1336 1.376 . S
C1338 H1359 0.931 . S
C1339 O1350 1.256 . S
C1339 O1351 1.257 . S
O1340 Gd1320 2.377 . S
O1340 C1322 1.240 . S
O1341 Gd1321 2.395 . S
O1341 C1322 1.240 . S
O1342 Gd1320 2.448 . S
O1342 C1323 1.249 . S
O1343 Gd1320 2.506 . S
O1343 C1323 1.252 . S
O1344 Gd1320 2.435 . S
O1344 C1330 1.256 . S
O1345 Gd1320 2.717 . S
O1345 Gd1321 2.327 . S
O1345 C1330 1.257 . S
O1346 Gd1321 2.377 . S
O1346 C1331 1.240 . S
O1347 Gd1320 2.395 . S
O1347 C1331 1.240 . S
O1348 Gd1321 2.448 . S
O1348 C1332 1.249 . S
O1349 Gd1321 2.506 . S
O1349 C1332 1.252 . S
O1350 Gd1321 2.435 . S
O1350 C1339 1.256 . S
O1351 Gd1320 2.327 . S
O1351 Gd1321 2.717 . S
O1351 C1339 1.257 . S
H1352 C1325 0.930 . S
H1353 C1326 0.931 . S
H1354 C1328 0.931 . S
H1355 C1329 0.931 . S
H1356 C1334 0.930 . S
H1357 C1335 0.931 . S
H1358 C1337 0.931 . S
H1359 C1338 0.931 . S
Gd1360 C1363 2.818 . S
Gd1360 O1380 2.377 . S
Gd1360 O1382 2.448 . S
Gd1360 O1383 2.506 . S
Gd1360 O1384 2.435 . S
Gd1360 O1385 2.717 . S
Gd1360 O1387 2.395 . S
Gd1360 O1391 2.327 . S
Gd1361 C1372 2.818 . S
Gd1361 O1381 2.395 . S
Gd1361 O1385 2.327 . S
Gd1361 O1386 2.377 . S
Gd1361 O1388 2.448 . S
Gd1361 O1389 2.506 . S
Gd1361 O1390 2.435 . S
Gd1361 O1391 2.717 . S
C1362 O1380 1.240 . S
C1362 O1381 1.240 . S
C1363 Gd1360 2.818 . S
C1363 C1364 1.510 . S
C1363 O1382 1.249 . S
C1363 O1383 1.252 . S
C1364 C1363 1.510 . S
C1364 C1365 1.404 . S
C1364 C1366 1.352 . S
C1365 C1364 1.404 . S
C1365 C1369 1.389 . S
C1365 H1392 0.930 . S
C1366 C1364 1.352 . S
C1366 C1368 1.374 . S
C1366 H1393 0.931 . S
C1367 C1368 1.359 . S
C1367 C1369 1.364 . S
C1368 C1366 1.374 . S
C1368 C1367 1.359 . S
C1368 H1394 0.931 . S
C1369 C1365 1.389 . S
C1369 C1367 1.364 . S
C1369 H1395 0.931 . S
C1370 O1384 1.256 . S
C1370 O1385 1.257 . S
C1371 O1386 1.240 . S
C1371 O1387 1.240 . S
C1372 Gd1361 2.818 . S
C1372 C1373 1.510 . S
C1372 O1388 1.249 . S
C1372 O1389 1.252 . S
C1373 C1372 1.510 . S
C1373 C1374 1.404 . S
C1373 C1375 1.352 . S
C1374 C1373 1.404 . S
C1374 C1378 1.389 . S
C1374 H1396 0.930 . S
C1375 C1373 1.352 . S
C1375 C1377 1.374 . S
C1375 H1397 0.931 . S
C1376 C1377 1.359 . S
C1376 C1378 1.364 . S
C1377 C1375 1.374 . S
C1377 C1376 1.359 . S
C1377 H1398 0.931 . S
C1378 C1374 1.389 . S
C1378 C1376 1.364 . S
C1378 H1399 0.931 . S
C1379 O1390 1.256 . S
C1379 O1391 1.257 . S
O1380 Gd1360 2.377 . S
O1380 C1362 1.240 . S
O1381 Gd1361 2.395 . S
O1381 C1362 1.240 . S
O1382 Gd1360 2.448 . S
O1382 C1363 1.249 . S
O1383 Gd1360 2.506 . S
O1383 C1363 1.252 . S
O1384 Gd1360 2.435 . S
O1384 C1370 1.256 . S
O1385 Gd1360 2.717 . S
O1385 Gd1361 2.327 . S
O1385 C1370 1.257 . S
O1386 Gd1361 2.377 . S
O1386 C1371 1.240 . S
O1387 Gd1360 2.395 . S
O1387 C1371 1.240 . S
O1388 Gd1361 2.448 . S
O1388 C1372 1.249 . S
O1389 Gd1361 2.506 . S
O1389 C1372 1.252 . S
O1390 Gd1361 2.435 . S
O1390 C1379 1.256 . S
O1391 Gd1360 2.327 . S
O1391 Gd1361 2.717 . S
O1391 C1379 1.257 . S
H1392 C1365 0.930 . S
H1393 C1366 0.931 . S
H1394 C1368 0.931 . S
H1395 C1369 0.931 . S
H1396 C1374 0.930 . S
H1397 C1375 0.931 . S
H1398 C1377 0.931 . S
H1399 C1378 0.931 . S
Gd1400 C1403 2.818 . S
Gd1400 O1420 2.377 . S
Gd1400 O1422 2.448 . S
Gd1400 O1423 2.506 . S
Gd1400 O1424 2.435 . S
Gd1400 O1425 2.717 . S
Gd1400 O1427 2.395 . S
Gd1400 O1431 2.327 . S
Gd1401 C1412 2.818 . S
Gd1401 O1421 2.395 . S
Gd1401 O1425 2.327 . S
Gd1401 O1426 2.377 . S
Gd1401 O1428 2.448 . S
Gd1401 O1429 2.506 . S
Gd1401 O1430 2.435 . S
Gd1401 O1431 2.717 . S
C1402 O1420 1.240 . S
C1402 O1421 1.240 . S
C1403 Gd1400 2.818 . S
C1403 C1404 1.510 . S
C1403 O1422 1.249 . S
C1403 O1423 1.252 . S
C1404 C1403 1.510 . S
C1404 C1405 1.404 . S
C1404 C1406 1.352 . S
C1405 C1404 1.404 . S
C1405 C1409 1.389 . S
C1405 H1432 0.930 . S
C1406 C1404 1.352 . S
C1406 C1408 1.374 . S
C1406 H1433 0.931 . S
C1407 C1408 1.359 . S
C1407 C1409 1.364 . S
C1408 C1406 1.374 . S
C1408 C1407 1.359 . S
C1408 H1434 0.931 . S
C1409 C1405 1.389 . S
C1409 C1407 1.364 . S
C1409 H1435 0.931 . S
C1410 O1424 1.256 . S
C1410 O1425 1.257 . S
C1411 O1426 1.240 . S
C1411 O1427 1.240 . S
C1412 Gd1401 2.818 . S
C1412 C1413 1.510 . S
C1412 O1428 1.249 . S
C1412 O1429 1.252 . S
C1413 C1412 1.510 . S
C1413 C1414 1.404 . S
C1413 C1415 1.352 1_565 S
C1414 C1413 1.404 . S
C1414 C1418 1.389 . S
C1414 H1436 0.930 . S
C1415 C1413 1.352 1_545 S
C1415 C1417 1.374 . S
C1415 H1437 0.931 . S
C1416 C1417 1.358 1_565 S
C1416 C1418 1.366 . S
C1417 C1415 1.374 . S
C1417 C1416 1.358 1_545 S
C1417 H1438 0.931 . S
C1418 C1414 1.389 . S
C1418 C1416 1.366 . S
C1418 H1439 0.931 . S
C1419 O1430 1.256 . S
C1419 O1431 1.257 . S
O1420 Gd1400 2.377 . S
O1420 C1402 1.240 . S
O1421 Gd1401 2.395 . S
O1421 C1402 1.240 . S
O1422 Gd1400 2.448 . S
O1422 C1403 1.249 . S
O1423 Gd1400 2.506 . S
O1423 C1403 1.252 . S
O1424 Gd1400 2.435 . S
O1424 C1410 1.256 . S
O1425 Gd1400 2.717 . S
O1425 Gd1401 2.327 . S
O1425 C1410 1.257 . S
O1426 Gd1401 2.377 . S
O1426 C1411 1.240 . S
O1427 Gd1400 2.395 . S
O1427 C1411 1.240 . S
O1428 Gd1401 2.448 . S
O1428 C1412 1.249 . S
O1429 Gd1401 2.506 . S
O1429 C1412 1.252 . S
O1430 Gd1401 2.435 . S
O1430 C1419 1.256 . S
O1431 Gd1400 2.327 . S
O1431 Gd1401 2.717 . S
O1431 C1419 1.257 . S
H1432 C1405 0.930 . S
H1433 C1406 0.931 . S
H1434 C1408 0.931 . S
H1435 C1409 0.931 . S
H1436 C1414 0.930 . S
H1437 C1415 0.931 . S
H1438 C1417 0.931 . S
H1439 C1418 0.931 . S
H1440 C1446 0.930 . S
H1441 C1449 0.930 . S
H1442 C1450 0.930 . S
H1443 C1451 0.930 1_565 S
H1444 C1454 0.930 . S
H1445 C1455 0.930 . S
C1446 H1440 0.930 . S
C1446 C1447 1.355 . S
C1446 C1448 1.415 . S
C1447 C1446 1.355 . S
C1447 C1449 1.419 . S
C1448 C1446 1.415 . S
C1448 C1453 1.425 . S
C1448 C1455 1.409 . S
C1449 H1441 0.930 . S
C1449 C1447 1.419 . S
C1449 C1450 1.362 . S
C1450 H1442 0.930 . S
C1450 C1449 1.362 . S
C1450 C1453 1.409 . S
C1451 H1443 0.930 1_545 S
C1451 C1452 1.355 1_545 S
C1451 C1453 1.415 . S
C1452 C1451 1.355 1_565 S
C1452 C1454 1.419 1_565 S
C1453 C1448 1.425 . S
C1453 C1450 1.409 . S
C1453 C1451 1.415 . S
C1454 H1444 0.930 . S
C1454 C1452 1.419 1_545 S
C1454 C1455 1.362 . S
C1455 H1445 0.930 . S
C1455 C1448 1.409 . S
C1455 C1454 1.362 . S
H1456 C1462 0.930 . S
H1457 C1465 0.930 . S
H1458 C1466 0.930 . S
H1459 C1467 0.930 . S
H1460 C1470 0.930 . S
H1461 C1471 0.930 . S
C1462 H1456 0.930 . S
C1462 C1463 1.355 1_655 S
C1462 C1464 1.415 . S
C1463 C1462 1.355 1_455 S
C1463 C1465 1.419 . S
C1464 C1462 1.415 . S
C1464 C1469 1.425 . S
C1464 C1471 1.409 . S
C1465 H1457 0.930 . S
C1465 C1463 1.419 . S
C1465 C1466 1.362 1_455 S
C1466 H1458 0.930 . S
C1466 C1465 1.362 1_655 S
C1466 C1469 1.409 . S
C1467 H1459 0.930 . S
C1467 C1468 1.355 . S
C1467 C1469 1.415 . S
C1468 C1467 1.355 . S
C1468 C1470 1.419 . S
C1469 C1464 1.425 . S
C1469 C1466 1.409 . S
C1469 C1467 1.415 . S
C1470 H1460 0.930 . S
C1470 C1468 1.419 . S
C1470 C1471 1.362 . S
C1471 H1461 0.930 . S
C1471 C1464 1.409 . S
C1471 C1470 1.362 . S
H1472 C1478 0.930 . S
H1473 C1481 0.930 . S
H1474 C1482 0.930 . S
H1475 C1483 0.930 . S
H1476 C1486 0.930 . S
H1477 C1487 0.930 . S
C1478 H1472 0.930 . S
C1478 C1479 1.355 . S
C1478 C1480 1.415 . S
C1479 C1478 1.355 . S
C1479 C1481 1.419 . S
C1480 C1478 1.415 . S
C1480 C1485 1.425 . S
C1480 C1487 1.409 . S
C1481 H1473 0.930 . S
C1481 C1479 1.419 . S
C1481 C1482 1.362 . S
C1482 H1474 0.930 . S
C1482 C1481 1.362 . S
C1482 C1485 1.409 . S
C1483 H1475 0.930 . S
C1483 C1484 1.355 . S
C1483 C1485 1.415 . S
C1484 C1483 1.355 . S
C1484 C1486 1.419 . S
C1485 C1480 1.425 . S
C1485 C1482 1.409 . S
C1485 C1483 1.415 . S
C1486 H1476 0.930 . S
C1486 C1484 1.419 . S
C1486 C1487 1.362 . S
C1487 H1477 0.930 . S
C1487 C1480 1.409 . S
C1487 C1486 1.362 . S
H1488 C1494 0.930 . S
H1489 C1497 0.930 . S
H1490 C1498 0.930 . S
H1491 C1499 0.930 1_655 S
H1492 C1502 0.930 . S
H1493 C1503 0.930 . S
C1494 H1488 0.930 . S
C1494 C1495 1.355 . S
C1494 C1496 1.415 . S
C1495 C1494 1.355 . S
C1495 C1497 1.419 . S
C1496 C1494 1.415 . S
C1496 C1501 1.425 . S
C1496 C1503 1.409 . S
C1497 H1489 0.930 . S
C1497 C1495 1.419 . S
C1497 C1498 1.362 . S
C1498 H1490 0.930 . S
C1498 C1497 1.362 . S
C1498 C1501 1.409 . S
C1499 H1491 0.930 1_455 S
C1499 C1500 1.355 1_455 S
C1499 C1501 1.415 . S
C1500 C1499 1.355 1_655 S
C1500 C1502 1.419 1_655 S
C1501 C1496 1.425 . S
C1501 C1498 1.409 . S
C1501 C1499 1.415 . S
C1502 H1492 0.930 . S
C1502 C1500 1.419 1_455 S
C1502 C1503 1.362 . S
C1503 H1493 0.930 . S
C1503 C1496 1.409 . S
C1503 C1502 1.362 . S
H1504 C1510 0.930 . S
H1505 C1513 0.930 . S
H1506 C1514 0.930 . S
H1507 C1515 0.930 . S
H1508 C1518 0.930 . S
H1509 C1519 0.930 . S
C1510 H1504 0.930 . S
C1510 C1511 1.355 . S
C1510 C1512 1.415 . S
C1511 C1510 1.355 . S
C1511 C1513 1.419 . S
C1512 C1510 1.415 . S
C1512 C1517 1.425 . S
C1512 C1519 1.409 . S
C1513 H1505 0.930 . S
C1513 C1511 1.419 . S
C1513 C1514 1.362 . S
C1514 H1506 0.930 . S
C1514 C1513 1.362 . S
C1514 C1517 1.409 . S
C1515 H1507 0.930 . S
C1515 C1516 1.355 . S
C1515 C1517 1.415 . S
C1516 C1515 1.355 . S
C1516 C1518 1.419 . S
C1517 C1512 1.425 . S
C1517 C1514 1.409 . S
C1517 C1515 1.415 . S
C1518 H1508 0.930 . S
C1518 C1516 1.419 . S
C1518 C1519 1.362 . S
C1519 H1509 0.930 . S
C1519 C1512 1.409 . S
C1519 C1518 1.362 . S
H1520 C1526 0.930 . S
H1521 C1529 0.930 1_655 S
H1522 C1530 0.930 . S
H1523 C1531 0.930 1_545 S
H1524 C1534 0.930 . S
H1525 C1535 0.930 . S
C1526 H1520 0.930 . S
C1526 C1527 1.355 . S
C1526 C1528 1.415 . S
C1527 C1526 1.355 . S
C1527 C1529 1.419 . S
C1528 C1526 1.415 . S
C1528 C1533 1.425 . S
C1528 C1535 1.409 . S
C1529 H1521 0.930 1_455 S
C1529 C1527 1.419 . S
C1529 C1530 1.362 . S
C1530 H1522 0.930 . S
C1530 C1529 1.362 . S
C1530 C1533 1.409 . S
C1531 H1523 0.930 1_565 S
C1531 C1532 1.355 1_565 S
C1531 C1533 1.415 . S
C1532 C1531 1.355 1_545 S
C1532 C1534 1.419 1_545 S
C1533 C1528 1.425 . S
C1533 C1530 1.409 . S
C1533 C1531 1.415 . S
C1534 H1524 0.930 . S
C1534 C1532 1.419 1_565 S
C1534 C1535 1.362 . S
C1535 H1525 0.930 . S
C1535 C1528 1.409 . S
C1535 C1534 1.362 . S
H1536 C1542 0.930 . S
H1537 C1545 0.930 . S
H1538 C1546 0.930 . S
H1539 C1547 0.930 1_545 S
H1540 C1550 0.937 . S
H1541 C1551 0.930 . S
C1542 H1536 0.930 . S
C1542 C1543 1.355 . S
C1542 C1544 1.415 . S
C1543 C1542 1.355 . S
C1543 C1545 1.419 . S
C1544 C1542 1.415 . S
C1544 C1549 1.425 . S
C1544 C1551 1.409 . S
C1545 H1537 0.930 . S
C1545 C1543 1.419 . S
C1545 C1546 1.362 . S
C1546 H1538 0.930 . S
C1546 C1545 1.362 . S
C1546 C1549 1.409 . S
C1547 H1539 0.930 1_565 S
C1547 C1548 1.355 1_565 S
C1547 C1549 1.415 . S
C1548 C1547 1.355 1_545 S
C1548 C1550 1.419 1_545 S
C1549 C1544 1.425 . S
C1549 C1546 1.409 . S
C1549 C1547 1.415 . S
C1550 H1540 0.937 . S
C1550 C1548 1.419 1_565 S
C1550 C1551 1.362 . S
C1551 H1541 0.930 . S
C1551 C1544 1.409 . S
C1551 C1550 1.362 . S
H1552 C1558 0.909 1_545 S
H1553 C1561 0.930 . S
H1554 C1562 0.930 . S
H1555 C1563 0.930 . S
H1556 C1566 0.930 . S
H1557 C1567 0.930 . S
C1558 H1552 0.909 1_565 S
C1558 C1559 1.355 . S
C1558 C1560 1.415 . S
C1559 C1558 1.355 . S
C1559 C1561 1.419 . S
C1560 C1558 1.415 . S
C1560 C1565 1.425 . S
C1560 C1567 1.409 . S
C1561 H1553 0.930 . S
C1561 C1559 1.419 . S
C1561 C1562 1.362 . S
C1562 H1554 0.930 . S
C1562 C1561 1.362 . S
C1562 C1565 1.409 . S
C1563 H1555 0.930 . S
C1563 C1564 1.355 1_455 S
C1563 C1565 1.415 . S
C1564 C1563 1.355 1_655 S
C1564 C1566 1.419 . S
C1565 C1560 1.425 . S
C1565 C1562 1.409 . S
C1565 C1563 1.415 . S
C1566 H1556 0.930 . S
C1566 C1564 1.419 . S
C1566 C1567 1.362 1_655 S
C1567 H1557 0.930 . S
C1567 C1560 1.409 . S
C1567 C1566 1.362 1_455 S
H1568 C1574 0.930 1_655 S
H1569 C1577 0.930 . S
H1570 C1578 0.930 . S
H1571 C1579 0.930 . S
H1572 C1582 0.930 . S
H1573 C1583 0.930 . S
C1574 H1568 0.930 1_455 S
C1574 C1575 1.355 . S
C1574 C1576 1.415 . S
C1575 C1574 1.355 . S
C1575 C1577 1.419 . S
C1576 C1574 1.415 . S
C1576 C1581 1.425 . S
C1576 C1583 1.409 . S
C1577 H1569 0.930 . S
C1577 C1575 1.419 . S
C1577 C1578 1.362 . S
C1578 H1570 0.930 . S
C1578 C1577 1.362 . S
C1578 C1581 1.409 . S
C1579 H1571 0.930 . S
C1579 C1580 1.355 . S
C1579 C1581 1.415 . S
C1580 C1579 1.355 . S
C1580 C1582 1.419 . S
C1581 C1576 1.425 . S
C1581 C1578 1.409 . S
C1581 C1579 1.415 . S
C1582 H1572 0.930 . S
C1582 C1580 1.419 . S
C1582 C1583 1.362 . S
C1583 H1573 0.930 . S
C1583 C1576 1.409 . S
C1583 C1582 1.362 . S
H1584 C1590 0.930 . S
H1585 C1593 0.930 . S
H1586 C1594 0.930 . S
H1587 C1595 0.930 . S
H1588 C1598 0.930 . S
H1589 C1599 0.930 . S
C1590 H1584 0.930 . S
C1590 C1591 1.355 . S
C1590 C1592 1.415 . S
C1591 C1590 1.355 . S
C1591 C1593 1.419 . S
C1592 C1590 1.415 . S
C1592 C1597 1.425 . S
C1592 C1599 1.409 . S
C1593 H1585 0.930 . S
C1593 C1591 1.419 . S
C1593 C1594 1.362 . S
C1594 H1586 0.930 . S
C1594 C1593 1.362 . S
C1594 C1597 1.409 . S
C1595 H1587 0.930 . S
C1595 C1596 1.355 1_655 S
C1595 C1597 1.415 . S
C1596 C1595 1.355 1_455 S
C1596 C1598 1.419 . S
C1597 C1592 1.425 . S
C1597 C1594 1.409 . S
C1597 C1595 1.415 . S
C1598 H1588 0.930 . S
C1598 C1596 1.419 . S
C1598 C1599 1.362 1_455 S
C1599 H1589 0.930 . S
C1599 C1592 1.409 . S
C1599 C1598 1.362 1_655 S
H1600 C1606 0.930 . S
H1601 C1609 0.930 . S
H1602 C1610 0.930 . S
H1603 C1611 0.935 . S
H1604 C1614 0.930 . S
H1605 C1615 0.930 . S
C1606 H1600 0.930 . S
C1606 C1607 1.355 . S
C1606 C1608 1.415 . S
C1607 C1606 1.355 . S
C1607 C1609 1.419 . S
C1608 C1606 1.415 . S
C1608 C1613 1.425 . S
C1608 C1615 1.409 . S
C1609 H1601 0.930 . S
C1609 C1607 1.419 . S
C1609 C1610 1.362 . S
C1610 H1602 0.930 . S
C1610 C1609 1.362 . S
C1610 C1613 1.409 . S
C1611 H1603 0.935 . S
C1611 C1612 1.355 . S
C1611 C1613 1.415 . S
C1612 C1611 1.355 . S
C1612 C1614 1.419 . S
C1613 C1608 1.425 . S
C1613 C1610 1.409 . S
C1613 C1611 1.415 . S
C1614 H1604 0.930 . S
C1614 C1612 1.419 . S
C1614 C1615 1.362 . S
C1615 H1605 0.930 . S
C1615 C1608 1.409 . S
C1615 C1614 1.362 . S
H1616 C1622 0.930 1_565 S
H1617 C1625 0.930 1_565 S
H1618 C1626 0.930 . S
H1619 C1627 0.930 . S
H1620 C1630 0.930 1_455 S
H1621 C1631 0.930 . S
C1622 H1616 0.930 1_545 S
C1622 C1623 1.355 1_545 S
C1622 C1624 1.415 . S
C1623 C1622 1.355 1_565 S
C1623 C1625 1.419 1_565 S
C1624 C1622 1.415 . S
C1624 C1629 1.425 . S
C1624 C1631 1.409 . S
C1625 H1617 0.930 1_545 S
C1625 C1623 1.419 1_545 S
C1625 C1626 1.362 . S
C1626 H1618 0.930 . S
C1626 C1625 1.362 . S
C1626 C1629 1.409 . S
C1627 H1619 0.930 . S
C1627 C1628 1.355 . S
C1627 C1629 1.415 . S
C1628 C1627 1.355 . S
C1628 C1630 1.419 . S
C1629 C1624 1.425 . S
C1629 C1626 1.409 . S
C1629 C1627 1.415 . S
C1630 H1620 0.930 1_655 S
C1630 C1628 1.419 . S
C1630 C1631 1.362 . S
C1631 H1621 0.930 . S
C1631 C1624 1.409 . S
C1631 C1630 1.362 . S
H1632 C1638 0.930 . S
H1633 C1641 0.930 . S
H1634 C1642 0.930 . S
H1635 C1643 0.930 . S
H1636 C1646 0.930 . S
H1637 C1647 0.930 . S
C1638 H1632 0.930 . S
C1638 C1639 1.355 . S
C1638 C1640 1.415 . S
C1639 C1638 1.355 . S
C1639 C1641 1.419 . S
C1640 C1638 1.415 . S
C1640 C1645 1.425 . S
C1640 C1647 1.409 . S
C1641 H1633 0.930 . S
C1641 C1639 1.419 . S
C1641 C1642 1.362 . S
C1642 H1634 0.930 . S
C1642 C1641 1.362 . S
C1642 C1645 1.409 . S
C1643 H1635 0.930 . S
C1643 C1644 1.355 . S
C1643 C1645 1.415 . S
C1644 C1643 1.355 . S
C1644 C1646 1.419 . S
C1645 C1640 1.425 . S
C1645 C1642 1.409 . S
C1645 C1643 1.415 . S
C1646 H1636 0.930 . S
C1646 C1644 1.419 . S
C1646 C1647 1.362 . S
C1647 H1637 0.930 . S
C1647 C1640 1.409 . S
C1647 C1646 1.362 . S
H1648 C1654 0.930 . S
H1649 C1657 0.930 . S
H1650 C1658 0.930 . S
H1651 C1659 0.930 . S
H1652 C1662 0.930 . S
H1653 C1663 0.930 . S
C1654 H1648 0.930 . S
C1654 C1655 1.355 . S
C1654 C1656 1.415 . S
C1655 C1654 1.355 . S
C1655 C1657 1.419 . S
C1656 C1654 1.415 . S
C1656 C1661 1.425 . S
C1656 C1663 1.409 . S
C1657 H1649 0.930 . S
C1657 C1655 1.419 . S
C1657 C1658 1.362 . S
C1658 H1650 0.930 . S
C1658 C1657 1.362 . S
C1658 C1661 1.409 . S
C1659 H1651 0.930 . S
C1659 C1660 1.355 . S
C1659 C1661 1.415 . S
C1660 C1659 1.355 . S
C1660 C1662 1.419 . S
C1661 C1656 1.425 . S
C1661 C1658 1.409 . S
C1661 C1659 1.415 . S
C1662 H1652 0.930 . S
C1662 C1660 1.419 . S
C1662 C1663 1.362 . S
C1663 H1653 0.930 . S
C1663 C1656 1.409 . S
C1663 C1662 1.362 . S
H1664 C1670 0.930 . S
H1665 C1673 0.930 . S
H1666 C1674 0.930 . S
H1667 C1675 0.930 . S
H1668 C1678 0.930 . S
H1669 C1679 0.930 . S
C1670 H1664 0.930 . S
C1670 C1671 1.355 . S
C1670 C1672 1.415 . S
C1671 C1670 1.355 . S
C1671 C1673 1.419 . S
C1672 C1670 1.415 . S
C1672 C1677 1.425 . S
C1672 C1679 1.409 . S
C1673 H1665 0.930 . S
C1673 C1671 1.419 . S
C1673 C1674 1.362 . S
C1674 H1666 0.930 . S
C1674 C1673 1.362 . S
C1674 C1677 1.409 . S
C1675 H1667 0.930 . S
C1675 C1676 1.355 . S
C1675 C1677 1.415 . S
C1676 C1675 1.355 . S
C1676 C1678 1.419 . S
C1677 C1672 1.425 . S
C1677 C1674 1.409 . S
C1677 C1675 1.415 . S
C1678 H1668 0.930 . S
C1678 C1676 1.419 . S
C1678 C1679 1.362 . S
C1679 H1669 0.930 . S
C1679 C1672 1.409 . S
C1679 C1678 1.362 . S
H1680 C1686 0.930 . S
H1681 C1689 0.930 . S
H1682 C1690 0.930 . S
H1683 C1691 0.930 . S
H1684 C1694 0.930 . S
H1685 C1695 0.930 . S
C1686 H1680 0.930 . S
C1686 C1687 1.355 . S
C1686 C1688 1.415 . S
C1687 C1686 1.355 . S
C1687 C1689 1.419 . S
C1688 C1686 1.415 . S
C1688 C1693 1.425 . S
C1688 C1695 1.409 . S
C1689 H1681 0.930 . S
C1689 C1687 1.419 . S
C1689 C1690 1.362 . S
C1690 H1682 0.930 . S
C1690 C1689 1.362 . S
C1690 C1693 1.409 . S
C1691 H1683 0.930 . S
C1691 C1692 1.355 . S
C1691 C1693 1.415 . S
C1692 C1691 1.355 . S
C1692 C1694 1.419 . S
C1693 C1688 1.425 . S
C1693 C1690 1.409 . S
C1693 C1691 1.415 . S
C1694 H1684 0.930 . S
C1694 C1692 1.419 . S
C1694 C1695 1.362 . S
C1695 H1685 0.930 . S
C1695 C1688 1.409 . S
C1695 C1694 1.362 . S
H1696 C1702 0.930 . S
H1697 C1705 0.930 . S
H1698 C1706 0.930 . S
H1699 C1707 0.930 . S
H1700 C1710 0.930 . S
H1701 C1711 0.930 . S
C1702 H1696 0.930 . S
C1702 C1703 1.355 . S
C1702 C1704 1.415 . S
C1703 C1702 1.355 . S
C1703 C1705 1.419 . S
C1704 C1702 1.415 . S
C1704 C1709 1.425 . S
C1704 C1711 1.409 . S
C1705 H1697 0.930 . S
C1705 C1703 1.419 . S
C1705 C1706 1.362 . S
C1706 H1698 0.930 . S
C1706 C1705 1.362 . S
C1706 C1709 1.409 . S
C1707 H1699 0.930 . S
C1707 C1708 1.355 . S
C1707 C1709 1.415 . S
C1708 C1707 1.355 . S
C1708 C1710 1.419 . S
C1709 C1704 1.425 . S
C1709 C1706 1.409 . S
C1709 C1707 1.415 . S
C1710 H1700 0.930 . S
C1710 C1708 1.419 . S
C1710 C1711 1.362 . S
C1711 H1701 0.930 . S
C1711 C1704 1.409 . S
C1711 C1710 1.362 . S
H1712 C1718 0.930 . S
H1713 C1721 0.930 . S
H1714 C1722 0.930 . S
H1715 C1723 0.930 . S
H1716 C1726 0.930 . S
H1717 C1727 0.930 . S
C1718 H1712 0.930 . S
C1718 C1719 1.355 . S
C1718 C1720 1.415 . S
C1719 C1718 1.355 . S
C1719 C1721 1.419 . S
C1720 C1718 1.415 . S
C1720 C1725 1.425 . S
C1720 C1727 1.409 . S
C1721 H1713 0.930 . S
C1721 C1719 1.419 . S
C1721 C1722 1.362 . S
C1722 H1714 0.930 . S
C1722 C1721 1.362 . S
C1722 C1725 1.409 . S
C1723 H1715 0.930 . S
C1723 C1724 1.355 . S
C1723 C1725 1.415 . S
C1724 C1723 1.355 . S
C1724 C1726 1.419 . S
C1725 C1720 1.425 . S
C1725 C1722 1.409 . S
C1725 C1723 1.415 . S
C1726 H1716 0.930 . S
C1726 C1724 1.419 . S
C1726 C1727 1.362 . S
C1727 H1717 0.930 . S
C1727 C1720 1.409 . S
C1727 C1726 1.362 . S
H1728 C1734 0.930 . S
H1729 C1737 0.930 . S
H1730 C1738 0.930 . S
H1731 C1739 0.930 . S
H1732 C1742 0.930 . S
H1733 C1743 0.930 . S
C1734 H1728 0.930 . S
C1734 C1735 1.355 . S
C1734 C1736 1.415 . S
C1735 C1734 1.355 . S
C1735 C1737 1.419 . S
C1736 C1734 1.415 . S
C1736 C1741 1.425 . S
C1736 C1743 1.409 . S
C1737 H1729 0.930 . S
C1737 C1735 1.419 . S
C1737 C1738 1.362 . S
C1738 H1730 0.930 . S
C1738 C1737 1.362 . S
C1738 C1741 1.409 . S
C1739 H1731 0.930 . S
C1739 C1740 1.355 . S
C1739 C1741 1.415 . S
C1740 C1739 1.355 . S
C1740 C1742 1.419 . S
C1741 C1736 1.425 . S
C1741 C1738 1.409 . S
C1741 C1739 1.415 . S
C1742 H1732 0.930 . S
C1742 C1740 1.419 . S
C1742 C1743 1.362 . S
C1743 H1733 0.930 . S
C1743 C1736 1.409 . S
C1743 C1742 1.362 . S
H1744 C1750 0.930 . S
H1745 C1753 0.930 . S
H1746 C1754 0.930 . S
H1747 C1755 0.930 . S
H1748 C1758 0.930 . S
H1749 C1759 0.930 . S
C1750 H1744 0.930 . S
C1750 C1751 1.355 . S
C1750 C1752 1.415 . S
C1751 C1750 1.355 . S
C1751 C1753 1.419 . S
C1752 C1750 1.415 . S
C1752 C1757 1.425 . S
C1752 C1759 1.409 . S
C1753 H1745 0.930 . S
C1753 C1751 1.419 . S
C1753 C1754 1.362 . S
C1754 H1746 0.930 . S
C1754 C1753 1.362 . S
C1754 C1757 1.409 . S
C1755 H1747 0.930 . S
C1755 C1756 1.355 . S
C1755 C1757 1.415 . S
C1756 C1755 1.355 . S
C1756 C1758 1.419 . S
C1757 C1752 1.425 . S
C1757 C1754 1.409 . S
C1757 C1755 1.415 . S
C1758 H1748 0.930 . S
C1758 C1756 1.419 . S
C1758 C1759 1.362 . S
C1759 H1749 0.930 . S
C1759 C1752 1.409 . S
C1759 C1758 1.362 . S
H1760 C1766 0.930 . S
H1761 C1769 0.930 . S
H1762 C1770 0.930 . S
H1763 C1771 0.930 . S
H1764 C1774 0.930 . S
H1765 C1775 0.930 . S
C1766 H1760 0.930 . S
C1766 C1767 1.355 . S
C1766 C1768 1.415 . S
C1767 C1766 1.355 . S
C1767 C1769 1.419 . S
C1768 C1766 1.415 . S
C1768 C1773 1.425 . S
C1768 C1775 1.409 . S
C1769 H1761 0.930 . S
C1769 C1767 1.419 . S
C1769 C1770 1.362 . S
C1770 H1762 0.930 . S
C1770 C1769 1.362 . S
C1770 C1773 1.409 . S
C1771 H1763 0.930 . S
C1771 C1772 1.355 . S
C1771 C1773 1.415 . S
C1772 C1771 1.355 . S
C1772 C1774 1.419 . S
C1773 C1768 1.425 . S
C1773 C1770 1.409 . S
C1773 C1771 1.415 . S
C1774 H1764 0.930 . S
C1774 C1772 1.419 . S
C1774 C1775 1.362 . S
C1775 H1765 0.930 . S
C1775 C1768 1.409 . S
C1775 C1774 1.362 . S
H1776 C1782 0.930 . S
H1777 C1785 0.930 . S
H1778 C1786 0.930 . S
H1779 C1787 0.930 . S
H1780 C1790 0.930 . S
H1781 C1791 0.930 . S
C1782 H1776 0.930 . S
C1782 C1783 1.355 . S
C1782 C1784 1.415 . S
C1783 C1782 1.355 . S
C1783 C1785 1.419 1_554 S
C1784 C1782 1.415 . S
C1784 C1789 1.425 1_554 S
C1784 C1791 1.409 . S
C1785 H1777 0.930 . S
C1785 C1783 1.419 1_556 S
C1785 C1786 1.362 . S
C1786 H1778 0.930 . S
C1786 C1785 1.362 . S
C1786 C1789 1.409 . S
C1787 H1779 0.930 . S
C1787 C1788 1.355 1_556 S
C1787 C1789 1.415 . S
C1788 C1787 1.355 1_554 S
C1788 C1790 1.419 . S
C1789 C1784 1.425 1_556 S
C1789 C1786 1.409 . S
C1789 C1787 1.415 . S
C1790 H1780 0.930 . S
C1790 C1788 1.419 . S
C1790 C1791 1.362 . S
C1791 H1781 0.930 . S
C1791 C1784 1.409 . S
C1791 C1790 1.362 . S
H1792 C1798 0.930 . S
H1793 C1801 0.930 . S
H1794 C1802 0.930 . S
H1795 C1803 0.930 . S
H1796 C1806 0.930 . S
H1797 C1807 0.930 . S
C1798 H1792 0.930 . S
C1798 C1799 1.426 . S
C1798 C1800 1.415 . S
C1799 C1798 1.426 . S
C1799 C1801 1.345 1_554 S
C1800 C1798 1.415 . S
C1800 C1805 1.351 1_554 S
C1800 C1807 1.409 . S
C1801 H1793 0.930 . S
C1801 C1799 1.345 1_556 S
C1801 C1802 1.362 . S
C1802 H1794 0.930 . S
C1802 C1801 1.362 . S
C1802 C1805 1.478 . S
C1803 H1795 0.930 . S
C1803 C1804 1.355 1_556 S
C1803 C1805 1.427 . S
C1804 C1803 1.355 1_554 S
C1804 C1806 1.419 . S
C1805 C1800 1.351 1_556 S
C1805 C1802 1.478 . S
C1805 C1803 1.427 . S
C1806 H1796 0.930 . S
C1806 C1804 1.419 . S
C1806 C1807 1.362 . S
C1807 H1797 0.930 . S
C1807 C1800 1.409 . S
C1807 C1806 1.362 . S
H1808 C1814 0.930 . S
H1809 C1817 0.946 . S
H1810 C1818 0.930 . S
H1811 C1819 0.930 . S
H1812 C1822 0.930 . S
H1813 C1823 0.930 . S
C1814 H1808 0.930 . S
C1814 C1815 1.355 . S
C1814 C1816 1.415 . S
C1815 C1814 1.355 . S
C1815 C1817 1.397 1_554 S
C1816 C1814 1.415 . S
C1816 C1821 1.449 . S
C1816 C1823 1.409 . S
C1817 H1809 0.946 . S
C1817 C1815 1.397 1_556 S
C1817 C1818 1.372 . S
C1818 H1810 0.930 . S
C1818 C1817 1.372 . S
C1818 C1821 1.397 1_556 S
C1819 H1811 0.930 . S
C1819 C1820 1.355 1_556 S
C1819 C1821 1.406 1_556 S
C1820 C1819 1.355 1_554 S
C1820 C1822 1.419 . S
C1821 C1816 1.449 . S
C1821 C1818 1.397 1_554 S
C1821 C1819 1.406 1_554 S
C1822 H1812 0.930 . S
C1822 C1820 1.419 . S
C1822 C1823 1.362 . S
C1823 H1813 0.930 . S
C1823 C1816 1.409 . S
C1823 C1822 1.362 . S
H1824 C1830 0.930 . S
H1825 C1833 0.930 . S
H1826 C1834 0.930 . S
H1827 C1835 0.930 . S
H1828 C1838 0.930 . S
H1829 C1839 0.930 . S
C1830 H1824 0.930 . S
C1830 C1831 1.355 . S
C1830 C1832 1.415 . S
C1831 C1830 1.355 . S
C1831 C1833 1.419 . S
C1832 C1830 1.415 . S
C1832 C1837 1.425 . S
C1832 C1839 1.409 . S
C1833 H1825 0.930 . S
C1833 C1831 1.419 . S
C1833 C1834 1.362 . S
C1834 H1826 0.930 . S
C1834 C1833 1.362 . S
C1834 C1837 1.409 . S
C1835 H1827 0.930 . S
C1835 C1836 1.355 . S
C1835 C1837 1.415 . S
C1836 C1835 1.355 . S
C1836 C1838 1.419 . S
C1837 C1832 1.425 . S
C1837 C1834 1.409 . S
C1837 C1835 1.415 . S
C1838 H1828 0.930 . S
C1838 C1836 1.419 . S
C1838 C1839 1.362 . S
C1839 H1829 0.930 . S
C1839 C1832 1.409 . S
C1839 C1838 1.362 . S
H1840 C1846 0.930 . S
H1841 C1849 0.930 . S
H1842 C1850 0.930 . S
H1843 C1851 0.930 . S
H1844 C1854 0.930 . S
H1845 C1855 0.930 . S
C1846 H1840 0.930 . S
C1846 C1847 1.355 . S
C1846 C1848 1.415 . S
C1847 C1846 1.355 . S
C1847 C1849 1.419 . S
C1848 C1846 1.415 . S
C1848 C1853 1.425 . S
C1848 C1855 1.409 . S
C1849 H1841 0.930 . S
C1849 C1847 1.419 . S
C1849 C1850 1.362 . S
C1850 H1842 0.930 . S
C1850 C1849 1.362 . S
C1850 C1853 1.409 . S
C1851 H1843 0.930 . S
C1851 C1852 1.355 . S
C1851 C1853 1.415 . S
C1852 C1851 1.355 . S
C1852 C1854 1.419 . S
C1853 C1848 1.425 . S
C1853 C1850 1.409 . S
C1853 C1851 1.415 . S
C1854 H1844 0.930 . S
C1854 C1852 1.419 . S
C1854 C1855 1.362 . S
C1855 H1845 0.930 . S
C1855 C1848 1.409 . S
C1855 C1854 1.362 . S
H1856 C1862 0.930 . S
H1857 C1865 0.930 . S
H1858 C1866 0.930 . S
H1859 C1867 0.930 . S
H1860 C1870 0.930 . S
H1861 C1871 0.930 . S
C1862 H1856 0.930 . S
C1862 C1863 1.355 . S
C1862 C1864 1.415 . S
C1863 C1862 1.355 . S
C1863 C1865 1.419 . S
C1864 C1862 1.415 . S
C1864 C1869 1.425 . S
C1864 C1871 1.409 . S
C1865 H1857 0.930 . S
C1865 C1863 1.419 . S
C1865 C1866 1.362 . S
C1866 H1858 0.930 . S
C1866 C1865 1.362 . S
C1866 C1869 1.409 . S
C1867 H1859 0.930 . S
C1867 C1868 1.355 . S
C1867 C1869 1.415 . S
C1868 C1867 1.355 . S
C1868 C1870 1.419 . S
C1869 C1864 1.425 . S
C1869 C1866 1.409 . S
C1869 C1867 1.415 . S
C1870 H1860 0.930 . S
C1870 C1868 1.419 . S
C1870 C1871 1.362 . S
C1871 H1861 0.930 . S
C1871 C1864 1.409 . S
C1871 C1870 1.362 . S
H1872 C1878 0.930 . S
H1873 C1881 0.930 . S
H1874 C1882 0.930 . S
H1875 C1883 0.930 . S
H1876 C1886 0.930 . S
H1877 C1887 0.930 . S
C1878 H1872 0.930 . S
C1878 C1879 1.428 . S
C1878 C1880 1.415 . S
C1879 C1878 1.428 . S
C1879 C1881 1.345 1_556 S
C1880 C1878 1.415 . S
C1880 C1885 1.380 1_556 S
C1880 C1887 1.409 . S
C1881 H1873 0.930 . S
C1881 C1879 1.345 1_554 S
C1881 C1882 1.362 . S
C1882 H1874 0.930 . S
C1882 C1881 1.362 . S
C1882 C1885 1.451 . S
C1883 H1875 0.930 . S
C1883 C1884 1.355 1_554 S
C1883 C1885 1.421 . S
C1884 C1883 1.355 1_556 S
C1884 C1886 1.419 . S
C1885 C1880 1.380 1_554 S
C1885 C1882 1.451 . S
C1885 C1883 1.421 . S
C1886 H1876 0.930 . S
C1886 C1884 1.419 . S
C1886 C1887 1.362 . S
C1887 H1877 0.930 . S
C1887 C1880 1.409 . S
C1887 C1886 1.362 . S
H1888 C1894 0.930 . S
H1889 C1897 0.930 . S
H1890 C1898 0.930 . S
H1891 C1899 0.930 . S
H1892 C1902 0.930 . S
H1893 C1903 0.930 . S
C1894 H1888 0.930 . S
C1894 C1895 1.355 1_554 S
C1894 C1896 1.415 . S
C1895 C1894 1.355 1_556 S
C1895 C1897 1.419 . S
C1896 C1894 1.415 . S
C1896 C1901 1.425 1_554 S
C1896 C1903 1.409 . S
C1897 H1889 0.930 . S
C1897 C1895 1.419 . S
C1897 C1898 1.362 . S
C1898 H1890 0.930 . S
C1898 C1897 1.362 . S
C1898 C1901 1.409 . S
C1899 H1891 0.930 . S
C1899 C1900 1.355 . S
C1899 C1901 1.415 . S
C1900 C1899 1.355 . S
C1900 C1902 1.419 1_556 S
C1901 C1896 1.425 1_556 S
C1901 C1898 1.409 . S
C1901 C1899 1.415 . S
C1902 H1892 0.930 . S
C1902 C1900 1.419 1_554 S
C1902 C1903 1.362 . S
C1903 H1893 0.930 . S
C1903 C1896 1.409 . S
C1903 C1902 1.362 . S
H1904 C1910 0.930 . S
H1905 C1913 0.930 . S
H1906 C1914 0.922 1_554 S
H1907 C1915 0.950 . S
H1908 C1918 0.930 . S
H1909 C1919 0.930 . S
C1910 H1904 0.930 . S
C1910 C1911 1.355 . S
C1910 C1912 1.415 . S
C1911 C1910 1.355 . S
C1911 C1913 1.419 1_556 S
C1912 C1910 1.415 . S
C1912 C1917 1.425 . S
C1912 C1919 1.409 . S
C1913 H1905 0.930 . S
C1913 C1911 1.419 1_554 S
C1913 C1914 1.362 1_554 S
C1914 H1906 0.922 1_556 S
C1914 C1913 1.362 1_556 S
C1914 C1917 1.412 . S
C1915 H1907 0.950 . S
C1915 C1916 1.355 . S
C1915 C1917 1.415 . S
C1916 C1915 1.355 . S
C1916 C1918 1.419 . S
C1917 C1912 1.425 . S
C1917 C1914 1.412 . S
C1917 C1915 1.415 . S
C1918 H1908 0.930 . S
C1918 C1916 1.419 . S
C1918 C1919 1.362 . S
C1919 H1909 0.930 . S
C1919 C1912 1.409 . S
C1919 C1918 1.362 . S
H1920 C1926 0.930 . S
H1921 C1929 0.930 . S
H1922 C1930 0.930 . S
H1923 C1931 0.930 . S
H1924 C1934 0.930 . S
H1925 C1935 0.930 . S
C1926 H1920 0.930 . S
C1926 C1927 1.355 . S
C1926 C1928 1.415 . S
C1927 C1926 1.355 . S
C1927 C1929 1.419 . S
C1928 C1926 1.415 . S
C1928 C1933 1.425 . S
C1928 C1935 1.409 . S
C1929 H1921 0.930 . S
C1929 C1927 1.419 . S
C1929 C1930 1.362 . S
C1930 H1922 0.930 . S
C1930 C1929 1.362 . S
C1930 C1933 1.409 . S
C1931 H1923 0.930 . S
C1931 C1932 1.355 . S
C1931 C1933 1.415 . S
C1932 C1931 1.355 . S
C1932 C1934 1.419 . S
C1933 C1928 1.425 . S
C1933 C1930 1.409 . S
C1933 C1931 1.415 . S
C1934 H1924 0.930 . S
C1934 C1932 1.419 . S
C1934 C1935 1.362 . S
C1935 H1925 0.930 . S
C1935 C1928 1.409 . S
C1935 C1934 1.362 . S
H1936 C1942 0.930 . S
H1937 C1945 0.930 . S
H1938 C1946 0.930 . S
H1939 C1947 0.930 . S
H1940 C1950 0.930 . S
H1941 C1951 0.930 . S
C1942 H1936 0.930 . S
C1942 C1943 1.355 . S
C1942 C1944 1.415 . S
C1943 C1942 1.355 . S
C1943 C1945 1.419 . S
C1944 C1942 1.415 . S
C1944 C1949 1.425 . S
C1944 C1951 1.409 . S
C1945 H1937 0.930 . S
C1945 C1943 1.419 . S
C1945 C1946 1.362 . S
C1946 H1938 0.930 . S
C1946 C1945 1.362 . S
C1946 C1949 1.409 . S
C1947 H1939 0.930 . S
C1947 C1948 1.355 . S
C1947 C1949 1.415 . S
C1948 C1947 1.355 . S
C1948 C1950 1.419 . S
C1949 C1944 1.425 . S
C1949 C1946 1.409 . S
C1949 C1947 1.415 . S
C1950 H1940 0.930 . S
C1950 C1948 1.419 . S
C1950 C1951 1.362 . S
C1951 H1941 0.930 . S
C1951 C1944 1.409 . S
C1951 C1950 1.362 . S
H1952 C1958 0.930 . S
H1953 C1961 0.930 . S
H1954 C1962 0.930 . S
H1955 C1963 0.930 . S
H1956 C1966 0.930 . S
H1957 C1967 0.930 . S
C1958 H1952 0.930 . S
C1958 C1959 1.355 . S
C1958 C1960 1.415 . S
C1959 C1958 1.355 . S
C1959 C1961 1.419 . S
C1960 C1958 1.415 . S
C1960 C1965 1.425 . S
C1960 C1967 1.409 . S
C1961 H1953 0.930 . S
C1961 C1959 1.419 . S
C1961 C1962 1.362 . S
C1962 H1954 0.930 . S
C1962 C1961 1.362 . S
C1962 C1965 1.409 . S
C1963 H1955 0.930 . S
C1963 C1964 1.355 . S
C1963 C1965 1.415 . S
C1964 C1963 1.355 . S
C1964 C1966 1.419 . S
C1965 C1960 1.425 . S
C1965 C1962 1.409 . S
C1965 C1963 1.415 . S
C1966 H1956 0.930 . S
C1966 C1964 1.419 . S
C1966 C1967 1.362 . S
C1967 H1957 0.930 . S
C1967 C1960 1.409 . S
C1967 C1966 1.362 . S
H1968 C1974 0.930 . S
H1969 C1977 0.930 . S
H1970 C1978 0.930 . S
H1971 C1979 0.930 . S
H1972 C1982 0.930 . S
H1973 C1983 0.930 . S
C1974 H1968 0.930 . S
C1974 C1975 1.355 . S
C1974 C1976 1.415 . S
C1975 C1974 1.355 . S
C1975 C1977 1.419 . S
C1976 C1974 1.415 . S
C1976 C1981 1.425 . S
C1976 C1983 1.409 . S
C1977 H1969 0.930 . S
C1977 C1975 1.419 . S
C1977 C1978 1.362 . S
C1978 H1970 0.930 . S
C1978 C1977 1.362 . S
C1978 C1981 1.409 . S
C1979 H1971 0.930 . S
C1979 C1980 1.355 . S
C1979 C1981 1.415 . S
C1980 C1979 1.355 . S
C1980 C1982 1.419 . S
C1981 C1976 1.425 . S
C1981 C1978 1.409 . S
C1981 C1979 1.415 . S
C1982 H1972 0.930 . S
C1982 C1980 1.419 . S
C1982 C1983 1.362 . S
C1983 H1973 0.930 . S
C1983 C1976 1.409 . S
C1983 C1982 1.362 . S
H1984 C1990 0.930 . S
H1985 C1993 0.930 . S
H1986 C1994 0.930 . S
H1987 C1995 0.930 . S
H1988 C1998 0.930 . S
H1989 C1999 0.930 . S
C1990 H1984 0.930 . S
C1990 C1991 1.355 . S
C1990 C1992 1.415 . S
C1991 C1990 1.355 . S
C1991 C1993 1.419 . S
C1992 C1990 1.415 . S
C1992 C1997 1.425 . S
C1992 C1999 1.409 . S
C1993 H1985 0.930 . S
C1993 C1991 1.419 . S
C1993 C1994 1.362 . S
C1994 H1986 0.930 . S
C1994 C1993 1.362 . S
C1994 C1997 1.409 . S
C1995 H1987 0.930 . S
C1995 C1996 1.355 . S
C1995 C1997 1.415 . S
C1996 C1995 1.355 . S
C1996 C1998 1.419 . S
C1997 C1992 1.425 . S
C1997 C1994 1.409 . S
C1997 C1995 1.415 . S
C1998 H1988 0.930 . S
C1998 C1996 1.419 . S
C1998 C1999 1.362 . S
C1999 H1989 0.930 . S
C1999 C1992 1.409 . S
C1999 C1998 1.362 . S
H2000 C2006 0.930 . S
H2001 C2009 0.930 . S
H2002 C2010 0.930 . S
H2003 C2011 0.930 . S
H2004 C2014 0.930 . S
H2005 C2015 0.930 . S
C2006 H2000 0.930 . S
C2006 C2007 1.355 . S
C2006 C2008 1.415 . S
C2007 C2006 1.355 . S
C2007 C2009 1.419 . S
C2008 C2006 1.415 . S
C2008 C2013 1.425 . S
C2008 C2015 1.409 . S
C2009 H2001 0.930 . S
C2009 C2007 1.419 . S
C2009 C2010 1.362 . S
C2010 H2002 0.930 . S
C2010 C2009 1.362 . S
C2010 C2013 1.409 . S
C2011 H2003 0.930 . S
C2011 C2012 1.355 . S
C2011 C2013 1.415 . S
C2012 C2011 1.355 . S
C2012 C2014 1.419 . S
C2013 C2008 1.425 . S
C2013 C2010 1.409 . S
C2013 C2011 1.415 . S
C2014 H2004 0.930 . S
C2014 C2012 1.419 . S
C2014 C2015 1.362 . S
C2015 H2005 0.930 . S
C2015 C2008 1.409 . S
C2015 C2014 1.362 . S
H2016 C2022 0.930 . S
H2017 C2025 0.930 . S
H2018 C2026 0.930 . S
H2019 C2027 0.930 . S
H2020 C2030 0.930 . S
H2021 C2031 0.930 . S
C2022 H2016 0.930 . S
C2022 C2023 1.355 . S
C2022 C2024 1.415 . S
C2023 C2022 1.355 . S
C2023 C2025 1.419 . S
C2024 C2022 1.415 . S
C2024 C2029 1.425 . S
C2024 C2031 1.409 . S
C2025 H2017 0.930 . S
C2025 C2023 1.419 . S
C2025 C2026 1.362 . S
C2026 H2018 0.930 . S
C2026 C2025 1.362 . S
C2026 C2029 1.409 . S
C2027 H2019 0.930 . S
C2027 C2028 1.355 . S
C2027 C2029 1.415 . S
C2028 C2027 1.355 . S
C2028 C2030 1.419 . S
C2029 C2024 1.425 . S
C2029 C2026 1.409 . S
C2029 C2027 1.415 . S
C2030 H2020 0.930 . S
C2030 C2028 1.419 . S
C2030 C2031 1.362 . S
C2031 H2021 0.930 . S
C2031 C2024 1.409 . S
C2031 C2030 1.362 . S
H2032 C2038 0.930 . S
H2033 C2041 0.930 . S
H2034 C2042 0.930 . S
H2035 C2043 0.930 . S
H2036 C2046 0.930 . S
H2037 C2047 0.930 . S
C2038 H2032 0.930 . S
C2038 C2039 1.355 1_545 S
C2038 C2040 1.415 1_545 S
C2039 C2038 1.355 1_565 S
C2039 C2041 1.419 . S
C2040 C2038 1.415 1_565 S
C2040 C2045 1.425 . S
C2040 C2047 1.409 1_565 S
C2041 H2033 0.930 . S
C2041 C2039 1.419 . S
C2041 C2042 1.362 . S
C2042 H2034 0.930 . S
C2042 C2041 1.362 . S
C2042 C2045 1.409 . S
C2043 H2035 0.930 . S
C2043 C2044 1.355 . S
C2043 C2045 1.415 . S
C2044 C2043 1.355 . S
C2044 C2046 1.419 . S
C2045 C2040 1.425 . S
C2045 C2042 1.409 . S
C2045 C2043 1.415 . S
C2046 H2036 0.930 . S
C2046 C2044 1.419 . S
C2046 C2047 1.362 1_565 S
C2047 H2037 0.930 . S
C2047 C2040 1.409 1_545 S
C2047 C2046 1.362 1_545 S
H2048 C2054 0.930 . S
H2049 C2057 0.930 . S
H2050 C2058 0.930 . S
H2051 C2059 0.930 . S
H2052 C2062 0.930 . S
H2053 C2063 0.930 . S
C2054 H2048 0.930 . S
C2054 C2055 1.355 . S
C2054 C2056 1.415 . S
C2055 C2054 1.355 . S
C2055 C2057 1.419 . S
C2056 C2054 1.415 . S
C2056 C2061 1.425 . S
C2056 C2063 1.409 1_455 S
C2057 H2049 0.930 . S
C2057 C2055 1.419 . S
C2057 C2058 1.362 . S
C2058 H2050 0.930 . S
C2058 C2057 1.362 . S
C2058 C2061 1.409 . S
C2059 H2051 0.930 . S
C2059 C2060 1.355 1_455 S
C2059 C2061 1.415 . S
C2060 C2059 1.355 1_655 S
C2060 C2062 1.419 . S
C2061 C2056 1.425 . S
C2061 C2058 1.409 . S
C2061 C2059 1.415 . S
C2062 H2052 0.930 . S
C2062 C2060 1.419 . S
C2062 C2063 1.362 . S
C2063 H2053 0.930 . S
C2063 C2056 1.409 1_655 S
C2063 C2062 1.362 . S
H2064 C2070 0.930 . S
H2065 C2073 0.930 . S
H2066 C2074 0.930 . S
H2067 C2075 0.930 . S
H2068 C2078 0.930 . S
H2069 C2079 0.930 . S
C2070 H2064 0.930 . S
C2070 C2071 1.355 . S
C2070 C2072 1.415 . S
C2071 C2070 1.355 . S
C2071 C2073 1.419 . S
C2072 C2070 1.415 . S
C2072 C2077 1.425 . S
C2072 C2079 1.409 . S
C2073 H2065 0.930 . S
C2073 C2071 1.419 . S
C2073 C2074 1.362 . S
C2074 H2066 0.930 . S
C2074 C2073 1.362 . S
C2074 C2077 1.409 . S
C2075 H2067 0.930 . S
C2075 C2076 1.355 . S
C2075 C2077 1.415 . S
C2076 C2075 1.355 . S
C2076 C2078 1.419 . S
C2077 C2072 1.425 . S
C2077 C2074 1.409 . S
C2077 C2075 1.415 . S
C2078 H2068 0.930 . S
C2078 C2076 1.419 . S
C2078 C2079 1.362 . S
C2079 H2069 0.930 . S
C2079 C2072 1.409 . S
C2079 C2078 1.362 . S
H2080 C2086 0.930 . S
H2081 C2089 0.930 . S
H2082 C2090 0.930 . S
H2083 C2091 0.930 . S
H2084 C2094 0.930 . S
H2085 C2095 0.930 . S
C2086 H2080 0.930 . S
C2086 C2087 1.355 1_565 S
C2086 C2088 1.415 1_565 S
C2087 C2086 1.355 1_545 S
C2087 C2089 1.419 . S
C2088 C2086 1.415 1_545 S
C2088 C2093 1.425 . S
C2088 C2095 1.409 1_545 S
C2089 H2081 0.930 . S
C2089 C2087 1.419 . S
C2089 C2090 1.362 . S
C2090 H2082 0.930 . S
C2090 C2089 1.362 . S
C2090 C2093 1.409 . S
C2091 H2083 0.930 . S
C2091 C2092 1.355 . S
C2091 C2093 1.415 . S
C2092 C2091 1.355 . S
C2092 C2094 1.419 . S
C2093 C2088 1.425 . S
C2093 C2090 1.409 . S
C2093 C2091 1.415 . S
C2094 H2084 0.930 . S
C2094 C2092 1.419 . S
C2094 C2095 1.362 1_545 S
C2095 H2085 0.930 . S
C2095 C2088 1.409 1_565 S
C2095 C2094 1.362 1_565 S
H2096 C2102 0.930 . S
H2097 C2105 0.930 . S
H2098 C2106 0.930 . S
H2099 C2107 0.930 . S
H2100 C2110 0.930 . S
H2101 C2111 0.930 . S
C2102 H2096 0.930 . S
C2102 C2103 1.355 . S
C2102 C2104 1.415 . S
C2103 C2102 1.355 . S
C2103 C2105 1.419 . S
C2104 C2102 1.415 . S
C2104 C2109 1.425 . S
C2104 C2111 1.409 . S
C2105 H2097 0.930 . S
C2105 C2103 1.419 . S
C2105 C2106 1.362 . S
C2106 H2098 0.930 . S
C2106 C2105 1.362 . S
C2106 C2109 1.409 . S
C2107 H2099 0.930 . S
C2107 C2108 1.373 . S
C2107 C2109 1.415 . S
C2108 C2107 1.373 . S
C2108 C2110 1.423 1_655 S
C2109 C2104 1.425 . S
C2109 C2106 1.409 . S
C2109 C2107 1.415 . S
C2110 H2100 0.930 . S
C2110 C2108 1.423 1_455 S
C2110 C2111 1.362 1_455 S
C2111 H2101 0.930 . S
C2111 C2104 1.409 . S
C2111 C2110 1.362 1_655 S
H2112 C2118 0.930 . S
H2113 C2121 0.930 . S
H2114 C2122 0.930 . S
H2115 C2123 0.930 . S
H2116 C2126 0.930 . S
H2117 C2127 0.930 . S
C2118 H2112 0.930 . S
C2118 C2119 1.355 . S
C2118 C2120 1.415 . S
C2119 C2118 1.355 . S
C2119 C2121 1.419 . S
C2120 C2118 1.415 . S
C2120 C2125 1.425 . S
C2120 C2127 1.409 . S
C2121 H2113 0.930 . S
C2121 C2119 1.419 . S
C2121 C2122 1.362 . S
C2122 H2114 0.930 . S
C2122 C2121 1.362 . S
C2122 C2125 1.409 . S
C2123 H2115 0.930 . S
C2123 C2124 1.355 . S
C2123 C2125 1.415 . S
C2124 C2123 1.355 . S
C2124 C2126 1.419 . S
C2125 C2120 1.425 . S
C2125 C2122 1.409 . S
C2125 C2123 1.415 . S
C2126 H2116 0.930 . S
C2126 C2124 1.419 . S
C2126 C2127 1.362 . S
C2127 H2117 0.930 . S
C2127 C2120 1.409 . S
C2127 C2126 1.362 . S
H2128 C2134 0.930 . S
H2129 C2137 0.930 . S
H2130 C2138 0.930 . S
H2131 C2139 0.930 . S
H2132 C2142 0.930 . S
H2133 C2143 0.930 . S
C2134 H2128 0.930 . S
C2134 C2135 1.355 . S
C2134 C2136 1.415 . S
C2135 C2134 1.355 . S
C2135 C2137 1.419 . S
C2136 C2134 1.415 . S
C2136 C2141 1.425 . S
C2136 C2143 1.409 1_545 S
C2137 H2129 0.930 . S
C2137 C2135 1.419 . S
C2137 C2138 1.362 . S
C2138 H2130 0.930 . S
C2138 C2137 1.362 . S
C2138 C2141 1.409 . S
C2139 H2131 0.930 . S
C2139 C2140 1.355 1_545 S
C2139 C2141 1.415 . S
C2140 C2139 1.355 1_565 S
C2140 C2142 1.419 . S
C2141 C2136 1.425 . S
C2141 C2138 1.409 . S
C2141 C2139 1.415 . S
C2142 H2132 0.930 . S
C2142 C2140 1.419 . S
C2142 C2143 1.362 . S
C2143 H2133 0.930 . S
C2143 C2136 1.409 1_565 S
C2143 C2142 1.362 . S
H2144 C2150 0.930 . S
H2145 C2153 0.930 . S
H2146 C2154 0.930 1_455 S
H2147 C2155 0.930 . S
H2148 C2158 0.930 . S
H2149 C2159 0.930 . S
C2150 H2144 0.930 . S
C2150 C2151 1.355 . S
C2150 C2152 1.415 . S
C2151 C2150 1.355 . S
C2151 C2153 1.419 . S
C2152 C2150 1.415 . S
C2152 C2157 1.425 . S
C2152 C2159 1.409 . S
C2153 H2145 0.930 . S
C2153 C2151 1.419 . S
C2153 C2154 1.362 . S
C2154 H2146 0.930 1_655 S
C2154 C2153 1.362 . S
C2154 C2157 1.409 . S
C2155 H2147 0.930 . S
C2155 C2156 1.355 1_455 S
C2155 C2157 1.415 1_455 S
C2156 C2155 1.355 1_655 S
C2156 C2158 1.419 . S
C2157 C2152 1.425 . S
C2157 C2154 1.409 . S
C2157 C2155 1.415 1_655 S
C2158 H2148 0.930 . S
C2158 C2156 1.419 . S
C2158 C2159 1.362 . S
C2159 H2149 0.930 . S
C2159 C2152 1.409 . S
C2159 C2158 1.362 . S
H2160 C2166 0.930 . S
H2161 C2169 0.930 . S
H2162 C2170 0.930 . S
H2163 C2171 0.930 . S
H2164 C2174 0.930 . S
H2165 C2175 0.930 . S
C2166 H2160 0.930 . S
C2166 C2167 1.355 . S
C2166 C2168 1.415 . S
C2167 C2166 1.355 . S
C2167 C2169 1.419 . S
C2168 C2166 1.415 . S
C2168 C2173 1.425 . S
C2168 C2175 1.409 . S
C2169 H2161 0.930 . S
C2169 C2167 1.419 . S
C2169 C2170 1.362 . S
C2170 H2162 0.930 . S
C2170 C2169 1.362 . S
C2170 C2173 1.409 . S
C2171 H2163 0.930 . S
C2171 C2172 1.355 . S
C2171 C2173 1.415 . S
C2172 C2171 1.355 . S
C2172 C2174 1.419 . S
C2173 C2168 1.425 . S
C2173 C2170 1.409 . S
C2173 C2171 1.415 . S
C2174 H2164 0.930 . S
C2174 C2172 1.419 . S
C2174 C2175 1.362 . S
C2175 H2165 0.930 . S
C2175 C2168 1.409 . S
C2175 C2174 1.362 . S
H2176 C2182 0.930 . S
H2177 C2185 0.930 . S
H2178 C2186 0.930 . S
H2179 C2187 0.930 . S
H2180 C2190 0.930 . S
H2181 C2191 0.930 . S
C2182 H2176 0.930 . S
C2182 C2183 1.355 1_545 S
C2182 C2184 1.415 1_545 S
C2183 C2182 1.355 1_565 S
C2183 C2185 1.419 . S
C2184 C2182 1.415 1_565 S
C2184 C2189 1.425 . S
C2184 C2191 1.409 1_565 S
C2185 H2177 0.930 . S
C2185 C2183 1.419 . S
C2185 C2186 1.362 . S
C2186 H2178 0.930 . S
C2186 C2185 1.362 . S
C2186 C2189 1.409 . S
C2187 H2179 0.930 . S
C2187 C2188 1.355 . S
C2187 C2189 1.415 . S
C2188 C2187 1.355 . S
C2188 C2190 1.419 . S
C2189 C2184 1.425 . S
C2189 C2186 1.409 . S
C2189 C2187 1.415 . S
C2190 H2180 0.930 . S
C2190 C2188 1.419 . S
C2190 C2191 1.362 1_565 S
C2191 H2181 0.930 . S
C2191 C2184 1.409 1_545 S
C2191 C2190 1.362 1_545 S
H2192 C2198 0.930 . S
H2193 C2201 0.930 . S
H2194 C2202 0.930 . S
H2195 C2203 0.930 . S
H2196 C2206 0.930 . S
H2197 C2207 0.930 . S
C2198 H2192 0.930 . S
C2198 C2199 1.355 1_455 S
C2198 C2200 1.415 . S
C2199 C2198 1.355 1_655 S
C2199 C2201 1.419 . S
C2200 C2198 1.415 . S
C2200 C2205 1.425 . S
C2200 C2207 1.409 . S
C2201 H2193 0.930 . S
C2201 C2199 1.419 . S
C2201 C2202 1.362 1_655 S
C2202 H2194 0.930 . S
C2202 C2201 1.362 1_455 S
C2202 C2205 1.409 . S
C2203 H2195 0.930 . S
C2203 C2204 1.355 . S
C2203 C2205 1.415 . S
C2204 C2203 1.355 . S
C2204 C2206 1.419 . S
C2205 C2200 1.425 . S
C2205 C2202 1.409 . S
C2205 C2203 1.415 . S
C2206 H2196 0.930 . S
C2206 C2204 1.419 . S
C2206 C2207 1.362 . S
C2207 H2197 0.930 . S
C2207 C2200 1.409 . S
C2207 C2206 1.362 . S
H2208 C2214 0.930 . S
H2209 C2217 0.930 . S
H2210 C2218 0.930 . S
H2211 C2219 0.930 . S
H2212 C2222 0.930 . S
H2213 C2223 0.930 . S
C2214 H2208 0.930 . S
C2214 C2215 1.355 . S
C2214 C2216 1.415 1_655 S
C2215 C2214 1.355 . S
C2215 C2217 1.419 . S
C2216 C2214 1.415 1_455 S
C2216 C2221 1.425 . S
C2216 C2223 1.409 . S
C2217 H2209 0.930 . S
C2217 C2215 1.419 . S
C2217 C2218 1.362 1_655 S
C2218 H2210 0.930 . S
C2218 C2217 1.362 1_455 S
C2218 C2221 1.409 . S
C2219 H2211 0.930 . S
C2219 C2220 1.355 . S
C2219 C2221 1.415 . S
C2220 C2219 1.355 . S
C2220 C2222 1.419 . S
C2221 C2216 1.425 . S
C2221 C2218 1.409 . S
C2221 C2219 1.415 . S
C2222 H2212 0.930 . S
C2222 C2220 1.419 . S
C2222 C2223 1.362 . S
C2223 H2213 0.930 . S
C2223 C2216 1.409 . S
C2223 C2222 1.362 . S
H2224 C2230 0.930 . S
H2225 C2233 0.930 . S
H2226 C2234 0.930 . S
H2227 C2235 0.930 . S
H2228 C2238 0.930 . S
H2229 C2239 0.930 . S
C2230 H2224 0.930 . S
C2230 C2231 1.355 . S
C2230 C2232 1.415 . S
C2231 C2230 1.355 . S
C2231 C2233 1.419 . S
C2232 C2230 1.415 . S
C2232 C2237 1.425 . S
C2232 C2239 1.409 . S
C2233 H2225 0.930 . S
C2233 C2231 1.419 . S
C2233 C2234 1.362 . S
C2234 H2226 0.930 . S
C2234 C2233 1.362 . S
C2234 C2237 1.409 . S
C2235 H2227 0.930 . S
C2235 C2236 1.355 . S
C2235 C2237 1.415 . S
C2236 C2235 1.355 . S
C2236 C2238 1.419 . S
C2237 C2232 1.425 . S
C2237 C2234 1.409 . S
C2237 C2235 1.415 . S
C2238 H2228 0.930 . S
C2238 C2236 1.419 . S
C2238 C2239 1.362 . S
C2239 H2229 0.930 . S
C2239 C2232 1.409 . S
C2239 C2238 1.362 . S
H2240 C2246 0.930 . S
H2241 C2249 0.930 . S
H2242 C2250 0.930 . S
H2243 C2251 0.930 . S
H2244 C2254 0.930 . S
H2245 C2255 0.941 . S
C2246 H2240 0.930 . S
C2246 C2247 1.355 . S
C2246 C2248 1.415 . S
C2247 C2246 1.355 . S
C2247 C2249 1.419 . S
C2248 C2246 1.415 . S
C2248 C2253 1.425 . S
C2248 C2255 1.414 . S
C2249 H2241 0.930 . S
C2249 C2247 1.419 . S
C2249 C2250 1.362 . S
C2250 H2242 0.930 . S
C2250 C2249 1.362 . S
C2250 C2253 1.409 . S
C2251 H2243 0.930 . S
C2251 C2252 1.355 . S
C2251 C2253 1.415 1_545 S
C2252 C2251 1.355 . S
C2252 C2254 1.419 . S
C2253 C2248 1.425 . S
C2253 C2250 1.409 . S
C2253 C2251 1.415 1_565 S
C2254 H2244 0.930 . S
C2254 C2252 1.419 . S
C2254 C2255 1.347 1_545 S
C2255 H2245 0.941 . S
C2255 C2248 1.414 . S
C2255 C2254 1.347 1_565 S
H2256 C2262 0.930 . S
H2257 C2265 0.930 . S
H2258 C2266 0.930 . S
H2259 C2267 0.930 . S
H2260 C2270 0.930 . S
H2261 C2271 0.930 1_655 S
C2262 H2256 0.930 . S
C2262 C2263 1.355 . S
C2262 C2264 1.415 . S
C2263 C2262 1.355 . S
C2263 C2265 1.419 . S
C2264 C2262 1.415 . S
C2264 C2269 1.425 . S
C2264 C2271 1.409 . S
C2265 H2257 0.930 . S
C2265 C2263 1.419 . S
C2265 C2266 1.362 . S
C2266 H2258 0.930 . S
C2266 C2265 1.362 . S
C2266 C2269 1.409 . S
C2267 H2259 0.930 . S
C2267 C2268 1.355 . S
C2267 C2269 1.415 . S
C2268 C2267 1.355 . S
C2268 C2270 1.419 1_455 S
C2269 C2264 1.425 . S
C2269 C2266 1.409 . S
C2269 C2267 1.415 . S
C2270 H2260 0.930 . S
C2270 C2268 1.419 1_655 S
C2270 C2271 1.362 1_655 S
C2271 H2261 0.930 1_455 S
C2271 C2264 1.409 . S
C2271 C2270 1.362 1_455 S
H2272 C2278 0.930 . S
H2273 C2281 0.930 . S
H2274 C2282 0.930 . S
H2275 C2283 0.930 . S
H2276 C2286 0.930 . S
H2277 C2287 0.930 . S
C2278 H2272 0.930 . S
C2278 C2279 1.355 . S
C2278 C2280 1.415 . S
C2279 C2278 1.355 . S
C2279 C2281 1.419 . S
C2280 C2278 1.415 . S
C2280 C2285 1.425 . S
C2280 C2287 1.409 . S
C2281 H2273 0.930 . S
C2281 C2279 1.419 . S
C2281 C2282 1.362 . S
C2282 H2274 0.930 . S
C2282 C2281 1.362 . S
C2282 C2285 1.409 . S
C2283 H2275 0.930 . S
C2283 C2284 1.355 . S
C2283 C2285 1.415 . S
C2284 C2283 1.355 . S
C2284 C2286 1.419 . S
C2285 C2280 1.425 . S
C2285 C2282 1.409 . S
C2285 C2283 1.415 . S
C2286 H2276 0.930 . S
C2286 C2284 1.419 . S
C2286 C2287 1.362 . S
C2287 H2277 0.930 . S
C2287 C2280 1.409 . S
C2287 C2286 1.362 . S
H2288 C2294 0.930 . S
H2289 C2297 0.930 . S
H2290 C2298 0.930 . S
H2291 C2299 0.930 1_545 S
H2292 C2302 0.930 . S
H2293 C2303 0.930 . S
C2294 H2288 0.930 . S
C2294 C2295 1.355 . S
C2294 C2296 1.415 . S
C2295 C2294 1.355 . S
C2295 C2297 1.419 . S
C2296 C2294 1.415 . S
C2296 C2301 1.425 . S
C2296 C2303 1.409 . S
C2297 H2289 0.930 . S
C2297 C2295 1.419 . S
C2297 C2298 1.362 . S
C2298 H2290 0.930 . S
C2298 C2297 1.362 . S
C2298 C2301 1.409 . S
C2299 H2291 0.930 1_565 S
C2299 C2300 1.355 . S
C2299 C2301 1.415 . S
C2300 C2299 1.355 . S
C2300 C2302 1.419 . S
C2301 C2296 1.425 . S
C2301 C2298 1.409 . S
C2301 C2299 1.415 . S
C2302 H2292 0.930 . S
C2302 C2300 1.419 . S
C2302 C2303 1.362 . S
C2303 H2293 0.930 . S
C2303 C2296 1.409 . S
C2303 C2302 1.362 . S
H2304 C2310 0.930 . S
H2305 C2313 0.930 . S
H2306 C2314 0.930 . S
H2307 C2315 0.930 . S
H2308 C2318 0.930 . S
H2309 C2319 0.930 1_545 S
C2310 H2304 0.930 . S
C2310 C2311 1.355 . S
C2310 C2312 1.415 . S
C2311 C2310 1.355 . S
C2311 C2313 1.419 . S
C2312 C2310 1.415 . S
C2312 C2317 1.425 . S
C2312 C2319 1.409 . S
C2313 H2305 0.930 . S
C2313 C2311 1.419 . S
C2313 C2314 1.362 . S
C2314 H2306 0.930 . S
C2314 C2313 1.362 . S
C2314 C2317 1.409 . S
C2315 H2307 0.930 . S
C2315 C2316 1.355 . S
C2315 C2317 1.415 . S
C2316 C2315 1.355 . S
C2316 C2318 1.419 1_565 S
C2317 C2312 1.425 . S
C2317 C2314 1.409 . S
C2317 C2315 1.415 . S
C2318 H2308 0.930 . S
C2318 C2316 1.419 1_545 S
C2318 C2319 1.362 1_545 S
C2319 H2309 0.930 1_565 S
C2319 C2312 1.409 . S
C2319 C2318 1.362 1_565 S
H2320 C2326 0.930 . S
H2321 C2329 0.930 . S
H2322 C2330 0.932 . S
H2323 C2331 0.930 . S
H2324 C2334 0.930 . S
H2325 C2335 0.930 . S
C2326 H2320 0.930 . S
C2326 C2327 1.355 . S
C2326 C2328 1.415 . S
C2327 C2326 1.355 . S
C2327 C2329 1.419 1_455 S
C2328 C2326 1.415 . S
C2328 C2333 1.425 . S
C2328 C2335 1.409 . S
C2329 H2321 0.930 . S
C2329 C2327 1.419 1_655 S
C2329 C2330 1.376 . S
C2330 H2322 0.932 . S
C2330 C2329 1.376 . S
C2330 C2333 1.394 1_655 S
C2331 H2323 0.930 . S
C2331 C2332 1.355 . S
C2331 C2333 1.415 . S
C2332 C2331 1.355 . S
C2332 C2334 1.419 . S
C2333 C2328 1.425 . S
C2333 C2330 1.394 1_455 S
C2333 C2331 1.415 . S
C2334 H2324 0.930 . S
C2334 C2332 1.419 . S
C2334 C2335 1.362 . S
C2335 H2325 0.930 . S
C2335 C2328 1.409 . S
C2335 C2334 1.362 . S
H2336 C2342 0.930 . S
H2337 C2345 0.930 . S
H2338 C2346 0.930 . S
H2339 C2347 0.930 . S
H2340 C2350 0.930 . S
H2341 C2351 0.930 . S
C2342 H2336 0.930 . S
C2342 C2343 1.355 . S
C2342 C2344 1.415 . S
C2343 C2342 1.355 . S
C2343 C2345 1.419 . S
C2344 C2342 1.415 . S
C2344 C2349 1.425 . S
C2344 C2351 1.409 . S
C2345 H2337 0.930 . S
C2345 C2343 1.419 . S
C2345 C2346 1.362 . S
C2346 H2338 0.930 . S
C2346 C2345 1.362 . S
C2346 C2349 1.409 . S
C2347 H2339 0.930 . S
C2347 C2348 1.355 . S
C2347 C2349 1.415 . S
C2348 C2347 1.355 . S
C2348 C2350 1.419 . S
C2349 C2344 1.425 . S
C2349 C2346 1.409 . S
C2349 C2347 1.415 . S
C2350 H2340 0.930 . S
C2350 C2348 1.419 . S
C2350 C2351 1.362 . S
C2351 H2341 0.930 . S
C2351 C2344 1.409 . S
C2351 C2350 1.362 . S
H2352 C2358 0.928 1_554 S
H2353 C2361 0.930 . S
H2354 C2362 0.930 . S
H2355 C2363 0.930 . S
H2356 C2366 0.930 . S
H2357 C2367 0.942 1_565 S
C2358 H2352 0.928 1_556 S
C2358 C2359 1.354 . S
C2358 C2360 1.418 . S
C2359 C2358 1.354 . S
C2359 C2361 1.420 . S
C2360 C2358 1.418 . S
C2360 C2365 1.425 . S
C2360 C2367 1.409 1_565 S
C2361 H2353 0.930 . S
C2361 C2359 1.420 . S
C2361 C2362 1.362 . S
C2362 H2354 0.930 . S
C2362 C2361 1.362 . S
C2362 C2365 1.409 . S
C2363 H2355 0.930 . S
C2363 C2364 1.355 . S
C2363 C2365 1.415 1_545 S
C2364 C2363 1.355 . S
C2364 C2366 1.419 . S
C2365 C2360 1.425 . S
C2365 C2362 1.409 . S
C2365 C2363 1.415 1_565 S
C2366 H2356 0.930 . S
C2366 C2364 1.419 . S
C2366 C2367 1.362 . S
C2367 H2357 0.942 1_545 S
C2367 C2360 1.409 1_545 S
C2367 C2366 1.362 . S
H2368 C2374 0.930 . S
H2369 C2377 0.930 . S
H2370 C2378 0.930 . S
H2371 C2379 0.930 . S
H2372 C2382 0.930 . S
H2373 C2383 0.930 . S
C2374 H2368 0.930 . S
C2374 C2375 1.301 1_554 S
C2374 C2376 1.415 . S
C2375 C2374 1.301 1_556 S
C2375 C2377 1.500 . S
C2376 C2374 1.415 . S
C2376 C2381 1.425 1_554 S
C2376 C2383 1.409 1_455 S
C2377 H2369 0.930 . S
C2377 C2375 1.500 . S
C2377 C2378 1.362 . S
C2378 H2370 0.930 . S
C2378 C2377 1.362 . S
C2378 C2381 1.409 . S
C2379 H2371 0.930 . S
C2379 C2380 1.355 . S
C2379 C2381 1.415 1_655 S
C2380 C2379 1.355 . S
C2380 C2382 1.419 1_556 S
C2381 C2376 1.425 1_556 S
C2381 C2378 1.409 . S
C2381 C2379 1.415 1_455 S
C2382 H2372 0.930 . S
C2382 C2380 1.419 1_554 S
C2382 C2383 1.362 . S
C2383 H2373 0.930 . S
C2383 C2376 1.409 1_655 S
C2383 C2382 1.362 . S
H2384 C2390 0.930 . S
H2385 C2393 0.930 . S
H2386 C2394 0.926 1_554 S
H2387 C2395 0.966 . S
H2388 C2398 0.930 . S
H2389 C2399 0.930 . S
C2390 H2384 0.930 . S
C2390 C2391 1.355 . S
C2390 C2392 1.415 . S
C2391 C2390 1.355 . S
C2391 C2393 1.419 . S
C2392 C2390 1.415 . S
C2392 C2397 1.450 . S
C2392 C2399 1.409 . S
C2393 H2385 0.930 . S
C2393 C2391 1.419 . S
C2393 C2394 1.366 . S
C2394 H2386 0.926 1_556 S
C2394 C2393 1.366 . S
C2394 C2397 1.407 . S
C2395 H2387 0.966 . S
C2395 C2396 1.350 . S
C2395 C2397 1.395 1_554 S
C2396 C2395 1.350 . S
C2396 C2398 1.419 1_554 S
C2397 C2392 1.450 . S
C2397 C2394 1.407 . S
C2397 C2395 1.395 1_556 S
C2398 H2388 0.930 . S
C2398 C2396 1.419 1_556 S
C2398 C2399 1.362 . S
C2399 H2389 0.930 . S
C2399 C2392 1.409 . S
C2399 C2398 1.362 . S
H2400 C2406 0.930 . S
H2401 C2409 0.930 . S
H2402 C2410 0.930 . S
H2403 C2411 0.930 1_565 S
H2404 C2414 0.930 . S
H2405 C2415 0.930 . S
C2406 H2400 0.930 . S
C2406 C2407 1.355 . S
C2406 C2408 1.415 . S
C2407 C2406 1.355 . S
C2407 C2409 1.419 . S
C2408 C2406 1.415 . S
C2408 C2413 1.425 . S
C2408 C2415 1.409 . S
C2409 H2401 0.930 . S
C2409 C2407 1.419 . S
C2409 C2410 1.362 . S
C2410 H2402 0.930 . S
C2410 C2409 1.362 . S
C2410 C2413 1.409 . S
C2411 H2403 0.930 1_545 S
C2411 C2412 1.355 . S
C2411 C2413 1.415 . S
C2412 C2411 1.355 . S
C2412 C2414 1.419 . S
C2413 C2408 1.425 . S
C2413 C2410 1.409 . S
C2413 C2411 1.415 . S
C2414 H2404 0.930 . S
C2414 C2412 1.419 . S
C2414 C2415 1.362 . S
C2415 H2405 0.930 . S
C2415 C2408 1.409 . S
C2415 C2414 1.362 . S
H2416 C2422 0.930 . S
H2417 C2425 0.930 . S
H2418 C2426 0.930 . S
H2419 C2427 0.930 . S
H2420 C2430 0.930 . S
H2421 C2431 0.929 1_455 S
C2422 H2416 0.930 . S
C2422 C2423 1.355 . S
C2422 C2424 1.415 . S
C2423 C2422 1.355 . S
C2423 C2425 1.419 . S
C2424 C2422 1.415 . S
C2424 C2429 1.425 . S
C2424 C2431 1.435 . S
C2425 H2417 0.930 . S
C2425 C2423 1.419 . S
C2425 C2426 1.362 . S
C2426 H2418 0.930 . S
C2426 C2425 1.362 . S
C2426 C2429 1.409 . S
C2427 H2419 0.930 . S
C2427 C2428 1.355 . S
C2427 C2429 1.415 . S
C2428 C2427 1.355 . S
C2428 C2430 1.419 1_655 S
C2429 C2424 1.425 . S
C2429 C2426 1.409 . S
C2429 C2427 1.415 . S
C2430 H2420 0.930 . S
C2430 C2428 1.419 1_455 S
C2430 C2431 1.339 1_455 S
C2431 H2421 0.929 1_655 S
C2431 C2424 1.435 . S
C2431 C2430 1.339 1_655 S
H2432 C2438 0.930 . S
H2433 C2441 0.930 . S
H2434 C2442 0.930 . S
H2435 C2443 0.930 . S
H2436 C2446 0.930 . S
H2437 C2447 0.930 . S
C2438 H2432 0.930 . S
C2438 C2439 1.355 . S
C2438 C2440 1.415 . S
C2439 C2438 1.355 . S
C2439 C2441 1.419 . S
C2440 C2438 1.415 . S
C2440 C2445 1.425 . S
C2440 C2447 1.409 . S
C2441 H2433 0.930 . S
C2441 C2439 1.419 . S
C2441 C2442 1.362 . S
C2442 H2434 0.930 . S
C2442 C2441 1.362 . S
C2442 C2445 1.409 . S
C2443 H2435 0.930 . S
C2443 C2444 1.355 . S
C2443 C2445 1.415 . S
C2444 C2443 1.355 . S
C2444 C2446 1.419 . S
C2445 C2440 1.425 . S
C2445 C2442 1.409 . S
C2445 C2443 1.415 . S
C2446 H2436 0.930 . S
C2446 C2444 1.419 . S
C2446 C2447 1.362 . S
C2447 H2437 0.930 . S
C2447 C2440 1.409 . S
C2447 C2446 1.362 . S
H2448 C2454 0.930 . S
H2449 C2457 0.930 . S
H2450 C2458 0.930 . S
H2451 C2459 0.930 . S
H2452 C2462 0.930 . S
H2453 C2463 0.943 . S
C2454 H2448 0.930 . S
C2454 C2455 1.355 . S
C2454 C2456 1.415 1_565 S
C2455 C2454 1.355 . S
C2455 C2457 1.419 . S
C2456 C2454 1.415 1_545 S
C2456 C2461 1.425 . S
C2456 C2463 1.395 1_554 S
C2457 H2449 0.930 . S
C2457 C2455 1.419 . S
C2457 C2458 1.362 1_565 S
C2458 H2450 0.930 . S
C2458 C2457 1.362 1_545 S
C2458 C2461 1.409 . S
C2459 H2451 0.930 . S
C2459 C2460 1.347 1_554 S
C2459 C2461 1.415 . S
C2460 C2459 1.347 1_556 S
C2460 C2462 1.424 . S
C2461 C2456 1.425 . S
C2461 C2458 1.409 . S
C2461 C2459 1.415 . S
C2462 H2452 0.930 . S
C2462 C2460 1.424 . S
C2462 C2463 1.371 . S
C2463 H2453 0.943 . S
C2463 C2456 1.395 1_556 S
C2463 C2462 1.371 . S
H2464 C2470 0.930 . S
H2465 C2473 0.930 . S
H2466 C2474 0.930 . S
H2467 C2475 0.930 . S
H2468 C2478 0.916 1_556 S
H2469 C2479 0.941 . S
C2470 H2464 0.930 . S
C2470 C2471 1.357 . S
C2470 C2472 1.417 1_556 S
C2471 C2470 1.357 . S
C2471 C2473 1.414 1_556 S
C2472 C2470 1.417 1_554 S
C2472 C2477 1.421 . S
C2472 C2479 1.411 1_654 S
C2473 H2465 0.930 . S
C2473 C2471 1.414 1_554 S
C2473 C2474 1.362 . S
C2474 H2466 0.930 . S
C2474 C2473 1.362 . S
C2474 C2477 1.409 . S
C2475 H2467 0.930 . S
C2475 C2476 1.355 . S
C2475 C2477 1.415 1_455 S
C2476 C2475 1.355 . S
C2476 C2478 1.426 . S
C2477 C2472 1.421 . S
C2477 C2474 1.409 . S
C2477 C2475 1.415 1_655 S
C2478 H2468 0.916 1_554 S
C2478 C2476 1.426 . S
C2478 C2479 1.359 1_554 S
C2479 H2469 0.941 . S
C2479 C2472 1.411 1_456 S
C2479 C2478 1.359 1_556 S
H2480 C2486 0.930 . S
H2481 C2489 0.930 . S
H2482 C2490 0.930 . S
H2483 C2491 0.930 . S
H2484 C2494 0.930 . S
H2485 C2495 0.930 . S
C2486 H2480 0.930 . S
C2486 C2487 1.355 . S
C2486 C2488 1.415 . S
C2487 C2486 1.355 . S
C2487 C2489 1.419 1_554 S
C2488 C2486 1.415 . S
C2488 C2493 1.425 1_554 S
C2488 C2495 1.409 . S
C2489 H2481 0.930 . S
C2489 C2487 1.419 1_556 S
C2489 C2490 1.362 . S
C2490 H2482 0.930 . S
C2490 C2489 1.362 . S
C2490 C2493 1.409 . S
C2491 H2483 0.930 . S
C2491 C2492 1.277 1_556 S
C2491 C2493 1.415 . S
C2492 C2491 1.277 1_554 S
C2492 C2494 1.535 . S
C2493 C2488 1.425 1_556 S
C2493 C2490 1.409 . S
C2493 C2491 1.415 . S
C2494 H2484 0.930 . S
C2494 C2492 1.535 . S
C2494 C2495 1.362 . S
C2495 H2485 0.930 . S
C2495 C2488 1.409 . S
C2495 C2494 1.362 . S
H2496 C2502 0.930 . S
H2497 C2505 0.930 . S
H2498 C2506 0.930 . S
H2499 C2507 0.930 . S
H2500 C2510 0.930 . S
H2501 C2511 0.930 . S
C2502 H2496 0.930 . S
C2502 C2503 1.355 . S
C2502 C2504 1.415 1_455 S
C2503 C2502 1.355 . S
C2503 C2505 1.419 . S
C2504 C2502 1.415 1_655 S
C2504 C2509 1.425 . S
C2504 C2511 1.409 . S
C2505 H2497 0.930 . S
C2505 C2503 1.419 . S
C2505 C2506 1.362 1_455 S
C2506 H2498 0.930 . S
C2506 C2505 1.362 1_655 S
C2506 C2509 1.409 . S
C2507 H2499 0.930 . S
C2507 C2508 1.355 . S
C2507 C2509 1.415 . S
C2508 C2507 1.355 . S
C2508 C2510 1.419 . S
C2509 C2504 1.425 . S
C2509 C2506 1.409 . S
C2509 C2507 1.415 . S
C2510 H2500 0.930 . S
C2510 C2508 1.419 . S
C2510 C2511 1.362 . S
C2511 H2501 0.930 . S
C2511 C2504 1.409 . S
C2511 C2510 1.362 . S
H2512 C2518 0.930 . S
H2513 C2521 0.930 . S
H2514 C2522 0.930 . S
H2515 C2523 0.930 . S
H2516 C2526 0.930 . S
H2517 C2527 0.930 . S
C2518 H2512 0.930 . S
C2518 C2519 1.355 . S
C2518 C2520 1.415 . S
C2519 C2518 1.355 . S
C2519 C2521 1.419 . S
C2520 C2518 1.415 . S
C2520 C2525 1.425 . S
C2520 C2527 1.409 . S
C2521 H2513 0.930 . S
C2521 C2519 1.419 . S
C2521 C2522 1.362 . S
C2522 H2514 0.930 . S
C2522 C2521 1.362 . S
C2522 C2525 1.409 . S
C2523 H2515 0.930 . S
C2523 C2524 1.355 . S
C2523 C2525 1.415 . S
C2524 C2523 1.355 . S
C2524 C2526 1.419 . S
C2525 C2520 1.425 . S
C2525 C2522 1.409 . S
C2525 C2523 1.415 . S
C2526 H2516 0.930 . S
C2526 C2524 1.419 . S
C2526 C2527 1.362 . S
C2527 H2517 0.930 . S
C2527 C2520 1.409 . S
C2527 C2526 1.362 . S
H2528 C2534 0.930 . S
H2529 C2537 0.930 . S
H2530 C2538 0.930 1_545 S
H2531 C2539 0.930 . S
H2532 C2542 0.930 . S
H2533 C2543 0.930 . S
C2534 H2528 0.930 . S
C2534 C2535 1.355 . S
C2534 C2536 1.415 1_565 S
C2535 C2534 1.355 . S
C2535 C2537 1.419 . S
C2536 C2534 1.415 1_545 S
C2536 C2541 1.425 . S
C2536 C2543 1.409 . S
C2537 H2529 0.930 . S
C2537 C2535 1.419 . S
C2537 C2538 1.362 . S
C2538 H2530 0.930 1_565 S
C2538 C2537 1.362 . S
C2538 C2541 1.409 1_565 S
C2539 H2531 0.930 . S
C2539 C2540 1.355 . S
C2539 C2541 1.415 . S
C2540 C2539 1.355 . S
C2540 C2542 1.419 . S
C2541 C2536 1.425 . S
C2541 C2538 1.409 1_545 S
C2541 C2539 1.415 . S
C2542 H2532 0.930 . S
C2542 C2540 1.419 . S
C2542 C2543 1.362 . S
C2543 H2533 0.930 . S
C2543 C2536 1.409 . S
C2543 C2542 1.362 . S
H2544 C2550 0.930 . S
H2545 C2553 0.930 . S
H2546 C2554 0.930 . S
H2547 C2555 0.930 . S
H2548 C2558 0.930 . S
H2549 C2559 0.930 . S
C2550 H2544 0.930 . S
C2550 C2551 1.355 . S
C2550 C2552 1.415 . S
C2551 C2550 1.355 . S
C2551 C2553 1.419 . S
C2552 C2550 1.415 . S
C2552 C2557 1.425 . S
C2552 C2559 1.409 . S
C2553 H2545 0.930 . S
C2553 C2551 1.419 . S
C2553 C2554 1.362 . S
C2554 H2546 0.930 . S
C2554 C2553 1.362 . S
C2554 C2557 1.409 . S
C2555 H2547 0.930 . S
C2555 C2556 1.355 . S
C2555 C2557 1.415 . S
C2556 C2555 1.355 . S
C2556 C2558 1.419 . S
C2557 C2552 1.425 . S
C2557 C2554 1.409 . S
C2557 C2555 1.415 . S
C2558 H2548 0.930 . S
C2558 C2556 1.419 . S
C2558 C2559 1.362 . S
C2559 H2549 0.930 . S
C2559 C2552 1.409 . S
C2559 C2558 1.362 . S
H2560 C2566 0.930 . S
H2561 C2569 0.930 . S
H2562 C2570 0.930 . S
H2563 C2571 0.930 . S
H2564 C2574 0.930 . S
H2565 C2575 0.930 . S
C2566 H2560 0.930 . S
C2566 C2567 1.355 . S
C2566 C2568 1.415 . S
C2567 C2566 1.355 . S
C2567 C2569 1.419 . S
C2568 C2566 1.415 . S
C2568 C2573 1.425 . S
C2568 C2575 1.409 . S
C2569 H2561 0.930 . S
C2569 C2567 1.419 . S
C2569 C2570 1.362 . S
C2570 H2562 0.930 . S
C2570 C2569 1.362 . S
C2570 C2573 1.409 . S
C2571 H2563 0.930 . S
C2571 C2572 1.355 . S
C2571 C2573 1.415 . S
C2572 C2571 1.355 . S
C2572 C2574 1.419 . S
C2573 C2568 1.425 . S
C2573 C2570 1.409 . S
C2573 C2571 1.415 . S
C2574 H2564 0.930 . S
C2574 C2572 1.419 . S
C2574 C2575 1.362 . S
C2575 H2565 0.930 . S
C2575 C2568 1.409 . S
C2575 C2574 1.362 . S
H2576 C2582 0.930 . S
H2577 C2585 0.930 . S
H2578 C2586 0.940 . S
H2579 C2587 0.930 1_565 S
H2580 C2590 0.930 . S
H2581 C2591 0.930 . S
C2582 H2576 0.930 . S
C2582 C2583 1.355 . S
C2582 C2584 1.415 . S
C2583 C2582 1.355 . S
C2583 C2585 1.419 . S
C2584 C2582 1.415 . S
C2584 C2589 1.425 . S
C2584 C2591 1.409 . S
C2585 H2577 0.930 . S
C2585 C2583 1.419 . S
C2585 C2586 1.362 . S
C2586 H2578 0.940 . S
C2586 C2585 1.362 . S
C2586 C2589 1.409 . S
C2587 H2579 0.930 1_545 S
C2587 C2588 1.355 . S
C2587 C2589 1.415 . S
C2588 C2587 1.355 . S
C2588 C2590 1.419 . S
C2589 C2584 1.425 . S
C2589 C2586 1.409 . S
C2589 C2587 1.415 . S
C2590 H2580 0.930 . S
C2590 C2588 1.419 . S
C2590 C2591 1.362 . S
C2591 H2581 0.930 . S
C2591 C2584 1.409 . S
C2591 C2590 1.362 . S
H2592 C2598 0.930 . S
H2593 C2601 0.930 . S
H2594 C2602 0.930 . S
H2595 C2603 0.930 . S
H2596 C2606 0.930 . S
H2597 C2607 0.930 . S
C2598 H2592 0.930 . S
C2598 C2599 1.355 . S
C2598 C2600 1.415 . S
C2599 C2598 1.355 . S
C2599 C2601 1.419 . S
C2600 C2598 1.415 . S
C2600 C2605 1.425 . S
C2600 C2607 1.409 . S
C2601 H2593 0.930 . S
C2601 C2599 1.419 . S
C2601 C2602 1.362 . S
C2602 H2594 0.930 . S
C2602 C2601 1.362 . S
C2602 C2605 1.409 . S
C2603 H2595 0.930 . S
C2603 C2604 1.355 . S
C2603 C2605 1.415 . S
C2604 C2603 1.355 . S
C2604 C2606 1.419 . S
C2605 C2600 1.425 . S
C2605 C2602 1.409 . S
C2605 C2603 1.415 . S
C2606 H2596 0.930 . S
C2606 C2604 1.419 . S
C2606 C2607 1.362 . S
C2607 H2597 0.930 . S
C2607 C2600 1.409 . S
C2607 C2606 1.362 . S
H2608 C2614 0.930 . S
H2609 C2617 0.930 . S
H2610 C2618 0.929 . S
H2611 C2619 0.930 . S
H2612 C2622 0.930 . S
H2613 C2623 0.930 . S
C2614 H2608 0.930 . S
C2614 C2615 1.355 . S
C2614 C2616 1.415 . S
C2615 C2614 1.355 . S
C2615 C2617 1.419 . S
C2616 C2614 1.415 . S
C2616 C2621 1.425 . S
C2616 C2623 1.409 . S
C2617 H2609 0.930 . S
C2617 C2615 1.419 . S
C2617 C2618 1.362 . S
C2618 H2610 0.929 . S
C2618 C2617 1.362 . S
C2618 C2621 1.409 . S
C2619 H2611 0.930 . S
C2619 C2620 1.355 . S
C2619 C2621 1.415 . S
C2620 C2619 1.355 . S
C2620 C2622 1.419 . S
C2621 C2616 1.425 . S
C2621 C2618 1.409 . S
C2621 C2619 1.415 . S
C2622 H2612 0.930 . S
C2622 C2620 1.419 . S
C2622 C2623 1.362 . S
C2623 H2613 0.930 . S
C2623 C2616 1.409 . S
C2623 C2622 1.362 . S
H2624 C2630 0.930 . S
H2625 C2633 0.930 . S
H2626 C2634 0.930 . S
H2627 C2635 0.930 . S
H2628 C2638 0.930 . S
H2629 C2639 0.930 . S
C2630 H2624 0.930 . S
C2630 C2631 1.355 . S
C2630 C2632 1.415 . S
C2631 C2630 1.355 . S
C2631 C2633 1.419 . S
C2632 C2630 1.415 . S
C2632 C2637 1.425 . S
C2632 C2639 1.409 . S
C2633 H2625 0.930 . S
C2633 C2631 1.419 . S
C2633 C2634 1.362 . S
C2634 H2626 0.930 . S
C2634 C2633 1.362 . S
C2634 C2637 1.409 . S
C2635 H2627 0.930 . S
C2635 C2636 1.355 . S
C2635 C2637 1.415 . S
C2636 C2635 1.355 . S
C2636 C2638 1.419 . S
C2637 C2632 1.425 . S
C2637 C2634 1.409 . S
C2637 C2635 1.415 . S
C2638 H2628 0.930 . S
C2638 C2636 1.419 . S
C2638 C2639 1.362 . S
C2639 H2629 0.930 . S
C2639 C2632 1.409 . S
C2639 C2638 1.362 . S
H2640 C2646 0.930 . S
H2641 C2649 0.930 . S
H2642 C2650 0.930 . S
H2643 C2651 0.930 . S
H2644 C2654 0.930 . S
H2645 C2655 0.930 . S
C2646 H2640 0.930 . S
C2646 C2647 1.355 . S
C2646 C2648 1.415 . S
C2647 C2646 1.355 . S
C2647 C2649 1.419 . S
C2648 C2646 1.415 . S
C2648 C2653 1.425 . S
C2648 C2655 1.409 . S
C2649 H2641 0.930 . S
C2649 C2647 1.419 . S
C2649 C2650 1.362 . S
C2650 H2642 0.930 . S
C2650 C2649 1.362 . S
C2650 C2653 1.409 . S
C2651 H2643 0.930 . S
C2651 C2652 1.355 . S
C2651 C2653 1.415 . S
C2652 C2651 1.355 . S
C2652 C2654 1.419 . S
C2653 C2648 1.425 . S
C2653 C2650 1.409 . S
C2653 C2651 1.415 . S
C2654 H2644 0.930 . S
C2654 C2652 1.419 . S
C2654 C2655 1.362 . S
C2655 H2645 0.930 . S
C2655 C2648 1.409 . S
C2655 C2654 1.362 . S
H2656 C2662 0.930 . S
H2657 C2665 0.930 . S
H2658 C2666 0.930 . S
H2659 C2667 0.930 . S
H2660 C2670 0.930 . S
H2661 C2671 0.930 . S
C2662 H2656 0.930 . S
C2662 C2663 1.355 . S
C2662 C2664 1.415 . S
C2663 C2662 1.355 . S
C2663 C2665 1.419 . S
C2664 C2662 1.415 . S
C2664 C2669 1.425 . S
C2664 C2671 1.409 . S
C2665 H2657 0.930 . S
C2665 C2663 1.419 . S
C2665 C2666 1.362 . S
C2666 H2658 0.930 . S
C2666 C2665 1.362 . S
C2666 C2669 1.409 . S
C2667 H2659 0.930 . S
C2667 C2668 1.355 . S
C2667 C2669 1.415 . S
C2668 C2667 1.355 . S
C2668 C2670 1.419 . S
C2669 C2664 1.425 . S
C2669 C2666 1.409 . S
C2669 C2667 1.415 . S
C2670 H2660 0.930 . S
C2670 C2668 1.419 . S
C2670 C2671 1.362 . S
C2671 H2661 0.930 . S
C2671 C2664 1.409 . S
C2671 C2670 1.362 . S
H2672 C2678 0.930 . S
H2673 C2681 0.930 . S
H2674 C2682 0.930 . S
H2675 C2683 0.930 . S
H2676 C2686 0.930 . S
H2677 C2687 0.930 . S
C2678 H2672 0.930 . S
C2678 C2679 1.355 . S
C2678 C2680 1.415 . S
C2679 C2678 1.355 . S
C2679 C2681 1.419 . S
C2680 C2678 1.415 . S
C2680 C2685 1.425 . S
C2680 C2687 1.409 . S
C2681 H2673 0.930 . S
C2681 C2679 1.419 . S
C2681 C2682 1.362 . S
C2682 H2674 0.930 . S
C2682 C2681 1.362 . S
C2682 C2685 1.409 . S
C2683 H2675 0.930 . S
C2683 C2684 1.355 . S
C2683 C2685 1.415 . S
C2684 C2683 1.355 . S
C2684 C2686 1.419 . S
C2685 C2680 1.425 . S
C2685 C2682 1.409 . S
C2685 C2683 1.415 . S
C2686 H2676 0.930 . S
C2686 C2684 1.419 . S
C2686 C2687 1.362 . S
C2687 H2677 0.930 . S
C2687 C2680 1.409 . S
C2687 C2686 1.362 . S
H2688 C2694 0.930 . S
H2689 C2697 0.930 . S
H2690 C2698 0.930 . S
H2691 C2699 0.930 . S
H2692 C2702 0.930 . S
H2693 C2703 0.930 . S
C2694 H2688 0.930 . S
C2694 C2695 1.355 . S
C2694 C2696 1.415 . S
C2695 C2694 1.355 . S
C2695 C2697 1.419 . S
C2696 C2694 1.415 . S
C2696 C2701 1.425 . S
C2696 C2703 1.409 . S
C2697 H2689 0.930 . S
C2697 C2695 1.419 . S
C2697 C2698 1.362 . S
C2698 H2690 0.930 . S
C2698 C2697 1.362 . S
C2698 C2701 1.409 . S
C2699 H2691 0.930 . S
C2699 C2700 1.355 . S
C2699 C2701 1.415 . S
C2700 C2699 1.355 . S
C2700 C2702 1.419 . S
C2701 C2696 1.425 . S
C2701 C2698 1.409 . S
C2701 C2699 1.415 . S
C2702 H2692 0.930 . S
C2702 C2700 1.419 . S
C2702 C2703 1.362 . S
C2703 H2693 0.930 . S
C2703 C2696 1.409 . S
C2703 C2702 1.362 . S
H2704 C2710 0.930 . S
H2705 C2713 0.930 . S
H2706 C2714 0.930 . S
H2707 C2715 0.930 . S
H2708 C2718 0.930 . S
H2709 C2719 0.930 . S
C2710 H2704 0.930 . S
C2710 C2711 1.355 . S
C2710 C2712 1.415 . S
C2711 C2710 1.355 . S
C2711 C2713 1.419 . S
C2712 C2710 1.415 . S
C2712 C2717 1.425 . S
C2712 C2719 1.409 . S
C2713 H2705 0.930 . S
C2713 C2711 1.419 . S
C2713 C2714 1.362 . S
C2714 H2706 0.930 . S
C2714 C2713 1.362 . S
C2714 C2717 1.409 . S
C2715 H2707 0.930 . S
C2715 C2716 1.355 . S
C2715 C2717 1.415 . S
C2716 C2715 1.355 . S
C2716 C2718 1.419 . S
C2717 C2712 1.425 . S
C2717 C2714 1.409 . S
C2717 C2715 1.415 . S
C2718 H2708 0.930 . S
C2718 C2716 1.419 . S
C2718 C2719 1.362 . S
C2719 H2709 0.930 . S
C2719 C2712 1.409 . S
C2719 C2718 1.362 . S
H2720 C2726 0.930 . S
H2721 C2729 0.930 . S
H2722 C2730 0.930 . S
H2723 C2731 0.930 . S
H2724 C2734 0.930 . S
H2725 C2735 0.930 . S
C2726 H2720 0.930 . S
C2726 C2727 1.355 . S
C2726 C2728 1.415 . S
C2727 C2726 1.355 . S
C2727 C2729 1.419 . S
C2728 C2726 1.415 . S
C2728 C2733 1.425 . S
C2728 C2735 1.409 . S
C2729 H2721 0.930 . S
C2729 C2727 1.419 . S
C2729 C2730 1.362 . S
C2730 H2722 0.930 . S
C2730 C2729 1.362 . S
C2730 C2733 1.409 . S
C2731 H2723 0.930 . S
C2731 C2732 1.355 . S
C2731 C2733 1.415 . S
C2732 C2731 1.355 . S
C2732 C2734 1.419 . S
C2733 C2728 1.425 . S
C2733 C2730 1.409 . S
C2733 C2731 1.415 . S
C2734 H2724 0.930 . S
C2734 C2732 1.419 . S
C2734 C2735 1.362 . S
C2735 H2725 0.930 . S
C2735 C2728 1.409 . S
C2735 C2734 1.362 . S
H2736 C2742 0.930 . S
H2737 C2745 0.930 . S
H2738 C2746 0.930 . S
H2739 C2747 0.930 . S
H2740 C2750 0.930 . S
H2741 C2751 0.930 . S
C2742 H2736 0.930 . S
C2742 C2743 1.355 . S
C2742 C2744 1.415 . S
C2743 C2742 1.355 . S
C2743 C2745 1.419 . S
C2744 C2742 1.415 . S
C2744 C2749 1.425 . S
C2744 C2751 1.409 . S
C2745 H2737 0.930 . S
C2745 C2743 1.419 . S
C2745 C2746 1.362 . S
C2746 H2738 0.930 . S
C2746 C2745 1.362 . S
C2746 C2749 1.409 . S
C2747 H2739 0.930 . S
C2747 C2748 1.355 . S
C2747 C2749 1.415 . S
C2748 C2747 1.355 . S
C2748 C2750 1.419 . S
C2749 C2744 1.425 . S
C2749 C2746 1.409 . S
C2749 C2747 1.415 . S
C2750 H2740 0.930 . S
C2750 C2748 1.419 . S
C2750 C2751 1.362 . S
C2751 H2741 0.930 . S
C2751 C2744 1.409 . S
C2751 C2750 1.362 . S
H2752 C2758 0.930 . S
H2753 C2761 0.930 . S
H2754 C2762 0.930 . S
H2755 C2763 0.930 . S
H2756 C2766 0.930 . S
H2757 C2767 0.930 . S
C2758 H2752 0.930 . S
C2758 C2759 1.355 . S
C2758 C2760 1.415 . S
C2759 C2758 1.355 . S
C2759 C2761 1.419 . S
C2760 C2758 1.415 . S
C2760 C2765 1.425 . S
C2760 C2767 1.409 . S
C2761 H2753 0.930 . S
C2761 C2759 1.419 . S
C2761 C2762 1.362 . S
C2762 H2754 0.930 . S
C2762 C2761 1.362 . S
C2762 C2765 1.409 . S
C2763 H2755 0.930 . S
C2763 C2764 1.355 . S
C2763 C2765 1.415 . S
C2764 C2763 1.355 . S
C2764 C2766 1.419 . S
C2765 C2760 1.425 . S
C2765 C2762 1.409 . S
C2765 C2763 1.415 . S
C2766 H2756 0.930 . S
C2766 C2764 1.419 . S
C2766 C2767 1.362 . S
C2767 H2757 0.930 . S
C2767 C2760 1.409 . S
C2767 C2766 1.362 . S
H2768 C2774 0.930 . S
H2769 C2777 0.930 . S
H2770 C2778 0.930 . S
H2771 C2779 0.930 . S
H2772 C2782 0.930 . S
H2773 C2783 0.930 . S
C2774 H2768 0.930 . S
C2774 C2775 1.355 . S
C2774 C2776 1.415 . S
C2775 C2774 1.355 . S
C2775 C2777 1.419 . S
C2776 C2774 1.415 . S
C2776 C2781 1.425 . S
C2776 C2783 1.409 . S
C2777 H2769 0.930 . S
C2777 C2775 1.419 . S
C2777 C2778 1.362 . S
C2778 H2770 0.930 . S
C2778 C2777 1.362 . S
C2778 C2781 1.409 . S
C2779 H2771 0.930 . S
C2779 C2780 1.355 . S
C2779 C2781 1.415 . S
C2780 C2779 1.355 . S
C2780 C2782 1.419 . S
C2781 C2776 1.425 . S
C2781 C2778 1.409 . S
C2781 C2779 1.415 . S
C2782 H2772 0.930 . S
C2782 C2780 1.419 . S
C2782 C2783 1.362 . S
C2783 H2773 0.930 . S
C2783 C2776 1.409 . S
C2783 C2782 1.362 . S
H2784 C2790 0.930 . S
H2785 C2793 0.930 . S
H2786 C2794 0.930 . S
H2787 C2795 0.930 . S
H2788 C2798 0.930 . S
H2789 C2799 0.930 . S
C2790 H2784 0.930 . S
C2790 C2791 1.355 1_655 S
C2790 C2792 1.415 . S
C2791 C2790 1.355 1_455 S
C2791 C2793 1.419 . S
C2792 C2790 1.415 . S
C2792 C2797 1.425 1_655 S
C2792 C2799 1.409 . S
C2793 H2785 0.930 . S
C2793 C2791 1.419 . S
C2793 C2794 1.362 . S
C2794 H2786 0.930 . S
C2794 C2793 1.362 . S
C2794 C2797 1.409 . S
C2795 H2787 0.930 . S
C2795 C2796 1.355 . S
C2795 C2797 1.415 . S
C2796 C2795 1.355 . S
C2796 C2798 1.419 1_455 S
C2797 C2792 1.425 1_455 S
C2797 C2794 1.409 . S
C2797 C2795 1.415 . S
C2798 H2788 0.930 . S
C2798 C2796 1.419 1_655 S
C2798 C2799 1.362 . S
C2799 H2789 0.930 . S
C2799 C2792 1.409 . S
C2799 C2798 1.362 . S
H2800 C2806 0.930 . S
H2801 C2809 0.930 . S
H2802 C2810 0.930 . S
H2803 C2811 0.930 . S
H2804 C2814 0.930 . S
H2805 C2815 0.930 . S
C2806 H2800 0.930 . S
C2806 C2807 1.355 . S
C2806 C2808 1.415 . S
C2807 C2806 1.355 . S
C2807 C2809 1.419 . S
C2808 C2806 1.415 . S
C2808 C2813 1.425 . S
C2808 C2815 1.409 . S
C2809 H2801 0.930 . S
C2809 C2807 1.419 . S
C2809 C2810 1.362 . S
C2810 H2802 0.930 . S
C2810 C2809 1.362 . S
C2810 C2813 1.409 . S
C2811 H2803 0.930 . S
C2811 C2812 1.355 . S
C2811 C2813 1.415 . S
C2812 C2811 1.355 . S
C2812 C2814 1.419 . S
C2813 C2808 1.425 . S
C2813 C2810 1.409 . S
C2813 C2811 1.415 . S
C2814 H2804 0.930 . S
C2814 C2812 1.419 . S
C2814 C2815 1.362 . S
C2815 H2805 0.930 . S
C2815 C2808 1.409 . S
C2815 C2814 1.362 . S
H2816 C2822 0.930 . S
H2817 C2825 0.930 . S
H2818 C2826 0.930 . S
H2819 C2827 0.930 . S
H2820 C2830 0.930 . S
H2821 C2831 0.930 . S
C2822 H2816 0.930 . S
C2822 C2823 1.355 1_545 S
C2822 C2824 1.415 . S
C2823 C2822 1.355 1_565 S
C2823 C2825 1.419 . S
C2824 C2822 1.415 . S
C2824 C2829 1.425 1_545 S
C2824 C2831 1.409 . S
C2825 H2817 0.930 . S
C2825 C2823 1.419 . S
C2825 C2826 1.362 . S
C2826 H2818 0.930 . S
C2826 C2825 1.362 . S
C2826 C2829 1.409 . S
C2827 H2819 0.930 . S
C2827 C2828 1.355 . S
C2827 C2829 1.415 . S
C2828 C2827 1.355 . S
C2828 C2830 1.419 1_565 S
C2829 C2824 1.425 1_565 S
C2829 C2826 1.409 . S
C2829 C2827 1.415 . S
C2830 H2820 0.930 . S
C2830 C2828 1.419 1_545 S
C2830 C2831 1.362 . S
C2831 H2821 0.930 . S
C2831 C2824 1.409 . S
C2831 C2830 1.362 . S
H2832 C2838 0.930 . S
H2833 C2841 0.930 . S
H2834 C2842 0.930 . S
H2835 C2843 0.930 . S
H2836 C2846 0.930 . S
H2837 C2847 0.930 . S
C2838 H2832 0.930 . S
C2838 C2839 1.355 1_545 S
C2838 C2840 1.415 . S
C2839 C2838 1.355 1_565 S
C2839 C2841 1.419 . S
C2840 C2838 1.415 . S
C2840 C2845 1.425 1_545 S
C2840 C2847 1.409 . S
C2841 H2833 0.930 . S
C2841 C2839 1.419 . S
C2841 C2842 1.362 . S
C2842 H2834 0.930 . S
C2842 C2841 1.362 . S
C2842 C2845 1.409 . S
C2843 H2835 0.930 . S
C2843 C2844 1.355 1_565 S
C2843 C2845 1.415 . S
C2844 C2843 1.355 1_545 S
C2844 C2846 1.419 . S
C2845 C2840 1.425 1_565 S
C2845 C2842 1.409 . S
C2845 C2843 1.415 . S
C2846 H2836 0.930 . S
C2846 C2844 1.419 . S
C2846 C2847 1.362 . S
C2847 H2837 0.930 . S
C2847 C2840 1.409 . S
C2847 C2846 1.362 . S
H2848 C2854 0.930 . S
H2849 C2857 0.930 . S
H2850 C2858 0.930 . S
H2851 C2859 0.930 . S
H2852 C2862 0.930 . S
H2853 C2863 0.930 . S
C2854 H2848 0.930 . S
C2854 C2855 1.355 1_455 S
C2854 C2856 1.415 . S
C2855 C2854 1.355 1_655 S
C2855 C2857 1.419 . S
C2856 C2854 1.415 . S
C2856 C2861 1.425 1_455 S
C2856 C2863 1.409 . S
C2857 H2849 0.930 . S
C2857 C2855 1.419 . S
C2857 C2858 1.362 . S
C2858 H2850 0.930 . S
C2858 C2857 1.362 . S
C2858 C2861 1.409 . S
C2859 H2851 0.930 . S
C2859 C2860 1.355 1_655 S
C2859 C2861 1.415 . S
C2860 C2859 1.355 1_455 S
C2860 C2862 1.419 . S
C2861 C2856 1.425 1_655 S
C2861 C2858 1.409 . S
C2861 C2859 1.415 . S
C2862 H2852 0.930 . S
C2862 C2860 1.419 . S
C2862 C2863 1.362 . S
C2863 H2853 0.930 . S
C2863 C2856 1.409 . S
C2863 C2862 1.362 . S
H2864 C2870 0.930 . S
H2865 C2873 0.930 . S
H2866 C2874 0.930 . S
H2867 C2875 0.930 . S
H2868 C2878 0.930 . S
H2869 C2879 0.930 . S
C2870 H2864 0.930 . S
C2870 C2871 1.355 . S
C2870 C2872 1.415 . S
C2871 C2870 1.355 . S
C2871 C2873 1.419 . S
C2872 C2870 1.415 . S
C2872 C2877 1.425 . S
C2872 C2879 1.409 . S
C2873 H2865 0.930 . S
C2873 C2871 1.419 . S
C2873 C2874 1.362 . S
C2874 H2866 0.930 . S
C2874 C2873 1.362 . S
C2874 C2877 1.409 . S
C2875 H2867 0.930 . S
C2875 C2876 1.355 . S
C2875 C2877 1.415 . S
C2876 C2875 1.355 . S
C2876 C2878 1.419 . S
C2877 C2872 1.425 . S
C2877 C2874 1.409 . S
C2877 C2875 1.415 . S
C2878 H2868 0.930 . S
C2878 C2876 1.419 . S
C2878 C2879 1.362 . S
C2879 H2869 0.930 . S
C2879 C2872 1.409 . S
C2879 C2878 1.362 . S
H2880 C2886 0.930 . S
H2881 C2889 0.930 . S
H2882 C2890 0.930 . S
H2883 C2891 0.930 . S
H2884 C2894 0.930 . S
H2885 C2895 0.930 . S
C2886 H2880 0.930 . S
C2886 C2887 1.355 1_455 S
C2886 C2888 1.415 . S
C2887 C2886 1.355 1_655 S
C2887 C2889 1.419 . S
C2888 C2886 1.415 . S
C2888 C2893 1.425 1_455 S
C2888 C2895 1.409 . S
C2889 H2881 0.930 . S
C2889 C2887 1.419 . S
C2889 C2890 1.362 . S
C2890 H2882 0.930 . S
C2890 C2889 1.362 . S
C2890 C2893 1.409 . S
C2891 H2883 0.930 . S
C2891 C2892 1.355 1_655 S
C2891 C2893 1.415 . S
C2892 C2891 1.355 1_455 S
C2892 C2894 1.419 . S
C2893 C2888 1.425 1_655 S
C2893 C2890 1.409 . S
C2893 C2891 1.415 . S
C2894 H2884 0.930 . S
C2894 C2892 1.419 . S
C2894 C2895 1.362 . S
C2895 H2885 0.930 . S
C2895 C2888 1.409 . S
C2895 C2894 1.362 . S
H2896 C2902 0.930 . S
H2897 C2905 0.930 . S
H2898 C2906 0.930 . S
H2899 C2907 0.930 . S
H2900 C2910 0.930 . S
H2901 C2911 0.930 . S
C2902 H2896 0.930 . S
C2902 C2903 1.355 . S
C2902 C2904 1.415 . S
C2903 C2902 1.355 . S
C2903 C2905 1.419 . S
C2904 C2902 1.415 . S
C2904 C2909 1.425 . S
C2904 C2911 1.409 . S
C2905 H2897 0.930 . S
C2905 C2903 1.419 . S
C2905 C2906 1.362 . S
C2906 H2898 0.930 . S
C2906 C2905 1.362 . S
C2906 C2909 1.409 . S
C2907 H2899 0.930 . S
C2907 C2908 1.355 . S
C2907 C2909 1.415 . S
C2908 C2907 1.355 . S
C2908 C2910 1.419 . S
C2909 C2904 1.425 . S
C2909 C2906 1.409 . S
C2909 C2907 1.415 . S
C2910 H2900 0.930 . S
C2910 C2908 1.419 . S
C2910 C2911 1.362 . S
C2911 H2901 0.930 . S
C2911 C2904 1.409 . S
C2911 C2910 1.362 . S
H2912 C2918 0.930 . S
H2913 C2921 0.930 . S
H2914 C2922 0.930 . S
H2915 C2923 0.930 . S
H2916 C2926 0.930 . S
H2917 C2927 0.930 . S
C2918 H2912 0.930 . S
C2918 C2919 1.355 1_565 S
C2918 C2920 1.415 . S
C2919 C2918 1.355 1_545 S
C2919 C2921 1.419 . S
C2920 C2918 1.415 . S
C2920 C2925 1.425 1_565 S
C2920 C2927 1.409 . S
C2921 H2913 0.930 . S
C2921 C2919 1.419 . S
C2921 C2922 1.362 . S
C2922 H2914 0.930 . S
C2922 C2921 1.362 . S
C2922 C2925 1.409 . S
C2923 H2915 0.930 . S
C2923 C2924 1.355 1_545 S
C2923 C2925 1.415 . S
C2924 C2923 1.355 1_565 S
C2924 C2926 1.419 . S
C2925 C2920 1.425 1_545 S
C2925 C2922 1.409 . S
C2925 C2923 1.415 . S
C2926 H2916 0.930 . S
C2926 C2924 1.419 . S
C2926 C2927 1.362 . S
C2927 H2917 0.930 . S
C2927 C2920 1.409 . S
C2927 C2926 1.362 . S
H2928 C2934 0.930 . S
H2929 C2937 0.930 . S
H2930 C2938 0.930 . S
H2931 C2939 0.930 . S
H2932 C2942 0.930 . S
H2933 C2943 0.930 . S
C2934 H2928 0.930 . S
C2934 C2935 1.355 1_455 S
C2934 C2936 1.415 . S
C2935 C2934 1.355 1_655 S
C2935 C2937 1.419 . S
C2936 C2934 1.415 . S
C2936 C2941 1.425 1_455 S
C2936 C2943 1.409 . S
C2937 H2929 0.930 . S
C2937 C2935 1.419 . S
C2937 C2938 1.362 . S
C2938 H2930 0.930 . S
C2938 C2937 1.362 . S
C2938 C2941 1.409 . S
C2939 H2931 0.930 . S
C2939 C2940 1.355 1_655 S
C2939 C2941 1.415 . S
C2940 C2939 1.355 1_455 S
C2940 C2942 1.419 . S
C2941 C2936 1.425 1_655 S
C2941 C2938 1.409 . S
C2941 C2939 1.415 . S
C2942 H2932 0.930 . S
C2942 C2940 1.419 . S
C2942 C2943 1.362 . S
C2943 H2933 0.930 . S
C2943 C2936 1.409 . S
C2943 C2942 1.362 . S
H2944 C2950 0.930 . S
H2945 C2953 0.930 . S
H2946 C2954 0.930 . S
H2947 C2955 0.930 . S
H2948 C2958 0.930 . S
H2949 C2959 0.930 . S
C2950 H2944 0.930 . S
C2950 C2951 1.355 . S
C2950 C2952 1.415 . S
C2951 C2950 1.355 . S
C2951 C2953 1.419 . S
C2952 C2950 1.415 . S
C2952 C2957 1.425 . S
C2952 C2959 1.409 . S
C2953 H2945 0.930 . S
C2953 C2951 1.419 . S
C2953 C2954 1.362 . S
C2954 H2946 0.930 . S
C2954 C2953 1.362 . S
C2954 C2957 1.409 . S
C2955 H2947 0.930 . S
C2955 C2956 1.355 . S
C2955 C2957 1.415 . S
C2956 C2955 1.355 . S
C2956 C2958 1.419 . S
C2957 C2952 1.425 . S
C2957 C2954 1.409 . S
C2957 C2955 1.415 . S
C2958 H2948 0.930 . S
C2958 C2956 1.419 . S
C2958 C2959 1.362 . S
C2959 H2949 0.930 . S
C2959 C2952 1.409 . S
C2959 C2958 1.362 . S
H2960 C2966 0.930 . S
H2961 C2969 0.930 . S
H2962 C2970 0.930 . S
H2963 C2971 0.930 . S
H2964 C2974 0.930 . S
H2965 C2975 0.930 . S
C2966 H2960 0.930 . S
C2966 C2967 1.355 . S
C2966 C2968 1.415 . S
C2967 C2966 1.355 . S
C2967 C2969 1.419 1_545 S
C2968 C2966 1.415 . S
C2968 C2973 1.425 1_545 S
C2968 C2975 1.409 . S
C2969 H2961 0.930 . S
C2969 C2967 1.419 1_565 S
C2969 C2970 1.362 . S
C2970 H2962 0.930 . S
C2970 C2969 1.362 . S
C2970 C2973 1.409 . S
C2971 H2963 0.930 . S
C2971 C2972 1.355 . S
C2971 C2973 1.415 . S
C2972 C2971 1.355 . S
C2972 C2974 1.419 1_565 S
C2973 C2968 1.425 1_565 S
C2973 C2970 1.409 . S
C2973 C2971 1.415 . S
C2974 H2964 0.930 . S
C2974 C2972 1.419 1_545 S
C2974 C2975 1.362 . S
C2975 H2965 0.930 . S
C2975 C2968 1.409 . S
C2975 C2974 1.362 . S
H2976 C2982 0.930 . S
H2977 C2985 0.930 . S
H2978 C2986 0.930 . S
H2979 C2987 0.930 . S
H2980 C2990 0.930 . S
H2981 C2991 0.930 . S
C2982 H2976 0.930 . S
C2982 C2983 1.355 . S
C2982 C2984 1.415 . S
C2983 C2982 1.355 . S
C2983 C2985 1.419 . S
C2984 C2982 1.415 . S
C2984 C2989 1.425 . S
C2984 C2991 1.409 . S
C2985 H2977 0.930 . S
C2985 C2983 1.419 . S
C2985 C2986 1.362 . S
C2986 H2978 0.930 . S
C2986 C2985 1.362 . S
C2986 C2989 1.409 . S
C2987 H2979 0.930 . S
C2987 C2988 1.355 . S
C2987 C2989 1.415 . S
C2988 C2987 1.355 . S
C2988 C2990 1.419 . S
C2989 C2984 1.425 . S
C2989 C2986 1.409 . S
C2989 C2987 1.415 . S
C2990 H2980 0.930 . S
C2990 C2988 1.419 . S
C2990 C2991 1.362 . S
C2991 H2981 0.930 . S
C2991 C2984 1.409 . S
C2991 C2990 1.362 . S
H2992 C2998 0.930 . S
H2993 C3001 0.930 . S
H2994 C3002 0.930 . S
H2995 C3003 0.930 . S
H2996 C3006 0.930 . S
H2997 C3007 0.930 . S
C2998 H2992 0.930 . S
C2998 C2999 1.355 . S
C2998 C3000 1.415 . S
C2999 C2998 1.355 . S
C2999 C3001 1.419 . S
C3000 C2998 1.415 . S
C3000 C3005 1.425 . S
C3000 C3007 1.409 . S
C3001 H2993 0.930 . S
C3001 C2999 1.419 . S
C3001 C3002 1.362 . S
C3002 H2994 0.930 . S
C3002 C3001 1.362 . S
C3002 C3005 1.409 . S
C3003 H2995 0.930 . S
C3003 C3004 1.355 . S
C3003 C3005 1.415 . S
C3004 C3003 1.355 . S
C3004 C3006 1.419 . S
C3005 C3000 1.425 . S
C3005 C3002 1.409 . S
C3005 C3003 1.415 . S
C3006 H2996 0.930 . S
C3006 C3004 1.419 . S
C3006 C3007 1.362 . S
C3007 H2997 0.930 . S
C3007 C3000 1.409 . S
C3007 C3006 1.362 . S
H3008 C3014 0.930 . S
H3009 C3017 0.930 . S
H3010 C3018 0.930 . S
H3011 C3019 0.930 . S
H3012 C3022 0.930 . S
H3013 C3023 0.930 . S
C3014 H3008 0.930 . S
C3014 C3015 1.355 . S
C3014 C3016 1.415 . S
C3015 C3014 1.355 . S
C3015 C3017 1.419 . S
C3016 C3014 1.415 . S
C3016 C3021 1.425 . S
C3016 C3023 1.409 . S
C3017 H3009 0.930 . S
C3017 C3015 1.419 . S
C3017 C3018 1.362 . S
C3018 H3010 0.930 . S
C3018 C3017 1.362 . S
C3018 C3021 1.409 . S
C3019 H3011 0.930 . S
C3019 C3020 1.355 . S
C3019 C3021 1.415 . S
C3020 C3019 1.355 . S
C3020 C3022 1.419 . S
C3021 C3016 1.425 . S
C3021 C3018 1.409 . S
C3021 C3019 1.415 . S
C3022 H3012 0.930 . S
C3022 C3020 1.419 . S
C3022 C3023 1.362 . S
C3023 H3013 0.930 . S
C3023 C3016 1.409 . S
C3023 C3022 1.362 . S
H3024 C3030 0.930 . S
H3025 C3033 0.930 . S
H3026 C3034 0.930 . S
H3027 C3035 0.930 . S
H3028 C3038 0.930 . S
H3029 C3039 0.930 . S
C3030 H3024 0.930 . S
C3030 C3031 1.355 . S
C3030 C3032 1.415 . S
C3031 C3030 1.355 . S
C3031 C3033 1.419 . S
C3032 C3030 1.415 . S
C3032 C3037 1.425 . S
C3032 C3039 1.409 . S
C3033 H3025 0.930 . S
C3033 C3031 1.419 . S
C3033 C3034 1.362 . S
C3034 H3026 0.930 . S
C3034 C3033 1.362 . S
C3034 C3037 1.409 . S
C3035 H3027 0.930 . S
C3035 C3036 1.355 . S
C3035 C3037 1.415 . S
C3036 C3035 1.355 . S
C3036 C3038 1.419 . S
C3037 C3032 1.425 . S
C3037 C3034 1.409 . S
C3037 C3035 1.415 . S
C3038 H3028 0.930 . S
C3038 C3036 1.419 . S
C3038 C3039 1.362 . S
C3039 H3029 0.930 . S
C3039 C3032 1.409 . S
C3039 C3038 1.362 . S
H3040 C3046 0.930 . S
H3041 C3049 0.930 . S
H3042 C3050 0.930 . S
H3043 C3051 0.930 . S
H3044 C3054 0.930 . S
H3045 C3055 0.930 . S
C3046 H3040 0.930 . S
C3046 C3047 1.355 . S
C3046 C3048 1.415 . S
C3047 C3046 1.355 . S
C3047 C3049 1.419 . S
C3048 C3046 1.415 . S
C3048 C3053 1.425 . S
C3048 C3055 1.409 . S
C3049 H3041 0.930 . S
C3049 C3047 1.419 . S
C3049 C3050 1.362 . S
C3050 H3042 0.930 . S
C3050 C3049 1.362 . S
C3050 C3053 1.409 . S
C3051 H3043 0.930 . S
C3051 C3052 1.355 . S
C3051 C3053 1.415 . S
C3052 C3051 1.355 . S
C3052 C3054 1.419 . S
C3053 C3048 1.425 . S
C3053 C3050 1.409 . S
C3053 C3051 1.415 . S
C3054 H3044 0.930 . S
C3054 C3052 1.419 . S
C3054 C3055 1.362 . S
C3055 H3045 0.930 . S
C3055 C3048 1.409 . S
C3055 C3054 1.362 . S
H3056 C3062 0.930 . S
H3057 C3065 0.930 . S
H3058 C3066 0.930 . S
H3059 C3067 0.930 . S
H3060 C3070 0.930 . S
H3061 C3071 0.930 . S
C3062 H3056 0.930 . S
C3062 C3063 1.355 . S
C3062 C3064 1.415 . S
C3063 C3062 1.355 . S
C3063 C3065 1.419 . S
C3064 C3062 1.415 . S
C3064 C3069 1.425 . S
C3064 C3071 1.409 . S
C3065 H3057 0.930 . S
C3065 C3063 1.419 . S
C3065 C3066 1.362 . S
C3066 H3058 0.930 . S
C3066 C3065 1.362 . S
C3066 C3069 1.409 . S
C3067 H3059 0.930 . S
C3067 C3068 1.355 . S
C3067 C3069 1.415 . S
C3068 C3067 1.355 . S
C3068 C3070 1.419 . S
C3069 C3064 1.425 . S
C3069 C3066 1.409 . S
C3069 C3067 1.415 . S
C3070 H3060 0.930 . S
C3070 C3068 1.419 . S
C3070 C3071 1.362 . S
C3071 H3061 0.930 . S
C3071 C3064 1.409 . S
C3071 C3070 1.362 . S
H3072 C3078 0.930 . S
H3073 C3081 0.930 . S
H3074 C3082 0.930 . S
H3075 C3083 0.930 . S
H3076 C3086 0.930 . S
H3077 C3087 0.930 . S
C3078 H3072 0.930 . S
C3078 C3079 1.355 . S
C3078 C3080 1.415 . S
C3079 C3078 1.355 . S
C3079 C3081 1.419 . S
C3080 C3078 1.415 . S
C3080 C3085 1.425 . S
C3080 C3087 1.409 . S
C3081 H3073 0.930 . S
C3081 C3079 1.419 . S
C3081 C3082 1.362 . S
C3082 H3074 0.930 . S
C3082 C3081 1.362 . S
C3082 C3085 1.409 . S
C3083 H3075 0.930 . S
C3083 C3084 1.355 . S
C3083 C3085 1.415 . S
C3084 C3083 1.355 . S
C3084 C3086 1.419 . S
C3085 C3080 1.425 . S
C3085 C3082 1.409 . S
C3085 C3083 1.415 . S
C3086 H3076 0.930 . S
C3086 C3084 1.419 . S
C3086 C3087 1.362 . S
C3087 H3077 0.930 . S
C3087 C3080 1.409 . S
C3087 C3086 1.362 . S
H3088 C3094 0.930 . S
H3089 C3097 0.930 . S
H3090 C3098 0.930 . S
H3091 C3099 0.930 . S
H3092 C3102 0.930 . S
H3093 C3103 0.930 . S
C3094 H3088 0.930 . S
C3094 C3095 1.355 . S
C3094 C3096 1.415 . S
C3095 C3094 1.355 . S
C3095 C3097 1.419 . S
C3096 C3094 1.415 . S
C3096 C3101 1.425 . S
C3096 C3103 1.409 . S
C3097 H3089 0.930 . S
C3097 C3095 1.419 . S
C3097 C3098 1.362 . S
C3098 H3090 0.930 . S
C3098 C3097 1.362 . S
C3098 C3101 1.409 . S
C3099 H3091 0.930 . S
C3099 C3100 1.355 . S
C3099 C3101 1.415 . S
C3100 C3099 1.355 . S
C3100 C3102 1.419 . S
C3101 C3096 1.425 . S
C3101 C3098 1.409 . S
C3101 C3099 1.415 . S
C3102 H3092 0.930 . S
C3102 C3100 1.419 . S
C3102 C3103 1.362 . S
C3103 H3093 0.930 . S
C3103 C3096 1.409 . S
C3103 C3102 1.362 . S
H3104 C3110 0.930 . S
H3105 C3113 0.930 . S
H3106 C3114 0.930 . S
H3107 C3115 0.930 . S
H3108 C3118 0.930 . S
H3109 C3119 0.930 . S
C3110 H3104 0.930 . S
C3110 C3111 1.355 . S
C3110 C3112 1.415 . S
C3111 C3110 1.355 . S
C3111 C3113 1.419 . S
C3112 C3110 1.415 . S
C3112 C3117 1.425 . S
C3112 C3119 1.409 . S
C3113 H3105 0.930 . S
C3113 C3111 1.419 . S
C3113 C3114 1.362 . S
C3114 H3106 0.930 . S
C3114 C3113 1.362 . S
C3114 C3117 1.409 . S
C3115 H3107 0.930 . S
C3115 C3116 1.355 . S
C3115 C3117 1.415 . S
C3116 C3115 1.355 . S
C3116 C3118 1.419 . S
C3117 C3112 1.425 . S
C3117 C3114 1.409 . S
C3117 C3115 1.415 . S
C3118 H3108 0.930 . S
C3118 C3116 1.419 . S
C3118 C3119 1.362 . S
C3119 H3109 0.930 . S
C3119 C3112 1.409 . S
C3119 C3118 1.362 . S
H3120 C3126 0.930 . S
H3121 C3129 0.930 . S
H3122 C3130 0.930 . S
H3123 C3131 0.930 . S
H3124 C3134 0.930 . S
H3125 C3135 0.930 . S
C3126 H3120 0.930 . S
C3126 C3127 1.355 . S
C3126 C3128 1.415 . S
C3127 C3126 1.355 . S
C3127 C3129 1.419 . S
C3128 C3126 1.415 . S
C3128 C3133 1.425 . S
C3128 C3135 1.409 . S
C3129 H3121 0.930 . S
C3129 C3127 1.419 . S
C3129 C3130 1.362 . S
C3130 H3122 0.930 . S
C3130 C3129 1.362 . S
C3130 C3133 1.409 . S
C3131 H3123 0.930 . S
C3131 C3132 1.355 . S
C3131 C3133 1.415 . S
C3132 C3131 1.355 . S
C3132 C3134 1.419 . S
C3133 C3128 1.425 . S
C3133 C3130 1.409 . S
C3133 C3131 1.415 . S
C3134 H3124 0.930 . S
C3134 C3132 1.419 . S
C3134 C3135 1.362 . S
C3135 H3125 0.930 . S
C3135 C3128 1.409 . S
C3135 C3134 1.362 . S
H3136 C3142 0.930 . S
H3137 C3145 0.930 . S
H3138 C3146 0.930 . S
H3139 C3147 0.930 . S
H3140 C3150 0.930 . S
H3141 C3151 0.930 . S
C3142 H3136 0.930 . S
C3142 C3143 1.355 . S
C3142 C3144 1.415 . S
C3143 C3142 1.355 . S
C3143 C3145 1.419 . S
C3144 C3142 1.415 . S
C3144 C3149 1.425 . S
C3144 C3151 1.409 . S
C3145 H3137 0.930 . S
C3145 C3143 1.419 . S
C3145 C3146 1.362 . S
C3146 H3138 0.930 . S
C3146 C3145 1.362 . S
C3146 C3149 1.409 . S
C3147 H3139 0.930 . S
C3147 C3148 1.355 . S
C3147 C3149 1.415 . S
C3148 C3147 1.355 . S
C3148 C3150 1.419 . S
C3149 C3144 1.425 . S
C3149 C3146 1.409 . S
C3149 C3147 1.415 . S
C3150 H3140 0.930 . S
C3150 C3148 1.419 . S
C3150 C3151 1.362 . S
C3151 H3141 0.930 . S
C3151 C3144 1.409 . S
C3151 C3150 1.362 . S
H3152 C3158 0.930 . S
H3153 C3161 0.930 . S
H3154 C3162 0.930 . S
H3155 C3163 0.930 . S
H3156 C3166 0.930 . S
H3157 C3167 0.930 . S
C3158 H3152 0.930 . S
C3158 C3159 1.355 . S
C3158 C3160 1.415 . S
C3159 C3158 1.355 . S
C3159 C3161 1.419 . S
C3160 C3158 1.415 . S
C3160 C3165 1.425 . S
C3160 C3167 1.409 . S
C3161 H3153 0.930 . S
C3161 C3159 1.419 . S
C3161 C3162 1.362 . S
C3162 H3154 0.930 . S
C3162 C3161 1.362 . S
C3162 C3165 1.409 . S
C3163 H3155 0.930 . S
C3163 C3164 1.355 . S
C3163 C3165 1.415 . S
C3164 C3163 1.355 . S
C3164 C3166 1.419 . S
C3165 C3160 1.425 . S
C3165 C3162 1.409 . S
C3165 C3163 1.415 . S
C3166 H3156 0.930 . S
C3166 C3164 1.419 . S
C3166 C3167 1.362 . S
C3167 H3157 0.930 . S
C3167 C3160 1.409 . S
C3167 C3166 1.362 . S
C1447 C10 1.713 . S
C1452 C91 1.819 . S
C1463 C11 1.830 . S
C1468 C50 1.741 1_545 S
C1479 C90 1.757 1_655 S
C1484 C51 1.824 . S
C1495 C130 1.790 . S
C1500 C171 1.888 . S
C1511 C211 1.901 . S
C1516 C170 1.794 1_565 S
C1527 C210 1.794 1_455 S
C1532 C131 1.884 . S
C1543 C259 1.757 . S
C1548 C322 1.790 . S
C1559 C299 1.753 1_565 S
C1564 C242 1.826 . S
C1575 C339 1.756 1_455 S
C1580 C282 1.824 . S
C1591 C379 1.839 . S
C1596 C402 1.891 . S
C1607 C442 1.886 . S
C1612 C419 1.846 1_545 S
C1623 C362 1.871 . S
C1628 C459 1.813 1_655 S
C1639 C571 1.878 . S
C1644 C490 1.833 . S
C1655 C530 1.833 . S
C1660 C491 1.877 . S
C1671 C531 1.874 . S
C1676 C570 1.836 . S
C1687 C610 1.858 . S
C1692 C651 1.881 . S
C1703 C691 1.894 . S
C1708 C650 1.821 . S
C1719 C611 1.918 . S
C1724 C690 1.839 . S
C1735 C739 1.752 . S
C1740 C802 1.861 . S
C1751 C779 1.763 . S
C1756 C722 1.862 . S
C1767 C762 1.819 . S
C1772 C819 1.798 . S
C1783 C882 1.711 . S
C1788 C859 1.711 1_554 S
C1799 C899 1.628 1_554 S
C1804 C922 1.734 . S
C1815 C842 1.721 . S
C1820 C939 1.661 1_554 S
C1831 C970 1.746 . S
C1836 C1051 1.849 . S
C1847 C1010 1.814 . S
C1852 C971 1.833 . S
C1863 C1050 1.751 . S
C1868 C1011 1.840 . S
C1879 C1090 1.665 1_556 S
C1884 C1131 1.741 . S
C1895 C1130 1.705 1_556 S
C1900 C1171 1.709 . S
C1911 C1170 1.704 1_556 S
C1916 C1091 1.729 . S
C1927 C1219 1.838 . S
C1932 C1282 1.873 . S
C1943 C1259 1.786 . S
C1948 C1202 1.869 . S
C1959 C1242 1.874 . S
C1964 C1299 1.836 . S
C1975 C1339 1.873 . S
C1980 C1362 1.887 . S
C1991 C1379 1.812 . S
C1996 C1402 1.918 . S
C2007 C1322 1.910 . S
C2012 C1419 1.856 . S
C2023 C2 1.846 . S
C2028 C810 1.798 . S
C2039 C730 1.815 1_565 S
C2044 C42 1.837 . S
C2055 C82 1.870 . S
C2060 C770 1.799 . S
C2071 C122 1.742 . S
C2076 C1370 1.734 . S
C2087 C1410 1.715 1_545 S
C2092 C162 1.737 . S
C2103 C202 1.745 . S
C2108 C1330 1.663 1_655 S
C2119 C1059 1.798 . S
C2124 C251 1.846 . S
C2135 C291 1.872 . S
C2140 C979 1.804 . S
C2151 C331 1.846 . S
C2156 C1019 1.846 1_655 S
C2167 C659 1.748 . S
C2172 C371 1.764 . S
C2183 C699 1.735 1_565 S
C2188 C411 1.742 . S
C2199 C619 1.728 . S
C2204 C451 1.779 . S
C2215 C482 1.798 . S
C2220 C1290 1.741 . S
C2231 C522 1.826 . S
C2236 C1210 1.784 . S
C2247 C1250 1.748 . S
C2252 C562 1.824 . S
C2263 C410 1.754 . S
C2268 C602 1.776 1_455 S
C2279 C450 1.723 . S
C2284 C642 1.797 . S
C2295 C370 1.762 . S
C2300 C682 1.820 1_565 S
C2311 C99 1.832 . S
C2316 C731 1.833 1_565 S
C2327 C771 1.831 1_455 S
C2332 C19 1.824 . S
C2343 C811 1.870 . S
C2348 C59 1.812 . S
C2359 C1139 1.749 . S
C2364 C851 1.840 . S
C2375 C1179 1.749 . S
C2380 C891 1.814 . S
C2391 C931 1.852 . S
C2396 C1099 1.759 1_554 S
C2407 C330 1.793 . S
C2412 C962 1.863 1_545 S
C2423 C250 1.820 . S
C2428 C1002 1.831 1_655 S
C2439 C290 1.826 . S
C2444 C1042 1.869 . S
C2455 C1082 1.823 . S
C2460 C890 1.796 1_556 S
C2471 C930 1.757 1_556 S
C2476 C1122 1.848 . S
C2487 C1162 1.809 . S
C2492 C850 1.754 . S
C2503 C1211 1.794 . S
C2508 C579 1.746 . S
C2519 C1251 1.828 . S
C2524 C499 1.768 . S
C2535 C1291 1.828 . S
C2540 C539 1.779 . S
C2551 C1331 1.803 1_655 S
C2556 C179 1.787 . S
C2567 C219 1.787 . S
C2572 C1371 1.793 . S
C2583 C139 1.732 . S
C2588 C1411 1.812 1_545 S
C2599 C1167 2.319 . S
C2604 C7 2.288 . S
C2615 C1087 2.317 . S
C2620 C47 2.280 . S
C2631 C87 2.321 . S
C2636 C1127 2.292 . S
C2647 C527 2.498 . S
C2652 C127 2.496 . S
C2663 C167 2.492 . S
C2668 C567 2.515 . S
C2679 C207 2.530 . S
C2684 C487 2.509 . S
C2695 C256 2.320 . S
C2700 C936 2.295 . S
C2711 C296 2.301 . S
C2716 C856 2.305 . S
C2727 C336 2.282 . S
C2732 C896 2.265 . S
C2743 C1256 2.526 . S
C2748 C376 2.526 . S
C2759 C1296 2.506 . S
C2764 C416 2.491 . S
C2775 C1216 2.522 . S
C2780 C456 2.530 . S
C2791 C607 2.572 1_455 S
C2796 C1007 2.552 . S
C2807 C647 2.565 . S
C2812 C1047 2.544 . S
C2823 C687 2.568 1_565 S
C2828 C967 2.546 . S
C2839 C736 2.571 1_565 S
C2844 C1416 2.572 1_545 S
C2855 C1336 2.573 1_655 S
C2860 C776 2.568 1_455 S
C2871 C816 2.560 . S
C2876 C1376 2.576 . S
C2887 C176 1.150 . S
C2892 C16 1.166 . S
C2903 C216 1.173 . S
C2908 C56 1.163 . S
C2919 C136 1.157 . S
C2924 C96 1.157 . S
C2935 C247 1.161 . S
C2940 C407 1.152 . S
C2951 C447 1.166 . S
C2956 C287 1.170 . S
C2967 C327 1.165 . S
C2972 C367 1.171 . S
C2983 C656 1.250 . S
C2988 C496 1.232 . S
C2999 C696 1.247 . S
C3004 C536 1.250 . S
C3015 C616 1.230 . S
C3020 C576 1.250 . S
C3031 C887 1.507 . S
C3036 C727 1.531 . S
C3047 C767 1.512 . S
C3052 C927 1.529 . S
C3063 C807 1.512 . S
C3068 C847 1.530 . S
C3079 C976 1.498 . S
C3084 C1136 1.514 . S
C3095 C1176 1.511 . S
C3100 C1016 1.517 . S
C3111 C1056 1.517 . S
C3116 C1096 1.505 . S
C3127 C1207 1.253 . S
C3132 C1367 1.245 . S
C3143 C1407 1.243 . S
C3148 C1247 1.253 . S
C3159 C1287 1.237 . S
C3164 C1327 1.255 . S
