# Generated by pormake.
# Topology rob, (6)-cn, num edge types: 1
# Building blocks:
#     Node 0, Type 0, BuildingBlock: KUMBUR_clean_sbu_1, # of connection points: 6
#     Node 1, Type 0, BuildingBlock: KUMBUR_clean_sbu_1, # of connection points: 6
#     Node 2, Type 0, BuildingBlock: KUMBUR_clean_sbu_1, # of connection points: 6
#     Node 3, Type 0, BuildingBlock: KUMBUR_clean_sbu_1, # of connection points: 6
#     Edge 4, Type (0, 0), BuildingBlock: OJICUG_clean_linker_0, # of connection points: 2
#     Edge 5, Type (0, 0), BuildingBlock: OJICUG_clean_linker_0, # of connection points: 2
#     Edge 6, Type (0, 0), BuildingBlock: OJICUG_clean_linker_0, # of connection points: 2
#     Edge 7, Type (0, 0), BuildingBlock: OJICUG_clean_linker_0, # of connection points: 2
#     Edge 8, Type (0, 0), BuildingBlock: OJICUG_clean_linker_0, # of connection points: 2
#     Edge 9, Type (0, 0), BuildingBlock: OJICUG_clean_linker_0, # of connection points: 2
#     Edge 10, Type (0, 0), BuildingBlock: OJICUG_clean_linker_0, # of connection points: 2
#     Edge 11, Type (0, 0), BuildingBlock: OJICUG_clean_linker_0, # of connection points: 2
#     Edge 12, Type (0, 0), BuildingBlock: OJICUG_clean_linker_0, # of connection points: 2
#     Edge 13, Type (0, 0), BuildingBlock: OJICUG_clean_linker_0, # of connection points: 2
#     Edge 14, Type (0, 0), BuildingBlock: OJICUG_clean_linker_0, # of connection points: 2
#     Edge 15, Type (0, 0), BuildingBlock: OJICUG_clean_linker_0, # of connection points: 2
# Relax obj value: 0.026
# Max RMSD: 0.136
# Mean RMSD: 0.136
data_MOF--net-rob--node1-KUMBUR_clean_sbu_1--edge1-OJICUG_clean_linker_0
_symmetry_space_group_name_H-M    P1
_symmetry_Int_Tables_number       1
_symmetry_cell_setting            triclinic
loop_
_symmetry_equiv_pos_as_xyz
'x, y, z'
_cell_length_a     14.180968
_cell_length_b     17.654036
_cell_length_c     26.580731
_cell_angle_alpha  108.07664
_cell_angle_beta   90.751088
_cell_angle_gamma 91.115508
loop_
_atom_site_label
_atom_site_type_symbol
_atom_site_fract_x
_atom_site_fract_y
_atom_site_fract_z
_atom_type_partial_charge
Tb0 Tb 0.36035 0.13308 0.9844 0.0
C1 C 0.14258 0.43998 0.0758 0.0
N2 N 0.21314 0.41795 0.10257 0.0
C3 C 0.27823 0.55103 0.13069 0.0
C4 C 0.13975 0.51784 0.07339 0.0
C5 C 0.27988 0.4719 0.13074 0.0
C6 C 0.20833 0.57393 0.10126 0.0
C7 C 0.99815 0.40443 0.02292 0.0
C8 C 0.07329 0.38367 0.05018 0.0
C9 C 0.99682 0.4812 0.01906 0.0
C10 C 0.06869 0.53709 0.04322 0.0
Tb11 Tb 0.21871 0.2856 0.08791 0.0
N12 N 0.08249 0.30735 0.05 0.0
C13 C 0.9277 0.34704 0.99964 0.0
C14 C 1.01269 0.25132 0.02951 0.0
C15 C 0.93416 0.2704 1.00388 0.0
H16 H 0.33351 0.45387 0.15366 0.0
H17 H 0.87945 0.22584 0.98686 0.0
H18 H 0.24316 -0.04029 0.92834 0.0
H19 H 0.69622 0.20432 0.08693 0.0
H20 H 1.01746 0.1921 0.03241 0.0
H21 H 0.86805 0.36141 0.97866 0.0
H22 H 0.55626 0.23144 0.03913 0.0
H23 H 0.33088 0.59398 0.15301 0.0
H24 H 0.9392 0.49709 0.99818 0.0
H25 H 0.0677 0.59647 0.04097 0.0
H26 H 0.24517 0.82557 0.93826 0.0
H27 H 0.20699 0.63508 0.10085 0.0
H28 H 0.71009 0.07278 0.10137 0.0
N29 N 0.36219 0.00329 0.97994 0.0
C30 C 0.43304 -0.01468 1.00837 0.0
C31 C 0.2974 0.87032 0.95889 0.0
C32 C 0.43594 0.9103 1.01526 0.0
C33 C 0.29587 0.94675 0.95403 0.0
C34 C 0.36715 0.85235 0.99047 0.0
N35 N 0.49327 0.11677 0.0271 0.0
C36 C 0.56266 0.17395 0.04492 0.0
C37 C 0.57919 0.02564 0.05919 0.0
C38 C 0.50278 0.04284 0.03107 0.0
C39 C 0.64964 0.08434 0.0797 0.0
C40 C 0.64185 0.15871 0.07189 0.0
H41 H 0.36896 0.7933 0.99458 0.0
H42 H 0.50935 0.83713 0.05014 0.0
H43 H 0.64186 0.93577 0.08584 0.0
O44 O 0.46336 0.17072 0.94073 0.0
O45 O 0.36165 0.14032 0.0693 0.0
O46 O 0.36069 0.27197 0.11139 0.0
O47 O 0.39544 0.05574 0.90973 0.0
O48 O 0.39021 0.26116 0.99171 0.0
O49 O 0.3641 0.33044 0.07856 0.0
O50 O 0.18057 0.22973 0.14456 0.0
O51 O 0.20398 0.28157 1.0038 0.0
O52 O 0.22712 0.15343 0.95172 0.0
O53 O 0.16171 0.35481 0.1598 0.0
O54 O 0.17079 0.15931 0.07135 0.0
O55 O 0.21113 0.08965 0.98634 0.0
C56 C 0.38411 0.2014 0.11078 0.0
C57 C 0.437 0.1256 0.84979 0.0
C58 C 0.49134 0.18697 0.78383 0.0
C59 C 0.3983 0.1793 0.7639 0.0
C60 C 0.346 0.1166 0.8273 0.0
C61 C 0.32749 0.14217 0.78404 0.0
C62 C 0.51058 0.15923 0.82729 0.0
C63 C 0.40798 0.32386 0.03359 0.0
C64 C 0.45237 0.10781 0.89969 0.0
C65 C 0.50855 0.89472 0.04569 0.0
C66 C 0.58198 0.95077 0.06612 0.0
C67 C 0.19334 0.2238 0.9588 0.0
C68 C 0.04477 0.28289 0.19123 0.0
C69 C 0.92982 0.23414 0.24335 0.0
C70 C 0.85697 0.25021 0.21187 0.0
C71 C 0.96958 0.30316 0.16342 0.0
C72 C 1.02456 0.24872 0.2317 0.0
C73 C 0.87679 0.28531 0.17285 0.0
C74 C 0.16002 0.09635 0.02898 0.0
C75 C 0.14333 0.2936 0.17585 0.0
H76 H 0.38062 0.19981 0.73109 0.0
H77 H 0.28844 0.09141 0.84381 0.0
H78 H 0.25755 0.13382 0.76629 0.0
H79 H 0.58121 0.1657 0.84439 0.0
H80 H 0.78387 0.23749 0.2183 0.0
H81 H 0.98221 0.33269 0.13413 0.0
H82 H 0.08203 0.23567 0.25476 0.0
H83 H 0.81973 0.29969 0.1502 0.0
Tb84 Tb 0.8433 0.6608 0.96791 0.0
C85 C 0.60129 0.89911 0.17626 0.0
N86 N 0.69204 0.89142 0.16057 0.0
C87 C 0.73061 0.02224 0.21886 0.0
C88 C 0.57219 -0.03262 0.21573 0.0
C89 C 0.75684 0.95206 0.18075 0.0
C90 C 0.63829 0.02935 0.23694 0.0
C91 C 0.4417 0.84467 0.16542 0.0
C92 C 0.53755 0.83847 0.15172 0.0
C93 C 0.41287 0.91065 0.2069 0.0
C94 C 0.47855 -0.02884 0.23259 0.0
Tb95 Tb 0.7295 0.76873 0.10652 0.0
N96 N 0.56905 0.77524 0.11261 0.0
C97 C 0.37809 0.78459 0.13696 0.0
C98 C 0.50698 0.71654 0.0844 0.0
C99 C 0.41081 0.72088 0.09574 0.0
H100 H 0.82971 0.94482 0.16972 0.0
H101 H 0.36211 0.67499 0.07258 0.0
H102 H 0.76875 0.47572 0.90046 0.0
H103 H 0.19394 0.78115 0.03555 0.0
H104 H 0.52975 0.66754 0.05176 0.0
H105 H 0.30366 0.78739 0.14592 0.0
H106 H 1.02192 0.77663 0.04129 0.0
H107 H 0.78207 0.06987 0.23524 0.0
H108 H 0.34011 0.91565 0.21923 0.0
H109 H 0.45627 0.02054 0.26529 0.0
H110 H 0.83852 0.36222 0.8335 0.0
H111 H 0.61901 0.08298 0.26687 0.0
H112 H 0.2747 0.67527 0.96711 0.0
N113 N 0.8992 0.54101 0.92078 0.0
C114 C 0.99304 0.54274 0.91206 0.0
C115 C 0.88265 0.41256 0.85565 0.0
C116 C 0.03461 0.48138 0.87237 0.0
C117 C 0.84387 0.47614 0.89449 0.0
C118 C 0.97767 0.41659 0.84356 0.0
N119 N 1.00343 0.66643 0.97949 0.0
C120 C 0.05506 0.72926 1.01204 0.0
C121 C 0.14551 0.60954 0.93612 0.0
C122 C 0.0472 0.60707 0.94273 0.0
C123 C 0.19879 0.6724 0.97032 0.0
C124 C 0.15342 0.73209 1.00888 0.0
H125 H 1.00621 0.36973 0.81191 0.0
H126 H 0.16192 0.44526 0.82841 0.0
H127 H 0.26166 0.5528 0.88755 0.0
O128 O 0.90329 0.71781 0.9175 0.0
O129 O 0.89727 0.63234 0.03802 0.0
O130 O 0.87706 0.75428 0.09398 0.0
O131 O 0.79882 0.62255 0.88771 0.0
O132 O 0.84427 0.79401 0.99355 0.0
O133 O 0.8452 0.84206 0.08474 0.0
O134 O 0.75597 0.80143 0.18901 0.0
O135 O 0.6666 0.7923 0.03552 0.0
O136 O 0.69311 0.6743 0.97309 0.0
O137 O 0.73239 0.67631 0.14153 0.0
O138 O 0.68681 0.64135 0.07072 0.0
O139 O 0.73888 0.57542 0.98561 0.0
C140 C 0.90933 0.6838 0.08533 0.0
C141 C 0.83009 0.7094 0.83565 0.0
C142 C 0.8889 0.75803 0.76479 0.0
C143 C 0.7959 0.75076 0.74384 0.0
C144 C 0.73889 0.70186 0.81379 0.0
C145 C 0.72186 0.72448 0.76878 0.0
C146 C 0.90326 0.74114 0.8127 0.0
C147 C 0.87022 0.84933 0.03807 0.0
C148 C 0.85652 0.6729 0.87623 0.0
C149 C 0.13071 0.48778 0.862 0.0
C150 C 0.18685 0.55022 0.89488 0.0
C151 C 0.65377 0.74287 0.9869 0.0
C152 C 0.7563 0.70415 0.23649 0.0
C153 C 0.68682 0.65553 0.30503 0.0
C154 C 0.77365 0.67355 0.33327 0.0
C155 C 0.83914 0.72574 0.26711 0.0
C156 C 0.68028 0.66842 0.25514 0.0
C157 C 0.84832 0.70886 0.31463 0.0
C158 C 0.68993 0.57693 0.0286 0.0
C159 C 0.74598 0.72783 0.18847 0.0
H160 H 0.77976 0.76071 0.70659 0.0
H161 H 0.68199 0.67591 0.83015 0.0
H162 H 0.65215 0.71719 0.75112 0.0
H163 H 0.97269 0.74773 0.83109 0.0
H164 H 0.78243 0.66688 0.37214 0.0
H165 H 0.89597 0.75725 0.25479 0.0
H166 H 0.61513 0.65474 0.23204 0.0
H167 H 0.91159 0.72703 0.33875 0.0
Tb168 Tb 0.37546 0.76993 0.57719 0.0
C169 C 0.09726 0.46075 0.45028 0.0
N170 N 0.18148 0.49572 0.44713 0.0
C171 C 0.23947 0.37028 0.39257 0.0
C172 C 0.08037 0.37969 0.4239 0.0
C173 C 0.25246 0.45176 0.41838 0.0
C174 C 0.15269 0.3339 0.39522 0.0
C175 C 0.93531 0.47503 0.47895 0.0
C176 C 1.02631 0.50745 0.478 0.0
C177 C 0.91784 0.39444 0.45232 0.0
C178 C 0.99119 0.34713 0.42577 0.0
Tb179 Tb 0.19026 0.63035 0.48615 0.0
N180 N 0.04499 0.58596 0.50089 0.0
C181 C 0.86426 0.52494 0.50537 0.0
C182 C 0.97533 0.63584 0.52543 0.0
C183 C 0.88461 0.60586 0.52907 0.0
H184 H 0.3202 0.47838 0.4152 0.0
H185 H 0.83018 0.64529 0.54935 0.0
H186 H 0.24775 0.92602 0.64208 0.0
H187 H 0.74116 0.7438 0.5218 0.0
H188 H 0.9888 0.69899 0.54172 0.0
H189 H 0.79348 0.50185 0.50692 0.0
H190 H 0.58055 0.69343 0.52853 0.0
H191 H 0.29611 0.33597 0.3703 0.0
H192 H 0.8478 0.36925 0.45195 0.0
H193 H 0.98074 0.28541 0.40625 0.0
H194 H 0.26608 0.07135 0.66798 0.0
H195 H 0.14186 0.27086 0.37459 0.0
H196 H 0.77795 0.88843 0.55659 0.0
N197 N 0.38644 0.90434 0.61069 0.0
C198 C 0.47117 0.93698 0.60563 0.0
C199 C 0.3249 0.03409 0.6516 0.0
C200 C 0.48621 0.0191 0.62414 0.0
C201 C 0.3149 0.95133 0.6362 0.0
C202 C 0.41084 0.06797 0.6443 0.0
N203 N 0.52424 0.80873 0.56323 0.0
C204 C 0.59443 0.75676 0.54242 0.0
C205 C 0.63478 0.9189 0.58034 0.0
C206 C 0.54325 0.88769 0.58216 0.0
C207 C 0.7067 0.86655 0.55842 0.0
C208 C 0.68622 0.78496 0.53901 0.0
H209 H 0.41882 0.13169 0.65326 0.0
H210 H 0.58205 0.11316 0.63206 0.0
H211 H 0.72034 0.02696 0.59917 0.0
O212 O 0.35643 0.70571 0.63208 0.0
O213 O 0.414 0.73249 0.49282 0.0
O214 O 0.32677 0.61786 0.45019 0.0
O215 O 0.46449 0.79771 0.64422 0.0
O216 O 0.42664 0.64849 0.54567 0.0
O217 O 0.29968 0.56113 0.51549 0.0
O218 O 0.21132 0.69705 0.43315 0.0
O219 O 0.1589 0.665 0.57147 0.0
O220 O 0.23772 0.78466 0.61075 0.0
O221 O 0.09598 0.61085 0.42207 0.0
O222 O 0.13614 0.75122 0.51863 0.0
O223 O 0.26564 0.83675 0.54424 0.0
C224 C 0.39455 0.66924 0.45156 0.0
C225 C 0.40007 0.78253 0.72101 0.0
C226 C 0.44646 0.80644 0.81416 0.0
C227 C 0.38866 0.87281 0.82772 0.0
C228 C 0.33985 0.84736 0.73659 0.0
C229 C 0.33372 0.89182 0.78971 0.0
C230 C 0.45031 0.75989 0.76026 0.0
C231 C 0.38921 0.57619 0.5327 0.0
C232 C 0.42215 0.74799 0.66435 0.0
C233 C 0.57512 0.05048 0.62064 0.0
C234 C 0.65085 0.00121 0.60042 0.0
C235 C 0.17404 0.7311 0.61116 0.0
C236 C 0.15866 0.62602 0.34523 0.0
C237 C 0.10173 0.60569 0.25486 0.0
C238 C 0.15115 0.53476 0.23866 0.0
C239 C 0.21398 0.55837 0.32694 0.0
C240 C 0.10638 0.65209 0.30856 0.0
C241 C 0.20972 0.51255 0.27385 0.0
C242 C 0.17466 0.82292 0.52869 0.0
C243 C 0.14132 0.65957 0.40219 0.0
H244 H 0.38632 0.9098 0.86806 0.0
H245 H 0.29995 0.86532 0.70755 0.0
H246 H 0.28821 0.94255 0.8013 0.0
H247 H 0.4948 0.70857 0.74863 0.0
H248 H 0.1443 0.49743 0.19834 0.0
H249 H 0.2573 0.53916 0.35398 0.0
H250 H 0.06633 0.70588 0.3221 0.0
H251 H 0.24969 0.45859 0.26029 0.0
Tb252 Tb 0.8771 0.27713 0.5671 0.0
C253 C 0.55491 -0.02352 0.47904 0.0
N254 N 0.64505 -0.00604 0.46991 0.0
C255 C 0.67198 0.85664 0.42519 0.0
C256 C 0.51722 0.89898 0.45807 0.0
C257 C 0.70314 0.93579 0.44184 0.0
C258 C 0.57867 0.83841 0.43339 0.0
C259 C 0.40153 0.02562 0.50975 0.0
C260 C 0.49942 0.03802 0.50632 0.0
C261 C 0.36175 0.94927 0.48568 0.0
C262 C 0.4197 0.88572 0.46066 0.0
Tb263 Tb 0.68556 0.12486 0.49181 0.0
N264 N 0.54029 0.11162 0.52545 0.0
C265 C 0.34651 0.09137 0.53418 0.0
C266 C 0.48762 0.17494 0.55267 0.0
C267 C 0.39013 0.16596 0.55671 0.0
H268 H 0.77259 0.95063 0.43097 0.0
H269 H 0.3485 0.21699 0.57626 0.0
H270 H 0.79249 0.4508 0.63165 0.0
H271 H 0.20505 0.18995 0.46899 0.0
H272 H 0.51897 0.23348 0.57004 0.0
H273 H 0.2707 0.08566 0.53579 0.0
H274 H 0.03649 0.17367 0.48063 0.0
H275 H 0.71904 0.81033 0.40489 0.0
H276 H 0.2864 0.93893 0.48514 0.0
H277 H 0.38766 0.82778 0.44133 0.0
H278 H 0.85157 0.5901 0.66625 0.0
H279 H 0.55553 0.77775 0.42049 0.0
H280 H 0.28788 0.31765 0.51338 0.0
N281 N 0.92027 0.40796 0.59288 0.0
C282 C 1.01081 0.42507 0.58456 0.0
C283 C 0.89693 0.54394 0.64336 0.0
C284 C 0.05048 0.50129 0.60814 0.0
C285 C 0.86297 0.46576 0.62235 0.0
C286 C 0.99114 0.56129 0.63633 0.0
N287 N 1.02094 0.29234 0.53258 0.0
C288 C 0.06981 0.23091 0.49989 0.0
C289 C 0.16103 0.3765 0.54824 0.0
C290 C 0.06404 0.36438 0.5543 0.0
C291 C 0.21263 0.31235 0.51773 0.0
C292 C 0.16622 0.23985 0.49259 0.0
H293 H 1.01668 0.6209 0.65283 0.0
H294 H 0.18156 0.57051 0.62502 0.0
H295 H 0.27846 0.46075 0.5729 0.0
O296 O 0.89605 0.20614 0.61743 0.0
O297 O 0.86245 0.24967 0.48043 0.0
O298 O 0.81943 0.11872 0.45287 0.0
O299 O 0.93126 0.33221 0.6436 0.0
O300 O 0.93253 0.15402 0.54387 0.0
O301 O 0.81185 0.06033 0.50996 0.0
O302 O 0.65934 0.19229 0.44058 0.0
O303 O 0.69299 0.15731 0.57926 0.0
O304 O 0.74289 0.28723 0.60536 0.0
O305 O 0.62407 0.06666 0.41685 0.0
O306 O 0.63485 0.24866 0.51225 0.0
O307 O 0.75329 0.343 0.54885 0.0
C308 C 0.85494 0.18062 0.44276 0.0
C309 C 1.02763 0.25188 0.67577 0.0
C310 C 0.12388 0.25667 0.75355 0.0
C311 C 0.2036 0.27177 0.72684 0.0
C312 C 0.10967 0.25824 0.64843 0.0
C313 C 0.19713 0.26909 0.67409 0.0
C314 C 0.03521 0.24653 0.72722 0.0
C315 C 0.9004 0.07909 0.52814 0.0
C316 C 0.93554 0.26541 0.65462 0.0
C317 C 0.1479 0.51376 0.60418 0.0
C318 C 0.20327 0.45113 0.5746 0.0
C319 C 0.7036 0.22727 0.61599 0.0
C320 C 0.5224 0.14893 0.38688 0.0
C321 C 0.42464 0.17913 0.31995 0.0
C322 C 0.34348 0.1598 0.34355 0.0
C323 C 0.44033 0.12824 0.40881 0.0
C324 C 0.51377 0.17846 0.34386 0.0
C325 C 0.35169 0.13424 0.38771 0.0
C326 C 0.6663 0.32353 0.52867 0.0
C327 C 0.61649 0.13292 0.4053 0.0
H328 H 0.27125 0.2863 0.74657 0.0
H329 H 0.10586 0.25936 0.60831 0.0
H330 H 0.2596 0.27878 0.65378 0.0
H331 H 0.97154 0.2405 0.74794 0.0
H332 H 0.27405 0.16062 0.32624 0.0
H333 H 0.44424 0.10494 0.44104 0.0
H334 H 0.57674 0.1949 0.3267 0.0
H335 H 0.28971 0.11441 0.40366 0.0
C336 C 0.58044 0.50625 0.07627 0.0
C337 C 0.623 0.50776 0.0287 0.0
H338 H 0.48415 0.44906 0.11544 0.0
C339 C 0.59491 0.44602 0.98234 0.0
H340 H 0.59899 0.55158 0.11323 0.0
C341 C 0.52614 0.38668 0.98362 0.0
C342 C 0.48267 0.38647 0.03132 0.0
H343 H 0.62438 0.44436 0.94468 0.0
H344 H 0.50631 0.3413 0.94689 0.0
C345 C 0.51272 0.44708 0.07757 0.0
C346 C 0.54838 0.52881 0.55656 0.0
C347 C 0.45785 0.50978 0.53194 0.0
H348 H 0.68285 0.48844 0.57491 0.0
C349 C 0.4381 0.42835 0.50579 0.0
H350 H 0.56818 0.59021 0.5774 0.0
C351 C 0.50493 0.36892 0.50474 0.0
C352 C 0.59546 0.38823 0.52935 0.0
H353 H 0.37107 0.41026 0.48567 0.0
H354 H 0.48534 0.30737 0.48417 0.0
C355 C 0.61537 0.46972 0.5552 0.0
C356 C 0.04916 -0.02515 0.98421 0.0
C357 C 0.08463 0.03331 0.03029 0.0
H358 H 0.955 0.87408 0.94997 0.0
C359 C 0.04542 0.03189 0.07878 0.0
H360 H 0.07512 -0.02642 0.94587 0.0
C361 C 0.97593 -0.02582 0.08127 0.0
C362 C 0.94065 0.91536 0.03533 0.0
H363 H 0.06944 0.07522 0.11554 0.0
H364 H 0.95074 -0.02456 0.11971 0.0
C365 C 0.97879 0.91752 0.98666 0.0
C366 C 0.94768 0.93131 0.5067 0.0
C367 C 0.97087 0.0134 0.5279 0.0
H368 H 0.9905 0.80982 0.48985 0.0
C369 C 0.06389 0.03211 0.54923 0.0
H370 H 0.87825 0.91258 0.48971 0.0
C371 C 0.12953 -0.02793 0.54952 0.0
C372 C 0.10654 0.89003 0.52815 0.0
H373 H 0.08651 0.09384 0.56621 0.0
H374 H 0.19853 -0.00968 0.56679 0.0
C375 C 1.01343 0.8715 0.50683 0.0
C376 C 0.3606 0.12891 0.22771 0.0
C377 C 0.41716 0.18513 0.26594 0.0
H378 H 0.3102 0.08743 0.1475 0.0
C379 C 0.46887 0.24316 0.25126 0.0
H380 H 0.32055 0.0829 0.2377 0.0
C381 C 0.46116 0.24649 0.19959 0.0
C382 C 0.40415 0.19033 0.16188 0.0
H383 H 0.51303 0.28694 0.27993 0.0
H384 H 0.49836 0.2936 0.18924 0.0
C385 C 0.35569 0.13048 0.17587 0.0
C386 C 0.51255 0.6663 0.32497 0.0
C387 C 0.60172 0.63648 0.33223 0.0
H388 H 0.3758 0.69928 0.35762 0.0
C389 C 0.61229 0.60149 0.373 0.0
H390 H 0.50017 0.69311 0.29406 0.0
C391 C 0.54241 0.60865 0.41062 0.0
C392 C 0.45931 0.64817 0.40703 0.0
H393 H 0.67724 0.57333 0.3782 0.0
H394 H 0.55522 0.5867 0.44384 0.0
C395 C 0.44124 0.67093 0.36179 0.0
C396 C 0.53864 0.70242 0.9103 0.0
C397 C 0.59677 0.76215 0.94514 0.0
H398 H 0.44693 0.66892 0.84136 0.0
C399 C 0.60882 0.83501 0.93482 0.0
H400 H 0.52953 0.64492 0.91653 0.0
C401 C 0.5612 0.84873 0.89184 0.0
C402 C 0.50273 0.78902 0.85713 0.0
H403 H 0.65584 0.881 0.95956 0.0
H404 H 0.57047 0.90611 0.88548 0.0
C405 C 0.49224 0.71563 0.86686 0.0
C406 C 0.70446 0.18861 0.69951 0.0
C407 C 0.67199 0.23833 0.67079 0.0
H408 H 0.67088 0.13168 0.75794 0.0
C409 C 0.59581 0.28747 0.6902 0.0
H410 H 0.76427 0.15103 0.68569 0.0
C411 C 0.54384 0.27801 0.73238 0.0
C412 C 0.56589 0.21802 0.75522 0.0
H413 H 0.5708 0.32764 0.6696 0.0
H414 H 0.48098 0.31264 0.74375 0.0
C415 C 0.65095 0.17768 0.74106 0.0
C416 C 1.01927 0.71944 0.16357 0.0
C417 C 0.95599 0.66404 0.1295 0.0
H418 H 0.11506 0.74431 0.23032 0.0
C419 C 0.93532 0.59207 0.13945 0.0
H420 H 0.03545 0.77578 0.15693 0.0
C421 C 0.98037 0.57433 0.18144 0.0
C422 C 0.04568 0.62887 0.21474 0.0
H423 H 0.88495 0.5494 0.11453 0.0
H424 H 0.96515 0.51747 0.18754 0.0
C425 C 0.06416 0.70185 0.20569 0.0
C426 C 0.80722 0.23116 0.36876 0.0
C427 C 0.86136 0.17853 0.38662 0.0
H428 H 0.78795 0.29122 0.31146 0.0
C429 C 0.93308 0.13673 0.35404 0.0
H430 H 0.75297 0.26573 0.39306 0.0
C431 C 0.95526 0.15305 0.30677 0.0
C432 C 0.90433 0.20977 0.29075 0.0
H433 H 0.97658 0.09642 0.36714 0.0
H434 H 1.01346 0.12288 0.28354 0.0
C435 C 0.82826 0.24648 0.32174 0.0
C436 C 0.07816 0.20089 0.82662 0.0
C437 C 0.13333 0.25461 0.80912 0.0
H438 H 0.05475 0.14859 0.88856 0.0
C439 C 0.20161 0.30299 0.84428 0.0
H440 H 1.02652 0.16135 0.80048 0.0
C441 C 0.2144 0.29802 0.89515 0.0
C442 C 0.16256 0.24188 0.91122 0.0
H443 H 0.24774 0.3435 0.83244 0.0
H444 H 0.26964 0.33413 0.92054 0.0
C445 C 0.09392 0.19361 0.87697 0.0
C446 C 0.13012 0.73342 0.7014 0.0
C447 C 0.10919 0.75223 0.65523 0.0
H448 H 0.07727 0.71704 0.77129 0.0
C449 C 1.02587 0.79137 0.65153 0.0
H450 H 0.19613 0.70589 0.70563 0.0
C451 C 0.95783 0.8014 0.69037 0.0
C452 C 0.97111 0.77048 0.7329 0.0
H453 H 1.01194 0.81177 0.61776 0.0
H454 H 0.89332 0.83012 0.68535 0.0
C455 C 0.06122 0.74118 0.7396 0.0
loop_
_geom_bond_atom_site_label_1
_geom_bond_atom_site_label_2
_geom_bond_distance
_geom_bond_site_symmetry_2
_ccdc_geom_bond_type
Tb0 N29 2.617 1_545 S
Tb0 N35 2.572 . S
Tb0 O44 2.465 . S
Tb0 O45 2.387 1_556 S
Tb0 O47 2.428 . S
Tb0 O48 2.308 1_556 S
Tb0 O52 2.349 . S
Tb0 O55 2.393 . S
Tb0 C64 2.802 . S
C1 N2 1.379 . S
C1 C4 1.416 1_455 S
C1 C8 1.424 1_455 S
N2 C1 1.379 . S
N2 C5 1.334 . S
N2 Tb11 2.617 . S
C3 C5 1.390 . S
C3 C6 1.339 . S
C3 H23 0.930 . S
C4 C1 1.416 1_655 S
C4 C6 1.416 1_655 S
C4 C10 1.448 . S
C5 N2 1.334 . S
C5 C3 1.390 . S
C5 H16 0.930 . S
C6 C3 1.339 . S
C6 C4 1.416 1_455 S
C6 H27 0.930 . S
C7 C8 1.413 . S
C7 C9 1.427 . S
C7 C13 1.416 . S
C8 C1 1.424 1_655 S
C8 C7 1.413 . S
C8 N12 1.361 . S
C9 C7 1.427 . S
C9 C10 1.328 . S
C9 H24 0.929 . S
C10 C4 1.448 . S
C10 C9 1.328 . S
C10 H25 0.930 . S
Tb11 N2 2.617 . S
Tb11 N12 2.572 1_455 S
Tb11 O46 2.349 . S
Tb11 O49 2.393 . S
Tb11 O50 2.465 . S
Tb11 O51 2.387 1_554 S
Tb11 O53 2.428 . S
Tb11 O54 2.308 . S
Tb11 C75 2.802 . S
N12 C8 1.361 . S
N12 Tb11 2.572 1_655 S
N12 C14 1.340 . S
C13 C7 1.416 . S
C13 C15 1.332 . S
C13 H21 0.931 . S
C14 N12 1.340 . S
C14 C15 1.407 . S
C14 H20 0.930 . S
C15 C13 1.332 . S
C15 C14 1.407 . S
C15 H17 0.929 . S
H16 C5 0.930 . S
H17 C15 0.929 . S
H18 C33 0.930 . S
H19 C40 0.929 . S
H20 C14 0.930 . S
H21 C13 0.931 . S
H22 C36 0.930 . S
H23 C3 0.930 . S
H24 C9 0.929 . S
H25 C10 0.930 . S
H26 C31 0.930 . S
H27 C6 0.930 . S
H28 C39 0.931 . S
N29 Tb0 2.617 1_565 S
N29 C30 1.379 . S
N29 C33 1.334 . S
C30 N29 1.379 . S
C30 C32 1.416 . S
C30 C38 1.424 1_565 S
C31 H26 0.930 . S
C31 C33 1.390 . S
C31 C34 1.339 . S
C32 C30 1.416 . S
C32 C34 1.416 . S
C32 C65 1.448 . S
C33 H18 0.930 . S
C33 N29 1.334 . S
C33 C31 1.390 . S
C34 C31 1.339 . S
C34 C32 1.416 . S
C34 H41 0.930 . S
N35 Tb0 2.572 . S
N35 C36 1.340 . S
N35 C38 1.361 . S
C36 H22 0.930 . S
C36 N35 1.340 . S
C36 C40 1.407 1_556 S
C37 C38 1.413 1_554 S
C37 C39 1.416 . S
C37 C66 1.427 1_545 S
C38 C30 1.424 1_545 S
C38 N35 1.361 . S
C38 C37 1.413 1_556 S
C39 H28 0.931 . S
C39 C37 1.416 . S
C39 C40 1.332 . S
C40 H19 0.929 . S
C40 C36 1.407 1_554 S
C40 C39 1.332 . S
H41 C34 0.930 . S
H42 C65 0.924 1_554 S
H43 C66 0.929 . S
O44 Tb0 2.465 . S
O44 C64 1.264 . S
O45 Tb0 2.387 1_554 S
O45 C56 1.264 . S
O46 Tb11 2.349 . S
O46 C56 1.243 . S
O47 Tb0 2.428 . S
O47 C64 1.256 . S
O48 Tb0 2.308 1_554 S
O48 C63 1.266 . S
O49 Tb11 2.393 . S
O49 C63 1.248 . S
O50 Tb11 2.465 . S
O50 C75 1.264 . S
O51 Tb11 2.387 1_556 S
O51 C67 1.264 . S
O52 Tb0 2.349 . S
O52 C67 1.243 . S
O53 Tb11 2.428 . S
O53 C75 1.256 . S
O54 Tb11 2.308 . S
O54 C74 1.266 . S
O55 Tb0 2.393 . S
O55 C74 1.248 1_556 S
C56 O45 1.264 . S
C56 O46 1.243 . S
C57 C60 1.399 . S
C57 C62 1.383 . S
C57 C64 1.496 . S
C58 C59 1.399 . S
C58 C62 1.389 . S
C59 C58 1.399 . S
C59 C61 1.380 1_545 S
C59 H76 0.929 . S
C60 C57 1.399 . S
C60 C61 1.392 1_545 S
C60 H77 0.929 1_545 S
C61 C59 1.380 1_565 S
C61 C60 1.392 1_565 S
C61 H78 0.929 . S
C62 C57 1.383 . S
C62 C58 1.389 . S
C62 H79 0.931 . S
C63 O48 1.266 . S
C63 O49 1.248 . S
C64 Tb0 2.802 . S
C64 O44 1.264 . S
C64 O47 1.256 . S
C64 C57 1.496 . S
C65 C32 1.448 . S
C65 H42 0.924 1_556 S
C65 C66 1.328 1_556 S
C66 C37 1.427 1_565 S
C66 H43 0.929 . S
C66 C65 1.328 1_554 S
C67 O51 1.264 . S
C67 O52 1.243 . S
C68 C71 1.399 . S
C68 C72 1.383 . S
C68 C75 1.496 . S
C69 C70 1.399 . S
C69 C72 1.389 1_655 S
C70 C69 1.399 . S
C70 C73 1.380 1_655 S
C70 H80 0.929 . S
C71 C68 1.399 . S
C71 C73 1.392 . S
C71 H81 0.929 . S
C72 C68 1.383 . S
C72 C69 1.389 1_455 S
C72 H82 0.931 . S
C73 C70 1.380 1_455 S
C73 C71 1.392 . S
C73 H83 0.929 . S
C74 O54 1.266 . S
C74 O55 1.248 1_554 S
C75 Tb11 2.802 . S
C75 O50 1.264 . S
C75 O53 1.256 . S
C75 C68 1.496 . S
H76 C59 0.929 . S
H77 C60 0.929 1_565 S
H78 C61 0.929 . S
H79 C62 0.931 . S
H80 C70 0.929 . S
H81 C71 0.929 . S
H82 C72 0.931 . S
H83 C73 0.929 . S
Tb84 N113 2.617 . S
Tb84 N119 2.572 1_655 S
Tb84 O128 2.465 . S
Tb84 O129 2.387 1_556 S
Tb84 O131 2.428 . S
Tb84 O132 2.308 1_556 S
Tb84 O136 2.349 . S
Tb84 O139 2.393 . S
Tb84 C148 2.802 . S
C85 N86 1.379 . S
C85 C88 1.416 . S
C85 C92 1.424 1_545 S
N86 C85 1.379 . S
N86 C89 1.334 . S
N86 Tb95 2.617 1_545 S
C87 C89 1.390 . S
C87 C90 1.339 . S
C87 H107 0.930 . S
C88 C85 1.416 . S
C88 C90 1.416 . S
C88 C94 1.448 . S
C89 N86 1.334 . S
C89 C87 1.390 . S
C89 H100 0.930 . S
C90 C87 1.339 . S
C90 C88 1.416 . S
C90 H111 0.930 . S
C91 C92 1.413 . S
C91 C93 1.427 1_565 S
C91 C97 1.416 . S
C92 C85 1.424 1_565 S
C92 C91 1.413 . S
C92 N96 1.361 . S
C93 C91 1.427 1_545 S
C93 C94 1.328 . S
C93 H108 0.929 . S
C94 C88 1.448 . S
C94 C93 1.328 . S
C94 H109 0.930 . S
Tb95 N86 2.617 1_565 S
Tb95 N96 2.572 . S
Tb95 O130 2.349 . S
Tb95 O133 2.393 . S
Tb95 O134 2.465 . S
Tb95 O135 2.387 1_554 S
Tb95 O137 2.428 . S
Tb95 O138 2.308 . S
Tb95 C159 2.802 . S
N96 C92 1.361 . S
N96 Tb95 2.572 . S
N96 C98 1.340 . S
C97 C91 1.416 . S
C97 C99 1.332 . S
C97 H105 0.931 . S
C98 N96 1.340 . S
C98 C99 1.407 . S
C98 H104 0.930 . S
C99 C97 1.332 . S
C99 C98 1.407 . S
C99 H101 0.929 . S
H100 C89 0.930 . S
H101 C99 0.929 . S
H102 C117 0.930 . S
H103 C124 0.929 . S
H104 C98 0.930 . S
H105 C97 0.931 . S
H106 C120 0.930 . S
H107 C87 0.930 . S
H108 C93 0.929 . S
H109 C94 0.930 . S
H110 C115 0.930 . S
H111 C90 0.930 . S
H112 C123 0.931 . S
N113 Tb84 2.617 . S
N113 C114 1.379 . S
N113 C117 1.334 . S
C114 N113 1.379 . S
C114 C116 1.416 1_655 S
C114 C122 1.424 1_655 S
C115 H110 0.930 . S
C115 C117 1.390 . S
C115 C118 1.339 . S
C116 C114 1.416 1_455 S
C116 C118 1.416 1_455 S
C116 C149 1.448 . S
C117 H102 0.930 . S
C117 N113 1.334 . S
C117 C115 1.390 . S
C118 C115 1.339 . S
C118 C116 1.416 1_655 S
C118 H125 0.930 . S
N119 Tb84 2.572 1_455 S
N119 C120 1.340 . S
N119 C122 1.361 . S
C120 H106 0.930 . S
C120 N119 1.340 . S
C120 C124 1.407 1_556 S
C121 C122 1.413 1_554 S
C121 C123 1.416 . S
C121 C150 1.427 . S
C122 C114 1.424 1_455 S
C122 N119 1.361 . S
C122 C121 1.413 1_556 S
C123 H112 0.931 . S
C123 C121 1.416 . S
C123 C124 1.332 . S
C124 H103 0.929 . S
C124 C120 1.407 1_554 S
C124 C123 1.332 . S
H125 C118 0.930 . S
H126 C149 0.924 1_554 S
H127 C150 0.929 . S
O128 Tb84 2.465 . S
O128 C148 1.264 . S
O129 Tb84 2.387 1_554 S
O129 C140 1.264 . S
O130 Tb95 2.349 . S
O130 C140 1.243 . S
O131 Tb84 2.428 . S
O131 C148 1.256 . S
O132 Tb84 2.308 1_554 S
O132 C147 1.266 . S
O133 Tb95 2.393 . S
O133 C147 1.248 . S
O134 Tb95 2.465 . S
O134 C159 1.264 . S
O135 Tb95 2.387 1_556 S
O135 C151 1.264 . S
O136 Tb84 2.349 . S
O136 C151 1.243 . S
O137 Tb95 2.428 . S
O137 C159 1.256 . S
O138 Tb95 2.308 . S
O138 C158 1.266 . S
O139 Tb84 2.393 . S
O139 C158 1.248 1_556 S
C140 O129 1.264 . S
C140 O130 1.243 . S
C141 C144 1.399 . S
C141 C146 1.383 . S
C141 C148 1.496 . S
C142 C143 1.399 . S
C142 C146 1.389 1_455 S
C143 C142 1.399 . S
C143 C145 1.380 1_455 S
C143 H160 0.929 . S
C144 C141 1.399 . S
C144 C145 1.392 . S
C144 H161 0.929 . S
C145 C143 1.380 1_655 S
C145 C144 1.392 . S
C145 H162 0.929 . S
C146 C141 1.383 . S
C146 C142 1.389 1_655 S
C146 H163 0.931 . S
C147 O132 1.266 . S
C147 O133 1.248 . S
C148 Tb84 2.802 . S
C148 O128 1.264 . S
C148 O131 1.256 . S
C148 C141 1.496 . S
C149 C116 1.448 . S
C149 H126 0.924 1_556 S
C149 C150 1.328 1_556 S
C150 C121 1.427 . S
C150 H127 0.929 . S
C150 C149 1.328 1_554 S
C151 O135 1.264 . S
C151 O136 1.243 . S
C152 C155 1.399 . S
C152 C156 1.383 . S
C152 C159 1.496 . S
C153 C154 1.399 . S
C153 C156 1.389 . S
C154 C153 1.399 . S
C154 C157 1.380 1_565 S
C154 H164 0.929 . S
C155 C152 1.399 . S
C155 C157 1.392 1_565 S
C155 H165 0.929 1_565 S
C156 C152 1.383 . S
C156 C153 1.389 . S
C156 H166 0.931 . S
C157 C154 1.380 1_545 S
C157 C155 1.392 1_545 S
C157 H167 0.929 . S
C158 O138 1.266 . S
C158 O139 1.248 1_554 S
C159 Tb95 2.802 . S
C159 O134 1.264 . S
C159 O137 1.256 . S
C159 C152 1.496 . S
H160 C143 0.929 . S
H161 C144 0.929 . S
H162 C145 0.929 . S
H163 C146 0.931 . S
H164 C154 0.929 . S
H165 C155 0.929 1_545 S
H166 C156 0.931 . S
H167 C157 0.929 . S
Tb168 N197 2.617 1_565 S
Tb168 N203 2.572 . S
Tb168 O212 2.465 . S
Tb168 O213 2.387 . S
Tb168 O215 2.428 . S
Tb168 O216 2.308 . S
Tb168 O220 2.349 . S
Tb168 O223 2.393 . S
Tb168 C232 2.802 . S
C169 N170 1.379 . S
C169 C172 1.416 1_455 S
C169 C176 1.424 1_455 S
N170 C169 1.379 . S
N170 C173 1.334 . S
N170 Tb179 2.617 . S
C171 C173 1.390 . S
C171 C174 1.339 . S
C171 H191 0.930 . S
C172 C169 1.416 1_655 S
C172 C174 1.416 1_655 S
C172 C178 1.448 . S
C173 N170 1.334 . S
C173 C171 1.390 . S
C173 H184 0.930 . S
C174 C171 1.339 . S
C174 C172 1.416 1_455 S
C174 H195 0.930 . S
C175 C176 1.413 . S
C175 C177 1.427 . S
C175 C181 1.416 . S
C176 C169 1.424 1_655 S
C176 C175 1.413 . S
C176 N180 1.361 . S
C177 C175 1.427 . S
C177 C178 1.328 . S
C177 H192 0.929 . S
C178 C172 1.448 . S
C178 C177 1.328 . S
C178 H193 0.930 . S
Tb179 N170 2.617 . S
Tb179 N180 2.572 1_455 S
Tb179 O214 2.349 . S
Tb179 O217 2.393 . S
Tb179 O218 2.465 . S
Tb179 O219 2.387 . S
Tb179 O221 2.428 . S
Tb179 O222 2.308 . S
Tb179 C243 2.802 . S
N180 C176 1.361 . S
N180 Tb179 2.572 1_655 S
N180 C182 1.340 . S
C181 C175 1.416 . S
C181 C183 1.332 . S
C181 H189 0.931 . S
C182 N180 1.340 . S
C182 C183 1.407 . S
C182 H188 0.930 . S
C183 C181 1.332 . S
C183 C182 1.407 . S
C183 H185 0.929 . S
H184 C173 0.930 . S
H185 C183 0.929 . S
H186 C201 0.930 . S
H187 C208 0.929 . S
H188 C182 0.930 . S
H189 C181 0.931 . S
H190 C204 0.930 . S
H191 C171 0.930 . S
H192 C177 0.929 . S
H193 C178 0.930 . S
H194 C199 0.930 . S
H195 C174 0.930 . S
H196 C207 0.931 . S
N197 Tb168 2.617 1_545 S
N197 C198 1.379 . S
N197 C201 1.334 . S
C198 N197 1.379 . S
C198 C200 1.416 . S
C198 C206 1.424 1_545 S
C199 H194 0.930 . S
C199 C201 1.390 . S
C199 C202 1.339 . S
C200 C198 1.416 . S
C200 C202 1.416 . S
C200 C233 1.448 . S
C201 H186 0.930 . S
C201 N197 1.334 . S
C201 C199 1.390 . S
C202 C199 1.339 . S
C202 C200 1.416 . S
C202 H209 0.930 . S
N203 Tb168 2.572 . S
N203 C204 1.340 . S
N203 C206 1.361 . S
C204 H190 0.930 . S
C204 N203 1.340 . S
C204 C208 1.407 . S
C205 C206 1.413 . S
C205 C207 1.416 . S
C205 C234 1.427 1_565 S
C206 C198 1.424 1_565 S
C206 N203 1.361 . S
C206 C205 1.413 . S
C207 H196 0.931 . S
C207 C205 1.416 . S
C207 C208 1.332 . S
C208 H187 0.929 . S
C208 C204 1.407 . S
C208 C207 1.332 . S
H209 C202 0.930 . S
H210 C233 0.930 . S
H211 C234 0.929 . S
O212 Tb168 2.465 . S
O212 C232 1.264 . S
O213 Tb168 2.387 . S
O213 C224 1.264 . S
O214 Tb179 2.349 . S
O214 C224 1.243 . S
O215 Tb168 2.428 . S
O215 C232 1.256 . S
O216 Tb168 2.308 . S
O216 C231 1.266 . S
O217 Tb179 2.393 . S
O217 C231 1.248 . S
O218 Tb179 2.465 . S
O218 C243 1.264 . S
O219 Tb179 2.387 . S
O219 C235 1.264 . S
O220 Tb168 2.349 . S
O220 C235 1.243 . S
O221 Tb179 2.428 . S
O221 C243 1.256 . S
O222 Tb179 2.308 . S
O222 C242 1.266 . S
O223 Tb168 2.393 . S
O223 C242 1.248 . S
C224 O213 1.264 . S
C224 O214 1.243 . S
C225 C228 1.399 . S
C225 C230 1.383 . S
C225 C232 1.496 . S
C226 C227 1.399 . S
C226 C230 1.389 . S
C227 C226 1.399 . S
C227 C229 1.380 1_565 S
C227 H244 0.929 . S
C228 C225 1.399 . S
C228 C229 1.392 1_565 S
C228 H245 0.929 1_565 S
C229 C227 1.380 1_545 S
C229 C228 1.392 1_545 S
C229 H246 0.929 . S
C230 C225 1.383 . S
C230 C226 1.389 . S
C230 H247 0.931 . S
C231 O216 1.266 . S
C231 O217 1.248 . S
C232 Tb168 2.802 . S
C232 O212 1.264 . S
C232 O215 1.256 . S
C232 C225 1.496 . S
C233 C200 1.448 . S
C233 H210 0.930 . S
C233 C234 1.328 . S
C234 C205 1.427 1_545 S
C234 H211 0.929 . S
C234 C233 1.328 . S
C235 O219 1.264 . S
C235 O220 1.243 . S
C236 C239 1.399 . S
C236 C240 1.383 . S
C236 C243 1.496 . S
C237 C238 1.399 . S
C237 C240 1.389 1_655 S
C238 C237 1.399 . S
C238 C241 1.380 1_655 S
C238 H248 0.929 . S
C239 C236 1.399 . S
C239 C241 1.392 . S
C239 H249 0.929 . S
C240 C236 1.383 . S
C240 C237 1.389 1_455 S
C240 H250 0.931 . S
C241 C238 1.380 1_455 S
C241 C239 1.392 . S
C241 H251 0.929 . S
C242 O222 1.266 . S
C242 O223 1.248 . S
C243 Tb179 2.802 . S
C243 O218 1.264 . S
C243 O221 1.256 . S
C243 C236 1.496 . S
H244 C227 0.929 . S
H245 C228 0.929 1_545 S
H246 C229 0.929 . S
H247 C230 0.931 . S
H248 C238 0.929 . S
H249 C239 0.929 . S
H250 C240 0.931 . S
H251 C241 0.929 . S
Tb252 N281 2.617 . S
Tb252 N287 2.572 1_655 S
Tb252 O296 2.465 . S
Tb252 O297 2.387 . S
Tb252 O299 2.428 . S
Tb252 O300 2.308 . S
Tb252 O304 2.349 . S
Tb252 O307 2.393 . S
Tb252 C316 2.802 . S
C253 N254 1.379 . S
C253 C256 1.416 . S
C253 C260 1.424 1_565 S
N254 C253 1.379 . S
N254 C257 1.334 . S
N254 Tb263 2.617 1_565 S
C255 C257 1.390 . S
C255 C258 1.339 . S
C255 H275 0.930 . S
C256 C253 1.416 . S
C256 C258 1.416 . S
C256 C262 1.448 . S
C257 N254 1.334 . S
C257 C255 1.390 . S
C257 H268 0.930 . S
C258 C255 1.339 . S
C258 C256 1.416 . S
C258 H279 0.930 . S
C259 C260 1.413 . S
C259 C261 1.427 1_545 S
C259 C265 1.416 . S
C260 C253 1.424 1_545 S
C260 C259 1.413 . S
C260 N264 1.361 . S
C261 C259 1.427 1_565 S
C261 C262 1.328 . S
C261 H276 0.929 . S
C262 C256 1.448 . S
C262 C261 1.328 . S
C262 H277 0.930 . S
Tb263 N254 2.617 1_545 S
Tb263 N264 2.572 . S
Tb263 O298 2.349 . S
Tb263 O301 2.393 . S
Tb263 O302 2.465 . S
Tb263 O303 2.387 . S
Tb263 O305 2.428 . S
Tb263 O306 2.308 . S
Tb263 C327 2.802 . S
N264 C260 1.361 . S
N264 Tb263 2.572 . S
N264 C266 1.340 . S
C265 C259 1.416 . S
C265 C267 1.332 . S
C265 H273 0.931 . S
C266 N264 1.340 . S
C266 C267 1.407 . S
C266 H272 0.930 . S
C267 C265 1.332 . S
C267 C266 1.407 . S
C267 H269 0.929 . S
H268 C257 0.930 . S
H269 C267 0.929 . S
H270 C285 0.930 . S
H271 C292 0.929 . S
H272 C266 0.930 . S
H273 C265 0.931 . S
H274 C288 0.930 . S
H275 C255 0.930 . S
H276 C261 0.929 . S
H277 C262 0.930 . S
H278 C283 0.930 . S
H279 C258 0.930 . S
H280 C291 0.931 . S
N281 Tb252 2.617 . S
N281 C282 1.379 . S
N281 C285 1.334 . S
C282 N281 1.379 . S
C282 C284 1.416 1_655 S
C282 C290 1.424 1_655 S
C283 H278 0.930 . S
C283 C285 1.390 . S
C283 C286 1.339 . S
C284 C282 1.416 1_455 S
C284 C286 1.416 1_455 S
C284 C317 1.448 . S
C285 H270 0.930 . S
C285 N281 1.334 . S
C285 C283 1.390 . S
C286 C283 1.339 . S
C286 C284 1.416 1_655 S
C286 H293 0.930 . S
N287 Tb252 2.572 1_455 S
N287 C288 1.340 . S
N287 C290 1.361 . S
C288 H274 0.930 . S
C288 N287 1.340 . S
C288 C292 1.407 . S
C289 C290 1.413 . S
C289 C291 1.416 . S
C289 C318 1.427 . S
C290 C282 1.424 1_455 S
C290 N287 1.361 . S
C290 C289 1.413 . S
C291 H280 0.931 . S
C291 C289 1.416 . S
C291 C292 1.332 . S
C292 H271 0.929 . S
C292 C288 1.407 . S
C292 C291 1.332 . S
H293 C286 0.930 . S
H294 C317 0.930 . S
H295 C318 0.929 . S
O296 Tb252 2.465 . S
O296 C316 1.264 . S
O297 Tb252 2.387 . S
O297 C308 1.264 . S
O298 Tb263 2.349 . S
O298 C308 1.243 . S
O299 Tb252 2.428 . S
O299 C316 1.256 . S
O300 Tb252 2.308 . S
O300 C315 1.266 . S
O301 Tb263 2.393 . S
O301 C315 1.248 . S
O302 Tb263 2.465 . S
O302 C327 1.264 . S
O303 Tb263 2.387 . S
O303 C319 1.264 . S
O304 Tb252 2.349 . S
O304 C319 1.243 . S
O305 Tb263 2.428 . S
O305 C327 1.256 . S
O306 Tb263 2.308 . S
O306 C326 1.266 . S
O307 Tb252 2.393 . S
O307 C326 1.248 . S
C308 O297 1.264 . S
C308 O298 1.243 . S
C309 C312 1.399 . S
C309 C314 1.383 . S
C309 C316 1.496 . S
C310 C311 1.399 . S
C310 C314 1.389 1_455 S
C311 C310 1.399 . S
C311 C313 1.380 1_455 S
C311 H328 0.929 . S
C312 C309 1.399 . S
C312 C313 1.392 . S
C312 H329 0.929 . S
C313 C311 1.380 1_655 S
C313 C312 1.392 . S
C313 H330 0.929 . S
C314 C309 1.383 . S
C314 C310 1.389 1_655 S
C314 H331 0.931 . S
C315 O300 1.266 . S
C315 O301 1.248 . S
C316 Tb252 2.802 . S
C316 O296 1.264 . S
C316 O299 1.256 . S
C316 C309 1.496 . S
C317 C284 1.448 . S
C317 H294 0.930 . S
C317 C318 1.328 . S
C318 C289 1.427 . S
C318 H295 0.929 . S
C318 C317 1.328 . S
C319 O303 1.264 . S
C319 O304 1.243 . S
C320 C323 1.399 . S
C320 C324 1.383 . S
C320 C327 1.496 . S
C321 C322 1.399 . S
C321 C324 1.389 . S
C322 C321 1.399 . S
C322 C325 1.380 1_545 S
C322 H332 0.929 . S
C323 C320 1.399 . S
C323 C325 1.392 1_545 S
C323 H333 0.929 1_545 S
C324 C320 1.383 . S
C324 C321 1.389 . S
C324 H334 0.931 . S
C325 C322 1.380 1_565 S
C325 C323 1.392 1_565 S
C325 H335 0.929 . S
C326 O306 1.266 . S
C326 O307 1.248 . S
C327 Tb263 2.802 . S
C327 O302 1.264 . S
C327 O305 1.256 . S
C327 C320 1.496 . S
H328 C311 0.929 . S
H329 C312 0.929 . S
H330 C313 0.929 . S
H331 C314 0.931 . S
H332 C322 0.929 . S
H333 C323 0.929 1_565 S
H334 C324 0.931 . S
H335 C325 0.929 . S
C336 C337 1.387 . S
C336 H340 0.950 . S
C336 C345 1.390 . S
C337 C336 1.387 . S
C337 C339 1.387 1_554 S
H338 C345 0.950 . S
C339 C337 1.387 1_556 S
C339 C341 1.390 . S
C339 H343 0.950 . S
H340 C336 0.950 . S
C341 C339 1.390 . S
C341 C342 1.387 1_556 S
C341 H344 0.950 . S
C342 C341 1.387 1_554 S
C342 C345 1.387 . S
H343 C339 0.950 . S
H344 C341 0.950 . S
C345 C336 1.390 . S
C345 H338 0.950 . S
C345 C342 1.387 . S
C346 C347 1.387 . S
C346 H350 0.950 . S
C346 C355 1.390 . S
C347 C346 1.387 . S
C347 C349 1.387 . S
H348 C355 0.950 . S
C349 C347 1.387 . S
C349 C351 1.390 . S
C349 H353 0.950 . S
H350 C346 0.950 . S
C351 C349 1.390 . S
C351 C352 1.387 . S
C351 H354 0.950 . S
C352 C351 1.387 . S
C352 C355 1.387 . S
H353 C349 0.950 . S
H354 C351 0.950 . S
C355 C346 1.390 . S
C355 H348 0.950 . S
C355 C352 1.387 . S
C356 C357 1.387 1_556 S
C356 H360 0.950 . S
C356 C365 1.390 1_445 S
C357 C356 1.387 1_554 S
C357 C359 1.387 . S
H358 C365 0.950 . S
C359 C357 1.387 . S
C359 C361 1.390 1_445 S
C359 H363 0.950 . S
H360 C356 0.950 . S
C361 C359 1.390 1_665 S
C361 C362 1.387 . S
C361 H364 0.950 . S
C362 C361 1.387 . S
C362 C365 1.387 1_554 S
H363 C359 0.950 . S
H364 C361 0.950 . S
C365 C356 1.390 1_665 S
C365 H358 0.950 . S
C365 C362 1.387 1_556 S
C366 C367 1.387 . S
C366 H370 0.950 . S
C366 C375 1.390 1_645 S
C367 C366 1.387 . S
C367 C369 1.387 . S
H368 C375 0.950 . S
C369 C367 1.387 . S
C369 C371 1.390 1_645 S
C369 H373 0.950 . S
H370 C366 0.950 . S
C371 C369 1.390 1_465 S
C371 C372 1.387 . S
C371 H374 0.950 . S
C372 C371 1.387 . S
C372 C375 1.387 . S
H373 C369 0.950 . S
H374 C371 0.950 . S
C375 C366 1.390 1_465 S
C375 H368 0.950 . S
C375 C372 1.387 . S
C376 C377 1.387 . S
C376 H380 0.950 . S
C376 C385 1.390 . S
C377 C376 1.387 . S
C377 C379 1.387 . S
H378 C385 0.950 . S
C379 C377 1.387 . S
C379 C381 1.390 . S
C379 H383 0.950 . S
H380 C376 0.950 . S
C381 C379 1.390 . S
C381 C382 1.387 . S
C381 H384 0.950 . S
C382 C381 1.387 . S
C382 C385 1.387 . S
H383 C379 0.950 . S
H384 C381 0.950 . S
C385 C376 1.390 . S
C385 H378 0.950 . S
C385 C382 1.387 . S
C386 C387 1.387 . S
C386 H390 0.950 . S
C386 C395 1.390 . S
C387 C386 1.387 . S
C387 C389 1.387 . S
H388 C395 0.950 . S
C389 C387 1.387 . S
C389 C391 1.390 . S
C389 H393 0.950 . S
H390 C386 0.950 . S
C391 C389 1.390 . S
C391 C392 1.387 . S
C391 H394 0.950 . S
C392 C391 1.387 . S
C392 C395 1.387 . S
H393 C389 0.950 . S
H394 C391 0.950 . S
C395 C386 1.390 . S
C395 H388 0.950 . S
C395 C392 1.387 . S
C396 C397 1.387 . S
C396 H400 0.950 . S
C396 C405 1.390 . S
C397 C396 1.387 . S
C397 C399 1.387 . S
H398 C405 0.950 . S
C399 C397 1.387 . S
C399 C401 1.390 . S
C399 H403 0.950 . S
H400 C396 0.950 . S
C401 C399 1.390 . S
C401 C402 1.387 . S
C401 H404 0.950 . S
C402 C401 1.387 . S
C402 C405 1.387 . S
H403 C399 0.950 . S
H404 C401 0.950 . S
C405 C396 1.390 . S
C405 H398 0.950 . S
C405 C402 1.387 . S
C406 C407 1.387 . S
C406 H410 0.950 . S
C406 C415 1.390 . S
C407 C406 1.387 . S
C407 C409 1.387 . S
H408 C415 0.950 . S
C409 C407 1.387 . S
C409 C411 1.390 . S
C409 H413 0.950 . S
H410 C406 0.950 . S
C411 C409 1.390 . S
C411 C412 1.387 . S
C411 H414 0.950 . S
C412 C411 1.387 . S
C412 C415 1.387 . S
H413 C409 0.950 . S
H414 C411 0.950 . S
C415 C406 1.390 . S
C415 H408 0.950 . S
C415 C412 1.387 . S
C416 C417 1.387 . S
C416 H420 0.950 . S
C416 C425 1.390 . S
C417 C416 1.387 . S
C417 C419 1.387 . S
H418 C425 0.950 1_455 S
C419 C417 1.387 . S
C419 C421 1.390 . S
C419 H423 0.950 . S
H420 C416 0.950 . S
C421 C419 1.390 . S
C421 C422 1.387 . S
C421 H424 0.950 . S
C422 C421 1.387 . S
C422 C425 1.387 . S
H423 C419 0.950 . S
H424 C421 0.950 . S
C425 C416 1.390 . S
C425 H418 0.950 1_655 S
C425 C422 1.387 . S
C426 C427 1.387 . S
C426 H430 0.950 . S
C426 C435 1.390 . S
C427 C426 1.387 . S
C427 C429 1.387 . S
H428 C435 0.950 1_455 S
C429 C427 1.387 . S
C429 C431 1.390 . S
C429 H433 0.950 . S
H430 C426 0.950 . S
C431 C429 1.390 . S
C431 C432 1.387 . S
C431 H434 0.950 . S
C432 C431 1.387 . S
C432 C435 1.387 . S
H433 C429 0.950 . S
H434 C431 0.950 . S
C435 C426 1.390 . S
C435 H428 0.950 1_655 S
C435 C432 1.387 . S
C436 C437 1.387 . S
C436 H440 0.950 . S
C436 C445 1.390 . S
C437 C436 1.387 . S
C437 C439 1.387 . S
H438 C445 0.950 . S
C439 C437 1.387 . S
C439 C441 1.390 . S
C439 H443 0.950 . S
H440 C436 0.950 . S
C441 C439 1.390 . S
C441 C442 1.387 . S
C441 H444 0.950 . S
C442 C441 1.387 . S
C442 C445 1.387 . S
H443 C439 0.950 . S
H444 C441 0.950 . S
C445 C436 1.390 . S
C445 H438 0.950 . S
C445 C442 1.387 . S
C446 C447 1.387 . S
C446 H450 0.950 . S
C446 C455 1.390 . S
C447 C446 1.387 . S
C447 C449 1.387 . S
H448 C455 0.950 . S
C449 C447 1.387 . S
C449 C451 1.390 . S
C449 H453 0.950 . S
H450 C446 0.950 . S
C451 C449 1.390 . S
C451 C452 1.387 . S
C451 H454 0.950 . S
C452 C451 1.387 . S
C452 C455 1.387 . S
H453 C449 0.950 . S
H454 C451 0.950 . S
C455 C446 1.390 . S
C455 H448 0.950 . S
C455 C452 1.387 . S
C337 C158 1.540 . S
C342 C63 1.540 . S
C347 C231 1.540 . S
C352 C326 1.540 . S
C357 C74 1.539 . S
C362 C147 1.539 . S
C367 C315 1.539 . S
C372 C242 1.539 . S
C377 C321 1.337 . S
C382 C56 1.391 . S
C387 C153 1.337 . S
C392 C224 1.391 . S
C397 C151 1.391 . S
C402 C226 1.337 . S
C407 C319 1.393 . S
C412 C58 1.339 . S
C417 C140 1.392 . S
C422 C237 1.340 . S
C427 C308 1.391 . S
C432 C69 1.339 . S
C437 C310 1.337 . S
C442 C67 1.391 . S
C447 C235 1.393 . S
C452 C142 1.340 . S
