# Generated by pormake.
# Topology vmb, (5)-cn, num edge types: 1
# Building blocks:
#     Node 0, Type 0, BuildingBlock: XOMCOT_clean_sbu_0, # of connection points: 5
#     Node 1, Type 0, BuildingBlock: XOMCOT_clean_sbu_0, # of connection points: 5
#     Node 2, Type 0, BuildingBlock: XOMCOT_clean_sbu_0, # of connection points: 5
#     Node 3, Type 0, BuildingBlock: XOMCOT_clean_sbu_0, # of connection points: 5
#     Node 4, Type 0, BuildingBlock: XOMCOT_clean_sbu_0, # of connection points: 5
#     Node 5, Type 0, BuildingBlock: XOMCOT_clean_sbu_0, # of connection points: 5
#     Node 6, Type 0, BuildingBlock: XOMCOT_clean_sbu_0, # of connection points: 5
#     Node 7, Type 0, BuildingBlock: XOMCOT_clean_sbu_0, # of connection points: 5
#     Edge 8, Type (0, 0), BuildingBlock: ZUJKAS_clean_linker_0, # of connection points: 2
#     Edge 9, Type (0, 0), BuildingBlock: ZUJKAS_clean_linker_0, # of connection points: 2
#     Edge 10, Type (0, 0), BuildingBlock: ZUJKAS_clean_linker_0, # of connection points: 2
#     Edge 11, Type (0, 0), BuildingBlock: ZUJKAS_clean_linker_0, # of connection points: 2
#     Edge 12, Type (0, 0), BuildingBlock: ZUJKAS_clean_linker_0, # of connection points: 2
#     Edge 13, Type (0, 0), BuildingBlock: ZUJKAS_clean_linker_0, # of connection points: 2
#     Edge 14, Type (0, 0), BuildingBlock: ZUJKAS_clean_linker_0, # of connection points: 2
#     Edge 15, Type (0, 0), BuildingBlock: ZUJKAS_clean_linker_0, # of connection points: 2
#     Edge 16, Type (0, 0), BuildingBlock: ZUJKAS_clean_linker_0, # of connection points: 2
#     Edge 17, Type (0, 0), BuildingBlock: ZUJKAS_clean_linker_0, # of connection points: 2
#     Edge 18, Type (0, 0), BuildingBlock: ZUJKAS_clean_linker_0, # of connection points: 2
#     Edge 19, Type (0, 0), BuildingBlock: ZUJKAS_clean_linker_0, # of connection points: 2
#     Edge 20, Type (0, 0), BuildingBlock: ZUJKAS_clean_linker_0, # of connection points: 2
#     Edge 21, Type (0, 0), BuildingBlock: ZUJKAS_clean_linker_0, # of connection points: 2
#     Edge 22, Type (0, 0), BuildingBlock: ZUJKAS_clean_linker_0, # of connection points: 2
#     Edge 23, Type (0, 0), BuildingBlock: ZUJKAS_clean_linker_0, # of connection points: 2
#     Edge 24, Type (0, 0), BuildingBlock: ZUJKAS_clean_linker_0, # of connection points: 2
#     Edge 25, Type (0, 0), BuildingBlock: ZUJKAS_clean_linker_0, # of connection points: 2
#     Edge 26, Type (0, 0), BuildingBlock: ZUJKAS_clean_linker_0, # of connection points: 2
#     Edge 27, Type (0, 0), BuildingBlock: ZUJKAS_clean_linker_0, # of connection points: 2
# Relax obj value: 0.131
# Max RMSD: 0.193
# Mean RMSD: 0.193
data_MOF--net-vmb--node1-XOMCOT_clean_sbu_0--edge1-ZUJKAS_clean_linker_0
_symmetry_space_group_name_H-M    P1
_symmetry_Int_Tables_number       1
_symmetry_cell_setting            triclinic
loop_
_symmetry_equiv_pos_as_xyz
'x, y, z'
_cell_length_a     47.042296
_cell_length_b     54.722938
_cell_length_c     37.743037
_cell_angle_alpha  90.0369
_cell_angle_beta   117.19889
_cell_angle_gamma 90.120772
loop_
_atom_site_label
_atom_site_type_symbol
_atom_site_fract_x
_atom_site_fract_y
_atom_site_fract_z
_atom_type_partial_charge
Co0 Co 0.28073 0.08662 0.41154 0.0
C1 C 0.34558 0.06925 0.4318 0.0
C2 C 0.34236 0.10818 0.42404 0.0
C3 C 0.37306 0.10094 0.43323 0.0
N4 N 0.32529 0.08827 0.42336 0.0
N5 N 0.37503 0.07642 0.43804 0.0
H6 H 0.33888 0.05055 0.43368 0.0
H7 H 0.33312 0.12661 0.41795 0.0
C8 C 0.27191 0.12787 0.45768 0.0
O9 O 0.25787 0.11262 0.47153 0.0
N10 N 0.23538 0.08477 0.39912 0.0
C11 C 0.22235 0.07452 0.42098 0.0
C12 C 0.18996 0.07797 0.40229 0.0
C13 C 0.21005 0.09433 0.36704 0.0
N14 N 0.18211 0.09045 0.36841 0.0
C15 C 0.28644 0.04571 0.46082 0.0
C16 C 0.32352 0.06822 0.53308 0.0
C17 C 0.31299 0.04417 0.53264 0.0
C18 C 0.29507 0.03267 0.49584 0.0
C19 C 0.31431 0.0806 0.49718 0.0
N20 N 0.2941 0.06985 0.46186 0.0
H21 H 0.27182 0.03676 0.43277 0.0
H22 H 0.32333 0.09884 0.49786 0.0
H23 H 0.23506 0.06607 0.44974 0.0
H24 H 0.21195 0.10433 0.34352 0.0
O25 O 0.27554 0.05852 0.3786 0.0
O26 O 0.26919 0.09697 0.35778 0.0
O27 O 0.28381 0.12016 0.43536 0.0
C28 C 0.26964 0.07385 0.34983 0.0
H29 H 0.39223 0.11281 0.43542 0.0
H30 H 0.17339 0.07167 0.41291 0.0
H31 H 0.33845 0.07744 0.56088 0.0
H32 H 0.28642 0.01413 0.49397 0.0
Co33 Co 0.75289 0.08459 0.06759 0.0
C34 C 0.68679 0.07056 0.04754 0.0
C35 C 0.69246 0.10954 0.05176 0.0
C36 C 0.66118 0.10385 0.04239 0.0
N37 N 0.70836 0.08862 0.05477 0.0
N38 N 0.65764 0.07929 0.03975 0.0
H39 H 0.69237 0.0514 0.04767 0.0
H40 H 0.70287 0.12763 0.05633 0.0
C41 C 0.7684 0.12316 0.02246 0.0
O42 O 0.78627 0.10736 0.01561 0.0
N43 N 0.79794 0.08002 0.08095 0.0
C44 C 0.81049 0.06346 0.06545 0.0
C45 C 0.84285 0.06691 0.08166 0.0
C46 C 0.82344 0.09316 0.10707 0.0
N47 N 0.85105 0.08556 0.10772 0.0
C48 C 0.74 0.04004 0.02364 0.0
C49 C 0.7207 0.06021 0.94921 0.0
C50 C 0.72576 0.0349 0.95412 0.0
C51 C 0.73366 0.02476 -0.00854 0.0
C52 C 0.72666 0.07483 0.98225 0.0
N53 N 0.73899 0.06488 0.01948 0.0
H54 H 0.74782 0.0317 0.05243 0.0
H55 H 0.72185 0.0941 0.97761 0.0
H56 H 0.79757 0.04998 0.04307 0.0
H57 H 0.82178 0.10827 0.12453 0.0
O58 O 0.75648 0.05904 0.10429 0.0
O59 O 0.76516 0.09834 0.11982 0.0
O60 O 0.75198 0.11644 0.03999 0.0
C61 C 0.76386 0.07607 0.13101 0.0
H62 H 0.64268 0.11685 0.03848 0.0
H63 H 0.85923 0.05633 0.07496 0.0
H64 H 0.71362 0.06884 0.9206 0.0
H65 H 0.73637 1.00522 -0.00372 0.0
Co66 Co 0.75023 0.9251 0.56512 0.0
C67 C 0.68355 0.93885 0.54154 0.0
C68 C 0.68879 0.89988 0.54499 0.0
C69 C 0.65734 0.90557 0.53461 0.0
N70 N 0.70508 0.92081 0.54904 0.0
N71 N 0.65411 0.93014 0.53255 0.0
H72 H 0.68939 0.95803 0.54277 0.0
H73 H 0.69907 0.88179 0.54989 0.0
C74 C 0.77058 0.88345 0.52932 0.0
O75 O 0.79292 0.89724 0.5279 0.0
N76 N 0.79572 0.93037 0.58192 0.0
C77 C 0.80856 0.94933 0.57124 0.0
C78 C 0.84116 0.94821 0.59182 0.0
C79 C 0.82124 0.91796 0.60943 0.0
N80 N 0.84925 0.92861 0.61591 0.0
C81 C 0.73536 0.96818 0.51748 0.0
C82 C 0.73036 0.94703 0.44852 0.0
C83 C 0.73096 0.97257 0.4517 0.0
C84 C 0.73178 0.98304 0.48591 0.0
C85 C 0.73364 0.93274 0.48085 0.0
N86 N 0.73867 0.94342 0.516 0.0
H87 H 0.73754 0.97703 0.54409 0.0
H88 H 0.73257 0.91325 0.47724 0.0
H89 H 0.79568 0.96354 0.55047 0.0
H90 H 0.81935 0.90191 0.62498 0.0
O91 O 0.75145 0.95166 0.59909 0.0
O92 O 0.76002 0.91286 0.61753 0.0
O93 O 0.7509 0.89241 0.54053 0.0
C94 C 0.75749 0.93541 0.6266 0.0
H95 H 0.63856 0.89259 0.52992 0.0
H96 H 0.85779 0.96098 0.58936 0.0
H97 H 0.72881 0.93813 0.42205 0.0
H98 H 0.73101 1.00268 0.48897 0.0
Co99 Co 0.27946 0.92655 0.90956 0.0
C100 C 0.34553 0.94283 0.93333 0.0
C101 C 0.34092 0.90401 0.92411 0.0
C102 C 0.37205 0.91071 0.93445 0.0
N103 N 0.32443 0.92417 0.92362 0.0
N104 N 0.37491 0.93516 0.94016 0.0
H105 H 0.33939 0.96163 0.93541 0.0
H106 H 0.33095 0.88579 0.91686 0.0
C107 C 0.26633 0.88451 0.95087 0.0
O108 O 0.24942 0.89908 0.96144 0.0
N109 N 0.23372 0.92928 0.89486 0.0
C110 C 0.22019 0.94084 0.91507 0.0
C111 C 0.18762 0.93929 0.89404 0.0
C112 C 0.20849 0.92049 0.86166 0.0
N113 N 0.18016 0.92661 0.86041 0.0
C114 C 0.28603 0.9672 0.95994 0.0
C115 C 0.31729 0.94295 0.03169 0.0
C116 C 0.30832 0.96739 0.03161 0.0
C117 C 0.29343 0.97974 -0.00484 0.0
C118 C 0.30931 0.93107 -0.0044 0.0
N119 N 0.29184 0.94275 0.96027 0.0
H120 H 0.27359 0.97685 0.9321 0.0
H121 H 0.3172 0.9125 -0.00377 0.0
H122 H 0.23249 0.94904 0.94412 0.0
H123 H 0.21067 0.91018 0.83856 0.0
O124 O 0.2765 0.9549 0.87807 0.0
O125 O 0.26928 0.91667 0.85598 0.0
O126 O 0.28075 0.89287 0.93184 0.0
C127 C 0.27109 0.93979 0.8491 0.0
H128 H 0.39087 0.89855 0.93658 0.0
H129 H 0.17062 0.94651 0.90326 0.0
H130 H 0.33007 0.93303 0.05933 0.0
H131 H 0.28608 0.99861 -0.00649 0.0
Co132 Co 0.78237 0.58668 0.39855 0.0
C133 C 0.84963 0.57215 0.44479 0.0
C134 C 0.84557 0.61087 0.43504 0.0
C135 C 0.87749 0.60457 0.45211 0.0
N136 N 0.82817 0.5905 0.43045 0.0
N137 N 0.88004 0.58013 0.45785 0.0
H138 H 0.84282 0.55317 0.4437 0.0
H139 H 0.83573 0.62877 0.42428 0.0
C140 C 0.75758 0.62858 0.42819 0.0
O141 O 0.73853 0.61339 0.43417 0.0
N142 N 0.73616 0.58221 0.36477 0.0
C143 C 0.72219 0.56103 0.34657 0.0
C144 C 0.69025 0.5647 0.32275 0.0
C145 C 0.71204 0.59881 0.34991 0.0
N146 N 0.68373 0.5884 0.32488 0.0
C147 C 0.76751 0.54955 0.44126 0.0
C148 C 0.79209 0.57392 0.51337 0.0
C149 C 0.77694 0.5513 0.50975 0.0
C150 C 0.7652 0.53886 0.47332 0.0
C151 C 0.79398 0.58391 0.48048 0.0
N152 N 0.78021 0.57234 0.44437 0.0
H153 H 0.75967 0.53915 0.41428 0.0
H154 H 0.8062 0.60116 0.48392 0.0
H155 H 0.73429 0.5439 0.34908 0.0
H156 H 0.715 0.61821 0.35563 0.0
O157 O 0.79046 0.55748 0.37621 0.0
O158 O 0.78698 0.59492 0.35181 0.0
O159 O 0.77582 0.62082 0.41386 0.0
C160 C 0.79205 0.57171 0.34957 0.0
H161 H 0.89703 0.61688 0.45723 0.0
H162 H 0.67304 0.55088 0.30521 0.0
H163 H 0.80201 0.58402 0.54115 0.0
H164 H 0.75477 0.5208 0.46973 0.0
Co165 Co 0.25614 0.58649 0.07509 0.0
C166 C 0.18862 0.57289 0.04414 0.0
C167 C 0.19504 0.61128 0.05707 0.0
C168 C 0.16339 0.60527 0.04511 0.0
N169 N 0.21071 0.59091 0.05632 0.0
N170 N 0.15943 0.58105 0.03721 0.0
H171 H 0.19412 0.55404 0.04123 0.0
H172 H 0.20602 0.62901 0.06698 0.0
C173 C 0.27797 0.62871 0.04347 0.0
O174 O 0.29598 0.61355 0.0356 0.0
N175 N 0.30204 0.58138 0.09497 0.0
C176 C 0.31649 0.56078 0.09183 0.0
C177 C 0.34891 0.56332 0.11356 0.0
C178 C 0.32638 0.59608 0.11959 0.0
N179 N 0.35526 0.58542 0.13119 0.0
C180 C 0.24765 0.54784 0.02001 0.0
C181 C 0.22755 0.5764 0.95268 0.0
C182 C 0.23294 0.55144 0.95007 0.0
C183 C 0.24204 0.53697 0.9841 0.0
C184 C 0.23363 0.58651 0.98944 0.0
N185 N 0.24622 0.5726 0.02322 0.0
H186 H 0.25362 0.53619 0.04544 0.0
H187 H 0.22782 0.60546 -0.00968 0.0
H188 H 0.30491 0.54432 0.07651 0.0
H189 H 0.32297 0.61381 0.12978 0.0
O190 O 0.25397 0.55722 0.10189 0.0
O191 O 0.26345 0.59444 0.1283 0.0
O192 O 0.25992 0.6207 0.05793 0.0
C193 C 0.25895 0.5713 0.13193 0.0
H194 H 0.14509 0.61765 0.04399 0.0
H195 H 0.36654 0.54969 0.11663 0.0
H196 H 0.21878 0.58802 0.92662 0.0
H197 H 0.24582 0.5175 0.98351 0.0
Co198 Co 0.25408 0.42788 0.56941 0.0
C199 C 0.1896 0.44412 0.55344 0.0
C200 C 0.19473 0.40539 0.5634 0.0
C201 C 0.16426 0.41209 0.55617 0.0
N202 N 0.21046 0.4255 0.56147 0.0
N203 N 0.16108 0.43647 0.54996 0.0
H204 H 0.19519 0.46284 0.54976 0.0
H205 H 0.20472 0.3872 0.56989 0.0
C206 C 0.26035 0.38562 0.52267 0.0
O207 O 0.27129 0.40062 0.50468 0.0
N208 N 0.2985 0.43065 0.57786 0.0
C209 C 0.30883 0.43876 0.55189 0.0
C210 C 0.34153 0.43831 0.56955 0.0
C211 C 0.32578 0.42537 0.61133 0.0
N212 N 0.3524 0.43008 0.6071 0.0
C213 C 0.24522 0.46734 0.51657 0.0
C214 C 0.20394 0.44364 0.44719 0.0
C215 C 0.21397 0.4675 0.44508 0.0
C216 C 0.23413 0.4796 0.4805 0.0
C217 C 0.21558 0.43205 0.4841 0.0
N218 N 0.23759 0.4434 0.51776 0.0
H219 H 0.26144 0.4767 0.5435 0.0
H220 H 0.20707 0.41392 0.48558 0.0
H221 H 0.29405 0.44401 0.52137 0.0
H222 H 0.32628 0.41858 0.63848 0.0
O223 O 0.25981 0.45675 0.6009 0.0
O224 O 0.26876 0.41881 0.62436 0.0
O225 O 0.25106 0.39378 0.54738 0.0
C226 C 0.26787 0.44209 0.63102 0.0
H227 H 0.14609 0.39995 0.55622 0.0
H228 H 0.35608 0.44325 0.55525 0.0
H229 H 0.18758 0.43396 0.42057 0.0
H230 H 0.24257 0.49801 0.48031 0.0
Co231 Co 0.7843 0.42465 0.90968 0.0
C232 C 0.84875 0.44172 0.927 0.0
C233 C 0.84319 0.40351 0.91239 0.0
C234 C 0.87376 0.41065 0.92052 0.0
N235 N 0.82767 0.42302 0.91668 0.0
N236 N 0.87722 0.43471 0.92969 0.0
H237 H 0.8434 0.46001 0.93305 0.0
H238 H 0.83301 0.38542 0.90386 0.0
C239 C 0.7775 0.38045 0.95214 0.0
O240 O 0.76638 0.39461 0.97095 0.0
N241 N 0.74013 0.42663 0.9022 0.0
C242 C 0.72994 0.43425 0.92861 0.0
C243 C 0.69734 0.43214 0.91195 0.0
C244 C 0.71289 0.42022 0.8694 0.0
N245 N 0.68657 0.42336 0.87475 0.0
C246 C 0.79496 0.46222 0.96634 0.0
C247 C 0.83674 0.43677 0.03315 0.0
C248 C 0.82851 0.46081 0.03741 0.0
C249 C 0.80777 0.47367 0.0033 0.0
C250 C 0.82346 0.42601 -0.00464 0.0
N251 N 0.80151 0.43832 0.96291 0.0
H252 H 0.77864 0.47233 0.94047 0.0
H253 H 0.83109 0.4079 -0.00781 0.0
H254 H 0.7448 0.44002 0.95885 0.0
H255 H 0.71219 0.413 0.84233 0.0
O256 O 0.77849 0.4547 0.88079 0.0
O257 O 0.76876 0.41773 0.85364 0.0
O258 O 0.78726 0.38968 0.92852 0.0
C259 C 0.76963 0.44127 0.8491 0.0
H260 H 0.89183 0.39904 0.91918 0.0
H261 H 0.6826 0.43685 0.92611 0.0
H262 H 0.85337 0.42646 0.05869 0.0
H263 H 0.8006 0.49223 0.0052 0.0
H264 H 0.32505 0.01499 0.05509 0.0
H265 H 0.32161 0.03611 0.11021 0.0
H266 H 0.29593 0.96833 0.14649 0.0
H267 H 0.29842 0.94721 0.09109 0.0
H268 H 0.26271 0.03615 0.11787 0.0
H269 H 0.36624 0.99896 0.25117 0.0
H270 H 0.36397 0.99849 0.20206 0.0
H271 H 0.34223 0.97635 0.21533 0.0
C272 C 0.31896 1.00453 0.07503 0.0
C273 C 0.31183 0.97943 0.06857 0.0
C274 C 0.31715 0.01661 0.10653 0.0
C275 C 0.30868 1.0037 0.13234 0.0
C276 C 0.303 0.97849 0.12715 0.0
H277 H 0.26207 0.02721 0.32247 0.0
H278 H 0.26942 0.01215 0.26634 0.0
C279 C 0.30459 0.96643 0.09556 0.0
C280 C 0.30288 0.01676 0.16255 0.0
H281 H 0.32616 0.01915 0.26218 0.0
C282 C 0.27677 0.03275 0.14951 0.0
C283 C 0.32128 0.01211 0.20359 0.0
C284 C 0.35019 0.99571 0.21903 0.0
C285 C 0.26768 0.04347 0.17654 0.0
C286 C 0.28559 0.03828 0.21755 0.0
C287 C 0.31232 0.02289 0.23062 0.0
C288 C 0.27673 0.04798 0.24763 0.0
C289 C 0.23831 0.0594 0.1609 0.0
C290 C 0.27745 0.07319 0.25485 0.0
C291 C 0.27289 0.08188 0.2867 0.0
C292 C 0.26803 0.06542 0.31198 0.0
C293 C 0.26584 0.0403 0.3035 0.0
C294 C 0.27014 0.03167 0.27157 0.0
H295 H 0.22316 0.05692 0.12835 0.0
H296 H 0.2237 0.05538 0.17645 0.0
H297 H 0.24575 0.07886 0.16637 0.0
H298 H 0.283 0.08603 0.23706 0.0
H299 H 0.27499 0.10132 0.29282 0.0
H300 H 0.76264 0.1076 0.18647 0.0
H301 H 0.76206 0.09661 0.24922 0.0
H302 H 0.77301 0.02062 0.22768 0.0
H303 H 0.77352 0.03135 0.16528 0.0
H304 H 0.71473 0.06339 0.25078 0.0
H305 H 0.83857 0.03192 0.346 0.0
H306 H 0.82823 0.05184 0.3037 0.0
H307 H 0.82119 0.01948 0.29645 0.0
C308 C 0.76562 0.08864 0.19564 0.0
C309 C 0.76803 0.07029 0.1711 0.0
C310 C 0.7652 0.08241 0.23131 0.0
C311 C 0.76778 0.05787 0.24304 0.0
C312 C 0.77151 0.0397 0.21934 0.0
H313 H 0.69884 0.96825 0.37027 0.0
H314 H 0.70713 0.99265 0.32131 0.0
C315 C 0.77161 0.04585 0.18363 0.0
C316 C 0.7634 0.05062 0.27778 0.0
H317 H 0.79837 0.01762 0.36355 0.0
C318 C 0.73315 0.05379 0.27589 0.0
C319 C 0.78757 0.03827 0.31043 0.0
C320 C 0.82083 0.03535 0.31457 0.0
C321 C 0.72591 0.04368 0.30492 0.0
C322 C 0.74947 0.02993 0.33614 0.0
C323 C 0.78025 0.02795 0.33921 0.0
C324 C 0.74247 0.01657 0.36516 0.0
C325 C 0.69301 0.04741 0.30158 0.0
C326 C 0.75984 0.02186 0.40582 0.0
C327 C 0.75538 0.00788 0.4337 0.0
C328 C 0.73355 0.98827 0.42141 0.0
C329 C 0.71585 0.9832 0.38056 0.0
C330 C 0.72031 0.99726 0.35262 0.0
H331 H 0.68099 0.06354 0.28289 0.0
H332 H 0.67811 0.03106 0.28744 0.0
H333 H 0.69418 0.04985 0.33143 0.0
H334 H 0.77729 0.03653 0.416 0.0
H335 H 0.76986 0.01195 0.46502 0.0
H336 H 0.76054 0.90513 0.68595 0.0
H337 H 0.75646 0.91711 0.74616 0.0
H338 H 0.75189 0.99292 0.71273 0.0
H339 H 0.75625 0.98124 0.6531 0.0
H340 H 0.79357 0.98294 0.79382 0.0
H341 H 0.67196 0.94315 0.74258 0.0
H342 H 0.7024 0.92307 0.74312 0.0
H343 H 0.68921 0.94835 0.70919 0.0
C344 C 0.75905 0.92435 0.69177 0.0
C345 C 0.75856 0.94227 0.66484 0.0
C346 C 0.75648 0.93112 0.7259 0.0
C347 C 0.75338 0.95583 0.73334 0.0
C348 C 0.7541 0.97374 0.70727 0.0
H349 H 0.68605 0.03722 0.87344 0.0
H350 H 0.69238 0.01525 0.82088 0.0
C351 C 0.75661 0.96702 0.67326 0.0
C352 C 0.74886 0.96343 0.76786 0.0
H353 H 0.6945 0.96377 0.80431 0.0
C354 C 0.7721 0.97857 0.79644 0.0
C355 C 0.72055 0.95789 0.77056 0.0
C356 C 0.6944 0.94237 0.73966 0.0
C357 C 0.76757 0.98874 0.82749 0.0
C358 C 0.73928 0.9832 0.83028 0.0
C359 C 0.7162 0.96778 0.80203 0.0
C360 C 0.73298 0.9941 0.86167 0.0
C361 C 0.79256 1.00603 0.8562 0.0
C362 C 0.75313 0.98884 0.9017 0.0
C363 C 0.74992 1.00153 0.93162 0.0
C364 C 0.72616 0.01951 0.92203 0.0
C365 C 0.70486 0.02377 0.88177 0.0
C366 C 0.70825 0.01111 0.85177 0.0
H367 H 0.80916 0.01254 0.84469 0.0
H368 H 0.78121 0.02215 0.86238 0.0
H369 H 0.8069 0.99645 0.8848 0.0
H370 H 0.77212 0.97555 0.90978 0.0
H371 H 0.76706 0.99799 0.96223 0.0
H372 H 0.27374 0.91204 0.79049 0.0
H373 H 0.28503 0.92662 0.7368 0.0
H374 H 0.28193 1.00113 0.77217 0.0
H375 H 0.27108 0.9868 0.82604 0.0
H376 H 0.25254 0.95922 0.67279 0.0
H377 H 0.37167 0.99481 0.7796 0.0
H378 H 0.34889 0.97416 0.79416 0.0
H379 H 0.33975 1.00626 0.78847 0.0
C380 C 0.27492 0.93153 0.78636 0.0
C381 C 0.27186 0.9483 0.81261 0.0
C382 C 0.28153 0.93979 0.75588 0.0
C383 C 0.28517 0.96487 0.75141 0.0
C384 C 0.28005 0.98166 0.77595 0.0
H385 H 0.30823 0.06414 0.59585 0.0
H386 H 0.30646 0.04244 0.65127 0.0
C387 C 0.27358 0.97345 0.80644 0.0
C388 C 0.29491 0.97366 0.72166 0.0
H389 H 0.35158 0.00797 0.71192 0.0
C390 C 0.27439 0.96957 0.68123 0.0
C391 C 0.32362 0.98694 0.73305 0.0
C392 C 0.34743 0.99062 0.7762 0.0
C393 C 0.28102 0.97959 0.65165 0.0
C394 C 0.30904 0.99375 0.66306 0.0
C395 C 0.33013 0.9971 0.70348 0.0
C396 C 0.31529 0.00689 0.6333 0.0
C397 C 0.25736 0.97593 0.60843 0.0
C398 C 0.32224 0.9941 0.60606 0.0
C399 C 0.32358 1.00646 0.57454 0.0
C400 C 0.31788 0.03178 0.56984 0.0
C401 C 0.31302 0.0447 0.59881 0.0
C402 C 0.31179 0.03233 0.63035 0.0
H403 H 0.23473 0.96744 0.60485 0.0
H404 H 0.25173 0.99367 0.59241 0.0
H405 H 0.26801 0.96383 0.59408 0.0
H406 H 0.32546 0.97446 0.60838 0.0
H407 H 0.32795 0.9961 0.55306 0.0
H408 H 0.80729 0.59748 0.29868 0.0
H409 H 0.82369 0.58099 0.25053 0.0
H410 H 0.81303 0.50766 0.28476 0.0
H411 H 0.79742 0.52397 0.33358 0.0
H412 H 0.86863 0.51399 0.27769 0.0
H413 H 0.76293 0.54983 0.14502 0.0
H414 H 0.78595 0.57261 0.18107 0.0
H415 H 0.76513 0.54947 0.19398 0.0
C416 C 0.80829 0.57785 0.29576 0.0
C417 C 0.80079 0.56198 0.31954 0.0
C418 C 0.81764 0.56847 0.26828 0.0
C419 C 0.81916 0.54313 0.26381 0.0
C420 C 0.81198 0.52728 0.28781 0.0
H421 H 0.8303 0.43993 0.10395 0.0
H422 H 0.8363 0.4611 0.16399 0.0
C423 C 0.8029 0.53663 0.31549 0.0
C424 C 0.82757 0.53293 0.2336 0.0
H425 H 0.80154 0.52899 0.1334 0.0
C426 C 0.85411 0.51736 0.24613 0.0
C427 C 0.80852 0.5374 0.19251 0.0
C428 C 0.77888 0.55305 0.17719 0.0
C429 C 0.86187 0.50585 0.21847 0.0
C430 C 0.84246 0.50999 0.17745 0.0
C431 C 0.81651 0.52608 0.16501 0.0
C432 C 0.84657 0.49634 0.14638 0.0
C433 C 0.89052 0.48923 0.23323 0.0
C434 C 0.85121 0.50905 0.11721 0.0
C435 C 0.8478 0.49701 0.08291 0.0
C436 C 0.83935 0.47213 0.07712 0.0
C437 C 0.83709 0.45905 0.10776 0.0
C438 C 0.84056 0.47111 0.14211 0.0
H439 H 0.90765 0.49315 0.26477 0.0
H440 H 0.88243 0.46999 0.23134 0.0
H441 H 0.90312 0.49105 0.21465 0.0
H442 H 0.85578 0.52855 0.12002 0.0
H443 H 0.85015 0.50744 0.06 0.0
H444 H 0.25212 0.52387 0.14806 0.0
H445 H 0.23871 0.50865 0.1994 0.0
H446 H 0.24293 0.5821 0.24317 0.0
H447 H 0.25694 0.59749 0.19225 0.0
H448 H 0.27231 0.54789 0.30281 0.0
H449 H 0.15085 0.51709 0.195 0.0
H450 H 0.1818 0.50458 0.18521 0.0
H451 H 0.17479 0.537 0.18119 0.0
C452 C 0.25054 0.53675 0.16889 0.0
C453 C 0.25535 0.56187 0.16608 0.0
C454 C 0.24256 0.52807 0.19788 0.0
C455 C 0.23894 0.54438 0.22416 0.0
C456 C 0.24522 0.56932 0.22269 0.0
H457 H 0.1973 0.51504 0.42283 0.0
H458 H 0.19792 0.53568 0.36562 0.0
C459 C 0.25337 0.57803 0.19379 0.0
C460 C 0.22891 0.53528 0.25345 0.0
H461 H 0.17036 0.50281 0.26209 0.0
C462 C 0.24985 0.53834 0.294 0.0
C463 C 0.19945 0.52297 0.24161 0.0
C464 C 0.17527 0.5204 0.19837 0.0
C465 C 0.24276 0.52841 0.32321 0.0
C466 C 0.21383 0.51538 0.31134 0.0
C467 C 0.19246 0.51287 0.27084 0.0
C468 C 0.20687 0.50269 0.34082 0.0
C469 C 0.26679 0.53105 0.36652 0.0
C470 C 0.21008 0.47725 0.34431 0.0
C471 C 0.20992 0.46545 0.37692 0.0
C472 C 0.2065 0.47899 0.40639 0.0
C473 C 0.20054 0.50424 0.40089 0.0
C474 C 0.20079 0.51603 0.36829 0.0
H475 H 0.28994 0.53862 0.37029 0.0
H476 H 0.2571 0.54353 0.38152 0.0
H477 H 0.27125 0.51308 0.38178 0.0
H478 H 0.2148 0.46675 0.32322 0.0
H479 H 0.21481 0.44603 0.38049 0.0
H480 H 0.25266 0.57207 0.89928 0.0
H481 H 0.25728 0.55232 0.84422 0.0
H482 H 0.21648 0.48625 0.8641 0.0
H483 H 0.21005 0.50629 0.91776 0.0
H484 H 0.29473 0.51283 0.85409 0.0
H485 H 0.16959 0.49177 0.74435 0.0
H486 H 0.17934 0.51293 0.785 0.0
H487 H 0.18015 0.48054 0.79344 0.0
C488 C 0.24364 0.55362 0.8911 0.0
C489 C 0.23116 0.54071 0.91307 0.0
C490 C 0.2466 0.54229 0.85989 0.0
C491 C 0.23717 0.51787 0.8501 0.0
C492 C 0.22348 0.50522 0.87081 0.0
H493 H 0.26461 0.41625 0.69075 0.0
H494 H 0.26075 0.43324 0.74855 0.0
C495 C 0.22021 0.51662 0.90181 0.0
C496 C 0.24433 0.50508 0.82068 0.0
H497 H 0.21056 0.47324 0.7333 0.0
C498 C 0.27631 0.50424 0.8276 0.0
C499 C 0.22025 0.49377 0.78637 0.0
C500 C 0.18538 0.49495 0.77658 0.0
C501 C 0.28483 0.49247 0.80092 0.0
C502 C 0.26077 0.48128 0.76669 0.0
C503 C 0.2289 0.48172 0.75998 0.0
C504 C 0.26771 0.47065 0.73575 0.0
C505 C 0.31938 0.49208 0.80925 0.0
C506 C 0.27356 0.48616 0.71029 0.0
C507 C 0.27553 0.4766 0.67728 0.0
C508 C 0.27182 0.45139 0.66948 0.0
C509 C 0.26778 0.43573 0.69632 0.0
C510 C 0.26543 0.44537 0.72913 0.0
H511 H 0.33571 0.49771 0.84031 0.0
H512 H 0.32617 0.47352 0.80395 0.0
H513 H 0.32275 0.50485 0.78863 0.0
H514 H 0.27511 0.50576 0.71494 0.0
H515 H 0.27866 0.48905 0.65702 0.0
H516 H 0.75428 0.41787 0.77855 0.0
H517 H 0.7507 0.43608 0.71732 0.0
H518 H 0.76875 0.50737 0.77224 0.0
H519 H 0.77188 0.48947 0.83311 0.0
H520 H 0.72118 0.50723 0.69298 0.0
H521 H 0.83157 0.45981 0.71158 0.0
H522 H 0.80046 0.44011 0.71015 0.0
H523 H 0.81969 0.46125 0.75072 0.0
C524 C 0.75706 0.43746 0.77735 0.0
C525 C 0.76364 0.45223 0.81068 0.0
C526 C 0.7552 0.44779 0.7425 0.0
C527 C 0.76006 0.47297 0.74065 0.0
C528 C 0.7651 0.48787 0.77321 0.0
H529 H 0.82099 0.55097 0.58859 0.0
H530 H 0.81532 0.53259 0.6441 0.0
C531 C 0.7669 0.4776 0.80796 0.0
C532 C 0.76139 0.48382 0.70561 0.0
H533 H 0.80489 0.48398 0.65394 0.0
C534 C 0.73936 0.50211 0.68426 0.0
C535 C 0.78556 0.47736 0.69493 0.0
C536 C 0.81088 0.45872 0.71818 0.0
C537 C 0.74079 0.51413 0.65229 0.0
C538 C 0.76456 0.50731 0.64111 0.0
C539 C 0.78661 0.48904 0.66252 0.0
C540 C 0.76734 0.51912 0.60763 0.0
C541 C 0.71741 0.53443 0.63149 0.0
C542 C 0.74228 0.51753 0.56882 0.0
C543 C 0.7453 0.52821 0.53716 0.0
C544 C 0.77361 0.54047 0.54368 0.0
C545 C 0.79872 0.54197 0.58265 0.0
C546 C 0.79562 0.53134 0.61433 0.0
H547 H 0.70652 0.54163 0.65002 0.0
H548 H 0.7292 0.54975 0.62399 0.0
H549 H 0.69785 0.5273 0.60334 0.0
H550 H 0.72049 0.5078 0.56295 0.0
H551 H 0.7254 0.52694 0.50756 0.0
H552 H 0.5922 0.91528 0.49073 0.0
H553 H 0.54412 0.93958 0.47417 0.0
H554 H 0.60268 1.00133 0.53651 0.0
H555 H 0.65074 0.97722 0.55363 0.0
H556 H 0.52389 0.96387 0.52519 0.0
H557 H 0.54333 0.02942 0.42618 0.0
H558 H 0.56444 1.00076 0.44122 0.0
H559 H 0.57673 0.0264 0.47476 0.0
C560 C 0.59493 0.93396 0.50118 0.0
C561 C 0.62555 0.94426 0.52326 0.0
C562 C 0.56736 0.94788 0.49151 0.0
C563 C 0.56977 0.97242 0.50346 0.0
C564 C 0.6002 0.98262 0.52611 0.0
H565 H 0.43759 0.08965 0.47745 0.0
H566 H 0.48418 0.0638 0.49325 0.0
C567 C 0.62774 0.96875 0.53583 0.0
C568 C 0.54052 0.98732 0.49277 0.0
H569 H 0.50196 0.03894 0.44332 0.0
C570 C 0.51896 0.9802 0.50708 0.0
C571 C 0.53414 0.00866 0.4692 0.0
C572 C 0.55569 0.01671 0.4516 0.0
C573 C 0.49164 0.99416 0.49932 0.0
C574 C 0.48532 0.01559 0.47589 0.0
C575 C 0.5068 0.02258 0.46135 0.0
C576 C 0.45675 0.03114 0.46633 0.0
C577 C 0.47032 0.98621 0.5173 0.0
C578 C 0.42572 0.02153 0.44546 0.0
C579 C 0.39898 0.03631 0.43633 0.0
C580 C 0.40264 0.06112 0.44753 0.0
C581 C 0.43379 0.07074 0.46802 0.0
C582 C 0.4605 0.05592 0.47725 0.0
H583 H 0.48285 0.97361 0.54282 0.0
H584 H 0.46163 1.0022 0.52767 0.0
H585 H 0.44925 0.9764 0.4944 0.0
H586 H 0.42213 1.00265 0.43576 0.0
H587 H 0.37543 0.02837 0.41986 0.0
H588 H 0.37747 0.98336 0.92401 0.0
H589 H 0.42536 0.00808 0.9409 0.0
H590 H 0.48456 0.94557 -0.00334 0.0
H591 H 0.43687 0.92075 0.98 0.0
H592 H 0.47605 0.01912 0.0143 0.0
H593 H 0.51915 0.96826 0.92112 0.0
H594 H 0.4793 0.96446 0.91593 0.0
H595 H 0.51256 0.9493 0.95548 0.0
C596 C 0.40064 0.97486 0.94007 0.0
C597 C 0.40318 0.94995 0.95043 0.0
C598 C 0.42805 0.98903 0.94956 0.0
C599 C 0.45862 0.97862 0.96945 0.0
C600 C 0.46126 0.95389 0.98041 0.0
H601 H 0.65353 0.03173 0.05828 0.0
H602 H 0.605 0.00799 0.04139 0.0
C603 C 0.4339 0.9397 0.97086 0.0
C604 C 0.48772 0.99373 0.97937 0.0
H605 H 0.55478 0.99757 0.96605 0.0
C606 C 0.49317 0.01449 0.00355 0.0
C607 C 0.51011 0.98771 0.96537 0.0
C608 C 0.50492 0.96636 0.93773 0.0
C609 C 0.52067 0.02905 0.01483 0.0
C610 C 0.54315 0.02293 0.00104 0.0
C611 C 0.53763 1.00223 0.97673 0.0
C612 C 0.5726 0.03769 0.01156 0.0
C613 C 0.52583 0.05052 0.04224 0.0
C614 C 0.57065 0.06228 9e-05 0.0
C615 C 0.59844 0.07594 0.0095 0.0
C616 C 0.62888 0.06528 0.03044 0.0
C617 C 0.63066 0.04057 0.04173 0.0
C618 C 0.60287 0.02694 0.03227 0.0
H619 H 0.51096 0.04909 0.05806 0.0
H620 H 0.55133 0.05202 0.06468 0.0
H621 H 0.51912 0.06758 0.02445 0.0
H622 H 0.54759 0.07085 0.98332 0.0
H623 H 0.59598 0.09473 -0.00032 0.0
H624 H 0.94194 0.59466 0.50094 0.0
H625 H 0.99 0.57059 0.51671 0.0
H626 H 0.93152 0.50787 0.45888 0.0
H627 H 0.88348 0.53192 0.44155 0.0
H628 H 1.01312 0.52886 0.56041 0.0
H629 H 0.98774 0.51178 0.40394 0.0
H630 H 0.96589 0.53397 0.41721 0.0
H631 H 0.95603 0.50201 0.4146 0.0
C632 C 0.93921 0.57582 0.49123 0.0
C633 C 0.90857 0.56544 0.46963 0.0
C634 C 0.96679 0.56201 0.50051 0.0
C635 C 0.96446 0.53752 0.48831 0.0
C636 C 0.93401 0.52688 0.46783 0.0
H637 H 0.09899 0.42177 0.5149 0.0
H638 H 0.05193 0.44661 0.50128 0.0
C639 C 0.90643 0.54066 0.45842 0.0
C640 C 0.99382 0.52306 0.4972 0.0
H641 H 0.0305 0.48921 0.45369 0.0
C642 C 1.017 0.52033 0.53704 0.0
C643 C 0.999 0.51192 0.46673 0.0
C644 C 0.97602 0.51523 0.42321 0.0
C645 C 0.04474 0.50633 0.54729 0.0
C646 C 0.0497 0.49497 0.51685 0.0
C647 C 0.02664 0.49781 0.47702 0.0
C648 C 0.07855 0.47995 0.52569 0.0
C649 C 0.06816 0.50331 0.5907 0.0
C650 C 0.10923 0.49043 0.54357 0.0
C651 C 0.13624 0.47624 0.55147 0.0
C652 C 0.13319 0.45121 0.54162 0.0
C653 C 0.10236 0.44084 0.52344 0.0
C654 C 0.07537 0.45507 0.51539 0.0
H655 H 0.05737 0.50818 0.6105 0.0
H656 H 0.07702 0.48422 0.59709 0.0
H657 H 0.08899 0.51551 0.59808 0.0
H658 H 0.11228 0.50967 0.55121 0.0
H659 H 0.15953 0.48484 0.56573 0.0
H660 H 0.09776 0.5968 0.00128 0.0
H661 H 0.04956 0.5724 0.98423 0.0
H662 H 0.10736 0.50793 0.03002 0.0
H663 H 0.15557 0.53221 0.04849 0.0
H664 H 0.02571 0.53314 0.93356 0.0
H665 H 0.05226 0.50538 0.08676 0.0
H666 H 0.07406 0.52938 0.07693 0.0
H667 H 0.08355 0.49785 0.074 0.0
C668 C 0.10031 0.5775 0.00821 0.0
C669 C 0.13077 0.56661 0.02643 0.0
C670 C 0.07266 0.56352 -0.00181 0.0
C671 C 0.07477 0.53836 0.00639 0.0
C672 C 0.10506 0.52738 0.02411 0.0
H673 H 0.93915 0.41985 0.96251 0.0
H674 H 0.98654 0.44531 0.98002 0.0
C675 C 0.13269 0.54131 0.03418 0.0
C676 C 0.04533 0.52349 -0.00446 0.0
H677 H 1.00893 0.48495 0.03374 0.0
C678 C 0.02194 0.52275 0.95552 0.0
C679 C 0.04037 0.50986 0.02417 0.0
C680 C 0.06372 0.51079 0.06792 0.0
C681 C 0.99418 0.50837 0.94322 0.0
C682 C 0.98937 0.4946 0.97179 0.0
C683 C 1.01266 0.49542 0.01183 0.0
C684 C 0.96036 0.4792 0.96073 0.0
C685 C 0.97061 0.50755 0.89956 0.0
C686 C 0.92982 0.48976 0.94441 0.0
C687 C 0.90262 0.47522 0.93421 0.0
C688 C 0.90532 0.44975 0.94022 0.0
C689 C 0.93603 0.43928 0.95689 0.0
C690 C 0.96322 0.45386 0.96719 0.0
H691 H 0.98144 0.51406 0.88054 0.0
H692 H 0.96137 0.48871 0.89023 0.0
H693 H 0.95006 0.51956 0.89413 0.0
H694 H 0.92701 0.50931 0.93974 0.0
H695 H 0.87946 0.48395 0.92121 0.0
H696 H 0.13306 0.10167 0.3841 0.0
H697 H 0.07716 0.10734 0.33589 0.0
H698 H 0.10224 0.10123 0.23973 0.0
H699 H 0.15843 0.09481 0.28813 0.0
H700 H 0.04413 0.14059 0.27406 0.0
H701 H 0.03733 0.04579 0.21744 0.0
H702 H 0.07064 0.05649 0.26255 0.0
H703 H 0.06747 0.06483 0.21484 0.0
C704 C 0.12675 0.10156 0.3527 0.0
C705 C 0.15012 0.0973 0.33992 0.0
C706 C 0.09478 0.10502 0.32517 0.0
C707 C 0.08539 0.10425 0.2842 0.0
C708 C 0.10889 0.10145 0.27125 0.0
H709 H 0.89664 0.09018 0.08386 0.0
H710 H 0.95336 0.09848 0.1258 0.0
C711 C 0.14102 0.09801 0.29889 0.0
C712 C 0.05079 0.10474 0.2555 0.0
H713 H 0.99065 0.06942 0.18757 0.0
C714 C 0.03242 0.1251 0.25492 0.0
C715 C 0.03549 0.08442 0.23087 0.0
C716 C 0.05359 0.06153 0.23153 0.0
C717 C 0.9992 0.12576 0.23011 0.0
C718 C 0.98391 0.10534 0.20575 0.0
C719 C 1.00238 0.08511 0.20613 0.0
C720 C 0.94878 0.10416 0.17969 0.0
C721 C 0.98085 0.14838 0.22986 0.0
C722 C 0.92704 0.10522 0.19573 0.0
C723 C 0.8944 0.1006 0.17158 0.0
C724 C 0.88315 0.09447 0.13123 0.0
C725 C 0.90474 0.09456 0.11498 0.0
C726 C 0.93714 0.09935 0.1389 0.0
H727 H 0.9968 0.16456 0.24129 0.0
H728 H 0.96186 0.15243 0.19936 0.0
H729 H 0.9693 0.14539 0.24938 0.0
H730 H 0.9355 0.10843 0.22726 0.0
H731 H 0.87831 0.10039 0.18488 0.0
H732 H 0.1297 0.95674 0.83598 0.0
H733 H 0.07409 0.94738 0.79004 0.0
H734 H 0.10156 0.87559 0.7701 0.0
H735 H 0.1579 0.88499 0.81662 0.0
H736 H 0.0501 0.92514 0.70167 0.0
H737 H 0.02647 0.87271 0.81211 0.0
H738 H 0.0565 0.89648 0.82887 0.0
H739 H 0.06316 0.86881 0.80843 0.0
C740 C 0.12398 0.93898 0.82176 0.0
C741 C 0.1481 0.92153 0.83009 0.0
C742 C 0.09222 0.93367 0.79547 0.0
C743 C 0.08372 0.91074 0.77704 0.0
C744 C 0.10771 0.89337 0.78427 0.0
H745 H 0.87498 0.88296 0.63215 0.0
H746 H 0.93246 0.87318 0.67003 0.0
C747 C 0.1398 0.89879 0.81053 0.0
C748 C 0.04946 0.90555 0.75068 0.0
H749 H 0.98156 0.88624 0.75406 0.0
C750 C 0.03517 0.91606 0.71265 0.0
C751 C 0.03008 0.89371 0.76512 0.0
C752 C 0.0446 0.88218 0.80585 0.0
C753 C 1.00182 0.91621 0.68954 0.0
C754 C 0.98223 0.90604 0.70522 0.0
C755 C 0.99659 0.89407 0.74215 0.0
C756 C 0.94728 0.91076 0.68597 0.0
C757 C 0.9877 0.92824 0.64915 0.0
C758 C 0.9366 0.93484 0.68396 0.0
C759 C 0.9042 0.94034 0.66273 0.0
C760 C 0.88159 0.92188 0.6431 0.0
C761 C 0.89194 0.89748 0.64714 0.0
C762 C 0.92468 0.89194 0.66849 0.0
H763 H 1.005 0.9286 0.63668 0.0
H764 H 0.96564 0.91865 0.62784 0.0
H765 H 0.98137 0.94741 0.65206 0.0
H766 H 0.95353 0.94957 0.69793 0.0
H767 H 0.89683 0.95923 0.66066 0.0
H768 H 0.40457 0.55895 0.18396 0.0
H769 H 0.45982 0.57203 0.22204 0.0
H770 H 0.43352 0.64544 0.17768 0.0
H771 H 0.37758 0.63203 0.13825 0.0
H772 H 0.48492 0.6292 0.16937 0.0
H773 H 0.50677 0.6106 0.32308 0.0
H774 H 0.4892 0.58431 0.29244 0.0
H775 H 0.4669 0.61242 0.28219 0.0
C776 C 0.4104 0.57796 0.18258 0.0
C777 C 0.38674 0.59443 0.15789 0.0
C778 C 0.44202 0.58551 0.20482 0.0
C779 C 0.45091 0.60983 0.20337 0.0
C780 C 0.4272 0.62662 0.17961 0.0
H781 H 0.65936 0.62385 0.3535 0.0
H782 H 0.60312 0.63688 0.32419 0.0
C783 C 0.39526 0.61902 0.15729 0.0
C784 C 0.48545 0.61658 0.22374 0.0
H785 H 0.55334 0.6073 0.31079 0.0
C786 C 0.4998 0.62501 0.20057 0.0
C787 C 0.50502 0.61168 0.26466 0.0
C788 C 0.49107 0.60452 0.29206 0.0
C789 C 0.53324 0.62655 0.21631 0.0
C790 C 0.55288 0.619 0.25601 0.0
C791 C 0.53845 0.61271 0.28015 0.0
C792 C 0.58775 0.61436 0.27138 0.0
C793 C 0.54718 0.63555 0.18978 0.0
C794 C 0.59797 0.59767 0.25135 0.0
C795 C 0.62985 0.59032 0.26795 0.0
C796 C 0.65239 0.59928 0.3052 0.0
C797 C 0.64259 0.61683 0.32458 0.0
C798 C 0.61045 0.62416 0.30795 0.0
H799 H 0.53104 0.64899 0.16776 0.0
H800 H 0.57096 0.64418 0.20729 0.0
H801 H 0.54988 0.61989 0.17288 0.0
H802 H 0.58096 0.58937 0.22365 0.0
H803 H 0.6367 0.5769 0.25219 0.0
H804 H 0.65748 0.43118 0.79497 0.0
H805 H 0.59977 0.42896 0.7501 0.0
H806 H 0.58345 0.40314 0.84725 0.0
H807 H 0.64073 0.40589 0.89204 0.0
H808 H 0.55449 0.39276 0.72635 0.0
H809 H 0.52699 0.46268 0.81264 0.0
H810 H 0.56724 0.45638 0.8212 0.0
H811 H 0.54792 0.43676 0.84195 0.0
C812 C 0.64154 0.42475 0.80649 0.0
C813 C 0.65349 0.41906 0.84708 0.0
C814 C 0.60859 0.42357 0.78095 0.0
C815 C 0.58712 0.41653 0.79556 0.0
C816 C 0.59934 0.40939 0.83554 0.0
H817 H 0.37739 0.40086 0.67306 0.0
H818 H 0.43419 0.39586 0.72028 0.0
C819 C 0.6321 0.41086 0.86107 0.0
C820 C 0.55196 0.41731 0.76944 0.0
H821 H 0.48268 0.44288 0.76064 0.0
C822 C 0.53883 0.4037 0.73391 0.0
C823 C 0.53143 0.4317 0.77916 0.0
C824 C 0.54409 0.4479 0.81559 0.0
C825 C 0.50582 0.40403 0.70805 0.0
C826 C 0.48545 0.41826 0.71796 0.0
C827 C 0.4984 0.4317 0.75351 0.0
C828 C 0.45106 0.42114 0.69 0.0
C829 C 0.49277 0.38938 0.66999 0.0
C830 C 0.44185 0.4373 0.65796 0.0
C831 C 0.4096 0.44045 0.63137 0.0
C832 C 0.38565 0.42734 0.63595 0.0
C833 C 0.39501 0.41134 0.6686 0.0
C834 C 0.42747 0.40834 0.69548 0.0
H835 H 0.51095 0.37692 0.66886 0.0
H836 H 0.4718 0.37844 0.66674 0.0
H837 H 0.48452 0.40203 0.64422 0.0
H838 H 0.45971 0.44759 0.65359 0.0
H839 H 0.40355 0.45337 0.60736 0.0
H840 H 0.28019 0.3622 0.474 0.0
H841 H 0.28156 0.31825 0.46367 0.0
H842 H 0.24087 0.30482 0.54363 0.0
H843 H 0.23911 0.34885 0.55399 0.0
H844 H 0.31467 0.28305 0.52345 0.0
H845 H 0.18418 0.26411 0.44387 0.0
H846 H 0.20052 0.29456 0.44902 0.0
H847 H 0.19758 0.28039 0.49015 0.0
C848 C 0.27122 0.34996 0.48914 0.0
C849 C 0.25947 0.35906 0.51478 0.0
C850 C 0.27211 0.32484 0.48325 0.0
C851 C 0.26107 0.30833 0.5026 0.0
C852 C 0.24904 0.3173 0.52793 0.0
H853 H 0.25029 0.15018 0.50552 0.0
H854 H 0.24945 0.19389 0.51818 0.0
C855 C 0.24818 0.34246 0.53392 0.0
C856 C 0.26332 0.28172 0.49736 0.0
H857 H 0.21863 0.22989 0.46218 0.0
C858 C 0.2937 0.2714 0.50996 0.0
C859 C 0.2359 0.26663 0.47988 0.0
C860 C 0.20264 0.27693 0.46461 0.0
C861 C 0.29744 0.24627 0.50599 0.0
C862 C 0.27001 0.23119 0.48826 0.0
C863 C 0.23963 0.24151 0.4758 0.0
C864 C 0.27218 0.20466 0.48207 0.0
C865 C 0.33075 0.23602 0.52151 0.0
C866 C 0.28529 0.19621 0.45757 0.0
C867 C 0.28594 0.17121 0.45037 0.0
C868 C 0.27322 0.15421 0.46728 0.0
C869 C 0.26035 0.16275 0.49207 0.0
C870 C 0.25978 0.18773 0.4993 0.0
H871 H 0.34894 0.24847 0.54355 0.0
H872 H 0.3326 0.21792 0.53569 0.0
H873 H 0.33651 0.23363 0.49631 0.0
H874 H 0.29441 0.209 0.44333 0.0
H875 H 0.29584 0.16526 0.43093 0.0
H876 H 0.80238 0.3451 0.92259 0.0
H877 H 0.80072 0.30066 0.93037 0.0
H878 H 0.7522 0.31084 0.00238 0.0
H879 H 0.75368 0.35503 -0.00512 0.0
H880 H 0.82522 0.27253 0.0048 0.0
H881 H 0.69408 0.26301 0.91177 0.0
H882 H 0.71619 0.28942 0.90927 0.0
H883 H 0.70614 0.28624 0.94959 0.0
C884 C 0.79141 0.33787 0.94015 0.0
C885 C 0.77805 0.35364 0.95798 0.0
C886 C 0.79049 0.31251 0.94454 0.0
C887 C 0.7759 0.30252 0.96642 0.0
C888 C 0.76309 0.3182 0.98482 0.0
H889 H 0.7383 0.16166 0.03731 0.0
H890 H 0.74058 0.20475 0.0217 0.0
C891 C 0.76415 0.34348 0.98066 0.0
C892 C 0.7742 0.27571 0.97058 0.0
H893 H 0.72149 0.22843 0.95009 0.0
C894 C 0.80262 0.26278 -0.00747 0.0
C895 C 0.74464 0.26315 0.95462 0.0
C896 C 0.71349 0.27607 0.92969 0.0
C897 C 0.80218 0.23769 0.00018 0.0
C898 C 0.77253 0.22515 0.98462 0.0
C899 C 0.74417 0.23806 0.96202 0.0
C900 C 0.77033 0.19883 -0.00746 0.0
C901 C 0.83334 0.22507 0.02613 0.0
C902 C 0.78566 0.1811 0.9805 0.0
C903 C 0.78452 0.15645 0.98953 0.0
C904 C 0.76772 0.14901 0.01041 0.0
C905 C 0.75149 0.16673 0.02124 0.0
C906 C 0.75277 0.19139 0.01236 0.0
H907 H 0.85256 0.23835 0.04376 0.0
H908 H 0.83054 0.21212 0.04697 0.0
H909 H 0.84116 0.21455 0.00699 0.0
H910 H 0.79868 0.18635 0.96431 0.0
H911 H 0.7971 0.14327 0.98048 0.0
H912 H 0.7196 0.65228 0.45465 0.0
H913 H 0.7198 0.69587 0.46945 0.0
H914 H 0.79607 0.70794 0.43805 0.0
H915 H 0.79578 0.66458 0.42265 0.0
H916 H 0.76937 0.72402 0.52484 0.0
H917 H 0.73095 0.75952 0.37213 0.0
H918 H 0.72732 0.7277 0.38205 0.0
H919 H 0.76519 0.73988 0.38947 0.0
C920 C 0.73633 0.66422 0.45071 0.0
C921 C 0.75756 0.65494 0.43726 0.0
C922 C 0.7364 0.68912 0.45919 0.0
C923 C 0.75757 0.70522 0.45421 0.0
C924 C 0.77901 0.69596 0.44121 0.0
H925 H 0.80696 0.85843 0.50186 0.0
H926 H 0.80301 0.81519 0.4836 0.0
C927 C 0.77893 0.67111 0.43265 0.0
C928 C 0.75798 0.73155 0.46382 0.0
H929 H 0.75004 0.78886 0.42458 0.0
C930 C 0.7649 0.7382 0.50287 0.0
C931 C 0.7522 0.75001 0.43509 0.0
C932 C 0.7432 0.74398 0.39224 0.0
C933 C 0.76693 0.76285 0.51421 0.0
C934 C 0.76143 0.78129 0.48557 0.0
C935 C 0.75432 0.77466 0.44647 0.0
C936 C 0.76315 0.80761 0.49572 0.0
C937 C 0.77575 0.76895 0.55699 0.0
C938 C 0.74166 0.81776 0.50789 0.0
C939 C 0.74381 0.84246 0.51831 0.0
C940 C 0.76743 0.85753 0.51659 0.0
C941 C 0.78852 0.84737 0.5036 0.0
C942 C 0.7863 0.82266 0.49313 0.0
H943 H 0.78649 0.75308 0.57702 0.0
H944 H 0.79289 0.78447 0.56771 0.0
H945 H 0.75391 0.77439 0.55921 0.0
H946 H 0.72324 0.80655 0.50939 0.0
H947 H 0.72709 0.84965 0.52801 0.0
H948 H 0.23762 0.86023 0.98932 0.0
H949 H 0.24107 0.81671 0.00534 0.0
H950 H 0.304 0.80581 0.95214 0.0
H951 H 0.30099 0.84934 0.93627 0.0
H952 H 0.22388 0.77717 0.95081 0.0
H953 H 0.35194 0.77351 0.06245 0.0
H954 H 0.33003 0.80183 0.04719 0.0
H955 H 0.34416 0.78719 0.01563 0.0
C956 C 0.25241 0.84864 0.98127 0.0
C957 C 0.26913 0.8583 0.96163 0.0
C958 C 0.25429 0.82377 -0.0096 0.0
C959 C 0.27309 0.80813 0.98035 0.0
C960 C 0.28982 0.81767 0.96079 0.0
H961 H 0.31059 0.65192 0.00886 0.0
H962 H 0.3087 0.69529 -0.00784 0.0
C963 C 0.28793 0.84254 0.95158 0.0
C964 C 0.27426 0.78168 0.98915 0.0
H965 H 0.32452 0.7357 0.04249 0.0
C966 C 0.24584 0.76809 0.97094 0.0
C967 C 0.303 0.76993 0.01525 0.0
C968 C 0.33401 0.78384 0.03658 0.0
C969 C 0.24543 0.74292 0.97782 0.0
C970 C 0.27411 0.73119 0.00424 0.0
C971 C 0.30258 0.74476 0.02224 0.0
C972 C 0.27499 0.70491 0.01409 0.0
C973 C 0.21441 0.72905 0.95615 0.0
C974 C 0.25697 0.69602 0.03242 0.0
C975 C 0.25791 0.67127 0.04189 0.0
C976 C 0.27712 0.65494 0.03351 0.0
C977 C 0.29547 0.66397 0.0156 0.0
C978 C 0.29446 0.68875 0.00607 0.0
H979 H 0.19719 0.739 0.92924 0.0
H980 H 0.21852 0.71063 0.94702 0.0
H981 H 0.20326 0.72673 0.97627 0.0
H982 H 0.24234 0.70828 0.03969 0.0
H983 H 0.24364 0.66498 0.05592 0.0
loop_
_geom_bond_atom_site_label_1
_geom_bond_atom_site_label_2
_geom_bond_distance
_geom_bond_site_symmetry_2
_ccdc_geom_bond_type
Co0 N4 2.148 . S
Co0 N10 2.128 . S
Co0 N20 2.194 . S
Co0 O25 2.351 . S
Co0 O26 2.155 . S
Co0 O27 2.096 . S
C1 N4 1.301 . S
C1 N5 1.328 . S
C1 H6 0.930 . S
C2 C3 1.333 . S
C2 N4 1.317 . S
C2 H7 0.930 . S
C3 C2 1.333 . S
C3 N5 1.350 . S
C3 H29 0.931 . S
N4 Co0 2.148 . S
N4 C1 1.301 . S
N4 C2 1.317 . S
N5 C1 1.328 . S
N5 C3 1.350 . S
H6 C1 0.930 . S
H7 C2 0.930 . S
C8 O9 1.224 . S
C8 O27 1.247 . S
O9 C8 1.224 . S
N10 Co0 2.128 . S
N10 C11 1.355 . S
N10 C13 1.311 . S
C11 N10 1.355 . S
C11 C12 1.363 . S
C11 H23 0.929 . S
C12 C11 1.363 . S
C12 N14 1.375 . S
C12 H30 0.931 . S
C13 N10 1.311 . S
C13 N14 1.347 . S
C13 H24 0.929 . S
N14 C12 1.375 . S
N14 C13 1.347 . S
C15 C18 1.365 . S
C15 N20 1.328 . S
C15 H21 0.929 . S
C16 C17 1.362 . S
C16 C19 1.378 . S
C16 H31 0.929 . S
C17 C16 1.362 . S
C17 C18 1.366 . S
C18 C15 1.365 . S
C18 C17 1.366 . S
C18 H32 0.930 . S
C19 C16 1.378 . S
C19 N20 1.315 . S
C19 H22 0.930 . S
N20 Co0 2.194 . S
N20 C15 1.328 . S
N20 C19 1.315 . S
H21 C15 0.929 . S
H22 C19 0.930 . S
H23 C11 0.929 . S
H24 C13 0.929 . S
O25 Co0 2.351 . S
O25 C28 1.244 . S
O26 Co0 2.155 . S
O26 C28 1.240 . S
O27 Co0 2.096 . S
O27 C8 1.247 . S
C28 O25 1.244 . S
C28 O26 1.240 . S
H29 C3 0.931 . S
H30 C12 0.931 . S
H31 C16 0.929 . S
H32 C18 0.930 . S
Co33 N37 2.148 . S
Co33 N43 2.128 . S
Co33 N53 2.194 . S
Co33 O58 2.351 . S
Co33 O59 2.155 . S
Co33 O60 2.096 . S
C34 N37 1.301 . S
C34 N38 1.328 . S
C34 H39 0.930 . S
C35 C36 1.333 . S
C35 N37 1.317 . S
C35 H40 0.930 . S
C36 C35 1.333 . S
C36 N38 1.350 . S
C36 H62 0.931 . S
N37 Co33 2.148 . S
N37 C34 1.301 . S
N37 C35 1.317 . S
N38 C34 1.328 . S
N38 C36 1.350 . S
H39 C34 0.930 . S
H40 C35 0.930 . S
C41 O42 1.224 . S
C41 O60 1.247 . S
O42 C41 1.224 . S
N43 Co33 2.128 . S
N43 C44 1.355 . S
N43 C46 1.311 . S
C44 N43 1.355 . S
C44 C45 1.363 . S
C44 H56 0.929 . S
C45 C44 1.363 . S
C45 N47 1.375 . S
C45 H63 0.931 . S
C46 N43 1.311 . S
C46 N47 1.347 . S
C46 H57 0.929 . S
N47 C45 1.375 . S
N47 C46 1.347 . S
C48 C51 1.365 1_554 S
C48 N53 1.328 . S
C48 H54 0.929 . S
C49 C50 1.362 . S
C49 C52 1.378 . S
C49 H64 0.929 . S
C50 C49 1.362 . S
C50 C51 1.366 . S
C51 C48 1.365 1_556 S
C51 C50 1.366 . S
C51 H65 0.930 . S
C52 C49 1.378 . S
C52 N53 1.315 1_556 S
C52 H55 0.930 . S
N53 Co33 2.194 . S
N53 C48 1.328 . S
N53 C52 1.315 1_554 S
H54 C48 0.929 . S
H55 C52 0.930 . S
H56 C44 0.929 . S
H57 C46 0.929 . S
O58 Co33 2.351 . S
O58 C61 1.244 . S
O59 Co33 2.155 . S
O59 C61 1.240 . S
O60 Co33 2.096 . S
O60 C41 1.247 . S
C61 O58 1.244 . S
C61 O59 1.240 . S
H62 C36 0.931 . S
H63 C45 0.931 . S
H64 C49 0.929 . S
H65 C51 0.930 . S
Co66 N70 2.148 . S
Co66 N76 2.128 . S
Co66 N86 2.194 . S
Co66 O91 2.351 . S
Co66 O92 2.155 . S
Co66 O93 2.096 . S
C67 N70 1.301 . S
C67 N71 1.328 . S
C67 H72 0.930 . S
C68 C69 1.333 . S
C68 N70 1.317 . S
C68 H73 0.930 . S
C69 C68 1.333 . S
C69 N71 1.350 . S
C69 H95 0.931 . S
N70 Co66 2.148 . S
N70 C67 1.301 . S
N70 C68 1.317 . S
N71 C67 1.328 . S
N71 C69 1.350 . S
H72 C67 0.930 . S
H73 C68 0.930 . S
C74 O75 1.224 . S
C74 O93 1.247 . S
O75 C74 1.224 . S
N76 Co66 2.128 . S
N76 C77 1.355 . S
N76 C79 1.311 . S
C77 N76 1.355 . S
C77 C78 1.363 . S
C77 H89 0.929 . S
C78 C77 1.363 . S
C78 N80 1.375 . S
C78 H96 0.931 . S
C79 N76 1.311 . S
C79 N80 1.347 . S
C79 H90 0.929 . S
N80 C78 1.375 . S
N80 C79 1.347 . S
C81 C84 1.365 . S
C81 N86 1.328 . S
C81 H87 0.929 . S
C82 C83 1.362 . S
C82 C85 1.378 . S
C82 H97 0.929 . S
C83 C82 1.362 . S
C83 C84 1.366 . S
C84 C81 1.365 . S
C84 C83 1.366 . S
C84 H98 0.930 . S
C85 C82 1.378 . S
C85 N86 1.315 . S
C85 H88 0.930 . S
N86 Co66 2.194 . S
N86 C81 1.328 . S
N86 C85 1.315 . S
H87 C81 0.929 . S
H88 C85 0.930 . S
H89 C77 0.929 . S
H90 C79 0.929 . S
O91 Co66 2.351 . S
O91 C94 1.244 . S
O92 Co66 2.155 . S
O92 C94 1.240 . S
O93 Co66 2.096 . S
O93 C74 1.247 . S
C94 O91 1.244 . S
C94 O92 1.240 . S
H95 C69 0.931 . S
H96 C78 0.931 . S
H97 C82 0.929 . S
H98 C84 0.930 . S
Co99 N103 2.148 . S
Co99 N109 2.128 . S
Co99 N119 2.194 . S
Co99 O124 2.351 . S
Co99 O125 2.155 . S
Co99 O126 2.096 . S
C100 N103 1.301 . S
C100 N104 1.328 . S
C100 H105 0.930 . S
C101 C102 1.333 . S
C101 N103 1.317 . S
C101 H106 0.930 . S
C102 C101 1.333 . S
C102 N104 1.350 . S
C102 H128 0.931 . S
N103 Co99 2.148 . S
N103 C100 1.301 . S
N103 C101 1.317 . S
N104 C100 1.328 . S
N104 C102 1.350 . S
H105 C100 0.930 . S
H106 C101 0.930 . S
C107 O108 1.224 . S
C107 O126 1.247 . S
O108 C107 1.224 . S
N109 Co99 2.128 . S
N109 C110 1.355 . S
N109 C112 1.311 . S
C110 N109 1.355 . S
C110 C111 1.363 . S
C110 H122 0.929 . S
C111 C110 1.363 . S
C111 N113 1.375 . S
C111 H129 0.931 . S
C112 N109 1.311 . S
C112 N113 1.347 . S
C112 H123 0.929 . S
N113 C111 1.375 . S
N113 C112 1.347 . S
C114 C117 1.365 1_556 S
C114 N119 1.328 . S
C114 H120 0.929 . S
C115 C116 1.362 . S
C115 C118 1.378 . S
C115 H130 0.929 . S
C116 C115 1.362 . S
C116 C117 1.366 . S
C117 C114 1.365 1_554 S
C117 C116 1.366 . S
C117 H131 0.930 . S
C118 C115 1.378 . S
C118 N119 1.315 1_554 S
C118 H121 0.930 . S
N119 Co99 2.194 . S
N119 C114 1.328 . S
N119 C118 1.315 1_556 S
H120 C114 0.929 . S
H121 C118 0.930 . S
H122 C110 0.929 . S
H123 C112 0.929 . S
O124 Co99 2.351 . S
O124 C127 1.244 . S
O125 Co99 2.155 . S
O125 C127 1.240 . S
O126 Co99 2.096 . S
O126 C107 1.247 . S
C127 O124 1.244 . S
C127 O125 1.240 . S
H128 C102 0.931 . S
H129 C111 0.931 . S
H130 C115 0.929 . S
H131 C117 0.930 . S
Co132 N136 2.148 . S
Co132 N142 2.128 . S
Co132 N152 2.194 . S
Co132 O157 2.351 . S
Co132 O158 2.155 . S
Co132 O159 2.096 . S
C133 N136 1.301 . S
C133 N137 1.328 . S
C133 H138 0.930 . S
C134 C135 1.333 . S
C134 N136 1.317 . S
C134 H139 0.930 . S
C135 C134 1.333 . S
C135 N137 1.350 . S
C135 H161 0.931 . S
N136 Co132 2.148 . S
N136 C133 1.301 . S
N136 C134 1.317 . S
N137 C133 1.328 . S
N137 C135 1.350 . S
H138 C133 0.930 . S
H139 C134 0.930 . S
C140 O141 1.224 . S
C140 O159 1.247 . S
O141 C140 1.224 . S
N142 Co132 2.128 . S
N142 C143 1.355 . S
N142 C145 1.311 . S
C143 N142 1.355 . S
C143 C144 1.363 . S
C143 H155 0.929 . S
C144 C143 1.363 . S
C144 N146 1.375 . S
C144 H162 0.931 . S
C145 N142 1.311 . S
C145 N146 1.347 . S
C145 H156 0.929 . S
N146 C144 1.375 . S
N146 C145 1.347 . S
C147 C150 1.365 . S
C147 N152 1.328 . S
C147 H153 0.929 . S
C148 C149 1.362 . S
C148 C151 1.378 . S
C148 H163 0.929 . S
C149 C148 1.362 . S
C149 C150 1.366 . S
C150 C147 1.365 . S
C150 C149 1.366 . S
C150 H164 0.930 . S
C151 C148 1.378 . S
C151 N152 1.315 . S
C151 H154 0.930 . S
N152 Co132 2.194 . S
N152 C147 1.328 . S
N152 C151 1.315 . S
H153 C147 0.929 . S
H154 C151 0.930 . S
H155 C143 0.929 . S
H156 C145 0.929 . S
O157 Co132 2.351 . S
O157 C160 1.244 . S
O158 Co132 2.155 . S
O158 C160 1.240 . S
O159 Co132 2.096 . S
O159 C140 1.247 . S
C160 O157 1.244 . S
C160 O158 1.240 . S
H161 C135 0.931 . S
H162 C144 0.931 . S
H163 C148 0.929 . S
H164 C150 0.930 . S
Co165 N169 2.148 . S
Co165 N175 2.128 . S
Co165 N185 2.194 . S
Co165 O190 2.351 . S
Co165 O191 2.155 . S
Co165 O192 2.096 . S
C166 N169 1.301 . S
C166 N170 1.328 . S
C166 H171 0.930 . S
C167 C168 1.333 . S
C167 N169 1.317 . S
C167 H172 0.930 . S
C168 C167 1.333 . S
C168 N170 1.350 . S
C168 H194 0.931 . S
N169 Co165 2.148 . S
N169 C166 1.301 . S
N169 C167 1.317 . S
N170 C166 1.328 . S
N170 C168 1.350 . S
H171 C166 0.930 . S
H172 C167 0.930 . S
C173 O174 1.224 . S
C173 O192 1.247 . S
O174 C173 1.224 . S
N175 Co165 2.128 . S
N175 C176 1.355 . S
N175 C178 1.311 . S
C176 N175 1.355 . S
C176 C177 1.363 . S
C176 H188 0.929 . S
C177 C176 1.363 . S
C177 N179 1.375 . S
C177 H195 0.931 . S
C178 N175 1.311 . S
C178 N179 1.347 . S
C178 H189 0.929 . S
N179 C177 1.375 . S
N179 C178 1.347 . S
C180 C183 1.365 1_554 S
C180 N185 1.328 . S
C180 H186 0.929 . S
C181 C182 1.362 . S
C181 C184 1.378 . S
C181 H196 0.929 . S
C182 C181 1.362 . S
C182 C183 1.366 . S
C183 C180 1.365 1_556 S
C183 C182 1.366 . S
C183 H197 0.930 . S
C184 C181 1.378 . S
C184 N185 1.315 1_556 S
C184 H187 0.930 . S
N185 Co165 2.194 . S
N185 C180 1.328 . S
N185 C184 1.315 1_554 S
H186 C180 0.929 . S
H187 C184 0.930 . S
H188 C176 0.929 . S
H189 C178 0.929 . S
O190 Co165 2.351 . S
O190 C193 1.244 . S
O191 Co165 2.155 . S
O191 C193 1.240 . S
O192 Co165 2.096 . S
O192 C173 1.247 . S
C193 O190 1.244 . S
C193 O191 1.240 . S
H194 C168 0.931 . S
H195 C177 0.931 . S
H196 C181 0.929 . S
H197 C183 0.930 . S
Co198 N202 2.148 . S
Co198 N208 2.128 . S
Co198 N218 2.194 . S
Co198 O223 2.351 . S
Co198 O224 2.155 . S
Co198 O225 2.096 . S
C199 N202 1.301 . S
C199 N203 1.328 . S
C199 H204 0.930 . S
C200 C201 1.333 . S
C200 N202 1.317 . S
C200 H205 0.930 . S
C201 C200 1.333 . S
C201 N203 1.350 . S
C201 H227 0.931 . S
N202 Co198 2.148 . S
N202 C199 1.301 . S
N202 C200 1.317 . S
N203 C199 1.328 . S
N203 C201 1.350 . S
H204 C199 0.930 . S
H205 C200 0.930 . S
C206 O207 1.224 . S
C206 O225 1.247 . S
O207 C206 1.224 . S
N208 Co198 2.128 . S
N208 C209 1.355 . S
N208 C211 1.311 . S
C209 N208 1.355 . S
C209 C210 1.363 . S
C209 H221 0.929 . S
C210 C209 1.363 . S
C210 N212 1.375 . S
C210 H228 0.931 . S
C211 N208 1.311 . S
C211 N212 1.347 . S
C211 H222 0.929 . S
N212 C210 1.375 . S
N212 C211 1.347 . S
C213 C216 1.365 . S
C213 N218 1.328 . S
C213 H219 0.929 . S
C214 C215 1.362 . S
C214 C217 1.378 . S
C214 H229 0.929 . S
C215 C214 1.362 . S
C215 C216 1.366 . S
C216 C213 1.365 . S
C216 C215 1.366 . S
C216 H230 0.930 . S
C217 C214 1.378 . S
C217 N218 1.315 . S
C217 H220 0.930 . S
N218 Co198 2.194 . S
N218 C213 1.328 . S
N218 C217 1.315 . S
H219 C213 0.929 . S
H220 C217 0.930 . S
H221 C209 0.929 . S
H222 C211 0.929 . S
O223 Co198 2.351 . S
O223 C226 1.244 . S
O224 Co198 2.155 . S
O224 C226 1.240 . S
O225 Co198 2.096 . S
O225 C206 1.247 . S
C226 O223 1.244 . S
C226 O224 1.240 . S
H227 C201 0.931 . S
H228 C210 0.931 . S
H229 C214 0.929 . S
H230 C216 0.930 . S
Co231 N235 2.148 . S
Co231 N241 2.128 . S
Co231 N251 2.194 . S
Co231 O256 2.351 . S
Co231 O257 2.155 . S
Co231 O258 2.096 . S
C232 N235 1.301 . S
C232 N236 1.328 . S
C232 H237 0.930 . S
C233 C234 1.333 . S
C233 N235 1.317 . S
C233 H238 0.930 . S
C234 C233 1.333 . S
C234 N236 1.350 . S
C234 H260 0.931 . S
N235 Co231 2.148 . S
N235 C232 1.301 . S
N235 C233 1.317 . S
N236 C232 1.328 . S
N236 C234 1.350 . S
H237 C232 0.930 . S
H238 C233 0.930 . S
C239 O240 1.224 . S
C239 O258 1.247 . S
O240 C239 1.224 . S
N241 Co231 2.128 . S
N241 C242 1.355 . S
N241 C244 1.311 . S
C242 N241 1.355 . S
C242 C243 1.363 . S
C242 H254 0.929 . S
C243 C242 1.363 . S
C243 N245 1.375 . S
C243 H261 0.931 . S
C244 N241 1.311 . S
C244 N245 1.347 . S
C244 H255 0.929 . S
N245 C243 1.375 . S
N245 C244 1.347 . S
C246 C249 1.365 1_556 S
C246 N251 1.328 . S
C246 H252 0.929 . S
C247 C248 1.362 . S
C247 C250 1.378 . S
C247 H262 0.929 . S
C248 C247 1.362 . S
C248 C249 1.366 . S
C249 C246 1.365 1_554 S
C249 C248 1.366 . S
C249 H263 0.930 . S
C250 C247 1.378 . S
C250 N251 1.315 1_554 S
C250 H253 0.930 . S
N251 Co231 2.194 . S
N251 C246 1.328 . S
N251 C250 1.315 1_556 S
H252 C246 0.929 . S
H253 C250 0.930 . S
H254 C242 0.929 . S
H255 C244 0.929 . S
O256 Co231 2.351 . S
O256 C259 1.244 . S
O257 Co231 2.155 . S
O257 C259 1.240 . S
O258 Co231 2.096 . S
O258 C239 1.247 . S
C259 O256 1.244 . S
C259 O257 1.240 . S
H260 C234 0.931 . S
H261 C243 0.931 . S
H262 C247 0.929 . S
H263 C249 0.930 . S
H264 C272 0.913 1_545 S
H265 C274 0.930 . S
H266 C276 0.930 . S
H267 C279 0.929 . S
H268 C282 0.930 . S
H269 C284 0.960 . S
H270 C284 0.960 . S
H271 C284 0.960 . S
C272 H264 0.913 1_565 S
C272 C273 1.403 . S
C272 C274 1.374 1_565 S
C273 C272 1.403 . S
C273 C279 1.390 . S
C274 H265 0.930 . S
C274 C272 1.374 1_545 S
C274 C275 1.372 1_545 S
C275 C274 1.372 1_565 S
C275 C276 1.400 . S
C275 C280 1.490 1_565 S
C276 H266 0.930 . S
C276 C275 1.400 . S
C276 C279 1.386 . S
H277 C293 0.930 . S
H278 C294 0.927 1_565 S
C279 H267 0.929 . S
C279 C273 1.390 . S
C279 C276 1.386 . S
C280 C275 1.490 1_545 S
C280 C282 1.395 . S
C280 C283 1.403 1_545 S
H281 C287 0.930 . S
C282 H268 0.930 . S
C282 C280 1.395 . S
C282 C285 1.403 . S
C283 C280 1.403 1_565 S
C283 C284 1.524 . S
C283 C287 1.400 1_565 S
C284 H269 0.960 . S
C284 H270 0.960 . S
C284 H271 0.960 . S
C284 C283 1.524 . S
C285 C282 1.403 . S
C285 C286 1.392 . S
C285 C289 1.495 . S
C286 C285 1.392 . S
C286 C287 1.385 . S
C286 C288 1.478 . S
C287 H281 0.930 . S
C287 C283 1.400 1_545 S
C287 C286 1.385 . S
C288 C286 1.478 . S
C288 C290 1.381 . S
C288 C294 1.383 . S
C289 C285 1.495 . S
C289 H295 0.959 . S
C289 H296 0.961 . S
C289 H297 0.960 . S
C290 C288 1.381 . S
C290 C291 1.394 . S
C290 H298 0.930 . S
C291 C290 1.394 . S
C291 C292 1.383 . S
C291 H299 0.929 . S
C292 C291 1.383 . S
C292 C293 1.377 . S
C293 H277 0.930 . S
C293 C292 1.377 . S
C293 C294 1.379 . S
C294 H278 0.927 1_545 S
C294 C288 1.383 . S
C294 C293 1.379 . S
H295 C289 0.959 . S
H296 C289 0.961 . S
H297 C289 0.960 . S
H298 C290 0.930 . S
H299 C291 0.929 . S
H300 C308 0.929 . S
H301 C310 0.930 . S
H302 C312 0.962 . S
H303 C315 0.929 . S
H304 C318 0.930 . S
H305 C320 0.960 . S
H306 C320 0.960 . S
H307 C320 0.960 . S
C308 H300 0.929 . S
C308 C309 1.377 . S
C308 C310 1.384 . S
C309 C308 1.377 . S
C309 C315 1.390 . S
C310 H301 0.930 . S
C310 C308 1.384 . S
C310 C311 1.372 . S
C311 C310 1.372 . S
C311 C312 1.400 . S
C311 C316 1.490 . S
C312 H302 0.962 . S
C312 C311 1.400 . S
C312 C315 1.386 . S
H313 C329 0.930 . S
H314 C330 0.931 . S
C315 H303 0.929 . S
C315 C309 1.390 . S
C315 C312 1.386 . S
C316 C311 1.490 . S
C316 C318 1.395 . S
C316 C319 1.400 1_545 S
H317 C323 0.930 . S
C318 H304 0.930 . S
C318 C316 1.395 . S
C318 C321 1.403 . S
C319 C316 1.400 1_565 S
C319 C320 1.525 . S
C319 C323 1.401 . S
C320 H305 0.960 . S
C320 H306 0.960 . S
C320 H307 0.960 . S
C320 C319 1.525 . S
C321 C318 1.403 . S
C321 C322 1.392 . S
C321 C325 1.495 . S
C322 C321 1.392 . S
C322 C323 1.385 1_545 S
C322 C324 1.478 1_545 S
C323 H317 0.930 . S
C323 C319 1.401 . S
C323 C322 1.385 1_565 S
C324 C322 1.478 1_565 S
C324 C326 1.381 1_565 S
C324 C330 1.383 . S
C325 C321 1.495 . S
C325 H331 0.959 . S
C325 H332 0.961 . S
C325 H333 0.960 . S
C326 C324 1.381 1_545 S
C326 C327 1.394 1_545 S
C326 H334 0.930 . S
C327 C326 1.394 1_565 S
C327 C328 1.383 . S
C327 H335 0.929 1_565 S
C328 C327 1.383 . S
C328 C329 1.377 . S
C329 H313 0.930 . S
C329 C328 1.377 . S
C329 C330 1.379 . S
C330 H314 0.931 . S
C330 C324 1.383 . S
C330 C329 1.379 . S
H331 C325 0.959 . S
H332 C325 0.961 . S
H333 C325 0.960 . S
H334 C326 0.930 . S
H335 C327 0.929 1_545 S
H336 C344 0.929 . S
H337 C346 0.930 . S
H338 C348 0.930 . S
H339 C351 0.929 . S
H340 C354 0.930 . S
H341 C356 0.960 . S
H342 C356 0.960 . S
H343 C356 0.960 . S
C344 H336 0.929 . S
C344 C345 1.377 . S
C344 C346 1.384 . S
C345 C344 1.377 . S
C345 C351 1.390 . S
C346 H337 0.930 . S
C346 C344 1.384 . S
C346 C347 1.372 . S
C347 C346 1.372 . S
C347 C348 1.400 . S
C347 C352 1.490 . S
C348 H338 0.930 . S
C348 C347 1.400 . S
C348 C351 1.386 . S
H349 C365 0.930 . S
H350 C366 0.931 . S
C351 H339 0.929 . S
C351 C345 1.390 . S
C351 C348 1.386 . S
C352 C347 1.490 . S
C352 C354 1.395 1_565 S
C352 C355 1.403 . S
H353 C359 0.930 . S
C354 H340 0.930 . S
C354 C352 1.395 1_545 S
C354 C357 1.403 . S
C355 C352 1.403 . S
C355 C356 1.524 . S
C355 C359 1.400 . S
C356 H341 0.960 . S
C356 H342 0.960 . S
C356 H343 0.960 . S
C356 C355 1.524 . S
C357 C354 1.403 . S
C357 C358 1.392 . S
C357 C361 1.495 . S
C358 C357 1.392 . S
C358 C359 1.385 1_545 S
C358 C360 1.478 . S
C359 H353 0.930 . S
C359 C355 1.400 . S
C359 C358 1.385 1_565 S
C360 C358 1.478 . S
C360 C362 1.381 . S
C360 C366 1.383 . S
C361 C357 1.495 . S
C361 H367 0.959 . S
C361 H368 0.961 . S
C361 H369 0.960 . S
C362 C360 1.381 . S
C362 C363 1.394 . S
C362 H370 0.930 . S
C363 C362 1.394 . S
C363 C364 1.383 . S
C363 H371 0.929 . S
C364 C363 1.383 . S
C364 C365 1.377 . S
C365 H349 0.930 . S
C365 C364 1.377 . S
C365 C366 1.379 . S
C366 H350 0.931 . S
C366 C360 1.383 . S
C366 C365 1.379 . S
H367 C361 0.959 . S
H368 C361 0.961 . S
H369 C361 0.960 . S
H370 C362 0.930 . S
H371 C363 0.929 . S
H372 C380 0.929 . S
H373 C382 0.930 . S
H374 C384 0.930 . S
H375 C387 0.929 . S
H376 C390 0.930 . S
H377 C392 0.960 . S
H378 C392 0.960 . S
H379 C392 0.960 . S
C380 H372 0.929 . S
C380 C381 1.377 . S
C380 C382 1.384 . S
C381 C380 1.377 . S
C381 C387 1.390 . S
C382 H373 0.930 . S
C382 C380 1.384 . S
C382 C383 1.372 . S
C383 C382 1.372 . S
C383 C384 1.400 . S
C383 C388 1.490 . S
C384 H374 0.930 . S
C384 C383 1.400 . S
C384 C387 1.386 . S
H385 C401 0.930 . S
H386 C402 0.931 . S
C387 H375 0.929 . S
C387 C381 1.390 . S
C387 C384 1.386 . S
C388 C383 1.490 . S
C388 C390 1.395 . S
C388 C391 1.403 1_565 S
H389 C395 0.930 . S
C390 H376 0.930 . S
C390 C388 1.395 . S
C390 C393 1.403 . S
C391 C388 1.403 1_545 S
C391 C392 1.524 . S
C391 C395 1.400 . S
C392 H377 0.960 . S
C392 H378 0.960 . S
C392 H379 0.960 . S
C392 C391 1.524 . S
C393 C390 1.403 . S
C393 C394 1.392 . S
C393 C397 1.495 . S
C394 C393 1.392 . S
C394 C395 1.385 1_565 S
C394 C396 1.478 1_565 S
C395 H389 0.930 . S
C395 C391 1.400 . S
C395 C394 1.385 1_545 S
C396 C394 1.478 1_545 S
C396 C398 1.381 . S
C396 C402 1.383 . S
C397 C393 1.495 . S
C397 H403 0.959 . S
C397 H404 0.961 . S
C397 H405 0.960 . S
C398 C396 1.381 . S
C398 C399 1.394 . S
C398 H406 0.930 . S
C399 C398 1.394 . S
C399 C400 1.383 . S
C399 H407 0.929 . S
C400 C399 1.383 . S
C400 C401 1.377 . S
C401 H385 0.930 . S
C401 C400 1.377 . S
C401 C402 1.379 . S
C402 H386 0.931 . S
C402 C396 1.383 . S
C402 C401 1.379 . S
H403 C397 0.959 . S
H404 C397 0.961 . S
H405 C397 0.960 . S
H406 C398 0.930 . S
H407 C399 0.929 . S
H408 C416 0.929 . S
H409 C418 0.930 . S
H410 C420 0.930 . S
H411 C423 0.929 . S
H412 C426 0.930 . S
H413 C428 0.960 . S
H414 C428 0.960 . S
H415 C428 0.960 . S
C416 H408 0.929 . S
C416 C417 1.377 . S
C416 C418 1.384 . S
C417 C416 1.377 . S
C417 C423 1.390 . S
C418 H409 0.930 . S
C418 C416 1.384 . S
C418 C419 1.372 . S
C419 C418 1.372 . S
C419 C420 1.400 . S
C419 C424 1.490 . S
C420 H410 0.930 . S
C420 C419 1.400 . S
C420 C423 1.386 . S
H421 C437 0.930 . S
H422 C438 0.931 . S
C423 H411 0.929 . S
C423 C417 1.390 . S
C423 C420 1.386 . S
C424 C419 1.490 . S
C424 C426 1.395 . S
C424 C427 1.403 . S
H425 C431 0.930 . S
C426 H412 0.930 . S
C426 C424 1.395 . S
C426 C429 1.403 . S
C427 C424 1.403 . S
C427 C428 1.524 . S
C427 C431 1.400 . S
C428 H413 0.960 . S
C428 H414 0.960 . S
C428 H415 0.960 . S
C428 C427 1.524 . S
C429 C426 1.403 . S
C429 C430 1.392 . S
C429 C433 1.495 . S
C430 C429 1.392 . S
C430 C431 1.385 . S
C430 C432 1.478 . S
C431 H425 0.930 . S
C431 C427 1.400 . S
C431 C430 1.385 . S
C432 C430 1.478 . S
C432 C434 1.381 . S
C432 C438 1.383 . S
C433 C429 1.495 . S
C433 H439 0.959 . S
C433 H440 0.961 . S
C433 H441 0.960 . S
C434 C432 1.381 . S
C434 C435 1.394 . S
C434 H442 0.930 . S
C435 C434 1.394 . S
C435 C436 1.383 . S
C435 H443 0.929 . S
C436 C435 1.383 . S
C436 C437 1.377 . S
C437 H421 0.930 . S
C437 C436 1.377 . S
C437 C438 1.379 . S
C438 H422 0.931 . S
C438 C432 1.383 . S
C438 C437 1.379 . S
H439 C433 0.959 . S
H440 C433 0.961 . S
H441 C433 0.960 . S
H442 C434 0.930 . S
H443 C435 0.929 . S
H444 C452 0.929 . S
H445 C454 0.930 . S
H446 C456 0.930 . S
H447 C459 0.929 . S
H448 C462 0.930 . S
H449 C464 0.960 . S
H450 C464 0.960 . S
H451 C464 0.960 . S
C452 H444 0.929 . S
C452 C453 1.377 . S
C452 C454 1.384 . S
C453 C452 1.377 . S
C453 C459 1.390 . S
C454 H445 0.930 . S
C454 C452 1.384 . S
C454 C455 1.372 . S
C455 C454 1.372 . S
C455 C456 1.400 . S
C455 C460 1.490 . S
C456 H446 0.930 . S
C456 C455 1.400 . S
C456 C459 1.386 . S
H457 C473 0.930 . S
H458 C474 0.931 . S
C459 H447 0.929 . S
C459 C453 1.390 . S
C459 C456 1.386 . S
C460 C455 1.490 . S
C460 C462 1.395 . S
C460 C463 1.403 . S
H461 C467 0.930 . S
C462 H448 0.930 . S
C462 C460 1.395 . S
C462 C465 1.403 . S
C463 C460 1.403 . S
C463 C464 1.524 . S
C463 C467 1.400 . S
C464 H449 0.960 . S
C464 H450 0.960 . S
C464 H451 0.960 . S
C464 C463 1.524 . S
C465 C462 1.403 . S
C465 C466 1.392 . S
C465 C469 1.495 . S
C466 C465 1.392 . S
C466 C467 1.385 . S
C466 C468 1.478 . S
C467 H461 0.930 . S
C467 C463 1.400 . S
C467 C466 1.385 . S
C468 C466 1.478 . S
C468 C470 1.381 . S
C468 C474 1.383 . S
C469 C465 1.495 . S
C469 H475 0.959 . S
C469 H476 0.961 . S
C469 H477 0.960 . S
C470 C468 1.381 . S
C470 C471 1.394 . S
C470 H478 0.930 . S
C471 C470 1.394 . S
C471 C472 1.383 . S
C471 H479 0.929 . S
C472 C471 1.383 . S
C472 C473 1.377 . S
C473 H457 0.930 . S
C473 C472 1.377 . S
C473 C474 1.379 . S
C474 H458 0.931 . S
C474 C468 1.383 . S
C474 C473 1.379 . S
H475 C469 0.959 . S
H476 C469 0.961 . S
H477 C469 0.960 . S
H478 C470 0.930 . S
H479 C471 0.929 . S
H480 C488 0.929 . S
H481 C490 0.930 . S
H482 C492 0.930 . S
H483 C495 0.929 . S
H484 C498 0.930 . S
H485 C500 0.960 . S
H486 C500 0.960 . S
H487 C500 0.960 . S
C488 H480 0.929 . S
C488 C489 1.377 . S
C488 C490 1.384 . S
C489 C488 1.377 . S
C489 C495 1.390 . S
C490 H481 0.930 . S
C490 C488 1.384 . S
C490 C491 1.372 . S
C491 C490 1.372 . S
C491 C492 1.400 . S
C491 C496 1.490 . S
C492 H482 0.930 . S
C492 C491 1.400 . S
C492 C495 1.386 . S
H493 C509 0.930 . S
H494 C510 0.931 . S
C495 H483 0.929 . S
C495 C489 1.390 . S
C495 C492 1.386 . S
C496 C491 1.490 . S
C496 C498 1.395 . S
C496 C499 1.403 . S
H497 C503 0.930 . S
C498 H484 0.930 . S
C498 C496 1.395 . S
C498 C501 1.403 . S
C499 C496 1.403 . S
C499 C500 1.524 . S
C499 C503 1.400 . S
C500 H485 0.960 . S
C500 H486 0.960 . S
C500 H487 0.960 . S
C500 C499 1.524 . S
C501 C498 1.403 . S
C501 C502 1.392 . S
C501 C505 1.495 . S
C502 C501 1.392 . S
C502 C503 1.385 . S
C502 C504 1.478 . S
C503 H497 0.930 . S
C503 C499 1.400 . S
C503 C502 1.385 . S
C504 C502 1.478 . S
C504 C506 1.381 . S
C504 C510 1.383 . S
C505 C501 1.495 . S
C505 H511 0.959 . S
C505 H512 0.961 . S
C505 H513 0.960 . S
C506 C504 1.381 . S
C506 C507 1.394 . S
C506 H514 0.930 . S
C507 C506 1.394 . S
C507 C508 1.383 . S
C507 H515 0.929 . S
C508 C507 1.383 . S
C508 C509 1.377 . S
C509 H493 0.930 . S
C509 C508 1.377 . S
C509 C510 1.379 . S
C510 H494 0.931 . S
C510 C504 1.383 . S
C510 C509 1.379 . S
H511 C505 0.959 . S
H512 C505 0.961 . S
H513 C505 0.960 . S
H514 C506 0.930 . S
H515 C507 0.929 . S
H516 C524 0.929 . S
H517 C526 0.930 . S
H518 C528 0.930 . S
H519 C531 0.929 . S
H520 C534 0.930 . S
H521 C536 0.960 . S
H522 C536 0.960 . S
H523 C536 0.960 . S
C524 H516 0.929 . S
C524 C525 1.377 . S
C524 C526 1.384 . S
C525 C524 1.377 . S
C525 C531 1.390 . S
C526 H517 0.930 . S
C526 C524 1.384 . S
C526 C527 1.372 . S
C527 C526 1.372 . S
C527 C528 1.400 . S
C527 C532 1.490 . S
C528 H518 0.930 . S
C528 C527 1.400 . S
C528 C531 1.386 . S
H529 C545 0.930 . S
H530 C546 0.931 . S
C531 H519 0.929 . S
C531 C525 1.390 . S
C531 C528 1.386 . S
C532 C527 1.490 . S
C532 C534 1.395 . S
C532 C535 1.403 . S
H533 C539 0.930 . S
C534 H520 0.930 . S
C534 C532 1.395 . S
C534 C537 1.403 . S
C535 C532 1.403 . S
C535 C536 1.524 . S
C535 C539 1.400 . S
C536 H521 0.960 . S
C536 H522 0.960 . S
C536 H523 0.960 . S
C536 C535 1.524 . S
C537 C534 1.403 . S
C537 C538 1.392 . S
C537 C541 1.495 . S
C538 C537 1.392 . S
C538 C539 1.385 . S
C538 C540 1.478 . S
C539 H533 0.930 . S
C539 C535 1.400 . S
C539 C538 1.385 . S
C540 C538 1.478 . S
C540 C542 1.381 . S
C540 C546 1.383 . S
C541 C537 1.495 . S
C541 H547 0.959 . S
C541 H548 0.961 . S
C541 H549 0.960 . S
C542 C540 1.381 . S
C542 C543 1.394 . S
C542 H550 0.930 . S
C543 C542 1.394 . S
C543 C544 1.383 . S
C543 H551 0.929 . S
C544 C543 1.383 . S
C544 C545 1.377 . S
C545 H529 0.930 . S
C545 C544 1.377 . S
C545 C546 1.379 . S
C546 H530 0.931 . S
C546 C540 1.383 . S
C546 C545 1.379 . S
H547 C541 0.959 . S
H548 C541 0.961 . S
H549 C541 0.960 . S
H550 C542 0.930 . S
H551 C543 0.929 . S
H552 C560 0.929 . S
H553 C562 0.930 . S
H554 C564 0.930 . S
H555 C567 0.929 . S
H556 C570 0.930 . S
H557 C572 0.960 . S
H558 C572 0.960 . S
H559 C572 0.960 . S
C560 H552 0.929 . S
C560 C561 1.377 . S
C560 C562 1.384 . S
C561 C560 1.377 . S
C561 C567 1.390 . S
C562 H553 0.930 . S
C562 C560 1.384 . S
C562 C563 1.372 . S
C563 C562 1.372 . S
C563 C564 1.400 . S
C563 C568 1.490 . S
C564 H554 0.930 . S
C564 C563 1.400 . S
C564 C567 1.386 . S
H565 C581 0.930 . S
H566 C582 0.931 . S
C567 H555 0.929 . S
C567 C561 1.390 . S
C567 C564 1.386 . S
C568 C563 1.490 . S
C568 C570 1.395 . S
C568 C571 1.403 1_565 S
H569 C575 0.930 . S
C570 H556 0.930 . S
C570 C568 1.395 . S
C570 C573 1.403 . S
C571 C568 1.403 1_545 S
C571 C572 1.524 . S
C571 C575 1.400 . S
C572 H557 0.960 . S
C572 H558 0.960 . S
C572 H559 0.960 . S
C572 C571 1.524 . S
C573 C570 1.403 . S
C573 C574 1.392 1_565 S
C573 C577 1.495 . S
C574 C573 1.392 1_545 S
C574 C575 1.385 . S
C574 C576 1.478 . S
C575 H569 0.930 . S
C575 C571 1.400 . S
C575 C574 1.385 . S
C576 C574 1.478 . S
C576 C578 1.381 . S
C576 C582 1.383 . S
C577 C573 1.495 . S
C577 H583 0.959 . S
C577 H584 0.961 . S
C577 H585 0.960 . S
C578 C576 1.381 . S
C578 C579 1.394 . S
C578 H586 0.930 . S
C579 C578 1.394 . S
C579 C580 1.383 . S
C579 H587 0.929 . S
C580 C579 1.383 . S
C580 C581 1.377 . S
C581 H565 0.930 . S
C581 C580 1.377 . S
C581 C582 1.379 . S
C582 H566 0.931 . S
C582 C576 1.383 . S
C582 C581 1.379 . S
H583 C577 0.959 . S
H584 C577 0.961 . S
H585 C577 0.960 . S
H586 C578 0.930 . S
H587 C579 0.929 . S
H588 C596 0.929 . S
H589 C598 0.930 . S
H590 C600 0.930 . S
H591 C603 0.929 . S
H592 C606 0.930 . S
H593 C608 0.960 . S
H594 C608 0.960 . S
H595 C608 0.960 . S
C596 H588 0.929 . S
C596 C597 1.377 . S
C596 C598 1.384 . S
C597 C596 1.377 . S
C597 C603 1.390 1_556 S
C598 H589 0.930 . S
C598 C596 1.384 . S
C598 C599 1.372 . S
C599 C598 1.372 . S
C599 C600 1.400 1_556 S
C599 C604 1.490 . S
C600 H590 0.930 . S
C600 C599 1.400 1_554 S
C600 C603 1.386 . S
H601 C617 0.930 . S
H602 C618 0.931 . S
C603 H591 0.929 . S
C603 C597 1.390 1_554 S
C603 C600 1.386 . S
C604 C599 1.490 . S
C604 C606 1.395 1_565 S
C604 C607 1.403 1_556 S
H605 C611 0.930 . S
C606 H592 0.930 . S
C606 C604 1.395 1_545 S
C606 C609 1.403 . S
C607 C604 1.403 1_554 S
C607 C608 1.524 . S
C607 C611 1.400 . S
C608 H593 0.960 . S
C608 H594 0.960 . S
C608 H595 0.960 . S
C608 C607 1.524 . S
C609 C606 1.403 . S
C609 C610 1.392 . S
C609 C613 1.495 . S
C610 C609 1.392 . S
C610 C611 1.385 1_546 S
C610 C612 1.485 1_556 S
C611 H605 0.930 . S
C611 C607 1.400 . S
C611 C610 1.385 1_564 S
C612 C610 1.485 1_554 S
C612 C614 1.359 1_554 S
C612 C618 1.398 . S
C613 C609 1.495 . S
C613 H619 0.959 . S
C613 H620 0.961 . S
C613 H621 0.960 . S
C614 C612 1.359 1_556 S
C614 C615 1.394 . S
C614 H622 0.930 . S
C615 C614 1.394 . S
C615 C616 1.383 1_556 S
C615 H623 0.929 . S
C616 C615 1.383 1_554 S
C616 C617 1.377 . S
C617 H601 0.930 . S
C617 C616 1.377 . S
C617 C618 1.379 . S
C618 H602 0.931 . S
C618 C612 1.398 . S
C618 C617 1.379 . S
H619 C613 0.959 . S
H620 C613 0.961 . S
H621 C613 0.960 . S
H622 C614 0.930 . S
H623 C615 0.929 . S
H624 C632 0.929 . S
H625 C634 0.930 . S
H626 C636 0.930 . S
H627 C639 0.929 . S
H628 C642 0.921 1_655 S
H629 C644 0.960 . S
H630 C644 0.960 . S
H631 C644 0.960 . S
C632 H624 0.929 . S
C632 C633 1.377 . S
C632 C634 1.384 . S
C633 C632 1.377 . S
C633 C639 1.390 . S
C634 H625 0.930 . S
C634 C632 1.384 . S
C634 C635 1.372 . S
C635 C634 1.372 . S
C635 C636 1.400 . S
C635 C640 1.490 . S
C636 H626 0.930 . S
C636 C635 1.400 . S
C636 C639 1.386 . S
H637 C653 0.930 . S
H638 C654 0.931 . S
C639 H627 0.929 . S
C639 C633 1.390 . S
C639 C636 1.386 . S
C640 C635 1.490 . S
C640 C642 1.387 1_655 S
C640 C643 1.403 . S
H641 C647 0.930 . S
C642 H628 0.921 1_455 S
C642 C640 1.387 1_455 S
C642 C645 1.419 . S
C643 C640 1.403 . S
C643 C644 1.524 . S
C643 C647 1.400 1_655 S
C644 H629 0.960 . S
C644 H630 0.960 . S
C644 H631 0.960 . S
C644 C643 1.524 . S
C645 C642 1.419 . S
C645 C646 1.392 . S
C645 C649 1.495 . S
C646 C645 1.392 . S
C646 C647 1.385 . S
C646 C648 1.478 . S
C647 H641 0.930 . S
C647 C643 1.400 1_455 S
C647 C646 1.385 . S
C648 C646 1.478 . S
C648 C650 1.381 . S
C648 C654 1.383 . S
C649 C645 1.495 . S
C649 H655 0.959 . S
C649 H656 0.961 . S
C649 H657 0.960 . S
C650 C648 1.381 . S
C650 C651 1.394 . S
C650 H658 0.930 . S
C651 C650 1.394 . S
C651 C652 1.383 . S
C651 H659 0.929 . S
C652 C651 1.383 . S
C652 C653 1.377 . S
C653 H637 0.930 . S
C653 C652 1.377 . S
C653 C654 1.379 . S
C654 H638 0.931 . S
C654 C648 1.383 . S
C654 C653 1.379 . S
H655 C649 0.959 . S
H656 C649 0.961 . S
H657 C649 0.960 . S
H658 C650 0.930 . S
H659 C651 0.929 . S
H660 C668 0.929 . S
H661 C670 0.930 . S
H662 C672 0.930 . S
H663 C675 0.929 . S
H664 C678 0.930 . S
H665 C680 0.960 . S
H666 C680 0.960 . S
H667 C680 0.960 . S
C668 H660 0.929 . S
C668 C669 1.377 . S
C668 C670 1.384 . S
C669 C668 1.377 . S
C669 C675 1.390 . S
C670 H661 0.930 . S
C670 C668 1.384 . S
C670 C671 1.372 . S
C671 C670 1.372 . S
C671 C672 1.400 . S
C671 C676 1.490 . S
C672 H662 0.930 . S
C672 C671 1.400 . S
C672 C675 1.386 . S
H673 C689 0.930 . S
H674 C690 0.931 . S
C675 H663 0.929 . S
C675 C669 1.390 . S
C675 C672 1.386 . S
C676 C671 1.490 . S
C676 C678 1.395 1_454 S
C676 C679 1.403 . S
H677 C683 0.930 . S
C678 H664 0.930 . S
C678 C676 1.395 1_656 S
C678 C681 1.403 . S
C679 C676 1.403 . S
C679 C680 1.524 . S
C679 C683 1.400 1_455 S
C680 H665 0.960 . S
C680 H666 0.960 . S
C680 H667 0.960 . S
C680 C679 1.524 . S
C681 C678 1.403 . S
C681 C682 1.392 . S
C681 C685 1.495 . S
C682 C681 1.392 . S
C682 C683 1.385 1_556 S
C682 C684 1.478 . S
C683 H677 0.930 . S
C683 C679 1.400 1_655 S
C683 C682 1.385 1_554 S
C684 C682 1.478 . S
C684 C686 1.381 . S
C684 C690 1.383 . S
C685 C681 1.495 . S
C685 H691 0.959 . S
C685 H692 0.961 . S
C685 H693 0.960 . S
C686 C684 1.381 . S
C686 C687 1.394 . S
C686 H694 0.930 . S
C687 C686 1.394 . S
C687 C688 1.383 . S
C687 H695 0.929 . S
C688 C687 1.383 . S
C688 C689 1.377 . S
C689 H673 0.930 . S
C689 C688 1.377 . S
C689 C690 1.379 . S
C690 H674 0.931 . S
C690 C684 1.383 . S
C690 C689 1.379 . S
H691 C685 0.959 . S
H692 C685 0.961 . S
H693 C685 0.960 . S
H694 C686 0.930 . S
H695 C687 0.929 . S
H696 C704 0.929 . S
H697 C706 0.930 . S
H698 C708 0.930 . S
H699 C711 0.929 . S
H700 C714 0.930 . S
H701 C716 0.960 . S
H702 C716 0.960 . S
H703 C716 0.960 . S
C704 H696 0.929 . S
C704 C705 1.377 . S
C704 C706 1.384 . S
C705 C704 1.377 . S
C705 C711 1.390 . S
C706 H697 0.930 . S
C706 C704 1.384 . S
C706 C707 1.372 . S
C707 C706 1.372 . S
C707 C708 1.400 . S
C707 C712 1.490 . S
C708 H698 0.930 . S
C708 C707 1.400 . S
C708 C711 1.386 . S
H709 C725 0.930 . S
H710 C726 0.931 . S
C711 H699 0.929 . S
C711 C705 1.390 . S
C711 C708 1.386 . S
C712 C707 1.490 . S
C712 C714 1.395 . S
C712 C715 1.403 . S
H713 C719 0.930 . S
C714 H700 0.930 . S
C714 C712 1.395 . S
C714 C717 1.403 1_455 S
C715 C712 1.403 . S
C715 C716 1.524 . S
C715 C719 1.400 1_455 S
C716 H701 0.960 . S
C716 H702 0.960 . S
C716 H703 0.960 . S
C716 C715 1.524 . S
C717 C714 1.403 1_655 S
C717 C718 1.392 . S
C717 C721 1.495 . S
C718 C717 1.392 . S
C718 C719 1.385 . S
C718 C720 1.478 . S
C719 H713 0.930 . S
C719 C715 1.400 1_655 S
C719 C718 1.385 . S
C720 C718 1.478 . S
C720 C722 1.381 . S
C720 C726 1.383 . S
C721 C717 1.495 . S
C721 H727 0.959 . S
C721 H728 0.961 . S
C721 H729 0.960 . S
C722 C720 1.381 . S
C722 C723 1.394 . S
C722 H730 0.930 . S
C723 C722 1.394 . S
C723 C724 1.383 . S
C723 H731 0.929 . S
C724 C723 1.383 . S
C724 C725 1.377 . S
C725 H709 0.930 . S
C725 C724 1.377 . S
C725 C726 1.379 . S
C726 H710 0.931 . S
C726 C720 1.383 . S
C726 C725 1.379 . S
H727 C721 0.959 . S
H728 C721 0.961 . S
H729 C721 0.960 . S
H730 C722 0.930 . S
H731 C723 0.929 . S
H732 C740 0.929 . S
H733 C742 0.930 . S
H734 C744 0.930 . S
H735 C747 0.929 . S
H736 C750 0.930 . S
H737 C752 0.960 . S
H738 C752 0.960 . S
H739 C752 0.960 . S
C740 H732 0.929 . S
C740 C741 1.377 . S
C740 C742 1.384 . S
C741 C740 1.377 . S
C741 C747 1.390 . S
C742 H733 0.930 . S
C742 C740 1.384 . S
C742 C743 1.372 . S
C743 C742 1.372 . S
C743 C744 1.400 . S
C743 C748 1.490 . S
C744 H734 0.930 . S
C744 C743 1.400 . S
C744 C747 1.386 . S
H745 C761 0.930 . S
H746 C762 0.931 . S
C747 H735 0.929 . S
C747 C741 1.390 . S
C747 C744 1.386 . S
C748 C743 1.490 . S
C748 C750 1.395 . S
C748 C751 1.403 . S
H749 C755 0.930 . S
C750 H736 0.930 . S
C750 C748 1.395 . S
C750 C753 1.403 1_455 S
C751 C748 1.403 . S
C751 C752 1.524 . S
C751 C755 1.400 1_455 S
C752 H737 0.960 . S
C752 H738 0.960 . S
C752 H739 0.960 . S
C752 C751 1.524 . S
C753 C750 1.403 1_655 S
C753 C754 1.392 . S
C753 C757 1.495 . S
C754 C753 1.392 . S
C754 C755 1.385 . S
C754 C756 1.478 . S
C755 H749 0.930 . S
C755 C751 1.400 1_655 S
C755 C754 1.385 . S
C756 C754 1.478 . S
C756 C758 1.381 . S
C756 C762 1.383 . S
C757 C753 1.495 . S
C757 H763 0.959 . S
C757 H764 0.961 . S
C757 H765 0.960 . S
C758 C756 1.381 . S
C758 C759 1.394 . S
C758 H766 0.930 . S
C759 C758 1.394 . S
C759 C760 1.383 . S
C759 H767 0.929 . S
C760 C759 1.383 . S
C760 C761 1.377 . S
C761 H745 0.930 . S
C761 C760 1.377 . S
C761 C762 1.379 . S
C762 H746 0.931 . S
C762 C756 1.383 . S
C762 C761 1.379 . S
H763 C757 0.959 . S
H764 C757 0.961 . S
H765 C757 0.960 . S
H766 C758 0.930 . S
H767 C759 0.929 . S
H768 C776 0.929 . S
H769 C778 0.930 . S
H770 C780 0.930 . S
H771 C783 0.929 . S
H772 C786 0.930 . S
H773 C788 0.960 . S
H774 C788 0.960 . S
H775 C788 0.960 . S
C776 H768 0.929 . S
C776 C777 1.377 . S
C776 C778 1.384 . S
C777 C776 1.377 . S
C777 C783 1.390 . S
C778 H769 0.930 . S
C778 C776 1.384 . S
C778 C779 1.372 . S
C779 C778 1.372 . S
C779 C780 1.400 . S
C779 C784 1.490 . S
C780 H770 0.930 . S
C780 C779 1.400 . S
C780 C783 1.386 . S
H781 C797 0.930 . S
H782 C798 0.931 . S
C783 H771 0.929 . S
C783 C777 1.390 . S
C783 C780 1.386 . S
C784 C779 1.490 . S
C784 C786 1.395 . S
C784 C787 1.403 . S
H785 C791 0.930 . S
C786 H772 0.930 . S
C786 C784 1.395 . S
C786 C789 1.403 . S
C787 C784 1.403 . S
C787 C788 1.524 . S
C787 C791 1.400 . S
C788 H773 0.960 . S
C788 H774 0.960 . S
C788 H775 0.960 . S
C788 C787 1.524 . S
C789 C786 1.403 . S
C789 C790 1.392 . S
C789 C793 1.495 . S
C790 C789 1.392 . S
C790 C791 1.385 . S
C790 C792 1.478 . S
C791 H785 0.930 . S
C791 C787 1.400 . S
C791 C790 1.385 . S
C792 C790 1.478 . S
C792 C794 1.381 . S
C792 C798 1.383 . S
C793 C789 1.495 . S
C793 H799 0.959 . S
C793 H800 0.961 . S
C793 H801 0.960 . S
C794 C792 1.381 . S
C794 C795 1.394 . S
C794 H802 0.930 . S
C795 C794 1.394 . S
C795 C796 1.383 . S
C795 H803 0.929 . S
C796 C795 1.383 . S
C796 C797 1.377 . S
C797 H781 0.930 . S
C797 C796 1.377 . S
C797 C798 1.379 . S
C798 H782 0.931 . S
C798 C792 1.383 . S
C798 C797 1.379 . S
H799 C793 0.959 . S
H800 C793 0.961 . S
H801 C793 0.960 . S
H802 C794 0.930 . S
H803 C795 0.929 . S
H804 C812 0.929 . S
H805 C814 0.930 . S
H806 C816 0.930 . S
H807 C819 0.929 . S
H808 C822 0.930 . S
H809 C824 0.960 . S
H810 C824 0.960 . S
H811 C824 0.960 . S
C812 H804 0.929 . S
C812 C813 1.377 . S
C812 C814 1.384 . S
C813 C812 1.377 . S
C813 C819 1.390 . S
C814 H805 0.930 . S
C814 C812 1.384 . S
C814 C815 1.372 . S
C815 C814 1.372 . S
C815 C816 1.400 . S
C815 C820 1.490 . S
C816 H806 0.930 . S
C816 C815 1.400 . S
C816 C819 1.386 . S
H817 C833 0.930 . S
H818 C834 0.931 . S
C819 H807 0.929 . S
C819 C813 1.390 . S
C819 C816 1.386 . S
C820 C815 1.490 . S
C820 C822 1.395 . S
C820 C823 1.403 . S
H821 C827 0.930 . S
C822 H808 0.930 . S
C822 C820 1.395 . S
C822 C825 1.403 . S
C823 C820 1.403 . S
C823 C824 1.524 . S
C823 C827 1.400 . S
C824 H809 0.960 . S
C824 H810 0.960 . S
C824 H811 0.960 . S
C824 C823 1.524 . S
C825 C822 1.403 . S
C825 C826 1.392 . S
C825 C829 1.495 . S
C826 C825 1.392 . S
C826 C827 1.385 . S
C826 C828 1.478 . S
C827 H821 0.930 . S
C827 C823 1.400 . S
C827 C826 1.385 . S
C828 C826 1.478 . S
C828 C830 1.381 . S
C828 C834 1.383 . S
C829 C825 1.495 . S
C829 H835 0.959 . S
C829 H836 0.961 . S
C829 H837 0.960 . S
C830 C828 1.381 . S
C830 C831 1.394 . S
C830 H838 0.930 . S
C831 C830 1.394 . S
C831 C832 1.383 . S
C831 H839 0.929 . S
C832 C831 1.383 . S
C832 C833 1.377 . S
C833 H817 0.930 . S
C833 C832 1.377 . S
C833 C834 1.379 . S
C834 H818 0.931 . S
C834 C828 1.383 . S
C834 C833 1.379 . S
H835 C829 0.959 . S
H836 C829 0.961 . S
H837 C829 0.960 . S
H838 C830 0.930 . S
H839 C831 0.929 . S
H840 C848 0.929 . S
H841 C850 0.930 . S
H842 C852 0.930 . S
H843 C855 0.929 . S
H844 C858 0.930 . S
H845 C860 0.960 . S
H846 C860 0.960 . S
H847 C860 0.960 . S
C848 H840 0.929 . S
C848 C849 1.377 . S
C848 C850 1.384 . S
C849 C848 1.377 . S
C849 C855 1.390 . S
C850 H841 0.930 . S
C850 C848 1.384 . S
C850 C851 1.372 . S
C851 C850 1.372 . S
C851 C852 1.400 . S
C851 C856 1.490 . S
C852 H842 0.930 . S
C852 C851 1.400 . S
C852 C855 1.386 . S
H853 C869 0.930 . S
H854 C870 0.931 . S
C855 H843 0.929 . S
C855 C849 1.390 . S
C855 C852 1.386 . S
C856 C851 1.490 . S
C856 C858 1.395 . S
C856 C859 1.403 . S
H857 C863 0.930 . S
C858 H844 0.930 . S
C858 C856 1.395 . S
C858 C861 1.403 . S
C859 C856 1.403 . S
C859 C860 1.524 . S
C859 C863 1.400 . S
C860 H845 0.960 . S
C860 H846 0.960 . S
C860 H847 0.960 . S
C860 C859 1.524 . S
C861 C858 1.403 . S
C861 C862 1.392 . S
C861 C865 1.495 . S
C862 C861 1.392 . S
C862 C863 1.385 . S
C862 C864 1.478 . S
C863 H857 0.930 . S
C863 C859 1.400 . S
C863 C862 1.385 . S
C864 C862 1.478 . S
C864 C866 1.381 . S
C864 C870 1.383 . S
C865 C861 1.495 . S
C865 H871 0.959 . S
C865 H872 0.961 . S
C865 H873 0.960 . S
C866 C864 1.381 . S
C866 C867 1.394 . S
C866 H874 0.930 . S
C867 C866 1.394 . S
C867 C868 1.383 . S
C867 H875 0.929 . S
C868 C867 1.383 . S
C868 C869 1.377 . S
C869 H853 0.930 . S
C869 C868 1.377 . S
C869 C870 1.379 . S
C870 H854 0.931 . S
C870 C864 1.383 . S
C870 C869 1.379 . S
H871 C865 0.959 . S
H872 C865 0.961 . S
H873 C865 0.960 . S
H874 C866 0.930 . S
H875 C867 0.929 . S
H876 C884 0.929 . S
H877 C886 0.930 . S
H878 C888 0.930 . S
H879 C891 0.929 . S
H880 C894 0.930 . S
H881 C896 0.960 . S
H882 C896 0.960 . S
H883 C896 0.960 . S
C884 H876 0.929 . S
C884 C885 1.377 . S
C884 C886 1.384 . S
C885 C884 1.377 . S
C885 C891 1.390 . S
C886 H877 0.930 . S
C886 C884 1.384 . S
C886 C887 1.372 . S
C887 C886 1.372 . S
C887 C888 1.400 . S
C887 C892 1.490 . S
C888 H878 0.930 . S
C888 C887 1.400 . S
C888 C891 1.386 . S
H889 C905 0.930 . S
H890 C906 0.931 . S
C891 H879 0.929 . S
C891 C885 1.390 . S
C891 C888 1.386 . S
C892 C887 1.490 . S
C892 C894 1.395 1_556 S
C892 C895 1.403 . S
H893 C899 0.930 . S
C894 H880 0.930 . S
C894 C892 1.395 1_554 S
C894 C897 1.403 . S
C895 C892 1.403 . S
C895 C896 1.524 . S
C895 C899 1.400 . S
C896 H881 0.960 . S
C896 H882 0.960 . S
C896 H883 0.960 . S
C896 C895 1.524 . S
C897 C894 1.403 . S
C897 C898 1.392 . S
C897 C901 1.495 . S
C898 C897 1.392 . S
C898 C899 1.385 1_554 S
C898 C900 1.478 . S
C899 H893 0.930 . S
C899 C895 1.400 . S
C899 C898 1.385 1_556 S
C900 C898 1.478 . S
C900 C902 1.381 . S
C900 C906 1.383 . S
C901 C897 1.495 . S
C901 H907 0.959 . S
C901 H908 0.961 . S
C901 H909 0.960 . S
C902 C900 1.381 . S
C902 C903 1.394 . S
C902 H910 0.930 . S
C903 C902 1.394 . S
C903 C904 1.383 . S
C903 H911 0.929 . S
C904 C903 1.383 . S
C904 C905 1.377 . S
C905 H889 0.930 . S
C905 C904 1.377 . S
C905 C906 1.379 . S
C906 H890 0.931 . S
C906 C900 1.383 . S
C906 C905 1.379 . S
H907 C901 0.959 . S
H908 C901 0.961 . S
H909 C901 0.960 . S
H910 C902 0.930 . S
H911 C903 0.929 . S
H912 C920 0.929 . S
H913 C922 0.930 . S
H914 C924 0.930 . S
H915 C927 0.929 . S
H916 C930 0.930 . S
H917 C932 0.960 . S
H918 C932 0.960 . S
H919 C932 0.960 . S
C920 H912 0.929 . S
C920 C921 1.377 . S
C920 C922 1.384 . S
C921 C920 1.377 . S
C921 C927 1.390 . S
C922 H913 0.930 . S
C922 C920 1.384 . S
C922 C923 1.372 . S
C923 C922 1.372 . S
C923 C924 1.400 . S
C923 C928 1.490 . S
C924 H914 0.930 . S
C924 C923 1.400 . S
C924 C927 1.386 . S
H925 C941 0.930 . S
H926 C942 0.931 . S
C927 H915 0.929 . S
C927 C921 1.390 . S
C927 C924 1.386 . S
C928 C923 1.490 . S
C928 C930 1.395 . S
C928 C931 1.403 . S
H929 C935 0.930 . S
C930 H916 0.930 . S
C930 C928 1.395 . S
C930 C933 1.403 . S
C931 C928 1.403 . S
C931 C932 1.524 . S
C931 C935 1.400 . S
C932 H917 0.960 . S
C932 H918 0.960 . S
C932 H919 0.960 . S
C932 C931 1.524 . S
C933 C930 1.403 . S
C933 C934 1.392 . S
C933 C937 1.495 . S
C934 C933 1.392 . S
C934 C935 1.385 . S
C934 C936 1.478 . S
C935 H929 0.930 . S
C935 C931 1.400 . S
C935 C934 1.385 . S
C936 C934 1.478 . S
C936 C938 1.381 . S
C936 C942 1.383 . S
C937 C933 1.495 . S
C937 H943 0.959 . S
C937 H944 0.961 . S
C937 H945 0.960 . S
C938 C936 1.381 . S
C938 C939 1.394 . S
C938 H946 0.930 . S
C939 C938 1.394 . S
C939 C940 1.383 . S
C939 H947 0.929 . S
C940 C939 1.383 . S
C940 C941 1.377 . S
C941 H925 0.930 . S
C941 C940 1.377 . S
C941 C942 1.379 . S
C942 H926 0.931 . S
C942 C936 1.383 . S
C942 C941 1.379 . S
H943 C937 0.959 . S
H944 C937 0.961 . S
H945 C937 0.960 . S
H946 C938 0.930 . S
H947 C939 0.929 . S
H948 C956 0.929 . S
H949 C958 0.930 . S
H950 C960 0.930 . S
H951 C963 0.929 . S
H952 C966 0.930 . S
H953 C968 0.960 . S
H954 C968 0.960 . S
H955 C968 0.960 . S
C956 H948 0.929 . S
C956 C957 1.377 . S
C956 C958 1.384 . S
C957 C956 1.377 . S
C957 C963 1.390 . S
C958 H949 0.930 . S
C958 C956 1.384 . S
C958 C959 1.372 . S
C959 C958 1.372 . S
C959 C960 1.400 . S
C959 C964 1.490 . S
C960 H950 0.930 . S
C960 C959 1.400 . S
C960 C963 1.386 . S
H961 C977 0.930 . S
H962 C978 0.931 . S
C963 H951 0.929 . S
C963 C957 1.390 . S
C963 C960 1.386 . S
C964 C959 1.490 . S
C964 C966 1.395 . S
C964 C967 1.403 1_556 S
H965 C971 0.930 . S
C966 H952 0.930 . S
C966 C964 1.395 . S
C966 C969 1.403 . S
C967 C964 1.403 1_554 S
C967 C968 1.524 . S
C967 C971 1.400 . S
C968 H953 0.960 . S
C968 H954 0.960 . S
C968 H955 0.960 . S
C968 C967 1.524 . S
C969 C966 1.403 . S
C969 C970 1.392 1_556 S
C969 C973 1.495 . S
C970 C969 1.392 1_554 S
C970 C971 1.385 . S
C970 C972 1.478 . S
C971 H965 0.930 . S
C971 C967 1.400 . S
C971 C970 1.385 . S
C972 C970 1.478 . S
C972 C974 1.381 . S
C972 C978 1.383 . S
C973 C969 1.495 . S
C973 H979 0.959 . S
C973 H980 0.961 . S
C973 H981 0.960 . S
C974 C972 1.381 . S
C974 C975 1.394 . S
C974 H982 0.930 . S
C975 C974 1.394 . S
C975 C976 1.383 . S
C975 H983 0.929 . S
C976 C975 1.383 . S
C976 C977 1.377 . S
C977 H961 0.930 . S
C977 C976 1.377 . S
C977 C978 1.379 . S
C978 H962 0.931 . S
C978 C972 1.383 . S
C978 C977 1.379 . S
H979 C973 0.959 . S
H980 C973 0.961 . S
H981 C973 0.960 . S
H982 C974 0.930 . S
H983 C975 0.929 . S
C273 C116 0.787 . S
C292 C28 0.774 . S
C309 C61 0.785 . S
C328 C83 0.795 . S
C345 C94 0.784 . S
C364 C50 0.777 . S
C381 C127 0.791 . S
C400 C17 0.801 . S
C417 C160 0.785 . S
C436 C248 0.766 . S
C453 C193 0.791 . S
C472 C215 0.798 . S
C489 C182 0.783 . S
C508 C226 0.785 . S
C525 C259 0.784 . S
C544 C149 0.780 . S
C561 N71 2.048 . S
C580 N5 2.039 . S
C597 N104 2.047 . S
C616 N38 2.046 . S
C633 N137 2.046 . S
C652 N203 2.036 . S
C669 N170 2.046 . S
C688 N236 2.038 . S
C705 N14 1.797 . S
C724 N47 1.803 . S
C741 N113 1.802 . S
C760 N80 1.789 . S
C777 N179 1.797 . S
C796 N146 1.781 . S
C813 N245 1.797 . S
C832 N212 1.816 . S
C849 C206 1.487 . S
C868 C8 1.497 . S
C885 C239 1.491 . S
C904 C41 1.496 . S
C921 C140 1.489 . S
C940 C74 1.501 . S
C957 C107 1.484 . S
C976 C173 1.476 . S
