# Generated by pormake.
# Topology uoi, (4)-cn, num edge types: 1
# Building blocks:
#     Node 0, Type 0, BuildingBlock: NAHDIM_clean_sbu_0, # of connection points: 4
#     Node 1, Type 0, BuildingBlock: NAHDIM_clean_sbu_0, # of connection points: 4
#     Node 2, Type 0, BuildingBlock: NAHDIM_clean_sbu_0, # of connection points: 4
#     Node 3, Type 0, BuildingBlock: NAHDIM_clean_sbu_0, # of connection points: 4
#     Node 4, Type 0, BuildingBlock: NAHDIM_clean_sbu_0, # of connection points: 4
#     Node 5, Type 0, BuildingBlock: NAHDIM_clean_sbu_0, # of connection points: 4
#     Node 6, Type 0, BuildingBlock: NAHDIM_clean_sbu_0, # of connection points: 4
#     Node 7, Type 0, BuildingBlock: NAHDIM_clean_sbu_0, # of connection points: 4
#     Node 8, Type 0, BuildingBlock: NAHDIM_clean_sbu_0, # of connection points: 4
#     Node 9, Type 0, BuildingBlock: NAHDIM_clean_sbu_0, # of connection points: 4
#     Node 10, Type 0, BuildingBlock: NAHDIM_clean_sbu_0, # of connection points: 4
#     Node 11, Type 0, BuildingBlock: NAHDIM_clean_sbu_0, # of connection points: 4
#     Node 12, Type 0, BuildingBlock: NAHDIM_clean_sbu_0, # of connection points: 4
#     Node 13, Type 0, BuildingBlock: NAHDIM_clean_sbu_0, # of connection points: 4
#     Node 14, Type 0, BuildingBlock: NAHDIM_clean_sbu_0, # of connection points: 4
#     Node 15, Type 0, BuildingBlock: NAHDIM_clean_sbu_0, # of connection points: 4
#     Node 16, Type 0, BuildingBlock: NAHDIM_clean_sbu_0, # of connection points: 4
#     Node 17, Type 0, BuildingBlock: NAHDIM_clean_sbu_0, # of connection points: 4
#     Node 18, Type 0, BuildingBlock: NAHDIM_clean_sbu_0, # of connection points: 4
#     Node 19, Type 0, BuildingBlock: NAHDIM_clean_sbu_0, # of connection points: 4
#     Node 20, Type 0, BuildingBlock: NAHDIM_clean_sbu_0, # of connection points: 4
#     Node 21, Type 0, BuildingBlock: NAHDIM_clean_sbu_0, # of connection points: 4
#     Node 22, Type 0, BuildingBlock: NAHDIM_clean_sbu_0, # of connection points: 4
#     Node 23, Type 0, BuildingBlock: NAHDIM_clean_sbu_0, # of connection points: 4
#     Node 24, Type 0, BuildingBlock: NAHDIM_clean_sbu_0, # of connection points: 4
#     Node 25, Type 0, BuildingBlock: NAHDIM_clean_sbu_0, # of connection points: 4
#     Node 26, Type 0, BuildingBlock: NAHDIM_clean_sbu_0, # of connection points: 4
#     Node 27, Type 0, BuildingBlock: NAHDIM_clean_sbu_0, # of connection points: 4
#     Node 28, Type 0, BuildingBlock: NAHDIM_clean_sbu_0, # of connection points: 4
#     Node 29, Type 0, BuildingBlock: NAHDIM_clean_sbu_0, # of connection points: 4
#     Node 30, Type 0, BuildingBlock: NAHDIM_clean_sbu_0, # of connection points: 4
#     Node 31, Type 0, BuildingBlock: NAHDIM_clean_sbu_0, # of connection points: 4
#     Edge 32, Type (0, 0), BuildingBlock: OJICUG_clean_linker_0, # of connection points: 2
#     Edge 33, Type (0, 0), BuildingBlock: OJICUG_clean_linker_0, # of connection points: 2
#     Edge 34, Type (0, 0), BuildingBlock: OJICUG_clean_linker_0, # of connection points: 2
#     Edge 35, Type (0, 0), BuildingBlock: OJICUG_clean_linker_0, # of connection points: 2
#     Edge 36, Type (0, 0), BuildingBlock: OJICUG_clean_linker_0, # of connection points: 2
#     Edge 37, Type (0, 0), BuildingBlock: OJICUG_clean_linker_0, # of connection points: 2
#     Edge 38, Type (0, 0), BuildingBlock: OJICUG_clean_linker_0, # of connection points: 2
#     Edge 39, Type (0, 0), BuildingBlock: OJICUG_clean_linker_0, # of connection points: 2
#     Edge 40, Type (0, 0), BuildingBlock: OJICUG_clean_linker_0, # of connection points: 2
#     Edge 41, Type (0, 0), BuildingBlock: OJICUG_clean_linker_0, # of connection points: 2
#     Edge 42, Type (0, 0), BuildingBlock: OJICUG_clean_linker_0, # of connection points: 2
#     Edge 43, Type (0, 0), BuildingBlock: OJICUG_clean_linker_0, # of connection points: 2
#     Edge 44, Type (0, 0), BuildingBlock: OJICUG_clean_linker_0, # of connection points: 2
#     Edge 45, Type (0, 0), BuildingBlock: OJICUG_clean_linker_0, # of connection points: 2
#     Edge 46, Type (0, 0), BuildingBlock: OJICUG_clean_linker_0, # of connection points: 2
#     Edge 47, Type (0, 0), BuildingBlock: OJICUG_clean_linker_0, # of connection points: 2
#     Edge 48, Type (0, 0), BuildingBlock: OJICUG_clean_linker_0, # of connection points: 2
#     Edge 49, Type (0, 0), BuildingBlock: OJICUG_clean_linker_0, # of connection points: 2
#     Edge 50, Type (0, 0), BuildingBlock: OJICUG_clean_linker_0, # of connection points: 2
#     Edge 51, Type (0, 0), BuildingBlock: OJICUG_clean_linker_0, # of connection points: 2
#     Edge 52, Type (0, 0), BuildingBlock: OJICUG_clean_linker_0, # of connection points: 2
#     Edge 53, Type (0, 0), BuildingBlock: OJICUG_clean_linker_0, # of connection points: 2
#     Edge 54, Type (0, 0), BuildingBlock: OJICUG_clean_linker_0, # of connection points: 2
#     Edge 55, Type (0, 0), BuildingBlock: OJICUG_clean_linker_0, # of connection points: 2
#     Edge 56, Type (0, 0), BuildingBlock: OJICUG_clean_linker_0, # of connection points: 2
#     Edge 57, Type (0, 0), BuildingBlock: OJICUG_clean_linker_0, # of connection points: 2
#     Edge 58, Type (0, 0), BuildingBlock: OJICUG_clean_linker_0, # of connection points: 2
#     Edge 59, Type (0, 0), BuildingBlock: OJICUG_clean_linker_0, # of connection points: 2
#     Edge 60, Type (0, 0), BuildingBlock: OJICUG_clean_linker_0, # of connection points: 2
#     Edge 61, Type (0, 0), BuildingBlock: OJICUG_clean_linker_0, # of connection points: 2
#     Edge 62, Type (0, 0), BuildingBlock: OJICUG_clean_linker_0, # of connection points: 2
#     Edge 63, Type (0, 0), BuildingBlock: OJICUG_clean_linker_0, # of connection points: 2
#     Edge 64, Type (0, 0), BuildingBlock: OJICUG_clean_linker_0, # of connection points: 2
#     Edge 65, Type (0, 0), BuildingBlock: OJICUG_clean_linker_0, # of connection points: 2
#     Edge 66, Type (0, 0), BuildingBlock: OJICUG_clean_linker_0, # of connection points: 2
#     Edge 67, Type (0, 0), BuildingBlock: OJICUG_clean_linker_0, # of connection points: 2
#     Edge 68, Type (0, 0), BuildingBlock: OJICUG_clean_linker_0, # of connection points: 2
#     Edge 69, Type (0, 0), BuildingBlock: OJICUG_clean_linker_0, # of connection points: 2
#     Edge 70, Type (0, 0), BuildingBlock: OJICUG_clean_linker_0, # of connection points: 2
#     Edge 71, Type (0, 0), BuildingBlock: OJICUG_clean_linker_0, # of connection points: 2
#     Edge 72, Type (0, 0), BuildingBlock: OJICUG_clean_linker_0, # of connection points: 2
#     Edge 73, Type (0, 0), BuildingBlock: OJICUG_clean_linker_0, # of connection points: 2
#     Edge 74, Type (0, 0), BuildingBlock: OJICUG_clean_linker_0, # of connection points: 2
#     Edge 75, Type (0, 0), BuildingBlock: OJICUG_clean_linker_0, # of connection points: 2
#     Edge 76, Type (0, 0), BuildingBlock: OJICUG_clean_linker_0, # of connection points: 2
#     Edge 77, Type (0, 0), BuildingBlock: OJICUG_clean_linker_0, # of connection points: 2
#     Edge 78, Type (0, 0), BuildingBlock: OJICUG_clean_linker_0, # of connection points: 2
#     Edge 79, Type (0, 0), BuildingBlock: OJICUG_clean_linker_0, # of connection points: 2
#     Edge 80, Type (0, 0), BuildingBlock: OJICUG_clean_linker_0, # of connection points: 2
#     Edge 81, Type (0, 0), BuildingBlock: OJICUG_clean_linker_0, # of connection points: 2
#     Edge 82, Type (0, 0), BuildingBlock: OJICUG_clean_linker_0, # of connection points: 2
#     Edge 83, Type (0, 0), BuildingBlock: OJICUG_clean_linker_0, # of connection points: 2
#     Edge 84, Type (0, 0), BuildingBlock: OJICUG_clean_linker_0, # of connection points: 2
#     Edge 85, Type (0, 0), BuildingBlock: OJICUG_clean_linker_0, # of connection points: 2
#     Edge 86, Type (0, 0), BuildingBlock: OJICUG_clean_linker_0, # of connection points: 2
#     Edge 87, Type (0, 0), BuildingBlock: OJICUG_clean_linker_0, # of connection points: 2
#     Edge 88, Type (0, 0), BuildingBlock: OJICUG_clean_linker_0, # of connection points: 2
#     Edge 89, Type (0, 0), BuildingBlock: OJICUG_clean_linker_0, # of connection points: 2
#     Edge 90, Type (0, 0), BuildingBlock: OJICUG_clean_linker_0, # of connection points: 2
#     Edge 91, Type (0, 0), BuildingBlock: OJICUG_clean_linker_0, # of connection points: 2
#     Edge 92, Type (0, 0), BuildingBlock: OJICUG_clean_linker_0, # of connection points: 2
#     Edge 93, Type (0, 0), BuildingBlock: OJICUG_clean_linker_0, # of connection points: 2
#     Edge 94, Type (0, 0), BuildingBlock: OJICUG_clean_linker_0, # of connection points: 2
#     Edge 95, Type (0, 0), BuildingBlock: OJICUG_clean_linker_0, # of connection points: 2
# Relax obj value: 0.311
# Max RMSD: 0.189
# Mean RMSD: 0.189
data_MOF--net-uoi--node1-NAHDIM_clean_sbu_0--edge1-OJICUG_clean_linker_0
_symmetry_space_group_name_H-M    P1
_symmetry_Int_Tables_number       1
_symmetry_cell_setting            triclinic
loop_
_symmetry_equiv_pos_as_xyz
'x, y, z'
_cell_length_a     58.993788
_cell_length_b     59.018698
_cell_length_c     13.892698
_cell_angle_alpha  90.072357
_cell_angle_beta   89.989364
_cell_angle_gamma 89.982765
loop_
_atom_site_label
_atom_site_type_symbol
_atom_site_fract_x
_atom_site_fract_y
_atom_site_fract_z
_atom_type_partial_charge
C0 C 0.14553 0.15893 0.32514 0.0
O1 O 0.14306 0.15576 0.41815 0.0
O2 O 0.20137 0.19202 0.43334 0.0
Zn3 Zn 0.17003 0.19954 0.38394 0.0
O4 O 0.17212 0.22895 0.31213 0.0
C5 C 0.15496 0.20178 0.58225 0.0
O6 O 0.16976 0.18555 0.59758 0.0
O7 O 0.15672 0.17595 0.29573 0.0
C8 C 0.15416 0.24023 0.29581 0.0
O9 O 0.13445 0.23171 0.32077 0.0
C10 C 0.21006 0.20724 0.48683 0.0
O11 O 0.19851 0.2259 0.50298 0.0
O12 O 0.15004 0.20703 0.49614 0.0
C13 C 0.09268 0.90447 0.49254 0.0
O14 O 0.0775 0.9182 0.4554 0.0
O15 O 0.07517 0.94753 0.70957 0.0
Zn16 Zn 0.06828 0.91566 0.66438 0.0
O17 O 0.03921 0.91688 0.58959 0.0
C18 C 0.0645 0.9026 0.86511 0.0
O19 O 0.08055 0.91761 0.88042 0.0
O20 O 0.09275 0.90123 0.58309 0.0
C21 C 0.02839 0.89872 0.57198 0.0
O22 O 0.03727 0.87915 0.59662 0.0
C23 C 0.05928 0.95629 0.75927 0.0
O24 O 0.04067 0.94451 0.77341 0.0
O25 O 0.05993 0.89688 0.77913 0.0
C26 C 0.34705 0.84771 0.72861 0.0
O27 O 0.33075 0.83423 0.69906 0.0
O28 O 0.30558 0.82605 0.9161 0.0
Zn29 Zn 0.33929 0.82178 0.89519 0.0
O30 O 0.34526 0.79252 0.82553 0.0
C31 C 0.34348 0.81907 0.10112 0.0
O32 O 0.32475 0.83111 0.10191 0.0
O33 O 0.35343 0.84656 0.81595 0.0
C34 C 0.34097 0.77342 0.86378 0.0
O35 O 0.33101 0.7727 0.9483 0.0
C36 C 0.29108 0.81468 0.86873 0.0
O37 O 0.29808 0.80127 0.79927 0.0
O38 O 0.35421 0.81667 0.02253 0.0
C39 C 0.40311 0.1066 0.04074 0.0
O40 O 0.39245 0.09412 0.10454 0.0
O41 O 0.43581 0.05754 0.14806 0.0
Zn42 Zn 0.44486 0.09038 0.13317 0.0
O43 O 0.47634 0.09123 0.07964 0.0
C44 C 0.44934 0.09178 0.33697 0.0
O45 O 0.43991 0.07169 0.33048 0.0
O46 O 0.42461 0.10763 0.04258 0.0
C47 C 0.48649 0.10988 0.06483 0.0
O48 O 0.47571 0.12906 0.0794 0.0
C49 C 0.4463 0.04213 0.10212 0.0
O50 O 0.46092 0.04801 0.03535 0.0
O51 O 0.44916 0.10463 0.26357 0.0
C52 C 0.14631 0.8468 0.24454 0.0
O53 O 0.16051 0.83216 0.28244 0.0
O54 O 0.18884 0.82369 0.05173 0.0
Zn55 Zn 0.15537 0.81913 0.08189 0.0
O56 O 0.15134 0.79086 0.16248 0.0
C57 C 0.14708 0.818 0.87641 0.0
O58 O 0.1628 0.83373 0.87173 0.0
O59 O 0.14176 0.84536 0.15521 0.0
C60 C 0.14826 0.77128 0.12599 0.0
O61 O 0.14807 0.76875 0.03214 0.0
C62 C 0.19811 0.80884 0.99805 0.0
O63 O 0.18605 0.79141 0.96952 0.0
O64 O 0.13904 0.8127 0.95818 0.0
C65 C 0.40145 0.89443 0.44597 0.0
O66 O 0.39595 0.89404 0.35434 0.0
O67 O 0.4367 0.94478 0.32396 0.0
Zn68 Zn 0.44407 0.91394 0.37842 0.0
O69 O 0.4738 0.91622 0.44808 0.0
C70 C 0.44525 0.89686 0.18306 0.0
O71 O 0.42891 0.91147 0.16637 0.0
O72 O 0.42061 0.9023 0.47079 0.0
C73 C 0.48478 0.89816 0.46605 0.0
O74 O 0.47583 0.87848 0.44342 0.0
C75 C 0.45147 0.95263 0.26617 0.0
O76 O 0.46985 0.94069 0.24913 0.0
O77 O 0.45063 0.89258 0.26965 0.0
C78 C 0.35451 0.16002 0.75959 0.0
O79 O 0.33435 0.1679 0.78192 0.0
O80 O 0.31526 0.18819 0.5985 0.0
Zn81 Zn 0.3492 0.19272 0.61125 0.0
O82 O 0.3557 0.22151 0.68373 0.0
C83 C 0.34886 0.19934 0.40746 0.0
O84 O 0.32894 0.18955 0.41429 0.0
O85 O 0.36429 0.16735 0.68416 0.0
C86 C 0.35338 0.24076 0.64366 0.0
O87 O 0.34558 0.24184 0.55523 0.0
C88 C 0.3009 0.20106 0.63936 0.0
O89 O 0.30804 0.21645 0.70059 0.0
O90 O 0.36215 0.19873 0.47948 0.0
C91 C 0.09387 0.10538 0.0542 0.0
O92 O 0.07996 0.08974 0.08643 0.0
O93 O 0.07367 0.06241 0.86812 0.0
Zn94 Zn 0.06809 0.09589 0.88886 0.0
O95 O 0.0388 0.10088 0.95993 0.0
C96 C 0.06501 0.09925 0.68271 0.0
O97 O 0.07834 0.08142 0.68297 0.0
O98 O 0.09287 0.1109 0.96577 0.0
C99 C 0.01981 0.09618 0.92141 0.0
O100 O 0.01936 0.08643 0.83638 0.0
C101 C 0.06251 0.04725 0.91244 0.0
O102 O 0.04825 0.05334 0.98031 0.0
O103 O 0.06194 0.1101 0.76067 0.0
C104 C 0.85459 0.84966 0.72003 0.0
O105 O 0.836 0.85732 0.67944 0.0
O106 O 0.81323 0.81144 0.59528 0.0
Zn107 Zn 0.84693 0.80676 0.61315 0.0
O108 O 0.85233 0.77678 0.6769 0.0
C109 C 0.84978 0.80608 0.40694 0.0
O110 O 0.83167 0.81899 0.41121 0.0
O111 O 0.8619 0.83005 0.69822 0.0
C112 C 0.84735 0.758 0.63718 0.0
O113 O 0.83711 0.75793 0.55323 0.0
C114 C 0.79879 0.80055 0.64484 0.0
O115 O 0.80587 0.78782 0.71626 0.0
O116 O 0.86109 0.80258 0.48331 0.0
C117 C 0.91915 0.09419 0.54681 0.0
O118 O 0.93439 0.07929 0.57424 0.0
O119 O 0.93837 0.05513 0.33159 0.0
Zn120 Zn 0.94346 0.08789 0.37301 0.0
O121 O 0.97251 0.09081 0.44896 0.0
C122 C 0.9432 0.10074 0.1713 0.0
O123 O 0.92746 0.08517 0.16133 0.0
O124 O 0.91858 0.10011 0.45872 0.0
C125 C 0.99203 0.09385 0.41206 0.0
O126 O 0.99451 0.09398 0.31821 0.0
C127 C 0.95222 0.04683 0.27063 0.0
O128 O 0.96928 0.0593 0.24135 0.0
O129 O 0.9488 0.10694 0.2556 0.0
C130 C 0.65888 0.15141 0.28687 0.0
O131 O 0.67331 0.16746 0.31014 0.0
O132 O 0.69732 0.17284 0.08627 0.0
Zn133 Zn 0.66361 0.1746 0.11229 0.0
O134 O 0.65581 0.20391 0.17814 0.0
C135 C 0.6574 0.1746 0.90697 0.0
O136 O 0.67679 0.16366 0.90525 0.0
O137 O 0.65247 0.14978 0.19965 0.0
C138 C 0.6585 0.22323 0.13931 0.0
O139 O 0.66814 0.22466 0.0543 0.0
C140 C 0.7114 0.18564 0.12918 0.0
O141 O 0.70412 0.19921 0.19751 0.0
O142 O 0.64717 0.17706 0.98678 0.0
C143 C 0.59642 0.89663 0.06662 0.0
O144 O 0.58303 0.91288 0.09754 0.0
O145 O 0.5749 0.93942 0.89202 0.0
Zn146 Zn 0.57008 0.90555 0.90338 0.0
O147 O 0.54098 0.89891 0.97338 0.0
C148 C 0.5646 0.90609 0.69893 0.0
O149 O 0.57438 0.92598 0.70717 0.0
O150 O 0.59501 0.89049 0.97895 0.0
C151 C 0.52176 0.90038 0.93228 0.0
O152 O 0.5206 0.90753 0.84292 0.0
C153 C 0.56114 0.95392 0.9263 0.0
O154 O 0.54428 0.94698 0.98047 0.0
O155 O 0.56479 0.89275 0.77073 0.0
C156 C 0.87062 0.14619 0.83353 0.0
O157 O 0.87589 0.14429 0.92505 0.0
O158 O 0.81206 0.18132 0.92897 0.0
Zn159 Zn 0.84492 0.18697 0.89123 0.0
O160 O 0.84707 0.21587 0.81422 0.0
C161 C 0.85581 0.18689 0.09352 0.0
O162 O 0.84097 0.17034 0.09877 0.0
O163 O 0.85767 0.16219 0.80685 0.0
C164 C 0.84957 0.23547 0.85119 0.0
O165 O 0.85021 0.23789 0.94504 0.0
C166 C 0.80295 0.19544 0.98658 0.0
O167 O 0.81479 0.21301 0.01533 0.0
O168 O 0.86298 0.19289 0.01116 0.0
C169 C 0.6093 0.10591 0.58799 0.0
O170 O 0.61238 0.11169 0.67842 0.0
O171 O 0.57461 0.05211 0.71519 0.0
Zn172 Zn 0.56889 0.08334 0.66077 0.0
O173 O 0.5389 0.0823 0.59293 0.0
C174 C 0.56853 0.10018 0.85513 0.0
O175 O 0.58278 0.08351 0.87147 0.0
O176 O 0.59248 0.09355 0.56587 0.0
C177 C 0.52854 0.10056 0.57228 0.0
O178 O 0.5382 0.12011 0.59122 0.0
C179 C 0.55887 0.04438 0.76857 0.0
O180 O 0.5407 0.05684 0.78271 0.0
O181 O 0.56395 0.10541 0.76872 0.0
C182 C 0.64478 0.84185 0.34315 0.0
O183 O 0.6427 0.84579 0.43584 0.0
O184 O 0.69849 0.80366 0.44217 0.0
Zn185 Zn 0.66579 0.79869 0.40054 0.0
O186 O 0.66264 0.76984 0.32386 0.0
C187 C 0.65175 0.79983 0.60118 0.0
O188 O 0.66736 0.81552 0.61184 0.0
O189 O 0.65426 0.82369 0.31514 0.0
C190 C 0.66028 0.75029 0.3613 0.0
O191 O 0.66129 0.74786 0.45508 0.0
C192 C 0.70688 0.79076 0.5064 0.0
O193 O 0.69443 0.77427 0.54118 0.0
O194 O 0.64635 0.79361 0.51673 0.0
C195 C 0.90319 0.90122 0.00811 0.0
O196 O 0.90593 0.92311 0.99591 0.0
O197 O 0.93338 0.94092 0.16503 0.0
Zn198 Zn 0.93906 0.90725 0.14778 0.0
O199 O 0.96804 0.90234 0.07449 0.0
C200 C 0.94663 0.90642 0.35077 0.0
O201 O 0.93629 0.92611 0.34717 0.0
O202 O 0.91451 0.89114 0.07324 0.0
C203 C 0.98725 0.90569 0.11366 0.0
O204 O 0.98819 0.91371 0.2018 0.0
C205 C 0.94488 0.95574 0.12022 0.0
O206 O 0.95896 0.94917 0.05244 0.0
O207 O 0.94598 0.89358 0.27728 0.0
C208 C 0.64735 0.65157 0.71563 0.0
O209 O 0.66233 0.66662 0.68723 0.0
O210 O 0.68873 0.67309 0.90407 0.0
Zn211 Zn 0.65488 0.67635 0.88514 0.0
O212 O 0.64833 0.70572 0.8179 0.0
C213 C 0.65212 0.67745 0.09111 0.0
O214 O 0.67012 0.66438 0.08705 0.0
O215 O 0.64147 0.65135 0.8038 0.0
C216 C 0.65298 0.72466 0.85694 0.0
O217 O 0.66318 0.72501 0.94097 0.0
C218 C 0.70297 0.68484 0.85709 0.0
O219 O 0.69575 0.69802 0.78742 0.0
O220 O 0.64068 0.68073 0.01488 0.0
C221 C 0.59135 0.39252 0.95632 0.0
O222 O 0.58141 0.4114 0.92927 0.0
O223 O 0.56656 0.43346 0.12653 0.0
Zn224 Zn 0.56149 0.39962 0.11349 0.0
O225 O 0.53219 0.39363 0.0437 0.0
C226 C 0.55672 0.40026 0.3183 0.0
O227 O 0.5678 0.41946 0.3103 0.0
O228 O 0.58637 0.38417 0.03809 0.0
C229 C 0.51309 0.39594 0.08526 0.0
O230 O 0.51237 0.40327 0.17453 0.0
C231 C 0.55325 0.44806 0.09013 0.0
O232 O 0.5371 0.44127 0.03181 0.0
O233 O 0.55593 0.38699 0.24615 0.0
C234 C 0.84344 0.33712 0.20906 0.0
O235 O 0.82827 0.32227 0.18046 0.0
O236 O 0.80483 0.31264 0.40301 0.0
Zn237 Zn 0.83852 0.31064 0.37628 0.0
O238 O 0.84583 0.28188 0.30521 0.0
C239 C 0.84473 0.30837 0.58141 0.0
O240 O 0.82556 0.31966 0.58518 0.0
O241 O 0.85024 0.33648 0.29592 0.0
C242 C 0.84272 0.26257 0.34362 0.0
O243 O 0.83302 0.26129 0.42856 0.0
C244 C 0.79055 0.30061 0.3574 0.0
O245 O 0.7976 0.2879 0.28571 0.0
O246 O 0.85482 0.30634 0.50112 0.0
C247 C 0.89339 0.6176 0.56677 0.0
O248 O 0.89115 0.62344 0.65757 0.0
O249 O 0.92985 0.56115 0.66782 0.0
Zn250 Zn 0.93496 0.5938 0.62717 0.0
O251 O 0.96386 0.5964 0.55026 0.0
C252 C 0.9335 0.60639 0.82779 0.0
O253 O 0.91699 0.59152 0.83375 0.0
O254 O 0.90993 0.60514 0.54175 0.0
C255 C 0.98351 0.59879 0.58684 0.0
O256 O 0.98607 0.59879 0.68066 0.0
C257 C 0.94321 0.5528 0.73035 0.0
O258 O 0.96007 0.56518 0.76241 0.0
O259 O 0.93999 0.6128 0.74499 0.0
C260 C 0.64135 0.3404 0.67418 0.0
O261 O 0.64774 0.34926 0.59181 0.0
O262 O 0.69032 0.30244 0.56295 0.0
Zn263 Zn 0.65758 0.29585 0.59994 0.0
O264 O 0.65581 0.26635 0.6726 0.0
C265 C 0.64637 0.29732 0.39751 0.0
O266 O 0.66119 0.31391 0.39351 0.0
O267 O 0.64407 0.31933 0.68861 0.0
C268 C 0.65349 0.24684 0.6346 0.0
O269 O 0.65309 0.24463 0.54061 0.0
C270 C 0.69947 0.28888 0.50306 0.0
O271 O 0.68778 0.27138 0.47248 0.0
O272 O 0.63954 0.29065 0.47945 0.0
C273 C 0.8917 0.38959 0.92436 0.0
O274 O 0.88629 0.38825 0.83278 0.0
O275 O 0.92509 0.4465 0.82578 0.0
Zn276 Zn 0.9318 0.41375 0.85554 0.0
O277 O 0.9629 0.41233 0.91358 0.0
C278 C 0.93295 0.40571 0.65154 0.0
O279 O 0.92076 0.42429 0.64604 0.0
O280 O 0.90976 0.39981 0.9486 0.0
C281 C 0.97279 0.39346 0.92681 0.0
O282 O 0.96196 0.37454 0.90751 0.0
C283 C 0.93424 0.46179 0.87716 0.0
O284 O 0.94579 0.45578 0.95383 0.0
O285 O 0.93575 0.3964 0.73302 0.0
C286 C 0.84136 0.66239 0.27115 0.0
O287 O 0.82632 0.67783 0.29506 0.0
O288 O 0.80341 0.68092 0.0574 0.0
Zn289 Zn 0.8363 0.68559 0.09555 0.0
O290 O 0.84013 0.71488 0.16857 0.0
C291 C 0.84901 0.68313 0.89355 0.0
O292 O 0.83285 0.66792 0.88589 0.0
O293 O 0.84786 0.66117 0.18391 0.0
C294 C 0.84289 0.73436 0.13125 0.0
O295 O 0.84209 0.73687 0.03746 0.0
C296 C 0.79498 0.69417 0.99463 0.0
O297 O 0.80755 0.7106 0.96007 0.0
O298 O 0.8552 0.68948 0.9769 0.0
C299 C 0.59674 0.6015 0.42973 0.0
O300 O 0.5995 0.60606 0.33792 0.0
O301 O 0.56344 0.54565 0.31141 0.0
Zn302 Zn 0.55671 0.57689 0.36414 0.0
O303 O 0.52707 0.57557 0.43482 0.0
C304 C 0.55485 0.59303 0.16729 0.0
O305 O 0.57049 0.57771 0.14988 0.0
O306 O 0.58031 0.589 0.45546 0.0
C307 C 0.51701 0.59413 0.4533 0.0
O308 O 0.5269 0.61335 0.43077 0.0
C309 C 0.54806 0.53759 0.25698 0.0
O310 O 0.52961 0.54959 0.24243 0.0
O311 O 0.55001 0.59778 0.25407 0.0
C312 C 0.36899 0.35848 0.15668 0.0
O313 O 0.37605 0.35935 0.06705 0.0
O314 O 0.31019 0.32773 0.03927 0.0
Zn315 Zn 0.34144 0.32037 0.09 0.0
O316 O 0.33925 0.29094 0.16159 0.0
C317 C 0.35687 0.31775 0.89267 0.0
O318 O 0.34204 0.33391 0.87634 0.0
O319 O 0.35414 0.34391 0.18013 0.0
C320 C 0.35726 0.27989 0.17959 0.0
O321 O 0.37698 0.28865 0.15632 0.0
C322 C 0.30153 0.31241 0.98618 0.0
O323 O 0.31309 0.29372 0.97075 0.0
O324 O 0.36184 0.31288 0.97911 0.0
C325 C 0.39254 0.59964 0.01976 0.0
O326 O 0.39343 0.57755 0.03064 0.0
O327 O 0.42363 0.55817 0.87432 0.0
Zn328 Zn 0.42966 0.5919 0.88615 0.0
O329 O 0.45883 0.59712 0.95794 0.0
C330 C 0.43615 0.5906 0.68214 0.0
O331 O 0.42521 0.57132 0.68976 0.0
O332 O 0.40537 0.60906 0.95805 0.0
C333 C 0.47795 0.5939 0.91776 0.0
O334 O 0.47868 0.58604 0.82931 0.0
C335 C 0.43609 0.54344 0.915 0.0
O336 O 0.45142 0.55014 0.97737 0.0
O337 O 0.43638 0.60406 0.75371 0.0
C338 C 0.12971 0.65163 0.65025 0.0
O339 O 0.12553 0.64904 0.558 0.0
O340 O 0.18832 0.68851 0.57021 0.0
Zn341 Zn 0.1549 0.693 0.59574 0.0
O342 O 0.15008 0.7222 0.66677 0.0
C343 C 0.14914 0.69707 0.39137 0.0
O344 O 0.16775 0.68491 0.38699 0.0
O345 O 0.14169 0.66826 0.67809 0.0
C346 C 0.15554 0.74109 0.6294 0.0
O347 O 0.16606 0.74141 0.54607 0.0
C348 C 0.2031 0.6974 0.62495 0.0
O349 O 0.1964 0.70821 0.70264 0.0
O350 O 0.13884 0.69888 0.4713 0.0
C351 C 0.09925 0.39722 0.41221 0.0
O352 O 0.10628 0.39949 0.323 0.0
O353 O 0.05774 0.44424 0.29978 0.0
Zn354 Zn 0.05395 0.41153 0.34286 0.0
O355 O 0.02489 0.40824 0.41743 0.0
C356 C 0.05453 0.39874 0.14345 0.0
O357 O 0.06853 0.41591 0.13425 0.0
O358 O 0.07871 0.40148 0.43263 0.0
C359 C 0.00572 0.40352 0.38049 0.0
O360 O 0.00366 0.40132 0.28685 0.0
C361 C 0.04276 0.45247 0.24385 0.0
O362 O 0.02537 0.43984 0.21951 0.0
O363 O 0.05014 0.39142 0.22728 0.0
C364 C 0.34456 0.65405 0.30045 0.0
O365 O 0.32526 0.64744 0.33837 0.0
O366 O 0.30541 0.69124 0.44022 0.0
Zn367 Zn 0.33852 0.69722 0.40738 0.0
O368 O 0.34104 0.72629 0.33217 0.0
C369 C 0.34885 0.69739 0.61182 0.0
O370 O 0.33347 0.68136 0.61834 0.0
O371 O 0.35277 0.67321 0.32349 0.0
C372 C 0.34334 0.74582 0.37002 0.0
O373 O 0.34317 0.74811 0.46397 0.0
C374 C 0.2961 0.70502 0.49873 0.0
O375 O 0.30794 0.72221 0.5313 0.0
O376 O 0.35591 0.70315 0.529 0.0
C377 C 0.08138 0.59902 0.93456 0.0
O378 O 0.06593 0.58442 0.90641 0.0
O379 O 0.06089 0.55809 0.13182 0.0
Zn380 Zn 0.05746 0.5917 0.10699 0.0
O381 O 0.02811 0.59824 0.03947 0.0
C382 C 0.05587 0.59719 0.31289 0.0
O383 O 0.06769 0.57832 0.31446 0.0
O384 O 0.08224 0.6045 0.02317 0.0
C385 C 0.00893 0.59505 0.079 0.0
O386 O 0.00791 0.5855 0.16424 0.0
C387 C 0.04851 0.54336 0.09072 0.0
O388 O 0.03425 0.54985 0.02356 0.0
O389 O 0.0533 0.60751 0.23345 0.0
C390 C 0.15455 0.35384 0.70119 0.0
O391 O 0.17236 0.34217 0.67331 0.0
O392 O 0.19627 0.33119 0.87462 0.0
Zn393 Zn 0.16236 0.32647 0.8631 0.0
O394 O 0.15588 0.29732 0.79346 0.0
C395 C 0.16275 0.32058 0.06705 0.0
O396 O 0.18276 0.33014 0.05928 0.0
O397 O 0.14716 0.3511 0.78645 0.0
C398 C 0.1581 0.27814 0.83405 0.0
O399 O 0.1659 0.27711 0.9225 0.0
C400 C 0.21059 0.31812 0.83462 0.0
O401 O 0.20336 0.3024 0.77509 0.0
O402 O 0.14938 0.32114 0.9953 0.0
C403 C 0.41609 0.40858 0.45328 0.0
O404 O 0.43208 0.42305 0.42988 0.0
O405 O 0.4292 0.44605 0.68975 0.0
Zn406 Zn 0.43658 0.41491 0.63714 0.0
O407 O 0.46704 0.41615 0.57227 0.0
C408 C 0.43681 0.39798 0.83392 0.0
O409 O 0.42141 0.41353 0.85154 0.0
O410 O 0.4138 0.40296 0.54119 0.0
C411 C 0.47662 0.39745 0.55169 0.0
O412 O 0.46596 0.37839 0.57001 0.0
C413 C 0.44377 0.4541 0.74807 0.0
O414 O 0.46208 0.44219 0.76671 0.0
O415 O 0.44199 0.39362 0.74712 0.0
C416 C 0.26199 0.21786 0.64001 0.0
C417 C 0.27694 0.20097 0.60755 0.0
H418 H 0.22926 0.23308 0.62717 0.0
C419 C 0.26924 0.18522 0.53878 0.0
H420 H 0.26733 0.23025 0.69292 0.0
C421 C 0.24729 0.18682 0.50104 0.0
C422 C 0.23271 0.2043 0.53079 0.0
H423 H 0.28034 0.17198 0.51231 0.0
H424 H 0.24199 0.17475 0.44673 0.0
C425 C 0.24017 0.21955 0.60183 0.0
C426 C 0.07806 0.99442 0.77082 0.0
C427 C 0.06146 0.97909 0.80252 0.0
H428 H 0.09145 0.02811 0.78067 0.0
C429 C 0.04631 0.9859 0.87511 0.0
H430 H 0.09 0.98962 0.71516 0.0
C431 C 0.04729 0.00775 0.91336 0.0
C432 C 0.06329 0.02341 0.87923 0.0
H433 H 0.03347 0.9744 0.90191 0.0
H434 H 0.03503 0.01252 0.96778 0.0
C435 C 0.07889 0.01644 0.80841 0.0
C436 C 0.23657 0.82724 0.00442 0.0
C437 C 0.22169 0.81136 0.96337 0.0
H438 H 0.27029 0.8408 0.00679 0.0
C439 C 0.22953 0.7975 0.88801 0.0
H440 H 0.23098 0.8382 0.06237 0.0
C441 C 0.25184 0.79913 0.8556 0.0
C442 C 0.26696 0.81454 0.89819 0.0
H443 H 0.21845 0.78524 0.854 0.0
H444 H 0.25733 0.78793 0.79832 0.0
C445 C 0.25905 0.82874 0.97245 0.0
C446 C 0.46078 0.00235 0.09969 0.0
C447 C 0.44533 0.01837 0.13581 0.0
H448 H 0.47486 0.96914 0.11288 0.0
C449 C 0.43064 0.01198 0.21087 0.0
H450 H 0.47232 0.00666 0.04188 0.0
C451 C 0.43207 0.99034 0.25154 0.0
C452 C 0.44835 0.97479 0.21852 0.0
H453 H 0.41852 0.02392 0.24024 0.0
H454 H 0.42096 0.98609 0.31093 0.0
C455 C 0.46234 0.98086 0.14088 0.0
C456 C 0.73757 0.78208 0.62463 0.0
C457 C 0.73006 0.7944 0.54417 0.0
H458 H 0.76493 0.77461 0.72028 0.0
C459 C 0.74494 0.80989 0.50055 0.0
H460 H 0.72649 0.77016 0.6606 0.0
C461 C 0.76711 0.81244 0.53495 0.0
C462 C 0.77476 0.79968 0.61405 0.0
H463 H 0.73963 0.8197 0.4387 0.0
H464 H 0.77836 0.8241 0.49837 0.0
C465 C 0.75962 0.78473 0.65931 0.0
C466 C 0.9622 0.01702 0.1503 0.0
C467 C 0.94905 0.02389 0.22955 0.0
H468 H 0.97092 0.99039 0.05283 0.0
C469 C 0.93328 0.00861 0.26862 0.0
H470 H 0.97433 0.02844 0.11763 0.0
C471 C 0.93132 0.98664 0.23119 0.0
C472 C 0.94498 0.9796 0.15355 0.0
H473 H 0.92283 0.01345 0.32938 0.0
H474 H 0.91947 0.97503 0.26447 0.0
C475 C 0.96015 0.99519 0.11263 0.0
C476 C 0.77186 0.20576 0.10025 0.0
C477 C 0.77978 0.19202 0.02461 0.0
H478 H 0.7443 0.21432 0.19314 0.0
C479 C 0.76535 0.17535 0.98639 0.0
H480 H 0.7826 0.21863 0.13206 0.0
C481 C 0.74324 0.17289 0.02159 0.0
C482 C 0.73522 0.18695 0.09613 0.0
H483 H 0.771 0.16447 0.92831 0.0
H484 H 0.73235 0.16019 0.9895 0.0
C485 C 0.74989 0.20321 0.13573 0.0
C486 C 0.54505 0.99312 0.92102 0.0
C487 C 0.5621 0.97778 0.8937 0.0
H488 H 0.53069 0.02609 0.90296 0.0
C489 C 0.57894 0.985 0.82887 0.0
H490 H 0.53183 0.98816 0.97086 0.0
C491 C 0.57827 0.00683 0.78973 0.0
C492 C 0.56069 0.02182 0.81428 0.0
H493 H 0.59233 0.97361 0.80634 0.0
H494 H 0.59119 0.01173 0.73842 0.0
C495 C 0.54433 0.01487 0.88163 0.0
C496 C 0.73474 0.67263 0.9657 0.0
C497 C 0.72695 0.68586 0.88826 0.0
H498 H 0.76238 0.66484 0.0603 0.0
C499 C 0.74193 0.70122 0.84464 0.0
H500 H 0.7236 0.66065 0.001 0.0
C501 C 0.76401 0.70374 0.87907 0.0
C502 C 0.77169 0.69087 0.95767 0.0
H503 H 0.7365 0.7117 0.78498 0.0
H504 H 0.775 0.71594 0.84425 0.0
C505 C 0.75693 0.67506 -0.00011 0.0
C506 C 0.5683 0.50046 0.23514 0.0
C507 C 0.55068 0.51529 0.20948 0.0
H508 H 0.58307 0.46756 0.2171 0.0
C509 C 0.53507 0.50844 0.13875 0.0
H510 H 0.58066 0.50529 0.28905 0.0
C511 C 0.53655 0.48697 0.09695 0.0
C512 C 0.5536 0.47176 0.12528 0.0
H513 H 0.52143 0.51955 0.11646 0.0
H514 H 0.52388 0.48209 0.04446 0.0
C515 C 0.56971 0.47887 0.19367 0.0
C516 C 0.75898 0.31213 0.46897 0.0
C517 C 0.7668 0.29895 0.3912 0.0
H518 H 0.73148 0.31937 0.56551 0.0
C519 C 0.75204 0.28312 0.34914 0.0
H520 H 0.76994 0.32448 0.50302 0.0
C521 C 0.7302 0.28008 0.38538 0.0
C522 C 0.72249 0.29289 0.46427 0.0
H523 H 0.75747 0.27269 0.28922 0.0
H524 H 0.7194 0.26754 0.35162 0.0
C525 C 0.73698 0.30919 0.50492 0.0
C526 C 0.94863 0.50143 0.89066 0.0
C527 C 0.9347 0.48558 0.84384 0.0
H528 H 0.96229 0.53493 0.89119 0.0
C529 C 0.92266 0.49233 0.76126 0.0
H530 H 0.95815 0.49682 0.95438 0.0
C531 C 0.925 0.51434 0.72499 0.0
C532 C 0.93959 0.52987 0.77009 0.0
H533 H 0.91178 0.4805 0.72355 0.0
H534 H 0.91581 0.51899 0.66047 0.0
C535 C 0.95113 0.52327 0.85398 0.0
C536 C 0.24951 0.30135 0.83414 0.0
C537 C 0.23458 0.31834 0.86593 0.0
H538 H 0.28225 0.28618 0.84732 0.0
C539 C 0.24233 0.33429 0.93371 0.0
H540 H 0.24413 0.2888 0.78197 0.0
C541 C 0.26431 0.3328 0.97122 0.0
C542 C 0.27887 0.31524 0.94221 0.0
H543 H 0.23125 0.3476 0.95967 0.0
H544 H 0.26964 0.34503 0.02485 0.0
C545 C 0.27136 0.29978 0.87207 0.0
C546 C 0.45483 0.48305 0.87071 0.0
C547 C 0.44036 0.47631 0.79553 0.0
H548 H 0.46453 0.50926 0.96855 0.0
C549 C 0.42316 0.49117 0.76546 0.0
H550 H 0.4681 0.47191 0.89644 0.0
C551 C 0.4211 0.5127 0.807 0.0
C552 C 0.43612 0.51973 0.87986 0.0
H553 H 0.41167 0.48641 0.70806 0.0
H554 H 0.40815 0.52406 0.7801 0.0
C555 C 0.45269 0.50446 0.91257 0.0
C556 C 0.26499 0.71371 0.61444 0.0
C557 C 0.2726 0.70175 0.53305 0.0
H558 H 0.2373 0.72144 0.70793 0.0
C559 C 0.25748 0.68726 0.48493 0.0
H560 H 0.27628 0.72484 0.65381 0.0
C561 C 0.23495 0.6854 0.51585 0.0
C562 C 0.22725 0.69778 0.59615 0.0
H563 H 0.2629 0.67779 0.42215 0.0
H564 H 0.2235 0.67453 0.47605 0.0
C565 C 0.24263 0.71166 0.64589 0.0
C566 C 0.06164 0.49061 0.23671 0.0
C567 C 0.04511 0.47546 0.20266 0.0
H568 H 0.07575 0.524 0.22794 0.0
C569 C 0.03056 0.48246 0.12827 0.0
H570 H 0.07315 0.48568 0.29369 0.0
C571 C 0.03216 0.50427 0.09007 0.0
C572 C 0.04827 0.51966 0.12571 0.0
H573 H 0.01778 0.47114 0.09962 0.0
H574 H 0.02043 0.50917 0.03386 0.0
C575 C 0.06315 0.51254 0.19885 0.0
C576 C 0.10811 0.11282 0.2211 0.0
C577 C 0.10872 0.1178 0.12213 0.0
H578 H 0.11927 0.12179 0.36269 0.0
C579 C 0.12265 0.13555 0.08998 0.0
H580 H 0.0976 0.09922 0.24838 0.0
C581 C 0.1351 0.1485 0.15569 0.0
C582 C 0.13388 0.144 0.25501 0.0
H583 H 0.12355 0.13981 0.01425 0.0
H584 H 0.14528 0.16238 0.12866 0.0
C585 C 0.12054 0.12578 0.28679 0.0
C586 C 0.13714 0.86258 0.4075 0.0
C587 C 0.13414 0.86314 0.30707 0.0
H588 H 0.12648 0.87519 0.54481 0.0
C589 C 0.11848 0.87853 0.26796 0.0
H590 H 0.14909 0.85096 0.44009 0.0
C591 C 0.10556 0.8925 0.32814 0.0
C592 C 0.10794 0.89131 0.42877 0.0
H593 H 0.1158 0.87945 0.19093 0.0
H594 H 0.09326 0.90377 0.2957 0.0
C595 C 0.12415 0.87647 0.46767 0.0
C596 C 0.39236 0.88483 0.61738 0.0
C597 C 0.38633 0.88433 0.51941 0.0
H598 H 0.3846 0.87389 0.76047 0.0
C599 C 0.3663 0.87317 0.49217 0.0
H600 H 0.40762 0.89339 0.64096 0.0
C601 C 0.35309 0.86199 0.56084 0.0
C602 C 0.3596 0.86176 0.65825 0.0
H603 H 0.36111 0.87254 0.41743 0.0
H604 H 0.33809 0.85301 0.53698 0.0
C605 C 0.37913 0.8737 0.68605 0.0
C606 C 0.35506 0.13499 0.90523 0.0
C607 C 0.3666 0.14489 0.82728 0.0
H608 H 0.35749 0.11501 0.03354 0.0
C609 C 0.39006 0.14139 0.81837 0.0
H610 H 0.33697 0.13734 0.91405 0.0
C611 C 0.40184 0.12886 0.88746 0.0
C612 C 0.39039 0.11931 0.96642 0.0
H613 H 0.39947 0.14883 0.75939 0.0
H614 H 0.41998 0.12678 0.8792 0.0
C615 C 0.36682 0.12221 0.97378 0.0
C616 C 0.89268 0.86447 0.93023 0.0
C617 C 0.88949 0.88798 0.93863 0.0
H618 H 0.88446 0.8341 0.8539 0.0
C619 C 0.87428 0.89881 0.87571 0.0
H620 H 0.90436 0.85561 0.97712 0.0
C621 C 0.86266 0.88638 0.80528 0.0
C622 C 0.86637 0.86298 0.79531 0.0
H623 H 0.87148 0.91691 0.8804 0.0
H624 H 0.85112 0.89517 0.75756 0.0
C625 C 0.8814 0.85216 0.85895 0.0
C626 C 0.89651 0.11416 0.78792 0.0
C627 C 0.88131 0.1313 0.76037 0.0
H628 H 0.92017 0.08887 0.74225 0.0
C629 C 0.87739 0.13494 0.66164 0.0
H630 H 0.89987 0.11084 0.86325 0.0
C631 C 0.88909 0.12238 0.5921 0.0
C632 C 0.9049 0.10581 0.61967 0.0
H633 H 0.86574 0.14795 0.63777 0.0
H634 H 0.88614 0.12606 0.51677 0.0
C635 C 0.90813 0.10153 0.71837 0.0
C636 C 0.61926 0.11073 0.41377 0.0
C637 C 0.62375 0.11558 0.51113 0.0
H638 H 0.62692 0.1181 0.26644 0.0
C639 C 0.64122 0.13085 0.53378 0.0
H640 H 0.60598 0.09897 0.39377 0.0
C641 C 0.65327 0.14176 0.46067 0.0
C642 C 0.64808 0.13769 0.36331 0.0
H643 H 0.64518 0.13491 0.60796 0.0
H644 H 0.66615 0.15396 0.48075 0.0
C645 C 0.63128 0.12168 0.34065 0.0
C646 C 0.61061 0.88977 0.23403 0.0
C647 C 0.61082 0.88405 0.13567 0.0
H648 H 0.6212 0.88104 0.37665 0.0
C649 C 0.62369 0.86532 0.10548 0.0
H650 H 0.60094 0.90416 0.25976 0.0
C651 C 0.63533 0.85207 0.17262 0.0
C652 C 0.63434 0.85724 0.27148 0.0
H653 H 0.62428 0.86049 0.03028 0.0
H654 H 0.64461 0.8374 0.14711 0.0
C655 C 0.62223 0.87651 0.30119 0.0
C656 C 0.60657 0.60967 0.60211 0.0
C657 C 0.61117 0.61255 0.50345 0.0
H658 H 0.61441 0.61964 0.74667 0.0
C659 C 0.62884 0.62711 0.47598 0.0
H660 H 0.5931 0.59853 0.62584 0.0
C661 C 0.64109 0.63915 0.54531 0.0
C662 C 0.6359 0.63696 0.64373 0.0
H663 H 0.6329 0.62966 0.40072 0.0
H664 H 0.65422 0.65066 0.52131 0.0
C665 C 0.61879 0.62177 0.6715 0.0
C666 C 0.61303 0.35774 0.90818 0.0
C667 C 0.60601 0.37997 0.88786 0.0
H668 H 0.62961 0.32786 0.85683 0.0
C669 C 0.61185 0.38956 0.79853 0.0
H670 H 0.60884 0.34983 0.97619 0.0
C671 C 0.62384 0.37696 0.72992 0.0
C672 C 0.63012 0.35444 0.74892 0.0
H673 H 0.60677 0.40668 0.78068 0.0
H674 H 0.62768 0.3847 0.66118 0.0
C675 C 0.62489 0.34511 0.83943 0.0
C676 C 0.84755 0.35192 0.04103 0.0
C677 C 0.85427 0.3524 0.13818 0.0
H678 H 0.854 0.36332 0.89738 0.0
C679 C 0.87242 0.36643 0.16524 0.0
H680 H 0.83359 0.34134 0.01772 0.0
C681 C 0.88415 0.379 0.09611 0.0
C682 C 0.87797 0.37785 -0.00161 0.0
H683 H 0.878 0.36723 0.23944 0.0
H684 H 0.89842 0.38921 0.11912 0.0
C685 C 0.85926 0.36452 0.9719 0.0
C686 C 0.8693 0.6328 0.32253 0.0
C687 C 0.85274 0.64891 0.34688 0.0
H688 H 0.89495 0.61015 0.37274 0.0
C689 C 0.84839 0.6533 0.44478 0.0
H690 H 0.87301 0.62896 0.2479 0.0
C691 C 0.86105 0.64258 0.5166 0.0
C692 C 0.87828 0.62718 0.49202 0.0
H693 H 0.83571 0.66561 0.46611 0.0
H694 H 0.85777 0.64687 0.59115 0.0
C695 C 0.8819 0.62203 0.39427 0.0
C696 C 0.40786 0.40073 0.27939 0.0
C697 C 0.40259 0.39732 0.3771 0.0
H698 H 0.40141 0.3912 0.13317 0.0
C699 C 0.38522 0.38206 0.40111 0.0
H700 H 0.42117 0.41236 0.2583 0.0
C701 C 0.37384 0.36999 0.32925 0.0
C702 C 0.37965 0.37281 0.23175 0.0
H703 H 0.3807 0.37908 0.4756 0.0
H704 H 0.36086 0.35802 0.35049 0.0
C705 C 0.39655 0.38858 0.20752 0.0
C706 C 0.38391 0.63686 0.09775 0.0
C707 C 0.37908 0.61368 0.08726 0.0
H708 H 0.37711 0.66759 0.17399 0.0
C709 C 0.36237 0.60389 0.14624 0.0
H710 H 0.39677 0.64492 0.05392 0.0
C711 C 0.35088 0.617 0.21489 0.0
C712 C 0.3562 0.64004 0.22699 0.0
H713 H 0.35826 0.58607 0.13984 0.0
H714 H 0.33815 0.609 0.25956 0.0
C715 C 0.37275 0.64983 0.16724 0.0
C716 C 0.12268 0.64033 0.82158 0.0
C717 C 0.11902 0.63661 0.72269 0.0
H718 H 0.11383 0.63133 0.96601 0.0
C719 C 0.10417 0.61924 0.69438 0.0
H720 H 0.1341 0.6535 0.84602 0.0
C721 C 0.09258 0.60647 0.76341 0.0
C722 C 0.09557 0.61082 0.86225 0.0
H723 H 0.10102 0.61586 0.6189 0.0
H724 H 0.08079 0.59362 0.73903 0.0
C725 C 0.11108 0.6276 0.89055 0.0
C726 C 0.14958 0.3697 0.53522 0.0
C727 C 0.14162 0.36737 0.63019 0.0
H728 H 0.14254 0.38105 0.39188 0.0
C729 C 0.12036 0.37649 0.65421 0.0
H730 H 0.16594 0.36294 0.51439 0.0
C731 C 0.10693 0.38677 0.58387 0.0
C732 C 0.11448 0.38825 0.48795 0.0
H733 H 0.11373 0.37503 0.72665 0.0
H734 H 0.09037 0.39306 0.60438 0.0
C735 C 0.13617 0.38007 0.46487 0.0
C736 C 0.13635 0.27178 0.20214 0.0
C737 C 0.15545 0.2625 0.24787 0.0
H738 H 0.12357 0.29779 0.10946 0.0
C739 C 0.17605 0.27439 0.24503 0.0
H740 H 0.12019 0.26308 0.20392 0.0
C741 C 0.17785 0.29451 0.1929 0.0
C742 C 0.1592 0.30293 0.14101 0.0
H743 H 0.19095 0.26785 0.28109 0.0
H744 H 0.19427 0.30266 0.18869 0.0
C745 C 0.13825 0.29173 0.14857 0.0
C746 C 0.97686 0.88233 0.42541 0.0
C747 C 0.96492 0.90295 0.42198 0.0
H748 H 0.00636 0.8648 0.47599 0.0
C749 C 0.97305 0.92147 0.47554 0.0
H750 H 0.97105 0.86776 0.38482 0.0
C751 C 0.99348 0.91992 0.52564 0.0
C752 C 0.006 0.8997 0.52483 0.0
H753 H 0.96434 0.93763 0.47441 0.0
H754 H 0.99971 0.93475 0.56334 0.0
C755 C 0.99714 0.88067 0.47705 0.0
C756 C 0.36443 0.73369 0.67588 0.0
C757 C 0.35116 0.71419 0.69046 0.0
H758 H 0.37126 0.76784 0.71831 0.0
C759 C 0.33688 0.71324 0.77144 0.0
H760 H 0.37583 0.73492 0.61496 0.0
C761 C 0.3344 0.73217 0.83133 0.0
C762 C 0.34601 0.75236 0.81058 0.0
H763 H 0.32646 0.69848 0.785 0.0
H764 H 0.3224 0.7314 0.89024 0.0
C765 C 0.36169 0.75265 0.73464 0.0
C766 C 0.54457 0.08914 0.99439 0.0
C767 C 0.55122 0.10577 0.92786 0.0
H768 H 0.51847 0.07726 0.0886 0.0
C769 C 0.53788 0.12535 0.9174 0.0
H770 H 0.55436 0.07375 0.0034 0.0
C771 C 0.51738 0.12744 0.96709 0.0
C772 C 0.50973 0.10975 0.02614 0.0
H773 H 0.5426 0.13836 0.86621 0.0
H774 H 0.50684 0.14216 0.95406 0.0
C775 C 0.52386 0.09099 0.0422 0.0
C776 C 0.13517 0.73526 0.3429 0.0
C777 C 0.145 0.7144 0.31682 0.0
H778 H 0.12912 0.76982 0.30359 0.0
C779 C 0.15402 0.71185 0.22386 0.0
H780 H 0.12816 0.73786 0.41413 0.0
C781 C 0.15411 0.73013 0.15982 0.0
C782 C 0.1458 0.75138 0.18887 0.0
H783 H 0.16174 0.69601 0.202 0.0
H784 H 0.16175 0.72795 0.08949 0.0
C785 C 0.1359 0.75367 0.28008 0.0
C786 C 0.51599 0.88011 0.56095 0.0
C787 C 0.50702 0.89927 0.51458 0.0
H788 H 0.54161 0.86714 0.65518 0.0
C789 C 0.51913 0.91973 0.51785 0.0
H790 H 0.50714 0.86404 0.55889 0.0
C791 C 0.53911 0.92137 0.57118 0.0
C792 C 0.54718 0.90269 0.62377 0.0
H793 H 0.51283 0.93467 0.48139 0.0
H794 H 0.54741 0.9377 0.57581 0.0
C795 C 0.53581 0.88184 0.61561 0.0
C796 C 0.34873 0.28253 0.66871 0.0
C797 C 0.35777 0.26168 0.69884 0.0
H798 H 0.34169 0.31702 0.70614 0.0
C799 C 0.37 0.26072 0.78536 0.0
H800 H 0.33944 0.28383 0.60169 0.0
C801 C 0.37167 0.2798 0.84423 0.0
C802 C 0.3608 0.30015 0.81859 0.0
H803 H 0.37755 0.24499 0.80951 0.0
H804 H 0.38021 0.27809 0.91287 0.0
C805 C 0.35015 0.3016 0.72828 0.0
C806 C 0.9785 0.08902 0.95058 0.0
C807 C 0.99858 0.10051 0.9746 0.0
H808 H 0.94473 0.0804 0.99356 0.0
C809 C 0.99856 0.1154 0.05341 0.0
H810 H 0.97794 0.07767 0.88931 0.0
C811 C 0.97943 0.11738 0.11172 0.0
C812 C 0.96007 0.10413 0.09372 0.0
H813 H 0.01363 0.1249 0.07232 0.0
H814 H 0.98044 0.12812 0.17487 0.0
C815 C 0.9594 0.09074 0.00991 0.0
C816 C 0.83891 0.71702 0.66817 0.0
C817 C 0.8514 0.73666 0.68963 0.0
H818 H 0.82867 0.68407 0.71569 0.0
C819 C 0.86663 0.73633 0.76714 0.0
H820 H 0.82727 0.7167 0.60789 0.0
C821 C 0.86779 0.71756 0.82758 0.0
C822 C 0.85339 0.69888 0.81289 0.0
H823 H 0.8769 0.75103 0.78397 0.0
H824 H 0.87871 0.71847 0.89018 0.0
C825 C 0.83985 0.69826 0.72959 0.0
C826 C 0.02696 0.11174 0.62569 0.0
C827 C 0.04806 0.10172 0.60509 0.0
H828 H 0.99252 0.1164 0.58169 0.0
C829 C 0.05119 0.09097 0.51572 0.0
H830 H 0.02393 0.1202 0.69371 0.0
C831 C 0.03319 0.08927 0.45045 0.0
C832 C 0.01169 0.09771 0.47501 0.0
H833 H 0.06726 0.08311 0.49789 0.0
H834 H 0.03577 0.08034 0.38314 0.0
C835 C 0.00887 0.1094 0.56203 0.0
C836 C 0.65925 0.2831 0.23638 0.0
C837 C 0.64485 0.28101 0.31669 0.0
H838 H 0.6749 0.26627 0.11664 0.0
C839 C 0.63243 0.26087 0.32851 0.0
H840 H 0.66902 0.29839 0.2249 0.0
C841 C 0.63622 0.24239 0.26802 0.0
C842 C 0.65209 0.24382 0.19304 0.0
H843 H 0.62097 0.25875 0.38877 0.0
H844 H 0.62737 0.22668 0.28245 0.0
C845 C 0.66275 0.26465 0.17471 0.0
C846 C 0.48308 0.88196 0.13349 0.0
C847 C 0.46263 0.89271 0.10824 0.0
H848 H 0.51788 0.87627 0.09809 0.0
C849 C 0.46096 0.90318 0.01764 0.0
H850 H 0.48496 0.87354 0.20229 0.0
C851 C 0.47993 0.90462 0.95752 0.0
C852 C 0.50089 0.89579 0.98746 0.0
H853 H 0.44545 0.91155 0.99577 0.0
H854 H 0.47848 0.91382 0.8904 0.0
C855 C 0.50205 0.88367 0.07414 0.0
C856 C 0.84043 0.29416 0.75028 0.0
C857 C 0.84999 0.29188 0.6581 0.0
H858 H 0.83318 0.27797 0.88507 0.0
C859 C 0.86153 0.27175 0.63456 0.0
H860 H 0.83146 0.30947 0.77034 0.0
C861 C 0.86179 0.25358 0.6985 0.0
C862 C 0.85121 0.25544 0.78843 0.0
H863 H 0.86911 0.26939 0.56422 0.0
H864 H 0.86982 0.23788 0.67667 0.0
C865 C 0.84133 0.27614 0.81559 0.0
C866 C 0.4785 0.11644 0.41602 0.0
C867 C 0.46646 0.09589 0.41281 0.0
H868 H 0.50765 0.13407 0.46957 0.0
C869 C 0.47359 0.07787 0.47163 0.0
H870 H 0.47341 0.13066 0.37177 0.0
C871 C 0.49341 0.07968 0.52587 0.0
C872 C 0.50628 0.09967 0.52386 0.0
H873 H 0.4647 0.06182 0.47128 0.0
H874 H 0.49903 0.06514 0.56702 0.0
C875 C 0.49818 0.11836 0.47161 0.0
C876 C 0.64281 0.73332 0.2154 0.0
C877 C 0.65571 0.73059 0.29928 0.0
H878 H 0.6304 0.71821 0.08636 0.0
C879 C 0.6646 0.70915 0.32154 0.0
H880 H 0.63541 0.74959 0.19771 0.0
C881 C 0.66218 0.69116 0.25656 0.0
C882 C 0.65028 0.69423 0.16985 0.0
H883 H 0.67442 0.70663 0.38653 0.0
H884 H 0.67041 0.67517 0.27221 0.0
C885 C 0.63977 0.71522 0.15217 0.0
C886 C 0.04803 0.91006 0.02845 0.0
C887 C 0.04683 0.89893 0.93905 0.0
H888 H 0.03001 0.92095 0.1542 0.0
C889 C 0.02668 0.88761 0.914 0.0
H890 H 0.0633 0.91888 0.0501 0.0
C891 C 0.00756 0.88917 0.9726 0.0
C892 C 0.00825 0.90175 0.0583 0.0
H893 H 0.02516 0.8787 0.84607 0.0
H894 H 0.992 0.88116 0.94897 0.0
C895 C 0.02891 0.91138 0.08779 0.0
C896 C 0.63344 0.76469 0.66298 0.0
C897 C 0.64723 0.7837 0.68032 0.0
H898 H 0.6247 0.73098 0.70484 0.0
C899 C 0.66011 0.7845 0.76542 0.0
H900 H 0.62309 0.76361 0.59874 0.0
C901 C 0.66093 0.76572 0.82668 0.0
C902 C 0.649 0.74586 0.80336 0.0
H903 H 0.67086 0.79891 0.78118 0.0
H904 H 0.67206 0.76627 0.88866 0.0
C905 C 0.63448 0.74589 0.72339 0.0
C906 C 0.47351 0.38045 0.8828 0.0
C907 C 0.45372 0.39229 0.90882 0.0
H908 H 0.5079 0.37261 0.91784 0.0
C909 C 0.45251 0.40228 0.00065 0.0
H910 H 0.47498 0.37232 0.81314 0.0
C911 C 0.47148 0.40231 0.0611 0.0
C912 C 0.49197 0.39252 0.03026 0.0
H913 H 0.43747 0.41138 0.02327 0.0
H914 H 0.47049 0.41123 0.12917 0.0
C915 C 0.49249 0.38076 0.9425 0.0
C916 C 0.83855 0.22103 0.31113 0.0
C917 C 0.84907 0.24183 0.29076 0.0
H918 H 0.83273 0.1869 0.26504 0.0
C919 C 0.865 0.24294 0.21593 0.0
H920 H 0.82639 0.21964 0.36922 0.0
C921 C 0.8691 0.22408 0.1579 0.0
C922 C 0.8569 0.20388 0.17194 0.0
H923 H 0.87376 0.25863 0.20003 0.0
H924 H 0.88068 0.22588 0.09789 0.0
C925 C 0.84235 0.20221 0.25187 0.0
C926 C 0.02433 0.59171 0.54841 0.0
C927 C 0.00333 0.60127 0.52344 0.0
H928 H 0.05777 0.58289 0.50038 0.0
C929 C 0.00105 0.61239 0.43492 0.0
H930 H 0.02651 0.58319 0.61681 0.0
C931 C 0.01906 0.61294 0.37008 0.0
C932 C 0.0395 0.60169 0.39115 0.0
H933 H 0.98512 0.62021 0.41481 0.0
H934 H 0.01636 0.62091 0.30083 0.0
C935 C 0.04221 0.59164 0.48212 0.0
C936 C 0.64014 0.22868 0.78523 0.0
C937 C 0.6514 0.22681 0.6968 0.0
H938 H 0.63213 0.21309 0.91916 0.0
C939 C 0.66159 0.20615 0.67131 0.0
H940 H 0.63183 0.24435 0.80565 0.0
C941 C 0.66224 0.18825 0.73737 0.0
C942 C 0.65214 0.19064 0.82852 0.0
H943 H 0.67022 0.2043 0.60289 0.0
H944 H 0.67151 0.17301 0.71893 0.0
C945 C 0.64016 0.21065 0.84979 0.0
C946 C 0.01004 0.41191 0.95931 0.0
C947 C 0.99581 0.39295 0.96798 0.0
H948 H 0.04053 0.42817 0.00503 0.0
C949 C 0.00326 0.37416 0.02121 0.0
H950 H 0.00484 0.42649 0.91748 0.0
C951 C 0.02367 0.37517 0.07218 0.0
C952 C 0.03714 0.3948 0.06901 0.0
H953 H 0.99268 0.35926 0.02847 0.0
H954 H 0.02824 0.36117 0.11865 0.0
C955 C 0.03066 0.41272 0.00842 0.0
C956 C 0.83829 0.77535 0.17316 0.0
C957 C 0.84739 0.75393 0.19404 0.0
H958 H 0.83191 0.80901 0.22521 0.0
C959 C 0.86009 0.75095 0.27832 0.0
H960 H 0.82855 0.77803 0.10807 0.0
C961 C 0.86272 0.76876 0.34329 0.0
C962 C 0.85201 0.78971 0.32685 0.0
H963 H 0.86757 0.73466 0.29513 0.0
H964 H 0.87188 0.76555 0.40944 0.0
C965 C 0.84032 0.79306 0.23982 0.0
C966 C 0.48162 0.57428 0.50476 0.0
C967 C 0.49469 0.59413 0.50145 0.0
H968 H 0.45231 0.55783 0.56162 0.0
C969 C 0.48654 0.6138 0.5469 0.0
H970 H 0.4873 0.55896 0.46904 0.0
C971 C 0.46649 0.61316 0.60044 0.0
C972 C 0.45407 0.59292 0.60837 0.0
H973 H 0.49616 0.62942 0.5448 0.0
H974 H 0.46127 0.62823 0.63917 0.0
C975 C 0.46141 0.57373 0.55699 0.0
C976 C 0.37324 0.22851 0.32749 0.0
C977 C 0.35237 0.21712 0.33406 0.0
H978 H 0.39117 0.25734 0.27306 0.0
C979 C 0.33376 0.22541 0.28154 0.0
H980 H 0.38789 0.22256 0.36711 0.0
C981 C 0.33552 0.24555 0.22957 0.0
C982 C 0.35601 0.25762 0.22758 0.0
H983 H 0.31741 0.2171 0.28503 0.0
H984 H 0.32063 0.25197 0.19294 0.0
C985 C 0.37509 0.2485 0.27413 0.0
C986 C 0.53854 0.58752 0.00242 0.0
C987 C 0.53754 0.59804 0.09319 0.0
H988 H 0.52034 0.57796 0.87531 0.0
C989 C 0.51775 0.60989 0.1191 0.0
H990 H 0.55353 0.57832 0.98006 0.0
C991 C 0.49866 0.60931 0.06001 0.0
C992 C 0.49906 0.59721 0.97304 0.0
H993 H 0.51642 0.61837 0.18809 0.0
H994 H 0.48331 0.6176 0.08438 0.0
C995 C 0.51946 0.58719 0.94266 0.0
C996 C 0.13134 0.78188 0.81143 0.0
C997 C 0.14523 0.801 0.79841 0.0
H998 H 0.12406 0.74782 0.76927 0.0
C999 C 0.1604 0.80134 0.72027 0.0
H1000 H 0.11926 0.78113 0.87007 0.0
C1001 C 0.16302 0.78219 0.66184 0.0
C1002 C 0.15067 0.76237 0.68128 0.0
H1003 H 0.17131 0.81581 0.70798 0.0
H1004 H 0.17562 0.78249 0.60515 0.0
C1005 C 0.13421 0.76269 0.75418 0.0
C1006 C 0.98855 0.39128 0.53489 0.0
C1007 C 0.98587 0.40087 0.44342 0.0
H1008 H 0.97352 0.3843 0.67109 0.0
C1009 C 0.96451 0.40904 0.41545 0.0
H1010 H 0.00482 0.38459 0.55743 0.0
C1011 C 0.94655 0.40931 0.48134 0.0
C1012 C 0.9496 0.40081 0.57492 0.0
H1013 H 0.96208 0.41643 0.34485 0.0
H1014 H 0.93064 0.41705 0.46057 0.0
C1015 C 0.97051 0.39092 0.59953 0.0
C1016 C 0.35763 0.76372 0.22026 0.0
C1017 C 0.3461 0.76578 0.308 0.0
H1018 H 0.3669 0.77943 0.088 0.0
C1019 C 0.33652 0.78672 0.33363 0.0
H1020 H 0.36548 0.74783 0.19974 0.0
C1021 C 0.33687 0.80482 0.26863 0.0
C1022 C 0.34739 0.80236 0.17842 0.0
H1023 H 0.32767 0.78871 0.40147 0.0
H1024 H 0.32813 0.82036 0.28723 0.0
C1025 C 0.35861 0.78194 0.15677 0.0
C1026 C 0.97016 0.62066 0.89318 0.0
C1027 C 0.95015 0.60814 0.90716 0.0
H1028 H 0.00458 0.62594 0.93562 0.0
C1029 C 0.94858 0.59377 0.98764 0.0
H1030 H 0.97189 0.63209 0.83267 0.0
C1031 C 0.96739 0.59038 0.04727 0.0
C1032 C 0.98806 0.60114 0.02673 0.0
H1033 H 0.93341 0.58391 0.0007 0.0
H1034 H 0.96615 0.57827 0.10557 0.0
C1035 C 0.989 0.61699 0.95165 0.0
C1036 C 0.14108 0.25817 0.69345 0.0
C1037 C 0.15367 0.25722 0.77899 0.0
H1038 H 0.13069 0.24096 0.56584 0.0
C1039 C 0.16316 0.23645 0.80768 0.0
H1040 H 0.13317 0.27383 0.67051 0.0
C1041 C 0.16185 0.21751 0.74728 0.0
C1042 C 0.15087 0.21903 0.65768 0.0
H1043 H 0.17275 0.23517 0.87393 0.0
H1044 H 0.17069 0.20219 0.76806 0.0
C1045 C 0.13951 0.23923 0.63382 0.0
C1046 C 0.50655 0.37749 0.45618 0.0
C1047 C 0.49893 0.39714 0.50339 0.0
H1048 H 0.53118 0.36292 0.36122 0.0
C1049 C 0.51239 0.41674 0.50065 0.0
H1050 H 0.49664 0.36205 0.4577 0.0
C1051 C 0.53241 0.4171 0.44701 0.0
C1052 C 0.53916 0.39797 0.39369 0.0
H1053 H 0.50712 0.43203 0.53761 0.0
H1054 H 0.54179 0.43284 0.44272 0.0
C1055 C 0.52642 0.37794 0.40136 0.0
loop_
_geom_bond_atom_site_label_1
_geom_bond_atom_site_label_2
_geom_bond_distance
_geom_bond_site_symmetry_2
_ccdc_geom_bond_type
C0 O1 1.160 . S
C0 O7 1.185 . S
O1 C0 1.160 . S
O2 Zn3 1.899 . S
O2 C10 1.284 . S
Zn3 O2 1.899 . S
Zn3 O4 2.032 . S
Zn3 O7 2.086 . S
Zn3 O12 1.977 . S
O4 Zn3 2.032 . S
O4 C8 1.278 . S
C5 O6 1.203 . S
C5 O12 1.267 . S
O6 C5 1.203 . S
O7 C0 1.185 . S
O7 Zn3 2.086 . S
C8 O4 1.278 . S
C8 O9 1.211 . S
O9 C8 1.211 . S
C10 O2 1.284 . S
C10 O11 1.273 . S
O11 C10 1.273 . S
O12 Zn3 1.977 . S
O12 C5 1.267 . S
C13 O14 1.160 . S
C13 O20 1.185 . S
O14 C13 1.160 . S
O15 Zn16 1.899 . S
O15 C23 1.284 . S
Zn16 O15 1.899 . S
Zn16 O17 2.032 . S
Zn16 O20 2.086 . S
Zn16 O25 1.977 . S
O17 Zn16 2.032 . S
O17 C21 1.278 . S
C18 O19 1.203 . S
C18 O25 1.267 . S
O19 C18 1.203 . S
O20 C13 1.185 . S
O20 Zn16 2.086 . S
C21 O17 1.278 . S
C21 O22 1.211 . S
O22 C21 1.211 . S
C23 O15 1.284 . S
C23 O24 1.273 . S
O24 C23 1.273 . S
O25 Zn16 1.977 . S
O25 C18 1.267 . S
C26 O27 1.160 . S
C26 O33 1.185 . S
O27 C26 1.160 . S
O28 Zn29 1.899 . S
O28 C36 1.284 . S
Zn29 O28 1.899 . S
Zn29 O30 2.032 . S
Zn29 O33 2.086 . S
Zn29 O38 1.977 . S
O30 Zn29 2.032 . S
O30 C34 1.278 . S
C31 O32 1.203 . S
C31 O38 1.267 1_554 S
O32 C31 1.203 . S
O33 C26 1.185 . S
O33 Zn29 2.086 . S
C34 O30 1.278 . S
C34 O35 1.211 . S
O35 C34 1.211 . S
C36 O28 1.284 . S
C36 O37 1.273 . S
O37 C36 1.273 . S
O38 Zn29 1.977 . S
O38 C31 1.267 1_556 S
C39 O40 1.160 . S
C39 O46 1.185 . S
O40 C39 1.160 . S
O41 Zn42 1.899 . S
O41 C49 1.284 . S
Zn42 O41 1.899 . S
Zn42 O43 2.037 . S
Zn42 O46 2.086 . S
Zn42 O51 1.977 . S
O43 Zn42 2.037 . S
O43 C47 1.277 1_554 S
C44 O45 1.203 . S
C44 O51 1.267 . S
O45 C44 1.203 . S
O46 C39 1.185 . S
O46 Zn42 2.086 . S
C47 O43 1.277 1_556 S
C47 O48 1.211 1_556 S
O48 C47 1.211 1_554 S
C49 O41 1.284 . S
C49 O50 1.273 . S
O50 C49 1.273 . S
O51 Zn42 1.977 . S
O51 C44 1.267 . S
C52 O53 1.160 . S
C52 O59 1.185 . S
O53 C52 1.160 . S
O54 Zn55 1.899 . S
O54 C62 1.284 . S
Zn55 O54 1.899 . S
Zn55 O56 2.032 . S
Zn55 O59 2.086 . S
Zn55 O64 1.977 . S
O56 Zn55 2.032 . S
O56 C60 1.278 . S
C57 O58 1.203 . S
C57 O64 1.267 1_556 S
O58 C57 1.203 . S
O59 C52 1.185 . S
O59 Zn55 2.086 . S
C60 O56 1.278 . S
C60 O61 1.211 . S
O61 C60 1.211 . S
C62 O54 1.284 . S
C62 O63 1.273 . S
O63 C62 1.273 . S
O64 Zn55 1.977 . S
O64 C57 1.267 1_554 S
C65 O66 1.160 . S
C65 O72 1.185 . S
O66 C65 1.160 . S
O67 Zn68 1.899 . S
O67 C75 1.284 . S
Zn68 O67 1.899 . S
Zn68 O69 2.032 . S
Zn68 O72 2.086 . S
Zn68 O77 1.977 . S
O69 Zn68 2.032 . S
O69 C73 1.278 . S
C70 O71 1.203 . S
C70 O77 1.267 . S
O71 C70 1.203 . S
O72 C65 1.185 . S
O72 Zn68 2.086 . S
C73 O69 1.278 . S
C73 O74 1.211 . S
O74 C73 1.211 . S
C75 O67 1.284 . S
C75 O76 1.273 . S
O76 C75 1.273 . S
O77 Zn68 1.977 . S
O77 C70 1.267 . S
C78 O79 1.160 . S
C78 O85 1.185 . S
O79 C78 1.160 . S
O80 Zn81 1.899 . S
O80 C88 1.284 . S
Zn81 O80 1.899 . S
Zn81 O82 2.032 . S
Zn81 O85 2.086 . S
Zn81 O90 1.977 . S
O82 Zn81 2.032 . S
O82 C86 1.278 . S
C83 O84 1.203 . S
C83 O90 1.267 . S
O84 C83 1.203 . S
O85 C78 1.185 . S
O85 Zn81 2.086 . S
C86 O82 1.278 . S
C86 O87 1.211 . S
O87 C86 1.211 . S
C88 O80 1.284 . S
C88 O89 1.273 . S
O89 C88 1.273 . S
O90 Zn81 1.977 . S
O90 C83 1.267 . S
C91 O92 1.160 . S
C91 O98 1.185 . S
O92 C91 1.160 . S
O93 Zn94 1.899 . S
O93 C101 1.284 . S
Zn94 O93 1.899 . S
Zn94 O95 2.037 . S
Zn94 O98 2.086 . S
Zn94 O103 1.977 . S
O95 Zn94 2.037 . S
O95 C99 1.277 1_556 S
C96 O97 1.203 . S
C96 O103 1.267 . S
O97 C96 1.203 . S
O98 C91 1.185 . S
O98 Zn94 2.086 . S
C99 O95 1.277 1_554 S
C99 O100 1.211 1_554 S
O100 C99 1.211 1_556 S
C101 O93 1.284 . S
C101 O102 1.273 . S
O102 C101 1.273 . S
O103 Zn94 1.977 . S
O103 C96 1.267 . S
C104 O105 1.160 . S
C104 O111 1.185 . S
O105 C104 1.160 . S
O106 Zn107 1.899 . S
O106 C114 1.284 . S
Zn107 O106 1.899 . S
Zn107 O108 2.032 . S
Zn107 O111 2.086 . S
Zn107 O116 1.977 . S
O108 Zn107 2.032 . S
O108 C112 1.278 . S
C109 O110 1.203 . S
C109 O116 1.267 . S
O110 C109 1.203 . S
O111 C104 1.185 . S
O111 Zn107 2.086 . S
C112 O108 1.278 . S
C112 O113 1.211 . S
O113 C112 1.211 . S
C114 O106 1.284 . S
C114 O115 1.273 . S
O115 C114 1.273 . S
O116 Zn107 1.977 . S
O116 C109 1.267 . S
C117 O118 1.160 . S
C117 O124 1.185 . S
O118 C117 1.160 . S
O119 Zn120 1.899 . S
O119 C127 1.284 . S
Zn120 O119 1.899 . S
Zn120 O121 2.032 . S
Zn120 O124 2.086 . S
Zn120 O129 1.977 . S
O121 Zn120 2.032 . S
O121 C125 1.278 . S
C122 O123 1.203 . S
C122 O129 1.267 . S
O123 C122 1.203 . S
O124 C117 1.185 . S
O124 Zn120 2.086 . S
C125 O121 1.278 . S
C125 O126 1.211 . S
O126 C125 1.211 . S
C127 O119 1.284 . S
C127 O128 1.273 . S
O128 C127 1.273 . S
O129 Zn120 1.977 . S
O129 C122 1.267 . S
C130 O131 1.160 . S
C130 O137 1.185 . S
O131 C130 1.160 . S
O132 Zn133 1.899 . S
O132 C140 1.284 . S
Zn133 O132 1.899 . S
Zn133 O134 2.032 . S
Zn133 O137 2.086 . S
Zn133 O142 1.977 . S
O134 Zn133 2.032 . S
O134 C138 1.278 . S
C135 O136 1.203 . S
C135 O142 1.267 1_556 S
O136 C135 1.203 . S
O137 C130 1.185 . S
O137 Zn133 2.086 . S
C138 O134 1.278 . S
C138 O139 1.211 . S
O139 C138 1.211 . S
C140 O132 1.284 . S
C140 O141 1.273 . S
O141 C140 1.273 . S
O142 Zn133 1.977 . S
O142 C135 1.267 1_554 S
C143 O144 1.160 . S
C143 O150 1.185 . S
O144 C143 1.160 . S
O145 Zn146 1.899 . S
O145 C153 1.284 . S
Zn146 O145 1.899 . S
Zn146 O147 2.037 . S
Zn146 O150 2.086 . S
Zn146 O155 1.977 . S
O147 Zn146 2.037 . S
O147 C151 1.277 1_556 S
C148 O149 1.203 . S
C148 O155 1.267 . S
O149 C148 1.203 . S
O150 C143 1.185 . S
O150 Zn146 2.086 . S
C151 O147 1.277 1_554 S
C151 O152 1.211 1_554 S
O152 C151 1.211 1_556 S
C153 O145 1.284 . S
C153 O154 1.273 . S
O154 C153 1.273 . S
O155 Zn146 1.977 . S
O155 C148 1.267 . S
C156 O157 1.160 . S
C156 O163 1.185 . S
O157 C156 1.160 . S
O158 Zn159 1.899 . S
O158 C166 1.284 . S
Zn159 O158 1.899 . S
Zn159 O160 2.032 . S
Zn159 O163 2.086 . S
Zn159 O168 1.977 . S
O160 Zn159 2.032 . S
O160 C164 1.278 . S
C161 O162 1.203 . S
C161 O168 1.267 1_554 S
O162 C161 1.203 . S
O163 C156 1.185 . S
O163 Zn159 2.086 . S
C164 O160 1.278 . S
C164 O165 1.211 . S
O165 C164 1.211 . S
C166 O158 1.284 . S
C166 O167 1.273 . S
O167 C166 1.273 . S
O168 Zn159 1.977 . S
O168 C161 1.267 1_556 S
C169 O170 1.160 . S
C169 O176 1.185 . S
O170 C169 1.160 . S
O171 Zn172 1.899 . S
O171 C179 1.284 . S
Zn172 O171 1.899 . S
Zn172 O173 2.032 . S
Zn172 O176 2.086 . S
Zn172 O181 1.977 . S
O173 Zn172 2.032 . S
O173 C177 1.278 . S
C174 O175 1.203 . S
C174 O181 1.267 . S
O175 C174 1.203 . S
O176 C169 1.185 . S
O176 Zn172 2.086 . S
C177 O173 1.278 . S
C177 O178 1.211 . S
O178 C177 1.211 . S
C179 O171 1.284 . S
C179 O180 1.273 . S
O180 C179 1.273 . S
O181 Zn172 1.977 . S
O181 C174 1.267 . S
C182 O183 1.160 . S
C182 O189 1.185 . S
O183 C182 1.160 . S
O184 Zn185 1.899 . S
O184 C192 1.284 . S
Zn185 O184 1.899 . S
Zn185 O186 2.032 . S
Zn185 O189 2.086 . S
Zn185 O194 1.977 . S
O186 Zn185 2.032 . S
O186 C190 1.278 . S
C187 O188 1.203 . S
C187 O194 1.267 . S
O188 C187 1.203 . S
O189 C182 1.185 . S
O189 Zn185 2.086 . S
C190 O186 1.278 . S
C190 O191 1.211 . S
O191 C190 1.211 . S
C192 O184 1.284 . S
C192 O193 1.273 . S
O193 C192 1.273 . S
O194 Zn185 1.977 . S
O194 C187 1.267 . S
C195 O196 1.160 . S
C195 O202 1.185 . S
O196 C195 1.160 . S
O197 Zn198 1.899 . S
O197 C205 1.284 . S
Zn198 O197 1.899 . S
Zn198 O199 2.037 . S
Zn198 O202 2.086 . S
Zn198 O207 1.977 . S
O199 Zn198 2.037 . S
O199 C203 1.277 1_554 S
C200 O201 1.203 . S
C200 O207 1.267 . S
O201 C200 1.203 . S
O202 C195 1.185 . S
O202 Zn198 2.086 . S
C203 O199 1.277 1_556 S
C203 O204 1.211 1_556 S
O204 C203 1.211 1_554 S
C205 O197 1.284 . S
C205 O206 1.273 . S
O206 C205 1.273 . S
O207 Zn198 1.977 . S
O207 C200 1.267 . S
C208 O209 1.160 . S
C208 O215 1.185 . S
O209 C208 1.160 . S
O210 Zn211 1.899 . S
O210 C218 1.284 . S
Zn211 O210 1.899 . S
Zn211 O212 2.032 . S
Zn211 O215 2.086 . S
Zn211 O220 1.977 . S
O212 Zn211 2.032 . S
O212 C216 1.278 . S
C213 O214 1.203 . S
C213 O220 1.267 1_554 S
O214 C213 1.203 . S
O215 C208 1.185 . S
O215 Zn211 2.086 . S
C216 O212 1.278 . S
C216 O217 1.211 . S
O217 C216 1.211 . S
C218 O210 1.284 . S
C218 O219 1.273 . S
O219 C218 1.273 . S
O220 Zn211 1.977 . S
O220 C213 1.267 1_556 S
C221 O222 1.160 . S
C221 O228 1.185 . S
O222 C221 1.160 . S
O223 Zn224 1.899 . S
O223 C231 1.284 . S
Zn224 O223 1.899 . S
Zn224 O225 2.037 . S
Zn224 O228 2.086 . S
Zn224 O233 1.977 . S
O225 Zn224 2.037 . S
O225 C229 1.277 1_554 S
C226 O227 1.203 . S
C226 O233 1.267 . S
O227 C226 1.203 . S
O228 C221 1.185 . S
O228 Zn224 2.086 . S
C229 O225 1.277 1_556 S
C229 O230 1.211 1_556 S
O230 C229 1.211 1_554 S
C231 O223 1.284 . S
C231 O232 1.273 . S
O232 C231 1.273 . S
O233 Zn224 1.977 . S
O233 C226 1.267 . S
C234 O235 1.160 . S
C234 O241 1.185 . S
O235 C234 1.160 . S
O236 Zn237 1.899 . S
O236 C244 1.284 . S
Zn237 O236 1.899 . S
Zn237 O238 2.032 . S
Zn237 O241 2.086 . S
Zn237 O246 1.977 . S
O238 Zn237 2.032 . S
O238 C242 1.278 . S
C239 O240 1.203 . S
C239 O246 1.267 . S
O240 C239 1.203 . S
O241 C234 1.185 . S
O241 Zn237 2.086 . S
C242 O238 1.278 . S
C242 O243 1.211 . S
O243 C242 1.211 . S
C244 O236 1.284 . S
C244 O245 1.273 . S
O245 C244 1.273 . S
O246 Zn237 1.977 . S
O246 C239 1.267 . S
C247 O248 1.160 . S
C247 O254 1.185 . S
O248 C247 1.160 . S
O249 Zn250 1.899 . S
O249 C257 1.284 . S
Zn250 O249 1.899 . S
Zn250 O251 2.032 . S
Zn250 O254 2.086 . S
Zn250 O259 1.977 . S
O251 Zn250 2.032 . S
O251 C255 1.278 . S
C252 O253 1.203 . S
C252 O259 1.267 . S
O253 C252 1.203 . S
O254 C247 1.185 . S
O254 Zn250 2.086 . S
C255 O251 1.278 . S
C255 O256 1.211 . S
O256 C255 1.211 . S
C257 O249 1.284 . S
C257 O258 1.273 . S
O258 C257 1.273 . S
O259 Zn250 1.977 . S
O259 C252 1.267 . S
C260 O261 1.160 . S
C260 O267 1.185 . S
O261 C260 1.160 . S
O262 Zn263 1.899 . S
O262 C270 1.284 . S
Zn263 O262 1.899 . S
Zn263 O264 2.032 . S
Zn263 O267 2.086 . S
Zn263 O272 1.977 . S
O264 Zn263 2.032 . S
O264 C268 1.278 . S
C265 O266 1.203 . S
C265 O272 1.267 . S
O266 C265 1.203 . S
O267 C260 1.185 . S
O267 Zn263 2.086 . S
C268 O264 1.278 . S
C268 O269 1.211 . S
O269 C268 1.211 . S
C270 O262 1.284 . S
C270 O271 1.273 . S
O271 C270 1.273 . S
O272 Zn263 1.977 . S
O272 C265 1.267 . S
C273 O274 1.160 . S
C273 O280 1.185 . S
O274 C273 1.160 . S
O275 Zn276 1.899 . S
O275 C283 1.284 . S
Zn276 O275 1.899 . S
Zn276 O277 2.037 . S
Zn276 O280 2.086 . S
Zn276 O285 1.977 . S
O277 Zn276 2.037 . S
O277 C281 1.277 1_556 S
C278 O279 1.203 . S
C278 O285 1.267 . S
O279 C278 1.203 . S
O280 C273 1.185 . S
O280 Zn276 2.086 . S
C281 O277 1.277 1_554 S
C281 O282 1.211 1_554 S
O282 C281 1.211 1_556 S
C283 O275 1.284 . S
C283 O284 1.273 . S
O284 C283 1.273 . S
O285 Zn276 1.977 . S
O285 C278 1.267 . S
C286 O287 1.160 . S
C286 O293 1.185 . S
O287 C286 1.160 . S
O288 Zn289 1.899 . S
O288 C296 1.284 . S
Zn289 O288 1.899 . S
Zn289 O290 2.032 . S
Zn289 O293 2.086 . S
Zn289 O298 1.977 . S
O290 Zn289 2.032 . S
O290 C294 1.278 . S
C291 O292 1.203 . S
C291 O298 1.267 1_556 S
O292 C291 1.203 . S
O293 C286 1.185 . S
O293 Zn289 2.086 . S
C294 O290 1.278 . S
C294 O295 1.211 . S
O295 C294 1.211 . S
C296 O288 1.284 . S
C296 O297 1.273 . S
O297 C296 1.273 . S
O298 Zn289 1.977 . S
O298 C291 1.267 1_554 S
C299 O300 1.160 . S
C299 O306 1.185 . S
O300 C299 1.160 . S
O301 Zn302 1.899 . S
O301 C309 1.284 . S
Zn302 O301 1.899 . S
Zn302 O303 2.032 . S
Zn302 O306 2.086 . S
Zn302 O311 1.977 . S
O303 Zn302 2.032 . S
O303 C307 1.278 . S
C304 O305 1.203 . S
C304 O311 1.267 . S
O305 C304 1.203 . S
O306 C299 1.185 . S
O306 Zn302 2.086 . S
C307 O303 1.278 . S
C307 O308 1.211 . S
O308 C307 1.211 . S
C309 O301 1.284 . S
C309 O310 1.273 . S
O310 C309 1.273 . S
O311 Zn302 1.977 . S
O311 C304 1.267 . S
C312 O313 1.160 . S
C312 O319 1.185 . S
O313 C312 1.160 . S
O314 Zn315 1.899 . S
O314 C322 1.284 . S
Zn315 O314 1.899 . S
Zn315 O316 2.032 . S
Zn315 O319 2.086 . S
Zn315 O324 1.977 . S
O316 Zn315 2.032 . S
O316 C320 1.278 . S
C317 O318 1.203 . S
C317 O324 1.267 1_556 S
O318 C317 1.203 . S
O319 C312 1.185 . S
O319 Zn315 2.086 . S
C320 O316 1.278 . S
C320 O321 1.211 . S
O321 C320 1.211 . S
C322 O314 1.284 . S
C322 O323 1.273 . S
O323 C322 1.273 . S
O324 Zn315 1.977 . S
O324 C317 1.267 1_554 S
C325 O326 1.160 . S
C325 O332 1.185 . S
O326 C325 1.160 . S
O327 Zn328 1.899 . S
O327 C335 1.284 . S
Zn328 O327 1.899 . S
Zn328 O329 2.037 . S
Zn328 O332 2.086 . S
Zn328 O337 1.977 . S
O329 Zn328 2.037 . S
O329 C333 1.277 1_556 S
C330 O331 1.203 . S
C330 O337 1.267 . S
O331 C330 1.203 . S
O332 C325 1.185 . S
O332 Zn328 2.086 . S
C333 O329 1.277 1_554 S
C333 O334 1.211 1_554 S
O334 C333 1.211 1_556 S
C335 O327 1.284 . S
C335 O336 1.273 . S
O336 C335 1.273 . S
O337 Zn328 1.977 . S
O337 C330 1.267 . S
C338 O339 1.160 . S
C338 O345 1.185 . S
O339 C338 1.160 . S
O340 Zn341 1.899 . S
O340 C348 1.284 . S
Zn341 O340 1.899 . S
Zn341 O342 2.032 . S
Zn341 O345 2.086 . S
Zn341 O350 1.977 . S
O342 Zn341 2.032 . S
O342 C346 1.278 . S
C343 O344 1.203 . S
C343 O350 1.267 . S
O344 C343 1.203 . S
O345 C338 1.185 . S
O345 Zn341 2.086 . S
C346 O342 1.278 . S
C346 O347 1.211 . S
O347 C346 1.211 . S
C348 O340 1.284 . S
C348 O349 1.273 . S
O349 C348 1.273 . S
O350 Zn341 1.977 . S
O350 C343 1.267 . S
C351 O352 1.160 . S
C351 O358 1.185 . S
O352 C351 1.160 . S
O353 Zn354 1.899 . S
O353 C361 1.284 . S
Zn354 O353 1.899 . S
Zn354 O355 2.032 . S
Zn354 O358 2.086 . S
Zn354 O363 1.977 . S
O355 Zn354 2.032 . S
O355 C359 1.278 . S
C356 O357 1.203 . S
C356 O363 1.267 . S
O357 C356 1.203 . S
O358 C351 1.185 . S
O358 Zn354 2.086 . S
C359 O355 1.278 . S
C359 O360 1.211 . S
O360 C359 1.211 . S
C361 O353 1.284 . S
C361 O362 1.273 . S
O362 C361 1.273 . S
O363 Zn354 1.977 . S
O363 C356 1.267 . S
C364 O365 1.160 . S
C364 O371 1.185 . S
O365 C364 1.160 . S
O366 Zn367 1.899 . S
O366 C374 1.284 . S
Zn367 O366 1.899 . S
Zn367 O368 2.032 . S
Zn367 O371 2.086 . S
Zn367 O376 1.977 . S
O368 Zn367 2.032 . S
O368 C372 1.278 . S
C369 O370 1.203 . S
C369 O376 1.267 . S
O370 C369 1.203 . S
O371 C364 1.185 . S
O371 Zn367 2.086 . S
C372 O368 1.278 . S
C372 O373 1.211 . S
O373 C372 1.211 . S
C374 O366 1.284 . S
C374 O375 1.273 . S
O375 C374 1.273 . S
O376 Zn367 1.977 . S
O376 C369 1.267 . S
C377 O378 1.160 . S
C377 O384 1.185 . S
O378 C377 1.160 . S
O379 Zn380 1.899 . S
O379 C387 1.284 . S
Zn380 O379 1.899 . S
Zn380 O381 2.037 . S
Zn380 O384 2.086 . S
Zn380 O389 1.977 . S
O381 Zn380 2.037 . S
O381 C385 1.277 1_554 S
C382 O383 1.203 . S
C382 O389 1.267 . S
O383 C382 1.203 . S
O384 C377 1.185 . S
O384 Zn380 2.086 . S
C385 O381 1.277 1_556 S
C385 O386 1.211 1_556 S
O386 C385 1.211 1_554 S
C387 O379 1.284 . S
C387 O388 1.273 . S
O388 C387 1.273 . S
O389 Zn380 1.977 . S
O389 C382 1.267 . S
C390 O391 1.160 . S
C390 O397 1.185 . S
O391 C390 1.160 . S
O392 Zn393 1.899 . S
O392 C400 1.284 . S
Zn393 O392 1.899 . S
Zn393 O394 2.032 . S
Zn393 O397 2.086 . S
Zn393 O402 1.977 . S
O394 Zn393 2.032 . S
O394 C398 1.278 . S
C395 O396 1.203 . S
C395 O402 1.267 1_554 S
O396 C395 1.203 . S
O397 C390 1.185 . S
O397 Zn393 2.086 . S
C398 O394 1.278 . S
C398 O399 1.211 . S
O399 C398 1.211 . S
C400 O392 1.284 . S
C400 O401 1.273 . S
O401 C400 1.273 . S
O402 Zn393 1.977 . S
O402 C395 1.267 1_556 S
C403 O404 1.160 . S
C403 O410 1.185 . S
O404 C403 1.160 . S
O405 Zn406 1.899 . S
O405 C413 1.284 . S
Zn406 O405 1.899 . S
Zn406 O407 2.032 . S
Zn406 O410 2.086 . S
Zn406 O415 1.977 . S
O407 Zn406 2.032 . S
O407 C411 1.278 . S
C408 O409 1.203 . S
C408 O415 1.267 . S
O409 C408 1.203 . S
O410 C403 1.185 . S
O410 Zn406 2.086 . S
C411 O407 1.278 . S
C411 O412 1.211 . S
O412 C411 1.211 . S
C413 O405 1.284 . S
C413 O414 1.273 . S
O414 C413 1.273 . S
O415 Zn406 1.977 . S
O415 C408 1.267 . S
C416 C417 1.387 . S
C416 H420 0.950 . S
C416 C425 1.390 . S
C417 C416 1.387 . S
C417 C419 1.387 . S
H418 C425 0.950 . S
C419 C417 1.387 . S
C419 C421 1.390 . S
C419 H423 0.950 . S
H420 C416 0.950 . S
C421 C419 1.390 . S
C421 C422 1.387 . S
C421 H424 0.950 . S
C422 C421 1.387 . S
C422 C425 1.387 . S
H423 C419 0.950 . S
H424 C421 0.950 . S
C425 C416 1.390 . S
C425 H418 0.950 . S
C425 C422 1.387 . S
C426 C427 1.387 . S
C426 H430 0.950 . S
C426 C435 1.390 1_565 S
C427 C426 1.387 . S
C427 C429 1.387 . S
H428 C435 0.950 . S
C429 C427 1.387 . S
C429 C431 1.390 1_565 S
C429 H433 0.950 . S
H430 C426 0.950 . S
C431 C429 1.390 1_545 S
C431 C432 1.387 . S
C431 H434 0.950 . S
C432 C431 1.387 . S
C432 C435 1.387 . S
H433 C429 0.950 . S
H434 C431 0.950 . S
C435 C426 1.390 1_545 S
C435 H428 0.950 . S
C435 C432 1.387 . S
C436 C437 1.387 . S
C436 H440 0.950 . S
C436 C445 1.390 1_554 S
C437 C436 1.387 . S
C437 C439 1.387 . S
H438 C445 0.950 . S
C439 C437 1.387 . S
C439 C441 1.390 1_554 S
C439 H443 0.950 . S
H440 C436 0.950 . S
C441 C439 1.390 1_556 S
C441 C442 1.387 . S
C441 H444 0.950 . S
C442 C441 1.387 . S
C442 C445 1.387 . S
H443 C439 0.950 . S
H444 C441 0.950 . S
C445 C436 1.390 1_556 S
C445 H438 0.950 . S
C445 C442 1.387 . S
C446 C447 1.387 . S
C446 H450 0.950 . S
C446 C455 1.390 1_545 S
C447 C446 1.387 . S
C447 C449 1.387 . S
H448 C455 0.950 . S
C449 C447 1.387 . S
C449 C451 1.390 1_545 S
C449 H453 0.950 . S
H450 C446 0.950 . S
C451 C449 1.390 1_565 S
C451 C452 1.387 . S
C451 H454 0.950 . S
C452 C451 1.387 . S
C452 C455 1.387 . S
H453 C449 0.950 . S
H454 C451 0.950 . S
C455 C446 1.390 1_565 S
C455 H448 0.950 . S
C455 C452 1.387 . S
C456 C457 1.387 . S
C456 H460 0.950 . S
C456 C465 1.390 . S
C457 C456 1.387 . S
C457 C459 1.387 . S
H458 C465 0.950 . S
C459 C457 1.387 . S
C459 C461 1.390 . S
C459 H463 0.950 . S
H460 C456 0.950 . S
C461 C459 1.390 . S
C461 C462 1.387 . S
C461 H464 0.950 . S
C462 C461 1.387 . S
C462 C465 1.387 . S
H463 C459 0.950 . S
H464 C461 0.950 . S
C465 C456 1.390 . S
C465 H458 0.950 . S
C465 C462 1.387 . S
C466 C467 1.387 . S
C466 H470 0.950 . S
C466 C475 1.390 1_545 S
C467 C466 1.387 . S
C467 C469 1.387 . S
H468 C475 0.950 . S
C469 C467 1.387 . S
C469 C471 1.390 1_545 S
C469 H473 0.950 . S
H470 C466 0.950 . S
C471 C469 1.390 1_565 S
C471 C472 1.387 . S
C471 H474 0.950 . S
C472 C471 1.387 . S
C472 C475 1.387 . S
H473 C469 0.950 . S
H474 C471 0.950 . S
C475 C466 1.390 1_565 S
C475 H468 0.950 . S
C475 C472 1.387 . S
C476 C477 1.387 . S
C476 H480 0.950 . S
C476 C485 1.390 1_556 S
C477 C476 1.387 . S
C477 C479 1.387 . S
H478 C485 0.950 . S
C479 C477 1.387 . S
C479 C481 1.390 1_556 S
C479 H483 0.950 . S
H480 C476 0.950 . S
C481 C479 1.390 1_554 S
C481 C482 1.387 . S
C481 H484 0.950 . S
C482 C481 1.387 . S
C482 C485 1.387 . S
H483 C479 0.950 . S
H484 C481 0.950 . S
C485 C476 1.390 1_554 S
C485 H478 0.950 . S
C485 C482 1.387 . S
C486 C487 1.387 . S
C486 H490 0.950 . S
C486 C495 1.390 1_565 S
C487 C486 1.387 . S
C487 C489 1.387 . S
H488 C495 0.950 . S
C489 C487 1.387 . S
C489 C491 1.390 1_565 S
C489 H493 0.950 . S
H490 C486 0.950 . S
C491 C489 1.390 1_545 S
C491 C492 1.387 . S
C491 H494 0.950 . S
C492 C491 1.387 . S
C492 C495 1.387 . S
H493 C489 0.950 . S
H494 C491 0.950 . S
C495 C486 1.390 1_545 S
C495 H488 0.950 . S
C495 C492 1.387 . S
C496 C497 1.387 . S
C496 H500 0.950 . S
C496 C505 1.390 1_556 S
C497 C496 1.387 . S
C497 C499 1.387 . S
H498 C505 0.950 . S
C499 C497 1.387 . S
C499 C501 1.390 1_556 S
C499 H503 0.950 . S
H500 C496 0.950 . S
C501 C499 1.390 1_554 S
C501 C502 1.387 . S
C501 H504 0.950 . S
C502 C501 1.387 . S
C502 C505 1.387 . S
H503 C499 0.950 . S
H504 C501 0.950 . S
C505 C496 1.390 1_554 S
C505 H498 0.950 . S
C505 C502 1.387 . S
C506 C507 1.387 . S
C506 H510 0.950 . S
C506 C515 1.390 . S
C507 C506 1.387 . S
C507 C509 1.387 . S
H508 C515 0.950 . S
C509 C507 1.387 . S
C509 C511 1.390 . S
C509 H513 0.950 . S
H510 C506 0.950 . S
C511 C509 1.390 . S
C511 C512 1.387 . S
C511 H514 0.950 . S
C512 C511 1.387 . S
C512 C515 1.387 . S
H513 C509 0.950 . S
H514 C511 0.950 . S
C515 C506 1.390 . S
C515 H508 0.950 . S
C515 C512 1.387 . S
C516 C517 1.387 . S
C516 H520 0.950 . S
C516 C525 1.390 . S
C517 C516 1.387 . S
C517 C519 1.387 . S
H518 C525 0.950 . S
C519 C517 1.387 . S
C519 C521 1.390 . S
C519 H523 0.950 . S
H520 C516 0.950 . S
C521 C519 1.390 . S
C521 C522 1.387 . S
C521 H524 0.950 . S
C522 C521 1.387 . S
C522 C525 1.387 . S
H523 C519 0.950 . S
H524 C521 0.950 . S
C525 C516 1.390 . S
C525 H518 0.950 . S
C525 C522 1.387 . S
C526 C527 1.387 . S
C526 H530 0.950 . S
C526 C535 1.390 . S
C527 C526 1.387 . S
C527 C529 1.387 . S
H528 C535 0.950 . S
C529 C527 1.387 . S
C529 C531 1.390 . S
C529 H533 0.950 . S
H530 C526 0.950 . S
C531 C529 1.390 . S
C531 C532 1.387 . S
C531 H534 0.950 . S
C532 C531 1.387 . S
C532 C535 1.387 . S
H533 C529 0.950 . S
H534 C531 0.950 . S
C535 C526 1.390 . S
C535 H528 0.950 . S
C535 C532 1.387 . S
C536 C537 1.387 . S
C536 H540 0.950 . S
C536 C545 1.390 1_556 S
C537 C536 1.387 . S
C537 C539 1.387 . S
H538 C545 0.950 . S
C539 C537 1.387 . S
C539 C541 1.390 1_556 S
C539 H543 0.950 . S
H540 C536 0.950 . S
C541 C539 1.390 1_554 S
C541 C542 1.387 . S
C541 H544 0.950 . S
C542 C541 1.387 . S
C542 C545 1.387 . S
H543 C539 0.950 . S
H544 C541 0.950 . S
C545 C536 1.390 1_554 S
C545 H538 0.950 . S
C545 C542 1.387 . S
C546 C547 1.387 . S
C546 H550 0.950 . S
C546 C555 1.390 . S
C547 C546 1.387 . S
C547 C549 1.387 . S
H548 C555 0.950 . S
C549 C547 1.387 . S
C549 C551 1.390 . S
C549 H553 0.950 . S
H550 C546 0.950 . S
C551 C549 1.390 . S
C551 C552 1.387 . S
C551 H554 0.950 . S
C552 C551 1.387 . S
C552 C555 1.387 . S
H553 C549 0.950 . S
H554 C551 0.950 . S
C555 C546 1.390 . S
C555 H548 0.950 . S
C555 C552 1.387 . S
C556 C557 1.387 . S
C556 H560 0.950 . S
C556 C565 1.390 . S
C557 C556 1.387 . S
C557 C559 1.387 . S
H558 C565 0.950 . S
C559 C557 1.387 . S
C559 C561 1.390 . S
C559 H563 0.950 . S
H560 C556 0.950 . S
C561 C559 1.390 . S
C561 C562 1.387 . S
C561 H564 0.950 . S
C562 C561 1.387 . S
C562 C565 1.387 . S
H563 C559 0.950 . S
H564 C561 0.950 . S
C565 C556 1.390 . S
C565 H558 0.950 . S
C565 C562 1.387 . S
C566 C567 1.387 . S
C566 H570 0.950 . S
C566 C575 1.390 . S
C567 C566 1.387 . S
C567 C569 1.387 . S
H568 C575 0.950 . S
C569 C567 1.387 . S
C569 C571 1.390 . S
C569 H573 0.950 . S
H570 C566 0.950 . S
C571 C569 1.390 . S
C571 C572 1.387 . S
C571 H574 0.950 . S
C572 C571 1.387 . S
C572 C575 1.387 . S
H573 C569 0.950 . S
H574 C571 0.950 . S
C575 C566 1.390 . S
C575 H568 0.950 . S
C575 C572 1.387 . S
C576 C577 1.387 . S
C576 H580 0.950 . S
C576 C585 1.390 . S
C577 C576 1.387 . S
C577 C579 1.387 . S
H578 C585 0.950 . S
C579 C577 1.387 . S
C579 C581 1.390 . S
C579 H583 0.950 . S
H580 C576 0.950 . S
C581 C579 1.390 . S
C581 C582 1.387 . S
C581 H584 0.950 . S
C582 C581 1.387 . S
C582 C585 1.387 . S
H583 C579 0.950 . S
H584 C581 0.950 . S
C585 C576 1.390 . S
C585 H578 0.950 . S
C585 C582 1.387 . S
C586 C587 1.387 . S
C586 H590 0.950 . S
C586 C595 1.390 . S
C587 C586 1.387 . S
C587 C589 1.387 . S
H588 C595 0.950 . S
C589 C587 1.387 . S
C589 C591 1.390 . S
C589 H593 0.950 . S
H590 C586 0.950 . S
C591 C589 1.390 . S
C591 C592 1.387 . S
C591 H594 0.950 . S
C592 C591 1.387 . S
C592 C595 1.387 . S
H593 C589 0.950 . S
H594 C591 0.950 . S
C595 C586 1.390 . S
C595 H588 0.950 . S
C595 C592 1.387 . S
C596 C597 1.387 . S
C596 H600 0.950 . S
C596 C605 1.390 . S
C597 C596 1.387 . S
C597 C599 1.387 . S
H598 C605 0.950 . S
C599 C597 1.387 . S
C599 C601 1.390 . S
C599 H603 0.950 . S
H600 C596 0.950 . S
C601 C599 1.390 . S
C601 C602 1.387 . S
C601 H604 0.950 . S
C602 C601 1.387 . S
C602 C605 1.387 . S
H603 C599 0.950 . S
H604 C601 0.950 . S
C605 C596 1.390 . S
C605 H598 0.950 . S
C605 C602 1.387 . S
C606 C607 1.387 . S
C606 H610 0.950 . S
C606 C615 1.390 . S
C607 C606 1.387 . S
C607 C609 1.387 . S
H608 C615 0.950 . S
C609 C607 1.387 . S
C609 C611 1.390 . S
C609 H613 0.950 . S
H610 C606 0.950 . S
C611 C609 1.390 . S
C611 C612 1.387 . S
C611 H614 0.950 . S
C612 C611 1.387 . S
C612 C615 1.387 . S
H613 C609 0.950 . S
H614 C611 0.950 . S
C615 C606 1.390 . S
C615 H608 0.950 . S
C615 C612 1.387 . S
C616 C617 1.387 . S
C616 H620 0.950 . S
C616 C625 1.390 . S
C617 C616 1.387 . S
C617 C619 1.387 . S
H618 C625 0.950 . S
C619 C617 1.387 . S
C619 C621 1.390 . S
C619 H623 0.950 . S
H620 C616 0.950 . S
C621 C619 1.390 . S
C621 C622 1.387 . S
C621 H624 0.950 . S
C622 C621 1.387 . S
C622 C625 1.387 . S
H623 C619 0.950 . S
H624 C621 0.950 . S
C625 C616 1.390 . S
C625 H618 0.950 . S
C625 C622 1.387 . S
C626 C627 1.387 . S
C626 H630 0.950 . S
C626 C635 1.390 . S
C627 C626 1.387 . S
C627 C629 1.387 . S
H628 C635 0.950 . S
C629 C627 1.387 . S
C629 C631 1.390 . S
C629 H633 0.950 . S
H630 C626 0.950 . S
C631 C629 1.390 . S
C631 C632 1.387 . S
C631 H634 0.950 . S
C632 C631 1.387 . S
C632 C635 1.387 . S
H633 C629 0.950 . S
H634 C631 0.950 . S
C635 C626 1.390 . S
C635 H628 0.950 . S
C635 C632 1.387 . S
C636 C637 1.387 . S
C636 H640 0.950 . S
C636 C645 1.390 . S
C637 C636 1.387 . S
C637 C639 1.387 . S
H638 C645 0.950 . S
C639 C637 1.387 . S
C639 C641 1.390 . S
C639 H643 0.950 . S
H640 C636 0.950 . S
C641 C639 1.390 . S
C641 C642 1.387 . S
C641 H644 0.950 . S
C642 C641 1.387 . S
C642 C645 1.387 . S
H643 C639 0.950 . S
H644 C641 0.950 . S
C645 C636 1.390 . S
C645 H638 0.950 . S
C645 C642 1.387 . S
C646 C647 1.387 . S
C646 H650 0.950 . S
C646 C655 1.390 . S
C647 C646 1.387 . S
C647 C649 1.387 . S
H648 C655 0.950 . S
C649 C647 1.387 . S
C649 C651 1.390 . S
C649 H653 0.950 . S
H650 C646 0.950 . S
C651 C649 1.390 . S
C651 C652 1.387 . S
C651 H654 0.950 . S
C652 C651 1.387 . S
C652 C655 1.387 . S
H653 C649 0.950 . S
H654 C651 0.950 . S
C655 C646 1.390 . S
C655 H648 0.950 . S
C655 C652 1.387 . S
C656 C657 1.387 . S
C656 H660 0.950 . S
C656 C665 1.390 . S
C657 C656 1.387 . S
C657 C659 1.387 . S
H658 C665 0.950 . S
C659 C657 1.387 . S
C659 C661 1.390 . S
C659 H663 0.950 . S
H660 C656 0.950 . S
C661 C659 1.390 . S
C661 C662 1.387 . S
C661 H664 0.950 . S
C662 C661 1.387 . S
C662 C665 1.387 . S
H663 C659 0.950 . S
H664 C661 0.950 . S
C665 C656 1.390 . S
C665 H658 0.950 . S
C665 C662 1.387 . S
C666 C667 1.387 . S
C666 H670 0.950 . S
C666 C675 1.390 . S
C667 C666 1.387 . S
C667 C669 1.387 . S
H668 C675 0.950 . S
C669 C667 1.387 . S
C669 C671 1.390 . S
C669 H673 0.950 . S
H670 C666 0.950 . S
C671 C669 1.390 . S
C671 C672 1.387 . S
C671 H674 0.950 . S
C672 C671 1.387 . S
C672 C675 1.387 . S
H673 C669 0.950 . S
H674 C671 0.950 . S
C675 C666 1.390 . S
C675 H668 0.950 . S
C675 C672 1.387 . S
C676 C677 1.387 . S
C676 H680 0.950 . S
C676 C685 1.390 . S
C677 C676 1.387 . S
C677 C679 1.387 . S
H678 C685 0.950 . S
C679 C677 1.387 . S
C679 C681 1.390 . S
C679 H683 0.950 . S
H680 C676 0.950 . S
C681 C679 1.390 . S
C681 C682 1.387 . S
C681 H684 0.950 . S
C682 C681 1.387 . S
C682 C685 1.387 . S
H683 C679 0.950 . S
H684 C681 0.950 . S
C685 C676 1.390 . S
C685 H678 0.950 . S
C685 C682 1.387 . S
C686 C687 1.387 . S
C686 H690 0.950 . S
C686 C695 1.390 . S
C687 C686 1.387 . S
C687 C689 1.387 . S
H688 C695 0.950 . S
C689 C687 1.387 . S
C689 C691 1.390 . S
C689 H693 0.950 . S
H690 C686 0.950 . S
C691 C689 1.390 . S
C691 C692 1.387 . S
C691 H694 0.950 . S
C692 C691 1.387 . S
C692 C695 1.387 . S
H693 C689 0.950 . S
H694 C691 0.950 . S
C695 C686 1.390 . S
C695 H688 0.950 . S
C695 C692 1.387 . S
C696 C697 1.387 . S
C696 H700 0.950 . S
C696 C705 1.390 . S
C697 C696 1.387 . S
C697 C699 1.387 . S
H698 C705 0.950 . S
C699 C697 1.387 . S
C699 C701 1.390 . S
C699 H703 0.950 . S
H700 C696 0.950 . S
C701 C699 1.390 . S
C701 C702 1.387 . S
C701 H704 0.950 . S
C702 C701 1.387 . S
C702 C705 1.387 . S
H703 C699 0.950 . S
H704 C701 0.950 . S
C705 C696 1.390 . S
C705 H698 0.950 . S
C705 C702 1.387 . S
C706 C707 1.387 . S
C706 H710 0.950 . S
C706 C715 1.390 . S
C707 C706 1.387 . S
C707 C709 1.387 . S
H708 C715 0.950 . S
C709 C707 1.387 . S
C709 C711 1.390 . S
C709 H713 0.950 . S
H710 C706 0.950 . S
C711 C709 1.390 . S
C711 C712 1.387 . S
C711 H714 0.950 . S
C712 C711 1.387 . S
C712 C715 1.387 . S
H713 C709 0.950 . S
H714 C711 0.950 . S
C715 C706 1.390 . S
C715 H708 0.950 . S
C715 C712 1.387 . S
C716 C717 1.387 . S
C716 H720 0.950 . S
C716 C725 1.390 . S
C717 C716 1.387 . S
C717 C719 1.387 . S
H718 C725 0.950 . S
C719 C717 1.387 . S
C719 C721 1.390 . S
C719 H723 0.950 . S
H720 C716 0.950 . S
C721 C719 1.390 . S
C721 C722 1.387 . S
C721 H724 0.950 . S
C722 C721 1.387 . S
C722 C725 1.387 . S
H723 C719 0.950 . S
H724 C721 0.950 . S
C725 C716 1.390 . S
C725 H718 0.950 . S
C725 C722 1.387 . S
C726 C727 1.387 . S
C726 H730 0.950 . S
C726 C735 1.390 . S
C727 C726 1.387 . S
C727 C729 1.387 . S
H728 C735 0.950 . S
C729 C727 1.387 . S
C729 C731 1.390 . S
C729 H733 0.950 . S
H730 C726 0.950 . S
C731 C729 1.390 . S
C731 C732 1.387 . S
C731 H734 0.950 . S
C732 C731 1.387 . S
C732 C735 1.387 . S
H733 C729 0.950 . S
H734 C731 0.950 . S
C735 C726 1.390 . S
C735 H728 0.950 . S
C735 C732 1.387 . S
C736 C737 1.387 . S
C736 H740 0.950 . S
C736 C745 1.390 . S
C737 C736 1.387 . S
C737 C739 1.387 . S
H738 C745 0.950 . S
C739 C737 1.387 . S
C739 C741 1.390 . S
C739 H743 0.950 . S
H740 C736 0.950 . S
C741 C739 1.390 . S
C741 C742 1.387 . S
C741 H744 0.950 1_554 S
C742 C741 1.387 . S
C742 C745 1.387 . S
H743 C739 0.950 . S
H744 C741 0.950 1_556 S
C745 C736 1.390 . S
C745 H738 0.950 . S
C745 C742 1.387 . S
C746 C747 1.387 . S
C746 H750 0.950 . S
C746 C755 1.390 1_655 S
C747 C746 1.387 . S
C747 C749 1.387 . S
H748 C755 0.950 . S
C749 C747 1.387 . S
C749 C751 1.390 1_655 S
C749 H753 0.950 . S
H750 C746 0.950 . S
C751 C749 1.390 1_455 S
C751 C752 1.387 . S
C751 H754 0.950 . S
C752 C751 1.387 . S
C752 C755 1.387 . S
H753 C749 0.950 . S
H754 C751 0.950 . S
C755 C746 1.390 1_455 S
C755 H748 0.950 . S
C755 C752 1.387 . S
C756 C757 1.387 . S
C756 H760 0.950 . S
C756 C765 1.390 . S
C757 C756 1.387 . S
C757 C759 1.387 . S
H758 C765 0.950 . S
C759 C757 1.387 . S
C759 C761 1.390 . S
C759 H763 0.950 . S
H760 C756 0.950 . S
C761 C759 1.390 . S
C761 C762 1.387 . S
C761 H764 0.950 . S
C762 C761 1.387 . S
C762 C765 1.387 . S
H763 C759 0.950 . S
H764 C761 0.950 . S
C765 C756 1.390 . S
C765 H758 0.950 . S
C765 C762 1.387 . S
C766 C767 1.387 . S
C766 H770 0.950 . S
C766 C775 1.390 . S
C767 C766 1.387 . S
C767 C769 1.387 . S
H768 C775 0.950 . S
C769 C767 1.387 . S
C769 C771 1.390 . S
C769 H773 0.950 . S
H770 C766 0.950 . S
C771 C769 1.390 . S
C771 C772 1.387 . S
C771 H774 0.950 1_556 S
C772 C771 1.387 . S
C772 C775 1.387 . S
H773 C769 0.950 . S
H774 C771 0.950 1_554 S
C775 C766 1.390 . S
C775 H768 0.950 . S
C775 C772 1.387 . S
C776 C777 1.387 . S
C776 H780 0.950 . S
C776 C785 1.390 . S
C777 C776 1.387 . S
C777 C779 1.387 . S
H778 C785 0.950 . S
C779 C777 1.387 . S
C779 C781 1.390 . S
C779 H783 0.950 . S
H780 C776 0.950 . S
C781 C779 1.390 . S
C781 C782 1.387 . S
C781 H784 0.950 . S
C782 C781 1.387 . S
C782 C785 1.387 . S
H783 C779 0.950 . S
H784 C781 0.950 . S
C785 C776 1.390 . S
C785 H778 0.950 . S
C785 C782 1.387 . S
C786 C787 1.387 . S
C786 H790 0.950 . S
C786 C795 1.390 . S
C787 C786 1.387 . S
C787 C789 1.387 . S
H788 C795 0.950 . S
C789 C787 1.387 . S
C789 C791 1.390 . S
C789 H793 0.950 . S
H790 C786 0.950 . S
C791 C789 1.390 . S
C791 C792 1.387 . S
C791 H794 0.950 . S
C792 C791 1.387 . S
C792 C795 1.387 . S
H793 C789 0.950 . S
H794 C791 0.950 . S
C795 C786 1.390 . S
C795 H788 0.950 . S
C795 C792 1.387 . S
C796 C797 1.387 . S
C796 H800 0.950 . S
C796 C805 1.390 . S
C797 C796 1.387 . S
C797 C799 1.387 . S
H798 C805 0.950 . S
C799 C797 1.387 . S
C799 C801 1.390 . S
C799 H803 0.950 . S
H800 C796 0.950 . S
C801 C799 1.390 . S
C801 C802 1.387 . S
C801 H804 0.950 . S
C802 C801 1.387 . S
C802 C805 1.387 . S
H803 C799 0.950 . S
H804 C801 0.950 . S
C805 C796 1.390 . S
C805 H798 0.950 . S
C805 C802 1.387 . S
C806 C807 1.387 1_655 S
C806 H810 0.950 1_654 S
C806 C815 1.390 . S
C807 C806 1.387 1_455 S
C807 C809 1.387 . S
H808 C815 0.950 . S
C809 C807 1.387 . S
C809 C811 1.390 1_455 S
C809 H813 0.950 . S
H810 C806 0.950 1_456 S
C811 C809 1.390 1_655 S
C811 C812 1.387 . S
C811 H814 0.950 . S
C812 C811 1.387 . S
C812 C815 1.387 . S
H813 C809 0.950 . S
H814 C811 0.950 . S
C815 C806 1.390 . S
C815 H808 0.950 . S
C815 C812 1.387 . S
C816 C817 1.387 . S
C816 H820 0.950 . S
C816 C825 1.390 . S
C817 C816 1.387 . S
C817 C819 1.387 . S
H818 C825 0.950 . S
C819 C817 1.387 . S
C819 C821 1.390 . S
C819 H823 0.950 . S
H820 C816 0.950 . S
C821 C819 1.390 . S
C821 C822 1.387 . S
C821 H824 0.950 1_556 S
C822 C821 1.387 . S
C822 C825 1.387 . S
H823 C819 0.950 . S
H824 C821 0.950 1_554 S
C825 C816 1.390 . S
C825 H818 0.950 . S
C825 C822 1.387 . S
C826 C827 1.387 . S
C826 H830 0.950 . S
C826 C835 1.390 1_455 S
C827 C826 1.387 . S
C827 C829 1.387 . S
H828 C835 0.950 . S
C829 C827 1.387 . S
C829 C831 1.390 1_455 S
C829 H833 0.950 . S
H830 C826 0.950 . S
C831 C829 1.390 1_655 S
C831 C832 1.387 . S
C831 H834 0.950 . S
C832 C831 1.387 . S
C832 C835 1.387 . S
H833 C829 0.950 . S
H834 C831 0.950 . S
C835 C826 1.390 1_655 S
C835 H828 0.950 . S
C835 C832 1.387 . S
C836 C837 1.387 . S
C836 H840 0.950 . S
C836 C845 1.390 . S
C837 C836 1.387 . S
C837 C839 1.387 . S
H838 C845 0.950 . S
C839 C837 1.387 . S
C839 C841 1.390 . S
C839 H843 0.950 . S
H840 C836 0.950 . S
C841 C839 1.390 . S
C841 C842 1.387 . S
C841 H844 0.950 . S
C842 C841 1.387 . S
C842 C845 1.387 . S
H843 C839 0.950 . S
H844 C841 0.950 . S
C845 C836 1.390 . S
C845 H838 0.950 . S
C845 C842 1.387 . S
C846 C847 1.387 . S
C846 H850 0.950 . S
C846 C855 1.390 . S
C847 C846 1.387 . S
C847 C849 1.387 . S
H848 C855 0.950 . S
C849 C847 1.387 . S
C849 C851 1.390 . S
C849 H853 0.950 . S
H850 C846 0.950 . S
C851 C849 1.390 . S
C851 C852 1.387 . S
C851 H854 0.950 . S
C852 C851 1.387 . S
C852 C855 1.387 . S
H853 C849 0.950 . S
H854 C851 0.950 . S
C855 C846 1.390 . S
C855 H848 0.950 . S
C855 C852 1.387 . S
C856 C857 1.387 . S
C856 H860 0.950 . S
C856 C865 1.390 . S
C857 C856 1.387 . S
C857 C859 1.387 . S
H858 C865 0.950 . S
C859 C857 1.387 . S
C859 C861 1.390 . S
C859 H863 0.950 . S
H860 C856 0.950 . S
C861 C859 1.390 . S
C861 C862 1.387 . S
C861 H864 0.950 . S
C862 C861 1.387 . S
C862 C865 1.387 . S
H863 C859 0.950 . S
H864 C861 0.950 . S
C865 C856 1.390 . S
C865 H858 0.950 . S
C865 C862 1.387 . S
C866 C867 1.387 . S
C866 H870 0.950 . S
C866 C875 1.390 . S
C867 C866 1.387 . S
C867 C869 1.387 . S
H868 C875 0.950 . S
C869 C867 1.387 . S
C869 C871 1.390 . S
C869 H873 0.950 . S
H870 C866 0.950 . S
C871 C869 1.390 . S
C871 C872 1.387 . S
C871 H874 0.950 . S
C872 C871 1.387 . S
C872 C875 1.387 . S
H873 C869 0.950 . S
H874 C871 0.950 . S
C875 C866 1.390 . S
C875 H868 0.950 . S
C875 C872 1.387 . S
C876 C877 1.387 . S
C876 H880 0.950 . S
C876 C885 1.390 . S
C877 C876 1.387 . S
C877 C879 1.387 . S
H878 C885 0.950 1_556 S
C879 C877 1.387 . S
C879 C881 1.390 . S
C879 H883 0.950 . S
H880 C876 0.950 . S
C881 C879 1.390 . S
C881 C882 1.387 . S
C881 H884 0.950 . S
C882 C881 1.387 . S
C882 C885 1.387 . S
H883 C879 0.950 . S
H884 C881 0.950 . S
C885 C876 1.390 . S
C885 H878 0.950 1_554 S
C885 C882 1.387 . S
C886 C887 1.387 . S
C886 H890 0.950 . S
C886 C895 1.390 1_455 S
C887 C886 1.387 . S
C887 C889 1.387 . S
H888 C895 0.950 . S
C889 C887 1.387 . S
C889 C891 1.390 1_455 S
C889 H893 0.950 . S
H890 C886 0.950 . S
C891 C889 1.390 1_655 S
C891 C892 1.387 . S
C891 H894 0.957 . S
C892 C891 1.387 . S
C892 C895 1.387 . S
H893 C889 0.950 . S
H894 C891 0.957 . S
C895 C886 1.390 1_655 S
C895 H888 0.950 . S
C895 C892 1.387 . S
C896 C897 1.387 . S
C896 H900 0.950 . S
C896 C905 1.390 . S
C897 C896 1.387 . S
C897 C899 1.387 . S
H898 C905 0.950 . S
C899 C897 1.387 . S
C899 C901 1.390 . S
C899 H903 0.950 . S
H900 C896 0.950 . S
C901 C899 1.390 . S
C901 C902 1.387 . S
C901 H904 0.950 . S
C902 C901 1.387 . S
C902 C905 1.387 . S
H903 C899 0.950 . S
H904 C901 0.950 . S
C905 C896 1.390 . S
C905 H898 0.950 . S
C905 C902 1.387 . S
C906 C907 1.387 . S
C906 H910 0.950 . S
C906 C915 1.390 . S
C907 C906 1.387 . S
C907 C909 1.387 . S
H908 C915 0.950 1_554 S
C909 C907 1.387 . S
C909 C911 1.390 . S
C909 H913 0.950 . S
H910 C906 0.950 . S
C911 C909 1.390 . S
C911 C912 1.387 . S
C911 H914 0.950 . S
C912 C911 1.387 . S
C912 C915 1.387 . S
H913 C909 0.950 . S
H914 C911 0.950 . S
C915 C906 1.390 . S
C915 H908 0.950 1_556 S
C915 C912 1.387 . S
C916 C917 1.387 . S
C916 H920 0.950 . S
C916 C925 1.390 . S
C917 C916 1.387 . S
C917 C919 1.387 . S
H918 C925 0.950 . S
C919 C917 1.387 . S
C919 C921 1.390 . S
C919 H923 0.950 . S
H920 C916 0.950 . S
C921 C919 1.390 . S
C921 C922 1.387 . S
C921 H924 0.950 . S
C922 C921 1.387 . S
C922 C925 1.387 . S
H923 C919 0.950 . S
H924 C921 0.950 . S
C925 C916 1.390 . S
C925 H918 0.950 . S
C925 C922 1.387 . S
C926 C927 1.387 . S
C926 H930 0.950 . S
C926 C935 1.390 1_655 S
C927 C926 1.387 . S
C927 C929 1.387 . S
H928 C935 0.950 . S
C929 C927 1.387 . S
C929 C931 1.390 1_655 S
C929 H933 0.950 . S
H930 C926 0.950 . S
C931 C929 1.390 1_455 S
C931 C932 1.387 . S
C931 H934 0.950 . S
C932 C931 1.387 . S
C932 C935 1.387 . S
H933 C929 0.950 . S
H934 C931 0.950 . S
C935 C926 1.390 1_455 S
C935 H928 0.950 . S
C935 C932 1.387 . S
C936 C937 1.387 . S
C936 H940 0.950 . S
C936 C945 1.390 . S
C937 C936 1.387 . S
C937 C939 1.387 . S
H938 C945 0.950 1_554 S
C939 C937 1.387 . S
C939 C941 1.390 . S
C939 H943 0.950 . S
H940 C936 0.950 . S
C941 C939 1.390 . S
C941 C942 1.387 . S
C941 H944 0.950 . S
C942 C941 1.387 . S
C942 C945 1.387 . S
H943 C939 0.950 . S
H944 C941 0.950 . S
C945 C936 1.390 . S
C945 H938 0.950 1_556 S
C945 C942 1.387 . S
C946 C947 1.387 . S
C946 H950 0.950 . S
C946 C955 1.390 1_655 S
C947 C946 1.387 . S
C947 C949 1.387 . S
H948 C955 0.950 . S
C949 C947 1.387 . S
C949 C951 1.390 1_655 S
C949 H953 0.950 1_554 S
H950 C946 0.950 . S
C951 C949 1.390 1_455 S
C951 C952 1.387 . S
C951 H954 0.950 . S
C952 C951 1.387 . S
C952 C955 1.387 . S
H953 C949 0.950 1_556 S
H954 C951 0.950 . S
C955 C946 1.390 1_455 S
C955 H948 0.950 . S
C955 C952 1.387 . S
C956 C957 1.387 . S
C956 H960 0.950 . S
C956 C965 1.390 . S
C957 C956 1.387 . S
C957 C959 1.387 . S
H958 C965 0.950 . S
C959 C957 1.387 . S
C959 C961 1.390 . S
C959 H963 0.950 . S
H960 C956 0.950 . S
C961 C959 1.390 . S
C961 C962 1.387 . S
C961 H964 0.950 . S
C962 C961 1.387 . S
C962 C965 1.387 . S
H963 C959 0.950 . S
H964 C961 0.950 . S
C965 C956 1.390 . S
C965 H958 0.950 . S
C965 C962 1.387 . S
C966 C967 1.387 . S
C966 H970 0.950 . S
C966 C975 1.390 . S
C967 C966 1.387 . S
C967 C969 1.387 . S
H968 C975 0.950 . S
C969 C967 1.387 . S
C969 C971 1.390 . S
C969 H973 0.950 . S
H970 C966 0.950 . S
C971 C969 1.390 . S
C971 C972 1.387 . S
C971 H974 0.950 . S
C972 C971 1.387 . S
C972 C975 1.387 . S
H973 C969 0.950 . S
H974 C971 0.950 . S
C975 C966 1.390 . S
C975 H968 0.950 . S
C975 C972 1.387 . S
C976 C977 1.387 . S
C976 H980 0.950 . S
C976 C985 1.390 . S
C977 C976 1.387 . S
C977 C979 1.387 . S
H978 C985 0.950 . S
C979 C977 1.387 . S
C979 C981 1.390 . S
C979 H983 0.950 . S
H980 C976 0.950 . S
C981 C979 1.390 . S
C981 C982 1.387 . S
C981 H984 0.950 . S
C982 C981 1.387 . S
C982 C985 1.387 . S
H983 C979 0.950 . S
H984 C981 0.950 . S
C985 C976 1.390 . S
C985 H978 0.950 . S
C985 C982 1.387 . S
C986 C987 1.387 . S
C986 H990 0.950 . S
C986 C995 1.390 . S
C987 C986 1.387 . S
C987 C989 1.387 . S
H988 C995 0.950 . S
C989 C987 1.387 . S
C989 C991 1.390 . S
C989 H993 0.950 . S
H990 C986 0.950 . S
C991 C989 1.390 . S
C991 C992 1.387 . S
C991 H994 0.950 . S
C992 C991 1.387 . S
C992 C995 1.387 . S
H993 C989 0.950 . S
H994 C991 0.950 . S
C995 C986 1.390 . S
C995 H988 0.950 . S
C995 C992 1.387 . S
C996 C997 1.387 . S
C996 H1000 0.950 . S
C996 C1005 1.390 . S
C997 C996 1.387 . S
C997 C999 1.387 . S
H998 C1005 0.950 . S
C999 C997 1.387 . S
C999 C1001 1.390 . S
C999 H1003 0.950 . S
H1000 C996 0.950 . S
C1001 C999 1.390 . S
C1001 C1002 1.387 . S
C1001 H1004 0.950 . S
C1002 C1001 1.387 . S
C1002 C1005 1.387 . S
H1003 C999 0.950 . S
H1004 C1001 0.950 . S
C1005 C996 1.390 . S
C1005 H998 0.950 . S
C1005 C1002 1.387 . S
C1006 C1007 1.387 . S
C1006 H1010 0.950 . S
C1006 C1015 1.390 1_455 S
C1007 C1006 1.387 . S
C1007 C1009 1.387 . S
H1008 C1015 0.950 . S
C1009 C1007 1.387 . S
C1009 C1011 1.390 1_455 S
C1009 H1013 0.950 . S
H1010 C1006 0.950 . S
C1011 C1009 1.390 1_655 S
C1011 C1012 1.387 . S
C1011 H1014 0.950 . S
C1012 C1011 1.387 . S
C1012 C1015 1.387 . S
H1013 C1009 0.950 . S
H1014 C1011 0.950 . S
C1015 C1006 1.390 1_655 S
C1015 H1008 0.950 . S
C1015 C1012 1.387 . S
C1016 C1017 1.387 . S
C1016 H1020 0.950 . S
C1016 C1025 1.390 . S
C1017 C1016 1.387 . S
C1017 C1019 1.387 . S
H1018 C1025 0.950 1_556 S
C1019 C1017 1.387 . S
C1019 C1021 1.390 . S
C1019 H1023 0.950 . S
H1020 C1016 0.950 . S
C1021 C1019 1.390 . S
C1021 C1022 1.387 . S
C1021 H1024 0.950 . S
C1022 C1021 1.387 . S
C1022 C1025 1.387 . S
H1023 C1019 0.950 . S
H1024 C1021 0.950 . S
C1025 C1016 1.390 . S
C1025 H1018 0.950 1_554 S
C1025 C1022 1.387 . S
C1026 C1027 1.387 . S
C1026 H1030 0.950 . S
C1026 C1035 1.390 1_655 S
C1027 C1026 1.387 . S
C1027 C1029 1.387 . S
H1028 C1035 0.950 1_554 S
C1029 C1027 1.387 . S
C1029 C1031 1.390 1_655 S
C1029 H1033 0.950 . S
H1030 C1026 0.950 . S
C1031 C1029 1.390 1_455 S
C1031 C1032 1.387 . S
C1031 H1034 0.950 . S
C1032 C1031 1.387 . S
C1032 C1035 1.387 . S
H1033 C1029 0.950 . S
H1034 C1031 0.950 . S
C1035 C1026 1.390 1_455 S
C1035 H1028 0.950 1_556 S
C1035 C1032 1.387 . S
C1036 C1037 1.387 . S
C1036 H1040 0.950 . S
C1036 C1045 1.390 . S
C1037 C1036 1.387 . S
C1037 C1039 1.387 . S
H1038 C1045 0.950 . S
C1039 C1037 1.387 . S
C1039 C1041 1.390 . S
C1039 H1043 0.950 . S
H1040 C1036 0.950 . S
C1041 C1039 1.390 . S
C1041 C1042 1.387 . S
C1041 H1044 0.950 . S
C1042 C1041 1.387 . S
C1042 C1045 1.387 . S
H1043 C1039 0.950 . S
H1044 C1041 0.950 . S
C1045 C1036 1.390 . S
C1045 H1038 0.950 . S
C1045 C1042 1.387 . S
C1046 C1047 1.387 . S
C1046 H1050 0.950 . S
C1046 C1055 1.390 . S
C1047 C1046 1.387 . S
C1047 C1049 1.387 . S
H1048 C1055 0.950 . S
C1049 C1047 1.387 . S
C1049 C1051 1.390 . S
C1049 H1053 0.950 . S
H1050 C1046 0.950 . S
C1051 C1049 1.390 . S
C1051 C1052 1.387 . S
C1051 H1054 0.950 . S
C1052 C1051 1.387 . S
C1052 C1055 1.387 . S
H1053 C1049 0.950 . S
H1054 C1051 0.950 . S
C1055 C1046 1.390 . S
C1055 H1048 0.950 . S
C1055 C1052 1.387 . S
C417 C88 1.368 . S
C422 C10 1.368 . S
C427 C23 1.368 . S
C432 C101 1.368 . S
C437 C62 1.368 . S
C442 C36 1.368 . S
C447 C49 1.368 . S
C452 C75 1.368 . S
C457 C192 1.368 . S
C462 C114 1.368 . S
C467 C127 1.368 . S
C472 C205 1.368 . S
C477 C166 1.368 . S
C482 C140 1.368 . S
C487 C153 1.368 . S
C492 C179 1.368 . S
C497 C218 1.368 . S
C502 C296 1.368 . S
C507 C309 1.368 . S
C512 C231 1.368 . S
C517 C244 1.368 . S
C522 C270 1.368 . S
C527 C283 1.368 . S
C532 C257 1.368 . S
C537 C400 1.368 . S
C542 C322 1.368 . S
C547 C413 1.368 . S
C552 C335 1.368 . S
C557 C374 1.368 . S
C562 C348 1.368 . S
C567 C361 1.368 . S
C572 C387 1.368 . S
C577 C91 1.574 1_554 S
C582 C0 1.574 . S
C587 C52 1.577 . S
C592 C13 1.575 . S
C597 C65 1.577 . S
C602 C26 1.578 . S
C607 C78 1.574 . S
C612 C39 1.575 1_556 S
C617 C195 1.575 1_556 S
C622 C104 1.574 . S
C627 C156 1.578 . S
C632 C117 1.577 . S
C637 C169 1.575 . S
C642 C130 1.574 . S
C647 C143 1.577 1_554 S
C652 C182 1.578 . S
C657 C299 1.577 . S
C662 C208 1.578 . S
C667 C221 1.577 1_556 S
C672 C260 1.578 . S
C677 C234 1.574 . S
C682 C273 1.575 1_554 S
C687 C286 1.578 . S
C692 C247 1.578 . S
C697 C403 1.577 . S
C702 C312 1.578 . S
C707 C325 1.575 1_554 S
C712 C364 1.574 . S
C717 C338 1.574 . S
C722 C377 1.575 1_556 S
C727 C390 1.578 . S
C732 C351 1.578 . S
C737 C8 1.218 . S
C742 C395 1.138 . S
C747 C200 1.137 . S
C752 C21 1.218 . S
C757 C369 1.142 . S
C762 C34 1.220 . S
C767 C174 1.139 . S
C772 C47 1.216 . S
C777 C343 1.142 . S
C782 C60 1.219 . S
C787 C73 1.219 . S
C792 C148 1.138 . S
C797 C86 1.216 . S
C802 C317 1.139 . S
C807 C99 1.216 . S
C812 C122 1.135 . S
C817 C112 1.219 . S
C822 C291 1.142 . S
C827 C96 1.137 . S
C832 C125 1.215 . S
C837 C265 1.142 . S
C842 C138 1.220 . S
C847 C70 1.138 . S
C852 C151 1.215 . S
C857 C239 1.141 . S
C862 C164 1.217 . S
C867 C44 1.139 . S
C872 C177 1.216 . S
C877 C190 1.216 . S
C882 C213 1.136 . S
C887 C18 1.139 . S
C892 C203 1.219 . S
C897 C187 1.142 . S
C902 C216 1.220 . S
C907 C408 1.138 . S
C912 C229 1.219 . S
C917 C242 1.215 . S
C922 C161 1.136 . S
C927 C255 1.218 . S
C932 C382 1.137 . S
C937 C268 1.218 . S
C942 C135 1.141 . S
C947 C281 1.216 . S
C952 C356 1.139 . S
C957 C294 1.215 . S
C962 C109 1.135 . S
C967 C307 1.216 . S
C972 C330 1.139 . S
C977 C83 1.140 . S
C982 C320 1.216 . S
C987 C304 1.140 . S
C992 C333 1.220 . S
C997 C57 1.138 . S
C1002 C346 1.215 . S
C1007 C359 1.215 . S
C1012 C278 1.137 . S
C1017 C372 1.218 . S
C1022 C31 1.137 . S
C1027 C252 1.139 . S
C1032 C385 1.216 . S
C1037 C398 1.214 . S
C1042 C5 1.135 . S
C1047 C411 1.216 . S
C1052 C226 1.140 . S
