# Generated by pormake.
# Topology whj, (6)-cn, num edge types: 1
# Building blocks:
#     Node 0, Type 0, BuildingBlock: IZENUY_clean_sbu_0, # of connection points: 6
#     Node 1, Type 0, BuildingBlock: IZENUY_clean_sbu_0, # of connection points: 6
#     Node 2, Type 0, BuildingBlock: IZENUY_clean_sbu_0, # of connection points: 6
#     Node 3, Type 0, BuildingBlock: IZENUY_clean_sbu_0, # of connection points: 6
#     Node 4, Type 0, BuildingBlock: IZENUY_clean_sbu_0, # of connection points: 6
#     Node 5, Type 0, BuildingBlock: IZENUY_clean_sbu_0, # of connection points: 6
#     Node 6, Type 0, BuildingBlock: IZENUY_clean_sbu_0, # of connection points: 6
#     Node 7, Type 0, BuildingBlock: IZENUY_clean_sbu_0, # of connection points: 6
#     Node 8, Type 0, BuildingBlock: IZENUY_clean_sbu_0, # of connection points: 6
#     Node 9, Type 0, BuildingBlock: IZENUY_clean_sbu_0, # of connection points: 6
#     Node 10, Type 0, BuildingBlock: IZENUY_clean_sbu_0, # of connection points: 6
#     Node 11, Type 0, BuildingBlock: IZENUY_clean_sbu_0, # of connection points: 6
#     Node 12, Type 0, BuildingBlock: IZENUY_clean_sbu_0, # of connection points: 6
#     Node 13, Type 0, BuildingBlock: IZENUY_clean_sbu_0, # of connection points: 6
#     Node 14, Type 0, BuildingBlock: IZENUY_clean_sbu_0, # of connection points: 6
#     Node 15, Type 0, BuildingBlock: IZENUY_clean_sbu_0, # of connection points: 6
#     Edge 16, Type (0, 0), BuildingBlock: UVAHIK_clean_linker_0, # of connection points: 2
#     Edge 17, Type (0, 0), BuildingBlock: UVAHIK_clean_linker_0, # of connection points: 2
#     Edge 18, Type (0, 0), BuildingBlock: UVAHIK_clean_linker_0, # of connection points: 2
#     Edge 19, Type (0, 0), BuildingBlock: UVAHIK_clean_linker_0, # of connection points: 2
#     Edge 20, Type (0, 0), BuildingBlock: UVAHIK_clean_linker_0, # of connection points: 2
#     Edge 21, Type (0, 0), BuildingBlock: UVAHIK_clean_linker_0, # of connection points: 2
#     Edge 22, Type (0, 0), BuildingBlock: UVAHIK_clean_linker_0, # of connection points: 2
#     Edge 23, Type (0, 0), BuildingBlock: UVAHIK_clean_linker_0, # of connection points: 2
#     Edge 24, Type (0, 0), BuildingBlock: UVAHIK_clean_linker_0, # of connection points: 2
#     Edge 25, Type (0, 0), BuildingBlock: UVAHIK_clean_linker_0, # of connection points: 2
#     Edge 26, Type (0, 0), BuildingBlock: UVAHIK_clean_linker_0, # of connection points: 2
#     Edge 27, Type (0, 0), BuildingBlock: UVAHIK_clean_linker_0, # of connection points: 2
#     Edge 28, Type (0, 0), BuildingBlock: UVAHIK_clean_linker_0, # of connection points: 2
#     Edge 29, Type (0, 0), BuildingBlock: UVAHIK_clean_linker_0, # of connection points: 2
#     Edge 30, Type (0, 0), BuildingBlock: UVAHIK_clean_linker_0, # of connection points: 2
#     Edge 31, Type (0, 0), BuildingBlock: UVAHIK_clean_linker_0, # of connection points: 2
#     Edge 32, Type (0, 0), BuildingBlock: UVAHIK_clean_linker_0, # of connection points: 2
#     Edge 33, Type (0, 0), BuildingBlock: UVAHIK_clean_linker_0, # of connection points: 2
#     Edge 34, Type (0, 0), BuildingBlock: UVAHIK_clean_linker_0, # of connection points: 2
#     Edge 35, Type (0, 0), BuildingBlock: UVAHIK_clean_linker_0, # of connection points: 2
#     Edge 36, Type (0, 0), BuildingBlock: UVAHIK_clean_linker_0, # of connection points: 2
#     Edge 37, Type (0, 0), BuildingBlock: UVAHIK_clean_linker_0, # of connection points: 2
#     Edge 38, Type (0, 0), BuildingBlock: UVAHIK_clean_linker_0, # of connection points: 2
#     Edge 39, Type (0, 0), BuildingBlock: UVAHIK_clean_linker_0, # of connection points: 2
#     Edge 40, Type (0, 0), BuildingBlock: UVAHIK_clean_linker_0, # of connection points: 2
#     Edge 41, Type (0, 0), BuildingBlock: UVAHIK_clean_linker_0, # of connection points: 2
#     Edge 42, Type (0, 0), BuildingBlock: UVAHIK_clean_linker_0, # of connection points: 2
#     Edge 43, Type (0, 0), BuildingBlock: UVAHIK_clean_linker_0, # of connection points: 2
#     Edge 44, Type (0, 0), BuildingBlock: UVAHIK_clean_linker_0, # of connection points: 2
#     Edge 45, Type (0, 0), BuildingBlock: UVAHIK_clean_linker_0, # of connection points: 2
#     Edge 46, Type (0, 0), BuildingBlock: UVAHIK_clean_linker_0, # of connection points: 2
#     Edge 47, Type (0, 0), BuildingBlock: UVAHIK_clean_linker_0, # of connection points: 2
#     Edge 48, Type (0, 0), BuildingBlock: UVAHIK_clean_linker_0, # of connection points: 2
#     Edge 49, Type (0, 0), BuildingBlock: UVAHIK_clean_linker_0, # of connection points: 2
#     Edge 50, Type (0, 0), BuildingBlock: UVAHIK_clean_linker_0, # of connection points: 2
#     Edge 51, Type (0, 0), BuildingBlock: UVAHIK_clean_linker_0, # of connection points: 2
#     Edge 52, Type (0, 0), BuildingBlock: UVAHIK_clean_linker_0, # of connection points: 2
#     Edge 53, Type (0, 0), BuildingBlock: UVAHIK_clean_linker_0, # of connection points: 2
#     Edge 54, Type (0, 0), BuildingBlock: UVAHIK_clean_linker_0, # of connection points: 2
#     Edge 55, Type (0, 0), BuildingBlock: UVAHIK_clean_linker_0, # of connection points: 2
#     Edge 56, Type (0, 0), BuildingBlock: UVAHIK_clean_linker_0, # of connection points: 2
#     Edge 57, Type (0, 0), BuildingBlock: UVAHIK_clean_linker_0, # of connection points: 2
#     Edge 58, Type (0, 0), BuildingBlock: UVAHIK_clean_linker_0, # of connection points: 2
#     Edge 59, Type (0, 0), BuildingBlock: UVAHIK_clean_linker_0, # of connection points: 2
#     Edge 60, Type (0, 0), BuildingBlock: UVAHIK_clean_linker_0, # of connection points: 2
#     Edge 61, Type (0, 0), BuildingBlock: UVAHIK_clean_linker_0, # of connection points: 2
#     Edge 62, Type (0, 0), BuildingBlock: UVAHIK_clean_linker_0, # of connection points: 2
#     Edge 63, Type (0, 0), BuildingBlock: UVAHIK_clean_linker_0, # of connection points: 2
# Relax obj value: 0.270
# Max RMSD: 0.261
# Mean RMSD: 0.260
data_MOF--net-whj--node1-IZENUY_clean_sbu_0--edge1-UVAHIK_clean_linker_0
_symmetry_space_group_name_H-M    P1
_symmetry_Int_Tables_number       1
_symmetry_cell_setting            triclinic
loop_
_symmetry_equiv_pos_as_xyz
'x, y, z'
_cell_length_a     47.561048
_cell_length_b     47.626491
_cell_length_c     60.400493
_cell_angle_alpha  90.023755
_cell_angle_beta   90.016118
_cell_angle_gamma 89.991735
loop_
_atom_site_label
_atom_site_type_symbol
_atom_site_fract_x
_atom_site_fract_y
_atom_site_fract_z
_atom_type_partial_charge
Fe0 Fe 0.68232 1.00472 0.08522 0.0
Fe1 Fe 0.63385 0.03428 0.1088 0.0
O2 O 0.66975 0.03348 0.10095 0.0
Fe3 Fe 0.69238 0.06168 0.10833 0.0
O4 O 0.7015 0.06854 0.07977 0.0
O5 O 0.70822 0.02501 0.06912 0.0
O6 O 0.65723 0.01145 0.06296 0.0
C7 C 0.63104 0.01143 0.06609 0.0
C8 C 0.72645 0.01242 0.11377 0.0
O9 O 0.62106 0.01399 0.08529 0.0
C10 C 0.6606 0.05846 0.146 0.0
O11 O 0.65895 0.979 0.09879 0.0
O12 O 0.63756 1.00267 0.12527 0.0
O13 O 0.7237 0.03896 0.1124 0.0
O14 O 0.70796 0.99612 0.10612 0.0
C15 C 0.64231 0.08779 0.09354 0.0
O16 O 0.63927 0.05487 0.13391 0.0
O17 O 0.68499 0.05763 0.1378 0.0
C18 C 0.64539 0.97959 0.11694 0.0
O19 O 0.62833 0.06534 0.09233 0.0
O20 O 0.66491 0.08894 0.10481 0.0
C21 C 0.71098 0.05115 0.06598 0.0
Fe22 Fe 0.44604 0.69183 0.10679 0.0
Fe23 Fe 0.50259 0.67911 0.08386 0.0
O24 O 0.47274 0.66755 0.099 0.0
Fe25 Fe 0.46962 0.63142 0.1058 0.0
O26 O 0.43736 0.62848 0.09027 0.0
O27 O 0.41675 0.66704 0.1023 0.0
O28 O 0.44036 0.70272 0.07839 0.0
C29 C 0.45879 0.71211 0.06544 0.0
C30 C 0.44705 0.65833 0.14379 0.0
O31 O 0.48457 0.70776 0.06918 0.0
C32 C 0.52558 0.63847 0.11332 0.0
O33 O 0.4711 0.7209 0.11215 0.0
O34 O 0.51284 0.70218 0.10609 0.0
O35 O 0.45068 0.63711 0.1316 0.0
O36 O 0.44873 0.68287 0.13604 0.0
C37 C 0.49016 0.63042 0.06235 0.0
O38 O 0.52668 0.65296 0.09574 0.0
O39 O 0.50218 0.63166 0.12161 0.0
C40 C 0.49774 0.72135 0.11425 0.0
O41 O 0.494 0.6565 0.06051 0.0
O42 O 0.48758 0.61898 0.08107 0.0
C43 C 0.41596 0.64395 0.09179 0.0
Fe44 Fe 0.82206 0.44786 0.11044 0.0
Fe45 Fe 0.83317 0.50544 0.08837 0.0
O46 O 0.84533 0.47553 0.10297 0.0
Fe47 Fe 0.88149 0.47301 0.10955 0.0
O48 O 0.8848 0.44243 0.09211 0.0
O49 O 0.84816 0.41962 0.10536 0.0
O50 O 0.81116 0.44256 0.08201 0.0
C51 C 0.80186 0.46093 0.06895 0.0
C52 C 0.85608 0.44734 0.1468 0.0
O53 O 0.80577 0.48679 0.07269 0.0
C54 C 0.87259 0.52788 0.11946 0.0
O55 O 0.79196 0.47155 0.11605 0.0
O56 O 0.80883 0.51408 0.11026 0.0
O57 O 0.87665 0.45145 0.13406 0.0
O58 O 0.83125 0.45033 0.1398 0.0
C59 C 0.88303 0.49613 0.06731 0.0
O60 O 0.85821 0.52963 0.10175 0.0
O61 O 0.87997 0.50416 0.12697 0.0
C62 C 0.79001 0.49811 0.1179 0.0
O63 O 0.85681 0.49874 0.06507 0.0
O64 O 0.89373 0.49359 0.08623 0.0
C65 C 0.87016 0.42042 0.09341 0.0
Fe66 Fe 0.01321 0.82999 0.08467 0.0
Fe67 Fe 0.05014 0.87351 0.10819 0.0
O68 O 0.04355 0.8383 0.10038 0.0
Fe69 Fe 0.06782 0.81162 0.10797 0.0
O70 O 0.06199 0.79005 0.08319 0.0
O71 O 0.0342 0.81562 0.06223 0.0
O72 O 0.01251 0.86336 0.06926 0.0
C73 C 0.03124 0.88188 0.06618 0.0
C74 C 0.0179 0.78451 0.11515 0.0
O75 O 0.05113 0.88483 0.07972 0.0
C76 C 0.06684 0.84747 0.14589 0.0
O77 O 0.98984 0.84386 0.10585 0.0
O78 O 0.01285 0.88328 0.11094 0.0
O79 O 0.04106 0.79243 0.12341 0.0
O80 O 0.00858 0.79534 0.09741 0.0
C81 C 0.10323 0.85395 0.09487 0.0
O82 O 0.04969 0.86439 0.13722 0.0
O83 O 0.07856 0.82864 0.1342 0.0
C84 C 0.99057 0.86889 0.11272 0.0
O85 O 0.08864 0.87056 0.10653 0.0
O86 O 0.09571 0.82875 0.09249 0.0
C87 C 0.0524 0.79653 0.06431 0.0
Fe88 Fe 0.1778 1.00021 0.41878 0.0
Fe89 Fe 0.13235 0.96848 0.39288 0.0
O90 O 0.16782 0.97139 0.40179 0.0
Fe91 Fe 0.19284 0.9453 0.39421 0.0
O92 O 0.20123 0.93765 0.42283 0.0
O93 O 0.20465 0.98103 0.43466 0.0
O94 O 0.15268 0.99044 0.44025 0.0
C95 C 0.12682 0.98671 0.43668 0.0
C96 C 0.22336 0.99712 0.39112 0.0
O97 O 0.1174 0.98519 0.41723 0.0
C98 C 0.1626 0.94881 0.3556 0.0
O99 O 0.15301 0.02496 0.40594 0.0
O100 O 0.13388 1.00176 0.37821 0.0
O101 O 0.22237 0.97043 0.39171 0.0
O102 O 0.20348 0.0118 0.39871 0.0
C103 C 0.14407 0.91437 0.40576 0.0
O104 O 0.1404 0.95087 0.3669 0.0
O105 O 0.18646 0.95021 0.36468 0.0
C106 C 0.14002 0.02469 0.38759 0.0
O107 O 0.12832 0.93555 0.40729 0.0
O108 O 0.16769 0.91584 0.396 0.0
C109 C 0.20902 0.95504 0.43726 0.0
Fe110 Fe 0.51199 0.17935 0.41839 0.0
Fe111 Fe 0.54782 0.13568 0.39395 0.0
O112 O 0.54157 0.17094 0.40184 0.0
Fe113 Fe 0.5654 0.19769 0.39353 0.0
O114 O 0.56052 0.21929 0.41839 0.0
O115 O 0.53407 0.19356 0.44028 0.0
O116 O 0.5116 0.14592 0.43376 0.0
C117 C 0.53021 0.12716 0.43631 0.0
C118 C 0.51523 0.22472 0.38774 0.0
O119 O 0.54963 0.12426 0.42238 0.0
C120 C 0.5634 0.16155 0.35581 0.0
O121 O 0.48774 0.16572 0.39781 0.0
O122 O 0.51032 0.12619 0.39179 0.0
O123 O 0.53794 0.21678 0.37874 0.0
O124 O 0.50696 0.21403 0.40585 0.0
C125 C 0.60132 0.15551 0.4062 0.0
O126 O 0.54662 0.14464 0.36488 0.0
O127 O 0.57526 0.18063 0.36714 0.0
C128 C 0.48807 0.14081 0.39065 0.0
O129 O 0.58641 0.13854 0.39509 0.0
O130 O 0.59388 0.18076 0.40833 0.0
C131 C 0.55216 0.21264 0.43758 0.0
Fe132 Fe 0.37933 0.54286 0.38918 0.0
Fe133 Fe 0.31858 0.56562 0.39187 0.0
O134 O 0.34411 0.53968 0.39871 0.0
Fe135 Fe 0.33482 0.51063 0.41564 0.0
O136 O 0.36013 0.52073 0.43687 0.0
O137 O 0.39493 0.52643 0.41341 0.0
O138 O 0.38356 0.57595 0.40345 0.0
C139 C 0.36738 0.59689 0.40264 0.0
C140 C 0.3721 0.48648 0.38406 0.0
O141 O 0.34334 0.59527 0.39361 0.0
C142 C 0.28888 0.5134 0.38838 0.0
O143 O 0.37038 0.56025 0.3633 0.0
O144 O 0.32418 0.56146 0.36223 0.0
O145 O 0.35976 0.48631 0.40265 0.0
O146 O 0.37778 0.50942 0.37453 0.0
C147 C 0.30316 0.55488 0.43486 0.0
O148 O 0.28939 0.54009 0.38941 0.0
O149 O 0.30909 0.49888 0.39567 0.0
C150 C 0.34771 0.56283 0.35266 0.0
O151 O 0.31077 0.57271 0.42074 0.0
O152 O 0.3078 0.52906 0.43176 0.0
C153 C 0.38588 0.52482 0.43299 0.0
Fe154 Fe 0.97072 0.37711 0.40029 0.0
Fe155 Fe 0.94607 0.31747 0.39703 0.0
O156 O 0.9732 0.34063 0.40582 0.0
Fe157 Fe 1.00272 0.3277 0.4206 0.0
O158 O 0.99482 0.34955 0.44458 0.0
O159 O 0.98945 0.38805 0.4251 0.0
O160 O 0.93879 0.37974 0.41626 0.0
C161 C 0.91698 0.36506 0.41371 0.0
C162 C 0.02633 0.36903 0.39202 0.0
O163 O 0.91739 0.34288 0.40201 0.0
C164 C 0.99692 0.28656 0.38934 0.0
O165 O 0.95108 0.3732 0.37463 0.0
O166 O 0.94961 0.32793 0.36808 0.0
O167 O 0.02734 0.35369 0.40918 0.0
O168 O 1.00299 0.37689 0.38416 0.0
C169 C 0.95782 0.29538 0.43804 0.0
O170 O 0.97029 0.28788 0.39112 0.0
O171 O 0.01243 0.30514 0.39786 0.0
C172 C 0.94755 0.35298 0.36142 0.0
O173 O 0.93975 0.30539 0.42504 0.0
O174 O 0.98378 0.29915 0.4346 0.0
C175 C 0.99185 0.37579 0.44347 0.0
Fe176 Fe 0.32019 0.94918 0.89509 0.0
Fe177 Fe 0.37946 0.97502 0.89356 0.0
O178 O 0.3438 0.97676 0.90206 0.0
Fe179 Fe 0.33233 0.00592 0.91794 0.0
O180 O 0.30631 0.98631 0.93443 0.0
O181 O 0.31166 0.9426 0.92379 0.0
O182 O 0.34683 0.92118 0.89818 0.0
C183 C 0.37012 0.92144 0.90853 0.0
C184 C 0.28719 0.99925 0.89019 0.0
O185 O 0.38481 0.94346 0.90959 0.0
C186 C 0.36941 0.03022 0.88591 0.0
O187 O 0.32686 0.95294 0.86549 0.0
O188 O 0.37276 0.95494 0.86842 0.0
O189 O 0.30631 0.01516 0.89742 0.0
O190 O 0.28944 0.97268 0.89152 0.0
C191 C 0.38387 0.9978 0.93632 0.0
O192 O 0.3762 0.00694 0.87736 0.0
O193 O 0.35606 0.03109 0.90413 0.0
C194 C 0.35095 0.95167 0.85681 0.0
O195 O 0.3934 0.99465 0.91703 0.0
O196 O 0.35777 0.9986 0.93982 0.0
C197 C 0.30291 0.96026 0.93766 0.0
Fe198 Fe 0.54009 0.37975 0.89924 0.0
Fe199 Fe 0.50898 0.33102 0.92142 0.0
O200 O 0.53808 0.34345 0.90582 0.0
Fe201 Fe 0.56517 0.3202 0.89718 0.0
O202 O 0.59375 0.34596 0.90194 0.0
O203 O 0.57195 0.38338 0.91509 0.0
O204 O 0.52118 0.39162 0.9237 0.0
C205 C 0.51968 0.38037 0.94251 0.0
C206 C 0.56428 0.35465 0.86115 0.0
O207 O 0.51724 0.35418 0.94452 0.0
C208 C 0.51434 0.28871 0.89084 0.0
O209 O 0.50776 0.37825 0.88321 0.0
O210 O 0.48398 0.3562 0.90926 0.0
O211 O 0.5613 0.32991 0.86813 0.0
O212 O 0.56013 0.37529 0.87379 0.0
C213 C 0.55443 0.29905 0.93878 0.0
O214 O 0.49889 0.30708 0.8997 0.0
O215 O 0.54101 0.29049 0.89171 0.0
C216 C 0.48459 0.37061 0.89156 0.0
O217 O 0.52839 0.30339 0.93623 0.0
O218 O 0.57199 0.30848 0.92513 0.0
C219 C 0.59388 0.36873 0.913 0.0
Fe220 Fe 0.19124 0.56623 0.8912 0.0
Fe221 Fe 0.1307 0.54264 0.88917 0.0
O222 O 0.16606 0.54015 0.89852 0.0
Fe223 Fe 0.17575 0.51158 0.91586 0.0
O224 O 0.20293 0.53041 0.93146 0.0
O225 O 0.19962 0.57378 0.91992 0.0
O226 O 0.16622 0.5957 0.89316 0.0
C227 C 0.14204 0.59709 0.90201 0.0
C228 C 0.22123 0.514 0.88808 0.0
O229 O 0.12612 0.57597 0.90296 0.0
C230 C 0.1385 0.4863 0.88485 0.0
O231 O 0.18514 0.56189 0.86158 0.0
O232 O 0.13904 0.55964 0.8631 0.0
O233 O 0.2013 0.49949 0.89588 0.0
O234 O 0.22049 0.54073 0.88856 0.0
C235 C 0.12488 0.52627 0.93325 0.0
O236 O 0.13266 0.50893 0.87494 0.0
O237 O 0.15076 0.48676 0.90347 0.0
C238 C 0.16143 0.56274 0.85224 0.0
O239 O 0.11561 0.52653 0.9137 0.0
O240 O 0.15066 0.52231 0.9371 0.0
C241 C 0.20756 0.55627 0.93417 0.0
Fe242 Fe 0.9974 0.17843 0.91802 0.0
Fe243 Fe 0.94478 0.19827 0.89309 0.0
O244 O 0.9679 0.17086 0.90124 0.0
Fe245 Fe 0.9609 0.13588 0.89309 0.0
O246 O 0.95873 0.12406 0.92141 0.0
O247 O 0.99702 0.14491 0.93313 0.0
O248 O 0.97516 0.19271 0.93986 0.0
C249 C 0.95846 0.21297 0.93709 0.0
C250 C 0.02078 0.13976 0.89011 0.0
O251 O 0.95065 0.21991 0.91783 0.0
C252 C 0.94585 0.16256 0.85522 0.0
O253 O 1.00326 0.21315 0.90563 0.0
O254 O 0.97271 0.21655 0.87823 0.0
O255 O 0.99821 0.12558 0.89094 0.0
O256 O 0.02158 0.16454 0.89752 0.0
C257 C 0.90804 0.15681 0.90576 0.0
O258 O 0.93422 0.18155 0.86676 0.0
O259 O 0.96238 0.14524 0.86411 0.0
C260 C 0.99549 0.224 0.88742 0.0
O261 O 0.91599 0.18193 0.90805 0.0
O262 O 0.9224 0.13978 0.89425 0.0
C263 C 0.97806 0.1265 0.93547 0.0
Fe264 Fe 0.8765 0.03617 0.60959 0.0
Fe265 Fe 0.82983 0.00552 0.58432 0.0
O266 O 0.84085 0.03422 0.60106 0.0
Fe267 Fe 0.81677 0.06108 0.60877 0.0
O268 O 0.84266 0.08982 0.60632 0.0
O269 O 0.88132 0.06876 0.59495 0.0
O270 O 0.89053 0.01873 0.58522 0.0
C271 C 0.88078 0.01764 0.56585 0.0
C272 C 0.84767 0.0574 0.64703 0.0
O273 O 0.85478 0.01458 0.56252 0.0
C274 C 0.78495 0.01006 0.61254 0.0
O275 O 0.874 1.00322 0.62453 0.0
O276 O 0.85433 0.98021 0.597 0.0
O277 O 0.82358 0.05655 0.6383 0.0
O278 O 0.86951 0.05436 0.63547 0.0
C279 C 0.79944 0.05131 0.56597 0.0
O280 O 0.80423 0.99476 0.60473 0.0
O281 O 0.78671 0.03672 0.61189 0.0
C282 C 0.86762 0.98033 0.61524 0.0
O283 O 0.80311 0.02522 0.56864 0.0
O284 O 0.80802 0.06856 0.58021 0.0
C285 C 0.86625 0.09042 0.59645 0.0
Fe286 Fe 0.49705 0.82963 0.58486 0.0
Fe287 Fe 0.4436 0.81053 0.60938 0.0
O288 O 0.46726 0.83757 0.60133 0.0
Fe289 Fe 0.46059 0.87266 0.60941 0.0
O290 O 0.45874 0.88433 0.58103 0.0
O291 O 0.49708 0.86318 0.56964 0.0
O292 O 0.47528 0.81532 0.56282 0.0
C293 C 0.45737 0.79604 0.56532 0.0
C294 C 0.52033 0.86824 0.61288 0.0
O295 O 0.44886 0.78919 0.58443 0.0
C296 C 0.44519 0.84629 0.64733 0.0
O297 O 0.5024 0.79492 0.5973 0.0
O298 O 0.47114 0.79158 0.62418 0.0
O299 O 0.49791 0.88257 0.61169 0.0
O300 O 0.52107 0.84342 0.60556 0.0
C301 C 0.40735 0.85248 0.59691 0.0
O302 O 0.43343 0.82729 0.63585 0.0
O303 O 0.46188 0.86338 0.63839 0.0
C304 C 0.49403 0.78399 0.61529 0.0
O305 O 0.41505 0.82734 0.59453 0.0
O306 O 0.42205 0.86937 0.60825 0.0
C307 C 0.47826 0.88176 0.56714 0.0
Fe308 Fe 0.63123 0.4677 0.61216 0.0
Fe309 Fe 0.67726 0.50026 0.5876 0.0
O310 O 0.66691 0.47095 0.60383 0.0
Fe311 Fe 0.69168 0.44469 0.61128 0.0
O312 O 0.66652 0.41538 0.60829 0.0
O313 O 0.62747 0.43551 0.5966 0.0
O314 O 0.61687 0.48585 0.58826 0.0
C315 C 0.62654 0.48767 0.56891 0.0
C316 C 0.66036 0.44525 0.64908 0.0
O317 O 0.65248 0.49122 0.56566 0.0
C318 C 0.72235 0.49628 0.61573 0.0
O319 O 0.63271 0.50032 0.62792 0.0
O320 O 0.65229 0.52444 0.60084 0.0
O321 O 0.68443 0.44875 0.64078 0.0
O322 O 0.63854 0.44825 0.63747 0.0
C323 C 0.70875 0.4557 0.56864 0.0
O324 O 0.70268 0.51122 0.6081 0.0
O325 O 0.72117 0.46963 0.61486 0.0
C326 C 0.63917 0.52359 0.61914 0.0
O327 O 0.70436 0.48161 0.57162 0.0
O328 O 0.70082 0.43791 0.58269 0.0
C329 C 0.64323 0.41428 0.59799 0.0
Fe330 Fe 0.00898 0.67696 0.58173 0.0
Fe331 Fe 0.06491 0.69079 0.60532 0.0
O332 O 0.0383 0.66623 0.59793 0.0
Fe333 Fe 0.04109 0.63057 0.6062 0.0
O334 O 0.02367 0.61655 0.58175 0.0
O335 O 0.01804 0.65266 0.55956 0.0
O336 O 0.02774 0.70437 0.56615 0.0
C337 C 0.05371 0.70832 0.56289 0.0
C338 C 0.98496 0.63827 0.61243 0.0
O339 O 0.07156 0.69981 0.57668 0.0
C340 C 0.06261 0.65971 0.64351 0.0
O341 O 0.9982 0.70178 0.60264 0.0
O342 O 0.03996 0.72029 0.60906 0.0
O343 O 0.00814 0.63209 0.62142 0.0
O344 O 0.98436 0.65179 0.59434 0.0
C345 C 0.09509 0.64203 0.59256 0.0
O346 O 0.0612 0.68373 0.6348 0.0
O347 O 0.05941 0.63776 0.63208 0.0
C348 C 0.01326 0.72124 0.61042 0.0
O349 O 0.09414 0.66558 0.60239 0.0
O350 O 0.0737 0.62651 0.59129 0.0
C351 C 0.02158 0.62671 0.56255 0.0
C352 C 0.63061 0.05907 0.17971 0.0
C353 C 0.65585 0.06688 0.16931 0.0
C354 C 0.62383 0.06924 0.20068 0.0
C355 C 0.63574 0.12879 0.2377 0.0
H356 H 0.59911 0.08057 0.28061 0.0
C357 C 0.59869 0.16665 0.32499 0.0
C358 C 0.57347 0.15509 0.33309 0.0
C359 C 0.61036 0.15707 0.30504 0.0
C360 C 0.60901 0.09443 0.26873 0.0
H361 H 0.69416 0.09104 0.17303 0.0
H362 H 0.68213 0.10914 0.20999 0.0
H363 H 0.61833 0.06035 0.24686 0.0
H364 H 0.53986 0.12572 0.32577 0.0
H365 H 0.55979 0.10958 0.29095 0.0
H366 H 0.62588 0.163 0.25949 0.0
C367 C 0.66763 0.09507 0.20172 0.0
C368 C 0.62019 0.08278 0.24943 0.0
C369 C 0.67464 0.08453 0.1807 0.0
C370 C 0.55946 0.13488 0.32019 0.0
C371 C 0.57104 0.12543 0.30028 0.0
C372 C 0.62445 0.14052 0.25707 0.0
C373 C 0.64198 0.08771 0.21183 0.0
C374 C 0.63322 0.09985 0.23348 0.0
C375 C 0.59703 0.13579 0.29275 0.0
C376 C 0.61045 0.12352 0.27262 0.0
H377 H 0.61571 0.04546 0.17141 0.0
H378 H 0.60379 0.06337 0.20784 0.0
H379 H 0.64544 0.14254 0.22564 0.0
H380 H 0.6101 0.18219 0.33452 0.0
H381 H 0.6304 0.16551 0.29976 0.0
C382 C 0.41735 0.67101 0.17682 0.0
C383 C 0.43714 0.6533 0.16664 0.0
C384 C 0.40422 0.66283 0.19663 0.0
C385 C 0.38829 0.59765 0.22774 0.0
H386 H 0.37166 0.64712 0.277 0.0
C387 C 0.37133 0.5588 0.31624 0.0
C388 C 0.34982 0.57064 0.3291 0.0
C389 C 0.37706 0.56906 0.29511 0.0
C390 C 0.37573 0.63319 0.26318 0.0
H391 H 0.46035 0.61437 0.16998 0.0
H392 H 0.43841 0.60067 0.20462 0.0
H393 H 0.39318 0.66629 0.24337 0.0
H394 H 0.31697 0.60211 0.3299 0.0
H395 H 0.3274 0.62061 0.29274 0.0
H396 H 0.3719 0.56442 0.24779 0.0
C397 C 0.43208 0.62029 0.19705 0.0
C398 C 0.38811 0.64414 0.24396 0.0
C399 C 0.44489 0.62828 0.17731 0.0
C400 C 0.33343 0.59241 0.32015 0.0
C401 C 0.33957 0.60314 0.29906 0.0
C402 C 0.37617 0.58674 0.24692 0.0
C403 C 0.41085 0.6369 0.20657 0.0
C404 C 0.39525 0.62631 0.22625 0.0
C405 C 0.36173 0.59177 0.2865 0.0
C406 C 0.37037 0.60424 0.26504 0.0
H407 H 0.41085 0.69034 0.16887 0.0
H408 H 0.38802 0.67616 0.20356 0.0
H409 H 0.39268 0.58343 0.21417 0.0
H410 H 0.38436 0.5421 0.32283 0.0
H411 H 0.39441 0.56004 0.28592 0.0
C412 C 0.92735 0.33914 0.32413 0.0
C413 C 0.93771 0.35974 0.33871 0.0
C414 C 0.91659 0.34684 0.30332 0.0
C415 C 0.92063 0.40467 0.26273 0.0
H416 H 0.85168 0.37415 0.23825 0.0
C417 C 0.8901 0.42746 0.17384 0.0
C418 C 0.86226 0.43541 0.16899 0.0
C419 C 0.89719 0.41646 0.19438 0.0
C420 C 0.87081 0.383 0.24503 0.0
H421 H 0.94491 0.40456 0.34268 0.0
H422 H 0.92617 0.41767 0.30706 0.0
H423 H 0.86881 0.35749 0.27436 0.0
H424 H 0.81982 0.43712 0.182 0.0
H425 H 0.83256 0.41814 0.21862 0.0
H426 H 0.9226 0.43053 0.23399 0.0
C427 C 0.92656 0.3956 0.31139 0.0
C428 C 0.88082 0.37321 0.2655 0.0
C429 C 0.93724 0.38801 0.33195 0.0
C430 C 0.84147 0.4314 0.18526 0.0
C431 C 0.84872 0.42039 0.20612 0.0
C432 C 0.91069 0.41441 0.24248 0.0
C433 C 0.9162 0.37521 0.29674 0.0
C434 C 0.90582 0.38406 0.27459 0.0
C435 C 0.87682 0.41325 0.21094 0.0
C436 C 0.88581 0.40361 0.23325 0.0
H437 H 0.92726 0.31722 0.32888 0.0
H438 H 0.90892 0.33063 0.29229 0.0
H439 H 0.9401 0.41329 0.26909 0.0
H440 H 0.90673 0.4297 0.16173 0.0
H441 H 0.91888 0.41056 0.19731 0.0
C442 C 0.17844 0.92351 0.32111 0.0
C443 C 0.15951 0.94157 0.3319 0.0
C444 C 0.17234 0.91335 0.2998 0.0
C445 C 0.12707 0.92642 0.25078 0.0
H446 H 0.13035 0.84584 0.24185 0.0
C447 C 0.06407 0.87433 0.18146 0.0
C448 C 0.07754 0.85387 0.16844 0.0
C449 C 0.07626 0.88383 0.20111 0.0
C450 C 0.12963 0.86841 0.24397 0.0
H451 H 0.12026 0.96431 0.32851 0.0
H452 H 0.10992 0.94709 0.29158 0.0
H453 H 0.15001 0.86641 0.27564 0.0
H454 H 0.11378 0.82629 0.16661 0.0
H455 H 0.13509 0.84295 0.20105 0.0
H456 H 0.10634 0.92855 0.21943 0.0
C457 C 0.12937 0.9406 0.29937 0.0
C458 C 0.14099 0.8802 0.26328 0.0
C459 C 0.13524 0.95039 0.32062 0.0
C460 C 0.1028 0.84205 0.17623 0.0
C461 C 0.11505 0.85161 0.19597 0.0
C462 C 0.11576 0.91469 0.23156 0.0
C463 C 0.1475 0.92151 0.28885 0.0
C464 C 0.13924 0.90929 0.26712 0.0
C465 C 0.10228 0.87319 0.2083 0.0
C466 C 0.11627 0.88548 0.22813 0.0
H467 H 0.19719 0.91621 0.3295 0.0
H468 H 0.1868 0.8988 0.29203 0.0
H469 H 0.12584 0.94895 0.25304 0.0
H470 H 0.04445 0.8837 0.17613 0.0
H471 H 0.06547 0.89993 0.21051 0.0
C472 C 0.33567 0.92537 0.82255 0.0
C473 C 0.35481 0.94317 0.83342 0.0
C474 C 0.34202 0.91456 0.80148 0.0
C475 C 0.38827 0.92607 0.75288 0.0
H476 H 0.38253 0.84566 0.74379 0.0
C477 C 0.44918 0.87266 0.68304 0.0
C478 C 0.43504 0.85263 0.67005 0.0
C479 C 0.43751 0.88229 0.70285 0.0
C480 C 0.38396 0.86818 0.74596 0.0
H481 H 0.39482 0.96463 0.83035 0.0
H482 H 0.4056 0.94626 0.79385 0.0
H483 H 0.36341 0.86674 0.77759 0.0
H484 H 0.39815 0.82593 0.66841 0.0
H485 H 0.37771 0.84287 0.7031 0.0
H486 H 0.40905 0.92767 0.72155 0.0
C487 C 0.3858 0.94047 0.80144 0.0
C488 C 0.37292 0.88027 0.76528 0.0
C489 C 0.37967 0.95091 0.82244 0.0
C490 C 0.40964 0.84133 0.67802 0.0
C491 C 0.39789 0.85106 0.6979 0.0
C492 C 0.39924 0.91405 0.73365 0.0
C493 C 0.36733 0.92181 0.79081 0.0
C494 C 0.37552 0.90929 0.76916 0.0
C495 C 0.41132 0.87226 0.71021 0.0
C496 C 0.39783 0.88489 0.73015 0.0
H497 H 0.31644 0.9189 0.83068 0.0
H498 H 0.32729 0.90035 0.79363 0.0
H499 H 0.39016 0.94855 0.75517 0.0
H500 H 0.46893 0.88161 0.67757 0.0
H501 H 0.44882 0.89806 0.71221 0.0
C502 C 0.59768 0.38225 0.83839 0.0
C503 C 0.57823 0.36013 0.83975 0.0
C504 C 0.61069 0.38884 0.81842 0.0
C505 C 0.62291 0.36312 0.76077 0.0
H506 H 0.63568 0.44238 0.74975 0.0
C507 C 0.63553 0.41269 0.67444 0.0
C508 C 0.65703 0.43254 0.67121 0.0
C509 C 0.63041 0.40148 0.69534 0.0
C510 C 0.63269 0.42014 0.75275 0.0
H511 H 0.55758 0.32704 0.82138 0.0
H512 H 0.57926 0.33943 0.78586 0.0
H513 H 0.61648 0.42748 0.78512 0.0
H514 H 0.69053 0.45572 0.68714 0.0
H515 H 0.68083 0.43668 0.72431 0.0
H516 H 0.63764 0.3563 0.72761 0.0
C517 C 0.58507 0.35128 0.80045 0.0
C518 C 0.6217 0.41149 0.77306 0.0
C519 C 0.57246 0.34424 0.82073 0.0
C520 C 0.67385 0.44047 0.68925 0.0
C521 C 0.66827 0.42965 0.71042 0.0
C522 C 0.63346 0.37188 0.74027 0.0
C523 C 0.60413 0.37395 0.799 0.0
C524 C 0.61652 0.38285 0.77738 0.0
C525 C 0.64633 0.41021 0.71362 0.0
C526 C 0.63829 0.4005 0.73605 0.0
H527 H 0.60304 0.39448 0.85293 0.0
H528 H 0.62589 0.40575 0.81827 0.0
H529 H 0.61972 0.34089 0.76353 0.0
H530 H 0.6224 0.40598 0.66076 0.0
H531 H 0.61323 0.38676 0.69736 0.0
C532 C 0.1363 0.5596 0.81646 0.0
C533 C 0.15848 0.57107 0.82883 0.0
C534 C 0.12831 0.57157 0.79639 0.0
C535 C 0.14759 0.62123 0.7519 0.0
H536 H 0.06648 0.62685 0.74643 0.0
C537 C 0.09128 0.67399 0.67667 0.0
C538 C 0.07125 0.65621 0.66683 0.0
C539 C 0.10257 0.66743 0.69752 0.0
C540 C 0.08916 0.6255 0.74772 0.0
H541 H 0.19087 0.60301 0.82933 0.0
H542 H 0.1767 0.62429 0.79398 0.0
H543 H 0.08692 0.60652 0.77967 0.0
H544 H 0.04637 0.61854 0.6714 0.0
H545 H 0.06537 0.60758 0.70777 0.0
H546 H 0.14954 0.64008 0.71962 0.0
C547 C 0.16564 0.60586 0.79983 0.0
C548 C 0.10091 0.61367 0.7667 0.0
C549 C 0.17386 0.59361 0.81998 0.0
C550 C 0.06175 0.63264 0.67861 0.0
C551 C 0.0726 0.6264 0.69946 0.0
C552 C 0.13576 0.63323 0.73284 0.0
C553 C 0.14202 0.59561 0.7883 0.0
C554 C 0.13022 0.6106 0.76877 0.0
C555 C 0.09351 0.64336 0.70899 0.0
C556 C 0.10638 0.63478 0.73035 0.0
H557 H 0.12422 0.5421 0.82287 0.0
H558 H 0.1106 0.56259 0.7876 0.0
H559 H 0.17023 0.61925 0.75303 0.0
H560 H 0.09916 0.69213 0.66782 0.0
H561 H 0.11858 0.68092 0.70455 0.0
C562 C 0.9109 0.16899 0.82434 0.0
C563 C 0.9359 0.15686 0.83236 0.0
C564 C 0.89962 0.1606 0.80394 0.0
C565 C 0.91795 0.12445 0.75157 0.0
H566 H 0.83862 0.10569 0.74882 0.0
C567 C 0.8761 0.05677 0.68143 0.0
C568 C 0.85169 0.06573 0.67041 0.0
C569 C 0.88385 0.06857 0.70163 0.0
C570 C 0.86072 0.11114 0.74926 0.0
H571 H 0.9692 0.12727 0.82474 0.0
H572 H 0.94972 0.11285 0.78931 0.0
H573 H 0.85801 0.12709 0.78242 0.0
H574 H 0.81526 0.09288 0.67258 0.0
H575 H 0.82892 0.11378 0.70823 0.0
H576 H 0.9209 0.1083 0.71866 0.0
C577 C 0.93878 0.12885 0.79871 0.0
C578 C 0.87183 0.12346 0.76847 0.0
C579 C 0.94993 0.13705 0.8191 0.0
C580 C 0.83411 0.08548 0.68078 0.0
C581 C 0.842 0.09749 0.70112 0.0
C582 C 0.9069 0.11219 0.73248 0.0
C583 C 0.91326 0.14015 0.79102 0.0
C584 C 0.90071 0.12973 0.76998 0.0
C585 C 0.86752 0.08985 0.71132 0.0
C586 C 0.87831 0.10479 0.73124 0.0
H587 H 0.8995 0.18425 0.83415 0.0
H588 H 0.8801 0.16994 0.79836 0.0
H589 H 0.94013 0.12957 0.75199 0.0
H590 H 0.8899 0.04133 0.67396 0.0
H591 H 0.90318 0.06159 0.70935 0.0
C592 C 0.60742 0.02406 0.03075 0.0
C593 C 0.6112 0.00513 0.04824 0.0
C594 C 0.58307 0.02265 0.01773 0.0
C595 C 0.50976 0.99946 0.02351 0.0
H596 H 0.50498 0.0143 0.96059 0.0
C597 C 0.40798 0.9858 0.97163 0.0
C598 C 0.4042 1.00422 0.9538 0.0
C599 C 0.43245 0.98739 0.98448 0.0
C600 C 0.50593 0.01053 0.97826 0.0
H601 H 0.59412 0.96887 0.06511 0.0
H602 H 0.55226 0.96566 0.04194 0.0
H603 H 0.55095 0.01198 0.97836 0.0
H604 H 0.42143 0.03983 0.93618 0.0
H605 H 0.46347 0.04344 0.95909 0.0
H606 H 0.46476 0.99808 0.02345 0.0
C607 C 0.56749 0.98199 0.03851 0.0
C608 C 0.53229 0.00908 0.98838 0.0
C609 C 0.59159 0.98356 0.05155 0.0
C610 C 0.42398 0.0255 0.94998 0.0
C611 C 0.44818 0.02728 0.96288 0.0
C612 C 0.4834 1.00095 0.0134 0.0
C613 C 0.56235 1.00226 0.02213 0.0
C614 C 0.5345 1.00342 0.0111 0.0
C615 C 0.4533 0.00749 0.97963 0.0
C616 C 0.48118 0.00654 0.99067 0.0
H617 H 0.62206 0.04121 0.02829 0.0
H618 H 0.57964 0.03862 0.00527 0.0
H619 H 0.51073 0.99564 0.04117 0.0
H620 H 0.39317 0.96891 0.97452 0.0
H621 H 0.43583 0.97176 0.99722 0.0
C622 C 0.46784 0.59556 0.03823 0.0
C623 C 0.4916 0.61173 0.04326 0.0
C624 C 0.47053 0.57098 0.02591 0.0
C625 C 0.51914 0.52789 0.99223 0.0
H626 H 0.48026 0.46599 0.02074 0.0
C627 C 0.54212 0.41515 0.96663 0.0
C628 C 0.51826 0.39914 0.96155 0.0
C629 C 0.53953 0.4398 0.97889 0.0
C630 C 0.49112 0.48306 0.01254 0.0
H631 H 0.53645 0.61621 0.03866 0.0
H632 H 0.54136 0.57307 0.01696 0.0
H633 H 0.47322 0.51375 0.03416 0.0
H634 H 0.47335 0.39507 0.96589 0.0
H635 H 0.46862 0.43826 0.98756 0.0
H636 H 0.53705 0.49717 0.97063 0.0
C637 C 0.52057 0.57953 0.02219 0.0
C638 C 0.48696 0.51044 0.02009 0.0
C639 C 0.51779 0.6043 0.03443 0.0
C640 C 0.49206 0.40684 0.97019 0.0
C641 C 0.4894 0.43164 0.98242 0.0
C642 C 0.52331 0.5005 0.98469 0.0
C643 C 0.49715 0.56197 0.01875 0.0
C644 C 0.50086 0.53316 0.00997 0.0
C645 C 0.51294 0.449 0.98596 0.0
C646 C 0.50937 0.4778 0.99479 0.0
H647 H 0.44752 0.60085 0.04522 0.0
H648 H 0.45203 0.5582 0.0231 0.0
H649 H 0.52998 0.54496 0.98402 0.0
H650 H 0.56244 0.40968 0.95974 0.0
H651 H 0.5581 0.45246 0.98176 0.0
C652 C 0.10212 0.50845 0.96779 0.0
C653 C 0.10413 0.5287 0.95106 0.0
C654 C 0.07809 0.50741 0.98116 0.0
C655 C 1.00325 0.52684 0.97801 0.0
H656 H 1.00229 0.50448 0.03964 0.0
C657 C 0.90281 0.52 0.03376 0.0
C658 C 0.90265 0.49738 0.04863 0.0
C659 C 0.92644 0.52463 0.02032 0.0
C660 C 1.00224 0.51054 0.02235 0.0
H661 H 0.08437 0.56511 0.93623 0.0
H662 H 0.04308 0.56397 0.96 0.0
H663 H 0.04715 0.5129 0.02135 0.0
H664 H 0.92556 0.46086 0.06009 0.0
H665 H 0.96574 0.46806 0.03611 0.0
H666 H 0.95824 0.52428 0.97907 0.0
C667 C 0.05933 0.54834 0.96242 0.0
C668 C 0.02793 0.51537 0.01192 0.0
C669 C 0.08306 0.54916 0.94899 0.0
C670 C 0.92513 0.47832 0.04861 0.0
C671 C 0.94834 0.4827 0.03515 0.0
C672 C 0.97751 0.52205 0.98848 0.0
C673 C 0.05601 0.52677 0.978 0.0
C674 C 0.02875 0.52328 0.98958 0.0
C675 C 0.94988 0.5066 0.02169 0.0
C676 C 0.9768 0.5134 0.01065 0.0
H677 H 0.11805 0.49232 0.96945 0.0
H678 H 0.07609 0.49048 0.99302 0.0
H679 H 1.00318 0.53252 0.96065 0.0
H680 H 0.88583 0.53516 0.03378 0.0
H681 H 0.9271 0.54319 0.00998 0.0
C682 C 0.00703 0.10087 0.96356 0.0
C683 C 0.98149 0.10403 0.95211 0.0
C684 C 0.01194 0.07701 0.97641 0.0
C685 C 0.97757 0.01652 0.00347 0.0
H686 H 0.04954 0.98021 0.99371 0.0
C687 C 1.00111 0.90664 0.03831 0.0
C688 C 0.02702 0.90393 0.04929 0.0
C689 C 0.99567 0.93011 0.02511 0.0
C690 C 0.02943 0.99019 0.99672 0.0
H691 H 0.94037 0.08557 0.94642 0.0
H692 H 0.94902 0.044 0.96881 0.0
H693 H 0.03933 0.02474 0.97551 0.0
H694 H 0.0682 0.92277 0.05387 0.0
H695 H 0.05863 0.96363 0.03101 0.0
H696 H 0.96772 0.98204 0.02478 0.0
C697 C 0.96525 0.0599 0.96781 0.0
C698 C 0.02364 0.01575 0.98639 0.0
C699 C 0.96035 0.08369 0.9549 0.0
C700 C 0.04794 0.9243 0.04575 0.0
C701 C 0.04251 0.94769 0.03255 0.0
C702 C 0.98339 0.99098 0.01384 0.0
C703 C 0.99138 0.05594 0.97818 0.0
C704 C 0.99769 0.02922 0.98971 0.0
C705 C 0.01608 0.95121 0.02256 0.0
C706 C 0.00941 0.97757 0.01062 0.0
H707 H 0.0237 0.1162 0.96183 0.0
H708 H 0.0321 0.07474 0.98458 0.0
H709 H 0.95748 0.02654 0.00648 0.0
H710 H 0.98459 0.89127 0.04064 0.0
H711 H 0.97527 0.93202 0.01728 0.0
C712 C 0.08463 0.9663 0.45381 0.0
C713 C 0.10614 0.98642 0.45465 0.0
C714 C 0.06084 0.96908 0.46703 0.0
C715 C 0.01848 0.0244 0.4916 0.0
H716 H 0.97761 0.96247 0.51808 0.0
C717 C 0.92258 0.03816 0.54826 0.0
C718 C 0.90117 0.01792 0.54768 0.0
C719 C 0.94625 0.03536 0.53492 0.0
C720 C 0.98855 0.97987 0.5104 0.0
H721 H 0.12072 0.02436 0.47064 0.0
H722 H 0.07877 0.02936 0.4941 0.0
H723 H 0.02418 0.95434 0.50241 0.0
H724 H 0.88662 0.97975 0.53203 0.0
H725 H 0.92834 0.97473 0.50833 0.0
H726 H 0.98285 0.04993 0.49957 0.0
C727 C 0.08036 0.01147 0.4831 0.0
C728 C 0.01533 0.97528 0.50164 0.0
C729 C 0.10444 0.00847 0.46996 0.0
C730 C 0.90281 0.99573 0.5325 0.0
C731 C 0.92678 0.99272 0.51923 0.0
C732 C 0.9917 0.02899 0.50034 0.0
C733 C 0.05795 0.99225 0.4812 0.0
C734 C 0.03058 0.9975 0.49216 0.0
C735 C 0.94913 0.01205 0.52089 0.0
C736 C 0.97646 0.00678 0.50985 0.0
H737 H 0.08554 0.94918 0.442 0.0
H738 H 0.04395 0.95404 0.46505 0.0
H739 H 0.02944 0.0418 0.48394 0.0
H740 H 0.92171 0.05538 0.55998 0.0
H741 H 0.9631 0.05049 0.53674 0.0
C742 C 0.54741 0.08453 0.45629 0.0
C743 C 0.52635 0.10486 0.45308 0.0
C744 C 0.54232 0.06094 0.46937 0.0
C745 C 0.48371 0.01708 0.48841 0.0
H746 H 0.54019 0.98354 0.52641 0.0
C747 C 0.46088 0.92457 0.54748 0.0
C748 C 0.482 0.90426 0.55052 0.0
C749 C 0.46588 0.94831 0.53453 0.0
C750 C 0.52435 0.99244 0.51561 0.0
H751 H 0.48396 0.11713 0.46217 0.0
H752 H 0.47521 0.07602 0.48529 0.0
H753 H 0.55007 0.02803 0.50803 0.0
H754 H 0.5244 0.89218 0.54126 0.0
H755 H 0.53298 0.93353 0.51839 0.0
H756 H 0.45799 0.98149 0.49599 0.0
C757 C 0.49549 0.07815 0.47731 0.0
C758 C 0.52996 0.01799 0.50517 0.0
C759 C 0.50061 0.10183 0.46425 0.0
C760 C 0.50771 0.90746 0.53932 0.0
C761 C 0.51273 0.93128 0.5264 0.0
C762 C 0.47809 0.99153 0.49886 0.0
C763 C 0.51605 0.05712 0.47956 0.0
C764 C 0.50972 0.0306 0.49144 0.0
C765 C 0.49211 0.95228 0.52432 0.0
C766 C 0.49836 0.97891 0.51255 0.0
H767 H 0.56755 0.08628 0.44801 0.0
H768 H 0.55856 0.04508 0.47067 0.0
H769 H 0.46788 0.02597 0.4776 0.0
H770 H 0.44077 0.92269 0.55578 0.0
H771 H 0.4496 0.96414 0.53334 0.0
C772 C 0.60609 0.5094 0.5348 0.0
C773 C 0.60608 0.48806 0.55077 0.0
C774 C 0.58254 0.51317 0.52117 0.0
C775 C 0.5065 0.49981 0.52295 0.0
H776 H 0.50777 0.52057 0.46098 0.0
C777 C 0.4072 0.50437 0.46725 0.0
C778 C 0.40691 0.52502 0.45073 0.0
C779 C 0.43097 0.50118 0.48071 0.0
C780 C 0.50709 0.51517 0.47839 0.0
H781 H 0.58317 0.45246 0.56389 0.0
H782 H 0.54265 0.45843 0.53977 0.0
H783 H 0.55188 0.5109 0.4801 0.0
H784 H 0.4296 0.56003 0.43642 0.0
H785 H 0.47049 0.55515 0.46032 0.0
H786 H 0.46174 0.50411 0.52128 0.0
C787 C 0.56016 0.47282 0.53815 0.0
C788 C 0.53236 0.50955 0.48928 0.0
C789 C 0.58343 0.46924 0.55178 0.0
C790 C 0.42957 0.54375 0.44896 0.0
C791 C 0.45305 0.54078 0.46247 0.0
C792 C 0.48124 0.50547 0.51208 0.0
C793 C 0.55893 0.49551 0.52338 0.0
C794 C 0.5323 0.50166 0.51163 0.0
C795 C 0.45452 0.51877 0.47786 0.0
C796 C 0.48126 0.5132 0.48968 0.0
H797 H 0.62329 0.52427 0.53394 0.0
H798 H 0.58214 0.53083 0.50989 0.0
H799 H 0.50583 0.4943 0.54034 0.0
H800 H 0.38999 0.48958 0.46872 0.0
H801 H 0.43152 0.484 0.49244 0.0
C802 C 0.99418 0.5991 0.53535 0.0
C803 C 0.02027 0.60675 0.54424 0.0
C804 C 0.99144 0.57387 0.5237 0.0
C805 C 0.02527 0.50446 0.52221 0.0
H806 H 0.97468 0.49092 0.47309 0.0
C807 C 0.02003 0.4014 0.47132 0.0
C808 C 0.99363 0.39362 0.46307 0.0
C809 C 0.02281 0.42591 0.4839 0.0
C810 C 0.98857 0.49432 0.48705 0.0
H811 H 0.06421 0.59559 0.54706 0.0
H812 H 0.05982 0.55217 0.52587 0.0
H813 H 0.98173 0.53872 0.48635 0.0
H814 H 0.94929 0.40364 0.46241 0.0
H815 H 0.95389 0.44593 0.48498 0.0
H816 H 0.0323 0.46001 0.52272 0.0
C817 C 0.04133 0.5651 0.52822 0.0
C818 C 0.99271 0.52173 0.49455 0.0
C819 C 0.04397 0.59013 0.54 0.0
C820 C 0.96977 0.40914 0.46899 0.0
C821 C 0.97249 0.43352 0.48157 0.0
C822 C 0.02121 0.47705 0.51465 0.0
C823 C 0.01481 0.55604 0.52086 0.0
C824 C 0.01113 0.52712 0.5122 0.0
C825 C 0.99921 0.44291 0.48817 0.0
C826 C 1.00275 0.47169 0.49704 0.0
H827 H 0.97556 0.61136 0.539 0.0
H828 H 0.97069 0.56742 0.51836 0.0
H829 H 0.03914 0.50781 0.53619 0.0
H830 H 0.03874 0.39004 0.46638 0.0
H831 H 0.04368 0.4327 0.48869 0.0
C832 C 0.60561 0.9526 0.13382 0.0
C833 C 0.633 0.95307 0.12509 0.0
C834 C 0.59175 0.92704 0.13732 0.0
C835 C 0.59497 0.85325 0.11742 0.0
H836 H 0.53569 0.84129 0.16048 0.0
C837 C 0.54166 0.7465 0.12539 0.0
C838 C 0.51223 0.74673 0.12289 0.0
C839 C 0.55634 0.77125 0.12968 0.0
C840 C 0.55218 0.84443 0.14838 0.0
H841 H 0.66819 0.92732 0.11492 0.0
H842 H 0.64482 0.88279 0.12223 0.0
H843 H 0.56287 0.88498 0.16129 0.0
H844 H 0.47504 0.77301 0.12466 0.0
H845 H 0.50093 0.81646 0.13241 0.0
H846 H 0.58455 0.81267 0.10472 0.0
C847 C 0.63339 0.90203 0.12542 0.0
C848 C 0.56773 0.86948 0.14875 0.0
C849 C 0.64697 0.92755 0.12146 0.0
C850 C 0.49768 0.77208 0.12642 0.0
C851 C 0.51247 0.79695 0.13088 0.0
C852 C 0.5798 0.82819 0.11729 0.0
C853 C 0.60517 0.90137 0.13253 0.0
C854 C 0.58932 0.87427 0.1332 0.0
C855 C 0.54202 0.79688 0.13177 0.0
C856 C 0.55822 0.82351 0.13269 0.0
H857 H 0.59421 0.97198 0.13658 0.0
H858 H 0.57003 0.92755 0.14264 0.0
H859 H 0.61071 0.85631 0.10471 0.0
H860 H 0.5536 0.72734 0.12312 0.0
H861 H 0.57908 0.77051 0.13065 0.0
C862 C 0.55231 0.59763 0.12925 0.0
C863 C 0.55192 0.6254 0.12139 0.0
C864 C 0.57796 0.58381 0.13297 0.0
C865 C 0.65296 0.58892 0.11555 0.0
H866 H 0.66458 0.52944 0.1584 0.0
C867 C 0.76175 0.54071 0.12769 0.0
C868 C 0.76333 0.51132 0.12552 0.0
C869 C 0.73592 0.55406 0.13076 0.0
C870 C 0.66154 0.54597 0.14633 0.0
H871 H 0.57784 0.66116 0.11291 0.0
H872 H 0.62229 0.63784 0.12052 0.0
H873 H 0.61969 0.55475 0.15764 0.0
H874 H 0.73894 0.47285 0.12658 0.0
H875 H 0.69362 0.49639 0.13222 0.0
H876 H 0.69478 0.58046 0.10443 0.0
C877 C 0.60304 0.62609 0.12286 0.0
C878 C 0.6358 0.56045 0.14581 0.0
C879 C 0.57752 0.63964 0.11873 0.0
C880 C 0.73853 0.4955 0.12814 0.0
C881 C 0.71256 0.50896 0.13137 0.0
C882 C 0.67865 0.57479 0.11628 0.0
C883 C 0.60374 0.59763 0.12921 0.0
C884 C 0.63118 0.58223 0.13042 0.0
C885 C 0.71092 0.53845 0.13193 0.0
C886 C 0.68333 0.55322 0.13168 0.0
H887 H 0.53288 0.58606 0.13127 0.0
H888 H 0.57749 0.56191 0.13773 0.0
H889 H 0.65011 0.60482 0.10294 0.0
H890 H 0.78038 0.55363 0.12605 0.0
H891 H 0.73539 0.57679 0.13153 0.0
C892 C 0.01652 0.7394 0.13712 0.0
C893 C 1.00273 0.75986 0.12431 0.0
C894 C 1.0026 0.71452 0.14311 0.0
C895 C 0.93151 0.68169 0.14655 0.0
H896 H 0.97075 0.61231 0.13341 0.0
C897 C 0.87419 0.58021 0.12235 0.0
C898 C 0.88538 0.55399 0.12839 0.0
C899 C 0.88828 0.60506 0.12763 0.0
C900 C 0.9596 0.6314 0.13763 0.0
H901 H 0.96309 0.77087 0.10881 0.0
H902 H 0.93902 0.72795 0.11922 0.0
H903 H 0.99626 0.65675 0.13247 0.0
H904 H 0.91965 0.53346 0.14569 0.0
H905 H 0.94434 0.57704 0.15496 0.0
H906 H 0.89465 0.6565 0.15095 0.0
C907 C 0.9605 0.73091 0.12472 0.0
C908 C 0.97426 0.65693 0.13708 0.0
C909 C 0.97441 0.7555 0.11858 0.0
C910 C 0.9104 0.5533 0.14082 0.0
C911 C 0.92468 0.57826 0.14596 0.0
C912 C 0.91689 0.65622 0.1471 0.0
C913 C 0.97452 0.70982 0.13668 0.0
C914 C 0.96019 0.68247 0.14087 0.0
C915 C 0.91406 0.60442 0.13903 0.0
C916 C 0.93053 0.63083 0.14199 0.0
H917 H 0.03836 0.74209 0.14176 0.0
H918 H 0.01394 0.69878 0.15247 0.0
H919 H 0.92015 0.70091 0.14999 0.0
H920 H 0.85493 0.58153 0.11282 0.0
H921 H 0.87958 0.62473 0.1218 0.0
C922 C 0.93874 0.86801 0.12133 0.0
C923 C 0.96395 0.88317 0.11917 0.0
C924 C 0.91319 0.882 0.12481 0.0
C925 C 0.88169 0.95181 0.13945 0.0
H926 H 0.81818 0.92284 0.10637 0.0
C927 C 0.77866 0.01484 0.12124 0.0
C928 C 0.75335 0.99955 0.12117 0.0
C929 C 0.80448 1.00106 0.12441 0.0
C930 C 0.83557 0.93105 0.11598 0.0
H931 H 0.98204 0.92501 0.11983 0.0
H932 H 0.93766 0.94928 0.12538 0.0
H933 H 0.86255 0.89768 0.10569 0.0
H934 H 0.73525 0.95819 0.12612 0.0
H935 H 0.77991 0.93449 0.13184 0.0
H936 H 0.85455 0.98572 0.14916 0.0
C937 C 0.93754 0.92657 0.12476 0.0
C938 C 0.86109 0.91652 0.11565 0.0
C939 C 0.96308 0.91258 0.12146 0.0
C940 C 0.75434 0.9706 0.12575 0.0
C941 C 0.77999 0.95693 0.12891 0.0
C942 C 0.8561 0.9665 0.13965 0.0
C943 C 0.91213 0.91154 0.12604 0.0
C944 C 0.88458 0.92665 0.12735 0.0
C945 C 0.80545 0.97177 0.12758 0.0
C946 C 0.83271 0.95626 0.12793 0.0
H947 H 0.9386 0.84535 0.11985 0.0
H948 H 0.89419 0.86962 0.12622 0.0
H949 H 0.89916 0.96014 0.14888 0.0
H950 H 0.77867 0.03713 0.1177 0.0
H951 H 0.82373 0.01312 0.12327 0.0
C952 C 0.09999 0.05194 0.37107 0.0
C953 C 0.12739 0.05129 0.37976 0.0
C954 C 0.0862 0.07764 0.36775 0.0
C955 C 0.09003 0.15149 0.38785 0.0
H956 H 0.03165 0.16473 0.34425 0.0
C957 C 0.04023 0.25984 0.37885 0.0
C958 C 0.01075 0.26069 0.38084 0.0
C959 C 0.05414 0.23454 0.3749 0.0
C960 C 0.04788 0.16123 0.35652 0.0
H961 H 0.16265 0.07683 0.39012 0.0
H962 H 0.13945 0.12149 0.38314 0.0
H963 H 0.05769 0.1203 0.34386 0.0
H964 H 0.97273 0.2357 0.37853 0.0
H965 H 0.99726 0.19131 0.37137 0.0
H966 H 0.08054 0.19242 0.4003 0.0
C967 C 0.12791 0.10235 0.37985 0.0
C968 C 0.06277 0.13575 0.35638 0.0
C969 C 0.14141 0.07674 0.38361 0.0
C970 C 0.99543 0.23583 0.37714 0.0
C971 C 0.00946 0.2104 0.37303 0.0
C972 C 0.07552 0.17694 0.38776 0.0
C973 C 0.09971 0.10322 0.37272 0.0
C974 C 0.08412 0.13053 0.37207 0.0
C975 C 0.03901 0.20939 0.37267 0.0
C976 C 0.05431 0.18216 0.37212 0.0
H977 H 0.08859 0.0326 0.36814 0.0
H978 H 0.06449 0.0773 0.36237 0.0
H979 H 0.10555 0.14813 0.40069 0.0
H980 H 0.05277 0.27858 0.38129 0.0
H981 H 0.07691 0.23448 0.37433 0.0
C982 C 0.45973 0.09783 0.38126 0.0
C983 C 0.46107 0.12707 0.3845 0.0
C984 C 0.43385 0.08434 0.37825 0.0
C985 C 0.35833 0.09441 0.39062 0.0
H986 H 0.3485 0.02861 0.35358 0.0
C987 C 0.25039 0.04112 0.38286 0.0
C988 C 0.2498 0.01166 0.38462 0.0
C989 C 0.27577 0.05538 0.37973 0.0
C990 C 0.35096 0.04686 0.36411 0.0
H991 H 0.43614 0.16518 0.38585 0.0
H992 H 0.39115 0.14177 0.38018 0.0
H993 H 0.39343 0.05355 0.35344 0.0
H994 H 0.27552 0.97408 0.38336 0.0
H995 H 0.31989 0.99904 0.37802 0.0
H996 H 0.31612 0.08764 0.40151 0.0
C997 C 0.41008 0.12913 0.38051 0.0
C998 C 0.37673 0.06118 0.36404 0.0
C999 C 0.43595 0.14261 0.38361 0.0
C1000 C 0.27515 0.99676 0.38206 0.0
C1001 C 0.30062 0.01109 0.37895 0.0
C1002 C 0.33262 0.08019 0.39065 0.0
C1003 C 0.40859 0.09973 0.37831 0.0
C1004 C 0.38081 0.0851 0.37739 0.0
C1005 C 0.30132 0.04063 0.3783 0.0
C1006 C 0.32858 0.05616 0.37747 0.0
H1007 H 0.47861 0.08512 0.38187 0.0
H1008 H 0.43359 0.06168 0.37681 0.0
H1009 H 0.36079 0.11232 0.4015 0.0
H1010 H 0.23128 0.05333 0.3845 0.0
H1011 H 0.2754 0.07809 0.37881 0.0
C1012 C 0.41032 0.45857 0.36522 0.0
C1013 C 0.38416 0.45963 0.37606 0.0
C1014 C 0.424 0.43273 0.36197 0.0
C1015 C 0.42569 0.36262 0.38787 0.0
H1016 H 0.47166 0.34041 0.33783 0.0
C1017 C 0.47098 0.25226 0.38448 0.0
C1018 C 0.49964 0.24948 0.37931 0.0
C1019 C 0.45674 0.27731 0.38034 0.0
C1020 C 0.45903 0.34644 0.35196 0.0
H1021 H 0.35075 0.43442 0.39014 0.0
H1022 H 0.37397 0.38964 0.38389 0.0
H1023 H 0.4466 0.38554 0.33704 0.0
H1024 H 0.53545 0.27032 0.36445 0.0
H1025 H 0.5105 0.31461 0.35742 0.0
H1026 H 0.43807 0.32409 0.40298 0.0
C1027 C 0.38451 0.40865 0.37858 0.0
C1028 C 0.44468 0.37227 0.35152 0.0
C1029 C 0.37106 0.43432 0.38202 0.0
C1030 C 0.51334 0.27182 0.36856 0.0
C1031 C 0.49904 0.29718 0.36456 0.0
C1032 C 0.43988 0.33702 0.3883 0.0
C1033 C 0.41164 0.40754 0.36937 0.0
C1034 C 0.42753 0.38048 0.36939 0.0
C1035 C 0.47082 0.30049 0.37114 0.0
C1036 C 0.45645 0.32835 0.37028 0.0
H1037 H 0.42098 0.47777 0.36054 0.0
H1038 H 0.44487 0.43266 0.35481 0.0
H1039 H 0.41346 0.36857 0.40225 0.0
H1040 H 0.4597 0.23528 0.39246 0.0
H1041 H 0.43482 0.27882 0.38504 0.0
C1042 C 0.05341 0.4095 0.37595 0.0
C1043 C 0.05283 0.38187 0.38411 0.0
C1044 C 0.07913 0.42318 0.37235 0.0
C1045 C 0.15334 0.41875 0.39125 0.0
H1046 H 0.16626 0.47667 0.34731 0.0
C1047 C 0.26185 0.46905 0.38156 0.0
C1048 C 0.26263 0.49859 0.38181 0.0
C1049 C 0.23651 0.45477 0.3785 0.0
C1050 C 0.16286 0.46059 0.3597 0.0
H1051 H 0.07855 0.34617 0.39319 0.0
H1052 H 0.12318 0.36935 0.38596 0.0
H1053 H 0.12161 0.45099 0.34748 0.0
H1054 H 0.2374 0.53619 0.37763 0.0
H1055 H 0.19302 0.51106 0.37218 0.0
H1056 H 0.19447 0.42816 0.40341 0.0
C1057 C 0.10396 0.38103 0.38321 0.0
C1058 C 0.13727 0.4459 0.35985 0.0
C1059 C 0.07836 0.36759 0.38716 0.0
C1060 C 0.23759 0.51345 0.37761 0.0
C1061 C 0.21216 0.49907 0.37442 0.0
C1062 C 0.17888 0.43315 0.39093 0.0
C1063 C 0.10478 0.40936 0.37657 0.0
C1064 C 0.13218 0.42473 0.37565 0.0
C1065 C 0.21125 0.46958 0.37549 0.0
C1066 C 0.18401 0.45422 0.37518 0.0
H1067 H 0.03405 0.4211 0.37358 0.0
H1068 H 0.07882 0.445 0.36735 0.0
H1069 H 0.15005 0.40328 0.40411 0.0
H1070 H 0.2807 0.45684 0.38448 0.0
H1071 H 0.23658 0.43203 0.37901 0.0
C1072 C 0.40826 0.05568 0.86617 0.0
C1073 C 0.38251 0.05644 0.87762 0.0
C1074 C 0.42305 0.08052 0.86183 0.0
C1075 C 0.41674 0.15757 0.85827 0.0
H1076 H 0.4927 0.15896 0.88157 0.0
C1077 C 0.47107 0.26056 0.88271 0.0
C1078 C 0.50055 0.26294 0.88208 0.0
C1079 C 0.45779 0.23535 0.87729 0.0
C1080 C 0.4718 0.15893 0.87446 0.0
H1081 H 0.35134 0.08392 0.8923 0.0
H1082 H 0.37677 0.12726 0.88418 0.0
H1083 H 0.46689 0.11479 0.88026 0.0
H1084 H 0.53905 0.24081 0.874 0.0
H1085 H 0.51576 0.19687 0.86391 0.0
H1086 H 0.42143 0.2016 0.85247 0.0
C1087 C 0.38564 0.10747 0.87875 0.0
C1088 C 0.45696 0.13355 0.8738 0.0
C1089 C 0.37111 0.08265 0.88346 0.0
C1090 C 0.51633 0.23973 0.87479 0.0
C1091 C 0.50295 0.21443 0.86918 0.0
C1092 C 0.43169 0.18287 0.85862 0.0
C1093 C 0.41212 0.10663 0.86844 0.0
C1094 C 0.42902 0.13275 0.86624 0.0
C1095 C 0.4735 0.21172 0.87081 0.0
C1096 C 0.45915 0.18411 0.86735 0.0
H1097 H 0.41772 0.03583 0.86158 0.0
H1098 H 0.44334 0.07928 0.85374 0.0
H1099 H 0.39535 0.1575 0.85209 0.0
H1100 H 0.45811 0.27793 0.8882 0.0
H1101 H 0.43518 0.23417 0.87914 0.0
C1102 C 0.24847 0.46964 0.8818 0.0
C1103 C 0.24749 0.49917 0.88151 0.0
C1104 C 0.27386 0.45541 0.8788 0.0
C1105 C 0.34714 0.46093 0.85916 0.0
H1106 H 0.36099 0.40505 0.90451 0.0
C1107 C 0.45705 0.4104 0.87486 0.0
C1108 C 0.45788 0.38308 0.88364 0.0
C1109 C 0.43123 0.42394 0.87136 0.0
C1110 C 0.35741 0.42011 0.89139 0.0
H1111 H 0.27243 0.53677 0.87643 0.0
H1112 H 0.3169 0.51173 0.87104 0.0
H1113 H 0.31649 0.42982 0.90385 0.0
H1114 H 0.43244 0.34773 0.89394 0.0
H1115 H 0.3876 0.37061 0.88685 0.0
H1116 H 0.38816 0.45101 0.84661 0.0
C1117 C 0.29787 0.4997 0.87368 0.0
C1118 C 0.33182 0.43445 0.8911 0.0
C1119 C 0.27238 0.51404 0.87682 0.0
C1120 C 0.43245 0.36891 0.8874 0.0
C1121 C 0.40673 0.3822 0.88354 0.0
C1122 C 0.37277 0.44629 0.85928 0.0
C1123 C 0.29898 0.47026 0.87529 0.0
C1124 C 0.32632 0.45501 0.87501 0.0
C1125 C 0.40569 0.41028 0.87628 0.0
C1126 C 0.37824 0.42561 0.87541 0.0
H1127 H 0.22975 0.45739 0.8851 0.0
H1128 H 0.27394 0.43269 0.87973 0.0
H1129 H 0.34346 0.47661 0.8465 0.0
H1130 H 0.47633 0.42193 0.87196 0.0
H1131 H 0.4314 0.44557 0.86586 0.0
C1132 C 0.99819 0.27097 0.86809 0.0
C1133 C 0.01144 0.24871 0.8793 0.0
C1134 C 0.01263 0.29629 0.86432 0.0
C1135 C 0.07069 0.33646 0.88933 0.0
H1136 H 0.06615 0.38426 0.83752 0.0
C1137 C 0.13942 0.43404 0.88407 0.0
C1138 C 0.12664 0.45916 0.87723 0.0
C1139 C 0.12617 0.40826 0.88068 0.0
C1140 C 0.06745 0.37121 0.85215 0.0
H1141 H 0.05082 0.23465 0.89357 0.0
H1142 H 0.07597 0.27815 0.8866 0.0
H1143 H 0.04118 0.3391 0.83798 0.0
H1144 H 0.09058 0.47679 0.86027 0.0
H1145 H 0.06701 0.43153 0.85463 0.0
H1146 H 0.09636 0.36827 0.90377 0.0
C1147 C 0.05425 0.27659 0.88132 0.0
C1148 C 0.05316 0.34536 0.85241 0.0
C1149 C 0.03987 0.25155 0.88521 0.0
C1150 C 0.101 0.45776 0.86566 0.0
C1151 C 0.0875 0.43182 0.86245 0.0
C1152 C 0.08481 0.3621 0.8891 0.0
C1153 C 0.04056 0.29967 0.87162 0.0
C1154 C 0.05494 0.32752 0.87094 0.0
C1155 C 0.09952 0.40685 0.87063 0.0
C1156 C 0.08375 0.37972 0.87044 0.0
H1157 H 0.97626 0.26943 0.8634 0.0
H1158 H 1.00147 0.31365 0.85679 0.0
H1159 H 0.07187 0.32372 0.90416 0.0
H1160 H 0.15936 0.43438 0.89276 0.0
H1161 H 0.13647 0.38942 0.88661 0.0
C1162 C 0.2351 0.99677 0.88231 0.0
C1163 C 0.26017 0.01241 0.88334 0.0
C1164 C 0.20914 0.01029 0.87925 0.0
C1165 C 0.17641 0.07944 0.88897 0.0
H1166 H 0.11428 0.04998 0.85455 0.0
C1167 C 0.07267 0.14102 0.88214 0.0
C1168 C 0.04757 0.1256 0.88395 0.0
C1169 C 0.09843 0.12734 0.87902 0.0
C1170 C 0.13134 0.0584 0.86439 0.0
H1171 H 0.27766 0.05434 0.88036 0.0
H1172 H 0.23274 0.07762 0.87478 0.0
H1173 H 0.15945 0.0254 0.8545 0.0
H1174 H 0.02991 0.08361 0.88299 0.0
H1175 H 0.07476 0.0598 0.87794 0.0
H1176 H 0.14845 0.11198 0.89934 0.0
C1177 C 0.23297 0.05504 0.87689 0.0
C1178 C 0.15726 0.04429 0.86433 0.0
C1179 C 0.25879 0.04161 0.87996 0.0
C1180 C 0.04878 0.09621 0.88162 0.0
C1181 C 0.07458 0.08251 0.87864 0.0
C1182 C 0.15058 0.09343 0.88911 0.0
C1183 C 0.20772 0.0397 0.87714 0.0
C1184 C 0.18014 0.05467 0.87662 0.0
C1185 C 0.09985 0.09784 0.87777 0.0
C1186 C 0.12763 0.08316 0.87683 0.0
H1187 H 0.23535 0.97427 0.8849 0.0
H1188 H 0.1901 0.99782 0.87959 0.0
H1189 H 0.19333 0.08774 0.89903 0.0
H1190 H 0.07255 0.16369 0.88365 0.0
H1191 H 0.11733 0.13994 0.87791 0.0
C1192 C 0.86951 0.92784 0.61628 0.0
C1193 C 0.88069 0.95382 0.62295 0.0
C1194 C 0.88388 0.90286 0.62074 0.0
C1195 C 0.95493 0.87648 0.62676 0.0
H1196 H 0.9186 0.80793 0.64614 0.0
C1197 C 0.01441 0.77038 0.62612 0.0
C1198 C 0.99901 0.74716 0.61836 0.0
C1199 C 1.00075 0.79561 0.63144 0.0
C1200 C 0.92908 0.8268 0.64052 0.0
H1201 H 0.91531 0.97385 0.64021 0.0
H1202 H 0.94069 0.93011 0.64762 0.0
H1203 H 0.89255 0.85205 0.64667 0.0
H1204 H 0.95693 0.73217 0.61087 0.0
H1205 H 0.93352 0.77588 0.6194 0.0
H1206 H 0.99091 0.85125 0.61938 0.0
C1207 C 0.9207 0.92918 0.63905 0.0
C1208 C 0.91415 0.85211 0.64096 0.0
C1209 C 0.90605 0.95417 0.63495 0.0
C1210 C 0.96959 0.74952 0.61679 0.0
C1211 C 0.95603 0.7747 0.6219 0.0
C1212 C 0.96976 0.85111 0.626 0.0
C1213 C 0.90998 0.90332 0.63165 0.0
C1214 C 0.92675 0.87712 0.63371 0.0
C1215 C 0.97139 0.79827 0.629 0.0
C1216 C 0.95685 0.82578 0.63241 0.0
H1217 H 0.85001 0.92689 0.60703 0.0
H1218 H 0.8752 0.88327 0.6147 0.0
H1219 H 0.9651 0.8954 0.62086 0.0
H1220 H 0.03707 0.76928 0.62766 0.0
H1221 H 0.01328 0.81312 0.63721 0.0
C1222 C 0.57282 0.86807 0.61849 0.0
C1223 C 0.54696 0.88238 0.61944 0.0
C1224 C 0.59816 0.88237 0.62209 0.0
C1225 C 0.62812 0.9536 0.61819 0.0
H1226 H 0.69225 0.92011 0.64772 0.0
C1227 C 0.73413 0.0124 0.62428 0.0
C1228 C 0.75822 0.99639 0.61946 0.0
C1229 C 0.70816 0.99928 0.62801 0.0
C1230 C 0.6746 0.92972 0.6393 0.0
H1231 H 0.52758 0.92279 0.62605 0.0
H1232 H 0.57164 0.94755 0.63248 0.0
H1233 H 0.64727 0.89541 0.64735 0.0
H1234 H 0.77398 0.95384 0.61587 0.0
H1235 H 0.72895 0.93118 0.62205 0.0
H1236 H 0.65548 0.98753 0.60961 0.0
C1237 C 0.57236 0.92536 0.62857 0.0
C1238 C 0.64879 0.91554 0.63911 0.0
C1239 C 0.54705 0.91107 0.62503 0.0
C1240 C 0.75592 0.96692 0.61946 0.0
C1241 C 0.73002 0.95385 0.62316 0.0
C1242 C 0.65391 0.96773 0.61833 0.0
C1243 C 0.59828 0.91134 0.62671 0.0
C1244 C 0.62529 0.92715 0.62833 0.0
C1245 C 0.70565 0.96984 0.62703 0.0
C1246 C 0.67762 0.95584 0.62864 0.0
H1247 H 0.57361 0.84598 0.61425 0.0
H1248 H 0.61771 0.87093 0.62037 0.0
H1249 H 0.61062 0.963 0.60943 0.0
H1250 H 0.73509 0.03512 0.6245 0.0
H1251 H 0.68995 0.01227 0.63131 0.0
C1252 C 0.49621 0.73675 0.6342 0.0
C1253 C 0.50981 0.75936 0.62373 0.0
C1254 C 0.51077 0.71158 0.63829 0.0
C1255 C 0.57132 0.6728 0.61543 0.0
H1256 H 0.56293 0.62341 0.66601 0.0
C1257 C 0.6403 0.57568 0.62232 0.0
C1258 C 0.62693 0.55022 0.62745 0.0
C1259 C 0.62672 0.60127 0.62583 0.0
C1260 C 0.56535 0.63694 0.65173 0.0
H1261 H 0.54979 0.77422 0.61114 0.0
H1262 H 0.57517 0.73101 0.61877 0.0
H1263 H 0.53757 0.66835 0.66505 0.0
H1264 H 0.58942 0.5317 0.64162 0.0
H1265 H 0.56534 0.57665 0.64752 0.0
H1266 H 0.59858 0.6417 0.60186 0.0
C1267 C 0.55311 0.73215 0.62316 0.0
C1268 C 0.55082 0.66266 0.65118 0.0
C1269 C 0.5386 0.75702 0.61891 0.0
C1270 C 0.60032 0.551 0.6376 0.0
C1271 C 0.58652 0.57676 0.64094 0.0
C1272 C 0.58573 0.64732 0.61598 0.0
C1273 C 0.53918 0.70871 0.63208 0.0
C1274 C 0.55393 0.68105 0.63309 0.0
C1275 C 0.59919 0.60213 0.6343 0.0
C1276 C 0.58326 0.62915 0.63421 0.0
H1277 H 0.474 0.73792 0.63805 0.0
H1278 H 0.49939 0.69395 0.6452 0.0
H1279 H 0.57358 0.68594 0.60091 0.0
H1280 H 0.66095 0.57578 0.61472 0.0
H1281 H 0.63746 0.62041 0.62111 0.0
C1282 C 0.93243 0.63691 0.61445 0.0
C1283 C 0.95851 0.6253 0.6205 0.0
C1284 C 0.90733 0.62296 0.61938 0.0
C1285 C 0.87957 0.55239 0.62651 0.0
H1286 H 0.81245 0.59068 0.64684 0.0
C1287 C 0.77222 0.49501 0.63009 0.0
C1288 C 0.7488 0.51048 0.62276 0.0
C1289 C 0.79797 0.50839 0.63429 0.0
C1290 C 0.8309 0.57965 0.64095 0.0
H1291 H 0.97858 0.59025 0.63708 0.0
H1292 H 0.9346 0.56558 0.64536 0.0
H1293 H 0.85717 0.6157 0.64596 0.0
H1294 H 0.73406 0.55245 0.61486 0.0
H1295 H 0.77864 0.57541 0.62152 0.0
H1296 H 0.85327 0.5168 0.62039 0.0
C1297 C 0.9337 0.5856 0.63689 0.0
C1298 C 0.85657 0.594 0.64058 0.0
C1299 C 0.95884 0.59983 0.63229 0.0
C1300 C 0.75154 0.53976 0.6205 0.0
C1301 C 0.77724 0.55305 0.62451 0.0
C1302 C 0.85382 0.53812 0.6266 0.0
C1303 C 0.90769 0.59682 0.63018 0.0
C1304 C 0.88111 0.5807 0.633 0.0
C1305 C 0.80099 0.53756 0.63114 0.0
C1306 C 0.82897 0.55171 0.63341 0.0
H1307 H 0.93145 0.6565 0.60537 0.0
H1308 H 0.88768 0.63206 0.61385 0.0
H1309 H 0.89807 0.54165 0.62036 0.0
H1310 H 0.77088 0.47245 0.63212 0.0
H1311 H 0.81559 0.49577 0.63974 0.0
C1312 C 0.61255 0.10853 0.0637 0.0
C1313 C 0.63242 0.11246 0.0807 0.0
C1314 C 0.60477 0.13072 0.04995 0.0
C1315 C 0.59818 0.20605 0.04473 0.0
H1316 H 0.60633 0.19222 0.98173 0.0
C1317 C 0.54679 0.27328 0.97469 0.0
C1318 C 0.56449 0.28062 0.95695 0.0
C1319 C 0.5562 0.25496 0.99127 0.0
C1320 C 0.60406 0.19645 0.99926 0.0
H1321 H 0.65906 0.14316 0.09692 0.0
H1322 H 0.64468 0.18243 0.07302 0.0
H1323 H 0.62042 0.15613 0.00823 0.0
H1324 H 0.6062 0.27481 0.94304 0.0
H1325 H 0.62221 0.24246 0.97164 0.0
H1326 H 0.58102 0.24618 0.0356 0.0
C1327 C 0.63544 0.1619 0.07041 0.0
C1328 C 0.612 0.17577 0.0144 0.0
C1329 C 0.64368 0.13946 0.08403 0.0
C1330 C 0.59194 0.26959 0.9564 0.0
C1331 C 0.60114 0.25099 0.97275 0.0
C1332 C 0.5897 0.22662 0.02951 0.0
C1333 C 0.61631 0.15753 0.053 0.0
C1334 C 0.60906 0.1803 0.03726 0.0
C1335 C 0.58331 0.24329 0.99025 0.0
C1336 C 0.59257 0.22197 0.00662 0.0
H1337 H 0.60356 0.08802 0.0605 0.0
H1338 H 0.58985 0.12684 0.03673 0.0
H1339 H 0.5956 0.20995 0.06228 0.0
H1340 H 0.5256 0.28152 0.97568 0.0
H1341 H 0.54198 0.24923 0.00453 0.0
C1342 C 0.22874 0.59447 0.95772 0.0
C1343 C 0.22521 0.56572 0.95305 0.0
C1344 C 0.24682 0.60323 0.9747 0.0
C1345 C 0.30959 0.57998 0.00467 0.0
H1346 H 0.29101 0.63832 0.047 0.0
C1347 C 0.38602 0.60659 0.07486 0.0
C1348 C 0.38995 0.63501 0.08027 0.0
C1349 C 0.36376 0.59828 0.06129 0.0
C1350 C 0.29667 0.62221 0.03516 0.0
H1351 H 0.23741 0.52368 0.96307 0.0
H1352 H 0.26898 0.53899 0.99244 0.0
H1353 H 0.25625 0.62394 0.01934 0.0
H1354 H 0.37307 0.67695 0.0762 0.0
H1355 H 0.33448 0.66256 0.05199 0.0
H1356 H 0.35011 0.5786 0.01977 0.0
C1357 C 0.25788 0.55474 0.9829 0.0
C1358 C 0.2767 0.61394 0.01935 0.0
C1359 C 0.23965 0.54598 0.96611 0.0
C1360 C 0.37042 0.65485 0.07249 0.0
C1361 C 0.34828 0.64656 0.05861 0.0
C1362 C 0.32958 0.58839 0.02025 0.0
C1363 C 0.26196 0.58346 0.98721 0.0
C1364 C 0.28292 0.59259 0.00403 0.0
C1365 C 0.34506 0.61821 0.0524 0.0
C1366 C 0.32338 0.60947 0.03586 0.0
H1367 H 0.21784 0.61024 0.94806 0.0
H1368 H 0.24963 0.62551 0.97756 0.0
H1369 H 0.31524 0.56387 0.9928 0.0
H1370 H 0.40057 0.59075 0.08073 0.0
H1371 H 0.36155 0.57618 0.05746 0.0
C1372 C 0.87439 0.36806 0.08733 0.0
C1373 C 0.87901 0.39577 0.08023 0.0
C1374 C 0.88412 0.34535 0.07457 0.0
C1375 C 0.93453 0.32988 0.02865 0.0
H1376 H 0.89047 0.2622 0.02031 0.0
C1377 C 0.94326 0.25924 0.95231 0.0
C1378 C 0.95042 0.23101 0.95603 0.0
C1379 C 0.93582 0.27668 0.96992 0.0
C1380 C 0.90311 0.28086 0.02277 0.0
H1381 H 0.89545 0.42138 0.0536 0.0
H1382 H 0.9116 0.38241 0.03133 0.0
H1383 H 0.87452 0.29802 0.0467 0.0
H1384 H 0.95481 0.19872 0.98109 0.0
H1385 H 0.94085 0.22938 0.01206 0.0
H1386 H 0.96215 0.31346 0.00381 0.0
C1387 C 0.90182 0.37786 0.04712 0.0
C1388 C 0.89407 0.30134 0.0379 0.0
C1389 C 0.89248 0.40031 0.05989 0.0
C1390 C 0.94955 0.22045 0.97778 0.0
C1391 C 0.94146 0.23785 0.99542 0.0
C1392 C 0.94323 0.30972 0.01337 0.0
C1393 C 0.8983 0.35004 0.0544 0.0
C1394 C 0.9093 0.32649 0.04057 0.0
C1395 C 0.93481 0.26618 0.9916 0.0
C1396 C 0.92732 0.28534 0.00995 0.0
H1397 H 0.86389 0.36399 0.10291 0.0
H1398 H 0.881 0.32422 0.08068 0.0
H1399 H 0.94731 0.34851 0.03073 0.0
H1400 H 0.94379 0.26805 0.93578 0.0
H1401 H 0.93068 0.29844 0.96659 0.0
C1402 C 0.28178 0.92128 0.96012 0.0
C1403 C 0.28617 0.95021 0.95687 0.0
C1404 C 0.26473 0.91164 0.97737 0.0
C1405 C 0.20702 0.93463 0.01415 0.0
H1406 H 0.22383 0.86531 0.04512 0.0
C1407 C 0.13553 0.89334 0.08411 0.0
C1408 C 0.12849 0.86466 0.08313 0.0
C1409 C 0.15706 0.90423 0.07088 0.0
C1410 C 0.21876 0.88462 0.03654 0.0
H1411 H 0.27662 0.99163 0.96978 0.0
H1412 H 0.24714 0.97477 1.00008 0.0
H1413 H 0.25727 0.88384 0.0182 0.0
H1414 H 0.13937 0.82483 0.06794 0.0
H1415 H 0.17694 0.84384 0.04493 0.0
H1416 H 0.1684 0.93527 0.03232 0.0
C1417 C 0.25654 0.95955 0.989 0.0
C1418 C 0.23792 0.89525 0.02108 0.0
C1419 C 0.27361 0.96922 0.9717 0.0
C1420 C 0.14428 0.84698 0.06922 0.0
C1421 C 0.1659 0.85788 0.05604 0.0
C1422 C 0.18792 0.92405 0.02966 0.0
C1423 C 0.25164 0.93062 0.99192 0.0
C1424 C 0.23216 0.92024 0.00948 0.0
C1425 C 0.17219 0.88674 0.05639 0.0
C1426 C 0.1934 0.89876 0.04089 0.0
H1427 H 0.29112 0.90596 0.94909 0.0
H1428 H 0.26119 0.88926 0.97888 0.0
H1429 H 0.20161 0.95366 0.00531 0.0
H1430 H 0.12384 0.90762 0.0946 0.0
H1431 H 0.16163 0.92648 0.07181 0.0
C1432 C 0.15482 0.86742 0.4228 0.0
C1433 C 0.13504 0.88789 0.41656 0.0
C1434 C 0.14675 0.84459 0.43599 0.0
C1435 C 0.0851 0.80422 0.45603 0.0
H1436 H 0.1309 0.79119 0.50811 0.0
C1437 C 0.04414 0.74153 0.53141 0.0
C1438 C 0.06329 0.72536 0.54373 0.0
C1439 C 0.05352 0.75878 0.51416 0.0
C1440 C 0.11807 0.79409 0.49348 0.0
H1441 H 0.09103 0.89968 0.41845 0.0
H1442 H 0.077 0.85983 0.44112 0.0
H1443 H 0.14638 0.82484 0.48034 0.0
H1444 H 0.10724 0.71386 0.54697 0.0
H1445 H 0.12346 0.74331 0.51661 0.0
H1446 H 0.05672 0.77357 0.46914 0.0
C1447 C 0.09872 0.86136 0.43587 0.0
C1448 C 0.12698 0.81346 0.47754 0.0
C1449 C 0.10681 0.88429 0.42293 0.0
C1450 C 0.09193 0.72628 0.53799 0.0
C1451 C 0.10127 0.74332 0.52062 0.0
C1452 C 0.07628 0.78467 0.47188 0.0
C1453 C 0.11868 0.84157 0.44298 0.0
C1454 C 0.11042 0.81905 0.45878 0.0
C1455 C 0.08226 0.76011 0.50864 0.0
C1456 C 0.09244 0.77962 0.491 0.0
H1457 H 0.17676 0.86968 0.41834 0.0
H1458 H 0.16258 0.82955 0.44107 0.0
H1459 H 0.07202 0.80783 0.44163 0.0
H1460 H 0.02195 0.74142 0.53544 0.0
H1461 H 0.03826 0.77166 0.50557 0.0
C1462 C 0.77985 0.09086 0.54328 0.0
C1463 C 0.78268 0.06182 0.54692 0.0
C1464 C 0.76284 0.10102 0.52619 0.0
C1465 C 0.72673 0.08085 0.474 0.0
H1466 H 0.67912 0.14446 0.48815 0.0
C1467 C 0.63257 0.11633 0.41938 0.0
C1468 C 0.62668 0.14524 0.41808 0.0
C1469 C 0.65395 0.10636 0.43326 0.0
C1470 C 0.69257 0.12698 0.48374 0.0
H1471 H 0.77032 0.02069 0.53493 0.0
H1472 H 0.74035 0.03847 0.50522 0.0
H1473 H 0.71165 0.12659 0.51578 0.0
H1474 H 0.6397 0.18641 0.42959 0.0
H1475 H 0.67721 0.16909 0.45337 0.0
H1476 H 0.70727 0.08114 0.44196 0.0
C1477 C 0.75153 0.05338 0.51551 0.0
C1478 C 0.71125 0.11668 0.49964 0.0
C1479 C 0.76862 0.04318 0.53262 0.0
C1480 C 0.64355 0.164 0.43021 0.0
C1481 C 0.66493 0.15404 0.44402 0.0
C1482 C 0.708 0.09119 0.45804 0.0
C1483 C 0.74813 0.08245 0.51227 0.0
C1484 C 0.72858 0.09348 0.49502 0.0
C1485 C 0.66997 0.12506 0.44616 0.0
C1486 C 0.69066 0.11439 0.46272 0.0
H1487 H 0.79059 0.10587 0.55378 0.0
H1488 H 0.76117 0.12351 0.52393 0.0
H1489 H 0.73998 0.06315 0.46978 0.0
H1490 H 0.6199 0.10125 0.41039 0.0
H1491 H 0.65706 0.0839 0.4346 0.0
C1492 C 0.41974 0.76935 0.5458 0.0
C1493 C 0.44732 0.77977 0.54603 0.0
C1494 C 0.41017 0.75294 0.52816 0.0
C1495 C 0.42898 0.72849 0.47078 0.0
H1496 H 0.37488 0.67022 0.48478 0.0
C1497 C 0.40461 0.62873 0.41791 0.0
C1498 C 0.37599 0.62306 0.41403 0.0
C1499 C 0.41266 0.65103 0.43162 0.0
C1500 C 0.38978 0.68659 0.4806 0.0
H1501 H 0.48654 0.78148 0.52793 0.0
H1502 H 0.47054 0.75147 0.49768 0.0
H1503 H 0.39064 0.70195 0.51372 0.0
H1504 H 0.33344 0.63671 0.42111 0.0
H1505 H 0.34758 0.67521 0.44557 0.0
H1506 H 0.42908 0.71149 0.4378 0.0
C1507 C 0.45578 0.7567 0.51068 0.0
C1508 C 0.39876 0.70501 0.49716 0.0
C1509 C 0.46511 0.77378 0.5281 0.0
C1510 C 0.35564 0.64074 0.42356 0.0
C1511 C 0.36369 0.66263 0.43767 0.0
C1512 C 0.42042 0.70957 0.45432 0.0
C1513 C 0.4282 0.74578 0.51052 0.0
C1514 C 0.41845 0.72636 0.49255 0.0
C1515 C 0.39225 0.66767 0.44211 0.0
C1516 C 0.40067 0.68854 0.45908 0.0
H1517 H 0.40543 0.77406 0.55926 0.0
H1518 H 0.38855 0.74588 0.52847 0.0
H1519 H 0.44374 0.74482 0.46634 0.0
H1520 H 0.42076 0.6154 0.41088 0.0
H1521 H 0.4348 0.65438 0.4349 0.0
C1522 C 0.88807 0.40194 0.43244 0.0
C1523 C 0.89073 0.37417 0.42479 0.0
C1524 C 0.86478 0.41008 0.44497 0.0
C1525 C 0.81374 0.38175 0.4838 0.0
H1526 H 0.77599 0.45319 0.47571 0.0
C1527 C 0.72589 0.41764 0.54331 0.0
C1528 C 0.72566 0.44613 0.54944 0.0
C1529 C 0.74297 0.40826 0.52598 0.0
C1530 C 0.78647 0.43329 0.47837 0.0
H1531 H 0.87072 0.33329 0.42395 0.0
H1532 H 0.83001 0.34751 0.44616 0.0
H1533 H 0.81117 0.43789 0.4489 0.0
H1534 H 0.74289 0.48716 0.54191 0.0
H1535 H 0.77328 0.47074 0.51217 0.0
H1536 H 0.79012 0.37754 0.51369 0.0
C1537 C 0.846 0.36295 0.44231 0.0
C1538 C 0.80652 0.42448 0.46291 0.0
C1539 C 0.86917 0.35488 0.42947 0.0
C1540 C 0.74247 0.4651 0.53754 0.0
C1541 C 0.7598 0.45566 0.52037 0.0
C1542 C 0.79393 0.39069 0.49939 0.0
C1543 C 0.84375 0.39057 0.4504 0.0
C1544 C 0.8206 0.39876 0.4656 0.0
C1545 C 0.7605 0.42705 0.51447 0.0
C1546 C 0.78025 0.41675 0.49705 0.0
H1547 H 0.90431 0.41733 0.42915 0.0
H1548 H 0.86379 0.43141 0.45115 0.0
H1549 H 0.82453 0.36201 0.48648 0.0
H1550 H 0.71293 0.40252 0.55198 0.0
H1551 H 0.74244 0.3862 0.52166 0.0
C1552 C 0.47029 0.74683 0.03546 0.0
C1553 C 0.45021 0.73072 0.04688 0.0
C1554 C 0.46204 0.76549 0.01879 0.0
C1555 C 0.40464 0.78248 0.97979 0.0
H1556 H 0.43615 0.85747 0.982 0.0
C1557 C 0.36112 0.87516 0.92724 0.0
C1558 C 0.38012 0.89596 0.92026 0.0
C1559 C 0.37007 0.85327 0.94108 0.0
C1560 C 0.42747 0.83651 0.9808 0.0
H1561 H 0.40572 0.721 0.04916 0.0
H1562 H 0.3914 0.75348 0.01997 0.0
H1563 H 0.45112 0.82256 0.00887 0.0
H1564 H 0.42372 0.9092 0.92135 0.0
H1565 H 0.43949 0.87067 0.94463 0.0
H1566 H 0.38109 0.79639 0.95159 0.0
C1567 C 0.41353 0.75166 0.02396 0.0
C1568 C 0.43603 0.8165 0.99632 0.0
C1569 C 0.42174 0.73318 0.04079 0.0
C1570 C 0.40848 0.89365 0.92656 0.0
C1571 C 0.41747 0.87164 0.94012 0.0
C1572 C 0.39623 0.80248 0.96409 0.0
C1573 C 0.43355 0.76831 0.01297 0.0
C1574 C 0.4247 0.78926 0.99604 0.0
C1575 C 0.39829 0.85155 0.94808 0.0
C1576 C 0.40751 0.82981 0.9644 0.0
H1577 H 0.49239 0.74544 0.03966 0.0
H1578 H 0.47801 0.77778 0.01046 0.0
H1579 H 0.39569 0.76159 0.97903 0.0
H1580 H 0.33907 0.87652 0.92288 0.0
H1581 H 0.35459 0.8384 0.94699 0.0
C1582 C 0.64052 0.35974 0.93128 0.0
C1583 C 0.61985 0.37869 0.92402 0.0
C1584 C 0.66271 0.369 0.94475 0.0
C1585 C 0.67951 0.42747 0.98324 0.0
H1586 H 0.75463 0.39592 0.98239 0.0
C1587 C 0.76809 0.47183 0.03813 0.0
C1588 C 0.78398 0.45205 0.05004 0.0
C1589 C 0.74994 0.4632 0.02121 0.0
C1590 C 0.73369 0.40482 0.98287 0.0
H1591 H 0.60723 0.42245 0.9239 0.0
H1592 H 0.64621 0.43868 0.94649 0.0
H1593 H 0.71997 0.38035 0.95508 0.0
H1594 H 0.79399 0.40772 0.05288 0.0
H1595 H 0.76234 0.39275 0.02333 0.0
H1596 H 0.69316 0.45194 0.01093 0.0
C1597 C 0.64492 0.41652 0.94258 0.0
C1598 C 0.71379 0.39586 0.96726 0.0
C1599 C 0.62266 0.40725 0.92943 0.0
C1600 C 0.78193 0.42352 0.04414 0.0
C1601 C 0.76395 0.41493 0.0271 0.0
C1602 C 0.6994 0.43654 0.99867 0.0
C1603 C 0.66477 0.39743 0.95103 0.0
C1604 C 0.68641 0.40709 0.96725 0.0
C1605 C 0.74742 0.43463 0.01566 0.0
C1606 C 0.7267 0.42533 0.99872 0.0
H1607 H 0.63877 0.33757 0.92753 0.0
H1608 H 0.67747 0.35364 0.95103 0.0
H1609 H 0.65848 0.4361 0.98419 0.0
H1610 H 0.76919 0.49397 0.04216 0.0
H1611 H 0.73773 0.47893 0.01252 0.0
C1612 C 0.08819 0.7676 0.04432 0.0
C1613 C 0.06136 0.78 0.04478 0.0
C1614 C 0.09664 0.75131 0.02623 0.0
C1615 C 0.06989 0.70436 0.98468 0.0
H1616 H 0.13982 0.71737 0.95336 0.0
C1617 C 0.10401 0.62943 0.91495 0.0
C1618 C 0.13277 0.62328 0.91299 0.0
C1619 C 0.09485 0.65164 0.92827 0.0
C1620 C 0.12041 0.7131 0.96207 0.0
H1621 H 0.0224 0.78517 0.02661 0.0
H1622 H 0.03688 0.7557 0.99527 0.0
H1623 H 0.12504 0.74983 0.98241 0.0
H1624 H 0.17457 0.63585 0.92315 0.0
H1625 H 0.15875 0.67369 0.94718 0.0
H1626 H 0.06578 0.66687 0.96566 0.0
C1627 C 0.05143 0.75904 0.00882 0.0
C1628 C 0.11188 0.73189 0.97861 0.0
C1629 C 0.04321 0.77592 0.02668 0.0
C1630 C 0.15227 0.64038 0.92407 0.0
C1631 C 0.1431 0.66218 0.93786 0.0
C1632 C 0.07868 0.68522 0.96853 0.0
C1633 C 0.07821 0.74656 0.00845 0.0
C1634 C 0.08659 0.72762 0.9901 0.0
C1635 C 0.11417 0.66781 0.94055 0.0
C1636 C 0.10416 0.68919 0.95699 0.0
H1637 H 0.10269 0.77055 0.05795 0.0
H1638 H 0.11733 0.74179 0.0264 0.0
H1639 H 0.05047 0.70041 0.99352 0.0
H1640 H 0.08849 0.61665 0.90652 0.0
H1641 H 0.07249 0.65569 0.92925 0.0
C1642 C 0.74208 0.04325 0.03271 0.0
C1643 C 0.72771 0.06176 0.04692 0.0
C1644 C 0.75911 0.05361 0.01561 0.0
C1645 C 0.79882 0.11725 0.99978 0.0
H1646 H 0.80262 0.08225 0.9419 0.0
C1647 C 0.86635 0.16531 0.93042 0.0
C1648 C 0.88281 0.14664 0.91786 0.0
C1649 C 0.8451 0.15527 0.94434 0.0
C1650 C 0.80197 0.09215 0.95803 0.0
H1651 H 0.71925 0.10575 0.05364 0.0
H1652 H 0.74861 0.12365 0.02389 0.0
H1653 H 0.77026 0.06379 0.96976 0.0
H1654 H 0.88904 0.10273 0.90962 0.0
H1655 H 0.85225 0.08525 0.93402 0.0
H1656 H 0.83073 0.1453 0.98835 0.0
C1657 C 0.74719 0.10114 0.02618 0.0
C1658 C 0.78342 0.08154 0.97401 0.0
C1659 C 0.7302 0.09082 0.04321 0.0
C1660 C 0.87668 0.11776 0.91892 0.0
C1661 C 0.85549 0.10771 0.93292 0.0
C1662 C 0.81736 0.12779 0.98387 0.0
C1663 C 0.76218 0.08272 0.01233 0.0
C1664 C 0.78161 0.09397 0.9951 0.0
C1665 C 0.83983 0.12628 0.94619 0.0
C1666 C 0.81923 0.11541 0.96277 0.0
H1667 H 0.74065 0.02075 0.03505 0.0
H1668 H 0.7705 0.03882 0.00536 0.0
H1669 H 0.79842 0.12703 0.01597 0.0
H1670 H 0.8704 0.18769 0.93 0.0
H1671 H 0.8331 0.17025 0.95397 0.0
C1672 C 0.96831 0.26148 0.46878 0.0
C1673 C 0.94859 0.27712 0.45658 0.0
C1674 C 0.95955 0.2435 0.48572 0.0
C1675 C 0.90082 0.22795 0.52384 0.0
H1676 H 0.93342 0.15337 0.5247 0.0
C1677 C 0.85682 0.13633 0.57739 0.0
C1678 C 0.87607 0.11636 0.58537 0.0
C1679 C 0.86588 0.15812 0.56351 0.0
C1680 C 0.92442 0.17425 0.52502 0.0
H1681 H 0.90417 0.28665 0.45312 0.0
H1682 H 0.88894 0.25521 0.48271 0.0
H1683 H 0.94884 0.18706 0.49707 0.0
H1684 H 0.92012 0.10466 0.5863 0.0
H1685 H 0.93599 0.14302 0.56292 0.0
H1686 H 0.8764 0.21508 0.55189 0.0
C1687 C 0.91119 0.25694 0.47916 0.0
C1688 C 0.93324 0.19356 0.50908 0.0
C1689 C 0.91993 0.2748 0.46209 0.0
C1690 C 0.90471 0.11957 0.58027 0.0
C1691 C 0.91378 0.14145 0.56666 0.0
C1692 C 0.8921 0.20864 0.53994 0.0
C1693 C 0.93088 0.24085 0.491 0.0
C1694 C 0.92157 0.22063 0.50828 0.0
C1695 C 0.8944 0.16049 0.55749 0.0
C1696 C 0.90382 0.18152 0.54075 0.0
H1697 H 0.99055 0.26282 0.46507 0.0
H1698 H 0.97528 0.23164 0.49471 0.0
H1699 H 0.89159 0.24874 0.52375 0.0
H1700 H 0.83457 0.13424 0.58084 0.0
H1701 H 0.85031 0.17226 0.55667 0.0
C1702 C 0.36638 0.84473 0.57138 0.0
C1703 C 0.38186 0.86278 0.58523 0.0
C1704 C 0.34477 0.85519 0.558 0.0
C1705 C 0.32232 0.92088 0.53103 0.0
H1706 H 0.2544 0.87897 0.5181 0.0
C1707 C 0.2371 0.96413 0.47185 0.0
C1708 C 0.22568 0.94502 0.45653 0.0
C1709 C 0.25394 0.9547 0.48935 0.0
C1710 C 0.27335 0.89085 0.5214 0.0
H1711 H 0.38587 0.90588 0.59645 0.0
H1712 H 0.34796 0.92401 0.57334 0.0
H1713 H 0.28728 0.86137 0.54585 0.0
H1714 H 0.22253 0.90083 0.44804 0.0
H1715 H 0.25206 0.88451 0.47832 0.0
H1716 H 0.30873 0.9501 0.50634 0.0
C1717 C 0.35283 0.90181 0.57259 0.0
C1718 C 0.2922 0.88076 0.53734 0.0
C1719 C 0.37442 0.89135 0.586 0.0
C1720 C 0.23101 0.91619 0.45946 0.0
C1721 C 0.24781 0.90678 0.47696 0.0
C1722 C 0.30351 0.93095 0.51509 0.0
C1723 C 0.33811 0.88397 0.55808 0.0
C1724 C 0.31706 0.89552 0.54221 0.0
C1725 C 0.25973 0.92592 0.49202 0.0
C1726 C 0.27891 0.91594 0.50991 0.0
H1727 H 0.3716 0.82263 0.57024 0.0
H1728 H 0.33409 0.84088 0.54689 0.0
H1729 H 0.34148 0.93256 0.53405 0.0
H1730 H 0.23334 0.98646 0.47019 0.0
H1731 H 0.26243 0.97 0.50081 0.0
C1732 C 0.65506 0.37007 0.57756 0.0
C1733 C 0.63467 0.38817 0.58651 0.0
C1734 C 0.64709 0.34792 0.56366 0.0
C1735 C 0.59018 0.30104 0.54737 0.0
H1736 H 0.6206 0.30644 0.48802 0.0
C1737 C 0.5448 0.23569 0.47454 0.0
C1738 C 0.56251 0.229 0.45672 0.0
C1739 C 0.55441 0.25298 0.49174 0.0
C1740 C 0.6123 0.30399 0.50458 0.0
H1741 H 0.58993 0.39645 0.58884 0.0
H1742 H 0.57602 0.35704 0.56523 0.0
H1743 H 0.63655 0.33882 0.51645 0.0
H1744 H 0.60452 0.23365 0.44346 0.0
H1745 H 0.62187 0.26217 0.4739 0.0
H1746 H 0.56647 0.26577 0.53588 0.0
C1747 C 0.59812 0.36024 0.56877 0.0
C1748 C 0.6214 0.32278 0.52085 0.0
C1749 C 0.6061 0.38279 0.58223 0.0
C1750 C 0.59029 0.2389 0.45685 0.0
C1751 C 0.60013 0.25551 0.47428 0.0
C1752 C 0.58151 0.28175 0.53122 0.0
C1753 C 0.61857 0.34306 0.55891 0.0
C1754 C 0.61024 0.32167 0.54232 0.0
C1755 C 0.5822 0.2634 0.49178 0.0
C1756 C 0.59222 0.2831 0.50947 0.0
H1757 H 0.67723 0.37388 0.58037 0.0
H1758 H 0.66323 0.33493 0.55622 0.0
H1759 H 0.58131 0.29976 0.56386 0.0
H1760 H 0.52323 0.22841 0.47477 0.0
H1761 H 0.53972 0.25878 0.50462 0.0
C1762 C 0.14089 0.65244 0.57355 0.0
C1763 C 0.12121 0.63278 0.58134 0.0
C1764 C 0.16311 0.64393 0.55985 0.0
C1765 C 0.18186 0.58546 0.52185 0.0
H1766 H 0.2551 0.62118 0.52088 0.0
C1767 C 0.27151 0.54391 0.46694 0.0
C1768 C 0.28575 0.56391 0.454 0.0
C1769 C 0.25342 0.55235 0.48392 0.0
C1770 C 0.23467 0.61112 0.52091 0.0
H1771 H 0.1104 0.58857 0.58201 0.0
H1772 H 0.14957 0.5736 0.55904 0.0
H1773 H 0.22038 0.63546 0.54857 0.0
H1774 H 0.29296 0.60853 0.44944 0.0
H1775 H 0.26143 0.62322 0.47926 0.0
H1776 H 0.19618 0.56102 0.49435 0.0
C1777 C 0.14743 0.59574 0.56275 0.0
C1778 C 0.21473 0.61933 0.53674 0.0
C1779 C 0.12508 0.60428 0.57614 0.0
C1780 C 0.28221 0.59257 0.459 0.0
C1781 C 0.26428 0.601 0.47616 0.0
C1782 C 0.20183 0.5771 0.50623 0.0
C1783 C 0.16627 0.61551 0.55383 0.0
C1784 C 0.18802 0.60659 0.53742 0.0
C1785 C 0.2493 0.58098 0.48855 0.0
C1786 C 0.22845 0.58982 0.50554 0.0
H1787 H 0.1383 0.6746 0.57708 0.0
H1788 H 0.17701 0.65982 0.5532 0.0
H1789 H 0.16134 0.57564 0.52137 0.0
H1790 H 0.27378 0.52167 0.46363 0.0
H1791 H 0.24246 0.53641 0.49336 0.0
loop_
_geom_bond_atom_site_label_1
_geom_bond_atom_site_label_2
_geom_bond_distance
_geom_bond_site_symmetry_2
_ccdc_geom_bond_type
Fe0 O2 1.918 . S
Fe0 O5 1.997 . S
Fe0 O6 2.002 . S
Fe0 O11 1.976 1_545 S
Fe0 O14 1.996 1_545 S
Fe1 O2 1.918 . S
Fe1 O9 1.997 . S
Fe1 O12 1.996 1_545 S
Fe1 O16 1.976 . S
Fe1 O19 2.002 . S
O2 Fe0 1.918 . S
O2 Fe1 1.918 . S
O2 Fe3 1.918 . S
Fe3 O2 1.918 . S
Fe3 O4 2.002 . S
Fe3 O13 1.976 . S
Fe3 O17 1.996 . S
Fe3 O20 1.997 . S
O4 Fe3 2.002 . S
O4 C21 1.295 . S
O5 Fe0 1.997 . S
O5 C21 1.235 . S
O6 Fe0 2.002 . S
O6 C7 1.295 . S
C7 O6 1.295 . S
C7 O9 1.235 . S
C8 O13 1.287 . S
C8 O14 1.255 1_545 S
O9 Fe1 1.997 . S
O9 C7 1.235 . S
C10 O16 1.287 . S
C10 O17 1.255 . S
O11 Fe0 1.976 1_565 S
O11 C18 1.287 . S
O12 Fe1 1.996 1_565 S
O12 C18 1.255 . S
O13 Fe3 1.976 . S
O13 C8 1.287 . S
O14 Fe0 1.996 1_565 S
O14 C8 1.255 1_565 S
C15 O19 1.295 . S
C15 O20 1.235 . S
O16 Fe1 1.976 . S
O16 C10 1.287 . S
O17 Fe3 1.996 . S
O17 C10 1.255 . S
C18 O11 1.287 . S
C18 O12 1.255 . S
O19 Fe1 2.002 . S
O19 C15 1.295 . S
O20 Fe3 1.997 . S
O20 C15 1.235 . S
C21 O4 1.295 . S
C21 O5 1.235 . S
Fe22 O24 1.918 . S
Fe22 O27 1.997 . S
Fe22 O28 2.002 . S
Fe22 O33 1.976 . S
Fe22 O36 1.996 . S
Fe23 O24 1.918 . S
Fe23 O31 1.997 . S
Fe23 O34 1.996 . S
Fe23 O38 1.976 . S
Fe23 O41 2.002 . S
O24 Fe22 1.918 . S
O24 Fe23 1.918 . S
O24 Fe25 1.918 . S
Fe25 O24 1.918 . S
Fe25 O26 2.002 . S
Fe25 O35 1.976 . S
Fe25 O39 1.996 . S
Fe25 O42 1.997 . S
O26 Fe25 2.002 . S
O26 C43 1.295 . S
O27 Fe22 1.997 . S
O27 C43 1.235 . S
O28 Fe22 2.002 . S
O28 C29 1.295 . S
C29 O28 1.295 . S
C29 O31 1.235 . S
C30 O35 1.287 . S
C30 O36 1.255 . S
O31 Fe23 1.997 . S
O31 C29 1.235 . S
C32 O38 1.287 . S
C32 O39 1.255 . S
O33 Fe22 1.976 . S
O33 C40 1.287 . S
O34 Fe23 1.996 . S
O34 C40 1.255 . S
O35 Fe25 1.976 . S
O35 C30 1.287 . S
O36 Fe22 1.996 . S
O36 C30 1.255 . S
C37 O41 1.295 . S
C37 O42 1.235 . S
O38 Fe23 1.976 . S
O38 C32 1.287 . S
O39 Fe25 1.996 . S
O39 C32 1.255 . S
C40 O33 1.287 . S
C40 O34 1.255 . S
O41 Fe23 2.002 . S
O41 C37 1.295 . S
O42 Fe25 1.997 . S
O42 C37 1.235 . S
C43 O26 1.295 . S
C43 O27 1.235 . S
Fe44 O46 1.918 . S
Fe44 O49 1.997 . S
Fe44 O50 2.002 . S
Fe44 O55 1.976 . S
Fe44 O58 1.996 . S
Fe45 O46 1.918 . S
Fe45 O53 1.997 . S
Fe45 O56 1.996 . S
Fe45 O60 1.976 . S
Fe45 O63 2.002 . S
O46 Fe44 1.918 . S
O46 Fe45 1.918 . S
O46 Fe47 1.918 . S
Fe47 O46 1.918 . S
Fe47 O48 2.002 . S
Fe47 O57 1.976 . S
Fe47 O61 1.996 . S
Fe47 O64 1.997 . S
O48 Fe47 2.002 . S
O48 C65 1.295 . S
O49 Fe44 1.997 . S
O49 C65 1.235 . S
O50 Fe44 2.002 . S
O50 C51 1.295 . S
C51 O50 1.295 . S
C51 O53 1.235 . S
C52 O57 1.287 . S
C52 O58 1.255 . S
O53 Fe45 1.997 . S
O53 C51 1.235 . S
C54 O60 1.287 . S
C54 O61 1.255 . S
O55 Fe44 1.976 . S
O55 C62 1.287 . S
O56 Fe45 1.996 . S
O56 C62 1.255 . S
O57 Fe47 1.976 . S
O57 C52 1.287 . S
O58 Fe44 1.996 . S
O58 C52 1.255 . S
C59 O63 1.295 . S
C59 O64 1.235 . S
O60 Fe45 1.976 . S
O60 C54 1.287 . S
O61 Fe47 1.996 . S
O61 C54 1.255 . S
C62 O55 1.287 . S
C62 O56 1.255 . S
O63 Fe45 2.002 . S
O63 C59 1.295 . S
O64 Fe47 1.997 . S
O64 C59 1.235 . S
C65 O48 1.295 . S
C65 O49 1.235 . S
Fe66 O68 1.918 . S
Fe66 O71 1.997 . S
Fe66 O72 2.002 . S
Fe66 O77 1.976 1_455 S
Fe66 O80 1.996 1_455 S
Fe67 O68 1.918 . S
Fe67 O75 1.997 . S
Fe67 O78 1.996 1_455 S
Fe67 O82 1.976 . S
Fe67 O85 2.002 . S
O68 Fe66 1.918 . S
O68 Fe67 1.918 . S
O68 Fe69 1.918 . S
Fe69 O68 1.918 . S
Fe69 O70 2.002 . S
Fe69 O79 1.976 . S
Fe69 O83 1.996 . S
Fe69 O86 1.997 . S
O70 Fe69 2.002 . S
O70 C87 1.295 . S
O71 Fe66 1.997 . S
O71 C87 1.235 . S
O72 Fe66 2.002 . S
O72 C73 1.295 . S
C73 O72 1.295 . S
C73 O75 1.235 . S
C74 O79 1.287 . S
C74 O80 1.255 1_455 S
O75 Fe67 1.997 . S
O75 C73 1.235 . S
C76 O82 1.287 . S
C76 O83 1.255 . S
O77 Fe66 1.976 1_655 S
O77 C84 1.287 . S
O78 Fe67 1.996 1_655 S
O78 C84 1.255 . S
O79 Fe69 1.976 . S
O79 C74 1.287 . S
O80 Fe66 1.996 1_655 S
O80 C74 1.255 1_655 S
C81 O85 1.295 . S
C81 O86 1.235 . S
O82 Fe67 1.976 . S
O82 C76 1.287 . S
O83 Fe69 1.996 . S
O83 C76 1.255 . S
C84 O77 1.287 . S
C84 O78 1.255 . S
O85 Fe67 2.002 . S
O85 C81 1.295 . S
O86 Fe69 1.997 . S
O86 C81 1.235 . S
C87 O70 1.295 . S
C87 O71 1.235 . S
Fe88 O90 1.918 . S
Fe88 O93 1.997 . S
Fe88 O94 2.002 . S
Fe88 O99 1.976 1_565 S
Fe88 O102 1.996 1_565 S
Fe89 O90 1.918 . S
Fe89 O97 1.997 . S
Fe89 O100 1.996 1_565 S
Fe89 O104 1.976 . S
Fe89 O107 2.002 . S
O90 Fe88 1.918 . S
O90 Fe89 1.918 . S
O90 Fe91 1.918 . S
Fe91 O90 1.918 . S
Fe91 O92 2.002 . S
Fe91 O101 1.976 . S
Fe91 O105 1.996 . S
Fe91 O108 1.997 . S
O92 Fe91 2.002 . S
O92 C109 1.295 . S
O93 Fe88 1.997 . S
O93 C109 1.235 . S
O94 Fe88 2.002 . S
O94 C95 1.295 . S
C95 O94 1.295 . S
C95 O97 1.235 . S
C96 O101 1.287 . S
C96 O102 1.255 1_565 S
O97 Fe89 1.997 . S
O97 C95 1.235 . S
C98 O104 1.287 . S
C98 O105 1.255 . S
O99 Fe88 1.976 1_545 S
O99 C106 1.287 . S
O100 Fe89 1.996 1_545 S
O100 C106 1.255 . S
O101 Fe91 1.976 . S
O101 C96 1.287 . S
O102 Fe88 1.996 1_545 S
O102 C96 1.255 1_545 S
C103 O107 1.295 . S
C103 O108 1.235 . S
O104 Fe89 1.976 . S
O104 C98 1.287 . S
O105 Fe91 1.996 . S
O105 C98 1.255 . S
C106 O99 1.287 . S
C106 O100 1.255 . S
O107 Fe89 2.002 . S
O107 C103 1.295 . S
O108 Fe91 1.997 . S
O108 C103 1.235 . S
C109 O92 1.295 . S
C109 O93 1.235 . S
Fe110 O112 1.918 . S
Fe110 O115 1.997 . S
Fe110 O116 2.002 . S
Fe110 O121 1.976 . S
Fe110 O124 1.996 . S
Fe111 O112 1.918 . S
Fe111 O119 1.997 . S
Fe111 O122 1.996 . S
Fe111 O126 1.976 . S
Fe111 O129 2.002 . S
O112 Fe110 1.918 . S
O112 Fe111 1.918 . S
O112 Fe113 1.918 . S
Fe113 O112 1.918 . S
Fe113 O114 2.002 . S
Fe113 O123 1.976 . S
Fe113 O127 1.996 . S
Fe113 O130 1.997 . S
O114 Fe113 2.002 . S
O114 C131 1.295 . S
O115 Fe110 1.997 . S
O115 C131 1.235 . S
O116 Fe110 2.002 . S
O116 C117 1.295 . S
C117 O116 1.295 . S
C117 O119 1.235 . S
C118 O123 1.287 . S
C118 O124 1.255 . S
O119 Fe111 1.997 . S
O119 C117 1.235 . S
C120 O126 1.287 . S
C120 O127 1.255 . S
O121 Fe110 1.976 . S
O121 C128 1.287 . S
O122 Fe111 1.996 . S
O122 C128 1.255 . S
O123 Fe113 1.976 . S
O123 C118 1.287 . S
O124 Fe110 1.996 . S
O124 C118 1.255 . S
C125 O129 1.295 . S
C125 O130 1.235 . S
O126 Fe111 1.976 . S
O126 C120 1.287 . S
O127 Fe113 1.996 . S
O127 C120 1.255 . S
C128 O121 1.287 . S
C128 O122 1.255 . S
O129 Fe111 2.002 . S
O129 C125 1.295 . S
O130 Fe113 1.997 . S
O130 C125 1.235 . S
C131 O114 1.295 . S
C131 O115 1.235 . S
Fe132 O134 1.918 . S
Fe132 O137 1.997 . S
Fe132 O138 2.002 . S
Fe132 O143 1.976 . S
Fe132 O146 1.996 . S
Fe133 O134 1.918 . S
Fe133 O141 1.997 . S
Fe133 O144 1.996 . S
Fe133 O148 1.976 . S
Fe133 O151 2.002 . S
O134 Fe132 1.918 . S
O134 Fe133 1.918 . S
O134 Fe135 1.918 . S
Fe135 O134 1.918 . S
Fe135 O136 2.002 . S
Fe135 O145 1.976 . S
Fe135 O149 1.996 . S
Fe135 O152 1.997 . S
O136 Fe135 2.002 . S
O136 C153 1.295 . S
O137 Fe132 1.997 . S
O137 C153 1.235 . S
O138 Fe132 2.002 . S
O138 C139 1.295 . S
C139 O138 1.295 . S
C139 O141 1.235 . S
C140 O145 1.287 . S
C140 O146 1.255 . S
O141 Fe133 1.997 . S
O141 C139 1.235 . S
C142 O148 1.287 . S
C142 O149 1.255 . S
O143 Fe132 1.976 . S
O143 C150 1.287 . S
O144 Fe133 1.996 . S
O144 C150 1.255 . S
O145 Fe135 1.976 . S
O145 C140 1.287 . S
O146 Fe132 1.996 . S
O146 C140 1.255 . S
C147 O151 1.295 . S
C147 O152 1.235 . S
O148 Fe133 1.976 . S
O148 C142 1.287 . S
O149 Fe135 1.996 . S
O149 C142 1.255 . S
C150 O143 1.287 . S
C150 O144 1.255 . S
O151 Fe133 2.002 . S
O151 C147 1.295 . S
O152 Fe135 1.997 . S
O152 C147 1.235 . S
C153 O136 1.295 . S
C153 O137 1.235 . S
Fe154 O156 1.918 . S
Fe154 O159 1.997 . S
Fe154 O160 2.002 . S
Fe154 O165 1.976 . S
Fe154 O168 1.996 1_655 S
Fe155 O156 1.918 . S
Fe155 O163 1.997 . S
Fe155 O166 1.996 . S
Fe155 O170 1.976 . S
Fe155 O173 2.002 . S
O156 Fe154 1.918 . S
O156 Fe155 1.918 . S
O156 Fe157 1.918 . S
Fe157 O156 1.918 . S
Fe157 O158 2.002 . S
Fe157 O167 1.976 1_655 S
Fe157 O171 1.996 1_655 S
Fe157 O174 1.997 . S
O158 Fe157 2.002 . S
O158 C175 1.295 . S
O159 Fe154 1.997 . S
O159 C175 1.235 . S
O160 Fe154 2.002 . S
O160 C161 1.295 . S
C161 O160 1.295 . S
C161 O163 1.235 . S
C162 O167 1.287 . S
C162 O168 1.255 . S
O163 Fe155 1.997 . S
O163 C161 1.235 . S
C164 O170 1.287 . S
C164 O171 1.255 1_655 S
O165 Fe154 1.976 . S
O165 C172 1.287 . S
O166 Fe155 1.996 . S
O166 C172 1.255 . S
O167 Fe157 1.976 1_455 S
O167 C162 1.287 . S
O168 Fe154 1.996 1_455 S
O168 C162 1.255 . S
C169 O173 1.295 . S
C169 O174 1.235 . S
O170 Fe155 1.976 . S
O170 C164 1.287 . S
O171 Fe157 1.996 1_455 S
O171 C164 1.255 1_455 S
C172 O165 1.287 . S
C172 O166 1.255 . S
O173 Fe155 2.002 . S
O173 C169 1.295 . S
O174 Fe157 1.997 . S
O174 C169 1.235 . S
C175 O158 1.295 . S
C175 O159 1.235 . S
Fe176 O178 1.918 . S
Fe176 O181 1.997 . S
Fe176 O182 2.002 . S
Fe176 O187 1.976 . S
Fe176 O190 1.996 . S
Fe177 O178 1.918 . S
Fe177 O185 1.997 . S
Fe177 O188 1.996 . S
Fe177 O192 1.976 1_565 S
Fe177 O195 2.002 . S
O178 Fe176 1.918 . S
O178 Fe177 1.918 . S
O178 Fe179 1.918 . S
Fe179 O178 1.918 . S
Fe179 O180 2.002 . S
Fe179 O189 1.976 1_565 S
Fe179 O193 1.996 1_565 S
Fe179 O196 1.997 . S
O180 Fe179 2.002 . S
O180 C197 1.295 . S
O181 Fe176 1.997 . S
O181 C197 1.235 . S
O182 Fe176 2.002 . S
O182 C183 1.295 . S
C183 O182 1.295 . S
C183 O185 1.235 . S
C184 O189 1.287 1_565 S
C184 O190 1.255 . S
O185 Fe177 1.997 . S
O185 C183 1.235 . S
C186 O192 1.287 . S
C186 O193 1.255 . S
O187 Fe176 1.976 . S
O187 C194 1.287 . S
O188 Fe177 1.996 . S
O188 C194 1.255 . S
O189 Fe179 1.976 1_545 S
O189 C184 1.287 1_545 S
O190 Fe176 1.996 . S
O190 C184 1.255 . S
C191 O195 1.295 . S
C191 O196 1.235 . S
O192 Fe177 1.976 1_545 S
O192 C186 1.287 . S
O193 Fe179 1.996 1_545 S
O193 C186 1.255 . S
C194 O187 1.287 . S
C194 O188 1.255 . S
O195 Fe177 2.002 . S
O195 C191 1.295 . S
O196 Fe179 1.997 . S
O196 C191 1.235 . S
C197 O180 1.295 . S
C197 O181 1.235 . S
Fe198 O200 1.918 . S
Fe198 O203 1.997 . S
Fe198 O204 2.002 . S
Fe198 O209 1.976 . S
Fe198 O212 1.996 . S
Fe199 O200 1.918 . S
Fe199 O207 1.997 . S
Fe199 O210 1.996 . S
Fe199 O214 1.976 . S
Fe199 O217 2.002 . S
O200 Fe198 1.918 . S
O200 Fe199 1.918 . S
O200 Fe201 1.918 . S
Fe201 O200 1.918 . S
Fe201 O202 2.002 . S
Fe201 O211 1.976 . S
Fe201 O215 1.996 . S
Fe201 O218 1.997 . S
O202 Fe201 2.002 . S
O202 C219 1.295 . S
O203 Fe198 1.997 . S
O203 C219 1.235 . S
O204 Fe198 2.002 . S
O204 C205 1.295 . S
C205 O204 1.295 . S
C205 O207 1.235 . S
C206 O211 1.287 . S
C206 O212 1.255 . S
O207 Fe199 1.997 . S
O207 C205 1.235 . S
C208 O214 1.287 . S
C208 O215 1.255 . S
O209 Fe198 1.976 . S
O209 C216 1.287 . S
O210 Fe199 1.996 . S
O210 C216 1.255 . S
O211 Fe201 1.976 . S
O211 C206 1.287 . S
O212 Fe198 1.996 . S
O212 C206 1.255 . S
C213 O217 1.295 . S
C213 O218 1.235 . S
O214 Fe199 1.976 . S
O214 C208 1.287 . S
O215 Fe201 1.996 . S
O215 C208 1.255 . S
C216 O209 1.287 . S
C216 O210 1.255 . S
O217 Fe199 2.002 . S
O217 C213 1.295 . S
O218 Fe201 1.997 . S
O218 C213 1.235 . S
C219 O202 1.295 . S
C219 O203 1.235 . S
Fe220 O222 1.918 . S
Fe220 O225 1.997 . S
Fe220 O226 2.002 . S
Fe220 O231 1.976 . S
Fe220 O234 1.996 . S
Fe221 O222 1.918 . S
Fe221 O229 1.997 . S
Fe221 O232 1.996 . S
Fe221 O236 1.976 . S
Fe221 O239 2.002 . S
O222 Fe220 1.918 . S
O222 Fe221 1.918 . S
O222 Fe223 1.918 . S
Fe223 O222 1.918 . S
Fe223 O224 2.002 . S
Fe223 O233 1.976 . S
Fe223 O237 1.996 . S
Fe223 O240 1.997 . S
O224 Fe223 2.002 . S
O224 C241 1.295 . S
O225 Fe220 1.997 . S
O225 C241 1.235 . S
O226 Fe220 2.002 . S
O226 C227 1.295 . S
C227 O226 1.295 . S
C227 O229 1.235 . S
C228 O233 1.287 . S
C228 O234 1.255 . S
O229 Fe221 1.997 . S
O229 C227 1.235 . S
C230 O236 1.287 . S
C230 O237 1.255 . S
O231 Fe220 1.976 . S
O231 C238 1.287 . S
O232 Fe221 1.996 . S
O232 C238 1.255 . S
O233 Fe223 1.976 . S
O233 C228 1.287 . S
O234 Fe220 1.996 . S
O234 C228 1.255 . S
C235 O239 1.295 . S
C235 O240 1.235 . S
O236 Fe221 1.976 . S
O236 C230 1.287 . S
O237 Fe223 1.996 . S
O237 C230 1.255 . S
C238 O231 1.287 . S
C238 O232 1.255 . S
O239 Fe221 2.002 . S
O239 C235 1.295 . S
O240 Fe223 1.997 . S
O240 C235 1.235 . S
C241 O224 1.295 . S
C241 O225 1.235 . S
Fe242 O244 1.918 . S
Fe242 O247 1.997 . S
Fe242 O248 2.002 . S
Fe242 O253 1.976 1_655 S
Fe242 O256 1.996 1_655 S
Fe243 O244 1.918 . S
Fe243 O251 1.997 . S
Fe243 O254 1.996 . S
Fe243 O258 1.976 . S
Fe243 O261 2.002 . S
O244 Fe242 1.918 . S
O244 Fe243 1.918 . S
O244 Fe245 1.918 . S
Fe245 O244 1.918 . S
Fe245 O246 2.002 . S
Fe245 O255 1.976 1_655 S
Fe245 O259 1.996 . S
Fe245 O262 1.997 . S
O246 Fe245 2.002 . S
O246 C263 1.295 . S
O247 Fe242 1.997 . S
O247 C263 1.235 . S
O248 Fe242 2.002 . S
O248 C249 1.295 . S
C249 O248 1.295 . S
C249 O251 1.235 . S
C250 O255 1.287 . S
C250 O256 1.255 . S
O251 Fe243 1.997 . S
O251 C249 1.235 . S
C252 O258 1.287 . S
C252 O259 1.255 . S
O253 Fe242 1.976 1_455 S
O253 C260 1.287 1_455 S
O254 Fe243 1.996 . S
O254 C260 1.255 . S
O255 Fe245 1.976 1_455 S
O255 C250 1.287 . S
O256 Fe242 1.996 1_455 S
O256 C250 1.255 . S
C257 O261 1.295 . S
C257 O262 1.235 . S
O258 Fe243 1.976 . S
O258 C252 1.287 . S
O259 Fe245 1.996 . S
O259 C252 1.255 . S
C260 O253 1.287 1_655 S
C260 O254 1.255 . S
O261 Fe243 2.002 . S
O261 C257 1.295 . S
O262 Fe245 1.997 . S
O262 C257 1.235 . S
C263 O246 1.295 . S
C263 O247 1.235 . S
Fe264 O266 1.918 . S
Fe264 O269 1.997 . S
Fe264 O270 2.002 . S
Fe264 O275 1.976 1_545 S
Fe264 O278 1.996 . S
Fe265 O266 1.918 . S
Fe265 O273 1.997 . S
Fe265 O276 1.996 1_545 S
Fe265 O280 1.976 1_545 S
Fe265 O283 2.002 . S
O266 Fe264 1.918 . S
O266 Fe265 1.918 . S
O266 Fe267 1.918 . S
Fe267 O266 1.918 . S
Fe267 O268 2.002 . S
Fe267 O277 1.976 . S
Fe267 O281 1.996 . S
Fe267 O284 1.997 . S
O268 Fe267 2.002 . S
O268 C285 1.295 . S
O269 Fe264 1.997 . S
O269 C285 1.235 . S
O270 Fe264 2.002 . S
O270 C271 1.295 . S
C271 O270 1.295 . S
C271 O273 1.235 . S
C272 O277 1.287 . S
C272 O278 1.255 . S
O273 Fe265 1.997 . S
O273 C271 1.235 . S
C274 O280 1.287 1_545 S
C274 O281 1.255 . S
O275 Fe264 1.976 1_565 S
O275 C282 1.287 . S
O276 Fe265 1.996 1_565 S
O276 C282 1.255 . S
O277 Fe267 1.976 . S
O277 C272 1.287 . S
O278 Fe264 1.996 . S
O278 C272 1.255 . S
C279 O283 1.295 . S
C279 O284 1.235 . S
O280 Fe265 1.976 1_565 S
O280 C274 1.287 1_565 S
O281 Fe267 1.996 . S
O281 C274 1.255 . S
C282 O275 1.287 . S
C282 O276 1.255 . S
O283 Fe265 2.002 . S
O283 C279 1.295 . S
O284 Fe267 1.997 . S
O284 C279 1.235 . S
C285 O268 1.295 . S
C285 O269 1.235 . S
Fe286 O288 1.918 . S
Fe286 O291 1.997 . S
Fe286 O292 2.002 . S
Fe286 O297 1.976 . S
Fe286 O300 1.996 . S
Fe287 O288 1.918 . S
Fe287 O295 1.997 . S
Fe287 O298 1.996 . S
Fe287 O302 1.976 . S
Fe287 O305 2.002 . S
O288 Fe286 1.918 . S
O288 Fe287 1.918 . S
O288 Fe289 1.918 . S
Fe289 O288 1.918 . S
Fe289 O290 2.002 . S
Fe289 O299 1.976 . S
Fe289 O303 1.996 . S
Fe289 O306 1.997 . S
O290 Fe289 2.002 . S
O290 C307 1.295 . S
O291 Fe286 1.997 . S
O291 C307 1.235 . S
O292 Fe286 2.002 . S
O292 C293 1.295 . S
C293 O292 1.295 . S
C293 O295 1.235 . S
C294 O299 1.287 . S
C294 O300 1.255 . S
O295 Fe287 1.997 . S
O295 C293 1.235 . S
C296 O302 1.287 . S
C296 O303 1.255 . S
O297 Fe286 1.976 . S
O297 C304 1.287 . S
O298 Fe287 1.996 . S
O298 C304 1.255 . S
O299 Fe289 1.976 . S
O299 C294 1.287 . S
O300 Fe286 1.996 . S
O300 C294 1.255 . S
C301 O305 1.295 . S
C301 O306 1.235 . S
O302 Fe287 1.976 . S
O302 C296 1.287 . S
O303 Fe289 1.996 . S
O303 C296 1.255 . S
C304 O297 1.287 . S
C304 O298 1.255 . S
O305 Fe287 2.002 . S
O305 C301 1.295 . S
O306 Fe289 1.997 . S
O306 C301 1.235 . S
C307 O290 1.295 . S
C307 O291 1.235 . S
Fe308 O310 1.918 . S
Fe308 O313 1.997 . S
Fe308 O314 2.002 . S
Fe308 O319 1.976 . S
Fe308 O322 1.996 . S
Fe309 O310 1.918 . S
Fe309 O317 1.997 . S
Fe309 O320 1.996 . S
Fe309 O324 1.976 . S
Fe309 O327 2.002 . S
O310 Fe308 1.918 . S
O310 Fe309 1.918 . S
O310 Fe311 1.918 . S
Fe311 O310 1.918 . S
Fe311 O312 2.002 . S
Fe311 O321 1.976 . S
Fe311 O325 1.996 . S
Fe311 O328 1.997 . S
O312 Fe311 2.002 . S
O312 C329 1.295 . S
O313 Fe308 1.997 . S
O313 C329 1.235 . S
O314 Fe308 2.002 . S
O314 C315 1.295 . S
C315 O314 1.295 . S
C315 O317 1.235 . S
C316 O321 1.287 . S
C316 O322 1.255 . S
O317 Fe309 1.997 . S
O317 C315 1.235 . S
C318 O324 1.287 . S
C318 O325 1.255 . S
O319 Fe308 1.976 . S
O319 C326 1.287 . S
O320 Fe309 1.996 . S
O320 C326 1.255 . S
O321 Fe311 1.976 . S
O321 C316 1.287 . S
O322 Fe308 1.996 . S
O322 C316 1.255 . S
C323 O327 1.295 . S
C323 O328 1.235 . S
O324 Fe309 1.976 . S
O324 C318 1.287 . S
O325 Fe311 1.996 . S
O325 C318 1.255 . S
C326 O319 1.287 . S
C326 O320 1.255 . S
O327 Fe309 2.002 . S
O327 C323 1.295 . S
O328 Fe311 1.997 . S
O328 C323 1.235 . S
C329 O312 1.295 . S
C329 O313 1.235 . S
Fe330 O332 1.918 . S
Fe330 O335 1.997 . S
Fe330 O336 2.002 . S
Fe330 O341 1.976 1_455 S
Fe330 O344 1.996 1_455 S
Fe331 O332 1.918 . S
Fe331 O339 1.997 . S
Fe331 O342 1.996 . S
Fe331 O346 1.976 . S
Fe331 O349 2.002 . S
O332 Fe330 1.918 . S
O332 Fe331 1.918 . S
O332 Fe333 1.918 . S
Fe333 O332 1.918 . S
Fe333 O334 2.002 . S
Fe333 O343 1.976 1_455 S
Fe333 O347 1.996 . S
Fe333 O350 1.997 . S
O334 Fe333 2.002 . S
O334 C351 1.295 . S
O335 Fe330 1.997 . S
O335 C351 1.235 . S
O336 Fe330 2.002 . S
O336 C337 1.295 . S
C337 O336 1.295 . S
C337 O339 1.235 . S
C338 O343 1.287 . S
C338 O344 1.255 . S
O339 Fe331 1.997 . S
O339 C337 1.235 . S
C340 O346 1.287 . S
C340 O347 1.255 . S
O341 Fe330 1.976 1_655 S
O341 C348 1.287 1_655 S
O342 Fe331 1.996 . S
O342 C348 1.255 . S
O343 Fe333 1.976 1_655 S
O343 C338 1.287 . S
O344 Fe330 1.996 1_655 S
O344 C338 1.255 . S
C345 O349 1.295 . S
C345 O350 1.235 . S
O346 Fe331 1.976 . S
O346 C340 1.287 . S
O347 Fe333 1.996 . S
O347 C340 1.255 . S
C348 O341 1.287 1_455 S
C348 O342 1.255 . S
O349 Fe331 2.002 . S
O349 C345 1.295 . S
O350 Fe333 1.997 . S
O350 C345 1.235 . S
C351 O334 1.295 . S
C351 O335 1.235 . S
C352 C353 1.349 . S
C352 C354 1.327 . S
C352 H377 0.950 . S
C353 C352 1.349 . S
C353 C369 1.349 . S
C354 C352 1.327 . S
C354 C373 1.429 . S
C354 H378 0.950 . S
C355 C372 1.574 . S
C355 C374 1.368 . S
C355 H379 0.949 . S
H356 C360 0.949 . S
C357 C358 1.349 . S
C357 C359 1.327 . S
C357 H380 0.950 . S
C358 C357 1.349 . S
C358 C370 1.349 . S
C359 C357 1.327 . S
C359 C375 1.429 . S
C359 H381 0.950 . S
C360 H356 0.949 . S
C360 C368 1.574 . S
C360 C376 1.368 . S
H361 C369 0.950 . S
H362 C367 0.950 . S
H363 C368 0.949 . S
H364 C370 0.950 . S
H365 C371 0.950 . S
H366 C372 0.949 . S
C367 H362 0.950 . S
C367 C369 1.327 . S
C367 C373 1.429 . S
C368 C360 1.574 . S
C368 H363 0.949 . S
C368 C374 1.368 . S
C369 C353 1.349 . S
C369 H361 0.950 . S
C369 C367 1.327 . S
C370 C358 1.349 . S
C370 H364 0.950 . S
C370 C371 1.327 . S
C371 H365 0.950 . S
C371 C370 1.327 . S
C371 C375 1.429 . S
C372 C355 1.574 . S
C372 H366 0.949 . S
C372 C376 1.368 . S
C373 C354 1.429 . S
C373 C367 1.429 . S
C373 C374 1.523 . S
C374 C355 1.368 . S
C374 C368 1.368 . S
C374 C373 1.523 . S
C375 C359 1.429 . S
C375 C371 1.429 . S
C375 C376 1.523 . S
C376 C360 1.368 . S
C376 C372 1.368 . S
C376 C375 1.523 . S
H377 C352 0.950 . S
H378 C354 0.950 . S
H379 C355 0.949 . S
H380 C357 0.950 . S
H381 C359 0.950 . S
C382 C383 1.349 . S
C382 C384 1.327 . S
C382 H407 0.950 . S
C383 C382 1.349 . S
C383 C399 1.349 . S
C384 C382 1.327 . S
C384 C403 1.429 . S
C384 H408 0.950 . S
C385 C402 1.574 . S
C385 C404 1.368 . S
C385 H409 0.949 . S
H386 C390 0.949 . S
C387 C388 1.349 . S
C387 C389 1.327 . S
C387 H410 0.950 . S
C388 C387 1.349 . S
C388 C400 1.349 . S
C389 C387 1.327 . S
C389 C405 1.429 . S
C389 H411 0.950 . S
C390 H386 0.949 . S
C390 C398 1.574 . S
C390 C406 1.368 . S
H391 C399 0.950 . S
H392 C397 0.950 . S
H393 C398 0.949 . S
H394 C400 0.950 . S
H395 C401 0.950 . S
H396 C402 0.949 . S
C397 H392 0.950 . S
C397 C399 1.327 . S
C397 C403 1.429 . S
C398 C390 1.574 . S
C398 H393 0.949 . S
C398 C404 1.368 . S
C399 C383 1.349 . S
C399 H391 0.950 . S
C399 C397 1.327 . S
C400 C388 1.349 . S
C400 H394 0.950 . S
C400 C401 1.327 . S
C401 H395 0.950 . S
C401 C400 1.327 . S
C401 C405 1.429 . S
C402 C385 1.574 . S
C402 H396 0.949 . S
C402 C406 1.368 . S
C403 C384 1.429 . S
C403 C397 1.429 . S
C403 C404 1.523 . S
C404 C385 1.368 . S
C404 C398 1.368 . S
C404 C403 1.523 . S
C405 C389 1.429 . S
C405 C401 1.429 . S
C405 C406 1.523 . S
C406 C390 1.368 . S
C406 C402 1.368 . S
C406 C405 1.523 . S
H407 C382 0.950 . S
H408 C384 0.950 . S
H409 C385 0.949 . S
H410 C387 0.950 . S
H411 C389 0.950 . S
C412 C413 1.349 . S
C412 C414 1.327 . S
C412 H437 0.950 . S
C413 C412 1.349 . S
C413 C429 1.349 . S
C414 C412 1.327 . S
C414 C433 1.429 . S
C414 H438 0.950 . S
C415 C432 1.574 . S
C415 C434 1.368 . S
C415 H439 0.949 . S
H416 C420 0.949 . S
C417 C418 1.349 . S
C417 C419 1.327 . S
C417 H440 0.950 . S
C418 C417 1.349 . S
C418 C430 1.349 . S
C419 C417 1.327 . S
C419 C435 1.429 . S
C419 H441 0.950 . S
C420 H416 0.949 . S
C420 C428 1.574 . S
C420 C436 1.368 . S
H421 C429 0.950 . S
H422 C427 0.950 . S
H423 C428 0.949 . S
H424 C430 0.950 . S
H425 C431 0.950 . S
H426 C432 0.949 . S
C427 H422 0.950 . S
C427 C429 1.327 . S
C427 C433 1.429 . S
C428 C420 1.574 . S
C428 H423 0.949 . S
C428 C434 1.368 . S
C429 C413 1.349 . S
C429 H421 0.950 . S
C429 C427 1.327 . S
C430 C418 1.349 . S
C430 H424 0.950 . S
C430 C431 1.327 . S
C431 H425 0.950 . S
C431 C430 1.327 . S
C431 C435 1.429 . S
C432 C415 1.574 . S
C432 H426 0.949 . S
C432 C436 1.368 . S
C433 C414 1.429 . S
C433 C427 1.429 . S
C433 C434 1.523 . S
C434 C415 1.368 . S
C434 C428 1.368 . S
C434 C433 1.523 . S
C435 C419 1.429 . S
C435 C431 1.429 . S
C435 C436 1.523 . S
C436 C420 1.368 . S
C436 C432 1.368 . S
C436 C435 1.523 . S
H437 C412 0.950 . S
H438 C414 0.950 . S
H439 C415 0.949 . S
H440 C417 0.950 . S
H441 C419 0.950 . S
C442 C443 1.349 . S
C442 C444 1.327 . S
C442 H467 0.950 . S
C443 C442 1.349 . S
C443 C459 1.349 . S
C444 C442 1.327 . S
C444 C463 1.429 . S
C444 H468 0.950 . S
C445 C462 1.574 . S
C445 C464 1.368 . S
C445 H469 0.949 . S
H446 C450 0.949 . S
C447 C448 1.349 . S
C447 C449 1.327 . S
C447 H470 0.950 . S
C448 C447 1.349 . S
C448 C460 1.349 . S
C449 C447 1.327 . S
C449 C465 1.429 . S
C449 H471 0.950 . S
C450 H446 0.949 . S
C450 C458 1.574 . S
C450 C466 1.368 . S
H451 C459 0.950 . S
H452 C457 0.950 . S
H453 C458 0.949 . S
H454 C460 0.950 . S
H455 C461 0.950 . S
H456 C462 0.949 . S
C457 H452 0.950 . S
C457 C459 1.327 . S
C457 C463 1.429 . S
C458 C450 1.574 . S
C458 H453 0.949 . S
C458 C464 1.368 . S
C459 C443 1.349 . S
C459 H451 0.950 . S
C459 C457 1.327 . S
C460 C448 1.349 . S
C460 H454 0.950 . S
C460 C461 1.327 . S
C461 H455 0.950 . S
C461 C460 1.327 . S
C461 C465 1.429 . S
C462 C445 1.574 . S
C462 H456 0.949 . S
C462 C466 1.368 . S
C463 C444 1.429 . S
C463 C457 1.429 . S
C463 C464 1.523 . S
C464 C445 1.368 . S
C464 C458 1.368 . S
C464 C463 1.523 . S
C465 C449 1.429 . S
C465 C461 1.429 . S
C465 C466 1.523 . S
C466 C450 1.368 . S
C466 C462 1.368 . S
C466 C465 1.523 . S
H467 C442 0.950 . S
H468 C444 0.950 . S
H469 C445 0.949 . S
H470 C447 0.950 . S
H471 C449 0.950 . S
C472 C473 1.349 . S
C472 C474 1.327 . S
C472 H497 0.950 . S
C473 C472 1.349 . S
C473 C489 1.349 . S
C474 C472 1.327 . S
C474 C493 1.429 . S
C474 H498 0.950 . S
C475 C492 1.574 . S
C475 C494 1.368 . S
C475 H499 0.949 . S
H476 C480 0.949 . S
C477 C478 1.349 . S
C477 C479 1.327 . S
C477 H500 0.950 . S
C478 C477 1.349 . S
C478 C490 1.349 . S
C479 C477 1.327 . S
C479 C495 1.429 . S
C479 H501 0.950 . S
C480 H476 0.949 . S
C480 C488 1.574 . S
C480 C496 1.368 . S
H481 C489 0.950 . S
H482 C487 0.950 . S
H483 C488 0.949 . S
H484 C490 0.950 . S
H485 C491 0.950 . S
H486 C492 0.949 . S
C487 H482 0.950 . S
C487 C489 1.327 . S
C487 C493 1.429 . S
C488 C480 1.574 . S
C488 H483 0.949 . S
C488 C494 1.368 . S
C489 C473 1.349 . S
C489 H481 0.950 . S
C489 C487 1.327 . S
C490 C478 1.349 . S
C490 H484 0.950 . S
C490 C491 1.327 . S
C491 H485 0.950 . S
C491 C490 1.327 . S
C491 C495 1.429 . S
C492 C475 1.574 . S
C492 H486 0.949 . S
C492 C496 1.368 . S
C493 C474 1.429 . S
C493 C487 1.429 . S
C493 C494 1.523 . S
C494 C475 1.368 . S
C494 C488 1.368 . S
C494 C493 1.523 . S
C495 C479 1.429 . S
C495 C491 1.429 . S
C495 C496 1.523 . S
C496 C480 1.368 . S
C496 C492 1.368 . S
C496 C495 1.523 . S
H497 C472 0.950 . S
H498 C474 0.950 . S
H499 C475 0.949 . S
H500 C477 0.950 . S
H501 C479 0.950 . S
C502 C503 1.349 . S
C502 C504 1.327 . S
C502 H527 0.950 . S
C503 C502 1.349 . S
C503 C519 1.349 . S
C504 C502 1.327 . S
C504 C523 1.429 . S
C504 H528 0.950 . S
C505 C522 1.574 . S
C505 C524 1.368 . S
C505 H529 0.949 . S
H506 C510 0.949 . S
C507 C508 1.349 . S
C507 C509 1.327 . S
C507 H530 0.950 . S
C508 C507 1.349 . S
C508 C520 1.349 . S
C509 C507 1.327 . S
C509 C525 1.429 . S
C509 H531 0.950 . S
C510 H506 0.949 . S
C510 C518 1.574 . S
C510 C526 1.368 . S
H511 C519 0.950 . S
H512 C517 0.950 . S
H513 C518 0.949 . S
H514 C520 0.950 . S
H515 C521 0.950 . S
H516 C522 0.949 . S
C517 H512 0.950 . S
C517 C519 1.327 . S
C517 C523 1.429 . S
C518 C510 1.574 . S
C518 H513 0.949 . S
C518 C524 1.368 . S
C519 C503 1.349 . S
C519 H511 0.950 . S
C519 C517 1.327 . S
C520 C508 1.349 . S
C520 H514 0.950 . S
C520 C521 1.327 . S
C521 H515 0.950 . S
C521 C520 1.327 . S
C521 C525 1.429 . S
C522 C505 1.574 . S
C522 H516 0.949 . S
C522 C526 1.368 . S
C523 C504 1.429 . S
C523 C517 1.429 . S
C523 C524 1.523 . S
C524 C505 1.368 . S
C524 C518 1.368 . S
C524 C523 1.523 . S
C525 C509 1.429 . S
C525 C521 1.429 . S
C525 C526 1.523 . S
C526 C510 1.368 . S
C526 C522 1.368 . S
C526 C525 1.523 . S
H527 C502 0.950 . S
H528 C504 0.950 . S
H529 C505 0.949 . S
H530 C507 0.950 . S
H531 C509 0.950 . S
C532 C533 1.349 . S
C532 C534 1.327 . S
C532 H557 0.950 . S
C533 C532 1.349 . S
C533 C549 1.349 . S
C534 C532 1.327 . S
C534 C553 1.429 . S
C534 H558 0.950 . S
C535 C552 1.574 . S
C535 C554 1.368 . S
C535 H559 0.949 . S
H536 C540 0.949 . S
C537 C538 1.349 . S
C537 C539 1.327 . S
C537 H560 0.950 . S
C538 C537 1.349 . S
C538 C550 1.349 . S
C539 C537 1.327 . S
C539 C555 1.429 . S
C539 H561 0.950 . S
C540 H536 0.949 . S
C540 C548 1.574 . S
C540 C556 1.368 . S
H541 C549 0.950 . S
H542 C547 0.950 . S
H543 C548 0.949 . S
H544 C550 0.950 . S
H545 C551 0.950 . S
H546 C552 0.949 . S
C547 H542 0.950 . S
C547 C549 1.327 . S
C547 C553 1.429 . S
C548 C540 1.574 . S
C548 H543 0.949 . S
C548 C554 1.368 . S
C549 C533 1.349 . S
C549 H541 0.950 . S
C549 C547 1.327 . S
C550 C538 1.349 . S
C550 H544 0.950 . S
C550 C551 1.327 . S
C551 H545 0.950 . S
C551 C550 1.327 . S
C551 C555 1.429 . S
C552 C535 1.574 . S
C552 H546 0.949 . S
C552 C556 1.368 . S
C553 C534 1.429 . S
C553 C547 1.429 . S
C553 C554 1.523 . S
C554 C535 1.368 . S
C554 C548 1.368 . S
C554 C553 1.523 . S
C555 C539 1.429 . S
C555 C551 1.429 . S
C555 C556 1.523 . S
C556 C540 1.368 . S
C556 C552 1.368 . S
C556 C555 1.523 . S
H557 C532 0.950 . S
H558 C534 0.950 . S
H559 C535 0.949 . S
H560 C537 0.950 . S
H561 C539 0.950 . S
C562 C563 1.349 . S
C562 C564 1.327 . S
C562 H587 0.950 . S
C563 C562 1.349 . S
C563 C579 1.349 . S
C564 C562 1.327 . S
C564 C583 1.429 . S
C564 H588 0.950 . S
C565 C582 1.574 . S
C565 C584 1.368 . S
C565 H589 0.949 . S
H566 C570 0.949 . S
C567 C568 1.349 . S
C567 C569 1.327 . S
C567 H590 0.950 . S
C568 C567 1.349 . S
C568 C580 1.349 . S
C569 C567 1.327 . S
C569 C585 1.429 . S
C569 H591 0.950 . S
C570 H566 0.949 . S
C570 C578 1.574 . S
C570 C586 1.368 . S
H571 C579 0.950 . S
H572 C577 0.950 . S
H573 C578 0.949 . S
H574 C580 0.950 . S
H575 C581 0.950 . S
H576 C582 0.949 . S
C577 H572 0.950 . S
C577 C579 1.327 . S
C577 C583 1.429 . S
C578 C570 1.574 . S
C578 H573 0.949 . S
C578 C584 1.368 . S
C579 C563 1.349 . S
C579 H571 0.950 . S
C579 C577 1.327 . S
C580 C568 1.349 . S
C580 H574 0.950 . S
C580 C581 1.327 . S
C581 H575 0.950 . S
C581 C580 1.327 . S
C581 C585 1.429 . S
C582 C565 1.574 . S
C582 H576 0.949 . S
C582 C586 1.368 . S
C583 C564 1.429 . S
C583 C577 1.429 . S
C583 C584 1.523 . S
C584 C565 1.368 . S
C584 C578 1.368 . S
C584 C583 1.523 . S
C585 C569 1.429 . S
C585 C581 1.429 . S
C585 C586 1.523 . S
C586 C570 1.368 . S
C586 C582 1.368 . S
C586 C585 1.523 . S
H587 C562 0.950 . S
H588 C564 0.950 . S
H589 C565 0.949 . S
H590 C567 0.950 . S
H591 C569 0.950 . S
C592 C593 1.349 . S
C592 C594 1.327 . S
C592 H617 0.950 . S
C593 C592 1.349 . S
C593 C609 1.349 1_545 S
C594 C592 1.327 . S
C594 C613 1.429 . S
C594 H618 0.950 . S
C595 C612 1.574 . S
C595 C614 1.368 1_565 S
C595 H619 0.949 . S
H596 C600 0.949 . S
C597 C598 1.349 . S
C597 C599 1.327 . S
C597 H620 0.950 . S
C598 C597 1.349 . S
C598 C610 1.349 1_565 S
C599 C597 1.327 . S
C599 C615 1.429 . S
C599 H621 0.950 . S
C600 H596 0.949 . S
C600 C608 1.574 . S
C600 C616 1.368 1_545 S
H601 C609 0.950 . S
H602 C607 0.950 . S
H603 C608 0.949 . S
H604 C610 0.950 . S
H605 C611 0.950 . S
H606 C612 0.949 . S
C607 H602 0.950 . S
C607 C609 1.327 . S
C607 C613 1.429 1_565 S
C608 C600 1.574 . S
C608 H603 0.949 . S
C608 C614 1.368 1_556 S
C609 C593 1.349 1_565 S
C609 H601 0.950 . S
C609 C607 1.327 . S
C610 C598 1.349 1_545 S
C610 H604 0.950 . S
C610 C611 1.327 . S
C611 H605 0.950 . S
C611 C610 1.327 . S
C611 C615 1.429 1_545 S
C612 C595 1.574 . S
C612 H606 0.949 . S
C612 C616 1.368 1_554 S
C613 C594 1.429 . S
C613 C607 1.429 1_545 S
C613 C614 1.523 . S
C614 C595 1.368 1_545 S
C614 C608 1.368 1_554 S
C614 C613 1.523 . S
C615 C599 1.429 . S
C615 C611 1.429 1_565 S
C615 C616 1.523 . S
C616 C600 1.368 1_565 S
C616 C612 1.368 1_556 S
C616 C615 1.523 . S
H617 C592 0.950 . S
H618 C594 0.950 . S
H619 C595 0.949 . S
H620 C597 0.950 . S
H621 C599 0.950 . S
C622 C623 1.349 . S
C622 C624 1.327 . S
C622 H647 0.950 . S
C623 C622 1.349 . S
C623 C639 1.349 . S
C624 C622 1.327 . S
C624 C643 1.429 . S
C624 H648 0.950 . S
C625 C642 1.574 . S
C625 C644 1.368 1_556 S
C625 H649 0.949 . S
H626 C630 0.949 . S
C627 C628 1.349 . S
C627 C629 1.327 . S
C627 H650 0.950 . S
C628 C627 1.349 . S
C628 C640 1.349 . S
C629 C627 1.327 . S
C629 C645 1.429 . S
C629 H651 0.950 . S
C630 H626 0.949 . S
C630 C638 1.574 . S
C630 C646 1.368 1_554 S
H631 C639 0.950 . S
H632 C637 0.950 . S
H633 C638 0.949 . S
H634 C640 0.950 . S
H635 C641 0.950 . S
H636 C642 0.949 . S
C637 H632 0.950 . S
C637 C639 1.327 . S
C637 C643 1.429 . S
C638 C630 1.574 . S
C638 H633 0.949 . S
C638 C644 1.368 . S
C639 C623 1.349 . S
C639 H631 0.950 . S
C639 C637 1.327 . S
C640 C628 1.349 . S
C640 H634 0.950 . S
C640 C641 1.327 . S
C641 H635 0.950 . S
C641 C640 1.327 . S
C641 C645 1.429 . S
C642 C625 1.574 . S
C642 H636 0.949 . S
C642 C646 1.368 . S
C643 C624 1.429 . S
C643 C637 1.429 . S
C643 C644 1.523 . S
C644 C625 1.368 1_554 S
C644 C638 1.368 . S
C644 C643 1.523 . S
C645 C629 1.429 . S
C645 C641 1.429 . S
C645 C646 1.523 . S
C646 C630 1.368 1_556 S
C646 C642 1.368 . S
C646 C645 1.523 . S
H647 C622 0.950 . S
H648 C624 0.950 . S
H649 C625 0.949 . S
H650 C627 0.950 . S
H651 C629 0.950 . S
C652 C653 1.349 . S
C652 C654 1.327 . S
C652 H677 0.950 . S
C653 C652 1.349 . S
C653 C669 1.349 . S
C654 C652 1.327 . S
C654 C673 1.429 . S
C654 H678 0.950 . S
C655 C672 1.541 1_455 S
C655 C674 1.398 . S
C655 H679 0.953 . S
H656 C660 0.949 . S
C657 C658 1.349 . S
C657 C659 1.327 . S
C657 H680 0.950 . S
C658 C657 1.349 . S
C658 C670 1.349 . S
C659 C657 1.327 . S
C659 C675 1.429 . S
C659 H681 0.950 . S
C660 H656 0.949 . S
C660 C668 1.574 1_655 S
C660 C676 1.368 . S
H661 C669 0.950 . S
H662 C667 0.950 . S
H663 C668 0.949 . S
H664 C670 0.950 . S
H665 C671 0.950 . S
H666 C672 0.949 . S
C667 H662 0.950 . S
C667 C669 1.327 . S
C667 C673 1.429 . S
C668 C660 1.574 1_455 S
C668 H663 0.949 . S
C668 C674 1.368 1_554 S
C669 C653 1.349 . S
C669 H661 0.950 . S
C669 C667 1.327 . S
C670 C658 1.349 . S
C670 H664 0.950 . S
C670 C671 1.327 . S
C671 H665 0.950 . S
C671 C670 1.327 . S
C671 C675 1.429 . S
C672 C655 1.541 1_655 S
C672 H666 0.949 . S
C672 C676 1.368 1_556 S
C673 C654 1.429 . S
C673 C667 1.429 . S
C673 C674 1.523 . S
C674 C655 1.398 . S
C674 C668 1.368 1_556 S
C674 C673 1.523 . S
C675 C659 1.429 . S
C675 C671 1.429 . S
C675 C676 1.523 . S
C676 C660 1.368 . S
C676 C672 1.368 1_554 S
C676 C675 1.523 . S
H677 C652 0.950 . S
H678 C654 0.950 . S
H679 C655 0.953 . S
H680 C657 0.950 . S
H681 C659 0.950 . S
C682 C683 1.349 . S
C682 C684 1.327 . S
C682 H707 0.950 . S
C683 C682 1.349 . S
C683 C699 1.349 . S
C684 C682 1.327 . S
C684 C703 1.429 . S
C684 H708 0.950 1_655 S
C685 C702 1.574 1_545 S
C685 C704 1.368 1_554 S
C685 H709 0.949 . S
H686 C690 0.949 . S
C687 C688 1.349 . S
C687 C689 1.327 . S
C687 H710 0.950 . S
C688 C687 1.349 . S
C688 C700 1.349 . S
C689 C687 1.327 . S
C689 C705 1.429 . S
C689 H711 0.950 1_455 S
C690 H686 0.949 . S
C690 C698 1.574 1_565 S
C690 C706 1.368 1_556 S
H691 C699 0.950 . S
H692 C697 0.950 1_554 S
H693 C698 0.949 . S
H694 C700 0.950 . S
H695 C701 0.950 1_556 S
H696 C702 0.949 . S
C697 H692 0.950 1_556 S
C697 C699 1.327 . S
C697 C703 1.429 . S
C698 C690 1.574 1_545 S
C698 H693 0.949 . S
C698 C704 1.368 1_455 S
C699 C683 1.349 . S
C699 H691 0.950 . S
C699 C697 1.327 . S
C700 C688 1.349 . S
C700 H694 0.950 . S
C700 C701 1.327 . S
C701 H695 0.950 1_554 S
C701 C700 1.327 . S
C701 C705 1.429 . S
C702 C685 1.574 1_565 S
C702 H696 0.949 . S
C702 C706 1.368 1_655 S
C703 C684 1.429 . S
C703 C697 1.429 . S
C703 C704 1.523 . S
C704 C685 1.368 1_556 S
C704 C698 1.368 1_655 S
C704 C703 1.523 . S
C705 C689 1.429 . S
C705 C701 1.429 . S
C705 C706 1.523 . S
C706 C690 1.368 1_554 S
C706 C702 1.368 1_455 S
C706 C705 1.523 . S
H707 C682 0.950 . S
H708 C684 0.950 1_455 S
H709 C685 0.949 . S
H710 C687 0.950 . S
H711 C689 0.950 1_655 S
C712 C713 1.349 . S
C712 C714 1.327 . S
C712 H737 0.950 . S
C713 C712 1.349 . S
C713 C729 1.349 1_565 S
C714 C712 1.327 . S
C714 C733 1.429 . S
C714 H738 0.950 . S
C715 C732 1.574 1_455 S
C715 C734 1.368 1_545 S
C715 H739 0.949 . S
H716 C720 0.949 . S
C717 C718 1.349 . S
C717 C719 1.327 . S
C717 H740 0.950 . S
C718 C717 1.349 . S
C718 C730 1.349 1_545 S
C719 C717 1.327 . S
C719 C735 1.429 . S
C719 H741 0.950 . S
C720 H716 0.949 . S
C720 C728 1.574 1_655 S
C720 C736 1.368 1_565 S
H721 C729 0.950 . S
H722 C727 0.950 . S
H723 C728 0.949 . S
H724 C730 0.950 . S
H725 C731 0.950 . S
H726 C732 0.949 . S
C727 H722 0.950 . S
C727 C729 1.327 . S
C727 C733 1.429 1_545 S
C728 C720 1.574 1_455 S
C728 H723 0.949 . S
C728 C734 1.368 . S
C729 C713 1.349 1_545 S
C729 H721 0.950 . S
C729 C727 1.327 . S
C730 C718 1.349 1_565 S
C730 H724 0.950 . S
C730 C731 1.327 . S
C731 H725 0.950 . S
C731 C730 1.327 . S
C731 C735 1.429 1_565 S
C732 C715 1.574 1_655 S
C732 H726 0.949 . S
C732 C736 1.368 . S
C733 C714 1.429 . S
C733 C727 1.429 1_565 S
C733 C734 1.523 . S
C734 C715 1.368 1_565 S
C734 C728 1.368 . S
C734 C733 1.523 . S
C735 C719 1.429 . S
C735 C731 1.429 1_545 S
C735 C736 1.523 . S
C736 C720 1.368 1_545 S
C736 C732 1.368 . S
C736 C735 1.523 . S
H737 C712 0.950 . S
H738 C714 0.950 . S
H739 C715 0.949 . S
H740 C717 0.950 . S
H741 C719 0.950 . S
C742 C743 1.349 . S
C742 C744 1.327 . S
C742 H767 0.950 . S
C743 C742 1.349 . S
C743 C759 1.349 . S
C744 C742 1.327 . S
C744 C763 1.429 . S
C744 H768 0.950 . S
C745 C762 1.572 . S
C745 C764 1.368 . S
C745 H769 0.949 . S
H746 C750 0.949 . S
C747 C748 1.349 . S
C747 C749 1.327 . S
C747 H770 0.950 . S
C748 C747 1.349 . S
C748 C760 1.349 . S
C749 C747 1.327 . S
C749 C765 1.429 . S
C749 H771 0.950 . S
C750 H746 0.949 . S
C750 C758 1.544 1_565 S
C750 C766 1.368 . S
H751 C759 0.950 . S
H752 C757 0.950 . S
H753 C758 0.951 . S
H754 C760 0.950 . S
H755 C761 0.950 . S
H756 C762 0.948 1_565 S
C757 H752 0.950 . S
C757 C759 1.327 . S
C757 C763 1.429 . S
C758 C750 1.544 1_545 S
C758 H753 0.951 . S
C758 C764 1.396 . S
C759 C743 1.349 . S
C759 H751 0.950 . S
C759 C757 1.327 . S
C760 C748 1.349 . S
C760 H754 0.950 . S
C760 C761 1.327 . S
C761 H755 0.950 . S
C761 C760 1.327 . S
C761 C765 1.429 . S
C762 C745 1.572 . S
C762 H756 0.948 1_545 S
C762 C766 1.370 1_545 S
C763 C744 1.429 . S
C763 C757 1.429 . S
C763 C764 1.523 . S
C764 C745 1.368 . S
C764 C758 1.396 . S
C764 C763 1.523 . S
C765 C749 1.429 . S
C765 C761 1.429 . S
C765 C766 1.523 . S
C766 C750 1.368 . S
C766 C762 1.370 1_565 S
C766 C765 1.523 . S
H767 C742 0.950 . S
H768 C744 0.950 . S
H769 C745 0.949 . S
H770 C747 0.950 . S
H771 C749 0.950 . S
C772 C773 1.349 . S
C772 C774 1.327 . S
C772 H797 0.950 . S
C773 C772 1.349 . S
C773 C789 1.349 . S
C774 C772 1.327 . S
C774 C793 1.429 . S
C774 H798 0.950 . S
C775 C792 1.574 . S
C775 C794 1.368 . S
C775 H799 0.949 . S
H776 C780 0.949 . S
C777 C778 1.349 . S
C777 C779 1.327 . S
C777 H800 0.950 . S
C778 C777 1.349 . S
C778 C790 1.349 . S
C779 C777 1.327 . S
C779 C795 1.429 . S
C779 H801 0.950 . S
C780 H776 0.949 . S
C780 C788 1.574 . S
C780 C796 1.368 . S
H781 C789 0.950 . S
H782 C787 0.950 . S
H783 C788 0.949 . S
H784 C790 0.950 . S
H785 C791 0.950 . S
H786 C792 0.949 . S
C787 H782 0.950 . S
C787 C789 1.327 . S
C787 C793 1.429 . S
C788 C780 1.574 . S
C788 H783 0.949 . S
C788 C794 1.368 . S
C789 C773 1.349 . S
C789 H781 0.950 . S
C789 C787 1.327 . S
C790 C778 1.349 . S
C790 H784 0.950 . S
C790 C791 1.327 . S
C791 H785 0.950 . S
C791 C790 1.327 . S
C791 C795 1.429 . S
C792 C775 1.574 . S
C792 H786 0.949 . S
C792 C796 1.368 . S
C793 C774 1.429 . S
C793 C787 1.429 . S
C793 C794 1.523 . S
C794 C775 1.368 . S
C794 C788 1.368 . S
C794 C793 1.523 . S
C795 C779 1.429 . S
C795 C791 1.429 . S
C795 C796 1.523 . S
C796 C780 1.368 . S
C796 C792 1.368 . S
C796 C795 1.523 . S
H797 C772 0.950 . S
H798 C774 0.950 . S
H799 C775 0.949 . S
H800 C777 0.950 . S
H801 C779 0.950 . S
C802 C803 1.369 . S
C802 C804 1.322 1_455 S
C802 H827 0.936 1_455 S
C803 C802 1.369 . S
C803 C819 1.349 . S
C804 C802 1.322 1_655 S
C804 C823 1.429 1_655 S
C804 H828 0.950 . S
C805 C822 1.574 . S
C805 C824 1.368 . S
C805 H829 0.949 . S
H806 C810 0.949 . S
C807 C808 1.349 . S
C807 C809 1.327 1_655 S
C807 H830 0.950 1_655 S
C808 C807 1.349 . S
C808 C820 1.349 . S
C809 C807 1.327 1_455 S
C809 C825 1.429 1_455 S
C809 H831 0.950 . S
C810 H806 0.949 . S
C810 C818 1.574 . S
C810 C826 1.368 . S
H811 C819 0.950 . S
H812 C817 0.950 . S
H813 C818 0.949 . S
H814 C820 0.950 . S
H815 C821 0.950 . S
H816 C822 0.949 . S
C817 H812 0.950 . S
C817 C819 1.327 . S
C817 C823 1.429 . S
C818 C810 1.574 . S
C818 H813 0.949 . S
C818 C824 1.368 1_655 S
C819 C803 1.349 . S
C819 H811 0.950 . S
C819 C817 1.327 . S
C820 C808 1.349 . S
C820 H814 0.950 . S
C820 C821 1.327 . S
C821 H815 0.950 . S
C821 C820 1.327 . S
C821 C825 1.429 . S
C822 C805 1.574 . S
C822 H816 0.949 . S
C822 C826 1.368 1_455 S
C823 C804 1.429 1_455 S
C823 C817 1.429 . S
C823 C824 1.523 . S
C824 C805 1.368 . S
C824 C818 1.368 1_455 S
C824 C823 1.523 . S
C825 C809 1.429 1_655 S
C825 C821 1.429 . S
C825 C826 1.523 . S
C826 C810 1.368 . S
C826 C822 1.368 1_655 S
C826 C825 1.523 . S
H827 C802 0.936 1_655 S
H828 C804 0.950 . S
H829 C805 0.949 . S
H830 C807 0.950 1_455 S
H831 C809 0.950 . S
C832 C833 1.349 . S
C832 C834 1.327 . S
C832 H857 0.950 . S
C833 C832 1.349 . S
C833 C849 1.349 . S
C834 C832 1.327 . S
C834 C853 1.429 . S
C834 H858 0.950 . S
C835 C852 1.574 . S
C835 C854 1.368 . S
C835 H859 0.949 . S
H836 C840 0.949 . S
C837 C838 1.349 . S
C837 C839 1.327 . S
C837 H860 0.950 . S
C838 C837 1.349 . S
C838 C850 1.349 . S
C839 C837 1.327 . S
C839 C855 1.429 . S
C839 H861 0.950 . S
C840 H836 0.949 . S
C840 C848 1.574 . S
C840 C856 1.368 . S
H841 C849 0.950 . S
H842 C847 0.950 . S
H843 C848 0.949 . S
H844 C850 0.950 . S
H845 C851 0.950 . S
H846 C852 0.949 . S
C847 H842 0.950 . S
C847 C849 1.327 . S
C847 C853 1.429 . S
C848 C840 1.574 . S
C848 H843 0.949 . S
C848 C854 1.368 . S
C849 C833 1.349 . S
C849 H841 0.950 . S
C849 C847 1.327 . S
C850 C838 1.349 . S
C850 H844 0.950 . S
C850 C851 1.327 . S
C851 H845 0.950 . S
C851 C850 1.327 . S
C851 C855 1.429 . S
C852 C835 1.574 . S
C852 H846 0.949 . S
C852 C856 1.368 . S
C853 C834 1.429 . S
C853 C847 1.429 . S
C853 C854 1.523 . S
C854 C835 1.368 . S
C854 C848 1.368 . S
C854 C853 1.523 . S
C855 C839 1.429 . S
C855 C851 1.429 . S
C855 C856 1.523 . S
C856 C840 1.368 . S
C856 C852 1.368 . S
C856 C855 1.523 . S
H857 C832 0.950 . S
H858 C834 0.950 . S
H859 C835 0.949 . S
H860 C837 0.950 . S
H861 C839 0.950 . S
C862 C863 1.349 . S
C862 C864 1.327 . S
C862 H887 0.950 . S
C863 C862 1.349 . S
C863 C879 1.349 . S
C864 C862 1.327 . S
C864 C883 1.429 . S
C864 H888 0.950 . S
C865 C882 1.574 . S
C865 C884 1.368 . S
C865 H889 0.949 . S
H866 C870 0.949 . S
C867 C868 1.349 . S
C867 C869 1.327 . S
C867 H890 0.950 . S
C868 C867 1.349 . S
C868 C880 1.349 . S
C869 C867 1.327 . S
C869 C885 1.429 . S
C869 H891 0.950 . S
C870 H866 0.949 . S
C870 C878 1.574 . S
C870 C886 1.368 . S
H871 C879 0.950 . S
H872 C877 0.950 . S
H873 C878 0.949 . S
H874 C880 0.950 . S
H875 C881 0.950 . S
H876 C882 0.949 . S
C877 H872 0.950 . S
C877 C879 1.327 . S
C877 C883 1.429 . S
C878 C870 1.574 . S
C878 H873 0.949 . S
C878 C884 1.368 . S
C879 C863 1.349 . S
C879 H871 0.950 . S
C879 C877 1.327 . S
C880 C868 1.349 . S
C880 H874 0.950 . S
C880 C881 1.327 . S
C881 H875 0.950 . S
C881 C880 1.327 . S
C881 C885 1.429 . S
C882 C865 1.574 . S
C882 H876 0.949 . S
C882 C886 1.368 . S
C883 C864 1.429 . S
C883 C877 1.429 . S
C883 C884 1.523 . S
C884 C865 1.368 . S
C884 C878 1.368 . S
C884 C883 1.523 . S
C885 C869 1.429 . S
C885 C881 1.429 . S
C885 C886 1.523 . S
C886 C870 1.368 . S
C886 C882 1.368 . S
C886 C885 1.523 . S
H887 C862 0.950 . S
H888 C864 0.950 . S
H889 C865 0.949 . S
H890 C867 0.950 . S
H891 C869 0.950 . S
C892 C893 1.350 1_455 S
C892 C894 1.328 1_455 S
C892 H917 0.948 . S
C893 C892 1.350 1_655 S
C893 C909 1.349 . S
C894 C892 1.328 1_655 S
C894 C913 1.429 . S
C894 H918 0.950 . S
C895 C912 1.574 . S
C895 C914 1.368 . S
C895 H919 0.949 . S
H896 C900 0.949 . S
C897 C898 1.349 . S
C897 C899 1.327 . S
C897 H920 0.950 . S
C898 C897 1.349 . S
C898 C910 1.349 . S
C899 C897 1.327 . S
C899 C915 1.429 . S
C899 H921 0.950 . S
C900 H896 0.949 . S
C900 C908 1.574 . S
C900 C916 1.368 . S
H901 C909 0.950 . S
H902 C907 0.950 . S
H903 C908 0.949 . S
H904 C910 0.950 . S
H905 C911 0.950 . S
H906 C912 0.949 . S
C907 H902 0.950 . S
C907 C909 1.327 . S
C907 C913 1.429 . S
C908 C900 1.574 . S
C908 H903 0.949 . S
C908 C914 1.368 . S
C909 C893 1.349 . S
C909 H901 0.950 . S
C909 C907 1.327 . S
C910 C898 1.349 . S
C910 H904 0.950 . S
C910 C911 1.327 . S
C911 H905 0.950 . S
C911 C910 1.327 . S
C911 C915 1.429 . S
C912 C895 1.574 . S
C912 H906 0.949 . S
C912 C916 1.368 . S
C913 C894 1.429 . S
C913 C907 1.429 . S
C913 C914 1.523 . S
C914 C895 1.368 . S
C914 C908 1.368 . S
C914 C913 1.523 . S
C915 C899 1.429 . S
C915 C911 1.429 . S
C915 C916 1.523 . S
C916 C900 1.368 . S
C916 C912 1.368 . S
C916 C915 1.523 . S
H917 C892 0.948 . S
H918 C894 0.950 . S
H919 C895 0.949 . S
H920 C897 0.950 . S
H921 C899 0.950 . S
C922 C923 1.349 . S
C922 C924 1.327 . S
C922 H947 0.950 . S
C923 C922 1.349 . S
C923 C939 1.349 . S
C924 C922 1.327 . S
C924 C943 1.429 . S
C924 H948 0.950 . S
C925 C942 1.574 . S
C925 C944 1.368 . S
C925 H949 0.949 . S
H926 C930 0.949 . S
C927 C928 1.349 . S
C927 C929 1.327 . S
C927 H950 0.950 1_565 S
C928 C927 1.349 . S
C928 C940 1.349 . S
C929 C927 1.327 . S
C929 C945 1.429 . S
C929 H951 0.950 . S
C930 H926 0.949 . S
C930 C938 1.574 . S
C930 C946 1.368 . S
H931 C939 0.950 . S
H932 C937 0.950 . S
H933 C938 0.949 . S
H934 C940 0.950 . S
H935 C941 0.950 . S
H936 C942 0.949 . S
C937 H932 0.950 . S
C937 C939 1.327 . S
C937 C943 1.429 . S
C938 C930 1.574 . S
C938 H933 0.949 . S
C938 C944 1.368 . S
C939 C923 1.349 . S
C939 H931 0.950 . S
C939 C937 1.327 . S
C940 C928 1.349 . S
C940 H934 0.950 . S
C940 C941 1.327 . S
C941 H935 0.950 . S
C941 C940 1.327 . S
C941 C945 1.429 . S
C942 C925 1.574 . S
C942 H936 0.949 . S
C942 C946 1.368 . S
C943 C924 1.429 . S
C943 C937 1.429 . S
C943 C944 1.523 . S
C944 C925 1.368 . S
C944 C938 1.368 . S
C944 C943 1.523 . S
C945 C929 1.429 . S
C945 C941 1.429 . S
C945 C946 1.523 . S
C946 C930 1.368 . S
C946 C942 1.368 . S
C946 C945 1.523 . S
H947 C922 0.950 . S
H948 C924 0.950 . S
H949 C925 0.949 . S
H950 C927 0.950 1_545 S
H951 C929 0.950 . S
C952 C953 1.349 . S
C952 C954 1.327 . S
C952 H977 0.950 . S
C953 C952 1.349 . S
C953 C969 1.349 . S
C954 C952 1.327 . S
C954 C973 1.429 . S
C954 H978 0.950 . S
C955 C972 1.574 . S
C955 C974 1.368 . S
C955 H979 0.949 . S
H956 C960 0.949 . S
C957 C958 1.349 . S
C957 C959 1.327 . S
C957 H980 0.950 . S
C958 C957 1.349 . S
C958 C970 1.342 1_455 S
C959 C957 1.327 . S
C959 C975 1.429 . S
C959 H981 0.950 . S
C960 H956 0.949 . S
C960 C968 1.574 . S
C960 C976 1.368 . S
H961 C969 0.950 . S
H962 C967 0.950 . S
H963 C968 0.949 . S
H964 C970 0.969 . S
H965 C971 0.950 . S
H966 C972 0.949 . S
C967 H962 0.950 . S
C967 C969 1.327 . S
C967 C973 1.429 . S
C968 C960 1.574 . S
C968 H963 0.949 . S
C968 C974 1.368 . S
C969 C953 1.349 . S
C969 H961 0.950 . S
C969 C967 1.327 . S
C970 C958 1.342 1_655 S
C970 H964 0.969 . S
C970 C971 1.316 1_655 S
C971 H965 0.950 . S
C971 C970 1.316 1_455 S
C971 C975 1.429 . S
C972 C955 1.574 . S
C972 H966 0.949 . S
C972 C976 1.368 . S
C973 C954 1.429 . S
C973 C967 1.429 . S
C973 C974 1.523 . S
C974 C955 1.368 . S
C974 C968 1.368 . S
C974 C973 1.523 . S
C975 C959 1.429 . S
C975 C971 1.429 . S
C975 C976 1.523 . S
C976 C960 1.368 . S
C976 C972 1.368 . S
C976 C975 1.523 . S
H977 C952 0.950 . S
H978 C954 0.950 . S
H979 C955 0.949 . S
H980 C957 0.950 . S
H981 C959 0.950 . S
C982 C983 1.349 . S
C982 C984 1.327 . S
C982 H1007 0.950 . S
C983 C982 1.349 . S
C983 C999 1.349 . S
C984 C982 1.327 . S
C984 C1003 1.429 . S
C984 H1008 0.950 . S
C985 C1002 1.574 . S
C985 C1004 1.368 . S
C985 H1009 0.949 . S
H986 C990 0.949 . S
C987 C988 1.349 . S
C987 C989 1.327 . S
C987 H1010 0.950 . S
C988 C987 1.349 . S
C988 C1000 1.351 . S
C989 C987 1.327 . S
C989 C1005 1.429 . S
C989 H1011 0.950 . S
C990 H986 0.949 . S
C990 C998 1.574 . S
C990 C1006 1.368 . S
H991 C999 0.950 . S
H992 C997 0.950 . S
H993 C998 0.949 . S
H994 C1000 0.943 1_565 S
H995 C1001 0.950 . S
H996 C1002 0.949 . S
C997 H992 0.950 . S
C997 C999 1.327 . S
C997 C1003 1.429 . S
C998 C990 1.574 . S
C998 H993 0.949 . S
C998 C1004 1.368 . S
C999 C983 1.349 . S
C999 H991 0.950 . S
C999 C997 1.327 . S
C1000 C988 1.351 . S
C1000 H994 0.943 1_545 S
C1000 C1001 1.332 . S
C1001 H995 0.950 . S
C1001 C1000 1.332 . S
C1001 C1005 1.429 . S
C1002 C985 1.574 . S
C1002 H996 0.949 . S
C1002 C1006 1.368 . S
C1003 C984 1.429 . S
C1003 C997 1.429 . S
C1003 C1004 1.523 . S
C1004 C985 1.368 . S
C1004 C998 1.368 . S
C1004 C1003 1.523 . S
C1005 C989 1.429 . S
C1005 C1001 1.429 . S
C1005 C1006 1.523 . S
C1006 C990 1.368 . S
C1006 C1002 1.368 . S
C1006 C1005 1.523 . S
H1007 C982 0.950 . S
H1008 C984 0.950 . S
H1009 C985 0.949 . S
H1010 C987 0.950 . S
H1011 C989 0.950 . S
C1012 C1013 1.349 . S
C1012 C1014 1.327 . S
C1012 H1037 0.950 . S
C1013 C1012 1.349 . S
C1013 C1029 1.349 . S
C1014 C1012 1.327 . S
C1014 C1033 1.429 . S
C1014 H1038 0.950 . S
C1015 C1032 1.574 . S
C1015 C1034 1.368 . S
C1015 H1039 0.949 . S
H1016 C1020 0.949 . S
C1017 C1018 1.349 . S
C1017 C1019 1.327 . S
C1017 H1040 0.950 . S
C1018 C1017 1.349 . S
C1018 C1030 1.349 . S
C1019 C1017 1.327 . S
C1019 C1035 1.429 . S
C1019 H1041 0.950 . S
C1020 H1016 0.949 . S
C1020 C1028 1.574 . S
C1020 C1036 1.368 . S
H1021 C1029 0.950 . S
H1022 C1027 0.950 . S
H1023 C1028 0.949 . S
H1024 C1030 0.950 . S
H1025 C1031 0.950 . S
H1026 C1032 0.949 . S
C1027 H1022 0.950 . S
C1027 C1029 1.327 . S
C1027 C1033 1.429 . S
C1028 C1020 1.574 . S
C1028 H1023 0.949 . S
C1028 C1034 1.368 . S
C1029 C1013 1.349 . S
C1029 H1021 0.950 . S
C1029 C1027 1.327 . S
C1030 C1018 1.349 . S
C1030 H1024 0.950 . S
C1030 C1031 1.327 . S
C1031 H1025 0.950 . S
C1031 C1030 1.327 . S
C1031 C1035 1.429 . S
C1032 C1015 1.574 . S
C1032 H1026 0.949 . S
C1032 C1036 1.368 . S
C1033 C1014 1.429 . S
C1033 C1027 1.429 . S
C1033 C1034 1.523 . S
C1034 C1015 1.368 . S
C1034 C1028 1.368 . S
C1034 C1033 1.523 . S
C1035 C1019 1.429 . S
C1035 C1031 1.429 . S
C1035 C1036 1.523 . S
C1036 C1020 1.368 . S
C1036 C1032 1.368 . S
C1036 C1035 1.523 . S
H1037 C1012 0.950 . S
H1038 C1014 0.950 . S
H1039 C1015 0.949 . S
H1040 C1017 0.950 . S
H1041 C1019 0.950 . S
C1042 C1043 1.349 . S
C1042 C1044 1.327 . S
C1042 H1067 0.950 . S
C1043 C1042 1.349 . S
C1043 C1059 1.349 . S
C1044 C1042 1.327 . S
C1044 C1063 1.429 . S
C1044 H1068 0.950 . S
C1045 C1062 1.574 . S
C1045 C1064 1.368 . S
C1045 H1069 0.949 . S
H1046 C1050 0.949 . S
C1047 C1048 1.349 . S
C1047 C1049 1.327 . S
C1047 H1070 0.950 . S
C1048 C1047 1.349 . S
C1048 C1060 1.349 . S
C1049 C1047 1.327 . S
C1049 C1065 1.429 . S
C1049 H1071 0.950 . S
C1050 H1046 0.949 . S
C1050 C1058 1.574 . S
C1050 C1066 1.368 . S
H1051 C1059 0.950 . S
H1052 C1057 0.950 . S
H1053 C1058 0.949 . S
H1054 C1060 0.950 . S
H1055 C1061 0.950 . S
H1056 C1062 0.949 . S
C1057 H1052 0.950 . S
C1057 C1059 1.327 . S
C1057 C1063 1.429 . S
C1058 C1050 1.574 . S
C1058 H1053 0.949 . S
C1058 C1064 1.368 . S
C1059 C1043 1.349 . S
C1059 H1051 0.950 . S
C1059 C1057 1.327 . S
C1060 C1048 1.349 . S
C1060 H1054 0.950 . S
C1060 C1061 1.327 . S
C1061 H1055 0.950 . S
C1061 C1060 1.327 . S
C1061 C1065 1.429 . S
C1062 C1045 1.574 . S
C1062 H1056 0.949 . S
C1062 C1066 1.368 . S
C1063 C1044 1.429 . S
C1063 C1057 1.429 . S
C1063 C1064 1.523 . S
C1064 C1045 1.368 . S
C1064 C1058 1.368 . S
C1064 C1063 1.523 . S
C1065 C1049 1.429 . S
C1065 C1061 1.429 . S
C1065 C1066 1.523 . S
C1066 C1050 1.368 . S
C1066 C1062 1.368 . S
C1066 C1065 1.523 . S
H1067 C1042 0.950 . S
H1068 C1044 0.950 . S
H1069 C1045 0.949 . S
H1070 C1047 0.950 . S
H1071 C1049 0.950 . S
C1072 C1073 1.349 . S
C1072 C1074 1.327 . S
C1072 H1097 0.950 . S
C1073 C1072 1.349 . S
C1073 C1089 1.349 . S
C1074 C1072 1.327 . S
C1074 C1093 1.429 . S
C1074 H1098 0.950 . S
C1075 C1092 1.574 . S
C1075 C1094 1.368 . S
C1075 H1099 0.949 . S
H1076 C1080 0.949 . S
C1077 C1078 1.349 . S
C1077 C1079 1.327 . S
C1077 H1100 0.950 . S
C1078 C1077 1.349 . S
C1078 C1090 1.349 . S
C1079 C1077 1.327 . S
C1079 C1095 1.429 . S
C1079 H1101 0.950 . S
C1080 H1076 0.949 . S
C1080 C1088 1.574 . S
C1080 C1096 1.368 . S
H1081 C1089 0.950 . S
H1082 C1087 0.950 . S
H1083 C1088 0.949 . S
H1084 C1090 0.950 . S
H1085 C1091 0.950 . S
H1086 C1092 0.949 . S
C1087 H1082 0.950 . S
C1087 C1089 1.327 . S
C1087 C1093 1.429 . S
C1088 C1080 1.574 . S
C1088 H1083 0.949 . S
C1088 C1094 1.368 . S
C1089 C1073 1.349 . S
C1089 H1081 0.950 . S
C1089 C1087 1.327 . S
C1090 C1078 1.349 . S
C1090 H1084 0.950 . S
C1090 C1091 1.327 . S
C1091 H1085 0.950 . S
C1091 C1090 1.327 . S
C1091 C1095 1.429 . S
C1092 C1075 1.574 . S
C1092 H1086 0.949 . S
C1092 C1096 1.368 . S
C1093 C1074 1.429 . S
C1093 C1087 1.429 . S
C1093 C1094 1.523 . S
C1094 C1075 1.368 . S
C1094 C1088 1.368 . S
C1094 C1093 1.523 . S
C1095 C1079 1.429 . S
C1095 C1091 1.429 . S
C1095 C1096 1.523 . S
C1096 C1080 1.368 . S
C1096 C1092 1.368 . S
C1096 C1095 1.523 . S
H1097 C1072 0.950 . S
H1098 C1074 0.950 . S
H1099 C1075 0.949 . S
H1100 C1077 0.950 . S
H1101 C1079 0.950 . S
C1102 C1103 1.349 . S
C1102 C1104 1.327 . S
C1102 H1127 0.950 . S
C1103 C1102 1.349 . S
C1103 C1119 1.349 . S
C1104 C1102 1.327 . S
C1104 C1123 1.429 . S
C1104 H1128 0.950 . S
C1105 C1122 1.574 . S
C1105 C1124 1.368 . S
C1105 H1129 0.949 . S
H1106 C1110 0.949 . S
C1107 C1108 1.349 . S
C1107 C1109 1.327 . S
C1107 H1130 0.950 . S
C1108 C1107 1.349 . S
C1108 C1120 1.349 . S
C1109 C1107 1.327 . S
C1109 C1125 1.429 . S
C1109 H1131 0.950 . S
C1110 H1106 0.949 . S
C1110 C1118 1.574 . S
C1110 C1126 1.368 . S
H1111 C1119 0.950 . S
H1112 C1117 0.950 . S
H1113 C1118 0.949 . S
H1114 C1120 0.950 . S
H1115 C1121 0.950 . S
H1116 C1122 0.949 . S
C1117 H1112 0.950 . S
C1117 C1119 1.327 . S
C1117 C1123 1.429 . S
C1118 C1110 1.574 . S
C1118 H1113 0.949 . S
C1118 C1124 1.368 . S
C1119 C1103 1.349 . S
C1119 H1111 0.950 . S
C1119 C1117 1.327 . S
C1120 C1108 1.349 . S
C1120 H1114 0.950 . S
C1120 C1121 1.327 . S
C1121 H1115 0.950 . S
C1121 C1120 1.327 . S
C1121 C1125 1.429 . S
C1122 C1105 1.574 . S
C1122 H1116 0.949 . S
C1122 C1126 1.368 . S
C1123 C1104 1.429 . S
C1123 C1117 1.429 . S
C1123 C1124 1.523 . S
C1124 C1105 1.368 . S
C1124 C1118 1.368 . S
C1124 C1123 1.523 . S
C1125 C1109 1.429 . S
C1125 C1121 1.429 . S
C1125 C1126 1.523 . S
C1126 C1110 1.368 . S
C1126 C1122 1.368 . S
C1126 C1125 1.523 . S
H1127 C1102 0.950 . S
H1128 C1104 0.950 . S
H1129 C1105 0.949 . S
H1130 C1107 0.950 . S
H1131 C1109 0.950 . S
C1132 C1133 1.344 1_655 S
C1132 C1134 1.320 1_655 S
C1132 H1157 0.962 . S
C1133 C1132 1.344 1_455 S
C1133 C1149 1.349 . S
C1134 C1132 1.320 1_455 S
C1134 C1153 1.429 . S
C1134 H1158 0.950 . S
C1135 C1152 1.574 . S
C1135 C1154 1.368 . S
C1135 H1159 0.949 . S
H1136 C1140 0.949 . S
C1137 C1138 1.349 . S
C1137 C1139 1.327 . S
C1137 H1160 0.950 . S
C1138 C1137 1.349 . S
C1138 C1150 1.349 . S
C1139 C1137 1.327 . S
C1139 C1155 1.429 . S
C1139 H1161 0.950 . S
C1140 H1136 0.949 . S
C1140 C1148 1.574 . S
C1140 C1156 1.368 . S
H1141 C1149 0.950 . S
H1142 C1147 0.950 . S
H1143 C1148 0.949 . S
H1144 C1150 0.950 . S
H1145 C1151 0.950 . S
H1146 C1152 0.949 . S
C1147 H1142 0.950 . S
C1147 C1149 1.327 . S
C1147 C1153 1.429 . S
C1148 C1140 1.574 . S
C1148 H1143 0.949 . S
C1148 C1154 1.368 . S
C1149 C1133 1.349 . S
C1149 H1141 0.950 . S
C1149 C1147 1.327 . S
C1150 C1138 1.349 . S
C1150 H1144 0.950 . S
C1150 C1151 1.327 . S
C1151 H1145 0.950 . S
C1151 C1150 1.327 . S
C1151 C1155 1.429 . S
C1152 C1135 1.574 . S
C1152 H1146 0.949 . S
C1152 C1156 1.368 . S
C1153 C1134 1.429 . S
C1153 C1147 1.429 . S
C1153 C1154 1.523 . S
C1154 C1135 1.368 . S
C1154 C1148 1.368 . S
C1154 C1153 1.523 . S
C1155 C1139 1.429 . S
C1155 C1151 1.429 . S
C1155 C1156 1.523 . S
C1156 C1140 1.368 . S
C1156 C1152 1.368 . S
C1156 C1155 1.523 . S
H1157 C1132 0.962 . S
H1158 C1134 0.950 . S
H1159 C1135 0.949 . S
H1160 C1137 0.950 . S
H1161 C1139 0.950 . S
C1162 C1163 1.344 1_565 S
C1162 C1164 1.318 1_565 S
C1162 H1187 0.964 . S
C1163 C1162 1.344 1_545 S
C1163 C1179 1.349 . S
C1164 C1162 1.318 1_545 S
C1164 C1183 1.429 . S
C1164 H1188 0.950 . S
C1165 C1182 1.574 . S
C1165 C1184 1.368 . S
C1165 H1189 0.949 . S
H1166 C1170 0.949 . S
C1167 C1168 1.349 . S
C1167 C1169 1.327 . S
C1167 H1190 0.950 . S
C1168 C1167 1.349 . S
C1168 C1180 1.349 . S
C1169 C1167 1.327 . S
C1169 C1185 1.429 . S
C1169 H1191 0.950 . S
C1170 H1166 0.949 . S
C1170 C1178 1.574 . S
C1170 C1186 1.368 . S
H1171 C1179 0.950 . S
H1172 C1177 0.950 . S
H1173 C1178 0.949 . S
H1174 C1180 0.950 . S
H1175 C1181 0.950 . S
H1176 C1182 0.949 . S
C1177 H1172 0.950 . S
C1177 C1179 1.327 . S
C1177 C1183 1.429 . S
C1178 C1170 1.574 . S
C1178 H1173 0.949 . S
C1178 C1184 1.368 . S
C1179 C1163 1.349 . S
C1179 H1171 0.950 . S
C1179 C1177 1.327 . S
C1180 C1168 1.349 . S
C1180 H1174 0.950 . S
C1180 C1181 1.327 . S
C1181 H1175 0.950 . S
C1181 C1180 1.327 . S
C1181 C1185 1.429 . S
C1182 C1165 1.574 . S
C1182 H1176 0.949 . S
C1182 C1186 1.368 . S
C1183 C1164 1.429 . S
C1183 C1177 1.429 . S
C1183 C1184 1.523 . S
C1184 C1165 1.368 . S
C1184 C1178 1.368 . S
C1184 C1183 1.523 . S
C1185 C1169 1.429 . S
C1185 C1181 1.429 . S
C1185 C1186 1.523 . S
C1186 C1170 1.368 . S
C1186 C1182 1.368 . S
C1186 C1185 1.523 . S
H1187 C1162 0.964 . S
H1188 C1164 0.950 . S
H1189 C1165 0.949 . S
H1190 C1167 0.950 . S
H1191 C1169 0.950 . S
C1192 C1193 1.349 . S
C1192 C1194 1.327 . S
C1192 H1217 0.950 . S
C1193 C1192 1.349 . S
C1193 C1209 1.349 . S
C1194 C1192 1.327 . S
C1194 C1213 1.429 . S
C1194 H1218 0.950 . S
C1195 C1212 1.574 . S
C1195 C1214 1.368 . S
C1195 H1219 0.949 . S
H1196 C1200 0.949 . S
C1197 C1198 1.349 1_455 S
C1197 C1199 1.327 1_455 S
C1197 H1220 0.950 . S
C1198 C1197 1.349 1_655 S
C1198 C1210 1.349 . S
C1199 C1197 1.327 1_655 S
C1199 C1215 1.429 . S
C1199 H1221 0.950 1_655 S
C1200 H1196 0.949 . S
C1200 C1208 1.574 . S
C1200 C1216 1.368 . S
H1201 C1209 0.950 . S
H1202 C1207 0.950 . S
H1203 C1208 0.949 . S
H1204 C1210 0.950 . S
H1205 C1211 0.950 . S
H1206 C1212 0.949 . S
C1207 H1202 0.950 . S
C1207 C1209 1.327 . S
C1207 C1213 1.429 . S
C1208 C1200 1.574 . S
C1208 H1203 0.949 . S
C1208 C1214 1.368 . S
C1209 C1193 1.349 . S
C1209 H1201 0.950 . S
C1209 C1207 1.327 . S
C1210 C1198 1.349 . S
C1210 H1204 0.950 . S
C1210 C1211 1.327 . S
C1211 H1205 0.950 . S
C1211 C1210 1.327 . S
C1211 C1215 1.429 . S
C1212 C1195 1.574 . S
C1212 H1206 0.949 . S
C1212 C1216 1.368 . S
C1213 C1194 1.429 . S
C1213 C1207 1.429 . S
C1213 C1214 1.523 . S
C1214 C1195 1.368 . S
C1214 C1208 1.368 . S
C1214 C1213 1.523 . S
C1215 C1199 1.429 . S
C1215 C1211 1.429 . S
C1215 C1216 1.523 . S
C1216 C1200 1.368 . S
C1216 C1212 1.368 . S
C1216 C1215 1.523 . S
H1217 C1192 0.950 . S
H1218 C1194 0.950 . S
H1219 C1195 0.949 . S
H1220 C1197 0.950 . S
H1221 C1199 0.950 1_455 S
C1222 C1223 1.349 . S
C1222 C1224 1.327 . S
C1222 H1247 0.950 . S
C1223 C1222 1.349 . S
C1223 C1239 1.349 . S
C1224 C1222 1.327 . S
C1224 C1243 1.429 . S
C1224 H1248 0.950 . S
C1225 C1242 1.574 . S
C1225 C1244 1.368 . S
C1225 H1249 0.949 . S
H1226 C1230 0.949 . S
C1227 C1228 1.349 1_545 S
C1227 C1229 1.327 1_545 S
C1227 H1250 0.950 . S
C1228 C1227 1.349 1_565 S
C1228 C1240 1.349 . S
C1229 C1227 1.327 1_565 S
C1229 C1245 1.429 . S
C1229 H1251 0.950 . S
C1230 H1226 0.949 . S
C1230 C1238 1.574 . S
C1230 C1246 1.368 . S
H1231 C1239 0.950 . S
H1232 C1237 0.950 . S
H1233 C1238 0.949 . S
H1234 C1240 0.950 . S
H1235 C1241 0.950 . S
H1236 C1242 0.949 . S
C1237 H1232 0.950 . S
C1237 C1239 1.327 . S
C1237 C1243 1.429 . S
C1238 C1230 1.574 . S
C1238 H1233 0.949 . S
C1238 C1244 1.368 . S
C1239 C1223 1.349 . S
C1239 H1231 0.950 . S
C1239 C1237 1.327 . S
C1240 C1228 1.349 . S
C1240 H1234 0.950 . S
C1240 C1241 1.327 . S
C1241 H1235 0.950 . S
C1241 C1240 1.327 . S
C1241 C1245 1.429 . S
C1242 C1225 1.574 . S
C1242 H1236 0.949 . S
C1242 C1246 1.368 . S
C1243 C1224 1.429 . S
C1243 C1237 1.429 . S
C1243 C1244 1.523 . S
C1244 C1225 1.368 . S
C1244 C1238 1.368 . S
C1244 C1243 1.523 . S
C1245 C1229 1.429 . S
C1245 C1241 1.429 . S
C1245 C1246 1.523 . S
C1246 C1230 1.368 . S
C1246 C1242 1.368 . S
C1246 C1245 1.523 . S
H1247 C1222 0.950 . S
H1248 C1224 0.950 . S
H1249 C1225 0.949 . S
H1250 C1227 0.950 . S
H1251 C1229 0.950 . S
C1252 C1253 1.349 . S
C1252 C1254 1.327 . S
C1252 H1277 0.950 . S
C1253 C1252 1.349 . S
C1253 C1269 1.349 . S
C1254 C1252 1.327 . S
C1254 C1273 1.429 . S
C1254 H1278 0.950 . S
C1255 C1272 1.574 . S
C1255 C1274 1.368 . S
C1255 H1279 0.949 . S
H1256 C1260 0.949 . S
C1257 C1258 1.349 . S
C1257 C1259 1.327 . S
C1257 H1280 0.950 . S
C1258 C1257 1.349 . S
C1258 C1270 1.349 . S
C1259 C1257 1.327 . S
C1259 C1275 1.429 . S
C1259 H1281 0.950 . S
C1260 H1256 0.949 . S
C1260 C1268 1.574 . S
C1260 C1276 1.368 . S
H1261 C1269 0.950 . S
H1262 C1267 0.950 . S
H1263 C1268 0.949 . S
H1264 C1270 0.950 . S
H1265 C1271 0.950 . S
H1266 C1272 0.949 . S
C1267 H1262 0.950 . S
C1267 C1269 1.327 . S
C1267 C1273 1.429 . S
C1268 C1260 1.574 . S
C1268 H1263 0.949 . S
C1268 C1274 1.368 . S
C1269 C1253 1.349 . S
C1269 H1261 0.950 . S
C1269 C1267 1.327 . S
C1270 C1258 1.349 . S
C1270 H1264 0.950 . S
C1270 C1271 1.327 . S
C1271 H1265 0.950 . S
C1271 C1270 1.327 . S
C1271 C1275 1.429 . S
C1272 C1255 1.574 . S
C1272 H1266 0.949 . S
C1272 C1276 1.368 . S
C1273 C1254 1.429 . S
C1273 C1267 1.429 . S
C1273 C1274 1.523 . S
C1274 C1255 1.368 . S
C1274 C1268 1.368 . S
C1274 C1273 1.523 . S
C1275 C1259 1.429 . S
C1275 C1271 1.429 . S
C1275 C1276 1.523 . S
C1276 C1260 1.368 . S
C1276 C1272 1.368 . S
C1276 C1275 1.523 . S
H1277 C1252 0.950 . S
H1278 C1254 0.950 . S
H1279 C1255 0.949 . S
H1280 C1257 0.950 . S
H1281 C1259 0.950 . S
C1282 C1283 1.349 . S
C1282 C1284 1.327 . S
C1282 H1307 0.950 . S
C1283 C1282 1.349 . S
C1283 C1299 1.349 . S
C1284 C1282 1.327 . S
C1284 C1303 1.429 . S
C1284 H1308 0.950 . S
C1285 C1302 1.574 . S
C1285 C1304 1.368 . S
C1285 H1309 0.949 . S
H1286 C1290 0.949 . S
C1287 C1288 1.349 . S
C1287 C1289 1.327 . S
C1287 H1310 0.950 . S
C1288 C1287 1.349 . S
C1288 C1300 1.349 . S
C1289 C1287 1.327 . S
C1289 C1305 1.429 . S
C1289 H1311 0.950 . S
C1290 H1286 0.949 . S
C1290 C1298 1.574 . S
C1290 C1306 1.368 . S
H1291 C1299 0.950 . S
H1292 C1297 0.950 . S
H1293 C1298 0.949 . S
H1294 C1300 0.950 . S
H1295 C1301 0.950 . S
H1296 C1302 0.949 . S
C1297 H1292 0.950 . S
C1297 C1299 1.327 . S
C1297 C1303 1.429 . S
C1298 C1290 1.574 . S
C1298 H1293 0.949 . S
C1298 C1304 1.368 . S
C1299 C1283 1.349 . S
C1299 H1291 0.950 . S
C1299 C1297 1.327 . S
C1300 C1288 1.349 . S
C1300 H1294 0.950 . S
C1300 C1301 1.327 . S
C1301 H1295 0.950 . S
C1301 C1300 1.327 . S
C1301 C1305 1.429 . S
C1302 C1285 1.574 . S
C1302 H1296 0.949 . S
C1302 C1306 1.368 . S
C1303 C1284 1.429 . S
C1303 C1297 1.429 . S
C1303 C1304 1.523 . S
C1304 C1285 1.368 . S
C1304 C1298 1.368 . S
C1304 C1303 1.523 . S
C1305 C1289 1.429 . S
C1305 C1301 1.429 . S
C1305 C1306 1.523 . S
C1306 C1290 1.368 . S
C1306 C1302 1.368 . S
C1306 C1305 1.523 . S
H1307 C1282 0.950 . S
H1308 C1284 0.950 . S
H1309 C1285 0.949 . S
H1310 C1287 0.950 . S
H1311 C1289 0.950 . S
C1312 C1313 1.349 . S
C1312 C1314 1.327 . S
C1312 H1337 0.950 . S
C1313 C1312 1.349 . S
C1313 C1329 1.349 . S
C1314 C1312 1.327 . S
C1314 C1333 1.429 . S
C1314 H1338 0.950 . S
C1315 C1332 1.574 . S
C1315 C1334 1.368 . S
C1315 H1339 0.949 . S
H1316 C1320 0.949 . S
C1317 C1318 1.349 . S
C1317 C1319 1.327 . S
C1317 H1340 0.950 . S
C1318 C1317 1.349 . S
C1318 C1330 1.349 . S
C1319 C1317 1.327 . S
C1319 C1335 1.429 . S
C1319 H1341 0.950 1_556 S
C1320 H1316 0.949 . S
C1320 C1328 1.574 1_556 S
C1320 C1336 1.368 1_556 S
H1321 C1329 0.950 . S
H1322 C1327 0.950 . S
H1323 C1328 0.949 . S
H1324 C1330 0.950 . S
H1325 C1331 0.950 . S
H1326 C1332 0.949 . S
C1327 H1322 0.950 . S
C1327 C1329 1.327 . S
C1327 C1333 1.429 . S
C1328 C1320 1.574 1_554 S
C1328 H1323 0.949 . S
C1328 C1334 1.368 . S
C1329 C1313 1.349 . S
C1329 H1321 0.950 . S
C1329 C1327 1.327 . S
C1330 C1318 1.349 . S
C1330 H1324 0.950 . S
C1330 C1331 1.327 . S
C1331 H1325 0.950 . S
C1331 C1330 1.327 . S
C1331 C1335 1.429 . S
C1332 C1315 1.574 . S
C1332 H1326 0.949 . S
C1332 C1336 1.368 . S
C1333 C1314 1.429 . S
C1333 C1327 1.429 . S
C1333 C1334 1.523 . S
C1334 C1315 1.368 . S
C1334 C1328 1.368 . S
C1334 C1333 1.523 . S
C1335 C1319 1.429 . S
C1335 C1331 1.429 . S
C1335 C1336 1.523 1_556 S
C1336 C1320 1.368 1_554 S
C1336 C1332 1.368 . S
C1336 C1335 1.523 1_554 S
H1337 C1312 0.950 . S
H1338 C1314 0.950 . S
H1339 C1315 0.949 . S
H1340 C1317 0.950 . S
H1341 C1319 0.950 1_554 S
C1342 C1343 1.349 . S
C1342 C1344 1.327 . S
C1342 H1367 0.950 . S
C1343 C1342 1.349 . S
C1343 C1359 1.349 . S
C1344 C1342 1.327 . S
C1344 C1363 1.429 . S
C1344 H1368 0.950 . S
C1345 C1362 1.574 . S
C1345 C1364 1.368 . S
C1345 H1369 0.949 . S
H1346 C1350 0.949 . S
C1347 C1348 1.349 . S
C1347 C1349 1.327 . S
C1347 H1370 0.950 . S
C1348 C1347 1.349 . S
C1348 C1360 1.349 . S
C1349 C1347 1.327 . S
C1349 C1365 1.429 . S
C1349 H1371 0.950 . S
C1350 H1346 0.949 . S
C1350 C1358 1.574 . S
C1350 C1366 1.368 . S
H1351 C1359 0.950 . S
H1352 C1357 0.950 . S
H1353 C1358 0.949 . S
H1354 C1360 0.950 . S
H1355 C1361 0.950 . S
H1356 C1362 0.949 . S
C1357 H1352 0.950 . S
C1357 C1359 1.327 . S
C1357 C1363 1.429 . S
C1358 C1350 1.574 . S
C1358 H1353 0.949 . S
C1358 C1364 1.368 . S
C1359 C1343 1.349 . S
C1359 H1351 0.950 . S
C1359 C1357 1.327 . S
C1360 C1348 1.349 . S
C1360 H1354 0.950 . S
C1360 C1361 1.327 . S
C1361 H1355 0.950 . S
C1361 C1360 1.327 . S
C1361 C1365 1.429 . S
C1362 C1345 1.574 . S
C1362 H1356 0.949 . S
C1362 C1366 1.368 . S
C1363 C1344 1.429 . S
C1363 C1357 1.429 . S
C1363 C1364 1.523 1_556 S
C1364 C1345 1.368 . S
C1364 C1358 1.368 . S
C1364 C1363 1.523 1_554 S
C1365 C1349 1.429 . S
C1365 C1361 1.429 . S
C1365 C1366 1.523 . S
C1366 C1350 1.368 . S
C1366 C1362 1.368 . S
C1366 C1365 1.523 . S
H1367 C1342 0.950 . S
H1368 C1344 0.950 . S
H1369 C1345 0.949 . S
H1370 C1347 0.950 . S
H1371 C1349 0.950 . S
C1372 C1373 1.349 . S
C1372 C1374 1.327 . S
C1372 H1397 0.950 . S
C1373 C1372 1.349 . S
C1373 C1389 1.349 . S
C1374 C1372 1.327 . S
C1374 C1393 1.429 . S
C1374 H1398 0.950 . S
C1375 C1392 1.574 1_554 S
C1375 C1394 1.368 . S
C1375 H1399 0.949 . S
H1376 C1380 0.949 . S
C1377 C1378 1.349 . S
C1377 C1379 1.327 . S
C1377 H1400 0.950 . S
C1378 C1377 1.349 . S
C1378 C1390 1.349 . S
C1379 C1377 1.327 . S
C1379 C1395 1.429 . S
C1379 H1401 0.950 . S
C1380 H1376 0.949 . S
C1380 C1388 1.574 . S
C1380 C1396 1.368 . S
H1381 C1389 0.950 . S
H1382 C1387 0.950 . S
H1383 C1388 0.949 . S
H1384 C1390 0.950 . S
H1385 C1391 0.950 1_554 S
H1386 C1392 0.949 . S
C1387 H1382 0.950 . S
C1387 C1389 1.327 . S
C1387 C1393 1.429 . S
C1388 C1380 1.574 . S
C1388 H1383 0.949 . S
C1388 C1394 1.368 . S
C1389 C1373 1.349 . S
C1389 H1381 0.950 . S
C1389 C1387 1.327 . S
C1390 C1378 1.349 . S
C1390 H1384 0.950 . S
C1390 C1391 1.327 . S
C1391 H1385 0.950 1_556 S
C1391 C1390 1.327 . S
C1391 C1395 1.429 . S
C1392 C1375 1.574 1_556 S
C1392 H1386 0.949 . S
C1392 C1396 1.368 1_556 S
C1393 C1374 1.429 . S
C1393 C1387 1.429 . S
C1393 C1394 1.523 . S
C1394 C1375 1.368 . S
C1394 C1388 1.368 . S
C1394 C1393 1.523 . S
C1395 C1379 1.429 . S
C1395 C1391 1.429 . S
C1395 C1396 1.523 1_556 S
C1396 C1380 1.368 . S
C1396 C1392 1.368 1_554 S
C1396 C1395 1.523 1_554 S
H1397 C1372 0.950 . S
H1398 C1374 0.950 . S
H1399 C1375 0.949 . S
H1400 C1377 0.950 . S
H1401 C1379 0.950 . S
C1402 C1403 1.349 . S
C1402 C1404 1.327 . S
C1402 H1427 0.950 . S
C1403 C1402 1.349 . S
C1403 C1419 1.349 . S
C1404 C1402 1.327 . S
C1404 C1423 1.429 . S
C1404 H1428 0.950 . S
C1405 C1422 1.574 . S
C1405 C1424 1.368 . S
C1405 H1429 0.959 . S
H1406 C1410 0.949 . S
C1407 C1408 1.349 . S
C1407 C1409 1.327 . S
C1407 H1430 0.950 . S
C1408 C1407 1.349 . S
C1408 C1420 1.349 . S
C1409 C1407 1.327 . S
C1409 C1425 1.429 . S
C1409 H1431 0.950 . S
C1410 H1406 0.949 . S
C1410 C1418 1.574 . S
C1410 C1426 1.368 . S
H1411 C1419 0.950 . S
H1412 C1417 0.950 . S
H1413 C1418 0.949 . S
H1414 C1420 0.950 . S
H1415 C1421 0.950 . S
H1416 C1422 0.949 . S
C1417 H1412 0.950 . S
C1417 C1419 1.327 . S
C1417 C1423 1.429 . S
C1418 C1410 1.574 . S
C1418 H1413 0.949 . S
C1418 C1424 1.368 . S
C1419 C1403 1.349 . S
C1419 H1411 0.950 . S
C1419 C1417 1.327 . S
C1420 C1408 1.349 . S
C1420 H1414 0.950 . S
C1420 C1421 1.327 . S
C1421 H1415 0.950 . S
C1421 C1420 1.327 . S
C1421 C1425 1.429 . S
C1422 C1405 1.574 . S
C1422 H1416 0.949 . S
C1422 C1426 1.368 . S
C1423 C1404 1.429 . S
C1423 C1417 1.429 . S
C1423 C1424 1.523 1_556 S
C1424 C1405 1.368 . S
C1424 C1418 1.368 . S
C1424 C1423 1.523 1_554 S
C1425 C1409 1.429 . S
C1425 C1421 1.429 . S
C1425 C1426 1.523 . S
C1426 C1410 1.368 . S
C1426 C1422 1.368 . S
C1426 C1425 1.523 . S
H1427 C1402 0.950 . S
H1428 C1404 0.950 . S
H1429 C1405 0.959 . S
H1430 C1407 0.950 . S
H1431 C1409 0.950 . S
C1432 C1433 1.349 . S
C1432 C1434 1.327 . S
C1432 H1457 0.950 . S
C1433 C1432 1.349 . S
C1433 C1449 1.349 . S
C1434 C1432 1.327 . S
C1434 C1453 1.429 . S
C1434 H1458 0.950 . S
C1435 C1452 1.574 . S
C1435 C1454 1.368 . S
C1435 H1459 0.949 . S
H1436 C1440 0.949 . S
C1437 C1438 1.349 . S
C1437 C1439 1.327 . S
C1437 H1460 0.950 . S
C1438 C1437 1.349 . S
C1438 C1450 1.349 . S
C1439 C1437 1.327 . S
C1439 C1455 1.429 . S
C1439 H1461 0.950 . S
C1440 H1436 0.949 . S
C1440 C1448 1.574 . S
C1440 C1456 1.368 . S
H1441 C1449 0.950 . S
H1442 C1447 0.950 . S
H1443 C1448 0.949 . S
H1444 C1450 0.950 . S
H1445 C1451 0.950 . S
H1446 C1452 0.949 . S
C1447 H1442 0.950 . S
C1447 C1449 1.327 . S
C1447 C1453 1.429 . S
C1448 C1440 1.574 . S
C1448 H1443 0.949 . S
C1448 C1454 1.368 . S
C1449 C1433 1.349 . S
C1449 H1441 0.950 . S
C1449 C1447 1.327 . S
C1450 C1438 1.349 . S
C1450 H1444 0.950 . S
C1450 C1451 1.327 . S
C1451 H1445 0.950 . S
C1451 C1450 1.327 . S
C1451 C1455 1.429 . S
C1452 C1435 1.574 . S
C1452 H1446 0.949 . S
C1452 C1456 1.368 . S
C1453 C1434 1.429 . S
C1453 C1447 1.429 . S
C1453 C1454 1.523 . S
C1454 C1435 1.368 . S
C1454 C1448 1.368 . S
C1454 C1453 1.523 . S
C1455 C1439 1.429 . S
C1455 C1451 1.429 . S
C1455 C1456 1.523 . S
C1456 C1440 1.368 . S
C1456 C1452 1.368 . S
C1456 C1455 1.523 . S
H1457 C1432 0.950 . S
H1458 C1434 0.950 . S
H1459 C1435 0.949 . S
H1460 C1437 0.950 . S
H1461 C1439 0.950 . S
C1462 C1463 1.349 . S
C1462 C1464 1.327 . S
C1462 H1487 0.950 . S
C1463 C1462 1.349 . S
C1463 C1479 1.349 . S
C1464 C1462 1.327 . S
C1464 C1483 1.429 . S
C1464 H1488 0.950 . S
C1465 C1482 1.574 . S
C1465 C1484 1.368 . S
C1465 H1489 0.949 . S
H1466 C1470 0.949 . S
C1467 C1468 1.349 . S
C1467 C1469 1.327 . S
C1467 H1490 0.950 . S
C1468 C1467 1.349 . S
C1468 C1480 1.349 . S
C1469 C1467 1.327 . S
C1469 C1485 1.429 . S
C1469 H1491 0.950 . S
C1470 H1466 0.949 . S
C1470 C1478 1.574 . S
C1470 C1486 1.368 . S
H1471 C1479 0.950 . S
H1472 C1477 0.950 . S
H1473 C1478 0.949 . S
H1474 C1480 0.950 . S
H1475 C1481 0.950 . S
H1476 C1482 0.949 . S
C1477 H1472 0.950 . S
C1477 C1479 1.327 . S
C1477 C1483 1.429 . S
C1478 C1470 1.574 . S
C1478 H1473 0.949 . S
C1478 C1484 1.368 . S
C1479 C1463 1.349 . S
C1479 H1471 0.950 . S
C1479 C1477 1.327 . S
C1480 C1468 1.349 . S
C1480 H1474 0.950 . S
C1480 C1481 1.327 . S
C1481 H1475 0.950 . S
C1481 C1480 1.327 . S
C1481 C1485 1.429 . S
C1482 C1465 1.574 . S
C1482 H1476 0.949 . S
C1482 C1486 1.368 . S
C1483 C1464 1.429 . S
C1483 C1477 1.429 . S
C1483 C1484 1.523 . S
C1484 C1465 1.368 . S
C1484 C1478 1.368 . S
C1484 C1483 1.523 . S
C1485 C1469 1.429 . S
C1485 C1481 1.429 . S
C1485 C1486 1.523 . S
C1486 C1470 1.368 . S
C1486 C1482 1.368 . S
C1486 C1485 1.523 . S
H1487 C1462 0.950 . S
H1488 C1464 0.950 . S
H1489 C1465 0.949 . S
H1490 C1467 0.950 . S
H1491 C1469 0.950 . S
C1492 C1493 1.349 . S
C1492 C1494 1.327 . S
C1492 H1517 0.950 . S
C1493 C1492 1.349 . S
C1493 C1509 1.349 . S
C1494 C1492 1.327 . S
C1494 C1513 1.429 . S
C1494 H1518 0.950 . S
C1495 C1512 1.574 . S
C1495 C1514 1.368 . S
C1495 H1519 0.949 . S
H1496 C1500 0.949 . S
C1497 C1498 1.349 . S
C1497 C1499 1.327 . S
C1497 H1520 0.950 . S
C1498 C1497 1.349 . S
C1498 C1510 1.349 . S
C1499 C1497 1.327 . S
C1499 C1515 1.429 . S
C1499 H1521 0.950 . S
C1500 H1496 0.949 . S
C1500 C1508 1.574 . S
C1500 C1516 1.368 . S
H1501 C1509 0.950 . S
H1502 C1507 0.950 . S
H1503 C1508 0.949 . S
H1504 C1510 0.950 . S
H1505 C1511 0.950 . S
H1506 C1512 0.949 . S
C1507 H1502 0.950 . S
C1507 C1509 1.327 . S
C1507 C1513 1.429 . S
C1508 C1500 1.574 . S
C1508 H1503 0.949 . S
C1508 C1514 1.368 . S
C1509 C1493 1.349 . S
C1509 H1501 0.950 . S
C1509 C1507 1.327 . S
C1510 C1498 1.349 . S
C1510 H1504 0.950 . S
C1510 C1511 1.327 . S
C1511 H1505 0.950 . S
C1511 C1510 1.327 . S
C1511 C1515 1.429 . S
C1512 C1495 1.574 . S
C1512 H1506 0.949 . S
C1512 C1516 1.368 . S
C1513 C1494 1.429 . S
C1513 C1507 1.429 . S
C1513 C1514 1.523 . S
C1514 C1495 1.368 . S
C1514 C1508 1.368 . S
C1514 C1513 1.523 . S
C1515 C1499 1.429 . S
C1515 C1511 1.429 . S
C1515 C1516 1.523 . S
C1516 C1500 1.368 . S
C1516 C1512 1.368 . S
C1516 C1515 1.523 . S
H1517 C1492 0.950 . S
H1518 C1494 0.950 . S
H1519 C1495 0.949 . S
H1520 C1497 0.950 . S
H1521 C1499 0.950 . S
C1522 C1523 1.349 . S
C1522 C1524 1.327 . S
C1522 H1547 0.950 . S
C1523 C1522 1.349 . S
C1523 C1539 1.349 . S
C1524 C1522 1.327 . S
C1524 C1543 1.429 . S
C1524 H1548 0.950 . S
C1525 C1542 1.574 . S
C1525 C1544 1.368 . S
C1525 H1549 0.949 . S
H1526 C1530 0.949 . S
C1527 C1528 1.349 . S
C1527 C1529 1.327 . S
C1527 H1550 0.950 . S
C1528 C1527 1.349 . S
C1528 C1540 1.349 . S
C1529 C1527 1.327 . S
C1529 C1545 1.429 . S
C1529 H1551 0.950 . S
C1530 H1526 0.949 . S
C1530 C1538 1.574 . S
C1530 C1546 1.368 . S
H1531 C1539 0.950 . S
H1532 C1537 0.950 . S
H1533 C1538 0.949 . S
H1534 C1540 0.950 . S
H1535 C1541 0.950 . S
H1536 C1542 0.949 . S
C1537 H1532 0.950 . S
C1537 C1539 1.327 . S
C1537 C1543 1.429 . S
C1538 C1530 1.574 . S
C1538 H1533 0.949 . S
C1538 C1544 1.368 . S
C1539 C1523 1.349 . S
C1539 H1531 0.950 . S
C1539 C1537 1.327 . S
C1540 C1528 1.349 . S
C1540 H1534 0.950 . S
C1540 C1541 1.327 . S
C1541 H1535 0.950 . S
C1541 C1540 1.327 . S
C1541 C1545 1.429 . S
C1542 C1525 1.574 . S
C1542 H1536 0.949 . S
C1542 C1546 1.368 . S
C1543 C1524 1.429 . S
C1543 C1537 1.429 . S
C1543 C1544 1.523 . S
C1544 C1525 1.368 . S
C1544 C1538 1.368 . S
C1544 C1543 1.523 . S
C1545 C1529 1.429 . S
C1545 C1541 1.429 . S
C1545 C1546 1.523 . S
C1546 C1530 1.368 . S
C1546 C1542 1.368 . S
C1546 C1545 1.523 . S
H1547 C1522 0.950 . S
H1548 C1524 0.950 . S
H1549 C1525 0.949 . S
H1550 C1527 0.950 . S
H1551 C1529 0.950 . S
C1552 C1553 1.349 . S
C1552 C1554 1.327 . S
C1552 H1577 0.950 . S
C1553 C1552 1.349 . S
C1553 C1569 1.349 . S
C1554 C1552 1.327 . S
C1554 C1573 1.429 . S
C1554 H1578 0.950 . S
C1555 C1572 1.574 . S
C1555 C1574 1.368 . S
C1555 H1579 0.949 . S
H1556 C1560 0.949 . S
C1557 C1558 1.349 . S
C1557 C1559 1.327 . S
C1557 H1580 0.950 . S
C1558 C1557 1.349 . S
C1558 C1570 1.349 . S
C1559 C1557 1.327 . S
C1559 C1575 1.429 . S
C1559 H1581 0.950 . S
C1560 H1556 0.949 . S
C1560 C1568 1.574 . S
C1560 C1576 1.368 . S
H1561 C1569 0.950 . S
H1562 C1567 0.950 . S
H1563 C1568 0.949 1_554 S
H1564 C1570 0.950 . S
H1565 C1571 0.950 . S
H1566 C1572 0.949 . S
C1567 H1562 0.950 . S
C1567 C1569 1.327 . S
C1567 C1573 1.429 . S
C1568 C1560 1.574 . S
C1568 H1563 0.949 1_556 S
C1568 C1574 1.368 . S
C1569 C1553 1.349 . S
C1569 H1561 0.950 . S
C1569 C1567 1.327 . S
C1570 C1558 1.349 . S
C1570 H1564 0.950 . S
C1570 C1571 1.327 . S
C1571 H1565 0.950 . S
C1571 C1570 1.327 . S
C1571 C1575 1.429 . S
C1572 C1555 1.574 . S
C1572 H1566 0.949 . S
C1572 C1576 1.368 . S
C1573 C1554 1.429 . S
C1573 C1567 1.429 . S
C1573 C1574 1.523 1_554 S
C1574 C1555 1.368 . S
C1574 C1568 1.368 . S
C1574 C1573 1.523 1_556 S
C1575 C1559 1.429 . S
C1575 C1571 1.429 . S
C1575 C1576 1.523 . S
C1576 C1560 1.368 . S
C1576 C1572 1.368 . S
C1576 C1575 1.523 . S
H1577 C1552 0.950 . S
H1578 C1554 0.950 . S
H1579 C1555 0.949 . S
H1580 C1557 0.950 . S
H1581 C1559 0.950 . S
C1582 C1583 1.349 . S
C1582 C1584 1.327 . S
C1582 H1607 0.950 . S
C1583 C1582 1.349 . S
C1583 C1599 1.349 . S
C1584 C1582 1.327 . S
C1584 C1603 1.429 . S
C1584 H1608 0.950 . S
C1585 C1602 1.574 . S
C1585 C1604 1.368 . S
C1585 H1609 0.949 . S
H1586 C1590 0.949 . S
C1587 C1588 1.349 . S
C1587 C1589 1.327 . S
C1587 H1610 0.950 . S
C1588 C1587 1.349 . S
C1588 C1600 1.349 . S
C1589 C1587 1.327 . S
C1589 C1605 1.429 . S
C1589 H1611 0.950 . S
C1590 H1586 0.949 . S
C1590 C1598 1.574 . S
C1590 C1606 1.368 . S
H1591 C1599 0.950 . S
H1592 C1597 0.950 . S
H1593 C1598 0.949 . S
H1594 C1600 0.950 . S
H1595 C1601 0.950 . S
H1596 C1602 0.933 1_554 S
C1597 H1592 0.950 . S
C1597 C1599 1.327 . S
C1597 C1603 1.429 . S
C1598 C1590 1.574 . S
C1598 H1593 0.949 . S
C1598 C1604 1.368 . S
C1599 C1583 1.349 . S
C1599 H1591 0.950 . S
C1599 C1597 1.327 . S
C1600 C1588 1.349 . S
C1600 H1594 0.950 . S
C1600 C1601 1.327 . S
C1601 H1595 0.950 . S
C1601 C1600 1.327 . S
C1601 C1605 1.429 . S
C1602 C1585 1.574 . S
C1602 H1596 0.933 1_556 S
C1602 C1606 1.368 . S
C1603 C1584 1.429 . S
C1603 C1597 1.429 . S
C1603 C1604 1.523 . S
C1604 C1585 1.368 . S
C1604 C1598 1.368 . S
C1604 C1603 1.523 . S
C1605 C1589 1.429 . S
C1605 C1601 1.429 . S
C1605 C1606 1.523 1_554 S
C1606 C1590 1.368 . S
C1606 C1602 1.368 . S
C1606 C1605 1.523 1_556 S
H1607 C1582 0.950 . S
H1608 C1584 0.950 . S
H1609 C1585 0.949 . S
H1610 C1587 0.950 . S
H1611 C1589 0.950 . S
C1612 C1613 1.349 . S
C1612 C1614 1.327 . S
C1612 H1637 0.950 . S
C1613 C1612 1.349 . S
C1613 C1629 1.349 . S
C1614 C1612 1.327 . S
C1614 C1633 1.429 . S
C1614 H1638 0.950 . S
C1615 C1632 1.574 . S
C1615 C1634 1.368 . S
C1615 H1639 0.949 . S
H1616 C1620 0.949 . S
C1617 C1618 1.349 . S
C1617 C1619 1.327 . S
C1617 H1640 0.950 . S
C1618 C1617 1.349 . S
C1618 C1630 1.349 . S
C1619 C1617 1.327 . S
C1619 C1635 1.429 . S
C1619 H1641 0.950 . S
C1620 H1616 0.949 . S
C1620 C1628 1.574 . S
C1620 C1636 1.368 . S
H1621 C1629 0.950 . S
H1622 C1627 0.950 . S
H1623 C1628 0.949 . S
H1624 C1630 0.950 . S
H1625 C1631 0.950 . S
H1626 C1632 0.949 . S
C1627 H1622 0.950 . S
C1627 C1629 1.327 . S
C1627 C1633 1.429 . S
C1628 C1620 1.574 . S
C1628 H1623 0.949 . S
C1628 C1634 1.368 . S
C1629 C1613 1.349 . S
C1629 H1621 0.950 . S
C1629 C1627 1.327 . S
C1630 C1618 1.349 . S
C1630 H1624 0.950 . S
C1630 C1631 1.327 . S
C1631 H1625 0.950 . S
C1631 C1630 1.327 . S
C1631 C1635 1.429 . S
C1632 C1615 1.574 . S
C1632 H1626 0.949 . S
C1632 C1636 1.368 . S
C1633 C1614 1.429 . S
C1633 C1627 1.429 . S
C1633 C1634 1.523 1_554 S
C1634 C1615 1.368 . S
C1634 C1628 1.368 . S
C1634 C1633 1.523 1_556 S
C1635 C1619 1.429 . S
C1635 C1631 1.429 . S
C1635 C1636 1.523 . S
C1636 C1620 1.368 . S
C1636 C1632 1.368 . S
C1636 C1635 1.523 . S
H1637 C1612 0.950 . S
H1638 C1614 0.950 . S
H1639 C1615 0.949 . S
H1640 C1617 0.950 . S
H1641 C1619 0.950 . S
C1642 C1643 1.349 . S
C1642 C1644 1.327 . S
C1642 H1667 0.950 . S
C1643 C1642 1.349 . S
C1643 C1659 1.349 . S
C1644 C1642 1.327 . S
C1644 C1663 1.429 . S
C1644 H1668 0.950 1_554 S
C1645 C1662 1.570 1_554 S
C1645 C1664 1.367 1_554 S
C1645 H1669 0.954 . S
H1646 C1650 0.949 . S
C1647 C1648 1.349 . S
C1647 C1649 1.327 . S
C1647 H1670 0.950 . S
C1648 C1647 1.349 . S
C1648 C1660 1.349 . S
C1649 C1647 1.327 . S
C1649 C1665 1.429 . S
C1649 H1671 0.950 . S
C1650 H1646 0.949 . S
C1650 C1658 1.574 . S
C1650 C1666 1.368 . S
H1651 C1659 0.950 . S
H1652 C1657 0.950 . S
H1653 C1658 0.949 . S
H1654 C1660 0.950 . S
H1655 C1661 0.950 . S
H1656 C1662 0.949 . S
C1657 H1652 0.950 . S
C1657 C1659 1.327 . S
C1657 C1663 1.429 . S
C1658 C1650 1.574 . S
C1658 H1653 0.949 . S
C1658 C1664 1.368 . S
C1659 C1643 1.349 . S
C1659 H1651 0.950 . S
C1659 C1657 1.327 . S
C1660 C1648 1.349 . S
C1660 H1654 0.950 . S
C1660 C1661 1.327 . S
C1661 H1655 0.950 . S
C1661 C1660 1.327 . S
C1661 C1665 1.429 . S
C1662 C1645 1.570 1_556 S
C1662 H1656 0.949 . S
C1662 C1666 1.368 . S
C1663 C1644 1.429 . S
C1663 C1657 1.429 . S
C1663 C1664 1.523 1_554 S
C1664 C1645 1.367 1_556 S
C1664 C1658 1.368 . S
C1664 C1663 1.523 1_556 S
C1665 C1649 1.429 . S
C1665 C1661 1.429 . S
C1665 C1666 1.523 . S
C1666 C1650 1.368 . S
C1666 C1662 1.368 . S
C1666 C1665 1.523 . S
H1667 C1642 0.950 . S
H1668 C1644 0.950 1_556 S
H1669 C1645 0.954 . S
H1670 C1647 0.950 . S
H1671 C1649 0.950 . S
C1672 C1673 1.349 . S
C1672 C1674 1.327 . S
C1672 H1697 0.950 . S
C1673 C1672 1.349 . S
C1673 C1689 1.349 . S
C1674 C1672 1.327 . S
C1674 C1693 1.429 . S
C1674 H1698 0.950 . S
C1675 C1692 1.574 . S
C1675 C1694 1.368 . S
C1675 H1699 0.949 . S
H1676 C1680 0.949 . S
C1677 C1678 1.349 . S
C1677 C1679 1.327 . S
C1677 H1700 0.950 . S
C1678 C1677 1.349 . S
C1678 C1690 1.349 . S
C1679 C1677 1.327 . S
C1679 C1695 1.429 . S
C1679 H1701 0.950 . S
C1680 H1676 0.949 . S
C1680 C1688 1.574 . S
C1680 C1696 1.368 . S
H1681 C1689 0.950 . S
H1682 C1687 0.950 . S
H1683 C1688 0.949 . S
H1684 C1690 0.950 . S
H1685 C1691 0.950 . S
H1686 C1692 0.949 . S
C1687 H1682 0.950 . S
C1687 C1689 1.327 . S
C1687 C1693 1.429 . S
C1688 C1680 1.574 . S
C1688 H1683 0.949 . S
C1688 C1694 1.368 . S
C1689 C1673 1.349 . S
C1689 H1681 0.950 . S
C1689 C1687 1.327 . S
C1690 C1678 1.349 . S
C1690 H1684 0.950 . S
C1690 C1691 1.327 . S
C1691 H1685 0.950 . S
C1691 C1690 1.327 . S
C1691 C1695 1.429 . S
C1692 C1675 1.574 . S
C1692 H1686 0.949 . S
C1692 C1696 1.368 . S
C1693 C1674 1.429 . S
C1693 C1687 1.429 . S
C1693 C1694 1.523 . S
C1694 C1675 1.368 . S
C1694 C1688 1.368 . S
C1694 C1693 1.523 . S
C1695 C1679 1.429 . S
C1695 C1691 1.429 . S
C1695 C1696 1.523 . S
C1696 C1680 1.368 . S
C1696 C1692 1.368 . S
C1696 C1695 1.523 . S
H1697 C1672 0.950 . S
H1698 C1674 0.950 . S
H1699 C1675 0.949 . S
H1700 C1677 0.950 . S
H1701 C1679 0.950 . S
C1702 C1703 1.349 . S
C1702 C1704 1.327 . S
C1702 H1727 0.950 . S
C1703 C1702 1.349 . S
C1703 C1719 1.349 . S
C1704 C1702 1.327 . S
C1704 C1723 1.429 . S
C1704 H1728 0.950 . S
C1705 C1722 1.574 . S
C1705 C1724 1.368 . S
C1705 H1729 0.949 . S
H1706 C1710 0.949 . S
C1707 C1708 1.349 . S
C1707 C1709 1.327 . S
C1707 H1730 0.950 . S
C1708 C1707 1.349 . S
C1708 C1720 1.349 . S
C1709 C1707 1.327 . S
C1709 C1725 1.429 . S
C1709 H1731 0.950 . S
C1710 H1706 0.949 . S
C1710 C1718 1.574 . S
C1710 C1726 1.368 . S
H1711 C1719 0.950 . S
H1712 C1717 0.950 . S
H1713 C1718 0.949 . S
H1714 C1720 0.950 . S
H1715 C1721 0.950 . S
H1716 C1722 0.949 . S
C1717 H1712 0.950 . S
C1717 C1719 1.327 . S
C1717 C1723 1.429 . S
C1718 C1710 1.574 . S
C1718 H1713 0.949 . S
C1718 C1724 1.368 . S
C1719 C1703 1.349 . S
C1719 H1711 0.950 . S
C1719 C1717 1.327 . S
C1720 C1708 1.349 . S
C1720 H1714 0.950 . S
C1720 C1721 1.327 . S
C1721 H1715 0.950 . S
C1721 C1720 1.327 . S
C1721 C1725 1.429 . S
C1722 C1705 1.574 . S
C1722 H1716 0.949 . S
C1722 C1726 1.368 . S
C1723 C1704 1.429 . S
C1723 C1717 1.429 . S
C1723 C1724 1.523 . S
C1724 C1705 1.368 . S
C1724 C1718 1.368 . S
C1724 C1723 1.523 . S
C1725 C1709 1.429 . S
C1725 C1721 1.429 . S
C1725 C1726 1.523 . S
C1726 C1710 1.368 . S
C1726 C1722 1.368 . S
C1726 C1725 1.523 . S
H1727 C1702 0.950 . S
H1728 C1704 0.950 . S
H1729 C1705 0.949 . S
H1730 C1707 0.950 . S
H1731 C1709 0.950 . S
C1732 C1733 1.349 . S
C1732 C1734 1.327 . S
C1732 H1757 0.950 . S
C1733 C1732 1.349 . S
C1733 C1749 1.349 . S
C1734 C1732 1.327 . S
C1734 C1753 1.429 . S
C1734 H1758 0.950 . S
C1735 C1752 1.574 . S
C1735 C1754 1.368 . S
C1735 H1759 0.949 . S
H1736 C1740 0.949 . S
C1737 C1738 1.349 . S
C1737 C1739 1.327 . S
C1737 H1760 0.950 . S
C1738 C1737 1.349 . S
C1738 C1750 1.349 . S
C1739 C1737 1.327 . S
C1739 C1755 1.429 . S
C1739 H1761 0.950 . S
C1740 H1736 0.949 . S
C1740 C1748 1.574 . S
C1740 C1756 1.368 . S
H1741 C1749 0.950 . S
H1742 C1747 0.950 . S
H1743 C1748 0.949 . S
H1744 C1750 0.950 . S
H1745 C1751 0.950 . S
H1746 C1752 0.949 . S
C1747 H1742 0.950 . S
C1747 C1749 1.327 . S
C1747 C1753 1.429 . S
C1748 C1740 1.574 . S
C1748 H1743 0.949 . S
C1748 C1754 1.368 . S
C1749 C1733 1.349 . S
C1749 H1741 0.950 . S
C1749 C1747 1.327 . S
C1750 C1738 1.349 . S
C1750 H1744 0.950 . S
C1750 C1751 1.327 . S
C1751 H1745 0.950 . S
C1751 C1750 1.327 . S
C1751 C1755 1.429 . S
C1752 C1735 1.574 . S
C1752 H1746 0.949 . S
C1752 C1756 1.368 . S
C1753 C1734 1.429 . S
C1753 C1747 1.429 . S
C1753 C1754 1.523 . S
C1754 C1735 1.368 . S
C1754 C1748 1.368 . S
C1754 C1753 1.523 . S
C1755 C1739 1.429 . S
C1755 C1751 1.429 . S
C1755 C1756 1.523 . S
C1756 C1740 1.368 . S
C1756 C1752 1.368 . S
C1756 C1755 1.523 . S
H1757 C1732 0.950 . S
H1758 C1734 0.950 . S
H1759 C1735 0.949 . S
H1760 C1737 0.950 . S
H1761 C1739 0.950 . S
C1762 C1763 1.349 . S
C1762 C1764 1.327 . S
C1762 H1787 0.950 . S
C1763 C1762 1.349 . S
C1763 C1779 1.349 . S
C1764 C1762 1.327 . S
C1764 C1783 1.429 . S
C1764 H1788 0.950 . S
C1765 C1782 1.574 . S
C1765 C1784 1.368 . S
C1765 H1789 0.949 . S
H1766 C1770 0.949 . S
C1767 C1768 1.349 . S
C1767 C1769 1.327 . S
C1767 H1790 0.950 . S
C1768 C1767 1.349 . S
C1768 C1780 1.349 . S
C1769 C1767 1.327 . S
C1769 C1785 1.429 . S
C1769 H1791 0.950 . S
C1770 H1766 0.949 . S
C1770 C1778 1.574 . S
C1770 C1786 1.368 . S
H1771 C1779 0.950 . S
H1772 C1777 0.950 . S
H1773 C1778 0.949 . S
H1774 C1780 0.950 . S
H1775 C1781 0.950 . S
H1776 C1782 0.949 . S
C1777 H1772 0.950 . S
C1777 C1779 1.327 . S
C1777 C1783 1.429 . S
C1778 C1770 1.574 . S
C1778 H1773 0.949 . S
C1778 C1784 1.368 . S
C1779 C1763 1.349 . S
C1779 H1771 0.950 . S
C1779 C1777 1.327 . S
C1780 C1768 1.349 . S
C1780 H1774 0.950 . S
C1780 C1781 1.327 . S
C1781 H1775 0.950 . S
C1781 C1780 1.327 . S
C1781 C1785 1.429 . S
C1782 C1765 1.574 . S
C1782 H1776 0.949 . S
C1782 C1786 1.368 . S
C1783 C1764 1.429 . S
C1783 C1777 1.429 . S
C1783 C1784 1.523 . S
C1784 C1765 1.368 . S
C1784 C1778 1.368 . S
C1784 C1783 1.523 . S
C1785 C1769 1.429 . S
C1785 C1781 1.429 . S
C1785 C1786 1.523 . S
C1786 C1770 1.368 . S
C1786 C1782 1.368 . S
C1786 C1785 1.523 . S
H1787 C1762 0.950 . S
H1788 C1764 0.950 . S
H1789 C1765 0.949 . S
H1790 C1767 0.950 . S
H1791 C1769 0.950 . S
C353 C10 1.329 . S
C358 C120 1.329 . S
C383 C30 1.329 . S
C388 C150 1.329 . S
C413 C172 1.329 . S
C418 C52 1.329 . S
C443 C98 1.329 . S
C448 C76 1.329 . S
C473 C194 1.323 . S
C478 C296 1.323 . S
C503 C206 1.323 . S
C508 C316 1.323 . S
C533 C238 1.323 . S
C538 C340 1.323 . S
C563 C252 1.323 . S
C568 C272 1.323 . S
C593 C7 0.603 . S
C598 C191 0.607 . S
C623 C37 0.603 . S
C628 C205 0.607 . S
C653 C235 0.607 . S
C658 C59 0.603 . S
C683 C263 0.607 . S
C688 C73 0.603 . S
C713 C95 0.603 . S
C718 C271 0.607 . S
C743 C117 0.603 . S
C748 C307 0.607 . S
C773 C315 0.607 . S
C778 C153 0.603 . S
C803 C351 0.607 . S
C808 C175 0.603 . S
C833 C18 1.567 . S
C838 C40 1.545 . S
C863 C32 1.567 . S
C868 C62 1.545 . S
C893 C74 1.545 1_655 S
C898 C54 1.567 . S
C923 C84 1.567 . S
C928 C8 1.545 1_565 S
C953 C106 1.567 . S
C958 C164 1.545 1_455 S
C983 C128 1.567 . S
C988 C96 1.545 1_545 S
C1013 C140 1.567 . S
C1018 C118 1.545 . S
C1043 C162 1.567 . S
C1048 C142 1.545 . S
C1073 C186 1.552 . S
C1078 C208 1.539 . S
C1103 C228 1.540 . S
C1108 C216 1.552 . S
C1133 C260 1.539 1_455 S
C1138 C230 1.552 . S
C1163 C184 1.540 1_545 S
C1168 C250 1.552 . S
C1193 C282 1.552 . S
C1198 C348 1.540 1_655 S
C1223 C294 1.552 . S
C1228 C274 1.539 1_565 S
C1253 C304 1.540 . S
C1258 C326 1.552 . S
C1283 C338 1.552 . S
C1288 C318 1.539 . S
C1313 C15 1.488 . S
C1318 C213 1.498 . S
C1343 C241 1.498 . S
C1348 C43 1.488 . S
C1373 C65 1.488 . S
C1378 C249 1.498 . S
C1403 C197 1.498 . S
C1408 C81 1.488 . S
C1433 C103 1.488 . S
C1438 C337 1.498 . S
C1463 C279 1.498 . S
C1468 C125 1.488 . S
C1493 C293 1.498 . S
C1498 C139 1.488 . S
C1523 C161 1.488 . S
C1528 C323 1.498 . S
C1553 C29 1.493 . S
C1558 C183 1.484 . S
C1583 C219 1.484 . S
C1588 C51 1.492 . S
C1613 C87 1.492 . S
C1618 C227 1.484 . S
C1643 C21 1.492 . S
C1648 C257 1.484 . S
C1673 C169 1.492 . S
C1678 C285 1.484 . S
C1703 C301 1.484 . S
C1708 C109 1.492 . S
C1733 C329 1.484 . S
C1738 C131 1.492 . S
C1763 C345 1.484 . S
C1768 C147 1.493 . S
