# Generated by pormake.
# Topology vmz, (8)-cn, num edge types: 1
# Building blocks:
#     Node 0, Type 0, BuildingBlock: TAGTUT_clean_sbu_3, # of connection points: 8
#     Node 1, Type 0, BuildingBlock: TAGTUT_clean_sbu_3, # of connection points: 8
#     Node 2, Type 0, BuildingBlock: TAGTUT_clean_sbu_3, # of connection points: 8
#     Node 3, Type 0, BuildingBlock: TAGTUT_clean_sbu_3, # of connection points: 8
#     Edge 4, Type (0, 0), BuildingBlock: OJICUG_clean_linker_0, # of connection points: 2
#     Edge 5, Type (0, 0), BuildingBlock: OJICUG_clean_linker_0, # of connection points: 2
#     Edge 6, Type (0, 0), BuildingBlock: OJICUG_clean_linker_0, # of connection points: 2
#     Edge 7, Type (0, 0), BuildingBlock: OJICUG_clean_linker_0, # of connection points: 2
#     Edge 8, Type (0, 0), BuildingBlock: OJICUG_clean_linker_0, # of connection points: 2
#     Edge 9, Type (0, 0), BuildingBlock: OJICUG_clean_linker_0, # of connection points: 2
#     Edge 10, Type (0, 0), BuildingBlock: OJICUG_clean_linker_0, # of connection points: 2
#     Edge 11, Type (0, 0), BuildingBlock: OJICUG_clean_linker_0, # of connection points: 2
#     Edge 12, Type (0, 0), BuildingBlock: OJICUG_clean_linker_0, # of connection points: 2
#     Edge 13, Type (0, 0), BuildingBlock: OJICUG_clean_linker_0, # of connection points: 2
#     Edge 14, Type (0, 0), BuildingBlock: OJICUG_clean_linker_0, # of connection points: 2
#     Edge 15, Type (0, 0), BuildingBlock: OJICUG_clean_linker_0, # of connection points: 2
#     Edge 16, Type (0, 0), BuildingBlock: OJICUG_clean_linker_0, # of connection points: 2
#     Edge 17, Type (0, 0), BuildingBlock: OJICUG_clean_linker_0, # of connection points: 2
#     Edge 18, Type (0, 0), BuildingBlock: OJICUG_clean_linker_0, # of connection points: 2
#     Edge 19, Type (0, 0), BuildingBlock: OJICUG_clean_linker_0, # of connection points: 2
# Relax obj value: 0.205
# Max RMSD: 0.273
# Mean RMSD: 0.271
data_MOF--net-vmz--node1-TAGTUT_clean_sbu_3--edge1-OJICUG_clean_linker_0
_symmetry_space_group_name_H-M    P1
_symmetry_Int_Tables_number       1
_symmetry_cell_setting            triclinic
loop_
_symmetry_equiv_pos_as_xyz
'x, y, z'
_cell_length_a     18.537409
_cell_length_b     14.865257
_cell_length_c     24.710986
_cell_angle_alpha  90.004917
_cell_angle_beta   100.09106
_cell_angle_gamma 90.664026
loop_
_atom_site_label
_atom_site_type_symbol
_atom_site_fract_x
_atom_site_fract_y
_atom_site_fract_z
_atom_type_partial_charge
C0 C 0.17205 0.22157 0.19772 0.0
C1 C 0.19375 0.48387 0.05139 0.0
C2 C 0.1963 0.25081 0.94132 0.0
Mg3 Mg 0.217 0.0187 0.18781 0.0
Mg4 Mg 0.37385 -0.01371 0.14879 0.0
O5 O 0.28072 0.03066 0.12938 0.0
Mg6 Mg 0.27031 0.15954 0.10988 0.0
O7 O 0.2489 0.28718 0.09176 0.0
Mg8 Mg 0.13991 0.27562 0.06486 0.0
Mg9 Mg 0.29999 0.32741 0.03778 0.0
C10 C 0.38887 0.09106 0.03993 0.0
O11 O 0.38449 0.21085 0.15225 0.0
O12 O 0.22233 0.8679 0.1727 0.0
O13 O 0.40752 0.3067 0.08609 0.0
O14 O 0.31307 0.00331 0.25886 0.0
O15 O 0.32968 0.85254 0.14222 0.0
O16 O 0.41874 0.02427 0.23063 0.0
O17 O 0.15654 0.12539 0.0655 0.0
O18 O 0.11879 0.02376 0.11995 0.0
C19 C 0.1078 0.07221 0.07707 0.0
C20 C 0.2681 0.8213 0.1514 0.0
O21 O 0.32742 0.1315 0.03651 0.0
O22 O 0.14481 0.42967 0.06399 0.0
O23 O 0.41695 0.04298 0.08119 0.0
O24 O 0.14617 0.26779 0.96962 0.0
O25 O 0.25277 0.45725 0.03636 0.0
O26 O 0.26375 0.2578 0.96251 0.0
O27 O 0.22213 0.17298 0.18529 0.0
O28 O 0.13333 0.27189 0.16153 0.0
C29 C 0.38273 0.00749 0.26878 0.0
C30 C 0.42685 0.26636 0.13225 0.0
C31 C 0.60736 0.5907 0.48843 0.0
C32 C 0.77567 0.83082 0.5924 0.0
C33 C 0.75851 0.96493 0.43433 0.0
Mg34 Mg 0.58976 0.50744 0.36828 0.0
Mg35 Mg 0.77153 0.51084 0.3215 0.0
O36 O 0.6824 0.57082 0.34124 0.0
Mg37 Mg 0.71826 0.65398 0.40788 0.0
O38 O 0.74759 0.73082 0.47401 0.0
Mg39 Mg 0.65647 0.79686 0.4767 0.0
Mg40 Mg 0.83496 0.79911 0.48463 0.0
C41 C 0.82087 0.69287 0.32255 0.0
O42 O 0.82353 0.57711 0.44196 0.0
O43 O 0.65001 0.52706 0.29471 0.0
O44 O 0.90507 0.68791 0.47333 0.0
O45 O 0.65889 0.37682 0.38438 0.0
O46 O 0.72032 0.48605 0.23748 0.0
O47 O 0.77404 0.38608 0.3664 0.0
O48 O 0.6201 0.74113 0.3878 0.0
O49 O 0.5294 0.64633 0.35336 0.0
C50 C 0.55343 0.7262 0.36709 0.0
C51 C 0.6565 0.48503 0.24999 0.0
O52 O 0.78092 0.73627 0.35066 0.0
O53 O 0.70934 0.82965 0.56617 0.0
O54 O 0.84809 0.61925 0.34211 0.0
O55 O 0.7022 0.92566 0.4466 0.0
O56 O 0.8313 0.82397 0.56859 0.0
O57 O 0.82024 0.92556 0.44054 0.0
O58 O 0.64566 0.56852 0.45209 0.0
O59 O 0.60897 0.67091 0.50659 0.0
C60 C 0.72226 0.34287 0.38354 0.0
C61 C 0.88822 0.60445 0.46419 0.0
C62 C 0.58798 0.90872 0.95776 0.0
C63 C 0.74467 0.67102 0.08513 0.0
C64 C 0.73849 0.52598 0.92875 0.0
Mg65 Mg 0.58589 0.97647 0.83873 0.0
Mg66 Mg 0.77554 0.97902 0.80962 0.0
O67 O 0.68449 0.91255 0.82358 0.0
Mg68 Mg 0.70887 0.83449 0.89374 0.0
O69 O 0.72675 0.76496 0.96331 0.0
Mg70 Mg 0.63334 0.69844 0.96152 0.0
Mg71 Mg 0.81242 0.69698 0.97911 0.0
C72 C 0.83068 0.79521 0.8255 0.0
O73 O 0.80809 0.91795 0.93259 0.0
O74 O 0.65825 0.94082 0.7745 0.0
O75 O 0.88589 0.80719 0.96704 0.0
O76 O 0.65134 0.11126 0.85767 0.0
O77 O 0.73139 -0.00449 0.7227 0.0
O78 O 0.77059 0.10822 0.85078 0.0
O79 O 0.60927 0.74129 0.86742 0.0
O80 O 0.52699 0.83769 0.82375 0.0
C81 C 0.54575 0.75778 0.8398 0.0
C82 C 0.66559 0.98208 0.7297 0.0
O83 O 0.786 0.75162 0.85025 0.0
O84 O 0.67886 0.67526 0.05717 0.0
O85 O 0.85076 0.87403 0.84218 0.0
O86 O 0.68039 0.56304 0.93879 0.0
O87 O 0.80149 0.67458 0.06228 0.0
O88 O 0.79934 0.56923 0.93556 0.0
O89 O 0.63233 0.92285 0.92499 0.0
O90 O 0.58199 0.83176 0.97971 0.0
C91 C 0.71471 0.14934 0.86227 0.0
C92 C 0.87147 0.89013 0.95531 0.0
C93 C 0.43571 0.22952 0.65449 0.0
C94 C 0.3377 0.46914 0.77514 0.0
C95 C 0.25827 0.60752 0.64254 0.0
Mg96 Mg 0.32348 0.15568 0.54542 0.0
Mg97 Mg 0.1441 0.15405 0.53759 0.0
O98 O 0.23335 0.21858 0.55467 0.0
Mg99 Mg 0.26655 0.29497 0.62081 0.0
O100 O 0.30605 0.37797 0.68595 0.0
Mg101 Mg 0.39291 0.44631 0.65486 0.0
Mg102 Mg 0.21887 0.43878 0.70665 0.0
C103 C 0.09418 0.34508 0.56986 0.0
O104 O 0.20547 0.21703 0.68201 0.0
O105 O 0.26451 0.13396 0.45399 0.0
O106 O 0.13709 0.33265 0.69743 0.0
O107 O 0.2786 0.02393 0.57395 0.0
O108 O 0.14301 0.14604 0.45072 0.0
O109 O 0.15905 0.02218 0.57581 0.0
O110 O 0.33435 0.38276 0.57326 0.0
O111 O 0.36916 0.28275 0.51672 0.0
C112 C 0.37101 0.36228 0.53565 0.0
C113 C 0.19867 0.14067 0.42686 0.0
O114 O 0.15957 0.37168 0.59094 0.0
O115 O 0.34218 0.41967 0.73287 0.0
O116 O 0.07704 0.26228 0.55851 0.0
O117 O 0.3215 0.57417 0.64116 0.0
O118 O 0.27436 0.47351 0.78823 0.0
O119 O 0.20761 0.56326 0.66038 0.0
O120 O 0.36882 0.20605 0.6371 0.0
O121 O 0.45476 0.31182 0.66561 0.0
C122 C 0.22118 0.98344 0.58366 0.0
C123 C 0.15851 0.25232 0.70822 0.0
C124 C 0.2389 0.63877 0.04555 0.0
C125 C 0.19345 0.57835 0.06773 0.0
H126 H 0.30056 0.76078 0.05631 0.0
C127 C 0.16618 0.60225 0.11535 0.0
H128 H 0.26001 0.62232 0.00857 0.0
C129 C 0.18998 0.68192 0.14319 0.0
C130 C 0.24177 0.73716 0.12387 0.0
H131 H 0.13135 0.55638 0.13348 0.0
H132 H 0.17053 0.69831 0.18082 0.0
C133 C 0.26356 0.71682 0.0737 0.0
C134 C 0.81198 0.11532 0.41374 0.0
C135 C 0.75094 0.06063 0.41803 0.0
H136 H 0.85119 0.24838 0.40036 0.0
C137 C 0.68126 0.10007 0.41147 0.0
H138 H 0.86641 0.08722 0.41912 0.0
C139 C 0.67271 0.19175 0.40183 0.0
C140 C 0.73344 0.24683 0.39781 0.0
H141 H 0.63278 0.06037 0.41455 0.0
H142 H 0.61801 0.21906 0.39683 0.0
C143 C 0.80327 0.20769 0.40354 0.0
C144 C 0.79605 0.38245 0.90216 0.0
C145 C 0.73377 0.43011 0.91058 0.0
H146 H 0.83935 0.25657 0.88068 0.0
C147 C 0.66588 0.3842 0.90325 0.0
H148 H 0.84924 0.41541 0.90761 0.0
C149 C 0.66027 0.29344 0.8883 0.0
C150 C 0.72231 0.24545 0.87989 0.0
H151 H 0.61652 0.41824 0.90927 0.0
H152 H 0.60683 0.26112 0.88309 0.0
C153 C 0.79037 0.29119 0.88692 0.0
C154 C 0.29781 0.84767 0.60677 0.0
C155 C 0.22848 0.88778 0.60068 0.0
H156 H 0.36102 0.72922 0.6236 0.0
C157 C 0.16782 0.83432 0.60801 0.0
H158 H 0.34604 0.88622 0.60151 0.0
C159 C 0.17669 0.74266 0.62104 0.0
C160 C 0.24625 0.70297 0.6265 0.0
H161 H 0.11363 0.86297 0.60331 0.0
H162 H 0.12918 0.70298 0.62663 0.0
C163 C 0.30646 0.75683 0.61917 0.0
C164 C 0.42961 0.79698 0.34574 0.0
C165 C 0.50605 0.80539 0.35605 0.0
H166 H 0.32843 0.85965 0.31322 0.0
C167 C 0.53848 0.89079 0.35189 0.0
H168 H 0.40321 0.73256 0.34985 0.0
C169 C 0.496 0.96365 0.33105 0.0
C170 C 0.42036 0.9524 0.31425 0.0
H171 H 0.59739 0.8998 0.35993 0.0
H172 H 0.52314 0.02568 0.32246 0.0
C173 C 0.38685 0.87058 0.32584 0.0
C174 C 0.54489 0.38698 0.24889 0.0
C175 C 0.6015 0.41947 0.22285 0.0
H176 H 0.44614 0.30779 0.24096 0.0
C177 C 0.60624 0.38787 0.17002 0.0
H178 H 0.54049 0.40893 0.28987 0.0
C179 C 0.55257 0.32999 0.14221 0.0
C180 C 0.49377 0.30135 0.16701 0.0
H181 H 0.6497 0.41109 0.14913 0.0
H182 H 0.55478 0.31158 0.10009 0.0
C183 C 0.49176 0.32754 0.22134 0.0
C184 C 0.56568 0.18288 0.66188 0.0
C185 C 0.49272 0.16041 0.66506 0.0
H186 H 0.67783 0.14278 0.67856 0.0
C187 C 0.47628 0.07452 0.68351 0.0
H188 H 0.57963 0.24849 0.64733 0.0
C189 C 0.53269 0.01463 0.70237 0.0
C190 C 0.606 0.03895 0.70172 0.0
H191 H 0.42045 0.0556 0.68636 0.0
H192 H 0.51925 0.9505 0.71918 0.0
C193 C 0.6218 0.12226 0.67948 0.0
C194 C 0.51736 0.59563 0.8164 0.0
C195 C 0.49292 0.68284 0.82521 0.0
H196 H 0.48679 0.45963 0.79202 0.0
C197 C 0.41736 0.69864 0.81798 0.0
H198 H 0.57541 0.58181 0.82133 0.0
C199 C 0.36713 0.6286 0.80264 0.0
C200 C 0.39143 0.54187 0.7928 0.0
H201 H 0.39705 0.76511 0.82451 0.0
H202 H 0.30913 0.64284 0.79732 0.0
C203 C 0.46691 0.52598 0.79942 0.0
C204 C 0.97562 0.07188 0.03879 0.0
C205 C 0.04702 0.04783 0.0343 0.0
H206 H 0.86154 0.04111 0.01382 0.0
C207 C 0.05947 0.98438 0.99519 0.0
H208 H 0.96582 0.12039 0.06935 0.0
C209 C 0.00069 0.93764 0.96487 0.0
C210 C 0.92937 0.95597 0.97273 0.0
H211 H 0.11475 0.96503 0.9919 0.0
H212 H 0.01115 0.8829 0.93842 0.0
C213 C 0.91652 0.0269 0.00715 0.0
C214 C 0.06028 0.50367 0.54464 0.0
C215 C 0.03944 0.41293 0.54763 0.0
H216 H 0.03002 0.63474 0.51434 0.0
C217 C 0.96918 0.38534 0.52118 0.0
H218 H 0.11438 0.52699 0.56351 0.0
C219 C 0.92132 0.44672 0.4918 0.0
C220 C 0.94233 0.53733 0.48852 0.0
H221 H 0.95143 0.31575 0.52211 0.0
H222 H 0.86741 0.4232 0.4725 0.0
C223 C 0.01229 0.56517 0.51541 0.0
C224 C 0.49782 0.11437 0.99962 0.0
C225 C 0.42502 0.08298 0.99264 0.0
H226 H 0.60864 0.08056 0.99437 0.0
C227 C 0.40416 0.00706 0.95973 0.0
H228 H 0.51483 0.17287 0.02506 0.0
C229 C 0.45789 0.95186 0.94518 0.0
C230 C 0.53197 0.97558 0.96078 0.0
H231 H 0.34818 0.98193 0.95387 0.0
H232 H 0.44204 0.88751 0.92579 0.0
C233 C 0.55153 0.0605 0.98354 0.0
C234 C 0.4379 0.51096 0.54202 0.0
C235 C 0.42963 0.42255 0.52223 0.0
H236 H 0.50075 0.63261 0.54777 0.0
C237 C 0.48128 0.38916 0.49171 0.0
H238 H 0.39915 0.539 0.56518 0.0
C239 C 0.53995 0.44256 0.48171 0.0
C240 C 0.54831 0.5309 0.5016 0.0
H241 H 0.47721 0.32095 0.47595 0.0
H242 H 0.57862 0.41451 0.45848 0.0
C243 C 0.4966 0.5644 0.53202 0.0
C244 C 0.2188 0.18453 0.79713 0.0
C245 C 0.15618 0.2223 0.76531 0.0
H246 H 0.28069 0.16464 0.8778 0.0
C247 C 0.10066 0.25426 0.79247 0.0
H248 H 0.26295 0.15989 0.77788 0.0
C249 C 0.11091 0.25719 0.85007 0.0
C250 C 0.1773 0.22917 0.88166 0.0
H251 H 0.05182 0.28402 0.76916 0.0
H252 H 0.06932 0.28792 0.86955 0.0
C253 C 0.22946 0.18858 0.85461 0.0
C254 C 0.75013 0.76665 0.73535 0.0
C255 C 0.81989 0.78667 0.76563 0.0
H256 H 0.68037 0.76908 0.65671 0.0
C257 C 0.87468 0.82094 0.73853 0.0
H258 H 0.7063 0.74217 0.75546 0.0
C259 C 0.85943 0.83838 0.68247 0.0
C260 C 0.78893 0.82202 0.65245 0.0
H261 H 0.92847 0.83825 0.76134 0.0
H262 H 0.90273 0.86549 0.66275 0.0
C263 C 0.73467 0.78469 0.67916 0.0
C264 C 0.73111 0.72209 0.23437 0.0
C265 C 0.80067 0.6946 0.26164 0.0
H266 H 0.65732 0.73371 0.15699 0.0
C267 C 0.84843 0.65512 0.2306 0.0
H268 H 0.69216 0.7507 0.25728 0.0
C269 C 0.82799 0.64362 0.17402 0.0
C270 C 0.75899 0.67141 0.14629 0.0
H271 H 0.90178 0.63183 0.25036 0.0
H272 H 0.86709 0.61357 0.15178 0.0
C273 C 0.71039 0.71037 0.17715 0.0
C274 C 0.24469 0.2086 0.34719 0.0
C275 C 0.18826 0.16314 0.36744 0.0
H276 H 0.28059 0.26913 0.27808 0.0
C277 C 0.12019 0.15082 0.3322 0.0
H278 H 0.29701 0.22192 0.37337 0.0
C279 C 0.11066 0.17857 0.27691 0.0
C280 C 0.16826 0.22175 0.25675 0.0
H281 H 0.07512 0.11756 0.34696 0.0
H282 H 0.0601 0.16188 0.24941 0.0
C283 C 0.23452 0.23819 0.29294 0.0
loop_
_geom_bond_atom_site_label_1
_geom_bond_atom_site_label_2
_geom_bond_distance
_geom_bond_site_symmetry_2
_ccdc_geom_bond_type
C0 O27 1.312 . S
C0 O28 1.208 . S
C1 O22 1.331 . S
C1 O25 1.244 . S
C2 O24 1.264 . S
C2 O26 1.273 . S
Mg3 O5 1.936 . S
Mg3 O12 2.081 . S
Mg3 O14 2.023 . S
Mg3 O18 2.031 . S
Mg3 O27 2.291 1_565 S
Mg4 O5 1.963 . S
Mg4 O15 1.942 . S
Mg4 O16 1.955 . S
Mg4 O23 1.986 . S
O5 Mg3 1.936 . S
O5 Mg4 1.963 . S
O5 Mg6 1.915 1_565 S
Mg6 O5 1.915 1_545 S
Mg6 O7 1.915 . S
Mg6 O11 2.013 . S
Mg6 O17 2.114 . S
Mg6 O21 2.013 . S
Mg6 O27 2.114 . S
O7 Mg6 1.915 . S
O7 Mg8 1.936 . S
O7 Mg9 1.963 . S
Mg8 O7 1.936 . S
Mg8 O17 2.291 . S
Mg8 O22 2.081 . S
Mg8 O24 2.023 1_554 S
Mg8 O28 2.031 . S
Mg9 O7 1.963 . S
Mg9 O13 1.986 . S
Mg9 O25 1.942 . S
Mg9 O26 1.955 1_554 S
C10 O21 1.191 . S
C10 O23 1.307 1_545 S
O11 Mg6 2.013 . S
O11 C30 1.191 . S
O12 Mg3 2.081 . S
O12 C20 1.331 . S
O13 Mg9 1.986 . S
O13 C30 1.307 . S
O14 Mg3 2.023 . S
O14 C29 1.264 . S
O15 Mg4 1.942 . S
O15 C20 1.244 . S
O16 Mg4 1.955 . S
O16 C29 1.273 . S
O17 Mg6 2.114 . S
O17 Mg8 2.291 . S
O17 C19 1.312 . S
O18 Mg3 2.031 . S
O18 C19 1.208 1_565 S
C19 O17 1.312 . S
C19 O18 1.208 1_545 S
C20 O12 1.331 . S
C20 O15 1.244 . S
O21 Mg6 2.013 . S
O21 C10 1.191 . S
O22 C1 1.331 . S
O22 Mg8 2.081 . S
O23 Mg4 1.986 . S
O23 C10 1.307 1_565 S
O24 C2 1.264 . S
O24 Mg8 2.023 1_556 S
O25 C1 1.244 . S
O25 Mg9 1.942 . S
O26 C2 1.273 . S
O26 Mg9 1.955 1_556 S
O27 C0 1.312 . S
O27 Mg3 2.291 1_545 S
O27 Mg6 2.114 . S
O28 C0 1.208 . S
O28 Mg8 2.031 . S
C29 O14 1.264 . S
C29 O16 1.273 . S
C30 O11 1.191 . S
C30 O13 1.307 . S
C31 O58 1.312 . S
C31 O59 1.208 . S
C32 O53 1.331 . S
C32 O56 1.244 . S
C33 O55 1.264 . S
C33 O57 1.273 . S
Mg34 O36 1.936 . S
Mg34 O43 2.081 . S
Mg34 O45 2.023 . S
Mg34 O49 2.031 . S
Mg34 O58 2.291 . S
Mg35 O36 1.963 . S
Mg35 O46 1.942 . S
Mg35 O47 1.955 . S
Mg35 O54 1.986 . S
O36 Mg34 1.936 . S
O36 Mg35 1.963 . S
O36 Mg37 1.915 . S
Mg37 O36 1.915 . S
Mg37 O38 1.915 . S
Mg37 O42 2.013 . S
Mg37 O48 2.114 . S
Mg37 O52 2.013 . S
Mg37 O58 2.114 . S
O38 Mg37 1.915 . S
O38 Mg39 1.936 . S
O38 Mg40 1.963 . S
Mg39 O38 1.936 . S
Mg39 O48 2.291 . S
Mg39 O53 2.081 . S
Mg39 O55 2.023 . S
Mg39 O59 2.031 . S
Mg40 O38 1.963 . S
Mg40 O44 1.986 . S
Mg40 O56 1.942 . S
Mg40 O57 1.955 . S
C41 O52 1.191 . S
C41 O54 1.307 . S
O42 Mg37 2.013 . S
O42 C61 1.191 . S
O43 Mg34 2.081 . S
O43 C51 1.331 . S
O44 Mg40 1.986 . S
O44 C61 1.307 . S
O45 Mg34 2.023 . S
O45 C60 1.264 . S
O46 Mg35 1.942 . S
O46 C51 1.244 . S
O47 Mg35 1.955 . S
O47 C60 1.273 . S
O48 Mg37 2.114 . S
O48 Mg39 2.291 . S
O48 C50 1.312 . S
O49 Mg34 2.031 . S
O49 C50 1.208 . S
C50 O48 1.312 . S
C50 O49 1.208 . S
C51 O43 1.331 . S
C51 O46 1.244 . S
O52 Mg37 2.013 . S
O52 C41 1.191 . S
O53 C32 1.331 . S
O53 Mg39 2.081 . S
O54 Mg35 1.986 . S
O54 C41 1.307 . S
O55 C33 1.264 . S
O55 Mg39 2.023 . S
O56 C32 1.244 . S
O56 Mg40 1.942 . S
O57 C33 1.273 . S
O57 Mg40 1.955 . S
O58 C31 1.312 . S
O58 Mg34 2.291 . S
O58 Mg37 2.114 . S
O59 C31 1.208 . S
O59 Mg39 2.031 . S
C60 O45 1.264 . S
C60 O47 1.273 . S
C61 O42 1.191 . S
C61 O44 1.307 . S
C62 O89 1.312 . S
C62 O90 1.208 . S
C63 O84 1.331 . S
C63 O87 1.244 . S
C64 O86 1.264 . S
C64 O88 1.273 . S
Mg65 O67 1.936 1_545 S
Mg65 O74 2.081 . S
Mg65 O76 2.023 . S
Mg65 O80 2.031 1_545 S
Mg65 O89 2.291 1_545 S
Mg66 O67 1.963 1_545 S
Mg66 O77 1.942 . S
Mg66 O78 1.955 . S
Mg66 O85 1.986 1_545 S
O67 Mg65 1.936 1_565 S
O67 Mg66 1.963 1_565 S
O67 Mg68 1.915 . S
Mg68 O67 1.915 . S
Mg68 O69 1.915 . S
Mg68 O73 2.013 . S
Mg68 O79 2.114 . S
Mg68 O83 2.013 . S
Mg68 O89 2.114 . S
O69 Mg68 1.915 . S
O69 Mg70 1.936 . S
O69 Mg71 1.963 . S
Mg70 O69 1.936 . S
Mg70 O79 2.291 . S
Mg70 O84 2.081 1_556 S
Mg70 O86 2.023 . S
Mg70 O90 2.031 . S
Mg71 O69 1.963 . S
Mg71 O75 1.986 . S
Mg71 O87 1.942 1_556 S
Mg71 O88 1.955 . S
C72 O83 1.191 . S
C72 O85 1.307 . S
O73 Mg68 2.013 . S
O73 C92 1.191 . S
O74 Mg65 2.081 . S
O74 C82 1.331 . S
O75 Mg71 1.986 . S
O75 C92 1.307 . S
O76 Mg65 2.023 . S
O76 C91 1.264 . S
O77 Mg66 1.942 . S
O77 C82 1.244 . S
O78 Mg66 1.955 . S
O78 C91 1.273 . S
O79 Mg68 2.114 . S
O79 Mg70 2.291 . S
O79 C81 1.312 . S
O80 Mg65 2.031 1_565 S
O80 C81 1.208 . S
C81 O79 1.312 . S
C81 O80 1.208 . S
C82 O74 1.331 . S
C82 O77 1.244 . S
O83 Mg68 2.013 . S
O83 C72 1.191 . S
O84 C63 1.331 . S
O84 Mg70 2.081 1_554 S
O85 Mg66 1.986 1_565 S
O85 C72 1.307 . S
O86 C64 1.264 . S
O86 Mg70 2.023 . S
O87 C63 1.244 . S
O87 Mg71 1.942 1_554 S
O88 C64 1.273 . S
O88 Mg71 1.955 . S
O89 C62 1.312 . S
O89 Mg65 2.291 1_565 S
O89 Mg68 2.114 . S
O90 C62 1.208 . S
O90 Mg70 2.031 . S
C91 O76 1.264 . S
C91 O78 1.273 . S
C92 O73 1.191 . S
C92 O75 1.307 . S
C93 O120 1.312 . S
C93 O121 1.208 . S
C94 O115 1.331 . S
C94 O118 1.244 . S
C95 O117 1.264 . S
C95 O119 1.273 . S
Mg96 O98 1.936 . S
Mg96 O105 2.081 . S
Mg96 O107 2.023 . S
Mg96 O111 2.031 . S
Mg96 O120 2.291 . S
Mg97 O98 1.963 . S
Mg97 O108 1.942 . S
Mg97 O109 1.955 . S
Mg97 O116 1.986 . S
O98 Mg96 1.936 . S
O98 Mg97 1.963 . S
O98 Mg99 1.915 . S
Mg99 O98 1.915 . S
Mg99 O100 1.915 . S
Mg99 O104 2.013 . S
Mg99 O110 2.114 . S
Mg99 O114 2.013 . S
Mg99 O120 2.114 . S
O100 Mg99 1.915 . S
O100 Mg101 1.936 . S
O100 Mg102 1.963 . S
Mg101 O100 1.936 . S
Mg101 O110 2.291 . S
Mg101 O115 2.081 . S
Mg101 O117 2.023 . S
Mg101 O121 2.031 . S
Mg102 O100 1.963 . S
Mg102 O106 1.986 . S
Mg102 O118 1.942 . S
Mg102 O119 1.955 . S
C103 O114 1.191 . S
C103 O116 1.307 . S
O104 Mg99 2.013 . S
O104 C123 1.191 . S
O105 Mg96 2.081 . S
O105 C113 1.331 . S
O106 Mg102 1.986 . S
O106 C123 1.307 . S
O107 Mg96 2.023 . S
O107 C122 1.264 . S
O108 Mg97 1.942 . S
O108 C113 1.244 . S
O109 Mg97 1.955 . S
O109 C122 1.273 . S
O110 Mg99 2.114 . S
O110 Mg101 2.291 . S
O110 C112 1.312 . S
O111 Mg96 2.031 . S
O111 C112 1.208 . S
C112 O110 1.312 . S
C112 O111 1.208 . S
C113 O105 1.331 . S
C113 O108 1.244 . S
O114 Mg99 2.013 . S
O114 C103 1.191 . S
O115 C94 1.331 . S
O115 Mg101 2.081 . S
O116 Mg97 1.986 . S
O116 C103 1.307 . S
O117 C95 1.264 . S
O117 Mg101 2.023 . S
O118 C94 1.244 . S
O118 Mg102 1.942 . S
O119 C95 1.273 . S
O119 Mg102 1.955 . S
O120 C93 1.312 . S
O120 Mg96 2.291 . S
O120 Mg99 2.114 . S
O121 C93 1.208 . S
O121 Mg101 2.031 . S
C122 O107 1.264 . S
C122 O109 1.273 . S
C123 O104 1.191 . S
C123 O106 1.307 . S
C124 C125 1.387 . S
C124 H128 0.950 . S
C124 C133 1.390 . S
C125 C124 1.387 . S
C125 C127 1.387 . S
H126 C133 0.950 . S
C127 C125 1.387 . S
C127 C129 1.390 . S
C127 H131 0.950 . S
H128 C124 0.950 . S
C129 C127 1.390 . S
C129 C130 1.387 . S
C129 H132 0.950 . S
C130 C129 1.387 . S
C130 C133 1.387 . S
H131 C127 0.950 . S
H132 C129 0.950 . S
C133 C124 1.390 . S
C133 H126 0.950 . S
C133 C130 1.387 . S
C134 C135 1.387 . S
C134 H138 0.950 . S
C134 C143 1.390 . S
C135 C134 1.387 . S
C135 C137 1.387 . S
H136 C143 0.950 . S
C137 C135 1.387 . S
C137 C139 1.390 . S
C137 H141 0.950 . S
H138 C134 0.950 . S
C139 C137 1.390 . S
C139 C140 1.387 . S
C139 H142 0.950 . S
C140 C139 1.387 . S
C140 C143 1.387 . S
H141 C137 0.950 . S
H142 C139 0.950 . S
C143 C134 1.390 . S
C143 H136 0.950 . S
C143 C140 1.387 . S
C144 C145 1.387 . S
C144 H148 0.950 . S
C144 C153 1.390 . S
C145 C144 1.387 . S
C145 C147 1.387 . S
H146 C153 0.950 . S
C147 C145 1.387 . S
C147 C149 1.390 . S
C147 H151 0.950 . S
H148 C144 0.950 . S
C149 C147 1.390 . S
C149 C150 1.387 . S
C149 H152 0.950 . S
C150 C149 1.387 . S
C150 C153 1.387 . S
H151 C147 0.950 . S
H152 C149 0.950 . S
C153 C144 1.390 . S
C153 H146 0.950 . S
C153 C150 1.387 . S
C154 C155 1.387 . S
C154 H158 0.950 1_565 S
C154 C163 1.390 . S
C155 C154 1.387 . S
C155 C157 1.387 . S
H156 C163 0.950 . S
C157 C155 1.387 . S
C157 C159 1.390 . S
C157 H161 0.950 . S
H158 C154 0.950 1_545 S
C159 C157 1.390 . S
C159 C160 1.387 . S
C159 H162 0.950 . S
C160 C159 1.387 . S
C160 C163 1.387 . S
H161 C157 0.950 . S
H162 C159 0.950 . S
C163 C154 1.390 . S
C163 H156 0.950 . S
C163 C160 1.387 . S
C164 C165 1.387 . S
C164 H168 0.950 . S
C164 C173 1.390 . S
C165 C164 1.387 . S
C165 C167 1.387 . S
H166 C173 0.950 . S
C167 C165 1.387 . S
C167 C169 1.390 . S
C167 H171 0.950 . S
H168 C164 0.950 . S
C169 C167 1.390 . S
C169 C170 1.387 . S
C169 H172 0.950 . S
C170 C169 1.387 . S
C170 C173 1.387 . S
H171 C167 0.950 . S
H172 C169 0.950 . S
C173 C164 1.390 . S
C173 H166 0.950 . S
C173 C170 1.387 . S
C174 C175 1.387 . S
C174 H178 0.950 . S
C174 C183 1.390 . S
C175 C174 1.387 . S
C175 C177 1.387 . S
H176 C183 0.950 . S
C177 C175 1.387 . S
C177 C179 1.390 . S
C177 H181 0.950 . S
H178 C174 0.950 . S
C179 C177 1.390 . S
C179 C180 1.387 . S
C179 H182 0.950 . S
C180 C179 1.387 . S
C180 C183 1.387 . S
H181 C177 0.950 . S
H182 C179 0.950 . S
C183 C174 1.390 . S
C183 H176 0.950 . S
C183 C180 1.387 . S
C184 C185 1.387 . S
C184 H188 0.950 . S
C184 C193 1.390 . S
C185 C184 1.387 . S
C185 C187 1.387 . S
H186 C193 0.950 . S
C187 C185 1.387 . S
C187 C189 1.390 . S
C187 H191 0.950 . S
H188 C184 0.950 . S
C189 C187 1.390 . S
C189 C190 1.387 . S
C189 H192 0.950 . S
C190 C189 1.387 . S
C190 C193 1.387 . S
H191 C187 0.950 . S
H192 C189 0.950 . S
C193 C184 1.390 . S
C193 H186 0.950 . S
C193 C190 1.387 . S
C194 C195 1.387 . S
C194 H198 0.950 . S
C194 C203 1.390 . S
C195 C194 1.387 . S
C195 C197 1.387 . S
H196 C203 0.950 . S
C197 C195 1.387 . S
C197 C199 1.390 . S
C197 H201 0.950 . S
H198 C194 0.950 . S
C199 C197 1.390 . S
C199 C200 1.387 . S
C199 H202 0.950 . S
C200 C199 1.387 . S
C200 C203 1.387 . S
H201 C197 0.950 . S
H202 C199 0.950 . S
C203 C194 1.390 . S
C203 H196 0.950 . S
C203 C200 1.387 . S
C204 C205 1.387 1_565 S
C204 H208 0.950 . S
C204 C213 1.390 1_454 S
C205 C204 1.387 1_545 S
C205 C207 1.387 . S
H206 C213 0.950 . S
C207 C205 1.387 . S
C207 C209 1.390 1_454 S
C207 H211 0.950 . S
H208 C204 0.950 . S
C209 C207 1.390 1_656 S
C209 C210 1.387 1_545 S
C209 H212 0.950 . S
C210 C209 1.387 1_565 S
C210 C213 1.387 . S
H211 C207 0.950 . S
H212 C209 0.950 . S
C213 C204 1.390 1_656 S
C213 H206 0.950 . S
C213 C210 1.387 . S
C214 C215 1.387 . S
C214 H218 0.950 . S
C214 C223 1.390 1_455 S
C215 C214 1.387 . S
C215 C217 1.387 . S
H216 C223 0.950 . S
C217 C215 1.387 . S
C217 C219 1.390 1_455 S
C217 H221 0.950 . S
H218 C214 0.950 . S
C219 C217 1.390 1_655 S
C219 C220 1.387 . S
C219 H222 0.950 . S
C220 C219 1.387 . S
C220 C223 1.387 . S
H221 C217 0.950 . S
H222 C219 0.950 . S
C223 C214 1.390 1_655 S
C223 H216 0.950 . S
C223 C220 1.387 . S
C224 C225 1.387 . S
C224 H228 0.950 . S
C224 C233 1.390 . S
C225 C224 1.387 . S
C225 C227 1.387 1_546 S
H226 C233 0.950 . S
C227 C225 1.387 1_564 S
C227 C229 1.390 . S
C227 H231 0.950 . S
H228 C224 0.950 . S
C229 C227 1.390 . S
C229 C230 1.382 1_554 S
C229 H232 0.950 . S
C230 C229 1.382 1_556 S
C230 C233 1.391 1_565 S
H231 C227 0.950 . S
H232 C229 0.950 . S
C233 C224 1.390 . S
C233 H226 0.950 . S
C233 C230 1.391 1_545 S
C234 C235 1.387 . S
C234 H238 0.950 . S
C234 C243 1.390 . S
C235 C234 1.387 . S
C235 C237 1.387 . S
H236 C243 0.950 . S
C237 C235 1.387 . S
C237 C239 1.390 . S
C237 H241 0.950 . S
H238 C234 0.950 . S
C239 C237 1.390 . S
C239 C240 1.387 . S
C239 H242 0.950 . S
C240 C239 1.387 . S
C240 C243 1.387 . S
H241 C237 0.950 . S
H242 C239 0.950 . S
C243 C234 1.390 . S
C243 H236 0.950 . S
C243 C240 1.387 . S
C244 C245 1.387 . S
C244 H248 0.950 . S
C244 C253 1.390 . S
C245 C244 1.387 . S
C245 C247 1.387 . S
H246 C253 0.950 . S
C247 C245 1.387 . S
C247 C249 1.390 . S
C247 H251 0.950 . S
H248 C244 0.950 . S
C249 C247 1.390 . S
C249 C250 1.387 . S
C249 H252 0.950 . S
C250 C249 1.387 . S
C250 C253 1.387 . S
H251 C247 0.950 . S
H252 C249 0.950 . S
C253 C244 1.390 . S
C253 H246 0.950 . S
C253 C250 1.387 . S
C254 C255 1.387 . S
C254 H258 0.950 . S
C254 C263 1.390 . S
C255 C254 1.387 . S
C255 C257 1.387 . S
H256 C263 0.950 . S
C257 C255 1.387 . S
C257 C259 1.390 . S
C257 H261 0.950 . S
H258 C254 0.950 . S
C259 C257 1.390 . S
C259 C260 1.387 . S
C259 H262 0.950 . S
C260 C259 1.387 . S
C260 C263 1.387 . S
H261 C257 0.950 . S
H262 C259 0.950 . S
C263 C254 1.390 . S
C263 H256 0.950 . S
C263 C260 1.387 . S
C264 C265 1.387 . S
C264 H268 0.950 . S
C264 C273 1.390 . S
C265 C264 1.387 . S
C265 C267 1.387 . S
H266 C273 0.950 . S
C267 C265 1.387 . S
C267 C269 1.390 . S
C267 H271 0.950 . S
H268 C264 0.950 . S
C269 C267 1.390 . S
C269 C270 1.387 . S
C269 H272 0.950 . S
C270 C269 1.387 . S
C270 C273 1.387 . S
H271 C267 0.950 . S
H272 C269 0.950 . S
C273 C264 1.390 . S
C273 H266 0.950 . S
C273 C270 1.387 . S
C274 C275 1.387 . S
C274 H278 0.950 . S
C274 C283 1.390 . S
C275 C274 1.387 . S
C275 C277 1.387 . S
H276 C283 0.950 . S
C277 C275 1.387 . S
C277 C279 1.390 . S
C277 H281 0.950 . S
H278 C274 0.950 . S
C279 C277 1.390 . S
C279 C280 1.387 . S
C279 H282 0.950 . S
C280 C279 1.387 . S
C280 C283 1.387 . S
H281 C277 0.950 . S
H282 C279 0.950 . S
C283 C274 1.390 . S
C283 H276 0.950 . S
C283 C280 1.387 . S
C125 C1 1.068 . S
C130 C20 1.087 . S
C135 C33 1.582 1_545 S
C140 C60 1.592 . S
C145 C64 1.588 . S
C150 C91 1.598 . S
C155 C122 1.582 1_565 S
C160 C95 1.591 . S
C165 C50 1.478 . S
C170 C29 1.270 . S
C175 C51 1.105 . S
C180 C30 1.192 . S
C185 C93 1.333 . S
C190 C82 1.142 . S
C195 C81 1.353 . S
C200 C94 1.164 . S
C205 C19 1.311 . S
C210 C92 1.268 . S
C215 C103 1.246 . S
C220 C61 1.246 . S
C225 C10 1.289 1_556 S
C230 C62 1.308 . S
C235 C112 1.326 . S
C240 C31 1.328 . S
C245 C123 1.917 . S
C250 C2 2.017 . S
C255 C72 1.726 . S
C260 C32 1.842 . S
C265 C41 1.695 . S
C270 C63 1.804 . S
C275 C113 1.933 . S
C280 C0 1.944 . S
