# Generated by pormake.
# Topology dmp, (4)-cn, num edge types: 1
# Building blocks:
#     Node 0, Type 0, BuildingBlock: UXUYUI_clean_sbu_0, # of connection points: 4
#     Node 1, Type 0, BuildingBlock: UXUYUI_clean_sbu_0, # of connection points: 4
#     Node 2, Type 0, BuildingBlock: UXUYUI_clean_sbu_0, # of connection points: 4
#     Node 3, Type 0, BuildingBlock: UXUYUI_clean_sbu_0, # of connection points: 4
#     Edge 4, Type (0, 0), BuildingBlock: AJUNOK_clean_linker_0, # of connection points: 2
#     Edge 5, Type (0, 0), BuildingBlock: AJUNOK_clean_linker_0, # of connection points: 2
#     Edge 6, Type (0, 0), BuildingBlock: AJUNOK_clean_linker_0, # of connection points: 2
#     Edge 7, Type (0, 0), BuildingBlock: AJUNOK_clean_linker_0, # of connection points: 2
#     Edge 8, Type (0, 0), BuildingBlock: AJUNOK_clean_linker_0, # of connection points: 2
#     Edge 9, Type (0, 0), BuildingBlock: AJUNOK_clean_linker_0, # of connection points: 2
#     Edge 10, Type (0, 0), BuildingBlock: AJUNOK_clean_linker_0, # of connection points: 2
#     Edge 11, Type (0, 0), BuildingBlock: AJUNOK_clean_linker_0, # of connection points: 2
# Relax obj value: 0.351
# Max RMSD: 0.312
# Mean RMSD: 0.312
data_MOF--net-dmp--node1-UXUYUI_clean_sbu_0--edge1-AJUNOK_clean_linker_0
_symmetry_space_group_name_H-M    P1
_symmetry_Int_Tables_number       1
_symmetry_cell_setting            triclinic
loop_
_symmetry_equiv_pos_as_xyz
'x, y, z'
_cell_length_a     46.101648
_cell_length_b     19.700904
_cell_length_c     23.864337
_cell_angle_alpha  90.020238
_cell_angle_beta   90.051218
_cell_angle_gamma 89.982583
loop_
_atom_site_label
_atom_site_type_symbol
_atom_site_fract_x
_atom_site_fract_y
_atom_site_fract_z
_atom_type_partial_charge
Li0 Li 0.11562 0.29817 0.21855 0.0
Li1 Li 0.12195 0.2026 0.28256 0.0
Li2 Li 0.08149 0.20664 0.21616 0.0
Li3 Li 0.08255 0.28084 0.29782 0.0
C4 C 0.12483 0.15473 0.15974 0.0
N5 N 0.1246 0.05385 0.07933 0.0
C6 C 0.13092 0.08764 0.17472 0.0
C7 C 0.11879 0.17062 0.10386 0.0
C8 C 0.1307 0.03735 0.13342 0.0
C9 C 0.1187 0.11885 0.06385 0.0
C10 C 0.14786 0.30409 0.33352 0.0
C11 C 0.1708 0.28593 0.42318 0.0
N12 N 0.19667 0.30518 0.4009 0.0
C13 C 0.17468 0.32385 0.31156 0.0
C14 C 0.14588 0.28515 0.38984 0.0
C15 C 0.19909 0.32405 0.3463 0.0
C16 C 0.14014 0.42625 0.20261 0.0
N17 N 0.13888 0.36262 0.18076 0.0
C18 C 0.1829 0.38025 0.13022 0.0
C19 C 0.15899 0.33991 0.14356 0.0
C20 C 0.18607 0.44365 0.15618 0.0
C21 C 0.16366 0.46818 0.19043 0.0
H22 H 0.1244 0.44194 0.23359 0.0
H23 H 0.15794 0.2883 0.12837 0.0
C24 C 0.15069 0.10964 0.35948 0.0
N25 N 0.15244 0.1503 0.31354 0.0
C26 C 0.17543 0.07542 0.37869 0.0
C27 C 0.20282 0.12647 0.30323 0.0
C28 C 0.17773 0.15891 0.28537 0.0
C29 C 0.20188 0.08403 0.35031 0.0
H30 H 0.13025 0.10393 0.38113 0.0
H31 H 0.17837 0.19157 0.24896 0.0
C32 C 0.06934 0.36525 0.19213 0.0
N33 N 0.06502 0.4889 0.13819 0.0
C34 C 0.06113 0.42321 0.22197 0.0
C35 C 0.0752 0.37009 0.13481 0.0
C36 C 0.05909 0.48528 0.19394 0.0
C37 C 0.07295 0.4331 0.10833 0.0
C38 C 0.06036 0.16468 0.33512 0.0
C39 C 0.03232 0.14771 0.3178 0.0
C40 C 0.0668 0.16814 0.39228 0.0
C41 C 0.01105 0.13505 0.35813 0.0
C42 C 0.04491 0.15529 0.4313 0.0
N43 N 0.01772 0.13916 0.41356 0.0
C44 C 0.05714 0.08437 0.17628 0.0
C45 C 0.04377 0.18244 0.12478 0.0
C46 C 0.04178 0.04289 0.13924 0.0
N47 N 0.05803 0.15263 0.16811 0.0
C48 C 0.02812 0.14293 0.08677 0.0
C49 C 0.02705 0.07219 0.09376 0.0
H50 H 0.06877 0.06214 0.21113 0.0
H51 H 0.04497 0.23676 0.11917 0.0
C52 C 0.074 0.37073 0.38796 0.0
N53 N 0.06009 0.32759 0.35253 0.0
C54 C 0.0583 0.40923 0.4265 0.0
C55 C 0.01418 0.35825 0.3915 0.0
C56 C 0.03074 0.32114 0.35325 0.0
C57 C 0.02796 0.40365 0.42832 0.0
H58 H 0.09724 0.37657 0.38541 0.0
H59 H 0.02013 0.28794 0.32357 0.0
O60 O 0.12416 0.2044 0.19976 0.0
O61 O 0.12379 0.30194 0.29989 0.0
O62 O 0.07176 0.30414 0.2189 0.0
O63 O 0.08144 0.17758 0.2963 0.0
H64 H 0.13539 0.07436 0.21785 0.0
H65 H 0.11384 0.22225 0.09168 0.0
H66 H 0.13522 0.98515 0.14443 0.0
H67 H 0.11385 0.13031 0.02051 0.0
H68 H 0.16959 0.27105 0.46674 0.0
H69 H 0.17681 0.33789 0.26801 0.0
H70 H 0.12537 0.26936 0.40748 0.0
H71 H 0.21999 0.33885 0.32975 0.0
H72 H 0.19996 0.35964 0.10405 0.0
H73 H 0.16548 0.51698 0.21106 0.0
H74 H 0.17399 0.04297 0.4152 0.0
H75 H 0.2227 0.13353 0.27977 0.0
H76 H 0.05651 0.42047 0.26632 0.0
H77 H 0.08181 0.32584 0.11119 0.0
H78 H 0.05285 0.53059 0.21653 0.0
H79 H 0.0776 0.43767 0.06407 0.0
H80 H 0.02695 0.14497 0.27372 0.0
H81 H 0.0884 0.18107 0.40634 0.0
H82 H 0.98921 0.12218 0.34536 0.0
H83 H 0.04953 0.15817 0.47568 0.0
H84 H 0.04141 0.98854 0.14603 0.0
H85 H 0.01752 0.1673 0.05161 0.0
H86 H 0.06972 0.44426 0.45368 0.0
H87 H 0.99086 0.35168 0.39207 0.0
Li88 Li 0.4156 0.79482 0.20556 0.0
Li89 Li 0.41202 0.71159 0.28168 0.0
Li90 Li 0.37533 0.71015 0.20978 0.0
Li91 Li 0.37865 0.80091 0.27596 0.0
C92 C 0.43851 0.64517 0.20175 0.0
N93 N 0.48113 0.54729 0.21168 0.0
C94 C 0.46631 0.66303 0.21996 0.0
C95 C 0.43246 0.57768 0.18806 0.0
C96 C 0.48753 0.61276 0.22489 0.0
C97 C 0.4543 0.52891 0.19345 0.0
C98 C 0.42077 0.85858 0.32641 0.0
C99 C 0.41382 0.89339 0.42233 0.0
N100 N 0.41709 0.9593 0.40661 0.0
C101 C 0.42419 0.92658 0.3112 0.0
C102 C 0.41564 0.84169 0.38241 0.0
C103 C 0.42221 0.97679 0.35237 0.0
C104 C 0.43005 0.91168 0.14579 0.0
N105 N 0.439 0.8472 0.15633 0.0
C106 C 0.47831 0.85928 0.09195 0.0
C107 C 0.46255 0.82037 0.13023 0.0
C108 C 0.46949 0.92604 0.07996 0.0
C109 C 0.44488 0.95199 0.10726 0.0
H110 H 0.41092 0.93126 0.16645 0.0
H111 H 0.46888 0.76856 0.13842 0.0
C112 C 0.42481 0.58832 0.33588 0.0
N113 N 0.43295 0.65437 0.3313 0.0
C114 C 0.43956 0.54486 0.37229 0.0
C115 C 0.47055 0.63854 0.39886 0.0
C116 C 0.45541 0.67998 0.36151 0.0
C117 C 0.46255 0.57011 0.40491 0.0
H118 H 0.40693 0.56943 0.31097 0.0
H119 H 0.46149 0.73266 0.3567 0.0
C120 C 0.36784 0.82257 0.13914 0.0
N121 N 0.35725 0.84913 0.02727 0.0
C122 C 0.34849 0.87392 0.12376 0.0
C123 C 0.38182 0.7847 0.09755 0.0
C124 C 0.34341 0.88654 0.06699 0.0
C125 C 0.37618 0.79895 0.04126 0.0
C126 C 0.34138 0.69469 0.30336 0.0
C127 C 0.32001 0.73221 0.27545 0.0
C128 C 0.33318 0.64578 0.34264 0.0
C129 C 0.29082 0.7204 0.28766 0.0
C130 C 0.30375 0.63544 0.35365 0.0
N131 N 0.28336 0.6727 0.3262 0.0
C132 C 0.34691 0.58811 0.19217 0.0
C133 C 0.32569 0.67892 0.14145 0.0
C134 C 0.32262 0.5476 0.18236 0.0
N135 N 0.34765 0.65311 0.17318 0.0
C136 C 0.30102 0.64005 0.1305 0.0
C137 C 0.29883 0.57475 0.1533 0.0
H138 H 0.36408 0.56973 0.21911 0.0
H139 H 0.32591 0.73137 0.12873 0.0
C140 C 0.348 0.92122 0.28903 0.0
N141 N 0.35492 0.86295 0.31622 0.0
C142 C 0.3256 0.9621 0.30883 0.0
C143 C 0.31923 0.8846 0.38647 0.0
C144 C 0.34202 0.84548 0.36541 0.0
C145 C 0.31012 0.94222 0.35672 0.0
H146 H 0.35872 0.93371 0.25009 0.0
H147 H 0.34812 0.7989 0.38629 0.0
O148 O 0.41724 0.69338 0.19802 0.0
O149 O 0.42195 0.8088 0.28657 0.0
O150 O 0.37325 0.81059 0.19467 0.0
O151 O 0.3702 0.70478 0.29213 0.0
H152 H 0.47125 0.71496 0.23131 0.0
H153 H 0.41115 0.5631 0.17341 0.0
H154 H 0.50905 0.62574 0.23948 0.0
H155 H 0.4499 0.47642 0.18318 0.0
H156 H 0.40968 0.88114 0.46578 0.0
H157 H 0.42815 0.94044 0.26803 0.0
H158 H 0.41266 0.78929 0.39474 0.0
H159 H 0.42469 0.02968 0.34119 0.0
H160 H 0.49712 0.83727 0.07176 0.0
H161 H 0.43674 0.00231 0.09804 0.0
H162 H 0.43317 0.49206 0.37457 0.0
H163 H 0.48809 0.66005 0.4233 0.0
H164 H 0.33747 0.90369 0.15538 0.0
H165 H 0.39689 0.7448 0.1084 0.0
H166 H 0.32847 0.92611 0.05452 0.0
H167 H 0.38687 0.77012 0.00867 0.0
H168 H 0.32583 0.77014 0.24475 0.0
H169 H 0.34943 0.61607 0.36438 0.0
H170 H 0.2741 0.74918 0.26648 0.0
H171 H 0.2971 0.59771 0.38395 0.0
H172 H 0.32164 0.49723 0.20047 0.0
H173 H 0.2829 0.66283 0.10853 0.0
H174 H 0.31908 0.00607 0.28464 0.0
H175 H 0.30789 0.8682 0.42382 0.0
Li176 Li 0.87519 0.78655 0.73423 0.0
Li177 Li 0.91363 0.77848 0.80009 0.0
Li178 Li 0.91255 0.70077 0.71661 0.0
Li179 Li 0.87807 0.69111 0.79721 0.0
C180 C 0.91722 0.84662 0.6747 0.0
N181 N 0.91803 0.93752 0.58647 0.0
C182 C 0.91082 0.91513 0.68384 0.0
C183 C 0.924 0.8244 0.62062 0.0
C184 C 0.91134 0.96026 0.6387 0.0
C185 C 0.9243 0.87113 0.57659 0.0
C186 C 0.87252 0.83537 0.8566 0.0
C187 C 0.87985 0.86928 0.95271 0.0
N188 N 0.87655 0.93536 0.93747 0.0
C189 C 0.86909 0.9036 0.84192 0.0
C190 C 0.87779 0.81796 0.91247 0.0
C191 C 0.87121 0.9534 0.88343 0.0
C192 C 0.82151 0.84621 0.73371 0.0
N193 N 0.84524 0.84063 0.70023 0.0
C194 C 0.82026 0.89716 0.62555 0.0
C195 C 0.84496 0.8646 0.64666 0.0
C196 C 0.79558 0.90267 0.65946 0.0
C197 C 0.79635 0.87703 0.71408 0.0
H198 H 0.82179 0.8247 0.77535 0.0
H199 H 0.86336 0.8566 0.61959 0.0
C200 C 0.95123 0.79691 0.8935 0.0
N201 N 0.93858 0.82842 0.84905 0.0
C202 C 0.96652 0.83466 0.93336 0.0
C203 C 0.95632 0.93605 0.87985 0.0
C204 C 0.94143 0.89636 0.84096 0.0
C205 C 0.96856 0.90535 0.92733 0.0
H206 H 0.94877 0.74281 0.89888 0.0
H207 H 0.93128 0.92014 0.80532 0.0
C208 C 0.84742 0.68891 0.6805 0.0
N209 N 0.80015 0.69551 0.6095 0.0
C210 C 0.81936 0.68135 0.70176 0.0
C211 C 0.85147 0.69947 0.62312 0.0
C212 C 0.79574 0.68499 0.66518 0.0
C213 C 0.82727 0.70265 0.58792 0.0
C214 C 0.92231 0.61823 0.82517 0.0
C215 C 0.92931 0.55868 0.79633 0.0
C216 C 0.91572 0.61522 0.88229 0.0
C217 C 0.9294 0.49693 0.82511 0.0
C218 C 0.91601 0.55247 0.90953 0.0
N219 N 0.92278 0.49512 0.88062 0.0
C220 C 0.96267 0.65901 0.65719 0.0
C221 C 0.91914 0.6017 0.63321 0.0
C222 C 0.97828 0.61988 0.61876 0.0
N223 N 0.93365 0.64946 0.66331 0.0
C224 C 0.93383 0.56188 0.5941 0.0
C225 C 0.96373 0.57099 0.58642 0.0
H226 H 0.97363 0.69695 0.68222 0.0
H227 H 0.89621 0.59403 0.64002 0.0
C228 C 0.83579 0.64751 0.8759 0.0
N229 N 0.8537 0.62789 0.8337 0.0
C230 C 0.81293 0.60551 0.89248 0.0
C231 C 0.82832 0.52326 0.82334 0.0
C232 C 0.85088 0.56655 0.80836 0.0
C233 C 0.80846 0.54341 0.8648 0.0
H234 H 0.83803 0.69747 0.89409 0.0
H235 H 0.86487 0.55351 0.77361 0.0
O236 O 0.91749 0.80184 0.71853 0.0
O237 O 0.87138 0.78601 0.81629 0.0
O238 O 0.87077 0.68789 0.7159 0.0
O239 O 0.92159 0.67902 0.7975 0.0
H240 H 0.905 0.9332 0.72505 0.0
H241 H 0.92892 0.77169 0.61255 0.0
H242 H 0.90629 0.01332 0.64515 0.0
H243 H 0.92949 0.85457 0.53455 0.0
H244 H 0.88419 0.8566 0.99601 0.0
H245 H 0.86524 0.91808 0.79884 0.0
H246 H 0.88073 0.76548 0.9245 0.0
H247 H 0.8688 0.00641 0.87261 0.0
H248 H 0.82012 0.91609 0.58294 0.0
H249 H 0.77759 0.8806 0.74123 0.0
H250 H 0.9758 0.80927 0.96942 0.0
H251 H 0.95793 0.99032 0.8733 0.0
H252 H 0.81583 0.67383 0.74614 0.0
H253 H 0.87302 0.70634 0.60612 0.0
H254 H 0.77388 0.6798 0.68109 0.0
H255 H 0.83006 0.71126 0.54348 0.0
H256 H 0.9345 0.55998 0.75218 0.0
H257 H 0.90995 0.66067 0.90514 0.0
H258 H 0.93468 0.45041 0.80327 0.0
H259 H 0.91074 0.54935 0.95362 0.0
H260 H 0.00137 0.62807 0.61397 0.0
H261 H 0.92203 0.52365 0.57073 0.0
H262 H 0.79796 0.62305 0.9243 0.0
H263 H 0.82518 0.47702 0.79956 0.0
Li264 Li 0.61784 0.19206 0.69788 0.0
Li265 Li 0.5826 0.20491 0.7769 0.0
Li266 Li 0.58348 0.28263 0.69254 0.0
Li267 Li 0.62141 0.28732 0.76077 0.0
C268 C 0.57339 0.1248 0.66513 0.0
N269 N 0.57322 0.00578 0.6039 0.0
C270 C 0.56771 0.06294 0.69155 0.0
C271 C 0.57877 0.12624 0.60752 0.0
C272 C 0.56776 0.00329 0.65986 0.0
C273 C 0.57866 0.06549 0.57731 0.0
C274 C 0.64538 0.18769 0.81914 0.0
C275 C 0.66083 0.20182 0.91496 0.0
N276 N 0.68875 0.19069 0.89898 0.0
C277 C 0.67418 0.17588 0.80368 0.0
C278 C 0.63857 0.20043 0.87521 0.0
C279 C 0.69582 0.17782 0.84468 0.0
C280 C 0.65942 0.14516 0.61908 0.0
N281 N 0.64186 0.12718 0.66231 0.0
C282 C 0.66773 0.02353 0.67512 0.0
C283 C 0.64505 0.06699 0.68929 0.0
C284 C 0.68728 0.04223 0.63267 0.0
C285 C 0.68234 0.1029 0.60321 0.0
H286 H 0.6569 0.19422 0.59948 0.0
H287 H 0.63132 0.05522 0.72473 0.0
C288 C 0.53392 0.17841 0.84682 0.0
N289 N 0.56052 0.1563 0.83033 0.0
C290 C 0.51845 0.14268 0.88759 0.0
C291 C 0.55754 0.06085 0.89172 0.0
C292 C 0.57243 0.09866 0.85159 0.0
C293 C 0.53037 0.08328 0.91051 0.0
H294 H 0.52495 0.22422 0.82881 0.0
H295 H 0.59355 0.08215 0.8373 0.0
C296 C 0.62794 0.33528 0.63842 0.0
N297 N 0.63125 0.4344 0.55675 0.0
C298 C 0.6356 0.40172 0.65278 0.0
C299 C 0.62212 0.31921 0.58247 0.0
C300 C 0.63716 0.45109 0.61088 0.0
C301 C 0.62382 0.37007 0.54183 0.0
C302 C 0.57889 0.35501 0.81479 0.0
C303 C 0.58464 0.42269 0.80118 0.0
C304 C 0.57228 0.33777 0.87017 0.0
C305 C 0.58354 0.47207 0.84317 0.0
C306 C 0.57133 0.38865 0.91093 0.0
N307 N 0.57693 0.45419 0.8967 0.0
C308 C 0.54039 0.29957 0.60871 0.0
C309 C 0.5619 0.40198 0.64015 0.0
C310 C 0.52355 0.33512 0.56981 0.0
N311 N 0.55931 0.33329 0.6425 0.0
C312 C 0.54582 0.43936 0.60147 0.0
C313 C 0.52642 0.40584 0.56568 0.0
H314 H 0.53855 0.245 0.61161 0.0
H315 H 0.57685 0.4278 0.66755 0.0
C316 C 0.67666 0.33671 0.76598 0.0
N317 N 0.65167 0.33873 0.79615 0.0
C318 C 0.70181 0.36677 0.78644 0.0
C319 C 0.67536 0.40125 0.86908 0.0
C320 C 0.6507 0.36914 0.84741 0.0
C321 C 0.70126 0.39957 0.83845 0.0
H322 H 0.67717 0.31048 0.7262 0.0
H323 H 0.6312 0.36744 0.87214 0.0
O324 O 0.57417 0.18355 0.69566 0.0
O325 O 0.62405 0.18853 0.77935 0.0
O326 O 0.62605 0.28629 0.67889 0.0
O327 O 0.57915 0.30613 0.77402 0.0
H328 H 0.56347 0.06092 0.73606 0.0
H329 H 0.58327 0.17368 0.58647 0.0
H330 H 0.56352 0.955 0.67979 0.0
H331 H 0.58295 0.0658 0.53276 0.0
H332 H 0.65593 0.21208 0.95846 0.0
H333 H 0.67981 0.16641 0.76035 0.0
H334 H 0.61639 0.21006 0.88772 0.0
H335 H 0.71824 0.1694 0.83328 0.0
H336 H 0.67121 0.97848 0.70023 0.0
H337 H 0.69702 0.1193 0.57051 0.0
H338 H 0.49738 0.1609 0.90085 0.0
H339 H 0.56731 0.01519 0.90857 0.0
H340 H 0.63985 0.41539 0.6959 0.0
H341 H 0.61605 0.26818 0.57061 0.0
H342 H 0.6429 0.50277 0.62144 0.0
H343 H 0.61919 0.35843 0.49843 0.0
H344 H 0.59027 0.43692 0.75891 0.0
H345 H 0.56816 0.2857 0.88179 0.0
H346 H 0.58803 0.52459 0.83322 0.0
H347 H 0.56626 0.37598 0.95392 0.0
H348 H 0.50888 0.30761 0.54255 0.0
H349 H 0.54843 0.49396 0.59963 0.0
H350 H 0.72146 0.36497 0.76163 0.0
H351 H 0.67438 0.42598 0.90958 0.0
C352 C 0.2814 0.0478 0.37268 0.0
C353 C 0.28242 0.9766 0.36991 0.0
C354 C 0.25487 0.08233 0.37118 0.0
C355 C 0.22848 0.04684 0.36657 0.0
H356 H 0.3013 0.07704 0.37281 0.0
H357 H 0.25506 0.13732 0.37031 0.0
S358 S 0.21939 0.86003 0.36186 0.0
N359 N 0.2548 0.87157 0.36607 0.0
N360 N 0.20489 0.93668 0.36305 0.0
C361 C 0.2291 0.97559 0.36778 0.0
C362 C 0.25613 0.94037 0.36945 0.0
C363 C 0.22768 0.49681 0.10441 0.0
C364 C 0.21451 0.47834 0.1553 0.0
C365 C 0.25513 0.52779 0.10372 0.0
C366 C 0.27048 0.53954 0.1538 0.0
H367 H 0.21658 0.48774 0.06508 0.0
H368 H 0.26451 0.54225 0.06386 0.0
S369 S 0.24557 0.49904 0.29773 0.0
N370 N 0.21897 0.47293 0.25671 0.0
N371 N 0.27039 0.53088 0.25541 0.0
C372 C 0.25756 0.52071 0.20478 0.0
C373 C 0.22962 0.49011 0.20552 0.0
C374 C 0.74144 0.04036 0.62697 0.0
C375 C 0.71498 0.00446 0.62613 0.0
C376 C 0.76796 0.00642 0.6334 0.0
C377 C 0.76884 0.93564 0.63939 0.0
H378 H 0.74158 0.09534 0.62659 0.0
H379 H 0.78766 0.03601 0.63747 0.0
S380 S 0.70665 0.81725 0.63063 0.0
N381 N 0.69196 0.89335 0.62409 0.0
N382 N 0.74188 0.82995 0.63775 0.0
C383 C 0.74295 0.89877 0.63453 0.0
C384 C 0.71598 0.93311 0.62747 0.0
C385 C 0.75432 0.54024 0.86888 0.0
C386 C 0.78095 0.50522 0.87186 0.0
C387 C 0.72808 0.5052 0.86246 0.0
C388 C 0.72766 0.43415 0.8585 0.0
H389 H 0.75387 0.59519 0.8675 0.0
H390 H 0.70828 0.53402 0.85666 0.0
S391 S 0.79041 0.31825 0.874 0.0
N392 N 0.80458 0.39508 0.87855 0.0
N393 N 0.7552 0.32946 0.86497 0.0
C394 C 0.7537 0.39834 0.86574 0.0
C395 C 0.78038 0.43385 0.87283 0.0
C396 C 0.02508 0.97183 0.02937 0.0
C397 C 0.01134 0.02897 0.05285 0.0
C398 C 0.01102 0.93157 0.98917 0.0
C399 C 0.9828 0.94724 0.97094 0.0
H400 H 0.04707 0.9589 0.04135 0.0
H401 H 0.02251 0.88867 0.97146 0.0
S402 S 0.93627 0.08693 0.02358 0.0
N403 N 0.96715 0.09608 0.05791 0.0
N404 N 0.94083 0.02063 0.98216 0.0
C405 C 0.96857 0.00317 0.99504 0.0
C406 C 0.98282 0.04401 0.03601 0.0
C407 C 0.50819 0.97571 0.94543 0.0
C408 C 0.51465 0.04461 0.95402 0.0
C409 C 0.49361 0.93786 0.98635 0.0
C410 C 0.48525 0.96734 0.03764 0.0
H411 H 0.51418 0.95114 0.90649 0.0
H412 H 0.48854 0.88527 0.9774 0.0
S413 S 0.49952 0.14491 0.08204 0.0
N414 N 0.51288 0.14033 0.01796 0.0
N415 N 0.48619 0.06892 0.09576 0.0
C416 C 0.49212 0.03609 0.04701 0.0
C417 C 0.50665 0.07475 0.005 0.0
C418 C 0.00459 0.49281 0.56218 0.0
C419 C 0.97975 0.52886 0.54538 0.0
C420 C 0.01987 0.45198 0.5242 0.0
C421 C 0.01095 0.44601 0.46797 0.0
H422 H 0.01206 0.49553 0.60518 0.0
H423 H 0.0387 0.42444 0.53911 0.0
S424 S 0.94857 0.5347 0.40221 0.0
N425 N 0.94761 0.55861 0.46851 0.0
N426 N 0.97656 0.48279 0.39679 0.0
C427 C 0.98634 0.48263 0.45053 0.0
C428 C 0.9707 0.52384 0.48931 0.0
C429 C 0.50879 0.52744 0.4474 0.0
C430 C 0.47828 0.52567 0.44505 0.0
C431 C 0.52417 0.48802 0.4862 0.0
C432 C 0.50965 0.44494 0.52378 0.0
H433 H 0.52091 0.5595 0.41894 0.0
H434 H 0.54764 0.4911 0.48673 0.0
S435 S 0.43009 0.42375 0.53687 0.0
N436 N 0.43412 0.47889 0.48536 0.0
N437 N 0.46321 0.40372 0.55745 0.0
C438 C 0.47924 0.44218 0.52178 0.0
C439 C 0.46351 0.48277 0.48261 0.0
loop_
_geom_bond_atom_site_label_1
_geom_bond_atom_site_label_2
_geom_bond_distance
_geom_bond_site_symmetry_2
_ccdc_geom_bond_type
Li0 N17 1.990 . S
Li0 O60 1.956 . S
Li0 O61 1.970 . S
Li0 O62 1.961 . S
Li1 N25 1.990 . S
Li1 O60 1.970 . S
Li1 O61 1.956 . S
Li1 O63 1.961 . S
Li2 N47 1.990 . S
Li2 O60 1.961 . S
Li2 O62 1.956 . S
Li2 O63 1.970 . S
Li3 N53 1.990 . S
Li3 O61 1.961 . S
Li3 O62 1.970 . S
Li3 O63 1.956 . S
C4 C6 1.348 . S
C4 C7 1.356 . S
C4 O60 1.325 . S
N5 C8 1.314 . S
N5 C9 1.279 . S
C6 C4 1.348 . S
C6 C8 1.353 . S
C6 H64 0.929 . S
C7 C4 1.356 . S
C7 C9 1.358 . S
C7 H65 0.930 . S
C8 N5 1.314 . S
C8 C6 1.353 . S
C8 H66 0.930 . S
C9 N5 1.279 . S
C9 C7 1.358 . S
C9 H67 0.930 . S
C10 C13 1.348 . S
C10 C14 1.356 . S
C10 O61 1.325 . S
C11 N12 1.279 . S
C11 C14 1.358 . S
C11 H68 0.930 . S
N12 C11 1.279 . S
N12 C15 1.314 . S
C13 C10 1.348 . S
C13 C15 1.353 . S
C13 H69 0.929 . S
C14 C10 1.356 . S
C14 C11 1.358 . S
C14 H70 0.930 . S
C15 N12 1.314 . S
C15 C13 1.353 . S
C15 H71 0.930 . S
C16 N17 1.314 . S
C16 C21 1.353 . S
C16 H22 0.930 . S
N17 Li0 1.990 . S
N17 C16 1.314 . S
N17 C19 1.279 . S
C18 C19 1.358 . S
C18 C20 1.356 . S
C18 H72 0.930 . S
C19 N17 1.279 . S
C19 C18 1.358 . S
C19 H23 0.930 . S
C20 C18 1.356 . S
C20 C21 1.348 . S
C21 C16 1.353 . S
C21 C20 1.348 . S
C21 H73 0.929 . S
H22 C16 0.930 . S
H23 C19 0.930 . S
C24 N25 1.314 . S
C24 C26 1.353 1_545 S
C24 H30 0.930 . S
N25 Li1 1.990 . S
N25 C24 1.314 . S
N25 C28 1.279 . S
C26 C24 1.353 1_565 S
C26 C29 1.348 1_565 S
C26 H74 0.929 . S
C27 C28 1.358 . S
C27 C29 1.356 . S
C27 H75 0.930 . S
C28 N25 1.279 . S
C28 C27 1.358 . S
C28 H31 0.930 . S
C29 C26 1.348 1_545 S
C29 C27 1.356 . S
H30 C24 0.930 . S
H31 C28 0.930 . S
C32 C34 1.348 . S
C32 C35 1.356 . S
C32 O62 1.325 . S
N33 C36 1.314 . S
N33 C37 1.279 . S
C34 C32 1.348 . S
C34 C36 1.353 . S
C34 H76 0.929 . S
C35 C32 1.356 . S
C35 C37 1.358 . S
C35 H77 0.930 . S
C36 N33 1.314 . S
C36 C34 1.353 . S
C36 H78 0.930 . S
C37 N33 1.279 . S
C37 C35 1.358 . S
C37 H79 0.930 . S
C38 C39 1.348 . S
C38 C40 1.356 . S
C38 O63 1.325 . S
C39 C38 1.348 . S
C39 C41 1.353 . S
C39 H80 0.929 . S
C40 C38 1.356 . S
C40 C42 1.358 . S
C40 H81 0.930 . S
C41 C39 1.353 . S
C41 N43 1.314 . S
C41 H82 0.930 . S
C42 C40 1.358 . S
C42 N43 1.279 . S
C42 H83 0.930 . S
N43 C41 1.314 . S
N43 C42 1.279 . S
C44 C46 1.353 . S
C44 N47 1.314 . S
C44 H50 0.930 . S
C45 N47 1.279 . S
C45 C48 1.358 . S
C45 H51 0.930 . S
C46 C44 1.353 . S
C46 C49 1.348 . S
C46 H84 0.929 . S
N47 Li2 1.990 . S
N47 C44 1.314 . S
N47 C45 1.279 . S
C48 C45 1.358 . S
C48 C49 1.356 . S
C48 H85 0.930 . S
C49 C46 1.348 . S
C49 C48 1.356 . S
H50 C44 0.930 . S
H51 C45 0.930 . S
C52 N53 1.314 . S
C52 C54 1.353 . S
C52 H58 0.930 . S
N53 Li3 1.990 . S
N53 C52 1.314 . S
N53 C56 1.279 . S
C54 C52 1.353 . S
C54 C57 1.348 . S
C54 H86 0.929 . S
C55 C56 1.358 . S
C55 C57 1.356 . S
C55 H87 0.930 . S
C56 N53 1.279 . S
C56 C55 1.358 . S
C56 H59 0.930 . S
C57 C54 1.348 . S
C57 C55 1.356 . S
H58 C52 0.930 . S
H59 C56 0.930 . S
O60 Li0 1.956 . S
O60 Li1 1.970 . S
O60 Li2 1.961 . S
O60 C4 1.325 . S
O61 Li0 1.970 . S
O61 Li1 1.956 . S
O61 Li3 1.961 . S
O61 C10 1.325 . S
O62 Li0 1.961 . S
O62 Li2 1.956 . S
O62 Li3 1.970 . S
O62 C32 1.325 . S
O63 Li1 1.961 . S
O63 Li2 1.970 . S
O63 Li3 1.956 . S
O63 C38 1.325 . S
H64 C6 0.929 . S
H65 C7 0.930 . S
H66 C8 0.930 . S
H67 C9 0.930 . S
H68 C11 0.930 . S
H69 C13 0.929 . S
H70 C14 0.930 . S
H71 C15 0.930 . S
H72 C18 0.930 . S
H73 C21 0.929 . S
H74 C26 0.929 . S
H75 C27 0.930 . S
H76 C34 0.929 . S
H77 C35 0.930 . S
H78 C36 0.930 . S
H79 C37 0.930 . S
H80 C39 0.929 . S
H81 C40 0.930 . S
H82 C41 0.930 . S
H83 C42 0.930 . S
H84 C46 0.929 . S
H85 C48 0.930 . S
H86 C54 0.929 . S
H87 C55 0.930 . S
Li88 N105 1.990 . S
Li88 O148 1.956 . S
Li88 O149 1.970 . S
Li88 O150 1.961 . S
Li89 N113 1.990 . S
Li89 O148 1.970 . S
Li89 O149 1.956 . S
Li89 O151 1.961 . S
Li90 N135 1.990 . S
Li90 O148 1.961 . S
Li90 O150 1.956 . S
Li90 O151 1.970 . S
Li91 N141 1.990 . S
Li91 O149 1.961 . S
Li91 O150 1.970 . S
Li91 O151 1.956 . S
C92 C94 1.348 . S
C92 C95 1.356 . S
C92 O148 1.325 . S
N93 C96 1.314 . S
N93 C97 1.279 . S
C94 C92 1.348 . S
C94 C96 1.353 . S
C94 H152 0.929 . S
C95 C92 1.356 . S
C95 C97 1.358 . S
C95 H153 0.930 . S
C96 N93 1.314 . S
C96 C94 1.353 . S
C96 H154 0.930 . S
C97 N93 1.279 . S
C97 C95 1.358 . S
C97 H155 0.930 . S
C98 C101 1.348 . S
C98 C102 1.356 . S
C98 O149 1.325 . S
C99 N100 1.279 . S
C99 C102 1.358 . S
C99 H156 0.930 . S
N100 C99 1.279 . S
N100 C103 1.314 . S
C101 C98 1.348 . S
C101 C103 1.353 . S
C101 H157 0.929 . S
C102 C98 1.356 . S
C102 C99 1.358 . S
C102 H158 0.930 . S
C103 N100 1.314 . S
C103 C101 1.353 . S
C103 H159 0.930 . S
C104 N105 1.314 . S
C104 C109 1.353 . S
C104 H110 0.930 . S
N105 Li88 1.990 . S
N105 C104 1.314 . S
N105 C107 1.279 . S
C106 C107 1.358 . S
C106 C108 1.356 . S
C106 H160 0.930 . S
C107 N105 1.279 . S
C107 C106 1.358 . S
C107 H111 0.930 . S
C108 C106 1.356 . S
C108 C109 1.348 . S
C109 C104 1.353 . S
C109 C108 1.348 . S
C109 H161 0.929 . S
H110 C104 0.930 . S
H111 C107 0.930 . S
C112 N113 1.314 . S
C112 C114 1.353 . S
C112 H118 0.930 . S
N113 Li89 1.990 . S
N113 C112 1.314 . S
N113 C116 1.279 . S
C114 C112 1.353 . S
C114 C117 1.348 . S
C114 H162 0.929 . S
C115 C116 1.358 . S
C115 C117 1.356 . S
C115 H163 0.930 . S
C116 N113 1.279 . S
C116 C115 1.358 . S
C116 H119 0.930 . S
C117 C114 1.348 . S
C117 C115 1.356 . S
H118 C112 0.930 . S
H119 C116 0.930 . S
C120 C122 1.348 . S
C120 C123 1.356 . S
C120 O150 1.325 . S
N121 C124 1.314 . S
N121 C125 1.279 . S
C122 C120 1.348 . S
C122 C124 1.353 . S
C122 H164 0.929 . S
C123 C120 1.356 . S
C123 C125 1.358 . S
C123 H165 0.930 . S
C124 N121 1.314 . S
C124 C122 1.353 . S
C124 H166 0.930 . S
C125 N121 1.279 . S
C125 C123 1.358 . S
C125 H167 0.930 . S
C126 C127 1.348 . S
C126 C128 1.356 . S
C126 O151 1.325 . S
C127 C126 1.348 . S
C127 C129 1.353 . S
C127 H168 0.929 . S
C128 C126 1.356 . S
C128 C130 1.358 . S
C128 H169 0.930 . S
C129 C127 1.353 . S
C129 N131 1.314 . S
C129 H170 0.930 . S
C130 C128 1.358 . S
C130 N131 1.279 . S
C130 H171 0.930 . S
N131 C129 1.314 . S
N131 C130 1.279 . S
C132 C134 1.353 . S
C132 N135 1.314 . S
C132 H138 0.930 . S
C133 N135 1.279 . S
C133 C136 1.358 . S
C133 H139 0.930 . S
C134 C132 1.353 . S
C134 C137 1.348 . S
C134 H172 0.929 . S
N135 Li90 1.990 . S
N135 C132 1.314 . S
N135 C133 1.279 . S
C136 C133 1.358 . S
C136 C137 1.356 . S
C136 H173 0.930 . S
C137 C134 1.348 . S
C137 C136 1.356 . S
H138 C132 0.930 . S
H139 C133 0.930 . S
C140 N141 1.314 . S
C140 C142 1.353 1_565 S
C140 H146 0.930 . S
N141 Li91 1.990 . S
N141 C140 1.314 . S
N141 C144 1.279 . S
C142 C140 1.353 1_545 S
C142 C145 1.348 1_545 S
C142 H174 0.929 . S
C143 C144 1.358 . S
C143 C145 1.356 . S
C143 H175 0.930 . S
C144 N141 1.279 . S
C144 C143 1.358 . S
C144 H147 0.930 . S
C145 C142 1.348 1_565 S
C145 C143 1.356 . S
H146 C140 0.930 . S
H147 C144 0.930 . S
O148 Li88 1.956 . S
O148 Li89 1.970 . S
O148 Li90 1.961 . S
O148 C92 1.325 . S
O149 Li88 1.970 . S
O149 Li89 1.956 . S
O149 Li91 1.961 . S
O149 C98 1.325 . S
O150 Li88 1.961 . S
O150 Li90 1.956 . S
O150 Li91 1.970 . S
O150 C120 1.325 . S
O151 Li89 1.961 . S
O151 Li90 1.970 . S
O151 Li91 1.956 . S
O151 C126 1.325 . S
H152 C94 0.929 . S
H153 C95 0.930 . S
H154 C96 0.930 . S
H155 C97 0.930 . S
H156 C99 0.930 . S
H157 C101 0.929 . S
H158 C102 0.930 . S
H159 C103 0.930 . S
H160 C106 0.930 . S
H161 C109 0.929 . S
H162 C114 0.929 . S
H163 C115 0.930 . S
H164 C122 0.929 . S
H165 C123 0.930 . S
H166 C124 0.930 . S
H167 C125 0.930 . S
H168 C127 0.929 . S
H169 C128 0.930 . S
H170 C129 0.930 . S
H171 C130 0.930 . S
H172 C134 0.929 . S
H173 C136 0.930 . S
H174 C142 0.929 . S
H175 C143 0.930 . S
Li176 N193 1.990 . S
Li176 O236 1.956 . S
Li176 O237 1.970 . S
Li176 O238 1.961 . S
Li177 N201 1.990 . S
Li177 O236 1.970 . S
Li177 O237 1.956 . S
Li177 O239 1.961 . S
Li178 N223 1.990 . S
Li178 O236 1.961 . S
Li178 O238 1.956 . S
Li178 O239 1.970 . S
Li179 N229 1.990 . S
Li179 O237 1.961 . S
Li179 O238 1.970 . S
Li179 O239 1.956 . S
C180 C182 1.348 . S
C180 C183 1.356 . S
C180 O236 1.325 . S
N181 C184 1.314 . S
N181 C185 1.279 . S
C182 C180 1.348 . S
C182 C184 1.353 . S
C182 H240 0.929 . S
C183 C180 1.356 . S
C183 C185 1.358 . S
C183 H241 0.930 . S
C184 N181 1.314 . S
C184 C182 1.353 . S
C184 H242 0.930 . S
C185 N181 1.279 . S
C185 C183 1.358 . S
C185 H243 0.930 . S
C186 C189 1.348 . S
C186 C190 1.356 . S
C186 O237 1.325 . S
C187 N188 1.279 . S
C187 C190 1.358 . S
C187 H244 0.930 . S
N188 C187 1.279 . S
N188 C191 1.314 . S
C189 C186 1.348 . S
C189 C191 1.353 . S
C189 H245 0.929 . S
C190 C186 1.356 . S
C190 C187 1.358 . S
C190 H246 0.930 . S
C191 N188 1.314 . S
C191 C189 1.353 . S
C191 H247 0.930 . S
C192 N193 1.314 . S
C192 C197 1.353 . S
C192 H198 0.930 . S
N193 Li176 1.990 . S
N193 C192 1.314 . S
N193 C195 1.279 . S
C194 C195 1.358 1_545 S
C194 C196 1.356 1_545 S
C194 H248 0.930 . S
C195 N193 1.279 . S
C195 C194 1.358 1_565 S
C195 H199 0.930 . S
C196 C194 1.356 1_565 S
C196 C197 1.348 . S
C197 C192 1.353 . S
C197 C196 1.348 . S
C197 H249 0.929 . S
H198 C192 0.930 . S
H199 C195 0.930 . S
C200 N201 1.314 . S
C200 C202 1.353 . S
C200 H206 0.930 . S
N201 Li177 1.990 . S
N201 C200 1.314 . S
N201 C204 1.279 . S
C202 C200 1.353 . S
C202 C205 1.348 . S
C202 H250 0.929 . S
C203 C204 1.358 . S
C203 C205 1.356 . S
C203 H251 0.930 . S
C204 N201 1.279 . S
C204 C203 1.358 . S
C204 H207 0.930 . S
C205 C202 1.348 . S
C205 C203 1.356 . S
H206 C200 0.930 . S
H207 C204 0.930 . S
C208 C210 1.348 . S
C208 C211 1.356 . S
C208 O238 1.325 . S
N209 C212 1.314 . S
N209 C213 1.279 . S
C210 C208 1.348 . S
C210 C212 1.353 . S
C210 H252 0.929 . S
C211 C208 1.356 . S
C211 C213 1.358 . S
C211 H253 0.930 . S
C212 N209 1.314 . S
C212 C210 1.353 . S
C212 H254 0.930 . S
C213 N209 1.279 . S
C213 C211 1.358 . S
C213 H255 0.930 . S
C214 C215 1.348 . S
C214 C216 1.356 . S
C214 O239 1.325 . S
C215 C214 1.348 . S
C215 C217 1.353 . S
C215 H256 0.929 . S
C216 C214 1.356 . S
C216 C218 1.358 . S
C216 H257 0.930 . S
C217 C215 1.353 . S
C217 N219 1.314 . S
C217 H258 0.930 . S
C218 C216 1.358 . S
C218 N219 1.279 . S
C218 H259 0.930 . S
N219 C217 1.314 . S
N219 C218 1.279 . S
C220 C222 1.353 . S
C220 N223 1.314 . S
C220 H226 0.930 . S
C221 N223 1.279 . S
C221 C224 1.358 . S
C221 H227 0.930 . S
C222 C220 1.353 . S
C222 C225 1.348 . S
C222 H260 0.929 . S
N223 Li178 1.990 . S
N223 C220 1.314 . S
N223 C221 1.279 . S
C224 C221 1.358 . S
C224 C225 1.356 . S
C224 H261 0.930 . S
C225 C222 1.348 . S
C225 C224 1.356 . S
H226 C220 0.930 . S
H227 C221 0.930 . S
C228 N229 1.314 . S
C228 C230 1.353 . S
C228 H234 0.930 . S
N229 Li179 1.990 . S
N229 C228 1.314 . S
N229 C232 1.279 . S
C230 C228 1.353 . S
C230 C233 1.348 . S
C230 H262 0.929 . S
C231 C232 1.358 . S
C231 C233 1.356 . S
C231 H263 0.930 . S
C232 N229 1.279 . S
C232 C231 1.358 . S
C232 H235 0.930 . S
C233 C230 1.348 . S
C233 C231 1.356 . S
H234 C228 0.930 . S
H235 C232 0.930 . S
O236 Li176 1.956 . S
O236 Li177 1.970 . S
O236 Li178 1.961 . S
O236 C180 1.325 . S
O237 Li176 1.970 . S
O237 Li177 1.956 . S
O237 Li179 1.961 . S
O237 C186 1.325 . S
O238 Li176 1.961 . S
O238 Li178 1.956 . S
O238 Li179 1.970 . S
O238 C208 1.325 . S
O239 Li177 1.961 . S
O239 Li178 1.970 . S
O239 Li179 1.956 . S
O239 C214 1.325 . S
H240 C182 0.929 . S
H241 C183 0.930 . S
H242 C184 0.930 . S
H243 C185 0.930 . S
H244 C187 0.930 . S
H245 C189 0.929 . S
H246 C190 0.930 . S
H247 C191 0.930 . S
H248 C194 0.930 . S
H249 C197 0.929 . S
H250 C202 0.929 . S
H251 C203 0.930 . S
H252 C210 0.929 . S
H253 C211 0.930 . S
H254 C212 0.930 . S
H255 C213 0.930 . S
H256 C215 0.929 . S
H257 C216 0.930 . S
H258 C217 0.930 . S
H259 C218 0.930 . S
H260 C222 0.929 . S
H261 C224 0.930 . S
H262 C230 0.929 . S
H263 C231 0.930 . S
Li264 N281 1.990 . S
Li264 O324 1.956 . S
Li264 O325 1.970 . S
Li264 O326 1.961 . S
Li265 N289 1.990 . S
Li265 O324 1.970 . S
Li265 O325 1.956 . S
Li265 O327 1.961 . S
Li266 N311 1.990 . S
Li266 O324 1.961 . S
Li266 O326 1.956 . S
Li266 O327 1.970 . S
Li267 N317 1.990 . S
Li267 O325 1.961 . S
Li267 O326 1.970 . S
Li267 O327 1.956 . S
C268 C270 1.348 . S
C268 C271 1.356 . S
C268 O324 1.325 . S
N269 C272 1.314 . S
N269 C273 1.279 . S
C270 C268 1.348 . S
C270 C272 1.353 . S
C270 H328 0.929 . S
C271 C268 1.356 . S
C271 C273 1.358 . S
C271 H329 0.930 . S
C272 N269 1.314 . S
C272 C270 1.353 . S
C272 H330 0.930 . S
C273 N269 1.279 . S
C273 C271 1.358 . S
C273 H331 0.930 . S
C274 C277 1.348 . S
C274 C278 1.356 . S
C274 O325 1.325 . S
C275 N276 1.279 . S
C275 C278 1.358 . S
C275 H332 0.930 . S
N276 C275 1.279 . S
N276 C279 1.314 . S
C277 C274 1.348 . S
C277 C279 1.353 . S
C277 H333 0.929 . S
C278 C274 1.356 . S
C278 C275 1.358 . S
C278 H334 0.930 . S
C279 N276 1.314 . S
C279 C277 1.353 . S
C279 H335 0.930 . S
C280 N281 1.314 . S
C280 C285 1.353 . S
C280 H286 0.930 . S
N281 Li264 1.990 . S
N281 C280 1.314 . S
N281 C283 1.279 . S
C282 C283 1.358 1_565 S
C282 C284 1.356 1_565 S
C282 H336 0.930 . S
C283 N281 1.279 . S
C283 C282 1.358 1_545 S
C283 H287 0.930 . S
C284 C282 1.356 1_545 S
C284 C285 1.348 . S
C285 C280 1.353 . S
C285 C284 1.348 . S
C285 H337 0.929 . S
H286 C280 0.930 . S
H287 C283 0.930 . S
C288 N289 1.314 . S
C288 C290 1.353 . S
C288 H294 0.930 . S
N289 Li265 1.990 . S
N289 C288 1.314 . S
N289 C292 1.279 . S
C290 C288 1.353 . S
C290 C293 1.348 . S
C290 H338 0.929 . S
C291 C292 1.358 . S
C291 C293 1.356 . S
C291 H339 0.930 . S
C292 N289 1.279 . S
C292 C291 1.358 . S
C292 H295 0.930 . S
C293 C290 1.348 . S
C293 C291 1.356 . S
H294 C288 0.930 . S
H295 C292 0.930 . S
C296 C298 1.348 . S
C296 C299 1.356 . S
C296 O326 1.325 . S
N297 C300 1.314 . S
N297 C301 1.279 . S
C298 C296 1.348 . S
C298 C300 1.353 . S
C298 H340 0.929 . S
C299 C296 1.356 . S
C299 C301 1.358 . S
C299 H341 0.930 . S
C300 N297 1.314 . S
C300 C298 1.353 . S
C300 H342 0.930 . S
C301 N297 1.279 . S
C301 C299 1.358 . S
C301 H343 0.930 . S
C302 C303 1.348 . S
C302 C304 1.356 . S
C302 O327 1.325 . S
C303 C302 1.348 . S
C303 C305 1.353 . S
C303 H344 0.929 . S
C304 C302 1.356 . S
C304 C306 1.358 . S
C304 H345 0.930 . S
C305 C303 1.353 . S
C305 N307 1.314 . S
C305 H346 0.930 . S
C306 C304 1.358 . S
C306 N307 1.279 . S
C306 H347 0.930 . S
N307 C305 1.314 . S
N307 C306 1.279 . S
C308 C310 1.353 . S
C308 N311 1.314 . S
C308 H314 0.930 . S
C309 N311 1.279 . S
C309 C312 1.358 . S
C309 H315 0.930 . S
C310 C308 1.353 . S
C310 C313 1.348 . S
C310 H348 0.929 . S
N311 Li266 1.990 . S
N311 C308 1.314 . S
N311 C309 1.279 . S
C312 C309 1.358 . S
C312 C313 1.356 . S
C312 H349 0.930 . S
C313 C310 1.348 . S
C313 C312 1.356 . S
H314 C308 0.930 . S
H315 C309 0.930 . S
C316 N317 1.314 . S
C316 C318 1.353 . S
C316 H322 0.930 . S
N317 Li267 1.990 . S
N317 C316 1.314 . S
N317 C320 1.279 . S
C318 C316 1.353 . S
C318 C321 1.348 . S
C318 H350 0.929 . S
C319 C320 1.358 . S
C319 C321 1.356 . S
C319 H351 0.930 . S
C320 N317 1.279 . S
C320 C319 1.358 . S
C320 H323 0.930 . S
C321 C318 1.348 . S
C321 C319 1.356 . S
H322 C316 0.930 . S
H323 C320 0.930 . S
O324 Li264 1.956 . S
O324 Li265 1.970 . S
O324 Li266 1.961 . S
O324 C268 1.325 . S
O325 Li264 1.970 . S
O325 Li265 1.956 . S
O325 Li267 1.961 . S
O325 C274 1.325 . S
O326 Li264 1.961 . S
O326 Li266 1.956 . S
O326 Li267 1.970 . S
O326 C296 1.325 . S
O327 Li265 1.961 . S
O327 Li266 1.970 . S
O327 Li267 1.956 . S
O327 C302 1.325 . S
H328 C270 0.929 . S
H329 C271 0.930 . S
H330 C272 0.930 . S
H331 C273 0.930 . S
H332 C275 0.930 . S
H333 C277 0.929 . S
H334 C278 0.930 . S
H335 C279 0.930 . S
H336 C282 0.930 . S
H337 C285 0.929 . S
H338 C290 0.929 . S
H339 C291 0.930 . S
H340 C298 0.929 . S
H341 C299 0.930 . S
H342 C300 0.930 . S
H343 C301 0.930 . S
H344 C303 0.929 . S
H345 C304 0.930 . S
H346 C305 0.930 . S
H347 C306 0.930 . S
H348 C310 0.929 . S
H349 C312 0.930 . S
H350 C318 0.929 . S
H351 C319 0.930 . S
C352 C353 1.369 . S
C352 C354 1.419 . S
C352 H356 0.930 . S
C353 C352 1.369 . S
C353 C362 1.429 1_545 S
C354 C352 1.419 . S
C354 C355 1.363 1_545 S
C354 H357 0.929 . S
C355 C354 1.363 1_565 S
C355 C361 1.428 . S
H356 C352 0.930 . S
H357 C354 0.929 . S
S358 N359 1.613 . S
S358 N360 1.610 . S
N359 S358 1.613 . S
N359 C362 1.350 . S
N360 S358 1.610 . S
N360 C361 1.351 . S
C361 C355 1.428 . S
C361 N360 1.351 . S
C361 C362 1.434 . S
C362 C353 1.429 1_565 S
C362 N359 1.350 . S
C362 C361 1.434 . S
C363 C364 1.369 . S
C363 C365 1.419 . S
C363 H367 0.930 . S
C364 C363 1.369 . S
C364 C373 1.429 . S
C365 C363 1.419 . S
C365 C366 1.363 . S
C365 H368 0.929 . S
C366 C365 1.363 . S
C366 C372 1.428 . S
H367 C363 0.930 . S
H368 C365 0.929 . S
S369 N370 1.613 . S
S369 N371 1.610 . S
N370 S369 1.613 . S
N370 C373 1.350 . S
N371 S369 1.610 . S
N371 C372 1.351 . S
C372 C366 1.428 . S
C372 N371 1.351 . S
C372 C373 1.434 . S
C373 C364 1.429 . S
C373 N370 1.350 . S
C373 C372 1.434 . S
C374 C375 1.369 1_545 S
C374 C376 1.419 . S
C374 H378 0.930 . S
C375 C374 1.369 1_565 S
C375 C384 1.429 . S
C376 C374 1.419 . S
C376 C377 1.363 . S
C376 H379 0.929 . S
C377 C376 1.363 . S
C377 C383 1.428 1_545 S
H378 C374 0.930 . S
H379 C376 0.929 . S
S380 N381 1.613 . S
S380 N382 1.610 . S
N381 S380 1.613 . S
N381 C384 1.350 . S
N382 S380 1.610 . S
N382 C383 1.351 . S
C383 C377 1.428 1_565 S
C383 N382 1.351 . S
C383 C384 1.434 . S
C384 C375 1.429 . S
C384 N381 1.350 . S
C384 C383 1.434 . S
C385 C386 1.369 . S
C385 C387 1.419 . S
C385 H389 0.930 . S
C386 C385 1.369 . S
C386 C395 1.429 . S
C387 C385 1.419 . S
C387 C388 1.363 . S
C387 H390 0.929 . S
C388 C387 1.363 . S
C388 C394 1.428 . S
H389 C385 0.930 . S
H390 C387 0.929 . S
S391 N392 1.613 . S
S391 N393 1.610 . S
N392 S391 1.613 . S
N392 C395 1.350 . S
N393 S391 1.610 . S
N393 C394 1.351 . S
C394 C388 1.428 . S
C394 N393 1.351 . S
C394 C395 1.434 . S
C395 C386 1.429 . S
C395 N392 1.350 . S
C395 C394 1.434 . S
C396 C397 1.369 1_556 S
C396 C398 1.419 1_545 S
C396 H400 0.930 . S
C397 C396 1.369 1_554 S
C397 C406 1.429 1_455 S
C398 C396 1.419 1_565 S
C398 C399 1.363 1_455 S
C398 H401 0.929 . S
C399 C398 1.363 1_655 S
C399 C405 1.428 1_556 S
H400 C396 0.930 . S
H401 C398 0.929 . S
S402 N403 1.613 . S
S402 N404 1.610 1_545 S
N403 S402 1.613 . S
N403 C406 1.350 . S
N404 S402 1.610 1_565 S
N404 C405 1.351 . S
C405 C399 1.428 1_554 S
C405 N404 1.351 . S
C405 C406 1.434 1_565 S
C406 C397 1.429 1_655 S
C406 N403 1.350 . S
C406 C405 1.434 1_545 S
C407 C408 1.369 . S
C407 C409 1.419 1_545 S
C407 H411 0.930 . S
C408 C407 1.369 . S
C408 C417 1.429 1_556 S
C409 C407 1.419 1_565 S
C409 C410 1.363 1_556 S
C409 H412 0.929 . S
C410 C409 1.363 1_554 S
C410 C416 1.428 . S
H411 C407 0.930 . S
H412 C409 0.929 . S
S413 N414 1.613 . S
S413 N415 1.610 1_545 S
N414 S413 1.613 . S
N414 C417 1.350 . S
N415 S413 1.610 1_565 S
N415 C416 1.351 . S
C416 C410 1.428 . S
C416 N415 1.351 . S
C416 C417 1.434 1_565 S
C417 C408 1.429 1_554 S
C417 N414 1.350 . S
C417 C416 1.434 1_545 S
C418 C419 1.369 1_455 S
C418 C420 1.419 . S
C418 H422 0.930 . S
C419 C418 1.369 1_655 S
C419 C428 1.429 . S
C420 C418 1.419 . S
C420 C421 1.363 . S
C420 H423 0.929 . S
C421 C420 1.363 . S
C421 C427 1.428 1_455 S
H422 C418 0.930 . S
H423 C420 0.929 . S
S424 N425 1.613 . S
S424 N426 1.610 . S
N425 S424 1.613 . S
N425 C428 1.350 . S
N426 S424 1.610 . S
N426 C427 1.351 . S
C427 C421 1.428 1_655 S
C427 N426 1.351 . S
C427 C428 1.434 . S
C428 C419 1.429 . S
C428 N425 1.350 . S
C428 C427 1.434 . S
C429 C430 1.369 . S
C429 C431 1.419 . S
C429 H433 0.930 . S
C430 C429 1.369 . S
C430 C439 1.429 . S
C431 C429 1.419 . S
C431 C432 1.363 . S
C431 H434 0.929 . S
C432 C431 1.363 . S
C432 C438 1.428 . S
H433 C429 0.930 . S
H434 C431 0.929 . S
S435 N436 1.613 . S
S435 N437 1.610 . S
N436 S435 1.613 . S
N436 C439 1.350 . S
N437 S435 1.610 . S
N437 C438 1.351 . S
C438 C432 1.428 . S
C438 N437 1.351 . S
C438 C439 1.434 . S
C439 C430 1.429 . S
C439 N436 1.350 . S
C439 C438 1.434 . S
C353 C145 1.222 1_545 S
C355 C29 1.233 1_565 S
C364 C20 1.230 . S
C366 C137 1.226 . S
C375 C284 1.251 1_565 S
C377 C196 1.236 1_545 S
C386 C233 1.251 . S
C388 C321 1.237 . S
C397 C49 2.040 . S
C399 C205 2.040 . S
C408 C293 2.042 . S
C410 C108 2.041 . S
C419 C225 2.039 . S
C421 C57 2.043 . S
C430 C117 2.047 . S
C432 C313 2.036 . S
