# Generated by pormake.
# Topology ecf, (8)-cn, num edge types: 1
# Building blocks:
#     Node 0, Type 0, BuildingBlock: AJUNOK_clean_sbu_0, # of connection points: 8
#     Node 1, Type 0, BuildingBlock: AJUNOK_clean_sbu_0, # of connection points: 8
#     Node 2, Type 0, BuildingBlock: AJUNOK_clean_sbu_0, # of connection points: 8
#     Node 3, Type 0, BuildingBlock: AJUNOK_clean_sbu_0, # of connection points: 8
#     Node 4, Type 0, BuildingBlock: AJUNOK_clean_sbu_0, # of connection points: 8
#     Node 5, Type 0, BuildingBlock: AJUNOK_clean_sbu_0, # of connection points: 8
#     Edge 6, Type (0, 0), BuildingBlock: CIFDUS_clean_linker_0, # of connection points: 2
#     Edge 7, Type (0, 0), BuildingBlock: CIFDUS_clean_linker_0, # of connection points: 2
#     Edge 8, Type (0, 0), BuildingBlock: CIFDUS_clean_linker_0, # of connection points: 2
#     Edge 9, Type (0, 0), BuildingBlock: CIFDUS_clean_linker_0, # of connection points: 2
#     Edge 10, Type (0, 0), BuildingBlock: CIFDUS_clean_linker_0, # of connection points: 2
#     Edge 11, Type (0, 0), BuildingBlock: CIFDUS_clean_linker_0, # of connection points: 2
#     Edge 12, Type (0, 0), BuildingBlock: CIFDUS_clean_linker_0, # of connection points: 2
#     Edge 13, Type (0, 0), BuildingBlock: CIFDUS_clean_linker_0, # of connection points: 2
#     Edge 14, Type (0, 0), BuildingBlock: CIFDUS_clean_linker_0, # of connection points: 2
#     Edge 15, Type (0, 0), BuildingBlock: CIFDUS_clean_linker_0, # of connection points: 2
#     Edge 16, Type (0, 0), BuildingBlock: CIFDUS_clean_linker_0, # of connection points: 2
#     Edge 17, Type (0, 0), BuildingBlock: CIFDUS_clean_linker_0, # of connection points: 2
#     Edge 18, Type (0, 0), BuildingBlock: CIFDUS_clean_linker_0, # of connection points: 2
#     Edge 19, Type (0, 0), BuildingBlock: CIFDUS_clean_linker_0, # of connection points: 2
#     Edge 20, Type (0, 0), BuildingBlock: CIFDUS_clean_linker_0, # of connection points: 2
#     Edge 21, Type (0, 0), BuildingBlock: CIFDUS_clean_linker_0, # of connection points: 2
#     Edge 22, Type (0, 0), BuildingBlock: CIFDUS_clean_linker_0, # of connection points: 2
#     Edge 23, Type (0, 0), BuildingBlock: CIFDUS_clean_linker_0, # of connection points: 2
#     Edge 24, Type (0, 0), BuildingBlock: CIFDUS_clean_linker_0, # of connection points: 2
#     Edge 25, Type (0, 0), BuildingBlock: CIFDUS_clean_linker_0, # of connection points: 2
#     Edge 26, Type (0, 0), BuildingBlock: CIFDUS_clean_linker_0, # of connection points: 2
#     Edge 27, Type (0, 0), BuildingBlock: CIFDUS_clean_linker_0, # of connection points: 2
#     Edge 28, Type (0, 0), BuildingBlock: CIFDUS_clean_linker_0, # of connection points: 2
#     Edge 29, Type (0, 0), BuildingBlock: CIFDUS_clean_linker_0, # of connection points: 2
# Relax obj value: 0.418
# Max RMSD: 0.281
# Mean RMSD: 0.281
data_MOF--net-ecf--node1-AJUNOK_clean_sbu_0--edge1-CIFDUS_clean_linker_0
_symmetry_space_group_name_H-M    P1
_symmetry_Int_Tables_number       1
_symmetry_cell_setting            triclinic
loop_
_symmetry_equiv_pos_as_xyz
'x, y, z'
_cell_length_a     35.916822
_cell_length_b     35.971319
_cell_length_c     20.675023
_cell_angle_alpha  90.030126
_cell_angle_beta   89.933977
_cell_angle_gamma 119.96604
loop_
_atom_site_label
_atom_site_type_symbol
_atom_site_fract_x
_atom_site_fract_y
_atom_site_fract_z
_atom_type_partial_charge
Cd0 Cd 0.13157 0.33517 0.24017 0.0
Cd1 Cd 0.21724 0.34378 0.34491 0.0
C2 C 0.04842 0.24348 0.24207 0.0
N3 N 0.0827 0.26657 0.20285 0.0
C4 C 0.06546 0.20432 0.13948 0.0
C5 C 0.03253 0.17952 0.18315 0.0
C6 C 0.02295 0.19959 0.23332 0.0
C7 C 0.09054 0.24845 0.15041 0.0
H8 H 0.04193 0.25877 0.28194 0.0
H9 H 0.11714 0.26768 0.11852 0.0
C10 C 0.21452 0.31144 0.18213 0.0
C11 C 0.27496 0.42825 0.26224 0.0
C12 C 0.30641 0.47145 0.25536 0.0
C13 C 0.31006 0.50173 0.30191 0.0
C14 C 0.27947 0.48748 0.35217 0.0
C15 C 0.24926 0.44383 0.35808 0.0
N16 N 0.2474 0.41524 0.31331 0.0
H17 H 0.27481 0.40464 0.22971 0.0
H18 H 0.22882 0.43237 0.40039 0.0
C19 C 0.14467 0.2503 0.3081 0.0
N20 N 0.1762 0.27072 0.35228 0.0
C21 C 0.16746 0.20443 0.39039 0.0
C22 C 0.13691 0.18258 0.34151 0.0
C23 C 0.1242 0.20591 0.30195 0.0
C24 C 0.18698 0.24894 0.39477 0.0
H25 H 0.13798 0.26913 0.27504 0.0
H26 H 0.21264 0.26639 0.42911 0.0
C27 C 0.11285 0.31084 0.41161 0.0
C28 C 0.08499 0.36784 0.17662 0.0
N29 N 0.17035 0.40796 0.2668 0.0
C30 C 0.15562 0.41989 0.31896 0.0
C31 C 0.16439 0.46219 0.32524 0.0
C32 C 0.18795 0.49221 0.27697 0.0
C33 C 0.20446 0.47972 0.22517 0.0
C34 C 0.19473 0.43696 0.22051 0.0
C35 C 0.29224 0.36619 0.41502 0.0
O36 O 0.18398 0.31959 0.17348 0.0
O37 O 0.23058 0.31624 0.23852 0.0
O38 O 0.15316 0.32621 0.42156 0.0
O39 O 0.09994 0.30921 0.35368 0.0
O40 O 0.1169 0.36783 0.15005 0.0
O41 O 0.07317 0.34977 0.2313 0.0
O42 O 0.26157 0.36925 0.43974 0.0
O43 O 0.28602 0.34914 0.35971 0.0
H44 H 0.13415 0.39588 0.3529 0.0
H45 H 0.20383 0.42618 0.17759 0.0
H46 H 0.07271 0.18958 0.09936 0.0
H47 H 0.99669 0.18121 0.26656 0.0
H48 H 0.32964 0.48013 0.2167 0.0
H49 H 0.28025 0.50935 0.38881 0.0
H50 H 0.17894 0.18796 0.42125 0.0
H51 H 0.10107 0.19045 0.26367 0.0
H52 H 0.15007 0.47054 0.3647 0.0
H53 H 0.22156 0.50181 0.1861 0.0
Cd54 Cd 0.89633 0.2027 0.84544 0.0
Cd55 Cd 0.8031 0.1378 0.73645 0.0
C56 C 0.95331 0.1577 0.82341 0.0
N57 N 0.93042 0.16335 0.87092 0.0
C58 C 0.94344 0.1189 0.94293 0.0
C59 C 0.96585 0.11163 0.89373 0.0
C60 C 0.97088 0.13152 0.83357 0.0
C61 C 0.92582 0.14517 0.93039 0.0
H62 H 0.95727 0.17267 0.77688 0.0
H63 H 0.90842 0.15091 0.9681 0.0
C64 C 0.8044 0.10258 0.90218 0.0
C65 C 0.74292 0.16169 0.82176 0.0
C66 C 0.71275 0.17507 0.83014 0.0
C67 C 0.7112 0.20412 0.78606 0.0
C68 C 0.74225 0.22071 0.73648 0.0
C69 C 0.77141 0.20601 0.7294 0.0
N70 N 0.77134 0.17711 0.7718 0.0
H71 H 0.74165 0.1368 0.85251 0.0
H72 H 0.79269 0.21594 0.688 0.0
C73 C 0.84898 0.08667 0.77387 0.0
N74 N 0.81466 0.08095 0.73903 0.0
C75 C 0.78273 1.00521 0.74474 0.0
C76 C 0.81491 0.01016 0.78832 0.0
C77 C 0.84969 0.05141 0.80007 0.0
C78 C 0.78296 0.04144 0.72096 0.0
H79 H 0.87262 0.1187 0.78748 0.0
H80 H 0.7561 0.03791 0.69274 0.0
C81 C 0.91424 0.20647 0.67598 0.0
C82 C 0.94931 0.27896 0.91166 0.0
N83 N 0.85583 0.23573 0.8245 0.0
C84 C 0.86972 0.26408 0.77445 0.0
C85 C 0.85828 0.29587 0.77089 0.0
C86 C 0.83246 0.29863 0.81937 0.0
C87 C 0.81786 0.26865 0.86997 0.0
C88 C 0.83084 0.23782 0.8724 0.0
C89 C 0.73648 0.10387 0.64356 0.0
O90 O 0.84023 0.13738 0.90911 0.0
O91 O 0.78512 0.09542 0.84756 0.0
O92 O 0.87351 0.18309 0.66748 0.0
O93 O 0.92842 0.21537 0.73353 0.0
O94 O 0.91565 0.24911 0.93781 0.0
O95 O 0.96065 0.27091 0.85793 0.0
O96 O 0.7749 0.13028 0.62769 0.0
O97 O 0.72968 0.09244 0.7022 0.0
H98 H 0.89205 0.26397 0.7396 0.0
H99 H 0.82268 0.21688 0.91394 0.0
H100 H 0.93978 0.1046 0.99019 0.0
H101 H 0.98933 0.12781 0.79517 0.0
H102 H 0.68899 0.16026 0.86804 0.0
H103 H 0.743 0.24353 0.70168 0.0
H104 H 0.75615 0.9738 0.73265 0.0
H105 H 0.87506 0.05665 0.83344 0.0
H106 H 0.87087 0.31917 0.73203 0.0
H107 H 0.79877 0.27065 0.90898 0.0
Cd108 Cd 0.70122 0.80609 0.23233 0.0
Cd109 Cd 0.68539 0.87815 0.33872 0.0
C110 C 0.7971 0.83083 0.26022 0.0
N111 N 0.77659 0.84741 0.22585 0.0
C112 C 0.84414 0.90736 0.19385 0.0
C113 C 0.8656 0.89285 0.23408 0.0
C114 C 0.8416 0.85318 0.26544 0.0
C115 C 0.79928 0.88423 0.1909 0.0
H116 H 0.77889 0.80033 0.28444 0.0
H117 H 0.7832 0.89638 0.1612 0.0
C118 C 0.71084 0.90377 0.1669 0.0
C119 C 0.60259 0.85397 0.25103 0.0
C120 C 0.5596 0.84054 0.23819 0.0
C121 C 0.52731 0.81241 0.28098 0.0
C122 C 0.53963 0.79732 0.33502 0.0
C123 C 0.58326 0.81181 0.34619 0.0
N124 N 0.61372 0.83933 0.30401 0.0
H125 H 0.62705 0.8779 0.22031 0.0
H126 H 0.59299 0.80252 0.38995 0.0
C127 C 0.77252 0.96372 0.31456 0.0
N128 N 0.75932 0.92348 0.33675 0.0
C129 C 0.83179 0.93802 0.34092 0.0
C130 C 0.84521 0.97724 0.3098 0.0
C131 C 0.81541 0.99096 0.29941 0.0
C132 C 0.78808 0.91085 0.35261 0.0
H133 H 0.74933 0.97381 0.30488 0.0
H134 H 0.7773 0.87929 0.37178 0.0
C135 C 0.71346 0.80165 0.40642 0.0
C136 C 0.68458 0.73157 0.16449 0.0
N137 N 0.62743 0.77234 0.25217 0.0
C138 C 0.61066 0.74404 0.30204 0.0
C139 C 0.56666 0.71413 0.30412 0.0
C140 C 0.53951 0.71277 0.25393 0.0
C141 C 0.55785 0.74292 0.20353 0.0
C142 C 0.60212 0.77179 0.20288 0.0
C143 C 0.65975 0.92457 0.41973 0.0
O144 O 0.70654 0.86664 0.15717 0.0
O145 O 0.70626 0.91384 0.22445 0.0
O146 O 0.70047 0.82869 0.41455 0.0
O147 O 0.71682 0.79116 0.34866 0.0
O148 O 0.67971 0.76046 0.13751 0.0
O149 O 0.70104 0.73952 0.2203 0.0
O150 O 0.66082 0.89206 0.44069 0.0
O151 O 0.6732 0.93664 0.36283 0.0
H152 H 0.63171 0.74296 0.33834 0.0
H153 H 0.61658 0.79295 0.16194 0.0
H154 H 0.86158 0.93699 0.16702 0.0
H155 H 0.85704 0.8397 0.29452 0.0
H156 H 0.55218 0.85436 0.19714 0.0
H157 H 0.51603 0.77566 0.36944 0.0
H158 H 0.85426 0.92734 0.35227 0.0
H159 H 0.82499 0.02194 0.27793 0.0
H160 H 0.55463 0.69085 0.34295 0.0
H161 H 0.53849 0.74356 0.16395 0.0
Cd162 Cd 0.81124 0.66997 0.84331 0.0
Cd163 Cd 0.88816 0.67577 0.73843 0.0
C164 C 0.77865 0.73754 0.85681 0.0
N165 N 0.8077 0.72808 0.88221 0.0
C166 C 0.84095 0.79316 0.94284 0.0
C167 C 0.8141 0.80564 0.91242 0.0
C168 C 0.78135 0.77651 0.87118 0.0
C169 C 0.837 0.75371 0.92708 0.0
H170 H 0.75491 0.71589 0.82268 0.0
H171 H 0.85898 0.74476 0.94779 0.0
C172 C 0.92657 0.70996 0.89011 0.0
C173 C 0.86758 0.59958 0.84132 0.0
C174 C 0.8616 0.55919 0.85705 0.0
C175 C 0.84341 0.5258 0.81155 0.0
C176 C 0.82892 0.53319 0.75255 0.0
C177 C 0.83579 0.57424 0.73855 0.0
N178 N 0.85505 0.60658 0.78262 0.0
H179 H 0.88462 0.62563 0.87463 0.0
H180 H 0.82822 0.58101 0.69094 0.0
C181 C 0.96274 0.77299 0.74087 0.0
N182 N 0.92018 0.74921 0.75487 0.0
C183 C 0.9221 0.80746 0.81324 0.0
C184 C 0.96662 0.83086 0.80483 0.0
C185 C 0.98686 0.81418 0.76607 0.0
C186 C 0.89925 0.76612 0.78751 0.0
H187 H 0.97854 0.75854 0.7151 0.0
H188 H 0.86561 0.74636 0.79765 0.0
C189 C 0.81049 0.70305 0.67784 0.0
C190 C 0.75292 0.62601 0.94424 0.0
N191 N 0.7727 0.59964 0.7993 0.0
C192 C 0.74849 0.59136 0.74493 0.0
C193 C 0.71703 0.54922 0.72951 0.0
C194 C 0.7103 0.51496 0.77026 0.0
C195 C 0.73745 0.5245 0.8241 0.0
C196 C 0.76726 0.56701 0.83885 0.0
C197 C 0.93107 0.65311 0.64747 0.0
O198 O 0.88704 0.69939 0.89808 0.0
O199 O 0.93815 0.70428 0.8346 0.0
O200 O 0.83933 0.69273 0.66756 0.0
O201 O 0.79676 0.70032 0.73579 0.0
O202 O 0.79205 0.63589 0.94926 0.0
O203 O 0.74197 0.63696 0.89249 0.0
O204 O 0.89675 0.65297 0.63321 0.0
O205 O 0.94753 0.66824 0.70202 0.0
H206 H 0.75136 0.61751 0.71573 0.0
H207 H 0.78555 0.57392 0.883 0.0
H208 H 0.86627 0.81466 0.9753 0.0
H209 H 0.76012 0.785 0.84628 0.0
H210 H 0.87345 0.5548 0.90291 0.0
H211 H 0.81553 0.50853 0.71568 0.0
H212 H 0.90586 0.81986 0.84274 0.0
H213 H 0.02137 0.83176 0.75897 0.0
H214 H 0.69655 0.54417 0.68823 0.0
H215 H 0.73495 0.49963 0.85623 0.0
Cd216 Cd 0.22694 0.89744 0.22618 0.0
Cd217 Cd 0.14124 0.8217 0.32203 0.0
C218 C 0.22962 0.98622 0.24229 0.0
N219 N 0.21023 0.95092 0.20394 0.0
C220 C 0.16442 0.97461 0.15859 0.0
C221 C 0.17997 0.00783 0.20421 0.0
C222 C 0.21446 0.01491 0.24395 0.0
C223 C 0.18018 0.94607 0.15941 0.0
H224 H 0.25557 0.99114 0.27394 0.0
H225 H 0.16631 0.91863 0.12755 0.0
C226 C 0.12339 0.81825 0.15426 0.0
C227 C 0.16722 0.75928 0.24725 0.0
C228 C 0.17865 0.72759 0.2413 0.0
C229 C 0.1998 0.72006 0.29242 0.0
C230 C 0.21058 0.74629 0.34758 0.0
C231 C 0.19847 0.7777 0.35153 0.0
N232 N 0.17761 0.78397 0.30145 0.0
H233 H 0.14866 0.76293 0.20944 0.0
H234 H 0.20406 0.79587 0.3957 0.0
C235 C 0.11198 0.88761 0.26794 0.0
N236 N 0.12392 0.87706 0.32406 0.0
C237 C 0.10186 0.91998 0.38358 0.0
C238 C 0.08511 0.92764 0.32681 0.0
C239 C 0.0921 0.91226 0.26815 0.0
C240 C 0.11961 0.89317 0.38143 0.0
H241 H 0.11513 0.8748 0.22287 0.0
H242 H 0.12761 0.88344 0.42629 0.0
C243 C 0.21892 0.91478 0.39987 0.0
C244 C 0.30589 0.93787 0.15888 0.0
N245 N 0.25672 0.85626 0.26254 0.0
C246 C 0.28017 0.86781 0.318 0.0
C247 C 0.30789 0.85209 0.33177 0.0
C248 C 0.31217 0.82453 0.28773 0.0
C249 C 0.28684 0.81263 0.23136 0.0
C250 C 0.26019 0.8298 0.21895 0.0
C251 C 0.07399 0.74957 0.37989 0.0
O252 O 0.16289 0.84761 0.14791 0.0
O253 O 0.10909 0.80513 0.21086 0.0
O254 O 0.19099 0.87514 0.40719 0.0
O255 O 0.23237 0.92849 0.34271 0.0
O256 O 0.27198 0.90785 0.13368 0.0
O257 O 0.30207 0.95126 0.21375 0.0
O258 O 0.10945 0.77189 0.40886 0.0
O259 O 0.06822 0.7643 0.32782 0.0
H260 H 0.27935 0.89117 0.34986 0.0
H261 H 0.24303 0.8229 0.17356 0.0
H262 H 0.13835 0.96892 0.12633 0.0
H263 H 0.22835 0.04139 0.2779 0.0
H264 H 0.16974 0.70822 0.19784 0.0
H265 H 0.22603 0.74104 0.38869 0.0
H266 H 0.09865 0.93184 0.43011 0.0
H267 H 0.07948 0.91594 0.22267 0.0
H268 H 0.32758 0.86362 0.37477 0.0
H269 H 0.28832 0.79118 0.19609 0.0
Cd270 Cd 0.32505 0.11836 0.85377 0.0
Cd271 Cd 0.32769 0.20343 0.75367 0.0
C272 C 0.24022 0.02963 0.86645 0.0
N273 N 0.25998 0.06728 0.89945 0.0
C274 C 0.20001 0.04289 0.97137 0.0
C275 C 0.17853 1.0047 0.93618 0.0
C276 C 0.19931 0.99763 0.88429 0.0
C277 C 0.24153 0.07387 0.95266 0.0
H278 H 0.2557 0.02513 0.82472 0.0
H279 H 0.25808 0.10349 0.97943 0.0
C280 C 0.3046 0.20283 0.91957 0.0
C281 C 0.41474 0.26119 0.82991 0.0
C282 C 0.45836 0.29069 0.83729 0.0
C283 C 0.48786 0.29409 0.78962 0.0
C284 C 0.47226 0.26648 0.7359 0.0
C285 C 0.42813 0.23744 0.73031 0.0
N286 N 0.40051 0.23475 0.77765 0.0
H287 H 0.3921 0.2608 0.8646 0.0
H288 H 0.41566 0.21815 0.68709 0.0
C289 C 0.23576 0.1883 0.78722 0.0
N290 N 0.25532 0.16447 0.78095 0.0
C291 C 0.19598 0.10445 0.83177 0.0
C292 C 0.1776 0.12995 0.84489 0.0
C293 C 0.197 0.17181 0.82028 0.0
C294 C 0.23571 0.12281 0.80028 0.0
H295 H 0.25206 0.22135 0.77129 0.0
H296 H 0.25178 0.10463 0.79434 0.0
C297 C 0.30159 0.10268 0.68036 0.0
C298 C 0.3613 0.06981 0.89919 0.0
N299 N 0.39886 0.16395 0.84198 0.0
C300 C 0.4166 0.15415 0.79142 0.0
C301 C 0.46078 0.16959 0.78933 0.0
C302 C 0.48722 0.19504 0.84024 0.0
C303 C 0.468 0.20534 0.89135 0.0
C304 C 0.42345 0.18868 0.89188 0.0
C305 C 0.34425 0.2767 0.68403 0.0
O306 O 0.30908 0.16974 0.92523 0.0
O307 O 0.3107 0.22058 0.86443 0.0
O308 O 0.31134 0.14193 0.67382 0.0
O309 O 0.30275 0.08906 0.73696 0.0
O310 O 0.35935 0.09781 0.93433 0.0
O311 O 0.34333 0.06224 0.84431 0.0
O312 O 0.33941 0.24338 0.65546 0.0
O313 O 0.33651 0.27393 0.74383 0.0
H314 H 0.39602 0.13231 0.7544 0.0
H315 H 0.40825 0.19398 0.9333 0.0
H316 H 0.18434 0.04925 1.01101 0.0
H317 H 0.18311 0.96848 0.85584 0.0
H318 H 0.46844 0.31222 0.87838 0.0
H319 H 0.4937 0.26813 0.69773 0.0
H320 H 0.18092 0.07162 0.84841 0.0
H321 H 0.1829 0.19195 0.82824 0.0
H322 H 0.47352 0.15946 0.74993 0.0
H323 H 0.48691 0.22483 0.93164 0.0
H324 H 0.24946 0.57358 0.31273 0.0
H325 H 0.12222 0.49985 0.23262 0.0
H326 H 0.11528 0.56399 0.228 0.0
H327 H 0.1438 0.63987 0.25056 0.0
H328 H 0.27068 0.71541 0.33152 0.0
H329 H 0.27936 0.65193 0.33272 0.0
C330 C 0.22047 0.57195 0.29408 0.0
C331 C 0.18628 0.53234 0.27309 0.0
C332 C 0.21657 0.6091 0.2921 0.0
C333 C 0.14875 0.53017 0.24908 0.0
C334 C 0.1448 0.56674 0.24647 0.0
C335 C 0.17371 0.64275 0.26747 0.0
C336 C 0.20661 0.68244 0.29053 0.0
C337 C 0.17831 0.60626 0.26825 0.0
C338 C 0.24471 0.68518 0.31382 0.0
C339 C 0.24973 0.64891 0.31434 0.0
H340 H 0.54396 0.21655 0.73968 0.0
H341 H 0.53457 0.19866 0.9468 0.0
H342 H 0.60581 0.20623 0.9492 0.0
H343 H 0.66717 0.20942 0.89143 0.0
H344 H 0.67148 0.21786 0.68273 0.0
H345 H 0.60667 0.22298 0.68256 0.0
C346 C 0.5574 0.21427 0.78545 0.0
C347 C 0.53333 0.20646 0.84277 0.0
C348 C 0.59772 0.21676 0.78632 0.0
C349 C 0.55213 0.205 0.90177 0.0
C350 C 0.59286 0.20884 0.9032 0.0
C351 C 0.65402 0.21228 0.84577 0.0
C352 C 0.67456 0.21286 0.78725 0.0
C353 C 0.61534 0.21333 0.84553 0.0
C354 C 0.65727 0.21789 0.72888 0.0
C355 C 0.61966 0.22033 0.72852 0.0
H356 H 0.35604 0.5523 0.19869 0.0
H357 H 0.35235 0.55132 0.40769 0.0
H358 H 0.41964 0.61888 0.41056 0.0
H359 H 0.48344 0.67487 0.355 0.0
H360 H 0.49137 0.67103 0.14683 0.0
H361 H 0.41907 0.60943 0.14292 0.0
C362 C 0.36985 0.56665 0.24501 0.0
C363 C 0.34859 0.54602 0.30275 0.0
C364 C 0.40986 0.6049 0.24671 0.0
C365 C 0.36697 0.56622 0.36208 0.0
C366 C 0.40603 0.60487 0.36398 0.0
C367 C 0.46955 0.66057 0.30868 0.0
C368 C 0.49344 0.67782 0.25145 0.0
C369 C 0.42833 0.62391 0.30672 0.0
C370 C 0.474 0.65921 0.19187 0.0
C371 C 0.43259 0.6235 0.18951 0.0
H372 H 0.89159 0.3805 0.84337 0.0
H373 H 0.75755 0.29954 0.79865 0.0
H374 H 0.74825 0.36262 0.7929 0.0
H375 H 0.77977 0.44192 0.79663 0.0
H376 H 0.91347 0.52132 0.8471 0.0
H377 H 0.92141 0.45806 0.85536 0.0
C378 C 0.86034 0.37682 0.83275 0.0
C379 C 0.82541 0.33577 0.82062 0.0
C380 C 0.85525 0.41303 0.83072 0.0
C381 C 0.78489 0.33099 0.80764 0.0
C382 C 0.77965 0.36704 0.80436 0.0
C383 C 0.81046 0.44514 0.80986 0.0
C384 C 0.84596 0.48623 0.8214 0.0
C385 C 0.81477 0.40837 0.81512 0.0
C386 C 0.88555 0.49004 0.8388 0.0
C387 C 0.89022 0.45391 0.84311 0.0
H388 H 0.35915 0.81104 0.19546 0.0
H389 H 0.3417 0.80971 0.40247 0.0
H390 H 0.40482 0.80221 0.4188 0.0
H391 H 0.46956 0.80452 0.37444 0.0
H392 H 0.48303 0.79958 0.16749 0.0
H393 H 0.416 0.79993 0.15147 0.0
C394 C 0.36803 0.80784 0.24431 0.0
C395 C 0.34586 0.81213 0.29759 0.0
C396 C 0.404 0.80273 0.25353 0.0
C397 C 0.35877 0.80814 0.36033 0.0
C398 C 0.39479 0.80348 0.36982 0.0
C399 C 0.45738 0.80225 0.32581 0.0
C400 C 0.48219 0.80319 0.27223 0.0
C401 C 0.41845 0.80209 0.31678 0.0
C402 C 0.4655 0.80031 0.20968 0.0
C403 C 0.427 0.80033 0.2004 0.0
H404 H 0.54031 0.34459 0.69186 0.0
H405 H 0.53856 0.32248 0.89739 0.0
H406 H 0.60799 0.38775 0.90882 0.0
H407 H 0.66435 0.45455 0.86292 0.0
H408 H 0.67043 0.47452 0.65605 0.0
H409 H 0.60366 0.40655 0.64318 0.0
C410 C 0.55554 0.35335 0.73894 0.0
C411 C 0.53359 0.32902 0.79393 0.0
C412 C 0.59581 0.39093 0.74523 0.0
C413 C 0.55403 0.34117 0.8545 0.0
C414 C 0.59385 0.37846 0.86108 0.0
C415 C 0.65229 0.44388 0.81449 0.0
C416 C 0.67275 0.47063 0.76072 0.0
C417 C 0.61439 0.40424 0.80709 0.0
C418 C 0.65517 0.45568 0.69884 0.0
C419 C 0.61702 0.41646 0.69125 0.0
H420 H 0.13163 0.15093 0.2207 0.0
H421 H 0.1183 0.1151 0.42239 0.0
H422 H 0.12463 0.05245 0.39476 0.0
H423 H 0.14952 0.01829 0.31691 0.0
H424 H 0.16298 0.05381 0.11581 0.0
H425 H 0.14053 0.10651 0.13945 0.0
C426 C 0.12838 0.12862 0.25854 0.0
C427 C 0.12582 0.13833 0.32383 0.0
C428 C 0.13316 0.09345 0.24252 0.0
C429 C 0.1215 0.1089 0.372 0.0
C430 C 0.12529 0.07324 0.35628 0.0
C431 C 0.14661 0.037 0.27815 0.0
C432 C 0.15881 0.0333 0.21503 0.0
C433 C 0.13383 0.06692 0.29231 0.0
C434 C 0.15421 0.05678 0.16475 0.0
C435 C 0.14146 0.08682 0.17839 0.0
H436 H 0.02832 0.13307 0.98129 0.0
H437 H 0.95918 0.0425 0.82967 0.0
H438 H 0.01991 0.0311 0.81178 0.0
H439 H 0.09863 0.06442 0.81649 0.0
H440 H 0.16954 0.16153 0.95945 0.0
H441 H 0.10265 0.15254 1.00476 0.0
C442 C 0.02586 0.10914 0.94686 0.0
C443 C 0.99015 0.08935 0.90574 0.0
C444 C 0.06196 0.10504 0.93409 0.0
C445 C 0.98683 0.05831 0.86128 0.0
C446 C 0.02179 0.05228 0.8505 0.0
C447 C 0.09904 0.08213 0.85923 0.0
C448 C 0.1384 0.11409 0.88406 0.0
C449 C 0.06061 0.07815 0.88291 0.0
C450 C 0.13919 0.13715 0.93935 0.0
C451 C 0.10105 0.13213 0.96499 0.0
H452 H 0.03185 0.12292 0.26823 0.0
H453 H 0.97538 0.13287 0.09036 0.0
H454 H 0.91272 0.06176 0.10854 0.0
H455 H 0.86742 0.009 0.18972 0.0
H456 H 0.92116 1.00284 0.37305 0.0
H457 H 0.99219 0.05987 0.33814 0.0
C458 C 1.00665 0.10842 0.23217 0.0
C459 C 1.00725 0.13269 0.1786 0.0
C460 C 0.96995 0.06902 0.24522 0.0
C461 C 0.97502 0.11422 0.13167 0.0
C462 C 0.93908 0.07404 0.14276 0.0
C463 C 0.89498 0.01964 0.22142 0.0
C464 C 0.88921 1.00333 0.2846 0.0
C465 C 0.93496 0.053 0.20174 0.0
C466 C 0.92499 0.01588 0.32472 0.0
C467 C 0.96542 0.04843 0.3048 0.0
H468 H 0.87703 0.99155 0.82252 0.0
H469 H 0.74118 0.9461 0.84028 0.0
H470 H 0.73069 0.88203 0.89584 0.0
H471 H 0.75818 0.83466 0.92512 0.0
H472 H 0.89288 0.87734 0.89999 0.0
H473 H 0.90629 0.94786 0.86584 0.0
C474 C 0.84531 0.96798 0.83954 0.0
C475 C 0.80979 0.97299 0.8258 0.0
C476 C 0.83939 0.93096 0.87101 0.0
C477 C 0.76885 0.94226 0.84836 0.0
C478 C 0.76284 0.90583 0.88077 0.0
C479 C 0.79059 0.85979 0.91351 0.0
C480 C 0.82422 0.85069 0.91364 0.0
C481 C 0.7976 0.8992 0.89029 0.0
C482 C 0.86635 0.8836 0.90013 0.0
C483 C 0.87395 0.92372 0.87956 0.0
H484 H 0.90605 0.90609 0.34865 0.0
H485 H 0.93035 0.93904 0.14645 0.0
H486 H 1.0074 0.96797 0.16414 0.0
H487 H 0.0633 0.96735 0.23138 0.0
H488 H 0.03316 0.92244 0.42924 0.0
H489 H 0.96456 0.91848 0.42005 0.0
C490 C 0.92819 0.92021 0.30849 0.0
C491 C 0.91243 0.91885 0.24589 0.0
C492 C 0.97178 0.93503 0.31845 0.0
C493 C 0.94165 0.93883 0.19491 0.0
C494 C 0.98566 0.95527 0.20501 0.0
C495 C 0.04198 0.95681 0.27282 0.0
C496 C 0.05302 0.94257 0.32951 0.0
C497 C 1.00054 0.95085 0.26575 0.0
C498 C 0.02605 0.93261 0.38403 0.0
C499 C 0.98603 0.92963 0.37872 0.0
H500 H 0.1134 0.00965 0.88391 0.0
H501 H 0.14282 0.93069 1.00551 0.0
H502 H 0.07113 0.86909 0.98611 0.0
H503 H 1.00937 0.83499 0.91237 0.0
H504 H 0.98443 0.91245 0.78026 0.0
H505 H 0.04488 0.97776 0.82558 0.0
C506 C 0.10318 0.97937 0.90822 0.0
C507 C 0.13273 0.97423 0.94591 0.0
C508 C 0.06327 0.94377 0.89325 0.0
C509 C 0.12008 0.935 0.9767 0.0
C510 C 0.07945 0.8998 0.9648 0.0
C511 C 0.01647 0.8664 0.89537 0.0
C512 C 0.99337 0.86952 0.84303 0.0
C513 C 0.05208 0.90326 0.91982 0.0
C514 C 1.00222 0.90984 0.8206 0.0
C515 C 0.03678 0.94696 0.84627 0.0
H516 H 0.25552 0.26258 0.18582 0.0
H517 H 0.20759 0.32019 0.0512 0.0
H518 H 0.23123 0.29323 0.96057 0.0
H519 H 0.266 0.25324 0.91753 0.0
H520 H 0.30917 0.1908 0.05108 0.0
H521 H 0.28709 0.21913 0.14228 0.0
C522 C 0.25043 0.26957 0.13671 0.0
C523 C 0.23003 0.29441 0.12649 0.0
C524 C 0.26338 0.2528 0.08374 0.0
C525 C 0.22323 0.30178 0.0617 0.0
C526 C 0.23685 0.2862 1.00937 0.0
C527 C 0.27089 0.24588 0.96653 0.0
C528 C 0.2902 0.22004 0.97633 0.0
C529 C 0.2571 0.26173 1.01947 0.0
C530 C 0.29496 0.21056 1.04095 0.0
C531 C 0.28224 0.22694 0.09356 0.0
H532 H 1.00389 0.25148 0.6773 0.0
H533 H 0.89728 0.20071 0.54434 0.0
H534 H 0.94757 0.22812 0.45306 0.0
H535 H 0.02269 0.26685 0.40908 0.0
H536 H 0.12893 0.31608 0.54276 0.0
H537 H 0.07858 0.28935 0.63362 0.0
C538 C 0.99135 0.24632 0.62845 0.0
C539 C 0.94594 0.22368 0.61904 0.0
C540 C 0.02088 0.26218 0.57529 0.0
C541 C 0.93142 0.21769 0.55441 0.0
C542 C 0.96047 0.23354 0.50168 0.0
C543 C 0.03507 0.27197 0.45802 0.0
C544 C 0.08049 0.29412 0.46774 0.0
C545 C 1.00542 0.25593 0.51118 0.0
C546 C 0.09482 0.29959 0.53242 0.0
C547 C 0.06574 0.28414 0.58497 0.0
H548 H 0.76136 0.99337 0.16749 0.0
H549 H 0.68847 0.88764 1.03802 0.0
H550 H 0.70688 0.93779 0.94751 0.0
H551 H 0.74708 0.0128 0.90159 0.0
H552 H 0.8242 0.11738 1.03102 0.0
H553 H 0.802 0.06756 0.122 0.0
C554 C 0.74934 0.98111 0.11952 0.0
C555 C 0.72281 0.93595 0.11098 0.0
C556 C 0.76167 0.01049 0.06613 0.0
C557 C 0.70869 0.92164 1.04734 0.0
C558 C 0.71954 0.95063 0.9949 0.0
C559 C 0.75876 0.02491 0.94971 0.0
C560 C 0.78729 0.06986 0.95807 0.0
C561 C 0.74642 0.99531 1.0031 0.0
C562 C 0.80224 0.0837 1.02166 0.0
C563 C 0.78949 0.0549 0.0744 0.0
H564 H 0.76072 0.74423 0.67785 0.0
H565 H 0.82189 0.69742 0.54752 0.0
H566 H 0.79742 0.72164 0.4551 0.0
H567 H 0.75909 0.7572 0.40831 0.0
H568 H 0.70015 0.80691 0.53741 0.0
H569 H 0.72285 0.78098 0.63053 0.0
C570 C 0.76864 0.73906 0.62932 0.0
C571 C 0.79347 0.71833 0.62127 0.0
C572 C 0.75466 0.75391 0.57482 0.0
C573 C 0.80316 0.71289 0.55688 0.0
C574 C 0.789 0.72688 0.50325 0.0
C575 C 0.75085 0.76228 0.45668 0.0
C576 C 0.72719 0.78419 0.46427 0.0
C577 C 0.76475 0.74757 0.51117 0.0
C578 C 0.71789 0.79037 0.52852 0.0
C579 C 0.73104 0.77539 0.58243 0.0
H580 H 0.01657 0.7546 0.88704 0.0
H581 H 0.91006 0.7081 1.0202 0.0
H582 H 0.96013 0.736 0.11109 0.0
H583 H 0.03441 0.77331 0.15479 0.0
H584 H 0.14165 0.82408 1.02279 0.0
H585 H 0.09171 0.79523 0.93111 0.0
C586 C 1.00416 0.75033 0.93593 0.0
C587 C 0.95879 0.72841 0.94573 0.0
C588 C 0.03365 0.76742 0.98898 0.0
C589 C 0.94421 0.72435 1.01007 0.0
C590 C 0.97309 0.74041 0.06255 0.0
C591 C 0.04715 0.77807 0.10605 0.0
C592 C 0.09251 0.80076 0.09686 0.0
C593 C 0.01792 0.76191 0.05291 0.0
C594 C 0.10745 0.80677 1.03247 0.0
C595 C 0.07863 0.7901 0.97963 0.0
H596 H 0.26528 0.01326 0.67477 0.0
H597 H 0.30863 0.12365 0.55079 0.0
H598 H 0.28915 0.07738 0.45541 0.0
H599 H 0.25888 1.00467 0.40476 0.0
H600 H 0.21249 0.8941 0.52906 0.0
H601 H 0.23382 0.94058 0.62428 0.0
C602 C 0.27066 0.02744 0.62699 0.0
C603 C 0.28892 0.07275 0.62143 0.0
C604 C 0.25869 1.00014 0.57117 0.0
C605 C 0.29488 0.08945 0.55804 0.0
C606 C 0.28367 0.06274 0.50284 0.0
C607 C 0.25367 0.99058 0.45257 0.0
C608 C 0.23415 0.94515 0.45833 0.0
C609 C 0.2655 0.0179 0.50839 0.0
C610 C 0.22738 0.92841 0.52174 0.0
C611 C 0.23965 0.95524 0.57683 0.0
H612 H 0.67174 0.6111 0.94836 0.0
H613 H 0.76961 0.61016 0.06756 0.0
H614 H 0.74402 0.63249 0.16081 0.0
H615 H 0.71524 0.67878 0.19224 0.0
H616 H 0.6306 0.69531 0.06251 0.0
H617 H 0.62952 0.64143 0.98962 0.0
C618 C 0.68634 0.61418 0.99545 0.0
C619 C 0.72431 0.61236 1.00063 0.0
C620 C 0.67496 0.63204 1.04619 0.0
C621 C 0.74143 0.61351 0.06209 0.0
C622 C 0.72726 0.62699 0.11515 0.0
C623 C 0.69557 0.66956 0.14895 0.0
C624 C 0.67466 0.69201 0.13071 0.0
C625 C 0.69753 0.64092 0.10546 0.0
C626 C 0.6483 0.67935 0.07574 0.0
C627 C 0.6475 0.64844 1.03438 0.0
H628 H 0.08227 0.70555 0.47803 0.0
H629 H 0.99022 0.70337 0.34194 0.0
H630 H 0.93124 0.65268 0.41015 0.0
H631 H 0.90986 0.63374 0.52234 0.0
H632 H 1.00412 0.64878 0.6647 0.0
H633 H 0.05768 0.66703 0.58003 0.0
C634 C 0.04923 0.69302 0.46269 0.0
C635 C 0.04008 0.7099 0.40799 0.0
C636 C 0.01589 0.66622 0.50381 0.0
C637 C 0.99763 0.69201 0.38591 0.0
C638 C 0.96397 0.66303 0.42476 0.0
C639 C 0.9417 0.63946 0.5344 0.0
C640 C 0.95441 0.64316 0.59915 0.0
C641 C 0.97305 0.65358 0.48645 0.0
C642 C 0.99462 0.64804 0.61477 0.0
C643 C 0.02527 0.6587 0.5665 0.0
H644 H 0.41418 0.08767 1.00096 0.0
H645 H 0.34536 0.99151 0.85564 0.0
H646 H 0.33833 0.93555 0.92915 0.0
H647 H 0.32282 0.9153 1.04277 0.0
H648 H 0.37902 0.01235 0.19071 0.0
H649 H 0.42175 0.06595 0.10973 0.0
C650 C 0.39938 0.0546 0.98471 0.0
C651 C 0.37746 0.04284 0.9256 0.0
C652 C 0.39238 0.02251 1.02896 0.0
C653 C 0.36067 1.00076 0.9026 0.0
C654 C 0.35635 0.9687 0.94486 0.0
C655 C 0.34587 0.94782 0.05739 0.0
C656 C 0.34555 0.96107 0.12106 0.0
C657 C 0.36733 0.97899 1.01005 0.0
C658 C 0.37721 1.00221 0.14091 0.0
C659 C 0.40145 0.03295 0.09452 0.0
H660 H 0.38458 0.30017 0.56962 0.0
H661 H 0.33039 0.34152 0.72048 0.0
H662 H 0.32624 0.39202 0.64638 0.0
H663 H 0.31284 0.40148 0.53378 0.0
H664 H 0.35673 0.35056 0.38163 0.0
H665 H 0.39274 0.32928 0.46058 0.0
C666 C 0.37308 0.32124 0.58649 0.0
C667 C 0.35527 0.31572 0.64833 0.0
C668 C 0.36888 0.34841 0.54301 0.0
C669 C 0.3426 0.34434 0.6717 0.0
C670 C 0.34025 0.37317 0.62945 0.0
C671 C 0.33175 0.38725 0.51788 0.0
C672 C 0.3297 0.37446 0.45342 0.0
C673 C 0.3493 0.37214 0.56378 0.0
C674 C 0.35624 0.35862 0.43201 0.0
C675 C 0.37654 0.34613 0.47713 0.0
H676 H 0.10279 0.40736 0.06077 0.0
H677 H 1.00645 0.35691 0.21059 0.0
H678 H 0.95006 0.33662 0.13032 0.0
H679 H 0.93024 0.30586 1.02193 0.0
H680 H 0.02778 0.3444 0.87447 0.0
H681 H 0.08116 0.39696 0.94773 0.0
C682 C 0.06952 0.3936 0.07585 0.0
C683 C 0.058 0.38017 0.13995 0.0
C684 C 0.03733 0.3783 1.02908 0.0
C685 C 0.01559 0.36529 0.16045 0.0
C686 C 0.98328 0.35322 0.11446 0.0
C687 C 0.96292 0.32675 1.00536 0.0
C688 C 0.97614 0.31958 0.94514 0.0
C689 C 0.99379 0.35482 0.04886 0.0
C690 C 0.01764 0.34814 0.92222 0.0
C691 C 0.04813 0.37824 0.96401 0.0
H692 H 0.66585 0.02665 0.65717 0.0
H693 H 0.73449 0.12868 0.51957 0.0
H694 H 0.70126 0.07829 0.43035 0.0
H695 H 0.67491 1.00448 0.3965 0.0
H696 H 0.62009 0.90236 0.53733 0.0
H697 H 0.62466 0.95286 0.62005 0.0
C698 C 0.67213 0.03811 0.6076 0.0
C699 C 0.70382 0.08053 0.59431 0.0
C700 C 0.65626 0.00839 0.55722 0.0
C701 C 0.71103 0.0956 0.53039 0.0
C702 C 0.69236 0.06675 0.47952 0.0
C703 C 0.66271 0.99309 0.44482 0.0
C704 C 0.64908 0.9505 0.46208 0.0
C705 C 0.66841 0.02271 0.49282 0.0
C706 C 0.63215 0.93556 0.52396 0.0
C707 C 0.63478 0.96439 0.57115 0.0
loop_
_geom_bond_atom_site_label_1
_geom_bond_atom_site_label_2
_geom_bond_distance
_geom_bond_site_symmetry_2
_ccdc_geom_bond_type
Cd0 N3 2.334 . S
Cd0 N29 2.304 . S
Cd0 O36 2.268 . S
Cd0 O39 2.273 . S
Cd0 O40 2.417 . S
Cd0 O41 2.330 . S
Cd1 N16 2.304 . S
Cd1 N20 2.334 . S
Cd1 O37 2.273 . S
Cd1 O38 2.268 . S
Cd1 O42 2.417 . S
Cd1 O43 2.330 . S
C2 N3 1.332 . S
C2 C6 1.381 . S
C2 H8 0.931 . S
N3 Cd0 2.334 . S
N3 C2 1.332 . S
N3 C7 1.328 . S
C4 C5 1.396 . S
C4 C7 1.378 . S
C4 H46 0.931 . S
C5 C4 1.396 . S
C5 C6 1.382 . S
C6 C2 1.381 . S
C6 C5 1.382 . S
C6 H47 0.930 1_455 S
C7 N3 1.328 . S
C7 C4 1.378 . S
C7 H9 0.930 . S
H8 C2 0.931 . S
H9 C7 0.930 . S
C10 O36 1.238 . S
C10 O37 1.253 . S
C11 C12 1.379 . S
C11 N16 1.337 . S
C11 H17 0.929 . S
C12 C11 1.379 . S
C12 C13 1.380 . S
C12 H48 0.929 . S
C13 C12 1.380 . S
C13 C14 1.399 . S
C14 C13 1.399 . S
C14 C15 1.376 . S
C14 H49 0.931 . S
C15 C14 1.376 . S
C15 N16 1.338 . S
C15 H18 0.930 . S
N16 Cd1 2.304 . S
N16 C11 1.337 . S
N16 C15 1.338 . S
H17 C11 0.929 . S
H18 C15 0.930 . S
C19 N20 1.332 . S
C19 C23 1.381 . S
C19 H25 0.931 . S
N20 Cd1 2.334 . S
N20 C19 1.332 . S
N20 C24 1.328 . S
C21 C22 1.396 . S
C21 C24 1.378 . S
C21 H50 0.931 . S
C22 C21 1.396 . S
C22 C23 1.382 . S
C23 C19 1.381 . S
C23 C22 1.382 . S
C23 H51 0.930 . S
C24 N20 1.328 . S
C24 C21 1.378 . S
C24 H26 0.930 . S
H25 C19 0.931 . S
H26 C24 0.930 . S
C27 O38 1.238 . S
C27 O39 1.253 . S
C28 O40 1.239 . S
C28 O41 1.230 . S
N29 Cd0 2.304 . S
N29 C30 1.337 . S
N29 C34 1.338 . S
C30 N29 1.337 . S
C30 C31 1.379 . S
C30 H44 0.929 . S
C31 C30 1.379 . S
C31 C32 1.380 . S
C31 H52 0.929 . S
C32 C31 1.380 . S
C32 C33 1.399 . S
C33 C32 1.399 . S
C33 C34 1.376 . S
C33 H53 0.931 . S
C34 N29 1.338 . S
C34 C33 1.376 . S
C34 H45 0.930 . S
C35 O42 1.239 . S
C35 O43 1.230 . S
O36 Cd0 2.268 . S
O36 C10 1.238 . S
O37 Cd1 2.273 . S
O37 C10 1.253 . S
O38 Cd1 2.268 . S
O38 C27 1.238 . S
O39 Cd0 2.273 . S
O39 C27 1.253 . S
O40 Cd0 2.417 . S
O40 C28 1.239 . S
O41 Cd0 2.330 . S
O41 C28 1.230 . S
O42 Cd1 2.417 . S
O42 C35 1.239 . S
O43 Cd1 2.330 . S
O43 C35 1.230 . S
H44 C30 0.929 . S
H45 C34 0.930 . S
H46 C4 0.931 . S
H47 C6 0.930 1_655 S
H48 C12 0.929 . S
H49 C14 0.931 . S
H50 C21 0.931 . S
H51 C23 0.930 . S
H52 C31 0.929 . S
H53 C33 0.931 . S
Cd54 N57 2.334 . S
Cd54 N83 2.304 . S
Cd54 O90 2.268 . S
Cd54 O93 2.273 . S
Cd54 O94 2.417 . S
Cd54 O95 2.330 . S
Cd55 N70 2.304 . S
Cd55 N74 2.334 . S
Cd55 O91 2.273 . S
Cd55 O92 2.268 . S
Cd55 O96 2.417 . S
Cd55 O97 2.330 . S
C56 N57 1.332 . S
C56 C60 1.381 . S
C56 H62 0.931 . S
N57 Cd54 2.334 . S
N57 C56 1.332 . S
N57 C61 1.328 . S
C58 C59 1.396 . S
C58 C61 1.378 . S
C58 H100 0.931 . S
C59 C58 1.396 . S
C59 C60 1.382 . S
C60 C56 1.381 . S
C60 C59 1.382 . S
C60 H101 0.930 1_655 S
C61 N57 1.328 . S
C61 C58 1.378 . S
C61 H63 0.930 . S
H62 C56 0.931 . S
H63 C61 0.930 . S
C64 O90 1.238 . S
C64 O91 1.253 . S
C65 C66 1.379 . S
C65 N70 1.337 . S
C65 H71 0.929 . S
C66 C65 1.379 . S
C66 C67 1.380 . S
C66 H102 0.929 . S
C67 C66 1.380 . S
C67 C68 1.399 . S
C68 C67 1.399 . S
C68 C69 1.376 . S
C68 H103 0.931 . S
C69 C68 1.376 . S
C69 N70 1.338 . S
C69 H72 0.930 . S
N70 Cd55 2.304 . S
N70 C65 1.337 . S
N70 C69 1.338 . S
H71 C65 0.929 . S
H72 C69 0.930 . S
C73 N74 1.332 . S
C73 C77 1.381 . S
C73 H79 0.931 . S
N74 Cd55 2.334 . S
N74 C73 1.332 . S
N74 C78 1.328 . S
C75 C76 1.396 . S
C75 C78 1.378 . S
C75 H104 0.931 . S
C76 C75 1.396 . S
C76 C77 1.382 . S
C77 C73 1.381 . S
C77 C76 1.382 . S
C77 H105 0.930 1_545 S
C78 N74 1.328 . S
C78 C75 1.378 . S
C78 H80 0.930 . S
H79 C73 0.931 . S
H80 C78 0.930 . S
C81 O92 1.238 . S
C81 O93 1.253 . S
C82 O94 1.239 . S
C82 O95 1.230 . S
N83 Cd54 2.304 . S
N83 C84 1.337 . S
N83 C88 1.338 . S
C84 N83 1.337 . S
C84 C85 1.379 . S
C84 H98 0.929 . S
C85 C84 1.379 . S
C85 C86 1.380 . S
C85 H106 0.929 . S
C86 C85 1.380 . S
C86 C87 1.399 . S
C87 C86 1.399 . S
C87 C88 1.376 . S
C87 H107 0.931 . S
C88 N83 1.338 . S
C88 C87 1.376 . S
C88 H99 0.930 . S
C89 O96 1.239 . S
C89 O97 1.230 . S
O90 Cd54 2.268 . S
O90 C64 1.238 . S
O91 Cd55 2.273 . S
O91 C64 1.253 . S
O92 Cd55 2.268 . S
O92 C81 1.238 . S
O93 Cd54 2.273 . S
O93 C81 1.253 . S
O94 Cd54 2.417 . S
O94 C82 1.239 . S
O95 Cd54 2.330 . S
O95 C82 1.230 . S
O96 Cd55 2.417 . S
O96 C89 1.239 . S
O97 Cd55 2.330 . S
O97 C89 1.230 . S
H98 C84 0.929 . S
H99 C88 0.930 . S
H100 C58 0.931 . S
H101 C60 0.930 1_455 S
H102 C66 0.929 . S
H103 C68 0.931 . S
H104 C75 0.931 . S
H105 C77 0.930 1_565 S
H106 C85 0.929 . S
H107 C87 0.931 . S
Cd108 N111 2.334 . S
Cd108 N137 2.304 . S
Cd108 O144 2.268 . S
Cd108 O147 2.273 . S
Cd108 O148 2.417 . S
Cd108 O149 2.330 . S
Cd109 N124 2.304 . S
Cd109 N128 2.334 . S
Cd109 O145 2.273 . S
Cd109 O146 2.268 . S
Cd109 O150 2.417 . S
Cd109 O151 2.330 . S
C110 N111 1.332 . S
C110 C114 1.381 . S
C110 H116 0.931 . S
N111 Cd108 2.334 . S
N111 C110 1.332 . S
N111 C115 1.328 . S
C112 C113 1.396 . S
C112 C115 1.378 . S
C112 H154 0.931 . S
C113 C112 1.396 . S
C113 C114 1.382 . S
C114 C110 1.381 . S
C114 C113 1.382 . S
C114 H155 0.930 . S
C115 N111 1.328 . S
C115 C112 1.378 . S
C115 H117 0.930 . S
H116 C110 0.931 . S
H117 C115 0.930 . S
C118 O144 1.238 . S
C118 O145 1.253 . S
C119 C120 1.379 . S
C119 N124 1.337 . S
C119 H125 0.929 . S
C120 C119 1.379 . S
C120 C121 1.380 . S
C120 H156 0.929 . S
C121 C120 1.380 . S
C121 C122 1.399 . S
C122 C121 1.399 . S
C122 C123 1.376 . S
C122 H157 0.931 . S
C123 C122 1.376 . S
C123 N124 1.338 . S
C123 H126 0.930 . S
N124 Cd109 2.304 . S
N124 C119 1.337 . S
N124 C123 1.338 . S
H125 C119 0.929 . S
H126 C123 0.930 . S
C127 N128 1.332 . S
C127 C131 1.381 . S
C127 H133 0.931 . S
N128 Cd109 2.334 . S
N128 C127 1.332 . S
N128 C132 1.328 . S
C129 C130 1.396 . S
C129 C132 1.378 . S
C129 H158 0.931 . S
C130 C129 1.396 . S
C130 C131 1.382 . S
C131 C127 1.381 . S
C131 C130 1.382 . S
C131 H159 0.930 1_565 S
C132 N128 1.328 . S
C132 C129 1.378 . S
C132 H134 0.930 . S
H133 C127 0.931 . S
H134 C132 0.930 . S
C135 O146 1.238 . S
C135 O147 1.253 . S
C136 O148 1.239 . S
C136 O149 1.230 . S
N137 Cd108 2.304 . S
N137 C138 1.337 . S
N137 C142 1.338 . S
C138 N137 1.337 . S
C138 C139 1.379 . S
C138 H152 0.929 . S
C139 C138 1.379 . S
C139 C140 1.380 . S
C139 H160 0.929 . S
C140 C139 1.380 . S
C140 C141 1.399 . S
C141 C140 1.399 . S
C141 C142 1.376 . S
C141 H161 0.931 . S
C142 N137 1.338 . S
C142 C141 1.376 . S
C142 H153 0.930 . S
C143 O150 1.239 . S
C143 O151 1.230 . S
O144 Cd108 2.268 . S
O144 C118 1.238 . S
O145 Cd109 2.273 . S
O145 C118 1.253 . S
O146 Cd109 2.268 . S
O146 C135 1.238 . S
O147 Cd108 2.273 . S
O147 C135 1.253 . S
O148 Cd108 2.417 . S
O148 C136 1.239 . S
O149 Cd108 2.330 . S
O149 C136 1.230 . S
O150 Cd109 2.417 . S
O150 C143 1.239 . S
O151 Cd109 2.330 . S
O151 C143 1.230 . S
H152 C138 0.929 . S
H153 C142 0.930 . S
H154 C112 0.931 . S
H155 C114 0.930 . S
H156 C120 0.929 . S
H157 C122 0.931 . S
H158 C129 0.931 . S
H159 C131 0.930 1_545 S
H160 C139 0.929 . S
H161 C141 0.931 . S
Cd162 N165 2.334 . S
Cd162 N191 2.304 . S
Cd162 O198 2.268 . S
Cd162 O201 2.273 . S
Cd162 O202 2.417 . S
Cd162 O203 2.330 . S
Cd163 N178 2.304 . S
Cd163 N182 2.334 . S
Cd163 O199 2.273 . S
Cd163 O200 2.268 . S
Cd163 O204 2.417 . S
Cd163 O205 2.330 . S
C164 N165 1.332 . S
C164 C168 1.381 . S
C164 H170 0.931 . S
N165 Cd162 2.334 . S
N165 C164 1.332 . S
N165 C169 1.328 . S
C166 C167 1.396 . S
C166 C169 1.378 . S
C166 H208 0.931 . S
C167 C166 1.396 . S
C167 C168 1.382 . S
C168 C164 1.381 . S
C168 C167 1.382 . S
C168 H209 0.930 . S
C169 N165 1.328 . S
C169 C166 1.378 . S
C169 H171 0.930 . S
H170 C164 0.931 . S
H171 C169 0.930 . S
C172 O198 1.238 . S
C172 O199 1.253 . S
C173 C174 1.379 . S
C173 N178 1.337 . S
C173 H179 0.929 . S
C174 C173 1.379 . S
C174 C175 1.380 . S
C174 H210 0.929 . S
C175 C174 1.380 . S
C175 C176 1.399 . S
C176 C175 1.399 . S
C176 C177 1.376 . S
C176 H211 0.931 . S
C177 C176 1.376 . S
C177 N178 1.338 . S
C177 H180 0.930 . S
N178 Cd163 2.304 . S
N178 C173 1.337 . S
N178 C177 1.338 . S
H179 C173 0.929 . S
H180 C177 0.930 . S
C181 N182 1.332 . S
C181 C185 1.381 . S
C181 H187 0.931 . S
N182 Cd163 2.334 . S
N182 C181 1.332 . S
N182 C186 1.328 . S
C183 C184 1.396 . S
C183 C186 1.378 . S
C183 H212 0.931 . S
C184 C183 1.396 . S
C184 C185 1.382 . S
C185 C181 1.381 . S
C185 C184 1.382 . S
C185 H213 0.930 1_655 S
C186 N182 1.328 . S
C186 C183 1.378 . S
C186 H188 0.930 . S
H187 C181 0.931 . S
H188 C186 0.930 . S
C189 O200 1.238 . S
C189 O201 1.253 . S
C190 O202 1.239 . S
C190 O203 1.230 . S
N191 Cd162 2.304 . S
N191 C192 1.337 . S
N191 C196 1.338 . S
C192 N191 1.337 . S
C192 C193 1.379 . S
C192 H206 0.929 . S
C193 C192 1.379 . S
C193 C194 1.380 . S
C193 H214 0.929 . S
C194 C193 1.380 . S
C194 C195 1.399 . S
C195 C194 1.399 . S
C195 C196 1.376 . S
C195 H215 0.931 . S
C196 N191 1.338 . S
C196 C195 1.376 . S
C196 H207 0.930 . S
C197 O204 1.239 . S
C197 O205 1.230 . S
O198 Cd162 2.268 . S
O198 C172 1.238 . S
O199 Cd163 2.273 . S
O199 C172 1.253 . S
O200 Cd163 2.268 . S
O200 C189 1.238 . S
O201 Cd162 2.273 . S
O201 C189 1.253 . S
O202 Cd162 2.417 . S
O202 C190 1.239 . S
O203 Cd162 2.330 . S
O203 C190 1.230 . S
O204 Cd163 2.417 . S
O204 C197 1.239 . S
O205 Cd163 2.330 . S
O205 C197 1.230 . S
H206 C192 0.929 . S
H207 C196 0.930 . S
H208 C166 0.931 . S
H209 C168 0.930 . S
H210 C174 0.929 . S
H211 C176 0.931 . S
H212 C183 0.931 . S
H213 C185 0.930 1_455 S
H214 C193 0.929 . S
H215 C195 0.931 . S
Cd216 N219 2.334 . S
Cd216 N245 2.304 . S
Cd216 O252 2.268 . S
Cd216 O255 2.273 . S
Cd216 O256 2.417 . S
Cd216 O257 2.330 . S
Cd217 N232 2.304 . S
Cd217 N236 2.334 . S
Cd217 O253 2.273 . S
Cd217 O254 2.268 . S
Cd217 O258 2.417 . S
Cd217 O259 2.330 . S
C218 N219 1.332 . S
C218 C222 1.381 . S
C218 H224 0.931 . S
N219 Cd216 2.334 . S
N219 C218 1.332 . S
N219 C223 1.328 . S
C220 C221 1.396 . S
C220 C223 1.378 . S
C220 H262 0.931 . S
C221 C220 1.396 . S
C221 C222 1.382 . S
C222 C218 1.381 . S
C222 C221 1.382 . S
C222 H263 0.930 1_565 S
C223 N219 1.328 . S
C223 C220 1.378 . S
C223 H225 0.930 . S
H224 C218 0.931 . S
H225 C223 0.930 . S
C226 O252 1.238 . S
C226 O253 1.253 . S
C227 C228 1.379 . S
C227 N232 1.337 . S
C227 H233 0.929 . S
C228 C227 1.379 . S
C228 C229 1.380 . S
C228 H264 0.929 . S
C229 C228 1.380 . S
C229 C230 1.399 . S
C230 C229 1.399 . S
C230 C231 1.376 . S
C230 H265 0.931 . S
C231 C230 1.376 . S
C231 N232 1.338 . S
C231 H234 0.930 . S
N232 Cd217 2.304 . S
N232 C227 1.337 . S
N232 C231 1.338 . S
H233 C227 0.929 . S
H234 C231 0.930 . S
C235 N236 1.332 . S
C235 C239 1.381 . S
C235 H241 0.931 . S
N236 Cd217 2.334 . S
N236 C235 1.332 . S
N236 C240 1.328 . S
C237 C238 1.396 . S
C237 C240 1.378 . S
C237 H266 0.931 . S
C238 C237 1.396 . S
C238 C239 1.382 . S
C239 C235 1.381 . S
C239 C238 1.382 . S
C239 H267 0.930 1_455 S
C240 N236 1.328 . S
C240 C237 1.378 . S
C240 H242 0.930 . S
H241 C235 0.931 . S
H242 C240 0.930 . S
C243 O254 1.238 . S
C243 O255 1.253 . S
C244 O256 1.239 . S
C244 O257 1.230 . S
N245 Cd216 2.304 . S
N245 C246 1.337 . S
N245 C250 1.338 . S
C246 N245 1.337 . S
C246 C247 1.379 . S
C246 H260 0.929 . S
C247 C246 1.379 . S
C247 C248 1.380 . S
C247 H268 0.929 . S
C248 C247 1.380 . S
C248 C249 1.399 . S
C249 C248 1.399 . S
C249 C250 1.376 . S
C249 H269 0.931 . S
C250 N245 1.338 . S
C250 C249 1.376 . S
C250 H261 0.930 . S
C251 O258 1.239 . S
C251 O259 1.230 . S
O252 Cd216 2.268 . S
O252 C226 1.238 . S
O253 Cd217 2.273 . S
O253 C226 1.253 . S
O254 Cd217 2.268 . S
O254 C243 1.238 . S
O255 Cd216 2.273 . S
O255 C243 1.253 . S
O256 Cd216 2.417 . S
O256 C244 1.239 . S
O257 Cd216 2.330 . S
O257 C244 1.230 . S
O258 Cd217 2.417 . S
O258 C251 1.239 . S
O259 Cd217 2.330 . S
O259 C251 1.230 . S
H260 C246 0.929 . S
H261 C250 0.930 . S
H262 C220 0.931 . S
H263 C222 0.930 1_545 S
H264 C228 0.929 . S
H265 C230 0.931 . S
H266 C237 0.931 . S
H267 C239 0.930 1_655 S
H268 C247 0.929 . S
H269 C249 0.931 . S
Cd270 N273 2.334 . S
Cd270 N299 2.304 . S
Cd270 O306 2.268 . S
Cd270 O309 2.273 . S
Cd270 O310 2.417 . S
Cd270 O311 2.330 . S
Cd271 N286 2.304 . S
Cd271 N290 2.334 . S
Cd271 O307 2.273 . S
Cd271 O308 2.268 . S
Cd271 O312 2.417 . S
Cd271 O313 2.330 . S
C272 N273 1.332 . S
C272 C276 1.381 . S
C272 H278 0.931 . S
N273 Cd270 2.334 . S
N273 C272 1.332 . S
N273 C277 1.328 . S
C274 C275 1.396 . S
C274 C277 1.378 . S
C274 H316 0.931 . S
C275 C274 1.396 . S
C275 C276 1.382 . S
C276 C272 1.381 . S
C276 C275 1.382 . S
C276 H317 0.930 1_545 S
C277 N273 1.328 . S
C277 C274 1.378 . S
C277 H279 0.930 . S
H278 C272 0.931 . S
H279 C277 0.930 . S
C280 O306 1.238 . S
C280 O307 1.253 . S
C281 C282 1.379 . S
C281 N286 1.337 . S
C281 H287 0.929 . S
C282 C281 1.379 . S
C282 C283 1.380 . S
C282 H318 0.929 . S
C283 C282 1.380 . S
C283 C284 1.399 . S
C284 C283 1.399 . S
C284 C285 1.376 . S
C284 H319 0.931 . S
C285 C284 1.376 . S
C285 N286 1.338 . S
C285 H288 0.930 . S
N286 Cd271 2.304 . S
N286 C281 1.337 . S
N286 C285 1.338 . S
H287 C281 0.929 . S
H288 C285 0.930 . S
C289 N290 1.332 . S
C289 C293 1.381 . S
C289 H295 0.931 . S
N290 Cd271 2.334 . S
N290 C289 1.332 . S
N290 C294 1.328 . S
C291 C292 1.396 . S
C291 C294 1.378 . S
C291 H320 0.931 . S
C292 C291 1.396 . S
C292 C293 1.382 . S
C293 C289 1.381 . S
C293 C292 1.382 . S
C293 H321 0.930 . S
C294 N290 1.328 . S
C294 C291 1.378 . S
C294 H296 0.930 . S
H295 C289 0.931 . S
H296 C294 0.930 . S
C297 O308 1.238 . S
C297 O309 1.253 . S
C298 O310 1.239 . S
C298 O311 1.230 . S
N299 Cd270 2.304 . S
N299 C300 1.337 . S
N299 C304 1.338 . S
C300 N299 1.337 . S
C300 C301 1.379 . S
C300 H314 0.929 . S
C301 C300 1.379 . S
C301 C302 1.380 . S
C301 H322 0.929 . S
C302 C301 1.380 . S
C302 C303 1.399 . S
C303 C302 1.399 . S
C303 C304 1.376 . S
C303 H323 0.931 . S
C304 N299 1.338 . S
C304 C303 1.376 . S
C304 H315 0.930 . S
C305 O312 1.239 . S
C305 O313 1.230 . S
O306 Cd270 2.268 . S
O306 C280 1.238 . S
O307 Cd271 2.273 . S
O307 C280 1.253 . S
O308 Cd271 2.268 . S
O308 C297 1.238 . S
O309 Cd270 2.273 . S
O309 C297 1.253 . S
O310 Cd270 2.417 . S
O310 C298 1.239 . S
O311 Cd270 2.330 . S
O311 C298 1.230 . S
O312 Cd271 2.417 . S
O312 C305 1.239 . S
O313 Cd271 2.330 . S
O313 C305 1.230 . S
H314 C300 0.929 . S
H315 C304 0.930 . S
H316 C274 0.931 . S
H317 C276 0.930 1_565 S
H318 C282 0.929 . S
H319 C284 0.931 . S
H320 C291 0.931 . S
H321 C293 0.930 . S
H322 C301 0.929 . S
H323 C303 0.931 . S
H324 C330 0.930 . S
H325 C333 0.930 . S
H326 C334 0.930 . S
H327 C335 0.930 . S
H328 C338 0.930 . S
H329 C339 0.930 . S
C330 H324 0.930 . S
C330 C331 1.355 . S
C330 C332 1.415 . S
C331 C330 1.355 . S
C331 C333 1.419 . S
C332 C330 1.415 . S
C332 C337 1.425 . S
C332 C339 1.409 . S
C333 H325 0.930 . S
C333 C331 1.419 . S
C333 C334 1.362 . S
C334 H326 0.930 . S
C334 C333 1.362 . S
C334 C337 1.409 . S
C335 H327 0.930 . S
C335 C336 1.355 . S
C335 C337 1.415 . S
C336 C335 1.355 . S
C336 C338 1.419 . S
C337 C332 1.425 . S
C337 C334 1.409 . S
C337 C335 1.415 . S
C338 H328 0.930 . S
C338 C336 1.419 . S
C338 C339 1.362 . S
C339 H329 0.930 . S
C339 C332 1.409 . S
C339 C338 1.362 . S
H340 C346 0.930 . S
H341 C349 0.930 . S
H342 C350 0.930 . S
H343 C351 0.930 . S
H344 C354 0.930 . S
H345 C355 0.930 . S
C346 H340 0.930 . S
C346 C347 1.355 . S
C346 C348 1.415 . S
C347 C346 1.355 . S
C347 C349 1.419 . S
C348 C346 1.415 . S
C348 C353 1.425 . S
C348 C355 1.409 . S
C349 H341 0.930 . S
C349 C347 1.419 . S
C349 C350 1.362 . S
C350 H342 0.930 . S
C350 C349 1.362 . S
C350 C353 1.409 . S
C351 H343 0.930 . S
C351 C352 1.355 . S
C351 C353 1.415 . S
C352 C351 1.355 . S
C352 C354 1.419 . S
C353 C348 1.425 . S
C353 C350 1.409 . S
C353 C351 1.415 . S
C354 H344 0.930 . S
C354 C352 1.419 . S
C354 C355 1.362 . S
C355 H345 0.930 . S
C355 C348 1.409 . S
C355 C354 1.362 . S
H356 C362 0.930 . S
H357 C365 0.930 . S
H358 C366 0.930 . S
H359 C367 0.930 . S
H360 C370 0.930 . S
H361 C371 0.930 . S
C362 H356 0.930 . S
C362 C363 1.355 . S
C362 C364 1.415 . S
C363 C362 1.355 . S
C363 C365 1.419 . S
C364 C362 1.415 . S
C364 C369 1.425 . S
C364 C371 1.409 . S
C365 H357 0.930 . S
C365 C363 1.419 . S
C365 C366 1.362 . S
C366 H358 0.930 . S
C366 C365 1.362 . S
C366 C369 1.409 . S
C367 H359 0.930 . S
C367 C368 1.355 . S
C367 C369 1.415 . S
C368 C367 1.355 . S
C368 C370 1.419 . S
C369 C364 1.425 . S
C369 C366 1.409 . S
C369 C367 1.415 . S
C370 H360 0.930 . S
C370 C368 1.419 . S
C370 C371 1.362 . S
C371 H361 0.930 . S
C371 C364 1.409 . S
C371 C370 1.362 . S
H372 C378 0.930 . S
H373 C381 0.930 . S
H374 C382 0.930 . S
H375 C383 0.930 . S
H376 C386 0.930 . S
H377 C387 0.930 . S
C378 H372 0.930 . S
C378 C379 1.355 . S
C378 C380 1.415 . S
C379 C378 1.355 . S
C379 C381 1.419 . S
C380 C378 1.415 . S
C380 C385 1.425 . S
C380 C387 1.409 . S
C381 H373 0.930 . S
C381 C379 1.419 . S
C381 C382 1.362 . S
C382 H374 0.930 . S
C382 C381 1.362 . S
C382 C385 1.409 . S
C383 H375 0.930 . S
C383 C384 1.355 . S
C383 C385 1.415 . S
C384 C383 1.355 . S
C384 C386 1.419 . S
C385 C380 1.425 . S
C385 C382 1.409 . S
C385 C383 1.415 . S
C386 H376 0.930 . S
C386 C384 1.419 . S
C386 C387 1.362 . S
C387 H377 0.930 . S
C387 C380 1.409 . S
C387 C386 1.362 . S
H388 C394 0.930 . S
H389 C397 0.930 . S
H390 C398 0.930 . S
H391 C399 0.930 . S
H392 C402 0.930 . S
H393 C403 0.930 . S
C394 H388 0.930 . S
C394 C395 1.355 . S
C394 C396 1.415 . S
C395 C394 1.355 . S
C395 C397 1.419 . S
C396 C394 1.415 . S
C396 C401 1.425 . S
C396 C403 1.409 . S
C397 H389 0.930 . S
C397 C395 1.419 . S
C397 C398 1.362 . S
C398 H390 0.930 . S
C398 C397 1.362 . S
C398 C401 1.409 . S
C399 H391 0.930 . S
C399 C400 1.355 . S
C399 C401 1.415 . S
C400 C399 1.355 . S
C400 C402 1.419 . S
C401 C396 1.425 . S
C401 C398 1.409 . S
C401 C399 1.415 . S
C402 H392 0.930 . S
C402 C400 1.419 . S
C402 C403 1.362 . S
C403 H393 0.930 . S
C403 C396 1.409 . S
C403 C402 1.362 . S
H404 C410 0.930 . S
H405 C413 0.930 . S
H406 C414 0.930 . S
H407 C415 0.930 . S
H408 C418 0.930 . S
H409 C419 0.930 . S
C410 H404 0.930 . S
C410 C411 1.355 . S
C410 C412 1.415 . S
C411 C410 1.355 . S
C411 C413 1.419 . S
C412 C410 1.415 . S
C412 C417 1.425 . S
C412 C419 1.409 . S
C413 H405 0.930 . S
C413 C411 1.419 . S
C413 C414 1.362 . S
C414 H406 0.930 . S
C414 C413 1.362 . S
C414 C417 1.409 . S
C415 H407 0.930 . S
C415 C416 1.355 . S
C415 C417 1.415 . S
C416 C415 1.355 . S
C416 C418 1.419 . S
C417 C412 1.425 . S
C417 C414 1.409 . S
C417 C415 1.415 . S
C418 H408 0.930 . S
C418 C416 1.419 . S
C418 C419 1.362 . S
C419 H409 0.930 . S
C419 C412 1.409 . S
C419 C418 1.362 . S
H420 C426 0.930 . S
H421 C429 0.930 . S
H422 C430 0.930 . S
H423 C431 0.930 . S
H424 C434 0.930 . S
H425 C435 0.930 . S
C426 H420 0.930 . S
C426 C427 1.355 . S
C426 C428 1.415 . S
C427 C426 1.355 . S
C427 C429 1.419 . S
C428 C426 1.415 . S
C428 C433 1.425 . S
C428 C435 1.409 . S
C429 H421 0.930 . S
C429 C427 1.419 . S
C429 C430 1.362 . S
C430 H422 0.930 . S
C430 C429 1.362 . S
C430 C433 1.409 . S
C431 H423 0.930 . S
C431 C432 1.355 1_545 S
C431 C433 1.415 . S
C432 C431 1.355 1_565 S
C432 C434 1.419 . S
C433 C428 1.425 . S
C433 C430 1.409 . S
C433 C431 1.415 . S
C434 H424 0.930 . S
C434 C432 1.419 . S
C434 C435 1.362 1_565 S
C435 H425 0.930 . S
C435 C428 1.409 . S
C435 C434 1.362 1_545 S
H436 C442 0.930 . S
H437 C445 0.930 . S
H438 C446 0.931 1_655 S
H439 C447 0.930 . S
H440 C450 0.930 . S
H441 C451 0.930 . S
C442 H436 0.930 . S
C442 C443 1.355 1_455 S
C442 C444 1.415 . S
C443 C442 1.355 1_655 S
C443 C445 1.419 . S
C444 C442 1.415 . S
C444 C449 1.425 . S
C444 C451 1.409 . S
C445 H437 0.930 . S
C445 C443 1.419 . S
C445 C446 1.362 1_655 S
C446 H438 0.931 1_455 S
C446 C445 1.362 1_455 S
C446 C449 1.409 . S
C447 H439 0.930 . S
C447 C448 1.355 . S
C447 C449 1.415 . S
C448 C447 1.355 . S
C448 C450 1.419 . S
C449 C444 1.425 . S
C449 C446 1.409 . S
C449 C447 1.415 . S
C450 H440 0.930 . S
C450 C448 1.419 . S
C450 C451 1.362 . S
C451 H441 0.930 . S
C451 C444 1.409 . S
C451 C450 1.362 . S
H452 C458 0.930 . S
H453 C461 0.930 . S
H454 C462 0.930 . S
H455 C463 0.930 . S
H456 C466 0.930 . S
H457 C467 0.930 . S
C458 H452 0.930 . S
C458 C459 1.355 . S
C458 C460 1.415 1_455 S
C459 C458 1.355 . S
C459 C461 1.419 1_455 S
C460 C458 1.415 1_655 S
C460 C465 1.425 . S
C460 C467 1.409 . S
C461 H453 0.930 . S
C461 C459 1.419 1_655 S
C461 C462 1.362 . S
C462 H454 0.930 . S
C462 C461 1.362 . S
C462 C465 1.409 . S
C463 H455 0.930 . S
C463 C464 1.355 1_545 S
C463 C465 1.415 . S
C464 C463 1.355 1_565 S
C464 C466 1.419 . S
C465 C460 1.425 . S
C465 C462 1.409 . S
C465 C463 1.415 . S
C466 H456 0.930 . S
C466 C464 1.419 . S
C466 C467 1.362 1_565 S
C467 H457 0.930 . S
C467 C460 1.409 . S
C467 C466 1.362 1_545 S
H468 C474 0.923 1_545 S
H469 C477 0.930 . S
H470 C478 0.930 . S
H471 C479 0.930 . S
H472 C482 0.930 . S
H473 C483 0.930 . S
C474 H468 0.923 1_565 S
C474 C475 1.333 1_565 S
C474 C476 1.444 . S
C475 C474 1.333 1_545 S
C475 C477 1.419 1_545 S
C476 C474 1.444 . S
C476 C481 1.425 . S
C476 C483 1.409 . S
C477 H469 0.930 . S
C477 C475 1.419 1_565 S
C477 C478 1.362 . S
C478 H470 0.930 . S
C478 C477 1.362 . S
C478 C481 1.409 . S
C479 H471 0.930 . S
C479 C480 1.355 . S
C479 C481 1.415 . S
C480 C479 1.355 . S
C480 C482 1.419 . S
C481 C476 1.425 . S
C481 C478 1.409 . S
C481 C479 1.415 . S
C482 H472 0.930 . S
C482 C480 1.419 . S
C482 C483 1.362 . S
C483 H473 0.930 . S
C483 C476 1.409 . S
C483 C482 1.362 . S
H484 C490 0.930 . S
H485 C493 0.930 . S
H486 C494 0.930 . S
H487 C495 0.930 . S
H488 C498 0.930 . S
H489 C499 0.930 . S
C490 H484 0.930 . S
C490 C491 1.355 . S
C490 C492 1.415 . S
C491 C490 1.355 . S
C491 C493 1.419 . S
C492 C490 1.415 . S
C492 C497 1.425 . S
C492 C499 1.409 . S
C493 H485 0.930 . S
C493 C491 1.419 . S
C493 C494 1.362 . S
C494 H486 0.930 . S
C494 C493 1.362 . S
C494 C497 1.409 . S
C495 H487 0.930 . S
C495 C496 1.355 . S
C495 C497 1.415 1_455 S
C496 C495 1.355 . S
C496 C498 1.419 1_455 S
C497 C492 1.425 . S
C497 C494 1.409 . S
C497 C495 1.415 1_655 S
C498 H488 0.930 . S
C498 C496 1.419 1_655 S
C498 C499 1.362 . S
C499 H489 0.930 . S
C499 C492 1.409 . S
C499 C498 1.362 . S
H500 C506 0.931 1_545 S
H501 C509 0.930 . S
H502 C510 0.930 . S
H503 C511 0.930 . S
H504 C514 0.930 . S
H505 C515 0.930 1_655 S
C506 H500 0.931 1_565 S
C506 C507 1.354 1_565 S
C506 C508 1.413 . S
C507 C506 1.354 1_545 S
C507 C509 1.419 1_545 S
C508 C506 1.413 . S
C508 C513 1.425 . S
C508 C515 1.409 . S
C509 H501 0.930 . S
C509 C507 1.419 1_565 S
C509 C510 1.362 . S
C510 H502 0.930 . S
C510 C509 1.362 . S
C510 C513 1.409 . S
C511 H503 0.930 . S
C511 C512 1.355 1_455 S
C511 C513 1.415 . S
C512 C511 1.355 1_655 S
C512 C514 1.419 . S
C513 C508 1.425 . S
C513 C510 1.409 . S
C513 C511 1.415 . S
C514 H504 0.930 . S
C514 C512 1.419 . S
C514 C515 1.362 1_655 S
C515 H505 0.930 1_455 S
C515 C508 1.409 . S
C515 C514 1.362 1_455 S
H516 C522 0.930 . S
H517 C525 0.930 . S
H518 C526 0.930 . S
H519 C527 0.930 . S
H520 C530 0.930 . S
H521 C531 0.930 . S
C522 H516 0.930 . S
C522 C523 1.355 . S
C522 C524 1.415 . S
C523 C522 1.355 . S
C523 C525 1.419 . S
C524 C522 1.415 . S
C524 C529 1.425 1_554 S
C524 C531 1.409 . S
C525 H517 0.930 . S
C525 C523 1.419 . S
C525 C526 1.362 1_554 S
C526 H518 0.930 . S
C526 C525 1.362 1_556 S
C526 C529 1.409 . S
C527 H519 0.930 . S
C527 C528 1.355 . S
C527 C529 1.415 . S
C528 C527 1.355 . S
C528 C530 1.419 . S
C529 C524 1.425 1_556 S
C529 C526 1.409 . S
C529 C527 1.415 . S
C530 H520 0.930 . S
C530 C528 1.419 . S
C530 C531 1.362 1_556 S
C531 H521 0.930 . S
C531 C524 1.409 . S
C531 C530 1.362 1_554 S
H532 C538 0.930 . S
H533 C541 0.930 . S
H534 C542 0.930 . S
H535 C543 0.930 . S
H536 C546 0.930 . S
H537 C547 0.930 . S
C538 H532 0.930 . S
C538 C539 1.355 . S
C538 C540 1.415 1_655 S
C539 C538 1.355 . S
C539 C541 1.419 . S
C540 C538 1.415 1_455 S
C540 C545 1.425 1_455 S
C540 C547 1.409 . S
C541 H533 0.930 . S
C541 C539 1.419 . S
C541 C542 1.362 . S
C542 H534 0.930 . S
C542 C541 1.362 . S
C542 C545 1.409 . S
C543 H535 0.930 . S
C543 C544 1.355 . S
C543 C545 1.415 1_455 S
C544 C543 1.355 . S
C544 C546 1.419 . S
C545 C540 1.425 1_655 S
C545 C542 1.409 . S
C545 C543 1.415 1_655 S
C546 H536 0.930 . S
C546 C544 1.419 . S
C546 C547 1.362 . S
C547 H537 0.930 . S
C547 C540 1.409 . S
C547 C546 1.362 . S
H548 C554 0.930 . S
H549 C557 0.930 . S
H550 C558 0.930 . S
H551 C559 0.930 . S
H552 C562 0.930 . S
H553 C563 0.930 . S
C554 H548 0.930 . S
C554 C555 1.355 . S
C554 C556 1.415 1_565 S
C555 C554 1.355 . S
C555 C557 1.419 . S
C556 C554 1.415 1_545 S
C556 C561 1.425 1_544 S
C556 C563 1.409 . S
C557 H549 0.930 . S
C557 C555 1.419 . S
C557 C558 1.362 1_554 S
C558 H550 0.930 . S
C558 C557 1.362 1_556 S
C558 C561 1.409 . S
C559 H551 0.930 . S
C559 C560 1.355 . S
C559 C561 1.415 1_545 S
C560 C559 1.355 . S
C560 C562 1.419 . S
C561 C556 1.425 1_566 S
C561 C558 1.409 . S
C561 C559 1.415 1_565 S
C562 H552 0.930 . S
C562 C560 1.419 . S
C562 C563 1.362 1_556 S
C563 H553 0.930 . S
C563 C556 1.409 . S
C563 C562 1.362 1_554 S
H564 C570 0.930 . S
H565 C573 0.930 . S
H566 C574 0.930 . S
H567 C575 0.930 . S
H568 C578 0.930 . S
H569 C579 0.930 . S
C570 H564 0.930 . S
C570 C571 1.355 . S
C570 C572 1.415 . S
C571 C570 1.355 . S
C571 C573 1.419 . S
C572 C570 1.415 . S
C572 C577 1.425 . S
C572 C579 1.409 . S
C573 H565 0.930 . S
C573 C571 1.419 . S
C573 C574 1.362 . S
C574 H566 0.930 . S
C574 C573 1.362 . S
C574 C577 1.409 . S
C575 H567 0.930 . S
C575 C576 1.355 . S
C575 C577 1.415 . S
C576 C575 1.355 . S
C576 C578 1.419 . S
C577 C572 1.425 . S
C577 C574 1.409 . S
C577 C575 1.415 . S
C578 H568 0.930 . S
C578 C576 1.419 . S
C578 C579 1.362 . S
C579 H569 0.930 . S
C579 C572 1.409 . S
C579 C578 1.362 . S
H580 C586 0.930 . S
H581 C589 0.930 . S
H582 C590 0.930 . S
H583 C591 0.930 . S
H584 C594 0.930 . S
H585 C595 0.930 . S
C586 H580 0.930 . S
C586 C587 1.355 . S
C586 C588 1.415 1_655 S
C587 C586 1.355 . S
C587 C589 1.419 . S
C588 C586 1.415 1_455 S
C588 C593 1.425 1_456 S
C588 C595 1.409 . S
C589 H581 0.930 . S
C589 C587 1.419 . S
C589 C590 1.362 1_556 S
C590 H582 0.930 . S
C590 C589 1.362 1_554 S
C590 C593 1.409 . S
C591 H583 0.930 . S
C591 C592 1.355 . S
C591 C593 1.415 1_455 S
C592 C591 1.355 . S
C592 C594 1.419 . S
C593 C588 1.425 1_654 S
C593 C590 1.409 . S
C593 C591 1.415 1_655 S
C594 H584 0.930 . S
C594 C592 1.419 . S
C594 C595 1.362 1_554 S
C595 H585 0.930 . S
C595 C588 1.409 . S
C595 C594 1.362 1_556 S
H596 C602 0.930 . S
H597 C605 0.930 . S
H598 C606 0.930 . S
H599 C607 0.930 . S
H600 C610 0.930 . S
H601 C611 0.930 . S
C602 H596 0.930 . S
C602 C603 1.355 . S
C602 C604 1.415 1_545 S
C603 C602 1.355 . S
C603 C605 1.419 . S
C604 C602 1.415 1_565 S
C604 C609 1.425 1_565 S
C604 C611 1.409 . S
C605 H597 0.930 . S
C605 C603 1.419 . S
C605 C606 1.362 . S
C606 H598 0.930 . S
C606 C605 1.362 . S
C606 C609 1.409 . S
C607 H599 0.930 . S
C607 C608 1.355 . S
C607 C609 1.415 1_565 S
C608 C607 1.355 . S
C608 C610 1.419 . S
C609 C604 1.425 1_545 S
C609 C606 1.409 . S
C609 C607 1.415 1_545 S
C610 H600 0.930 . S
C610 C608 1.419 . S
C610 C611 1.362 . S
C611 H601 0.930 . S
C611 C604 1.409 . S
C611 C610 1.362 . S
H612 C618 0.930 . S
H613 C621 0.930 . S
H614 C622 0.930 . S
H615 C623 0.930 . S
H616 C626 0.930 . S
H617 C627 0.930 . S
C618 H612 0.930 . S
C618 C619 1.355 . S
C618 C620 1.415 . S
C619 C618 1.355 . S
C619 C621 1.419 . S
C620 C618 1.415 . S
C620 C625 1.425 1_556 S
C620 C627 1.409 . S
C621 H613 0.930 . S
C621 C619 1.419 . S
C621 C622 1.362 1_556 S
C622 H614 0.930 . S
C622 C621 1.362 1_554 S
C622 C625 1.409 . S
C623 H615 0.930 . S
C623 C624 1.355 . S
C623 C625 1.415 . S
C624 C623 1.355 . S
C624 C626 1.419 . S
C625 C620 1.425 1_554 S
C625 C622 1.409 . S
C625 C623 1.415 . S
C626 H616 0.930 . S
C626 C624 1.419 . S
C626 C627 1.362 1_554 S
C627 H617 0.930 . S
C627 C620 1.409 . S
C627 C626 1.362 1_556 S
H628 C634 0.930 . S
H629 C637 0.930 . S
H630 C638 0.930 . S
H631 C639 0.930 . S
H632 C642 0.930 . S
H633 C643 0.930 . S
C634 H628 0.930 . S
C634 C635 1.355 . S
C634 C636 1.415 . S
C635 C634 1.355 . S
C635 C637 1.419 . S
C636 C634 1.415 . S
C636 C641 1.425 1_455 S
C636 C643 1.409 1_455 S
C637 H629 0.930 . S
C637 C635 1.419 . S
C637 C638 1.362 . S
C638 H630 0.930 . S
C638 C637 1.362 . S
C638 C641 1.409 1_455 S
C639 H631 0.930 . S
C639 C640 1.355 . S
C639 C641 1.415 . S
C640 C639 1.355 . S
C640 C642 1.419 . S
C641 C636 1.425 1_655 S
C641 C638 1.409 1_655 S
C641 C639 1.415 . S
C642 H632 0.930 . S
C642 C640 1.419 . S
C642 C643 1.362 . S
C643 H633 0.930 . S
C643 C636 1.409 1_655 S
C643 C642 1.362 . S
H644 C650 0.930 . S
H645 C653 0.930 . S
H646 C654 0.930 . S
H647 C655 0.930 . S
H648 C658 0.930 . S
H649 C659 0.930 . S
C650 H644 0.930 . S
C650 C651 1.355 . S
C650 C652 1.415 1_556 S
C651 C650 1.355 . S
C651 C653 1.419 . S
C652 C650 1.415 1_554 S
C652 C657 1.425 1_544 S
C652 C659 1.409 . S
C653 H645 0.930 . S
C653 C651 1.419 . S
C653 C654 1.362 1_545 S
C654 H646 0.930 . S
C654 C653 1.362 1_565 S
C654 C657 1.409 . S
C655 H647 0.930 . S
C655 C656 1.355 . S
C655 C657 1.415 1_554 S
C656 C655 1.355 . S
C656 C658 1.419 . S
C657 C652 1.425 1_566 S
C657 C654 1.409 . S
C657 C655 1.415 1_556 S
C658 H648 0.930 . S
C658 C656 1.419 . S
C658 C659 1.362 1_565 S
C659 H649 0.930 . S
C659 C652 1.409 . S
C659 C658 1.362 1_545 S
H660 C666 0.930 . S
H661 C669 0.930 . S
H662 C670 0.930 . S
H663 C671 0.930 . S
H664 C674 0.930 . S
H665 C675 0.930 . S
C666 H660 0.930 . S
C666 C667 1.355 . S
C666 C668 1.415 . S
C667 C666 1.355 . S
C667 C669 1.419 . S
C668 C666 1.415 . S
C668 C673 1.425 . S
C668 C675 1.409 . S
C669 H661 0.930 . S
C669 C667 1.419 . S
C669 C670 1.362 . S
C670 H662 0.930 . S
C670 C669 1.362 . S
C670 C673 1.409 . S
C671 H663 0.930 . S
C671 C672 1.355 . S
C671 C673 1.415 . S
C672 C671 1.355 . S
C672 C674 1.419 . S
C673 C668 1.425 . S
C673 C670 1.409 . S
C673 C671 1.415 . S
C674 H664 0.930 . S
C674 C672 1.419 . S
C674 C675 1.362 . S
C675 H665 0.930 . S
C675 C668 1.409 . S
C675 C674 1.362 . S
H676 C682 0.930 . S
H677 C685 0.930 . S
H678 C686 0.930 . S
H679 C687 0.930 . S
H680 C690 0.930 . S
H681 C691 0.930 . S
C682 H676 0.930 . S
C682 C683 1.355 . S
C682 C684 1.415 1_554 S
C683 C682 1.355 . S
C683 C685 1.419 . S
C684 C682 1.415 1_556 S
C684 C689 1.425 1_456 S
C684 C691 1.409 . S
C685 H677 0.930 . S
C685 C683 1.419 . S
C685 C686 1.362 1_455 S
C686 H678 0.930 . S
C686 C685 1.362 1_655 S
C686 C689 1.409 . S
C687 H679 0.930 . S
C687 C688 1.355 . S
C687 C689 1.415 1_556 S
C688 C687 1.355 . S
C688 C690 1.419 . S
C689 C684 1.425 1_654 S
C689 C686 1.409 . S
C689 C687 1.415 1_554 S
C690 H680 0.930 . S
C690 C688 1.419 . S
C690 C691 1.362 1_655 S
C691 H681 0.930 . S
C691 C684 1.409 . S
C691 C690 1.362 1_455 S
H692 C698 0.930 1_565 S
H693 C701 0.930 . S
H694 C702 0.930 . S
H695 C703 0.930 1_545 S
H696 C706 0.930 . S
H697 C707 0.930 . S
C698 H692 0.930 1_545 S
C698 C699 1.355 . S
C698 C700 1.415 1_545 S
C699 C698 1.355 . S
C699 C701 1.419 . S
C700 C698 1.415 1_565 S
C700 C705 1.425 1_565 S
C700 C707 1.409 . S
C701 H693 0.930 . S
C701 C699 1.419 . S
C701 C702 1.362 . S
C702 H694 0.930 . S
C702 C701 1.362 . S
C702 C705 1.409 . S
C703 H695 0.930 1_565 S
C703 C704 1.355 . S
C703 C705 1.415 1_565 S
C704 C703 1.355 . S
C704 C706 1.419 . S
C705 C700 1.425 1_545 S
C705 C702 1.409 . S
C705 C703 1.415 1_545 S
C706 H696 0.930 . S
C706 C704 1.419 . S
C706 C707 1.362 . S
C707 H697 0.930 . S
C707 C700 1.409 . S
C707 C706 1.362 . S
C331 C32 1.989 . S
C336 C229 2.031 . S
C347 C302 2.008 . S
C352 C67 2.038 . S
C363 C13 1.999 . S
C368 C140 2.042 . S
C379 C86 2.042 . S
C384 C175 1.997 . S
C395 C248 2.024 . S
C400 C121 1.992 . S
C411 C283 2.030 . S
C416 C194 1.989 . S
C427 C22 1.151 . S
C432 C221 1.213 . S
C443 C59 1.162 . S
C448 C292 1.128 . S
C459 C5 1.135 . S
C464 C130 1.215 . S
C475 C76 1.122 . S
C480 C167 1.210 . S
C491 C113 1.206 . S
C496 C238 1.118 . S
C507 C275 1.124 . S
C512 C184 1.212 . S
C523 C10 2.672 . S
C528 C280 2.672 . S
C539 C81 2.666 . S
C544 C27 2.654 . S
C555 C118 2.673 . S
C560 C64 2.669 . S
C571 C189 2.662 . S
C576 C135 2.671 . S
C587 C172 2.673 . S
C592 C226 2.666 . S
C603 C297 2.670 . S
C608 C243 2.673 . S
C619 C190 0.740 . S
C624 C136 0.748 . S
C635 C251 0.703 . S
C640 C197 0.799 . S
C651 C298 0.791 . S
C656 C244 0.719 . S
C667 C305 0.707 . S
C672 C35 0.798 . S
C683 C28 0.797 . S
C688 C82 0.709 . S
C699 C89 0.713 . S
C704 C143 0.777 . S
