# Generated by pormake.
# Topology unl, (4)-cn, num edge types: 1
# Building blocks:
#     Node 0, Type 0, BuildingBlock: QUQFOY_clean_sbu_1, # of connection points: 4
#     Node 1, Type 0, BuildingBlock: QUQFOY_clean_sbu_1, # of connection points: 4
#     Node 2, Type 0, BuildingBlock: QUQFOY_clean_sbu_1, # of connection points: 4
#     Node 3, Type 0, BuildingBlock: QUQFOY_clean_sbu_1, # of connection points: 4
#     Node 4, Type 0, BuildingBlock: QUQFOY_clean_sbu_1, # of connection points: 4
#     Node 5, Type 0, BuildingBlock: QUQFOY_clean_sbu_1, # of connection points: 4
#     Node 6, Type 0, BuildingBlock: QUQFOY_clean_sbu_1, # of connection points: 4
#     Node 7, Type 0, BuildingBlock: QUQFOY_clean_sbu_1, # of connection points: 4
#     Node 8, Type 0, BuildingBlock: QUQFOY_clean_sbu_1, # of connection points: 4
#     Node 9, Type 0, BuildingBlock: QUQFOY_clean_sbu_1, # of connection points: 4
#     Node 10, Type 0, BuildingBlock: QUQFOY_clean_sbu_1, # of connection points: 4
#     Node 11, Type 0, BuildingBlock: QUQFOY_clean_sbu_1, # of connection points: 4
#     Node 12, Type 0, BuildingBlock: QUQFOY_clean_sbu_1, # of connection points: 4
#     Node 13, Type 0, BuildingBlock: QUQFOY_clean_sbu_1, # of connection points: 4
#     Node 14, Type 0, BuildingBlock: QUQFOY_clean_sbu_1, # of connection points: 4
#     Node 15, Type 0, BuildingBlock: QUQFOY_clean_sbu_1, # of connection points: 4
#     Node 16, Type 0, BuildingBlock: QUQFOY_clean_sbu_1, # of connection points: 4
#     Node 17, Type 0, BuildingBlock: QUQFOY_clean_sbu_1, # of connection points: 4
#     Node 18, Type 0, BuildingBlock: QUQFOY_clean_sbu_1, # of connection points: 4
#     Node 19, Type 0, BuildingBlock: QUQFOY_clean_sbu_1, # of connection points: 4
#     Node 20, Type 0, BuildingBlock: QUQFOY_clean_sbu_1, # of connection points: 4
#     Node 21, Type 0, BuildingBlock: QUQFOY_clean_sbu_1, # of connection points: 4
#     Node 22, Type 0, BuildingBlock: QUQFOY_clean_sbu_1, # of connection points: 4
#     Node 23, Type 0, BuildingBlock: QUQFOY_clean_sbu_1, # of connection points: 4
#     Node 24, Type 0, BuildingBlock: QUQFOY_clean_sbu_1, # of connection points: 4
#     Node 25, Type 0, BuildingBlock: QUQFOY_clean_sbu_1, # of connection points: 4
#     Node 26, Type 0, BuildingBlock: QUQFOY_clean_sbu_1, # of connection points: 4
#     Node 27, Type 0, BuildingBlock: QUQFOY_clean_sbu_1, # of connection points: 4
#     Node 28, Type 0, BuildingBlock: QUQFOY_clean_sbu_1, # of connection points: 4
#     Node 29, Type 0, BuildingBlock: QUQFOY_clean_sbu_1, # of connection points: 4
#     Node 30, Type 0, BuildingBlock: QUQFOY_clean_sbu_1, # of connection points: 4
#     Node 31, Type 0, BuildingBlock: QUQFOY_clean_sbu_1, # of connection points: 4
#     Node 32, Type 0, BuildingBlock: QUQFOY_clean_sbu_1, # of connection points: 4
#     Node 33, Type 0, BuildingBlock: QUQFOY_clean_sbu_1, # of connection points: 4
#     Node 34, Type 0, BuildingBlock: QUQFOY_clean_sbu_1, # of connection points: 4
#     Node 35, Type 0, BuildingBlock: QUQFOY_clean_sbu_1, # of connection points: 4
#     Edge 36, Type (0, 0), BuildingBlock: OJICUG_clean_linker_0, # of connection points: 2
#     Edge 37, Type (0, 0), BuildingBlock: OJICUG_clean_linker_0, # of connection points: 2
#     Edge 38, Type (0, 0), BuildingBlock: OJICUG_clean_linker_0, # of connection points: 2
#     Edge 39, Type (0, 0), BuildingBlock: OJICUG_clean_linker_0, # of connection points: 2
#     Edge 40, Type (0, 0), BuildingBlock: OJICUG_clean_linker_0, # of connection points: 2
#     Edge 41, Type (0, 0), BuildingBlock: OJICUG_clean_linker_0, # of connection points: 2
#     Edge 42, Type (0, 0), BuildingBlock: OJICUG_clean_linker_0, # of connection points: 2
#     Edge 43, Type (0, 0), BuildingBlock: OJICUG_clean_linker_0, # of connection points: 2
#     Edge 44, Type (0, 0), BuildingBlock: OJICUG_clean_linker_0, # of connection points: 2
#     Edge 45, Type (0, 0), BuildingBlock: OJICUG_clean_linker_0, # of connection points: 2
#     Edge 46, Type (0, 0), BuildingBlock: OJICUG_clean_linker_0, # of connection points: 2
#     Edge 47, Type (0, 0), BuildingBlock: OJICUG_clean_linker_0, # of connection points: 2
#     Edge 48, Type (0, 0), BuildingBlock: OJICUG_clean_linker_0, # of connection points: 2
#     Edge 49, Type (0, 0), BuildingBlock: OJICUG_clean_linker_0, # of connection points: 2
#     Edge 50, Type (0, 0), BuildingBlock: OJICUG_clean_linker_0, # of connection points: 2
#     Edge 51, Type (0, 0), BuildingBlock: OJICUG_clean_linker_0, # of connection points: 2
#     Edge 52, Type (0, 0), BuildingBlock: OJICUG_clean_linker_0, # of connection points: 2
#     Edge 53, Type (0, 0), BuildingBlock: OJICUG_clean_linker_0, # of connection points: 2
#     Edge 54, Type (0, 0), BuildingBlock: OJICUG_clean_linker_0, # of connection points: 2
#     Edge 55, Type (0, 0), BuildingBlock: OJICUG_clean_linker_0, # of connection points: 2
#     Edge 56, Type (0, 0), BuildingBlock: OJICUG_clean_linker_0, # of connection points: 2
#     Edge 57, Type (0, 0), BuildingBlock: OJICUG_clean_linker_0, # of connection points: 2
#     Edge 58, Type (0, 0), BuildingBlock: OJICUG_clean_linker_0, # of connection points: 2
#     Edge 59, Type (0, 0), BuildingBlock: OJICUG_clean_linker_0, # of connection points: 2
#     Edge 60, Type (0, 0), BuildingBlock: OJICUG_clean_linker_0, # of connection points: 2
#     Edge 61, Type (0, 0), BuildingBlock: OJICUG_clean_linker_0, # of connection points: 2
#     Edge 62, Type (0, 0), BuildingBlock: OJICUG_clean_linker_0, # of connection points: 2
#     Edge 63, Type (0, 0), BuildingBlock: OJICUG_clean_linker_0, # of connection points: 2
#     Edge 64, Type (0, 0), BuildingBlock: OJICUG_clean_linker_0, # of connection points: 2
#     Edge 65, Type (0, 0), BuildingBlock: OJICUG_clean_linker_0, # of connection points: 2
#     Edge 66, Type (0, 0), BuildingBlock: OJICUG_clean_linker_0, # of connection points: 2
#     Edge 67, Type (0, 0), BuildingBlock: OJICUG_clean_linker_0, # of connection points: 2
#     Edge 68, Type (0, 0), BuildingBlock: OJICUG_clean_linker_0, # of connection points: 2
#     Edge 69, Type (0, 0), BuildingBlock: OJICUG_clean_linker_0, # of connection points: 2
#     Edge 70, Type (0, 0), BuildingBlock: OJICUG_clean_linker_0, # of connection points: 2
#     Edge 71, Type (0, 0), BuildingBlock: OJICUG_clean_linker_0, # of connection points: 2
#     Edge 72, Type (0, 0), BuildingBlock: OJICUG_clean_linker_0, # of connection points: 2
#     Edge 73, Type (0, 0), BuildingBlock: OJICUG_clean_linker_0, # of connection points: 2
#     Edge 74, Type (0, 0), BuildingBlock: OJICUG_clean_linker_0, # of connection points: 2
#     Edge 75, Type (0, 0), BuildingBlock: OJICUG_clean_linker_0, # of connection points: 2
#     Edge 76, Type (0, 0), BuildingBlock: OJICUG_clean_linker_0, # of connection points: 2
#     Edge 77, Type (0, 0), BuildingBlock: OJICUG_clean_linker_0, # of connection points: 2
#     Edge 78, Type (0, 0), BuildingBlock: OJICUG_clean_linker_0, # of connection points: 2
#     Edge 79, Type (0, 0), BuildingBlock: OJICUG_clean_linker_0, # of connection points: 2
#     Edge 80, Type (0, 0), BuildingBlock: OJICUG_clean_linker_0, # of connection points: 2
#     Edge 81, Type (0, 0), BuildingBlock: OJICUG_clean_linker_0, # of connection points: 2
#     Edge 82, Type (0, 0), BuildingBlock: OJICUG_clean_linker_0, # of connection points: 2
#     Edge 83, Type (0, 0), BuildingBlock: OJICUG_clean_linker_0, # of connection points: 2
#     Edge 84, Type (0, 0), BuildingBlock: OJICUG_clean_linker_0, # of connection points: 2
#     Edge 85, Type (0, 0), BuildingBlock: OJICUG_clean_linker_0, # of connection points: 2
#     Edge 86, Type (0, 0), BuildingBlock: OJICUG_clean_linker_0, # of connection points: 2
#     Edge 87, Type (0, 0), BuildingBlock: OJICUG_clean_linker_0, # of connection points: 2
#     Edge 88, Type (0, 0), BuildingBlock: OJICUG_clean_linker_0, # of connection points: 2
#     Edge 89, Type (0, 0), BuildingBlock: OJICUG_clean_linker_0, # of connection points: 2
#     Edge 90, Type (0, 0), BuildingBlock: OJICUG_clean_linker_0, # of connection points: 2
#     Edge 91, Type (0, 0), BuildingBlock: OJICUG_clean_linker_0, # of connection points: 2
#     Edge 92, Type (0, 0), BuildingBlock: OJICUG_clean_linker_0, # of connection points: 2
#     Edge 93, Type (0, 0), BuildingBlock: OJICUG_clean_linker_0, # of connection points: 2
#     Edge 94, Type (0, 0), BuildingBlock: OJICUG_clean_linker_0, # of connection points: 2
#     Edge 95, Type (0, 0), BuildingBlock: OJICUG_clean_linker_0, # of connection points: 2
#     Edge 96, Type (0, 0), BuildingBlock: OJICUG_clean_linker_0, # of connection points: 2
#     Edge 97, Type (0, 0), BuildingBlock: OJICUG_clean_linker_0, # of connection points: 2
#     Edge 98, Type (0, 0), BuildingBlock: OJICUG_clean_linker_0, # of connection points: 2
#     Edge 99, Type (0, 0), BuildingBlock: OJICUG_clean_linker_0, # of connection points: 2
#     Edge 100, Type (0, 0), BuildingBlock: OJICUG_clean_linker_0, # of connection points: 2
#     Edge 101, Type (0, 0), BuildingBlock: OJICUG_clean_linker_0, # of connection points: 2
#     Edge 102, Type (0, 0), BuildingBlock: OJICUG_clean_linker_0, # of connection points: 2
#     Edge 103, Type (0, 0), BuildingBlock: OJICUG_clean_linker_0, # of connection points: 2
#     Edge 104, Type (0, 0), BuildingBlock: OJICUG_clean_linker_0, # of connection points: 2
#     Edge 105, Type (0, 0), BuildingBlock: OJICUG_clean_linker_0, # of connection points: 2
#     Edge 106, Type (0, 0), BuildingBlock: OJICUG_clean_linker_0, # of connection points: 2
#     Edge 107, Type (0, 0), BuildingBlock: OJICUG_clean_linker_0, # of connection points: 2
# Relax obj value: 0.019
# Max RMSD: 0.070
# Mean RMSD: 0.070
data_MOF--net-unl--node1-QUQFOY_clean_sbu_1--edge1-OJICUG_clean_linker_0
_symmetry_space_group_name_H-M    P1
_symmetry_Int_Tables_number       1
_symmetry_cell_setting            triclinic
loop_
_symmetry_equiv_pos_as_xyz
'x, y, z'
_cell_length_a     50.754006
_cell_length_b     50.778138
_cell_length_c     29.80383
_cell_angle_alpha  89.997625
_cell_angle_beta   90.006017
_cell_angle_gamma 119.99683
loop_
_atom_site_label
_atom_site_type_symbol
_atom_site_fract_x
_atom_site_fract_y
_atom_site_fract_z
_atom_type_partial_charge
O0 O 0.2373 0.18087 0.1617 0.0
Cd1 Cd 0.2603 0.17482 0.1099 0.0
Cd2 Cd 0.21011 0.11979 0.1089 0.0
O3 O 0.2002 0.13344 0.16939 0.0
O4 O 0.30451 0.20289 0.12239 0.0
O5 O 0.28284 0.15272 0.12449 0.0
C6 C 0.30664 0.1791 0.13109 0.0
C7 C 0.20164 0.07067 0.0949 0.0
C8 C 0.21386 0.16102 0.18242 0.0
C9 C 0.22088 0.16307 0.03116 0.0
O10 O 0.20317 0.13879 0.05227 0.0
O11 O 0.24736 0.18119 0.04638 0.0
O12 O 0.17952 0.07579 0.1017 0.0
O13 O 0.229 0.09324 0.09947 0.0
O14 O 0.86478 0.06501 0.16216 0.0
Cd15 Cd 0.87078 0.09401 0.11032 0.0
Cd16 Cd 0.92577 0.09859 0.10905 0.0
O17 O 0.91217 0.07508 0.16959 0.0
O18 O 0.84265 0.11007 0.12289 0.0
O19 O 0.89284 0.13866 0.12479 0.0
C20 C 0.86644 0.13603 0.13146 0.0
C21 C 0.97496 0.13902 0.0947 0.0
C22 C 0.88461 0.06129 0.18275 0.0
C23 C 0.88219 0.06614 0.03153 0.0
O24 O 0.90651 0.07265 0.05251 0.0
O25 O 0.86418 0.07461 0.04685 0.0
O26 O 0.9697 0.11174 0.10152 0.0
O27 O 0.95251 0.14397 0.09949 0.0
O28 O 0.98057 0.80908 0.16281 0.0
Cd29 Cd 0.95156 0.78624 0.11088 0.0
Cd30 Cd 0.94701 0.83657 0.10995 0.0
O31 O 0.97046 0.84633 0.17054 0.0
O32 O 0.93538 0.74202 0.12323 0.0
O33 O 0.9069 0.76373 0.12534 0.0
C34 C 0.90945 0.73991 0.13188 0.0
C35 C 0.90632 0.84496 0.09576 0.0
C36 C 0.98425 0.83253 0.18358 0.0
C37 C 0.9795 0.82571 0.03228 0.0
O38 O 0.97303 0.84349 0.05341 0.0
O39 O 0.97097 0.79918 0.04743 0.0
O40 O 0.93353 0.86711 0.10265 0.0
O41 O 0.90159 0.81763 0.10038 0.0
O42 O 0.18992 0.2275 0.34952 0.0
Cd43 Cd 0.1837 0.25027 0.40148 0.0
Cd44 Cd 0.12879 0.19995 0.40225 0.0
O45 O 0.14255 0.19024 0.3417 0.0
O46 O 0.21176 0.2945 0.38928 0.0
O47 O 0.16157 0.27279 0.38704 0.0
C48 C 0.18795 0.29663 0.38061 0.0
C49 C 0.07968 0.19154 0.41629 0.0
C50 C 0.17015 0.20405 0.3287 0.0
C51 C 0.17206 0.21072 0.48003 0.0
O52 O 0.14781 0.19297 0.45884 0.0
O53 O 0.19009 0.23726 0.46492 0.0
O54 O 0.08475 0.1694 0.40939 0.0
O55 O 0.1023 0.21887 0.41178 0.0
O56 O 0.81785 0.97078 0.34964 0.0
Cd57 Cd 0.79496 0.9418 0.40155 0.0
Cd58 Cd 0.8453 0.93721 0.40255 0.0
O59 O 0.8551 0.96064 0.34195 0.0
O60 O 0.75074 0.92572 0.38917 0.0
O61 O 0.77235 0.89716 0.38712 0.0
C62 C 0.74856 0.89977 0.38056 0.0
C63 C 0.85382 0.89663 0.41691 0.0
C64 C 0.84132 0.97445 0.3289 0.0
C65 C 0.83443 0.96975 0.48014 0.0
O66 O 0.8522 0.96325 0.45904 0.0
O67 O 0.80789 0.96123 0.46499 0.0
O68 O 0.87592 0.92384 0.40995 0.0
O69 O 0.82645 0.89182 0.41224 0.0
O70 O 0.07448 0.85572 0.35073 0.0
Cd71 Cd 0.10348 0.86174 0.40259 0.0
Cd72 Cd 0.10831 0.91675 0.40365 0.0
O73 O 0.0848 0.90315 0.3431 0.0
O74 O 0.11956 0.83363 0.39013 0.0
O75 O 0.14813 0.88379 0.38809 0.0
C76 C 0.14552 0.8574 0.38148 0.0
C77 C 0.149 0.96582 0.41775 0.0
C78 C 0.0709 0.87558 0.33002 0.0
C79 C 0.0757 0.87337 0.48128 0.0
O80 O 0.08229 0.89768 0.46021 0.0
O81 O 0.08411 0.8553 0.46606 0.0
O82 O 0.12178 0.96074 0.41093 0.0
O83 O 0.15374 0.94323 0.41317 0.0
O84 O 0.81769 0.85536 0.85049 0.0
Cd85 Cd 0.79479 0.86151 0.90235 0.0
Cd86 Cd 0.84496 0.91652 0.90311 0.0
O87 O 0.85476 0.90279 0.8426 0.0
O88 O 0.75055 0.83345 0.89004 0.0
O89 O 0.77227 0.88362 0.88779 0.0
C90 C 0.74844 0.85725 0.88131 0.0
C91 C 0.85332 0.9656 0.91706 0.0
C92 C 0.84109 0.87519 0.82966 0.0
C93 C 0.83434 0.87336 0.98095 0.0
O94 O 0.85202 0.89761 0.95974 0.0
O95 O 0.80782 0.85523 0.96585 0.0
O96 O 0.87548 0.96054 0.91018 0.0
O97 O 0.82599 0.94298 0.91259 0.0
O98 O 0.19021 0.97111 0.84999 0.0
Cd99 Cd 0.18414 0.94211 0.90188 0.0
Cd100 Cd 0.12918 0.93754 0.903 0.0
O101 O 0.14282 0.96102 0.84245 0.0
O102 O 0.2122 0.92595 0.8894 0.0
O103 O 0.162 0.89746 0.88746 0.0
C104 C 0.18838 0.90002 0.88084 0.0
C105 C 0.08 0.89708 0.91733 0.0
C106 C 0.1704 0.97481 0.82934 0.0
C107 C 0.1727 0.97004 0.98055 0.0
O108 O 0.1484 0.96353 0.95952 0.0
O109 O 0.19071 0.96154 0.96532 0.0
O110 O 0.08524 0.92434 0.91044 0.0
O111 O 0.10248 0.89216 0.91262 0.0
O112 O 0.07455 0.22724 0.84935 0.0
Cd113 Cd 0.10349 0.25006 0.90135 0.0
Cd114 Cd 0.10816 0.19978 0.90219 0.0
O115 O 0.08475 0.19005 0.84156 0.0
O116 O 0.11954 0.29426 0.88912 0.0
O117 O 0.14816 0.27271 0.88697 0.0
C118 C 0.14552 0.29648 0.88049 0.0
C119 C 0.14891 0.19149 0.91639 0.0
C120 C 0.07093 0.20383 0.82853 0.0
C121 C 0.07553 0.21048 0.97984 0.0
O122 O 0.08207 0.19275 0.95869 0.0
O123 O 0.08404 0.23701 0.96476 0.0
O124 O 0.12173 0.16932 0.90943 0.0
O125 O 0.15358 0.2188 0.91185 0.0
O126 O 0.86478 0.80846 0.66264 0.0
Cd127 Cd 0.87091 0.7856 0.61072 0.0
Cd128 Cd 0.9259 0.83593 0.60982 0.0
O129 O 0.91216 0.8457 0.67034 0.0
O130 O 0.8428 0.74139 0.62303 0.0
O131 O 0.89299 0.76302 0.62519 0.0
C132 C 0.86659 0.73923 0.63169 0.0
C133 C 0.97505 0.84448 0.59576 0.0
C134 C 0.88457 0.83192 0.68339 0.0
C135 C 0.88257 0.82508 0.53207 0.0
O136 O 0.90684 0.84283 0.5532 0.0
O137 O 0.86451 0.79858 0.54725 0.0
O138 O 0.96989 0.86656 0.60261 0.0
O139 O 0.9525 0.81712 0.60034 0.0
O140 O 0.23732 0.06541 0.66258 0.0
Cd141 Cd 0.26024 0.09441 0.61071 0.0
Cd142 Cd 0.20984 0.09895 0.6096 0.0
O143 O 0.20002 0.07549 0.67018 0.0
O144 O 0.30447 0.11059 0.6232 0.0
O145 O 0.28276 0.13906 0.62515 0.0
C146 C 0.30658 0.13651 0.63179 0.0
C147 C 0.20111 0.13938 0.5952 0.0
C148 C 0.21381 0.06171 0.68327 0.0
C149 C 0.22084 0.06646 0.53206 0.0
O150 O 0.20305 0.07295 0.55311 0.0
O151 O 0.24737 0.07498 0.54726 0.0
O152 O 0.17908 0.11213 0.60213 0.0
O153 O 0.22851 0.14432 0.59993 0.0
O154 O 0.98058 0.18056 0.66149 0.0
Cd155 Cd 0.95149 0.17448 0.60972 0.0
Cd156 Cd 0.94674 0.1195 0.60864 0.0
O157 O 0.97032 0.13315 0.66913 0.0
O158 O 0.93535 0.20254 0.62225 0.0
O159 O 0.90686 0.15237 0.62433 0.0
C160 C 0.90943 0.17874 0.63095 0.0
C161 C 0.90614 0.07037 0.59457 0.0
C162 C 0.98422 0.16073 0.68217 0.0
C163 C 0.9792 0.16286 0.53093 0.0
O164 O 0.97267 0.13857 0.55201 0.0
O165 O 0.97079 0.18092 0.54619 0.0
O166 O 0.9334 0.07553 0.60135 0.0
O167 O 0.90131 0.0929 0.59921 0.0
O168 O 0.9034 0.51392 0.49545 0.0
Cd169 Cd 0.92635 0.50787 0.44358 0.0
Cd170 Cd 0.876 0.45296 0.44237 0.0
O171 O 0.86613 0.46655 0.50295 0.0
O172 O 0.97056 0.5359 0.45612 0.0
O173 O 0.94887 0.48573 0.45803 0.0
C174 C 0.97268 0.51209 0.4647 0.0
C175 C 0.86743 0.40384 0.4281 0.0
C176 C 0.8799 0.49411 0.51609 0.0
C177 C 0.887 0.49649 0.36487 0.0
O178 O 0.8692 0.47218 0.38586 0.0
O179 O 0.91351 0.51447 0.38014 0.0
O180 O 0.84534 0.409 0.43492 0.0
O181 O 0.8948 0.42636 0.43279 0.0
O182 O 0.532 0.39885 0.49641 0.0
Cd183 Cd 0.53806 0.42775 0.4444 0.0
Cd184 Cd 0.59306 0.43251 0.4436 0.0
O185 O 0.57942 0.40913 0.50424 0.0
O186 O 0.50987 0.44379 0.45661 0.0
O187 O 0.56004 0.47241 0.45875 0.0
C188 C 0.53362 0.46976 0.46522 0.0
C189 C 0.64208 0.47327 0.42934 0.0
C190 C 0.55183 0.39527 0.51725 0.0
C191 C 0.54974 0.39981 0.36596 0.0
O192 O 0.57402 0.40639 0.38713 0.0
O193 O 0.53167 0.40828 0.38101 0.0
O194 O 0.63711 0.44611 0.43635 0.0
O195 O 0.61941 0.47792 0.43388 0.0
O196 O 0.64703 0.14161 0.49591 0.0
Cd197 Cd 0.61799 0.11876 0.44401 0.0
Cd198 Cd 0.61326 0.169 0.44322 0.0
O199 O 0.63679 0.17877 0.50373 0.0
O200 O 0.60186 0.07455 0.45628 0.0
O201 O 0.57335 0.09622 0.45853 0.0
C202 C 0.57592 0.07241 0.46499 0.0
C203 C 0.57261 0.17749 0.42924 0.0
C204 C 0.65066 0.16504 0.51671 0.0
C205 C 0.64576 0.15827 0.3654 0.0
O206 O 0.63922 0.17599 0.38658 0.0
O207 O 0.63733 0.13176 0.38053 0.0
O208 O 0.59984 0.19959 0.43612 0.0
O209 O 0.56783 0.15014 0.43373 0.0
O210 O 0.85632 0.56082 0.68322 0.0
Cd211 Cd 0.85026 0.5837 0.73519 0.0
Cd212 Cd 0.79528 0.53343 0.73612 0.0
O213 O 0.8089 0.52364 0.67551 0.0
O214 O 0.87839 0.62791 0.72288 0.0
O215 O 0.82821 0.60631 0.72082 0.0
C216 C 0.85461 0.6301 0.71428 0.0
C217 C 0.7462 0.52502 0.7504 0.0
C218 C 0.83649 0.53739 0.66245 0.0
C219 C 0.83867 0.54417 0.81373 0.0
O220 O 0.81438 0.52645 0.79261 0.0
O221 O 0.85671 0.57069 0.7986 0.0
O222 O 0.75126 0.50289 0.74345 0.0
O223 O 0.7688 0.55235 0.74579 0.0
O224 O 0.48482 0.30484 0.68417 0.0
Cd225 Cd 0.46184 0.27581 0.73599 0.0
Cd226 Cd 0.51223 0.27124 0.73721 0.0
O227 O 0.52213 0.29477 0.6767 0.0
O228 O 0.41763 0.25966 0.72342 0.0
O229 O 0.43933 0.23117 0.72148 0.0
C230 C 0.41551 0.23373 0.71482 0.0
C231 C 0.5209 0.23075 0.75144 0.0
C232 C 0.50836 0.30856 0.66356 0.0
C233 C 0.50115 0.30366 0.81479 0.0
O234 O 0.51896 0.29717 0.79379 0.0
O235 O 0.47465 0.29519 0.79948 0.0
O236 O 0.54295 0.25801 0.74466 0.0
O237 O 0.49351 0.22585 0.7467 0.0
O238 O 0.74113 0.18857 0.68368 0.0
Cd239 Cd 0.77022 0.19472 0.73548 0.0
Cd240 Cd 0.77496 0.2497 0.73638 0.0
O241 O 0.75138 0.23596 0.6759 0.0
O242 O 0.78639 0.16668 0.72304 0.0
O243 O 0.81485 0.21685 0.72083 0.0
C244 C 0.8123 0.19049 0.71429 0.0
C245 C 0.81556 0.29884 0.75037 0.0
C246 C 0.73749 0.20837 0.66292 0.0
C247 C 0.74253 0.20645 0.81419 0.0
O248 O 0.74904 0.2307 0.79304 0.0
O249 O 0.75094 0.18837 0.79901 0.0
O250 O 0.78831 0.29368 0.74354 0.0
O251 O 0.82038 0.27629 0.74581 0.0
O252 O 0.48489 0.1891 0.18405 0.0
Cd253 Cd 0.46184 0.19514 0.2358 0.0
Cd254 Cd 0.51222 0.25007 0.23712 0.0
O255 O 0.52218 0.23647 0.17662 0.0
O256 O 0.41765 0.16708 0.22312 0.0
O257 O 0.43931 0.21725 0.2212 0.0
C258 C 0.41552 0.19088 0.21448 0.0
C259 C 0.52087 0.29922 0.25138 0.0
C260 C 0.50843 0.20891 0.16348 0.0
C261 C 0.50106 0.20653 0.31468 0.0
O262 O 0.51889 0.23083 0.29371 0.0
O263 O 0.47458 0.18854 0.29932 0.0
O264 O 0.54293 0.294 0.24464 0.0
O265 O 0.49348 0.27674 0.24658 0.0
O266 O 0.85621 0.30414 0.18316 0.0
Cd267 Cd 0.85012 0.27521 0.23514 0.0
Cd268 Cd 0.79516 0.27058 0.23602 0.0
O269 O 0.80881 0.29398 0.1754 0.0
O270 O 0.87825 0.25911 0.22284 0.0
O271 O 0.82807 0.23055 0.22077 0.0
C272 C 0.85447 0.23315 0.21423 0.0
C273 C 0.74608 0.22996 0.25034 0.0
C274 C 0.83641 0.30778 0.16236 0.0
C275 C 0.83855 0.30321 0.31363 0.0
O276 O 0.81428 0.29667 0.29248 0.0
O277 O 0.85658 0.29469 0.29854 0.0
O278 O 0.75115 0.25716 0.24335 0.0
O279 O 0.76866 0.2252 0.24574 0.0
O280 O 0.74108 0.56172 0.18383 0.0
Cd281 Cd 0.77009 0.58462 0.23573 0.0
Cd282 Cd 0.77489 0.5344 0.23665 0.0
O283 O 0.75135 0.52458 0.17615 0.0
O284 O 0.78626 0.62884 0.22336 0.0
O285 O 0.81474 0.60713 0.22125 0.0
C286 C 0.81219 0.63095 0.21471 0.0
C287 C 0.81545 0.52575 0.25063 0.0
C288 C 0.73747 0.53828 0.16309 0.0
C289 C 0.74237 0.54517 0.3144 0.0
O290 O 0.74895 0.52748 0.29329 0.0
O291 O 0.75073 0.57165 0.2992 0.0
O292 O 0.78818 0.50371 0.2438 0.0
O293 O 0.82032 0.55313 0.2461 0.0
O294 O 0.53219 0.14229 0.99642 0.0
Cd295 Cd 0.53825 0.11945 0.94441 0.0
Cd296 Cd 0.59323 0.16971 0.94357 0.0
O297 O 0.5796 0.17946 1.00421 0.0
O298 O 0.51004 0.07525 0.95664 0.0
O299 O 0.56022 0.09675 0.95875 0.0
C300 C 0.53379 0.07299 0.96524 0.0
C301 C 0.64227 0.17802 0.92926 0.0
C302 C 0.55201 0.16571 0.01723 0.0
C303 C 0.54987 0.15906 0.86595 0.0
O304 O 0.57415 0.17676 0.88711 0.0
O305 O 0.53183 0.13252 0.88102 0.0
O306 O 0.63727 0.20019 0.93627 0.0
O307 O 0.61963 0.1507 0.93383 0.0
O308 O 0.90349 0.39823 0.9955 0.0
Cd309 Cd 0.92647 0.42726 0.94367 0.0
Cd310 Cd 0.87614 0.43189 0.94247 0.0
O311 O 0.86622 0.40836 1.00299 0.0
O312 O 0.97068 0.44339 0.95622 0.0
O313 O 0.949 0.47189 0.95816 0.0
C314 C 0.97281 0.46932 0.96482 0.0
C315 C 0.86756 0.47244 0.92826 0.0
C316 C 0.87997 0.39454 0.01612 0.0
C317 C 0.88715 0.39942 0.8649 0.0
O318 O 0.86936 0.40594 0.8859 0.0
O319 O 0.91364 0.40788 0.88019 0.0
O320 O 0.84547 0.44519 0.93505 0.0
O321 O 0.89493 0.47729 0.93297 0.0
O322 O 0.64716 0.51454 0.99584 0.0
Cd323 Cd 0.6181 0.5083 0.94394 0.0
Cd324 Cd 0.6134 0.45336 0.94326 0.0
O325 O 0.63692 0.46716 1.00379 0.0
O326 O 0.60183 0.53627 0.95619 0.0
O327 O 0.57347 0.48609 0.95849 0.0
C328 C 0.57594 0.51243 0.96494 0.0
C329 C 0.57276 0.40424 0.9293 0.0
C330 C 0.65078 0.49476 0.01671 0.0
C331 C 0.64588 0.49653 0.86538 0.0
O332 O 0.63937 0.47231 0.88662 0.0
O333 O 0.63743 0.5146 0.88046 0.0
O334 O 0.59999 0.40936 0.93621 0.0
O335 O 0.56798 0.42681 0.93375 0.0
O336 O 0.5702 0.84737 0.82887 0.0
Cd337 Cd 0.59314 0.84122 0.77709 0.0
Cd338 Cd 0.54283 0.7863 0.77609 0.0
O339 O 0.53297 0.79999 0.83657 0.0
O340 O 0.63736 0.86927 0.78956 0.0
O341 O 0.61565 0.8191 0.7917 0.0
C342 C 0.63947 0.84547 0.79827 0.0
C343 C 0.53428 0.73717 0.76198 0.0
C344 C 0.54671 0.82758 0.84959 0.0
C345 C 0.55378 0.82963 0.69834 0.0
O346 O 0.536 0.80537 0.71945 0.0
O347 O 0.58029 0.84766 0.71357 0.0
O348 O 0.51218 0.74233 0.76879 0.0
O349 O 0.56165 0.7597 0.76663 0.0
O350 O 0.19821 0.73165 0.82918 0.0
Cd351 Cd 0.20433 0.76062 0.77724 0.0
Cd352 Cd 0.25926 0.7652 0.77627 0.0
O353 O 0.24559 0.74175 0.83685 0.0
O354 O 0.17627 0.77679 0.78959 0.0
O355 O 0.22646 0.80527 0.79163 0.0
C356 C 0.20009 0.80272 0.79818 0.0
C357 C 0.30838 0.80578 0.76205 0.0
C358 C 0.21801 0.72797 0.84992 0.0
C359 C 0.21585 0.73266 0.69865 0.0
O360 O 0.24013 0.73917 0.71975 0.0
O361 O 0.19783 0.74117 0.71381 0.0
O362 O 0.30326 0.77855 0.76895 0.0
O363 O 0.28583 0.81058 0.76667 0.0
O364 O 0.31355 0.47497 0.829 0.0
Cd365 Cd 0.28461 0.4521 0.77702 0.0
Cd366 Cd 0.27978 0.50229 0.77619 0.0
O367 O 0.30323 0.51207 0.83677 0.0
O368 O 0.26857 0.4079 0.78927 0.0
O369 O 0.23995 0.42945 0.79142 0.0
C370 C 0.24259 0.40568 0.79791 0.0
C371 C 0.23909 0.51071 0.76211 0.0
C372 C 0.31712 0.49837 0.8498 0.0
C373 C 0.31243 0.49167 0.69848 0.0
O374 O 0.30583 0.50934 0.71963 0.0
O375 O 0.30403 0.46516 0.7136 0.0
O376 O 0.2663 0.53283 0.76903 0.0
O377 O 0.23435 0.48337 0.76662 0.0
O378 O 0.52313 0.89439 0.01657 0.0
Cd379 Cd 0.51707 0.91726 0.06855 0.0
Cd380 Cd 0.46206 0.86699 0.06947 0.0
O381 O 0.47572 0.8572 0.00888 0.0
O382 O 0.54528 0.96146 0.05627 0.0
O383 O 0.4951 0.93995 0.05418 0.0
C384 C 0.52153 0.96371 0.04767 0.0
C385 C 0.41294 0.85849 0.08366 0.0
C386 C 0.5033 0.87095 0.99581 0.0
C387 C 0.50544 0.87773 0.1471 0.0
O388 O 0.48115 0.86002 0.12599 0.0
O389 O 0.52351 0.90423 0.13196 0.0
O390 O 0.41806 0.83639 0.07673 0.0
O391 O 0.43551 0.88584 0.07909 0.0
O392 O 0.15105 0.6376 0.0169 0.0
Cd393 Cd 0.12813 0.60862 0.0688 0.0
Cd394 Cd 0.17842 0.60394 0.06984 0.0
O395 O 0.18827 0.62741 0.00928 0.0
O396 O 0.0839 0.59247 0.05636 0.0
O397 O 0.1056 0.56398 0.05436 0.0
C398 C 0.08178 0.56654 0.04776 0.0
C399 C 0.18692 0.56334 0.08406 0.0
C400 C 0.17453 0.64124 0.9962 0.0
C401 C 0.16757 0.6365 0.14745 0.0
O402 O 0.18532 0.62995 0.12638 0.0
O403 O 0.14106 0.62803 0.13224 0.0
O404 O 0.20904 0.59056 0.07719 0.0
O405 O 0.15956 0.55854 0.07941 0.0
O406 O 0.40738 0.52192 0.01704 0.0
Cd407 Cd 0.43643 0.52809 0.06892 0.0
Cd408 Cd 0.44107 0.58301 0.06985 0.0
O409 O 0.41755 0.56929 0.00932 0.0
O410 O 0.45268 0.5001 0.05654 0.0
O411 O 0.48107 0.55028 0.0544 0.0
C412 C 0.47858 0.52394 0.04786 0.0
C413 C 0.48169 0.63213 0.0839 0.0
C414 C 0.40372 0.54171 0.99629 0.0
C415 C 0.40861 0.53969 0.14758 0.0
O416 O 0.41511 0.56395 0.12646 0.0
O417 O 0.41708 0.52165 0.13239 0.0
O418 O 0.45444 0.62699 0.07707 0.0
O419 O 0.48649 0.60957 0.07933 0.0
O420 O 0.15081 0.52184 0.51708 0.0
Cd421 Cd 0.12789 0.52795 0.56894 0.0
Cd422 Cd 0.1782 0.5829 0.56998 0.0
O423 O 0.18804 0.56923 0.50944 0.0
O424 O 0.08367 0.49992 0.55647 0.0
O425 O 0.10539 0.55009 0.55443 0.0
C426 C 0.08157 0.52374 0.54782 0.0
C427 C 0.18682 0.63204 0.58413 0.0
C428 C 0.17429 0.54165 0.49637 0.0
C429 C 0.16729 0.53949 0.64763 0.0
O430 O 0.18505 0.56377 0.62655 0.0
O431 O 0.14078 0.52146 0.6324 0.0
O432 O 0.20889 0.62685 0.57729 0.0
O433 O 0.15943 0.60953 0.5795 0.0
O434 O 0.52309 0.63778 0.51673 0.0
Cd435 Cd 0.51702 0.60882 0.56866 0.0
Cd436 Cd 0.46203 0.60415 0.56962 0.0
O437 O 0.47568 0.62761 0.50905 0.0
O438 O 0.5452 0.59279 0.55633 0.0
O439 O 0.49502 0.56418 0.55423 0.0
C440 C 0.52144 0.56682 0.54771 0.0
C441 C 0.41293 0.56352 0.58381 0.0
C442 C 0.50327 0.64143 0.49599 0.0
C443 C 0.50541 0.63668 0.64727 0.0
O444 O 0.48112 0.63015 0.62617 0.0
O445 O 0.52346 0.62822 0.6321 0.0
O446 O 0.41802 0.59073 0.57692 0.0
O447 O 0.43551 0.55875 0.57918 0.0
O448 O 0.40765 0.89413 0.51678 0.0
Cd449 Cd 0.43667 0.91699 0.56869 0.0
Cd450 Cd 0.44138 0.86675 0.56951 0.0
O451 O 0.41789 0.85697 0.50896 0.0
O452 O 0.45279 0.9612 0.55639 0.0
O453 O 0.48132 0.93955 0.55419 0.0
C454 C 0.47874 0.96335 0.54771 0.0
C455 C 0.48207 0.85834 0.58358 0.0
C456 C 0.40403 0.87071 0.49598 0.0
C457 C 0.40885 0.87748 0.64727 0.0
O458 O 0.41538 0.85976 0.62609 0.0
O459 O 0.4173 0.90399 0.63215 0.0
O460 O 0.45485 0.83621 0.57668 0.0
O461 O 0.48681 0.88567 0.57904 0.0
O462 O 0.1979 0.47492 0.32928 0.0
Cd463 Cd 0.20402 0.45208 0.27732 0.0
Cd464 Cd 0.259 0.50235 0.27646 0.0
O465 O 0.2453 0.51211 0.33703 0.0
O466 O 0.17594 0.40786 0.28959 0.0
O467 O 0.22614 0.42954 0.29171 0.0
C468 C 0.19975 0.40572 0.2982 0.0
C469 C 0.30813 0.51086 0.26234 0.0
C470 C 0.21771 0.49836 0.35006 0.0
C471 C 0.21567 0.4916 0.19876 0.0
O472 O 0.23994 0.50932 0.2199 0.0
O473 O 0.1976 0.46509 0.21389 0.0
O474 O 0.303 0.53296 0.26925 0.0
O475 O 0.28556 0.48351 0.26689 0.0
O476 O 0.57009 0.73168 0.32884 0.0
Cd477 Cd 0.59299 0.76062 0.2769 0.0
Cd478 Cd 0.54271 0.76534 0.27592 0.0
O479 O 0.53289 0.74189 0.3365 0.0
O480 O 0.63721 0.7767 0.28926 0.0
O481 O 0.61562 0.80527 0.2913 0.0
C482 C 0.6394 0.80266 0.29786 0.0
C483 C 0.53422 0.80595 0.2617 0.0
C484 C 0.54663 0.72806 0.34958 0.0
C485 C 0.5535 0.73274 0.19831 0.0
O486 O 0.53577 0.73931 0.21939 0.0
O487 O 0.58001 0.74119 0.21348 0.0
O488 O 0.5121 0.77873 0.2686 0.0
O489 O 0.56158 0.81073 0.26631 0.0
O490 O 0.31364 0.84725 0.32895 0.0
Cd491 Cd 0.2846 0.84117 0.27711 0.0
Cd492 Cd 0.27992 0.78621 0.27604 0.0
O493 O 0.30344 0.79986 0.33658 0.0
O494 O 0.26851 0.86926 0.28958 0.0
O495 O 0.23996 0.8191 0.29165 0.0
C496 C 0.24256 0.84548 0.29826 0.0
C497 C 0.23932 0.7371 0.26192 0.0
C498 C 0.31729 0.82743 0.34965 0.0
C499 C 0.31242 0.82961 0.19839 0.0
O500 O 0.3059 0.80532 0.21946 0.0
O501 O 0.30396 0.84764 0.21363 0.0
O502 O 0.26656 0.74224 0.26873 0.0
O503 O 0.2345 0.75964 0.26654 0.0
C504 C 0.21876 0.03778 0.0559 0.0
C505 C 0.19544 0.04109 0.07588 0.0
H506 H 0.22987 1.01205 0.01015 0.0
C507 C 0.16519 1.01749 0.07098 0.0
H508 H 0.24232 0.05551 0.05912 0.0
C509 C 0.15812 0.99282 0.04294 0.0
C510 C 0.18113 0.99098 0.01937 0.0
H511 H 0.14668 0.01907 0.08631 0.0
H512 H 0.1344 0.97614 0.03746 0.0
C513 C 0.21165 1.01283 0.02792 0.0
C514 C 0.02796 0.15537 0.07012 0.0
C515 C 1.00455 0.16225 0.07544 0.0
H516 H 0.06912 0.16569 0.03619 0.0
C517 C 1.008 0.18899 0.05569 0.0
H518 H 1.02627 0.13518 0.08526 0.0
C519 C 0.03291 0.20675 0.02758 0.0
C520 C 0.05458 0.19788 0.01866 0.0
H521 H 0.99041 0.19499 0.05922 0.0
H522 H 0.03381 0.22586 0.01004 0.0
C523 C 0.05259 0.17289 0.04196 0.0
C524 C 0.83834 0.83467 0.02871 0.0
C525 C 0.84699 0.86514 0.01983 0.0
H526 H 0.85041 0.80415 0.0603 0.0
C527 C 0.87189 0.88824 0.04318 0.0
H528 H 0.8193 0.81638 0.01114 0.0
C529 C 0.88955 0.8813 0.07134 0.0
C530 C 0.88291 0.85108 0.07659 0.0
H531 H 0.87893 0.91193 0.03744 0.0
H532 H 0.90968 0.89988 0.08649 0.0
C533 C 0.85623 0.82769 0.05681 0.0
C534 C 1.02194 0.20168 0.48338 0.0
C535 C 1.00008 0.17119 0.49205 0.0
H536 H 0.0646 0.23227 0.45201 0.0
C537 C 1.00187 0.14816 0.46851 0.0
H538 H 1.0212 0.21992 0.50111 0.0
C539 C 1.02651 0.15516 0.4404 0.0
C540 C 0.05012 0.18538 0.43538 0.0
H541 H 0.98518 0.12445 0.47409 0.0
H542 H 0.02805 0.13662 0.42511 0.0
C543 C 0.04685 0.20873 0.45532 0.0
C544 C 0.89028 0.88005 0.44146 0.0
C545 C 0.86003 0.87332 0.43622 0.0
H546 H 0.92103 0.86959 0.47543 0.0
C547 C 0.83668 0.84668 0.45612 0.0
H548 H 0.90883 0.90015 0.42622 0.0
C549 C 0.84374 0.82889 0.48431 0.0
C550 C 0.87425 0.83763 0.49316 0.0
H551 H 0.81311 0.8408 0.45264 0.0
H552 H 0.82548 0.80988 0.50196 0.0
C553 C 0.89731 0.86249 0.46971 0.0
C554 C 0.19904 0.99867 0.45678 0.0
C555 C 0.17242 0.99539 0.43678 0.0
H556 H 0.23589 0.02437 0.50253 0.0
C557 C 0.16583 0.01903 0.44164 0.0
H558 H 0.20481 0.9809 0.45359 0.0
C559 C 0.18348 0.04371 0.46965 0.0
C560 C 0.2083 0.04551 0.49325 0.0
H561 H 0.14575 1.01748 0.42629 0.0
H562 H 0.17647 0.06041 0.47511 0.0
C563 C 0.21692 0.02362 0.48474 0.0
C564 C 0.84324 0.02333 0.98421 0.0
C565 C 0.87376 0.04523 0.99268 0.0
H566 H 0.8126 0.98062 0.95304 0.0
C567 C 0.89676 0.04347 0.96898 0.0
H568 H 0.82502 0.02405 1.00207 0.0
C569 C 0.88971 0.01881 0.94091 0.0
C570 C 0.85948 0.99516 0.93609 0.0
H571 H 0.92048 0.06019 0.97441 0.0
H572 H 0.90823 1.01729 0.92549 0.0
C573 C 0.83614 0.9984 0.95619 0.0
C574 C 1.00235 0.86317 0.97001 0.0
C575 C 1.00041 0.83823 0.99342 0.0
H576 H 0.02864 0.90083 0.92661 0.0
C577 C 1.02211 0.8294 0.98457 0.0
H578 H 0.9858 0.87035 0.97572 0.0
C579 C 0.04701 0.84714 0.95644 0.0
C580 C 0.05043 0.87384 0.93658 0.0
H581 H 1.02125 0.81032 1.0022 0.0
H582 H 0.06463 0.84117 0.95297 0.0
C583 C 1.02698 0.88068 0.94181 0.0
C584 C 0.16579 0.15521 0.94063 0.0
C585 C 0.17235 0.18541 0.93555 0.0
H586 H 0.17647 0.12457 0.97439 0.0
C587 C 0.19896 0.2088 0.95547 0.0
H588 H 0.14572 0.13663 0.92536 0.0
C589 C 0.21686 0.20182 0.98355 0.0
C590 C 0.20827 0.17135 0.99228 0.0
H591 H 0.20472 0.23232 0.95211 0.0
H592 H 0.23583 0.2201 1.00125 0.0
C593 C 0.18346 0.14827 0.96877 0.0
C594 C 0.02819 0.88097 0.5716 0.0
C595 C 1.00465 0.85072 0.57668 0.0
H596 H 0.06948 0.91174 0.53791 0.0
C597 C 1.00802 0.8274 0.55682 0.0
H598 H 1.02657 0.89948 0.58683 0.0
C599 C 0.03296 0.83451 0.52881 0.0
C600 C 0.05475 0.86502 0.52009 0.0
H601 H 0.99033 0.80385 0.56018 0.0
H602 H 0.03378 0.81628 0.51116 0.0
C603 C 0.05286 0.88803 0.54353 0.0
C604 C 0.21093 0.20705 0.52789 0.0
C605 C 0.1804 0.19818 0.51891 0.0
H606 H 0.24166 0.19533 0.55965 0.0
C607 C 0.15738 0.17321 0.54224 0.0
H608 H 0.22916 0.22615 0.51033 0.0
C609 C 0.16447 0.15571 0.5705 0.0
C610 C 0.19477 0.1626 0.57587 0.0
H611 H 0.13364 0.166 0.53643 0.0
H612 H 0.14596 0.13554 0.58564 0.0
C613 C 0.21807 0.18933 0.55608 0.0
C614 C 0.8895 1.01725 0.57048 0.0
C615 C 0.88278 0.04078 0.57551 0.0
H616 H 0.87898 0.97595 0.53685 0.0
C617 C 0.8561 0.03742 0.55562 0.0
H618 H 0.90963 0.01886 0.58574 0.0
C619 C 0.83826 1.01248 0.52761 0.0
C620 C 0.84699 0.99069 0.51895 0.0
H621 H 0.85023 0.05512 0.55894 0.0
H622 H 0.81922 1.01167 0.50993 0.0
C623 C 0.87189 0.99258 0.54242 0.0
C624 C 0.82388 0.32608 0.37578 0.0
C625 C 0.84691 0.32418 0.3524 0.0
H626 H 0.8124 0.35237 0.41902 0.0
C627 C 0.87743 0.34596 0.36114 0.0
H628 H 0.80015 0.30946 0.37014 0.0
C629 C 0.88452 0.3709 0.38915 0.0
C630 C 0.86119 0.37427 0.40896 0.0
H631 H 0.89567 0.34513 0.34353 0.0
H632 H 0.90809 0.38857 0.39253 0.0
C633 C 0.83093 0.35075 0.40384 0.0
C634 C 0.69524 0.49015 0.40501 0.0
C635 C 0.67158 0.4967 0.41012 0.0
H636 H 0.73654 0.50083 0.3712 0.0
C637 C 0.67474 0.52327 0.39017 0.0
H638 H 0.69378 0.47011 0.42031 0.0
C639 C 0.6996 0.54115 0.36204 0.0
C640 C 0.72151 0.53258 0.35331 0.0
H641 H 0.65696 0.52901 0.39355 0.0
H642 H 0.70026 0.5601 0.34433 0.0
C643 C 0.71982 0.5078 0.37683 0.0
C644 C 0.55588 0.21394 0.40534 0.0
C645 C 0.54923 0.1837 0.41019 0.0
H646 H 0.54536 0.24476 0.37179 0.0
C647 C 0.52262 0.16042 0.39011 0.0
H648 H 0.57594 0.23243 0.42075 0.0
C649 C 0.50482 0.16756 0.36207 0.0
C650 C 0.51351 0.19808 0.35356 0.0
H651 H 0.51681 0.13687 0.39329 0.0
H652 H 0.48586 0.14937 0.34422 0.0
C653 C 0.5383 0.22104 0.37724 0.0
C654 C 0.66853 0.48169 0.80311 0.0
C655 C 0.66674 0.50478 0.82649 0.0
H656 H 0.69466 0.47008 0.75973 0.0
C657 C 0.68854 0.53525 0.8176 0.0
H658 H 0.65189 0.45799 0.80887 0.0
C659 C 0.7134 0.54225 0.78946 0.0
C660 C 0.71667 0.51887 0.76964 0.0
H661 H 0.6878 0.55353 0.83519 0.0
H662 H 0.73111 0.56579 0.78596 0.0
C663 C 0.69312 0.48865 0.77491 0.0
C664 C 0.50388 0.18072 0.79033 0.0
C665 C 0.52719 0.20745 0.77059 0.0
H666 H 0.49276 0.1438 0.8359 0.0
C667 C 0.55747 0.21425 0.7758 0.0
H668 H 0.4803 0.17478 0.78687 0.0
C669 C 0.56455 0.19666 0.80388 0.0
C670 C 0.54152 0.17169 0.82718 0.0
H671 H 0.57599 0.23443 0.76067 0.0
H672 H 0.58828 0.20381 0.80958 0.0
C673 C 0.511 0.1629 0.81835 0.0
C674 C 0.88337 0.3567 0.81745 0.0
C675 C 0.87465 0.3785 0.82605 0.0
H676 H 0.87143 0.31407 0.78616 0.0
C677 C 0.8498 0.37664 0.80247 0.0
H678 H 0.90238 0.3575 0.83521 0.0
C679 C 0.83222 0.35198 0.77438 0.0
C680 C 0.83892 0.32843 0.76943 0.0
H681 H 0.84271 0.39328 0.808 0.0
H682 H 0.81211 0.35038 0.75906 0.0
C683 C 0.86557 0.33177 0.78942 0.0
C684 C 0.51091 0.35713 0.3183 0.0
C685 C 0.54143 0.37885 0.32718 0.0
H686 H 0.48024 0.31458 0.28676 0.0
C687 C 0.56447 0.3769 0.30391 0.0
H688 H 0.49266 0.35799 0.33582 0.0
C689 C 0.55742 0.35225 0.27581 0.0
C690 C 0.52714 0.32879 0.27054 0.0
H691 H 0.5882 0.39347 0.30965 0.0
H692 H 0.57595 0.35059 0.26071 0.0
C693 C 0.50381 0.33221 0.29026 0.0
C694 C 0.71327 0.17998 0.28946 0.0
C695 C 0.71655 0.20663 0.26962 0.0
H696 H 0.68766 0.14313 0.33523 0.0
C697 C 0.69301 0.21333 0.27489 0.0
H698 H 0.73096 0.17412 0.28596 0.0
C699 C 0.66842 0.19574 0.30311 0.0
C700 C 0.66662 0.17086 0.3265 0.0
H701 H 0.69456 0.23344 0.25969 0.0
H702 H 0.65179 0.20282 0.30885 0.0
C703 C 0.68841 0.16215 0.31761 0.0
C704 C 0.8496 0.48202 0.30254 0.0
C705 C 0.8745 0.50496 0.32609 0.0
H706 H 0.81189 0.47071 0.25922 0.0
C707 C 0.88326 0.5355 0.31754 0.0
H708 H 0.84247 0.45829 0.30803 0.0
C709 C 0.86546 0.54269 0.28958 0.0
C710 C 0.83878 0.51944 0.26962 0.0
H711 H 0.9023 0.55367 0.33528 0.0
H712 H 0.87136 0.56626 0.28636 0.0
C713 C 0.83203 0.48917 0.27452 0.0
C714 C 0.67498 0.16072 0.89007 0.0
C715 C 0.67178 0.18412 0.91001 0.0
H716 H 0.70051 0.14943 0.84421 0.0
C717 C 0.6954 0.21432 0.90485 0.0
H718 H 0.65722 0.1372 0.89349 0.0
C719 C 0.71997 0.22127 0.87663 0.0
C720 C 0.72169 0.19818 0.85313 0.0
H721 H 0.69391 0.2329 0.92012 0.0
H722 H 0.73667 0.24496 0.87096 0.0
C723 C 0.69982 0.16771 0.86191 0.0
C724 C 0.83105 0.48904 0.90399 0.0
C725 C 0.86131 0.49578 0.90913 0.0
H726 H 0.80027 0.49954 0.87027 0.0
C727 C 0.88464 0.52246 0.88931 0.0
H728 H 0.81252 0.4689 0.91919 0.0
C729 C 0.87754 0.5403 0.86128 0.0
C730 C 0.84702 0.53156 0.85252 0.0
H731 H 0.90821 0.52835 0.89271 0.0
H732 H 0.89578 0.55935 0.84367 0.0
C733 C 0.82399 0.50664 0.87591 0.0
C734 C 0.52276 0.37134 0.89022 0.0
C735 C 0.54938 0.37465 0.91025 0.0
H736 H 0.48596 0.34563 0.84439 0.0
C737 C 0.55604 0.35107 0.90535 0.0
H738 H 0.51693 0.38907 0.89344 0.0
C739 C 0.53846 0.32641 0.87727 0.0
C740 C 0.51363 0.32457 0.85364 0.0
H741 H 0.57613 0.35265 0.92071 0.0
H742 H 0.54552 0.30974 0.87178 0.0
C743 C 0.50494 0.34641 0.86219 0.0
C744 C 0.54428 0.67936 0.6949 0.0
C745 C 0.51376 0.65759 0.68612 0.0
H746 H 0.57494 0.72193 0.72638 0.0
C747 C 0.49073 0.65946 0.70956 0.0
H748 H 0.56252 0.67855 0.67725 0.0
C749 C 0.49778 0.68409 0.7377 0.0
C750 C 0.52804 0.7076 0.74284 0.0
H751 H 0.467 0.64285 0.7039 0.0
H752 H 0.47925 0.68569 0.75292 0.0
C753 C 0.55137 0.70425 0.72298 0.0
C754 C 0.36618 0.87362 0.69497 0.0
C755 C 0.38795 0.86489 0.68613 0.0
H756 H 0.3236 0.86167 0.72652 0.0
C757 C 0.38609 0.83998 0.7095 0.0
H758 H 0.36697 0.89267 0.67737 0.0
C759 C 0.36147 0.82238 0.73766 0.0
C760 C 0.33795 0.82911 0.74287 0.0
H761 H 0.40271 0.83288 0.70379 0.0
H762 H 0.35988 0.80225 0.75283 0.0
C763 C 0.34128 0.85579 0.72306 0.0
C764 C 0.20468 0.55414 0.71001 0.0
C765 C 0.17984 0.53112 0.68646 0.0
H766 H 0.2424 0.56563 0.75339 0.0
C767 C 0.17119 0.50062 0.69507 0.0
H768 H 0.21171 0.57784 0.70448 0.0
C769 C 0.18905 0.49354 0.72309 0.0
C770 C 0.21568 0.51688 0.74305 0.0
H771 H 0.1522 0.48239 0.67733 0.0
H772 H 0.18325 0.47 0.72635 0.0
C773 C 0.22231 0.5471 0.73809 0.0
C774 C 0.38005 0.87558 0.12277 0.0
C775 C 0.38337 0.85227 0.10282 0.0
H776 H 0.35435 0.88671 0.16856 0.0
C777 C 0.35981 0.82202 0.10788 0.0
H778 H 0.39775 0.89913 0.11942 0.0
C779 C 0.33517 0.81497 0.13602 0.0
C780 C 0.33333 0.83798 0.15953 0.0
H781 H 0.3614 0.80351 0.09259 0.0
H782 H 0.31853 0.79125 0.14161 0.0
C783 C 0.35513 0.86848 0.15084 0.0
C784 C 0.16977 0.51333 0.12306 0.0
C785 C 0.19313 0.53999 0.10322 0.0
H786 H 0.15858 0.47645 0.16875 0.0
C787 C 0.22338 0.54669 0.10838 0.0
H788 H 0.14622 0.50747 0.11963 0.0
C789 C 0.2304 0.52908 0.13651 0.0
C790 C 0.20735 0.50419 0.15992 0.0
H791 H 0.24193 0.56681 0.09318 0.0
H792 H 0.25412 0.53616 0.14218 0.0
C793 C 0.17684 0.49549 0.15112 0.0
C794 C 0.5496 0.68999 0.15082 0.0
C795 C 0.5409 0.71179 0.15951 0.0
H796 H 0.5376 0.64735 0.11949 0.0
C797 C 0.516 0.70992 0.13606 0.0
H798 H 0.56865 0.6908 0.16848 0.0
C799 C 0.49837 0.68526 0.108 0.0
C800 C 0.50507 0.66171 0.10296 0.0
H801 H 0.50892 0.72657 0.14165 0.0
H802 H 0.47824 0.68365 0.09278 0.0
C803 C 0.53175 0.66505 0.12282 0.0
C804 C 0.16979 0.66502 0.62311 0.0
C805 C 0.19309 0.66163 0.60324 0.0
H806 H 0.1587 0.6908 0.66878 0.0
C807 C 0.22337 0.68513 0.60833 0.0
H808 H 0.14621 0.64736 0.61974 0.0
C809 C 0.23046 0.7098 0.63641 0.0
C810 C 0.20745 0.71172 0.65984 0.0
H811 H 0.24187 0.68349 0.5931 0.0
H812 H 0.25419 0.7264 0.64202 0.0
C813 C 0.17692 0.68996 0.65113 0.0
C814 C 0.35517 0.49562 0.65084 0.0
C815 C 0.33336 0.50431 0.65966 0.0
H816 H 0.39777 0.50763 0.61933 0.0
C817 C 0.33519 0.52921 0.63629 0.0
H818 H 0.35439 0.47658 0.66843 0.0
C819 C 0.35982 0.54684 0.60817 0.0
C820 C 0.38337 0.54015 0.60297 0.0
H821 H 0.31854 0.53627 0.64199 0.0
H822 H 0.36139 0.56696 0.59299 0.0
C823 C 0.38007 0.51348 0.62277 0.0
C824 C 0.51643 0.81494 0.63589 0.0
C825 C 0.54126 0.83797 0.65943 0.0
H826 H 0.47874 0.80341 0.59244 0.0
C827 C 0.54993 0.86846 0.65074 0.0
H828 H 0.50939 0.79123 0.64149 0.0
C829 C 0.53209 0.87552 0.62265 0.0
C830 C 0.50547 0.85217 0.60269 0.0
H831 H 0.56892 0.8867 0.66847 0.0
H832 H 0.5379 0.89906 0.61932 0.0
C833 C 0.49883 0.82195 0.60774 0.0
C834 C 0.34103 0.49375 0.22329 0.0
C835 C 0.3377 0.51708 0.24319 0.0
H836 H 0.36672 0.48261 0.17753 0.0
C837 C 0.36124 0.54732 0.23808 0.0
H838 H 0.32333 0.4702 0.22668 0.0
C839 C 0.38588 0.55436 0.20993 0.0
C840 C 0.38772 0.53134 0.18646 0.0
H841 H 0.35966 0.56584 0.25333 0.0
H842 H 0.40251 0.57808 0.20429 0.0
C843 C 0.36593 0.50084 0.19521 0.0
C844 C 0.49776 0.82262 0.23743 0.0
C845 C 0.52802 0.82931 0.24255 0.0
H846 H 0.46701 0.83316 0.2037 0.0
C847 C 0.55137 0.85596 0.22269 0.0
H848 H 0.47923 0.8025 0.25266 0.0
C849 C 0.54429 0.87381 0.19465 0.0
C850 C 0.51378 0.86512 0.18591 0.0
H851 H 0.57492 0.86181 0.22607 0.0
H852 H 0.56254 0.89284 0.177 0.0
C853 C 0.49074 0.84023 0.20933 0.0
C854 C 0.18928 0.70418 0.22293 0.0
C855 C 0.21595 0.70752 0.24283 0.0
H856 H 0.1524 0.67844 0.17724 0.0
C857 C 0.22265 0.68397 0.2378 0.0
H858 H 0.18342 0.72188 0.22626 0.0
C859 C 0.20503 0.6593 0.20974 0.0
C860 C 0.18014 0.65743 0.18626 0.0
H861 H 0.24277 0.68557 0.25306 0.0
H862 H 0.21211 0.64266 0.20416 0.0
C863 C 0.17143 0.67924 0.19493 0.0
C864 C 0.20956 0.21094 0.27272 0.0
C865 C 0.18025 0.19261 0.29045 0.0
H866 H 0.24304 0.21529 0.22555 0.0
C867 C 0.16191 0.16323 0.27279 0.0
H868 H 0.22437 0.23367 0.28545 0.0
C869 C 0.17287 0.15244 0.23826 0.0
C870 C 0.20222 0.17098 0.2206 0.0
H871 H 0.1393 0.14847 0.28598 0.0
H872 H 0.15826 0.1298 0.2251 0.0
C873 C 0.22034 0.20033 0.23829 0.0
C874 C 0.8346 1.00713 0.27305 0.0
C875 C 0.85284 0.99602 0.29069 0.0
H876 H 0.83037 0.03639 0.226 0.0
C877 C 0.88221 1.00698 0.27299 0.0
H878 H 0.81188 0.99929 0.28581 0.0
C879 C 0.89306 0.02874 0.23849 0.0
C880 C 0.8746 0.03968 0.22092 0.0
H881 H 0.89691 0.99903 0.28611 0.0
H882 H 0.91569 0.0367 0.22529 0.0
C883 C 0.84527 0.02855 0.23867 0.0
C884 C 1.01679 0.82569 0.23958 0.0
C885 C 1.00579 0.84399 0.22185 0.0
H886 H 0.04591 0.82135 0.28679 0.0
C887 C 1.01679 0.87336 0.23953 0.0
H888 H 1.00889 0.80297 0.22683 0.0
C889 C 0.03851 0.88415 0.27411 0.0
C890 C 0.04934 0.86563 0.29178 0.0
H891 H 1.00893 0.8881 0.22634 0.0
H892 H 0.04652 0.90678 0.2873 0.0
C893 C 0.03816 0.8363 0.27405 0.0
C894 C 0.84522 0.82515 0.73942 0.0
C895 C 0.87452 0.84343 0.72162 0.0
H896 H 0.81181 0.82088 0.78665 0.0
C897 C 0.8929 0.87283 0.73919 0.0
H898 H 0.83039 0.8024 0.72675 0.0
C899 C 0.882 0.88367 0.77372 0.0
C900 C 0.85266 0.86517 0.79147 0.0
H901 H 0.9155 0.88756 0.72595 0.0
H902 H 0.89663 0.90633 0.78683 0.0
C903 C 0.8345 0.83581 0.77385 0.0
C904 C 0.22049 0.02899 0.73912 0.0
C905 C 0.20226 0.04011 0.72144 0.0
H906 H 0.22467 0.99972 0.78619 0.0
C907 C 0.17287 0.02914 0.73907 0.0
H908 H 0.24322 0.03685 0.72641 0.0
C909 C 0.16199 1.00736 0.77354 0.0
C910 C 0.18043 0.99642 0.79117 0.0
H911 H 0.15818 0.03709 0.72592 0.0
H912 H 0.13935 0.99939 0.7867 0.0
C913 C 0.20978 1.00756 0.77348 0.0
C914 C 1.01665 0.15219 0.73804 0.0
C915 C 1.00583 0.17071 0.72035 0.0
H916 H 0.04623 0.14824 0.78582 0.0
C917 C 1.01705 0.20006 0.73802 0.0
H918 H 1.00861 0.12955 0.7249 0.0
C919 C 0.03844 0.21069 0.77247 0.0
C920 C 0.04942 0.19237 0.79024 0.0
H921 H 1.00931 0.21501 0.72526 0.0
H922 H 0.04635 0.23342 0.78518 0.0
C923 C 0.03839 0.16299 0.7726 0.0
C924 C 0.87586 0.54409 0.60652 0.0
C925 C 0.84652 0.52587 0.6242 0.0
H926 H 0.9093 0.5483 0.55939 0.0
C927 C 0.82807 0.49653 0.60649 0.0
H928 H 0.89076 0.56679 0.6193 0.0
C929 C 0.83894 0.48568 0.57193 0.0
C930 C 0.86834 0.50411 0.55432 0.0
H931 H 0.80543 0.48185 0.61963 0.0
H932 H 0.82426 0.46307 0.55872 0.0
C933 C 0.88657 0.53342 0.57209 0.0
C934 C 0.50173 0.34127 0.60762 0.0
C935 C 0.51994 0.33016 0.62538 0.0
H936 H 0.49757 0.37048 0.56042 0.0
C937 C 0.54934 0.3411 0.60778 0.0
H938 H 0.479 0.33344 0.62031 0.0
C939 C 0.56024 0.36283 0.57324 0.0
C940 C 0.5418 0.37375 0.55552 0.0
H941 H 0.56402 0.33315 0.62099 0.0
H942 H 0.58287 0.37077 0.5601 0.0
C943 C 0.51245 0.36266 0.57319 0.0
C944 C 0.68332 0.15832 0.57264 0.0
C945 C 0.67224 0.17656 0.55492 0.0
H946 H 0.71255 0.15411 0.61979 0.0
C947 C 0.6832 0.20593 0.57257 0.0
H948 H 0.67547 0.1356 0.55991 0.0
C949 C 0.70496 0.21679 0.60708 0.0
C950 C 0.71588 0.19834 0.62474 0.0
H951 H 0.67527 0.22062 0.55939 0.0
H952 H 0.71293 0.23942 0.62024 0.0
C953 C 0.70473 0.16901 0.60705 0.0
C954 C 0.51262 0.15893 0.07318 0.0
C955 C 0.54196 0.17719 0.0555 0.0
H956 H 0.47915 0.15468 0.12027 0.0
C957 C 0.56036 0.20655 0.0732 0.0
H958 H 0.49776 0.13622 0.06041 0.0
C959 C 0.54944 0.21738 0.10772 0.0
C960 C 0.52005 0.19891 0.12532 0.0
H961 H 0.583 0.22126 0.06005 0.0
H962 H 0.56409 0.24 0.12092 0.0
C963 C 0.50187 0.16959 0.10758 0.0
C964 C 0.88655 0.3618 0.07204 0.0
C965 C 0.86837 0.37295 0.0543 0.0
H966 H 0.89066 0.33253 0.1192 0.0
C967 C 0.83898 0.36204 0.07191 0.0
H968 H 0.90927 0.3696 0.05934 0.0
C969 C 0.82806 0.34029 0.10642 0.0
C970 C 0.84647 0.32933 0.12412 0.0
H971 H 0.82432 0.37002 0.05871 0.0
H972 H 0.80543 0.33238 0.11957 0.0
C973 C 0.8758 0.34039 0.10644 0.0
C974 C 0.68343 0.53418 0.07259 0.0
C975 C 0.67234 0.50484 0.05495 0.0
H976 H 0.71262 0.56763 0.11974 0.0
C977 C 0.68328 0.48643 0.07271 0.0
H978 H 0.67559 0.54904 0.05978 0.0
C979 C 0.705 0.49733 0.10727 0.0
C980 C 0.71591 0.52671 0.12486 0.0
H981 H 0.67535 0.4638 0.05959 0.0
H982 H 0.71295 0.48267 0.12051 0.0
C983 C 0.7048 0.54491 0.10705 0.0
C984 C 0.4949 0.83004 0.93997 0.0
C985 C 0.51332 0.85942 0.95757 0.0
H986 H 0.49112 0.79653 0.89233 0.0
C987 C 0.54263 0.87767 0.9398 0.0
H988 H 0.47229 0.81534 0.95319 0.0
C989 C 0.55334 0.86697 0.90539 0.0
C990 C 0.53515 0.83762 0.88775 0.0
H991 H 0.5575 0.9004 0.95248 0.0
H992 H 0.57604 0.88188 0.89262 0.0
C993 C 0.50578 0.81917 0.90545 0.0
C994 C 0.17863 0.69534 0.90585 0.0
C995 C 0.20796 0.70641 0.88814 0.0
H996 H 0.14518 0.66615 0.953 0.0
C997 C 0.22637 0.69545 0.90581 0.0
H998 H 0.16376 0.7032 0.89311 0.0
C999 C 0.21547 0.67371 0.94034 0.0
C1000 C 0.1861 0.66281 0.95799 0.0
H1001 H 0.249 0.70336 0.89264 0.0
H1002 H 0.23013 0.66574 0.95352 0.0
C1003 C 0.1679 0.67395 0.94027 0.0
C1004 C 0.3711 0.50237 0.94031 0.0
C1005 C 0.38217 0.53168 0.95805 0.0
H1006 H 0.34194 0.46898 0.89308 0.0
C1007 C 0.37123 0.55011 0.94036 0.0
H1008 H 0.37894 0.48749 0.95307 0.0
C1009 C 0.34952 0.53924 0.90577 0.0
C1010 C 0.33864 0.50989 0.88808 0.0
H1011 H 0.37915 0.57272 0.95354 0.0
H1012 H 0.34158 0.55391 0.89257 0.0
C1013 C 0.34974 0.49168 0.90583 0.0
C1014 C 0.21523 0.55008 0.44052 0.0
C1015 C 0.18585 0.53164 0.45816 0.0
H1016 H 0.24874 0.55392 0.39281 0.0
C1017 C 0.16763 0.50232 0.44043 0.0
H1018 H 0.2299 0.5727 0.45371 0.0
C1019 C 0.17834 0.49164 0.406 0.0
C1020 C 0.20767 0.50987 0.3883 0.0
H1021 H 0.14491 0.48743 0.45316 0.0
H1022 H 0.16345 0.46893 0.39325 0.0
C1023 C 0.22611 0.53923 0.40598 0.0
C1024 C 0.54262 0.67405 0.44002 0.0
C1025 C 0.51329 0.66297 0.45774 0.0
H1026 H 0.57604 0.70323 0.39283 0.0
C1027 C 0.49485 0.6739 0.44006 0.0
H1028 H 0.55751 0.66623 0.45277 0.0
C1029 C 0.50572 0.69561 0.40549 0.0
C1030 C 0.53509 0.70652 0.38783 0.0
H1031 H 0.47222 0.66597 0.45323 0.0
H1032 H 0.49104 0.70355 0.3923 0.0
C1033 C 0.55332 0.69542 0.40557 0.0
C1034 C 0.37133 0.87741 0.44009 0.0
C1035 C 0.38246 0.85919 0.45775 0.0
H1036 H 0.34209 0.88162 0.39296 0.0
C1037 C 0.37155 0.82985 0.44002 0.0
H1038 H 0.37914 0.90011 0.45288 0.0
C1039 C 0.34981 0.819 0.40548 0.0
C1040 C 0.33886 0.83744 0.38787 0.0
H1041 H 0.37951 0.81517 0.45316 0.0
H1042 H 0.34188 0.79639 0.39226 0.0
C1043 C 0.34994 0.86674 0.40565 0.0
C1044 C 0.35988 0.21094 0.16065 0.0
C1045 C 0.33485 0.18208 0.15112 0.0
H1046 H 0.40471 0.2364 0.18851 0.0
C1047 C 0.33638 0.15616 0.16352 0.0
H1048 H 0.35943 0.23141 0.15188 0.0
C1049 C 0.3623 0.15904 0.18488 0.0
C1050 C 0.38733 0.1879 0.19441 0.0
H1051 H 0.31747 0.13358 0.15703 0.0
H1052 H 0.36275 0.13857 0.19365 0.0
C1053 C 0.38579 0.21382 0.18201 0.0
C1054 C 0.8864 0.21179 0.18491 0.0
C1055 C 0.8575 0.20792 0.19437 0.0
H1056 H 0.91192 0.19244 0.15725 0.0
C1057 C 0.83159 0.18042 0.18206 0.0
H1058 H 0.90685 0.23275 0.19361 0.0
C1059 C 0.83452 0.15738 0.16086 0.0
C1060 C 0.86341 0.16125 0.15139 0.0
H1061 H 0.80899 0.17673 0.18851 0.0
H1062 H 0.81406 0.13642 0.15215 0.0
C1063 C 0.88932 0.18875 0.1637 0.0
C1064 C 0.83365 0.68423 0.1854 0.0
C1065 C 0.83745 0.65917 0.1948 0.0
H1066 H 0.85308 0.72911 0.15777 0.0
C1067 C 0.86491 0.6607 0.18241 0.0
H1068 H 0.81272 0.68379 0.19417 0.0
C1069 C 0.88799 0.68663 0.16119 0.0
C1070 C 0.88418 0.71169 0.15178 0.0
H1071 H 0.86855 0.64176 0.18882 0.0
H1072 H 0.90891 0.68707 0.15243 0.0
C1073 C 0.85672 0.71017 0.16418 0.0
C1074 C 0.2227 0.37592 0.33037 0.0
C1075 C 0.19677 0.37747 0.318 0.0
H1076 H 0.24029 0.34949 0.36025 0.0
C1077 C 0.16789 0.35239 0.32732 0.0
H1078 H 0.24529 0.39487 0.32403 0.0
C1079 C 0.165 0.32642 0.34844 0.0
C1080 C 0.19093 0.32488 0.36081 0.0
H1081 H 0.14741 0.35286 0.31856 0.0
H1082 H 0.14241 0.30747 0.35478 0.0
C1083 C 0.21981 0.34995 0.35149 0.0
C1084 C 0.66928 0.85537 0.33005 0.0
C1085 C 0.66767 0.82788 0.31772 0.0
H1086 H 0.69577 0.89937 0.35997 0.0
C1087 C 0.69271 0.82401 0.32715 0.0
H1088 H 0.65037 0.85907 0.32363 0.0
C1089 C 0.71869 0.84705 0.34834 0.0
C1090 C 0.72029 0.87454 0.36068 0.0
H1091 H 0.6922 0.80306 0.31843 0.0
H1092 H 0.7376 0.84336 0.35477 0.0
C1093 C 0.69526 0.87841 0.35124 0.0
C1094 C 0.18988 0.8226 0.33068 0.0
C1095 C 0.21735 0.84849 0.31827 0.0
H1096 H 0.14591 0.80505 0.36077 0.0
C1097 C 0.22122 0.87737 0.32776 0.0
H1098 H 0.18618 0.8 0.32421 0.0
C1099 C 0.1982 0.88029 0.34908 0.0
C1100 C 0.17073 0.85439 0.36148 0.0
H1101 H 0.24216 0.89783 0.31898 0.0
H1102 H 0.2019 0.90288 0.35554 0.0
C1103 C 0.16685 0.82551 0.352 0.0
C1104 C 0.69514 0.8254 0.85199 0.0
C1105 C 0.72021 0.85427 0.86137 0.0
H1106 H 0.65025 0.79994 0.82432 0.0
C1107 C 0.71869 0.88018 0.84891 0.0
H1108 H 0.69558 0.80493 0.8608 0.0
C1109 C 0.69276 0.8773 0.82764 0.0
C1110 C 0.66768 0.84844 0.81825 0.0
H1111 H 0.73764 0.90276 0.8553 0.0
H1112 H 0.69232 0.89777 0.81882 0.0
C1113 C 0.6692 0.82252 0.83071 0.0
C1114 C 0.16826 0.8242 0.82748 0.0
C1115 C 0.19713 0.828 0.81803 0.0
H1116 H 0.14281 0.84364 0.85509 0.0
C1117 C 0.22307 0.85547 0.83033 0.0
H1118 H 0.14777 0.80327 0.81878 0.0
C1119 C 0.22021 0.87855 0.85151 0.0
C1120 C 0.19134 0.87475 0.86096 0.0
H1121 H 0.24565 0.85911 0.8239 0.0
H1122 H 0.24069 0.89949 0.86021 0.0
C1123 C 0.1654 0.84728 0.84865 0.0
C1124 C 0.18987 0.37576 0.83014 0.0
C1125 C 0.21738 0.3774 0.81775 0.0
H1126 H 0.14587 0.34924 0.86007 0.0
C1127 C 0.22128 0.35239 0.8271 0.0
H1128 H 0.18615 0.39466 0.82377 0.0
C1129 C 0.19825 0.3264 0.84826 0.0
C1130 C 0.17074 0.32476 0.86065 0.0
H1131 H 0.24225 0.35292 0.81833 0.0
H1132 H 0.20196 0.3075 0.85462 0.0
C1133 C 0.16684 0.34977 0.8513 0.0
C1134 C 0.83466 0.68593 0.66092 0.0
C1135 C 0.86356 0.71097 0.65155 0.0
H1136 H 0.80913 0.64104 0.68847 0.0
C1137 C 0.88946 0.70937 0.66391 0.0
H1138 H 0.8142 0.68643 0.65218 0.0
C1139 C 0.88654 0.6834 0.68507 0.0
C1140 C 0.85764 0.65836 0.69445 0.0
H1141 H 0.91207 0.72829 0.65753 0.0
H1142 H 0.907 0.68289 0.69382 0.0
C1143 C 0.83173 0.65996 0.68209 0.0
C1144 C 0.33632 0.18923 0.66406 0.0
C1145 C 0.3348 0.16177 0.65174 0.0
H1146 H 0.36269 0.23322 0.69404 0.0
C1147 C 0.35985 0.15796 0.66126 0.0
H1148 H 0.31738 0.19287 0.65757 0.0
C1149 C 0.38578 0.18103 0.68252 0.0
C1150 C 0.38731 0.20848 0.69485 0.0
H1151 H 0.35941 0.13703 0.65255 0.0
H1152 H 0.40472 0.17738 0.68902 0.0
C1153 C 0.36225 0.21229 0.68532 0.0
C1154 C 0.85676 0.15578 0.66346 0.0
C1155 C 0.8842 0.18171 0.65099 0.0
H1156 H 0.81281 0.13818 0.69363 0.0
C1157 C 0.88801 0.21057 0.66044 0.0
H1158 H 0.85311 0.13321 0.65703 0.0
C1159 C 0.86497 0.21344 0.68179 0.0
C1160 C 0.83754 0.18752 0.69426 0.0
H1161 H 0.90892 0.23104 0.65162 0.0
H1162 H 0.86862 0.23602 0.68822 0.0
C1163 C 0.83372 0.15866 0.68481 0.0
C1164 C 0.02831 0.49194 0.51832 0.0
C1165 C 0.05337 0.52079 0.52784 0.0
H1166 H 0.98346 0.46653 0.49054 0.0
C1167 C 0.05185 0.54673 0.51549 0.0
H1168 H 0.02875 0.47146 0.52706 0.0
C1169 C 1.02594 0.54388 0.4942 0.0
C1170 C 1.00088 0.51503 0.48468 0.0
H1171 H 0.07079 0.5693 0.52198 0.0
H1172 H 1.0255 0.56437 0.48546 0.0
C1173 C 1.00239 0.4891 0.49703 0.0
C1174 C 0.55344 0.54552 0.5185 0.0
C1175 C 0.52451 0.54161 0.52787 0.0
H1176 H 0.57903 0.52621 0.49099 0.0
C1177 C 0.49864 0.5141 0.51552 0.0
H1178 H 0.57387 0.56648 0.52724 0.0
C1179 C 0.50162 0.49107 0.49438 0.0
C1180 C 0.53054 0.49498 0.48502 0.0
H1181 H 0.47602 0.51039 0.5219 0.0
H1182 H 0.48118 0.47011 0.48565 0.0
C1183 C 0.55641 0.52249 0.49737 0.0
C1184 C 0.52321 0.04261 0.49731 0.0
C1185 C 0.55067 0.04416 0.48487 0.0
H1186 H 0.47922 1.01618 0.52731 0.0
C1187 C 0.5545 0.01911 0.4942 0.0
H1188 H 0.51955 0.06154 0.49096 0.0
C1189 C 0.53145 0.99315 0.5154 0.0
C1190 C 0.50398 0.99159 0.52784 0.0
H1191 H 0.57544 0.01958 0.4854 0.0
H1192 H 0.53511 0.97422 0.52174 0.0
C1193 C 0.50015 1.01665 0.5185 0.0
C1194 C 0.50176 0.0197 0.9944 0.0
C1195 C 0.53069 0.04469 0.98504 0.0
H1196 H 0.47614 0.9748 0.0219 0.0
C1197 C 0.55655 0.04301 0.99738 0.0
H1198 H 0.48133 0.02026 0.98567 0.0
C1199 C 0.55356 1.017 0.0185 0.0
C1200 C 0.52462 0.99201 0.02786 0.0
H1201 H 0.57918 0.06189 0.99101 0.0
H1202 H 0.57398 1.01644 0.02723 0.0
C1203 C 0.49876 0.99368 0.01552 0.0
C1204 C 1.02608 0.49075 0.99428 0.0
C1205 C 1.00102 0.49457 0.98477 0.0
H1206 H 0.07095 0.51017 0.022 0.0
C1207 C 1.00256 0.52203 0.99709 0.0
H1208 H 1.02563 0.46982 0.98557 0.0
C1209 C 0.0285 0.5451 0.01834 0.0
C1210 C 0.05355 0.54128 0.02784 0.0
H1211 H 0.98363 0.52569 0.99061 0.0
H1212 H 0.02895 0.56603 0.02704 0.0
C1213 C 0.05202 0.51382 0.01552 0.0
C1214 C 0.55438 0.54418 0.99422 0.0
C1215 C 0.55065 0.51534 0.98485 0.0
H1216 H 0.53487 0.56955 0.02185 0.0
C1217 C 0.52323 0.48938 0.99731 0.0
H1218 H 0.57527 0.56467 0.98541 0.0
C1219 C 0.50014 0.4922 0.01855 0.0
C1220 C 0.50387 0.52104 0.02793 0.0
H1221 H 0.51965 0.46682 0.99093 0.0
H1222 H 0.47925 0.4717 0.02737 0.0
C1223 C 0.53128 0.54699 0.01547 0.0
loop_
_geom_bond_atom_site_label_1
_geom_bond_atom_site_label_2
_geom_bond_distance
_geom_bond_site_symmetry_2
_ccdc_geom_bond_type
O0 Cd1 2.223 . S
O0 C8 1.315 . S
Cd1 O0 2.223 . S
Cd1 O4 2.297 . S
Cd1 O5 2.439 . S
Cd1 O11 2.240 . S
Cd2 O3 2.240 . S
Cd2 O10 2.223 . S
Cd2 O12 2.297 . S
Cd2 O13 2.439 . S
O3 Cd2 2.240 . S
O3 C8 1.279 . S
O4 Cd1 2.297 . S
O4 C6 1.247 . S
O5 Cd1 2.439 . S
O5 C6 1.208 . S
C6 O4 1.247 . S
C6 O5 1.208 . S
C7 O12 1.247 . S
C7 O13 1.208 . S
C8 O0 1.315 . S
C8 O3 1.279 . S
C9 O10 1.315 . S
C9 O11 1.279 . S
O10 Cd2 2.223 . S
O10 C9 1.315 . S
O11 Cd1 2.240 . S
O11 C9 1.279 . S
O12 Cd2 2.297 . S
O12 C7 1.247 . S
O13 Cd2 2.439 . S
O13 C7 1.208 . S
O14 Cd15 2.223 . S
O14 C22 1.315 . S
Cd15 O14 2.223 . S
Cd15 O18 2.297 . S
Cd15 O19 2.439 . S
Cd15 O25 2.240 . S
Cd16 O17 2.240 . S
Cd16 O24 2.223 . S
Cd16 O26 2.297 . S
Cd16 O27 2.439 . S
O17 Cd16 2.240 . S
O17 C22 1.279 . S
O18 Cd15 2.297 . S
O18 C20 1.247 . S
O19 Cd15 2.439 . S
O19 C20 1.208 . S
C20 O18 1.247 . S
C20 O19 1.208 . S
C21 O26 1.247 . S
C21 O27 1.208 . S
C22 O14 1.315 . S
C22 O17 1.279 . S
C23 O24 1.315 . S
C23 O25 1.279 . S
O24 Cd16 2.223 . S
O24 C23 1.315 . S
O25 Cd15 2.240 . S
O25 C23 1.279 . S
O26 Cd16 2.297 . S
O26 C21 1.247 . S
O27 Cd16 2.439 . S
O27 C21 1.208 . S
O28 Cd29 2.223 . S
O28 C36 1.315 . S
Cd29 O28 2.223 . S
Cd29 O32 2.297 . S
Cd29 O33 2.439 . S
Cd29 O39 2.240 . S
Cd30 O31 2.240 . S
Cd30 O38 2.223 . S
Cd30 O40 2.297 . S
Cd30 O41 2.439 . S
O31 Cd30 2.240 . S
O31 C36 1.279 . S
O32 Cd29 2.297 . S
O32 C34 1.247 . S
O33 Cd29 2.439 . S
O33 C34 1.208 . S
C34 O32 1.247 . S
C34 O33 1.208 . S
C35 O40 1.247 . S
C35 O41 1.208 . S
C36 O28 1.315 . S
C36 O31 1.279 . S
C37 O38 1.315 . S
C37 O39 1.279 . S
O38 Cd30 2.223 . S
O38 C37 1.315 . S
O39 Cd29 2.240 . S
O39 C37 1.279 . S
O40 Cd30 2.297 . S
O40 C35 1.247 . S
O41 Cd30 2.439 . S
O41 C35 1.208 . S
O42 Cd43 2.223 . S
O42 C50 1.315 . S
Cd43 O42 2.223 . S
Cd43 O46 2.297 . S
Cd43 O47 2.439 . S
Cd43 O53 2.240 . S
Cd44 O45 2.240 . S
Cd44 O52 2.223 . S
Cd44 O54 2.297 . S
Cd44 O55 2.439 . S
O45 Cd44 2.240 . S
O45 C50 1.279 . S
O46 Cd43 2.297 . S
O46 C48 1.247 . S
O47 Cd43 2.439 . S
O47 C48 1.208 . S
C48 O46 1.247 . S
C48 O47 1.208 . S
C49 O54 1.247 . S
C49 O55 1.208 . S
C50 O42 1.315 . S
C50 O45 1.279 . S
C51 O52 1.315 . S
C51 O53 1.279 . S
O52 Cd44 2.223 . S
O52 C51 1.315 . S
O53 Cd43 2.240 . S
O53 C51 1.279 . S
O54 Cd44 2.297 . S
O54 C49 1.247 . S
O55 Cd44 2.439 . S
O55 C49 1.208 . S
O56 Cd57 2.223 . S
O56 C64 1.315 . S
Cd57 O56 2.223 . S
Cd57 O60 2.297 . S
Cd57 O61 2.439 . S
Cd57 O67 2.240 . S
Cd58 O59 2.240 . S
Cd58 O66 2.223 . S
Cd58 O68 2.297 . S
Cd58 O69 2.439 . S
O59 Cd58 2.240 . S
O59 C64 1.279 . S
O60 Cd57 2.297 . S
O60 C62 1.247 . S
O61 Cd57 2.439 . S
O61 C62 1.208 . S
C62 O60 1.247 . S
C62 O61 1.208 . S
C63 O68 1.247 . S
C63 O69 1.208 . S
C64 O56 1.315 . S
C64 O59 1.279 . S
C65 O66 1.315 . S
C65 O67 1.279 . S
O66 Cd58 2.223 . S
O66 C65 1.315 . S
O67 Cd57 2.240 . S
O67 C65 1.279 . S
O68 Cd58 2.297 . S
O68 C63 1.247 . S
O69 Cd58 2.439 . S
O69 C63 1.208 . S
O70 Cd71 2.223 . S
O70 C78 1.315 . S
Cd71 O70 2.223 . S
Cd71 O74 2.297 . S
Cd71 O75 2.439 . S
Cd71 O81 2.240 . S
Cd72 O73 2.240 . S
Cd72 O80 2.223 . S
Cd72 O82 2.297 . S
Cd72 O83 2.439 . S
O73 Cd72 2.240 . S
O73 C78 1.279 . S
O74 Cd71 2.297 . S
O74 C76 1.247 . S
O75 Cd71 2.439 . S
O75 C76 1.208 . S
C76 O74 1.247 . S
C76 O75 1.208 . S
C77 O82 1.247 . S
C77 O83 1.208 . S
C78 O70 1.315 . S
C78 O73 1.279 . S
C79 O80 1.315 . S
C79 O81 1.279 . S
O80 Cd72 2.223 . S
O80 C79 1.315 . S
O81 Cd71 2.240 . S
O81 C79 1.279 . S
O82 Cd72 2.297 . S
O82 C77 1.247 . S
O83 Cd72 2.439 . S
O83 C77 1.208 . S
O84 Cd85 2.223 . S
O84 C92 1.315 . S
Cd85 O84 2.223 . S
Cd85 O88 2.297 . S
Cd85 O89 2.439 . S
Cd85 O95 2.240 . S
Cd86 O87 2.240 . S
Cd86 O94 2.223 . S
Cd86 O96 2.297 . S
Cd86 O97 2.439 . S
O87 Cd86 2.240 . S
O87 C92 1.279 . S
O88 Cd85 2.297 . S
O88 C90 1.247 . S
O89 Cd85 2.439 . S
O89 C90 1.208 . S
C90 O88 1.247 . S
C90 O89 1.208 . S
C91 O96 1.247 . S
C91 O97 1.208 . S
C92 O84 1.315 . S
C92 O87 1.279 . S
C93 O94 1.315 . S
C93 O95 1.279 . S
O94 Cd86 2.223 . S
O94 C93 1.315 . S
O95 Cd85 2.240 . S
O95 C93 1.279 . S
O96 Cd86 2.297 . S
O96 C91 1.247 . S
O97 Cd86 2.439 . S
O97 C91 1.208 . S
O98 Cd99 2.223 . S
O98 C106 1.315 . S
Cd99 O98 2.223 . S
Cd99 O102 2.297 . S
Cd99 O103 2.439 . S
Cd99 O109 2.240 . S
Cd100 O101 2.240 . S
Cd100 O108 2.223 . S
Cd100 O110 2.297 . S
Cd100 O111 2.439 . S
O101 Cd100 2.240 . S
O101 C106 1.279 . S
O102 Cd99 2.297 . S
O102 C104 1.247 . S
O103 Cd99 2.439 . S
O103 C104 1.208 . S
C104 O102 1.247 . S
C104 O103 1.208 . S
C105 O110 1.247 . S
C105 O111 1.208 . S
C106 O98 1.315 . S
C106 O101 1.279 . S
C107 O108 1.315 . S
C107 O109 1.279 . S
O108 Cd100 2.223 . S
O108 C107 1.315 . S
O109 Cd99 2.240 . S
O109 C107 1.279 . S
O110 Cd100 2.297 . S
O110 C105 1.247 . S
O111 Cd100 2.439 . S
O111 C105 1.208 . S
O112 Cd113 2.223 . S
O112 C120 1.315 . S
Cd113 O112 2.223 . S
Cd113 O116 2.297 . S
Cd113 O117 2.439 . S
Cd113 O123 2.240 . S
Cd114 O115 2.240 . S
Cd114 O122 2.223 . S
Cd114 O124 2.297 . S
Cd114 O125 2.439 . S
O115 Cd114 2.240 . S
O115 C120 1.279 . S
O116 Cd113 2.297 . S
O116 C118 1.247 . S
O117 Cd113 2.439 . S
O117 C118 1.208 . S
C118 O116 1.247 . S
C118 O117 1.208 . S
C119 O124 1.247 . S
C119 O125 1.208 . S
C120 O112 1.315 . S
C120 O115 1.279 . S
C121 O122 1.315 . S
C121 O123 1.279 . S
O122 Cd114 2.223 . S
O122 C121 1.315 . S
O123 Cd113 2.240 . S
O123 C121 1.279 . S
O124 Cd114 2.297 . S
O124 C119 1.247 . S
O125 Cd114 2.439 . S
O125 C119 1.208 . S
O126 Cd127 2.223 . S
O126 C134 1.315 . S
Cd127 O126 2.223 . S
Cd127 O130 2.297 . S
Cd127 O131 2.439 . S
Cd127 O137 2.240 . S
Cd128 O129 2.240 . S
Cd128 O136 2.223 . S
Cd128 O138 2.297 . S
Cd128 O139 2.439 . S
O129 Cd128 2.240 . S
O129 C134 1.279 . S
O130 Cd127 2.297 . S
O130 C132 1.247 . S
O131 Cd127 2.439 . S
O131 C132 1.208 . S
C132 O130 1.247 . S
C132 O131 1.208 . S
C133 O138 1.247 . S
C133 O139 1.208 . S
C134 O126 1.315 . S
C134 O129 1.279 . S
C135 O136 1.315 . S
C135 O137 1.279 . S
O136 Cd128 2.223 . S
O136 C135 1.315 . S
O137 Cd127 2.240 . S
O137 C135 1.279 . S
O138 Cd128 2.297 . S
O138 C133 1.247 . S
O139 Cd128 2.439 . S
O139 C133 1.208 . S
O140 Cd141 2.223 . S
O140 C148 1.315 . S
Cd141 O140 2.223 . S
Cd141 O144 2.297 . S
Cd141 O145 2.439 . S
Cd141 O151 2.240 . S
Cd142 O143 2.240 . S
Cd142 O150 2.223 . S
Cd142 O152 2.297 . S
Cd142 O153 2.439 . S
O143 Cd142 2.240 . S
O143 C148 1.279 . S
O144 Cd141 2.297 . S
O144 C146 1.247 . S
O145 Cd141 2.439 . S
O145 C146 1.208 . S
C146 O144 1.247 . S
C146 O145 1.208 . S
C147 O152 1.247 . S
C147 O153 1.208 . S
C148 O140 1.315 . S
C148 O143 1.279 . S
C149 O150 1.315 . S
C149 O151 1.279 . S
O150 Cd142 2.223 . S
O150 C149 1.315 . S
O151 Cd141 2.240 . S
O151 C149 1.279 . S
O152 Cd142 2.297 . S
O152 C147 1.247 . S
O153 Cd142 2.439 . S
O153 C147 1.208 . S
O154 Cd155 2.223 . S
O154 C162 1.315 . S
Cd155 O154 2.223 . S
Cd155 O158 2.297 . S
Cd155 O159 2.439 . S
Cd155 O165 2.240 . S
Cd156 O157 2.240 . S
Cd156 O164 2.223 . S
Cd156 O166 2.297 . S
Cd156 O167 2.439 . S
O157 Cd156 2.240 . S
O157 C162 1.279 . S
O158 Cd155 2.297 . S
O158 C160 1.247 . S
O159 Cd155 2.439 . S
O159 C160 1.208 . S
C160 O158 1.247 . S
C160 O159 1.208 . S
C161 O166 1.247 . S
C161 O167 1.208 . S
C162 O154 1.315 . S
C162 O157 1.279 . S
C163 O164 1.315 . S
C163 O165 1.279 . S
O164 Cd156 2.223 . S
O164 C163 1.315 . S
O165 Cd155 2.240 . S
O165 C163 1.279 . S
O166 Cd156 2.297 . S
O166 C161 1.247 . S
O167 Cd156 2.439 . S
O167 C161 1.208 . S
O168 Cd169 2.223 . S
O168 C176 1.315 . S
Cd169 O168 2.223 . S
Cd169 O172 2.297 . S
Cd169 O173 2.439 . S
Cd169 O179 2.240 . S
Cd170 O171 2.240 . S
Cd170 O178 2.223 . S
Cd170 O180 2.297 . S
Cd170 O181 2.439 . S
O171 Cd170 2.240 . S
O171 C176 1.279 . S
O172 Cd169 2.297 . S
O172 C174 1.247 . S
O173 Cd169 2.439 . S
O173 C174 1.208 . S
C174 O172 1.247 . S
C174 O173 1.208 . S
C175 O180 1.247 . S
C175 O181 1.208 . S
C176 O168 1.315 . S
C176 O171 1.279 . S
C177 O178 1.315 . S
C177 O179 1.279 . S
O178 Cd170 2.223 . S
O178 C177 1.315 . S
O179 Cd169 2.240 . S
O179 C177 1.279 . S
O180 Cd170 2.297 . S
O180 C175 1.247 . S
O181 Cd170 2.439 . S
O181 C175 1.208 . S
O182 Cd183 2.223 . S
O182 C190 1.315 . S
Cd183 O182 2.223 . S
Cd183 O186 2.297 . S
Cd183 O187 2.439 . S
Cd183 O193 2.240 . S
Cd184 O185 2.240 . S
Cd184 O192 2.223 . S
Cd184 O194 2.297 . S
Cd184 O195 2.439 . S
O185 Cd184 2.240 . S
O185 C190 1.279 . S
O186 Cd183 2.297 . S
O186 C188 1.247 . S
O187 Cd183 2.439 . S
O187 C188 1.208 . S
C188 O186 1.247 . S
C188 O187 1.208 . S
C189 O194 1.247 . S
C189 O195 1.208 . S
C190 O182 1.315 . S
C190 O185 1.279 . S
C191 O192 1.315 . S
C191 O193 1.279 . S
O192 Cd184 2.223 . S
O192 C191 1.315 . S
O193 Cd183 2.240 . S
O193 C191 1.279 . S
O194 Cd184 2.297 . S
O194 C189 1.247 . S
O195 Cd184 2.439 . S
O195 C189 1.208 . S
O196 Cd197 2.223 . S
O196 C204 1.315 . S
Cd197 O196 2.223 . S
Cd197 O200 2.297 . S
Cd197 O201 2.439 . S
Cd197 O207 2.240 . S
Cd198 O199 2.240 . S
Cd198 O206 2.223 . S
Cd198 O208 2.297 . S
Cd198 O209 2.439 . S
O199 Cd198 2.240 . S
O199 C204 1.279 . S
O200 Cd197 2.297 . S
O200 C202 1.247 . S
O201 Cd197 2.439 . S
O201 C202 1.208 . S
C202 O200 1.247 . S
C202 O201 1.208 . S
C203 O208 1.247 . S
C203 O209 1.208 . S
C204 O196 1.315 . S
C204 O199 1.279 . S
C205 O206 1.315 . S
C205 O207 1.279 . S
O206 Cd198 2.223 . S
O206 C205 1.315 . S
O207 Cd197 2.240 . S
O207 C205 1.279 . S
O208 Cd198 2.297 . S
O208 C203 1.247 . S
O209 Cd198 2.439 . S
O209 C203 1.208 . S
O210 Cd211 2.223 . S
O210 C218 1.315 . S
Cd211 O210 2.223 . S
Cd211 O214 2.297 . S
Cd211 O215 2.439 . S
Cd211 O221 2.240 . S
Cd212 O213 2.240 . S
Cd212 O220 2.223 . S
Cd212 O222 2.297 . S
Cd212 O223 2.439 . S
O213 Cd212 2.240 . S
O213 C218 1.279 . S
O214 Cd211 2.297 . S
O214 C216 1.247 . S
O215 Cd211 2.439 . S
O215 C216 1.208 . S
C216 O214 1.247 . S
C216 O215 1.208 . S
C217 O222 1.247 . S
C217 O223 1.208 . S
C218 O210 1.315 . S
C218 O213 1.279 . S
C219 O220 1.315 . S
C219 O221 1.279 . S
O220 Cd212 2.223 . S
O220 C219 1.315 . S
O221 Cd211 2.240 . S
O221 C219 1.279 . S
O222 Cd212 2.297 . S
O222 C217 1.247 . S
O223 Cd212 2.439 . S
O223 C217 1.208 . S
O224 Cd225 2.223 . S
O224 C232 1.315 . S
Cd225 O224 2.223 . S
Cd225 O228 2.297 . S
Cd225 O229 2.439 . S
Cd225 O235 2.240 . S
Cd226 O227 2.240 . S
Cd226 O234 2.223 . S
Cd226 O236 2.297 . S
Cd226 O237 2.439 . S
O227 Cd226 2.240 . S
O227 C232 1.279 . S
O228 Cd225 2.297 . S
O228 C230 1.247 . S
O229 Cd225 2.439 . S
O229 C230 1.208 . S
C230 O228 1.247 . S
C230 O229 1.208 . S
C231 O236 1.247 . S
C231 O237 1.208 . S
C232 O224 1.315 . S
C232 O227 1.279 . S
C233 O234 1.315 . S
C233 O235 1.279 . S
O234 Cd226 2.223 . S
O234 C233 1.315 . S
O235 Cd225 2.240 . S
O235 C233 1.279 . S
O236 Cd226 2.297 . S
O236 C231 1.247 . S
O237 Cd226 2.439 . S
O237 C231 1.208 . S
O238 Cd239 2.223 . S
O238 C246 1.315 . S
Cd239 O238 2.223 . S
Cd239 O242 2.297 . S
Cd239 O243 2.439 . S
Cd239 O249 2.240 . S
Cd240 O241 2.240 . S
Cd240 O248 2.223 . S
Cd240 O250 2.297 . S
Cd240 O251 2.439 . S
O241 Cd240 2.240 . S
O241 C246 1.279 . S
O242 Cd239 2.297 . S
O242 C244 1.247 . S
O243 Cd239 2.439 . S
O243 C244 1.208 . S
C244 O242 1.247 . S
C244 O243 1.208 . S
C245 O250 1.247 . S
C245 O251 1.208 . S
C246 O238 1.315 . S
C246 O241 1.279 . S
C247 O248 1.315 . S
C247 O249 1.279 . S
O248 Cd240 2.223 . S
O248 C247 1.315 . S
O249 Cd239 2.240 . S
O249 C247 1.279 . S
O250 Cd240 2.297 . S
O250 C245 1.247 . S
O251 Cd240 2.439 . S
O251 C245 1.208 . S
O252 Cd253 2.223 . S
O252 C260 1.315 . S
Cd253 O252 2.223 . S
Cd253 O256 2.297 . S
Cd253 O257 2.439 . S
Cd253 O263 2.240 . S
Cd254 O255 2.240 . S
Cd254 O262 2.223 . S
Cd254 O264 2.297 . S
Cd254 O265 2.439 . S
O255 Cd254 2.240 . S
O255 C260 1.279 . S
O256 Cd253 2.297 . S
O256 C258 1.247 . S
O257 Cd253 2.439 . S
O257 C258 1.208 . S
C258 O256 1.247 . S
C258 O257 1.208 . S
C259 O264 1.247 . S
C259 O265 1.208 . S
C260 O252 1.315 . S
C260 O255 1.279 . S
C261 O262 1.315 . S
C261 O263 1.279 . S
O262 Cd254 2.223 . S
O262 C261 1.315 . S
O263 Cd253 2.240 . S
O263 C261 1.279 . S
O264 Cd254 2.297 . S
O264 C259 1.247 . S
O265 Cd254 2.439 . S
O265 C259 1.208 . S
O266 Cd267 2.223 . S
O266 C274 1.315 . S
Cd267 O266 2.223 . S
Cd267 O270 2.297 . S
Cd267 O271 2.439 . S
Cd267 O277 2.240 . S
Cd268 O269 2.240 . S
Cd268 O276 2.223 . S
Cd268 O278 2.297 . S
Cd268 O279 2.439 . S
O269 Cd268 2.240 . S
O269 C274 1.279 . S
O270 Cd267 2.297 . S
O270 C272 1.247 . S
O271 Cd267 2.439 . S
O271 C272 1.208 . S
C272 O270 1.247 . S
C272 O271 1.208 . S
C273 O278 1.247 . S
C273 O279 1.208 . S
C274 O266 1.315 . S
C274 O269 1.279 . S
C275 O276 1.315 . S
C275 O277 1.279 . S
O276 Cd268 2.223 . S
O276 C275 1.315 . S
O277 Cd267 2.240 . S
O277 C275 1.279 . S
O278 Cd268 2.297 . S
O278 C273 1.247 . S
O279 Cd268 2.439 . S
O279 C273 1.208 . S
O280 Cd281 2.223 . S
O280 C288 1.315 . S
Cd281 O280 2.223 . S
Cd281 O284 2.297 . S
Cd281 O285 2.439 . S
Cd281 O291 2.240 . S
Cd282 O283 2.240 . S
Cd282 O290 2.223 . S
Cd282 O292 2.297 . S
Cd282 O293 2.439 . S
O283 Cd282 2.240 . S
O283 C288 1.279 . S
O284 Cd281 2.297 . S
O284 C286 1.247 . S
O285 Cd281 2.439 . S
O285 C286 1.208 . S
C286 O284 1.247 . S
C286 O285 1.208 . S
C287 O292 1.247 . S
C287 O293 1.208 . S
C288 O280 1.315 . S
C288 O283 1.279 . S
C289 O290 1.315 . S
C289 O291 1.279 . S
O290 Cd282 2.223 . S
O290 C289 1.315 . S
O291 Cd281 2.240 . S
O291 C289 1.279 . S
O292 Cd282 2.297 . S
O292 C287 1.247 . S
O293 Cd282 2.439 . S
O293 C287 1.208 . S
O294 Cd295 2.223 . S
O294 C302 1.315 1_556 S
Cd295 O294 2.223 . S
Cd295 O298 2.297 . S
Cd295 O299 2.439 . S
Cd295 O305 2.240 . S
Cd296 O297 2.240 . S
Cd296 O304 2.223 . S
Cd296 O306 2.297 . S
Cd296 O307 2.439 . S
O297 Cd296 2.240 . S
O297 C302 1.279 1_556 S
O298 Cd295 2.297 . S
O298 C300 1.247 . S
O299 Cd295 2.439 . S
O299 C300 1.208 . S
C300 O298 1.247 . S
C300 O299 1.208 . S
C301 O306 1.247 . S
C301 O307 1.208 . S
C302 O294 1.315 1_554 S
C302 O297 1.279 1_554 S
C303 O304 1.315 . S
C303 O305 1.279 . S
O304 Cd296 2.223 . S
O304 C303 1.315 . S
O305 Cd295 2.240 . S
O305 C303 1.279 . S
O306 Cd296 2.297 . S
O306 C301 1.247 . S
O307 Cd296 2.439 . S
O307 C301 1.208 . S
O308 Cd309 2.223 . S
O308 C316 1.315 1_556 S
Cd309 O308 2.223 . S
Cd309 O312 2.297 . S
Cd309 O313 2.439 . S
Cd309 O319 2.240 . S
Cd310 O311 2.240 . S
Cd310 O318 2.223 . S
Cd310 O320 2.297 . S
Cd310 O321 2.439 . S
O311 Cd310 2.240 . S
O311 C316 1.279 1_556 S
O312 Cd309 2.297 . S
O312 C314 1.247 . S
O313 Cd309 2.439 . S
O313 C314 1.208 . S
C314 O312 1.247 . S
C314 O313 1.208 . S
C315 O320 1.247 . S
C315 O321 1.208 . S
C316 O308 1.315 1_554 S
C316 O311 1.279 1_554 S
C317 O318 1.315 . S
C317 O319 1.279 . S
O318 Cd310 2.223 . S
O318 C317 1.315 . S
O319 Cd309 2.240 . S
O319 C317 1.279 . S
O320 Cd310 2.297 . S
O320 C315 1.247 . S
O321 Cd310 2.439 . S
O321 C315 1.208 . S
O322 Cd323 2.223 . S
O322 C330 1.315 1_556 S
Cd323 O322 2.223 . S
Cd323 O326 2.297 . S
Cd323 O327 2.439 . S
Cd323 O333 2.240 . S
Cd324 O325 2.240 . S
Cd324 O332 2.223 . S
Cd324 O334 2.297 . S
Cd324 O335 2.439 . S
O325 Cd324 2.240 . S
O325 C330 1.279 1_556 S
O326 Cd323 2.297 . S
O326 C328 1.247 . S
O327 Cd323 2.439 . S
O327 C328 1.208 . S
C328 O326 1.247 . S
C328 O327 1.208 . S
C329 O334 1.247 . S
C329 O335 1.208 . S
C330 O322 1.315 1_554 S
C330 O325 1.279 1_554 S
C331 O332 1.315 . S
C331 O333 1.279 . S
O332 Cd324 2.223 . S
O332 C331 1.315 . S
O333 Cd323 2.240 . S
O333 C331 1.279 . S
O334 Cd324 2.297 . S
O334 C329 1.247 . S
O335 Cd324 2.439 . S
O335 C329 1.208 . S
O336 Cd337 2.223 . S
O336 C344 1.315 . S
Cd337 O336 2.223 . S
Cd337 O340 2.297 . S
Cd337 O341 2.439 . S
Cd337 O347 2.240 . S
Cd338 O339 2.240 . S
Cd338 O346 2.223 . S
Cd338 O348 2.297 . S
Cd338 O349 2.439 . S
O339 Cd338 2.240 . S
O339 C344 1.279 . S
O340 Cd337 2.297 . S
O340 C342 1.247 . S
O341 Cd337 2.439 . S
O341 C342 1.208 . S
C342 O340 1.247 . S
C342 O341 1.208 . S
C343 O348 1.247 . S
C343 O349 1.208 . S
C344 O336 1.315 . S
C344 O339 1.279 . S
C345 O346 1.315 . S
C345 O347 1.279 . S
O346 Cd338 2.223 . S
O346 C345 1.315 . S
O347 Cd337 2.240 . S
O347 C345 1.279 . S
O348 Cd338 2.297 . S
O348 C343 1.247 . S
O349 Cd338 2.439 . S
O349 C343 1.208 . S
O350 Cd351 2.223 . S
O350 C358 1.315 . S
Cd351 O350 2.223 . S
Cd351 O354 2.297 . S
Cd351 O355 2.439 . S
Cd351 O361 2.240 . S
Cd352 O353 2.240 . S
Cd352 O360 2.223 . S
Cd352 O362 2.297 . S
Cd352 O363 2.439 . S
O353 Cd352 2.240 . S
O353 C358 1.279 . S
O354 Cd351 2.297 . S
O354 C356 1.247 . S
O355 Cd351 2.439 . S
O355 C356 1.208 . S
C356 O354 1.247 . S
C356 O355 1.208 . S
C357 O362 1.247 . S
C357 O363 1.208 . S
C358 O350 1.315 . S
C358 O353 1.279 . S
C359 O360 1.315 . S
C359 O361 1.279 . S
O360 Cd352 2.223 . S
O360 C359 1.315 . S
O361 Cd351 2.240 . S
O361 C359 1.279 . S
O362 Cd352 2.297 . S
O362 C357 1.247 . S
O363 Cd352 2.439 . S
O363 C357 1.208 . S
O364 Cd365 2.223 . S
O364 C372 1.315 . S
Cd365 O364 2.223 . S
Cd365 O368 2.297 . S
Cd365 O369 2.439 . S
Cd365 O375 2.240 . S
Cd366 O367 2.240 . S
Cd366 O374 2.223 . S
Cd366 O376 2.297 . S
Cd366 O377 2.439 . S
O367 Cd366 2.240 . S
O367 C372 1.279 . S
O368 Cd365 2.297 . S
O368 C370 1.247 . S
O369 Cd365 2.439 . S
O369 C370 1.208 . S
C370 O368 1.247 . S
C370 O369 1.208 . S
C371 O376 1.247 . S
C371 O377 1.208 . S
C372 O364 1.315 . S
C372 O367 1.279 . S
C373 O374 1.315 . S
C373 O375 1.279 . S
O374 Cd366 2.223 . S
O374 C373 1.315 . S
O375 Cd365 2.240 . S
O375 C373 1.279 . S
O376 Cd366 2.297 . S
O376 C371 1.247 . S
O377 Cd366 2.439 . S
O377 C371 1.208 . S
O378 Cd379 2.223 . S
O378 C386 1.315 1_554 S
Cd379 O378 2.223 . S
Cd379 O382 2.297 . S
Cd379 O383 2.439 . S
Cd379 O389 2.240 . S
Cd380 O381 2.240 . S
Cd380 O388 2.223 . S
Cd380 O390 2.297 . S
Cd380 O391 2.439 . S
O381 Cd380 2.240 . S
O381 C386 1.279 1_554 S
O382 Cd379 2.297 . S
O382 C384 1.247 . S
O383 Cd379 2.439 . S
O383 C384 1.208 . S
C384 O382 1.247 . S
C384 O383 1.208 . S
C385 O390 1.247 . S
C385 O391 1.208 . S
C386 O378 1.315 1_556 S
C386 O381 1.279 1_556 S
C387 O388 1.315 . S
C387 O389 1.279 . S
O388 Cd380 2.223 . S
O388 C387 1.315 . S
O389 Cd379 2.240 . S
O389 C387 1.279 . S
O390 Cd380 2.297 . S
O390 C385 1.247 . S
O391 Cd380 2.439 . S
O391 C385 1.208 . S
O392 Cd393 2.223 . S
O392 C400 1.315 1_554 S
Cd393 O392 2.223 . S
Cd393 O396 2.297 . S
Cd393 O397 2.439 . S
Cd393 O403 2.240 . S
Cd394 O395 2.240 . S
Cd394 O402 2.223 . S
Cd394 O404 2.297 . S
Cd394 O405 2.439 . S
O395 Cd394 2.240 . S
O395 C400 1.279 1_554 S
O396 Cd393 2.297 . S
O396 C398 1.247 . S
O397 Cd393 2.439 . S
O397 C398 1.208 . S
C398 O396 1.247 . S
C398 O397 1.208 . S
C399 O404 1.247 . S
C399 O405 1.208 . S
C400 O392 1.315 1_556 S
C400 O395 1.279 1_556 S
C401 O402 1.315 . S
C401 O403 1.279 . S
O402 Cd394 2.223 . S
O402 C401 1.315 . S
O403 Cd393 2.240 . S
O403 C401 1.279 . S
O404 Cd394 2.297 . S
O404 C399 1.247 . S
O405 Cd394 2.439 . S
O405 C399 1.208 . S
O406 Cd407 2.223 . S
O406 C414 1.315 1_554 S
Cd407 O406 2.223 . S
Cd407 O410 2.297 . S
Cd407 O411 2.439 . S
Cd407 O417 2.240 . S
Cd408 O409 2.240 . S
Cd408 O416 2.223 . S
Cd408 O418 2.297 . S
Cd408 O419 2.439 . S
O409 Cd408 2.240 . S
O409 C414 1.279 1_554 S
O410 Cd407 2.297 . S
O410 C412 1.247 . S
O411 Cd407 2.439 . S
O411 C412 1.208 . S
C412 O410 1.247 . S
C412 O411 1.208 . S
C413 O418 1.247 . S
C413 O419 1.208 . S
C414 O406 1.315 1_556 S
C414 O409 1.279 1_556 S
C415 O416 1.315 . S
C415 O417 1.279 . S
O416 Cd408 2.223 . S
O416 C415 1.315 . S
O417 Cd407 2.240 . S
O417 C415 1.279 . S
O418 Cd408 2.297 . S
O418 C413 1.247 . S
O419 Cd408 2.439 . S
O419 C413 1.208 . S
O420 Cd421 2.223 . S
O420 C428 1.315 . S
Cd421 O420 2.223 . S
Cd421 O424 2.297 . S
Cd421 O425 2.439 . S
Cd421 O431 2.240 . S
Cd422 O423 2.240 . S
Cd422 O430 2.223 . S
Cd422 O432 2.297 . S
Cd422 O433 2.439 . S
O423 Cd422 2.240 . S
O423 C428 1.279 . S
O424 Cd421 2.297 . S
O424 C426 1.247 . S
O425 Cd421 2.439 . S
O425 C426 1.208 . S
C426 O424 1.247 . S
C426 O425 1.208 . S
C427 O432 1.247 . S
C427 O433 1.208 . S
C428 O420 1.315 . S
C428 O423 1.279 . S
C429 O430 1.315 . S
C429 O431 1.279 . S
O430 Cd422 2.223 . S
O430 C429 1.315 . S
O431 Cd421 2.240 . S
O431 C429 1.279 . S
O432 Cd422 2.297 . S
O432 C427 1.247 . S
O433 Cd422 2.439 . S
O433 C427 1.208 . S
O434 Cd435 2.223 . S
O434 C442 1.315 . S
Cd435 O434 2.223 . S
Cd435 O438 2.297 . S
Cd435 O439 2.439 . S
Cd435 O445 2.240 . S
Cd436 O437 2.240 . S
Cd436 O444 2.223 . S
Cd436 O446 2.297 . S
Cd436 O447 2.439 . S
O437 Cd436 2.240 . S
O437 C442 1.279 . S
O438 Cd435 2.297 . S
O438 C440 1.247 . S
O439 Cd435 2.439 . S
O439 C440 1.208 . S
C440 O438 1.247 . S
C440 O439 1.208 . S
C441 O446 1.247 . S
C441 O447 1.208 . S
C442 O434 1.315 . S
C442 O437 1.279 . S
C443 O444 1.315 . S
C443 O445 1.279 . S
O444 Cd436 2.223 . S
O444 C443 1.315 . S
O445 Cd435 2.240 . S
O445 C443 1.279 . S
O446 Cd436 2.297 . S
O446 C441 1.247 . S
O447 Cd436 2.439 . S
O447 C441 1.208 . S
O448 Cd449 2.223 . S
O448 C456 1.315 . S
Cd449 O448 2.223 . S
Cd449 O452 2.297 . S
Cd449 O453 2.439 . S
Cd449 O459 2.240 . S
Cd450 O451 2.240 . S
Cd450 O458 2.223 . S
Cd450 O460 2.297 . S
Cd450 O461 2.439 . S
O451 Cd450 2.240 . S
O451 C456 1.279 . S
O452 Cd449 2.297 . S
O452 C454 1.247 . S
O453 Cd449 2.439 . S
O453 C454 1.208 . S
C454 O452 1.247 . S
C454 O453 1.208 . S
C455 O460 1.247 . S
C455 O461 1.208 . S
C456 O448 1.315 . S
C456 O451 1.279 . S
C457 O458 1.315 . S
C457 O459 1.279 . S
O458 Cd450 2.223 . S
O458 C457 1.315 . S
O459 Cd449 2.240 . S
O459 C457 1.279 . S
O460 Cd450 2.297 . S
O460 C455 1.247 . S
O461 Cd450 2.439 . S
O461 C455 1.208 . S
O462 Cd463 2.223 . S
O462 C470 1.315 . S
Cd463 O462 2.223 . S
Cd463 O466 2.297 . S
Cd463 O467 2.439 . S
Cd463 O473 2.240 . S
Cd464 O465 2.240 . S
Cd464 O472 2.223 . S
Cd464 O474 2.297 . S
Cd464 O475 2.439 . S
O465 Cd464 2.240 . S
O465 C470 1.279 . S
O466 Cd463 2.297 . S
O466 C468 1.247 . S
O467 Cd463 2.439 . S
O467 C468 1.208 . S
C468 O466 1.247 . S
C468 O467 1.208 . S
C469 O474 1.247 . S
C469 O475 1.208 . S
C470 O462 1.315 . S
C470 O465 1.279 . S
C471 O472 1.315 . S
C471 O473 1.279 . S
O472 Cd464 2.223 . S
O472 C471 1.315 . S
O473 Cd463 2.240 . S
O473 C471 1.279 . S
O474 Cd464 2.297 . S
O474 C469 1.247 . S
O475 Cd464 2.439 . S
O475 C469 1.208 . S
O476 Cd477 2.223 . S
O476 C484 1.315 . S
Cd477 O476 2.223 . S
Cd477 O480 2.297 . S
Cd477 O481 2.439 . S
Cd477 O487 2.240 . S
Cd478 O479 2.240 . S
Cd478 O486 2.223 . S
Cd478 O488 2.297 . S
Cd478 O489 2.439 . S
O479 Cd478 2.240 . S
O479 C484 1.279 . S
O480 Cd477 2.297 . S
O480 C482 1.247 . S
O481 Cd477 2.439 . S
O481 C482 1.208 . S
C482 O480 1.247 . S
C482 O481 1.208 . S
C483 O488 1.247 . S
C483 O489 1.208 . S
C484 O476 1.315 . S
C484 O479 1.279 . S
C485 O486 1.315 . S
C485 O487 1.279 . S
O486 Cd478 2.223 . S
O486 C485 1.315 . S
O487 Cd477 2.240 . S
O487 C485 1.279 . S
O488 Cd478 2.297 . S
O488 C483 1.247 . S
O489 Cd478 2.439 . S
O489 C483 1.208 . S
O490 Cd491 2.223 . S
O490 C498 1.315 . S
Cd491 O490 2.223 . S
Cd491 O494 2.297 . S
Cd491 O495 2.439 . S
Cd491 O501 2.240 . S
Cd492 O493 2.240 . S
Cd492 O500 2.223 . S
Cd492 O502 2.297 . S
Cd492 O503 2.439 . S
O493 Cd492 2.240 . S
O493 C498 1.279 . S
O494 Cd491 2.297 . S
O494 C496 1.247 . S
O495 Cd491 2.439 . S
O495 C496 1.208 . S
C496 O494 1.247 . S
C496 O495 1.208 . S
C497 O502 1.247 . S
C497 O503 1.208 . S
C498 O490 1.315 . S
C498 O493 1.279 . S
C499 O500 1.315 . S
C499 O501 1.279 . S
O500 Cd492 2.223 . S
O500 C499 1.315 . S
O501 Cd491 2.240 . S
O501 C499 1.279 . S
O502 Cd492 2.297 . S
O502 C497 1.247 . S
O503 Cd492 2.439 . S
O503 C497 1.208 . S
C504 C505 1.387 1_556 S
C504 H508 0.950 . S
C504 C513 1.390 . S
C505 C504 1.387 1_554 S
C505 C507 1.387 . S
H506 C513 0.950 . S
C507 C505 1.387 . S
C507 C509 1.390 1_545 S
C507 H511 0.950 . S
H508 C504 0.950 . S
C509 C507 1.390 1_565 S
C509 C510 1.387 1_554 S
C509 H512 0.950 . S
C510 C509 1.387 1_556 S
C510 C513 1.387 1_565 S
H511 C507 0.950 . S
H512 C509 0.950 . S
C513 C504 1.390 . S
C513 H506 0.950 . S
C513 C510 1.387 1_545 S
C514 C515 1.387 1_556 S
C514 H518 0.950 . S
C514 C523 1.390 . S
C515 C514 1.387 1_554 S
C515 C517 1.387 . S
H516 C523 0.950 . S
C517 C515 1.387 . S
C517 C519 1.390 1_655 S
C517 H521 0.950 . S
H518 C514 0.950 . S
C519 C517 1.390 1_455 S
C519 C520 1.387 1_554 S
C519 H522 0.950 . S
C520 C519 1.387 1_556 S
C520 C523 1.387 1_455 S
H521 C517 0.950 . S
H522 C519 0.950 . S
C523 C514 1.390 . S
C523 H516 0.950 . S
C523 C520 1.387 1_655 S
C524 C525 1.387 . S
C524 H528 0.950 . S
C524 C533 1.390 . S
C525 C524 1.387 . S
C525 C527 1.387 . S
H526 C533 0.950 . S
C527 C525 1.387 . S
C527 C529 1.390 1_556 S
C527 H531 0.950 . S
H528 C524 0.950 . S
C529 C527 1.390 1_554 S
C529 C530 1.387 . S
C529 H532 0.950 . S
C530 C529 1.387 . S
C530 C533 1.387 1_554 S
H531 C527 0.950 . S
H532 C529 0.950 . S
C533 C524 1.390 . S
C533 H526 0.950 . S
C533 C530 1.387 1_556 S
C534 C535 1.387 1_455 S
C534 H538 0.950 . S
C534 C543 1.390 . S
C535 C534 1.387 1_655 S
C535 C537 1.387 . S
H536 C543 0.950 . S
C537 C535 1.387 . S
C537 C539 1.390 1_655 S
C537 H541 0.950 . S
H538 C534 0.950 . S
C539 C537 1.390 1_455 S
C539 C540 1.387 . S
C539 H542 0.950 . S
C540 C539 1.387 . S
C540 C543 1.387 . S
H541 C537 0.950 . S
H542 C539 0.950 . S
C543 C534 1.390 . S
C543 H536 0.950 . S
C543 C540 1.387 . S
C544 C545 1.387 . S
C544 H548 0.950 . S
C544 C553 1.390 . S
C545 C544 1.387 . S
C545 C547 1.387 . S
H546 C553 0.950 . S
C547 C545 1.387 . S
C547 C549 1.390 . S
C547 H551 0.950 . S
H548 C544 0.950 . S
C549 C547 1.390 . S
C549 C550 1.387 . S
C549 H552 0.950 . S
C550 C549 1.387 . S
C550 C553 1.387 . S
H551 C547 0.950 . S
H552 C549 0.950 . S
C553 C544 1.390 . S
C553 H546 0.950 . S
C553 C550 1.387 . S
C554 C555 1.387 . S
C554 H558 0.950 . S
C554 C563 1.390 . S
C555 C554 1.387 . S
C555 C557 1.387 . S
H556 C563 0.950 . S
C557 C555 1.387 . S
C557 C559 1.390 1_565 S
C557 H561 0.950 . S
H558 C554 0.950 . S
C559 C557 1.390 1_545 S
C559 C560 1.387 . S
C559 H562 0.950 . S
C560 C559 1.387 . S
C560 C563 1.387 1_545 S
H561 C557 0.950 . S
H562 C559 0.950 . S
C563 C554 1.390 . S
C563 H556 0.950 . S
C563 C560 1.387 1_565 S
C564 C565 1.387 1_565 S
C564 H568 0.950 . S
C564 C573 1.390 . S
C565 C564 1.387 1_545 S
C565 C567 1.387 1_554 S
H566 C573 0.950 . S
C567 C565 1.387 1_556 S
C567 C569 1.390 1_545 S
C567 H571 0.950 . S
H568 C564 0.950 . S
C569 C567 1.390 1_565 S
C569 C570 1.387 . S
C569 H572 0.950 . S
C570 C569 1.387 . S
C570 C573 1.387 1_556 S
H571 C567 0.950 . S
H572 C569 0.950 . S
C573 C564 1.390 . S
C573 H566 0.950 . S
C573 C570 1.387 1_554 S
C574 C575 1.387 1_455 S
C574 H578 0.931 1_455 S
C574 C583 1.390 . S
C575 C574 1.387 1_655 S
C575 C577 1.397 . S
H576 C583 0.950 . S
C577 C575 1.397 . S
C577 C579 1.381 1_654 S
C577 H581 0.950 . S
H578 C574 0.931 1_655 S
C579 C577 1.381 1_456 S
C579 C580 1.387 . S
C579 H582 0.950 . S
C580 C579 1.387 . S
C580 C583 1.387 1_556 S
H581 C577 0.950 . S
H582 C579 0.950 . S
C583 C574 1.390 . S
C583 H576 0.950 . S
C583 C580 1.387 1_554 S
C584 C585 1.387 . S
C584 H588 0.950 . S
C584 C593 1.378 1_556 S
C585 C584 1.387 . S
C585 C587 1.387 1_556 S
H586 C593 0.947 1_556 S
C587 C585 1.387 1_554 S
C587 C589 1.390 . S
C587 H591 0.950 . S
H588 C584 0.950 . S
C589 C587 1.390 . S
C589 C590 1.387 . S
C589 H592 0.950 . S
C590 C589 1.387 . S
C590 C593 1.403 . S
H591 C587 0.950 . S
H592 C589 0.950 . S
C593 C584 1.378 1_554 S
C593 H586 0.947 1_554 S
C593 C590 1.403 . S
C594 C595 1.387 . S
C594 H598 0.950 . S
C594 C603 1.390 1_655 S
C595 C594 1.387 . S
C595 C597 1.387 . S
H596 C603 0.950 . S
C597 C595 1.387 . S
C597 C599 1.390 . S
C597 H601 0.950 . S
H598 C594 0.950 . S
C599 C597 1.390 . S
C599 C600 1.387 1_655 S
C599 H602 0.950 . S
C600 C599 1.387 1_455 S
C600 C603 1.387 . S
H601 C597 0.950 . S
H602 C599 0.950 . S
C603 C594 1.390 1_455 S
C603 H596 0.950 . S
C603 C600 1.387 . S
C604 C605 1.387 . S
C604 H608 0.950 . S
C604 C613 1.390 . S
C605 C604 1.387 . S
C605 C607 1.387 . S
H606 C613 0.950 . S
C607 C605 1.387 . S
C607 C609 1.390 . S
C607 H611 0.950 . S
H608 C604 0.950 . S
C609 C607 1.390 . S
C609 C610 1.387 . S
C609 H612 0.950 . S
C610 C609 1.387 . S
C610 C613 1.387 . S
H611 C607 0.950 . S
H612 C609 0.950 . S
C613 C604 1.390 . S
C613 H606 0.950 . S
C613 C610 1.387 . S
C614 C615 1.387 . S
C614 H618 0.950 . S
C614 C623 1.390 1_545 S
C615 C614 1.387 . S
C615 C617 1.387 . S
H616 C623 0.950 . S
C617 C615 1.387 . S
C617 C619 1.390 . S
C617 H621 0.950 . S
H618 C614 0.950 . S
C619 C617 1.390 . S
C619 C620 1.387 1_545 S
C619 H622 0.950 . S
C620 C619 1.387 1_565 S
C620 C623 1.387 . S
H621 C617 0.950 . S
H622 C619 0.950 . S
C623 C614 1.390 1_565 S
C623 H616 0.950 . S
C623 C620 1.387 . S
C624 C625 1.387 . S
C624 H628 0.950 . S
C624 C633 1.390 . S
C625 C624 1.387 . S
C625 C627 1.387 . S
H626 C633 0.950 . S
C627 C625 1.387 . S
C627 C629 1.390 . S
C627 H631 0.950 . S
H628 C624 0.950 . S
C629 C627 1.390 . S
C629 C630 1.387 . S
C629 H632 0.950 . S
C630 C629 1.387 . S
C630 C633 1.387 . S
H631 C627 0.950 . S
H632 C629 0.950 . S
C633 C624 1.390 . S
C633 H626 0.950 . S
C633 C630 1.387 . S
C634 C635 1.387 . S
C634 H638 0.950 . S
C634 C643 1.390 . S
C635 C634 1.387 . S
C635 C637 1.387 . S
H636 C643 0.950 . S
C637 C635 1.387 . S
C637 C639 1.390 . S
C637 H641 0.950 . S
H638 C634 0.950 . S
C639 C637 1.390 . S
C639 C640 1.387 . S
C639 H642 0.950 . S
C640 C639 1.387 . S
C640 C643 1.387 . S
H641 C637 0.950 . S
H642 C639 0.950 . S
C643 C634 1.390 . S
C643 H636 0.950 . S
C643 C640 1.387 . S
C644 C645 1.387 . S
C644 H648 0.950 . S
C644 C653 1.390 . S
C645 C644 1.387 . S
C645 C647 1.387 . S
H646 C653 0.950 . S
C647 C645 1.387 . S
C647 C649 1.390 . S
C647 H651 0.950 . S
H648 C644 0.950 . S
C649 C647 1.390 . S
C649 C650 1.387 . S
C649 H652 0.950 . S
C650 C649 1.387 . S
C650 C653 1.387 . S
H651 C647 0.950 . S
H652 C649 0.950 . S
C653 C644 1.390 . S
C653 H646 0.950 . S
C653 C650 1.387 . S
C654 C655 1.387 . S
C654 H658 0.950 . S
C654 C663 1.390 . S
C655 C654 1.387 . S
C655 C657 1.387 . S
H656 C663 0.950 . S
C657 C655 1.387 . S
C657 C659 1.390 . S
C657 H661 0.950 . S
H658 C654 0.950 . S
C659 C657 1.390 . S
C659 C660 1.387 . S
C659 H662 0.950 . S
C660 C659 1.387 . S
C660 C663 1.387 . S
H661 C657 0.950 . S
H662 C659 0.950 . S
C663 C654 1.390 . S
C663 H656 0.950 . S
C663 C660 1.387 . S
C664 C665 1.387 . S
C664 H668 0.950 . S
C664 C673 1.390 . S
C665 C664 1.387 . S
C665 C667 1.387 . S
H666 C673 0.950 . S
C667 C665 1.387 . S
C667 C669 1.390 . S
C667 H671 0.950 . S
H668 C664 0.950 . S
C669 C667 1.390 . S
C669 C670 1.387 . S
C669 H672 0.950 . S
C670 C669 1.387 . S
C670 C673 1.387 . S
H671 C667 0.950 . S
H672 C669 0.950 . S
C673 C664 1.390 . S
C673 H666 0.950 . S
C673 C670 1.387 . S
C674 C675 1.387 . S
C674 H678 0.950 . S
C674 C683 1.390 . S
C675 C674 1.387 . S
C675 C677 1.387 . S
H676 C683 0.950 . S
C677 C675 1.387 . S
C677 C679 1.390 . S
C677 H681 0.950 . S
H678 C674 0.950 . S
C679 C677 1.390 . S
C679 C680 1.387 . S
C679 H682 0.950 . S
C680 C679 1.387 . S
C680 C683 1.387 . S
H681 C677 0.950 . S
H682 C679 0.950 . S
C683 C674 1.390 . S
C683 H676 0.950 . S
C683 C680 1.387 . S
C684 C685 1.387 . S
C684 H688 0.950 . S
C684 C693 1.390 . S
C685 C684 1.387 . S
C685 C687 1.387 . S
H686 C693 0.950 . S
C687 C685 1.387 . S
C687 C689 1.390 . S
C687 H691 0.950 . S
H688 C684 0.950 . S
C689 C687 1.390 . S
C689 C690 1.387 . S
C689 H692 0.950 . S
C690 C689 1.387 . S
C690 C693 1.387 . S
H691 C687 0.950 . S
H692 C689 0.950 . S
C693 C684 1.390 . S
C693 H686 0.950 . S
C693 C690 1.387 . S
C694 C695 1.387 . S
C694 H698 0.950 . S
C694 C703 1.390 . S
C695 C694 1.387 . S
C695 C697 1.387 . S
H696 C703 0.950 . S
C697 C695 1.387 . S
C697 C699 1.390 . S
C697 H701 0.950 . S
H698 C694 0.950 . S
C699 C697 1.390 . S
C699 C700 1.387 . S
C699 H702 0.950 . S
C700 C699 1.387 . S
C700 C703 1.387 . S
H701 C697 0.950 . S
H702 C699 0.950 . S
C703 C694 1.390 . S
C703 H696 0.950 . S
C703 C700 1.387 . S
C704 C705 1.387 . S
C704 H708 0.950 . S
C704 C713 1.390 . S
C705 C704 1.387 . S
C705 C707 1.387 . S
H706 C713 0.950 . S
C707 C705 1.387 . S
C707 C709 1.390 . S
C707 H711 0.950 . S
H708 C704 0.950 . S
C709 C707 1.390 . S
C709 C710 1.387 . S
C709 H712 0.950 . S
C710 C709 1.387 . S
C710 C713 1.387 . S
H711 C707 0.950 . S
H712 C709 0.950 . S
C713 C704 1.390 . S
C713 H706 0.950 . S
C713 C710 1.387 . S
C714 C715 1.387 . S
C714 H718 0.950 . S
C714 C723 1.390 . S
C715 C714 1.387 . S
C715 C717 1.387 . S
H716 C723 0.950 . S
C717 C715 1.387 . S
C717 C719 1.390 . S
C717 H721 0.950 . S
H718 C714 0.950 . S
C719 C717 1.390 . S
C719 C720 1.387 . S
C719 H722 0.950 . S
C720 C719 1.387 . S
C720 C723 1.387 . S
H721 C717 0.950 . S
H722 C719 0.950 . S
C723 C714 1.390 . S
C723 H716 0.950 . S
C723 C720 1.387 . S
C724 C725 1.387 . S
C724 H728 0.950 . S
C724 C733 1.390 . S
C725 C724 1.387 . S
C725 C727 1.387 . S
H726 C733 0.950 . S
C727 C725 1.387 . S
C727 C729 1.390 . S
C727 H731 0.950 . S
H728 C724 0.950 . S
C729 C727 1.390 . S
C729 C730 1.387 . S
C729 H732 0.950 . S
C730 C729 1.387 . S
C730 C733 1.387 . S
H731 C727 0.950 . S
H732 C729 0.950 . S
C733 C724 1.390 . S
C733 H726 0.950 . S
C733 C730 1.387 . S
C734 C735 1.387 . S
C734 H738 0.950 . S
C734 C743 1.390 . S
C735 C734 1.387 . S
C735 C737 1.387 . S
H736 C743 0.950 . S
C737 C735 1.387 . S
C737 C739 1.390 . S
C737 H741 0.950 . S
H738 C734 0.950 . S
C739 C737 1.390 . S
C739 C740 1.387 . S
C739 H742 0.950 . S
C740 C739 1.387 . S
C740 C743 1.387 . S
H741 C737 0.950 . S
H742 C739 0.950 . S
C743 C734 1.390 . S
C743 H736 0.950 . S
C743 C740 1.387 . S
C744 C745 1.387 . S
C744 H748 0.950 . S
C744 C753 1.390 . S
C745 C744 1.387 . S
C745 C747 1.387 . S
H746 C753 0.950 . S
C747 C745 1.387 . S
C747 C749 1.390 . S
C747 H751 0.950 . S
H748 C744 0.950 . S
C749 C747 1.390 . S
C749 C750 1.387 . S
C749 H752 0.950 . S
C750 C749 1.387 . S
C750 C753 1.387 . S
H751 C747 0.950 . S
H752 C749 0.950 . S
C753 C744 1.390 . S
C753 H746 0.950 . S
C753 C750 1.387 . S
C754 C755 1.387 . S
C754 H758 0.950 . S
C754 C763 1.390 . S
C755 C754 1.387 . S
C755 C757 1.387 . S
H756 C763 0.950 . S
C757 C755 1.387 . S
C757 C759 1.390 . S
C757 H761 0.950 . S
H758 C754 0.950 . S
C759 C757 1.390 . S
C759 C760 1.387 . S
C759 H762 0.950 . S
C760 C759 1.387 . S
C760 C763 1.387 . S
H761 C757 0.950 . S
H762 C759 0.950 . S
C763 C754 1.390 . S
C763 H756 0.950 . S
C763 C760 1.387 . S
C764 C765 1.387 . S
C764 H768 0.950 . S
C764 C773 1.390 . S
C765 C764 1.387 . S
C765 C767 1.387 . S
H766 C773 0.950 . S
C767 C765 1.387 . S
C767 C769 1.390 . S
C767 H771 0.950 . S
H768 C764 0.950 . S
C769 C767 1.390 . S
C769 C770 1.387 . S
C769 H772 0.950 . S
C770 C769 1.387 . S
C770 C773 1.387 . S
H771 C767 0.950 . S
H772 C769 0.950 . S
C773 C764 1.390 . S
C773 H766 0.950 . S
C773 C770 1.387 . S
C774 C775 1.387 . S
C774 H778 0.950 . S
C774 C783 1.390 . S
C775 C774 1.387 . S
C775 C777 1.387 . S
H776 C783 0.950 . S
C777 C775 1.387 . S
C777 C779 1.390 . S
C777 H781 0.950 . S
H778 C774 0.950 . S
C779 C777 1.390 . S
C779 C780 1.387 . S
C779 H782 0.950 . S
C780 C779 1.387 . S
C780 C783 1.387 . S
H781 C777 0.950 . S
H782 C779 0.950 . S
C783 C774 1.390 . S
C783 H776 0.950 . S
C783 C780 1.387 . S
C784 C785 1.387 . S
C784 H788 0.950 . S
C784 C793 1.390 . S
C785 C784 1.387 . S
C785 C787 1.387 . S
H786 C793 0.950 . S
C787 C785 1.387 . S
C787 C789 1.390 . S
C787 H791 0.950 . S
H788 C784 0.950 . S
C789 C787 1.390 . S
C789 C790 1.387 . S
C789 H792 0.950 . S
C790 C789 1.387 . S
C790 C793 1.387 . S
H791 C787 0.950 . S
H792 C789 0.950 . S
C793 C784 1.390 . S
C793 H786 0.950 . S
C793 C790 1.387 . S
C794 C795 1.387 . S
C794 H798 0.950 . S
C794 C803 1.390 . S
C795 C794 1.387 . S
C795 C797 1.387 . S
H796 C803 0.950 . S
C797 C795 1.387 . S
C797 C799 1.390 . S
C797 H801 0.950 . S
H798 C794 0.950 . S
C799 C797 1.390 . S
C799 C800 1.387 . S
C799 H802 0.950 . S
C800 C799 1.387 . S
C800 C803 1.387 . S
H801 C797 0.950 . S
H802 C799 0.950 . S
C803 C794 1.390 . S
C803 H796 0.950 . S
C803 C800 1.387 . S
C804 C805 1.387 . S
C804 H808 0.950 . S
C804 C813 1.390 . S
C805 C804 1.387 . S
C805 C807 1.387 . S
H806 C813 0.950 . S
C807 C805 1.387 . S
C807 C809 1.390 . S
C807 H811 0.950 . S
H808 C804 0.950 . S
C809 C807 1.390 . S
C809 C810 1.387 . S
C809 H812 0.950 . S
C810 C809 1.387 . S
C810 C813 1.387 . S
H811 C807 0.950 . S
H812 C809 0.950 . S
C813 C804 1.390 . S
C813 H806 0.950 . S
C813 C810 1.387 . S
C814 C815 1.387 . S
C814 H818 0.950 . S
C814 C823 1.390 . S
C815 C814 1.387 . S
C815 C817 1.387 . S
H816 C823 0.950 . S
C817 C815 1.387 . S
C817 C819 1.390 . S
C817 H821 0.950 . S
H818 C814 0.950 . S
C819 C817 1.390 . S
C819 C820 1.387 . S
C819 H822 0.950 . S
C820 C819 1.387 . S
C820 C823 1.387 . S
H821 C817 0.950 . S
H822 C819 0.950 . S
C823 C814 1.390 . S
C823 H816 0.950 . S
C823 C820 1.387 . S
C824 C825 1.387 . S
C824 H828 0.950 . S
C824 C833 1.390 . S
C825 C824 1.387 . S
C825 C827 1.387 . S
H826 C833 0.950 . S
C827 C825 1.387 . S
C827 C829 1.390 . S
C827 H831 0.950 . S
H828 C824 0.950 . S
C829 C827 1.390 . S
C829 C830 1.387 . S
C829 H832 0.950 . S
C830 C829 1.387 . S
C830 C833 1.387 . S
H831 C827 0.950 . S
H832 C829 0.950 . S
C833 C824 1.390 . S
C833 H826 0.950 . S
C833 C830 1.387 . S
C834 C835 1.387 . S
C834 H838 0.950 . S
C834 C843 1.390 . S
C835 C834 1.387 . S
C835 C837 1.387 . S
H836 C843 0.950 . S
C837 C835 1.387 . S
C837 C839 1.390 . S
C837 H841 0.950 . S
H838 C834 0.950 . S
C839 C837 1.390 . S
C839 C840 1.387 . S
C839 H842 0.950 . S
C840 C839 1.387 . S
C840 C843 1.387 . S
H841 C837 0.950 . S
H842 C839 0.950 . S
C843 C834 1.390 . S
C843 H836 0.950 . S
C843 C840 1.387 . S
C844 C845 1.387 . S
C844 H848 0.950 . S
C844 C853 1.390 . S
C845 C844 1.387 . S
C845 C847 1.387 . S
H846 C853 0.950 . S
C847 C845 1.387 . S
C847 C849 1.390 . S
C847 H851 0.950 . S
H848 C844 0.950 . S
C849 C847 1.390 . S
C849 C850 1.387 . S
C849 H852 0.950 . S
C850 C849 1.387 . S
C850 C853 1.387 . S
H851 C847 0.950 . S
H852 C849 0.950 . S
C853 C844 1.390 . S
C853 H846 0.950 . S
C853 C850 1.387 . S
C854 C855 1.387 . S
C854 H858 0.950 . S
C854 C863 1.390 . S
C855 C854 1.387 . S
C855 C857 1.387 . S
H856 C863 0.950 . S
C857 C855 1.387 . S
C857 C859 1.390 . S
C857 H861 0.950 . S
H858 C854 0.950 . S
C859 C857 1.390 . S
C859 C860 1.387 . S
C859 H862 0.950 . S
C860 C859 1.387 . S
C860 C863 1.387 . S
H861 C857 0.950 . S
H862 C859 0.950 . S
C863 C854 1.390 . S
C863 H856 0.950 . S
C863 C860 1.387 . S
C864 C865 1.387 . S
C864 H868 0.950 . S
C864 C873 1.390 . S
C865 C864 1.387 . S
C865 C867 1.387 . S
H866 C873 0.950 . S
C867 C865 1.387 . S
C867 C869 1.390 . S
C867 H871 0.950 . S
H868 C864 0.950 . S
C869 C867 1.390 . S
C869 C870 1.387 . S
C869 H872 0.950 . S
C870 C869 1.387 . S
C870 C873 1.387 . S
H871 C867 0.950 . S
H872 C869 0.950 . S
C873 C864 1.390 . S
C873 H866 0.950 . S
C873 C870 1.387 . S
C874 C875 1.387 . S
C874 H878 0.950 . S
C874 C883 1.390 1_565 S
C875 C874 1.387 . S
C875 C877 1.387 . S
H876 C883 0.950 . S
C877 C875 1.387 . S
C877 C879 1.390 1_565 S
C877 H881 0.950 . S
H878 C874 0.950 . S
C879 C877 1.390 1_545 S
C879 C880 1.387 . S
C879 H882 0.950 . S
C880 C879 1.387 . S
C880 C883 1.387 . S
H881 C877 0.950 . S
H882 C879 0.950 . S
C883 C874 1.390 1_545 S
C883 H876 0.950 . S
C883 C880 1.387 . S
C884 C885 1.387 . S
C884 H888 0.950 . S
C884 C893 1.390 . S
C885 C884 1.387 . S
C885 C887 1.387 1_655 S
H886 C893 0.950 . S
C887 C885 1.387 1_455 S
C887 C889 1.390 . S
C887 H891 0.950 . S
H888 C884 0.950 . S
C889 C887 1.390 . S
C889 C890 1.387 . S
C889 H892 0.950 . S
C890 C889 1.387 . S
C890 C893 1.387 1_455 S
H891 C887 0.950 . S
H892 C889 0.950 . S
C893 C884 1.390 . S
C893 H886 0.950 . S
C893 C890 1.387 1_655 S
C894 C895 1.387 . S
C894 H898 0.950 . S
C894 C903 1.390 . S
C895 C894 1.387 . S
C895 C897 1.387 . S
H896 C903 0.950 . S
C897 C895 1.387 . S
C897 C899 1.390 . S
C897 H901 0.950 . S
H898 C894 0.950 . S
C899 C897 1.390 . S
C899 C900 1.387 . S
C899 H902 0.950 . S
C900 C899 1.387 . S
C900 C903 1.387 . S
H901 C897 0.950 . S
H902 C899 0.950 . S
C903 C894 1.390 . S
C903 H896 0.950 . S
C903 C900 1.387 . S
C904 C905 1.387 . S
C904 H908 0.950 . S
C904 C913 1.390 1_545 S
C905 C904 1.387 . S
C905 C907 1.387 . S
H906 C913 0.950 . S
C907 C905 1.387 . S
C907 C909 1.390 1_545 S
C907 H911 0.950 . S
H908 C904 0.950 . S
C909 C907 1.390 1_565 S
C909 C910 1.387 . S
C909 H912 0.950 . S
C910 C909 1.387 . S
C910 C913 1.387 . S
H911 C907 0.950 . S
H912 C909 0.950 . S
C913 C904 1.390 1_565 S
C913 H906 0.950 . S
C913 C910 1.387 . S
C914 C915 1.387 . S
C914 H918 0.950 . S
C914 C923 1.390 . S
C915 C914 1.387 . S
C915 C917 1.387 1_655 S
H916 C923 0.950 . S
C917 C915 1.387 1_455 S
C917 C919 1.390 . S
C917 H921 0.950 . S
H918 C914 0.950 . S
C919 C917 1.390 . S
C919 C920 1.387 . S
C919 H922 0.950 . S
C920 C919 1.387 . S
C920 C923 1.387 1_455 S
H921 C917 0.950 . S
H922 C919 0.950 . S
C923 C914 1.390 . S
C923 H916 0.950 . S
C923 C920 1.387 1_655 S
C924 C925 1.387 . S
C924 H928 0.950 . S
C924 C933 1.390 . S
C925 C924 1.387 . S
C925 C927 1.387 . S
H926 C933 0.950 . S
C927 C925 1.387 . S
C927 C929 1.390 . S
C927 H931 0.950 . S
H928 C924 0.950 . S
C929 C927 1.390 . S
C929 C930 1.387 . S
C929 H932 0.950 . S
C930 C929 1.387 . S
C930 C933 1.387 . S
H931 C927 0.950 . S
H932 C929 0.950 . S
C933 C924 1.390 . S
C933 H926 0.950 . S
C933 C930 1.387 . S
C934 C935 1.387 . S
C934 H938 0.950 . S
C934 C943 1.390 . S
C935 C934 1.387 . S
C935 C937 1.387 . S
H936 C943 0.950 . S
C937 C935 1.387 . S
C937 C939 1.390 . S
C937 H941 0.950 . S
H938 C934 0.950 . S
C939 C937 1.390 . S
C939 C940 1.387 . S
C939 H942 0.950 . S
C940 C939 1.387 . S
C940 C943 1.387 . S
H941 C937 0.950 . S
H942 C939 0.950 . S
C943 C934 1.390 . S
C943 H936 0.950 . S
C943 C940 1.387 . S
C944 C945 1.387 . S
C944 H948 0.950 . S
C944 C953 1.390 . S
C945 C944 1.387 . S
C945 C947 1.387 . S
H946 C953 0.950 . S
C947 C945 1.387 . S
C947 C949 1.390 . S
C947 H951 0.950 . S
H948 C944 0.950 . S
C949 C947 1.390 . S
C949 C950 1.387 . S
C949 H952 0.950 . S
C950 C949 1.387 . S
C950 C953 1.387 . S
H951 C947 0.950 . S
H952 C949 0.950 . S
C953 C944 1.390 . S
C953 H946 0.950 . S
C953 C950 1.387 . S
C954 C955 1.387 . S
C954 H958 0.950 . S
C954 C963 1.390 . S
C955 C954 1.387 . S
C955 C957 1.387 . S
H956 C963 0.950 . S
C957 C955 1.387 . S
C957 C959 1.390 . S
C957 H961 0.950 . S
H958 C954 0.950 . S
C959 C957 1.390 . S
C959 C960 1.387 . S
C959 H962 0.950 . S
C960 C959 1.387 . S
C960 C963 1.387 . S
H961 C957 0.950 . S
H962 C959 0.950 . S
C963 C954 1.390 . S
C963 H956 0.950 . S
C963 C960 1.387 . S
C964 C965 1.387 . S
C964 H968 0.950 . S
C964 C973 1.390 . S
C965 C964 1.387 . S
C965 C967 1.387 . S
H966 C973 0.950 . S
C967 C965 1.387 . S
C967 C969 1.390 . S
C967 H971 0.950 . S
H968 C964 0.950 . S
C969 C967 1.390 . S
C969 C970 1.387 . S
C969 H972 0.950 . S
C970 C969 1.387 . S
C970 C973 1.387 . S
H971 C967 0.950 . S
H972 C969 0.950 . S
C973 C964 1.390 . S
C973 H966 0.950 . S
C973 C970 1.387 . S
C974 C975 1.387 . S
C974 H978 0.950 . S
C974 C983 1.390 . S
C975 C974 1.387 . S
C975 C977 1.387 . S
H976 C983 0.950 . S
C977 C975 1.387 . S
C977 C979 1.390 . S
C977 H981 0.950 . S
H978 C974 0.950 . S
C979 C977 1.390 . S
C979 C980 1.387 . S
C979 H982 0.950 . S
C980 C979 1.387 . S
C980 C983 1.387 . S
H981 C977 0.950 . S
H982 C979 0.950 . S
C983 C974 1.390 . S
C983 H976 0.950 . S
C983 C980 1.387 . S
C984 C985 1.387 . S
C984 H988 0.950 . S
C984 C993 1.390 . S
C985 C984 1.387 . S
C985 C987 1.387 . S
H986 C993 0.950 . S
C987 C985 1.387 . S
C987 C989 1.390 . S
C987 H991 0.950 . S
H988 C984 0.950 . S
C989 C987 1.390 . S
C989 C990 1.387 . S
C989 H992 0.950 . S
C990 C989 1.387 . S
C990 C993 1.387 . S
H991 C987 0.950 . S
H992 C989 0.950 . S
C993 C984 1.390 . S
C993 H986 0.950 . S
C993 C990 1.387 . S
C994 C995 1.387 . S
C994 H998 0.950 . S
C994 C1003 1.390 . S
C995 C994 1.387 . S
C995 C997 1.387 . S
H996 C1003 0.950 . S
C997 C995 1.387 . S
C997 C999 1.390 . S
C997 H1001 0.950 . S
H998 C994 0.950 . S
C999 C997 1.390 . S
C999 C1000 1.387 . S
C999 H1002 0.950 . S
C1000 C999 1.387 . S
C1000 C1003 1.387 . S
H1001 C997 0.950 . S
H1002 C999 0.950 . S
C1003 C994 1.390 . S
C1003 H996 0.950 . S
C1003 C1000 1.387 . S
C1004 C1005 1.387 . S
C1004 H1008 0.950 . S
C1004 C1013 1.390 . S
C1005 C1004 1.387 . S
C1005 C1007 1.387 . S
H1006 C1013 0.950 . S
C1007 C1005 1.387 . S
C1007 C1009 1.390 . S
C1007 H1011 0.950 . S
H1008 C1004 0.950 . S
C1009 C1007 1.390 . S
C1009 C1010 1.387 . S
C1009 H1012 0.950 . S
C1010 C1009 1.387 . S
C1010 C1013 1.387 . S
H1011 C1007 0.950 . S
H1012 C1009 0.950 . S
C1013 C1004 1.390 . S
C1013 H1006 0.950 . S
C1013 C1010 1.387 . S
C1014 C1015 1.387 . S
C1014 H1018 0.950 . S
C1014 C1023 1.390 . S
C1015 C1014 1.387 . S
C1015 C1017 1.387 . S
H1016 C1023 0.950 . S
C1017 C1015 1.387 . S
C1017 C1019 1.390 . S
C1017 H1021 0.950 . S
H1018 C1014 0.950 . S
C1019 C1017 1.390 . S
C1019 C1020 1.387 . S
C1019 H1022 0.950 . S
C1020 C1019 1.387 . S
C1020 C1023 1.387 . S
H1021 C1017 0.950 . S
H1022 C1019 0.950 . S
C1023 C1014 1.390 . S
C1023 H1016 0.950 . S
C1023 C1020 1.387 . S
C1024 C1025 1.387 . S
C1024 H1028 0.950 . S
C1024 C1033 1.390 . S
C1025 C1024 1.387 . S
C1025 C1027 1.387 . S
H1026 C1033 0.950 . S
C1027 C1025 1.387 . S
C1027 C1029 1.390 . S
C1027 H1031 0.950 . S
H1028 C1024 0.950 . S
C1029 C1027 1.390 . S
C1029 C1030 1.387 . S
C1029 H1032 0.950 . S
C1030 C1029 1.387 . S
C1030 C1033 1.387 . S
H1031 C1027 0.950 . S
H1032 C1029 0.950 . S
C1033 C1024 1.390 . S
C1033 H1026 0.950 . S
C1033 C1030 1.387 . S
C1034 C1035 1.387 . S
C1034 H1038 0.950 . S
C1034 C1043 1.390 . S
C1035 C1034 1.387 . S
C1035 C1037 1.387 . S
H1036 C1043 0.950 . S
C1037 C1035 1.387 . S
C1037 C1039 1.390 . S
C1037 H1041 0.950 . S
H1038 C1034 0.950 . S
C1039 C1037 1.390 . S
C1039 C1040 1.387 . S
C1039 H1042 0.950 . S
C1040 C1039 1.387 . S
C1040 C1043 1.387 . S
H1041 C1037 0.950 . S
H1042 C1039 0.950 . S
C1043 C1034 1.390 . S
C1043 H1036 0.950 . S
C1043 C1040 1.387 . S
C1044 C1045 1.387 . S
C1044 H1048 0.950 . S
C1044 C1053 1.390 . S
C1045 C1044 1.387 . S
C1045 C1047 1.387 . S
H1046 C1053 0.950 . S
C1047 C1045 1.387 . S
C1047 C1049 1.390 . S
C1047 H1051 0.950 . S
H1048 C1044 0.950 . S
C1049 C1047 1.390 . S
C1049 C1050 1.387 . S
C1049 H1052 0.950 . S
C1050 C1049 1.387 . S
C1050 C1053 1.387 . S
H1051 C1047 0.950 . S
H1052 C1049 0.950 . S
C1053 C1044 1.390 . S
C1053 H1046 0.950 . S
C1053 C1050 1.387 . S
C1054 C1055 1.387 . S
C1054 H1058 0.950 . S
C1054 C1063 1.390 . S
C1055 C1054 1.387 . S
C1055 C1057 1.387 . S
H1056 C1063 0.950 . S
C1057 C1055 1.387 . S
C1057 C1059 1.390 . S
C1057 H1061 0.950 . S
H1058 C1054 0.950 . S
C1059 C1057 1.390 . S
C1059 C1060 1.387 . S
C1059 H1062 0.950 . S
C1060 C1059 1.387 . S
C1060 C1063 1.387 . S
H1061 C1057 0.950 . S
H1062 C1059 0.950 . S
C1063 C1054 1.390 . S
C1063 H1056 0.950 . S
C1063 C1060 1.387 . S
C1064 C1065 1.387 . S
C1064 H1068 0.950 . S
C1064 C1073 1.390 . S
C1065 C1064 1.387 . S
C1065 C1067 1.387 . S
H1066 C1073 0.950 . S
C1067 C1065 1.387 . S
C1067 C1069 1.390 . S
C1067 H1071 0.950 . S
H1068 C1064 0.950 . S
C1069 C1067 1.390 . S
C1069 C1070 1.387 . S
C1069 H1072 0.950 . S
C1070 C1069 1.387 . S
C1070 C1073 1.387 . S
H1071 C1067 0.950 . S
H1072 C1069 0.950 . S
C1073 C1064 1.390 . S
C1073 H1066 0.950 . S
C1073 C1070 1.387 . S
C1074 C1075 1.387 . S
C1074 H1078 0.950 . S
C1074 C1083 1.390 . S
C1075 C1074 1.387 . S
C1075 C1077 1.387 . S
H1076 C1083 0.950 . S
C1077 C1075 1.387 . S
C1077 C1079 1.390 . S
C1077 H1081 0.950 . S
H1078 C1074 0.950 . S
C1079 C1077 1.390 . S
C1079 C1080 1.387 . S
C1079 H1082 0.950 . S
C1080 C1079 1.387 . S
C1080 C1083 1.387 . S
H1081 C1077 0.950 . S
H1082 C1079 0.950 . S
C1083 C1074 1.390 . S
C1083 H1076 0.950 . S
C1083 C1080 1.387 . S
C1084 C1085 1.387 . S
C1084 H1088 0.950 . S
C1084 C1093 1.390 . S
C1085 C1084 1.387 . S
C1085 C1087 1.387 . S
H1086 C1093 0.950 . S
C1087 C1085 1.387 . S
C1087 C1089 1.390 . S
C1087 H1091 0.950 . S
H1088 C1084 0.950 . S
C1089 C1087 1.390 . S
C1089 C1090 1.387 . S
C1089 H1092 0.950 . S
C1090 C1089 1.387 . S
C1090 C1093 1.387 . S
H1091 C1087 0.950 . S
H1092 C1089 0.950 . S
C1093 C1084 1.390 . S
C1093 H1086 0.950 . S
C1093 C1090 1.387 . S
C1094 C1095 1.387 . S
C1094 H1098 0.950 . S
C1094 C1103 1.390 . S
C1095 C1094 1.387 . S
C1095 C1097 1.387 . S
H1096 C1103 0.950 . S
C1097 C1095 1.387 . S
C1097 C1099 1.390 . S
C1097 H1101 0.950 . S
H1098 C1094 0.950 . S
C1099 C1097 1.390 . S
C1099 C1100 1.387 . S
C1099 H1102 0.950 . S
C1100 C1099 1.387 . S
C1100 C1103 1.387 . S
H1101 C1097 0.950 . S
H1102 C1099 0.950 . S
C1103 C1094 1.390 . S
C1103 H1096 0.950 . S
C1103 C1100 1.387 . S
C1104 C1105 1.387 . S
C1104 H1108 0.950 . S
C1104 C1113 1.390 . S
C1105 C1104 1.387 . S
C1105 C1107 1.387 . S
H1106 C1113 0.950 . S
C1107 C1105 1.387 . S
C1107 C1109 1.390 . S
C1107 H1111 0.950 . S
H1108 C1104 0.950 . S
C1109 C1107 1.390 . S
C1109 C1110 1.387 . S
C1109 H1112 0.950 . S
C1110 C1109 1.387 . S
C1110 C1113 1.387 . S
H1111 C1107 0.950 . S
H1112 C1109 0.950 . S
C1113 C1104 1.390 . S
C1113 H1106 0.950 . S
C1113 C1110 1.387 . S
C1114 C1115 1.387 . S
C1114 H1118 0.950 . S
C1114 C1123 1.390 . S
C1115 C1114 1.387 . S
C1115 C1117 1.387 . S
H1116 C1123 0.950 . S
C1117 C1115 1.387 . S
C1117 C1119 1.390 . S
C1117 H1121 0.950 . S
H1118 C1114 0.950 . S
C1119 C1117 1.390 . S
C1119 C1120 1.387 . S
C1119 H1122 0.950 . S
C1120 C1119 1.387 . S
C1120 C1123 1.387 . S
H1121 C1117 0.950 . S
H1122 C1119 0.950 . S
C1123 C1114 1.390 . S
C1123 H1116 0.950 . S
C1123 C1120 1.387 . S
C1124 C1125 1.387 . S
C1124 H1128 0.950 . S
C1124 C1133 1.390 . S
C1125 C1124 1.387 . S
C1125 C1127 1.387 . S
H1126 C1133 0.950 . S
C1127 C1125 1.387 . S
C1127 C1129 1.390 . S
C1127 H1131 0.950 . S
H1128 C1124 0.950 . S
C1129 C1127 1.390 . S
C1129 C1130 1.387 . S
C1129 H1132 0.950 . S
C1130 C1129 1.387 . S
C1130 C1133 1.387 . S
H1131 C1127 0.950 . S
H1132 C1129 0.950 . S
C1133 C1124 1.390 . S
C1133 H1126 0.950 . S
C1133 C1130 1.387 . S
C1134 C1135 1.387 . S
C1134 H1138 0.950 . S
C1134 C1143 1.390 . S
C1135 C1134 1.387 . S
C1135 C1137 1.387 . S
H1136 C1143 0.950 . S
C1137 C1135 1.387 . S
C1137 C1139 1.390 . S
C1137 H1141 0.950 . S
H1138 C1134 0.950 . S
C1139 C1137 1.390 . S
C1139 C1140 1.387 . S
C1139 H1142 0.950 . S
C1140 C1139 1.387 . S
C1140 C1143 1.387 . S
H1141 C1137 0.950 . S
H1142 C1139 0.950 . S
C1143 C1134 1.390 . S
C1143 H1136 0.950 . S
C1143 C1140 1.387 . S
C1144 C1145 1.387 . S
C1144 H1148 0.950 . S
C1144 C1153 1.390 . S
C1145 C1144 1.387 . S
C1145 C1147 1.387 . S
H1146 C1153 0.950 . S
C1147 C1145 1.387 . S
C1147 C1149 1.390 . S
C1147 H1151 0.950 . S
H1148 C1144 0.950 . S
C1149 C1147 1.390 . S
C1149 C1150 1.387 . S
C1149 H1152 0.950 . S
C1150 C1149 1.387 . S
C1150 C1153 1.387 . S
H1151 C1147 0.950 . S
H1152 C1149 0.950 . S
C1153 C1144 1.390 . S
C1153 H1146 0.950 . S
C1153 C1150 1.387 . S
C1154 C1155 1.387 . S
C1154 H1158 0.950 . S
C1154 C1163 1.390 . S
C1155 C1154 1.387 . S
C1155 C1157 1.387 . S
H1156 C1163 0.950 . S
C1157 C1155 1.387 . S
C1157 C1159 1.390 . S
C1157 H1161 0.950 . S
H1158 C1154 0.950 . S
C1159 C1157 1.390 . S
C1159 C1160 1.387 . S
C1159 H1162 0.950 . S
C1160 C1159 1.387 . S
C1160 C1163 1.387 . S
H1161 C1157 0.950 . S
H1162 C1159 0.950 . S
C1163 C1154 1.390 . S
C1163 H1156 0.950 . S
C1163 C1160 1.387 . S
C1164 C1165 1.387 . S
C1164 H1168 0.950 . S
C1164 C1173 1.390 1_455 S
C1165 C1164 1.387 . S
C1165 C1167 1.387 . S
H1166 C1173 0.950 . S
C1167 C1165 1.387 . S
C1167 C1169 1.390 1_455 S
C1167 H1171 0.950 . S
H1168 C1164 0.950 . S
C1169 C1167 1.390 1_655 S
C1169 C1170 1.387 . S
C1169 H1172 0.950 . S
C1170 C1169 1.387 . S
C1170 C1173 1.387 . S
H1171 C1167 0.950 . S
H1172 C1169 0.950 . S
C1173 C1164 1.390 1_655 S
C1173 H1166 0.950 . S
C1173 C1170 1.387 . S
C1174 C1175 1.387 . S
C1174 H1178 0.950 . S
C1174 C1183 1.390 . S
C1175 C1174 1.387 . S
C1175 C1177 1.387 . S
H1176 C1183 0.950 . S
C1177 C1175 1.387 . S
C1177 C1179 1.390 . S
C1177 H1181 0.950 . S
H1178 C1174 0.950 . S
C1179 C1177 1.390 . S
C1179 C1180 1.387 . S
C1179 H1182 0.950 . S
C1180 C1179 1.387 . S
C1180 C1183 1.387 . S
H1181 C1177 0.950 . S
H1182 C1179 0.950 . S
C1183 C1174 1.390 . S
C1183 H1176 0.950 . S
C1183 C1180 1.387 . S
C1184 C1185 1.387 . S
C1184 H1188 0.950 . S
C1184 C1193 1.390 1_545 S
C1185 C1184 1.387 . S
C1185 C1187 1.387 . S
H1186 C1193 0.950 . S
C1187 C1185 1.387 . S
C1187 C1189 1.390 1_545 S
C1187 H1191 0.950 . S
H1188 C1184 0.950 . S
C1189 C1187 1.390 1_565 S
C1189 C1190 1.387 . S
C1189 H1192 0.950 . S
C1190 C1189 1.387 . S
C1190 C1193 1.387 . S
H1191 C1187 0.950 . S
H1192 C1189 0.950 . S
C1193 C1184 1.390 1_565 S
C1193 H1186 0.950 . S
C1193 C1190 1.387 . S
C1194 C1195 1.387 1_554 S
C1194 H1198 0.950 . S
C1194 C1203 1.390 1_545 S
C1195 C1194 1.387 1_556 S
C1195 C1197 1.387 . S
H1196 C1203 0.950 . S
C1197 C1195 1.387 . S
C1197 C1199 1.390 1_545 S
C1197 H1201 0.950 . S
H1198 C1194 0.950 . S
C1199 C1197 1.390 1_565 S
C1199 C1200 1.387 1_556 S
C1199 H1202 0.950 . S
C1200 C1199 1.387 1_554 S
C1200 C1203 1.387 . S
H1201 C1197 0.950 . S
H1202 C1199 0.950 . S
C1203 C1194 1.390 1_565 S
C1203 H1196 0.950 . S
C1203 C1200 1.387 . S
C1204 C1205 1.387 1_554 S
C1204 H1208 0.950 . S
C1204 C1213 1.390 1_655 S
C1205 C1204 1.387 1_556 S
C1205 C1207 1.387 . S
H1206 C1213 0.950 . S
C1207 C1205 1.387 . S
C1207 C1209 1.390 1_655 S
C1207 H1211 0.950 . S
H1208 C1204 0.950 . S
C1209 C1207 1.390 1_455 S
C1209 C1210 1.387 1_556 S
C1209 H1212 0.950 . S
C1210 C1209 1.387 1_554 S
C1210 C1213 1.387 . S
H1211 C1207 0.950 . S
H1212 C1209 0.950 . S
C1213 C1204 1.390 1_455 S
C1213 H1206 0.950 . S
C1213 C1210 1.387 . S
C1214 C1215 1.387 . S
C1214 H1218 0.950 . S
C1214 C1223 1.390 . S
C1215 C1214 1.387 . S
C1215 C1217 1.387 1_556 S
H1216 C1223 0.950 . S
C1217 C1215 1.387 1_554 S
C1217 C1219 1.390 . S
C1217 H1221 0.950 . S
H1218 C1214 0.950 . S
C1219 C1217 1.390 . S
C1219 C1220 1.387 . S
C1219 H1222 0.950 . S
C1220 C1219 1.387 . S
C1220 C1223 1.387 1_554 S
H1221 C1217 0.950 . S
H1222 C1219 0.950 . S
C1223 C1214 1.390 . S
C1223 H1216 0.950 . S
C1223 C1220 1.387 1_556 S
C505 C7 1.350 . S
C510 C107 1.333 . S
C515 C21 1.350 . S
C520 C121 1.333 . S
C525 C93 1.332 . S
C530 C35 1.351 . S
C535 C163 1.332 . S
C540 C49 1.351 . S
C545 C63 1.350 . S
C550 C135 1.333 . S
C555 C77 1.350 . S
C560 C149 1.333 . S
C565 C23 1.331 . S
C570 C91 1.352 . S
C575 C37 1.331 . S
C580 C105 1.352 . S
C585 C119 1.351 . S
C590 C9 1.333 . S
C595 C133 1.351 . S
C600 C79 1.333 . S
C605 C51 1.333 . S
C610 C147 1.350 . S
C615 C161 1.351 . S
C620 C65 1.332 . S
C625 C275 1.333 . S
C630 C175 1.350 . S
C635 C189 1.352 . S
C640 C289 1.330 . S
C645 C203 1.352 . S
C650 C261 1.331 . S
C655 C331 1.332 . S
C660 C217 1.351 . S
C665 C231 1.352 . S
C670 C303 1.331 . S
C675 C317 1.333 . S
C680 C245 1.350 . S
C685 C191 1.333 . S
C690 C259 1.350 . S
C695 C273 1.351 . S
C700 C205 1.333 . S
C705 C177 1.333 . S
C710 C287 1.350 . S
C715 C301 1.352 . S
C720 C247 1.331 . S
C725 C315 1.352 . S
C730 C219 1.331 . S
C735 C329 1.352 . S
C740 C233 1.331 . S
C745 C443 1.331 . S
C750 C343 1.352 . S
C755 C457 1.331 . S
C760 C357 1.352 . S
C765 C429 1.332 . S
C770 C371 1.351 . S
C775 C385 1.351 . S
C780 C499 1.332 . S
C785 C399 1.352 . S
C790 C471 1.331 . S
C795 C485 1.333 . S
C800 C413 1.351 . S
C805 C427 1.350 . S
C810 C359 1.333 . S
C815 C373 1.333 . S
C820 C441 1.350 . S
C825 C345 1.332 . S
C830 C455 1.351 . S
C835 C469 1.351 . S
C840 C415 1.332 . S
C845 C483 1.352 . S
C850 C387 1.331 . S
C855 C497 1.351 . S
C860 C401 1.332 . S
C865 C50 1.720 . S
C870 C8 1.719 . S
C875 C64 1.720 . S
C880 C22 1.720 . S
C885 C36 1.720 . S
C890 C78 1.719 . S
C895 C134 1.719 . S
C900 C92 1.720 . S
C905 C148 1.719 . S
C910 C106 1.719 . S
C915 C162 1.719 . S
C920 C120 1.721 . S
C925 C218 1.720 . S
C930 C176 1.719 . S
C935 C232 1.720 . S
C940 C190 1.720 . S
C945 C204 1.721 . S
C950 C246 1.719 . S
C955 C302 1.719 . S
C960 C260 1.720 . S
C965 C316 1.719 . S
C970 C274 1.719 . S
C975 C330 1.720 . S
C980 C288 1.719 . S
C985 C386 1.719 . S
C990 C344 1.720 . S
C995 C358 1.720 . S
C1000 C400 1.720 . S
C1005 C414 1.721 . S
C1010 C372 1.719 . S
C1015 C428 1.720 . S
C1020 C470 1.720 . S
C1025 C442 1.719 . S
C1030 C484 1.719 . S
C1035 C456 1.720 . S
C1040 C498 1.719 . S
C1045 C6 1.504 . S
C1050 C258 1.504 . S
C1055 C272 1.505 . S
C1060 C20 1.505 . S
C1065 C286 1.505 . S
C1070 C34 1.505 . S
C1075 C468 1.504 . S
C1080 C48 1.504 . S
C1085 C482 1.504 . S
C1090 C62 1.503 . S
C1095 C496 1.504 . S
C1100 C76 1.504 . S
C1105 C90 1.505 . S
C1110 C342 1.505 . S
C1115 C356 1.505 . S
C1120 C104 1.505 . S
C1125 C370 1.505 . S
C1130 C118 1.505 . S
C1135 C132 1.504 . S
C1140 C216 1.504 . S
C1145 C146 1.504 . S
C1150 C230 1.504 . S
C1155 C160 1.504 . S
C1160 C244 1.504 . S
C1165 C426 1.505 . S
C1170 C174 1.505 . S
C1175 C440 1.505 . S
C1180 C188 1.505 . S
C1185 C202 1.505 . S
C1190 C454 1.505 . S
C1195 C300 1.505 . S
C1200 C384 1.505 . S
C1205 C314 1.505 . S
C1210 C398 1.505 . S
C1215 C328 1.504 . S
C1220 C412 1.504 . S
