# Generated by pormake.
# Topology qtz-e, (6)-cn, num edge types: 1
# Building blocks:
#     Node 0, Type 0, BuildingBlock: GEDQOX_clean_sbu_0, # of connection points: 6
#     Node 1, Type 0, BuildingBlock: GEDQOX_clean_sbu_0, # of connection points: 6
#     Node 2, Type 0, BuildingBlock: GEDQOX_clean_sbu_0, # of connection points: 6
#     Node 3, Type 0, BuildingBlock: GEDQOX_clean_sbu_0, # of connection points: 6
#     Node 4, Type 0, BuildingBlock: GEDQOX_clean_sbu_0, # of connection points: 6
#     Node 5, Type 0, BuildingBlock: GEDQOX_clean_sbu_0, # of connection points: 6
#     Edge 6, Type (0, 0), BuildingBlock: EYOCIG_clean_linker_4, # of connection points: 2
#     Edge 7, Type (0, 0), BuildingBlock: EYOCIG_clean_linker_4, # of connection points: 2
#     Edge 8, Type (0, 0), BuildingBlock: EYOCIG_clean_linker_4, # of connection points: 2
#     Edge 9, Type (0, 0), BuildingBlock: EYOCIG_clean_linker_4, # of connection points: 2
#     Edge 10, Type (0, 0), BuildingBlock: EYOCIG_clean_linker_4, # of connection points: 2
#     Edge 11, Type (0, 0), BuildingBlock: EYOCIG_clean_linker_4, # of connection points: 2
#     Edge 12, Type (0, 0), BuildingBlock: EYOCIG_clean_linker_4, # of connection points: 2
#     Edge 13, Type (0, 0), BuildingBlock: EYOCIG_clean_linker_4, # of connection points: 2
#     Edge 14, Type (0, 0), BuildingBlock: EYOCIG_clean_linker_4, # of connection points: 2
#     Edge 15, Type (0, 0), BuildingBlock: EYOCIG_clean_linker_4, # of connection points: 2
#     Edge 16, Type (0, 0), BuildingBlock: EYOCIG_clean_linker_4, # of connection points: 2
#     Edge 17, Type (0, 0), BuildingBlock: EYOCIG_clean_linker_4, # of connection points: 2
#     Edge 18, Type (0, 0), BuildingBlock: EYOCIG_clean_linker_4, # of connection points: 2
#     Edge 19, Type (0, 0), BuildingBlock: EYOCIG_clean_linker_4, # of connection points: 2
#     Edge 20, Type (0, 0), BuildingBlock: EYOCIG_clean_linker_4, # of connection points: 2
#     Edge 21, Type (0, 0), BuildingBlock: EYOCIG_clean_linker_4, # of connection points: 2
#     Edge 22, Type (0, 0), BuildingBlock: EYOCIG_clean_linker_4, # of connection points: 2
#     Edge 23, Type (0, 0), BuildingBlock: EYOCIG_clean_linker_4, # of connection points: 2
# Relax obj value: 0.080
# Max RMSD: 0.174
# Mean RMSD: 0.174
data_MOF--net-qtz-e--node1-GEDQOX_clean_sbu_0--edge1-EYOCIG_clean_linker_4
_symmetry_space_group_name_H-M    P1
_symmetry_Int_Tables_number       1
_symmetry_cell_setting            triclinic
loop_
_symmetry_equiv_pos_as_xyz
'x, y, z'
_cell_length_a     20.946556
_cell_length_b     20.955084
_cell_length_c     45.103169
_cell_angle_alpha  90.015645
_cell_angle_beta   90.015601
_cell_angle_gamma 120.01764
loop_
_atom_site_label
_atom_site_type_symbol
_atom_site_fract_x
_atom_site_fract_y
_atom_site_fract_z
_atom_type_partial_charge
Nd0 Nd 0.16162 0.34049 0.07705 0.0
Nd1 Nd 0.24967 0.47699 0.03695 0.0
C2 C 0.07772 0.24144 0.11757 0.0
C3 C 0.05714 0.23288 0.14954 0.0
C4 C 0.0076 0.25396 0.16067 0.0
C5 C 0.98411 0.23984 0.19026 0.0
C6 C 0.00937 0.2042 0.20925 0.0
C7 C 0.05959 0.18407 0.19851 0.0
C8 C 0.0831 0.19808 0.1689 0.0
C9 C 0.31059 0.39318 0.07094 0.0
C10 C 0.23137 0.50755 0.10459 0.0
C11 C 0.34379 0.57438 0.99922 0.0
C12 C 0.35024 0.58208 0.96668 0.0
C13 C 0.39534 0.56168 0.95102 0.0
C14 C 0.4027 0.57053 0.92031 0.0
C15 C 0.36524 0.60002 0.90503 0.0
C16 C 0.31981 0.61984 0.92034 0.0
C17 C 0.31233 0.61104 0.95098 0.0
C18 C 0.11236 0.44948 0.04723 0.0
C19 C 0.17073 0.30817 1.008 0.0
O20 O 0.05403 0.27525 0.10017 0.0
O21 O 0.14451 0.2564 0.11094 0.0
O22 O 0.26281 0.32322 0.07087 0.0
O23 O 0.2799 0.43032 0.0746 0.0
O24 O 0.17853 0.43795 0.10617 0.0
O25 O 0.27731 0.53412 0.08199 0.0
O26 O 0.35334 0.52269 1.01115 0.0
O27 O 0.28998 0.57971 1.01143 0.0
O28 O 0.16703 0.51408 0.0412 0.0
O29 O 0.12695 0.39782 0.04329 0.0
O30 O 0.21893 0.37914 1.00539 0.0
O31 O 0.13381 0.27873 0.0327 0.0
H32 H 0.98594 0.28028 0.14643 0.0
H33 H 0.94529 0.25584 0.1982 0.0
H34 H 0.07976 0.1565 0.21284 0.0
H35 H 0.12062 0.1804 0.16099 0.0
H36 H 0.42555 0.53969 0.96253 0.0
H37 H 0.43867 0.55576 0.90861 0.0
H38 H 0.29123 0.64343 0.90868 0.0
H39 H 0.2775 0.62775 0.96234 0.0
Nd40 Nd 0.81679 0.16444 0.41038 0.0
Nd41 Nd 0.76799 0.25212 0.37027 0.0
C42 C 0.83249 0.08097 0.45092 0.0
C43 C 0.81983 0.05978 0.48281 0.0
C44 C 0.74895 0.01021 0.49372 0.0
C45 C 0.73907 0.98634 0.52327 0.0
C46 C 0.7997 0.01127 0.54242 0.0
C47 C 0.87029 0.06148 0.53188 0.0
C48 C 0.8803 0.08536 0.50232 0.0
C49 C 0.91335 0.31316 0.40389 0.0
C50 C 0.7201 0.2347 0.43798 0.0
C51 C 0.76394 0.34577 0.33249 0.0
C52 C 0.7622 0.35208 0.29996 0.0
C53 C 0.82742 0.39756 0.2842 0.0
C54 C 0.82546 0.40489 0.25351 0.0
C55 C 0.75832 0.36702 0.23835 0.0
C56 C 0.69334 0.32122 0.25375 0.0
C57 C 0.69513 0.31377 0.28438 0.0
C58 C 0.6581 0.11507 0.3809 0.0
C59 C 0.85805 0.17338 0.34133 0.0
O60 O 0.77542 0.05667 0.43322 0.0
O61 O 0.88368 0.14827 0.44462 0.0
O62 O 0.93531 0.26522 0.40381 0.0
O63 O 0.84555 0.28275 0.40773 0.0
O64 O 0.73649 0.18162 0.43955 0.0
O65 O 0.73947 0.2805 0.41534 0.0
O66 O 0.82544 0.35552 0.34428 0.0
O67 O 0.70502 0.29196 0.34482 0.0
O68 O 0.64823 0.16974 0.37485 0.0
O69 O 0.72426 0.12947 0.37682 0.0
O70 O 0.83498 0.22132 0.33868 0.0
O71 O 0.8508 0.13665 0.36606 0.0
H72 H 0.70119 0.98887 0.47935 0.0
H73 H 0.68408 0.94753 0.53106 0.0
H74 H 0.91781 0.08139 0.54634 0.0
H75 H 0.93566 0.12291 0.49457 0.0
H76 H 0.87974 0.42809 0.29562 0.0
H77 H 0.87598 0.44112 0.24173 0.0
H78 H 0.64103 0.29232 0.24218 0.0
H79 H 0.64379 0.27865 0.29583 0.0
Nd80 Nd 0.64742 0.81861 0.74358 0.0
Nd81 Nd 0.5106 0.76981 0.70364 0.0
C82 C 0.74696 0.83441 0.78402 0.0
C83 C 0.75572 0.82185 0.8159 0.0
C84 C 0.73434 0.75101 0.82684 0.0
C85 C 0.74844 0.7412 0.8564 0.0
C86 C 0.78432 0.80185 0.87551 0.0
C87 C 0.80481 0.87241 0.86493 0.0
C88 C 0.79083 0.88236 0.83538 0.0
C89 C 0.59472 0.91482 0.73744 0.0
C90 C 0.48066 0.72101 0.77127 0.0
C91 C 0.41309 0.76638 0.66589 0.0
C92 C 0.40556 0.76513 0.63333 0.0
C93 C 0.42608 0.83063 0.61767 0.0
C94 C 0.41751 0.82914 0.58693 0.0
C95 C 0.38819 0.76222 0.57164 0.0
C96 C 0.36826 0.69696 0.58695 0.0
C97 C 0.37677 0.69827 0.61762 0.0
C98 C 0.53814 0.66007 0.71388 0.0
C99 C 0.6793 0.86002 0.67456 0.0
O100 O 0.71401 0.77731 0.76635 0.0
O101 O 0.73083 0.88558 0.77773 0.0
O102 O 0.66469 0.93696 0.73721 0.0
O103 O 0.55753 0.84701 0.74121 0.0
O104 O 0.55028 0.73778 0.77273 0.0
O105 O 0.45384 0.74035 0.74874 0.0
O106 O 0.46475 0.82765 0.67785 0.0
O107 O 0.40773 0.70728 0.67812 0.0
O108 O 0.47349 0.6501 0.7079 0.0
O109 O 0.58982 0.72632 0.70991 0.0
O110 O 0.60825 0.83696 0.67201 0.0
O111 O 0.70899 0.85274 0.69923 0.0
H112 H 0.70775 0.70323 0.81251 0.0
H113 H 0.73217 0.68623 0.86421 0.0
H114 H 0.83256 0.91996 0.87937 0.0
H115 H 0.80871 0.93769 0.82759 0.0
H116 H 0.44796 0.88281 0.62918 0.0
H117 H 0.43236 0.87988 0.57523 0.0
H118 H 0.34479 0.64481 0.57528 0.0
H119 H 0.36 0.64673 0.62898 0.0
Nd120 Nd 0.82381 0.64967 0.07688 0.0
Nd121 Nd 0.73512 0.51294 0.03686 0.0
C122 C 0.90825 0.74874 0.11734 0.0
C123 C 0.92905 0.75732 0.14929 0.0
C124 C 0.9786 0.73615 0.16035 0.0
C125 C 0.00221 0.75018 0.18995 0.0
C126 C 0.97706 0.78581 0.209 0.0
C127 C 0.92688 0.80607 0.19831 0.0
C128 C 0.90326 0.79216 0.16871 0.0
C129 C 0.67488 0.59741 0.07085 0.0
C130 C 0.7536 0.48275 0.10453 0.0
C131 C 0.64073 0.41579 0.99908 0.0
C132 C 0.63481 0.40808 0.96653 0.0
C133 C 0.58986 0.42838 0.9507 0.0
C134 C 0.58309 0.41969 0.91996 0.0
C135 C 0.62099 0.39047 0.90483 0.0
C136 C 0.6663 0.37076 0.92031 0.0
C137 C 0.6732 0.3794 0.95098 0.0
C138 C 0.87236 0.54012 0.04701 0.0
C139 C 0.81438 0.68166 1.00783 0.0
O140 O 0.93165 0.71474 0.0999 0.0
O141 O 0.84147 0.73398 0.11077 0.0
O142 O 0.72283 0.66733 0.07076 0.0
O143 O 0.7054 0.56011 0.0745 0.0
O144 O 0.80671 0.55225 0.10603 0.0
O145 O 0.70748 0.45617 0.08197 0.0
O146 O 0.63176 0.46801 1.01085 0.0
O147 O 0.69388 0.40973 1.01154 0.0
O148 O 0.81757 0.47557 0.04098 0.0
O149 O 0.85791 0.59187 0.04311 0.0
O150 O 0.76604 0.61071 1.00527 0.0
O151 O 0.85148 0.7112 0.03251 0.0
H152 H 0.00015 0.70981 0.14607 0.0
H153 H 0.04101 0.7341 0.19783 0.0
H154 H 0.90681 0.83364 0.2127 0.0
H155 H 0.86575 0.8099 0.16085 0.0
H156 H 0.55933 0.45018 0.96209 0.0
H157 H 0.54723 0.43438 0.90813 0.0
H158 H 0.69522 0.34737 0.90876 0.0
H159 H 0.70797 0.36282 0.96247 0.0
Nd160 Nd 0.16971 0.82632 0.41033 0.0
Nd161 Nd 0.21864 0.7386 0.37018 0.0
C162 C 0.15399 0.90986 0.45086 0.0
C163 C 0.16618 0.93067 0.48281 0.0
C164 C 0.23689 0.98029 0.49389 0.0
C165 C 0.24638 0.00386 0.52349 0.0
C166 C 0.18553 0.9786 0.54251 0.0
C167 C 0.1151 0.92834 0.5318 0.0
C168 C 0.10548 0.90475 0.5022 0.0
C169 C 0.07389 0.67731 0.40419 0.0
C170 C 0.26795 0.7576 0.43781 0.0
C171 C 0.222 0.64455 0.33243 0.0
C172 C 0.22367 0.63852 0.29989 0.0
C173 C 0.15836 0.59339 0.2841 0.0
C174 C 0.16018 0.58642 0.25338 0.0
C175 C 0.22727 0.62431 0.23822 0.0
C176 C 0.29235 0.66984 0.25365 0.0
C177 C 0.2907 0.67694 0.28431 0.0
C178 C 0.32802 0.87617 0.38028 0.0
C179 C 0.12789 0.81667 0.34129 0.0
O180 O 0.21137 0.93395 0.43336 0.0
O181 O 0.10254 0.8428 0.44434 0.0
O182 O 0.05143 0.72486 0.40412 0.0
O183 O 0.14178 0.70823 0.40786 0.0
O184 O 0.25087 0.8102 0.43938 0.0
O185 O 0.24864 0.71155 0.41524 0.0
O186 O 0.16066 0.63516 0.34423 0.0
O187 O 0.28111 0.69801 0.34484 0.0
O188 O 0.33835 0.82185 0.37406 0.0
O189 O 0.26156 0.86112 0.37652 0.0
O190 O 0.15105 0.76879 0.33867 0.0
O191 O 0.13528 0.85361 0.36599 0.0
H192 H 0.28482 0.00189 0.47963 0.0
H193 H 0.30125 0.04271 0.5314 0.0
H194 H 0.06741 0.90818 0.54616 0.0
H195 H 0.05024 0.86717 0.49431 0.0
H196 H 0.10606 0.56285 0.29551 0.0
H197 H 0.10959 0.55039 0.24158 0.0
H198 H 0.34463 0.69875 0.24208 0.0
H199 H 0.3421 0.71185 0.29577 0.0
Nd200 Nd 0.3384 0.17191 0.74369 0.0
Nd201 Nd 0.47484 0.22007 0.70347 0.0
C202 C 0.23918 0.15664 0.78416 0.0
C203 C 0.23028 0.16878 0.81609 0.0
C204 C 0.25138 0.23946 0.82717 0.0
C205 C 0.23702 0.24891 0.85673 0.0
C206 C 0.20112 0.18806 0.87572 0.0
C207 C 0.18088 0.11765 0.86501 0.0
C208 C 0.19513 0.10806 0.83544 0.0
C209 C 0.39131 0.0758 0.73776 0.0
C210 C 0.50554 0.27008 0.77103 0.0
C211 C 0.57185 0.22246 0.66576 0.0
C212 C 0.58005 0.22504 0.63323 0.0
C213 C 0.56055 0.16023 0.61721 0.0
C214 C 0.56986 0.16282 0.58651 0.0
C215 C 0.59892 0.2302 0.5716 0.0
C216 C 0.61776 0.29478 0.58725 0.0
C217 C 0.60847 0.29236 0.61789 0.0
C218 C 0.44697 0.32976 0.7132 0.0
C219 C 0.30577 0.12958 0.6747 0.0
O220 O 0.27278 0.21401 0.76669 0.0
O221 O 0.25457 0.10505 0.77769 0.0
O222 O 0.32131 0.05351 0.7377 0.0
O223 O 0.42843 0.1437 0.7413 0.0
O224 O 0.43592 0.2533 0.77259 0.0
O225 O 0.53202 0.25029 0.74852 0.0
O226 O 0.51883 0.16125 0.6772 0.0
O227 O 0.57863 0.28166 0.6785 0.0
O228 O 0.51149 0.33986 0.70686 0.0
O229 O 0.39542 0.26327 0.70967 0.0
O230 O 0.37677 0.1525 0.67204 0.0
O231 O 0.27641 0.13728 0.69939 0.0
H232 H 0.27795 0.2874 0.81294 0.0
H233 H 0.2531 0.30377 0.86464 0.0
H234 H 0.15311 0.06995 0.87934 0.0
H235 H 0.17742 0.05284 0.82756 0.0
H236 H 0.53894 0.10774 0.62844 0.0
H237 H 0.55581 0.11261 0.57454 0.0
H238 H 0.64099 0.34728 0.57586 0.0
H239 H 0.6244 0.34339 0.62953 0.0
C240 C 0.23492 0.60307 0.18122 0.0
C241 C 0.23065 0.61226 0.20721 0.0
C242 C 0.24004 0.58215 0.15223 0.0
C243 C 0.24096 0.55332 0.12942 0.0
C244 C 0.62862 0.23894 0.51464 0.0
C245 C 0.61482 0.23434 0.54061 0.0
C246 C 0.65469 0.24402 0.48566 0.0
C247 C 0.68423 0.24463 0.46284 0.0
C248 C 0.38651 0.62883 0.84803 0.0
C249 C 0.37745 0.6153 0.87402 0.0
C250 C 0.40688 0.65491 0.81902 0.0
C251 C 0.43518 0.68471 0.79615 0.0
C252 C 0.75034 0.38827 0.18137 0.0
C253 C 0.75481 0.3791 0.20735 0.0
C254 C 0.74496 0.40879 0.15234 0.0
C255 C 0.74392 0.43722 0.12945 0.0
C256 C 0.3599 0.75496 0.51458 0.0
C257 C 0.37315 0.75918 0.5406 0.0
C258 C 0.33403 0.74961 0.48554 0.0
C259 C 0.30426 0.74832 0.46268 0.0
C260 C 0.60039 0.36205 0.84776 0.0
C261 C 0.60927 0.37531 0.87379 0.0
C262 C 0.57986 0.33618 0.81872 0.0
C263 C 0.55127 0.30637 0.79587 0.0
C264 C 0.45475 0.46878 0.06614 0.0
C265 C 0.38912 0.42731 0.06793 0.0
C266 C 0.53071 0.52208 0.06611 0.0
C267 C 0.59636 0.56348 0.06787 0.0
C268 C 0.00544 0.53323 0.39915 0.0
C269 C 0.02969 0.59883 0.40105 0.0
C270 C 0.98248 0.45725 0.39906 0.0
C271 C 0.95802 0.39161 0.40084 0.0
C272 C 0.46664 0.00699 0.73283 0.0
C273 C 0.42546 0.03145 0.7347 0.0
C274 C 0.51953 0.98382 0.73274 0.0
C275 C 0.5607 0.9593 0.73447 0.0
C276 C 0.51562 0.53345 0.72873 0.0
C277 C 0.5438 0.59825 0.72335 0.0
C278 C 0.46976 0.4561 0.72867 0.0
C279 C 0.44147 0.39137 0.72313 0.0
C280 C 0.0081 0.47185 0.06204 0.0
C281 C 0.04484 0.4438 0.05668 0.0
C282 C 0.9764 0.5175 0.06199 0.0
C283 C 0.93976 0.54562 0.05656 0.0
C284 C 0.45414 0.97986 0.39591 0.0
C285 C 0.38944 0.94337 0.39028 0.0
C286 C 0.53149 0.01127 0.39598 0.0
C287 C 0.59627 0.04775 0.39052 0.0
C288 C 0.17199 0.2115 0.93075 0.0
C289 C 0.18411 0.19824 0.90591 0.0
C290 C 0.16247 0.23441 0.95925 0.0
C291 C 0.16152 0.26229 0.98264 0.0
C292 C 0.92416 0.16551 0.29271 0.0
C293 C 0.89505 0.16444 0.31604 0.0
C294 C 0.95684 0.17511 0.26427 0.0
C295 C 0.98226 0.18719 0.23944 0.0
C296 C 0.75284 0.9259 0.62586 0.0
C297 C 0.72502 0.8969 0.64922 0.0
C298 C 0.77576 0.95847 0.59739 0.0
C299 C 0.78915 0.98391 0.57258 0.0
C300 C 0.81309 0.77802 0.93053 0.0
C301 C 0.80109 0.79135 0.90569 0.0
C302 C 0.82259 0.75518 0.95905 0.0
C303 C 0.82357 0.7274 0.98245 0.0
C304 C 0.06193 0.82431 0.29257 0.0
C305 C 0.09094 0.82552 0.31595 0.0
C306 C 0.02946 0.81467 0.26407 0.0
C307 C 0.00417 0.80265 0.23921 0.0
C308 C 0.23184 0.0635 0.62606 0.0
C309 C 0.25977 0.09259 0.64941 0.0
C310 C 0.20895 0.03098 0.59757 0.0
C311 C 0.1957 0.00568 0.57272 0.0
loop_
_geom_bond_atom_site_label_1
_geom_bond_atom_site_label_2
_geom_bond_distance
_geom_bond_site_symmetry_2
_ccdc_geom_bond_type
Nd0 C2 2.836 . S
Nd0 O20 2.500 . S
Nd0 O21 2.492 . S
Nd0 O22 2.487 . S
Nd0 O23 2.682 . S
Nd0 O24 2.410 . S
Nd0 O29 2.414 . S
Nd0 O31 2.424 . S
Nd1 C11 2.836 1_554 S
Nd1 O23 2.414 . S
Nd1 O25 2.424 . S
Nd1 O26 2.500 1_554 S
Nd1 O27 2.492 1_554 S
Nd1 O28 2.487 . S
Nd1 O29 2.682 . S
Nd1 O30 2.410 1_554 S
C2 Nd0 2.836 . S
C2 C3 1.498 . S
C2 O20 1.258 . S
C2 O21 1.239 . S
C3 C2 1.498 . S
C3 C4 1.366 . S
C3 C8 1.407 . S
C4 C3 1.366 . S
C4 C5 1.392 1_455 S
C4 H32 0.930 1_455 S
C5 C4 1.392 1_655 S
C5 C6 1.398 1_655 S
C5 H33 0.929 . S
C6 C5 1.398 1_455 S
C6 C7 1.352 . S
C7 C6 1.352 . S
C7 C8 1.384 . S
C7 H34 0.930 . S
C8 C3 1.407 . S
C8 C7 1.384 . S
C8 H35 0.929 . S
C9 O22 1.241 . S
C9 O23 1.273 . S
C10 O24 1.251 . S
C10 O25 1.268 . S
C11 Nd1 2.836 1_556 S
C11 C12 1.498 . S
C11 O26 1.258 . S
C11 O27 1.239 . S
C12 C11 1.498 . S
C12 C13 1.366 . S
C12 C17 1.407 . S
C13 C12 1.366 . S
C13 C14 1.392 . S
C13 H36 0.930 . S
C14 C13 1.392 . S
C14 C15 1.398 . S
C14 H37 0.929 . S
C15 C14 1.398 . S
C15 C16 1.352 . S
C16 C15 1.352 . S
C16 C17 1.384 . S
C16 H38 0.930 . S
C17 C12 1.407 . S
C17 C16 1.384 . S
C17 H39 0.929 . S
C18 O28 1.241 . S
C18 O29 1.273 . S
C19 O30 1.251 . S
C19 O31 1.268 1_556 S
O20 Nd0 2.500 . S
O20 C2 1.258 . S
O21 Nd0 2.492 . S
O21 C2 1.239 . S
O22 Nd0 2.487 . S
O22 C9 1.241 . S
O23 Nd0 2.682 . S
O23 Nd1 2.414 . S
O23 C9 1.273 . S
O24 Nd0 2.410 . S
O24 C10 1.251 . S
O25 Nd1 2.424 . S
O25 C10 1.268 . S
O26 Nd1 2.500 1_556 S
O26 C11 1.258 . S
O27 Nd1 2.492 1_556 S
O27 C11 1.239 . S
O28 Nd1 2.487 . S
O28 C18 1.241 . S
O29 Nd0 2.414 . S
O29 Nd1 2.682 . S
O29 C18 1.273 . S
O30 Nd1 2.410 1_556 S
O30 C19 1.251 . S
O31 Nd0 2.424 . S
O31 C19 1.268 1_554 S
H32 C4 0.930 1_655 S
H33 C5 0.929 . S
H34 C7 0.930 . S
H35 C8 0.929 . S
H36 C13 0.930 . S
H37 C14 0.929 . S
H38 C16 0.930 . S
H39 C17 0.929 . S
Nd40 C42 2.836 . S
Nd40 O60 2.500 . S
Nd40 O61 2.492 . S
Nd40 O62 2.487 . S
Nd40 O63 2.682 . S
Nd40 O64 2.410 . S
Nd40 O69 2.414 . S
Nd40 O71 2.424 . S
Nd41 C51 2.836 . S
Nd41 O63 2.414 . S
Nd41 O65 2.424 . S
Nd41 O66 2.500 . S
Nd41 O67 2.492 . S
Nd41 O68 2.487 . S
Nd41 O69 2.682 . S
Nd41 O70 2.410 . S
C42 Nd40 2.836 . S
C42 C43 1.498 . S
C42 O60 1.258 . S
C42 O61 1.239 . S
C43 C42 1.498 . S
C43 C44 1.366 . S
C43 C48 1.407 . S
C44 C43 1.366 . S
C44 C45 1.392 1_545 S
C44 H72 0.930 1_545 S
C45 C44 1.392 1_565 S
C45 C46 1.398 1_565 S
C45 H73 0.929 . S
C46 C45 1.398 1_545 S
C46 C47 1.352 . S
C47 C46 1.352 . S
C47 C48 1.384 . S
C47 H74 0.930 . S
C48 C43 1.407 . S
C48 C47 1.384 . S
C48 H75 0.929 . S
C49 O62 1.241 . S
C49 O63 1.273 . S
C50 O64 1.251 . S
C50 O65 1.268 . S
C51 Nd41 2.836 . S
C51 C52 1.498 . S
C51 O66 1.258 . S
C51 O67 1.239 . S
C52 C51 1.498 . S
C52 C53 1.366 . S
C52 C57 1.407 . S
C53 C52 1.366 . S
C53 C54 1.392 . S
C53 H76 0.930 . S
C54 C53 1.392 . S
C54 C55 1.398 . S
C54 H77 0.929 . S
C55 C54 1.398 . S
C55 C56 1.352 . S
C56 C55 1.352 . S
C56 C57 1.384 . S
C56 H78 0.930 . S
C57 C52 1.407 . S
C57 C56 1.384 . S
C57 H79 0.929 . S
C58 O68 1.241 . S
C58 O69 1.273 . S
C59 O70 1.251 . S
C59 O71 1.268 . S
O60 Nd40 2.500 . S
O60 C42 1.258 . S
O61 Nd40 2.492 . S
O61 C42 1.239 . S
O62 Nd40 2.487 . S
O62 C49 1.241 . S
O63 Nd40 2.682 . S
O63 Nd41 2.414 . S
O63 C49 1.273 . S
O64 Nd40 2.410 . S
O64 C50 1.251 . S
O65 Nd41 2.424 . S
O65 C50 1.268 . S
O66 Nd41 2.500 . S
O66 C51 1.258 . S
O67 Nd41 2.492 . S
O67 C51 1.239 . S
O68 Nd41 2.487 . S
O68 C58 1.241 . S
O69 Nd40 2.414 . S
O69 Nd41 2.682 . S
O69 C58 1.273 . S
O70 Nd41 2.410 . S
O70 C59 1.251 . S
O71 Nd40 2.424 . S
O71 C59 1.268 . S
H72 C44 0.930 1_565 S
H73 C45 0.929 . S
H74 C47 0.930 . S
H75 C48 0.929 . S
H76 C53 0.930 . S
H77 C54 0.929 . S
H78 C56 0.930 . S
H79 C57 0.929 . S
Nd80 C82 2.836 . S
Nd80 O100 2.500 . S
Nd80 O101 2.492 . S
Nd80 O102 2.487 . S
Nd80 O103 2.682 . S
Nd80 O104 2.410 . S
Nd80 O109 2.414 . S
Nd80 O111 2.424 . S
Nd81 C91 2.836 . S
Nd81 O103 2.414 . S
Nd81 O105 2.424 . S
Nd81 O106 2.500 . S
Nd81 O107 2.492 . S
Nd81 O108 2.487 . S
Nd81 O109 2.682 . S
Nd81 O110 2.410 . S
C82 Nd80 2.836 . S
C82 C83 1.498 . S
C82 O100 1.258 . S
C82 O101 1.239 . S
C83 C82 1.498 . S
C83 C84 1.366 . S
C83 C88 1.407 . S
C84 C83 1.366 . S
C84 C85 1.392 . S
C84 H112 0.930 . S
C85 C84 1.392 . S
C85 C86 1.398 . S
C85 H113 0.929 . S
C86 C85 1.398 . S
C86 C87 1.352 . S
C87 C86 1.352 . S
C87 C88 1.384 . S
C87 H114 0.930 . S
C88 C83 1.407 . S
C88 C87 1.384 . S
C88 H115 0.929 . S
C89 O102 1.241 . S
C89 O103 1.273 . S
C90 O104 1.251 . S
C90 O105 1.268 . S
C91 Nd81 2.836 . S
C91 C92 1.498 . S
C91 O106 1.258 . S
C91 O107 1.239 . S
C92 C91 1.498 . S
C92 C93 1.366 . S
C92 C97 1.407 . S
C93 C92 1.366 . S
C93 C94 1.392 . S
C93 H116 0.930 . S
C94 C93 1.392 . S
C94 C95 1.398 . S
C94 H117 0.929 . S
C95 C94 1.398 . S
C95 C96 1.352 . S
C96 C95 1.352 . S
C96 C97 1.384 . S
C96 H118 0.930 . S
C97 C92 1.407 . S
C97 C96 1.384 . S
C97 H119 0.929 . S
C98 O108 1.241 . S
C98 O109 1.273 . S
C99 O110 1.251 . S
C99 O111 1.268 . S
O100 Nd80 2.500 . S
O100 C82 1.258 . S
O101 Nd80 2.492 . S
O101 C82 1.239 . S
O102 Nd80 2.487 . S
O102 C89 1.241 . S
O103 Nd80 2.682 . S
O103 Nd81 2.414 . S
O103 C89 1.273 . S
O104 Nd80 2.410 . S
O104 C90 1.251 . S
O105 Nd81 2.424 . S
O105 C90 1.268 . S
O106 Nd81 2.500 . S
O106 C91 1.258 . S
O107 Nd81 2.492 . S
O107 C91 1.239 . S
O108 Nd81 2.487 . S
O108 C98 1.241 . S
O109 Nd80 2.414 . S
O109 Nd81 2.682 . S
O109 C98 1.273 . S
O110 Nd81 2.410 . S
O110 C99 1.251 . S
O111 Nd80 2.424 . S
O111 C99 1.268 . S
H112 C84 0.930 . S
H113 C85 0.929 . S
H114 C87 0.930 . S
H115 C88 0.929 . S
H116 C93 0.930 . S
H117 C94 0.929 . S
H118 C96 0.930 . S
H119 C97 0.929 . S
Nd120 C122 2.836 . S
Nd120 O140 2.500 . S
Nd120 O141 2.492 . S
Nd120 O142 2.487 . S
Nd120 O143 2.682 . S
Nd120 O144 2.410 . S
Nd120 O149 2.414 . S
Nd120 O151 2.424 . S
Nd121 C131 2.836 1_554 S
Nd121 O143 2.414 . S
Nd121 O145 2.424 . S
Nd121 O146 2.500 1_554 S
Nd121 O147 2.492 1_554 S
Nd121 O148 2.487 . S
Nd121 O149 2.682 . S
Nd121 O150 2.410 1_554 S
C122 Nd120 2.836 . S
C122 C123 1.498 . S
C122 O140 1.258 . S
C122 O141 1.239 . S
C123 C122 1.498 . S
C123 C124 1.366 . S
C123 C128 1.407 . S
C124 C123 1.366 . S
C124 C125 1.392 1_655 S
C124 H152 0.930 1_655 S
C125 C124 1.392 1_455 S
C125 C126 1.398 1_455 S
C125 H153 0.929 . S
C126 C125 1.398 1_655 S
C126 C127 1.352 . S
C127 C126 1.352 . S
C127 C128 1.384 . S
C127 H154 0.930 . S
C128 C123 1.407 . S
C128 C127 1.384 . S
C128 H155 0.929 . S
C129 O142 1.241 . S
C129 O143 1.273 . S
C130 O144 1.251 . S
C130 O145 1.268 . S
C131 Nd121 2.836 1_556 S
C131 C132 1.498 . S
C131 O146 1.258 . S
C131 O147 1.239 . S
C132 C131 1.498 . S
C132 C133 1.366 . S
C132 C137 1.407 . S
C133 C132 1.366 . S
C133 C134 1.392 . S
C133 H156 0.930 . S
C134 C133 1.392 . S
C134 C135 1.398 . S
C134 H157 0.929 . S
C135 C134 1.398 . S
C135 C136 1.352 . S
C136 C135 1.352 . S
C136 C137 1.384 . S
C136 H158 0.930 . S
C137 C132 1.407 . S
C137 C136 1.384 . S
C137 H159 0.929 . S
C138 O148 1.241 . S
C138 O149 1.273 . S
C139 O150 1.251 . S
C139 O151 1.268 1_556 S
O140 Nd120 2.500 . S
O140 C122 1.258 . S
O141 Nd120 2.492 . S
O141 C122 1.239 . S
O142 Nd120 2.487 . S
O142 C129 1.241 . S
O143 Nd120 2.682 . S
O143 Nd121 2.414 . S
O143 C129 1.273 . S
O144 Nd120 2.410 . S
O144 C130 1.251 . S
O145 Nd121 2.424 . S
O145 C130 1.268 . S
O146 Nd121 2.500 1_556 S
O146 C131 1.258 . S
O147 Nd121 2.492 1_556 S
O147 C131 1.239 . S
O148 Nd121 2.487 . S
O148 C138 1.241 . S
O149 Nd120 2.414 . S
O149 Nd121 2.682 . S
O149 C138 1.273 . S
O150 Nd121 2.410 1_556 S
O150 C139 1.251 . S
O151 Nd120 2.424 . S
O151 C139 1.268 1_554 S
H152 C124 0.930 1_455 S
H153 C125 0.929 . S
H154 C127 0.930 . S
H155 C128 0.929 . S
H156 C133 0.930 . S
H157 C134 0.929 . S
H158 C136 0.930 . S
H159 C137 0.929 . S
Nd160 C162 2.836 . S
Nd160 O180 2.500 . S
Nd160 O181 2.492 . S
Nd160 O182 2.487 . S
Nd160 O183 2.682 . S
Nd160 O184 2.410 . S
Nd160 O189 2.414 . S
Nd160 O191 2.424 . S
Nd161 C171 2.836 . S
Nd161 O183 2.414 . S
Nd161 O185 2.424 . S
Nd161 O186 2.500 . S
Nd161 O187 2.492 . S
Nd161 O188 2.487 . S
Nd161 O189 2.682 . S
Nd161 O190 2.410 . S
C162 Nd160 2.836 . S
C162 C163 1.498 . S
C162 O180 1.258 . S
C162 O181 1.239 . S
C163 C162 1.498 . S
C163 C164 1.366 . S
C163 C168 1.407 . S
C164 C163 1.366 . S
C164 C165 1.392 1_565 S
C164 H192 0.930 1_565 S
C165 C164 1.392 1_545 S
C165 C166 1.398 1_545 S
C165 H193 0.929 . S
C166 C165 1.398 1_565 S
C166 C167 1.352 . S
C167 C166 1.352 . S
C167 C168 1.384 . S
C167 H194 0.930 . S
C168 C163 1.407 . S
C168 C167 1.384 . S
C168 H195 0.929 . S
C169 O182 1.241 . S
C169 O183 1.273 . S
C170 O184 1.251 . S
C170 O185 1.268 . S
C171 Nd161 2.836 . S
C171 C172 1.498 . S
C171 O186 1.258 . S
C171 O187 1.239 . S
C172 C171 1.498 . S
C172 C173 1.366 . S
C172 C177 1.407 . S
C173 C172 1.366 . S
C173 C174 1.392 . S
C173 H196 0.930 . S
C174 C173 1.392 . S
C174 C175 1.398 . S
C174 H197 0.929 . S
C175 C174 1.398 . S
C175 C176 1.352 . S
C176 C175 1.352 . S
C176 C177 1.384 . S
C176 H198 0.930 . S
C177 C172 1.407 . S
C177 C176 1.384 . S
C177 H199 0.929 . S
C178 O188 1.241 . S
C178 O189 1.273 . S
C179 O190 1.251 . S
C179 O191 1.268 . S
O180 Nd160 2.500 . S
O180 C162 1.258 . S
O181 Nd160 2.492 . S
O181 C162 1.239 . S
O182 Nd160 2.487 . S
O182 C169 1.241 . S
O183 Nd160 2.682 . S
O183 Nd161 2.414 . S
O183 C169 1.273 . S
O184 Nd160 2.410 . S
O184 C170 1.251 . S
O185 Nd161 2.424 . S
O185 C170 1.268 . S
O186 Nd161 2.500 . S
O186 C171 1.258 . S
O187 Nd161 2.492 . S
O187 C171 1.239 . S
O188 Nd161 2.487 . S
O188 C178 1.241 . S
O189 Nd160 2.414 . S
O189 Nd161 2.682 . S
O189 C178 1.273 . S
O190 Nd161 2.410 . S
O190 C179 1.251 . S
O191 Nd160 2.424 . S
O191 C179 1.268 . S
H192 C164 0.930 1_545 S
H193 C165 0.929 . S
H194 C167 0.930 . S
H195 C168 0.929 . S
H196 C173 0.930 . S
H197 C174 0.929 . S
H198 C176 0.930 . S
H199 C177 0.929 . S
Nd200 C202 2.836 . S
Nd200 O220 2.500 . S
Nd200 O221 2.492 . S
Nd200 O222 2.487 . S
Nd200 O223 2.682 . S
Nd200 O224 2.410 . S
Nd200 O229 2.414 . S
Nd200 O231 2.424 . S
Nd201 C211 2.836 . S
Nd201 O223 2.414 . S
Nd201 O225 2.424 . S
Nd201 O226 2.500 . S
Nd201 O227 2.492 . S
Nd201 O228 2.487 . S
Nd201 O229 2.682 . S
Nd201 O230 2.410 . S
C202 Nd200 2.836 . S
C202 C203 1.498 . S
C202 O220 1.258 . S
C202 O221 1.239 . S
C203 C202 1.498 . S
C203 C204 1.366 . S
C203 C208 1.407 . S
C204 C203 1.366 . S
C204 C205 1.392 . S
C204 H232 0.930 . S
C205 C204 1.392 . S
C205 C206 1.398 . S
C205 H233 0.929 . S
C206 C205 1.398 . S
C206 C207 1.352 . S
C207 C206 1.352 . S
C207 C208 1.384 . S
C207 H234 0.930 . S
C208 C203 1.407 . S
C208 C207 1.384 . S
C208 H235 0.929 . S
C209 O222 1.241 . S
C209 O223 1.273 . S
C210 O224 1.251 . S
C210 O225 1.268 . S
C211 Nd201 2.836 . S
C211 C212 1.498 . S
C211 O226 1.258 . S
C211 O227 1.239 . S
C212 C211 1.498 . S
C212 C213 1.366 . S
C212 C217 1.407 . S
C213 C212 1.366 . S
C213 C214 1.392 . S
C213 H236 0.930 . S
C214 C213 1.392 . S
C214 C215 1.398 . S
C214 H237 0.929 . S
C215 C214 1.398 . S
C215 C216 1.352 . S
C216 C215 1.352 . S
C216 C217 1.384 . S
C216 H238 0.930 . S
C217 C212 1.407 . S
C217 C216 1.384 . S
C217 H239 0.929 . S
C218 O228 1.241 . S
C218 O229 1.273 . S
C219 O230 1.251 . S
C219 O231 1.268 . S
O220 Nd200 2.500 . S
O220 C202 1.258 . S
O221 Nd200 2.492 . S
O221 C202 1.239 . S
O222 Nd200 2.487 . S
O222 C209 1.241 . S
O223 Nd200 2.682 . S
O223 Nd201 2.414 . S
O223 C209 1.273 . S
O224 Nd200 2.410 . S
O224 C210 1.251 . S
O225 Nd201 2.424 . S
O225 C210 1.268 . S
O226 Nd201 2.500 . S
O226 C211 1.258 . S
O227 Nd201 2.492 . S
O227 C211 1.239 . S
O228 Nd201 2.487 . S
O228 C218 1.241 . S
O229 Nd200 2.414 . S
O229 Nd201 2.682 . S
O229 C218 1.273 . S
O230 Nd201 2.410 . S
O230 C219 1.251 . S
O231 Nd200 2.424 . S
O231 C219 1.268 . S
H232 C204 0.930 . S
H233 C205 0.929 . S
H234 C207 0.930 . S
H235 C208 0.929 . S
H236 C213 0.930 . S
H237 C214 0.929 . S
H238 C216 0.930 . S
H239 C217 0.929 . S
C240 C241 1.170 . S
C240 C242 1.380 . S
C241 C240 1.170 . S
C242 C240 1.380 . S
C242 C243 1.170 . S
C243 C242 1.170 . S
C244 C245 1.170 . S
C244 C246 1.380 . S
C245 C244 1.170 . S
C246 C244 1.380 . S
C246 C247 1.170 . S
C247 C246 1.170 . S
C248 C249 1.170 . S
C248 C250 1.380 . S
C249 C248 1.170 . S
C250 C248 1.380 . S
C250 C251 1.170 . S
C251 C250 1.170 . S
C252 C253 1.170 . S
C252 C254 1.380 . S
C253 C252 1.170 . S
C254 C252 1.380 . S
C254 C255 1.170 . S
C255 C254 1.170 . S
C256 C257 1.170 . S
C256 C258 1.380 . S
C257 C256 1.170 . S
C258 C256 1.380 . S
C258 C259 1.170 . S
C259 C258 1.170 . S
C260 C261 1.170 . S
C260 C262 1.380 . S
C261 C260 1.170 . S
C262 C260 1.380 . S
C262 C263 1.170 . S
C263 C262 1.170 . S
C264 C265 1.170 . S
C264 C266 1.380 . S
C265 C264 1.170 . S
C266 C264 1.380 . S
C266 C267 1.170 . S
C267 C266 1.170 . S
C268 C269 1.170 . S
C268 C270 1.380 1_455 S
C269 C268 1.170 . S
C270 C268 1.380 1_655 S
C270 C271 1.170 . S
C271 C270 1.170 . S
C272 C273 1.170 . S
C272 C274 1.380 1_545 S
C273 C272 1.170 . S
C274 C272 1.380 1_565 S
C274 C275 1.170 . S
C275 C274 1.170 . S
C276 C277 1.170 . S
C276 C278 1.380 . S
C277 C276 1.170 . S
C278 C276 1.380 . S
C278 C279 1.170 . S
C279 C278 1.170 . S
C280 C281 1.170 . S
C280 C282 1.380 1_455 S
C281 C280 1.170 . S
C282 C280 1.380 1_655 S
C282 C283 1.170 . S
C283 C282 1.170 . S
C284 C285 1.170 . S
C284 C286 1.380 1_565 S
C285 C284 1.170 . S
C286 C284 1.380 1_545 S
C286 C287 1.170 . S
C287 C286 1.170 . S
C288 C289 1.170 . S
C288 C290 1.380 . S
C289 C288 1.170 . S
C290 C288 1.380 . S
C290 C291 1.170 . S
C291 C290 1.170 . S
C292 C293 1.170 . S
C292 C294 1.380 . S
C293 C292 1.170 . S
C294 C292 1.380 . S
C294 C295 1.170 . S
C295 C294 1.170 . S
C296 C297 1.170 . S
C296 C298 1.380 . S
C297 C296 1.170 . S
C298 C296 1.380 . S
C298 C299 1.170 . S
C299 C298 1.170 . S
C300 C301 1.170 . S
C300 C302 1.380 . S
C301 C300 1.170 . S
C302 C300 1.380 . S
C302 C303 1.170 . S
C303 C302 1.170 . S
C304 C305 1.170 . S
C304 C306 1.380 . S
C305 C304 1.170 . S
C306 C304 1.380 . S
C306 C307 1.170 . S
C307 C306 1.170 . S
C308 C309 1.170 . S
C308 C310 1.380 . S
C309 C308 1.170 . S
C310 C308 1.380 . S
C310 C311 1.170 . S
C311 C310 1.170 . S
C241 C175 1.227 . S
C243 C10 1.232 . S
C245 C215 1.229 . S
C247 C50 1.224 . S
C249 C15 1.229 . S
C251 C90 1.226 . S
C253 C55 1.235 . S
C255 C130 1.207 . S
C257 C95 1.228 . S
C259 C170 1.231 . S
C261 C135 1.228 . S
C263 C210 1.231 . S
C265 C9 1.433 . S
C267 C129 1.418 . S
C269 C169 1.422 . S
C271 C49 1.437 . S
C273 C209 1.434 . S
C275 C89 1.427 . S
C277 C98 1.249 . S
C279 C218 1.215 . S
C281 C18 1.268 . S
C283 C138 1.188 . S
C285 C178 1.202 . S
C287 C58 1.243 . S
C289 C206 1.416 . S
C291 C19 1.423 . S
C293 C59 1.432 . S
C295 C6 1.395 1_655 S
C297 C99 1.444 . S
C299 C46 1.376 1_565 S
C301 C86 1.385 . S
C303 C139 1.440 . S
C305 C179 1.443 . S
C307 C126 1.375 1_455 S
C309 C219 1.433 . S
C311 C166 1.393 1_545 S
