# Generated by pormake.
# Topology umm, (4)-cn, num edge types: 1
# Building blocks:
#     Node 0, Type 0, BuildingBlock: GALJAG_clean_sbu_0, # of connection points: 4
#     Node 1, Type 0, BuildingBlock: GALJAG_clean_sbu_0, # of connection points: 4
#     Node 2, Type 0, BuildingBlock: GALJAG_clean_sbu_0, # of connection points: 4
#     Node 3, Type 0, BuildingBlock: GALJAG_clean_sbu_0, # of connection points: 4
#     Node 4, Type 0, BuildingBlock: GALJAG_clean_sbu_0, # of connection points: 4
#     Node 5, Type 0, BuildingBlock: GALJAG_clean_sbu_0, # of connection points: 4
#     Node 6, Type 0, BuildingBlock: GALJAG_clean_sbu_0, # of connection points: 4
#     Node 7, Type 0, BuildingBlock: GALJAG_clean_sbu_0, # of connection points: 4
#     Node 8, Type 0, BuildingBlock: GALJAG_clean_sbu_0, # of connection points: 4
#     Node 9, Type 0, BuildingBlock: GALJAG_clean_sbu_0, # of connection points: 4
#     Node 10, Type 0, BuildingBlock: GALJAG_clean_sbu_0, # of connection points: 4
#     Node 11, Type 0, BuildingBlock: GALJAG_clean_sbu_0, # of connection points: 4
#     Edge 12, Type (0, 0), BuildingBlock: OJICUG_clean_linker_0, # of connection points: 2
#     Edge 13, Type (0, 0), BuildingBlock: OJICUG_clean_linker_0, # of connection points: 2
#     Edge 14, Type (0, 0), BuildingBlock: OJICUG_clean_linker_0, # of connection points: 2
#     Edge 15, Type (0, 0), BuildingBlock: OJICUG_clean_linker_0, # of connection points: 2
#     Edge 16, Type (0, 0), BuildingBlock: OJICUG_clean_linker_0, # of connection points: 2
#     Edge 17, Type (0, 0), BuildingBlock: OJICUG_clean_linker_0, # of connection points: 2
#     Edge 18, Type (0, 0), BuildingBlock: OJICUG_clean_linker_0, # of connection points: 2
#     Edge 19, Type (0, 0), BuildingBlock: OJICUG_clean_linker_0, # of connection points: 2
#     Edge 20, Type (0, 0), BuildingBlock: OJICUG_clean_linker_0, # of connection points: 2
#     Edge 21, Type (0, 0), BuildingBlock: OJICUG_clean_linker_0, # of connection points: 2
#     Edge 22, Type (0, 0), BuildingBlock: OJICUG_clean_linker_0, # of connection points: 2
#     Edge 23, Type (0, 0), BuildingBlock: OJICUG_clean_linker_0, # of connection points: 2
#     Edge 24, Type (0, 0), BuildingBlock: OJICUG_clean_linker_0, # of connection points: 2
#     Edge 25, Type (0, 0), BuildingBlock: OJICUG_clean_linker_0, # of connection points: 2
#     Edge 26, Type (0, 0), BuildingBlock: OJICUG_clean_linker_0, # of connection points: 2
#     Edge 27, Type (0, 0), BuildingBlock: OJICUG_clean_linker_0, # of connection points: 2
#     Edge 28, Type (0, 0), BuildingBlock: OJICUG_clean_linker_0, # of connection points: 2
#     Edge 29, Type (0, 0), BuildingBlock: OJICUG_clean_linker_0, # of connection points: 2
#     Edge 30, Type (0, 0), BuildingBlock: OJICUG_clean_linker_0, # of connection points: 2
#     Edge 31, Type (0, 0), BuildingBlock: OJICUG_clean_linker_0, # of connection points: 2
#     Edge 32, Type (0, 0), BuildingBlock: OJICUG_clean_linker_0, # of connection points: 2
#     Edge 33, Type (0, 0), BuildingBlock: OJICUG_clean_linker_0, # of connection points: 2
#     Edge 34, Type (0, 0), BuildingBlock: OJICUG_clean_linker_0, # of connection points: 2
#     Edge 35, Type (0, 0), BuildingBlock: OJICUG_clean_linker_0, # of connection points: 2
# Relax obj value: 0.093
# Max RMSD: 0.222
# Mean RMSD: 0.220
data_MOF--net-umm--node1-GALJAG_clean_sbu_0--edge1-OJICUG_clean_linker_0
_symmetry_space_group_name_H-M    P1
_symmetry_Int_Tables_number       1
_symmetry_cell_setting            triclinic
loop_
_symmetry_equiv_pos_as_xyz
'x, y, z'
_cell_length_a     40.850962
_cell_length_b     40.858288
_cell_length_c     20.813614
_cell_angle_alpha  90.040444
_cell_angle_beta   89.974274
_cell_angle_gamma 120.03422
loop_
_atom_site_label
_atom_site_type_symbol
_atom_site_fract_x
_atom_site_fract_y
_atom_site_fract_z
_atom_type_partial_charge
In0 In 0.39232 0.54534 0.09199 0.0
O1 O 0.41535 0.59551 0.1601 0.0
O2 O 0.37457 0.54123 0.19625 0.0
C3 C 0.41725 0.57054 0.97397 0.0
C4 C 0.44168 0.52149 0.1131 0.0
C5 C 0.32136 0.5176 0.05071 0.0
O6 O 0.4147 0.59178 0.01571 0.0
O7 O 0.40851 0.53782 0.99274 0.0
O8 O 0.33251 0.49544 0.07058 0.0
O9 O 0.34482 0.55239 0.05649 0.0
C10 C 0.39661 0.57592 0.20788 0.0
O11 O 0.40638 0.49838 0.10848 0.0
O12 O 0.45122 0.55598 0.10903 0.0
In13 In 0.85437 0.37721 0.41217 0.0
O14 O 0.82351 0.39542 0.48164 0.0
O15 O 0.85235 0.36797 0.51945 0.0
C16 C 0.83675 0.38715 0.29306 0.0
C17 C 0.92615 0.43515 0.4176 0.0
C18 C 0.81624 0.30207 0.39531 0.0
O19 O 0.82546 0.39763 0.3415 0.0
O20 O 0.85692 0.37263 0.30531 0.0
O21 O 0.85164 0.3214 0.38591 0.0
O22 O 0.80124 0.32037 0.41694 0.0
C23 C 0.83289 0.38361 0.53067 0.0
O24 O 0.91848 0.4011 0.42352 0.0
O25 O 0.89788 0.43926 0.40919 0.0
In26 In 0.46654 0.85497 0.75481 0.0
O27 O 0.41547 0.82687 0.8216 0.0
O28 O 0.47071 0.84785 0.86161 0.0
C29 C 0.4429 0.84846 0.63291 0.0
C30 C 0.48472 0.92711 0.77423 0.0
C31 C 0.50093 0.81442 0.73555 0.0
O32 O 0.42134 0.82606 0.67596 0.0
O33 O 0.47513 0.8734 0.65205 0.0
O34 O 0.51914 0.85017 0.73126 0.0
O35 O 0.46672 0.80015 0.75188 0.0
C36 C 0.43546 0.83216 0.87139 0.0
O37 O 0.50975 0.9173 0.77454 0.0
O38 O 0.45133 0.90057 0.76484 0.0
In39 In 0.60453 0.45211 0.08758 0.0
O40 O 0.57975 0.40235 0.15687 0.0
O41 O 0.61571 0.45792 0.19444 0.0
C42 C 0.58956 0.42534 0.96745 0.0
C43 C 0.55494 0.47668 0.10039 0.0
C44 C 0.67841 0.47873 0.06969 0.0
O45 O 0.5776 0.40329 0.01545 0.0
O46 O 0.60789 0.46012 0.98061 0.0
O47 O 0.66432 0.50006 0.06316 0.0
O48 O 0.65568 0.44555 0.08872 0.0
C49 C 0.59495 0.42298 0.20579 0.0
O50 O 0.59033 0.49926 0.10428 0.0
O51 O 0.54544 0.44276 0.08907 0.0
In52 In 0.14939 0.62267 0.41004 0.0
O53 O 0.17891 0.60384 0.48137 0.0
O54 O 0.14965 0.63126 0.51745 0.0
C55 C 0.16877 0.61326 0.29145 0.0
C56 C 0.07753 0.56478 0.4145 0.0
C57 C 0.18722 0.69805 0.39617 0.0
O58 O 0.17967 0.60296 0.34056 0.0
O59 O 0.14813 0.6274 0.30277 0.0
O60 O 0.15207 0.67858 0.38457 0.0
O61 O 0.20209 0.6797 0.41807 0.0
C62 C 0.16867 0.61532 0.52986 0.0
O63 O 0.0852 0.59886 0.41961 0.0
O64 O 0.10581 0.5606 0.40671 0.0
In65 In 0.53363 0.15344 0.75269 0.0
O66 O 0.5849 0.18342 0.81904 0.0
O67 O 0.52982 0.16242 0.85926 0.0
C68 C 0.55978 0.16132 0.63176 0.0
C69 C 0.51693 0.0818 0.77415 0.0
C70 C 0.49236 0.18668 0.72834 0.0
O71 O 0.57867 0.18588 0.67424 0.0
O72 O 0.52918 0.13375 0.65109 0.0
O73 O 0.47808 0.15119 0.72495 0.0
O74 O 0.52636 0.20463 0.74657 0.0
C75 C 0.56509 0.17853 0.86887 0.0
O76 O 0.4916 0.09116 0.77459 0.0
O77 O 0.55008 0.10859 0.76389 0.0
In78 In 0.47067 0.62051 0.58478 0.0
O79 O 0.42077 0.60185 0.5172 0.0
O80 O 0.4767 0.63609 0.47965 0.0
C81 C 0.44939 0.60191 0.70615 0.0
C82 C 0.48405 0.56333 0.56586 0.0
C83 C 0.50289 0.69343 0.61705 0.0
O84 O 0.42688 0.60271 0.66494 0.0
O85 O 0.48143 0.60941 0.68529 0.0
O86 O 0.5232 0.67891 0.60319 0.0
O87 O 0.46768 0.67186 0.61076 0.0
C88 C 0.44148 0.61785 0.46871 0.0
O89 O 0.51086 0.59753 0.56725 0.0
O90 O 0.45126 0.55876 0.57231 0.0
In91 In 0.8466 0.45265 0.91057 0.0
O92 O 0.82156 0.40384 0.8397 0.0
O93 O 0.83996 0.45946 0.80408 0.0
C94 C 0.83654 0.42581 0.02993 0.0
C95 C 0.92081 0.47656 0.90224 0.0
C96 C 0.79936 0.47777 0.93942 0.0
O97 O 0.82498 0.40371 0.98188 0.0
O98 O 0.85408 0.46066 0.01704 0.0
O99 O 0.83434 0.5008 0.93083 0.0
O100 O 0.78872 0.44351 0.92782 0.0
C101 C 0.82633 0.42472 0.79158 0.0
O102 O 0.90857 0.49965 0.90025 0.0
O103 O 0.89569 0.4423 0.90797 0.0
In104 In 0.38335 0.85603 0.24844 0.0
O105 O 0.40403 0.82658 0.1802 0.0
O106 O 0.36923 0.84729 0.14222 0.0
C107 C 0.40408 0.84918 0.36765 0.0
C108 C 0.43788 0.92778 0.22676 0.0
C109 C 0.30935 0.81948 0.27741 0.0
O110 O 0.39837 0.82483 0.32481 0.0
O111 O 0.40005 0.87637 0.34962 0.0
O112 O 0.32836 0.85527 0.27593 0.0
O113 O 0.32723 0.80297 0.26162 0.0
C114 C 0.38852 0.83146 0.13124 0.0
O115 O 0.4032 0.91852 0.22895 0.0
O116 O 0.44431 0.90087 0.23469 0.0
In117 In 0.52006 0.37651 0.58477 0.0
O118 O 0.56906 0.39387 0.51542 0.0
O119 O 0.51268 0.36553 0.47786 0.0
C120 C 0.54807 0.38798 0.70406 0.0
C121 C 0.50607 0.43412 0.57357 0.0
C122 C 0.48267 0.30157 0.60409 0.0
O123 O 0.56962 0.3974 0.65541 0.0
O124 O 0.51338 0.37397 0.69193 0.0
O125 O 0.467 0.32124 0.61353 0.0
O126 O 0.51575 0.3194 0.58135 0.0
C127 C 0.54778 0.38128 0.46652 0.0
O128 O 0.47977 0.39994 0.56894 0.0
O129 O 0.53838 0.43852 0.5844 0.0
In130 In 0.15333 0.54381 0.91077 0.0
O131 O 0.09117 0.49724 0.89998 0.0
O132 O 0.10411 0.55414 0.91437 0.0
C133 C 0.19826 0.51405 0.92464 0.0
C134 C 0.17076 0.57183 0.79131 0.0
C135 C 0.17013 0.57318 0.02934 0.0
O136 O 0.163 0.49449 0.93511 0.0
O137 O 0.20964 0.54707 0.90383 0.0
O138 O 0.17876 0.59421 0.98017 0.0
O139 O 0.15282 0.53818 0.01814 0.0
C140 C 0.07896 0.52018 0.90561 0.0
O141 O 0.17785 0.59296 0.84005 0.0
O142 O 0.15579 0.53689 0.80326 0.0
In143 In 0.6175 0.15332 0.24517 0.0
O144 O 0.5964 0.09079 0.22396 0.0
O145 O 0.55595 0.109 0.23429 0.0
C146 C 0.69189 0.18667 0.27077 0.0
C147 C 0.61196 0.1783 0.12843 0.0
C148 C 0.59905 0.16125 0.36588 0.0
O149 O 0.67083 0.15111 0.27282 0.0
O150 O 0.67577 0.20463 0.25316 0.0
O151 O 0.60442 0.18559 0.3232 0.0
O152 O 0.60247 0.13386 0.34685 0.0
C153 C 0.56182 0.08187 0.22445 0.0
O154 O 0.59728 0.18381 0.17799 0.0
O155 O 0.63048 0.16159 0.13858 0.0
C156 C 0.38017 0.56953 0.32462 0.0
C157 C 0.40415 0.59093 0.27406 0.0
H158 H 0.37291 0.5619 0.4265 0.0
C159 C 0.43801 0.6243 0.28836 0.0
H160 H 0.35383 0.54375 0.3149 0.0
C161 C 0.44919 0.63434 0.35215 0.0
C162 C 0.42638 0.61158 0.40268 0.0
H163 H 0.45706 0.64134 0.25037 0.0
H164 H 0.47649 0.65899 0.36183 0.0
C165 C 0.39105 0.57997 0.38846 0.0
C166 C 0.82556 0.36834 0.64763 0.0
C167 C 0.8249 0.39056 0.59678 0.0
H168 H 0.82535 0.36121 0.74956 0.0
C169 C 0.82026 0.42167 0.61039 0.0
H170 H 0.82897 0.34412 0.63831 0.0
C171 C 0.81897 0.43191 0.67407 0.0
C172 C 0.82134 0.41064 0.725 0.0
H173 H 0.81979 0.43931 0.57199 0.0
H174 H 0.81739 0.45716 0.68348 0.0
C175 C 0.82332 0.37803 0.71121 0.0
C176 C 0.44091 0.82293 0.98871 0.0
C177 C 0.41971 0.82481 0.93715 0.0
H178 H 0.447 0.8225 0.09087 0.0
C179 C 0.38557 0.824 0.94999 0.0
H180 H 0.4673 0.82339 0.98013 0.0
C181 C 0.37428 0.82416 0.01345 0.0
C182 C 0.39655 0.82431 0.06506 0.0
H183 H 0.36874 0.82555 0.91117 0.0
H184 H 0.34891 0.82566 0.0221 0.0
C185 C 0.42922 0.82228 0.05209 0.0
C186 C 0.60981 0.42927 0.32299 0.0
C187 C 0.58585 0.4084 0.27205 0.0
H188 H 0.61684 0.43631 0.42502 0.0
C189 C 0.55114 0.3759 0.28573 0.0
H190 H 0.63678 0.45441 0.31364 0.0
C191 C 0.5394 0.36603 0.34938 0.0
C192 C 0.56259 0.38797 0.40031 0.0
H193 H 0.53208 0.35941 0.24733 0.0
H194 H 0.51164 0.34199 0.35872 0.0
C195 C 0.59847 0.41886 0.38664 0.0
C196 C 0.17378 0.62945 0.64739 0.0
C197 C 0.17506 0.60752 0.59648 0.0
H198 H 0.17253 0.63582 0.74946 0.0
C199 C 0.17875 0.57589 0.61027 0.0
H200 H 0.171 0.65402 0.63795 0.0
C201 C 0.17873 0.565 0.67396 0.0
C202 C 0.17605 0.58615 0.72486 0.0
H203 H 0.1796 0.55841 0.57188 0.0
H204 H 0.17981 0.53949 0.68337 0.0
C205 C 0.17479 0.61913 0.7111 0.0
C206 C 0.62622 0.18615 0.01065 0.0
C207 C 0.60401 0.18592 0.06247 0.0
H208 H 0.63177 0.18506 0.90833 0.0
C209 C 0.5715 0.1883 0.04976 0.0
H210 H 0.65147 0.18441 0.01907 0.0
C211 C 0.55987 0.18796 0.9864 0.0
C212 C 0.58098 0.1861 0.93461 0.0
H213 H 0.55377 0.18803 0.0887 0.0
H214 H 0.53353 0.18763 0.97799 0.0
C215 C 0.61502 0.18666 0.94727 0.0
C216 C 0.25081 0.48439 0.037 0.0
C217 C 0.28736 0.50566 0.01148 0.0
H218 H 0.19257 0.46961 0.02765 0.0
C219 C 0.29229 0.52233 0.95073 0.0
H220 H 0.24657 0.47166 0.08412 0.0
C221 C 0.26184 0.52112 0.91864 0.0
C222 C 0.22586 0.50332 0.94683 0.0
H223 H 0.32033 0.53879 0.93018 0.0
H224 H 0.26709 0.53683 0.87424 0.0
C225 C 0.22002 0.48314 0.00457 0.0
C226 C 0.76193 0.23649 0.4009 0.0
C227 C 0.79213 0.26484 0.36581 0.0
H228 H 0.70654 0.18754 0.39682 0.0
C229 C 0.79228 0.26193 0.29855 0.0
H230 H 0.76086 0.23873 0.45265 0.0
C231 C 0.76062 0.23354 0.26653 0.0
C232 C 0.72921 0.20689 0.30157 0.0
H233 H 0.8148 0.28409 0.27046 0.0
H234 H 0.75944 0.23425 0.21458 0.0
C235 C 0.73093 0.20728 0.36895 0.0
C236 C 0.53059 0.79416 0.65136 0.0
C237 C 0.51532 0.78975 0.71346 0.0
H238 H 0.53882 0.76605 0.57061 0.0
C239 C 0.50449 0.75616 0.74714 0.0
H240 H 0.53835 0.81959 0.62404 0.0
C241 C 0.50537 0.72609 0.71718 0.0
C242 C 0.51665 0.72892 0.65279 0.0
H243 H 0.49222 0.75198 0.79471 0.0
H244 H 0.49368 0.69932 0.74231 0.0
C245 C 0.53087 0.76363 0.62078 0.0
C246 C 0.73252 0.46771 0.07017 0.0
C247 C 0.71618 0.48826 0.0461 0.0
H248 H 0.77205 0.44885 0.05444 0.0
C249 C 0.73195 0.51098 0.99118 0.0
H250 H 0.72098 0.45003 0.11236 0.0
C251 C 0.76144 0.5102 0.95758 0.0
C252 C 0.77514 0.48676 0.97902 0.0
H253 H 0.71946 0.5267 0.97127 0.0
H254 H 0.77152 0.52561 0.91286 0.0
C255 C 0.76161 0.4669 0.03688 0.0
C256 C 0.20911 0.7442 0.30642 0.0
C257 C 0.21147 0.73666 0.37162 0.0
H258 H 0.23942 0.7773 0.2241 0.0
C259 C 0.2432 0.7622 0.40733 0.0
H260 H 0.1853 0.72434 0.27758 0.0
C261 C 0.27353 0.79299 0.37714 0.0
C262 C 0.27292 0.7981 0.31059 0.0
H263 H 0.2459 0.75655 0.45732 0.0
H264 H 0.29906 0.81037 0.40451 0.0
C265 C 0.24001 0.77442 0.27576 0.0
C266 C 0.47189 0.23454 0.73384 0.0
C267 C 0.47511 0.20702 0.69861 0.0
H268 H 0.46922 0.28556 0.72998 0.0
C269 C 0.4719 0.20638 0.63141 0.0
H270 H 0.47517 0.23598 0.7856 0.0
C271 C 0.46989 0.23546 0.59949 0.0
C272 C 0.46961 0.26464 0.63458 0.0
H273 H 0.47529 0.18593 0.60332 0.0
H274 H 0.47182 0.2369 0.54754 0.0
C275 C 0.46836 0.26277 0.70199 0.0
C276 C 0.45988 0.47142 0.1103 0.0
C277 C 0.4704 0.50963 0.11618 0.0
H278 H 0.47845 0.43118 0.1005 0.0
C279 C 0.50909 0.53697 0.11991 0.0
H280 H 0.43036 0.44975 0.10715 0.0
C281 C 0.53673 0.5264 0.11595 0.0
C282 C 0.5262 0.48829 0.10798 0.0
H283 H 0.51809 0.56671 0.12446 0.0
H284 H 0.56629 0.5481 0.11785 0.0
C285 C 0.48749 0.46087 0.10616 0.0
C286 C 0.97056 0.50508 0.41862 0.0
C287 C 0.96497 0.46814 0.41907 0.0
H288 H 0.01043 0.56461 0.41723 0.0
C289 C 0.99665 0.46336 0.41937 0.0
H290 H 0.94667 0.50971 0.41851 0.0
C291 C 0.03314 0.49486 0.41818 0.0
C292 C 0.03873 0.5318 0.41717 0.0
H293 H 0.99327 0.43532 0.41965 0.0
H294 H 0.05704 0.49022 0.41784 0.0
C295 C 0.00705 0.53658 0.41794 0.0
C296 C 0.53838 0.03421 0.78053 0.0
C297 C 0.50867 0.04231 0.78051 0.0
H298 H 0.55421 0.99143 0.77905 0.0
C299 C 0.47127 0.01226 0.78275 0.0
H300 H 0.56757 0.05681 0.77901 0.0
C301 C 0.46368 0.97487 0.78258 0.0
C302 C 0.49334 0.96674 0.78044 0.0
H303 H 0.44781 0.01757 0.78282 0.0
H304 H 0.43447 0.9523 0.78274 0.0
C305 C 0.53079 0.99679 0.78064 0.0
C306 C 0.5265 0.53539 0.56649 0.0
C307 C 0.49005 0.53049 0.56237 0.0
H308 H 0.56003 0.50873 0.57349 0.0
C309 C 0.45882 0.49351 0.55917 0.0
H310 H 0.55107 0.56344 0.56921 0.0
C311 C 0.46387 0.46208 0.56161 0.0
C312 C 0.50026 0.46699 0.56761 0.0
H313 H 0.4303 0.48878 0.55593 0.0
H314 H 0.43928 0.434 0.56002 0.0
C315 C 0.53154 0.50398 0.56923 0.0
C316 C 0.02763 0.5366 0.90389 0.0
C317 C 0.03849 0.50887 0.90251 0.0
H318 H 0.98191 0.54823 0.90435 0.0
C319 C 0.01042 0.47067 0.89893 0.0
H320 H 0.04867 0.56635 0.90638 0.0
C321 C 0.97223 0.46037 0.89797 0.0
C322 C 0.96135 0.48807 0.90019 0.0
H323 H 0.01792 0.44872 0.89767 0.0
H324 H 0.95119 0.4306 0.89599 0.0
C325 C 0.98943 0.5263 0.90255 0.0
C326 C 0.46233 0.99759 0.22027 0.0
C327 C 0.46922 0.96723 0.21983 0.0
H328 H 0.4863 0.05768 0.2218 0.0
C329 C 0.50684 0.97489 0.21649 0.0
H330 H 0.43369 0.99259 0.22279 0.0
C331 C 0.53699 0.01213 0.21581 0.0
C332 C 0.53016 0.0425 0.21864 0.0
H333 H 0.5131 0.95208 0.21586 0.0
H334 H 0.56564 0.0171 0.21484 0.0
C335 C 0.4925 0.03485 0.21978 0.0
C336 C 0.45545 0.57499 0.8086 0.0
C337 C 0.44017 0.59375 0.77438 0.0
H338 H 0.45984 0.55288 0.89922 0.0
C339 C 0.41865 0.60667 0.80681 0.0
H340 H 0.47232 0.56499 0.78447 0.0
C341 C 0.41267 0.60093 0.87308 0.0
C342 C 0.42737 0.58139 0.90678 0.0
H343 H 0.4071 0.62169 0.78121 0.0
H344 H 0.39564 0.6106 0.89752 0.0
C345 C 0.44859 0.56833 0.87407 0.0
C346 C 0.82831 0.42603 0.21001 0.0
C347 C 0.82986 0.39361 0.22638 0.0
H348 H 0.82985 0.46192 0.13383 0.0
C349 C 0.82947 0.36959 0.1776 0.0
H350 H 0.82876 0.44498 0.24688 0.0
C351 C 0.82936 0.37883 0.11308 0.0
C352 C 0.83069 0.41271 0.09677 0.0
H353 H 0.8305 0.34429 0.1894 0.0
H354 H 0.83039 0.36063 0.0762 0.0
C355 C 0.82923 0.43578 0.14554 0.0
C356 C 0.44893 0.88101 0.52986 0.0
C357 C 0.43201 0.84724 0.56516 0.0
H358 H 0.45303 0.90777 0.43973 0.0
C359 C 0.40661 0.81322 0.53434 0.0
H360 H 0.46864 0.90763 0.55244 0.0
C361 C 0.39853 0.81318 0.46873 0.0
C362 C 0.41503 0.84729 0.43418 0.0
H363 H 0.39351 0.7868 0.56061 0.0
H364 H 0.37865 0.78686 0.44561 0.0
C365 C 0.44014 0.88111 0.46537 0.0
C366 C 0.53777 0.37076 0.81977 0.0
C367 C 0.56166 0.39426 0.77075 0.0
H368 H 0.52847 0.36171 0.92124 0.0
C369 C 0.59658 0.42565 0.78688 0.0
H370 H 0.51073 0.34622 0.80826 0.0
C371 C 0.60626 0.43492 0.85137 0.0
C372 C 0.58159 0.41236 0.90042 0.0
H373 H 0.61536 0.44418 0.74987 0.0
H374 H 0.63257 0.46034 0.86291 0.0
C375 C 0.5479 0.37947 0.88423 0.0
C376 C 0.17959 0.56541 0.14517 0.0
C377 C 0.17703 0.58745 0.0957 0.0
H378 H 0.1801 0.55704 0.24681 0.0
C379 C 0.17684 0.62072 0.11121 0.0
H380 H 0.18002 0.5397 0.13416 0.0
C381 C 0.17612 0.63015 0.17552 0.0
C382 C 0.17656 0.60695 0.22502 0.0
H383 H 0.17481 0.63809 0.07389 0.0
H384 H 0.1738 0.65484 0.18656 0.0
C385 C 0.17984 0.57536 0.20946 0.0
C386 C 0.59331 0.19742 0.53159 0.0
C387 C 0.57169 0.16304 0.56439 0.0
H388 H 0.61819 0.22405 0.44118 0.0
C389 C 0.55881 0.12892 0.53104 0.0
H390 H 0.60319 0.22408 0.55628 0.0
C391 C 0.56755 0.1289 0.46653 0.0
C392 C 0.58874 0.163 0.43316 0.0
H393 H 0.54204 0.102 0.55504 0.0
H394 H 0.55745 0.10198 0.44256 0.0
C395 C 0.60143 0.1974 0.46589 0.0
loop_
_geom_bond_atom_site_label_1
_geom_bond_atom_site_label_2
_geom_bond_distance
_geom_bond_site_symmetry_2
_ccdc_geom_bond_type
In0 O1 2.294 . S
In0 O2 2.326 . S
In0 O6 2.266 . S
In0 O7 2.326 1_554 S
In0 O8 2.266 . S
In0 O9 2.326 . S
In0 O11 2.294 . S
In0 O12 2.326 . S
O1 In0 2.294 . S
O1 C10 1.240 . S
O2 In0 2.326 . S
O2 C10 1.252 . S
C3 O6 1.252 1_556 S
C3 O7 1.260 . S
C4 O11 1.240 . S
C4 O12 1.252 . S
C5 O8 1.252 . S
C5 O9 1.260 . S
O6 In0 2.266 . S
O6 C3 1.252 1_554 S
O7 In0 2.326 1_556 S
O7 C3 1.260 . S
O8 In0 2.266 . S
O8 C5 1.252 . S
O9 In0 2.326 . S
O9 C5 1.260 . S
C10 O1 1.240 . S
C10 O2 1.252 . S
O11 In0 2.294 . S
O11 C4 1.240 . S
O12 In0 2.326 . S
O12 C4 1.252 . S
In13 O14 2.294 . S
In13 O15 2.326 . S
In13 O19 2.266 . S
In13 O20 2.326 . S
In13 O21 2.266 . S
In13 O22 2.326 . S
In13 O24 2.294 . S
In13 O25 2.326 . S
O14 In13 2.294 . S
O14 C23 1.240 . S
O15 In13 2.326 . S
O15 C23 1.252 . S
C16 O19 1.252 . S
C16 O20 1.260 . S
C17 O24 1.240 . S
C17 O25 1.252 . S
C18 O21 1.252 . S
C18 O22 1.260 . S
O19 In13 2.266 . S
O19 C16 1.252 . S
O20 In13 2.326 . S
O20 C16 1.260 . S
O21 In13 2.266 . S
O21 C18 1.252 . S
O22 In13 2.326 . S
O22 C18 1.260 . S
C23 O14 1.240 . S
C23 O15 1.252 . S
O24 In13 2.294 . S
O24 C17 1.240 . S
O25 In13 2.326 . S
O25 C17 1.252 . S
In26 O27 2.294 . S
In26 O28 2.326 . S
In26 O32 2.266 . S
In26 O33 2.326 . S
In26 O34 2.266 . S
In26 O35 2.326 . S
In26 O37 2.294 . S
In26 O38 2.326 . S
O27 In26 2.294 . S
O27 C36 1.240 . S
O28 In26 2.326 . S
O28 C36 1.252 . S
C29 O32 1.252 . S
C29 O33 1.260 . S
C30 O37 1.240 . S
C30 O38 1.252 . S
C31 O34 1.252 . S
C31 O35 1.260 . S
O32 In26 2.266 . S
O32 C29 1.252 . S
O33 In26 2.326 . S
O33 C29 1.260 . S
O34 In26 2.266 . S
O34 C31 1.252 . S
O35 In26 2.326 . S
O35 C31 1.260 . S
C36 O27 1.240 . S
C36 O28 1.252 . S
O37 In26 2.294 . S
O37 C30 1.240 . S
O38 In26 2.326 . S
O38 C30 1.252 . S
In39 O40 2.294 . S
In39 O41 2.326 . S
In39 O45 2.266 . S
In39 O46 2.326 1_554 S
In39 O47 2.266 . S
In39 O48 2.326 . S
In39 O50 2.294 . S
In39 O51 2.326 . S
O40 In39 2.294 . S
O40 C49 1.240 . S
O41 In39 2.326 . S
O41 C49 1.252 . S
C42 O45 1.252 1_556 S
C42 O46 1.260 . S
C43 O50 1.240 . S
C43 O51 1.252 . S
C44 O47 1.252 . S
C44 O48 1.260 . S
O45 In39 2.266 . S
O45 C42 1.252 1_554 S
O46 In39 2.326 1_556 S
O46 C42 1.260 . S
O47 In39 2.266 . S
O47 C44 1.252 . S
O48 In39 2.326 . S
O48 C44 1.260 . S
C49 O40 1.240 . S
C49 O41 1.252 . S
O50 In39 2.294 . S
O50 C43 1.240 . S
O51 In39 2.326 . S
O51 C43 1.252 . S
In52 O53 2.294 . S
In52 O54 2.326 . S
In52 O58 2.266 . S
In52 O59 2.326 . S
In52 O60 2.266 . S
In52 O61 2.326 . S
In52 O63 2.294 . S
In52 O64 2.326 . S
O53 In52 2.294 . S
O53 C62 1.240 . S
O54 In52 2.326 . S
O54 C62 1.252 . S
C55 O58 1.252 . S
C55 O59 1.260 . S
C56 O63 1.240 . S
C56 O64 1.252 . S
C57 O60 1.252 . S
C57 O61 1.260 . S
O58 In52 2.266 . S
O58 C55 1.252 . S
O59 In52 2.326 . S
O59 C55 1.260 . S
O60 In52 2.266 . S
O60 C57 1.252 . S
O61 In52 2.326 . S
O61 C57 1.260 . S
C62 O53 1.240 . S
C62 O54 1.252 . S
O63 In52 2.294 . S
O63 C56 1.240 . S
O64 In52 2.326 . S
O64 C56 1.252 . S
In65 O66 2.294 . S
In65 O67 2.326 . S
In65 O71 2.266 . S
In65 O72 2.326 . S
In65 O73 2.266 . S
In65 O74 2.326 . S
In65 O76 2.294 . S
In65 O77 2.326 . S
O66 In65 2.294 . S
O66 C75 1.240 . S
O67 In65 2.326 . S
O67 C75 1.252 . S
C68 O71 1.252 . S
C68 O72 1.260 . S
C69 O76 1.240 . S
C69 O77 1.252 . S
C70 O73 1.252 . S
C70 O74 1.260 . S
O71 In65 2.266 . S
O71 C68 1.252 . S
O72 In65 2.326 . S
O72 C68 1.260 . S
O73 In65 2.266 . S
O73 C70 1.252 . S
O74 In65 2.326 . S
O74 C70 1.260 . S
C75 O66 1.240 . S
C75 O67 1.252 . S
O76 In65 2.294 . S
O76 C69 1.240 . S
O77 In65 2.326 . S
O77 C69 1.252 . S
In78 O79 2.294 . S
In78 O80 2.326 . S
In78 O84 2.266 . S
In78 O85 2.326 . S
In78 O86 2.266 . S
In78 O87 2.326 . S
In78 O89 2.294 . S
In78 O90 2.326 . S
O79 In78 2.294 . S
O79 C88 1.240 . S
O80 In78 2.326 . S
O80 C88 1.252 . S
C81 O84 1.252 . S
C81 O85 1.260 . S
C82 O89 1.240 . S
C82 O90 1.252 . S
C83 O86 1.252 . S
C83 O87 1.260 . S
O84 In78 2.266 . S
O84 C81 1.252 . S
O85 In78 2.326 . S
O85 C81 1.260 . S
O86 In78 2.266 . S
O86 C83 1.252 . S
O87 In78 2.326 . S
O87 C83 1.260 . S
C88 O79 1.240 . S
C88 O80 1.252 . S
O89 In78 2.294 . S
O89 C82 1.240 . S
O90 In78 2.326 . S
O90 C82 1.252 . S
In91 O92 2.294 . S
In91 O93 2.326 . S
In91 O97 2.266 . S
In91 O98 2.326 1_556 S
In91 O99 2.266 . S
In91 O100 2.326 . S
In91 O102 2.294 . S
In91 O103 2.326 . S
O92 In91 2.294 . S
O92 C101 1.240 . S
O93 In91 2.326 . S
O93 C101 1.252 . S
C94 O97 1.252 1_554 S
C94 O98 1.260 . S
C95 O102 1.240 . S
C95 O103 1.252 . S
C96 O99 1.252 . S
C96 O100 1.260 . S
O97 In91 2.266 . S
O97 C94 1.252 1_556 S
O98 In91 2.326 1_554 S
O98 C94 1.260 . S
O99 In91 2.266 . S
O99 C96 1.252 . S
O100 In91 2.326 . S
O100 C96 1.260 . S
C101 O92 1.240 . S
C101 O93 1.252 . S
O102 In91 2.294 . S
O102 C95 1.240 . S
O103 In91 2.326 . S
O103 C95 1.252 . S
In104 O105 2.294 . S
In104 O106 2.326 . S
In104 O110 2.266 . S
In104 O111 2.326 . S
In104 O112 2.266 . S
In104 O113 2.326 . S
In104 O115 2.294 . S
In104 O116 2.326 . S
O105 In104 2.294 . S
O105 C114 1.240 . S
O106 In104 2.326 . S
O106 C114 1.252 . S
C107 O110 1.252 . S
C107 O111 1.260 . S
C108 O115 1.240 . S
C108 O116 1.252 . S
C109 O112 1.252 . S
C109 O113 1.260 . S
O110 In104 2.266 . S
O110 C107 1.252 . S
O111 In104 2.326 . S
O111 C107 1.260 . S
O112 In104 2.266 . S
O112 C109 1.252 . S
O113 In104 2.326 . S
O113 C109 1.260 . S
C114 O105 1.240 . S
C114 O106 1.252 . S
O115 In104 2.294 . S
O115 C108 1.240 . S
O116 In104 2.326 . S
O116 C108 1.252 . S
In117 O118 2.294 . S
In117 O119 2.326 . S
In117 O123 2.266 . S
In117 O124 2.326 . S
In117 O125 2.266 . S
In117 O126 2.326 . S
In117 O128 2.294 . S
In117 O129 2.326 . S
O118 In117 2.294 . S
O118 C127 1.240 . S
O119 In117 2.326 . S
O119 C127 1.252 . S
C120 O123 1.252 . S
C120 O124 1.260 . S
C121 O128 1.240 . S
C121 O129 1.252 . S
C122 O125 1.252 . S
C122 O126 1.260 . S
O123 In117 2.266 . S
O123 C120 1.252 . S
O124 In117 2.326 . S
O124 C120 1.260 . S
O125 In117 2.266 . S
O125 C122 1.252 . S
O126 In117 2.326 . S
O126 C122 1.260 . S
C127 O118 1.240 . S
C127 O119 1.252 . S
O128 In117 2.294 . S
O128 C121 1.240 . S
O129 In117 2.326 . S
O129 C121 1.252 . S
In130 O131 2.294 . S
In130 O132 2.326 . S
In130 O136 2.266 . S
In130 O137 2.326 . S
In130 O138 2.266 . S
In130 O139 2.326 1_556 S
In130 O141 2.294 . S
In130 O142 2.326 . S
O131 In130 2.294 . S
O131 C140 1.240 . S
O132 In130 2.326 . S
O132 C140 1.252 . S
C133 O136 1.252 . S
C133 O137 1.260 . S
C134 O141 1.240 . S
C134 O142 1.252 . S
C135 O138 1.252 1_554 S
C135 O139 1.260 . S
O136 In130 2.266 . S
O136 C133 1.252 . S
O137 In130 2.326 . S
O137 C133 1.260 . S
O138 In130 2.266 . S
O138 C135 1.252 1_556 S
O139 In130 2.326 1_554 S
O139 C135 1.260 . S
C140 O131 1.240 . S
C140 O132 1.252 . S
O141 In130 2.294 . S
O141 C134 1.240 . S
O142 In130 2.326 . S
O142 C134 1.252 . S
In143 O144 2.294 . S
In143 O145 2.326 . S
In143 O149 2.266 . S
In143 O150 2.326 . S
In143 O151 2.266 . S
In143 O152 2.326 . S
In143 O154 2.294 . S
In143 O155 2.326 . S
O144 In143 2.294 . S
O144 C153 1.240 . S
O145 In143 2.326 . S
O145 C153 1.252 . S
C146 O149 1.252 . S
C146 O150 1.260 . S
C147 O154 1.240 . S
C147 O155 1.252 . S
C148 O151 1.252 . S
C148 O152 1.260 . S
O149 In143 2.266 . S
O149 C146 1.252 . S
O150 In143 2.326 . S
O150 C146 1.260 . S
O151 In143 2.266 . S
O151 C148 1.252 . S
O152 In143 2.326 . S
O152 C148 1.260 . S
C153 O144 1.240 . S
C153 O145 1.252 . S
O154 In143 2.294 . S
O154 C147 1.240 . S
O155 In143 2.326 . S
O155 C147 1.252 . S
C156 C157 1.387 . S
C156 H160 0.950 . S
C156 C165 1.390 . S
C157 C156 1.387 . S
C157 C159 1.387 . S
H158 C165 0.950 . S
C159 C157 1.387 . S
C159 C161 1.390 . S
C159 H163 0.950 . S
H160 C156 0.950 . S
C161 C159 1.390 . S
C161 C162 1.387 . S
C161 H164 0.950 . S
C162 C161 1.387 . S
C162 C165 1.387 . S
H163 C159 0.950 . S
H164 C161 0.950 . S
C165 C156 1.390 . S
C165 H158 0.950 . S
C165 C162 1.387 . S
C166 C167 1.387 . S
C166 H170 0.950 . S
C166 C175 1.390 . S
C167 C166 1.387 . S
C167 C169 1.387 . S
H168 C175 0.950 . S
C169 C167 1.387 . S
C169 C171 1.390 . S
C169 H173 0.950 . S
H170 C166 0.950 . S
C171 C169 1.390 . S
C171 C172 1.387 . S
C171 H174 0.950 . S
C172 C171 1.387 . S
C172 C175 1.387 . S
H173 C169 0.950 . S
H174 C171 0.950 . S
C175 C166 1.390 . S
C175 H168 0.950 . S
C175 C172 1.387 . S
C176 C177 1.387 . S
C176 H180 0.950 . S
C176 C185 1.390 1_556 S
C177 C176 1.387 . S
C177 C179 1.387 . S
H178 C185 0.950 . S
C179 C177 1.387 . S
C179 C181 1.390 1_556 S
C179 H183 0.950 . S
H180 C176 0.950 . S
C181 C179 1.390 1_554 S
C181 C182 1.387 . S
C181 H184 0.950 . S
C182 C181 1.387 . S
C182 C185 1.387 . S
H183 C179 0.950 . S
H184 C181 0.950 . S
C185 C176 1.390 1_554 S
C185 H178 0.950 . S
C185 C182 1.387 . S
C186 C187 1.387 . S
C186 H190 0.950 . S
C186 C195 1.390 . S
C187 C186 1.387 . S
C187 C189 1.387 . S
H188 C195 0.950 . S
C189 C187 1.387 . S
C189 C191 1.390 . S
C189 H193 0.950 . S
H190 C186 0.950 . S
C191 C189 1.390 . S
C191 C192 1.387 . S
C191 H194 0.950 . S
C192 C191 1.387 . S
C192 C195 1.387 . S
H193 C189 0.950 . S
H194 C191 0.950 . S
C195 C186 1.390 . S
C195 H188 0.950 . S
C195 C192 1.387 . S
C196 C197 1.387 . S
C196 H200 0.950 . S
C196 C205 1.390 . S
C197 C196 1.387 . S
C197 C199 1.387 . S
H198 C205 0.950 . S
C199 C197 1.387 . S
C199 C201 1.390 . S
C199 H203 0.950 . S
H200 C196 0.950 . S
C201 C199 1.390 . S
C201 C202 1.387 . S
C201 H204 0.950 . S
C202 C201 1.387 . S
C202 C205 1.387 . S
H203 C199 0.950 . S
H204 C201 0.950 . S
C205 C196 1.390 . S
C205 H198 0.950 . S
C205 C202 1.387 . S
C206 C207 1.387 . S
C206 H210 0.950 . S
C206 C215 1.390 1_554 S
C207 C206 1.387 . S
C207 C209 1.387 . S
H208 C215 0.950 . S
C209 C207 1.387 . S
C209 C211 1.390 1_554 S
C209 H213 0.950 . S
H210 C206 0.950 . S
C211 C209 1.390 1_556 S
C211 C212 1.387 . S
C211 H214 0.950 . S
C212 C211 1.387 . S
C212 C215 1.387 . S
H213 C209 0.950 . S
H214 C211 0.950 . S
C215 C206 1.390 1_556 S
C215 H208 0.950 . S
C215 C212 1.387 . S
C216 C217 1.387 . S
C216 H220 0.950 . S
C216 C225 1.390 1_554 S
C217 C216 1.387 . S
C217 C219 1.387 . S
H218 C225 0.950 . S
C219 C217 1.387 . S
C219 C221 1.390 1_554 S
C219 H223 0.950 . S
H220 C216 0.950 . S
C221 C219 1.390 1_556 S
C221 C222 1.387 . S
C221 H224 0.950 . S
C222 C221 1.387 . S
C222 C225 1.387 . S
H223 C219 0.950 . S
H224 C221 0.950 . S
C225 C216 1.390 1_556 S
C225 H218 0.950 . S
C225 C222 1.387 . S
C226 C227 1.387 . S
C226 H230 0.950 . S
C226 C235 1.390 . S
C227 C226 1.387 . S
C227 C229 1.387 . S
H228 C235 0.950 . S
C229 C227 1.387 . S
C229 C231 1.390 . S
C229 H233 0.950 . S
H230 C226 0.950 . S
C231 C229 1.390 . S
C231 C232 1.387 . S
C231 H234 0.950 . S
C232 C231 1.387 . S
C232 C235 1.387 . S
H233 C229 0.950 . S
H234 C231 0.950 . S
C235 C226 1.390 . S
C235 H228 0.950 . S
C235 C232 1.387 . S
C236 C237 1.387 . S
C236 H240 0.950 . S
C236 C245 1.390 . S
C237 C236 1.387 . S
C237 C239 1.387 . S
H238 C245 0.950 . S
C239 C237 1.387 . S
C239 C241 1.390 . S
C239 H243 0.950 . S
H240 C236 0.950 . S
C241 C239 1.390 . S
C241 C242 1.387 . S
C241 H244 0.950 . S
C242 C241 1.387 . S
C242 C245 1.387 . S
H243 C239 0.950 . S
H244 C241 0.950 . S
C245 C236 1.390 . S
C245 H238 0.950 . S
C245 C242 1.387 . S
C246 C247 1.387 . S
C246 H250 0.950 . S
C246 C255 1.390 1_554 S
C247 C246 1.387 . S
C247 C249 1.387 . S
H248 C255 0.950 . S
C249 C247 1.387 . S
C249 C251 1.390 1_554 S
C249 H253 0.950 . S
H250 C246 0.950 . S
C251 C249 1.390 1_556 S
C251 C252 1.387 . S
C251 H254 0.950 . S
C252 C251 1.387 . S
C252 C255 1.387 . S
H253 C249 0.950 . S
H254 C251 0.950 . S
C255 C246 1.390 1_556 S
C255 H248 0.950 . S
C255 C252 1.387 . S
C256 C257 1.387 . S
C256 H260 0.950 . S
C256 C265 1.390 . S
C257 C256 1.387 . S
C257 C259 1.387 . S
H258 C265 0.950 . S
C259 C257 1.387 . S
C259 C261 1.390 . S
C259 H263 0.950 . S
H260 C256 0.950 . S
C261 C259 1.390 . S
C261 C262 1.387 . S
C261 H264 0.950 . S
C262 C261 1.387 . S
C262 C265 1.387 . S
H263 C259 0.950 . S
H264 C261 0.950 . S
C265 C256 1.390 . S
C265 H258 0.950 . S
C265 C262 1.387 . S
C266 C267 1.387 . S
C266 H270 0.950 . S
C266 C275 1.390 . S
C267 C266 1.387 . S
C267 C269 1.387 . S
H268 C275 0.950 . S
C269 C267 1.387 . S
C269 C271 1.390 . S
C269 H273 0.950 . S
H270 C266 0.950 . S
C271 C269 1.390 . S
C271 C272 1.387 . S
C271 H274 0.950 . S
C272 C271 1.387 . S
C272 C275 1.387 . S
H273 C269 0.950 . S
H274 C271 0.950 . S
C275 C266 1.390 . S
C275 H268 0.950 . S
C275 C272 1.387 . S
C276 C277 1.387 . S
C276 H280 0.950 . S
C276 C285 1.390 . S
C277 C276 1.387 . S
C277 C279 1.387 . S
H278 C285 0.950 . S
C279 C277 1.387 . S
C279 C281 1.390 . S
C279 H283 0.950 . S
H280 C276 0.950 . S
C281 C279 1.390 . S
C281 C282 1.387 . S
C281 H284 0.950 . S
C282 C281 1.387 . S
C282 C285 1.387 . S
H283 C279 0.950 . S
H284 C281 0.950 . S
C285 C276 1.390 . S
C285 H278 0.950 . S
C285 C282 1.387 . S
C286 C287 1.387 . S
C286 H290 0.950 . S
C286 C295 1.390 1_655 S
C287 C286 1.387 . S
C287 C289 1.387 . S
H288 C295 0.950 . S
C289 C287 1.387 . S
C289 C291 1.390 1_655 S
C289 H293 0.950 . S
H290 C286 0.950 . S
C291 C289 1.390 1_455 S
C291 C292 1.387 . S
C291 H294 0.950 . S
C292 C291 1.387 . S
C292 C295 1.387 . S
H293 C289 0.950 . S
H294 C291 0.950 . S
C295 C286 1.390 1_455 S
C295 H288 0.950 . S
C295 C292 1.387 . S
C296 C297 1.387 . S
C296 H300 0.950 . S
C296 C305 1.390 1_545 S
C297 C296 1.387 . S
C297 C299 1.387 . S
H298 C305 0.950 . S
C299 C297 1.387 . S
C299 C301 1.390 1_545 S
C299 H303 0.950 . S
H300 C296 0.950 . S
C301 C299 1.390 1_565 S
C301 C302 1.387 . S
C301 H304 0.950 . S
C302 C301 1.387 . S
C302 C305 1.387 . S
H303 C299 0.950 . S
H304 C301 0.950 . S
C305 C296 1.390 1_565 S
C305 H298 0.950 . S
C305 C302 1.387 . S
C306 C307 1.387 . S
C306 H310 0.950 . S
C306 C315 1.390 . S
C307 C306 1.387 . S
C307 C309 1.387 . S
H308 C315 0.950 . S
C309 C307 1.387 . S
C309 C311 1.390 . S
C309 H313 0.950 . S
H310 C306 0.950 . S
C311 C309 1.390 . S
C311 C312 1.387 . S
C311 H314 0.950 . S
C312 C311 1.387 . S
C312 C315 1.387 . S
H313 C309 0.950 . S
H314 C311 0.950 . S
C315 C306 1.390 . S
C315 H308 0.950 . S
C315 C312 1.387 . S
C316 C317 1.387 . S
C316 H320 0.950 . S
C316 C325 1.390 1_455 S
C317 C316 1.387 . S
C317 C319 1.387 . S
H318 C325 0.950 . S
C319 C317 1.387 . S
C319 C321 1.390 1_455 S
C319 H323 0.950 . S
H320 C316 0.950 . S
C321 C319 1.390 1_655 S
C321 C322 1.387 . S
C321 H324 0.950 . S
C322 C321 1.387 . S
C322 C325 1.387 . S
H323 C319 0.950 . S
H324 C321 0.950 . S
C325 C316 1.390 1_655 S
C325 H318 0.950 . S
C325 C322 1.387 . S
C326 C327 1.387 . S
C326 H330 0.950 . S
C326 C335 1.390 1_565 S
C327 C326 1.387 . S
C327 C329 1.387 . S
H328 C335 0.950 . S
C329 C327 1.387 . S
C329 C331 1.390 1_565 S
C329 H333 0.950 . S
H330 C326 0.950 . S
C331 C329 1.390 1_545 S
C331 C332 1.387 . S
C331 H334 0.950 . S
C332 C331 1.387 . S
C332 C335 1.387 . S
H333 C329 0.950 . S
H334 C331 0.950 . S
C335 C326 1.390 1_545 S
C335 H328 0.950 . S
C335 C332 1.387 . S
C336 C337 1.387 . S
C336 H340 0.950 . S
C336 C345 1.390 . S
C337 C336 1.387 . S
C337 C339 1.387 . S
H338 C345 0.950 . S
C339 C337 1.387 . S
C339 C341 1.390 . S
C339 H343 0.950 . S
H340 C336 0.950 . S
C341 C339 1.390 . S
C341 C342 1.387 . S
C341 H344 0.950 . S
C342 C341 1.387 . S
C342 C345 1.387 . S
H343 C339 0.950 . S
H344 C341 0.950 . S
C345 C336 1.390 . S
C345 H338 0.950 . S
C345 C342 1.387 . S
C346 C347 1.387 . S
C346 H350 0.950 . S
C346 C355 1.390 . S
C347 C346 1.387 . S
C347 C349 1.387 . S
H348 C355 0.950 . S
C349 C347 1.387 . S
C349 C351 1.390 . S
C349 H353 0.950 . S
H350 C346 0.950 . S
C351 C349 1.390 . S
C351 C352 1.387 . S
C351 H354 0.950 . S
C352 C351 1.387 . S
C352 C355 1.387 . S
H353 C349 0.950 . S
H354 C351 0.950 . S
C355 C346 1.390 . S
C355 H348 0.950 . S
C355 C352 1.387 . S
C356 C357 1.387 . S
C356 H360 0.950 . S
C356 C365 1.390 . S
C357 C356 1.387 . S
C357 C359 1.387 . S
H358 C365 0.950 . S
C359 C357 1.387 . S
C359 C361 1.390 . S
C359 H363 0.950 . S
H360 C356 0.950 . S
C361 C359 1.390 . S
C361 C362 1.387 . S
C361 H364 0.950 . S
C362 C361 1.387 . S
C362 C365 1.387 . S
H363 C359 0.950 . S
H364 C361 0.950 . S
C365 C356 1.390 . S
C365 H358 0.950 . S
C365 C362 1.387 . S
C366 C367 1.387 . S
C366 H370 0.950 . S
C366 C375 1.390 . S
C367 C366 1.387 . S
C367 C369 1.387 . S
H368 C375 0.950 . S
C369 C367 1.387 . S
C369 C371 1.390 . S
C369 H373 0.950 . S
H370 C366 0.950 . S
C371 C369 1.390 . S
C371 C372 1.387 . S
C371 H374 0.950 . S
C372 C371 1.387 . S
C372 C375 1.387 . S
H373 C369 0.950 . S
H374 C371 0.950 . S
C375 C366 1.390 . S
C375 H368 0.950 . S
C375 C372 1.387 . S
C376 C377 1.387 . S
C376 H380 0.950 . S
C376 C385 1.390 . S
C377 C376 1.387 . S
C377 C379 1.387 . S
H378 C385 0.950 . S
C379 C377 1.387 . S
C379 C381 1.390 . S
C379 H383 0.950 . S
H380 C376 0.950 . S
C381 C379 1.390 . S
C381 C382 1.387 . S
C381 H384 0.950 . S
C382 C381 1.387 . S
C382 C385 1.387 . S
H383 C379 0.950 . S
H384 C381 0.950 . S
C385 C376 1.390 . S
C385 H378 0.950 . S
C385 C382 1.387 . S
C386 C387 1.387 . S
C386 H390 0.950 . S
C386 C395 1.390 . S
C387 C386 1.387 . S
C387 C389 1.387 . S
H388 C395 0.950 . S
C389 C387 1.387 . S
C389 C391 1.390 . S
C389 H393 0.950 . S
H390 C386 0.950 . S
C391 C389 1.390 . S
C391 C392 1.387 . S
C391 H394 0.950 . S
C392 C391 1.387 . S
C392 C395 1.387 . S
H393 C389 0.950 . S
H394 C391 0.950 . S
C395 C386 1.390 . S
C395 H388 0.950 . S
C395 C392 1.387 . S
C157 C10 1.465 . S
C162 C88 1.465 . S
C167 C23 1.465 . S
C172 C101 1.464 . S
C177 C36 1.464 . S
C182 C114 1.464 . S
C187 C49 1.466 . S
C192 C127 1.466 . S
C197 C62 1.466 . S
C202 C134 1.466 . S
C207 C147 1.464 . S
C212 C75 1.464 . S
C217 C5 1.428 . S
C222 C133 1.428 . S
C227 C18 1.429 . S
C232 C146 1.429 . S
C237 C31 1.428 . S
C242 C83 1.428 . S
C247 C44 1.430 . S
C252 C96 1.430 . S
C257 C57 1.427 . S
C262 C109 1.430 . S
C267 C70 1.430 . S
C272 C122 1.428 . S
C277 C4 1.530 . S
C282 C43 1.530 . S
C287 C17 1.532 . S
C292 C56 1.532 . S
C297 C69 1.536 . S
C302 C30 1.536 . S
C307 C82 1.538 . S
C312 C121 1.538 . S
C317 C140 1.528 . S
C322 C95 1.528 . S
C327 C108 1.532 . S
C332 C153 1.532 . S
C337 C81 1.290 . S
C342 C3 1.290 . S
C347 C16 1.287 . S
C352 C94 1.286 . S
C357 C29 1.290 . S
C362 C107 1.290 . S
C367 C120 1.288 . S
C372 C42 1.289 . S
C377 C135 1.288 . S
C382 C55 1.289 . S
C387 C68 1.286 . S
C392 C148 1.286 . S
