# Generated by pormake.
# Topology unh, (4)-cn, num edge types: 1
# Building blocks:
#     Node 0, Type 0, BuildingBlock: KUFVIS_clean_sbu_0, # of connection points: 4
#     Node 1, Type 0, BuildingBlock: KUFVIS_clean_sbu_0, # of connection points: 4
#     Node 2, Type 0, BuildingBlock: KUFVIS_clean_sbu_0, # of connection points: 4
#     Node 3, Type 0, BuildingBlock: KUFVIS_clean_sbu_0, # of connection points: 4
#     Node 4, Type 0, BuildingBlock: KUFVIS_clean_sbu_0, # of connection points: 4
#     Node 5, Type 0, BuildingBlock: KUFVIS_clean_sbu_0, # of connection points: 4
#     Edge 6, Type (0, 0), BuildingBlock: MIFKUJ_clean_linker_0, # of connection points: 2
#     Edge 7, Type (0, 0), BuildingBlock: MIFKUJ_clean_linker_0, # of connection points: 2
#     Edge 8, Type (0, 0), BuildingBlock: MIFKUJ_clean_linker_0, # of connection points: 2
#     Edge 9, Type (0, 0), BuildingBlock: MIFKUJ_clean_linker_0, # of connection points: 2
#     Edge 10, Type (0, 0), BuildingBlock: MIFKUJ_clean_linker_0, # of connection points: 2
#     Edge 11, Type (0, 0), BuildingBlock: MIFKUJ_clean_linker_0, # of connection points: 2
#     Edge 12, Type (0, 0), BuildingBlock: MIFKUJ_clean_linker_0, # of connection points: 2
#     Edge 13, Type (0, 0), BuildingBlock: MIFKUJ_clean_linker_0, # of connection points: 2
#     Edge 14, Type (0, 0), BuildingBlock: MIFKUJ_clean_linker_0, # of connection points: 2
#     Edge 15, Type (0, 0), BuildingBlock: MIFKUJ_clean_linker_0, # of connection points: 2
#     Edge 16, Type (0, 0), BuildingBlock: MIFKUJ_clean_linker_0, # of connection points: 2
#     Edge 17, Type (0, 0), BuildingBlock: MIFKUJ_clean_linker_0, # of connection points: 2
# Relax obj value: 0.110
# Max RMSD: 0.222
# Mean RMSD: 0.222
data_MOF--net-unh--node1-KUFVIS_clean_sbu_0--edge1-MIFKUJ_clean_linker_0
_symmetry_space_group_name_H-M    P1
_symmetry_Int_Tables_number       1
_symmetry_cell_setting            triclinic
loop_
_symmetry_equiv_pos_as_xyz
'x, y, z'
_cell_length_a     54.050021
_cell_length_b     54.062077
_cell_length_c     28.70065
_cell_angle_alpha  89.962848
_cell_angle_beta   90.013717
_cell_angle_gamma 119.94015
loop_
_atom_site_label
_atom_site_type_symbol
_atom_site_fract_x
_atom_site_fract_y
_atom_site_fract_z
_atom_type_partial_charge
Mn0 Mn 0.13976 0.58598 0.07061 0.0
Mn1 Mn 0.10603 0.62401 0.07566 0.0
C2 C 0.15771 0.62777 0.02885 0.0
C3 C 0.17084 0.57338 0.10467 0.0
C4 C 0.08499 0.56975 0.019 0.0
O5 O 0.11204 0.56842 0.12443 0.0
O6 O 0.0967 0.60006 0.1327 0.0
C7 C 0.13651 0.66139 0.1557 0.0
N8 N 0.12834 0.65832 0.1102 0.0
C9 C 0.15169 0.70919 0.09962 0.0
C10 C 0.16014 0.71292 0.14648 0.0
C11 C 0.1526 0.6889 0.17459 0.0
C12 C 0.13569 0.68126 0.08274 0.0
H13 H 0.13085 0.64298 0.17735 0.0
C14 C 0.09829 0.5783 0.14608 0.0
O15 O 0.15093 0.55623 0.07627 0.0
O16 O 0.17269 0.59785 0.11308 0.0
N17 N 0.11339 0.64838 0.02296 0.0
C18 C 0.1047 0.64112 0.97799 0.0
C19 C 0.11111 0.66271 0.94505 0.0
C20 C 0.12608 0.69146 0.95879 0.0
C21 C 0.13464 0.6984 0.00533 0.0
C22 C 0.12758 0.67599 0.03662 0.0
H23 H 0.09302 0.61906 0.96729 0.0
O24 O 0.16565 0.60928 0.01942 0.0
O25 O 0.14067 0.6219 0.06437 0.0
O26 O 0.10683 0.56701 0.025 0.0
O27 O 0.08161 0.58915 0.03846 0.0
C28 C 0.15 0.72665 0.0219 0.0
C29 C 0.15873 0.73207 0.06888 0.0
H30 H 0.17258 0.73411 0.16114 0.0
H31 H 0.15918 0.69159 0.21072 0.0
H32 H 0.10445 0.65719 0.90918 0.0
H33 H 0.13086 0.70799 0.93328 0.0
H34 H 0.15526 0.74437 -0.00112 0.0
H35 H 0.17089 0.75393 0.08095 0.0
Mn36 Mn 0.55876 0.1396 0.23854 0.0
Mn37 Mn 0.48936 0.11507 0.21349 0.0
C38 C 0.54665 0.16579 0.19073 0.0
C39 C 0.59713 0.16378 0.28855 0.0
C40 C 0.52489 0.09276 0.16758 0.0
O41 O 0.53786 0.10862 0.28597 0.0
O42 O 0.49207 0.09542 0.27072 0.0
C43 C 0.47436 0.13838 0.29511 0.0
N44 N 0.47607 0.13635 0.24806 0.0
C45 C 0.45703 0.1676 0.23492 0.0
C46 C 0.45486 0.16986 0.28324 0.0
C47 C 0.4636 0.15521 0.31345 0.0
C48 C 0.46771 0.15034 0.21867 0.0
H49 H 0.48121 0.12728 0.31844 0.0
C50 C 0.51127 0.09369 0.29443 0.0
O51 O 0.59591 0.14452 0.26009 0.0
O52 O 0.57597 0.16869 0.28815 0.0
N53 N 0.48328 0.13207 0.15935 0.0
C54 C 0.48791 0.12862 0.11373 0.0
C55 C 0.48104 0.14251 0.07903 0.0
C56 C 0.46925 0.15958 0.09152 0.0
C57 C 0.46424 0.16242 0.13862 0.0
C58 C 0.47132 0.14789 0.17166 0.0
H59 H 0.49707 0.11562 0.1039 0.0
O60 O 0.57251 0.17007 0.19084 0.0
O61 O 0.52873 0.14684 0.21996 0.0
O62 O 0.54836 0.10954 0.18792 0.0
O63 O 0.50155 0.09264 0.17544 0.0
C64 C 0.45306 0.17958 0.15417 0.0
C65 C 0.44948 0.18219 0.20227 0.0
H66 H 0.44675 0.18296 0.29753 0.0
H67 H 0.46214 0.15697 0.35079 0.0
H68 H 0.48496 0.1402 0.04275 0.0
H69 H 0.46429 0.17054 0.06469 0.0
H70 H 0.44749 0.19117 0.12945 0.0
H71 H 0.44118 0.19571 0.21381 0.0
Mn72 Mn 0.41507 0.55367 0.40012 0.0
Mn73 Mn 0.37257 0.48316 0.38113 0.0
C74 C 0.37982 0.53855 0.34515 0.0
C75 C 0.42564 0.59383 0.44383 0.0
C76 C 0.4328 0.51741 0.34317 0.0
O77 O 0.42229 0.53545 0.45563 0.0
O78 O 0.39146 0.48882 0.44327 0.0
C79 C 0.32964 0.47148 0.45453 0.0
N80 N 0.33614 0.4712 0.40877 0.0
C81 C 0.28711 0.45255 0.38621 0.0
C82 C 0.27985 0.45242 0.43314 0.0
C83 C 0.30122 0.46194 0.46744 0.0
C84 C 0.31575 0.46205 0.37549 0.0
H85 H 0.34603 0.47903 0.48096 0.0
C86 C 0.41043 0.50937 0.46782 0.0
O87 O 0.44547 0.59203 0.42111 0.0
O88 O 0.39983 0.57239 0.44092 0.0
N89 N 0.35284 0.47451 0.32276 0.0
C90 C 0.36354 0.4769 0.27895 0.0
C91 C 0.34501 0.46878 0.24054 0.0
C92 C 0.31569 0.45817 0.24756 0.0
C93 C 0.30512 0.45549 0.293 0.0
C94 C 0.32455 0.4636 0.32997 0.0
H95 H 0.38607 0.4852 0.27331 0.0
O96 O 0.40104 0.56458 0.34437 0.0
O97 O 0.37944 0.5224 0.37914 0.0
O98 O 0.43788 0.54156 0.35888 0.0
O99 O 0.4094 0.49413 0.35038 0.0
C100 C 0.27614 0.44559 0.30301 0.0
C101 C 0.26715 0.44413 0.34957 0.0
H102 H 0.25799 0.44529 0.44321 0.0
H103 H 0.29581 0.46207 0.50371 0.0
H104 H 0.35333 0.47089 0.20558 0.0
H105 H 0.30153 0.45227 0.21781 0.0
H106 H 0.26065 0.43934 0.27512 0.0
H107 H 0.24487 0.43677 0.35679 0.0
Mn108 Mn 0.86044 0.41245 0.58412 0.0
Mn109 Mn 0.88314 0.36505 0.57192 0.0
C110 C 0.83374 0.3722 0.54067 0.0
C111 C 0.83723 0.43026 0.62939 0.0
C112 C 0.90914 0.42187 0.52113 0.0
O113 O 0.89134 0.42387 0.63257 0.0
O114 O 0.89895 0.38646 0.63122 0.0
C115 C 0.85316 0.32625 0.65082 0.0
N116 N 0.85863 0.33039 0.6043 0.0
C117 C 0.82723 0.28051 0.58844 0.0
C118 C 0.82149 0.27567 0.63625 0.0
C119 C 0.83447 0.29865 0.66755 0.0
C120 C 0.84626 0.30843 0.57386 0.0
H121 H 0.86291 0.34391 0.67493 0.0
C122 C 0.90264 0.40987 0.64875 0.0
O123 O 0.85669 0.44631 0.59941 0.0
O124 O 0.83145 0.40398 0.63313 0.0
N125 N 0.86906 0.34279 0.51623 0.0
C126 C 0.87528 0.35138 0.47099 0.0
C127 C 0.86302 0.33114 0.43515 0.0
C128 C 0.84464 0.30229 0.44614 0.0
C129 C 0.83881 0.2939 0.49294 0.0
C130 C 0.85185 0.31498 0.52721 0.0
H131 H 0.88932 0.37351 0.46223 0.0
O132 O 0.82988 0.39396 0.53662 0.0
O133 O 0.85233 0.37429 0.57154 0.0
O134 O 0.89054 0.42854 0.53313 0.0
O135 O 0.90952 0.3998 0.53622 0.0
C136 C 0.82003 0.26556 0.50688 0.0
C137 C 0.81424 0.25887 0.55459 0.0
H138 H 0.80688 0.25446 0.64925 0.0
H139 H 0.82997 0.29512 0.70446 0.0
H140 H 0.86763 0.33779 0.39911 0.0
H141 H 0.83496 0.2868 0.41837 0.0
H142 H 0.80955 0.24883 0.48115 0.0
H143 H 0.7994 0.23709 0.56483 0.0
Mn144 Mn 0.43229 0.85672 0.74059 0.0
Mn145 Mn 0.50116 0.87753 0.71706 0.0
C146 C 0.44282 0.82736 0.69791 0.0
C147 C 0.39351 0.8361 0.79074 0.0
C148 C 0.46751 0.90048 0.66633 0.0
O149 O 0.45442 0.8896 0.78463 0.0
O150 O 0.49945 0.89896 0.77237 0.0
C151 C 0.51451 0.85475 0.80125 0.0
N152 N 0.51307 0.85593 0.75399 0.0
C153 C 0.53041 0.82299 0.74432 0.0
C154 C 0.53227 0.82158 0.79289 0.0
C155 C 0.52424 0.83749 0.82146 0.0
C156 C 0.52068 0.84066 0.72617 0.0
H157 H 0.50822 0.86684 0.82332 0.0
C158 C 0.48101 0.90304 0.79391 0.0
O159 O 0.39577 0.85427 0.75907 0.0
O160 O 0.41402 0.83026 0.79375 0.0
N161 N 0.50628 0.85862 0.66468 0.0
C162 C 0.50231 0.86161 0.61856 0.0
C163 C 0.50883 0.84667 0.58531 0.0
C164 C 0.51962 0.82906 0.59975 0.0
C165 C 0.52401 0.82672 0.64732 0.0
C166 C 0.51736 0.84231 0.67884 0.0
H167 H 0.49403 0.87512 0.6072 0.0
O168 O 0.41732 0.824 0.69689 0.0
O169 O 0.46125 0.84724 0.7253 0.0
O170 O 0.44366 0.88448 0.6862 0.0
O171 O 0.49047 0.90031 0.67649 0.0
C172 C 0.53423 0.80912 0.66478 0.0
C173 C 0.53737 0.80721 0.71324 0.0
H174 H 0.53963 0.80819 0.80863 0.0
H175 H 0.52548 0.8364 0.85898 0.0
H176 H 0.50544 0.84864 0.54865 0.0
H177 H 0.52434 0.81733 0.57404 0.0
H178 H 0.5394 0.79668 0.64127 0.0
H179 H 0.54492 0.79335 0.72627 0.0
Mn180 Mn 0.58784 0.44703 0.89779 0.0
Mn181 Mn 0.62611 0.51826 0.88355 0.0
C182 C 0.62639 0.46624 0.84776 0.0
C183 C 0.57739 0.40635 0.94004 0.0
C184 C 0.56736 0.48087 0.84168 0.0
O185 O 0.57619 0.46275 0.95236 0.0
O186 O 0.6071 0.50993 0.94554 0.0
C187 C 0.67028 0.53375 0.95626 0.0
N188 N 0.66315 0.53367 0.91074 0.0
C189 C 0.71257 0.55987 0.88799 0.0
C190 C 0.72047 0.56035 0.93468 0.0
C191 C 0.69922 0.54717 0.96893 0.0
C192 C 0.68341 0.54623 0.87749 0.0
H193 H 0.65399 0.52363 0.98264 0.0
C194 C 0.58746 0.48832 0.96735 0.0
O195 O 0.55828 0.40757 0.91433 0.0
O196 O 0.60272 0.42878 0.94099 0.0
N197 N 0.64558 0.52899 0.82504 0.0
C198 C 0.63435 0.52509 0.78135 0.0
C199 C 0.6527 0.5366 0.743 0.0
C200 C 0.68234 0.55206 0.74997 0.0
C201 C 0.69344 0.55551 0.79517 0.0
C202 C 0.67409 0.54383 0.83211 0.0
H203 H 0.61157 0.51346 0.77576 0.0
O204 O 0.60664 0.43962 0.84412 0.0
O205 O 0.62315 0.48058 0.88125 0.0
O206 O 0.56482 0.45706 0.85352 0.0
O207 O 0.58869 0.50487 0.8532 0.0
C208 C 0.72291 0.56994 0.80502 0.0
C209 C 0.73247 0.57198 0.85137 0.0
H210 H 0.74276 0.57058 0.94458 0.0
H211 H 0.70515 0.54735 0.005 0.0
H212 H 0.64403 0.53376 0.70816 0.0
H213 H 0.69629 0.5613 0.72034 0.0
H214 H 0.73841 0.57932 0.7772 0.0
H215 H 0.75518 0.58274 0.85843 0.0
H216 H 0.02721 0.54647 0.02688 0.0
H217 H 0.99048 0.51099 0.9752 0.0
H218 H 0.05648 0.51383 0.88665 0.0
H219 H 0.09282 0.54765 0.93957 0.0
H220 H 0.97542 0.51123 0.89382 0.0
H221 H 0.03897 0.45524 0.83038 0.0
H222 H 0.07108 0.43989 0.86418 0.0
H223 H 0.03788 0.43854 0.00062 0.0
H224 H 0.00525 0.45346 0.96762 0.0
H225 H 0.93725 0.46549 0.66974 0.0
H226 H 0.96357 0.48551 0.74171 0.0
H227 H 0.9335 0.40056 0.79535 0.0
H228 H 0.90809 0.38034 0.72182 0.0
H229 H 0.98541 0.43305 0.82246 0.0
H230 H 0.90279 0.43952 0.8289 0.0
H231 H 0.86536 0.4489 0.80002 0.0
H232 H 0.92581 0.53868 0.79418 0.0
H233 H 0.96395 0.52977 0.82134 0.0
C234 C 0.0337 0.53928 0.99645 0.0
C235 C 0.06273 0.5495 0.98727 0.0
C236 C 0.01277 0.51903 0.96701 0.0
C237 C 0.02062 0.50911 0.92754 0.0
C238 C 0.04974 0.52017 0.91776 0.0
C239 C 0.07054 0.53975 0.94774 0.0
C240 C -0.00127 0.48846 0.8949 0.0
C241 C 0.97744 0.49396 0.87864 0.0
C242 C 0.00035 0.46497 0.87648 0.0
C243 C 0.01973 0.45562 0.89648 0.0
C244 C 0.03836 0.45148 0.86755 0.0
C245 C 0.0567 0.4429 0.88659 0.0
C246 C 0.05656 0.43829 0.93452 0.0
C247 C 0.03802 0.44219 0.96351 0.0
C248 C 0.01962 0.45074 0.94466 0.0
C249 C 0.93645 0.45108 0.69673 0.0
C250 C 0.92044 0.42142 0.69061 0.0
C251 C 0.95133 0.46252 0.73795 0.0
C252 C 0.94975 0.44452 0.77449 0.0
C253 C 0.93476 0.41482 0.76776 0.0
C254 C 0.9203 0.40331 0.72586 0.0
C255 C 0.96359 0.45718 0.81961 0.0
C256 C 0.98311 0.44999 0.83838 0.0
C257 C 0.95936 0.47815 0.84189 0.0
C258 C 0.93633 0.48393 0.82705 0.0
C259 C 0.90818 0.46127 0.82126 0.0
C260 C 0.88683 0.4665 0.80508 0.0
C261 C 0.89317 0.49438 0.79537 0.0
C262 C 0.92092 0.51709 0.80177 0.0
C263 C 0.94245 0.51195 0.8175 0.0
H264 H 0.87658 0.49837 0.7829 0.0
H265 H 0.07079 0.43168 0.94919 0.0
H266 H 0.53394 0.93126 0.83528 0.0
H267 H 0.54944 0.96681 0.89784 0.0
H268 H 0.46597 0.95885 0.89984 0.0
H269 H 0.45036 0.92372 0.83768 0.0
H270 H 0.50909 0.01465 0.9007 0.0
H271 H 0.48389 0.92527 0.97948 0.0
H272 H 0.48844 0.88283 0.995 0.0
H273 H 0.57667 0.93673 0.0312 0.0
H274 H 0.57271 0.9795 0.01525 0.0
H275 H 0.48059 0.05701 0.11135 0.0
H276 H 0.48141 0.02777 0.04764 0.0
H277 H 0.56961 0.05502 0.07697 0.0
H278 H 0.56911 0.08446 0.1414 0.0
H279 H 0.53561 0.99584 0.05694 0.0
H280 H 0.55817 0.08532 0.99039 0.0
H281 H 0.55239 0.12727 0.97783 0.0
H282 H 0.46932 0.07357 0.91897 0.0
H283 H 0.47437 0.03119 0.93195 0.0
C284 C 0.51893 0.93717 0.84896 0.0
C285 C 0.49088 0.92459 0.8315 0.0
C286 C 0.52781 0.9574 0.88472 0.0
C287 C 0.5088 0.96535 0.90337 0.0
C288 C 0.48098 0.95305 0.88572 0.0
C289 C 0.47206 0.93283 0.85031 0.0
C290 C 0.51729 0.98617 0.94184 0.0
C291 C 0.51491 0.01057 0.93485 0.0
C292 C 0.52578 0.98124 0.9859 0.0
C293 C 0.52811 0.95555 0.99558 0.0
C294 C 0.50432 0.92806 0.99034 0.0
C295 C 0.50678 0.90395 -0.00071 0.0
C296 C 0.53286 0.90708 0.01391 0.0
C297 C 0.5565 0.93433 0.01975 0.0
C298 C 0.55417 0.95851 0.01078 0.0
C299 C 0.50016 0.05671 0.1047 0.0
C300 C 0.52487 0.07333 0.13131 0.0
C301 C 0.50059 0.04002 0.06815 0.0
C302 C 0.52569 0.03965 0.05732 0.0
C303 C 0.55009 0.05521 0.08479 0.0
C304 C 0.54975 0.07206 0.12144 0.0
C305 C 0.52628 0.02364 0.01612 0.0
C306 C 0.53046 0.00027 0.02251 0.0
C307 C 0.51949 0.02951 0.9714 0.0
C308 C 0.5166 0.05503 0.96238 0.0
C309 C 0.5386 0.08242 0.97499 0.0
C310 C 0.53545 0.10628 0.9678 0.0
C311 C 0.51048 0.10308 0.94768 0.0
C312 C 0.48865 0.07601 0.93456 0.0
C313 C 0.49166 0.05206 0.94177 0.0
H314 H 0.50807 0.12157 0.94222 0.0
H315 H 0.53471 0.88839 0.02084 0.0
H316 H 0.43377 0.47026 0.31077 0.0
H317 H 0.46705 0.46898 0.25467 0.0
H318 H 0.51384 0.56099 0.24997 0.0
H319 H 0.48072 0.5626 0.30608 0.0
H320 H 0.49856 0.53656 0.16341 0.0
H321 H 0.54422 0.52758 0.29915 0.0
H322 H 0.5475 0.5079 0.3749 0.0
H323 H 0.51834 0.42591 0.3119 0.0
H324 H 0.51445 0.44498 0.23585 0.0
H325 H 0.6017 0.53959 0.0081 0.0
H326 H 0.5817 0.54751 0.07908 0.0
H327 H 0.52936 0.45657 0.09848 0.0
H328 H 0.5493 0.44831 0.02787 0.0
H329 H 0.55233 0.48484 0.18112 0.0
H330 H 0.50127 0.49208 0.04881 0.0
H331 H 0.4968 0.51082 0.97284 0.0
H332 H 0.53502 0.59537 0.03007 0.0
H333 H 0.54011 0.57716 0.10627 0.0
C334 C 0.45133 0.49026 0.29831 0.0
C335 C 0.45446 0.51653 0.31279 0.0
C336 C 0.47042 0.48947 0.26644 0.0
C337 C 0.49294 0.5149 0.24842 0.0
C338 C 0.4966 0.54115 0.26362 0.0
C339 C 0.47766 0.54199 0.29576 0.0
C340 C 0.51115 0.51393 0.21088 0.0
C341 C 0.51083 0.52579 0.16757 0.0
C342 C 0.52654 0.49927 0.21615 0.0
C343 C 0.52881 0.48767 0.26184 0.0
C344 C 0.53825 0.50528 0.3015 0.0
C345 C 0.54028 0.49425 0.34449 0.0
C346 C 0.53307 0.46565 0.34823 0.0
C347 C 0.52388 0.44805 0.30896 0.0
C348 C 0.5218 0.45897 0.26588 0.0
C349 C 0.58611 0.52123 0.02761 0.0
C350 C 0.57686 0.4933 0.01191 0.0
C351 C 0.57472 0.52583 0.06815 0.0
C352 C 0.55387 0.50262 0.09365 0.0
C353 C 0.54544 0.47475 0.07922 0.0
C354 C 0.55674 0.47011 0.03865 0.0
C355 C 0.53949 0.50726 0.13372 0.0
C356 C 0.54042 0.49599 0.17732 0.0
C357 C 0.52452 0.52235 0.12877 0.0
C358 C 0.52139 0.53332 0.08305 0.0
C359 C 0.50895 0.51471 0.04508 0.0
C360 C 0.50626 0.52522 0.002 0.0
C361 C 0.5157 0.55428 0.99659 0.0
C362 C 0.52778 0.57287 0.03429 0.0
C363 C 0.53056 0.56247 0.07743 0.0
H364 H 0.51359 0.56238 0.96322 0.0
H365 H 0.53466 0.45715 0.38155 0.0
H366 H 0.90178 0.44948 0.44817 0.0
H367 H 0.93613 0.47673 0.38712 0.0
H368 H -0.00031 0.46355 0.45608 0.0
H369 H 0.96463 0.43463 0.51558 0.0
H370 H 0.98214 0.52242 0.38128 0.0
H371 H 0.04589 0.46192 0.37995 0.0
H372 H 0.03788 0.41366 0.39652 0.0
H373 H 0.94843 0.37776 0.36812 0.0
H374 H 0.95598 0.42572 0.3507 0.0
H375 H 0.09802 0.60088 0.23058 0.0
H376 H 0.06955 0.57538 0.2989 0.0
H377 H 0.0321 0.4963 0.2215 0.0
H378 H 0.0624 0.52152 0.15482 0.0
H379 H 0.0374 0.48404 0.302 0.0
H380 H -0.00149 0.53957 0.23994 0.0
H381 H -0.001 0.58311 0.21281 0.0
H382 H 0.02498 0.62026 0.34884 0.0
H383 H 0.02498 0.57705 0.37662 0.0
C384 C 0.92312 0.45247 0.45026 0.0
C385 C 0.93058 0.43986 0.48627 0.0
C386 C 0.94278 0.4681 0.41545 0.0
C387 C 0.97045 0.47191 0.41649 0.0
C388 C 0.97827 0.46028 0.45369 0.0
C389 C 0.95832 0.44392 0.48781 0.0
C390 C 0.99079 0.48761 0.37816 0.0
C391 C 0.99421 0.51399 0.36396 0.0
C392 C 0.00616 0.47644 0.35477 0.0
C393 C 0.00148 0.44745 0.36458 0.0
C394 C 0.02454 0.44371 0.37709 0.0
C395 C 0.02008 0.41641 0.38663 0.0
C396 C 0.99265 0.39267 0.38354 0.0
C397 C 0.96965 0.39617 0.37067 0.0
C398 C 0.97401 0.4234 0.36098 0.0
C399 C 0.08389 0.57801 0.22861 0.0
C400 C 0.08218 0.56305 0.18774 0.0
C401 C 0.06746 0.56346 0.26742 0.0
C402 C 0.04805 0.53395 0.26515 0.0
C403 C 0.04687 0.51901 0.22436 0.0
C404 C 0.06407 0.53339 0.1862 0.0
C405 C 0.02843 0.51867 0.30457 0.0
C406 C 0.02533 0.49248 0.31927 0.0
C407 C 0.01214 0.52925 0.32671 0.0
C408 C 0.01203 0.55521 0.31021 0.0
C409 C 0.00449 0.5571 0.26398 0.0
C410 C 0.00466 0.58171 0.24849 0.0
C411 C 0.01209 0.60447 0.27904 0.0
C412 C 0.01928 0.60263 0.32519 0.0
C413 C 0.01917 0.57808 0.34084 0.0
H414 H 0.01222 0.62351 0.26699 0.0
H415 H 0.98924 0.37157 0.39101 0.0
H416 H 0.45776 0.06099 0.33277 0.0
H417 H 0.44405 0.02541 0.39518 0.0
H418 H 0.53117 0.04356 0.40495 0.0
H419 H 0.54504 0.07875 0.34325 0.0
H420 H 0.49244 0.98594 0.40082 0.0
H421 H 0.50579 0.07025 0.48327 0.0
H422 H 0.49573 0.10915 0.49955 0.0
H423 H 0.40803 0.04777 0.52786 0.0
H424 H 0.41751 0.00848 0.51109 0.0
H425 H 0.51349 0.9368 0.61319 0.0
H426 H 0.51465 0.96709 0.54937 0.0
H427 H 0.42519 0.93802 0.56969 0.0
H428 H 0.4238 0.90783 0.63424 0.0
H429 H 0.45621 0.99568 0.5546 0.0
H430 H 0.4443 0.91121 0.48217 0.0
H431 H 0.4547 0.87236 0.46777 0.0
H432 H 0.53882 0.93321 0.42012 0.0
H433 H 0.52912 0.97251 0.435 0.0
C434 C 0.47398 0.0574 0.34829 0.0
C435 C 0.50249 0.07274 0.33293 0.0
C436 C 0.46611 0.03714 0.38393 0.0
C437 C 0.48663 0.0319 0.40449 0.0
C438 C 0.51501 0.0472 0.38931 0.0
C439 C 0.52289 0.06746 0.35412 0.0
C440 C 0.47903 0.0105 0.44188 0.0
C441 C 0.48458 0.98807 0.4345 0.0
C442 C 0.46794 0.01285 0.48521 0.0
C443 C 0.46227 0.03645 0.49533 0.0
C444 C 0.4843 0.06506 0.49253 0.0
C445 C 0.47872 0.08717 0.50194 0.0
C446 C 0.45123 0.08094 0.51456 0.0
C447 C 0.42929 0.05256 0.51796 0.0
C448 C 0.43476 0.03037 0.50852 0.0
C449 C 0.49404 0.93687 0.60436 0.0
C450 C 0.46851 0.9197 0.62874 0.0
C451 C 0.49473 0.95413 0.56771 0.0
C452 C 0.46989 0.95442 0.55443 0.0
C453 C 0.44454 0.93796 0.57935 0.0
C454 C 0.44381 0.92067 0.61612 0.0
C455 C 0.47055 0.9717 0.51399 0.0
C456 C 0.46358 0.99322 0.52069 0.0
C457 C 0.48026 0.96847 0.46988 0.0
C458 C 0.48603 0.94484 0.45999 0.0
C459 C 0.46508 0.91634 0.46887 0.0
C460 C 0.47085 0.89423 0.46062 0.0
C461 C 0.49742 0.90032 0.44312 0.0
C462 C 0.51825 0.92853 0.43369 0.0
C463 C 0.51262 0.95073 0.44198 0.0
H464 H 0.50185 0.88317 0.4368 0.0
H465 H 0.44695 0.09809 0.52185 0.0
H466 H 0.52304 0.43501 0.7982 0.0
H467 H 0.49074 0.43598 0.73955 0.0
H468 H 0.52927 0.52706 0.75694 0.0
H469 H 0.56196 0.52649 0.8149 0.0
H470 H 0.45093 0.45399 0.73422 0.0
H471 H 0.54146 0.55737 0.65094 0.0
H472 H 0.59402 0.58283 0.64527 0.0
H473 H 0.59364 0.50369 0.66185 0.0
H474 H 0.54109 0.47772 0.66673 0.0
H475 H 0.4438 0.54723 0.53442 0.0
H476 H 0.46452 0.53805 0.60277 0.0
H477 H 0.42059 0.44816 0.57045 0.0
H478 H 0.39943 0.4571 0.50137 0.0
H479 H 0.5004 0.51637 0.59874 0.0
H480 H 0.41048 0.41257 0.67863 0.0
H481 H 0.35794 0.38635 0.68519 0.0
H482 H 0.35693 0.46505 0.67399 0.0
H483 H 0.40945 0.49176 0.66803 0.0
C484 C 0.52443 0.45523 0.79003 0.0
C485 C 0.54544 0.48077 0.8107 0.0
C486 C 0.50584 0.45568 0.75666 0.0
C487 C 0.50798 0.48163 0.74347 0.0
C488 C 0.52763 0.50686 0.76619 0.0
C489 C 0.54632 0.50649 0.79928 0.0
C490 C 0.49162 0.4829 0.70315 0.0
C491 C 0.46167 0.46733 0.70429 0.0
C492 C 0.50574 0.50034 0.66424 0.0
C493 C 0.53733 0.51565 0.65963 0.0
C494 C 0.55258 0.54538 0.65304 0.0
C495 C 0.58238 0.55991 0.65002 0.0
C496 C 0.59717 0.5449 0.65335 0.0
C497 C 0.58218 0.51531 0.65941 0.0
C498 C 0.55238 0.50068 0.66231 0.0
C499 C 0.43824 0.5254 0.54184 0.0
C500 C 0.4202 0.50292 0.51198 0.0
C501 C 0.45014 0.52024 0.58102 0.0
C502 C 0.4442 0.4925 0.59147 0.0
C503 C 0.42529 0.46973 0.56303 0.0
C504 C 0.41328 0.47488 0.52358 0.0
C505 C 0.45963 0.48814 0.63025 0.0
C506 C 0.48957 0.50296 0.62858 0.0
C507 C 0.44543 0.46986 0.6683 0.0
C508 C 0.41387 0.45409 0.67229 0.0
C509 C 0.39904 0.42427 0.67768 0.0
C510 C 0.36926 0.40933 0.68129 0.0
C511 C 0.3541 0.42401 0.67981 0.0
C512 C 0.36869 0.45368 0.6749 0.0
C513 C 0.39846 0.46873 0.67132 0.0
H514 H 0.33106 0.4124 0.6826 0.0
H515 H 0.62024 0.5562 0.65115 0.0
H516 H 0.17753 0.52755 0.08485 0.0
H517 H 0.21103 0.51527 0.12114 0.0
H518 H 0.24121 0.5885 0.21157 0.0
H519 H 0.20851 0.60128 0.17465 0.0
H520 H 0.28435 0.58625 0.1776 0.0
H521 H 0.1952 0.51886 0.24903 0.0
H522 H 0.145 0.48007 0.25046 0.0
H523 H 0.16831 0.42436 0.18095 0.0
H524 H 0.21862 0.46296 0.17854 0.0
H525 H 0.32591 0.52104 0.37351 0.0
H526 H 0.28715 0.5188 0.32612 0.0
H527 H 0.34018 0.53966 0.20357 0.0
H528 H 0.37911 0.54236 0.25127 0.0
H529 H 0.25524 0.49201 0.24918 0.0
H530 H 0.33508 0.59121 0.14526 0.0
H531 H 0.38426 0.63175 0.15248 0.0
H532 H 0.37698 0.62699 0.30162 0.0
H533 H 0.32766 0.58675 0.29524 0.0
C534 C 0.1913 0.54097 0.11253 0.0
C535 C 0.19048 0.56541 0.12687 0.0
C536 C 0.21032 0.53386 0.13336 0.0
C537 C 0.22848 0.55085 0.1693 0.0
C538 C 0.22748 0.57514 0.18377 0.0
C539 C 0.20874 0.5824 0.1627 0.0
C540 C 0.24917 0.54403 0.19131 0.0
C541 C 0.27793 0.56556 0.19295 0.0
C542 C 0.24083 0.5171 0.21167 0.0
C543 C 0.21061 0.4939 0.21309 0.0
C544 C 0.18958 0.49841 0.23368 0.0
C545 C 0.16111 0.47645 0.23474 0.0
C546 C 0.15345 0.4498 0.21567 0.0
C547 C 0.17426 0.44503 0.19562 0.0
C548 C 0.20276 0.46694 0.19441 0.0
C549 C 0.32881 0.52413 0.33618 0.0
C550 C 0.35506 0.53127 0.31558 0.0
C551 C 0.30674 0.52288 0.30918 0.0
C552 C 0.31092 0.5293 0.26145 0.0
C553 C 0.33664 0.53482 0.24042 0.0
C554 C 0.35878 0.53633 0.26752 0.0
C555 C 0.29017 0.53429 0.23551 0.0
C556 C 0.26156 0.51249 0.23309 0.0
C557 C 0.2984 0.56124 0.2155 0.0
C558 C 0.32785 0.58578 0.21973 0.0
C559 C 0.34397 0.5989 0.17956 0.0
C560 C 0.37186 0.62182 0.18352 0.0
C561 C 0.38377 0.63187 0.22748 0.0
C562 C 0.36777 0.61913 0.26759 0.0
C563 C 0.33986 0.59626 0.26382 0.0
H564 H 0.40537 0.64957 0.23047 0.0
H565 H 0.1314 0.43282 0.21654 0.0
H566 H 0.6105 0.21244 0.33538 0.0
H567 H 0.6527 0.24149 0.38246 0.0
H568 H 0.68158 0.18103 0.3596 0.0
H569 H 0.63968 0.1523 0.31061 0.0
H570 H 0.67233 0.23438 0.45923 0.0
H571 H 0.75493 0.21708 0.35907 0.0
H572 H 0.76291 0.20422 0.2802 0.0
H573 H 0.71305 0.23823 0.22129 0.0
H574 H 0.70509 0.25158 0.29971 0.0
H575 H 0.80021 0.32037 0.57993 0.0
H576 H 0.76326 0.27731 0.5412 0.0
H577 H 0.78352 0.32305 0.41055 0.0
H578 H 0.82164 0.36537 0.44887 0.0
H579 H 0.76935 0.27063 0.39366 0.0
H580 H 0.72986 0.31767 0.48573 0.0
H581 H 0.72172 0.33712 0.55818 0.0
H582 H 0.68416 0.25423 0.62174 0.0
H583 H 0.69241 0.23437 0.54977 0.0
C584 C 0.62577 0.20524 0.34048 0.0
C585 C 0.62194 0.18022 0.31912 0.0
C586 C 0.64985 0.22182 0.36758 0.0
C587 C 0.67045 0.21358 0.37431 0.0
C588 C 0.66621 0.18806 0.35424 0.0
C589 C 0.64226 0.17164 0.32641 0.0
C590 C 0.69662 0.23246 0.40118 0.0
C591 C 0.69355 0.24208 0.44503 0.0
C592 C 0.72432 0.24271 0.38259 0.0
C593 C 0.72908 0.23492 0.33528 0.0
C594 C 0.7457 0.22182 0.32925 0.0
C595 C 0.75023 0.21446 0.28464 0.0
C596 C 0.73839 0.22028 0.24578 0.0
C597 C 0.7221 0.2336 0.25143 0.0
C598 C 0.71755 0.24104 0.29595 0.0
C599 C 0.79737 0.32071 0.54262 0.0
C600 C 0.81417 0.34561 0.51683 0.0
C601 C 0.77607 0.29632 0.52065 0.0
C602 C 0.77043 0.29703 0.47304 0.0
C603 C 0.78765 0.32188 0.44719 0.0
C604 C 0.80924 0.34606 0.46903 0.0
C605 C 0.74493 0.2732 0.45087 0.0
C606 C 0.74814 0.26246 0.40819 0.0
C607 C 0.71723 0.2628 0.46955 0.0
C608 C 0.71203 0.27463 0.51264 0.0
C609 C 0.72001 0.30364 0.51527 0.0
C610 C 0.71537 0.31473 0.55622 0.0
C611 C 0.70251 0.29694 0.59459 0.0
C612 C 0.69418 0.26799 0.59202 0.0
C613 C 0.69882 0.25681 0.55118 0.0
H614 H 0.69894 0.30556 0.62626 0.0
H615 H 0.7419 0.21455 0.21129 0.0
H616 H 0.43347 0.81302 0.60716 0.0
H617 H 0.4375 0.775 0.56786 0.0
H618 H 0.46653 0.75614 0.69614 0.0
H619 H 0.46171 0.7938 0.7357 0.0
H620 H 0.48005 0.76468 0.5509 0.0
H621 H 0.43824 0.68358 0.70139 0.0
H622 H 0.40843 0.67238 0.77201 0.0
H623 H 0.36273 0.71016 0.71031 0.0
H624 H 0.39199 0.72121 0.63914 0.0
H625 H 0.47795 0.6382 0.46925 0.0
H626 H 0.48753 0.67953 0.51735 0.0
H627 H 0.39695 0.64766 0.52919 0.0
H628 H 0.38729 0.60618 0.48261 0.0
H629 H 0.4208 0.6658 0.61003 0.0
H630 H 0.44088 0.70181 0.45196 0.0
H631 H 0.46546 0.71241 0.37602 0.0
H632 H 0.54612 0.76412 0.44379 0.0
H633 H 0.52202 0.75352 0.52023 0.0
C634 C 0.44106 0.80093 0.6266 0.0
C635 C 0.44819 0.8067 0.67379 0.0
C636 C 0.44349 0.77938 0.60422 0.0
C637 C 0.45242 0.76284 0.62905 0.0
C638 C 0.45958 0.76864 0.67638 0.0
C639 C 0.4571 0.79023 0.69879 0.0
C640 C 0.45214 0.73832 0.60578 0.0
C641 C 0.46736 0.74306 0.56402 0.0
C642 C 0.43536 0.71015 0.62276 0.0
C643 C 0.41754 0.70352 0.66525 0.0
C644 C 0.4218 0.68944 0.70292 0.0
C645 C 0.405 0.68312 0.743 0.0
C646 C 0.38377 0.69064 0.74568 0.0
C647 C 0.37925 0.70445 0.70825 0.0
C648 C 0.39595 0.71076 0.66805 0.0
C649 C 0.46013 0.64008 0.48219 0.0
C650 C 0.43188 0.61903 0.47215 0.0
C651 C 0.46563 0.66369 0.50957 0.0
C652 C 0.44295 0.66676 0.52664 0.0
C653 C 0.41478 0.64566 0.51666 0.0
C654 C 0.40929 0.622 0.48984 0.0
C655 C 0.44812 0.692 0.55438 0.0
C656 C 0.43399 0.68743 0.59726 0.0
C657 C 0.46523 0.72023 0.53771 0.0
C658 C 0.47971 0.72655 0.49182 0.0
C659 C 0.46389 0.71523 0.45069 0.0
C660 C 0.47772 0.72128 0.40756 0.0
C661 C 0.50735 0.73884 0.4051 0.0
C662 C 0.52319 0.75046 0.44576 0.0
C663 C 0.50945 0.74444 0.48899 0.0
H664 H 0.51802 0.74351 0.37167 0.0
H665 H 0.37075 0.68564 0.77666 0.0
H666 H 0.6791 0.49217 0.88628 0.0
H667 H 0.72358 0.50093 0.84997 0.0
H668 H 0.67847 0.46572 0.72095 0.0
H669 H 0.63457 0.45938 0.75645 0.0
H670 H 0.73249 0.46199 0.82709 0.0
H671 H 0.7119 0.47655 0.63656 0.0
H672 H 0.70136 0.50701 0.58565 0.0
H673 H 0.743 0.5763 0.68263 0.0
H674 H 0.7526 0.54578 0.73497 0.0
H675 H 0.79072 0.39941 0.68437 0.0
H676 H 0.76256 0.41625 0.72556 0.0
H677 H 0.82027 0.50226 0.67928 0.0
H678 H 0.84816 0.48529 0.6366 0.0
H679 H 0.76852 0.49103 0.66601 0.0
H680 H 0.8173 0.48381 0.79888 0.0
H681 H 0.83664 0.46253 0.85364 0.0
H682 H 0.75233 0.39202 0.87743 0.0
H683 H 0.73238 0.41313 0.82345 0.0
C684 C 0.67914 0.48792 0.84942 0.0
C685 C 0.65374 0.47613 0.8236 0.0
C686 C 0.70447 0.49252 0.8288 0.0
C687 C 0.70466 0.48427 0.78242 0.0
C688 C 0.67933 0.47319 0.75622 0.0
C689 C 0.65411 0.46921 0.77664 0.0
C690 C 0.72951 0.48244 0.76436 0.0
C691 C 0.74058 0.46876 0.79206 0.0
C692 C 0.74062 0.49149 0.71903 0.0
C693 C 0.73258 0.50886 0.68981 0.0
C694 C 0.71838 0.49816 0.64724 0.0
C695 C 0.71248 0.51537 0.61827 0.0
C696 C 0.72128 0.54351 0.63109 0.0
C697 C 0.73587 0.5544 0.67302 0.0
C698 C 0.74117 0.53704 0.70266 0.0
C699 C 0.79762 0.42197 0.68332 0.0
C700 C 0.82159 0.44102 0.6571 0.0
C701 C 0.7816 0.43163 0.70722 0.0
C702 C 0.78948 0.46061 0.70608 0.0
C703 C 0.8138 0.47981 0.68072 0.0
C704 C 0.82972 0.4701 0.65638 0.0
C705 C 0.77101 0.47024 0.72852 0.0
C706 C 0.76089 0.48496 0.70146 0.0
C707 C 0.76152 0.46303 0.77505 0.0
C708 C 0.77339 0.44995 0.80689 0.0
C709 C 0.80292 0.46367 0.81556 0.0
C710 C 0.81398 0.45167 0.84651 0.0
C711 C 0.79578 0.42582 0.86865 0.0
C712 C 0.76642 0.41202 0.86018 0.0
C713 C 0.7552 0.42407 0.82964 0.0
H714 H 0.80441 0.41654 0.89251 0.0
H715 H 0.71696 0.55691 0.60843 0.0
H716 H 0.38814 0.80932 0.87371 0.0
H717 H 0.34418 0.78019 0.91769 0.0
H718 H 0.29679 0.79884 0.81616 0.0
H719 H 0.34091 0.82916 0.7735 0.0
H720 H 0.27465 0.79547 0.89729 0.0
H721 H 0.30293 0.73687 0.81143 0.0
H722 H 0.33587 0.71988 0.78821 0.0
H723 H 0.33881 0.69529 0.9295 0.0
H724 H 0.30618 0.71247 0.95364 0.0
H725 H 0.15978 0.63525 0.9359 0.0
H726 H 0.19393 0.67813 0.89345 0.0
H727 H 0.2225 0.72419 0.023 0.0
H728 H 0.1887 0.68102 0.06568 0.0
H729 H 0.25203 0.69589 0.9261 0.0
H730 H 0.24836 0.79691 0.97992 0.0
H731 H 0.21564 0.81632 0.9844 0.0
H732 H 0.15941 0.75355 0.88603 0.0
H733 H 0.19146 0.73338 0.88188 0.0
C734 C 0.36839 0.80752 0.86124 0.0
C735 C 0.3678 0.82117 0.81998 0.0
C736 C 0.34328 0.79081 0.88626 0.0
C737 C 0.31706 0.78673 0.86957 0.0
C738 C 0.31673 0.80157 0.82964 0.0
C739 C 0.34194 0.81881 0.8052 0.0
C740 C 0.2898 0.76551 0.89163 0.0
C741 C 0.26978 0.77374 0.9039 0.0
C742 C 0.28307 0.73692 0.89908 0.0
C743 C 0.30234 0.72619 0.8844 0.0
C744 C 0.31071 0.72796 0.83756 0.0
C745 C 0.32932 0.71829 0.82423 0.0
C746 C 0.33948 0.7066 0.85739 0.0
C747 C 0.33095 0.70441 0.90388 0.0
C748 C 0.3124 0.71408 0.91739 0.0
C749 C 0.17252 0.6549 0.95504 0.0
C750 C 0.17138 0.65511 0.00383 0.0
C751 C 0.19187 0.67937 0.93081 0.0
C752 C 0.21055 0.70433 0.95509 0.0
C753 C 0.20787 0.70528 0.00361 0.0
C754 C 0.18857 0.68067 0.02794 0.0
C755 C 0.23698 0.72591 0.93192 0.0
C756 C 0.257 0.7177 0.91982 0.0
C757 C 0.24329 0.75417 0.92349 0.0
C758 C 0.22211 0.76347 0.93105 0.0
C759 C 0.22875 0.78697 0.9599 0.0
C760 C 0.21039 0.79816 0.96224 0.0
C761 C 0.18554 0.78626 0.93532 0.0
C762 C 0.17867 0.76273 0.90686 0.0
C763 C 0.19674 0.75119 0.90495 0.0
H764 H 0.17149 0.79513 0.93679 0.0
H765 H 0.35393 0.69919 0.84712 0.0
H766 H 0.6144 0.39412 0.98516 0.0
H767 H 0.60292 0.35089 0.02884 0.0
H768 H 0.51324 0.31765 0.00174 0.0
H769 H 0.52469 0.36046 0.95671 0.0
H770 H 0.57406 0.3282 0.10453 0.0
H771 H 0.47958 0.24481 0.99456 0.0
H772 H 0.46168 0.23773 0.91375 0.0
H773 H 0.54697 0.29213 0.86358 0.0
H774 H 0.5654 0.29922 0.94398 0.0
H775 H 0.52499 0.19808 0.22389 0.0
H776 H 0.52159 0.23586 0.18206 0.0
H777 H 0.55584 0.2181 0.05875 0.0
H778 H 0.55773 0.17945 0.09992 0.0
H779 H 0.51781 0.23198 0.03397 0.0
H780 H 0.59871 0.2702 0.13903 0.0
H781 H 0.62174 0.2772 0.21588 0.0
H782 H 0.57308 0.31424 0.26817 0.0
H783 H 0.5495 0.3071 0.19172 0.0
C784 C 0.59225 0.37758 0.98846 0.0
C785 C 0.57046 0.38055 0.96727 0.0
C786 C 0.58569 0.35294 0.01357 0.0
C787 C 0.55724 0.3309 0.0182 0.0
C788 C 0.53538 0.33413 -0.00208 0.0
C789 C 0.54195 0.35863 0.97232 0.0
C790 C 0.55069 0.30453 0.04394 0.0
C791 C 0.56162 0.30717 0.08914 0.0
C792 C 0.53458 0.27706 0.02385 0.0
C793 C 0.52378 0.27283 0.97533 0.0
C794 C 0.4945 0.25521 0.96625 0.0
C795 C 0.48427 0.2512 0.92053 0.0
C796 C 0.50316 0.26457 0.88358 0.0
C797 C 0.53234 0.28189 0.89225 0.0
C798 C 0.54269 0.28594 0.93789 0.0
C799 C 0.53073 0.20167 0.18735 0.0
C800 C 0.54073 0.18547 0.16443 0.0
C801 C 0.52917 0.22342 0.16369 0.0
C802 C 0.53873 0.22998 0.11739 0.0
C803 C 0.54813 0.21329 0.0943 0.0
C804 C 0.54935 0.19136 0.11779 0.0
C805 C 0.54162 0.25576 0.09411 0.0
C806 C 0.52987 0.25301 0.04953 0.0
C807 C 0.55775 0.28323 0.11414 0.0
C808 C 0.57216 0.28786 0.15988 0.0
C809 C 0.59284 0.2797 0.16701 0.0
C810 C 0.60598 0.28369 0.21047 0.0
C811 C 0.59882 0.29609 0.24692 0.0
C812 C 0.57857 0.3046 0.23993 0.0
C813 C 0.56531 0.30059 0.19655 0.0
H814 H 0.60902 0.29915 0.28055 0.0
H815 H 0.49519 0.26145 0.84821 0.0
loop_
_geom_bond_atom_site_label_1
_geom_bond_atom_site_label_2
_geom_bond_distance
_geom_bond_site_symmetry_2
_ccdc_geom_bond_type
Mn0 O5 2.095 . S
Mn0 O15 2.162 . S
Mn0 O16 2.297 . S
Mn0 O24 2.385 . S
Mn0 O25 2.209 . S
Mn0 O26 2.094 . S
Mn1 O6 2.121 . S
Mn1 N8 2.257 . S
Mn1 N17 2.282 1_554 S
Mn1 O25 2.215 . S
Mn1 O27 2.117 . S
C2 O24 1.234 . S
C2 O25 1.283 . S
C3 O15 1.281 . S
C3 O16 1.236 . S
C4 O26 1.240 . S
C4 O27 1.264 . S
O5 Mn0 2.095 . S
O5 C14 1.250 . S
O6 Mn1 2.121 . S
O6 C14 1.258 . S
C7 N8 1.326 . S
C7 C11 1.460 . S
C7 H13 0.929 . S
N8 Mn1 2.257 . S
N8 C7 1.326 . S
N8 C12 1.362 . S
C9 C10 1.258 . S
C9 C12 1.431 . S
C9 C29 1.449 . S
C10 C9 1.258 . S
C10 C11 1.477 . S
C10 H30 0.931 . S
C11 C7 1.460 . S
C11 C10 1.477 . S
C11 H31 0.930 . S
C12 N8 1.362 . S
C12 C9 1.431 . S
C12 C22 1.476 1_554 S
H13 C7 0.929 . S
C14 O5 1.250 . S
C14 O6 1.258 . S
O15 Mn0 2.162 . S
O15 C3 1.281 . S
O16 Mn0 2.297 . S
O16 C3 1.236 . S
N17 Mn1 2.282 1_556 S
N17 C18 1.328 . S
N17 C22 1.318 . S
C18 N17 1.328 . S
C18 C19 1.457 . S
C18 H23 0.929 . S
C19 C18 1.457 . S
C19 C20 1.291 . S
C19 H32 0.931 . S
C20 C19 1.291 . S
C20 C21 1.373 . S
C20 H33 0.929 . S
C21 C20 1.373 . S
C21 C22 1.396 . S
C21 C28 1.403 . S
C22 C12 1.476 1_556 S
C22 N17 1.318 . S
C22 C21 1.396 . S
H23 C18 0.929 . S
O24 Mn0 2.385 . S
O24 C2 1.234 . S
O25 Mn0 2.209 . S
O25 Mn1 2.215 . S
O25 C2 1.283 . S
O26 Mn0 2.094 . S
O26 C4 1.240 . S
O27 Mn1 2.117 . S
O27 C4 1.264 . S
C28 C21 1.403 . S
C28 C29 1.399 1_556 S
C28 H34 0.929 . S
C29 C9 1.449 . S
C29 C28 1.399 1_554 S
C29 H35 0.930 . S
H30 C10 0.931 . S
H31 C11 0.930 . S
H32 C19 0.931 . S
H33 C20 0.929 . S
H34 C28 0.929 . S
H35 C29 0.930 . S
Mn36 O41 2.095 . S
Mn36 O51 2.162 . S
Mn36 O52 2.297 . S
Mn36 O60 2.385 . S
Mn36 O61 2.209 . S
Mn36 O62 2.094 . S
Mn37 O42 2.121 . S
Mn37 N44 2.257 . S
Mn37 N53 2.282 . S
Mn37 O61 2.215 . S
Mn37 O63 2.117 . S
C38 O60 1.234 . S
C38 O61 1.283 . S
C39 O51 1.281 . S
C39 O52 1.236 . S
C40 O62 1.240 . S
C40 O63 1.264 . S
O41 Mn36 2.095 . S
O41 C50 1.250 . S
O42 Mn37 2.121 . S
O42 C50 1.258 . S
C43 N44 1.326 . S
C43 C47 1.460 . S
C43 H49 0.929 . S
N44 Mn37 2.257 . S
N44 C43 1.326 . S
N44 C48 1.362 . S
C45 C46 1.258 . S
C45 C48 1.431 . S
C45 C65 1.449 . S
C46 C45 1.258 . S
C46 C47 1.477 . S
C46 H66 0.931 . S
C47 C43 1.460 . S
C47 C46 1.477 . S
C47 H67 0.930 . S
C48 N44 1.362 . S
C48 C45 1.431 . S
C48 C58 1.476 . S
H49 C43 0.929 . S
C50 O41 1.250 . S
C50 O42 1.258 . S
O51 Mn36 2.162 . S
O51 C39 1.281 . S
O52 Mn36 2.297 . S
O52 C39 1.236 . S
N53 Mn37 2.282 . S
N53 C54 1.328 . S
N53 C58 1.318 . S
C54 N53 1.328 . S
C54 C55 1.457 . S
C54 H59 0.929 . S
C55 C54 1.457 . S
C55 C56 1.291 . S
C55 H68 0.931 . S
C56 C55 1.291 . S
C56 C57 1.373 . S
C56 H69 0.929 . S
C57 C56 1.373 . S
C57 C58 1.396 . S
C57 C64 1.403 . S
C58 C48 1.476 . S
C58 N53 1.318 . S
C58 C57 1.396 . S
H59 C54 0.929 . S
O60 Mn36 2.385 . S
O60 C38 1.234 . S
O61 Mn36 2.209 . S
O61 Mn37 2.215 . S
O61 C38 1.283 . S
O62 Mn36 2.094 . S
O62 C40 1.240 . S
O63 Mn37 2.117 . S
O63 C40 1.264 . S
C64 C57 1.403 . S
C64 C65 1.399 . S
C64 H70 0.929 . S
C65 C45 1.449 . S
C65 C64 1.399 . S
C65 H71 0.930 . S
H66 C46 0.931 . S
H67 C47 0.930 . S
H68 C55 0.931 . S
H69 C56 0.929 . S
H70 C64 0.929 . S
H71 C65 0.930 . S
Mn72 O77 2.095 . S
Mn72 O87 2.162 . S
Mn72 O88 2.297 . S
Mn72 O96 2.385 . S
Mn72 O97 2.209 . S
Mn72 O98 2.094 . S
Mn73 O78 2.121 . S
Mn73 N80 2.257 . S
Mn73 N89 2.282 . S
Mn73 O97 2.215 . S
Mn73 O99 2.117 . S
C74 O96 1.234 . S
C74 O97 1.283 . S
C75 O87 1.281 . S
C75 O88 1.236 . S
C76 O98 1.240 . S
C76 O99 1.264 . S
O77 Mn72 2.095 . S
O77 C86 1.250 . S
O78 Mn73 2.121 . S
O78 C86 1.258 . S
C79 N80 1.326 . S
C79 C83 1.460 . S
C79 H85 0.929 . S
N80 Mn73 2.257 . S
N80 C79 1.326 . S
N80 C84 1.362 . S
C81 C82 1.258 . S
C81 C84 1.431 . S
C81 C101 1.449 . S
C82 C81 1.258 . S
C82 C83 1.477 . S
C82 H102 0.931 . S
C83 C79 1.460 . S
C83 C82 1.477 . S
C83 H103 0.930 . S
C84 N80 1.362 . S
C84 C81 1.431 . S
C84 C94 1.476 . S
H85 C79 0.929 . S
C86 O77 1.250 . S
C86 O78 1.258 . S
O87 Mn72 2.162 . S
O87 C75 1.281 . S
O88 Mn72 2.297 . S
O88 C75 1.236 . S
N89 Mn73 2.282 . S
N89 C90 1.328 . S
N89 C94 1.318 . S
C90 N89 1.328 . S
C90 C91 1.457 . S
C90 H95 0.929 . S
C91 C90 1.457 . S
C91 C92 1.291 . S
C91 H104 0.931 . S
C92 C91 1.291 . S
C92 C93 1.373 . S
C92 H105 0.929 . S
C93 C92 1.373 . S
C93 C94 1.396 . S
C93 C100 1.403 . S
C94 C84 1.476 . S
C94 N89 1.318 . S
C94 C93 1.396 . S
H95 C90 0.929 . S
O96 Mn72 2.385 . S
O96 C74 1.234 . S
O97 Mn72 2.209 . S
O97 Mn73 2.215 . S
O97 C74 1.283 . S
O98 Mn72 2.094 . S
O98 C76 1.240 . S
O99 Mn73 2.117 . S
O99 C76 1.264 . S
C100 C93 1.403 . S
C100 C101 1.399 . S
C100 H106 0.929 . S
C101 C81 1.449 . S
C101 C100 1.399 . S
C101 H107 0.930 . S
H102 C82 0.931 . S
H103 C83 0.930 . S
H104 C91 0.931 . S
H105 C92 0.929 . S
H106 C100 0.929 . S
H107 C101 0.930 . S
Mn108 O113 2.095 . S
Mn108 O123 2.162 . S
Mn108 O124 2.297 . S
Mn108 O132 2.385 . S
Mn108 O133 2.209 . S
Mn108 O134 2.094 . S
Mn109 O114 2.121 . S
Mn109 N116 2.257 . S
Mn109 N125 2.282 . S
Mn109 O133 2.215 . S
Mn109 O135 2.117 . S
C110 O132 1.234 . S
C110 O133 1.283 . S
C111 O123 1.281 . S
C111 O124 1.236 . S
C112 O134 1.240 . S
C112 O135 1.264 . S
O113 Mn108 2.095 . S
O113 C122 1.250 . S
O114 Mn109 2.121 . S
O114 C122 1.258 . S
C115 N116 1.326 . S
C115 C119 1.460 . S
C115 H121 0.929 . S
N116 Mn109 2.257 . S
N116 C115 1.326 . S
N116 C120 1.362 . S
C117 C118 1.258 . S
C117 C120 1.431 . S
C117 C137 1.449 . S
C118 C117 1.258 . S
C118 C119 1.477 . S
C118 H138 0.931 . S
C119 C115 1.460 . S
C119 C118 1.477 . S
C119 H139 0.930 . S
C120 N116 1.362 . S
C120 C117 1.431 . S
C120 C130 1.476 . S
H121 C115 0.929 . S
C122 O113 1.250 . S
C122 O114 1.258 . S
O123 Mn108 2.162 . S
O123 C111 1.281 . S
O124 Mn108 2.297 . S
O124 C111 1.236 . S
N125 Mn109 2.282 . S
N125 C126 1.328 . S
N125 C130 1.318 . S
C126 N125 1.328 . S
C126 C127 1.457 . S
C126 H131 0.929 . S
C127 C126 1.457 . S
C127 C128 1.291 . S
C127 H140 0.931 . S
C128 C127 1.291 . S
C128 C129 1.373 . S
C128 H141 0.929 . S
C129 C128 1.373 . S
C129 C130 1.396 . S
C129 C136 1.403 . S
C130 C120 1.476 . S
C130 N125 1.318 . S
C130 C129 1.396 . S
H131 C126 0.929 . S
O132 Mn108 2.385 . S
O132 C110 1.234 . S
O133 Mn108 2.209 . S
O133 Mn109 2.215 . S
O133 C110 1.283 . S
O134 Mn108 2.094 . S
O134 C112 1.240 . S
O135 Mn109 2.117 . S
O135 C112 1.264 . S
C136 C129 1.403 . S
C136 C137 1.399 . S
C136 H142 0.929 . S
C137 C117 1.449 . S
C137 C136 1.399 . S
C137 H143 0.930 . S
H138 C118 0.931 . S
H139 C119 0.930 . S
H140 C127 0.931 . S
H141 C128 0.929 . S
H142 C136 0.929 . S
H143 C137 0.930 . S
Mn144 O149 2.095 . S
Mn144 O159 2.162 . S
Mn144 O160 2.297 . S
Mn144 O168 2.385 . S
Mn144 O169 2.209 . S
Mn144 O170 2.094 . S
Mn145 O150 2.121 . S
Mn145 N152 2.257 . S
Mn145 N161 2.282 . S
Mn145 O169 2.215 . S
Mn145 O171 2.117 . S
C146 O168 1.234 . S
C146 O169 1.283 . S
C147 O159 1.281 . S
C147 O160 1.236 . S
C148 O170 1.240 . S
C148 O171 1.264 . S
O149 Mn144 2.095 . S
O149 C158 1.250 . S
O150 Mn145 2.121 . S
O150 C158 1.258 . S
C151 N152 1.326 . S
C151 C155 1.460 . S
C151 H157 0.929 . S
N152 Mn145 2.257 . S
N152 C151 1.326 . S
N152 C156 1.362 . S
C153 C154 1.258 . S
C153 C156 1.431 . S
C153 C173 1.449 . S
C154 C153 1.258 . S
C154 C155 1.477 . S
C154 H174 0.931 . S
C155 C151 1.460 . S
C155 C154 1.477 . S
C155 H175 0.930 . S
C156 N152 1.362 . S
C156 C153 1.431 . S
C156 C166 1.476 . S
H157 C151 0.929 . S
C158 O149 1.250 . S
C158 O150 1.258 . S
O159 Mn144 2.162 . S
O159 C147 1.281 . S
O160 Mn144 2.297 . S
O160 C147 1.236 . S
N161 Mn145 2.282 . S
N161 C162 1.328 . S
N161 C166 1.318 . S
C162 N161 1.328 . S
C162 C163 1.457 . S
C162 H167 0.929 . S
C163 C162 1.457 . S
C163 C164 1.291 . S
C163 H176 0.931 . S
C164 C163 1.291 . S
C164 C165 1.373 . S
C164 H177 0.929 . S
C165 C164 1.373 . S
C165 C166 1.396 . S
C165 C172 1.403 . S
C166 C156 1.476 . S
C166 N161 1.318 . S
C166 C165 1.396 . S
H167 C162 0.929 . S
O168 Mn144 2.385 . S
O168 C146 1.234 . S
O169 Mn144 2.209 . S
O169 Mn145 2.215 . S
O169 C146 1.283 . S
O170 Mn144 2.094 . S
O170 C148 1.240 . S
O171 Mn145 2.117 . S
O171 C148 1.264 . S
C172 C165 1.403 . S
C172 C173 1.399 . S
C172 H178 0.929 . S
C173 C153 1.449 . S
C173 C172 1.399 . S
C173 H179 0.930 . S
H174 C154 0.931 . S
H175 C155 0.930 . S
H176 C163 0.931 . S
H177 C164 0.929 . S
H178 C172 0.929 . S
H179 C173 0.930 . S
Mn180 O185 2.095 . S
Mn180 O195 2.162 . S
Mn180 O196 2.297 . S
Mn180 O204 2.385 . S
Mn180 O205 2.209 . S
Mn180 O206 2.094 . S
Mn181 O186 2.121 . S
Mn181 N188 2.257 . S
Mn181 N197 2.282 . S
Mn181 O205 2.215 . S
Mn181 O207 2.117 . S
C182 O204 1.234 . S
C182 O205 1.283 . S
C183 O195 1.281 . S
C183 O196 1.236 . S
C184 O206 1.240 . S
C184 O207 1.264 . S
O185 Mn180 2.095 . S
O185 C194 1.250 . S
O186 Mn181 2.121 . S
O186 C194 1.258 . S
C187 N188 1.326 . S
C187 C191 1.460 . S
C187 H193 0.929 . S
N188 Mn181 2.257 . S
N188 C187 1.326 . S
N188 C192 1.362 . S
C189 C190 1.258 . S
C189 C192 1.431 . S
C189 C209 1.449 . S
C190 C189 1.258 . S
C190 C191 1.477 . S
C190 H210 0.931 . S
C191 C187 1.460 . S
C191 C190 1.477 . S
C191 H211 0.930 . S
C192 N188 1.362 . S
C192 C189 1.431 . S
C192 C202 1.476 . S
H193 C187 0.929 . S
C194 O185 1.250 . S
C194 O186 1.258 . S
O195 Mn180 2.162 . S
O195 C183 1.281 . S
O196 Mn180 2.297 . S
O196 C183 1.236 . S
N197 Mn181 2.282 . S
N197 C198 1.328 . S
N197 C202 1.318 . S
C198 N197 1.328 . S
C198 C199 1.457 . S
C198 H203 0.929 . S
C199 C198 1.457 . S
C199 C200 1.291 . S
C199 H212 0.931 . S
C200 C199 1.291 . S
C200 C201 1.373 . S
C200 H213 0.929 . S
C201 C200 1.373 . S
C201 C202 1.396 . S
C201 C208 1.403 . S
C202 C192 1.476 . S
C202 N197 1.318 . S
C202 C201 1.396 . S
H203 C198 0.929 . S
O204 Mn180 2.385 . S
O204 C182 1.234 . S
O205 Mn180 2.209 . S
O205 Mn181 2.215 . S
O205 C182 1.283 . S
O206 Mn180 2.094 . S
O206 C184 1.240 . S
O207 Mn181 2.117 . S
O207 C184 1.264 . S
C208 C201 1.403 . S
C208 C209 1.399 . S
C208 H214 0.929 . S
C209 C189 1.449 . S
C209 C208 1.399 . S
C209 H215 0.930 . S
H210 C190 0.931 . S
H211 C191 0.930 . S
H212 C199 0.931 . S
H213 C200 0.929 . S
H214 C208 0.929 . S
H215 C209 0.930 . S
H216 C234 0.951 . S
H217 C236 0.951 . S
H218 C238 0.950 . S
H219 C239 0.950 . S
H220 C241 0.950 . S
H221 C244 0.950 . S
H222 C245 0.950 . S
H223 C247 0.950 . S
H224 C248 0.950 1_655 S
H225 C249 0.951 . S
H226 C251 0.951 . S
H227 C253 0.950 . S
H228 C254 0.950 . S
H229 C256 0.950 . S
H230 C259 0.950 . S
H231 C260 0.950 . S
H232 C262 0.950 . S
H233 C263 0.950 1_455 S
C234 H216 0.951 . S
C234 C235 1.366 . S
C234 C236 1.388 . S
C235 C234 1.366 . S
C235 C239 1.385 . S
C236 H217 0.951 . S
C236 C234 1.388 . S
C236 C237 1.366 . S
C237 C236 1.366 . S
C237 C238 1.414 . S
C237 C240 1.499 . S
C238 H218 0.950 . S
C238 C237 1.414 . S
C238 C239 1.374 . S
C239 H219 0.950 . S
C239 C235 1.385 . S
C239 C238 1.374 . S
C240 C237 1.499 . S
C240 C241 1.373 . S
C240 C242 1.389 . S
C241 H220 0.950 . S
C241 C240 1.373 . S
C241 C257 1.377 1_455 S
C242 C240 1.389 . S
C242 C243 1.524 . S
C242 C256 1.377 1_455 S
C243 C242 1.524 . S
C243 C244 1.397 . S
C243 C248 1.363 . S
C244 H221 0.950 . S
C244 C243 1.397 . S
C244 C245 1.334 . S
C245 H222 0.950 . S
C245 C244 1.334 . S
C245 C246 1.287 . S
C246 C245 1.287 . S
C246 C247 1.524 . S
C246 H265 0.913 . S
C247 H223 0.950 . S
C247 C246 1.524 . S
C247 C248 1.415 . S
C248 H224 0.950 1_455 S
C248 C243 1.363 . S
C248 C247 1.415 . S
C249 H225 0.951 . S
C249 C250 1.366 . S
C249 C251 1.388 . S
C250 C249 1.366 . S
C250 C254 1.385 . S
C251 H226 0.951 . S
C251 C249 1.388 . S
C251 C252 1.366 . S
C252 C251 1.366 . S
C252 C253 1.414 . S
C252 C255 1.499 . S
C253 H227 0.950 . S
C253 C252 1.414 . S
C253 C254 1.374 . S
C254 H228 0.950 . S
C254 C250 1.385 . S
C254 C253 1.374 . S
C255 C252 1.499 . S
C255 C256 1.373 . S
C255 C257 1.389 . S
C256 H229 0.950 . S
C256 C242 1.377 1_655 S
C256 C255 1.373 . S
C257 C241 1.377 1_655 S
C257 C255 1.389 . S
C257 C258 1.524 . S
C258 C257 1.524 . S
C258 C259 1.397 . S
C258 C263 1.363 . S
C259 H230 0.950 . S
C259 C258 1.397 . S
C259 C260 1.334 . S
C260 H231 0.950 . S
C260 C259 1.334 . S
C260 C261 1.287 . S
C261 C260 1.287 . S
C261 C262 1.524 . S
C261 H264 0.999 . S
C262 H232 0.950 . S
C262 C261 1.524 . S
C262 C263 1.415 . S
C263 H233 0.950 1_655 S
C263 C258 1.363 . S
C263 C262 1.415 . S
H264 C261 0.999 . S
H265 C246 0.913 . S
H266 C284 0.951 . S
H267 C286 0.951 . S
H268 C288 0.950 . S
H269 C289 0.950 . S
H270 C291 0.950 . S
H271 C294 0.950 . S
H272 C295 0.950 . S
H273 C297 0.950 . S
H274 C298 0.950 . S
H275 C299 0.951 . S
H276 C301 0.951 . S
H277 C303 0.950 . S
H278 C304 0.950 . S
H279 C306 0.950 . S
H280 C309 0.950 . S
H281 C310 0.950 . S
H282 C312 0.950 . S
H283 C313 0.950 . S
C284 H266 0.951 . S
C284 C285 1.366 . S
C284 C286 1.388 . S
C285 C284 1.366 . S
C285 C289 1.385 . S
C286 H267 0.951 . S
C286 C284 1.388 . S
C286 C287 1.366 . S
C287 C286 1.366 . S
C287 C288 1.414 . S
C287 C290 1.499 . S
C288 H268 0.950 . S
C288 C287 1.414 . S
C288 C289 1.374 . S
C289 H269 0.950 . S
C289 C285 1.385 . S
C289 C288 1.374 . S
C290 C287 1.499 . S
C290 C291 1.373 1_565 S
C290 C292 1.389 . S
C291 H270 0.950 . S
C291 C290 1.373 1_545 S
C291 C307 1.377 . S
C292 C290 1.389 . S
C292 C293 1.524 1_556 S
C292 C306 1.377 1_556 S
C293 C292 1.524 1_554 S
C293 C294 1.397 . S
C293 C298 1.363 . S
C294 H271 0.950 . S
C294 C293 1.397 . S
C294 C295 1.334 . S
C295 H272 0.950 . S
C295 C294 1.334 . S
C295 C296 1.287 . S
C296 C295 1.287 . S
C296 C297 1.524 . S
C296 H315 0.913 . S
C297 H273 0.950 . S
C297 C296 1.524 . S
C297 C298 1.415 . S
C298 H274 0.950 . S
C298 C293 1.363 . S
C298 C297 1.415 . S
C299 H275 0.951 . S
C299 C300 1.366 . S
C299 C301 1.388 . S
C300 C299 1.366 . S
C300 C304 1.385 . S
C301 H276 0.951 . S
C301 C299 1.388 . S
C301 C302 1.366 . S
C302 C301 1.366 . S
C302 C303 1.414 . S
C302 C305 1.499 . S
C303 H277 0.950 . S
C303 C302 1.414 . S
C303 C304 1.374 . S
C304 H278 0.950 . S
C304 C300 1.385 . S
C304 C303 1.374 . S
C305 C302 1.499 . S
C305 C306 1.373 1_545 S
C305 C307 1.389 1_554 S
C306 H279 0.950 . S
C306 C292 1.377 1_554 S
C306 C305 1.373 1_565 S
C307 C291 1.377 . S
C307 C305 1.389 1_556 S
C307 C308 1.524 . S
C308 C307 1.524 . S
C308 C309 1.397 . S
C308 C313 1.363 . S
C309 H280 0.950 . S
C309 C308 1.397 . S
C309 C310 1.334 . S
C310 H281 0.950 . S
C310 C309 1.334 . S
C310 C311 1.287 . S
C311 C310 1.287 . S
C311 C312 1.524 . S
C311 H314 0.999 . S
C312 H282 0.950 . S
C312 C311 1.524 . S
C312 C313 1.415 . S
C313 H283 0.950 . S
C313 C308 1.363 . S
C313 C312 1.415 . S
H314 C311 0.999 . S
H315 C296 0.913 . S
H316 C334 0.951 . S
H317 C336 0.951 . S
H318 C338 0.950 . S
H319 C339 0.950 . S
H320 C341 0.950 . S
H321 C344 0.950 . S
H322 C345 0.950 . S
H323 C347 0.950 . S
H324 C348 0.950 . S
H325 C349 0.951 1_556 S
H326 C351 0.951 . S
H327 C353 0.950 . S
H328 C354 0.950 . S
H329 C356 0.950 . S
H330 C359 0.950 . S
H331 C360 0.950 . S
H332 C362 0.950 . S
H333 C363 0.950 . S
C334 H316 0.951 . S
C334 C335 1.366 . S
C334 C336 1.388 . S
C335 C334 1.366 . S
C335 C339 1.385 . S
C336 H317 0.951 . S
C336 C334 1.388 . S
C336 C337 1.366 . S
C337 C336 1.366 . S
C337 C338 1.414 . S
C337 C340 1.499 . S
C338 H318 0.950 . S
C338 C337 1.414 . S
C338 C339 1.374 . S
C339 H319 0.950 . S
C339 C335 1.385 . S
C339 C338 1.374 . S
C340 C337 1.499 . S
C340 C341 1.373 . S
C340 C342 1.389 . S
C341 H320 0.950 . S
C341 C340 1.373 . S
C341 C357 1.377 . S
C342 C340 1.389 . S
C342 C343 1.524 . S
C342 C356 1.377 . S
C343 C342 1.524 . S
C343 C344 1.397 . S
C343 C348 1.363 . S
C344 H321 0.950 . S
C344 C343 1.397 . S
C344 C345 1.334 . S
C345 H322 0.950 . S
C345 C344 1.334 . S
C345 C346 1.287 . S
C346 C345 1.287 . S
C346 C347 1.524 . S
C346 H365 0.913 . S
C347 H323 0.950 . S
C347 C346 1.524 . S
C347 C348 1.415 . S
C348 H324 0.950 . S
C348 C343 1.363 . S
C348 C347 1.415 . S
C349 H325 0.951 1_554 S
C349 C350 1.366 . S
C349 C351 1.388 . S
C350 C349 1.366 . S
C350 C354 1.385 . S
C351 H326 0.951 . S
C351 C349 1.388 . S
C351 C352 1.366 . S
C352 C351 1.366 . S
C352 C353 1.414 . S
C352 C355 1.499 . S
C353 H327 0.950 . S
C353 C352 1.414 . S
C353 C354 1.374 . S
C354 H328 0.950 . S
C354 C350 1.385 . S
C354 C353 1.374 . S
C355 C352 1.499 . S
C355 C356 1.373 . S
C355 C357 1.389 . S
C356 H329 0.950 . S
C356 C342 1.377 . S
C356 C355 1.373 . S
C357 C341 1.377 . S
C357 C355 1.389 . S
C357 C358 1.524 . S
C358 C357 1.524 . S
C358 C359 1.397 . S
C358 C363 1.363 . S
C359 H330 0.950 . S
C359 C358 1.397 . S
C359 C360 1.334 . S
C360 H331 0.950 . S
C360 C359 1.334 . S
C360 C361 1.287 . S
C361 C360 1.287 . S
C361 C362 1.524 . S
C361 H364 0.985 1_554 S
C362 H332 0.950 . S
C362 C361 1.524 . S
C362 C363 1.415 . S
C363 H333 0.950 . S
C363 C358 1.363 . S
C363 C362 1.415 . S
H364 C361 0.985 1_556 S
H365 C346 0.913 . S
H366 C384 0.951 . S
H367 C386 0.951 . S
H368 C388 0.950 . S
H369 C389 0.950 . S
H370 C391 0.950 . S
H371 C394 0.950 1_455 S
H372 C395 0.950 . S
H373 C397 0.950 . S
H374 C398 0.950 . S
H375 C399 0.951 . S
H376 C401 0.951 . S
H377 C403 0.950 . S
H378 C404 0.950 . S
H379 C406 0.950 . S
H380 C409 0.950 . S
H381 C410 0.950 . S
H382 C412 0.950 . S
H383 C413 0.950 . S
C384 H366 0.951 . S
C384 C385 1.366 . S
C384 C386 1.388 . S
C385 C384 1.366 . S
C385 C389 1.385 . S
C386 H367 0.951 . S
C386 C384 1.388 . S
C386 C387 1.366 . S
C387 C386 1.366 . S
C387 C388 1.414 . S
C387 C390 1.499 . S
C388 H368 0.950 . S
C388 C387 1.414 . S
C388 C389 1.374 . S
C389 H369 0.950 . S
C389 C385 1.385 . S
C389 C388 1.374 . S
C390 C387 1.499 . S
C390 C391 1.373 . S
C390 C392 1.389 . S
C391 H370 0.950 . S
C391 C390 1.373 . S
C391 C407 1.377 1_655 S
C392 C390 1.389 . S
C392 C393 1.524 . S
C392 C406 1.377 1_655 S
C393 C392 1.524 . S
C393 C394 1.397 . S
C393 C398 1.363 . S
C394 H371 0.950 1_655 S
C394 C393 1.397 . S
C394 C395 1.334 . S
C395 H372 0.950 . S
C395 C394 1.334 . S
C395 C396 1.287 . S
C396 C395 1.287 . S
C396 C397 1.524 . S
C396 H415 0.913 . S
C397 H373 0.950 . S
C397 C396 1.524 . S
C397 C398 1.415 . S
C398 H374 0.950 . S
C398 C393 1.363 . S
C398 C397 1.415 . S
C399 H375 0.951 . S
C399 C400 1.366 . S
C399 C401 1.388 . S
C400 C399 1.366 . S
C400 C404 1.385 . S
C401 H376 0.951 . S
C401 C399 1.388 . S
C401 C402 1.366 . S
C402 C401 1.366 . S
C402 C403 1.414 . S
C402 C405 1.499 . S
C403 H377 0.950 . S
C403 C402 1.414 . S
C403 C404 1.374 . S
C404 H378 0.950 . S
C404 C400 1.385 . S
C404 C403 1.374 . S
C405 C402 1.499 . S
C405 C406 1.373 . S
C405 C407 1.389 . S
C406 H379 0.950 . S
C406 C392 1.377 1_455 S
C406 C405 1.373 . S
C407 C391 1.377 1_455 S
C407 C405 1.389 . S
C407 C408 1.524 . S
C408 C407 1.524 . S
C408 C409 1.397 . S
C408 C413 1.363 . S
C409 H380 0.950 . S
C409 C408 1.397 . S
C409 C410 1.334 . S
C410 H381 0.950 . S
C410 C409 1.334 . S
C410 C411 1.287 . S
C411 C410 1.287 . S
C411 C412 1.524 . S
C411 H414 0.999 . S
C412 H382 0.950 . S
C412 C411 1.524 . S
C412 C413 1.415 . S
C413 H383 0.950 . S
C413 C408 1.363 . S
C413 C412 1.415 . S
H414 C411 0.999 . S
H415 C396 0.913 . S
H416 C434 0.951 . S
H417 C436 0.951 . S
H418 C438 0.950 . S
H419 C439 0.950 . S
H420 C441 0.940 1_565 S
H421 C444 0.950 . S
H422 C445 0.950 . S
H423 C447 0.950 . S
H424 C448 0.950 . S
H425 C449 0.951 . S
H426 C451 0.951 . S
H427 C453 0.950 . S
H428 C454 0.950 . S
H429 C456 0.950 . S
H430 C459 0.950 . S
H431 C460 0.950 . S
H432 C462 0.950 . S
H433 C463 0.950 . S
C434 H416 0.951 . S
C434 C435 1.366 . S
C434 C436 1.388 . S
C435 C434 1.366 . S
C435 C439 1.385 . S
C436 H417 0.951 . S
C436 C434 1.388 . S
C436 C437 1.366 . S
C437 C436 1.366 . S
C437 C438 1.414 . S
C437 C440 1.499 . S
C438 H418 0.950 . S
C438 C437 1.414 . S
C438 C439 1.374 . S
C439 H419 0.950 . S
C439 C435 1.385 . S
C439 C438 1.374 . S
C440 C437 1.499 . S
C440 C441 1.397 . S
C440 C442 1.389 . S
C441 H420 0.940 1_545 S
C441 C440 1.397 . S
C441 C457 1.363 1_545 S
C442 C440 1.389 . S
C442 C443 1.524 . S
C442 C456 1.377 . S
C443 C442 1.524 . S
C443 C444 1.397 . S
C443 C448 1.363 . S
C444 H421 0.950 . S
C444 C443 1.397 . S
C444 C445 1.334 . S
C445 H422 0.950 . S
C445 C444 1.334 . S
C445 C446 1.287 . S
C446 C445 1.287 . S
C446 C447 1.524 . S
C446 H465 0.913 . S
C447 H423 0.950 . S
C447 C446 1.524 . S
C447 C448 1.415 . S
C448 H424 0.950 . S
C448 C443 1.363 . S
C448 C447 1.415 . S
C449 H425 0.951 . S
C449 C450 1.366 . S
C449 C451 1.388 . S
C450 C449 1.366 . S
C450 C454 1.385 . S
C451 H426 0.951 . S
C451 C449 1.388 . S
C451 C452 1.366 . S
C452 C451 1.366 . S
C452 C453 1.414 . S
C452 C455 1.499 . S
C453 H427 0.950 . S
C453 C452 1.414 . S
C453 C454 1.374 . S
C454 H428 0.950 . S
C454 C450 1.385 . S
C454 C453 1.374 . S
C455 C452 1.499 . S
C455 C456 1.373 1_565 S
C455 C457 1.389 . S
C456 H429 0.950 . S
C456 C442 1.377 . S
C456 C455 1.373 1_545 S
C457 C441 1.363 1_565 S
C457 C455 1.389 . S
C457 C458 1.524 . S
C458 C457 1.524 . S
C458 C459 1.397 . S
C458 C463 1.363 . S
C459 H430 0.950 . S
C459 C458 1.397 . S
C459 C460 1.334 . S
C460 H431 0.950 . S
C460 C459 1.334 . S
C460 C461 1.287 . S
C461 C460 1.287 . S
C461 C462 1.524 . S
C461 H464 0.999 . S
C462 H432 0.950 . S
C462 C461 1.524 . S
C462 C463 1.415 . S
C463 H433 0.950 . S
C463 C458 1.363 . S
C463 C462 1.415 . S
H464 C461 0.999 . S
H465 C446 0.913 . S
H466 C484 0.951 . S
H467 C486 0.951 . S
H468 C488 0.950 . S
H469 C489 0.950 . S
H470 C491 0.950 . S
H471 C494 0.950 . S
H472 C495 0.950 . S
H473 C497 0.950 . S
H474 C498 0.950 . S
H475 C499 0.951 . S
H476 C501 0.951 . S
H477 C503 0.950 . S
H478 C504 0.950 . S
H479 C506 0.950 . S
H480 C509 0.950 . S
H481 C510 0.950 . S
H482 C512 0.950 . S
H483 C513 0.950 . S
C484 H466 0.951 . S
C484 C485 1.366 . S
C484 C486 1.388 . S
C485 C484 1.366 . S
C485 C489 1.385 . S
C486 H467 0.951 . S
C486 C484 1.388 . S
C486 C487 1.366 . S
C487 C486 1.366 . S
C487 C488 1.414 . S
C487 C490 1.499 . S
C488 H468 0.950 . S
C488 C487 1.414 . S
C488 C489 1.374 . S
C489 H469 0.950 . S
C489 C485 1.385 . S
C489 C488 1.374 . S
C490 C487 1.499 . S
C490 C491 1.373 . S
C490 C492 1.389 . S
C491 H470 0.950 . S
C491 C490 1.373 . S
C491 C507 1.377 . S
C492 C490 1.389 . S
C492 C493 1.524 . S
C492 C506 1.377 . S
C493 C492 1.524 . S
C493 C494 1.397 . S
C493 C498 1.363 . S
C494 H471 0.950 . S
C494 C493 1.397 . S
C494 C495 1.334 . S
C495 H472 0.950 . S
C495 C494 1.334 . S
C495 C496 1.287 . S
C496 C495 1.287 . S
C496 C497 1.524 . S
C496 H515 0.913 . S
C497 H473 0.950 . S
C497 C496 1.524 . S
C497 C498 1.415 . S
C498 H474 0.950 . S
C498 C493 1.363 . S
C498 C497 1.415 . S
C499 H475 0.951 . S
C499 C500 1.366 . S
C499 C501 1.388 . S
C500 C499 1.366 . S
C500 C504 1.385 . S
C501 H476 0.951 . S
C501 C499 1.388 . S
C501 C502 1.366 . S
C502 C501 1.366 . S
C502 C503 1.414 . S
C502 C505 1.499 . S
C503 H477 0.950 . S
C503 C502 1.414 . S
C503 C504 1.374 . S
C504 H478 0.950 . S
C504 C500 1.385 . S
C504 C503 1.374 . S
C505 C502 1.499 . S
C505 C506 1.373 . S
C505 C507 1.389 . S
C506 H479 0.950 . S
C506 C492 1.377 . S
C506 C505 1.373 . S
C507 C491 1.377 . S
C507 C505 1.389 . S
C507 C508 1.524 . S
C508 C507 1.524 . S
C508 C509 1.397 . S
C508 C513 1.363 . S
C509 H480 0.950 . S
C509 C508 1.397 . S
C509 C510 1.334 . S
C510 H481 0.950 . S
C510 C509 1.334 . S
C510 C511 1.287 . S
C511 C510 1.287 . S
C511 C512 1.524 . S
C511 H514 0.999 . S
C512 H482 0.950 . S
C512 C511 1.524 . S
C512 C513 1.415 . S
C513 H483 0.950 . S
C513 C508 1.363 . S
C513 C512 1.415 . S
H514 C511 0.999 . S
H515 C496 0.913 . S
H516 C534 0.951 . S
H517 C536 0.951 . S
H518 C538 0.950 . S
H519 C539 0.950 . S
H520 C541 0.950 . S
H521 C544 0.950 . S
H522 C545 0.950 . S
H523 C547 0.950 . S
H524 C548 0.950 . S
H525 C549 0.951 . S
H526 C551 0.951 . S
H527 C553 0.950 . S
H528 C554 0.950 . S
H529 C556 0.950 . S
H530 C559 0.950 . S
H531 C560 0.950 . S
H532 C562 0.950 . S
H533 C563 0.950 . S
C534 H516 0.951 . S
C534 C535 1.366 . S
C534 C536 1.388 . S
C535 C534 1.366 . S
C535 C539 1.385 . S
C536 H517 0.951 . S
C536 C534 1.388 . S
C536 C537 1.366 . S
C537 C536 1.366 . S
C537 C538 1.414 . S
C537 C540 1.499 . S
C538 H518 0.950 . S
C538 C537 1.414 . S
C538 C539 1.374 . S
C539 H519 0.950 . S
C539 C535 1.385 . S
C539 C538 1.374 . S
C540 C537 1.499 . S
C540 C541 1.373 . S
C540 C542 1.389 . S
C541 H520 0.950 . S
C541 C540 1.373 . S
C541 C557 1.377 . S
C542 C540 1.389 . S
C542 C543 1.524 . S
C542 C556 1.377 . S
C543 C542 1.524 . S
C543 C544 1.397 . S
C543 C548 1.363 . S
C544 H521 0.950 . S
C544 C543 1.397 . S
C544 C545 1.334 . S
C545 H522 0.950 . S
C545 C544 1.334 . S
C545 C546 1.287 . S
C546 C545 1.287 . S
C546 C547 1.524 . S
C546 H565 0.913 . S
C547 H523 0.950 . S
C547 C546 1.524 . S
C547 C548 1.415 . S
C548 H524 0.950 . S
C548 C543 1.363 . S
C548 C547 1.415 . S
C549 H525 0.951 . S
C549 C550 1.366 . S
C549 C551 1.388 . S
C550 C549 1.366 . S
C550 C554 1.385 . S
C551 H526 0.951 . S
C551 C549 1.388 . S
C551 C552 1.366 . S
C552 C551 1.366 . S
C552 C553 1.414 . S
C552 C555 1.499 . S
C553 H527 0.950 . S
C553 C552 1.414 . S
C553 C554 1.374 . S
C554 H528 0.950 . S
C554 C550 1.385 . S
C554 C553 1.374 . S
C555 C552 1.499 . S
C555 C556 1.373 . S
C555 C557 1.389 . S
C556 H529 0.950 . S
C556 C542 1.377 . S
C556 C555 1.373 . S
C557 C541 1.377 . S
C557 C555 1.389 . S
C557 C558 1.524 . S
C558 C557 1.524 . S
C558 C559 1.397 . S
C558 C563 1.363 . S
C559 H530 0.950 . S
C559 C558 1.397 . S
C559 C560 1.334 . S
C560 H531 0.950 . S
C560 C559 1.334 . S
C560 C561 1.287 . S
C561 C560 1.287 . S
C561 C562 1.524 . S
C561 H564 0.999 . S
C562 H532 0.950 . S
C562 C561 1.524 . S
C562 C563 1.415 . S
C563 H533 0.950 . S
C563 C558 1.363 . S
C563 C562 1.415 . S
H564 C561 0.999 . S
H565 C546 0.913 . S
H566 C584 0.951 . S
H567 C586 0.951 . S
H568 C588 0.950 . S
H569 C589 0.950 . S
H570 C591 0.950 . S
H571 C594 0.950 . S
H572 C595 0.950 . S
H573 C597 0.950 . S
H574 C598 0.950 . S
H575 C599 0.951 . S
H576 C601 0.951 . S
H577 C603 0.950 . S
H578 C604 0.950 . S
H579 C606 0.950 . S
H580 C609 0.950 . S
H581 C610 0.950 . S
H582 C612 0.950 . S
H583 C613 0.950 . S
C584 H566 0.951 . S
C584 C585 1.366 . S
C584 C586 1.388 . S
C585 C584 1.366 . S
C585 C589 1.385 . S
C586 H567 0.951 . S
C586 C584 1.388 . S
C586 C587 1.366 . S
C587 C586 1.366 . S
C587 C588 1.414 . S
C587 C590 1.499 . S
C588 H568 0.950 . S
C588 C587 1.414 . S
C588 C589 1.374 . S
C589 H569 0.950 . S
C589 C585 1.385 . S
C589 C588 1.374 . S
C590 C587 1.499 . S
C590 C591 1.373 . S
C590 C592 1.389 . S
C591 H570 0.950 . S
C591 C590 1.373 . S
C591 C607 1.377 . S
C592 C590 1.389 . S
C592 C593 1.524 . S
C592 C606 1.377 . S
C593 C592 1.524 . S
C593 C594 1.397 . S
C593 C598 1.363 . S
C594 H571 0.950 . S
C594 C593 1.397 . S
C594 C595 1.334 . S
C595 H572 0.950 . S
C595 C594 1.334 . S
C595 C596 1.287 . S
C596 C595 1.287 . S
C596 C597 1.524 . S
C596 H615 0.913 . S
C597 H573 0.950 . S
C597 C596 1.524 . S
C597 C598 1.415 . S
C598 H574 0.950 . S
C598 C593 1.363 . S
C598 C597 1.415 . S
C599 H575 0.951 . S
C599 C600 1.366 . S
C599 C601 1.388 . S
C600 C599 1.366 . S
C600 C604 1.385 . S
C601 H576 0.951 . S
C601 C599 1.388 . S
C601 C602 1.366 . S
C602 C601 1.366 . S
C602 C603 1.414 . S
C602 C605 1.499 . S
C603 H577 0.950 . S
C603 C602 1.414 . S
C603 C604 1.374 . S
C604 H578 0.950 . S
C604 C600 1.385 . S
C604 C603 1.374 . S
C605 C602 1.499 . S
C605 C606 1.373 . S
C605 C607 1.389 . S
C606 H579 0.950 . S
C606 C592 1.377 . S
C606 C605 1.373 . S
C607 C591 1.377 . S
C607 C605 1.389 . S
C607 C608 1.524 . S
C608 C607 1.524 . S
C608 C609 1.397 . S
C608 C613 1.363 . S
C609 H580 0.950 . S
C609 C608 1.397 . S
C609 C610 1.334 . S
C610 H581 0.950 . S
C610 C609 1.334 . S
C610 C611 1.287 . S
C611 C610 1.287 . S
C611 C612 1.524 . S
C611 H614 0.999 . S
C612 H582 0.950 . S
C612 C611 1.524 . S
C612 C613 1.415 . S
C613 H583 0.950 . S
C613 C608 1.363 . S
C613 C612 1.415 . S
H614 C611 0.999 . S
H615 C596 0.913 . S
H616 C634 0.951 . S
H617 C636 0.951 . S
H618 C638 0.950 . S
H619 C639 0.950 . S
H620 C641 0.950 . S
H621 C644 0.950 . S
H622 C645 0.950 . S
H623 C647 0.950 . S
H624 C648 0.950 . S
H625 C649 0.951 . S
H626 C651 0.951 . S
H627 C653 0.950 . S
H628 C654 0.950 . S
H629 C656 0.950 . S
H630 C659 0.950 . S
H631 C660 0.950 . S
H632 C662 0.950 . S
H633 C663 0.950 . S
C634 H616 0.951 . S
C634 C635 1.366 . S
C634 C636 1.388 . S
C635 C634 1.366 . S
C635 C639 1.385 . S
C636 H617 0.951 . S
C636 C634 1.388 . S
C636 C637 1.366 . S
C637 C636 1.366 . S
C637 C638 1.414 . S
C637 C640 1.499 . S
C638 H618 0.950 . S
C638 C637 1.414 . S
C638 C639 1.374 . S
C639 H619 0.950 . S
C639 C635 1.385 . S
C639 C638 1.374 . S
C640 C637 1.499 . S
C640 C641 1.373 . S
C640 C642 1.389 . S
C641 H620 0.950 . S
C641 C640 1.373 . S
C641 C657 1.377 . S
C642 C640 1.389 . S
C642 C643 1.524 . S
C642 C656 1.377 . S
C643 C642 1.524 . S
C643 C644 1.397 . S
C643 C648 1.363 . S
C644 H621 0.950 . S
C644 C643 1.397 . S
C644 C645 1.334 . S
C645 H622 0.950 . S
C645 C644 1.334 . S
C645 C646 1.287 . S
C646 C645 1.287 . S
C646 C647 1.524 . S
C646 H665 0.913 . S
C647 H623 0.950 . S
C647 C646 1.524 . S
C647 C648 1.415 . S
C648 H624 0.950 . S
C648 C643 1.363 . S
C648 C647 1.415 . S
C649 H625 0.951 . S
C649 C650 1.366 . S
C649 C651 1.388 . S
C650 C649 1.366 . S
C650 C654 1.385 . S
C651 H626 0.951 . S
C651 C649 1.388 . S
C651 C652 1.366 . S
C652 C651 1.366 . S
C652 C653 1.414 . S
C652 C655 1.499 . S
C653 H627 0.950 . S
C653 C652 1.414 . S
C653 C654 1.374 . S
C654 H628 0.950 . S
C654 C650 1.385 . S
C654 C653 1.374 . S
C655 C652 1.499 . S
C655 C656 1.373 . S
C655 C657 1.389 . S
C656 H629 0.950 . S
C656 C642 1.377 . S
C656 C655 1.373 . S
C657 C641 1.377 . S
C657 C655 1.389 . S
C657 C658 1.524 . S
C658 C657 1.524 . S
C658 C659 1.397 . S
C658 C663 1.363 . S
C659 H630 0.950 . S
C659 C658 1.397 . S
C659 C660 1.334 . S
C660 H631 0.950 . S
C660 C659 1.334 . S
C660 C661 1.287 . S
C661 C660 1.287 . S
C661 C662 1.524 . S
C661 H664 0.999 . S
C662 H632 0.950 . S
C662 C661 1.524 . S
C662 C663 1.415 . S
C663 H633 0.950 . S
C663 C658 1.363 . S
C663 C662 1.415 . S
H664 C661 0.999 . S
H665 C646 0.913 . S
H666 C684 0.951 . S
H667 C686 0.951 . S
H668 C688 0.950 . S
H669 C689 0.950 . S
H670 C691 0.950 . S
H671 C694 0.950 . S
H672 C695 0.950 . S
H673 C697 0.950 . S
H674 C698 0.950 . S
H675 C699 0.951 . S
H676 C701 0.951 . S
H677 C703 0.950 . S
H678 C704 0.950 . S
H679 C706 0.950 . S
H680 C709 0.950 . S
H681 C710 0.950 . S
H682 C712 0.950 . S
H683 C713 0.950 . S
C684 H666 0.951 . S
C684 C685 1.366 . S
C684 C686 1.388 . S
C685 C684 1.366 . S
C685 C689 1.385 . S
C686 H667 0.951 . S
C686 C684 1.388 . S
C686 C687 1.366 . S
C687 C686 1.366 . S
C687 C688 1.414 . S
C687 C690 1.499 . S
C688 H668 0.950 . S
C688 C687 1.414 . S
C688 C689 1.374 . S
C689 H669 0.950 . S
C689 C685 1.385 . S
C689 C688 1.374 . S
C690 C687 1.499 . S
C690 C691 1.373 . S
C690 C692 1.389 . S
C691 H670 0.950 . S
C691 C690 1.373 . S
C691 C707 1.377 . S
C692 C690 1.389 . S
C692 C693 1.524 . S
C692 C706 1.377 . S
C693 C692 1.524 . S
C693 C694 1.397 . S
C693 C698 1.363 . S
C694 H671 0.950 . S
C694 C693 1.397 . S
C694 C695 1.334 . S
C695 H672 0.950 . S
C695 C694 1.334 . S
C695 C696 1.287 . S
C696 C695 1.287 . S
C696 C697 1.524 . S
C696 H715 0.913 . S
C697 H673 0.950 . S
C697 C696 1.524 . S
C697 C698 1.415 . S
C698 H674 0.950 . S
C698 C693 1.363 . S
C698 C697 1.415 . S
C699 H675 0.951 . S
C699 C700 1.366 . S
C699 C701 1.388 . S
C700 C699 1.366 . S
C700 C704 1.385 . S
C701 H676 0.951 . S
C701 C699 1.388 . S
C701 C702 1.366 . S
C702 C701 1.366 . S
C702 C703 1.414 . S
C702 C705 1.499 . S
C703 H677 0.950 . S
C703 C702 1.414 . S
C703 C704 1.374 . S
C704 H678 0.950 . S
C704 C700 1.385 . S
C704 C703 1.374 . S
C705 C702 1.499 . S
C705 C706 1.373 . S
C705 C707 1.389 . S
C706 H679 0.950 . S
C706 C692 1.377 . S
C706 C705 1.373 . S
C707 C691 1.377 . S
C707 C705 1.389 . S
C707 C708 1.524 . S
C708 C707 1.524 . S
C708 C709 1.397 . S
C708 C713 1.363 . S
C709 H680 0.950 . S
C709 C708 1.397 . S
C709 C710 1.334 . S
C710 H681 0.950 . S
C710 C709 1.334 . S
C710 C711 1.287 . S
C711 C710 1.287 . S
C711 C712 1.524 . S
C711 H714 0.999 . S
C712 H682 0.950 . S
C712 C711 1.524 . S
C712 C713 1.415 . S
C713 H683 0.950 . S
C713 C708 1.363 . S
C713 C712 1.415 . S
H714 C711 0.999 . S
H715 C696 0.913 . S
H716 C734 0.951 . S
H717 C736 0.951 . S
H718 C738 0.950 . S
H719 C739 0.950 . S
H720 C741 0.950 . S
H721 C744 0.950 . S
H722 C745 0.950 . S
H723 C747 0.950 1_554 S
H724 C748 0.950 1_554 S
H725 C749 0.951 . S
H726 C751 0.951 . S
H727 C753 0.950 . S
H728 C754 0.950 . S
H729 C756 0.950 . S
H730 C759 0.950 . S
H731 C760 0.950 . S
H732 C762 0.950 . S
H733 C763 0.950 . S
C734 H716 0.951 . S
C734 C735 1.366 . S
C734 C736 1.388 . S
C735 C734 1.366 . S
C735 C739 1.385 . S
C736 H717 0.951 . S
C736 C734 1.388 . S
C736 C737 1.366 . S
C737 C736 1.366 . S
C737 C738 1.414 . S
C737 C740 1.499 . S
C738 H718 0.950 . S
C738 C737 1.414 . S
C738 C739 1.374 . S
C739 H719 0.950 . S
C739 C735 1.385 . S
C739 C738 1.374 . S
C740 C737 1.499 . S
C740 C741 1.373 . S
C740 C742 1.389 . S
C741 H720 0.950 . S
C741 C740 1.373 . S
C741 C757 1.377 . S
C742 C740 1.389 . S
C742 C743 1.524 . S
C742 C756 1.377 . S
C743 C742 1.524 . S
C743 C744 1.397 . S
C743 C748 1.363 . S
C744 H721 0.950 . S
C744 C743 1.397 . S
C744 C745 1.334 . S
C745 H722 0.950 . S
C745 C744 1.334 . S
C745 C746 1.287 . S
C746 C745 1.287 . S
C746 C747 1.524 . S
C746 H765 0.913 . S
C747 H723 0.950 1_556 S
C747 C746 1.524 . S
C747 C748 1.415 . S
C748 H724 0.950 1_556 S
C748 C743 1.363 . S
C748 C747 1.415 . S
C749 H725 0.951 . S
C749 C750 1.366 1_556 S
C749 C751 1.388 . S
C750 C749 1.366 1_554 S
C750 C754 1.385 . S
C751 H726 0.951 . S
C751 C749 1.388 . S
C751 C752 1.366 . S
C752 C751 1.366 . S
C752 C753 1.414 1_556 S
C752 C755 1.499 . S
C753 H727 0.950 . S
C753 C752 1.414 1_554 S
C753 C754 1.374 . S
C754 H728 0.950 . S
C754 C750 1.385 . S
C754 C753 1.374 . S
C755 C752 1.499 . S
C755 C756 1.373 . S
C755 C757 1.389 . S
C756 H729 0.950 . S
C756 C742 1.377 . S
C756 C755 1.373 . S
C757 C741 1.377 . S
C757 C755 1.389 . S
C757 C758 1.524 . S
C758 C757 1.524 . S
C758 C759 1.397 . S
C758 C763 1.363 . S
C759 H730 0.950 . S
C759 C758 1.397 . S
C759 C760 1.334 . S
C760 H731 0.950 . S
C760 C759 1.334 . S
C760 C761 1.287 . S
C761 C760 1.287 . S
C761 C762 1.524 . S
C761 H764 0.999 . S
C762 H732 0.950 . S
C762 C761 1.524 . S
C762 C763 1.415 . S
C763 H733 0.950 . S
C763 C758 1.363 . S
C763 C762 1.415 . S
H764 C761 0.999 . S
H765 C746 0.913 . S
H766 C784 0.950 1_556 S
H767 C786 0.951 . S
H768 C788 0.950 . S
H769 C789 0.950 . S
H770 C791 0.950 . S
H771 C794 0.950 . S
H772 C795 0.950 . S
H773 C797 0.950 . S
H774 C798 0.950 . S
H775 C799 0.951 . S
H776 C801 0.951 . S
H777 C803 0.950 . S
H778 C804 0.950 . S
H779 C806 0.950 . S
H780 C809 0.950 . S
H781 C810 0.950 . S
H782 C812 0.950 . S
H783 C813 0.950 . S
C784 H766 0.950 1_554 S
C784 C785 1.357 1_554 S
C784 C786 1.398 . S
C785 C784 1.357 1_556 S
C785 C789 1.385 . S
C786 H767 0.951 . S
C786 C784 1.398 . S
C786 C787 1.366 . S
C787 C786 1.366 . S
C787 C788 1.414 . S
C787 C790 1.499 . S
C788 H768 0.950 . S
C788 C787 1.414 . S
C788 C789 1.374 1_554 S
C789 H769 0.950 . S
C789 C785 1.385 . S
C789 C788 1.374 1_556 S
C790 C787 1.499 . S
C790 C791 1.373 . S
C790 C792 1.389 . S
C791 H770 0.950 . S
C791 C790 1.373 . S
C791 C807 1.377 . S
C792 C790 1.389 . S
C792 C793 1.524 . S
C792 C806 1.377 . S
C793 C792 1.524 . S
C793 C794 1.397 1_554 S
C793 C798 1.363 . S
C794 H771 0.950 . S
C794 C793 1.397 1_556 S
C794 C795 1.334 . S
C795 H772 0.950 . S
C795 C794 1.334 . S
C795 C796 1.287 . S
C796 C795 1.287 . S
C796 C797 1.524 . S
C796 H815 0.913 . S
C797 H773 0.950 . S
C797 C796 1.524 . S
C797 C798 1.415 1_556 S
C798 H774 0.950 . S
C798 C793 1.363 . S
C798 C797 1.415 1_554 S
C799 H775 0.951 . S
C799 C800 1.366 . S
C799 C801 1.388 . S
C800 C799 1.366 . S
C800 C804 1.385 . S
C801 H776 0.951 . S
C801 C799 1.388 . S
C801 C802 1.366 . S
C802 C801 1.366 . S
C802 C803 1.414 . S
C802 C805 1.499 . S
C803 H777 0.950 . S
C803 C802 1.414 . S
C803 C804 1.374 . S
C804 H778 0.950 . S
C804 C800 1.385 . S
C804 C803 1.374 . S
C805 C802 1.499 . S
C805 C806 1.373 . S
C805 C807 1.389 . S
C806 H779 0.950 . S
C806 C792 1.377 . S
C806 C805 1.373 . S
C807 C791 1.377 . S
C807 C805 1.389 . S
C807 C808 1.524 . S
C808 C807 1.524 . S
C808 C809 1.397 . S
C808 C813 1.363 . S
C809 H780 0.950 . S
C809 C808 1.397 . S
C809 C810 1.334 . S
C810 H781 0.950 . S
C810 C809 1.334 . S
C810 C811 1.287 . S
C811 C810 1.287 . S
C811 C812 1.524 . S
C811 H814 0.999 . S
C812 H782 0.950 . S
C812 C811 1.524 . S
C812 C813 1.415 . S
C813 H783 0.950 . S
C813 C808 1.363 . S
C813 C812 1.415 . S
H814 C811 0.999 . S
H815 C796 0.913 . S
C235 C4 1.146 1_556 S
C250 C122 1.146 . S
C285 C158 1.146 . S
C300 C40 1.147 . S
C335 C76 1.146 . S
C350 C194 1.147 1_554 S
C385 C112 1.148 . S
C400 C14 1.147 . S
C435 C50 1.146 . S
C450 C148 1.147 . S
C485 C184 1.148 . S
C500 C86 1.147 . S
C535 C3 1.144 . S
C550 C74 1.127 . S
C585 C39 1.144 . S
C600 C110 1.126 . S
C635 C146 1.126 . S
C650 C75 1.144 . S
C685 C182 1.126 . S
C700 C111 1.145 . S
C735 C147 1.145 . S
C750 C2 1.126 . S
C785 C183 1.145 . S
C800 C38 1.126 . S
