# Generated by pormake.
# Topology qtz-h, (3)-cn, num edge types: 1
# Building blocks:
#     Node 0, Type 0, BuildingBlock: OLANEW_clean_sbu_2, # of connection points: 3
#     Node 1, Type 0, BuildingBlock: OLANEW_clean_sbu_2, # of connection points: 3
#     Node 2, Type 0, BuildingBlock: OLANEW_clean_sbu_2, # of connection points: 3
#     Node 3, Type 0, BuildingBlock: OLANEW_clean_sbu_2, # of connection points: 3
#     Node 4, Type 0, BuildingBlock: OLANEW_clean_sbu_2, # of connection points: 3
#     Node 5, Type 0, BuildingBlock: OLANEW_clean_sbu_2, # of connection points: 3
#     Node 6, Type 0, BuildingBlock: OLANEW_clean_sbu_2, # of connection points: 3
#     Node 7, Type 0, BuildingBlock: OLANEW_clean_sbu_2, # of connection points: 3
#     Node 8, Type 0, BuildingBlock: OLANEW_clean_sbu_2, # of connection points: 3
#     Node 9, Type 0, BuildingBlock: OLANEW_clean_sbu_2, # of connection points: 3
#     Node 10, Type 0, BuildingBlock: OLANEW_clean_sbu_2, # of connection points: 3
#     Node 11, Type 0, BuildingBlock: OLANEW_clean_sbu_2, # of connection points: 3
#     Edge 12, Type (0, 0), BuildingBlock: XIVTED_clean_linker_0, # of connection points: 2
#     Edge 13, Type (0, 0), BuildingBlock: XIVTED_clean_linker_0, # of connection points: 2
#     Edge 14, Type (0, 0), BuildingBlock: XIVTED_clean_linker_0, # of connection points: 2
#     Edge 15, Type (0, 0), BuildingBlock: XIVTED_clean_linker_0, # of connection points: 2
#     Edge 16, Type (0, 0), BuildingBlock: XIVTED_clean_linker_0, # of connection points: 2
#     Edge 17, Type (0, 0), BuildingBlock: XIVTED_clean_linker_0, # of connection points: 2
#     Edge 18, Type (0, 0), BuildingBlock: XIVTED_clean_linker_0, # of connection points: 2
#     Edge 19, Type (0, 0), BuildingBlock: XIVTED_clean_linker_0, # of connection points: 2
#     Edge 20, Type (0, 0), BuildingBlock: XIVTED_clean_linker_0, # of connection points: 2
#     Edge 21, Type (0, 0), BuildingBlock: XIVTED_clean_linker_0, # of connection points: 2
#     Edge 22, Type (0, 0), BuildingBlock: XIVTED_clean_linker_0, # of connection points: 2
#     Edge 23, Type (0, 0), BuildingBlock: XIVTED_clean_linker_0, # of connection points: 2
#     Edge 24, Type (0, 0), BuildingBlock: XIVTED_clean_linker_0, # of connection points: 2
#     Edge 25, Type (0, 0), BuildingBlock: XIVTED_clean_linker_0, # of connection points: 2
#     Edge 26, Type (0, 0), BuildingBlock: XIVTED_clean_linker_0, # of connection points: 2
#     Edge 27, Type (0, 0), BuildingBlock: XIVTED_clean_linker_0, # of connection points: 2
#     Edge 28, Type (0, 0), BuildingBlock: XIVTED_clean_linker_0, # of connection points: 2
#     Edge 29, Type (0, 0), BuildingBlock: XIVTED_clean_linker_0, # of connection points: 2
# Relax obj value: 0.007
# Max RMSD: 0.028
# Mean RMSD: 0.028
data_MOF--net-qtz-h--node1-OLANEW_clean_sbu_2--edge1-XIVTED_clean_linker_0
_symmetry_space_group_name_H-M    P1
_symmetry_Int_Tables_number       1
_symmetry_cell_setting            triclinic
loop_
_symmetry_equiv_pos_as_xyz
'x, y, z'
_cell_length_a     59.515575
_cell_length_b     59.513841
_cell_length_c     68.606507
_cell_angle_alpha  90.001218
_cell_angle_beta   89.999798
_cell_angle_gamma 119.99052
loop_
_atom_site_label
_atom_site_type_symbol
_atom_site_fract_x
_atom_site_fract_y
_atom_site_fract_z
_atom_type_partial_charge
O0 O 0.64343 0.22443 0.07802 0.0
Cd1 Cd 0.65727 0.22434 0.11154 0.0
O2 O 0.61677 0.1828 0.08127 0.0
Cd3 Cd 0.58546 0.14359 0.0743 0.0
O4 O 0.55719 0.10265 0.06972 0.0
C5 C 0.56366 0.08581 0.07377 0.0
O6 O 0.58715 0.09363 0.08039 0.0
C7 C 0.62602 0.20314 0.07076 0.0
C8 C 0.66365 0.26722 0.1326 0.0
O9 O 0.6829 0.26759 0.12391 0.0
O10 O 0.6414 0.2466 0.1313 0.0
O11 O 0.44186 0.66546 0.39983 0.0
Cd12 Cd 0.45706 0.68384 0.43224 0.0
O13 O 0.44276 0.63096 0.40985 0.0
Cd14 Cd 0.44112 0.59385 0.4051 0.0
O15 O 0.4496 0.56231 0.40204 0.0
C16 C 0.47328 0.56818 0.4024 0.0
O17 O 0.49125 0.59265 0.40441 0.0
C18 C 0.43815 0.64287 0.39646 0.0
C19 C 0.41683 0.68038 0.45527 0.0
O20 O 0.43123 0.70085 0.44529 0.0
O21 O 0.42148 0.66158 0.45437 0.0
O22 O 0.77111 0.42833 0.7382 0.0
Cd23 Cd 0.77114 0.4426 0.77159 0.0
O24 O 0.8117 0.43926 0.74258 0.0
Cd25 Cd 0.84971 0.44333 0.73658 0.0
O26 O 0.89013 0.45325 0.73323 0.0
C27 C 0.90737 0.47699 0.73136 0.0
O28 O 0.90021 0.4946 0.73118 0.0
C29 C 0.79186 0.43009 0.73154 0.0
C30 C 0.73148 0.40385 0.79383 0.0
O31 O 0.72816 0.42092 0.78494 0.0
O32 O 0.75354 0.40512 0.7922 0.0
O33 O 0.33608 0.76812 0.06998 0.0
Cd34 Cd 0.31629 0.76394 0.10196 0.0
O35 O 0.37007 0.80303 0.08119 0.0
Cd36 Cd 0.4074 0.83865 0.07771 0.0
O37 O 0.43902 0.87872 0.07552 0.0
C38 C 0.43389 0.89544 0.06854 0.0
O39 O 0.41014 0.88779 0.0626 0.0
C40 C 0.35884 0.78709 0.06734 0.0
C41 C 0.31853 0.72637 0.12481 0.0
O42 O 0.29843 0.72075 0.11451 0.0
O43 O 0.33755 0.74973 0.1243 0.0
O44 O 0.5567 0.33415 0.39896 0.0
Cd45 Cd 0.54037 0.31447 0.43085 0.0
O46 O 0.55483 0.36801 0.40931 0.0
Cd47 Cd 0.5565 0.40524 0.4052 0.0
O48 O 0.54839 0.4371 0.40287 0.0
C49 C 0.52498 0.43142 0.40027 0.0
O50 O 0.50697 0.40688 0.39883 0.0
C51 C 0.56033 0.35679 0.39592 0.0
C52 C 0.58004 0.31673 0.45391 0.0
O53 O 0.56564 0.29663 0.44357 0.0
O54 O 0.57559 0.33568 0.4534 0.0
O55 O 0.23229 0.57914 0.74246 0.0
Cd56 Cd 0.23199 0.56587 0.77621 0.0
O57 O 0.19144 0.56749 0.74635 0.0
Cd58 Cd 0.15323 0.56254 0.73966 0.0
O59 O 0.11286 0.55234 0.73542 0.0
C60 C 0.09569 0.52856 0.7337 0.0
O61 O 0.10288 0.51097 0.73424 0.0
C62 C 0.21142 0.5767 0.73546 0.0
C63 C 0.27328 0.60384 0.79774 0.0
O64 O 0.27506 0.58558 0.7893 0.0
O65 O 0.252 0.60416 0.79595 0.0
O66 O 0.76787 0.34597 0.58939 0.0
Cd67 Cd 0.76781 0.33206 0.55587 0.0
O68 O 0.80878 0.37484 0.58524 0.0
Cd69 Cd 0.84704 0.40816 0.59165 0.0
O70 O 0.88738 0.43841 0.59591 0.0
C71 C 0.90462 0.43186 0.59749 0.0
O72 O 0.89753 0.40713 0.59678 0.0
C73 C 0.78884 0.3645 0.59619 0.0
C74 C 0.72679 0.32913 0.5342 0.0
O75 O 0.72467 0.30908 0.54287 0.0
O76 O 0.74828 0.35054 0.5358 0.0
O77 O 0.44333 0.7756 0.93446 0.0
Cd78 Cd 0.45966 0.77354 0.90223 0.0
O79 O 0.44359 0.81079 0.92474 0.0
Cd80 Cd 0.44072 0.84559 0.92951 0.0
O81 O 0.44799 0.88522 0.93245 0.0
C82 C 0.47139 0.90322 0.93453 0.0
O83 O 0.48976 0.8971 0.93508 0.0
C84 C 0.43892 0.794 0.93792 0.0
C85 C 0.42013 0.73671 0.87877 0.0
O86 O 0.43464 0.73083 0.88879 0.0
O87 O 0.4244 0.76003 0.87978 0.0
O88 O 0.66874 0.44261 0.26749 0.0
Cd89 Cd 0.6891 0.4583 0.23569 0.0
O90 O 0.63534 0.4447 0.25632 0.0
Cd91 Cd 0.59829 0.44361 0.25973 0.0
O92 O 0.56695 0.45253 0.2616 0.0
C93 C 0.57279 0.47548 0.2663 0.0
O94 O 0.59713 0.4925 0.27014 0.0
C95 C 0.64614 0.43929 0.27008 0.0
C96 C 0.68357 0.41749 0.21233 0.0
O97 O 0.70395 0.43059 0.22273 0.0
O98 O 0.66589 0.42377 0.2129 0.0
O99 O 0.23007 0.65322 0.59142 0.0
Cd100 Cd 0.22968 0.66586 0.55758 0.0
O101 O 0.18949 0.62341 0.58731 0.0
Cd102 Cd 0.15152 0.58971 0.59383 0.0
O103 O 0.11118 0.5592 0.59755 0.0
C104 C 0.0939 0.56563 0.59945 0.0
O105 O 0.10097 0.59038 0.59947 0.0
C106 C 0.20931 0.63454 0.59834 0.0
C107 C 0.2712 0.66956 0.53614 0.0
O108 O 0.27273 0.68954 0.5445 0.0
O109 O 0.25008 0.64784 0.53797 0.0
O110 O 0.56285 0.22612 0.92959 0.0
Cd111 Cd 0.54847 0.22657 0.89631 0.0
O112 O 0.55221 0.18568 0.92481 0.0
Cd113 Cd 0.54848 0.14769 0.93021 0.0
O114 O 0.53947 0.10751 0.93339 0.0
C115 C 0.51585 0.08965 0.9341 0.0
O116 O 0.49764 0.09596 0.93316 0.0
C117 C 0.56133 0.20537 0.93601 0.0
C118 C 0.58789 0.26543 0.87398 0.0
O119 O 0.57139 0.26952 0.88297 0.0
O120 O 0.58571 0.24296 0.87553 0.0
O121 O 0.34448 0.56698 0.26115 0.0
Cd122 Cd 0.32702 0.55153 0.22855 0.0
O123 O 0.37804 0.56353 0.25242 0.0
Cd124 Cd 0.41389 0.56305 0.25833 0.0
O125 O 0.44406 0.55277 0.26225 0.0
C126 C 0.43755 0.52902 0.26043 0.0
O127 O 0.41324 0.51202 0.25646 0.0
C128 C 0.36643 0.56945 0.26521 0.0
C129 C 0.32464 0.58961 0.20644 0.0
O130 O 0.30492 0.57292 0.21616 0.0
O131 O 0.34548 0.58831 0.20721 0.0
H132 H 0.63989 0.38115 0.19346 0.0
H133 H 0.70907 0.31039 0.14325 0.0
H134 H 0.72016 0.40404 0.20338 0.0
H135 H 0.62591 0.27563 0.14772 0.0
H136 H 0.71413 0.34737 0.16234 0.0
H137 H 0.63504 0.34479 0.17367 0.0
C138 C 0.65651 0.37857 0.19143 0.0
C139 C 0.68046 0.39563 0.20011 0.0
C140 C 0.69479 0.33163 0.15915 0.0
C141 C 0.67505 0.35415 0.17742 0.0
C142 C 0.69188 0.31056 0.1482 0.0
C143 C 0.66703 0.28987 0.14392 0.0
C144 C 0.67269 0.33216 0.16567 0.0
C145 C 0.64543 0.29111 0.15074 0.0
C146 C 0.6537 0.35777 0.18019 0.0
C147 C 0.70132 0.39131 0.19702 0.0
N148 N 0.64877 0.31194 0.16123 0.0
N149 N 0.69816 0.37105 0.18587 0.0
H150 H 0.3786 0.6375 0.47376 0.0
H151 H 0.31549 0.71358 0.52491 0.0
H152 H 0.40639 0.71899 0.46458 0.0
H153 H 0.27681 0.63006 0.52104 0.0
H154 H 0.3512 0.71635 0.50542 0.0
H155 H 0.34331 0.63481 0.49373 0.0
C156 C 0.37731 0.65484 0.47597 0.0
C157 C 0.39545 0.6785 0.46746 0.0
C158 C 0.33488 0.69742 0.50882 0.0
C159 C 0.35519 0.67558 0.49038 0.0
C160 C 0.31453 0.69582 0.52 0.0
C161 C 0.29311 0.67154 0.52458 0.0
C162 C 0.33396 0.67459 0.50234 0.0
C163 C 0.2929 0.64918 0.5178 0.0
C164 C 0.35712 0.65327 0.48733 0.0
C165 C 0.39279 0.70033 0.4708 0.0
N166 N 0.31305 0.65124 0.50707 0.0
N167 N 0.37309 0.69836 0.48205 0.0
H168 H 0.59401 0.31265 0.86373 0.0
H169 H 0.73001 0.36123 0.81029 0.0
H170 H 0.62961 0.2652 0.85739 0.0
H171 H 0.68512 0.39964 0.80432 0.0
H172 H 0.69507 0.32749 0.82982 0.0
H173 H 0.62894 0.34643 0.84419 0.0
C174 C 0.60918 0.30934 0.85825 0.0
C175 C 0.60888 0.28604 0.86218 0.0
C176 C 0.69285 0.34328 0.8242 0.0
C177 C 0.64895 0.32468 0.8399 0.0
C178 C 0.71282 0.36259 0.8131 0.0
C179 C 0.71048 0.38329 0.80565 0.0
C180 C 0.67047 0.34478 0.82806 0.0
C181 C 0.68773 0.38401 0.80973 0.0
C182 C 0.62907 0.32861 0.84705 0.0
C183 C 0.62903 0.28281 0.85467 0.0
N184 N 0.66865 0.36509 0.82072 0.0
N185 N 0.64829 0.30194 0.84395 0.0
H186 H 0.28158 0.5924 0.19638 0.0
H187 H 0.36093 0.72953 0.14303 0.0
H188 H 0.36482 0.63265 0.18959 0.0
H189 H 0.2789 0.67794 0.13431 0.0
H190 H 0.36249 0.69633 0.16306 0.0
H191 H 0.27998 0.62576 0.17655 0.0
C192 C 0.29953 0.60828 0.19076 0.0
C193 C 0.32337 0.60973 0.19462 0.0
C194 C 0.34417 0.69228 0.15673 0.0
C195 C 0.32167 0.64799 0.17204 0.0
C196 C 0.34324 0.71124 0.14535 0.0
C197 C 0.31975 0.70648 0.13697 0.0
C198 C 0.32139 0.6685 0.15996 0.0
C199 C 0.29744 0.6824 0.14044 0.0
C200 C 0.29858 0.62725 0.17939 0.0
C201 C 0.346 0.63071 0.18692 0.0
N202 N 0.29879 0.66434 0.15174 0.0
N203 N 0.34461 0.64908 0.17606 0.0
H204 H 0.72225 0.36916 0.51892 0.0
H205 H 0.58984 0.27753 0.46261 0.0
H206 H 0.68201 0.28561 0.52298 0.0
H207 H 0.61871 0.35907 0.47259 0.0
H208 H 0.6254 0.2804 0.48238 0.0
H209 H 0.68634 0.36615 0.49956 0.0
C210 C 0.70587 0.35018 0.51574 0.0
C211 C 0.70512 0.3276 0.52259 0.0
C212 C 0.6239 0.29764 0.48028 0.0
C213 C 0.66405 0.32403 0.50036 0.0
C214 C 0.60366 0.29604 0.46896 0.0
C215 C 0.6013 0.31809 0.46596 0.0
C216 C 0.64209 0.32153 0.48849 0.0
C217 C 0.61974 0.34156 0.47456 0.0
C218 C 0.68535 0.34849 0.50474 0.0
C219 C 0.68337 0.30352 0.51804 0.0
N220 N 0.63943 0.34269 0.48536 0.0
N221 N 0.66375 0.30236 0.50713 0.0
H222 H 0.27833 0.64867 0.81294 0.0
H223 H 0.41036 0.68792 0.86936 0.0
H224 H 0.31779 0.60458 0.809 0.0
H225 H 0.38156 0.74083 0.86031 0.0
H226 H 0.37486 0.65568 0.84932 0.0
H227 H 0.31432 0.68126 0.8324 0.0
C228 C 0.29456 0.64583 0.81617 0.0
C229 C 0.29506 0.62386 0.80933 0.0
C230 C 0.37637 0.67437 0.85168 0.0
C231 C 0.33624 0.66103 0.83167 0.0
C232 C 0.39658 0.69276 0.86316 0.0
C233 C 0.39893 0.71711 0.86651 0.0
C234 C 0.3582 0.68026 0.84366 0.0
C235 C 0.38053 0.72233 0.85808 0.0
C236 C 0.31513 0.66449 0.82723 0.0
C237 C 0.31662 0.62124 0.81393 0.0
N238 N 0.36088 0.70401 0.84711 0.0
N239 N 0.3363 0.63955 0.82489 0.0
H240 H 0.48479 0.91815 0.07997 0.0
H241 H 0.51375 0.06286 0.06005 0.0
H242 H 0.42864 0.93617 0.05584 0.0
H243 H 0.57065 0.04484 0.0826 0.0
H244 H 0.48267 0.01646 0.05756 0.0
H245 H 0.51691 0.96441 0.08015 0.0
C246 C 0.47923 0.93181 0.07464 0.0
C247 C 0.45393 0.92325 0.06795 0.0
C248 C 0.50198 0.02265 0.063 0.0
C249 C 0.49062 0.97628 0.06817 0.0
C250 C 0.51974 0.04916 0.06444 0.0
C251 C 0.54483 0.05778 0.07161 0.0
C252 C 0.5093 0.00459 0.06883 0.0
C253 C 0.55151 0.03911 0.07702 0.0
C254 C 0.49759 0.95824 0.07476 0.0
C255 C 0.44787 0.94186 0.06118 0.0
N256 N 0.53383 0.01342 0.07558 0.0
N257 N 0.46604 0.96748 0.06153 0.0
H258 H 0.55717 0.48408 0.40299 0.0
H259 H 0.44126 0.5157 0.39795 0.0
H260 H 0.47664 0.42561 0.39589 0.0
H261 H 0.52196 0.57426 0.40382 0.0
H262 H 0.4539 0.48247 0.39652 0.0
H263 H 0.54472 0.51748 0.40265 0.0
C264 C 0.53688 0.47826 0.40131 0.0
C265 C 0.51792 0.45198 0.39952 0.0
C266 C 0.46885 0.50259 0.39808 0.0
C267 C 0.50352 0.49014 0.39916 0.0
C268 C 0.46164 0.52159 0.3989 0.0
C269 C 0.48057 0.54782 0.40106 0.0
C270 C 0.49518 0.50985 0.39946 0.0
C271 C 0.50669 0.55429 0.40218 0.0
C272 C 0.52978 0.49735 0.40112 0.0
C273 C 0.49193 0.44561 0.39735 0.0
N274 N 0.5132 0.53544 0.40141 0.0
N275 N 0.48549 0.46453 0.39728 0.0
H276 H 0.94913 0.52613 0.72875 0.0
H277 H 0.05403 0.47933 0.73121 0.0
H278 H 0.92905 0.44572 0.73135 0.0
H279 H 0.07402 0.55977 0.73207 0.0
H280 H 0.00822 0.46665 0.72937 0.0
H281 H 0.99497 0.53877 0.72806 0.0
C282 C 0.95433 0.51111 0.72911 0.0
C283 C 0.93518 0.48481 0.73019 0.0
C284 C 0.02262 0.48708 0.72991 0.0
C285 C 0.98772 0.49919 0.72943 0.0
C286 C 0.04881 0.49435 0.73095 0.0
C287 C 0.06793 0.52067 0.73187 0.0
C288 C 0.01543 0.50624 0.72979 0.0
C289 C 0.05997 0.53925 0.73144 0.0
C290 C 0.98055 0.51835 0.72873 0.0
C291 C 0.94313 0.46622 0.73058 0.0
N292 N 0.03433 0.53168 0.73048 0.0
N293 N 0.96878 0.47377 0.73024 0.0
H294 H 0.07245 0.51274 0.59989 0.0
H295 H 0.92606 0.48468 0.59967 0.0
H296 H 0.05202 0.57284 0.60196 0.0
H297 H 0.94644 0.4245 0.59947 0.0
H298 H 0.97209 0.51723 0.6015 0.0
H299 H 0.02638 0.4801 0.60073 0.0
C300 C 0.05829 0.51909 0.60059 0.0
C301 C 0.06613 0.54559 0.60077 0.0
C302 C 0.9665 0.4969 0.60112 0.0
C303 C 0.01331 0.50829 0.60169 0.0
C304 C 0.9402 0.47829 0.60007 0.0
C305 C 0.93236 0.4518 0.59934 0.0
C306 C 0.98514 0.48901 0.60139 0.0
C307 C 0.95157 0.44469 0.59996 0.0
C308 C 0.03197 0.50042 0.60107 0.0
C309 C 0.0469 0.55265 0.60174 0.0
N310 N 0.97705 0.46318 0.60088 0.0
N311 N 0.0214 0.53412 0.60209 0.0
H312 H 0.51957 0.94618 0.93793 0.0
H313 H 0.46728 0.04671 0.93473 0.0
H314 H 0.43843 0.92296 0.9337 0.0
H315 H 0.54851 0.0697 0.93628 0.0
H316 H 0.45622 0.00129 0.93583 0.0
H317 H 0.53038 0.99149 0.93884 0.0
C318 C 0.504 0.95058 0.93725 0.0
C319 C 0.47804 0.9307 0.93568 0.0
C320 C 0.47646 0.01627 0.93597 0.0
C321 C 0.49033 0.98265 0.93669 0.0
C322 C 0.48281 0.04223 0.93535 0.0
C323 C 0.50888 0.06208 0.93535 0.0
C324 C 0.49632 0.01005 0.9366 0.0
C325 C 0.52815 0.05506 0.93621 0.0
C326 C 0.5102 0.9765 0.93775 0.0
C327 C 0.45871 0.93763 0.93487 0.0
N328 N 0.52148 0.02964 0.93676 0.0
N329 N 0.46525 0.96303 0.93535 0.0
H330 H 0.43013 0.48006 0.25614 0.0
H331 H 0.5792 0.5233 0.27469 0.0
H332 H 0.48937 0.55878 0.26898 0.0
H333 H 0.52071 0.44547 0.25882 0.0
H334 H 0.54618 0.53621 0.27421 0.0
H335 H 0.46266 0.46664 0.25855 0.0
C336 C 0.44997 0.49454 0.25951 0.0
C337 C 0.45703 0.52062 0.2623 0.0
C338 C 0.54055 0.51629 0.27087 0.0
C339 C 0.49443 0.50535 0.26509 0.0
C340 C 0.5594 0.50888 0.27116 0.0
C341 C 0.55275 0.48326 0.26672 0.0
C342 C 0.51481 0.49796 0.26612 0.0
C343 C 0.52675 0.46544 0.26229 0.0
C344 C 0.46855 0.48685 0.26087 0.0
C345 C 0.48305 0.53848 0.26666 0.0
N346 N 0.50875 0.47314 0.26206 0.0
N347 N 0.5008 0.53052 0.26789 0.0
H348 H 0.59664 0.24655 0.95734 0.0
H349 H 0.60368 0.16233 0.04475 0.0
H350 H 0.54679 0.16352 0.96052 0.0
H351 H 0.62799 0.24352 0.05059 0.0
H352 H 0.58699 0.16245 0.01227 0.0
H353 H 0.61258 0.24604 0.99008 0.0
C354 C 0.58917 0.22816 0.96483 0.0
C355 C 0.57088 0.20492 0.95586 0.0
C356 C 0.59574 0.18015 0.02077 0.0
C357 C 0.58913 0.20422 0.99333 0.0
C358 C 0.60494 0.18001 0.03947 0.0
C359 C 0.6164 0.2027 0.05077 0.0
C360 C 0.59854 0.20329 0.01314 0.0
C361 C 0.61907 0.2255 0.04249 0.0
C362 C 0.59829 0.2279 0.98352 0.0
C363 C 0.56177 0.18172 0.96636 0.0
N364 N 0.61021 0.22522 0.02419 0.0
N365 N 0.5711 0.18193 0.9845 0.0
H366 H 0.41698 0.60402 0.27361 0.0
H367 H 0.40167 0.59274 0.3886 0.0
H368 H 0.34224 0.55698 0.30055 0.0
H369 H 0.45287 0.66581 0.36077 0.0
H370 H 0.38467 0.5736 0.35643 0.0
H371 H 0.43562 0.62131 0.30584 0.0
C372 C 0.40462 0.59707 0.28636 0.0
C373 C 0.37812 0.57898 0.28454 0.0
C374 C 0.39975 0.59376 0.35743 0.0
C375 C 0.39923 0.59843 0.32119 0.0
C376 C 0.40957 0.60461 0.37568 0.0
C377 C 0.42876 0.6308 0.37722 0.0
C378 C 0.40965 0.60911 0.34066 0.0
C379 C 0.43804 0.64553 0.36012 0.0
C380 C 0.41519 0.60707 0.30464 0.0
C381 C 0.36277 0.57094 0.30142 0.0
N382 N 0.42854 0.63442 0.34248 0.0
N383 N 0.3736 0.58058 0.31911 0.0
H384 H 0.83341 0.4458 0.70657 0.0
H385 H 0.74811 0.3606 0.61706 0.0
H386 H 0.75068 0.3944 0.71038 0.0
H387 H 0.83026 0.3888 0.62144 0.0
H388 H 0.74882 0.37657 0.65002 0.0
H389 H 0.83298 0.4291 0.67399 0.0
C390 C 0.81527 0.43056 0.70082 0.0
C391 C 0.7922 0.42084 0.71156 0.0
C392 C 0.76673 0.37943 0.64368 0.0
C393 C 0.79137 0.40256 0.67383 0.0
C394 C 0.76636 0.37033 0.62488 0.0
C395 C 0.78934 0.37407 0.61619 0.0
C396 C 0.79027 0.39244 0.65391 0.0
C397 C 0.81235 0.38661 0.62709 0.0
C398 C 0.81498 0.4213 0.68206 0.0
C399 C 0.76898 0.40229 0.70271 0.0
N400 N 0.81227 0.39548 0.64534 0.0
N401 N 0.76915 0.39377 0.68437 0.0
H402 H 0.4095 0.80172 0.06073 0.0
H403 H 0.40184 0.80704 0.94528 0.0
H404 H 0.33752 0.77966 0.03108 0.0
H405 H 0.45179 0.78403 0.97373 0.0
H406 H 0.38298 0.80728 0.97706 0.0
H407 H 0.43033 0.80547 0.02906 0.0
C408 C 0.39823 0.79807 0.04752 0.0
C409 C 0.37186 0.79057 0.04841 0.0
C410 C 0.39821 0.80238 0.97631 0.0
C411 C 0.39545 0.79486 0.01238 0.0
C412 C 0.40912 0.80247 0.95827 0.0
C413 C 0.4285 0.79571 0.957 0.0
C414 C 0.40714 0.79596 0.99316 0.0
C415 C 0.43686 0.78935 0.97417 0.0
C416 C 0.41003 0.79999 0.02954 0.0
C417 C 0.35791 0.78547 0.03094 0.0
N418 N 0.42625 0.7898 0.99161 0.0
N419 N 0.36993 0.7879 0.01357 0.0
H420 H 0.54866 0.33533 0.35962 0.0
H421 H 0.66683 0.45156 0.30661 0.0
H422 H 0.59675 0.40743 0.38973 0.0
H423 H 0.59527 0.40336 0.27591 0.0
H424 H 0.64451 0.43262 0.33753 0.0
H425 H 0.56846 0.35685 0.32864 0.0
C426 C 0.56326 0.35573 0.35965 0.0
C427 C 0.57094 0.36977 0.37713 0.0
C428 C 0.63369 0.42643 0.32402 0.0
C429 C 0.59396 0.39416 0.34205 0.0
C430 C 0.64638 0.43711 0.30644 0.0
C431 C 0.63272 0.42915 0.2888 0.0
C432 C 0.60742 0.40711 0.32383 0.0
C433 C 0.60632 0.4103 0.28927 0.0
C434 C 0.57444 0.36796 0.34203 0.0
C435 C 0.59002 0.39609 0.37648 0.0
N436 N 0.59455 0.39963 0.30651 0.0
N437 N 0.60116 0.40741 0.35922 0.0
H438 H 0.25237 0.61263 0.71425 0.0
H439 H 0.16771 0.61009 0.62341 0.0
H440 H 0.17007 0.55925 0.7101 0.0
H441 H 0.25035 0.64063 0.62002 0.0
H442 H 0.16792 0.5951 0.65649 0.0
H443 H 0.25192 0.62687 0.68089 0.0
C444 C 0.23414 0.60403 0.7064 0.0
C445 C 0.21106 0.58525 0.71525 0.0
C446 C 0.18595 0.60484 0.64841 0.0
C447 C 0.21041 0.60151 0.67708 0.0
C448 C 0.18578 0.61307 0.62938 0.0
C449 C 0.20888 0.6258 0.61861 0.0
C450 C 0.20948 0.60984 0.65689 0.0
C451 C 0.23203 0.63067 0.62771 0.0
C452 C 0.23392 0.61217 0.68737 0.0
C453 C 0.18807 0.57464 0.7043 0.0
N454 N 0.23174 0.62269 0.64631 0.0
N455 N 0.1883 0.58301 0.68583 0.0
loop_
_geom_bond_atom_site_label_1
_geom_bond_atom_site_label_2
_geom_bond_distance
_geom_bond_site_symmetry_2
_ccdc_geom_bond_type
O0 Cd1 2.300 . S
O0 C7 1.275 . S
Cd1 O0 2.300 . S
Cd1 O9 2.381 . S
Cd1 O10 2.378 . S
O2 Cd3 2.385 . S
O2 C7 1.255 . S
Cd3 O2 2.385 . S
Cd3 O4 2.317 . S
O4 Cd3 2.317 . S
O4 C5 1.232 . S
C5 O4 1.232 . S
C5 O6 1.218 . S
O6 C5 1.218 . S
C7 O0 1.275 . S
C7 O2 1.255 . S
C8 O9 1.258 . S
C8 O10 1.256 . S
O9 Cd1 2.381 . S
O9 C8 1.258 . S
O10 Cd1 2.378 . S
O10 C8 1.256 . S
O11 Cd12 2.300 . S
O11 C18 1.275 . S
Cd12 O11 2.300 . S
Cd12 O20 2.381 . S
Cd12 O21 2.378 . S
O13 Cd14 2.385 . S
O13 C18 1.255 . S
Cd14 O13 2.385 . S
Cd14 O15 2.317 . S
O15 Cd14 2.317 . S
O15 C16 1.232 . S
C16 O15 1.232 . S
C16 O17 1.218 . S
O17 C16 1.218 . S
C18 O11 1.275 . S
C18 O13 1.255 . S
C19 O20 1.258 . S
C19 O21 1.256 . S
O20 Cd12 2.381 . S
O20 C19 1.258 . S
O21 Cd12 2.378 . S
O21 C19 1.256 . S
O22 Cd23 2.300 . S
O22 C29 1.275 . S
Cd23 O22 2.300 . S
Cd23 O31 2.381 . S
Cd23 O32 2.378 . S
O24 Cd25 2.385 . S
O24 C29 1.255 . S
Cd25 O24 2.385 . S
Cd25 O26 2.317 . S
O26 Cd25 2.317 . S
O26 C27 1.232 . S
C27 O26 1.232 . S
C27 O28 1.218 . S
O28 C27 1.218 . S
C29 O22 1.275 . S
C29 O24 1.255 . S
C30 O31 1.258 . S
C30 O32 1.256 . S
O31 Cd23 2.381 . S
O31 C30 1.258 . S
O32 Cd23 2.378 . S
O32 C30 1.256 . S
O33 Cd34 2.300 . S
O33 C40 1.275 . S
Cd34 O33 2.300 . S
Cd34 O42 2.381 . S
Cd34 O43 2.378 . S
O35 Cd36 2.385 . S
O35 C40 1.255 . S
Cd36 O35 2.385 . S
Cd36 O37 2.317 . S
O37 Cd36 2.317 . S
O37 C38 1.232 . S
C38 O37 1.232 . S
C38 O39 1.218 . S
O39 C38 1.218 . S
C40 O33 1.275 . S
C40 O35 1.255 . S
C41 O42 1.258 . S
C41 O43 1.256 . S
O42 Cd34 2.381 . S
O42 C41 1.258 . S
O43 Cd34 2.378 . S
O43 C41 1.256 . S
O44 Cd45 2.300 . S
O44 C51 1.275 . S
Cd45 O44 2.300 . S
Cd45 O53 2.381 . S
Cd45 O54 2.378 . S
O46 Cd47 2.385 . S
O46 C51 1.255 . S
Cd47 O46 2.385 . S
Cd47 O48 2.317 . S
O48 Cd47 2.317 . S
O48 C49 1.232 . S
C49 O48 1.232 . S
C49 O50 1.218 . S
O50 C49 1.218 . S
C51 O44 1.275 . S
C51 O46 1.255 . S
C52 O53 1.258 . S
C52 O54 1.256 . S
O53 Cd45 2.381 . S
O53 C52 1.258 . S
O54 Cd45 2.378 . S
O54 C52 1.256 . S
O55 Cd56 2.300 . S
O55 C62 1.275 . S
Cd56 O55 2.300 . S
Cd56 O64 2.381 . S
Cd56 O65 2.378 . S
O57 Cd58 2.385 . S
O57 C62 1.255 . S
Cd58 O57 2.385 . S
Cd58 O59 2.317 . S
O59 Cd58 2.317 . S
O59 C60 1.232 . S
C60 O59 1.232 . S
C60 O61 1.218 . S
O61 C60 1.218 . S
C62 O55 1.275 . S
C62 O57 1.255 . S
C63 O64 1.258 . S
C63 O65 1.256 . S
O64 Cd56 2.381 . S
O64 C63 1.258 . S
O65 Cd56 2.378 . S
O65 C63 1.256 . S
O66 Cd67 2.300 . S
O66 C73 1.275 . S
Cd67 O66 2.300 . S
Cd67 O75 2.381 . S
Cd67 O76 2.378 . S
O68 Cd69 2.385 . S
O68 C73 1.255 . S
Cd69 O68 2.385 . S
Cd69 O70 2.317 . S
O70 Cd69 2.317 . S
O70 C71 1.232 . S
C71 O70 1.232 . S
C71 O72 1.218 . S
O72 C71 1.218 . S
C73 O66 1.275 . S
C73 O68 1.255 . S
C74 O75 1.258 . S
C74 O76 1.256 . S
O75 Cd67 2.381 . S
O75 C74 1.258 . S
O76 Cd67 2.378 . S
O76 C74 1.256 . S
O77 Cd78 2.300 . S
O77 C84 1.275 . S
Cd78 O77 2.300 . S
Cd78 O86 2.381 . S
Cd78 O87 2.378 . S
O79 Cd80 2.385 . S
O79 C84 1.255 . S
Cd80 O79 2.385 . S
Cd80 O81 2.317 . S
O81 Cd80 2.317 . S
O81 C82 1.232 . S
C82 O81 1.232 . S
C82 O83 1.218 . S
O83 C82 1.218 . S
C84 O77 1.275 . S
C84 O79 1.255 . S
C85 O86 1.258 . S
C85 O87 1.256 . S
O86 Cd78 2.381 . S
O86 C85 1.258 . S
O87 Cd78 2.378 . S
O87 C85 1.256 . S
O88 Cd89 2.300 . S
O88 C95 1.275 . S
Cd89 O88 2.300 . S
Cd89 O97 2.381 . S
Cd89 O98 2.378 . S
O90 Cd91 2.385 . S
O90 C95 1.255 . S
Cd91 O90 2.385 . S
Cd91 O92 2.317 . S
O92 Cd91 2.317 . S
O92 C93 1.232 . S
C93 O92 1.232 . S
C93 O94 1.218 . S
O94 C93 1.218 . S
C95 O88 1.275 . S
C95 O90 1.255 . S
C96 O97 1.258 . S
C96 O98 1.256 . S
O97 Cd89 2.381 . S
O97 C96 1.258 . S
O98 Cd89 2.378 . S
O98 C96 1.256 . S
O99 Cd100 2.300 . S
O99 C106 1.275 . S
Cd100 O99 2.300 . S
Cd100 O108 2.381 . S
Cd100 O109 2.378 . S
O101 Cd102 2.385 . S
O101 C106 1.255 . S
Cd102 O101 2.385 . S
Cd102 O103 2.317 . S
O103 Cd102 2.317 . S
O103 C104 1.232 . S
C104 O103 1.232 . S
C104 O105 1.218 . S
O105 C104 1.218 . S
C106 O99 1.275 . S
C106 O101 1.255 . S
C107 O108 1.258 . S
C107 O109 1.256 . S
O108 Cd100 2.381 . S
O108 C107 1.258 . S
O109 Cd100 2.378 . S
O109 C107 1.256 . S
O110 Cd111 2.300 . S
O110 C117 1.275 . S
Cd111 O110 2.300 . S
Cd111 O119 2.381 . S
Cd111 O120 2.378 . S
O112 Cd113 2.385 . S
O112 C117 1.255 . S
Cd113 O112 2.385 . S
Cd113 O114 2.317 . S
O114 Cd113 2.317 . S
O114 C115 1.232 . S
C115 O114 1.232 . S
C115 O116 1.218 . S
O116 C115 1.218 . S
C117 O110 1.275 . S
C117 O112 1.255 . S
C118 O119 1.258 . S
C118 O120 1.256 . S
O119 Cd111 2.381 . S
O119 C118 1.258 . S
O120 Cd111 2.378 . S
O120 C118 1.256 . S
O121 Cd122 2.300 . S
O121 C128 1.275 . S
Cd122 O121 2.300 . S
Cd122 O130 2.381 . S
Cd122 O131 2.378 . S
O123 Cd124 2.385 . S
O123 C128 1.255 . S
Cd124 O123 2.385 . S
Cd124 O125 2.317 . S
O125 Cd124 2.317 . S
O125 C126 1.232 . S
C126 O125 1.232 . S
C126 O127 1.218 . S
O127 C126 1.218 . S
C128 O121 1.275 . S
C128 O123 1.255 . S
C129 O130 1.258 . S
C129 O131 1.256 . S
O130 Cd122 2.381 . S
O130 C129 1.258 . S
O131 Cd122 2.378 . S
O131 C129 1.256 . S
H132 C138 0.930 . S
H133 C142 0.930 . S
H134 C147 0.929 . S
H135 C145 0.929 . S
H136 C140 0.929 . S
H137 C146 0.929 . S
C138 H132 0.930 . S
C138 C139 1.367 . S
C138 C146 1.378 . S
C139 C138 1.367 . S
C139 C147 1.433 . S
C140 H136 0.929 . S
C140 C142 1.378 . S
C140 C144 1.350 . S
C141 C144 1.463 . S
C141 C146 1.350 . S
C141 N149 1.427 . S
C142 H133 0.930 . S
C142 C140 1.378 . S
C142 C143 1.367 . S
C143 C142 1.367 . S
C143 C145 1.433 . S
C144 C140 1.350 . S
C144 C141 1.463 . S
C144 N148 1.427 . S
C145 H135 0.929 . S
C145 C143 1.433 . S
C145 N148 1.384 . S
C146 H137 0.929 . S
C146 C138 1.378 . S
C146 C141 1.350 . S
C147 H134 0.929 . S
C147 C139 1.433 . S
C147 N149 1.384 . S
N148 C144 1.427 . S
N148 C145 1.384 . S
N149 C141 1.427 . S
N149 C147 1.384 . S
H150 C156 0.930 . S
H151 C160 0.930 . S
H152 C165 0.929 . S
H153 C163 0.929 . S
H154 C158 0.929 . S
H155 C164 0.929 . S
C156 H150 0.930 . S
C156 C157 1.367 . S
C156 C164 1.378 . S
C157 C156 1.367 . S
C157 C165 1.433 . S
C158 H154 0.929 . S
C158 C160 1.378 . S
C158 C162 1.350 . S
C159 C162 1.463 . S
C159 C164 1.350 . S
C159 N167 1.427 . S
C160 H151 0.930 . S
C160 C158 1.378 . S
C160 C161 1.367 . S
C161 C160 1.367 . S
C161 C163 1.433 . S
C162 C158 1.350 . S
C162 C159 1.463 . S
C162 N166 1.427 . S
C163 H153 0.929 . S
C163 C161 1.433 . S
C163 N166 1.384 . S
C164 H155 0.929 . S
C164 C156 1.378 . S
C164 C159 1.350 . S
C165 H152 0.929 . S
C165 C157 1.433 . S
C165 N167 1.384 . S
N166 C162 1.427 . S
N166 C163 1.384 . S
N167 C159 1.427 . S
N167 C165 1.384 . S
H168 C174 0.930 . S
H169 C178 0.930 . S
H170 C183 0.929 . S
H171 C181 0.929 . S
H172 C176 0.929 . S
H173 C182 0.929 . S
C174 H168 0.930 . S
C174 C175 1.367 . S
C174 C182 1.378 . S
C175 C174 1.367 . S
C175 C183 1.433 . S
C176 H172 0.929 . S
C176 C178 1.378 . S
C176 C180 1.350 . S
C177 C180 1.463 . S
C177 C182 1.350 . S
C177 N185 1.427 . S
C178 H169 0.930 . S
C178 C176 1.378 . S
C178 C179 1.367 . S
C179 C178 1.367 . S
C179 C181 1.433 . S
C180 C176 1.350 . S
C180 C177 1.463 . S
C180 N184 1.427 . S
C181 H171 0.929 . S
C181 C179 1.433 . S
C181 N184 1.384 . S
C182 H173 0.929 . S
C182 C174 1.378 . S
C182 C177 1.350 . S
C183 H170 0.929 . S
C183 C175 1.433 . S
C183 N185 1.384 . S
N184 C180 1.427 . S
N184 C181 1.384 . S
N185 C177 1.427 . S
N185 C183 1.384 . S
H186 C192 0.930 . S
H187 C196 0.930 . S
H188 C201 0.929 . S
H189 C199 0.929 . S
H190 C194 0.929 . S
H191 C200 0.929 . S
C192 H186 0.930 . S
C192 C193 1.367 . S
C192 C200 1.378 . S
C193 C192 1.367 . S
C193 C201 1.433 . S
C194 H190 0.929 . S
C194 C196 1.378 . S
C194 C198 1.350 . S
C195 C198 1.463 . S
C195 C200 1.350 . S
C195 N203 1.427 . S
C196 H187 0.930 . S
C196 C194 1.378 . S
C196 C197 1.367 . S
C197 C196 1.367 . S
C197 C199 1.433 . S
C198 C194 1.350 . S
C198 C195 1.463 . S
C198 N202 1.427 . S
C199 H189 0.929 . S
C199 C197 1.433 . S
C199 N202 1.384 . S
C200 H191 0.929 . S
C200 C192 1.378 . S
C200 C195 1.350 . S
C201 H188 0.929 . S
C201 C193 1.433 . S
C201 N203 1.384 . S
N202 C198 1.427 . S
N202 C199 1.384 . S
N203 C195 1.427 . S
N203 C201 1.384 . S
H204 C210 0.930 . S
H205 C214 0.930 . S
H206 C219 0.929 . S
H207 C217 0.929 . S
H208 C212 0.929 . S
H209 C218 0.929 . S
C210 H204 0.930 . S
C210 C211 1.367 . S
C210 C218 1.378 . S
C211 C210 1.367 . S
C211 C219 1.433 . S
C212 H208 0.929 . S
C212 C214 1.378 . S
C212 C216 1.350 . S
C213 C216 1.463 . S
C213 C218 1.350 . S
C213 N221 1.427 . S
C214 H205 0.930 . S
C214 C212 1.378 . S
C214 C215 1.367 . S
C215 C214 1.367 . S
C215 C217 1.433 . S
C216 C212 1.350 . S
C216 C213 1.463 . S
C216 N220 1.427 . S
C217 H207 0.929 . S
C217 C215 1.433 . S
C217 N220 1.384 . S
C218 H209 0.929 . S
C218 C210 1.378 . S
C218 C213 1.350 . S
C219 H206 0.929 . S
C219 C211 1.433 . S
C219 N221 1.384 . S
N220 C216 1.427 . S
N220 C217 1.384 . S
N221 C213 1.427 . S
N221 C219 1.384 . S
H222 C228 0.930 . S
H223 C232 0.930 . S
H224 C237 0.929 . S
H225 C235 0.929 . S
H226 C230 0.929 . S
H227 C236 0.929 . S
C228 H222 0.930 . S
C228 C229 1.367 . S
C228 C236 1.378 . S
C229 C228 1.367 . S
C229 C237 1.433 . S
C230 H226 0.929 . S
C230 C232 1.378 . S
C230 C234 1.350 . S
C231 C234 1.463 . S
C231 C236 1.350 . S
C231 N239 1.427 . S
C232 H223 0.930 . S
C232 C230 1.378 . S
C232 C233 1.367 . S
C233 C232 1.367 . S
C233 C235 1.433 . S
C234 C230 1.350 . S
C234 C231 1.463 . S
C234 N238 1.427 . S
C235 H225 0.929 . S
C235 C233 1.433 . S
C235 N238 1.384 . S
C236 H227 0.929 . S
C236 C228 1.378 . S
C236 C231 1.350 . S
C237 H224 0.929 . S
C237 C229 1.433 . S
C237 N239 1.384 . S
N238 C234 1.427 . S
N238 C235 1.384 . S
N239 C231 1.427 . S
N239 C237 1.384 . S
H240 C246 0.930 . S
H241 C250 0.930 . S
H242 C255 0.929 . S
H243 C253 0.929 . S
H244 C248 0.929 . S
H245 C254 0.929 . S
C246 H240 0.930 . S
C246 C247 1.367 . S
C246 C254 1.378 . S
C247 C246 1.367 . S
C247 C255 1.433 . S
C248 H244 0.929 . S
C248 C250 1.378 . S
C248 C252 1.350 . S
C249 C252 1.463 1_565 S
C249 C254 1.350 . S
C249 N257 1.427 . S
C250 H241 0.930 . S
C250 C248 1.378 . S
C250 C251 1.367 . S
C251 C250 1.367 . S
C251 C253 1.433 . S
C252 C248 1.350 . S
C252 C249 1.463 1_545 S
C252 N256 1.427 . S
C253 H243 0.929 . S
C253 C251 1.433 . S
C253 N256 1.384 . S
C254 H245 0.929 . S
C254 C246 1.378 . S
C254 C249 1.350 . S
C255 H242 0.929 . S
C255 C247 1.433 . S
C255 N257 1.384 . S
N256 C252 1.427 . S
N256 C253 1.384 . S
N257 C249 1.427 . S
N257 C255 1.384 . S
H258 C264 0.930 . S
H259 C268 0.930 . S
H260 C273 0.929 . S
H261 C271 0.929 . S
H262 C266 0.929 . S
H263 C272 0.929 . S
C264 H258 0.930 . S
C264 C265 1.367 . S
C264 C272 1.378 . S
C265 C264 1.367 . S
C265 C273 1.433 . S
C266 H262 0.929 . S
C266 C268 1.378 . S
C266 C270 1.350 . S
C267 C270 1.463 . S
C267 C272 1.350 . S
C267 N275 1.427 . S
C268 H259 0.930 . S
C268 C266 1.378 . S
C268 C269 1.367 . S
C269 C268 1.367 . S
C269 C271 1.433 . S
C270 C266 1.350 . S
C270 C267 1.463 . S
C270 N274 1.427 . S
C271 H261 0.929 . S
C271 C269 1.433 . S
C271 N274 1.384 . S
C272 H263 0.929 . S
C272 C264 1.378 . S
C272 C267 1.350 . S
C273 H260 0.929 . S
C273 C265 1.433 . S
C273 N275 1.384 . S
N274 C270 1.427 . S
N274 C271 1.384 . S
N275 C267 1.427 . S
N275 C273 1.384 . S
H276 C282 0.930 . S
H277 C286 0.930 . S
H278 C291 0.929 . S
H279 C289 0.929 . S
H280 C284 0.929 . S
H281 C290 0.929 . S
C282 H276 0.930 . S
C282 C283 1.367 . S
C282 C290 1.378 . S
C283 C282 1.367 . S
C283 C291 1.433 . S
C284 H280 0.929 . S
C284 C286 1.378 . S
C284 C288 1.350 . S
C285 C288 1.463 1_655 S
C285 C290 1.350 . S
C285 N293 1.427 . S
C286 H277 0.930 . S
C286 C284 1.378 . S
C286 C287 1.367 . S
C287 C286 1.367 . S
C287 C289 1.433 . S
C288 C284 1.350 . S
C288 C285 1.463 1_455 S
C288 N292 1.427 . S
C289 H279 0.929 . S
C289 C287 1.433 . S
C289 N292 1.384 . S
C290 H281 0.929 . S
C290 C282 1.378 . S
C290 C285 1.350 . S
C291 H278 0.929 . S
C291 C283 1.433 . S
C291 N293 1.384 . S
N292 C288 1.427 . S
N292 C289 1.384 . S
N293 C285 1.427 . S
N293 C291 1.384 . S
H294 C300 0.930 . S
H295 C304 0.930 . S
H296 C309 0.929 . S
H297 C307 0.929 . S
H298 C302 0.929 . S
H299 C308 0.929 . S
C300 H294 0.930 . S
C300 C301 1.367 . S
C300 C308 1.378 . S
C301 C300 1.367 . S
C301 C309 1.433 . S
C302 H298 0.929 . S
C302 C304 1.378 . S
C302 C306 1.350 . S
C303 C306 1.463 1_455 S
C303 C308 1.350 . S
C303 N311 1.427 . S
C304 H295 0.930 . S
C304 C302 1.378 . S
C304 C305 1.367 . S
C305 C304 1.367 . S
C305 C307 1.433 . S
C306 C302 1.350 . S
C306 C303 1.463 1_655 S
C306 N310 1.427 . S
C307 H297 0.929 . S
C307 C305 1.433 . S
C307 N310 1.384 . S
C308 H299 0.929 . S
C308 C300 1.378 . S
C308 C303 1.350 . S
C309 H296 0.929 . S
C309 C301 1.433 . S
C309 N311 1.384 . S
N310 C306 1.427 . S
N310 C307 1.384 . S
N311 C303 1.427 . S
N311 C309 1.384 . S
H312 C318 0.930 . S
H313 C322 0.930 . S
H314 C327 0.929 . S
H315 C325 0.929 . S
H316 C320 0.929 . S
H317 C326 0.929 . S
C318 H312 0.930 . S
C318 C319 1.367 . S
C318 C326 1.378 . S
C319 C318 1.367 . S
C319 C327 1.433 . S
C320 H316 0.929 . S
C320 C322 1.378 . S
C320 C324 1.350 . S
C321 C324 1.463 1_565 S
C321 C326 1.350 . S
C321 N329 1.427 . S
C322 H313 0.930 . S
C322 C320 1.378 . S
C322 C323 1.367 . S
C323 C322 1.367 . S
C323 C325 1.433 . S
C324 C320 1.350 . S
C324 C321 1.463 1_545 S
C324 N328 1.427 . S
C325 H315 0.929 . S
C325 C323 1.433 . S
C325 N328 1.384 . S
C326 H317 0.929 . S
C326 C318 1.378 . S
C326 C321 1.350 . S
C327 H314 0.929 . S
C327 C319 1.433 . S
C327 N329 1.384 . S
N328 C324 1.427 . S
N328 C325 1.384 . S
N329 C321 1.427 . S
N329 C327 1.384 . S
H330 C336 0.930 . S
H331 C340 0.930 . S
H332 C345 0.929 . S
H333 C343 0.929 . S
H334 C338 0.929 . S
H335 C344 0.929 . S
C336 H330 0.930 . S
C336 C337 1.367 . S
C336 C344 1.378 . S
C337 C336 1.367 . S
C337 C345 1.433 . S
C338 H334 0.929 . S
C338 C340 1.378 . S
C338 C342 1.350 . S
C339 C342 1.463 . S
C339 C344 1.350 . S
C339 N347 1.427 . S
C340 H331 0.930 . S
C340 C338 1.378 . S
C340 C341 1.367 . S
C341 C340 1.367 . S
C341 C343 1.433 . S
C342 C338 1.350 . S
C342 C339 1.463 . S
C342 N346 1.427 . S
C343 H333 0.929 . S
C343 C341 1.433 . S
C343 N346 1.384 . S
C344 H335 0.929 . S
C344 C336 1.378 . S
C344 C339 1.350 . S
C345 H332 0.929 . S
C345 C337 1.433 . S
C345 N347 1.384 . S
N346 C342 1.427 . S
N346 C343 1.384 . S
N347 C339 1.427 . S
N347 C345 1.384 . S
H348 C354 0.930 . S
H349 C358 0.930 . S
H350 C363 0.929 . S
H351 C361 0.929 . S
H352 C356 0.929 . S
H353 C362 0.929 . S
C354 H348 0.930 . S
C354 C355 1.367 . S
C354 C362 1.378 . S
C355 C354 1.367 . S
C355 C363 1.433 . S
C356 H352 0.929 . S
C356 C358 1.378 . S
C356 C360 1.350 . S
C357 C360 1.463 1_556 S
C357 C362 1.350 . S
C357 N365 1.427 . S
C358 H349 0.930 . S
C358 C356 1.378 . S
C358 C359 1.367 . S
C359 C358 1.367 . S
C359 C361 1.433 . S
C360 C356 1.350 . S
C360 C357 1.463 1_554 S
C360 N364 1.427 . S
C361 H351 0.929 . S
C361 C359 1.433 . S
C361 N364 1.384 . S
C362 H353 0.929 . S
C362 C354 1.378 . S
C362 C357 1.350 . S
C363 H350 0.929 . S
C363 C355 1.433 . S
C363 N365 1.384 . S
N364 C360 1.427 . S
N364 C361 1.384 . S
N365 C357 1.427 . S
N365 C363 1.384 . S
H366 C372 0.930 . S
H367 C376 0.930 . S
H368 C381 0.929 . S
H369 C379 0.929 . S
H370 C374 0.929 . S
H371 C380 0.929 . S
C372 H366 0.930 . S
C372 C373 1.367 . S
C372 C380 1.378 . S
C373 C372 1.367 . S
C373 C381 1.433 . S
C374 H370 0.929 . S
C374 C376 1.378 . S
C374 C378 1.350 . S
C375 C378 1.463 . S
C375 C380 1.350 . S
C375 N383 1.427 . S
C376 H367 0.930 . S
C376 C374 1.378 . S
C376 C377 1.367 . S
C377 C376 1.367 . S
C377 C379 1.433 . S
C378 C374 1.350 . S
C378 C375 1.463 . S
C378 N382 1.427 . S
C379 H369 0.929 . S
C379 C377 1.433 . S
C379 N382 1.384 . S
C380 H371 0.929 . S
C380 C372 1.378 . S
C380 C375 1.350 . S
C381 H368 0.929 . S
C381 C373 1.433 . S
C381 N383 1.384 . S
N382 C378 1.427 . S
N382 C379 1.384 . S
N383 C375 1.427 . S
N383 C381 1.384 . S
H384 C390 0.930 . S
H385 C394 0.930 . S
H386 C399 0.929 . S
H387 C397 0.929 . S
H388 C392 0.929 . S
H389 C398 0.929 . S
C390 H384 0.930 . S
C390 C391 1.367 . S
C390 C398 1.378 . S
C391 C390 1.367 . S
C391 C399 1.433 . S
C392 H388 0.929 . S
C392 C394 1.378 . S
C392 C396 1.350 . S
C393 C396 1.463 . S
C393 C398 1.350 . S
C393 N401 1.427 . S
C394 H385 0.930 . S
C394 C392 1.378 . S
C394 C395 1.367 . S
C395 C394 1.367 . S
C395 C397 1.433 . S
C396 C392 1.350 . S
C396 C393 1.463 . S
C396 N400 1.427 . S
C397 H387 0.929 . S
C397 C395 1.433 . S
C397 N400 1.384 . S
C398 H389 0.929 . S
C398 C390 1.378 . S
C398 C393 1.350 . S
C399 H386 0.929 . S
C399 C391 1.433 . S
C399 N401 1.384 . S
N400 C396 1.427 . S
N400 C397 1.384 . S
N401 C393 1.427 . S
N401 C399 1.384 . S
H402 C408 0.930 . S
H403 C412 0.930 . S
H404 C417 0.929 . S
H405 C415 0.929 . S
H406 C410 0.929 . S
H407 C416 0.929 . S
C408 H402 0.930 . S
C408 C409 1.367 . S
C408 C416 1.378 . S
C409 C408 1.367 . S
C409 C417 1.433 . S
C410 H406 0.929 . S
C410 C412 1.378 . S
C410 C414 1.350 . S
C411 C414 1.463 1_554 S
C411 C416 1.350 . S
C411 N419 1.427 . S
C412 H403 0.930 . S
C412 C410 1.378 . S
C412 C413 1.367 . S
C413 C412 1.367 . S
C413 C415 1.433 . S
C414 C410 1.350 . S
C414 C411 1.463 1_556 S
C414 N418 1.427 . S
C415 H405 0.929 . S
C415 C413 1.433 . S
C415 N418 1.384 . S
C416 H407 0.929 . S
C416 C408 1.378 . S
C416 C411 1.350 . S
C417 H404 0.929 . S
C417 C409 1.433 . S
C417 N419 1.384 . S
N418 C414 1.427 . S
N418 C415 1.384 . S
N419 C411 1.427 . S
N419 C417 1.384 . S
H420 C426 0.930 . S
H421 C430 0.930 . S
H422 C435 0.929 . S
H423 C433 0.929 . S
H424 C428 0.929 . S
H425 C434 0.929 . S
C426 H420 0.930 . S
C426 C427 1.367 . S
C426 C434 1.378 . S
C427 C426 1.367 . S
C427 C435 1.433 . S
C428 H424 0.929 . S
C428 C430 1.378 . S
C428 C432 1.350 . S
C429 C432 1.463 . S
C429 C434 1.350 . S
C429 N437 1.427 . S
C430 H421 0.930 . S
C430 C428 1.378 . S
C430 C431 1.367 . S
C431 C430 1.367 . S
C431 C433 1.433 . S
C432 C428 1.350 . S
C432 C429 1.463 . S
C432 N436 1.427 . S
C433 H423 0.929 . S
C433 C431 1.433 . S
C433 N436 1.384 . S
C434 H425 0.929 . S
C434 C426 1.378 . S
C434 C429 1.350 . S
C435 H422 0.929 . S
C435 C427 1.433 . S
C435 N437 1.384 . S
N436 C432 1.427 . S
N436 C433 1.384 . S
N437 C429 1.427 . S
N437 C435 1.384 . S
H438 C444 0.930 . S
H439 C448 0.930 . S
H440 C453 0.929 . S
H441 C451 0.929 . S
H442 C446 0.929 . S
H443 C452 0.929 . S
C444 H438 0.930 . S
C444 C445 1.367 . S
C444 C452 1.378 . S
C445 C444 1.367 . S
C445 C453 1.433 . S
C446 H442 0.929 . S
C446 C448 1.378 . S
C446 C450 1.350 . S
C447 C450 1.463 . S
C447 C452 1.350 . S
C447 N455 1.427 . S
C448 H439 0.930 . S
C448 C446 1.378 . S
C448 C449 1.367 . S
C449 C448 1.367 . S
C449 C451 1.433 . S
C450 C446 1.350 . S
C450 C447 1.463 . S
C450 N454 1.427 . S
C451 H441 0.929 . S
C451 C449 1.433 . S
C451 N454 1.384 . S
C452 H443 0.929 . S
C452 C444 1.378 . S
C452 C447 1.350 . S
C453 H440 0.929 . S
C453 C445 1.433 . S
C453 N455 1.384 . S
N454 C450 1.427 . S
N454 C451 1.384 . S
N455 C447 1.427 . S
N455 C453 1.384 . S
C139 C96 1.547 . S
C143 C8 1.553 . S
C157 C19 1.546 . S
C161 C107 1.553 . S
C175 C118 1.549 . S
C179 C30 1.543 . S
C193 C129 1.554 . S
C197 C41 1.547 . S
C211 C74 1.543 . S
C215 C52 1.550 . S
C229 C63 1.544 . S
C233 C85 1.552 . S
C247 C38 1.274 . S
C251 C5 1.258 . S
C265 C49 1.275 . S
C269 C16 1.258 . S
C283 C27 1.286 . S
C287 C60 1.283 . S
C301 C104 1.269 . S
C305 C71 1.256 . S
C319 C82 1.287 . S
C323 C115 1.280 . S
C337 C126 1.282 . S
C341 C93 1.265 . S
C355 C117 1.496 . S
C359 C7 1.501 . S
C373 C128 1.488 . S
C377 C18 1.492 . S
C391 C29 1.501 . S
C395 C73 1.496 . S
C409 C40 1.488 . S
C413 C84 1.487 . S
C427 C51 1.500 . S
C431 C95 1.504 . S
C445 C62 1.489 . S
C449 C106 1.493 . S
