# Generated by pormake.
# Topology yfx, (5)-cn, num edge types: 1
# Building blocks:
#     Node 0, Type 0, BuildingBlock: XOMCOT_clean_sbu_1, # of connection points: 5
#     Node 1, Type 0, BuildingBlock: XOMCOT_clean_sbu_1, # of connection points: 5
#     Node 2, Type 0, BuildingBlock: XOMCOT_clean_sbu_1, # of connection points: 5
#     Node 3, Type 0, BuildingBlock: XOMCOT_clean_sbu_1, # of connection points: 5
#     Node 4, Type 0, BuildingBlock: XOMCOT_clean_sbu_1, # of connection points: 5
#     Node 5, Type 0, BuildingBlock: XOMCOT_clean_sbu_1, # of connection points: 5
#     Node 6, Type 0, BuildingBlock: XOMCOT_clean_sbu_1, # of connection points: 5
#     Node 7, Type 0, BuildingBlock: XOMCOT_clean_sbu_1, # of connection points: 5
#     Edge 8, Type (0, 0), BuildingBlock: TEMPAE_clean_linker_10, # of connection points: 2
#     Edge 9, Type (0, 0), BuildingBlock: TEMPAE_clean_linker_10, # of connection points: 2
#     Edge 10, Type (0, 0), BuildingBlock: TEMPAE_clean_linker_10, # of connection points: 2
#     Edge 11, Type (0, 0), BuildingBlock: TEMPAE_clean_linker_10, # of connection points: 2
#     Edge 12, Type (0, 0), BuildingBlock: TEMPAE_clean_linker_10, # of connection points: 2
#     Edge 13, Type (0, 0), BuildingBlock: TEMPAE_clean_linker_10, # of connection points: 2
#     Edge 14, Type (0, 0), BuildingBlock: TEMPAE_clean_linker_10, # of connection points: 2
#     Edge 15, Type (0, 0), BuildingBlock: TEMPAE_clean_linker_10, # of connection points: 2
#     Edge 16, Type (0, 0), BuildingBlock: TEMPAE_clean_linker_10, # of connection points: 2
#     Edge 17, Type (0, 0), BuildingBlock: TEMPAE_clean_linker_10, # of connection points: 2
#     Edge 18, Type (0, 0), BuildingBlock: TEMPAE_clean_linker_10, # of connection points: 2
#     Edge 19, Type (0, 0), BuildingBlock: TEMPAE_clean_linker_10, # of connection points: 2
#     Edge 20, Type (0, 0), BuildingBlock: TEMPAE_clean_linker_10, # of connection points: 2
#     Edge 21, Type (0, 0), BuildingBlock: TEMPAE_clean_linker_10, # of connection points: 2
#     Edge 22, Type (0, 0), BuildingBlock: TEMPAE_clean_linker_10, # of connection points: 2
#     Edge 23, Type (0, 0), BuildingBlock: TEMPAE_clean_linker_10, # of connection points: 2
#     Edge 24, Type (0, 0), BuildingBlock: TEMPAE_clean_linker_10, # of connection points: 2
#     Edge 25, Type (0, 0), BuildingBlock: TEMPAE_clean_linker_10, # of connection points: 2
#     Edge 26, Type (0, 0), BuildingBlock: TEMPAE_clean_linker_10, # of connection points: 2
#     Edge 27, Type (0, 0), BuildingBlock: TEMPAE_clean_linker_10, # of connection points: 2
# Relax obj value: 0.117
# Max RMSD: 0.118
# Mean RMSD: 0.118
data_MOF--net-yfx--node1-XOMCOT_clean_sbu_1--edge1-TEMPAE_clean_linker_10
_symmetry_space_group_name_H-M    P1
_symmetry_Int_Tables_number       1
_symmetry_cell_setting            triclinic
loop_
_symmetry_equiv_pos_as_xyz
'x, y, z'
_cell_length_a     36.253192
_cell_length_b     36.29656
_cell_length_c     28.28182
_cell_angle_alpha  89.908119
_cell_angle_beta   89.910835
_cell_angle_gamma 90.109713
loop_
_atom_site_label
_atom_site_type_symbol
_atom_site_fract_x
_atom_site_fract_y
_atom_site_fract_z
_atom_type_partial_charge
C0 C 0.28258 0.38857 0.96747 0.0
C1 C 0.31971 0.38103 0.9694 0.0
N2 N 0.32793 0.36959 1.01353 0.0
N3 N 0.26742 0.38177 1.0101 0.0
C4 C 0.29582 0.3709 0.03765 0.0
H5 H 0.26722 0.39674 0.93643 0.0
Co6 Co 0.21715 0.38394 0.0235 0.0
C7 C 0.21914 0.32573 0.10125 0.0
O8 O 0.20232 0.30034 0.07625 0.0
N9 N 0.16601 0.3876 0.03693 0.0
C10 C 0.10737 0.37706 0.05703 0.0
C11 C 0.14173 0.36159 0.05144 0.0
C12 C 0.14523 0.41844 0.03292 0.0
N13 N 0.10969 0.41286 0.04525 0.0
O14 O 0.22611 0.42954 0.05533 0.0
H15 H 0.1478 0.33288 0.0563 0.0
H16 H 0.15575 0.44478 0.02138 0.0
O17 O 0.22518 0.35764 0.08355 0.0
C18 C 0.2279 0.45587 0.02556 0.0
O19 O 0.22 0.44887 0.98111 0.0
N20 N 0.20986 0.34053 0.98727 0.0
C21 C 0.21437 0.29248 0.90982 0.0
C22 C 0.23732 0.28793 0.94936 0.0
C23 C 0.23468 0.31218 0.98753 0.0
C24 C 0.18583 0.34402 0.95044 0.0
C25 C 0.18716 0.31996 0.91188 0.0
H26 H 0.25492 0.30997 1.01536 0.0
H27 H 0.16742 0.36738 0.94884 0.0
H28 H 0.29286 0.36268 0.07421 0.0
H29 H 0.33866 0.38168 0.93979 0.0
H30 H 0.08241 0.36286 0.06769 0.0
H31 H 0.25927 0.26775 0.94948 0.0
H32 H 0.16838 0.32435 0.8827 0.0
C33 C 0.62655 0.2844 0.96462 0.0
C34 C 0.63544 0.32121 0.96605 0.0
N35 N 0.65038 0.32864 1.00862 0.0
N36 N 0.63582 0.26865 1.00604 0.0
C37 C 0.64996 0.29632 0.03233 0.0
H38 H 0.61548 0.26966 0.93461 0.0
Co39 Co 0.63223 0.21846 1.01811 0.0
C40 C 0.68774 0.21415 0.09865 0.0
O41 O 0.71044 0.19194 0.07655 0.0
N42 N 0.62756 0.16695 0.02956 0.0
C43 C 0.63843 0.1067 0.03772 0.0
C44 C 0.6542 0.14094 0.03191 0.0
C45 C 0.59578 0.14734 0.03295 0.0
N46 N 0.60164 0.11087 0.03809 0.0
O47 O 0.58689 0.22782 0.05025 0.0
H48 H 0.68326 0.14582 0.02664 0.0
H49 H 0.56855 0.15912 0.03082 0.0
O50 O 0.65816 0.22495 0.07842 0.0
C51 C 0.56008 0.22996 0.02135 0.0
O52 O 0.56589 0.22099 0.97694 0.0
N53 N 0.67521 0.2114 0.98191 0.0
C54 C 0.72362 0.21906 0.90583 0.0
C55 C 0.73164 0.23551 0.94937 0.0
C56 C 0.70672 0.23182 0.98694 0.0
C57 C 0.66816 0.19364 0.94042 0.0
C58 C 0.69204 0.1971 0.90186 0.0
H59 H 0.71112 0.24825 1.01822 0.0
H60 H 0.64217 0.17942 0.93578 0.0
H61 H 0.66082 0.29274 0.06761 0.0
H62 H 0.633 0.34048 0.93699 0.0
H63 H 0.65278 0.08058 0.03892 0.0
H64 H 0.75533 0.25352 0.95307 0.0
H65 H 0.6847 0.18469 0.86835 0.0
C66 C 0.736 0.62673 0.96084 0.0
C67 C 0.6994 0.63661 0.96074 0.0
N68 N 0.69236 0.65582 1.00051 0.0
N69 N 0.75201 0.63948 1.00051 0.0
C70 C 0.72476 0.65712 0.02391 0.0
H71 H 0.75033 0.61212 0.93308 0.0
Co72 Co 0.8019 0.63472 1.01431 0.0
C73 C 0.81048 0.68208 0.10169 0.0
O74 O 0.84133 0.69735 0.08732 0.0
N75 N 0.85341 0.62899 0.02703 0.0
C76 C 0.91445 0.63775 0.02968 0.0
C77 C 0.88082 0.65415 0.02213 0.0
C78 C 0.87166 0.59731 0.03705 0.0
N79 N 0.9086 0.60189 0.03865 0.0
O80 O 0.79102 0.58854 0.04348 0.0
H81 H 0.8771 0.68261 1.01194 0.0
H82 H 0.85858 0.5709 0.04213 0.0
O83 O 0.79398 0.65868 0.07547 0.0
C84 C 0.79086 0.56197 1.01413 0.0
O85 O 0.8026 0.56819 0.97084 0.0
N86 N 0.81035 0.67861 0.98131 0.0
C87 C 0.80579 0.73164 0.90987 0.0
C88 C 0.79243 0.73906 0.95562 0.0
C89 C 0.79472 0.71198 0.99091 0.0
C90 C 0.82515 0.6717 0.93796 0.0
C91 C 0.8235 0.69786 0.90195 0.0
H92 H 0.78119 0.71682 0.02435 0.0
H93 H 0.83582 0.64454 0.93026 0.0
H94 H 0.72868 0.67143 0.05689 0.0
H95 H 0.67994 0.63134 0.93256 0.0
H96 H 0.94122 0.65076 0.02628 0.0
H97 H 0.77849 0.76471 0.96337 0.0
H98 H 0.8334 0.69033 0.86714 0.0
C99 C 0.38627 0.73262 0.9562 0.0
C100 C 0.3772 0.69594 0.96008 0.0
N101 N 0.36366 0.68982 1.00386 0.0
N102 N 0.37848 0.74964 0.99727 0.0
C103 C 0.36504 0.72283 0.02576 0.0
H104 H 0.39656 0.74638 0.92489 0.0
Co105 Co 0.38291 0.80009 1.00709 0.0
C106 C 0.32952 0.80849 0.08875 0.0
O107 O 0.3089 0.83286 0.06704 0.0
N108 N 0.38819 0.85194 1.01662 0.0
C109 C 0.3779 0.91254 0.02148 0.0
C110 C 0.36206 0.87852 1.01443 0.0
C111 C 0.41985 0.87104 0.02414 0.0
N112 N 0.4143 0.9077 0.0273 0.0
O113 O 0.42885 0.79099 0.03775 0.0
H114 H 0.33337 0.87404 1.00603 0.0
H115 H 0.44683 0.85877 0.02685 0.0
O116 O 0.35781 0.7951 0.06809 0.0
C117 C 0.45455 0.78917 1.00707 0.0
O118 O 0.44677 0.79779 0.96303 0.0
N119 N 0.33949 0.80675 0.97198 0.0
C120 C 0.28911 0.79871 0.89767 0.0
C121 C 0.28131 0.78448 0.94295 0.0
C122 C 0.3072 0.78812 0.97937 0.0
C123 C 0.34659 0.82252 0.92919 0.0
C124 C 0.32185 0.819 0.89174 0.0
H125 H 0.30255 0.77328 1.01196 0.0
H126 H 0.37314 0.83527 0.92286 0.0
H127 H 0.35558 0.72746 0.06151 0.0
H128 H 0.37871 0.6758 0.93197 0.0
H129 H 0.36404 0.93891 0.02019 0.0
H130 H 0.25642 0.76878 0.9496 0.0
H131 H 0.32992 0.8297 0.8575 0.0
C132 C 0.77955 0.88374 0.45797 0.0
C133 C 0.81665 0.87596 0.45908 0.0
N134 N 0.82568 0.86591 0.50351 0.0
N135 N 0.76522 0.87843 0.50141 0.0
C136 C 0.79409 0.8683 0.52858 0.0
H137 H 0.7636 0.89095 0.42703 0.0
Co138 Co 0.71528 0.88114 0.51648 0.0
C139 C 0.71842 0.82469 0.59611 0.0
O140 O 0.70086 0.79896 0.57255 0.0
N141 N 0.6645 0.8853 0.53164 0.0
C142 C 0.60629 0.87533 0.55411 0.0
C143 C 0.64028 0.85947 0.54684 0.0
C144 C 0.64405 0.91642 0.52884 0.0
N145 N 0.6088 0.91117 0.54265 0.0
O146 O 0.72513 0.92732 0.54623 0.0
H147 H 0.64612 0.83064 0.55104 0.0
H148 H 0.65458 0.94273 0.5172 0.0
O149 O 0.72442 0.85615 0.57714 0.0
C150 C 0.72668 0.95286 0.51532 0.0
O151 O 0.71774 0.94487 0.47147 0.0
N152 N 0.70707 0.83701 0.48214 0.0
C153 C 0.71101 0.78834 0.40537 0.0
C154 C 0.7343 0.78416 0.44465 0.0
C155 C 0.73189 0.80867 0.48254 0.0
C156 C 0.68252 0.83998 0.44581 0.0
C157 C 0.68354 0.81556 0.40762 0.0
H158 H 0.75249 0.80686 0.50998 0.0
H159 H 0.66404 0.86328 0.44414 0.0
H160 H 0.79181 0.86132 0.56564 0.0
H161 H 0.83498 0.87545 0.42884 0.0
H162 H 0.58143 0.86141 0.56571 0.0
H163 H 0.75643 0.76418 0.44466 0.0
H164 H 0.66441 0.81961 0.37873 0.0
C165 C 0.11485 0.78656 0.46515 0.0
C166 C 0.12425 0.82319 0.46752 0.0
N167 N 0.14931 0.8277 0.50232 0.0
N168 N 0.13352 0.76786 0.4985 0.0
C169 C 0.15421 0.79361 0.5206 0.0
H170 H 0.09589 0.77428 0.44027 0.0
Co171 Co 0.13018 0.71726 0.5083 0.0
C172 C 0.18332 0.70766 0.58966 0.0
O173 O 0.20219 0.68132 0.56916 0.0
N174 N 0.12594 0.66516 0.51766 0.0
C175 C 0.13634 0.60444 0.51692 0.0
C176 C 0.15176 0.63878 0.51064 0.0
C177 C 0.095 0.64562 0.52807 0.0
N178 N 0.10049 0.60886 0.52749 0.0
O179 O 0.0849 0.72566 0.54096 0.0
H180 H 0.17987 0.64373 0.49957 0.0
H181 H 0.06846 0.65766 0.53535 0.0
O182 O 0.1561 0.72249 0.56838 0.0
C183 C 0.05726 0.72541 0.51322 0.0
O184 O 0.06207 0.71401 0.46955 0.0
N185 N 0.17293 0.71141 0.47159 0.0
C186 C 0.22335 0.7183 0.397 0.0
C187 C 0.23248 0.7302 0.44286 0.0
C188 C 0.20665 0.72705 0.47956 0.0
C189 C 0.16428 0.69814 0.42798 0.0
C190 C 0.18902 0.70109 0.39037 0.0
H191 H 0.21295 0.73965 0.5131 0.0
H192 H 0.13685 0.68749 0.42157 0.0
H193 H 0.17342 0.78721 0.54856 0.0
H194 H 0.1134 0.84461 0.4449 0.0
H195 H 0.14997 0.57825 0.51169 0.0
H196 H 0.25863 0.74355 0.4499 0.0
H197 H 0.18006 0.6923 0.35567 0.0
C198 C 0.23473 0.1203 0.4709 0.0
C199 C 0.19804 0.12989 0.47098 0.0
N200 N 0.1917 0.15189 0.50851 0.0
N201 N 0.25147 0.13604 0.50822 0.0
C202 C 0.22461 0.15512 0.5304 0.0
H203 H 0.24855 0.10364 0.44466 0.0
Co204 Co 0.30148 0.13231 0.52121 0.0
C205 C 0.3111 0.18057 0.60754 0.0
O206 O 0.34268 0.19428 0.59318 0.0
N207 N 0.35327 0.12757 0.53315 0.0
C208 C 0.41433 0.13667 0.53241 0.0
C209 C 0.38041 0.15261 0.52529 0.0
C210 C 0.37198 0.09653 0.54483 0.0
N211 N 0.4089 0.10124 0.54421 0.0
O212 O 0.29142 0.08654 0.55194 0.0
H213 H 0.37626 0.18061 0.51345 0.0
H214 H 0.35927 0.07034 0.55258 0.0
O215 O 0.29383 0.15744 0.58172 0.0
C216 C 0.29285 0.05891 0.5243 0.0
O217 O 0.30592 0.06357 0.48132 0.0
N218 N 0.30895 0.17566 0.48666 0.0
C219 C 0.30395 0.22803 0.41443 0.0
C220 C 0.29162 0.23616 0.46045 0.0
C221 C 0.29414 0.20942 0.49617 0.0
C222 C 0.32252 0.16794 0.44289 0.0
C223 C 0.32066 0.19375 0.40647 0.0
H224 H 0.28161 0.21497 0.53005 0.0
H225 H 0.3326 0.14052 0.43539 0.0
H226 H 0.22916 0.1717 0.56144 0.0
H227 H 0.17802 0.12235 0.44435 0.0
H228 H 0.44093 0.14954 0.52664 0.0
H229 H 0.27844 0.26221 0.46821 0.0
H230 H 0.32974 0.1857 0.37149 0.0
C231 C 0.88401 0.23525 0.4562 0.0
C232 C 0.87446 0.19855 0.45627 0.0
N233 N 0.86154 0.18981 0.49958 0.0
N234 N 0.87721 0.24956 0.49925 0.0
C235 C 0.86381 0.22114 0.525 0.0
H236 H 0.89394 0.25091 0.4262 0.0
Co237 Co 0.88236 0.29907 0.51467 0.0
C238 C 0.86662 0.29925 0.61624 0.0
O239 O 0.89745 0.31768 0.62252 0.0
N240 N 0.8878 0.34923 0.52928 0.0
C241 C 0.87811 0.40628 0.55511 0.0
C242 C 0.86275 0.37181 0.5494 0.0
C243 C 0.91775 0.37078 0.52209 0.0
N244 N 0.91273 0.40551 0.5378 0.0
O245 O 0.92862 0.28786 0.54342 0.0
H246 H 0.83517 0.36362 0.55968 0.0
H247 H 0.94313 0.36118 0.50639 0.0
O248 O 0.85647 0.29068 0.57442 0.0
C249 C 0.95424 0.28685 0.51262 0.0
O250 O 0.94625 0.29604 0.46884 0.0
N251 N 0.83881 0.30885 0.48209 0.0
C252 C 0.7864 0.30411 0.41007 0.0
C253 C 0.77871 0.29037 0.45566 0.0
C254 C 0.80548 0.2928 0.49128 0.0
C255 C 0.84558 0.32503 0.43954 0.0
C256 C 0.81983 0.32304 0.40308 0.0
H257 H 0.80061 0.27899 0.5246 0.0
H258 H 0.87261 0.33645 0.43238 0.0
H259 H 0.85519 0.22334 0.56142 0.0
H260 H 0.87519 0.18024 0.42612 0.0
H261 H 0.86476 0.43011 0.57041 0.0
H262 H 0.75317 0.27596 0.46303 0.0
H263 H 0.82759 0.33354 0.36863 0.0
C264 C 0.49333 0.23884 1.00649 0.0
C265 C 0.52416 0.24586 0.03489 0.0
C266 C 0.46067 0.25885 1.01215 0.0
C267 C 0.45886 0.2868 0.04693 0.0
C268 C 0.48898 0.29222 0.07803 0.0
C269 C 0.52141 0.27154 0.0717 0.0
C270 C 0.42901 0.25173 0.97867 0.0
C271 C 0.48793 0.32146 0.11585 0.0
C272 C 0.39538 0.36315 1.00699 0.0
C273 C 0.36207 0.35299 0.02859 0.0
C274 C 0.42788 0.34337 1.01548 0.0
C275 C 0.42708 0.31266 0.04645 0.0
C276 C 0.39424 0.30401 0.07122 0.0
C277 C 0.36206 0.32421 0.06188 0.0
C278 C 0.46245 0.35382 0.98874 0.0
C279 C 0.39229 0.2718 0.10497 0.0
H280 H 0.49524 0.21867 0.97836 0.0
H281 H 0.54526 0.27708 0.09366 0.0
H282 H 0.40291 0.2481 0.99867 0.0
H283 H 0.42545 0.27581 0.9549 0.0
H284 H 0.43358 0.22688 0.95655 0.0
H285 H 0.51046 0.3179 0.14203 0.0
H286 H 0.49098 0.349 0.0992 0.0
H287 H 0.46107 0.32108 0.13471 0.0
H288 H 0.39572 0.38585 0.98209 0.0
H289 H 0.33648 0.31598 0.07869 0.0
H290 H 0.46867 0.33232 0.96204 0.0
H291 H 0.48635 0.3554 1.0131 0.0
H292 H 0.45964 0.38068 0.97021 0.0
H293 H 0.3907 0.24581 0.08447 0.0
H294 H 0.36766 0.27336 0.12833 0.0
H295 H 0.41738 0.27042 0.1273 0.0
C296 C 0.65675 0.39606 1.00264 0.0
C297 C 0.6681 0.36255 0.02245 0.0
C298 C 0.6769 0.42852 1.01004 0.0
C299 C 0.70918 0.42751 0.03815 0.0
C300 C 0.71931 0.39437 0.0611 0.0
C301 C 0.69872 0.36221 0.05283 0.0
C302 C 0.66492 0.46339 0.98525 0.0
C303 C 0.75324 0.39221 0.09184 0.0
C304 C 0.78073 0.49583 0.99578 0.0
C305 C 0.77472 0.52572 0.0261 0.0
C306 C 0.76105 0.46287 1.00122 0.0
C307 C 0.73459 0.45972 0.03786 0.0
C308 C 0.73014 0.48889 0.07058 0.0
C309 C 0.75035 0.52167 0.06432 0.0
C310 C 0.76699 0.43228 0.96584 0.0
C311 C 0.70253 0.48635 0.11043 0.0
H312 H 0.63265 0.39667 0.98008 0.0
H313 H 0.70786 0.33647 0.06821 0.0
H314 H 0.66409 0.48672 1.01049 0.0
H315 H 0.68522 0.47052 0.95726 0.0
H316 H 0.63732 0.4605 0.96861 0.0
H317 H 0.75327 0.36699 0.11417 0.0
H318 H 0.77818 0.39176 0.06906 0.0
H319 H 0.75536 0.4167 0.11511 0.0
H320 H 0.7999 0.49863 0.96653 0.0
H321 H 0.74562 0.54471 0.0879 0.0
H322 H 0.74183 0.42886 0.94396 0.0
H323 H 0.77192 0.40579 0.98435 0.0
H324 H 0.79069 0.43789 0.94192 0.0
H325 H 0.67422 0.48866 0.0959 0.0
H326 H 0.70652 0.50858 0.1369 0.0
H327 H 0.70451 0.45929 0.12853 0.0
C328 C 0.62468 0.66114 0.99475 0.0
C329 C 0.65829 0.67395 1.01293 0.0
C330 C 0.59182 0.68059 1.00217 0.0
C331 C 0.59244 0.71361 0.02876 0.0
C332 C 0.62578 0.72549 0.0498 0.0
C333 C 0.65836 0.70563 0.04144 0.0
C334 C 0.55678 0.66682 0.97932 0.0
C335 C 0.62755 0.76029 0.07885 0.0
C336 C 0.52064 0.78136 0.9867 0.0
C337 C 0.49164 0.77498 1.01851 0.0
C338 C 0.55441 0.76314 0.99145 0.0
C339 C 0.55934 0.73777 0.02895 0.0
C340 C 0.53108 0.73308 0.06313 0.0
C341 C 0.49743 0.75184 0.05753 0.0
C342 C 0.58394 0.76931 0.95448 0.0
C343 C 0.53554 0.70663 0.10392 0.0
H344 H 0.62417 0.63622 0.97376 0.0
H345 H 0.68409 0.71596 0.05561 0.0
H346 H 0.5341 0.66558 1.00564 0.0
H347 H 0.54823 0.68627 0.95109 0.0
H348 H 0.56021 0.63907 0.96339 0.0
H349 H 0.65342 0.76201 0.09977 0.0
H350 H 0.62633 0.78455 0.055 0.0
H351 H 0.60368 0.76202 0.10334 0.0
H352 H 0.51647 0.79962 0.95681 0.0
H353 H 0.47505 0.74683 0.08221 0.0
H354 H 0.58765 0.74381 0.93342 0.0
H355 H 0.61074 0.77562 0.97155 0.0
H356 H 0.57697 0.79219 0.92995 0.0
H357 H 0.53385 0.67793 0.09064 0.0
H358 H 0.51381 0.71046 0.13121 0.0
H359 H 0.56297 0.71007 0.12069 0.0
C360 C 0.26807 0.49721 0.07452 0.0
C361 C 0.24238 0.49264 0.03799 0.0
C362 C 0.2878 0.53047 0.07921 0.0
C363 C 0.28145 0.55951 0.04667 0.0
C364 C 0.25329 0.5559 1.01236 0.0
C365 C 0.23419 0.52252 1.00843 0.0
C366 C 0.31716 0.53348 0.11674 0.0
C367 C 0.24522 0.58628 0.97729 0.0
C368 C 0.31806 0.65729 0.05426 0.0
C369 C 0.34679 0.65625 0.02086 0.0
C370 C 0.29816 0.62529 0.0661 0.0
C371 C 0.30697 0.59161 0.04364 0.0
C372 C 0.33753 0.58995 1.01246 0.0
C373 C 0.35709 0.62223 1.00161 0.0
C374 C 0.26623 0.62815 0.10019 0.0
C375 C 0.34812 0.55453 0.98801 0.0
H376 H 0.27449 0.47412 0.09743 0.0
H377 H 0.21396 0.51921 0.98055 0.0
H378 H 0.3447 0.52998 0.10021 0.0
H379 H 0.31664 0.56105 0.1336 0.0
H380 H 0.3138 0.51206 0.14454 0.0
H381 H 0.22018 0.58048 0.95593 0.0
H382 H 0.24134 0.61289 0.99584 0.0
H383 H 0.26899 0.58956 0.95286 0.0
H384 H 0.30975 0.68336 0.0694 0.0
H385 H 0.37984 0.62103 0.9768 0.0
H386 H 0.26542 0.60406 0.12436 0.0
H387 H 0.23998 0.62842 0.08008 0.0
H388 H 0.26769 0.65373 0.12165 0.0
H389 H 0.35049 0.53179 1.01406 0.0
H390 H 0.37466 0.55703 0.96855 0.0
H391 H 0.32627 0.54676 0.96243 0.0
C392 C 0.99017 0.73346 0.5 0.0
C393 C 0.02154 0.74168 0.52684 0.0
C394 C 0.95765 0.75377 0.50523 0.0
C395 C 0.95653 0.78318 0.538 0.0
C396 C 0.98721 0.78986 0.56776 0.0
C397 C 0.01949 0.7689 0.56187 0.0
C398 C 0.92537 0.74533 0.47325 0.0
C399 C 0.98689 0.82068 0.60349 0.0
C400 C 0.89288 0.85837 0.49497 0.0
C401 C 0.85995 0.84946 0.51834 0.0
C402 C 0.92534 0.83858 0.50361 0.0
C403 C 0.92489 0.80915 0.53658 0.0
C404 C 0.8925 0.80182 0.56295 0.0
C405 C 0.86034 0.82197 0.55339 0.0
C406 C 0.95945 0.84759 0.47509 0.0
C407 C 0.89096 0.77103 0.59886 0.0
H408 H 0.99154 0.71211 0.47327 0.0
H409 H 0.04375 0.77538 0.58265 0.0
H410 H 0.89961 0.74274 0.4942 0.0
H411 H 0.92151 0.76834 0.44785 0.0
H412 H 0.92945 0.71951 0.45287 0.0
H413 H 0.00987 0.81815 0.62923 0.0
H414 H 0.98974 0.84745 0.58485 0.0
H415 H 0.96037 0.8212 0.6231 0.0
H416 H 0.89293 0.88009 0.46866 0.0
H417 H 0.83505 0.81468 0.57157 0.0
H418 H 0.96508 0.82488 0.44987 0.0
H419 H 0.9838 0.85012 0.49857 0.0
H420 H 0.95643 0.87359 0.45469 0.0
H421 H 0.88892 0.74425 0.58018 0.0
H422 H 0.86674 0.77367 0.62275 0.0
H423 H 0.91642 0.77043 0.62056 0.0
C424 C 0.29049 0.99086 0.51714 0.0
C425 C 0.27644 0.02314 0.53725 0.0
C426 C 0.27093 0.9576 0.52012 0.0
C427 C 0.23606 0.95693 0.54273 0.0
C428 C 0.22303 0.98889 0.56609 0.0
C429 C 0.24364 0.02168 0.56342 0.0
C430 C 0.28628 0.92395 0.49574 0.0
C431 C 0.18587 0.98945 0.59017 0.0
C432 C 0.16879 0.89158 0.48399 0.0
C433 C 0.16892 0.86114 0.51471 0.0
C434 C 0.18932 0.92337 0.49391 0.0
C435 C 0.21119 0.92481 0.53527 0.0
C436 C 0.21089 0.89477 0.56718 0.0
C437 C 0.18955 0.86344 0.55673 0.0
C438 C 0.18852 0.95503 0.45912 0.0
C439 C 0.23401 0.89522 0.61154 0.0
H440 H 0.31606 0.99199 0.49722 0.0
H441 H 0.23263 0.04676 0.57866 0.0
H442 H 0.28334 0.89926 0.51862 0.0
H443 H 0.27051 0.9187 0.46282 0.0
H444 H 0.31584 0.92742 0.48627 0.0
H445 H 0.18257 0.01399 0.61322 0.0
H446 H 0.16387 0.99003 0.56294 0.0
H447 H 0.18168 0.96425 0.61177 0.0
H448 H 0.15345 0.89047 0.4513 0.0
H449 H 0.18948 0.84069 0.58146 0.0
H450 H 0.2161 0.95834 0.44257 0.0
H451 H 0.18199 0.98115 0.47764 0.0
H452 H 0.1679 0.95078 0.43061 0.0
H453 H 0.26368 0.89545 0.60187 0.0
H454 H 0.22861 0.87091 0.63447 0.0
H455 H 0.22859 0.92061 0.63217 0.0
C456 C 0.15803 0.20346 0.54618 0.0
C457 C 0.15771 0.17046 0.52025 0.0
C458 C 0.12548 0.22347 0.55393 0.0
C459 C 0.09189 0.21045 0.53477 0.0
C460 C 0.09102 0.17625 0.5108 0.0
C461 C 0.12387 0.15662 0.50406 0.0
C462 C 0.12749 0.25957 0.58026 0.0
C463 C 0.05571 0.1613 0.48993 0.0
C464 C 0.99751 0.25027 0.56353 0.0
C465 C 0.99124 0.27203 0.52334 0.0
C466 C 0.03109 0.23139 0.56928 0.0
C467 C 0.05872 0.23447 0.53399 0.0
C468 C 0.05326 0.25829 0.49498 0.0
C469 C 0.01965 0.27676 0.4902 0.0
C470 C 0.03618 0.20668 0.61171 0.0
C471 C 0.08211 0.26264 0.45672 0.0
H472 H 0.18389 0.21463 0.55881 0.0
H473 H 0.12312 0.13073 0.48515 0.0
H474 H 0.12561 0.28269 0.55468 0.0
H475 H 0.10407 0.26223 0.60531 0.0
H476 H 0.15372 0.26243 0.60021 0.0
H477 H 0.05903 0.13288 0.47606 0.0
H478 H 0.03344 0.16119 0.51686 0.0
H479 H 0.04663 0.17939 0.46051 0.0
H480 H 0.97565 0.24658 0.58931 0.0
H481 H 0.01515 0.29396 0.45937 0.0
H482 H 0.0638 0.21096 0.62764 0.0
H483 H 0.03452 0.17746 0.60045 0.0
H484 H 0.01478 0.21151 0.63915 0.0
H485 H 0.10916 0.2699 0.47246 0.0
H486 H 0.07463 0.2842 0.43052 0.0
H487 H 0.08559 0.23613 0.43775 0.0
C488 C 0.85569 0.12242 0.49292 0.0
C489 C 0.84431 0.15563 0.51338 0.0
C490 C 0.83652 0.0895 0.50158 0.0
C491 C 0.80498 0.08984 0.5312 0.0
C492 C 0.7944 0.12292 0.55388 0.0
C493 C 0.81433 0.15542 0.5449 0.0
C494 C 0.84882 0.05477 0.47684 0.0
C495 C 0.761 0.12428 0.58577 0.0
C496 C 0.73429 0.01882 0.49471 0.0
C497 C 0.74176 0.98974 0.52587 0.0
C498 C 0.75329 0.0523 0.49791 0.0
C499 C 0.78063 0.05683 0.5331 0.0
C500 C 0.78664 0.02846 0.56669 0.0
C501 C 0.76699 0.99512 0.56274 0.0
C502 C 0.7456 0.08201 0.46175 0.0
C503 C 0.81537 0.0324 0.60488 0.0
H504 H 0.87921 0.12237 0.46924 0.0
H505 H 0.80527 0.18102 0.5607 0.0
H506 H 0.851 0.03172 0.50247 0.0
H507 H 0.82799 0.0468 0.45001 0.0
H508 H 0.87586 0.05828 0.45883 0.0
H509 H 0.75585 0.15236 0.59977 0.0
H510 H 0.73611 0.1151 0.56624 0.0
H511 H 0.76476 0.10512 0.61596 0.0
H512 H 0.71447 0.0149 0.46647 0.0
H513 H 0.77293 0.97262 0.5868 0.0
H514 H 0.77003 0.08559 0.43848 0.0
H515 H 0.74055 0.10876 0.47952 0.0
H516 H 0.72139 0.07536 0.43928 0.0
H517 H 0.84326 0.03078 0.58882 0.0
H518 H 0.81292 0.01044 0.63213 0.0
H519 H 0.8131 0.05963 0.62237 0.0
C520 C 0.32017 0.25576 0.33546 0.0
C521 C 0.29533 0.25248 0.37342 0.0
C522 C 0.30959 0.27238 0.29267 0.0
C523 C 0.27337 0.28642 0.28779 0.0
C524 C 0.24915 0.28578 0.32713 0.0
C525 C 0.26034 0.2687 0.36937 0.0
C526 C 0.33633 0.27252 0.25168 0.0
C527 C 0.21043 0.30075 0.32361 0.0
C528 C 0.24932 0.34308 0.17827 0.0
C529 C 0.23273 0.31638 0.14933 0.0
C530 C 0.26254 0.33394 0.2236 0.0
C531 C 0.25935 0.29722 0.24017 0.0
C532 C 0.24271 0.27022 0.21103 0.0
C533 C 0.22954 0.28013 0.1662 0.0
C534 C 0.27989 0.36352 0.25374 0.0
C535 C 0.23898 0.23065 0.2271 0.0
H536 H 0.34749 0.24392 0.3385 0.0
H537 H 0.24074 0.26609 0.39816 0.0
H538 H 0.32688 0.25262 0.2245 0.0
H539 H 0.33732 0.30009 0.23474 0.0
H540 H 0.36468 0.26477 0.26273 0.0
H541 H 0.19698 0.30302 0.35881 0.0
H542 H 0.21053 0.3283 0.30655 0.0
H543 H 0.19352 0.28219 0.30123 0.0
H544 H 0.25196 0.37115 0.16557 0.0
H545 H 0.21693 0.25921 0.14417 0.0
H546 H 0.30875 0.35597 0.26233 0.0
H547 H 0.26476 0.36589 0.28773 0.0
H548 H 0.27992 0.39084 0.23597 0.0
H549 H 0.2666 0.21912 0.23512 0.0
H550 H 0.22557 0.21296 0.20009 0.0
H551 H 0.22245 0.22928 0.2601 0.0
C552 C 0.67192 0.24676 0.17445 0.0
C553 C 0.69797 0.2288 0.14588 0.0
C554 C 0.68164 0.2606 0.21924 0.0
C555 C 0.71841 0.25695 0.23546 0.0
C556 C 0.74485 0.23921 0.20648 0.0
C557 C 0.73425 0.22513 0.16234 0.0
C558 C 0.65253 0.27881 0.24936 0.0
C559 C 0.7845 0.23522 0.22201 0.0
C560 C 0.75972 0.31895 0.32991 0.0
C561 C 0.7627 0.29466 0.36849 0.0
C562 C 0.74376 0.30766 0.28701 0.0
C563 C 0.72968 0.2714 0.28272 0.0
C564 C 0.73001 0.24771 0.32254 0.0
C565 C 0.74676 0.25946 0.36472 0.0
C566 C 0.74417 0.33378 0.24539 0.0
C567 C 0.71473 0.20905 0.31978 0.0
H568 H 0.6438 0.24967 0.16204 0.0
H569 H 0.75467 0.21159 0.14042 0.0
H570 H 0.64982 0.26393 0.2835 0.0
H571 H 0.66084 0.3075 0.25764 0.0
H572 H 0.62516 0.27934 0.23176 0.0
H573 H 0.80186 0.22151 0.19485 0.0
H574 H 0.79645 0.26274 0.22965 0.0
H575 H 0.78587 0.21886 0.25512 0.0
H576 H 0.77116 0.34646 0.33258 0.0
H577 H 0.74913 0.24016 0.3938 0.0
H578 H 0.71653 0.33515 0.22875 0.0
H579 H 0.76368 0.32346 0.2182 0.0
H580 H 0.75273 0.36206 0.25562 0.0
H581 H 0.68712 0.20911 0.30292 0.0
H582 H 0.7124 0.19597 0.35521 0.0
H583 H 0.73312 0.19184 0.29755 0.0
C584 C 0.81348 0.71673 0.17811 0.0
C585 C 0.79374 0.69378 0.14727 0.0
C586 C 0.79778 0.7292 0.22057 0.0
C587 C 0.76113 0.71906 0.23227 0.0
C588 C 0.74114 0.69558 0.20163 0.0
C589 C 0.75787 0.6828 0.15986 0.0
C590 C 0.82031 0.75369 0.25264 0.0
C591 C 0.7018 0.68468 0.21235 0.0
C592 C 0.73371 0.73232 0.36111 0.0
C593 C 0.71873 0.76802 0.36039 0.0
C594 C 0.74649 0.71544 0.31947 0.0
C595 C 0.74357 0.7343 0.27578 0.0
C596 C 0.72642 0.76927 0.2743 0.0
C597 C 0.71463 0.78583 0.31651 0.0
C598 C 0.76481 0.6782 0.32263 0.0
C599 C 0.72214 0.79007 0.22833 0.0
H600 H 0.84133 0.72509 0.16907 0.0
H601 H 0.74252 0.66465 0.13679 0.0
H602 H 0.80719 0.7812 0.25529 0.0
H603 H 0.8212 0.74186 0.28882 0.0
H604 H 0.84904 0.75739 0.23975 0.0
H605 H 0.69035 0.66549 0.18553 0.0
H606 H 0.70007 0.67139 0.24762 0.0
H607 H 0.6842 0.70965 0.21353 0.0
H608 H 0.7364 0.71787 0.39446 0.0
H609 H 0.70379 0.81359 0.3151 0.0
H610 H 0.79451 0.681 0.31373 0.0
H611 H 0.75252 0.65892 0.29664 0.0
H612 H 0.7624 0.6659 0.35849 0.0
H613 H 0.74966 0.79889 0.2153 0.0
H614 H 0.70457 0.81492 0.23232 0.0
H615 H 0.70984 0.77203 0.2009 0.0
C616 C 0.34224 0.77359 0.16378 0.0
C617 C 0.31783 0.79394 0.13551 0.0
C618 C 0.33107 0.75949 0.20794 0.0
C619 C 0.29445 0.76531 0.22376 0.0
C620 C 0.26965 0.7855 0.19508 0.0
C621 C 0.28172 0.79982 0.15161 0.0
C622 C 0.35849 0.73865 0.23782 0.0
C623 C 0.23017 0.79182 0.2102 0.0
C624 C 0.24846 0.7041 0.31582 0.0
C625 C 0.24699 0.72761 0.35524 0.0
C626 C 0.26527 0.71533 0.27334 0.0
C627 C 0.28171 0.75067 0.27034 0.0
C628 C 0.28265 0.77348 0.31089 0.0
C629 C 0.26503 0.76186 0.35262 0.0
C630 C 0.26347 0.69021 0.23087 0.0
C631 C 0.30045 0.81111 0.30946 0.0
H632 H 0.37021 0.76896 0.1516 0.0
H633 H 0.26255 0.81519 0.12984 0.0
H634 H 0.36171 0.75245 0.27256 0.0
H635 H 0.34821 0.71037 0.24486 0.0
H636 H 0.38601 0.73675 0.22065 0.0
H637 H 0.21411 0.80727 0.18328 0.0
H638 H 0.21631 0.76501 0.21675 0.0
H639 H 0.22951 0.80749 0.24383 0.0
H640 H 0.23537 0.67728 0.31762 0.0
H641 H 0.26383 0.78058 0.38237 0.0
H642 H 0.29112 0.68723 0.21453 0.0
H643 H 0.24507 0.70248 0.20378 0.0
H644 H 0.25281 0.66239 0.24005 0.0
H645 H 0.32821 0.80955 0.29302 0.0
H646 H 0.30318 0.82334 0.34528 0.0
H647 H 0.28353 0.8299 0.28743 0.0
C648 C 0.73086 0.78006 0.6615 0.0
C649 C 0.7328 0.81622 0.64405 0.0
C650 C 0.74456 0.77101 0.70636 0.0
C651 C 0.76039 0.79884 0.73496 0.0
C652 C 0.76242 0.83546 0.71774 0.0
C653 C 0.74875 0.8437 0.67236 0.0
C654 C 0.74215 0.73152 0.7231 0.0
C655 C 0.77883 0.86589 0.74733 0.0
C656 C 0.76155 0.77131 0.86439 0.0
C657 C 0.79694 0.75603 0.86887 0.0
C658 C 0.75016 0.78793 0.82196 0.0
C659 C 0.77457 0.78902 0.78284 0.0
C660 C 0.81115 0.77608 0.78819 0.0
C661 C 0.82194 0.75996 0.83119 0.0
C662 C 0.71105 0.80179 0.81797 0.0
C663 C 0.8381 0.77672 0.74742 0.0
H664 H 0.71883 0.75854 0.63991 0.0
H665 H 0.7504 0.87172 0.65918 0.0
H666 H 0.77011 0.72104 0.73155 0.0
H667 H 0.72549 0.72992 0.75598 0.0
H668 H 0.7295 0.71308 0.6963 0.0
H669 H 0.77837 0.89293 0.72887 0.0
H670 H 0.76335 0.86842 0.78105 0.0
H671 H 0.80779 0.85917 0.75651 0.0
H672 H 0.74181 0.76821 0.89294 0.0
H673 H 0.84956 0.74889 0.83456 0.0
H674 H 0.69473 0.78249 0.7959 0.0
H675 H 0.71042 0.82912 0.80038 0.0
H676 H 0.69744 0.8041 0.85307 0.0
H677 H 0.82954 0.75614 0.72058 0.0
H678 H 0.86665 0.77015 0.75887 0.0
H679 H 0.83818 0.80409 0.72991 0.0
C680 C 0.23214 0.71754 0.65071 0.0
C681 C 0.19558 0.7224 0.63591 0.0
C682 C 0.24453 0.73194 0.69392 0.0
C683 C 0.21955 0.75092 0.72373 0.0
C684 C 0.18249 0.75569 0.70916 0.0
C685 C 0.17107 0.74178 0.66513 0.0
C686 C 0.28448 0.72696 0.70756 0.0
C687 C 0.15482 0.77499 0.74037 0.0
C688 C 0.25012 0.75349 0.85213 0.0
C689 C 0.26615 0.7887 0.8556 0.0
C690 C 0.23293 0.74169 0.81031 0.0
C691 C 0.23243 0.76521 0.77034 0.0
C692 C 0.24707 0.80128 0.77404 0.0
C693 C 0.26327 0.81273 0.81672 0.0
C694 C 0.2169 0.7033 0.80823 0.0
C695 C 0.24743 0.82714 0.73213 0.0
H696 H 0.25134 0.70296 0.62807 0.0
H697 H 0.14274 0.74554 0.65392 0.0
H698 H 0.29733 0.75417 0.71464 0.0
H699 H 0.28638 0.71055 0.74059 0.0
H700 H 0.30069 0.71283 0.6796 0.0
H701 H 0.12702 0.77634 0.72398 0.0
H702 H 0.15254 0.76034 0.77473 0.0
H703 H 0.16424 0.80343 0.74807 0.0
H704 H 0.25246 0.73428 0.8813 0.0
H705 H 0.27469 0.84026 0.81908 0.0
H706 H 0.23436 0.68574 0.78526 0.0
H707 H 0.18887 0.70389 0.79253 0.0
H708 H 0.2152 0.69026 0.84374 0.0
H709 H 0.26553 0.81577 0.70405 0.0
H710 H 0.25757 0.85507 0.74157 0.0
H711 H 0.21938 0.82968 0.71693 0.0
C712 C 0.31521 0.21608 0.68325 0.0
C713 C 0.29463 0.19362 0.6527 0.0
C714 C 0.29993 0.22964 0.72541 0.0
C715 C 0.26288 0.2211 0.73715 0.0
C716 C 0.242 0.19821 0.70673 0.0
C717 C 0.25827 0.18436 0.66522 0.0
C718 C 0.32337 0.2535 0.75719 0.0
C719 C 0.20224 0.18897 0.71751 0.0
C720 C 0.23593 0.23585 0.86593 0.0
C721 C 0.22199 0.27196 0.86497 0.0
C722 C 0.24822 0.21841 0.82442 0.0
C723 C 0.24596 0.2372 0.7806 0.0
C724 C 0.23002 0.27274 0.77891 0.0
C725 C 0.21861 0.28978 0.821 0.0
C726 C 0.2652 0.18056 0.82781 0.0
C727 C 0.22656 0.29354 0.73283 0.0
H728 H 0.34342 0.22315 0.67424 0.0
H729 H 0.24222 0.16668 0.64231 0.0
H730 H 0.31121 0.28145 0.75971 0.0
H731 H 0.32396 0.2418 0.79345 0.0
H732 H 0.35218 0.25616 0.74415 0.0
H733 H 0.18993 0.17038 0.69062 0.0
H734 H 0.20005 0.17561 0.7527 0.0
H735 H 0.18571 0.21465 0.71894 0.0
H736 H 0.23809 0.22143 0.89938 0.0
H737 H 0.20858 0.31784 0.81945 0.0
H738 H 0.29493 0.18222 0.81859 0.0
H739 H 0.25206 0.16159 0.80214 0.0
H740 H 0.26256 0.16857 0.86382 0.0
H741 H 0.2544 0.30117 0.71971 0.0
H742 H 0.21002 0.3191 0.73668 0.0
H743 H 0.21351 0.27591 0.70553 0.0
C744 C 0.77965 0.21518 0.85409 0.0
C745 C 0.74456 0.22956 0.86299 0.0
C746 C 0.79941 0.22554 0.81328 0.0
C747 C 0.78392 0.25147 0.78141 0.0
C748 C 0.74849 0.26618 0.79072 0.0
C749 C 0.72911 0.25477 0.83119 0.0
C750 C 0.83681 0.20875 0.80421 0.0
C751 C 0.73126 0.2944 0.75831 0.0
C752 C 0.84954 0.30515 0.70167 0.0
C753 C 0.84446 0.28771 0.65791 0.0
C754 C 0.82975 0.29389 0.74195 0.0
C755 C 0.80496 0.26379 0.7388 0.0
C756 C 0.7998 0.24599 0.69474 0.0
C757 C 0.81913 0.25856 0.65468 0.0
C758 C 0.83524 0.31436 0.78786 0.0
C759 C 0.7742 0.21337 0.69004 0.0
H760 H 0.79143 0.19566 0.87886 0.0
H761 H 0.70199 0.26597 0.8385 0.0
H762 H 0.83719 0.1954 0.76894 0.0
H763 H 0.85822 0.23062 0.80383 0.0
H764 H 0.84432 0.18795 0.83138 0.0
H765 H 0.70367 0.3034 0.77087 0.0
H766 H 0.74945 0.31894 0.75557 0.0
H767 H 0.72832 0.28289 0.72221 0.0
H768 H 0.8688 0.32792 0.70439 0.0
H769 H 0.81491 0.245 0.62105 0.0
H770 H 0.8459 0.29532 0.81532 0.0
H771 H 0.80842 0.32512 0.80075 0.0
H772 H 0.8548 0.33778 0.78415 0.0
H773 H 0.78254 0.19131 0.71502 0.0
H774 H 0.77416 0.20194 0.65365 0.0
H775 H 0.74563 0.2215 0.69938 0.0
C776 C 0.93106 0.53915 0.02166 0.0
C777 C 0.93632 0.57366 0.04285 0.0
C778 C 0.95889 0.51228 0.02261 0.0
C779 C 0.99256 0.51987 0.04604 0.0
C780 C 0.99762 0.55434 0.06858 0.0
C781 C 0.96957 0.58095 0.06627 0.0
C782 C 0.95264 0.47616 0.99743 0.0
C783 C 0.03279 0.56325 0.09473 0.0
C784 C 0.053 0.4385 0.08052 0.0
C785 C 0.08032 0.43957 0.0454 0.0
C786 C 0.02448 0.46467 0.08149 0.0
C787 C 0.02286 0.49213 0.04591 0.0
C788 C 0.0502 0.49308 1.01008 0.0
C789 C 0.07879 0.467 1.01053 0.0
C790 C 0.99629 0.46313 0.12079 0.0
C791 C 0.0491 0.52146 0.97102 0.0
H792 H 0.90561 0.53364 1.00292 0.0
H793 H 0.97352 0.60752 0.08294 0.0
H794 H 0.97346 0.4728 0.96897 0.0
H795 H 0.95619 0.45284 0.02239 0.0
H796 H 0.92469 0.47431 0.98153 0.0
H797 H 0.03163 0.59054 0.11239 0.0
H798 H 0.0383 0.54183 0.12184 0.0
H799 H 0.05642 0.5632 0.06977 0.0
H800 H 0.05439 0.41757 0.1078 0.0
H801 H 0.09963 0.4676 0.98305 0.0
H802 H 0.96829 0.45925 0.10582 0.0
H803 H 0.99616 0.4896 0.14036 0.0
H804 H 1.00179 0.44043 0.1462 0.0
H805 H 0.02254 0.51948 0.95173 0.0
H806 H 0.07203 0.51802 0.9453 0.0
H807 H 0.05076 0.54956 0.98622 0.0
C808 C 0.57846 0.05163 0.06906 0.0
C809 C 0.57433 0.08199 0.0389 0.0
C810 C 0.55232 0.02296 0.06962 0.0
C811 C 0.5219 0.02423 0.03825 0.0
C812 C 0.51777 0.05482 1.00752 0.0
C813 C 0.54378 0.08354 1.00867 0.0
C814 C 0.55722 0.99136 0.10379 0.0
C815 C 0.48628 0.05687 0.97273 0.0
C816 C 0.47479 0.93394 1.00573 0.0
C817 C 0.44188 0.9361 0.03161 0.0
C818 C 0.50106 0.96242 1.00753 0.0
C819 C 0.49468 0.99335 0.03694 0.0
C820 C 0.46187 0.99514 0.06415 0.0
C821 C 0.43562 0.96673 0.06059 0.0
C822 C 0.53518 0.95984 0.97705 0.0
C823 C 0.45446 0.02709 0.09689 0.0
H824 H 0.60197 0.05063 0.09264 0.0
H825 H 0.54087 0.10681 0.98492 0.0
H826 H 0.53213 0.98822 0.12598 0.0
H827 H 0.56087 0.96525 0.08403 0.0
H828 H 0.5814 0.99534 0.12732 0.0
H829 H 0.48726 0.08232 0.95089 0.0
H830 H 0.48705 0.03264 0.94887 0.0
H831 H 0.45954 0.05602 0.99179 0.0
H832 H 0.47938 0.91045 0.98289 0.0
H833 H 0.41026 0.96817 0.08084 0.0
H834 H 0.56027 0.96116 0.99937 0.0
H835 H 0.53628 0.98362 0.95236 0.0
H836 H 0.53598 0.93399 0.95609 0.0
H837 H 0.47781 0.03058 0.12182 0.0
H838 H 0.42867 0.02331 0.1176 0.0
H839 H 0.4522 0.05296 0.07618 0.0
C840 C 0.43061 0.03817 0.52809 0.0
C841 C 0.4367 0.07308 0.5478 0.0
C842 C 0.45839 0.01128 0.52813 0.0
C843 C 0.49291 0.01926 0.54918 0.0
C844 C 0.49886 0.05413 0.57031 0.0
C845 C 0.4708 0.08078 0.56887 0.0
C846 C 0.45115 0.97473 0.50441 0.0
C847 C 0.53498 0.06343 0.59399 0.0
C848 C 0.55404 0.93788 0.58134 0.0
C849 C 0.57986 0.93827 0.5444 0.0
C850 C 0.52594 0.96441 0.5838 0.0
C851 C 0.52312 0.99147 0.54785 0.0
C852 C 0.54897 0.99175 0.51022 0.0
C853 C 0.57726 0.96538 0.50925 0.0
C854 C 0.49941 0.96365 0.625 0.0
C855 C 0.54649 0.01963 0.47067 0.0
H856 H 0.40447 0.03236 0.5111 0.0
H857 H 0.4754 0.10768 0.58434 0.0
H858 H 0.47082 0.97088 0.47473 0.0
H859 H 0.4557 0.95183 0.52974 0.0
H860 H 0.42261 0.97263 0.49042 0.0
H861 H 0.53446 0.09098 0.61105 0.0
H862 H 0.54157 0.0424 0.62121 0.0
H863 H 0.55762 0.06304 0.56758 0.0
H864 H 0.55632 0.91717 0.6088 0.0
H865 H 0.59697 0.96543 0.48041 0.0
H866 H 0.47085 0.95946 0.61207 0.0
H867 H 0.50004 0.9905 0.6437 0.0
H868 H 0.50599 0.94145 0.65071 0.0
H869 H 0.51923 0.01747 0.45308 0.0
H870 H 0.56842 0.01578 0.44366 0.0
H871 H 0.54877 0.04793 0.48513 0.0
C872 C 0.08161 0.54628 0.55217 0.0
C873 C 0.0729 0.58033 0.5316 0.0
C874 C 0.05532 0.51782 0.55488 0.0
C875 C 0.01963 0.52332 0.53576 0.0
C876 C 0.01066 0.55772 0.5151 0.0
C877 C 0.0373 0.58586 0.51359 0.0
C878 C 0.06579 0.4818 0.57794 0.0
C879 C 0.97318 0.56455 0.49362 0.0
C880 C 0.96463 0.43842 0.49989 0.0
C881 C 0.93924 0.43521 0.53713 0.0
C882 C 0.99076 0.46706 0.49887 0.0
C883 C 0.99194 0.49284 0.53639 0.0
C884 C 0.96651 0.4896 0.57427 0.0
C885 C 0.9403 0.46101 0.57398 0.0
C886 C 0.01694 0.46987 0.45743 0.0
C887 C 0.96721 0.51615 0.61529 0.0
H888 H 0.109 0.54206 0.56643 0.0
H889 H 0.0306 0.61192 0.49699 0.0
H890 H 0.04606 0.47514 0.60677 0.0
H891 H 0.06417 0.45916 0.55172 0.0
H892 H 0.09411 0.48246 0.59285 0.0
H893 H 0.97041 0.59298 0.47947 0.0
H894 H 0.96826 0.54475 0.46444 0.0
H895 H 0.95129 0.55993 0.52044 0.0
H896 H 0.96363 0.41881 0.47109 0.0
H897 H 0.92105 0.45834 0.60312 0.0
H898 H 0.04585 0.4679 0.46993 0.0
H899 H 0.01384 0.49707 0.43994 0.0
H900 H 0.01212 0.44792 0.4308 0.0
H901 H 0.99474 0.51566 0.63238 0.0
H902 H 0.94594 0.50954 0.64233 0.0
H903 H 0.96256 0.54465 0.60244 0.0
loop_
_geom_bond_atom_site_label_1
_geom_bond_atom_site_label_2
_geom_bond_distance
_geom_bond_site_symmetry_2
_ccdc_geom_bond_type
C0 C1 1.351 . S
C0 N3 1.368 1_556 S
C0 H5 0.931 . S
C1 C0 1.351 . S
C1 N2 1.373 1_556 S
C1 H29 0.930 . S
N2 C1 1.373 1_554 S
N2 C4 1.340 . S
N3 C0 1.368 1_554 S
N3 C4 1.321 . S
N3 Co6 2.135 . S
C4 N2 1.340 . S
C4 N3 1.321 . S
C4 H28 0.930 . S
H5 C0 0.931 . S
Co6 N3 2.135 . S
Co6 N9 2.121 . S
Co6 O14 2.055 . S
Co6 O17 2.039 . S
Co6 N20 2.140 1_554 S
C7 O8 1.227 . S
C7 O17 1.265 . S
O8 C7 1.227 . S
N9 Co6 2.121 . S
N9 C11 1.375 . S
N9 C12 1.313 . S
C10 C11 1.338 . S
C10 N13 1.377 . S
C10 H30 0.930 . S
C11 N9 1.375 . S
C11 C10 1.338 . S
C11 H15 0.931 . S
C12 N9 1.313 . S
C12 N13 1.344 . S
C12 H16 0.930 . S
N13 C10 1.377 . S
N13 C12 1.344 . S
O14 Co6 2.055 . S
O14 C18 1.245 1_554 S
H15 C11 0.931 . S
H16 C12 0.930 . S
O17 Co6 2.039 . S
O17 C7 1.265 . S
C18 O14 1.245 1_556 S
C18 O19 1.234 . S
O19 C18 1.234 . S
N20 Co6 2.140 1_556 S
N20 C23 1.346 . S
N20 C24 1.345 . S
C21 C22 1.387 . S
C21 C25 1.391 . S
C22 C21 1.387 . S
C22 C23 1.369 . S
C22 H31 0.929 . S
C23 N20 1.346 . S
C23 C22 1.369 . S
C23 H26 0.928 . S
C24 N20 1.345 . S
C24 C25 1.371 . S
C24 H27 0.931 . S
C25 C21 1.391 . S
C25 C24 1.371 . S
C25 H32 0.930 . S
H26 C23 0.928 . S
H27 C24 0.931 . S
H28 C4 0.930 . S
H29 C1 0.930 . S
H30 C10 0.930 . S
H31 C22 0.929 . S
H32 C25 0.930 . S
C33 C34 1.351 . S
C33 N36 1.368 1_556 S
C33 H38 0.931 . S
C34 C33 1.351 . S
C34 N35 1.373 1_556 S
C34 H62 0.930 . S
N35 C34 1.373 1_554 S
N35 C37 1.340 . S
N36 C33 1.368 1_554 S
N36 C37 1.321 . S
N36 Co39 2.135 . S
C37 N35 1.340 . S
C37 N36 1.321 . S
C37 H61 0.930 . S
H38 C33 0.931 . S
Co39 N36 2.135 . S
Co39 N42 2.121 . S
Co39 O47 2.055 . S
Co39 O50 2.039 . S
Co39 N53 2.140 1_554 S
C40 O41 1.227 . S
C40 O50 1.265 . S
O41 C40 1.227 . S
N42 Co39 2.121 . S
N42 C44 1.375 . S
N42 C45 1.313 . S
C43 C44 1.338 . S
C43 N46 1.377 . S
C43 H63 0.930 . S
C44 N42 1.375 . S
C44 C43 1.338 . S
C44 H48 0.931 . S
C45 N42 1.313 . S
C45 N46 1.344 . S
C45 H49 0.930 . S
N46 C43 1.377 . S
N46 C45 1.344 . S
O47 Co39 2.055 . S
O47 C51 1.245 1_554 S
H48 C44 0.931 . S
H49 C45 0.930 . S
O50 Co39 2.039 . S
O50 C40 1.265 . S
C51 O47 1.245 1_556 S
C51 O52 1.234 . S
O52 C51 1.234 . S
N53 Co39 2.140 1_556 S
N53 C56 1.346 . S
N53 C57 1.345 . S
C54 C55 1.387 . S
C54 C58 1.391 . S
C55 C54 1.387 . S
C55 C56 1.369 . S
C55 H64 0.929 . S
C56 N53 1.346 . S
C56 C55 1.369 . S
C56 H59 0.928 . S
C57 N53 1.345 . S
C57 C58 1.371 . S
C57 H60 0.931 . S
C58 C54 1.391 . S
C58 C57 1.371 . S
C58 H65 0.930 . S
H59 C56 0.928 . S
H60 C57 0.931 . S
H61 C37 0.930 . S
H62 C34 0.930 . S
H63 C43 0.930 . S
H64 C55 0.929 . S
H65 C58 0.930 . S
C66 C67 1.351 . S
C66 N69 1.368 1_556 S
C66 H71 0.931 . S
C67 C66 1.351 . S
C67 N68 1.373 1_556 S
C67 H95 0.930 . S
N68 C67 1.373 1_554 S
N68 C70 1.340 . S
N69 C66 1.368 1_554 S
N69 C70 1.321 . S
N69 Co72 2.135 . S
C70 N68 1.340 . S
C70 N69 1.321 . S
C70 H94 0.930 . S
H71 C66 0.931 . S
Co72 N69 2.135 . S
Co72 N75 2.121 . S
Co72 O80 2.055 . S
Co72 O83 2.039 . S
Co72 N86 2.140 1_554 S
C73 O74 1.227 . S
C73 O83 1.265 . S
O74 C73 1.227 . S
N75 Co72 2.121 . S
N75 C77 1.375 . S
N75 C78 1.313 . S
C76 C77 1.338 . S
C76 N79 1.377 . S
C76 H96 0.930 . S
C77 N75 1.375 . S
C77 C76 1.338 . S
C77 H81 0.931 . S
C78 N75 1.313 . S
C78 N79 1.344 . S
C78 H82 0.930 . S
N79 C76 1.377 . S
N79 C78 1.344 . S
O80 Co72 2.055 . S
O80 C84 1.245 1_554 S
H81 C77 0.931 . S
H82 C78 0.930 . S
O83 Co72 2.039 . S
O83 C73 1.265 . S
C84 O80 1.245 1_556 S
C84 O85 1.234 . S
O85 C84 1.234 . S
N86 Co72 2.140 1_556 S
N86 C89 1.346 . S
N86 C90 1.345 . S
C87 C88 1.387 . S
C87 C91 1.391 . S
C88 C87 1.387 . S
C88 C89 1.369 . S
C88 H97 0.929 . S
C89 N86 1.346 . S
C89 C88 1.369 . S
C89 H92 0.928 . S
C90 N86 1.345 . S
C90 C91 1.371 . S
C90 H93 0.931 . S
C91 C87 1.391 . S
C91 C90 1.371 . S
C91 H98 0.930 . S
H92 C89 0.928 . S
H93 C90 0.931 . S
H94 C70 0.930 . S
H95 C67 0.930 . S
H96 C76 0.930 . S
H97 C88 0.929 . S
H98 C91 0.930 . S
C99 C100 1.351 . S
C99 N102 1.368 1_556 S
C99 H104 0.931 . S
C100 C99 1.351 . S
C100 N101 1.373 1_556 S
C100 H128 0.930 . S
N101 C100 1.373 1_554 S
N101 C103 1.340 . S
N102 C99 1.368 1_554 S
N102 C103 1.321 . S
N102 Co105 2.135 . S
C103 N101 1.340 . S
C103 N102 1.321 . S
C103 H127 0.930 . S
H104 C99 0.931 . S
Co105 N102 2.135 . S
Co105 N108 2.121 . S
Co105 O113 2.055 . S
Co105 O116 2.039 . S
Co105 N119 2.140 1_554 S
C106 O107 1.227 . S
C106 O116 1.265 . S
O107 C106 1.227 . S
N108 Co105 2.121 . S
N108 C110 1.375 . S
N108 C111 1.313 . S
C109 C110 1.338 . S
C109 N112 1.377 . S
C109 H129 0.930 . S
C110 N108 1.375 . S
C110 C109 1.338 . S
C110 H114 0.931 . S
C111 N108 1.313 . S
C111 N112 1.344 . S
C111 H115 0.930 . S
N112 C109 1.377 . S
N112 C111 1.344 . S
O113 Co105 2.055 . S
O113 C117 1.245 1_554 S
H114 C110 0.931 . S
H115 C111 0.930 . S
O116 Co105 2.039 . S
O116 C106 1.265 . S
C117 O113 1.245 1_556 S
C117 O118 1.234 . S
O118 C117 1.234 . S
N119 Co105 2.140 1_556 S
N119 C122 1.346 . S
N119 C123 1.345 . S
C120 C121 1.387 . S
C120 C124 1.391 . S
C121 C120 1.387 . S
C121 C122 1.369 . S
C121 H130 0.929 . S
C122 N119 1.346 . S
C122 C121 1.369 . S
C122 H125 0.928 . S
C123 N119 1.345 . S
C123 C124 1.371 . S
C123 H126 0.931 . S
C124 C120 1.391 . S
C124 C123 1.371 . S
C124 H131 0.930 . S
H125 C122 0.928 . S
H126 C123 0.931 . S
H127 C103 0.930 . S
H128 C100 0.930 . S
H129 C109 0.930 . S
H130 C121 0.929 . S
H131 C124 0.930 . S
C132 C133 1.351 . S
C132 N135 1.368 . S
C132 H137 0.931 . S
C133 C132 1.351 . S
C133 N134 1.373 . S
C133 H161 0.930 . S
N134 C133 1.373 . S
N134 C136 1.340 . S
N135 C132 1.368 . S
N135 C136 1.321 . S
N135 Co138 2.135 . S
C136 N134 1.340 . S
C136 N135 1.321 . S
C136 H160 0.930 . S
H137 C132 0.931 . S
Co138 N135 2.135 . S
Co138 N141 2.121 . S
Co138 O146 2.055 . S
Co138 O149 2.039 . S
Co138 N152 2.140 . S
C139 O140 1.227 . S
C139 O149 1.265 . S
O140 C139 1.227 . S
N141 Co138 2.121 . S
N141 C143 1.375 . S
N141 C144 1.313 . S
C142 C143 1.338 . S
C142 N145 1.377 . S
C142 H162 0.930 . S
C143 N141 1.375 . S
C143 C142 1.338 . S
C143 H147 0.931 . S
C144 N141 1.313 . S
C144 N145 1.344 . S
C144 H148 0.930 . S
N145 C142 1.377 . S
N145 C144 1.344 . S
O146 Co138 2.055 . S
O146 C150 1.253 . S
H147 C143 0.931 . S
H148 C144 0.930 . S
O149 Co138 2.039 . S
O149 C139 1.265 . S
C150 O146 1.253 . S
C150 O151 1.227 . S
O151 C150 1.227 . S
N152 Co138 2.140 . S
N152 C155 1.346 . S
N152 C156 1.345 . S
C153 C154 1.387 . S
C153 C157 1.391 . S
C154 C153 1.387 . S
C154 C155 1.369 . S
C154 H163 0.929 . S
C155 N152 1.346 . S
C155 C154 1.369 . S
C155 H158 0.928 . S
C156 N152 1.345 . S
C156 C157 1.371 . S
C156 H159 0.931 . S
C157 C153 1.391 . S
C157 C156 1.371 . S
C157 H164 0.930 . S
H158 C155 0.928 . S
H159 C156 0.931 . S
H160 C136 0.930 . S
H161 C133 0.930 . S
H162 C142 0.930 . S
H163 C154 0.929 . S
H164 C157 0.930 . S
C165 C166 1.351 . S
C165 N168 1.368 . S
C165 H170 0.931 . S
C166 C165 1.351 . S
C166 N167 1.373 . S
C166 H194 0.930 . S
N167 C166 1.373 . S
N167 C169 1.340 . S
N168 C165 1.368 . S
N168 C169 1.321 . S
N168 Co171 2.135 . S
C169 N167 1.340 . S
C169 N168 1.321 . S
C169 H193 0.930 . S
H170 C165 0.931 . S
Co171 N168 2.135 . S
Co171 N174 2.121 . S
Co171 O179 2.055 . S
Co171 O182 2.039 . S
Co171 N185 2.140 . S
C172 O173 1.227 . S
C172 O182 1.265 . S
O173 C172 1.227 . S
N174 Co171 2.121 . S
N174 C176 1.375 . S
N174 C177 1.313 . S
C175 C176 1.338 . S
C175 N178 1.377 . S
C175 H195 0.930 . S
C176 N174 1.375 . S
C176 C175 1.338 . S
C176 H180 0.931 . S
C177 N174 1.313 . S
C177 N178 1.344 . S
C177 H181 0.930 . S
N178 C175 1.377 . S
N178 C177 1.344 . S
O179 Co171 2.055 . S
O179 C183 1.253 . S
H180 C176 0.931 . S
H181 C177 0.930 . S
O182 Co171 2.039 . S
O182 C172 1.265 . S
C183 O179 1.253 . S
C183 O184 1.227 . S
O184 C183 1.227 . S
N185 Co171 2.140 . S
N185 C188 1.346 . S
N185 C189 1.345 . S
C186 C187 1.387 . S
C186 C190 1.391 . S
C187 C186 1.387 . S
C187 C188 1.369 . S
C187 H196 0.929 . S
C188 N185 1.346 . S
C188 C187 1.369 . S
C188 H191 0.928 . S
C189 N185 1.345 . S
C189 C190 1.371 . S
C189 H192 0.931 . S
C190 C186 1.391 . S
C190 C189 1.371 . S
C190 H197 0.930 . S
H191 C188 0.928 . S
H192 C189 0.931 . S
H193 C169 0.930 . S
H194 C166 0.930 . S
H195 C175 0.930 . S
H196 C187 0.929 . S
H197 C190 0.930 . S
C198 C199 1.351 . S
C198 N201 1.368 . S
C198 H203 0.931 . S
C199 C198 1.351 . S
C199 N200 1.373 . S
C199 H227 0.930 . S
N200 C199 1.373 . S
N200 C202 1.340 . S
N201 C198 1.368 . S
N201 C202 1.321 . S
N201 Co204 2.135 . S
C202 N200 1.340 . S
C202 N201 1.321 . S
C202 H226 0.930 . S
H203 C198 0.931 . S
Co204 N201 2.135 . S
Co204 N207 2.121 . S
Co204 O212 2.055 . S
Co204 O215 2.039 . S
Co204 N218 2.140 . S
C205 O206 1.227 . S
C205 O215 1.265 . S
O206 C205 1.227 . S
N207 Co204 2.121 . S
N207 C209 1.375 . S
N207 C210 1.313 . S
C208 C209 1.338 . S
C208 N211 1.377 . S
C208 H228 0.930 . S
C209 N207 1.375 . S
C209 C208 1.338 . S
C209 H213 0.931 . S
C210 N207 1.313 . S
C210 N211 1.344 . S
C210 H214 0.930 . S
N211 C208 1.377 . S
N211 C210 1.344 . S
O212 Co204 2.055 . S
O212 C216 1.253 . S
H213 C209 0.931 . S
H214 C210 0.930 . S
O215 Co204 2.039 . S
O215 C205 1.265 . S
C216 O212 1.253 . S
C216 O217 1.227 . S
O217 C216 1.227 . S
N218 Co204 2.140 . S
N218 C221 1.346 . S
N218 C222 1.345 . S
C219 C220 1.387 . S
C219 C223 1.391 . S
C220 C219 1.387 . S
C220 C221 1.369 . S
C220 H229 0.929 . S
C221 N218 1.346 . S
C221 C220 1.369 . S
C221 H224 0.928 . S
C222 N218 1.345 . S
C222 C223 1.371 . S
C222 H225 0.931 . S
C223 C219 1.391 . S
C223 C222 1.371 . S
C223 H230 0.930 . S
H224 C221 0.928 . S
H225 C222 0.931 . S
H226 C202 0.930 . S
H227 C199 0.930 . S
H228 C208 0.930 . S
H229 C220 0.929 . S
H230 C223 0.930 . S
C231 C232 1.351 . S
C231 N234 1.368 . S
C231 H236 0.931 . S
C232 C231 1.351 . S
C232 N233 1.373 . S
C232 H260 0.930 . S
N233 C232 1.373 . S
N233 C235 1.340 . S
N234 C231 1.368 . S
N234 C235 1.321 . S
N234 Co237 2.135 . S
C235 N233 1.340 . S
C235 N234 1.321 . S
C235 H259 0.930 . S
H236 C231 0.931 . S
Co237 N234 2.135 . S
Co237 N240 2.121 . S
Co237 O245 2.055 . S
Co237 O248 2.039 . S
Co237 N251 2.140 . S
C238 O239 1.227 . S
C238 O248 1.265 . S
O239 C238 1.227 . S
N240 Co237 2.121 . S
N240 C242 1.375 . S
N240 C243 1.313 . S
C241 C242 1.338 . S
C241 N244 1.377 . S
C241 H261 0.930 . S
C242 N240 1.375 . S
C242 C241 1.338 . S
C242 H246 0.931 . S
C243 N240 1.313 . S
C243 N244 1.344 . S
C243 H247 0.930 . S
N244 C241 1.377 . S
N244 C243 1.344 . S
O245 Co237 2.055 . S
O245 C249 1.253 . S
H246 C242 0.931 . S
H247 C243 0.930 . S
O248 Co237 2.039 . S
O248 C238 1.265 . S
C249 O245 1.253 . S
C249 O250 1.227 . S
O250 C249 1.227 . S
N251 Co237 2.140 . S
N251 C254 1.346 . S
N251 C255 1.345 . S
C252 C253 1.387 . S
C252 C256 1.391 . S
C253 C252 1.387 . S
C253 C254 1.369 . S
C253 H262 0.929 . S
C254 N251 1.346 . S
C254 C253 1.369 . S
C254 H257 0.928 . S
C255 N251 1.345 . S
C255 C256 1.371 . S
C255 H258 0.931 . S
C256 C252 1.391 . S
C256 C255 1.371 . S
C256 H263 0.930 . S
H257 C254 0.928 . S
H258 C255 0.931 . S
H259 C235 0.930 . S
H260 C232 0.930 . S
H261 C241 0.930 . S
H262 C253 0.929 . S
H263 C256 0.930 . S
C264 C265 1.391 . S
C264 C266 1.394 . S
C264 H280 0.931 . S
C265 C264 1.391 . S
C265 C269 1.376 1_556 S
C266 C264 1.394 . S
C266 C267 1.369 1_556 S
C266 C270 1.531 . S
C267 C266 1.369 1_554 S
C267 C268 1.410 . S
C267 C275 1.503 . S
C268 C267 1.410 . S
C268 C269 1.392 . S
C268 C271 1.511 . S
C269 C265 1.376 1_554 S
C269 C268 1.392 . S
C269 H281 0.929 . S
C270 C266 1.531 . S
C270 H282 0.960 . S
C270 H283 0.962 . S
C270 H284 0.960 . S
C271 C268 1.511 . S
C271 H285 0.961 . S
C271 H286 0.961 . S
C271 H287 0.961 . S
C272 C273 1.370 . S
C272 C274 1.363 . S
C272 H288 0.931 . S
C273 C272 1.370 . S
C273 C277 1.408 1_554 S
C274 C272 1.363 . S
C274 C275 1.370 . S
C274 C278 1.524 . S
C275 C267 1.503 . S
C275 C274 1.370 . S
C275 C276 1.403 1_554 S
C276 C275 1.403 1_556 S
C276 C277 1.404 . S
C276 C279 1.539 . S
C277 C273 1.408 1_556 S
C277 C276 1.404 . S
C277 H289 0.930 . S
C278 C274 1.524 . S
C278 H290 0.956 . S
C278 H291 0.961 . S
C278 H292 0.961 . S
C279 C276 1.539 . S
C279 H293 0.958 . S
C279 H294 0.961 . S
C279 H295 0.960 . S
H280 C264 0.931 . S
H281 C269 0.929 . S
H282 C270 0.960 . S
H283 C270 0.962 . S
H284 C270 0.960 . S
H285 C271 0.961 . S
H286 C271 0.961 . S
H287 C271 0.961 . S
H288 C272 0.931 . S
H289 C277 0.930 . S
H290 C278 0.956 . S
H291 C278 0.961 . S
H292 C278 0.961 . S
H293 C279 0.958 . S
H294 C279 0.961 . S
H295 C279 0.960 . S
C296 C297 1.391 . S
C296 C298 1.394 . S
C296 H312 0.931 . S
C297 C296 1.391 . S
C297 C301 1.376 . S
C298 C296 1.394 . S
C298 C299 1.369 . S
C298 C302 1.531 . S
C299 C298 1.369 . S
C299 C300 1.410 . S
C299 C307 1.503 . S
C300 C299 1.410 . S
C300 C301 1.392 . S
C300 C303 1.511 1_554 S
C301 C297 1.376 . S
C301 C300 1.392 . S
C301 H313 0.929 1_554 S
C302 C298 1.531 . S
C302 H314 0.960 . S
C302 H315 0.962 . S
C302 H316 0.960 . S
C303 C300 1.511 1_556 S
C303 H317 0.961 . S
C303 H318 0.961 . S
C303 H319 0.961 1_556 S
C304 C305 1.356 1_556 S
C304 C306 1.363 . S
C304 H320 0.931 . S
C305 C304 1.356 1_554 S
C305 C309 1.427 . S
C306 C304 1.363 . S
C306 C307 1.370 1_556 S
C306 C310 1.524 . S
C307 C299 1.503 . S
C307 C306 1.370 1_554 S
C307 C308 1.403 . S
C308 C307 1.403 . S
C308 C309 1.404 . S
C308 C311 1.539 . S
C309 C305 1.427 . S
C309 C308 1.404 . S
C309 H321 0.930 . S
C310 C306 1.524 . S
C310 H322 0.956 . S
C310 H323 0.961 . S
C310 H324 0.961 . S
C311 C308 1.539 . S
C311 H325 0.958 . S
C311 H326 0.961 . S
C311 H327 0.960 . S
H312 C296 0.931 . S
H313 C301 0.929 1_556 S
H314 C302 0.960 . S
H315 C302 0.962 . S
H316 C302 0.960 . S
H317 C303 0.961 . S
H318 C303 0.961 . S
H319 C303 0.961 1_554 S
H320 C304 0.931 . S
H321 C309 0.930 . S
H322 C310 0.956 . S
H323 C310 0.961 . S
H324 C310 0.961 . S
H325 C311 0.958 . S
H326 C311 0.961 . S
H327 C311 0.960 . S
C328 C329 1.391 . S
C328 C330 1.394 . S
C328 H344 0.931 . S
C329 C328 1.391 . S
C329 C333 1.376 . S
C330 C328 1.394 . S
C330 C331 1.369 . S
C330 C334 1.531 . S
C331 C330 1.369 . S
C331 C332 1.410 . S
C331 C339 1.503 . S
C332 C331 1.410 . S
C332 C333 1.392 . S
C332 C335 1.511 . S
C333 C329 1.376 . S
C333 C332 1.392 . S
C333 H345 0.929 . S
C334 C330 1.531 . S
C334 H346 0.960 . S
C334 H347 0.962 1_554 S
C334 H348 0.960 . S
C335 C332 1.511 . S
C335 H349 0.961 . S
C335 H350 0.961 . S
C335 H351 0.961 . S
C336 C337 1.370 1_556 S
C336 C338 1.363 . S
C336 H352 0.931 . S
C337 C336 1.370 1_554 S
C337 C341 1.408 . S
C338 C336 1.363 . S
C338 C339 1.370 1_556 S
C338 C342 1.524 . S
C339 C331 1.503 . S
C339 C338 1.370 1_554 S
C339 C340 1.403 . S
C340 C339 1.403 . S
C340 C341 1.404 . S
C340 C343 1.539 . S
C341 C337 1.408 . S
C341 C340 1.404 . S
C341 H353 0.930 . S
C342 C338 1.524 . S
C342 H354 0.956 . S
C342 H355 0.961 . S
C342 H356 0.961 . S
C343 C340 1.539 . S
C343 H357 0.958 . S
C343 H358 0.961 . S
C343 H359 0.960 . S
H344 C328 0.931 . S
H345 C333 0.929 . S
H346 C334 0.960 . S
H347 C334 0.962 1_556 S
H348 C334 0.960 . S
H349 C335 0.961 . S
H350 C335 0.961 . S
H351 C335 0.961 . S
H352 C336 0.931 . S
H353 C341 0.930 . S
H354 C342 0.956 . S
H355 C342 0.961 . S
H356 C342 0.961 . S
H357 C343 0.958 . S
H358 C343 0.961 . S
H359 C343 0.960 . S
C360 C361 1.391 1_554 S
C360 C362 1.394 . S
C360 H376 0.931 . S
C361 C360 1.391 1_556 S
C361 C365 1.376 . S
C362 C360 1.394 . S
C362 C363 1.369 . S
C362 C366 1.531 . S
C363 C362 1.369 . S
C363 C364 1.410 1_554 S
C363 C371 1.503 . S
C364 C363 1.410 1_556 S
C364 C365 1.392 . S
C364 C367 1.511 . S
C365 C361 1.376 . S
C365 C364 1.392 . S
C365 H377 0.929 . S
C366 C362 1.531 . S
C366 H378 0.960 . S
C366 H379 0.962 . S
C366 H380 0.960 . S
C367 C364 1.511 . S
C367 H381 0.961 . S
C367 H382 0.961 . S
C367 H383 0.961 . S
C368 C369 1.370 . S
C368 C370 1.363 . S
C368 H384 0.931 . S
C369 C368 1.370 . S
C369 C373 1.408 . S
C370 C368 1.363 . S
C370 C371 1.370 . S
C370 C374 1.524 . S
C371 C363 1.503 . S
C371 C370 1.370 . S
C371 C372 1.403 . S
C372 C371 1.403 . S
C372 C373 1.404 . S
C372 C375 1.536 1_554 S
C373 C369 1.408 . S
C373 C372 1.404 . S
C373 H385 0.930 . S
C374 C370 1.524 . S
C374 H386 0.956 . S
C374 H387 0.961 1_554 S
C374 H388 0.961 . S
C375 C372 1.536 1_556 S
C375 H389 0.944 1_556 S
C375 H390 0.970 . S
C375 H391 0.968 . S
H376 C360 0.931 . S
H377 C365 0.929 . S
H378 C366 0.960 . S
H379 C366 0.962 . S
H380 C366 0.960 . S
H381 C367 0.961 . S
H382 C367 0.961 . S
H383 C367 0.961 . S
H384 C368 0.931 . S
H385 C373 0.930 . S
H386 C374 0.956 . S
H387 C374 0.961 1_556 S
H388 C374 0.961 . S
H389 C375 0.944 1_554 S
H390 C375 0.970 . S
H391 C375 0.968 . S
C392 C393 1.391 . S
C392 C394 1.394 1_455 S
C392 H408 0.931 . S
C393 C392 1.391 . S
C393 C397 1.376 . S
C394 C392 1.394 1_655 S
C394 C395 1.369 . S
C394 C398 1.531 . S
C395 C394 1.369 . S
C395 C396 1.410 . S
C395 C403 1.503 . S
C396 C395 1.410 . S
C396 C397 1.392 1_655 S
C396 C399 1.511 . S
C397 C393 1.376 . S
C397 C396 1.392 1_455 S
C397 H409 0.929 . S
C398 C394 1.531 . S
C398 H410 0.960 . S
C398 H411 0.962 . S
C398 H412 0.960 . S
C399 C396 1.511 . S
C399 H413 0.961 1_655 S
C399 H414 0.961 . S
C399 H415 0.961 . S
C400 C401 1.370 . S
C400 C402 1.363 . S
C400 H416 0.931 . S
C401 C400 1.370 . S
C401 C405 1.408 . S
C402 C400 1.363 . S
C402 C403 1.370 . S
C402 C406 1.524 . S
C403 C395 1.503 . S
C403 C402 1.370 . S
C403 C404 1.403 . S
C404 C403 1.403 . S
C404 C405 1.404 . S
C404 C407 1.539 . S
C405 C401 1.408 . S
C405 C404 1.404 . S
C405 H417 0.930 . S
C406 C402 1.524 . S
C406 H418 0.956 . S
C406 H419 0.961 . S
C406 H420 0.961 . S
C407 C404 1.539 . S
C407 H421 0.958 . S
C407 H422 0.961 . S
C407 H423 0.960 . S
H408 C392 0.931 . S
H409 C397 0.929 . S
H410 C398 0.960 . S
H411 C398 0.962 . S
H412 C398 0.960 . S
H413 C399 0.961 1_455 S
H414 C399 0.961 . S
H415 C399 0.961 . S
H416 C400 0.931 . S
H417 C405 0.930 . S
H418 C406 0.956 . S
H419 C406 0.961 . S
H420 C406 0.961 . S
H421 C407 0.958 . S
H422 C407 0.961 . S
H423 C407 0.960 . S
C424 C425 1.391 . S
C424 C426 1.394 1_545 S
C424 H440 0.931 . S
C425 C424 1.391 . S
C425 C429 1.376 . S
C426 C424 1.394 1_565 S
C426 C427 1.369 . S
C426 C430 1.531 . S
C427 C426 1.369 . S
C427 C428 1.410 . S
C427 C435 1.503 . S
C428 C427 1.410 . S
C428 C429 1.392 1_565 S
C428 C431 1.511 . S
C429 C425 1.376 . S
C429 C428 1.392 1_545 S
C429 H441 0.929 . S
C430 C426 1.531 . S
C430 H442 0.960 . S
C430 H443 0.962 . S
C430 H444 0.960 . S
C431 C428 1.511 . S
C431 H445 0.961 . S
C431 H446 0.961 . S
C431 H447 0.961 . S
C432 C433 1.370 . S
C432 C434 1.363 . S
C432 H448 0.931 . S
C433 C432 1.370 . S
C433 C437 1.408 . S
C434 C432 1.363 . S
C434 C435 1.370 . S
C434 C438 1.524 . S
C435 C427 1.503 . S
C435 C434 1.370 . S
C435 C436 1.403 . S
C436 C435 1.403 . S
C436 C437 1.404 . S
C436 C439 1.539 . S
C437 C433 1.408 . S
C437 C436 1.404 . S
C437 H449 0.930 . S
C438 C434 1.524 . S
C438 H450 0.956 . S
C438 H451 0.961 . S
C438 H452 0.961 . S
C439 C436 1.539 . S
C439 H453 0.958 . S
C439 H454 0.961 . S
C439 H455 0.960 . S
H440 C424 0.931 . S
H441 C429 0.929 . S
H442 C430 0.960 . S
H443 C430 0.962 . S
H444 C430 0.960 . S
H445 C431 0.961 . S
H446 C431 0.961 . S
H447 C431 0.961 . S
H448 C432 0.931 . S
H449 C437 0.930 . S
H450 C438 0.956 . S
H451 C438 0.961 . S
H452 C438 0.961 . S
H453 C439 0.958 . S
H454 C439 0.961 . S
H455 C439 0.960 . S
C456 C457 1.391 . S
C456 C458 1.394 . S
C456 H472 0.931 . S
C457 C456 1.391 . S
C457 C461 1.376 . S
C458 C456 1.394 . S
C458 C459 1.369 . S
C458 C462 1.531 . S
C459 C458 1.369 . S
C459 C460 1.410 . S
C459 C467 1.503 . S
C460 C459 1.410 . S
C460 C461 1.392 . S
C460 C463 1.511 . S
C461 C457 1.376 . S
C461 C460 1.392 . S
C461 H473 0.929 . S
C462 C458 1.531 . S
C462 H474 0.960 . S
C462 H475 0.962 . S
C462 H476 0.960 . S
C463 C460 1.511 . S
C463 H477 0.961 . S
C463 H478 0.961 . S
C463 H479 0.961 . S
C464 C465 1.370 . S
C464 C466 1.363 1_655 S
C464 H480 0.931 . S
C465 C464 1.370 . S
C465 C469 1.408 . S
C466 C464 1.363 1_455 S
C466 C467 1.370 . S
C466 C470 1.524 . S
C467 C459 1.503 . S
C467 C466 1.370 . S
C467 C468 1.403 . S
C468 C467 1.403 . S
C468 C469 1.404 1_455 S
C468 C471 1.539 . S
C469 C465 1.408 . S
C469 C468 1.404 1_655 S
C469 H481 0.930 . S
C470 C466 1.524 . S
C470 H482 0.956 . S
C470 H483 0.961 . S
C470 H484 0.961 . S
C471 C468 1.539 . S
C471 H485 0.958 . S
C471 H486 0.961 . S
C471 H487 0.960 . S
H472 C456 0.931 . S
H473 C461 0.929 . S
H474 C462 0.960 . S
H475 C462 0.962 . S
H476 C462 0.960 . S
H477 C463 0.961 . S
H478 C463 0.961 . S
H479 C463 0.961 . S
H480 C464 0.931 . S
H481 C469 0.930 . S
H482 C470 0.956 . S
H483 C470 0.961 . S
H484 C470 0.961 . S
H485 C471 0.958 . S
H486 C471 0.961 . S
H487 C471 0.960 . S
C488 C489 1.391 . S
C488 C490 1.394 . S
C488 H504 0.931 . S
C489 C488 1.391 . S
C489 C493 1.376 . S
C490 C488 1.394 . S
C490 C491 1.369 . S
C490 C494 1.531 . S
C491 C490 1.369 . S
C491 C492 1.410 . S
C491 C499 1.503 . S
C492 C491 1.410 . S
C492 C493 1.392 . S
C492 C495 1.511 . S
C493 C489 1.376 . S
C493 C492 1.392 . S
C493 H505 0.929 . S
C494 C490 1.531 . S
C494 H506 0.960 . S
C494 H507 0.962 . S
C494 H508 0.960 . S
C495 C492 1.511 . S
C495 H509 0.961 . S
C495 H510 0.961 . S
C495 H511 0.961 . S
C496 C497 1.370 . S
C496 C498 1.363 1_565 S
C496 H512 0.931 . S
C497 C496 1.370 . S
C497 C501 1.408 . S
C498 C496 1.363 1_545 S
C498 C499 1.370 . S
C498 C502 1.524 . S
C499 C491 1.503 . S
C499 C498 1.370 . S
C499 C500 1.403 . S
C500 C499 1.403 . S
C500 C501 1.404 1_545 S
C500 C503 1.539 . S
C501 C497 1.408 . S
C501 C500 1.404 1_565 S
C501 H513 0.930 . S
C502 C498 1.524 . S
C502 H514 0.956 . S
C502 H515 0.961 . S
C502 H516 0.961 . S
C503 C500 1.539 . S
C503 H517 0.958 . S
C503 H518 0.961 . S
C503 H519 0.960 . S
H504 C488 0.931 . S
H505 C493 0.929 . S
H506 C494 0.960 . S
H507 C494 0.962 . S
H508 C494 0.960 . S
H509 C495 0.961 . S
H510 C495 0.961 . S
H511 C495 0.961 . S
H512 C496 0.931 . S
H513 C501 0.930 . S
H514 C502 0.956 . S
H515 C502 0.961 . S
H516 C502 0.961 . S
H517 C503 0.958 . S
H518 C503 0.961 . S
H519 C503 0.960 . S
C520 C521 1.391 . S
C520 C522 1.394 . S
C520 H536 0.931 . S
C521 C520 1.391 . S
C521 C525 1.376 . S
C522 C520 1.394 . S
C522 C523 1.369 . S
C522 C526 1.531 . S
C523 C522 1.369 . S
C523 C524 1.410 . S
C523 C531 1.503 . S
C524 C523 1.410 . S
C524 C525 1.392 . S
C524 C527 1.511 . S
C525 C521 1.376 . S
C525 C524 1.392 . S
C525 H537 0.929 . S
C526 C522 1.531 . S
C526 H538 0.960 . S
C526 H539 0.962 . S
C526 H540 0.960 . S
C527 C524 1.511 . S
C527 H541 0.961 . S
C527 H542 0.961 . S
C527 H543 0.961 . S
C528 C529 1.370 . S
C528 C530 1.363 . S
C528 H544 0.931 . S
C529 C528 1.370 . S
C529 C533 1.408 . S
C530 C528 1.363 . S
C530 C531 1.370 . S
C530 C534 1.524 . S
C531 C523 1.503 . S
C531 C530 1.370 . S
C531 C532 1.403 . S
C532 C531 1.403 . S
C532 C533 1.404 . S
C532 C535 1.539 . S
C533 C529 1.408 . S
C533 C532 1.404 . S
C533 H545 0.930 . S
C534 C530 1.524 . S
C534 H546 0.956 . S
C534 H547 0.961 . S
C534 H548 0.961 . S
C535 C532 1.539 . S
C535 H549 0.958 . S
C535 H550 0.961 . S
C535 H551 0.960 . S
H536 C520 0.931 . S
H537 C525 0.929 . S
H538 C526 0.960 . S
H539 C526 0.962 . S
H540 C526 0.960 . S
H541 C527 0.961 . S
H542 C527 0.961 . S
H543 C527 0.961 . S
H544 C528 0.931 . S
H545 C533 0.930 . S
H546 C534 0.956 . S
H547 C534 0.961 . S
H548 C534 0.961 . S
H549 C535 0.958 . S
H550 C535 0.961 . S
H551 C535 0.960 . S
C552 C553 1.391 . S
C552 C554 1.394 . S
C552 H568 0.931 . S
C553 C552 1.391 . S
C553 C557 1.376 . S
C554 C552 1.394 . S
C554 C555 1.369 . S
C554 C558 1.531 . S
C555 C554 1.369 . S
C555 C556 1.410 . S
C555 C563 1.503 . S
C556 C555 1.410 . S
C556 C557 1.392 . S
C556 C559 1.511 . S
C557 C553 1.376 . S
C557 C556 1.392 . S
C557 H569 0.929 . S
C558 C554 1.531 . S
C558 H570 0.960 . S
C558 H571 0.962 . S
C558 H572 0.960 . S
C559 C556 1.511 . S
C559 H573 0.961 . S
C559 H574 0.961 . S
C559 H575 0.961 . S
C560 C561 1.370 . S
C560 C562 1.363 . S
C560 H576 0.931 . S
C561 C560 1.370 . S
C561 C565 1.408 . S
C562 C560 1.363 . S
C562 C563 1.370 . S
C562 C566 1.524 . S
C563 C555 1.503 . S
C563 C562 1.370 . S
C563 C564 1.403 . S
C564 C563 1.403 . S
C564 C565 1.404 . S
C564 C567 1.539 . S
C565 C561 1.408 . S
C565 C564 1.404 . S
C565 H577 0.930 . S
C566 C562 1.524 . S
C566 H578 0.956 . S
C566 H579 0.961 . S
C566 H580 0.961 . S
C567 C564 1.539 . S
C567 H581 0.958 . S
C567 H582 0.961 . S
C567 H583 0.960 . S
H568 C552 0.931 . S
H569 C557 0.929 . S
H570 C558 0.960 . S
H571 C558 0.962 . S
H572 C558 0.960 . S
H573 C559 0.961 . S
H574 C559 0.961 . S
H575 C559 0.961 . S
H576 C560 0.931 . S
H577 C565 0.930 . S
H578 C566 0.956 . S
H579 C566 0.961 . S
H580 C566 0.961 . S
H581 C567 0.958 . S
H582 C567 0.961 . S
H583 C567 0.960 . S
C584 C585 1.391 . S
C584 C586 1.394 . S
C584 H600 0.931 . S
C585 C584 1.391 . S
C585 C589 1.376 . S
C586 C584 1.394 . S
C586 C587 1.369 . S
C586 C590 1.531 . S
C587 C586 1.369 . S
C587 C588 1.410 . S
C587 C595 1.503 . S
C588 C587 1.410 . S
C588 C589 1.392 . S
C588 C591 1.511 . S
C589 C585 1.376 . S
C589 C588 1.392 . S
C589 H601 0.929 . S
C590 C586 1.531 . S
C590 H602 0.960 . S
C590 H603 0.962 . S
C590 H604 0.960 . S
C591 C588 1.511 . S
C591 H605 0.961 . S
C591 H606 0.961 . S
C591 H607 0.961 . S
C592 C593 1.370 . S
C592 C594 1.363 . S
C592 H608 0.931 . S
C593 C592 1.370 . S
C593 C597 1.408 . S
C594 C592 1.363 . S
C594 C595 1.370 . S
C594 C598 1.524 . S
C595 C587 1.503 . S
C595 C594 1.370 . S
C595 C596 1.403 . S
C596 C595 1.403 . S
C596 C597 1.404 . S
C596 C599 1.539 . S
C597 C593 1.408 . S
C597 C596 1.404 . S
C597 H609 0.930 . S
C598 C594 1.524 . S
C598 H610 0.956 . S
C598 H611 0.961 . S
C598 H612 0.961 . S
C599 C596 1.539 . S
C599 H613 0.958 . S
C599 H614 0.961 . S
C599 H615 0.960 . S
H600 C584 0.931 . S
H601 C589 0.929 . S
H602 C590 0.960 . S
H603 C590 0.962 . S
H604 C590 0.960 . S
H605 C591 0.961 . S
H606 C591 0.961 . S
H607 C591 0.961 . S
H608 C592 0.931 . S
H609 C597 0.930 . S
H610 C598 0.956 . S
H611 C598 0.961 . S
H612 C598 0.961 . S
H613 C599 0.958 . S
H614 C599 0.961 . S
H615 C599 0.960 . S
C616 C617 1.391 . S
C616 C618 1.394 . S
C616 H632 0.931 . S
C617 C616 1.391 . S
C617 C621 1.376 . S
C618 C616 1.394 . S
C618 C619 1.369 . S
C618 C622 1.531 . S
C619 C618 1.369 . S
C619 C620 1.410 . S
C619 C627 1.503 . S
C620 C619 1.410 . S
C620 C621 1.392 . S
C620 C623 1.511 . S
C621 C617 1.376 . S
C621 C620 1.392 . S
C621 H633 0.929 . S
C622 C618 1.531 . S
C622 H634 0.960 . S
C622 H635 0.962 . S
C622 H636 0.960 . S
C623 C620 1.511 . S
C623 H637 0.961 . S
C623 H638 0.961 . S
C623 H639 0.961 . S
C624 C625 1.370 . S
C624 C626 1.363 . S
C624 H640 0.931 . S
C625 C624 1.370 . S
C625 C629 1.408 . S
C626 C624 1.363 . S
C626 C627 1.370 . S
C626 C630 1.524 . S
C627 C619 1.503 . S
C627 C626 1.370 . S
C627 C628 1.403 . S
C628 C627 1.403 . S
C628 C629 1.404 . S
C628 C631 1.539 . S
C629 C625 1.408 . S
C629 C628 1.404 . S
C629 H641 0.930 . S
C630 C626 1.524 . S
C630 H642 0.956 . S
C630 H643 0.961 . S
C630 H644 0.961 . S
C631 C628 1.539 . S
C631 H645 0.958 . S
C631 H646 0.961 . S
C631 H647 0.960 . S
H632 C616 0.931 . S
H633 C621 0.929 . S
H634 C622 0.960 . S
H635 C622 0.962 . S
H636 C622 0.960 . S
H637 C623 0.961 . S
H638 C623 0.961 . S
H639 C623 0.961 . S
H640 C624 0.931 . S
H641 C629 0.930 . S
H642 C630 0.956 . S
H643 C630 0.961 . S
H644 C630 0.961 . S
H645 C631 0.958 . S
H646 C631 0.961 . S
H647 C631 0.960 . S
C648 C649 1.391 . S
C648 C650 1.394 . S
C648 H664 0.931 . S
C649 C648 1.391 . S
C649 C653 1.376 . S
C650 C648 1.394 . S
C650 C651 1.369 . S
C650 C654 1.531 . S
C651 C650 1.369 . S
C651 C652 1.410 . S
C651 C659 1.503 . S
C652 C651 1.410 . S
C652 C653 1.392 . S
C652 C655 1.511 . S
C653 C649 1.376 . S
C653 C652 1.392 . S
C653 H665 0.929 . S
C654 C650 1.531 . S
C654 H666 0.960 . S
C654 H667 0.962 . S
C654 H668 0.960 . S
C655 C652 1.511 . S
C655 H669 0.961 . S
C655 H670 0.961 . S
C655 H671 0.961 . S
C656 C657 1.370 . S
C656 C658 1.363 . S
C656 H672 0.931 . S
C657 C656 1.370 . S
C657 C661 1.408 . S
C658 C656 1.363 . S
C658 C659 1.370 . S
C658 C662 1.524 . S
C659 C651 1.503 . S
C659 C658 1.370 . S
C659 C660 1.403 . S
C660 C659 1.403 . S
C660 C661 1.404 . S
C660 C663 1.539 . S
C661 C657 1.408 . S
C661 C660 1.404 . S
C661 H673 0.930 . S
C662 C658 1.524 . S
C662 H674 0.956 . S
C662 H675 0.961 . S
C662 H676 0.961 . S
C663 C660 1.539 . S
C663 H677 0.958 . S
C663 H678 0.961 . S
C663 H679 0.960 . S
H664 C648 0.931 . S
H665 C653 0.929 . S
H666 C654 0.960 . S
H667 C654 0.962 . S
H668 C654 0.960 . S
H669 C655 0.961 . S
H670 C655 0.961 . S
H671 C655 0.961 . S
H672 C656 0.931 . S
H673 C661 0.930 . S
H674 C662 0.956 . S
H675 C662 0.961 . S
H676 C662 0.961 . S
H677 C663 0.958 . S
H678 C663 0.961 . S
H679 C663 0.960 . S
C680 C681 1.391 . S
C680 C682 1.394 . S
C680 H696 0.931 . S
C681 C680 1.391 . S
C681 C685 1.376 . S
C682 C680 1.394 . S
C682 C683 1.369 . S
C682 C686 1.531 . S
C683 C682 1.369 . S
C683 C684 1.410 . S
C683 C691 1.503 . S
C684 C683 1.410 . S
C684 C685 1.392 . S
C684 C687 1.511 . S
C685 C681 1.376 . S
C685 C684 1.392 . S
C685 H697 0.929 . S
C686 C682 1.531 . S
C686 H698 0.960 . S
C686 H699 0.962 . S
C686 H700 0.960 . S
C687 C684 1.511 . S
C687 H701 0.961 . S
C687 H702 0.961 . S
C687 H703 0.961 . S
C688 C689 1.370 . S
C688 C690 1.363 . S
C688 H704 0.931 . S
C689 C688 1.370 . S
C689 C693 1.408 . S
C690 C688 1.363 . S
C690 C691 1.370 . S
C690 C694 1.524 . S
C691 C683 1.503 . S
C691 C690 1.370 . S
C691 C692 1.403 . S
C692 C691 1.403 . S
C692 C693 1.404 . S
C692 C695 1.539 . S
C693 C689 1.408 . S
C693 C692 1.404 . S
C693 H705 0.930 . S
C694 C690 1.524 . S
C694 H706 0.956 . S
C694 H707 0.961 . S
C694 H708 0.961 . S
C695 C692 1.539 . S
C695 H709 0.958 . S
C695 H710 0.961 . S
C695 H711 0.960 . S
H696 C680 0.931 . S
H697 C685 0.929 . S
H698 C686 0.960 . S
H699 C686 0.962 . S
H700 C686 0.960 . S
H701 C687 0.961 . S
H702 C687 0.961 . S
H703 C687 0.961 . S
H704 C688 0.931 . S
H705 C693 0.930 . S
H706 C694 0.956 . S
H707 C694 0.961 . S
H708 C694 0.961 . S
H709 C695 0.958 . S
H710 C695 0.961 . S
H711 C695 0.960 . S
C712 C713 1.391 . S
C712 C714 1.394 . S
C712 H728 0.931 . S
C713 C712 1.391 . S
C713 C717 1.376 . S
C714 C712 1.394 . S
C714 C715 1.369 . S
C714 C718 1.531 . S
C715 C714 1.369 . S
C715 C716 1.410 . S
C715 C723 1.503 . S
C716 C715 1.410 . S
C716 C717 1.392 . S
C716 C719 1.511 . S
C717 C713 1.376 . S
C717 C716 1.392 . S
C717 H729 0.929 . S
C718 C714 1.531 . S
C718 H730 0.960 . S
C718 H731 0.962 . S
C718 H732 0.960 . S
C719 C716 1.511 . S
C719 H733 0.961 . S
C719 H734 0.961 . S
C719 H735 0.961 . S
C720 C721 1.370 . S
C720 C722 1.363 . S
C720 H736 0.931 . S
C721 C720 1.370 . S
C721 C725 1.408 . S
C722 C720 1.363 . S
C722 C723 1.370 . S
C722 C726 1.524 . S
C723 C715 1.503 . S
C723 C722 1.370 . S
C723 C724 1.403 . S
C724 C723 1.403 . S
C724 C725 1.404 . S
C724 C727 1.539 . S
C725 C721 1.408 . S
C725 C724 1.404 . S
C725 H737 0.930 . S
C726 C722 1.524 . S
C726 H738 0.956 . S
C726 H739 0.961 . S
C726 H740 0.961 . S
C727 C724 1.539 . S
C727 H741 0.958 . S
C727 H742 0.961 . S
C727 H743 0.960 . S
H728 C712 0.931 . S
H729 C717 0.929 . S
H730 C718 0.960 . S
H731 C718 0.962 . S
H732 C718 0.960 . S
H733 C719 0.961 . S
H734 C719 0.961 . S
H735 C719 0.961 . S
H736 C720 0.931 . S
H737 C725 0.930 . S
H738 C726 0.956 . S
H739 C726 0.961 . S
H740 C726 0.961 . S
H741 C727 0.958 . S
H742 C727 0.961 . S
H743 C727 0.960 . S
C744 C745 1.391 . S
C744 C746 1.394 . S
C744 H760 0.931 . S
C745 C744 1.391 . S
C745 C749 1.376 . S
C746 C744 1.394 . S
C746 C747 1.369 . S
C746 C750 1.531 . S
C747 C746 1.369 . S
C747 C748 1.410 . S
C747 C755 1.503 . S
C748 C747 1.410 . S
C748 C749 1.392 . S
C748 C751 1.511 . S
C749 C745 1.376 . S
C749 C748 1.392 . S
C749 H761 0.929 . S
C750 C746 1.531 . S
C750 H762 0.960 . S
C750 H763 0.962 . S
C750 H764 0.960 . S
C751 C748 1.511 . S
C751 H765 0.961 . S
C751 H766 0.961 . S
C751 H767 0.961 . S
C752 C753 1.370 . S
C752 C754 1.363 . S
C752 H768 0.931 . S
C753 C752 1.370 . S
C753 C757 1.408 . S
C754 C752 1.363 . S
C754 C755 1.370 . S
C754 C758 1.524 . S
C755 C747 1.503 . S
C755 C754 1.370 . S
C755 C756 1.403 . S
C756 C755 1.403 . S
C756 C757 1.404 . S
C756 C759 1.539 . S
C757 C753 1.408 . S
C757 C756 1.404 . S
C757 H769 0.930 . S
C758 C754 1.524 . S
C758 H770 0.956 . S
C758 H771 0.961 . S
C758 H772 0.961 . S
C759 C756 1.539 . S
C759 H773 0.958 . S
C759 H774 0.961 . S
C759 H775 0.960 . S
H760 C744 0.931 . S
H761 C749 0.929 . S
H762 C750 0.960 . S
H763 C750 0.962 . S
H764 C750 0.960 . S
H765 C751 0.961 . S
H766 C751 0.961 . S
H767 C751 0.961 . S
H768 C752 0.931 . S
H769 C757 0.930 . S
H770 C758 0.956 . S
H771 C758 0.961 . S
H772 C758 0.961 . S
H773 C759 0.958 . S
H774 C759 0.961 . S
H775 C759 0.960 . S
C776 C777 1.391 1_556 S
C776 C778 1.394 . S
C776 H792 0.931 . S
C777 C776 1.391 1_554 S
C777 C781 1.376 . S
C778 C776 1.394 . S
C778 C779 1.369 1_556 S
C778 C782 1.531 . S
C779 C778 1.369 1_554 S
C779 C780 1.410 . S
C779 C787 1.503 1_655 S
C780 C779 1.410 . S
C780 C781 1.392 . S
C780 C783 1.511 1_655 S
C781 C777 1.376 . S
C781 C780 1.392 . S
C781 H793 0.929 . S
C782 C778 1.531 . S
C782 H794 0.960 1_655 S
C782 H795 0.962 . S
C782 H796 0.960 . S
C783 C780 1.511 1_455 S
C783 H797 0.961 1_455 S
C783 H798 0.961 . S
C783 H799 0.961 . S
C784 C785 1.370 . S
C784 C786 1.363 . S
C784 H800 0.931 . S
C785 C784 1.370 . S
C785 C789 1.411 . S
C786 C784 1.363 . S
C786 C787 1.370 . S
C786 C790 1.524 1_455 S
C787 C779 1.503 1_455 S
C787 C786 1.370 . S
C787 C788 1.397 1_554 S
C788 C787 1.397 1_556 S
C788 C789 1.403 1_556 S
C788 C791 1.544 . S
C789 C785 1.411 . S
C789 C788 1.403 1_554 S
C789 H801 0.927 1_554 S
C790 C786 1.524 1_655 S
C790 H802 0.956 . S
C790 H803 0.961 . S
C790 H804 0.961 . S
C791 C788 1.544 . S
C791 H805 0.958 . S
C791 H806 0.961 . S
C791 H807 0.960 1_556 S
H792 C776 0.931 . S
H793 C781 0.929 . S
H794 C782 0.960 1_455 S
H795 C782 0.962 . S
H796 C782 0.960 . S
H797 C783 0.961 1_655 S
H798 C783 0.961 . S
H799 C783 0.961 . S
H800 C784 0.931 . S
H801 C789 0.927 1_556 S
H802 C790 0.956 . S
H803 C790 0.961 . S
H804 C790 0.961 . S
H805 C791 0.958 . S
H806 C791 0.961 . S
H807 C791 0.960 1_554 S
C808 C809 1.391 . S
C808 C810 1.394 . S
C808 H824 0.931 . S
C809 C808 1.391 . S
C809 C813 1.376 1_554 S
C810 C808 1.394 . S
C810 C811 1.369 . S
C810 C814 1.531 . S
C811 C810 1.369 . S
C811 C812 1.410 1_554 S
C811 C819 1.503 1_545 S
C812 C811 1.410 1_556 S
C812 C813 1.392 . S
C812 C815 1.511 . S
C813 C809 1.376 1_556 S
C813 C812 1.392 . S
C813 H825 0.929 . S
C814 C810 1.531 . S
C814 H826 0.960 1_545 S
C814 H827 0.962 1_545 S
C814 H828 0.960 . S
C815 C812 1.511 . S
C815 H829 0.961 . S
C815 H830 0.961 . S
C815 H831 0.961 . S
C816 C817 1.370 1_556 S
C816 C818 1.363 . S
C816 H832 0.931 . S
C817 C816 1.370 1_554 S
C817 C821 1.408 . S
C818 C816 1.363 . S
C818 C819 1.370 1_556 S
C818 C822 1.524 . S
C819 C811 1.503 1_565 S
C819 C818 1.370 1_554 S
C819 C820 1.403 . S
C820 C819 1.403 . S
C820 C821 1.404 . S
C820 C823 1.539 1_565 S
C821 C817 1.408 . S
C821 C820 1.404 . S
C821 H833 0.930 . S
C822 C818 1.524 . S
C822 H834 0.956 1_556 S
C822 H835 0.961 . S
C822 H836 0.961 . S
C823 C820 1.539 1_545 S
C823 H837 0.958 . S
C823 H838 0.961 . S
C823 H839 0.960 . S
H824 C808 0.931 . S
H825 C813 0.929 . S
H826 C814 0.960 1_565 S
H827 C814 0.962 1_565 S
H828 C814 0.960 . S
H829 C815 0.961 . S
H830 C815 0.961 . S
H831 C815 0.961 . S
H832 C816 0.931 . S
H833 C821 0.930 . S
H834 C822 0.956 1_554 S
H835 C822 0.961 . S
H836 C822 0.961 . S
H837 C823 0.958 . S
H838 C823 0.961 . S
H839 C823 0.960 . S
C840 C841 1.391 . S
C840 C842 1.394 . S
C840 H856 0.931 . S
C841 C840 1.391 . S
C841 C845 1.376 . S
C842 C840 1.394 . S
C842 C843 1.369 . S
C842 C846 1.531 1_545 S
C843 C842 1.369 . S
C843 C844 1.410 . S
C843 C851 1.503 1_545 S
C844 C843 1.410 . S
C844 C845 1.392 . S
C844 C847 1.511 . S
C845 C841 1.376 . S
C845 C844 1.392 . S
C845 H857 0.929 . S
C846 C842 1.531 1_565 S
C846 H858 0.960 . S
C846 H859 0.962 . S
C846 H860 0.960 . S
C847 C844 1.511 . S
C847 H861 0.961 . S
C847 H862 0.961 . S
C847 H863 0.961 . S
C848 C849 1.370 . S
C848 C850 1.363 . S
C848 H864 0.931 . S
C849 C848 1.370 . S
C849 C853 1.408 . S
C850 C848 1.363 . S
C850 C851 1.370 . S
C850 C854 1.524 . S
C851 C843 1.503 1_565 S
C851 C850 1.370 . S
C851 C852 1.403 . S
C852 C851 1.403 . S
C852 C853 1.404 . S
C852 C855 1.539 1_565 S
C853 C849 1.408 . S
C853 C852 1.404 . S
C853 H865 0.930 . S
C854 C850 1.524 . S
C854 H866 0.956 . S
C854 H867 0.961 . S
C854 H868 0.961 . S
C855 C852 1.539 1_545 S
C855 H869 0.958 . S
C855 H870 0.961 . S
C855 H871 0.960 . S
H856 C840 0.931 . S
H857 C845 0.929 . S
H858 C846 0.960 . S
H859 C846 0.962 . S
H860 C846 0.960 . S
H861 C847 0.961 . S
H862 C847 0.961 . S
H863 C847 0.961 . S
H864 C848 0.931 . S
H865 C853 0.930 . S
H866 C854 0.956 . S
H867 C854 0.961 . S
H868 C854 0.961 . S
H869 C855 0.958 . S
H870 C855 0.961 . S
H871 C855 0.960 . S
C872 C873 1.391 . S
C872 C874 1.394 . S
C872 H888 0.931 . S
C873 C872 1.391 . S
C873 C877 1.376 . S
C874 C872 1.394 . S
C874 C875 1.369 . S
C874 C878 1.531 . S
C875 C874 1.369 . S
C875 C876 1.410 1_455 S
C875 C883 1.503 1_455 S
C876 C875 1.410 1_655 S
C876 C877 1.394 1_655 S
C876 C879 1.509 . S
C877 C873 1.376 . S
C877 C876 1.394 1_455 S
C877 H889 0.929 . S
C878 C874 1.531 . S
C878 H890 0.960 . S
C878 H891 0.962 . S
C878 H892 0.960 . S
C879 C876 1.509 . S
C879 H893 0.961 . S
C879 H894 0.961 . S
C879 H895 0.961 . S
C880 C881 1.370 . S
C880 C882 1.363 . S
C880 H896 0.931 . S
C881 C880 1.370 . S
C881 C885 1.408 . S
C882 C880 1.363 . S
C882 C883 1.370 . S
C882 C886 1.524 1_655 S
C883 C875 1.503 1_655 S
C883 C882 1.370 . S
C883 C884 1.403 . S
C884 C883 1.403 . S
C884 C885 1.404 . S
C884 C887 1.539 . S
C885 C881 1.408 . S
C885 C884 1.404 . S
C885 H897 0.930 . S
C886 C882 1.524 1_455 S
C886 H898 0.956 . S
C886 H899 0.961 . S
C886 H900 0.961 . S
C887 C884 1.539 . S
C887 H901 0.958 . S
C887 H902 0.961 . S
C887 H903 0.960 . S
H888 C872 0.931 . S
H889 C877 0.929 . S
H890 C878 0.960 . S
H891 C878 0.962 . S
H892 C878 0.960 . S
H893 C879 0.961 . S
H894 C879 0.961 . S
H895 C879 0.961 . S
H896 C880 0.931 . S
H897 C885 0.930 . S
H898 C886 0.956 . S
H899 C886 0.961 . S
H900 C886 0.961 . S
H901 C887 0.958 . S
H902 C887 0.961 . S
H903 C887 0.960 . S
C265 C51 0.758 . S
C273 N2 0.753 . S
C297 N35 0.791 . S
C305 C84 0.739 1_554 S
C329 N68 0.762 . S
C337 C117 0.734 1_554 S
C361 C18 0.728 . S
C369 N101 0.717 . S
C393 C183 0.734 . S
C401 N134 0.757 . S
C425 C216 0.722 . S
C433 N167 0.731 . S
C457 N200 0.723 . S
C465 C249 0.745 . S
C489 N233 0.787 . S
C497 C150 0.738 . S
C521 C219 1.497 . S
C529 C7 1.506 . S
C553 C40 1.522 . S
C561 C252 1.503 . S
C585 C73 1.491 . S
C593 C153 1.514 . S
C617 C106 1.527 . S
C625 C186 1.502 . S
C649 C139 1.476 . S
C657 C87 1.526 . S
C681 C172 1.472 . S
C689 C120 1.527 . S
C713 C205 1.489 . S
C721 C21 1.520 . S
C745 C54 1.529 . S
C753 C238 1.496 . S
C777 N79 2.205 . S
C785 N13 2.218 . S
C809 N46 2.213 . S
C817 N112 2.211 . S
C841 N211 2.210 . S
C849 N145 2.219 . S
C873 N178 2.211 . S
C881 N244 2.211 . S
