# Generated by pormake.
# Topology vmb, (5)-cn, num edge types: 1
# Building blocks:
#     Node 0, Type 0, BuildingBlock: XOMCOT_clean_sbu_0, # of connection points: 5
#     Node 1, Type 0, BuildingBlock: XOMCOT_clean_sbu_0, # of connection points: 5
#     Node 2, Type 0, BuildingBlock: XOMCOT_clean_sbu_0, # of connection points: 5
#     Node 3, Type 0, BuildingBlock: XOMCOT_clean_sbu_0, # of connection points: 5
#     Node 4, Type 0, BuildingBlock: XOMCOT_clean_sbu_0, # of connection points: 5
#     Node 5, Type 0, BuildingBlock: XOMCOT_clean_sbu_0, # of connection points: 5
#     Node 6, Type 0, BuildingBlock: XOMCOT_clean_sbu_0, # of connection points: 5
#     Node 7, Type 0, BuildingBlock: XOMCOT_clean_sbu_0, # of connection points: 5
#     Edge 8, Type (0, 0), BuildingBlock: MIFKUJ_clean_linker_0, # of connection points: 2
#     Edge 9, Type (0, 0), BuildingBlock: MIFKUJ_clean_linker_0, # of connection points: 2
#     Edge 10, Type (0, 0), BuildingBlock: MIFKUJ_clean_linker_0, # of connection points: 2
#     Edge 11, Type (0, 0), BuildingBlock: MIFKUJ_clean_linker_0, # of connection points: 2
#     Edge 12, Type (0, 0), BuildingBlock: MIFKUJ_clean_linker_0, # of connection points: 2
#     Edge 13, Type (0, 0), BuildingBlock: MIFKUJ_clean_linker_0, # of connection points: 2
#     Edge 14, Type (0, 0), BuildingBlock: MIFKUJ_clean_linker_0, # of connection points: 2
#     Edge 15, Type (0, 0), BuildingBlock: MIFKUJ_clean_linker_0, # of connection points: 2
#     Edge 16, Type (0, 0), BuildingBlock: MIFKUJ_clean_linker_0, # of connection points: 2
#     Edge 17, Type (0, 0), BuildingBlock: MIFKUJ_clean_linker_0, # of connection points: 2
#     Edge 18, Type (0, 0), BuildingBlock: MIFKUJ_clean_linker_0, # of connection points: 2
#     Edge 19, Type (0, 0), BuildingBlock: MIFKUJ_clean_linker_0, # of connection points: 2
#     Edge 20, Type (0, 0), BuildingBlock: MIFKUJ_clean_linker_0, # of connection points: 2
#     Edge 21, Type (0, 0), BuildingBlock: MIFKUJ_clean_linker_0, # of connection points: 2
#     Edge 22, Type (0, 0), BuildingBlock: MIFKUJ_clean_linker_0, # of connection points: 2
#     Edge 23, Type (0, 0), BuildingBlock: MIFKUJ_clean_linker_0, # of connection points: 2
#     Edge 24, Type (0, 0), BuildingBlock: MIFKUJ_clean_linker_0, # of connection points: 2
#     Edge 25, Type (0, 0), BuildingBlock: MIFKUJ_clean_linker_0, # of connection points: 2
#     Edge 26, Type (0, 0), BuildingBlock: MIFKUJ_clean_linker_0, # of connection points: 2
#     Edge 27, Type (0, 0), BuildingBlock: MIFKUJ_clean_linker_0, # of connection points: 2
# Relax obj value: 0.131
# Max RMSD: 0.193
# Mean RMSD: 0.193
data_MOF--net-vmb--node1-XOMCOT_clean_sbu_0--edge1-MIFKUJ_clean_linker_0
_symmetry_space_group_name_H-M    P1
_symmetry_Int_Tables_number       1
_symmetry_cell_setting            triclinic
loop_
_symmetry_equiv_pos_as_xyz
'x, y, z'
_cell_length_a     47.338488
_cell_length_b     55.34511
_cell_length_c     37.528025
_cell_angle_alpha  89.989254
_cell_angle_beta   117.48658
_cell_angle_gamma 89.872188
loop_
_atom_site_label
_atom_site_type_symbol
_atom_site_fract_x
_atom_site_fract_y
_atom_site_fract_z
_atom_type_partial_charge
Co0 Co 0.295 0.08855 0.4296 0.0
C1 C 0.36278 0.07321 0.45735 0.0
C2 C 0.35368 0.10881 0.43235 0.0
C3 C 0.38424 0.10229 0.44084 0.0
N4 N 0.34033 0.09091 0.44384 0.0
N5 N 0.39002 0.07979 0.45647 0.0
H6 H 0.35852 0.05513 0.46431 0.0
H7 H 0.34157 0.12512 0.41698 0.0
C8 C 0.31218 0.1378 0.46355 0.0
O9 O 0.33763 0.12777 0.4925 0.0
N10 N 0.24994 0.08524 0.41408 0.0
C11 C 0.23785 0.06664 0.42586 0.0
C12 C 0.20525 0.06769 0.40563 0.0
C13 C 0.2243 0.09745 0.38651 0.0
N14 N 0.1967 0.08698 0.38098 0.0
C15 C 0.31889 0.06338 0.50532 0.0
C16 C 0.28966 0.0933 0.53751 0.0
C17 C 0.30495 0.07234 0.55839 0.0
C18 C 0.32017 0.05748 0.54221 0.0
C19 C 0.28857 0.09832 0.50062 0.0
N20 N 0.3036 0.08377 0.48511 0.0
H21 H 0.32794 0.05048 0.49175 0.0
H22 H 0.27377 0.11318 0.48343 0.0
H23 H 0.25186 0.05261 0.44657 0.0
H24 H 0.22578 0.11271 0.3694 0.0
O25 O 0.2954 0.05543 0.4144 0.0
O26 O 0.28574 0.08721 0.3741 0.0
O27 O 0.29219 0.12474 0.43485 0.0
C28 C 0.28881 0.06388 0.37905 0.0
H29 H 0.40048 0.11313 0.43471 0.0
H30 H 0.18895 0.05477 0.40776 0.0
H31 H 0.27735 0.10522 0.54864 0.0
H32 H 0.3312 0.0406 0.55653 0.0
Co33 Co 0.76479 0.07783 0.08616 0.0
C34 C 0.69902 0.06255 0.06393 0.0
C35 C 0.70487 0.1006 0.07614 0.0
C36 C 0.67394 0.09429 0.06651 0.0
N37 N 0.72047 0.08067 0.07434 0.0
N38 N 0.67025 0.07031 0.05884 0.0
H39 H 0.70449 0.04406 0.06001 0.0
H40 H 0.71531 0.11838 0.08438 0.0
C41 C 0.7761 0.11895 0.04264 0.0
O42 O 0.78997 0.10364 0.02897 0.0
N43 N 0.80991 0.07457 0.09864 0.0
C44 C 0.82192 0.06345 0.07644 0.0
C45 C 0.85445 0.06454 0.09601 0.0
C46 C 0.83609 0.08256 0.13167 0.0
N47 N 0.86355 0.0764 0.13085 0.0
C48 C 0.75582 0.0383 0.03356 0.0
C49 C 0.72196 0.06298 0.96219 0.0
C50 C 0.73072 0.03887 0.96117 0.0
C51 C 0.74682 0.02627 -0.00255 0.0
C52 C 0.73135 0.07431 -0.0008 0.0
N53 N 0.75025 0.06246 0.03418 0.0
H54 H 0.76931 0.02848 0.06118 0.0
H55 H 0.72366 0.09263 -0.00039 0.0
H56 H 0.80855 0.05595 0.04688 0.0
H57 H 0.8352 0.09239 0.15604 0.0
O58 O 0.76836 0.04934 0.11708 0.0
O59 O 0.77718 0.08667 0.14127 0.0
O60 O 0.76359 0.11146 0.06439 0.0
C61 C 0.77541 0.06368 0.14737 0.0
H62 H 0.65585 0.10642 0.06613 0.0
H63 H 0.87026 0.05763 0.08481 0.0
H64 H 0.70843 0.07306 0.93473 0.0
H65 H 0.75406 0.00763 -0.0018 0.0
Co66 Co 0.76045 0.91345 0.58795 0.0
C67 C 0.6972 0.93604 0.56598 0.0
C68 C 0.69805 0.89802 0.57801 0.0
C69 C 0.66848 0.90703 0.56951 0.0
N70 N 0.71603 0.91615 0.57578 0.0
N71 N 0.66787 0.93095 0.56203 0.0
H72 H 0.70508 0.95388 0.56278 0.0
H73 H 0.70603 0.87955 0.58584 0.0
C74 C 0.76486 0.86179 0.57804 0.0
O75 O 0.78449 0.86215 0.61669 0.0
N76 N 0.80491 0.91022 0.59929 0.0
C77 C 0.81377 0.90454 0.57097 0.0
C78 C 0.84622 0.90223 0.58849 0.0
C79 C 0.83251 0.91102 0.63417 0.0
N80 N 0.85823 0.9061 0.62834 0.0
C81 C 0.76715 0.95132 0.54197 0.0
C82 C 0.72469 0.93388 0.46714 0.0
C83 C 0.74149 0.95523 0.46986 0.0
C84 C 0.76259 0.96409 0.50785 0.0
C85 C 0.72974 0.92172 0.50223 0.0
N86 N 0.75131 0.93027 0.53884 0.0
H87 H 0.78421 0.95794 0.57109 0.0
H88 H 0.71654 0.9054 0.49999 0.0
H89 H 0.79758 0.90189 0.53949 0.0
H90 H 0.83377 0.91447 0.66322 0.0
O91 O 0.77009 0.94102 0.62259 0.0
O92 O 0.77024 0.90305 0.64163 0.0
O93 O 0.75177 0.88138 0.56007 0.0
C94 C 0.77321 0.92592 0.65067 0.0
H95 H 0.64886 0.89664 0.56873 0.0
H96 H 0.85985 0.89809 0.57273 0.0
H97 H 0.70795 0.92664 0.43823 0.0
H98 H 0.77637 0.98031 0.51119 0.0
Co99 Co 0.29141 0.92343 0.92796 0.0
C100 C 0.35974 0.93706 0.95754 0.0
C101 C 0.34966 0.90214 0.93012 0.0
C102 C 0.38073 0.90799 0.94007 0.0
N103 N 0.33663 0.92002 0.94223 0.0
N104 N 0.38701 0.93005 0.95717 0.0
H105 H 0.3564 0.95482 0.96666 0.0
H106 H 0.33702 0.88636 0.91346 0.0
C107 C 0.30693 0.87345 0.96041 0.0
O108 O 0.33325 0.88246 0.98917 0.0
N109 N 0.24656 0.92787 0.91285 0.0
C110 C 0.23531 0.94684 0.92497 0.0
C111 C 0.20288 0.94501 0.90876 0.0
C112 C 0.22053 0.91481 0.88866 0.0
N113 N 0.19341 0.92491 0.88597 0.0
C114 C 0.31511 0.94896 0.00316 0.0
C115 C 0.28851 0.91834 0.03758 0.0
C116 C 0.30361 0.93939 0.05808 0.0
C117 C 0.31732 0.95471 0.04057 0.0
C118 C 0.28627 0.91358 1e-05 0.0
N119 N 0.30037 0.92832 0.9836 0.0
H120 H 0.32296 0.96218 0.98871 0.0
H121 H 0.27141 0.89872 0.98324 0.0
H122 H 0.24978 0.96125 0.94409 0.0
H123 H 0.2214 0.89839 0.87353 0.0
O124 O 0.29291 0.95645 0.91278 0.0
O125 O 0.2821 0.92466 0.87243 0.0
O126 O 0.28725 0.88731 0.93271 0.0
C127 C 0.28608 0.94792 0.87743 0.0
H128 H 0.39682 0.89744 0.9331 0.0
H129 H 0.18733 0.95794 0.91262 0.0
H130 H 0.27724 0.90606 0.04958 0.0
H131 H 0.32791 0.97176 0.05434 0.0
Co132 Co 0.77039 0.58215 0.39774 0.0
C133 C 0.83754 0.56859 0.42046 0.0
C134 C 0.83461 0.60535 0.43631 0.0
C135 C 0.86617 0.59969 0.44823 0.0
N136 N 0.81651 0.5858 0.41879 0.0
N137 N 0.86798 0.57649 0.43843 0.0
H138 H 0.83086 0.55048 0.40894 0.0
H139 H 0.82588 0.62248 0.441 0.0
C140 C 0.75991 0.63496 0.39035 0.0
O141 O 0.75446 0.63292 0.35287 0.0
N142 N 0.72475 0.5776 0.37722 0.0
C143 C 0.71195 0.55771 0.38469 0.0
C144 C 0.67951 0.5604 0.36753 0.0
C145 C 0.69959 0.59202 0.35455 0.0
N146 N 0.67166 0.58191 0.3486 0.0
C147 C 0.79333 0.5502 0.46458 0.0
C148 C 0.76126 0.57157 0.50208 0.0
C149 C 0.77683 0.54944 0.51648 0.0
C150 C 0.7938 0.5391 0.49811 0.0
C151 C 0.76153 0.58217 0.46856 0.0
N152 N 0.77682 0.57115 0.44976 0.0
H153 H 0.8047 0.54116 0.44916 0.0
H154 H 0.74764 0.59836 0.45625 0.0
H155 H 0.72542 0.54227 0.40186 0.0
H156 H 0.70153 0.60953 0.3431 0.0
O157 O 0.77221 0.5515 0.37494 0.0
O158 O 0.7649 0.58685 0.344 0.0
O159 O 0.76683 0.61634 0.41282 0.0
C160 C 0.76854 0.56357 0.34342 0.0
H161 H 0.88628 0.61156 0.46401 0.0
H162 H 0.66283 0.54735 0.36839 0.0
H163 H 0.74802 0.58015 0.51569 0.0
H164 H 0.80575 0.52184 0.508 0.0
Co165 Co 0.24073 0.58629 0.06246 0.0
C166 C 0.17363 0.56887 0.03396 0.0
C167 C 0.18148 0.60354 0.06208 0.0
C168 C 0.15111 0.5961 0.05283 0.0
N169 N 0.19548 0.58685 0.04916 0.0
N170 N 0.14615 0.57421 0.03522 0.0
H171 H 0.17804 0.55167 0.0241 0.0
H172 H 0.19306 0.6196 0.07878 0.0
C173 C 0.22018 0.6359 0.02972 0.0
O174 O 0.19427 0.62602 0.00153 0.0
N175 N 0.28584 0.58498 0.07696 0.0
C176 C 0.29901 0.5693 0.06136 0.0
C177 C 0.33122 0.57329 0.07853 0.0
C178 C 0.31056 0.59791 0.10454 0.0
N179 N 0.33851 0.59116 0.10566 0.0
C180 C 0.21865 0.56053 0.98771 0.0
C181 C 0.24115 0.59341 0.95149 0.0
C182 C 0.22843 0.57158 0.93196 0.0
C183 C 0.21664 0.55515 0.95027 0.0
C184 C 0.24318 0.59787 0.98906 0.0
N185 N 0.2313 0.58185 0.00651 0.0
H186 H 0.21254 0.54658 0.00286 0.0
H187 H 0.25647 0.61351 0.00514 0.0
H188 H 0.28612 0.55568 0.03916 0.0
H189 H 0.30819 0.61184 0.12322 0.0
O190 O 0.2429 0.55299 0.07837 0.0
O191 O 0.25094 0.58471 0.11822 0.0
O192 O 0.24122 0.62263 0.05711 0.0
C193 C 0.24926 0.56135 0.11369 0.0
H194 H 0.13461 0.60553 0.06051 0.0
H195 H 0.34824 0.56339 0.07236 0.0
H196 H 0.25091 0.60655 0.93881 0.0
H197 H 0.20789 0.53758 0.93716 0.0
Co198 Co 0.24598 0.42478 0.56546 0.0
C199 C 0.17832 0.4409 0.53725 0.0
C200 C 0.18856 0.40727 0.56892 0.0
C201 C 0.15819 0.41436 0.56045 0.0
N202 N 0.20109 0.42357 0.5535 0.0
N203 N 0.15168 0.4356 0.54056 0.0
H204 H 0.18154 0.45768 0.52517 0.0
H205 H 0.20122 0.39182 0.58688 0.0
C206 C 0.22589 0.3752 0.53391 0.0
O207 O 0.19976 0.38513 0.50605 0.0
N208 N 0.29068 0.42681 0.57846 0.0
C209 C 0.30274 0.44423 0.5644 0.0
C210 C 0.33481 0.44047 0.57905 0.0
C211 C 0.3159 0.41282 0.60238 0.0
N212 N 0.34321 0.42077 0.6029 0.0
C213 C 0.22252 0.45024 0.49013 0.0
C214 C 0.24523 0.4174 0.45397 0.0
C215 C 0.23186 0.43906 0.43409 0.0
C216 C 0.21998 0.45547 0.45236 0.0
C217 C 0.2477 0.41307 0.49179 0.0
N218 N 0.23564 0.42903 0.50918 0.0
H219 H 0.21647 0.46424 0.50529 0.0
H220 H 0.26143 0.39757 0.50804 0.0
H221 H 0.28911 0.45886 0.54489 0.0
H222 H 0.31432 0.39724 0.61879 0.0
O223 O 0.2473 0.45811 0.58085 0.0
O224 O 0.25712 0.42652 0.62149 0.0
O225 O 0.24722 0.38847 0.56075 0.0
C226 C 0.25449 0.44984 0.6165 0.0
H227 H 0.14285 0.40516 0.57027 0.0
H228 H 0.35096 0.45177 0.57339 0.0
H229 H 0.25516 0.40433 0.44134 0.0
H230 H 0.21079 0.47294 0.43896 0.0
Co231 Co 0.77444 0.41299 0.90007 0.0
C232 C 0.83891 0.43168 0.92095 0.0
C233 C 0.83501 0.39387 0.90681 0.0
C234 C 0.86533 0.40149 0.91588 0.0
N235 N 0.81853 0.41278 0.91016 0.0
N236 N 0.8679 0.42532 0.92489 0.0
H237 H 0.83257 0.44966 0.92609 0.0
H238 H 0.82556 0.37584 0.898 0.0
C239 C 0.76965 0.37166 0.94863 0.0
O240 O 0.75551 0.38626 0.96294 0.0
N241 N 0.72949 0.41352 0.88932 0.0
C242 C 0.71732 0.42263 0.91285 0.0
C243 C 0.68499 0.4194 0.89458 0.0
C244 C 0.70358 0.40501 0.85649 0.0
N245 N 0.67621 0.40833 0.85914 0.0
C246 C 0.77931 0.45343 0.94899 0.0
C247 C 0.81581 0.43175 0.02259 0.0
C248 C 0.80326 0.45492 0.02115 0.0
C249 C 0.78648 0.46627 0.98384 0.0
C250 C 0.80857 0.41968 0.98669 0.0
N251 N 0.78814 0.4298 0.95068 0.0
H252 H 0.76464 0.46206 0.92056 0.0
H253 H 0.8186 0.40196 0.98795 0.0
H254 H 0.73064 0.43036 0.94229 0.0
H255 H 0.70461 0.39632 0.83131 0.0
O256 O 0.76674 0.44082 0.86661 0.0
O257 O 0.76156 0.40289 0.8453 0.0
O258 O 0.78002 0.3797 0.92489 0.0
C259 C 0.75983 0.42589 0.83714 0.0
H260 H 0.8838 0.3903 0.91511 0.0
H261 H 0.66907 0.42504 0.90643 0.0
H262 H 0.82972 0.42261 0.05093 0.0
H263 H 0.77751 0.48454 0.98147 0.0
H264 H 0.34903 0.96268 0.1242 0.0
H265 H 0.3435 0.97835 0.18145 0.0
H266 H 0.24952 0.94733 0.13385 0.0
H267 H 0.25389 0.93315 0.07533 0.0
H268 H 0.24686 0.99075 0.15399 0.0
H269 H 0.31412 0.92418 0.21926 0.0
H270 H 0.3603 0.89687 0.2403 0.0
H271 H 0.42345 0.95517 0.303 0.0
H272 H 0.37769 0.98294 0.28183 0.0
H273 H 0.29147 0.01469 0.38026 0.0
H274 H 0.28971 0.988 0.32735 0.0
H275 H 0.27977 0.05 0.25262 0.0
H276 H 0.28082 0.07671 0.30494 0.0
H277 H 0.32925 0.98459 0.29626 0.0
H278 H 0.23532 0.03641 0.15563 0.0
H279 H 0.18601 0.05992 0.13605 0.0
H280 H 0.17015 0.02368 0.22638 0.0
H281 H 0.21907 0.99969 0.2461 0.0
C282 C 0.32719 0.9592 0.12592 0.0
C283 C 0.30195 0.94664 0.09512 0.0
C284 C 0.32423 0.96788 0.15894 0.0
C285 C 0.29621 0.96377 0.16213 0.0
C286 C 0.27138 0.95064 0.13205 0.0
C287 C 0.27413 0.94228 0.0988 0.0
C288 C 0.29182 0.97478 0.19516 0.0
C289 C 0.26478 0.98924 0.18513 0.0
C290 C 0.31478 0.97232 0.23589 0.0
C291 C 0.34245 0.95569 0.24869 0.0
C292 C 0.33787 0.93124 0.23727 0.0
C293 C 0.36397 0.91566 0.24926 0.0
C294 C 0.39479 0.92429 0.27291 0.0
C295 C 0.39956 0.94851 0.28466 0.0
C296 C 0.37354 0.96417 0.27271 0.0
C297 C 0.2886 0.02259 0.35238 0.0
C298 C 0.28622 0.04775 0.3466 0.0
C299 C 0.28769 0.00734 0.32229 0.0
C300 C 0.28434 0.01702 0.28602 0.0
C301 C 0.28179 0.04214 0.28015 0.0
C302 C 0.28252 0.05738 0.3101 0.0
C303 C 0.28484 1.00106 0.2548 0.0
C304 C 0.31116 0.98576 0.26516 0.0
C305 C 0.26073 0.00215 0.21453 0.0
C306 C 0.23104 0.01637 0.20254 0.0
C307 C 0.22124 0.03336 0.17118 0.0
C308 C 0.19336 0.04679 0.16009 0.0
C309 C 0.175 0.04333 0.18002 0.0
C310 C 0.18445 0.0264 0.21105 0.0
C311 C 0.21227 0.0129 0.22223 0.0
H312 H 0.15342 0.05371 0.17137 0.0
H313 H 0.41497 0.9122 0.28217 0.0
H314 H 0.77317 0.08918 0.20839 0.0
H315 H 0.76677 0.07247 0.2647 0.0
H316 H 0.77491 1.00027 0.22689 0.0
H317 H 0.78075 0.01677 0.17042 0.0
H318 H 0.72316 0.00475 0.23748 0.0
H319 H 0.83422 0.02528 0.3111 0.0
H320 H 0.88065 0.05239 0.3348 0.0
H321 H 0.83936 0.09818 0.39083 0.0
H322 H 0.79244 0.07152 0.36694 0.0
H323 H 0.74355 0.93465 0.40527 0.0
H324 H 0.74722 0.95534 0.35007 0.0
H325 H 0.73822 0.02423 0.39785 0.0
H326 H 0.73492 0.00356 0.4535 0.0
H327 H 0.78762 0.0241 0.38197 0.0
H328 H 0.67708 0.00246 0.30955 0.0
H329 H 0.63112 0.97487 0.28589 0.0
H330 H 0.67254 0.93038 0.22844 0.0
H331 H 0.71879 0.95768 0.25185 0.0
C332 C 0.77428 0.06978 0.21266 0.0
C333 C 0.77732 0.05425 0.18504 0.0
C334 C 0.77056 0.06026 0.24474 0.0
C335 C 0.77024 0.03514 0.24979 0.0
C336 C 0.77483 0.01971 0.22329 0.0
C337 C 0.77833 0.02917 0.1912 0.0
C338 C 0.76328 0.02472 0.28115 0.0
C339 C 0.73747 0.00878 0.26913 0.0
C340 C 0.78136 0.03059 0.32222 0.0
C341 C 0.80966 0.04654 0.33685 0.0
C342 C 0.83492 0.04124 0.32819 0.0
C343 C 0.86134 0.0565 0.34171 0.0
C344 C 0.86291 0.07703 0.36421 0.0
C345 C 0.83809 0.08229 0.37335 0.0
C346 C 0.81159 0.0671 0.35985 0.0
C347 C 0.74158 0.95417 0.40344 0.0
C348 C 0.73897 0.96753 0.43357 0.0
C349 C 0.74373 0.96598 0.37196 0.0
C350 C 0.74282 0.99132 0.36978 0.0
C351 C 0.73907 0.00467 0.39909 0.0
C352 C 0.73715 0.99287 0.43074 0.0
C353 C 0.74781 0.00384 0.33834 0.0
C354 C 0.77317 0.02022 0.35029 0.0
C355 C 0.72942 0.99833 0.29719 0.0
C356 C 0.70147 0.98203 0.28268 0.0
C357 C 0.67645 0.98672 0.29204 0.0
C358 C 0.65033 0.97116 0.27861 0.0
C359 C 0.64895 0.95085 0.25577 0.0
C360 C 0.67367 0.94609 0.24621 0.0
C361 C 0.69977 0.96166 0.2594 0.0
H362 H 0.62871 0.93883 0.24538 0.0
H363 H 0.88338 0.08883 0.37463 0.0
H364 H 0.78648 0.97165 0.67953 0.0
H365 H 0.78019 0.98835 0.7355 0.0
H366 H 0.7585 0.91737 0.76367 0.0
H367 H 0.76445 0.90047 0.70711 0.0
H368 H 0.71336 0.95078 0.75512 0.0
H369 H 0.82658 0.94453 0.8274 0.0
H370 H 0.88191 0.94947 0.83894 0.0
H371 H 0.87009 0.02655 0.83138 0.0
H372 H 0.81452 0.02208 0.81919 0.0
H373 H 0.71254 0.99245 0.93567 0.0
H374 H 0.71852 0.97158 0.88218 0.0
H375 H 0.7455 0.03867 0.84781 0.0
H376 H 0.74078 0.05945 0.90214 0.0
H377 H 0.78918 0.00424 0.8626 0.0
H378 H 0.67543 0.01061 0.78661 0.0
H379 H 0.61973 0.00601 0.77373 0.0
H380 H 0.63227 0.92911 0.78754 0.0
H381 H 0.68821 0.93328 0.80105 0.0
C382 C 0.78107 0.95949 0.69816 0.0
C383 C 0.77581 0.9348 0.68895 0.0
C384 C 0.77756 0.96905 0.7302 0.0
C385 C 0.76891 0.95406 0.75367 0.0
C386 C 0.76517 0.92918 0.74579 0.0
C387 C 0.7688 0.91956 0.71373 0.0
C388 C 0.76112 0.96492 0.78399 0.0
C389 C 0.7301 0.96209 0.77919 0.0
C390 C 0.78277 0.98017 0.81453 0.0
C391 C 0.81628 0.98295 0.8221 0.0
C392 C 0.83569 0.96253 0.8279 0.0
C393 C 0.86712 0.96525 0.83461 0.0
C394 C 0.87949 0.98831 0.83582 0.0
C395 C 0.86047 0.0087 0.83042 0.0
C396 C 0.82902 0.00609 0.82366 0.0
C397 C 0.71922 0.00282 0.91625 0.0
C398 C 0.72657 0.02752 0.92338 0.0
C399 C 0.72242 0.99091 0.88555 0.0
C400 C 0.73263 0.00358 0.86125 0.0
C401 C 0.73774 0.02857 0.86644 0.0
C402 C 0.73468 0.04047 0.89722 0.0
C403 C 0.74122 0.99046 0.83334 0.0
C404 C 0.77246 0.99281 0.83872 0.0
C405 C 0.71975 0.97483 0.80331 0.0
C406 C 0.68612 0.97229 0.79527 0.0
C407 C 0.66641 0.99274 0.78727 0.0
C408 C 0.63477 0.9902 0.77977 0.0
C409 C 0.62249 0.96729 0.77993 0.0
C410 C 0.64182 0.94685 0.78749 0.0
C411 C 0.67349 0.94929 0.79503 0.0
H412 H 0.59799 0.96536 0.77411 0.0
H413 H 0.90382 0.99037 0.84101 0.0
H414 H 0.28563 0.99717 0.8761 0.0
H415 H 0.28435 0.02346 0.82293 0.0
H416 H 0.283 0.96071 0.75386 0.0
H417 H 0.28324 0.93444 0.80617 0.0
H418 H 0.32444 0.02962 0.79421 0.0
H419 H 0.24187 0.97079 0.656 0.0
H420 H 0.19555 0.94387 0.63576 0.0
H421 H 0.17017 0.97943 0.71865 0.0
H422 H 0.21605 0.0068 0.73897 0.0
H423 H 0.35018 0.05081 0.62679 0.0
H424 H 0.34321 0.03496 0.68299 0.0
H425 H 0.24638 0.06127 0.62786 0.0
H426 H 0.25259 0.076 0.57074 0.0
H427 H 0.24766 0.01706 0.65076 0.0
H428 H 0.30299 0.08845 0.71358 0.0
H429 H 0.34494 0.11937 0.73307 0.0
H430 H 0.41605 0.06629 0.80012 0.0
H431 H 0.37442 0.03503 0.78093 0.0
C432 C 0.28477 0.98903 0.84937 0.0
C433 C 0.2843 0.96379 0.84505 0.0
C434 C 0.28416 0.00405 0.81915 0.0
C435 C 0.28319 0.99405 0.78426 0.0
C436 C 0.28302 0.96883 0.78013 0.0
C437 C 0.28326 0.95383 0.81009 0.0
C438 C 0.28317 0.00984 0.75245 0.0
C439 C 0.3075 0.02701 0.76288 0.0
C440 C 0.26051 0.00695 0.71168 0.0
C441 C 0.23257 0.99074 0.69922 0.0
C442 C 0.22631 0.97296 0.66975 0.0
C443 C 0.20015 0.9576 0.6583 0.0
C444 C 0.17998 0.9599 0.67598 0.0
C445 C 0.18587 0.97762 0.70507 0.0
C446 C 0.21198 0.99304 0.7166 0.0
C447 C 0.32744 0.05326 0.6267 0.0
C448 C 0.30201 0.06473 0.59437 0.0
C449 C 0.32359 0.04444 0.65902 0.0
C450 C 0.29436 0.04719 0.65976 0.0
C451 C 0.26916 0.05906 0.62794 0.0
C452 C 0.2729 0.0677 0.59551 0.0
C453 C 0.2895 0.03623 0.69243 0.0
C454 C 0.26429 0.01993 0.68215 0.0
C455 C 0.3106 0.04058 0.73333 0.0
C456 C 0.33564 0.05938 0.74575 0.0
C457 C 0.32758 0.08337 0.73245 0.0
C458 C 0.35128 0.10096 0.74348 0.0
C459 C 0.38313 0.0948 0.76789 0.0
C460 C 0.39134 0.07104 0.78141 0.0
C461 C 0.3677 0.0534 0.77058 0.0
H462 H 0.40146 0.10842 0.7763 0.0
H463 H 0.15976 0.94797 0.6671 0.0
H464 H 0.76533 0.58419 0.27559 0.0
H465 H 0.77564 0.56449 0.22431 0.0
H466 H 0.79195 0.49675 0.28786 0.0
H467 H 0.78125 0.51613 0.33877 0.0
H468 H 0.82911 0.54093 0.23083 0.0
H469 H 0.76238 0.45193 0.21815 0.0
H470 H 0.71756 0.43666 0.22808 0.0
H471 H 0.6745 0.50712 0.20218 0.0
H472 H 0.71882 0.5227 0.19158 0.0
H473 H 0.85322 0.45716 0.09782 0.0
H474 H 0.85202 0.47462 0.15742 0.0
H475 H 0.7539 0.49544 0.08465 0.0
H476 H 0.75455 0.47758 0.02607 0.0
H477 H 0.7622 0.47247 0.1514 0.0
H478 H 0.8134 0.53588 0.11294 0.0
H479 H 0.8556 0.55353 0.10004 0.0
H480 H 0.92487 0.53844 0.22163 0.0
H481 H 0.88315 0.52031 0.23505 0.0
C482 C 0.7708 0.56506 0.27836 0.0
C483 C 0.7722 0.55162 0.31088 0.0
C484 C 0.77697 0.55392 0.24935 0.0
C485 C 0.78451 0.52923 0.25245 0.0
C486 C 0.78592 0.5158 0.28488 0.0
C487 C 0.77967 0.52688 0.31379 0.0
C488 C 0.79004 0.51735 0.22112 0.0
C489 C 0.81461 0.52589 0.21348 0.0
C490 C 0.77111 0.49774 0.19879 0.0
C491 C 0.74411 0.48852 0.20456 0.0
C492 C 0.74329 0.46413 0.21447 0.0
C493 C 0.71798 0.45543 0.22022 0.0
C494 C 0.69326 0.47093 0.21591 0.0
C495 C 0.69373 0.49515 0.20568 0.0
C496 C 0.71896 0.50393 0.19985 0.0
C497 C 0.83149 0.46548 0.09475 0.0
C498 C 0.8041 0.46625 0.05726 0.0
C499 C 0.83088 0.47552 0.12862 0.0
C500 C 0.80287 0.48632 0.12522 0.0
C501 C 0.77572 0.48716 0.08783 0.0
C502 C 0.77628 0.47718 0.05428 0.0
C503 C 0.80084 0.49634 0.16033 0.0
C504 C 0.77705 0.48729 0.16903 0.0
C505 C 0.82013 0.51573 0.18305 0.0
C506 C 0.84524 0.52639 0.1748 0.0
C507 C 0.8377 0.53604 0.13678 0.0
C508 C 0.86152 0.54619 0.1294 0.0
C509 C 0.89292 0.547 0.15993 0.0
C510 C 0.90056 0.53771 0.19795 0.0
C511 C 0.87684 0.52749 0.20545 0.0
H512 H 0.91132 0.5549 0.15417 0.0
H513 H 0.67371 0.46416 0.22041 0.0
H514 H 0.25662 0.57416 0.18744 0.0
H515 H 0.25764 0.54753 0.23975 0.0
H516 H 0.25018 0.48538 0.16647 0.0
H517 H 0.2484 0.51205 0.11342 0.0
H518 H 0.20964 0.48186 0.19629 0.0
H519 H 0.32015 0.49801 0.24944 0.0
H520 H 0.3683 0.52289 0.26994 0.0
H521 H 0.3487 0.55911 0.35733 0.0
H522 H 0.30016 0.53471 0.33695 0.0
H523 H 0.28132 0.43085 0.41717 0.0
H524 H 0.28667 0.44453 0.35896 0.0
H525 H 0.19374 0.47777 0.31053 0.0
H526 H 0.18747 0.46304 0.36789 0.0
H527 H 0.29004 0.48887 0.33937 0.0
H528 H 0.16044 0.48077 0.20941 0.0
H529 H 0.11462 0.45322 0.18799 0.0
H530 H 0.17741 0.39497 0.25292 0.0
H531 H 0.22365 0.42206 0.27425 0.0
C532 C 0.25553 0.55482 0.1826 0.0
C533 C 0.25247 0.54516 0.14642 0.0
C534 C 0.25624 0.53961 0.21258 0.0
C535 C 0.25434 0.51448 0.20713 0.0
C536 C 0.25173 0.50474 0.17123 0.0
C537 C 0.25083 0.51998 0.14108 0.0
C538 C 0.25354 0.49858 0.23828 0.0
C539 C 0.22733 0.48321 0.22756 0.0
C540 C 0.27704 0.49997 0.27886 0.0
C541 C 0.30639 0.5146 0.29148 0.0
C542 C 0.32599 0.51139 0.27285 0.0
C543 C 0.35337 0.5254 0.28448 0.0
C544 C 0.36153 0.54259 0.31488 0.0
C545 C 0.34235 0.54578 0.33378 0.0
C546 C 0.31492 0.53184 0.32224 0.0
C547 C 0.26156 0.44043 0.3936 0.0
C548 C 0.23384 0.44574 0.39706 0.0
C549 C 0.26484 0.44845 0.36053 0.0
C550 C 0.24057 0.46203 0.33034 0.0
C551 C 0.21258 0.46698 0.33321 0.0
C552 C 0.20917 0.45879 0.3662 0.0
C553 C 0.2456 0.4727 0.29759 0.0
C554 C 0.27259 0.48718 0.30805 0.0
C555 C 0.22319 0.47003 0.25671 0.0
C556 C 0.1955 0.45353 0.24369 0.0
C557 C 0.16449 0.46206 0.21897 0.0
C558 C 0.13844 0.44652 0.20687 0.0
C559 C 0.14309 0.42238 0.21918 0.0
C560 C 0.17383 0.4137 0.24352 0.0
C561 C 0.19996 0.42915 0.25568 0.0
H562 H 0.12289 0.41038 0.20979 0.0
H563 H 0.38274 0.55343 0.32382 0.0
H564 H 0.27784 0.58065 0.91529 0.0
H565 H 0.28419 0.56689 0.85788 0.0
H566 H 0.19285 0.53151 0.80997 0.0
H567 H 0.18542 0.54645 0.86635 0.0
H568 H 0.29006 0.52288 0.84006 0.0
H569 H 0.16055 0.52644 0.70913 0.0
H570 H 0.11279 0.55225 0.68611 0.0
H571 H 0.17115 0.61281 0.74871 0.0
H572 H 0.2193 0.58747 0.77162 0.0
H573 H 0.26294 0.43697 0.69072 0.0
H574 H 0.26224 0.46337 0.74227 0.0
H575 H 0.25128 0.52555 0.66749 0.0
H576 H 0.25121 0.49909 0.61519 0.0
H577 H 0.21004 0.52733 0.69645 0.0
H578 H 0.32173 0.51492 0.75151 0.0
H579 H 0.37146 0.49162 0.77348 0.0
H580 H 0.35304 0.4545 0.86106 0.0
H581 H 0.30295 0.47732 0.83923 0.0
C582 C 0.25858 0.5706 0.89197 0.0
C583 C 0.23097 0.56477 0.89533 0.0
C584 C 0.26245 0.56251 0.85936 0.0
C585 C 0.23896 0.5483 0.82955 0.0
C586 C 0.21109 0.5428 0.83232 0.0
C587 C 0.20703 0.5511 0.86479 0.0
C588 C 0.24476 0.53762 0.79737 0.0
C589 C 0.27267 0.52402 0.80862 0.0
C590 C 0.22237 0.53952 0.75632 0.0
C591 C 0.19353 0.55497 0.74237 0.0
C592 C 0.16322 0.54529 0.71784 0.0
C593 C 0.13607 0.55983 0.70483 0.0
C594 C 0.13892 0.58413 0.71604 0.0
C595 C 0.16896 0.59396 0.74018 0.0
C596 C 0.19619 0.5795 0.75323 0.0
C597 C 0.26077 0.45628 0.68542 0.0
C598 C 0.25715 0.466 0.64899 0.0
C599 C 0.26049 0.47136 0.71497 0.0
C600 C 0.25704 0.49643 0.70883 0.0
C601 C 0.25401 0.50624 0.67277 0.0
C602 C 0.2541 0.49113 0.64304 0.0
C603 C 0.25489 0.51212 0.73935 0.0
C604 C 0.22763 0.52655 0.72783 0.0
C605 C 0.2782 0.51143 0.78008 0.0
C606 C 0.30846 0.49776 0.79355 0.0
C607 C 0.32817 0.50168 0.77528 0.0
C608 C 0.35644 0.48857 0.78774 0.0
C609 C 0.36538 0.47157 0.8186 0.0
C610 C 0.34609 0.46768 0.83715 0.0
C611 C 0.31777 0.48072 0.82479 0.0
H612 H 0.38727 0.46143 0.82819 0.0
H613 H 0.11787 0.59536 0.70596 0.0
H614 H 0.73715 0.47022 0.80814 0.0
H615 H 0.73376 0.48883 0.74748 0.0
H616 H 0.76295 0.42169 0.71577 0.0
H617 H 0.76591 0.40273 0.77661 0.0
H618 H 0.78601 0.49417 0.73779 0.0
H619 H 0.73426 0.42318 0.61105 0.0
H620 H 0.69555 0.38971 0.58895 0.0
H621 H 0.64464 0.42362 0.64511 0.0
H622 H 0.68276 0.45743 0.66703 0.0
H623 H 0.82274 0.52555 0.581 0.0
H624 H 0.81554 0.50166 0.63114 0.0
H625 H 0.71534 0.51911 0.57293 0.0
H626 H 0.7222 0.54255 0.52225 0.0
H627 H 0.7268 0.47082 0.59429 0.0
H628 H 0.76293 0.54931 0.65385 0.0
H629 H 0.79924 0.58425 0.67592 0.0
H630 H 0.87609 0.5383 0.75438 0.0
H631 H 0.84031 0.50301 0.73232 0.0
C632 C 0.74223 0.45927 0.78784 0.0
C633 C 0.7522 0.43517 0.79712 0.0
C634 C 0.74028 0.46992 0.75326 0.0
C635 C 0.74842 0.45669 0.7275 0.0
C636 C 0.75642 0.43213 0.73529 0.0
C637 C 0.75811 0.42134 0.76992 0.0
C638 C 0.75185 0.46951 0.69529 0.0
C639 C 0.77306 0.48904 0.7064 0.0
C640 C 0.73491 0.46277 0.65448 0.0
C641 C 0.71159 0.44269 0.64105 0.0
C642 C 0.71474 0.42352 0.61856 0.0
C643 C 0.69291 0.40449 0.60608 0.0
C644 C 0.66772 0.4045 0.61574 0.0
C645 C 0.66424 0.42358 0.63779 0.0
C646 C 0.68599 0.44266 0.65031 0.0
C647 C 0.79919 0.52421 0.5789 0.0
C648 C 0.77309 0.53607 0.54807 0.0
C649 C 0.79512 0.51062 0.60747 0.0
C650 C 0.76493 0.50874 0.60563 0.0
C651 C 0.73879 0.52035 0.57469 0.0
C652 C 0.74284 0.53398 0.54618 0.0
C653 C 0.76079 0.49548 0.63694 0.0
C654 C 0.73974 0.47583 0.62572 0.0
C655 C 0.77751 0.50228 0.67772 0.0
C656 C 0.79903 0.52349 0.69112 0.0
C657 C 0.78763 0.54663 0.67556 0.0
C658 C 0.8081 0.5665 0.68811 0.0
C659 C 0.83997 0.56349 0.71645 0.0
C660 C 0.85142 0.5406 0.73238 0.0
C661 C 0.83105 0.52066 0.71988 0.0
H662 H 0.85578 0.5789 0.72613 0.0
H663 H 0.65086 0.38974 0.60607 0.0
H664 H 0.62109 0.92646 0.58418 0.0
H665 H 0.57477 0.95244 0.5655 0.0
H666 H 0.60745 0.99884 0.49983 0.0
H667 H 0.65423 0.97274 0.51868 0.0
H668 H 0.58466 0.02534 0.54054 0.0
H669 H 0.54624 0.95819 0.45098 0.0
H670 H 0.53734 0.91527 0.43141 0.0
H671 H 0.48565 0.90604 0.49907 0.0
H672 H 0.49462 0.94886 0.51951 0.0
H673 H 0.43581 0.08608 0.43225 0.0
H674 H 0.48352 0.0618 0.45059 0.0
H675 H 0.45687 0.01546 0.52235 0.0
H676 H 0.40917 0.03992 0.50471 0.0
H677 H 0.47655 0.98937 0.47639 0.0
H678 H 0.51594 0.05696 0.56634 0.0
H679 H 0.52447 0.10011 0.58443 0.0
H680 H 0.57385 0.10872 0.51381 0.0
H681 H 0.56523 0.06566 0.49483 0.0
C682 C 0.61842 0.94206 0.56551 0.0
C683 C 0.64132 0.94726 0.55252 0.0
C684 C 0.59182 0.95698 0.55483 0.0
C685 C 0.5871 0.97741 0.5305 0.0
C686 C 0.61038 0.98313 0.51845 0.0
C687 C 0.6372 0.96821 0.52932 0.0
C688 C 0.55781 0.99261 0.51772 0.0
C689 C 0.56102 0.0175 0.52595 0.0
C690 C 0.52682 0.98245 0.49931 0.0
C691 C 0.52137 0.95669 0.48708 0.0
C692 C 0.53319 0.94697 0.46195 0.0
C693 C 0.5281 0.92267 0.45065 0.0
C694 C 0.51101 0.90793 0.46407 0.0
C695 C 0.49892 0.91748 0.48874 0.0
C696 C 0.50397 0.94177 0.50016 0.0
C697 C 0.44007 0.07095 0.45231 0.0
C698 C 0.41835 0.06518 0.46703 0.0
C699 C 0.4675 0.05698 0.46273 0.0
C700 C 0.47409 0.03688 0.48822 0.0
C701 C 0.45237 0.03085 0.50261 0.0
C702 C 0.42494 0.04487 0.49233 0.0
C703 C 0.50344 0.02202 0.49952 0.0
C704 C 0.50021 0.99719 0.49093 0.0
C705 C 0.53435 0.03228 0.51737 0.0
C706 C 0.53965 0.05814 0.52884 0.0
C707 C 0.5284 0.06809 0.5544 0.0
C708 C 0.53329 0.09253 0.56486 0.0
C709 C 0.54962 0.10716 0.55019 0.0
C710 C 0.56116 0.09737 0.5251 0.0
C711 C 0.55631 0.07295 0.51451 0.0
H712 H 0.55338 0.12608 0.55832 0.0
H713 H 0.50708 0.88912 0.45528 0.0
H714 H 0.39224 0.97893 0.95522 0.0
H715 H 0.44082 0.0023 0.9738 0.0
H716 H 0.49596 0.93651 0.00406 0.0
H717 H 0.44736 0.91298 0.98587 0.0
H718 H 0.52544 0.97305 0.06075 0.0
H719 H 0.48084 0.96307 0.9178 0.0
H720 H 0.43718 0.96421 0.84845 0.0
H721 H 0.42567 0.0404 0.85927 0.0
H722 H 0.46932 0.03971 0.92868 0.0
H723 H 0.66658 0.02169 0.06788 0.0
H724 H 0.61874 0.99781 0.05049 0.0
H725 H 0.56113 0.0622 0.00956 0.0
H726 H 0.60878 0.08614 0.0255 0.0
H727 H 0.53287 0.02598 0.95863 0.0
H728 H 0.57914 0.03616 0.1015 0.0
H729 H 0.62275 0.03469 0.17087 0.0
H730 H 0.63068 0.95793 0.16118 0.0
H731 H 0.58734 0.95898 0.09164 0.0
C732 C 0.41469 0.9694 0.96625 0.0
C733 C 0.41582 0.94401 0.96901 0.0
C734 C 0.44249 0.98281 0.97661 0.0
C735 C 0.47211 0.97119 0.99011 0.0
C736 C 0.47343 0.9459 0.99371 0.0
C737 C 0.44559 0.93246 0.983 0.0
C738 C 0.50149 0.98543 -0.00053 0.0
C739 C 0.52723 0.98439 0.0383 0.0
C740 C 0.50372 1.00061 0.97051 0.0
C741 C 0.47818 1.00131 0.92843 0.0
C742 C 0.46896 0.98006 0.90535 0.0
C743 C 0.44427 0.98063 0.86603 0.0
C744 C 0.42868 0.00236 0.84942 0.0
C745 C 0.43786 0.0236 0.87206 0.0
C746 C 0.46264 0.02315 0.91137 0.0
C747 C 0.64379 0.03084 0.05481 0.0
C748 C 0.64182 0.05601 0.04833 0.0
C749 C 0.61636 0.01712 0.04522 0.0
C750 C 0.5862 0.02818 0.02919 0.0
C751 C 0.58405 0.0532 0.02205 0.0
C752 C 0.61147 0.06694 0.03157 0.0
C753 C 0.55697 0.0137 0.02006 0.0
C754 C 0.53118 0.01469 0.9812 0.0
C755 C 0.55473 0.99849 0.04908 0.0
C756 C 0.5802 0.99768 0.09126 0.0
C757 C 0.59028 0.01898 0.11414 0.0
C758 C 0.61493 0.01822 0.15349 0.0
C759 C 0.62954 0.99625 0.1704 0.0
C760 C 0.61937 0.97495 0.14809 0.0
C761 C 0.59473 0.97561 0.10871 0.0
H762 H 0.64873 0.99577 0.20076 0.0
H763 H 0.40952 0.00269 0.81902 0.0
H764 H 0.92457 0.59336 0.44652 0.0
H765 H 0.9729 0.56991 0.46241 0.0
H766 H 0.92458 0.50467 0.46575 0.0
H767 H 0.87644 0.52802 0.45055 0.0
H768 H 0.98322 0.50691 0.52923 0.0
H769 H 0.93874 0.51631 0.3866 0.0
H770 H 0.91687 0.53837 0.32222 0.0
H771 H 1.00448 0.57754 0.36253 0.0
H772 H 0.02676 0.55589 0.42735 0.0
H773 H 0.09287 0.42044 0.52669 0.0
H774 H 0.04543 0.44509 0.50879 0.0
H775 H 0.09733 0.50879 0.50799 0.0
H776 H 0.14515 0.48433 0.52653 0.0
H777 H 0.03772 0.50821 0.44368 0.0
H778 H 0.08222 0.49817 0.58633 0.0
H779 H 0.10394 0.47537 0.64998 0.0
H780 H 1.01571 0.43694 0.60895 0.0
H781 H 0.99359 0.45933 0.54483 0.0
C782 C 0.92423 0.57404 0.45075 0.0
C783 C 0.89645 0.56263 0.44707 0.0
C784 C 0.95185 0.5606 0.45953 0.0
C785 C 0.95242 0.53543 0.46498 0.0
C786 C 0.9248 0.52403 0.46158 0.0
C787 C 0.89713 0.53742 0.45253 0.0
C788 C 0.98191 0.52102 0.47502 0.0
C789 C 0.99487 0.50698 0.51021 0.0
C790 C 0.99769 0.52147 0.45082 0.0
C791 C 0.98429 0.53466 0.412 0.0
C792 C 0.95324 0.52979 0.38189 0.0
C793 C 0.94079 0.54217 0.34528 0.0
C794 C 0.95924 0.55939 0.33834 0.0
C795 C 0.9902 0.56422 0.36797 0.0
C796 C 1.00276 0.55188 0.40463 0.0
C797 C 0.09444 0.4397 0.52311 0.0
C798 C 0.12321 0.45025 0.52848 0.0
C799 C 0.06714 0.45381 0.51271 0.0
C800 C 0.06777 0.47891 0.50745 0.0
C801 C 0.09616 0.48948 0.51185 0.0
C802 C 0.12357 0.47538 0.52237 0.0
C803 C 0.0389 0.49402 0.49778 0.0
C804 C 0.02609 0.5082 0.46272 0.0
C805 C 0.02318 0.49368 0.52205 0.0
C806 C 0.03636 0.48027 0.56064 0.0
C807 C 0.06753 0.48473 0.59076 0.0
C808 C 0.0799 0.47191 0.62695 0.0
C809 C 0.06125 0.45467 0.63346 0.0
C810 C 0.03015 0.45028 0.60385 0.0
C811 C 0.01767 0.46305 0.5676 0.0
H812 H 0.07086 0.44476 0.66149 0.0
H813 H 0.94958 0.56894 0.30996 0.0
H814 H 0.08532 0.58911 0.01073 0.0
H815 H 0.0382 0.56399 0.9919 0.0
H816 H 0.09579 0.49988 0.01353 0.0
H817 H 0.14302 0.52497 0.03212 0.0
H818 H 0.04194 0.49409 0.94747 0.0
H819 H 0.06853 0.52019 0.08083 0.0
H820 H 0.08109 0.54954 0.13549 0.0
H821 H 0.98978 0.5833 0.06816 0.0
H822 H 0.97684 0.55433 0.01284 0.0
H823 H 0.92975 0.41097 0.95327 0.0
H824 H 0.97625 0.43638 0.97084 0.0
H825 H 0.91698 0.49997 0.94094 0.0
H826 H 0.87005 0.47466 0.92265 0.0
H827 H 0.97137 0.50603 0.01097 0.0
H828 H 0.94507 0.47905 0.87774 0.0
H829 H 0.93299 0.44901 0.82414 0.0
H830 H 0.0246 0.41601 0.89296 0.0
H831 H 0.03706 0.44567 0.94724 0.0
C832 C 0.08806 0.56967 0.01177 0.0
C833 C 0.11815 0.55916 0.02319 0.0
C834 C 0.06101 0.55527 0.00099 0.0
C835 C 0.06331 0.52991 0.00184 0.0
C836 C 0.09323 0.51935 0.0126 0.0
C837 C 0.12031 0.53377 0.02315 0.0
C838 C 0.03454 0.51448 0.99134 0.0
C839 C 0.02681 0.49652 0.96183 0.0
C840 C 1.01418 0.51783 0.00928 0.0
C841 C 0.02185 0.53524 0.04253 0.0
C842 C 0.05123 0.53399 0.07755 0.0
C843 C 0.0584 0.55054 0.10868 0.0
C844 C 0.03628 0.56832 0.10526 0.0
C845 C 1.00691 0.56954 0.07074 0.0
C846 C 0.99963 0.55305 0.03951 0.0
C847 C 0.9263 0.43031 0.94989 0.0
C848 C 0.89572 0.44056 0.9361 0.0
C849 C 0.95312 0.44489 0.96013 0.0
C850 C 0.95024 0.47016 0.95683 0.0
C851 C 0.91992 0.48054 0.94377 0.0
C852 C 0.89301 0.46595 0.93339 0.0
C853 C 0.97885 0.48569 0.96717 0.0
C854 C 0.98653 0.50364 -0.00336 0.0
C855 C 0.99926 0.48224 0.94937 0.0
C856 C 0.99187 0.46444 0.91672 0.0
C857 C 0.96254 0.46527 0.88159 0.0
C858 C 0.95564 0.44834 0.85105 0.0
C859 C 0.97798 0.43058 0.85519 0.0
C860 C 1.0073 0.42976 0.88982 0.0
C861 C 1.01431 0.44664 0.92046 0.0
H862 H 0.97259 0.41748 0.83152 0.0
H863 H 0.04188 0.58111 0.12939 0.0
H864 H 0.15643 0.05656 0.32556 0.0
H865 H 0.09945 0.06257 0.28217 0.0
H866 H 0.10634 0.13493 0.32813 0.0
H867 H 0.16404 0.12882 0.37164 0.0
H868 H 0.05544 0.10745 0.32836 0.0
H869 H 0.09225 0.12987 0.23468 0.0
H870 H 0.12393 0.12643 0.19804 0.0
H871 H 0.07905 0.05875 0.14789 0.0
H872 H 0.04733 0.06163 0.18461 0.0
H873 H 0.8875 0.11583 0.17925 0.0
H874 H 0.94426 0.1249 0.22239 0.0
H875 H 0.96992 0.05635 0.19067 0.0
H876 H 0.91394 0.04734 0.14822 0.0
H877 H 1.00419 0.09193 0.18171 0.0
H878 H 0.97382 0.06669 0.28299 0.0
H879 H 0.94248 0.06925 0.32022 0.0
H880 H 0.97544 0.14173 0.35628 0.0
H881 H 1.00664 0.13971 0.31876 0.0
C882 C 0.14585 0.0739 0.32573 0.0
C883 C 0.16453 0.09232 0.35149 0.0
C884 C 0.11331 0.07734 0.30104 0.0
C885 C 0.09853 0.09923 0.30173 0.0
C886 C 0.11723 0.11791 0.32702 0.0
C887 C 0.15013 0.11455 0.35148 0.0
C888 C 0.06336 0.10173 0.27689 0.0
C889 C 0.04417 0.10467 0.29612 0.0
C890 C 0.0486 0.09775 0.23492 0.0
C891 C 0.06749 0.09594 0.21256 0.0
C892 C 0.08927 0.11417 0.21604 0.0
C893 C 0.1072 0.11234 0.19521 0.0
C894 C 0.10349 0.09239 0.17065 0.0
C895 C 0.08185 0.07421 0.16688 0.0
C896 C 0.06383 0.07597 0.18763 0.0
C897 C 0.90531 0.10261 0.18211 0.0
C898 C 0.89623 0.08099 0.15994 0.0
C899 C 0.93773 0.10782 0.2066 0.0
C900 C 0.96151 0.0914 0.20954 0.0
C901 C 0.9522 0.06949 0.18853 0.0
C902 C 0.9201 0.06435 0.16421 0.0
C903 C 0.9962 0.09678 0.23331 0.0
C904 C 1.01534 0.09528 0.2138 0.0
C905 C 1.01081 0.10201 0.27495 0.0
C906 C 0.99222 0.10317 0.29765 0.0
C907 C 0.97416 0.08325 0.29857 0.0
C908 C 0.95647 0.08458 0.31977 0.0
C909 C 0.95688 0.10567 0.34048 0.0
C910 C 0.97508 0.12543 0.34014 0.0
C911 C 0.99278 0.1242 0.31893 0.0
H912 H 0.94316 0.10666 0.35687 0.0
H913 H 0.11735 0.09104 0.15448 0.0
H914 H 0.14552 0.93179 0.90503 0.0
H915 H 0.08904 0.92466 0.86269 0.0
H916 H 0.10961 0.89321 0.77201 0.0
H917 H 0.16665 0.90124 0.8142 0.0
H918 H 0.06229 0.92429 0.7385 0.0
H919 H 0.08332 0.85864 0.829 0.0
H920 H 0.10397 0.83793 0.89443 0.0
H921 H 0.04317 0.88115 0.92551 0.0
H922 H 0.02246 0.90238 0.86047 0.0
H923 H 0.90533 0.88199 0.62082 0.0
H924 H 0.96202 0.88256 0.66651 0.0
H925 H 0.94501 0.92658 0.74938 0.0
H926 H 0.88768 0.92682 0.70283 0.0
H927 H 0.99021 0.88733 0.78595 0.0
H928 H 0.97116 0.95375 0.69475 0.0
H929 H 0.95031 0.97299 0.6281 0.0
H930 H 1.00782 0.92582 0.59729 0.0
H931 H 0.02866 0.90604 0.66358 0.0
C932 C 0.13813 0.92326 0.87615 0.0
C933 C 0.16066 0.91732 0.86287 0.0
C934 C 0.10573 0.91893 0.85206 0.0
C935 C 0.09483 0.90819 0.81412 0.0
C936 C 0.11735 0.90149 0.80118 0.0
C937 C 0.14998 0.90588 0.82542 0.0
C938 C 0.05987 0.90554 0.78734 0.0
C939 C 0.04669 0.91578 0.74873 0.0
C940 C 0.03916 0.89498 0.80078 0.0
C941 C 0.05154 0.88226 0.83996 0.0
C942 C 0.07453 0.86387 0.84991 0.0
C943 C 0.08622 0.85201 0.88691 0.0
C944 C 0.07494 0.85826 0.91415 0.0
C945 C 0.0519 0.87635 0.90439 0.0
C946 C 0.04015 0.88828 0.86744 0.0
C947 C 0.91337 0.89208 0.64845 0.0
C948 C 0.89164 0.90481 0.65752 0.0
C949 C 0.94597 0.8922 0.67477 0.0
C950 C 0.95787 0.90486 0.71113 0.0
C951 C 0.93633 0.91673 0.72136 0.0
C952 C 0.90352 0.91681 0.69474 0.0
C953 C 0.99292 0.90617 0.7375 0.0
C954 C 1.00599 0.89571 0.77589 0.0
C955 C 1.0136 0.91631 0.72378 0.0
C956 C 1.00122 0.92825 0.68398 0.0
C957 C 0.97915 0.94734 0.67363 0.0
C958 C 0.96737 0.95837 0.63594 0.0
C959 C 0.97766 0.95059 0.60843 0.0
C960 C 0.99983 0.93181 0.6186 0.0
C961 C 1.01165 0.92069 0.65624 0.0
H962 H 0.96852 0.95916 0.57927 0.0
H963 H 0.08401 0.84905 0.94277 0.0
H964 H 0.38041 0.60713 0.08166 0.0
H965 H 0.43749 0.61368 0.12381 0.0
H966 H 0.42643 0.59831 0.22944 0.0
H967 H 0.36878 0.59291 0.1869 0.0
H968 H 0.47179 0.63076 0.24786 0.0
H969 H 0.44962 0.55421 0.18112 0.0
H970 H 0.42675 0.52643 0.12333 0.0
H971 H 0.48113 0.56067 0.07237 0.0
H972 H 0.50397 0.58891 0.12961 0.0
H973 H 0.62501 0.57912 0.3704 0.0
H974 H 0.56864 0.58883 0.32929 0.0
H975 H 0.58865 0.61426 0.23467 0.0
H976 H 0.6455 0.60465 0.27629 0.0
H977 H 0.53978 0.57995 0.20928 0.0
H978 H 0.56633 0.65396 0.28334 0.0
H979 H 0.58964 0.67924 0.34423 0.0
H980 H 0.52787 0.6465 0.38549 0.0
H981 H 0.50449 0.62075 0.32512 0.0
C982 C 0.39015 0.60583 0.11398 0.0
C983 C 0.37034 0.59957 0.13112 0.0
C984 C 0.4228 0.60933 0.13808 0.0
C985 C 0.43664 0.6058 0.17986 0.0
C986 C 0.4165 0.60101 0.19731 0.0
C987 C 0.38357 0.59801 0.17311 0.0
C988 C 0.47211 0.60533 0.20463 0.0
C989 C 0.48659 0.6195 0.23955 0.0
C990 C 0.49175 0.5909 0.19374 0.0
C991 C 0.47824 0.57384 0.15942 0.0
C992 C 0.45653 0.55592 0.15745 0.0
C993 C 0.44359 0.54008 0.12481 0.0
C994 C 0.45241 0.54183 0.09414 0.0
C995 C 0.47427 0.55937 0.09611 0.0
C996 C 0.48723 0.5753 0.12865 0.0
C997 C 0.61745 0.58717 0.34109 0.0
C998 C 0.6396 0.59109 0.32648 0.0
C999 C 0.58524 0.59282 0.31767 0.0
C1000 C 0.57431 0.60235 0.27887 0.0
C1001 C 0.59654 0.607 0.26458 0.0
C1002 C 0.62899 0.60167 0.28838 0.0
C1003 C 0.53942 0.60541 0.25236 0.0
C1004 C 0.52501 0.5915 0.21725 0.0
C1005 C 0.51993 0.61973 0.26353 0.0
C1006 C 0.53382 0.63528 0.2998 0.0
C1007 C 0.55788 0.65201 0.30554 0.0
C1008 C 0.57108 0.66645 0.33994 0.0
C1009 C 0.56029 0.66445 0.36875 0.0
C1010 C 0.53622 0.64803 0.36316 0.0
C1011 C 0.52295 0.63352 0.32882 0.0
H1012 H 0.57054 0.67564 0.39537 0.0
H1013 H 0.44237 0.52955 0.0689 0.0
H1014 H 0.65016 0.40867 0.77757 0.0
H1015 H 0.59345 0.40424 0.72976 0.0
H1016 H 0.57218 0.3911 0.82812 0.0
H1017 H 0.62857 0.39497 0.87557 0.0
H1018 H 0.53534 0.36308 0.76485 0.0
H1019 H 0.56408 0.44742 0.78773 0.0
H1020 H 0.59518 0.48349 0.78942 0.0
H1021 H 0.56528 0.47612 0.66314 0.0
H1022 H 0.5343 0.4398 0.66083 0.0
H1023 H 0.37171 0.40255 0.67883 0.0
H1024 H 0.42885 0.39407 0.71956 0.0
H1025 H 0.44451 0.41051 0.61768 0.0
H1026 H 0.38785 0.41917 0.57745 0.0
H1027 H 0.48472 0.43491 0.68005 0.0
H1028 H 0.45164 0.35237 0.65582 0.0
H1029 H 0.42032 0.31654 0.65456 0.0
H1030 H 0.45764 0.3203 0.78264 0.0
H1031 H 0.48884 0.35639 0.78464 0.0
C1032 C 0.63345 0.40432 0.78884 0.0
C1033 C 0.64383 0.40251 0.8304 0.0
C1034 C 0.601 0.40196 0.76155 0.0
C1035 C 0.57834 0.39773 0.77534 0.0
C1036 C 0.58902 0.39448 0.81665 0.0
C1037 C 0.6213 0.39691 0.84381 0.0
C1038 C 0.54341 0.39845 0.74745 0.0
C1039 C 0.52422 0.37882 0.74643 0.0
C1040 C 0.52881 0.41883 0.72294 0.0
C1041 C 0.54718 0.44076 0.7242 0.0
C1042 C 0.56432 0.4534 0.76039 0.0
C1043 C 0.58189 0.4739 0.76145 0.0
C1044 C 0.58228 0.48205 0.72643 0.0
C1045 C 0.565 0.46976 0.69025 0.0
C1046 C 0.54742 0.44923 0.68904 0.0
C1047 C 0.3873 0.40377 0.66501 0.0
C1048 C 0.37537 0.41173 0.62509 0.0
C1049 C 0.41999 0.39897 0.68827 0.0
C1050 C 0.44121 0.40173 0.67181 0.0
C1051 C 0.42886 0.40846 0.6313 0.0
C1052 C 0.39642 0.41338 0.60829 0.0
C1053 C 0.47644 0.39948 0.69718 0.0
C1054 C 0.49574 0.41897 0.69798 0.0
C1055 C 0.49102 0.37898 0.72141 0.0
C1056 C 0.47236 0.35723 0.72033 0.0
C1057 C 0.45298 0.34568 0.68369 0.0
C1058 C 0.43527 0.32531 0.68284 0.0
C1059 C 0.43693 0.31619 0.71847 0.0
C1060 C 0.45635 0.3274 0.75505 0.0
C1061 C 0.47408 0.34781 0.75607 0.0
H1062 H 0.42321 0.30041 0.71775 0.0
H1063 H 0.59591 0.49792 0.72731 0.0
H1064 H 0.27753 0.34838 0.58498 0.0
H1065 H 0.29165 0.30753 0.57386 0.0
H1066 H 0.20507 0.30373 0.46182 0.0
H1067 H 0.19034 0.34415 0.47323 0.0
H1068 H 0.21686 0.26148 0.49947 0.0
H1069 H 0.27709 0.31911 0.4657 0.0
H1070 H 0.31349 0.35366 0.47969 0.0
H1071 H 0.38753 0.31436 0.57657 0.0
H1072 H 0.35137 0.27971 0.56362 0.0
H1073 H 0.26016 0.16435 0.41235 0.0
H1074 H 0.24568 0.20514 0.42333 0.0
H1075 H 0.33207 0.20923 0.53553 0.0
H1076 H 0.3471 0.16889 0.52435 0.0
H1077 H 0.32037 0.25138 0.49759 0.0
H1078 H 0.26055 0.19406 0.5322 0.0
H1079 H 0.22434 0.15947 0.51918 0.0
H1080 H 0.14992 0.19809 0.42163 0.0
H1081 H 0.18587 0.23278 0.4337 0.0
C1082 C 0.26129 0.33871 0.55825 0.0
C1083 C 0.23295 0.34961 0.52981 0.0
C1084 C 0.26947 0.31542 0.55183 0.0
C1085 C 0.24972 0.30278 0.51658 0.0
C1086 C 0.22074 0.31318 0.48913 0.0
C1087 C 0.2124 0.33635 0.49569 0.0
C1088 C 0.2598 0.27922 0.50727 0.0
C1089 C 0.23933 0.25934 0.49863 0.0
C1090 C 0.28937 0.27633 0.5068 0.0
C1091 C 0.31142 0.29689 0.5139 0.0
C1092 C 0.30108 0.31787 0.49011 0.0
C1093 C 0.32167 0.33748 0.49787 0.0
C1094 C 0.35277 0.33623 0.52909 0.0
C1095 C 0.36341 0.31532 0.55248 0.0
C1096 C 0.34288 0.29568 0.54492 0.0
C1097 C 0.27626 0.17406 0.43909 0.0
C1098 C 0.30464 0.16328 0.46763 0.0
C1099 C 0.26788 0.19732 0.44543 0.0
C1100 C 0.28753 0.21005 0.48064 0.0
C1101 C 0.3165 0.19973 0.50824 0.0
C1102 C 0.32499 0.17659 0.50181 0.0
C1103 C 0.27741 0.23365 0.48976 0.0
C1104 C 0.29788 0.25354 0.49838 0.0
C1105 C 0.24787 0.23654 0.4903 0.0
C1106 C 0.22599 0.21593 0.48363 0.0
C1107 C 0.23651 0.19513 0.50785 0.0
C1108 C 0.21604 0.1755 0.50065 0.0
C1109 C 0.18488 0.17656 0.46954 0.0
C1110 C 0.17408 0.19729 0.44569 0.0
C1111 C 0.19449 0.21694 0.45271 0.0
H1112 H 0.16907 0.16134 0.46396 0.0
H1113 H 0.36866 0.35145 0.53511 0.0
H1114 H 0.79092 0.33453 0.91868 0.0
H1115 H 0.79338 0.29149 0.93523 0.0
H1116 H 0.75881 0.30734 0.0208 0.0
H1117 H 0.75645 0.35023 0.00471 0.0
H1118 H 0.80699 0.27446 0.05041 0.0
H1119 H 0.7088 0.28617 0.92997 0.0
H1120 H 0.67511 0.29944 0.86019 0.0
H1121 H 0.72494 0.25117 0.81897 0.0
H1122 H 0.75928 0.23787 0.88864 0.0
H1123 H 0.75617 0.15697 0.07232 0.0
H1124 H 0.7561 0.19993 0.05651 0.0
H1125 H 0.79261 0.18247 0.97346 0.0
H1126 H 0.79274 0.13961 0.98897 0.0
H1127 H 0.7443 0.216 0.9425 0.0
H1128 H 0.84187 0.20374 0.06353 0.0
H1129 H 0.87493 0.19046 0.13345 0.0
H1130 H 0.82556 0.23979 0.17374 0.0
H1131 H 0.79184 0.25311 0.10392 0.0
C1132 C 0.78408 0.32887 0.94124 0.0
C1133 C 0.7733 0.34581 0.96018 0.0
C1134 C 0.78538 0.30427 0.95055 0.0
C1135 C 0.77593 0.29619 0.97894 0.0
C1136 C 0.76616 0.31316 -0.00123 0.0
C1137 C 0.76472 0.33769 0.98938 0.0
C1138 C 0.77535 0.27004 0.9873 0.0
C1139 C 0.79303 0.26172 0.02689 0.0
C1140 C 0.75753 0.25335 0.9565 0.0
C1141 C 0.73683 0.26122 0.91456 0.0
C1142 C 0.71275 0.27853 0.90606 0.0
C1143 C 0.69351 0.28604 0.86653 0.0
C1144 C 0.69794 0.27621 0.83518 0.0
C1145 C 0.72158 0.2588 0.84329 0.0
C1146 C 0.74092 0.25126 0.8828 0.0
C1147 C 0.76405 0.16227 0.05056 0.0
C1148 C 0.77461 0.14487 0.03206 0.0
C1149 C 0.76411 0.18682 0.04167 0.0
C1150 C 0.77465 0.19439 0.01409 0.0
C1151 C 0.78444 0.17702 -0.00513 0.0
C1152 C 0.78459 0.15252 0.00391 0.0
C1153 C 0.77591 0.22044 0.0056 0.0
C1154 C 0.75833 0.22874 0.96599 0.0
C1155 C 0.79375 0.23711 0.0364 0.0
C1156 C 0.81411 0.22924 0.07844 0.0
C1157 C 0.83788 0.21162 0.08725 0.0
C1158 C 0.85677 0.2041 0.12687 0.0
C1159 C 0.8523 0.21423 0.15801 0.0
C1160 C 0.82897 0.23194 0.14958 0.0
C1161 C 0.80997 0.23949 0.11 0.0
H1162 H 0.86695 0.20839 0.18866 0.0
H1163 H 0.68302 0.28203 0.80458 0.0
H1164 H 0.73781 0.67751 0.34937 0.0
H1165 H 0.73406 0.71678 0.37681 0.0
H1166 H 0.77403 0.6858 0.49572 0.0
H1167 H 0.77709 0.64643 0.46843 0.0
H1168 H 0.72583 0.71394 0.48414 0.0
H1169 H 0.81847 0.72119 0.46328 0.0
H1170 H 0.84842 0.72002 0.42422 0.0
H1171 H 0.78707 0.77466 0.34474 0.0
H1172 H 0.75648 0.77593 0.38305 0.0
H1173 H 0.78351 0.81653 0.60859 0.0
H1174 H 0.77742 0.77901 0.57171 0.0
H1175 H 0.72871 0.81754 0.45953 0.0
H1176 H 0.73477 0.8554 0.49634 0.0
H1177 H 0.77613 0.78707 0.46193 0.0
H1178 H 0.68672 0.78192 0.48847 0.0
H1179 H 0.65898 0.78322 0.5302 0.0
H1180 H 0.7167 0.7245 0.60189 0.0
H1181 H 0.74512 0.72307 0.56094 0.0
C1182 C 0.74584 0.67907 0.38137 0.0
C1183 C 0.75785 0.65886 0.40673 0.0
C1184 C 0.74377 0.70155 0.39703 0.0
C1185 C 0.75409 0.70432 0.43841 0.0
C1186 C 0.76588 0.68411 0.46369 0.0
C1187 C 0.76771 0.66162 0.44804 0.0
C1188 C 0.75266 0.72821 0.45561 0.0
C1189 C 0.73708 0.72987 0.47955 0.0
C1190 C 0.7666 0.74918 0.44879 0.0
C1191 C 0.78496 0.74845 0.42574 0.0
C1192 C 0.81121 0.73281 0.43728 0.0
C1193 C 0.82833 0.73215 0.41531 0.0
C1194 C 0.8196 0.7472 0.38195 0.0
C1195 C 0.79377 0.76298 0.37054 0.0
C1196 C 0.77654 0.76369 0.39238 0.0
C1197 C 0.77131 0.81707 0.57607 0.0
C1198 C 0.75959 0.83895 0.55539 0.0
C1199 C 0.76774 0.79556 0.55504 0.0
C1200 C 0.75237 0.79546 0.5129 0.0
C1201 C 0.74055 0.81724 0.49207 0.0
C1202 C 0.74393 0.83881 0.51313 0.0
C1203 C 0.74977 0.77264 0.49093 0.0
C1204 C 0.76459 0.77118 0.46611 0.0
C1205 C 0.73539 0.7518 0.49723 0.0
C1206 C 0.71821 0.75251 0.52179 0.0
C1207 C 0.69366 0.7694 0.51331 0.0
C1208 C 0.67779 0.77014 0.5368 0.0
C1209 C 0.68612 0.75398 0.56872 0.0
C1210 C 0.71029 0.73701 0.57717 0.0
C1211 C 0.72626 0.73621 0.55379 0.0
H1212 H 0.6738 0.75459 0.58688 0.0
H1213 H 0.83289 0.74667 0.36499 0.0
H1214 H 0.34416 0.83899 0.01323 0.0
H1215 H 0.32847 0.79871 0.02368 0.0
H1216 H 0.23386 0.8107 0.92732 0.0
H1217 H 0.24952 0.85102 0.91626 0.0
H1218 H 0.28476 0.78677 0.04646 0.0
H1219 H 0.20177 0.75631 0.88387 0.0
H1220 H 0.19556 0.76203 0.81542 0.0
H1221 H 0.29559 0.77649 0.86387 0.0
H1222 H 0.30246 0.77054 0.93254 0.0
H1223 H 0.18072 0.66932 0.97626 0.0
H1224 H 0.1941 0.7102 0.96478 0.0
H1225 H 0.28949 0.70094 0.06086 0.0
H1226 H 0.27616 0.66017 0.07299 0.0
H1227 H 0.23668 0.72395 0.94128 0.0
H1228 H 0.31954 0.75513 0.10388 0.0
H1229 H 0.32589 0.74927 0.17236 0.0
H1230 H 0.22628 0.73325 0.12403 0.0
H1231 H 0.21924 0.73934 0.05531 0.0
C1232 C 0.32009 0.833 0.99392 0.0
C1233 C 0.29809 0.84824 0.96391 0.0
C1234 C 0.31114 0.80998 6e-05 0.0
C1235 C 0.28003 0.80165 0.97628 0.0
C1236 C 0.25812 0.81662 0.94572 0.0
C1237 C 0.26711 0.83967 0.93945 0.0
C1238 C 0.27033 0.77767 0.98464 0.0
C1239 C 0.27462 0.77291 0.02358 0.0
C1240 C 0.25631 0.75983 0.95454 0.0
C1241 C 0.25253 0.76325 0.91336 0.0
C1242 C 0.22244 0.76064 0.8799 0.0
C1243 C 0.21881 0.76393 0.84106 0.0
C1244 C 0.24514 0.76971 0.83531 0.0
C1245 C 0.27519 0.77212 0.86838 0.0
C1246 C 0.27895 0.76883 0.90726 0.0
C1247 C 0.20444 0.67607 -0.00468 0.0
C1248 C 0.22736 0.66147 0.02558 0.0
C1249 C 0.21208 0.69943 0.98859 0.0
C1250 C 0.24274 0.7087 0.01202 0.0
C1251 C 0.26552 0.69433 0.04277 0.0
C1252 C 0.25786 0.67099 0.04965 0.0
C1253 C 0.25126 0.733 0.00318 0.0
C1254 C 0.24674 0.73782 0.96414 0.0
C1255 C 0.26508 0.75091 0.0332 0.0
C1256 C 0.26895 0.74746 0.07443 0.0
C1257 C 0.29897 0.75045 0.10788 0.0
C1258 C 0.30269 0.74707 0.14673 0.0
C1259 C 0.27653 0.74081 0.15253 0.0
C1260 C 0.24655 0.738 0.11949 0.0
C1261 C 0.24269 0.74138 0.08057 0.0
H1262 H 0.27946 0.73819 0.18264 0.0
H1263 H 0.24227 0.77226 0.80522 0.0
loop_
_geom_bond_atom_site_label_1
_geom_bond_atom_site_label_2
_geom_bond_distance
_geom_bond_site_symmetry_2
_ccdc_geom_bond_type
Co0 N4 2.148 . S
Co0 N10 2.128 . S
Co0 N20 2.194 . S
Co0 O25 2.351 . S
Co0 O26 2.155 . S
Co0 O27 2.096 . S
C1 N4 1.301 . S
C1 N5 1.328 . S
C1 H6 0.930 . S
C2 C3 1.333 . S
C2 N4 1.317 . S
C2 H7 0.930 . S
C3 C2 1.333 . S
C3 N5 1.350 . S
C3 H29 0.931 . S
N4 Co0 2.148 . S
N4 C1 1.301 . S
N4 C2 1.317 . S
N5 C1 1.328 . S
N5 C3 1.350 . S
H6 C1 0.930 . S
H7 C2 0.930 . S
C8 O9 1.224 . S
C8 O27 1.247 . S
O9 C8 1.224 . S
N10 Co0 2.128 . S
N10 C11 1.355 . S
N10 C13 1.311 . S
C11 N10 1.355 . S
C11 C12 1.363 . S
C11 H23 0.929 . S
C12 C11 1.363 . S
C12 N14 1.375 . S
C12 H30 0.931 . S
C13 N10 1.311 . S
C13 N14 1.347 . S
C13 H24 0.929 . S
N14 C12 1.375 . S
N14 C13 1.347 . S
C15 C18 1.365 . S
C15 N20 1.328 . S
C15 H21 0.929 . S
C16 C17 1.362 . S
C16 C19 1.378 . S
C16 H31 0.929 . S
C17 C16 1.362 . S
C17 C18 1.366 . S
C18 C15 1.365 . S
C18 C17 1.366 . S
C18 H32 0.930 . S
C19 C16 1.378 . S
C19 N20 1.315 . S
C19 H22 0.930 . S
N20 Co0 2.194 . S
N20 C15 1.328 . S
N20 C19 1.315 . S
H21 C15 0.929 . S
H22 C19 0.930 . S
H23 C11 0.929 . S
H24 C13 0.929 . S
O25 Co0 2.351 . S
O25 C28 1.244 . S
O26 Co0 2.155 . S
O26 C28 1.240 . S
O27 Co0 2.096 . S
O27 C8 1.247 . S
C28 O25 1.244 . S
C28 O26 1.240 . S
H29 C3 0.931 . S
H30 C12 0.931 . S
H31 C16 0.929 . S
H32 C18 0.930 . S
Co33 N37 2.148 . S
Co33 N43 2.128 . S
Co33 N53 2.194 . S
Co33 O58 2.351 . S
Co33 O59 2.155 . S
Co33 O60 2.096 . S
C34 N37 1.301 . S
C34 N38 1.328 . S
C34 H39 0.930 . S
C35 C36 1.333 . S
C35 N37 1.317 . S
C35 H40 0.930 . S
C36 C35 1.333 . S
C36 N38 1.350 . S
C36 H62 0.931 . S
N37 Co33 2.148 . S
N37 C34 1.301 . S
N37 C35 1.317 . S
N38 C34 1.328 . S
N38 C36 1.350 . S
H39 C34 0.930 . S
H40 C35 0.930 . S
C41 O42 1.224 . S
C41 O60 1.247 . S
O42 C41 1.224 . S
N43 Co33 2.128 . S
N43 C44 1.355 . S
N43 C46 1.311 . S
C44 N43 1.355 . S
C44 C45 1.363 . S
C44 H56 0.929 . S
C45 C44 1.363 . S
C45 N47 1.375 . S
C45 H63 0.931 . S
C46 N43 1.311 . S
C46 N47 1.347 . S
C46 H57 0.929 . S
N47 C45 1.375 . S
N47 C46 1.347 . S
C48 C51 1.365 1_554 S
C48 N53 1.328 . S
C48 H54 0.929 . S
C49 C50 1.362 . S
C49 C52 1.378 . S
C49 H64 0.929 . S
C50 C49 1.362 . S
C50 C51 1.366 . S
C51 C48 1.365 1_556 S
C51 C50 1.366 . S
C51 H65 0.930 . S
C52 C49 1.378 . S
C52 N53 1.315 1_556 S
C52 H55 0.930 . S
N53 Co33 2.194 . S
N53 C48 1.328 . S
N53 C52 1.315 1_554 S
H54 C48 0.929 . S
H55 C52 0.930 . S
H56 C44 0.929 . S
H57 C46 0.929 . S
O58 Co33 2.351 . S
O58 C61 1.244 . S
O59 Co33 2.155 . S
O59 C61 1.240 . S
O60 Co33 2.096 . S
O60 C41 1.247 . S
C61 O58 1.244 . S
C61 O59 1.240 . S
H62 C36 0.931 . S
H63 C45 0.931 . S
H64 C49 0.929 . S
H65 C51 0.930 . S
Co66 N70 2.148 . S
Co66 N76 2.128 . S
Co66 N86 2.194 . S
Co66 O91 2.351 . S
Co66 O92 2.155 . S
Co66 O93 2.096 . S
C67 N70 1.301 . S
C67 N71 1.328 . S
C67 H72 0.930 . S
C68 C69 1.333 . S
C68 N70 1.317 . S
C68 H73 0.930 . S
C69 C68 1.333 . S
C69 N71 1.350 . S
C69 H95 0.931 . S
N70 Co66 2.148 . S
N70 C67 1.301 . S
N70 C68 1.317 . S
N71 C67 1.328 . S
N71 C69 1.350 . S
H72 C67 0.930 . S
H73 C68 0.930 . S
C74 O75 1.224 . S
C74 O93 1.247 . S
O75 C74 1.224 . S
N76 Co66 2.128 . S
N76 C77 1.355 . S
N76 C79 1.311 . S
C77 N76 1.355 . S
C77 C78 1.363 . S
C77 H89 0.929 . S
C78 C77 1.363 . S
C78 N80 1.375 . S
C78 H96 0.931 . S
C79 N76 1.311 . S
C79 N80 1.347 . S
C79 H90 0.929 . S
N80 C78 1.375 . S
N80 C79 1.347 . S
C81 C84 1.365 . S
C81 N86 1.328 . S
C81 H87 0.929 . S
C82 C83 1.362 . S
C82 C85 1.378 . S
C82 H97 0.929 . S
C83 C82 1.362 . S
C83 C84 1.366 . S
C84 C81 1.365 . S
C84 C83 1.366 . S
C84 H98 0.930 . S
C85 C82 1.378 . S
C85 N86 1.315 . S
C85 H88 0.930 . S
N86 Co66 2.194 . S
N86 C81 1.328 . S
N86 C85 1.315 . S
H87 C81 0.929 . S
H88 C85 0.930 . S
H89 C77 0.929 . S
H90 C79 0.929 . S
O91 Co66 2.351 . S
O91 C94 1.244 . S
O92 Co66 2.155 . S
O92 C94 1.240 . S
O93 Co66 2.096 . S
O93 C74 1.247 . S
C94 O91 1.244 . S
C94 O92 1.240 . S
H95 C69 0.931 . S
H96 C78 0.931 . S
H97 C82 0.929 . S
H98 C84 0.930 . S
Co99 N103 2.148 . S
Co99 N109 2.128 . S
Co99 N119 2.194 . S
Co99 O124 2.351 . S
Co99 O125 2.155 . S
Co99 O126 2.096 . S
C100 N103 1.301 . S
C100 N104 1.328 . S
C100 H105 0.930 . S
C101 C102 1.333 . S
C101 N103 1.317 . S
C101 H106 0.930 . S
C102 C101 1.333 . S
C102 N104 1.350 . S
C102 H128 0.931 . S
N103 Co99 2.148 . S
N103 C100 1.301 . S
N103 C101 1.317 . S
N104 C100 1.328 . S
N104 C102 1.350 . S
H105 C100 0.930 . S
H106 C101 0.930 . S
C107 O108 1.224 . S
C107 O126 1.247 . S
O108 C107 1.224 . S
N109 Co99 2.128 . S
N109 C110 1.355 . S
N109 C112 1.311 . S
C110 N109 1.355 . S
C110 C111 1.363 . S
C110 H122 0.929 . S
C111 C110 1.363 . S
C111 N113 1.375 . S
C111 H129 0.931 . S
C112 N109 1.311 . S
C112 N113 1.347 . S
C112 H123 0.929 . S
N113 C111 1.375 . S
N113 C112 1.347 . S
C114 C117 1.365 1_556 S
C114 N119 1.328 . S
C114 H120 0.929 . S
C115 C116 1.362 . S
C115 C118 1.378 . S
C115 H130 0.929 . S
C116 C115 1.362 . S
C116 C117 1.366 . S
C117 C114 1.365 1_554 S
C117 C116 1.366 . S
C117 H131 0.930 . S
C118 C115 1.378 . S
C118 N119 1.315 1_554 S
C118 H121 0.930 . S
N119 Co99 2.194 . S
N119 C114 1.328 . S
N119 C118 1.315 1_556 S
H120 C114 0.929 . S
H121 C118 0.930 . S
H122 C110 0.929 . S
H123 C112 0.929 . S
O124 Co99 2.351 . S
O124 C127 1.244 . S
O125 Co99 2.155 . S
O125 C127 1.240 . S
O126 Co99 2.096 . S
O126 C107 1.247 . S
C127 O124 1.244 . S
C127 O125 1.240 . S
H128 C102 0.931 . S
H129 C111 0.931 . S
H130 C115 0.929 . S
H131 C117 0.930 . S
Co132 N136 2.148 . S
Co132 N142 2.128 . S
Co132 N152 2.194 . S
Co132 O157 2.351 . S
Co132 O158 2.155 . S
Co132 O159 2.096 . S
C133 N136 1.301 . S
C133 N137 1.328 . S
C133 H138 0.930 . S
C134 C135 1.333 . S
C134 N136 1.317 . S
C134 H139 0.930 . S
C135 C134 1.333 . S
C135 N137 1.350 . S
C135 H161 0.931 . S
N136 Co132 2.148 . S
N136 C133 1.301 . S
N136 C134 1.317 . S
N137 C133 1.328 . S
N137 C135 1.350 . S
H138 C133 0.930 . S
H139 C134 0.930 . S
C140 O141 1.224 . S
C140 O159 1.247 . S
O141 C140 1.224 . S
N142 Co132 2.128 . S
N142 C143 1.355 . S
N142 C145 1.311 . S
C143 N142 1.355 . S
C143 C144 1.363 . S
C143 H155 0.929 . S
C144 C143 1.363 . S
C144 N146 1.375 . S
C144 H162 0.931 . S
C145 N142 1.311 . S
C145 N146 1.347 . S
C145 H156 0.929 . S
N146 C144 1.375 . S
N146 C145 1.347 . S
C147 C150 1.365 . S
C147 N152 1.328 . S
C147 H153 0.929 . S
C148 C149 1.362 . S
C148 C151 1.378 . S
C148 H163 0.929 . S
C149 C148 1.362 . S
C149 C150 1.366 . S
C150 C147 1.365 . S
C150 C149 1.366 . S
C150 H164 0.930 . S
C151 C148 1.378 . S
C151 N152 1.315 . S
C151 H154 0.930 . S
N152 Co132 2.194 . S
N152 C147 1.328 . S
N152 C151 1.315 . S
H153 C147 0.929 . S
H154 C151 0.930 . S
H155 C143 0.929 . S
H156 C145 0.929 . S
O157 Co132 2.351 . S
O157 C160 1.244 . S
O158 Co132 2.155 . S
O158 C160 1.240 . S
O159 Co132 2.096 . S
O159 C140 1.247 . S
C160 O157 1.244 . S
C160 O158 1.240 . S
H161 C135 0.931 . S
H162 C144 0.931 . S
H163 C148 0.929 . S
H164 C150 0.930 . S
Co165 N169 2.148 . S
Co165 N175 2.128 . S
Co165 N185 2.194 . S
Co165 O190 2.351 . S
Co165 O191 2.155 . S
Co165 O192 2.096 . S
C166 N169 1.301 . S
C166 N170 1.328 . S
C166 H171 0.930 . S
C167 C168 1.333 . S
C167 N169 1.317 . S
C167 H172 0.930 . S
C168 C167 1.333 . S
C168 N170 1.350 . S
C168 H194 0.931 . S
N169 Co165 2.148 . S
N169 C166 1.301 . S
N169 C167 1.317 . S
N170 C166 1.328 . S
N170 C168 1.350 . S
H171 C166 0.930 . S
H172 C167 0.930 . S
C173 O174 1.224 . S
C173 O192 1.247 . S
O174 C173 1.224 . S
N175 Co165 2.128 . S
N175 C176 1.355 . S
N175 C178 1.311 . S
C176 N175 1.355 . S
C176 C177 1.363 . S
C176 H188 0.929 . S
C177 C176 1.363 . S
C177 N179 1.375 . S
C177 H195 0.931 . S
C178 N175 1.311 . S
C178 N179 1.347 . S
C178 H189 0.929 . S
N179 C177 1.375 . S
N179 C178 1.347 . S
C180 C183 1.365 1_554 S
C180 N185 1.328 . S
C180 H186 0.929 . S
C181 C182 1.362 . S
C181 C184 1.378 . S
C181 H196 0.929 . S
C182 C181 1.362 . S
C182 C183 1.366 . S
C183 C180 1.365 1_556 S
C183 C182 1.366 . S
C183 H197 0.930 . S
C184 C181 1.378 . S
C184 N185 1.315 1_556 S
C184 H187 0.930 . S
N185 Co165 2.194 . S
N185 C180 1.328 . S
N185 C184 1.315 1_554 S
H186 C180 0.929 . S
H187 C184 0.930 . S
H188 C176 0.929 . S
H189 C178 0.929 . S
O190 Co165 2.351 . S
O190 C193 1.244 . S
O191 Co165 2.155 . S
O191 C193 1.240 . S
O192 Co165 2.096 . S
O192 C173 1.247 . S
C193 O190 1.244 . S
C193 O191 1.240 . S
H194 C168 0.931 . S
H195 C177 0.931 . S
H196 C181 0.929 . S
H197 C183 0.930 . S
Co198 N202 2.148 . S
Co198 N208 2.128 . S
Co198 N218 2.194 . S
Co198 O223 2.351 . S
Co198 O224 2.155 . S
Co198 O225 2.096 . S
C199 N202 1.301 . S
C199 N203 1.328 . S
C199 H204 0.930 . S
C200 C201 1.333 . S
C200 N202 1.317 . S
C200 H205 0.930 . S
C201 C200 1.333 . S
C201 N203 1.350 . S
C201 H227 0.931 . S
N202 Co198 2.148 . S
N202 C199 1.301 . S
N202 C200 1.317 . S
N203 C199 1.328 . S
N203 C201 1.350 . S
H204 C199 0.930 . S
H205 C200 0.930 . S
C206 O207 1.224 . S
C206 O225 1.247 . S
O207 C206 1.224 . S
N208 Co198 2.128 . S
N208 C209 1.355 . S
N208 C211 1.311 . S
C209 N208 1.355 . S
C209 C210 1.363 . S
C209 H221 0.929 . S
C210 C209 1.363 . S
C210 N212 1.375 . S
C210 H228 0.931 . S
C211 N208 1.311 . S
C211 N212 1.347 . S
C211 H222 0.929 . S
N212 C210 1.375 . S
N212 C211 1.347 . S
C213 C216 1.365 . S
C213 N218 1.328 . S
C213 H219 0.929 . S
C214 C215 1.362 . S
C214 C217 1.378 . S
C214 H229 0.929 . S
C215 C214 1.362 . S
C215 C216 1.366 . S
C216 C213 1.365 . S
C216 C215 1.366 . S
C216 H230 0.930 . S
C217 C214 1.378 . S
C217 N218 1.315 . S
C217 H220 0.930 . S
N218 Co198 2.194 . S
N218 C213 1.328 . S
N218 C217 1.315 . S
H219 C213 0.929 . S
H220 C217 0.930 . S
H221 C209 0.929 . S
H222 C211 0.929 . S
O223 Co198 2.351 . S
O223 C226 1.244 . S
O224 Co198 2.155 . S
O224 C226 1.240 . S
O225 Co198 2.096 . S
O225 C206 1.247 . S
C226 O223 1.244 . S
C226 O224 1.240 . S
H227 C201 0.931 . S
H228 C210 0.931 . S
H229 C214 0.929 . S
H230 C216 0.930 . S
Co231 N235 2.148 . S
Co231 N241 2.128 . S
Co231 N251 2.194 . S
Co231 O256 2.351 . S
Co231 O257 2.155 . S
Co231 O258 2.096 . S
C232 N235 1.301 . S
C232 N236 1.328 . S
C232 H237 0.930 . S
C233 C234 1.333 . S
C233 N235 1.317 . S
C233 H238 0.930 . S
C234 C233 1.333 . S
C234 N236 1.350 . S
C234 H260 0.931 . S
N235 Co231 2.148 . S
N235 C232 1.301 . S
N235 C233 1.317 . S
N236 C232 1.328 . S
N236 C234 1.350 . S
H237 C232 0.930 . S
H238 C233 0.930 . S
C239 O240 1.224 . S
C239 O258 1.247 . S
O240 C239 1.224 . S
N241 Co231 2.128 . S
N241 C242 1.355 . S
N241 C244 1.311 . S
C242 N241 1.355 . S
C242 C243 1.363 . S
C242 H254 0.929 . S
C243 C242 1.363 . S
C243 N245 1.375 . S
C243 H261 0.931 . S
C244 N241 1.311 . S
C244 N245 1.347 . S
C244 H255 0.929 . S
N245 C243 1.375 . S
N245 C244 1.347 . S
C246 C249 1.365 1_556 S
C246 N251 1.328 . S
C246 H252 0.929 . S
C247 C248 1.362 . S
C247 C250 1.378 . S
C247 H262 0.929 . S
C248 C247 1.362 . S
C248 C249 1.366 . S
C249 C246 1.365 1_554 S
C249 C248 1.366 . S
C249 H263 0.930 . S
C250 C247 1.378 . S
C250 N251 1.315 1_554 S
C250 H253 0.930 . S
N251 Co231 2.194 . S
N251 C246 1.328 . S
N251 C250 1.315 1_556 S
H252 C246 0.929 . S
H253 C250 0.930 . S
H254 C242 0.929 . S
H255 C244 0.929 . S
O256 Co231 2.351 . S
O256 C259 1.244 . S
O257 Co231 2.155 . S
O257 C259 1.240 . S
O258 Co231 2.096 . S
O258 C239 1.247 . S
C259 O256 1.244 . S
C259 O257 1.240 . S
H260 C234 0.931 . S
H261 C243 0.931 . S
H262 C247 0.929 . S
H263 C249 0.930 . S
H264 C282 0.953 1_545 S
H265 C284 0.951 . S
H266 C286 0.950 . S
H267 C287 0.950 . S
H268 C289 0.950 . S
H269 C292 0.950 . S
H270 C293 0.950 . S
H271 C295 0.950 . S
H272 C296 0.950 . S
H273 C297 0.951 . S
H274 C299 0.951 . S
H275 C301 0.950 . S
H276 C302 0.950 . S
H277 C304 0.950 . S
H278 C307 0.950 . S
H279 C308 0.950 . S
H280 C310 0.950 . S
H281 C311 0.950 1_565 S
C282 H264 0.953 1_565 S
C282 C283 1.366 . S
C282 C284 1.388 1_565 S
C283 C282 1.366 . S
C283 C287 1.385 . S
C284 H265 0.951 . S
C284 C282 1.388 1_545 S
C284 C285 1.366 1_545 S
C285 C284 1.366 1_565 S
C285 C286 1.414 . S
C285 C288 1.492 1_565 S
C286 H266 0.950 . S
C286 C285 1.414 . S
C286 C287 1.374 . S
C287 H267 0.950 . S
C287 C283 1.385 . S
C287 C286 1.374 . S
C288 C285 1.492 1_545 S
C288 C289 1.379 . S
C288 C290 1.393 . S
C289 H268 0.950 . S
C289 C288 1.379 . S
C289 C305 1.377 . S
C290 C288 1.393 . S
C290 C291 1.524 1_545 S
C290 C304 1.377 . S
C291 C290 1.524 1_565 S
C291 C292 1.397 . S
C291 C296 1.363 1_565 S
C292 H269 0.950 . S
C292 C291 1.397 . S
C292 C293 1.334 . S
C293 H270 0.950 . S
C293 C292 1.334 . S
C293 C294 1.287 . S
C294 C293 1.287 . S
C294 C295 1.524 1_565 S
C294 H313 0.913 . S
C295 H271 0.950 . S
C295 C294 1.524 1_545 S
C295 C296 1.415 . S
C296 H272 0.950 . S
C296 C291 1.363 1_545 S
C296 C295 1.415 . S
C297 H273 0.951 . S
C297 C298 1.366 . S
C297 C299 1.388 . S
C298 C297 1.366 . S
C298 C302 1.385 . S
C299 H274 0.951 . S
C299 C297 1.388 . S
C299 C300 1.366 . S
C300 C299 1.366 . S
C300 C301 1.414 . S
C300 C303 1.499 . S
C301 H275 0.950 . S
C301 C300 1.414 . S
C301 C302 1.374 . S
C302 H276 0.950 . S
C302 C298 1.385 . S
C302 C301 1.374 . S
C303 C300 1.499 . S
C303 C304 1.373 . S
C303 C305 1.389 . S
C304 H277 0.950 . S
C304 C290 1.377 . S
C304 C303 1.373 . S
C305 C289 1.377 . S
C305 C303 1.389 . S
C305 C306 1.524 . S
C306 C305 1.524 . S
C306 C307 1.397 . S
C306 C311 1.363 . S
C307 H278 0.950 . S
C307 C306 1.397 . S
C307 C308 1.334 . S
C308 H279 0.950 . S
C308 C307 1.334 . S
C308 C309 1.287 . S
C309 C308 1.287 . S
C309 C310 1.524 . S
C309 H312 0.999 . S
C310 H280 0.950 . S
C310 C309 1.524 . S
C310 C311 1.415 . S
C311 H281 0.950 1_545 S
C311 C306 1.363 . S
C311 C310 1.415 . S
H312 C309 0.999 . S
H313 C294 0.913 . S
H314 C332 0.951 . S
H315 C334 0.951 . S
H316 C336 0.950 . S
H317 C337 0.950 . S
H318 C339 0.950 . S
H319 C342 0.950 . S
H320 C343 0.950 . S
H321 C345 0.950 . S
H322 C346 0.950 . S
H323 C347 0.951 . S
H324 C349 0.951 . S
H325 C351 0.950 1_545 S
H326 C352 0.950 . S
H327 C354 0.950 . S
H328 C357 0.950 . S
H329 C358 0.950 . S
H330 C360 0.950 . S
H331 C361 0.950 . S
C332 H314 0.951 . S
C332 C333 1.366 . S
C332 C334 1.388 . S
C333 C332 1.366 . S
C333 C337 1.385 . S
C334 H315 0.951 . S
C334 C332 1.388 . S
C334 C335 1.366 . S
C335 C334 1.366 . S
C335 C336 1.414 . S
C335 C338 1.499 . S
C336 H316 0.950 . S
C336 C335 1.414 . S
C336 C337 1.374 . S
C337 H317 0.950 . S
C337 C333 1.385 . S
C337 C336 1.374 . S
C338 C335 1.499 . S
C338 C339 1.373 1_545 S
C338 C340 1.389 . S
C339 H318 0.950 . S
C339 C338 1.373 1_565 S
C339 C355 1.377 . S
C340 C338 1.389 . S
C340 C341 1.524 . S
C340 C354 1.377 . S
C341 C340 1.524 . S
C341 C342 1.397 . S
C341 C346 1.363 . S
C342 H319 0.950 . S
C342 C341 1.397 . S
C342 C343 1.334 . S
C343 H320 0.950 . S
C343 C342 1.334 . S
C343 C344 1.287 . S
C344 C343 1.287 . S
C344 C345 1.524 . S
C344 H363 0.913 . S
C345 H321 0.950 . S
C345 C344 1.524 . S
C345 C346 1.415 . S
C346 H322 0.950 . S
C346 C341 1.363 . S
C346 C345 1.415 . S
C347 H323 0.951 . S
C347 C348 1.366 . S
C347 C349 1.388 . S
C348 C347 1.366 . S
C348 C352 1.385 . S
C349 H324 0.951 . S
C349 C347 1.388 . S
C349 C350 1.366 . S
C350 C349 1.366 . S
C350 C351 1.414 . S
C350 C353 1.483 1_565 S
C351 H325 0.950 1_565 S
C351 C350 1.414 . S
C351 C352 1.374 . S
C352 H326 0.950 . S
C352 C348 1.385 . S
C352 C351 1.374 . S
C353 C350 1.483 1_545 S
C353 C354 1.415 . S
C353 C355 1.366 1_545 S
C354 H327 0.950 . S
C354 C340 1.377 . S
C354 C353 1.415 . S
C355 C339 1.377 . S
C355 C353 1.366 1_565 S
C355 C356 1.524 . S
C356 C355 1.524 . S
C356 C357 1.397 . S
C356 C361 1.363 . S
C357 H328 0.950 . S
C357 C356 1.397 . S
C357 C358 1.334 . S
C358 H329 0.950 . S
C358 C357 1.334 . S
C358 C359 1.287 . S
C359 C358 1.287 . S
C359 C360 1.524 . S
C359 H362 0.999 . S
C360 H330 0.950 . S
C360 C359 1.524 . S
C360 C361 1.415 . S
C361 H331 0.950 . S
C361 C356 1.363 . S
C361 C360 1.415 . S
H362 C359 0.999 . S
H363 C344 0.913 . S
H364 C382 0.951 . S
H365 C384 0.951 . S
H366 C386 0.950 . S
H367 C387 0.950 . S
H368 C389 0.950 . S
H369 C392 0.950 . S
H370 C393 0.950 . S
H371 C395 0.950 . S
H372 C396 0.950 1_545 S
H373 C397 0.937 1_565 S
H374 C399 0.951 . S
H375 C401 0.950 . S
H376 C402 0.950 . S
H377 C404 0.950 . S
H378 C407 0.950 . S
H379 C408 0.950 . S
H380 C410 0.950 . S
H381 C411 0.950 . S
C382 H364 0.951 . S
C382 C383 1.366 . S
C382 C384 1.388 . S
C383 C382 1.366 . S
C383 C387 1.385 . S
C384 H365 0.951 . S
C384 C382 1.388 . S
C384 C385 1.366 . S
C385 C384 1.366 . S
C385 C386 1.414 . S
C385 C388 1.499 . S
C386 H366 0.950 . S
C386 C385 1.414 . S
C386 C387 1.374 . S
C387 H367 0.950 . S
C387 C383 1.385 . S
C387 C386 1.374 . S
C388 C385 1.499 . S
C388 C389 1.373 . S
C388 C390 1.389 . S
C389 H368 0.950 . S
C389 C388 1.373 . S
C389 C405 1.377 . S
C390 C388 1.389 . S
C390 C391 1.524 . S
C390 C404 1.377 . S
C391 C390 1.524 . S
C391 C392 1.397 . S
C391 C396 1.363 . S
C392 H369 0.950 . S
C392 C391 1.397 . S
C392 C393 1.334 . S
C393 H370 0.950 . S
C393 C392 1.334 . S
C393 C394 1.287 . S
C394 C393 1.287 . S
C394 C395 1.524 . S
C394 H413 0.913 . S
C395 H371 0.950 . S
C395 C394 1.524 . S
C395 C396 1.415 . S
C396 H372 0.950 1_565 S
C396 C391 1.363 . S
C396 C395 1.415 . S
C397 H373 0.937 1_545 S
C397 C398 1.366 . S
C397 C399 1.388 1_545 S
C398 C397 1.366 . S
C398 C402 1.385 . S
C399 H374 0.951 . S
C399 C397 1.388 1_565 S
C399 C400 1.366 1_565 S
C400 C399 1.366 1_545 S
C400 C401 1.414 . S
C400 C403 1.492 1_545 S
C401 H375 0.950 . S
C401 C400 1.414 . S
C401 C402 1.374 . S
C402 H376 0.950 . S
C402 C398 1.385 . S
C402 C401 1.374 . S
C403 C400 1.492 1_565 S
C403 C404 1.378 . S
C403 C405 1.393 . S
C404 H377 0.950 . S
C404 C390 1.377 . S
C404 C403 1.378 . S
C405 C389 1.377 . S
C405 C403 1.393 . S
C405 C406 1.524 1_565 S
C406 C405 1.524 1_545 S
C406 C407 1.397 . S
C406 C411 1.363 1_545 S
C407 H378 0.950 . S
C407 C406 1.397 . S
C407 C408 1.334 . S
C408 H379 0.950 . S
C408 C407 1.334 . S
C408 C409 1.287 . S
C409 C408 1.287 . S
C409 C410 1.524 1_545 S
C409 H412 0.999 . S
C410 H380 0.950 . S
C410 C409 1.524 1_565 S
C410 C411 1.415 . S
C411 H381 0.950 . S
C411 C406 1.363 1_565 S
C411 C410 1.415 . S
H412 C409 0.999 . S
H413 C394 0.913 . S
H414 C432 0.951 . S
H415 C434 0.951 . S
H416 C436 0.950 . S
H417 C437 0.950 . S
H418 C439 0.950 . S
H419 C442 0.950 . S
H420 C443 0.950 . S
H421 C445 0.950 . S
H422 C446 0.950 . S
H423 C447 0.951 . S
H424 C449 0.951 1_565 S
H425 C451 0.950 . S
H426 C452 0.950 . S
H427 C454 0.950 . S
H428 C457 0.950 . S
H429 C458 0.950 . S
H430 C460 0.950 . S
H431 C461 0.950 1_565 S
C432 H414 0.951 . S
C432 C433 1.366 . S
C432 C434 1.388 . S
C433 C432 1.366 . S
C433 C437 1.385 . S
C434 H415 0.951 . S
C434 C432 1.388 . S
C434 C435 1.366 . S
C435 C434 1.366 . S
C435 C436 1.414 . S
C435 C438 1.499 . S
C436 H416 0.950 . S
C436 C435 1.414 . S
C436 C437 1.374 . S
C437 H417 0.950 . S
C437 C433 1.385 . S
C437 C436 1.374 . S
C438 C435 1.499 . S
C438 C439 1.373 . S
C438 C440 1.389 . S
C439 H418 0.950 . S
C439 C438 1.373 . S
C439 C455 1.377 1_565 S
C440 C438 1.389 . S
C440 C441 1.524 . S
C440 C454 1.377 . S
C441 C440 1.524 . S
C441 C442 1.397 . S
C441 C446 1.363 . S
C442 H419 0.950 . S
C442 C441 1.397 . S
C442 C443 1.334 . S
C443 H420 0.950 . S
C443 C442 1.334 . S
C443 C444 1.287 . S
C444 C443 1.287 . S
C444 C445 1.524 . S
C444 H463 0.913 . S
C445 H421 0.950 . S
C445 C444 1.524 . S
C445 C446 1.415 . S
C446 H422 0.950 . S
C446 C441 1.363 . S
C446 C445 1.415 . S
C447 H423 0.951 . S
C447 C448 1.366 . S
C447 C449 1.388 . S
C448 C447 1.366 . S
C448 C452 1.385 . S
C449 H424 0.951 1_545 S
C449 C447 1.388 . S
C449 C450 1.366 . S
C450 C449 1.366 . S
C450 C451 1.414 . S
C450 C453 1.493 1_545 S
C451 H425 0.950 . S
C451 C450 1.414 . S
C451 C452 1.374 . S
C452 H426 0.950 . S
C452 C448 1.385 . S
C452 C451 1.374 . S
C453 C450 1.493 1_565 S
C453 C454 1.381 . S
C453 C455 1.388 1_565 S
C454 H427 0.950 . S
C454 C440 1.377 . S
C454 C453 1.381 . S
C455 C439 1.377 1_545 S
C455 C453 1.388 1_545 S
C455 C456 1.524 . S
C456 C455 1.524 . S
C456 C457 1.397 . S
C456 C461 1.363 . S
C457 H428 0.950 . S
C457 C456 1.397 . S
C457 C458 1.334 . S
C458 H429 0.950 . S
C458 C457 1.334 . S
C458 C459 1.287 . S
C459 C458 1.287 . S
C459 C460 1.524 . S
C459 H462 0.999 . S
C460 H430 0.950 . S
C460 C459 1.524 . S
C460 C461 1.415 . S
C461 H431 0.950 1_545 S
C461 C456 1.363 . S
C461 C460 1.415 . S
H462 C459 0.999 . S
H463 C444 0.913 . S
H464 C482 0.951 . S
H465 C484 0.951 . S
H466 C486 0.950 . S
H467 C487 0.950 . S
H468 C489 0.950 . S
H469 C492 0.950 . S
H470 C493 0.950 . S
H471 C495 0.950 . S
H472 C496 0.950 . S
H473 C497 0.951 . S
H474 C499 0.951 . S
H475 C501 0.950 . S
H476 C502 0.950 . S
H477 C504 0.950 . S
H478 C507 0.950 . S
H479 C508 0.950 . S
H480 C510 0.950 . S
H481 C511 0.950 . S
C482 H464 0.951 . S
C482 C483 1.366 . S
C482 C484 1.388 . S
C483 C482 1.366 . S
C483 C487 1.385 . S
C484 H465 0.951 . S
C484 C482 1.388 . S
C484 C485 1.366 . S
C485 C484 1.366 . S
C485 C486 1.414 . S
C485 C488 1.499 . S
C486 H466 0.950 . S
C486 C485 1.414 . S
C486 C487 1.374 . S
C487 H467 0.950 . S
C487 C483 1.385 . S
C487 C486 1.374 . S
C488 C485 1.499 . S
C488 C489 1.373 . S
C488 C490 1.389 . S
C489 H468 0.950 . S
C489 C488 1.373 . S
C489 C505 1.377 . S
C490 C488 1.389 . S
C490 C491 1.524 . S
C490 C504 1.377 . S
C491 C490 1.524 . S
C491 C492 1.397 . S
C491 C496 1.363 . S
C492 H469 0.950 . S
C492 C491 1.397 . S
C492 C493 1.334 . S
C493 H470 0.950 . S
C493 C492 1.334 . S
C493 C494 1.287 . S
C494 C493 1.287 . S
C494 C495 1.524 . S
C494 H513 0.913 . S
C495 H471 0.950 . S
C495 C494 1.524 . S
C495 C496 1.415 . S
C496 H472 0.950 . S
C496 C491 1.363 . S
C496 C495 1.415 . S
C497 H473 0.951 . S
C497 C498 1.366 . S
C497 C499 1.388 . S
C498 C497 1.366 . S
C498 C502 1.385 . S
C499 H474 0.951 . S
C499 C497 1.388 . S
C499 C500 1.366 . S
C500 C499 1.366 . S
C500 C501 1.414 . S
C500 C503 1.499 . S
C501 H475 0.950 . S
C501 C500 1.414 . S
C501 C502 1.374 . S
C502 H476 0.950 . S
C502 C498 1.385 . S
C502 C501 1.374 . S
C503 C500 1.499 . S
C503 C504 1.373 . S
C503 C505 1.389 . S
C504 H477 0.950 . S
C504 C490 1.377 . S
C504 C503 1.373 . S
C505 C489 1.377 . S
C505 C503 1.389 . S
C505 C506 1.524 . S
C506 C505 1.524 . S
C506 C507 1.397 . S
C506 C511 1.363 . S
C507 H478 0.950 . S
C507 C506 1.397 . S
C507 C508 1.334 . S
C508 H479 0.950 . S
C508 C507 1.334 . S
C508 C509 1.287 . S
C509 C508 1.287 . S
C509 C510 1.524 . S
C509 H512 0.999 . S
C510 H480 0.950 . S
C510 C509 1.524 . S
C510 C511 1.415 . S
C511 H481 0.950 . S
C511 C506 1.363 . S
C511 C510 1.415 . S
H512 C509 0.999 . S
H513 C494 0.913 . S
H514 C532 0.951 . S
H515 C534 0.951 . S
H516 C536 0.950 . S
H517 C537 0.950 . S
H518 C539 0.950 . S
H519 C542 0.950 . S
H520 C543 0.950 . S
H521 C545 0.950 . S
H522 C546 0.950 . S
H523 C547 0.951 . S
H524 C549 0.951 . S
H525 C551 0.950 . S
H526 C552 0.950 . S
H527 C554 0.950 . S
H528 C557 0.950 . S
H529 C558 0.950 . S
H530 C560 0.950 . S
H531 C561 0.950 . S
C532 H514 0.951 . S
C532 C533 1.366 . S
C532 C534 1.388 . S
C533 C532 1.366 . S
C533 C537 1.385 . S
C534 H515 0.951 . S
C534 C532 1.388 . S
C534 C535 1.366 . S
C535 C534 1.366 . S
C535 C536 1.414 . S
C535 C538 1.499 . S
C536 H516 0.950 . S
C536 C535 1.414 . S
C536 C537 1.374 . S
C537 H517 0.950 . S
C537 C533 1.385 . S
C537 C536 1.374 . S
C538 C535 1.499 . S
C538 C539 1.373 . S
C538 C540 1.389 . S
C539 H518 0.950 . S
C539 C538 1.373 . S
C539 C555 1.377 . S
C540 C538 1.389 . S
C540 C541 1.524 . S
C540 C554 1.377 . S
C541 C540 1.524 . S
C541 C542 1.397 . S
C541 C546 1.363 . S
C542 H519 0.950 . S
C542 C541 1.397 . S
C542 C543 1.334 . S
C543 H520 0.950 . S
C543 C542 1.334 . S
C543 C544 1.287 . S
C544 C543 1.287 . S
C544 C545 1.524 . S
C544 H563 0.913 . S
C545 H521 0.950 . S
C545 C544 1.524 . S
C545 C546 1.415 . S
C546 H522 0.950 . S
C546 C541 1.363 . S
C546 C545 1.415 . S
C547 H523 0.951 . S
C547 C548 1.366 . S
C547 C549 1.388 . S
C548 C547 1.366 . S
C548 C552 1.385 . S
C549 H524 0.951 . S
C549 C547 1.388 . S
C549 C550 1.366 . S
C550 C549 1.366 . S
C550 C551 1.414 . S
C550 C553 1.499 . S
C551 H525 0.950 . S
C551 C550 1.414 . S
C551 C552 1.374 . S
C552 H526 0.950 . S
C552 C548 1.385 . S
C552 C551 1.374 . S
C553 C550 1.499 . S
C553 C554 1.373 . S
C553 C555 1.389 . S
C554 H527 0.950 . S
C554 C540 1.377 . S
C554 C553 1.373 . S
C555 C539 1.377 . S
C555 C553 1.389 . S
C555 C556 1.524 . S
C556 C555 1.524 . S
C556 C557 1.397 . S
C556 C561 1.363 . S
C557 H528 0.950 . S
C557 C556 1.397 . S
C557 C558 1.334 . S
C558 H529 0.950 . S
C558 C557 1.334 . S
C558 C559 1.287 . S
C559 C558 1.287 . S
C559 C560 1.524 . S
C559 H562 0.999 . S
C560 H530 0.950 . S
C560 C559 1.524 . S
C560 C561 1.415 . S
C561 H531 0.950 . S
C561 C556 1.363 . S
C561 C560 1.415 . S
H562 C559 0.999 . S
H563 C544 0.913 . S
H564 C582 0.951 . S
H565 C584 0.951 . S
H566 C586 0.950 . S
H567 C587 0.950 . S
H568 C589 0.950 . S
H569 C592 0.950 . S
H570 C593 0.950 . S
H571 C595 0.950 . S
H572 C596 0.950 . S
H573 C597 0.951 . S
H574 C599 0.951 . S
H575 C601 0.950 . S
H576 C602 0.950 . S
H577 C604 0.950 . S
H578 C607 0.950 . S
H579 C608 0.950 . S
H580 C610 0.950 . S
H581 C611 0.950 . S
C582 H564 0.951 . S
C582 C583 1.366 . S
C582 C584 1.388 . S
C583 C582 1.366 . S
C583 C587 1.385 . S
C584 H565 0.951 . S
C584 C582 1.388 . S
C584 C585 1.366 . S
C585 C584 1.366 . S
C585 C586 1.414 . S
C585 C588 1.499 . S
C586 H566 0.950 . S
C586 C585 1.414 . S
C586 C587 1.374 . S
C587 H567 0.950 . S
C587 C583 1.385 . S
C587 C586 1.374 . S
C588 C585 1.499 . S
C588 C589 1.373 . S
C588 C590 1.389 . S
C589 H568 0.950 . S
C589 C588 1.373 . S
C589 C605 1.377 . S
C590 C588 1.389 . S
C590 C591 1.524 . S
C590 C604 1.377 . S
C591 C590 1.524 . S
C591 C592 1.397 . S
C591 C596 1.363 . S
C592 H569 0.950 . S
C592 C591 1.397 . S
C592 C593 1.334 . S
C593 H570 0.950 . S
C593 C592 1.334 . S
C593 C594 1.287 . S
C594 C593 1.287 . S
C594 C595 1.524 . S
C594 H613 0.913 . S
C595 H571 0.950 . S
C595 C594 1.524 . S
C595 C596 1.415 . S
C596 H572 0.950 . S
C596 C591 1.363 . S
C596 C595 1.415 . S
C597 H573 0.951 . S
C597 C598 1.366 . S
C597 C599 1.388 . S
C598 C597 1.366 . S
C598 C602 1.385 . S
C599 H574 0.951 . S
C599 C597 1.388 . S
C599 C600 1.366 . S
C600 C599 1.366 . S
C600 C601 1.414 . S
C600 C603 1.499 . S
C601 H575 0.950 . S
C601 C600 1.414 . S
C601 C602 1.374 . S
C602 H576 0.950 . S
C602 C598 1.385 . S
C602 C601 1.374 . S
C603 C600 1.499 . S
C603 C604 1.373 . S
C603 C605 1.389 . S
C604 H577 0.950 . S
C604 C590 1.377 . S
C604 C603 1.373 . S
C605 C589 1.377 . S
C605 C603 1.389 . S
C605 C606 1.524 . S
C606 C605 1.524 . S
C606 C607 1.397 . S
C606 C611 1.363 . S
C607 H578 0.950 . S
C607 C606 1.397 . S
C607 C608 1.334 . S
C608 H579 0.950 . S
C608 C607 1.334 . S
C608 C609 1.287 . S
C609 C608 1.287 . S
C609 C610 1.524 . S
C609 H612 0.999 . S
C610 H580 0.950 . S
C610 C609 1.524 . S
C610 C611 1.415 . S
C611 H581 0.950 . S
C611 C606 1.363 . S
C611 C610 1.415 . S
H612 C609 0.999 . S
H613 C594 0.913 . S
H614 C632 0.951 . S
H615 C634 0.951 . S
H616 C636 0.950 . S
H617 C637 0.950 . S
H618 C639 0.950 . S
H619 C642 0.950 . S
H620 C643 0.950 . S
H621 C645 0.950 . S
H622 C646 0.950 . S
H623 C647 0.951 . S
H624 C649 0.951 . S
H625 C651 0.950 . S
H626 C652 0.950 . S
H627 C654 0.950 . S
H628 C657 0.950 . S
H629 C658 0.950 . S
H630 C660 0.950 . S
H631 C661 0.950 . S
C632 H614 0.951 . S
C632 C633 1.366 . S
C632 C634 1.388 . S
C633 C632 1.366 . S
C633 C637 1.385 . S
C634 H615 0.951 . S
C634 C632 1.388 . S
C634 C635 1.366 . S
C635 C634 1.366 . S
C635 C636 1.414 . S
C635 C638 1.499 . S
C636 H616 0.950 . S
C636 C635 1.414 . S
C636 C637 1.374 . S
C637 H617 0.950 . S
C637 C633 1.385 . S
C637 C636 1.374 . S
C638 C635 1.499 . S
C638 C639 1.373 . S
C638 C640 1.389 . S
C639 H618 0.950 . S
C639 C638 1.373 . S
C639 C655 1.377 . S
C640 C638 1.389 . S
C640 C641 1.524 . S
C640 C654 1.377 . S
C641 C640 1.524 . S
C641 C642 1.397 . S
C641 C646 1.363 . S
C642 H619 0.950 . S
C642 C641 1.397 . S
C642 C643 1.334 . S
C643 H620 0.950 . S
C643 C642 1.334 . S
C643 C644 1.287 . S
C644 C643 1.287 . S
C644 C645 1.524 . S
C644 H663 0.913 . S
C645 H621 0.950 . S
C645 C644 1.524 . S
C645 C646 1.415 . S
C646 H622 0.950 . S
C646 C641 1.363 . S
C646 C645 1.415 . S
C647 H623 0.951 . S
C647 C648 1.366 . S
C647 C649 1.388 . S
C648 C647 1.366 . S
C648 C652 1.385 . S
C649 H624 0.951 . S
C649 C647 1.388 . S
C649 C650 1.366 . S
C650 C649 1.366 . S
C650 C651 1.414 . S
C650 C653 1.499 . S
C651 H625 0.950 . S
C651 C650 1.414 . S
C651 C652 1.374 . S
C652 H626 0.950 . S
C652 C648 1.385 . S
C652 C651 1.374 . S
C653 C650 1.499 . S
C653 C654 1.373 . S
C653 C655 1.389 . S
C654 H627 0.950 . S
C654 C640 1.377 . S
C654 C653 1.373 . S
C655 C639 1.377 . S
C655 C653 1.389 . S
C655 C656 1.524 . S
C656 C655 1.524 . S
C656 C657 1.397 . S
C656 C661 1.363 . S
C657 H628 0.950 . S
C657 C656 1.397 . S
C657 C658 1.334 . S
C658 H629 0.950 . S
C658 C657 1.334 . S
C658 C659 1.287 . S
C659 C658 1.287 . S
C659 C660 1.524 . S
C659 H662 0.999 . S
C660 H630 0.950 . S
C660 C659 1.524 . S
C660 C661 1.415 . S
C661 H631 0.950 . S
C661 C656 1.363 . S
C661 C660 1.415 . S
H662 C659 0.999 . S
H663 C644 0.913 . S
H664 C682 0.951 . S
H665 C684 0.951 . S
H666 C686 0.950 . S
H667 C687 0.950 . S
H668 C689 0.950 . S
H669 C692 0.950 . S
H670 C693 0.950 . S
H671 C695 0.950 . S
H672 C696 0.950 . S
H673 C697 0.951 . S
H674 C699 0.951 . S
H675 C701 0.950 . S
H676 C702 0.950 . S
H677 C704 0.950 . S
H678 C707 0.950 . S
H679 C708 0.950 . S
H680 C710 0.950 . S
H681 C711 0.950 . S
C682 H664 0.951 . S
C682 C683 1.366 . S
C682 C684 1.388 . S
C683 C682 1.366 . S
C683 C687 1.385 . S
C684 H665 0.951 . S
C684 C682 1.388 . S
C684 C685 1.366 . S
C685 C684 1.366 . S
C685 C686 1.414 . S
C685 C688 1.499 . S
C686 H666 0.950 . S
C686 C685 1.414 . S
C686 C687 1.374 . S
C687 H667 0.950 . S
C687 C683 1.385 . S
C687 C686 1.374 . S
C688 C685 1.499 . S
C688 C689 1.373 1_565 S
C688 C690 1.389 . S
C689 H668 0.950 . S
C689 C688 1.373 1_545 S
C689 C705 1.377 . S
C690 C688 1.389 . S
C690 C691 1.524 . S
C690 C704 1.377 . S
C691 C690 1.524 . S
C691 C692 1.397 . S
C691 C696 1.363 . S
C692 H669 0.950 . S
C692 C691 1.397 . S
C692 C693 1.334 . S
C693 H670 0.950 . S
C693 C692 1.334 . S
C693 C694 1.287 . S
C694 C693 1.287 . S
C694 C695 1.524 . S
C694 H713 0.913 . S
C695 H671 0.950 . S
C695 C694 1.524 . S
C695 C696 1.415 . S
C696 H672 0.950 . S
C696 C691 1.363 . S
C696 C695 1.415 . S
C697 H673 0.951 . S
C697 C698 1.366 . S
C697 C699 1.388 . S
C698 C697 1.366 . S
C698 C702 1.385 . S
C699 H674 0.951 . S
C699 C697 1.388 . S
C699 C700 1.366 . S
C700 C699 1.366 . S
C700 C701 1.414 . S
C700 C703 1.499 . S
C701 H675 0.950 . S
C701 C700 1.414 . S
C701 C702 1.374 . S
C702 H676 0.950 . S
C702 C698 1.385 . S
C702 C701 1.374 . S
C703 C700 1.499 . S
C703 C704 1.373 1_545 S
C703 C705 1.389 . S
C704 H677 0.950 . S
C704 C690 1.377 . S
C704 C703 1.373 1_565 S
C705 C689 1.377 . S
C705 C703 1.389 . S
C705 C706 1.524 . S
C706 C705 1.524 . S
C706 C707 1.397 . S
C706 C711 1.363 . S
C707 H678 0.950 . S
C707 C706 1.397 . S
C707 C708 1.334 . S
C708 H679 0.950 . S
C708 C707 1.334 . S
C708 C709 1.287 . S
C709 C708 1.287 . S
C709 C710 1.524 . S
C709 H712 0.999 . S
C710 H680 0.950 . S
C710 C709 1.524 . S
C710 C711 1.415 . S
C711 H681 0.950 . S
C711 C706 1.363 . S
C711 C710 1.415 . S
H712 C709 0.999 . S
H713 C694 0.913 . S
H714 C732 0.951 . S
H715 C734 0.951 . S
H716 C736 0.950 . S
H717 C737 0.950 . S
H718 C739 0.950 . S
H719 C742 0.950 . S
H720 C743 0.950 . S
H721 C745 0.950 . S
H722 C746 0.950 . S
H723 C747 0.951 . S
H724 C749 0.951 . S
H725 C751 0.950 . S
H726 C752 0.950 . S
H727 C754 0.950 . S
H728 C757 0.950 . S
H729 C758 0.950 . S
H730 C760 0.950 . S
H731 C761 0.950 . S
C732 H714 0.951 . S
C732 C733 1.366 . S
C732 C734 1.388 . S
C733 C732 1.366 . S
C733 C737 1.385 1_556 S
C734 H715 0.951 . S
C734 C732 1.388 . S
C734 C735 1.366 . S
C735 C734 1.366 . S
C735 C736 1.414 1_556 S
C735 C738 1.499 . S
C736 H716 0.950 . S
C736 C735 1.414 1_554 S
C736 C737 1.374 . S
C737 H717 0.950 . S
C737 C733 1.385 1_554 S
C737 C736 1.374 . S
C738 C735 1.499 . S
C738 C739 1.373 1_556 S
C738 C740 1.389 . S
C739 H718 0.950 . S
C739 C738 1.373 1_554 S
C739 C755 1.377 1_565 S
C740 C738 1.389 . S
C740 C741 1.524 . S
C740 C754 1.377 1_565 S
C741 C740 1.524 . S
C741 C742 1.397 . S
C741 C746 1.363 1_565 S
C742 H719 0.950 . S
C742 C741 1.397 . S
C742 C743 1.334 . S
C743 H720 0.950 . S
C743 C742 1.334 . S
C743 C744 1.287 . S
C744 C743 1.287 . S
C744 C745 1.524 1_565 S
C744 H763 0.913 . S
C745 H721 0.950 . S
C745 C744 1.524 1_545 S
C745 C746 1.415 . S
C746 H722 0.950 . S
C746 C741 1.363 1_545 S
C746 C745 1.415 . S
C747 H723 0.951 . S
C747 C748 1.366 . S
C747 C749 1.388 . S
C748 C747 1.366 . S
C748 C752 1.385 1_554 S
C749 H724 0.951 . S
C749 C747 1.388 . S
C749 C750 1.366 . S
C750 C749 1.366 . S
C750 C751 1.414 1_554 S
C750 C753 1.499 . S
C751 H725 0.950 . S
C751 C750 1.414 1_556 S
C751 C752 1.374 . S
C752 H726 0.950 . S
C752 C748 1.385 1_556 S
C752 C751 1.374 . S
C753 C750 1.499 . S
C753 C754 1.373 1_554 S
C753 C755 1.389 . S
C754 H727 0.950 . S
C754 C740 1.377 1_545 S
C754 C753 1.373 1_556 S
C755 C739 1.377 1_545 S
C755 C753 1.389 . S
C755 C756 1.524 . S
C756 C755 1.524 . S
C756 C757 1.397 . S
C756 C761 1.363 1_545 S
C757 H728 0.950 . S
C757 C756 1.397 . S
C757 C758 1.334 . S
C758 H729 0.950 . S
C758 C757 1.334 . S
C758 C759 1.287 . S
C759 C758 1.287 . S
C759 C760 1.524 1_545 S
C759 H762 0.999 . S
C760 H730 0.950 . S
C760 C759 1.524 1_565 S
C760 C761 1.415 . S
C761 H731 0.950 . S
C761 C756 1.363 1_565 S
C761 C760 1.415 . S
H762 C759 0.999 . S
H763 C744 0.913 . S
H764 C782 0.951 . S
H765 C784 0.951 . S
H766 C786 0.950 . S
H767 C787 0.950 . S
H768 C789 0.950 . S
H769 C792 0.950 . S
H770 C793 0.950 . S
H771 C795 0.950 1_455 S
H772 C796 0.950 . S
H773 C797 0.951 . S
H774 C799 0.951 . S
H775 C801 0.950 . S
H776 C802 0.950 . S
H777 C804 0.950 . S
H778 C807 0.950 . S
H779 C808 0.950 . S
H780 C810 0.950 1_655 S
H781 C811 0.950 . S
C782 H764 0.951 . S
C782 C783 1.366 . S
C782 C784 1.388 . S
C783 C782 1.366 . S
C783 C787 1.385 . S
C784 H765 0.951 . S
C784 C782 1.388 . S
C784 C785 1.366 . S
C785 C784 1.366 . S
C785 C786 1.414 . S
C785 C788 1.499 . S
C786 H766 0.950 . S
C786 C785 1.414 . S
C786 C787 1.374 . S
C787 H767 0.950 . S
C787 C783 1.385 . S
C787 C786 1.374 . S
C788 C785 1.499 . S
C788 C789 1.373 . S
C788 C790 1.389 . S
C789 H768 0.950 . S
C789 C788 1.373 . S
C789 C805 1.377 1_655 S
C790 C788 1.389 . S
C790 C791 1.524 . S
C790 C804 1.377 1_655 S
C791 C790 1.524 . S
C791 C792 1.397 . S
C791 C796 1.363 1_655 S
C792 H769 0.950 . S
C792 C791 1.397 . S
C792 C793 1.334 . S
C793 H770 0.950 . S
C793 C792 1.334 . S
C793 C794 1.287 . S
C794 C793 1.287 . S
C794 C795 1.524 . S
C794 H813 0.913 . S
C795 H771 0.950 1_655 S
C795 C794 1.524 . S
C795 C796 1.415 1_655 S
C796 H772 0.950 . S
C796 C791 1.363 1_455 S
C796 C795 1.415 1_455 S
C797 H773 0.951 . S
C797 C798 1.366 . S
C797 C799 1.388 . S
C798 C797 1.366 . S
C798 C802 1.385 . S
C799 H774 0.951 . S
C799 C797 1.388 . S
C799 C800 1.366 . S
C800 C799 1.366 . S
C800 C801 1.414 . S
C800 C803 1.499 . S
C801 H775 0.950 . S
C801 C800 1.414 . S
C801 C802 1.374 . S
C802 H776 0.950 . S
C802 C798 1.385 . S
C802 C801 1.374 . S
C803 C800 1.499 . S
C803 C804 1.373 . S
C803 C805 1.389 . S
C804 H777 0.950 . S
C804 C790 1.377 1_455 S
C804 C803 1.373 . S
C805 C789 1.377 1_455 S
C805 C803 1.389 . S
C805 C806 1.524 . S
C806 C805 1.524 . S
C806 C807 1.397 . S
C806 C811 1.363 1_455 S
C807 H778 0.950 . S
C807 C806 1.397 . S
C807 C808 1.334 . S
C808 H779 0.950 . S
C808 C807 1.334 . S
C808 C809 1.287 . S
C809 C808 1.287 . S
C809 C810 1.524 . S
C809 H812 0.999 . S
C810 H780 0.950 1_455 S
C810 C809 1.524 . S
C810 C811 1.415 1_455 S
C811 H781 0.950 . S
C811 C806 1.363 1_655 S
C811 C810 1.415 1_655 S
H812 C809 0.999 . S
H813 C794 0.913 . S
H814 C832 0.951 . S
H815 C834 0.951 . S
H816 C836 0.950 . S
H817 C837 0.950 . S
H818 C839 0.950 . S
H819 C842 0.950 . S
H820 C843 0.950 . S
H821 C845 0.950 . S
H822 C846 0.950 . S
H823 C847 0.951 . S
H824 C849 0.951 . S
H825 C851 0.950 . S
H826 C852 0.950 . S
H827 C854 0.950 . S
H828 C857 0.950 . S
H829 C858 0.950 . S
H830 C860 0.950 . S
H831 C861 0.950 . S
C832 H814 0.951 . S
C832 C833 1.366 1_556 S
C832 C834 1.388 . S
C833 C832 1.366 1_554 S
C833 C837 1.385 . S
C834 H815 0.951 . S
C834 C832 1.388 . S
C834 C835 1.366 1_556 S
C835 C834 1.366 1_554 S
C835 C836 1.414 . S
C835 C838 1.499 . S
C836 H816 0.950 . S
C836 C835 1.414 . S
C836 C837 1.374 . S
C837 H817 0.950 . S
C837 C833 1.385 . S
C837 C836 1.374 . S
C838 C835 1.499 . S
C838 C839 1.373 . S
C838 C840 1.389 1_454 S
C839 H818 0.950 . S
C839 C838 1.373 . S
C839 C855 1.377 . S
C840 C838 1.389 1_656 S
C840 C841 1.524 . S
C840 C854 1.377 . S
C841 C840 1.524 . S
C841 C842 1.397 1_656 S
C841 C846 1.363 . S
C842 H819 0.950 . S
C842 C841 1.397 1_454 S
C842 C843 1.334 . S
C843 H820 0.950 . S
C843 C842 1.334 . S
C843 C844 1.287 1_455 S
C844 C843 1.287 1_655 S
C844 C845 1.524 1_554 S
C844 H863 0.913 . S
C845 H821 0.950 . S
C845 C844 1.524 1_556 S
C845 C846 1.415 . S
C846 H822 0.950 . S
C846 C841 1.363 . S
C846 C845 1.415 . S
C847 H823 0.951 . S
C847 C848 1.366 1_554 S
C847 C849 1.388 . S
C848 C847 1.366 1_556 S
C848 C852 1.385 . S
C849 H824 0.951 . S
C849 C847 1.388 . S
C849 C850 1.366 1_554 S
C850 C849 1.366 1_556 S
C850 C851 1.414 . S
C850 C853 1.499 . S
C851 H825 0.950 . S
C851 C850 1.414 . S
C851 C852 1.374 . S
C852 H826 0.950 . S
C852 C848 1.385 . S
C852 C851 1.374 . S
C853 C850 1.499 . S
C853 C854 1.373 . S
C853 C855 1.389 1_656 S
C854 H827 0.950 . S
C854 C840 1.377 . S
C854 C853 1.373 . S
C855 C839 1.377 . S
C855 C853 1.389 1_454 S
C855 C856 1.524 . S
C856 C855 1.524 . S
C856 C857 1.397 1_454 S
C856 C861 1.363 . S
C857 H828 0.950 . S
C857 C856 1.397 1_656 S
C857 C858 1.334 . S
C858 H829 0.950 . S
C858 C857 1.334 . S
C858 C859 1.287 1_655 S
C859 C858 1.287 1_455 S
C859 C860 1.524 1_556 S
C859 H862 0.999 . S
C860 H830 0.950 . S
C860 C859 1.524 1_554 S
C860 C861 1.415 . S
C861 H831 0.950 . S
C861 C856 1.363 . S
C861 C860 1.415 . S
H862 C859 0.999 . S
H863 C844 0.913 . S
H864 C882 0.951 . S
H865 C884 0.951 . S
H866 C886 0.950 . S
H867 C887 0.950 . S
H868 C889 0.950 . S
H869 C892 0.950 . S
H870 C893 0.950 . S
H871 C895 0.950 . S
H872 C896 0.950 . S
H873 C897 0.951 . S
H874 C899 0.951 . S
H875 C901 0.950 . S
H876 C902 0.950 . S
H877 C904 0.950 . S
H878 C907 0.950 . S
H879 C908 0.950 . S
H880 C910 0.950 . S
H881 C911 0.950 . S
C882 H864 0.951 . S
C882 C883 1.366 . S
C882 C884 1.388 . S
C883 C882 1.366 . S
C883 C887 1.385 . S
C884 H865 0.951 . S
C884 C882 1.388 . S
C884 C885 1.366 . S
C885 C884 1.366 . S
C885 C886 1.414 . S
C885 C888 1.499 . S
C886 H866 0.950 . S
C886 C885 1.414 . S
C886 C887 1.374 . S
C887 H867 0.950 . S
C887 C883 1.385 . S
C887 C886 1.374 . S
C888 C885 1.499 . S
C888 C889 1.373 . S
C888 C890 1.389 . S
C889 H868 0.950 . S
C889 C888 1.373 . S
C889 C905 1.377 1_455 S
C890 C888 1.389 . S
C890 C891 1.524 . S
C890 C904 1.377 1_455 S
C891 C890 1.524 . S
C891 C892 1.397 . S
C891 C896 1.363 . S
C892 H869 0.950 . S
C892 C891 1.397 . S
C892 C893 1.334 . S
C893 H870 0.950 . S
C893 C892 1.334 . S
C893 C894 1.287 . S
C894 C893 1.287 . S
C894 C895 1.524 . S
C894 H913 0.913 . S
C895 H871 0.950 . S
C895 C894 1.524 . S
C895 C896 1.415 . S
C896 H872 0.950 . S
C896 C891 1.363 . S
C896 C895 1.415 . S
C897 H873 0.951 . S
C897 C898 1.366 . S
C897 C899 1.388 . S
C898 C897 1.366 . S
C898 C902 1.385 . S
C899 H874 0.951 . S
C899 C897 1.388 . S
C899 C900 1.366 . S
C900 C899 1.366 . S
C900 C901 1.414 . S
C900 C903 1.499 . S
C901 H875 0.950 . S
C901 C900 1.414 . S
C901 C902 1.374 . S
C902 H876 0.950 . S
C902 C898 1.385 . S
C902 C901 1.374 . S
C903 C900 1.499 . S
C903 C904 1.373 . S
C903 C905 1.389 . S
C904 H877 0.950 . S
C904 C890 1.377 1_655 S
C904 C903 1.373 . S
C905 C889 1.377 1_655 S
C905 C903 1.389 . S
C905 C906 1.524 . S
C906 C905 1.524 . S
C906 C907 1.397 . S
C906 C911 1.363 . S
C907 H878 0.950 . S
C907 C906 1.397 . S
C907 C908 1.334 . S
C908 H879 0.950 . S
C908 C907 1.334 . S
C908 C909 1.287 . S
C909 C908 1.287 . S
C909 C910 1.524 . S
C909 H912 0.999 . S
C910 H880 0.950 . S
C910 C909 1.524 . S
C910 C911 1.415 . S
C911 H881 0.950 . S
C911 C906 1.363 . S
C911 C910 1.415 . S
H912 C909 0.999 . S
H913 C894 0.913 . S
H914 C932 0.951 . S
H915 C934 0.951 . S
H916 C936 0.950 . S
H917 C937 0.950 . S
H918 C939 0.950 . S
H919 C942 0.950 . S
H920 C943 0.950 . S
H921 C945 0.950 . S
H922 C946 0.950 1_655 S
H923 C947 0.951 . S
H924 C949 0.951 . S
H925 C951 0.950 . S
H926 C952 0.950 . S
H927 C954 0.950 . S
H928 C957 0.950 . S
H929 C958 0.950 . S
H930 C960 0.950 . S
H931 C961 0.950 1_455 S
C932 H914 0.951 . S
C932 C933 1.366 . S
C932 C934 1.388 . S
C933 C932 1.366 . S
C933 C937 1.385 . S
C934 H915 0.951 . S
C934 C932 1.388 . S
C934 C935 1.366 . S
C935 C934 1.366 . S
C935 C936 1.414 . S
C935 C938 1.499 . S
C936 H916 0.950 . S
C936 C935 1.414 . S
C936 C937 1.374 . S
C937 H917 0.950 . S
C937 C933 1.385 . S
C937 C936 1.374 . S
C938 C935 1.499 . S
C938 C939 1.373 . S
C938 C940 1.389 . S
C939 H918 0.950 . S
C939 C938 1.373 . S
C939 C955 1.377 1_455 S
C940 C938 1.389 . S
C940 C941 1.524 . S
C940 C954 1.377 1_455 S
C941 C940 1.524 . S
C941 C942 1.397 . S
C941 C946 1.363 . S
C942 H919 0.950 . S
C942 C941 1.397 . S
C942 C943 1.334 . S
C943 H920 0.950 . S
C943 C942 1.334 . S
C943 C944 1.287 . S
C944 C943 1.287 . S
C944 C945 1.524 . S
C944 H963 0.913 . S
C945 H921 0.950 . S
C945 C944 1.524 . S
C945 C946 1.415 . S
C946 H922 0.950 1_455 S
C946 C941 1.363 . S
C946 C945 1.415 . S
C947 H923 0.951 . S
C947 C948 1.366 . S
C947 C949 1.388 . S
C948 C947 1.366 . S
C948 C952 1.385 . S
C949 H924 0.951 . S
C949 C947 1.388 . S
C949 C950 1.366 . S
C950 C949 1.366 . S
C950 C951 1.414 . S
C950 C953 1.499 . S
C951 H925 0.950 . S
C951 C950 1.414 . S
C951 C952 1.374 . S
C952 H926 0.950 . S
C952 C948 1.385 . S
C952 C951 1.374 . S
C953 C950 1.499 . S
C953 C954 1.373 . S
C953 C955 1.389 . S
C954 H927 0.950 . S
C954 C940 1.377 1_655 S
C954 C953 1.373 . S
C955 C939 1.377 1_655 S
C955 C953 1.389 . S
C955 C956 1.524 . S
C956 C955 1.524 . S
C956 C957 1.397 . S
C956 C961 1.363 . S
C957 H928 0.950 . S
C957 C956 1.397 . S
C957 C958 1.334 . S
C958 H929 0.950 . S
C958 C957 1.334 . S
C958 C959 1.287 . S
C959 C958 1.287 . S
C959 C960 1.524 . S
C959 H962 0.999 . S
C960 H930 0.950 . S
C960 C959 1.524 . S
C960 C961 1.415 . S
C961 H931 0.950 1_655 S
C961 C956 1.363 . S
C961 C960 1.415 . S
H962 C959 0.999 . S
H963 C944 0.913 . S
H964 C982 0.951 . S
H965 C984 0.951 . S
H966 C986 0.950 . S
H967 C987 0.950 . S
H968 C989 0.950 . S
H969 C992 0.950 . S
H970 C993 0.950 . S
H971 C995 0.950 . S
H972 C996 0.950 . S
H973 C997 0.951 . S
H974 C999 0.951 . S
H975 C1001 0.950 . S
H976 C1002 0.950 . S
H977 C1004 0.950 . S
H978 C1007 0.950 . S
H979 C1008 0.950 . S
H980 C1010 0.950 . S
H981 C1011 0.950 . S
C982 H964 0.951 . S
C982 C983 1.366 . S
C982 C984 1.388 . S
C983 C982 1.366 . S
C983 C987 1.385 . S
C984 H965 0.951 . S
C984 C982 1.388 . S
C984 C985 1.366 . S
C985 C984 1.366 . S
C985 C986 1.414 . S
C985 C988 1.499 . S
C986 H966 0.950 . S
C986 C985 1.414 . S
C986 C987 1.374 . S
C987 H967 0.950 . S
C987 C983 1.385 . S
C987 C986 1.374 . S
C988 C985 1.499 . S
C988 C989 1.373 . S
C988 C990 1.389 . S
C989 H968 0.950 . S
C989 C988 1.373 . S
C989 C1005 1.377 . S
C990 C988 1.389 . S
C990 C991 1.524 . S
C990 C1004 1.377 . S
C991 C990 1.524 . S
C991 C992 1.397 . S
C991 C996 1.363 . S
C992 H969 0.950 . S
C992 C991 1.397 . S
C992 C993 1.334 . S
C993 H970 0.950 . S
C993 C992 1.334 . S
C993 C994 1.287 . S
C994 C993 1.287 . S
C994 C995 1.524 . S
C994 H1013 0.913 . S
C995 H971 0.950 . S
C995 C994 1.524 . S
C995 C996 1.415 . S
C996 H972 0.950 . S
C996 C991 1.363 . S
C996 C995 1.415 . S
C997 H973 0.951 . S
C997 C998 1.366 . S
C997 C999 1.388 . S
C998 C997 1.366 . S
C998 C1002 1.385 . S
C999 H974 0.951 . S
C999 C997 1.388 . S
C999 C1000 1.366 . S
C1000 C999 1.366 . S
C1000 C1001 1.414 . S
C1000 C1003 1.499 . S
C1001 H975 0.950 . S
C1001 C1000 1.414 . S
C1001 C1002 1.374 . S
C1002 H976 0.950 . S
C1002 C998 1.385 . S
C1002 C1001 1.374 . S
C1003 C1000 1.499 . S
C1003 C1004 1.373 . S
C1003 C1005 1.389 . S
C1004 H977 0.950 . S
C1004 C990 1.377 . S
C1004 C1003 1.373 . S
C1005 C989 1.377 . S
C1005 C1003 1.389 . S
C1005 C1006 1.524 . S
C1006 C1005 1.524 . S
C1006 C1007 1.397 . S
C1006 C1011 1.363 . S
C1007 H978 0.950 . S
C1007 C1006 1.397 . S
C1007 C1008 1.334 . S
C1008 H979 0.950 . S
C1008 C1007 1.334 . S
C1008 C1009 1.287 . S
C1009 C1008 1.287 . S
C1009 C1010 1.524 . S
C1009 H1012 0.999 . S
C1010 H980 0.950 . S
C1010 C1009 1.524 . S
C1010 C1011 1.415 . S
C1011 H981 0.950 . S
C1011 C1006 1.363 . S
C1011 C1010 1.415 . S
H1012 C1009 0.999 . S
H1013 C994 0.913 . S
H1014 C1032 0.951 . S
H1015 C1034 0.951 . S
H1016 C1036 0.950 . S
H1017 C1037 0.950 . S
H1018 C1039 0.950 . S
H1019 C1042 0.950 . S
H1020 C1043 0.950 . S
H1021 C1045 0.950 . S
H1022 C1046 0.950 . S
H1023 C1047 0.951 . S
H1024 C1049 0.951 . S
H1025 C1051 0.950 . S
H1026 C1052 0.950 . S
H1027 C1054 0.950 . S
H1028 C1057 0.950 . S
H1029 C1058 0.950 . S
H1030 C1060 0.950 . S
H1031 C1061 0.950 . S
C1032 H1014 0.951 . S
C1032 C1033 1.366 . S
C1032 C1034 1.388 . S
C1033 C1032 1.366 . S
C1033 C1037 1.385 . S
C1034 H1015 0.951 . S
C1034 C1032 1.388 . S
C1034 C1035 1.366 . S
C1035 C1034 1.366 . S
C1035 C1036 1.414 . S
C1035 C1038 1.499 . S
C1036 H1016 0.950 . S
C1036 C1035 1.414 . S
C1036 C1037 1.374 . S
C1037 H1017 0.950 . S
C1037 C1033 1.385 . S
C1037 C1036 1.374 . S
C1038 C1035 1.499 . S
C1038 C1039 1.373 . S
C1038 C1040 1.389 . S
C1039 H1018 0.950 . S
C1039 C1038 1.373 . S
C1039 C1055 1.377 . S
C1040 C1038 1.389 . S
C1040 C1041 1.524 . S
C1040 C1054 1.377 . S
C1041 C1040 1.524 . S
C1041 C1042 1.397 . S
C1041 C1046 1.363 . S
C1042 H1019 0.950 . S
C1042 C1041 1.397 . S
C1042 C1043 1.334 . S
C1043 H1020 0.950 . S
C1043 C1042 1.334 . S
C1043 C1044 1.287 . S
C1044 C1043 1.287 . S
C1044 C1045 1.524 . S
C1044 H1063 0.913 . S
C1045 H1021 0.950 . S
C1045 C1044 1.524 . S
C1045 C1046 1.415 . S
C1046 H1022 0.950 . S
C1046 C1041 1.363 . S
C1046 C1045 1.415 . S
C1047 H1023 0.951 . S
C1047 C1048 1.366 . S
C1047 C1049 1.388 . S
C1048 C1047 1.366 . S
C1048 C1052 1.385 . S
C1049 H1024 0.951 . S
C1049 C1047 1.388 . S
C1049 C1050 1.366 . S
C1050 C1049 1.366 . S
C1050 C1051 1.414 . S
C1050 C1053 1.499 . S
C1051 H1025 0.950 . S
C1051 C1050 1.414 . S
C1051 C1052 1.374 . S
C1052 H1026 0.950 . S
C1052 C1048 1.385 . S
C1052 C1051 1.374 . S
C1053 C1050 1.499 . S
C1053 C1054 1.373 . S
C1053 C1055 1.389 . S
C1054 H1027 0.950 . S
C1054 C1040 1.377 . S
C1054 C1053 1.373 . S
C1055 C1039 1.377 . S
C1055 C1053 1.389 . S
C1055 C1056 1.524 . S
C1056 C1055 1.524 . S
C1056 C1057 1.397 . S
C1056 C1061 1.363 . S
C1057 H1028 0.950 . S
C1057 C1056 1.397 . S
C1057 C1058 1.334 . S
C1058 H1029 0.950 . S
C1058 C1057 1.334 . S
C1058 C1059 1.287 . S
C1059 C1058 1.287 . S
C1059 C1060 1.524 . S
C1059 H1062 0.999 . S
C1060 H1030 0.950 . S
C1060 C1059 1.524 . S
C1060 C1061 1.415 . S
C1061 H1031 0.950 . S
C1061 C1056 1.363 . S
C1061 C1060 1.415 . S
H1062 C1059 0.999 . S
H1063 C1044 0.913 . S
H1064 C1082 0.951 . S
H1065 C1084 0.951 . S
H1066 C1086 0.950 . S
H1067 C1087 0.950 . S
H1068 C1089 0.950 . S
H1069 C1092 0.950 . S
H1070 C1093 0.950 . S
H1071 C1095 0.950 . S
H1072 C1096 0.950 . S
H1073 C1097 0.951 . S
H1074 C1099 0.951 . S
H1075 C1101 0.950 . S
H1076 C1102 0.950 . S
H1077 C1104 0.950 . S
H1078 C1107 0.950 . S
H1079 C1108 0.950 . S
H1080 C1110 0.950 . S
H1081 C1111 0.950 . S
C1082 H1064 0.951 . S
C1082 C1083 1.366 . S
C1082 C1084 1.388 . S
C1083 C1082 1.366 . S
C1083 C1087 1.385 . S
C1084 H1065 0.951 . S
C1084 C1082 1.388 . S
C1084 C1085 1.366 . S
C1085 C1084 1.366 . S
C1085 C1086 1.414 . S
C1085 C1088 1.499 . S
C1086 H1066 0.950 . S
C1086 C1085 1.414 . S
C1086 C1087 1.374 . S
C1087 H1067 0.950 . S
C1087 C1083 1.385 . S
C1087 C1086 1.374 . S
C1088 C1085 1.499 . S
C1088 C1089 1.373 . S
C1088 C1090 1.389 . S
C1089 H1068 0.950 . S
C1089 C1088 1.373 . S
C1089 C1105 1.377 . S
C1090 C1088 1.389 . S
C1090 C1091 1.524 . S
C1090 C1104 1.377 . S
C1091 C1090 1.524 . S
C1091 C1092 1.397 . S
C1091 C1096 1.363 . S
C1092 H1069 0.950 . S
C1092 C1091 1.397 . S
C1092 C1093 1.334 . S
C1093 H1070 0.950 . S
C1093 C1092 1.334 . S
C1093 C1094 1.287 . S
C1094 C1093 1.287 . S
C1094 C1095 1.524 . S
C1094 H1113 0.913 . S
C1095 H1071 0.950 . S
C1095 C1094 1.524 . S
C1095 C1096 1.415 . S
C1096 H1072 0.950 . S
C1096 C1091 1.363 . S
C1096 C1095 1.415 . S
C1097 H1073 0.951 . S
C1097 C1098 1.366 . S
C1097 C1099 1.388 . S
C1098 C1097 1.366 . S
C1098 C1102 1.385 . S
C1099 H1074 0.951 . S
C1099 C1097 1.388 . S
C1099 C1100 1.366 . S
C1100 C1099 1.366 . S
C1100 C1101 1.414 . S
C1100 C1103 1.499 . S
C1101 H1075 0.950 . S
C1101 C1100 1.414 . S
C1101 C1102 1.374 . S
C1102 H1076 0.950 . S
C1102 C1098 1.385 . S
C1102 C1101 1.374 . S
C1103 C1100 1.499 . S
C1103 C1104 1.373 . S
C1103 C1105 1.389 . S
C1104 H1077 0.950 . S
C1104 C1090 1.377 . S
C1104 C1103 1.373 . S
C1105 C1089 1.377 . S
C1105 C1103 1.389 . S
C1105 C1106 1.524 . S
C1106 C1105 1.524 . S
C1106 C1107 1.397 . S
C1106 C1111 1.363 . S
C1107 H1078 0.950 . S
C1107 C1106 1.397 . S
C1107 C1108 1.334 . S
C1108 H1079 0.950 . S
C1108 C1107 1.334 . S
C1108 C1109 1.287 . S
C1109 C1108 1.287 . S
C1109 C1110 1.524 . S
C1109 H1112 0.999 . S
C1110 H1080 0.950 . S
C1110 C1109 1.524 . S
C1110 C1111 1.415 . S
C1111 H1081 0.950 . S
C1111 C1106 1.363 . S
C1111 C1110 1.415 . S
H1112 C1109 0.999 . S
H1113 C1094 0.913 . S
H1114 C1132 0.951 . S
H1115 C1134 0.951 . S
H1116 C1136 0.950 . S
H1117 C1137 0.950 1_554 S
H1118 C1139 0.950 . S
H1119 C1142 0.950 . S
H1120 C1143 0.950 . S
H1121 C1145 0.950 . S
H1122 C1146 0.950 . S
H1123 C1147 0.951 . S
H1124 C1149 0.951 . S
H1125 C1151 0.950 . S
H1126 C1152 0.950 1_556 S
H1127 C1154 0.950 . S
H1128 C1157 0.950 . S
H1129 C1158 0.950 . S
H1130 C1160 0.950 . S
H1131 C1161 0.950 . S
C1132 H1114 0.951 . S
C1132 C1133 1.366 . S
C1132 C1134 1.388 . S
C1133 C1132 1.366 . S
C1133 C1137 1.385 . S
C1134 H1115 0.951 . S
C1134 C1132 1.388 . S
C1134 C1135 1.366 . S
C1135 C1134 1.366 . S
C1135 C1136 1.414 1_556 S
C1135 C1138 1.499 . S
C1136 H1116 0.950 . S
C1136 C1135 1.414 1_554 S
C1136 C1137 1.374 1_554 S
C1137 H1117 0.950 1_556 S
C1137 C1133 1.385 . S
C1137 C1136 1.374 1_556 S
C1138 C1135 1.499 . S
C1138 C1139 1.373 1_556 S
C1138 C1140 1.389 . S
C1139 H1118 0.950 . S
C1139 C1138 1.373 1_554 S
C1139 C1155 1.377 . S
C1140 C1138 1.389 . S
C1140 C1141 1.524 . S
C1140 C1154 1.377 . S
C1141 C1140 1.524 . S
C1141 C1142 1.397 . S
C1141 C1146 1.363 . S
C1142 H1119 0.950 . S
C1142 C1141 1.397 . S
C1142 C1143 1.334 . S
C1143 H1120 0.950 . S
C1143 C1142 1.334 . S
C1143 C1144 1.287 . S
C1144 C1143 1.287 . S
C1144 C1145 1.524 . S
C1144 H1163 0.913 . S
C1145 H1121 0.950 . S
C1145 C1144 1.524 . S
C1145 C1146 1.415 . S
C1146 H1122 0.950 . S
C1146 C1141 1.363 . S
C1146 C1145 1.415 . S
C1147 H1123 0.951 . S
C1147 C1148 1.366 . S
C1147 C1149 1.388 . S
C1148 C1147 1.366 . S
C1148 C1152 1.385 . S
C1149 H1124 0.951 . S
C1149 C1147 1.388 . S
C1149 C1150 1.366 . S
C1150 C1149 1.366 . S
C1150 C1151 1.414 1_554 S
C1150 C1153 1.499 . S
C1151 H1125 0.950 . S
C1151 C1150 1.414 1_556 S
C1151 C1152 1.374 1_556 S
C1152 H1126 0.950 1_554 S
C1152 C1148 1.385 . S
C1152 C1151 1.374 1_554 S
C1153 C1150 1.499 . S
C1153 C1154 1.373 1_554 S
C1153 C1155 1.389 . S
C1154 H1127 0.950 . S
C1154 C1140 1.377 . S
C1154 C1153 1.373 1_556 S
C1155 C1139 1.377 . S
C1155 C1153 1.389 . S
C1155 C1156 1.524 . S
C1156 C1155 1.524 . S
C1156 C1157 1.397 . S
C1156 C1161 1.363 . S
C1157 H1128 0.950 . S
C1157 C1156 1.397 . S
C1157 C1158 1.334 . S
C1158 H1129 0.950 . S
C1158 C1157 1.334 . S
C1158 C1159 1.287 . S
C1159 C1158 1.287 . S
C1159 C1160 1.524 . S
C1159 H1162 0.999 . S
C1160 H1130 0.950 . S
C1160 C1159 1.524 . S
C1160 C1161 1.415 . S
C1161 H1131 0.950 . S
C1161 C1156 1.363 . S
C1161 C1160 1.415 . S
H1162 C1159 0.999 . S
H1163 C1144 0.913 . S
H1164 C1182 0.951 . S
H1165 C1184 0.951 . S
H1166 C1186 0.950 . S
H1167 C1187 0.950 . S
H1168 C1189 0.950 . S
H1169 C1192 0.950 . S
H1170 C1193 0.950 . S
H1171 C1195 0.950 . S
H1172 C1196 0.950 . S
H1173 C1197 0.951 . S
H1174 C1199 0.951 . S
H1175 C1201 0.950 . S
H1176 C1202 0.950 . S
H1177 C1204 0.950 . S
H1178 C1207 0.950 . S
H1179 C1208 0.950 . S
H1180 C1210 0.950 . S
H1181 C1211 0.950 . S
C1182 H1164 0.951 . S
C1182 C1183 1.366 . S
C1182 C1184 1.388 . S
C1183 C1182 1.366 . S
C1183 C1187 1.385 . S
C1184 H1165 0.951 . S
C1184 C1182 1.388 . S
C1184 C1185 1.366 . S
C1185 C1184 1.366 . S
C1185 C1186 1.414 . S
C1185 C1188 1.499 . S
C1186 H1166 0.950 . S
C1186 C1185 1.414 . S
C1186 C1187 1.374 . S
C1187 H1167 0.950 . S
C1187 C1183 1.385 . S
C1187 C1186 1.374 . S
C1188 C1185 1.499 . S
C1188 C1189 1.373 . S
C1188 C1190 1.389 . S
C1189 H1168 0.950 . S
C1189 C1188 1.373 . S
C1189 C1205 1.377 . S
C1190 C1188 1.389 . S
C1190 C1191 1.524 . S
C1190 C1204 1.377 . S
C1191 C1190 1.524 . S
C1191 C1192 1.397 . S
C1191 C1196 1.363 . S
C1192 H1169 0.950 . S
C1192 C1191 1.397 . S
C1192 C1193 1.334 . S
C1193 H1170 0.950 . S
C1193 C1192 1.334 . S
C1193 C1194 1.287 . S
C1194 C1193 1.287 . S
C1194 C1195 1.524 . S
C1194 H1213 0.913 . S
C1195 H1171 0.950 . S
C1195 C1194 1.524 . S
C1195 C1196 1.415 . S
C1196 H1172 0.950 . S
C1196 C1191 1.363 . S
C1196 C1195 1.415 . S
C1197 H1173 0.951 . S
C1197 C1198 1.366 . S
C1197 C1199 1.388 . S
C1198 C1197 1.366 . S
C1198 C1202 1.385 . S
C1199 H1174 0.951 . S
C1199 C1197 1.388 . S
C1199 C1200 1.366 . S
C1200 C1199 1.366 . S
C1200 C1201 1.414 . S
C1200 C1203 1.499 . S
C1201 H1175 0.950 . S
C1201 C1200 1.414 . S
C1201 C1202 1.374 . S
C1202 H1176 0.950 . S
C1202 C1198 1.385 . S
C1202 C1201 1.374 . S
C1203 C1200 1.499 . S
C1203 C1204 1.373 . S
C1203 C1205 1.389 . S
C1204 H1177 0.950 . S
C1204 C1190 1.377 . S
C1204 C1203 1.373 . S
C1205 C1189 1.377 . S
C1205 C1203 1.389 . S
C1205 C1206 1.524 . S
C1206 C1205 1.524 . S
C1206 C1207 1.397 . S
C1206 C1211 1.363 . S
C1207 H1178 0.950 . S
C1207 C1206 1.397 . S
C1207 C1208 1.334 . S
C1208 H1179 0.950 . S
C1208 C1207 1.334 . S
C1208 C1209 1.287 . S
C1209 C1208 1.287 . S
C1209 C1210 1.524 . S
C1209 H1212 0.999 . S
C1210 H1180 0.950 . S
C1210 C1209 1.524 . S
C1210 C1211 1.415 . S
C1211 H1181 0.950 . S
C1211 C1206 1.363 . S
C1211 C1210 1.415 . S
H1212 C1209 0.999 . S
H1213 C1194 0.913 . S
H1214 C1232 0.951 . S
H1215 C1234 0.951 . S
H1216 C1236 0.950 . S
H1217 C1237 0.950 . S
H1218 C1239 0.950 . S
H1219 C1242 0.950 . S
H1220 C1243 0.950 . S
H1221 C1245 0.950 . S
H1222 C1246 0.950 . S
H1223 C1247 0.951 . S
H1224 C1249 0.951 . S
H1225 C1251 0.950 . S
H1226 C1252 0.950 . S
H1227 C1254 0.950 . S
H1228 C1257 0.950 . S
H1229 C1258 0.950 . S
H1230 C1260 0.950 . S
H1231 C1261 0.950 . S
C1232 H1214 0.951 . S
C1232 C1233 1.366 . S
C1232 C1234 1.388 . S
C1233 C1232 1.366 . S
C1233 C1237 1.385 . S
C1234 H1215 0.951 . S
C1234 C1232 1.388 . S
C1234 C1235 1.366 . S
C1235 C1234 1.366 . S
C1235 C1236 1.414 . S
C1235 C1238 1.499 . S
C1236 H1216 0.950 . S
C1236 C1235 1.414 . S
C1236 C1237 1.374 . S
C1237 H1217 0.950 . S
C1237 C1233 1.385 . S
C1237 C1236 1.374 . S
C1238 C1235 1.499 . S
C1238 C1239 1.373 1_556 S
C1238 C1240 1.389 . S
C1239 H1218 0.950 . S
C1239 C1238 1.373 1_554 S
C1239 C1255 1.377 . S
C1240 C1238 1.389 . S
C1240 C1241 1.524 . S
C1240 C1254 1.377 . S
C1241 C1240 1.524 . S
C1241 C1242 1.397 . S
C1241 C1246 1.363 . S
C1242 H1219 0.950 . S
C1242 C1241 1.397 . S
C1242 C1243 1.334 . S
C1243 H1220 0.950 . S
C1243 C1242 1.334 . S
C1243 C1244 1.287 . S
C1244 C1243 1.287 . S
C1244 C1245 1.524 . S
C1244 H1263 0.913 . S
C1245 H1221 0.950 . S
C1245 C1244 1.524 . S
C1245 C1246 1.415 . S
C1246 H1222 0.950 . S
C1246 C1241 1.363 . S
C1246 C1245 1.415 . S
C1247 H1223 0.951 . S
C1247 C1248 1.366 . S
C1247 C1249 1.388 . S
C1248 C1247 1.366 . S
C1248 C1252 1.385 . S
C1249 H1224 0.951 . S
C1249 C1247 1.388 . S
C1249 C1250 1.366 . S
C1250 C1249 1.366 . S
C1250 C1251 1.414 . S
C1250 C1253 1.499 . S
C1251 H1225 0.950 . S
C1251 C1250 1.414 . S
C1251 C1252 1.374 . S
C1252 H1226 0.950 . S
C1252 C1248 1.385 . S
C1252 C1251 1.374 . S
C1253 C1250 1.499 . S
C1253 C1254 1.373 1_554 S
C1253 C1255 1.389 . S
C1254 H1227 0.950 . S
C1254 C1240 1.377 . S
C1254 C1253 1.373 1_556 S
C1255 C1239 1.377 . S
C1255 C1253 1.389 . S
C1255 C1256 1.524 . S
C1256 C1255 1.524 . S
C1256 C1257 1.397 . S
C1256 C1261 1.363 . S
C1257 H1228 0.950 . S
C1257 C1256 1.397 . S
C1257 C1258 1.334 . S
C1258 H1229 0.950 . S
C1258 C1257 1.334 . S
C1258 C1259 1.287 . S
C1259 C1258 1.287 . S
C1259 C1260 1.524 . S
C1259 H1262 0.999 . S
C1260 H1230 0.950 . S
C1260 C1259 1.524 . S
C1260 C1261 1.415 . S
C1261 H1231 0.950 . S
C1261 C1256 1.363 . S
C1261 C1260 1.415 . S
H1262 C1259 0.999 . S
H1263 C1244 0.913 . S
C283 C116 0.787 . S
C298 C28 0.787 . S
C333 C61 0.787 . S
C348 C83 0.787 . S
C383 C94 0.787 . S
C398 C50 0.787 . S
C433 C127 0.787 . S
C448 C17 0.787 . S
C483 C160 0.787 . S
C498 C248 0.786 . S
C533 C193 0.787 . S
C548 C215 0.787 . S
C583 C182 0.787 . S
C598 C226 0.787 . S
C633 C259 0.787 . S
C648 C149 0.787 . S
C683 N71 2.048 . S
C698 N5 2.048 . S
C733 N104 2.048 . S
C748 N38 2.048 . S
C783 N137 2.048 . S
C798 N203 2.048 . S
C833 N170 2.048 . S
C848 N236 2.048 . S
C883 N14 1.802 . S
C898 N47 1.802 . S
C933 N113 1.801 . S
C948 N80 1.802 . S
C983 N179 1.802 . S
C998 N146 1.801 . S
C1033 N245 1.802 . S
C1048 N212 1.801 . S
C1083 C206 1.487 . S
C1098 C8 1.487 . S
C1133 C239 1.488 . S
C1148 C41 1.488 . S
C1183 C140 1.487 . S
C1198 C74 1.487 . S
C1233 C107 1.487 . S
C1248 C173 1.487 . S
