# Generated by pormake.
# Topology wjf, (4)-cn, num edge types: 1
# Building blocks:
#     Node 0, Type 0, BuildingBlock: QUQFOY_clean_sbu_1, # of connection points: 4
#     Node 1, Type 0, BuildingBlock: QUQFOY_clean_sbu_1, # of connection points: 4
#     Node 2, Type 0, BuildingBlock: QUQFOY_clean_sbu_1, # of connection points: 4
#     Node 3, Type 0, BuildingBlock: QUQFOY_clean_sbu_1, # of connection points: 4
#     Node 4, Type 0, BuildingBlock: QUQFOY_clean_sbu_1, # of connection points: 4
#     Node 5, Type 0, BuildingBlock: QUQFOY_clean_sbu_1, # of connection points: 4
#     Node 6, Type 0, BuildingBlock: QUQFOY_clean_sbu_1, # of connection points: 4
#     Node 7, Type 0, BuildingBlock: QUQFOY_clean_sbu_1, # of connection points: 4
#     Node 8, Type 0, BuildingBlock: QUQFOY_clean_sbu_1, # of connection points: 4
#     Node 9, Type 0, BuildingBlock: QUQFOY_clean_sbu_1, # of connection points: 4
#     Node 10, Type 0, BuildingBlock: QUQFOY_clean_sbu_1, # of connection points: 4
#     Node 11, Type 0, BuildingBlock: QUQFOY_clean_sbu_1, # of connection points: 4
#     Edge 12, Type (0, 0), BuildingBlock: ZUJKAS_clean_linker_0, # of connection points: 2
#     Edge 13, Type (0, 0), BuildingBlock: ZUJKAS_clean_linker_0, # of connection points: 2
#     Edge 14, Type (0, 0), BuildingBlock: ZUJKAS_clean_linker_0, # of connection points: 2
#     Edge 15, Type (0, 0), BuildingBlock: ZUJKAS_clean_linker_0, # of connection points: 2
#     Edge 16, Type (0, 0), BuildingBlock: ZUJKAS_clean_linker_0, # of connection points: 2
#     Edge 17, Type (0, 0), BuildingBlock: ZUJKAS_clean_linker_0, # of connection points: 2
#     Edge 18, Type (0, 0), BuildingBlock: ZUJKAS_clean_linker_0, # of connection points: 2
#     Edge 19, Type (0, 0), BuildingBlock: ZUJKAS_clean_linker_0, # of connection points: 2
#     Edge 20, Type (0, 0), BuildingBlock: ZUJKAS_clean_linker_0, # of connection points: 2
#     Edge 21, Type (0, 0), BuildingBlock: ZUJKAS_clean_linker_0, # of connection points: 2
#     Edge 22, Type (0, 0), BuildingBlock: ZUJKAS_clean_linker_0, # of connection points: 2
#     Edge 23, Type (0, 0), BuildingBlock: ZUJKAS_clean_linker_0, # of connection points: 2
#     Edge 24, Type (0, 0), BuildingBlock: ZUJKAS_clean_linker_0, # of connection points: 2
#     Edge 25, Type (0, 0), BuildingBlock: ZUJKAS_clean_linker_0, # of connection points: 2
#     Edge 26, Type (0, 0), BuildingBlock: ZUJKAS_clean_linker_0, # of connection points: 2
#     Edge 27, Type (0, 0), BuildingBlock: ZUJKAS_clean_linker_0, # of connection points: 2
#     Edge 28, Type (0, 0), BuildingBlock: ZUJKAS_clean_linker_0, # of connection points: 2
#     Edge 29, Type (0, 0), BuildingBlock: ZUJKAS_clean_linker_0, # of connection points: 2
#     Edge 30, Type (0, 0), BuildingBlock: ZUJKAS_clean_linker_0, # of connection points: 2
#     Edge 31, Type (0, 0), BuildingBlock: ZUJKAS_clean_linker_0, # of connection points: 2
#     Edge 32, Type (0, 0), BuildingBlock: ZUJKAS_clean_linker_0, # of connection points: 2
#     Edge 33, Type (0, 0), BuildingBlock: ZUJKAS_clean_linker_0, # of connection points: 2
#     Edge 34, Type (0, 0), BuildingBlock: ZUJKAS_clean_linker_0, # of connection points: 2
#     Edge 35, Type (0, 0), BuildingBlock: ZUJKAS_clean_linker_0, # of connection points: 2
# Relax obj value: 0.020
# Max RMSD: 0.067
# Mean RMSD: 0.067
data_MOF--net-wjf--node1-QUQFOY_clean_sbu_1--edge1-ZUJKAS_clean_linker_0
_symmetry_space_group_name_H-M    P1
_symmetry_Int_Tables_number       1
_symmetry_cell_setting            triclinic
loop_
_symmetry_equiv_pos_as_xyz
'x, y, z'
_cell_length_a     69.104336
_cell_length_b     69.124222
_cell_length_c     37.200935
_cell_angle_alpha  90.013219
_cell_angle_beta   89.924134
_cell_angle_gamma 120.00996
loop_
_atom_site_label
_atom_site_type_symbol
_atom_site_fract_x
_atom_site_fract_y
_atom_site_fract_z
_atom_type_partial_charge
O0 O 0.33376 0.38544 0.02305 0.0
Cd1 Cd 0.33834 0.40884 0.0611 0.0
Cd2 Cd 0.34746 0.37838 0.10139 0.0
O3 O 0.33742 0.36011 0.05382 0.0
O4 O 0.32783 0.42685 0.03414 0.0
O5 O 0.31052 0.40713 0.0823 0.0
C6 C 0.31107 0.41947 0.0558 0.0
C7 C 0.33696 0.36126 0.1581 0.0
C8 C 0.33335 0.36689 0.02449 0.0
C9 C 0.38465 0.4268 0.09102 0.0
O10 O 0.37837 0.40706 0.10177 0.0
O11 O 0.37103 0.43142 0.07553 0.0
O12 O 0.35087 0.35904 0.13787 0.0
O13 O 0.32792 0.37225 0.14527 0.0
O14 O 0.94977 0.33494 0.34989 0.0
Cd15 Cd 0.93379 0.33862 0.39388 0.0
Cd16 Cd 0.97286 0.34535 0.4248 0.0
O17 O 0.977 0.33267 0.37678 0.0
O18 O 0.90308 0.32799 0.37489 0.0
O19 O 0.9103 0.30993 0.41694 0.0
C20 C 0.8961 0.31067 0.39523 0.0
C21 C 0.97864 0.33412 0.48122 0.0
C22 C 0.96612 0.33139 0.34846 0.0
C23 C 0.96519 0.38457 0.4206 0.0
O24 O 0.97916 0.37781 0.42393 0.0
O25 O 0.94497 0.37087 0.41234 0.0
O26 O 0.99505 0.346 0.45979 0.0
O27 O 0.95862 0.32741 0.46969 0.0
O28 O 0.61566 0.94677 0.68209 0.0
Cd29 Cd 0.59606 0.93154 0.72634 0.0
Cd30 Cd 0.62886 0.97187 0.7557 0.0
O31 O 0.64483 0.97574 0.70665 0.0
O32 O 0.57581 0.90081 0.70758 0.0
O33 O 0.60097 0.90798 0.74977 0.0
C34 C 0.58609 0.8938 0.72795 0.0
C35 C 0.64664 0.97824 0.81157 0.0
C36 C 0.63515 0.96364 0.67934 0.0
C37 C 0.58142 0.96315 0.75271 0.0
O38 O 0.60209 0.97723 0.75632 0.0
O39 O 0.57506 0.94305 0.74383 0.0
O40 O 0.65064 0.99447 0.79007 0.0
O41 O 0.63353 0.95811 0.80031 0.0
O42 O 0.67203 0.61778 0.02154 0.0
Cd43 Cd 0.66806 0.5959 0.06194 0.0
Cd44 Cd 0.65947 0.62688 0.09957 0.0
O45 O 0.66982 0.6443 0.05121 0.0
O46 O 0.67922 0.57726 0.03872 0.0
O47 O 0.69644 0.59982 0.08434 0.0
C48 C 0.69615 0.58632 0.06004 0.0
C49 C 0.66995 0.64489 0.1556 0.0
C50 C 0.67308 0.63665 0.02209 0.0
C51 C 0.6219 0.57861 0.09166 0.0
O52 O 0.62822 0.59865 0.10069 0.0
O53 O 0.63554 0.57352 0.07751 0.0
O54 O 0.65643 0.64717 0.13457 0.0
O55 O 0.67868 0.63333 0.14392 0.0
O56 O 0.05601 0.6734 0.36083 0.0
Cd57 Cd 0.07314 0.66745 0.40055 0.0
Cd58 Cd 0.03227 0.6579 0.43557 0.0
O59 O 0.02604 0.66979 0.38847 0.0
O60 O 0.10203 0.67712 0.37504 0.0
O61 O 0.09948 0.69463 0.42276 0.0
C62 C 0.1115 0.6937 0.39693 0.0
C63 C 0.02623 0.66809 0.49279 0.0
C64 C 0.03812 0.67435 0.36045 0.0
C65 C 0.04252 0.6203 0.42594 0.0
O66 O 0.02844 0.62643 0.43347 0.0
O67 O 0.06204 0.63444 0.41492 0.0
O68 O 0.00982 0.65513 0.47216 0.0
O69 O 0.04625 0.67634 0.4801 0.0
O70 O 0.38681 0.05587 0.68904 0.0
Cd71 Cd 0.40936 0.07391 0.72872 0.0
Cd72 Cd 0.3781 0.03378 0.76577 0.0
O73 O 0.36019 0.02687 0.71809 0.0
O74 O 0.42814 0.10273 0.70285 0.0
O75 O 0.40758 0.09994 0.75008 0.0
C76 C 0.42051 0.11198 0.72425 0.0
C77 C 0.36126 0.02723 0.82271 0.0
C78 C 0.36789 0.03808 0.68925 0.0
C79 C 0.42632 0.04439 0.7569 0.0
O80 O 0.40617 0.0305 0.76517 0.0
O81 O 0.43156 0.06349 0.74413 0.0
O82 O 0.35834 0.01103 0.80202 0.0
O83 O 0.37274 0.04731 0.81017 0.0
O84 O 0.61829 0.67228 0.66167 0.0
Cd85 Cd 0.59779 0.66777 0.61859 0.0
Cd86 Cd 0.6299 0.65934 0.58788 0.0
O87 O 0.64676 0.67153 0.63606 0.0
O88 O 0.5778 0.67803 0.63947 0.0
O89 O 0.60186 0.69616 0.5959 0.0
C90 C 0.58741 0.69529 0.61889 0.0
C91 C 0.64662 0.67028 0.53112 0.0
C92 C 0.63763 0.67445 0.66367 0.0
C93 C 0.58227 0.62115 0.59311 0.0
O94 O 0.60284 0.62742 0.5889 0.0
O95 O 0.57628 0.63521 0.60174 0.0
O96 O 0.65068 0.65785 0.55203 0.0
O97 O 0.63407 0.67773 0.54343 0.0
O98 O 0.95021 0.61518 1.00055 0.0
Cd99 Cd 0.93394 0.59548 0.95679 0.0
Cd100 Cd 0.97311 0.62769 0.92525 0.0
O101 O 0.97755 0.64452 0.97339 0.0
O102 O 0.9032 0.57576 0.97613 0.0
O103 O 0.91066 0.60102 0.93393 0.0
C104 C 0.8964 0.58625 0.95585 0.0
C105 C 0.97933 0.64495 0.86888 0.0
C106 C 0.96669 0.63499 1.00182 0.0
C107 C 0.96494 0.58055 0.92961 0.0
O108 O 0.97896 0.60123 0.92591 0.0
O109 O 0.9448 0.57415 0.93832 0.0
O110 O 0.9956 0.64909 0.89031 0.0
O111 O 0.95922 0.63191 0.88038 0.0
O112 O 0.33355 0.94713 0.3302 0.0
Cd113 Cd 0.33937 0.93035 0.29001 0.0
Cd114 Cd 0.34772 0.97094 0.25432 0.0
O115 O 0.33662 0.97693 0.30289 0.0
O116 O 0.32952 0.90112 0.31434 0.0
O117 O 0.31205 0.90451 0.26729 0.0
C118 C 0.31283 0.89211 0.29258 0.0
C119 C 0.33702 0.97809 0.19826 0.0
C120 C 0.33244 0.96491 0.33093 0.0
C121 C 0.3858 0.96092 0.26183 0.0
O122 O 0.37915 0.97445 0.25331 0.0
O123 O 0.37236 0.94189 0.27533 0.0
O124 O 0.35015 0.99407 0.21943 0.0
O125 O 0.32877 0.95785 0.20986 0.0
O126 O 0.38822 0.33319 0.66336 0.0
Cd127 Cd 0.40903 0.33864 0.6202 0.0
Cd128 Cd 0.37625 0.3468 0.59071 0.0
O129 O 0.35949 0.33383 0.63879 0.0
O130 O 0.42942 0.32916 0.64175 0.0
O131 O 0.40655 0.31097 0.59704 0.0
C132 C 0.42076 0.31211 0.62068 0.0
C133 C 0.3594 0.33634 0.53404 0.0
C134 C 0.36878 0.33071 0.66593 0.0
C135 C 0.42365 0.38538 0.59587 0.0
O136 O 0.403 0.3789 0.59224 0.0
O137 O 0.42994 0.37144 0.60373 0.0
O138 O 0.35504 0.3482 0.55579 0.0
O139 O 0.37238 0.32918 0.54539 0.0
O140 O 0.05438 0.38169 0.98839 0.0
Cd141 Cd 0.07132 0.40438 0.948 0.0
Cd142 Cd 0.0303 0.37312 0.91409 0.0
O143 O 0.02427 0.35523 0.96138 0.0
O144 O 0.10049 0.42367 0.97259 0.0
O145 O 0.09731 0.403 0.92537 0.0
C146 C 0.10963 0.41617 0.95071 0.0
C147 C 0.02429 0.35662 0.85716 0.0
C148 C 0.03647 0.36288 0.98919 0.0
C149 C 0.04077 0.42101 0.92274 0.0
O150 O 0.0265 0.40078 0.91587 0.0
O151 O 0.06035 0.42634 0.93328 0.0
O152 O 0.00786 0.35319 0.87782 0.0
O153 O 0.04431 0.36855 0.86968 0.0
O154 O 0.67338 0.05488 0.32175 0.0
Cd155 Cd 0.66939 0.07366 0.28294 0.0
Cd156 Cd 0.6595 0.03383 0.24344 0.0
O157 O 0.66925 0.02559 0.29129 0.0
O158 O 0.68029 0.10274 0.30843 0.0
O159 O 0.69768 0.09899 0.26148 0.0
C160 C 0.69717 0.11143 0.28696 0.0
C161 C 0.66986 0.02687 0.18684 0.0
C162 C 0.67341 0.03653 0.32055 0.0
C163 C 0.62291 0.04581 0.25339 0.0
O164 O 0.62876 0.03198 0.24292 0.0
O165 O 0.63684 0.06407 0.26847 0.0
O166 O 0.65578 0.01087 0.20712 0.0
O167 O 0.67915 0.04694 0.1996 0.0
H168 H 0.35316 0.33703 0.19125 0.0
H169 H 0.35152 0.32816 0.25506 0.0
H170 H 0.31115 0.35855 0.27479 0.0
H171 H 0.31294 0.36776 0.2108 0.0
H172 H 0.34802 0.37466 0.31901 0.0
H173 H 0.30285 0.2821 0.32002 0.0
H174 H 0.32606 0.29419 0.28941 0.0
H175 H 0.3025 0.29804 0.28181 0.0
C176 C 0.34355 0.34147 0.20898 0.0
C177 C 0.33318 0.35313 0.19584 0.0
C178 C 0.34252 0.33625 0.24552 0.0
C179 C 0.33099 0.34243 0.26975 0.0
C180 C 0.32003 0.35348 0.25657 0.0
H181 H 0.3297 0.34689 0.50441 0.0
H182 H 0.32073 0.34659 0.44082 0.0
C183 C 0.32102 0.35869 0.21995 0.0
C184 C 0.33222 0.3393 0.3091 0.0
H185 H 0.32249 0.30029 0.37381 0.0
C186 C 0.34217 0.35836 0.33106 0.0
C187 C 0.32481 0.31806 0.32477 0.0
C188 C 0.31327 0.2969 0.30286 0.0
C189 C 0.34546 0.35687 0.36798 0.0
C190 C 0.33817 0.33565 0.38366 0.0
C191 C 0.32804 0.31653 0.3618 0.0
C192 C 0.3414 0.33319 0.42259 0.0
C193 C 0.35744 0.37815 0.38961 0.0
C194 C 0.35508 0.32464 0.43374 0.0
C195 C 0.36008 0.32457 0.47024 0.0
C196 C 0.35146 0.33304 0.49625 0.0
C197 C 0.33678 0.34043 0.48511 0.0
C198 C 0.33173 0.34039 0.4487 0.0
H199 H 0.36684 0.39304 0.37213 0.0
H200 H 0.34501 0.38043 0.40513 0.0
H201 H 0.3693 0.37741 0.40892 0.0
H202 H 0.36261 0.31885 0.41407 0.0
H203 H 0.37142 0.31875 0.47787 0.0
H204 H 0.94866 0.31617 0.53687 0.0
H205 H 0.95719 0.31562 0.60071 0.0
H206 H 0.02689 0.34306 0.5747 0.0
H207 H 0.01861 0.34395 0.5111 0.0
H208 H 0.97901 0.29654 0.64073 0.0
H209 H 0.02646 0.38933 0.6437 0.0
H210 H 0.00834 0.37376 0.60691 0.0
H211 H 0.03575 0.377 0.61033 0.0
C212 C 0.96575 0.32175 0.54467 0.0
C213 C 0.98298 0.33033 0.5189 0.0
C214 C 0.9706 0.32145 0.58118 0.0
C215 C 0.99274 0.32973 0.59252 0.0
C216 C 0.00976 0.33702 0.56663 0.0
H217 H 0.05514 0.36431 0.80443 0.0
H218 H 0.04796 0.3553 0.74038 0.0
C219 C 0.00495 0.33741 0.53022 0.0
C220 C 0.99827 0.33199 0.63146 0.0
H221 H 0.02679 0.37076 0.69663 0.0
C222 C 0.98947 0.31274 0.653 0.0
C223 C 0.0119 0.35316 0.64743 0.0
C224 C 0.02103 0.37453 0.62605 0.0
C225 C 0.99415 0.3141 0.69003 0.0
C226 C 0.00767 0.33531 0.70601 0.0
C227 C 0.01658 0.3545 0.68435 0.0
C228 C 0.01194 0.33825 0.74538 0.0
C229 C 0.98481 0.29281 0.71159 0.0
C230 C 0.9941 0.33147 0.76959 0.0
C231 C 0.99815 0.33654 0.80618 0.0
C232 C 0.02015 0.3487 0.81935 0.0
C233 C 0.038 0.35487 0.79524 0.0
C234 C 0.03392 0.34977 0.7586 0.0
H235 H 0.98085 0.27823 0.69419 0.0
H236 H 0.9967 0.29408 0.73276 0.0
H237 H 0.96909 0.28963 0.72484 0.0
H238 H 0.97702 0.32302 0.76001 0.0
H239 H 0.984 0.33162 0.82391 0.0
H240 H 0.67609 0.0186 0.84113 0.0
H241 H 0.68565 0.02719 0.90456 0.0
H242 H 0.64501 0.95734 0.93094 0.0
H243 H 0.63564 0.94855 0.86736 0.0
H244 H 0.65522 0.01988 0.95687 0.0
H245 H 0.70041 0.97498 0.99112 0.0
H246 H 0.69583 0.9803 0.94528 0.0
H247 H 0.67385 0.9576 0.97009 0.0
C248 C 0.66955 0.00497 0.86028 0.0
C249 C 0.65508 0.98287 0.84911 0.0
C250 C 0.67501 0.00993 0.8966 0.0
C251 C 0.66622 0.99293 0.92259 0.0
C252 C 0.6524 0.97072 0.91138 0.0
H253 H 0.65198 0.98641 0.15313 0.0
H254 H 0.65347 0.97925 0.08917 0.0
C255 C 0.64698 0.96572 0.87497 0.0
C256 C 0.66972 0.99873 0.96151 0.0
H257 H 0.68813 0.9883 0.04047 0.0
C258 C 0.66267 0.01318 0.97505 0.0
C259 C 0.67929 0.98988 0.98532 0.0
C260 C 0.68798 0.97499 0.97222 0.0
C261 C 0.66435 0.01853 0.01177 0.0
C262 C 0.67377 0.00956 0.03566 0.0
C263 C 0.68102 0.99526 0.02213 0.0
C264 C 0.67509 0.01395 0.07501 0.0
C265 C 0.65526 0.03311 0.02484 0.0
C266 C 0.68739 0.03579 0.08862 0.0
C267 C 0.68654 0.03998 0.1253 0.0
C268 C 0.67347 0.02237 0.14908 0.0
C269 C 0.66215 1.0004 0.13561 0.0
C270 C 0.66299 0.99624 0.099 0.0
H271 H 0.644 0.0343 1.00476 0.0
H272 H 0.64589 0.02659 0.0504 0.0
H273 H 0.66935 0.05023 0.02984 0.0
H274 H 0.69721 0.04968 0.07072 0.0
H275 H 0.69554 0.05708 0.13477 0.0
H276 H 0.65563 0.67159 0.1855 0.0
H277 H 0.65663 0.68146 0.24877 0.0
H278 H 0.69224 0.6468 0.27424 0.0
H279 H 0.6916 0.63712 0.21074 0.0
H280 H 0.63661 0.65082 0.30237 0.0
H281 H 0.72689 0.70414 0.33207 0.0
H282 H 0.71612 0.69812 0.28676 0.0
H283 H 0.71979 0.67788 0.3116 0.0
C284 C 0.66409 0.66644 0.2044 0.0
C285 C 0.67352 0.65354 0.193 0.0
C286 C 0.66462 0.67208 0.24063 0.0
C287 C 0.67465 0.66504 0.26632 0.0
C288 C 0.68479 0.65283 0.25488 0.0
H289 H 0.67219 0.65561 0.49778 0.0
H290 H 0.68017 0.65661 0.43358 0.0
C291 C 0.68433 0.64722 0.21853 0.0
C292 C 0.67253 0.66865 0.30527 0.0
H293 H 0.70223 0.69086 0.38255 0.0
C294 C 0.65098 0.65979 0.31981 0.0
C295 C 0.69127 0.68022 0.32809 0.0
C296 C 0.71484 0.69083 0.31384 0.0
C297 C 0.6476 0.66169 0.35658 0.0
C298 C 0.66631 0.67317 0.37948 0.0
C299 C 0.6879 0.68217 0.36496 0.0
C300 C 0.66363 0.67499 0.41883 0.0
C301 C 0.62396 0.65067 0.37078 0.0
C302 C 0.65236 0.68571 0.43214 0.0
C303 C 0.6477 0.68512 0.46893 0.0
C304 C 0.65435 0.67392 0.49314 0.0
C305 C 0.66673 0.66431 0.47993 0.0
C306 C 0.67135 0.66488 0.44318 0.0
H307 H 0.61183 0.63819 0.35159 0.0
H308 H 0.62256 0.6422 0.39681 0.0
H309 H 0.61917 0.66359 0.37526 0.0
H310 H 0.64664 0.69401 0.41393 0.0
H311 H 0.63823 0.69278 0.47819 0.0
H312 H 0.01973 0.6737 0.83863 0.0
H313 H 0.02809 0.68309 0.77509 0.0
H314 H 0.95797 0.64363 0.74987 0.0
H315 H 0.9494 0.63436 0.81359 0.0
H316 H 0.01934 0.65189 0.72263 0.0
H317 H 0.97696 0.69985 0.6901 0.0
H318 H 0.98259 0.69518 0.73572 0.0
H319 H 0.95923 0.67352 0.71167 0.0
C320 C 0.006 0.66736 0.81972 0.0
C321 C 0.98388 0.65324 0.83125 0.0
C322 C 0.01084 0.67274 0.78335 0.0
C323 C 0.99368 0.66423 0.75767 0.0
C324 C 0.97147 0.65078 0.76922 0.0
H325 H 0.98596 0.65159 0.52688 0.0
H326 H 0.97917 0.65292 0.59104 0.0
C327 C 0.96659 0.64541 0.80569 0.0
C328 C 0.99929 0.66763 0.7187 0.0
H329 H 0.98965 0.68729 0.64039 0.0
C330 C 0.01305 0.65986 0.70472 0.0
C331 C 0.99095 0.67789 0.6953 0.0
C332 C 0.97677 0.68728 0.70894 0.0
C333 C 0.01822 0.66151 0.66793 0.0
C334 C 0.00981 0.67166 0.64444 0.0
C335 C 0.99619 0.67962 0.65842 0.0
C336 C 0.01409 0.67309 0.60505 0.0
C337 C 0.03199 0.6516 0.65437 0.0
C338 C 0.03597 0.68463 0.59132 0.0
C339 C 0.03995 0.68385 0.55454 0.0
C340 C 0.02209 0.67162 0.53078 0.0
C341 C 1.00013 0.66109 0.54439 0.0
C342 C 0.99619 0.66185 0.58111 0.0
H343 H 0.03257 0.63984 0.6741 0.0
H344 H 0.02521 0.64258 0.62864 0.0
H345 H 0.04938 0.66523 0.64952 0.0
H346 H 0.05003 0.69381 0.60919 0.0
H347 H 0.05705 0.69224 0.54495 0.0
H348 H 0.35007 0.01891 0.16847 0.0
H349 H 0.34914 0.02767 0.10512 0.0
H350 H 0.31613 0.9575 0.07924 0.0
H351 H 0.31665 0.94855 0.14279 0.0
H352 H 0.37046 0.01861 0.05207 0.0
H353 H 0.28013 0.97788 0.02033 0.0
H354 H 0.29051 0.9828 0.06589 0.0
H355 H 0.28818 0.95947 0.04085 0.0
C356 C 0.34217 0.00527 0.14945 0.0
C357 C 0.33343 0.98301 0.16076 0.0
C358 C 0.34169 0.01033 0.11318 0.0
C359 C 0.33241 0.99327 0.08733 0.0
C360 C 0.32296 0.97095 0.09868 0.0
H361 H 0.33734 0.98676 0.8561 0.0
H362 H 0.32912 0.97956 0.9202 0.0
C363 C 0.32335 0.96585 0.13507 0.0
C364 C 0.33461 0.99903 0.04839 0.0
H365 H 0.30523 0.99016 0.97033 0.0
C366 C 0.35617 0.01259 0.0343 0.0
C367 C 0.31598 0.99106 0.0251 0.0
C368 C 0.29238 0.97717 0.03881 0.0
C369 C 0.35967 0.01794 0.99756 0.0
C370 C 0.34107 0.00987 0.9742 0.0
C371 C 0.31947 0.99643 0.98827 0.0
C372 C 0.34391 0.01439 0.93486 0.0
C373 C 0.38335 0.03154 0.98388 0.0
C374 C 0.35428 0.03635 0.92151 0.0
C375 C 0.35906 0.04056 0.88477 0.0
C376 C 0.35345 0.02285 0.86064 0.0
C377 C 0.34199 1.00082 0.87389 0.0
C378 C 0.33724 0.99664 0.91058 0.0
H379 H 0.39567 0.03195 1.00346 0.0
H380 H 0.38544 0.02474 0.95803 0.0
H381 H 0.38727 0.04898 0.97918 0.0
H382 H 0.35919 0.05029 0.93966 0.0
H383 H 0.3678 0.05771 0.87549 0.0
H384 H 0.138 0.4414 1.00423 0.0
H385 H 0.17373 0.44479 0.02037 0.0
H386 H 0.16956 0.40474 0.92862 0.0
H387 H 0.13332 0.40077 0.91269 0.0
H388 H 0.17917 0.38991 0.9892 0.0
H389 H 0.23567 0.48132 0.97949 0.0
H390 H 0.21208 0.47411 1.00803 0.0
H391 H 0.20784 0.4675 0.96085 0.0
C392 C 0.14482 0.43362 0.98702 0.0
C393 C 0.13278 0.42083 0.95708 0.0
C394 C 0.16538 0.43569 0.99624 0.0
C395 C 0.17454 0.42528 0.9755 0.0
C396 C 0.16287 0.41301 0.94496 0.0
H397 H 0.30717 0.44266 0.99963 0.0
H398 H 0.27418 0.44443 0.98147 0.0
C399 C 0.14221 0.41084 0.93578 0.0
C400 C 0.19538 0.42581 0.98729 0.0
H401 H 0.24972 0.46088 0.01139 0.0
C402 C 0.19464 0.40544 0.99381 0.0
C403 C 0.21564 0.44605 0.99308 0.0
C404 C 0.21796 0.46847 0.98465 0.0
C405 C 0.21343 0.40473 1.00642 0.0
C406 C 0.23343 0.42498 0.01361 0.0
C407 C 0.2343 0.44536 1.0065 0.0
C408 C 0.25394 0.42533 0.02672 0.0
C409 C 0.21179 0.38227 0.01116 0.0
C410 C 0.25387 0.41466 0.05894 0.0
C411 C 0.27276 0.41351 0.06938 0.0
C412 C 0.29215 0.42324 0.04797 0.0
C413 C 0.29252 0.43492 0.01676 0.0
C414 C 0.27364 0.43595 1.00627 0.0
H415 H 0.19763 0.369 0.99565 0.0
H416 H 0.22744 0.38282 1.00248 0.0
H417 H 0.20897 0.37752 0.03998 0.0
H418 H 0.23906 0.40683 0.07567 0.0
H419 H 0.27194 0.40448 0.09365 0.0
H420 H 0.86085 0.31013 0.36136 0.0
H421 H 0.82518 0.27748 0.34519 0.0
H422 H 0.84464 0.23473 0.3995 0.0
H423 H 0.88005 0.26742 0.4168 0.0
H424 H 0.81932 0.2445 0.30266 0.0
H425 H 0.7818 0.20862 0.43491 0.0
H426 H 0.80566 0.23631 0.43029 0.0
H427 H 0.80923 0.21223 0.43004 0.0
C428 C 0.85732 0.29382 0.3706 0.0
C429 C 0.87325 0.29138 0.39052 0.0
C430 C 0.83694 0.27514 0.36118 0.0
C431 C 0.83206 0.25359 0.37128 0.0
C432 C 0.84771 0.25117 0.39206 0.0
H433 H 0.73984 0.13044 0.26054 0.0
H434 H 0.77228 0.16565 0.27947 0.0
C435 C 0.86801 0.2699 0.4019 0.0
C436 C 0.81143 0.23367 0.35774 0.0
H437 H 0.76556 0.1849 0.38389 0.0
C438 C 0.80746 0.23156 0.32049 0.0
C439 C 0.79579 0.21687 0.38091 0.0
C440 C 0.79819 0.2187 0.42127 0.0
C441 C 0.78856 0.21302 0.30577 0.0
C442 C 0.77345 0.19574 0.32882 0.0
C443 C 0.77722 0.19802 0.36612 0.0
C444 C 0.75359 0.17515 0.31504 0.0
C445 C 0.78481 0.2124 0.26573 0.0
C446 C 0.73225 0.16858 0.32883 0.0
C447 C 0.71376 0.14832 0.31843 0.0
C448 C 0.71616 0.13418 0.29386 0.0
C449 C 0.73738 0.14109 0.27913 0.0
C450 C 0.75595 0.16127 0.28988 0.0
H451 H 0.79352 0.22945 0.2539 0.0
H452 H 0.79163 0.20262 0.25271 0.0
H453 H 0.76675 0.20441 0.25925 0.0
H454 H 0.72996 0.17895 0.34824 0.0
H455 H 0.69766 0.14348 0.33033 0.0
H456 H 0.61313 0.87773 0.75034 0.0
H457 H 0.61125 0.84285 0.7316 0.0
H458 H 0.54979 0.82363 0.67511 0.0
H459 H 0.55191 0.8587 0.6928 0.0
H460 H 0.58204 0.79892 0.7396 0.0
H461 H 0.58807 0.82122 0.59534 0.0
H462 H 0.59246 0.84084 0.63073 0.0
H463 H 0.56455 0.82042 0.61729 0.0
C464 C 0.59902 0.86591 0.73441 0.0
C465 C 0.58279 0.87108 0.72276 0.0
C466 C 0.59802 0.84601 0.72357 0.0
C467 C 0.58073 0.8309 0.70103 0.0
C468 C 0.56368 0.83534 0.6915 0.0
H469 H 0.55396 0.69576 0.65727 0.0
H470 H 0.55142 0.72838 0.67555 0.0
C471 C 0.5648 0.85531 0.70197 0.0
C472 C 0.58088 0.81087 0.68669 0.0
H473 H 0.58038 0.78443 0.60867 0.0
C474 C 0.58169 0.79576 0.71097 0.0
C475 C 0.5809 0.80697 0.64927 0.0
C476 C 0.58169 0.82333 0.62163 0.0
C477 C 0.58218 0.77672 0.69897 0.0
C478 C 0.58122 0.77232 0.66159 0.0
C479 C 0.58076 0.78761 0.63729 0.0
C480 C 0.58131 0.75226 0.64723 0.0
C481 C 0.58433 0.76186 0.72649 0.0
C482 C 0.5981 0.75462 0.62328 0.0
C483 C 0.59933 0.73589 0.61214 0.0
C484 C 0.58382 0.71448 0.62487 0.0
C485 C 0.56629 0.71205 0.64722 0.0
C486 C 0.56495 0.73072 0.65802 0.0
H487 H 0.59129 0.77082 0.75223 0.0
H488 H 0.56754 0.74737 0.73219 0.0
H489 H 0.59523 0.75547 0.71651 0.0
H490 H 0.61079 0.77104 0.61428 0.0
H491 H 0.61307 0.73835 0.595 0.0
H492 H 0.73881 0.61155 0.08567 0.0
H493 H 0.77187 0.60972 0.06709 0.0
H494 H 0.73039 0.55182 1.00218 0.0
H495 H 0.69744 0.554 0.01968 0.0
H496 H 0.78517 0.5795 0.07216 0.0
H497 H 0.77444 0.5927 0.92838 0.0
H498 H 0.75826 0.59592 0.96349 0.0
H499 H 0.75061 0.56856 0.94681 0.0
C500 C 0.7367 0.59826 0.06781 0.0
C501 C 0.71553 0.58305 0.05388 0.0
C502 C 0.75563 0.59728 0.05708 0.0
C503 C 0.75374 0.58102 0.03239 0.0
C504 C 0.73241 0.56497 0.02029 0.0
H505 H 0.86096 0.55209 0.99057 0.0
H506 H 0.82572 0.54993 1.00734 0.0
C507 C 0.71354 0.5661 0.03064 0.0
C508 C 0.77407 0.58113 0.0188 0.0
H509 H 0.80213 0.58299 0.9419 0.0
C510 C 0.78889 0.5803 0.04368 0.0
C511 C 0.7792 0.58263 0.98163 0.0
C512 C 0.76492 0.58524 0.95355 0.0
C513 C 0.80847 0.5806 0.03248 0.0
C514 C 0.81308 0.58108 0.99524 0.0
C515 C 0.79844 0.58225 0.97038 0.0
C516 C 0.83335 0.58106 0.98166 0.0
C517 C 0.82431 0.58102 0.06079 0.0
C518 C 0.84877 0.59849 0.95957 0.0
C519 C 0.86876 0.5995 0.94922 0.0
C520 C 0.87373 0.58314 0.96094 0.0
C521 C 0.85772 0.56507 0.98138 0.0
C522 C 0.83766 0.56394 0.99133 0.0
H523 H 0.82178 0.58717 0.08699 0.0
H524 H 0.82123 0.56381 0.06499 0.0
H525 H 0.84199 0.59181 0.05246 0.0
H526 H 0.84573 0.61179 0.95145 0.0
H527 H 0.88076 0.61367 0.93355 0.0
H528 H 0.13903 0.69696 0.34181 0.0
H529 H 0.17478 0.72913 0.32516 0.0
H530 H 0.17235 0.76444 0.41909 0.0
H531 H 0.13607 0.73235 0.43552 0.0
H532 H 0.18159 0.78956 0.35961 0.0
H533 H 0.23709 0.75332 0.36309 0.0
H534 H 0.21311 0.73757 0.33509 0.0
H535 H 0.20948 0.73938 0.38267 0.0
C536 C 0.14624 0.71139 0.35937 0.0
C537 C 0.13467 0.71204 0.39009 0.0
C538 C 0.16681 0.72978 0.34985 0.0
C539 C 0.17647 0.74915 0.37107 0.0
C540 C 0.16528 0.74963 0.40236 0.0
H541 H 0.30941 0.86364 0.34621 0.0
H542 H 0.27646 0.82861 0.3636 0.0
C543 C 0.14459 0.73125 0.41182 0.0
C544 C 0.19733 0.76941 0.35908 0.0
H545 H 0.25122 0.78825 0.33244 0.0
C546 C 0.19686 0.7893 0.35391 0.0
C547 C 0.21733 0.76916 0.35185 0.0
C548 C 0.2194 0.74877 0.35881 0.0
C549 C 0.21567 0.80881 0.3413 0.0
C550 C 0.23539 0.80832 0.33269 0.0
C551 C 0.23599 0.78853 0.33841 0.0
C552 C 0.25594 0.82851 0.31966 0.0
C553 C 0.21436 0.8299 0.33814 0.0
C554 C 0.2557 0.83976 0.28832 0.0
C555 C 0.27457 0.85996 0.27833 0.0
C556 C 0.29409 0.86914 0.29932 0.0
C557 C 0.29465 0.85712 0.32945 0.0
C558 C 0.27579 0.83705 0.33949 0.0
H559 H 0.20048 0.829 0.35451 0.0
H560 H 0.23022 0.84472 0.34682 0.0
H561 H 0.2113 0.83233 0.30967 0.0
H562 H 0.24076 0.83319 0.27204 0.0
H563 H 0.27359 0.86872 0.25489 0.0
H564 H 0.44358 0.13898 0.66791 0.0
H565 H 0.44647 0.17434 0.65087 0.0
H566 H 0.41 0.17248 0.74622 0.0
H567 H 0.40644 0.13654 0.76301 0.0
H568 H 0.39321 0.18131 0.68797 0.0
H569 H 0.48496 0.23688 0.68677 0.0
H570 H 0.47632 0.21276 0.65894 0.0
H571 H 0.47173 0.20942 0.70676 0.0
C572 C 0.43649 0.14623 0.68567 0.0
C573 C 0.42482 0.13491 0.71693 0.0
C574 C 0.43828 0.16659 0.67593 0.0
C575 C 0.42875 0.17632 0.69747 0.0
C576 C 0.41758 0.16536 0.72922 0.0
H577 H 0.44731 0.30914 0.67197 0.0
H578 H 0.4496 0.27626 0.68884 0.0
C579 C 0.41564 0.14486 0.73889 0.0
C580 C 0.42907 0.19703 0.68546 0.0
H581 H 0.46355 0.25062 0.65703 0.0
C582 C 0.40861 0.19651 0.68145 0.0
C583 C 0.44917 0.21696 0.67718 0.0
C584 C 0.47179 0.21915 0.68298 0.0
C585 C 0.40765 0.2152 0.66901 0.0
C586 C 0.42768 0.23483 0.6593 0.0
C587 C 0.44817 0.23547 0.66382 0.0
C588 C 0.42778 0.25528 0.64645 0.0
C589 C 0.38519 0.21388 0.66727 0.0
C590 C 0.41544 0.25477 0.61608 0.0
C591 C 0.41396 0.27359 0.60643 0.0
C592 C 0.42505 0.29336 0.62673 0.0
C593 C 0.43849 0.29419 0.65576 0.0
C594 C 0.43982 0.27537 0.6655 0.0
H595 H 0.37261 0.20022 0.68447 0.0
H596 H 0.38644 0.22985 0.67586 0.0
H597 H 0.37899 0.21043 0.63918 0.0
H598 H 0.4065 0.23965 0.60033 0.0
H599 H 0.40356 0.27242 0.58383 0.0
H600 H 0.37669 0.31027 0.7217 0.0
H601 H 0.36387 0.30707 0.78366 0.0
H602 H 0.32467 0.33734 0.75398 0.0
H603 H 0.33699 0.33999 0.69144 0.0
H604 H 0.37416 0.34262 0.82367 0.0
H605 H 0.28209 0.28899 0.82151 0.0
H606 H 0.29954 0.29031 0.78431 0.0
H607 H 0.29204 0.3116 0.78993 0.0
C608 C 0.36492 0.31579 0.72816 0.0
C609 C 0.35794 0.32552 0.70173 0.0
C610 C 0.35759 0.31391 0.76362 0.0
C611 C 0.34321 0.32184 0.77356 0.0
C612 C 0.33536 0.33064 0.74689 0.0
H613 H 0.31516 0.37151 0.96257 0.0
H614 H 0.31523 0.35617 0.90362 0.0
C615 C 0.34251 0.33226 0.71116 0.0
C616 C 0.33891 0.32353 0.81227 0.0
H617 H 0.29788 0.31179 0.87417 0.0
C618 C 0.35746 0.33551 0.83483 0.0
C619 C 0.31714 0.31435 0.82682 0.0
C620 C 0.29657 0.3004 0.80445 0.0
C621 C 0.35489 0.33933 0.87107 0.0
C622 C 0.33314 0.33069 0.88539 0.0
C623 C 0.31454 0.31826 0.86315 0.0
C624 C 0.32966 0.33653 0.92225 0.0
C625 C 0.3755 0.35353 0.89332 0.0
C626 C 0.33695 0.32986 0.95261 0.0
C627 C 0.33695 0.33865 0.98659 0.0
C628 C 0.32975 0.3543 0.99055 0.0
C629 C 0.32109 0.35971 0.96041 0.0
C630 C 0.32099 0.35087 0.92666 0.0
H631 H 0.39087 0.36202 0.87658 0.0
H632 H 0.37372 0.36642 0.9084 0.0
H633 H 0.3777 0.34279 0.91314 0.0
H634 H 0.34347 0.31859 0.94976 0.0
H635 H 0.34367 0.3341 0.00927 0.0
H636 H 0.00534 0.33263 0.33066 0.0
H637 H 0.01835 0.33061 0.2701 0.0
H638 H 0.9558 0.31888 0.22569 0.0
H639 H 0.94264 0.32079 0.28577 0.0
H640 H 0.97491 0.29241 0.19402 0.0
H641 H 0.03327 0.38432 0.20041 0.0
H642 H 0.03465 0.36771 0.23644 0.0
H643 H 0.01012 0.3701 0.23116 0.0
C644 C 0.99421 0.32923 0.30808 0.0
C645 C 0.97308 0.32718 0.31299 0.0
C646 C 1.00168 0.32812 0.27353 0.0
C647 C 0.98808 0.32482 0.24349 0.0
C648 C 0.96652 0.32145 0.24855 0.0
H649 H 0.99384 0.33519 0.0133 0.0
H650 H 0.98257 0.32238 0.07519 0.0
C651 C 0.95911 0.32268 0.28293 0.0
C652 C 0.99691 0.32711 0.20652 0.0
H653 H 0.03175 0.36635 0.1464 0.0
C654 C 0.98753 0.30849 0.18358 0.0
C655 C 0.01327 0.34813 0.19308 0.0
C656 C 0.02339 0.36881 0.21633 0.0
C657 C 0.99408 0.3104 0.14733 0.0
C658 C 0.00999 0.3316 0.13361 0.0
C659 C 0.01964 0.35007 0.1569 0.0
C660 C 0.01635 0.33559 0.095 0.0
C661 C 0.98397 0.28971 0.12424 0.0
C662 C 0.03903 0.34711 0.08533 0.0
C663 C 0.04546 0.35484 0.05026 0.0
C664 C 0.02935 0.35101 0.02397 0.0
C665 C 0.0066 0.33818 0.03294 0.0
C666 C 1.00015 0.33075 0.06831 0.0
H667 H 0.97837 0.27442 0.14075 0.0
H668 H 0.9691 0.28815 0.11021 0.0
H669 H 0.99602 0.29049 0.10371 0.0
H670 H 0.05183 0.35104 0.10538 0.0
H671 H 0.06313 0.36458 0.04406 0.0
H672 H 0.62599 0.93574 0.62249 0.0
H673 H 0.6389 0.94567 0.56066 0.0
H674 H 0.68012 0.0146 0.59207 0.0
H675 H 0.66767 0.0046 0.65451 0.0
H676 H 0.63013 0.97235 0.52134 0.0
H677 H 0.72179 0.00733 0.52438 0.0
H678 H 0.70382 0.99127 0.56115 0.0
H679 H 0.71242 0.02038 0.55624 0.0
C680 C 0.63817 0.95296 0.61643 0.0
C681 C 0.64572 0.96943 0.64334 0.0
C682 C 0.64556 0.95859 0.58104 0.0
C683 C 0.66059 0.98084 0.57165 0.0
C684 C 0.66891 0.99723 0.59874 0.0
H685 H 0.69185 0.0593 0.38243 0.0
H686 H 0.69101 0.04377 0.44163 0.0
C687 C 0.66169 0.99153 0.6344 0.0
C688 C 0.66523 0.98711 0.53308 0.0
H689 H 0.7069 0.01529 0.47165 0.0
C690 C 0.64692 0.98141 0.51037 0.0
C691 C 0.68713 0.999 0.51878 0.0
C692 C 0.7074 0.00467 0.54133 0.0
C693 C 0.64989 0.98793 0.47418 0.0
C694 C 0.67178 1.00029 0.46009 0.0
C695 C 0.69013 0.00566 0.48251 0.0
C696 C 0.67576 0.00959 0.4232 0.0
C697 C 0.62959 0.98242 0.45171 0.0
C698 C 0.66826 0.99558 0.39291 0.0
C699 C 0.66872 0.00442 0.35881 0.0
C700 C 0.67658 0.02739 0.35465 0.0
C701 C 0.68544 0.04149 0.38475 0.0
C702 C 0.68508 0.03267 0.41863 0.0
H703 H 0.6142 0.97607 0.46827 0.0
H704 H 0.6321 0.99739 0.43669 0.0
H705 H 0.62692 0.96935 0.43181 0.0
H706 H 0.6612 0.97771 0.39591 0.0
H707 H 0.66183 0.99315 0.33617 0.0
H708 H 0.63072 0.69505 0.7203 0.0
H709 H 0.64369 0.69745 0.78195 0.0
H710 H 0.68102 0.66553 0.75011 0.0
H711 H 0.6686 0.66372 0.68788 0.0
H712 H 0.63254 0.66159 0.82128 0.0
H713 H 0.72484 0.71261 0.81762 0.0
H714 H 0.70753 0.71207 0.78087 0.0
H715 H 0.71406 0.69006 0.7859 0.0
C716 C 0.64212 0.689 0.72624 0.0
C717 C 0.64855 0.67907 0.6993 0.0
C718 C 0.64954 0.69041 0.76151 0.0
C719 C 0.66343 0.68179 0.77075 0.0
C720 C 0.67072 0.67276 0.74357 0.0
H721 H 0.68925 0.6297 0.95963 0.0
H722 H 0.68934 0.64477 0.90033 0.0
C723 C 0.66352 0.67162 0.70802 0.0
C724 C 0.66777 0.67969 0.80927 0.0
H725 H 0.70873 0.68988 0.87029 0.0
C726 C 0.64923 0.66814 0.8321 0.0
C727 C 0.68954 0.68813 0.82338 0.0
C728 C 0.71013 0.7016 0.80074 0.0
C729 C 0.65179 0.6641 0.86822 0.0
C730 C 0.6735 0.67203 0.8821 0.0
C731 C 0.69211 0.68395 0.85958 0.0
C732 C 0.67685 0.66611 0.91893 0.0
C733 C 0.63117 0.65049 0.89085 0.0
C734 C 0.67054 0.67376 0.9493 0.0
C735 C 0.67046 0.66515 0.98345 0.0
C736 C 0.67658 0.6487 0.9876 0.0
C737 C 0.68418 0.64217 0.95734 0.0
C738 C 0.68437 0.65084 0.9234 0.0
H739 H 0.61566 0.64253 0.87446 0.0
H740 H 0.63243 0.63721 0.90566 0.0
H741 H 0.62965 0.66152 0.91095 0.0
H742 H 0.66487 0.68571 0.94637 0.0
H743 H 0.66458 0.67056 1.00621 0.0
H744 H 0.06453 0.69939 0.30532 0.0
H745 H 0.05301 0.70144 0.24412 0.0
H746 H 0.98388 0.66062 0.27515 0.0
H747 H 0.99537 0.65925 0.33692 0.0
H748 H 0.03292 0.66587 0.20342 0.0
H749 H 0.97928 0.70415 0.20947 0.0
H750 H 0.99709 0.70591 0.2463 0.0
H751 H 0.97021 0.68123 0.2402 0.0
C752 C 0.04685 0.69138 0.29933 0.0
C753 C 0.03083 0.67907 0.32582 0.0
C754 C 0.04028 0.69257 0.26433 0.0
C755 C 0.01757 0.68127 0.25493 0.0
C756 C 1.00147 0.66992 0.28182 0.0
H757 H 0.94335 0.62231 0.06475 0.0
H758 H 0.95667 0.63735 0.12471 0.0
C759 C 0.00805 0.66904 0.31712 0.0
C760 C 0.01111 0.67879 0.21638 0.0
H761 H 0.97586 0.68271 0.15625 0.0
C762 C 0.02075 0.66997 0.19302 0.0
C763 C 0.99513 0.684 0.20278 0.0
C764 C 0.985 0.69456 0.22595 0.0
C765 C 0.01432 0.66548 0.15689 0.0
C766 C 0.99791 0.67009 0.14356 0.0
C767 C 0.98852 0.67931 0.16658 0.0
C768 C 0.98903 0.66351 0.10665 0.0
C769 C 0.02443 0.65492 0.1336 0.0
C770 C 1.00261 0.6737 0.07649 0.0
C771 C 0.99504 0.66513 0.04199 0.0
C772 C 0.97381 0.64616 0.03726 0.0
C773 C 0.95987 0.63679 0.06745 0.0
C774 C 0.96739 0.64543 0.10176 0.0
H775 H 0.03427 0.64924 0.14949 0.0
H776 H 0.01116 0.64039 0.11877 0.0
H777 H 0.03573 0.66729 0.11349 0.0
H778 H 0.01933 0.6878 0.07977 0.0
H779 H 0.00615 0.67277 0.01931 0.0
H780 H 0.30932 0.9381 0.38693 0.0
H781 H 0.30679 0.94931 0.44809 0.0
H782 H 0.34306 0.01856 0.41609 0.0
H783 H 0.34514 0.00735 0.35427 0.0
H784 H 0.3433 0.97288 0.48807 0.0
H785 H 0.296 0.01803 0.48191 0.0
H786 H 0.29566 1.00039 0.44581 0.0
H787 H 0.31877 0.0284 0.45051 0.0
C788 C 0.3163 0.95572 0.39267 0.0
C789 C 0.32757 0.97187 0.36584 0.0
C790 C 0.31482 0.96209 0.42768 0.0
C791 C 0.32465 0.98476 0.43677 0.0
C792 C 0.33494 1.00095 0.40963 0.0
H793 H 0.37541 0.06173 0.62726 0.0
H794 H 0.3609 0.04726 0.56756 0.0
C795 C 0.33621 0.99454 0.37431 0.0
C796 C 0.32663 0.99129 0.47524 0.0
H797 H 0.31721 0.02296 0.53561 0.0
C798 C 0.33725 0.98354 0.49856 0.0
C799 C 0.31887 0.00529 0.48888 0.0
C800 C 0.30649 0.01335 0.46556 0.0
C801 C 0.341 0.98997 0.53478 0.0
C802 C 0.33363 0.00431 0.5483 0.0
C803 C 0.32267 0.01181 0.52521 0.0
C804 C 0.3392 0.01332 0.58538 0.0
C805 C 0.35372 0.98216 0.55789 0.0
C806 C 0.33112 0.99916 0.61549 0.0
C807 C 0.33944 0.00739 0.64989 0.0
C808 C 0.35599 0.02988 0.65457 0.0
C809 C 0.36287 0.04425 0.62459 0.0
C810 C 0.35452 0.03605 0.5904 0.0
H811 H 0.36173 0.97456 0.54169 0.0
H812 H 0.36687 0.99627 0.5736 0.0
H813 H 0.34204 0.96939 0.57717 0.0
H814 H 0.31907 0.98158 0.61218 0.0
H815 H 0.33374 0.99592 0.67241 0.0
H816 H 0.41387 0.42864 0.14177 0.0
H817 H 0.4539 0.45524 0.14576 0.0
H818 H 0.44961 0.48941 0.05165 0.0
H819 H 0.4093 0.46352 0.04878 0.0
H820 H 0.48542 0.4617 0.10233 0.0
H821 H 0.48621 0.54185 0.11328 0.0
H822 H 0.46083 0.51529 0.11738 0.0
H823 H 0.47178 0.52687 0.07366 0.0
C824 C 0.42141 0.44209 0.12232 0.0
C825 C 0.40844 0.4441 0.09511 0.0
C826 C 0.44432 0.45725 0.12454 0.0
C827 C 0.45486 0.47458 0.09929 0.0
C828 C 0.44187 0.47666 0.07214 0.0
H829 H 0.59759 0.54056 0.0522 0.0
H830 H 0.55724 0.51485 0.05486 0.0
C831 C 0.41881 0.46177 0.07039 0.0
C832 C 0.47957 0.48954 0.10029 0.0
H833 H 0.52099 0.5442 0.09835 0.0
C834 C 0.49317 0.47976 0.10181 0.0
C835 C 0.4898 0.51312 0.10012 0.0
C836 C 0.47638 0.52489 0.10142 0.0
C837 C 0.51658 0.49282 0.10278 0.0
C838 C 0.52682 0.51637 0.10068 0.0
C839 C 0.51323 0.52615 0.09958 0.0
C840 C 0.55154 0.53128 0.09991 0.0
C841 C 0.52997 0.48115 0.10697 0.0
C842 C 0.56185 0.54943 0.12373 0.0
C843 C 0.5848 0.56446 0.12159 0.0
C844 C 0.59804 0.56151 0.09591 0.0
C845 C 0.58787 0.54305 0.07265 0.0
C846 C 0.5648 0.52827 0.07429 0.0
H847 H 0.51999 0.46462 0.12021 0.0
H848 H 0.53488 0.47821 0.08 0.0
H849 H 0.54533 0.49129 0.12303 0.0
H850 H 0.55206 0.55216 0.14374 0.0
H851 H 0.59216 0.57853 0.13989 0.0
H852 H 0.06795 0.60029 0.41559 0.0
H853 H 0.05524 0.56016 0.41723 0.0
H854 H 0.98861 0.54585 0.44351 0.0
H855 H 1.00101 0.58566 0.44223 0.0
H856 H 0.02857 0.52697 0.48012 0.0
H857 H 0.9858 0.50953 0.34748 0.0
H858 H 0.00851 0.53687 0.35946 0.0
H859 H 0.98129 0.5269 0.3785 0.0
C860 C 0.05063 0.58862 0.42193 0.0
C861 C 0.03551 0.59624 0.42865 0.0
C862 C 0.04342 0.56573 0.42287 0.0
C863 C 0.02097 0.55013 0.4302 0.0
C864 C 0.00597 0.55767 0.43756 0.0
H865 H 0.9401 0.40532 0.42082 0.0
H866 H 0.95359 0.44543 0.42561 0.0
C867 C 0.01314 0.58047 0.43687 0.0
C868 C 0.01295 0.52588 0.42962 0.0
H869 H 0.98122 0.47853 0.38083 0.0
C870 C 0.01831 0.51633 0.45839 0.0
C871 C 0.99938 0.51213 0.40141 0.0
C872 C 0.99342 0.52177 0.36976 0.0
C873 C 0.01015 0.4932 0.45994 0.0
C874 C 0.99675 0.4794 0.43144 0.0
C875 C 0.99143 0.48906 0.40268 0.0
C876 C 0.98847 0.455 0.43042 0.0
C877 C 0.01548 0.48373 0.49253 0.0
C878 C 0.00357 0.44703 0.43137 0.0
C879 C 0.99591 0.42415 0.42896 0.0
C880 C 0.97297 0.40871 0.42497 0.0
C881 C 0.95785 0.41672 0.42395 0.0
C882 C 0.96554 0.43965 0.42664 0.0
H883 H 0.01962 0.49495 0.51616 0.0
H884 H 1.00128 0.46705 0.49976 0.0
H885 H 0.03024 0.48192 0.48663 0.0
H886 H 0.02137 0.45854 0.43326 0.0
H887 H 0.00808 0.41864 0.4295 0.0
H888 H 0.58907 0.00357 0.77763 0.0
H889 H 0.56262 0.01713 0.78169 0.0
H890 H 0.51002 0.95389 0.74233 0.0
H891 H 0.53644 0.94009 0.73796 0.0
H892 H 0.51417 0.99232 0.7061 0.0
H893 H 0.51114 0.99963 0.85443 0.0
H894 H 0.53877 0.01277 0.8355 0.0
H895 H 0.52129 0.98294 0.83306 0.0
C896 C 0.57183 0.99241 0.77012 0.0
C897 C 0.56489 0.9707 0.75747 0.0
C898 C 0.55672 1.00019 0.77265 0.0
C899 C 0.53433 0.98645 0.76267 0.0
C900 C 0.52723 0.96471 0.75033 0.0
H901 H 0.42194 0.00738 0.79088 0.0
H902 H 0.44878 0.99422 0.79272 0.0
C903 C 0.54234 0.95685 0.74795 0.0
C904 C 0.51864 0.99521 0.76349 0.0
H905 H 0.49406 0.01579 0.81959 0.0
C906 C 0.50971 0.9974 0.7309 0.0
C907 C 0.5128 1.00172 0.79592 0.0
C908 C 0.52132 0.999 0.8318 0.0
C909 C 0.49529 0.0062 0.72982 0.0
C910 C 0.48983 0.01317 0.76215 0.0
C911 C 0.49851 0.01069 0.79481 0.0
C912 C 0.47432 0.02212 0.76269 0.0
C913 C 0.48569 0.00766 0.69418 0.0
C914 C 0.48002 0.04249 0.7459 0.0
C915 C 0.46472 0.05016 0.74489 0.0
C916 C 0.44343 0.03754 0.76058 0.0
C917 C 0.43811 0.01748 0.77831 0.0
C918 C 0.45344 0.00992 0.77947 0.0
H919 H 0.48798 0.9976 0.67307 0.0
H920 H 0.46758 1.00184 0.6968 0.0
H921 H 0.49423 0.02533 0.68516 0.0
H922 H 0.4962 0.0523 0.73321 0.0
H923 H 0.46937 0.06568 0.73108 0.0
H924 H 0.53649 0.6008 0.59843 0.0
H925 H 0.5094 0.56061 0.59604 0.0
H926 H 0.56296 0.54688 0.57776 0.0
H927 H 0.59007 0.58677 0.57992 0.0
H928 H 0.50377 0.52771 0.53685 0.0
H929 H 0.52795 0.51016 0.67031 0.0
H930 H 0.53367 0.53772 0.65734 0.0
H931 H 0.55036 0.52671 0.63958 0.0
C932 C 0.5425 0.58925 0.59368 0.0
C933 C 0.56549 0.59705 0.58956 0.0
C934 C 0.527 0.56632 0.59231 0.0
C935 C 0.53427 0.55084 0.58714 0.0
C936 C 0.55708 0.55857 0.58218 0.0
H937 H 0.4695 0.40575 0.5962 0.0
H938 H 0.49646 0.4458 0.59156 0.0
C939 C 0.57253 0.58142 0.58333 0.0
C940 C 0.51813 0.52654 0.58748 0.0
H941 H 0.50218 0.47908 0.63628 0.0
C942 C 0.50331 0.51703 0.5586 0.0
C943 C 0.5178 0.51272 0.61576 0.0
C944 C 0.53316 0.52226 0.64771 0.0
C945 C 0.48828 0.49391 0.55699 0.0
C946 C 0.48772 0.48007 0.58554 0.0
C947 C 0.50264 0.48966 0.61438 0.0
C948 C 0.47141 0.45571 0.58662 0.0
C949 C 0.47355 0.48452 0.52432 0.0
C950 C 0.44839 0.44797 0.58563 0.0
C951 C 0.43299 0.42514 0.58799 0.0
C952 C 0.44024 0.40951 0.59195 0.0
C953 C 0.46333 0.4173 0.5931 0.0
C954 C 0.47876 0.44019 0.59048 0.0
H955 H 0.48077 0.49573 0.50068 0.0
H956 H 0.47097 0.46779 0.51719 0.0
H957 H 0.45701 0.48283 0.53007 0.0
H958 H 0.44228 0.45962 0.58371 0.0
H959 H 0.41534 0.41981 0.58735 0.0
H960 H 0.93982 0.53467 0.93118 0.0
H961 H 0.95337 0.50799 0.92707 0.0
H962 H 0.02086 0.56247 0.91475 0.0
H963 H 0.00763 0.5892 0.91853 0.0
H964 H 0.98408 0.5064 0.86647 0.0
H965 H 0.01861 0.5226 1.00542 0.0
H966 H 0.99647 0.52781 0.99221 0.0
H967 H 0.02461 0.54637 0.97784 0.0
C968 C 0.95753 0.54098 0.92739 0.0
C969 C 0.97262 0.5641 0.92531 0.0
C970 C 0.96522 0.52572 0.92503 0.0
C971 C 0.98811 0.53334 0.92092 0.0
C972 C 1.00315 0.55631 0.9182 0.0
H973 H 0.0668 0.46656 0.93065 0.0
H974 H 0.05471 0.49436 0.92758 0.0
C975 C 0.9955 0.57154 0.92028 0.0
C976 C 0.99645 0.51736 0.91998 0.0
H977 H 0.02485 0.49813 0.96962 0.0
C978 C 0.99295 0.5045 0.88899 0.0
C979 C 0.00823 0.51521 0.94927 0.0
C980 C 0.01219 0.5286 0.98325 0.0
C981 C 1.00109 0.48955 0.8864 0.0
C982 C 0.0125 0.48701 0.91604 0.0
C983 C 0.01613 0.50008 0.94692 0.0
C984 C 0.02011 0.47035 0.91613 0.0
C985 C 0.99778 0.47699 0.85167 0.0
C986 C 0.00469 0.44761 0.91095 0.0
C987 C 0.01156 0.43176 0.9124 0.0
C988 C 0.03399 0.43822 0.91963 0.0
C989 C 0.04944 0.46101 0.92494 0.0
C990 C 0.04254 0.47692 0.92323 0.0
H991 H 0.9955 0.48588 0.82862 0.0
H992 H 0.01218 0.47455 0.84583 0.0
H993 H 0.9825 0.46033 0.85379 0.0
H994 H 0.98719 0.44203 0.90646 0.0
H995 H 0.99913 0.41435 0.90852 0.0
H996 H 0.59302 0.01865 0.20312 0.0
H997 H 0.553 0.00555 0.20049 0.0
H998 H 0.55881 0.04426 0.2951 0.0
H999 H 0.59907 0.05836 0.29655 0.0
H1000 H 0.52206 0.98069 0.24456 0.0
H1001 H 0.52144 0.06018 0.23596 0.0
H1002 H 0.54673 0.05894 0.23063 0.0
H1003 H 0.5364 0.05964 0.27487 0.0
C1004 C 0.58581 0.0247 0.22293 0.0
C1005 C 0.59918 0.03966 0.24989 0.0
C1006 C 0.56291 0.01714 0.2215 0.0
C1007 C 0.55279 0.02408 0.24731 0.0
C1008 C 0.56621 0.03915 0.27417 0.0
H1009 H 0.41077 0.94737 0.29996 0.0
H1010 H 0.45111 0.96215 0.29578 0.0
C1011 C 0.58924 0.04714 0.27512 0.0
C1012 C 0.52809 0.01442 0.24733 0.0
H1013 H 0.48688 0.02788 0.25236 0.0
C1014 C 0.51439 0.99106 0.24589 0.0
C1015 C 0.51794 0.02785 0.24857 0.0
C1016 C 0.53141 0.05303 0.24719 0.0
C1017 C 0.49097 0.98078 0.24606 0.0
C1018 C 0.48086 0.99416 0.24931 0.0
C1019 C 0.49454 0.01753 0.2503 0.0
C1020 C 0.45617 0.98443 0.25126 0.0
C1021 C 0.47743 0.95573 0.24182 0.0
C1022 C 0.44553 0.99237 0.22835 0.0
C1023 C 0.42261 0.98439 0.23139 0.0
C1024 C 0.40972 0.96804 0.25709 0.0
C1025 C 0.42022 0.95972 0.27954 0.0
C1026 C 0.44328 0.96808 0.27701 0.0
H1027 H 0.48713 0.94915 0.22773 0.0
H1028 H 0.47296 0.94784 0.2688 0.0
H1029 H 0.46181 0.95059 0.22654 0.0
H1030 H 0.45503 0.00496 0.20827 0.0
H1031 H 0.41498 0.99111 0.21368 0.0
loop_
_geom_bond_atom_site_label_1
_geom_bond_atom_site_label_2
_geom_bond_distance
_geom_bond_site_symmetry_2
_ccdc_geom_bond_type
O0 Cd1 2.223 1_556 S
O0 C8 1.308 1_556 S
Cd1 O0 2.223 1_554 S
Cd1 O4 2.297 . S
Cd1 O5 2.439 . S
Cd1 O11 2.240 . S
Cd2 O3 2.240 . S
Cd2 O10 2.223 . S
Cd2 O12 2.297 . S
Cd2 O13 2.439 . S
O3 Cd2 2.240 . S
O3 C8 1.308 . S
O4 Cd1 2.297 . S
O4 C6 1.247 . S
O5 Cd1 2.439 . S
O5 C6 1.208 . S
C6 O4 1.247 . S
C6 O5 1.208 . S
C7 O12 1.247 . S
C7 O13 1.208 . S
C8 O0 1.308 1_554 S
C8 O3 1.308 . S
C9 O10 1.315 . S
C9 O11 1.279 . S
O10 Cd2 2.223 . S
O10 C9 1.315 . S
O11 Cd1 2.240 . S
O11 C9 1.279 . S
O12 Cd2 2.297 . S
O12 C7 1.247 . S
O13 Cd2 2.439 . S
O13 C7 1.208 . S
O14 Cd15 2.223 . S
O14 C22 1.315 . S
Cd15 O14 2.223 . S
Cd15 O18 2.297 . S
Cd15 O19 2.439 . S
Cd15 O25 2.240 . S
Cd16 O17 2.240 . S
Cd16 O24 2.223 . S
Cd16 O26 2.297 . S
Cd16 O27 2.439 . S
O17 Cd16 2.240 . S
O17 C22 1.279 . S
O18 Cd15 2.297 . S
O18 C20 1.247 . S
O19 Cd15 2.439 . S
O19 C20 1.208 . S
C20 O18 1.247 . S
C20 O19 1.208 . S
C21 O26 1.247 . S
C21 O27 1.208 . S
C22 O14 1.315 . S
C22 O17 1.279 . S
C23 O24 1.315 . S
C23 O25 1.279 . S
O24 Cd16 2.223 . S
O24 C23 1.315 . S
O25 Cd15 2.240 . S
O25 C23 1.279 . S
O26 Cd16 2.297 . S
O26 C21 1.247 . S
O27 Cd16 2.439 . S
O27 C21 1.208 . S
O28 Cd29 2.223 . S
O28 C36 1.315 . S
Cd29 O28 2.223 . S
Cd29 O32 2.297 . S
Cd29 O33 2.439 . S
Cd29 O39 2.240 . S
Cd30 O31 2.240 . S
Cd30 O38 2.223 . S
Cd30 O40 2.297 . S
Cd30 O41 2.439 . S
O31 Cd30 2.240 . S
O31 C36 1.279 . S
O32 Cd29 2.297 . S
O32 C34 1.247 . S
O33 Cd29 2.439 . S
O33 C34 1.208 . S
C34 O32 1.247 . S
C34 O33 1.208 . S
C35 O40 1.247 . S
C35 O41 1.208 . S
C36 O28 1.315 . S
C36 O31 1.279 . S
C37 O38 1.315 . S
C37 O39 1.279 . S
O38 Cd30 2.223 . S
O38 C37 1.315 . S
O39 Cd29 2.240 . S
O39 C37 1.279 . S
O40 Cd30 2.297 . S
O40 C35 1.247 . S
O41 Cd30 2.439 . S
O41 C35 1.208 . S
O42 Cd43 2.223 1_556 S
O42 C50 1.308 1_556 S
Cd43 O42 2.223 1_554 S
Cd43 O46 2.297 . S
Cd43 O47 2.439 . S
Cd43 O53 2.240 . S
Cd44 O45 2.240 . S
Cd44 O52 2.223 . S
Cd44 O54 2.297 . S
Cd44 O55 2.439 . S
O45 Cd44 2.240 . S
O45 C50 1.308 . S
O46 Cd43 2.297 . S
O46 C48 1.247 . S
O47 Cd43 2.439 . S
O47 C48 1.208 . S
C48 O46 1.247 . S
C48 O47 1.208 . S
C49 O54 1.247 . S
C49 O55 1.208 . S
C50 O42 1.308 1_554 S
C50 O45 1.308 . S
C51 O52 1.315 . S
C51 O53 1.279 . S
O52 Cd44 2.223 . S
O52 C51 1.315 . S
O53 Cd43 2.240 . S
O53 C51 1.279 . S
O54 Cd44 2.297 . S
O54 C49 1.247 . S
O55 Cd44 2.439 . S
O55 C49 1.208 . S
O56 Cd57 2.223 . S
O56 C64 1.315 . S
Cd57 O56 2.223 . S
Cd57 O60 2.297 . S
Cd57 O61 2.439 . S
Cd57 O67 2.240 . S
Cd58 O59 2.240 . S
Cd58 O66 2.223 . S
Cd58 O68 2.297 . S
Cd58 O69 2.439 . S
O59 Cd58 2.240 . S
O59 C64 1.279 . S
O60 Cd57 2.297 . S
O60 C62 1.247 . S
O61 Cd57 2.439 . S
O61 C62 1.208 . S
C62 O60 1.247 . S
C62 O61 1.208 . S
C63 O68 1.247 . S
C63 O69 1.208 . S
C64 O56 1.315 . S
C64 O59 1.279 . S
C65 O66 1.315 . S
C65 O67 1.279 . S
O66 Cd58 2.223 . S
O66 C65 1.315 . S
O67 Cd57 2.240 . S
O67 C65 1.279 . S
O68 Cd58 2.297 . S
O68 C63 1.247 . S
O69 Cd58 2.439 . S
O69 C63 1.208 . S
O70 Cd71 2.223 . S
O70 C78 1.315 . S
Cd71 O70 2.223 . S
Cd71 O74 2.297 . S
Cd71 O75 2.439 . S
Cd71 O81 2.240 . S
Cd72 O73 2.240 . S
Cd72 O80 2.223 . S
Cd72 O82 2.297 . S
Cd72 O83 2.439 . S
O73 Cd72 2.240 . S
O73 C78 1.279 . S
O74 Cd71 2.297 . S
O74 C76 1.247 . S
O75 Cd71 2.439 . S
O75 C76 1.208 . S
C76 O74 1.247 . S
C76 O75 1.208 . S
C77 O82 1.247 . S
C77 O83 1.208 . S
C78 O70 1.315 . S
C78 O73 1.279 . S
C79 O80 1.315 . S
C79 O81 1.279 . S
O80 Cd72 2.223 . S
O80 C79 1.315 . S
O81 Cd71 2.240 . S
O81 C79 1.279 . S
O82 Cd72 2.297 . S
O82 C77 1.247 . S
O83 Cd72 2.439 . S
O83 C77 1.208 . S
O84 Cd85 2.223 . S
O84 C92 1.315 . S
Cd85 O84 2.223 . S
Cd85 O88 2.297 . S
Cd85 O89 2.439 . S
Cd85 O95 2.240 . S
Cd86 O87 2.240 . S
Cd86 O94 2.223 . S
Cd86 O96 2.297 . S
Cd86 O97 2.439 . S
O87 Cd86 2.240 . S
O87 C92 1.279 . S
O88 Cd85 2.297 . S
O88 C90 1.247 . S
O89 Cd85 2.439 . S
O89 C90 1.208 . S
C90 O88 1.247 . S
C90 O89 1.208 . S
C91 O96 1.247 . S
C91 O97 1.208 . S
C92 O84 1.315 . S
C92 O87 1.279 . S
C93 O94 1.315 . S
C93 O95 1.279 . S
O94 Cd86 2.223 . S
O94 C93 1.315 . S
O95 Cd85 2.240 . S
O95 C93 1.279 . S
O96 Cd86 2.297 . S
O96 C91 1.247 . S
O97 Cd86 2.439 . S
O97 C91 1.208 . S
O98 Cd99 2.223 1_554 S
O98 C106 1.308 1_554 S
Cd99 O98 2.223 1_556 S
Cd99 O102 2.297 . S
Cd99 O103 2.439 . S
Cd99 O109 2.240 . S
Cd100 O101 2.240 . S
Cd100 O108 2.223 . S
Cd100 O110 2.297 . S
Cd100 O111 2.439 . S
O101 Cd100 2.240 . S
O101 C106 1.308 . S
O102 Cd99 2.297 . S
O102 C104 1.247 . S
O103 Cd99 2.439 . S
O103 C104 1.208 . S
C104 O102 1.247 . S
C104 O103 1.208 . S
C105 O110 1.247 . S
C105 O111 1.208 . S
C106 O98 1.308 1_556 S
C106 O101 1.308 . S
C107 O108 1.315 . S
C107 O109 1.279 . S
O108 Cd100 2.223 . S
O108 C107 1.315 . S
O109 Cd99 2.240 . S
O109 C107 1.279 . S
O110 Cd100 2.297 . S
O110 C105 1.247 . S
O111 Cd100 2.439 . S
O111 C105 1.208 . S
O112 Cd113 2.223 . S
O112 C120 1.315 . S
Cd113 O112 2.223 . S
Cd113 O116 2.297 . S
Cd113 O117 2.439 . S
Cd113 O123 2.240 . S
Cd114 O115 2.240 . S
Cd114 O122 2.223 . S
Cd114 O124 2.297 . S
Cd114 O125 2.439 . S
O115 Cd114 2.240 . S
O115 C120 1.279 . S
O116 Cd113 2.297 . S
O116 C118 1.247 . S
O117 Cd113 2.439 . S
O117 C118 1.208 . S
C118 O116 1.247 . S
C118 O117 1.208 . S
C119 O124 1.247 . S
C119 O125 1.208 . S
C120 O112 1.315 . S
C120 O115 1.279 . S
C121 O122 1.315 . S
C121 O123 1.279 . S
O122 Cd114 2.223 . S
O122 C121 1.315 . S
O123 Cd113 2.240 . S
O123 C121 1.279 . S
O124 Cd114 2.297 . S
O124 C119 1.247 . S
O125 Cd114 2.439 . S
O125 C119 1.208 . S
O126 Cd127 2.223 . S
O126 C134 1.315 . S
Cd127 O126 2.223 . S
Cd127 O130 2.297 . S
Cd127 O131 2.439 . S
Cd127 O137 2.240 . S
Cd128 O129 2.240 . S
Cd128 O136 2.223 . S
Cd128 O138 2.297 . S
Cd128 O139 2.439 . S
O129 Cd128 2.240 . S
O129 C134 1.279 . S
O130 Cd127 2.297 . S
O130 C132 1.247 . S
O131 Cd127 2.439 . S
O131 C132 1.208 . S
C132 O130 1.247 . S
C132 O131 1.208 . S
C133 O138 1.247 . S
C133 O139 1.208 . S
C134 O126 1.315 . S
C134 O129 1.279 . S
C135 O136 1.315 . S
C135 O137 1.279 . S
O136 Cd128 2.223 . S
O136 C135 1.315 . S
O137 Cd127 2.240 . S
O137 C135 1.279 . S
O138 Cd128 2.297 . S
O138 C133 1.247 . S
O139 Cd128 2.439 . S
O139 C133 1.208 . S
O140 Cd141 2.223 1_554 S
O140 C148 1.308 1_554 S
Cd141 O140 2.223 1_556 S
Cd141 O144 2.297 . S
Cd141 O145 2.439 . S
Cd141 O151 2.240 . S
Cd142 O143 2.240 . S
Cd142 O150 2.223 . S
Cd142 O152 2.297 . S
Cd142 O153 2.439 . S
O143 Cd142 2.240 . S
O143 C148 1.308 . S
O144 Cd141 2.297 . S
O144 C146 1.247 . S
O145 Cd141 2.439 . S
O145 C146 1.208 . S
C146 O144 1.247 . S
C146 O145 1.208 . S
C147 O152 1.247 . S
C147 O153 1.208 . S
C148 O140 1.308 1_556 S
C148 O143 1.308 . S
C149 O150 1.315 . S
C149 O151 1.279 . S
O150 Cd142 2.223 . S
O150 C149 1.315 . S
O151 Cd141 2.240 . S
O151 C149 1.279 . S
O152 Cd142 2.297 . S
O152 C147 1.247 . S
O153 Cd142 2.439 . S
O153 C147 1.208 . S
O154 Cd155 2.223 . S
O154 C162 1.315 . S
Cd155 O154 2.223 . S
Cd155 O158 2.297 . S
Cd155 O159 2.439 . S
Cd155 O165 2.240 . S
Cd156 O157 2.240 . S
Cd156 O164 2.223 . S
Cd156 O166 2.297 . S
Cd156 O167 2.439 . S
O157 Cd156 2.240 . S
O157 C162 1.279 . S
O158 Cd155 2.297 . S
O158 C160 1.247 . S
O159 Cd155 2.439 . S
O159 C160 1.208 . S
C160 O158 1.247 . S
C160 O159 1.208 . S
C161 O166 1.247 . S
C161 O167 1.208 . S
C162 O154 1.315 . S
C162 O157 1.279 . S
C163 O164 1.315 . S
C163 O165 1.279 . S
O164 Cd156 2.223 . S
O164 C163 1.315 . S
O165 Cd155 2.240 . S
O165 C163 1.279 . S
O166 Cd156 2.297 . S
O166 C161 1.247 . S
O167 Cd156 2.439 . S
O167 C161 1.208 . S
H168 C176 0.929 . S
H169 C178 0.930 . S
H170 C180 0.930 . S
H171 C183 0.929 . S
H172 C186 0.930 . S
H173 C188 0.960 . S
H174 C188 0.960 . S
H175 C188 0.960 . S
C176 H168 0.929 . S
C176 C177 1.377 . S
C176 C178 1.384 . S
C177 C176 1.377 . S
C177 C183 1.390 . S
C178 H169 0.930 . S
C178 C176 1.384 . S
C178 C179 1.372 . S
C179 C178 1.372 . S
C179 C180 1.400 . S
C179 C184 1.490 . S
C180 H170 0.930 . S
C180 C179 1.400 . S
C180 C183 1.386 . S
H181 C197 0.930 . S
H182 C198 0.931 . S
C183 H171 0.929 . S
C183 C177 1.390 . S
C183 C180 1.386 . S
C184 C179 1.490 . S
C184 C186 1.395 . S
C184 C187 1.403 . S
H185 C191 0.930 . S
C186 H172 0.930 . S
C186 C184 1.395 . S
C186 C189 1.403 . S
C187 C184 1.403 . S
C187 C188 1.524 . S
C187 C191 1.400 . S
C188 H173 0.960 . S
C188 H174 0.960 . S
C188 H175 0.960 . S
C188 C187 1.524 . S
C189 C186 1.403 . S
C189 C190 1.392 . S
C189 C193 1.495 . S
C190 C189 1.392 . S
C190 C191 1.385 . S
C190 C192 1.478 . S
C191 H185 0.930 . S
C191 C187 1.400 . S
C191 C190 1.385 . S
C192 C190 1.478 . S
C192 C194 1.381 . S
C192 C198 1.383 . S
C193 C189 1.495 . S
C193 H199 0.959 . S
C193 H200 0.961 . S
C193 H201 0.960 . S
C194 C192 1.381 . S
C194 C195 1.394 . S
C194 H202 0.930 . S
C195 C194 1.394 . S
C195 C196 1.383 . S
C195 H203 0.929 . S
C196 C195 1.383 . S
C196 C197 1.377 . S
C197 H181 0.930 . S
C197 C196 1.377 . S
C197 C198 1.379 . S
C198 H182 0.931 . S
C198 C192 1.383 . S
C198 C197 1.379 . S
H199 C193 0.959 . S
H200 C193 0.961 . S
H201 C193 0.960 . S
H202 C194 0.930 . S
H203 C195 0.929 . S
H204 C212 0.929 . S
H205 C214 0.930 . S
H206 C216 0.930 . S
H207 C219 0.929 . S
H208 C222 0.930 . S
H209 C224 0.960 . S
H210 C224 0.960 . S
H211 C224 0.960 . S
C212 H204 0.929 . S
C212 C213 1.377 . S
C212 C214 1.384 . S
C213 C212 1.377 . S
C213 C219 1.390 . S
C214 H205 0.930 . S
C214 C212 1.384 . S
C214 C215 1.372 . S
C215 C214 1.372 . S
C215 C216 1.400 . S
C215 C220 1.490 . S
C216 H206 0.930 . S
C216 C215 1.400 . S
C216 C219 1.386 . S
H217 C233 0.930 . S
H218 C234 0.931 . S
C219 H207 0.929 . S
C219 C213 1.390 . S
C219 C216 1.386 . S
C220 C215 1.490 . S
C220 C222 1.395 . S
C220 C223 1.403 1_655 S
H221 C227 0.930 . S
C222 H208 0.930 . S
C222 C220 1.395 . S
C222 C225 1.403 . S
C223 C220 1.403 1_455 S
C223 C224 1.524 . S
C223 C227 1.400 . S
C224 H209 0.960 . S
C224 H210 0.960 . S
C224 H211 0.960 . S
C224 C223 1.524 . S
C225 C222 1.403 . S
C225 C226 1.392 1_655 S
C225 C229 1.495 . S
C226 C225 1.392 1_455 S
C226 C227 1.385 . S
C226 C228 1.478 . S
C227 H221 0.930 . S
C227 C223 1.400 . S
C227 C226 1.385 . S
C228 C226 1.478 . S
C228 C230 1.381 . S
C228 C234 1.383 . S
C229 C225 1.495 . S
C229 H235 0.959 . S
C229 H236 0.961 . S
C229 H237 0.960 . S
C230 C228 1.381 . S
C230 C231 1.394 . S
C230 H238 0.930 . S
C231 C230 1.394 . S
C231 C232 1.383 . S
C231 H239 0.929 . S
C232 C231 1.383 . S
C232 C233 1.377 . S
C233 H217 0.930 . S
C233 C232 1.377 . S
C233 C234 1.379 . S
C234 H218 0.931 . S
C234 C228 1.383 . S
C234 C233 1.379 . S
H235 C229 0.959 . S
H236 C229 0.961 . S
H237 C229 0.960 . S
H238 C230 0.930 . S
H239 C231 0.929 . S
H240 C248 0.929 . S
H241 C250 0.930 1_545 S
H242 C252 0.930 . S
H243 C255 0.929 . S
H244 C258 0.930 . S
H245 C260 0.960 1_554 S
H246 C260 0.960 . S
H247 C260 0.960 . S
C248 H240 0.929 . S
C248 C249 1.377 . S
C248 C250 1.384 . S
C249 C248 1.377 . S
C249 C255 1.390 . S
C250 H241 0.930 1_565 S
C250 C248 1.384 . S
C250 C251 1.372 . S
C251 C250 1.372 . S
C251 C252 1.400 . S
C251 C256 1.490 . S
C252 H242 0.930 . S
C252 C251 1.400 . S
C252 C255 1.386 . S
H253 C269 0.930 . S
H254 C270 0.931 . S
C255 H243 0.929 . S
C255 C249 1.390 . S
C255 C252 1.386 . S
C256 C251 1.490 . S
C256 C258 1.395 1_565 S
C256 C259 1.403 . S
H257 C263 0.930 . S
C258 H244 0.930 . S
C258 C256 1.395 1_545 S
C258 C261 1.403 1_556 S
C259 C256 1.403 . S
C259 C260 1.524 . S
C259 C263 1.400 1_556 S
C260 H245 0.960 1_556 S
C260 H246 0.960 . S
C260 H247 0.960 . S
C260 C259 1.524 . S
C261 C258 1.403 1_554 S
C261 C262 1.392 . S
C261 C265 1.495 . S
C262 C261 1.392 . S
C262 C263 1.385 1_545 S
C262 C264 1.478 . S
C263 H257 0.930 . S
C263 C259 1.400 1_554 S
C263 C262 1.385 1_565 S
C264 C262 1.478 . S
C264 C266 1.381 . S
C264 C270 1.383 . S
C265 C261 1.495 . S
C265 H271 0.959 1_554 S
C265 H272 0.961 . S
C265 H273 0.960 . S
C266 C264 1.381 . S
C266 C267 1.394 . S
C266 H274 0.930 . S
C267 C266 1.394 . S
C267 C268 1.383 . S
C267 H275 0.929 . S
C268 C267 1.383 . S
C268 C269 1.377 . S
C269 H253 0.930 . S
C269 C268 1.377 . S
C269 C270 1.379 . S
C270 H254 0.931 . S
C270 C264 1.383 . S
C270 C269 1.379 . S
H271 C265 0.959 1_556 S
H272 C265 0.961 . S
H273 C265 0.960 . S
H274 C266 0.930 . S
H275 C267 0.929 . S
H276 C284 0.929 . S
H277 C286 0.930 . S
H278 C288 0.930 . S
H279 C291 0.929 . S
H280 C294 0.930 . S
H281 C296 0.960 . S
H282 C296 0.960 . S
H283 C296 0.960 . S
C284 H276 0.929 . S
C284 C285 1.377 . S
C284 C286 1.384 . S
C285 C284 1.377 . S
C285 C291 1.390 . S
C286 H277 0.930 . S
C286 C284 1.384 . S
C286 C287 1.372 . S
C287 C286 1.372 . S
C287 C288 1.400 . S
C287 C292 1.490 . S
C288 H278 0.930 . S
C288 C287 1.400 . S
C288 C291 1.386 . S
H289 C305 0.930 . S
H290 C306 0.931 . S
C291 H279 0.929 . S
C291 C285 1.390 . S
C291 C288 1.386 . S
C292 C287 1.490 . S
C292 C294 1.395 . S
C292 C295 1.403 . S
H293 C299 0.930 . S
C294 H280 0.930 . S
C294 C292 1.395 . S
C294 C297 1.403 . S
C295 C292 1.403 . S
C295 C296 1.524 . S
C295 C299 1.400 . S
C296 H281 0.960 . S
C296 H282 0.960 . S
C296 H283 0.960 . S
C296 C295 1.524 . S
C297 C294 1.403 . S
C297 C298 1.392 . S
C297 C301 1.495 . S
C298 C297 1.392 . S
C298 C299 1.385 . S
C298 C300 1.478 . S
C299 H293 0.930 . S
C299 C295 1.400 . S
C299 C298 1.385 . S
C300 C298 1.478 . S
C300 C302 1.381 . S
C300 C306 1.383 . S
C301 C297 1.495 . S
C301 H307 0.959 . S
C301 H308 0.961 . S
C301 H309 0.960 . S
C302 C300 1.381 . S
C302 C303 1.394 . S
C302 H310 0.930 . S
C303 C302 1.394 . S
C303 C304 1.383 . S
C303 H311 0.929 . S
C304 C303 1.383 . S
C304 C305 1.377 . S
C305 H289 0.930 . S
C305 C304 1.377 . S
C305 C306 1.379 . S
C306 H290 0.931 . S
C306 C300 1.383 . S
C306 C305 1.379 . S
H307 C301 0.959 . S
H308 C301 0.961 . S
H309 C301 0.960 . S
H310 C302 0.930 . S
H311 C303 0.929 . S
H312 C320 0.929 1_455 S
H313 C322 0.930 . S
H314 C324 0.930 . S
H315 C327 0.929 . S
H316 C330 0.930 . S
H317 C332 0.960 . S
H318 C332 0.960 . S
H319 C332 0.960 . S
C320 H312 0.929 1_655 S
C320 C321 1.377 . S
C320 C322 1.384 1_655 S
C321 C320 1.377 . S
C321 C327 1.390 . S
C322 H313 0.930 . S
C322 C320 1.384 1_455 S
C322 C323 1.372 1_455 S
C323 C322 1.372 1_655 S
C323 C324 1.400 . S
C323 C328 1.490 . S
C324 H314 0.930 . S
C324 C323 1.400 . S
C324 C327 1.386 . S
H325 C341 0.930 1_655 S
H326 C342 0.933 1_655 S
C327 H315 0.929 . S
C327 C321 1.390 . S
C327 C324 1.386 . S
C328 C323 1.490 . S
C328 C330 1.395 1_655 S
C328 C331 1.403 . S
H329 C335 0.930 . S
C330 H316 0.930 . S
C330 C328 1.395 1_455 S
C330 C333 1.403 . S
C331 C328 1.403 . S
C331 C332 1.524 . S
C331 C335 1.400 . S
C332 H317 0.960 . S
C332 H318 0.960 . S
C332 H319 0.960 . S
C332 C331 1.524 . S
C333 C330 1.403 . S
C333 C334 1.392 . S
C333 C337 1.495 . S
C334 C333 1.392 . S
C334 C335 1.385 1_455 S
C334 C336 1.478 . S
C335 H329 0.930 . S
C335 C331 1.400 . S
C335 C334 1.385 1_655 S
C336 C334 1.478 . S
C336 C338 1.381 . S
C336 C342 1.381 . S
C337 C333 1.495 . S
C337 H343 0.959 . S
C337 H344 0.961 . S
C337 H345 0.960 . S
C338 C336 1.381 . S
C338 C339 1.394 . S
C338 H346 0.930 . S
C339 C338 1.394 . S
C339 C340 1.383 . S
C339 H347 0.929 . S
C340 C339 1.383 . S
C340 C341 1.377 . S
C341 H325 0.930 1_455 S
C341 C340 1.377 . S
C341 C342 1.379 . S
C342 H326 0.933 1_455 S
C342 C336 1.381 . S
C342 C341 1.379 . S
H343 C337 0.959 . S
H344 C337 0.961 . S
H345 C337 0.960 . S
H346 C338 0.930 . S
H347 C339 0.929 . S
H348 C356 0.929 . S
H349 C358 0.930 1_545 S
H350 C360 0.930 . S
H351 C363 0.929 . S
H352 C366 0.930 . S
H353 C368 0.960 1_556 S
H354 C368 0.960 . S
H355 C368 0.960 . S
C356 H348 0.929 . S
C356 C357 1.377 . S
C356 C358 1.384 . S
C357 C356 1.377 . S
C357 C363 1.390 . S
C358 H349 0.930 1_565 S
C358 C356 1.384 . S
C358 C359 1.372 . S
C359 C358 1.372 . S
C359 C360 1.400 . S
C359 C364 1.490 . S
C360 H350 0.930 . S
C360 C359 1.400 . S
C360 C363 1.386 . S
H361 C377 0.930 . S
H362 C378 0.931 . S
C363 H351 0.929 . S
C363 C357 1.390 . S
C363 C360 1.386 . S
C364 C359 1.490 . S
C364 C366 1.395 1_565 S
C364 C367 1.403 . S
H365 C371 0.930 . S
C366 H352 0.930 . S
C366 C364 1.395 1_545 S
C366 C369 1.403 1_554 S
C367 C364 1.403 . S
C367 C368 1.524 . S
C367 C371 1.400 1_554 S
C368 H353 0.960 1_554 S
C368 H354 0.960 . S
C368 H355 0.960 . S
C368 C367 1.524 . S
C369 C366 1.403 1_556 S
C369 C370 1.392 . S
C369 C373 1.495 . S
C370 C369 1.392 . S
C370 C371 1.385 1_545 S
C370 C372 1.478 . S
C371 H365 0.930 . S
C371 C367 1.400 1_556 S
C371 C370 1.385 1_565 S
C372 C370 1.478 . S
C372 C374 1.381 . S
C372 C378 1.383 . S
C373 C369 1.495 . S
C373 H379 0.959 1_556 S
C373 H380 0.961 . S
C373 H381 0.960 . S
C374 C372 1.381 . S
C374 C375 1.394 . S
C374 H382 0.930 . S
C375 C374 1.394 . S
C375 C376 1.383 . S
C375 H383 0.929 . S
C376 C375 1.383 . S
C376 C377 1.377 . S
C377 H361 0.930 . S
C377 C376 1.377 . S
C377 C378 1.379 . S
C378 H362 0.931 . S
C378 C372 1.383 . S
C378 C377 1.379 . S
H379 C373 0.959 1_554 S
H380 C373 0.961 . S
H381 C373 0.960 . S
H382 C374 0.930 . S
H383 C375 0.929 . S
H384 C392 0.929 1_554 S
H385 C394 0.930 . S
H386 C396 0.930 . S
H387 C399 0.929 . S
H388 C402 0.930 . S
H389 C404 0.960 . S
H390 C404 0.960 . S
H391 C404 0.960 . S
C392 H384 0.929 1_556 S
C392 C393 1.377 . S
C392 C394 1.384 1_556 S
C393 C392 1.377 . S
C393 C399 1.390 . S
C394 H385 0.930 . S
C394 C392 1.384 1_554 S
C394 C395 1.372 1_554 S
C395 C394 1.372 1_556 S
C395 C396 1.400 . S
C395 C400 1.490 . S
C396 H386 0.930 . S
C396 C395 1.400 . S
C396 C399 1.386 . S
H397 C413 0.930 1_556 S
H398 C414 0.931 . S
C399 H387 0.929 . S
C399 C393 1.390 . S
C399 C396 1.386 . S
C400 C395 1.490 . S
C400 C402 1.395 1_556 S
C400 C403 1.403 . S
H401 C407 0.930 . S
C402 H388 0.930 . S
C402 C400 1.395 1_554 S
C402 C405 1.403 . S
C403 C400 1.403 . S
C403 C404 1.524 . S
C403 C407 1.400 . S
C404 H389 0.960 . S
C404 H390 0.960 . S
C404 H391 0.960 . S
C404 C403 1.524 . S
C405 C402 1.403 . S
C405 C406 1.392 . S
C405 C409 1.495 . S
C406 C405 1.392 . S
C406 C407 1.385 1_554 S
C406 C408 1.478 . S
C407 H401 0.930 . S
C407 C403 1.400 . S
C407 C406 1.385 1_556 S
C408 C406 1.478 . S
C408 C410 1.381 . S
C408 C414 1.383 1_554 S
C409 C405 1.495 . S
C409 H415 0.959 . S
C409 H416 0.961 . S
C409 H417 0.960 . S
C410 C408 1.381 . S
C410 C411 1.394 . S
C410 H418 0.930 . S
C411 C410 1.394 . S
C411 C412 1.383 . S
C411 H419 0.929 . S
C412 C411 1.383 . S
C412 C413 1.377 . S
C413 H397 0.930 1_554 S
C413 C412 1.377 . S
C413 C414 1.379 1_554 S
C414 H398 0.931 . S
C414 C408 1.383 1_556 S
C414 C413 1.379 1_556 S
H415 C409 0.959 . S
H416 C409 0.961 . S
H417 C409 0.960 . S
H418 C410 0.930 . S
H419 C411 0.929 . S
H420 C428 0.929 . S
H421 C430 0.930 . S
H422 C432 0.930 . S
H423 C435 0.929 . S
H424 C438 0.930 . S
H425 C440 0.960 . S
H426 C440 0.960 . S
H427 C440 0.960 . S
C428 H420 0.929 . S
C428 C429 1.377 . S
C428 C430 1.384 . S
C429 C428 1.377 . S
C429 C435 1.390 . S
C430 H421 0.930 . S
C430 C428 1.384 . S
C430 C431 1.372 . S
C431 C430 1.372 . S
C431 C432 1.400 . S
C431 C436 1.490 . S
C432 H422 0.930 . S
C432 C431 1.400 . S
C432 C435 1.386 . S
H433 C449 0.930 . S
H434 C450 0.931 . S
C435 H423 0.929 . S
C435 C429 1.390 . S
C435 C432 1.386 . S
C436 C431 1.490 . S
C436 C438 1.395 . S
C436 C439 1.403 . S
H437 C443 0.930 . S
C438 H424 0.930 . S
C438 C436 1.395 . S
C438 C441 1.403 . S
C439 C436 1.403 . S
C439 C440 1.524 . S
C439 C443 1.400 . S
C440 H425 0.960 . S
C440 H426 0.960 . S
C440 H427 0.960 . S
C440 C439 1.524 . S
C441 C438 1.403 . S
C441 C442 1.392 . S
C441 C445 1.495 . S
C442 C441 1.392 . S
C442 C443 1.385 . S
C442 C444 1.478 . S
C443 H437 0.930 . S
C443 C439 1.400 . S
C443 C442 1.385 . S
C444 C442 1.478 . S
C444 C446 1.381 . S
C444 C450 1.383 . S
C445 C441 1.495 . S
C445 H451 0.959 . S
C445 H452 0.961 . S
C445 H453 0.960 . S
C446 C444 1.381 . S
C446 C447 1.394 . S
C446 H454 0.930 . S
C447 C446 1.394 . S
C447 C448 1.383 . S
C447 H455 0.929 . S
C448 C447 1.383 . S
C448 C449 1.377 . S
C449 H433 0.930 . S
C449 C448 1.377 . S
C449 C450 1.379 . S
C450 H434 0.931 . S
C450 C444 1.383 . S
C450 C449 1.379 . S
H451 C445 0.959 . S
H452 C445 0.961 . S
H453 C445 0.960 . S
H454 C446 0.930 . S
H455 C447 0.929 . S
H456 C464 0.929 . S
H457 C466 0.930 . S
H458 C468 0.930 . S
H459 C471 0.929 . S
H460 C474 0.930 . S
H461 C476 0.960 . S
H462 C476 0.960 . S
H463 C476 0.960 . S
C464 H456 0.929 . S
C464 C465 1.377 . S
C464 C466 1.384 . S
C465 C464 1.377 . S
C465 C471 1.390 . S
C466 H457 0.930 . S
C466 C464 1.384 . S
C466 C467 1.372 . S
C467 C466 1.372 . S
C467 C468 1.400 . S
C467 C472 1.490 . S
C468 H458 0.930 . S
C468 C467 1.400 . S
C468 C471 1.386 . S
H469 C485 0.930 . S
H470 C486 0.931 . S
C471 H459 0.929 . S
C471 C465 1.390 . S
C471 C468 1.386 . S
C472 C467 1.490 . S
C472 C474 1.395 . S
C472 C475 1.403 . S
H473 C479 0.930 . S
C474 H460 0.930 . S
C474 C472 1.395 . S
C474 C477 1.403 . S
C475 C472 1.403 . S
C475 C476 1.524 . S
C475 C479 1.400 . S
C476 H461 0.960 . S
C476 H462 0.960 . S
C476 H463 0.960 . S
C476 C475 1.524 . S
C477 C474 1.403 . S
C477 C478 1.392 . S
C477 C481 1.495 . S
C478 C477 1.392 . S
C478 C479 1.385 . S
C478 C480 1.478 . S
C479 H473 0.930 . S
C479 C475 1.400 . S
C479 C478 1.385 . S
C480 C478 1.478 . S
C480 C482 1.381 . S
C480 C486 1.383 . S
C481 C477 1.495 . S
C481 H487 0.959 . S
C481 H488 0.961 . S
C481 H489 0.960 . S
C482 C480 1.381 . S
C482 C483 1.394 . S
C482 H490 0.930 . S
C483 C482 1.394 . S
C483 C484 1.383 . S
C483 H491 0.929 . S
C484 C483 1.383 . S
C484 C485 1.377 . S
C485 H469 0.930 . S
C485 C484 1.377 . S
C485 C486 1.379 . S
C486 H470 0.931 . S
C486 C480 1.383 . S
C486 C485 1.379 . S
H487 C481 0.959 . S
H488 C481 0.961 . S
H489 C481 0.960 . S
H490 C482 0.930 . S
H491 C483 0.929 . S
H492 C500 0.929 . S
H493 C502 0.930 . S
H494 C504 0.930 1_556 S
H495 C507 0.929 . S
H496 C510 0.930 . S
H497 C512 0.960 . S
H498 C512 0.960 . S
H499 C512 0.960 . S
C500 H492 0.929 . S
C500 C501 1.377 . S
C500 C502 1.384 . S
C501 C500 1.377 . S
C501 C507 1.390 . S
C502 H493 0.930 . S
C502 C500 1.384 . S
C502 C503 1.372 . S
C503 C502 1.372 . S
C503 C504 1.400 . S
C503 C508 1.490 . S
C504 H494 0.930 1_554 S
C504 C503 1.400 . S
C504 C507 1.386 . S
H505 C521 0.930 . S
H506 C522 0.931 . S
C507 H495 0.929 . S
C507 C501 1.390 . S
C507 C504 1.386 . S
C508 C503 1.490 . S
C508 C510 1.395 . S
C508 C511 1.403 1_554 S
H509 C515 0.930 . S
C510 H496 0.930 . S
C510 C508 1.395 . S
C510 C513 1.403 . S
C511 C508 1.403 1_556 S
C511 C512 1.524 . S
C511 C515 1.400 . S
C512 H497 0.960 . S
C512 H498 0.960 . S
C512 H499 0.960 . S
C512 C511 1.524 . S
C513 C510 1.403 . S
C513 C514 1.392 1_554 S
C513 C517 1.495 . S
C514 C513 1.392 1_556 S
C514 C515 1.385 . S
C514 C516 1.478 . S
C515 H509 0.930 . S
C515 C511 1.400 . S
C515 C514 1.385 . S
C516 C514 1.478 . S
C516 C518 1.381 . S
C516 C522 1.383 . S
C517 C513 1.495 . S
C517 H523 0.959 . S
C517 H524 0.961 . S
C517 H525 0.960 . S
C518 C516 1.381 . S
C518 C519 1.394 . S
C518 H526 0.930 1_556 S
C519 C518 1.394 . S
C519 C520 1.383 . S
C519 H527 0.929 . S
C520 C519 1.383 . S
C520 C521 1.377 . S
C521 H505 0.930 . S
C521 C520 1.377 . S
C521 C522 1.379 . S
C522 H506 0.931 . S
C522 C516 1.383 . S
C522 C521 1.379 . S
H523 C517 0.959 . S
H524 C517 0.961 . S
H525 C517 0.960 . S
H526 C518 0.930 1_554 S
H527 C519 0.929 . S
H528 C536 0.929 . S
H529 C538 0.930 . S
H530 C540 0.930 . S
H531 C543 0.929 . S
H532 C546 0.930 . S
H533 C548 0.960 . S
H534 C548 0.960 . S
H535 C548 0.960 . S
C536 H528 0.929 . S
C536 C537 1.377 . S
C536 C538 1.384 . S
C537 C536 1.377 . S
C537 C543 1.390 . S
C538 H529 0.930 . S
C538 C536 1.384 . S
C538 C539 1.372 . S
C539 C538 1.372 . S
C539 C540 1.400 . S
C539 C544 1.490 . S
C540 H530 0.930 . S
C540 C539 1.400 . S
C540 C543 1.386 . S
H541 C557 0.930 . S
H542 C558 0.931 . S
C543 H531 0.929 . S
C543 C537 1.390 . S
C543 C540 1.386 . S
C544 C539 1.490 . S
C544 C546 1.395 . S
C544 C547 1.403 . S
H545 C551 0.930 . S
C546 H532 0.930 . S
C546 C544 1.395 . S
C546 C549 1.403 . S
C547 C544 1.403 . S
C547 C548 1.524 . S
C547 C551 1.400 . S
C548 H533 0.960 . S
C548 H534 0.960 . S
C548 H535 0.960 . S
C548 C547 1.524 . S
C549 C546 1.403 . S
C549 C550 1.392 . S
C549 C553 1.495 . S
C550 C549 1.392 . S
C550 C551 1.385 . S
C550 C552 1.478 . S
C551 H545 0.930 . S
C551 C547 1.400 . S
C551 C550 1.385 . S
C552 C550 1.478 . S
C552 C554 1.381 . S
C552 C558 1.383 . S
C553 C549 1.495 . S
C553 H559 0.959 . S
C553 H560 0.961 . S
C553 H561 0.960 . S
C554 C552 1.381 . S
C554 C555 1.394 . S
C554 H562 0.930 . S
C555 C554 1.394 . S
C555 C556 1.383 . S
C555 H563 0.929 . S
C556 C555 1.383 . S
C556 C557 1.377 . S
C557 H541 0.930 . S
C557 C556 1.377 . S
C557 C558 1.379 . S
C558 H542 0.931 . S
C558 C552 1.383 . S
C558 C557 1.379 . S
H559 C553 0.959 . S
H560 C553 0.961 . S
H561 C553 0.960 . S
H562 C554 0.930 . S
H563 C555 0.929 . S
H564 C572 0.929 . S
H565 C574 0.930 . S
H566 C576 0.930 . S
H567 C579 0.929 . S
H568 C582 0.930 . S
H569 C584 0.960 . S
H570 C584 0.960 . S
H571 C584 0.960 . S
C572 H564 0.929 . S
C572 C573 1.377 . S
C572 C574 1.384 . S
C573 C572 1.377 . S
C573 C579 1.390 . S
C574 H565 0.930 . S
C574 C572 1.384 . S
C574 C575 1.372 . S
C575 C574 1.372 . S
C575 C576 1.400 . S
C575 C580 1.490 . S
C576 H566 0.930 . S
C576 C575 1.400 . S
C576 C579 1.386 . S
H577 C593 0.930 . S
H578 C594 0.931 . S
C579 H567 0.929 . S
C579 C573 1.390 . S
C579 C576 1.386 . S
C580 C575 1.490 . S
C580 C582 1.395 . S
C580 C583 1.403 . S
H581 C587 0.930 . S
C582 H568 0.930 . S
C582 C580 1.395 . S
C582 C585 1.403 . S
C583 C580 1.403 . S
C583 C584 1.524 . S
C583 C587 1.400 . S
C584 H569 0.960 . S
C584 H570 0.960 . S
C584 H571 0.960 . S
C584 C583 1.524 . S
C585 C582 1.403 . S
C585 C586 1.392 . S
C585 C589 1.495 . S
C586 C585 1.392 . S
C586 C587 1.385 . S
C586 C588 1.478 . S
C587 H581 0.930 . S
C587 C583 1.400 . S
C587 C586 1.385 . S
C588 C586 1.478 . S
C588 C590 1.381 . S
C588 C594 1.383 . S
C589 C585 1.495 . S
C589 H595 0.959 . S
C589 H596 0.961 . S
C589 H597 0.960 . S
C590 C588 1.381 . S
C590 C591 1.394 . S
C590 H598 0.930 . S
C591 C590 1.394 . S
C591 C592 1.383 . S
C591 H599 0.929 . S
C592 C591 1.383 . S
C592 C593 1.377 . S
C593 H577 0.930 . S
C593 C592 1.377 . S
C593 C594 1.379 . S
C594 H578 0.931 . S
C594 C588 1.383 . S
C594 C593 1.379 . S
H595 C589 0.959 . S
H596 C589 0.961 . S
H597 C589 0.960 . S
H598 C590 0.930 . S
H599 C591 0.929 . S
H600 C608 0.929 . S
H601 C610 0.930 . S
H602 C612 0.930 . S
H603 C615 0.929 . S
H604 C618 0.930 . S
H605 C620 0.960 . S
H606 C620 0.960 . S
H607 C620 0.960 . S
C608 H600 0.929 . S
C608 C609 1.377 . S
C608 C610 1.384 . S
C609 C608 1.377 . S
C609 C615 1.390 . S
C610 H601 0.930 . S
C610 C608 1.384 . S
C610 C611 1.372 . S
C611 C610 1.372 . S
C611 C612 1.400 . S
C611 C616 1.490 . S
C612 H602 0.930 . S
C612 C611 1.400 . S
C612 C615 1.386 . S
H613 C629 0.930 . S
H614 C630 0.931 . S
C615 H603 0.929 . S
C615 C609 1.390 . S
C615 C612 1.386 . S
C616 C611 1.490 . S
C616 C618 1.395 . S
C616 C619 1.403 . S
H617 C623 0.930 . S
C618 H604 0.930 . S
C618 C616 1.395 . S
C618 C621 1.403 . S
C619 C616 1.403 . S
C619 C620 1.524 . S
C619 C623 1.400 . S
C620 H605 0.960 . S
C620 H606 0.960 . S
C620 H607 0.960 . S
C620 C619 1.524 . S
C621 C618 1.403 . S
C621 C622 1.392 . S
C621 C625 1.495 . S
C622 C621 1.392 . S
C622 C623 1.385 . S
C622 C624 1.478 . S
C623 H617 0.930 . S
C623 C619 1.400 . S
C623 C622 1.385 . S
C624 C622 1.478 . S
C624 C626 1.381 . S
C624 C630 1.383 . S
C625 C621 1.495 . S
C625 H631 0.959 . S
C625 H632 0.961 . S
C625 H633 0.960 . S
C626 C624 1.381 . S
C626 C627 1.394 . S
C626 H634 0.930 . S
C627 C626 1.394 . S
C627 C628 1.383 . S
C627 H635 0.929 . S
C628 C627 1.383 . S
C628 C629 1.377 . S
C629 H613 0.930 . S
C629 C628 1.377 . S
C629 C630 1.379 . S
C630 H614 0.931 . S
C630 C624 1.383 . S
C630 C629 1.379 . S
H631 C625 0.959 . S
H632 C625 0.961 . S
H633 C625 0.960 . S
H634 C626 0.930 . S
H635 C627 0.929 . S
H636 C644 0.929 . S
H637 C646 0.930 . S
H638 C648 0.930 . S
H639 C651 0.929 . S
H640 C654 0.930 . S
H641 C656 0.960 . S
H642 C656 0.960 . S
H643 C656 0.960 . S
C644 H636 0.929 . S
C644 C645 1.377 . S
C644 C646 1.384 . S
C645 C644 1.377 . S
C645 C651 1.390 . S
C646 H637 0.930 . S
C646 C644 1.384 . S
C646 C647 1.372 . S
C647 C646 1.372 . S
C647 C648 1.400 . S
C647 C652 1.490 . S
C648 H638 0.930 . S
C648 C647 1.400 . S
C648 C651 1.386 . S
H649 C665 0.930 . S
H650 C666 0.931 1_655 S
C651 H639 0.929 . S
C651 C645 1.390 . S
C651 C648 1.386 . S
C652 C647 1.490 . S
C652 C654 1.395 . S
C652 C655 1.403 1_655 S
H653 C659 0.930 . S
C654 H640 0.930 . S
C654 C652 1.395 . S
C654 C657 1.403 . S
C655 C652 1.403 1_455 S
C655 C656 1.524 . S
C655 C659 1.400 . S
C656 H641 0.960 . S
C656 H642 0.960 . S
C656 H643 0.960 . S
C656 C655 1.524 . S
C657 C654 1.403 . S
C657 C658 1.392 1_655 S
C657 C661 1.495 . S
C658 C657 1.392 1_455 S
C658 C659 1.385 . S
C658 C660 1.478 . S
C659 H653 0.930 . S
C659 C655 1.400 . S
C659 C658 1.385 . S
C660 C658 1.478 . S
C660 C662 1.381 . S
C660 C666 1.383 . S
C661 C657 1.495 . S
C661 H667 0.959 . S
C661 H668 0.961 . S
C661 H669 0.960 . S
C662 C660 1.381 . S
C662 C663 1.394 . S
C662 H670 0.930 . S
C663 C662 1.394 . S
C663 C664 1.383 . S
C663 H671 0.929 . S
C664 C663 1.383 . S
C664 C665 1.377 . S
C665 H649 0.930 . S
C665 C664 1.377 . S
C665 C666 1.379 . S
C666 H650 0.931 1_455 S
C666 C660 1.383 . S
C666 C665 1.379 . S
H667 C661 0.959 . S
H668 C661 0.961 . S
H669 C661 0.960 . S
H670 C662 0.930 . S
H671 C663 0.929 . S
H672 C680 0.929 . S
H673 C682 0.930 . S
H674 C684 0.931 1_545 S
H675 C687 0.929 1_545 S
H676 C690 0.930 . S
H677 C692 0.960 . S
H678 C692 0.960 . S
H679 C692 0.960 . S
C680 H672 0.929 . S
C680 C681 1.377 . S
C680 C682 1.384 . S
C681 C680 1.377 . S
C681 C687 1.390 . S
C682 H673 0.930 . S
C682 C680 1.384 . S
C682 C683 1.372 . S
C683 C682 1.372 . S
C683 C684 1.399 . S
C683 C688 1.490 . S
C684 H674 0.931 1_565 S
C684 C683 1.399 . S
C684 C687 1.385 . S
H685 C701 0.930 . S
H686 C702 0.931 . S
C687 H675 0.929 1_565 S
C687 C681 1.390 . S
C687 C684 1.385 . S
C688 C683 1.490 . S
C688 C690 1.395 . S
C688 C691 1.403 . S
H689 C695 0.930 . S
C690 H676 0.930 . S
C690 C688 1.395 . S
C690 C693 1.403 1_565 S
C691 C688 1.403 . S
C691 C692 1.524 . S
C691 C695 1.400 1_565 S
C692 H677 0.960 . S
C692 H678 0.960 . S
C692 H679 0.960 . S
C692 C691 1.524 . S
C693 C690 1.403 1_545 S
C693 C694 1.392 . S
C693 C697 1.495 . S
C694 C693 1.392 . S
C694 C695 1.385 . S
C694 C696 1.478 . S
C695 H689 0.930 . S
C695 C691 1.400 1_545 S
C695 C694 1.385 . S
C696 C694 1.478 . S
C696 C698 1.381 1_545 S
C696 C702 1.383 . S
C697 C693 1.495 . S
C697 H703 0.959 . S
C697 H704 0.961 . S
C697 H705 0.935 1_545 S
C698 C696 1.381 1_565 S
C698 C699 1.394 1_565 S
C698 H706 0.930 . S
C699 C698 1.394 1_545 S
C699 C700 1.383 . S
C699 H707 0.929 1_545 S
C700 C699 1.383 . S
C700 C701 1.377 . S
C701 H685 0.930 . S
C701 C700 1.377 . S
C701 C702 1.379 . S
C702 H686 0.931 . S
C702 C696 1.383 . S
C702 C701 1.379 . S
H703 C697 0.959 . S
H704 C697 0.961 . S
H705 C697 0.935 1_565 S
H706 C698 0.930 . S
H707 C699 0.929 1_565 S
H708 C716 0.929 . S
H709 C718 0.930 . S
H710 C720 0.930 . S
H711 C723 0.929 . S
H712 C726 0.930 . S
H713 C728 0.960 . S
H714 C728 0.960 . S
H715 C728 0.960 . S
C716 H708 0.929 . S
C716 C717 1.377 . S
C716 C718 1.384 . S
C717 C716 1.377 . S
C717 C723 1.390 . S
C718 H709 0.930 . S
C718 C716 1.384 . S
C718 C719 1.372 . S
C719 C718 1.372 . S
C719 C720 1.400 . S
C719 C724 1.490 . S
C720 H710 0.930 . S
C720 C719 1.400 . S
C720 C723 1.386 . S
H721 C737 0.930 . S
H722 C738 0.931 . S
C723 H711 0.929 . S
C723 C717 1.390 . S
C723 C720 1.386 . S
C724 C719 1.490 . S
C724 C726 1.395 . S
C724 C727 1.403 . S
H725 C731 0.930 . S
C726 H712 0.930 . S
C726 C724 1.395 . S
C726 C729 1.403 . S
C727 C724 1.403 . S
C727 C728 1.524 . S
C727 C731 1.400 . S
C728 H713 0.960 . S
C728 H714 0.960 . S
C728 H715 0.960 . S
C728 C727 1.524 . S
C729 C726 1.403 . S
C729 C730 1.392 . S
C729 C733 1.495 . S
C730 C729 1.392 . S
C730 C731 1.385 . S
C730 C732 1.478 . S
C731 H725 0.930 . S
C731 C727 1.400 . S
C731 C730 1.385 . S
C732 C730 1.478 . S
C732 C734 1.381 . S
C732 C738 1.383 . S
C733 C729 1.495 . S
C733 H739 0.959 . S
C733 H740 0.961 . S
C733 H741 0.960 . S
C734 C732 1.381 . S
C734 C735 1.394 . S
C734 H742 0.930 . S
C735 C734 1.394 . S
C735 C736 1.383 . S
C735 H743 0.929 . S
C736 C735 1.383 . S
C736 C737 1.377 . S
C737 H721 0.930 . S
C737 C736 1.377 . S
C737 C738 1.379 . S
C738 H722 0.931 . S
C738 C732 1.383 . S
C738 C737 1.379 . S
H739 C733 0.959 . S
H740 C733 0.961 . S
H741 C733 0.960 . S
H742 C734 0.930 . S
H743 C735 0.929 . S
H744 C752 0.929 . S
H745 C754 0.930 . S
H746 C756 0.930 1_655 S
H747 C759 0.929 . S
H748 C762 0.930 . S
H749 C764 0.960 . S
H750 C764 0.960 . S
H751 C764 0.960 . S
C752 H744 0.929 . S
C752 C753 1.377 . S
C752 C754 1.384 . S
C753 C752 1.377 . S
C753 C759 1.390 . S
C754 H745 0.930 . S
C754 C752 1.384 . S
C754 C755 1.372 . S
C755 C754 1.372 . S
C755 C756 1.400 . S
C755 C760 1.490 . S
C756 H746 0.930 1_455 S
C756 C755 1.400 . S
C756 C759 1.386 . S
H757 C773 0.930 . S
H758 C774 0.931 . S
C759 H747 0.929 . S
C759 C753 1.390 . S
C759 C756 1.386 . S
C760 C755 1.490 . S
C760 C762 1.395 . S
C760 C763 1.403 1_455 S
H761 C767 0.930 . S
C762 H748 0.930 . S
C762 C760 1.395 . S
C762 C765 1.403 . S
C763 C760 1.403 1_655 S
C763 C764 1.524 . S
C763 C767 1.400 . S
C764 H749 0.960 . S
C764 H750 0.960 . S
C764 H751 0.960 . S
C764 C763 1.524 . S
C765 C762 1.403 . S
C765 C766 1.392 1_455 S
C765 C769 1.495 . S
C766 C765 1.392 1_655 S
C766 C767 1.385 . S
C766 C768 1.478 . S
C767 H761 0.930 . S
C767 C763 1.400 . S
C767 C766 1.385 . S
C768 C766 1.478 . S
C768 C770 1.381 . S
C768 C774 1.383 . S
C769 C765 1.495 . S
C769 H775 0.959 . S
C769 H776 0.961 . S
C769 H777 0.960 . S
C770 C768 1.381 . S
C770 C771 1.394 . S
C770 H778 0.930 1_655 S
C771 C770 1.394 . S
C771 C772 1.383 . S
C771 H779 0.929 . S
C772 C771 1.383 . S
C772 C773 1.377 . S
C773 H757 0.930 . S
C773 C772 1.377 . S
C773 C774 1.379 . S
C774 H758 0.931 . S
C774 C768 1.383 . S
C774 C773 1.379 . S
H775 C769 0.959 . S
H776 C769 0.961 . S
H777 C769 0.960 . S
H778 C770 0.930 1_455 S
H779 C771 0.929 . S
H780 C788 0.929 . S
H781 C790 0.930 . S
H782 C792 0.930 1_545 S
H783 C795 0.929 . S
H784 C798 0.930 . S
H785 C800 0.960 . S
H786 C800 0.960 . S
H787 C800 0.960 . S
C788 H780 0.929 . S
C788 C789 1.377 . S
C788 C790 1.384 . S
C789 C788 1.377 . S
C789 C795 1.390 . S
C790 H781 0.930 . S
C790 C788 1.384 . S
C790 C791 1.372 . S
C791 C790 1.372 . S
C791 C792 1.400 . S
C791 C796 1.490 . S
C792 H782 0.930 1_565 S
C792 C791 1.400 . S
C792 C795 1.386 . S
H793 C809 0.930 . S
H794 C810 0.931 . S
C795 H783 0.929 . S
C795 C789 1.390 . S
C795 C792 1.386 . S
C796 C791 1.490 . S
C796 C798 1.395 1_565 S
C796 C799 1.403 . S
H797 C803 0.930 . S
C798 H784 0.930 . S
C798 C796 1.395 1_545 S
C798 C801 1.403 . S
C799 C796 1.403 . S
C799 C800 1.524 . S
C799 C803 1.400 . S
C800 H785 0.960 . S
C800 H786 0.960 . S
C800 H787 0.960 . S
C800 C799 1.524 . S
C801 C798 1.403 . S
C801 C802 1.392 . S
C801 C805 1.495 . S
C802 C801 1.392 . S
C802 C803 1.385 1_545 S
C802 C804 1.478 . S
C803 H797 0.930 . S
C803 C799 1.400 . S
C803 C802 1.385 1_565 S
C804 C802 1.478 . S
C804 C806 1.381 . S
C804 C810 1.383 . S
C805 C801 1.495 . S
C805 H811 0.959 . S
C805 H812 0.961 . S
C805 H813 0.960 . S
C806 C804 1.381 . S
C806 C807 1.394 . S
C806 H814 0.930 1_545 S
C807 C806 1.394 . S
C807 C808 1.383 . S
C807 H815 0.963 . S
C808 C807 1.383 . S
C808 C809 1.377 . S
C809 H793 0.930 . S
C809 C808 1.377 . S
C809 C810 1.379 . S
C810 H794 0.931 . S
C810 C804 1.383 . S
C810 C809 1.379 . S
H811 C805 0.959 . S
H812 C805 0.961 . S
H813 C805 0.960 . S
H814 C806 0.930 1_565 S
H815 C807 0.963 . S
H816 C824 0.929 . S
H817 C826 0.930 . S
H818 C828 0.930 . S
H819 C831 0.929 . S
H820 C834 0.930 . S
H821 C836 0.960 . S
H822 C836 0.960 . S
H823 C836 0.960 . S
C824 H816 0.929 . S
C824 C825 1.377 . S
C824 C826 1.384 . S
C825 C824 1.377 . S
C825 C831 1.390 . S
C826 H817 0.930 . S
C826 C824 1.384 . S
C826 C827 1.372 . S
C827 C826 1.372 . S
C827 C828 1.400 . S
C827 C832 1.490 . S
C828 H818 0.930 . S
C828 C827 1.400 . S
C828 C831 1.386 . S
H829 C845 0.930 . S
H830 C846 0.931 . S
C831 H819 0.929 . S
C831 C825 1.390 . S
C831 C828 1.386 . S
C832 C827 1.490 . S
C832 C834 1.395 . S
C832 C835 1.403 . S
H833 C839 0.930 . S
C834 H820 0.930 . S
C834 C832 1.395 . S
C834 C837 1.403 . S
C835 C832 1.403 . S
C835 C836 1.524 . S
C835 C839 1.400 . S
C836 H821 0.960 . S
C836 H822 0.960 . S
C836 H823 0.960 . S
C836 C835 1.524 . S
C837 C834 1.403 . S
C837 C838 1.392 . S
C837 C841 1.495 . S
C838 C837 1.392 . S
C838 C839 1.385 . S
C838 C840 1.478 . S
C839 H833 0.930 . S
C839 C835 1.400 . S
C839 C838 1.385 . S
C840 C838 1.478 . S
C840 C842 1.381 . S
C840 C846 1.383 . S
C841 C837 1.495 . S
C841 H847 0.959 . S
C841 H848 0.961 . S
C841 H849 0.960 . S
C842 C840 1.381 . S
C842 C843 1.394 . S
C842 H850 0.930 . S
C843 C842 1.394 . S
C843 C844 1.383 . S
C843 H851 0.929 . S
C844 C843 1.383 . S
C844 C845 1.377 . S
C845 H829 0.930 . S
C845 C844 1.377 . S
C845 C846 1.379 . S
C846 H830 0.931 . S
C846 C840 1.383 . S
C846 C845 1.379 . S
H847 C841 0.959 . S
H848 C841 0.961 . S
H849 C841 0.960 . S
H850 C842 0.930 . S
H851 C843 0.929 . S
H852 C860 0.929 . S
H853 C862 0.930 . S
H854 C864 0.928 . S
H855 C867 0.929 1_655 S
H856 C870 0.930 . S
H857 C872 0.960 . S
H858 C872 0.960 . S
H859 C872 0.960 . S
C860 H852 0.929 . S
C860 C861 1.377 . S
C860 C862 1.384 . S
C861 C860 1.377 . S
C861 C867 1.390 . S
C862 H853 0.930 . S
C862 C860 1.384 . S
C862 C863 1.372 . S
C863 C862 1.372 . S
C863 C864 1.402 1_455 S
C863 C868 1.490 . S
C864 H854 0.928 . S
C864 C863 1.402 1_655 S
C864 C867 1.385 1_655 S
H865 C881 0.930 . S
H866 C882 0.931 . S
C867 H855 0.929 1_455 S
C867 C861 1.390 . S
C867 C864 1.385 1_455 S
C868 C863 1.490 . S
C868 C870 1.395 . S
C868 C871 1.403 1_455 S
H869 C875 0.930 . S
C870 H856 0.930 . S
C870 C868 1.395 . S
C870 C873 1.403 . S
C871 C868 1.403 1_655 S
C871 C872 1.524 . S
C871 C875 1.400 . S
C872 H857 0.960 . S
C872 H858 0.960 . S
C872 H859 0.960 . S
C872 C871 1.524 . S
C873 C870 1.403 . S
C873 C874 1.392 1_455 S
C873 C877 1.495 . S
C874 C873 1.392 1_655 S
C874 C875 1.385 . S
C874 C876 1.478 . S
C875 H869 0.930 . S
C875 C871 1.400 . S
C875 C874 1.385 . S
C876 C874 1.478 . S
C876 C878 1.381 1_655 S
C876 C882 1.383 . S
C877 C873 1.495 . S
C877 H883 0.959 . S
C877 H884 0.961 . S
C877 H885 0.960 . S
C878 C876 1.381 1_455 S
C878 C879 1.394 1_455 S
C878 H886 0.930 . S
C879 C878 1.394 1_655 S
C879 C880 1.383 . S
C879 H887 0.929 1_655 S
C880 C879 1.383 . S
C880 C881 1.377 . S
C881 H865 0.930 . S
C881 C880 1.377 . S
C881 C882 1.379 . S
C882 H866 0.931 . S
C882 C876 1.383 . S
C882 C881 1.379 . S
H883 C877 0.959 . S
H884 C877 0.961 . S
H885 C877 0.960 . S
H886 C878 0.930 . S
H887 C879 0.929 1_455 S
H888 C896 0.929 . S
H889 C898 0.930 . S
H890 C900 0.930 . S
H891 C903 0.929 . S
H892 C906 0.930 . S
H893 C908 0.960 . S
H894 C908 0.960 . S
H895 C908 0.960 . S
C896 H888 0.929 . S
C896 C897 1.377 . S
C896 C898 1.384 . S
C897 C896 1.377 . S
C897 C903 1.390 . S
C898 H889 0.930 . S
C898 C896 1.384 . S
C898 C899 1.372 . S
C899 C898 1.372 . S
C899 C900 1.400 . S
C899 C904 1.490 . S
C900 H890 0.930 . S
C900 C899 1.400 . S
C900 C903 1.386 . S
H901 C917 0.930 . S
H902 C918 0.931 1_565 S
C903 H891 0.929 . S
C903 C897 1.390 . S
C903 C900 1.386 . S
C904 C899 1.490 . S
C904 C906 1.395 . S
C904 C907 1.403 1_565 S
H905 C911 0.930 . S
C906 H892 0.930 . S
C906 C904 1.395 . S
C906 C909 1.403 . S
C907 C904 1.403 1_545 S
C907 C908 1.524 . S
C907 C911 1.400 . S
C908 H893 0.960 . S
C908 H894 0.960 . S
C908 H895 0.960 . S
C908 C907 1.524 . S
C909 C906 1.403 . S
C909 C910 1.392 1_565 S
C909 C913 1.495 . S
C910 C909 1.392 1_545 S
C910 C911 1.385 . S
C910 C912 1.478 . S
C911 H905 0.930 . S
C911 C907 1.400 . S
C911 C910 1.385 . S
C912 C910 1.478 . S
C912 C914 1.381 . S
C912 C918 1.383 . S
C913 C909 1.495 . S
C913 H919 0.959 . S
C913 H920 0.961 . S
C913 H921 0.960 . S
C914 C912 1.381 . S
C914 C915 1.394 . S
C914 H922 0.930 . S
C915 C914 1.394 . S
C915 C916 1.383 . S
C915 H923 0.929 . S
C916 C915 1.383 . S
C916 C917 1.377 . S
C917 H901 0.930 . S
C917 C916 1.377 . S
C917 C918 1.379 . S
C918 H902 0.931 1_545 S
C918 C912 1.383 . S
C918 C917 1.379 . S
H919 C913 0.959 . S
H920 C913 0.961 . S
H921 C913 0.960 . S
H922 C914 0.930 . S
H923 C915 0.929 . S
H924 C932 0.929 . S
H925 C934 0.930 . S
H926 C936 0.930 . S
H927 C939 0.929 . S
H928 C942 0.930 . S
H929 C944 0.960 . S
H930 C944 0.960 . S
H931 C944 0.960 . S
C932 H924 0.929 . S
C932 C933 1.377 . S
C932 C934 1.384 . S
C933 C932 1.377 . S
C933 C939 1.390 . S
C934 H925 0.930 . S
C934 C932 1.384 . S
C934 C935 1.372 . S
C935 C934 1.372 . S
C935 C936 1.400 . S
C935 C940 1.490 . S
C936 H926 0.930 . S
C936 C935 1.400 . S
C936 C939 1.386 . S
H937 C953 0.930 . S
H938 C954 0.931 . S
C939 H927 0.929 . S
C939 C933 1.390 . S
C939 C936 1.386 . S
C940 C935 1.490 . S
C940 C942 1.395 . S
C940 C943 1.403 . S
H941 C947 0.930 . S
C942 H928 0.930 . S
C942 C940 1.395 . S
C942 C945 1.403 . S
C943 C940 1.403 . S
C943 C944 1.524 . S
C943 C947 1.400 . S
C944 H929 0.960 . S
C944 H930 0.960 . S
C944 H931 0.960 . S
C944 C943 1.524 . S
C945 C942 1.403 . S
C945 C946 1.392 . S
C945 C949 1.495 . S
C946 C945 1.392 . S
C946 C947 1.385 . S
C946 C948 1.478 . S
C947 H941 0.930 . S
C947 C943 1.400 . S
C947 C946 1.385 . S
C948 C946 1.478 . S
C948 C950 1.381 . S
C948 C954 1.383 . S
C949 C945 1.495 . S
C949 H955 0.959 . S
C949 H956 0.961 . S
C949 H957 0.960 . S
C950 C948 1.381 . S
C950 C951 1.394 . S
C950 H958 0.930 . S
C951 C950 1.394 . S
C951 C952 1.383 . S
C951 H959 0.929 . S
C952 C951 1.383 . S
C952 C953 1.377 . S
C953 H937 0.930 . S
C953 C952 1.377 . S
C953 C954 1.379 . S
C954 H938 0.931 . S
C954 C948 1.383 . S
C954 C953 1.379 . S
H955 C949 0.959 . S
H956 C949 0.961 . S
H957 C949 0.960 . S
H958 C950 0.930 . S
H959 C951 0.929 . S
H960 C968 0.929 . S
H961 C970 0.930 . S
H962 C972 0.930 1_455 S
H963 C975 0.925 1_455 S
H964 C978 0.930 . S
H965 C980 0.960 . S
H966 C980 0.960 . S
H967 C980 0.960 . S
C968 H960 0.929 . S
C968 C969 1.377 . S
C968 C970 1.384 . S
C969 C968 1.377 . S
C969 C975 1.390 . S
C970 H961 0.930 . S
C970 C968 1.384 . S
C970 C971 1.372 . S
C971 C970 1.372 . S
C971 C972 1.400 . S
C971 C976 1.490 . S
C972 H962 0.930 1_655 S
C972 C971 1.400 . S
C972 C975 1.386 . S
H973 C989 0.930 . S
H974 C990 0.931 . S
C975 H963 0.925 1_655 S
C975 C969 1.390 . S
C975 C972 1.386 . S
C976 C971 1.490 . S
C976 C978 1.395 . S
C976 C979 1.403 1_655 S
H977 C983 0.930 . S
C978 H964 0.930 . S
C978 C976 1.395 . S
C978 C981 1.403 . S
C979 C976 1.403 1_455 S
C979 C980 1.524 . S
C979 C983 1.400 . S
C980 H965 0.960 . S
C980 H966 0.960 . S
C980 H967 0.960 . S
C980 C979 1.524 . S
C981 C978 1.403 . S
C981 C982 1.392 1_655 S
C981 C985 1.495 . S
C982 C981 1.392 1_455 S
C982 C983 1.385 . S
C982 C984 1.478 . S
C983 H977 0.930 . S
C983 C979 1.400 . S
C983 C982 1.385 . S
C984 C982 1.478 . S
C984 C986 1.381 1_455 S
C984 C990 1.383 . S
C985 C981 1.495 . S
C985 H991 0.959 . S
C985 H992 0.961 . S
C985 H993 0.960 . S
C986 C984 1.381 1_655 S
C986 C987 1.375 1_655 S
C986 H994 0.950 . S
C987 C986 1.375 1_455 S
C987 C988 1.383 . S
C987 H995 0.932 . S
C988 C987 1.383 . S
C988 C989 1.377 . S
C989 H973 0.930 . S
C989 C988 1.377 . S
C989 C990 1.379 . S
C990 H974 0.931 . S
C990 C984 1.383 . S
C990 C989 1.379 . S
H991 C985 0.959 . S
H992 C985 0.961 . S
H993 C985 0.960 . S
H994 C986 0.950 . S
H995 C987 0.932 . S
H996 C1004 0.929 . S
H997 C1006 0.930 . S
H998 C1008 0.930 . S
H999 C1011 0.929 . S
H1000 C1014 0.930 . S
H1001 C1016 0.960 . S
H1002 C1016 0.960 . S
H1003 C1016 0.960 . S
C1004 H996 0.929 . S
C1004 C1005 1.377 . S
C1004 C1006 1.384 . S
C1005 C1004 1.377 . S
C1005 C1011 1.390 . S
C1006 H997 0.930 . S
C1006 C1004 1.384 . S
C1006 C1007 1.372 . S
C1007 C1006 1.372 . S
C1007 C1008 1.400 . S
C1007 C1012 1.490 . S
C1008 H998 0.930 . S
C1008 C1007 1.400 . S
C1008 C1011 1.386 . S
H1009 C1025 0.930 . S
H1010 C1026 0.931 . S
C1011 H999 0.929 . S
C1011 C1005 1.390 . S
C1011 C1008 1.386 . S
C1012 C1007 1.490 . S
C1012 C1014 1.395 1_545 S
C1012 C1015 1.403 . S
H1013 C1019 0.930 . S
C1014 H1000 0.930 . S
C1014 C1012 1.395 1_565 S
C1014 C1017 1.403 . S
C1015 C1012 1.403 . S
C1015 C1016 1.524 . S
C1015 C1019 1.400 . S
C1016 H1001 0.960 . S
C1016 H1002 0.960 . S
C1016 H1003 0.960 . S
C1016 C1015 1.524 . S
C1017 C1014 1.403 . S
C1017 C1018 1.392 . S
C1017 C1021 1.495 . S
C1018 C1017 1.392 . S
C1018 C1019 1.385 1_565 S
C1018 C1020 1.478 . S
C1019 H1013 0.930 . S
C1019 C1015 1.400 . S
C1019 C1018 1.385 1_545 S
C1020 C1018 1.478 . S
C1020 C1022 1.381 . S
C1020 C1026 1.383 . S
C1021 C1017 1.495 . S
C1021 H1027 0.959 . S
C1021 H1028 0.961 . S
C1021 H1029 0.960 . S
C1022 C1020 1.381 . S
C1022 C1023 1.394 . S
C1022 H1030 0.930 . S
C1023 C1022 1.394 . S
C1023 C1024 1.383 . S
C1023 H1031 0.929 . S
C1024 C1023 1.383 . S
C1024 C1025 1.377 . S
C1025 H1009 0.930 . S
C1025 C1024 1.377 . S
C1025 C1026 1.379 . S
C1026 H1010 0.931 . S
C1026 C1020 1.383 . S
C1026 C1025 1.379 . S
H1027 C1021 0.959 . S
H1028 C1021 0.961 . S
H1029 C1021 0.960 . S
H1030 C1022 0.930 . S
H1031 C1023 0.929 . S
C177 C7 1.439 . S
C196 C133 1.424 . S
C213 C21 1.439 . S
C232 C147 1.423 . S
C249 C35 1.445 . S
C268 C161 1.454 . S
C285 C49 1.444 . S
C304 C91 1.448 . S
C321 C105 1.443 . S
C340 C63 1.447 . S
C357 C119 1.446 . S
C376 C77 1.455 . S
C393 C146 1.489 . S
C412 C6 1.512 . S
C429 C20 1.492 . S
C448 C160 1.502 . S
C465 C34 1.491 . S
C484 C90 1.504 . S
C501 C48 1.496 . S
C520 C104 1.477 . S
C537 C62 1.490 . S
C556 C118 1.511 . S
C573 C76 1.490 . S
C592 C132 1.509 . S
C609 C134 1.039 . S
C628 C8 1.020 1_556 S
C645 C22 1.049 . S
C664 C148 1.048 1_554 S
C681 C36 1.035 . S
C700 C162 1.021 . S
C717 C92 1.034 . S
C736 C50 0.988 1_556 S
C753 C64 1.046 . S
C772 C106 1.046 1_554 S
C789 C120 1.034 . S
C808 C78 1.013 . S
C825 C9 1.509 . S
C844 C51 1.512 . S
C861 C65 1.510 . S
C880 C23 1.486 . S
C897 C37 1.505 . S
C916 C79 1.499 . S
C933 C93 1.507 . S
C952 C135 1.489 . S
C969 C107 1.509 . S
C988 C149 1.485 . S
C1005 C163 1.509 . S
C1024 C121 1.510 . S
