# Generated by pormake.
# Topology acs-i, (5)-cn, num edge types: 1
# Building blocks:
#     Node 0, Type 0, BuildingBlock: BEQFEK_clean_sbu_0, # of connection points: 5
#     Node 1, Type 0, BuildingBlock: BEQFEK_clean_sbu_0, # of connection points: 5
#     Node 2, Type 0, BuildingBlock: BEQFEK_clean_sbu_0, # of connection points: 5
#     Node 3, Type 0, BuildingBlock: BEQFEK_clean_sbu_0, # of connection points: 5
#     Node 4, Type 0, BuildingBlock: BEQFEK_clean_sbu_0, # of connection points: 5
#     Node 5, Type 0, BuildingBlock: BEQFEK_clean_sbu_0, # of connection points: 5
#     Node 6, Type 0, BuildingBlock: BEQFEK_clean_sbu_0, # of connection points: 5
#     Node 7, Type 0, BuildingBlock: BEQFEK_clean_sbu_0, # of connection points: 5
#     Node 8, Type 0, BuildingBlock: BEQFEK_clean_sbu_0, # of connection points: 5
#     Node 9, Type 0, BuildingBlock: BEQFEK_clean_sbu_0, # of connection points: 5
#     Node 10, Type 0, BuildingBlock: BEQFEK_clean_sbu_0, # of connection points: 5
#     Node 11, Type 0, BuildingBlock: BEQFEK_clean_sbu_0, # of connection points: 5
#     Edge 12, Type (0, 0), BuildingBlock: MIFKUJ_clean_linker_0, # of connection points: 2
#     Edge 13, Type (0, 0), BuildingBlock: MIFKUJ_clean_linker_0, # of connection points: 2
#     Edge 14, Type (0, 0), BuildingBlock: MIFKUJ_clean_linker_0, # of connection points: 2
#     Edge 15, Type (0, 0), BuildingBlock: MIFKUJ_clean_linker_0, # of connection points: 2
#     Edge 16, Type (0, 0), BuildingBlock: MIFKUJ_clean_linker_0, # of connection points: 2
#     Edge 17, Type (0, 0), BuildingBlock: MIFKUJ_clean_linker_0, # of connection points: 2
#     Edge 18, Type (0, 0), BuildingBlock: MIFKUJ_clean_linker_0, # of connection points: 2
#     Edge 19, Type (0, 0), BuildingBlock: MIFKUJ_clean_linker_0, # of connection points: 2
#     Edge 20, Type (0, 0), BuildingBlock: MIFKUJ_clean_linker_0, # of connection points: 2
#     Edge 21, Type (0, 0), BuildingBlock: MIFKUJ_clean_linker_0, # of connection points: 2
#     Edge 22, Type (0, 0), BuildingBlock: MIFKUJ_clean_linker_0, # of connection points: 2
#     Edge 23, Type (0, 0), BuildingBlock: MIFKUJ_clean_linker_0, # of connection points: 2
#     Edge 24, Type (0, 0), BuildingBlock: MIFKUJ_clean_linker_0, # of connection points: 2
#     Edge 25, Type (0, 0), BuildingBlock: MIFKUJ_clean_linker_0, # of connection points: 2
#     Edge 26, Type (0, 0), BuildingBlock: MIFKUJ_clean_linker_0, # of connection points: 2
#     Edge 27, Type (0, 0), BuildingBlock: MIFKUJ_clean_linker_0, # of connection points: 2
#     Edge 28, Type (0, 0), BuildingBlock: MIFKUJ_clean_linker_0, # of connection points: 2
#     Edge 29, Type (0, 0), BuildingBlock: MIFKUJ_clean_linker_0, # of connection points: 2
#     Edge 30, Type (0, 0), BuildingBlock: MIFKUJ_clean_linker_0, # of connection points: 2
#     Edge 31, Type (0, 0), BuildingBlock: MIFKUJ_clean_linker_0, # of connection points: 2
#     Edge 32, Type (0, 0), BuildingBlock: MIFKUJ_clean_linker_0, # of connection points: 2
#     Edge 33, Type (0, 0), BuildingBlock: MIFKUJ_clean_linker_0, # of connection points: 2
#     Edge 34, Type (0, 0), BuildingBlock: MIFKUJ_clean_linker_0, # of connection points: 2
#     Edge 35, Type (0, 0), BuildingBlock: MIFKUJ_clean_linker_0, # of connection points: 2
#     Edge 36, Type (0, 0), BuildingBlock: MIFKUJ_clean_linker_0, # of connection points: 2
#     Edge 37, Type (0, 0), BuildingBlock: MIFKUJ_clean_linker_0, # of connection points: 2
#     Edge 38, Type (0, 0), BuildingBlock: MIFKUJ_clean_linker_0, # of connection points: 2
#     Edge 39, Type (0, 0), BuildingBlock: MIFKUJ_clean_linker_0, # of connection points: 2
#     Edge 40, Type (0, 0), BuildingBlock: MIFKUJ_clean_linker_0, # of connection points: 2
#     Edge 41, Type (0, 0), BuildingBlock: MIFKUJ_clean_linker_0, # of connection points: 2
# Relax obj value: 1.273
# Max RMSD: 0.221
# Mean RMSD: 0.210
data_MOF--net-acs-i--node1-BEQFEK_clean_sbu_0--edge1-MIFKUJ_clean_linker_0
_symmetry_space_group_name_H-M    P1
_symmetry_Int_Tables_number       1
_symmetry_cell_setting            triclinic
loop_
_symmetry_equiv_pos_as_xyz
'x, y, z'
_cell_length_a     57.634897
_cell_length_b     48.692889
_cell_length_c     39.386803
_cell_angle_alpha  89.968171
_cell_angle_beta   89.870482
_cell_angle_gamma 115.00741
loop_
_atom_site_label
_atom_site_type_symbol
_atom_site_fract_x
_atom_site_fract_y
_atom_site_fract_z
_atom_type_partial_charge
Co0 Co 0.35951 0.36941 0.33367 0.0
Co1 Co 0.31263 0.3525 0.2847 0.0
C2 C 0.36403 0.39857 0.26443 0.0
O3 O 0.3736 0.39521 0.29237 0.0
O4 O 0.34041 0.38336 0.25811 0.0
C5 C 0.40986 0.40218 0.36075 0.0
O6 O 0.41717 0.39995 0.32965 0.0
C7 C 0.27603 0.35751 0.23669 0.0
C8 C 0.24944 0.30952 0.22871 0.0
C9 C 0.25542 0.33865 0.21741 0.0
N10 N 0.28202 0.34038 0.25865 0.0
N11 N 0.26582 0.31174 0.25405 0.0
C12 C 0.29165 0.39077 0.23141 0.0
H13 H 0.30281 0.39432 0.20754 0.0
H14 H 0.30489 0.40079 0.25296 0.0
H15 H 0.279 0.40259 0.22877 0.0
C16 C 0.32433 0.3818 0.37943 0.0
N17 N 0.32933 0.3723 0.34938 0.0
N18 N 0.31018 0.36732 0.32852 0.0
C19 C 0.29273 0.37456 0.34434 0.0
C20 C 0.30108 0.38403 0.37732 0.0
C21 C 0.3413 0.38772 0.40983 0.0
H22 H 0.34943 0.37077 0.41107 0.0
H23 H 0.35732 0.41059 0.40749 0.0
H24 H 0.33061 0.3865 0.43367 0.0
O25 O 0.3525 0.32671 0.32361 0.0
O26 O 0.31964 0.31627 0.28868 0.0
H27 H 0.25323 0.35271 0.3307 0.0
H28 H 0.2648 0.39295 0.33784 0.0
C29 C 0.26975 0.37502 0.32718 0.0
H30 H 0.27333 0.37921 0.29973 0.0
H31 H 0.26687 0.29353 0.26686 0.0
O32 O 0.38636 0.38784 0.36862 0.0
C33 C 0.33521 0.30835 0.3042 0.0
Co34 Co 0.85058 0.43564 0.50182 0.0
Co35 Co 0.82783 0.43774 0.4298 0.0
C36 C 0.8257 0.47712 0.4871 0.0
O37 O 0.83717 0.46627 0.50672 0.0
O38 O 0.82045 0.46794 0.45663 0.0
C39 C 0.84698 0.42777 0.57223 0.0
O40 O 0.82456 0.4276 0.56572 0.0
C41 C 0.78445 0.42758 0.38732 0.0
C42 C 0.7964 0.41989 0.33623 0.0
C43 C 0.77581 0.42013 0.35433 0.0
N44 N 0.80898 0.43183 0.38869 0.0
N45 N 0.81624 0.42774 0.35796 0.0
C46 C 0.7687 0.42623 0.41816 0.0
H47 H 0.77771 0.42217 0.44132 0.0
H48 H 0.74906 0.40797 0.41574 0.0
H49 H 0.76728 0.44814 0.42093 0.0
C50 C 0.81679 0.37078 0.49547 0.0
N51 N 0.82613 0.39938 0.48375 0.0
N52 N 0.81672 0.39962 0.45334 0.0
C53 C 0.8008 0.37082 0.44496 0.0
C54 C 0.80038 0.35186 0.47144 0.0
C55 C 0.82365 0.36173 0.52898 0.0
H56 H 0.84466 0.37324 0.53273 0.0
H57 H 0.81422 0.36881 0.54955 0.0
H58 H 0.81731 0.33688 0.53093 0.0
O59 O 0.87991 0.45122 0.47151 0.0
O60 O 0.86551 0.45548 0.42015 0.0
H61 H 0.80128 0.37212 0.39062 0.0
H62 H 0.77943 0.3362 0.4085 0.0
C63 C 0.78758 0.36118 0.41155 0.0
H64 H 0.77183 0.36843 0.40987 0.0
H65 H 0.8343 0.42884 0.3522 0.0
O66 O 0.8621 0.43023 0.54772 0.0
C67 C 0.88372 0.4584 0.44028 0.0
Co68 Co 0.52392 0.77576 0.9699 0.0
Co69 Co 0.52231 0.7108 0.98304 0.0
C70 C 0.48222 0.71873 0.94178 0.0
O71 O 0.49362 0.74735 0.94506 0.0
O72 O 0.49064 0.70128 0.95607 0.0
C73 C 0.50221 0.81871 0.96508 0.0
O74 O 0.4814 0.79403 0.95895 0.0
C75 C 0.50256 0.65005 0.01293 0.0
C76 C 0.53742 0.64202 0.01704 0.0
C77 C 0.51154 0.62949 0.02495 0.0
N78 N 0.52224 0.6736 0.99882 0.0
N79 N 0.54293 0.66843 0.00083 0.0
C80 C 0.47657 0.64931 0.01826 0.0
H81 H 0.47748 0.6725 0.01653 0.0
H82 H 0.46865 0.63929 0.04336 0.0
H83 H 0.46348 0.63515 0.99822 0.0
C84 C 0.5248 0.77702 0.04449 0.0
N85 N 0.52371 0.76274 0.01489 0.0
N86 N 0.52422 0.73638 0.02086 0.0
C87 C 0.52617 0.73341 0.05471 0.0
C88 C 0.52638 0.75893 0.07061 0.0
C89 C 0.52582 0.80816 0.04743 0.0
H90 H 0.54162 0.82408 0.03136 0.0
H91 H 0.50761 0.80786 0.03796 0.0
H92 H 0.52886 0.8164 0.07402 0.0
O93 O 0.55478 0.77759 0.94649 0.0
O94 O 0.5521 0.73073 0.95206 0.0
H95 H 0.54193 0.70079 0.05855 0.0
H96 H 0.53288 0.71108 0.09886 0.0
C97 C 0.52764 0.70668 0.07169 0.0
H98 H 0.50871 0.68706 0.07025 0.0
H99 H 0.56105 0.68354 0.99244 0.0
O100 O 0.52322 0.81653 0.96977 0.0
C101 C 0.5632 0.75769 0.94061 0.0
Co102 Co 0.63224 0.61792 0.80772 0.0
Co103 Co 0.67784 0.63695 0.75531 0.0
C104 C 0.62579 0.5938 0.73553 0.0
O105 O 0.61729 0.59631 0.76461 0.0
O106 O 0.64938 0.60797 0.72833 0.0
C107 C 0.60131 0.56694 0.84017 0.0
O108 O 0.61478 0.55913 0.81845 0.0
C109 C 0.71249 0.63344 0.70337 0.0
C110 C 0.74665 0.67693 0.70846 0.0
C111 C 0.73643 0.65045 0.68968 0.0
N112 N 0.70836 0.64923 0.72876 0.0
N113 N 0.72886 0.67525 0.73172 0.0
C114 C 0.69467 0.60164 0.69421 0.0
H115 H 0.68389 0.58928 0.71693 0.0
H116 H 0.70532 0.58932 0.68329 0.0
H117 H 0.68091 0.60225 0.67494 0.0
C118 C 0.67034 0.60696 0.84942 0.0
N119 N 0.66296 0.61471 0.81989 0.0
N120 N 0.68125 0.6205 0.79725 0.0
C121 C 0.70053 0.61576 0.81132 0.0
C122 C 0.69425 0.60707 0.84493 0.0
C123 C 0.65588 0.60226 0.88215 0.0
H124 H 0.64418 0.6154 0.88225 0.0
H125 H 0.64303 0.57785 0.88518 0.0
H126 H 0.66921 0.6093 0.90405 0.0
O127 O 0.63933 0.66134 0.80163 0.0
O128 O 0.67082 0.67265 0.76369 0.0
H129 H 0.73727 0.64288 0.78998 0.0
H130 H 0.73399 0.60656 0.8058 0.0
C131 C 0.72402 0.61855 0.7925 0.0
H132 H 0.71874 0.60892 0.7667 0.0
H133 H 0.7307 0.69185 0.74961 0.0
O134 O 0.60531 0.59473 0.84174 0.0
C135 C 0.656 0.6802 0.78165 0.0
Co136 Co 0.15726 0.54623 0.00515 0.0
Co137 Co 0.17887 0.54458 0.93228 0.0
C138 C 0.18726 0.51036 0.99058 0.0
O139 O 0.17519 0.52059 0.00996 0.0
O140 O 0.19022 0.51722 0.95917 0.0
C141 C 0.16277 0.55607 0.07478 0.0
O142 O 0.18599 0.55973 0.06645 0.0
C143 C 0.22142 0.55909 0.88671 0.0
C144 C 0.20685 0.56653 0.83737 0.0
C145 C 0.22878 0.56843 0.85366 0.0
N146 N 0.19635 0.55181 0.88989 0.0
N147 N 0.18752 0.5556 0.86013 0.0
C148 C 0.23862 0.56172 0.91621 0.0
H149 H 0.23013 0.56545 0.94009 0.0
H150 H 0.25783 0.58063 0.91252 0.0
H151 H 0.24097 0.54033 0.91863 0.0
C152 C 0.18534 0.61173 0.99568 0.0
N153 N 0.17824 0.58311 0.98505 0.0
N154 N 0.1875 0.58319 0.9544 0.0
C155 C 0.201 0.6124 0.94473 0.0
C156 C 0.20007 0.63113 0.97068 0.0
C157 C 0.17735 0.62042 0.02867 0.0
H158 H 0.15679 0.60599 0.03349 0.0
H159 H 0.18868 0.61685 0.04951 0.0
H160 H 0.18065 0.64459 0.02875 0.0
O161 O 0.12738 0.52564 0.97712 0.0
O162 O 0.141 0.52288 0.92469 0.0
H163 H 0.20048 0.61015 0.89045 0.0
H164 H 0.22019 0.64725 0.90733 0.0
C165 C 0.21384 0.62252 0.91106 0.0
H166 H 0.23086 0.6175 0.90964 0.0
H167 H 0.16873 0.55267 0.85595 0.0
O168 O 0.14624 0.55092 0.05152 0.0
C169 C 0.12307 0.51757 0.94625 0.0
Co170 Co 0.48119 0.22717 0.47885 0.0
Co171 Co 0.47771 0.28985 0.47549 0.0
C172 C 0.52181 0.28212 0.44499 0.0
O173 O 0.51221 0.25436 0.45377 0.0
O174 O 0.51088 0.29922 0.45255 0.0
C175 C 0.50601 0.19208 0.50207 0.0
O176 O 0.52307 0.21927 0.51034 0.0
C177 C 0.49166 0.35358 0.49043 0.0
C178 C 0.45436 0.3562 0.48772 0.0
C179 C 0.47997 0.37304 0.49541 0.0
N180 N 0.47378 0.32657 0.48044 0.0
N181 N 0.45162 0.32845 0.47813 0.0
C182 C 0.51857 0.35916 0.49918 0.0
H183 H 0.52013 0.33742 0.50291 0.0
H184 H 0.52495 0.37302 0.52257 0.0
H185 H 0.53147 0.37173 0.47806 0.0
C186 C 0.47444 0.23495 0.55223 0.0
N187 N 0.47692 0.24476 0.51988 0.0
N188 N 0.4758 0.27123 0.51902 0.0
C189 C 0.47295 0.27922 0.55115 0.0
C190 C 0.47231 0.2566 0.57314 0.0
C191 C 0.47197 0.20429 0.56292 0.0
H192 H 0.46206 0.1873 0.54304 0.0
H193 H 0.49131 0.20524 0.56711 0.0
H194 H 0.46103 0.19702 0.58703 0.0
O195 O 0.45157 0.21822 0.44938 0.0
O196 O 0.45021 0.26306 0.44451 0.0
H197 H 0.4568 0.31132 0.54557 0.0
H198 H 0.46758 0.30914 0.58811 0.0
C199 C 0.47173 0.30832 0.56075 0.0
H200 H 0.4904 0.32742 0.55522 0.0
H201 H 0.4344 0.31034 0.47166 0.0
O202 O 0.48544 0.18939 0.48768 0.0
C203 C 0.44178 0.23506 0.43699 0.0
Co204 Co 0.5208 0.75426 0.52459 0.0
Co205 Co 0.52007 0.81869 0.5278 0.0
C206 C 0.47706 0.76394 0.55582 0.0
O207 O 0.4883 0.7474 0.54757 0.0
O208 O 0.48697 0.79216 0.54921 0.0
C209 C 0.49815 0.69587 0.49958 0.0
O210 O 0.48151 0.70667 0.49142 0.0
C211 C 0.50078 0.86239 0.50702 0.0
C212 C 0.53454 0.90624 0.51204 0.0
C213 C 0.5095 0.89317 0.5004 0.0
N214 N 0.51981 0.85752 0.52145 0.0
N215 N 0.53976 0.88391 0.52522 0.0
C216 C 0.47616 0.83741 0.49544 0.0
H217 H 0.47807 0.81573 0.4935 0.0
H218 H 0.47029 0.84288 0.47045 0.0
H219 H 0.46092 0.83456 0.5142 0.0
C220 C 0.53017 0.77058 0.45179 0.0
N221 N 0.52538 0.77651 0.48383 0.0
N222 N 0.52472 0.80324 0.4847 0.0
C223 C 0.52858 0.81475 0.45285 0.0
C224 C 0.53195 0.79437 0.43122 0.0
C225 C 0.53295 0.74267 0.44086 0.0
H226 H 0.54258 0.73537 0.46091 0.0
H227 H 0.5137 0.72431 0.43604 0.0
H228 H 0.54417 0.74653 0.41705 0.0
O229 O 0.54932 0.77696 0.5552 0.0
O230 O 0.548 0.82201 0.55982 0.0
H231 H 0.54239 0.86248 0.46179 0.0
H232 H 0.53947 0.85219 0.41756 0.0
C233 C 0.53061 0.84538 0.44305 0.0
H234 H 0.51123 0.84486 0.4422 0.0
H235 H 0.55743 0.88645 0.53476 0.0
O236 O 0.51839 0.71293 0.51525 0.0
C237 C 0.55771 0.80362 0.56752 0.0
Co238 Co 0.85837 0.41379 0.9968 0.0
Co239 Co 0.8313 0.39259 0.06781 0.0
C240 C 0.82493 0.34862 0.01189 0.0
O241 O 0.83957 0.36983 0.99278 0.0
O242 O 0.81965 0.35398 0.04178 0.0
C243 C 0.85394 0.41577 0.92737 0.0
O244 O 0.83034 0.39884 0.93715 0.0
C245 C 0.78472 0.36587 0.10574 0.0
C246 C 0.79524 0.37892 0.15908 0.0
C247 C 0.77472 0.3631 0.13798 0.0
N248 N 0.81008 0.38237 0.1072 0.0
N249 N 0.81643 0.39006 0.13924 0.0
C250 C 0.77006 0.35427 0.07359 0.0
H251 H 0.78094 0.3676 0.05143 0.0
H252 H 0.7512 0.35528 0.07499 0.0
H253 H 0.7666 0.33024 0.07015 0.0
C254 C 0.83329 0.45522 0.00101 0.0
N255 N 0.83774 0.43211 0.01324 0.0
N256 N 0.8264 0.42365 0.04296 0.0
C257 C 0.81398 0.44106 0.05029 0.0
C258 C 0.81803 0.46157 0.02403 0.0
C259 C 0.84312 0.47037 0.96754 0.0
H260 H 0.8634 0.47436 0.9642 0.0
H261 H 0.83171 0.45529 0.94688 0.0
H262 H 0.84163 0.49219 0.96509 0.0
O263 O 0.88639 0.42232 0.02862 0.0
O264 O 0.86838 0.4062 0.07951 0.0
H265 H 0.81089 0.43743 0.10451 0.0
H266 H 0.79599 0.45987 0.08589 0.0
C267 C 0.79972 0.43946 0.08256 0.0
H268 H 0.7811 0.41924 0.08196 0.0
H269 H 0.83503 0.40323 0.14744 0.0
O270 O 0.8711 0.42723 0.94993 0.0
C271 C 0.88802 0.41817 0.0603 0.0
Co272 Co 0.36588 0.98054 0.16802 0.0
Co273 Co 0.32 0.96223 0.21949 0.0
C274 C 0.37015 0.95984 0.23764 0.0
O275 O 0.37988 0.96874 0.20839 0.0
O276 O 0.34754 0.95654 0.24471 0.0
C277 C 0.41393 0.00145 0.13045 0.0
O278 O 0.42456 0.01728 0.15771 0.0
C279 C 0.28247 0.92298 0.26797 0.0
C280 C 0.26419 0.9521 0.28587 0.0
C281 C 0.26548 0.92476 0.29187 0.0
N282 N 0.29083 0.94807 0.24866 0.0
N283 N 0.27946 0.96516 0.25906 0.0
C284 C 0.29351 0.90016 0.26686 0.0
H285 H 0.30412 0.90138 0.29071 0.0
H286 H 0.30655 0.90428 0.24477 0.0
H287 H 0.27788 0.87701 0.26502 0.0
C288 C 0.32597 0.93138 0.12891 0.0
N289 N 0.33327 0.94951 0.15632 0.0
N290 N 0.31376 0.94194 0.17736 0.0
C291 C 0.29324 0.9191 0.16366 0.0
C292 C 0.30029 0.91165 0.13243 0.0
C293 C 0.34414 0.93083 0.10196 0.0
H294 H 0.34984 0.95143 0.08596 0.0
H295 H 0.36159 0.9311 0.11404 0.0
H296 H 0.33568 0.91045 0.08566 0.0
O297 O 0.36437 0.01966 0.17811 0.0
O298 O 0.33062 0.00582 0.21248 0.0
H299 H 0.26324 0.92234 0.19337 0.0
H300 H 0.25225 0.8932 0.16104 0.0
C301 C 0.26741 0.90485 0.18008 0.0
H302 H 0.26727 0.88797 0.19909 0.0
H303 H 0.28347 0.98667 0.24943 0.0
O304 O 0.38982 0.98589 0.12981 0.0
C305 C 0.34889 0.02604 0.19606 0.0
Co306 Co 0.4709 0.24378 0.02568 0.0
Co307 Co 0.46699 0.17729 0.02741 0.0
C308 C 0.51344 0.23078 0.05314 0.0
O309 O 0.50396 0.24943 0.04603 0.0
O310 O 0.50125 0.20258 0.04693 0.0
C311 C 0.48558 0.30806 0.03198 0.0
O312 O 0.5005 0.30659 0.0564 0.0
C313 C 0.48329 0.13062 0.00768 0.0
C314 C 0.45054 0.08803 0.0223 0.0
C315 C 0.47474 0.09926 0.00772 0.0
N316 N 0.46516 0.13744 0.02175 0.0
N317 N 0.44569 0.11193 0.03075 0.0
C318 C 0.50724 0.15394 0.99204 0.0
H319 H 0.52342 0.15914 0.00988 0.0
H320 H 0.50517 0.17523 0.98711 0.0
H321 H 0.51177 0.14545 0.96791 0.0
C322 C 0.46278 0.23025 0.95301 0.0
N323 N 0.46519 0.22188 0.98485 0.0
N324 N 0.46261 0.19368 0.98488 0.0
C325 C 0.45812 0.18311 0.95269 0.0
C326 C 0.45802 0.20595 0.93157 0.0
C327 C 0.46693 0.26175 0.9432 0.0
H328 H 0.48455 0.27837 0.95554 0.0
H329 H 0.46892 0.26535 0.91535 0.0
H330 H 0.45053 0.26602 0.95234 0.0
O331 O 0.44295 0.22239 0.05774 0.0
O332 O 0.44063 0.17564 0.06107 0.0
H333 H 0.44248 0.13521 0.96232 0.0
H334 H 0.44244 0.14535 0.91809 0.0
C335 C 0.45331 0.15161 0.94226 0.0
H336 H 0.47188 0.15036 0.93828 0.0
H337 H 0.42895 0.11081 0.04213 0.0
O338 O 0.47125 0.284 0.01644 0.0
C339 C 0.43306 0.19568 0.06993 0.0
Co340 Co 0.16002 0.62205 0.49318 0.0
Co341 Co 0.17694 0.63518 0.56936 0.0
C342 C 0.19341 0.68403 0.51518 0.0
O343 O 0.18287 0.66498 0.49175 0.0
O344 O 0.19165 0.67606 0.54625 0.0
C345 C 0.16338 0.62108 0.42144 0.0
O346 O 0.18594 0.64323 0.42742 0.0
C347 C 0.21822 0.6569 0.6172 0.0
C348 C 0.20137 0.6329 0.66494 0.0
C349 C 0.22422 0.65255 0.65014 0.0
N350 N 0.19301 0.64096 0.61265 0.0
N351 N 0.18284 0.62708 0.64146 0.0
C352 C 0.23664 0.67227 0.58895 0.0
H353 H 0.2288 0.66121 0.56434 0.0
H354 H 0.25547 0.67178 0.59336 0.0
H355 H 0.23958 0.69628 0.58749 0.0
C356 C 0.18271 0.57848 0.49999 0.0
N357 N 0.1766 0.60017 0.51279 0.0
N358 N 0.18397 0.60534 0.54467 0.0
C359 C 0.19508 0.58675 0.55314 0.0
C360 C 0.19455 0.56915 0.52515 0.0
C361 C 0.17863 0.56842 0.46369 0.0
H362 H 0.15793 0.55924 0.45763 0.0
H363 H 0.18892 0.58825 0.44704 0.0
H364 H 0.18577 0.55106 0.45806 0.0
O365 O 0.12952 0.61618 0.51959 0.0
O366 O 0.13929 0.62137 0.57466 0.0
H367 H 0.20861 0.56417 0.59027 0.0
H368 H 0.22312 0.60496 0.59217 0.0
C369 C 0.20495 0.58469 0.5877 0.0
H370 H 0.19084 0.58397 0.60721 0.0
H371 H 0.16358 0.61223 0.64449 0.0
O372 O 0.14875 0.60813 0.44629 0.0
C373 C 0.12322 0.61589 0.55059 0.0
Co374 Co 0.62297 0.00307 0.6946 0.0
Co375 Co 0.66976 0.03475 0.74359 0.0
C376 C 0.61621 0.02182 0.76514 0.0
O377 O 0.60699 0.01049 0.73643 0.0
O378 O 0.64007 0.03188 0.77107 0.0
C379 C 0.5736 0.98474 0.6629 0.0
O380 O 0.56478 0.98045 0.69416 0.0
C381 C 0.70251 0.07763 0.79328 0.0
C382 C 0.73828 0.0714 0.79033 0.0
C383 C 0.7265 0.0868 0.80766 0.0
N384 N 0.69991 0.05725 0.76897 0.0
N385 N 0.72137 0.05364 0.76721 0.0
C386 C 0.68294 0.08943 0.801 0.0
H387 H 0.67169 0.08868 0.77792 0.0
H388 H 0.69219 0.11306 0.81057 0.0
H389 H 0.6697 0.07502 0.82084 0.0
C390 C 0.65484 0.05547 0.65168 0.0
N391 N 0.6509 0.03923 0.68052 0.0
N392 N 0.67046 0.05278 0.70096 0.0
C393 C 0.68755 0.07806 0.68573 0.0
C394 C 0.67816 0.08056 0.65401 0.0
C395 C 0.63696 0.04653 0.62205 0.0
H396 H 0.63241 0.02278 0.61493 0.0
H397 H 0.61886 0.04784 0.62943 0.0
H398 H 0.6453 0.06132 0.59969 0.0
O399 O 0.63408 0.97029 0.70368 0.0
O400 O 0.66725 0.99358 0.73794 0.0
H401 H 0.72467 0.08878 0.7062 0.0
H402 H 0.72165 0.1206 0.68624 0.0
C403 C 0.71172 0.10002 0.70202 0.0
H404 H 0.70718 0.10682 0.72713 0.0
H405 H 0.72435 0.03879 0.75053 0.0
O406 O 0.59717 0.99149 0.65782 0.0
C407 C 0.65225 0.97008 0.72196 0.0
H408 H 0.43169 0.16677 0.12936 0.0
H409 H 0.40786 0.16802 0.18061 0.0
H410 H 0.36934 0.21242 0.12436 0.0
H411 H 0.39388 0.2124 0.07346 0.0
H412 H 0.4114 0.23647 0.19544 0.0
H413 H 0.30207 0.17101 0.17877 0.0
H414 H 0.27132 0.1293 0.14476 0.0
H415 H 0.32565 0.09093 0.13435 0.0
H416 H 0.35647 0.13172 0.16901 0.0
H417 H 0.30611 0.26821 0.25633 0.0
H418 H 0.31527 0.22898 0.22974 0.0
H419 H 0.3724 0.24067 0.3057 0.0
H420 H 0.36437 0.28147 0.33168 0.0
H421 H 0.32181 0.17849 0.23414 0.0
H422 H 0.42254 0.25868 0.27418 0.0
H423 H 0.44645 0.3122 0.29048 0.0
H424 H 0.39871 0.33699 0.22533 0.0
H425 H 0.37484 0.28347 0.20844 0.0
C426 C 0.41754 0.17589 0.12775 0.0
C427 C 0.41449 0.18947 0.09767 0.0
C428 C 0.40409 0.17674 0.15699 0.0
C429 C 0.3868 0.19011 0.156 0.0
C430 C 0.3824 0.20168 0.12534 0.0
C431 C 0.39636 0.20165 0.09641 0.0
C432 C 0.37642 0.19648 0.18768 0.0
C433 C 0.3921 0.22313 0.2047 0.0
C434 C 0.35049 0.1803 0.19758 0.0
C435 C 0.33188 0.15482 0.17688 0.0
C436 C 0.3075 0.15356 0.16968 0.0
C437 C 0.28997 0.13001 0.15012 0.0
C438 C 0.29651 0.10747 0.13737 0.0
C439 C 0.32062 0.10849 0.1441 0.0
C440 C 0.33821 0.13199 0.16364 0.0
C441 C 0.32019 0.26201 0.26808 0.0
C442 C 0.33529 0.27886 0.29531 0.0
C443 C 0.32517 0.23917 0.253 0.0
C444 C 0.34508 0.23257 0.26515 0.0
C445 C 0.35739 0.24603 0.29551 0.0
C446 C 0.35283 0.26941 0.31025 0.0
C447 C 0.35688 0.21828 0.24175 0.0
C448 C 0.34151 0.19072 0.22588 0.0
C449 C 0.3823 0.23498 0.23032 0.0
C450 C 0.39717 0.26716 0.23987 0.0
C451 C 0.41749 0.27557 0.26296 0.0
C452 C 0.43091 0.30589 0.27245 0.0
C453 C 0.42416 0.32803 0.25887 0.0
C454 C 0.40398 0.31985 0.23578 0.0
C455 C 0.39053 0.28954 0.22624 0.0
H456 H 0.43452 0.35149 0.2663 0.0
H457 H 0.2829 0.08924 0.12227 0.0
H458 H 0.9068 0.5163 0.41805 0.0
H459 H 0.9507 0.5498 0.43435 0.0
H460 H 0.96446 0.4719 0.46021 0.0
H461 H 0.92067 0.43854 0.4442 0.0
H462 H 0.96186 0.50823 0.51579 0.0
H463 H 0.00259 0.51879 0.40624 0.0
H464 H 0.00908 0.53154 0.34533 0.0
H465 H 0.02132 0.62302 0.36729 0.0
H466 H 0.01457 0.61071 0.42833 0.0
H467 H 0.08906 0.5613 0.57248 0.0
H468 H 0.04426 0.53904 0.55523 0.0
H469 H 0.05158 0.6271 0.52296 0.0
H470 H 0.09669 0.64908 0.53931 0.0
H471 H 0.04098 0.59106 0.47139 0.0
H472 H 0.0045 0.58293 0.58092 0.0
H473 H 0.99643 0.5711 0.64188 0.0
H474 H 0.97437 0.47682 0.62128 0.0
H475 H 0.98264 0.48806 0.56027 0.0
C476 C 0.91979 0.50636 0.4249 0.0
C477 C 0.9105 0.475 0.43021 0.0
C478 C 0.94476 0.52551 0.43459 0.0
C479 C 0.96047 0.5132 0.44919 0.0
C480 C 0.95245 0.48172 0.44926 0.0
C481 C 0.92756 0.46268 0.43971 0.0
C482 C 0.98201 0.53209 0.47113 0.0
C483 C 0.9794 0.52613 0.50617 0.0
C484 C 0.00402 0.55642 0.45857 0.0
C485 C 0.00774 0.56371 0.42182 0.0
C486 C 0.00635 0.54153 0.39806 0.0
C487 C 0.01017 0.54871 0.36351 0.0
C488 C 0.01552 0.57805 0.35244 0.0
C489 C 0.01712 0.60029 0.3759 0.0
C490 C 0.01332 0.59323 0.41047 0.0
C491 C 0.08061 0.57613 0.56374 0.0
C492 C 0.09605 0.6068 0.5573 0.0
C493 C 0.055 0.5634 0.55366 0.0
C494 C 0.04463 0.58136 0.53737 0.0
C495 C 0.05925 0.61281 0.53526 0.0
C496 C 0.0849 0.62543 0.54498 0.0
C497 C 0.02135 0.56667 0.51632 0.0
C498 C 0.02343 0.57344 0.48135 0.0
C499 C 0.99869 0.54321 0.52904 0.0
C500 C 0.99442 0.53642 0.56594 0.0
C501 C 0.99822 0.55971 0.58939 0.0
C502 C 0.99353 0.55309 0.62397 0.0
C503 C 0.98497 0.52324 0.63544 0.0
C504 C 0.98104 0.49994 0.61236 0.0
C505 C 0.9857 0.50642 0.57777 0.0
H506 H 0.98135 0.51815 0.66221 0.0
H507 H 0.01849 0.58356 0.32569 0.0
H508 H 0.68248 0.95975 0.76869 0.0
H509 H 0.67586 0.9112 0.79266 0.0
H510 H 0.61849 0.86557 0.7169 0.0
H511 H 0.62423 0.91443 0.69344 0.0
H512 H 0.59904 0.85028 0.77379 0.0
H513 H 0.67921 0.86397 0.72935 0.0
H514 H 0.72514 0.88592 0.71675 0.0
H515 H 0.74158 0.88175 0.82234 0.0
H516 H 0.69565 0.85987 0.83574 0.0
H517 H 0.56084 0.72789 0.88207 0.0
H518 H 0.58579 0.75105 0.83115 0.0
H519 H 0.63571 0.82758 0.89037 0.0
H520 H 0.61005 0.80515 0.94104 0.0
H521 H 0.65861 0.81428 0.82813 0.0
H522 H 0.58575 0.82796 0.87296 0.0
H523 H 0.54106 0.81067 0.89183 0.0
H524 H 0.51487 0.77757 0.79165 0.0
H525 H 0.55948 0.7944 0.77232 0.0
C526 C 0.66899 0.93941 0.75633 0.0
C527 C 0.65347 0.941 0.72957 0.0
C528 C 0.6654 0.91149 0.76996 0.0
C529 C 0.64677 0.88456 0.75647 0.0
C530 C 0.63302 0.88606 0.72767 0.0
C531 C 0.63631 0.91402 0.71428 0.0
C532 C 0.63823 0.85596 0.77616 0.0
C533 C 0.61211 0.84191 0.78465 0.0
C534 C 0.65546 0.84569 0.79143 0.0
C535 C 0.68349 0.85945 0.78345 0.0
C536 C 0.69241 0.86741 0.74996 0.0
C537 C 0.71859 0.88002 0.74265 0.0
C538 C 0.7363 0.88507 0.7687 0.0
C539 C 0.72783 0.87762 0.80211 0.0
C540 C 0.70163 0.86494 0.80953 0.0
C541 C 0.57793 0.74891 0.88447 0.0
C542 C 0.58349 0.76507 0.91513 0.0
C543 C 0.59215 0.7621 0.85535 0.0
C544 C 0.61225 0.7912 0.85696 0.0
C545 C 0.62025 0.80508 0.88868 0.0
C546 C 0.60555 0.79236 0.91758 0.0
C547 C 0.62017 0.81039 0.82628 0.0
C548 C 0.64586 0.82241 0.81592 0.0
C549 C 0.60298 0.82012 0.81025 0.0
C550 C 0.57603 0.8105 0.82178 0.0
C551 C 0.57051 0.81604 0.85523 0.0
C552 C 0.54515 0.80666 0.86593 0.0
C553 C 0.52509 0.79241 0.84316 0.0
C554 C 0.53039 0.78805 0.80947 0.0
C555 C 0.55573 0.79738 0.79869 0.0
H556 H 0.50547 0.78517 0.85147 0.0
H557 H 0.75658 0.89488 0.76302 0.0
H558 H 0.63001 0.70836 0.81554 0.0
H559 H 0.62267 0.75138 0.79444 0.0
H560 H 0.67304 0.76045 0.70964 0.0
H561 H 0.682 0.71985 0.73176 0.0
H562 H 0.67327 0.81019 0.71643 0.0
H563 H 0.60503 0.71052 0.70671 0.0
H564 H 0.57422 0.661 0.72884 0.0
H565 H 0.54077 0.70577 0.79333 0.0
H566 H 0.5717 0.75539 0.77168 0.0
H567 H 0.59932 0.79134 0.56817 0.0
H568 H 0.62526 0.79258 0.61764 0.0
H569 H 0.58452 0.83238 0.67725 0.0
H570 H 0.55909 0.83221 0.62728 0.0
H571 H 0.58001 0.77289 0.69718 0.0
H572 H 0.64366 0.86968 0.66536 0.0
H573 H 0.67599 0.90959 0.63096 0.0
H574 H 0.72018 0.85759 0.6245 0.0
H575 H 0.68801 0.81709 0.65873 0.0
C576 C 0.64015 0.72027 0.79305 0.0
C577 C 0.65592 0.71003 0.77474 0.0
C578 C 0.63586 0.74476 0.78091 0.0
C579 C 0.64642 0.75839 0.74964 0.0
C580 C 0.66437 0.7503 0.73361 0.0
C581 C 0.6693 0.72665 0.74622 0.0
C582 C 0.63591 0.77685 0.73039 0.0
C583 C 0.65288 0.80231 0.71229 0.0
C584 C 0.60927 0.7664 0.72496 0.0
C585 C 0.59057 0.73662 0.73776 0.0
C586 C 0.59107 0.70972 0.72562 0.0
C587 C 0.57365 0.68164 0.73808 0.0
C588 C 0.55552 0.68021 0.76248 0.0
C589 C 0.55475 0.70686 0.77436 0.0
C590 C 0.57216 0.73495 0.76194 0.0
C591 C 0.59665 0.80148 0.59148 0.0
C592 C 0.57728 0.81163 0.59411 0.0
C593 C 0.61151 0.80229 0.61965 0.0
C594 C 0.60685 0.8127 0.65098 0.0
C595 C 0.5886 0.82467 0.65313 0.0
C596 C 0.57415 0.82458 0.62464 0.0
C597 C 0.61749 0.80548 0.68198 0.0
C598 C 0.6004 0.78187 0.70226 0.0
C599 C 0.64417 0.81612 0.68706 0.0
C600 C 0.66327 0.84021 0.66522 0.0
C601 C 0.66017 0.86656 0.65677 0.0
C602 C 0.67854 0.88939 0.63716 0.0
C603 C 0.70019 0.88619 0.62563 0.0
C604 C 0.70345 0.86011 0.63358 0.0
C605 C 0.68514 0.83722 0.6532 0.0
H606 H 0.7144 0.9039 0.61046 0.0
H607 H 0.54207 0.65847 0.77216 0.0
H608 H 0.09822 0.45674 0.94312 0.0
H609 H 0.05469 0.43039 0.96554 0.0
H610 H 0.04455 0.51294 0.9575 0.0
H611 H 0.08795 0.53918 0.93511 0.0
H612 H 0.04918 0.49154 0.02576 0.0
H613 H 0.00387 0.45689 0.91963 0.0
H614 H 0.99411 0.42916 0.86534 0.0
H615 H 0.97765 0.34581 0.91823 0.0
H616 H 0.98765 0.37313 0.97285 0.0
H617 H 0.92675 0.47335 0.06761 0.0
H618 H 0.97109 0.48316 0.05659 0.0
H619 H 0.95154 0.38755 0.06551 0.0
H620 H 0.90695 0.37784 0.07664 0.0
H621 H 0.96495 0.40663 0.00282 0.0
H622 H 0.00248 0.43938 0.10966 0.0
H623 H 0.0134 0.46606 0.16451 0.0
H624 H 0.046 0.55172 0.1128 0.0
H625 H 0.03481 0.52567 0.05759 0.0
C626 C 0.08598 0.46857 0.9437 0.0
C627 C 0.09625 0.4999 0.93754 0.0
C628 C 0.06125 0.45362 0.95697 0.0
C629 C 0.04679 0.47001 0.9638 0.0
C630 C 0.0556 0.50006 0.95253 0.0
C631 C 0.08023 0.51492 0.93925 0.0
C632 C 0.026 0.45862 0.98914 0.0
C633 C 0.03057 0.47319 0.0208 0.0
C634 C 0.00258 0.43347 0.98314 0.0
C635 C 0.99688 0.41713 0.95028 0.0
C636 C 0.99849 0.43271 0.91966 0.0
C637 C 0.99282 0.41705 0.88883 0.0
C638 C 0.98536 0.38577 0.88832 0.0
C639 C 0.98349 0.37006 0.91865 0.0
C640 C 0.98915 0.38562 0.94955 0.0
C641 C 0.93232 0.45475 0.06962 0.0
C642 C 0.91366 0.42492 0.07291 0.0
C643 C 0.95769 0.46031 0.06315 0.0
C644 C 0.96456 0.436 0.05969 0.0
C645 C 0.9466 0.40659 0.06796 0.0
C646 C 0.92119 0.40108 0.07471 0.0
C647 C 0.98749 0.44059 0.03924 0.0
C648 C 0.9836 0.42465 0.00838 0.0
C649 C 0.01166 0.46446 0.04609 0.0
C650 C 0.01764 0.48046 0.07934 0.0
C651 C 0.01168 0.46392 0.10991 0.0
C652 C 0.01799 0.47895 0.14111 0.0
C653 C 0.03038 0.51056 0.14214 0.0
C654 C 0.0364 0.52723 0.11197 0.0
C655 C 0.03009 0.51232 0.0807 0.0
H656 H 0.03533 0.52213 0.16632 0.0
H657 H 0.98095 0.37368 0.86443 0.0
H658 H 0.39562 0.06972 0.20984 0.0
H659 H 0.40468 0.11599 0.24066 0.0
H660 H 0.32564 0.1016 0.22972 0.0
H661 H 0.31612 0.05303 0.20243 0.0
H662 H 0.40809 0.16457 0.24214 0.0
H663 H 0.30623 0.13444 0.28766 0.0
H664 H 0.2648 0.09005 0.29582 0.0
H665 H 0.30409 0.03349 0.3131 0.0
H666 H 0.3457 0.07764 0.30541 0.0
H667 H 0.43439 0.26468 0.38206 0.0
H668 H 0.4112 0.24085 0.33029 0.0
H669 H 0.3838 0.15323 0.37874 0.0
H670 H 0.40701 0.17678 0.43014 0.0
H671 H 0.34883 0.15527 0.33718 0.0
H672 H 0.43851 0.18489 0.34027 0.0
H673 H 0.48454 0.21819 0.34204 0.0
H674 H 0.4799 0.2544 0.24423 0.0
H675 H 0.43366 0.22177 0.24222 0.0
C676 C 0.38031 0.07683 0.21337 0.0
C677 C 0.35517 0.05779 0.20418 0.0
C678 C 0.38546 0.10351 0.23108 0.0
C679 C 0.36571 0.11232 0.23892 0.0
C680 C 0.34106 0.09479 0.22604 0.0
C681 C 0.33568 0.06734 0.20963 0.0
C682 C 0.37078 0.1377 0.26339 0.0
C683 C 0.39502 0.16246 0.26281 0.0
C684 C 0.35375 0.13564 0.29043 0.0
C685 C 0.32893 0.10915 0.29553 0.0
C686 C 0.30596 0.11252 0.29331 0.0
C687 C 0.28248 0.08743 0.29783 0.0
C688 C 0.28182 0.05896 0.30485 0.0
C689 C 0.30463 0.05554 0.30759 0.0
C690 C 0.32815 0.08057 0.30319 0.0
C691 C 0.42266 0.24046 0.38198 0.0
C692 C 0.4227 0.22243 0.40985 0.0
C693 C 0.40951 0.2269 0.35232 0.0
C694 C 0.39608 0.19527 0.35046 0.0
C695 C 0.39406 0.1777 0.37956 0.0
C696 C 0.40742 0.19113 0.4089 0.0
C697 C 0.38702 0.17953 0.31772 0.0
C698 C 0.3617 0.15748 0.31614 0.0
C699 C 0.40407 0.18214 0.29057 0.0
C700 C 0.43207 0.20207 0.29198 0.0
C701 C 0.44701 0.20061 0.31959 0.0
C702 C 0.47329 0.21919 0.32051 0.0
C703 C 0.48509 0.2388 0.29353 0.0
C704 C 0.47069 0.23953 0.26537 0.0
C705 C 0.44441 0.22102 0.26438 0.0
H706 H 0.50544 0.25316 0.29427 0.0
H707 H 0.26363 0.03955 0.30824 0.0
H708 H 0.23285 0.37732 0.21577 0.0
H709 H 0.21885 0.3958 0.16557 0.0
H710 H 0.24048 0.33845 0.10167 0.0
H711 H 0.25443 0.31973 0.15226 0.0
H712 H 0.25993 0.40038 0.07998 0.0
H713 H 0.18026 0.31931 0.10695 0.0
H714 H 0.1449 0.286 0.14378 0.0
H715 H 0.12894 0.36144 0.17203 0.0
H716 H 0.16444 0.39532 0.13579 0.0
H717 H 0.20424 0.47184 0.95807 0.0
H718 H 0.21462 0.4327 0.98513 0.0
H719 H 0.20142 0.46209 0.08367 0.0
H720 H 0.19137 0.50069 0.05747 0.0
H721 H 0.17376 0.39959 0.0723 0.0
H722 H 0.26023 0.48101 0.05807 0.0
H723 H 0.2965 0.51553 0.02328 0.0
H724 H 0.29937 0.43939 0.97161 0.0
H725 H 0.26289 0.40443 0.00587 0.0
C726 C 0.23437 0.36851 0.19102 0.0
C727 C 0.24471 0.3473 0.18761 0.0
C728 C 0.22631 0.37892 0.16244 0.0
C729 C 0.22855 0.36835 0.12998 0.0
C730 C 0.23855 0.34676 0.12654 0.0
C731 C 0.24633 0.33602 0.15531 0.0
C732 C 0.22146 0.38135 0.09996 0.0
C733 C 0.24089 0.39954 0.07757 0.0
C734 C 0.19664 0.38019 0.09693 0.0
C735 C 0.17509 0.35989 0.11865 0.0
C736 C 0.16931 0.32885 0.12116 0.0
C737 C 0.14922 0.30985 0.14192 0.0
C738 C 0.13469 0.3216 0.16024 0.0
C739 C 0.14019 0.35236 0.15779 0.0
C740 C 0.16027 0.37147 0.13708 0.0
C741 C 0.20391 0.47011 0.98549 0.0
C742 C 0.19665 0.4891 0.00557 0.0
C743 C 0.20973 0.44774 0.00085 0.0
C744 C 0.20834 0.44429 0.03633 0.0
C745 C 0.20218 0.46408 0.05623 0.0
C746 C 0.19649 0.48623 0.04111 0.0
C747 C 0.21257 0.41992 0.05377 0.0
C748 C 0.19252 0.3995 0.07378 0.0
C749 C 0.23679 0.41915 0.05466 0.0
C750 C 0.25863 0.44016 0.03413 0.0
C751 C 0.26844 0.47166 0.03905 0.0
C752 C 0.28907 0.4913 0.0195 0.0
C753 C 0.30017 0.47967 0.99515 0.0
C754 C 0.29071 0.44837 0.9904 0.0
C755 C 0.27007 0.42864 0.00988 0.0
H756 H 0.31614 0.4949 0.98005 0.0
H757 H 0.11915 0.30685 0.1763 0.0
H758 H 0.55212 0.3414 0.42899 0.0
H759 H 0.59206 0.36116 0.3966 0.0
H760 H 0.58493 0.27014 0.38155 0.0
H761 H 0.54539 0.25028 0.41463 0.0
H762 H 0.63026 0.30317 0.40127 0.0
H763 H 0.57876 0.31266 0.31431 0.0
H764 H 0.54652 0.32538 0.28593 0.0
H765 H 0.59233 0.41998 0.30419 0.0
H766 H 0.62468 0.40781 0.33327 0.0
H767 H 0.74905 0.36776 0.31998 0.0
H768 H 0.70229 0.34109 0.31632 0.0
H769 H 0.69528 0.41782 0.36176 0.0
H770 H 0.74193 0.44468 0.36487 0.0
H771 H 0.6549 0.38442 0.3142 0.0
H772 H 0.6977 0.36531 0.41727 0.0
H773 H 0.72967 0.34949 0.4415 0.0
H774 H 0.6987 0.26792 0.38227 0.0
H775 H 0.66616 0.28292 0.35845 0.0
C776 C 0.55897 0.32557 0.41862 0.0
C777 C 0.54568 0.29429 0.42466 0.0
C778 C 0.58169 0.33688 0.39978 0.0
C779 C 0.59137 0.31711 0.38622 0.0
C780 C 0.57785 0.28583 0.3917 0.0
C781 C 0.55528 0.27454 0.41075 0.0
C782 C 0.61677 0.32933 0.3692 0.0
C783 C 0.63532 0.32036 0.3816 0.0
C784 C 0.62357 0.3517 0.34339 0.0
C785 C 0.60409 0.35928 0.32624 0.0
C786 C 0.58188 0.33617 0.31258 0.0
C787 C 0.56359 0.34328 0.29629 0.0
C788 C 0.56737 0.37347 0.29327 0.0
C789 C 0.58944 0.3966 0.30655 0.0
C790 C 0.60777 0.38961 0.32292 0.0
C791 C 0.73751 0.37935 0.32787 0.0
C792 C 0.74889 0.40795 0.34332 0.0
C793 C 0.71085 0.36408 0.32589 0.0
C794 C 0.69539 0.37732 0.33935 0.0
C795 C 0.70687 0.40721 0.35131 0.0
C796 C 0.73348 0.42243 0.3533 0.0
C797 C 0.66805 0.35865 0.34702 0.0
C798 C 0.64933 0.36657 0.33313 0.0
C799 C 0.66077 0.33468 0.37077 0.0
C800 C 0.67964 0.32521 0.38611 0.0
C801 C 0.69766 0.34391 0.40965 0.0
C802 C 0.71582 0.33505 0.42335 0.0
C803 C 0.71619 0.30767 0.41344 0.0
C804 C 0.69825 0.28897 0.39012 0.0
C805 C 0.67988 0.29755 0.37666 0.0
H806 H 0.73038 0.30093 0.4237 0.0
H807 H 0.5532 0.37894 0.28061 0.0
H808 H 0.4626 0.58568 0.01794 0.0
H809 H 0.43917 0.54407 0.05714 0.0
H810 H 0.50654 0.57048 0.11965 0.0
H811 H 0.53011 0.61196 0.08026 0.0
H812 H 0.48138 0.50977 0.11715 0.0
H813 H 0.45995 0.59289 0.13963 0.0
H814 H 0.44583 0.63257 0.12454 0.0
H815 H 0.3731 0.56452 0.09237 0.0
H816 H 0.38697 0.52442 0.10672 0.0
H817 H 0.41519 0.43678 0.26902 0.0
H818 H 0.44163 0.47406 0.2271 0.0
H819 H 0.37665 0.44777 0.1602 0.0
H820 H 0.35011 0.41067 0.20185 0.0
H821 H 0.40159 0.50884 0.16602 0.0
H822 H 0.42495 0.42606 0.14138 0.0
H823 H 0.43996 0.38719 0.15694 0.0
H824 H 0.50953 0.45622 0.19651 0.0
H825 H 0.49481 0.49546 0.18136 0.0
C826 C 0.47238 0.58263 0.04006 0.0
C827 C 0.49795 0.6025 0.04656 0.0
C828 C 0.45903 0.55878 0.06236 0.0
C829 C 0.47094 0.55457 0.09176 0.0
C830 C 0.49692 0.57337 0.09725 0.0
C831 C 0.51034 0.59709 0.07477 0.0
C832 C 0.45587 0.53182 0.11772 0.0
C833 C 0.46409 0.50977 0.12808 0.0
C834 C 0.4332 0.53165 0.13191 0.0
C835 C 0.42458 0.55567 0.12398 0.0
C836 C 0.44099 0.58639 0.12917 0.0
C837 C 0.43304 0.60896 0.12075 0.0
C838 C 0.4086 0.60107 0.10744 0.0
C839 C 0.39203 0.57059 0.10264 0.0
C840 C 0.39992 0.54793 0.11094 0.0
C841 C 0.40654 0.43881 0.24533 0.0
C842 C 0.38047 0.42072 0.23889 0.0
C843 C 0.42172 0.46007 0.22133 0.0
C844 C 0.41116 0.46355 0.1904 0.0
C845 C 0.3852 0.44549 0.1839 0.0
C846 C 0.37004 0.42425 0.20779 0.0
C847 C 0.42687 0.48656 0.16509 0.0
C848 C 0.41884 0.5088 0.155 0.0
C849 C 0.4498 0.48708 0.15149 0.0
C850 C 0.45875 0.46362 0.16039 0.0
C851 C 0.4434 0.4329 0.15353 0.0
C852 C 0.45186 0.41082 0.16223 0.0
C853 C 0.47567 0.41923 0.17773 0.0
C854 C 0.49108 0.44974 0.18453 0.0
C855 C 0.48271 0.47191 0.17586 0.0
H856 H 0.48219 0.40211 0.18445 0.0
H857 H 0.40248 0.61858 0.10091 0.0
H858 H 0.78339 0.64986 0.68856 0.0
H859 H 0.80046 0.62788 0.64459 0.0
H860 H 0.7339 0.61027 0.58269 0.0
H861 H 0.71645 0.6311 0.62732 0.0
H862 H 0.74043 0.56201 0.58626 0.0
H863 H 0.79647 0.66405 0.56038 0.0
H864 H 0.82744 0.7167 0.57128 0.0
H865 H 0.8816 0.68509 0.60931 0.0
H866 H 0.85083 0.63221 0.5991 0.0
H867 H 0.79169 0.49723 0.46026 0.0
H868 H 0.77825 0.53438 0.48528 0.0
H869 H 0.83022 0.54765 0.56872 0.0
H870 H 0.84364 0.51075 0.5442 0.0
H871 H 0.83005 0.60195 0.54477 0.0
H872 H 0.77003 0.50006 0.57838 0.0
H873 H 0.73895 0.44765 0.56642 0.0
H874 H 0.69197 0.48101 0.5112 0.0
H875 H 0.723 0.53366 0.52246 0.0
C876 C 0.77274 0.64181 0.66524 0.0
C877 C 0.74858 0.64179 0.66128 0.0
C878 C 0.78252 0.6294 0.64003 0.0
C879 C 0.76855 0.61754 0.61012 0.0
C880 C 0.74498 0.61911 0.60554 0.0
C881 C 0.73504 0.631 0.63097 0.0
C882 C 0.77716 0.60073 0.58539 0.0
C883 C 0.75988 0.57116 0.57655 0.0
C884 C 0.80263 0.61232 0.573 0.0
C885 C 0.82125 0.64412 0.57916 0.0
C886 C 0.81492 0.6683 0.5713 0.0
C887 C 0.83245 0.69819 0.57731 0.0
C888 C 0.85646 0.70423 0.59103 0.0
C889 C 0.863 0.68038 0.59869 0.0
C890 C 0.84553 0.65044 0.59274 0.0
C891 C 0.80041 0.50831 0.48374 0.0
C892 C 0.81852 0.50083 0.50043 0.0
C893 C 0.79275 0.52951 0.49796 0.0
C894 C 0.80322 0.54363 0.52887 0.0
C895 C 0.822 0.53708 0.54479 0.0
C896 C 0.82947 0.51577 0.53085 0.0
C897 C 0.79341 0.56346 0.54633 0.0
C898 C 0.81047 0.59337 0.55391 0.0
C899 C 0.7677 0.55237 0.55736 0.0
C900 C 0.74896 0.52075 0.5509 0.0
C901 C 0.75317 0.4962 0.56347 0.0
C902 C 0.73556 0.46646 0.55685 0.0
C903 C 0.71354 0.461 0.53796 0.0
C904 C 0.70906 0.48527 0.52576 0.0
C905 C 0.72664 0.51506 0.53225 0.0
H906 H 0.69993 0.43796 0.53287 0.0
H907 H 0.87 0.72739 0.59567 0.0
H908 H 0.46067 0.74955 0.90505 0.0
H909 H 0.42023 0.7287 0.87427 0.0
H910 H 0.40964 0.63819 0.90066 0.0
H911 H 0.4502 0.6588 0.93166 0.0
H912 H 0.39554 0.64436 0.83233 0.0
H913 H 0.38136 0.67126 0.9482 0.0
H914 H 0.39005 0.70756 0.99539 0.0
H915 H 0.37094 0.76645 0.93157 0.0
H916 H 0.36212 0.73046 0.88396 0.0
H917 H 0.26592 0.54829 0.85235 0.0
H918 H 0.31197 0.57973 0.84914 0.0
H919 H 0.29759 0.6583 0.82892 0.0
H920 H 0.25143 0.62662 0.83176 0.0
H921 H 0.32664 0.66731 0.88235 0.0
H922 H 0.33083 0.63657 0.77129 0.0
H923 H 0.32287 0.60315 0.72159 0.0
H924 H 0.36139 0.5554 0.77063 0.0
H925 H 0.36937 0.58838 0.8208 0.0
C926 C 0.44986 0.72517 0.90424 0.0
C927 C 0.45852 0.70583 0.92127 0.0
C928 C 0.4268 0.71334 0.88647 0.0
C929 C 0.41191 0.68197 0.88543 0.0
C930 C 0.42094 0.6625 0.90113 0.0
C931 C 0.44404 0.67432 0.919 0.0
C932 C 0.38597 0.66951 0.87047 0.0
C933 C 0.38036 0.64917 0.84323 0.0
C934 C 0.36659 0.67707 0.8837 0.0
C935 C 0.37134 0.69835 0.91249 0.0
C936 C 0.37909 0.692 0.94423 0.0
C937 C 0.38397 0.71248 0.97105 0.0
C938 C 0.38103 0.73929 0.96647 0.0
C939 C 0.3731 0.74562 0.93509 0.0
C940 C 0.36813 0.72518 0.90821 0.0
C941 C 0.27268 0.57203 0.84573 0.0
C942 C 0.25536 0.58513 0.84209 0.0
C943 C 0.29897 0.59001 0.84384 0.0
C944 C 0.3083 0.62141 0.83852 0.0
C945 C 0.29086 0.63412 0.83259 0.0
C946 C 0.26453 0.61601 0.83406 0.0
C947 C 0.33573 0.64104 0.84486 0.0
C948 C 0.34175 0.66285 0.87064 0.0
C949 C 0.35549 0.63516 0.82985 0.0
C950 C 0.35061 0.61494 0.79991 0.0
C951 C 0.33747 0.61883 0.77159 0.0
C952 C 0.33298 0.59998 0.74329 0.0
C953 C 0.34159 0.57713 0.74297 0.0
C954 C 0.35474 0.57313 0.77092 0.0
C955 C 0.35931 0.59196 0.79927 0.0
H956 H 0.3381 0.56254 0.72104 0.0
H957 H 0.38487 0.75515 0.98724 0.0
H958 H 0.63564 0.58859 0.66853 0.0
H959 H 0.60669 0.555 0.62631 0.0
H960 H 0.54635 0.52097 0.70118 0.0
H961 H 0.57546 0.55416 0.74397 0.0
H962 H 0.54975 0.47555 0.66574 0.0
H963 H 0.54194 0.56699 0.63776 0.0
H964 H 0.55812 0.62174 0.62596 0.0
H965 H 0.60068 0.61252 0.54055 0.0
H966 H 0.58472 0.55765 0.55188 0.0
H967 H 0.45768 0.3904 0.54665 0.0
H968 H 0.47846 0.43353 0.58478 0.0
H969 H 0.54717 0.46425 0.52397 0.0
H970 H 0.52636 0.42115 0.48554 0.0
H971 H 0.53582 0.51243 0.55338 0.0
H972 H 0.54399 0.4204 0.58403 0.0
H973 H 0.52646 0.36561 0.59597 0.0
H974 H 0.48243 0.37633 0.6788 0.0
H975 H 0.49935 0.43117 0.6669 0.0
C976 C 0.61626 0.57397 0.67612 0.0
C977 C 0.60794 0.57399 0.7097 0.0
C978 C 0.59963 0.55497 0.65183 0.0
C979 C 0.57427 0.53578 0.66049 0.0
C980 C 0.56583 0.53572 0.69395 0.0
C981 C 0.58248 0.55475 0.71832 0.0
C982 C 0.55702 0.5149 0.63481 0.0
C983 C 0.54628 0.48367 0.64146 0.0
C984 C 0.55283 0.52546 0.60294 0.0
C985 C 0.56215 0.55827 0.59565 0.0
C986 C 0.55477 0.57666 0.61647 0.0
C987 C 0.56386 0.60769 0.60985 0.0
C988 C 0.58037 0.62058 0.58247 0.0
C989 C 0.58781 0.60247 0.56166 0.0
C990 C 0.57866 0.57139 0.56808 0.0
C991 C 0.47695 0.40684 0.54085 0.0
C992 C 0.49068 0.40219 0.51367 0.0
C993 C 0.48878 0.4314 0.56265 0.0
C994 C 0.51442 0.45171 0.55739 0.0
C995 C 0.52739 0.44869 0.52846 0.0
C996 C 0.5156 0.42398 0.50677 0.0
C997 C 0.52871 0.47323 0.58439 0.0
C998 C 0.53899 0.50445 0.57789 0.0
C999 C 0.53236 0.46268 0.61656 0.0
C1000 C 0.52269 0.42984 0.62431 0.0
C1001 C 0.53041 0.41105 0.60462 0.0
C1002 C 0.5206 0.37998 0.61138 0.0
C1003 C 0.50326 0.36747 0.63804 0.0
C1004 C 0.49581 0.38604 0.65809 0.0
C1005 C 0.50551 0.41712 0.65135 0.0
H1006 H 0.49566 0.3434 0.64322 0.0
H1007 H 0.58743 0.64461 0.5774 0.0
H1008 H 0.42181 0.97628 0.23743 0.0
H1009 H 0.44765 0.9695 0.28291 0.0
H1010 H 0.37961 0.92386 0.34364 0.0
H1011 H 0.35375 0.93148 0.29875 0.0
H1012 H 0.41687 0.96367 0.38084 0.0
H1013 H 0.41106 0.88488 0.30042 0.0
H1014 H 0.4161 0.86726 0.2433 0.0
H1015 H 0.49644 0.9261 0.24484 0.0
H1016 H 0.49179 0.94433 0.30175 0.0
H1017 H 0.45996 0.88656 0.50072 0.0
H1018 H 0.43894 0.90387 0.45711 0.0
H1019 H 0.51111 0.94938 0.40479 0.0
H1020 H 0.53212 0.93194 0.44829 0.0
H1021 H 0.47478 0.91328 0.36232 0.0
H1022 H 0.48362 0.99312 0.43735 0.0
H1023 H 0.48177 0.01982 0.48958 0.0
H1024 H 0.40065 0.96594 0.49642 0.0
H1025 H 0.40197 0.93919 0.4437 0.0
C1026 C 0.41231 0.96461 0.26037 0.0
C1027 C 0.38569 0.95432 0.2644 0.0
C1028 C 0.42711 0.96066 0.28634 0.0
C1029 C 0.41555 0.94579 0.31656 0.0
C1030 C 0.38896 0.93538 0.32056 0.0
C1031 C 0.37419 0.93966 0.2948 0.0
C1032 C 0.4311 0.94153 0.34437 0.0
C1033 C 0.4292 0.95219 0.3769 0.0
C1034 C 0.44814 0.92785 0.33893 0.0
C1035 C 0.45104 0.91611 0.30521 0.0
C1036 C 0.42977 0.89412 0.2885 0.0
C1037 C 0.43255 0.88407 0.25614 0.0
C1038 C 0.45654 0.89573 0.24033 0.0
C1039 C 0.47783 0.91729 0.25696 0.0
C1040 C 0.47515 0.9274 0.28932 0.0
C1041 C 0.47136 0.90061 0.48015 0.0
C1042 C 0.49756 0.90764 0.47761 0.0
C1043 C 0.4594 0.91066 0.45537 0.0
C1044 C 0.47345 0.92784 0.42759 0.0
C1045 C 0.49989 0.93607 0.42593 0.0
C1046 C 0.51189 0.92628 0.45089 0.0
C1047 C 0.4601 0.93485 0.39897 0.0
C1048 C 0.4624 0.92469 0.3663 0.0
C1049 C 0.44377 0.94945 0.40409 0.0
C1050 C 0.44294 0.96401 0.4368 0.0
C1051 C 0.46543 0.98673 0.4502 0.0
C1052 C 0.46444 0.00202 0.47977 0.0
C1053 C 0.44111 0.99456 0.49639 0.0
C1054 C 0.4187 0.97171 0.4835 0.0
C1055 C 0.41953 0.95658 0.45367 0.0
H1056 H 0.44035 0.00659 0.51915 0.0
H1057 H 0.45866 0.88794 0.21527 0.0
H1058 H 0.74646 0.30326 0.14834 0.0
H1059 H 0.69966 0.27675 0.14552 0.0
H1060 H 0.69495 0.36275 0.13918 0.0
H1061 H 0.74174 0.38915 0.14299 0.0
H1062 H 0.6543 0.32167 0.17359 0.0
H1063 H 0.69672 0.32489 0.06526 0.0
H1064 H 0.72673 0.31581 0.02694 0.0
H1065 H 0.69151 0.22108 0.05184 0.0
H1066 H 0.66104 0.22954 0.0899 0.0
H1067 H 0.54461 0.28904 0.07154 0.0
H1068 H 0.58703 0.3077 0.09714 0.0
H1069 H 0.58253 0.21699 0.09754 0.0
H1070 H 0.54019 0.19811 0.07144 0.0
H1071 H 0.6266 0.25573 0.07185 0.0
H1072 H 0.57826 0.252 0.1713 0.0
H1073 H 0.54765 0.26153 0.2078 0.0
H1074 H 0.59369 0.35739 0.20079 0.0
H1075 H 0.62437 0.3485 0.16369 0.0
C1076 C 0.73526 0.31637 0.14785 0.0
C1077 C 0.74739 0.34809 0.14645 0.0
C1078 C 0.70862 0.30129 0.1458 0.0
C1079 C 0.69387 0.31778 0.14145 0.0
C1080 C 0.70594 0.34959 0.14255 0.0
C1081 C 0.73259 0.36466 0.14493 0.0
C1082 C 0.66645 0.30216 0.13202 0.0
C1083 C 0.64817 0.30736 0.15127 0.0
C1084 C 0.65843 0.28296 0.10331 0.0
C1085 C 0.67682 0.27789 0.08065 0.0
C1086 C 0.69548 0.30216 0.06265 0.0
C1087 C 0.71251 0.29711 0.04093 0.0
C1088 C 0.71117 0.26794 0.03719 0.0
C1089 C 0.69259 0.24368 0.05487 0.0
C1090 C 0.67535 0.24856 0.07637 0.0
C1091 C 0.55255 0.27298 0.0772 0.0
C1092 C 0.53899 0.24206 0.06932 0.0
C1093 C 0.57674 0.28367 0.09214 0.0
C1094 C 0.58782 0.26368 0.09971 0.0
C1095 C 0.57428 0.23279 0.09208 0.0
C1096 C 0.55009 0.22206 0.07711 0.0
C1097 C 0.61428 0.2754 0.1132 0.0
C1098 C 0.63248 0.26959 0.09454 0.0
C1099 C 0.62211 0.29407 0.14239 0.0
C1100 C 0.60353 0.29956 0.1644 0.0
C1101 C 0.58174 0.27513 0.17722 0.0
C1102 C 0.5644 0.28042 0.19808 0.0
C1103 C 0.56869 0.31005 0.20652 0.0
C1104 C 0.59037 0.33445 0.19417 0.0
C1105 C 0.60775 0.3293 0.17323 0.0
H1106 H 0.55524 0.31408 0.22266 0.0
H1107 H 0.72446 0.26413 0.02049 0.0
H1108 H 0.2255 0.70677 0.46209 0.0
H1109 H 0.24063 0.7577 0.43811 0.0
H1110 H 0.20463 0.78393 0.5202 0.0
H1111 H 0.19001 0.73286 0.54499 0.0
H1112 H 0.18888 0.7909 0.4516 0.0
H1113 H 0.26433 0.8201 0.51778 0.0
H1114 H 0.30161 0.8151 0.54251 0.0
H1115 H 0.33247 0.81697 0.44277 0.0
H1116 H 0.29517 0.82147 0.41737 0.0
H1117 H 0.27314 0.94276 0.35767 0.0
H1118 H 0.26152 0.91025 0.40842 0.0
H1119 H 0.22479 0.83146 0.34502 0.0
H1120 H 0.23675 0.86383 0.29429 0.0
H1121 H 0.27734 0.86146 0.41878 0.0
H1122 H 0.17076 0.78413 0.39054 0.0
H1123 H 0.13334 0.78817 0.36486 0.0
H1124 H 0.16473 0.88282 0.38968 0.0
H1125 H 0.20215 0.87927 0.41595 0.0
C1126 C 0.22151 0.7237 0.47557 0.0
C1127 C 0.20671 0.71609 0.50535 0.0
C1128 C 0.23016 0.75274 0.4619 0.0
C1129 C 0.22374 0.7745 0.47744 0.0
C1130 C 0.20987 0.76741 0.50803 0.0
C1131 C 0.20169 0.73841 0.52222 0.0
C1132 C 0.22902 0.80302 0.45907 0.0
C1133 C 0.20821 0.80669 0.44487 0.0
C1134 C 0.25427 0.82358 0.45054 0.0
C1135 C 0.27686 0.82102 0.46566 0.0
C1136 C 0.27897 0.81923 0.50109 0.0
C1137 C 0.30013 0.81651 0.51524 0.0
C1138 C 0.31939 0.8157 0.49423 0.0
C1139 C 0.31754 0.81763 0.45902 0.0
C1140 C 0.29641 0.82031 0.44474 0.0
C1141 C 0.26226 0.91853 0.35474 0.0
C1142 C 0.25591 0.90562 0.32228 0.0
C1143 C 0.25576 0.90006 0.38362 0.0
C1144 C 0.24228 0.86856 0.38037 0.0
C1145 C 0.23508 0.85578 0.34799 0.0
C1146 C 0.24199 0.87418 0.31911 0.0
C1147 C 0.23718 0.84856 0.41037 0.0
C1148 C 0.25803 0.84628 0.42636 0.0
C1149 C 0.21197 0.82919 0.42045 0.0
C1150 C 0.18936 0.83145 0.40503 0.0
C1151 C 0.16962 0.80577 0.39069 0.0
C1152 C 0.14842 0.80798 0.37599 0.0
C1153 C 0.14668 0.83575 0.37557 0.0
C1154 C 0.16613 0.86135 0.38992 0.0
C1155 C 0.18737 0.85926 0.40466 0.0
H1156 H 0.13026 0.83741 0.36417 0.0
H1157 H 0.33576 0.8136 0.50523 0.0
H1158 H 0.6269 0.03273 0.8327 0.0
H1159 H 0.59884 0.03632 0.87738 0.0
H1160 H 0.53845 0.0174 0.80424 0.0
H1161 H 0.56644 0.0139 0.75925 0.0
H1162 H 0.54692 0.06735 0.84377 0.0
H1163 H 0.53825 0.96625 0.85818 0.0
H1164 H 0.55034 0.92429 0.86907 0.0
H1165 H 0.57752 0.95991 0.96812 0.0
H1166 H 0.56607 0.0025 0.95768 0.0
H1167 H 0.45112 0.0446 0.97585 0.0
H1168 H 0.47141 0.01966 0.94011 0.0
H1169 H 0.54581 0.0877 0.96779 0.0
H1170 H 0.52586 0.11174 0.00483 0.0
H1171 H 0.52442 0.00637 0.94989 0.0
H1172 H 0.56059 0.11992 0.88759 0.0
H1173 H 0.54928 0.16335 0.88257 0.0
H1174 H 0.4694 0.10258 0.8819 0.0
H1175 H 0.4803 0.05881 0.88627 0.0
C1176 C 0.60766 0.02935 0.82606 0.0
C1177 C 0.59896 0.02322 0.79234 0.0
C1178 C 0.59159 0.03116 0.85171 0.0
C1179 C 0.56653 0.02689 0.84415 0.0
C1180 C 0.55773 0.02066 0.81058 0.0
C1181 C 0.57373 0.01862 0.78493 0.0
C1182 C 0.54995 0.03053 0.87091 0.0
C1183 C 0.54179 0.05367 0.8667 0.0
C1184 C 0.54356 0.01295 0.90114 0.0
C1185 C 0.55146 0.9879 0.90696 0.0
C1186 C 0.54724 0.96556 0.88207 0.0
C1187 C 0.55386 0.94151 0.88824 0.0
C1188 C 0.56473 0.93945 0.91925 0.0
C1189 C 0.5691 0.96153 0.9441 0.0
C1190 C 0.5625 0.98562 0.93807 0.0
C1191 C 0.47182 0.05374 0.97509 0.0
C1192 C 0.48691 0.08106 0.99175 0.0
C1193 C 0.48334 0.03936 0.95482 0.0
C1194 C 0.51003 0.05222 0.951 0.0
C1195 C 0.52515 0.07766 0.97027 0.0
C1196 C 0.51368 0.09177 0.99082 0.0
C1197 C 0.52193 0.04318 0.92249 0.0
C1198 C 0.52936 0.01946 0.92655 0.0
C1199 C 0.52799 0.06026 0.89216 0.0
C1200 C 0.52125 0.0862 0.88745 0.0
C1201 C 0.54063 0.11587 0.88605 0.0
C1202 C 0.5343 0.14051 0.88337 0.0
C1203 C 0.50864 0.13572 0.88198 0.0
C1204 C 0.48926 0.10625 0.88302 0.0
C1205 C 0.49551 0.08153 0.88558 0.0
H1206 H 0.50378 0.15481 0.88004 0.0
H1207 H 0.5697 0.92072 0.92406 0.0
H1208 H 0.45054 0.70456 0.5742 0.0
H1209 H 0.40958 0.68147 0.60399 0.0
H1210 H 0.40638 0.7683 0.60865 0.0
H1211 H 0.44754 0.79178 0.57907 0.0
H1212 H 0.39127 0.73597 0.66921 0.0
H1213 H 0.37409 0.71858 0.54866 0.0
H1214 H 0.37883 0.69994 0.49202 0.0
H1215 H 0.35284 0.60958 0.53159 0.0
H1216 H 0.34831 0.62779 0.5886 0.0
H1217 H 0.26124 0.70889 0.66046 0.0
H1218 H 0.30725 0.72274 0.6618 0.0
H1219 H 0.29211 0.62809 0.66551 0.0
H1220 H 0.24594 0.61429 0.6646 0.0
H1221 H 0.31812 0.65697 0.60864 0.0
H1222 H 0.32854 0.67176 0.72643 0.0
H1223 H 0.32443 0.68897 0.78401 0.0
H1224 H 0.36207 0.78167 0.75148 0.0
H1225 H 0.36649 0.76503 0.69364 0.0
C1226 C 0.44121 0.71883 0.5816 0.0
C1227 C 0.45226 0.75002 0.57402 0.0
C1228 C 0.41781 0.70557 0.59869 0.0
C1229 C 0.40493 0.72316 0.60835 0.0
C1230 C 0.41611 0.75437 0.60149 0.0
C1231 C 0.43953 0.76769 0.58438 0.0
C1232 C 0.37916 0.7088 0.62399 0.0
C1233 C 0.37519 0.71882 0.65597 0.0
C1234 C 0.35848 0.68555 0.60724 0.0
C1235 C 0.36119 0.67461 0.57297 0.0
C1236 C 0.36961 0.69479 0.54534 0.0
C1237 C 0.37222 0.68429 0.51316 0.0
C1238 C 0.36623 0.65361 0.50824 0.0
C1239 C 0.35754 0.63335 0.53546 0.0
C1240 C 0.35495 0.64374 0.56771 0.0
C1241 C 0.2678 0.6912 0.66334 0.0
C1242 C 0.25029 0.66063 0.66264 0.0
C1243 C 0.29405 0.69906 0.66409 0.0
C1244 C 0.30308 0.67642 0.66368 0.0
C1245 C 0.28549 0.64587 0.66601 0.0
C1246 C 0.25919 0.63802 0.66572 0.0
C1247 C 0.32996 0.68461 0.65362 0.0
C1248 C 0.33422 0.67359 0.62242 0.0
C1249 C 0.35082 0.70679 0.67118 0.0
C1250 C 0.3477 0.71711 0.70563 0.0
C1251 C 0.33575 0.69582 0.73148 0.0
C1252 C 0.33343 0.70547 0.7642 0.0
C1253 C 0.34288 0.73638 0.7714 0.0
C1254 C 0.35475 0.75772 0.74588 0.0
C1255 C 0.35725 0.74819 0.71313 0.0
H1256 H 0.34106 0.7438 0.79677 0.0
H1257 H 0.36825 0.64553 0.4833 0.0
H1258 H 0.70344 0.08736 0.86777 0.0
H1259 H 0.71952 0.12554 0.91258 0.0
H1260 H 0.78973 0.17211 0.85622 0.0
H1261 H 0.77383 0.1334 0.81171 0.0
H1262 H 0.79919 0.17407 0.92267 0.0
H1263 H 0.7393 0.19242 0.85062 0.0
H1264 H 0.6975 0.17829 0.82287 0.0
H1265 H 0.66071 0.16426 0.92036 0.0
H1266 H 0.70227 0.17783 0.94868 0.0
H1267 H 0.84189 0.32814 0.95746 0.0
H1268 H 0.82396 0.27738 0.93359 0.0
H1269 H 0.76581 0.24726 0.01157 0.0
H1270 H 0.78387 0.29847 0.03605 0.0
H1271 H 0.74705 0.23136 0.94477 0.0
H1272 H 0.80994 0.22228 0.01614 0.0
H1273 H 0.85262 0.23806 0.04179 0.0
H1274 H 0.88484 0.23696 0.94368 0.0
H1275 H 0.84242 0.22161 0.91734 0.0
C1276 C 0.72233 0.10573 0.86508 0.0
C1277 C 0.73722 0.10805 0.83604 0.0
C1278 C 0.73152 0.12742 0.8907 0.0
C1279 C 0.75557 0.15203 0.88736 0.0
C1280 C 0.77105 0.15337 0.85922 0.0
C1281 C 0.76198 0.13139 0.8338 0.0
C1282 C 0.7639 0.17748 0.9118 0.0
C1283 C 0.78784 0.18665 0.92746 0.0
C1284 C 0.74873 0.19337 0.91875 0.0
C1285 C 0.72383 0.18578 0.90175 0.0
C1286 C 0.72227 0.18614 0.86613 0.0
C1287 C 0.69863 0.17824 0.8503 0.0
C1288 C 0.67645 0.1703 0.86984 0.0
C1289 C 0.67789 0.17035 0.90526 0.0
C1290 C 0.70148 0.17814 0.92121 0.0
C1291 C 0.82538 0.31076 0.96977 0.0
C1292 C 0.81428 0.31733 0.99867 0.0
C1293 C 0.81526 0.28169 0.95619 0.0
C1294 C 0.7938 0.25855 0.97109 0.0
C1295 C 0.78255 0.26486 -6e-05 0.0
C1296 C 0.79289 0.29403 0.01388 0.0
C1297 C 0.78261 0.22837 0.95491 0.0
C1298 C 0.75814 0.21834 0.94067 0.0
C1299 C 0.7974 0.21191 0.949 0.0
C1300 C 0.82297 0.22092 0.96474 0.0
C1301 C 0.82615 0.22559 -1e-05 0.0
C1302 C 0.8503 0.23443 0.01466 0.0
C1303 C 0.87144 0.23854 0.99437 0.0
C1304 C 0.86845 0.23376 0.95937 0.0
C1305 C 0.84434 0.22493 0.94456 0.0
H1306 H 0.89012 0.2454 0.00578 0.0
H1307 H 0.65816 0.16417 0.85754 0.0
H1308 H 0.16949 0.51031 0.50609 0.0
H1309 H 0.18849 0.47535 0.49155 0.0
H1310 H 0.26274 0.54251 0.52191 0.0
H1311 H 0.2437 0.57769 0.53594 0.0
H1312 H 0.26357 0.52236 0.45885 0.0
H1313 H 0.23279 0.47687 0.56683 0.0
H1314 H 0.2011 0.45414 0.61254 0.0
H1315 H 0.1551 0.38188 0.54598 0.0
H1316 H 0.18634 0.40442 0.49967 0.0
H1317 H 0.32684 0.43353 0.41697 0.0
H1318 H 0.30918 0.46041 0.45311 0.0
H1319 H 0.23276 0.39549 0.42844 0.0
H1320 H 0.25053 0.3668 0.39433 0.0
H1321 H 0.23468 0.41469 0.49262 0.0
H1322 H 0.26249 0.46273 0.38362 0.0
H1323 H 0.29348 0.4852 0.33704 0.0
H1324 H 0.34409 0.55272 0.40509 0.0
H1325 H 0.31352 0.53041 0.45219 0.0
C1326 C 0.18978 0.51729 0.5102 0.0
C1327 C 0.20526 0.54661 0.5218 0.0
C1328 C 0.20059 0.4973 0.50212 0.0
C1329 C 0.22703 0.50628 0.50576 0.0
C1330 C 0.24229 0.53513 0.51896 0.0
C1331 C 0.23145 0.55512 0.52709 0.0
C1332 C 0.23902 0.4869 0.4923 0.0
C1333 C 0.25763 0.49901 0.4668 0.0
C1334 C 0.23066 0.45615 0.50187 0.0
C1335 C 0.21183 0.44249 0.52968 0.0
C1336 C 0.21582 0.45627 0.56183 0.0
C1337 C 0.19795 0.44339 0.58787 0.0
C1338 C 0.17608 0.41662 0.58214 0.0
C1339 C 0.17205 0.40263 0.55037 0.0
C1340 C 0.18985 0.41543 0.52423 0.0
C1341 C 0.30632 0.42438 0.41989 0.0
C1342 C 0.29012 0.39829 0.40218 0.0
C1343 C 0.29622 0.44004 0.4403 0.0
C1344 C 0.26967 0.43056 0.44259 0.0
C1345 C 0.25334 0.40347 0.42668 0.0
C1346 C 0.26351 0.38733 0.40683 0.0
C1347 C 0.25918 0.45022 0.45927 0.0
C1348 C 0.2408 0.43816 0.48509 0.0
C1349 C 0.26758 0.48104 0.44989 0.0
C1350 C 0.2858 0.49479 0.42146 0.0
C1351 C 0.28027 0.48231 0.38867 0.0
C1352 C 0.29775 0.49503 0.36217 0.0
C1353 C 0.32072 0.5204 0.36809 0.0
C1354 C 0.32625 0.53312 0.40052 0.0
C1355 C 0.30886 0.52046 0.42712 0.0
H1356 H 0.33426 0.53016 0.34757 0.0
H1357 H 0.16227 0.40668 0.60234 0.0
H1358 H 0.7246 0.0985 0.6236 0.0
H1359 H 0.74432 0.13962 0.58224 0.0
H1360 H 0.67759 0.15846 0.58694 0.0
H1361 H 0.65767 0.11679 0.62757 0.0
H1362 H 0.69446 0.16361 0.52342 0.0
H1363 H 0.73196 0.19968 0.63272 0.0
H1364 H 0.75424 0.19846 0.68569 0.0
H1365 H 0.81969 0.20459 0.62827 0.0
H1366 H 0.7976 0.20534 0.5749 0.0
H1367 H 0.74978 0.32232 0.48496 0.0
H1368 H 0.72726 0.26982 0.50474 0.0
H1369 H 0.79556 0.25596 0.48773 0.0
H1370 H 0.81797 0.3085 0.46794 0.0
H1371 H 0.77911 0.2454 0.55273 0.0
H1372 H 0.74207 0.21649 0.44285 0.0
H1373 H 0.71866 0.21852 0.39132 0.0
H1374 H 0.65148 0.2012 0.45096 0.0
H1375 H 0.67465 0.19962 0.50306 0.0
C1376 C 0.71424 0.11146 0.61562 0.0
C1377 C 0.68984 0.1049 0.62876 0.0
C1378 C 0.72543 0.13485 0.59206 0.0
C1379 C 0.71256 0.15238 0.58186 0.0
C1380 C 0.68785 0.14523 0.59441 0.0
C1381 C 0.67656 0.12162 0.61768 0.0
C1382 C 0.72534 0.17915 0.55956 0.0
C1383 C 0.71289 0.18163 0.52987 0.0
C1384 C 0.74961 0.20236 0.56772 0.0
C1385 C 0.76302 0.20222 0.59981 0.0
C1386 C 0.75103 0.20055 0.63138 0.0
C1387 C 0.76363 0.19996 0.66147 0.0
C1388 C 0.78834 0.20136 0.66034 0.0
C1389 C 0.80053 0.20345 0.6291 0.0
C1390 C 0.78798 0.20395 0.59892 0.0
C1391 C 0.75954 0.30758 0.48424 0.0
C1392 C 0.78538 0.319 0.47483 0.0
C1393 C 0.74674 0.27768 0.49554 0.0
C1394 C 0.75976 0.25901 0.49768 0.0
C1395 C 0.78518 0.26999 0.48617 0.0
C1396 C 0.7979 0.29982 0.47476 0.0
C1397 C 0.74823 0.23 0.51654 0.0
C1398 C 0.76087 0.2272 0.54585 0.0
C1399 C 0.72403 0.20681 0.50819 0.0
C1400 C 0.71016 0.20813 0.47693 0.0
C1401 C 0.72239 0.21342 0.44508 0.0
C1402 C 0.70914 0.21441 0.41575 0.0
C1403 C 0.68359 0.20993 0.4179 0.0
C1404 C 0.67126 0.2046 0.44939 0.0
C1405 C 0.68443 0.20364 0.4788 0.0
H1406 H 0.67333 0.21059 0.39516 0.0
H1407 H 0.79807 0.20091 0.68366 0.0
H1408 H 0.56629 0.76769 0.11225 0.0
H1409 H 0.56908 0.77803 0.17341 0.0
H1410 H 0.4932 0.77527 0.17181 0.0
H1411 H 0.49084 0.76584 0.1104 0.0
H1412 H 0.52308 0.81952 0.21175 0.0
H1413 H 0.50362 0.71451 0.19869 0.0
H1414 H 0.50933 0.67039 0.17656 0.0
H1415 H 0.5831 0.70242 0.22403 0.0
H1416 H 0.57803 0.74703 0.24597 0.0
H1417 H 0.49528 0.79273 0.38779 0.0
H1418 H 0.49588 0.79 0.32572 0.0
H1419 H 0.57292 0.7965 0.32919 0.0
H1420 H 0.57193 0.79835 0.3915 0.0
H1421 H 0.54311 0.75152 0.28834 0.0
H1422 H 0.5607 0.85792 0.30108 0.0
H1423 H 0.55114 0.89854 0.32592 0.0
H1424 H 0.47601 0.85899 0.282 0.0
H1425 H 0.48526 0.81843 0.25655 0.0
C1426 C 0.5503 0.76937 0.12513 0.0
C1427 C 0.52824 0.76565 0.10714 0.0
C1428 C 0.55185 0.77522 0.15993 0.0
C1429 C 0.53116 0.77691 0.17727 0.0
C1430 C 0.50935 0.77399 0.15897 0.0
C1431 C 0.50794 0.76847 0.12407 0.0
C1432 C 0.53194 0.78075 0.21462 0.0
C1433 C 0.52729 0.80452 0.22849 0.0
C1434 C 0.53756 0.76129 0.2365 0.0
C1435 C 0.54055 0.73428 0.22369 0.0
C1436 C 0.52114 0.71226 0.20421 0.0
C1437 C 0.52425 0.68715 0.19172 0.0
C1438 C 0.54659 0.68364 0.19882 0.0
C1439 C 0.56583 0.70519 0.21851 0.0
C1440 C 0.56284 0.73039 0.23099 0.0
C1441 C 0.51238 0.79392 0.37511 0.0
C1442 C 0.53353 0.79565 0.39398 0.0
C1443 C 0.51278 0.79248 0.33977 0.0
C1444 C 0.53457 0.79339 0.32281 0.0
C1445 C 0.55594 0.79577 0.34179 0.0
C1446 C 0.55542 0.7969 0.37719 0.0
C1447 C 0.5346 0.79048 0.28539 0.0
C1448 C 0.53924 0.76673 0.27153 0.0
C1449 C 0.52858 0.80965 0.26361 0.0
C1450 C 0.52366 0.83516 0.27697 0.0
C1451 C 0.54221 0.85805 0.29654 0.0
C1452 C 0.53686 0.88108 0.31068 0.0
C1453 C 0.51302 0.88143 0.30544 0.0
C1454 C 0.49456 0.8589 0.28577 0.0
C1455 C 0.49989 0.83597 0.27134 0.0
H1456 H 0.50883 0.8991 0.31671 0.0
H1457 H 0.54896 0.66419 0.18913 0.0
H1458 H 0.67696 0.55753 0.88568 0.0
H1459 H 0.70137 0.54276 0.92663 0.0
H1460 H 0.7695 0.62284 0.90164 0.0
H1461 H 0.74486 0.63802 0.8609 0.0
H1462 H 0.77721 0.57147 0.89957 0.0
H1463 H 0.74263 0.61824 0.9779 0.0
H1464 H 0.70925 0.62974 0.0052 0.0
H1465 H 0.66961 0.53697 0.03684 0.0
H1466 H 0.70254 0.52476 0.00926 0.0
H1467 H 0.84343 0.52263 0.01658 0.0
H1468 H 0.8252 0.55707 0.9967 0.0
H1469 H 0.74944 0.48403 0.00182 0.0
H1470 H 0.76772 0.44956 0.02139 0.0
H1471 H 0.75098 0.54148 0.01904 0.0
H1472 H 0.77949 0.49361 0.92992 0.0
H1473 H 0.81132 0.48031 0.9009 0.0
H1474 H 0.86134 0.57471 0.88924 0.0
H1475 H 0.8298 0.58854 0.91837 0.0
C1476 C 0.69703 0.57225 0.88939 0.0
C1477 C 0.7091 0.59885 0.87021 0.0
C1478 C 0.71094 0.56384 0.9128 0.0
C1479 C 0.73716 0.58192 0.91746 0.0
C1480 C 0.74925 0.60868 0.89848 0.0
C1481 C 0.73525 0.61719 0.87514 0.0
C1482 C 0.7521 0.57139 0.94023 0.0
C1483 C 0.77194 0.5657 0.92596 0.0
C1484 C 0.74484 0.56332 0.97446 0.0
C1485 C 0.72502 0.57055 0.99131 0.0
C1486 C 0.72671 0.60022 0.99046 0.0
C1487 C 0.70787 0.60689 0.00602 0.0
C1488 C 0.68731 0.5841 0.0227 0.0
C1489 C 0.68556 0.55461 0.02391 0.0
C1490 C 0.70433 0.54781 0.00836 0.0
C1491 C 0.82285 0.51424 0.01413 0.0
C1492 C 0.8069 0.48352 0.01968 0.0
C1493 C 0.81249 0.53385 0.00292 0.0
C1494 C 0.78606 0.5229 0.99734 0.0
C1495 C 0.7699 0.49285 0.00598 0.0
C1496 C 0.78029 0.47321 0.01706 0.0
C1497 C 0.77566 0.54119 0.97809 0.0
C1498 C 0.75666 0.54811 0.99294 0.0
C1499 C 0.78356 0.55032 0.9443 0.0
C1500 C 0.80246 0.54209 0.92664 0.0
C1501 C 0.79735 0.51151 0.92134 0.0
C1502 C 0.8153 0.50388 0.90481 0.0
C1503 C 0.83839 0.52665 0.89336 0.0
C1504 C 0.84349 0.5571 0.89821 0.0
C1505 C 0.82557 0.56485 0.91467 0.0
H1506 H 0.85229 0.52069 0.88066 0.0
H1507 H 0.67274 0.5893 0.03474 0.0
H1508 H 0.29444 0.91351 0.06404 0.0
H1509 H 0.27423 0.87029 0.02553 0.0
H1510 H 0.25225 0.80949 0.11145 0.0
H1511 H 0.27272 0.85254 0.14982 0.0
H1512 H 0.2881 0.8241 0.01707 0.0
H1513 H 0.19676 0.74888 0.09398 0.0
H1514 H 0.16493 0.75537 0.1311 0.0
H1515 H 0.18076 0.84102 0.084 0.0
H1516 H 0.21239 0.83485 0.04623 0.0
H1517 H 0.24601 0.66655 0.99755 0.0
H1518 H 0.26135 0.72 0.01321 0.0
H1519 H 0.19497 0.72308 0.96594 0.0
H1520 H 0.17953 0.6693 0.95068 0.0
H1521 H 0.20003 0.74309 0.02921 0.0
H1522 H 0.25472 0.76478 0.93318 0.0
H1523 H 0.2856 0.75856 0.89405 0.0
H1524 H 0.34121 0.78203 0.97394 0.0
H1525 H 0.31056 0.78802 0.01371 0.0
C1526 C 0.28501 0.89089 0.0746 0.0
C1527 C 0.28515 0.88621 0.10977 0.0
C1528 C 0.27352 0.86631 0.05266 0.0
C1529 C 0.2617 0.83673 0.06564 0.0
C1530 C 0.26097 0.83217 0.10092 0.0
C1531 C 0.27258 0.85674 0.12283 0.0
C1532 C 0.25172 0.81035 0.04243 0.0
C1533 C 0.26877 0.8065 0.01943 0.0
C1534 C 0.22635 0.78774 0.04504 0.0
C1535 C 0.2071 0.79147 0.06741 0.0
C1536 C 0.19336 0.76902 0.0914 0.0
C1537 C 0.17537 0.77266 0.11259 0.0
C1538 C 0.17088 0.79862 0.10997 0.0
C1539 C 0.18432 0.82097 0.08608 0.0
C1540 C 0.20231 0.81742 0.06481 0.0
C1541 C 0.23526 0.67906 0.98953 0.0
C1542 C 0.21193 0.66434 0.97254 0.0
C1543 C 0.24395 0.70951 0.99847 0.0
C1544 C 0.22939 0.72562 0.99052 0.0
C1545 C 0.20654 0.71112 0.97216 0.0
C1546 C 0.19786 0.68061 0.96322 0.0
C1547 C 0.23669 0.75633 0.00475 0.0
C1548 C 0.21919 0.76095 0.02624 0.0
C1549 C 0.26154 0.77979 0.00041 0.0
C1550 C 0.28027 0.77674 0.97648 0.0
C1551 C 0.27349 0.76848 0.94246 0.0
C1552 C 0.29096 0.76501 0.92016 0.0
C1553 C 0.31533 0.76987 0.9315 0.0
C1554 C 0.32232 0.7783 0.96517 0.0
C1555 C 0.30492 0.7818 0.9876 0.0
H1556 H 0.32879 0.76713 0.91417 0.0
H1557 H 0.15695 0.80141 0.12641 0.0
H1558 H 0.50522 0.24793 0.61585 0.0
H1559 H 0.50065 0.23943 0.67722 0.0
H1560 H 0.43189 0.25408 0.67621 0.0
H1561 H 0.43619 0.26207 0.6144 0.0
H1562 H 0.46637 0.28162 0.73279 0.0
H1563 H 0.4242 0.18554 0.67588 0.0
H1564 H 0.4222 0.14695 0.63407 0.0
H1565 H 0.48429 0.13697 0.68418 0.0
H1566 H 0.48699 0.17596 0.72594 0.0
H1567 H 0.42435 0.21972 0.89537 0.0
H1568 H 0.42438 0.22742 0.83387 0.0
H1569 H 0.4865 0.20069 0.82281 0.0
H1570 H 0.48627 0.19279 0.88439 0.0
H1571 H 0.45328 0.17904 0.77165 0.0
H1572 H 0.49759 0.27461 0.82659 0.0
H1573 H 0.50382 0.316 0.86667 0.0
H1574 H 0.44218 0.32947 0.82 0.0
H1575 H 0.43524 0.28773 0.78 0.0
C1576 C 0.48929 0.24964 0.62883 0.0
C1577 C 0.47104 0.25561 0.6106 0.0
C1578 C 0.48672 0.24483 0.66379 0.0
C1579 C 0.46581 0.24584 0.68109 0.0
C1580 C 0.44817 0.25326 0.66323 0.0
C1581 C 0.45068 0.25792 0.62807 0.0
C1582 C 0.46164 0.2372 0.71737 0.0
C1583 C 0.46304 0.25907 0.74136 0.0
C1584 C 0.45803 0.20798 0.72836 0.0
C1585 C 0.45592 0.18385 0.70389 0.0
C1586 C 0.43753 0.17525 0.67788 0.0
C1587 C 0.43627 0.1533 0.65418 0.0
C1588 C 0.45314 0.13956 0.65642 0.0
C1589 C 0.47124 0.14766 0.68246 0.0
C1590 C 0.47263 0.16966 0.70616 0.0
C1591 C 0.43769 0.21504 0.87961 0.0
C1592 C 0.4554 0.20583 0.89433 0.0
C1593 C 0.4378 0.21959 0.84461 0.0
C1594 C 0.4558 0.21524 0.82385 0.0
C1595 C 0.47252 0.2043 0.83837 0.0
C1596 C 0.47233 0.19965 0.87342 0.0
C1597 C 0.45802 0.22348 0.78735 0.0
C1598 C 0.45632 0.20153 0.76322 0.0
C1599 C 0.46171 0.25278 0.7763 0.0
C1600 C 0.46568 0.27775 0.80054 0.0
C1601 C 0.48517 0.28616 0.82508 0.0
C1602 C 0.48887 0.30973 0.84776 0.0
C1603 C 0.47336 0.3253 0.84595 0.0
C1604 C 0.45414 0.31734 0.82143 0.0
C1605 C 0.45031 0.29372 0.79875 0.0
H1606 H 0.47628 0.34358 0.86348 0.0
H1607 H 0.45217 0.1226 0.63802 0.0
H1608 H 0.5145 0.65583 0.52858 0.0
H1609 H 0.50481 0.6041 0.50934 0.0
H1610 H 0.46491 0.61741 0.42264 0.0
H1611 H 0.47323 0.66788 0.44278 0.0
H1612 H 0.43715 0.56779 0.44693 0.0
H1613 H 0.52581 0.61627 0.42176 0.0
H1614 H 0.57232 0.64419 0.43011 0.0
H1615 H 0.57223 0.57296 0.49438 0.0
H1616 H 0.52551 0.54542 0.48818 0.0
H1617 H 0.4567 0.44762 0.3453 0.0
H1618 H 0.4776 0.496 0.37483 0.0
H1619 H 0.42155 0.46281 0.45516 0.0
H1620 H 0.40058 0.4143 0.42594 0.0
H1621 H 0.49831 0.52105 0.43563 0.0
H1622 H 0.3974 0.51774 0.46517 0.0
H1623 H 0.35378 0.49608 0.44137 0.0
H1624 H 0.38324 0.48448 0.34489 0.0
H1625 H 0.42709 0.50703 0.36771 0.0
C1626 C 0.50375 0.64758 0.50538 0.0
C1627 C 0.49432 0.66562 0.48737 0.0
C1628 C 0.49834 0.61812 0.49428 0.0
C1629 C 0.48406 0.60668 0.46449 0.0
C1630 C 0.47561 0.62538 0.44595 0.0
C1631 C 0.48041 0.65431 0.45745 0.0
C1632 C 0.47643 0.57484 0.45322 0.0
C1633 C 0.45063 0.55767 0.44475 0.0
C1634 C 0.49401 0.56159 0.4496 0.0
C1635 C 0.52197 0.579 0.45498 0.0
C1636 C 0.53556 0.60689 0.4384 0.0
C1637 C 0.562 0.62269 0.44281 0.0
C1638 C 0.57519 0.61057 0.46317 0.0
C1639 C 0.56194 0.58262 0.47919 0.0
C1640 C 0.53545 0.56697 0.47536 0.0
C1641 C 0.44928 0.45021 0.36979 0.0
C1642 C 0.42654 0.42739 0.38282 0.0
C1643 C 0.4613 0.47792 0.38667 0.0
C1644 C 0.45075 0.4832 0.41674 0.0
C1645 C 0.42972 0.45933 0.43165 0.0
C1646 C 0.41774 0.43162 0.41486 0.0
C1647 C 0.45926 0.51452 0.42973 0.0
C1648 C 0.48501 0.53134 0.43852 0.0
C1649 C 0.44202 0.52822 0.43196 0.0
C1650 C 0.41552 0.51353 0.41842 0.0
C1651 C 0.39456 0.51048 0.43891 0.0
C1652 C 0.36979 0.49816 0.42553 0.0
C1653 C 0.36573 0.48878 0.39168 0.0
C1654 C 0.38641 0.49165 0.37114 0.0
C1655 C 0.41123 0.50419 0.38431 0.0
H1656 H 0.34658 0.47939 0.38129 0.0
H1657 H 0.59569 0.62269 0.46632 0.0
H1658 H 0.82034 0.39743 0.87505 0.0
H1659 H 0.82969 0.40007 0.81468 0.0
H1660 H 0.91059 0.44562 0.83543 0.0
H1661 H 0.90131 0.44326 0.89667 0.0
H1662 H 0.8958 0.47053 0.78011 0.0
H1663 H 0.88876 0.37463 0.81348 0.0
H1664 H 0.8712 0.32543 0.8432 0.0
H1665 H 0.80143 0.29748 0.78646 0.0
H1666 H 0.81837 0.34671 0.75679 0.0
H1667 H 0.89509 0.44342 0.59806 0.0
H1668 H 0.90655 0.44149 0.65784 0.0
H1669 H 0.82659 0.40384 0.68537 0.0
H1670 H 0.81509 0.40603 0.62621 0.0
H1671 H 0.8549 0.37425 0.71581 0.0
H1672 H 0.86147 0.47711 0.69378 0.0
H1673 H 0.88067 0.52626 0.66392 0.0
H1674 H 0.95523 0.53991 0.69908 0.0
H1675 H 0.93648 0.49055 0.72867 0.0
C1676 C 0.84016 0.40815 0.86697 0.0
C1677 C 0.8601 0.41987 0.89072 0.0
C1678 C 0.84548 0.40953 0.83237 0.0
C1679 C 0.87085 0.42245 0.82063 0.0
C1680 C 0.89089 0.43531 0.84406 0.0
C1681 C 0.88555 0.43395 0.87895 0.0
C1682 C 0.87575 0.42191 0.78375 0.0
C1683 C 0.8875 0.44943 0.76606 0.0
C1684 C 0.86518 0.39435 0.76542 0.0
C1685 C 0.85485 0.36449 0.78296 0.0
C1686 C 0.86961 0.35808 0.80747 0.0
C1687 C 0.85976 0.33017 0.82431 0.0
C1688 C 0.83521 0.30835 0.81674 0.0
C1689 C 0.82046 0.3144 0.79228 0.0
C1690 C 0.8302 0.3423 0.7754 0.0
C1691 C 0.87999 0.4345 0.61689 0.0
C1692 C 0.85419 0.42501 0.60757 0.0
C1693 C 0.88657 0.43346 0.65094 0.0
C1694 C 0.86739 0.42255 0.67591 0.0
C1695 C 0.84165 0.41225 0.66641 0.0
C1696 C 0.83512 0.41367 0.63264 0.0
C1697 C 0.8736 0.42287 0.71236 0.0
C1698 C 0.86396 0.39524 0.72993 0.0
C1699 C 0.8865 0.45024 0.73045 0.0
C1700 C 0.89763 0.48003 0.71308 0.0
C1701 C 0.88198 0.4905 0.69491 0.0
C1702 C 0.89278 0.51838 0.67805 0.0
C1703 C 0.91917 0.53613 0.67947 0.0
C1704 C 0.93481 0.52608 0.69788 0.0
C1705 C 0.92411 0.49816 0.7147 0.0
H1706 H 0.92751 0.5577 0.66639 0.0
H1707 H 0.82761 0.28676 0.82982 0.0
H1708 H 0.45975 0.82957 0.95886 0.0
H1709 H 0.45471 0.87481 0.97561 0.0
H1710 H 0.53493 0.91918 0.00083 0.0
H1711 H 0.54009 0.87349 0.98461 0.0
H1712 H 0.50593 0.92143 0.05197 0.0
H1713 H 0.50698 0.93858 0.93302 0.0
H1714 H 0.49422 0.92704 0.87306 0.0
H1715 H 0.41882 0.91832 0.89704 0.0
H1716 H 0.43068 0.92861 0.95717 0.0
H1717 H 0.46647 0.02636 0.12549 0.0
H1718 H 0.49192 0.01145 0.08589 0.0
H1719 H 0.4227 0.95138 0.03522 0.0
H1720 H 0.39753 0.96713 0.07331 0.0
H1721 H 0.45905 0.97143 0.99101 0.0
H1722 H 0.44994 0.92834 0.10494 0.0
H1723 H 0.45566 0.93167 0.16715 0.0
H1724 H 0.53703 0.9796 0.15409 0.0
H1725 H 0.53173 0.97676 0.09178 0.0
C1726 C 0.47649 0.84909 0.96739 0.0
C1727 C 0.50029 0.84778 0.97066 0.0
C1728 C 0.4736 0.87511 0.97671 0.0
C1729 C 0.4945 0.90061 0.98912 0.0
C1730 C 0.51857 0.89985 0.9911 0.0
C1731 C 0.52148 0.87372 0.98183 0.0
C1732 C 0.49032 0.92627 0.00384 0.0
C1733 C 0.49626 0.93291 0.03828 0.0
C1734 C 0.47707 0.94073 0.98625 0.0
C1735 C 0.46991 0.93462 0.94979 0.0
C1736 C 0.4877 0.93418 0.92555 0.0
C1737 C 0.4806 0.92781 0.89152 0.0
C1738 C 0.45585 0.92224 0.88124 0.0
C1739 C 0.43805 0.9228 0.905 0.0
C1740 C 0.44496 0.92886 0.9391 0.0
C1741 C 0.45677 0.01055 0.10536 0.0
C1742 C 0.42988 0.99733 0.10314 0.0
C1743 C 0.47134 0.00196 0.08281 0.0
C1744 C 0.4592 0.97963 0.05814 0.0
C1745 C 0.43259 0.96849 0.05412 0.0
C1746 C 0.41812 0.97735 0.07623 0.0
C1747 C 0.47315 0.96475 0.03932 0.0
C1748 C 0.46932 0.96041 0.00419 0.0
C1749 C 0.48721 0.95114 0.05645 0.0
C1750 C 0.49043 0.95272 0.09381 0.0
C1751 C 0.46903 0.93973 0.11539 0.0
C1752 C 0.47219 0.9415 0.15063 0.0
C1753 C 0.49668 0.95596 0.16454 0.0
C1754 C 0.51807 0.96851 0.14326 0.0
C1755 C 0.51501 0.96682 0.108 0.0
H1756 H 0.4991 0.95742 0.19181 0.0
H1757 H 0.45043 0.91736 0.85487 0.0
H1758 H 0.52303 0.36408 0.04646 0.0
H1759 H 0.53073 0.41169 0.01832 0.0
H1760 H 0.46058 0.36716 0.96175 0.0
H1761 H 0.45339 0.31908 0.98884 0.0
H1762 H 0.49506 0.39417 0.9203 0.0
H1763 H 0.47082 0.4279 0.0195 0.0
H1764 H 0.46748 0.43777 0.08032 0.0
H1765 H 0.54796 0.49566 0.0833 0.0
H1766 H 0.55192 0.4859 0.02266 0.0
H1767 H 0.56291 0.56985 0.88006 0.0
H1768 H 0.53166 0.5287 0.91488 0.0
H1769 H 0.56814 0.47081 0.88648 0.0
H1770 H 0.59855 0.51092 0.85159 0.0
H1771 H 0.5355 0.49787 0.96837 0.0
H1772 H 0.52671 0.39917 0.87564 0.0
H1773 H 0.525 0.38977 0.81408 0.0
H1774 H 0.50195 0.46171 0.79685 0.0
H1775 H 0.50286 0.4711 0.85842 0.0
C1776 C 0.50895 0.36453 0.02857 0.0
C1777 C 0.48779 0.33774 0.01954 0.0
C1778 C 0.51323 0.39193 0.01269 0.0
C1779 C 0.49617 0.39323 0.98795 0.0
C1780 C 0.47409 0.36681 0.98063 0.0
C1781 C 0.47001 0.33931 0.99613 0.0
C1782 C 0.50357 0.42066 0.96621 0.0
C1783 C 0.50357 0.41683 0.93088 0.0
C1784 C 0.51379 0.45039 0.97975 0.0
C1785 C 0.51166 0.45606 0.01645 0.0
C1786 C 0.48786 0.44255 0.03316 0.0
C1787 C 0.48584 0.44817 0.06761 0.0
C1788 C 0.5075 0.4673 0.08561 0.0
C1789 C 0.5312 0.48087 0.06927 0.0
C1790 C 0.53333 0.47535 0.03484 0.0
C1791 C 0.56413 0.54828 0.88132 0.0
C1792 C 0.58296 0.5435 0.86274 0.0
C1793 C 0.5463 0.52483 0.90113 0.0
C1794 C 0.54714 0.4964 0.90256 0.0
C1795 C 0.56654 0.49216 0.88494 0.0
C1796 C 0.58405 0.51527 0.86509 0.0
C1797 C 0.52852 0.47096 0.923 0.0
C1798 C 0.52638 0.47519 0.95792 0.0
C1799 C 0.51565 0.44156 0.90902 0.0
C1800 C 0.51501 0.43598 0.8718 0.0
C1801 C 0.52111 0.4129 0.85881 0.0
C1802 C 0.52029 0.40756 0.82386 0.0
C1803 C 0.51345 0.42519 0.80156 0.0
C1804 C 0.50732 0.44813 0.81416 0.0
C1805 C 0.50799 0.45347 0.8491 0.0
H1806 H 0.51287 0.42105 0.7745 0.0
H1807 H 0.50595 0.47167 0.11221 0.0
H1808 H 0.11503 0.53824 0.10316 0.0
H1809 H 0.10474 0.53936 0.16347 0.0
H1810 H 0.18539 0.57913 0.18724 0.0
H1811 H 0.19567 0.57718 0.12763 0.0
H1812 H 0.15999 0.53563 0.23096 0.0
H1813 H 0.14789 0.62192 0.1809 0.0
H1814 H 0.12645 0.64258 0.14076 0.0
H1815 H 0.05328 0.58409 0.18279 0.0
H1816 H 0.07433 0.563 0.22304 0.0
H1817 H 0.19444 0.63419 0.3661 0.0
H1818 H 0.18339 0.61368 0.30895 0.0
H1819 H 0.10499 0.56223 0.33999 0.0
H1820 H 0.11598 0.5824 0.39789 0.0
H1821 H 0.1156 0.59719 0.27216 0.0
H1822 H 0.12987 0.52099 0.33197 0.0
H1823 H 0.15186 0.50132 0.37227 0.0
H1824 H 0.22021 0.53915 0.31161 0.0
H1825 H 0.19878 0.55957 0.27127 0.0
C1826 C 0.13052 0.54726 0.12133 0.0
C1827 C 0.15617 0.55765 0.11072 0.0
C1828 C 0.12462 0.5479 0.15573 0.0
C1829 C 0.14431 0.55941 0.17987 0.0
C1830 C 0.16986 0.5699 0.16913 0.0
C1831 C 0.17573 0.56893 0.13499 0.0
C1832 C 0.13895 0.5613 0.2164 0.0
C1833 C 0.15016 0.54896 0.23995 0.0
C1834 C 0.12514 0.57752 0.22826 0.0
C1835 C 0.11263 0.59078 0.20474 0.0
C1836 C 0.12723 0.61347 0.18151 0.0
C1837 C 0.11516 0.62524 0.15876 0.0
C1838 C 0.08852 0.61461 0.15919 0.0
C1839 C 0.07391 0.5923 0.18249 0.0
C1840 C 0.0859 0.58047 0.2053 0.0
C1841 C 0.17479 0.61869 0.36084 0.0
C1842 C 0.15611 0.60979 0.38652 0.0
C1843 C 0.16853 0.60699 0.32819 0.0
C1844 C 0.14344 0.58641 0.32047 0.0
C1845 C 0.12445 0.57812 0.34563 0.0
C1846 C 0.1308 0.58954 0.3786 0.0
C1847 C 0.13795 0.57299 0.28621 0.0
C1848 C 0.12467 0.58304 0.26319 0.0
C1849 C 0.14978 0.55453 0.27476 0.0
C1850 C 0.16273 0.54196 0.29867 0.0
C1851 C 0.14965 0.52532 0.32735 0.0
C1852 C 0.16201 0.51401 0.35019 0.0
C1853 C 0.18743 0.51901 0.34453 0.0
C1854 C 0.20052 0.53529 0.31596 0.0
C1855 C 0.18826 0.54671 0.29307 0.0
H1856 H 0.19697 0.51025 0.36225 0.0
H1857 H 0.07919 0.62368 0.14149 0.0
H1858 H 0.52929 0.99192 0.66885 0.0
H1859 H 0.51264 0.01627 0.6278 0.0
H1860 H 0.56758 0.01554 0.55357 0.0
H1861 H 0.58479 0.99171 0.59498 0.0
H1862 H 0.57327 0.06994 0.56158 0.0
H1863 H 0.50187 0.98008 0.53637 0.0
H1864 H 0.46472 0.93108 0.54503 0.0
H1865 H 0.42694 0.975 0.6029 0.0
H1866 H 0.46399 0.0243 0.59492 0.0
H1867 H 0.48405 0.13525 0.47424 0.0
H1868 H 0.49201 0.09116 0.48977 0.0
H1869 H 0.54337 0.14364 0.56881 0.0
H1870 H 0.53648 0.18784 0.55232 0.0
H1871 H 0.48426 0.05722 0.54251 0.0
H1872 H 0.59106 0.12481 0.58194 0.0
H1873 H 0.62779 0.1723 0.56598 0.0
H1874 H 0.59592 0.1682 0.46669 0.0
H1875 H 0.5592 0.12035 0.48179 0.0
C1876 C 0.5373 0.99596 0.64345 0.0
C1877 C 0.55875 0.99052 0.63543 0.0
C1878 C 0.52764 0.00981 0.61983 0.0
C1879 C 0.53898 0.01802 0.58759 0.0
C1880 C 0.55868 0.0097 0.57839 0.0
C1881 C 0.56847 0.99603 0.60209 0.0
C1882 C 0.53329 0.03963 0.56635 0.0
C1883 C 0.5538 0.06692 0.55692 0.0
C1884 C 0.50796 0.03553 0.55949 0.0
C1885 C 0.4858 0.0059 0.56519 0.0
C1886 C 0.48576 0.97927 0.55127 0.0
C1887 C 0.46467 0.95145 0.55593 0.0
C1888 C 0.44349 0.94992 0.57451 0.0
C1889 C 0.44337 0.97622 0.58851 0.0
C1890 C 0.46439 0.00413 0.58387 0.0
C1891 C 0.49714 0.13732 0.49479 0.0
C1892 C 0.50997 0.16507 0.51173 0.0
C1893 C 0.50162 0.11212 0.5037 0.0
C1894 C 0.51877 0.11422 0.52994 0.0
C1895 C 0.53073 0.14166 0.54771 0.0
C1896 C 0.5267 0.16693 0.53837 0.0
C1897 C 0.52424 0.08792 0.53914 0.0
C1898 C 0.50372 0.05992 0.54645 0.0
C1899 C 0.54966 0.09095 0.54296 0.0
C1900 C 0.57223 0.11909 0.53313 0.0
C1901 C 0.59198 0.13387 0.55659 0.0
C1902 C 0.61278 0.16089 0.54772 0.0
C1903 C 0.61408 0.17335 0.51544 0.0
C1904 C 0.59479 0.15859 0.49176 0.0
C1905 C 0.57398 0.13151 0.50046 0.0
H1906 H 0.62998 0.1945 0.50882 0.0
H1907 H 0.42716 0.92836 0.57804 0.0
loop_
_geom_bond_atom_site_label_1
_geom_bond_atom_site_label_2
_geom_bond_distance
_geom_bond_site_symmetry_2
_ccdc_geom_bond_type
Co0 O3 1.970 . S
Co0 N17 1.989 . S
Co0 O25 1.967 . S
Co0 O32 1.920 . S
Co1 O4 1.966 . S
Co1 N10 2.022 . S
Co1 N18 1.993 . S
Co1 O26 1.941 . S
C2 O3 1.258 . S
C2 O4 1.263 . S
O3 Co0 1.970 . S
O3 C2 1.258 . S
O4 Co1 1.966 . S
O4 C2 1.263 . S
C5 O6 1.235 . S
C5 O32 1.289 . S
O6 C5 1.235 . S
C7 C9 1.400 . S
C7 N10 1.351 . S
C7 C12 1.501 . S
C8 C9 1.387 . S
C8 N11 1.341 . S
C9 C7 1.400 . S
C9 C8 1.387 . S
N10 Co1 2.022 . S
N10 C7 1.351 . S
N10 N11 1.365 . S
N11 C8 1.341 . S
N11 N10 1.365 . S
N11 H31 0.862 . S
C12 C7 1.501 . S
C12 H13 0.961 . S
C12 H14 0.961 . S
C12 H15 0.960 . S
H13 C12 0.961 . S
H14 C12 0.961 . S
H15 C12 0.960 . S
C16 N17 1.342 . S
C16 C20 1.401 . S
C16 C21 1.499 . S
N17 Co0 1.989 . S
N17 C16 1.342 . S
N17 N18 1.388 . S
N18 Co1 1.993 . S
N18 N17 1.388 . S
N18 C19 1.346 . S
C19 N18 1.346 . S
C19 C20 1.396 . S
C19 C29 1.510 . S
C20 C16 1.401 . S
C20 C19 1.396 . S
C21 C16 1.499 . S
C21 H22 0.959 . S
C21 H23 0.960 . S
C21 H24 0.961 . S
H22 C21 0.959 . S
H23 C21 0.960 . S
H24 C21 0.961 . S
O25 Co0 1.967 . S
O25 C33 1.258 . S
O26 Co1 1.941 . S
O26 C33 1.266 . S
H27 C29 0.959 . S
H28 C29 0.961 . S
C29 C19 1.510 . S
C29 H27 0.959 . S
C29 H28 0.961 . S
C29 H30 0.960 . S
H30 C29 0.960 . S
H31 N11 0.862 . S
O32 Co0 1.920 . S
O32 C5 1.289 . S
C33 O25 1.258 . S
C33 O26 1.266 . S
Co34 O37 1.970 . S
Co34 N51 1.989 . S
Co34 O59 1.967 . S
Co34 O66 1.920 . S
Co35 O38 1.966 . S
Co35 N44 2.022 . S
Co35 N52 1.993 . S
Co35 O60 1.941 . S
C36 O37 1.258 . S
C36 O38 1.263 . S
O37 Co34 1.970 . S
O37 C36 1.258 . S
O38 Co35 1.966 . S
O38 C36 1.263 . S
C39 O40 1.235 . S
C39 O66 1.289 . S
O40 C39 1.235 . S
C41 C43 1.400 . S
C41 N44 1.351 . S
C41 C46 1.501 . S
C42 C43 1.387 . S
C42 N45 1.341 . S
C43 C41 1.400 . S
C43 C42 1.387 . S
N44 Co35 2.022 . S
N44 C41 1.351 . S
N44 N45 1.365 . S
N45 C42 1.341 . S
N45 N44 1.365 . S
N45 H65 0.862 . S
C46 C41 1.501 . S
C46 H47 0.961 . S
C46 H48 0.961 . S
C46 H49 0.960 . S
H47 C46 0.961 . S
H48 C46 0.961 . S
H49 C46 0.960 . S
C50 N51 1.342 . S
C50 C54 1.401 . S
C50 C55 1.499 . S
N51 Co34 1.989 . S
N51 C50 1.342 . S
N51 N52 1.388 . S
N52 Co35 1.993 . S
N52 N51 1.388 . S
N52 C53 1.346 . S
C53 N52 1.346 . S
C53 C54 1.396 . S
C53 C63 1.510 . S
C54 C50 1.401 . S
C54 C53 1.396 . S
C55 C50 1.499 . S
C55 H56 0.959 . S
C55 H57 0.960 . S
C55 H58 0.961 . S
H56 C55 0.959 . S
H57 C55 0.960 . S
H58 C55 0.961 . S
O59 Co34 1.967 . S
O59 C67 1.258 . S
O60 Co35 1.941 . S
O60 C67 1.266 . S
H61 C63 0.959 . S
H62 C63 0.961 . S
C63 C53 1.510 . S
C63 H61 0.959 . S
C63 H62 0.961 . S
C63 H64 0.960 . S
H64 C63 0.960 . S
H65 N45 0.862 . S
O66 Co34 1.920 . S
O66 C39 1.289 . S
C67 O59 1.258 . S
C67 O60 1.266 . S
Co68 O71 1.970 1_554 S
Co68 N85 1.989 . S
Co68 O93 1.967 1_554 S
Co68 O100 1.920 . S
Co69 O72 1.966 . S
Co69 N78 2.022 . S
Co69 N86 1.993 1_556 S
Co69 O94 1.941 . S
C70 O71 1.258 . S
C70 O72 1.263 . S
O71 Co68 1.970 1_556 S
O71 C70 1.258 . S
O72 Co69 1.966 . S
O72 C70 1.263 . S
C73 O74 1.235 . S
C73 O100 1.289 . S
O74 C73 1.235 . S
C75 C77 1.400 1_556 S
C75 N78 1.351 . S
C75 C80 1.501 . S
C76 C77 1.387 . S
C76 N79 1.341 1_554 S
C77 C75 1.400 1_554 S
C77 C76 1.387 . S
N78 Co69 2.022 . S
N78 C75 1.351 . S
N78 N79 1.365 . S
N79 C76 1.341 1_556 S
N79 N78 1.365 . S
N79 H99 0.862 . S
C80 C75 1.501 . S
C80 H81 0.961 . S
C80 H82 0.961 1_556 S
C80 H83 0.960 . S
H81 C80 0.961 . S
H82 C80 0.961 1_554 S
H83 C80 0.960 . S
C84 N85 1.342 . S
C84 C88 1.401 . S
C84 C89 1.499 . S
N85 Co68 1.989 . S
N85 C84 1.342 . S
N85 N86 1.388 . S
N86 Co69 1.993 1_554 S
N86 N85 1.388 . S
N86 C87 1.346 . S
C87 N86 1.346 . S
C87 C88 1.396 . S
C87 C97 1.510 . S
C88 C84 1.401 . S
C88 C87 1.396 . S
C89 C84 1.499 . S
C89 H90 0.959 . S
C89 H91 0.960 . S
C89 H92 0.961 . S
H90 C89 0.959 . S
H91 C89 0.960 . S
H92 C89 0.961 . S
O93 Co68 1.967 1_556 S
O93 C101 1.258 . S
O94 Co69 1.941 . S
O94 C101 1.266 . S
H95 C97 0.959 . S
H96 C97 0.961 . S
C97 C87 1.510 . S
C97 H95 0.959 . S
C97 H96 0.961 . S
C97 H98 0.960 . S
H98 C97 0.960 . S
H99 N79 0.862 . S
O100 Co68 1.920 . S
O100 C73 1.289 . S
C101 O93 1.258 . S
C101 O94 1.266 . S
Co102 O105 1.970 . S
Co102 N119 1.989 . S
Co102 O127 1.967 . S
Co102 O134 1.920 . S
Co103 O106 1.966 . S
Co103 N112 2.022 . S
Co103 N120 1.993 . S
Co103 O128 1.941 . S
C104 O105 1.258 . S
C104 O106 1.263 . S
O105 Co102 1.970 . S
O105 C104 1.258 . S
O106 Co103 1.966 . S
O106 C104 1.263 . S
C107 O108 1.235 . S
C107 O134 1.289 . S
O108 C107 1.235 . S
C109 C111 1.400 . S
C109 N112 1.351 . S
C109 C114 1.501 . S
C110 C111 1.387 . S
C110 N113 1.341 . S
C111 C109 1.400 . S
C111 C110 1.387 . S
N112 Co103 2.022 . S
N112 C109 1.351 . S
N112 N113 1.365 . S
N113 C110 1.341 . S
N113 N112 1.365 . S
N113 H133 0.862 . S
C114 C109 1.501 . S
C114 H115 0.961 . S
C114 H116 0.961 . S
C114 H117 0.960 . S
H115 C114 0.961 . S
H116 C114 0.961 . S
H117 C114 0.960 . S
C118 N119 1.342 . S
C118 C122 1.401 . S
C118 C123 1.499 . S
N119 Co102 1.989 . S
N119 C118 1.342 . S
N119 N120 1.388 . S
N120 Co103 1.993 . S
N120 N119 1.388 . S
N120 C121 1.346 . S
C121 N120 1.346 . S
C121 C122 1.396 . S
C121 C131 1.510 . S
C122 C118 1.401 . S
C122 C121 1.396 . S
C123 C118 1.499 . S
C123 H124 0.959 . S
C123 H125 0.960 . S
C123 H126 0.961 . S
H124 C123 0.959 . S
H125 C123 0.960 . S
H126 C123 0.961 . S
O127 Co102 1.967 . S
O127 C135 1.258 . S
O128 Co103 1.941 . S
O128 C135 1.266 . S
H129 C131 0.959 . S
H130 C131 0.961 . S
C131 C121 1.510 . S
C131 H129 0.959 . S
C131 H130 0.961 . S
C131 H132 0.960 . S
H132 C131 0.960 . S
H133 N113 0.862 . S
O134 Co102 1.920 . S
O134 C107 1.289 . S
C135 O127 1.258 . S
C135 O128 1.266 . S
Co136 O139 1.970 . S
Co136 N153 1.989 . S
Co136 O161 1.967 1_554 S
Co136 O168 1.920 . S
Co137 O140 1.966 . S
Co137 N146 2.022 . S
Co137 N154 1.993 . S
Co137 O162 1.941 . S
C138 O139 1.258 . S
C138 O140 1.263 1_554 S
O139 Co136 1.970 . S
O139 C138 1.258 . S
O140 Co137 1.966 . S
O140 C138 1.263 1_556 S
C141 O142 1.235 . S
C141 O168 1.289 . S
O142 C141 1.235 . S
C143 C145 1.400 . S
C143 N146 1.351 . S
C143 C148 1.501 . S
C144 C145 1.387 . S
C144 N147 1.341 . S
C145 C143 1.400 . S
C145 C144 1.387 . S
N146 Co137 2.022 . S
N146 C143 1.351 . S
N146 N147 1.365 . S
N147 C144 1.341 . S
N147 N146 1.365 . S
N147 H167 0.862 . S
C148 C143 1.501 . S
C148 H149 0.961 . S
C148 H150 0.961 . S
C148 H151 0.960 . S
H149 C148 0.961 . S
H150 C148 0.961 . S
H151 C148 0.960 . S
C152 N153 1.342 . S
C152 C156 1.401 . S
C152 C157 1.499 . S
N153 Co136 1.989 . S
N153 C152 1.342 . S
N153 N154 1.388 1_554 S
N154 Co137 1.993 . S
N154 N153 1.388 1_556 S
N154 C155 1.346 . S
C155 N154 1.346 . S
C155 C156 1.396 1_556 S
C155 C165 1.510 . S
C156 C152 1.401 . S
C156 C155 1.396 1_554 S
C157 C152 1.499 . S
C157 H158 0.959 . S
C157 H159 0.960 . S
C157 H160 0.961 . S
H158 C157 0.959 . S
H159 C157 0.960 . S
H160 C157 0.961 . S
O161 Co136 1.967 1_556 S
O161 C169 1.258 . S
O162 Co137 1.941 . S
O162 C169 1.266 . S
H163 C165 0.959 . S
H164 C165 0.961 . S
C165 C155 1.510 . S
C165 H163 0.959 . S
C165 H164 0.961 . S
C165 H166 0.960 . S
H166 C165 0.960 . S
H167 N147 0.862 . S
O168 Co136 1.920 . S
O168 C141 1.289 . S
C169 O161 1.258 . S
C169 O162 1.266 . S
Co170 O173 1.970 . S
Co170 N187 1.989 . S
Co170 O195 1.967 . S
Co170 O202 1.920 . S
Co171 O174 1.966 . S
Co171 N180 2.022 . S
Co171 N188 1.993 . S
Co171 O196 1.941 . S
C172 O173 1.258 . S
C172 O174 1.263 . S
O173 Co170 1.970 . S
O173 C172 1.258 . S
O174 Co171 1.966 . S
O174 C172 1.263 . S
C175 O176 1.235 . S
C175 O202 1.289 . S
O176 C175 1.235 . S
C177 C179 1.400 . S
C177 N180 1.351 . S
C177 C182 1.501 . S
C178 C179 1.387 . S
C178 N181 1.341 . S
C179 C177 1.400 . S
C179 C178 1.387 . S
N180 Co171 2.022 . S
N180 C177 1.351 . S
N180 N181 1.365 . S
N181 C178 1.341 . S
N181 N180 1.365 . S
N181 H201 0.862 . S
C182 C177 1.501 . S
C182 H183 0.961 . S
C182 H184 0.961 . S
C182 H185 0.960 . S
H183 C182 0.961 . S
H184 C182 0.961 . S
H185 C182 0.960 . S
C186 N187 1.342 . S
C186 C190 1.401 . S
C186 C191 1.499 . S
N187 Co170 1.989 . S
N187 C186 1.342 . S
N187 N188 1.388 . S
N188 Co171 1.993 . S
N188 N187 1.388 . S
N188 C189 1.346 . S
C189 N188 1.346 . S
C189 C190 1.396 . S
C189 C199 1.510 . S
C190 C186 1.401 . S
C190 C189 1.396 . S
C191 C186 1.499 . S
C191 H192 0.959 . S
C191 H193 0.960 . S
C191 H194 0.961 . S
H192 C191 0.959 . S
H193 C191 0.960 . S
H194 C191 0.961 . S
O195 Co170 1.967 . S
O195 C203 1.258 . S
O196 Co171 1.941 . S
O196 C203 1.266 . S
H197 C199 0.959 . S
H198 C199 0.961 . S
C199 C189 1.510 . S
C199 H197 0.959 . S
C199 H198 0.961 . S
C199 H200 0.960 . S
H200 C199 0.960 . S
H201 N181 0.862 . S
O202 Co170 1.920 . S
O202 C175 1.289 . S
C203 O195 1.258 . S
C203 O196 1.266 . S
Co204 O207 1.970 . S
Co204 N221 1.989 . S
Co204 O229 1.967 . S
Co204 O236 1.920 . S
Co205 O208 1.966 . S
Co205 N214 2.022 . S
Co205 N222 1.993 . S
Co205 O230 1.941 . S
C206 O207 1.258 . S
C206 O208 1.263 . S
O207 Co204 1.970 . S
O207 C206 1.258 . S
O208 Co205 1.966 . S
O208 C206 1.263 . S
C209 O210 1.235 . S
C209 O236 1.289 . S
O210 C209 1.235 . S
C211 C213 1.400 . S
C211 N214 1.351 . S
C211 C216 1.501 . S
C212 C213 1.387 . S
C212 N215 1.341 . S
C213 C211 1.400 . S
C213 C212 1.387 . S
N214 Co205 2.022 . S
N214 C211 1.351 . S
N214 N215 1.365 . S
N215 C212 1.341 . S
N215 N214 1.365 . S
N215 H235 0.862 . S
C216 C211 1.501 . S
C216 H217 0.961 . S
C216 H218 0.961 . S
C216 H219 0.960 . S
H217 C216 0.961 . S
H218 C216 0.961 . S
H219 C216 0.960 . S
C220 N221 1.342 . S
C220 C224 1.401 . S
C220 C225 1.499 . S
N221 Co204 1.989 . S
N221 C220 1.342 . S
N221 N222 1.388 . S
N222 Co205 1.993 . S
N222 N221 1.388 . S
N222 C223 1.346 . S
C223 N222 1.346 . S
C223 C224 1.396 . S
C223 C233 1.510 . S
C224 C220 1.401 . S
C224 C223 1.396 . S
C225 C220 1.499 . S
C225 H226 0.959 . S
C225 H227 0.960 . S
C225 H228 0.961 . S
H226 C225 0.959 . S
H227 C225 0.960 . S
H228 C225 0.961 . S
O229 Co204 1.967 . S
O229 C237 1.258 . S
O230 Co205 1.941 . S
O230 C237 1.266 . S
H231 C233 0.959 . S
H232 C233 0.961 . S
C233 C223 1.510 . S
C233 H231 0.959 . S
C233 H232 0.961 . S
C233 H234 0.960 . S
H234 C233 0.960 . S
H235 N215 0.862 . S
O236 Co204 1.920 . S
O236 C209 1.289 . S
C237 O229 1.258 . S
C237 O230 1.266 . S
Co238 O241 1.970 . S
Co238 N255 1.989 . S
Co238 O263 1.967 1_556 S
Co238 O270 1.920 . S
Co239 O242 1.966 . S
Co239 N248 2.022 . S
Co239 N256 1.993 . S
Co239 O264 1.941 . S
C240 O241 1.258 . S
C240 O242 1.263 1_556 S
O241 Co238 1.970 . S
O241 C240 1.258 . S
O242 Co239 1.966 . S
O242 C240 1.263 1_554 S
C243 O244 1.235 . S
C243 O270 1.289 . S
O244 C243 1.235 . S
C245 C247 1.400 . S
C245 N248 1.351 . S
C245 C250 1.501 . S
C246 C247 1.387 . S
C246 N249 1.341 . S
C247 C245 1.400 . S
C247 C246 1.387 . S
N248 Co239 2.022 . S
N248 C245 1.351 . S
N248 N249 1.365 . S
N249 C246 1.341 . S
N249 N248 1.365 . S
N249 H269 0.862 . S
C250 C245 1.501 . S
C250 H251 0.961 . S
C250 H252 0.961 . S
C250 H253 0.960 . S
H251 C250 0.961 . S
H252 C250 0.961 . S
H253 C250 0.960 . S
C254 N255 1.342 . S
C254 C258 1.401 . S
C254 C259 1.499 . S
N255 Co238 1.989 . S
N255 C254 1.342 . S
N255 N256 1.388 1_556 S
N256 Co239 1.993 . S
N256 N255 1.388 1_554 S
N256 C257 1.346 . S
C257 N256 1.346 . S
C257 C258 1.396 1_554 S
C257 C267 1.510 . S
C258 C254 1.401 . S
C258 C257 1.396 1_556 S
C259 C254 1.499 . S
C259 H260 0.959 . S
C259 H261 0.960 . S
C259 H262 0.961 . S
H260 C259 0.959 . S
H261 C259 0.960 . S
H262 C259 0.961 . S
O263 Co238 1.967 1_554 S
O263 C271 1.258 . S
O264 Co239 1.941 . S
O264 C271 1.266 . S
H265 C267 0.959 . S
H266 C267 0.961 . S
C267 C257 1.510 . S
C267 H265 0.959 . S
C267 H266 0.961 . S
C267 H268 0.960 . S
H268 C267 0.960 . S
H269 N249 0.862 . S
O270 Co238 1.920 . S
O270 C243 1.289 . S
C271 O263 1.258 . S
C271 O264 1.266 . S
Co272 O275 1.970 . S
Co272 N289 1.989 . S
Co272 O297 1.967 1_565 S
Co272 O304 1.920 . S
Co273 O276 1.966 . S
Co273 N282 2.022 . S
Co273 N290 1.993 . S
Co273 O298 1.941 . S
C274 O275 1.258 . S
C274 O276 1.263 . S
O275 Co272 1.970 . S
O275 C274 1.258 . S
O276 Co273 1.966 . S
O276 C274 1.263 . S
C277 O278 1.235 . S
C277 O304 1.289 . S
O278 C277 1.235 . S
C279 C281 1.400 . S
C279 N282 1.351 . S
C279 C284 1.501 . S
C280 C281 1.387 . S
C280 N283 1.341 . S
C281 C279 1.400 . S
C281 C280 1.387 . S
N282 Co273 2.022 . S
N282 C279 1.351 . S
N282 N283 1.365 . S
N283 C280 1.341 . S
N283 N282 1.365 . S
N283 H303 0.862 . S
C284 C279 1.501 . S
C284 H285 0.961 . S
C284 H286 0.961 . S
C284 H287 0.960 . S
H285 C284 0.961 . S
H286 C284 0.961 . S
H287 C284 0.960 . S
C288 N289 1.342 . S
C288 C292 1.401 . S
C288 C293 1.499 . S
N289 Co272 1.989 . S
N289 C288 1.342 . S
N289 N290 1.388 . S
N290 Co273 1.993 . S
N290 N289 1.388 . S
N290 C291 1.346 . S
C291 N290 1.346 . S
C291 C292 1.396 . S
C291 C301 1.510 . S
C292 C288 1.401 . S
C292 C291 1.396 . S
C293 C288 1.499 . S
C293 H294 0.959 . S
C293 H295 0.960 . S
C293 H296 0.961 . S
H294 C293 0.959 . S
H295 C293 0.960 . S
H296 C293 0.961 . S
O297 Co272 1.967 1_545 S
O297 C305 1.258 . S
O298 Co273 1.941 . S
O298 C305 1.266 1_565 S
H299 C301 0.959 . S
H300 C301 0.961 . S
C301 C291 1.510 . S
C301 H299 0.959 . S
C301 H300 0.961 . S
C301 H302 0.960 . S
H302 C301 0.960 . S
H303 N283 0.862 . S
O304 Co272 1.920 . S
O304 C277 1.289 . S
C305 O297 1.258 . S
C305 O298 1.266 1_545 S
Co306 O309 1.970 1_556 S
Co306 N323 1.989 . S
Co306 O331 1.967 1_556 S
Co306 O338 1.920 . S
Co307 O310 1.966 . S
Co307 N316 2.022 . S
Co307 N324 1.993 1_554 S
Co307 O332 1.941 . S
C308 O309 1.258 . S
C308 O310 1.263 . S
O309 Co306 1.970 1_554 S
O309 C308 1.258 . S
O310 Co307 1.966 . S
O310 C308 1.263 . S
C311 O312 1.235 . S
C311 O338 1.289 . S
O312 C311 1.235 . S
C313 C315 1.400 1_554 S
C313 N316 1.351 . S
C313 C318 1.501 . S
C314 C315 1.387 . S
C314 N317 1.341 1_556 S
C315 C313 1.400 1_556 S
C315 C314 1.387 . S
N316 Co307 2.022 . S
N316 C313 1.351 . S
N316 N317 1.365 . S
N317 C314 1.341 1_554 S
N317 N316 1.365 . S
N317 H337 0.862 . S
C318 C313 1.501 . S
C318 H319 0.961 . S
C318 H320 0.961 1_554 S
C318 H321 0.960 . S
H319 C318 0.961 . S
H320 C318 0.961 1_556 S
H321 C318 0.960 . S
C322 N323 1.342 . S
C322 C326 1.401 . S
C322 C327 1.499 . S
N323 Co306 1.989 . S
N323 C322 1.342 . S
N323 N324 1.388 . S
N324 Co307 1.993 1_556 S
N324 N323 1.388 . S
N324 C325 1.346 . S
C325 N324 1.346 . S
C325 C326 1.396 . S
C325 C335 1.510 . S
C326 C322 1.401 . S
C326 C325 1.396 . S
C327 C322 1.499 . S
C327 H328 0.959 . S
C327 H329 0.960 . S
C327 H330 0.961 . S
H328 C327 0.959 . S
H329 C327 0.960 . S
H330 C327 0.961 . S
O331 Co306 1.967 1_554 S
O331 C339 1.258 . S
O332 Co307 1.941 . S
O332 C339 1.266 . S
H333 C335 0.959 . S
H334 C335 0.961 . S
C335 C325 1.510 . S
C335 H333 0.959 . S
C335 H334 0.961 . S
C335 H336 0.960 . S
H336 C335 0.960 . S
H337 N317 0.862 . S
O338 Co306 1.920 . S
O338 C311 1.289 . S
C339 O331 1.258 . S
C339 O332 1.266 . S
Co340 O343 1.970 . S
Co340 N357 1.989 . S
Co340 O365 1.967 . S
Co340 O372 1.920 . S
Co341 O344 1.966 . S
Co341 N350 2.022 . S
Co341 N358 1.993 . S
Co341 O366 1.941 . S
C342 O343 1.258 . S
C342 O344 1.263 . S
O343 Co340 1.970 . S
O343 C342 1.258 . S
O344 Co341 1.966 . S
O344 C342 1.263 . S
C345 O346 1.235 . S
C345 O372 1.289 . S
O346 C345 1.235 . S
C347 C349 1.400 . S
C347 N350 1.351 . S
C347 C352 1.501 . S
C348 C349 1.387 . S
C348 N351 1.341 . S
C349 C347 1.400 . S
C349 C348 1.387 . S
N350 Co341 2.022 . S
N350 C347 1.351 . S
N350 N351 1.365 . S
N351 C348 1.341 . S
N351 N350 1.365 . S
N351 H371 0.862 . S
C352 C347 1.501 . S
C352 H353 0.961 . S
C352 H354 0.961 . S
C352 H355 0.960 . S
H353 C352 0.961 . S
H354 C352 0.961 . S
H355 C352 0.960 . S
C356 N357 1.342 . S
C356 C360 1.401 . S
C356 C361 1.499 . S
N357 Co340 1.989 . S
N357 C356 1.342 . S
N357 N358 1.388 . S
N358 Co341 1.993 . S
N358 N357 1.388 . S
N358 C359 1.346 . S
C359 N358 1.346 . S
C359 C360 1.396 . S
C359 C369 1.510 . S
C360 C356 1.401 . S
C360 C359 1.396 . S
C361 C356 1.499 . S
C361 H362 0.959 . S
C361 H363 0.960 . S
C361 H364 0.961 . S
H362 C361 0.959 . S
H363 C361 0.960 . S
H364 C361 0.961 . S
O365 Co340 1.967 . S
O365 C373 1.258 . S
O366 Co341 1.941 . S
O366 C373 1.266 . S
H367 C369 0.959 . S
H368 C369 0.961 . S
C369 C359 1.510 . S
C369 H367 0.959 . S
C369 H368 0.961 . S
C369 H370 0.960 . S
H370 C369 0.960 . S
H371 N351 0.862 . S
O372 Co340 1.920 . S
O372 C345 1.289 . S
C373 O365 1.258 . S
C373 O366 1.266 . S
Co374 O377 1.970 . S
Co374 N391 1.989 . S
Co374 O399 1.967 1_545 S
Co374 O406 1.920 . S
Co375 O378 1.966 . S
Co375 N384 2.022 . S
Co375 N392 1.993 . S
Co375 O400 1.941 1_545 S
C376 O377 1.258 . S
C376 O378 1.263 . S
O377 Co374 1.970 . S
O377 C376 1.258 . S
O378 Co375 1.966 . S
O378 C376 1.263 . S
C379 O380 1.235 . S
C379 O406 1.289 . S
O380 C379 1.235 . S
C381 C383 1.400 . S
C381 N384 1.351 . S
C381 C386 1.501 . S
C382 C383 1.387 . S
C382 N385 1.341 . S
C383 C381 1.400 . S
C383 C382 1.387 . S
N384 Co375 2.022 . S
N384 C381 1.351 . S
N384 N385 1.365 . S
N385 C382 1.341 . S
N385 N384 1.365 . S
N385 H405 0.862 . S
C386 C381 1.501 . S
C386 H387 0.961 . S
C386 H388 0.961 . S
C386 H389 0.960 . S
H387 C386 0.961 . S
H388 C386 0.961 . S
H389 C386 0.960 . S
C390 N391 1.342 . S
C390 C394 1.401 . S
C390 C395 1.499 . S
N391 Co374 1.989 . S
N391 C390 1.342 . S
N391 N392 1.388 . S
N392 Co375 1.993 . S
N392 N391 1.388 . S
N392 C393 1.346 . S
C393 N392 1.346 . S
C393 C394 1.396 . S
C393 C403 1.510 . S
C394 C390 1.401 . S
C394 C393 1.396 . S
C395 C390 1.499 . S
C395 H396 0.959 . S
C395 H397 0.960 . S
C395 H398 0.961 . S
H396 C395 0.959 . S
H397 C395 0.960 . S
H398 C395 0.961 . S
O399 Co374 1.967 1_565 S
O399 C407 1.258 . S
O400 Co375 1.941 1_565 S
O400 C407 1.266 . S
H401 C403 0.959 . S
H402 C403 0.961 . S
C403 C393 1.510 . S
C403 H401 0.959 . S
C403 H402 0.961 . S
C403 H404 0.960 . S
H404 C403 0.960 . S
H405 N385 0.862 . S
O406 Co374 1.920 . S
O406 C379 1.289 . S
C407 O399 1.258 . S
C407 O400 1.266 . S
H408 C426 0.951 . S
H409 C428 0.951 . S
H410 C430 0.950 . S
H411 C431 0.950 . S
H412 C433 0.950 . S
H413 C436 0.950 . S
H414 C437 0.950 . S
H415 C439 0.950 . S
H416 C440 0.950 . S
H417 C441 0.951 . S
H418 C443 0.951 . S
H419 C445 0.950 . S
H420 C446 0.950 . S
H421 C448 0.950 . S
H422 C451 0.950 . S
H423 C452 0.950 . S
H424 C454 0.950 . S
H425 C455 0.950 . S
C426 H408 0.951 . S
C426 C427 1.366 . S
C426 C428 1.388 . S
C427 C426 1.366 . S
C427 C431 1.385 . S
C428 H409 0.951 . S
C428 C426 1.388 . S
C428 C429 1.366 . S
C429 C428 1.366 . S
C429 C430 1.414 . S
C429 C432 1.499 . S
C430 H410 0.950 . S
C430 C429 1.414 . S
C430 C431 1.374 . S
C431 H411 0.950 . S
C431 C427 1.385 . S
C431 C430 1.374 . S
C432 C429 1.499 . S
C432 C433 1.373 . S
C432 C434 1.389 . S
C433 H412 0.950 . S
C433 C432 1.373 . S
C433 C449 1.377 . S
C434 C432 1.389 . S
C434 C435 1.524 . S
C434 C448 1.377 . S
C435 C434 1.524 . S
C435 C436 1.397 . S
C435 C440 1.363 . S
C436 H413 0.950 . S
C436 C435 1.397 . S
C436 C437 1.334 . S
C437 H414 0.950 . S
C437 C436 1.334 . S
C437 C438 1.287 . S
C438 C437 1.287 . S
C438 C439 1.524 . S
C438 H457 0.913 . S
C439 H415 0.950 . S
C439 C438 1.524 . S
C439 C440 1.415 . S
C440 H416 0.950 . S
C440 C435 1.363 . S
C440 C439 1.415 . S
C441 H417 0.951 . S
C441 C442 1.366 . S
C441 C443 1.388 . S
C442 C441 1.366 . S
C442 C446 1.385 . S
C443 H418 0.951 . S
C443 C441 1.388 . S
C443 C444 1.366 . S
C444 C443 1.366 . S
C444 C445 1.414 . S
C444 C447 1.499 . S
C445 H419 0.950 . S
C445 C444 1.414 . S
C445 C446 1.374 . S
C446 H420 0.950 . S
C446 C442 1.385 . S
C446 C445 1.374 . S
C447 C444 1.499 . S
C447 C448 1.373 . S
C447 C449 1.389 . S
C448 H421 0.950 . S
C448 C434 1.377 . S
C448 C447 1.373 . S
C449 C433 1.377 . S
C449 C447 1.389 . S
C449 C450 1.524 . S
C450 C449 1.524 . S
C450 C451 1.397 . S
C450 C455 1.363 . S
C451 H422 0.950 . S
C451 C450 1.397 . S
C451 C452 1.334 . S
C452 H423 0.950 . S
C452 C451 1.334 . S
C452 C453 1.287 . S
C453 C452 1.287 . S
C453 C454 1.524 . S
C453 H456 0.999 . S
C454 H424 0.950 . S
C454 C453 1.524 . S
C454 C455 1.415 . S
C455 H425 0.950 . S
C455 C450 1.363 . S
C455 C454 1.415 . S
H456 C453 0.999 . S
H457 C438 0.913 . S
H458 C476 0.951 . S
H459 C478 0.951 . S
H460 C480 0.950 . S
H461 C481 0.950 . S
H462 C483 0.950 . S
H463 C486 0.950 . S
H464 C487 0.950 . S
H465 C489 0.950 . S
H466 C490 0.950 . S
H467 C491 0.951 . S
H468 C493 0.951 . S
H469 C495 0.950 . S
H470 C496 0.950 . S
H471 C498 0.950 . S
H472 C501 0.950 . S
H473 C502 0.950 . S
H474 C504 0.950 . S
H475 C505 0.950 . S
C476 H458 0.951 . S
C476 C477 1.366 . S
C476 C478 1.388 . S
C477 C476 1.366 . S
C477 C481 1.385 . S
C478 H459 0.951 . S
C478 C476 1.388 . S
C478 C479 1.366 . S
C479 C478 1.366 . S
C479 C480 1.414 . S
C479 C482 1.499 . S
C480 H460 0.950 . S
C480 C479 1.414 . S
C480 C481 1.374 . S
C481 H461 0.950 . S
C481 C477 1.385 . S
C481 C480 1.374 . S
C482 C479 1.499 . S
C482 C483 1.373 . S
C482 C484 1.389 . S
C483 H462 0.950 . S
C483 C482 1.373 . S
C483 C499 1.377 1_655 S
C484 C482 1.389 . S
C484 C485 1.524 . S
C484 C498 1.377 1_655 S
C485 C484 1.524 . S
C485 C486 1.397 . S
C485 C490 1.363 . S
C486 H463 0.950 . S
C486 C485 1.397 . S
C486 C487 1.334 . S
C487 H464 0.950 . S
C487 C486 1.334 . S
C487 C488 1.287 . S
C488 C487 1.287 . S
C488 C489 1.524 . S
C488 H507 0.913 . S
C489 H465 0.950 . S
C489 C488 1.524 . S
C489 C490 1.415 . S
C490 H466 0.950 . S
C490 C485 1.363 . S
C490 C489 1.415 . S
C491 H467 0.951 . S
C491 C492 1.366 . S
C491 C493 1.388 . S
C492 C491 1.366 . S
C492 C496 1.385 . S
C493 H468 0.951 . S
C493 C491 1.388 . S
C493 C494 1.366 . S
C494 C493 1.366 . S
C494 C495 1.414 . S
C494 C497 1.499 . S
C495 H469 0.950 . S
C495 C494 1.414 . S
C495 C496 1.374 . S
C496 H470 0.950 . S
C496 C492 1.385 . S
C496 C495 1.374 . S
C497 C494 1.499 . S
C497 C498 1.373 . S
C497 C499 1.389 . S
C498 H471 0.950 . S
C498 C484 1.377 1_455 S
C498 C497 1.373 . S
C499 C483 1.377 1_455 S
C499 C497 1.389 . S
C499 C500 1.524 . S
C500 C499 1.524 . S
C500 C501 1.397 . S
C500 C505 1.363 . S
C501 H472 0.950 . S
C501 C500 1.397 . S
C501 C502 1.334 . S
C502 H473 0.950 . S
C502 C501 1.334 . S
C502 C503 1.287 . S
C503 C502 1.287 . S
C503 C504 1.524 . S
C503 H506 0.999 . S
C504 H474 0.950 . S
C504 C503 1.524 . S
C504 C505 1.415 . S
C505 H475 0.950 . S
C505 C500 1.363 . S
C505 C504 1.415 . S
H506 C503 0.999 . S
H507 C488 0.913 . S
H508 C526 0.951 . S
H509 C528 0.951 . S
H510 C530 0.950 . S
H511 C531 0.950 . S
H512 C533 0.950 . S
H513 C536 0.950 . S
H514 C537 0.950 . S
H515 C539 0.950 . S
H516 C540 0.950 . S
H517 C541 0.951 . S
H518 C543 0.951 . S
H519 C545 0.950 . S
H520 C546 0.950 . S
H521 C548 0.950 . S
H522 C551 0.950 . S
H523 C552 0.950 . S
H524 C554 0.950 . S
H525 C555 0.950 . S
C526 H508 0.951 . S
C526 C527 1.366 . S
C526 C528 1.388 . S
C527 C526 1.366 . S
C527 C531 1.385 . S
C528 H509 0.951 . S
C528 C526 1.388 . S
C528 C529 1.366 . S
C529 C528 1.366 . S
C529 C530 1.414 . S
C529 C532 1.499 . S
C530 H510 0.950 . S
C530 C529 1.414 . S
C530 C531 1.374 . S
C531 H511 0.950 . S
C531 C527 1.385 . S
C531 C530 1.374 . S
C532 C529 1.499 . S
C532 C533 1.373 . S
C532 C534 1.389 . S
C533 H512 0.950 . S
C533 C532 1.373 . S
C533 C549 1.377 . S
C534 C532 1.389 . S
C534 C535 1.524 . S
C534 C548 1.377 . S
C535 C534 1.524 . S
C535 C536 1.397 . S
C535 C540 1.363 . S
C536 H513 0.950 . S
C536 C535 1.397 . S
C536 C537 1.334 . S
C537 H514 0.950 . S
C537 C536 1.334 . S
C537 C538 1.287 . S
C538 C537 1.287 . S
C538 C539 1.524 . S
C538 H557 0.913 . S
C539 H515 0.950 . S
C539 C538 1.524 . S
C539 C540 1.415 . S
C540 H516 0.950 . S
C540 C535 1.363 . S
C540 C539 1.415 . S
C541 H517 0.951 . S
C541 C542 1.366 . S
C541 C543 1.388 . S
C542 C541 1.366 . S
C542 C546 1.385 . S
C543 H518 0.951 . S
C543 C541 1.388 . S
C543 C544 1.366 . S
C544 C543 1.366 . S
C544 C545 1.414 . S
C544 C547 1.499 . S
C545 H519 0.950 . S
C545 C544 1.414 . S
C545 C546 1.374 . S
C546 H520 0.950 . S
C546 C542 1.385 . S
C546 C545 1.374 . S
C547 C544 1.499 . S
C547 C548 1.373 . S
C547 C549 1.389 . S
C548 H521 0.950 . S
C548 C534 1.377 . S
C548 C547 1.373 . S
C549 C533 1.377 . S
C549 C547 1.389 . S
C549 C550 1.524 . S
C550 C549 1.524 . S
C550 C551 1.397 . S
C550 C555 1.363 . S
C551 H522 0.950 . S
C551 C550 1.397 . S
C551 C552 1.334 . S
C552 H523 0.950 . S
C552 C551 1.334 . S
C552 C553 1.287 . S
C553 C552 1.287 . S
C553 C554 1.524 . S
C553 H556 0.999 . S
C554 H524 0.950 . S
C554 C553 1.524 . S
C554 C555 1.415 . S
C555 H525 0.950 . S
C555 C550 1.363 . S
C555 C554 1.415 . S
H556 C553 0.999 . S
H557 C538 0.913 . S
H558 C576 0.951 . S
H559 C578 0.951 . S
H560 C580 0.950 . S
H561 C581 0.950 . S
H562 C583 0.950 . S
H563 C586 0.950 . S
H564 C587 0.950 . S
H565 C589 0.950 . S
H566 C590 0.950 . S
H567 C591 0.951 . S
H568 C593 0.951 . S
H569 C595 0.950 . S
H570 C596 0.950 . S
H571 C598 0.950 . S
H572 C601 0.950 . S
H573 C602 0.950 . S
H574 C604 0.950 . S
H575 C605 0.950 . S
C576 H558 0.951 . S
C576 C577 1.366 . S
C576 C578 1.388 . S
C577 C576 1.366 . S
C577 C581 1.385 . S
C578 H559 0.951 . S
C578 C576 1.388 . S
C578 C579 1.366 . S
C579 C578 1.366 . S
C579 C580 1.414 . S
C579 C582 1.499 . S
C580 H560 0.950 . S
C580 C579 1.414 . S
C580 C581 1.374 . S
C581 H561 0.950 . S
C581 C577 1.385 . S
C581 C580 1.374 . S
C582 C579 1.499 . S
C582 C583 1.373 . S
C582 C584 1.389 . S
C583 H562 0.950 . S
C583 C582 1.373 . S
C583 C599 1.377 . S
C584 C582 1.389 . S
C584 C585 1.524 . S
C584 C598 1.377 . S
C585 C584 1.524 . S
C585 C586 1.397 . S
C585 C590 1.363 . S
C586 H563 0.950 . S
C586 C585 1.397 . S
C586 C587 1.334 . S
C587 H564 0.950 . S
C587 C586 1.334 . S
C587 C588 1.287 . S
C588 C587 1.287 . S
C588 C589 1.524 . S
C588 H607 0.913 . S
C589 H565 0.950 . S
C589 C588 1.524 . S
C589 C590 1.415 . S
C590 H566 0.950 . S
C590 C585 1.363 . S
C590 C589 1.415 . S
C591 H567 0.951 . S
C591 C592 1.366 . S
C591 C593 1.388 . S
C592 C591 1.366 . S
C592 C596 1.385 . S
C593 H568 0.951 . S
C593 C591 1.388 . S
C593 C594 1.366 . S
C594 C593 1.366 . S
C594 C595 1.414 . S
C594 C597 1.499 . S
C595 H569 0.950 . S
C595 C594 1.414 . S
C595 C596 1.374 . S
C596 H570 0.950 . S
C596 C592 1.385 . S
C596 C595 1.374 . S
C597 C594 1.499 . S
C597 C598 1.373 . S
C597 C599 1.389 . S
C598 H571 0.950 . S
C598 C584 1.377 . S
C598 C597 1.373 . S
C599 C583 1.377 . S
C599 C597 1.389 . S
C599 C600 1.524 . S
C600 C599 1.524 . S
C600 C601 1.397 . S
C600 C605 1.363 . S
C601 H572 0.950 . S
C601 C600 1.397 . S
C601 C602 1.334 . S
C602 H573 0.950 . S
C602 C601 1.334 . S
C602 C603 1.287 . S
C603 C602 1.287 . S
C603 C604 1.524 . S
C603 H606 0.999 . S
C604 H574 0.950 . S
C604 C603 1.524 . S
C604 C605 1.415 . S
C605 H575 0.950 . S
C605 C600 1.363 . S
C605 C604 1.415 . S
H606 C603 0.999 . S
H607 C588 0.913 . S
H608 C626 0.951 . S
H609 C628 0.951 1_554 S
H610 C630 0.950 . S
H611 C631 0.950 . S
H612 C633 0.950 . S
H613 C636 0.950 . S
H614 C637 0.950 . S
H615 C639 0.950 . S
H616 C640 0.950 . S
H617 C641 0.951 . S
H618 C643 0.951 1_556 S
H619 C645 0.950 . S
H620 C646 0.950 . S
H621 C648 0.950 . S
H622 C651 0.950 . S
H623 C652 0.950 . S
H624 C654 0.950 . S
H625 C655 0.950 . S
C626 H608 0.951 . S
C626 C627 1.366 . S
C626 C628 1.388 . S
C627 C626 1.366 . S
C627 C631 1.385 . S
C628 H609 0.951 1_556 S
C628 C626 1.388 . S
C628 C629 1.366 . S
C629 C628 1.366 . S
C629 C630 1.414 . S
C629 C632 1.499 . S
C630 H610 0.950 . S
C630 C629 1.414 . S
C630 C631 1.374 . S
C631 H611 0.950 . S
C631 C627 1.385 . S
C631 C630 1.374 . S
C632 C629 1.499 . S
C632 C633 1.373 . S
C632 C634 1.389 . S
C633 H612 0.950 . S
C633 C632 1.373 . S
C633 C649 1.377 1_456 S
C634 C632 1.389 . S
C634 C635 1.524 . S
C634 C648 1.377 1_456 S
C635 C634 1.524 . S
C635 C636 1.397 . S
C635 C640 1.363 1_556 S
C636 H613 0.950 . S
C636 C635 1.397 . S
C636 C637 1.334 . S
C637 H614 0.950 . S
C637 C636 1.334 . S
C637 C638 1.287 . S
C638 C637 1.287 . S
C638 C639 1.524 1_556 S
C638 H657 0.913 . S
C639 H615 0.950 . S
C639 C638 1.524 1_554 S
C639 C640 1.415 . S
C640 H616 0.950 . S
C640 C635 1.363 1_554 S
C640 C639 1.415 . S
C641 H617 0.951 . S
C641 C642 1.366 . S
C641 C643 1.388 . S
C642 C641 1.366 . S
C642 C646 1.385 . S
C643 H618 0.951 1_554 S
C643 C641 1.388 . S
C643 C644 1.366 . S
C644 C643 1.366 . S
C644 C645 1.414 . S
C644 C647 1.499 . S
C645 H619 0.950 . S
C645 C644 1.414 . S
C645 C646 1.374 . S
C646 H620 0.950 . S
C646 C642 1.385 . S
C646 C645 1.374 . S
C647 C644 1.499 . S
C647 C648 1.373 . S
C647 C649 1.389 . S
C648 H621 0.950 . S
C648 C634 1.377 1_654 S
C648 C647 1.373 . S
C649 C633 1.377 1_654 S
C649 C647 1.389 . S
C649 C650 1.524 . S
C650 C649 1.524 . S
C650 C651 1.397 . S
C650 C655 1.363 1_554 S
C651 H622 0.950 . S
C651 C650 1.397 . S
C651 C652 1.334 . S
C652 H623 0.950 . S
C652 C651 1.334 . S
C652 C653 1.287 . S
C653 C652 1.287 . S
C653 C654 1.524 1_554 S
C653 H656 0.999 . S
C654 H624 0.950 . S
C654 C653 1.524 1_556 S
C654 C655 1.415 . S
C655 H625 0.950 . S
C655 C650 1.363 1_556 S
C655 C654 1.415 . S
H656 C653 0.999 . S
H657 C638 0.913 . S
H658 C676 0.983 . S
H659 C678 0.951 . S
H660 C680 0.950 . S
H661 C681 0.950 . S
H662 C683 0.950 . S
H663 C686 0.950 . S
H664 C687 0.950 . S
H665 C689 0.950 . S
H666 C690 0.950 . S
H667 C691 0.951 . S
H668 C693 0.951 . S
H669 C695 0.950 . S
H670 C696 0.950 . S
H671 C698 0.950 . S
H672 C701 0.950 . S
H673 C702 0.950 . S
H674 C704 0.950 . S
H675 C705 0.950 . S
C676 H658 0.983 . S
C676 C677 1.366 . S
C676 C678 1.388 . S
C677 C676 1.366 . S
C677 C681 1.385 . S
C678 H659 0.951 . S
C678 C676 1.388 . S
C678 C679 1.366 . S
C679 C678 1.366 . S
C679 C680 1.414 . S
C679 C682 1.499 . S
C680 H660 0.950 . S
C680 C679 1.414 . S
C680 C681 1.374 . S
C681 H661 0.950 . S
C681 C677 1.385 . S
C681 C680 1.374 . S
C682 C679 1.499 . S
C682 C683 1.373 . S
C682 C684 1.389 . S
C683 H662 0.950 . S
C683 C682 1.373 . S
C683 C699 1.377 . S
C684 C682 1.389 . S
C684 C685 1.524 . S
C684 C698 1.377 . S
C685 C684 1.524 . S
C685 C686 1.397 . S
C685 C690 1.363 . S
C686 H663 0.950 . S
C686 C685 1.397 . S
C686 C687 1.334 . S
C687 H664 0.950 . S
C687 C686 1.334 . S
C687 C688 1.287 . S
C688 C687 1.287 . S
C688 C689 1.524 . S
C688 H707 0.913 1_545 S
C689 H665 0.950 . S
C689 C688 1.524 . S
C689 C690 1.415 . S
C690 H666 0.950 . S
C690 C685 1.363 . S
C690 C689 1.415 . S
C691 H667 0.951 . S
C691 C692 1.366 . S
C691 C693 1.388 . S
C692 C691 1.366 . S
C692 C696 1.385 . S
C693 H668 0.951 . S
C693 C691 1.388 . S
C693 C694 1.366 . S
C694 C693 1.366 . S
C694 C695 1.414 . S
C694 C697 1.499 . S
C695 H669 0.950 . S
C695 C694 1.414 . S
C695 C696 1.374 . S
C696 H670 0.950 . S
C696 C692 1.385 . S
C696 C695 1.374 . S
C697 C694 1.499 . S
C697 C698 1.373 . S
C697 C699 1.389 . S
C698 H671 0.950 . S
C698 C684 1.377 . S
C698 C697 1.373 . S
C699 C683 1.377 . S
C699 C697 1.389 . S
C699 C700 1.524 . S
C700 C699 1.524 . S
C700 C701 1.397 . S
C700 C705 1.363 . S
C701 H672 0.950 . S
C701 C700 1.397 . S
C701 C702 1.334 . S
C702 H673 0.950 . S
C702 C701 1.334 . S
C702 C703 1.287 . S
C703 C702 1.287 . S
C703 C704 1.524 . S
C703 H706 0.999 . S
C704 H674 0.950 . S
C704 C703 1.524 . S
C704 C705 1.415 . S
C705 H675 0.950 . S
C705 C700 1.363 . S
C705 C704 1.415 . S
H706 C703 0.999 . S
H707 C688 0.913 1_565 S
H708 C726 0.951 . S
H709 C728 0.951 . S
H710 C730 0.950 . S
H711 C731 0.950 . S
H712 C733 0.950 . S
H713 C736 0.950 . S
H714 C737 0.950 . S
H715 C739 0.950 . S
H716 C740 0.950 . S
H717 C741 0.951 1_556 S
H718 C743 0.951 . S
H719 C745 0.950 . S
H720 C746 0.950 . S
H721 C748 0.950 . S
H722 C751 0.950 . S
H723 C752 0.950 . S
H724 C754 0.950 . S
H725 C755 0.950 1_554 S
C726 H708 0.951 . S
C726 C727 1.366 . S
C726 C728 1.388 . S
C727 C726 1.366 . S
C727 C731 1.385 . S
C728 H709 0.951 . S
C728 C726 1.388 . S
C728 C729 1.366 . S
C729 C728 1.366 . S
C729 C730 1.414 . S
C729 C732 1.499 . S
C730 H710 0.950 . S
C730 C729 1.414 . S
C730 C731 1.374 . S
C731 H711 0.950 . S
C731 C727 1.385 . S
C731 C730 1.374 . S
C732 C729 1.499 . S
C732 C733 1.373 . S
C732 C734 1.389 . S
C733 H712 0.950 . S
C733 C732 1.373 . S
C733 C749 1.377 . S
C734 C732 1.389 . S
C734 C735 1.524 . S
C734 C748 1.377 . S
C735 C734 1.524 . S
C735 C736 1.397 . S
C735 C740 1.363 . S
C736 H713 0.950 . S
C736 C735 1.397 . S
C736 C737 1.334 . S
C737 H714 0.950 . S
C737 C736 1.334 . S
C737 C738 1.287 . S
C738 C737 1.287 . S
C738 C739 1.524 . S
C738 H757 0.913 . S
C739 H715 0.950 . S
C739 C738 1.524 . S
C739 C740 1.415 . S
C740 H716 0.950 . S
C740 C735 1.363 . S
C740 C739 1.415 . S
C741 H717 0.951 1_554 S
C741 C742 1.366 . S
C741 C743 1.388 . S
C742 C741 1.366 . S
C742 C746 1.385 . S
C743 H718 0.951 . S
C743 C741 1.388 . S
C743 C744 1.366 . S
C744 C743 1.366 . S
C744 C745 1.414 . S
C744 C747 1.499 . S
C745 H719 0.950 . S
C745 C744 1.414 . S
C745 C746 1.374 . S
C746 H720 0.950 . S
C746 C742 1.385 . S
C746 C745 1.374 . S
C747 C744 1.499 . S
C747 C748 1.373 . S
C747 C749 1.389 . S
C748 H721 0.950 . S
C748 C734 1.377 . S
C748 C747 1.373 . S
C749 C733 1.377 . S
C749 C747 1.389 . S
C749 C750 1.524 . S
C750 C749 1.524 . S
C750 C751 1.397 . S
C750 C755 1.363 1_554 S
C751 H722 0.950 . S
C751 C750 1.397 . S
C751 C752 1.334 1_554 S
C752 H723 0.950 . S
C752 C751 1.334 1_556 S
C752 C753 1.287 . S
C753 C752 1.287 . S
C753 C754 1.524 . S
C753 H756 0.999 . S
C754 H724 0.950 . S
C754 C753 1.524 . S
C754 C755 1.415 . S
C755 H725 0.950 1_556 S
C755 C750 1.363 1_556 S
C755 C754 1.415 . S
H756 C753 0.999 . S
H757 C738 0.913 . S
H758 C776 0.951 . S
H759 C778 0.951 . S
H760 C780 0.950 . S
H761 C781 0.950 . S
H762 C783 0.950 . S
H763 C786 0.950 . S
H764 C787 0.950 . S
H765 C789 0.950 . S
H766 C790 0.950 . S
H767 C791 0.951 . S
H768 C793 0.951 . S
H769 C795 0.950 . S
H770 C796 0.950 . S
H771 C798 0.950 . S
H772 C801 0.950 . S
H773 C802 0.950 . S
H774 C804 0.950 . S
H775 C805 0.950 . S
C776 H758 0.951 . S
C776 C777 1.366 . S
C776 C778 1.388 . S
C777 C776 1.366 . S
C777 C781 1.385 . S
C778 H759 0.951 . S
C778 C776 1.388 . S
C778 C779 1.366 . S
C779 C778 1.366 . S
C779 C780 1.414 . S
C779 C782 1.499 . S
C780 H760 0.950 . S
C780 C779 1.414 . S
C780 C781 1.374 . S
C781 H761 0.950 . S
C781 C777 1.385 . S
C781 C780 1.374 . S
C782 C779 1.499 . S
C782 C783 1.373 . S
C782 C784 1.389 . S
C783 H762 0.950 . S
C783 C782 1.373 . S
C783 C799 1.377 . S
C784 C782 1.389 . S
C784 C785 1.524 . S
C784 C798 1.377 . S
C785 C784 1.524 . S
C785 C786 1.397 . S
C785 C790 1.363 . S
C786 H763 0.950 . S
C786 C785 1.397 . S
C786 C787 1.334 . S
C787 H764 0.950 . S
C787 C786 1.334 . S
C787 C788 1.287 . S
C788 C787 1.287 . S
C788 C789 1.524 . S
C788 H807 0.913 . S
C789 H765 0.950 . S
C789 C788 1.524 . S
C789 C790 1.415 . S
C790 H766 0.950 . S
C790 C785 1.363 . S
C790 C789 1.415 . S
C791 H767 0.951 . S
C791 C792 1.366 . S
C791 C793 1.388 . S
C792 C791 1.366 . S
C792 C796 1.385 . S
C793 H768 0.951 . S
C793 C791 1.388 . S
C793 C794 1.366 . S
C794 C793 1.366 . S
C794 C795 1.414 . S
C794 C797 1.499 . S
C795 H769 0.950 . S
C795 C794 1.414 . S
C795 C796 1.374 . S
C796 H770 0.950 . S
C796 C792 1.385 . S
C796 C795 1.374 . S
C797 C794 1.499 . S
C797 C798 1.373 . S
C797 C799 1.389 . S
C798 H771 0.950 . S
C798 C784 1.377 . S
C798 C797 1.373 . S
C799 C783 1.377 . S
C799 C797 1.389 . S
C799 C800 1.524 . S
C800 C799 1.524 . S
C800 C801 1.397 . S
C800 C805 1.363 . S
C801 H772 0.950 . S
C801 C800 1.397 . S
C801 C802 1.334 . S
C802 H773 0.950 . S
C802 C801 1.334 . S
C802 C803 1.287 . S
C803 C802 1.287 . S
C803 C804 1.524 . S
C803 H806 0.999 . S
C804 H774 0.950 . S
C804 C803 1.524 . S
C804 C805 1.415 . S
C805 H775 0.950 . S
C805 C800 1.363 . S
C805 C804 1.415 . S
H806 C803 0.999 . S
H807 C788 0.913 . S
H808 C826 0.951 1_556 S
H809 C828 0.951 . S
H810 C830 0.950 . S
H811 C831 0.950 . S
H812 C833 0.950 . S
H813 C836 0.950 . S
H814 C837 0.950 . S
H815 C839 0.950 . S
H816 C840 0.950 . S
H817 C841 0.951 . S
H818 C843 0.951 . S
H819 C845 0.950 . S
H820 C846 0.950 . S
H821 C848 0.950 . S
H822 C851 0.950 . S
H823 C852 0.950 . S
H824 C854 0.950 . S
H825 C855 0.950 . S
C826 H808 0.951 1_554 S
C826 C827 1.366 . S
C826 C828 1.388 . S
C827 C826 1.366 . S
C827 C831 1.385 . S
C828 H809 0.951 . S
C828 C826 1.388 . S
C828 C829 1.366 . S
C829 C828 1.366 . S
C829 C830 1.414 . S
C829 C832 1.499 . S
C830 H810 0.950 . S
C830 C829 1.414 . S
C830 C831 1.374 . S
C831 H811 0.950 . S
C831 C827 1.385 . S
C831 C830 1.374 . S
C832 C829 1.499 . S
C832 C833 1.373 . S
C832 C834 1.389 . S
C833 H812 0.950 . S
C833 C832 1.373 . S
C833 C849 1.377 . S
C834 C832 1.389 . S
C834 C835 1.524 . S
C834 C848 1.377 . S
C835 C834 1.524 . S
C835 C836 1.397 . S
C835 C840 1.363 . S
C836 H813 0.950 . S
C836 C835 1.397 . S
C836 C837 1.334 . S
C837 H814 0.950 . S
C837 C836 1.334 . S
C837 C838 1.287 . S
C838 C837 1.287 . S
C838 C839 1.524 . S
C838 H857 0.913 . S
C839 H815 0.950 . S
C839 C838 1.524 . S
C839 C840 1.415 . S
C840 H816 0.950 . S
C840 C835 1.363 . S
C840 C839 1.415 . S
C841 H817 0.951 . S
C841 C842 1.366 . S
C841 C843 1.388 . S
C842 C841 1.366 . S
C842 C846 1.385 . S
C843 H818 0.951 . S
C843 C841 1.388 . S
C843 C844 1.366 . S
C844 C843 1.366 . S
C844 C845 1.414 . S
C844 C847 1.499 . S
C845 H819 0.950 . S
C845 C844 1.414 . S
C845 C846 1.374 . S
C846 H820 0.950 . S
C846 C842 1.385 . S
C846 C845 1.374 . S
C847 C844 1.499 . S
C847 C848 1.373 . S
C847 C849 1.389 . S
C848 H821 0.950 . S
C848 C834 1.377 . S
C848 C847 1.373 . S
C849 C833 1.377 . S
C849 C847 1.389 . S
C849 C850 1.524 . S
C850 C849 1.524 . S
C850 C851 1.397 . S
C850 C855 1.363 . S
C851 H822 0.950 . S
C851 C850 1.397 . S
C851 C852 1.334 . S
C852 H823 0.950 . S
C852 C851 1.334 . S
C852 C853 1.287 . S
C853 C852 1.287 . S
C853 C854 1.524 . S
C853 H856 0.999 . S
C854 H824 0.950 . S
C854 C853 1.524 . S
C854 C855 1.415 . S
C855 H825 0.950 . S
C855 C850 1.363 . S
C855 C854 1.415 . S
H856 C853 0.999 . S
H857 C838 0.913 . S
H858 C876 0.951 . S
H859 C878 0.951 . S
H860 C880 0.950 . S
H861 C881 0.950 . S
H862 C883 0.950 . S
H863 C886 0.950 . S
H864 C887 0.950 . S
H865 C889 0.950 . S
H866 C890 0.950 . S
H867 C891 0.951 . S
H868 C893 0.951 . S
H869 C895 0.950 . S
H870 C896 0.950 . S
H871 C898 0.950 . S
H872 C901 0.950 . S
H873 C902 0.950 . S
H874 C904 0.950 . S
H875 C905 0.950 . S
C876 H858 0.951 . S
C876 C877 1.366 . S
C876 C878 1.388 . S
C877 C876 1.366 . S
C877 C881 1.385 . S
C878 H859 0.951 . S
C878 C876 1.388 . S
C878 C879 1.366 . S
C879 C878 1.366 . S
C879 C880 1.414 . S
C879 C882 1.499 . S
C880 H860 0.950 . S
C880 C879 1.414 . S
C880 C881 1.374 . S
C881 H861 0.950 . S
C881 C877 1.385 . S
C881 C880 1.374 . S
C882 C879 1.499 . S
C882 C883 1.373 . S
C882 C884 1.389 . S
C883 H862 0.950 . S
C883 C882 1.373 . S
C883 C899 1.377 . S
C884 C882 1.389 . S
C884 C885 1.524 . S
C884 C898 1.377 . S
C885 C884 1.524 . S
C885 C886 1.397 . S
C885 C890 1.363 . S
C886 H863 0.950 . S
C886 C885 1.397 . S
C886 C887 1.334 . S
C887 H864 0.950 . S
C887 C886 1.334 . S
C887 C888 1.287 . S
C888 C887 1.287 . S
C888 C889 1.524 . S
C888 H907 0.913 . S
C889 H865 0.950 . S
C889 C888 1.524 . S
C889 C890 1.415 . S
C890 H866 0.950 . S
C890 C885 1.363 . S
C890 C889 1.415 . S
C891 H867 0.951 . S
C891 C892 1.366 . S
C891 C893 1.388 . S
C892 C891 1.366 . S
C892 C896 1.385 . S
C893 H868 0.951 . S
C893 C891 1.388 . S
C893 C894 1.366 . S
C894 C893 1.366 . S
C894 C895 1.414 . S
C894 C897 1.499 . S
C895 H869 0.950 . S
C895 C894 1.414 . S
C895 C896 1.374 . S
C896 H870 0.950 . S
C896 C892 1.385 . S
C896 C895 1.374 . S
C897 C894 1.499 . S
C897 C898 1.373 . S
C897 C899 1.389 . S
C898 H871 0.950 . S
C898 C884 1.377 . S
C898 C897 1.373 . S
C899 C883 1.377 . S
C899 C897 1.389 . S
C899 C900 1.524 . S
C900 C899 1.524 . S
C900 C901 1.397 . S
C900 C905 1.363 . S
C901 H872 0.950 . S
C901 C900 1.397 . S
C901 C902 1.334 . S
C902 H873 0.950 . S
C902 C901 1.334 . S
C902 C903 1.287 . S
C903 C902 1.287 . S
C903 C904 1.524 . S
C903 H906 0.999 . S
C904 H874 0.950 . S
C904 C903 1.524 . S
C904 C905 1.415 . S
C905 H875 0.950 . S
C905 C900 1.363 . S
C905 C904 1.415 . S
H906 C903 0.999 . S
H907 C888 0.913 . S
H908 C926 0.951 . S
H909 C928 0.951 . S
H910 C930 0.950 . S
H911 C931 0.950 . S
H912 C933 0.950 . S
H913 C936 0.951 1_554 S
H914 C937 0.950 . S
H915 C939 0.950 . S
H916 C940 0.950 . S
H917 C941 0.951 . S
H918 C943 0.951 . S
H919 C945 0.950 . S
H920 C946 0.950 . S
H921 C948 0.950 . S
H922 C951 0.950 . S
H923 C952 0.950 . S
H924 C954 0.950 . S
H925 C955 0.950 . S
C926 H908 0.951 . S
C926 C927 1.366 . S
C926 C928 1.388 . S
C927 C926 1.366 . S
C927 C931 1.385 . S
C928 H909 0.951 . S
C928 C926 1.388 . S
C928 C929 1.366 . S
C929 C928 1.366 . S
C929 C930 1.414 . S
C929 C932 1.499 . S
C930 H910 0.950 . S
C930 C929 1.414 . S
C930 C931 1.374 . S
C931 H911 0.950 . S
C931 C927 1.385 . S
C931 C930 1.374 . S
C932 C929 1.499 . S
C932 C933 1.373 . S
C932 C934 1.389 . S
C933 H912 0.950 . S
C933 C932 1.373 . S
C933 C949 1.377 . S
C934 C932 1.389 . S
C934 C935 1.524 . S
C934 C948 1.377 . S
C935 C934 1.524 . S
C935 C936 1.397 . S
C935 C940 1.363 . S
C936 H913 0.951 1_556 S
C936 C935 1.397 . S
C936 C937 1.334 1_556 S
C937 H914 0.950 . S
C937 C936 1.334 1_554 S
C937 C938 1.287 1_554 S
C938 C937 1.287 1_556 S
C938 C939 1.524 . S
C938 H957 0.913 1_556 S
C939 H915 0.950 . S
C939 C938 1.524 . S
C939 C940 1.415 . S
C940 H916 0.950 . S
C940 C935 1.363 . S
C940 C939 1.415 . S
C941 H917 0.951 . S
C941 C942 1.366 . S
C941 C943 1.388 . S
C942 C941 1.366 . S
C942 C946 1.385 . S
C943 H918 0.951 . S
C943 C941 1.388 . S
C943 C944 1.366 . S
C944 C943 1.366 . S
C944 C945 1.414 . S
C944 C947 1.499 . S
C945 H919 0.950 . S
C945 C944 1.414 . S
C945 C946 1.374 . S
C946 H920 0.950 . S
C946 C942 1.385 . S
C946 C945 1.374 . S
C947 C944 1.499 . S
C947 C948 1.373 . S
C947 C949 1.389 . S
C948 H921 0.950 . S
C948 C934 1.377 . S
C948 C947 1.373 . S
C949 C933 1.377 . S
C949 C947 1.389 . S
C949 C950 1.524 . S
C950 C949 1.524 . S
C950 C951 1.397 . S
C950 C955 1.363 . S
C951 H922 0.950 . S
C951 C950 1.397 . S
C951 C952 1.334 . S
C952 H923 0.950 . S
C952 C951 1.334 . S
C952 C953 1.287 . S
C953 C952 1.287 . S
C953 C954 1.524 . S
C953 H956 0.999 . S
C954 H924 0.950 . S
C954 C953 1.524 . S
C954 C955 1.415 . S
C955 H925 0.950 . S
C955 C950 1.363 . S
C955 C954 1.415 . S
H956 C953 0.999 . S
H957 C938 0.913 1_554 S
H958 C976 0.951 . S
H959 C978 0.951 . S
H960 C980 0.950 . S
H961 C981 0.950 . S
H962 C983 0.950 . S
H963 C986 0.950 . S
H964 C987 0.950 . S
H965 C989 0.950 . S
H966 C990 0.950 . S
H967 C991 0.951 . S
H968 C993 0.951 . S
H969 C995 0.950 . S
H970 C996 0.950 . S
H971 C998 0.950 . S
H972 C1001 0.950 . S
H973 C1002 0.950 . S
H974 C1004 0.950 . S
H975 C1005 0.950 . S
C976 H958 0.951 . S
C976 C977 1.366 . S
C976 C978 1.388 . S
C977 C976 1.366 . S
C977 C981 1.385 . S
C978 H959 0.951 . S
C978 C976 1.388 . S
C978 C979 1.366 . S
C979 C978 1.366 . S
C979 C980 1.414 . S
C979 C982 1.499 . S
C980 H960 0.950 . S
C980 C979 1.414 . S
C980 C981 1.374 . S
C981 H961 0.950 . S
C981 C977 1.385 . S
C981 C980 1.374 . S
C982 C979 1.499 . S
C982 C983 1.373 . S
C982 C984 1.389 . S
C983 H962 0.950 . S
C983 C982 1.373 . S
C983 C999 1.377 . S
C984 C982 1.389 . S
C984 C985 1.524 . S
C984 C998 1.377 . S
C985 C984 1.524 . S
C985 C986 1.397 . S
C985 C990 1.363 . S
C986 H963 0.950 . S
C986 C985 1.397 . S
C986 C987 1.334 . S
C987 H964 0.950 . S
C987 C986 1.334 . S
C987 C988 1.287 . S
C988 C987 1.287 . S
C988 C989 1.524 . S
C988 H1007 0.913 . S
C989 H965 0.950 . S
C989 C988 1.524 . S
C989 C990 1.415 . S
C990 H966 0.950 . S
C990 C985 1.363 . S
C990 C989 1.415 . S
C991 H967 0.951 . S
C991 C992 1.366 . S
C991 C993 1.388 . S
C992 C991 1.366 . S
C992 C996 1.385 . S
C993 H968 0.951 . S
C993 C991 1.388 . S
C993 C994 1.366 . S
C994 C993 1.366 . S
C994 C995 1.414 . S
C994 C997 1.499 . S
C995 H969 0.950 . S
C995 C994 1.414 . S
C995 C996 1.374 . S
C996 H970 0.950 . S
C996 C992 1.385 . S
C996 C995 1.374 . S
C997 C994 1.499 . S
C997 C998 1.373 . S
C997 C999 1.389 . S
C998 H971 0.950 . S
C998 C984 1.377 . S
C998 C997 1.373 . S
C999 C983 1.377 . S
C999 C997 1.389 . S
C999 C1000 1.524 . S
C1000 C999 1.524 . S
C1000 C1001 1.397 . S
C1000 C1005 1.363 . S
C1001 H972 0.950 . S
C1001 C1000 1.397 . S
C1001 C1002 1.334 . S
C1002 H973 0.950 . S
C1002 C1001 1.334 . S
C1002 C1003 1.287 . S
C1003 C1002 1.287 . S
C1003 C1004 1.524 . S
C1003 H1006 0.999 . S
C1004 H974 0.950 . S
C1004 C1003 1.524 . S
C1004 C1005 1.415 . S
C1005 H975 0.950 . S
C1005 C1000 1.363 . S
C1005 C1004 1.415 . S
H1006 C1003 0.999 . S
H1007 C988 0.913 . S
H1008 C1026 0.951 . S
H1009 C1028 0.951 . S
H1010 C1030 0.950 . S
H1011 C1031 0.950 . S
H1012 C1033 0.950 . S
H1013 C1036 0.950 . S
H1014 C1037 0.950 . S
H1015 C1039 0.950 . S
H1016 C1040 0.950 . S
H1017 C1041 0.951 . S
H1018 C1043 0.951 . S
H1019 C1045 0.950 . S
H1020 C1046 0.950 . S
H1021 C1048 0.950 . S
H1022 C1051 0.950 . S
H1023 C1052 0.950 . S
H1024 C1054 0.950 . S
H1025 C1055 0.950 . S
C1026 H1008 0.951 . S
C1026 C1027 1.366 . S
C1026 C1028 1.388 . S
C1027 C1026 1.366 . S
C1027 C1031 1.385 . S
C1028 H1009 0.951 . S
C1028 C1026 1.388 . S
C1028 C1029 1.366 . S
C1029 C1028 1.366 . S
C1029 C1030 1.414 . S
C1029 C1032 1.499 . S
C1030 H1010 0.950 . S
C1030 C1029 1.414 . S
C1030 C1031 1.374 . S
C1031 H1011 0.950 . S
C1031 C1027 1.385 . S
C1031 C1030 1.374 . S
C1032 C1029 1.499 . S
C1032 C1033 1.373 . S
C1032 C1034 1.389 . S
C1033 H1012 0.950 . S
C1033 C1032 1.373 . S
C1033 C1049 1.377 . S
C1034 C1032 1.389 . S
C1034 C1035 1.524 . S
C1034 C1048 1.377 . S
C1035 C1034 1.524 . S
C1035 C1036 1.397 . S
C1035 C1040 1.363 . S
C1036 H1013 0.950 . S
C1036 C1035 1.397 . S
C1036 C1037 1.334 . S
C1037 H1014 0.950 . S
C1037 C1036 1.334 . S
C1037 C1038 1.287 . S
C1038 C1037 1.287 . S
C1038 C1039 1.524 . S
C1038 H1057 0.913 . S
C1039 H1015 0.950 . S
C1039 C1038 1.524 . S
C1039 C1040 1.415 . S
C1040 H1016 0.950 . S
C1040 C1035 1.363 . S
C1040 C1039 1.415 . S
C1041 H1017 0.951 . S
C1041 C1042 1.366 . S
C1041 C1043 1.388 . S
C1042 C1041 1.366 . S
C1042 C1046 1.385 . S
C1043 H1018 0.951 . S
C1043 C1041 1.388 . S
C1043 C1044 1.366 . S
C1044 C1043 1.366 . S
C1044 C1045 1.414 . S
C1044 C1047 1.499 . S
C1045 H1019 0.950 . S
C1045 C1044 1.414 . S
C1045 C1046 1.374 . S
C1046 H1020 0.950 . S
C1046 C1042 1.385 . S
C1046 C1045 1.374 . S
C1047 C1044 1.499 . S
C1047 C1048 1.373 . S
C1047 C1049 1.389 . S
C1048 H1021 0.950 . S
C1048 C1034 1.377 . S
C1048 C1047 1.373 . S
C1049 C1033 1.377 . S
C1049 C1047 1.389 . S
C1049 C1050 1.524 . S
C1050 C1049 1.524 . S
C1050 C1051 1.397 . S
C1050 C1055 1.363 . S
C1051 H1022 0.950 . S
C1051 C1050 1.397 . S
C1051 C1052 1.334 . S
C1052 H1023 0.950 . S
C1052 C1051 1.334 . S
C1052 C1053 1.287 . S
C1053 C1052 1.287 . S
C1053 C1054 1.524 . S
C1053 H1056 0.999 . S
C1054 H1024 0.950 . S
C1054 C1053 1.524 . S
C1054 C1055 1.415 . S
C1055 H1025 0.950 . S
C1055 C1050 1.363 . S
C1055 C1054 1.415 . S
H1056 C1053 0.999 . S
H1057 C1038 0.913 . S
H1058 C1076 0.951 . S
H1059 C1078 0.951 . S
H1060 C1080 0.950 . S
H1061 C1081 0.950 . S
H1062 C1083 0.950 . S
H1063 C1086 0.950 . S
H1064 C1087 0.950 . S
H1065 C1089 0.950 . S
H1066 C1090 0.950 . S
H1067 C1091 0.951 1_556 S
H1068 C1093 0.951 . S
H1069 C1095 0.950 . S
H1070 C1096 0.950 . S
H1071 C1098 0.950 . S
H1072 C1101 0.950 . S
H1073 C1102 0.950 . S
H1074 C1104 0.952 1_556 S
H1075 C1105 0.950 . S
C1076 H1058 0.951 . S
C1076 C1077 1.366 . S
C1076 C1078 1.388 . S
C1077 C1076 1.366 . S
C1077 C1081 1.385 . S
C1078 H1059 0.951 . S
C1078 C1076 1.388 . S
C1078 C1079 1.366 . S
C1079 C1078 1.366 . S
C1079 C1080 1.414 . S
C1079 C1082 1.499 . S
C1080 H1060 0.950 . S
C1080 C1079 1.414 . S
C1080 C1081 1.374 . S
C1081 H1061 0.950 . S
C1081 C1077 1.385 . S
C1081 C1080 1.374 . S
C1082 C1079 1.499 . S
C1082 C1083 1.373 . S
C1082 C1084 1.389 . S
C1083 H1062 0.950 . S
C1083 C1082 1.373 . S
C1083 C1099 1.377 . S
C1084 C1082 1.389 . S
C1084 C1085 1.524 . S
C1084 C1098 1.377 . S
C1085 C1084 1.524 . S
C1085 C1086 1.397 . S
C1085 C1090 1.363 . S
C1086 H1063 0.950 . S
C1086 C1085 1.397 . S
C1086 C1087 1.334 . S
C1087 H1064 0.950 . S
C1087 C1086 1.334 . S
C1087 C1088 1.287 . S
C1088 C1087 1.287 . S
C1088 C1089 1.524 . S
C1088 H1107 0.913 . S
C1089 H1065 0.950 . S
C1089 C1088 1.524 . S
C1089 C1090 1.415 . S
C1090 H1066 0.950 . S
C1090 C1085 1.363 . S
C1090 C1089 1.415 . S
C1091 H1067 0.951 1_554 S
C1091 C1092 1.366 . S
C1091 C1093 1.388 . S
C1092 C1091 1.366 . S
C1092 C1096 1.385 . S
C1093 H1068 0.951 . S
C1093 C1091 1.388 . S
C1093 C1094 1.366 . S
C1094 C1093 1.366 . S
C1094 C1095 1.414 . S
C1094 C1097 1.499 . S
C1095 H1069 0.950 . S
C1095 C1094 1.414 . S
C1095 C1096 1.374 . S
C1096 H1070 0.950 . S
C1096 C1092 1.385 . S
C1096 C1095 1.374 . S
C1097 C1094 1.499 . S
C1097 C1098 1.373 . S
C1097 C1099 1.389 . S
C1098 H1071 0.950 . S
C1098 C1084 1.377 . S
C1098 C1097 1.373 . S
C1099 C1083 1.377 . S
C1099 C1097 1.389 . S
C1099 C1100 1.524 . S
C1100 C1099 1.524 . S
C1100 C1101 1.397 . S
C1100 C1105 1.363 . S
C1101 H1072 0.950 . S
C1101 C1100 1.397 . S
C1101 C1102 1.334 . S
C1102 H1073 0.950 . S
C1102 C1101 1.334 . S
C1102 C1103 1.287 . S
C1103 C1102 1.287 . S
C1103 C1104 1.524 . S
C1103 H1106 0.999 . S
C1104 H1074 0.952 1_554 S
C1104 C1103 1.524 . S
C1104 C1105 1.415 . S
C1105 H1075 0.950 . S
C1105 C1100 1.363 . S
C1105 C1104 1.415 . S
H1106 C1103 0.999 . S
H1107 C1088 0.913 . S
H1108 C1126 0.951 . S
H1109 C1128 0.951 . S
H1110 C1130 0.950 . S
H1111 C1131 0.950 . S
H1112 C1133 0.950 . S
H1113 C1136 0.950 . S
H1114 C1137 0.950 . S
H1115 C1139 0.950 . S
H1116 C1140 0.950 . S
H1117 C1141 0.951 . S
H1118 C1143 0.951 . S
H1119 C1145 0.950 . S
H1120 C1146 0.950 . S
H1121 C1148 0.950 . S
H1122 C1151 0.950 . S
H1123 C1152 0.950 . S
H1124 C1154 0.950 . S
H1125 C1155 0.950 . S
C1126 H1108 0.951 . S
C1126 C1127 1.366 . S
C1126 C1128 1.388 . S
C1127 C1126 1.366 . S
C1127 C1131 1.385 . S
C1128 H1109 0.951 . S
C1128 C1126 1.388 . S
C1128 C1129 1.366 . S
C1129 C1128 1.366 . S
C1129 C1130 1.414 . S
C1129 C1132 1.499 . S
C1130 H1110 0.950 . S
C1130 C1129 1.414 . S
C1130 C1131 1.374 . S
C1131 H1111 0.950 . S
C1131 C1127 1.385 . S
C1131 C1130 1.374 . S
C1132 C1129 1.499 . S
C1132 C1133 1.373 . S
C1132 C1134 1.389 . S
C1133 H1112 0.950 . S
C1133 C1132 1.373 . S
C1133 C1149 1.377 . S
C1134 C1132 1.389 . S
C1134 C1135 1.524 . S
C1134 C1148 1.377 . S
C1135 C1134 1.524 . S
C1135 C1136 1.397 . S
C1135 C1140 1.363 . S
C1136 H1113 0.950 . S
C1136 C1135 1.397 . S
C1136 C1137 1.334 . S
C1137 H1114 0.950 . S
C1137 C1136 1.334 . S
C1137 C1138 1.287 . S
C1138 C1137 1.287 . S
C1138 C1139 1.524 . S
C1138 H1157 0.913 . S
C1139 H1115 0.950 . S
C1139 C1138 1.524 . S
C1139 C1140 1.415 . S
C1140 H1116 0.950 . S
C1140 C1135 1.363 . S
C1140 C1139 1.415 . S
C1141 H1117 0.951 . S
C1141 C1142 1.366 . S
C1141 C1143 1.388 . S
C1142 C1141 1.366 . S
C1142 C1146 1.385 . S
C1143 H1118 0.951 . S
C1143 C1141 1.388 . S
C1143 C1144 1.366 . S
C1144 C1143 1.366 . S
C1144 C1145 1.414 . S
C1144 C1147 1.499 . S
C1145 H1119 0.950 . S
C1145 C1144 1.414 . S
C1145 C1146 1.374 . S
C1146 H1120 0.950 . S
C1146 C1142 1.385 . S
C1146 C1145 1.374 . S
C1147 C1144 1.499 . S
C1147 C1148 1.373 . S
C1147 C1149 1.389 . S
C1148 H1121 0.950 . S
C1148 C1134 1.377 . S
C1148 C1147 1.373 . S
C1149 C1133 1.377 . S
C1149 C1147 1.389 . S
C1149 C1150 1.524 . S
C1150 C1149 1.524 . S
C1150 C1151 1.397 . S
C1150 C1155 1.363 . S
C1151 H1122 0.950 . S
C1151 C1150 1.397 . S
C1151 C1152 1.334 . S
C1152 H1123 0.950 . S
C1152 C1151 1.334 . S
C1152 C1153 1.287 . S
C1153 C1152 1.287 . S
C1153 C1154 1.524 . S
C1153 H1156 0.999 . S
C1154 H1124 0.950 . S
C1154 C1153 1.524 . S
C1154 C1155 1.415 . S
C1155 H1125 0.950 . S
C1155 C1150 1.363 . S
C1155 C1154 1.415 . S
H1156 C1153 0.999 . S
H1157 C1138 0.913 . S
H1158 C1176 0.951 . S
H1159 C1178 0.951 . S
H1160 C1180 0.950 . S
H1161 C1181 0.950 . S
H1162 C1183 0.950 . S
H1163 C1186 0.959 . S
H1164 C1187 0.950 . S
H1165 C1189 0.950 . S
H1166 C1190 0.950 . S
H1167 C1191 0.951 . S
H1168 C1193 0.951 . S
H1169 C1195 0.950 . S
H1170 C1196 0.950 1_554 S
H1171 C1198 0.950 . S
H1172 C1201 0.950 . S
H1173 C1202 0.950 . S
H1174 C1204 0.950 . S
H1175 C1205 0.950 . S
C1176 H1158 0.951 . S
C1176 C1177 1.366 . S
C1176 C1178 1.388 . S
C1177 C1176 1.366 . S
C1177 C1181 1.385 . S
C1178 H1159 0.951 . S
C1178 C1176 1.388 . S
C1178 C1179 1.366 . S
C1179 C1178 1.366 . S
C1179 C1180 1.414 . S
C1179 C1182 1.499 . S
C1180 H1160 0.950 . S
C1180 C1179 1.414 . S
C1180 C1181 1.374 . S
C1181 H1161 0.950 . S
C1181 C1177 1.385 . S
C1181 C1180 1.374 . S
C1182 C1179 1.499 . S
C1182 C1183 1.373 . S
C1182 C1184 1.389 . S
C1183 H1162 0.950 . S
C1183 C1182 1.373 . S
C1183 C1199 1.377 . S
C1184 C1182 1.389 . S
C1184 C1185 1.524 . S
C1184 C1198 1.377 . S
C1185 C1184 1.524 . S
C1185 C1186 1.404 . S
C1185 C1190 1.363 . S
C1186 H1163 0.959 . S
C1186 C1185 1.404 . S
C1186 C1187 1.318 1_545 S
C1187 H1164 0.950 . S
C1187 C1186 1.318 1_565 S
C1187 C1188 1.287 . S
C1188 C1187 1.287 . S
C1188 C1189 1.524 . S
C1188 H1207 0.913 . S
C1189 H1165 0.950 . S
C1189 C1188 1.524 . S
C1189 C1190 1.415 1_565 S
C1190 H1166 0.950 . S
C1190 C1185 1.363 . S
C1190 C1189 1.415 1_545 S
C1191 H1167 0.951 . S
C1191 C1192 1.366 . S
C1191 C1193 1.388 . S
C1192 C1191 1.366 . S
C1192 C1196 1.385 . S
C1193 H1168 0.951 . S
C1193 C1191 1.388 . S
C1193 C1194 1.366 . S
C1194 C1193 1.366 . S
C1194 C1195 1.414 . S
C1194 C1197 1.499 . S
C1195 H1169 0.950 . S
C1195 C1194 1.414 . S
C1195 C1196 1.374 . S
C1196 H1170 0.950 1_556 S
C1196 C1192 1.385 . S
C1196 C1195 1.374 . S
C1197 C1194 1.499 . S
C1197 C1198 1.373 . S
C1197 C1199 1.389 . S
C1198 H1171 0.950 . S
C1198 C1184 1.377 . S
C1198 C1197 1.373 . S
C1199 C1183 1.377 . S
C1199 C1197 1.389 . S
C1199 C1200 1.524 . S
C1200 C1199 1.524 . S
C1200 C1201 1.397 . S
C1200 C1205 1.363 . S
C1201 H1172 0.950 . S
C1201 C1200 1.397 . S
C1201 C1202 1.334 . S
C1202 H1173 0.950 . S
C1202 C1201 1.334 . S
C1202 C1203 1.287 . S
C1203 C1202 1.287 . S
C1203 C1204 1.524 . S
C1203 H1206 0.999 . S
C1204 H1174 0.950 . S
C1204 C1203 1.524 . S
C1204 C1205 1.415 . S
C1205 H1175 0.950 . S
C1205 C1200 1.363 . S
C1205 C1204 1.415 . S
H1206 C1203 0.999 . S
H1207 C1188 0.913 . S
H1208 C1226 0.951 . S
H1209 C1228 0.951 . S
H1210 C1230 0.950 . S
H1211 C1231 0.950 . S
H1212 C1233 0.950 . S
H1213 C1236 0.950 . S
H1214 C1237 0.950 . S
H1215 C1239 0.950 . S
H1216 C1240 0.950 . S
H1217 C1241 0.951 . S
H1218 C1243 0.951 . S
H1219 C1245 0.950 . S
H1220 C1246 0.950 . S
H1221 C1248 0.950 . S
H1222 C1251 0.950 . S
H1223 C1252 0.950 . S
H1224 C1254 0.950 . S
H1225 C1255 0.950 . S
C1226 H1208 0.951 . S
C1226 C1227 1.366 . S
C1226 C1228 1.388 . S
C1227 C1226 1.366 . S
C1227 C1231 1.385 . S
C1228 H1209 0.951 . S
C1228 C1226 1.388 . S
C1228 C1229 1.366 . S
C1229 C1228 1.366 . S
C1229 C1230 1.414 . S
C1229 C1232 1.499 . S
C1230 H1210 0.950 . S
C1230 C1229 1.414 . S
C1230 C1231 1.374 . S
C1231 H1211 0.950 . S
C1231 C1227 1.385 . S
C1231 C1230 1.374 . S
C1232 C1229 1.499 . S
C1232 C1233 1.373 . S
C1232 C1234 1.389 . S
C1233 H1212 0.950 . S
C1233 C1232 1.373 . S
C1233 C1249 1.377 . S
C1234 C1232 1.389 . S
C1234 C1235 1.524 . S
C1234 C1248 1.377 . S
C1235 C1234 1.524 . S
C1235 C1236 1.397 . S
C1235 C1240 1.363 . S
C1236 H1213 0.950 . S
C1236 C1235 1.397 . S
C1236 C1237 1.334 . S
C1237 H1214 0.950 . S
C1237 C1236 1.334 . S
C1237 C1238 1.287 . S
C1238 C1237 1.287 . S
C1238 C1239 1.524 . S
C1238 H1257 0.913 . S
C1239 H1215 0.950 . S
C1239 C1238 1.524 . S
C1239 C1240 1.415 . S
C1240 H1216 0.950 . S
C1240 C1235 1.363 . S
C1240 C1239 1.415 . S
C1241 H1217 0.951 . S
C1241 C1242 1.366 . S
C1241 C1243 1.388 . S
C1242 C1241 1.366 . S
C1242 C1246 1.385 . S
C1243 H1218 0.951 . S
C1243 C1241 1.388 . S
C1243 C1244 1.366 . S
C1244 C1243 1.366 . S
C1244 C1245 1.414 . S
C1244 C1247 1.499 . S
C1245 H1219 0.950 . S
C1245 C1244 1.414 . S
C1245 C1246 1.374 . S
C1246 H1220 0.950 . S
C1246 C1242 1.385 . S
C1246 C1245 1.374 . S
C1247 C1244 1.499 . S
C1247 C1248 1.373 . S
C1247 C1249 1.389 . S
C1248 H1221 0.950 . S
C1248 C1234 1.377 . S
C1248 C1247 1.373 . S
C1249 C1233 1.377 . S
C1249 C1247 1.389 . S
C1249 C1250 1.524 . S
C1250 C1249 1.524 . S
C1250 C1251 1.397 . S
C1250 C1255 1.363 . S
C1251 H1222 0.950 . S
C1251 C1250 1.397 . S
C1251 C1252 1.334 . S
C1252 H1223 0.950 . S
C1252 C1251 1.334 . S
C1252 C1253 1.287 . S
C1253 C1252 1.287 . S
C1253 C1254 1.524 . S
C1253 H1256 0.999 . S
C1254 H1224 0.950 . S
C1254 C1253 1.524 . S
C1254 C1255 1.415 . S
C1255 H1225 0.950 . S
C1255 C1250 1.363 . S
C1255 C1254 1.415 . S
H1256 C1253 0.999 . S
H1257 C1238 0.913 . S
H1258 C1276 0.951 . S
H1259 C1278 0.951 . S
H1260 C1280 0.950 . S
H1261 C1281 0.950 . S
H1262 C1283 0.950 . S
H1263 C1286 0.950 . S
H1264 C1287 0.950 . S
H1265 C1289 0.950 . S
H1266 C1290 0.950 . S
H1267 C1291 0.951 . S
H1268 C1293 0.951 . S
H1269 C1295 0.950 . S
H1270 C1296 0.950 1_554 S
H1271 C1298 0.950 . S
H1272 C1301 0.950 . S
H1273 C1302 0.950 1_554 S
H1274 C1304 0.950 . S
H1275 C1305 0.950 . S
C1276 H1258 0.951 . S
C1276 C1277 1.366 . S
C1276 C1278 1.388 . S
C1277 C1276 1.366 . S
C1277 C1281 1.385 . S
C1278 H1259 0.951 . S
C1278 C1276 1.388 . S
C1278 C1279 1.366 . S
C1279 C1278 1.366 . S
C1279 C1280 1.414 . S
C1279 C1282 1.499 . S
C1280 H1260 0.950 . S
C1280 C1279 1.414 . S
C1280 C1281 1.374 . S
C1281 H1261 0.950 . S
C1281 C1277 1.385 . S
C1281 C1280 1.374 . S
C1282 C1279 1.499 . S
C1282 C1283 1.373 . S
C1282 C1284 1.389 . S
C1283 H1262 0.950 . S
C1283 C1282 1.373 . S
C1283 C1299 1.377 . S
C1284 C1282 1.389 . S
C1284 C1285 1.524 . S
C1284 C1298 1.377 . S
C1285 C1284 1.524 . S
C1285 C1286 1.397 . S
C1285 C1290 1.363 . S
C1286 H1263 0.950 . S
C1286 C1285 1.397 . S
C1286 C1287 1.334 . S
C1287 H1264 0.950 . S
C1287 C1286 1.334 . S
C1287 C1288 1.287 . S
C1288 C1287 1.287 . S
C1288 C1289 1.524 . S
C1288 H1307 0.913 . S
C1289 H1265 0.950 . S
C1289 C1288 1.524 . S
C1289 C1290 1.415 . S
C1290 H1266 0.950 . S
C1290 C1285 1.363 . S
C1290 C1289 1.415 . S
C1291 H1267 0.951 . S
C1291 C1292 1.366 . S
C1291 C1293 1.388 . S
C1292 C1291 1.366 . S
C1292 C1296 1.385 . S
C1293 H1268 0.951 . S
C1293 C1291 1.388 . S
C1293 C1294 1.366 . S
C1294 C1293 1.366 . S
C1294 C1295 1.414 . S
C1294 C1297 1.499 . S
C1295 H1269 0.950 . S
C1295 C1294 1.414 . S
C1295 C1296 1.374 . S
C1296 H1270 0.950 1_556 S
C1296 C1292 1.385 . S
C1296 C1295 1.374 . S
C1297 C1294 1.499 . S
C1297 C1298 1.373 . S
C1297 C1299 1.389 . S
C1298 H1271 0.950 . S
C1298 C1284 1.377 . S
C1298 C1297 1.373 . S
C1299 C1283 1.377 . S
C1299 C1297 1.389 . S
C1299 C1300 1.524 . S
C1300 C1299 1.524 . S
C1300 C1301 1.397 . S
C1300 C1305 1.363 . S
C1301 H1272 0.950 . S
C1301 C1300 1.397 . S
C1301 C1302 1.334 . S
C1302 H1273 0.950 1_556 S
C1302 C1301 1.334 . S
C1302 C1303 1.287 . S
C1303 C1302 1.287 . S
C1303 C1304 1.524 . S
C1303 H1306 0.999 . S
C1304 H1274 0.950 . S
C1304 C1303 1.524 . S
C1304 C1305 1.415 . S
C1305 H1275 0.950 . S
C1305 C1300 1.363 . S
C1305 C1304 1.415 . S
H1306 C1303 0.999 . S
H1307 C1288 0.913 . S
H1308 C1326 0.951 . S
H1309 C1328 0.951 . S
H1310 C1330 0.950 . S
H1311 C1331 0.950 . S
H1312 C1333 0.950 . S
H1313 C1336 0.950 . S
H1314 C1337 0.950 . S
H1315 C1339 0.950 . S
H1316 C1340 0.950 . S
H1317 C1341 0.951 . S
H1318 C1343 0.951 . S
H1319 C1345 0.950 . S
H1320 C1346 0.950 . S
H1321 C1348 0.950 . S
H1322 C1351 0.950 . S
H1323 C1352 0.950 . S
H1324 C1354 0.950 . S
H1325 C1355 0.950 . S
C1326 H1308 0.951 . S
C1326 C1327 1.366 . S
C1326 C1328 1.388 . S
C1327 C1326 1.366 . S
C1327 C1331 1.385 . S
C1328 H1309 0.951 . S
C1328 C1326 1.388 . S
C1328 C1329 1.366 . S
C1329 C1328 1.366 . S
C1329 C1330 1.414 . S
C1329 C1332 1.499 . S
C1330 H1310 0.950 . S
C1330 C1329 1.414 . S
C1330 C1331 1.374 . S
C1331 H1311 0.950 . S
C1331 C1327 1.385 . S
C1331 C1330 1.374 . S
C1332 C1329 1.499 . S
C1332 C1333 1.373 . S
C1332 C1334 1.389 . S
C1333 H1312 0.950 . S
C1333 C1332 1.373 . S
C1333 C1349 1.377 . S
C1334 C1332 1.389 . S
C1334 C1335 1.524 . S
C1334 C1348 1.377 . S
C1335 C1334 1.524 . S
C1335 C1336 1.397 . S
C1335 C1340 1.363 . S
C1336 H1313 0.950 . S
C1336 C1335 1.397 . S
C1336 C1337 1.334 . S
C1337 H1314 0.950 . S
C1337 C1336 1.334 . S
C1337 C1338 1.287 . S
C1338 C1337 1.287 . S
C1338 C1339 1.524 . S
C1338 H1357 0.913 . S
C1339 H1315 0.950 . S
C1339 C1338 1.524 . S
C1339 C1340 1.415 . S
C1340 H1316 0.950 . S
C1340 C1335 1.363 . S
C1340 C1339 1.415 . S
C1341 H1317 0.951 . S
C1341 C1342 1.366 . S
C1341 C1343 1.388 . S
C1342 C1341 1.366 . S
C1342 C1346 1.385 . S
C1343 H1318 0.951 . S
C1343 C1341 1.388 . S
C1343 C1344 1.366 . S
C1344 C1343 1.366 . S
C1344 C1345 1.414 . S
C1344 C1347 1.499 . S
C1345 H1319 0.950 . S
C1345 C1344 1.414 . S
C1345 C1346 1.374 . S
C1346 H1320 0.950 . S
C1346 C1342 1.385 . S
C1346 C1345 1.374 . S
C1347 C1344 1.499 . S
C1347 C1348 1.373 . S
C1347 C1349 1.389 . S
C1348 H1321 0.950 . S
C1348 C1334 1.377 . S
C1348 C1347 1.373 . S
C1349 C1333 1.377 . S
C1349 C1347 1.389 . S
C1349 C1350 1.524 . S
C1350 C1349 1.524 . S
C1350 C1351 1.397 . S
C1350 C1355 1.363 . S
C1351 H1322 0.950 . S
C1351 C1350 1.397 . S
C1351 C1352 1.334 . S
C1352 H1323 0.950 . S
C1352 C1351 1.334 . S
C1352 C1353 1.287 . S
C1353 C1352 1.287 . S
C1353 C1354 1.524 . S
C1353 H1356 0.999 . S
C1354 H1324 0.950 . S
C1354 C1353 1.524 . S
C1354 C1355 1.415 . S
C1355 H1325 0.950 . S
C1355 C1350 1.363 . S
C1355 C1354 1.415 . S
H1356 C1353 0.999 . S
H1357 C1338 0.913 . S
H1358 C1376 0.951 . S
H1359 C1378 0.951 . S
H1360 C1380 0.950 . S
H1361 C1381 0.950 . S
H1362 C1383 0.950 . S
H1363 C1386 0.950 . S
H1364 C1387 0.950 . S
H1365 C1389 0.950 . S
H1366 C1390 0.950 . S
H1367 C1391 0.951 . S
H1368 C1393 0.951 . S
H1369 C1395 0.950 . S
H1370 C1396 0.950 . S
H1371 C1398 0.950 . S
H1372 C1401 0.950 . S
H1373 C1402 0.950 . S
H1374 C1404 0.950 . S
H1375 C1405 0.950 . S
C1376 H1358 0.951 . S
C1376 C1377 1.366 . S
C1376 C1378 1.388 . S
C1377 C1376 1.366 . S
C1377 C1381 1.385 . S
C1378 H1359 0.951 . S
C1378 C1376 1.388 . S
C1378 C1379 1.366 . S
C1379 C1378 1.366 . S
C1379 C1380 1.414 . S
C1379 C1382 1.499 . S
C1380 H1360 0.950 . S
C1380 C1379 1.414 . S
C1380 C1381 1.374 . S
C1381 H1361 0.950 . S
C1381 C1377 1.385 . S
C1381 C1380 1.374 . S
C1382 C1379 1.499 . S
C1382 C1383 1.373 . S
C1382 C1384 1.389 . S
C1383 H1362 0.950 . S
C1383 C1382 1.373 . S
C1383 C1399 1.377 . S
C1384 C1382 1.389 . S
C1384 C1385 1.524 . S
C1384 C1398 1.377 . S
C1385 C1384 1.524 . S
C1385 C1386 1.397 . S
C1385 C1390 1.363 . S
C1386 H1363 0.950 . S
C1386 C1385 1.397 . S
C1386 C1387 1.334 . S
C1387 H1364 0.950 . S
C1387 C1386 1.334 . S
C1387 C1388 1.287 . S
C1388 C1387 1.287 . S
C1388 C1389 1.524 . S
C1388 H1407 0.913 . S
C1389 H1365 0.950 . S
C1389 C1388 1.524 . S
C1389 C1390 1.415 . S
C1390 H1366 0.950 . S
C1390 C1385 1.363 . S
C1390 C1389 1.415 . S
C1391 H1367 0.951 . S
C1391 C1392 1.366 . S
C1391 C1393 1.388 . S
C1392 C1391 1.366 . S
C1392 C1396 1.385 . S
C1393 H1368 0.951 . S
C1393 C1391 1.388 . S
C1393 C1394 1.366 . S
C1394 C1393 1.366 . S
C1394 C1395 1.414 . S
C1394 C1397 1.499 . S
C1395 H1369 0.950 . S
C1395 C1394 1.414 . S
C1395 C1396 1.374 . S
C1396 H1370 0.950 . S
C1396 C1392 1.385 . S
C1396 C1395 1.374 . S
C1397 C1394 1.499 . S
C1397 C1398 1.373 . S
C1397 C1399 1.389 . S
C1398 H1371 0.950 . S
C1398 C1384 1.377 . S
C1398 C1397 1.373 . S
C1399 C1383 1.377 . S
C1399 C1397 1.389 . S
C1399 C1400 1.524 . S
C1400 C1399 1.524 . S
C1400 C1401 1.397 . S
C1400 C1405 1.363 . S
C1401 H1372 0.950 . S
C1401 C1400 1.397 . S
C1401 C1402 1.334 . S
C1402 H1373 0.950 . S
C1402 C1401 1.334 . S
C1402 C1403 1.287 . S
C1403 C1402 1.287 . S
C1403 C1404 1.524 . S
C1403 H1406 0.999 . S
C1404 H1374 0.950 . S
C1404 C1403 1.524 . S
C1404 C1405 1.415 . S
C1405 H1375 0.950 . S
C1405 C1400 1.363 . S
C1405 C1404 1.415 . S
H1406 C1403 0.999 . S
H1407 C1388 0.913 . S
H1408 C1426 0.951 . S
H1409 C1428 0.951 . S
H1410 C1430 0.950 . S
H1411 C1431 0.950 . S
H1412 C1433 0.950 . S
H1413 C1436 0.950 . S
H1414 C1437 0.950 . S
H1415 C1439 0.950 . S
H1416 C1440 0.950 . S
H1417 C1441 0.951 . S
H1418 C1443 0.951 . S
H1419 C1445 0.950 . S
H1420 C1446 0.950 . S
H1421 C1448 0.950 . S
H1422 C1451 0.950 . S
H1423 C1452 0.950 . S
H1424 C1454 0.950 . S
H1425 C1455 0.950 . S
C1426 H1408 0.951 . S
C1426 C1427 1.366 . S
C1426 C1428 1.388 . S
C1427 C1426 1.366 . S
C1427 C1431 1.385 . S
C1428 H1409 0.951 . S
C1428 C1426 1.388 . S
C1428 C1429 1.366 . S
C1429 C1428 1.366 . S
C1429 C1430 1.414 . S
C1429 C1432 1.499 . S
C1430 H1410 0.950 . S
C1430 C1429 1.414 . S
C1430 C1431 1.374 . S
C1431 H1411 0.950 . S
C1431 C1427 1.385 . S
C1431 C1430 1.374 . S
C1432 C1429 1.499 . S
C1432 C1433 1.373 . S
C1432 C1434 1.389 . S
C1433 H1412 0.950 . S
C1433 C1432 1.373 . S
C1433 C1449 1.377 . S
C1434 C1432 1.389 . S
C1434 C1435 1.524 . S
C1434 C1448 1.377 . S
C1435 C1434 1.524 . S
C1435 C1436 1.397 . S
C1435 C1440 1.363 . S
C1436 H1413 0.950 . S
C1436 C1435 1.397 . S
C1436 C1437 1.334 . S
C1437 H1414 0.950 . S
C1437 C1436 1.334 . S
C1437 C1438 1.287 . S
C1438 C1437 1.287 . S
C1438 C1439 1.524 . S
C1438 H1457 0.913 . S
C1439 H1415 0.950 . S
C1439 C1438 1.524 . S
C1439 C1440 1.415 . S
C1440 H1416 0.950 . S
C1440 C1435 1.363 . S
C1440 C1439 1.415 . S
C1441 H1417 0.951 . S
C1441 C1442 1.366 . S
C1441 C1443 1.388 . S
C1442 C1441 1.366 . S
C1442 C1446 1.385 . S
C1443 H1418 0.951 . S
C1443 C1441 1.388 . S
C1443 C1444 1.366 . S
C1444 C1443 1.366 . S
C1444 C1445 1.414 . S
C1444 C1447 1.499 . S
C1445 H1419 0.950 . S
C1445 C1444 1.414 . S
C1445 C1446 1.374 . S
C1446 H1420 0.950 . S
C1446 C1442 1.385 . S
C1446 C1445 1.374 . S
C1447 C1444 1.499 . S
C1447 C1448 1.373 . S
C1447 C1449 1.389 . S
C1448 H1421 0.950 . S
C1448 C1434 1.377 . S
C1448 C1447 1.373 . S
C1449 C1433 1.377 . S
C1449 C1447 1.389 . S
C1449 C1450 1.524 . S
C1450 C1449 1.524 . S
C1450 C1451 1.397 . S
C1450 C1455 1.363 . S
C1451 H1422 0.950 . S
C1451 C1450 1.397 . S
C1451 C1452 1.334 . S
C1452 H1423 0.950 . S
C1452 C1451 1.334 . S
C1452 C1453 1.287 . S
C1453 C1452 1.287 . S
C1453 C1454 1.524 . S
C1453 H1456 0.999 . S
C1454 H1424 0.950 . S
C1454 C1453 1.524 . S
C1454 C1455 1.415 . S
C1455 H1425 0.950 . S
C1455 C1450 1.363 . S
C1455 C1454 1.415 . S
H1456 C1453 0.999 . S
H1457 C1438 0.913 . S
H1458 C1476 0.951 . S
H1459 C1478 0.951 . S
H1460 C1480 0.950 . S
H1461 C1481 0.950 . S
H1462 C1483 0.950 . S
H1463 C1486 0.950 . S
H1464 C1487 0.950 . S
H1465 C1489 0.950 . S
H1466 C1490 0.950 . S
H1467 C1491 0.951 . S
H1468 C1493 0.951 . S
H1469 C1495 0.950 . S
H1470 C1496 0.950 . S
H1471 C1498 0.950 . S
H1472 C1501 0.950 . S
H1473 C1502 0.950 . S
H1474 C1504 0.950 . S
H1475 C1505 0.950 . S
C1476 H1458 0.951 . S
C1476 C1477 1.366 . S
C1476 C1478 1.388 . S
C1477 C1476 1.366 . S
C1477 C1481 1.385 . S
C1478 H1459 0.951 . S
C1478 C1476 1.388 . S
C1478 C1479 1.366 . S
C1479 C1478 1.366 . S
C1479 C1480 1.414 . S
C1479 C1482 1.499 . S
C1480 H1460 0.950 . S
C1480 C1479 1.414 . S
C1480 C1481 1.374 . S
C1481 H1461 0.950 . S
C1481 C1477 1.385 . S
C1481 C1480 1.374 . S
C1482 C1479 1.499 . S
C1482 C1483 1.373 . S
C1482 C1484 1.389 . S
C1483 H1462 0.950 . S
C1483 C1482 1.373 . S
C1483 C1499 1.377 . S
C1484 C1482 1.389 . S
C1484 C1485 1.524 . S
C1484 C1498 1.377 . S
C1485 C1484 1.524 . S
C1485 C1486 1.397 . S
C1485 C1490 1.363 . S
C1486 H1463 0.950 . S
C1486 C1485 1.397 . S
C1486 C1487 1.334 . S
C1487 H1464 0.950 . S
C1487 C1486 1.334 . S
C1487 C1488 1.287 . S
C1488 C1487 1.287 . S
C1488 C1489 1.524 . S
C1488 H1507 0.913 . S
C1489 H1465 0.950 . S
C1489 C1488 1.524 . S
C1489 C1490 1.415 . S
C1490 H1466 0.950 . S
C1490 C1485 1.363 . S
C1490 C1489 1.415 . S
C1491 H1467 0.951 . S
C1491 C1492 1.366 . S
C1491 C1493 1.388 . S
C1492 C1491 1.366 . S
C1492 C1496 1.385 . S
C1493 H1468 0.951 . S
C1493 C1491 1.388 . S
C1493 C1494 1.366 . S
C1494 C1493 1.366 . S
C1494 C1495 1.414 . S
C1494 C1497 1.499 . S
C1495 H1469 0.950 . S
C1495 C1494 1.414 . S
C1495 C1496 1.374 . S
C1496 H1470 0.950 . S
C1496 C1492 1.385 . S
C1496 C1495 1.374 . S
C1497 C1494 1.499 . S
C1497 C1498 1.373 . S
C1497 C1499 1.389 . S
C1498 H1471 0.950 . S
C1498 C1484 1.377 . S
C1498 C1497 1.373 . S
C1499 C1483 1.377 . S
C1499 C1497 1.389 . S
C1499 C1500 1.524 . S
C1500 C1499 1.524 . S
C1500 C1501 1.397 . S
C1500 C1505 1.363 . S
C1501 H1472 0.950 . S
C1501 C1500 1.397 . S
C1501 C1502 1.334 . S
C1502 H1473 0.950 . S
C1502 C1501 1.334 . S
C1502 C1503 1.287 . S
C1503 C1502 1.287 . S
C1503 C1504 1.524 . S
C1503 H1506 0.999 . S
C1504 H1474 0.950 . S
C1504 C1503 1.524 . S
C1504 C1505 1.415 . S
C1505 H1475 0.950 . S
C1505 C1500 1.363 . S
C1505 C1504 1.415 . S
H1506 C1503 0.999 . S
H1507 C1488 0.913 . S
H1508 C1526 0.951 . S
H1509 C1528 0.951 . S
H1510 C1530 0.950 . S
H1511 C1531 0.950 . S
H1512 C1533 0.950 . S
H1513 C1536 0.950 . S
H1514 C1537 0.950 . S
H1515 C1539 0.950 . S
H1516 C1540 0.950 . S
H1517 C1541 0.951 . S
H1518 C1543 0.951 . S
H1519 C1545 0.950 . S
H1520 C1546 0.946 1_556 S
H1521 C1548 0.950 . S
H1522 C1551 0.950 . S
H1523 C1552 0.950 1_556 S
H1524 C1554 0.950 . S
H1525 C1555 0.950 . S
C1526 H1508 0.951 . S
C1526 C1527 1.366 . S
C1526 C1528 1.388 . S
C1527 C1526 1.366 . S
C1527 C1531 1.385 . S
C1528 H1509 0.951 . S
C1528 C1526 1.388 . S
C1528 C1529 1.366 . S
C1529 C1528 1.366 . S
C1529 C1530 1.414 . S
C1529 C1532 1.499 . S
C1530 H1510 0.950 . S
C1530 C1529 1.414 . S
C1530 C1531 1.374 . S
C1531 H1511 0.950 . S
C1531 C1527 1.385 . S
C1531 C1530 1.374 . S
C1532 C1529 1.499 . S
C1532 C1533 1.373 . S
C1532 C1534 1.389 . S
C1533 H1512 0.950 . S
C1533 C1532 1.373 . S
C1533 C1549 1.377 . S
C1534 C1532 1.389 . S
C1534 C1535 1.524 . S
C1534 C1548 1.377 . S
C1535 C1534 1.524 . S
C1535 C1536 1.397 . S
C1535 C1540 1.363 . S
C1536 H1513 0.950 . S
C1536 C1535 1.397 . S
C1536 C1537 1.334 . S
C1537 H1514 0.950 . S
C1537 C1536 1.334 . S
C1537 C1538 1.287 . S
C1538 C1537 1.287 . S
C1538 C1539 1.524 . S
C1538 H1557 0.913 . S
C1539 H1515 0.950 . S
C1539 C1538 1.524 . S
C1539 C1540 1.415 . S
C1540 H1516 0.950 . S
C1540 C1535 1.363 . S
C1540 C1539 1.415 . S
C1541 H1517 0.951 . S
C1541 C1542 1.366 . S
C1541 C1543 1.388 . S
C1542 C1541 1.366 . S
C1542 C1546 1.385 . S
C1543 H1518 0.951 . S
C1543 C1541 1.388 . S
C1543 C1544 1.366 . S
C1544 C1543 1.366 . S
C1544 C1545 1.414 . S
C1544 C1547 1.499 . S
C1545 H1519 0.950 . S
C1545 C1544 1.414 . S
C1545 C1546 1.374 . S
C1546 H1520 0.946 1_554 S
C1546 C1542 1.385 . S
C1546 C1545 1.374 . S
C1547 C1544 1.499 . S
C1547 C1548 1.373 . S
C1547 C1549 1.389 . S
C1548 H1521 0.950 . S
C1548 C1534 1.377 . S
C1548 C1547 1.373 . S
C1549 C1533 1.377 . S
C1549 C1547 1.389 . S
C1549 C1550 1.524 . S
C1550 C1549 1.524 . S
C1550 C1551 1.397 . S
C1550 C1555 1.363 . S
C1551 H1522 0.950 . S
C1551 C1550 1.397 . S
C1551 C1552 1.334 . S
C1552 H1523 0.950 1_554 S
C1552 C1551 1.334 . S
C1552 C1553 1.287 . S
C1553 C1552 1.287 . S
C1553 C1554 1.524 . S
C1553 H1556 0.999 . S
C1554 H1524 0.950 . S
C1554 C1553 1.524 . S
C1554 C1555 1.415 . S
C1555 H1525 0.950 . S
C1555 C1550 1.363 . S
C1555 C1554 1.415 . S
H1556 C1553 0.999 . S
H1557 C1538 0.913 . S
H1558 C1576 0.951 . S
H1559 C1578 0.951 . S
H1560 C1580 0.950 . S
H1561 C1581 0.950 . S
H1562 C1583 0.950 . S
H1563 C1586 0.950 . S
H1564 C1587 0.950 . S
H1565 C1589 0.950 . S
H1566 C1590 0.950 . S
H1567 C1591 0.951 . S
H1568 C1593 0.951 . S
H1569 C1595 0.950 . S
H1570 C1596 0.950 . S
H1571 C1598 0.950 . S
H1572 C1601 0.950 . S
H1573 C1602 0.950 . S
H1574 C1604 0.950 . S
H1575 C1605 0.950 . S
C1576 H1558 0.951 . S
C1576 C1577 1.366 . S
C1576 C1578 1.388 . S
C1577 C1576 1.366 . S
C1577 C1581 1.385 . S
C1578 H1559 0.951 . S
C1578 C1576 1.388 . S
C1578 C1579 1.366 . S
C1579 C1578 1.366 . S
C1579 C1580 1.414 . S
C1579 C1582 1.499 . S
C1580 H1560 0.950 . S
C1580 C1579 1.414 . S
C1580 C1581 1.374 . S
C1581 H1561 0.950 . S
C1581 C1577 1.385 . S
C1581 C1580 1.374 . S
C1582 C1579 1.499 . S
C1582 C1583 1.373 . S
C1582 C1584 1.389 . S
C1583 H1562 0.950 . S
C1583 C1582 1.373 . S
C1583 C1599 1.377 . S
C1584 C1582 1.389 . S
C1584 C1585 1.524 . S
C1584 C1598 1.377 . S
C1585 C1584 1.524 . S
C1585 C1586 1.397 . S
C1585 C1590 1.363 . S
C1586 H1563 0.950 . S
C1586 C1585 1.397 . S
C1586 C1587 1.334 . S
C1587 H1564 0.950 . S
C1587 C1586 1.334 . S
C1587 C1588 1.287 . S
C1588 C1587 1.287 . S
C1588 C1589 1.524 . S
C1588 H1607 0.913 . S
C1589 H1565 0.950 . S
C1589 C1588 1.524 . S
C1589 C1590 1.415 . S
C1590 H1566 0.950 . S
C1590 C1585 1.363 . S
C1590 C1589 1.415 . S
C1591 H1567 0.951 . S
C1591 C1592 1.366 . S
C1591 C1593 1.388 . S
C1592 C1591 1.366 . S
C1592 C1596 1.385 . S
C1593 H1568 0.951 . S
C1593 C1591 1.388 . S
C1593 C1594 1.366 . S
C1594 C1593 1.366 . S
C1594 C1595 1.414 . S
C1594 C1597 1.499 . S
C1595 H1569 0.950 . S
C1595 C1594 1.414 . S
C1595 C1596 1.374 . S
C1596 H1570 0.950 . S
C1596 C1592 1.385 . S
C1596 C1595 1.374 . S
C1597 C1594 1.499 . S
C1597 C1598 1.373 . S
C1597 C1599 1.389 . S
C1598 H1571 0.950 . S
C1598 C1584 1.377 . S
C1598 C1597 1.373 . S
C1599 C1583 1.377 . S
C1599 C1597 1.389 . S
C1599 C1600 1.524 . S
C1600 C1599 1.524 . S
C1600 C1601 1.397 . S
C1600 C1605 1.363 . S
C1601 H1572 0.950 . S
C1601 C1600 1.397 . S
C1601 C1602 1.334 . S
C1602 H1573 0.950 . S
C1602 C1601 1.334 . S
C1602 C1603 1.287 . S
C1603 C1602 1.287 . S
C1603 C1604 1.524 . S
C1603 H1606 0.999 . S
C1604 H1574 0.950 . S
C1604 C1603 1.524 . S
C1604 C1605 1.415 . S
C1605 H1575 0.950 . S
C1605 C1600 1.363 . S
C1605 C1604 1.415 . S
H1606 C1603 0.999 . S
H1607 C1588 0.913 . S
H1608 C1626 0.951 . S
H1609 C1628 0.951 . S
H1610 C1630 0.950 . S
H1611 C1631 0.950 . S
H1612 C1633 0.950 . S
H1613 C1636 0.950 . S
H1614 C1637 0.950 . S
H1615 C1639 0.950 . S
H1616 C1640 0.950 . S
H1617 C1641 0.951 . S
H1618 C1643 0.951 . S
H1619 C1645 0.950 . S
H1620 C1646 0.950 . S
H1621 C1648 0.950 . S
H1622 C1651 0.950 . S
H1623 C1652 0.950 . S
H1624 C1654 0.950 . S
H1625 C1655 0.950 . S
C1626 H1608 0.951 . S
C1626 C1627 1.366 . S
C1626 C1628 1.388 . S
C1627 C1626 1.366 . S
C1627 C1631 1.385 . S
C1628 H1609 0.951 . S
C1628 C1626 1.388 . S
C1628 C1629 1.366 . S
C1629 C1628 1.366 . S
C1629 C1630 1.414 . S
C1629 C1632 1.499 . S
C1630 H1610 0.950 . S
C1630 C1629 1.414 . S
C1630 C1631 1.374 . S
C1631 H1611 0.950 . S
C1631 C1627 1.385 . S
C1631 C1630 1.374 . S
C1632 C1629 1.499 . S
C1632 C1633 1.373 . S
C1632 C1634 1.389 . S
C1633 H1612 0.950 . S
C1633 C1632 1.373 . S
C1633 C1649 1.377 . S
C1634 C1632 1.389 . S
C1634 C1635 1.524 . S
C1634 C1648 1.377 . S
C1635 C1634 1.524 . S
C1635 C1636 1.397 . S
C1635 C1640 1.363 . S
C1636 H1613 0.950 . S
C1636 C1635 1.397 . S
C1636 C1637 1.334 . S
C1637 H1614 0.950 . S
C1637 C1636 1.334 . S
C1637 C1638 1.287 . S
C1638 C1637 1.287 . S
C1638 C1639 1.524 . S
C1638 H1657 0.913 . S
C1639 H1615 0.950 . S
C1639 C1638 1.524 . S
C1639 C1640 1.415 . S
C1640 H1616 0.950 . S
C1640 C1635 1.363 . S
C1640 C1639 1.415 . S
C1641 H1617 0.951 . S
C1641 C1642 1.366 . S
C1641 C1643 1.388 . S
C1642 C1641 1.366 . S
C1642 C1646 1.385 . S
C1643 H1618 0.951 . S
C1643 C1641 1.388 . S
C1643 C1644 1.366 . S
C1644 C1643 1.366 . S
C1644 C1645 1.414 . S
C1644 C1647 1.499 . S
C1645 H1619 0.950 . S
C1645 C1644 1.414 . S
C1645 C1646 1.374 . S
C1646 H1620 0.950 . S
C1646 C1642 1.385 . S
C1646 C1645 1.374 . S
C1647 C1644 1.499 . S
C1647 C1648 1.373 . S
C1647 C1649 1.389 . S
C1648 H1621 0.950 . S
C1648 C1634 1.377 . S
C1648 C1647 1.373 . S
C1649 C1633 1.377 . S
C1649 C1647 1.389 . S
C1649 C1650 1.524 . S
C1650 C1649 1.524 . S
C1650 C1651 1.397 . S
C1650 C1655 1.363 . S
C1651 H1622 0.950 . S
C1651 C1650 1.397 . S
C1651 C1652 1.334 . S
C1652 H1623 0.950 . S
C1652 C1651 1.334 . S
C1652 C1653 1.287 . S
C1653 C1652 1.287 . S
C1653 C1654 1.524 . S
C1653 H1656 0.999 . S
C1654 H1624 0.950 . S
C1654 C1653 1.524 . S
C1654 C1655 1.415 . S
C1655 H1625 0.950 . S
C1655 C1650 1.363 . S
C1655 C1654 1.415 . S
H1656 C1653 0.999 . S
H1657 C1638 0.913 . S
H1658 C1676 0.951 . S
H1659 C1678 0.951 . S
H1660 C1680 0.950 . S
H1661 C1681 0.950 . S
H1662 C1683 0.950 . S
H1663 C1686 0.950 . S
H1664 C1687 0.950 . S
H1665 C1689 0.950 . S
H1666 C1690 0.950 . S
H1667 C1691 0.951 . S
H1668 C1693 0.951 . S
H1669 C1695 0.950 . S
H1670 C1696 0.950 . S
H1671 C1698 0.950 . S
H1672 C1701 0.950 . S
H1673 C1702 0.950 . S
H1674 C1704 0.950 . S
H1675 C1705 0.950 . S
C1676 H1658 0.951 . S
C1676 C1677 1.366 . S
C1676 C1678 1.388 . S
C1677 C1676 1.366 . S
C1677 C1681 1.385 . S
C1678 H1659 0.951 . S
C1678 C1676 1.388 . S
C1678 C1679 1.366 . S
C1679 C1678 1.366 . S
C1679 C1680 1.414 . S
C1679 C1682 1.499 . S
C1680 H1660 0.950 . S
C1680 C1679 1.414 . S
C1680 C1681 1.374 . S
C1681 H1661 0.950 . S
C1681 C1677 1.385 . S
C1681 C1680 1.374 . S
C1682 C1679 1.499 . S
C1682 C1683 1.373 . S
C1682 C1684 1.389 . S
C1683 H1662 0.950 . S
C1683 C1682 1.373 . S
C1683 C1699 1.377 . S
C1684 C1682 1.389 . S
C1684 C1685 1.524 . S
C1684 C1698 1.377 . S
C1685 C1684 1.524 . S
C1685 C1686 1.397 . S
C1685 C1690 1.363 . S
C1686 H1663 0.950 . S
C1686 C1685 1.397 . S
C1686 C1687 1.334 . S
C1687 H1664 0.950 . S
C1687 C1686 1.334 . S
C1687 C1688 1.287 . S
C1688 C1687 1.287 . S
C1688 C1689 1.524 . S
C1688 H1707 0.913 . S
C1689 H1665 0.950 . S
C1689 C1688 1.524 . S
C1689 C1690 1.415 . S
C1690 H1666 0.950 . S
C1690 C1685 1.363 . S
C1690 C1689 1.415 . S
C1691 H1667 0.951 . S
C1691 C1692 1.366 . S
C1691 C1693 1.388 . S
C1692 C1691 1.366 . S
C1692 C1696 1.385 . S
C1693 H1668 0.951 . S
C1693 C1691 1.388 . S
C1693 C1694 1.366 . S
C1694 C1693 1.366 . S
C1694 C1695 1.414 . S
C1694 C1697 1.499 . S
C1695 H1669 0.950 . S
C1695 C1694 1.414 . S
C1695 C1696 1.374 . S
C1696 H1670 0.950 . S
C1696 C1692 1.385 . S
C1696 C1695 1.374 . S
C1697 C1694 1.499 . S
C1697 C1698 1.373 . S
C1697 C1699 1.389 . S
C1698 H1671 0.950 . S
C1698 C1684 1.377 . S
C1698 C1697 1.373 . S
C1699 C1683 1.377 . S
C1699 C1697 1.389 . S
C1699 C1700 1.524 . S
C1700 C1699 1.524 . S
C1700 C1701 1.397 . S
C1700 C1705 1.363 . S
C1701 H1672 0.950 . S
C1701 C1700 1.397 . S
C1701 C1702 1.334 . S
C1702 H1673 0.950 . S
C1702 C1701 1.334 . S
C1702 C1703 1.287 . S
C1703 C1702 1.287 . S
C1703 C1704 1.524 . S
C1703 H1706 0.999 . S
C1704 H1674 0.950 . S
C1704 C1703 1.524 . S
C1704 C1705 1.415 . S
C1705 H1675 0.950 . S
C1705 C1700 1.363 . S
C1705 C1704 1.415 . S
H1706 C1703 0.999 . S
H1707 C1688 0.913 . S
H1708 C1726 0.951 . S
H1709 C1728 0.951 . S
H1710 C1730 0.950 . S
H1711 C1731 0.950 . S
H1712 C1733 0.950 . S
H1713 C1736 0.952 . S
H1714 C1737 0.950 . S
H1715 C1739 0.950 . S
H1716 C1740 0.950 . S
H1717 C1741 0.951 1_545 S
H1718 C1743 0.951 . S
H1719 C1745 0.950 . S
H1720 C1746 0.950 . S
H1721 C1748 0.950 . S
H1722 C1751 0.950 . S
H1723 C1752 0.950 . S
H1724 C1754 0.950 . S
H1725 C1755 0.950 . S
C1726 H1708 0.951 . S
C1726 C1727 1.366 . S
C1726 C1728 1.388 . S
C1727 C1726 1.366 . S
C1727 C1731 1.385 . S
C1728 H1709 0.951 . S
C1728 C1726 1.388 . S
C1728 C1729 1.366 . S
C1729 C1728 1.366 . S
C1729 C1730 1.414 . S
C1729 C1732 1.499 . S
C1730 H1710 0.950 . S
C1730 C1729 1.414 . S
C1730 C1731 1.374 . S
C1731 H1711 0.950 . S
C1731 C1727 1.385 . S
C1731 C1730 1.374 . S
C1732 C1729 1.499 . S
C1732 C1733 1.373 . S
C1732 C1734 1.389 . S
C1733 H1712 0.950 . S
C1733 C1732 1.373 . S
C1733 C1749 1.377 . S
C1734 C1732 1.389 . S
C1734 C1735 1.524 . S
C1734 C1748 1.377 . S
C1735 C1734 1.524 . S
C1735 C1736 1.401 . S
C1735 C1740 1.363 . S
C1736 H1713 0.952 . S
C1736 C1735 1.401 . S
C1736 C1737 1.328 1_554 S
C1737 H1714 0.950 . S
C1737 C1736 1.328 1_556 S
C1737 C1738 1.287 . S
C1738 C1737 1.287 . S
C1738 C1739 1.524 . S
C1738 H1757 0.913 . S
C1739 H1715 0.950 . S
C1739 C1738 1.524 . S
C1739 C1740 1.415 1_556 S
C1740 H1716 0.950 . S
C1740 C1735 1.363 . S
C1740 C1739 1.415 1_554 S
C1741 H1717 0.951 1_565 S
C1741 C1742 1.366 . S
C1741 C1743 1.388 . S
C1742 C1741 1.366 . S
C1742 C1746 1.385 . S
C1743 H1718 0.951 . S
C1743 C1741 1.388 . S
C1743 C1744 1.366 . S
C1744 C1743 1.366 . S
C1744 C1745 1.414 . S
C1744 C1747 1.499 . S
C1745 H1719 0.950 . S
C1745 C1744 1.414 . S
C1745 C1746 1.374 . S
C1746 H1720 0.950 . S
C1746 C1742 1.385 . S
C1746 C1745 1.374 . S
C1747 C1744 1.499 . S
C1747 C1748 1.373 . S
C1747 C1749 1.389 . S
C1748 H1721 0.950 . S
C1748 C1734 1.377 . S
C1748 C1747 1.373 . S
C1749 C1733 1.377 . S
C1749 C1747 1.389 . S
C1749 C1750 1.524 . S
C1750 C1749 1.524 . S
C1750 C1751 1.397 . S
C1750 C1755 1.363 . S
C1751 H1722 0.950 . S
C1751 C1750 1.397 . S
C1751 C1752 1.334 . S
C1752 H1723 0.950 . S
C1752 C1751 1.334 . S
C1752 C1753 1.287 . S
C1753 C1752 1.287 . S
C1753 C1754 1.524 . S
C1753 H1756 0.999 . S
C1754 H1724 0.950 . S
C1754 C1753 1.524 . S
C1754 C1755 1.415 . S
C1755 H1725 0.950 . S
C1755 C1750 1.363 . S
C1755 C1754 1.415 . S
H1756 C1753 0.999 . S
H1757 C1738 0.913 . S
H1758 C1776 0.951 . S
H1759 C1778 0.951 . S
H1760 C1780 0.950 . S
H1761 C1781 0.950 . S
H1762 C1783 0.950 . S
H1763 C1786 0.950 . S
H1764 C1787 0.950 . S
H1765 C1789 0.950 . S
H1766 C1790 0.950 . S
H1767 C1791 0.951 . S
H1768 C1793 0.951 . S
H1769 C1795 0.950 . S
H1770 C1796 0.950 . S
H1771 C1798 0.950 . S
H1772 C1801 0.950 . S
H1773 C1802 0.950 . S
H1774 C1804 0.950 . S
H1775 C1805 0.950 . S
C1776 H1758 0.951 . S
C1776 C1777 1.366 . S
C1776 C1778 1.388 . S
C1777 C1776 1.366 . S
C1777 C1781 1.385 . S
C1778 H1759 0.951 . S
C1778 C1776 1.388 . S
C1778 C1779 1.366 . S
C1779 C1778 1.366 . S
C1779 C1780 1.414 . S
C1779 C1782 1.499 . S
C1780 H1760 0.950 . S
C1780 C1779 1.414 . S
C1780 C1781 1.374 . S
C1781 H1761 0.950 . S
C1781 C1777 1.385 . S
C1781 C1780 1.374 . S
C1782 C1779 1.499 . S
C1782 C1783 1.373 . S
C1782 C1784 1.389 . S
C1783 H1762 0.950 . S
C1783 C1782 1.373 . S
C1783 C1799 1.377 . S
C1784 C1782 1.389 . S
C1784 C1785 1.524 . S
C1784 C1798 1.377 . S
C1785 C1784 1.524 . S
C1785 C1786 1.397 . S
C1785 C1790 1.363 . S
C1786 H1763 0.950 . S
C1786 C1785 1.397 . S
C1786 C1787 1.334 1_556 S
C1787 H1764 0.950 . S
C1787 C1786 1.334 1_554 S
C1787 C1788 1.287 . S
C1788 C1787 1.287 . S
C1788 C1789 1.524 . S
C1788 H1807 0.913 . S
C1789 H1765 0.950 . S
C1789 C1788 1.524 . S
C1789 C1790 1.415 1_554 S
C1790 H1766 0.950 . S
C1790 C1785 1.363 . S
C1790 C1789 1.415 1_556 S
C1791 H1767 0.951 . S
C1791 C1792 1.366 . S
C1791 C1793 1.388 . S
C1792 C1791 1.366 . S
C1792 C1796 1.385 . S
C1793 H1768 0.951 . S
C1793 C1791 1.388 . S
C1793 C1794 1.366 . S
C1794 C1793 1.366 . S
C1794 C1795 1.414 . S
C1794 C1797 1.499 . S
C1795 H1769 0.950 . S
C1795 C1794 1.414 . S
C1795 C1796 1.374 . S
C1796 H1770 0.950 . S
C1796 C1792 1.385 . S
C1796 C1795 1.374 . S
C1797 C1794 1.499 . S
C1797 C1798 1.373 . S
C1797 C1799 1.389 . S
C1798 H1771 0.950 . S
C1798 C1784 1.377 . S
C1798 C1797 1.373 . S
C1799 C1783 1.377 . S
C1799 C1797 1.389 . S
C1799 C1800 1.524 . S
C1800 C1799 1.524 . S
C1800 C1801 1.397 . S
C1800 C1805 1.363 . S
C1801 H1772 0.950 . S
C1801 C1800 1.397 . S
C1801 C1802 1.334 . S
C1802 H1773 0.950 . S
C1802 C1801 1.334 . S
C1802 C1803 1.287 . S
C1803 C1802 1.287 . S
C1803 C1804 1.524 . S
C1803 H1806 0.999 . S
C1804 H1774 0.950 . S
C1804 C1803 1.524 . S
C1804 C1805 1.415 . S
C1805 H1775 0.950 . S
C1805 C1800 1.363 . S
C1805 C1804 1.415 . S
H1806 C1803 0.999 . S
H1807 C1788 0.913 . S
H1808 C1826 0.951 . S
H1809 C1828 0.951 . S
H1810 C1830 0.950 . S
H1811 C1831 0.950 . S
H1812 C1833 0.950 . S
H1813 C1836 0.950 . S
H1814 C1837 0.950 . S
H1815 C1839 0.950 . S
H1816 C1840 0.950 . S
H1817 C1841 0.951 . S
H1818 C1843 0.951 . S
H1819 C1845 0.950 . S
H1820 C1846 0.950 . S
H1821 C1848 0.950 . S
H1822 C1851 0.950 . S
H1823 C1852 0.950 . S
H1824 C1854 0.950 . S
H1825 C1855 0.950 . S
C1826 H1808 0.951 . S
C1826 C1827 1.366 . S
C1826 C1828 1.388 . S
C1827 C1826 1.366 . S
C1827 C1831 1.385 . S
C1828 H1809 0.951 . S
C1828 C1826 1.388 . S
C1828 C1829 1.366 . S
C1829 C1828 1.366 . S
C1829 C1830 1.414 . S
C1829 C1832 1.499 . S
C1830 H1810 0.950 . S
C1830 C1829 1.414 . S
C1830 C1831 1.374 . S
C1831 H1811 0.950 . S
C1831 C1827 1.385 . S
C1831 C1830 1.374 . S
C1832 C1829 1.499 . S
C1832 C1833 1.373 . S
C1832 C1834 1.389 . S
C1833 H1812 0.950 . S
C1833 C1832 1.373 . S
C1833 C1849 1.377 . S
C1834 C1832 1.389 . S
C1834 C1835 1.524 . S
C1834 C1848 1.377 . S
C1835 C1834 1.524 . S
C1835 C1836 1.397 . S
C1835 C1840 1.363 . S
C1836 H1813 0.950 . S
C1836 C1835 1.397 . S
C1836 C1837 1.334 . S
C1837 H1814 0.950 . S
C1837 C1836 1.334 . S
C1837 C1838 1.287 . S
C1838 C1837 1.287 . S
C1838 C1839 1.524 . S
C1838 H1857 0.913 . S
C1839 H1815 0.950 . S
C1839 C1838 1.524 . S
C1839 C1840 1.415 . S
C1840 H1816 0.950 . S
C1840 C1835 1.363 . S
C1840 C1839 1.415 . S
C1841 H1817 0.951 . S
C1841 C1842 1.366 . S
C1841 C1843 1.388 . S
C1842 C1841 1.366 . S
C1842 C1846 1.385 . S
C1843 H1818 0.951 . S
C1843 C1841 1.388 . S
C1843 C1844 1.366 . S
C1844 C1843 1.366 . S
C1844 C1845 1.414 . S
C1844 C1847 1.499 . S
C1845 H1819 0.950 . S
C1845 C1844 1.414 . S
C1845 C1846 1.374 . S
C1846 H1820 0.950 . S
C1846 C1842 1.385 . S
C1846 C1845 1.374 . S
C1847 C1844 1.499 . S
C1847 C1848 1.373 . S
C1847 C1849 1.389 . S
C1848 H1821 0.950 . S
C1848 C1834 1.377 . S
C1848 C1847 1.373 . S
C1849 C1833 1.377 . S
C1849 C1847 1.389 . S
C1849 C1850 1.524 . S
C1850 C1849 1.524 . S
C1850 C1851 1.397 . S
C1850 C1855 1.363 . S
C1851 H1822 0.950 . S
C1851 C1850 1.397 . S
C1851 C1852 1.334 . S
C1852 H1823 0.950 . S
C1852 C1851 1.334 . S
C1852 C1853 1.287 . S
C1853 C1852 1.287 . S
C1853 C1854 1.524 . S
C1853 H1856 0.999 . S
C1854 H1824 0.950 . S
C1854 C1853 1.524 . S
C1854 C1855 1.415 . S
C1855 H1825 0.950 . S
C1855 C1850 1.363 . S
C1855 C1854 1.415 . S
H1856 C1853 0.999 . S
H1857 C1838 0.913 . S
H1858 C1876 0.951 . S
H1859 C1878 0.951 . S
H1860 C1880 0.950 . S
H1861 C1881 0.950 . S
H1862 C1883 0.950 . S
H1863 C1886 0.950 1_545 S
H1864 C1887 0.950 . S
H1865 C1889 0.950 . S
H1866 C1890 0.950 . S
H1867 C1891 0.951 . S
H1868 C1893 0.951 . S
H1869 C1895 0.950 . S
H1870 C1896 0.950 . S
H1871 C1898 0.950 . S
H1872 C1901 0.950 . S
H1873 C1902 0.950 . S
H1874 C1904 0.950 . S
H1875 C1905 0.950 . S
C1876 H1858 0.951 . S
C1876 C1877 1.366 . S
C1876 C1878 1.388 . S
C1877 C1876 1.366 . S
C1877 C1881 1.385 . S
C1878 H1859 0.951 . S
C1878 C1876 1.388 . S
C1878 C1879 1.366 . S
C1879 C1878 1.366 . S
C1879 C1880 1.414 . S
C1879 C1882 1.499 . S
C1880 H1860 0.950 . S
C1880 C1879 1.414 . S
C1880 C1881 1.374 . S
C1881 H1861 0.950 . S
C1881 C1877 1.385 . S
C1881 C1880 1.374 . S
C1882 C1879 1.499 . S
C1882 C1883 1.373 . S
C1882 C1884 1.389 . S
C1883 H1862 0.950 . S
C1883 C1882 1.373 . S
C1883 C1899 1.377 . S
C1884 C1882 1.389 . S
C1884 C1885 1.524 . S
C1884 C1898 1.377 . S
C1885 C1884 1.524 . S
C1885 C1886 1.396 1_545 S
C1885 C1890 1.363 . S
C1886 H1863 0.950 1_565 S
C1886 C1885 1.396 1_565 S
C1886 C1887 1.334 . S
C1887 H1864 0.950 . S
C1887 C1886 1.334 . S
C1887 C1888 1.287 . S
C1888 C1887 1.287 . S
C1888 C1889 1.524 . S
C1888 H1907 0.913 . S
C1889 H1865 0.950 . S
C1889 C1888 1.524 . S
C1889 C1890 1.415 1_565 S
C1890 H1866 0.950 . S
C1890 C1885 1.363 . S
C1890 C1889 1.415 1_545 S
C1891 H1867 0.951 . S
C1891 C1892 1.366 . S
C1891 C1893 1.388 . S
C1892 C1891 1.366 . S
C1892 C1896 1.385 . S
C1893 H1868 0.951 . S
C1893 C1891 1.388 . S
C1893 C1894 1.366 . S
C1894 C1893 1.366 . S
C1894 C1895 1.414 . S
C1894 C1897 1.499 . S
C1895 H1869 0.950 . S
C1895 C1894 1.414 . S
C1895 C1896 1.374 . S
C1896 H1870 0.950 . S
C1896 C1892 1.385 . S
C1896 C1895 1.374 . S
C1897 C1894 1.499 . S
C1897 C1898 1.373 . S
C1897 C1899 1.389 . S
C1898 H1871 0.950 . S
C1898 C1884 1.377 . S
C1898 C1897 1.373 . S
C1899 C1883 1.377 . S
C1899 C1897 1.389 . S
C1899 C1900 1.524 . S
C1900 C1899 1.524 . S
C1900 C1901 1.397 . S
C1900 C1905 1.363 . S
C1901 H1872 0.950 . S
C1901 C1900 1.397 . S
C1901 C1902 1.334 . S
C1902 H1873 0.950 . S
C1902 C1901 1.334 . S
C1902 C1903 1.287 . S
C1903 C1902 1.287 . S
C1903 C1904 1.524 . S
C1903 H1906 0.999 . S
C1904 H1874 0.950 . S
C1904 C1903 1.524 . S
C1904 C1905 1.415 . S
C1905 H1875 0.950 . S
C1905 C1900 1.363 . S
C1905 C1904 1.415 . S
H1906 C1903 0.999 . S
H1907 C1888 0.913 . S
C427 C339 0.282 . S
C442 C33 0.472 . S
C477 C67 0.744 . S
C492 C373 0.744 . S
C527 C407 0.473 . S
C542 C101 0.283 . S
C577 C135 0.449 . S
C592 C237 0.321 . S
C627 C169 0.547 . S
C642 C271 0.554 . S
C677 C305 0.447 . S
C692 C203 0.323 . S
C727 C9 1.098 . S
C742 C138 1.079 . S
C777 C172 1.530 . S
C792 C43 1.476 . S
C827 C77 1.390 . S
C842 C2 1.443 . S
C877 C111 1.174 . S
C892 C36 1.156 . S
C927 C70 1.388 . S
C942 C145 1.346 . S
C977 C104 1.457 . S
C992 C179 1.400 . S
C1027 C274 1.456 . S
C1042 C213 1.398 . S
C1077 C247 1.348 . S
C1092 C308 1.388 . S
C1127 C342 1.155 . S
C1142 C281 1.174 . S
C1177 C376 1.443 . S
C1192 C315 1.390 . S
C1227 C206 1.533 . S
C1242 C349 1.476 . S
C1277 C383 1.099 . S
C1292 C240 1.079 . S
C1327 C360 1.097 . S
C1342 C20 1.061 . S
C1377 C394 1.059 . S
C1392 C54 1.096 . S
C1427 C88 0.875 . S
C1442 C224 0.876 . S
C1477 C122 0.999 . S
C1492 C258 1.038 . S
C1527 C292 0.998 . S
C1542 C156 1.037 . S
C1577 C190 0.876 . S
C1592 C326 0.876 . S
C1627 C209 0.841 . S
C1642 C5 0.808 . S
C1677 C243 0.715 . S
C1692 C39 0.711 . S
C1727 C73 0.833 . S
C1742 C277 0.806 . S
C1777 C311 0.832 . S
C1792 C107 0.806 . S
C1827 C141 0.716 . S
C1842 C345 0.710 . S
C1877 C379 0.804 . S
C1892 C175 0.843 . S
