# Generated by pormake.
# Topology vbk, (5)-cn, num edge types: 1
# Building blocks:
#     Node 0, Type 0, BuildingBlock: XOMCOT_clean_sbu_1, # of connection points: 5
#     Node 1, Type 0, BuildingBlock: XOMCOT_clean_sbu_1, # of connection points: 5
#     Node 2, Type 0, BuildingBlock: XOMCOT_clean_sbu_1, # of connection points: 5
#     Node 3, Type 0, BuildingBlock: XOMCOT_clean_sbu_1, # of connection points: 5
#     Node 4, Type 0, BuildingBlock: XOMCOT_clean_sbu_1, # of connection points: 5
#     Node 5, Type 0, BuildingBlock: XOMCOT_clean_sbu_1, # of connection points: 5
#     Node 6, Type 0, BuildingBlock: XOMCOT_clean_sbu_1, # of connection points: 5
#     Node 7, Type 0, BuildingBlock: XOMCOT_clean_sbu_1, # of connection points: 5
#     Node 8, Type 0, BuildingBlock: XOMCOT_clean_sbu_1, # of connection points: 5
#     Node 9, Type 0, BuildingBlock: XOMCOT_clean_sbu_1, # of connection points: 5
#     Node 10, Type 0, BuildingBlock: XOMCOT_clean_sbu_1, # of connection points: 5
#     Node 11, Type 0, BuildingBlock: XOMCOT_clean_sbu_1, # of connection points: 5
#     Node 12, Type 0, BuildingBlock: XOMCOT_clean_sbu_1, # of connection points: 5
#     Node 13, Type 0, BuildingBlock: XOMCOT_clean_sbu_1, # of connection points: 5
#     Node 14, Type 0, BuildingBlock: XOMCOT_clean_sbu_1, # of connection points: 5
#     Node 15, Type 0, BuildingBlock: XOMCOT_clean_sbu_1, # of connection points: 5
#     Edge 16, Type (0, 0), BuildingBlock: UVAHIK_clean_linker_0, # of connection points: 2
#     Edge 17, Type (0, 0), BuildingBlock: UVAHIK_clean_linker_0, # of connection points: 2
#     Edge 18, Type (0, 0), BuildingBlock: UVAHIK_clean_linker_0, # of connection points: 2
#     Edge 19, Type (0, 0), BuildingBlock: UVAHIK_clean_linker_0, # of connection points: 2
#     Edge 20, Type (0, 0), BuildingBlock: UVAHIK_clean_linker_0, # of connection points: 2
#     Edge 21, Type (0, 0), BuildingBlock: UVAHIK_clean_linker_0, # of connection points: 2
#     Edge 22, Type (0, 0), BuildingBlock: UVAHIK_clean_linker_0, # of connection points: 2
#     Edge 23, Type (0, 0), BuildingBlock: UVAHIK_clean_linker_0, # of connection points: 2
#     Edge 24, Type (0, 0), BuildingBlock: UVAHIK_clean_linker_0, # of connection points: 2
#     Edge 25, Type (0, 0), BuildingBlock: UVAHIK_clean_linker_0, # of connection points: 2
#     Edge 26, Type (0, 0), BuildingBlock: UVAHIK_clean_linker_0, # of connection points: 2
#     Edge 27, Type (0, 0), BuildingBlock: UVAHIK_clean_linker_0, # of connection points: 2
#     Edge 28, Type (0, 0), BuildingBlock: UVAHIK_clean_linker_0, # of connection points: 2
#     Edge 29, Type (0, 0), BuildingBlock: UVAHIK_clean_linker_0, # of connection points: 2
#     Edge 30, Type (0, 0), BuildingBlock: UVAHIK_clean_linker_0, # of connection points: 2
#     Edge 31, Type (0, 0), BuildingBlock: UVAHIK_clean_linker_0, # of connection points: 2
#     Edge 32, Type (0, 0), BuildingBlock: UVAHIK_clean_linker_0, # of connection points: 2
#     Edge 33, Type (0, 0), BuildingBlock: UVAHIK_clean_linker_0, # of connection points: 2
#     Edge 34, Type (0, 0), BuildingBlock: UVAHIK_clean_linker_0, # of connection points: 2
#     Edge 35, Type (0, 0), BuildingBlock: UVAHIK_clean_linker_0, # of connection points: 2
#     Edge 36, Type (0, 0), BuildingBlock: UVAHIK_clean_linker_0, # of connection points: 2
#     Edge 37, Type (0, 0), BuildingBlock: UVAHIK_clean_linker_0, # of connection points: 2
#     Edge 38, Type (0, 0), BuildingBlock: UVAHIK_clean_linker_0, # of connection points: 2
#     Edge 39, Type (0, 0), BuildingBlock: UVAHIK_clean_linker_0, # of connection points: 2
#     Edge 40, Type (0, 0), BuildingBlock: UVAHIK_clean_linker_0, # of connection points: 2
#     Edge 41, Type (0, 0), BuildingBlock: UVAHIK_clean_linker_0, # of connection points: 2
#     Edge 42, Type (0, 0), BuildingBlock: UVAHIK_clean_linker_0, # of connection points: 2
#     Edge 43, Type (0, 0), BuildingBlock: UVAHIK_clean_linker_0, # of connection points: 2
#     Edge 44, Type (0, 0), BuildingBlock: UVAHIK_clean_linker_0, # of connection points: 2
#     Edge 45, Type (0, 0), BuildingBlock: UVAHIK_clean_linker_0, # of connection points: 2
#     Edge 46, Type (0, 0), BuildingBlock: UVAHIK_clean_linker_0, # of connection points: 2
#     Edge 47, Type (0, 0), BuildingBlock: UVAHIK_clean_linker_0, # of connection points: 2
#     Edge 48, Type (0, 0), BuildingBlock: UVAHIK_clean_linker_0, # of connection points: 2
#     Edge 49, Type (0, 0), BuildingBlock: UVAHIK_clean_linker_0, # of connection points: 2
#     Edge 50, Type (0, 0), BuildingBlock: UVAHIK_clean_linker_0, # of connection points: 2
#     Edge 51, Type (0, 0), BuildingBlock: UVAHIK_clean_linker_0, # of connection points: 2
#     Edge 52, Type (0, 0), BuildingBlock: UVAHIK_clean_linker_0, # of connection points: 2
#     Edge 53, Type (0, 0), BuildingBlock: UVAHIK_clean_linker_0, # of connection points: 2
#     Edge 54, Type (0, 0), BuildingBlock: UVAHIK_clean_linker_0, # of connection points: 2
#     Edge 55, Type (0, 0), BuildingBlock: UVAHIK_clean_linker_0, # of connection points: 2
# Relax obj value: 0.085
# Max RMSD: 0.147
# Mean RMSD: 0.147
data_MOF--net-vbk--node1-XOMCOT_clean_sbu_1--edge1-UVAHIK_clean_linker_0
_symmetry_space_group_name_H-M    P1
_symmetry_Int_Tables_number       1
_symmetry_cell_setting            triclinic
loop_
_symmetry_equiv_pos_as_xyz
'x, y, z'
_cell_length_a     84.313861
_cell_length_b     59.47404
_cell_length_c     34.011306
_cell_angle_alpha  90.026707
_cell_angle_beta   89.967243
_cell_angle_gamma 90.11679
loop_
_atom_site_label
_atom_site_type_symbol
_atom_site_fract_x
_atom_site_fract_y
_atom_site_fract_z
_atom_type_partial_charge
C0 C 0.12121 0.19322 0.08507 0.0
C1 C 0.10518 0.19711 0.08518 0.0
N2 N 0.09779 0.17876 0.09948 0.0
N3 N 0.1241 0.1723 0.09853 0.0
C4 C 0.10959 0.16421 0.1085 0.0
H5 H 0.13019 0.20508 0.07585 0.0
Co6 Co 0.14457 0.16002 0.10467 0.0
C7 C 0.12732 0.12127 0.06215 0.0
O8 O 0.11524 0.13304 0.04924 0.0
N9 N 0.16512 0.14835 0.11152 0.0
C10 C 0.18796 0.13089 0.09997 0.0
C11 C 0.17272 0.13426 0.0868 0.0
C12 C 0.17601 0.15334 0.13949 0.0
N13 N 0.19004 0.14293 0.13314 0.0
O14 O 0.13882 0.15038 0.15619 0.0
H15 H 0.16767 0.12731 0.06021 0.0
H16 H 0.17395 0.16505 0.16325 0.0
O17 O 0.13825 0.13074 0.0824 0.0
C18 C 0.14106 0.16743 0.17817 0.0
O19 O 0.14655 0.18606 0.16242 0.0
N20 N 0.15074 0.17189 0.05586 0.0
C21 C 0.15621 0.20194 0.9944 0.0
C22 C 0.14685 0.18266 0.98861 0.0
C23 C 0.14428 0.16773 0.01979 0.0
C24 C 0.16081 0.1896 0.06107 0.0
C25 C 0.16377 0.20478 0.03075 0.0
H26 H 0.13634 0.15388 0.01523 0.0
H27 H 0.16559 0.193 0.08998 0.0
H28 H 0.1077 0.14769 0.12101 0.0
H29 H 0.09945 0.21242 0.07559 0.0
H30 H 0.19684 0.12046 0.08604 0.0
H31 H 0.14099 0.17967 0.96076 0.0
H32 H 0.17095 0.2195 0.03676 0.0
C33 C 0.41095 0.82842 0.58977 0.0
C34 C 0.42693 0.82425 0.59047 0.0
N35 N 0.43443 0.84239 0.60539 0.0
N36 N 0.40813 0.84927 0.60365 0.0
C37 C 0.42266 0.85704 0.61434 0.0
H38 H 0.40197 0.81667 0.58021 0.0
Co39 Co 0.38765 0.86178 0.6104 0.0
C40 C 0.40526 0.89927 0.56684 0.0
O41 O 0.41665 0.88626 0.55366 0.0
N42 N 0.36721 0.87361 0.61776 0.0
C43 C 0.34425 0.89061 0.60592 0.0
C44 C 0.35947 0.88728 0.59263 0.0
C45 C 0.35645 0.8689 0.64619 0.0
N46 N 0.34233 0.87901 0.6396 0.0
O47 O 0.39364 0.87125 0.66198 0.0
H48 H 0.36441 0.89385 0.56561 0.0
H49 H 0.35869 0.85754 0.67037 0.0
O50 O 0.39409 0.89099 0.58786 0.0
C51 C 0.39256 0.85331 0.6823 0.0
O52 O 0.38725 0.83495 0.66523 0.0
N53 N 0.3812 0.84983 0.56187 0.0
C54 C 0.37621 0.81855 0.50216 0.0
C55 C 0.38454 0.83857 0.49461 0.0
C56 C 0.38692 0.85411 0.52505 0.0
C57 C 0.37173 0.83161 0.56843 0.0
C58 C 0.36909 0.81575 0.53904 0.0
H59 H 0.39416 0.86858 0.51926 0.0
H60 H 0.36735 0.82833 0.59776 0.0
H61 H 0.42455 0.8734 0.62744 0.0
H62 H 0.4325 0.80879 0.58108 0.0
H63 H 0.33524 0.90066 0.59166 0.0
H64 H 0.39012 0.84145 0.46637 0.0
H65 H 0.36229 0.80078 0.54585 0.0
C66 C 0.12403 0.82527 0.87492 0.0
C67 C 0.1078 0.82482 0.87688 0.0
N68 N 0.10266 0.84562 0.88583 0.0
N69 N 0.12927 0.84621 0.88272 0.0
C70 C 0.11592 0.85842 0.88896 0.0
H71 H 0.13162 0.81101 0.86917 0.0
Co72 Co 0.15105 0.85206 0.88591 0.0
C73 C 0.15336 0.89162 0.93893 0.0
O74 O 0.16356 0.88056 0.96059 0.0
N75 N 0.17374 0.85727 0.88815 0.0
C76 C 0.1992 0.85633 0.90648 0.0
C77 C 0.18386 0.85249 0.91794 0.0
C78 C 0.18361 0.86418 0.8588 0.0
N79 N 0.19914 0.8636 0.86906 0.0
O80 O 0.15021 0.86443 0.83422 0.0
H81 H 0.18055 0.84611 0.94651 0.0
H82 H 0.17958 0.86928 0.83006 0.0
O83 O 0.14705 0.882 0.90908 0.0
C84 C 0.15239 0.84774 0.81137 0.0
O85 O 0.15589 0.82812 0.82676 0.0
N86 N 0.15114 0.83696 0.93418 0.0
C87 C 0.14768 0.80492 0.99351 0.0
C88 C 0.14012 0.8259 0.9964 0.0
C89 C 0.14185 0.84167 0.96605 0.0
C90 C 0.15818 0.81645 0.9306 0.0
C91 C 0.1569 0.80042 0.96016 0.0
H92 H 0.13506 0.85704 0.96719 0.0
H93 H 0.16447 0.81229 0.90385 0.0
H94 H 0.11592 0.87602 0.89709 0.0
H95 H 0.10032 0.81023 0.87241 0.0
H96 H 0.20962 0.85304 0.92409 0.0
H97 H 0.13263 0.82985 0.02132 0.0
H98 H 0.16246 0.7842 0.95598 0.0
C99 C 0.40541 0.19677 0.38207 0.0
C100 C 0.42152 0.19975 0.38411 0.0
N101 N 0.42853 0.17939 0.38447 0.0
N102 N 0.4021 0.17464 0.38119 0.0
C103 C 0.41643 0.16436 0.38237 0.0
H104 H 0.39659 0.20994 0.38136 0.0
Co105 Co 0.38125 0.16403 0.3789 0.0
C106 C 0.3849 0.11552 0.38288 0.0
O107 O 0.37724 0.11466 0.34927 0.0
N108 N 0.35999 0.15379 0.37653 0.0
C109 C 0.33677 0.13873 0.39346 0.0
C110 C 0.35229 0.14204 0.40466 0.0
C111 C 0.34884 0.15745 0.34858 0.0
N112 N 0.33462 0.14842 0.35809 0.0
O113 O 0.38475 0.15556 0.32547 0.0
H114 H 0.35759 0.13642 0.43188 0.0
H115 H 0.3509 0.16707 0.32217 0.0
O116 O 0.38781 0.13461 0.39859 0.0
C117 C 0.38182 0.17276 0.30451 0.0
O118 O 0.37681 0.19119 0.32178 0.0
N119 N 0.37785 0.17493 0.42944 0.0
C120 C 0.37649 0.20302 0.49497 0.0
C121 C 0.38617 0.18376 0.49506 0.0
C122 C 0.38672 0.16986 0.46177 0.0
C123 C 0.36788 0.19288 0.42953 0.0
C124 C 0.36694 0.20705 0.46198 0.0
H125 H 0.39504 0.15607 0.46094 0.0
H126 H 0.36143 0.19715 0.40308 0.0
H127 H 0.41796 0.1463 0.38225 0.0
H128 H 0.42761 0.21579 0.38472 0.0
H129 H 0.3278 0.12975 0.41 0.0
H130 H 0.39371 0.17996 0.51995 0.0
H131 H 0.35957 0.2219 0.46001 0.0
C132 C 0.91327 0.82532 0.8801 0.0
C133 C 0.92951 0.82414 0.88124 0.0
N134 N 0.93531 0.84501 0.88687 0.0
N135 N 0.90869 0.84682 0.88524 0.0
C136 C 0.92243 0.85857 0.88875 0.0
H137 H 0.90521 0.81127 0.87677 0.0
Co138 Co 0.88718 0.85516 0.88786 0.0
C139 C 0.89159 0.89144 0.94937 0.0
O140 O 0.88585 0.87849 0.97714 0.0
N141 N 0.86526 0.86347 0.88893 0.0
C142 C 0.84094 0.87351 0.9078 0.0
C143 C 0.85632 0.8702 0.91974 0.0
C144 C 0.85481 0.86279 0.85857 0.0
N145 N 0.83992 0.86888 0.86913 0.0
O146 O 0.8894 0.86884 0.83719 0.0
H147 H 0.86032 0.87157 0.94964 0.0
H148 H 0.85799 0.85774 0.82918 0.0
O149 O 0.89273 0.88411 0.914 0.0
C150 C 0.88834 0.85245 0.81314 0.0
O151 O 0.88496 0.83236 0.82689 0.0
N152 N 0.88513 0.83851 0.93549 0.0
C153 C 0.88485 0.80395 0.99182 0.0
C154 C 0.89723 0.81979 0.99061 0.0
C155 C 0.89718 0.8368 0.96229 0.0
C156 C 0.87301 0.82326 0.93632 0.0
C157 C 0.87241 0.80634 0.96474 0.0
H158 H 0.90726 0.84802 0.96084 0.0
H159 H 0.86408 0.82331 0.91355 0.0
H160 H 0.92298 0.8765 0.89401 0.0
H161 H 0.93652 0.809 0.87842 0.0
H162 H 0.83117 0.87817 0.92674 0.0
H163 H 0.90737 0.8185 0.00996 0.0
H164 H 0.86247 0.79479 0.96443 0.0
C165 C 0.62139 0.19587 0.3794 0.0
C166 C 0.60527 0.19878 0.37856 0.0
N167 N 0.59825 0.1786 0.38341 0.0
N168 N 0.62469 0.17396 0.38499 0.0
C169 C 0.61032 0.16369 0.38677 0.0
H170 H 0.63023 0.20901 0.37696 0.0
Co171 Co 0.6457 0.16376 0.38948 0.0
C172 C 0.63845 0.12706 0.44891 0.0
O173 O 0.6437 0.13922 0.47834 0.0
N174 N 0.66719 0.1537 0.39215 0.0
C175 C 0.69061 0.13991 0.41094 0.0
C176 C 0.67504 0.14329 0.42163 0.0
C177 C 0.67844 0.15647 0.36398 0.0
N178 N 0.69272 0.14818 0.37451 0.0
O179 O 0.64375 0.15089 0.33806 0.0
H180 H 0.67007 0.13885 0.4497 0.0
H181 H 0.67644 0.16505 0.33653 0.0
O182 O 0.6386 0.13498 0.4138 0.0
C183 C 0.64654 0.16695 0.31419 0.0
O184 O 0.65057 0.18669 0.32843 0.0
N185 N 0.64765 0.17949 0.43813 0.0
C186 C 0.64822 0.21349 0.49551 0.0
C187 C 0.63517 0.19892 0.49201 0.0
C188 C 0.6351 0.18216 0.46325 0.0
C189 C 0.66054 0.19331 0.44155 0.0
C190 C 0.66123 0.20995 0.4705 0.0
H191 H 0.62455 0.17199 0.46003 0.0
H192 H 0.67005 0.19252 0.42031 0.0
H193 H 0.60873 0.14586 0.39169 0.0
H194 H 0.59917 0.21463 0.37472 0.0
H195 H 0.69964 0.13191 0.42864 0.0
H196 H 0.62463 0.20111 0.50978 0.0
H197 H 0.67169 0.22049 0.47209 0.0
C198 C 0.90518 0.19465 0.10217 0.0
C199 C 0.92129 0.19775 0.09935 0.0
N200 N 0.92846 0.17782 0.10542 0.0
N201 N 0.90212 0.17282 0.10955 0.0
C202 C 0.91655 0.16297 0.11184 0.0
H203 H 0.89621 0.20749 0.09895 0.0
Co204 Co 0.88172 0.16107 0.11562 0.0
C205 C 0.88817 0.11283 0.11405 0.0
O206 O 0.88276 0.11189 0.15023 0.0
N207 N 0.86099 0.1495 0.12201 0.0
C208 C 0.83815 0.13195 0.1103 0.0
C209 C 0.85334 0.13565 0.09692 0.0
C210 C 0.85016 0.15403 0.15037 0.0
N211 N 0.83614 0.14353 0.14398 0.0
O212 O 0.88678 0.15407 0.1688 0.0
H213 H 0.85841 0.12892 0.07017 0.0
H214 H 0.85227 0.16534 0.17465 0.0
O215 O 0.88876 0.13173 0.0963 0.0
C216 C 0.88399 0.17162 0.18903 0.0
O217 O 0.87814 0.18942 0.17139 0.0
N218 N 0.87671 0.17061 0.06503 0.0
C219 C 0.87389 0.19809 -0.00089 0.0
C220 C 0.88404 0.17934 0.99866 0.0
C221 C 0.88531 0.16574 0.03213 0.0
C222 C 0.86608 0.1878 0.06511 0.0
C223 C 0.86441 0.20166 0.03243 0.0
H224 H 0.89413 0.15256 0.03272 0.0
H225 H 0.85982 0.19195 0.09191 0.0
H226 H 0.91829 0.14525 0.1176 0.0
H227 H 0.92728 0.21354 0.09374 0.0
H228 H 0.82928 0.12148 0.09628 0.0
H229 H 0.89151 0.17589 0.97346 0.0
H230 H 0.85664 0.21609 0.03458 0.0
C231 C 0.62649 0.8249 0.61042 0.0
C232 C 0.61033 0.82266 0.61015 0.0
N233 N 0.60386 0.84333 0.60885 0.0
N234 N 0.63037 0.84688 0.60899 0.0
C235 C 0.61627 0.85784 0.60855 0.0
H236 H 0.63498 0.81131 0.61112 0.0
Co237 Co 0.6517 0.85585 0.6077 0.0
C238 C 0.64962 0.89524 0.55255 0.0
O239 O 0.65873 0.88491 0.5271 0.0
N240 N 0.6738 0.86421 0.60767 0.0
C241 C 0.69911 0.86871 0.58964 0.0
C242 C 0.68385 0.8657 0.57668 0.0
C243 C 0.68357 0.86645 0.6393 0.0
N244 N 0.69899 0.86901 0.62913 0.0
O245 O 0.64918 0.86754 0.65966 0.0
H246 H 0.68076 0.86288 0.54635 0.0
H247 H 0.6797 0.8649 0.66943 0.0
O248 O 0.64586 0.88549 0.58488 0.0
C249 C 0.65054 0.85037 0.68181 0.0
O250 O 0.65492 0.8312 0.66603 0.0
N251 N 0.65364 0.84131 0.55877 0.0
C252 C 0.65185 0.80823 0.50061 0.0
C253 C 0.64184 0.82705 0.49947 0.0
C254 C 0.64277 0.84327 0.52915 0.0
C255 C 0.66358 0.82327 0.55993 0.0
C256 C 0.66308 0.80677 0.53085 0.0
H257 H 0.634 0.8565 0.52987 0.0
H258 H 0.67125 0.82085 0.58506 0.0
H259 H 0.61513 0.87594 0.60717 0.0
H260 H 0.6038 0.80698 0.61102 0.0
H261 H 0.70958 0.86966 0.57127 0.0
H262 H 0.63289 0.82874 0.47683 0.0
H263 H 0.67072 0.79223 0.53362 0.0
C264 C 0.62274 0.69403 0.12145 0.0
C265 C 0.60651 0.69552 0.12047 0.0
N266 N 0.60052 0.67491 0.11332 0.0
N267 N 0.62711 0.67259 0.11475 0.0
C268 C 0.61328 0.66118 0.11032 0.0
H269 H 0.63093 0.70782 0.12588 0.0
Co270 Co 0.64855 0.6645 0.11129 0.0
C271 C 0.64651 0.62679 0.05298 0.0
O272 O 0.65508 0.63818 0.02771 0.0
N273 N 0.67082 0.65662 0.10896 0.0
C274 C 0.69601 0.65288 0.08938 0.0
C275 C 0.68069 0.65676 0.07753 0.0
C276 C 0.68074 0.65226 0.13957 0.0
N277 N 0.69613 0.65018 0.12864 0.0
O278 O 0.64675 0.65128 0.16221 0.0
H279 H 0.67738 0.66097 0.04782 0.0
H280 H 0.6769 0.65101 0.16968 0.0
O281 O 0.64296 0.6355 0.0863 0.0
C282 C 0.64938 0.66747 0.18592 0.0
O283 O 0.6539 0.68697 0.17159 0.0
N284 N 0.64981 0.68058 0.06371 0.0
C285 C 0.648 0.71484 0.00738 0.0
C286 C 0.63761 0.6963 0.0061 0.0
C287 C 0.63864 0.67943 0.03465 0.0
C288 C 0.6599 0.69849 0.06549 0.0
C289 C 0.65955 0.71533 0.03707 0.0
H290 H 0.62981 0.66624 0.03491 0.0
H291 H 0.6679 0.70023 0.09015 0.0
H292 H 0.61257 0.64341 0.10368 0.0
H293 H 0.59963 0.7107 0.1245 0.0
H294 H 0.70634 0.65336 0.07053 0.0
H295 H 0.62816 0.69537 0.98464 0.0
H296 H 0.668 0.729 0.03933 0.0
C297 C 0.90927 0.3296 0.63276 0.0
C298 C 0.9254 0.32907 0.6374 0.0
N299 N 0.93114 0.34992 0.63143 0.0
N300 N 0.9047 0.35071 0.62407 0.0
C301 C 0.91834 0.36282 0.62314 0.0
H302 H 0.90129 0.31544 0.63566 0.0
Co303 Co 0.88319 0.35741 0.61804 0.0
C304 C 0.88334 0.39698 0.56505 0.0
O305 O 0.87381 0.38597 0.54143 0.0
N306 N 0.86067 0.36359 0.61308 0.0
C307 C 0.83544 0.36381 0.59261 0.0
C308 C 0.85093 0.36003 0.58199 0.0
C309 C 0.85049 0.36982 0.64215 0.0
N310 N 0.8351 0.36977 0.6307 0.0
O311 O 0.88318 0.36866 0.67073 0.0
H312 H 0.85456 0.35417 0.55332 0.0
H313 H 0.85413 0.37395 0.67167 0.0
O314 O 0.88829 0.38756 0.59663 0.0
C315 C 0.88 0.3513 0.69135 0.0
O316 O 0.8761 0.33255 0.67333 0.0
N317 N 0.8839 0.34305 0.56909 0.0
C318 C 0.88952 0.31073 0.51125 0.0
C319 C 0.89747 0.3315 0.51032 0.0
C320 C 0.89472 0.34733 0.54007 0.0
C321 C 0.87607 0.32299 0.57017 0.0
C322 C 0.87844 0.30683 0.54121 0.0
H323 H 0.90205 0.36223 0.54124 0.0
H324 H 0.86843 0.3191 0.59481 0.0
H325 H 0.91888 0.3807 0.61734 0.0
H326 H 0.93242 0.31438 0.64433 0.0
H327 H 0.82517 0.36113 0.5741 0.0
H328 H 0.90643 0.33492 0.48828 0.0
H329 H 0.87202 0.29108 0.54308 0.0
C330 C 0.62168 0.3254 0.88631 0.0
C331 C 0.60548 0.32356 0.88671 0.0
N332 N 0.59924 0.34433 0.88975 0.0
N333 N 0.62581 0.34723 0.88927 0.0
C334 C 0.61185 0.35849 0.89084 0.0
H335 H 0.63001 0.31163 0.88459 0.0
Co336 Co 0.64716 0.35615 0.89099 0.0
C337 C 0.64314 0.39441 0.94897 0.0
O338 O 0.64998 0.38309 0.97731 0.0
N339 N 0.66904 0.3648 0.89133 0.0
C340 C 0.69365 0.37383 0.9097 0.0
C341 C 0.67835 0.37028 0.92225 0.0
C342 C 0.67919 0.36507 0.86028 0.0
N343 N 0.69422 0.37049 0.87061 0.0
O344 O 0.64474 0.36854 0.83941 0.0
H345 H 0.67469 0.37045 0.95253 0.0
H346 H 0.67586 0.36048 0.83073 0.0
O347 O 0.64136 0.38555 0.91485 0.0
C348 C 0.64588 0.35172 0.81632 0.0
O349 O 0.64964 0.33204 0.83112 0.0
N350 N 0.64923 0.3409 0.93958 0.0
C351 C 0.64841 0.30701 0.99667 0.0
C352 C 0.63717 0.32437 0.99685 0.0
C353 C 0.63763 0.34092 0.96773 0.0
C354 C 0.66043 0.32434 0.9395 0.0
C355 C 0.66038 0.30748 0.96805 0.0
H356 H 0.62809 0.35301 0.96647 0.0
H357 H 0.66881 0.3232 0.91552 0.0
H358 H 0.61095 0.37657 0.8937 0.0
H359 H 0.59879 0.30805 0.88473 0.0
H360 H 0.70363 0.37814 0.92825 0.0
H361 H 0.62769 0.32469 0.01834 0.0
H362 H 0.66904 0.29411 0.96602 0.0
C363 C 0.90933 0.69559 0.38333 0.0
C364 C 0.92555 0.69747 0.384 0.0
N365 N 0.93178 0.67679 0.38851 0.0
N366 N 0.9052 0.67383 0.38767 0.0
C367 C 0.91917 0.66265 0.39023 0.0
H368 H 0.901 0.7093 0.3806 0.0
Co369 Co 0.8839 0.66443 0.38951 0.0
C370 C 0.88912 0.62771 0.45016 0.0
O371 O 0.88316 0.63992 0.47865 0.0
N372 N 0.8622 0.65512 0.38958 0.0
C373 C 0.83803 0.64338 0.40688 0.0
C374 C 0.85338 0.64667 0.41933 0.0
C375 C 0.85176 0.65677 0.35932 0.0
N376 N 0.83701 0.64974 0.36902 0.0
O377 O 0.88669 0.65127 0.3386 0.0
H378 H 0.85749 0.64379 0.44881 0.0
H379 H 0.8547 0.66371 0.33091 0.0
O380 O 0.88996 0.63556 0.41507 0.0
C381 C 0.8854 0.66766 0.31466 0.0
O382 O 0.88148 0.68753 0.32846 0.0
N383 N 0.88128 0.68044 0.43761 0.0
C384 C 0.88052 0.71481 0.49428 0.0
C385 C 0.89308 0.69935 0.49301 0.0
C386 C 0.89327 0.68244 0.46453 0.0
C387 C 0.86886 0.69514 0.4388 0.0
C388 C 0.86805 0.71201 0.46734 0.0
H389 H 0.90354 0.67164 0.46288 0.0
H390 H 0.85991 0.69481 0.4161 0.0
H391 H 0.92007 0.64466 0.39438 0.0
H392 H 0.93225 0.71294 0.38136 0.0
H393 H 0.82836 0.6369 0.4245 0.0
H394 H 0.90322 0.70097 0.5123 0.0
H395 H 0.85799 0.72327 0.46714 0.0
C396 C 0.40763 0.33061 0.87378 0.0
C397 C 0.42376 0.32827 0.87558 0.0
N398 N 0.43028 0.34878 0.88034 0.0
N399 N 0.40381 0.35249 0.87746 0.0
C400 C 0.41792 0.36331 0.88102 0.0
H401 H 0.39911 0.31709 0.87088 0.0
Co402 Co 0.38252 0.36139 0.87897 0.0
C403 C 0.38424 0.40088 0.93305 0.0
O404 O 0.37471 0.39057 0.95761 0.0
N405 N 0.36037 0.36984 0.87941 0.0
C406 C 0.33495 0.37452 0.89658 0.0
C407 C 0.35003 0.37027 0.90994 0.0
C408 C 0.35097 0.37401 0.84776 0.0
N409 N 0.3355 0.37669 0.8573 0.0
O410 O 0.38477 0.3723 0.82632 0.0
H411 H 0.35283 0.36626 0.94007 0.0
H412 H 0.35518 0.37464 0.81789 0.0
O413 O 0.38842 0.39124 0.90095 0.0
C414 C 0.38237 0.35482 0.80535 0.0
O415 O 0.37775 0.3362 0.82273 0.0
N416 N 0.38081 0.3473 0.92822 0.0
C417 C 0.38254 0.31489 0.98743 0.0
C418 C 0.3925 0.33383 0.98816 0.0
C419 C 0.39161 0.34971 0.95793 0.0
C420 C 0.37107 0.32898 0.92722 0.0
C421 C 0.37151 0.31284 0.95683 0.0
H422 H 0.40028 0.36311 0.95705 0.0
H423 H 0.36352 0.32618 0.90197 0.0
H424 H 0.41909 0.38127 0.88533 0.0
H425 H 0.43022 0.3126 0.87364 0.0
H426 H 0.32427 0.37456 0.91427 0.0
H427 H 0.40133 0.3359 0.011 0.0
H428 H 0.36396 0.29815 0.95433 0.0
C429 C 0.12303 0.69243 0.37688 0.0
C430 C 0.10685 0.69487 0.37791 0.0
N431 N 0.10024 0.67445 0.38325 0.0
N432 N 0.12674 0.67058 0.38187 0.0
C433 C 0.11257 0.65992 0.3851 0.0
H434 H 0.13163 0.7058 0.3735 0.0
Co435 Co 0.14781 0.66041 0.38365 0.0
C436 C 0.1416 0.62402 0.44441 0.0
O437 O 0.14758 0.63609 0.47309 0.0
N438 N 0.16932 0.65029 0.38355 0.0
C439 C 0.1931 0.63688 0.40021 0.0
C440 C 0.17769 0.6401 0.41236 0.0
C441 C 0.18008 0.65302 0.35419 0.0
N442 N 0.19459 0.645 0.3635 0.0
O443 O 0.14467 0.64732 0.33294 0.0
H444 H 0.17324 0.63582 0.44102 0.0
H445 H 0.17757 0.66144 0.32681 0.0
O446 O 0.14116 0.63184 0.40927 0.0
C447 C 0.14689 0.66334 0.30867 0.0
O448 O 0.15142 0.68304 0.32214 0.0
N449 N 0.15085 0.67632 0.43173 0.0
C450 C 0.15278 0.71026 0.48899 0.0
C451 C 0.13963 0.69577 0.48725 0.0
C452 C 0.13888 0.67905 0.45851 0.0
C453 C 0.16381 0.6901 0.43333 0.0
C454 C 0.16519 0.70672 0.46217 0.0
H455 H 0.12824 0.66893 0.45672 0.0
H456 H 0.17282 0.68928 0.41081 0.0
H457 H 0.11132 0.64202 0.38992 0.0
H458 H 0.10044 0.71053 0.37501 0.0
H459 H 0.20248 0.6292 0.41723 0.0
H460 H 0.12952 0.698 0.50645 0.0
H461 H 0.17569 0.71723 0.46233 0.0
C462 C 0.41092 0.69648 0.12328 0.0
C463 C 0.42716 0.69742 0.12233 0.0
N464 N 0.43274 0.67662 0.11508 0.0
N465 N 0.4061 0.6752 0.11658 0.0
C466 C 0.41971 0.66333 0.11206 0.0
H467 H 0.40303 0.7106 0.12741 0.0
Co468 Co 0.38447 0.66812 0.1121 0.0
C469 C 0.38531 0.62967 0.05585 0.0
O470 O 0.37645 0.64113 0.03139 0.0
N471 N 0.36199 0.66136 0.10861 0.0
C472 C 0.33676 0.6592 0.08851 0.0
C473 C 0.35216 0.6632 0.07728 0.0
C474 C 0.35195 0.65588 0.13849 0.0
N475 N 0.33654 0.65471 0.12724 0.0
O476 O 0.38523 0.65582 0.16401 0.0
H477 H 0.35562 0.66826 0.04804 0.0
H478 H 0.35575 0.65305 0.1683 0.0
O479 O 0.38952 0.63847 0.08865 0.0
C480 C 0.38293 0.67287 0.18606 0.0
O481 O 0.37941 0.69222 0.16968 0.0
N482 N 0.38431 0.68348 0.06377 0.0
C483 C 0.38848 0.71704 0.00693 0.0
C484 C 0.39772 0.69736 0.00629 0.0
C485 C 0.39552 0.68085 0.03511 0.0
C486 C 0.3753 0.70248 0.06486 0.0
C487 C 0.37681 0.71903 0.03615 0.0
H488 H 0.40359 0.66676 0.03601 0.0
H489 H 0.36729 0.70526 0.08923 0.0
H490 H 0.42008 0.64559 0.10504 0.0
H491 H 0.43433 0.71237 0.12622 0.0
H492 H 0.32648 0.66065 0.0697 0.0
H493 H 0.40722 0.69523 0.98521 0.0
H494 H 0.3692 0.73363 0.03789 0.0
C495 C 0.12125 0.32587 0.62442 0.0
C496 C 0.10518 0.32567 0.63033 0.0
N497 N 0.09961 0.3466 0.62445 0.0
N498 N 0.12596 0.34684 0.61499 0.0
C499 C 0.11245 0.3592 0.61494 0.0
H500 H 0.1291 0.31159 0.62695 0.0
Co501 Co 0.14742 0.35333 0.60709 0.0
C502 C 0.14661 0.3925 0.55299 0.0
O503 O 0.15561 0.38136 0.52834 0.0
N504 N 0.16984 0.35938 0.6002 0.0
C505 C 0.19471 0.35997 0.57728 0.0
C506 C 0.17909 0.356 0.56816 0.0
C507 C 0.18045 0.36566 0.6283 0.0
N508 N 0.19564 0.36583 0.6154 0.0
O509 O 0.14815 0.36531 0.65918 0.0
H510 H 0.17501 0.35028 0.53977 0.0
H511 H 0.17729 0.36924 0.65835 0.0
O512 O 0.14221 0.38322 0.58521 0.0
C513 C 0.15141 0.34841 0.68077 0.0
O514 O 0.1547 0.32911 0.66386 0.0
N515 N 0.14607 0.3384 0.55866 0.0
C516 C 0.14015 0.30591 0.50118 0.0
C517 C 0.1321 0.32656 0.50063 0.0
C518 C 0.13499 0.34245 0.5302 0.0
C519 C 0.15394 0.31841 0.5595 0.0
C520 C 0.1514 0.30216 0.53074 0.0
H521 H 0.12764 0.35729 0.53162 0.0
H522 H 0.16181 0.3147 0.58374 0.0
H523 H 0.11207 0.37706 0.60891 0.0
H524 H 0.09807 0.31114 0.63804 0.0
H525 H 0.20462 0.35817 0.55731 0.0
H526 H 0.12299 0.32986 0.47894 0.0
H527 H 0.15788 0.28648 0.53237 0.0
C528 C 0.21934 0.14271 0.13761 0.0
C529 C 0.20446 0.14484 0.15589 0.0
C530 C 0.23334 0.14399 0.15953 0.0
C531 C 0.24953 0.16214 0.25679 0.0
H532 H 0.2847 0.12391 0.22657 0.0
C533 C 0.30526 0.14891 0.35438 0.0
C534 C 0.32011 0.14914 0.33548 0.0
C535 C 0.29118 0.14921 0.33254 0.0
C536 C 0.27505 0.13486 0.23517 0.0
H537 H 0.19268 0.15002 0.21173 0.0
H538 H 0.21708 0.15177 0.25031 0.0
H539 H 0.26011 0.12258 0.18915 0.0
H540 H 0.33174 0.14983 0.27868 0.0
H541 H 0.30717 0.15023 0.2405 0.0
H542 H 0.26449 0.17399 0.30346 0.0
C543 C 0.21798 0.14958 0.21879 0.0
C544 C 0.26091 0.13417 0.21362 0.0
C545 C 0.20395 0.14852 0.19671 0.0
C546 C 0.32052 0.14979 0.29416 0.0
C547 C 0.30644 0.14982 0.27229 0.0
C548 C 0.26363 0.16266 0.27859 0.0
C549 C 0.23291 0.14721 0.20053 0.0
C550 C 0.24794 0.14786 0.22397 0.0
C551 C 0.29159 0.14949 0.29121 0.0
C552 C 0.27659 0.14908 0.26797 0.0
H553 H 0.22019 0.14031 0.10613 0.0
H554 H 0.24454 0.14265 0.14413 0.0
H555 H 0.23996 0.17322 0.26539 0.0
H556 H 0.3045 0.14865 0.38614 0.0
H557 H 0.27996 0.14879 0.34804 0.0
C558 C 0.22787 0.87186 0.86218 0.0
C559 C 0.213 0.8677 0.84477 0.0
C560 C 0.24157 0.87386 0.83929 0.0
C561 C 0.25758 0.85998 0.73995 0.0
H562 H 0.29218 0.89858 0.77331 0.0
C563 C 0.31303 0.87794 0.64369 0.0
C564 C 0.3279 0.87712 0.66235 0.0
C565 C 0.29899 0.87671 0.66556 0.0
C566 C 0.28267 0.88757 0.7638 0.0
H567 H 0.20105 0.86315 0.78883 0.0
H568 H 0.22482 0.86758 0.74881 0.0
H569 H 0.26753 0.89807 0.81077 0.0
H570 H 0.33966 0.87431 0.71868 0.0
H571 H 0.31507 0.87241 0.75713 0.0
H572 H 0.27272 0.84995 0.6924 0.0
C573 C 0.22594 0.86866 0.78047 0.0
C574 C 0.2685 0.88721 0.78534 0.0
C575 C 0.2122 0.86643 0.80347 0.0
C576 C 0.3284 0.87488 0.70347 0.0
C577 C 0.31432 0.87398 0.72546 0.0
C578 C 0.27168 0.86057 0.71815 0.0
C579 C 0.24089 0.8721 0.79808 0.0
C580 C 0.25576 0.87328 0.77395 0.0
C581 C 0.29945 0.87491 0.70674 0.0
C582 C 0.28444 0.87426 0.72996 0.0
H583 H 0.22903 0.87334 0.89374 0.0
H584 H 0.25279 0.87624 0.85421 0.0
H585 H 0.24823 0.84871 0.73052 0.0
H586 H 0.31223 0.8794 0.61203 0.0
H587 H 0.28774 0.87759 0.65025 0.0
C588 C 0.71203 0.87821 0.69271 0.0
C589 C 0.71273 0.86903 0.65462 0.0
C590 C 0.72551 0.87836 0.71696 0.0
C591 C 0.76413 0.84995 0.73139 0.0
H592 H 0.77591 0.90391 0.78829 0.0
C593 C 0.82505 0.85806 0.80867 0.0
C594 C 0.82574 0.86947 0.84493 0.0
C595 C 0.81118 0.85822 0.78595 0.0
C596 C 0.77272 0.88856 0.77308 0.0
H597 H 0.72811 0.85222 0.61279 0.0
H598 H 0.75144 0.85254 0.65475 0.0
H599 H 0.75162 0.9034 0.7493 0.0
H600 H 0.81215 0.89053 0.88477 0.0
H601 H 0.78802 0.89015 0.84609 0.0
H602 H 0.78504 0.83495 0.75534 0.0
C603 C 0.74053 0.85968 0.66594 0.0
C604 C 0.75876 0.88831 0.75067 0.0
C605 C 0.72716 0.85975 0.64166 0.0
C606 C 0.81215 0.88124 0.85744 0.0
C607 C 0.79827 0.88129 0.83486 0.0
C608 C 0.778 0.85013 0.75401 0.0
C609 C 0.73992 0.86903 0.70387 0.0
C610 C 0.75436 0.86905 0.72928 0.0
C611 C 0.79753 0.86972 0.79882 0.0
C612 C 0.78259 0.86949 0.775 0.0
H613 H 0.70113 0.88554 0.70352 0.0
H614 H 0.72461 0.88556 0.74613 0.0
H615 H 0.76098 0.83471 0.71576 0.0
H616 H 0.83512 0.84868 0.79786 0.0
H617 H 0.81121 0.8494 0.7581 0.0
C618 C 0.7067 0.14774 0.31031 0.0
C619 C 0.70721 0.14829 0.35164 0.0
C620 C 0.72071 0.14749 0.28817 0.0
C621 C 0.76343 0.16156 0.29276 0.0
H622 H 0.7668 0.12071 0.20434 0.0
C623 C 0.82265 0.14848 0.20831 0.0
C624 C 0.82187 0.1448 0.1675 0.0
C625 C 0.80878 0.14913 0.2311 0.0
C626 C 0.76603 0.13249 0.22855 0.0
H627 H 0.72295 0.14943 0.40196 0.0
H628 H 0.74739 0.14899 0.36337 0.0
H629 H 0.74246 0.1217 0.24289 0.0
H630 H 0.8058 0.13968 0.11861 0.0
H631 H 0.78172 0.1412 0.15792 0.0
H632 H 0.7869 0.17261 0.27817 0.0
C633 C 0.73613 0.14876 0.34808 0.0
C634 C 0.75204 0.13299 0.25075 0.0
C635 C 0.72211 0.14879 0.37023 0.0
C636 C 0.80687 0.14212 0.15002 0.0
C637 C 0.79303 0.14295 0.1727 0.0
C638 C 0.77739 0.16119 0.27036 0.0
C639 C 0.73562 0.148 0.30676 0.0
C640 C 0.75055 0.14753 0.28314 0.0
C641 C 0.79375 0.14628 0.21364 0.0
C642 C 0.7789 0.14665 0.23786 0.0
H643 H 0.69545 0.14712 0.29502 0.0
H644 H 0.71987 0.1471 0.2564 0.0
H645 H 0.76262 0.17315 0.31725 0.0
H646 H 0.834 0.15037 0.22279 0.0
H647 H 0.8099 0.15142 0.26256 0.0
C648 C 0.7248 0.6418 0.13786 0.0
C649 C 0.71002 0.64813 0.15367 0.0
C650 C 0.73846 0.64135 0.1613 0.0
C651 C 0.75454 0.66362 0.25589 0.0
H652 H 0.78774 0.61984 0.23741 0.0
C653 C 0.80782 0.65227 0.36153 0.0
C654 C 0.82294 0.64968 0.34463 0.0
C655 C 0.79416 0.65201 0.33815 0.0
C656 C 0.77864 0.63232 0.24271 0.0
H657 H 0.69828 0.65847 0.20756 0.0
H658 H 0.7218 0.65682 0.24844 0.0
H659 H 0.76361 0.61867 0.19792 0.0
H660 H 0.83547 0.64464 0.28971 0.0
H661 H 0.81159 0.64412 0.24881 0.0
H662 H 0.76952 0.67698 0.30116 0.0
C663 C 0.72293 0.65275 0.21754 0.0
C664 C 0.76478 0.63169 0.21999 0.0
C665 C 0.70929 0.65337 0.19403 0.0
C666 C 0.82404 0.64683 0.30365 0.0
C667 C 0.81034 0.64633 0.28026 0.0
C668 C 0.76834 0.6641 0.27882 0.0
C669 C 0.73778 0.64701 0.20145 0.0
C670 C 0.75251 0.64736 0.22616 0.0
C671 C 0.79522 0.64895 0.29723 0.0
C672 C 0.78058 0.64849 0.27251 0.0
H673 H 0.72593 0.63731 0.10718 0.0
H674 H 0.74963 0.63704 0.14755 0.0
H675 H 0.74558 0.67629 0.26112 0.0
H676 H 0.80652 0.65473 0.39289 0.0
H677 H 0.78271 0.65391 0.35224 0.0
C678 C 0.82165 0.36827 0.69568 0.0
C679 C 0.82109 0.37244 0.65499 0.0
C680 C 0.80787 0.36906 0.71862 0.0
C681 C 0.76604 0.3893 0.71962 0.0
H682 H 0.76111 0.34368 0.80011 0.0
C683 C 0.70694 0.37537 0.80514 0.0
C684 C 0.70817 0.37113 0.84574 0.0
C685 C 0.72052 0.37598 0.78128 0.0
C686 C 0.76234 0.3567 0.77806 0.0
H687 H 0.80544 0.38158 0.60703 0.0
H688 H 0.7814 0.38251 0.64677 0.0
H689 H 0.78508 0.34448 0.76028 0.0
H690 H 0.7248 0.36388 0.8927 0.0
H691 H 0.74832 0.36526 0.85147 0.0
H692 H 0.74318 0.40139 0.73741 0.0
C693 C 0.79255 0.37877 0.66107 0.0
C694 C 0.77614 0.35719 0.7552 0.0
C695 C 0.80636 0.37801 0.63813 0.0
C696 C 0.72334 0.36746 0.86174 0.0
C697 C 0.73686 0.36798 0.83793 0.0
C698 C 0.75219 0.38877 0.74248 0.0
C699 C 0.79307 0.374 0.70157 0.0
C700 C 0.77825 0.37357 0.72578 0.0
C701 C 0.73566 0.37221 0.79736 0.0
C702 C 0.75019 0.37253 0.77217 0.0
H703 H 0.83265 0.3637 0.70977 0.0
H704 H 0.80883 0.36566 0.7498 0.0
H705 H 0.76729 0.40232 0.69758 0.0
H706 H 0.69549 0.37845 0.79181 0.0
H707 H 0.71912 0.37911 0.75011 0.0
C708 C 0.22455 0.36028 0.62554 0.0
C709 C 0.20994 0.36904 0.63848 0.0
C710 C 0.23825 0.36244 0.64843 0.0
C711 C 0.2559 0.39438 0.73173 0.0
H712 H 0.2844 0.34337 0.73661 0.0
C713 C 0.30779 0.38828 0.84371 0.0
C714 C 0.32205 0.37838 0.83102 0.0
C715 C 0.29437 0.3884 0.81944 0.0
C716 C 0.27671 0.35791 0.73521 0.0
H717 H 0.19863 0.38751 0.68583 0.0
H718 H 0.22243 0.39083 0.72607 0.0
H719 H 0.26055 0.34113 0.69655 0.0
H720 H 0.33329 0.36103 0.78237 0.0
H721 H 0.31006 0.36163 0.73984 0.0
H722 H 0.27206 0.41106 0.77077 0.0
C723 C 0.22328 0.38245 0.69788 0.0
C724 C 0.26298 0.35662 0.71217 0.0
C725 C 0.20954 0.38031 0.67491 0.0
C726 C 0.32262 0.36905 0.79302 0.0
C727 C 0.30919 0.36912 0.76879 0.0
C728 C 0.26964 0.39566 0.75486 0.0
C729 C 0.23781 0.37336 0.68509 0.0
C730 C 0.25239 0.37485 0.70999 0.0
C731 C 0.29482 0.37855 0.78184 0.0
C732 C 0.28025 0.37744 0.75685 0.0
H733 H 0.22544 0.35128 0.59801 0.0
H734 H 0.24923 0.35552 0.63726 0.0
H735 H 0.24816 0.40886 0.73041 0.0
H736 H 0.30695 0.39578 0.87263 0.0
H737 H 0.2835 0.39567 0.83063 0.0
C738 C 0.208 0.64471 0.29848 0.0
C739 C 0.20884 0.64563 0.33977 0.0
C740 C 0.22185 0.64499 0.27562 0.0
C741 C 0.26397 0.66213 0.27796 0.0
H742 H 0.26874 0.62047 0.19111 0.0
C743 C 0.32321 0.6552 0.19265 0.0
C744 C 0.32259 0.65164 0.15175 0.0
C745 C 0.30951 0.65356 0.21586 0.0
C746 C 0.26757 0.63247 0.21488 0.0
H747 H 0.22497 0.648 0.38921 0.0
H748 H 0.24906 0.64858 0.34942 0.0
H749 H 0.24447 0.62004 0.23013 0.0
H750 H 0.30677 0.64279 0.10378 0.0
H751 H 0.28297 0.64081 0.14368 0.0
H752 H 0.28684 0.67497 0.26241 0.0
C753 C 0.23769 0.64759 0.33471 0.0
C754 C 0.25362 0.63216 0.23734 0.0
C755 C 0.22387 0.64704 0.35755 0.0
C756 C 0.30783 0.64598 0.13497 0.0
C757 C 0.29411 0.64454 0.1581 0.0
C758 C 0.27784 0.66261 0.25528 0.0
C759 C 0.23688 0.64649 0.29345 0.0
C760 C 0.25166 0.64695 0.26922 0.0
C761 C 0.29469 0.64849 0.19889 0.0
C762 C 0.2799 0.64776 0.2234 0.0
H763 H 0.19664 0.64344 0.28385 0.0
H764 H 0.22078 0.64429 0.24391 0.0
H765 H 0.26276 0.67397 0.30198 0.0
H766 H 0.33419 0.65978 0.20686 0.0
H767 H 0.31058 0.65633 0.24721 0.0
C768 C 0.95234 0.15752 0.12911 0.0
C769 C 0.94533 0.17367 0.10446 0.0
C770 C 0.96887 0.15453 0.12929 0.0
C771 C 1.0047 0.16479 0.0689 0.0
H772 H 0.02769 0.16475 0.16763 0.0
C773 C 0.07073 0.18675 0.07539 0.0
C774 C 0.08082 0.17513 0.10124 0.0
C775 C 0.05435 0.18349 0.07651 0.0
C776 C 0.02145 0.16435 0.13981 0.0
H777 H 0.9501 0.19878 0.05986 0.0
H778 H 0.97871 0.19359 0.06002 0.0
H779 H 0.99864 0.16421 0.16794 0.0
H780 H 0.08142 0.15086 0.14872 0.0
H781 H 0.0526 0.14497 0.1505 0.0
H782 H 0.02735 0.16521 0.04064 0.0
C783 C 0.97154 0.18323 0.0793 0.0
C784 C 1.0048 0.16406 0.14 0.0
C785 C 0.95513 0.18637 0.07947 0.0
C786 C 0.07402 0.16 0.12826 0.0
C787 C 0.0575 0.15677 0.12948 0.0
C788 C 0.02127 0.16499 0.0687 0.0
C789 C 0.97865 0.16738 0.10433 0.0
C790 C 0.99624 0.16487 0.10452 0.0
C791 C 0.04747 0.16843 0.10343 0.0
C792 C 0.02988 0.1654 0.10411 0.0
H793 H 0.9451 0.14759 0.14887 0.0
H794 H 0.97399 0.14213 0.14881 0.0
H795 H 0.99848 0.16494 0.04104 0.0
H796 H 0.07548 0.19827 0.05375 0.0
H797 H 0.04704 0.19306 0.05642 0.0
C798 C 0.58025 0.86568 0.62859 0.0
C799 C 0.58707 0.84792 0.60719 0.0
C800 C 0.56365 0.86783 0.63094 0.0
C801 C 0.5278 0.83219 0.62157 0.0
H802 H 0.50415 0.88783 0.61347 0.0
C803 C 0.46178 0.832 0.5862 0.0
C804 C 0.45144 0.84548 0.60858 0.0
C805 C 0.47818 0.83431 0.58946 0.0
C806 C 0.51063 0.87222 0.61632 0.0
H807 H 0.58198 0.8197 0.56899 0.0
H808 H 0.55335 0.82355 0.57245 0.0
H809 H 0.53331 0.88869 0.61176 0.0
H810 H 0.45061 0.87258 0.65129 0.0
H811 H 0.4795 0.87681 0.65647 0.0
H812 H 0.50533 0.81561 0.62525 0.0
C813 C 0.56063 0.8354 0.58858 0.0
C814 C 0.52731 0.8727 0.61532 0.0
C815 C 0.57706 0.83323 0.58644 0.0
C816 C 0.45812 0.86189 0.63356 0.0
C817 C 0.47468 0.86434 0.63656 0.0
C818 C 0.51127 0.83171 0.62241 0.0
C819 C 0.55366 0.85226 0.61182 0.0
C820 C 0.53607 0.85258 0.61685 0.0
C821 C 0.48487 0.85029 0.61493 0.0
C822 C 0.50245 0.85161 0.6188 0.0
H823 H 0.58771 0.8772 0.64492 0.0
H824 H 0.55866 0.88105 0.64898 0.0
H825 H 0.53414 0.81643 0.62403 0.0
H826 H 0.45728 0.81967 0.56568 0.0
H827 H 0.48569 0.82358 0.57169 0.0
C828 C 0.96209 0.83543 0.91056 0.0
C829 C 0.95183 0.85076 0.89219 0.0
C830 C 0.97828 0.83999 0.91392 0.0
C831 C 1.01081 0.87142 0.86788 0.0
H832 H 0.03341 0.85279 0.9616 0.0
C833 C 0.08006 0.8721 0.87885 0.0
C834 C 0.08633 0.85173 0.89278 0.0
C835 C 0.06372 0.87653 0.88204 0.0
C836 C 0.02731 0.8581 0.93519 0.0
H837 H 0.95052 0.88316 0.86347 0.0
H838 H 0.97908 0.89121 0.86908 0.0
H839 H 1.00452 0.85238 0.9611 0.0
H840 H 0.08063 0.82062 0.92268 0.0
H841 H 0.05242 0.82825 0.92849 0.0
H842 H 0.03372 0.87642 0.84161 0.0
C843 C 0.97448 0.87559 0.88086 0.0
C844 C 1.01073 0.85786 0.93489 0.0
C845 C 0.95814 0.87109 0.8779 0.0
C846 C 0.07611 0.83637 0.91137 0.0
C847 C 0.05994 0.84087 0.91499 0.0
C848 C 0.02747 0.87166 0.86817 0.0
C849 C 0.98476 0.86001 0.89883 0.0
C850 C 1.00225 0.86381 0.90085 0.0
C851 C 0.05345 0.86083 0.89991 0.0
C852 C 0.03592 0.8643 0.90145 0.0
H853 H 0.9576 0.81975 0.9223 0.0
H854 H 0.98581 0.82747 0.92748 0.0
H855 H 1.00467 0.87603 0.84111 0.0
H856 H 0.08767 0.88416 0.86423 0.0
H857 H 0.0591 0.89211 0.87028 0.0
C858 C 0.5715 0.19148 0.40189 0.0
C859 C 0.58135 0.17472 0.38612 0.0
C860 C 0.55504 0.18911 0.40147 0.0
C861 C 0.52164 0.14907 0.3907 0.0
H862 H 0.49901 0.20362 0.36365 0.0
C863 C 0.45234 0.156 0.36986 0.0
C864 C 0.44542 0.17528 0.38669 0.0
C865 C 0.46893 0.15341 0.36922 0.0
C866 C 0.50511 0.18825 0.3715 0.0
H867 H 0.5816 0.14176 0.3591 0.0
H868 H 0.55255 0.13757 0.35811 0.0
H869 H 0.5278 0.20354 0.36333 0.0
H870 H 0.45057 0.20601 0.41863 0.0
H871 H 0.47915 0.20163 0.41721 0.0
H872 H 0.49867 0.1339 0.39885 0.0
C873 C 0.55769 0.15258 0.37089 0.0
C874 C 0.52166 0.18821 0.37139 0.0
C875 C 0.57431 0.15496 0.37145 0.0
C876 C 0.45543 0.1913 0.40436 0.0
C877 C 0.47187 0.18876 0.40362 0.0
C878 C 0.50495 0.1491 0.39068 0.0
C879 C 0.54785 0.16993 0.38508 0.0
C880 C 0.53019 0.16883 0.38193 0.0
C881 C 0.47888 0.17008 0.38529 0.0
C882 C 0.49651 0.16889 0.38199 0.0
H883 H 0.57653 0.20663 0.4144 0.0
H884 H 0.54791 0.2025 0.41378 0.0
H885 H 0.52783 0.13385 0.39892 0.0
H886 H 0.44499 0.14335 0.35597 0.0
H887 H 0.47397 0.1388 0.35492 0.0
C888 C 0.45547 0.65035 0.12242 0.0
C889 C 0.44921 0.67087 0.10909 0.0
C890 C 0.47182 0.64596 0.11929 0.0
C891 C 0.5082 0.66484 0.06653 0.0
H892 H 0.53099 0.64476 0.15902 0.0
C893 C 0.57379 0.68551 0.09064 0.0
C894 C 0.58393 0.6696 0.10789 0.0
C895 C 0.55754 0.68141 0.08747 0.0
C896 C 0.5248 0.64999 0.13268 0.0
H897 H 0.45502 0.70233 0.08039 0.0
H898 H 0.48323 0.6948 0.07491 0.0
H899 H 0.50193 0.64499 0.15921 0.0
H900 H 0.58496 0.63667 0.13476 0.0
H901 H 0.55628 0.62943 0.12947 0.0
H902 H 0.53094 0.67052 0.04037 0.0
C903 C 0.47568 0.68204 0.08786 0.0
C904 C 0.50813 0.65011 0.13279 0.0
C905 C 0.45949 0.68648 0.09138 0.0
C906 C 0.57743 0.64918 0.12119 0.0
C907 C 0.56102 0.64514 0.11843 0.0
C908 C 0.52478 0.66473 0.06643 0.0
C909 C 0.48213 0.66185 0.10211 0.0
C910 C 0.49964 0.65822 0.10012 0.0
C911 C 0.55087 0.66129 0.10164 0.0
C912 C 0.53332 0.65797 0.09991 0.0
H913 H 0.44782 0.63806 0.13632 0.0
H914 H 0.4764 0.63019 0.1304 0.0
H915 H 0.50205 0.67072 0.04054 0.0
H916 H 0.57844 0.70129 0.0797 0.0
H917 H 0.55011 0.69435 0.07481 0.0
C918 C 0.07612 0.36795 0.60108 0.0
C919 C 0.08323 0.35323 0.62817 0.0
C920 C 0.05961 0.37138 0.60161 0.0
C921 C 0.02352 0.34126 0.63337 0.0
H922 H 1.00129 0.39754 0.61747 0.0
C923 C 0.95729 0.34602 0.66252 0.0
C924 C 0.94765 0.35617 0.634 0.0
C925 C 0.9737 0.34889 0.66187 0.0
C926 C 1.00736 0.38168 0.6216 0.0
H927 H 0.07892 0.3322 0.67897 0.0
H928 H 0.05044 0.3384 0.68045 0.0
H929 H 0.03047 0.39684 0.61621 0.0
H930 H 0.94754 0.37842 0.5837 0.0
H931 H 0.97656 0.38341 0.58222 0.0
H932 H 1.0007 0.32597 0.63871 0.0
C933 C 0.05738 0.34674 0.65794 0.0
C934 C 0.02405 0.38128 0.62087 0.0
C935 C 0.07372 0.34323 0.65723 0.0
C936 C 0.95472 0.37046 0.60608 0.0
C937 C 0.9713 0.37326 0.60524 0.0
C938 C 1.00699 0.34166 0.63411 0.0
C939 C 0.05 0.36021 0.62936 0.0
C940 C 0.03231 0.36108 0.62756 0.0
C941 C 0.981 0.36186 0.63242 0.0
C942 C 0.99866 0.3619 0.62904 0.0
H943 H 0.08319 0.37582 0.57833 0.0
H944 H 0.0543 0.3819 0.57922 0.0
H945 H 0.02943 0.32527 0.6374 0.0
H946 H 0.95212 0.33529 0.68484 0.0
H947 H 0.98074 0.34039 0.68394 0.0
C948 C 0.45422 0.37251 0.86913 0.0
C949 C 0.44701 0.35323 0.88519 0.0
C950 C 0.47083 0.37496 0.86984 0.0
C951 C 0.5064 0.33919 0.87428 0.0
H952 H 0.52993 0.39305 0.90167 0.0
C953 C 0.57212 0.33388 0.90963 0.0
C954 C 0.58253 0.34944 0.89223 0.0
C955 C 0.55577 0.33717 0.90855 0.0
C956 C 0.5235 0.37798 0.89351 0.0
H957 H 0.45141 0.32249 0.91748 0.0
H958 H 0.48005 0.32673 0.91889 0.0
H959 H 0.50075 0.39393 0.90026 0.0
H960 H 0.5839 0.38137 0.86184 0.0
H961 H 0.55501 0.38721 0.85988 0.0
H962 H 0.52886 0.3231 0.86778 0.0
C963 C 0.47306 0.33965 0.90468 0.0
C964 C 0.50681 0.37848 0.8927 0.0
C965 C 0.45662 0.33722 0.90391 0.0
C966 C 0.57617 0.36909 0.87547 0.0
C967 C 0.55965 0.3724 0.87433 0.0
C968 C 0.52293 0.33869 0.87507 0.0
C969 C 0.48044 0.35817 0.88665 0.0
C970 C 0.49809 0.35888 0.88405 0.0
C971 C 0.54926 0.35612 0.88996 0.0
C972 C 0.53171 0.35787 0.88566 0.0
H973 H 0.4471 0.38511 0.85453 0.0
H974 H 0.47617 0.38946 0.85581 0.0
H975 H 0.50009 0.32396 0.8664 0.0
H976 H 0.57663 0.31889 0.92374 0.0
H977 H 0.54815 0.32461 0.92188 0.0
C978 C 0.95874 0.68737 0.40984 0.0
C979 C 0.94845 0.67164 0.39245 0.0
C980 C 0.97502 0.68332 0.41197 0.0
C981 C 1.00736 0.6521 0.3645 0.0
H982 H 0.03079 0.67202 0.45626 0.0
C983 C 0.07666 0.64977 0.37425 0.0
C984 C 0.08351 0.66988 0.388 0.0
C985 C 0.0602 0.64625 0.37705 0.0
C986 C 0.02445 0.6664 0.43035 0.0
H987 H 0.94721 0.63907 0.36416 0.0
H988 H 0.97589 0.63191 0.3678 0.0
H989 H 1.00191 0.67232 0.45731 0.0
H990 H 0.07852 0.70158 0.41683 0.0
H991 H 0.05009 0.69555 0.42165 0.0
H992 H 0.03003 0.64672 0.33728 0.0
C993 C 0.97126 0.64746 0.37968 0.0
C994 C 1.00788 0.66657 0.43095 0.0
C995 C 0.95484 0.65146 0.37787 0.0
C996 C 0.07362 0.68604 0.4055 0.0
C997 C 0.05731 0.68245 0.40866 0.0
C998 C 0.02402 0.6519 0.36392 0.0
C999 C 0.98155 0.66342 0.39669 0.0
C1000 C 0.9991 0.66006 0.39767 0.0
C1001 C 0.05033 0.66261 0.39427 0.0
C1002 C 0.03276 0.65968 0.39647 0.0
H1003 H 0.95421 0.70294 0.42182 0.0
H1004 H 0.98255 0.69614 0.42482 0.0
H1005 H 1.00099 0.64707 0.33829 0.0
H1006 H 0.08397 0.63706 0.36047 0.0
H1007 H 0.0552 0.63073 0.36583 0.0
C1008 C 0.11836 0.08779 0.02279 0.0
C1009 C 0.12905 0.09741 0.04979 0.0
C1010 C 0.12038 0.06566 0.00963 0.0
C1011 C 0.15098 0.02102 0.0014 0.0
H1012 H 0.11491 0.98175 0.98345 0.0
C1013 C 0.15831 0.92594 0.97951 0.0
C1014 C 0.14954 0.91523 0.94967 0.0
C1015 C 0.15529 0.94822 0.9898 0.0
C1016 C 0.12508 0.99261 0.98786 0.0
H1017 H 0.15002 0.09098 0.08486 0.0
H1018 H 0.15337 0.05235 0.06257 0.0
H1019 H 0.1106 0.02023 0.00636 0.0
H1020 H 0.1305 0.91965 0.9076 0.0
H1021 H 0.12512 0.95887 0.92593 0.0
H1022 H 0.16546 0.99333 0.98355 0.0
C1023 C 0.14361 0.06205 0.05081 0.0
C1024 C 0.12263 0.01469 0.00102 0.0
C1025 C 0.14163 0.0842 0.06385 0.0
C1026 C 0.13749 0.9274 0.93064 0.0
C1027 C 0.13437 0.94981 0.94125 0.0
C1028 C 0.15342 0.99898 0.98849 0.0
C1029 C 0.1331 0.05252 0.02322 0.0
C1030 C 0.13557 0.02913 0.00834 0.0
C1031 C 0.14336 0.96052 0.97074 0.0
C1032 C 0.14053 0.98441 0.98195 0.0
H1033 H 0.10855 0.09746 0.01121 0.0
H1034 H 0.11215 0.05905 0.98808 0.0
H1035 H 0.16122 0.03175 0.00571 0.0
H1036 H 0.16767 0.91716 0.99493 0.0
H1037 H 0.16226 0.9558 0.01306 0.0
C1038 C 0.39155 0.93684 0.5626 0.0
C1039 C 0.40453 0.923 0.5533 0.0
C1040 C 0.39047 0.95864 0.54711 0.0
C1041 C 0.39482 1.00815 0.52348 0.0
H1042 H 0.40632 0.01434 0.4136 0.0
C1043 C 0.39516 0.09432 0.44184 0.0
C1044 C 0.38869 0.09426 0.40372 0.0
C1045 C 0.39788 0.07404 0.46178 0.0
C1046 C 0.40301 0.01293 0.44427 0.0
H1047 H 0.42689 0.92167 0.52171 0.0
H1048 H 0.42507 0.95951 0.49519 0.0
H1049 H 0.40923 0.97813 0.44589 0.0
H1050 H 0.38008 0.07276 0.35672 0.0
H1051 H 0.38473 0.03771 0.39131 0.0
H1052 H 0.38821 0.04296 0.52134 0.0
C1053 C 0.41556 0.95344 0.51381 0.0
C1054 C 0.40484 0.99219 0.46295 0.0
C1055 C 0.41664 0.93173 0.52925 0.0
C1056 C 0.38516 0.0735 0.38594 0.0
C1057 C 0.3879 0.05332 0.40575 0.0
C1058 C 0.39302 0.029 0.50474 0.0
C1059 C 0.40235 0.96705 0.52195 0.0
C1060 C 0.40071 0.98947 0.50274 0.0
C1061 C 0.39426 0.05329 0.44394 0.0
C1062 C 0.39696 0.03157 0.46478 0.0
H1063 H 0.38203 0.9307 0.58112 0.0
H1064 H 0.38009 0.96861 0.55381 0.0
H1065 H 0.39164 1.00669 0.55423 0.0
H1066 H 0.39798 0.11002 0.45643 0.0
H1067 H 0.40293 0.0746 0.49104 0.0
C1068 C 0.89844 0.92025 -0.00048 0.0
C1069 C 0.89549 0.91502 0.95991 0.0
C1070 C 0.89952 0.94252 0.01196 0.0
C1071 C 0.90477 1.00167 0.98305 0.0
H1072 H 0.87914 0.01201 0.07603 0.0
C1073 C 0.89259 0.0906 0.05176 0.0
C1074 C 0.89185 0.09157 0.09307 0.0
C1075 C 0.89424 0.06986 0.0324 0.0
C1076 C 0.88654 1.00945 0.05037 0.0
H1077 H 0.89238 0.92914 0.90171 0.0
H1078 H 0.89424 0.96853 0.92372 0.0
H1079 H 0.88021 0.97472 0.04731 0.0
H1080 H 0.89327 0.0717 0.14638 0.0
H1081 H 0.89648 0.03592 0.11298 0.0
H1082 H 0.91117 0.03664 0.98662 0.0
C1083 C 0.89571 0.95517 0.94503 0.0
C1084 C 0.88711 0.98803 0.0338 0.0
C1085 C 0.89466 0.93266 0.93244 0.0
C1086 C 0.89356 0.07156 0.11454 0.0
C1087 C 0.8953 0.05097 0.09532 0.0
C1088 C 0.90426 0.02327 -0.00014 0.0
C1089 C 0.89761 0.96028 0.98522 0.0
C1090 C 0.89644 0.98372 0.00041 0.0
C1091 C 0.89522 0.04972 0.05401 0.0
C1092 C 0.89535 0.02729 0.03422 0.0
H1093 H 0.89942 0.90708 0.02137 0.0
H1094 H 0.9014 0.94585 0.04293 0.0
H1095 H 0.91205 0.99886 0.95726 0.0
H1096 H 0.89128 0.10573 0.03435 0.0
H1097 H 0.89411 0.06952 0.00057 0.0
C1098 C 0.62992 0.097 0.49543 0.0
C1099 C 0.63421 0.10329 0.45703 0.0
C1100 C 0.6283 0.07437 0.50566 0.0
C1101 C 0.62557 0.01609 0.46561 0.0
H1102 H 0.64441 1.00041 0.56595 0.0
C1103 C 0.64566 0.9262 0.50401 0.0
C1104 C 0.64401 0.91824 0.54276 0.0
C1105 C 0.64177 0.94832 0.49435 0.0
C1106 C 0.63883 1.00448 0.53818 0.0
H1107 H 0.63945 0.09074 0.39869 0.0
H1108 H 0.63688 0.05101 0.41664 0.0
H1109 H 0.64264 0.03968 0.54662 0.0
H1110 H 0.63644 0.92721 0.60156 0.0
H1111 H 0.62963 0.96616 0.58468 0.0
H1112 H 0.62222 0.98071 0.45684 0.0
C1113 C 0.63456 0.06365 0.43883 0.0
C1114 C 0.63781 0.02707 0.52699 0.0
C1115 C 0.63605 0.08642 0.42847 0.0
C1116 C 0.63787 0.93283 0.57148 0.0
C1117 C 0.63407 0.95515 0.56182 0.0
C1118 C 0.62664 0.99346 0.47677 0.0
C1119 C 0.63108 0.05732 0.47789 0.0
C1120 C 0.63131 0.03321 0.49037 0.0
C1121 C 0.63616 0.96323 0.52317 0.0
C1122 C 0.63348 0.98734 0.513 0.0
H1123 H 0.62822 0.1096 0.51804 0.0
H1124 H 0.62517 0.07025 0.5357 0.0
H1125 H 0.62027 0.02015 0.43751 0.0
H1126 H 0.65027 0.91544 0.48099 0.0
H1127 H 0.64373 0.95394 0.46445 0.0
C1128 C 0.63637 0.58823 0.07126 0.0
C1129 C 0.64164 0.60353 0.04258 0.0
C1130 C 0.63342 0.5657 0.0613 0.0
C1131 C 0.62675 0.52701 0.97662 0.0
H1132 H 0.64602 0.4826 0.04468 0.0
C1133 C 0.63865 0.43458 0.92817 0.0
C1134 C 0.63829 0.41786 0.95731 0.0
C1135 C 0.63651 0.45727 0.93834 0.0
C1136 C 0.64027 0.49465 0.02559 0.0
H1137 H 0.64715 0.60736 0.98057 0.0
H1138 H 0.642 0.56838 0.96342 0.0
H1139 H 0.64635 0.52195 0.06376 0.0
H1140 H 0.63418 0.41153 0.01924 0.0
H1141 H 0.62987 0.45065 0.03661 0.0
H1142 H 0.62081 0.49966 0.93821 0.0
C1143 C 0.64013 0.57366 0.99355 0.0
C1144 C 0.64048 0.51729 0.03662 0.0
C1145 C 0.6432 0.59603 0.00352 0.0
C1146 C 0.63477 0.42408 0.9962 0.0
C1147 C 0.63242 0.44658 0.00622 0.0
C1148 C 0.62645 0.50428 0.96565 0.0
C1149 C 0.63549 0.55809 0.02238 0.0
C1150 C 0.63389 0.53381 0.01211 0.0
C1151 C 0.63379 0.46361 0.97776 0.0
C1152 C 0.63333 0.48779 0.98984 0.0
H1153 H 0.63502 0.59347 0.10158 0.0
H1154 H 0.6297 0.55416 0.08416 0.0
H1155 H 0.62143 0.53929 0.95721 0.0
H1156 H 0.64142 0.43027 0.89799 0.0
H1157 H 0.63772 0.46989 0.91559 0.0
C1158 C 0.89458 0.43532 0.58124 0.0
C1159 C 0.88828 0.42008 0.55375 0.0
C1160 C 0.89777 0.45767 0.57031 0.0
C1161 C 0.90347 0.49507 0.48348 0.0
H1162 H 0.88675 0.54139 0.55189 0.0
C1163 C 0.89234 0.58693 0.43146 0.0
C1164 C 0.89365 0.60423 0.45941 0.0
C1165 C 0.89425 0.56438 0.44277 0.0
C1166 C 0.89179 0.52879 0.53264 0.0
H1167 H 0.88113 0.41612 0.49281 0.0
H1168 H 0.88671 0.45467 0.47401 0.0
H1169 H 0.88602 0.50236 0.57297 0.0
H1170 H 0.89916 0.61162 0.52031 0.0
H1171 H 0.90305 0.57271 0.53957 0.0
H1172 H 0.90911 0.5215 0.44294 0.0
C1173 C 0.8892 0.44954 0.50393 0.0
C1174 C 0.89135 0.50633 0.54483 0.0
C1175 C 0.88587 0.42741 0.51488 0.0
C1176 C 0.89784 0.59864 0.49818 0.0
C1177 C 0.89995 0.57626 0.50932 0.0
C1178 C 0.90401 0.51758 0.47136 0.0
C1179 C 0.89494 0.46508 0.53157 0.0
C1180 C 0.89698 0.48914 0.52021 0.0
C1181 C 0.89769 0.55872 0.48215 0.0
C1182 C 0.898 0.53476 0.49559 0.0
H1183 H 0.89659 0.43019 0.61137 0.0
H1184 H 0.90231 0.4692 0.59225 0.0
H1185 H 0.90806 0.48225 0.46395 0.0
H1186 H 0.88904 0.59072 0.40142 0.0
H1187 H 0.89233 0.55137 0.421 0.0
C1188 C 0.39249 0.42833 0.9842 0.0
C1189 C 0.39008 0.42347 0.94423 0.0
C1190 C 0.39552 0.45027 0.9967 0.0
C1191 C 0.40492 0.50862 0.96244 0.0
H1192 H 0.38303 0.52489 0.05868 0.0
C1193 C 0.38912 0.59994 0.00487 0.0
C1194 C 0.39009 0.60654 0.04454 0.0
C1195 C 0.39204 0.57773 0.9937 0.0
C1196 C 0.38946 0.52059 0.03214 0.0
H1197 H 0.38964 0.43762 0.88568 0.0
H1198 H 0.39445 0.47635 0.90749 0.0
H1199 H 0.38259 0.48612 0.03629 0.0
H1200 H 0.39544 0.59505 0.10346 0.0
H1201 H 0.40038 0.55592 0.08395 0.0
H1202 H 0.41117 0.54351 0.95775 0.0
C1203 C 0.39432 0.46308 0.92926 0.0
C1204 C 0.38924 0.49826 0.0192 0.0
C1205 C 0.39155 0.4409 0.91665 0.0
C1206 C 0.39459 0.59049 0.0727 0.0
C1207 C 0.39733 0.56809 0.06153 0.0
C1208 C 0.40501 0.53103 0.97526 0.0
C1209 C 0.3959 0.46815 0.96965 0.0
C1210 C 0.39688 0.49192 0.98402 0.0
C1211 C 0.39587 0.5614 0.02192 0.0
C1212 C 0.39715 0.53732 0.0101 0.0
H1213 H 0.39164 0.41515 0.0061 0.0
H1214 H 0.39719 0.45325 0.02783 0.0
H1215 H 0.41114 0.50441 0.93558 0.0
H1216 H 0.38578 0.61189 0.98233 0.0
H1217 H 0.39066 0.57317 0.96305 0.0
C1218 C 0.13798 0.58345 0.42491 0.0
C1219 C 0.13691 0.60054 0.45329 0.0
C1220 C 0.13594 0.56084 0.43572 0.0
C1221 C 0.13866 0.52456 0.52447 0.0
H1222 H 0.12162 0.47872 0.4553 0.0
C1223 C 0.13578 0.43077 0.57065 0.0
C1224 C 0.14174 0.41571 0.54245 0.0
C1225 C 0.13262 0.4532 0.56046 0.0
C1226 C 0.12643 0.49134 0.47495 0.0
H1227 H 0.13169 0.60752 0.5145 0.0
H1228 H 0.12759 0.56849 0.53295 0.0
H1229 H 0.12065 0.51816 0.43542 0.0
H1230 H 0.14836 0.41218 0.48105 0.0
H1231 H 0.14286 0.45093 0.46351 0.0
H1232 H 0.1446 0.49774 0.56375 0.0
C1233 C 0.13059 0.57226 0.5027 0.0
C1234 C 0.12593 0.51396 0.46348 0.0
C1235 C 0.13282 0.5947 0.49203 0.0
C1236 C 0.14387 0.42333 0.50364 0.0
C1237 C 0.14059 0.44556 0.49342 0.0
C1238 C 0.13907 0.50199 0.536 0.0
C1239 C 0.13262 0.55492 0.47505 0.0
C1240 C 0.13221 0.53088 0.48789 0.0
C1241 C 0.13517 0.4609 0.52177 0.0
C1242 C 0.13318 0.48506 0.51117 0.0
H1243 H 0.14121 0.58742 0.39487 0.0
H1244 H 0.13768 0.54798 0.4136 0.0
H1245 H 0.14391 0.53697 0.54381 0.0
H1246 H 0.13399 0.42542 0.60077 0.0
H1247 H 0.12833 0.46457 0.58293 0.0
C1248 C 0.16588 0.3489 0.7436 0.0
C1249 C 0.15132 0.34908 0.72375 0.0
C1250 C 0.16702 0.3393 0.78101 0.0
C1251 C 0.14376 0.31102 0.86104 0.0
H1252 H 0.17872 0.26875 0.85779 0.0
C1253 C 0.14276 0.22721 0.94586 0.0
C1254 C 0.15676 0.22024 0.96467 0.0
C1255 C 0.14282 0.24588 0.92092 0.0
C1256 C 0.16903 0.28064 0.8596 0.0
H1257 H 0.12638 0.34104 0.72794 0.0
H1258 H 0.12824 0.32427 0.79303 0.0
H1259 H 0.1775 0.29893 0.80988 0.0
H1260 H 0.18187 0.22715 0.97133 0.0
H1261 H 0.18199 0.25976 0.92765 0.0
H1262 H 0.13501 0.29196 0.90995 0.0
C1263 C 0.13878 0.33184 0.7805 0.0
C1264 C 0.16836 0.2981 0.83222 0.0
C1265 C 0.13765 0.34162 0.74324 0.0
C1266 C 0.17088 0.23213 0.95736 0.0
C1267 C 0.17096 0.25076 0.93224 0.0
C1268 C 0.1444 0.29346 0.88837 0.0
C1269 C 0.15366 0.32933 0.79876 0.0
C1270 C 0.15555 0.31327 0.83203 0.0
C1271 C 0.15689 0.25799 0.91408 0.0
C1272 C 0.15688 0.27779 0.8874 0.0
H1273 H 0.17664 0.35414 0.72872 0.0
H1274 H 0.1786 0.3381 0.79462 0.0
H1275 H 0.13383 0.32253 0.86207 0.0
H1276 H 0.13162 0.21865 0.95132 0.0
H1277 H 0.13183 0.25079 0.90689 0.0
C1278 C 0.3736 0.80326 0.43339 0.0
C1279 C 0.37632 0.79965 0.47362 0.0
C1280 C 0.3741 0.78525 0.40688 0.0
C1281 C 0.39085 0.72874 0.3934 0.0
H1282 H 0.3586 0.72325 0.3128 0.0
C1283 C 0.39774 0.68127 0.24642 0.0
C1284 C 0.38405 0.67228 0.22899 0.0
C1285 C 0.39693 0.69136 0.28352 0.0
C1286 C 0.36757 0.72427 0.33554 0.0
H1287 H 0.38213 0.77447 0.51744 0.0
H1288 H 0.38296 0.74315 0.47125 0.0
H1289 H 0.35668 0.75323 0.36138 0.0
H1290 H 0.35922 0.66484 0.23771 0.0
H1291 H 0.35779 0.68194 0.30288 0.0
H1292 H 0.40194 0.70005 0.36681 0.0
C1293 C 0.38036 0.75982 0.46022 0.0
C1294 C 0.36658 0.74167 0.36299 0.0
C1295 C 0.3797 0.77774 0.4867 0.0
C1296 C 0.36998 0.6713 0.25086 0.0
C1297 C 0.36912 0.68142 0.28789 0.0
C1298 C 0.39193 0.71142 0.36564 0.0
C1299 C 0.37754 0.76335 0.42004 0.0
C1300 C 0.3783 0.74427 0.39193 0.0
C1301 C 0.38235 0.69278 0.30347 0.0
C1302 C 0.38037 0.70912 0.33617 0.0
H1303 H 0.37099 0.81995 0.42248 0.0
H1304 H 0.37204 0.7885 0.37598 0.0
H1305 H 0.40011 0.73039 0.4153 0.0
H1306 H 0.40861 0.68275 0.22959 0.0
H1307 H 0.40732 0.70002 0.29459 0.0
C1308 C 0.1301 0.78216 0.03818 0.0
C1309 C 0.1453 0.78702 0.02341 0.0
C1310 C 0.12774 0.76387 0.06344 0.0
C1311 C 0.14663 0.7105 0.09564 0.0
H1312 H 0.12066 0.71797 0.18872 0.0
C1313 C 0.15641 0.66431 0.24055 0.0
C1314 C 0.14366 0.66154 0.26655 0.0
C1315 C 0.15392 0.67328 0.20313 0.0
C1316 C 0.12763 0.7153 0.16237 0.0
H1317 H 0.17001 0.77705 0.02474 0.0
H1318 H 0.16596 0.74547 0.06913 0.0
H1319 H 0.12176 0.74786 0.14007 0.0
H1320 H 0.11823 0.66404 0.27327 0.0
H1321 H 0.11374 0.67934 0.2074 0.0
H1322 H 0.15305 0.67831 0.11896 0.0
C1323 C 0.15577 0.75534 0.06041 0.0
C1324 C 0.12832 0.73254 0.13452 0.0
C1325 C 0.15812 0.77355 0.03519 0.0
C1326 C 0.12819 0.66556 0.25326 0.0
C1327 C 0.12568 0.67469 0.21585 0.0
C1328 C 0.14597 0.69326 0.12354 0.0
C1329 C 0.14053 0.75008 0.07449 0.0
C1330 C 0.13821 0.73064 0.10143 0.0
C1331 C 0.13864 0.67991 0.19137 0.0
C1332 C 0.13682 0.69573 0.15782 0.0
H1333 H 0.11995 0.79203 0.0292 0.0
H1334 H 0.11583 0.76023 0.07363 0.0
H1335 H 0.15408 0.70828 0.06998 0.0
H1336 H 0.16847 0.66182 0.25062 0.0
H1337 H 0.16419 0.67718 0.18524 0.0
C1338 C 0.37095 0.35463 0.73886 0.0
C1339 C 0.38451 0.35409 0.76266 0.0
C1340 C 0.37073 0.34318 0.70297 0.0
C1341 C 0.39447 0.30941 0.63199 0.0
H1342 H 0.35828 0.26918 0.63742 0.0
C1343 C 0.39197 0.22637 0.54339 0.0
C1344 C 0.37731 0.22011 0.52693 0.0
C1345 C 0.39298 0.24439 0.56977 0.0
C1346 C 0.36833 0.28044 0.63486 0.0
H1347 H 0.40886 0.34304 0.76648 0.0
H1348 H 0.40867 0.32339 0.70347 0.0
H1349 H 0.36001 0.30078 0.68229 0.0
H1350 H 0.35211 0.22741 0.52672 0.0
H1351 H 0.3539 0.25908 0.57157 0.0
H1352 H 0.40284 0.28886 0.5846 0.0
C1353 C 0.39822 0.33273 0.71214 0.0
C1354 C 0.3693 0.29867 0.66059 0.0
C1355 C 0.3984 0.34418 0.74808 0.0
C1356 C 0.36363 0.23189 0.53846 0.0
C1357 C 0.36465 0.24998 0.56455 0.0
C1358 C 0.39344 0.29123 0.6059 0.0
C1359 C 0.38406 0.33088 0.69052 0.0
C1360 C 0.38242 0.31328 0.65972 0.0
C1361 C 0.37936 0.25667 0.58022 0.0
C1362 C 0.38041 0.27636 0.60728 0.0
H1363 H 0.36001 0.36179 0.74982 0.0
H1364 H 0.35973 0.34238 0.68659 0.0
H1365 H 0.40473 0.32037 0.63063 0.0
H1366 H 0.40279 0.21787 0.53486 0.0
H1367 H 0.40447 0.24877 0.5818 0.0
C1368 C 0.87806 0.65955 0.24551 0.0
C1369 C 0.88954 0.66619 0.27295 0.0
C1370 C 0.87909 0.66696 0.20646 0.0
C1371 C 0.90416 0.70254 0.13826 0.0
H1372 H 0.8631 0.72504 0.10541 0.0
C1373 C 0.89294 0.7862 0.05623 0.0
C1374 C 0.88545 0.78435 0.01935 0.0
C1375 C 0.89414 0.76758 0.08111 0.0
C1376 C 0.87461 0.71862 0.11398 0.0
H1377 H 0.91156 0.68418 0.28124 0.0
H1378 H 0.91336 0.69735 0.21413 0.0
H1379 H 0.86461 0.69742 0.15809 0.0
H1380 H 0.87343 0.76092 0.98013 0.0
H1381 H 0.87471 0.72897 0.02492 0.0
H1382 H 0.91406 0.72545 0.09604 0.0
C1383 C 0.90372 0.68608 0.22153 0.0
C1384 C 0.87553 0.70258 0.14394 0.0
C1385 C 0.90276 0.67847 0.26022 0.0
C1386 C 0.87896 0.76334 0.00852 0.0
C1387 C 0.87984 0.74488 0.03389 0.0
C1388 C 0.90323 0.71898 0.10896 0.0
C1389 C 0.89144 0.68151 0.19461 0.0
C1390 C 0.89035 0.69479 0.15739 0.0
C1391 C 0.88758 0.74682 0.07016 0.0
C1392 C 0.88847 0.7275 0.09731 0.0
H1393 H 0.86759 0.65044 0.255 0.0
H1394 H 0.86961 0.66259 0.18639 0.0
H1395 H 0.91576 0.6966 0.14693 0.0
H1396 H 0.89781 0.80206 0.06619 0.0
H1397 H 0.89998 0.76948 0.10931 0.0
C1398 C 0.65531 0.25355 0.51326 0.0
C1399 C 0.64775 0.23311 0.52301 0.0
C1400 C 0.65436 0.27218 0.53828 0.0
C1401 C 0.62957 0.2991 0.61068 0.0
H1402 H 0.66781 0.32114 0.6609 0.0
C1403 C 0.62905 0.33999 0.76149 0.0
C1404 C 0.64205 0.35267 0.7744 0.0
C1405 C 0.62835 0.33222 0.72287 0.0
C1406 C 0.65701 0.31583 0.64641 0.0
H1407 H 0.63347 0.2165 0.56768 0.0
H1408 H 0.63125 0.24935 0.61014 0.0
H1409 H 0.66973 0.29317 0.60882 0.0
H1410 H 0.66388 0.36889 0.75684 0.0
H1411 H 0.66237 0.35631 0.68835 0.0
H1412 H 0.61675 0.32165 0.64782 0.0
C1413 C 0.63794 0.25073 0.58302 0.0
C1414 C 0.65815 0.2996 0.61679 0.0
C1415 C 0.63919 0.23194 0.55853 0.0
C1416 C 0.65358 0.35946 0.7472 0.0
C1417 C 0.65285 0.35184 0.70823 0.0
C1418 C 0.62842 0.31571 0.63964 0.0
C1419 C 0.6455 0.27097 0.57309 0.0
C1420 C 0.64442 0.29053 0.59979 0.0
C1421 C 0.6407 0.33699 0.69622 0.0
C1422 C 0.64207 0.32361 0.65918 0.0
H1423 H 0.66172 0.25544 0.48587 0.0
H1424 H 0.66028 0.28767 0.53008 0.0
H1425 H 0.61883 0.29253 0.59746 0.0
H1426 H 0.6202 0.33418 0.78233 0.0
H1427 H 0.61887 0.32071 0.71531 0.0
C1428 C 0.88894 0.22235 0.95137 0.0
C1429 C 0.87437 0.21539 0.96747 0.0
C1430 C 0.88967 0.24063 0.92554 0.0
C1431 C 0.86474 0.27613 0.86065 0.0
H1432 H 0.90028 0.31749 0.86756 0.0
C1433 C 0.86734 0.35025 0.75644 0.0
C1434 C 0.88134 0.35054 0.73423 0.0
C1435 C 0.86676 0.33878 0.79226 0.0
C1436 C 0.89026 0.30613 0.86541 0.0
H1437 H 0.84904 0.22172 0.96768 0.0
H1438 H 0.85033 0.2538 0.92347 0.0
H1439 H 0.89856 0.28574 0.91302 0.0
H1440 H 0.90604 0.34092 0.73316 0.0
H1441 H 0.9052 0.32114 0.79596 0.0
H1442 H 0.85654 0.29623 0.81285 0.0
C1443 C 0.86122 0.24506 0.93048 0.0
C1444 C 0.88933 0.28782 0.89121 0.0
C1445 C 0.86049 0.22673 0.95611 0.0
C1446 C 0.89521 0.34141 0.75035 0.0
C1447 C 0.89466 0.32988 0.78617 0.0
C1448 C 0.86563 0.29446 0.83512 0.0
C1449 C 0.87584 0.25246 0.91525 0.0
C1450 C 0.87664 0.27242 0.88881 0.0
C1451 C 0.88017 0.32722 0.80618 0.0
C1452 C 0.87847 0.30956 0.83688 0.0
H1453 H 0.8999 0.21423 0.95983 0.0
H1454 H 0.9011 0.24556 0.91382 0.0
H1455 H 0.85495 0.26447 0.85742 0.0
H1456 H 0.85645 0.35683 0.74423 0.0
H1457 H 0.8555 0.33739 0.80739 0.0
C1458 C 0.66293 0.7777 0.45764 0.0
C1459 C 0.64972 0.78917 0.47281 0.0
C1460 C 0.66092 0.75887 0.43358 0.0
C1461 C 0.63219 0.73184 0.36747 0.0
H1462 H 0.6615 0.68181 0.37413 0.0
C1463 C 0.63262 0.66675 0.24553 0.0
C1464 C 0.64776 0.66552 0.22862 0.0
C1465 C 0.63082 0.67488 0.28393 0.0
C1466 C 0.65313 0.69556 0.3721 0.0
H1467 H 0.624 0.7896 0.47498 0.0
H1468 H 0.6205 0.75687 0.4326 0.0
H1469 H 0.66242 0.71156 0.42362 0.0
H1470 H 0.67287 0.66973 0.23894 0.0
H1471 H 0.66989 0.68333 0.30582 0.0
H1472 H 0.62336 0.71649 0.31509 0.0
C1473 C 0.63242 0.76258 0.43905 0.0
C1474 C 0.65373 0.71267 0.40028 0.0
C1475 C 0.63443 0.78144 0.46313 0.0
C1476 C 0.66112 0.67009 0.25178 0.0
C1477 C 0.65936 0.678 0.29013 0.0
C1478 C 0.6316 0.71476 0.33931 0.0
C1479 C 0.64564 0.75101 0.42414 0.0
C1480 C 0.64361 0.73137 0.39752 0.0
C1481 C 0.64415 0.68184 0.30574 0.0
C1482 C 0.64241 0.69679 0.34053 0.0
H1483 H 0.67486 0.78336 0.46423 0.0
H1484 H 0.67136 0.75066 0.42187 0.0
H1485 H 0.62429 0.74606 0.3643 0.0
H1486 H 0.62215 0.66376 0.2278 0.0
H1487 H 0.61896 0.67738 0.29536 0.0
C1488 C 0.6408 0.73078 0.9409 0.0
C1489 C 0.64627 0.73413 0.97958 0.0
C1490 C 0.63908 0.74896 0.91519 0.0
C1491 C 0.65602 0.80042 0.88657 0.0
H1492 H 0.61544 0.81619 0.84082 0.0
C1493 C 0.6546 0.8584 0.75296 0.0
C1494 C 0.64505 0.84997 0.72265 0.0
C1495 C 0.65238 0.85081 0.79162 0.0
C1496 C 0.6269 0.812 0.85312 0.0
H1497 H 0.65373 0.75978 0.02145 0.0
H1498 H 0.65166 0.79108 0.97555 0.0
H1499 H 0.61666 0.78795 0.89286 0.0
H1500 H 0.62511 0.82856 0.70854 0.0
H1501 H 0.62132 0.81508 0.77491 0.0
H1502 H 0.66656 0.82278 0.84504 0.0
C1503 C 0.64857 0.77431 0.96565 0.0
C1504 C 0.62753 0.79591 0.88303 0.0
C1505 C 0.64994 0.75625 0.99169 0.0
C1506 C 0.63245 0.83552 0.73176 0.0
C1507 C 0.6303 0.82781 0.77004 0.0
C1508 C 0.65546 0.81611 0.85601 0.0
C1509 C 0.64309 0.77079 0.92731 0.0
C1510 C 0.64214 0.78965 0.89926 0.0
C1511 C 0.64074 0.83443 0.80021 0.0
C1512 C 0.64092 0.82162 0.83798 0.0
H1513 H 0.63807 0.71409 0.93014 0.0
H1514 H 0.63499 0.74591 0.88546 0.0
H1515 H 0.66742 0.79576 0.89878 0.0
H1516 H 0.66456 0.8693 0.74631 0.0
H1517 H 0.66042 0.8567 0.8142 0.0
C1518 C 0.90316 0.17445 0.24408 0.0
C1519 C 0.88741 0.17312 0.23109 0.0
C1520 C 0.90656 0.1835 0.28117 0.0
C1521 C 0.90812 0.22365 0.33707 0.0
H1522 H 0.88157 0.21788 0.42962 0.0
C1523 C 0.89508 0.29719 0.44257 0.0
C1524 C 0.8933 0.29257 0.48281 0.0
C1525 C 0.89754 0.27968 0.41575 0.0
C1526 C 0.88929 0.21953 0.40433 0.0
H1527 H 0.86286 0.17847 0.24676 0.0
H1528 H 0.86866 0.1936 0.31172 0.0
H1529 H 0.88025 0.18933 0.37825 0.0
H1530 H 0.89381 0.26616 0.52682 0.0
H1531 H 0.89798 0.2357 0.48008 0.0
H1532 H 0.91675 0.25428 0.36253 0.0
C1533 C 0.87843 0.18772 0.29378 0.0
C1534 C 0.88847 0.20322 0.37484 0.0
C1535 C 0.87507 0.17904 0.25664 0.0
C1536 C 0.89471 0.27021 0.49585 0.0
C1537 C 0.89716 0.25276 0.46912 0.0
C1538 C 0.90889 0.24003 0.3665 0.0
C1539 C 0.89422 0.19107 0.30569 0.0
C1540 C 0.89753 0.20546 0.34038 0.0
C1541 C 0.89831 0.25723 0.4287 0.0
C1542 C 0.89915 0.23848 0.39992 0.0
H1543 H 0.91284 0.17037 0.22435 0.0
H1544 H 0.91884 0.18578 0.28971 0.0
H1545 H 0.91513 0.22599 0.31068 0.0
H1546 H 0.89401 0.31422 0.43164 0.0
H1547 H 0.8982 0.28366 0.38473 0.0
C1548 C 0.65921 0.16958 0.24938 0.0
C1549 C 0.64556 0.16473 0.27137 0.0
C1550 C 0.65794 0.1776 0.21097 0.0
C1551 C 0.63009 0.21321 0.15844 0.0
H1552 H 0.66253 0.21164 0.07768 0.0
C1553 C 0.63194 0.27819 0.03221 0.0
C1554 C 0.64692 0.28753 0.02392 0.0
C1555 C 0.6305 0.25942 0.05669 0.0
C1556 C 0.65339 0.21229 0.10003 0.0
H1557 H 0.61998 0.16248 0.26986 0.0
H1558 H 0.61767 0.17599 0.20208 0.0
H1559 H 0.66178 0.18227 0.12784 0.0
H1560 H 0.67213 0.28441 0.03506 0.0
H1561 H 0.66963 0.25175 0.078 0.0
H1562 H 0.62203 0.24361 0.13158 0.0
C1563 C 0.62938 0.17382 0.21457 0.0
C1564 C 0.65291 0.1954 0.12865 0.0
C1565 C 0.63068 0.16569 0.2531 0.0
C1566 C 0.66044 0.27754 0.04056 0.0
C1567 C 0.659 0.25874 0.06501 0.0
C1568 C 0.63054 0.23002 0.12979 0.0
C1569 C 0.64295 0.18116 0.194 0.0
C1570 C 0.64153 0.19602 0.15892 0.0
C1571 C 0.64402 0.24947 0.07342 0.0
C1572 C 0.64247 0.23013 0.10092 0.0
H1573 H 0.67078 0.16938 0.26322 0.0
H1574 H 0.66865 0.18317 0.19631 0.0
H1575 H 0.62133 0.21454 0.18162 0.0
H1576 H 0.6213 0.28512 0.01918 0.0
H1577 H 0.61881 0.25255 0.0622 0.0
C1578 C 0.87463 0.75549 0.51014 0.0
C1579 C 0.88104 0.73457 0.52148 0.0
C1580 C 0.87579 0.77425 0.53483 0.0
C1581 C 0.90015 0.80155 0.6051 0.0
H1582 H 0.8631 0.82202 0.6622 0.0
C1583 C 0.9042 0.84251 0.75557 0.0
C1584 C 0.89129 0.85443 0.77087 0.0
C1585 C 0.90402 0.83494 0.71677 0.0
C1586 C 0.87354 0.81716 0.64577 0.0
H1587 H 0.8934 0.71724 0.56862 0.0
H1588 H 0.89602 0.7503 0.61058 0.0
H1589 H 0.86018 0.79382 0.61069 0.0
H1590 H 0.8687 0.86963 0.75721 0.0
H1591 H 0.86865 0.85746 0.68845 0.0
H1592 H 0.91361 0.8247 0.63975 0.0
C1593 C 0.89006 0.75192 0.58251 0.0
C1594 C 0.87183 0.8008 0.61651 0.0
C1595 C 0.8886 0.73303 0.5583 0.0
C1596 C 0.87894 0.86082 0.74572 0.0
C1597 C 0.87879 0.8534 0.70659 0.0
C1598 C 0.90185 0.81826 0.63373 0.0
C1599 C 0.8837 0.77264 0.5709 0.0
C1600 C 0.88518 0.79234 0.59703 0.0
C1601 C 0.89086 0.83913 0.69238 0.0
C1602 C 0.88866 0.82563 0.6557 0.0
H1603 H 0.86902 0.75763 0.48178 0.0
H1604 H 0.87081 0.79014 0.52542 0.0
H1605 H 0.91058 0.79535 0.59001 0.0
H1606 H 0.91367 0.83698 0.7748 0.0
H1607 H 0.9135 0.8239 0.70747 0.0
C1608 C 0.39964 0.28862 0.02662 0.0
C1609 C 0.38445 0.2963 0.01617 0.0
C1610 C 0.4014 0.27001 0.05136 0.0
C1611 C 0.37947 0.22059 0.09015 0.0
H1612 H 0.40927 0.22447 0.17662 0.0
C1613 C 0.37059 0.17861 0.23867 0.0
C1614 C 0.38375 0.17303 0.26177 0.0
C1615 C 0.37268 0.18696 0.20073 0.0
C1616 C 0.40118 0.22275 0.15206 0.0
H1617 H 0.35923 0.29081 0.02423 0.0
H1618 H 0.36229 0.25858 0.0677 0.0
H1619 H 0.40899 0.2538 0.12684 0.0
H1620 H 0.4093 0.1702 0.26313 0.0
H1621 H 0.41307 0.18482 0.1963 0.0
H1622 H 0.37119 0.19003 0.1165 0.0
C1623 C 0.37285 0.26658 0.05608 0.0
C1624 C 0.40097 0.23967 0.12359 0.0
C1625 C 0.37108 0.28515 0.03138 0.0
C1626 C 0.39899 0.17404 0.24538 0.0
C1627 C 0.40112 0.18266 0.20742 0.0
C1628 C 0.37968 0.20367 0.11864 0.0
C1629 C 0.38802 0.25868 0.06613 0.0
C1630 C 0.38975 0.23917 0.09307 0.0
C1631 C 0.38802 0.19024 0.18551 0.0
C1632 C 0.39018 0.20497 0.15065 0.0
H1633 H 0.41017 0.29658 0.01482 0.0
H1634 H 0.41325 0.26426 0.05835 0.0
H1635 H 0.37094 0.21945 0.06644 0.0
H1636 H 0.35875 0.17828 0.25112 0.0
H1637 H 0.36233 0.1928 0.18491 0.0
C1638 C 0.13591 0.83673 0.75537 0.0
C1639 C 0.14916 0.84855 0.76915 0.0
C1640 C 0.13537 0.8291 0.71664 0.0
C1641 C 0.16415 0.81118 0.64159 0.0
H1642 H 0.12571 0.79082 0.58999 0.0
C1643 C 0.16029 0.75028 0.50591 0.0
C1644 C 0.15298 0.7298 0.51663 0.0
C1645 C 0.15986 0.76887 0.53109 0.0
C1646 C 0.13653 0.79661 0.60392 0.0
H1647 H 0.17169 0.86333 0.75314 0.0
H1648 H 0.17048 0.85101 0.68448 0.0
H1649 H 0.12414 0.8198 0.64075 0.0
H1650 H 0.1398 0.71306 0.56318 0.0
H1651 H 0.13847 0.74589 0.60598 0.0
H1652 H 0.17643 0.78784 0.6043 0.0
C1653 C 0.16062 0.8471 0.70372 0.0
C1654 C 0.13567 0.8131 0.63312 0.0
C1655 C 0.16121 0.85457 0.74279 0.0
C1656 C 0.14527 0.72854 0.55332 0.0
C1657 C 0.14455 0.74729 0.57801 0.0
C1658 C 0.16503 0.79506 0.61173 0.0
C1659 C 0.14812 0.83315 0.6908 0.0
C1660 C 0.14939 0.81991 0.65361 0.0
C1661 C 0.15181 0.76757 0.56704 0.0
C1662 C 0.15116 0.78709 0.59377 0.0
H1663 H 0.12666 0.83151 0.77558 0.0
H1664 H 0.1256 0.81825 0.70837 0.0
H1665 H 0.17498 0.81563 0.65682 0.0
H1666 H 0.16605 0.75222 0.47767 0.0
H1667 H 0.16554 0.78441 0.52217 0.0
C1668 C 0.4097 0.83392 0.72942 0.0
C1669 C 0.39884 0.85123 0.7223 0.0
C1670 C 0.412 0.82581 0.76736 0.0
C1671 C 0.38843 0.81995 0.85763 0.0
H1672 H 0.42449 0.78347 0.88792 0.0
C1673 C 0.38928 0.75847 0.99095 0.0
C1674 C 0.3916 0.73597 0.97908 0.0
C1675 C 0.39196 0.77623 0.96488 0.0
C1676 C 0.4144 0.79373 0.87993 0.0
H1677 H 0.38281 0.87507 0.74905 0.0
H1678 H 0.38722 0.86146 0.81628 0.0
H1679 H 0.42744 0.81129 0.83564 0.0
H1680 H 0.39882 0.71488 0.93008 0.0
H1681 H 0.40417 0.74606 0.88534 0.0
H1682 H 0.37549 0.80226 0.90233 0.0
C1683 C 0.39375 0.85377 0.7924 0.0
C1684 C 0.41602 0.80962 0.84992 0.0
C1685 C 0.3914 0.86186 0.75409 0.0
C1686 C 0.39709 0.73187 0.94064 0.0
C1687 C 0.40011 0.7497 0.9149 0.0
C1688 C 0.38693 0.80442 0.88826 0.0
C1689 C 0.40345 0.83484 0.79919 0.0
C1690 C 0.40287 0.82224 0.83712 0.0
C1691 C 0.39743 0.77199 0.92674 0.0
C1692 C 0.39973 0.79063 0.89859 0.0
H1693 H 0.41543 0.82537 0.70512 0.0
H1694 H 0.41942 0.81112 0.77087 0.0
H1695 H 0.37795 0.82904 0.8485 0.0
H1696 H 0.38554 0.76252 0.02055 0.0
H1697 H 0.3899 0.79333 0.97464 0.0
C1698 C 0.12192 0.17108 0.23295 0.0
C1699 C 0.13755 0.16755 0.2203 0.0
C1700 C 0.11902 0.18013 0.27028 0.0
C1701 C 0.13841 0.19782 0.36423 0.0
H1702 H 0.11211 0.25082 0.35248 0.0
C1703 C 0.13493 0.26536 0.48555 0.0
C1704 C 0.13632 0.28775 0.47268 0.0
C1705 C 0.13219 0.24798 0.45876 0.0
C1706 C 0.11948 0.23608 0.35628 0.0
H1707 H 0.16227 0.16903 0.23688 0.0
H1708 H 0.15731 0.18434 0.30205 0.0
H1709 H 0.11247 0.22252 0.30073 0.0
H1710 H 0.13546 0.30953 0.42171 0.0
H1711 H 0.13085 0.27916 0.37471 0.0
H1712 H 0.14614 0.21204 0.41872 0.0
C1713 C 0.14723 0.18004 0.2838 0.0
C1714 C 0.11949 0.21965 0.32689 0.0
C1715 C 0.1501 0.17118 0.2465 0.0
C1716 C 0.13438 0.29247 0.43253 0.0
C1717 C 0.13168 0.27505 0.40565 0.0
C1718 C 0.13839 0.21425 0.39363 0.0
C1719 C 0.13172 0.18576 0.29532 0.0
C1720 C 0.12932 0.20063 0.32998 0.0
C1721 C 0.13077 0.25256 0.4184 0.0
C1722 C 0.12926 0.23389 0.38948 0.0
H1723 H 0.11211 0.16886 0.21274 0.0
H1724 H 0.10693 0.18411 0.2785 0.0
H1725 H 0.14602 0.1833 0.36765 0.0
H1726 H 0.13599 0.26122 0.51645 0.0
H1727 H 0.13127 0.23092 0.46967 0.0
loop_
_geom_bond_atom_site_label_1
_geom_bond_atom_site_label_2
_geom_bond_distance
_geom_bond_site_symmetry_2
_ccdc_geom_bond_type
C0 C1 1.351 . S
C0 N3 1.368 . S
C0 H5 0.931 . S
C1 C0 1.351 . S
C1 N2 1.373 . S
C1 H29 0.930 . S
N2 C1 1.373 . S
N2 C4 1.340 . S
N3 C0 1.368 . S
N3 C4 1.321 . S
N3 Co6 2.135 . S
C4 N2 1.340 . S
C4 N3 1.321 . S
C4 H28 0.930 . S
H5 C0 0.931 . S
Co6 N3 2.135 . S
Co6 N9 2.121 . S
Co6 O14 2.055 . S
Co6 O17 2.039 . S
Co6 N20 2.140 . S
C7 O8 1.227 . S
C7 O17 1.265 . S
O8 C7 1.227 . S
N9 Co6 2.121 . S
N9 C11 1.375 . S
N9 C12 1.313 . S
C10 C11 1.338 . S
C10 N13 1.377 . S
C10 H30 0.930 . S
C11 N9 1.375 . S
C11 C10 1.338 . S
C11 H15 0.931 . S
C12 N9 1.313 . S
C12 N13 1.344 . S
C12 H16 0.930 . S
N13 C10 1.377 . S
N13 C12 1.344 . S
O14 Co6 2.055 . S
O14 C18 1.253 . S
H15 C11 0.931 . S
H16 C12 0.930 . S
O17 Co6 2.039 . S
O17 C7 1.265 . S
C18 O14 1.253 . S
C18 O19 1.227 . S
O19 C18 1.227 . S
N20 Co6 2.140 . S
N20 C23 1.346 . S
N20 C24 1.345 . S
C21 C22 1.387 . S
C21 C25 1.391 1_556 S
C22 C21 1.387 . S
C22 C23 1.369 1_556 S
C22 H31 0.929 . S
C23 N20 1.346 . S
C23 C22 1.369 1_554 S
C23 H26 0.928 . S
C24 N20 1.345 . S
C24 C25 1.371 . S
C24 H27 0.931 . S
C25 C21 1.391 1_554 S
C25 C24 1.371 . S
C25 H32 0.930 . S
H26 C23 0.928 . S
H27 C24 0.931 . S
H28 C4 0.930 . S
H29 C1 0.930 . S
H30 C10 0.930 . S
H31 C22 0.929 . S
H32 C25 0.930 . S
C33 C34 1.351 . S
C33 N36 1.368 . S
C33 H38 0.931 . S
C34 C33 1.351 . S
C34 N35 1.373 . S
C34 H62 0.930 . S
N35 C34 1.373 . S
N35 C37 1.340 . S
N36 C33 1.368 . S
N36 C37 1.321 . S
N36 Co39 2.135 . S
C37 N35 1.340 . S
C37 N36 1.321 . S
C37 H61 0.930 . S
H38 C33 0.931 . S
Co39 N36 2.135 . S
Co39 N42 2.121 . S
Co39 O47 2.055 . S
Co39 O50 2.039 . S
Co39 N53 2.140 . S
C40 O41 1.227 . S
C40 O50 1.265 . S
O41 C40 1.227 . S
N42 Co39 2.121 . S
N42 C44 1.375 . S
N42 C45 1.313 . S
C43 C44 1.338 . S
C43 N46 1.377 . S
C43 H63 0.930 . S
C44 N42 1.375 . S
C44 C43 1.338 . S
C44 H48 0.931 . S
C45 N42 1.313 . S
C45 N46 1.344 . S
C45 H49 0.930 . S
N46 C43 1.377 . S
N46 C45 1.344 . S
O47 Co39 2.055 . S
O47 C51 1.253 . S
H48 C44 0.931 . S
H49 C45 0.930 . S
O50 Co39 2.039 . S
O50 C40 1.265 . S
C51 O47 1.253 . S
C51 O52 1.227 . S
O52 C51 1.227 . S
N53 Co39 2.140 . S
N53 C56 1.346 . S
N53 C57 1.345 . S
C54 C55 1.387 . S
C54 C58 1.391 . S
C55 C54 1.387 . S
C55 C56 1.369 . S
C55 H64 0.929 . S
C56 N53 1.346 . S
C56 C55 1.369 . S
C56 H59 0.928 . S
C57 N53 1.345 . S
C57 C58 1.371 . S
C57 H60 0.931 . S
C58 C54 1.391 . S
C58 C57 1.371 . S
C58 H65 0.930 . S
H59 C56 0.928 . S
H60 C57 0.931 . S
H61 C37 0.930 . S
H62 C34 0.930 . S
H63 C43 0.930 . S
H64 C55 0.929 . S
H65 C58 0.930 . S
C66 C67 1.351 . S
C66 N69 1.368 . S
C66 H71 0.931 . S
C67 C66 1.351 . S
C67 N68 1.373 . S
C67 H95 0.930 . S
N68 C67 1.373 . S
N68 C70 1.340 . S
N69 C66 1.368 . S
N69 C70 1.321 . S
N69 Co72 2.135 . S
C70 N68 1.340 . S
C70 N69 1.321 . S
C70 H94 0.930 . S
H71 C66 0.931 . S
Co72 N69 2.135 . S
Co72 N75 2.121 . S
Co72 O80 2.055 . S
Co72 O83 2.039 . S
Co72 N86 2.140 . S
C73 O74 1.227 . S
C73 O83 1.265 . S
O74 C73 1.227 . S
N75 Co72 2.121 . S
N75 C77 1.375 . S
N75 C78 1.313 . S
C76 C77 1.338 . S
C76 N79 1.377 . S
C76 H96 0.930 . S
C77 N75 1.375 . S
C77 C76 1.338 . S
C77 H81 0.931 . S
C78 N75 1.313 . S
C78 N79 1.344 . S
C78 H82 0.930 . S
N79 C76 1.377 . S
N79 C78 1.344 . S
O80 Co72 2.055 . S
O80 C84 1.253 . S
H81 C77 0.931 . S
H82 C78 0.930 . S
O83 Co72 2.039 . S
O83 C73 1.265 . S
C84 O80 1.253 . S
C84 O85 1.227 . S
O85 C84 1.227 . S
N86 Co72 2.140 . S
N86 C89 1.346 . S
N86 C90 1.345 . S
C87 C88 1.387 . S
C87 C91 1.391 1_554 S
C88 C87 1.387 . S
C88 C89 1.369 1_554 S
C88 H97 0.929 . S
C89 N86 1.346 . S
C89 C88 1.369 1_556 S
C89 H92 0.928 . S
C90 N86 1.345 . S
C90 C91 1.371 . S
C90 H93 0.931 . S
C91 C87 1.391 1_556 S
C91 C90 1.371 . S
C91 H98 0.930 . S
H92 C89 0.928 . S
H93 C90 0.931 . S
H94 C70 0.930 . S
H95 C67 0.930 . S
H96 C76 0.930 . S
H97 C88 0.929 . S
H98 C91 0.930 . S
C99 C100 1.351 . S
C99 N102 1.368 . S
C99 H104 0.931 . S
C100 C99 1.351 . S
C100 N101 1.373 . S
C100 H128 0.930 . S
N101 C100 1.373 . S
N101 C103 1.340 . S
N102 C99 1.368 . S
N102 C103 1.321 . S
N102 Co105 2.135 . S
C103 N101 1.340 . S
C103 N102 1.321 . S
C103 H127 0.930 . S
H104 C99 0.931 . S
Co105 N102 2.135 . S
Co105 N108 2.121 . S
Co105 O113 2.055 . S
Co105 O116 2.039 . S
Co105 N119 2.140 . S
C106 O107 1.227 . S
C106 O116 1.265 . S
O107 C106 1.227 . S
N108 Co105 2.121 . S
N108 C110 1.375 . S
N108 C111 1.313 . S
C109 C110 1.338 . S
C109 N112 1.377 . S
C109 H129 0.930 . S
C110 N108 1.375 . S
C110 C109 1.338 . S
C110 H114 0.931 . S
C111 N108 1.313 . S
C111 N112 1.344 . S
C111 H115 0.930 . S
N112 C109 1.377 . S
N112 C111 1.344 . S
O113 Co105 2.055 . S
O113 C117 1.253 . S
H114 C110 0.931 . S
H115 C111 0.930 . S
O116 Co105 2.039 . S
O116 C106 1.265 . S
C117 O113 1.253 . S
C117 O118 1.227 . S
O118 C117 1.227 . S
N119 Co105 2.140 . S
N119 C122 1.346 . S
N119 C123 1.345 . S
C120 C121 1.387 . S
C120 C124 1.391 . S
C121 C120 1.387 . S
C121 C122 1.369 . S
C121 H130 0.929 . S
C122 N119 1.346 . S
C122 C121 1.369 . S
C122 H125 0.928 . S
C123 N119 1.345 . S
C123 C124 1.371 . S
C123 H126 0.931 . S
C124 C120 1.391 . S
C124 C123 1.371 . S
C124 H131 0.930 . S
H125 C122 0.928 . S
H126 C123 0.931 . S
H127 C103 0.930 . S
H128 C100 0.930 . S
H129 C109 0.930 . S
H130 C121 0.929 . S
H131 C124 0.930 . S
C132 C133 1.351 . S
C132 N135 1.368 . S
C132 H137 0.931 . S
C133 C132 1.351 . S
C133 N134 1.373 . S
C133 H161 0.930 . S
N134 C133 1.373 . S
N134 C136 1.340 . S
N135 C132 1.368 . S
N135 C136 1.321 . S
N135 Co138 2.135 . S
C136 N134 1.340 . S
C136 N135 1.321 . S
C136 H160 0.930 . S
H137 C132 0.931 . S
Co138 N135 2.135 . S
Co138 N141 2.121 . S
Co138 O146 2.055 . S
Co138 O149 2.039 . S
Co138 N152 2.140 . S
C139 O140 1.227 . S
C139 O149 1.265 . S
O140 C139 1.227 . S
N141 Co138 2.121 . S
N141 C143 1.375 . S
N141 C144 1.313 . S
C142 C143 1.338 . S
C142 N145 1.377 . S
C142 H162 0.930 . S
C143 N141 1.375 . S
C143 C142 1.338 . S
C143 H147 0.931 . S
C144 N141 1.313 . S
C144 N145 1.344 . S
C144 H148 0.930 . S
N145 C142 1.377 . S
N145 C144 1.344 . S
O146 Co138 2.055 . S
O146 C150 1.253 . S
H147 C143 0.931 . S
H148 C144 0.930 . S
O149 Co138 2.039 . S
O149 C139 1.265 . S
C150 O146 1.253 . S
C150 O151 1.227 . S
O151 C150 1.227 . S
N152 Co138 2.140 . S
N152 C155 1.346 . S
N152 C156 1.345 . S
C153 C154 1.387 . S
C153 C157 1.391 1_554 S
C154 C153 1.387 . S
C154 C155 1.369 1_554 S
C154 H163 0.929 . S
C155 N152 1.346 . S
C155 C154 1.369 1_556 S
C155 H158 0.928 . S
C156 N152 1.345 . S
C156 C157 1.371 . S
C156 H159 0.931 . S
C157 C153 1.391 1_556 S
C157 C156 1.371 . S
C157 H164 0.930 . S
H158 C155 0.928 . S
H159 C156 0.931 . S
H160 C136 0.930 . S
H161 C133 0.930 . S
H162 C142 0.930 . S
H163 C154 0.929 . S
H164 C157 0.930 . S
C165 C166 1.351 . S
C165 N168 1.368 . S
C165 H170 0.931 . S
C166 C165 1.351 . S
C166 N167 1.373 . S
C166 H194 0.930 . S
N167 C166 1.373 . S
N167 C169 1.340 . S
N168 C165 1.368 . S
N168 C169 1.321 . S
N168 Co171 2.135 . S
C169 N167 1.340 . S
C169 N168 1.321 . S
C169 H193 0.930 . S
H170 C165 0.931 . S
Co171 N168 2.135 . S
Co171 N174 2.121 . S
Co171 O179 2.055 . S
Co171 O182 2.039 . S
Co171 N185 2.140 . S
C172 O173 1.227 . S
C172 O182 1.265 . S
O173 C172 1.227 . S
N174 Co171 2.121 . S
N174 C176 1.375 . S
N174 C177 1.313 . S
C175 C176 1.338 . S
C175 N178 1.377 . S
C175 H195 0.930 . S
C176 N174 1.375 . S
C176 C175 1.338 . S
C176 H180 0.931 . S
C177 N174 1.313 . S
C177 N178 1.344 . S
C177 H181 0.930 . S
N178 C175 1.377 . S
N178 C177 1.344 . S
O179 Co171 2.055 . S
O179 C183 1.253 . S
H180 C176 0.931 . S
H181 C177 0.930 . S
O182 Co171 2.039 . S
O182 C172 1.265 . S
C183 O179 1.253 . S
C183 O184 1.227 . S
O184 C183 1.227 . S
N185 Co171 2.140 . S
N185 C188 1.346 . S
N185 C189 1.345 . S
C186 C187 1.387 . S
C186 C190 1.391 . S
C187 C186 1.387 . S
C187 C188 1.369 . S
C187 H196 0.929 . S
C188 N185 1.346 . S
C188 C187 1.369 . S
C188 H191 0.928 . S
C189 N185 1.345 . S
C189 C190 1.371 . S
C189 H192 0.931 . S
C190 C186 1.391 . S
C190 C189 1.371 . S
C190 H197 0.930 . S
H191 C188 0.928 . S
H192 C189 0.931 . S
H193 C169 0.930 . S
H194 C166 0.930 . S
H195 C175 0.930 . S
H196 C187 0.929 . S
H197 C190 0.930 . S
C198 C199 1.351 . S
C198 N201 1.368 . S
C198 H203 0.931 . S
C199 C198 1.351 . S
C199 N200 1.373 . S
C199 H227 0.930 . S
N200 C199 1.373 . S
N200 C202 1.340 . S
N201 C198 1.368 . S
N201 C202 1.321 . S
N201 Co204 2.135 . S
C202 N200 1.340 . S
C202 N201 1.321 . S
C202 H226 0.930 . S
H203 C198 0.931 . S
Co204 N201 2.135 . S
Co204 N207 2.121 . S
Co204 O212 2.055 . S
Co204 O215 2.039 . S
Co204 N218 2.140 . S
C205 O206 1.227 . S
C205 O215 1.265 . S
O206 C205 1.227 . S
N207 Co204 2.121 . S
N207 C209 1.375 . S
N207 C210 1.313 . S
C208 C209 1.338 . S
C208 N211 1.377 . S
C208 H228 0.930 . S
C209 N207 1.375 . S
C209 C208 1.338 . S
C209 H213 0.931 . S
C210 N207 1.313 . S
C210 N211 1.344 . S
C210 H214 0.930 . S
N211 C208 1.377 . S
N211 C210 1.344 . S
O212 Co204 2.055 . S
O212 C216 1.253 . S
H213 C209 0.931 . S
H214 C210 0.930 . S
O215 Co204 2.039 . S
O215 C205 1.265 . S
C216 O212 1.253 . S
C216 O217 1.227 . S
O217 C216 1.227 . S
N218 Co204 2.140 . S
N218 C221 1.346 . S
N218 C222 1.345 . S
C219 C220 1.387 . S
C219 C223 1.391 1_556 S
C220 C219 1.387 . S
C220 C221 1.369 1_556 S
C220 H229 0.929 . S
C221 N218 1.346 . S
C221 C220 1.369 1_554 S
C221 H224 0.928 . S
C222 N218 1.345 . S
C222 C223 1.371 . S
C222 H225 0.931 . S
C223 C219 1.391 1_554 S
C223 C222 1.371 . S
C223 H230 0.930 . S
H224 C221 0.928 . S
H225 C222 0.931 . S
H226 C202 0.930 . S
H227 C199 0.930 . S
H228 C208 0.930 . S
H229 C220 0.929 . S
H230 C223 0.930 . S
C231 C232 1.351 . S
C231 N234 1.368 . S
C231 H236 0.931 . S
C232 C231 1.351 . S
C232 N233 1.373 . S
C232 H260 0.930 . S
N233 C232 1.373 . S
N233 C235 1.340 . S
N234 C231 1.368 . S
N234 C235 1.321 . S
N234 Co237 2.135 . S
C235 N233 1.340 . S
C235 N234 1.321 . S
C235 H259 0.930 . S
H236 C231 0.931 . S
Co237 N234 2.135 . S
Co237 N240 2.121 . S
Co237 O245 2.055 . S
Co237 O248 2.039 . S
Co237 N251 2.140 . S
C238 O239 1.227 . S
C238 O248 1.265 . S
O239 C238 1.227 . S
N240 Co237 2.121 . S
N240 C242 1.375 . S
N240 C243 1.313 . S
C241 C242 1.338 . S
C241 N244 1.377 . S
C241 H261 0.930 . S
C242 N240 1.375 . S
C242 C241 1.338 . S
C242 H246 0.931 . S
C243 N240 1.313 . S
C243 N244 1.344 . S
C243 H247 0.930 . S
N244 C241 1.377 . S
N244 C243 1.344 . S
O245 Co237 2.055 . S
O245 C249 1.253 . S
H246 C242 0.931 . S
H247 C243 0.930 . S
O248 Co237 2.039 . S
O248 C238 1.265 . S
C249 O245 1.253 . S
C249 O250 1.227 . S
O250 C249 1.227 . S
N251 Co237 2.140 . S
N251 C254 1.346 . S
N251 C255 1.345 . S
C252 C253 1.387 . S
C252 C256 1.391 . S
C253 C252 1.387 . S
C253 C254 1.369 . S
C253 H262 0.929 . S
C254 N251 1.346 . S
C254 C253 1.369 . S
C254 H257 0.928 . S
C255 N251 1.345 . S
C255 C256 1.371 . S
C255 H258 0.931 . S
C256 C252 1.391 . S
C256 C255 1.371 . S
C256 H263 0.930 . S
H257 C254 0.928 . S
H258 C255 0.931 . S
H259 C235 0.930 . S
H260 C232 0.930 . S
H261 C241 0.930 . S
H262 C253 0.929 . S
H263 C256 0.930 . S
C264 C265 1.351 . S
C264 N267 1.368 . S
C264 H269 0.931 . S
C265 C264 1.351 . S
C265 N266 1.373 . S
C265 H293 0.930 . S
N266 C265 1.373 . S
N266 C268 1.340 . S
N267 C264 1.368 . S
N267 C268 1.321 . S
N267 Co270 2.135 . S
C268 N266 1.340 . S
C268 N267 1.321 . S
C268 H292 0.930 . S
H269 C264 0.931 . S
Co270 N267 2.135 . S
Co270 N273 2.121 . S
Co270 O278 2.055 . S
Co270 O281 2.039 . S
Co270 N284 2.140 . S
C271 O272 1.227 . S
C271 O281 1.265 . S
O272 C271 1.227 . S
N273 Co270 2.121 . S
N273 C275 1.375 . S
N273 C276 1.313 . S
C274 C275 1.338 . S
C274 N277 1.377 . S
C274 H294 0.930 . S
C275 N273 1.375 . S
C275 C274 1.338 . S
C275 H279 0.931 . S
C276 N273 1.313 . S
C276 N277 1.344 . S
C276 H280 0.930 . S
N277 C274 1.377 . S
N277 C276 1.344 . S
O278 Co270 2.055 . S
O278 C282 1.253 . S
H279 C275 0.931 . S
H280 C276 0.930 . S
O281 Co270 2.039 . S
O281 C271 1.265 . S
C282 O278 1.253 . S
C282 O283 1.227 . S
O283 C282 1.227 . S
N284 Co270 2.140 . S
N284 C287 1.346 . S
N284 C288 1.345 . S
C285 C286 1.387 . S
C285 C289 1.391 1_556 S
C286 C285 1.387 . S
C286 C287 1.369 1_556 S
C286 H295 0.929 . S
C287 N284 1.346 . S
C287 C286 1.369 1_554 S
C287 H290 0.928 . S
C288 N284 1.345 . S
C288 C289 1.371 . S
C288 H291 0.931 . S
C289 C285 1.391 1_554 S
C289 C288 1.371 . S
C289 H296 0.930 . S
H290 C287 0.928 . S
H291 C288 0.931 . S
H292 C268 0.930 . S
H293 C265 0.930 . S
H294 C274 0.930 . S
H295 C286 0.929 . S
H296 C289 0.930 . S
C297 C298 1.351 . S
C297 N300 1.368 . S
C297 H302 0.931 . S
C298 C297 1.351 . S
C298 N299 1.373 . S
C298 H326 0.930 . S
N299 C298 1.373 . S
N299 C301 1.340 . S
N300 C297 1.368 . S
N300 C301 1.321 . S
N300 Co303 2.135 . S
C301 N299 1.340 . S
C301 N300 1.321 . S
C301 H325 0.930 . S
H302 C297 0.931 . S
Co303 N300 2.135 . S
Co303 N306 2.121 . S
Co303 O311 2.055 . S
Co303 O314 2.039 . S
Co303 N317 2.140 . S
C304 O305 1.227 . S
C304 O314 1.265 . S
O305 C304 1.227 . S
N306 Co303 2.121 . S
N306 C308 1.375 . S
N306 C309 1.313 . S
C307 C308 1.338 . S
C307 N310 1.377 . S
C307 H327 0.930 . S
C308 N306 1.375 . S
C308 C307 1.338 . S
C308 H312 0.931 . S
C309 N306 1.313 . S
C309 N310 1.344 . S
C309 H313 0.930 . S
N310 C307 1.377 . S
N310 C309 1.344 . S
O311 Co303 2.055 . S
O311 C315 1.253 . S
H312 C308 0.931 . S
H313 C309 0.930 . S
O314 Co303 2.039 . S
O314 C304 1.265 . S
C315 O311 1.253 . S
C315 O316 1.227 . S
O316 C315 1.227 . S
N317 Co303 2.140 . S
N317 C320 1.346 . S
N317 C321 1.345 . S
C318 C319 1.387 . S
C318 C322 1.391 . S
C319 C318 1.387 . S
C319 C320 1.369 . S
C319 H328 0.929 . S
C320 N317 1.346 . S
C320 C319 1.369 . S
C320 H323 0.928 . S
C321 N317 1.345 . S
C321 C322 1.371 . S
C321 H324 0.931 . S
C322 C318 1.391 . S
C322 C321 1.371 . S
C322 H329 0.930 . S
H323 C320 0.928 . S
H324 C321 0.931 . S
H325 C301 0.930 . S
H326 C298 0.930 . S
H327 C307 0.930 . S
H328 C319 0.929 . S
H329 C322 0.930 . S
C330 C331 1.351 . S
C330 N333 1.368 . S
C330 H335 0.931 . S
C331 C330 1.351 . S
C331 N332 1.373 . S
C331 H359 0.930 . S
N332 C331 1.373 . S
N332 C334 1.340 . S
N333 C330 1.368 . S
N333 C334 1.321 . S
N333 Co336 2.135 . S
C334 N332 1.340 . S
C334 N333 1.321 . S
C334 H358 0.930 . S
H335 C330 0.931 . S
Co336 N333 2.135 . S
Co336 N339 2.121 . S
Co336 O344 2.055 . S
Co336 O347 2.039 . S
Co336 N350 2.140 . S
C337 O338 1.227 . S
C337 O347 1.265 . S
O338 C337 1.227 . S
N339 Co336 2.121 . S
N339 C341 1.375 . S
N339 C342 1.313 . S
C340 C341 1.338 . S
C340 N343 1.377 . S
C340 H360 0.930 . S
C341 N339 1.375 . S
C341 C340 1.338 . S
C341 H345 0.931 . S
C342 N339 1.313 . S
C342 N343 1.344 . S
C342 H346 0.930 . S
N343 C340 1.377 . S
N343 C342 1.344 . S
O344 Co336 2.055 . S
O344 C348 1.253 . S
H345 C341 0.931 . S
H346 C342 0.930 . S
O347 Co336 2.039 . S
O347 C337 1.265 . S
C348 O344 1.253 . S
C348 O349 1.227 . S
O349 C348 1.227 . S
N350 Co336 2.140 . S
N350 C353 1.346 . S
N350 C354 1.345 . S
C351 C352 1.387 . S
C351 C355 1.391 1_554 S
C352 C351 1.387 . S
C352 C353 1.369 1_554 S
C352 H361 0.929 . S
C353 N350 1.346 . S
C353 C352 1.369 1_556 S
C353 H356 0.928 . S
C354 N350 1.345 . S
C354 C355 1.371 . S
C354 H357 0.931 . S
C355 C351 1.391 1_556 S
C355 C354 1.371 . S
C355 H362 0.930 . S
H356 C353 0.928 . S
H357 C354 0.931 . S
H358 C334 0.930 . S
H359 C331 0.930 . S
H360 C340 0.930 . S
H361 C352 0.929 . S
H362 C355 0.930 . S
C363 C364 1.351 . S
C363 N366 1.368 . S
C363 H368 0.931 . S
C364 C363 1.351 . S
C364 N365 1.373 . S
C364 H392 0.930 . S
N365 C364 1.373 . S
N365 C367 1.340 . S
N366 C363 1.368 . S
N366 C367 1.321 . S
N366 Co369 2.135 . S
C367 N365 1.340 . S
C367 N366 1.321 . S
C367 H391 0.930 . S
H368 C363 0.931 . S
Co369 N366 2.135 . S
Co369 N372 2.121 . S
Co369 O377 2.055 . S
Co369 O380 2.039 . S
Co369 N383 2.140 . S
C370 O371 1.227 . S
C370 O380 1.265 . S
O371 C370 1.227 . S
N372 Co369 2.121 . S
N372 C374 1.375 . S
N372 C375 1.313 . S
C373 C374 1.338 . S
C373 N376 1.377 . S
C373 H393 0.930 . S
C374 N372 1.375 . S
C374 C373 1.338 . S
C374 H378 0.931 . S
C375 N372 1.313 . S
C375 N376 1.344 . S
C375 H379 0.930 . S
N376 C373 1.377 . S
N376 C375 1.344 . S
O377 Co369 2.055 . S
O377 C381 1.253 . S
H378 C374 0.931 . S
H379 C375 0.930 . S
O380 Co369 2.039 . S
O380 C370 1.265 . S
C381 O377 1.253 . S
C381 O382 1.227 . S
O382 C381 1.227 . S
N383 Co369 2.140 . S
N383 C386 1.346 . S
N383 C387 1.345 . S
C384 C385 1.387 . S
C384 C388 1.391 . S
C385 C384 1.387 . S
C385 C386 1.369 . S
C385 H394 0.929 . S
C386 N383 1.346 . S
C386 C385 1.369 . S
C386 H389 0.928 . S
C387 N383 1.345 . S
C387 C388 1.371 . S
C387 H390 0.931 . S
C388 C384 1.391 . S
C388 C387 1.371 . S
C388 H395 0.930 . S
H389 C386 0.928 . S
H390 C387 0.931 . S
H391 C367 0.930 . S
H392 C364 0.930 . S
H393 C373 0.930 . S
H394 C385 0.929 . S
H395 C388 0.930 . S
C396 C397 1.351 . S
C396 N399 1.368 . S
C396 H401 0.931 . S
C397 C396 1.351 . S
C397 N398 1.373 . S
C397 H425 0.930 . S
N398 C397 1.373 . S
N398 C400 1.340 . S
N399 C396 1.368 . S
N399 C400 1.321 . S
N399 Co402 2.135 . S
C400 N398 1.340 . S
C400 N399 1.321 . S
C400 H424 0.930 . S
H401 C396 0.931 . S
Co402 N399 2.135 . S
Co402 N405 2.121 . S
Co402 O410 2.055 . S
Co402 O413 2.039 . S
Co402 N416 2.140 . S
C403 O404 1.227 . S
C403 O413 1.265 . S
O404 C403 1.227 . S
N405 Co402 2.121 . S
N405 C407 1.375 . S
N405 C408 1.313 . S
C406 C407 1.338 . S
C406 N409 1.377 . S
C406 H426 0.930 . S
C407 N405 1.375 . S
C407 C406 1.338 . S
C407 H411 0.931 . S
C408 N405 1.313 . S
C408 N409 1.344 . S
C408 H412 0.930 . S
N409 C406 1.377 . S
N409 C408 1.344 . S
O410 Co402 2.055 . S
O410 C414 1.253 . S
H411 C407 0.931 . S
H412 C408 0.930 . S
O413 Co402 2.039 . S
O413 C403 1.265 . S
C414 O410 1.253 . S
C414 O415 1.227 . S
O415 C414 1.227 . S
N416 Co402 2.140 . S
N416 C419 1.346 . S
N416 C420 1.345 . S
C417 C418 1.387 . S
C417 C421 1.391 1_554 S
C418 C417 1.387 . S
C418 C419 1.369 1_554 S
C418 H427 0.929 . S
C419 N416 1.346 . S
C419 C418 1.369 1_556 S
C419 H422 0.928 . S
C420 N416 1.345 . S
C420 C421 1.371 . S
C420 H423 0.931 . S
C421 C417 1.391 1_556 S
C421 C420 1.371 . S
C421 H428 0.930 . S
H422 C419 0.928 . S
H423 C420 0.931 . S
H424 C400 0.930 . S
H425 C397 0.930 . S
H426 C406 0.930 . S
H427 C418 0.929 . S
H428 C421 0.930 . S
C429 C430 1.351 . S
C429 N432 1.368 . S
C429 H434 0.931 . S
C430 C429 1.351 . S
C430 N431 1.373 . S
C430 H458 0.930 . S
N431 C430 1.373 . S
N431 C433 1.340 . S
N432 C429 1.368 . S
N432 C433 1.321 . S
N432 Co435 2.135 . S
C433 N431 1.340 . S
C433 N432 1.321 . S
C433 H457 0.930 . S
H434 C429 0.931 . S
Co435 N432 2.135 . S
Co435 N438 2.121 . S
Co435 O443 2.055 . S
Co435 O446 2.039 . S
Co435 N449 2.140 . S
C436 O437 1.227 . S
C436 O446 1.265 . S
O437 C436 1.227 . S
N438 Co435 2.121 . S
N438 C440 1.375 . S
N438 C441 1.313 . S
C439 C440 1.338 . S
C439 N442 1.377 . S
C439 H459 0.930 . S
C440 N438 1.375 . S
C440 C439 1.338 . S
C440 H444 0.931 . S
C441 N438 1.313 . S
C441 N442 1.344 . S
C441 H445 0.930 . S
N442 C439 1.377 . S
N442 C441 1.344 . S
O443 Co435 2.055 . S
O443 C447 1.253 . S
H444 C440 0.931 . S
H445 C441 0.930 . S
O446 Co435 2.039 . S
O446 C436 1.265 . S
C447 O443 1.253 . S
C447 O448 1.227 . S
O448 C447 1.227 . S
N449 Co435 2.140 . S
N449 C452 1.346 . S
N449 C453 1.345 . S
C450 C451 1.387 . S
C450 C454 1.391 . S
C451 C450 1.387 . S
C451 C452 1.369 . S
C451 H460 0.929 . S
C452 N449 1.346 . S
C452 C451 1.369 . S
C452 H455 0.928 . S
C453 N449 1.345 . S
C453 C454 1.371 . S
C453 H456 0.931 . S
C454 C450 1.391 . S
C454 C453 1.371 . S
C454 H461 0.930 . S
H455 C452 0.928 . S
H456 C453 0.931 . S
H457 C433 0.930 . S
H458 C430 0.930 . S
H459 C439 0.930 . S
H460 C451 0.929 . S
H461 C454 0.930 . S
C462 C463 1.351 . S
C462 N465 1.368 . S
C462 H467 0.931 . S
C463 C462 1.351 . S
C463 N464 1.373 . S
C463 H491 0.930 . S
N464 C463 1.373 . S
N464 C466 1.340 . S
N465 C462 1.368 . S
N465 C466 1.321 . S
N465 Co468 2.135 . S
C466 N464 1.340 . S
C466 N465 1.321 . S
C466 H490 0.930 . S
H467 C462 0.931 . S
Co468 N465 2.135 . S
Co468 N471 2.121 . S
Co468 O476 2.055 . S
Co468 O479 2.039 . S
Co468 N482 2.140 . S
C469 O470 1.227 . S
C469 O479 1.265 . S
O470 C469 1.227 . S
N471 Co468 2.121 . S
N471 C473 1.375 . S
N471 C474 1.313 . S
C472 C473 1.338 . S
C472 N475 1.377 . S
C472 H492 0.930 . S
C473 N471 1.375 . S
C473 C472 1.338 . S
C473 H477 0.931 . S
C474 N471 1.313 . S
C474 N475 1.344 . S
C474 H478 0.930 . S
N475 C472 1.377 . S
N475 C474 1.344 . S
O476 Co468 2.055 . S
O476 C480 1.253 . S
H477 C473 0.931 . S
H478 C474 0.930 . S
O479 Co468 2.039 . S
O479 C469 1.265 . S
C480 O476 1.253 . S
C480 O481 1.227 . S
O481 C480 1.227 . S
N482 Co468 2.140 . S
N482 C485 1.346 . S
N482 C486 1.345 . S
C483 C484 1.387 . S
C483 C487 1.391 1_556 S
C484 C483 1.387 . S
C484 C485 1.369 1_556 S
C484 H493 0.929 . S
C485 N482 1.346 . S
C485 C484 1.369 1_554 S
C485 H488 0.928 . S
C486 N482 1.345 . S
C486 C487 1.371 . S
C486 H489 0.931 . S
C487 C483 1.391 1_554 S
C487 C486 1.371 . S
C487 H494 0.930 . S
H488 C485 0.928 . S
H489 C486 0.931 . S
H490 C466 0.930 . S
H491 C463 0.930 . S
H492 C472 0.930 . S
H493 C484 0.929 . S
H494 C487 0.930 . S
C495 C496 1.351 . S
C495 N498 1.368 . S
C495 H500 0.931 . S
C496 C495 1.351 . S
C496 N497 1.373 . S
C496 H524 0.930 . S
N497 C496 1.373 . S
N497 C499 1.340 . S
N498 C495 1.368 . S
N498 C499 1.321 . S
N498 Co501 2.135 . S
C499 N497 1.340 . S
C499 N498 1.321 . S
C499 H523 0.930 . S
H500 C495 0.931 . S
Co501 N498 2.135 . S
Co501 N504 2.121 . S
Co501 O509 2.055 . S
Co501 O512 2.039 . S
Co501 N515 2.140 . S
C502 O503 1.227 . S
C502 O512 1.265 . S
O503 C502 1.227 . S
N504 Co501 2.121 . S
N504 C506 1.375 . S
N504 C507 1.313 . S
C505 C506 1.338 . S
C505 N508 1.377 . S
C505 H525 0.930 . S
C506 N504 1.375 . S
C506 C505 1.338 . S
C506 H510 0.931 . S
C507 N504 1.313 . S
C507 N508 1.344 . S
C507 H511 0.930 . S
N508 C505 1.377 . S
N508 C507 1.344 . S
O509 Co501 2.055 . S
O509 C513 1.253 . S
H510 C506 0.931 . S
H511 C507 0.930 . S
O512 Co501 2.039 . S
O512 C502 1.265 . S
C513 O509 1.253 . S
C513 O514 1.227 . S
O514 C513 1.227 . S
N515 Co501 2.140 . S
N515 C518 1.346 . S
N515 C519 1.345 . S
C516 C517 1.387 . S
C516 C520 1.391 . S
C517 C516 1.387 . S
C517 C518 1.369 . S
C517 H526 0.929 . S
C518 N515 1.346 . S
C518 C517 1.369 . S
C518 H521 0.928 . S
C519 N515 1.345 . S
C519 C520 1.371 . S
C519 H522 0.931 . S
C520 C516 1.391 . S
C520 C519 1.371 . S
C520 H527 0.930 . S
H521 C518 0.928 . S
H522 C519 0.931 . S
H523 C499 0.930 . S
H524 C496 0.930 . S
H525 C505 0.930 . S
H526 C517 0.929 . S
H527 C520 0.930 . S
C528 C529 1.349 . S
C528 C530 1.327 . S
C528 H553 0.950 . S
C529 C528 1.349 . S
C529 C545 1.349 . S
C530 C528 1.327 . S
C530 C549 1.429 . S
C530 H554 0.950 . S
C531 C548 1.574 . S
C531 C550 1.368 . S
C531 H555 0.949 . S
H532 C536 0.949 . S
C533 C534 1.349 . S
C533 C535 1.327 . S
C533 H556 0.950 . S
C534 C533 1.349 . S
C534 C546 1.349 . S
C535 C533 1.327 . S
C535 C551 1.429 . S
C535 H557 0.950 . S
C536 H532 0.949 . S
C536 C544 1.574 . S
C536 C552 1.368 . S
H537 C545 0.950 . S
H538 C543 0.950 . S
H539 C544 0.949 . S
H540 C546 0.950 . S
H541 C547 0.950 . S
H542 C548 0.949 . S
C543 H538 0.950 . S
C543 C545 1.327 . S
C543 C549 1.429 . S
C544 C536 1.574 . S
C544 H539 0.949 . S
C544 C550 1.368 . S
C545 C529 1.349 . S
C545 H537 0.950 . S
C545 C543 1.327 . S
C546 C534 1.349 . S
C546 H540 0.950 . S
C546 C547 1.327 . S
C547 H541 0.950 . S
C547 C546 1.327 . S
C547 C551 1.429 . S
C548 C531 1.574 . S
C548 H542 0.949 . S
C548 C552 1.368 . S
C549 C530 1.429 . S
C549 C543 1.429 . S
C549 C550 1.523 . S
C550 C531 1.368 . S
C550 C544 1.368 . S
C550 C549 1.523 . S
C551 C535 1.429 . S
C551 C547 1.429 . S
C551 C552 1.523 . S
C552 C536 1.368 . S
C552 C548 1.368 . S
C552 C551 1.523 . S
H553 C528 0.950 . S
H554 C530 0.950 . S
H555 C531 0.949 . S
H556 C533 0.950 . S
H557 C535 0.950 . S
C558 C559 1.349 . S
C558 C560 1.327 . S
C558 H583 0.950 . S
C559 C558 1.349 . S
C559 C575 1.349 . S
C560 C558 1.327 . S
C560 C579 1.429 . S
C560 H584 0.950 . S
C561 C578 1.574 . S
C561 C580 1.368 . S
C561 H585 0.949 . S
H562 C566 0.949 . S
C563 C564 1.349 . S
C563 C565 1.327 . S
C563 H586 0.950 . S
C564 C563 1.349 . S
C564 C576 1.349 . S
C565 C563 1.327 . S
C565 C581 1.429 . S
C565 H587 0.950 . S
C566 H562 0.949 . S
C566 C574 1.574 . S
C566 C582 1.368 . S
H567 C575 0.950 . S
H568 C573 0.950 . S
H569 C574 0.949 . S
H570 C576 0.950 . S
H571 C577 0.950 . S
H572 C578 0.949 . S
C573 H568 0.950 . S
C573 C575 1.327 . S
C573 C579 1.429 . S
C574 C566 1.574 . S
C574 H569 0.949 . S
C574 C580 1.368 . S
C575 C559 1.349 . S
C575 H567 0.950 . S
C575 C573 1.327 . S
C576 C564 1.349 . S
C576 H570 0.950 . S
C576 C577 1.327 . S
C577 H571 0.950 . S
C577 C576 1.327 . S
C577 C581 1.429 . S
C578 C561 1.574 . S
C578 H572 0.949 . S
C578 C582 1.368 . S
C579 C560 1.429 . S
C579 C573 1.429 . S
C579 C580 1.523 . S
C580 C561 1.368 . S
C580 C574 1.368 . S
C580 C579 1.523 . S
C581 C565 1.429 . S
C581 C577 1.429 . S
C581 C582 1.523 . S
C582 C566 1.368 . S
C582 C578 1.368 . S
C582 C581 1.523 . S
H583 C558 0.950 . S
H584 C560 0.950 . S
H585 C561 0.949 . S
H586 C563 0.950 . S
H587 C565 0.950 . S
C588 C589 1.349 . S
C588 C590 1.327 . S
C588 H613 0.950 . S
C589 C588 1.349 . S
C589 C605 1.349 . S
C590 C588 1.327 . S
C590 C609 1.429 . S
C590 H614 0.950 . S
C591 C608 1.574 . S
C591 C610 1.368 . S
C591 H615 0.949 . S
H592 C596 0.949 . S
C593 C594 1.349 . S
C593 C595 1.327 . S
C593 H616 0.950 . S
C594 C593 1.349 . S
C594 C606 1.349 . S
C595 C593 1.327 . S
C595 C611 1.429 . S
C595 H617 0.950 . S
C596 H592 0.949 . S
C596 C604 1.574 . S
C596 C612 1.368 . S
H597 C605 0.950 . S
H598 C603 0.950 . S
H599 C604 0.949 . S
H600 C606 0.950 . S
H601 C607 0.950 . S
H602 C608 0.949 . S
C603 H598 0.950 . S
C603 C605 1.327 . S
C603 C609 1.429 . S
C604 C596 1.574 . S
C604 H599 0.949 . S
C604 C610 1.368 . S
C605 C589 1.349 . S
C605 H597 0.950 . S
C605 C603 1.327 . S
C606 C594 1.349 . S
C606 H600 0.950 . S
C606 C607 1.327 . S
C607 H601 0.950 . S
C607 C606 1.327 . S
C607 C611 1.429 . S
C608 C591 1.574 . S
C608 H602 0.949 . S
C608 C612 1.368 . S
C609 C590 1.429 . S
C609 C603 1.429 . S
C609 C610 1.523 . S
C610 C591 1.368 . S
C610 C604 1.368 . S
C610 C609 1.523 . S
C611 C595 1.429 . S
C611 C607 1.429 . S
C611 C612 1.523 . S
C612 C596 1.368 . S
C612 C608 1.368 . S
C612 C611 1.523 . S
H613 C588 0.950 . S
H614 C590 0.950 . S
H615 C591 0.949 . S
H616 C593 0.950 . S
H617 C595 0.950 . S
C618 C619 1.349 . S
C618 C620 1.327 . S
C618 H643 0.950 . S
C619 C618 1.349 . S
C619 C635 1.349 . S
C620 C618 1.327 . S
C620 C639 1.429 . S
C620 H644 0.950 . S
C621 C638 1.574 . S
C621 C640 1.368 . S
C621 H645 0.949 . S
H622 C626 0.949 . S
C623 C624 1.349 . S
C623 C625 1.327 . S
C623 H646 0.950 . S
C624 C623 1.349 . S
C624 C636 1.349 . S
C625 C623 1.327 . S
C625 C641 1.429 . S
C625 H647 0.950 . S
C626 H622 0.949 . S
C626 C634 1.574 . S
C626 C642 1.368 . S
H627 C635 0.950 . S
H628 C633 0.950 . S
H629 C634 0.949 . S
H630 C636 0.950 . S
H631 C637 0.950 . S
H632 C638 0.949 . S
C633 H628 0.950 . S
C633 C635 1.327 . S
C633 C639 1.429 . S
C634 C626 1.574 . S
C634 H629 0.949 . S
C634 C640 1.368 . S
C635 C619 1.349 . S
C635 H627 0.950 . S
C635 C633 1.327 . S
C636 C624 1.349 . S
C636 H630 0.950 . S
C636 C637 1.327 . S
C637 H631 0.950 . S
C637 C636 1.327 . S
C637 C641 1.429 . S
C638 C621 1.574 . S
C638 H632 0.949 . S
C638 C642 1.368 . S
C639 C620 1.429 . S
C639 C633 1.429 . S
C639 C640 1.523 . S
C640 C621 1.368 . S
C640 C634 1.368 . S
C640 C639 1.523 . S
C641 C625 1.429 . S
C641 C637 1.429 . S
C641 C642 1.523 . S
C642 C626 1.368 . S
C642 C638 1.368 . S
C642 C641 1.523 . S
H643 C618 0.950 . S
H644 C620 0.950 . S
H645 C621 0.949 . S
H646 C623 0.950 . S
H647 C625 0.950 . S
C648 C649 1.349 . S
C648 C650 1.327 . S
C648 H673 0.950 . S
C649 C648 1.349 . S
C649 C665 1.349 . S
C650 C648 1.327 . S
C650 C669 1.429 . S
C650 H674 0.950 . S
C651 C668 1.574 . S
C651 C670 1.368 . S
C651 H675 0.949 . S
H652 C656 0.949 . S
C653 C654 1.349 . S
C653 C655 1.327 . S
C653 H676 0.950 . S
C654 C653 1.349 . S
C654 C666 1.349 . S
C655 C653 1.327 . S
C655 C671 1.429 . S
C655 H677 0.950 . S
C656 H652 0.949 . S
C656 C664 1.574 . S
C656 C672 1.368 . S
H657 C665 0.950 . S
H658 C663 0.950 . S
H659 C664 0.949 . S
H660 C666 0.950 . S
H661 C667 0.950 . S
H662 C668 0.949 . S
C663 H658 0.950 . S
C663 C665 1.327 . S
C663 C669 1.429 . S
C664 C656 1.574 . S
C664 H659 0.949 . S
C664 C670 1.368 . S
C665 C649 1.349 . S
C665 H657 0.950 . S
C665 C663 1.327 . S
C666 C654 1.349 . S
C666 H660 0.950 . S
C666 C667 1.327 . S
C667 H661 0.950 . S
C667 C666 1.327 . S
C667 C671 1.429 . S
C668 C651 1.574 . S
C668 H662 0.949 . S
C668 C672 1.368 . S
C669 C650 1.429 . S
C669 C663 1.429 . S
C669 C670 1.523 . S
C670 C651 1.368 . S
C670 C664 1.368 . S
C670 C669 1.523 . S
C671 C655 1.429 . S
C671 C667 1.429 . S
C671 C672 1.523 . S
C672 C656 1.368 . S
C672 C668 1.368 . S
C672 C671 1.523 . S
H673 C648 0.950 . S
H674 C650 0.950 . S
H675 C651 0.949 . S
H676 C653 0.950 . S
H677 C655 0.950 . S
C678 C679 1.349 . S
C678 C680 1.327 . S
C678 H703 0.950 . S
C679 C678 1.349 . S
C679 C695 1.349 . S
C680 C678 1.327 . S
C680 C699 1.429 . S
C680 H704 0.950 . S
C681 C698 1.574 . S
C681 C700 1.368 . S
C681 H705 0.949 . S
H682 C686 0.949 . S
C683 C684 1.349 . S
C683 C685 1.327 . S
C683 H706 0.950 . S
C684 C683 1.349 . S
C684 C696 1.349 . S
C685 C683 1.327 . S
C685 C701 1.429 . S
C685 H707 0.950 . S
C686 H682 0.949 . S
C686 C694 1.574 . S
C686 C702 1.368 . S
H687 C695 0.950 . S
H688 C693 0.950 . S
H689 C694 0.949 . S
H690 C696 0.950 . S
H691 C697 0.950 . S
H692 C698 0.949 . S
C693 H688 0.950 . S
C693 C695 1.327 . S
C693 C699 1.429 . S
C694 C686 1.574 . S
C694 H689 0.949 . S
C694 C700 1.368 . S
C695 C679 1.349 . S
C695 H687 0.950 . S
C695 C693 1.327 . S
C696 C684 1.349 . S
C696 H690 0.950 . S
C696 C697 1.327 . S
C697 H691 0.950 . S
C697 C696 1.327 . S
C697 C701 1.429 . S
C698 C681 1.574 . S
C698 H692 0.949 . S
C698 C702 1.368 . S
C699 C680 1.429 . S
C699 C693 1.429 . S
C699 C700 1.523 . S
C700 C681 1.368 . S
C700 C694 1.368 . S
C700 C699 1.523 . S
C701 C685 1.429 . S
C701 C697 1.429 . S
C701 C702 1.523 . S
C702 C686 1.368 . S
C702 C698 1.368 . S
C702 C701 1.523 . S
H703 C678 0.950 . S
H704 C680 0.950 . S
H705 C681 0.949 . S
H706 C683 0.950 . S
H707 C685 0.950 . S
C708 C709 1.349 . S
C708 C710 1.327 . S
C708 H733 0.950 . S
C709 C708 1.349 . S
C709 C725 1.349 . S
C710 C708 1.327 . S
C710 C729 1.429 . S
C710 H734 0.950 . S
C711 C728 1.574 . S
C711 C730 1.368 . S
C711 H735 0.949 . S
H712 C716 0.949 . S
C713 C714 1.349 . S
C713 C715 1.327 . S
C713 H736 0.950 . S
C714 C713 1.349 . S
C714 C726 1.349 . S
C715 C713 1.327 . S
C715 C731 1.429 . S
C715 H737 0.950 . S
C716 H712 0.949 . S
C716 C724 1.574 . S
C716 C732 1.368 . S
H717 C725 0.950 . S
H718 C723 0.950 . S
H719 C724 0.949 . S
H720 C726 0.950 . S
H721 C727 0.950 . S
H722 C728 0.949 . S
C723 H718 0.950 . S
C723 C725 1.327 . S
C723 C729 1.429 . S
C724 C716 1.574 . S
C724 H719 0.949 . S
C724 C730 1.368 . S
C725 C709 1.349 . S
C725 H717 0.950 . S
C725 C723 1.327 . S
C726 C714 1.349 . S
C726 H720 0.950 . S
C726 C727 1.327 . S
C727 H721 0.950 . S
C727 C726 1.327 . S
C727 C731 1.429 . S
C728 C711 1.574 . S
C728 H722 0.949 . S
C728 C732 1.368 . S
C729 C710 1.429 . S
C729 C723 1.429 . S
C729 C730 1.523 . S
C730 C711 1.368 . S
C730 C724 1.368 . S
C730 C729 1.523 . S
C731 C715 1.429 . S
C731 C727 1.429 . S
C731 C732 1.523 . S
C732 C716 1.368 . S
C732 C728 1.368 . S
C732 C731 1.523 . S
H733 C708 0.950 . S
H734 C710 0.950 . S
H735 C711 0.949 . S
H736 C713 0.950 . S
H737 C715 0.950 . S
C738 C739 1.349 . S
C738 C740 1.327 . S
C738 H763 0.950 . S
C739 C738 1.349 . S
C739 C755 1.349 . S
C740 C738 1.327 . S
C740 C759 1.429 . S
C740 H764 0.950 . S
C741 C758 1.574 . S
C741 C760 1.368 . S
C741 H765 0.949 . S
H742 C746 0.949 . S
C743 C744 1.349 . S
C743 C745 1.327 . S
C743 H766 0.950 . S
C744 C743 1.349 . S
C744 C756 1.349 . S
C745 C743 1.327 . S
C745 C761 1.429 . S
C745 H767 0.950 . S
C746 H742 0.949 . S
C746 C754 1.574 . S
C746 C762 1.368 . S
H747 C755 0.950 . S
H748 C753 0.950 . S
H749 C754 0.949 . S
H750 C756 0.950 . S
H751 C757 0.950 . S
H752 C758 0.949 . S
C753 H748 0.950 . S
C753 C755 1.327 . S
C753 C759 1.429 . S
C754 C746 1.574 . S
C754 H749 0.949 . S
C754 C760 1.368 . S
C755 C739 1.349 . S
C755 H747 0.950 . S
C755 C753 1.327 . S
C756 C744 1.349 . S
C756 H750 0.950 . S
C756 C757 1.327 . S
C757 H751 0.950 . S
C757 C756 1.327 . S
C757 C761 1.429 . S
C758 C741 1.574 . S
C758 H752 0.949 . S
C758 C762 1.368 . S
C759 C740 1.429 . S
C759 C753 1.429 . S
C759 C760 1.523 . S
C760 C741 1.368 . S
C760 C754 1.368 . S
C760 C759 1.523 . S
C761 C745 1.429 . S
C761 C757 1.429 . S
C761 C762 1.523 . S
C762 C746 1.368 . S
C762 C758 1.368 . S
C762 C761 1.523 . S
H763 C738 0.950 . S
H764 C740 0.950 . S
H765 C741 0.949 . S
H766 C743 0.950 . S
H767 C745 0.950 . S
C768 C769 1.349 . S
C768 C770 1.327 . S
C768 H793 0.950 . S
C769 C768 1.349 . S
C769 C785 1.349 . S
C770 C768 1.327 . S
C770 C789 1.429 . S
C770 H794 0.950 . S
C771 C788 1.574 1_655 S
C771 C790 1.368 . S
C771 H795 0.949 . S
H772 C776 0.949 . S
C773 C774 1.349 . S
C773 C775 1.327 . S
C773 H796 0.950 . S
C774 C773 1.349 . S
C774 C786 1.349 . S
C775 C773 1.327 . S
C775 C791 1.429 . S
C775 H797 0.950 . S
C776 H772 0.949 . S
C776 C784 1.574 1_455 S
C776 C792 1.368 . S
H777 C785 0.950 . S
H778 C783 0.950 . S
H779 C784 0.949 . S
H780 C786 0.950 . S
H781 C787 0.950 . S
H782 C788 0.949 . S
C783 H778 0.950 . S
C783 C785 1.327 . S
C783 C789 1.429 . S
C784 C776 1.574 1_655 S
C784 H779 0.949 . S
C784 C790 1.368 . S
C785 C769 1.349 . S
C785 H777 0.950 . S
C785 C783 1.327 . S
C786 C774 1.349 . S
C786 H780 0.950 . S
C786 C787 1.327 . S
C787 H781 0.950 . S
C787 C786 1.327 . S
C787 C791 1.429 . S
C788 C771 1.574 1_455 S
C788 H782 0.949 . S
C788 C792 1.368 . S
C789 C770 1.429 . S
C789 C783 1.429 . S
C789 C790 1.523 . S
C790 C771 1.368 . S
C790 C784 1.368 . S
C790 C789 1.523 . S
C791 C775 1.429 . S
C791 C787 1.429 . S
C791 C792 1.523 . S
C792 C776 1.368 . S
C792 C788 1.368 . S
C792 C791 1.523 . S
H793 C768 0.950 . S
H794 C770 0.950 . S
H795 C771 0.949 . S
H796 C773 0.950 . S
H797 C775 0.950 . S
C798 C799 1.349 . S
C798 C800 1.327 . S
C798 H823 0.950 . S
C799 C798 1.349 . S
C799 C815 1.349 . S
C800 C798 1.327 . S
C800 C819 1.429 . S
C800 H824 0.950 . S
C801 C818 1.574 . S
C801 C820 1.368 . S
C801 H825 0.949 . S
H802 C806 0.949 . S
C803 C804 1.349 . S
C803 C805 1.327 . S
C803 H826 0.950 . S
C804 C803 1.349 . S
C804 C816 1.349 . S
C805 C803 1.327 . S
C805 C821 1.429 . S
C805 H827 0.950 . S
C806 H802 0.949 . S
C806 C814 1.574 . S
C806 C822 1.368 . S
H807 C815 0.950 . S
H808 C813 0.950 . S
H809 C814 0.949 . S
H810 C816 0.950 . S
H811 C817 0.950 . S
H812 C818 0.949 . S
C813 H808 0.950 . S
C813 C815 1.327 . S
C813 C819 1.429 . S
C814 C806 1.574 . S
C814 H809 0.949 . S
C814 C820 1.368 . S
C815 C799 1.349 . S
C815 H807 0.950 . S
C815 C813 1.327 . S
C816 C804 1.349 . S
C816 H810 0.950 . S
C816 C817 1.327 . S
C817 H811 0.950 . S
C817 C816 1.327 . S
C817 C821 1.429 . S
C818 C801 1.574 . S
C818 H812 0.949 . S
C818 C822 1.368 . S
C819 C800 1.429 . S
C819 C813 1.429 . S
C819 C820 1.523 . S
C820 C801 1.368 . S
C820 C814 1.368 . S
C820 C819 1.523 . S
C821 C805 1.429 . S
C821 C817 1.429 . S
C821 C822 1.523 . S
C822 C806 1.368 . S
C822 C818 1.368 . S
C822 C821 1.523 . S
H823 C798 0.950 . S
H824 C800 0.950 . S
H825 C801 0.949 . S
H826 C803 0.950 . S
H827 C805 0.950 . S
C828 C829 1.349 . S
C828 C830 1.327 . S
C828 H853 0.950 . S
C829 C828 1.349 . S
C829 C845 1.349 . S
C830 C828 1.327 . S
C830 C849 1.429 . S
C830 H854 0.950 . S
C831 C848 1.574 1_655 S
C831 C850 1.368 . S
C831 H855 0.949 . S
H832 C836 0.949 . S
C833 C834 1.349 . S
C833 C835 1.327 . S
C833 H856 0.950 . S
C834 C833 1.349 . S
C834 C846 1.349 . S
C835 C833 1.327 . S
C835 C851 1.429 . S
C835 H857 0.950 . S
C836 H832 0.949 . S
C836 C844 1.574 1_455 S
C836 C852 1.368 . S
H837 C845 0.950 . S
H838 C843 0.950 . S
H839 C844 0.949 . S
H840 C846 0.950 . S
H841 C847 0.950 . S
H842 C848 0.949 . S
C843 H838 0.950 . S
C843 C845 1.327 . S
C843 C849 1.429 . S
C844 C836 1.574 1_655 S
C844 H839 0.949 . S
C844 C850 1.368 . S
C845 C829 1.349 . S
C845 H837 0.950 . S
C845 C843 1.327 . S
C846 C834 1.349 . S
C846 H840 0.950 . S
C846 C847 1.327 . S
C847 H841 0.950 . S
C847 C846 1.327 . S
C847 C851 1.429 . S
C848 C831 1.574 1_455 S
C848 H842 0.949 . S
C848 C852 1.368 . S
C849 C830 1.429 . S
C849 C843 1.429 . S
C849 C850 1.523 . S
C850 C831 1.368 . S
C850 C844 1.368 . S
C850 C849 1.523 . S
C851 C835 1.429 . S
C851 C847 1.429 . S
C851 C852 1.523 . S
C852 C836 1.368 . S
C852 C848 1.368 . S
C852 C851 1.523 . S
H853 C828 0.950 . S
H854 C830 0.950 . S
H855 C831 0.949 . S
H856 C833 0.950 . S
H857 C835 0.950 . S
C858 C859 1.349 . S
C858 C860 1.327 . S
C858 H883 0.950 . S
C859 C858 1.349 . S
C859 C875 1.349 . S
C860 C858 1.327 . S
C860 C879 1.429 . S
C860 H884 0.950 . S
C861 C878 1.574 . S
C861 C880 1.368 . S
C861 H885 0.949 . S
H862 C866 0.949 . S
C863 C864 1.349 . S
C863 C865 1.327 . S
C863 H886 0.950 . S
C864 C863 1.349 . S
C864 C876 1.349 . S
C865 C863 1.327 . S
C865 C881 1.429 . S
C865 H887 0.950 . S
C866 H862 0.949 . S
C866 C874 1.574 . S
C866 C882 1.368 . S
H867 C875 0.950 . S
H868 C873 0.950 . S
H869 C874 0.949 . S
H870 C876 0.950 . S
H871 C877 0.950 . S
H872 C878 0.949 . S
C873 H868 0.950 . S
C873 C875 1.327 . S
C873 C879 1.429 . S
C874 C866 1.574 . S
C874 H869 0.949 . S
C874 C880 1.368 . S
C875 C859 1.349 . S
C875 H867 0.950 . S
C875 C873 1.327 . S
C876 C864 1.349 . S
C876 H870 0.950 . S
C876 C877 1.327 . S
C877 H871 0.950 . S
C877 C876 1.327 . S
C877 C881 1.429 . S
C878 C861 1.574 . S
C878 H872 0.949 . S
C878 C882 1.368 . S
C879 C860 1.429 . S
C879 C873 1.429 . S
C879 C880 1.523 . S
C880 C861 1.368 . S
C880 C874 1.368 . S
C880 C879 1.523 . S
C881 C865 1.429 . S
C881 C877 1.429 . S
C881 C882 1.523 . S
C882 C866 1.368 . S
C882 C878 1.368 . S
C882 C881 1.523 . S
H883 C858 0.950 . S
H884 C860 0.950 . S
H885 C861 0.949 . S
H886 C863 0.950 . S
H887 C865 0.950 . S
C888 C889 1.349 . S
C888 C890 1.327 . S
C888 H913 0.950 . S
C889 C888 1.349 . S
C889 C905 1.349 . S
C890 C888 1.327 . S
C890 C909 1.429 . S
C890 H914 0.950 . S
C891 C908 1.574 . S
C891 C910 1.368 . S
C891 H915 0.949 . S
H892 C896 0.949 . S
C893 C894 1.349 . S
C893 C895 1.327 . S
C893 H916 0.950 . S
C894 C893 1.349 . S
C894 C906 1.349 . S
C895 C893 1.327 . S
C895 C911 1.429 . S
C895 H917 0.950 . S
C896 H892 0.949 . S
C896 C904 1.574 . S
C896 C912 1.368 . S
H897 C905 0.950 . S
H898 C903 0.950 . S
H899 C904 0.949 . S
H900 C906 0.950 . S
H901 C907 0.950 . S
H902 C908 0.949 . S
C903 H898 0.950 . S
C903 C905 1.327 . S
C903 C909 1.429 . S
C904 C896 1.574 . S
C904 H899 0.949 . S
C904 C910 1.368 . S
C905 C889 1.349 . S
C905 H897 0.950 . S
C905 C903 1.327 . S
C906 C894 1.349 . S
C906 H900 0.950 . S
C906 C907 1.327 . S
C907 H901 0.950 . S
C907 C906 1.327 . S
C907 C911 1.429 . S
C908 C891 1.574 . S
C908 H902 0.949 . S
C908 C912 1.368 . S
C909 C890 1.429 . S
C909 C903 1.429 . S
C909 C910 1.523 . S
C910 C891 1.368 . S
C910 C904 1.368 . S
C910 C909 1.523 . S
C911 C895 1.429 . S
C911 C907 1.429 . S
C911 C912 1.523 . S
C912 C896 1.368 . S
C912 C908 1.368 . S
C912 C911 1.523 . S
H913 C888 0.950 . S
H914 C890 0.950 . S
H915 C891 0.949 . S
H916 C893 0.950 . S
H917 C895 0.950 . S
C918 C919 1.349 . S
C918 C920 1.327 . S
C918 H943 0.950 . S
C919 C918 1.349 . S
C919 C935 1.349 . S
C920 C918 1.327 . S
C920 C939 1.429 . S
C920 H944 0.950 . S
C921 C938 1.574 1_455 S
C921 C940 1.368 . S
C921 H945 0.949 . S
H922 C926 0.949 . S
C923 C924 1.349 . S
C923 C925 1.327 . S
C923 H946 0.950 . S
C924 C923 1.349 . S
C924 C936 1.349 . S
C925 C923 1.327 . S
C925 C941 1.429 . S
C925 H947 0.950 . S
C926 H922 0.949 . S
C926 C934 1.574 1_655 S
C926 C942 1.368 . S
H927 C935 0.950 . S
H928 C933 0.950 . S
H929 C934 0.949 . S
H930 C936 0.950 . S
H931 C937 0.950 . S
H932 C938 0.949 . S
C933 H928 0.950 . S
C933 C935 1.327 . S
C933 C939 1.429 . S
C934 C926 1.574 1_455 S
C934 H929 0.949 . S
C934 C940 1.368 . S
C935 C919 1.349 . S
C935 H927 0.950 . S
C935 C933 1.327 . S
C936 C924 1.349 . S
C936 H930 0.950 . S
C936 C937 1.327 . S
C937 H931 0.950 . S
C937 C936 1.327 . S
C937 C941 1.429 . S
C938 C921 1.574 1_655 S
C938 H932 0.949 . S
C938 C942 1.368 . S
C939 C920 1.429 . S
C939 C933 1.429 . S
C939 C940 1.523 . S
C940 C921 1.368 . S
C940 C934 1.368 . S
C940 C939 1.523 . S
C941 C925 1.429 . S
C941 C937 1.429 . S
C941 C942 1.523 . S
C942 C926 1.368 . S
C942 C938 1.368 . S
C942 C941 1.523 . S
H943 C918 0.950 . S
H944 C920 0.950 . S
H945 C921 0.949 . S
H946 C923 0.950 . S
H947 C925 0.950 . S
C948 C949 1.349 . S
C948 C950 1.327 . S
C948 H973 0.950 . S
C949 C948 1.349 . S
C949 C965 1.349 . S
C950 C948 1.327 . S
C950 C969 1.429 . S
C950 H974 0.950 . S
C951 C968 1.574 . S
C951 C970 1.368 . S
C951 H975 0.949 . S
H952 C956 0.949 . S
C953 C954 1.349 . S
C953 C955 1.327 . S
C953 H976 0.950 . S
C954 C953 1.349 . S
C954 C966 1.349 . S
C955 C953 1.327 . S
C955 C971 1.429 . S
C955 H977 0.950 . S
C956 H952 0.949 . S
C956 C964 1.574 . S
C956 C972 1.368 . S
H957 C965 0.950 . S
H958 C963 0.950 . S
H959 C964 0.949 . S
H960 C966 0.950 . S
H961 C967 0.950 . S
H962 C968 0.949 . S
C963 H958 0.950 . S
C963 C965 1.327 . S
C963 C969 1.429 . S
C964 C956 1.574 . S
C964 H959 0.949 . S
C964 C970 1.368 . S
C965 C949 1.349 . S
C965 H957 0.950 . S
C965 C963 1.327 . S
C966 C954 1.349 . S
C966 H960 0.950 . S
C966 C967 1.327 . S
C967 H961 0.950 . S
C967 C966 1.327 . S
C967 C971 1.429 . S
C968 C951 1.574 . S
C968 H962 0.949 . S
C968 C972 1.368 . S
C969 C950 1.429 . S
C969 C963 1.429 . S
C969 C970 1.523 . S
C970 C951 1.368 . S
C970 C964 1.368 . S
C970 C969 1.523 . S
C971 C955 1.429 . S
C971 C967 1.429 . S
C971 C972 1.523 . S
C972 C956 1.368 . S
C972 C968 1.368 . S
C972 C971 1.523 . S
H973 C948 0.950 . S
H974 C950 0.950 . S
H975 C951 0.949 . S
H976 C953 0.950 . S
H977 C955 0.950 . S
C978 C979 1.349 . S
C978 C980 1.327 . S
C978 H1003 0.950 . S
C979 C978 1.349 . S
C979 C995 1.349 . S
C980 C978 1.327 . S
C980 C999 1.429 . S
C980 H1004 0.950 . S
C981 C998 1.574 1_655 S
C981 C1000 1.368 . S
C981 H1005 0.949 . S
H982 C986 0.949 . S
C983 C984 1.349 . S
C983 C985 1.327 . S
C983 H1006 0.950 . S
C984 C983 1.349 . S
C984 C996 1.349 . S
C985 C983 1.327 . S
C985 C1001 1.429 . S
C985 H1007 0.950 . S
C986 H982 0.949 . S
C986 C994 1.574 1_455 S
C986 C1002 1.368 . S
H987 C995 0.950 . S
H988 C993 0.950 . S
H989 C994 0.949 . S
H990 C996 0.950 . S
H991 C997 0.950 . S
H992 C998 0.949 . S
C993 H988 0.950 . S
C993 C995 1.327 . S
C993 C999 1.429 . S
C994 C986 1.574 1_655 S
C994 H989 0.949 . S
C994 C1000 1.368 . S
C995 C979 1.349 . S
C995 H987 0.950 . S
C995 C993 1.327 . S
C996 C984 1.349 . S
C996 H990 0.950 . S
C996 C997 1.327 . S
C997 H991 0.950 . S
C997 C996 1.327 . S
C997 C1001 1.429 . S
C998 C981 1.574 1_455 S
C998 H992 0.949 . S
C998 C1002 1.368 . S
C999 C980 1.429 . S
C999 C993 1.429 . S
C999 C1000 1.523 . S
C1000 C981 1.368 . S
C1000 C994 1.368 . S
C1000 C999 1.523 . S
C1001 C985 1.429 . S
C1001 C997 1.429 . S
C1001 C1002 1.523 . S
C1002 C986 1.368 . S
C1002 C998 1.368 . S
C1002 C1001 1.523 . S
H1003 C978 0.950 . S
H1004 C980 0.950 . S
H1005 C981 0.949 . S
H1006 C983 0.950 . S
H1007 C985 0.950 . S
C1008 C1009 1.349 . S
C1008 C1010 1.327 . S
C1008 H1033 0.950 . S
C1009 C1008 1.349 . S
C1009 C1025 1.349 . S
C1010 C1008 1.327 . S
C1010 C1029 1.429 . S
C1010 H1034 0.950 . S
C1011 C1028 1.574 1_545 S
C1011 C1030 1.368 1_556 S
C1011 H1035 0.949 . S
H1012 C1016 0.949 . S
C1013 C1014 1.349 . S
C1013 C1015 1.327 . S
C1013 H1036 0.950 . S
C1014 C1013 1.349 . S
C1014 C1026 1.349 . S
C1015 C1013 1.327 . S
C1015 C1031 1.429 . S
C1015 H1037 0.950 . S
C1016 H1012 0.949 . S
C1016 C1024 1.574 1_565 S
C1016 C1032 1.368 1_554 S
H1017 C1025 0.950 . S
H1018 C1023 0.950 1_556 S
H1019 C1024 0.949 . S
H1020 C1026 0.950 . S
H1021 C1027 0.950 1_554 S
H1022 C1028 0.949 . S
C1023 H1018 0.950 1_554 S
C1023 C1025 1.327 . S
C1023 C1029 1.429 . S
C1024 C1016 1.574 1_545 S
C1024 H1019 0.949 . S
C1024 C1030 1.368 . S
C1025 C1009 1.349 . S
C1025 H1017 0.950 . S
C1025 C1023 1.327 . S
C1026 C1014 1.349 . S
C1026 H1020 0.950 . S
C1026 C1027 1.327 . S
C1027 H1021 0.950 1_556 S
C1027 C1026 1.327 . S
C1027 C1031 1.429 . S
C1028 C1011 1.574 1_565 S
C1028 H1022 0.949 . S
C1028 C1032 1.368 . S
C1029 C1010 1.429 . S
C1029 C1023 1.429 . S
C1029 C1030 1.523 . S
C1030 C1011 1.368 1_554 S
C1030 C1024 1.368 . S
C1030 C1029 1.523 . S
C1031 C1015 1.429 . S
C1031 C1027 1.429 . S
C1031 C1032 1.523 . S
C1032 C1016 1.368 1_556 S
C1032 C1028 1.368 . S
C1032 C1031 1.523 . S
H1033 C1008 0.950 . S
H1034 C1010 0.950 . S
H1035 C1011 0.949 . S
H1036 C1013 0.950 . S
H1037 C1015 0.950 . S
C1038 C1039 1.349 . S
C1038 C1040 1.327 . S
C1038 H1063 0.950 . S
C1039 C1038 1.349 . S
C1039 C1055 1.349 . S
C1040 C1038 1.327 . S
C1040 C1059 1.429 . S
C1040 H1064 0.950 . S
C1041 C1058 1.574 1_565 S
C1041 C1060 1.368 . S
C1041 H1065 0.949 . S
H1042 C1046 0.949 . S
C1043 C1044 1.349 . S
C1043 C1045 1.327 . S
C1043 H1066 0.950 . S
C1044 C1043 1.349 . S
C1044 C1056 1.349 . S
C1045 C1043 1.327 . S
C1045 C1061 1.429 . S
C1045 H1067 0.950 . S
C1046 H1042 0.949 . S
C1046 C1054 1.574 1_545 S
C1046 C1062 1.368 . S
H1047 C1055 0.950 . S
H1048 C1053 0.950 . S
H1049 C1054 0.949 . S
H1050 C1056 0.950 . S
H1051 C1057 0.950 . S
H1052 C1058 0.949 . S
C1053 H1048 0.950 . S
C1053 C1055 1.327 . S
C1053 C1059 1.429 . S
C1054 C1046 1.574 1_565 S
C1054 H1049 0.949 . S
C1054 C1060 1.368 . S
C1055 C1039 1.349 . S
C1055 H1047 0.950 . S
C1055 C1053 1.327 . S
C1056 C1044 1.349 . S
C1056 H1050 0.950 . S
C1056 C1057 1.327 . S
C1057 H1051 0.950 . S
C1057 C1056 1.327 . S
C1057 C1061 1.429 . S
C1058 C1041 1.574 1_545 S
C1058 H1052 0.949 . S
C1058 C1062 1.368 . S
C1059 C1040 1.429 . S
C1059 C1053 1.429 . S
C1059 C1060 1.523 . S
C1060 C1041 1.368 . S
C1060 C1054 1.368 . S
C1060 C1059 1.523 . S
C1061 C1045 1.429 . S
C1061 C1057 1.429 . S
C1061 C1062 1.523 . S
C1062 C1046 1.368 . S
C1062 C1058 1.368 . S
C1062 C1061 1.523 . S
H1063 C1038 0.950 . S
H1064 C1040 0.950 . S
H1065 C1041 0.949 . S
H1066 C1043 0.950 . S
H1067 C1045 0.950 . S
C1068 C1069 1.349 . S
C1068 C1070 1.327 . S
C1068 H1093 0.950 . S
C1069 C1068 1.349 . S
C1069 C1085 1.349 . S
C1070 C1068 1.327 . S
C1070 C1089 1.429 . S
C1070 H1094 0.950 1_556 S
C1071 C1088 1.574 1_565 S
C1071 C1090 1.368 . S
C1071 H1095 0.949 . S
H1072 C1076 0.949 . S
C1073 C1074 1.349 . S
C1073 C1075 1.327 . S
C1073 H1096 0.950 . S
C1074 C1073 1.349 . S
C1074 C1086 1.349 . S
C1075 C1073 1.327 . S
C1075 C1091 1.429 . S
C1075 H1097 0.950 1_554 S
C1076 H1072 0.949 . S
C1076 C1084 1.574 1_545 S
C1076 C1092 1.368 . S
H1077 C1085 0.950 . S
H1078 C1083 0.950 . S
H1079 C1084 0.949 . S
H1080 C1086 0.950 . S
H1081 C1087 0.950 . S
H1082 C1088 0.949 . S
C1083 H1078 0.950 . S
C1083 C1085 1.327 . S
C1083 C1089 1.429 . S
C1084 C1076 1.574 1_565 S
C1084 H1079 0.949 . S
C1084 C1090 1.368 1_554 S
C1085 C1069 1.349 . S
C1085 H1077 0.950 . S
C1085 C1083 1.327 . S
C1086 C1074 1.349 . S
C1086 H1080 0.950 . S
C1086 C1087 1.327 . S
C1087 H1081 0.950 . S
C1087 C1086 1.327 . S
C1087 C1091 1.429 . S
C1088 C1071 1.574 1_545 S
C1088 H1082 0.949 . S
C1088 C1092 1.368 1_556 S
C1089 C1070 1.429 . S
C1089 C1083 1.429 . S
C1089 C1090 1.523 . S
C1090 C1071 1.368 . S
C1090 C1084 1.368 1_556 S
C1090 C1089 1.523 . S
C1091 C1075 1.429 . S
C1091 C1087 1.429 . S
C1091 C1092 1.523 . S
C1092 C1076 1.368 . S
C1092 C1088 1.368 1_554 S
C1092 C1091 1.523 . S
H1093 C1068 0.950 . S
H1094 C1070 0.950 1_554 S
H1095 C1071 0.949 . S
H1096 C1073 0.950 . S
H1097 C1075 0.950 1_556 S
C1098 C1099 1.349 . S
C1098 C1100 1.327 . S
C1098 H1123 0.950 . S
C1099 C1098 1.349 . S
C1099 C1115 1.349 . S
C1100 C1098 1.327 . S
C1100 C1119 1.429 . S
C1100 H1124 0.950 . S
C1101 C1118 1.574 1_545 S
C1101 C1120 1.368 . S
C1101 H1125 0.949 . S
H1102 C1106 0.949 . S
C1103 C1104 1.349 . S
C1103 C1105 1.327 . S
C1103 H1126 0.950 . S
C1104 C1103 1.349 . S
C1104 C1116 1.349 . S
C1105 C1103 1.327 . S
C1105 C1121 1.429 . S
C1105 H1127 0.950 . S
C1106 H1102 0.949 . S
C1106 C1114 1.574 1_565 S
C1106 C1122 1.368 . S
H1107 C1115 0.950 . S
H1108 C1113 0.950 . S
H1109 C1114 0.949 . S
H1110 C1116 0.950 . S
H1111 C1117 0.950 . S
H1112 C1118 0.949 . S
C1113 H1108 0.950 . S
C1113 C1115 1.327 . S
C1113 C1119 1.429 . S
C1114 C1106 1.574 1_545 S
C1114 H1109 0.949 . S
C1114 C1120 1.368 . S
C1115 C1099 1.349 . S
C1115 H1107 0.950 . S
C1115 C1113 1.327 . S
C1116 C1104 1.349 . S
C1116 H1110 0.950 . S
C1116 C1117 1.327 . S
C1117 H1111 0.950 . S
C1117 C1116 1.327 . S
C1117 C1121 1.429 . S
C1118 C1101 1.574 1_565 S
C1118 H1112 0.949 . S
C1118 C1122 1.368 . S
C1119 C1100 1.429 . S
C1119 C1113 1.429 . S
C1119 C1120 1.523 . S
C1120 C1101 1.368 . S
C1120 C1114 1.368 . S
C1120 C1119 1.523 . S
C1121 C1105 1.429 . S
C1121 C1117 1.429 . S
C1121 C1122 1.523 . S
C1122 C1106 1.368 . S
C1122 C1118 1.368 . S
C1122 C1121 1.523 . S
H1123 C1098 0.950 . S
H1124 C1100 0.950 . S
H1125 C1101 0.949 . S
H1126 C1103 0.950 . S
H1127 C1105 0.950 . S
C1128 C1129 1.349 . S
C1128 C1130 1.327 . S
C1128 H1153 0.950 . S
C1129 C1128 1.349 . S
C1129 C1145 1.349 . S
C1130 C1128 1.327 . S
C1130 C1149 1.429 . S
C1130 H1154 0.950 . S
C1131 C1148 1.574 . S
C1131 C1150 1.368 1_556 S
C1131 H1155 0.949 . S
H1132 C1136 0.949 . S
C1133 C1134 1.349 . S
C1133 C1135 1.327 . S
C1133 H1156 0.950 . S
C1134 C1133 1.349 . S
C1134 C1146 1.349 . S
C1135 C1133 1.327 . S
C1135 C1151 1.429 . S
C1135 H1157 0.950 . S
C1136 H1132 0.949 . S
C1136 C1144 1.574 . S
C1136 C1152 1.368 1_554 S
H1137 C1145 0.950 . S
H1138 C1143 0.950 1_556 S
H1139 C1144 0.949 . S
H1140 C1146 0.950 . S
H1141 C1147 0.950 1_554 S
H1142 C1148 0.949 . S
C1143 H1138 0.950 1_554 S
C1143 C1145 1.327 . S
C1143 C1149 1.429 . S
C1144 C1136 1.574 . S
C1144 H1139 0.949 . S
C1144 C1150 1.368 . S
C1145 C1129 1.349 . S
C1145 H1137 0.950 . S
C1145 C1143 1.327 . S
C1146 C1134 1.349 . S
C1146 H1140 0.950 . S
C1146 C1147 1.327 . S
C1147 H1141 0.950 1_556 S
C1147 C1146 1.327 . S
C1147 C1151 1.429 . S
C1148 C1131 1.574 . S
C1148 H1142 0.949 . S
C1148 C1152 1.368 . S
C1149 C1130 1.429 . S
C1149 C1143 1.429 . S
C1149 C1150 1.523 . S
C1150 C1131 1.368 1_554 S
C1150 C1144 1.368 . S
C1150 C1149 1.523 . S
C1151 C1135 1.429 . S
C1151 C1147 1.429 . S
C1151 C1152 1.523 . S
C1152 C1136 1.368 1_556 S
C1152 C1148 1.368 . S
C1152 C1151 1.523 . S
H1153 C1128 0.950 . S
H1154 C1130 0.950 . S
H1155 C1131 0.949 . S
H1156 C1133 0.950 . S
H1157 C1135 0.950 . S
C1158 C1159 1.349 . S
C1158 C1160 1.327 . S
C1158 H1183 0.950 . S
C1159 C1158 1.349 . S
C1159 C1175 1.349 . S
C1160 C1158 1.327 . S
C1160 C1179 1.429 . S
C1160 H1184 0.950 . S
C1161 C1178 1.574 . S
C1161 C1180 1.368 . S
C1161 H1185 0.949 . S
H1162 C1166 0.949 . S
C1163 C1164 1.349 . S
C1163 C1165 1.327 . S
C1163 H1186 0.950 . S
C1164 C1163 1.349 . S
C1164 C1176 1.349 . S
C1165 C1163 1.327 . S
C1165 C1181 1.429 . S
C1165 H1187 0.950 . S
C1166 H1162 0.949 . S
C1166 C1174 1.574 . S
C1166 C1182 1.368 . S
H1167 C1175 0.950 . S
H1168 C1173 0.950 . S
H1169 C1174 0.949 . S
H1170 C1176 0.950 . S
H1171 C1177 0.950 . S
H1172 C1178 0.949 . S
C1173 H1168 0.950 . S
C1173 C1175 1.327 . S
C1173 C1179 1.429 . S
C1174 C1166 1.574 . S
C1174 H1169 0.949 . S
C1174 C1180 1.368 . S
C1175 C1159 1.349 . S
C1175 H1167 0.950 . S
C1175 C1173 1.327 . S
C1176 C1164 1.349 . S
C1176 H1170 0.950 . S
C1176 C1177 1.327 . S
C1177 H1171 0.950 . S
C1177 C1176 1.327 . S
C1177 C1181 1.429 . S
C1178 C1161 1.574 . S
C1178 H1172 0.949 . S
C1178 C1182 1.368 . S
C1179 C1160 1.429 . S
C1179 C1173 1.429 . S
C1179 C1180 1.523 . S
C1180 C1161 1.368 . S
C1180 C1174 1.368 . S
C1180 C1179 1.523 . S
C1181 C1165 1.429 . S
C1181 C1177 1.429 . S
C1181 C1182 1.523 . S
C1182 C1166 1.368 . S
C1182 C1178 1.368 . S
C1182 C1181 1.523 . S
H1183 C1158 0.950 . S
H1184 C1160 0.950 . S
H1185 C1161 0.949 . S
H1186 C1163 0.950 . S
H1187 C1165 0.950 . S
C1188 C1189 1.349 . S
C1188 C1190 1.327 . S
C1188 H1213 0.950 . S
C1189 C1188 1.349 . S
C1189 C1205 1.349 . S
C1190 C1188 1.327 . S
C1190 C1209 1.429 . S
C1190 H1214 0.942 1_556 S
C1191 C1208 1.574 . S
C1191 C1210 1.368 . S
C1191 H1215 0.949 . S
H1192 C1196 0.949 . S
C1193 C1194 1.349 . S
C1193 C1195 1.327 . S
C1193 H1216 0.950 . S
C1194 C1193 1.349 . S
C1194 C1206 1.349 . S
C1195 C1193 1.327 . S
C1195 C1211 1.429 . S
C1195 H1217 0.942 1_554 S
C1196 H1192 0.949 . S
C1196 C1204 1.574 . S
C1196 C1212 1.368 . S
H1197 C1205 0.950 . S
H1198 C1203 0.950 . S
H1199 C1204 0.949 . S
H1200 C1206 0.950 . S
H1201 C1207 0.950 . S
H1202 C1208 0.949 . S
C1203 H1198 0.950 . S
C1203 C1205 1.327 . S
C1203 C1209 1.429 . S
C1204 C1196 1.574 . S
C1204 H1199 0.949 . S
C1204 C1210 1.368 1_554 S
C1205 C1189 1.349 . S
C1205 H1197 0.950 . S
C1205 C1203 1.327 . S
C1206 C1194 1.349 . S
C1206 H1200 0.950 . S
C1206 C1207 1.327 . S
C1207 H1201 0.950 . S
C1207 C1206 1.327 . S
C1207 C1211 1.429 . S
C1208 C1191 1.574 . S
C1208 H1202 0.949 . S
C1208 C1212 1.368 1_556 S
C1209 C1190 1.429 . S
C1209 C1203 1.429 . S
C1209 C1210 1.523 . S
C1210 C1191 1.368 . S
C1210 C1204 1.368 1_556 S
C1210 C1209 1.523 . S
C1211 C1195 1.429 . S
C1211 C1207 1.429 . S
C1211 C1212 1.523 . S
C1212 C1196 1.368 . S
C1212 C1208 1.368 1_554 S
C1212 C1211 1.523 . S
H1213 C1188 0.950 . S
H1214 C1190 0.942 1_554 S
H1215 C1191 0.949 . S
H1216 C1193 0.950 . S
H1217 C1195 0.942 1_556 S
C1218 C1219 1.349 . S
C1218 C1220 1.327 . S
C1218 H1243 0.950 . S
C1219 C1218 1.349 . S
C1219 C1235 1.349 . S
C1220 C1218 1.327 . S
C1220 C1239 1.429 . S
C1220 H1244 0.950 . S
C1221 C1238 1.574 . S
C1221 C1240 1.368 . S
C1221 H1245 0.949 . S
H1222 C1226 0.949 . S
C1223 C1224 1.349 . S
C1223 C1225 1.327 . S
C1223 H1246 0.950 . S
C1224 C1223 1.349 . S
C1224 C1236 1.349 . S
C1225 C1223 1.327 . S
C1225 C1241 1.429 . S
C1225 H1247 0.950 . S
C1226 H1222 0.949 . S
C1226 C1234 1.574 . S
C1226 C1242 1.368 . S
H1227 C1235 0.950 . S
H1228 C1233 0.950 . S
H1229 C1234 0.949 . S
H1230 C1236 0.950 . S
H1231 C1237 0.950 . S
H1232 C1238 0.949 . S
C1233 H1228 0.950 . S
C1233 C1235 1.327 . S
C1233 C1239 1.429 . S
C1234 C1226 1.574 . S
C1234 H1229 0.949 . S
C1234 C1240 1.368 . S
C1235 C1219 1.349 . S
C1235 H1227 0.950 . S
C1235 C1233 1.327 . S
C1236 C1224 1.349 . S
C1236 H1230 0.950 . S
C1236 C1237 1.327 . S
C1237 H1231 0.950 . S
C1237 C1236 1.327 . S
C1237 C1241 1.429 . S
C1238 C1221 1.574 . S
C1238 H1232 0.949 . S
C1238 C1242 1.368 . S
C1239 C1220 1.429 . S
C1239 C1233 1.429 . S
C1239 C1240 1.523 . S
C1240 C1221 1.368 . S
C1240 C1234 1.368 . S
C1240 C1239 1.523 . S
C1241 C1225 1.429 . S
C1241 C1237 1.429 . S
C1241 C1242 1.523 . S
C1242 C1226 1.368 . S
C1242 C1238 1.368 . S
C1242 C1241 1.523 . S
H1243 C1218 0.950 . S
H1244 C1220 0.950 . S
H1245 C1221 0.949 . S
H1246 C1223 0.950 . S
H1247 C1225 0.950 . S
C1248 C1249 1.349 . S
C1248 C1250 1.327 . S
C1248 H1273 0.950 . S
C1249 C1248 1.349 . S
C1249 C1265 1.349 . S
C1250 C1248 1.327 . S
C1250 C1269 1.429 . S
C1250 H1274 0.950 . S
C1251 C1268 1.574 . S
C1251 C1270 1.368 . S
C1251 H1275 0.949 . S
H1252 C1256 0.949 . S
C1253 C1254 1.349 . S
C1253 C1255 1.327 . S
C1253 H1276 0.950 . S
C1254 C1253 1.349 . S
C1254 C1266 1.349 . S
C1255 C1253 1.327 . S
C1255 C1271 1.429 . S
C1255 H1277 0.950 . S
C1256 H1252 0.949 . S
C1256 C1264 1.574 . S
C1256 C1272 1.368 . S
H1257 C1265 0.950 . S
H1258 C1263 0.950 . S
H1259 C1264 0.949 . S
H1260 C1266 0.950 . S
H1261 C1267 0.950 . S
H1262 C1268 0.949 . S
C1263 H1258 0.950 . S
C1263 C1265 1.327 . S
C1263 C1269 1.429 . S
C1264 C1256 1.574 . S
C1264 H1259 0.949 . S
C1264 C1270 1.368 . S
C1265 C1249 1.349 . S
C1265 H1257 0.950 . S
C1265 C1263 1.327 . S
C1266 C1254 1.349 . S
C1266 H1260 0.950 . S
C1266 C1267 1.327 . S
C1267 H1261 0.950 . S
C1267 C1266 1.327 . S
C1267 C1271 1.429 . S
C1268 C1251 1.574 . S
C1268 H1262 0.949 . S
C1268 C1272 1.368 . S
C1269 C1250 1.429 . S
C1269 C1263 1.429 . S
C1269 C1270 1.523 . S
C1270 C1251 1.368 . S
C1270 C1264 1.368 . S
C1270 C1269 1.523 . S
C1271 C1255 1.429 . S
C1271 C1267 1.429 . S
C1271 C1272 1.523 . S
C1272 C1256 1.368 . S
C1272 C1268 1.368 . S
C1272 C1271 1.523 . S
H1273 C1248 0.950 . S
H1274 C1250 0.950 . S
H1275 C1251 0.949 . S
H1276 C1253 0.950 . S
H1277 C1255 0.950 . S
C1278 C1279 1.349 . S
C1278 C1280 1.327 . S
C1278 H1303 0.950 . S
C1279 C1278 1.349 . S
C1279 C1295 1.349 . S
C1280 C1278 1.327 . S
C1280 C1299 1.429 . S
C1280 H1304 0.950 . S
C1281 C1298 1.574 . S
C1281 C1300 1.368 . S
C1281 H1305 0.949 . S
H1282 C1286 0.949 . S
C1283 C1284 1.349 . S
C1283 C1285 1.327 . S
C1283 H1306 0.950 . S
C1284 C1283 1.349 . S
C1284 C1296 1.349 . S
C1285 C1283 1.327 . S
C1285 C1301 1.429 . S
C1285 H1307 0.950 . S
C1286 H1282 0.949 . S
C1286 C1294 1.574 . S
C1286 C1302 1.368 . S
H1287 C1295 0.950 . S
H1288 C1293 0.950 . S
H1289 C1294 0.949 . S
H1290 C1296 0.950 . S
H1291 C1297 0.950 . S
H1292 C1298 0.949 . S
C1293 H1288 0.950 . S
C1293 C1295 1.327 . S
C1293 C1299 1.429 . S
C1294 C1286 1.574 . S
C1294 H1289 0.949 . S
C1294 C1300 1.368 . S
C1295 C1279 1.349 . S
C1295 H1287 0.950 . S
C1295 C1293 1.327 . S
C1296 C1284 1.349 . S
C1296 H1290 0.950 . S
C1296 C1297 1.327 . S
C1297 H1291 0.950 . S
C1297 C1296 1.327 . S
C1297 C1301 1.429 . S
C1298 C1281 1.574 . S
C1298 H1292 0.949 . S
C1298 C1302 1.368 . S
C1299 C1280 1.429 . S
C1299 C1293 1.429 . S
C1299 C1300 1.523 . S
C1300 C1281 1.368 . S
C1300 C1294 1.368 . S
C1300 C1299 1.523 . S
C1301 C1285 1.429 . S
C1301 C1297 1.429 . S
C1301 C1302 1.523 . S
C1302 C1286 1.368 . S
C1302 C1298 1.368 . S
C1302 C1301 1.523 . S
H1303 C1278 0.950 . S
H1304 C1280 0.950 . S
H1305 C1281 0.949 . S
H1306 C1283 0.950 . S
H1307 C1285 0.950 . S
C1308 C1309 1.349 . S
C1308 C1310 1.327 . S
C1308 H1333 0.950 . S
C1309 C1308 1.349 . S
C1309 C1325 1.349 . S
C1310 C1308 1.327 . S
C1310 C1329 1.429 . S
C1310 H1334 0.950 . S
C1311 C1328 1.574 . S
C1311 C1330 1.368 . S
C1311 H1335 0.949 . S
H1312 C1316 0.949 . S
C1313 C1314 1.349 . S
C1313 C1315 1.327 . S
C1313 H1336 0.950 . S
C1314 C1313 1.349 . S
C1314 C1326 1.349 . S
C1315 C1313 1.327 . S
C1315 C1331 1.429 . S
C1315 H1337 0.950 . S
C1316 H1312 0.949 . S
C1316 C1324 1.574 . S
C1316 C1332 1.368 . S
H1317 C1325 0.950 . S
H1318 C1323 0.950 . S
H1319 C1324 0.949 . S
H1320 C1326 0.950 . S
H1321 C1327 0.950 . S
H1322 C1328 0.949 . S
C1323 H1318 0.950 . S
C1323 C1325 1.327 . S
C1323 C1329 1.429 . S
C1324 C1316 1.574 . S
C1324 H1319 0.949 . S
C1324 C1330 1.368 . S
C1325 C1309 1.349 . S
C1325 H1317 0.950 . S
C1325 C1323 1.327 . S
C1326 C1314 1.349 . S
C1326 H1320 0.950 . S
C1326 C1327 1.327 . S
C1327 H1321 0.950 . S
C1327 C1326 1.327 . S
C1327 C1331 1.429 . S
C1328 C1311 1.574 . S
C1328 H1322 0.949 . S
C1328 C1332 1.368 . S
C1329 C1310 1.429 . S
C1329 C1323 1.429 . S
C1329 C1330 1.523 . S
C1330 C1311 1.368 . S
C1330 C1324 1.368 . S
C1330 C1329 1.523 . S
C1331 C1315 1.429 . S
C1331 C1327 1.429 . S
C1331 C1332 1.523 . S
C1332 C1316 1.368 . S
C1332 C1328 1.368 . S
C1332 C1331 1.523 . S
H1333 C1308 0.950 . S
H1334 C1310 0.950 . S
H1335 C1311 0.949 . S
H1336 C1313 0.950 . S
H1337 C1315 0.950 . S
C1338 C1339 1.349 . S
C1338 C1340 1.327 . S
C1338 H1363 0.950 . S
C1339 C1338 1.349 . S
C1339 C1355 1.349 . S
C1340 C1338 1.327 . S
C1340 C1359 1.429 . S
C1340 H1364 0.950 . S
C1341 C1358 1.574 . S
C1341 C1360 1.368 . S
C1341 H1365 0.949 . S
H1342 C1346 0.949 . S
C1343 C1344 1.349 . S
C1343 C1345 1.327 . S
C1343 H1366 0.950 . S
C1344 C1343 1.349 . S
C1344 C1356 1.349 . S
C1345 C1343 1.327 . S
C1345 C1361 1.429 . S
C1345 H1367 0.950 . S
C1346 H1342 0.949 . S
C1346 C1354 1.574 . S
C1346 C1362 1.368 . S
H1347 C1355 0.950 . S
H1348 C1353 0.950 . S
H1349 C1354 0.949 . S
H1350 C1356 0.950 . S
H1351 C1357 0.950 . S
H1352 C1358 0.949 . S
C1353 H1348 0.950 . S
C1353 C1355 1.327 . S
C1353 C1359 1.429 . S
C1354 C1346 1.574 . S
C1354 H1349 0.949 . S
C1354 C1360 1.368 . S
C1355 C1339 1.349 . S
C1355 H1347 0.950 . S
C1355 C1353 1.327 . S
C1356 C1344 1.349 . S
C1356 H1350 0.950 . S
C1356 C1357 1.327 . S
C1357 H1351 0.950 . S
C1357 C1356 1.327 . S
C1357 C1361 1.429 . S
C1358 C1341 1.574 . S
C1358 H1352 0.949 . S
C1358 C1362 1.368 . S
C1359 C1340 1.429 . S
C1359 C1353 1.429 . S
C1359 C1360 1.523 . S
C1360 C1341 1.368 . S
C1360 C1354 1.368 . S
C1360 C1359 1.523 . S
C1361 C1345 1.429 . S
C1361 C1357 1.429 . S
C1361 C1362 1.523 . S
C1362 C1346 1.368 . S
C1362 C1358 1.368 . S
C1362 C1361 1.523 . S
H1363 C1338 0.950 . S
H1364 C1340 0.950 . S
H1365 C1341 0.949 . S
H1366 C1343 0.950 . S
H1367 C1345 0.950 . S
C1368 C1369 1.349 . S
C1368 C1370 1.327 . S
C1368 H1393 0.950 . S
C1369 C1368 1.349 . S
C1369 C1385 1.349 . S
C1370 C1368 1.327 . S
C1370 C1389 1.429 . S
C1370 H1394 0.950 . S
C1371 C1388 1.574 . S
C1371 C1390 1.368 . S
C1371 H1395 0.949 . S
H1372 C1376 0.949 . S
C1373 C1374 1.349 . S
C1373 C1375 1.327 . S
C1373 H1396 0.950 . S
C1374 C1373 1.349 . S
C1374 C1386 1.349 . S
C1375 C1373 1.327 . S
C1375 C1391 1.429 . S
C1375 H1397 0.950 . S
C1376 H1372 0.949 . S
C1376 C1384 1.574 . S
C1376 C1392 1.368 . S
H1377 C1385 0.950 . S
H1378 C1383 0.950 . S
H1379 C1384 0.949 . S
H1380 C1386 0.950 . S
H1381 C1387 0.950 . S
H1382 C1388 0.949 . S
C1383 H1378 0.950 . S
C1383 C1385 1.327 . S
C1383 C1389 1.429 . S
C1384 C1376 1.574 . S
C1384 H1379 0.949 . S
C1384 C1390 1.368 . S
C1385 C1369 1.349 . S
C1385 H1377 0.950 . S
C1385 C1383 1.327 . S
C1386 C1374 1.349 . S
C1386 H1380 0.950 . S
C1386 C1387 1.327 . S
C1387 H1381 0.950 . S
C1387 C1386 1.327 . S
C1387 C1391 1.429 . S
C1388 C1371 1.574 . S
C1388 H1382 0.949 . S
C1388 C1392 1.368 . S
C1389 C1370 1.429 . S
C1389 C1383 1.429 . S
C1389 C1390 1.523 . S
C1390 C1371 1.368 . S
C1390 C1384 1.368 . S
C1390 C1389 1.523 . S
C1391 C1375 1.429 . S
C1391 C1387 1.429 . S
C1391 C1392 1.523 . S
C1392 C1376 1.368 . S
C1392 C1388 1.368 . S
C1392 C1391 1.523 . S
H1393 C1368 0.950 . S
H1394 C1370 0.950 . S
H1395 C1371 0.949 . S
H1396 C1373 0.950 . S
H1397 C1375 0.950 . S
C1398 C1399 1.349 . S
C1398 C1400 1.327 . S
C1398 H1423 0.950 . S
C1399 C1398 1.349 . S
C1399 C1415 1.349 . S
C1400 C1398 1.327 . S
C1400 C1419 1.429 . S
C1400 H1424 0.950 . S
C1401 C1418 1.574 . S
C1401 C1420 1.368 . S
C1401 H1425 0.949 . S
H1402 C1406 0.949 . S
C1403 C1404 1.349 . S
C1403 C1405 1.327 . S
C1403 H1426 0.950 . S
C1404 C1403 1.349 . S
C1404 C1416 1.349 . S
C1405 C1403 1.327 . S
C1405 C1421 1.429 . S
C1405 H1427 0.950 . S
C1406 H1402 0.949 . S
C1406 C1414 1.574 . S
C1406 C1422 1.368 . S
H1407 C1415 0.950 . S
H1408 C1413 0.950 . S
H1409 C1414 0.949 . S
H1410 C1416 0.950 . S
H1411 C1417 0.950 . S
H1412 C1418 0.949 . S
C1413 H1408 0.950 . S
C1413 C1415 1.327 . S
C1413 C1419 1.429 . S
C1414 C1406 1.574 . S
C1414 H1409 0.949 . S
C1414 C1420 1.368 . S
C1415 C1399 1.349 . S
C1415 H1407 0.950 . S
C1415 C1413 1.327 . S
C1416 C1404 1.349 . S
C1416 H1410 0.950 . S
C1416 C1417 1.327 . S
C1417 H1411 0.950 . S
C1417 C1416 1.327 . S
C1417 C1421 1.429 . S
C1418 C1401 1.574 . S
C1418 H1412 0.949 . S
C1418 C1422 1.368 . S
C1419 C1400 1.429 . S
C1419 C1413 1.429 . S
C1419 C1420 1.523 . S
C1420 C1401 1.368 . S
C1420 C1414 1.368 . S
C1420 C1419 1.523 . S
C1421 C1405 1.429 . S
C1421 C1417 1.429 . S
C1421 C1422 1.523 . S
C1422 C1406 1.368 . S
C1422 C1418 1.368 . S
C1422 C1421 1.523 . S
H1423 C1398 0.950 . S
H1424 C1400 0.950 . S
H1425 C1401 0.949 . S
H1426 C1403 0.950 . S
H1427 C1405 0.950 . S
C1428 C1429 1.349 . S
C1428 C1430 1.327 . S
C1428 H1453 0.950 . S
C1429 C1428 1.349 . S
C1429 C1445 1.349 . S
C1430 C1428 1.327 . S
C1430 C1449 1.429 . S
C1430 H1454 0.950 . S
C1431 C1448 1.574 . S
C1431 C1450 1.368 . S
C1431 H1455 0.949 . S
H1432 C1436 0.949 . S
C1433 C1434 1.349 . S
C1433 C1435 1.327 . S
C1433 H1456 0.950 . S
C1434 C1433 1.349 . S
C1434 C1446 1.349 . S
C1435 C1433 1.327 . S
C1435 C1451 1.429 . S
C1435 H1457 0.950 . S
C1436 H1432 0.949 . S
C1436 C1444 1.574 . S
C1436 C1452 1.368 . S
H1437 C1445 0.950 . S
H1438 C1443 0.950 . S
H1439 C1444 0.949 . S
H1440 C1446 0.950 . S
H1441 C1447 0.950 . S
H1442 C1448 0.949 . S
C1443 H1438 0.950 . S
C1443 C1445 1.327 . S
C1443 C1449 1.429 . S
C1444 C1436 1.574 . S
C1444 H1439 0.949 . S
C1444 C1450 1.368 . S
C1445 C1429 1.349 . S
C1445 H1437 0.950 . S
C1445 C1443 1.327 . S
C1446 C1434 1.349 . S
C1446 H1440 0.950 . S
C1446 C1447 1.327 . S
C1447 H1441 0.950 . S
C1447 C1446 1.327 . S
C1447 C1451 1.429 . S
C1448 C1431 1.574 . S
C1448 H1442 0.949 . S
C1448 C1452 1.368 . S
C1449 C1430 1.429 . S
C1449 C1443 1.429 . S
C1449 C1450 1.523 . S
C1450 C1431 1.368 . S
C1450 C1444 1.368 . S
C1450 C1449 1.523 . S
C1451 C1435 1.429 . S
C1451 C1447 1.429 . S
C1451 C1452 1.523 . S
C1452 C1436 1.368 . S
C1452 C1448 1.368 . S
C1452 C1451 1.523 . S
H1453 C1428 0.950 . S
H1454 C1430 0.950 . S
H1455 C1431 0.949 . S
H1456 C1433 0.950 . S
H1457 C1435 0.950 . S
C1458 C1459 1.349 . S
C1458 C1460 1.327 . S
C1458 H1483 0.950 . S
C1459 C1458 1.349 . S
C1459 C1475 1.349 . S
C1460 C1458 1.327 . S
C1460 C1479 1.429 . S
C1460 H1484 0.950 . S
C1461 C1478 1.574 . S
C1461 C1480 1.368 . S
C1461 H1485 0.949 . S
H1462 C1466 0.949 . S
C1463 C1464 1.349 . S
C1463 C1465 1.327 . S
C1463 H1486 0.950 . S
C1464 C1463 1.349 . S
C1464 C1476 1.349 . S
C1465 C1463 1.327 . S
C1465 C1481 1.429 . S
C1465 H1487 0.950 . S
C1466 H1462 0.949 . S
C1466 C1474 1.574 . S
C1466 C1482 1.368 . S
H1467 C1475 0.950 . S
H1468 C1473 0.950 . S
H1469 C1474 0.949 . S
H1470 C1476 0.950 . S
H1471 C1477 0.950 . S
H1472 C1478 0.949 . S
C1473 H1468 0.950 . S
C1473 C1475 1.327 . S
C1473 C1479 1.429 . S
C1474 C1466 1.574 . S
C1474 H1469 0.949 . S
C1474 C1480 1.368 . S
C1475 C1459 1.349 . S
C1475 H1467 0.950 . S
C1475 C1473 1.327 . S
C1476 C1464 1.349 . S
C1476 H1470 0.950 . S
C1476 C1477 1.327 . S
C1477 H1471 0.950 . S
C1477 C1476 1.327 . S
C1477 C1481 1.429 . S
C1478 C1461 1.574 . S
C1478 H1472 0.949 . S
C1478 C1482 1.368 . S
C1479 C1460 1.429 . S
C1479 C1473 1.429 . S
C1479 C1480 1.523 . S
C1480 C1461 1.368 . S
C1480 C1474 1.368 . S
C1480 C1479 1.523 . S
C1481 C1465 1.429 . S
C1481 C1477 1.429 . S
C1481 C1482 1.523 . S
C1482 C1466 1.368 . S
C1482 C1478 1.368 . S
C1482 C1481 1.523 . S
H1483 C1458 0.950 . S
H1484 C1460 0.950 . S
H1485 C1461 0.949 . S
H1486 C1463 0.950 . S
H1487 C1465 0.950 . S
C1488 C1489 1.349 . S
C1488 C1490 1.327 . S
C1488 H1513 0.950 . S
C1489 C1488 1.349 . S
C1489 C1505 1.349 . S
C1490 C1488 1.327 . S
C1490 C1509 1.429 . S
C1490 H1514 0.950 . S
C1491 C1508 1.574 . S
C1491 C1510 1.368 . S
C1491 H1515 0.949 . S
H1492 C1496 0.949 . S
C1493 C1494 1.349 . S
C1493 C1495 1.327 . S
C1493 H1516 0.950 . S
C1494 C1493 1.349 . S
C1494 C1506 1.349 . S
C1495 C1493 1.327 . S
C1495 C1511 1.429 . S
C1495 H1517 0.950 . S
C1496 H1492 0.949 . S
C1496 C1504 1.574 . S
C1496 C1512 1.368 . S
H1497 C1505 0.950 . S
H1498 C1503 0.950 . S
H1499 C1504 0.949 . S
H1500 C1506 0.950 . S
H1501 C1507 0.950 . S
H1502 C1508 0.949 . S
C1503 H1498 0.950 . S
C1503 C1505 1.327 . S
C1503 C1509 1.429 . S
C1504 C1496 1.574 . S
C1504 H1499 0.949 . S
C1504 C1510 1.368 . S
C1505 C1489 1.349 . S
C1505 H1497 0.950 . S
C1505 C1503 1.327 . S
C1506 C1494 1.349 . S
C1506 H1500 0.950 . S
C1506 C1507 1.327 . S
C1507 H1501 0.950 . S
C1507 C1506 1.327 . S
C1507 C1511 1.429 . S
C1508 C1491 1.574 . S
C1508 H1502 0.949 . S
C1508 C1512 1.368 . S
C1509 C1490 1.429 . S
C1509 C1503 1.429 . S
C1509 C1510 1.523 . S
C1510 C1491 1.368 . S
C1510 C1504 1.368 . S
C1510 C1509 1.523 . S
C1511 C1495 1.429 . S
C1511 C1507 1.429 . S
C1511 C1512 1.523 . S
C1512 C1496 1.368 . S
C1512 C1508 1.368 . S
C1512 C1511 1.523 . S
H1513 C1488 0.950 . S
H1514 C1490 0.950 . S
H1515 C1491 0.949 . S
H1516 C1493 0.950 . S
H1517 C1495 0.950 . S
C1518 C1519 1.349 . S
C1518 C1520 1.327 . S
C1518 H1543 0.950 . S
C1519 C1518 1.349 . S
C1519 C1535 1.349 . S
C1520 C1518 1.327 . S
C1520 C1539 1.429 . S
C1520 H1544 0.950 . S
C1521 C1538 1.574 . S
C1521 C1540 1.368 . S
C1521 H1545 0.949 . S
H1522 C1526 0.949 . S
C1523 C1524 1.349 . S
C1523 C1525 1.327 . S
C1523 H1546 0.950 . S
C1524 C1523 1.349 . S
C1524 C1536 1.349 . S
C1525 C1523 1.327 . S
C1525 C1541 1.429 . S
C1525 H1547 0.950 . S
C1526 H1522 0.949 . S
C1526 C1534 1.574 . S
C1526 C1542 1.368 . S
H1527 C1535 0.950 . S
H1528 C1533 0.950 . S
H1529 C1534 0.949 . S
H1530 C1536 0.950 . S
H1531 C1537 0.950 . S
H1532 C1538 0.949 . S
C1533 H1528 0.950 . S
C1533 C1535 1.327 . S
C1533 C1539 1.429 . S
C1534 C1526 1.574 . S
C1534 H1529 0.949 . S
C1534 C1540 1.368 . S
C1535 C1519 1.349 . S
C1535 H1527 0.950 . S
C1535 C1533 1.327 . S
C1536 C1524 1.349 . S
C1536 H1530 0.950 . S
C1536 C1537 1.327 . S
C1537 H1531 0.950 . S
C1537 C1536 1.327 . S
C1537 C1541 1.429 . S
C1538 C1521 1.574 . S
C1538 H1532 0.949 . S
C1538 C1542 1.368 . S
C1539 C1520 1.429 . S
C1539 C1533 1.429 . S
C1539 C1540 1.523 . S
C1540 C1521 1.368 . S
C1540 C1534 1.368 . S
C1540 C1539 1.523 . S
C1541 C1525 1.429 . S
C1541 C1537 1.429 . S
C1541 C1542 1.523 . S
C1542 C1526 1.368 . S
C1542 C1538 1.368 . S
C1542 C1541 1.523 . S
H1543 C1518 0.950 . S
H1544 C1520 0.950 . S
H1545 C1521 0.949 . S
H1546 C1523 0.950 . S
H1547 C1525 0.950 . S
C1548 C1549 1.349 . S
C1548 C1550 1.327 . S
C1548 H1573 0.950 . S
C1549 C1548 1.349 . S
C1549 C1565 1.349 . S
C1550 C1548 1.327 . S
C1550 C1569 1.429 . S
C1550 H1574 0.950 . S
C1551 C1568 1.574 . S
C1551 C1570 1.368 . S
C1551 H1575 0.949 . S
H1552 C1556 0.949 . S
C1553 C1554 1.349 . S
C1553 C1555 1.327 . S
C1553 H1576 0.950 . S
C1554 C1553 1.349 . S
C1554 C1566 1.349 . S
C1555 C1553 1.327 . S
C1555 C1571 1.429 . S
C1555 H1577 0.950 . S
C1556 H1552 0.949 . S
C1556 C1564 1.574 . S
C1556 C1572 1.368 . S
H1557 C1565 0.950 . S
H1558 C1563 0.950 . S
H1559 C1564 0.949 . S
H1560 C1566 0.950 . S
H1561 C1567 0.950 . S
H1562 C1568 0.949 . S
C1563 H1558 0.950 . S
C1563 C1565 1.327 . S
C1563 C1569 1.429 . S
C1564 C1556 1.574 . S
C1564 H1559 0.949 . S
C1564 C1570 1.368 . S
C1565 C1549 1.349 . S
C1565 H1557 0.950 . S
C1565 C1563 1.327 . S
C1566 C1554 1.349 . S
C1566 H1560 0.950 . S
C1566 C1567 1.327 . S
C1567 H1561 0.950 . S
C1567 C1566 1.327 . S
C1567 C1571 1.429 . S
C1568 C1551 1.574 . S
C1568 H1562 0.949 . S
C1568 C1572 1.368 . S
C1569 C1550 1.429 . S
C1569 C1563 1.429 . S
C1569 C1570 1.523 . S
C1570 C1551 1.368 . S
C1570 C1564 1.368 . S
C1570 C1569 1.523 . S
C1571 C1555 1.429 . S
C1571 C1567 1.429 . S
C1571 C1572 1.523 . S
C1572 C1556 1.368 . S
C1572 C1568 1.368 . S
C1572 C1571 1.523 . S
H1573 C1548 0.950 . S
H1574 C1550 0.950 . S
H1575 C1551 0.949 . S
H1576 C1553 0.950 . S
H1577 C1555 0.950 . S
C1578 C1579 1.349 . S
C1578 C1580 1.327 . S
C1578 H1603 0.950 . S
C1579 C1578 1.349 . S
C1579 C1595 1.349 . S
C1580 C1578 1.327 . S
C1580 C1599 1.429 . S
C1580 H1604 0.950 . S
C1581 C1598 1.574 . S
C1581 C1600 1.368 . S
C1581 H1605 0.949 . S
H1582 C1586 0.949 . S
C1583 C1584 1.349 . S
C1583 C1585 1.327 . S
C1583 H1606 0.950 . S
C1584 C1583 1.349 . S
C1584 C1596 1.349 . S
C1585 C1583 1.327 . S
C1585 C1601 1.429 . S
C1585 H1607 0.950 . S
C1586 H1582 0.949 . S
C1586 C1594 1.574 . S
C1586 C1602 1.368 . S
H1587 C1595 0.950 . S
H1588 C1593 0.950 . S
H1589 C1594 0.949 . S
H1590 C1596 0.950 . S
H1591 C1597 0.950 . S
H1592 C1598 0.949 . S
C1593 H1588 0.950 . S
C1593 C1595 1.327 . S
C1593 C1599 1.429 . S
C1594 C1586 1.574 . S
C1594 H1589 0.949 . S
C1594 C1600 1.368 . S
C1595 C1579 1.349 . S
C1595 H1587 0.950 . S
C1595 C1593 1.327 . S
C1596 C1584 1.349 . S
C1596 H1590 0.950 . S
C1596 C1597 1.327 . S
C1597 H1591 0.950 . S
C1597 C1596 1.327 . S
C1597 C1601 1.429 . S
C1598 C1581 1.574 . S
C1598 H1592 0.949 . S
C1598 C1602 1.368 . S
C1599 C1580 1.429 . S
C1599 C1593 1.429 . S
C1599 C1600 1.523 . S
C1600 C1581 1.368 . S
C1600 C1594 1.368 . S
C1600 C1599 1.523 . S
C1601 C1585 1.429 . S
C1601 C1597 1.429 . S
C1601 C1602 1.523 . S
C1602 C1586 1.368 . S
C1602 C1598 1.368 . S
C1602 C1601 1.523 . S
H1603 C1578 0.950 . S
H1604 C1580 0.950 . S
H1605 C1581 0.949 . S
H1606 C1583 0.950 . S
H1607 C1585 0.950 . S
C1608 C1609 1.349 . S
C1608 C1610 1.327 . S
C1608 H1633 0.950 . S
C1609 C1608 1.349 . S
C1609 C1625 1.349 . S
C1610 C1608 1.327 . S
C1610 C1629 1.429 . S
C1610 H1634 0.950 . S
C1611 C1628 1.574 . S
C1611 C1630 1.368 . S
C1611 H1635 0.949 . S
H1612 C1616 0.949 . S
C1613 C1614 1.349 . S
C1613 C1615 1.327 . S
C1613 H1636 0.950 . S
C1614 C1613 1.349 . S
C1614 C1626 1.349 . S
C1615 C1613 1.327 . S
C1615 C1631 1.429 . S
C1615 H1637 0.950 . S
C1616 H1612 0.949 . S
C1616 C1624 1.574 . S
C1616 C1632 1.368 . S
H1617 C1625 0.950 . S
H1618 C1623 0.950 . S
H1619 C1624 0.949 . S
H1620 C1626 0.950 . S
H1621 C1627 0.950 . S
H1622 C1628 0.949 . S
C1623 H1618 0.950 . S
C1623 C1625 1.327 . S
C1623 C1629 1.429 . S
C1624 C1616 1.574 . S
C1624 H1619 0.949 . S
C1624 C1630 1.368 . S
C1625 C1609 1.349 . S
C1625 H1617 0.950 . S
C1625 C1623 1.327 . S
C1626 C1614 1.349 . S
C1626 H1620 0.950 . S
C1626 C1627 1.327 . S
C1627 H1621 0.950 . S
C1627 C1626 1.327 . S
C1627 C1631 1.429 . S
C1628 C1611 1.574 . S
C1628 H1622 0.949 . S
C1628 C1632 1.368 . S
C1629 C1610 1.429 . S
C1629 C1623 1.429 . S
C1629 C1630 1.523 . S
C1630 C1611 1.368 . S
C1630 C1624 1.368 . S
C1630 C1629 1.523 . S
C1631 C1615 1.429 . S
C1631 C1627 1.429 . S
C1631 C1632 1.523 . S
C1632 C1616 1.368 . S
C1632 C1628 1.368 . S
C1632 C1631 1.523 . S
H1633 C1608 0.950 . S
H1634 C1610 0.950 . S
H1635 C1611 0.949 . S
H1636 C1613 0.950 . S
H1637 C1615 0.950 . S
C1638 C1639 1.349 . S
C1638 C1640 1.327 . S
C1638 H1663 0.950 . S
C1639 C1638 1.349 . S
C1639 C1655 1.349 . S
C1640 C1638 1.327 . S
C1640 C1659 1.429 . S
C1640 H1664 0.950 . S
C1641 C1658 1.574 . S
C1641 C1660 1.368 . S
C1641 H1665 0.949 . S
H1642 C1646 0.949 . S
C1643 C1644 1.349 . S
C1643 C1645 1.327 . S
C1643 H1666 0.950 . S
C1644 C1643 1.349 . S
C1644 C1656 1.349 . S
C1645 C1643 1.327 . S
C1645 C1661 1.429 . S
C1645 H1667 0.950 . S
C1646 H1642 0.949 . S
C1646 C1654 1.574 . S
C1646 C1662 1.368 . S
H1647 C1655 0.950 . S
H1648 C1653 0.950 . S
H1649 C1654 0.949 . S
H1650 C1656 0.950 . S
H1651 C1657 0.950 . S
H1652 C1658 0.949 . S
C1653 H1648 0.950 . S
C1653 C1655 1.327 . S
C1653 C1659 1.429 . S
C1654 C1646 1.574 . S
C1654 H1649 0.949 . S
C1654 C1660 1.368 . S
C1655 C1639 1.349 . S
C1655 H1647 0.950 . S
C1655 C1653 1.327 . S
C1656 C1644 1.349 . S
C1656 H1650 0.950 . S
C1656 C1657 1.327 . S
C1657 H1651 0.950 . S
C1657 C1656 1.327 . S
C1657 C1661 1.429 . S
C1658 C1641 1.574 . S
C1658 H1652 0.949 . S
C1658 C1662 1.368 . S
C1659 C1640 1.429 . S
C1659 C1653 1.429 . S
C1659 C1660 1.523 . S
C1660 C1641 1.368 . S
C1660 C1654 1.368 . S
C1660 C1659 1.523 . S
C1661 C1645 1.429 . S
C1661 C1657 1.429 . S
C1661 C1662 1.523 . S
C1662 C1646 1.368 . S
C1662 C1658 1.368 . S
C1662 C1661 1.523 . S
H1663 C1638 0.950 . S
H1664 C1640 0.950 . S
H1665 C1641 0.949 . S
H1666 C1643 0.950 . S
H1667 C1645 0.950 . S
C1668 C1669 1.349 . S
C1668 C1670 1.327 . S
C1668 H1693 0.950 . S
C1669 C1668 1.349 . S
C1669 C1685 1.349 . S
C1670 C1668 1.327 . S
C1670 C1689 1.429 . S
C1670 H1694 0.950 . S
C1671 C1688 1.574 . S
C1671 C1690 1.368 . S
C1671 H1695 0.949 . S
H1672 C1676 0.949 . S
C1673 C1674 1.349 . S
C1673 C1675 1.327 . S
C1673 H1696 0.950 . S
C1674 C1673 1.349 . S
C1674 C1686 1.349 . S
C1675 C1673 1.327 . S
C1675 C1691 1.429 . S
C1675 H1697 0.950 . S
C1676 H1672 0.949 . S
C1676 C1684 1.574 . S
C1676 C1692 1.368 . S
H1677 C1685 0.950 . S
H1678 C1683 0.950 . S
H1679 C1684 0.949 . S
H1680 C1686 0.950 . S
H1681 C1687 0.950 . S
H1682 C1688 0.949 . S
C1683 H1678 0.950 . S
C1683 C1685 1.327 . S
C1683 C1689 1.429 . S
C1684 C1676 1.574 . S
C1684 H1679 0.949 . S
C1684 C1690 1.368 . S
C1685 C1669 1.349 . S
C1685 H1677 0.950 . S
C1685 C1683 1.327 . S
C1686 C1674 1.349 . S
C1686 H1680 0.950 . S
C1686 C1687 1.327 . S
C1687 H1681 0.950 . S
C1687 C1686 1.327 . S
C1687 C1691 1.429 . S
C1688 C1671 1.574 . S
C1688 H1682 0.949 . S
C1688 C1692 1.368 . S
C1689 C1670 1.429 . S
C1689 C1683 1.429 . S
C1689 C1690 1.523 . S
C1690 C1671 1.368 . S
C1690 C1684 1.368 . S
C1690 C1689 1.523 . S
C1691 C1675 1.429 . S
C1691 C1687 1.429 . S
C1691 C1692 1.523 . S
C1692 C1676 1.368 . S
C1692 C1688 1.368 . S
C1692 C1691 1.523 . S
H1693 C1668 0.950 . S
H1694 C1670 0.950 . S
H1695 C1671 0.949 . S
H1696 C1673 0.950 . S
H1697 C1675 0.950 . S
C1698 C1699 1.349 . S
C1698 C1700 1.327 . S
C1698 H1723 0.950 . S
C1699 C1698 1.349 . S
C1699 C1715 1.349 . S
C1700 C1698 1.327 . S
C1700 C1719 1.429 . S
C1700 H1724 0.950 . S
C1701 C1718 1.574 . S
C1701 C1720 1.368 . S
C1701 H1725 0.949 . S
H1702 C1706 0.949 . S
C1703 C1704 1.349 . S
C1703 C1705 1.327 . S
C1703 H1726 0.950 . S
C1704 C1703 1.349 . S
C1704 C1716 1.349 . S
C1705 C1703 1.327 . S
C1705 C1721 1.429 . S
C1705 H1727 0.950 . S
C1706 H1702 0.949 . S
C1706 C1714 1.574 . S
C1706 C1722 1.368 . S
H1707 C1715 0.950 . S
H1708 C1713 0.950 . S
H1709 C1714 0.949 . S
H1710 C1716 0.950 . S
H1711 C1717 0.950 . S
H1712 C1718 0.949 . S
C1713 H1708 0.950 . S
C1713 C1715 1.327 . S
C1713 C1719 1.429 . S
C1714 C1706 1.574 . S
C1714 H1709 0.949 . S
C1714 C1720 1.368 . S
C1715 C1699 1.349 . S
C1715 H1707 0.950 . S
C1715 C1713 1.327 . S
C1716 C1704 1.349 . S
C1716 H1710 0.950 . S
C1716 C1717 1.327 . S
C1717 H1711 0.950 . S
C1717 C1716 1.327 . S
C1717 C1721 1.429 . S
C1718 C1701 1.574 . S
C1718 H1712 0.949 . S
C1718 C1722 1.368 . S
C1719 C1700 1.429 . S
C1719 C1713 1.429 . S
C1719 C1720 1.523 . S
C1720 C1701 1.368 . S
C1720 C1714 1.368 . S
C1720 C1719 1.523 . S
C1721 C1705 1.429 . S
C1721 C1717 1.429 . S
C1721 C1722 1.523 . S
C1722 C1706 1.368 . S
C1722 C1718 1.368 . S
C1722 C1721 1.523 . S
H1723 C1698 0.950 . S
H1724 C1700 0.950 . S
H1725 C1701 0.949 . S
H1726 C1703 0.950 . S
H1727 C1705 0.950 . S
C529 N13 1.760 . S
C534 N112 1.760 . S
C559 N79 1.760 . S
C564 N46 1.760 . S
C589 N244 1.760 . S
C594 N145 1.760 . S
C619 N178 1.760 . S
C624 N211 1.760 . S
C649 N277 1.760 . S
C654 N376 1.760 . S
C679 N310 1.760 . S
C684 N343 1.760 . S
C709 N508 1.760 . S
C714 N409 1.760 . S
C739 N442 1.760 . S
C744 N475 1.760 . S
C769 N200 1.601 . S
C774 N2 1.601 . S
C799 N233 1.601 . S
C804 N35 1.601 . S
C829 N134 1.601 . S
C834 N68 1.601 . S
C859 N167 1.601 . S
C864 N101 1.601 . S
C889 N464 1.601 . S
C894 N266 1.601 . S
C919 N497 1.601 . S
C924 N299 1.601 . S
C949 N398 1.601 . S
C954 N332 1.601 . S
C979 N365 1.601 . S
C984 N431 1.601 . S
C1009 C7 1.533 . S
C1014 C73 1.533 . S
C1039 C40 1.533 . S
C1044 C106 1.533 . S
C1069 C139 1.533 . S
C1074 C205 1.533 . S
C1099 C172 1.533 . S
C1104 C238 1.533 . S
C1129 C271 1.533 . S
C1134 C337 1.533 . S
C1159 C304 1.533 . S
C1164 C370 1.533 . S
C1189 C403 1.533 . S
C1194 C469 1.533 . S
C1219 C436 1.533 . S
C1224 C502 1.533 . S
C1249 C513 1.002 . S
C1254 C21 1.005 . S
C1279 C54 1.006 . S
C1284 C480 1.003 . S
C1309 C87 1.005 . S
C1314 C447 1.002 . S
C1339 C414 1.003 . S
C1344 C120 1.006 . S
C1369 C381 1.002 . S
C1374 C153 1.005 . S
C1399 C186 1.006 . S
C1404 C348 1.003 . S
C1429 C219 1.005 . S
C1434 C315 1.002 . S
C1459 C252 1.006 . S
C1464 C282 1.003 . S
C1489 C285 1.005 . S
C1494 C249 1.002 . S
C1519 C216 1.003 . S
C1524 C318 1.006 . S
C1549 C183 1.002 . S
C1554 C351 1.005 . S
C1579 C384 1.006 . S
C1584 C150 1.003 . S
C1609 C417 1.005 . S
C1614 C117 1.002 . S
C1639 C84 1.003 . S
C1644 C450 1.006 . S
C1669 C51 1.002 . S
C1674 C483 1.005 . S
C1699 C18 1.003 . S
C1704 C516 1.006 . S
