# Generated by pormake.
# Topology gis, (4)-cn, num edge types: 1
# Building blocks:
#     Node 0, Type 0, BuildingBlock: GALJAG_clean_sbu_0, # of connection points: 4
#     Node 1, Type 0, BuildingBlock: GALJAG_clean_sbu_0, # of connection points: 4
#     Node 2, Type 0, BuildingBlock: GALJAG_clean_sbu_0, # of connection points: 4
#     Node 3, Type 0, BuildingBlock: GALJAG_clean_sbu_0, # of connection points: 4
#     Node 4, Type 0, BuildingBlock: GALJAG_clean_sbu_0, # of connection points: 4
#     Node 5, Type 0, BuildingBlock: GALJAG_clean_sbu_0, # of connection points: 4
#     Node 6, Type 0, BuildingBlock: GALJAG_clean_sbu_0, # of connection points: 4
#     Node 7, Type 0, BuildingBlock: GALJAG_clean_sbu_0, # of connection points: 4
#     Node 8, Type 0, BuildingBlock: GALJAG_clean_sbu_0, # of connection points: 4
#     Node 9, Type 0, BuildingBlock: GALJAG_clean_sbu_0, # of connection points: 4
#     Node 10, Type 0, BuildingBlock: GALJAG_clean_sbu_0, # of connection points: 4
#     Node 11, Type 0, BuildingBlock: GALJAG_clean_sbu_0, # of connection points: 4
#     Node 12, Type 0, BuildingBlock: GALJAG_clean_sbu_0, # of connection points: 4
#     Node 13, Type 0, BuildingBlock: GALJAG_clean_sbu_0, # of connection points: 4
#     Node 14, Type 0, BuildingBlock: GALJAG_clean_sbu_0, # of connection points: 4
#     Node 15, Type 0, BuildingBlock: GALJAG_clean_sbu_0, # of connection points: 4
#     Edge 16, Type (0, 0), BuildingBlock: OJICUG_clean_linker_0, # of connection points: 2
#     Edge 17, Type (0, 0), BuildingBlock: OJICUG_clean_linker_0, # of connection points: 2
#     Edge 18, Type (0, 0), BuildingBlock: OJICUG_clean_linker_0, # of connection points: 2
#     Edge 19, Type (0, 0), BuildingBlock: OJICUG_clean_linker_0, # of connection points: 2
#     Edge 20, Type (0, 0), BuildingBlock: OJICUG_clean_linker_0, # of connection points: 2
#     Edge 21, Type (0, 0), BuildingBlock: OJICUG_clean_linker_0, # of connection points: 2
#     Edge 22, Type (0, 0), BuildingBlock: OJICUG_clean_linker_0, # of connection points: 2
#     Edge 23, Type (0, 0), BuildingBlock: OJICUG_clean_linker_0, # of connection points: 2
#     Edge 24, Type (0, 0), BuildingBlock: OJICUG_clean_linker_0, # of connection points: 2
#     Edge 25, Type (0, 0), BuildingBlock: OJICUG_clean_linker_0, # of connection points: 2
#     Edge 26, Type (0, 0), BuildingBlock: OJICUG_clean_linker_0, # of connection points: 2
#     Edge 27, Type (0, 0), BuildingBlock: OJICUG_clean_linker_0, # of connection points: 2
#     Edge 28, Type (0, 0), BuildingBlock: OJICUG_clean_linker_0, # of connection points: 2
#     Edge 29, Type (0, 0), BuildingBlock: OJICUG_clean_linker_0, # of connection points: 2
#     Edge 30, Type (0, 0), BuildingBlock: OJICUG_clean_linker_0, # of connection points: 2
#     Edge 31, Type (0, 0), BuildingBlock: OJICUG_clean_linker_0, # of connection points: 2
#     Edge 32, Type (0, 0), BuildingBlock: OJICUG_clean_linker_0, # of connection points: 2
#     Edge 33, Type (0, 0), BuildingBlock: OJICUG_clean_linker_0, # of connection points: 2
#     Edge 34, Type (0, 0), BuildingBlock: OJICUG_clean_linker_0, # of connection points: 2
#     Edge 35, Type (0, 0), BuildingBlock: OJICUG_clean_linker_0, # of connection points: 2
#     Edge 36, Type (0, 0), BuildingBlock: OJICUG_clean_linker_0, # of connection points: 2
#     Edge 37, Type (0, 0), BuildingBlock: OJICUG_clean_linker_0, # of connection points: 2
#     Edge 38, Type (0, 0), BuildingBlock: OJICUG_clean_linker_0, # of connection points: 2
#     Edge 39, Type (0, 0), BuildingBlock: OJICUG_clean_linker_0, # of connection points: 2
#     Edge 40, Type (0, 0), BuildingBlock: OJICUG_clean_linker_0, # of connection points: 2
#     Edge 41, Type (0, 0), BuildingBlock: OJICUG_clean_linker_0, # of connection points: 2
#     Edge 42, Type (0, 0), BuildingBlock: OJICUG_clean_linker_0, # of connection points: 2
#     Edge 43, Type (0, 0), BuildingBlock: OJICUG_clean_linker_0, # of connection points: 2
#     Edge 44, Type (0, 0), BuildingBlock: OJICUG_clean_linker_0, # of connection points: 2
#     Edge 45, Type (0, 0), BuildingBlock: OJICUG_clean_linker_0, # of connection points: 2
#     Edge 46, Type (0, 0), BuildingBlock: OJICUG_clean_linker_0, # of connection points: 2
#     Edge 47, Type (0, 0), BuildingBlock: OJICUG_clean_linker_0, # of connection points: 2
# Relax obj value: 0.052
# Max RMSD: 0.088
# Mean RMSD: 0.088
data_MOF--net-gis--node1-GALJAG_clean_sbu_0--edge1-OJICUG_clean_linker_0
_symmetry_space_group_name_H-M    P1
_symmetry_Int_Tables_number       1
_symmetry_cell_setting            triclinic
loop_
_symmetry_equiv_pos_as_xyz
'x, y, z'
_cell_length_a     39.402086
_cell_length_b     39.372693
_cell_length_c     27.95299
_cell_angle_alpha  90.351978
_cell_angle_beta   90.120987
_cell_angle_gamma 89.990805
loop_
_atom_site_label
_atom_site_type_symbol
_atom_site_fract_x
_atom_site_fract_y
_atom_site_fract_z
_atom_type_partial_charge
In0 In 0.13775 0.60618 0.11107 0.0
O1 O 0.15888 0.59289 0.18464 0.0
O2 O 0.1937 0.60273 0.12798 0.0
C3 C 0.06972 0.60158 0.11626 0.0
C4 C 0.14337 0.67418 0.10578 0.0
C5 C 0.14805 0.55412 0.05057 0.0
O6 O 0.08842 0.59412 0.15156 0.0
O7 O 0.08546 0.61098 0.07941 0.0
O8 O 0.15094 0.58472 0.03746 0.0
O9 O 0.14031 0.5501 0.09396 0.0
C10 C 0.18952 0.59519 0.1714 0.0
O11 O 0.15044 0.65522 0.07042 0.0
O12 O 0.13387 0.6587 0.14279 0.0
In13 In 0.6385 0.88706 0.36044 0.0
O14 O 0.65152 0.838 0.40089 0.0
O15 O 0.63569 0.8347 0.32808 0.0
C16 C 0.64793 0.93907 0.42138 0.0
C17 C 0.69021 0.89866 0.30057 0.0
C18 C 0.57042 0.89072 0.35434 0.0
O19 O 0.6511 0.90848 0.4344 0.0
O20 O 0.64037 0.9431 0.37787 0.0
O21 O 0.58917 0.89915 0.31965 0.0
O22 O 0.58613 0.88083 0.39105 0.0
C23 C 0.64505 0.81914 0.36515 0.0
O24 O 0.65955 0.90061 0.28711 0.0
O25 O 0.69446 0.89123 0.34405 0.0
In26 In 0.35532 0.38879 0.61071 0.0
O27 O 0.34225 0.40993 0.53717 0.0
O28 O 0.35325 0.4448 0.59389 0.0
C29 C 0.34885 0.32085 0.60556 0.0
C30 C 0.42342 0.39254 0.61607 0.0
C31 C 0.30368 0.40014 0.67099 0.0
O32 O 0.34223 0.33951 0.56998 0.0
O33 O 0.35839 0.3366 0.64264 0.0
O34 O 0.33434 0.40227 0.6844 0.0
O35 O 0.29941 0.39279 0.62736 0.0
C36 C 0.34544 0.44058 0.55043 0.0
O37 O 0.40486 0.40113 0.65105 0.0
O38 O 0.4075 0.38245 0.57946 0.0
In39 In 0.85522 0.10555 0.86101 0.0
O40 O 0.90436 0.09284 0.82026 0.0
O41 O 0.90764 0.11059 0.89227 0.0
C42 C 0.80319 0.09438 0.80103 0.0
C43 C 0.84496 0.05406 0.92161 0.0
C44 C 0.84988 0.17363 0.86568 0.0
O45 O 0.83378 0.09159 0.78767 0.0
O46 O 0.79918 0.10242 0.84445 0.0
O47 O 0.84279 0.15519 0.90126 0.0
O48 O 0.8593 0.15761 0.82883 0.0
C49 C 0.92322 0.10069 0.85537 0.0
O50 O 0.84234 0.08479 0.9348 0.0
O51 O 0.8524 0.04965 0.8781 0.0
In52 In 0.13837 0.38812 0.86004 0.0
O53 O 0.1511 0.33892 0.90036 0.0
O54 O 0.13437 0.33573 0.82795 0.0
C55 C 0.14854 0.44009 0.92079 0.0
C56 C 0.19014 0.39921 0.80005 0.0
C57 C 0.07034 0.39278 0.85447 0.0
O58 O 0.15138 0.40947 0.93387 0.0
O59 O 0.14095 0.44416 0.8773 0.0
O60 O 0.08905 0.40031 0.81931 0.0
O61 O 0.08608 0.38326 0.89136 0.0
C62 C 0.14393 0.3201 0.86485 0.0
O63 O 0.1595 0.40165 0.7867 0.0
O64 O 0.19435 0.39151 0.84345 0.0
In65 In 0.85544 0.88917 0.11115 0.0
O66 O 0.84264 0.83976 0.07055 0.0
O67 O 0.85972 0.83695 0.14279 0.0
C68 C 0.84494 0.94089 0.05095 0.0
C69 C 0.80374 0.90001 0.17151 0.0
C70 C 0.92348 0.89396 0.11615 0.0
O71 O 0.84212 0.9102 0.03764 0.0
O72 O 0.85265 0.94517 0.09443 0.0
O73 O 0.90491 0.90181 0.15147 0.0
O74 O 0.90759 0.88407 0.07941 0.0
C75 C 0.84997 0.82113 0.10588 0.0
O76 O 0.83438 0.90257 0.18484 0.0
O77 O 0.79952 0.89243 0.12794 0.0
In78 In 0.35531 0.60546 0.36067 0.0
O79 O 0.34261 0.58456 0.43443 0.0
O80 O 0.35292 0.54952 0.37771 0.0
C81 C 0.34907 0.67344 0.3654 0.0
C82 C 0.42336 0.60131 0.35484 0.0
C83 C 0.30336 0.59419 0.3006 0.0
O84 O 0.34265 0.65493 0.40116 0.0
O85 O 0.35835 0.65753 0.32838 0.0
O86 O 0.33396 0.59183 0.28716 0.0
O87 O 0.29929 0.60173 0.34419 0.0
C88 C 0.34546 0.55386 0.42122 0.0
O89 O 0.40452 0.59276 0.32004 0.0
O90 O 0.40774 0.61157 0.39152 0.0
In91 In 0.63764 0.10541 0.61152 0.0
O92 O 0.58818 0.09352 0.65186 0.0
O93 O 0.58537 0.11165 0.58031 0.0
C94 C 0.68933 0.09418 0.67188 0.0
C95 C 0.64731 0.05318 0.55107 0.0
C96 C 0.64427 0.17329 0.60618 0.0
O97 O 0.65868 0.09237 0.68523 0.0
O98 O 0.69356 0.10123 0.62829 0.0
O99 O 0.65061 0.15425 0.57062 0.0
O100 O 0.63497 0.15793 0.64339 0.0
C101 C 0.56954 0.10191 0.61691 0.0
O102 O 0.65064 0.08374 0.53798 0.0
O103 O 0.63942 0.04927 0.59444 0.0
In104 In 0.85569 0.38833 0.8593 0.0
O105 O 0.84251 0.40982 0.93288 0.0
O106 O 0.85311 0.44443 0.87634 0.0
C107 C 0.85005 0.32034 0.86468 0.0
C108 C 0.92372 0.39293 0.8541 0.0
C109 C 0.80391 0.39916 0.79893 0.0
O110 O 0.843 0.33932 0.90002 0.0
O111 O 0.85955 0.33579 0.82766 0.0
O112 O 0.83454 0.40146 0.78567 0.0
O113 O 0.79973 0.39175 0.8424 0.0
C114 C 0.84538 0.44042 0.91975 0.0
O115 O 0.90501 0.40044 0.81882 0.0
O116 O 0.90798 0.38348 0.89093 0.0
In117 In 0.35482 0.10628 0.61014 0.0
O118 O 0.34183 0.15534 0.56966 0.0
O119 O 0.3578 0.15866 0.64242 0.0
C120 C 0.34532 0.05427 0.54923 0.0
C121 C 0.30307 0.09489 0.67003 0.0
C122 C 0.42289 0.10247 0.61622 0.0
O123 O 0.34226 0.08487 0.53617 0.0
O124 O 0.35278 0.05023 0.59277 0.0
O125 O 0.40413 0.09411 0.65093 0.0
O126 O 0.40719 0.11238 0.5795 0.0
C127 C 0.34839 0.17421 0.60536 0.0
O128 O 0.33372 0.09285 0.68349 0.0
O129 O 0.29885 0.10227 0.62652 0.0
In130 In 0.63812 0.60457 0.35963 0.0
O131 O 0.58857 0.59218 0.31931 0.0
O132 O 0.58593 0.61091 0.39087 0.0
C133 C 0.68978 0.59339 0.29934 0.0
C134 C 0.64802 0.55274 0.41986 0.0
C135 C 0.64456 0.67251 0.36488 0.0
O136 O 0.65912 0.59124 0.28591 0.0
O137 O 0.69403 0.60065 0.343 0.0
O138 O 0.65117 0.65383 0.40044 0.0
O139 O 0.63502 0.65678 0.32777 0.0
C140 C 0.57001 0.6008 0.35428 0.0
O141 O 0.65119 0.5834 0.43315 0.0
O142 O 0.64023 0.54854 0.37638 0.0
In143 In 0.13808 0.88897 0.10961 0.0
O144 O 0.08896 0.90174 0.15038 0.0
O145 O 0.08566 0.88404 0.07835 0.0
C146 C 0.19014 0.89996 0.1696 0.0
C147 C 0.14838 0.94048 0.04906 0.0
C148 C 0.14334 0.82089 0.10485 0.0
O149 O 0.15957 0.90281 0.18298 0.0
O150 O 0.19413 0.89198 0.12615 0.0
O151 O 0.1505 0.83935 0.06932 0.0
O152 O 0.13387 0.8369 0.1417 0.0
C153 C 0.07009 0.89394 0.11526 0.0
O154 O 0.15093 0.90975 0.03584 0.0
O155 O 0.14102 0.94489 0.09259 0.0
In156 In 0.85507 0.60639 0.11034 0.0
O157 O 0.83397 0.59272 0.18364 0.0
O158 O 0.7991 0.60293 0.12695 0.0
C159 C 0.9231 0.60174 0.1159 0.0
C160 C 0.8495 0.67441 0.1056 0.0
C161 C 0.84493 0.55445 0.04952 0.0
O162 O 0.9044 0.59424 0.15108 0.0
O163 O 0.90736 0.61122 0.07899 0.0
O164 O 0.84207 0.58507 0.03647 0.0
O165 O 0.85253 0.55036 0.09301 0.0
C166 C 0.80332 0.59513 0.1703 0.0
O167 O 0.84231 0.65561 0.07008 0.0
O168 O 0.85907 0.65876 0.14249 0.0
In169 In 0.13788 0.10535 0.85947 0.0
O170 O 0.08839 0.09278 0.81917 0.0
O171 O 0.08573 0.11058 0.8912 0.0
C172 C 0.18955 0.09431 0.79911 0.0
C173 C 0.14832 0.05366 0.91972 0.0
C174 C 0.14349 0.17339 0.86465 0.0
O175 O 0.15889 0.09182 0.7858 0.0
O176 O 0.1938 0.10194 0.84265 0.0
O177 O 0.15073 0.15477 0.90003 0.0
O178 O 0.13377 0.15756 0.82773 0.0
C179 C 0.06984 0.10069 0.85447 0.0
O180 O 0.15122 0.08435 0.933 0.0
O181 O 0.14055 0.04937 0.87626 0.0
In182 In 0.63812 0.38791 0.6097 0.0
O183 O 0.58891 0.40058 0.65032 0.0
O184 O 0.5857 0.38184 0.5788 0.0
C185 C 0.69006 0.39933 0.66973 0.0
C186 C 0.64796 0.43948 0.54908 0.0
C187 C 0.64431 0.31992 0.60506 0.0
O188 O 0.65946 0.4017 0.68315 0.0
O189 O 0.69414 0.39166 0.62619 0.0
O190 O 0.65079 0.3384 0.5693 0.0
O191 O 0.63503 0.33586 0.64206 0.0
C192 C 0.57007 0.39205 0.6155 0.0
O193 O 0.65083 0.40877 0.5359 0.0
O194 O 0.64048 0.44384 0.59258 0.0
In195 In 0.35567 0.88793 0.35907 0.0
O196 O 0.3426 0.9096 0.4326 0.0
O197 O 0.35406 0.94406 0.37621 0.0
C198 C 0.34891 0.82007 0.36435 0.0
C199 C 0.42377 0.89128 0.35365 0.0
C200 C 0.30401 0.89938 0.29874 0.0
O201 O 0.34271 0.83909 0.39997 0.0
O202 O 0.35812 0.83543 0.3271 0.0
O203 O 0.33467 0.9011 0.28539 0.0
O204 O 0.29976 0.89227 0.3423 0.0
C205 C 0.34606 0.94016 0.41954 0.0
O206 O 0.40514 0.89973 0.31873 0.0
O207 O 0.40793 0.88156 0.39025 0.0
C208 C 0.13757 0.76551 0.14617 0.0
C209 C 0.145 0.78338 0.10417 0.0
H210 H 0.13142 0.71735 0.17945 0.0
C211 C 0.15306 0.76504 0.06238 0.0
H212 H 0.13138 0.77883 0.17905 0.0
C213 C 0.15308 0.72938 0.06262 0.0
C214 C 0.14505 0.71167 0.10465 0.0
H215 H 0.1589 0.77819 0.02949 0.0
H216 H 0.15893 0.71573 0.0299 0.0
C217 C 0.1376 0.73017 0.14641 0.0
C218 C 0.47935 0.90215 0.31184 0.0
C219 C 0.46127 0.89203 0.35267 0.0
H220 H 0.52844 0.90976 0.28014 0.0
C221 C 0.47937 0.882 0.39352 0.0
H222 H 0.46602 0.91 0.27985 0.0
C223 C 0.51468 0.88186 0.39369 0.0
C224 C 0.53293 0.89174 0.353 0.0
H225 H 0.46626 0.87406 0.42559 0.0
H226 H 0.52767 0.87381 0.42588 0.0
C227 C 0.51499 0.90201 0.31201 0.0
C228 C 0.35288 0.26534 0.6469 0.0
C229 C 0.34666 0.28338 0.60462 0.0
H230 H 0.35808 0.21703 0.68012 0.0
C231 C 0.3395 0.26523 0.5623 0.0
H232 H 0.35829 0.27851 0.68019 0.0
C233 C 0.33938 0.22957 0.56226 0.0
C234 C 0.3464 0.21168 0.60454 0.0
H235 H 0.33458 0.27853 0.5292 0.0
H236 H 0.33437 0.21606 0.52912 0.0
C237 C 0.35275 0.23 0.64686 0.0
C238 C 0.01415 0.09023 0.81221 0.0
C239 C 0.03235 0.09929 0.8537 0.0
H240 H 0.96497 0.0835 0.77997 0.0
C241 C 0.01437 0.10784 0.89537 0.0
H242 H 0.0274 0.08351 0.77958 0.0
C243 C 0.97906 0.10783 0.89559 0.0
C244 C 0.9607 0.09927 0.85416 0.0
H245 H 0.02757 0.11485 0.928 0.0
H246 H 0.96615 0.11484 0.92838 0.0
C247 C 0.97851 0.09023 0.81243 0.0
C248 C 0.15361 0.2647 0.9076 0.0
C249 C 0.14556 0.2826 0.86569 0.0
H250 H 0.15934 0.21574 0.94036 0.0
C251 C 0.13801 0.26428 0.82376 0.0
H252 H 0.15954 0.27821 0.94044 0.0
C253 C 0.13789 0.22894 0.82372 0.0
C254 C 0.14531 0.21089 0.86561 0.0
H255 H 0.13182 0.27725 0.7908 0.0
H256 H 0.13161 0.21577 0.79073 0.0
C257 C 0.15349 0.22904 0.90756 0.0
C258 C 0.97895 0.88699 0.07519 0.0
C259 C 0.96096 0.89541 0.11691 0.0
H260 H 0.02716 0.88008 0.04214 0.0
C261 C 0.97916 0.90435 0.15846 0.0
H262 H 0.96574 0.88008 0.04252 0.0
C263 C 0.0148 0.90435 0.15823 0.0
C264 C 0.03262 0.89542 0.11646 0.0
H265 H 0.96592 0.91097 0.19112 0.0
H266 H 0.02834 0.91097 0.19073 0.0
C267 C 0.01426 0.88699 0.07497 0.0
C268 C 0.3527 0.72876 0.32351 0.0
C269 C 0.34693 0.71092 0.36604 0.0
H270 H 0.3576 0.77691 0.28978 0.0
C271 C 0.34026 0.72926 0.40832 0.0
H272 H 0.35771 0.71542 0.29025 0.0
C273 C 0.3402 0.76492 0.40805 0.0
C274 C 0.34679 0.78261 0.3655 0.0
H275 H 0.3357 0.71612 0.44161 0.0
H276 H 0.3356 0.77859 0.44115 0.0
C277 C 0.35262 0.76409 0.32324 0.0
C278 C 0.51396 0.09109 0.65876 0.0
C279 C 0.53204 0.1011 0.61787 0.0
H280 H 0.46486 0.0836 0.69051 0.0
C281 C 0.51394 0.11098 0.57695 0.0
H282 H 0.52729 0.08335 0.69081 0.0
C283 C 0.47863 0.11113 0.57679 0.0
C284 C 0.46038 0.10139 0.61754 0.0
H285 H 0.52705 0.11882 0.54483 0.0
H286 H 0.46564 0.11907 0.54454 0.0
C287 C 0.47832 0.09123 0.65859 0.0
C288 C 0.8556 0.22899 0.8243 0.0
C289 C 0.84824 0.21114 0.86634 0.0
H290 H 0.86177 0.27713 0.79098 0.0
C291 C 0.84029 0.2295 0.90815 0.0
H292 H 0.86171 0.21565 0.79141 0.0
C293 C 0.84032 0.26516 0.9079 0.0
C294 C 0.8483 0.28285 0.86583 0.0
H295 H 0.83449 0.21637 0.94107 0.0
H296 H 0.83455 0.27883 0.94063 0.0
C297 C 0.85564 0.26433 0.82405 0.0
C298 C 0.64063 0.72803 0.32354 0.0
C299 C 0.64677 0.70997 0.36584 0.0
H300 H 0.63552 0.77634 0.29033 0.0
C301 C 0.65386 0.72811 0.40819 0.0
H302 H 0.63528 0.71486 0.29023 0.0
C303 C 0.65399 0.76377 0.40825 0.0
C304 C 0.64706 0.78167 0.36595 0.0
H305 H 0.65871 0.7148 0.44131 0.0
H306 H 0.65894 0.77727 0.44141 0.0
C307 C 0.64078 0.76337 0.3236 0.0
C308 C 0.83977 0.72983 0.06291 0.0
C309 C 0.8479 0.71192 0.10479 0.0
H310 H 0.83397 0.7788 0.03021 0.0
C311 C 0.85555 0.73022 0.14669 0.0
H312 H 0.83375 0.71633 0.0301 0.0
C313 C 0.85569 0.76556 0.14675 0.0
C314 C 0.84817 0.78363 0.1049 0.0
H315 H 0.86181 0.71724 0.17962 0.0
H316 H 0.86204 0.77872 0.17972 0.0
C317 C 0.8399 0.76549 0.06297 0.0
C318 C 0.65318 0.26407 0.56224 0.0
C319 C 0.64637 0.28244 0.60445 0.0
H320 H 0.65793 0.21474 0.52947 0.0
C321 C 0.64036 0.26461 0.64694 0.0
H322 H 0.65793 0.2772 0.52899 0.0
C323 C 0.64037 0.22927 0.64722 0.0
C324 C 0.64639 0.21075 0.60502 0.0
H325 H 0.63521 0.27796 0.68015 0.0
H326 H 0.63522 0.21648 0.68063 0.0
C327 C 0.65319 0.22841 0.56252 0.0
C328 C 0.01469 0.38605 0.89489 0.0
C329 C 0.03286 0.39419 0.85337 0.0
H330 H 0.96633 0.37943 0.9275 0.0
C331 C 0.01485 0.40285 0.8117 0.0
H332 H 0.02775 0.37936 0.92766 0.0
C333 C 0.97921 0.40289 0.81161 0.0
C334 C 0.96121 0.39427 0.85319 0.0
H335 H 0.02824 0.40924 0.77918 0.0
H336 H 0.96582 0.40931 0.77902 0.0
C337 C 0.97938 0.3861 0.89481 0.0
C338 C 0.51432 0.58978 0.31229 0.0
C339 C 0.53251 0.59985 0.35333 0.0
H340 H 0.46515 0.58226 0.28036 0.0
C341 C 0.51451 0.60973 0.39441 0.0
H342 H 0.52758 0.58204 0.28012 0.0
C343 C 0.4792 0.60985 0.39455 0.0
C344 C 0.46085 0.60011 0.35361 0.0
H345 H 0.5277 0.6176 0.42667 0.0
H346 H 0.46628 0.61782 0.4269 0.0
C347 C 0.47868 0.5899 0.31243 0.0
C348 C 0.51424 0.38351 0.57579 0.0
C349 C 0.53258 0.39325 0.61673 0.0
H350 H 0.46574 0.37577 0.54366 0.0
C351 C 0.51475 0.40342 0.65793 0.0
H352 H 0.52715 0.37557 0.54342 0.0
C353 C 0.47911 0.40354 0.65807 0.0
C354 C 0.46092 0.39348 0.61701 0.0
H355 H 0.52827 0.41106 0.69 0.0
H356 H 0.46585 0.41126 0.69025 0.0
C357 C 0.47893 0.38363 0.57592 0.0
C358 C 0.01423 0.59169 0.15879 0.0
C359 C 0.03223 0.60024 0.11717 0.0
H360 H 0.9652 0.5854 0.19124 0.0
C361 C 0.01406 0.60835 0.07553 0.0
H362 H 0.02762 0.58532 0.19139 0.0
C363 C 0.97875 0.60839 0.07544 0.0
C364 C 0.96058 0.60032 0.11699 0.0
H365 H 0.02711 0.61496 0.04281 0.0
H366 H 0.96569 0.61504 0.04266 0.0
C367 C 0.97859 0.59173 0.1587 0.0
C368 C 0.15194 0.49172 0.03508 0.0
C369 C 0.15149 0.52507 0.01739 0.0
H370 H 0.15182 0.43855 0.01827 0.0
C371 C 0.15242 0.53021 0.96779 0.0
H372 H 0.1514 0.48702 0.07321 0.0
C373 C 0.15236 0.50247 0.9364 0.0
C374 C 0.15177 0.46912 0.95407 0.0
H375 H 0.1521 0.55563 0.95319 0.0
H376 H 0.15214 0.50717 0.89825 0.0
C377 C 0.15227 0.46398 0.00368 0.0
C378 C 0.75248 0.90344 0.28551 0.0
C379 C 0.71911 0.90259 0.26762 0.0
H380 H 0.80555 0.90374 0.26901 0.0
C381 C 0.71382 0.90346 0.21799 0.0
H382 H 0.75729 0.90295 0.32367 0.0
C383 C 0.74144 0.90365 0.18676 0.0
C384 C 0.77482 0.90331 0.20462 0.0
H385 H 0.68838 0.90286 0.20323 0.0
H386 H 0.73663 0.9033 0.14859 0.0
C387 C 0.7801 0.90397 0.25427 0.0
C388 C 0.34129 0.46403 0.46775 0.0
C389 C 0.34224 0.46947 0.51738 0.0
H390 H 0.34166 0.48664 0.39833 0.0
C391 C 0.34201 0.50293 0.53524 0.0
H392 H 0.34146 0.43852 0.45302 0.0
C393 C 0.34182 0.53048 0.50398 0.0
C394 C 0.34225 0.52503 0.45434 0.0
H395 H 0.34259 0.50785 0.5734 0.0
H396 H 0.34239 0.55599 0.5187 0.0
C397 C 0.34149 0.49158 0.4365 0.0
C398 C 0.7131 0.09056 0.75465 0.0
C399 C 0.71826 0.09059 0.705 0.0
H400 H 0.73611 0.09179 0.82405 0.0
C401 C 0.75158 0.08934 0.68717 0.0
H402 H 0.6877 0.09151 0.76936 0.0
C403 C 0.77928 0.08923 0.71843 0.0
C404 C 0.77415 0.09073 0.76804 0.0
H405 H 0.75629 0.08918 0.649 0.0
H406 H 0.80469 0.08911 0.70369 0.0
C407 C 0.74081 0.0908 0.7859 0.0
C408 C 0.84153 0.50284 0.93522 0.0
C409 C 0.84195 0.46948 0.95291 0.0
H410 H 0.84168 0.556 0.95204 0.0
C411 C 0.84101 0.46434 0.00251 0.0
H412 H 0.84209 0.50753 0.89709 0.0
C413 C 0.84107 0.49208 0.0339 0.0
C414 C 0.8417 0.52543 0.01624 0.0
H415 H 0.8413 0.43892 0.01711 0.0
H416 H 0.84129 0.48738 0.07205 0.0
C417 C 0.84121 0.53058 0.96662 0.0
C418 C 0.25183 0.09038 0.78386 0.0
C419 C 0.21845 0.09082 0.76601 0.0
H420 H 0.30489 0.09088 0.76738 0.0
C421 C 0.21316 0.09007 0.71636 0.0
H422 H 0.25665 0.09079 0.82203 0.0
C423 C 0.24079 0.0904 0.68512 0.0
C424 C 0.27416 0.09113 0.703 0.0
H425 H 0.18771 0.09038 0.70163 0.0
H426 H 0.23598 0.09082 0.64695 0.0
C427 C 0.27945 0.09036 0.75263 0.0
C428 C 0.65143 0.49039 0.43504 0.0
C429 C 0.65122 0.52386 0.4529 0.0
H430 H 0.65102 0.43733 0.45159 0.0
C431 C 0.65217 0.52929 0.50253 0.0
H432 H 0.65084 0.48547 0.39688 0.0
C433 C 0.65196 0.50175 0.53378 0.0
C434 C 0.65118 0.46829 0.51594 0.0
H435 H 0.65202 0.5548 0.51726 0.0
H436 H 0.65179 0.50668 0.57195 0.0
C437 C 0.65161 0.46284 0.4663 0.0
C438 C 0.28025 0.90328 0.21599 0.0
C439 C 0.27509 0.90315 0.26563 0.0
H440 H 0.25723 0.90232 0.14658 0.0
C441 C 0.24178 0.90453 0.28347 0.0
H442 H 0.30564 0.90225 0.20127 0.0
C443 C 0.21407 0.90484 0.25222 0.0
C444 C 0.21921 0.90344 0.2026 0.0
H445 H 0.23707 0.90462 0.32164 0.0
H446 H 0.18867 0.90504 0.26696 0.0
C447 C 0.25254 0.90325 0.18474 0.0
C448 C 0.65081 0.99074 0.53567 0.0
C449 C 0.65056 0.02408 0.51795 0.0
H450 H 0.65063 0.93757 0.51889 0.0
C451 C 0.65164 0.0292 0.46835 0.0
H452 H 0.65013 0.98607 0.5738 0.0
C453 C 0.65162 0.00145 0.43698 0.0
C454 C 0.65091 0.96811 0.45467 0.0
H455 H 0.65147 0.05462 0.45373 0.0
H456 H 0.65156 0.00614 0.39883 0.0
C457 C 0.65119 0.96299 0.5043 0.0
C458 C 0.28007 0.40388 0.75377 0.0
C459 C 0.27478 0.40358 0.70412 0.0
H460 H 0.25725 0.40265 0.82315 0.0
C461 C 0.24141 0.40435 0.68627 0.0
H462 H 0.30551 0.4033 0.7685 0.0
C463 C 0.21378 0.40424 0.71751 0.0
C464 C 0.21907 0.40301 0.76712 0.0
H465 H 0.2366 0.40429 0.6481 0.0
H466 H 0.18834 0.40399 0.70275 0.0
C467 C 0.25244 0.40342 0.785 0.0
C468 C 0.84083 0.9918 0.93697 0.0
C469 C 0.8416 0.02527 0.95477 0.0
H470 H 0.84083 0.93876 0.95354 0.0
C471 C 0.84111 0.03075 0.0044 0.0
H472 H 0.84104 0.98684 0.8988 0.0
C473 C 0.84128 0.00321 0.03569 0.0
C474 C 0.84158 0.96974 0.01788 0.0
H475 H 0.84169 0.05627 0.01909 0.0
H476 H 0.84186 0.00816 0.07385 0.0
C477 C 0.84063 0.96428 0.96825 0.0
C478 C 0.2518 0.59063 0.18662 0.0
C479 C 0.21847 0.5914 0.20445 0.0
H480 H 0.30491 0.59044 0.20316 0.0
C481 C 0.2133 0.59051 0.25408 0.0
H482 H 0.25653 0.59112 0.14846 0.0
C483 C 0.241 0.59039 0.28535 0.0
C484 C 0.27434 0.59079 0.26752 0.0
H485 H 0.18789 0.59105 0.26879 0.0
H486 H 0.23629 0.59073 0.32351 0.0
C487 C 0.2795 0.59015 0.21787 0.0
C488 C 0.34148 0.9919 0.53362 0.0
C489 C 0.34235 0.02523 0.51593 0.0
H490 H 0.34152 0.93873 0.51687 0.0
C491 C 0.34229 0.03036 0.4663 0.0
H492 H 0.34137 0.98722 0.57177 0.0
C493 C 0.34271 0.0026 0.43494 0.0
C494 C 0.34279 0.96926 0.45266 0.0
H495 H 0.34298 0.05578 0.45171 0.0
H496 H 0.34355 0.00728 0.39681 0.0
C497 C 0.34149 0.96415 0.50225 0.0
C498 C 0.77969 0.58975 0.25281 0.0
C499 C 0.7744 0.59115 0.20321 0.0
H500 H 0.75687 0.58936 0.32221 0.0
C501 C 0.74103 0.5907 0.18532 0.0
H502 H 0.80513 0.59003 0.26757 0.0
C503 C 0.7134 0.59002 0.21654 0.0
C504 C 0.71868 0.59014 0.26619 0.0
H505 H 0.73622 0.59159 0.14717 0.0
H506 H 0.68796 0.59057 0.20181 0.0
C507 C 0.75206 0.58942 0.28404 0.0
C508 C 0.15254 0.00274 0.03371 0.0
C509 C 0.15173 0.96928 0.01591 0.0
H510 H 0.15255 0.05579 0.01712 0.0
C511 C 0.15215 0.9638 0.96627 0.0
H512 H 0.15238 0.0077 0.07187 0.0
C513 C 0.15195 0.99133 0.93498 0.0
C514 C 0.1517 0.02481 0.9528 0.0
H515 H 0.15154 0.93828 0.95158 0.0
H516 H 0.15133 0.98638 0.89682 0.0
C517 C 0.15271 0.03027 0.00242 0.0
C518 C 0.75241 0.40333 0.68495 0.0
C519 C 0.71907 0.40292 0.70279 0.0
H520 H 0.80552 0.40288 0.70151 0.0
C521 C 0.71392 0.40378 0.75242 0.0
H522 H 0.75712 0.40282 0.64679 0.0
C523 C 0.74161 0.40353 0.78369 0.0
C524 C 0.77494 0.40277 0.76585 0.0
H525 H 0.68851 0.4035 0.76714 0.0
H526 H 0.73689 0.40321 0.82185 0.0
C527 C 0.78011 0.40343 0.71622 0.0
loop_
_geom_bond_atom_site_label_1
_geom_bond_atom_site_label_2
_geom_bond_distance
_geom_bond_site_symmetry_2
_ccdc_geom_bond_type
In0 O1 2.294 . S
In0 O2 2.326 . S
In0 O6 2.266 . S
In0 O7 2.326 . S
In0 O8 2.266 . S
In0 O9 2.326 . S
In0 O11 2.294 . S
In0 O12 2.326 . S
O1 In0 2.294 . S
O1 C10 1.240 . S
O2 In0 2.326 . S
O2 C10 1.252 . S
C3 O6 1.252 . S
C3 O7 1.260 . S
C4 O11 1.240 . S
C4 O12 1.252 . S
C5 O8 1.252 . S
C5 O9 1.260 . S
O6 In0 2.266 . S
O6 C3 1.252 . S
O7 In0 2.326 . S
O7 C3 1.260 . S
O8 In0 2.266 . S
O8 C5 1.252 . S
O9 In0 2.326 . S
O9 C5 1.260 . S
C10 O1 1.240 . S
C10 O2 1.252 . S
O11 In0 2.294 . S
O11 C4 1.240 . S
O12 In0 2.326 . S
O12 C4 1.252 . S
In13 O14 2.294 . S
In13 O15 2.326 . S
In13 O19 2.266 . S
In13 O20 2.326 . S
In13 O21 2.266 . S
In13 O22 2.326 . S
In13 O24 2.294 . S
In13 O25 2.326 . S
O14 In13 2.294 . S
O14 C23 1.240 . S
O15 In13 2.326 . S
O15 C23 1.252 . S
C16 O19 1.252 . S
C16 O20 1.260 . S
C17 O24 1.240 . S
C17 O25 1.252 . S
C18 O21 1.252 . S
C18 O22 1.260 . S
O19 In13 2.266 . S
O19 C16 1.252 . S
O20 In13 2.326 . S
O20 C16 1.260 . S
O21 In13 2.266 . S
O21 C18 1.252 . S
O22 In13 2.326 . S
O22 C18 1.260 . S
C23 O14 1.240 . S
C23 O15 1.252 . S
O24 In13 2.294 . S
O24 C17 1.240 . S
O25 In13 2.326 . S
O25 C17 1.252 . S
In26 O27 2.294 . S
In26 O28 2.326 . S
In26 O32 2.266 . S
In26 O33 2.326 . S
In26 O34 2.266 . S
In26 O35 2.326 . S
In26 O37 2.294 . S
In26 O38 2.326 . S
O27 In26 2.294 . S
O27 C36 1.240 . S
O28 In26 2.326 . S
O28 C36 1.252 . S
C29 O32 1.252 . S
C29 O33 1.260 . S
C30 O37 1.240 . S
C30 O38 1.252 . S
C31 O34 1.252 . S
C31 O35 1.260 . S
O32 In26 2.266 . S
O32 C29 1.252 . S
O33 In26 2.326 . S
O33 C29 1.260 . S
O34 In26 2.266 . S
O34 C31 1.252 . S
O35 In26 2.326 . S
O35 C31 1.260 . S
C36 O27 1.240 . S
C36 O28 1.252 . S
O37 In26 2.294 . S
O37 C30 1.240 . S
O38 In26 2.326 . S
O38 C30 1.252 . S
In39 O40 2.294 . S
In39 O41 2.326 . S
In39 O45 2.266 . S
In39 O46 2.326 . S
In39 O47 2.266 . S
In39 O48 2.326 . S
In39 O50 2.294 . S
In39 O51 2.326 . S
O40 In39 2.294 . S
O40 C49 1.240 . S
O41 In39 2.326 . S
O41 C49 1.252 . S
C42 O45 1.252 . S
C42 O46 1.260 . S
C43 O50 1.240 . S
C43 O51 1.252 . S
C44 O47 1.252 . S
C44 O48 1.260 . S
O45 In39 2.266 . S
O45 C42 1.252 . S
O46 In39 2.326 . S
O46 C42 1.260 . S
O47 In39 2.266 . S
O47 C44 1.252 . S
O48 In39 2.326 . S
O48 C44 1.260 . S
C49 O40 1.240 . S
C49 O41 1.252 . S
O50 In39 2.294 . S
O50 C43 1.240 . S
O51 In39 2.326 . S
O51 C43 1.252 . S
In52 O53 2.294 . S
In52 O54 2.326 . S
In52 O58 2.266 . S
In52 O59 2.326 . S
In52 O60 2.266 . S
In52 O61 2.326 . S
In52 O63 2.294 . S
In52 O64 2.326 . S
O53 In52 2.294 . S
O53 C62 1.240 . S
O54 In52 2.326 . S
O54 C62 1.252 . S
C55 O58 1.252 . S
C55 O59 1.260 . S
C56 O63 1.240 . S
C56 O64 1.252 . S
C57 O60 1.252 . S
C57 O61 1.260 . S
O58 In52 2.266 . S
O58 C55 1.252 . S
O59 In52 2.326 . S
O59 C55 1.260 . S
O60 In52 2.266 . S
O60 C57 1.252 . S
O61 In52 2.326 . S
O61 C57 1.260 . S
C62 O53 1.240 . S
C62 O54 1.252 . S
O63 In52 2.294 . S
O63 C56 1.240 . S
O64 In52 2.326 . S
O64 C56 1.252 . S
In65 O66 2.294 . S
In65 O67 2.326 . S
In65 O71 2.266 . S
In65 O72 2.326 . S
In65 O73 2.266 . S
In65 O74 2.326 . S
In65 O76 2.294 . S
In65 O77 2.326 . S
O66 In65 2.294 . S
O66 C75 1.240 . S
O67 In65 2.326 . S
O67 C75 1.252 . S
C68 O71 1.252 . S
C68 O72 1.260 . S
C69 O76 1.240 . S
C69 O77 1.252 . S
C70 O73 1.252 . S
C70 O74 1.260 . S
O71 In65 2.266 . S
O71 C68 1.252 . S
O72 In65 2.326 . S
O72 C68 1.260 . S
O73 In65 2.266 . S
O73 C70 1.252 . S
O74 In65 2.326 . S
O74 C70 1.260 . S
C75 O66 1.240 . S
C75 O67 1.252 . S
O76 In65 2.294 . S
O76 C69 1.240 . S
O77 In65 2.326 . S
O77 C69 1.252 . S
In78 O79 2.294 . S
In78 O80 2.326 . S
In78 O84 2.266 . S
In78 O85 2.326 . S
In78 O86 2.266 . S
In78 O87 2.326 . S
In78 O89 2.294 . S
In78 O90 2.326 . S
O79 In78 2.294 . S
O79 C88 1.240 . S
O80 In78 2.326 . S
O80 C88 1.252 . S
C81 O84 1.252 . S
C81 O85 1.260 . S
C82 O89 1.240 . S
C82 O90 1.252 . S
C83 O86 1.252 . S
C83 O87 1.260 . S
O84 In78 2.266 . S
O84 C81 1.252 . S
O85 In78 2.326 . S
O85 C81 1.260 . S
O86 In78 2.266 . S
O86 C83 1.252 . S
O87 In78 2.326 . S
O87 C83 1.260 . S
C88 O79 1.240 . S
C88 O80 1.252 . S
O89 In78 2.294 . S
O89 C82 1.240 . S
O90 In78 2.326 . S
O90 C82 1.252 . S
In91 O92 2.294 . S
In91 O93 2.326 . S
In91 O97 2.266 . S
In91 O98 2.326 . S
In91 O99 2.266 . S
In91 O100 2.326 . S
In91 O102 2.294 . S
In91 O103 2.326 . S
O92 In91 2.294 . S
O92 C101 1.240 . S
O93 In91 2.326 . S
O93 C101 1.252 . S
C94 O97 1.252 . S
C94 O98 1.260 . S
C95 O102 1.240 . S
C95 O103 1.252 . S
C96 O99 1.252 . S
C96 O100 1.260 . S
O97 In91 2.266 . S
O97 C94 1.252 . S
O98 In91 2.326 . S
O98 C94 1.260 . S
O99 In91 2.266 . S
O99 C96 1.252 . S
O100 In91 2.326 . S
O100 C96 1.260 . S
C101 O92 1.240 . S
C101 O93 1.252 . S
O102 In91 2.294 . S
O102 C95 1.240 . S
O103 In91 2.326 . S
O103 C95 1.252 . S
In104 O105 2.294 . S
In104 O106 2.326 . S
In104 O110 2.266 . S
In104 O111 2.326 . S
In104 O112 2.266 . S
In104 O113 2.326 . S
In104 O115 2.294 . S
In104 O116 2.326 . S
O105 In104 2.294 . S
O105 C114 1.240 . S
O106 In104 2.326 . S
O106 C114 1.252 . S
C107 O110 1.252 . S
C107 O111 1.260 . S
C108 O115 1.240 . S
C108 O116 1.252 . S
C109 O112 1.252 . S
C109 O113 1.260 . S
O110 In104 2.266 . S
O110 C107 1.252 . S
O111 In104 2.326 . S
O111 C107 1.260 . S
O112 In104 2.266 . S
O112 C109 1.252 . S
O113 In104 2.326 . S
O113 C109 1.260 . S
C114 O105 1.240 . S
C114 O106 1.252 . S
O115 In104 2.294 . S
O115 C108 1.240 . S
O116 In104 2.326 . S
O116 C108 1.252 . S
In117 O118 2.294 . S
In117 O119 2.326 . S
In117 O123 2.266 . S
In117 O124 2.326 . S
In117 O125 2.266 . S
In117 O126 2.326 . S
In117 O128 2.294 . S
In117 O129 2.326 . S
O118 In117 2.294 . S
O118 C127 1.240 . S
O119 In117 2.326 . S
O119 C127 1.252 . S
C120 O123 1.252 . S
C120 O124 1.260 . S
C121 O128 1.240 . S
C121 O129 1.252 . S
C122 O125 1.252 . S
C122 O126 1.260 . S
O123 In117 2.266 . S
O123 C120 1.252 . S
O124 In117 2.326 . S
O124 C120 1.260 . S
O125 In117 2.266 . S
O125 C122 1.252 . S
O126 In117 2.326 . S
O126 C122 1.260 . S
C127 O118 1.240 . S
C127 O119 1.252 . S
O128 In117 2.294 . S
O128 C121 1.240 . S
O129 In117 2.326 . S
O129 C121 1.252 . S
In130 O131 2.294 . S
In130 O132 2.326 . S
In130 O136 2.266 . S
In130 O137 2.326 . S
In130 O138 2.266 . S
In130 O139 2.326 . S
In130 O141 2.294 . S
In130 O142 2.326 . S
O131 In130 2.294 . S
O131 C140 1.240 . S
O132 In130 2.326 . S
O132 C140 1.252 . S
C133 O136 1.252 . S
C133 O137 1.260 . S
C134 O141 1.240 . S
C134 O142 1.252 . S
C135 O138 1.252 . S
C135 O139 1.260 . S
O136 In130 2.266 . S
O136 C133 1.252 . S
O137 In130 2.326 . S
O137 C133 1.260 . S
O138 In130 2.266 . S
O138 C135 1.252 . S
O139 In130 2.326 . S
O139 C135 1.260 . S
C140 O131 1.240 . S
C140 O132 1.252 . S
O141 In130 2.294 . S
O141 C134 1.240 . S
O142 In130 2.326 . S
O142 C134 1.252 . S
In143 O144 2.294 . S
In143 O145 2.326 . S
In143 O149 2.266 . S
In143 O150 2.326 . S
In143 O151 2.266 . S
In143 O152 2.326 . S
In143 O154 2.294 . S
In143 O155 2.326 . S
O144 In143 2.294 . S
O144 C153 1.240 . S
O145 In143 2.326 . S
O145 C153 1.252 . S
C146 O149 1.252 . S
C146 O150 1.260 . S
C147 O154 1.240 . S
C147 O155 1.252 . S
C148 O151 1.252 . S
C148 O152 1.260 . S
O149 In143 2.266 . S
O149 C146 1.252 . S
O150 In143 2.326 . S
O150 C146 1.260 . S
O151 In143 2.266 . S
O151 C148 1.252 . S
O152 In143 2.326 . S
O152 C148 1.260 . S
C153 O144 1.240 . S
C153 O145 1.252 . S
O154 In143 2.294 . S
O154 C147 1.240 . S
O155 In143 2.326 . S
O155 C147 1.252 . S
In156 O157 2.294 . S
In156 O158 2.326 . S
In156 O162 2.266 . S
In156 O163 2.326 . S
In156 O164 2.266 . S
In156 O165 2.326 . S
In156 O167 2.294 . S
In156 O168 2.326 . S
O157 In156 2.294 . S
O157 C166 1.240 . S
O158 In156 2.326 . S
O158 C166 1.252 . S
C159 O162 1.252 . S
C159 O163 1.260 . S
C160 O167 1.240 . S
C160 O168 1.252 . S
C161 O164 1.252 . S
C161 O165 1.260 . S
O162 In156 2.266 . S
O162 C159 1.252 . S
O163 In156 2.326 . S
O163 C159 1.260 . S
O164 In156 2.266 . S
O164 C161 1.252 . S
O165 In156 2.326 . S
O165 C161 1.260 . S
C166 O157 1.240 . S
C166 O158 1.252 . S
O167 In156 2.294 . S
O167 C160 1.240 . S
O168 In156 2.326 . S
O168 C160 1.252 . S
In169 O170 2.294 . S
In169 O171 2.326 . S
In169 O175 2.266 . S
In169 O176 2.326 . S
In169 O177 2.266 . S
In169 O178 2.326 . S
In169 O180 2.294 . S
In169 O181 2.326 . S
O170 In169 2.294 . S
O170 C179 1.240 . S
O171 In169 2.326 . S
O171 C179 1.252 . S
C172 O175 1.252 . S
C172 O176 1.260 . S
C173 O180 1.240 . S
C173 O181 1.252 . S
C174 O177 1.252 . S
C174 O178 1.260 . S
O175 In169 2.266 . S
O175 C172 1.252 . S
O176 In169 2.326 . S
O176 C172 1.260 . S
O177 In169 2.266 . S
O177 C174 1.252 . S
O178 In169 2.326 . S
O178 C174 1.260 . S
C179 O170 1.240 . S
C179 O171 1.252 . S
O180 In169 2.294 . S
O180 C173 1.240 . S
O181 In169 2.326 . S
O181 C173 1.252 . S
In182 O183 2.294 . S
In182 O184 2.326 . S
In182 O188 2.266 . S
In182 O189 2.326 . S
In182 O190 2.266 . S
In182 O191 2.326 . S
In182 O193 2.294 . S
In182 O194 2.326 . S
O183 In182 2.294 . S
O183 C192 1.240 . S
O184 In182 2.326 . S
O184 C192 1.252 . S
C185 O188 1.252 . S
C185 O189 1.260 . S
C186 O193 1.240 . S
C186 O194 1.252 . S
C187 O190 1.252 . S
C187 O191 1.260 . S
O188 In182 2.266 . S
O188 C185 1.252 . S
O189 In182 2.326 . S
O189 C185 1.260 . S
O190 In182 2.266 . S
O190 C187 1.252 . S
O191 In182 2.326 . S
O191 C187 1.260 . S
C192 O183 1.240 . S
C192 O184 1.252 . S
O193 In182 2.294 . S
O193 C186 1.240 . S
O194 In182 2.326 . S
O194 C186 1.252 . S
In195 O196 2.294 . S
In195 O197 2.326 . S
In195 O201 2.266 . S
In195 O202 2.326 . S
In195 O203 2.266 . S
In195 O204 2.326 . S
In195 O206 2.294 . S
In195 O207 2.326 . S
O196 In195 2.294 . S
O196 C205 1.240 . S
O197 In195 2.326 . S
O197 C205 1.252 . S
C198 O201 1.252 . S
C198 O202 1.260 . S
C199 O206 1.240 . S
C199 O207 1.252 . S
C200 O203 1.252 . S
C200 O204 1.260 . S
O201 In195 2.266 . S
O201 C198 1.252 . S
O202 In195 2.326 . S
O202 C198 1.260 . S
O203 In195 2.266 . S
O203 C200 1.252 . S
O204 In195 2.326 . S
O204 C200 1.260 . S
C205 O196 1.240 . S
C205 O197 1.252 . S
O206 In195 2.294 . S
O206 C199 1.240 . S
O207 In195 2.326 . S
O207 C199 1.252 . S
C208 C209 1.387 . S
C208 H212 0.950 . S
C208 C217 1.390 . S
C209 C208 1.387 . S
C209 C211 1.387 . S
H210 C217 0.950 . S
C211 C209 1.387 . S
C211 C213 1.390 . S
C211 H215 0.950 . S
H212 C208 0.950 . S
C213 C211 1.390 . S
C213 C214 1.387 . S
C213 H216 0.950 . S
C214 C213 1.387 . S
C214 C217 1.387 . S
H215 C211 0.950 . S
H216 C213 0.950 . S
C217 C208 1.390 . S
C217 H210 0.950 . S
C217 C214 1.387 . S
C218 C219 1.387 . S
C218 H222 0.950 . S
C218 C227 1.390 . S
C219 C218 1.387 . S
C219 C221 1.387 . S
H220 C227 0.950 . S
C221 C219 1.387 . S
C221 C223 1.390 . S
C221 H225 0.950 . S
H222 C218 0.950 . S
C223 C221 1.390 . S
C223 C224 1.387 . S
C223 H226 0.950 . S
C224 C223 1.387 . S
C224 C227 1.387 . S
H225 C221 0.950 . S
H226 C223 0.950 . S
C227 C218 1.390 . S
C227 H220 0.950 . S
C227 C224 1.387 . S
C228 C229 1.387 . S
C228 H232 0.950 . S
C228 C237 1.390 . S
C229 C228 1.387 . S
C229 C231 1.387 . S
H230 C237 0.950 . S
C231 C229 1.387 . S
C231 C233 1.390 . S
C231 H235 0.950 . S
H232 C228 0.950 . S
C233 C231 1.390 . S
C233 C234 1.387 . S
C233 H236 0.950 . S
C234 C233 1.387 . S
C234 C237 1.387 . S
H235 C231 0.950 . S
H236 C233 0.950 . S
C237 C228 1.390 . S
C237 H230 0.950 . S
C237 C234 1.387 . S
C238 C239 1.387 . S
C238 H242 0.950 . S
C238 C247 1.390 1_455 S
C239 C238 1.387 . S
C239 C241 1.387 . S
H240 C247 0.950 . S
C241 C239 1.387 . S
C241 C243 1.390 1_455 S
C241 H245 0.950 . S
H242 C238 0.950 . S
C243 C241 1.390 1_655 S
C243 C244 1.387 . S
C243 H246 0.950 . S
C244 C243 1.387 . S
C244 C247 1.387 . S
H245 C241 0.950 . S
H246 C243 0.950 . S
C247 C238 1.390 1_655 S
C247 H240 0.950 . S
C247 C244 1.387 . S
C248 C249 1.387 . S
C248 H252 0.950 . S
C248 C257 1.390 . S
C249 C248 1.387 . S
C249 C251 1.387 . S
H250 C257 0.950 . S
C251 C249 1.387 . S
C251 C253 1.390 . S
C251 H255 0.950 . S
H252 C248 0.950 . S
C253 C251 1.390 . S
C253 C254 1.387 . S
C253 H256 0.950 . S
C254 C253 1.387 . S
C254 C257 1.387 . S
H255 C251 0.950 . S
H256 C253 0.950 . S
C257 C248 1.390 . S
C257 H250 0.950 . S
C257 C254 1.387 . S
C258 C259 1.387 . S
C258 H262 0.950 . S
C258 C267 1.390 1_655 S
C259 C258 1.387 . S
C259 C261 1.387 . S
H260 C267 0.950 . S
C261 C259 1.387 . S
C261 C263 1.390 1_655 S
C261 H265 0.950 . S
H262 C258 0.950 . S
C263 C261 1.390 1_455 S
C263 C264 1.387 . S
C263 H266 0.950 . S
C264 C263 1.387 . S
C264 C267 1.387 . S
H265 C261 0.950 . S
H266 C263 0.950 . S
C267 C258 1.390 1_455 S
C267 H260 0.950 . S
C267 C264 1.387 . S
C268 C269 1.387 . S
C268 H272 0.950 . S
C268 C277 1.390 . S
C269 C268 1.387 . S
C269 C271 1.387 . S
H270 C277 0.950 . S
C271 C269 1.387 . S
C271 C273 1.390 . S
C271 H275 0.950 . S
H272 C268 0.950 . S
C273 C271 1.390 . S
C273 C274 1.387 . S
C273 H276 0.950 . S
C274 C273 1.387 . S
C274 C277 1.387 . S
H275 C271 0.950 . S
H276 C273 0.950 . S
C277 C268 1.390 . S
C277 H270 0.950 . S
C277 C274 1.387 . S
C278 C279 1.387 . S
C278 H282 0.950 . S
C278 C287 1.390 . S
C279 C278 1.387 . S
C279 C281 1.387 . S
H280 C287 0.950 . S
C281 C279 1.387 . S
C281 C283 1.390 . S
C281 H285 0.950 . S
H282 C278 0.950 . S
C283 C281 1.390 . S
C283 C284 1.387 . S
C283 H286 0.950 . S
C284 C283 1.387 . S
C284 C287 1.387 . S
H285 C281 0.950 . S
H286 C283 0.950 . S
C287 C278 1.390 . S
C287 H280 0.950 . S
C287 C284 1.387 . S
C288 C289 1.387 . S
C288 H292 0.950 . S
C288 C297 1.390 . S
C289 C288 1.387 . S
C289 C291 1.387 . S
H290 C297 0.950 . S
C291 C289 1.387 . S
C291 C293 1.390 . S
C291 H295 0.950 . S
H292 C288 0.950 . S
C293 C291 1.390 . S
C293 C294 1.387 . S
C293 H296 0.950 . S
C294 C293 1.387 . S
C294 C297 1.387 . S
H295 C291 0.950 . S
H296 C293 0.950 . S
C297 C288 1.390 . S
C297 H290 0.950 . S
C297 C294 1.387 . S
C298 C299 1.387 . S
C298 H302 0.950 . S
C298 C307 1.390 . S
C299 C298 1.387 . S
C299 C301 1.387 . S
H300 C307 0.950 . S
C301 C299 1.387 . S
C301 C303 1.390 . S
C301 H305 0.950 . S
H302 C298 0.950 . S
C303 C301 1.390 . S
C303 C304 1.387 . S
C303 H306 0.950 . S
C304 C303 1.387 . S
C304 C307 1.387 . S
H305 C301 0.950 . S
H306 C303 0.950 . S
C307 C298 1.390 . S
C307 H300 0.950 . S
C307 C304 1.387 . S
C308 C309 1.387 . S
C308 H312 0.950 . S
C308 C317 1.390 . S
C309 C308 1.387 . S
C309 C311 1.387 . S
H310 C317 0.950 . S
C311 C309 1.387 . S
C311 C313 1.390 . S
C311 H315 0.950 . S
H312 C308 0.950 . S
C313 C311 1.390 . S
C313 C314 1.387 . S
C313 H316 0.950 . S
C314 C313 1.387 . S
C314 C317 1.387 . S
H315 C311 0.950 . S
H316 C313 0.950 . S
C317 C308 1.390 . S
C317 H310 0.950 . S
C317 C314 1.387 . S
C318 C319 1.387 . S
C318 H322 0.950 . S
C318 C327 1.390 . S
C319 C318 1.387 . S
C319 C321 1.387 . S
H320 C327 0.950 . S
C321 C319 1.387 . S
C321 C323 1.390 . S
C321 H325 0.950 . S
H322 C318 0.950 . S
C323 C321 1.390 . S
C323 C324 1.387 . S
C323 H326 0.950 . S
C324 C323 1.387 . S
C324 C327 1.387 . S
H325 C321 0.950 . S
H326 C323 0.950 . S
C327 C318 1.390 . S
C327 H320 0.950 . S
C327 C324 1.387 . S
C328 C329 1.387 . S
C328 H332 0.950 . S
C328 C337 1.390 1_455 S
C329 C328 1.387 . S
C329 C331 1.387 . S
H330 C337 0.950 . S
C331 C329 1.387 . S
C331 C333 1.390 1_455 S
C331 H335 0.950 . S
H332 C328 0.950 . S
C333 C331 1.390 1_655 S
C333 C334 1.387 . S
C333 H336 0.950 . S
C334 C333 1.387 . S
C334 C337 1.387 . S
H335 C331 0.950 . S
H336 C333 0.950 . S
C337 C328 1.390 1_655 S
C337 H330 0.950 . S
C337 C334 1.387 . S
C338 C339 1.387 . S
C338 H342 0.950 . S
C338 C347 1.390 . S
C339 C338 1.387 . S
C339 C341 1.387 . S
H340 C347 0.950 . S
C341 C339 1.387 . S
C341 C343 1.390 . S
C341 H345 0.950 . S
H342 C338 0.950 . S
C343 C341 1.390 . S
C343 C344 1.387 . S
C343 H346 0.950 . S
C344 C343 1.387 . S
C344 C347 1.387 . S
H345 C341 0.950 . S
H346 C343 0.950 . S
C347 C338 1.390 . S
C347 H340 0.950 . S
C347 C344 1.387 . S
C348 C349 1.387 . S
C348 H352 0.950 . S
C348 C357 1.390 . S
C349 C348 1.387 . S
C349 C351 1.387 . S
H350 C357 0.950 . S
C351 C349 1.387 . S
C351 C353 1.390 . S
C351 H355 0.950 . S
H352 C348 0.950 . S
C353 C351 1.390 . S
C353 C354 1.387 . S
C353 H356 0.950 . S
C354 C353 1.387 . S
C354 C357 1.387 . S
H355 C351 0.950 . S
H356 C353 0.950 . S
C357 C348 1.390 . S
C357 H350 0.950 . S
C357 C354 1.387 . S
C358 C359 1.387 . S
C358 H362 0.950 . S
C358 C367 1.390 1_455 S
C359 C358 1.387 . S
C359 C361 1.387 . S
H360 C367 0.950 . S
C361 C359 1.387 . S
C361 C363 1.390 1_455 S
C361 H365 0.950 . S
H362 C358 0.950 . S
C363 C361 1.390 1_655 S
C363 C364 1.387 . S
C363 H366 0.950 . S
C364 C363 1.387 . S
C364 C367 1.387 . S
H365 C361 0.950 . S
H366 C363 0.950 . S
C367 C358 1.390 1_655 S
C367 H360 0.950 . S
C367 C364 1.387 . S
C368 C369 1.387 . S
C368 H372 0.950 . S
C368 C377 1.390 1_554 S
C369 C368 1.387 . S
C369 C371 1.387 . S
H370 C377 0.950 . S
C371 C369 1.387 . S
C371 C373 1.390 1_554 S
C371 H375 0.950 . S
H372 C368 0.950 . S
C373 C371 1.390 1_556 S
C373 C374 1.387 . S
C373 H376 0.950 . S
C374 C373 1.387 . S
C374 C377 1.387 . S
H375 C371 0.950 . S
H376 C373 0.950 . S
C377 C368 1.390 1_556 S
C377 H370 0.950 . S
C377 C374 1.387 . S
C378 C379 1.387 . S
C378 H382 0.950 . S
C378 C387 1.390 . S
C379 C378 1.387 . S
C379 C381 1.387 . S
H380 C387 0.950 . S
C381 C379 1.387 . S
C381 C383 1.390 . S
C381 H385 0.950 . S
H382 C378 0.950 . S
C383 C381 1.390 . S
C383 C384 1.387 . S
C383 H386 0.950 . S
C384 C383 1.387 . S
C384 C387 1.387 . S
H385 C381 0.950 . S
H386 C383 0.950 . S
C387 C378 1.390 . S
C387 H380 0.950 . S
C387 C384 1.387 . S
C388 C389 1.387 . S
C388 H392 0.950 . S
C388 C397 1.390 . S
C389 C388 1.387 . S
C389 C391 1.387 . S
H390 C397 0.950 . S
C391 C389 1.387 . S
C391 C393 1.390 . S
C391 H395 0.950 . S
H392 C388 0.950 . S
C393 C391 1.390 . S
C393 C394 1.387 . S
C393 H396 0.950 . S
C394 C393 1.387 . S
C394 C397 1.387 . S
H395 C391 0.950 . S
H396 C393 0.950 . S
C397 C388 1.390 . S
C397 H390 0.950 . S
C397 C394 1.387 . S
C398 C399 1.387 . S
C398 H402 0.950 . S
C398 C407 1.390 . S
C399 C398 1.387 . S
C399 C401 1.387 . S
H400 C407 0.950 . S
C401 C399 1.387 . S
C401 C403 1.390 . S
C401 H405 0.950 . S
H402 C398 0.950 . S
C403 C401 1.390 . S
C403 C404 1.387 . S
C403 H406 0.950 . S
C404 C403 1.387 . S
C404 C407 1.387 . S
H405 C401 0.950 . S
H406 C403 0.950 . S
C407 C398 1.390 . S
C407 H400 0.950 . S
C407 C404 1.387 . S
C408 C409 1.387 . S
C408 H412 0.950 . S
C408 C417 1.390 1_556 S
C409 C408 1.387 . S
C409 C411 1.387 . S
H410 C417 0.950 . S
C411 C409 1.387 . S
C411 C413 1.390 1_556 S
C411 H415 0.950 . S
H412 C408 0.950 . S
C413 C411 1.390 1_554 S
C413 C414 1.387 . S
C413 H416 0.950 . S
C414 C413 1.387 . S
C414 C417 1.387 . S
H415 C411 0.950 . S
H416 C413 0.950 . S
C417 C408 1.390 1_554 S
C417 H410 0.950 . S
C417 C414 1.387 . S
C418 C419 1.387 . S
C418 H422 0.950 . S
C418 C427 1.390 . S
C419 C418 1.387 . S
C419 C421 1.387 . S
H420 C427 0.950 . S
C421 C419 1.387 . S
C421 C423 1.390 . S
C421 H425 0.950 . S
H422 C418 0.950 . S
C423 C421 1.390 . S
C423 C424 1.387 . S
C423 H426 0.950 . S
C424 C423 1.387 . S
C424 C427 1.387 . S
H425 C421 0.950 . S
H426 C423 0.950 . S
C427 C418 1.390 . S
C427 H420 0.950 . S
C427 C424 1.387 . S
C428 C429 1.387 . S
C428 H432 0.950 . S
C428 C437 1.390 . S
C429 C428 1.387 . S
C429 C431 1.387 . S
H430 C437 0.950 . S
C431 C429 1.387 . S
C431 C433 1.390 . S
C431 H435 0.950 . S
H432 C428 0.950 . S
C433 C431 1.390 . S
C433 C434 1.387 . S
C433 H436 0.950 . S
C434 C433 1.387 . S
C434 C437 1.387 . S
H435 C431 0.950 . S
H436 C433 0.950 . S
C437 C428 1.390 . S
C437 H430 0.950 . S
C437 C434 1.387 . S
C438 C439 1.387 . S
C438 H442 0.950 . S
C438 C447 1.390 . S
C439 C438 1.387 . S
C439 C441 1.387 . S
H440 C447 0.950 . S
C441 C439 1.387 . S
C441 C443 1.390 . S
C441 H445 0.950 . S
H442 C438 0.950 . S
C443 C441 1.390 . S
C443 C444 1.387 . S
C443 H446 0.950 . S
C444 C443 1.387 . S
C444 C447 1.387 . S
H445 C441 0.950 . S
H446 C443 0.950 . S
C447 C438 1.390 . S
C447 H440 0.950 . S
C447 C444 1.387 . S
C448 C449 1.387 . S
C448 H452 0.950 . S
C448 C457 1.390 1_545 S
C449 C448 1.387 . S
C449 C451 1.387 . S
H450 C457 0.950 . S
C451 C449 1.387 . S
C451 C453 1.390 1_545 S
C451 H455 0.950 . S
H452 C448 0.950 . S
C453 C451 1.390 1_565 S
C453 C454 1.387 . S
C453 H456 0.950 . S
C454 C453 1.387 . S
C454 C457 1.387 . S
H455 C451 0.950 . S
H456 C453 0.950 . S
C457 C448 1.390 1_565 S
C457 H450 0.950 . S
C457 C454 1.387 . S
C458 C459 1.387 . S
C458 H462 0.950 . S
C458 C467 1.390 . S
C459 C458 1.387 . S
C459 C461 1.387 . S
H460 C467 0.950 . S
C461 C459 1.387 . S
C461 C463 1.390 . S
C461 H465 0.950 . S
H462 C458 0.950 . S
C463 C461 1.390 . S
C463 C464 1.387 . S
C463 H466 0.950 . S
C464 C463 1.387 . S
C464 C467 1.387 . S
H465 C461 0.950 . S
H466 C463 0.950 . S
C467 C458 1.390 . S
C467 H460 0.950 . S
C467 C464 1.387 . S
C468 C469 1.387 . S
C468 H472 0.950 . S
C468 C477 1.390 1_546 S
C469 C468 1.387 . S
C469 C471 1.387 . S
H470 C477 0.950 . S
C471 C469 1.387 . S
C471 C473 1.390 1_546 S
C471 H475 0.950 . S
H472 C468 0.950 . S
C473 C471 1.390 1_564 S
C473 C474 1.387 . S
C473 H476 0.950 . S
C474 C473 1.387 . S
C474 C477 1.387 . S
H475 C471 0.950 . S
H476 C473 0.950 . S
C477 C468 1.390 1_564 S
C477 H470 0.950 . S
C477 C474 1.387 . S
C478 C479 1.387 . S
C478 H482 0.950 . S
C478 C487 1.390 . S
C479 C478 1.387 . S
C479 C481 1.387 . S
H480 C487 0.950 . S
C481 C479 1.387 . S
C481 C483 1.390 . S
C481 H485 0.950 . S
H482 C478 0.950 . S
C483 C481 1.390 . S
C483 C484 1.387 . S
C483 H486 0.950 . S
C484 C483 1.387 . S
C484 C487 1.387 . S
H485 C481 0.950 . S
H486 C483 0.950 . S
C487 C478 1.390 . S
C487 H480 0.950 . S
C487 C484 1.387 . S
C488 C489 1.387 . S
C488 H492 0.950 . S
C488 C497 1.390 1_545 S
C489 C488 1.387 . S
C489 C491 1.387 . S
H490 C497 0.950 . S
C491 C489 1.387 . S
C491 C493 1.390 1_545 S
C491 H495 0.950 . S
H492 C488 0.950 . S
C493 C491 1.390 1_565 S
C493 C494 1.387 . S
C493 H496 0.950 . S
C494 C493 1.387 . S
C494 C497 1.387 . S
H495 C491 0.950 . S
H496 C493 0.950 . S
C497 C488 1.390 1_565 S
C497 H490 0.950 . S
C497 C494 1.387 . S
C498 C499 1.387 . S
C498 H502 0.950 . S
C498 C507 1.390 . S
C499 C498 1.387 . S
C499 C501 1.387 . S
H500 C507 0.950 . S
C501 C499 1.387 . S
C501 C503 1.390 . S
C501 H505 0.950 . S
H502 C498 0.950 . S
C503 C501 1.390 . S
C503 C504 1.387 . S
C503 H506 0.950 . S
C504 C503 1.387 . S
C504 C507 1.387 . S
H505 C501 0.950 . S
H506 C503 0.950 . S
C507 C498 1.390 . S
C507 H500 0.950 . S
C507 C504 1.387 . S
C508 C509 1.387 . S
C508 H512 0.950 . S
C508 C517 1.390 1_564 S
C509 C508 1.387 . S
C509 C511 1.387 . S
H510 C517 0.950 . S
C511 C509 1.387 . S
C511 C513 1.390 1_564 S
C511 H515 0.950 . S
H512 C508 0.950 . S
C513 C511 1.390 1_546 S
C513 C514 1.387 . S
C513 H516 0.950 . S
C514 C513 1.387 . S
C514 C517 1.387 . S
H515 C511 0.950 . S
H516 C513 0.950 . S
C517 C508 1.390 1_546 S
C517 H510 0.950 . S
C517 C514 1.387 . S
C518 C519 1.387 . S
C518 H522 0.950 . S
C518 C527 1.390 . S
C519 C518 1.387 . S
C519 C521 1.387 . S
H520 C527 0.950 . S
C521 C519 1.387 . S
C521 C523 1.390 . S
C521 H525 0.950 . S
H522 C518 0.950 . S
C523 C521 1.390 . S
C523 C524 1.387 . S
C523 H526 0.950 . S
C524 C523 1.387 . S
C524 C527 1.387 . S
H525 C521 0.950 . S
H526 C523 0.950 . S
C527 C518 1.390 . S
C527 H520 0.950 . S
C527 C524 1.387 . S
C209 C148 1.491 . S
C214 C4 1.493 . S
C219 C199 1.497 . S
C224 C18 1.494 . S
C229 C29 1.490 . S
C234 C127 1.493 . S
C239 C179 1.488 . S
C244 C49 1.489 . S
C249 C62 1.493 . S
C254 C174 1.490 . S
C259 C70 1.494 . S
C264 C153 1.497 . S
C269 C81 1.499 . S
C274 C198 1.498 . S
C279 C101 1.497 . S
C284 C122 1.494 . S
C289 C44 1.494 . S
C294 C107 1.495 . S
C299 C135 1.495 . S
C304 C23 1.497 . S
C309 C160 1.488 . S
C314 C75 1.488 . S
C319 C187 1.494 . S
C324 C96 1.496 . S
C329 C57 1.489 . S
C334 C108 1.493 . S
C339 C140 1.491 . S
C344 C82 1.492 . S
C349 C192 1.493 . S
C354 C30 1.491 . S
C359 C3 1.499 . S
C364 C159 1.499 . S
C369 C5 1.430 . S
C374 C55 1.430 . S
C379 C17 1.416 . S
C384 C69 1.416 . S
C389 C36 1.421 . S
C394 C88 1.421 . S
C399 C94 1.425 . S
C404 C42 1.426 . S
C409 C114 1.419 . S
C414 C161 1.420 . S
C419 C172 1.421 . S
C424 C121 1.420 . S
C429 C134 1.423 . S
C434 C186 1.423 . S
C439 C200 1.430 . S
C444 C146 1.430 . S
C449 C95 1.423 . S
C454 C16 1.423 . S
C459 C31 1.424 . S
C464 C56 1.423 . S
C469 C43 1.427 . S
C474 C68 1.428 . S
C479 C10 1.419 . S
C484 C83 1.420 . S
C489 C120 1.426 . S
C494 C205 1.426 . S
C499 C166 1.427 . S
C504 C133 1.428 . S
C509 C147 1.416 . S
C514 C173 1.416 . S
C519 C185 1.423 . S
C524 C109 1.423 . S
