# Generated by pormake.
# Topology eci, (8)-cn, num edge types: 1
# Building blocks:
#     Node 0, Type 0, BuildingBlock: TAGTUT_clean_sbu_3, # of connection points: 8
#     Node 1, Type 0, BuildingBlock: TAGTUT_clean_sbu_3, # of connection points: 8
#     Node 2, Type 0, BuildingBlock: TAGTUT_clean_sbu_3, # of connection points: 8
#     Node 3, Type 0, BuildingBlock: TAGTUT_clean_sbu_3, # of connection points: 8
#     Edge 4, Type (0, 0), BuildingBlock: MIFKUJ_clean_linker_0, # of connection points: 2
#     Edge 5, Type (0, 0), BuildingBlock: MIFKUJ_clean_linker_0, # of connection points: 2
#     Edge 6, Type (0, 0), BuildingBlock: MIFKUJ_clean_linker_0, # of connection points: 2
#     Edge 7, Type (0, 0), BuildingBlock: MIFKUJ_clean_linker_0, # of connection points: 2
#     Edge 8, Type (0, 0), BuildingBlock: MIFKUJ_clean_linker_0, # of connection points: 2
#     Edge 9, Type (0, 0), BuildingBlock: MIFKUJ_clean_linker_0, # of connection points: 2
#     Edge 10, Type (0, 0), BuildingBlock: MIFKUJ_clean_linker_0, # of connection points: 2
#     Edge 11, Type (0, 0), BuildingBlock: MIFKUJ_clean_linker_0, # of connection points: 2
#     Edge 12, Type (0, 0), BuildingBlock: MIFKUJ_clean_linker_0, # of connection points: 2
#     Edge 13, Type (0, 0), BuildingBlock: MIFKUJ_clean_linker_0, # of connection points: 2
#     Edge 14, Type (0, 0), BuildingBlock: MIFKUJ_clean_linker_0, # of connection points: 2
#     Edge 15, Type (0, 0), BuildingBlock: MIFKUJ_clean_linker_0, # of connection points: 2
#     Edge 16, Type (0, 0), BuildingBlock: MIFKUJ_clean_linker_0, # of connection points: 2
#     Edge 17, Type (0, 0), BuildingBlock: MIFKUJ_clean_linker_0, # of connection points: 2
#     Edge 18, Type (0, 0), BuildingBlock: MIFKUJ_clean_linker_0, # of connection points: 2
#     Edge 19, Type (0, 0), BuildingBlock: MIFKUJ_clean_linker_0, # of connection points: 2
# Relax obj value: 0.294
# Max RMSD: 0.268
# Mean RMSD: 0.266
data_MOF--net-eci--node1-TAGTUT_clean_sbu_3--edge1-MIFKUJ_clean_linker_0
_symmetry_space_group_name_H-M    P1
_symmetry_Int_Tables_number       1
_symmetry_cell_setting            triclinic
loop_
_symmetry_equiv_pos_as_xyz
'x, y, z'
_cell_length_a     39.796512
_cell_length_b     39.914167
_cell_length_c     19.882447
_cell_angle_alpha  88.695287
_cell_angle_beta   90.15934
_cell_angle_gamma 90.077893
loop_
_atom_site_label
_atom_site_type_symbol
_atom_site_fract_x
_atom_site_fract_y
_atom_site_fract_z
_atom_type_partial_charge
C0 C 0.75864 0.86597 0.00335 0.0
C1 C 0.68663 0.76209 0.98031 0.0
C2 C 0.78002 0.70644 0.03888 0.0
Mg3 Mg 0.83507 0.88051 0.9871 0.0
Mg4 Mg 0.88819 0.83767 0.89668 0.0
O5 O 0.8539 0.83611 0.96013 0.0
Mg6 Mg 0.8112 0.80937 0.95466 0.0
O7 O 0.76637 0.78664 0.95748 0.0
Mg8 Mg 0.75729 0.78796 0.05694 0.0
Mg9 Mg 0.75558 0.74697 0.91494 0.0
C10 C 0.87118 0.75894 0.90655 0.0
O11 O 0.80837 0.80909 0.83987 0.0
O12 O 0.8887 0.89639 0.01014 0.0
O13 O 0.78124 0.76005 0.82216 0.0
O14 O 0.84175 0.90426 0.88105 0.0
O15 O 0.92531 0.86337 0.9573 0.0
O16 O 0.87355 0.87194 0.8172 0.0
O17 O 0.81237 0.80509 0.06808 0.0
O18 O 0.83092 0.85637 0.09131 0.0
C19 C 0.82179 0.82691 0.11011 0.0
C20 C 0.9188 0.88711 -0.0023 0.0
O21 O 0.8437 0.7618 0.94004 0.0
O22 O 0.70242 0.77378 0.03112 0.0
O23 O 0.8886 0.78393 0.88408 0.0
O24 O 0.77309 0.73189 0.0744 0.0
O25 O 0.7019 0.75058 0.929 0.0
O26 O 0.77651 0.70731 0.97516 0.0
O27 O 0.78327 0.85849 0.96555 0.0
O28 O 0.74406 0.84359 0.04008 0.0
C29 C 0.85676 0.89875 0.82555 0.0
C30 C 0.79894 0.78523 0.80166 0.0
C31 C 0.6297 0.26602 0.25681 0.0
C32 C 0.74403 0.20806 0.20284 0.0
C33 C 0.78937 0.29166 0.30514 0.0
Mg34 Mg 0.61206 0.34257 0.27797 0.0
Mg35 Mg 0.65281 0.40259 0.19763 0.0
O36 O 0.65586 0.36542 0.25571 0.0
Mg37 Mg 0.68437 0.32628 0.23317 0.0
O38 O 0.7096 0.28406 0.21605 0.0
Mg39 Mg 0.70858 0.26236 0.30845 0.0
Mg40 Mg 0.75115 0.28474 0.17346 0.0
C41 C 0.73211 0.39234 0.20404 0.0
O42 O 0.68464 0.33716 0.11947 0.0
O43 O 0.5964 0.39327 0.3218 0.0
O44 O 0.73664 0.31882 0.09252 0.0
O45 O 0.58591 0.35908 0.17958 0.0
O46 O 0.62808 0.43289 0.26993 0.0
O47 O 0.61696 0.39452 0.11833 0.0
O48 O 0.68872 0.31335 0.34481 0.0
O49 O 0.63705 0.3274 0.37627 0.0
C50 C 0.66647 0.31656 0.39031 0.0
C51 C 0.6062 0.42382 0.31392 0.0
O52 O 0.73039 0.36289 0.23213 0.0
O53 O 0.72821 0.21447 0.25741 0.0
O54 O 0.7063 0.40857 0.18203 0.0
O55 O 0.76421 0.27729 0.33375 0.0
O56 O 0.75466 0.23124 0.16243 0.0
O57 O 0.78849 0.30027 0.24311 0.0
O58 O 0.63591 0.29541 0.23321 0.0
O59 O 0.65293 0.24834 0.28499 0.0
C60 C 0.58995 0.37776 0.12726 0.0
C61 C 0.70953 0.33503 0.07861 0.0
C62 C 0.16032 0.18164 0.36047 0.0
C63 C 0.10448 0.077 0.45031 0.0
C64 C 0.09554 0.12451 0.63857 0.0
Mg65 Mg 0.20669 0.23824 0.43021 0.0
Mg66 Mg 0.25324 0.22071 0.5638 0.0
O67 O 0.21095 0.21881 0.52379 0.0
Mg68 Mg 0.18531 0.17625 0.51436 0.0
O69 O 0.15591 0.13645 0.50069 0.0
Mg70 Mg 0.11133 0.15871 0.48436 0.0
Mg71 Mg 0.15537 0.09901 0.55856 0.0
C72 C 0.2151 0.17284 0.6682 0.0
O73 O 0.23136 0.14023 0.51201 0.0
O74 O 0.22676 0.28787 0.47434 0.0
O75 O 0.2095 0.09469 0.56685 0.0
O76 O 0.26217 0.22343 0.40163 0.0
O77 O 0.25598 0.27449 0.56825 0.0
O78 O 0.28906 0.20384 0.4929 0.0
O79 O 0.13672 0.20704 0.51968 0.0
O80 O 0.15209 0.25204 0.4589 0.0
C81 C 0.12982 0.23554 0.49244 0.0
C82 C 0.24374 0.29623 0.52651 0.0
O83 O 0.19011 0.16815 0.62828 0.0
O84 O 0.09404 0.10743 0.44534 0.0
O85 O 0.24136 0.18971 0.65115 0.0
O86 O 0.08987 0.14381 0.58773 0.0
O87 O 0.12853 0.06804 0.48978 0.0
O88 O 0.12197 0.10649 0.64199 0.0
O89 O 0.18529 0.18614 0.40011 0.0
O90 O 0.13183 0.17195 0.38278 0.0
C91 C 0.28829 0.21052 0.42996 0.0
C92 C 0.23433 0.11123 0.54139 0.0
C93 C 0.31673 0.67527 0.6274 0.0
C94 C 0.41292 0.61946 0.74064 0.0
C95 C 0.35152 0.60482 0.91389 0.0
Mg96 Mg 0.25206 0.7153 0.67533 0.0
Mg97 Mg 0.25102 0.75846 0.8146 0.0
O98 O 0.26016 0.71761 0.77521 0.0
Mg99 Mg 0.30484 0.69466 0.7807 0.0
O100 O 0.34718 0.66767 0.77898 0.0
Mg101 Mg 0.32927 0.62297 0.75231 0.0
Mg102 Mg 0.38144 0.66681 0.84239 0.0
C103 C 0.29045 0.71946 0.93213 0.0
O104 O 0.33796 0.74248 0.79539 0.0
O105 O 0.19748 0.73159 0.69667 0.0
O106 O 0.38108 0.72007 0.85653 0.0
O107 O 0.26947 0.77044 0.65561 0.0
O108 O 0.1974 0.75698 0.79648 0.0
O109 O 0.27617 0.79558 0.7538 0.0
O110 O 0.27686 0.64506 0.77055 0.0
O111 O 0.23773 0.65993 0.69518 0.0
C112 C 0.25214 0.63756 0.73247 0.0
C113 C 0.18189 0.74509 0.74559 0.0
O114 O 0.30097 0.69617 0.89393 0.0
O115 O 0.38315 0.60844 0.73042 0.0
O116 O 0.27328 0.74485 0.91094 0.0
O117 O 0.33571 0.59914 0.85914 0.0
O118 O 0.41901 0.64355 0.78046 0.0
O119 O 0.36851 0.63162 0.92109 0.0
O120 O 0.30673 0.69745 0.6678 0.0
O121 O 0.32613 0.64626 0.64803 0.0
C122 C 0.27896 0.79549 0.68997 0.0
C123 C 0.36456 0.74518 0.83219 0.0
H124 H 0.83271 0.76406 0.16107 0.0
H125 H 0.84462 0.74825 0.27819 0.0
H126 H 0.83291 0.85141 0.33482 0.0
H127 H 0.82237 0.86751 0.21749 0.0
H128 H 0.88484 0.82163 0.40149 0.0
H129 H 0.76616 0.79214 0.34556 0.0
H130 H 0.72583 0.76071 0.27642 0.0
H131 H 0.77508 0.66845 0.33194 0.0
H132 H 0.81565 0.69938 0.40129 0.0
H133 H 0.81617 0.83865 0.72053 0.0
H134 H 0.83464 0.83679 0.60352 0.0
H135 H 0.83134 0.72856 0.61305 0.0
H136 H 0.8109 0.73043 0.72806 0.0
H137 H 0.80007 0.74743 0.51073 0.0
H138 H 0.90669 0.7739 0.59516 0.0
H139 H 0.94964 0.80244 0.66256 0.0
H140 H 0.93079 0.89461 0.55344 0.0
H141 H 0.88714 0.86688 0.48633 0.0
C142 C 0.83251 0.78329 0.19868 0.0
C143 C 0.82617 0.81694 0.18083 0.0
C144 C 0.8396 0.77427 0.26526 0.0
C145 C 0.83939 0.79865 0.31495 0.0
C146 C 0.8334 0.83229 0.29698 0.0
C147 C 0.82699 0.8414 0.2303 0.0
C148 C 0.84234 0.78917 0.3866 0.0
C149 C 0.8665 0.80537 0.42588 0.0
C150 C 0.81939 0.76662 0.41729 0.0
C151 C 0.79397 0.74804 0.37822 0.0
C152 C 0.76826 0.76514 0.34313 0.0
C153 C 0.74539 0.74742 0.30389 0.0
C154 C 0.74787 0.71259 0.29979 0.0
C155 C 0.77309 0.69539 0.33529 0.0
C156 C 0.79599 0.71299 0.37466 0.0
C157 C 0.81951 0.81455 0.69748 0.0
C158 C 0.81148 0.78475 0.7325 0.0
C159 C 0.83054 0.81343 0.63108 0.0
C160 C 0.83472 0.78246 0.59978 0.0
C161 C 0.82817 0.7527 0.63608 0.0
C162 C 0.81629 0.75384 0.70159 0.0
C163 C 0.84159 0.78133 0.52701 0.0
C164 C 0.81931 0.76296 0.48717 0.0
C165 C 0.8668 0.80134 0.49606 0.0
C166 C 0.89337 0.81825 0.53583 0.0
C167 C 0.91147 0.80032 0.58578 0.0
C168 C 0.93598 0.81637 0.62397 0.0
C169 C 0.94295 0.8503 0.61227 0.0
C170 C 0.9254 0.86829 0.56237 0.0
C171 C 0.90075 0.8524 0.5242 0.0
H172 H 0.96198 0.86265 0.64182 0.0
H173 H 0.73029 0.69894 0.26906 0.0
H174 H 0.72939 0.32431 0.44263 0.0
H175 H 0.74269 0.3371 0.55944 0.0
H176 H 0.63914 0.31984 0.61445 0.0
H177 H 0.62554 0.30766 0.49788 0.0
H178 H 0.66173 0.38027 0.65642 0.0
H179 H 0.69996 0.26444 0.6602 0.0
H180 H 0.73393 0.21766 0.61851 0.0
H181 H 0.82433 0.27283 0.65681 0.0
H182 H 0.79089 0.32022 0.69797 0.0
H183 H 0.65299 0.34289 0.00229 0.0
H184 H 0.65163 0.35305 0.88072 0.0
H185 H 0.75866 0.37105 0.88107 0.0
H186 H 0.76023 0.3601 0.00228 0.0
H187 H 0.74354 0.32063 0.80449 0.0
H188 H 0.70447 0.43156 0.8248 0.0
H189 H 0.66988 0.47699 0.86982 0.0
H190 H 0.5811 0.43218 0.78779 0.0
H191 H 0.61504 0.38606 0.74322 0.0
C192 C 0.70969 0.32232 0.48002 0.0
C193 C 0.67638 0.31528 0.46138 0.0
C194 C 0.71726 0.3299 0.5465 0.0
C195 C 0.69172 0.3299 0.59498 0.0
C196 C 0.659 0.32051 0.57728 0.0
C197 C 0.65138 0.31323 0.51096 0.0
C198 C 0.69849 0.3407 0.66395 0.0
C199 C 0.67949 0.36724 0.68917 0.0
C200 C 0.72273 0.32457 0.70513 0.0
C201 C 0.74292 0.29597 0.68147 0.0
C202 C 0.72709 0.26668 0.65933 0.0
C203 C 0.74625 0.24007 0.63584 0.0
C204 C 0.78128 0.24237 0.63476 0.0
C205 C 0.79722 0.27121 0.65749 0.0
C206 C 0.77818 0.29792 0.68098 0.0
C207 C 0.67597 0.35012 0.97666 0.0
C208 C 0.70682 0.34987 0.01079 0.0
C209 C 0.67519 0.35609 0.90731 0.0
C210 C 0.70516 0.3625 0.87199 0.0
C211 C 0.73538 0.36584 0.90746 0.0
C212 C 0.73622 0.35948 0.97647 0.0
C213 C 0.70577 0.35944 0.7983 0.0
C214 C 0.7263 0.33438 0.77175 0.0
C215 C 0.68292 0.37698 0.75606 0.0
C216 C 0.66236 0.40516 0.781 0.0
C217 C 0.67755 0.43125 0.81661 0.0
C218 C 0.65805 0.45714 0.84205 0.0
C219 C 0.62332 0.45736 0.83191 0.0
C220 C 0.60802 0.4319 0.7957 0.0
C221 C 0.6274 0.40589 0.77022 0.0
H222 H 0.60828 0.47724 0.85228 0.0
H223 H 0.79608 0.22176 0.61649 0.0
H224 H 0.25902 0.18414 0.77062 0.0
H225 H 0.25111 0.17048 0.88885 0.0
H226 H 0.15996 0.11688 0.84223 0.0
H227 H 0.1672 0.13143 0.72325 0.0
H228 H 0.14782 0.16422 0.92432 0.0
H229 H 0.22719 0.0771 0.92202 0.0
H230 H 0.27992 0.04787 0.89603 0.0
H231 H 0.33561 0.11846 0.01217 0.0
H232 H 0.28331 0.14851 0.03796 0.0
H233 H 0.11775 0.15352 0.27141 0.0
H234 H 0.12826 0.14097 0.15562 0.0
H235 H 0.22419 0.19136 0.1654 0.0
H236 H 0.21478 0.20228 0.28499 0.0
H237 H 0.23029 0.13443 0.10315 0.0
H238 H 0.14901 0.22608 0.08669 0.0
H239 H 0.09495 0.25424 0.10736 0.0
H240 H 0.04178 0.17144 0.02278 0.0
H241 H 0.09546 0.14269 0.00219 0.0
C242 C 0.23761 0.16885 0.7851 0.0
C243 C 0.21319 0.15961 0.73778 0.0
C244 C 0.2334 0.16062 0.85284 0.0
C245 C 0.205 0.14258 0.87429 0.0
C246 C 0.18205 0.13087 0.82652 0.0
C247 C 0.18608 0.1394 0.75868 0.0
C248 C 0.19616 0.14214 0.94619 0.0
C249 C 0.16553 0.15684 0.96354 0.0
C250 C 0.21957 0.13316 -0.00298 0.0
C251 C 0.25124 0.1152 0.98168 0.0
C252 C 0.25069 0.08659 0.94161 0.0
C253 C 0.28052 0.06983 0.92697 0.0
C254 C 0.31109 0.08132 0.95237 0.0
C255 C 0.3119 0.10958 -0.00746 0.0
C256 C 0.28215 0.12646 0.00728 0.0
C257 C 0.14105 0.16243 0.24929 0.0
C258 C 0.16548 0.17913 0.28753 0.0
C259 C 0.14693 0.15519 0.1826 0.0
C260 C 0.17671 0.16568 0.1515 0.0
C261 C 0.20095 0.18309 0.18873 0.0
C262 C 0.19547 0.18961 0.25662 0.0
C263 C 0.18266 0.15776 0.08047 0.0
C264 C 0.21255 0.14132 0.06371 0.0
C265 C 0.15846 0.16492 0.02987 0.0
C266 C 0.12623 0.18214 0.04341 0.0
C267 C 0.12577 0.2138 0.07297 0.0
C268 C 0.0952 0.2299 0.08448 0.0
C269 C 0.06497 0.21467 0.06624 0.0
C270 C 0.06521 0.18324 0.03677 0.0
C271 C 0.09568 0.16705 0.02514 0.0
H272 H 0.04134 0.22721 0.07491 0.0
H273 H 0.33416 0.06831 0.94099 0.0
H274 H 0.34528 0.68839 0.98562 0.0
H275 H 0.36277 0.68703 0.10339 0.0
H276 H 0.27712 0.74748 0.1545 0.0
H277 H 0.2597 0.74941 0.03669 0.0
H278 H 0.33148 0.76609 0.22378 0.0
H279 H 0.27676 0.66051 0.16537 0.0
H280 H 0.27138 0.60861 0.10106 0.0
H281 H 0.36979 0.5778 0.16617 0.0
H282 H 0.37604 0.62988 0.22962 0.0
H283 H 0.28105 0.7202 0.55098 0.0
H284 H 0.2897 0.73386 0.43175 0.0
H285 H 0.37456 0.66647 0.42859 0.0
H286 H 0.36494 0.65156 0.54642 0.0
H287 H 0.33438 0.65316 0.33313 0.0
H288 H 0.38433 0.75333 0.41065 0.0
H289 H 0.38869 0.80399 0.47884 0.0
H290 H 0.30031 0.84442 0.38325 0.0
H291 H 0.29514 0.79383 0.31494 0.0
C292 C 0.33015 0.70127 0.02207 0.0
C293 C 0.30075 0.71838 0.00271 0.0
C294 C 0.34043 0.70085 0.08891 0.0
C295 C 0.32115 0.71704 0.1372 0.0
C296 C 0.29238 0.73501 0.11762 0.0
C297 C 0.28229 0.73579 0.05065 0.0
C298 C 0.32893 0.71279 0.209 0.0
C299 C 0.33218 0.74148 0.24805 0.0
C300 C 0.33092 0.68057 0.23969 0.0
C301 C 0.32702 0.64924 0.20156 0.0
C302 C 0.29735 0.64278 0.1655 0.0
C303 C 0.29415 0.61335 0.12918 0.0
C304 C 0.32027 0.58998 0.12933 0.0
C305 C 0.34962 0.59597 0.16589 0.0
C306 C 0.35303 0.62546 0.20193 0.0
C307 C 0.30155 0.7085 0.52462 0.0
C308 C 0.32192 0.68444 0.55687 0.0
C309 C 0.30679 0.71661 0.45702 0.0
C310 C 0.33308 0.70146 0.42186 0.0
C311 C 0.35418 0.67838 0.45501 0.0
C312 C 0.34846 0.6697 0.52193 0.0
C313 C 0.33593 0.70649 0.34873 0.0
C314 C 0.33469 0.67788 0.30921 0.0
C315 C 0.33588 0.73874 0.31796 0.0
C316 C 0.3393 0.76967 0.35774 0.0
C317 C 0.36574 0.77296 0.40428 0.0
C318 C 0.36836 0.80168 0.44296 0.0
C319 C 0.34479 0.8274 0.43537 0.0
C320 C 0.31859 0.8245 0.38896 0.0
C321 C 0.31585 0.79583 0.35011 0.0
H322 H 0.34688 0.8496 0.46539 0.0
H323 H 0.31774 0.56719 0.10124 0.0
H324 H 0.40381 0.77969 0.74507 0.0
H325 H 0.45725 0.80144 0.78542 0.0
H326 H 0.418 0.80293 0.98716 0.0
H327 H 0.3649 0.77998 0.947 0.0
H328 H 0.49264 0.84651 0.86958 0.0
H329 H 0.45483 0.76133 0.07 0.0
H330 H 0.41944 0.71309 0.10432 0.0
H331 H 0.43527 0.66872 0.91223 0.0
H332 H 0.46991 0.7173 0.87625 0.0
H333 H 0.64872 0.80747 0.04698 0.0
H334 H 0.58912 0.82021 0.02971 0.0
H335 H 0.58175 0.74049 0.88771 0.0
H336 H 0.64155 0.72799 0.90343 0.0
H337 H 0.52971 0.74286 -0.00897 0.0
H338 H 0.58732 0.81241 0.82429 0.0
H339 H 0.62809 0.85574 0.78825 0.0
H340 H 0.57785 0.928 0.90903 0.0
H341 H 0.53705 0.8849 0.9466 0.0
C342 C 0.40569 0.78705 0.79709 0.0
C343 C 0.38061 0.77757 0.8432 0.0
C344 C 0.43651 0.79908 0.8204 0.0
C345 C 0.44198 0.80238 0.88972 0.0
C346 C 0.41452 0.79966 0.93366 0.0
C347 C 0.38387 0.78722 0.91042 0.0
C348 C 0.47679 0.79985 0.91602 0.0
C349 C 0.50067 0.82427 0.89756 0.0
C350 C 0.48752 0.77055 0.95139 0.0
C351 C 0.46435 0.74301 0.97023 0.0
C352 C 0.4502 0.7415 0.03481 0.0
C353 C 0.43024 0.71417 0.05443 0.0
C354 C 0.42473 0.68801 0.01012 0.0
C355 C 0.43909 0.68923 0.94604 0.0
C356 C 0.45869 0.71674 0.92585 0.0
C357 C 0.63432 0.79229 0.0128 0.0
C358 C 0.64979 0.76656 0.97674 0.0
C359 C 0.6004 0.79986 0.00258 0.0
C360 C 0.5813 0.78151 0.95701 0.0
C361 C 0.59627 0.75502 0.92286 0.0
C362 C 0.63034 0.74783 0.93205 0.0
C363 C 0.54552 0.78951 0.945 0.0
C364 C 0.5216 0.76578 0.96541 0.0
C365 C 0.53502 0.81946 0.91179 0.0
C366 C 0.55942 0.84534 0.88894 0.0
C367 C 0.58518 0.83745 0.84372 0.0
C368 C 0.60825 0.86198 0.82289 0.0
C369 C 0.60564 0.89457 0.84653 0.0
C370 C 0.57989 0.90272 0.89088 0.0
C371 C 0.55678 0.87826 0.91193 0.0
H372 H 0.62352 0.91354 0.83033 0.0
H373 H 0.40959 0.66668 0.02561 0.0
H374 H 0.77337 0.18434 0.08903 0.0
H375 H 0.77625 0.12634 0.05336 0.0
H376 H 0.72718 0.09361 0.23652 0.0
H377 H 0.72438 0.15155 0.27317 0.0
H378 H 0.77977 0.05264 0.20272 0.0
H379 H 0.68249 0.1021 0.09429 0.0
H380 H 0.65255 0.14431 0.02436 0.0
H381 H 0.71482 0.12129 0.8556 0.0
H382 H 0.74546 0.07924 0.92484 0.0
H383 H 0.72569 0.89235 0.11031 0.0
H384 H 0.72339 0.95121 0.14089 0.0
H385 H 0.77577 0.9792 0.95844 0.0
H386 H 0.77811 0.92033 0.92716 0.0
H387 H 0.72315 0.0227 0.98948 0.0
H388 H 0.81958 0.97284 0.09406 0.0
H389 H 0.85107 0.93107 0.16219 0.0
H390 H 0.79274 0.95517 0.33585 0.0
H391 H 0.76044 0.99668 0.26842 0.0
C392 C 0.76342 0.16485 0.12214 0.0
C393 C 0.74839 0.17269 0.1838 0.0
C394 C 0.76499 0.13172 0.10147 0.0
C395 C 0.75147 0.10582 0.14188 0.0
C396 C 0.73764 0.11332 0.20455 0.0
C397 C 0.73601 0.14647 0.22529 0.0
C398 C 0.75086 0.07102 0.11794 0.0
C399 C 0.76705 0.04599 0.15657 0.0
C400 C 0.73501 0.06263 0.05672 0.0
C401 C 0.71648 0.08777 0.01494 0.0
C402 C 0.68997 0.10623 0.04242 0.0
C403 C 0.67284 0.13009 0.00288 0.0
C404 C 0.68183 0.13554 0.93563 0.0
C405 C 0.70791 0.11707 0.90772 0.0
C406 C 0.72515 0.0932 0.94707 0.0
C407 C 0.73619 0.91103 0.07602 0.0
C408 C 0.75244 0.90167 0.01662 0.0
C409 C 0.73504 0.94461 0.09382 0.0
C410 C 0.74991 0.96934 0.05241 0.0
C411 C 0.76434 0.96037 -0.00881 0.0
C412 C 0.76574 0.92675 0.97354 0.0
C413 C 0.75172 0.00433 0.07466 0.0
C414 C 0.73586 0.02937 0.03564 0.0
C415 C 0.76807 0.01276 0.13528 0.0
C416 C 0.78734 0.98766 0.17597 0.0
C417 C 0.81322 0.96901 0.1466 0.0
C418 C 0.83127 0.94542 0.18514 0.0
C419 C 0.82389 0.94047 0.25331 0.0
C420 C 0.79841 0.95904 0.28304 0.0
C421 C 0.78023 0.9826 0.24468 0.0
H422 H 0.83796 0.92227 0.28313 0.0
H423 H 0.66854 0.15403 0.9051 0.0
H424 H 0.30582 0.24188 0.31067 0.0
H425 H 0.36229 0.24598 0.2621 0.0
H426 H 0.39983 0.17837 0.41696 0.0
H427 H 0.34373 0.17389 0.46513 0.0
H428 H 0.41665 0.27173 0.32553 0.0
H429 H 0.46787 0.13653 0.36245 0.0
H430 H 0.44713 0.07837 0.3579 0.0
H431 H 0.36906 0.10943 0.22079 0.0
H432 H 0.38964 0.16767 0.22358 0.0
H433 H 0.6023 0.21631 0.33711 0.0
H434 H 0.54278 0.20174 0.34877 0.0
H435 H 0.51774 0.2738 0.19158 0.0
H436 H 0.57694 0.28912 0.18107 0.0
H437 H 0.49314 0.17805 0.27155 0.0
H438 H 0.44644 0.3137 0.22988 0.0
H439 H 0.46966 0.37092 0.23595 0.0
H440 H 0.53931 0.33801 0.38878 0.0
H441 H 0.51599 0.2808 0.38485 0.0
C442 C 0.3259 0.22714 0.33322 0.0
C443 C 0.32023 0.20765 0.39198 0.0
C444 C 0.35825 0.22974 0.30572 0.0
C445 C 0.38538 0.21252 0.33582 0.0
C446 C 0.37933 0.19164 0.39227 0.0
C447 C 0.34716 0.18917 0.41992 0.0
C448 C 0.42046 0.21841 0.31228 0.0
C449 C 0.43313 0.2513 0.31228 0.0
C450 C 0.44234 0.19169 0.29691 0.0
C451 C 0.43017 0.15656 0.2937 0.0
C452 C 0.44639 0.13094 0.33102 0.0
C453 C 0.43463 0.09795 0.32885 0.0
C454 C 0.40671 0.09023 0.28935 0.0
C455 C 0.3906 0.11546 0.25161 0.0
C456 C 0.40229 0.14848 0.25353 0.0
C457 C 0.58415 0.22881 0.30456 0.0
C458 C 0.59431 0.25428 0.25894 0.0
C459 C 0.55012 0.22036 0.31111 0.0
C460 C 0.52564 0.23708 0.27193 0.0
C461 C 0.53602 0.26104 0.22343 0.0
C462 C 0.56992 0.26979 0.21749 0.0
C463 C 0.48924 0.23125 0.28522 0.0
C464 C 0.47644 0.19847 0.28378 0.0
C465 C 0.46726 0.258 0.30005 0.0
C466 C 0.4797 0.29288 0.30643 0.0
C467 C 0.46644 0.31877 0.2653 0.0
C468 C 0.47967 0.35119 0.26832 0.0
C469 C 0.50611 0.35802 0.31235 0.0
C470 C 0.51894 0.33263 0.35447 0.0
C471 C 0.50567 0.30024 0.35199 0.0
H472 H 0.51672 0.38295 0.31385 0.0
H473 H 0.3976 0.06469 0.28787 0.0
H474 H 0.32069 0.84289 0.74083 0.0
H475 H 0.33352 0.89804 0.69127 0.0
H476 H 0.27892 0.87263 0.51194 0.0
H477 H 0.26657 0.817 0.56054 0.0
H478 H 0.35842 0.92905 0.55482 0.0
H479 H 0.21896 0.93408 0.50908 0.0
H480 H 0.16664 0.90508 0.54326 0.0
H481 H 0.20802 0.88532 0.73991 0.0
H482 H 0.26027 0.91468 0.7071 0.0
H483 H 0.26515 0.08546 0.4331 0.0
H484 H 0.29549 0.03209 0.43927 0.0
H485 H 0.30231 0.03968 0.65469 0.0
H486 H 0.27184 0.09268 0.64867 0.0
H487 H 0.25119 0.99109 0.57774 0.0
H488 H 0.36733 0.02817 0.61035 0.0
H489 H 0.41852 0.05774 0.57213 0.0
H490 H 0.42329 0.99564 0.3989 0.0
H491 H 0.37186 0.96593 0.43577 0.0
C492 C 0.31218 0.8487 0.69009 0.0
C493 C 0.29196 0.82596 0.65513 0.0
C494 C 0.31995 0.88004 0.66151 0.0
C495 C 0.30712 0.88936 0.59811 0.0
C496 C 0.28922 0.86575 0.56082 0.0
C497 C 0.28197 0.8341 0.58887 0.0
C498 C 0.30571 0.92534 0.5788 0.0
C499 C 0.33501 0.94268 0.55924 0.0
C500 C 0.27517 0.94301 0.58448 0.0
C501 C 0.24357 0.92614 0.60536 0.0
C502 C 0.21678 0.92362 0.55964 0.0
C503 C 0.18716 0.90715 0.57877 0.0
C504 C 0.18406 0.89325 0.64363 0.0
C505 C 0.21049 0.89598 0.68962 0.0
C506 C 0.24011 0.91251 0.67077 0.0
C507 C 0.27534 0.07693 0.4811 0.0
C508 C 0.26626 0.09299 0.54048 0.0
C509 C 0.29249 0.04631 0.48462 0.0
C510 C 0.30092 0.03194 0.54746 0.0
C511 C 0.29628 0.05056 0.6057 0.0
C512 C 0.27903 0.08095 0.60222 0.0
C513 C 0.30397 0.99518 0.55496 0.0
C514 C 0.27464 0.97756 0.57218 0.0
C515 C 0.33442 0.97761 0.54687 0.0
C516 C 0.36557 0.99508 0.52546 0.0
C517 C 0.37912 0.02102 0.56381 0.0
C518 C 0.40823 0.03774 0.54249 0.0
C519 C 0.42411 0.02862 0.48305 0.0
C520 C 0.41096 0.00268 0.44492 0.0
C521 C 0.38187 0.98586 0.46607 0.0
H522 H 0.44665 0.04158 0.46669 0.0
H523 H 0.16115 0.88043 0.6583 0.0
H524 H 0.86482 0.72091 0.79653 0.0
H525 H 0.91329 0.69173 0.75126 0.0
H526 H 0.9632 0.69947 0.94354 0.0
H527 H 0.91419 0.72656 0.98879 0.0
H528 H 0.96113 0.73092 0.73549 0.0
H529 H 0.03589 0.66527 0.95879 0.0
H530 H 0.02682 0.61934 0.0416 0.0
H531 H 0.95039 0.57768 0.91559 0.0
H532 H 0.95933 0.62302 0.83134 0.0
H533 H 0.14094 0.75548 0.85311 0.0
H534 H 0.08216 0.73916 0.86473 0.0
H535 H 0.07986 0.70935 0.65773 0.0
H536 H 0.13904 0.72532 0.64546 0.0
H537 H 0.05747 0.67203 0.84297 0.0
H538 H 0.99396 0.72648 0.60843 0.0
H539 H 0.99984 0.77242 0.52402 0.0
H540 H 0.04975 0.83281 0.66988 0.0
H541 H 0.04385 0.78736 0.75523 0.0
C542 C 0.88506 0.71375 0.83036 0.0
C543 C 0.88611 0.72612 0.89578 0.0
C544 C 0.91306 0.6975 0.80424 0.0
C545 C 0.94248 0.69415 0.84315 0.0
C546 C 0.94102 0.70133 0.91206 0.0
C547 C 0.91275 0.71687 0.93837 0.0
C548 C 0.9759 0.69326 0.80979 0.0
C549 C 0.98192 0.71694 0.75759 0.0
C550 C 0.00337 0.67544 0.83835 0.0
C551 C 0.9983 0.64769 0.88855 0.0
C552 C 0.01738 0.64617 0.94827 0.0
C553 C 0.01219 0.62026 -0.00437 0.0
C554 C 0.98804 0.59562 0.98388 0.0
C555 C 0.96905 0.59682 0.92468 0.0
C556 C 0.97414 0.62266 0.87714 0.0
C557 C 0.1279 0.74606 0.80953 0.0
C558 C 0.14484 0.74158 0.74841 0.0
C559 C 0.09438 0.73641 0.81654 0.0
C560 C 0.07694 0.7226 0.7624 0.0
C561 C 0.09305 0.71977 0.70019 0.0
C562 C 0.12679 0.72909 0.69326 0.0
C563 C 0.04207 0.71074 0.77243 0.0
C564 C 0.03619 0.68472 0.8197 0.0
C565 C 0.01463 0.72599 0.73877 0.0
C566 C 0.01904 0.75328 0.68774 0.0
C567 C 0.00635 0.74951 0.62231 0.0
C568 C 0.00965 0.77546 0.57434 0.0
C569 C 0.02538 0.80542 0.59144 0.0
C570 C 0.03779 0.8095 0.65657 0.0
C571 C 0.03457 0.7836 0.7047 0.0
H572 H 0.02776 0.82554 0.55434 0.0
H573 H 0.98403 0.57561 0.02065 0.0
H574 H 0.76539 0.41592 0.09505 0.0
H575 H 0.79758 0.46787 0.09273 0.0
H576 H 0.79842 0.46758 0.30976 0.0
H577 H 0.7662 0.41516 0.3118 0.0
H578 H 0.76556 0.52036 0.25905 0.0
H579 H 0.87273 0.47478 0.2234 0.0
H580 H 0.91594 0.43814 0.17578 0.0
H581 H 0.89893 0.48216 0.97963 0.0
H582 H 0.8552 0.51869 0.0257 0.0
H583 H 0.79187 0.69299 0.17373 0.0
H584 H 0.80547 0.63851 0.22664 0.0
H585 H 0.80611 0.59351 0.03134 0.0
H586 H 0.79363 0.64741 0.97846 0.0
H587 H 0.85344 0.56592 0.10615 0.0
H588 H 0.73486 0.59524 0.13803 0.0
H589 H 0.68927 0.63028 0.18218 0.0
H590 H 0.72674 0.61456 0.38315 0.0
H591 H 0.77288 0.57985 0.33997 0.0
C592 C 0.77437 0.4258 0.14217 0.0
C593 C 0.76361 0.41153 0.20354 0.0
C594 C 0.79267 0.45567 0.14095 0.0
C595 C 0.80027 0.47189 0.20114 0.0
C596 C 0.79289 0.45553 0.26273 0.0
C597 C 0.77484 0.42535 0.2639 0.0
C598 C 0.80853 0.50828 0.1984 0.0
C599 C 0.78555 0.53037 0.22744 0.0
C600 C 0.83424 0.52143 0.15646 0.0
C601 C 0.86056 0.4995 0.12815 0.0
C602 C 0.87801 0.47652 0.17001 0.0
C603 C 0.90264 0.45577 0.14328 0.0
C604 C 0.91017 0.45781 0.07472 0.0
C605 C 0.8931 0.48063 0.03275 0.0
C606 C 0.86842 0.50142 0.0592 0.0
C607 C 0.79531 0.67153 0.14209 0.0
C608 C 0.79111 0.67454 0.07186 0.0
C609 C 0.8031 0.6404 0.17241 0.0
C610 C 0.80639 0.61171 0.13309 0.0
C611 C 0.8038 0.61516 0.0629 0.0
C612 C 0.79634 0.64611 0.03268 0.0
C613 C 0.80935 0.57744 0.16371 0.0
C614 C 0.83435 0.55589 0.13987 0.0
C615 C 0.78529 0.56461 0.2099 0.0
C616 C 0.75753 0.58538 0.23573 0.0
C617 C 0.73349 0.59947 0.19157 0.0
C618 C 0.70755 0.61924 0.21641 0.0
C619 C 0.70516 0.62471 0.28541 0.0
C620 C 0.72864 0.61033 0.32972 0.0
C621 C 0.75472 0.59067 0.30509 0.0
H622 H 0.68509 0.64006 0.30454 0.0
H623 H 0.92925 0.44173 0.05413 0.0
H624 H 0.80714 0.26375 0.42807 0.0
H625 H 0.86397 0.25893 0.47493 0.0
H626 H 0.90232 0.31985 0.31039 0.0
H627 H 0.84594 0.32469 0.2632 0.0
H628 H 0.93569 0.26137 0.32254 0.0
H629 H 0.89892 0.34789 0.46918 0.0
H630 H 0.86238 0.37402 0.55296 0.0
H631 H 0.88541 0.29503 0.69579 0.0
H632 H 0.92134 0.26786 0.61221 0.0
H633 H 0.10288 0.28595 0.41399 0.0
H634 H 0.04357 0.29974 0.39898 0.0
H635 H 0.01671 0.22483 0.54897 0.0
H636 H 0.07619 0.21073 0.56452 0.0
H637 H 0.97716 0.28808 0.55082 0.0
H638 H 0.00975 0.19962 0.40435 0.0
H639 H 0.04862 0.17368 0.32441 0.0
H640 H 0.03414 0.25629 0.18523 0.0
H641 H 0.99544 0.28285 0.26468 0.0
C642 C 0.82753 0.27677 0.40267 0.0
C643 C 0.82196 0.29427 0.34135 0.0
C644 C 0.86005 0.27395 0.42953 0.0
C645 C 0.88749 0.28877 0.39581 0.0
C646 C 0.88161 0.30792 0.33692 0.0
C647 C 0.84926 0.31075 0.31013 0.0
C648 C 0.92262 0.28223 0.41817 0.0
C649 C 0.94471 0.2676 0.37227 0.0
C650 C 0.93427 0.28932 0.48379 0.0
C651 C 0.91251 0.30558 0.53402 0.0
C652 C 0.89587 0.33583 0.51813 0.0
C653 C 0.87528 0.35086 0.56564 0.0
C654 C 0.87146 0.33612 0.62957 0.0
C655 C 0.88832 0.30637 0.64618 0.0
C656 C 0.90873 0.2911 0.59869 0.0
C657 C 0.08451 0.27273 0.44473 0.0
C658 C 0.09432 0.24686 0.4898 0.0
C659 C 0.0506 0.28072 0.43612 0.0
C660 C 0.02579 0.26316 0.47257 0.0
C661 C 0.0355 0.23871 0.5205 0.0
C662 C 0.06949 0.23051 0.52885 0.0
C663 C 0.98988 0.2679 0.45477 0.0
C664 C 0.96781 0.28187 0.50134 0.0
C665 C 0.97798 0.26 0.39002 0.0
C666 C 0.99986 0.24332 0.3406 0.0
C667 C 0.01489 0.21225 0.35669 0.0
C668 C 0.03689 0.19743 0.31148 0.0
C669 C 0.04386 0.2133 0.24975 0.0
C670 C 0.02866 0.24394 0.23294 0.0
C671 C 0.00664 0.25888 0.27801 0.0
H672 H 0.06104 0.20184 0.21504 0.0
H673 H 0.85551 0.34778 0.66629 0.0
H674 H 0.2103 0.3493 0.46805 0.0
H675 H 0.21066 0.40742 0.50352 0.0
H676 H 0.28449 0.38278 0.65603 0.0
H677 H 0.28376 0.32443 0.62194 0.0
H678 H 0.2351 0.41754 0.70803 0.0
H679 H 0.30485 0.42898 0.51271 0.0
H680 H 0.32025 0.42335 0.39346 0.0
H681 H 0.23516 0.48312 0.33377 0.0
H682 H 0.21899 0.48876 0.45268 0.0
H683 H 0.28063 0.58277 0.7947 0.0
H684 H 0.27729 0.52483 0.7601 0.0
H685 H 0.20402 0.55262 0.60849 0.0
H686 H 0.20851 0.61114 0.64072 0.0
H687 H 0.2518 0.51625 0.55572 0.0
H688 H 0.18318 0.50533 0.75426 0.0
H689 H 0.17017 0.51182 0.87449 0.0
H690 H 0.25579 0.45163 0.92899 0.0
H691 H 0.2695 0.44505 0.80909 0.0
C692 C 0.227 0.35629 0.50849 0.0
C693 C 0.24694 0.33215 0.54227 0.0
C694 C 0.2272 0.38958 0.52865 0.0
C695 C 0.2477 0.39947 0.58228 0.0
C696 C 0.26837 0.37565 0.61473 0.0
C697 C 0.268 0.34233 0.59497 0.0
C698 C 0.2464 0.43425 0.60672 0.0
C699 C 0.23916 0.43913 0.67489 0.0
C700 C 0.25089 0.46241 0.56317 0.0
C701 C 0.26052 0.459 0.49159 0.0
C702 C 0.28926 0.44069 0.47413 0.0
C703 C 0.29816 0.43755 0.4066 0.0
C704 C 0.27865 0.45279 0.35606 0.0
C705 C 0.25023 0.47129 0.37296 0.0
C706 C 0.2412 0.47449 0.44042 0.0
C707 C 0.26363 0.57663 0.7543 0.0
C708 C 0.24533 0.60178 0.71974 0.0
C709 C 0.2615 0.54334 0.73494 0.0
C710 C 0.24031 0.53431 0.68178 0.0
C711 C 0.22066 0.55906 0.64945 0.0
C712 C 0.22312 0.59248 0.66824 0.0
C713 C 0.24042 0.49956 0.657 0.0
C714 C 0.24751 0.49467 0.58877 0.0
C715 C 0.236 0.4714 0.70059 0.0
C716 C 0.22746 0.47487 0.7727 0.0
C717 C 0.19931 0.4936 0.7919 0.0
C718 C 0.1918 0.49727 0.85999 0.0
C719 C 0.21217 0.48219 0.90935 0.0
C720 C 0.24003 0.46329 0.89071 0.0
C721 C 0.24764 0.45953 0.8227 0.0
H722 H 0.20634 0.4851 0.96203 0.0
H723 H 0.28559 0.45034 0.30381 0.0
H724 H 0.11705 0.00956 0.44855 0.0
H725 H 0.09764 0.96974 0.36509 0.0
H726 H 0.04162 0.04844 0.2637 0.0
H727 H 0.06088 0.0884 0.34614 0.0
H728 H 0.03308 0.95158 0.33435 0.0
H729 H 0.04496 0.03926 0.10005 0.0
H730 H 0.08217 0.08414 0.05624 0.0
H731 H 0.16402 0.0441 0.17377 0.0
H732 H 0.12744 0.99861 0.21723 0.0
H733 H 0.91219 0.93567 0.0902 0.0
H734 H 0.95536 0.95907 0.16126 0.0
H735 H 0.03066 0.89975 0.06401 0.0
H736 H 0.98706 0.87534 -0.00814 0.0
H737 H 0.04503 0.97407 0.08888 0.0
H738 H 0.0141 0.8709 0.20093 0.0
H739 H 0.97427 0.82821 0.24386 0.0
H740 H 0.92995 0.90036 0.37357 0.0
H741 H 0.96905 0.9437 0.33047 0.0
C742 C 0.1005 0.01838 0.40863 0.0
C743 C 0.09052 0.05217 0.40398 0.0
C744 C 0.0896 0.99563 0.36093 0.0
C745 C 0.0689 0.00642 0.30762 0.0
C746 C 0.05828 0.03988 0.30369 0.0
C747 C 0.069 0.06258 0.35137 0.0
C748 C 0.05657 0.98253 0.25779 0.0
C749 C 0.0362 0.95602 0.28068 0.0
C750 C 0.06111 0.98831 0.18792 0.0
C751 C 0.08344 0.01541 0.16155 0.0
C752 C 0.07099 0.0398 0.11585 0.0
C753 C 0.09194 0.06542 0.09129 0.0
C754 C 0.12546 0.06692 0.11207 0.0
C755 C 0.13805 0.04288 0.15765 0.0
C756 C 0.1172 0.01718 0.18229 0.0
C757 C 0.93787 0.92754 0.08313 0.0
C758 C 0.94611 0.9033 0.0356 0.0
C759 C 0.96249 0.941 0.12402 0.0
C760 C 0.9959 0.93072 0.11824 0.0
C761 C 0.00479 0.9077 0.06912 0.0
C762 C 0.97993 0.89385 0.02815 0.0
C763 C 0.02073 0.94396 0.16569 0.0
C764 C 0.04307 0.96876 0.14249 0.0
C765 C 0.01793 0.93673 0.23543 0.0
C766 C 0.9945 0.91062 0.26213 0.0
C767 C 0.99571 0.87775 0.23821 0.0
C768 C 0.97326 0.85343 0.26263 0.0
C769 C 0.94957 0.86158 0.31132 0.0
C770 C 0.94831 0.89408 0.33582 0.0
C771 C 0.97065 0.91854 0.31145 0.0
H772 H 0.93223 0.8427 0.33009 0.0
H773 H 0.14167 0.08671 0.09284 0.0
H774 H 0.55494 0.41683 0.40417 0.0
H775 H 0.53332 0.45926 0.47931 0.0
H776 H 0.60688 0.53003 0.40436 0.0
H777 H 0.62822 0.48821 0.32747 0.0
H778 H 0.5775 0.50312 0.57896 0.0
H779 H 0.56656 0.57135 0.35775 0.0
H780 H 0.55139 0.57172 0.23721 0.0
H781 H 0.4573 0.52413 0.28469 0.0
H782 H 0.47239 0.52271 0.40532 0.0
H783 H 0.48119 0.63117 0.7486 0.0
H784 H 0.52499 0.60682 0.6775 0.0
H785 H 0.44919 0.55092 0.57221 0.0
H786 H 0.40594 0.57482 0.64104 0.0
H787 H 0.49183 0.5818 0.48609 0.0
H788 H 0.49421 0.51173 0.68911 0.0
H789 H 0.50079 0.50139 0.81127 0.0
H790 H 0.60056 0.54235 0.80338 0.0
H791 H 0.59458 0.55287 0.68103 0.0
C792 C 0.56654 0.4414 0.40352 0.0
C793 C 0.59304 0.44927 0.35935 0.0
C794 C 0.55429 0.46547 0.44667 0.0
C795 C 0.56855 0.49756 0.44675 0.0
C796 C 0.59547 0.50538 0.40416 0.0
C797 C 0.6075 0.48147 0.3603 0.0
C798 C 0.55374 0.52315 0.48924 0.0
C799 C 0.55954 0.52118 0.55881 0.0
C800 C 0.52971 0.54574 0.46256 0.0
C801 C 0.52077 0.5466 0.39021 0.0
C802 C 0.54283 0.56064 0.34231 0.0
C803 C 0.53422 0.56107 0.27404 0.0
C804 C 0.50342 0.5479 0.2533 0.0
C805 C 0.48113 0.53434 0.30082 0.0
C806 C 0.48976 0.53359 0.36907 0.0
C807 C 0.47401 0.61374 0.71014 0.0
C808 C 0.44012 0.60499 0.70045 0.0
C809 C 0.49896 0.59992 0.66976 0.0
C810 C 0.4901 0.5774 0.61944 0.0
C811 C 0.45641 0.56863 0.6102 0.0
C812 C 0.43172 0.58224 0.65008 0.0
C813 C 0.51537 0.56184 0.57628 0.0
C814 C 0.51117 0.56526 0.50638 0.0
C815 C 0.54011 0.53991 0.60295 0.0
C816 C 0.54381 0.53351 0.67626 0.0
C817 C 0.51746 0.51875 0.71356 0.0
C818 C 0.52109 0.51281 0.78276 0.0
C819 C 0.55095 0.52147 0.81514 0.0
C820 C 0.57737 0.53583 0.77827 0.0
C821 C 0.57393 0.54169 0.70898 0.0
H822 H 0.5537 0.51688 0.86874 0.0
H823 H 0.4968 0.54821 0.20044 0.0
H824 H 0.03291 0.15277 0.63696 0.0
H825 H 0.98134 0.12419 0.67099 0.0
H826 H 0.0394 0.04653 0.77043 0.0
H827 H 0.09133 0.07456 0.73571 0.0
H828 H 0.97108 0.05928 0.61972 0.0
H829 H 0.98649 0.01038 0.89376 0.0
H830 H 0.01112 0.02829 0.00077 0.0
H831 H 0.99895 0.13147 0.93961 0.0
H832 H 0.97349 0.11415 0.83264 0.0
H833 H 0.89892 0.90193 0.71648 0.0
H834 H 0.92923 0.95208 0.68007 0.0
H835 H 0.86312 0.01283 0.79785 0.0
H836 H 0.83271 0.96277 0.83514 0.0
H837 H 0.92779 0.01733 0.8395 0.0
H838 H 0.86962 0.02569 0.62719 0.0
H839 H 0.84744 0.00367 0.52097 0.0
H840 H 0.9474 0.97851 0.45922 0.0
H841 H 0.97017 1.00007 0.56536 0.0
C842 C 0.03489 0.13024 0.66816 0.0
C843 C 0.06642 0.11551 0.68199 0.0
C844 C 0.00526 0.11383 0.68715 0.0
C845 C 0.00658 0.08293 0.72191 0.0
C846 C 0.03786 0.07032 0.74326 0.0
C847 C 0.06759 0.08653 0.72365 0.0
C848 C 0.97603 0.06174 0.7275 0.0
C849 C 0.96129 0.0504 0.6678 0.0
C850 C 0.9635 0.05007 0.79016 0.0
C851 C 0.9783 0.06091 0.85482 0.0
C852 C 0.98887 0.0369 0.90322 0.0
C853 C 0.00302 0.04697 0.96393 0.0
C854 C 0.00674 0.08103 0.97696 0.0
C855 C 0.99617 0.10509 0.92936 0.0
C856 C 0.98189 0.09515 0.86862 0.0
C857 C 0.88977 0.92603 0.73243 0.0
C858 C 0.86402 0.92811 0.78064 0.0
C859 C 0.90728 0.95481 0.71157 0.0
C860 C 0.89892 0.98615 0.73751 0.0
C861 C 0.87031 0.98881 0.77808 0.0
C862 C 0.85276 0.96008 0.79893 0.0
C863 C 0.92301 0.01453 0.73171 0.0
C864 C 0.93692 0.02687 0.79139 0.0
C865 C 0.93514 0.0267 0.66903 0.0
C866 C 0.92158 0.01442 0.60442 0.0
C867 C 0.88686 0.01535 0.59108 0.0
C868 C 0.87419 0.00297 0.53086 0.0
C869 C 0.89599 0.98967 0.48342 0.0
C870 C 0.93054 0.98886 0.49598 0.0
C871 C 0.94335 0.00124 0.5561 0.0
H872 H 0.88612 0.98003 0.4369 0.0
H873 H 0.0177 0.0888 0.02399 0.0
H874 H 0.58455 0.42414 0.02356 0.0
H875 H 0.53319 0.45358 -0.00974 0.0
H876 H 0.47453 0.38469 0.11194 0.0
H877 H 0.52561 0.35479 0.14519 0.0
H878 H 0.47152 0.44043 0.93411 0.0
H879 H 0.41897 0.43827 0.20592 0.0
H880 H 0.4384 0.43267 0.32357 0.0
H881 H 0.53711 0.46511 0.26448 0.0
H882 H 0.51815 0.47153 0.1469 0.0
H883 H 0.32865 0.54 0.90595 0.0
H884 H 0.35847 0.49074 0.94987 0.0
H885 H 0.42267 0.55427 0.06696 0.0
H886 H 0.39276 0.60347 0.02453 0.0
H887 H 0.41741 0.49505 0.12772 0.0
H888 H 0.44365 0.53631 0.90436 0.0
H889 H 0.43216 0.5523 0.78672 0.0
H890 H 0.39664 0.45296 0.7482 0.0
H891 H 0.40792 0.4363 0.86659 0.0
C892 C 0.56068 0.41444 0.04146 0.0
C893 C 0.55942 0.38753 0.08838 0.0
C894 C 0.5313 0.43145 0.02262 0.0
C895 C 0.50023 0.42194 0.05051 0.0
C896 C 0.4984 0.3929 0.09129 0.0
C897 C 0.52769 0.37568 0.10971 0.0
C898 C 0.47062 0.4442 0.04183 0.0
C899 C 0.45925 0.45182 0.97656 0.0
C900 C 0.4551 0.45974 0.09718 0.0
C901 C 0.46726 0.45473 0.16732 0.0
C902 C 0.44486 0.44407 0.21802 0.0
C903 C 0.45576 0.44088 0.28475 0.0
C904 C 0.48899 0.44838 0.30144 0.0
C905 C 0.51146 0.45897 0.25142 0.0
C906 C 0.50064 0.46238 0.18467 0.0
C907 C 0.34819 0.54349 0.9432 0.0
C908 C 0.35897 0.5759 0.95995 0.0
C909 C 0.36543 0.51522 0.96786 0.0
C910 C 0.39365 0.5189 0.00964 0.0
C911 C 0.40133 0.55078 0.03387 0.0
C912 C 0.38409 0.57902 0.00945 0.0
C913 C 0.41809 0.49104 0.02001 0.0
C914 C 0.42873 0.48256 0.08551 0.0
C915 C 0.43363 0.47534 0.9649 0.0
C916 C 0.42612 0.48525 0.89434 0.0
C917 C 0.43305 0.51798 0.87098 0.0
C918 C 0.42664 0.52714 0.80405 0.0
C919 C 0.41348 0.5038 0.75977 0.0
C920 C 0.40675 0.47109 0.78252 0.0
C921 C 0.41317 0.46174 0.84956 0.0
H922 H 0.40863 0.511 0.70785 0.0
H923 H 0.49723 0.44609 0.35321 0.0
loop_
_geom_bond_atom_site_label_1
_geom_bond_atom_site_label_2
_geom_bond_distance
_geom_bond_site_symmetry_2
_ccdc_geom_bond_type
C0 O27 1.312 . S
C0 O28 1.208 . S
C1 O22 1.346 . S
C1 O25 1.244 . S
C2 O24 1.264 . S
C2 O26 1.273 1_554 S
Mg3 O5 1.936 . S
Mg3 O12 2.081 . S
Mg3 O14 2.023 1_554 S
Mg3 O18 2.031 . S
Mg3 O27 2.291 . S
Mg4 O5 1.963 1_556 S
Mg4 O15 1.942 1_556 S
Mg4 O16 1.955 . S
Mg4 O23 1.986 . S
O5 Mg3 1.936 . S
O5 Mg4 1.963 1_554 S
O5 Mg6 1.915 1_554 S
Mg6 O5 1.915 1_556 S
Mg6 O7 1.915 . S
Mg6 O11 2.013 . S
Mg6 O17 2.114 1_556 S
Mg6 O21 2.013 . S
Mg6 O27 2.114 1_556 S
O7 Mg6 1.915 . S
O7 Mg8 1.936 1_556 S
O7 Mg9 1.963 . S
Mg8 O7 1.936 1_554 S
Mg8 O17 2.291 . S
Mg8 O22 2.071 1_554 S
Mg8 O24 2.023 . S
Mg8 O28 2.031 . S
Mg9 O7 1.963 . S
Mg9 O13 1.986 . S
Mg9 O25 1.942 . S
Mg9 O26 1.955 . S
C10 O21 1.191 . S
C10 O23 1.307 . S
O11 Mg6 2.013 . S
O11 C30 1.191 . S
O12 Mg3 2.081 . S
O12 C20 1.331 . S
O13 Mg9 1.986 . S
O13 C30 1.307 . S
O14 Mg3 2.023 1_556 S
O14 C29 1.264 . S
O15 Mg4 1.942 1_554 S
O15 C20 1.244 . S
O16 Mg4 1.955 . S
O16 C29 1.273 . S
O17 Mg6 2.114 1_554 S
O17 Mg8 2.291 . S
O17 C19 1.312 . S
O18 Mg3 2.031 . S
O18 C19 1.208 . S
C19 O17 1.312 . S
C19 O18 1.208 . S
C20 O12 1.331 . S
C20 O15 1.244 . S
O21 Mg6 2.013 . S
O21 C10 1.191 . S
O22 C1 1.346 . S
O22 Mg8 2.071 1_556 S
O23 Mg4 1.986 . S
O23 C10 1.307 . S
O24 C2 1.264 . S
O24 Mg8 2.023 . S
O25 C1 1.244 . S
O25 Mg9 1.942 . S
O26 C2 1.273 1_556 S
O26 Mg9 1.955 . S
O27 C0 1.312 . S
O27 Mg3 2.291 . S
O27 Mg6 2.114 1_554 S
O28 C0 1.208 . S
O28 Mg8 2.031 . S
C29 O14 1.264 . S
C29 O16 1.273 . S
C30 O11 1.191 . S
C30 O13 1.307 . S
C31 O58 1.312 . S
C31 O59 1.208 . S
C32 O53 1.331 . S
C32 O56 1.244 . S
C33 O55 1.264 . S
C33 O57 1.273 . S
Mg34 O36 1.936 . S
Mg34 O43 2.081 . S
Mg34 O45 2.023 . S
Mg34 O49 2.031 . S
Mg34 O58 2.291 . S
Mg35 O36 1.963 . S
Mg35 O46 1.942 . S
Mg35 O47 1.955 . S
Mg35 O54 1.986 . S
O36 Mg34 1.936 . S
O36 Mg35 1.963 . S
O36 Mg37 1.915 . S
Mg37 O36 1.915 . S
Mg37 O38 1.915 . S
Mg37 O42 2.013 . S
Mg37 O48 2.114 . S
Mg37 O52 2.013 . S
Mg37 O58 2.114 . S
O38 Mg37 1.915 . S
O38 Mg39 1.936 . S
O38 Mg40 1.963 . S
Mg39 O38 1.936 . S
Mg39 O48 2.291 . S
Mg39 O53 2.081 . S
Mg39 O55 2.023 . S
Mg39 O59 2.031 . S
Mg40 O38 1.963 . S
Mg40 O44 1.986 . S
Mg40 O56 1.942 . S
Mg40 O57 1.955 . S
C41 O52 1.191 . S
C41 O54 1.307 . S
O42 Mg37 2.013 . S
O42 C61 1.191 . S
O43 Mg34 2.081 . S
O43 C51 1.331 . S
O44 Mg40 1.986 . S
O44 C61 1.307 . S
O45 Mg34 2.023 . S
O45 C60 1.264 . S
O46 Mg35 1.942 . S
O46 C51 1.244 . S
O47 Mg35 1.955 . S
O47 C60 1.273 . S
O48 Mg37 2.114 . S
O48 Mg39 2.291 . S
O48 C50 1.312 . S
O49 Mg34 2.031 . S
O49 C50 1.208 . S
C50 O48 1.312 . S
C50 O49 1.208 . S
C51 O43 1.331 . S
C51 O46 1.244 . S
O52 Mg37 2.013 . S
O52 C41 1.191 . S
O53 C32 1.331 . S
O53 Mg39 2.081 . S
O54 Mg35 1.986 . S
O54 C41 1.307 . S
O55 C33 1.264 . S
O55 Mg39 2.023 . S
O56 C32 1.244 . S
O56 Mg40 1.942 . S
O57 C33 1.273 . S
O57 Mg40 1.955 . S
O58 C31 1.312 . S
O58 Mg34 2.291 . S
O58 Mg37 2.114 . S
O59 C31 1.208 . S
O59 Mg39 2.031 . S
C60 O45 1.264 . S
C60 O47 1.273 . S
C61 O42 1.191 . S
C61 O44 1.307 . S
C62 O89 1.312 . S
C62 O90 1.208 . S
C63 O84 1.331 . S
C63 O87 1.244 . S
C64 O86 1.264 . S
C64 O88 1.273 . S
Mg65 O67 1.936 . S
Mg65 O74 2.081 . S
Mg65 O76 2.023 . S
Mg65 O80 2.031 . S
Mg65 O89 2.291 . S
Mg66 O67 1.963 . S
Mg66 O77 1.942 . S
Mg66 O78 1.955 . S
Mg66 O85 1.986 . S
O67 Mg65 1.936 . S
O67 Mg66 1.963 . S
O67 Mg68 1.915 . S
Mg68 O67 1.915 . S
Mg68 O69 1.915 . S
Mg68 O73 2.013 . S
Mg68 O79 2.114 . S
Mg68 O83 2.013 . S
Mg68 O89 2.114 . S
O69 Mg68 1.915 . S
O69 Mg70 1.936 . S
O69 Mg71 1.963 . S
Mg70 O69 1.936 . S
Mg70 O79 2.291 . S
Mg70 O84 2.081 . S
Mg70 O86 2.023 . S
Mg70 O90 2.031 . S
Mg71 O69 1.963 . S
Mg71 O75 1.986 . S
Mg71 O87 1.942 . S
Mg71 O88 1.955 . S
C72 O83 1.191 . S
C72 O85 1.307 . S
O73 Mg68 2.013 . S
O73 C92 1.191 . S
O74 Mg65 2.081 . S
O74 C82 1.331 . S
O75 Mg71 1.986 . S
O75 C92 1.307 . S
O76 Mg65 2.023 . S
O76 C91 1.264 . S
O77 Mg66 1.942 . S
O77 C82 1.244 . S
O78 Mg66 1.955 . S
O78 C91 1.273 . S
O79 Mg68 2.114 . S
O79 Mg70 2.291 . S
O79 C81 1.312 . S
O80 Mg65 2.031 . S
O80 C81 1.208 . S
C81 O79 1.312 . S
C81 O80 1.208 . S
C82 O74 1.331 . S
C82 O77 1.244 . S
O83 Mg68 2.013 . S
O83 C72 1.191 . S
O84 C63 1.331 . S
O84 Mg70 2.081 . S
O85 Mg66 1.986 . S
O85 C72 1.307 . S
O86 C64 1.264 . S
O86 Mg70 2.023 . S
O87 C63 1.244 . S
O87 Mg71 1.942 . S
O88 C64 1.273 . S
O88 Mg71 1.955 . S
O89 C62 1.312 . S
O89 Mg65 2.291 . S
O89 Mg68 2.114 . S
O90 C62 1.208 . S
O90 Mg70 2.031 . S
C91 O76 1.264 . S
C91 O78 1.273 . S
C92 O73 1.191 . S
C92 O75 1.307 . S
C93 O120 1.312 . S
C93 O121 1.208 . S
C94 O115 1.331 . S
C94 O118 1.244 . S
C95 O117 1.264 . S
C95 O119 1.273 . S
Mg96 O98 1.936 . S
Mg96 O105 2.081 . S
Mg96 O107 2.023 . S
Mg96 O111 2.031 . S
Mg96 O120 2.291 . S
Mg97 O98 1.963 . S
Mg97 O108 1.942 . S
Mg97 O109 1.955 . S
Mg97 O116 1.986 . S
O98 Mg96 1.936 . S
O98 Mg97 1.963 . S
O98 Mg99 1.915 . S
Mg99 O98 1.915 . S
Mg99 O100 1.915 . S
Mg99 O104 2.013 . S
Mg99 O110 2.114 . S
Mg99 O114 2.013 . S
Mg99 O120 2.114 . S
O100 Mg99 1.915 . S
O100 Mg101 1.936 . S
O100 Mg102 1.963 . S
Mg101 O100 1.936 . S
Mg101 O110 2.291 . S
Mg101 O115 2.081 . S
Mg101 O117 2.023 . S
Mg101 O121 2.031 . S
Mg102 O100 1.963 . S
Mg102 O106 1.986 . S
Mg102 O118 1.942 . S
Mg102 O119 1.955 . S
C103 O114 1.191 . S
C103 O116 1.307 . S
O104 Mg99 2.013 . S
O104 C123 1.191 . S
O105 Mg96 2.081 . S
O105 C113 1.331 . S
O106 Mg102 1.986 . S
O106 C123 1.307 . S
O107 Mg96 2.023 . S
O107 C122 1.264 . S
O108 Mg97 1.942 . S
O108 C113 1.244 . S
O109 Mg97 1.955 . S
O109 C122 1.273 . S
O110 Mg99 2.114 . S
O110 Mg101 2.291 . S
O110 C112 1.312 . S
O111 Mg96 2.031 . S
O111 C112 1.208 . S
C112 O110 1.312 . S
C112 O111 1.208 . S
C113 O105 1.331 . S
C113 O108 1.244 . S
O114 Mg99 2.013 . S
O114 C103 1.191 . S
O115 C94 1.331 . S
O115 Mg101 2.081 . S
O116 Mg97 1.986 . S
O116 C103 1.307 . S
O117 C95 1.264 . S
O117 Mg101 2.023 . S
O118 C94 1.244 . S
O118 Mg102 1.942 . S
O119 C95 1.273 . S
O119 Mg102 1.955 . S
O120 C93 1.312 . S
O120 Mg96 2.291 . S
O120 Mg99 2.114 . S
O121 C93 1.208 . S
O121 Mg101 2.031 . S
C122 O107 1.264 . S
C122 O109 1.273 . S
C123 O104 1.191 . S
C123 O106 1.307 . S
H124 C142 0.951 . S
H125 C144 0.951 . S
H126 C146 0.950 . S
H127 C147 0.950 . S
H128 C149 0.950 . S
H129 C152 0.950 . S
H130 C153 0.950 . S
H131 C155 0.950 . S
H132 C156 0.950 . S
H133 C157 0.951 . S
H134 C159 0.951 . S
H135 C161 0.950 . S
H136 C162 0.950 . S
H137 C164 0.950 . S
H138 C167 0.950 . S
H139 C168 0.950 . S
H140 C170 0.950 . S
H141 C171 0.950 . S
C142 H124 0.951 . S
C142 C143 1.366 . S
C142 C144 1.388 . S
C143 C142 1.366 . S
C143 C147 1.385 . S
C144 H125 0.951 . S
C144 C142 1.388 . S
C144 C145 1.366 . S
C145 C144 1.366 . S
C145 C146 1.414 . S
C145 C148 1.499 . S
C146 H126 0.950 . S
C146 C145 1.414 . S
C146 C147 1.374 . S
C147 H127 0.950 . S
C147 C143 1.385 . S
C147 C146 1.374 . S
C148 C145 1.499 . S
C148 C149 1.373 . S
C148 C150 1.389 . S
C149 H128 0.950 . S
C149 C148 1.373 . S
C149 C165 1.377 . S
C150 C148 1.389 . S
C150 C151 1.524 . S
C150 C164 1.377 . S
C151 C150 1.524 . S
C151 C152 1.397 . S
C151 C156 1.363 . S
C152 H129 0.950 . S
C152 C151 1.397 . S
C152 C153 1.334 . S
C153 H130 0.950 . S
C153 C152 1.334 . S
C153 C154 1.287 . S
C154 C153 1.287 . S
C154 C155 1.524 . S
C154 H173 0.913 . S
C155 H131 0.950 . S
C155 C154 1.524 . S
C155 C156 1.415 . S
C156 H132 0.950 . S
C156 C151 1.363 . S
C156 C155 1.415 . S
C157 H133 0.951 . S
C157 C158 1.366 . S
C157 C159 1.388 . S
C158 C157 1.366 . S
C158 C162 1.385 . S
C159 H134 0.951 . S
C159 C157 1.388 . S
C159 C160 1.366 . S
C160 C159 1.366 . S
C160 C161 1.414 . S
C160 C163 1.499 . S
C161 H135 0.950 . S
C161 C160 1.414 . S
C161 C162 1.374 . S
C162 H136 0.950 . S
C162 C158 1.385 . S
C162 C161 1.374 . S
C163 C160 1.499 . S
C163 C164 1.373 . S
C163 C165 1.389 . S
C164 H137 0.950 . S
C164 C150 1.377 . S
C164 C163 1.373 . S
C165 C149 1.377 . S
C165 C163 1.389 . S
C165 C166 1.524 . S
C166 C165 1.524 . S
C166 C167 1.397 . S
C166 C171 1.363 . S
C167 H138 0.950 . S
C167 C166 1.397 . S
C167 C168 1.334 . S
C168 H139 0.950 . S
C168 C167 1.334 . S
C168 C169 1.287 . S
C169 C168 1.287 . S
C169 C170 1.524 . S
C169 H172 0.999 . S
C170 H140 0.950 . S
C170 C169 1.524 . S
C170 C171 1.415 . S
C171 H141 0.950 . S
C171 C166 1.363 . S
C171 C170 1.415 . S
H172 C169 0.999 . S
H173 C154 0.913 . S
H174 C192 0.951 . S
H175 C194 0.951 . S
H176 C196 0.950 . S
H177 C197 0.950 . S
H178 C199 0.950 . S
H179 C202 0.950 . S
H180 C203 0.950 . S
H181 C205 0.950 . S
H182 C206 0.950 . S
H183 C207 0.951 . S
H184 C209 0.951 . S
H185 C211 0.950 . S
H186 C212 0.950 . S
H187 C214 0.950 . S
H188 C217 0.950 . S
H189 C218 0.950 . S
H190 C220 0.950 . S
H191 C221 0.950 . S
C192 H174 0.951 . S
C192 C193 1.366 . S
C192 C194 1.388 . S
C193 C192 1.366 . S
C193 C197 1.385 . S
C194 H175 0.951 . S
C194 C192 1.388 . S
C194 C195 1.366 . S
C195 C194 1.366 . S
C195 C196 1.414 . S
C195 C198 1.499 . S
C196 H176 0.950 . S
C196 C195 1.414 . S
C196 C197 1.374 . S
C197 H177 0.950 . S
C197 C193 1.385 . S
C197 C196 1.374 . S
C198 C195 1.499 . S
C198 C199 1.373 . S
C198 C200 1.389 . S
C199 H178 0.950 . S
C199 C198 1.373 . S
C199 C215 1.377 . S
C200 C198 1.389 . S
C200 C201 1.524 . S
C200 C214 1.377 . S
C201 C200 1.524 . S
C201 C202 1.397 . S
C201 C206 1.363 . S
C202 H179 0.950 . S
C202 C201 1.397 . S
C202 C203 1.334 . S
C203 H180 0.950 . S
C203 C202 1.334 . S
C203 C204 1.287 . S
C204 C203 1.287 . S
C204 C205 1.524 . S
C204 H223 0.913 . S
C205 H181 0.950 . S
C205 C204 1.524 . S
C205 C206 1.415 . S
C206 H182 0.950 . S
C206 C201 1.363 . S
C206 C205 1.415 . S
C207 H183 0.951 . S
C207 C208 1.366 . S
C207 C209 1.388 1_554 S
C208 C207 1.366 . S
C208 C212 1.385 . S
C209 H184 0.951 . S
C209 C207 1.388 1_556 S
C209 C210 1.366 . S
C210 C209 1.366 . S
C210 C211 1.414 . S
C210 C213 1.499 . S
C211 H185 0.950 . S
C211 C210 1.414 . S
C211 C212 1.374 1_556 S
C212 H186 0.950 . S
C212 C208 1.385 . S
C212 C211 1.374 1_554 S
C213 C210 1.499 . S
C213 C214 1.373 . S
C213 C215 1.389 . S
C214 H187 0.950 . S
C214 C200 1.377 . S
C214 C213 1.373 . S
C215 C199 1.377 . S
C215 C213 1.389 . S
C215 C216 1.524 . S
C216 C215 1.524 . S
C216 C217 1.397 . S
C216 C221 1.363 . S
C217 H188 0.950 . S
C217 C216 1.397 . S
C217 C218 1.334 . S
C218 H189 0.950 . S
C218 C217 1.334 . S
C218 C219 1.287 . S
C219 C218 1.287 . S
C219 C220 1.524 . S
C219 H222 0.999 . S
C220 H190 0.950 . S
C220 C219 1.524 . S
C220 C221 1.415 . S
C221 H191 0.950 . S
C221 C216 1.363 . S
C221 C220 1.415 . S
H222 C219 0.999 . S
H223 C204 0.913 . S
H224 C242 0.951 . S
H225 C244 0.951 . S
H226 C246 0.950 . S
H227 C247 0.950 . S
H228 C249 0.950 . S
H229 C252 0.950 . S
H230 C253 0.950 . S
H231 C255 0.950 . S
H232 C256 0.950 . S
H233 C257 0.951 . S
H234 C259 0.951 . S
H235 C261 0.950 . S
H236 C262 0.950 . S
H237 C264 0.950 . S
H238 C267 0.950 . S
H239 C268 0.950 . S
H240 C270 0.950 . S
H241 C271 0.950 . S
C242 H224 0.951 . S
C242 C243 1.366 . S
C242 C244 1.388 . S
C243 C242 1.366 . S
C243 C247 1.385 . S
C244 H225 0.951 . S
C244 C242 1.388 . S
C244 C245 1.366 . S
C245 C244 1.366 . S
C245 C246 1.414 . S
C245 C248 1.499 . S
C246 H226 0.950 . S
C246 C245 1.414 . S
C246 C247 1.374 . S
C247 H227 0.950 . S
C247 C243 1.385 . S
C247 C246 1.374 . S
C248 C245 1.499 . S
C248 C249 1.373 . S
C248 C250 1.389 . S
C249 H228 0.950 . S
C249 C248 1.373 . S
C249 C265 1.377 1_556 S
C250 C248 1.389 . S
C250 C251 1.524 . S
C250 C264 1.377 1_556 S
C251 C250 1.524 . S
C251 C252 1.397 . S
C251 C256 1.363 . S
C252 H229 0.950 . S
C252 C251 1.397 . S
C252 C253 1.334 . S
C253 H230 0.950 . S
C253 C252 1.334 . S
C253 C254 1.287 . S
C254 C253 1.287 . S
C254 C255 1.524 . S
C254 H273 0.913 . S
C255 H231 0.950 . S
C255 C254 1.524 . S
C255 C256 1.415 . S
C256 H232 0.950 . S
C256 C251 1.363 . S
C256 C255 1.415 . S
C257 H233 0.951 . S
C257 C258 1.366 . S
C257 C259 1.388 . S
C258 C257 1.366 . S
C258 C262 1.385 . S
C259 H234 0.951 . S
C259 C257 1.388 . S
C259 C260 1.366 . S
C260 C259 1.366 . S
C260 C261 1.414 . S
C260 C263 1.499 . S
C261 H235 0.950 . S
C261 C260 1.414 . S
C261 C262 1.374 . S
C262 H236 0.950 . S
C262 C258 1.385 . S
C262 C261 1.374 . S
C263 C260 1.499 . S
C263 C264 1.373 . S
C263 C265 1.389 . S
C264 H237 0.950 . S
C264 C250 1.377 1_554 S
C264 C263 1.373 . S
C265 C249 1.377 1_554 S
C265 C263 1.389 . S
C265 C266 1.524 . S
C266 C265 1.524 . S
C266 C267 1.397 . S
C266 C271 1.363 . S
C267 H238 0.950 . S
C267 C266 1.397 . S
C267 C268 1.334 . S
C268 H239 0.950 . S
C268 C267 1.334 . S
C268 C269 1.287 . S
C269 C268 1.287 . S
C269 C270 1.524 . S
C269 H272 0.999 . S
C270 H240 0.950 . S
C270 C269 1.524 . S
C270 C271 1.415 . S
C271 H241 0.950 . S
C271 C266 1.363 . S
C271 C270 1.415 . S
H272 C269 0.999 . S
H273 C254 0.913 . S
H274 C292 0.951 1_556 S
H275 C294 0.951 . S
H276 C296 0.950 . S
H277 C297 0.950 1_556 S
H278 C299 0.950 . S
H279 C302 0.950 . S
H280 C303 0.950 . S
H281 C305 0.950 . S
H282 C306 0.950 . S
H283 C307 0.951 . S
H284 C309 0.951 . S
H285 C311 0.950 . S
H286 C312 0.950 . S
H287 C314 0.950 . S
H288 C317 0.950 . S
H289 C318 0.950 . S
H290 C320 0.950 . S
H291 C321 0.950 . S
C292 H274 0.951 1_554 S
C292 C293 1.366 1_554 S
C292 C294 1.388 . S
C293 C292 1.366 1_556 S
C293 C297 1.385 1_556 S
C294 H275 0.951 . S
C294 C292 1.388 . S
C294 C295 1.366 . S
C295 C294 1.366 . S
C295 C296 1.414 . S
C295 C298 1.499 . S
C296 H276 0.950 . S
C296 C295 1.414 . S
C296 C297 1.374 . S
C297 H277 0.950 1_554 S
C297 C293 1.385 1_554 S
C297 C296 1.374 . S
C298 C295 1.499 . S
C298 C299 1.373 . S
C298 C300 1.389 . S
C299 H278 0.950 . S
C299 C298 1.373 . S
C299 C315 1.377 . S
C300 C298 1.389 . S
C300 C301 1.524 . S
C300 C314 1.377 . S
C301 C300 1.524 . S
C301 C302 1.397 . S
C301 C306 1.363 . S
C302 H279 0.950 . S
C302 C301 1.397 . S
C302 C303 1.334 . S
C303 H280 0.950 . S
C303 C302 1.334 . S
C303 C304 1.287 . S
C304 C303 1.287 . S
C304 C305 1.524 . S
C304 H323 0.913 . S
C305 H281 0.950 . S
C305 C304 1.524 . S
C305 C306 1.415 . S
C306 H282 0.950 . S
C306 C301 1.363 . S
C306 C305 1.415 . S
C307 H283 0.951 . S
C307 C308 1.366 . S
C307 C309 1.388 . S
C308 C307 1.366 . S
C308 C312 1.385 . S
C309 H284 0.951 . S
C309 C307 1.388 . S
C309 C310 1.366 . S
C310 C309 1.366 . S
C310 C311 1.414 . S
C310 C313 1.499 . S
C311 H285 0.950 . S
C311 C310 1.414 . S
C311 C312 1.374 . S
C312 H286 0.950 . S
C312 C308 1.385 . S
C312 C311 1.374 . S
C313 C310 1.499 . S
C313 C314 1.373 . S
C313 C315 1.389 . S
C314 H287 0.950 . S
C314 C300 1.377 . S
C314 C313 1.373 . S
C315 C299 1.377 . S
C315 C313 1.389 . S
C315 C316 1.524 . S
C316 C315 1.524 . S
C316 C317 1.397 . S
C316 C321 1.363 . S
C317 H288 0.950 . S
C317 C316 1.397 . S
C317 C318 1.334 . S
C318 H289 0.950 . S
C318 C317 1.334 . S
C318 C319 1.287 . S
C319 C318 1.287 . S
C319 C320 1.524 . S
C319 H322 0.999 . S
C320 H290 0.950 . S
C320 C319 1.524 . S
C320 C321 1.415 . S
C321 H291 0.950 . S
C321 C316 1.363 . S
C321 C320 1.415 . S
H322 C319 0.999 . S
H323 C304 0.913 . S
H324 C342 0.951 . S
H325 C344 0.951 . S
H326 C346 0.950 . S
H327 C347 0.950 . S
H328 C349 0.950 . S
H329 C352 0.950 . S
H330 C353 0.950 . S
H331 C355 0.950 . S
H332 C356 0.950 . S
H333 C357 0.951 . S
H334 C359 0.951 . S
H335 C361 0.950 . S
H336 C362 0.950 . S
H337 C364 0.950 . S
H338 C367 0.950 . S
H339 C368 0.950 . S
H340 C370 0.950 . S
H341 C371 0.950 . S
C342 H324 0.951 . S
C342 C343 1.366 . S
C342 C344 1.388 . S
C343 C342 1.366 . S
C343 C347 1.385 . S
C344 H325 0.951 . S
C344 C342 1.388 . S
C344 C345 1.366 . S
C345 C344 1.366 . S
C345 C346 1.414 . S
C345 C348 1.499 . S
C346 H326 0.950 . S
C346 C345 1.414 . S
C346 C347 1.374 . S
C347 H327 0.950 . S
C347 C343 1.385 . S
C347 C346 1.374 . S
C348 C345 1.499 . S
C348 C349 1.373 . S
C348 C350 1.389 . S
C349 H328 0.950 . S
C349 C348 1.373 . S
C349 C365 1.377 . S
C350 C348 1.389 . S
C350 C351 1.524 . S
C350 C364 1.377 . S
C351 C350 1.524 . S
C351 C352 1.397 . S
C351 C356 1.363 . S
C352 H329 0.950 . S
C352 C351 1.397 . S
C352 C353 1.334 1_556 S
C353 H330 0.950 . S
C353 C352 1.334 1_554 S
C353 C354 1.287 . S
C354 C353 1.287 . S
C354 C355 1.524 . S
C354 H373 0.913 . S
C355 H331 0.950 . S
C355 C354 1.524 . S
C355 C356 1.415 1_554 S
C356 H332 0.950 . S
C356 C351 1.363 . S
C356 C355 1.415 1_556 S
C357 H333 0.951 . S
C357 C358 1.366 . S
C357 C359 1.388 . S
C358 C357 1.366 . S
C358 C362 1.385 . S
C359 H334 0.951 . S
C359 C357 1.388 . S
C359 C360 1.366 . S
C360 C359 1.366 . S
C360 C361 1.414 . S
C360 C363 1.499 . S
C361 H335 0.950 . S
C361 C360 1.414 . S
C361 C362 1.374 . S
C362 H336 0.950 . S
C362 C358 1.385 . S
C362 C361 1.374 . S
C363 C360 1.499 . S
C363 C364 1.373 . S
C363 C365 1.389 . S
C364 H337 0.950 . S
C364 C350 1.377 . S
C364 C363 1.373 . S
C365 C349 1.377 . S
C365 C363 1.389 . S
C365 C366 1.524 . S
C366 C365 1.524 . S
C366 C367 1.397 . S
C366 C371 1.363 . S
C367 H338 0.950 . S
C367 C366 1.397 . S
C367 C368 1.334 . S
C368 H339 0.950 . S
C368 C367 1.334 . S
C368 C369 1.287 . S
C369 C368 1.287 . S
C369 C370 1.524 . S
C369 H372 0.999 . S
C370 H340 0.950 . S
C370 C369 1.524 . S
C370 C371 1.415 . S
C371 H341 0.950 . S
C371 C366 1.363 . S
C371 C370 1.415 . S
H372 C369 0.999 . S
H373 C354 0.913 . S
H374 C392 0.951 . S
H375 C394 0.951 . S
H376 C396 0.950 . S
H377 C397 0.950 . S
H378 C399 0.950 . S
H379 C402 0.950 . S
H380 C403 0.950 . S
H381 C405 0.950 . S
H382 C406 0.950 . S
H383 C407 0.951 . S
H384 C409 0.951 . S
H385 C411 0.953 1_545 S
H386 C412 0.950 . S
H387 C414 0.950 1_556 S
H388 C417 0.950 . S
H389 C418 0.950 . S
H390 C420 0.950 . S
H391 C421 0.950 . S
C392 H374 0.951 . S
C392 C393 1.366 . S
C392 C394 1.388 . S
C393 C392 1.366 . S
C393 C397 1.385 . S
C394 H375 0.951 . S
C394 C392 1.388 . S
C394 C395 1.366 . S
C395 C394 1.366 . S
C395 C396 1.414 . S
C395 C398 1.499 . S
C396 H376 0.950 . S
C396 C395 1.414 . S
C396 C397 1.374 . S
C397 H377 0.950 . S
C397 C393 1.385 . S
C397 C396 1.374 . S
C398 C395 1.499 . S
C398 C399 1.373 . S
C398 C400 1.389 . S
C399 H378 0.950 . S
C399 C398 1.373 . S
C399 C415 1.377 . S
C400 C398 1.389 . S
C400 C401 1.524 1_554 S
C400 C414 1.377 . S
C401 C400 1.524 1_556 S
C401 C402 1.397 . S
C401 C406 1.363 . S
C402 H379 0.950 . S
C402 C401 1.397 . S
C402 C403 1.334 . S
C403 H380 0.950 . S
C403 C402 1.334 . S
C403 C404 1.287 . S
C404 C403 1.287 . S
C404 C405 1.524 . S
C404 H423 0.913 . S
C405 H381 0.950 . S
C405 C404 1.524 . S
C405 C406 1.415 . S
C406 H382 0.950 . S
C406 C401 1.363 . S
C406 C405 1.415 . S
C407 H383 0.951 . S
C407 C408 1.366 . S
C407 C409 1.388 . S
C408 C407 1.366 . S
C408 C412 1.385 1_554 S
C409 H384 0.951 . S
C409 C407 1.388 . S
C409 C410 1.390 . S
C410 C409 1.390 . S
C410 C411 1.420 . S
C410 C413 1.469 1_565 S
C411 H385 0.953 1_565 S
C411 C410 1.420 . S
C411 C412 1.374 1_554 S
C412 H386 0.950 . S
C412 C408 1.385 1_556 S
C412 C411 1.374 1_556 S
C413 C410 1.469 1_545 S
C413 C414 1.373 . S
C413 C415 1.389 . S
C414 H387 0.950 1_554 S
C414 C400 1.377 . S
C414 C413 1.373 . S
C415 C399 1.377 . S
C415 C413 1.389 . S
C415 C416 1.524 . S
C416 C415 1.524 . S
C416 C417 1.397 . S
C416 C421 1.363 . S
C417 H388 0.950 . S
C417 C416 1.397 . S
C417 C418 1.334 1_545 S
C418 H389 0.950 . S
C418 C417 1.334 1_565 S
C418 C419 1.287 . S
C419 C418 1.287 . S
C419 C420 1.524 . S
C419 H422 0.999 . S
C420 H390 0.950 . S
C420 C419 1.524 . S
C420 C421 1.415 1_565 S
C421 H391 0.950 . S
C421 C416 1.363 . S
C421 C420 1.415 1_545 S
H422 C419 0.999 . S
H423 C404 0.913 . S
H424 C442 0.951 . S
H425 C444 0.951 . S
H426 C446 0.950 . S
H427 C447 0.950 . S
H428 C449 0.950 . S
H429 C452 0.950 . S
H430 C453 0.950 . S
H431 C455 0.950 . S
H432 C456 0.950 . S
H433 C457 0.951 . S
H434 C459 0.951 . S
H435 C461 0.950 . S
H436 C462 0.950 . S
H437 C464 0.950 . S
H438 C467 0.950 . S
H439 C468 0.950 . S
H440 C470 0.950 . S
H441 C471 0.950 . S
C442 H424 0.951 . S
C442 C443 1.366 . S
C442 C444 1.388 . S
C443 C442 1.366 . S
C443 C447 1.385 . S
C444 H425 0.951 . S
C444 C442 1.388 . S
C444 C445 1.366 . S
C445 C444 1.366 . S
C445 C446 1.414 . S
C445 C448 1.499 . S
C446 H426 0.950 . S
C446 C445 1.414 . S
C446 C447 1.374 . S
C447 H427 0.950 . S
C447 C443 1.385 . S
C447 C446 1.374 . S
C448 C445 1.499 . S
C448 C449 1.373 . S
C448 C450 1.389 . S
C449 H428 0.950 . S
C449 C448 1.373 . S
C449 C465 1.377 . S
C450 C448 1.389 . S
C450 C451 1.524 . S
C450 C464 1.377 . S
C451 C450 1.524 . S
C451 C452 1.397 . S
C451 C456 1.363 . S
C452 H429 0.950 . S
C452 C451 1.397 . S
C452 C453 1.334 . S
C453 H430 0.950 . S
C453 C452 1.334 . S
C453 C454 1.287 . S
C454 C453 1.287 . S
C454 C455 1.524 . S
C454 H473 0.913 . S
C455 H431 0.950 . S
C455 C454 1.524 . S
C455 C456 1.415 . S
C456 H432 0.950 . S
C456 C451 1.363 . S
C456 C455 1.415 . S
C457 H433 0.951 . S
C457 C458 1.366 . S
C457 C459 1.388 . S
C458 C457 1.366 . S
C458 C462 1.385 . S
C459 H434 0.951 . S
C459 C457 1.388 . S
C459 C460 1.366 . S
C460 C459 1.366 . S
C460 C461 1.414 . S
C460 C463 1.499 . S
C461 H435 0.950 . S
C461 C460 1.414 . S
C461 C462 1.374 . S
C462 H436 0.950 . S
C462 C458 1.385 . S
C462 C461 1.374 . S
C463 C460 1.499 . S
C463 C464 1.373 . S
C463 C465 1.389 . S
C464 H437 0.950 . S
C464 C450 1.377 . S
C464 C463 1.373 . S
C465 C449 1.377 . S
C465 C463 1.389 . S
C465 C466 1.524 . S
C466 C465 1.524 . S
C466 C467 1.397 . S
C466 C471 1.363 . S
C467 H438 0.950 . S
C467 C466 1.397 . S
C467 C468 1.334 . S
C468 H439 0.950 . S
C468 C467 1.334 . S
C468 C469 1.287 . S
C469 C468 1.287 . S
C469 C470 1.524 . S
C469 H472 0.999 . S
C470 H440 0.950 . S
C470 C469 1.524 . S
C470 C471 1.415 . S
C471 H441 0.950 . S
C471 C466 1.363 . S
C471 C470 1.415 . S
H472 C469 0.999 . S
H473 C454 0.913 . S
H474 C492 0.951 . S
H475 C494 0.951 . S
H476 C496 0.950 . S
H477 C497 0.950 . S
H478 C499 0.950 . S
H479 C502 0.950 . S
H480 C503 0.950 . S
H481 C505 0.950 . S
H482 C506 0.950 . S
H483 C507 0.951 . S
H484 C509 0.951 1_565 S
H485 C511 0.950 . S
H486 C512 0.950 . S
H487 C514 0.950 . S
H488 C517 0.950 1_545 S
H489 C518 0.950 . S
H490 C520 0.950 . S
H491 C521 0.950 . S
C492 H474 0.951 . S
C492 C493 1.366 . S
C492 C494 1.388 . S
C493 C492 1.366 . S
C493 C497 1.385 . S
C494 H475 0.951 . S
C494 C492 1.388 . S
C494 C495 1.366 . S
C495 C494 1.366 . S
C495 C496 1.414 . S
C495 C498 1.499 . S
C496 H476 0.950 . S
C496 C495 1.414 . S
C496 C497 1.374 . S
C497 H477 0.950 . S
C497 C493 1.385 . S
C497 C496 1.374 . S
C498 C495 1.499 . S
C498 C499 1.373 . S
C498 C500 1.389 . S
C499 H478 0.950 . S
C499 C498 1.373 . S
C499 C515 1.377 . S
C500 C498 1.389 . S
C500 C501 1.524 . S
C500 C514 1.377 . S
C501 C500 1.524 . S
C501 C502 1.397 . S
C501 C506 1.363 . S
C502 H479 0.950 . S
C502 C501 1.397 . S
C502 C503 1.334 . S
C503 H480 0.950 . S
C503 C502 1.334 . S
C503 C504 1.287 . S
C504 C503 1.287 . S
C504 C505 1.524 . S
C504 H523 0.913 . S
C505 H481 0.950 . S
C505 C504 1.524 . S
C505 C506 1.415 . S
C506 H482 0.950 . S
C506 C501 1.363 . S
C506 C505 1.415 . S
C507 H483 0.951 . S
C507 C508 1.366 . S
C507 C509 1.388 . S
C508 C507 1.366 . S
C508 C512 1.385 . S
C509 H484 0.951 1_545 S
C509 C507 1.388 . S
C509 C510 1.366 1_545 S
C510 C509 1.366 1_565 S
C510 C511 1.414 1_565 S
C510 C513 1.499 . S
C511 H485 0.950 . S
C511 C510 1.414 1_545 S
C511 C512 1.374 . S
C512 H486 0.950 . S
C512 C508 1.385 . S
C512 C511 1.374 . S
C513 C510 1.499 . S
C513 C514 1.373 . S
C513 C515 1.389 . S
C514 H487 0.950 . S
C514 C500 1.377 . S
C514 C513 1.373 . S
C515 C499 1.377 . S
C515 C513 1.389 . S
C515 C516 1.524 . S
C516 C515 1.524 . S
C516 C517 1.397 . S
C516 C521 1.363 . S
C517 H488 0.950 1_565 S
C517 C516 1.397 . S
C517 C518 1.334 1_565 S
C518 H489 0.950 . S
C518 C517 1.334 1_545 S
C518 C519 1.287 . S
C519 C518 1.287 . S
C519 C520 1.524 1_545 S
C519 H522 0.999 . S
C520 H490 0.950 . S
C520 C519 1.524 1_565 S
C520 C521 1.415 . S
C521 H491 0.950 . S
C521 C516 1.363 . S
C521 C520 1.415 . S
H522 C519 0.999 . S
H523 C504 0.913 . S
H524 C542 0.951 1_554 S
H525 C544 0.951 . S
H526 C546 0.950 1_455 S
H527 C547 0.950 . S
H528 C549 0.950 . S
H529 C552 0.950 . S
H530 C553 0.950 . S
H531 C555 0.950 . S
H532 C556 0.950 . S
H533 C557 0.951 . S
H534 C559 0.951 . S
H535 C561 0.950 . S
H536 C562 0.950 . S
H537 C564 0.950 . S
H538 C567 0.950 . S
H539 C568 0.950 . S
H540 C570 0.950 . S
H541 C571 0.950 . S
C542 H524 0.951 1_556 S
C542 C543 1.366 . S
C542 C544 1.388 . S
C543 C542 1.366 . S
C543 C547 1.385 . S
C544 H525 0.951 . S
C544 C542 1.388 . S
C544 C545 1.366 1_655 S
C545 C544 1.366 1_455 S
C545 C546 1.414 1_455 S
C545 C548 1.498 . S
C546 H526 0.950 1_655 S
C546 C545 1.414 1_655 S
C546 C547 1.374 . S
C547 H527 0.950 . S
C547 C543 1.385 . S
C547 C546 1.374 . S
C548 C545 1.498 . S
C548 C549 1.373 . S
C548 C550 1.389 . S
C549 H528 0.950 . S
C549 C548 1.373 . S
C549 C565 1.377 . S
C550 C548 1.389 . S
C550 C551 1.524 1_556 S
C550 C564 1.377 . S
C551 C550 1.524 1_554 S
C551 C552 1.397 . S
C551 C556 1.363 . S
C552 H529 0.950 . S
C552 C551 1.397 . S
C552 C553 1.334 . S
C553 H530 0.950 . S
C553 C552 1.334 . S
C553 C554 1.287 . S
C554 C553 1.287 . S
C554 C555 1.524 . S
C554 H573 0.913 . S
C555 H531 0.950 . S
C555 C554 1.524 . S
C555 C556 1.415 . S
C556 H532 0.950 . S
C556 C551 1.363 . S
C556 C555 1.415 . S
C557 H533 0.951 . S
C557 C558 1.366 . S
C557 C559 1.388 . S
C558 C557 1.366 . S
C558 C562 1.385 . S
C559 H534 0.951 . S
C559 C557 1.388 . S
C559 C560 1.366 . S
C560 C559 1.366 . S
C560 C561 1.414 . S
C560 C563 1.499 . S
C561 H535 0.950 . S
C561 C560 1.414 . S
C561 C562 1.374 . S
C562 H536 0.950 . S
C562 C558 1.385 . S
C562 C561 1.374 . S
C563 C560 1.499 . S
C563 C564 1.373 . S
C563 C565 1.389 . S
C564 H537 0.950 . S
C564 C550 1.377 . S
C564 C563 1.373 . S
C565 C549 1.377 . S
C565 C563 1.389 . S
C565 C566 1.524 . S
C566 C565 1.524 . S
C566 C567 1.397 . S
C566 C571 1.363 . S
C567 H538 0.950 . S
C567 C566 1.397 . S
C567 C568 1.334 . S
C568 H539 0.950 . S
C568 C567 1.334 . S
C568 C569 1.287 . S
C569 C568 1.287 . S
C569 C570 1.524 . S
C569 H572 0.999 . S
C570 H540 0.950 . S
C570 C569 1.524 . S
C570 C571 1.415 . S
C571 H541 0.950 . S
C571 C566 1.363 . S
C571 C570 1.415 . S
H572 C569 0.999 . S
H573 C554 0.913 . S
H574 C592 0.951 . S
H575 C594 0.951 . S
H576 C596 0.950 . S
H577 C597 0.950 . S
H578 C599 0.950 . S
H579 C602 0.950 . S
H580 C603 0.950 . S
H581 C605 0.950 . S
H582 C606 0.950 1_556 S
H583 C607 0.951 . S
H584 C609 0.951 . S
H585 C611 0.950 . S
H586 C612 0.950 1_556 S
H587 C614 0.950 . S
H588 C617 0.950 . S
H589 C618 0.950 . S
H590 C620 0.950 . S
H591 C621 0.950 . S
C592 H574 0.951 . S
C592 C593 1.366 . S
C592 C594 1.388 . S
C593 C592 1.366 . S
C593 C597 1.385 . S
C594 H575 0.951 . S
C594 C592 1.388 . S
C594 C595 1.366 . S
C595 C594 1.366 . S
C595 C596 1.414 . S
C595 C598 1.499 . S
C596 H576 0.950 . S
C596 C595 1.414 . S
C596 C597 1.374 . S
C597 H577 0.950 . S
C597 C593 1.385 . S
C597 C596 1.374 . S
C598 C595 1.499 . S
C598 C599 1.373 . S
C598 C600 1.389 . S
C599 H578 0.950 . S
C599 C598 1.373 . S
C599 C615 1.377 . S
C600 C598 1.389 . S
C600 C601 1.524 . S
C600 C614 1.377 . S
C601 C600 1.524 . S
C601 C602 1.397 . S
C601 C606 1.363 . S
C602 H579 0.950 . S
C602 C601 1.397 . S
C602 C603 1.334 . S
C603 H580 0.950 . S
C603 C602 1.334 . S
C603 C604 1.287 . S
C604 C603 1.287 . S
C604 C605 1.524 1_554 S
C604 H623 0.913 1_554 S
C605 H581 0.950 . S
C605 C604 1.524 1_556 S
C605 C606 1.415 1_556 S
C606 H582 0.950 1_554 S
C606 C601 1.363 . S
C606 C605 1.415 1_554 S
C607 H583 0.951 . S
C607 C608 1.366 . S
C607 C609 1.388 . S
C608 C607 1.366 . S
C608 C612 1.385 . S
C609 H584 0.951 . S
C609 C607 1.388 . S
C609 C610 1.366 . S
C610 C609 1.366 . S
C610 C611 1.414 . S
C610 C613 1.499 . S
C611 H585 0.950 . S
C611 C610 1.414 . S
C611 C612 1.374 . S
C612 H586 0.950 1_554 S
C612 C608 1.385 . S
C612 C611 1.374 . S
C613 C610 1.499 . S
C613 C614 1.373 . S
C613 C615 1.389 . S
C614 H587 0.950 . S
C614 C600 1.377 . S
C614 C613 1.373 . S
C615 C599 1.377 . S
C615 C613 1.389 . S
C615 C616 1.524 . S
C616 C615 1.524 . S
C616 C617 1.397 . S
C616 C621 1.363 . S
C617 H588 0.950 . S
C617 C616 1.397 . S
C617 C618 1.334 . S
C618 H589 0.950 . S
C618 C617 1.334 . S
C618 C619 1.287 . S
C619 C618 1.287 . S
C619 C620 1.524 . S
C619 H622 0.999 . S
C620 H590 0.950 . S
C620 C619 1.524 . S
C620 C621 1.415 . S
C621 H591 0.950 . S
C621 C616 1.363 . S
C621 C620 1.415 . S
H622 C619 0.999 . S
H623 C604 0.913 1_556 S
H624 C642 0.951 . S
H625 C644 0.951 . S
H626 C646 0.950 . S
H627 C647 0.950 . S
H628 C649 0.950 . S
H629 C652 0.950 . S
H630 C653 0.950 . S
H631 C655 0.950 . S
H632 C656 0.950 . S
H633 C657 0.951 . S
H634 C659 0.951 . S
H635 C661 0.950 1_655 S
H636 C662 0.950 . S
H637 C664 0.950 . S
H638 C667 0.950 . S
H639 C668 0.949 1_455 S
H640 C670 0.950 . S
H641 C671 0.950 . S
C642 H624 0.951 . S
C642 C643 1.366 . S
C642 C644 1.388 . S
C643 C642 1.366 . S
C643 C647 1.385 . S
C644 H625 0.951 . S
C644 C642 1.388 . S
C644 C645 1.366 . S
C645 C644 1.366 . S
C645 C646 1.414 . S
C645 C648 1.499 . S
C646 H626 0.950 . S
C646 C645 1.414 . S
C646 C647 1.374 . S
C647 H627 0.950 . S
C647 C643 1.385 . S
C647 C646 1.374 . S
C648 C645 1.499 . S
C648 C649 1.373 . S
C648 C650 1.389 . S
C649 H628 0.950 . S
C649 C648 1.373 . S
C649 C665 1.377 . S
C650 C648 1.389 . S
C650 C651 1.524 . S
C650 C664 1.377 . S
C651 C650 1.524 . S
C651 C652 1.397 . S
C651 C656 1.363 . S
C652 H629 0.950 . S
C652 C651 1.397 . S
C652 C653 1.334 . S
C653 H630 0.950 . S
C653 C652 1.334 . S
C653 C654 1.287 . S
C654 C653 1.287 . S
C654 C655 1.524 . S
C654 H673 0.913 . S
C655 H631 0.950 . S
C655 C654 1.524 . S
C655 C656 1.415 . S
C656 H632 0.950 . S
C656 C651 1.363 . S
C656 C655 1.415 . S
C657 H633 0.951 . S
C657 C658 1.366 . S
C657 C659 1.388 . S
C658 C657 1.366 . S
C658 C662 1.385 . S
C659 H634 0.951 . S
C659 C657 1.388 . S
C659 C660 1.366 1_455 S
C660 C659 1.366 1_655 S
C660 C661 1.414 1_655 S
C660 C663 1.499 . S
C661 H635 0.950 1_455 S
C661 C660 1.414 1_455 S
C661 C662 1.374 . S
C662 H636 0.950 . S
C662 C658 1.385 . S
C662 C661 1.374 . S
C663 C660 1.499 . S
C663 C664 1.373 . S
C663 C665 1.389 . S
C664 H637 0.950 . S
C664 C650 1.377 . S
C664 C663 1.373 . S
C665 C649 1.377 . S
C665 C663 1.389 . S
C665 C666 1.524 . S
C666 C665 1.524 . S
C666 C667 1.397 . S
C666 C671 1.363 . S
C667 H638 0.950 . S
C667 C666 1.397 . S
C667 C668 1.334 . S
C668 H639 0.949 1_655 S
C668 C667 1.334 . S
C668 C669 1.287 . S
C669 C668 1.287 . S
C669 C670 1.524 . S
C669 H672 0.999 1_655 S
C670 H640 0.950 . S
C670 C669 1.524 . S
C670 C671 1.415 . S
C671 H641 0.950 . S
C671 C666 1.363 . S
C671 C670 1.415 . S
H672 C669 0.999 1_455 S
H673 C654 0.913 . S
H674 C692 0.951 . S
H675 C694 0.951 . S
H676 C696 0.950 . S
H677 C697 0.950 . S
H678 C699 0.950 . S
H679 C702 0.950 . S
H680 C703 0.950 . S
H681 C705 0.950 . S
H682 C706 0.950 . S
H683 C707 0.951 . S
H684 C709 0.951 . S
H685 C711 0.950 . S
H686 C712 0.950 . S
H687 C714 0.950 . S
H688 C717 0.950 . S
H689 C718 0.950 . S
H690 C720 0.950 . S
H691 C721 0.950 . S
C692 H674 0.951 . S
C692 C693 1.366 . S
C692 C694 1.388 . S
C693 C692 1.366 . S
C693 C697 1.385 . S
C694 H675 0.951 . S
C694 C692 1.388 . S
C694 C695 1.366 . S
C695 C694 1.366 . S
C695 C696 1.414 . S
C695 C698 1.499 . S
C696 H676 0.950 . S
C696 C695 1.414 . S
C696 C697 1.374 . S
C697 H677 0.950 . S
C697 C693 1.385 . S
C697 C696 1.374 . S
C698 C695 1.499 . S
C698 C699 1.373 . S
C698 C700 1.389 . S
C699 H678 0.950 . S
C699 C698 1.373 . S
C699 C715 1.377 . S
C700 C698 1.389 . S
C700 C701 1.524 . S
C700 C714 1.377 . S
C701 C700 1.524 . S
C701 C702 1.397 . S
C701 C706 1.363 . S
C702 H679 0.950 . S
C702 C701 1.397 . S
C702 C703 1.334 . S
C703 H680 0.950 . S
C703 C702 1.334 . S
C703 C704 1.287 . S
C704 C703 1.287 . S
C704 C705 1.524 . S
C704 H723 0.913 . S
C705 H681 0.950 . S
C705 C704 1.524 . S
C705 C706 1.415 . S
C706 H682 0.950 . S
C706 C701 1.363 . S
C706 C705 1.415 . S
C707 H683 0.951 . S
C707 C708 1.366 . S
C707 C709 1.388 . S
C708 C707 1.366 . S
C708 C712 1.385 . S
C709 H684 0.951 . S
C709 C707 1.388 . S
C709 C710 1.366 . S
C710 C709 1.366 . S
C710 C711 1.414 . S
C710 C713 1.499 . S
C711 H685 0.950 . S
C711 C710 1.414 . S
C711 C712 1.374 . S
C712 H686 0.950 . S
C712 C708 1.385 . S
C712 C711 1.374 . S
C713 C710 1.499 . S
C713 C714 1.373 . S
C713 C715 1.389 . S
C714 H687 0.950 . S
C714 C700 1.377 . S
C714 C713 1.373 . S
C715 C699 1.377 . S
C715 C713 1.389 . S
C715 C716 1.524 . S
C716 C715 1.524 . S
C716 C717 1.397 . S
C716 C721 1.363 . S
C717 H688 0.950 . S
C717 C716 1.397 . S
C717 C718 1.334 . S
C718 H689 0.950 . S
C718 C717 1.334 . S
C718 C719 1.287 . S
C719 C718 1.287 . S
C719 C720 1.524 . S
C719 H722 0.999 1_556 S
C720 H690 0.950 . S
C720 C719 1.524 . S
C720 C721 1.415 . S
C721 H691 0.950 . S
C721 C716 1.363 . S
C721 C720 1.415 . S
H722 C719 0.999 1_554 S
H723 C704 0.913 . S
H724 C742 0.951 . S
H725 C744 0.946 1_565 S
H726 C746 0.950 . S
H727 C747 0.950 . S
H728 C749 0.950 . S
H729 C752 0.950 . S
H730 C753 0.950 . S
H731 C755 0.950 . S
H732 C756 0.950 1_565 S
H733 C757 0.951 . S
H734 C759 0.951 . S
H735 C761 0.950 . S
H736 C762 0.950 . S
H737 C764 0.950 . S
H738 C767 0.950 1_455 S
H739 C768 0.950 . S
H740 C770 0.950 . S
H741 C771 0.950 . S
C742 H724 0.951 . S
C742 C743 1.366 . S
C742 C744 1.388 . S
C743 C742 1.366 . S
C743 C747 1.385 . S
C744 H725 0.946 1_545 S
C744 C742 1.388 . S
C744 C745 1.366 . S
C745 C744 1.366 . S
C745 C746 1.414 . S
C745 C748 1.499 1_545 S
C746 H726 0.950 . S
C746 C745 1.414 . S
C746 C747 1.374 . S
C747 H727 0.950 . S
C747 C743 1.385 . S
C747 C746 1.374 . S
C748 C745 1.499 1_565 S
C748 C749 1.373 . S
C748 C750 1.389 . S
C749 H728 0.950 . S
C749 C748 1.373 . S
C749 C765 1.377 . S
C750 C748 1.389 . S
C750 C751 1.524 1_565 S
C750 C764 1.377 . S
C751 C750 1.524 1_545 S
C751 C752 1.397 . S
C751 C756 1.363 . S
C752 H729 0.950 . S
C752 C751 1.397 . S
C752 C753 1.334 . S
C753 H730 0.950 . S
C753 C752 1.334 . S
C753 C754 1.287 . S
C754 C753 1.287 . S
C754 C755 1.524 . S
C754 H773 0.913 . S
C755 H731 0.950 . S
C755 C754 1.524 . S
C755 C756 1.415 . S
C756 H732 0.950 1_545 S
C756 C751 1.363 . S
C756 C755 1.415 . S
C757 H733 0.951 . S
C757 C758 1.366 . S
C757 C759 1.388 . S
C758 C757 1.366 . S
C758 C762 1.385 . S
C759 H734 0.951 . S
C759 C757 1.388 . S
C759 C760 1.366 . S
C760 C759 1.366 . S
C760 C761 1.414 1_655 S
C760 C763 1.499 1_655 S
C761 H735 0.950 . S
C761 C760 1.414 1_455 S
C761 C762 1.374 1_455 S
C762 H736 0.950 . S
C762 C758 1.385 . S
C762 C761 1.374 1_655 S
C763 C760 1.499 1_455 S
C763 C764 1.373 . S
C763 C765 1.389 . S
C764 H737 0.950 . S
C764 C750 1.377 . S
C764 C763 1.373 . S
C765 C749 1.377 . S
C765 C763 1.389 . S
C765 C766 1.524 1_455 S
C766 C765 1.524 1_655 S
C766 C767 1.397 . S
C766 C771 1.363 . S
C767 H738 0.950 1_655 S
C767 C766 1.397 . S
C767 C768 1.334 . S
C768 H739 0.950 . S
C768 C767 1.334 . S
C768 C769 1.287 . S
C769 C768 1.287 . S
C769 C770 1.524 . S
C769 H772 0.999 . S
C770 H740 0.950 . S
C770 C769 1.524 . S
C770 C771 1.415 . S
C771 H741 0.950 . S
C771 C766 1.363 . S
C771 C770 1.415 . S
H772 C769 0.999 . S
H773 C754 0.913 . S
H774 C792 0.951 . S
H775 C794 0.951 . S
H776 C796 0.950 . S
H777 C797 0.950 . S
H778 C799 0.950 . S
H779 C802 0.950 . S
H780 C803 0.950 . S
H781 C805 0.950 . S
H782 C806 0.950 . S
H783 C807 0.951 . S
H784 C809 0.951 . S
H785 C811 0.950 . S
H786 C812 0.950 . S
H787 C814 0.950 . S
H788 C817 0.950 . S
H789 C818 0.950 . S
H790 C820 0.950 . S
H791 C821 0.950 . S
C792 H774 0.951 . S
C792 C793 1.366 . S
C792 C794 1.388 . S
C793 C792 1.366 . S
C793 C797 1.385 . S
C794 H775 0.951 . S
C794 C792 1.388 . S
C794 C795 1.366 . S
C795 C794 1.366 . S
C795 C796 1.414 . S
C795 C798 1.499 . S
C796 H776 0.950 . S
C796 C795 1.414 . S
C796 C797 1.374 . S
C797 H777 0.950 . S
C797 C793 1.385 . S
C797 C796 1.374 . S
C798 C795 1.499 . S
C798 C799 1.373 . S
C798 C800 1.389 . S
C799 H778 0.950 . S
C799 C798 1.373 . S
C799 C815 1.377 . S
C800 C798 1.389 . S
C800 C801 1.524 . S
C800 C814 1.377 . S
C801 C800 1.524 . S
C801 C802 1.397 . S
C801 C806 1.363 . S
C802 H779 0.950 . S
C802 C801 1.397 . S
C802 C803 1.334 . S
C803 H780 0.950 . S
C803 C802 1.334 . S
C803 C804 1.287 . S
C804 C803 1.287 . S
C804 C805 1.524 . S
C804 H823 0.913 . S
C805 H781 0.950 . S
C805 C804 1.524 . S
C805 C806 1.415 . S
C806 H782 0.950 . S
C806 C801 1.363 . S
C806 C805 1.415 . S
C807 H783 0.951 . S
C807 C808 1.366 . S
C807 C809 1.388 . S
C808 C807 1.366 . S
C808 C812 1.385 . S
C809 H784 0.951 . S
C809 C807 1.388 . S
C809 C810 1.366 . S
C810 C809 1.366 . S
C810 C811 1.414 . S
C810 C813 1.499 . S
C811 H785 0.950 . S
C811 C810 1.414 . S
C811 C812 1.374 . S
C812 H786 0.950 . S
C812 C808 1.385 . S
C812 C811 1.374 . S
C813 C810 1.499 . S
C813 C814 1.373 . S
C813 C815 1.389 . S
C814 H787 0.950 . S
C814 C800 1.377 . S
C814 C813 1.373 . S
C815 C799 1.377 . S
C815 C813 1.389 . S
C815 C816 1.524 . S
C816 C815 1.524 . S
C816 C817 1.397 . S
C816 C821 1.363 . S
C817 H788 0.950 . S
C817 C816 1.397 . S
C817 C818 1.334 . S
C818 H789 0.950 . S
C818 C817 1.334 . S
C818 C819 1.287 . S
C819 C818 1.287 . S
C819 C820 1.524 . S
C819 H822 0.999 . S
C820 H790 0.950 . S
C820 C819 1.524 . S
C820 C821 1.415 . S
C821 H791 0.950 . S
C821 C816 1.363 . S
C821 C820 1.415 . S
H822 C819 0.999 . S
H823 C804 0.913 . S
H824 C842 0.951 . S
H825 C844 0.951 . S
H826 C846 0.950 . S
H827 C847 0.950 . S
H828 C849 0.950 . S
H829 C852 0.950 . S
H830 C853 0.950 . S
H831 C855 0.950 . S
H832 C856 0.950 1_655 S
H833 C857 0.951 . S
H834 C859 0.951 . S
H835 C861 0.929 1_545 S
H836 C862 0.950 . S
H837 C864 0.950 . S
H838 C867 0.950 1_545 S
H839 C868 0.950 . S
H840 C870 0.950 . S
H841 C871 0.950 . S
C842 H824 0.951 . S
C842 C843 1.366 . S
C842 C844 1.388 . S
C843 C842 1.366 . S
C843 C847 1.385 . S
C844 H825 0.951 . S
C844 C842 1.388 . S
C844 C845 1.366 . S
C845 C844 1.366 . S
C845 C846 1.414 . S
C845 C848 1.499 1_455 S
C846 H826 0.950 . S
C846 C845 1.414 . S
C846 C847 1.374 . S
C847 H827 0.950 . S
C847 C843 1.385 . S
C847 C846 1.374 . S
C848 C845 1.499 1_655 S
C848 C849 1.373 . S
C848 C850 1.389 . S
C849 H828 0.950 . S
C849 C848 1.373 . S
C849 C865 1.377 . S
C850 C848 1.389 . S
C850 C851 1.524 1_655 S
C850 C864 1.377 . S
C851 C850 1.524 1_455 S
C851 C852 1.397 . S
C851 C856 1.363 . S
C852 H829 0.950 . S
C852 C851 1.397 . S
C852 C853 1.334 . S
C853 H830 0.950 . S
C853 C852 1.334 . S
C853 C854 1.287 . S
C854 C853 1.287 . S
C854 C855 1.524 . S
C854 H873 0.913 . S
C855 H831 0.950 . S
C855 C854 1.524 . S
C855 C856 1.415 . S
C856 H832 0.950 1_455 S
C856 C851 1.363 . S
C856 C855 1.415 . S
C857 H833 0.951 . S
C857 C858 1.366 . S
C857 C859 1.388 . S
C858 C857 1.366 . S
C858 C862 1.385 . S
C859 H834 0.951 . S
C859 C857 1.388 . S
C859 C860 1.366 . S
C860 C859 1.366 . S
C860 C861 1.422 . S
C860 C863 1.499 1_565 S
C861 H835 0.929 1_565 S
C861 C860 1.422 . S
C861 C862 1.387 . S
C862 H836 0.950 . S
C862 C858 1.385 . S
C862 C861 1.387 . S
C863 C860 1.499 1_545 S
C863 C864 1.373 . S
C863 C865 1.389 . S
C864 H837 0.950 . S
C864 C850 1.377 . S
C864 C863 1.373 . S
C865 C849 1.377 . S
C865 C863 1.389 . S
C865 C866 1.524 1_545 S
C866 C865 1.524 1_565 S
C866 C867 1.397 . S
C866 C871 1.363 . S
C867 H838 0.950 1_565 S
C867 C866 1.397 . S
C867 C868 1.334 . S
C868 H839 0.950 . S
C868 C867 1.334 . S
C868 C869 1.287 . S
C869 C868 1.287 . S
C869 C870 1.524 . S
C869 H872 0.999 . S
C870 H840 0.950 . S
C870 C869 1.524 . S
C870 C871 1.415 . S
C871 H841 0.950 . S
C871 C866 1.363 . S
C871 C870 1.415 . S
H872 C869 0.999 . S
H873 C854 0.913 . S
H874 C892 0.951 . S
H875 C894 0.951 . S
H876 C896 0.950 . S
H877 C897 0.950 . S
H878 C899 0.950 . S
H879 C902 0.950 . S
H880 C903 0.950 . S
H881 C905 0.950 . S
H882 C906 0.950 . S
H883 C907 0.951 . S
H884 C909 0.951 . S
H885 C911 0.950 . S
H886 C912 0.950 . S
H887 C914 0.950 . S
H888 C917 0.950 . S
H889 C918 0.950 . S
H890 C920 0.950 . S
H891 C921 0.950 . S
C892 H874 0.951 . S
C892 C893 1.366 . S
C892 C894 1.388 . S
C893 C892 1.366 . S
C893 C897 1.385 . S
C894 H875 0.951 . S
C894 C892 1.388 . S
C894 C895 1.366 . S
C895 C894 1.366 . S
C895 C896 1.414 . S
C895 C898 1.499 . S
C896 H876 0.950 . S
C896 C895 1.414 . S
C896 C897 1.374 . S
C897 H877 0.950 . S
C897 C893 1.385 . S
C897 C896 1.374 . S
C898 C895 1.499 . S
C898 C899 1.373 1_554 S
C898 C900 1.389 . S
C899 H878 0.950 . S
C899 C898 1.373 1_556 S
C899 C915 1.377 . S
C900 C898 1.389 . S
C900 C901 1.524 . S
C900 C914 1.377 . S
C901 C900 1.524 . S
C901 C902 1.397 . S
C901 C906 1.363 . S
C902 H879 0.950 . S
C902 C901 1.397 . S
C902 C903 1.334 . S
C903 H880 0.950 . S
C903 C902 1.334 . S
C903 C904 1.287 . S
C904 C903 1.287 . S
C904 C905 1.524 . S
C904 H923 0.913 . S
C905 H881 0.950 . S
C905 C904 1.524 . S
C905 C906 1.415 . S
C906 H882 0.950 . S
C906 C901 1.363 . S
C906 C905 1.415 . S
C907 H883 0.951 . S
C907 C908 1.366 . S
C907 C909 1.388 . S
C908 C907 1.366 . S
C908 C912 1.385 . S
C909 H884 0.951 . S
C909 C907 1.388 . S
C909 C910 1.366 . S
C910 C909 1.366 . S
C910 C911 1.414 . S
C910 C913 1.499 . S
C911 H885 0.950 . S
C911 C910 1.414 . S
C911 C912 1.374 . S
C912 H886 0.950 . S
C912 C908 1.385 . S
C912 C911 1.374 . S
C913 C910 1.499 . S
C913 C914 1.373 1_556 S
C913 C915 1.389 . S
C914 H887 0.950 . S
C914 C900 1.377 . S
C914 C913 1.373 1_554 S
C915 C899 1.377 . S
C915 C913 1.389 . S
C915 C916 1.524 . S
C916 C915 1.524 . S
C916 C917 1.397 . S
C916 C921 1.363 . S
C917 H888 0.950 . S
C917 C916 1.397 . S
C917 C918 1.334 . S
C918 H889 0.950 . S
C918 C917 1.334 . S
C918 C919 1.287 . S
C919 C918 1.287 . S
C919 C920 1.524 . S
C919 H922 0.999 . S
C920 H890 0.950 . S
C920 C919 1.524 . S
C920 C921 1.415 . S
C921 H891 0.950 . S
C921 C916 1.363 . S
C921 C920 1.415 . S
H922 C919 0.999 . S
H923 C904 0.913 . S
C143 C19 1.168 . S
C158 C30 1.184 . S
C193 C50 1.167 . S
C208 C61 1.183 . S
C243 C72 1.183 . S
C258 C62 1.168 . S
C293 C103 1.183 . S
C308 C93 1.167 . S
C343 C123 1.488 . S
C358 C1 1.617 . S
C393 C32 1.738 . S
C408 C0 1.708 . S
C443 C91 1.964 . S
C458 C31 1.939 . S
C493 C122 1.840 . S
C508 C92 1.704 . S
C543 C10 1.487 . S
C558 C113 1.617 . S
C593 C41 1.704 . S
C608 C2 1.839 . S
C643 C33 1.964 . S
C658 C81 1.939 . S
C693 C82 1.739 . S
C708 C112 1.707 . S
C743 C63 0.471 . S
C758 C20 0.476 . S
C793 C51 0.472 . S
C808 C94 0.478 . S
C843 C64 0.480 . S
C858 C29 0.484 . S
C893 C60 0.482 . S
C908 C95 0.485 . S
