# Generated by pormake.
# Topology wna, (6)-cn, num edge types: 1
# Building blocks:
#     Node 0, Type 0, BuildingBlock: BETDEL_clean_sbu_0, # of connection points: 6
#     Node 1, Type 0, BuildingBlock: BETDEL_clean_sbu_0, # of connection points: 6
#     Node 2, Type 0, BuildingBlock: BETDEL_clean_sbu_0, # of connection points: 6
#     Node 3, Type 0, BuildingBlock: BETDEL_clean_sbu_0, # of connection points: 6
#     Node 4, Type 0, BuildingBlock: BETDEL_clean_sbu_0, # of connection points: 6
#     Node 5, Type 0, BuildingBlock: BETDEL_clean_sbu_0, # of connection points: 6
#     Node 6, Type 0, BuildingBlock: BETDEL_clean_sbu_0, # of connection points: 6
#     Node 7, Type 0, BuildingBlock: BETDEL_clean_sbu_0, # of connection points: 6
#     Node 8, Type 0, BuildingBlock: BETDEL_clean_sbu_0, # of connection points: 6
#     Node 9, Type 0, BuildingBlock: BETDEL_clean_sbu_0, # of connection points: 6
#     Node 10, Type 0, BuildingBlock: BETDEL_clean_sbu_0, # of connection points: 6
#     Node 11, Type 0, BuildingBlock: BETDEL_clean_sbu_0, # of connection points: 6
#     Node 12, Type 0, BuildingBlock: BETDEL_clean_sbu_0, # of connection points: 6
#     Node 13, Type 0, BuildingBlock: BETDEL_clean_sbu_0, # of connection points: 6
#     Node 14, Type 0, BuildingBlock: BETDEL_clean_sbu_0, # of connection points: 6
#     Node 15, Type 0, BuildingBlock: BETDEL_clean_sbu_0, # of connection points: 6
#     Node 16, Type 0, BuildingBlock: BETDEL_clean_sbu_0, # of connection points: 6
#     Node 17, Type 0, BuildingBlock: BETDEL_clean_sbu_0, # of connection points: 6
#     Node 18, Type 0, BuildingBlock: BETDEL_clean_sbu_0, # of connection points: 6
#     Node 19, Type 0, BuildingBlock: BETDEL_clean_sbu_0, # of connection points: 6
#     Node 20, Type 0, BuildingBlock: BETDEL_clean_sbu_0, # of connection points: 6
#     Node 21, Type 0, BuildingBlock: BETDEL_clean_sbu_0, # of connection points: 6
#     Node 22, Type 0, BuildingBlock: BETDEL_clean_sbu_0, # of connection points: 6
#     Node 23, Type 0, BuildingBlock: BETDEL_clean_sbu_0, # of connection points: 6
#     Node 24, Type 0, BuildingBlock: BETDEL_clean_sbu_0, # of connection points: 6
#     Node 25, Type 0, BuildingBlock: BETDEL_clean_sbu_0, # of connection points: 6
#     Node 26, Type 0, BuildingBlock: BETDEL_clean_sbu_0, # of connection points: 6
#     Node 27, Type 0, BuildingBlock: BETDEL_clean_sbu_0, # of connection points: 6
#     Node 28, Type 0, BuildingBlock: BETDEL_clean_sbu_0, # of connection points: 6
#     Node 29, Type 0, BuildingBlock: BETDEL_clean_sbu_0, # of connection points: 6
#     Node 30, Type 0, BuildingBlock: BETDEL_clean_sbu_0, # of connection points: 6
#     Node 31, Type 0, BuildingBlock: BETDEL_clean_sbu_0, # of connection points: 6
#     Node 32, Type 0, BuildingBlock: BETDEL_clean_sbu_0, # of connection points: 6
#     Node 33, Type 0, BuildingBlock: BETDEL_clean_sbu_0, # of connection points: 6
#     Node 34, Type 0, BuildingBlock: BETDEL_clean_sbu_0, # of connection points: 6
#     Node 35, Type 0, BuildingBlock: BETDEL_clean_sbu_0, # of connection points: 6
#     Edge 36, Type (0, 0), BuildingBlock: KIFKEQ_clean_linker_1, # of connection points: 2
#     Edge 37, Type (0, 0), BuildingBlock: KIFKEQ_clean_linker_1, # of connection points: 2
#     Edge 38, Type (0, 0), BuildingBlock: KIFKEQ_clean_linker_1, # of connection points: 2
#     Edge 39, Type (0, 0), BuildingBlock: KIFKEQ_clean_linker_1, # of connection points: 2
#     Edge 40, Type (0, 0), BuildingBlock: KIFKEQ_clean_linker_1, # of connection points: 2
#     Edge 41, Type (0, 0), BuildingBlock: KIFKEQ_clean_linker_1, # of connection points: 2
#     Edge 42, Type (0, 0), BuildingBlock: KIFKEQ_clean_linker_1, # of connection points: 2
#     Edge 43, Type (0, 0), BuildingBlock: KIFKEQ_clean_linker_1, # of connection points: 2
#     Edge 44, Type (0, 0), BuildingBlock: KIFKEQ_clean_linker_1, # of connection points: 2
#     Edge 45, Type (0, 0), BuildingBlock: KIFKEQ_clean_linker_1, # of connection points: 2
#     Edge 46, Type (0, 0), BuildingBlock: KIFKEQ_clean_linker_1, # of connection points: 2
#     Edge 47, Type (0, 0), BuildingBlock: KIFKEQ_clean_linker_1, # of connection points: 2
#     Edge 48, Type (0, 0), BuildingBlock: KIFKEQ_clean_linker_1, # of connection points: 2
#     Edge 49, Type (0, 0), BuildingBlock: KIFKEQ_clean_linker_1, # of connection points: 2
#     Edge 50, Type (0, 0), BuildingBlock: KIFKEQ_clean_linker_1, # of connection points: 2
#     Edge 51, Type (0, 0), BuildingBlock: KIFKEQ_clean_linker_1, # of connection points: 2
#     Edge 52, Type (0, 0), BuildingBlock: KIFKEQ_clean_linker_1, # of connection points: 2
#     Edge 53, Type (0, 0), BuildingBlock: KIFKEQ_clean_linker_1, # of connection points: 2
#     Edge 54, Type (0, 0), BuildingBlock: KIFKEQ_clean_linker_1, # of connection points: 2
#     Edge 55, Type (0, 0), BuildingBlock: KIFKEQ_clean_linker_1, # of connection points: 2
#     Edge 56, Type (0, 0), BuildingBlock: KIFKEQ_clean_linker_1, # of connection points: 2
#     Edge 57, Type (0, 0), BuildingBlock: KIFKEQ_clean_linker_1, # of connection points: 2
#     Edge 58, Type (0, 0), BuildingBlock: KIFKEQ_clean_linker_1, # of connection points: 2
#     Edge 59, Type (0, 0), BuildingBlock: KIFKEQ_clean_linker_1, # of connection points: 2
#     Edge 60, Type (0, 0), BuildingBlock: KIFKEQ_clean_linker_1, # of connection points: 2
#     Edge 61, Type (0, 0), BuildingBlock: KIFKEQ_clean_linker_1, # of connection points: 2
#     Edge 62, Type (0, 0), BuildingBlock: KIFKEQ_clean_linker_1, # of connection points: 2
#     Edge 63, Type (0, 0), BuildingBlock: KIFKEQ_clean_linker_1, # of connection points: 2
#     Edge 64, Type (0, 0), BuildingBlock: KIFKEQ_clean_linker_1, # of connection points: 2
#     Edge 65, Type (0, 0), BuildingBlock: KIFKEQ_clean_linker_1, # of connection points: 2
#     Edge 66, Type (0, 0), BuildingBlock: KIFKEQ_clean_linker_1, # of connection points: 2
#     Edge 67, Type (0, 0), BuildingBlock: KIFKEQ_clean_linker_1, # of connection points: 2
#     Edge 68, Type (0, 0), BuildingBlock: KIFKEQ_clean_linker_1, # of connection points: 2
#     Edge 69, Type (0, 0), BuildingBlock: KIFKEQ_clean_linker_1, # of connection points: 2
#     Edge 70, Type (0, 0), BuildingBlock: KIFKEQ_clean_linker_1, # of connection points: 2
#     Edge 71, Type (0, 0), BuildingBlock: KIFKEQ_clean_linker_1, # of connection points: 2
#     Edge 72, Type (0, 0), BuildingBlock: KIFKEQ_clean_linker_1, # of connection points: 2
#     Edge 73, Type (0, 0), BuildingBlock: KIFKEQ_clean_linker_1, # of connection points: 2
#     Edge 74, Type (0, 0), BuildingBlock: KIFKEQ_clean_linker_1, # of connection points: 2
#     Edge 75, Type (0, 0), BuildingBlock: KIFKEQ_clean_linker_1, # of connection points: 2
#     Edge 76, Type (0, 0), BuildingBlock: KIFKEQ_clean_linker_1, # of connection points: 2
#     Edge 77, Type (0, 0), BuildingBlock: KIFKEQ_clean_linker_1, # of connection points: 2
#     Edge 78, Type (0, 0), BuildingBlock: KIFKEQ_clean_linker_1, # of connection points: 2
#     Edge 79, Type (0, 0), BuildingBlock: KIFKEQ_clean_linker_1, # of connection points: 2
#     Edge 80, Type (0, 0), BuildingBlock: KIFKEQ_clean_linker_1, # of connection points: 2
#     Edge 81, Type (0, 0), BuildingBlock: KIFKEQ_clean_linker_1, # of connection points: 2
#     Edge 82, Type (0, 0), BuildingBlock: KIFKEQ_clean_linker_1, # of connection points: 2
#     Edge 83, Type (0, 0), BuildingBlock: KIFKEQ_clean_linker_1, # of connection points: 2
#     Edge 84, Type (0, 0), BuildingBlock: KIFKEQ_clean_linker_1, # of connection points: 2
#     Edge 85, Type (0, 0), BuildingBlock: KIFKEQ_clean_linker_1, # of connection points: 2
#     Edge 86, Type (0, 0), BuildingBlock: KIFKEQ_clean_linker_1, # of connection points: 2
#     Edge 87, Type (0, 0), BuildingBlock: KIFKEQ_clean_linker_1, # of connection points: 2
#     Edge 88, Type (0, 0), BuildingBlock: KIFKEQ_clean_linker_1, # of connection points: 2
#     Edge 89, Type (0, 0), BuildingBlock: KIFKEQ_clean_linker_1, # of connection points: 2
#     Edge 90, Type (0, 0), BuildingBlock: KIFKEQ_clean_linker_1, # of connection points: 2
#     Edge 91, Type (0, 0), BuildingBlock: KIFKEQ_clean_linker_1, # of connection points: 2
#     Edge 92, Type (0, 0), BuildingBlock: KIFKEQ_clean_linker_1, # of connection points: 2
#     Edge 93, Type (0, 0), BuildingBlock: KIFKEQ_clean_linker_1, # of connection points: 2
#     Edge 94, Type (0, 0), BuildingBlock: KIFKEQ_clean_linker_1, # of connection points: 2
#     Edge 95, Type (0, 0), BuildingBlock: KIFKEQ_clean_linker_1, # of connection points: 2
#     Edge 96, Type (0, 0), BuildingBlock: KIFKEQ_clean_linker_1, # of connection points: 2
#     Edge 97, Type (0, 0), BuildingBlock: KIFKEQ_clean_linker_1, # of connection points: 2
#     Edge 98, Type (0, 0), BuildingBlock: KIFKEQ_clean_linker_1, # of connection points: 2
#     Edge 99, Type (0, 0), BuildingBlock: KIFKEQ_clean_linker_1, # of connection points: 2
#     Edge 100, Type (0, 0), BuildingBlock: KIFKEQ_clean_linker_1, # of connection points: 2
#     Edge 101, Type (0, 0), BuildingBlock: KIFKEQ_clean_linker_1, # of connection points: 2
#     Edge 102, Type (0, 0), BuildingBlock: KIFKEQ_clean_linker_1, # of connection points: 2
#     Edge 103, Type (0, 0), BuildingBlock: KIFKEQ_clean_linker_1, # of connection points: 2
#     Edge 104, Type (0, 0), BuildingBlock: KIFKEQ_clean_linker_1, # of connection points: 2
#     Edge 105, Type (0, 0), BuildingBlock: KIFKEQ_clean_linker_1, # of connection points: 2
#     Edge 106, Type (0, 0), BuildingBlock: KIFKEQ_clean_linker_1, # of connection points: 2
#     Edge 107, Type (0, 0), BuildingBlock: KIFKEQ_clean_linker_1, # of connection points: 2
#     Edge 108, Type (0, 0), BuildingBlock: KIFKEQ_clean_linker_1, # of connection points: 2
#     Edge 109, Type (0, 0), BuildingBlock: KIFKEQ_clean_linker_1, # of connection points: 2
#     Edge 110, Type (0, 0), BuildingBlock: KIFKEQ_clean_linker_1, # of connection points: 2
#     Edge 111, Type (0, 0), BuildingBlock: KIFKEQ_clean_linker_1, # of connection points: 2
#     Edge 112, Type (0, 0), BuildingBlock: KIFKEQ_clean_linker_1, # of connection points: 2
#     Edge 113, Type (0, 0), BuildingBlock: KIFKEQ_clean_linker_1, # of connection points: 2
#     Edge 114, Type (0, 0), BuildingBlock: KIFKEQ_clean_linker_1, # of connection points: 2
#     Edge 115, Type (0, 0), BuildingBlock: KIFKEQ_clean_linker_1, # of connection points: 2
#     Edge 116, Type (0, 0), BuildingBlock: KIFKEQ_clean_linker_1, # of connection points: 2
#     Edge 117, Type (0, 0), BuildingBlock: KIFKEQ_clean_linker_1, # of connection points: 2
#     Edge 118, Type (0, 0), BuildingBlock: KIFKEQ_clean_linker_1, # of connection points: 2
#     Edge 119, Type (0, 0), BuildingBlock: KIFKEQ_clean_linker_1, # of connection points: 2
#     Edge 120, Type (0, 0), BuildingBlock: KIFKEQ_clean_linker_1, # of connection points: 2
#     Edge 121, Type (0, 0), BuildingBlock: KIFKEQ_clean_linker_1, # of connection points: 2
#     Edge 122, Type (0, 0), BuildingBlock: KIFKEQ_clean_linker_1, # of connection points: 2
#     Edge 123, Type (0, 0), BuildingBlock: KIFKEQ_clean_linker_1, # of connection points: 2
#     Edge 124, Type (0, 0), BuildingBlock: KIFKEQ_clean_linker_1, # of connection points: 2
#     Edge 125, Type (0, 0), BuildingBlock: KIFKEQ_clean_linker_1, # of connection points: 2
#     Edge 126, Type (0, 0), BuildingBlock: KIFKEQ_clean_linker_1, # of connection points: 2
#     Edge 127, Type (0, 0), BuildingBlock: KIFKEQ_clean_linker_1, # of connection points: 2
#     Edge 128, Type (0, 0), BuildingBlock: KIFKEQ_clean_linker_1, # of connection points: 2
#     Edge 129, Type (0, 0), BuildingBlock: KIFKEQ_clean_linker_1, # of connection points: 2
#     Edge 130, Type (0, 0), BuildingBlock: KIFKEQ_clean_linker_1, # of connection points: 2
#     Edge 131, Type (0, 0), BuildingBlock: KIFKEQ_clean_linker_1, # of connection points: 2
#     Edge 132, Type (0, 0), BuildingBlock: KIFKEQ_clean_linker_1, # of connection points: 2
#     Edge 133, Type (0, 0), BuildingBlock: KIFKEQ_clean_linker_1, # of connection points: 2
#     Edge 134, Type (0, 0), BuildingBlock: KIFKEQ_clean_linker_1, # of connection points: 2
#     Edge 135, Type (0, 0), BuildingBlock: KIFKEQ_clean_linker_1, # of connection points: 2
#     Edge 136, Type (0, 0), BuildingBlock: KIFKEQ_clean_linker_1, # of connection points: 2
#     Edge 137, Type (0, 0), BuildingBlock: KIFKEQ_clean_linker_1, # of connection points: 2
#     Edge 138, Type (0, 0), BuildingBlock: KIFKEQ_clean_linker_1, # of connection points: 2
#     Edge 139, Type (0, 0), BuildingBlock: KIFKEQ_clean_linker_1, # of connection points: 2
#     Edge 140, Type (0, 0), BuildingBlock: KIFKEQ_clean_linker_1, # of connection points: 2
#     Edge 141, Type (0, 0), BuildingBlock: KIFKEQ_clean_linker_1, # of connection points: 2
#     Edge 142, Type (0, 0), BuildingBlock: KIFKEQ_clean_linker_1, # of connection points: 2
#     Edge 143, Type (0, 0), BuildingBlock: KIFKEQ_clean_linker_1, # of connection points: 2
# Relax obj value: 0.168
# Max RMSD: 0.207
# Mean RMSD: 0.200
data_MOF--net-wna--node1-BETDEL_clean_sbu_0--edge1-KIFKEQ_clean_linker_1
_symmetry_space_group_name_H-M    P1
_symmetry_Int_Tables_number       1
_symmetry_cell_setting            triclinic
loop_
_symmetry_equiv_pos_as_xyz
'x, y, z'
_cell_length_a     40.438514
_cell_length_b     40.464072
_cell_length_c     103.90187
_cell_angle_alpha  90.009596
_cell_angle_beta   90.056984
_cell_angle_gamma 119.9987
loop_
_atom_site_label
_atom_site_type_symbol
_atom_site_fract_x
_atom_site_fract_y
_atom_site_fract_z
_atom_type_partial_charge
Dy0 Dy 0.08928 0.25188 0.16417 0.0
C1 C 0.05648 0.20689 0.21654 0.0
C2 C 0.1011 0.28387 0.14014 0.0
Dy3 Dy 0.08154 0.23667 0.19249 0.0
O4 O 0.12475 0.27682 0.14632 0.0
O5 O 0.07079 0.27346 0.14708 0.0
O6 O 0.08504 0.19627 0.15938 0.0
O7 O 0.10979 0.22264 0.177 0.0
C8 C 0.09891 0.19289 0.17026 0.0
C9 C 0.07464 0.29699 0.18536 0.0
O10 O 0.14471 0.26826 0.19152 0.0
O11 O 0.14516 0.2985 0.17258 0.0
O12 O 0.09215 0.22481 0.213 0.0
O13 O 0.03522 0.20536 0.20699 0.0
O14 O 0.08943 0.29481 0.19616 0.0
O15 O 0.06154 0.2658 0.17942 0.0
O16 O 0.02787 0.20485 0.16465 0.0
O17 O 0.03311 0.18335 0.18473 0.0
C18 C 0.16314 0.29507 0.18278 0.0
C19 C 0.01391 0.17927 0.17404 0.0
Dy20 Dy 0.75523 0.83521 0.16435 0.0
C21 C 0.79345 0.85708 0.21795 0.0
C22 C 0.72439 0.8127 0.14021 0.0
Dy23 Dy 0.76862 0.84598 0.19286 0.0
O24 O 0.75521 0.84439 0.14297 0.0
O25 O 0.71027 0.79304 0.15067 0.0
O26 O 0.81261 0.88454 0.16021 0.0
O27 O 0.7834 0.88619 0.17675 0.0
C28 C 0.8144 0.90348 0.17052 0.0
C29 C 0.71095 0.77722 0.18568 0.0
O30 O 0.73919 0.87961 0.1902 0.0
O31 O 0.71122 0.8508 0.17086 0.0
O32 O 0.75812 0.83959 0.21421 0.0
O33 O 0.81549 0.87003 0.20793 0.0
O34 O 0.71068 0.79491 0.196 0.0
O35 O 0.74276 0.79578 0.18017 0.0
O36 O 0.79737 0.81485 0.166 0.0
O37 O 0.8168 0.83747 0.18677 0.0
C38 C 0.71358 0.87187 0.18101 0.0
C39 C 0.82113 0.82325 0.17586 0.0
Dy40 Dy 0.16755 0.91857 0.16468 0.0
C41 C 0.14883 0.93573 0.21863 0.0
C42 C 0.1913 0.91118 0.1406 0.0
Dy43 Dy 0.15821 0.9216 0.1934 0.0
O44 O 0.16429 0.91872 0.14299 0.0
O45 O 0.20556 0.90776 0.15139 0.0
O46 O 0.11502 0.921 0.16037 0.0
O47 O 0.11742 0.89496 0.1775 0.0
C48 C 0.09802 0.90604 0.17117 0.0
C49 C 0.22696 0.93391 0.18567 0.0
O50 O 0.12527 0.85847 0.19094 0.0
O51 O 0.15168 0.85869 0.17113 0.0
O52 O 0.16696 0.91878 0.21469 0.0
O53 O 0.13428 0.94367 0.20876 0.0
O54 O 0.21028 0.9162 0.19613 0.0
O55 O 0.20757 0.94649 0.1803 0.0
O56 O 0.18758 0.98117 0.16665 0.0
O57 O 0.1638 0.97681 0.18725 0.0
C58 C 0.13198 0.84035 0.18157 0.0
C59 C 0.17811 0.99584 0.17645 0.0
Dy60 Dy 0.24983 0.08342 0.35925 0.0
C61 C 0.21452 0.0639 0.30533 0.0
C62 C 0.27783 0.09444 0.38393 0.0
Dy63 Dy 0.23846 0.07912 0.33052 0.0
O64 O 0.25822 0.10885 0.37911 0.0
O65 O 0.28226 0.07387 0.37525 0.0
O66 O 0.19126 0.07329 0.36256 0.0
O67 O 0.22134 0.10411 0.34613 0.0
C68 C 0.18977 0.08987 0.35205 0.0
C69 C 0.29756 0.07144 0.33859 0.0
O70 O 0.26588 0.1419 0.33304 0.0
O71 O 0.29528 0.14172 0.3521 0.0
O72 O 0.24971 0.08094 0.30923 0.0
O73 O 0.19223 0.0564 0.31522 0.0
O74 O 0.29748 0.08813 0.32799 0.0
O75 O 0.26531 0.05738 0.34389 0.0
O76 O 0.206 0.02116 0.35808 0.0
O77 O 0.19125 0.02203 0.33652 0.0
C78 C 0.29181 0.16019 0.34208 0.0
C79 C 0.18459 0.00462 0.34778 0.0
Dy80 Dy 0.91734 0.16462 0.35905 0.0
C81 C 0.94831 0.16007 0.30588 0.0
C82 C 0.90723 0.18388 0.38342 0.0
Dy83 Dy 0.92328 0.15914 0.33041 0.0
O84 O 0.89132 0.14953 0.3788 0.0
O85 O 0.92887 0.20804 0.37469 0.0
O86 O 0.92309 0.11382 0.36285 0.0
O87 O 0.89647 0.11601 0.34569 0.0
C88 C 0.90822 0.097 0.35198 0.0
C89 C 0.92902 0.22443 0.33893 0.0
O90 O 0.86006 0.1295 0.3313 0.0
O91 O 0.85965 0.15302 0.35166 0.0
O92 O 0.96434 0.18727 0.31424 0.0
O93 O 0.91756 0.1317 0.31081 0.0
O94 O 0.91129 0.20738 0.32845 0.0
O95 O 0.94394 0.20673 0.344 0.0
O96 O 0.979 0.18045 0.35802 0.0
O97 O 0.97341 0.15584 0.33752 0.0
C98 C 0.8418 0.13494 0.34091 0.0
C99 C 0.99286 0.17 0.34826 0.0
Dy100 Dy 0.83913 0.75348 0.35786 0.0
C101 C 0.85555 0.78925 0.30414 0.0
C102 C 0.82119 0.72508 0.38243 0.0
Dy103 Dy 0.84637 0.76515 0.32928 0.0
O104 O 0.85542 0.74498 0.37781 0.0
O105 O 0.79651 0.72061 0.3736 0.0
O106 O 0.88899 0.81117 0.36121 0.0
O107 O 0.88858 0.78042 0.34478 0.0
C108 C 0.90687 0.81184 0.35075 0.0
C109 C 0.77847 0.70758 0.33714 0.0
O110 O 0.87854 0.73408 0.3314 0.0
O111 O 0.84978 0.70679 0.35076 0.0
O112 O 0.83557 0.75426 0.30804 0.0
O113 O 0.87195 0.81125 0.314 0.0
O114 O 0.7952 0.70718 0.32659 0.0
O115 O 0.79748 0.73959 0.34256 0.0
O116 O 0.82238 0.79835 0.35697 0.0
O117 O 0.83827 0.81359 0.33546 0.0
C118 C 0.87043 0.70845 0.34058 0.0
C119 C 0.82787 0.82024 0.34679 0.0
Dy120 Dy 0.93015 0.76837 0.83119 0.0
C121 C 0.91062 0.72391 0.8839 0.0
C122 C 0.95577 0.79674 0.80697 0.0
Dy123 Dy 0.92275 0.75402 0.8596 0.0
O124 O 0.97648 0.79706 0.8165 0.0
O125 O 0.92024 0.78081 0.8106 0.0
O126 O 0.9188 0.7086 0.82805 0.0
O127 O 0.94908 0.7388 0.84434 0.0
C128 C 0.93446 0.70705 0.83874 0.0
C129 C 0.91716 0.81529 0.8534 0.0
O130 O 0.98501 0.79796 0.85895 0.0
O131 O 0.98107 0.82029 0.83882 0.0
O132 O 0.89536 0.74275 0.87911 0.0
O133 O 0.93257 0.72114 0.87535 0.0
O134 O 0.93162 0.81142 0.86407 0.0
O135 O 0.90418 0.78505 0.84673 0.0
O136 O 0.86685 0.73907 0.8324 0.0
O137 O 0.86503 0.70974 0.85174 0.0
C138 C 0.99995 0.8233 0.84953 0.0
C139 C 0.84768 0.71333 0.8414 0.0
Dy140 Dy 0.24047 0.15929 0.83037 0.0
C141 C 0.2819 0.19493 0.88292 0.0
C142 C 0.21132 0.15479 0.80616 0.0
Dy143 Dy 0.25209 0.16965 0.85876 0.0
O144 O 0.22941 0.13717 0.80972 0.0
O145 O 0.2094 0.17412 0.81575 0.0
O146 O 0.29778 0.21107 0.82731 0.0
O147 O 0.265 0.20959 0.84311 0.0
C148 C 0.29689 0.22852 0.83762 0.0
C149 C 0.19699 0.09873 0.85298 0.0
O150 O 0.20742 0.18671 0.85562 0.0
O151 O 0.18471 0.14929 0.83754 0.0
O152 O 0.24708 0.16884 0.88039 0.0
O153 O 0.3006 0.20763 0.8722 0.0
O154 O 0.19868 0.11635 0.86361 0.0
O155 O 0.22689 0.11851 0.84638 0.0
O156 O 0.27607 0.13174 0.83198 0.0
O157 O 0.29616 0.15338 0.85282 0.0
C158 C 0.18035 0.16886 0.84683 0.0
C159 C 0.29826 0.1366 0.84205 0.0
Dy160 Dy 0.846 0.07733 0.83037 0.0
C161 C 0.80324 0.08698 0.88296 0.0
C162 C 0.8489 0.04896 0.80675 0.0
Dy163 Dy 0.83483 0.08523 0.8599 0.0
O164 O 0.82672 0.02971 0.81619 0.0
O165 O 0.87032 0.08462 0.81016 0.0
O166 O 0.79605 0.08584 0.82669 0.0
O167 O 0.79729 0.05834 0.84354 0.0
C168 C 0.77915 0.07121 0.83751 0.0
C169 C 0.90863 0.10875 0.85574 0.0
O170 O 0.82257 0.02465 0.85883 0.0
O171 O 0.85094 0.02971 0.83889 0.0
O172 O 0.82151 0.06881 0.8807 0.0
O173 O 0.80165 0.10389 0.87251 0.0
O174 O 0.89471 0.10869 0.86701 0.0
O175 O 0.88218 0.0964 0.84745 0.0
O176 O 0.87981 0.1404 0.83224 0.0
O177 O 0.85115 0.14302 0.85145 0.0
C178 C 0.83575 0.01129 0.84972 0.0
C179 C 0.87323 0.15971 0.84123 0.0
Dy180 Dy 0.76598 0.91983 0.69311 0.0
C181 C 0.72653 0.91521 0.64043 0.0
C182 C 0.79048 0.93282 0.71822 0.0
Dy183 Dy 0.75635 0.92028 0.66452 0.0
O184 O 0.75514 0.91419 0.71449 0.0
O185 O 0.81256 0.94298 0.70821 0.0
O186 O 0.70841 0.91437 0.69553 0.0
O187 O 0.74311 0.94686 0.68028 0.0
C188 C 0.71069 0.93368 0.68534 0.0
C189 C 0.81247 0.90658 0.6712 0.0
O190 O 0.79903 0.98234 0.66702 0.0
O191 O 0.81651 0.97553 0.68763 0.0
O192 O 0.76001 0.91979 0.6429 0.0
O193 O 0.70926 0.9136 0.65114 0.0
O194 O 0.81196 0.9236 0.66068 0.0
O195 O 0.78121 0.89454 0.67713 0.0
O196 O 0.7344 0.85679 0.69013 0.0
O197 O 0.71169 0.85984 0.66995 0.0
C198 C 0.8224 0.99576 0.67704 0.0
C199 C 0.71095 0.84008 0.68028 0.0
Dy200 Dy 0.07867 0.84235 0.69208 0.0
C201 C 0.09143 0.81381 0.63925 0.0
C202 C 0.0638 0.85151 0.7172 0.0
Dy203 Dy 0.08265 0.83474 0.66356 0.0
O204 O 0.08463 0.83725 0.71344 0.0
O205 O 0.05215 0.86213 0.70721 0.0
O206 O 0.0871 0.79203 0.69457 0.0
O207 O 0.05548 0.79332 0.67886 0.0
C208 C 0.0694 0.775 0.68412 0.0
C209 C 0.09097 0.90231 0.6706 0.0
O210 O 0.02004 0.81394 0.6649 0.0
O211 O 0.02205 0.83398 0.68595 0.0
O212 O 0.09319 0.84573 0.64229 0.0
O213 O 0.08489 0.79314 0.64952 0.0
O214 O 0.07416 0.88429 0.6601 0.0
O215 O 0.10454 0.8844 0.67651 0.0
O216 O 0.14163 0.87775 0.68973 0.0
O217 O 0.14231 0.85045 0.67025 0.0
C218 C 0.00406 0.82095 0.67488 0.0
C219 C 0.16029 0.87098 0.6806 0.0
Dy220 Dy 0.16055 0.23565 0.69246 0.0
C221 C 0.18488 0.27804 0.63936 0.0
C222 C 0.1513 0.20927 0.7173 0.0
Dy223 Dy 0.16707 0.24843 0.66381 0.0
O224 O 0.16285 0.2443 0.71397 0.0
O225 O 0.14329 0.18834 0.70704 0.0
O226 O 0.212 0.29319 0.69554 0.0
O227 O 0.209 0.26239 0.67904 0.0
C228 C 0.22803 0.29395 0.68471 0.0
C229 C 0.09979 0.18921 0.67103 0.0
O230 O 0.18344 0.20298 0.66437 0.0
O231 O 0.16732 0.18707 0.68581 0.0
O232 O 0.15077 0.25935 0.64417 0.0
O233 O 0.20949 0.28063 0.64793 0.0
O234 O 0.11693 0.19071 0.66029 0.0
O235 O 0.11825 0.22043 0.67704 0.0
O236 O 0.12563 0.26374 0.6903 0.0
O237 O 0.15587 0.29447 0.67153 0.0
C238 C 0.17774 0.18066 0.67446 0.0
C239 C 0.13397 0.29067 0.6816 0.0
Dy240 Dy 0.75285 0.5847 0.4967 0.0
C241 C 0.72158 0.54815 0.55022 0.0
C242 C 0.76574 0.61514 0.47239 0.0
Dy243 Dy 0.74446 0.57092 0.52536 0.0
O244 O 0.78288 0.59852 0.47753 0.0
O245 O 0.74149 0.61525 0.48055 0.0
O246 O 0.74382 0.52684 0.49274 0.0
O247 O 0.77098 0.55456 0.50998 0.0
C248 C 0.75795 0.5238 0.50362 0.0
C249 C 0.74215 0.63283 0.51732 0.0
O250 O 0.80781 0.60216 0.52472 0.0
O251 O 0.81038 0.62904 0.50473 0.0
O252 O 0.71223 0.56852 0.54315 0.0
O253 O 0.74433 0.54019 0.54375 0.0
O254 O 0.75878 0.63156 0.52783 0.0
O255 O 0.72661 0.60071 0.51181 0.0
O256 O 0.6909 0.53991 0.49697 0.0
O257 O 0.69119 0.52078 0.51801 0.0
C258 C 0.82721 0.6267 0.51544 0.0
C259 C 0.67438 0.51614 0.50673 0.0
Dy260 Dy 0.41891 0.17016 0.49827 0.0
C261 C 0.46426 0.19094 0.55129 0.0
C262 C 0.3869 0.15096 0.47416 0.0
Dy263 Dy 0.43569 0.17943 0.52663 0.0
O264 O 0.40406 0.18502 0.47904 0.0
O265 O 0.38699 0.12708 0.4825 0.0
O266 O 0.47567 0.21911 0.49342 0.0
O267 O 0.44997 0.22071 0.51083 0.0
C268 C 0.47982 0.23793 0.50399 0.0
C269 C 0.37623 0.11103 0.51979 0.0
O270 O 0.40806 0.21488 0.52443 0.0
O271 O 0.3738 0.18162 0.50654 0.0
O272 O 0.42997 0.18296 0.54814 0.0
O273 O 0.48337 0.19399 0.5409 0.0
O274 O 0.37837 0.12791 0.53058 0.0
O275 O 0.40709 0.12978 0.51378 0.0
O276 O 0.46417 0.15358 0.49837 0.0
O277 O 0.48356 0.17212 0.51949 0.0
C278 C 0.37962 0.20535 0.51623 0.0
C279 C 0.48787 0.16013 0.50812 0.0
Dy280 Dy 0.83266 0.2509 0.4973 0.0
C281 C 0.82509 0.28178 0.5502 0.0
C282 C 0.8512 0.24043 0.47285 0.0
Dy283 Dy 0.82611 0.25643 0.52585 0.0
O284 O 0.81736 0.22256 0.47787 0.0
O285 O 0.8752 0.2642 0.48121 0.0
O286 O 0.78209 0.2567 0.49323 0.0
O287 O 0.78329 0.22949 0.51038 0.0
C288 C 0.76451 0.24122 0.50392 0.0
C289 C 0.89237 0.26289 0.51799 0.0
O290 O 0.79764 0.19321 0.52493 0.0
O291 O 0.82164 0.19356 0.50462 0.0
O292 O 0.85074 0.30005 0.54152 0.0
O293 O 0.79939 0.24869 0.54568 0.0
O294 O 0.87531 0.24633 0.5286 0.0
O295 O 0.87454 0.27717 0.51255 0.0
O296 O 0.848 0.31241 0.49842 0.0
O297 O 0.82176 0.30583 0.51866 0.0
C298 C 0.80349 0.17532 0.51528 0.0
C299 C 0.83663 0.32576 0.50807 0.0
Dy300 Dy 0.91662 0.41456 0.69282 0.0
C301 C 0.87589 0.38668 0.64007 0.0
C302 C 0.94779 0.42126 0.7168 0.0
Dy303 Dy 0.90393 0.41142 0.66434 0.0
O304 O 0.91307 0.41323 0.71446 0.0
O305 O 0.96567 0.42553 0.70601 0.0
O306 O 0.86205 0.41218 0.69757 0.0
O307 O 0.88955 0.43815 0.68024 0.0
C308 C 0.85959 0.42735 0.68687 0.0
C309 C 0.96238 0.4021 0.67173 0.0
O310 O 0.93939 0.47472 0.66557 0.0
O311 O 0.95921 0.47484 0.68659 0.0
O312 O 0.88694 0.42093 0.64439 0.0
O313 O 0.88047 0.36689 0.64893 0.0
O314 O 0.9625 0.41994 0.66137 0.0
O315 O 0.93035 0.38808 0.6772 0.0
O316 O 0.87376 0.35231 0.69039 0.0
O317 O 0.84985 0.3631 0.67171 0.0
C318 C 0.96108 0.49286 0.67565 0.0
C319 C 0.84692 0.34084 0.68142 0.0
Dy320 Dy 0.58571 0.4987 0.69219 0.0
C321 C 0.60902 0.47821 0.6391 0.0
C322 C 0.57393 0.51853 0.7163 0.0
Dy323 Dy 0.59256 0.4898 0.66377 0.0
O324 O 0.55778 0.48417 0.71167 0.0
O325 O 0.59661 0.54244 0.7077 0.0
O326 O 0.5928 0.44906 0.69683 0.0
O327 O 0.56578 0.44852 0.67948 0.0
C328 C 0.57822 0.43084 0.68615 0.0
C329 C 0.60101 0.55762 0.67089 0.0
O330 O 0.5296 0.45426 0.66607 0.0
O331 O 0.52882 0.48713 0.68409 0.0
O332 O 0.5821 0.4852 0.64231 0.0
O333 O 0.62615 0.4764 0.6494 0.0
O334 O 0.58558 0.54077 0.66016 0.0
O335 O 0.61389 0.53919 0.67668 0.0
O336 O 0.64747 0.51528 0.69197 0.0
O337 O 0.64776 0.49671 0.67083 0.0
C338 C 0.51084 0.46376 0.67432 0.0
C339 C 0.66433 0.50864 0.68217 0.0
Dy340 Dy 0.50315 0.08681 0.69349 0.0
C341 C 0.51059 0.11852 0.63946 0.0
C342 C 0.48192 0.05659 0.71777 0.0
Dy343 Dy 0.5101 0.09759 0.66466 0.0
O344 O 0.51105 0.08964 0.71504 0.0
O345 O 0.46423 0.0399 0.70721 0.0
O346 O 0.55323 0.14418 0.69704 0.0
O347 O 0.55212 0.11417 0.68034 0.0
C348 C 0.57047 0.1455 0.68635 0.0
C349 C 0.44461 0.03833 0.67308 0.0
O350 O 0.54031 0.06433 0.66597 0.0
O351 O 0.52191 0.04515 0.68713 0.0
O352 O 0.48093 0.09518 0.64607 0.0
O353 O 0.54106 0.13035 0.64656 0.0
O354 O 0.46267 0.0373 0.66293 0.0
O355 O 0.46181 0.07113 0.6781 0.0
O356 O 0.48168 0.12789 0.69167 0.0
O357 O 0.50699 0.14844 0.67131 0.0
C358 C 0.53793 0.04339 0.67614 0.0
C359 C 0.49174 0.15243 0.68202 0.0
Dy360 Dy 0.59054 0.09923 0.16348 0.0
C361 C 0.56994 0.05215 0.21598 0.0
C362 C 0.61582 0.13011 0.13951 0.0
Dy363 Dy 0.5826 0.08375 0.19186 0.0
O364 O 0.63688 0.13556 0.14954 0.0
O365 O 0.5801 0.1078 0.14253 0.0
O366 O 0.58294 0.04124 0.15964 0.0
O367 O 0.60998 0.06967 0.17655 0.0
C368 C 0.59703 0.03866 0.17053 0.0
C369 C 0.57501 0.14399 0.18573 0.0
O370 O 0.64443 0.12956 0.19145 0.0
O371 O 0.64026 0.15149 0.17131 0.0
O372 O 0.59944 0.06034 0.20886 0.0
O373 O 0.54748 0.06109 0.20991 0.0
O374 O 0.58897 0.14032 0.19655 0.0
O375 O 0.56307 0.11394 0.17907 0.0
O376 O 0.5274 0.0698 0.16478 0.0
O377 O 0.52648 0.03794 0.18336 0.0
C378 C 0.65908 0.15509 0.18207 0.0
C379 C 0.50864 0.0425 0.17334 0.0
Dy380 Dy 0.90144 0.48963 0.165 0.0
C381 C 0.94666 0.52379 0.2175 0.0
C382 C 0.87328 0.4855 0.14068 0.0
Dy383 Dy 0.91505 0.49981 0.19351 0.0
O384 O 0.88454 0.4626 0.14511 0.0
O385 O 0.87757 0.50995 0.14947 0.0
O386 O 0.96022 0.53897 0.16173 0.0
O387 O 0.92912 0.53964 0.17774 0.0
C388 C 0.9609 0.55707 0.17209 0.0
C389 C 0.8565 0.43085 0.18753 0.0
O390 O 0.87345 0.52087 0.19102 0.0
O391 O 0.8483 0.48614 0.17238 0.0
O392 O 0.91189 0.49718 0.21518 0.0
O393 O 0.96432 0.53755 0.20669 0.0
O394 O 0.85893 0.44892 0.19812 0.0
O395 O 0.88693 0.44914 0.18109 0.0
O396 O 0.93485 0.45972 0.16641 0.0
O397 O 0.95722 0.48151 0.18709 0.0
C398 C 0.84637 0.50606 0.18209 0.0
C399 C 0.95756 0.46407 0.17625 0.0
Dy400 Dy 0.51276 0.41285 0.16377 0.0
C401 C 0.46912 0.41878 0.21666 0.0
C402 C 0.52444 0.39668 0.13908 0.0
Dy403 Dy 0.50056 0.41738 0.1935 0.0
O404 O 0.51718 0.42342 0.14233 0.0
O405 O 0.52704 0.38002 0.14939 0.0
O406 O 0.46056 0.4176 0.16013 0.0
O407 O 0.46361 0.39112 0.17692 0.0
C408 C 0.4444 0.40297 0.17101 0.0
C409 C 0.57496 0.44334 0.18919 0.0
O410 O 0.48815 0.35663 0.19191 0.0
O411 O 0.50574 0.35769 0.17044 0.0
O412 O 0.48866 0.40184 0.21444 0.0
O413 O 0.46601 0.43438 0.20611 0.0
O414 O 0.56083 0.44211 0.20051 0.0
O415 O 0.54844 0.43085 0.18094 0.0
O416 O 0.54902 0.4751 0.16735 0.0
O417 O 0.51594 0.47552 0.18562 0.0
C418 C 0.49505 0.34082 0.18179 0.0
C419 C 0.54038 0.49354 0.17606 0.0
Dy420 Dy 0.43182 0.25595 0.02592 0.0
C421 C 0.39212 0.24675 0.97287 0.0
C422 C 0.45959 0.28143 0.05023 0.0
Dy423 Dy 0.4212 0.25289 0.99723 0.0
O424 O 0.45939 0.30199 0.04074 0.0
O425 O 0.44419 0.24595 0.04654 0.0
O426 O 0.37296 0.24736 0.02825 0.0
O427 O 0.40644 0.27926 0.01265 0.0
C428 C 0.374 0.26521 0.01779 0.0
C429 C 0.4781 0.24055 1.0041 0.0
O430 O 0.46451 0.31496 0.99966 0.0
O431 O 0.48647 0.30426 0.01881 0.0
O432 O 0.42377 0.24761 0.9757 0.0
O433 O 0.37616 0.2493 0.98338 0.0
O434 O 0.47685 0.25634 0.99336 0.0
O435 O 0.44732 0.22942 1.01028 0.0
O436 O 0.39782 0.19264 0.0244 0.0
O437 O 0.37756 0.19287 1.00346 0.0
C438 C 0.49041 0.32648 1.00896 0.0
C439 C 0.37592 0.17462 0.01434 0.0
Dy440 Dy 0.74422 0.17673 0.02574 0.0
C441 C 0.75576 0.14528 0.97308 0.0
C442 C 0.72901 0.18804 0.05059 0.0
Dy443 Dy 0.74759 0.16645 0.99739 0.0
O444 O 0.75207 0.176 0.04723 0.0
O445 O 0.71543 0.19536 0.04035 0.0
O446 O 0.75358 0.12712 0.02903 0.0
O447 O 0.7218 0.12655 0.01313 0.0
C448 C 0.73616 0.10909 0.01868 0.0
C449 C 0.75282 0.23313 1.00344 0.0
O450 O 0.68526 0.14719 0.99856 0.0
O451 O 0.68693 0.16667 0.01967 0.0
O452 O 0.76786 0.17998 0.9769 0.0
O453 O 0.73936 0.12187 0.9826 0.0
O454 O 0.7359 0.21335 0.99322 0.0
O455 O 0.76822 0.21747 1.00969 0.0
O456 O 0.80689 0.21321 0.02292 0.0
O457 O 0.80684 0.18183 1.00435 0.0
C458 C 0.66909 0.15381 1.00857 0.0
C459 C 0.82534 0.20495 0.01413 0.0
Dy460 Dy 0.82622 0.56787 0.02657 0.0
C461 C 0.85442 0.61829 0.97434 0.0
C462 C 0.82303 0.53756 0.05042 0.0
Dy463 Dy 0.83442 0.58614 0.99834 0.0
O464 O 0.84715 0.5425 0.04141 0.0
O465 O 0.79997 0.54918 0.04644 0.0
O466 O 0.87649 0.62572 0.03048 0.0
O467 O 0.8754 0.59714 0.01357 0.0
C468 C 0.8938 0.62785 0.01978 0.0
C469 C 0.76536 0.52761 1.004 0.0
O470 O 0.84708 0.53789 0.99821 0.0
O471 O 0.8181 0.51421 0.01787 0.0
O472 O 0.82063 0.6032 0.97936 0.0
O473 O 0.87769 0.61625 0.9825 0.0
O474 O 0.7829 0.53127 0.99317 0.0
O475 O 0.7845 0.55669 1.01104 0.0
O476 O 0.7971 0.60197 0.02649 0.0
O477 O 0.82443 0.63181 1.00716 0.0
C478 C 0.83285 0.51058 1.00702 0.0
C479 C 0.80451 0.6286 0.01775 0.0
Dy480 Dy 0.41755 0.91503 0.83177 0.0
C481 C 0.39956 0.88449 0.88583 0.0
C482 C 0.42531 0.94455 0.80742 0.0
Dy483 Dy 0.41535 0.90498 0.86036 0.0
O484 O 0.42339 0.91243 0.81026 0.0
O485 O 0.42285 0.96066 0.81792 0.0
O486 O 0.41163 0.85838 0.82815 0.0
O487 O 0.44106 0.88859 0.84473 0.0
C488 C 0.42844 0.85736 0.83867 0.0
C489 C 0.4058 0.96242 0.8519 0.0
O490 O 0.47853 0.93517 0.8582 0.0
O491 O 0.47774 0.95909 0.838 0.0
O492 O 0.40836 0.91732 0.88096 0.0
O493 O 0.40088 0.86288 0.87682 0.0
O494 O 0.42598 0.96475 0.86189 0.0
O495 O 0.39083 0.92943 0.84712 0.0
O496 O 0.35499 0.87296 0.83367 0.0
O497 O 0.35943 0.85534 0.85452 0.0
C498 C 0.4964 0.95877 0.84852 0.0
C499 C 0.34024 0.84976 0.84368 0.0
Dy500 Dy 0.09075 0.50325 0.83034 0.0
C501 C 0.12859 0.51311 0.88317 0.0
C502 C 0.06168 0.48015 0.80604 0.0
Dy503 Dy 0.10092 0.51091 0.85889 0.0
O504 O 0.09383 0.51045 0.80878 0.0
O505 O 0.04529 0.4623 0.81658 0.0
O506 O 0.14648 0.55546 0.82657 0.0
O507 O 0.11602 0.55308 0.84331 0.0
C508 C 0.14692 0.57265 0.83718 0.0
C509 C 0.04385 0.44307 0.85091 0.0
O510 O 0.06506 0.53832 0.85744 0.0
O511 O 0.04635 0.51864 0.83635 0.0
O512 O 0.12771 0.49184 0.87375 0.0
O513 O 0.11394 0.53384 0.87944 0.0
O514 O 0.04278 0.45995 0.86136 0.0
O515 O 0.07618 0.4619 0.84569 0.0
O516 O 0.13437 0.48495 0.83279 0.0
O517 O 0.15598 0.51794 0.85187 0.0
C518 C 0.04354 0.53434 0.84726 0.0
C519 C 0.16027 0.49979 0.84206 0.0
Dy520 Dy 0.50419 0.58697 0.83092 0.0
C521 C 0.48594 0.60945 0.88429 0.0
C522 C 0.52181 0.57515 0.80647 0.0
Dy523 Dy 0.49683 0.59335 0.85948 0.0
O524 O 0.48778 0.55958 0.81133 0.0
O525 O 0.54653 0.59725 0.815 0.0
O526 O 0.45495 0.59552 0.82701 0.0
O527 O 0.45484 0.56682 0.84392 0.0
C528 C 0.43712 0.58002 0.83766 0.0
C529 C 0.56462 0.60225 0.85196 0.0
O530 O 0.46128 0.53034 0.85717 0.0
O531 O 0.49223 0.52956 0.83863 0.0
O532 O 0.49638 0.58508 0.88098 0.0
O533 O 0.48023 0.6241 0.87401 0.0
O534 O 0.54829 0.58711 0.86278 0.0
O535 O 0.5457 0.61481 0.84625 0.0
O536 O 0.52075 0.64875 0.83143 0.0
O537 O 0.50439 0.64912 0.85284 0.0
C538 C 0.46964 0.51153 0.84855 0.0
C539 C 0.51509 0.66564 0.84146 0.0
Dy540 Dy 0.58107 0.74658 0.02659 0.0
C541 C 0.55591 0.72913 0.97227 0.0
C542 C 0.61012 0.75362 0.05096 0.0
Dy543 Dy 0.57416 0.74606 0.99782 0.0
O544 O 0.57603 0.74702 0.04822 0.0
O545 O 0.62832 0.75626 0.04038 0.0
O546 O 0.52387 0.74037 0.02948 0.0
O547 O 0.55622 0.77074 0.01335 0.0
C548 C 0.52423 0.75773 0.01892 0.0
C549 C 0.63161 0.73756 1.00685 0.0
O550 O 0.6076 0.80923 0.99981 0.0
O551 O 0.62388 0.80771 0.02118 0.0
O552 O 0.58174 0.72587 0.97856 0.0
O553 O 0.54021 0.74294 0.97989 0.0
O554 O 0.63429 0.75791 0.99686 0.0
O555 O 0.59816 0.7218 1.01136 0.0
O556 O 0.5401 0.68412 0.0239 0.0
O557 O 0.52249 0.69141 1.00338 0.0
C558 C 0.62743 0.82664 1.01029 0.0
C559 C 0.51676 0.6708 0.01386 0.0
Dy560 Dy 0.25723 0.83387 0.02675 0.0
C561 C 0.27264 0.81492 0.9728 0.0
C562 C 0.24971 0.85553 0.05116 0.0
Dy563 Dy 0.25855 0.82484 0.998 0.0
O564 O 0.24714 0.82326 0.04808 0.0
O565 O 0.2566 0.87625 0.04087 0.0
O566 O 0.26537 0.78409 0.03015 0.0
O567 O 0.23424 0.78393 0.0139 0.0
C568 C 0.24801 0.76605 0.01972 0.0
C569 C 0.26843 0.89243 1.00598 0.0
O570 O 0.19576 0.78991 1.00098 0.0
O571 O 0.19698 0.81774 0.02058 0.0
O572 O 0.25283 0.8303 0.97661 0.0
O573 O 0.2835 0.80352 0.98279 0.0
O574 O 0.25 0.87514 0.99566 0.0
O575 O 0.28282 0.87426 1.01104 0.0
O576 O 0.3197 0.85402 0.02475 0.0
O577 O 0.31534 0.83299 1.00371 0.0
C578 C 0.17799 0.79688 1.01039 0.0
C579 C 0.33452 0.84629 0.01458 0.0
Dy580 Dy 0.17048 0.41869 0.02508 0.0
C581 C 0.18845 0.45721 0.97181 0.0
C582 C 0.15215 0.3889 0.04945 0.0
Dy583 Dy 0.17806 0.43103 0.99669 0.0
O584 O 0.13013 0.39549 0.04206 0.0
O585 O 0.18392 0.39864 0.04353 0.0
O586 O 0.2215 0.47524 0.029 0.0
O587 O 0.22037 0.44584 0.01215 0.0
C588 C 0.23905 0.47671 0.01837 0.0
C589 C 0.10946 0.37356 1.00417 0.0
O590 O 0.21054 0.40039 0.99893 0.0
O591 O 0.17831 0.37062 0.0175 0.0
O592 O 0.1755 0.42201 0.97521 0.0
O593 O 0.19726 0.4784 0.98203 0.0
O594 O 0.12593 0.37402 0.99347 0.0
O595 O 0.12873 0.4051 1.00983 0.0
O596 O 0.15645 0.46568 0.02448 0.0
O597 O 0.17252 0.48065 1.00302 0.0
C598 C 0.20055 0.37333 1.00769 0.0
C599 C 0.16262 0.48786 0.01433 0.0
Dy600 Dy 0.25659 0.43319 0.49662 0.0
C601 C 0.2398 0.39072 0.54968 0.0
C602 C 0.27184 0.45735 0.47149 0.0
Dy603 Dy 0.25075 0.42037 0.52525 0.0
O604 O 0.25484 0.42216 0.47533 0.0
O605 O 0.2793 0.47956 0.48141 0.0
O606 O 0.25094 0.3757 0.49384 0.0
O607 O 0.27963 0.40767 0.51007 0.0
C608 C 0.26745 0.37598 0.50453 0.0
C609 C 0.2406 0.47847 0.51821 0.0
O610 O 0.31223 0.46684 0.52464 0.0
O611 O 0.31206 0.4821 0.50311 0.0
O612 O 0.22371 0.40883 0.54491 0.0
O613 O 0.26204 0.38873 0.54108 0.0
O614 O 0.25616 0.47688 0.52897 0.0
O615 O 0.22876 0.44756 0.51205 0.0
O616 O 0.19347 0.40321 0.49872 0.0
O617 O 0.194 0.37328 0.51757 0.0
C618 C 0.32877 0.48902 0.51451 0.0
C619 C 0.17546 0.37636 0.5075 0.0
Dy620 Dy 0.57129 0.82771 0.49856 0.0
C621 C 0.61165 0.85682 0.55141 0.0
C622 C 0.54681 0.82727 0.47394 0.0
Dy623 Dy 0.58175 0.83443 0.52718 0.0
O624 O 0.55221 0.8006 0.47877 0.0
O625 O 0.5552 0.8536 0.48246 0.0
O626 O 0.63147 0.87589 0.49662 0.0
O627 O 0.59778 0.87606 0.51193 0.0
C628 C 0.63051 0.89345 0.50692 0.0
C629 C 0.52324 0.76665 0.5201 0.0
O630 O 0.53921 0.85434 0.52509 0.0
O631 O 0.51776 0.82452 0.50542 0.0
O632 O 0.58096 0.82508 0.54859 0.0
O633 O 0.62613 0.8765 0.54098 0.0
O634 O 0.52439 0.78404 0.53075 0.0
O635 O 0.55455 0.78521 0.51411 0.0
O636 O 0.60427 0.79753 0.49983 0.0
O637 O 0.62504 0.81751 0.52078 0.0
C638 C 0.51389 0.84181 0.51559 0.0
C639 C 0.62613 0.80095 0.50982 0.0
Dy640 Dy 0.17777 0.74615 0.49688 0.0
C641 C 0.14634 0.75703 0.54969 0.0
C642 C 0.18792 0.73167 0.47177 0.0
Dy643 Dy 0.16845 0.74897 0.52548 0.0
O644 O 0.17122 0.75028 0.4755 0.0
O645 O 0.2006 0.72226 0.48179 0.0
O646 O 0.12635 0.75252 0.49396 0.0
O647 O 0.12811 0.72189 0.50987 0.0
C648 C 0.10928 0.73496 0.50441 0.0
C649 C 0.23684 0.75879 0.51885 0.0
O650 O 0.14716 0.68632 0.52364 0.0
O651 O 0.17012 0.68982 0.50294 0.0
O652 O 0.17501 0.75226 0.54706 0.0
O653 O 0.12954 0.75735 0.53907 0.0
O654 O 0.2188 0.74218 0.52935 0.0
O655 O 0.21872 0.77189 0.5128 0.0
O656 O 0.21179 0.80933 0.49947 0.0
O657 O 0.18516 0.8091 0.51921 0.0
C658 C 0.15581 0.67113 0.51381 0.0
C659 C 0.20532 0.82754 0.50887 0.0
Dy660 Dy 0.09833 0.5876 0.35992 0.0
C661 C 0.06114 0.57962 0.30673 0.0
C662 C 0.11965 0.60179 0.38537 0.0
Dy663 Dy 0.08964 0.5862 0.33115 0.0
O664 O 0.08574 0.59032 0.38085 0.0
O665 O 0.14194 0.60409 0.37598 0.0
O666 O 0.03942 0.5793 0.36149 0.0
O667 O 0.07505 0.61277 0.34652 0.0
C668 C 0.04213 0.59873 0.35128 0.0
C669 C 0.14668 0.57519 0.33874 0.0
O670 O 0.13222 0.64824 0.33317 0.0
O671 O 0.14799 0.64418 0.35435 0.0
O672 O 0.09107 0.57735 0.30978 0.0
O673 O 0.04673 0.58559 0.31704 0.0
O674 O 0.14713 0.59302 0.32828 0.0
O675 O 0.11468 0.56198 0.34431 0.0
O676 O 0.06655 0.52443 0.35749 0.0
O677 O 0.04469 0.52636 0.33702 0.0
C678 C 0.15448 0.66304 0.34339 0.0
C679 C 0.04359 0.50722 0.34758 0.0
Dy680 Dy 0.41381 0.51168 0.35979 0.0
C681 C 0.42287 0.48065 0.30665 0.0
C682 C 0.40017 0.52208 0.38497 0.0
Dy683 Dy 0.41577 0.50189 0.33114 0.0
O684 O 0.41766 0.50436 0.38112 0.0
O685 O 0.39143 0.53564 0.37502 0.0
O686 O 0.42201 0.46136 0.36268 0.0
O687 O 0.39022 0.46188 0.34692 0.0
C688 C 0.40411 0.44371 0.35234 0.0
C689 C 0.42315 0.56917 0.33781 0.0
O690 O 0.35332 0.4822 0.33291 0.0
O691 O 0.35655 0.50209 0.35406 0.0
O692 O 0.43193 0.51488 0.31021 0.0
O693 O 0.41006 0.45791 0.31649 0.0
O694 O 0.40553 0.55019 0.32754 0.0
O695 O 0.43785 0.55226 0.34372 0.0
O696 O 0.47654 0.54656 0.35688 0.0
O697 O 0.47548 0.51718 0.33765 0.0
C698 C 0.33787 0.48907 0.34309 0.0
C699 C 0.4944 0.53901 0.34766 0.0
Dy700 Dy 0.49368 0.90382 0.35974 0.0
C701 C 0.51876 0.95008 0.30709 0.0
C702 C 0.49121 0.87535 0.38386 0.0
Dy703 Dy 0.49955 0.91874 0.33123 0.0
O704 O 0.51404 0.87816 0.37467 0.0
O705 O 0.46916 0.88826 0.37993 0.0
O706 O 0.54354 0.96231 0.36311 0.0
O707 O 0.5418 0.93303 0.3463 0.0
C708 C 0.55991 0.96433 0.3522 0.0
C709 C 0.43106 0.86009 0.33777 0.0
O710 O 0.51315 0.87115 0.33157 0.0
O711 O 0.48809 0.85034 0.35189 0.0
O712 O 0.48882 0.94415 0.31352 0.0
O713 O 0.53844 0.93897 0.31385 0.0
O714 O 0.4471 0.86388 0.32663 0.0
O715 O 0.45084 0.88977 0.34445 0.0
O716 O 0.4631 0.93647 0.35907 0.0
O717 O 0.49102 0.96561 0.33975 0.0
C718 C 0.50209 0.84581 0.34102 0.0
C719 C 0.47065 0.96273 0.35017 0.0
H720 H 0.15261 0.19707 0.18735 0.0
H721 H 0.07964 0.1297 0.15606 0.0
H722 H 0.18071 0.15576 0.18816 0.0
H723 H 0.10682 0.08798 0.15704 0.0
H724 H 0.17798 0.03293 0.15433 0.0
H725 H 0.16392 0.08499 0.15272 0.0
H726 H 0.16349 0.09205 0.19422 0.0
H727 H 0.1786 0.04127 0.19579 0.0
C728 C 0.14233 0.17319 0.18075 0.0
C729 C 0.11393 0.1665 0.17166 0.0
C730 C 0.15847 0.1496 0.18117 0.0
C731 C 0.14638 0.11877 0.17255 0.0
C732 C 0.11757 0.11198 0.1636 0.0
C733 C 0.10161 0.13559 0.16314 0.0
C734 C 0.17608 0.04647 0.16307 0.0
C735 C 0.17899 0.0327 0.17517 0.0
C736 C 0.16749 0.07594 0.16217 0.0
C737 C 0.16178 0.09221 0.17335 0.0
C738 C 0.16774 0.08036 0.18541 0.0
C739 C 0.17626 0.05102 0.1863 0.0
H740 H 0.98057 0.13901 0.15188 0.0
H741 H 0.96615 0.13709 0.1931 0.0
H742 H 0.92796 0.07279 0.15067 0.0
H743 H 0.91482 0.07136 0.19198 0.0
H744 H 0.80887 0.95639 0.18545 0.0
H745 H 0.85131 0.02564 0.18517 0.0
H746 H 0.92293 0.01267 0.15712 0.0
H747 H 0.88018 0.94389 0.15723 0.0
C748 C 0.96558 0.12478 0.16061 0.0
C749 C 0.97762 0.14299 0.17258 0.0
C750 C 0.93582 0.08677 0.15997 0.0
C751 C 0.91757 0.06658 0.17127 0.0
C752 C 0.92799 0.08595 0.18309 0.0
C753 C 0.95764 0.12364 0.18373 0.0
C754 C 0.83383 0.96844 0.1793 0.0
C755 C 0.84135 0.94485 0.17139 0.0
C756 C 0.85805 0.00807 0.17909 0.0
C757 C 0.89031 0.02478 0.171 0.0
C758 C 0.89788 1.00093 0.16322 0.0
C759 C 0.87367 0.96146 0.16341 0.0
H760 H 0.05498 0.89856 0.19236 0.0
H761 H 0.04709 0.87068 0.15202 0.0
H762 H 0.98574 0.87142 0.19319 0.0
H763 H 0.97807 0.84094 0.1529 0.0
H764 H 0.86495 0.84074 0.15441 0.0
H765 H 0.93118 0.85644 0.15343 0.0
H766 H 0.9247 0.81972 0.19294 0.0
H767 H 0.85904 0.80663 0.19405 0.0
C768 C 0.03821 0.886 0.18375 0.0
C769 C 0.05618 0.88727 0.1721 0.0
C770 C 0.99846 0.87004 0.18419 0.0
C771 C 0.97588 0.85409 0.17305 0.0
C772 C 0.99422 0.85387 0.16158 0.0
C773 C 0.03386 0.87074 0.16108 0.0
C774 C 0.87742 0.83503 0.16275 0.0
C775 C 0.85694 0.82246 0.17429 0.0
C776 C 0.91559 0.84409 0.16223 0.0
C777 C 0.93391 0.83994 0.17318 0.0
C778 C 0.91219 0.82446 0.18442 0.0
C779 C 0.87431 0.81632 0.18502 0.0
H780 H 0.12352 0.06493 0.36505 0.0
H781 H 0.19546 0.14744 0.33661 0.0
H782 H 0.08128 0.0916 0.36487 0.0
H783 H 0.15345 0.17478 0.33658 0.0
H784 H 0.03927 0.17363 0.32891 0.0
H785 H 0.08966 0.15773 0.32988 0.0
H786 H 0.07845 0.14816 0.37127 0.0
H787 H 0.02692 0.1633 0.37023 0.0
C788 C 0.13024 0.08879 0.35874 0.0
C789 C 0.16269 0.10407 0.35082 0.0
C790 C 0.10632 0.10441 0.35877 0.0
C791 C 0.11429 0.13573 0.35087 0.0
C792 C 0.14647 0.15062 0.34277 0.0
C793 C 0.17044 0.13489 0.34273 0.0
C794 C 0.04803 0.16885 0.33826 0.0
C795 C 0.02887 0.16927 0.3495 0.0
C796 C 0.07711 0.15991 0.33881 0.0
C797 C 0.08772 0.1511 0.35062 0.0
C798 C 0.07038 0.15412 0.36198 0.0
C799 C 0.04123 0.16326 0.36143 0.0
H800 H 0.84787 0.86516 0.36808 0.0
H801 H 0.81095 0.85836 0.32871 0.0
H802 H 0.86346 0.93127 0.36911 0.0
H803 H 0.82413 0.92402 0.32989 0.0
H804 H 0.90131 0.05469 0.33059 0.0
H805 H 0.87554 0.98564 0.32958 0.0
H806 H 0.84604 0.97683 0.36997 0.0
H807 H 0.87432 0.0456 0.37103 0.0
C808 C 0.84166 0.87743 0.3598 0.0
C809 C 0.8282 0.85665 0.34833 0.0
C810 C 0.85061 0.91553 0.36035 0.0
C811 C 0.8455 0.93353 0.34952 0.0
C812 C 0.8295 0.91168 0.33831 0.0
C813 C 0.82138 0.87382 0.33769 0.0
C814 C 0.88927 0.0377 0.33919 0.0
C815 C 0.89036 0.05529 0.35091 0.0
C816 C 0.87413 0.99809 0.33863 0.0
C817 C 0.85889 0.97529 0.34975 0.0
C818 C 0.85849 0.9932 0.3613 0.0
C819 C 0.87452 0.0327 0.36191 0.0
H820 H 0.958 0.80341 0.33574 0.0
H821 H 0.94951 0.87842 0.36341 0.0
H822 H 0.02765 0.84367 0.33588 0.0
H823 H 0.01862 0.91891 0.36339 0.0
H824 H 0.14307 0.97107 0.36957 0.0
H825 H 0.07636 0.92013 0.37037 0.0
H826 H 0.07694 0.90612 0.32915 0.0
H827 H 0.14353 0.95593 0.32843 0.0
C828 C 0.97101 0.82874 0.34172 0.0
C829 C 0.94842 0.83783 0.34957 0.0
C830 C 0.01087 0.85171 0.34185 0.0
C831 C 0.02882 0.88421 0.34982 0.0
C832 C 0.00593 0.89356 0.35742 0.0
C833 C 0.96626 0.87064 0.35731 0.0
C834 C 0.12932 0.9562 0.36076 0.0
C835 C 0.14847 0.96783 0.34893 0.0
C836 C 0.09092 0.92739 0.36118 0.0
C837 C 0.07103 0.90965 0.34977 0.0
C838 C 0.09125 0.9191 0.33812 0.0
C839 C 0.1295 0.94782 0.33771 0.0
H840 H 0.89274 0.83945 0.87359 0.0
H841 H 0.90418 0.84749 0.83227 0.0
H842 H 0.86535 0.8807 0.8734 0.0
H843 H 0.87938 0.8916 0.83203 0.0
H844 H 0.81373 0.95282 0.83302 0.0
H845 H 0.82827 0.90129 0.83417 0.0
H846 H 0.88074 0.94287 0.87146 0.0
H847 H 0.86339 0.9924 0.87055 0.0
C848 C 0.88987 0.85063 0.86444 0.0
C849 C 0.90091 0.8407 0.85293 0.0
C850 C 0.87431 0.87455 0.86434 0.0
C851 C 0.87036 0.89011 0.85273 0.0
C852 C 0.88124 0.87979 0.84116 0.0
C853 C 0.89588 0.85487 0.84126 0.0
C854 C 0.82726 0.94994 0.84162 0.0
C855 C 0.83711 0.9761 0.85177 0.0
C856 C 0.83626 0.92086 0.8422 0.0
C857 C 0.85641 0.91803 0.8528 0.0
C858 C 0.86474 0.94348 0.86321 0.0
C859 C 0.85478 0.97196 0.86275 0.0
H860 H 0.18051 0.04919 0.87261 0.0
H861 H 0.16256 0.05431 0.83192 0.0
H862 H 0.13998 0.98028 0.87227 0.0
H863 H 0.11942 0.98525 0.8316 0.0
H864 H 0.05582 0.8588 0.83185 0.0
H865 H 0.10936 0.9239 0.83277 0.0
H866 H 0.07656 0.93468 0.87152 0.0
H867 H 0.02478 0.86873 0.87075 0.0
C868 C 0.16757 0.03537 0.86358 0.0
C869 C 0.17424 0.05687 0.85229 0.0
C870 C 0.14406 0.99582 0.86339 0.0
C871 C 0.12573 0.97684 0.85196 0.0
C872 C 0.13335 0.99853 0.84057 0.0
C873 C 0.1578 0.03816 0.84072 0.0
C874 C 0.061 0.8749 0.84069 0.0
C875 C 0.0365 0.85887 0.85127 0.0
C876 C 0.0913 0.91243 0.84116 0.0
C877 C 0.09713 0.93516 0.85212 0.0
C878 C 0.07356 0.91819 0.86295 0.0
C879 C 0.04379 0.88028 0.86256 0.0
H880 H 0.96077 0.12107 0.87398 0.0
H881 H 0.94834 0.12652 0.8329 0.0
H882 H 0.02782 0.14169 0.87136 0.0
H883 H 0.01662 0.14922 0.8302 0.0
H884 H 0.12216 0.13517 0.82967 0.0
H885 H 0.05855 0.12546 0.83128 0.0
H886 H 0.08964 0.19115 0.86652 0.0
H887 H 0.1538 0.19935 0.86522 0.0
C888 C 0.97263 0.12716 0.86435 0.0
C889 C 0.94936 0.12186 0.85361 0.0
C890 C 0.01132 0.1395 0.86286 0.0
C891 C 0.02798 0.1474 0.85058 0.0
C892 C 0.00472 0.14289 0.83981 0.0
C893 C 0.96565 0.12995 0.84131 0.0
C894 C 0.11576 0.14782 0.83778 0.0
C895 C 0.14309 0.16758 0.84746 0.0
C896 C 0.07909 0.14257 0.8386 0.0
C897 C 0.06859 0.15727 0.84905 0.0
C898 C 0.09646 0.17873 0.85845 0.0
C899 C 0.13334 0.18371 0.85768 0.0
H900 H 0.84725 0.89701 0.69222 0.0
H901 H 0.82744 0.87196 0.65169 0.0
H902 H 0.88845 0.86883 0.6927 0.0
H903 H 0.86585 0.84122 0.65221 0.0
H904 H 0.97847 0.84008 0.65359 0.0
H905 H 0.92821 0.85616 0.65277 0.0
H906 H 0.89656 0.81634 0.69194 0.0
H907 H 0.94885 0.8028 0.6929 0.0
C908 C 0.85131 0.88483 0.68349 0.0
C909 C 0.83494 0.88717 0.6719 0.0
C910 C 0.87456 0.86828 0.68373 0.0
C911 C 0.88096 0.85282 0.67244 0.0
C912 C 0.86274 0.8537 0.66101 0.0
C913 C 0.84048 0.87114 0.66071 0.0
C914 C 0.96003 0.83376 0.66187 0.0
C915 C 0.9675 0.82024 0.67329 0.0
C916 C 0.93107 0.84304 0.66146 0.0
C917 C 0.90835 0.83818 0.67238 0.0
C918 C 0.91406 0.82165 0.68346 0.0
C919 C 0.94363 0.81326 0.68397 0.0
H920 H 0.16768 0.13924 0.65242 0.0
H921 H 0.18514 0.13857 0.69341 0.0
H922 H 0.1511 0.07231 0.65127 0.0
H923 H 0.16747 0.07187 0.69237 0.0
H924 H 0.15064 0.95348 0.68553 0.0
H925 H 0.18004 0.02296 0.68542 0.0
H926 H 0.09543 0.01406 0.65802 0.0
H927 H 0.06692 0.94493 0.6579 0.0
C928 C 0.16897 0.12515 0.66111 0.0
C929 C 0.17736 0.14409 0.67301 0.0
C930 C 0.1589 0.08664 0.6605 0.0
C931 C 0.15713 0.06643 0.67178 0.0
C932 C 0.16855 0.08639 0.68349 0.0
C933 C 0.17858 0.12473 0.68409 0.0
C934 C 0.13824 0.96645 0.67957 0.0
C935 C 0.10649 0.94386 0.67173 0.0
C936 C 0.15513 0.00626 0.67946 0.0
C937 C 0.14044 0.02423 0.67157 0.0
C938 C 0.10817 0.00136 0.66395 0.0
C939 C 0.09146 0.96169 0.66401 0.0
H940 H 0.86017 0.03431 0.65525 0.0
H941 H 0.86809 0.03852 0.69675 0.0
H942 H 0.92686 0.08514 0.65391 0.0
H943 H 0.9346 0.08843 0.69541 0.0
H944 H 0.05126 0.19411 0.68831 0.0
H945 H 0.98178 0.15338 0.68936 0.0
H946 H 0.98598 0.08447 0.65832 0.0
H947 H 0.05501 0.12537 0.65717 0.0
C948 C 0.87579 0.04672 0.66407 0.0
C949 C 0.85899 0.03212 0.67609 0.0
C950 C 0.91413 0.07549 0.66331 0.0
C951 C 0.93624 0.09028 0.67455 0.0
C952 C 0.91845 0.07774 0.68657 0.0
C953 C 0.88029 0.04898 0.68733 0.0
C954 C 0.03726 0.17009 0.68179 0.0
C955 C 0.05846 0.16288 0.67265 0.0
C956 C 0.99751 0.14686 0.68235 0.0
C957 C 0.97827 0.11602 0.67379 0.0
C958 C 0.99974 0.10855 0.66483 0.0
C959 C 0.03936 0.13169 0.66428 0.0
H960 H 0.83167 0.36088 0.4861 0.0
H961 H 0.83819 0.37093 0.52752 0.0
H962 H 0.81665 0.41247 0.48501 0.0
H963 H 0.82235 0.42132 0.5265 0.0
H964 H 0.8134 0.5279 0.51985 0.0
H965 H 0.84018 0.4854 0.52017 0.0
H966 H 0.75985 0.41552 0.49075 0.0
H967 H 0.73378 0.45826 0.4903 0.0
C968 C 0.83078 0.37467 0.49492 0.0
C969 C 0.83572 0.36166 0.50688 0.0
C970 C 0.82171 0.40385 0.49433 0.0
C971 C 0.81767 0.42058 0.5057 0.0
C972 C 0.82534 0.40926 0.51757 0.0
C973 C 0.83423 0.38017 0.51815 0.0
C974 C 0.80133 0.50324 0.51356 0.0
C975 C 0.77154 0.4963 0.50506 0.0
C976 C 0.81674 0.479 0.51368 0.0
C977 C 0.80254 0.44735 0.50533 0.0
C978 C 0.77216 0.44015 0.49705 0.0
C979 C 0.75687 0.46435 0.49692 0.0
H980 H 0.50543 0.28545 0.48351 0.0
H981 H 0.51023 0.28449 0.52497 0.0
H982 H 0.5459 0.35413 0.48338 0.0
H983 H 0.55365 0.35354 0.52494 0.0
H984 H 0.61448 0.48047 0.52311 0.0
H985 H 0.56335 0.41413 0.52213 0.0
H986 H 0.60743 0.40161 0.4856 0.0
H987 H 0.65644 0.46852 0.48629 0.0
C988 C 0.51576 0.30004 0.49263 0.0
C989 C 0.50509 0.27969 0.50426 0.0
C990 C 0.53925 0.33958 0.49256 0.0
C991 C 0.55372 0.35986 0.50413 0.0
C992 C 0.54271 0.33929 0.51582 0.0
C993 C 0.51819 0.29964 0.51588 0.0
C994 C 0.6122 0.46365 0.51468 0.0
C995 C 0.63897 0.47958 0.50469 0.0
C996 C 0.58335 0.4254 0.51421 0.0
C997 C 0.58133 0.40187 0.5039 0.0
C998 C 0.60733 0.41859 0.49363 0.0
C999 C 0.63553 0.45713 0.49396 0.0
H1000 H 0.53341 0.18384 0.487 0.0
H1001 H 0.52391 0.13785 0.52513 0.0
H1002 H 0.59972 0.19955 0.486 0.0
H1003 H 0.5896 0.15108 0.52393 0.0
H1004 H 0.71995 0.22916 0.52515 0.0
H1005 H 0.65074 0.20283 0.52557 0.0
H1006 H 0.64608 0.18319 0.48448 0.0
H1007 H 0.71496 0.21194 0.48407 0.0
C1008 C 0.54513 0.17558 0.49494 0.0
C1009 C 0.52364 0.15961 0.50612 0.0
C1010 C 0.58331 0.18465 0.49442 0.0
C1011 C 0.60058 0.17715 0.50498 0.0
C1012 C 0.57787 0.15839 0.51576 0.0
C1013 C 0.53999 0.15018 0.51638 0.0
C1014 C 0.70385 0.21916 0.51627 0.0
C1015 C 0.72266 0.22313 0.50458 0.0
C1016 C 0.66414 0.20369 0.51647 0.0
C1017 C 0.64245 0.19099 0.50501 0.0
C1018 C 0.66157 0.19357 0.49344 0.0
C1019 C 0.70116 0.2099 0.49321 0.0
H1020 H 0.82713 0.43907 0.66558 0.0
H1021 H 0.83985 0.45744 0.7066 0.0
H1022 H 0.7844 0.4655 0.66498 0.0
H1023 H 0.79991 0.48641 0.70602 0.0
H1024 H 0.68662 0.48569 0.70339 0.0
H1025 H 0.73729 0.47016 0.70451 0.0
H1026 H 0.77476 0.51699 0.66635 0.0
H1027 H 0.72215 0.52996 0.66503 0.0
C1028 C 0.82119 0.44939 0.67441 0.0
C1029 C 0.83609 0.44569 0.68613 0.0
C1030 C 0.79704 0.46493 0.6741 0.0
C1031 C 0.78822 0.47799 0.6855 0.0
C1032 C 0.80488 0.47574 0.6971 0.0
C1033 C 0.82804 0.4593 0.69744 0.0
C1034 C 0.70639 0.49359 0.69541 0.0
C1035 C 0.70057 0.50901 0.68414 0.0
C1036 C 0.73557 0.48465 0.696 0.0
C1037 C 0.76014 0.49176 0.68543 0.0
C1038 C 0.75588 0.50997 0.67454 0.0
C1039 C 0.72611 0.51802 0.67384 0.0
H1040 H 0.51438 0.19731 0.70324 0.0
H1041 H 0.47392 0.19067 0.6644 0.0
H1042 H 0.53264 0.26422 0.70424 0.0
H1043 H 0.48925 0.257 0.6656 0.0
H1044 H 0.56765 0.38648 0.66503 0.0
H1045 H 0.54088 0.31735 0.66451 0.0
H1046 H 0.51971 0.31244 0.70551 0.0
H1047 H 0.5493 0.38134 0.70603 0.0
C1048 C 0.50782 0.20986 0.69512 0.0
C1049 C 0.4926 0.18892 0.68379 0.0
C1050 C 0.51835 0.24842 0.69564 0.0
C1051 C 0.51299 0.26667 0.68492 0.0
C1052 C 0.49502 0.24458 0.67391 0.0
C1053 C 0.48553 0.20632 0.67329 0.0
C1054 C 0.55742 0.37035 0.67389 0.0
C1055 C 0.56113 0.3891 0.68558 0.0
C1056 C 0.54159 0.33064 0.67362 0.0
C1057 C 0.52806 0.3088 0.685 0.0
C1058 C 0.53069 0.32794 0.6966 0.0
C1059 C 0.54752 0.36758 0.6969 0.0
H1060 H 0.80232 0.2978 0.66181 0.0
H1061 H 0.80924 0.30259 0.70329 0.0
H1062 H 0.73621 0.24685 0.66297 0.0
H1063 H 0.74269 0.25073 0.70451 0.0
H1064 H 0.61411 0.20969 0.70011 0.0
H1065 H 0.68313 0.25071 0.69948 0.0
H1066 H 0.68983 0.18137 0.6691 0.0
H1067 H 0.62024 0.1403 0.66966 0.0
C1068 C 0.7899 0.28719 0.6712 0.0
C1069 C 0.81072 0.30436 0.68248 0.0
C1070 C 0.75202 0.25784 0.67186 0.0
C1071 C 0.73401 0.24513 0.68382 0.0
C1072 C 0.75568 0.26043 0.69514 0.0
C1073 C 0.79386 0.28975 0.69447 0.0
C1074 C 0.6303 0.20325 0.69326 0.0
C1075 C 0.61185 0.17186 0.68492 0.0
C1076 C 0.66991 0.22647 0.69303 0.0
C1077 C 0.69206 0.21894 0.6844 0.0
C1078 C 0.67352 0.18788 0.67587 0.0
C1079 C 0.63374 0.1645 0.67613 0.0
H1080 H 0.59886 0.20941 0.19908 0.0
H1081 H 0.51771 0.13832 0.17012 0.0
H1082 H 0.57201 0.25147 0.19888 0.0
H1083 H 0.48984 0.17983 0.17015 0.0
H1084 H 0.4889 0.29242 0.16261 0.0
H1085 H 0.50476 0.24217 0.16367 0.0
H1086 H 0.51689 0.25565 0.20497 0.0
H1087 H 0.50225 0.30738 0.20383 0.0
C1088 C 0.5752 0.20283 0.19267 0.0
C1089 C 0.56046 0.17077 0.18458 0.0
C1090 C 0.55944 0.22661 0.19268 0.0
C1091 C 0.52834 0.21878 0.18465 0.0
C1092 C 0.51388 0.18683 0.17642 0.0
C1093 C 0.52989 0.16312 0.17635 0.0
C1094 C 0.49425 0.28427 0.17198 0.0
C1095 C 0.49489 0.30433 0.18313 0.0
C1096 C 0.50317 0.25519 0.17258 0.0
C1097 C 0.51281 0.24527 0.18437 0.0
C1098 C 0.51047 0.26324 0.19569 0.0
C1099 C 0.50156 0.29252 0.19507 0.0
H1100 H 0.86266 0.37969 0.17187 0.0
H1101 H 0.79147 0.38867 0.20099 0.0
H1102 H 0.8211 0.31031 0.17164 0.0
H1103 H 0.74949 0.31978 0.20057 0.0
H1104 H 0.70697 0.19871 0.16321 0.0
H1105 H 0.75802 0.26441 0.1648 0.0
H1106 H 0.745 0.25962 0.20617 0.0
H1107 H 0.69257 0.19352 0.20448 0.0
C1108 C 0.8379 0.36683 0.1781 0.0
C1109 C 0.83014 0.38945 0.18641 0.0
C1110 C 0.81418 0.32713 0.17802 0.0
C1111 C 0.78216 0.30939 0.1862 0.0
C1112 C 0.77438 0.3323 0.19439 0.0
C1113 C 0.79813 0.37184 0.19451 0.0
C1114 C 0.71545 0.2114 0.17269 0.0
C1115 C 0.69547 0.19117 0.18372 0.0
C1116 C 0.74496 0.2491 0.1736 0.0
C1117 C 0.75529 0.26754 0.18559 0.0
C1118 C 0.73718 0.2464 0.19675 0.0
C1119 C 0.70752 0.20843 0.19583 0.0
H1120 H 0.80526 0.51146 0.16252 0.0
H1121 H 0.80725 0.50342 0.20389 0.0
H1122 H 0.74116 0.5025 0.16346 0.0
H1123 H 0.74227 0.49261 0.2049 0.0
H1124 H 0.63208 0.49255 0.20454 0.0
H1125 H 0.69999 0.5157 0.20246 0.0
H1126 H 0.67863 0.45223 0.16695 0.0
H1127 H 0.61045 0.43071 0.16881 0.0
C1128 C 0.79202 0.50825 0.17186 0.0
C1129 C 0.81112 0.50814 0.18315 0.0
C1130 C 0.75508 0.50264 0.17238 0.0
C1131 C 0.73605 0.49613 0.18422 0.0
C1132 C 0.75603 0.49793 0.19559 0.0
C1133 C 0.79334 0.50418 0.19507 0.0
C1134 C 0.64202 0.48393 0.1962 0.0
C1135 C 0.61613 0.45963 0.18687 0.0
C1136 C 0.68097 0.49698 0.19506 0.0
C1137 C 0.695 0.48548 0.18466 0.0
C1138 C 0.66906 0.4621 0.17505 0.0
C1139 C 0.62996 0.44956 0.17609 0.0
H1140 H 0.61391 0.13652 0.02656 0.0
H1141 H 0.64389 0.17306 0.9872 0.0
H1142 H 0.56206 0.15069 0.02548 0.0
H1143 H 0.59406 0.1897 0.98626 0.0
H1144 H 0.49335 0.2055 0.98481 0.0
H1145 H 0.53175 0.17481 0.98557 0.0
H1146 H 0.55395 0.20327 0.02602 0.0
H1147 H 0.51275 0.23147 0.02529 0.0
C1148 C 0.60886 0.14694 0.01759 0.0
C1149 C 0.6327 0.15347 1.00693 0.0
C1150 C 0.57954 0.15569 0.01702 0.0
C1151 C 0.57401 0.17211 1.00587 0.0
C1152 C 0.59674 0.17663 0.99498 0.0
C1153 C 0.62545 0.16701 0.99547 0.0
C1154 C 0.50631 0.20492 0.99387 0.0
C1155 C 0.50062 0.2212 1.00497 0.0
C1156 C 0.52857 0.18749 0.99431 0.0
C1157 C 0.54669 0.18686 1.0058 0.0
C1158 C 0.54016 0.20256 0.01701 0.0
C1159 C 0.5169 0.21912 0.01662 0.0
H1160 H 0.72263 0.26906 0.99024 0.0
H1161 H 0.81138 0.28953 0.01761 0.0
H1162 H 0.74533 0.33708 0.98925 0.0
H1163 H 0.83384 0.35825 0.01682 0.0
H1164 H 0.88218 0.48337 1.0028 0.0
H1165 H 0.86422 0.41547 1.00164 0.0
H1166 H 0.74518 0.38343 1.0041 0.0
H1167 H 0.7631 0.4502 1.00517 0.0
C1168 C 0.74686 0.28817 0.99614 0.0
C1169 C 0.76512 0.27406 1.00406 0.0
C1170 C 0.75989 0.32715 0.99556 0.0
C1171 C 0.79145 0.35304 1.00292 0.0
C1172 C 0.80977 0.33898 1.01091 0.0
C1173 C 0.7966 0.29971 1.01151 0.0
C1174 C 0.85228 0.46159 1.00272 0.0
C1175 C 0.8239 0.47168 1.00383 0.0
C1176 C 0.842 0.42291 1.00225 0.0
C1177 C 0.80327 0.39415 1.00279 0.0
C1178 C 0.77517 0.40477 1.00348 0.0
C1179 C 0.7854 0.44301 1.00405 0.0
H1180 H 0.52641 0.36856 0.98741 0.0
H1181 H 0.53676 0.36653 0.02875 0.0
H1182 H 0.59206 0.4221 0.98625 0.0
H1183 H 0.60205 0.4189 0.02758 0.0
H1184 H 0.71581 0.52789 0.022 0.0
H1185 H 0.64643 0.48528 0.02276 0.0
H1186 H 0.65306 0.42484 0.98946 0.0
H1187 H 0.72168 0.46754 0.98859 0.0
C1188 C 0.54237 0.38005 0.99624 0.0
C1189 C 0.52669 0.36307 1.00813 0.0
C1190 C 0.58005 0.41041 0.99559 0.0
C1191 C 0.60249 0.42436 1.00682 0.0
C1192 C 0.58565 0.40905 0.01876 0.0
C1193 C 0.54824 0.37877 0.0194 0.0
C1194 C 0.70229 0.50538 0.0149 0.0
C1195 C 0.72403 0.50092 1.00526 0.0
C1196 C 0.66264 0.48109 0.01529 0.0
C1197 C 0.64413 0.45195 1.00606 0.0
C1198 C 0.66616 0.44754 0.99651 0.0
C1199 C 0.70559 0.47173 0.99611 0.0
H1200 H 0.4583 0.83852 0.81864 0.0
H1201 H 0.44161 0.82488 0.8597 0.0
H1202 H 0.48816 0.7994 0.81877 0.0
H1203 H 0.46907 0.78297 0.85984 0.0
H1204 H 0.53605 0.72299 0.85884 0.0
H1205 H 0.52128 0.77442 0.85803 0.0
H1206 H 0.47314 0.73711 0.81998 0.0
H1207 H 0.49032 0.68759 0.82059 0.0
C1208 C 0.46069 0.82665 0.82771 0.0
C1209 C 0.44725 0.83422 0.83916 0.0
C1210 C 0.47766 0.80396 0.82778 0.0
C1211 C 0.48072 0.78728 0.83926 0.0
C1212 C 0.46784 0.79561 0.8508 0.0
C1213 C 0.45172 0.81929 0.85076 0.0
C1214 C 0.52344 0.72674 0.85015 0.0
C1215 C 0.51459 0.70156 0.83973 0.0
C1216 C 0.51434 0.75583 0.84976 0.0
C1217 C 0.49528 0.7598 0.83905 0.0
C1218 C 0.48827 0.73562 0.82836 0.0
C1219 C 0.49819 0.70711 0.82865 0.0
H1220 H 0.14018 0.62118 0.85408 0.0
H1221 H 0.21091 0.61785 0.82359 0.0
H1222 H 0.18055 0.6908 0.85514 0.0
H1223 H 0.25132 0.68679 0.82474 0.0
H1224 H 0.30293 0.81218 0.82164 0.0
H1225 H 0.25153 0.74581 0.82008 0.0
H1226 H 0.2449 0.73837 0.86156 0.0
H1227 H 0.29532 0.80459 0.86311 0.0
C1228 C 0.1645 0.6353 0.84769 0.0
C1229 C 0.17243 0.61417 0.83875 0.0
C1230 C 0.18753 0.67513 0.84826 0.0
C1231 C 0.21885 0.69447 0.83988 0.0
C1232 C 0.22688 0.67303 0.83109 0.0
C1233 C 0.20398 0.63342 0.83054 0.0
C1234 C 0.28966 0.79672 0.8304 0.0
C1235 C 0.30352 0.81353 0.84249 0.0
C1236 C 0.26054 0.75855 0.82952 0.0
C1237 C 0.24465 0.73653 0.84071 0.0
C1238 C 0.2564 0.75439 0.85276 0.0
C1239 C 0.28549 0.79241 0.85363 0.0
H1240 H 0.38685 0.52667 0.85459 0.0
H1241 H 0.3942 0.60041 0.82334 0.0
H1242 H 0.31746 0.49914 0.85508 0.0
H1243 H 0.32523 0.57342 0.82392 0.0
H1244 H 0.19852 0.49907 0.82034 0.0
H1245 H 0.26519 0.51411 0.81926 0.0
H1246 H 0.2718 0.51931 0.86079 0.0
H1247 H 0.20556 0.50374 0.86183 0.0
C1248 C 0.37366 0.53721 0.84792 0.0
C1249 C 0.39583 0.56567 0.83894 0.0
C1250 C 0.33397 0.52137 0.84815 0.0
C1251 C 0.31579 0.53372 0.8394 0.0
C1252 C 0.3382 0.56259 0.83057 0.0
C1253 C 0.37776 0.5784 0.83035 0.0
C1254 C 0.21399 0.50237 0.8292 0.0
C1255 C 0.19706 0.50061 0.84115 0.0
C1256 C 0.25223 0.5114 0.82861 0.0
C1257 C 0.27392 0.51847 0.83995 0.0
C1258 C 0.25596 0.51393 0.85188 0.0
C1259 C 0.21801 0.50519 0.85247 0.0
H1260 H 0.45821 0.73634 0.03161 0.0
H1261 H 0.53342 0.81622 1.00313 0.0
H1262 H 0.41889 0.76619 0.03109 0.0
H1263 H 0.49404 0.84666 1.00268 0.0
H1264 H 0.38074 0.84972 0.99499 0.0
H1265 H 0.43027 0.83245 0.99594 0.0
H1266 H 0.42065 0.8253 0.03738 0.0
H1267 H 0.37025 0.84184 0.0364 0.0
C1268 C 0.46629 0.76032 0.02521 0.0
C1269 C 0.49887 0.77397 0.01742 0.0
C1270 C 0.44402 0.77776 0.02503 0.0
C1271 C 0.45371 0.8093 0.01703 0.0
C1272 C 0.48586 0.82245 1.00898 0.0
C1273 C 0.50829 0.80495 1.00918 0.0
C1274 C 0.38983 0.8454 1.00435 0.0
C1275 C 0.37122 0.84669 0.01562 0.0
C1276 C 0.41836 0.83559 1.00488 0.0
C1277 C 0.42887 0.82673 0.0167 0.0
C1278 C 0.41255 0.83117 0.02808 0.0
C1279 C 0.38404 0.84116 0.02755 0.0
H1280 H 0.27118 0.72299 0.03264 0.0
H1281 H 0.19028 0.71562 1.00401 0.0
H1282 H 0.24345 0.65398 0.03196 0.0
H1283 H 0.16177 0.64623 1.00352 0.0
H1284 H 0.15943 0.53201 0.99518 0.0
H1285 H 0.17688 0.59864 0.99655 0.0
H1286 H 0.18663 0.59495 0.03788 0.0
H1287 H 0.17013 0.5281 0.03646 0.0
C1288 C 0.24742 0.70654 0.02619 0.0
C1289 C 0.23294 0.72464 0.01836 0.0
C1290 C 0.23119 0.66693 0.02592 0.0
C1291 C 0.19999 0.64444 0.01783 0.0
C1292 C 0.18584 0.66269 1.00984 0.0
C1293 C 0.20222 0.70243 1.01008 0.0
C1294 C 0.16455 0.54513 1.00461 0.0
C1295 C 0.16384 0.52485 0.01571 0.0
C1296 C 0.17443 0.5834 1.00539 0.0
C1297 C 0.18381 0.60238 0.0173 0.0
C1298 C 0.18036 0.58134 0.02852 0.0
C1299 C 0.1704 0.5429 0.02774 0.0
H1300 H 0.28319 0.54016 0.03245 0.0
H1301 H 0.28863 0.47182 1.00149 0.0
H1302 H 0.35221 0.58108 0.03173 0.0
H1303 H 0.35823 0.51267 1.00087 0.0
H1304 H 0.47219 0.62781 0.99401 0.0
H1305 H 0.40573 0.57759 0.99502 0.0
H1306 H 0.41127 0.58108 0.03656 0.0
H1307 H 0.47793 0.63224 0.03553 0.0
C1308 C 0.29922 0.53389 0.02548 0.0
C1309 C 0.28056 0.50282 0.01702 0.0
C1310 C 0.33886 0.55708 0.02518 0.0
C1311 C 0.36087 0.54981 0.01639 0.0
C1312 C 0.3421 0.51905 1.00776 0.0
C1313 C 0.30228 0.49574 1.00807 0.0
C1314 C 0.45951 0.61733 1.00338 0.0
C1315 C 0.4802 0.63432 0.0147 0.0
C1316 C 0.42137 0.58837 1.00395 0.0
C1317 C 0.40296 0.57576 0.01586 0.0
C1318 C 0.42448 0.59074 0.02722 0.0
C1319 C 0.4628 0.61971 0.02664 0.0
H1320 H 0.20568 0.49409 0.53746 0.0
H1321 H 0.2327 0.51405 0.49707 0.0
H1322 H 0.17563 0.53306 0.53668 0.0
H1323 H 0.20523 0.55586 0.49635 0.0
H1324 H 0.13939 0.6167 0.49562 0.0
H1325 H 0.15322 0.56465 0.49668 0.0
H1326 H 0.19033 0.59515 0.53617 0.0
H1327 H 0.17387 0.64513 0.53524 0.0
C1328 C 0.20551 0.50733 0.52841 0.0
C1329 C 0.22188 0.5016 0.51735 0.0
C1330 C 0.18845 0.52993 0.52797 0.0
C1331 C 0.18828 0.54835 0.51651 0.0
C1332 C 0.20413 0.54185 0.50533 0.0
C1333 C 0.2203 0.51824 0.50572 0.0
C1334 C 0.14931 0.61127 0.50464 0.0
C1335 C 0.15532 0.63469 0.51538 0.0
C1336 C 0.15789 0.58184 0.5052 0.0
C1337 C 0.17371 0.57584 0.51642 0.0
C1338 C 0.17774 0.5982 0.52738 0.0
C1339 C 0.16823 0.62699 0.52689 0.0
H1340 H 0.45678 0.72365 0.53276 0.0
H1341 H 0.53074 0.71625 0.50439 0.0
H1342 H 0.41536 0.65472 0.53204 0.0
H1343 H 0.48958 0.64677 0.50384 0.0
H1344 H 0.37708 0.53252 0.49546 0.0
H1345 H 0.42691 0.59892 0.49683 0.0
H1346 H 0.41267 0.59575 0.5381 0.0
H1347 H 0.36164 0.52917 0.53667 0.0
C1348 C 0.46414 0.70718 0.52636 0.0
C1349 C 0.4969 0.72527 0.51861 0.0
C1350 C 0.44067 0.6676 0.52607 0.0
C1351 C 0.44942 0.64504 0.51805 0.0
C1352 C 0.48195 0.66327 0.51011 0.0
C1353 C 0.50545 0.70304 0.51038 0.0
C1354 C 0.38502 0.54569 0.50488 0.0
C1355 C 0.36499 0.52566 0.51595 0.0
C1356 C 0.41381 0.58384 0.50566 0.0
C1357 C 0.42336 0.60295 0.51754 0.0
C1358 C 0.40538 0.58208 0.52875 0.0
C1359 C 0.37648 0.54377 0.52797 0.0
H1360 H 0.47439 0.8389 0.53742 0.0
H1361 H 0.47098 0.84369 0.49596 0.0
H1362 H 0.40772 0.82385 0.53835 0.0
H1363 H 0.40469 0.82799 0.49682 0.0
H1364 H 0.28768 0.81599 0.50306 0.0
H1365 H 0.3573 0.84504 0.50308 0.0
H1366 H 0.34885 0.76555 0.53245 0.0
H1367 H 0.27974 0.73714 0.53254 0.0
C1368 C 0.45976 0.8378 0.52855 0.0
C1369 C 0.47766 0.8421 0.51663 0.0
C1370 C 0.42149 0.82872 0.52905 0.0
C1371 C 0.40072 0.82406 0.51763 0.0
C1372 C 0.41976 0.83144 0.50579 0.0
C1373 C 0.45776 0.84029 0.5053 0.0
C1374 C 0.3008 0.80466 0.50944 0.0
C1375 C 0.27839 0.77432 0.51779 0.0
C1376 C 0.34062 0.82137 0.50951 0.0
C1377 C 0.35867 0.80799 0.51792 0.0
C1378 C 0.336 0.77724 0.5261 0.0
C1379 C 0.29635 0.76061 0.52603 0.0
H1380 H 0.1374 0.51629 0.3543 0.0
H1381 H 0.21296 0.59731 0.32614 0.0
H1382 H 0.17699 0.48613 0.35466 0.0
H1383 H 0.25256 0.56776 0.3266 0.0
H1384 H 0.30243 0.49345 0.32121 0.0
H1385 H 0.25144 0.50913 0.32016 0.0
H1386 H 0.2406 0.50056 0.36155 0.0
H1387 H 0.29067 0.48408 0.36257 0.0
C1388 C 0.16265 0.52786 0.3483 0.0
C1389 C 0.17213 0.55909 0.34018 0.0
C1390 C 0.1852 0.51051 0.34846 0.0
C1391 C 0.21755 0.5241 0.34048 0.0
C1392 C 0.22728 0.55587 0.33259 0.0
C1393 C 0.20486 0.57314 0.33245 0.0
C1394 C 0.28824 0.49362 0.33002 0.0
C1395 C 0.30089 0.48799 0.34197 0.0
C1396 C 0.25939 0.5031 0.32945 0.0
C1397 C 0.24259 0.50695 0.34081 0.0
C1398 C 0.2529 0.49789 0.35263 0.0
C1399 C 0.28175 0.48854 0.3532 0.0
H1400 H 0.48285 0.62235 0.35226 0.0
H1401 H 0.39647 0.60934 0.325 0.0
H1402 H 0.50994 0.69158 0.35181 0.0
H1403 H 0.42281 0.67819 0.32475 0.0
H1404 H 0.49219 0.80447 0.3189 0.0
H1405 H 0.47746 0.7379 0.31776 0.0
H1406 H 0.49364 0.73798 0.35889 0.0
H1407 H 0.50916 0.80404 0.35992 0.0
C1408 C 0.46941 0.63428 0.3463 0.0
C1409 C 0.43752 0.61054 0.33869 0.0
C1410 C 0.48498 0.67391 0.34599 0.0
C1411 C 0.46883 0.69052 0.33812 0.0
C1412 C 0.43657 0.66652 0.33067 0.0
C1413 C 0.42114 0.62702 0.33095 0.0
C1414 C 0.49369 0.79048 0.32759 0.0
C1415 C 0.50147 0.80924 0.3395 0.0
C1416 C 0.48479 0.75227 0.32699 0.0
C1417 C 0.48379 0.73241 0.33828 0.0
C1418 C 0.49429 0.75228 0.35 0.0
C1419 C 0.503 0.79018 0.3506 0.0
H1420 H 0.19776 0.69209 0.3219 0.0
H1421 H 0.19426 0.71447 0.36234 0.0
H1422 H 0.26377 0.74287 0.32091 0.0
H1423 H 0.25983 0.76722 0.36127 0.0
H1424 H 0.3905 0.82094 0.35896 0.0
H1425 H 0.3215 0.7776 0.3603 0.0
H1426 H 0.3093 0.80592 0.32105 0.0
H1427 H 0.37806 0.8465 0.31958 0.0
C1428 C 0.21073 0.70891 0.33048 0.0
C1429 C 0.1909 0.69932 0.34219 0.0
C1430 C 0.24877 0.73822 0.32994 0.0
C1431 C 0.26769 0.75924 0.34106 0.0
C1432 C 0.24679 0.75115 0.35259 0.0
C1433 C 0.20897 0.72124 0.35317 0.0
C1434 C 0.37278 0.81767 0.35069 0.0
C1435 C 0.3894 0.83633 0.33912 0.0
C1436 C 0.33319 0.79316 0.35144 0.0
C1437 C 0.30945 0.78772 0.34072 0.0
C1438 C 0.32641 0.80821 0.32938 0.0
C1439 C 0.36589 0.83173 0.32854 0.0
H1440 H 0.21113 0.36314 0.171 0.0
H1441 H 0.21041 0.27689 0.19564 0.0
H1442 H 0.28065 0.39536 0.16997 0.0
H1443 H 0.27916 0.30723 0.19398 0.0
H1444 H 0.40621 0.3743 0.19367 0.0
H1445 H 0.34003 0.35546 0.19846 0.0
H1446 H 0.32713 0.38799 0.1599 0.0
H1447 H 0.39372 0.40929 0.15561 0.0
C1448 C 0.22588 0.35122 0.17625 0.0
C1449 C 0.20531 0.31749 0.18337 0.0
C1450 C 0.26576 0.36943 0.17557 0.0
C1451 C 0.2859 0.35377 0.18174 0.0
C1452 C 0.26513 0.32074 0.18926 0.0
C1453 C 0.22544 0.30308 0.19016 0.0
C1454 C 0.38927 0.37801 0.18635 0.0
C1455 C 0.40504 0.39321 0.17428 0.0
C1456 C 0.35116 0.36686 0.18902 0.0
C1457 C 0.32772 0.3698 0.17955 0.0
C1458 C 0.34409 0.38585 0.16757 0.0
C1459 C 0.38233 0.39774 0.16502 0.0
H1460 H 0.59378 0.98458 0.15419 0.0
H1461 H 0.62524 0.02744 0.19293 0.0
H1462 H 0.6181 0.94126 0.15776 0.0
H1463 H 0.64725 0.98226 0.19693 0.0
H1464 H 0.73046 0.93729 0.19367 0.0
H1465 H 0.69834 0.97412 0.19199 0.0
H1466 H 0.61275 0.88717 0.16733 0.0
H1467 H 0.64657 0.85145 0.16845 0.0
C1468 C 0.60519 0.98412 0.16358 0.0
C1469 C 0.60793 0.00958 0.17326 0.0
C1470 C 0.61888 0.95898 0.1657 0.0
C1471 C 0.63498 0.95817 0.17764 0.0
C1472 C 0.63597 0.98255 0.18751 0.0
C1473 C 0.62298 0.00825 0.18528 0.0
C1474 C 0.70453 0.92582 0.18801 0.0
C1475 C 0.69114 0.89158 0.18114 0.0
C1476 C 0.68585 0.94688 0.1871 0.0
C1477 C 0.65283 0.93389 0.17947 0.0
C1478 C 0.63853 0.89865 0.17305 0.0
C1479 C 0.65772 0.87795 0.17377 0.0
H1480 H 0.0659 0.79332 0.19401 0.0
H1481 H 0.15122 0.79237 0.16933 0.0
H1482 H 0.02771 0.7246 0.19252 0.0
H1483 H 0.11425 0.7228 0.16851 0.0
H1484 H 0.01674 0.60619 0.15596 0.0
H1485 H 0.06081 0.67374 0.1592 0.0
H1486 H 0.01673 0.66524 0.19776 0.0
H1487 H 0.97045 0.59828 0.19396 0.0
C1488 C 0.07699 0.77822 0.18853 0.0
C1489 C 0.1115 0.79822 0.18175 0.0
C1490 C 0.05512 0.73855 0.18773 0.0
C1491 C 0.06759 0.71763 0.18037 0.0
C1492 C 0.10309 0.73774 0.17403 0.0
C1493 C 0.12455 0.77763 0.17458 0.0
C1494 C 0.01664 0.61881 0.16514 0.0
C1495 C 0.99006 0.59709 0.17468 0.0
C1496 C 0.04225 0.65761 0.16708 0.0
C1497 C 0.04253 0.67548 0.17875 0.0
C1498 C 0.01691 0.65302 0.18851 0.0
C1499 C 0.99061 0.61443 0.18642 0.0
H1500 H 0.26904 0.20646 0.33125 0.0
H1501 H 0.36122 0.20889 0.35299 0.0
H1502 H 0.29886 0.27507 0.33298 0.0
H1503 H 0.39306 0.2784 0.35396 0.0
H1504 H 0.41495 0.39508 0.36744 0.0
H1505 H 0.39086 0.32747 0.36406 0.0
H1506 H 0.34496 0.33457 0.32716 0.0
H1507 H 0.36604 0.40137 0.33125 0.0
C1508 C 0.29634 0.2219 0.33612 0.0
C1509 C 0.3128 0.20233 0.342 0.0
C1510 C 0.31372 0.26151 0.33705 0.0
C1511 C 0.34863 0.28285 0.34362 0.0
C1512 C 0.36582 0.26316 0.34908 0.0
C1513 C 0.34782 0.2233 0.34843 0.0
C1514 C 0.39977 0.38211 0.35859 0.0
C1515 C 0.39239 0.4035 0.3496 0.0
C1516 C 0.38623 0.34328 0.35656 0.0
C1517 C 0.36568 0.325 0.34532 0.0
C1518 C 0.35976 0.34707 0.33609 0.0
C1519 C 0.3724 0.38567 0.33831 0.0
H1520 H 0.61137 0.01827 0.36839 0.0
H1521 H 0.59772 0.9772 0.32935 0.0
H1522 H 0.67828 0.06308 0.36436 0.0
H1523 H 0.66419 0.02405 0.32487 0.0
H1524 H 0.79348 0.07227 0.32697 0.0
H1525 H 0.72461 0.03466 0.32869 0.0
H1526 H 0.72556 0.11788 0.35509 0.0
H1527 H 0.79506 0.15412 0.35397 0.0
C1528 C 0.62258 0.01945 0.35883 0.0
C1529 C 0.59946 0.99403 0.3492 0.0
C1530 C 0.66102 0.04551 0.35645 0.0
C1531 C 0.67715 0.04742 0.34427 0.0
C1532 C 0.65329 0.02299 0.33447 0.0
C1533 C 0.61502 0.9963 0.33696 0.0
C1534 C 0.77892 0.08283 0.33299 0.0
C1535 C 0.79969 0.116 0.34041 0.0
C1536 C 0.73919 0.0613 0.33394 0.0
C1537 C 0.71907 0.07279 0.34214 0.0
C1538 C 0.7399 0.10737 0.34896 0.0
C1539 C 0.77978 0.12844 0.34823 0.0
H1540 H 0.91051 0.69976 0.32091 0.0
H1541 H 0.87375 0.66505 0.36008 0.0
H1542 H 0.9481 0.66784 0.32174 0.0
H1543 H 0.9123 0.63466 0.36111 0.0
H1544 H 0.05125 0.65626 0.33527 0.0
H1545 H 0.0056 0.67789 0.33133 0.0
H1546 H 0.92178 0.58468 0.35443 0.0
H1547 H 0.96817 0.56444 0.35883 0.0
C1548 C 0.91019 0.68505 0.32966 0.0
C1549 C 0.88924 0.6851 0.34045 0.0
C1550 C 0.932 0.66701 0.33018 0.0
C1551 C 0.9336 0.64887 0.34152 0.0
C1552 C 0.91142 0.64775 0.35213 0.0
C1553 C 0.88936 0.66543 0.35157 0.0
C1554 C 0.02293 0.6403 0.33939 0.0
C1555 C 0.01335 0.6091 0.34751 0.0
C1556 C 0.9966 0.65248 0.33707 0.0
C1557 C 0.96001 0.63332 0.34268 0.0
C1558 C 0.94994 0.60074 0.35021 0.0
C1559 C 0.97642 0.58897 0.35267 0.0
H1560 H 0.61475 0.59466 0.86734 0.0
H1561 H 0.6051 0.63614 0.8301 0.0
H1562 H 0.68201 0.61798 0.86356 0.0
H1563 H 0.67184 0.65683 0.82572 0.0
H1564 H 0.80124 0.73397 0.82921 0.0
H1565 H 0.73238 0.70403 0.83079 0.0
H1566 H 0.72949 0.61283 0.85343 0.0
H1567 H 0.79896 0.64463 0.85254 0.0
C1568 C 0.6269 0.60808 0.8582 0.0
C1569 C 0.60467 0.61362 0.84902 0.0
C1570 C 0.66556 0.62117 0.85594 0.0
C1571 C 0.68287 0.63945 0.8443 0.0
C1572 C 0.66001 0.64367 0.83492 0.0
C1573 C 0.62151 0.63135 0.83733 0.0
C1574 C 0.78582 0.70725 0.83439 0.0
C1575 C 0.8055 0.69175 0.84082 0.0
C1576 C 0.7461 0.68983 0.83525 0.0
C1577 C 0.72489 0.65594 0.84234 0.0
C1578 C 0.74466 0.6394 0.84818 0.0
C1579 C 0.78452 0.65738 0.84757 0.0
H1580 H 0.311 0.10027 0.822 0.0
H1581 H 0.33786 0.1294 0.86215 0.0
H1582 H 0.34223 0.06205 0.82286 0.0
H1583 H 0.36784 0.09041 0.86311 0.0
H1584 H 0.43922 0.03524 0.86067 0.0
H1585 H 0.41953 0.08228 0.85676 0.0
H1586 H 0.32923 0.00225 0.8318 0.0
H1587 H 0.35008 0.95579 0.83538 0.0
C1588 C 0.32388 0.09885 0.83099 0.0
C1589 C 0.32169 0.11777 0.84203 0.0
C1590 C 0.34153 0.07667 0.8315 0.0
C1591 C 0.3573 0.07277 0.84308 0.0
C1592 C 0.35649 0.09304 0.85397 0.0
C1593 C 0.33906 0.11536 0.85344 0.0
C1594 C 0.41543 0.02792 0.85423 0.0
C1595 C 0.39586 0.99177 0.84844 0.0
C1596 C 0.404 0.0548 0.85204 0.0
C1597 C 0.37243 0.04598 0.8441 0.0
C1598 C 0.35387 0.01025 0.83788 0.0
C1599 C 0.36559 0.98346 0.83998 0.0
H1600 H 0.85207 0.2092 0.85091 0.0
H1601 H 0.94248 0.20511 0.83025 0.0
H1602 H 0.88979 0.27866 0.85141 0.0
H1603 H 0.98134 0.27409 0.83146 0.0
H1604 H 0.04034 0.40161 0.82959 0.0
H1605 H 0.99513 0.3344 0.82537 0.0
H1606 H 0.94114 0.32632 0.8621 0.0
H1607 H 0.98434 0.39373 0.86572 0.0
C1608 C 0.88004 0.22325 0.84646 0.0
C1609 C 0.89432 0.20181 0.84054 0.0
C1610 C 0.90191 0.26309 0.84684 0.0
C1611 C 0.93907 0.28238 0.84162 0.0
C1612 C 0.95277 0.26068 0.83539 0.0
C1613 C 0.93051 0.22095 0.83475 0.0
C1614 C 0.0183 0.38547 0.83661 0.0
C1615 C 0.01579 0.40288 0.84795 0.0
C1616 C 0.99257 0.34678 0.83428 0.0
C1617 C 0.96431 0.32445 0.84341 0.0
C1618 C 0.96174 0.34237 0.85467 0.0
C1619 C 0.98687 0.38111 0.85684 0.0
H1620 H 0.57211 0.59875 0.65998 0.0
H1621 H 0.65303 0.60572 0.68849 0.0
H1622 H 0.59247 0.66584 0.66347 0.0
H1623 H 0.67487 0.67329 0.6916 0.0
H1624 H 0.69447 0.79028 0.70028 0.0
H1625 H 0.6624 0.72085 0.69926 0.0
H1626 H 0.64514 0.72541 0.65836 0.0
H1627 H 0.67564 0.79441 0.65952 0.0
C1628 C 0.59425 0.61473 0.66702 0.0
C1629 C 0.61126 0.59725 0.67388 0.0
C1630 C 0.60614 0.65325 0.66897 0.0
C1631 C 0.63571 0.67531 0.67771 0.0
C1632 C 0.65174 0.65726 0.6849 0.0
C1633 C 0.63945 0.61856 0.68307 0.0
C1634 C 0.6833 0.77635 0.69111 0.0
C1635 C 0.68778 0.7979 0.67998 0.0
C1636 C 0.66516 0.73653 0.6905 0.0
C1637 C 0.65142 0.71733 0.67871 0.0
C1638 C 0.65478 0.73896 0.66766 0.0
C1639 C 0.67251 0.77871 0.66831 0.0
H1640 H 0.39638 0.98027 0.6575 0.0
H1641 H 0.40209 0.03213 0.69433 0.0
H1642 H 0.32852 0.93743 0.66033 0.0
H1643 H 0.33452 0.98704 0.69779 0.0
H1644 H 0.2068 0.93867 0.69226 0.0
H1645 H 0.2758 0.976 0.69145 0.0
H1646 H 0.27829 0.88584 0.66979 0.0
H1647 H 0.20863 0.84981 0.66985 0.0
C1648 C 0.38319 0.98184 0.66637 0.0
C1649 C 0.40442 0.00965 0.67567 0.0
C1650 C 0.34416 0.95693 0.66808 0.0
C1651 C 0.3255 0.95857 0.67929 0.0
C1652 C 0.34742 0.98537 0.68888 0.0
C1653 C 0.38633 0.01099 0.687 0.0
C1654 C 0.22214 0.92671 0.68741 0.0
C1655 C 0.20239 0.89143 0.68106 0.0
C1656 C 0.26193 0.94804 0.68702 0.0
C1657 C 0.28313 0.93424 0.68053 0.0
C1658 C 0.26317 0.89803 0.67462 0.0
C1659 C 0.22322 0.87713 0.67473 0.0
H1660 H 0.01992 0.41042 0.65618 0.0
H1661 H 0.9698 0.36854 0.69352 0.0
H1662 H 0.06411 0.38724 0.65971 0.0
H1663 H 0.01606 0.34788 0.69761 0.0
H1664 H 0.0666 0.26985 0.69346 0.0
H1665 H 0.02819 0.30021 0.69205 0.0
H1666 H 0.11695 0.39178 0.66967 0.0
H1667 H 0.15429 0.35955 0.67041 0.0
C1668 C 0.01895 0.39692 0.66528 0.0
C1669 C 0.9913 0.39105 0.67455 0.0
C1670 C 0.04463 0.38392 0.66739 0.0
C1671 C 0.04388 0.36542 0.67896 0.0
C1672 C 0.0171 0.36111 0.68846 0.0
C1673 C 0.99078 0.37332 0.68619 0.0
C1674 C 0.07815 0.29672 0.68837 0.0
C1675 C 0.11341 0.31226 0.68199 0.0
C1676 C 0.05613 0.3144 0.68762 0.0
C1677 C 0.06914 0.34859 0.6807 0.0
C1678 C 0.10539 0.36504 0.67483 0.0
C1679 C 0.12705 0.3468 0.67533 0.0
H1680 H 0.87302 0.6057 0.52778 0.0
H1681 H 0.87627 0.69543 0.50442 0.0
H1682 H 0.94182 0.63499 0.52619 0.0
H1683 H 0.9457 0.72668 0.50355 0.0
H1684 H 0.05913 0.74295 0.48923 0.0
H1685 H 0.99221 0.72051 0.49327 0.0
H1686 H 0.00288 0.68141 0.53101 0.0
H1687 H 0.06935 0.70126 0.52638 0.0
C1688 C 0.88868 0.63243 0.52263 0.0
C1689 C 0.86931 0.64821 0.51616 0.0
C1690 C 0.92835 0.64946 0.52175 0.0
C1691 C 0.94979 0.68322 0.51462 0.0
C1692 C 0.93034 0.70015 0.50881 0.0
C1693 C 0.89052 0.68252 0.50941 0.0
C1694 C 0.04715 0.72964 0.4984 0.0
C1695 C 0.06939 0.72374 0.50748 0.0
C1696 C 0.0087 0.71708 0.50081 0.0
C1697 C 0.99164 0.69905 0.51251 0.0
C1698 C 0.01451 0.6944 0.52178 0.0
C1699 C 0.05282 0.70616 0.51921 0.0
H1700 H 0.40233 0.27455 0.52711 0.0
H1701 H 0.30932 0.18381 0.50596 0.0
H1702 H 0.37222 0.3132 0.52531 0.0
H1703 H 0.27752 0.22146 0.50485 0.0
H1704 H 0.25784 0.31625 0.48988 0.0
H1705 H 0.28156 0.27277 0.49396 0.0
H1706 H 0.32547 0.32694 0.53085 0.0
H1707 H 0.30424 0.3724 0.52615 0.0
C1708 C 0.37483 0.26244 0.52236 0.0
C1709 C 0.35828 0.2262 0.51661 0.0
C1710 C 0.35733 0.2846 0.52139 0.0
C1711 C 0.32234 0.27081 0.51485 0.0
C1712 C 0.30489 0.23363 0.50966 0.0
C1713 C 0.32288 0.21178 0.5104 0.0
C1714 C 0.27247 0.31876 0.49888 0.0
C1715 C 0.27924 0.34777 0.5077 0.0
C1716 C 0.28578 0.29347 0.50131 0.0
C1717 C 0.30559 0.29603 0.51277 0.0
C1718 C 0.31108 0.32437 0.5218 0.0
C1719 C 0.29847 0.35023 0.51921 0.0
H1720 H 0.70322 0.93241 0.4979 0.0
H1721 H 0.62487 0.94288 0.52344 0.0
H1722 H 0.75056 0.99921 0.50164 0.0
H1723 H 0.67135 0.01015 0.52676 0.0
H1724 H 0.76769 0.12743 0.53565 0.0
H1725 H 0.73047 0.05789 0.53529 0.0
H1726 H 0.75918 0.0586 0.49518 0.0
H1727 H 0.79735 0.12758 0.4957 0.0
C1728 C 0.69621 0.94907 0.50436 0.0
C1729 C 0.66027 0.93268 0.51027 0.0
C1730 C 0.72325 0.98742 0.50644 0.0
C1731 C 0.71472 0.01042 0.51436 0.0
C1732 C 0.67921 0.99339 0.52071 0.0
C1733 C 0.65235 0.95485 0.51874 0.0
C1734 C 0.7666 0.11265 0.52682 0.0
C1735 C 0.78538 0.13316 0.51568 0.0
C1736 C 0.74497 0.07275 0.52659 0.0
C1737 C 0.74138 0.05244 0.51518 0.0
C1738 C 0.76158 0.07301 0.50421 0.0
C1739 C 0.78344 0.1128 0.50448 0.0
H1740 H 0.10192 0.73539 0.69345 0.0
H1741 H 0.01445 0.72595 0.66739 0.0
H1742 H 0.08204 0.66854 0.68979 0.0
H1743 H 0.99321 0.65846 0.66411 0.0
H1744 H 0.97359 0.54099 0.65529 0.0
H1745 H 0.00509 0.61051 0.65576 0.0
H1746 H 0.03031 0.60948 0.69615 0.0
H1747 H 1.00028 0.54059 0.69556 0.0
C1748 C 0.07845 0.71893 0.6869 0.0
C1749 C 0.0594 0.73562 0.68082 0.0
C1750 C 0.06687 0.68054 0.68485 0.0
C1751 C 0.03559 0.65778 0.67681 0.0
C1752 C 0.0176 0.67507 0.67028 0.0
C1753 C 0.02956 0.71369 0.67222 0.0
C1754 C 0.98644 0.55569 0.66422 0.0
C1755 C 0.98421 0.53512 0.6754 0.0
C1756 C 0.00424 0.59557 0.66451 0.0
C1757 C 0.02007 0.61576 0.67601 0.0
C1758 C 0.01902 0.59514 0.68705 0.0
C1759 C 1.00151 0.55541 0.68674 0.0
H1760 H 0.27771 0.35284 0.69974 0.0
H1761 H 0.26852 0.2994 0.66295 0.0
H1762 H 0.34497 0.39659 0.69593 0.0
H1763 H 0.33534 0.34519 0.65856 0.0
H1764 H 0.46414 0.39541 0.66299 0.0
H1765 H 0.39528 0.35744 0.66437 0.0
H1766 H 0.39285 0.44855 0.6854 0.0
H1767 H 0.46243 0.48552 0.68469 0.0
C1768 C 0.28997 0.35102 0.69068 0.0
C1769 C 0.26792 0.32261 0.68165 0.0
C1770 C 0.3286 0.37646 0.68841 0.0
C1771 C 0.34603 0.37466 0.67692 0.0
C1772 C 0.32334 0.3471 0.66765 0.0
C1773 C 0.28483 0.32107 0.67007 0.0
C1774 C 0.44888 0.40754 0.66778 0.0
C1775 C 0.4687 0.44335 0.67381 0.0
C1776 C 0.40916 0.38579 0.66851 0.0
C1777 C 0.38808 0.39961 0.67507 0.0
C1778 C 0.40798 0.43641 0.68055 0.0
C1779 C 0.44788 0.45783 0.68006 0.0
H1780 H 0.63768 0.90101 0.69369 0.0
H1781 H 0.71923 0.99081 0.66915 0.0
H1782 H 0.59159 0.92185 0.68974 0.0
H1783 H 0.67375 0.01303 0.6656 0.0
H1784 H 0.57631 0.0336 0.65603 0.0
H1785 H 0.61469 0.00241 0.65659 0.0
H1786 H 0.58449 0.97338 0.69656 0.0
H1787 H 0.54537 0.00307 0.69586 0.0
C1788 C 0.64567 0.92524 0.68742 0.0
C1789 C 0.68211 0.94464 0.68186 0.0
C1790 C 0.61935 0.93736 0.68521 0.0
C1791 C 0.62908 0.96957 0.67752 0.0
C1792 C 0.6651 0.98796 0.67149 0.0
C1793 C 0.6913 0.97545 0.67359 0.0
C1794 C 0.57741 0.02 0.66487 0.0
C1795 C 0.5578 0.02098 0.67591 0.0
C1796 C 0.59968 0.00238 0.66522 0.0
C1797 C 0.60291 0.98546 0.67663 0.0
C1798 C 0.58229 0.98549 0.68752 0.0
C1799 C 0.55993 0.00282 0.68715 0.0
H1800 H 0.27763 0.92592 0.20052 0.0
H1801 H 0.266 0.96753 0.16354 0.0
H1802 H 0.34439 0.94825 0.19616 0.0
H1803 H 0.33238 0.98747 0.15861 0.0
H1804 H 0.46215 0.06383 0.16163 0.0
H1805 H 0.39348 0.03432 0.1635 0.0
H1806 H 0.3905 0.94195 0.18544 0.0
H1807 H 0.45994 0.97327 0.18425 0.0
C1808 C 0.28928 0.93923 0.19132 0.0
C1809 C 0.26672 0.94517 0.18239 0.0
C1810 C 0.32761 0.95172 0.18872 0.0
C1811 C 0.34424 0.96978 0.17699 0.0
C1812 C 0.32104 0.97444 0.16786 0.0
C1813 C 0.28283 0.96269 0.1706 0.0
C1814 C 0.44678 0.03692 0.1667 0.0
C1815 C 0.46646 0.02097 0.17287 0.0
C1816 C 0.40715 0.01976 0.16773 0.0
C1817 C 0.38601 0.98572 0.17473 0.0
C1818 C 0.40569 0.96866 0.18027 0.0
C1819 C 0.44551 0.98636 0.17949 0.0
H1820 H 0.02339 0.48273 0.18928 0.0
H1821 H 0.942 0.40061 0.16256 0.0
H1822 H 0.05711 0.4469 0.19004 0.0
H1823 H 0.97379 0.36336 0.16391 0.0
H1824 H 0.04663 0.30916 0.16303 0.0
H1825 H 0.02429 0.3543 0.15936 0.0
H1826 H 0.05159 0.39243 0.19887 0.0
H1827 H 0.07627 0.34937 0.2021 0.0
C1828 C 0.01278 0.457 0.18356 0.0
C1829 C 0.98012 0.44449 0.17586 0.0
C1830 C 0.03186 0.43617 0.18407 0.0
C1831 C 0.01811 0.40174 0.17716 0.0
C1832 C 0.98588 0.38993 0.16921 0.0
C1833 C 0.9674 0.41124 0.16847 0.0
C1834 C 0.04833 0.3277 0.17082 0.0
C1835 C 0.06309 0.32572 0.18283 0.0
C1836 C 0.03518 0.35338 0.16879 0.0
C1837 C 0.03568 0.37708 0.17883 0.0
C1838 C 0.05126 0.37541 0.19078 0.0
C1839 C 0.06516 0.35037 0.1927 0.0
H1840 H 0.51923 0.54274 0.18616 0.0
H1841 H 0.61065 0.53937 0.1659 0.0
H1842 H 0.55706 0.61225 0.18696 0.0
H1843 H 0.64934 0.6082 0.16734 0.0
H1844 H 0.70668 0.73496 0.16458 0.0
H1845 H 0.66158 0.66762 0.16072 0.0
H1846 H 0.60874 0.66079 0.19758 0.0
H1847 H 0.65197 0.72853 0.20086 0.0
C1848 C 0.54743 0.55692 0.18189 0.0
C1849 C 0.56193 0.53568 0.17594 0.0
C1850 C 0.56932 0.59677 0.18242 0.0
C1851 C 0.60656 0.61619 0.17728 0.0
C1852 C 0.62063 0.59467 0.17117 0.0
C1853 C 0.59846 0.555 0.1704 0.0
C1854 C 0.68491 0.7191 0.17171 0.0
C1855 C 0.68275 0.73693 0.18299 0.0
C1856 C 0.65927 0.68033 0.16959 0.0
C1857 C 0.63147 0.65832 0.17888 0.0
C1858 C 0.62911 0.67664 0.19007 0.0
C1859 C 0.6542 0.71552 0.19204 0.0
H1860 H 0.23567 0.93186 0.99673 0.0
H1861 H 0.32396 0.94185 0.02251 0.0
H1862 H 0.25566 0.99878 1.00026 0.0
H1863 H 0.34521 0.00942 0.02569 0.0
H1864 H 0.36367 0.1265 0.03465 0.0
H1865 H 0.33271 0.05704 0.03414 0.0
H1866 H 0.30746 0.05797 0.99376 0.0
H1867 H 0.33708 0.12689 0.99436 0.0
C1868 C 0.25935 0.94845 1.0032 0.0
C1869 C 0.27858 0.93189 1.00923 0.0
C1870 C 0.27097 0.98688 1.00517 0.0
C1871 C 0.30245 0.00979 0.01311 0.0
C1872 C 0.32067 0.99266 0.01959 0.0
C1873 C 0.3087 0.954 0.01772 0.0
C1874 C 0.35095 0.1118 0.02571 0.0
C1875 C 0.35304 0.13236 0.01453 0.0
C1876 C 0.33346 0.07196 0.0254 0.0
C1877 C 0.31778 0.05177 0.01389 0.0
C1878 C 0.31868 0.07234 1.00285 0.0
C1879 C 0.33591 0.11206 1.00318 0.0
H1880 H 0.06876 0.36674 0.02603 0.0
H1881 H 0.05897 0.3176 0.98839 0.0
H1882 H 1.00122 0.32199 0.02996 0.0
H1883 H 0.99132 0.2748 0.99183 0.0
H1884 H 0.87368 0.18473 1.00275 0.0
H1885 H 0.94322 0.22184 1.0019 0.0
H1886 H 0.94126 0.31099 0.02432 0.0
H1887 H 0.87231 0.27284 0.02578 0.0
C1888 C 0.05211 0.34635 0.01861 0.0
C1889 C 0.06907 0.34567 1.00692 0.0
C1890 C 0.01327 0.32088 0.02078 0.0
C1891 C 0.99037 0.29467 1.01119 0.0
C1892 C 0.00782 0.29383 0.99958 0.0
C1893 C 0.0467 0.31873 0.99753 0.0
C1894 C 0.88829 0.21206 1.00762 0.0
C1895 C 0.86756 0.22587 0.01431 0.0
C1896 C 0.92819 0.23356 1.00706 0.0
C1897 C 0.94822 0.26981 0.01293 0.0
C1898 C 0.92725 0.28306 0.01986 0.0
C1899 C 0.8875 0.26122 0.02064 0.0
H1900 H 0.82599 0.69913 1.00772 0.0
H1901 H 0.73704 0.60696 0.02959 0.0
H1902 H 0.78839 0.73107 1.00715 0.0
H1903 H 0.69819 0.6368 0.02822 0.0
H1904 H 0.6355 0.70095 0.02847 0.0
H1905 H 0.68236 0.68161 0.03334 0.0
H1906 H 0.73738 0.72764 0.99674 0.0
H1907 H 0.69274 0.74974 0.99258 0.0
C1908 C 0.79845 0.68584 0.01246 0.0
C1909 C 0.7845 0.65065 0.01871 0.0
C1910 C 0.77657 0.70386 0.01202 0.0
C1911 C 0.73967 0.68645 0.01746 0.0
C1912 C 0.72652 0.65176 0.0241 0.0
C1913 C 0.74883 0.63437 0.02484 0.0
C1914 C 0.65816 0.70752 0.02163 0.0
C1915 C 0.66055 0.7269 1.01018 0.0
C1916 C 0.68487 0.69604 0.02432 0.0
C1917 C 0.71386 0.70261 0.01541 0.0
C1918 C 0.71629 0.72261 1.00403 0.0
C1919 C 0.6903 0.73499 1.00154 0.0
H1920 H 0.74041 0.04462 0.86013 0.0
H1921 H 0.72831 0.07471 0.82128 0.0
H1922 H 0.67358 0.02413 0.86432 0.0
H1923 H 0.66104 0.05162 0.825 0.0
H1924 H 0.54319 0.02428 0.8353 0.0
H1925 H 0.61271 0.05754 0.83416 0.0
H1926 H 0.61367 0.97426 0.86006 0.0
H1927 H 0.5448 0.943 0.86181 0.0
C1928 C 0.72339 0.04692 0.8525 0.0
C1929 C 0.73948 0.06123 0.84039 0.0
C1930 C 0.68489 0.03475 0.85483 0.0
C1931 C 0.66134 0.03567 0.84497 0.0
C1932 C 0.67802 0.05096 0.83294 0.0
C1933 C 0.71668 0.06395 0.83074 0.0
C1934 C 0.55848 0.01358 0.84089 0.0
C1935 C 0.53858 0.98106 0.84863 0.0
C1936 C 0.59838 0.03241 0.84016 0.0
C1937 C 0.61925 0.01855 0.8469 0.0
C1938 C 0.59908 0.98647 0.8549 0.0
C1939 C 0.55935 0.96826 0.85586 0.0
H1940 H 0.98554 0.70962 0.85641 0.0
H1941 H 0.90354 0.63637 0.82804 0.0
H1942 H 0.00605 0.66296 0.85961 0.0
H1943 H 0.92263 0.58865 0.83162 0.0
H1944 H 0.02654 0.56616 0.86772 0.0
H1945 H 0.99352 0.60271 0.86713 0.0
H1946 H 0.97513 0.58172 0.82623 0.0
H1947 H 0.0065 0.54412 0.82693 0.0
C1948 C 0.97139 0.68315 0.85105 0.0
C1949 C 0.94338 0.67679 0.84184 0.0
C1950 C 0.98291 0.65617 0.85294 0.0
C1951 C 0.9663 0.62204 0.84578 0.0
C1952 C 0.93672 0.61494 0.83708 0.0
C1953 C 0.92559 0.64215 0.83508 0.0
C1954 C 0.01484 0.56883 0.85865 0.0
C1955 C 0.01942 0.55239 0.84736 0.0
C1956 C 0.99614 0.59005 0.85829 0.0
C1957 C 0.98189 0.59559 0.84661 0.0
C1958 C 0.98515 0.57774 0.83545 0.0
C1959 C 0.00346 0.55626 0.83583 0.0
H1960 H 0.35426 0.27859 0.82221 0.0
H1961 H 0.30313 0.2691 0.85945 0.0
H1962 H 0.3982 0.34584 0.82599 0.0
H1963 H 0.34902 0.33606 0.86375 0.0
H1964 H 0.40156 0.46534 0.86015 0.0
H1965 H 0.36229 0.39663 0.85844 0.0
H1966 H 0.45106 0.39303 0.83631 0.0
H1967 H 0.48929 0.46245 0.83737 0.0
C1968 C 0.35294 0.29083 0.83134 0.0
C1969 C 0.32515 0.2687 0.84051 0.0
C1970 C 0.37848 0.32947 0.83359 0.0
C1971 C 0.37748 0.34686 0.84521 0.0
C1972 C 0.35033 0.32413 0.85457 0.0
C1973 C 0.32419 0.2856 0.85218 0.0
C1974 C 0.4129 0.44983 0.85505 0.0
C1975 C 0.44846 0.46933 0.84884 0.0
C1976 C 0.39038 0.41019 0.85412 0.0
C1977 C 0.40313 0.38882 0.84716 0.0
C1978 C 0.43966 0.40837 0.84148 0.0
C1979 C 0.46184 0.44819 0.84217 0.0
H1980 H 0.64451 0.87589 0.99001 0.0
H1981 H 0.66188 0.87313 0.03096 0.0
H1982 H 0.67628 0.94534 0.9908 0.0
H1983 H 0.69227 0.94212 0.03182 0.0
H1984 H 0.76595 0.06871 0.02962 0.0
H1985 H 0.74584 0.00156 0.02636 0.0
H1986 H 0.66246 0.99265 0.9984 0.0
H1987 H 0.68378 0.06019 1.00135 0.0
C1988 C 0.65532 0.89007 0.99917 0.0
C1989 C 0.65043 0.86887 1.01044 0.0
C1990 C 0.67331 0.92991 0.99963 0.0
C1991 C 0.68662 0.94945 1.01139 0.0
C1992 C 0.68291 0.92823 0.02256 0.0
C1993 C 0.66521 0.88848 0.02208 0.0
C1994 C 0.74364 0.05241 0.02267 0.0
C1995 C 0.72615 0.06945 0.01583 0.0
C1996 C 0.73193 0.01388 0.02085 0.0
C1997 C 0.70218 0.99144 0.01222 0.0
C1998 C 0.68571 0.00904 1.00502 0.0
C1999 C 0.69772 0.0477 1.00676 0.0
H2000 H 0.93531 0.63743 0.99799 0.0
H2001 H 0.94337 0.68289 0.03614 0.0
H2002 H 0.00257 0.68285 0.99439 0.0
H2003 H 0.01124 0.7262 0.03308 0.0
H2004 H 0.13044 0.81631 0.02283 0.0
H2005 H 0.06082 0.77965 0.02378 0.0
H2006 H 0.06157 0.69247 0.99984 0.0
H2007 H 0.13039 0.73028 0.99826 0.0
C2008 C 0.9515 0.65727 1.00559 0.0
C2009 C 0.93408 0.65668 0.01731 0.0
C2010 C 0.99029 0.68306 1.00362 0.0
C2011 C 0.01289 0.70818 0.01349 0.0
C2012 C 0.995 0.70795 0.02514 0.0
C2013 C 0.95602 0.68279 0.02697 0.0
C2014 C 0.11548 0.78953 0.01765 0.0
C2015 C 0.13581 0.77623 1.01044 0.0
C2016 C 0.07556 0.76827 0.01826 0.0
C2017 C 0.05515 0.73276 0.01194 0.0
C2018 C 0.0758 0.71993 1.00461 0.0
C2019 C 0.11551 0.74156 1.00376 0.0
H2020 H 0.23921 0.36316 0.98793 0.0
H2021 H 0.20473 0.33099 0.0274 0.0
H2022 H 0.27687 0.33136 0.98876 0.0
H2023 H 0.24355 0.30082 0.02846 0.0
H2024 H 0.301 0.23169 0.02641 0.0
H2025 H 0.2539 0.25122 0.02233 0.0
H2026 H 0.33474 0.34207 0.99776 0.0
H2027 H 0.38093 0.32103 1.00138 0.0
C2028 C 0.23943 0.34903 0.99675 0.0
C2029 C 0.21909 0.34972 1.00761 0.0
C2030 C 0.26131 0.33106 0.99727 0.0
C2031 C 0.26374 0.31378 1.00872 0.0
C2032 C 0.24208 0.31325 0.01941 0.0
C2033 C 0.21983 0.33076 0.01883 0.0
C2034 C 0.30841 0.25553 0.02001 0.0
C2035 C 0.34466 0.27512 0.01431 0.0
C2036 C 0.28153 0.26693 0.01773 0.0
C2037 C 0.29053 0.29863 1.00985 0.0
C2038 C 0.32647 0.31729 1.00376 0.0
C2039 C 0.35315 0.30545 1.0059 0.0
H2040 H 0.12792 0.30738 0.51887 0.0
H2041 H 0.12783 0.39586 0.49569 0.0
H2042 H 0.05829 0.27428 0.5198 0.0
H2043 H 0.05914 0.3648 0.49733 0.0
H2044 H 0.93316 0.29675 0.49625 0.0
H2045 H 0.99973 0.31716 0.49196 0.0
H2046 H 0.00918 0.27723 0.52969 0.0
H2047 H 0.94177 0.25381 0.53334 0.0
C2048 C 0.11296 0.31966 0.51395 0.0
C2049 C 0.13329 0.35411 0.50719 0.0
C2050 C 0.07302 0.30094 0.51458 0.0
C2051 C 0.05262 0.3168 0.50872 0.0
C2052 C 0.07328 0.35095 0.50173 0.0
C2053 C 0.11297 0.36906 0.50085 0.0
C2054 C 0.94931 0.29155 0.50346 0.0
C2055 C 0.93223 0.27358 0.51508 0.0
C2056 C 0.98777 0.30378 0.50111 0.0
C2057 C 0.01047 0.29946 0.51053 0.0
C2058 C 0.99288 0.28064 0.52207 0.0
C2059 C 0.95416 0.26749 0.52425 0.0
H2060 H 0.69309 0.8202 0.52224 0.0
H2061 H 0.60894 0.73669 0.49654 0.0
H2062 H 0.7271 0.78458 0.52249 0.0
H2063 H 0.64072 0.69951 0.49749 0.0
H2064 H 0.7108 0.64361 0.49556 0.0
H2065 H 0.68944 0.68949 0.4922 0.0
H2066 H 0.72455 0.73152 0.53103 0.0
H2067 H 0.74889 0.68805 0.53378 0.0
C2068 C 0.68192 0.79417 0.51665 0.0
C2069 C 0.64852 0.78127 0.50934 0.0
C2070 C 0.70115 0.77345 0.51687 0.0
C2071 C 0.68673 0.73871 0.51009 0.0
C2072 C 0.65351 0.72638 0.50262 0.0
C2073 C 0.63498 0.74763 0.50212 0.0
C2074 C 0.71471 0.66333 0.50322 0.0
C2075 C 0.73158 0.66231 0.51489 0.0
C2076 C 0.70195 0.68938 0.50141 0.0
C2077 C 0.70461 0.71422 0.51139 0.0
C2078 C 0.72243 0.7136 0.52298 0.0
C2079 C 0.73615 0.68831 0.52463 0.0
H2080 H 0.18619 0.87538 0.52118 0.0
H2081 H 0.27223 0.87478 0.49681 0.0
H2082 H 0.22368 0.94481 0.52249 0.0
H2083 H 0.31094 0.94348 0.49877 0.0
H2084 H 0.36805 0.07025 0.49791 0.0
H2085 H 0.32245 0.00334 0.49382 0.0
H2086 H 0.27691 0.99316 0.53223 0.0
H2087 H 0.3204 0.06076 0.53576 0.0
C2088 C 0.21314 0.89018 0.5161 0.0
C2089 C 0.22622 0.86971 0.50887 0.0
C2090 C 0.23491 0.93 0.51694 0.0
C2091 C 0.27076 0.9502 0.51083 0.0
C2092 C 0.2833 0.92945 0.5034 0.0
C2093 C 0.26113 0.88981 0.50232 0.0
C2094 C 0.34769 0.05382 0.50534 0.0
C2095 C 0.34764 0.07078 0.51711 0.0
C2096 C 0.32179 0.0152 0.50309 0.0
C2097 C 0.29589 0.99228 0.51272 0.0
C2098 C 0.2957 0.00966 0.52445 0.0
C2099 C 0.32097 0.04849 0.52655 0.0
H2100 H 0.0287 0.45832 0.36779 0.0
H2101 H 0.00513 0.46062 0.32733 0.0
H2102 H 0.99517 0.38879 0.36719 0.0
H2103 H 0.97301 0.39148 0.3266 0.0
H2104 H 0.89825 0.26537 0.32915 0.0
H2105 H 0.91977 0.33274 0.33266 0.0
H2106 H 0.006 0.34025 0.35908 0.0
H2107 H 0.98325 0.27254 0.35593 0.0
C2108 C 0.01618 0.444 0.35878 0.0
C2109 C 0.0198 0.46507 0.34759 0.0
C2110 C 0.99716 0.40411 0.35842 0.0
C2111 C 0.98158 0.38437 0.34683 0.0
C2112 C 0.98409 0.40552 0.33576 0.0
C2113 C 0.00278 0.44534 0.33615 0.0
C2114 C 0.92145 0.2814 0.33585 0.0
C2115 C 0.93937 0.26393 0.34217 0.0
C2116 C 0.93397 0.32006 0.3378 0.0
C2117 C 0.96501 0.34222 0.34602 0.0
C2118 C 0.9818 0.32414 0.35277 0.0
C2119 C 0.96896 0.28534 0.35092 0.0
H2120 H 0.73723 0.70267 0.35865 0.0
H2121 H 0.72848 0.64983 0.32179 0.0
H2122 H 0.66998 0.65777 0.36272 0.0
H2123 H 0.66083 0.60712 0.32523 0.0
H2124 H 0.54241 0.51836 0.33624 0.0
H2125 H 0.61197 0.55541 0.33524 0.0
H2126 H 0.61029 0.64562 0.35712 0.0
H2127 H 0.54152 0.60742 0.35883 0.0
C2128 C 0.72089 0.68138 0.35144 0.0
C2129 C 0.73812 0.67966 0.33995 0.0
C2130 C 0.68211 0.65586 0.35366 0.0
C2131 C 0.65941 0.62869 0.34427 0.0
C2132 C 0.67711 0.62688 0.33284 0.0
C2133 C 0.71601 0.65173 0.33078 0.0
C2134 C 0.55716 0.54591 0.34097 0.0
C2135 C 0.53659 0.55994 0.34763 0.0
C2136 C 0.59706 0.56741 0.34032 0.0
C2137 C 0.61722 0.60392 0.34601 0.0
C2138 C 0.59631 0.61747 0.35283 0.0
C2139 C 0.55662 0.5956 0.35375 0.0
H2140 H 0.35728 0.0817 0.32378 0.0
H2141 H 0.3034 0.03708 0.36043 0.0
H2142 H 0.40211 0.05969 0.32793 0.0
H2143 H 0.35048 0.01822 0.36528 0.0
H2144 H 0.40389 0.94263 0.36228 0.0
H2145 H 0.36511 0.97242 0.36052 0.0
H2146 H 0.454 0.06392 0.33813 0.0
H2147 H 0.49155 0.03197 0.33914 0.0
C2148 C 0.35564 0.06795 0.33289 0.0
C2149 C 0.32681 0.06107 0.34179 0.0
C2150 C 0.38173 0.05564 0.33537 0.0
C2151 C 0.38027 0.03692 0.34697 0.0
C2152 C 0.35223 0.03162 0.3561 0.0
C2153 C 0.32545 0.04297 0.35344 0.0
C2154 C 0.41543 0.96943 0.35715 0.0
C2155 C 0.45071 0.98489 0.3508 0.0
C2156 C 0.39317 0.98681 0.35618 0.0
C2157 C 0.40598 0.02072 0.34909 0.0
C2158 C 0.44247 0.03733 0.34337 0.0
C2159 C 0.46431 0.0193 0.34406 0.0
H2160 H 0.09641 0.38389 0.06562 0.0
H2161 H 0.18733 0.35781 0.06287 0.0
H2162 H 0.08388 0.36012 0.08773 0.0
H2163 H 0.1736 0.33187 0.08453 0.0
H2164 H 0.16861 0.3219 0.1275 0.0
H2165 H 0.18025 0.34837 0.1059 0.0
H2166 H 0.05948 0.30751 0.10136 0.0
H2167 H 0.04857 0.28321 0.12339 0.0
C2168 C 0.11339 0.37262 0.06972 0.0
C2169 C 0.143 0.37292 0.06259 0.0
C2170 C 0.1061 0.35873 0.08238 0.0
C2171 C 0.12787 0.3442 0.0881 0.0
C2172 C 0.15686 0.34374 0.08072 0.0
C2173 C 0.16458 0.3583 0.0682 0.0
C2174 C 0.14463 0.31881 0.12189 0.0
C2175 C 0.1077 0.30045 0.12708 0.0
C2176 C 0.15118 0.33367 0.10941 0.0
C2177 C 0.12079 0.32979 0.10167 0.0
C2178 C 0.08377 0.3116 0.10699 0.0
C2179 C 0.07738 0.2974 0.11961 0.0
H2180 H 0.57386 0.74634 0.07379 0.0
H2181 H 0.68288 0.77332 0.05769 0.0
H2182 H 0.60138 0.75838 0.09542 0.0
H2183 H 0.71043 0.78516 0.07932 0.0
H2184 H 0.75463 0.85018 0.11778 0.0
H2185 H 0.72677 0.83358 0.09627 0.0
H2186 H 0.62856 0.73348 0.11164 0.0
H2187 H 0.65655 0.75036 0.13325 0.0
C2188 C 0.60365 0.75459 0.0749 0.0
C2189 C 0.62629 0.75906 0.06407 0.0
C2190 C 0.61937 0.76128 0.08729 0.0
C2191 C 0.65815 0.77286 0.08911 0.0
C2192 C 0.68059 0.77674 0.07825 0.0
C2193 C 0.6648 0.76979 0.06587 0.0
C2194 C 0.72717 0.82454 0.11655 0.0
C2195 C 0.70772 0.80158 0.12718 0.0
C2196 C 0.71129 0.81489 0.10421 0.0
C2197 C 0.67544 0.78217 0.10222 0.0
C2198 C 0.65606 0.75906 0.11287 0.0
C2199 C 0.67213 0.76859 0.12522 0.0
H2200 H 0.16572 0.92166 0.11754 0.0
H2201 H 0.24259 0.88853 0.13422 0.0
H2202 H 0.18224 0.91035 0.09601 0.0
H2203 H 0.25936 0.87733 0.11265 0.0
H2204 H 0.23987 0.81579 0.07332 0.0
H2205 H 0.22819 0.83136 0.09494 0.0
H2206 H 0.23531 0.9347 0.08039 0.0
H2207 H 0.24685 0.9189 0.0587 0.0
C2208 C 0.18637 0.91219 0.11659 0.0
C2209 C 0.20278 0.90587 0.12756 0.0
C2210 C 0.19601 0.90591 0.10424 0.0
C2211 C 0.2221 0.89287 0.10257 0.0
C2212 C 0.23885 0.88698 0.11358 0.0
C2213 C 0.22941 0.89356 0.12594 0.0
C2214 C 0.23914 0.84194 0.07476 0.0
C2215 C 0.2442 0.8661 0.06432 0.0
C2216 C 0.23266 0.85099 0.08716 0.0
C2217 C 0.23079 0.88429 0.08943 0.0
C2218 C 0.2362 0.90864 0.07897 0.0
C2219 C 0.243 0.89972 0.06656 0.0
H2220 H 0.38452 0.19927 0.45653 0.0
H2221 H 0.35243 0.08129 0.46214 0.0
H2222 H 0.35817 0.18459 0.43481 0.0
H2223 H 0.32546 0.0663 0.44036 0.0
H2224 H 0.31867 0.06539 0.39557 0.0
H2225 H 0.34469 0.07794 0.41749 0.0
H2226 H 0.29651 0.15062 0.42417 0.0
H2227 H 0.27111 0.13846 0.40232 0.0
C2228 C 0.37166 0.17011 0.45312 0.0
C2229 C 0.37044 0.14141 0.46103 0.0
C2230 C 0.35636 0.16163 0.44069 0.0
C2231 C 0.33949 0.1242 0.43583 0.0
C2232 C 0.33852 0.09547 0.44374 0.0
C2233 C 0.35375 0.10398 0.45624 0.0
C2234 C 0.31366 0.08399 0.40176 0.0
C2235 C 0.29301 0.10108 0.39723 0.0
C2236 C 0.32836 0.09101 0.41433 0.0
C2237 C 0.32286 0.11544 0.42259 0.0
C2238 C 0.30182 0.13215 0.41803 0.0
C2239 C 0.28707 0.12503 0.40552 0.0
H2240 H 0.93792 0.25456 0.39457 0.0
H2241 H 0.86212 0.13473 0.40189 0.0
H2242 H 0.92539 0.26972 0.41624 0.0
H2243 H 0.85006 0.1496 0.42349 0.0
H2244 H 0.80236 0.19125 0.45502 0.0
H2245 H 0.817 0.17916 0.43339 0.0
H2246 H 0.93598 0.26252 0.4393 0.0
H2247 H 0.92101 0.27504 0.461 0.0
C2248 C 0.91875 0.23151 0.40084 0.0
C2249 C 0.90084 0.19351 0.39655 0.0
C2250 C 0.91172 0.24013 0.41326 0.0
C2251 C 0.88652 0.21089 0.42158 0.0
C2252 C 0.86909 0.17288 0.41727 0.0
C2253 C 0.87616 0.16431 0.40491 0.0
C2254 C 0.83163 0.20705 0.4517 0.0
C2255 C 0.86057 0.23397 0.45969 0.0
C2256 C 0.84008 0.19998 0.43932 0.0
C2257 C 0.87773 0.21966 0.43463 0.0
C2258 C 0.90666 0.24708 0.44258 0.0
C2259 C 0.89816 0.25411 0.45501 0.0
H2260 H 0.75084 0.68353 0.39364 0.0
H2261 H 0.87132 0.7317 0.40106 0.0
H2262 H 0.73656 0.65691 0.41545 0.0
H2263 H 0.85726 0.7057 0.42282 0.0
H2264 H 0.81707 0.61745 0.45503 0.0
H2265 H 0.82941 0.64382 0.43332 0.0
H2266 H 0.74317 0.67597 0.43832 0.0
H2267 H 0.73053 0.64901 0.46007 0.0
C2268 C 0.77423 0.68854 0.39996 0.0
C2269 C 0.81216 0.70955 0.39566 0.0
C2270 C 0.7661 0.67349 0.41246 0.0
C2271 C 0.79576 0.67901 0.42088 0.0
C2272 C 0.83369 0.70037 0.41654 0.0
C2273 C 0.84178 0.71547 0.4041 0.0
C2274 C 0.80075 0.63015 0.45149 0.0
C2275 C 0.77291 0.63126 0.45924 0.0
C2276 C 0.80795 0.64546 0.43907 0.0
C2277 C 0.78741 0.6622 0.43407 0.0
C2278 C 0.75927 0.663 0.44182 0.0
C2279 C 0.75217 0.64777 0.45429 0.0
H2280 H 0.93959 0.68291 0.89555 0.0
H2281 H 0.86676 0.73085 0.90218 0.0
H2282 H 0.92714 0.65732 0.91752 0.0
H2283 H 0.85495 0.70621 0.92406 0.0
H2284 H 0.80639 0.62086 0.95668 0.0
H2285 H 0.82093 0.64567 0.93483 0.0
H2286 H 0.93887 0.67649 0.94032 0.0
H2287 H 0.9239 0.65072 0.96224 0.0
C2288 C 0.92106 0.68806 0.90172 0.0
C2289 C 0.90395 0.70864 0.89715 0.0
C2290 C 0.91411 0.67365 0.91432 0.0
C2291 C 0.88985 0.6795 0.92255 0.0
C2292 C 0.87321 0.70053 0.91794 0.0
C2293 C 0.88013 0.71485 0.90541 0.0
C2294 C 0.83544 0.63298 0.95323 0.0
C2295 C 0.86405 0.63403 0.96117 0.0
C2296 C 0.84385 0.64738 0.94072 0.0
C2297 C 0.88115 0.66334 0.93581 0.0
C2298 C 0.90979 0.66412 0.94374 0.0
C2299 C 0.90131 0.64962 0.95632 0.0
H2300 H 0.35549 0.24627 0.88975 0.0
H2301 H 0.24473 0.16872 0.9057 0.0
H2302 H 0.38247 0.26196 0.91148 0.0
H2303 H 0.27159 0.18375 0.92736 0.0
H2304 H 0.32499 0.24226 0.96548 0.0
H2305 H 0.2987 0.23316 0.94369 0.0
H2306 H 0.39764 0.23158 0.9288 0.0
H2307 H 0.42399 0.2413 0.9505 0.0
C2308 C 0.33691 0.23272 0.89791 0.0
C2309 C 0.29805 0.20623 0.89604 0.0
C2310 C 0.35237 0.2415 0.91036 0.0
C2311 C 0.32927 0.22403 0.92122 0.0
C2312 C 0.29018 0.19813 0.91928 0.0
C2313 C 0.27479 0.18932 0.90685 0.0
C2314 C 0.34113 0.24016 0.95752 0.0
C2315 C 0.37648 0.2424 0.95969 0.0
C2316 C 0.32602 0.23476 0.94504 0.0
C2317 C 0.346 0.23159 0.93445 0.0
C2318 C 0.38167 0.23442 0.93666 0.0
C2319 C 0.39668 0.23973 0.94913 0.0
H2320 H 0.77182 0.13057 0.88975 0.0
H2321 H 0.80627 0.05343 0.90526 0.0
H2322 H 0.75663 0.14231 0.91147 0.0
H2323 H 0.79163 0.06543 0.92695 0.0
H2324 H 0.73363 0.07399 0.96367 0.0
H2325 H 0.7404 0.05688 0.94159 0.0
H2326 H 0.79361 0.17555 0.9306 0.0
H2327 H 0.78641 0.19239 0.95253 0.0
C2328 C 0.77578 0.11586 0.8978 0.0
C2329 C 0.79036 0.09124 0.89584 0.0
C2330 C 0.76734 0.12275 0.91024 0.0
C2331 C 0.77319 0.10503 0.92098 0.0
C2332 C 0.78646 0.0793 0.91891 0.0
C2333 C 0.79502 0.07255 0.90649 0.0
C2334 C 0.74667 0.09631 0.9565 0.0
C2335 C 0.75958 0.1345 0.9598 0.0
C2336 C 0.75066 0.08657 0.94387 0.0
C2337 C 0.76743 0.11483 0.9343 0.0
C2338 C 0.78002 0.15298 0.93765 0.0
C2339 C 0.77618 0.16269 0.95025 0.0
H2340 H 0.6794 0.91901 0.55836 0.0
H2341 H 0.58071 0.81988 0.5739 0.0
H2342 H 0.7072 0.93611 0.57997 0.0
H2343 H 0.60841 0.83677 0.59545 0.0
H2344 H 0.65398 0.89744 0.63399 0.0
H2345 H 0.62586 0.88592 0.61242 0.0
H2346 H 0.73374 0.91003 0.59599 0.0
H2347 H 0.76175 0.92167 0.61751 0.0
C2348 C 0.66363 0.90099 0.56641 0.0
C2349 C 0.62798 0.86809 0.56447 0.0
C2350 C 0.67958 0.91067 0.57876 0.0
C2351 C 0.66002 0.88779 0.58943 0.0
C2352 C 0.62402 0.85524 0.58747 0.0
C2353 C 0.60825 0.84543 0.57512 0.0
C2354 C 0.67168 0.90052 0.62574 0.0
C2355 C 0.70998 0.91034 0.6274 0.0
C2356 C 0.65556 0.89374 0.61341 0.0
C2357 C 0.67754 0.89697 0.60249 0.0
C2358 C 0.71614 0.90769 0.60418 0.0
C2359 C 0.73213 0.91416 0.6165 0.0
H2360 H 0.09223 0.77546 0.55645 0.0
H2361 H 0.17636 0.75123 0.57246 0.0
H2362 H 0.07653 0.78709 0.57813 0.0
H2363 H 0.16078 0.76283 0.59409 0.0
H2364 H 0.09695 0.75188 0.63188 0.0
H2365 H 0.10782 0.7358 0.61015 0.0
H2366 H 0.10902 0.83608 0.5953 0.0
H2367 H 0.09818 0.85205 0.61698 0.0
C2368 C 0.10721 0.77246 0.56461 0.0
C2369 C 0.13557 0.76255 0.56278 0.0
C2370 C 0.09837 0.77927 0.57701 0.0
C2371 C 0.11744 0.77592 0.58784 0.0
C2372 C 0.14529 0.76526 0.58598 0.0
C2373 C 0.15436 0.75883 0.57358 0.0
C2374 C 0.0994 0.77035 0.62395 0.0
C2375 C 0.09682 0.80324 0.62611 0.0
C2376 C 0.10578 0.76126 0.61152 0.0
C2377 C 0.10928 0.78467 0.60099 0.0
C2378 C 0.10604 0.81723 0.60317 0.0
C2379 C 0.10006 0.8265 0.6156 0.0
H2380 H 0.27262 0.35332 0.56129 0.0
H2381 H 0.19189 0.39178 0.56778 0.0
H2382 H 0.26023 0.32584 0.58298 0.0
H2383 H 0.1798 0.36489 0.58941 0.0
H2384 H 0.13512 0.27569 0.62129 0.0
H2385 H 0.14923 0.30252 0.59964 0.0
H2386 H 0.26927 0.34404 0.606 0.0
H2387 H 0.25491 0.31663 0.6277 0.0
C2388 C 0.25235 0.356 0.56738 0.0
C2389 C 0.23313 0.37457 0.56284 0.0
C2390 C 0.24539 0.34046 0.57982 0.0
C2391 C 0.21887 0.34298 0.58794 0.0
C2392 C 0.19995 0.36187 0.58337 0.0
C2393 C 0.20702 0.37749 0.57099 0.0
C2394 C 0.16452 0.29051 0.61806 0.0
C2395 C 0.19392 0.29415 0.62619 0.0
C2396 C 0.17266 0.30609 0.60567 0.0
C2397 C 0.21043 0.32567 0.60107 0.0
C2398 C 0.23985 0.32889 0.60918 0.0
C2399 C 0.23167 0.31339 0.62163 0.0
H2400 H 0.02105 0.4412 0.7232 0.0
H2401 H 0.91231 0.41347 0.73973 0.0
H2402 H 0.04909 0.45263 0.74477 0.0
H2403 H 0.94026 0.42543 0.76123 0.0
H2404 H 0.99362 0.41855 0.79899 0.0
H2405 H 0.96647 0.40132 0.77732 0.0
H2406 H 0.06663 0.4995 0.76193 0.0
H2407 H 0.09386 0.5162 0.78352 0.0
C2408 C 0.00316 0.43745 0.73146 0.0
C2409 C 0.96457 0.42655 0.72981 0.0
C2410 C 0.01922 0.44418 0.7438 0.0
C2411 C 0.99696 0.44003 0.75475 0.0
C2412 C 0.95813 0.42842 0.75305 0.0
C2413 C 0.94215 0.42179 0.74072 0.0
C2414 C 0.00985 0.43625 0.79094 0.0
C2415 C 0.04576 0.46875 0.79292 0.0
C2416 C 0.99426 0.42653 0.77855 0.0
C2417 C 0.01431 0.44907 0.76787 0.0
C2418 C 0.05059 0.48122 0.76988 0.0
C2419 C 0.06611 0.49095 0.78227 0.0
H2420 H 0.52606 0.46984 0.73439 0.0
H2421 H 0.60725 0.58887 0.7279 0.0
H2422 H 0.51479 0.48459 0.75611 0.0
H2423 H 0.59559 0.60393 0.74972 0.0
H2424 H 0.59158 0.60668 0.79459 0.0
H2425 H 0.60522 0.59425 0.77268 0.0
H2426 H 0.48488 0.5165 0.76659 0.0
H2427 H 0.47152 0.52853 0.78841 0.0
C2428 C 0.54142 0.49924 0.73761 0.0
C2429 C 0.56743 0.52823 0.72944 0.0
C2430 C 0.53481 0.50775 0.75005 0.0
C2431 C 0.5541 0.54549 0.75467 0.0
C2432 C 0.58048 0.57452 0.74651 0.0
C2433 C 0.587 0.56597 0.734 0.0
C2434 C 0.56814 0.58697 0.78853 0.0
C2435 C 0.53053 0.56843 0.79321 0.0
C2436 C 0.57589 0.58001 0.77597 0.0
C2437 C 0.54617 0.55421 0.76788 0.0
C2438 C 0.50854 0.53605 0.7726 0.0
C2439 C 0.50084 0.54309 0.7851 0.0
H2440 H 0.51484 0.09116 0.74046 0.0
H2441 H 0.42522 0.98535 0.72468 0.0
H2442 H 0.49907 0.06405 0.76209 0.0
H2443 H 0.40919 0.95815 0.74636 0.0
H2444 H 0.42649 0.91078 0.78491 0.0
H2445 H 0.43816 0.93779 0.76326 0.0
H2446 H 0.44842 0.04175 0.77858 0.0
H2447 H 0.43691 0.01464 0.80029 0.0
C2448 C 0.49161 0.06214 0.74164 0.0
C2449 C 0.47132 0.04032 0.73089 0.0
C2450 C 0.48241 0.04667 0.75404 0.0
C2451 C 0.45286 0.0089 0.75598 0.0
C2452 C 0.43236 0.98719 0.7452 0.0
C2453 C 0.4414 0.0028 0.73279 0.0
C2454 C 0.43104 0.93933 0.78363 0.0
C2455 C 0.43087 0.96064 0.79428 0.0
C2456 C 0.43752 0.95474 0.77122 0.0
C2457 C 0.44426 0.99197 0.76916 0.0
C2458 C 0.44372 0.01315 0.77984 0.0
C2459 C 0.43695 0.99759 0.79226 0.0
H2460 H 0.50353 0.02043 0.2294 0.0
H2461 H 0.62099 0.04793 0.2322 0.0
H2462 H 0.49182 0.9951 0.25118 0.0
H2463 H 0.61019 0.02465 0.25436 0.0
H2464 H 0.56985 0.94867 0.2902 0.0
H2465 H 0.58229 0.97198 0.26805 0.0
H2466 H 0.50231 0.01269 0.27256 0.0
H2467 H 0.48853 0.98735 0.29433 0.0
C2468 C 0.52695 0.02129 0.23475 0.0
C2469 C 0.56315 0.03617 0.22914 0.0
C2470 C 0.52039 0.00709 0.24732 0.0
C2471 C 0.55011 0.00809 0.25472 0.0
C2472 C 0.58638 0.02283 0.24899 0.0
C2473 C 0.59272 0.03642 0.2363 0.0
C2474 C 0.55501 0.96263 0.28639 0.0
C2475 C 0.52807 0.96601 0.29393 0.0
C2476 C 0.56228 0.97625 0.27371 0.0
C2477 C 0.54317 0.99413 0.26835 0.0
C2478 C 0.51691 0.99825 0.27612 0.0
C2479 C 0.5092 0.98404 0.28869 0.0
H2480 H 0.99535 0.57764 0.29931 0.0
H2481 H 0.09119 0.57041 0.28449 0.0
H2482 H 0.96813 0.5671 0.27763 0.0
H2483 H 0.06398 0.5596 0.26285 0.0
H2484 H 0.02079 0.57474 0.22376 0.0
H2485 H 0.04916 0.59118 0.2453 0.0
H2486 H 0.93913 0.51434 0.26201 0.0
H2487 H 0.91091 0.49825 0.24053 0.0
C2488 C 0.01063 0.57393 0.2914 0.0
C2489 C 0.04531 0.57474 0.29357 0.0
C2490 C 0.99499 0.56772 0.279 0.0
C2491 C 0.01384 0.56244 0.2685 0.0
C2492 C 0.04893 0.56398 0.27068 0.0
C2493 C 0.06441 0.56995 0.28309 0.0
C2494 C 0.00271 0.56159 0.23206 0.0
C2495 C 0.96369 0.53517 0.23048 0.0
C2496 C 0.01895 0.57083 0.24438 0.0
C2497 C 0.99643 0.55404 0.25539 0.0
C2498 C 0.95722 0.52815 0.25377 0.0
C2499 C 0.94108 0.51875 0.24146 0.0
H2500 H 0.47671 0.38942 0.23931 0.0
H2501 H 0.43437 0.45951 0.22323 0.0
H2502 H 0.46281 0.40257 0.26094 0.0
H2503 H 0.41978 0.47228 0.2449 0.0
H2504 H 0.44818 0.52616 0.28546 0.0
H2505 H 0.45553 0.50862 0.26362 0.0
H2506 H 0.4125 0.39221 0.27596 0.0
H2507 H 0.40576 0.4101 0.2979 0.0
C2508 C 0.46388 0.4072 0.24041 0.0
C2509 C 0.45675 0.42356 0.2296 0.0
C2510 C 0.45575 0.41463 0.25281 0.0
C2511 C 0.44036 0.43869 0.2547 0.0
C2512 C 0.43216 0.4541 0.24382 0.0
C2513 C 0.44023 0.44658 0.2314 0.0
C2514 C 0.44021 0.49681 0.28349 0.0
C2515 C 0.42653 0.46953 0.29338 0.0
C2516 C 0.44414 0.48666 0.27094 0.0
C2517 C 0.43452 0.44895 0.26798 0.0
C2518 C 0.42054 0.42158 0.27791 0.0
C2519 C 0.41654 0.43176 0.29046 0.0
H2520 H 0.91919 0.10713 0.28629 0.0
H2521 H 0.01381 0.21783 0.29628 0.0
H2522 H 0.94666 0.11288 0.26477 0.0
H2523 H 0.04072 0.22391 0.27497 0.0
H2524 H 0.09685 0.2166 0.23881 0.0
H2525 H 0.07106 0.19989 0.26067 0.0
H2526 H 0.95655 0.15085 0.24546 0.0
H2527 H 0.98227 0.16682 0.22374 0.0
C2528 C 0.94581 0.13257 0.28389 0.0
C2529 C 0.96424 0.16208 0.29292 0.0
C2530 C 0.96154 0.13595 0.27159 0.0
C2531 C 0.99604 0.16882 0.26815 0.0
C2532 C 0.01456 0.19791 0.27732 0.0
C2533 C 0.99887 0.19458 0.28952 0.0
C2534 C 0.06619 0.20171 0.24017 0.0
C2535 C 0.0416 0.1933 0.22962 0.0
C2536 C 0.05138 0.19232 0.25267 0.0
C2537 C 0.01169 0.17429 0.25484 0.0
C2538 C 0.98716 0.16436 0.24417 0.0
C2539 C 1.00196 0.17379 0.23172 0.0
H2540 H 0.89229 0.86222 0.29441 0.0
H2541 H 0.81188 0.74532 0.28441 0.0
H2542 H 0.88027 0.88323 0.27358 0.0
H2543 H 0.79959 0.76625 0.26386 0.0
H2544 H 0.74818 0.82021 0.23835 0.0
H2545 H 0.76724 0.80655 0.25904 0.0
H2546 H 0.88577 0.87368 0.24818 0.0
H2547 H 0.86659 0.88705 0.22723 0.0
C2548 C 0.87255 0.84104 0.2877 0.0
C2549 C 0.85296 0.80215 0.29104 0.0
C2550 C 0.86565 0.85305 0.27581 0.0
C2551 C 0.8386 0.8264 0.2672 0.0
C2552 C 0.82017 0.78747 0.27039 0.0
C2553 C 0.82742 0.77548 0.28212 0.0
C2554 C 0.77835 0.83259 0.24042 0.0
C2555 C 0.80589 0.85457 0.23115 0.0
C2556 C 0.78924 0.82454 0.25224 0.0
C2557 C 0.82796 0.83863 0.25514 0.0
C2558 C 0.85573 0.86245 0.24618 0.0
C2559 C 0.84476 0.87012 0.23422 0.0
H2560 H 0.14157 0.02482 0.29561 0.0
H2561 H 0.25954 0.06749 0.28542 0.0
H2562 H 0.12163 0.99254 0.27463 0.0
H2563 H 0.2397 0.03502 0.2647 0.0
H2564 H 0.18945 0.93063 0.23854 0.0
H2565 H 0.20292 0.96303 0.25928 0.0
H2566 H 0.12939 0.00809 0.24947 0.0
H2567 H 0.11622 0.97587 0.22845 0.0
C2568 C 0.1632 0.02776 0.28883 0.0
C2569 C 0.20211 0.04862 0.29216 0.0
C2570 C 0.15179 0.00928 0.27685 0.0
C2571 C 0.1791 0.01086 0.26811 0.0
C2572 C 0.21799 0.03285 0.27131 0.0
C2573 C 0.22936 0.05167 0.28315 0.0
C2574 C 0.1757 0.947 0.24084 0.0
C2575 C 0.15186 0.9508 0.23185 0.0
C2576 C 0.18364 0.96578 0.25269 0.0
C2577 C 0.1676 0.98849 0.25593 0.0
C2578 C 0.14216 0.99078 0.24722 0.0
C2579 C 0.13459 0.97233 0.23522 0.0
H2580 H 0.91661 0.78893 0.7844 0.0
H2581 H 0.03011 0.83515 0.80011 0.0
H2582 H 0.9438 0.80641 0.76266 0.0
H2583 H 0.05715 0.85316 0.77866 0.0
H2584 H 0.08587 0.8286 0.73847 0.0
H2585 H 0.05934 0.81865 0.76007 0.0
H2586 H 0.98397 0.85946 0.74779 0.0
H2587 H 0.01042 0.8689 0.72598 0.0
C2588 C 0.94732 0.80329 0.78322 0.0
C2589 C 0.9712 0.81034 0.79391 0.0
C2590 C 0.96293 0.81344 0.7708 0.0
C2591 C 0.00269 0.83079 0.76889 0.0
C2592 C 0.02643 0.83914 0.77971 0.0
C2593 C 0.0109 0.82898 0.79204 0.0
C2594 C 0.064 0.83592 0.74041 0.0
C2595 C 0.05037 0.8497 0.73056 0.0
C2596 C 0.0488 0.83031 0.75281 0.0
C2597 C 0.0195 0.8383 0.7557 0.0
C2598 C 0.00625 0.8527 0.74587 0.0
C2599 C 0.02163 0.85846 0.73342 0.0
H2600 H 0.1693 0.25134 0.73923 0.0
H2601 H 0.14046 0.13987 0.72502 0.0
H2602 H 0.18067 0.23405 0.76056 0.0
H2603 H 0.1514 0.12215 0.74652 0.0
H2604 H 0.22391 0.12868 0.78317 0.0
H2605 H 0.20526 0.13838 0.76158 0.0
H2606 H 0.14735 0.19303 0.77854 0.0
H2607 H 0.16643 0.18402 0.79983 0.0
C2608 C 0.16478 0.22288 0.74074 0.0
C2609 C 0.15378 0.1969 0.73049 0.0
C2610 C 0.17122 0.21288 0.75298 0.0
C2611 C 0.16692 0.17664 0.75529 0.0
C2612 C 0.15531 0.15038 0.74505 0.0
C2613 C 0.14867 0.16038 0.73278 0.0
C2614 C 0.20682 0.14232 0.78223 0.0
C2615 C 0.19697 0.15594 0.79315 0.0
C2616 C 0.19603 0.14781 0.76989 0.0
C2617 C 0.17523 0.167 0.76831 0.0
C2618 C 0.16405 0.17894 0.77935 0.0
C2619 C 0.17484 0.17356 0.79158 0.0
H2620 H 0.88155 0.08523 0.78388 0.0
H2621 H 0.81126 0.97403 0.80077 0.0
H2622 H 0.87071 0.05559 0.76249 0.0
H2623 H 0.8011 0.94456 0.77968 0.0
H2624 H 0.74627 0.91394 0.73963 0.0
H2625 H 0.7645 0.94218 0.76098 0.0
H2626 H 0.88105 0.0123 0.74821 0.0
H2627 H 0.86244 0.98411 0.72666 0.0
C2628 C 0.86436 0.05449 0.78304 0.0
C2629 C 0.84693 0.03199 0.79395 0.0
C2630 C 0.85822 0.03747 0.77082 0.0
C2631 C 0.83457 0.99769 0.76934 0.0
C2632 C 0.81875 0.97529 0.7804 0.0
C2633 C 0.82476 0.99221 0.79252 0.0
C2634 C 0.7759 0.93495 0.74142 0.0
C2635 C 0.80295 0.94665 0.73151 0.0
C2636 C 0.78642 0.95115 0.75368 0.0
C2637 C 0.82431 0.97956 0.75635 0.0
C2638 C 0.85159 0.99076 0.74646 0.0
C2639 C 0.84103 0.97435 0.73417 0.0
H2640 H 0.67576 0.48273 0.63139 0.0
H2641 H 0.57368 0.47831 0.61683 0.0
H2642 H 0.70305 0.49638 0.60972 0.0
H2643 H 0.60015 0.49057 0.59514 0.0
H2644 H 0.67717 0.56785 0.56372 0.0
H2645 H 0.64896 0.54598 0.58478 0.0
H2646 H 0.70154 0.47587 0.58749 0.0
H2647 H 0.73083 0.49886 0.56623 0.0
C2648 C 0.6588 0.48377 0.62349 0.0
C2649 C 0.62274 0.47982 0.62579 0.0
C2650 C 0.6744 0.4915 0.61106 0.0
C2651 C 0.65413 0.49526 0.60069 0.0
C2652 C 0.61703 0.48888 0.60294 0.0
C2653 C 0.60165 0.48151 0.61535 0.0
C2654 C 0.68284 0.5478 0.56879 0.0
C2655 C 0.70618 0.53502 0.56331 0.0
C2656 C 0.66628 0.5349 0.58085 0.0
C2657 C 0.67235 0.5086 0.5878 0.0
C2658 C 0.69628 0.49617 0.58242 0.0
C2659 C 0.71303 0.50925 0.57025 0.0
H2660 H 0.56805 0.17309 0.62423 0.0
H2661 H 0.44686 0.0933 0.62509 0.0
H2662 H 0.56061 0.19622 0.6031 0.0
H2663 H 0.4395 0.11567 0.60424 0.0
H2664 H 0.42668 0.18489 0.57363 0.0
H2665 H 0.44159 0.17139 0.59506 0.0
H2666 H 0.54386 0.17656 0.58026 0.0
H2667 H 0.52924 0.19105 0.55881 0.0
C2668 C 0.53998 0.16034 0.61987 0.0
C2669 C 0.50805 0.13149 0.62633 0.0
C2670 C 0.53567 0.17353 0.60779 0.0
C2671 C 0.49932 0.15826 0.60204 0.0
C2672 C 0.46775 0.12884 0.60847 0.0
C2673 C 0.47206 0.11572 0.62042 0.0
C2674 C 0.4527 0.18383 0.575 0.0
C2675 C 0.47664 0.18879 0.56454 0.0
C2676 C 0.46113 0.17577 0.58726 0.0
C2677 C 0.49359 0.17214 0.58936 0.0
C2678 C 0.51871 0.17922 0.57901 0.0
C2679 C 0.5103 0.18746 0.56672 0.0
H2680 H 0.84658 0.3138 0.63204 0.0
H2681 H 0.87349 0.42549 0.61867 0.0
H2682 H 0.82885 0.28866 0.61034 0.0
H2683 H 0.85499 0.40009 0.59676 0.0
H2684 H 0.87572 0.35238 0.55883 0.0
H2685 H 0.88232 0.37808 0.58041 0.0
H2686 H 0.78409 0.2726 0.59265 0.0
H2687 H 0.77792 0.24651 0.57088 0.0
C2688 C 0.84821 0.33291 0.62445 0.0
C2689 C 0.86177 0.37171 0.62701 0.0
C2690 C 0.83768 0.31837 0.612 0.0
C2691 C 0.84054 0.34229 0.60176 0.0
C2692 C 0.85285 0.38095 0.60441 0.0
C2693 C 0.86329 0.39551 0.61694 0.0
C2694 C 0.85531 0.3347 0.5661 0.0
C2695 C 0.82648 0.29728 0.56321 0.0
C2696 C 0.85889 0.34963 0.57846 0.0
C2697 C 0.83376 0.3275 0.5883 0.0
C2698 C 0.80417 0.29031 0.58532 0.0
C2699 C 0.80052 0.27536 0.57287 0.0
H2700 H 0.67043 0.1987 0.05837 0.0
H2701 H 0.75488 0.17233 0.07261 0.0
H2702 H 0.64252 0.18851 0.07994 0.0
H2703 H 0.72702 0.16189 0.09406 0.0
H2704 H 0.69001 0.17674 0.13334 0.0
H2705 H 0.71826 0.19558 0.11204 0.0
H2706 H 0.60605 0.1338 0.09488 0.0
H2707 H 0.57758 0.11517 0.1164 0.0
C2708 C 0.68334 0.19126 0.06615 0.0
C2709 C 0.71494 0.18647 0.06384 0.0
C2710 C 0.66714 0.18507 0.07847 0.0
C2711 C 0.68245 0.17431 0.08873 0.0
C2712 C 0.71475 0.1706 0.08643 0.0
C2713 C 0.73073 0.17652 0.07413 0.0
C2714 C 0.67127 0.16746 0.12504 0.0
C2715 C 0.63158 0.14426 0.12653 0.0
C2716 C 0.68751 0.17811 0.11282 0.0
C2717 C 0.66451 0.16588 0.10174 0.0
C2718 C 0.62457 0.1439 0.10323 0.0
C2719 C 0.60825 0.13311 0.11553 0.0
H2720 H 0.84498 0.52957 0.13224 0.0
H2721 H 0.87067 0.44336 0.11949 0.0
H2722 H 0.8277 0.5365 0.11044 0.0
H2723 H 0.85241 0.44962 0.09748 0.0
H2724 H 0.87194 0.51495 0.05892 0.0
H2725 H 0.87877 0.49659 0.0806 0.0
H2726 H 0.78323 0.50843 0.09301 0.0
H2727 H 0.77713 0.52791 0.07121 0.0
C2728 C 0.84642 0.51166 0.12476 0.0
C2729 C 0.85948 0.48613 0.12754 0.0
C2730 C 0.83615 0.5154 0.11225 0.0
C2731 C 0.83866 0.4937 0.10214 0.0
C2732 C 0.85056 0.46714 0.10501 0.0
C2733 C 0.86082 0.46335 0.1176 0.0
C2734 C 0.85214 0.51331 0.06625 0.0
C2735 C 0.82418 0.52317 0.06341 0.0
C2736 C 0.85586 0.50243 0.07868 0.0
C2737 C 0.83164 0.50106 0.08861 0.0
C2738 C 0.80273 0.50967 0.08564 0.0
C2739 C 0.79906 0.52066 0.07316 0.0
H2740 H 0.53158 0.33601 0.13124 0.0
H2741 H 0.50996 0.42368 0.11708 0.0
H2742 H 0.51979 0.30771 0.10971 0.0
H2743 H 0.49712 0.39509 0.09575 0.0
H2744 H 0.5043 0.35575 0.05633 0.0
H2745 H 0.52512 0.38435 0.07747 0.0
H2746 H 0.46803 0.27217 0.09474 0.0
H2747 H 0.44824 0.2434 0.07328 0.0
C2748 C 0.52474 0.34947 0.12348 0.0
C2749 C 0.52193 0.38221 0.12582 0.0
C2750 C 0.51755 0.33301 0.11117 0.0
C2751 C 0.50737 0.34894 0.10093 0.0
C2752 C 0.50548 0.38227 0.10329 0.0
C2753 C 0.51276 0.39871 0.11555 0.0
C2754 C 0.49644 0.33711 0.06463 0.0
C2755 C 0.47437 0.29733 0.06317 0.0
C2756 C 0.50818 0.35356 0.07679 0.0
C2757 C 0.49781 0.33073 0.0879 0.0
C2758 C 0.47679 0.2907 0.08641 0.0
C2759 C 0.46529 0.27414 0.07414 0.0
H2760 H 0.37752 0.81595 0.89794 0.0
H2761 H 0.38438 0.92504 0.90318 0.0
H2762 H 0.34476 0.79459 0.91879 0.0
H2763 H 0.35174 0.90383 0.92375 0.0
H2764 H 0.25483 0.84236 0.95163 0.0
H2765 H 0.28567 0.85636 0.93059 0.0
H2766 H 0.35538 0.80912 0.94296 0.0
H2767 H 0.32421 0.79488 0.96409 0.0
C2768 C 0.37241 0.83544 0.9036 0.0
C2769 C 0.38351 0.87215 0.89893 0.0
C2770 C 0.35365 0.82323 0.91551 0.0
C2771 C 0.34513 0.84732 0.92284 0.0
C2772 C 0.35718 0.8843 0.91825 0.0
C2773 C 0.37624 0.89659 0.9065 0.0
C2774 C 0.27629 0.83439 0.9498 0.0
C2775 C 0.28719 0.81767 0.95953 0.0
C2776 C 0.29418 0.84266 0.93778 0.0
C2777 C 0.32341 0.83438 0.93516 0.0
C2778 C 0.33294 0.81579 0.94466 0.0
C2779 C 0.31509 0.80763 0.95676 0.0
H2780 H 0.20287 0.52774 0.96389 0.0
H2781 H 0.16741 0.41423 0.95007 0.0
H2782 H 0.19216 0.54576 0.94241 0.0
H2783 H 0.1561 0.43176 0.9288 0.0
H2784 H 0.16983 0.47982 0.88937 0.0
H2785 H 0.1892 0.47054 0.91055 0.0
H2786 H 0.13875 0.53232 0.92764 0.0
H2787 H 0.11999 0.54245 0.90612 0.0
C2788 C 0.19326 0.50682 0.95621 0.0
C2789 C 0.18624 0.46966 0.95861 0.0
C2790 C 0.18673 0.51701 0.94396 0.0
C2791 C 0.17327 0.49026 0.93385 0.0
C2792 C 0.16703 0.45332 0.93627 0.0
C2793 C 0.17344 0.44318 0.94848 0.0
C2794 C 0.1631 0.49176 0.89762 0.0
C2795 C 0.14304 0.51154 0.89611 0.0
C2796 C 0.17406 0.48624 0.90979 0.0
C2797 C 0.16502 0.50009 0.92085 0.0
C2798 C 0.1463 0.52137 0.91932 0.0
C2799 C 0.13544 0.5271 0.90703 0.0
H2800 H 0.49825 0.58122 0.90639 0.0
H2801 H 0.47931 0.67052 0.89207 0.0
H2802 H 0.51158 0.61012 0.92774 0.0
H2803 H 0.49342 0.70006 0.91346 0.0
H2804 H 0.49663 0.72513 0.95782 0.0
H2805 H 0.47434 0.69416 0.9367 0.0
H2806 H 0.56573 0.66816 0.93616 0.0
H2807 H 0.58749 0.69846 0.957 0.0
C2808 C 0.49644 0.60677 0.90786 0.0
C2809 C 0.48799 0.62373 0.89755 0.0
C2810 C 0.50437 0.62354 0.92007 0.0
C2811 C 0.50427 0.65783 0.92227 0.0
C2812 C 0.49369 0.67365 0.91211 0.0
C2813 C 0.48566 0.65676 0.89986 0.0
C2814 C 0.51201 0.71304 0.95308 0.0
C2815 C 0.54371 0.71412 0.95907 0.0
C2816 C 0.49928 0.6953 0.94102 0.0
C2817 C 0.51785 0.67807 0.93484 0.0
C2818 C 0.55014 0.68024 0.94076 0.0
C2819 C 0.56286 0.69799 0.95268 0.0
H2820 H 0.31107 0.53029 0.46183 0.0
H2821 H 0.26828 0.41236 0.45158 0.0
H2822 H 0.34354 0.55018 0.44089 0.0
H2823 H 0.30098 0.43216 0.43092 0.0
H2824 H 0.406 0.48248 0.40505 0.0
H2825 H 0.37361 0.46938 0.42578 0.0
H2826 H 0.32747 0.54168 0.41558 0.0
H2827 H 0.35963 0.55445 0.39458 0.0
C2828 C 0.30814 0.50867 0.45504 0.0
C2829 C 0.2872 0.46978 0.45834 0.0
C2830 C 0.32673 0.52004 0.44309 0.0
C2831 C 0.32518 0.49271 0.43437 0.0
C2832 C 0.30311 0.45386 0.43753 0.0
C2833 C 0.28417 0.44253 0.44933 0.0
C2834 C 0.38942 0.49607 0.40727 0.0
C2835 C 0.38527 0.51941 0.39817 0.0
C2836 C 0.37066 0.48834 0.41911 0.0
C2837 C 0.34765 0.50414 0.42222 0.0
C2838 C 0.34503 0.52914 0.41342 0.0
C2839 C 0.36344 0.53646 0.40143 0.0
H2840 H 0.45154 0.87454 0.4054 0.0
H2841 H 0.53468 0.84559 0.39177 0.0
H2842 H 0.45927 0.85695 0.42732 0.0
H2843 H 0.54296 0.82875 0.41354 0.0
H2844 H 0.53407 0.77912 0.45346 0.0
H2845 H 0.51435 0.78492 0.4316 0.0
H2846 H 0.5098 0.88505 0.44329 0.0
H2847 H 0.5288 0.87891 0.46493 0.0
C2848 C 0.47115 0.8641 0.40708 0.0
C2849 C 0.4927 0.86171 0.39693 0.0
C2850 C 0.47576 0.85418 0.41962 0.0
C2851 C 0.50193 0.84161 0.42221 0.0
C2852 C 0.52227 0.83787 0.41191 0.0
C2853 C 0.51774 0.84784 0.39943 0.0
C2854 C 0.52849 0.80208 0.45132 0.0
C2855 C 0.5332 0.82868 0.46085 0.0
C2856 C 0.51733 0.80552 0.43882 0.0
C2857 C 0.51042 0.83546 0.43568 0.0
C2858 C 0.51425 0.86133 0.44538 0.0
C2859 C 0.52553 0.85801 0.45778 0.0
H2860 H 0.21516 0.68603 0.46273 0.0
H2861 H 0.15286 0.74203 0.45115 0.0
H2862 H 0.20119 0.65341 0.4418 0.0
H2863 H 0.13879 0.70947 0.43042 0.0
H2864 H 0.07586 0.60648 0.40418 0.0
H2865 H 0.09651 0.63946 0.42476 0.0
H2866 H 0.21204 0.66595 0.417 0.0
H2867 H 0.19127 0.63295 0.39615 0.0
C2868 C 0.19911 0.69188 0.45564 0.0
C2869 C 0.18499 0.71648 0.45858 0.0
C2870 C 0.19109 0.6732 0.44368 0.0
C2871 C 0.16841 0.67845 0.43455 0.0
C2872 C 0.1558 0.70435 0.43734 0.0
C2873 C 0.16411 0.72323 0.44918 0.0
C2874 C 0.1056 0.6189 0.4069 0.0
C2875 C 0.13196 0.61721 0.39853 0.0
C2876 C 0.11748 0.63808 0.41866 0.0
C2877 C 0.156 0.6558 0.42242 0.0
C2878 C 0.18218 0.6526 0.41434 0.0
C2879 C 0.1703 0.63369 0.40244 0.0
loop_
_geom_bond_atom_site_label_1
_geom_bond_atom_site_label_2
_geom_bond_distance
_geom_bond_site_symmetry_2
_ccdc_geom_bond_type
Dy0 O4 2.398 . S
Dy0 O5 2.491 . S
Dy0 O6 2.403 . S
Dy0 O7 2.664 . S
Dy0 O11 2.326 . S
Dy0 O15 2.310 . S
Dy0 O16 2.351 . S
C1 O12 1.185 . S
C1 O13 1.355 . S
C2 O4 1.185 . S
C2 O5 1.355 . S
Dy3 O7 2.310 . S
Dy3 O10 2.351 . S
Dy3 O12 2.398 . S
Dy3 O13 2.491 . S
Dy3 O14 2.403 . S
Dy3 O15 2.664 . S
Dy3 O17 2.326 . S
O4 Dy0 2.398 . S
O4 C2 1.185 . S
O5 Dy0 2.491 . S
O5 C2 1.355 . S
O6 Dy0 2.403 . S
O6 C8 1.254 . S
O7 Dy0 2.664 . S
O7 Dy3 2.310 . S
O7 C8 1.268 . S
C8 O6 1.254 . S
C8 O7 1.268 . S
C9 O14 1.254 . S
C9 O15 1.268 . S
O10 Dy3 2.351 . S
O10 C18 1.249 . S
O11 Dy0 2.326 . S
O11 C18 1.267 . S
O12 C1 1.185 . S
O12 Dy3 2.398 . S
O13 C1 1.355 . S
O13 Dy3 2.491 . S
O14 Dy3 2.403 . S
O14 C9 1.254 . S
O15 Dy0 2.310 . S
O15 Dy3 2.664 . S
O15 C9 1.268 . S
O16 Dy0 2.351 . S
O16 C19 1.249 . S
O17 Dy3 2.326 . S
O17 C19 1.267 . S
C18 O10 1.249 . S
C18 O11 1.267 . S
C19 O16 1.249 . S
C19 O17 1.267 . S
Dy20 O24 2.398 . S
Dy20 O25 2.491 . S
Dy20 O26 2.403 . S
Dy20 O27 2.664 . S
Dy20 O31 2.326 . S
Dy20 O35 2.310 . S
Dy20 O36 2.351 . S
C21 O32 1.185 . S
C21 O33 1.355 . S
C22 O24 1.185 . S
C22 O25 1.355 . S
Dy23 O27 2.310 . S
Dy23 O30 2.351 . S
Dy23 O32 2.398 . S
Dy23 O33 2.491 . S
Dy23 O34 2.403 . S
Dy23 O35 2.664 . S
Dy23 O37 2.326 . S
O24 Dy20 2.398 . S
O24 C22 1.185 . S
O25 Dy20 2.491 . S
O25 C22 1.355 . S
O26 Dy20 2.403 . S
O26 C28 1.254 . S
O27 Dy20 2.664 . S
O27 Dy23 2.310 . S
O27 C28 1.268 . S
C28 O26 1.254 . S
C28 O27 1.268 . S
C29 O34 1.254 . S
C29 O35 1.268 . S
O30 Dy23 2.351 . S
O30 C38 1.249 . S
O31 Dy20 2.326 . S
O31 C38 1.267 . S
O32 C21 1.185 . S
O32 Dy23 2.398 . S
O33 C21 1.355 . S
O33 Dy23 2.491 . S
O34 Dy23 2.403 . S
O34 C29 1.254 . S
O35 Dy20 2.310 . S
O35 Dy23 2.664 . S
O35 C29 1.268 . S
O36 Dy20 2.351 . S
O36 C39 1.249 . S
O37 Dy23 2.326 . S
O37 C39 1.267 . S
C38 O30 1.249 . S
C38 O31 1.267 . S
C39 O36 1.249 . S
C39 O37 1.267 . S
Dy40 O44 2.398 . S
Dy40 O45 2.491 . S
Dy40 O46 2.403 . S
Dy40 O47 2.664 . S
Dy40 O51 2.326 . S
Dy40 O55 2.310 . S
Dy40 O56 2.351 . S
C41 O52 1.185 . S
C41 O53 1.355 . S
C42 O44 1.185 . S
C42 O45 1.355 . S
Dy43 O47 2.310 . S
Dy43 O50 2.351 . S
Dy43 O52 2.398 . S
Dy43 O53 2.491 . S
Dy43 O54 2.403 . S
Dy43 O55 2.664 . S
Dy43 O57 2.326 . S
O44 Dy40 2.398 . S
O44 C42 1.185 . S
O45 Dy40 2.491 . S
O45 C42 1.355 . S
O46 Dy40 2.403 . S
O46 C48 1.254 . S
O47 Dy40 2.664 . S
O47 Dy43 2.310 . S
O47 C48 1.268 . S
C48 O46 1.254 . S
C48 O47 1.268 . S
C49 O54 1.254 . S
C49 O55 1.268 . S
O50 Dy43 2.351 . S
O50 C58 1.249 . S
O51 Dy40 2.326 . S
O51 C58 1.267 . S
O52 C41 1.185 . S
O52 Dy43 2.398 . S
O53 C41 1.355 . S
O53 Dy43 2.491 . S
O54 Dy43 2.403 . S
O54 C49 1.254 . S
O55 Dy40 2.310 . S
O55 Dy43 2.664 . S
O55 C49 1.268 . S
O56 Dy40 2.351 . S
O56 C59 1.249 . S
O57 Dy43 2.326 . S
O57 C59 1.267 . S
C58 O50 1.249 . S
C58 O51 1.267 . S
C59 O56 1.249 . S
C59 O57 1.267 . S
Dy60 O64 2.398 . S
Dy60 O65 2.491 . S
Dy60 O66 2.403 . S
Dy60 O67 2.664 . S
Dy60 O71 2.326 . S
Dy60 O75 2.310 . S
Dy60 O76 2.351 . S
C61 O72 1.185 . S
C61 O73 1.355 . S
C62 O64 1.185 . S
C62 O65 1.355 . S
Dy63 O67 2.310 . S
Dy63 O70 2.351 . S
Dy63 O72 2.398 . S
Dy63 O73 2.491 . S
Dy63 O74 2.403 . S
Dy63 O75 2.664 . S
Dy63 O77 2.326 . S
O64 Dy60 2.398 . S
O64 C62 1.185 . S
O65 Dy60 2.491 . S
O65 C62 1.355 . S
O66 Dy60 2.403 . S
O66 C68 1.254 . S
O67 Dy60 2.664 . S
O67 Dy63 2.310 . S
O67 C68 1.268 . S
C68 O66 1.254 . S
C68 O67 1.268 . S
C69 O74 1.254 . S
C69 O75 1.268 . S
O70 Dy63 2.351 . S
O70 C78 1.249 . S
O71 Dy60 2.326 . S
O71 C78 1.267 . S
O72 C61 1.185 . S
O72 Dy63 2.398 . S
O73 C61 1.355 . S
O73 Dy63 2.491 . S
O74 Dy63 2.403 . S
O74 C69 1.254 . S
O75 Dy60 2.310 . S
O75 Dy63 2.664 . S
O75 C69 1.268 . S
O76 Dy60 2.351 . S
O76 C79 1.249 . S
O77 Dy63 2.326 . S
O77 C79 1.267 . S
C78 O70 1.249 . S
C78 O71 1.267 . S
C79 O76 1.249 . S
C79 O77 1.267 . S
Dy80 O84 2.398 . S
Dy80 O85 2.491 . S
Dy80 O86 2.403 . S
Dy80 O87 2.664 . S
Dy80 O91 2.326 . S
Dy80 O95 2.310 . S
Dy80 O96 2.351 . S
C81 O92 1.185 . S
C81 O93 1.355 . S
C82 O84 1.185 . S
C82 O85 1.355 . S
Dy83 O87 2.310 . S
Dy83 O90 2.351 . S
Dy83 O92 2.398 . S
Dy83 O93 2.491 . S
Dy83 O94 2.403 . S
Dy83 O95 2.664 . S
Dy83 O97 2.326 . S
O84 Dy80 2.398 . S
O84 C82 1.185 . S
O85 Dy80 2.491 . S
O85 C82 1.355 . S
O86 Dy80 2.403 . S
O86 C88 1.254 . S
O87 Dy80 2.664 . S
O87 Dy83 2.310 . S
O87 C88 1.268 . S
C88 O86 1.254 . S
C88 O87 1.268 . S
C89 O94 1.254 . S
C89 O95 1.268 . S
O90 Dy83 2.351 . S
O90 C98 1.249 . S
O91 Dy80 2.326 . S
O91 C98 1.267 . S
O92 C81 1.185 . S
O92 Dy83 2.398 . S
O93 C81 1.355 . S
O93 Dy83 2.491 . S
O94 Dy83 2.403 . S
O94 C89 1.254 . S
O95 Dy80 2.310 . S
O95 Dy83 2.664 . S
O95 C89 1.268 . S
O96 Dy80 2.351 . S
O96 C99 1.249 . S
O97 Dy83 2.326 . S
O97 C99 1.267 . S
C98 O90 1.249 . S
C98 O91 1.267 . S
C99 O96 1.249 . S
C99 O97 1.267 . S
Dy100 O104 2.398 . S
Dy100 O105 2.491 . S
Dy100 O106 2.403 . S
Dy100 O107 2.664 . S
Dy100 O111 2.326 . S
Dy100 O115 2.310 . S
Dy100 O116 2.351 . S
C101 O112 1.185 . S
C101 O113 1.355 . S
C102 O104 1.185 . S
C102 O105 1.355 . S
Dy103 O107 2.310 . S
Dy103 O110 2.351 . S
Dy103 O112 2.398 . S
Dy103 O113 2.491 . S
Dy103 O114 2.403 . S
Dy103 O115 2.664 . S
Dy103 O117 2.326 . S
O104 Dy100 2.398 . S
O104 C102 1.185 . S
O105 Dy100 2.491 . S
O105 C102 1.355 . S
O106 Dy100 2.403 . S
O106 C108 1.254 . S
O107 Dy100 2.664 . S
O107 Dy103 2.310 . S
O107 C108 1.268 . S
C108 O106 1.254 . S
C108 O107 1.268 . S
C109 O114 1.254 . S
C109 O115 1.268 . S
O110 Dy103 2.351 . S
O110 C118 1.249 . S
O111 Dy100 2.326 . S
O111 C118 1.267 . S
O112 C101 1.185 . S
O112 Dy103 2.398 . S
O113 C101 1.355 . S
O113 Dy103 2.491 . S
O114 Dy103 2.403 . S
O114 C109 1.254 . S
O115 Dy100 2.310 . S
O115 Dy103 2.664 . S
O115 C109 1.268 . S
O116 Dy100 2.351 . S
O116 C119 1.249 . S
O117 Dy103 2.326 . S
O117 C119 1.267 . S
C118 O110 1.249 . S
C118 O111 1.267 . S
C119 O116 1.249 . S
C119 O117 1.267 . S
Dy120 O124 2.398 . S
Dy120 O125 2.491 . S
Dy120 O126 2.403 . S
Dy120 O127 2.664 . S
Dy120 O131 2.326 . S
Dy120 O135 2.310 . S
Dy120 O136 2.351 . S
C121 O132 1.185 . S
C121 O133 1.355 . S
C122 O124 1.185 . S
C122 O125 1.355 . S
Dy123 O127 2.310 . S
Dy123 O130 2.351 . S
Dy123 O132 2.398 . S
Dy123 O133 2.491 . S
Dy123 O134 2.403 . S
Dy123 O135 2.664 . S
Dy123 O137 2.326 . S
O124 Dy120 2.398 . S
O124 C122 1.185 . S
O125 Dy120 2.491 . S
O125 C122 1.355 . S
O126 Dy120 2.403 . S
O126 C128 1.254 . S
O127 Dy120 2.664 . S
O127 Dy123 2.310 . S
O127 C128 1.268 . S
C128 O126 1.254 . S
C128 O127 1.268 . S
C129 O134 1.254 . S
C129 O135 1.268 . S
O130 Dy123 2.351 . S
O130 C138 1.249 . S
O131 Dy120 2.326 . S
O131 C138 1.267 . S
O132 C121 1.185 . S
O132 Dy123 2.398 . S
O133 C121 1.355 . S
O133 Dy123 2.491 . S
O134 Dy123 2.403 . S
O134 C129 1.254 . S
O135 Dy120 2.310 . S
O135 Dy123 2.664 . S
O135 C129 1.268 . S
O136 Dy120 2.351 . S
O136 C139 1.249 . S
O137 Dy123 2.326 . S
O137 C139 1.267 . S
C138 O130 1.249 . S
C138 O131 1.267 . S
C139 O136 1.249 . S
C139 O137 1.267 . S
Dy140 O144 2.398 . S
Dy140 O145 2.491 . S
Dy140 O146 2.403 . S
Dy140 O147 2.664 . S
Dy140 O151 2.326 . S
Dy140 O155 2.310 . S
Dy140 O156 2.351 . S
C141 O152 1.185 . S
C141 O153 1.355 . S
C142 O144 1.185 . S
C142 O145 1.355 . S
Dy143 O147 2.310 . S
Dy143 O150 2.351 . S
Dy143 O152 2.398 . S
Dy143 O153 2.491 . S
Dy143 O154 2.403 . S
Dy143 O155 2.664 . S
Dy143 O157 2.326 . S
O144 Dy140 2.398 . S
O144 C142 1.185 . S
O145 Dy140 2.491 . S
O145 C142 1.355 . S
O146 Dy140 2.403 . S
O146 C148 1.254 . S
O147 Dy140 2.664 . S
O147 Dy143 2.310 . S
O147 C148 1.268 . S
C148 O146 1.254 . S
C148 O147 1.268 . S
C149 O154 1.254 . S
C149 O155 1.268 . S
O150 Dy143 2.351 . S
O150 C158 1.249 . S
O151 Dy140 2.326 . S
O151 C158 1.267 . S
O152 C141 1.185 . S
O152 Dy143 2.398 . S
O153 C141 1.355 . S
O153 Dy143 2.491 . S
O154 Dy143 2.403 . S
O154 C149 1.254 . S
O155 Dy140 2.310 . S
O155 Dy143 2.664 . S
O155 C149 1.268 . S
O156 Dy140 2.351 . S
O156 C159 1.249 . S
O157 Dy143 2.326 . S
O157 C159 1.267 . S
C158 O150 1.249 . S
C158 O151 1.267 . S
C159 O156 1.249 . S
C159 O157 1.267 . S
Dy160 O164 2.398 . S
Dy160 O165 2.491 . S
Dy160 O166 2.403 . S
Dy160 O167 2.664 . S
Dy160 O171 2.326 . S
Dy160 O175 2.310 . S
Dy160 O176 2.351 . S
C161 O172 1.185 . S
C161 O173 1.355 . S
C162 O164 1.185 . S
C162 O165 1.355 . S
Dy163 O167 2.310 . S
Dy163 O170 2.351 . S
Dy163 O172 2.398 . S
Dy163 O173 2.491 . S
Dy163 O174 2.403 . S
Dy163 O175 2.664 . S
Dy163 O177 2.326 . S
O164 Dy160 2.398 . S
O164 C162 1.185 . S
O165 Dy160 2.491 . S
O165 C162 1.355 . S
O166 Dy160 2.403 . S
O166 C168 1.254 . S
O167 Dy160 2.664 . S
O167 Dy163 2.310 . S
O167 C168 1.268 . S
C168 O166 1.254 . S
C168 O167 1.268 . S
C169 O174 1.254 . S
C169 O175 1.268 . S
O170 Dy163 2.351 . S
O170 C178 1.249 . S
O171 Dy160 2.326 . S
O171 C178 1.267 . S
O172 C161 1.185 . S
O172 Dy163 2.398 . S
O173 C161 1.355 . S
O173 Dy163 2.491 . S
O174 Dy163 2.403 . S
O174 C169 1.254 . S
O175 Dy160 2.310 . S
O175 Dy163 2.664 . S
O175 C169 1.268 . S
O176 Dy160 2.351 . S
O176 C179 1.249 . S
O177 Dy163 2.326 . S
O177 C179 1.267 . S
C178 O170 1.249 . S
C178 O171 1.267 . S
C179 O176 1.249 . S
C179 O177 1.267 . S
Dy180 O184 2.398 . S
Dy180 O185 2.491 . S
Dy180 O186 2.403 . S
Dy180 O187 2.664 . S
Dy180 O191 2.326 . S
Dy180 O195 2.310 . S
Dy180 O196 2.351 . S
C181 O192 1.185 . S
C181 O193 1.355 . S
C182 O184 1.185 . S
C182 O185 1.355 . S
Dy183 O187 2.310 . S
Dy183 O190 2.351 . S
Dy183 O192 2.398 . S
Dy183 O193 2.491 . S
Dy183 O194 2.403 . S
Dy183 O195 2.664 . S
Dy183 O197 2.326 . S
O184 Dy180 2.398 . S
O184 C182 1.185 . S
O185 Dy180 2.491 . S
O185 C182 1.355 . S
O186 Dy180 2.403 . S
O186 C188 1.254 . S
O187 Dy180 2.664 . S
O187 Dy183 2.310 . S
O187 C188 1.268 . S
C188 O186 1.254 . S
C188 O187 1.268 . S
C189 O194 1.254 . S
C189 O195 1.268 . S
O190 Dy183 2.351 . S
O190 C198 1.249 . S
O191 Dy180 2.326 . S
O191 C198 1.267 . S
O192 C181 1.185 . S
O192 Dy183 2.398 . S
O193 C181 1.355 . S
O193 Dy183 2.491 . S
O194 Dy183 2.403 . S
O194 C189 1.254 . S
O195 Dy180 2.310 . S
O195 Dy183 2.664 . S
O195 C189 1.268 . S
O196 Dy180 2.351 . S
O196 C199 1.249 . S
O197 Dy183 2.326 . S
O197 C199 1.267 . S
C198 O190 1.249 . S
C198 O191 1.267 . S
C199 O196 1.249 . S
C199 O197 1.267 . S
Dy200 O204 2.398 . S
Dy200 O205 2.491 . S
Dy200 O206 2.403 . S
Dy200 O207 2.664 . S
Dy200 O211 2.326 . S
Dy200 O215 2.310 . S
Dy200 O216 2.351 . S
C201 O212 1.185 . S
C201 O213 1.355 . S
C202 O204 1.185 . S
C202 O205 1.355 . S
Dy203 O207 2.310 . S
Dy203 O210 2.351 . S
Dy203 O212 2.398 . S
Dy203 O213 2.491 . S
Dy203 O214 2.403 . S
Dy203 O215 2.664 . S
Dy203 O217 2.326 . S
O204 Dy200 2.398 . S
O204 C202 1.185 . S
O205 Dy200 2.491 . S
O205 C202 1.355 . S
O206 Dy200 2.403 . S
O206 C208 1.254 . S
O207 Dy200 2.664 . S
O207 Dy203 2.310 . S
O207 C208 1.268 . S
C208 O206 1.254 . S
C208 O207 1.268 . S
C209 O214 1.254 . S
C209 O215 1.268 . S
O210 Dy203 2.351 . S
O210 C218 1.249 . S
O211 Dy200 2.326 . S
O211 C218 1.267 . S
O212 C201 1.185 . S
O212 Dy203 2.398 . S
O213 C201 1.355 . S
O213 Dy203 2.491 . S
O214 Dy203 2.403 . S
O214 C209 1.254 . S
O215 Dy200 2.310 . S
O215 Dy203 2.664 . S
O215 C209 1.268 . S
O216 Dy200 2.351 . S
O216 C219 1.249 . S
O217 Dy203 2.326 . S
O217 C219 1.267 . S
C218 O210 1.249 . S
C218 O211 1.267 . S
C219 O216 1.249 . S
C219 O217 1.267 . S
Dy220 O224 2.398 . S
Dy220 O225 2.491 . S
Dy220 O226 2.403 . S
Dy220 O227 2.664 . S
Dy220 O231 2.326 . S
Dy220 O235 2.310 . S
Dy220 O236 2.351 . S
C221 O232 1.185 . S
C221 O233 1.355 . S
C222 O224 1.185 . S
C222 O225 1.355 . S
Dy223 O227 2.310 . S
Dy223 O230 2.351 . S
Dy223 O232 2.398 . S
Dy223 O233 2.491 . S
Dy223 O234 2.403 . S
Dy223 O235 2.664 . S
Dy223 O237 2.326 . S
O224 Dy220 2.398 . S
O224 C222 1.185 . S
O225 Dy220 2.491 . S
O225 C222 1.355 . S
O226 Dy220 2.403 . S
O226 C228 1.254 . S
O227 Dy220 2.664 . S
O227 Dy223 2.310 . S
O227 C228 1.268 . S
C228 O226 1.254 . S
C228 O227 1.268 . S
C229 O234 1.254 . S
C229 O235 1.268 . S
O230 Dy223 2.351 . S
O230 C238 1.249 . S
O231 Dy220 2.326 . S
O231 C238 1.267 . S
O232 C221 1.185 . S
O232 Dy223 2.398 . S
O233 C221 1.355 . S
O233 Dy223 2.491 . S
O234 Dy223 2.403 . S
O234 C229 1.254 . S
O235 Dy220 2.310 . S
O235 Dy223 2.664 . S
O235 C229 1.268 . S
O236 Dy220 2.351 . S
O236 C239 1.249 . S
O237 Dy223 2.326 . S
O237 C239 1.267 . S
C238 O230 1.249 . S
C238 O231 1.267 . S
C239 O236 1.249 . S
C239 O237 1.267 . S
Dy240 O244 2.398 . S
Dy240 O245 2.491 . S
Dy240 O246 2.403 . S
Dy240 O247 2.664 . S
Dy240 O251 2.326 . S
Dy240 O255 2.310 . S
Dy240 O256 2.351 . S
C241 O252 1.185 . S
C241 O253 1.355 . S
C242 O244 1.185 . S
C242 O245 1.355 . S
Dy243 O247 2.310 . S
Dy243 O250 2.351 . S
Dy243 O252 2.398 . S
Dy243 O253 2.491 . S
Dy243 O254 2.403 . S
Dy243 O255 2.664 . S
Dy243 O257 2.326 . S
O244 Dy240 2.398 . S
O244 C242 1.185 . S
O245 Dy240 2.491 . S
O245 C242 1.355 . S
O246 Dy240 2.403 . S
O246 C248 1.254 . S
O247 Dy240 2.664 . S
O247 Dy243 2.310 . S
O247 C248 1.268 . S
C248 O246 1.254 . S
C248 O247 1.268 . S
C249 O254 1.254 . S
C249 O255 1.268 . S
O250 Dy243 2.351 . S
O250 C258 1.249 . S
O251 Dy240 2.326 . S
O251 C258 1.267 . S
O252 C241 1.185 . S
O252 Dy243 2.398 . S
O253 C241 1.355 . S
O253 Dy243 2.491 . S
O254 Dy243 2.403 . S
O254 C249 1.254 . S
O255 Dy240 2.310 . S
O255 Dy243 2.664 . S
O255 C249 1.268 . S
O256 Dy240 2.351 . S
O256 C259 1.249 . S
O257 Dy243 2.326 . S
O257 C259 1.267 . S
C258 O250 1.249 . S
C258 O251 1.267 . S
C259 O256 1.249 . S
C259 O257 1.267 . S
Dy260 O264 2.398 . S
Dy260 O265 2.491 . S
Dy260 O266 2.403 . S
Dy260 O267 2.664 . S
Dy260 O271 2.326 . S
Dy260 O275 2.310 . S
Dy260 O276 2.351 . S
C261 O272 1.185 . S
C261 O273 1.355 . S
C262 O264 1.185 . S
C262 O265 1.355 . S
Dy263 O267 2.310 . S
Dy263 O270 2.351 . S
Dy263 O272 2.398 . S
Dy263 O273 2.491 . S
Dy263 O274 2.403 . S
Dy263 O275 2.664 . S
Dy263 O277 2.326 . S
O264 Dy260 2.398 . S
O264 C262 1.185 . S
O265 Dy260 2.491 . S
O265 C262 1.355 . S
O266 Dy260 2.403 . S
O266 C268 1.254 . S
O267 Dy260 2.664 . S
O267 Dy263 2.310 . S
O267 C268 1.268 . S
C268 O266 1.254 . S
C268 O267 1.268 . S
C269 O274 1.254 . S
C269 O275 1.268 . S
O270 Dy263 2.351 . S
O270 C278 1.249 . S
O271 Dy260 2.326 . S
O271 C278 1.267 . S
O272 C261 1.185 . S
O272 Dy263 2.398 . S
O273 C261 1.355 . S
O273 Dy263 2.491 . S
O274 Dy263 2.403 . S
O274 C269 1.254 . S
O275 Dy260 2.310 . S
O275 Dy263 2.664 . S
O275 C269 1.268 . S
O276 Dy260 2.351 . S
O276 C279 1.249 . S
O277 Dy263 2.326 . S
O277 C279 1.267 . S
C278 O270 1.249 . S
C278 O271 1.267 . S
C279 O276 1.249 . S
C279 O277 1.267 . S
Dy280 O284 2.398 . S
Dy280 O285 2.491 . S
Dy280 O286 2.403 . S
Dy280 O287 2.664 . S
Dy280 O291 2.326 . S
Dy280 O295 2.310 . S
Dy280 O296 2.351 . S
C281 O292 1.185 . S
C281 O293 1.355 . S
C282 O284 1.185 . S
C282 O285 1.355 . S
Dy283 O287 2.310 . S
Dy283 O290 2.351 . S
Dy283 O292 2.398 . S
Dy283 O293 2.491 . S
Dy283 O294 2.403 . S
Dy283 O295 2.664 . S
Dy283 O297 2.326 . S
O284 Dy280 2.398 . S
O284 C282 1.185 . S
O285 Dy280 2.491 . S
O285 C282 1.355 . S
O286 Dy280 2.403 . S
O286 C288 1.254 . S
O287 Dy280 2.664 . S
O287 Dy283 2.310 . S
O287 C288 1.268 . S
C288 O286 1.254 . S
C288 O287 1.268 . S
C289 O294 1.254 . S
C289 O295 1.268 . S
O290 Dy283 2.351 . S
O290 C298 1.249 . S
O291 Dy280 2.326 . S
O291 C298 1.267 . S
O292 C281 1.185 . S
O292 Dy283 2.398 . S
O293 C281 1.355 . S
O293 Dy283 2.491 . S
O294 Dy283 2.403 . S
O294 C289 1.254 . S
O295 Dy280 2.310 . S
O295 Dy283 2.664 . S
O295 C289 1.268 . S
O296 Dy280 2.351 . S
O296 C299 1.249 . S
O297 Dy283 2.326 . S
O297 C299 1.267 . S
C298 O290 1.249 . S
C298 O291 1.267 . S
C299 O296 1.249 . S
C299 O297 1.267 . S
Dy300 O304 2.398 . S
Dy300 O305 2.491 . S
Dy300 O306 2.403 . S
Dy300 O307 2.664 . S
Dy300 O311 2.326 . S
Dy300 O315 2.310 . S
Dy300 O316 2.351 . S
C301 O312 1.185 . S
C301 O313 1.355 . S
C302 O304 1.185 . S
C302 O305 1.355 . S
Dy303 O307 2.310 . S
Dy303 O310 2.351 . S
Dy303 O312 2.398 . S
Dy303 O313 2.491 . S
Dy303 O314 2.403 . S
Dy303 O315 2.664 . S
Dy303 O317 2.326 . S
O304 Dy300 2.398 . S
O304 C302 1.185 . S
O305 Dy300 2.491 . S
O305 C302 1.355 . S
O306 Dy300 2.403 . S
O306 C308 1.254 . S
O307 Dy300 2.664 . S
O307 Dy303 2.310 . S
O307 C308 1.268 . S
C308 O306 1.254 . S
C308 O307 1.268 . S
C309 O314 1.254 . S
C309 O315 1.268 . S
O310 Dy303 2.351 . S
O310 C318 1.249 . S
O311 Dy300 2.326 . S
O311 C318 1.267 . S
O312 C301 1.185 . S
O312 Dy303 2.398 . S
O313 C301 1.355 . S
O313 Dy303 2.491 . S
O314 Dy303 2.403 . S
O314 C309 1.254 . S
O315 Dy300 2.310 . S
O315 Dy303 2.664 . S
O315 C309 1.268 . S
O316 Dy300 2.351 . S
O316 C319 1.249 . S
O317 Dy303 2.326 . S
O317 C319 1.267 . S
C318 O310 1.249 . S
C318 O311 1.267 . S
C319 O316 1.249 . S
C319 O317 1.267 . S
Dy320 O324 2.398 . S
Dy320 O325 2.491 . S
Dy320 O326 2.403 . S
Dy320 O327 2.664 . S
Dy320 O331 2.326 . S
Dy320 O335 2.310 . S
Dy320 O336 2.351 . S
C321 O332 1.185 . S
C321 O333 1.355 . S
C322 O324 1.185 . S
C322 O325 1.355 . S
Dy323 O327 2.310 . S
Dy323 O330 2.351 . S
Dy323 O332 2.398 . S
Dy323 O333 2.491 . S
Dy323 O334 2.403 . S
Dy323 O335 2.664 . S
Dy323 O337 2.326 . S
O324 Dy320 2.398 . S
O324 C322 1.185 . S
O325 Dy320 2.491 . S
O325 C322 1.355 . S
O326 Dy320 2.403 . S
O326 C328 1.254 . S
O327 Dy320 2.664 . S
O327 Dy323 2.310 . S
O327 C328 1.268 . S
C328 O326 1.254 . S
C328 O327 1.268 . S
C329 O334 1.254 . S
C329 O335 1.268 . S
O330 Dy323 2.351 . S
O330 C338 1.249 . S
O331 Dy320 2.326 . S
O331 C338 1.267 . S
O332 C321 1.185 . S
O332 Dy323 2.398 . S
O333 C321 1.355 . S
O333 Dy323 2.491 . S
O334 Dy323 2.403 . S
O334 C329 1.254 . S
O335 Dy320 2.310 . S
O335 Dy323 2.664 . S
O335 C329 1.268 . S
O336 Dy320 2.351 . S
O336 C339 1.249 . S
O337 Dy323 2.326 . S
O337 C339 1.267 . S
C338 O330 1.249 . S
C338 O331 1.267 . S
C339 O336 1.249 . S
C339 O337 1.267 . S
Dy340 O344 2.398 . S
Dy340 O345 2.491 . S
Dy340 O346 2.403 . S
Dy340 O347 2.664 . S
Dy340 O351 2.326 . S
Dy340 O355 2.310 . S
Dy340 O356 2.351 . S
C341 O352 1.185 . S
C341 O353 1.355 . S
C342 O344 1.185 . S
C342 O345 1.355 . S
Dy343 O347 2.310 . S
Dy343 O350 2.351 . S
Dy343 O352 2.398 . S
Dy343 O353 2.491 . S
Dy343 O354 2.403 . S
Dy343 O355 2.664 . S
Dy343 O357 2.326 . S
O344 Dy340 2.398 . S
O344 C342 1.185 . S
O345 Dy340 2.491 . S
O345 C342 1.355 . S
O346 Dy340 2.403 . S
O346 C348 1.254 . S
O347 Dy340 2.664 . S
O347 Dy343 2.310 . S
O347 C348 1.268 . S
C348 O346 1.254 . S
C348 O347 1.268 . S
C349 O354 1.254 . S
C349 O355 1.268 . S
O350 Dy343 2.351 . S
O350 C358 1.249 . S
O351 Dy340 2.326 . S
O351 C358 1.267 . S
O352 C341 1.185 . S
O352 Dy343 2.398 . S
O353 C341 1.355 . S
O353 Dy343 2.491 . S
O354 Dy343 2.403 . S
O354 C349 1.254 . S
O355 Dy340 2.310 . S
O355 Dy343 2.664 . S
O355 C349 1.268 . S
O356 Dy340 2.351 . S
O356 C359 1.249 . S
O357 Dy343 2.326 . S
O357 C359 1.267 . S
C358 O350 1.249 . S
C358 O351 1.267 . S
C359 O356 1.249 . S
C359 O357 1.267 . S
Dy360 O364 2.398 . S
Dy360 O365 2.491 . S
Dy360 O366 2.403 . S
Dy360 O367 2.664 . S
Dy360 O371 2.326 . S
Dy360 O375 2.310 . S
Dy360 O376 2.351 . S
C361 O372 1.185 . S
C361 O373 1.355 . S
C362 O364 1.185 . S
C362 O365 1.355 . S
Dy363 O367 2.310 . S
Dy363 O370 2.351 . S
Dy363 O372 2.398 . S
Dy363 O373 2.491 . S
Dy363 O374 2.403 . S
Dy363 O375 2.664 . S
Dy363 O377 2.326 . S
O364 Dy360 2.398 . S
O364 C362 1.185 . S
O365 Dy360 2.491 . S
O365 C362 1.355 . S
O366 Dy360 2.403 . S
O366 C368 1.254 . S
O367 Dy360 2.664 . S
O367 Dy363 2.310 . S
O367 C368 1.268 . S
C368 O366 1.254 . S
C368 O367 1.268 . S
C369 O374 1.254 . S
C369 O375 1.268 . S
O370 Dy363 2.351 . S
O370 C378 1.249 . S
O371 Dy360 2.326 . S
O371 C378 1.267 . S
O372 C361 1.185 . S
O372 Dy363 2.398 . S
O373 C361 1.355 . S
O373 Dy363 2.491 . S
O374 Dy363 2.403 . S
O374 C369 1.254 . S
O375 Dy360 2.310 . S
O375 Dy363 2.664 . S
O375 C369 1.268 . S
O376 Dy360 2.351 . S
O376 C379 1.249 . S
O377 Dy363 2.326 . S
O377 C379 1.267 . S
C378 O370 1.249 . S
C378 O371 1.267 . S
C379 O376 1.249 . S
C379 O377 1.267 . S
Dy380 O384 2.398 . S
Dy380 O385 2.491 . S
Dy380 O386 2.403 . S
Dy380 O387 2.664 . S
Dy380 O391 2.326 . S
Dy380 O395 2.310 . S
Dy380 O396 2.351 . S
C381 O392 1.185 . S
C381 O393 1.355 . S
C382 O384 1.185 . S
C382 O385 1.355 . S
Dy383 O387 2.310 . S
Dy383 O390 2.351 . S
Dy383 O392 2.398 . S
Dy383 O393 2.491 . S
Dy383 O394 2.403 . S
Dy383 O395 2.664 . S
Dy383 O397 2.326 . S
O384 Dy380 2.398 . S
O384 C382 1.185 . S
O385 Dy380 2.491 . S
O385 C382 1.355 . S
O386 Dy380 2.403 . S
O386 C388 1.254 . S
O387 Dy380 2.664 . S
O387 Dy383 2.310 . S
O387 C388 1.268 . S
C388 O386 1.254 . S
C388 O387 1.268 . S
C389 O394 1.254 . S
C389 O395 1.268 . S
O390 Dy383 2.351 . S
O390 C398 1.249 . S
O391 Dy380 2.326 . S
O391 C398 1.267 . S
O392 C381 1.185 . S
O392 Dy383 2.398 . S
O393 C381 1.355 . S
O393 Dy383 2.491 . S
O394 Dy383 2.403 . S
O394 C389 1.254 . S
O395 Dy380 2.310 . S
O395 Dy383 2.664 . S
O395 C389 1.268 . S
O396 Dy380 2.351 . S
O396 C399 1.249 . S
O397 Dy383 2.326 . S
O397 C399 1.267 . S
C398 O390 1.249 . S
C398 O391 1.267 . S
C399 O396 1.249 . S
C399 O397 1.267 . S
Dy400 O404 2.398 . S
Dy400 O405 2.491 . S
Dy400 O406 2.403 . S
Dy400 O407 2.664 . S
Dy400 O411 2.326 . S
Dy400 O415 2.310 . S
Dy400 O416 2.351 . S
C401 O412 1.185 . S
C401 O413 1.355 . S
C402 O404 1.185 . S
C402 O405 1.355 . S
Dy403 O407 2.310 . S
Dy403 O410 2.351 . S
Dy403 O412 2.398 . S
Dy403 O413 2.491 . S
Dy403 O414 2.403 . S
Dy403 O415 2.664 . S
Dy403 O417 2.326 . S
O404 Dy400 2.398 . S
O404 C402 1.185 . S
O405 Dy400 2.491 . S
O405 C402 1.355 . S
O406 Dy400 2.403 . S
O406 C408 1.254 . S
O407 Dy400 2.664 . S
O407 Dy403 2.310 . S
O407 C408 1.268 . S
C408 O406 1.254 . S
C408 O407 1.268 . S
C409 O414 1.254 . S
C409 O415 1.268 . S
O410 Dy403 2.351 . S
O410 C418 1.249 . S
O411 Dy400 2.326 . S
O411 C418 1.267 . S
O412 C401 1.185 . S
O412 Dy403 2.398 . S
O413 C401 1.355 . S
O413 Dy403 2.491 . S
O414 Dy403 2.403 . S
O414 C409 1.254 . S
O415 Dy400 2.310 . S
O415 Dy403 2.664 . S
O415 C409 1.268 . S
O416 Dy400 2.351 . S
O416 C419 1.249 . S
O417 Dy403 2.326 . S
O417 C419 1.267 . S
C418 O410 1.249 . S
C418 O411 1.267 . S
C419 O416 1.249 . S
C419 O417 1.267 . S
Dy420 O424 2.398 . S
Dy420 O425 2.491 . S
Dy420 O426 2.403 . S
Dy420 O427 2.664 1_554 S
Dy420 O431 2.326 . S
Dy420 O435 2.310 . S
Dy420 O436 2.351 . S
C421 O432 1.185 . S
C421 O433 1.355 . S
C422 O424 1.185 . S
C422 O425 1.355 . S
Dy423 O427 2.310 . S
Dy423 O430 2.351 . S
Dy423 O432 2.398 . S
Dy423 O433 2.491 . S
Dy423 O434 2.403 . S
Dy423 O435 2.664 1_556 S
Dy423 O437 2.326 . S
O424 Dy420 2.398 . S
O424 C422 1.185 . S
O425 Dy420 2.491 . S
O425 C422 1.355 . S
O426 Dy420 2.403 . S
O426 C428 1.254 . S
O427 Dy420 2.664 1_556 S
O427 Dy423 2.310 . S
O427 C428 1.268 1_556 S
C428 O426 1.254 . S
C428 O427 1.268 1_554 S
C429 O434 1.254 . S
C429 O435 1.268 1_556 S
O430 Dy423 2.351 . S
O430 C438 1.249 1_556 S
O431 Dy420 2.326 . S
O431 C438 1.267 . S
O432 C421 1.185 . S
O432 Dy423 2.398 . S
O433 C421 1.355 . S
O433 Dy423 2.491 . S
O434 Dy423 2.403 . S
O434 C429 1.254 . S
O435 Dy420 2.310 . S
O435 Dy423 2.664 1_554 S
O435 C429 1.268 1_554 S
O436 Dy420 2.351 . S
O436 C439 1.249 1_554 S
O437 Dy423 2.326 . S
O437 C439 1.267 . S
C438 O430 1.249 1_554 S
C438 O431 1.267 . S
C439 O436 1.249 1_556 S
C439 O437 1.267 . S
Dy440 O444 2.398 . S
Dy440 O445 2.491 . S
Dy440 O446 2.403 . S
Dy440 O447 2.664 1_554 S
Dy440 O451 2.326 . S
Dy440 O455 2.310 . S
Dy440 O456 2.351 . S
C441 O452 1.185 . S
C441 O453 1.355 . S
C442 O444 1.185 . S
C442 O445 1.355 . S
Dy443 O447 2.310 . S
Dy443 O450 2.351 . S
Dy443 O452 2.398 . S
Dy443 O453 2.491 . S
Dy443 O454 2.403 . S
Dy443 O455 2.664 1_556 S
Dy443 O457 2.326 . S
O444 Dy440 2.398 . S
O444 C442 1.185 . S
O445 Dy440 2.491 . S
O445 C442 1.355 . S
O446 Dy440 2.403 . S
O446 C448 1.254 . S
O447 Dy440 2.664 1_556 S
O447 Dy443 2.310 . S
O447 C448 1.268 1_556 S
C448 O446 1.254 . S
C448 O447 1.268 1_554 S
C449 O454 1.254 . S
C449 O455 1.268 1_556 S
O450 Dy443 2.351 . S
O450 C458 1.249 1_556 S
O451 Dy440 2.326 . S
O451 C458 1.267 . S
O452 C441 1.185 . S
O452 Dy443 2.398 . S
O453 C441 1.355 . S
O453 Dy443 2.491 . S
O454 Dy443 2.403 . S
O454 C449 1.254 . S
O455 Dy440 2.310 . S
O455 Dy443 2.664 1_554 S
O455 C449 1.268 1_554 S
O456 Dy440 2.351 . S
O456 C459 1.249 1_554 S
O457 Dy443 2.326 . S
O457 C459 1.267 . S
C458 O450 1.249 1_554 S
C458 O451 1.267 . S
C459 O456 1.249 1_556 S
C459 O457 1.267 . S
Dy460 O464 2.398 . S
Dy460 O465 2.491 . S
Dy460 O466 2.403 . S
Dy460 O467 2.664 1_554 S
Dy460 O471 2.326 . S
Dy460 O475 2.310 . S
Dy460 O476 2.351 . S
C461 O472 1.185 . S
C461 O473 1.355 . S
C462 O464 1.185 . S
C462 O465 1.355 . S
Dy463 O467 2.310 . S
Dy463 O470 2.351 . S
Dy463 O472 2.398 . S
Dy463 O473 2.491 . S
Dy463 O474 2.403 . S
Dy463 O475 2.664 1_556 S
Dy463 O477 2.326 . S
O464 Dy460 2.398 . S
O464 C462 1.185 . S
O465 Dy460 2.491 . S
O465 C462 1.355 . S
O466 Dy460 2.403 . S
O466 C468 1.254 . S
O467 Dy460 2.664 1_556 S
O467 Dy463 2.310 . S
O467 C468 1.268 1_556 S
C468 O466 1.254 . S
C468 O467 1.268 1_554 S
C469 O474 1.254 . S
C469 O475 1.268 1_556 S
O470 Dy463 2.351 . S
O470 C478 1.249 1_556 S
O471 Dy460 2.326 . S
O471 C478 1.267 . S
O472 C461 1.185 . S
O472 Dy463 2.398 . S
O473 C461 1.355 . S
O473 Dy463 2.491 . S
O474 Dy463 2.403 . S
O474 C469 1.254 . S
O475 Dy460 2.310 . S
O475 Dy463 2.664 1_554 S
O475 C469 1.268 1_554 S
O476 Dy460 2.351 . S
O476 C479 1.249 1_554 S
O477 Dy463 2.326 . S
O477 C479 1.267 . S
C478 O470 1.249 1_554 S
C478 O471 1.267 . S
C479 O476 1.249 1_556 S
C479 O477 1.267 . S
Dy480 O484 2.398 . S
Dy480 O485 2.491 . S
Dy480 O486 2.403 . S
Dy480 O487 2.664 . S
Dy480 O491 2.326 . S
Dy480 O495 2.310 . S
Dy480 O496 2.351 . S
C481 O492 1.185 . S
C481 O493 1.355 . S
C482 O484 1.185 . S
C482 O485 1.355 . S
Dy483 O487 2.310 . S
Dy483 O490 2.351 . S
Dy483 O492 2.398 . S
Dy483 O493 2.491 . S
Dy483 O494 2.403 . S
Dy483 O495 2.664 . S
Dy483 O497 2.326 . S
O484 Dy480 2.398 . S
O484 C482 1.185 . S
O485 Dy480 2.491 . S
O485 C482 1.355 . S
O486 Dy480 2.403 . S
O486 C488 1.254 . S
O487 Dy480 2.664 . S
O487 Dy483 2.310 . S
O487 C488 1.268 . S
C488 O486 1.254 . S
C488 O487 1.268 . S
C489 O494 1.254 . S
C489 O495 1.268 . S
O490 Dy483 2.351 . S
O490 C498 1.249 . S
O491 Dy480 2.326 . S
O491 C498 1.267 . S
O492 C481 1.185 . S
O492 Dy483 2.398 . S
O493 C481 1.355 . S
O493 Dy483 2.491 . S
O494 Dy483 2.403 . S
O494 C489 1.254 . S
O495 Dy480 2.310 . S
O495 Dy483 2.664 . S
O495 C489 1.268 . S
O496 Dy480 2.351 . S
O496 C499 1.249 . S
O497 Dy483 2.326 . S
O497 C499 1.267 . S
C498 O490 1.249 . S
C498 O491 1.267 . S
C499 O496 1.249 . S
C499 O497 1.267 . S
Dy500 O504 2.398 . S
Dy500 O505 2.491 . S
Dy500 O506 2.403 . S
Dy500 O507 2.664 . S
Dy500 O511 2.326 . S
Dy500 O515 2.310 . S
Dy500 O516 2.351 . S
C501 O512 1.185 . S
C501 O513 1.355 . S
C502 O504 1.185 . S
C502 O505 1.355 . S
Dy503 O507 2.310 . S
Dy503 O510 2.351 . S
Dy503 O512 2.398 . S
Dy503 O513 2.491 . S
Dy503 O514 2.403 . S
Dy503 O515 2.664 . S
Dy503 O517 2.326 . S
O504 Dy500 2.398 . S
O504 C502 1.185 . S
O505 Dy500 2.491 . S
O505 C502 1.355 . S
O506 Dy500 2.403 . S
O506 C508 1.254 . S
O507 Dy500 2.664 . S
O507 Dy503 2.310 . S
O507 C508 1.268 . S
C508 O506 1.254 . S
C508 O507 1.268 . S
C509 O514 1.254 . S
C509 O515 1.268 . S
O510 Dy503 2.351 . S
O510 C518 1.249 . S
O511 Dy500 2.326 . S
O511 C518 1.267 . S
O512 C501 1.185 . S
O512 Dy503 2.398 . S
O513 C501 1.355 . S
O513 Dy503 2.491 . S
O514 Dy503 2.403 . S
O514 C509 1.254 . S
O515 Dy500 2.310 . S
O515 Dy503 2.664 . S
O515 C509 1.268 . S
O516 Dy500 2.351 . S
O516 C519 1.249 . S
O517 Dy503 2.326 . S
O517 C519 1.267 . S
C518 O510 1.249 . S
C518 O511 1.267 . S
C519 O516 1.249 . S
C519 O517 1.267 . S
Dy520 O524 2.398 . S
Dy520 O525 2.491 . S
Dy520 O526 2.403 . S
Dy520 O527 2.664 . S
Dy520 O531 2.326 . S
Dy520 O535 2.310 . S
Dy520 O536 2.351 . S
C521 O532 1.185 . S
C521 O533 1.355 . S
C522 O524 1.185 . S
C522 O525 1.355 . S
Dy523 O527 2.310 . S
Dy523 O530 2.351 . S
Dy523 O532 2.398 . S
Dy523 O533 2.491 . S
Dy523 O534 2.403 . S
Dy523 O535 2.664 . S
Dy523 O537 2.326 . S
O524 Dy520 2.398 . S
O524 C522 1.185 . S
O525 Dy520 2.491 . S
O525 C522 1.355 . S
O526 Dy520 2.403 . S
O526 C528 1.254 . S
O527 Dy520 2.664 . S
O527 Dy523 2.310 . S
O527 C528 1.268 . S
C528 O526 1.254 . S
C528 O527 1.268 . S
C529 O534 1.254 . S
C529 O535 1.268 . S
O530 Dy523 2.351 . S
O530 C538 1.249 . S
O531 Dy520 2.326 . S
O531 C538 1.267 . S
O532 C521 1.185 . S
O532 Dy523 2.398 . S
O533 C521 1.355 . S
O533 Dy523 2.491 . S
O534 Dy523 2.403 . S
O534 C529 1.254 . S
O535 Dy520 2.310 . S
O535 Dy523 2.664 . S
O535 C529 1.268 . S
O536 Dy520 2.351 . S
O536 C539 1.249 . S
O537 Dy523 2.326 . S
O537 C539 1.267 . S
C538 O530 1.249 . S
C538 O531 1.267 . S
C539 O536 1.249 . S
C539 O537 1.267 . S
Dy540 O544 2.398 . S
Dy540 O545 2.491 . S
Dy540 O546 2.403 . S
Dy540 O547 2.664 1_554 S
Dy540 O551 2.326 . S
Dy540 O555 2.310 . S
Dy540 O556 2.351 . S
C541 O552 1.185 . S
C541 O553 1.355 . S
C542 O544 1.185 . S
C542 O545 1.355 . S
Dy543 O547 2.310 . S
Dy543 O550 2.351 . S
Dy543 O552 2.398 . S
Dy543 O553 2.491 . S
Dy543 O554 2.403 . S
Dy543 O555 2.664 1_556 S
Dy543 O557 2.326 . S
O544 Dy540 2.398 . S
O544 C542 1.185 . S
O545 Dy540 2.491 . S
O545 C542 1.355 . S
O546 Dy540 2.403 . S
O546 C548 1.254 . S
O547 Dy540 2.664 1_556 S
O547 Dy543 2.310 . S
O547 C548 1.268 1_556 S
C548 O546 1.254 . S
C548 O547 1.268 1_554 S
C549 O554 1.254 . S
C549 O555 1.268 1_556 S
O550 Dy543 2.351 . S
O550 C558 1.249 1_556 S
O551 Dy540 2.326 . S
O551 C558 1.267 . S
O552 C541 1.185 . S
O552 Dy543 2.398 . S
O553 C541 1.355 . S
O553 Dy543 2.491 . S
O554 Dy543 2.403 . S
O554 C549 1.254 . S
O555 Dy540 2.310 . S
O555 Dy543 2.664 1_554 S
O555 C549 1.268 1_554 S
O556 Dy540 2.351 . S
O556 C559 1.249 1_554 S
O557 Dy543 2.326 . S
O557 C559 1.267 . S
C558 O550 1.249 1_554 S
C558 O551 1.267 . S
C559 O556 1.249 1_556 S
C559 O557 1.267 . S
Dy560 O564 2.398 . S
Dy560 O565 2.491 . S
Dy560 O566 2.403 . S
Dy560 O567 2.664 1_554 S
Dy560 O571 2.326 . S
Dy560 O575 2.310 . S
Dy560 O576 2.351 . S
C561 O572 1.185 . S
C561 O573 1.355 . S
C562 O564 1.185 . S
C562 O565 1.355 . S
Dy563 O567 2.310 . S
Dy563 O570 2.351 . S
Dy563 O572 2.398 . S
Dy563 O573 2.491 . S
Dy563 O574 2.403 . S
Dy563 O575 2.664 1_556 S
Dy563 O577 2.326 . S
O564 Dy560 2.398 . S
O564 C562 1.185 . S
O565 Dy560 2.491 . S
O565 C562 1.355 . S
O566 Dy560 2.403 . S
O566 C568 1.254 . S
O567 Dy560 2.664 1_556 S
O567 Dy563 2.310 . S
O567 C568 1.268 1_556 S
C568 O566 1.254 . S
C568 O567 1.268 1_554 S
C569 O574 1.254 . S
C569 O575 1.268 1_556 S
O570 Dy563 2.351 . S
O570 C578 1.249 1_556 S
O571 Dy560 2.326 . S
O571 C578 1.267 . S
O572 C561 1.185 . S
O572 Dy563 2.398 . S
O573 C561 1.355 . S
O573 Dy563 2.491 . S
O574 Dy563 2.403 . S
O574 C569 1.254 . S
O575 Dy560 2.310 . S
O575 Dy563 2.664 1_554 S
O575 C569 1.268 1_554 S
O576 Dy560 2.351 . S
O576 C579 1.249 1_554 S
O577 Dy563 2.326 . S
O577 C579 1.267 . S
C578 O570 1.249 1_554 S
C578 O571 1.267 . S
C579 O576 1.249 1_556 S
C579 O577 1.267 . S
Dy580 O584 2.398 . S
Dy580 O585 2.491 . S
Dy580 O586 2.403 . S
Dy580 O587 2.664 1_554 S
Dy580 O591 2.326 . S
Dy580 O595 2.310 . S
Dy580 O596 2.351 . S
C581 O592 1.185 . S
C581 O593 1.355 . S
C582 O584 1.185 . S
C582 O585 1.355 . S
Dy583 O587 2.310 . S
Dy583 O590 2.351 . S
Dy583 O592 2.398 . S
Dy583 O593 2.491 . S
Dy583 O594 2.403 . S
Dy583 O595 2.664 1_556 S
Dy583 O597 2.326 . S
O584 Dy580 2.398 . S
O584 C582 1.185 . S
O585 Dy580 2.491 . S
O585 C582 1.355 . S
O586 Dy580 2.403 . S
O586 C588 1.254 . S
O587 Dy580 2.664 1_556 S
O587 Dy583 2.310 . S
O587 C588 1.268 1_556 S
C588 O586 1.254 . S
C588 O587 1.268 1_554 S
C589 O594 1.254 . S
C589 O595 1.268 1_556 S
O590 Dy583 2.351 . S
O590 C598 1.249 1_556 S
O591 Dy580 2.326 . S
O591 C598 1.267 . S
O592 C581 1.185 . S
O592 Dy583 2.398 . S
O593 C581 1.355 . S
O593 Dy583 2.491 . S
O594 Dy583 2.403 . S
O594 C589 1.254 . S
O595 Dy580 2.310 . S
O595 Dy583 2.664 1_554 S
O595 C589 1.268 1_554 S
O596 Dy580 2.351 . S
O596 C599 1.249 1_554 S
O597 Dy583 2.326 . S
O597 C599 1.267 . S
C598 O590 1.249 1_554 S
C598 O591 1.267 . S
C599 O596 1.249 1_556 S
C599 O597 1.267 . S
Dy600 O604 2.398 . S
Dy600 O605 2.491 . S
Dy600 O606 2.403 . S
Dy600 O607 2.664 . S
Dy600 O611 2.326 . S
Dy600 O615 2.310 . S
Dy600 O616 2.351 . S
C601 O612 1.185 . S
C601 O613 1.355 . S
C602 O604 1.185 . S
C602 O605 1.355 . S
Dy603 O607 2.310 . S
Dy603 O610 2.351 . S
Dy603 O612 2.398 . S
Dy603 O613 2.491 . S
Dy603 O614 2.403 . S
Dy603 O615 2.664 . S
Dy603 O617 2.326 . S
O604 Dy600 2.398 . S
O604 C602 1.185 . S
O605 Dy600 2.491 . S
O605 C602 1.355 . S
O606 Dy600 2.403 . S
O606 C608 1.254 . S
O607 Dy600 2.664 . S
O607 Dy603 2.310 . S
O607 C608 1.268 . S
C608 O606 1.254 . S
C608 O607 1.268 . S
C609 O614 1.254 . S
C609 O615 1.268 . S
O610 Dy603 2.351 . S
O610 C618 1.249 . S
O611 Dy600 2.326 . S
O611 C618 1.267 . S
O612 C601 1.185 . S
O612 Dy603 2.398 . S
O613 C601 1.355 . S
O613 Dy603 2.491 . S
O614 Dy603 2.403 . S
O614 C609 1.254 . S
O615 Dy600 2.310 . S
O615 Dy603 2.664 . S
O615 C609 1.268 . S
O616 Dy600 2.351 . S
O616 C619 1.249 . S
O617 Dy603 2.326 . S
O617 C619 1.267 . S
C618 O610 1.249 . S
C618 O611 1.267 . S
C619 O616 1.249 . S
C619 O617 1.267 . S
Dy620 O624 2.398 . S
Dy620 O625 2.491 . S
Dy620 O626 2.403 . S
Dy620 O627 2.664 . S
Dy620 O631 2.326 . S
Dy620 O635 2.310 . S
Dy620 O636 2.351 . S
C621 O632 1.185 . S
C621 O633 1.355 . S
C622 O624 1.185 . S
C622 O625 1.355 . S
Dy623 O627 2.310 . S
Dy623 O630 2.351 . S
Dy623 O632 2.398 . S
Dy623 O633 2.491 . S
Dy623 O634 2.403 . S
Dy623 O635 2.664 . S
Dy623 O637 2.326 . S
O624 Dy620 2.398 . S
O624 C622 1.185 . S
O625 Dy620 2.491 . S
O625 C622 1.355 . S
O626 Dy620 2.403 . S
O626 C628 1.254 . S
O627 Dy620 2.664 . S
O627 Dy623 2.310 . S
O627 C628 1.268 . S
C628 O626 1.254 . S
C628 O627 1.268 . S
C629 O634 1.254 . S
C629 O635 1.268 . S
O630 Dy623 2.351 . S
O630 C638 1.249 . S
O631 Dy620 2.326 . S
O631 C638 1.267 . S
O632 C621 1.185 . S
O632 Dy623 2.398 . S
O633 C621 1.355 . S
O633 Dy623 2.491 . S
O634 Dy623 2.403 . S
O634 C629 1.254 . S
O635 Dy620 2.310 . S
O635 Dy623 2.664 . S
O635 C629 1.268 . S
O636 Dy620 2.351 . S
O636 C639 1.249 . S
O637 Dy623 2.326 . S
O637 C639 1.267 . S
C638 O630 1.249 . S
C638 O631 1.267 . S
C639 O636 1.249 . S
C639 O637 1.267 . S
Dy640 O644 2.398 . S
Dy640 O645 2.491 . S
Dy640 O646 2.403 . S
Dy640 O647 2.664 . S
Dy640 O651 2.326 . S
Dy640 O655 2.310 . S
Dy640 O656 2.351 . S
C641 O652 1.185 . S
C641 O653 1.355 . S
C642 O644 1.185 . S
C642 O645 1.355 . S
Dy643 O647 2.310 . S
Dy643 O650 2.351 . S
Dy643 O652 2.398 . S
Dy643 O653 2.491 . S
Dy643 O654 2.403 . S
Dy643 O655 2.664 . S
Dy643 O657 2.326 . S
O644 Dy640 2.398 . S
O644 C642 1.185 . S
O645 Dy640 2.491 . S
O645 C642 1.355 . S
O646 Dy640 2.403 . S
O646 C648 1.254 . S
O647 Dy640 2.664 . S
O647 Dy643 2.310 . S
O647 C648 1.268 . S
C648 O646 1.254 . S
C648 O647 1.268 . S
C649 O654 1.254 . S
C649 O655 1.268 . S
O650 Dy643 2.351 . S
O650 C658 1.249 . S
O651 Dy640 2.326 . S
O651 C658 1.267 . S
O652 C641 1.185 . S
O652 Dy643 2.398 . S
O653 C641 1.355 . S
O653 Dy643 2.491 . S
O654 Dy643 2.403 . S
O654 C649 1.254 . S
O655 Dy640 2.310 . S
O655 Dy643 2.664 . S
O655 C649 1.268 . S
O656 Dy640 2.351 . S
O656 C659 1.249 . S
O657 Dy643 2.326 . S
O657 C659 1.267 . S
C658 O650 1.249 . S
C658 O651 1.267 . S
C659 O656 1.249 . S
C659 O657 1.267 . S
Dy660 O664 2.398 . S
Dy660 O665 2.491 . S
Dy660 O666 2.403 . S
Dy660 O667 2.664 . S
Dy660 O671 2.326 . S
Dy660 O675 2.310 . S
Dy660 O676 2.351 . S
C661 O672 1.185 . S
C661 O673 1.355 . S
C662 O664 1.185 . S
C662 O665 1.355 . S
Dy663 O667 2.310 . S
Dy663 O670 2.351 . S
Dy663 O672 2.398 . S
Dy663 O673 2.491 . S
Dy663 O674 2.403 . S
Dy663 O675 2.664 . S
Dy663 O677 2.326 . S
O664 Dy660 2.398 . S
O664 C662 1.185 . S
O665 Dy660 2.491 . S
O665 C662 1.355 . S
O666 Dy660 2.403 . S
O666 C668 1.254 . S
O667 Dy660 2.664 . S
O667 Dy663 2.310 . S
O667 C668 1.268 . S
C668 O666 1.254 . S
C668 O667 1.268 . S
C669 O674 1.254 . S
C669 O675 1.268 . S
O670 Dy663 2.351 . S
O670 C678 1.249 . S
O671 Dy660 2.326 . S
O671 C678 1.267 . S
O672 C661 1.185 . S
O672 Dy663 2.398 . S
O673 C661 1.355 . S
O673 Dy663 2.491 . S
O674 Dy663 2.403 . S
O674 C669 1.254 . S
O675 Dy660 2.310 . S
O675 Dy663 2.664 . S
O675 C669 1.268 . S
O676 Dy660 2.351 . S
O676 C679 1.249 . S
O677 Dy663 2.326 . S
O677 C679 1.267 . S
C678 O670 1.249 . S
C678 O671 1.267 . S
C679 O676 1.249 . S
C679 O677 1.267 . S
Dy680 O684 2.398 . S
Dy680 O685 2.491 . S
Dy680 O686 2.403 . S
Dy680 O687 2.664 . S
Dy680 O691 2.326 . S
Dy680 O695 2.310 . S
Dy680 O696 2.351 . S
C681 O692 1.185 . S
C681 O693 1.355 . S
C682 O684 1.185 . S
C682 O685 1.355 . S
Dy683 O687 2.310 . S
Dy683 O690 2.351 . S
Dy683 O692 2.398 . S
Dy683 O693 2.491 . S
Dy683 O694 2.403 . S
Dy683 O695 2.664 . S
Dy683 O697 2.326 . S
O684 Dy680 2.398 . S
O684 C682 1.185 . S
O685 Dy680 2.491 . S
O685 C682 1.355 . S
O686 Dy680 2.403 . S
O686 C688 1.254 . S
O687 Dy680 2.664 . S
O687 Dy683 2.310 . S
O687 C688 1.268 . S
C688 O686 1.254 . S
C688 O687 1.268 . S
C689 O694 1.254 . S
C689 O695 1.268 . S
O690 Dy683 2.351 . S
O690 C698 1.249 . S
O691 Dy680 2.326 . S
O691 C698 1.267 . S
O692 C681 1.185 . S
O692 Dy683 2.398 . S
O693 C681 1.355 . S
O693 Dy683 2.491 . S
O694 Dy683 2.403 . S
O694 C689 1.254 . S
O695 Dy680 2.310 . S
O695 Dy683 2.664 . S
O695 C689 1.268 . S
O696 Dy680 2.351 . S
O696 C699 1.249 . S
O697 Dy683 2.326 . S
O697 C699 1.267 . S
C698 O690 1.249 . S
C698 O691 1.267 . S
C699 O696 1.249 . S
C699 O697 1.267 . S
Dy700 O704 2.398 . S
Dy700 O705 2.491 . S
Dy700 O706 2.403 . S
Dy700 O707 2.664 . S
Dy700 O711 2.326 . S
Dy700 O715 2.310 . S
Dy700 O716 2.351 . S
C701 O712 1.185 . S
C701 O713 1.355 . S
C702 O704 1.185 . S
C702 O705 1.355 . S
Dy703 O707 2.310 . S
Dy703 O710 2.351 . S
Dy703 O712 2.398 . S
Dy703 O713 2.491 . S
Dy703 O714 2.403 . S
Dy703 O715 2.664 . S
Dy703 O717 2.326 . S
O704 Dy700 2.398 . S
O704 C702 1.185 . S
O705 Dy700 2.491 . S
O705 C702 1.355 . S
O706 Dy700 2.403 . S
O706 C708 1.254 . S
O707 Dy700 2.664 . S
O707 Dy703 2.310 . S
O707 C708 1.268 . S
C708 O706 1.254 . S
C708 O707 1.268 . S
C709 O714 1.254 . S
C709 O715 1.268 . S
O710 Dy703 2.351 . S
O710 C718 1.249 . S
O711 Dy700 2.326 . S
O711 C718 1.267 . S
O712 C701 1.185 . S
O712 Dy703 2.398 . S
O713 C701 1.355 . S
O713 Dy703 2.491 . S
O714 Dy703 2.403 . S
O714 C709 1.254 . S
O715 Dy700 2.310 . S
O715 Dy703 2.664 . S
O715 C709 1.268 . S
O716 Dy700 2.351 . S
O716 C719 1.249 . S
O717 Dy703 2.326 . S
O717 C719 1.267 . S
C718 O710 1.249 . S
C718 O711 1.267 . S
C719 O716 1.249 . S
C719 O717 1.267 . S
H720 C728 0.950 . S
H721 C733 0.950 . S
H722 C730 0.950 . S
H723 C732 0.950 . S
H724 C734 0.950 . S
H725 C736 0.950 . S
H726 C738 0.950 . S
H727 C739 0.950 . S
C728 H720 0.950 . S
C728 C729 1.386 . S
C728 C730 1.391 . S
C729 C728 1.386 . S
C729 C733 1.393 . S
C730 H722 0.950 . S
C730 C728 1.391 . S
C730 C731 1.400 . S
C731 C730 1.400 . S
C731 C732 1.398 . S
C731 C737 1.491 . S
C732 H723 0.950 . S
C732 C731 1.398 . S
C732 C733 1.391 . S
C733 H721 0.950 . S
C733 C729 1.393 . S
C733 C732 1.391 . S
C734 H724 0.950 . S
C734 C735 1.386 . S
C734 C736 1.391 1_565 S
C735 C734 1.386 . S
C735 C739 1.393 1_565 S
C736 H725 0.950 . S
C736 C734 1.391 1_545 S
C736 C737 1.400 . S
C737 C731 1.491 . S
C737 C736 1.400 . S
C737 C738 1.398 . S
C738 H726 0.950 . S
C738 C737 1.398 . S
C738 C739 1.391 . S
C739 H727 0.950 . S
C739 C735 1.393 1_545 S
C739 C738 1.391 . S
H740 C748 0.950 . S
H741 C753 0.950 . S
H742 C750 0.950 . S
H743 C752 0.950 . S
H744 C754 0.950 . S
H745 C756 0.950 . S
H746 C758 0.950 . S
H747 C759 0.950 . S
C748 H740 0.950 . S
C748 C749 1.386 . S
C748 C750 1.391 1_455 S
C749 C748 1.386 . S
C749 C753 1.393 1_455 S
C750 H742 0.950 . S
C750 C748 1.391 1_655 S
C750 C751 1.400 . S
C751 C750 1.400 . S
C751 C752 1.398 . S
C751 C757 1.491 . S
C752 H743 0.950 . S
C752 C751 1.398 . S
C752 C753 1.391 . S
C753 H741 0.950 . S
C753 C749 1.393 1_655 S
C753 C752 1.391 . S
C754 H744 0.950 . S
C754 C755 1.386 1_545 S
C754 C756 1.391 . S
C755 C754 1.386 1_565 S
C755 C759 1.393 . S
C756 H745 0.950 . S
C756 C754 1.391 . S
C756 C757 1.400 . S
C757 C751 1.491 . S
C757 C756 1.400 . S
C757 C758 1.398 . S
C758 H746 0.950 . S
C758 C757 1.398 . S
C758 C759 1.391 1_545 S
C759 H747 0.950 . S
C759 C755 1.393 . S
C759 C758 1.391 1_565 S
H760 C768 0.950 . S
H761 C773 0.950 . S
H762 C770 0.950 . S
H763 C772 0.950 . S
H764 C774 0.950 . S
H765 C776 0.950 . S
H766 C778 0.950 . S
H767 C779 0.950 . S
C768 H760 0.950 . S
C768 C769 1.386 . S
C768 C770 1.391 1_455 S
C769 C768 1.386 . S
C769 C773 1.393 1_455 S
C770 H762 0.950 . S
C770 C768 1.391 1_655 S
C770 C771 1.400 . S
C771 C770 1.400 . S
C771 C772 1.398 . S
C771 C777 1.491 . S
C772 H763 0.950 . S
C772 C771 1.398 . S
C772 C773 1.391 . S
C773 H761 0.950 . S
C773 C769 1.393 1_655 S
C773 C772 1.391 . S
C774 H764 0.950 . S
C774 C775 1.386 . S
C774 C776 1.391 . S
C775 C774 1.386 . S
C775 C779 1.393 . S
C776 H765 0.950 . S
C776 C774 1.391 . S
C776 C777 1.400 . S
C777 C771 1.491 . S
C777 C776 1.400 . S
C777 C778 1.398 . S
C778 H766 0.950 . S
C778 C777 1.398 . S
C778 C779 1.391 . S
C779 H767 0.950 . S
C779 C775 1.393 . S
C779 C778 1.391 . S
H780 C788 0.950 . S
H781 C793 0.950 . S
H782 C790 0.950 . S
H783 C792 0.950 . S
H784 C794 0.950 . S
H785 C796 0.950 . S
H786 C798 0.950 . S
H787 C799 0.950 . S
C788 H780 0.950 . S
C788 C789 1.386 . S
C788 C790 1.391 . S
C789 C788 1.386 . S
C789 C793 1.393 . S
C790 H782 0.950 . S
C790 C788 1.391 . S
C790 C791 1.400 . S
C791 C790 1.400 . S
C791 C792 1.398 . S
C791 C797 1.491 . S
C792 H783 0.950 . S
C792 C791 1.398 . S
C792 C793 1.391 . S
C793 H781 0.950 . S
C793 C789 1.393 . S
C793 C792 1.391 . S
C794 H784 0.950 . S
C794 C795 1.386 . S
C794 C796 1.391 1_655 S
C795 C794 1.386 . S
C795 C799 1.393 1_655 S
C796 H785 0.950 . S
C796 C794 1.391 1_455 S
C796 C797 1.400 . S
C797 C791 1.491 . S
C797 C796 1.400 . S
C797 C798 1.398 . S
C798 H786 0.950 . S
C798 C797 1.398 . S
C798 C799 1.391 . S
C799 H787 0.950 . S
C799 C795 1.393 1_455 S
C799 C798 1.391 . S
H800 C808 0.950 . S
H801 C813 0.950 . S
H802 C810 0.950 . S
H803 C812 0.950 . S
H804 C814 0.950 . S
H805 C816 0.950 . S
H806 C818 0.950 . S
H807 C819 0.950 . S
C808 H800 0.950 . S
C808 C809 1.386 . S
C808 C810 1.391 . S
C809 C808 1.386 . S
C809 C813 1.393 . S
C810 H802 0.950 . S
C810 C808 1.391 . S
C810 C811 1.400 . S
C811 C810 1.400 . S
C811 C812 1.398 . S
C811 C817 1.491 . S
C812 H803 0.950 . S
C812 C811 1.398 . S
C812 C813 1.391 . S
C813 H801 0.950 . S
C813 C809 1.393 . S
C813 C812 1.391 . S
C814 H804 0.950 . S
C814 C815 1.386 . S
C814 C816 1.391 1_545 S
C815 C814 1.386 . S
C815 C819 1.393 1_545 S
C816 H805 0.950 . S
C816 C814 1.391 1_565 S
C816 C817 1.400 . S
C817 C811 1.491 . S
C817 C816 1.400 . S
C817 C818 1.398 . S
C818 H806 0.950 . S
C818 C817 1.398 . S
C818 C819 1.391 . S
C819 H807 0.950 . S
C819 C815 1.393 1_565 S
C819 C818 1.391 . S
H820 C828 0.950 . S
H821 C833 0.950 . S
H822 C830 0.950 . S
H823 C832 0.950 . S
H824 C834 0.950 . S
H825 C836 0.950 . S
H826 C838 0.950 . S
H827 C839 0.950 . S
C828 H820 0.950 . S
C828 C829 1.386 1_455 S
C828 C830 1.391 . S
C829 C828 1.386 1_655 S
C829 C833 1.393 . S
C830 H822 0.950 . S
C830 C828 1.391 . S
C830 C831 1.400 . S
C831 C830 1.400 . S
C831 C832 1.398 . S
C831 C837 1.491 . S
C832 H823 0.950 . S
C832 C831 1.398 . S
C832 C833 1.391 1_455 S
C833 H821 0.950 . S
C833 C829 1.393 . S
C833 C832 1.391 1_655 S
C834 H824 0.950 . S
C834 C835 1.386 . S
C834 C836 1.391 1_545 S
C835 C834 1.386 . S
C835 C839 1.393 1_545 S
C836 H825 0.950 . S
C836 C834 1.391 1_565 S
C836 C837 1.400 . S
C837 C831 1.491 . S
C837 C836 1.400 . S
C837 C838 1.398 . S
C838 H826 0.950 . S
C838 C837 1.398 . S
C838 C839 1.391 . S
C839 H827 0.950 . S
C839 C835 1.393 1_565 S
C839 C838 1.391 . S
H840 C848 0.950 . S
H841 C853 0.950 . S
H842 C850 0.950 . S
H843 C852 0.950 . S
H844 C854 0.950 . S
H845 C856 0.950 . S
H846 C858 0.950 . S
H847 C859 0.950 . S
C848 H840 0.950 . S
C848 C849 1.386 . S
C848 C850 1.391 . S
C849 C848 1.386 . S
C849 C853 1.393 . S
C850 H842 0.950 . S
C850 C848 1.391 . S
C850 C851 1.400 . S
C851 C850 1.400 . S
C851 C852 1.398 . S
C851 C857 1.491 . S
C852 H843 0.950 . S
C852 C851 1.398 . S
C852 C853 1.391 . S
C853 H841 0.950 . S
C853 C849 1.393 . S
C853 C852 1.391 . S
C854 H844 0.950 . S
C854 C855 1.386 . S
C854 C856 1.391 1_545 S
C855 C854 1.386 . S
C855 C859 1.393 1_545 S
C856 H845 0.950 . S
C856 C854 1.391 1_565 S
C856 C857 1.400 . S
C857 C851 1.491 . S
C857 C856 1.400 . S
C857 C858 1.398 . S
C858 H846 0.950 . S
C858 C857 1.398 . S
C858 C859 1.391 . S
C859 H847 0.950 . S
C859 C855 1.393 1_565 S
C859 C858 1.391 . S
H860 C868 0.949 1_545 S
H861 C873 0.950 . S
H862 C870 0.950 . S
H863 C872 0.950 . S
H864 C874 0.959 . S
H865 C876 0.950 . S
H866 C878 0.950 . S
H867 C879 0.950 . S
C868 H860 0.949 1_565 S
C868 C869 1.386 1_565 S
C868 C870 1.391 . S
C869 C868 1.386 1_545 S
C869 C873 1.393 . S
C870 H862 0.950 . S
C870 C868 1.391 . S
C870 C871 1.400 . S
C871 C870 1.400 . S
C871 C872 1.398 . S
C871 C877 1.491 . S
C872 H863 0.950 . S
C872 C871 1.398 . S
C872 C873 1.391 1_565 S
C873 H861 0.950 . S
C873 C869 1.393 . S
C873 C872 1.391 1_545 S
C874 H864 0.959 . S
C874 C875 1.386 . S
C874 C876 1.381 1_655 S
C875 C874 1.386 . S
C875 C879 1.393 1_655 S
C876 H865 0.950 . S
C876 C874 1.381 1_455 S
C876 C877 1.400 . S
C877 C871 1.491 . S
C877 C876 1.400 . S
C877 C878 1.398 . S
C878 H866 0.950 . S
C878 C877 1.398 . S
C878 C879 1.391 . S
C879 H867 0.950 . S
C879 C875 1.393 1_455 S
C879 C878 1.391 . S
H880 C888 0.950 1_655 S
H881 C893 0.950 . S
H882 C890 0.950 . S
H883 C892 0.950 . S
H884 C894 0.950 . S
H885 C896 0.950 . S
H886 C898 0.950 . S
H887 C899 0.950 . S
C888 H880 0.950 1_455 S
C888 C889 1.386 1_455 S
C888 C890 1.391 . S
C889 C888 1.386 1_655 S
C889 C893 1.393 . S
C890 H882 0.950 . S
C890 C888 1.391 . S
C890 C891 1.400 . S
C891 C890 1.400 . S
C891 C892 1.398 . S
C891 C897 1.491 . S
C892 H883 0.950 . S
C892 C891 1.398 . S
C892 C893 1.391 1_455 S
C893 H881 0.950 . S
C893 C889 1.393 . S
C893 C892 1.391 1_655 S
C894 H884 0.950 . S
C894 C895 1.386 . S
C894 C896 1.391 . S
C895 C894 1.386 . S
C895 C899 1.393 . S
C896 H885 0.950 . S
C896 C894 1.391 . S
C896 C897 1.400 . S
C897 C891 1.491 . S
C897 C896 1.400 . S
C897 C898 1.398 . S
C898 H886 0.950 . S
C898 C897 1.398 . S
C898 C899 1.391 . S
C899 H887 0.950 . S
C899 C895 1.393 . S
C899 C898 1.391 . S
H900 C908 0.950 . S
H901 C913 0.950 . S
H902 C910 0.950 . S
H903 C912 0.950 . S
H904 C914 0.950 1_455 S
H905 C916 0.950 . S
H906 C918 0.950 . S
H907 C919 0.951 1_455 S
C908 H900 0.950 . S
C908 C909 1.386 . S
C908 C910 1.391 . S
C909 C908 1.386 . S
C909 C913 1.393 . S
C910 H902 0.950 . S
C910 C908 1.391 . S
C910 C911 1.400 . S
C911 C910 1.400 . S
C911 C912 1.398 . S
C911 C917 1.491 . S
C912 H903 0.950 . S
C912 C911 1.398 . S
C912 C913 1.391 . S
C913 H901 0.950 . S
C913 C909 1.393 . S
C913 C912 1.391 . S
C914 H904 0.950 1_655 S
C914 C915 1.386 1_655 S
C914 C916 1.391 . S
C915 C914 1.386 1_455 S
C915 C919 1.394 1_455 S
C916 H905 0.950 . S
C916 C914 1.391 . S
C916 C917 1.400 . S
C917 C911 1.491 . S
C917 C916 1.400 . S
C917 C918 1.398 . S
C918 H906 0.950 . S
C918 C917 1.398 . S
C918 C919 1.388 . S
C919 H907 0.951 1_655 S
C919 C915 1.394 1_655 S
C919 C918 1.388 . S
H920 C928 0.950 . S
H921 C933 0.950 . S
H922 C930 0.950 . S
H923 C932 0.950 . S
H924 C934 0.950 . S
H925 C936 0.950 . S
H926 C938 0.950 . S
H927 C939 0.950 . S
C928 H920 0.950 . S
C928 C929 1.386 . S
C928 C930 1.391 . S
C929 C928 1.386 . S
C929 C933 1.393 . S
C930 H922 0.950 . S
C930 C928 1.391 . S
C930 C931 1.400 . S
C931 C930 1.400 . S
C931 C932 1.398 . S
C931 C937 1.491 . S
C932 H923 0.950 . S
C932 C931 1.398 . S
C932 C933 1.391 . S
C933 H921 0.950 . S
C933 C929 1.393 . S
C933 C932 1.391 . S
C934 H924 0.950 . S
C934 C935 1.386 1_545 S
C934 C936 1.391 . S
C935 C934 1.386 1_565 S
C935 C939 1.393 . S
C936 H925 0.950 . S
C936 C934 1.391 . S
C936 C937 1.400 . S
C937 C931 1.491 . S
C937 C936 1.400 . S
C937 C938 1.398 . S
C938 H926 0.950 . S
C938 C937 1.398 . S
C938 C939 1.391 1_545 S
C939 H927 0.950 . S
C939 C935 1.393 . S
C939 C938 1.391 1_565 S
H940 C948 0.950 . S
H941 C953 0.950 . S
H942 C950 0.950 . S
H943 C952 0.950 . S
H944 C954 0.950 . S
H945 C956 0.950 . S
H946 C958 0.950 . S
H947 C959 0.950 . S
C948 H940 0.950 . S
C948 C949 1.386 . S
C948 C950 1.391 1_565 S
C949 C948 1.386 . S
C949 C953 1.393 1_565 S
C950 H942 0.950 . S
C950 C948 1.391 1_545 S
C950 C951 1.400 . S
C951 C950 1.400 . S
C951 C952 1.398 . S
C951 C957 1.491 . S
C952 H943 0.950 . S
C952 C951 1.398 . S
C952 C953 1.391 . S
C953 H941 0.950 . S
C953 C949 1.393 1_545 S
C953 C952 1.391 . S
C954 H944 0.950 . S
C954 C955 1.386 1_655 S
C954 C956 1.391 . S
C955 C954 1.386 1_455 S
C955 C959 1.393 . S
C956 H945 0.950 . S
C956 C954 1.391 . S
C956 C957 1.400 . S
C957 C951 1.491 . S
C957 C956 1.400 . S
C957 C958 1.398 . S
C958 H946 0.950 . S
C958 C957 1.398 . S
C958 C959 1.391 1_655 S
C959 H947 0.950 . S
C959 C955 1.393 . S
C959 C958 1.391 1_455 S
H960 C968 0.950 . S
H961 C973 0.950 . S
H962 C970 0.950 . S
H963 C972 0.950 . S
H964 C974 0.950 . S
H965 C976 0.950 . S
H966 C978 0.950 . S
H967 C979 0.950 . S
C968 H960 0.950 . S
C968 C969 1.386 . S
C968 C970 1.391 . S
C969 C968 1.386 . S
C969 C973 1.393 . S
C970 H962 0.950 . S
C970 C968 1.391 . S
C970 C971 1.400 . S
C971 C970 1.400 . S
C971 C972 1.398 . S
C971 C977 1.491 . S
C972 H963 0.950 . S
C972 C971 1.398 . S
C972 C973 1.391 . S
C973 H961 0.950 . S
C973 C969 1.393 . S
C973 C972 1.391 . S
C974 H964 0.950 . S
C974 C975 1.386 . S
C974 C976 1.391 . S
C975 C974 1.386 . S
C975 C979 1.393 . S
C976 H965 0.950 . S
C976 C974 1.391 . S
C976 C977 1.400 . S
C977 C971 1.491 . S
C977 C976 1.400 . S
C977 C978 1.398 . S
C978 H966 0.950 . S
C978 C977 1.398 . S
C978 C979 1.391 . S
C979 H967 0.950 . S
C979 C975 1.393 . S
C979 C978 1.391 . S
H980 C988 0.950 . S
H981 C993 0.950 . S
H982 C990 0.950 . S
H983 C992 0.950 . S
H984 C994 0.950 . S
H985 C996 0.950 . S
H986 C998 0.950 . S
H987 C999 0.950 . S
C988 H980 0.950 . S
C988 C989 1.386 . S
C988 C990 1.391 . S
C989 C988 1.386 . S
C989 C993 1.393 . S
C990 H982 0.950 . S
C990 C988 1.391 . S
C990 C991 1.400 . S
C991 C990 1.400 . S
C991 C992 1.398 . S
C991 C997 1.491 . S
C992 H983 0.950 . S
C992 C991 1.398 . S
C992 C993 1.391 . S
C993 H981 0.950 . S
C993 C989 1.393 . S
C993 C992 1.391 . S
C994 H984 0.950 . S
C994 C995 1.386 . S
C994 C996 1.391 . S
C995 C994 1.386 . S
C995 C999 1.393 . S
C996 H985 0.950 . S
C996 C994 1.391 . S
C996 C997 1.400 . S
C997 C991 1.491 . S
C997 C996 1.400 . S
C997 C998 1.398 . S
C998 H986 0.950 . S
C998 C997 1.398 . S
C998 C999 1.391 . S
C999 H987 0.950 . S
C999 C995 1.393 . S
C999 C998 1.391 . S
H1000 C1008 0.950 . S
H1001 C1013 0.950 . S
H1002 C1010 0.950 . S
H1003 C1012 0.950 . S
H1004 C1014 0.950 . S
H1005 C1016 0.950 . S
H1006 C1018 0.950 . S
H1007 C1019 0.950 . S
C1008 H1000 0.950 . S
C1008 C1009 1.386 . S
C1008 C1010 1.391 . S
C1009 C1008 1.386 . S
C1009 C1013 1.393 . S
C1010 H1002 0.950 . S
C1010 C1008 1.391 . S
C1010 C1011 1.400 . S
C1011 C1010 1.400 . S
C1011 C1012 1.398 . S
C1011 C1017 1.491 . S
C1012 H1003 0.950 . S
C1012 C1011 1.398 . S
C1012 C1013 1.391 . S
C1013 H1001 0.950 . S
C1013 C1009 1.393 . S
C1013 C1012 1.391 . S
C1014 H1004 0.950 . S
C1014 C1015 1.386 . S
C1014 C1016 1.391 . S
C1015 C1014 1.386 . S
C1015 C1019 1.393 . S
C1016 H1005 0.950 . S
C1016 C1014 1.391 . S
C1016 C1017 1.400 . S
C1017 C1011 1.491 . S
C1017 C1016 1.400 . S
C1017 C1018 1.398 . S
C1018 H1006 0.950 . S
C1018 C1017 1.398 . S
C1018 C1019 1.391 . S
C1019 H1007 0.950 . S
C1019 C1015 1.393 . S
C1019 C1018 1.391 . S
H1020 C1028 0.950 . S
H1021 C1033 0.950 . S
H1022 C1030 0.950 . S
H1023 C1032 0.950 . S
H1024 C1034 0.950 . S
H1025 C1036 0.950 . S
H1026 C1038 0.950 . S
H1027 C1039 0.950 . S
C1028 H1020 0.950 . S
C1028 C1029 1.386 . S
C1028 C1030 1.391 . S
C1029 C1028 1.386 . S
C1029 C1033 1.393 . S
C1030 H1022 0.950 . S
C1030 C1028 1.391 . S
C1030 C1031 1.400 . S
C1031 C1030 1.400 . S
C1031 C1032 1.398 . S
C1031 C1037 1.491 . S
C1032 H1023 0.950 . S
C1032 C1031 1.398 . S
C1032 C1033 1.391 . S
C1033 H1021 0.950 . S
C1033 C1029 1.393 . S
C1033 C1032 1.391 . S
C1034 H1024 0.950 . S
C1034 C1035 1.386 . S
C1034 C1036 1.391 . S
C1035 C1034 1.386 . S
C1035 C1039 1.393 . S
C1036 H1025 0.950 . S
C1036 C1034 1.391 . S
C1036 C1037 1.400 . S
C1037 C1031 1.491 . S
C1037 C1036 1.400 . S
C1037 C1038 1.398 . S
C1038 H1026 0.950 . S
C1038 C1037 1.398 . S
C1038 C1039 1.391 . S
C1039 H1027 0.950 . S
C1039 C1035 1.393 . S
C1039 C1038 1.391 . S
H1040 C1048 0.950 . S
H1041 C1053 0.950 . S
H1042 C1050 0.950 . S
H1043 C1052 0.950 . S
H1044 C1054 0.950 . S
H1045 C1056 0.950 . S
H1046 C1058 0.950 . S
H1047 C1059 0.950 . S
C1048 H1040 0.950 . S
C1048 C1049 1.386 . S
C1048 C1050 1.391 . S
C1049 C1048 1.386 . S
C1049 C1053 1.393 . S
C1050 H1042 0.950 . S
C1050 C1048 1.391 . S
C1050 C1051 1.400 . S
C1051 C1050 1.400 . S
C1051 C1052 1.398 . S
C1051 C1057 1.491 . S
C1052 H1043 0.950 . S
C1052 C1051 1.398 . S
C1052 C1053 1.391 . S
C1053 H1041 0.950 . S
C1053 C1049 1.393 . S
C1053 C1052 1.391 . S
C1054 H1044 0.950 . S
C1054 C1055 1.386 . S
C1054 C1056 1.391 . S
C1055 C1054 1.386 . S
C1055 C1059 1.393 . S
C1056 H1045 0.950 . S
C1056 C1054 1.391 . S
C1056 C1057 1.400 . S
C1057 C1051 1.491 . S
C1057 C1056 1.400 . S
C1057 C1058 1.398 . S
C1058 H1046 0.950 . S
C1058 C1057 1.398 . S
C1058 C1059 1.391 . S
C1059 H1047 0.950 . S
C1059 C1055 1.393 . S
C1059 C1058 1.391 . S
H1060 C1068 0.950 . S
H1061 C1073 0.950 . S
H1062 C1070 0.950 . S
H1063 C1072 0.950 . S
H1064 C1074 0.950 . S
H1065 C1076 0.950 . S
H1066 C1078 0.950 . S
H1067 C1079 0.950 . S
C1068 H1060 0.950 . S
C1068 C1069 1.386 . S
C1068 C1070 1.391 . S
C1069 C1068 1.386 . S
C1069 C1073 1.393 . S
C1070 H1062 0.950 . S
C1070 C1068 1.391 . S
C1070 C1071 1.400 . S
C1071 C1070 1.400 . S
C1071 C1072 1.398 . S
C1071 C1077 1.491 . S
C1072 H1063 0.950 . S
C1072 C1071 1.398 . S
C1072 C1073 1.391 . S
C1073 H1061 0.950 . S
C1073 C1069 1.393 . S
C1073 C1072 1.391 . S
C1074 H1064 0.950 . S
C1074 C1075 1.386 . S
C1074 C1076 1.391 . S
C1075 C1074 1.386 . S
C1075 C1079 1.393 . S
C1076 H1065 0.950 . S
C1076 C1074 1.391 . S
C1076 C1077 1.400 . S
C1077 C1071 1.491 . S
C1077 C1076 1.400 . S
C1077 C1078 1.398 . S
C1078 H1066 0.950 . S
C1078 C1077 1.398 . S
C1078 C1079 1.391 . S
C1079 H1067 0.950 . S
C1079 C1075 1.393 . S
C1079 C1078 1.391 . S
H1080 C1088 0.950 . S
H1081 C1093 0.950 . S
H1082 C1090 0.950 . S
H1083 C1092 0.950 . S
H1084 C1094 0.950 . S
H1085 C1096 0.950 . S
H1086 C1098 0.950 . S
H1087 C1099 0.950 . S
C1088 H1080 0.950 . S
C1088 C1089 1.386 . S
C1088 C1090 1.391 . S
C1089 C1088 1.386 . S
C1089 C1093 1.393 . S
C1090 H1082 0.950 . S
C1090 C1088 1.391 . S
C1090 C1091 1.400 . S
C1091 C1090 1.400 . S
C1091 C1092 1.398 . S
C1091 C1097 1.491 . S
C1092 H1083 0.950 . S
C1092 C1091 1.398 . S
C1092 C1093 1.391 . S
C1093 H1081 0.950 . S
C1093 C1089 1.393 . S
C1093 C1092 1.391 . S
C1094 H1084 0.950 . S
C1094 C1095 1.386 . S
C1094 C1096 1.391 . S
C1095 C1094 1.386 . S
C1095 C1099 1.393 . S
C1096 H1085 0.950 . S
C1096 C1094 1.391 . S
C1096 C1097 1.400 . S
C1097 C1091 1.491 . S
C1097 C1096 1.400 . S
C1097 C1098 1.398 . S
C1098 H1086 0.950 . S
C1098 C1097 1.398 . S
C1098 C1099 1.391 . S
C1099 H1087 0.950 . S
C1099 C1095 1.393 . S
C1099 C1098 1.391 . S
H1100 C1108 0.950 . S
H1101 C1113 0.950 . S
H1102 C1110 0.950 . S
H1103 C1112 0.950 . S
H1104 C1114 0.950 . S
H1105 C1116 0.950 . S
H1106 C1118 0.950 . S
H1107 C1119 0.950 . S
C1108 H1100 0.950 . S
C1108 C1109 1.386 . S
C1108 C1110 1.391 . S
C1109 C1108 1.386 . S
C1109 C1113 1.393 . S
C1110 H1102 0.950 . S
C1110 C1108 1.391 . S
C1110 C1111 1.400 . S
C1111 C1110 1.400 . S
C1111 C1112 1.398 . S
C1111 C1117 1.491 . S
C1112 H1103 0.950 . S
C1112 C1111 1.398 . S
C1112 C1113 1.391 . S
C1113 H1101 0.950 . S
C1113 C1109 1.393 . S
C1113 C1112 1.391 . S
C1114 H1104 0.950 . S
C1114 C1115 1.386 . S
C1114 C1116 1.391 . S
C1115 C1114 1.386 . S
C1115 C1119 1.393 . S
C1116 H1105 0.950 . S
C1116 C1114 1.391 . S
C1116 C1117 1.400 . S
C1117 C1111 1.491 . S
C1117 C1116 1.400 . S
C1117 C1118 1.398 . S
C1118 H1106 0.950 . S
C1118 C1117 1.398 . S
C1118 C1119 1.391 . S
C1119 H1107 0.950 . S
C1119 C1115 1.393 . S
C1119 C1118 1.391 . S
H1120 C1128 0.950 . S
H1121 C1133 0.950 . S
H1122 C1130 0.950 . S
H1123 C1132 0.950 . S
H1124 C1134 0.950 . S
H1125 C1136 0.950 . S
H1126 C1138 0.950 . S
H1127 C1139 0.950 . S
C1128 H1120 0.950 . S
C1128 C1129 1.386 . S
C1128 C1130 1.391 . S
C1129 C1128 1.386 . S
C1129 C1133 1.393 . S
C1130 H1122 0.950 . S
C1130 C1128 1.391 . S
C1130 C1131 1.400 . S
C1131 C1130 1.400 . S
C1131 C1132 1.398 . S
C1131 C1137 1.491 . S
C1132 H1123 0.950 . S
C1132 C1131 1.398 . S
C1132 C1133 1.391 . S
C1133 H1121 0.950 . S
C1133 C1129 1.393 . S
C1133 C1132 1.391 . S
C1134 H1124 0.950 . S
C1134 C1135 1.386 . S
C1134 C1136 1.391 . S
C1135 C1134 1.386 . S
C1135 C1139 1.393 . S
C1136 H1125 0.950 . S
C1136 C1134 1.391 . S
C1136 C1137 1.400 . S
C1137 C1131 1.491 . S
C1137 C1136 1.400 . S
C1137 C1138 1.398 . S
C1138 H1126 0.950 . S
C1138 C1137 1.398 . S
C1138 C1139 1.391 . S
C1139 H1127 0.950 . S
C1139 C1135 1.393 . S
C1139 C1138 1.391 . S
H1140 C1148 0.950 . S
H1141 C1153 0.950 . S
H1142 C1150 0.950 . S
H1143 C1152 0.950 . S
H1144 C1154 0.950 . S
H1145 C1156 0.950 . S
H1146 C1158 0.950 . S
H1147 C1159 0.950 . S
C1148 H1140 0.950 . S
C1148 C1149 1.386 . S
C1148 C1150 1.391 . S
C1149 C1148 1.386 . S
C1149 C1153 1.393 1_554 S
C1150 H1142 0.950 . S
C1150 C1148 1.391 . S
C1150 C1151 1.400 . S
C1151 C1150 1.400 . S
C1151 C1152 1.398 1_554 S
C1151 C1157 1.491 . S
C1152 H1143 0.950 . S
C1152 C1151 1.398 1_556 S
C1152 C1153 1.391 . S
C1153 H1141 0.950 . S
C1153 C1149 1.393 1_556 S
C1153 C1152 1.391 . S
C1154 H1144 0.950 . S
C1154 C1155 1.344 1_556 S
C1154 C1156 1.391 . S
C1155 C1154 1.344 1_554 S
C1155 C1159 1.441 . S
C1156 H1145 0.950 . S
C1156 C1154 1.391 . S
C1156 C1157 1.400 1_556 S
C1157 C1151 1.491 . S
C1157 C1156 1.400 1_554 S
C1157 C1158 1.398 . S
C1158 H1146 0.950 . S
C1158 C1157 1.398 . S
C1158 C1159 1.391 . S
C1159 H1147 0.950 . S
C1159 C1155 1.441 . S
C1159 C1158 1.391 . S
H1160 C1168 0.950 . S
H1161 C1173 0.948 1_556 S
H1162 C1170 0.950 . S
H1163 C1172 0.950 . S
H1164 C1174 0.955 . S
H1165 C1176 0.948 . S
H1166 C1178 0.950 . S
H1167 C1179 0.950 . S
C1168 H1160 0.950 . S
C1168 C1169 1.395 . S
C1168 C1170 1.391 . S
C1169 C1168 1.395 . S
C1169 C1173 1.392 . S
C1170 H1162 0.950 . S
C1170 C1168 1.391 . S
C1170 C1171 1.400 . S
C1171 C1170 1.400 . S
C1171 C1172 1.398 . S
C1171 C1177 1.491 . S
C1172 H1163 0.950 . S
C1172 C1171 1.398 . S
C1172 C1173 1.393 . S
C1173 H1161 0.948 1_554 S
C1173 C1169 1.392 . S
C1173 C1172 1.393 . S
C1174 H1164 0.955 . S
C1174 C1175 1.386 . S
C1174 C1176 1.396 . S
C1175 C1174 1.386 . S
C1175 C1179 1.393 . S
C1176 H1165 0.948 . S
C1176 C1174 1.396 . S
C1176 C1177 1.407 . S
C1177 C1171 1.491 . S
C1177 C1176 1.407 . S
C1177 C1178 1.398 . S
C1178 H1166 0.950 . S
C1178 C1177 1.398 . S
C1178 C1179 1.391 . S
C1179 H1167 0.950 . S
C1179 C1175 1.393 . S
C1179 C1178 1.391 . S
H1180 C1188 0.950 . S
H1181 C1193 0.950 . S
H1182 C1190 0.950 . S
H1183 C1192 0.950 . S
H1184 C1194 0.950 . S
H1185 C1196 0.950 . S
H1186 C1198 0.950 . S
H1187 C1199 0.950 . S
C1188 H1180 0.950 . S
C1188 C1189 1.386 1_556 S
C1188 C1190 1.391 . S
C1189 C1188 1.386 1_554 S
C1189 C1193 1.393 . S
C1190 H1182 0.950 . S
C1190 C1188 1.391 . S
C1190 C1191 1.400 1_556 S
C1191 C1190 1.400 1_554 S
C1191 C1192 1.398 . S
C1191 C1197 1.491 . S
C1192 H1183 0.950 . S
C1192 C1191 1.398 . S
C1192 C1193 1.391 . S
C1193 H1181 0.950 . S
C1193 C1189 1.393 . S
C1193 C1192 1.391 . S
C1194 H1184 0.950 . S
C1194 C1195 1.427 . S
C1194 C1196 1.391 . S
C1195 C1194 1.427 . S
C1195 C1199 1.358 1_554 S
C1196 H1185 0.950 . S
C1196 C1194 1.391 . S
C1196 C1197 1.400 . S
C1197 C1191 1.491 . S
C1197 C1196 1.400 . S
C1197 C1198 1.398 1_554 S
C1198 H1186 0.950 . S
C1198 C1197 1.398 1_556 S
C1198 C1199 1.391 . S
C1199 H1187 0.950 . S
C1199 C1195 1.358 1_556 S
C1199 C1198 1.391 . S
H1200 C1208 0.950 . S
H1201 C1213 0.950 . S
H1202 C1210 0.950 . S
H1203 C1212 0.950 . S
H1204 C1214 0.950 . S
H1205 C1216 0.950 . S
H1206 C1218 0.950 . S
H1207 C1219 0.950 . S
C1208 H1200 0.950 . S
C1208 C1209 1.386 . S
C1208 C1210 1.391 . S
C1209 C1208 1.386 . S
C1209 C1213 1.393 . S
C1210 H1202 0.950 . S
C1210 C1208 1.391 . S
C1210 C1211 1.400 . S
C1211 C1210 1.400 . S
C1211 C1212 1.398 . S
C1211 C1217 1.491 . S
C1212 H1203 0.950 . S
C1212 C1211 1.398 . S
C1212 C1213 1.391 . S
C1213 H1201 0.950 . S
C1213 C1209 1.393 . S
C1213 C1212 1.391 . S
C1214 H1204 0.950 . S
C1214 C1215 1.386 . S
C1214 C1216 1.391 . S
C1215 C1214 1.386 . S
C1215 C1219 1.393 . S
C1216 H1205 0.950 . S
C1216 C1214 1.391 . S
C1216 C1217 1.400 . S
C1217 C1211 1.491 . S
C1217 C1216 1.400 . S
C1217 C1218 1.398 . S
C1218 H1206 0.950 . S
C1218 C1217 1.398 . S
C1218 C1219 1.391 . S
C1219 H1207 0.950 . S
C1219 C1215 1.393 . S
C1219 C1218 1.391 . S
H1220 C1228 0.950 . S
H1221 C1233 0.950 . S
H1222 C1230 0.950 . S
H1223 C1232 0.950 . S
H1224 C1234 0.950 . S
H1225 C1236 0.950 . S
H1226 C1238 0.950 . S
H1227 C1239 0.950 . S
C1228 H1220 0.950 . S
C1228 C1229 1.386 . S
C1228 C1230 1.391 . S
C1229 C1228 1.386 . S
C1229 C1233 1.393 . S
C1230 H1222 0.950 . S
C1230 C1228 1.391 . S
C1230 C1231 1.400 . S
C1231 C1230 1.400 . S
C1231 C1232 1.398 . S
C1231 C1237 1.491 . S
C1232 H1223 0.950 . S
C1232 C1231 1.398 . S
C1232 C1233 1.391 . S
C1233 H1221 0.950 . S
C1233 C1229 1.393 . S
C1233 C1232 1.391 . S
C1234 H1224 0.950 . S
C1234 C1235 1.386 . S
C1234 C1236 1.391 . S
C1235 C1234 1.386 . S
C1235 C1239 1.393 . S
C1236 H1225 0.950 . S
C1236 C1234 1.391 . S
C1236 C1237 1.400 . S
C1237 C1231 1.491 . S
C1237 C1236 1.400 . S
C1237 C1238 1.398 . S
C1238 H1226 0.950 . S
C1238 C1237 1.398 . S
C1238 C1239 1.391 . S
C1239 H1227 0.950 . S
C1239 C1235 1.393 . S
C1239 C1238 1.391 . S
H1240 C1248 0.950 . S
H1241 C1253 0.950 . S
H1242 C1250 0.950 . S
H1243 C1252 0.950 . S
H1244 C1254 0.950 . S
H1245 C1256 0.950 . S
H1246 C1258 0.950 . S
H1247 C1259 0.950 . S
C1248 H1240 0.950 . S
C1248 C1249 1.386 . S
C1248 C1250 1.391 . S
C1249 C1248 1.386 . S
C1249 C1253 1.393 . S
C1250 H1242 0.950 . S
C1250 C1248 1.391 . S
C1250 C1251 1.400 . S
C1251 C1250 1.400 . S
C1251 C1252 1.398 . S
C1251 C1257 1.491 . S
C1252 H1243 0.950 . S
C1252 C1251 1.398 . S
C1252 C1253 1.391 . S
C1253 H1241 0.950 . S
C1253 C1249 1.393 . S
C1253 C1252 1.391 . S
C1254 H1244 0.950 . S
C1254 C1255 1.386 . S
C1254 C1256 1.391 . S
C1255 C1254 1.386 . S
C1255 C1259 1.393 . S
C1256 H1245 0.950 . S
C1256 C1254 1.391 . S
C1256 C1257 1.400 . S
C1257 C1251 1.491 . S
C1257 C1256 1.400 . S
C1257 C1258 1.398 . S
C1258 H1246 0.950 . S
C1258 C1257 1.398 . S
C1258 C1259 1.391 . S
C1259 H1247 0.950 . S
C1259 C1255 1.393 . S
C1259 C1258 1.391 . S
H1260 C1268 0.950 . S
H1261 C1273 0.950 . S
H1262 C1270 0.950 . S
H1263 C1272 0.950 . S
H1264 C1274 0.950 . S
H1265 C1276 0.950 . S
H1266 C1278 0.950 . S
H1267 C1279 0.950 . S
C1268 H1260 0.950 . S
C1268 C1269 1.370 1_554 S
C1268 C1270 1.391 . S
C1269 C1268 1.370 1_556 S
C1269 C1273 1.409 . S
C1270 H1262 0.950 . S
C1270 C1268 1.391 . S
C1270 C1271 1.400 1_554 S
C1271 C1270 1.400 1_556 S
C1271 C1272 1.398 . S
C1271 C1277 1.491 . S
C1272 H1263 0.950 . S
C1272 C1271 1.398 . S
C1272 C1273 1.391 . S
C1273 H1261 0.950 . S
C1273 C1269 1.409 . S
C1273 C1272 1.391 . S
C1274 H1264 0.950 . S
C1274 C1275 1.386 . S
C1274 C1276 1.391 . S
C1275 C1274 1.386 . S
C1275 C1279 1.393 1_556 S
C1276 H1265 0.950 . S
C1276 C1274 1.391 . S
C1276 C1277 1.400 . S
C1277 C1271 1.491 . S
C1277 C1276 1.400 . S
C1277 C1278 1.398 1_556 S
C1278 H1266 0.950 . S
C1278 C1277 1.398 1_554 S
C1278 C1279 1.391 . S
C1279 H1267 0.950 . S
C1279 C1275 1.393 1_554 S
C1279 C1278 1.391 . S
H1280 C1288 0.950 . S
H1281 C1293 0.950 . S
H1282 C1290 0.950 . S
H1283 C1292 0.950 . S
H1284 C1294 0.950 . S
H1285 C1296 0.950 . S
H1286 C1298 0.950 . S
H1287 C1299 0.950 . S
C1288 H1280 0.950 . S
C1288 C1289 1.365 1_554 S
C1288 C1290 1.391 . S
C1289 C1288 1.365 1_556 S
C1289 C1293 1.414 . S
C1290 H1282 0.950 . S
C1290 C1288 1.391 . S
C1290 C1291 1.400 1_554 S
C1291 C1290 1.400 1_556 S
C1291 C1292 1.398 . S
C1291 C1297 1.491 . S
C1292 H1283 0.950 . S
C1292 C1291 1.398 . S
C1292 C1293 1.391 . S
C1293 H1281 0.950 . S
C1293 C1289 1.414 . S
C1293 C1292 1.391 . S
C1294 H1284 0.950 . S
C1294 C1295 1.386 . S
C1294 C1296 1.391 . S
C1295 C1294 1.386 . S
C1295 C1299 1.393 1_556 S
C1296 H1285 0.950 . S
C1296 C1294 1.391 . S
C1296 C1297 1.400 . S
C1297 C1291 1.491 . S
C1297 C1296 1.400 . S
C1297 C1298 1.398 1_556 S
C1298 H1286 0.950 . S
C1298 C1297 1.398 1_554 S
C1298 C1299 1.391 . S
C1299 H1287 0.950 . S
C1299 C1295 1.393 1_554 S
C1299 C1298 1.391 . S
H1300 C1308 0.950 . S
H1301 C1313 0.950 . S
H1302 C1310 0.950 . S
H1303 C1312 0.950 . S
H1304 C1314 0.950 . S
H1305 C1316 0.950 . S
H1306 C1318 0.950 . S
H1307 C1319 0.950 . S
C1308 H1300 0.950 . S
C1308 C1309 1.370 1_554 S
C1308 C1310 1.391 . S
C1309 C1308 1.370 1_556 S
C1309 C1313 1.409 . S
C1310 H1302 0.950 . S
C1310 C1308 1.391 . S
C1310 C1311 1.400 1_554 S
C1311 C1310 1.400 1_556 S
C1311 C1312 1.398 . S
C1311 C1317 1.491 . S
C1312 H1303 0.950 . S
C1312 C1311 1.398 . S
C1312 C1313 1.391 . S
C1313 H1301 0.950 . S
C1313 C1309 1.409 . S
C1313 C1312 1.391 . S
C1314 H1304 0.950 . S
C1314 C1315 1.386 . S
C1314 C1316 1.391 . S
C1315 C1314 1.386 . S
C1315 C1319 1.393 1_556 S
C1316 H1305 0.950 . S
C1316 C1314 1.391 . S
C1316 C1317 1.400 . S
C1317 C1311 1.491 . S
C1317 C1316 1.400 . S
C1317 C1318 1.398 1_556 S
C1318 H1306 0.950 . S
C1318 C1317 1.398 1_554 S
C1318 C1319 1.391 . S
C1319 H1307 0.950 . S
C1319 C1315 1.393 1_554 S
C1319 C1318 1.391 . S
H1320 C1328 0.950 . S
H1321 C1333 0.950 . S
H1322 C1330 0.950 . S
H1323 C1332 0.950 . S
H1324 C1334 0.950 . S
H1325 C1336 0.950 . S
H1326 C1338 0.950 . S
H1327 C1339 0.950 . S
C1328 H1320 0.950 . S
C1328 C1329 1.386 . S
C1328 C1330 1.391 . S
C1329 C1328 1.386 . S
C1329 C1333 1.393 . S
C1330 H1322 0.950 . S
C1330 C1328 1.391 . S
C1330 C1331 1.400 . S
C1331 C1330 1.400 . S
C1331 C1332 1.398 . S
C1331 C1337 1.491 . S
C1332 H1323 0.950 . S
C1332 C1331 1.398 . S
C1332 C1333 1.391 . S
C1333 H1321 0.950 . S
C1333 C1329 1.393 . S
C1333 C1332 1.391 . S
C1334 H1324 0.950 . S
C1334 C1335 1.386 . S
C1334 C1336 1.391 . S
C1335 C1334 1.386 . S
C1335 C1339 1.393 . S
C1336 H1325 0.950 . S
C1336 C1334 1.391 . S
C1336 C1337 1.400 . S
C1337 C1331 1.491 . S
C1337 C1336 1.400 . S
C1337 C1338 1.398 . S
C1338 H1326 0.950 . S
C1338 C1337 1.398 . S
C1338 C1339 1.391 . S
C1339 H1327 0.950 . S
C1339 C1335 1.393 . S
C1339 C1338 1.391 . S
H1340 C1348 0.950 . S
H1341 C1353 0.950 . S
H1342 C1350 0.950 . S
H1343 C1352 0.950 . S
H1344 C1354 0.950 . S
H1345 C1356 0.950 . S
H1346 C1358 0.950 . S
H1347 C1359 0.950 . S
C1348 H1340 0.950 . S
C1348 C1349 1.386 . S
C1348 C1350 1.391 . S
C1349 C1348 1.386 . S
C1349 C1353 1.393 . S
C1350 H1342 0.950 . S
C1350 C1348 1.391 . S
C1350 C1351 1.400 . S
C1351 C1350 1.400 . S
C1351 C1352 1.398 . S
C1351 C1357 1.491 . S
C1352 H1343 0.950 . S
C1352 C1351 1.398 . S
C1352 C1353 1.391 . S
C1353 H1341 0.950 . S
C1353 C1349 1.393 . S
C1353 C1352 1.391 . S
C1354 H1344 0.950 . S
C1354 C1355 1.386 . S
C1354 C1356 1.391 . S
C1355 C1354 1.386 . S
C1355 C1359 1.393 . S
C1356 H1345 0.950 . S
C1356 C1354 1.391 . S
C1356 C1357 1.400 . S
C1357 C1351 1.491 . S
C1357 C1356 1.400 . S
C1357 C1358 1.398 . S
C1358 H1346 0.950 . S
C1358 C1357 1.398 . S
C1358 C1359 1.391 . S
C1359 H1347 0.950 . S
C1359 C1355 1.393 . S
C1359 C1358 1.391 . S
H1360 C1368 0.950 . S
H1361 C1373 0.950 . S
H1362 C1370 0.950 . S
H1363 C1372 0.950 . S
H1364 C1374 0.950 . S
H1365 C1376 0.950 . S
H1366 C1378 0.950 . S
H1367 C1379 0.950 . S
C1368 H1360 0.950 . S
C1368 C1369 1.386 . S
C1368 C1370 1.391 . S
C1369 C1368 1.386 . S
C1369 C1373 1.393 . S
C1370 H1362 0.950 . S
C1370 C1368 1.391 . S
C1370 C1371 1.400 . S
C1371 C1370 1.400 . S
C1371 C1372 1.398 . S
C1371 C1377 1.491 . S
C1372 H1363 0.950 . S
C1372 C1371 1.398 . S
C1372 C1373 1.391 . S
C1373 H1361 0.950 . S
C1373 C1369 1.393 . S
C1373 C1372 1.391 . S
C1374 H1364 0.950 . S
C1374 C1375 1.386 . S
C1374 C1376 1.391 . S
C1375 C1374 1.386 . S
C1375 C1379 1.393 . S
C1376 H1365 0.950 . S
C1376 C1374 1.391 . S
C1376 C1377 1.400 . S
C1377 C1371 1.491 . S
C1377 C1376 1.400 . S
C1377 C1378 1.398 . S
C1378 H1366 0.950 . S
C1378 C1377 1.398 . S
C1378 C1379 1.391 . S
C1379 H1367 0.950 . S
C1379 C1375 1.393 . S
C1379 C1378 1.391 . S
H1380 C1388 0.950 . S
H1381 C1393 0.950 . S
H1382 C1390 0.950 . S
H1383 C1392 0.950 . S
H1384 C1394 0.950 . S
H1385 C1396 0.950 . S
H1386 C1398 0.950 . S
H1387 C1399 0.950 . S
C1388 H1380 0.950 . S
C1388 C1389 1.386 . S
C1388 C1390 1.391 . S
C1389 C1388 1.386 . S
C1389 C1393 1.393 . S
C1390 H1382 0.950 . S
C1390 C1388 1.391 . S
C1390 C1391 1.400 . S
C1391 C1390 1.400 . S
C1391 C1392 1.398 . S
C1391 C1397 1.491 . S
C1392 H1383 0.950 . S
C1392 C1391 1.398 . S
C1392 C1393 1.391 . S
C1393 H1381 0.950 . S
C1393 C1389 1.393 . S
C1393 C1392 1.391 . S
C1394 H1384 0.950 . S
C1394 C1395 1.386 . S
C1394 C1396 1.391 . S
C1395 C1394 1.386 . S
C1395 C1399 1.393 . S
C1396 H1385 0.950 . S
C1396 C1394 1.391 . S
C1396 C1397 1.400 . S
C1397 C1391 1.491 . S
C1397 C1396 1.400 . S
C1397 C1398 1.398 . S
C1398 H1386 0.950 . S
C1398 C1397 1.398 . S
C1398 C1399 1.391 . S
C1399 H1387 0.950 . S
C1399 C1395 1.393 . S
C1399 C1398 1.391 . S
H1400 C1408 0.950 . S
H1401 C1413 0.950 . S
H1402 C1410 0.950 . S
H1403 C1412 0.950 . S
H1404 C1414 0.950 . S
H1405 C1416 0.950 . S
H1406 C1418 0.950 . S
H1407 C1419 0.950 . S
C1408 H1400 0.950 . S
C1408 C1409 1.386 . S
C1408 C1410 1.391 . S
C1409 C1408 1.386 . S
C1409 C1413 1.393 . S
C1410 H1402 0.950 . S
C1410 C1408 1.391 . S
C1410 C1411 1.400 . S
C1411 C1410 1.400 . S
C1411 C1412 1.398 . S
C1411 C1417 1.491 . S
C1412 H1403 0.950 . S
C1412 C1411 1.398 . S
C1412 C1413 1.391 . S
C1413 H1401 0.950 . S
C1413 C1409 1.393 . S
C1413 C1412 1.391 . S
C1414 H1404 0.950 . S
C1414 C1415 1.386 . S
C1414 C1416 1.391 . S
C1415 C1414 1.386 . S
C1415 C1419 1.393 . S
C1416 H1405 0.950 . S
C1416 C1414 1.391 . S
C1416 C1417 1.400 . S
C1417 C1411 1.491 . S
C1417 C1416 1.400 . S
C1417 C1418 1.398 . S
C1418 H1406 0.950 . S
C1418 C1417 1.398 . S
C1418 C1419 1.391 . S
C1419 H1407 0.950 . S
C1419 C1415 1.393 . S
C1419 C1418 1.391 . S
H1420 C1428 0.950 . S
H1421 C1433 0.950 . S
H1422 C1430 0.950 . S
H1423 C1432 0.950 . S
H1424 C1434 0.950 . S
H1425 C1436 0.950 . S
H1426 C1438 0.950 . S
H1427 C1439 0.950 . S
C1428 H1420 0.950 . S
C1428 C1429 1.386 . S
C1428 C1430 1.391 . S
C1429 C1428 1.386 . S
C1429 C1433 1.393 . S
C1430 H1422 0.950 . S
C1430 C1428 1.391 . S
C1430 C1431 1.400 . S
C1431 C1430 1.400 . S
C1431 C1432 1.398 . S
C1431 C1437 1.491 . S
C1432 H1423 0.950 . S
C1432 C1431 1.398 . S
C1432 C1433 1.391 . S
C1433 H1421 0.950 . S
C1433 C1429 1.393 . S
C1433 C1432 1.391 . S
C1434 H1424 0.950 . S
C1434 C1435 1.386 . S
C1434 C1436 1.391 . S
C1435 C1434 1.386 . S
C1435 C1439 1.393 . S
C1436 H1425 0.950 . S
C1436 C1434 1.391 . S
C1436 C1437 1.400 . S
C1437 C1431 1.491 . S
C1437 C1436 1.400 . S
C1437 C1438 1.398 . S
C1438 H1426 0.950 . S
C1438 C1437 1.398 . S
C1438 C1439 1.391 . S
C1439 H1427 0.950 . S
C1439 C1435 1.393 . S
C1439 C1438 1.391 . S
H1440 C1448 0.950 . S
H1441 C1453 0.950 . S
H1442 C1450 0.950 . S
H1443 C1452 0.950 . S
H1444 C1454 0.950 . S
H1445 C1456 0.950 . S
H1446 C1458 0.950 . S
H1447 C1459 0.950 . S
C1448 H1440 0.950 . S
C1448 C1449 1.386 . S
C1448 C1450 1.391 . S
C1449 C1448 1.386 . S
C1449 C1453 1.393 . S
C1450 H1442 0.950 . S
C1450 C1448 1.391 . S
C1450 C1451 1.400 . S
C1451 C1450 1.400 . S
C1451 C1452 1.398 . S
C1451 C1457 1.491 . S
C1452 H1443 0.950 . S
C1452 C1451 1.398 . S
C1452 C1453 1.391 . S
C1453 H1441 0.950 . S
C1453 C1449 1.393 . S
C1453 C1452 1.391 . S
C1454 H1444 0.950 . S
C1454 C1455 1.386 . S
C1454 C1456 1.391 . S
C1455 C1454 1.386 . S
C1455 C1459 1.393 . S
C1456 H1445 0.950 . S
C1456 C1454 1.391 . S
C1456 C1457 1.400 . S
C1457 C1451 1.491 . S
C1457 C1456 1.400 . S
C1457 C1458 1.398 . S
C1458 H1446 0.950 . S
C1458 C1457 1.398 . S
C1458 C1459 1.391 . S
C1459 H1447 0.950 . S
C1459 C1455 1.393 . S
C1459 C1458 1.391 . S
H1460 C1468 0.950 1_545 S
H1461 C1473 0.950 . S
H1462 C1470 0.950 . S
H1463 C1472 0.950 . S
H1464 C1474 0.950 . S
H1465 C1476 0.950 . S
H1466 C1478 0.950 . S
H1467 C1479 0.950 . S
C1468 H1460 0.950 1_565 S
C1468 C1469 1.386 1_565 S
C1468 C1470 1.391 . S
C1469 C1468 1.386 1_545 S
C1469 C1473 1.393 . S
C1470 H1462 0.950 . S
C1470 C1468 1.391 . S
C1470 C1471 1.400 . S
C1471 C1470 1.400 . S
C1471 C1472 1.398 . S
C1471 C1477 1.491 . S
C1472 H1463 0.950 . S
C1472 C1471 1.398 . S
C1472 C1473 1.391 1_565 S
C1473 H1461 0.950 . S
C1473 C1469 1.393 . S
C1473 C1472 1.391 1_545 S
C1474 H1464 0.950 . S
C1474 C1475 1.386 . S
C1474 C1476 1.391 . S
C1475 C1474 1.386 . S
C1475 C1479 1.393 . S
C1476 H1465 0.950 . S
C1476 C1474 1.391 . S
C1476 C1477 1.400 . S
C1477 C1471 1.491 . S
C1477 C1476 1.400 . S
C1477 C1478 1.398 . S
C1478 H1466 0.950 . S
C1478 C1477 1.398 . S
C1478 C1479 1.391 . S
C1479 H1467 0.950 . S
C1479 C1475 1.393 . S
C1479 C1478 1.391 . S
H1480 C1488 0.950 . S
H1481 C1493 0.950 . S
H1482 C1490 0.950 . S
H1483 C1492 0.950 . S
H1484 C1494 0.950 . S
H1485 C1496 0.950 . S
H1486 C1498 0.950 . S
H1487 C1499 0.950 . S
C1488 H1480 0.950 . S
C1488 C1489 1.386 . S
C1488 C1490 1.391 . S
C1489 C1488 1.386 . S
C1489 C1493 1.393 . S
C1490 H1482 0.950 . S
C1490 C1488 1.391 . S
C1490 C1491 1.400 . S
C1491 C1490 1.400 . S
C1491 C1492 1.398 . S
C1491 C1497 1.491 . S
C1492 H1483 0.950 . S
C1492 C1491 1.398 . S
C1492 C1493 1.391 . S
C1493 H1481 0.950 . S
C1493 C1489 1.393 . S
C1493 C1492 1.391 . S
C1494 H1484 0.950 . S
C1494 C1495 1.386 1_455 S
C1494 C1496 1.391 . S
C1495 C1494 1.386 1_655 S
C1495 C1499 1.393 . S
C1496 H1485 0.950 . S
C1496 C1494 1.391 . S
C1496 C1497 1.400 . S
C1497 C1491 1.491 . S
C1497 C1496 1.400 . S
C1497 C1498 1.398 1_455 S
C1498 H1486 0.950 . S
C1498 C1497 1.398 1_655 S
C1498 C1499 1.391 . S
C1499 H1487 0.950 . S
C1499 C1495 1.393 . S
C1499 C1498 1.391 . S
H1500 C1508 0.950 . S
H1501 C1513 0.950 . S
H1502 C1510 0.950 . S
H1503 C1512 0.950 . S
H1504 C1514 0.950 . S
H1505 C1516 0.950 . S
H1506 C1518 0.950 . S
H1507 C1519 0.950 . S
C1508 H1500 0.950 . S
C1508 C1509 1.386 . S
C1508 C1510 1.391 . S
C1509 C1508 1.386 . S
C1509 C1513 1.393 . S
C1510 H1502 0.950 . S
C1510 C1508 1.391 . S
C1510 C1511 1.400 . S
C1511 C1510 1.400 . S
C1511 C1512 1.398 . S
C1511 C1517 1.491 . S
C1512 H1503 0.950 . S
C1512 C1511 1.398 . S
C1512 C1513 1.391 . S
C1513 H1501 0.950 . S
C1513 C1509 1.393 . S
C1513 C1512 1.391 . S
C1514 H1504 0.950 . S
C1514 C1515 1.386 . S
C1514 C1516 1.391 . S
C1515 C1514 1.386 . S
C1515 C1519 1.393 . S
C1516 H1505 0.950 . S
C1516 C1514 1.391 . S
C1516 C1517 1.400 . S
C1517 C1511 1.491 . S
C1517 C1516 1.400 . S
C1517 C1518 1.398 . S
C1518 H1506 0.950 . S
C1518 C1517 1.398 . S
C1518 C1519 1.391 . S
C1519 H1507 0.950 . S
C1519 C1515 1.393 . S
C1519 C1518 1.391 . S
H1520 C1528 0.950 . S
H1521 C1533 0.950 . S
H1522 C1530 0.950 . S
H1523 C1532 0.950 . S
H1524 C1534 0.950 . S
H1525 C1536 0.950 . S
H1526 C1538 0.950 . S
H1527 C1539 0.950 . S
C1528 H1520 0.950 . S
C1528 C1529 1.386 1_545 S
C1528 C1530 1.391 . S
C1529 C1528 1.386 1_565 S
C1529 C1533 1.393 . S
C1530 H1522 0.950 . S
C1530 C1528 1.391 . S
C1530 C1531 1.400 . S
C1531 C1530 1.400 . S
C1531 C1532 1.398 1_545 S
C1531 C1537 1.491 . S
C1532 H1523 0.950 . S
C1532 C1531 1.398 1_565 S
C1532 C1533 1.391 . S
C1533 H1521 0.950 . S
C1533 C1529 1.393 . S
C1533 C1532 1.391 . S
C1534 H1524 0.950 . S
C1534 C1535 1.386 . S
C1534 C1536 1.391 . S
C1535 C1534 1.386 . S
C1535 C1539 1.393 . S
C1536 H1525 0.950 . S
C1536 C1534 1.391 . S
C1536 C1537 1.400 . S
C1537 C1531 1.491 . S
C1537 C1536 1.400 . S
C1537 C1538 1.398 . S
C1538 H1526 0.950 . S
C1538 C1537 1.398 . S
C1538 C1539 1.391 . S
C1539 H1527 0.950 . S
C1539 C1535 1.393 . S
C1539 C1538 1.391 . S
H1540 C1548 0.950 . S
H1541 C1553 0.950 . S
H1542 C1550 0.950 . S
H1543 C1552 0.950 . S
H1544 C1554 0.950 . S
H1545 C1556 0.950 . S
H1546 C1558 0.950 . S
H1547 C1559 0.950 . S
C1548 H1540 0.950 . S
C1548 C1549 1.386 . S
C1548 C1550 1.391 . S
C1549 C1548 1.386 . S
C1549 C1553 1.393 . S
C1550 H1542 0.950 . S
C1550 C1548 1.391 . S
C1550 C1551 1.400 . S
C1551 C1550 1.400 . S
C1551 C1552 1.398 . S
C1551 C1557 1.491 . S
C1552 H1543 0.950 . S
C1552 C1551 1.398 . S
C1552 C1553 1.391 . S
C1553 H1541 0.950 . S
C1553 C1549 1.393 . S
C1553 C1552 1.391 . S
C1554 H1544 0.950 . S
C1554 C1555 1.386 . S
C1554 C1556 1.391 . S
C1555 C1554 1.386 . S
C1555 C1559 1.393 1_455 S
C1556 H1545 0.950 . S
C1556 C1554 1.391 . S
C1556 C1557 1.400 1_455 S
C1557 C1551 1.491 . S
C1557 C1556 1.400 1_655 S
C1557 C1558 1.398 . S
C1558 H1546 0.950 . S
C1558 C1557 1.398 . S
C1558 C1559 1.391 . S
C1559 H1547 0.950 . S
C1559 C1555 1.393 1_655 S
C1559 C1558 1.391 . S
H1560 C1568 0.950 . S
H1561 C1573 0.950 . S
H1562 C1570 0.950 . S
H1563 C1572 0.950 . S
H1564 C1574 0.950 . S
H1565 C1576 0.950 . S
H1566 C1578 0.950 . S
H1567 C1579 0.950 . S
C1568 H1560 0.950 . S
C1568 C1569 1.386 . S
C1568 C1570 1.391 . S
C1569 C1568 1.386 . S
C1569 C1573 1.393 . S
C1570 H1562 0.950 . S
C1570 C1568 1.391 . S
C1570 C1571 1.400 . S
C1571 C1570 1.400 . S
C1571 C1572 1.398 . S
C1571 C1577 1.491 . S
C1572 H1563 0.950 . S
C1572 C1571 1.398 . S
C1572 C1573 1.391 . S
C1573 H1561 0.950 . S
C1573 C1569 1.393 . S
C1573 C1572 1.391 . S
C1574 H1564 0.950 . S
C1574 C1575 1.386 . S
C1574 C1576 1.391 . S
C1575 C1574 1.386 . S
C1575 C1579 1.393 . S
C1576 H1565 0.950 . S
C1576 C1574 1.391 . S
C1576 C1577 1.400 . S
C1577 C1571 1.491 . S
C1577 C1576 1.400 . S
C1577 C1578 1.398 . S
C1578 H1566 0.950 . S
C1578 C1577 1.398 . S
C1578 C1579 1.391 . S
C1579 H1567 0.950 . S
C1579 C1575 1.393 . S
C1579 C1578 1.391 . S
H1580 C1588 0.950 . S
H1581 C1593 0.950 . S
H1582 C1590 0.950 . S
H1583 C1592 0.950 . S
H1584 C1594 0.950 . S
H1585 C1596 0.950 . S
H1586 C1598 0.950 . S
H1587 C1599 0.950 . S
C1588 H1580 0.950 . S
C1588 C1589 1.386 . S
C1588 C1590 1.391 . S
C1589 C1588 1.386 . S
C1589 C1593 1.393 . S
C1590 H1582 0.950 . S
C1590 C1588 1.391 . S
C1590 C1591 1.400 . S
C1591 C1590 1.400 . S
C1591 C1592 1.398 . S
C1591 C1597 1.491 . S
C1592 H1583 0.950 . S
C1592 C1591 1.398 . S
C1592 C1593 1.391 . S
C1593 H1581 0.950 . S
C1593 C1589 1.393 . S
C1593 C1592 1.391 . S
C1594 H1584 0.950 . S
C1594 C1595 1.386 1_545 S
C1594 C1596 1.391 . S
C1595 C1594 1.386 1_565 S
C1595 C1599 1.393 . S
C1596 H1585 0.950 . S
C1596 C1594 1.391 . S
C1596 C1597 1.400 . S
C1597 C1591 1.491 . S
C1597 C1596 1.400 . S
C1597 C1598 1.398 1_545 S
C1598 H1586 0.950 . S
C1598 C1597 1.398 1_565 S
C1598 C1599 1.391 . S
C1599 H1587 0.950 . S
C1599 C1595 1.393 . S
C1599 C1598 1.391 . S
H1600 C1608 0.950 . S
H1601 C1613 0.950 . S
H1602 C1610 0.950 . S
H1603 C1612 0.950 . S
H1604 C1614 0.950 . S
H1605 C1616 0.950 . S
H1606 C1618 0.950 . S
H1607 C1619 0.950 . S
C1608 H1600 0.950 . S
C1608 C1609 1.386 . S
C1608 C1610 1.391 . S
C1609 C1608 1.386 . S
C1609 C1613 1.393 . S
C1610 H1602 0.950 . S
C1610 C1608 1.391 . S
C1610 C1611 1.400 . S
C1611 C1610 1.400 . S
C1611 C1612 1.398 . S
C1611 C1617 1.491 . S
C1612 H1603 0.950 . S
C1612 C1611 1.398 . S
C1612 C1613 1.391 . S
C1613 H1601 0.950 . S
C1613 C1609 1.393 . S
C1613 C1612 1.391 . S
C1614 H1604 0.950 . S
C1614 C1615 1.386 . S
C1614 C1616 1.391 . S
C1615 C1614 1.386 . S
C1615 C1619 1.393 1_455 S
C1616 H1605 0.950 . S
C1616 C1614 1.391 . S
C1616 C1617 1.400 1_455 S
C1617 C1611 1.491 . S
C1617 C1616 1.400 1_655 S
C1617 C1618 1.398 . S
C1618 H1606 0.950 . S
C1618 C1617 1.398 . S
C1618 C1619 1.391 . S
C1619 H1607 0.950 . S
C1619 C1615 1.393 1_655 S
C1619 C1618 1.391 . S
H1620 C1628 0.950 . S
H1621 C1633 0.950 . S
H1622 C1630 0.950 . S
H1623 C1632 0.950 . S
H1624 C1634 0.950 . S
H1625 C1636 0.950 . S
H1626 C1638 0.950 . S
H1627 C1639 0.950 . S
C1628 H1620 0.950 . S
C1628 C1629 1.386 . S
C1628 C1630 1.391 . S
C1629 C1628 1.386 . S
C1629 C1633 1.393 . S
C1630 H1622 0.950 . S
C1630 C1628 1.391 . S
C1630 C1631 1.400 . S
C1631 C1630 1.400 . S
C1631 C1632 1.398 . S
C1631 C1637 1.491 . S
C1632 H1623 0.950 . S
C1632 C1631 1.398 . S
C1632 C1633 1.391 . S
C1633 H1621 0.950 . S
C1633 C1629 1.393 . S
C1633 C1632 1.391 . S
C1634 H1624 0.950 . S
C1634 C1635 1.386 . S
C1634 C1636 1.391 . S
C1635 C1634 1.386 . S
C1635 C1639 1.393 . S
C1636 H1625 0.950 . S
C1636 C1634 1.391 . S
C1636 C1637 1.400 . S
C1637 C1631 1.491 . S
C1637 C1636 1.400 . S
C1637 C1638 1.398 . S
C1638 H1626 0.950 . S
C1638 C1637 1.398 . S
C1638 C1639 1.391 . S
C1639 H1627 0.950 . S
C1639 C1635 1.393 . S
C1639 C1638 1.391 . S
H1640 C1648 0.950 . S
H1641 C1653 0.950 . S
H1642 C1650 0.950 . S
H1643 C1652 0.950 . S
H1644 C1654 0.950 . S
H1645 C1656 0.950 . S
H1646 C1658 0.950 . S
H1647 C1659 0.950 . S
C1648 H1640 0.950 . S
C1648 C1649 1.386 . S
C1648 C1650 1.391 1_545 S
C1649 C1648 1.386 . S
C1649 C1653 1.393 1_545 S
C1650 H1642 0.950 . S
C1650 C1648 1.391 1_565 S
C1650 C1651 1.400 . S
C1651 C1650 1.400 . S
C1651 C1652 1.398 . S
C1651 C1657 1.491 . S
C1652 H1643 0.950 . S
C1652 C1651 1.398 . S
C1652 C1653 1.391 . S
C1653 H1641 0.950 . S
C1653 C1649 1.393 1_565 S
C1653 C1652 1.391 . S
C1654 H1644 0.950 . S
C1654 C1655 1.386 . S
C1654 C1656 1.391 . S
C1655 C1654 1.386 . S
C1655 C1659 1.393 . S
C1656 H1645 0.950 . S
C1656 C1654 1.391 . S
C1656 C1657 1.400 . S
C1657 C1651 1.491 . S
C1657 C1656 1.400 . S
C1657 C1658 1.398 . S
C1658 H1646 0.950 . S
C1658 C1657 1.398 . S
C1658 C1659 1.391 . S
C1659 H1647 0.950 . S
C1659 C1655 1.393 . S
C1659 C1658 1.391 . S
H1660 C1668 0.950 . S
H1661 C1673 0.950 . S
H1662 C1670 0.950 . S
H1663 C1672 0.950 . S
H1664 C1674 0.950 . S
H1665 C1676 0.950 . S
H1666 C1678 0.950 . S
H1667 C1679 0.950 . S
C1668 H1660 0.950 . S
C1668 C1669 1.386 1_455 S
C1668 C1670 1.391 . S
C1669 C1668 1.386 1_655 S
C1669 C1673 1.393 . S
C1670 H1662 0.950 . S
C1670 C1668 1.391 . S
C1670 C1671 1.400 . S
C1671 C1670 1.400 . S
C1671 C1672 1.398 1_455 S
C1671 C1677 1.491 . S
C1672 H1663 0.950 . S
C1672 C1671 1.398 1_655 S
C1672 C1673 1.391 . S
C1673 H1661 0.950 . S
C1673 C1669 1.393 . S
C1673 C1672 1.391 . S
C1674 H1664 0.950 . S
C1674 C1675 1.386 . S
C1674 C1676 1.391 . S
C1675 C1674 1.386 . S
C1675 C1679 1.393 . S
C1676 H1665 0.950 . S
C1676 C1674 1.391 . S
C1676 C1677 1.400 . S
C1677 C1671 1.491 . S
C1677 C1676 1.400 . S
C1677 C1678 1.398 . S
C1678 H1666 0.950 . S
C1678 C1677 1.398 . S
C1678 C1679 1.391 . S
C1679 H1667 0.950 . S
C1679 C1675 1.393 . S
C1679 C1678 1.391 . S
H1680 C1688 0.950 . S
H1681 C1693 0.950 . S
H1682 C1690 0.950 . S
H1683 C1692 0.950 . S
H1684 C1694 0.950 . S
H1685 C1696 0.950 . S
H1686 C1698 0.950 . S
H1687 C1699 0.950 . S
C1688 H1680 0.950 . S
C1688 C1689 1.386 . S
C1688 C1690 1.391 . S
C1689 C1688 1.386 . S
C1689 C1693 1.393 . S
C1690 H1682 0.950 . S
C1690 C1688 1.391 . S
C1690 C1691 1.400 . S
C1691 C1690 1.400 . S
C1691 C1692 1.398 . S
C1691 C1697 1.491 1_655 S
C1692 H1683 0.950 . S
C1692 C1691 1.398 . S
C1692 C1693 1.391 . S
C1693 H1681 0.950 . S
C1693 C1689 1.393 . S
C1693 C1692 1.391 . S
C1694 H1684 0.950 . S
C1694 C1695 1.386 . S
C1694 C1696 1.391 . S
C1695 C1694 1.386 . S
C1695 C1699 1.393 . S
C1696 H1685 0.950 . S
C1696 C1694 1.391 . S
C1696 C1697 1.400 . S
C1697 C1691 1.491 1_455 S
C1697 C1696 1.400 . S
C1697 C1698 1.398 . S
C1698 H1686 0.950 . S
C1698 C1697 1.398 . S
C1698 C1699 1.391 . S
C1699 H1687 0.950 . S
C1699 C1695 1.393 . S
C1699 C1698 1.391 . S
H1700 C1708 0.950 . S
H1701 C1713 0.950 . S
H1702 C1710 0.950 . S
H1703 C1712 0.950 . S
H1704 C1714 0.950 . S
H1705 C1716 0.950 . S
H1706 C1718 0.950 . S
H1707 C1719 0.950 . S
C1708 H1700 0.950 . S
C1708 C1709 1.386 . S
C1708 C1710 1.391 . S
C1709 C1708 1.386 . S
C1709 C1713 1.393 . S
C1710 H1702 0.950 . S
C1710 C1708 1.391 . S
C1710 C1711 1.400 . S
C1711 C1710 1.400 . S
C1711 C1712 1.398 . S
C1711 C1717 1.491 . S
C1712 H1703 0.950 . S
C1712 C1711 1.398 . S
C1712 C1713 1.391 . S
C1713 H1701 0.950 . S
C1713 C1709 1.393 . S
C1713 C1712 1.391 . S
C1714 H1704 0.950 . S
C1714 C1715 1.386 . S
C1714 C1716 1.391 . S
C1715 C1714 1.386 . S
C1715 C1719 1.393 . S
C1716 H1705 0.950 . S
C1716 C1714 1.391 . S
C1716 C1717 1.400 . S
C1717 C1711 1.491 . S
C1717 C1716 1.400 . S
C1717 C1718 1.398 . S
C1718 H1706 0.950 . S
C1718 C1717 1.398 . S
C1718 C1719 1.391 . S
C1719 H1707 0.950 . S
C1719 C1715 1.393 . S
C1719 C1718 1.391 . S
H1720 C1728 0.950 . S
H1721 C1733 0.950 . S
H1722 C1730 0.950 . S
H1723 C1732 0.950 . S
H1724 C1734 0.950 . S
H1725 C1736 0.950 . S
H1726 C1738 0.950 . S
H1727 C1739 0.950 . S
C1728 H1720 0.950 . S
C1728 C1729 1.386 . S
C1728 C1730 1.391 . S
C1729 C1728 1.386 . S
C1729 C1733 1.393 . S
C1730 H1722 0.950 . S
C1730 C1728 1.391 . S
C1730 C1731 1.400 . S
C1731 C1730 1.400 . S
C1731 C1732 1.398 . S
C1731 C1737 1.491 1_565 S
C1732 H1723 0.950 . S
C1732 C1731 1.398 . S
C1732 C1733 1.391 . S
C1733 H1721 0.950 . S
C1733 C1729 1.393 . S
C1733 C1732 1.391 . S
C1734 H1724 0.950 . S
C1734 C1735 1.386 . S
C1734 C1736 1.391 . S
C1735 C1734 1.386 . S
C1735 C1739 1.393 . S
C1736 H1725 0.950 . S
C1736 C1734 1.391 . S
C1736 C1737 1.400 . S
C1737 C1731 1.491 1_545 S
C1737 C1736 1.400 . S
C1737 C1738 1.398 . S
C1738 H1726 0.950 . S
C1738 C1737 1.398 . S
C1738 C1739 1.391 . S
C1739 H1727 0.950 . S
C1739 C1735 1.393 . S
C1739 C1738 1.391 . S
H1740 C1748 0.950 . S
H1741 C1753 0.950 . S
H1742 C1750 0.950 . S
H1743 C1752 0.950 . S
H1744 C1754 0.950 . S
H1745 C1756 0.950 . S
H1746 C1758 0.950 . S
H1747 C1759 0.950 . S
C1748 H1740 0.950 . S
C1748 C1749 1.386 . S
C1748 C1750 1.391 . S
C1749 C1748 1.386 . S
C1749 C1753 1.393 . S
C1750 H1742 0.950 . S
C1750 C1748 1.391 . S
C1750 C1751 1.400 . S
C1751 C1750 1.400 . S
C1751 C1752 1.398 . S
C1751 C1757 1.491 . S
C1752 H1743 0.950 . S
C1752 C1751 1.398 . S
C1752 C1753 1.391 . S
C1753 H1741 0.950 . S
C1753 C1749 1.393 . S
C1753 C1752 1.391 . S
C1754 H1744 0.950 . S
C1754 C1755 1.386 . S
C1754 C1756 1.391 1_655 S
C1755 C1754 1.386 . S
C1755 C1759 1.393 1_655 S
C1756 H1745 0.950 . S
C1756 C1754 1.391 1_455 S
C1756 C1757 1.400 . S
C1757 C1751 1.491 . S
C1757 C1756 1.400 . S
C1757 C1758 1.398 . S
C1758 H1746 0.950 . S
C1758 C1757 1.398 . S
C1758 C1759 1.391 . S
C1759 H1747 0.950 . S
C1759 C1755 1.393 1_455 S
C1759 C1758 1.391 . S
H1760 C1768 0.950 . S
H1761 C1773 0.950 . S
H1762 C1770 0.950 . S
H1763 C1772 0.950 . S
H1764 C1774 0.950 . S
H1765 C1776 0.950 . S
H1766 C1778 0.950 . S
H1767 C1779 0.950 . S
C1768 H1760 0.950 . S
C1768 C1769 1.386 . S
C1768 C1770 1.391 . S
C1769 C1768 1.386 . S
C1769 C1773 1.393 . S
C1770 H1762 0.950 . S
C1770 C1768 1.391 . S
C1770 C1771 1.400 . S
C1771 C1770 1.400 . S
C1771 C1772 1.398 . S
C1771 C1777 1.491 . S
C1772 H1763 0.950 . S
C1772 C1771 1.398 . S
C1772 C1773 1.391 . S
C1773 H1761 0.950 . S
C1773 C1769 1.393 . S
C1773 C1772 1.391 . S
C1774 H1764 0.950 . S
C1774 C1775 1.386 . S
C1774 C1776 1.391 . S
C1775 C1774 1.386 . S
C1775 C1779 1.393 . S
C1776 H1765 0.950 . S
C1776 C1774 1.391 . S
C1776 C1777 1.400 . S
C1777 C1771 1.491 . S
C1777 C1776 1.400 . S
C1777 C1778 1.398 . S
C1778 H1766 0.950 . S
C1778 C1777 1.398 . S
C1778 C1779 1.391 . S
C1779 H1767 0.950 . S
C1779 C1775 1.393 . S
C1779 C1778 1.391 . S
H1780 C1788 0.950 . S
H1781 C1793 0.950 . S
H1782 C1790 0.950 . S
H1783 C1792 0.950 . S
H1784 C1794 0.950 . S
H1785 C1796 0.950 . S
H1786 C1798 0.950 . S
H1787 C1799 0.950 . S
C1788 H1780 0.950 . S
C1788 C1789 1.386 . S
C1788 C1790 1.391 . S
C1789 C1788 1.386 . S
C1789 C1793 1.393 . S
C1790 H1782 0.950 . S
C1790 C1788 1.391 . S
C1790 C1791 1.400 . S
C1791 C1790 1.400 . S
C1791 C1792 1.398 . S
C1791 C1797 1.491 . S
C1792 H1783 0.950 . S
C1792 C1791 1.398 . S
C1792 C1793 1.391 . S
C1793 H1781 0.950 . S
C1793 C1789 1.393 . S
C1793 C1792 1.391 . S
C1794 H1784 0.950 . S
C1794 C1795 1.386 . S
C1794 C1796 1.391 1_545 S
C1795 C1794 1.386 . S
C1795 C1799 1.393 1_545 S
C1796 H1785 0.950 . S
C1796 C1794 1.391 1_565 S
C1796 C1797 1.400 . S
C1797 C1791 1.491 . S
C1797 C1796 1.400 . S
C1797 C1798 1.398 . S
C1798 H1786 0.950 . S
C1798 C1797 1.398 . S
C1798 C1799 1.391 . S
C1799 H1787 0.950 . S
C1799 C1795 1.393 1_565 S
C1799 C1798 1.391 . S
H1800 C1808 0.950 . S
H1801 C1813 0.950 . S
H1802 C1810 0.950 . S
H1803 C1812 0.950 . S
H1804 C1814 0.950 . S
H1805 C1816 0.950 . S
H1806 C1818 0.950 1_545 S
H1807 C1819 0.950 . S
C1808 H1800 0.950 . S
C1808 C1809 1.386 . S
C1808 C1810 1.391 . S
C1809 C1808 1.386 . S
C1809 C1813 1.393 . S
C1810 H1802 0.950 . S
C1810 C1808 1.391 . S
C1810 C1811 1.400 . S
C1811 C1810 1.400 . S
C1811 C1812 1.398 . S
C1811 C1817 1.491 . S
C1812 H1803 0.950 . S
C1812 C1811 1.398 . S
C1812 C1813 1.391 . S
C1813 H1801 0.950 . S
C1813 C1809 1.393 . S
C1813 C1812 1.391 . S
C1814 H1804 0.950 . S
C1814 C1815 1.386 1_565 S
C1814 C1816 1.391 . S
C1815 C1814 1.386 1_545 S
C1815 C1819 1.393 . S
C1816 H1805 0.950 . S
C1816 C1814 1.391 . S
C1816 C1817 1.400 . S
C1817 C1811 1.491 . S
C1817 C1816 1.400 . S
C1817 C1818 1.398 . S
C1818 H1806 0.950 1_565 S
C1818 C1817 1.398 . S
C1818 C1819 1.391 1_565 S
C1819 H1807 0.950 . S
C1819 C1815 1.393 . S
C1819 C1818 1.391 1_545 S
H1820 C1828 0.950 . S
H1821 C1833 0.950 . S
H1822 C1830 0.950 . S
H1823 C1832 0.950 1_655 S
H1824 C1834 0.950 . S
H1825 C1836 0.950 . S
H1826 C1838 0.950 . S
H1827 C1839 0.950 . S
C1828 H1820 0.950 . S
C1828 C1829 1.386 1_455 S
C1828 C1830 1.391 . S
C1829 C1828 1.386 1_655 S
C1829 C1833 1.393 . S
C1830 H1822 0.950 . S
C1830 C1828 1.391 . S
C1830 C1831 1.400 . S
C1831 C1830 1.400 . S
C1831 C1832 1.398 . S
C1831 C1837 1.491 . S
C1832 H1823 0.950 1_455 S
C1832 C1831 1.398 . S
C1832 C1833 1.391 1_455 S
C1833 H1821 0.950 . S
C1833 C1829 1.393 . S
C1833 C1832 1.391 1_655 S
C1834 H1824 0.950 . S
C1834 C1835 1.386 . S
C1834 C1836 1.391 . S
C1835 C1834 1.386 . S
C1835 C1839 1.393 . S
C1836 H1825 0.950 . S
C1836 C1834 1.391 . S
C1836 C1837 1.400 . S
C1837 C1831 1.491 . S
C1837 C1836 1.400 . S
C1837 C1838 1.398 . S
C1838 H1826 0.950 . S
C1838 C1837 1.398 . S
C1838 C1839 1.391 . S
C1839 H1827 0.950 . S
C1839 C1835 1.393 . S
C1839 C1838 1.391 . S
H1840 C1848 0.950 . S
H1841 C1853 0.950 . S
H1842 C1850 0.950 . S
H1843 C1852 0.950 . S
H1844 C1854 0.950 . S
H1845 C1856 0.950 . S
H1846 C1858 0.950 . S
H1847 C1859 0.950 . S
C1848 H1840 0.950 . S
C1848 C1849 1.386 . S
C1848 C1850 1.391 . S
C1849 C1848 1.386 . S
C1849 C1853 1.393 . S
C1850 H1842 0.950 . S
C1850 C1848 1.391 . S
C1850 C1851 1.400 . S
C1851 C1850 1.400 . S
C1851 C1852 1.398 . S
C1851 C1857 1.491 . S
C1852 H1843 0.950 . S
C1852 C1851 1.398 . S
C1852 C1853 1.391 . S
C1853 H1841 0.950 . S
C1853 C1849 1.393 . S
C1853 C1852 1.391 . S
C1854 H1844 0.950 . S
C1854 C1855 1.386 . S
C1854 C1856 1.391 . S
C1855 C1854 1.386 . S
C1855 C1859 1.393 . S
C1856 H1845 0.950 . S
C1856 C1854 1.391 . S
C1856 C1857 1.400 . S
C1857 C1851 1.491 . S
C1857 C1856 1.400 . S
C1857 C1858 1.398 . S
C1858 H1846 0.950 . S
C1858 C1857 1.398 . S
C1858 C1859 1.391 . S
C1859 H1847 0.950 . S
C1859 C1855 1.393 . S
C1859 C1858 1.391 . S
H1860 C1868 0.950 . S
H1861 C1873 0.950 . S
H1862 C1870 0.950 . S
H1863 C1872 0.950 . S
H1864 C1874 0.950 . S
H1865 C1876 0.950 . S
H1866 C1878 0.950 . S
H1867 C1879 0.950 . S
C1868 H1860 0.950 . S
C1868 C1869 1.356 1_556 S
C1868 C1870 1.391 . S
C1869 C1868 1.356 1_554 S
C1869 C1873 1.422 . S
C1870 H1862 0.950 . S
C1870 C1868 1.391 . S
C1870 C1871 1.452 . S
C1871 C1870 1.452 . S
C1871 C1872 1.343 1_556 S
C1871 C1877 1.496 1_565 S
C1872 H1863 0.950 . S
C1872 C1871 1.343 1_554 S
C1872 C1873 1.391 . S
C1873 H1861 0.950 . S
C1873 C1869 1.422 . S
C1873 C1872 1.391 . S
C1874 H1864 0.950 . S
C1874 C1875 1.386 1_554 S
C1874 C1876 1.391 . S
C1875 C1874 1.386 1_556 S
C1875 C1879 1.393 . S
C1876 H1865 0.950 . S
C1876 C1874 1.391 . S
C1876 C1877 1.400 1_554 S
C1877 C1871 1.496 1_545 S
C1877 C1876 1.400 1_556 S
C1877 C1878 1.398 . S
C1878 H1866 0.950 . S
C1878 C1877 1.398 . S
C1878 C1879 1.391 . S
C1879 H1867 0.950 . S
C1879 C1875 1.393 . S
C1879 C1878 1.391 . S
H1880 C1888 0.950 . S
H1881 C1893 0.950 . S
H1882 C1890 0.950 . S
H1883 C1892 0.950 . S
H1884 C1894 0.950 . S
H1885 C1896 0.950 . S
H1886 C1898 0.950 . S
H1887 C1899 0.950 . S
C1888 H1880 0.950 . S
C1888 C1889 1.406 . S
C1888 C1890 1.391 . S
C1889 C1888 1.406 . S
C1889 C1893 1.371 1_554 S
C1890 H1882 0.950 . S
C1890 C1888 1.391 . S
C1890 C1891 1.343 1_554 S
C1891 C1890 1.343 1_556 S
C1891 C1892 1.453 . S
C1891 C1897 1.496 1_455 S
C1892 H1883 0.950 . S
C1892 C1891 1.453 . S
C1892 C1893 1.391 . S
C1893 H1881 0.950 . S
C1893 C1889 1.371 1_556 S
C1893 C1892 1.391 . S
C1894 H1884 0.950 . S
C1894 C1895 1.386 . S
C1894 C1896 1.391 . S
C1895 C1894 1.386 . S
C1895 C1899 1.393 1_556 S
C1896 H1885 0.950 . S
C1896 C1894 1.391 . S
C1896 C1897 1.400 . S
C1897 C1891 1.496 1_655 S
C1897 C1896 1.400 . S
C1897 C1898 1.398 1_556 S
C1898 H1886 0.950 . S
C1898 C1897 1.398 1_554 S
C1898 C1899 1.391 . S
C1899 H1887 0.950 . S
C1899 C1895 1.393 1_554 S
C1899 C1898 1.391 . S
H1900 C1908 0.950 . S
H1901 C1913 0.948 1_554 S
H1902 C1910 0.950 . S
H1903 C1912 0.953 . S
H1904 C1914 0.950 . S
H1905 C1916 0.950 . S
H1906 C1918 0.950 . S
H1907 C1919 0.950 . S
C1908 H1900 0.950 . S
C1908 C1909 1.386 . S
C1908 C1910 1.391 . S
C1909 C1908 1.386 . S
C1909 C1913 1.395 . S
C1910 H1902 0.950 . S
C1910 C1908 1.391 . S
C1910 C1911 1.400 . S
C1911 C1910 1.400 . S
C1911 C1912 1.396 1_556 S
C1911 C1917 1.499 . S
C1912 H1903 0.953 . S
C1912 C1911 1.396 1_554 S
C1912 C1913 1.390 1_554 S
C1913 H1901 0.948 1_556 S
C1913 C1909 1.395 . S
C1913 C1912 1.390 1_556 S
C1914 H1904 0.950 . S
C1914 C1915 1.393 . S
C1914 C1916 1.391 . S
C1915 C1914 1.393 . S
C1915 C1919 1.385 1_554 S
C1916 H1905 0.950 . S
C1916 C1914 1.391 . S
C1916 C1917 1.383 1_554 S
C1917 C1911 1.499 . S
C1917 C1916 1.383 1_556 S
C1917 C1918 1.413 . S
C1918 H1906 0.950 . S
C1918 C1917 1.413 . S
C1918 C1919 1.391 . S
C1919 H1907 0.950 . S
C1919 C1915 1.385 1_556 S
C1919 C1918 1.391 . S
H1920 C1928 0.950 . S
H1921 C1933 0.950 . S
H1922 C1930 0.950 . S
H1923 C1932 0.950 . S
H1924 C1934 0.950 . S
H1925 C1936 0.950 . S
H1926 C1938 0.950 . S
H1927 C1939 0.950 . S
C1928 H1920 0.950 . S
C1928 C1929 1.386 . S
C1928 C1930 1.391 . S
C1929 C1928 1.386 . S
C1929 C1933 1.393 . S
C1930 H1922 0.950 . S
C1930 C1928 1.391 . S
C1930 C1931 1.400 . S
C1931 C1930 1.400 . S
C1931 C1932 1.398 . S
C1931 C1937 1.491 . S
C1932 H1923 0.950 . S
C1932 C1931 1.398 . S
C1932 C1933 1.391 . S
C1933 H1921 0.950 . S
C1933 C1929 1.393 . S
C1933 C1932 1.391 . S
C1934 H1924 0.950 . S
C1934 C1935 1.386 1_545 S
C1934 C1936 1.391 . S
C1935 C1934 1.386 1_565 S
C1935 C1939 1.393 . S
C1936 H1925 0.950 . S
C1936 C1934 1.391 . S
C1936 C1937 1.400 . S
C1937 C1931 1.491 . S
C1937 C1936 1.400 . S
C1937 C1938 1.398 1_545 S
C1938 H1926 0.950 . S
C1938 C1937 1.398 1_565 S
C1938 C1939 1.391 . S
C1939 H1927 0.950 . S
C1939 C1935 1.393 . S
C1939 C1938 1.391 . S
H1940 C1948 0.950 . S
H1941 C1953 0.950 . S
H1942 C1950 0.950 . S
H1943 C1952 0.950 . S
H1944 C1954 0.950 . S
H1945 C1956 0.950 . S
H1946 C1958 0.950 . S
H1947 C1959 0.950 . S
C1948 H1940 0.950 . S
C1948 C1949 1.386 . S
C1948 C1950 1.391 . S
C1949 C1948 1.386 . S
C1949 C1953 1.393 . S
C1950 H1942 0.950 . S
C1950 C1948 1.391 . S
C1950 C1951 1.400 . S
C1951 C1950 1.400 . S
C1951 C1952 1.398 . S
C1951 C1957 1.491 . S
C1952 H1943 0.950 . S
C1952 C1951 1.398 . S
C1952 C1953 1.391 . S
C1953 H1941 0.950 . S
C1953 C1949 1.393 . S
C1953 C1952 1.391 . S
C1954 H1944 0.950 . S
C1954 C1955 1.386 1_655 S
C1954 C1956 1.391 . S
C1955 C1954 1.386 1_455 S
C1955 C1959 1.393 . S
C1956 H1945 0.950 . S
C1956 C1954 1.391 . S
C1956 C1957 1.400 . S
C1957 C1951 1.491 . S
C1957 C1956 1.400 . S
C1957 C1958 1.398 1_655 S
C1958 H1946 0.950 . S
C1958 C1957 1.398 1_455 S
C1958 C1959 1.391 . S
C1959 H1947 0.950 . S
C1959 C1955 1.393 . S
C1959 C1958 1.391 . S
H1960 C1968 0.950 . S
H1961 C1973 0.950 . S
H1962 C1970 0.950 . S
H1963 C1972 0.950 . S
H1964 C1974 0.950 . S
H1965 C1976 0.950 . S
H1966 C1978 0.950 . S
H1967 C1979 0.950 . S
C1968 H1960 0.950 . S
C1968 C1969 1.386 . S
C1968 C1970 1.391 . S
C1969 C1968 1.386 . S
C1969 C1973 1.393 . S
C1970 H1962 0.950 . S
C1970 C1968 1.391 . S
C1970 C1971 1.400 . S
C1971 C1970 1.400 . S
C1971 C1972 1.398 . S
C1971 C1977 1.491 . S
C1972 H1963 0.950 . S
C1972 C1971 1.398 . S
C1972 C1973 1.391 . S
C1973 H1961 0.950 . S
C1973 C1969 1.393 . S
C1973 C1972 1.391 . S
C1974 H1964 0.950 . S
C1974 C1975 1.386 . S
C1974 C1976 1.391 . S
C1975 C1974 1.386 . S
C1975 C1979 1.393 . S
C1976 H1965 0.950 . S
C1976 C1974 1.391 . S
C1976 C1977 1.400 . S
C1977 C1971 1.491 . S
C1977 C1976 1.400 . S
C1977 C1978 1.398 . S
C1978 H1966 0.950 . S
C1978 C1977 1.398 . S
C1978 C1979 1.391 . S
C1979 H1967 0.950 . S
C1979 C1975 1.393 . S
C1979 C1978 1.391 . S
H1980 C1988 0.950 . S
H1981 C1993 0.950 . S
H1982 C1990 0.950 . S
H1983 C1992 0.950 . S
H1984 C1994 0.950 . S
H1985 C1996 0.950 . S
H1986 C1998 0.950 . S
H1987 C1999 0.950 . S
C1988 H1980 0.950 . S
C1988 C1989 1.386 1_556 S
C1988 C1990 1.391 . S
C1989 C1988 1.386 1_554 S
C1989 C1993 1.393 . S
C1990 H1982 0.950 . S
C1990 C1988 1.391 . S
C1990 C1991 1.400 1_556 S
C1991 C1990 1.400 1_554 S
C1991 C1992 1.398 . S
C1991 C1997 1.499 1_565 S
C1992 H1983 0.950 . S
C1992 C1991 1.398 . S
C1992 C1993 1.391 . S
C1993 H1981 0.950 . S
C1993 C1989 1.393 . S
C1993 C1992 1.391 . S
C1994 H1984 0.950 . S
C1994 C1995 1.373 1_554 S
C1994 C1996 1.391 . S
C1995 C1994 1.373 1_556 S
C1995 C1999 1.405 . S
C1996 H1985 0.950 . S
C1996 C1994 1.391 . S
C1996 C1997 1.470 . S
C1997 C1991 1.499 1_545 S
C1997 C1996 1.470 . S
C1997 C1998 1.325 1_554 S
C1998 H1986 0.950 . S
C1998 C1997 1.325 1_556 S
C1998 C1999 1.391 . S
C1999 H1987 0.950 . S
C1999 C1995 1.405 . S
C1999 C1998 1.391 . S
H2000 C2008 0.950 . S
H2001 C2013 0.950 . S
H2002 C2010 0.950 . S
H2003 C2012 0.950 . S
H2004 C2014 0.950 . S
H2005 C2016 0.950 . S
H2006 C2018 0.950 . S
H2007 C2019 0.950 . S
C2008 H2000 0.950 . S
C2008 C2009 1.405 . S
C2008 C2010 1.391 . S
C2009 C2008 1.405 . S
C2009 C2013 1.374 1_556 S
C2010 H2002 0.950 . S
C2010 C2008 1.391 . S
C2010 C2011 1.378 1_556 S
C2011 C2010 1.378 1_554 S
C2011 C2012 1.418 . S
C2011 C2017 1.496 1_655 S
C2012 H2003 0.950 . S
C2012 C2011 1.418 . S
C2012 C2013 1.391 . S
C2013 H2001 0.950 . S
C2013 C2009 1.374 1_554 S
C2013 C2012 1.391 . S
C2014 H2004 0.950 . S
C2014 C2015 1.386 . S
C2014 C2016 1.391 . S
C2015 C2014 1.386 . S
C2015 C2019 1.393 1_554 S
C2016 H2005 0.950 . S
C2016 C2014 1.391 . S
C2016 C2017 1.400 . S
C2017 C2011 1.496 1_455 S
C2017 C2016 1.400 . S
C2017 C2018 1.398 1_554 S
C2018 H2006 0.950 . S
C2018 C2017 1.398 1_556 S
C2018 C2019 1.391 . S
C2019 H2007 0.950 . S
C2019 C2015 1.393 1_556 S
C2019 C2018 1.391 . S
H2020 C2028 0.950 . S
H2021 C2033 0.950 . S
H2022 C2030 0.950 . S
H2023 C2032 0.950 . S
H2024 C2034 0.950 . S
H2025 C2036 0.950 . S
H2026 C2038 0.950 . S
H2027 C2039 0.950 . S
C2028 H2020 0.950 . S
C2028 C2029 1.386 1_556 S
C2028 C2030 1.391 . S
C2029 C2028 1.386 1_554 S
C2029 C2033 1.393 . S
C2030 H2022 0.950 . S
C2030 C2028 1.391 . S
C2030 C2031 1.400 1_556 S
C2031 C2030 1.400 1_554 S
C2031 C2032 1.398 . S
C2031 C2037 1.499 . S
C2032 H2023 0.950 . S
C2032 C2031 1.398 . S
C2032 C2033 1.391 . S
C2033 H2021 0.950 . S
C2033 C2029 1.393 . S
C2033 C2032 1.391 . S
C2034 H2024 0.950 . S
C2034 C2035 1.376 1_554 S
C2034 C2036 1.391 . S
C2035 C2034 1.376 1_556 S
C2035 C2039 1.402 . S
C2036 H2025 0.950 . S
C2036 C2034 1.391 . S
C2036 C2037 1.474 . S
C2037 C2031 1.499 . S
C2037 C2036 1.474 . S
C2037 C2038 1.321 1_554 S
C2038 H2026 0.950 . S
C2038 C2037 1.321 1_556 S
C2038 C2039 1.391 . S
C2039 H2027 0.950 . S
C2039 C2035 1.402 . S
C2039 C2038 1.391 . S
H2040 C2048 0.950 . S
H2041 C2053 0.950 . S
H2042 C2050 0.950 . S
H2043 C2052 0.950 . S
H2044 C2054 0.950 . S
H2045 C2056 0.950 . S
H2046 C2058 0.950 . S
H2047 C2059 0.950 . S
C2048 H2040 0.950 . S
C2048 C2049 1.386 . S
C2048 C2050 1.391 . S
C2049 C2048 1.386 . S
C2049 C2053 1.393 . S
C2050 H2042 0.950 . S
C2050 C2048 1.391 . S
C2050 C2051 1.400 . S
C2051 C2050 1.400 . S
C2051 C2052 1.398 . S
C2051 C2057 1.491 1_455 S
C2052 H2043 0.950 . S
C2052 C2051 1.398 . S
C2052 C2053 1.391 . S
C2053 H2041 0.950 . S
C2053 C2049 1.393 . S
C2053 C2052 1.391 . S
C2054 H2044 0.950 . S
C2054 C2055 1.386 . S
C2054 C2056 1.391 . S
C2055 C2054 1.386 . S
C2055 C2059 1.393 . S
C2056 H2045 0.950 . S
C2056 C2054 1.391 . S
C2056 C2057 1.400 . S
C2057 C2051 1.491 1_655 S
C2057 C2056 1.400 . S
C2057 C2058 1.398 . S
C2058 H2046 0.950 . S
C2058 C2057 1.398 . S
C2058 C2059 1.391 . S
C2059 H2047 0.950 . S
C2059 C2055 1.393 . S
C2059 C2058 1.391 . S
H2060 C2068 0.950 . S
H2061 C2073 0.950 . S
H2062 C2070 0.950 . S
H2063 C2072 0.950 . S
H2064 C2074 0.950 . S
H2065 C2076 0.950 . S
H2066 C2078 0.950 . S
H2067 C2079 0.950 . S
C2068 H2060 0.950 . S
C2068 C2069 1.386 . S
C2068 C2070 1.391 . S
C2069 C2068 1.386 . S
C2069 C2073 1.393 . S
C2070 H2062 0.950 . S
C2070 C2068 1.391 . S
C2070 C2071 1.400 . S
C2071 C2070 1.400 . S
C2071 C2072 1.398 . S
C2071 C2077 1.491 . S
C2072 H2063 0.950 . S
C2072 C2071 1.398 . S
C2072 C2073 1.391 . S
C2073 H2061 0.950 . S
C2073 C2069 1.393 . S
C2073 C2072 1.391 . S
C2074 H2064 0.950 . S
C2074 C2075 1.386 . S
C2074 C2076 1.391 . S
C2075 C2074 1.386 . S
C2075 C2079 1.393 . S
C2076 H2065 0.950 . S
C2076 C2074 1.391 . S
C2076 C2077 1.400 . S
C2077 C2071 1.491 . S
C2077 C2076 1.400 . S
C2077 C2078 1.398 . S
C2078 H2066 0.950 . S
C2078 C2077 1.398 . S
C2078 C2079 1.391 . S
C2079 H2067 0.950 . S
C2079 C2075 1.393 . S
C2079 C2078 1.391 . S
H2080 C2088 0.950 . S
H2081 C2093 0.950 . S
H2082 C2090 0.950 . S
H2083 C2092 0.950 . S
H2084 C2094 0.950 . S
H2085 C2096 0.950 . S
H2086 C2098 0.950 . S
H2087 C2099 0.950 . S
C2088 H2080 0.950 . S
C2088 C2089 1.386 . S
C2088 C2090 1.391 . S
C2089 C2088 1.386 . S
C2089 C2093 1.393 . S
C2090 H2082 0.950 . S
C2090 C2088 1.391 . S
C2090 C2091 1.400 . S
C2091 C2090 1.400 . S
C2091 C2092 1.398 . S
C2091 C2097 1.491 1_565 S
C2092 H2083 0.950 . S
C2092 C2091 1.398 . S
C2092 C2093 1.391 . S
C2093 H2081 0.950 . S
C2093 C2089 1.393 . S
C2093 C2092 1.391 . S
C2094 H2084 0.950 . S
C2094 C2095 1.386 . S
C2094 C2096 1.391 . S
C2095 C2094 1.386 . S
C2095 C2099 1.393 . S
C2096 H2085 0.950 . S
C2096 C2094 1.391 . S
C2096 C2097 1.400 . S
C2097 C2091 1.491 1_545 S
C2097 C2096 1.400 . S
C2097 C2098 1.398 . S
C2098 H2086 0.950 . S
C2098 C2097 1.398 . S
C2098 C2099 1.391 . S
C2099 H2087 0.950 . S
C2099 C2095 1.393 . S
C2099 C2098 1.391 . S
H2100 C2108 0.950 . S
H2101 C2113 0.950 . S
H2102 C2110 0.950 1_455 S
H2103 C2112 0.950 . S
H2104 C2114 0.950 . S
H2105 C2116 0.950 . S
H2106 C2118 0.950 . S
H2107 C2119 0.950 . S
C2108 H2100 0.950 . S
C2108 C2109 1.386 . S
C2108 C2110 1.391 1_455 S
C2109 C2108 1.386 . S
C2109 C2113 1.393 1_455 S
C2110 H2102 0.950 1_655 S
C2110 C2108 1.391 1_655 S
C2110 C2111 1.400 . S
C2111 C2110 1.400 . S
C2111 C2112 1.398 . S
C2111 C2117 1.491 . S
C2112 H2103 0.950 . S
C2112 C2111 1.398 . S
C2112 C2113 1.391 . S
C2113 H2101 0.950 . S
C2113 C2109 1.393 1_655 S
C2113 C2112 1.391 . S
C2114 H2104 0.950 . S
C2114 C2115 1.386 . S
C2114 C2116 1.391 . S
C2115 C2114 1.386 . S
C2115 C2119 1.393 . S
C2116 H2105 0.950 . S
C2116 C2114 1.391 . S
C2116 C2117 1.400 . S
C2117 C2111 1.491 . S
C2117 C2116 1.400 . S
C2117 C2118 1.398 . S
C2118 H2106 0.950 . S
C2118 C2117 1.398 . S
C2118 C2119 1.391 . S
C2119 H2107 0.950 . S
C2119 C2115 1.393 . S
C2119 C2118 1.391 . S
H2120 C2128 0.950 . S
H2121 C2133 0.950 . S
H2122 C2130 0.950 . S
H2123 C2132 0.950 . S
H2124 C2134 0.950 . S
H2125 C2136 0.950 . S
H2126 C2138 0.950 . S
H2127 C2139 0.950 . S
C2128 H2120 0.950 . S
C2128 C2129 1.386 . S
C2128 C2130 1.391 . S
C2129 C2128 1.386 . S
C2129 C2133 1.393 . S
C2130 H2122 0.950 . S
C2130 C2128 1.391 . S
C2130 C2131 1.400 . S
C2131 C2130 1.400 . S
C2131 C2132 1.398 . S
C2131 C2137 1.491 . S
C2132 H2123 0.950 . S
C2132 C2131 1.398 . S
C2132 C2133 1.391 . S
C2133 H2121 0.950 . S
C2133 C2129 1.393 . S
C2133 C2132 1.391 . S
C2134 H2124 0.950 . S
C2134 C2135 1.386 . S
C2134 C2136 1.391 . S
C2135 C2134 1.386 . S
C2135 C2139 1.393 . S
C2136 H2125 0.950 . S
C2136 C2134 1.391 . S
C2136 C2137 1.400 . S
C2137 C2131 1.491 . S
C2137 C2136 1.400 . S
C2137 C2138 1.398 . S
C2138 H2126 0.950 . S
C2138 C2137 1.398 . S
C2138 C2139 1.391 . S
C2139 H2127 0.950 . S
C2139 C2135 1.393 . S
C2139 C2138 1.391 . S
H2140 C2148 0.950 . S
H2141 C2153 0.950 . S
H2142 C2150 0.950 . S
H2143 C2152 0.950 . S
H2144 C2154 0.950 . S
H2145 C2156 0.950 . S
H2146 C2158 0.950 . S
H2147 C2159 0.950 . S
C2148 H2140 0.950 . S
C2148 C2149 1.386 . S
C2148 C2150 1.391 . S
C2149 C2148 1.386 . S
C2149 C2153 1.393 . S
C2150 H2142 0.950 . S
C2150 C2148 1.391 . S
C2150 C2151 1.400 . S
C2151 C2150 1.400 . S
C2151 C2152 1.398 . S
C2151 C2157 1.491 . S
C2152 H2143 0.950 . S
C2152 C2151 1.398 . S
C2152 C2153 1.391 . S
C2153 H2141 0.950 . S
C2153 C2149 1.393 . S
C2153 C2152 1.391 . S
C2154 H2144 0.950 . S
C2154 C2155 1.386 . S
C2154 C2156 1.391 . S
C2155 C2154 1.386 . S
C2155 C2159 1.393 1_565 S
C2156 H2145 0.950 . S
C2156 C2154 1.391 . S
C2156 C2157 1.400 1_565 S
C2157 C2151 1.491 . S
C2157 C2156 1.400 1_545 S
C2157 C2158 1.398 . S
C2158 H2146 0.950 . S
C2158 C2157 1.398 . S
C2158 C2159 1.391 . S
C2159 H2147 0.950 . S
C2159 C2155 1.393 1_545 S
C2159 C2158 1.391 . S
H2160 C2168 0.950 . S
H2161 C2173 0.950 . S
H2162 C2170 0.950 . S
H2163 C2172 0.950 . S
H2164 C2174 0.950 . S
H2165 C2176 0.950 . S
H2166 C2178 0.950 . S
H2167 C2179 0.950 . S
C2168 H2160 0.950 . S
C2168 C2169 1.386 . S
C2168 C2170 1.391 . S
C2169 C2168 1.386 . S
C2169 C2173 1.393 . S
C2170 H2162 0.950 . S
C2170 C2168 1.391 . S
C2170 C2171 1.400 . S
C2171 C2170 1.400 . S
C2171 C2172 1.398 . S
C2171 C2177 1.491 . S
C2172 H2163 0.950 . S
C2172 C2171 1.398 . S
C2172 C2173 1.391 . S
C2173 H2161 0.950 . S
C2173 C2169 1.393 . S
C2173 C2172 1.391 . S
C2174 H2164 0.950 . S
C2174 C2175 1.386 . S
C2174 C2176 1.391 . S
C2175 C2174 1.386 . S
C2175 C2179 1.393 . S
C2176 H2165 0.950 . S
C2176 C2174 1.391 . S
C2176 C2177 1.400 . S
C2177 C2171 1.491 . S
C2177 C2176 1.400 . S
C2177 C2178 1.398 . S
C2178 H2166 0.950 . S
C2178 C2177 1.398 . S
C2178 C2179 1.391 . S
C2179 H2167 0.950 . S
C2179 C2175 1.393 . S
C2179 C2178 1.391 . S
H2180 C2188 0.950 . S
H2181 C2193 0.950 . S
H2182 C2190 0.950 . S
H2183 C2192 0.950 . S
H2184 C2194 0.950 . S
H2185 C2196 0.950 . S
H2186 C2198 0.950 . S
H2187 C2199 0.950 . S
C2188 H2180 0.950 . S
C2188 C2189 1.386 . S
C2188 C2190 1.391 . S
C2189 C2188 1.386 . S
C2189 C2193 1.393 . S
C2190 H2182 0.950 . S
C2190 C2188 1.391 . S
C2190 C2191 1.400 . S
C2191 C2190 1.400 . S
C2191 C2192 1.398 . S
C2191 C2197 1.491 . S
C2192 H2183 0.950 . S
C2192 C2191 1.398 . S
C2192 C2193 1.391 . S
C2193 H2181 0.950 . S
C2193 C2189 1.393 . S
C2193 C2192 1.391 . S
C2194 H2184 0.950 . S
C2194 C2195 1.386 . S
C2194 C2196 1.391 . S
C2195 C2194 1.386 . S
C2195 C2199 1.393 . S
C2196 H2185 0.950 . S
C2196 C2194 1.391 . S
C2196 C2197 1.400 . S
C2197 C2191 1.491 . S
C2197 C2196 1.400 . S
C2197 C2198 1.398 . S
C2198 H2186 0.950 . S
C2198 C2197 1.398 . S
C2198 C2199 1.391 . S
C2199 H2187 0.950 . S
C2199 C2195 1.393 . S
C2199 C2198 1.391 . S
H2200 C2208 0.950 . S
H2201 C2213 0.950 . S
H2202 C2210 0.950 . S
H2203 C2212 0.950 . S
H2204 C2214 0.950 . S
H2205 C2216 0.950 . S
H2206 C2218 0.950 . S
H2207 C2219 0.950 . S
C2208 H2200 0.950 . S
C2208 C2209 1.386 . S
C2208 C2210 1.391 . S
C2209 C2208 1.386 . S
C2209 C2213 1.393 . S
C2210 H2202 0.950 . S
C2210 C2208 1.391 . S
C2210 C2211 1.400 . S
C2211 C2210 1.400 . S
C2211 C2212 1.398 . S
C2211 C2217 1.491 . S
C2212 H2203 0.950 . S
C2212 C2211 1.398 . S
C2212 C2213 1.391 . S
C2213 H2201 0.950 . S
C2213 C2209 1.393 . S
C2213 C2212 1.391 . S
C2214 H2204 0.950 . S
C2214 C2215 1.386 . S
C2214 C2216 1.391 . S
C2215 C2214 1.386 . S
C2215 C2219 1.393 . S
C2216 H2205 0.950 . S
C2216 C2214 1.391 . S
C2216 C2217 1.400 . S
C2217 C2211 1.491 . S
C2217 C2216 1.400 . S
C2217 C2218 1.398 . S
C2218 H2206 0.950 . S
C2218 C2217 1.398 . S
C2218 C2219 1.391 . S
C2219 H2207 0.950 . S
C2219 C2215 1.393 . S
C2219 C2218 1.391 . S
H2220 C2228 0.950 . S
H2221 C2233 0.950 . S
H2222 C2230 0.950 . S
H2223 C2232 0.950 . S
H2224 C2234 0.950 . S
H2225 C2236 0.950 . S
H2226 C2238 0.950 . S
H2227 C2239 0.950 . S
C2228 H2220 0.950 . S
C2228 C2229 1.386 . S
C2228 C2230 1.391 . S
C2229 C2228 1.386 . S
C2229 C2233 1.393 . S
C2230 H2222 0.950 . S
C2230 C2228 1.391 . S
C2230 C2231 1.400 . S
C2231 C2230 1.400 . S
C2231 C2232 1.398 . S
C2231 C2237 1.491 . S
C2232 H2223 0.950 . S
C2232 C2231 1.398 . S
C2232 C2233 1.391 . S
C2233 H2221 0.950 . S
C2233 C2229 1.393 . S
C2233 C2232 1.391 . S
C2234 H2224 0.950 . S
C2234 C2235 1.386 . S
C2234 C2236 1.391 . S
C2235 C2234 1.386 . S
C2235 C2239 1.393 . S
C2236 H2225 0.950 . S
C2236 C2234 1.391 . S
C2236 C2237 1.400 . S
C2237 C2231 1.491 . S
C2237 C2236 1.400 . S
C2237 C2238 1.398 . S
C2238 H2226 0.950 . S
C2238 C2237 1.398 . S
C2238 C2239 1.391 . S
C2239 H2227 0.950 . S
C2239 C2235 1.393 . S
C2239 C2238 1.391 . S
H2240 C2248 0.950 . S
H2241 C2253 0.950 . S
H2242 C2250 0.950 . S
H2243 C2252 0.950 . S
H2244 C2254 0.950 . S
H2245 C2256 0.950 . S
H2246 C2258 0.950 . S
H2247 C2259 0.950 . S
C2248 H2240 0.950 . S
C2248 C2249 1.386 . S
C2248 C2250 1.391 . S
C2249 C2248 1.386 . S
C2249 C2253 1.393 . S
C2250 H2242 0.950 . S
C2250 C2248 1.391 . S
C2250 C2251 1.400 . S
C2251 C2250 1.400 . S
C2251 C2252 1.398 . S
C2251 C2257 1.491 . S
C2252 H2243 0.950 . S
C2252 C2251 1.398 . S
C2252 C2253 1.391 . S
C2253 H2241 0.950 . S
C2253 C2249 1.393 . S
C2253 C2252 1.391 . S
C2254 H2244 0.950 . S
C2254 C2255 1.386 . S
C2254 C2256 1.391 . S
C2255 C2254 1.386 . S
C2255 C2259 1.393 . S
C2256 H2245 0.950 . S
C2256 C2254 1.391 . S
C2256 C2257 1.400 . S
C2257 C2251 1.491 . S
C2257 C2256 1.400 . S
C2257 C2258 1.398 . S
C2258 H2246 0.950 . S
C2258 C2257 1.398 . S
C2258 C2259 1.391 . S
C2259 H2247 0.950 . S
C2259 C2255 1.393 . S
C2259 C2258 1.391 . S
H2260 C2268 0.950 . S
H2261 C2273 0.950 . S
H2262 C2270 0.950 . S
H2263 C2272 0.950 . S
H2264 C2274 0.950 . S
H2265 C2276 0.950 . S
H2266 C2278 0.950 . S
H2267 C2279 0.950 . S
C2268 H2260 0.950 . S
C2268 C2269 1.386 . S
C2268 C2270 1.391 . S
C2269 C2268 1.386 . S
C2269 C2273 1.393 . S
C2270 H2262 0.950 . S
C2270 C2268 1.391 . S
C2270 C2271 1.400 . S
C2271 C2270 1.400 . S
C2271 C2272 1.398 . S
C2271 C2277 1.491 . S
C2272 H2263 0.950 . S
C2272 C2271 1.398 . S
C2272 C2273 1.391 . S
C2273 H2261 0.950 . S
C2273 C2269 1.393 . S
C2273 C2272 1.391 . S
C2274 H2264 0.950 . S
C2274 C2275 1.386 . S
C2274 C2276 1.391 . S
C2275 C2274 1.386 . S
C2275 C2279 1.393 . S
C2276 H2265 0.950 . S
C2276 C2274 1.391 . S
C2276 C2277 1.400 . S
C2277 C2271 1.491 . S
C2277 C2276 1.400 . S
C2277 C2278 1.398 . S
C2278 H2266 0.950 . S
C2278 C2277 1.398 . S
C2278 C2279 1.391 . S
C2279 H2267 0.950 . S
C2279 C2275 1.393 . S
C2279 C2278 1.391 . S
H2280 C2288 0.950 . S
H2281 C2293 0.950 . S
H2282 C2290 0.950 . S
H2283 C2292 0.950 . S
H2284 C2294 0.950 . S
H2285 C2296 0.950 . S
H2286 C2298 0.950 . S
H2287 C2299 0.950 . S
C2288 H2280 0.950 . S
C2288 C2289 1.386 . S
C2288 C2290 1.391 . S
C2289 C2288 1.386 . S
C2289 C2293 1.393 . S
C2290 H2282 0.950 . S
C2290 C2288 1.391 . S
C2290 C2291 1.400 . S
C2291 C2290 1.400 . S
C2291 C2292 1.398 . S
C2291 C2297 1.491 . S
C2292 H2283 0.950 . S
C2292 C2291 1.398 . S
C2292 C2293 1.391 . S
C2293 H2281 0.950 . S
C2293 C2289 1.393 . S
C2293 C2292 1.391 . S
C2294 H2284 0.950 . S
C2294 C2295 1.386 . S
C2294 C2296 1.391 . S
C2295 C2294 1.386 . S
C2295 C2299 1.393 . S
C2296 H2285 0.950 . S
C2296 C2294 1.391 . S
C2296 C2297 1.400 . S
C2297 C2291 1.491 . S
C2297 C2296 1.400 . S
C2297 C2298 1.398 . S
C2298 H2286 0.950 . S
C2298 C2297 1.398 . S
C2298 C2299 1.391 . S
C2299 H2287 0.950 . S
C2299 C2295 1.393 . S
C2299 C2298 1.391 . S
H2300 C2308 0.950 . S
H2301 C2313 0.950 . S
H2302 C2310 0.950 . S
H2303 C2312 0.950 . S
H2304 C2314 0.950 . S
H2305 C2316 0.950 . S
H2306 C2318 0.950 . S
H2307 C2319 0.950 . S
C2308 H2300 0.950 . S
C2308 C2309 1.386 . S
C2308 C2310 1.391 . S
C2309 C2308 1.386 . S
C2309 C2313 1.393 . S
C2310 H2302 0.950 . S
C2310 C2308 1.391 . S
C2310 C2311 1.400 . S
C2311 C2310 1.400 . S
C2311 C2312 1.398 . S
C2311 C2317 1.491 . S
C2312 H2303 0.950 . S
C2312 C2311 1.398 . S
C2312 C2313 1.391 . S
C2313 H2301 0.950 . S
C2313 C2309 1.393 . S
C2313 C2312 1.391 . S
C2314 H2304 0.950 . S
C2314 C2315 1.386 . S
C2314 C2316 1.391 . S
C2315 C2314 1.386 . S
C2315 C2319 1.393 . S
C2316 H2305 0.950 . S
C2316 C2314 1.391 . S
C2316 C2317 1.400 . S
C2317 C2311 1.491 . S
C2317 C2316 1.400 . S
C2317 C2318 1.398 . S
C2318 H2306 0.950 . S
C2318 C2317 1.398 . S
C2318 C2319 1.391 . S
C2319 H2307 0.950 . S
C2319 C2315 1.393 . S
C2319 C2318 1.391 . S
H2320 C2328 0.950 . S
H2321 C2333 0.950 . S
H2322 C2330 0.950 . S
H2323 C2332 0.950 . S
H2324 C2334 0.950 . S
H2325 C2336 0.950 . S
H2326 C2338 0.950 . S
H2327 C2339 0.950 . S
C2328 H2320 0.950 . S
C2328 C2329 1.386 . S
C2328 C2330 1.391 . S
C2329 C2328 1.386 . S
C2329 C2333 1.393 . S
C2330 H2322 0.950 . S
C2330 C2328 1.391 . S
C2330 C2331 1.400 . S
C2331 C2330 1.400 . S
C2331 C2332 1.398 . S
C2331 C2337 1.491 . S
C2332 H2323 0.950 . S
C2332 C2331 1.398 . S
C2332 C2333 1.391 . S
C2333 H2321 0.950 . S
C2333 C2329 1.393 . S
C2333 C2332 1.391 . S
C2334 H2324 0.950 . S
C2334 C2335 1.386 . S
C2334 C2336 1.391 . S
C2335 C2334 1.386 . S
C2335 C2339 1.393 . S
C2336 H2325 0.950 . S
C2336 C2334 1.391 . S
C2336 C2337 1.400 . S
C2337 C2331 1.491 . S
C2337 C2336 1.400 . S
C2337 C2338 1.398 . S
C2338 H2326 0.950 . S
C2338 C2337 1.398 . S
C2338 C2339 1.391 . S
C2339 H2327 0.950 . S
C2339 C2335 1.393 . S
C2339 C2338 1.391 . S
H2340 C2348 0.950 . S
H2341 C2353 0.950 . S
H2342 C2350 0.950 . S
H2343 C2352 0.950 . S
H2344 C2354 0.950 . S
H2345 C2356 0.950 . S
H2346 C2358 0.950 . S
H2347 C2359 0.950 . S
C2348 H2340 0.950 . S
C2348 C2349 1.386 . S
C2348 C2350 1.391 . S
C2349 C2348 1.386 . S
C2349 C2353 1.393 . S
C2350 H2342 0.950 . S
C2350 C2348 1.391 . S
C2350 C2351 1.400 . S
C2351 C2350 1.400 . S
C2351 C2352 1.398 . S
C2351 C2357 1.491 . S
C2352 H2343 0.950 . S
C2352 C2351 1.398 . S
C2352 C2353 1.391 . S
C2353 H2341 0.950 . S
C2353 C2349 1.393 . S
C2353 C2352 1.391 . S
C2354 H2344 0.950 . S
C2354 C2355 1.386 . S
C2354 C2356 1.391 . S
C2355 C2354 1.386 . S
C2355 C2359 1.393 . S
C2356 H2345 0.950 . S
C2356 C2354 1.391 . S
C2356 C2357 1.400 . S
C2357 C2351 1.491 . S
C2357 C2356 1.400 . S
C2357 C2358 1.398 . S
C2358 H2346 0.950 . S
C2358 C2357 1.398 . S
C2358 C2359 1.391 . S
C2359 H2347 0.950 . S
C2359 C2355 1.393 . S
C2359 C2358 1.391 . S
H2360 C2368 0.950 . S
H2361 C2373 0.950 . S
H2362 C2370 0.950 . S
H2363 C2372 0.950 . S
H2364 C2374 0.950 . S
H2365 C2376 0.950 . S
H2366 C2378 0.950 . S
H2367 C2379 0.950 . S
C2368 H2360 0.950 . S
C2368 C2369 1.386 . S
C2368 C2370 1.391 . S
C2369 C2368 1.386 . S
C2369 C2373 1.393 . S
C2370 H2362 0.950 . S
C2370 C2368 1.391 . S
C2370 C2371 1.400 . S
C2371 C2370 1.400 . S
C2371 C2372 1.398 . S
C2371 C2377 1.491 . S
C2372 H2363 0.950 . S
C2372 C2371 1.398 . S
C2372 C2373 1.391 . S
C2373 H2361 0.950 . S
C2373 C2369 1.393 . S
C2373 C2372 1.391 . S
C2374 H2364 0.950 . S
C2374 C2375 1.386 . S
C2374 C2376 1.391 . S
C2375 C2374 1.386 . S
C2375 C2379 1.393 . S
C2376 H2365 0.950 . S
C2376 C2374 1.391 . S
C2376 C2377 1.400 . S
C2377 C2371 1.491 . S
C2377 C2376 1.400 . S
C2377 C2378 1.398 . S
C2378 H2366 0.950 . S
C2378 C2377 1.398 . S
C2378 C2379 1.391 . S
C2379 H2367 0.950 . S
C2379 C2375 1.393 . S
C2379 C2378 1.391 . S
H2380 C2388 0.950 . S
H2381 C2393 0.950 . S
H2382 C2390 0.950 . S
H2383 C2392 0.950 . S
H2384 C2394 0.950 . S
H2385 C2396 0.950 . S
H2386 C2398 0.950 . S
H2387 C2399 0.950 . S
C2388 H2380 0.950 . S
C2388 C2389 1.386 . S
C2388 C2390 1.391 . S
C2389 C2388 1.386 . S
C2389 C2393 1.393 . S
C2390 H2382 0.950 . S
C2390 C2388 1.391 . S
C2390 C2391 1.400 . S
C2391 C2390 1.400 . S
C2391 C2392 1.398 . S
C2391 C2397 1.491 . S
C2392 H2383 0.950 . S
C2392 C2391 1.398 . S
C2392 C2393 1.391 . S
C2393 H2381 0.950 . S
C2393 C2389 1.393 . S
C2393 C2392 1.391 . S
C2394 H2384 0.950 . S
C2394 C2395 1.386 . S
C2394 C2396 1.391 . S
C2395 C2394 1.386 . S
C2395 C2399 1.393 . S
C2396 H2385 0.950 . S
C2396 C2394 1.391 . S
C2396 C2397 1.400 . S
C2397 C2391 1.491 . S
C2397 C2396 1.400 . S
C2397 C2398 1.398 . S
C2398 H2386 0.950 . S
C2398 C2397 1.398 . S
C2398 C2399 1.391 . S
C2399 H2387 0.950 . S
C2399 C2395 1.393 . S
C2399 C2398 1.391 . S
H2400 C2408 0.950 . S
H2401 C2413 0.950 . S
H2402 C2410 0.950 . S
H2403 C2412 0.950 . S
H2404 C2414 0.950 1_655 S
H2405 C2416 0.950 . S
H2406 C2418 0.950 . S
H2407 C2419 0.950 . S
C2408 H2400 0.950 . S
C2408 C2409 1.386 1_455 S
C2408 C2410 1.391 . S
C2409 C2408 1.386 1_655 S
C2409 C2413 1.393 . S
C2410 H2402 0.950 . S
C2410 C2408 1.391 . S
C2410 C2411 1.400 1_455 S
C2411 C2410 1.400 1_655 S
C2411 C2412 1.398 . S
C2411 C2417 1.491 1_655 S
C2412 H2403 0.950 . S
C2412 C2411 1.398 . S
C2412 C2413 1.391 . S
C2413 H2401 0.950 . S
C2413 C2409 1.393 . S
C2413 C2412 1.391 . S
C2414 H2404 0.950 1_455 S
C2414 C2415 1.386 . S
C2414 C2416 1.391 1_455 S
C2415 C2414 1.386 . S
C2415 C2419 1.393 . S
C2416 H2405 0.950 . S
C2416 C2414 1.391 1_655 S
C2416 C2417 1.400 1_655 S
C2417 C2411 1.491 1_455 S
C2417 C2416 1.400 1_455 S
C2417 C2418 1.398 . S
C2418 H2406 0.950 . S
C2418 C2417 1.398 . S
C2418 C2419 1.391 . S
C2419 H2407 0.950 . S
C2419 C2415 1.393 . S
C2419 C2418 1.391 . S
H2420 C2428 0.950 . S
H2421 C2433 0.950 . S
H2422 C2430 0.950 . S
H2423 C2432 0.950 . S
H2424 C2434 0.950 . S
H2425 C2436 0.950 . S
H2426 C2438 0.950 . S
H2427 C2439 0.950 . S
C2428 H2420 0.950 . S
C2428 C2429 1.386 . S
C2428 C2430 1.391 . S
C2429 C2428 1.386 . S
C2429 C2433 1.393 . S
C2430 H2422 0.950 . S
C2430 C2428 1.391 . S
C2430 C2431 1.400 . S
C2431 C2430 1.400 . S
C2431 C2432 1.398 . S
C2431 C2437 1.491 . S
C2432 H2423 0.950 . S
C2432 C2431 1.398 . S
C2432 C2433 1.391 . S
C2433 H2421 0.950 . S
C2433 C2429 1.393 . S
C2433 C2432 1.391 . S
C2434 H2424 0.950 . S
C2434 C2435 1.386 . S
C2434 C2436 1.391 . S
C2435 C2434 1.386 . S
C2435 C2439 1.393 . S
C2436 H2425 0.950 . S
C2436 C2434 1.391 . S
C2436 C2437 1.400 . S
C2437 C2431 1.491 . S
C2437 C2436 1.400 . S
C2437 C2438 1.398 . S
C2438 H2426 0.950 . S
C2438 C2437 1.398 . S
C2438 C2439 1.391 . S
C2439 H2427 0.950 . S
C2439 C2435 1.393 . S
C2439 C2438 1.391 . S
H2440 C2448 0.950 . S
H2441 C2453 0.950 . S
H2442 C2450 0.950 . S
H2443 C2452 0.950 . S
H2444 C2454 0.950 . S
H2445 C2456 0.950 . S
H2446 C2458 0.950 . S
H2447 C2459 0.950 . S
C2448 H2440 0.950 . S
C2448 C2449 1.386 . S
C2448 C2450 1.391 . S
C2449 C2448 1.386 . S
C2449 C2453 1.393 1_545 S
C2450 H2442 0.950 . S
C2450 C2448 1.391 . S
C2450 C2451 1.400 . S
C2451 C2450 1.400 . S
C2451 C2452 1.398 1_545 S
C2451 C2457 1.491 1_545 S
C2452 H2443 0.950 . S
C2452 C2451 1.398 1_565 S
C2452 C2453 1.391 . S
C2453 H2441 0.950 . S
C2453 C2449 1.393 1_565 S
C2453 C2452 1.391 . S
C2454 H2444 0.950 . S
C2454 C2455 1.386 . S
C2454 C2456 1.391 . S
C2455 C2454 1.386 . S
C2455 C2459 1.393 1_565 S
C2456 H2445 0.950 . S
C2456 C2454 1.391 . S
C2456 C2457 1.400 . S
C2457 C2451 1.491 1_565 S
C2457 C2456 1.400 . S
C2457 C2458 1.398 1_565 S
C2458 H2446 0.950 . S
C2458 C2457 1.398 1_545 S
C2458 C2459 1.391 . S
C2459 H2447 0.950 . S
C2459 C2455 1.393 1_545 S
C2459 C2458 1.391 . S
H2460 C2468 0.950 1_565 S
H2461 C2473 0.950 . S
H2462 C2470 0.950 . S
H2463 C2472 0.950 . S
H2464 C2474 0.950 1_545 S
H2465 C2476 0.950 . S
H2466 C2478 0.950 . S
H2467 C2479 0.950 . S
C2468 H2460 0.950 1_545 S
C2468 C2469 1.386 . S
C2468 C2470 1.391 1_545 S
C2469 C2468 1.386 . S
C2469 C2473 1.393 . S
C2470 H2462 0.950 . S
C2470 C2468 1.391 1_565 S
C2470 C2471 1.400 1_565 S
C2471 C2470 1.400 1_545 S
C2471 C2472 1.398 . S
C2471 C2477 1.491 1_545 S
C2472 H2463 0.950 . S
C2472 C2471 1.398 . S
C2472 C2473 1.391 . S
C2473 H2461 0.950 . S
C2473 C2469 1.393 . S
C2473 C2472 1.391 . S
C2474 H2464 0.950 1_565 S
C2474 C2475 1.386 . S
C2474 C2476 1.391 1_565 S
C2475 C2474 1.386 . S
C2475 C2479 1.393 . S
C2476 H2465 0.950 . S
C2476 C2474 1.391 1_545 S
C2476 C2477 1.400 1_545 S
C2477 C2471 1.491 1_565 S
C2477 C2476 1.400 1_565 S
C2477 C2478 1.398 . S
C2478 H2466 0.950 . S
C2478 C2477 1.398 . S
C2478 C2479 1.391 . S
C2479 H2467 0.950 . S
C2479 C2475 1.393 . S
C2479 C2478 1.391 . S
H2480 C2488 0.950 . S
H2481 C2493 0.950 . S
H2482 C2490 0.950 . S
H2483 C2492 0.950 . S
H2484 C2494 0.950 . S
H2485 C2496 0.950 . S
H2486 C2498 0.950 . S
H2487 C2499 0.950 . S
C2488 H2480 0.950 . S
C2488 C2489 1.386 1_655 S
C2488 C2490 1.391 . S
C2489 C2488 1.386 1_455 S
C2489 C2493 1.393 . S
C2490 H2482 0.950 . S
C2490 C2488 1.391 . S
C2490 C2491 1.400 1_655 S
C2491 C2490 1.400 1_455 S
C2491 C2492 1.398 . S
C2491 C2497 1.491 1_455 S
C2492 H2483 0.950 . S
C2492 C2491 1.398 . S
C2492 C2493 1.391 . S
C2493 H2481 0.950 . S
C2493 C2489 1.393 . S
C2493 C2492 1.391 . S
C2494 H2484 0.950 . S
C2494 C2495 1.386 1_455 S
C2494 C2496 1.391 . S
C2495 C2494 1.386 1_655 S
C2495 C2499 1.393 . S
C2496 H2485 0.950 . S
C2496 C2494 1.391 . S
C2496 C2497 1.400 1_455 S
C2497 C2491 1.491 1_655 S
C2497 C2496 1.400 1_655 S
C2497 C2498 1.398 . S
C2498 H2486 0.950 . S
C2498 C2497 1.398 . S
C2498 C2499 1.391 . S
C2499 H2487 0.950 . S
C2499 C2495 1.393 . S
C2499 C2498 1.391 . S
H2500 C2508 0.950 . S
H2501 C2513 0.950 . S
H2502 C2510 0.950 . S
H2503 C2512 0.950 . S
H2504 C2514 0.950 . S
H2505 C2516 0.950 . S
H2506 C2518 0.950 . S
H2507 C2519 0.950 . S
C2508 H2500 0.950 . S
C2508 C2509 1.386 . S
C2508 C2510 1.391 . S
C2509 C2508 1.386 . S
C2509 C2513 1.393 . S
C2510 H2502 0.950 . S
C2510 C2508 1.391 . S
C2510 C2511 1.400 . S
C2511 C2510 1.400 . S
C2511 C2512 1.398 . S
C2511 C2517 1.491 . S
C2512 H2503 0.950 . S
C2512 C2511 1.398 . S
C2512 C2513 1.391 . S
C2513 H2501 0.950 . S
C2513 C2509 1.393 . S
C2513 C2512 1.391 . S
C2514 H2504 0.950 . S
C2514 C2515 1.386 . S
C2514 C2516 1.391 . S
C2515 C2514 1.386 . S
C2515 C2519 1.393 . S
C2516 H2505 0.950 . S
C2516 C2514 1.391 . S
C2516 C2517 1.400 . S
C2517 C2511 1.491 . S
C2517 C2516 1.400 . S
C2517 C2518 1.398 . S
C2518 H2506 0.950 . S
C2518 C2517 1.398 . S
C2518 C2519 1.391 . S
C2519 H2507 0.950 . S
C2519 C2515 1.393 . S
C2519 C2518 1.391 . S
H2520 C2528 0.950 . S
H2521 C2533 0.950 . S
H2522 C2530 0.950 . S
H2523 C2532 0.950 . S
H2524 C2534 0.950 . S
H2525 C2536 0.950 . S
H2526 C2538 0.950 . S
H2527 C2539 0.950 . S
C2528 H2520 0.950 . S
C2528 C2529 1.386 . S
C2528 C2530 1.391 . S
C2529 C2528 1.386 . S
C2529 C2533 1.393 . S
C2530 H2522 0.950 . S
C2530 C2528 1.391 . S
C2530 C2531 1.400 . S
C2531 C2530 1.400 . S
C2531 C2532 1.398 . S
C2531 C2537 1.491 1_655 S
C2532 H2523 0.950 . S
C2532 C2531 1.398 . S
C2532 C2533 1.391 . S
C2533 H2521 0.950 . S
C2533 C2529 1.393 . S
C2533 C2532 1.391 . S
C2534 H2524 0.950 . S
C2534 C2535 1.386 . S
C2534 C2536 1.391 . S
C2535 C2534 1.386 . S
C2535 C2539 1.393 . S
C2536 H2525 0.950 . S
C2536 C2534 1.391 . S
C2536 C2537 1.400 . S
C2537 C2531 1.491 1_455 S
C2537 C2536 1.400 . S
C2537 C2538 1.398 . S
C2538 H2526 0.950 . S
C2538 C2537 1.398 . S
C2538 C2539 1.391 . S
C2539 H2527 0.950 . S
C2539 C2535 1.393 . S
C2539 C2538 1.391 . S
H2540 C2548 0.950 . S
H2541 C2553 0.950 . S
H2542 C2550 0.950 . S
H2543 C2552 0.950 . S
H2544 C2554 0.950 . S
H2545 C2556 0.950 . S
H2546 C2558 0.950 . S
H2547 C2559 0.950 . S
C2548 H2540 0.950 . S
C2548 C2549 1.386 . S
C2548 C2550 1.391 . S
C2549 C2548 1.386 . S
C2549 C2553 1.393 . S
C2550 H2542 0.950 . S
C2550 C2548 1.391 . S
C2550 C2551 1.400 . S
C2551 C2550 1.400 . S
C2551 C2552 1.398 . S
C2551 C2557 1.491 . S
C2552 H2543 0.950 . S
C2552 C2551 1.398 . S
C2552 C2553 1.391 . S
C2553 H2541 0.950 . S
C2553 C2549 1.393 . S
C2553 C2552 1.391 . S
C2554 H2544 0.950 . S
C2554 C2555 1.386 . S
C2554 C2556 1.391 . S
C2555 C2554 1.386 . S
C2555 C2559 1.393 . S
C2556 H2545 0.950 . S
C2556 C2554 1.391 . S
C2556 C2557 1.400 . S
C2557 C2551 1.491 . S
C2557 C2556 1.400 . S
C2557 C2558 1.398 . S
C2558 H2546 0.950 . S
C2558 C2557 1.398 . S
C2558 C2559 1.391 . S
C2559 H2547 0.950 . S
C2559 C2555 1.393 . S
C2559 C2558 1.391 . S
H2560 C2568 0.950 . S
H2561 C2573 0.950 . S
H2562 C2570 0.950 . S
H2563 C2572 0.950 . S
H2564 C2574 0.950 . S
H2565 C2576 0.950 . S
H2566 C2578 0.950 . S
H2567 C2579 0.950 . S
C2568 H2560 0.950 . S
C2568 C2569 1.386 . S
C2568 C2570 1.391 . S
C2569 C2568 1.386 . S
C2569 C2573 1.393 . S
C2570 H2562 0.950 . S
C2570 C2568 1.391 . S
C2570 C2571 1.400 . S
C2571 C2570 1.400 . S
C2571 C2572 1.398 . S
C2571 C2577 1.491 1_545 S
C2572 H2563 0.950 . S
C2572 C2571 1.398 . S
C2572 C2573 1.391 . S
C2573 H2561 0.950 . S
C2573 C2569 1.393 . S
C2573 C2572 1.391 . S
C2574 H2564 0.950 . S
C2574 C2575 1.386 . S
C2574 C2576 1.391 . S
C2575 C2574 1.386 . S
C2575 C2579 1.393 . S
C2576 H2565 0.950 . S
C2576 C2574 1.391 . S
C2576 C2577 1.400 . S
C2577 C2571 1.491 1_565 S
C2577 C2576 1.400 . S
C2577 C2578 1.398 . S
C2578 H2566 0.950 . S
C2578 C2577 1.398 . S
C2578 C2579 1.391 . S
C2579 H2567 0.950 . S
C2579 C2575 1.393 . S
C2579 C2578 1.391 . S
H2580 C2588 0.950 . S
H2581 C2593 0.950 . S
H2582 C2590 0.950 . S
H2583 C2592 0.950 . S
H2584 C2594 0.950 . S
H2585 C2596 0.950 . S
H2586 C2598 0.950 . S
H2587 C2599 0.950 . S
C2588 H2580 0.950 . S
C2588 C2589 1.386 . S
C2588 C2590 1.391 . S
C2589 C2588 1.386 . S
C2589 C2593 1.393 . S
C2590 H2582 0.950 . S
C2590 C2588 1.391 . S
C2590 C2591 1.400 . S
C2591 C2590 1.400 . S
C2591 C2592 1.398 1_655 S
C2591 C2597 1.491 1_655 S
C2592 H2583 0.950 . S
C2592 C2591 1.398 1_455 S
C2592 C2593 1.391 1_455 S
C2593 H2581 0.950 . S
C2593 C2589 1.393 . S
C2593 C2592 1.391 1_655 S
C2594 H2584 0.950 . S
C2594 C2595 1.386 . S
C2594 C2596 1.391 . S
C2595 C2594 1.386 . S
C2595 C2599 1.393 . S
C2596 H2585 0.950 . S
C2596 C2594 1.391 . S
C2596 C2597 1.400 . S
C2597 C2591 1.491 1_455 S
C2597 C2596 1.400 . S
C2597 C2598 1.398 1_455 S
C2598 H2586 0.950 . S
C2598 C2597 1.398 1_655 S
C2598 C2599 1.391 1_655 S
C2599 H2587 0.950 . S
C2599 C2595 1.393 . S
C2599 C2598 1.391 1_455 S
H2600 C2608 0.950 . S
H2601 C2613 0.950 . S
H2602 C2610 0.950 . S
H2603 C2612 0.950 . S
H2604 C2614 0.950 . S
H2605 C2616 0.950 . S
H2606 C2618 0.950 . S
H2607 C2619 0.950 . S
C2608 H2600 0.950 . S
C2608 C2609 1.386 . S
C2608 C2610 1.391 . S
C2609 C2608 1.386 . S
C2609 C2613 1.393 . S
C2610 H2602 0.950 . S
C2610 C2608 1.391 . S
C2610 C2611 1.400 . S
C2611 C2610 1.400 . S
C2611 C2612 1.398 . S
C2611 C2617 1.491 . S
C2612 H2603 0.950 . S
C2612 C2611 1.398 . S
C2612 C2613 1.391 . S
C2613 H2601 0.950 . S
C2613 C2609 1.393 . S
C2613 C2612 1.391 . S
C2614 H2604 0.950 . S
C2614 C2615 1.386 . S
C2614 C2616 1.391 . S
C2615 C2614 1.386 . S
C2615 C2619 1.393 . S
C2616 H2605 0.950 . S
C2616 C2614 1.391 . S
C2616 C2617 1.400 . S
C2617 C2611 1.491 . S
C2617 C2616 1.400 . S
C2617 C2618 1.398 . S
C2618 H2606 0.950 . S
C2618 C2617 1.398 . S
C2618 C2619 1.391 . S
C2619 H2607 0.950 . S
C2619 C2615 1.393 . S
C2619 C2618 1.391 . S
H2620 C2628 0.950 . S
H2621 C2633 0.950 . S
H2622 C2630 0.950 . S
H2623 C2632 0.965 . S
H2624 C2634 0.950 . S
H2625 C2636 0.950 . S
H2626 C2638 0.966 . S
H2627 C2639 0.950 . S
C2628 H2620 0.950 . S
C2628 C2629 1.386 . S
C2628 C2630 1.391 . S
C2629 C2628 1.386 . S
C2629 C2633 1.393 . S
C2630 H2622 0.950 . S
C2630 C2628 1.391 . S
C2630 C2631 1.400 . S
C2631 C2630 1.400 . S
C2631 C2632 1.396 1_545 S
C2631 C2637 1.491 1_545 S
C2632 H2623 0.965 . S
C2632 C2631 1.396 1_565 S
C2632 C2633 1.379 1_565 S
C2633 H2621 0.950 . S
C2633 C2629 1.393 . S
C2633 C2632 1.379 1_545 S
C2634 H2624 0.950 . S
C2634 C2635 1.386 . S
C2634 C2636 1.391 . S
C2635 C2634 1.386 . S
C2635 C2639 1.393 . S
C2636 H2625 0.950 . S
C2636 C2634 1.391 . S
C2636 C2637 1.400 . S
C2637 C2631 1.491 1_565 S
C2637 C2636 1.400 . S
C2637 C2638 1.396 1_565 S
C2638 H2626 0.966 . S
C2638 C2637 1.396 1_545 S
C2638 C2639 1.378 1_545 S
C2639 H2627 0.950 . S
C2639 C2635 1.393 . S
C2639 C2638 1.378 1_565 S
H2640 C2648 0.950 . S
H2641 C2653 0.950 . S
H2642 C2650 0.950 . S
H2643 C2652 0.950 . S
H2644 C2654 0.950 . S
H2645 C2656 0.950 . S
H2646 C2658 0.950 . S
H2647 C2659 0.950 . S
C2648 H2640 0.950 . S
C2648 C2649 1.386 . S
C2648 C2650 1.391 . S
C2649 C2648 1.386 . S
C2649 C2653 1.393 . S
C2650 H2642 0.950 . S
C2650 C2648 1.391 . S
C2650 C2651 1.400 . S
C2651 C2650 1.400 . S
C2651 C2652 1.398 . S
C2651 C2657 1.491 . S
C2652 H2643 0.950 . S
C2652 C2651 1.398 . S
C2652 C2653 1.391 . S
C2653 H2641 0.950 . S
C2653 C2649 1.393 . S
C2653 C2652 1.391 . S
C2654 H2644 0.950 . S
C2654 C2655 1.386 . S
C2654 C2656 1.391 . S
C2655 C2654 1.386 . S
C2655 C2659 1.393 . S
C2656 H2645 0.950 . S
C2656 C2654 1.391 . S
C2656 C2657 1.400 . S
C2657 C2651 1.491 . S
C2657 C2656 1.400 . S
C2657 C2658 1.398 . S
C2658 H2646 0.950 . S
C2658 C2657 1.398 . S
C2658 C2659 1.391 . S
C2659 H2647 0.950 . S
C2659 C2655 1.393 . S
C2659 C2658 1.391 . S
H2660 C2668 0.950 . S
H2661 C2673 0.950 . S
H2662 C2670 0.950 . S
H2663 C2672 0.950 . S
H2664 C2674 0.950 . S
H2665 C2676 0.950 . S
H2666 C2678 0.950 . S
H2667 C2679 0.950 . S
C2668 H2660 0.950 . S
C2668 C2669 1.386 . S
C2668 C2670 1.391 . S
C2669 C2668 1.386 . S
C2669 C2673 1.393 . S
C2670 H2662 0.950 . S
C2670 C2668 1.391 . S
C2670 C2671 1.400 . S
C2671 C2670 1.400 . S
C2671 C2672 1.398 . S
C2671 C2677 1.491 . S
C2672 H2663 0.950 . S
C2672 C2671 1.398 . S
C2672 C2673 1.391 . S
C2673 H2661 0.950 . S
C2673 C2669 1.393 . S
C2673 C2672 1.391 . S
C2674 H2664 0.950 . S
C2674 C2675 1.386 . S
C2674 C2676 1.391 . S
C2675 C2674 1.386 . S
C2675 C2679 1.393 . S
C2676 H2665 0.950 . S
C2676 C2674 1.391 . S
C2676 C2677 1.400 . S
C2677 C2671 1.491 . S
C2677 C2676 1.400 . S
C2677 C2678 1.398 . S
C2678 H2666 0.950 . S
C2678 C2677 1.398 . S
C2678 C2679 1.391 . S
C2679 H2667 0.950 . S
C2679 C2675 1.393 . S
C2679 C2678 1.391 . S
H2680 C2688 0.950 . S
H2681 C2693 0.950 . S
H2682 C2690 0.950 . S
H2683 C2692 0.950 . S
H2684 C2694 0.950 . S
H2685 C2696 0.950 . S
H2686 C2698 0.950 . S
H2687 C2699 0.950 . S
C2688 H2680 0.950 . S
C2688 C2689 1.386 . S
C2688 C2690 1.391 . S
C2689 C2688 1.386 . S
C2689 C2693 1.393 . S
C2690 H2682 0.950 . S
C2690 C2688 1.391 . S
C2690 C2691 1.400 . S
C2691 C2690 1.400 . S
C2691 C2692 1.398 . S
C2691 C2697 1.491 . S
C2692 H2683 0.950 . S
C2692 C2691 1.398 . S
C2692 C2693 1.391 . S
C2693 H2681 0.950 . S
C2693 C2689 1.393 . S
C2693 C2692 1.391 . S
C2694 H2684 0.950 . S
C2694 C2695 1.386 . S
C2694 C2696 1.391 . S
C2695 C2694 1.386 . S
C2695 C2699 1.393 . S
C2696 H2685 0.950 . S
C2696 C2694 1.391 . S
C2696 C2697 1.400 . S
C2697 C2691 1.491 . S
C2697 C2696 1.400 . S
C2697 C2698 1.398 . S
C2698 H2686 0.950 . S
C2698 C2697 1.398 . S
C2698 C2699 1.391 . S
C2699 H2687 0.950 . S
C2699 C2695 1.393 . S
C2699 C2698 1.391 . S
H2700 C2708 0.950 . S
H2701 C2713 0.950 . S
H2702 C2710 0.950 . S
H2703 C2712 0.950 . S
H2704 C2714 0.950 . S
H2705 C2716 0.950 . S
H2706 C2718 0.950 . S
H2707 C2719 0.950 . S
C2708 H2700 0.950 . S
C2708 C2709 1.386 . S
C2708 C2710 1.391 . S
C2709 C2708 1.386 . S
C2709 C2713 1.393 . S
C2710 H2702 0.950 . S
C2710 C2708 1.391 . S
C2710 C2711 1.400 . S
C2711 C2710 1.400 . S
C2711 C2712 1.398 . S
C2711 C2717 1.491 . S
C2712 H2703 0.950 . S
C2712 C2711 1.398 . S
C2712 C2713 1.391 . S
C2713 H2701 0.950 . S
C2713 C2709 1.393 . S
C2713 C2712 1.391 . S
C2714 H2704 0.950 . S
C2714 C2715 1.386 . S
C2714 C2716 1.391 . S
C2715 C2714 1.386 . S
C2715 C2719 1.393 . S
C2716 H2705 0.950 . S
C2716 C2714 1.391 . S
C2716 C2717 1.400 . S
C2717 C2711 1.491 . S
C2717 C2716 1.400 . S
C2717 C2718 1.398 . S
C2718 H2706 0.950 . S
C2718 C2717 1.398 . S
C2718 C2719 1.391 . S
C2719 H2707 0.950 . S
C2719 C2715 1.393 . S
C2719 C2718 1.391 . S
H2720 C2728 0.950 . S
H2721 C2733 0.950 . S
H2722 C2730 0.950 . S
H2723 C2732 0.950 . S
H2724 C2734 0.950 . S
H2725 C2736 0.950 . S
H2726 C2738 0.950 . S
H2727 C2739 0.950 . S
C2728 H2720 0.950 . S
C2728 C2729 1.386 . S
C2728 C2730 1.391 . S
C2729 C2728 1.386 . S
C2729 C2733 1.393 . S
C2730 H2722 0.950 . S
C2730 C2728 1.391 . S
C2730 C2731 1.400 . S
C2731 C2730 1.400 . S
C2731 C2732 1.398 . S
C2731 C2737 1.491 . S
C2732 H2723 0.950 . S
C2732 C2731 1.398 . S
C2732 C2733 1.391 . S
C2733 H2721 0.950 . S
C2733 C2729 1.393 . S
C2733 C2732 1.391 . S
C2734 H2724 0.950 . S
C2734 C2735 1.386 . S
C2734 C2736 1.391 . S
C2735 C2734 1.386 . S
C2735 C2739 1.393 . S
C2736 H2725 0.950 . S
C2736 C2734 1.391 . S
C2736 C2737 1.400 . S
C2737 C2731 1.491 . S
C2737 C2736 1.400 . S
C2737 C2738 1.398 . S
C2738 H2726 0.950 . S
C2738 C2737 1.398 . S
C2738 C2739 1.391 . S
C2739 H2727 0.950 . S
C2739 C2735 1.393 . S
C2739 C2738 1.391 . S
H2740 C2748 0.950 . S
H2741 C2753 0.950 . S
H2742 C2750 0.950 . S
H2743 C2752 0.950 . S
H2744 C2754 0.950 . S
H2745 C2756 0.950 . S
H2746 C2758 0.950 . S
H2747 C2759 0.950 . S
C2748 H2740 0.950 . S
C2748 C2749 1.386 . S
C2748 C2750 1.391 . S
C2749 C2748 1.386 . S
C2749 C2753 1.393 . S
C2750 H2742 0.950 . S
C2750 C2748 1.391 . S
C2750 C2751 1.400 . S
C2751 C2750 1.400 . S
C2751 C2752 1.398 . S
C2751 C2757 1.491 . S
C2752 H2743 0.950 . S
C2752 C2751 1.398 . S
C2752 C2753 1.391 . S
C2753 H2741 0.950 . S
C2753 C2749 1.393 . S
C2753 C2752 1.391 . S
C2754 H2744 0.950 . S
C2754 C2755 1.386 . S
C2754 C2756 1.391 . S
C2755 C2754 1.386 . S
C2755 C2759 1.393 . S
C2756 H2745 0.950 . S
C2756 C2754 1.391 . S
C2756 C2757 1.400 . S
C2757 C2751 1.491 . S
C2757 C2756 1.400 . S
C2757 C2758 1.398 . S
C2758 H2746 0.950 . S
C2758 C2757 1.398 . S
C2758 C2759 1.391 . S
C2759 H2747 0.950 . S
C2759 C2755 1.393 . S
C2759 C2758 1.391 . S
H2760 C2768 0.950 . S
H2761 C2773 0.950 . S
H2762 C2770 0.950 . S
H2763 C2772 0.950 . S
H2764 C2774 0.950 . S
H2765 C2776 0.950 . S
H2766 C2778 0.950 . S
H2767 C2779 0.950 . S
C2768 H2760 0.950 . S
C2768 C2769 1.386 . S
C2768 C2770 1.391 . S
C2769 C2768 1.386 . S
C2769 C2773 1.393 . S
C2770 H2762 0.950 . S
C2770 C2768 1.391 . S
C2770 C2771 1.400 . S
C2771 C2770 1.400 . S
C2771 C2772 1.398 . S
C2771 C2777 1.491 . S
C2772 H2763 0.950 . S
C2772 C2771 1.398 . S
C2772 C2773 1.391 . S
C2773 H2761 0.950 . S
C2773 C2769 1.393 . S
C2773 C2772 1.391 . S
C2774 H2764 0.950 . S
C2774 C2775 1.386 . S
C2774 C2776 1.391 . S
C2775 C2774 1.386 . S
C2775 C2779 1.393 . S
C2776 H2765 0.950 . S
C2776 C2774 1.391 . S
C2776 C2777 1.400 . S
C2777 C2771 1.491 . S
C2777 C2776 1.400 . S
C2777 C2778 1.398 . S
C2778 H2766 0.950 . S
C2778 C2777 1.398 . S
C2778 C2779 1.391 . S
C2779 H2767 0.950 . S
C2779 C2775 1.393 . S
C2779 C2778 1.391 . S
H2780 C2788 0.950 . S
H2781 C2793 0.950 . S
H2782 C2790 0.950 . S
H2783 C2792 0.950 . S
H2784 C2794 0.950 . S
H2785 C2796 0.950 . S
H2786 C2798 0.950 . S
H2787 C2799 0.950 . S
C2788 H2780 0.950 . S
C2788 C2789 1.386 . S
C2788 C2790 1.391 . S
C2789 C2788 1.386 . S
C2789 C2793 1.393 . S
C2790 H2782 0.950 . S
C2790 C2788 1.391 . S
C2790 C2791 1.400 . S
C2791 C2790 1.400 . S
C2791 C2792 1.398 . S
C2791 C2797 1.491 . S
C2792 H2783 0.950 . S
C2792 C2791 1.398 . S
C2792 C2793 1.391 . S
C2793 H2781 0.950 . S
C2793 C2789 1.393 . S
C2793 C2792 1.391 . S
C2794 H2784 0.950 . S
C2794 C2795 1.386 . S
C2794 C2796 1.391 . S
C2795 C2794 1.386 . S
C2795 C2799 1.393 . S
C2796 H2785 0.950 . S
C2796 C2794 1.391 . S
C2796 C2797 1.400 . S
C2797 C2791 1.491 . S
C2797 C2796 1.400 . S
C2797 C2798 1.398 . S
C2798 H2786 0.950 . S
C2798 C2797 1.398 . S
C2798 C2799 1.391 . S
C2799 H2787 0.950 . S
C2799 C2795 1.393 . S
C2799 C2798 1.391 . S
H2800 C2808 0.950 . S
H2801 C2813 0.950 . S
H2802 C2810 0.950 . S
H2803 C2812 0.950 . S
H2804 C2814 0.950 . S
H2805 C2816 0.950 . S
H2806 C2818 0.950 . S
H2807 C2819 0.950 . S
C2808 H2800 0.950 . S
C2808 C2809 1.386 . S
C2808 C2810 1.391 . S
C2809 C2808 1.386 . S
C2809 C2813 1.393 . S
C2810 H2802 0.950 . S
C2810 C2808 1.391 . S
C2810 C2811 1.400 . S
C2811 C2810 1.400 . S
C2811 C2812 1.398 . S
C2811 C2817 1.491 . S
C2812 H2803 0.950 . S
C2812 C2811 1.398 . S
C2812 C2813 1.391 . S
C2813 H2801 0.950 . S
C2813 C2809 1.393 . S
C2813 C2812 1.391 . S
C2814 H2804 0.950 . S
C2814 C2815 1.386 . S
C2814 C2816 1.391 . S
C2815 C2814 1.386 . S
C2815 C2819 1.393 . S
C2816 H2805 0.950 . S
C2816 C2814 1.391 . S
C2816 C2817 1.400 . S
C2817 C2811 1.491 . S
C2817 C2816 1.400 . S
C2817 C2818 1.398 . S
C2818 H2806 0.950 . S
C2818 C2817 1.398 . S
C2818 C2819 1.391 . S
C2819 H2807 0.950 . S
C2819 C2815 1.393 . S
C2819 C2818 1.391 . S
H2820 C2828 0.950 . S
H2821 C2833 0.950 . S
H2822 C2830 0.950 . S
H2823 C2832 0.950 . S
H2824 C2834 0.950 . S
H2825 C2836 0.950 . S
H2826 C2838 0.950 . S
H2827 C2839 0.950 . S
C2828 H2820 0.950 . S
C2828 C2829 1.386 . S
C2828 C2830 1.391 . S
C2829 C2828 1.386 . S
C2829 C2833 1.393 . S
C2830 H2822 0.950 . S
C2830 C2828 1.391 . S
C2830 C2831 1.400 . S
C2831 C2830 1.400 . S
C2831 C2832 1.398 . S
C2831 C2837 1.491 . S
C2832 H2823 0.950 . S
C2832 C2831 1.398 . S
C2832 C2833 1.391 . S
C2833 H2821 0.950 . S
C2833 C2829 1.393 . S
C2833 C2832 1.391 . S
C2834 H2824 0.950 . S
C2834 C2835 1.386 . S
C2834 C2836 1.391 . S
C2835 C2834 1.386 . S
C2835 C2839 1.393 . S
C2836 H2825 0.950 . S
C2836 C2834 1.391 . S
C2836 C2837 1.400 . S
C2837 C2831 1.491 . S
C2837 C2836 1.400 . S
C2837 C2838 1.398 . S
C2838 H2826 0.950 . S
C2838 C2837 1.398 . S
C2838 C2839 1.391 . S
C2839 H2827 0.950 . S
C2839 C2835 1.393 . S
C2839 C2838 1.391 . S
H2840 C2848 0.950 . S
H2841 C2853 0.950 . S
H2842 C2850 0.950 . S
H2843 C2852 0.950 . S
H2844 C2854 0.950 . S
H2845 C2856 0.950 . S
H2846 C2858 0.950 . S
H2847 C2859 0.950 . S
C2848 H2840 0.950 . S
C2848 C2849 1.386 . S
C2848 C2850 1.391 . S
C2849 C2848 1.386 . S
C2849 C2853 1.393 . S
C2850 H2842 0.950 . S
C2850 C2848 1.391 . S
C2850 C2851 1.400 . S
C2851 C2850 1.400 . S
C2851 C2852 1.398 . S
C2851 C2857 1.491 . S
C2852 H2843 0.950 . S
C2852 C2851 1.398 . S
C2852 C2853 1.391 . S
C2853 H2841 0.950 . S
C2853 C2849 1.393 . S
C2853 C2852 1.391 . S
C2854 H2844 0.950 . S
C2854 C2855 1.386 . S
C2854 C2856 1.391 . S
C2855 C2854 1.386 . S
C2855 C2859 1.393 . S
C2856 H2845 0.950 . S
C2856 C2854 1.391 . S
C2856 C2857 1.400 . S
C2857 C2851 1.491 . S
C2857 C2856 1.400 . S
C2857 C2858 1.398 . S
C2858 H2846 0.950 . S
C2858 C2857 1.398 . S
C2858 C2859 1.391 . S
C2859 H2847 0.950 . S
C2859 C2855 1.393 . S
C2859 C2858 1.391 . S
H2860 C2868 0.950 . S
H2861 C2873 0.950 . S
H2862 C2870 0.950 . S
H2863 C2872 0.950 . S
H2864 C2874 0.950 . S
H2865 C2876 0.950 . S
H2866 C2878 0.950 . S
H2867 C2879 0.950 . S
C2868 H2860 0.950 . S
C2868 C2869 1.386 . S
C2868 C2870 1.391 . S
C2869 C2868 1.386 . S
C2869 C2873 1.393 . S
C2870 H2862 0.950 . S
C2870 C2868 1.391 . S
C2870 C2871 1.400 . S
C2871 C2870 1.400 . S
C2871 C2872 1.398 . S
C2871 C2877 1.491 . S
C2872 H2863 0.950 . S
C2872 C2871 1.398 . S
C2872 C2873 1.391 . S
C2873 H2861 0.950 . S
C2873 C2869 1.393 . S
C2873 C2872 1.391 . S
C2874 H2864 0.950 . S
C2874 C2875 1.386 . S
C2874 C2876 1.391 . S
C2875 C2874 1.386 . S
C2875 C2879 1.393 . S
C2876 H2865 0.950 . S
C2876 C2874 1.391 . S
C2876 C2877 1.400 . S
C2877 C2871 1.491 . S
C2877 C2876 1.400 . S
C2877 C2878 1.398 . S
C2878 H2866 0.950 . S
C2878 C2877 1.398 . S
C2878 C2879 1.391 . S
C2879 H2867 0.950 . S
C2879 C2875 1.393 . S
C2879 C2878 1.391 . S
C729 C8 1.452 . S
C735 C59 1.505 . S
C749 C19 1.514 . S
C755 C28 1.441 . S
C769 C48 1.437 . S
C775 C39 1.512 . S
C789 C68 1.503 . S
C795 C99 1.543 . S
C809 C119 1.545 . S
C815 C88 1.504 . S
C829 C108 1.498 . S
C835 C79 1.543 . S
C849 C129 1.437 . S
C855 C178 1.512 . S
C869 C149 1.440 . S
C875 C138 1.509 . S
C889 C169 1.444 . S
C895 C158 1.508 . S
C909 C189 1.499 . S
C915 C218 1.547 . S
C929 C238 1.544 . S
C935 C209 1.493 . S
C949 C198 1.544 . S
C955 C229 1.496 . S
C969 C299 1.548 . S
C975 C248 1.472 . S
C989 C268 1.499 . S
C995 C259 1.539 . S
C1009 C279 1.545 . S
C1015 C288 1.487 . S
C1029 C308 1.489 . S
C1035 C339 1.563 . S
C1049 C359 1.556 . S
C1055 C328 1.515 . S
C1069 C319 1.555 . S
C1075 C348 1.513 . S
C1089 C369 1.481 . S
C1095 C418 1.526 . S
C1109 C389 1.460 . S
C1115 C378 1.536 . S
C1129 C398 1.531 . S
C1135 C409 1.482 . S
C1149 C458 1.474 . S
C1155 C429 1.422 1_554 S
C1169 C449 1.419 1_554 S
C1175 C478 1.474 . S
C1189 C438 1.475 . S
C1195 C469 1.413 1_554 S
C1209 C488 1.487 . S
C1215 C539 1.527 . S
C1229 C508 1.470 . S
C1235 C499 1.529 . S
C1249 C528 1.461 . S
C1255 C519 1.537 . S
C1269 C548 1.427 1_556 S
C1275 C579 1.480 . S
C1289 C568 1.427 1_556 S
C1295 C599 1.480 . S
C1309 C588 1.427 1_556 S
C1315 C559 1.480 . S
C1329 C609 1.476 . S
C1335 C658 1.544 . S
C1349 C629 1.471 . S
C1355 C618 1.548 . S
C1369 C638 1.538 . S
C1375 C649 1.492 . S
C1389 C669 1.502 . S
C1395 C698 1.563 . S
C1409 C689 1.516 . S
C1415 C718 1.555 . S
C1429 C678 1.564 . S
C1435 C709 1.489 . S
C1449 C18 1.381 . S
C1455 C408 1.391 . S
C1469 C368 1.398 . S
C1475 C38 1.395 . S
C1489 C58 1.385 . S
C1495 C388 1.410 . S
C1509 C78 1.329 . S
C1515 C688 1.343 . S
C1529 C708 1.323 . S
C1535 C98 1.315 . S
C1549 C118 1.311 . S
C1555 C668 1.326 . S
C1569 C529 1.408 . S
C1575 C139 1.391 . S
C1589 C159 1.391 . S
C1595 C489 1.392 . S
C1609 C179 1.379 . S
C1615 C509 1.411 . S
C1629 C329 1.343 . S
C1635 C199 1.311 . S
C1649 C349 1.335 . S
C1655 C219 1.307 . S
C1669 C309 1.344 . S
C1675 C239 1.326 . S
C1689 C258 1.355 . S
C1695 C648 1.378 . S
C1709 C278 1.338 . S
C1715 C608 1.366 . S
C1729 C628 1.358 . S
C1735 C298 1.361 . S
C1749 C208 1.345 . S
C1755 C318 1.351 . S
C1769 C228 1.342 . S
C1775 C338 1.342 . S
C1789 C188 1.345 . S
C1795 C358 1.351 . S
C1809 C49 1.395 . S
C1815 C379 1.366 . S
C1829 C399 1.370 . S
C1835 C9 1.406 . S
C1849 C419 1.377 . S
C1855 C29 1.408 . S
C1869 C569 1.359 1_554 S
C1875 C439 1.343 . S
C1889 C589 1.351 1_554 S
C1895 C459 1.366 . S
C1909 C479 1.353 . S
C1915 C549 1.357 1_554 S
C1929 C168 1.408 . S
C1935 C498 1.377 . S
C1949 C128 1.405 . S
C1955 C518 1.385 . S
C1969 C148 1.387 . S
C1975 C538 1.376 . S
C1989 C558 1.344 . S
C1995 C448 1.359 1_556 S
C2009 C468 1.357 1_556 S
C2015 C578 1.348 . S
C2029 C598 1.343 . S
C2035 C428 1.358 1_556 S
C2049 C619 1.349 . S
C2055 C289 1.379 . S
C2069 C639 1.347 . S
C2075 C249 1.378 . S
C2089 C659 1.343 . S
C2095 C269 1.376 . S
C2109 C679 1.348 . S
C2115 C89 1.343 . S
C2129 C109 1.344 . S
C2135 C699 1.333 . S
C2149 C69 1.365 . S
C2155 C719 1.341 . S
C2169 C582 1.888 . S
C2175 C2 1.887 . S
C2189 C542 1.877 . S
C2195 C22 1.880 . S
C2209 C42 1.879 . S
C2215 C562 1.881 . S
C2229 C262 2.054 . S
C2235 C62 2.061 . S
C2249 C82 2.066 . S
C2255 C282 2.068 . S
C2269 C102 2.064 . S
C2275 C242 2.070 . S
C2289 C121 1.882 . S
C2295 C461 1.870 . S
C2309 C141 1.885 . S
C2315 C421 1.886 . S
C2329 C161 1.879 . S
C2335 C441 1.877 . S
C2349 C621 2.055 . S
C2355 C181 2.067 . S
C2369 C641 2.054 . S
C2375 C201 2.063 . S
C2389 C601 2.062 . S
C2395 C221 2.052 . S
C2409 C302 2.111 . S
C2415 C502 2.105 . S
C2429 C322 2.103 . S
C2435 C522 2.113 . S
C2449 C342 2.104 . S
C2455 C482 2.119 . S
C2469 C361 2.113 . S
C2475 C701 2.119 . S
C2489 C661 2.103 . S
C2495 C381 2.118 . S
C2509 C401 2.114 . S
C2515 C681 2.103 . S
C2529 C81 1.361 . S
C2535 C1 1.366 . S
C2549 C101 1.360 . S
C2555 C21 1.367 . S
C2569 C61 1.361 . S
C2575 C41 1.366 . S
C2589 C122 1.372 . S
C2595 C202 1.358 . S
C2609 C222 1.372 . S
C2615 C142 1.357 . S
C2629 C162 1.372 . S
C2635 C182 1.358 . S
C2649 C321 1.429 . S
C2655 C241 1.422 . S
C2669 C341 1.420 . S
C2675 C261 1.431 . S
C2689 C301 1.429 . S
C2695 C281 1.422 . S
C2709 C442 1.573 . S
C2715 C362 1.599 . S
C2729 C382 1.585 . S
C2735 C462 1.590 . S
C2749 C402 1.581 . S
C2755 C422 1.593 . S
C2769 C481 1.579 . S
C2775 C561 1.591 . S
C2789 C581 1.582 . S
C2795 C501 1.588 . S
C2809 C521 1.587 . S
C2815 C541 1.588 . S
C2829 C602 1.426 . S
C2835 C682 1.429 . S
C2849 C702 1.430 . S
C2855 C622 1.425 . S
C2869 C642 1.428 . S
C2875 C662 1.427 . S
