# Generated by pormake.
# Topology rkf, (6)-cn, num edge types: 1
# Building blocks:
#     Node 0, Type 0, BuildingBlock: BETGAK_clean_sbu_0, # of connection points: 6
#     Node 1, Type 0, BuildingBlock: BETGAK_clean_sbu_0, # of connection points: 6
#     Node 2, Type 0, BuildingBlock: BETGAK_clean_sbu_0, # of connection points: 6
#     Node 3, Type 0, BuildingBlock: BETGAK_clean_sbu_0, # of connection points: 6
#     Node 4, Type 0, BuildingBlock: BETGAK_clean_sbu_0, # of connection points: 6
#     Node 5, Type 0, BuildingBlock: BETGAK_clean_sbu_0, # of connection points: 6
#     Edge 6, Type (0, 0), BuildingBlock: XUDNAN_clean_linker_2, # of connection points: 2
#     Edge 7, Type (0, 0), BuildingBlock: XUDNAN_clean_linker_2, # of connection points: 2
#     Edge 8, Type (0, 0), BuildingBlock: XUDNAN_clean_linker_2, # of connection points: 2
#     Edge 9, Type (0, 0), BuildingBlock: XUDNAN_clean_linker_2, # of connection points: 2
#     Edge 10, Type (0, 0), BuildingBlock: XUDNAN_clean_linker_2, # of connection points: 2
#     Edge 11, Type (0, 0), BuildingBlock: XUDNAN_clean_linker_2, # of connection points: 2
#     Edge 12, Type (0, 0), BuildingBlock: XUDNAN_clean_linker_2, # of connection points: 2
#     Edge 13, Type (0, 0), BuildingBlock: XUDNAN_clean_linker_2, # of connection points: 2
#     Edge 14, Type (0, 0), BuildingBlock: XUDNAN_clean_linker_2, # of connection points: 2
#     Edge 15, Type (0, 0), BuildingBlock: XUDNAN_clean_linker_2, # of connection points: 2
#     Edge 16, Type (0, 0), BuildingBlock: XUDNAN_clean_linker_2, # of connection points: 2
#     Edge 17, Type (0, 0), BuildingBlock: XUDNAN_clean_linker_2, # of connection points: 2
#     Edge 18, Type (0, 0), BuildingBlock: XUDNAN_clean_linker_2, # of connection points: 2
#     Edge 19, Type (0, 0), BuildingBlock: XUDNAN_clean_linker_2, # of connection points: 2
#     Edge 20, Type (0, 0), BuildingBlock: XUDNAN_clean_linker_2, # of connection points: 2
#     Edge 21, Type (0, 0), BuildingBlock: XUDNAN_clean_linker_2, # of connection points: 2
#     Edge 22, Type (0, 0), BuildingBlock: XUDNAN_clean_linker_2, # of connection points: 2
#     Edge 23, Type (0, 0), BuildingBlock: XUDNAN_clean_linker_2, # of connection points: 2
# Relax obj value: 0.736
# Max RMSD: 0.251
# Mean RMSD: 0.251
data_MOF--net-rkf--node1-BETGAK_clean_sbu_0--edge1-XUDNAN_clean_linker_2
_symmetry_space_group_name_H-M    P1
_symmetry_Int_Tables_number       1
_symmetry_cell_setting            triclinic
loop_
_symmetry_equiv_pos_as_xyz
'x, y, z'
_cell_length_a     26.315573
_cell_length_b     26.004175
_cell_length_c     42.332173
_cell_angle_alpha  89.737113
_cell_angle_beta   90.272975
_cell_angle_gamma 119.62917
loop_
_atom_site_label
_atom_site_type_symbol
_atom_site_fract_x
_atom_site_fract_y
_atom_site_fract_z
_atom_type_partial_charge
La0 La 0.27054 -0.02771 0.19531 0.0
La1 La 0.26122 0.07775 1.17314 0.0
C2 C 0.31118 0.90875 0.21618 0.0
C3 C 0.32463 0.89601 0.24811 0.0
C4 C 0.3488 0.94077 0.27094 0.0
C5 C 0.35143 0.92689 0.30252 0.0
C6 C 0.33036 0.8678 0.31199 0.0
C7 C 0.31111 0.82375 0.28854 0.0
C8 C 0.30792 0.83774 0.25688 0.0
C9 C 0.16985 0.96611 0.20596 0.0
C10 C 0.30302 0.08299 0.24332 0.0
C11 C 0.23694 0.15322 1.15132 0.0
C12 C 0.27132 0.21751 1.14664 0.0
C13 C 0.33237 0.24541 1.14361 0.0
C14 C 0.36417 0.30463 1.13448 0.0
C15 C 0.33549 0.33701 1.12846 0.0
C16 C 0.27487 0.31013 1.13364 0.0
C17 C 0.24296 0.2506 1.14257 0.0
C18 C 0.36488 0.08745 1.16562 0.0
C19 C 0.2066 0.96033 1.13119 0.0
O20 O 0.2557 0.88867 0.2102 0.0
O21 O 0.34345 0.96305 0.20603 0.0
O22 O 0.17456 0.91926 0.20195 0.0
O23 O 0.21929 0.0106 0.20707 0.0
O24 O 0.30525 0.03384 0.23677 0.0
O25 O 0.28215 0.10592 0.22239 0.0
O26 O 0.22661 0.13447 1.18058 0.0
O27 O 0.25282 0.12216 1.13393 0.0
O28 O 0.35592 0.13081 1.17191 0.0
O29 O 0.31642 0.04105 1.16147 0.0
O30 O 0.2016 0.00602 1.14107 0.0
O31 O 0.2405 0.94407 1.14665 0.0
H32 H 0.36281 -0.01383 0.26471 0.0
H33 H 0.36589 0.96216 0.31968 0.0
H34 H 0.2955 0.77797 0.29487 0.0
H35 H 0.28971 0.80261 0.23953 0.0
H36 H 0.3552 0.22076 1.14674 0.0
H37 H 0.41081 0.32436 1.13066 0.0
H38 H 0.25158 0.33391 1.12873 0.0
H39 H 0.19588 0.22975 1.14486 0.0
La40 La 0.36624 0.2919 0.52708 0.0
La41 La 0.29158 0.33654 0.49635 0.0
C42 C 0.45101 0.29064 0.5541 0.0
C43 C 0.47127 0.28992 0.58616 0.0
C44 C 0.43896 0.29049 0.61215 0.0
C45 C 0.45479 0.28283 0.64249 0.0
C46 C 0.50326 0.27448 0.64732 0.0
C47 C 0.53725 0.27699 0.62124 0.0
C48 C 0.52126 0.28468 0.59081 0.0
C49 C 0.25682 0.21355 0.51795 0.0
C50 C 0.29316 0.33497 0.57149 0.0
C51 C 0.21131 0.34395 0.46827 0.0
C52 C 0.15173 0.33229 0.4753 0.0
C53 C 0.10475 0.28647 0.45916 0.0
C54 C 0.04899 0.27946 0.46143 0.0
C55 C 0.03862 0.31818 0.48003 0.0
C56 C 0.08494 0.36129 0.49816 0.0
C57 C 0.14113 0.36842 0.49577 0.0
C58 C 0.4025 0.4154 0.50358 0.0
C59 C 0.34489 0.27212 0.45354 0.0
O60 O 0.40299 0.24285 0.54559 0.0
O61 O 0.45117 0.33923 0.54554 0.0
O62 O 0.2981 0.19994 0.5168 0.0
O63 O 0.27715 0.26602 0.52617 0.0
O64 O 0.33706 0.32283 0.56981 0.0
O65 O 0.2652 0.33537 0.54535 0.0
O66 O 0.21807 0.2974 0.4669 0.0
O67 O 0.25517 0.3889 0.48232 0.0
O68 O 0.36065 0.42785 0.50462 0.0
O69 O 0.38194 0.36227 0.49592 0.0
O70 O 0.30717 0.2919 0.45601 0.0
O71 O 0.37857 0.27524 0.47775 0.0
H72 H 0.40011 0.29427 0.60889 0.0
H73 H 0.42672 0.27976 0.66189 0.0
H74 H 0.57477 0.27079 0.62425 0.0
H75 H 0.54668 0.28437 0.57081 0.0
H76 H 0.11168 0.25784 0.44335 0.0
H77 H 0.01523 0.24633 0.44655 0.0
H78 H 0.07842 0.39134 0.513 0.0
H79 H 0.17652 0.4037 0.50889 0.0
La80 La 0.17237 0.39626 0.85914 0.0
La81 La 0.05192 0.29877 0.84208 0.0
C82 C 0.2663 0.49191 0.86754 0.0
C83 C 0.30247 0.52077 0.89561 0.0
C84 C 0.27699 0.52645 0.92349 0.0
C85 C 0.30925 0.54393 0.95147 0.0
C86 C 0.36744 0.55557 0.95222 0.0
C87 C 0.39412 0.55407 0.92381 0.0
C88 C 0.36186 0.53693 0.8957 0.0
C89 C 0.15427 0.28752 0.86188 0.0
C90 C 0.08349 0.32904 0.91418 0.0
C91 C -0.03798 0.20175 0.83125 0.0
C92 C 0.9323 0.14365 0.81568 0.0
C93 C 0.91245 0.0926 0.83451 0.0
C94 C 0.87167 0.03722 0.82274 0.0
C95 C 0.84991 0.0321 0.79196 0.0
C96 C 0.87359 0.08244 0.77227 0.0
C97 C 0.91421 0.13788 0.78408 0.0
C98 C 0.05826 0.40201 0.85489 0.0
C99 C 0.14424 0.35519 0.78594 0.0
O100 O 0.26418 0.44249 0.85914 0.0
O101 O 0.21468 0.48796 0.86639 0.0
O102 O 0.18483 0.32651 0.88328 0.0
O103 O 0.13626 0.31018 0.84224 0.0
O104 O 0.12713 0.38123 0.90507 0.0
O105 O 0.05579 0.28639 0.89331 0.0
O106 O -0.02457 0.25022 0.8151 0.0
O107 O 0.00047 0.20944 0.85319 0.0
O108 O 0.01376 0.35044 0.86013 0.0
O109 O 0.09549 0.39404 0.84042 0.0
O110 O 0.09059 0.31439 0.79463 0.0
O111 O 0.18279 0.39256 0.80692 0.0
H112 H 0.23121 0.51414 0.92421 0.0
H113 H 0.28699 0.54363 0.97299 0.0
H114 H 0.4389 0.56293 0.92369 0.0
H115 H 0.3824 0.53308 0.87439 0.0
H116 H 0.9255 0.09595 0.85907 0.0
H117 H 0.8544 -0.00076 0.83839 0.0
H118 H 0.85852 0.0794 0.74813 0.0
H119 H 0.92879 0.17639 0.76903 0.0
La120 La 0.84007 0.1632 1.19127 0.0
La121 La 0.81566 0.04839 1.15929 0.0
C122 C 0.81951 0.23629 0.21911 0.0
C123 C 0.81514 0.25171 0.25216 0.0
C124 C 0.85514 0.30814 0.26347 0.0
C125 C 0.85472 0.32238 0.29519 0.0
C126 C 0.81378 0.28061 0.31631 0.0
C127 C 0.77168 0.22511 0.3045 0.0
C128 C 0.77247 0.21068 0.27281 0.0
C129 C 0.92699 0.14185 0.19225 0.0
C130 C 0.78868 0.04136 0.23283 0.0
C131 C 0.81757 0.96354 1.13237 0.0
C132 C 0.7806 0.89881 1.13166 0.0
C133 C 0.71938 0.8717 1.12955 0.0
C134 C 0.68591 0.81092 1.12397 0.0
C135 C 0.71314 0.77641 1.12085 0.0
C136 C 0.77386 0.80301 1.12554 0.0
C137 C 0.80728 0.86375 1.13073 0.0
C138 C 0.72869 0.07077 1.15898 0.0
C139 C 0.88738 0.17212 1.12211 0.0
O140 O 0.87171 0.24874 0.20951 0.0
O141 O 0.77871 0.1844 0.20916 0.0
O142 O 0.93426 0.19471 0.19587 0.0
O143 O 0.87366 0.1051 0.19379 0.0
O144 O 0.80553 0.09902 0.2317 0.0
O145 O 0.78967 0.01257 0.20718 0.0
O146 O 0.84516 -0.01343 1.15889 0.0
O147 O 0.79539 -0.00588 1.11961 0.0
O148 O 0.72183 0.01792 1.16066 0.0
O149 O 0.78207 0.10769 1.15552 0.0
O150 O 0.87755 0.11721 1.12629 0.0
O151 O 0.86873 0.19705 1.14309 0.0
H152 H 0.8881 0.34069 0.24796 0.0
H153 H 0.88854 0.36516 0.30339 0.0
H154 H 0.73908 0.19211 0.31997 0.0
H155 H 0.74052 0.16692 0.26476 0.0
H156 H 0.69769 0.89782 1.13065 0.0
H157 H 0.6392 0.79145 1.12039 0.0
H158 H 0.79622 0.77778 1.12273 0.0
H159 H 0.85432 0.88372 1.13233 0.0
La160 La 0.75905 0.8765 0.5241 0.0
La161 La 0.86855 0.87906 0.49995 0.0
C162 C 0.66308 0.84832 0.55054 0.0
C163 C 0.63549 0.81424 0.57927 0.0
C164 C 0.66235 0.78765 0.59617 0.0
C165 C 0.64686 0.77013 0.62742 0.0
C166 C 0.6041 0.77898 0.64232 0.0
C167 C 0.57137 0.79739 0.62372 0.0
C168 C 0.58763 0.81581 0.59249 0.0
C169 C 0.84664 -0.01839 0.51086 0.0
C170 C 0.8529 0.8717 0.57336 0.0
C171 C -0.03706 0.90331 0.47312 0.0
C172 C 0.00668 0.88365 0.47215 0.0
C173 C 0.04351 0.89024 0.49786 0.0
C174 C 0.08695 0.87422 0.49484 0.0
C175 C 0.09379 0.85114 0.46619 0.0
C176 C 0.05616 0.84406 0.44083 0.0
C177 C 0.01332 0.86016 0.44379 0.0
C178 C 0.78254 0.77264 0.51388 0.0
C179 C 0.78235 0.89488 0.4513 0.0
O180 O 0.71124 0.89848 0.5554 0.0
O181 O 0.66848 0.81887 0.52711 0.0
O182 O 0.79259 0.96831 0.50724 0.0
O183 O 0.84904 0.93898 0.52307 0.0
O184 O 0.79798 0.85977 0.56794 0.0
O185 O 0.89075 0.88653 0.54987 0.0
O186 O -0.03975 0.93092 0.49835 0.0
O187 O 0.91118 0.86571 0.46205 0.0
O188 O 0.83734 0.78753 0.51469 0.0
O189 O 0.77779 0.81446 0.50178 0.0
O190 O 0.83562 0.90447 0.45791 0.0
O191 O 0.74119 0.87629 0.47327 0.0
H192 H 0.69841 0.78457 0.58614 0.0
H193 H 0.67315 0.75604 0.64065 0.0
H194 H 0.53716 0.80329 0.63423 0.0
H195 H 0.56577 0.8354 0.57958 0.0
H196 H 0.03947 0.90858 0.52001 0.0
H197 H 0.11559 0.88058 0.51468 0.0
H198 H 0.06126 0.8283 0.41806 0.0
H199 H -0.01391 0.85547 0.4235 0.0
La200 La 0.92149 0.76288 0.86261 0.0
La201 La 0.03991 0.87113 0.8598 0.0
C202 C 0.83581 0.66028 0.87097 0.0
C203 C 0.79922 0.62676 0.89801 0.0
C204 C 0.73816 0.59908 0.8951 0.0
C205 C 0.7026 0.57647 0.92174 0.0
C206 C 0.7276 0.58077 0.95168 0.0
C207 C 0.78848 0.60446 0.95413 0.0
C208 C 0.82406 0.62759 0.92755 0.0
C209 C 0.92327 0.86426 0.8713 0.0
C210 C -8e-05 0.8172 0.92628 0.0
C211 C 0.1279 -0.02685 0.85715 0.0
C212 C 0.18452 0.0043 0.84152 0.0
C213 C 0.22857 0.05622 0.85525 0.0
C214 C 0.28468 0.08452 0.84252 0.0
C215 C 0.29748 0.0613 0.81574 0.0
C216 C 0.25302 0.00882 0.80214 0.0
C217 C 0.19692 -0.01967 0.81506 0.0
C218 C 0.03857 0.76959 0.8508 0.0
C219 C -0.04012 0.82958 0.79682 0.0
O220 O 0.83082 0.70595 0.86249 0.0
O221 O 0.89041 0.67235 0.87101 0.0
O222 O 0.88181 0.81988 0.85645 0.0
O223 O -0.0411 0.84932 0.88093 0.0
O224 O -0.03999 0.76811 0.91154 0.0
O225 O 0.02612 0.86723 0.91038 0.0
O226 O 0.12261 0.93195 0.87676 0.0
O227 O 0.08096 0.95649 0.83979 0.0
O228 O 0.08165 0.81569 0.86348 0.0
O229 O 0.00189 0.78336 0.84103 0.0
O230 O 0.00444 0.8729 0.81249 0.0
O231 O 0.92527 0.77783 0.81082 0.0
H232 H 0.71817 0.59798 0.87249 0.0
H233 H 0.65586 0.5586 0.91923 0.0
H234 H 0.80913 0.60936 0.97696 0.0
H235 H 0.87105 0.64893 0.9305 0.0
H236 H 0.21969 0.07452 0.8761 0.0
H237 H 0.31805 0.12458 0.85361 0.0
H238 H 0.26118 -0.00954 0.78112 0.0
H239 H 0.16336 0.93965 0.80452 0.0
H240 H -0.03659 0.08524 1.15328 0.0
H241 H -0.01753 0.15467 0.24806 0.0
H242 H 0.0355 0.10211 0.26415 0.0
H243 H 0.93925 0.94364 1.17296 0.0
H244 H -0.01751 0.93848 1.1415 0.0
H245 H 0.94835 -0.01672 1.13644 0.0
H246 H 0.04715 0.07524 1.12369 0.0
H247 H 0.08244 0.03128 1.12733 0.0
H248 H 0.1077 0.09751 1.15055 0.0
H249 H 0.08368 0.04077 0.26985 0.0
H250 H 0.14155 -0.00942 0.26244 0.0
H251 H 0.08945 0.95958 1.16414 0.0
C252 C -0.01975 0.09042 1.17716 0.0
C253 C -0.02966 0.12439 0.19945 0.0
C254 C -0.00854 0.1298 0.23065 0.0
C255 C 0.02055 0.0994 0.24004 0.0
C256 C 0.02786 0.06427 0.21777 0.0
C257 C 0.00984 0.06098 1.18676 0.0
C258 C 0.02545 0.02237 1.16714 0.0
C259 C -0.02941 0.96874 1.15374 0.0
C260 C 0.06825 0.05874 1.14063 0.0
C261 C 0.05453 0.00383 0.19206 0.0
C262 C 0.05484 0.02797 0.22118 0.0
C263 C 0.08299 0.02083 0.24735 0.0
C264 C 0.11481 -0.00857 0.24311 0.0
C265 C 0.11776 -0.0304 0.21307 0.0
C266 C 0.0854 -0.02641 1.18761 0.0
H267 H 0.92078 0.06793 0.54908 0.0
H268 H 0.89185 0.01288 0.45137 0.0
H269 H -0.00271 0.07282 0.44098 0.0
H270 H 0.05346 0.22612 0.53092 0.0
H271 H 0.08577 0.22305 0.56802 0.0
H272 H 0.00749 0.18913 0.5644 0.0
H273 H -0.00032 0.09131 0.58508 0.0
H274 H 0.0777 0.12358 0.58653 0.0
H275 H 0.0347 0.05789 0.56341 0.0
H276 H 0.106 0.11332 0.44597 0.0
H277 H 0.21021 0.15678 0.46215 0.0
H278 H 0.16704 0.19283 0.55501 0.0
C279 C 0.93636 0.07194 0.52506 0.0
C280 C 0.89879 0.03582 0.50109 0.0
C281 C 0.92017 0.04009 0.47009 0.0
C282 C -0.01987 0.07409 0.46397 0.0
C283 C 0.01715 0.10509 0.48893 0.0
C284 C -0.00424 0.10701 0.51849 0.0
C285 C 0.04466 0.13949 0.54199 0.0
C286 C 0.04806 0.19793 0.5519 0.0
C287 C 0.03878 0.10071 0.57092 0.0
C288 C 0.09624 0.1506 0.52187 0.0
C289 C 0.07987 0.1308 0.49129 0.0
C290 C 0.11965 0.13072 0.46956 0.0
C291 C 0.17817 0.15401 0.47906 0.0
C292 C 0.19544 0.17679 0.50985 0.0
C293 C 0.15415 0.17493 0.53139 0.0
H294 H -0.03165 0.95162 0.91435 0.0
H295 H 0.92397 0.91554 0.81513 0.0
H296 H -0.01022 0.02111 0.80267 0.0
H297 H -0.02546 0.09918 0.91259 0.0
H298 H 0.03298 0.13 0.94108 0.0
H299 H -0.02046 0.05245 0.94264 0.0
H300 H 0.06279 0.02688 0.94009 0.0
H301 H 0.11663 0.10424 0.93799 0.0
H302 H 0.11375 0.05437 0.9077 0.0
H303 H 0.07209 0.12324 0.80039 0.0
H304 H 0.13967 0.22897 0.80846 0.0
H305 H 0.12139 0.20435 0.91009 0.0
C306 C -0.02935 0.96672 0.89022 0.0
C307 C 0.9418 0.92624 0.86556 0.0
C308 C 0.94577 0.94645 0.8342 0.0
C309 C -0.01631 0.00592 0.82692 0.0
C310 C 0.01499 0.04408 0.85156 0.0
C311 C 0.00652 0.02624 0.88273 0.0
C312 C 0.0439 0.0771 0.90471 0.0
C313 C 0.00536 0.0904 0.92654 0.0
C314 C 0.08679 0.06487 0.92374 0.0
C315 C 0.07583 0.12622 0.88089 0.0
C316 C 0.05951 0.1052 0.85039 0.0
C317 C 0.08418 0.14063 0.82409 0.0
C318 C 0.12306 0.20039 0.829 0.0
C319 C 0.13512 0.22445 0.8599 0.0
C320 C 0.11347 0.18674 0.88633 0.0
H321 H 0.40054 0.3608 1.07572 0.0
H322 H 0.33499 0.43991 1.14215 0.0
H323 H 0.36756 0.52647 1.10684 0.0
H324 H 0.52408 0.50402 1.04104 0.0
H325 H 0.50919 0.47551 1.0013 0.0
H326 H 0.49909 0.42704 1.0342 0.0
H327 H 0.3921 0.35597 1.02008 0.0
H328 H 0.40046 0.39932 0.98557 0.0
H329 H 0.34301 0.38462 1.01332 0.0
H330 H 0.38233 0.58892 1.06012 0.0
H331 H 0.36922 0.61551 1.0059 0.0
H332 H 0.42257 0.49473 0.96865 0.0
C333 C 0.39612 0.39797 1.08357 0.0
C334 C 0.36634 0.39447 1.11179 0.0
C335 C 0.35844 0.44233 1.12074 0.0
C336 C 0.37725 0.4918 1.10092 0.0
C337 C 0.40379 0.49258 1.07228 0.0
C338 C 0.41354 0.44685 1.06372 0.0
C339 C 0.43075 0.45132 1.02932 0.0
C340 C 0.49456 0.46538 1.02626 0.0
C341 C 0.38906 0.39451 1.01104 0.0
C342 C 0.42377 0.50334 1.0191 0.0
C343 C 0.41081 0.52823 1.04447 0.0
C344 C 0.3939 0.57088 1.0402 0.0
C345 C 0.38635 0.58562 1.00931 0.0
C346 C 0.39487 0.55709 0.98315 0.0
C347 C 0.41728 0.51837 0.98819 0.0
H348 H 0.92894 0.22472 0.47066 0.0
H349 H 0.02443 0.4159 0.47652 0.0
H350 H 0.94676 0.42056 0.44692 0.0
H351 H 0.92373 0.23017 0.39815 0.0
H352 H 0.85457 0.16733 0.3885 0.0
H353 H 0.88996 0.1676 0.42466 0.0
H354 H 0.80415 0.15254 0.45903 0.0
H355 H 0.76268 0.14619 0.42376 0.0
H356 H 0.77171 0.19896 0.45378 0.0
H357 H 0.88387 0.40971 0.40179 0.0
H358 H 0.84595 0.38546 0.3474 0.0
H359 H 0.80034 0.20292 0.36322 0.0
C360 C 0.93195 0.26737 0.46698 0.0
C361 C -0.01673 0.31977 0.4754 0.0
C362 C -0.01445 0.37479 0.47057 0.0
C363 C 0.94134 0.37788 0.45351 0.0
C364 C 0.89544 0.32574 0.44124 0.0
C365 C 0.89005 0.27109 0.4482 0.0
C366 C 0.84969 0.22446 0.42499 0.0
C367 C 0.88137 0.19576 0.40814 0.0
C368 C 0.79373 0.17777 0.44138 0.0
C369 C 0.83677 0.26196 0.40254 0.0
C370 C 0.86129 0.31968 0.41303 0.0
C371 C 0.86312 0.36431 0.3938 0.0
C372 C 0.84203 0.35025 0.36274 0.0
C373 C 0.82053 0.29224 0.35091 0.0
C374 C 0.81514 0.24725 0.37172 0.0
H375 H 0.75455 0.02113 0.7615 0.0
H376 H 0.82946 0.91778 0.79864 0.0
H377 H 0.74668 0.8271 0.77624 0.0
H378 H 0.59387 0.89915 0.76501 0.0
H379 H 0.57953 0.92505 0.72829 0.0
H380 H 0.63308 -0.02307 0.75552 0.0
H381 H 0.71189 0.01541 0.71142 0.0
H382 H 0.6583 0.96514 0.6843 0.0
H383 H 0.72521 0.96314 0.69032 0.0
H384 H 0.67038 0.75394 0.73932 0.0
H385 H 0.62203 0.71313 0.68826 0.0
H386 H 0.59741 0.86471 0.67496 0.0
C387 C 0.75301 -0.02082 0.76531 0.0
C388 C 0.79857 -0.02362 0.78134 0.0
C389 C 0.79484 0.92078 0.78636 0.0
C390 C 0.74775 0.86906 0.77388 0.0
C391 C 0.70461 0.87377 0.75682 0.0
C392 C 0.70687 0.9277 0.7528 0.0
C393 C 0.66208 0.92394 0.72915 0.0
C394 C 0.6143 0.93171 0.74548 0.0
C395 C 0.69113 -0.03052 0.70222 0.0
C396 C 0.63825 0.86107 0.71792 0.0
C397 C 0.66094 0.83168 0.7352 0.0
C398 C 0.65188 0.77632 0.72595 0.0
C399 C 0.62424 0.75336 0.69686 0.0
C400 C 0.6068 0.78624 0.67725 0.0
C401 C 0.60933 0.8379 0.68941 0.0
H402 H 0.64758 0.74679 1.068 0.0
H403 H 0.71386 0.67539 1.13929 0.0
H404 H 0.69109 0.5905 1.10477 0.0
H405 H 0.53752 0.59885 1.02883 0.0
H406 H 0.55675 0.63042 0.98977 0.0
H407 H 0.55576 0.67429 1.02244 0.0
H408 H 0.66198 0.75434 1.01356 0.0
H409 H 0.66481 0.71525 0.97967 0.0
H410 H 0.71807 0.73388 1.01082 0.0
H411 H 0.69563 0.53745 1.05849 0.0
H412 H 0.72621 0.52207 1.00605 0.0
H413 H 0.6564 0.62555 0.96326 0.0
C414 C 0.65356 0.71114 1.07708 0.0
C415 C 0.68173 0.71702 1.10631 0.0
C416 C 0.69165 0.67117 1.11703 0.0
C417 C 0.6786 0.6227 1.09756 0.0
C418 C 0.65552 0.62071 1.06752 0.0
C419 C 0.6421 0.66344 1.05752 0.0
C420 C 0.63092 0.6598 1.02226 0.0
C421 C 0.56641 0.6396 1.01537 0.0
C422 C 0.67141 0.71927 1.00566 0.0
C423 C 0.64596 0.61251 1.01347 0.0
C424 C 0.65797 0.58892 1.04001 0.0
C425 C 0.68423 0.55375 1.03761 0.0
C426 C 0.70177 0.5454 1.00774 0.0
C427 C 0.69302 0.57218 0.9807 0.0
C428 C 0.66164 0.60292 0.98347 0.0
H429 H 0.09105 0.75905 0.43458 0.0
H430 H 0.20844 0.92088 0.48358 0.0
H431 H 0.2926 0.92028 0.45895 0.0
H432 H 0.20189 0.69997 0.42252 0.0
H433 H 0.17224 0.67575 0.38347 0.0
H434 H 0.12508 0.67189 0.41529 0.0
H435 H 0.09132 0.7334 0.38196 0.0
H436 H 0.13797 0.73747 0.35045 0.0
H437 H 0.14536 0.80469 0.36693 0.0
H438 H 0.35853 0.9219 0.41763 0.0
H439 H 0.39638 0.92933 0.36379 0.0
H440 H 0.23532 0.77237 0.33722 0.0
C441 C 0.13477 0.79273 0.44118 0.0
C442 C 0.14328 0.84008 0.46078 0.0
C443 C 0.20082 0.88365 0.46897 0.0
C444 C 0.24903 0.8836 0.45498 0.0
C445 C 0.23895 0.83956 0.43303 0.0
C446 C 0.18293 0.7942 0.42652 0.0
C447 C 0.18155 0.76113 0.39687 0.0
C448 C 0.1695 0.69847 0.40504 0.0
C449 C 0.13651 0.75922 0.37266 0.0
C450 C 0.24377 0.79934 0.38561 0.0
C451 C 0.27713 0.84215 0.40766 0.0
C452 C 0.33324 0.88776 0.40056 0.0
C453 C 0.35422 0.89197 0.36973 0.0
C454 C 0.31846 0.85188 0.34605 0.0
C455 C 0.26428 0.80298 0.35481 0.0
H456 H 0.36013 0.17973 0.80569 0.0
H457 H 0.36305 0.01689 0.78944 0.0
H458 H 0.44685 0.06979 0.75361 0.0
H459 H 0.37093 0.22172 0.73432 0.0
H460 H 0.41781 0.30035 0.73909 0.0
H461 H 0.37474 0.25687 0.77159 0.0
H462 H 0.46805 0.29451 0.80606 0.0
H463 H 0.51181 0.33865 0.77334 0.0
H464 H 0.52848 0.28651 0.79229 0.0
H465 H 0.50487 0.12874 0.70902 0.0
H466 H 0.52686 0.18512 0.65957 0.0
H467 H 0.49391 0.31449 0.70517 0.0
C468 C 0.38057 0.15602 0.79598 0.0
C469 C 0.35528 0.0944 0.8003 0.0
C470 C 0.38164 0.06416 0.78625 0.0
C471 C 0.42979 0.09408 0.76621 0.0
C472 C 0.45162 0.15438 0.76085 0.0
C473 C 0.42842 0.18534 0.77583 0.0
C474 C 0.45111 0.24625 0.76155 0.0
C475 C 0.40066 0.25676 0.75099 0.0
C476 C 0.49233 0.29432 0.78469 0.0
C477 C 0.48467 0.24186 0.73376 0.0
C478 C 0.48685 0.18972 0.73459 0.0
C479 C 0.50552 0.17067 0.70863 0.0
C480 C 0.51819 0.20323 0.68052 0.0
C481 C 0.51167 0.25401 0.67861 0.0
C482 C 0.49923 0.27581 0.7062 0.0
H483 H 0.3967 0.00173 1.15602 0.0
H484 H 0.46619 0.19139 1.16229 0.0
H485 H 0.56613 0.20747 1.1569 0.0
H486 H 0.50579 0.00278 0.207 0.0
H487 H 0.51005 0.94416 1.18679 0.0
H488 H 0.44299 0.94682 1.18613 0.0
H489 H 0.44295 0.94613 1.12501 0.0
H490 H 0.5099 0.94307 1.12532 0.0
H491 H 0.50601 0.00114 1.10394 0.0
H492 H 0.65844 0.20354 1.15153 0.0
H493 H 0.73828 0.17963 1.15238 0.0
H494 H 0.61081 -0.00732 1.15865 0.0
C495 C 0.43292 0.04649 1.15663 0.0
C496 C 0.42367 0.09521 1.16011 0.0
C497 C 0.47224 0.15331 1.15977 0.0
C498 C 0.52922 0.16298 1.15666 0.0
C499 C 0.5371 0.11403 1.15448 0.0
C500 C 0.49047 0.05687 1.15487 0.0
C501 C 0.5116 0.01216 1.1554 0.0
C502 C 0.49142 -0.02573 1.18563 0.0
C503 C 0.49141 -0.02666 1.12564 0.0
C504 C 0.57728 0.05325 1.15537 0.0
C505 C 0.59087 0.11177 1.15409 0.0
C506 C 0.64845 0.15793 1.153 0.0
C507 C 0.69348 0.14397 1.15374 0.0
C508 C 0.68071 0.08454 1.15659 0.0
C509 C 0.62181 0.03862 1.15701 0.0
H510 H 0.4501 0.52624 0.52766 0.0
H511 H 0.49537 0.40241 0.48581 0.0
H512 H 0.60033 0.47821 0.4883 0.0
H513 H 0.55196 0.65263 0.48761 0.0
H514 H 0.56831 0.70186 0.52069 0.0
H515 H 0.49801 0.63615 0.51788 0.0
H516 H 0.51335 0.60282 0.5734 0.0
H517 H 0.58347 0.66896 0.57609 0.0
H518 H 0.57813 0.59761 0.58103 0.0
H519 H 0.7 0.57133 0.49146 0.0
H520 H 0.78444 0.67328 0.49467 0.0
H521 H 0.67298 0.73243 0.53654 0.0
C522 C 0.48222 0.51496 0.51935 0.0
C523 C 0.46505 0.45881 0.50656 0.0
C524 C 0.508 0.44535 0.49585 0.0
C525 C 0.56758 0.488 0.49722 0.0
C526 C 0.58317 0.54341 0.50971 0.0
C527 C 0.54165 0.5567 0.52083 0.0
C528 C 0.56923 0.61998 0.53202 0.0
C529 C 0.54547 0.65467 0.51342 0.0
C530 C 0.56055 0.62245 0.56776 0.0
C531 C 0.63248 0.64107 0.52418 0.0
C532 C 0.64001 0.59628 0.51173 0.0
C533 C 0.69459 0.60655 0.50147 0.0
C534 C 0.74225 0.66441 0.50341 0.0
C535 C 0.73452 0.71095 0.51515 0.0
C536 C 0.67947 0.69845 0.52641 0.0
H537 H 0.12765 0.51766 0.87398 0.0
H538 H -0.03172 0.40058 0.82336 0.0
H539 H 0.94862 0.48307 0.81496 0.0
H540 H 0.06878 0.59681 0.91445 0.0
H541 H 0.1347 0.66762 0.91253 0.0
H542 H 0.13901 0.60062 0.91274 0.0
H543 H 0.19794 0.63254 0.86061 0.0
H544 H 0.19398 0.69978 0.86027 0.0
H545 H 0.16822 0.6509 0.82671 0.0
H546 H 0.9445 0.57635 0.81282 0.0
H547 H -0.04564 0.67524 0.81879 0.0
H548 H 0.11409 0.73285 0.87268 0.0
C549 C 0.08924 0.50995 0.86073 0.0
C550 C 0.04968 0.45312 0.84903 0.0
C551 C -0.00092 0.44397 0.83243 0.0
C552 C -0.01237 0.49053 0.82747 0.0
C553 C 0.02698 0.54597 0.83951 0.0
C554 C 0.07665 0.55605 0.85592 0.0
C555 C 0.1099 0.61939 0.86772 0.0
C556 C 0.11327 0.62119 0.90401 0.0
C557 C 0.17115 0.65261 0.85294 0.0
C558 C 0.07099 0.643 0.85545 0.0
C559 C 0.02369 0.59987 0.83905 0.0
C560 C -0.01869 0.61054 0.82564 0.0
C561 C -0.01283 0.66675 0.82923 0.0
C562 C 0.03467 0.71142 0.84637 0.0
C563 C 0.07731 0.69944 0.85945 0.0
H564 H 0.26332 0.15027 0.27413 0.0
H565 H 0.37731 0.07553 0.28672 0.0
H566 H 0.40153 0.11713 0.34062 0.0
H567 H 0.35089 0.28624 0.31754 0.0
H568 H 0.28894 0.28686 0.33512 0.0
H569 H 0.28149 0.25242 0.29725 0.0
H570 H 0.19596 0.15465 0.31875 0.0
H571 H 0.20307 0.18883 0.35666 0.0
H572 H 0.20676 0.12161 0.35384 0.0
H573 H 0.41447 0.16836 0.39353 0.0
H574 H 0.41118 0.21956 0.44167 0.0
H575 H 0.28618 0.25928 0.39636 0.0
C576 C 0.29379 0.14302 0.28811 0.0
C577 C 0.31855 0.10946 0.27585 0.0
C578 C 0.35739 0.10046 0.29536 0.0
C579 C 0.37167 0.12431 0.32608 0.0
C580 C 0.34645 0.15694 0.33741 0.0
C581 C 0.30795 0.16596 0.3191 0.0
C582 C 0.28544 0.20103 0.33739 0.0
C583 C 0.30273 0.26015 0.32083 0.0
C584 C 0.21886 0.16434 0.34192 0.0
C585 C 0.31762 0.2108 0.36876 0.0
C586 C 0.35281 0.1852 0.36814 0.0
C587 C 0.38695 0.18842 0.39418 0.0
C588 C 0.38487 0.21794 0.42155 0.0
C589 C 0.34863 0.24406 0.42319 0.0
C590 C 0.31465 0.24027 0.39613 0.0
H591 H 0.33853 0.35878 0.63458 0.0
H592 H 0.18302 0.31538 0.57905 0.0
H593 H 0.13237 0.31794 0.62652 0.0
H594 H 0.261 0.2742 0.70514 0.0
H595 H 0.31039 0.32824 0.73299 0.0
H596 H 0.33645 0.32221 0.69465 0.0
H597 H 0.37334 0.4332 0.68441 0.0
H598 H 0.34713 0.4395 0.72267 0.0
H599 H 0.32315 0.46126 0.68767 0.0
H600 H 0.09502 0.32227 0.67899 0.0
H601 H 0.07416 0.33083 0.73473 0.0
H602 H 0.25168 0.37698 0.76002 0.0
C603 C 0.29386 0.34978 0.63249 0.0
C604 C 0.26547 0.33707 0.6024 0.0
C605 C 0.20678 0.32574 0.60119 0.0
C606 C 0.17707 0.32691 0.62828 0.0
C607 C 0.20597 0.34006 0.65718 0.0
C608 C 0.26307 0.35157 0.65976 0.0
C609 C 0.28298 0.3654 0.69431 0.0
C610 C 0.29863 0.3198 0.70755 0.0
C611 C 0.33474 0.42861 0.69744 0.0
C612 C 0.22814 0.35962 0.71031 0.0
C613 C 0.18441 0.34452 0.68814 0.0
C614 C 0.12907 0.33456 0.69656 0.0
C615 C 0.11758 0.33961 0.72842 0.0
C616 C 0.16115 0.35542 0.75198 0.0
C617 C 0.21762 0.36605 0.7426 0.0
H618 H 0.02585 0.22205 0.9464 0.0
H619 H 0.09286 0.41007 0.95883 0.0
H620 H 0.05078 0.391 1.01269 0.0
H621 H 0.8924 0.16826 0.98717 0.0
H622 H 0.89445 0.10711 1.00615 0.0
H623 H 0.93135 0.13532 0.96908 0.0
H624 H 0.02901 0.15281 0.99412 0.0
H625 H -0.00848 0.12334 1.03088 0.0
H626 H 0.05528 0.19591 1.02964 0.0
H627 H -0.00554 0.34969 1.06482 0.0
H628 H 0.93834 0.29213 1.11136 0.0
H629 H 0.91274 0.13101 1.06694 0.0
C630 C 0.03222 0.25933 0.96057 0.0
C631 C 0.06282 0.31782 0.94803 0.0
C632 C 0.07011 0.36506 0.96765 0.0
C633 C 0.046 0.35451 0.99836 0.0
C634 C 0.01546 0.29639 1.00978 0.0
C635 C 0.00967 0.24967 0.99168 0.0
C636 C -0.02392 0.19155 1.00984 0.0
C637 C 0.92025 0.14799 0.99199 0.0
C638 C 0.01529 0.16429 1.01649 0.0
C639 C -0.03822 0.21236 1.04044 0.0
C640 C -0.01496 0.27306 1.03998 0.0
C641 C -0.02334 0.30224 1.06538 0.0
C642 C 0.94437 0.26895 1.09183 0.0
C643 C 0.92081 0.20669 1.09328 0.0
C644 C 0.93011 0.17843 1.06697 0.0
H645 H 0.81199 0.08659 0.29451 0.0
H646 H 0.73555 0.92161 0.24239 0.0
H647 H 0.7204 0.86661 0.29225 0.0
H648 H 0.88998 0.05013 0.34963 0.0
H649 H 0.87743 0.08368 0.3836 0.0
H650 H 0.87774 0.11204 0.3446 0.0
H651 H 0.77426 0.0973 0.35276 0.0
H652 H 0.77173 0.06899 0.39216 0.0
H653 H 0.7154 0.02567 0.364 0.0
H654 H 0.71733 0.82849 0.34838 0.0
H655 H 0.72926 0.81232 0.40511 0.0
H656 H 0.80856 0.00066 0.42171 0.0
C657 C 0.79114 0.03882 0.29358 0.0
C658 C 0.77474 0.0088 0.26406 0.0
C659 C 0.74851 0.94615 0.26433 0.0
C660 C 0.73961 0.91424 0.2927 0.0
C661 C 0.75708 0.94506 0.32119 0.0
C662 C 0.78217 0.00598 0.32188 0.0
C663 C 0.79879 0.02829 0.35569 0.0
C664 C 0.8649 0.07112 0.35854 0.0
C665 C 0.76301 0.05687 0.36681 0.0
C666 C 0.78096 -0.02906 0.37369 0.0
C667 C 0.75605 0.92324 0.35337 0.0
C668 C 0.73651 0.86568 0.36441 0.0
C669 C 0.7432 0.85676 0.39676 0.0
C670 C 0.76947 0.90493 0.418 0.0
C671 C 0.78819 0.96278 0.40616 0.0
H672 H 0.79351 0.80844 0.6288 0.0
H673 H -0.0349 0.93639 0.59351 0.0
H674 H 0.00817 0.93844 0.64535 0.0
H675 H 0.81569 0.86907 0.70985 0.0
H676 H 0.77662 0.7971 0.7281 0.0
H677 H 0.75824 0.8081 0.68846 0.0
H678 H 0.77395 0.72237 0.66982 0.0
H679 H 0.79369 0.71284 0.70936 0.0
H680 H 0.84327 0.72609 0.67714 0.0
H681 H 0.03472 0.929 0.70097 0.0
H682 H 0.04353 0.90581 0.75641 0.0
H683 H 0.85764 0.77946 0.75864 0.0
C684 C 0.84005 0.83717 0.63208 0.0
C685 C 0.8756 0.87232 0.60647 0.0
C686 C 0.93647 0.90868 0.61216 0.0
C687 C -0.03837 0.91034 0.64179 0.0
C688 C 0.92601 0.87497 0.66622 0.0
C689 C 0.86655 0.83878 0.66185 0.0
C690 C 0.83927 0.80439 0.69241 0.0
C691 C 0.79479 0.82069 0.70547 0.0
C692 C 0.81086 0.73743 0.68684 0.0
C693 C 0.89264 0.82657 0.71432 0.0
C694 C 0.94195 0.86788 0.69853 0.0
C695 C -0.00362 0.89644 0.71347 0.0
C696 C 0.00093 0.88288 0.74522 0.0
C697 C 0.95171 0.84026 0.76236 0.0
C698 C 0.89657 0.81154 0.74636 0.0
H699 H 0.0334 0.91038 0.96667 0.0
H700 H 0.00871 0.73301 0.9629 0.0
H701 H 0.05664 0.74861 1.01553 0.0
H702 H 0.17208 -0.01965 1.0008 0.0
H703 H 0.16016 0.02954 1.0256 0.0
H704 H 0.11951 0.00239 0.9894 0.0
H705 H 0.02224 0.96088 1.02003 0.0
H706 H 0.06248 -0.01146 1.05639 0.0
H707 H 0.00852 0.91138 1.05289 0.0
H708 H 0.11929 0.79018 1.06681 0.0
H709 H 0.17776 0.84714 1.11308 0.0
H710 H 0.15648 -0.00445 1.08419 0.0
C711 C 0.03666 0.87408 0.97722 0.0
C712 C 0.01659 0.82003 0.96053 0.0
C713 C 0.02255 0.77425 0.97524 0.0
C714 C 0.05035 0.78312 1.00509 0.0
C715 C 0.07128 0.83774 1.02036 0.0
C716 C 0.06337 0.88192 1.00709 0.0
C717 C 0.09037 0.937 1.02775 0.0
C718 C 0.13837 -0.00955 1.00981 0.0
C719 C 0.04308 0.95021 1.03999 0.0
C720 C 0.1161 0.9178 1.05452 0.0
C721 C 0.10499 0.86052 1.04983 0.0
C722 C 0.12724 0.83466 1.07074 0.0
C723 C 0.16084 0.8676 1.09701 0.0
C724 C 0.17185 0.926 1.10271 0.0
C725 C 0.14867 0.95093 1.08096 0.0
loop_
_geom_bond_atom_site_label_1
_geom_bond_atom_site_label_2
_geom_bond_distance
_geom_bond_site_symmetry_2
_ccdc_geom_bond_type
La0 C2 2.928 . S
La0 O20 2.521 . S
La0 O21 2.628 . S
La0 O22 2.554 . S
La0 O23 2.736 1_554 S
La0 O24 2.470 . S
La0 O29 2.482 . S
La0 O31 2.503 1_554 S
La1 C11 2.928 . S
La1 O23 2.491 . S
La1 O25 2.503 1_556 S
La1 O26 2.521 . S
La1 O27 2.628 . S
La1 O28 2.554 . S
La1 O29 2.757 1_556 S
La1 O30 2.470 . S
C2 La0 2.928 . S
C2 C3 1.503 . S
C2 O20 1.261 . S
C2 O21 1.243 . S
C3 C2 1.503 . S
C3 C4 1.394 . S
C3 C8 1.373 . S
C4 C3 1.394 . S
C4 C5 1.380 1_545 S
C4 H32 0.930 1_545 S
C5 C4 1.380 1_565 S
C5 C6 1.376 1_565 S
C5 H33 0.930 . S
C6 C5 1.376 1_545 S
C6 C7 1.370 . S
C7 C6 1.370 . S
C7 C8 1.396 . S
C7 H34 0.929 . S
C8 C3 1.373 . S
C8 C7 1.396 . S
C8 H35 0.929 . S
C9 O22 1.240 . S
C9 O23 1.275 1_554 S
C10 O24 1.258 . S
C10 O25 1.256 . S
C11 La1 2.928 . S
C11 C12 1.503 . S
C11 O26 1.261 . S
C11 O27 1.243 . S
C12 C11 1.503 . S
C12 C13 1.394 . S
C12 C17 1.373 . S
C13 C12 1.394 . S
C13 C14 1.380 . S
C13 H36 0.930 . S
C14 C13 1.380 . S
C14 C15 1.376 . S
C14 H37 0.930 . S
C15 C14 1.376 . S
C15 C16 1.370 . S
C16 C15 1.370 . S
C16 C17 1.396 . S
C16 H38 0.929 . S
C17 C12 1.373 . S
C17 C16 1.396 . S
C17 H39 0.929 . S
C18 O28 1.240 1_554 S
C18 O29 1.289 . S
C19 O30 1.258 . S
C19 O31 1.256 . S
O20 La0 2.521 . S
O20 C2 1.261 . S
O21 La0 2.628 . S
O21 C2 1.243 . S
O22 La0 2.554 . S
O22 C9 1.240 . S
O23 La0 2.736 1_556 S
O23 La1 2.491 . S
O23 C9 1.275 1_556 S
O24 La0 2.470 . S
O24 C10 1.258 . S
O25 La1 2.503 1_554 S
O25 C10 1.256 . S
O26 La1 2.521 . S
O26 C11 1.261 . S
O27 La1 2.628 . S
O27 C11 1.243 . S
O28 La1 2.554 . S
O28 C18 1.240 1_556 S
O29 La0 2.482 . S
O29 La1 2.757 1_554 S
O29 C18 1.289 . S
O30 La1 2.470 . S
O30 C19 1.258 . S
O31 La0 2.503 1_556 S
O31 C19 1.256 . S
H32 C4 0.930 1_565 S
H33 C5 0.930 . S
H34 C7 0.929 . S
H35 C8 0.929 . S
H36 C13 0.930 . S
H37 C14 0.930 . S
H38 C16 0.929 . S
H39 C17 0.929 . S
La40 C42 2.928 . S
La40 O60 2.521 . S
La40 O61 2.628 . S
La40 O62 2.554 . S
La40 O63 2.757 . S
La40 O64 2.470 . S
La40 O69 2.482 . S
La40 O71 2.503 . S
La41 C51 2.928 . S
La41 O63 2.482 . S
La41 O65 2.503 . S
La41 O66 2.521 . S
La41 O67 2.628 . S
La41 O68 2.554 . S
La41 O69 2.757 . S
La41 O70 2.470 . S
C42 La40 2.928 . S
C42 C43 1.503 . S
C42 O60 1.261 . S
C42 O61 1.243 . S
C43 C42 1.503 . S
C43 C44 1.394 . S
C43 C48 1.373 . S
C44 C43 1.394 . S
C44 C45 1.380 . S
C44 H72 0.930 . S
C45 C44 1.380 . S
C45 C46 1.376 . S
C45 H73 0.930 . S
C46 C45 1.376 . S
C46 C47 1.370 . S
C47 C46 1.370 . S
C47 C48 1.396 . S
C47 H74 0.929 . S
C48 C43 1.373 . S
C48 C47 1.396 . S
C48 H75 0.929 . S
C49 O62 1.240 . S
C49 O63 1.289 . S
C50 O64 1.258 . S
C50 O65 1.256 . S
C51 La41 2.928 . S
C51 C52 1.503 . S
C51 O66 1.261 . S
C51 O67 1.243 . S
C52 C51 1.503 . S
C52 C53 1.394 . S
C52 C57 1.373 . S
C53 C52 1.394 . S
C53 C54 1.380 . S
C53 H76 0.930 . S
C54 C53 1.380 . S
C54 C55 1.376 . S
C54 H77 0.930 . S
C55 C54 1.376 . S
C55 C56 1.370 . S
C56 C55 1.370 . S
C56 C57 1.396 . S
C56 H78 0.929 . S
C57 C52 1.373 . S
C57 C56 1.396 . S
C57 H79 0.929 . S
C58 O68 1.240 . S
C58 O69 1.289 . S
C59 O70 1.258 . S
C59 O71 1.256 . S
O60 La40 2.521 . S
O60 C42 1.261 . S
O61 La40 2.628 . S
O61 C42 1.243 . S
O62 La40 2.554 . S
O62 C49 1.240 . S
O63 La40 2.757 . S
O63 La41 2.482 . S
O63 C49 1.289 . S
O64 La40 2.470 . S
O64 C50 1.258 . S
O65 La41 2.503 . S
O65 C50 1.256 . S
O66 La41 2.521 . S
O66 C51 1.261 . S
O67 La41 2.628 . S
O67 C51 1.243 . S
O68 La41 2.554 . S
O68 C58 1.240 . S
O69 La40 2.482 . S
O69 La41 2.757 . S
O69 C58 1.289 . S
O70 La41 2.470 . S
O70 C59 1.258 . S
O71 La40 2.503 . S
O71 C59 1.256 . S
H72 C44 0.930 . S
H73 C45 0.930 . S
H74 C47 0.929 . S
H75 C48 0.929 . S
H76 C53 0.930 . S
H77 C54 0.930 . S
H78 C56 0.929 . S
H79 C57 0.929 . S
La80 C82 2.928 . S
La80 O100 2.521 . S
La80 O101 2.628 . S
La80 O102 2.554 . S
La80 O103 2.762 . S
La80 O104 2.470 1_455 S
La80 O109 2.469 1_455 S
La80 O111 2.503 . S
La81 C91 2.928 . S
La81 O103 2.464 1_655 S
La81 O105 2.503 . S
La81 O106 2.521 . S
La81 O107 2.628 . S
La81 O108 2.554 . S
La81 O109 2.761 . S
La81 O110 2.470 1_655 S
C82 La80 2.928 . S
C82 C83 1.503 . S
C82 O100 1.261 . S
C82 O101 1.243 . S
C83 C82 1.503 . S
C83 C84 1.394 . S
C83 C88 1.373 . S
C84 C83 1.394 . S
C84 C85 1.380 . S
C84 H112 0.930 . S
C85 C84 1.380 . S
C85 C86 1.376 . S
C85 H113 0.930 . S
C86 C85 1.376 . S
C86 C87 1.370 . S
C87 C86 1.370 . S
C87 C88 1.396 . S
C87 H114 0.929 . S
C88 C83 1.373 . S
C88 C87 1.396 . S
C88 H115 0.929 . S
C89 O102 1.240 . S
C89 O103 1.304 . S
C90 O104 1.258 . S
C90 O105 1.256 . S
C91 La81 2.928 . S
C91 C92 1.503 . S
C91 O106 1.261 . S
C91 O107 1.243 . S
C92 C91 1.503 . S
C92 C93 1.394 . S
C92 C97 1.373 . S
C93 C92 1.394 . S
C93 C94 1.380 . S
C93 H116 0.930 . S
C94 C93 1.380 . S
C94 C95 1.376 . S
C94 H117 0.930 . S
C95 C94 1.376 . S
C95 C96 1.370 . S
C96 C95 1.370 . S
C96 C97 1.396 . S
C96 H118 0.929 . S
C97 C92 1.373 . S
C97 C96 1.396 . S
C97 H119 0.929 . S
C98 O108 1.240 . S
C98 O109 1.300 . S
C99 O110 1.258 . S
C99 O111 1.256 . S
O100 La80 2.521 . S
O100 C82 1.261 . S
O101 La80 2.628 . S
O101 C82 1.243 . S
O102 La80 2.554 . S
O102 C89 1.240 . S
O103 La80 2.762 . S
O103 La81 2.464 1_455 S
O103 C89 1.304 . S
O104 La80 2.470 1_655 S
O104 C90 1.258 . S
O105 La81 2.503 . S
O105 C90 1.256 . S
O106 La81 2.521 . S
O106 C91 1.261 . S
O107 La81 2.628 . S
O107 C91 1.243 . S
O108 La81 2.554 . S
O108 C98 1.240 . S
O109 La80 2.469 1_655 S
O109 La81 2.761 . S
O109 C98 1.300 . S
O110 La81 2.470 1_455 S
O110 C99 1.258 . S
O111 La80 2.503 . S
O111 C99 1.256 . S
H112 C84 0.930 . S
H113 C85 0.930 . S
H114 C87 0.929 . S
H115 C88 0.929 . S
H116 C93 0.930 . S
H117 C94 0.930 . S
H118 C96 0.929 . S
H119 C97 0.929 . S
La120 C122 2.928 . S
La120 O140 2.521 . S
La120 O141 2.628 . S
La120 O142 2.554 . S
La120 O143 2.736 1_554 S
La120 O144 2.470 1_545 S
La120 O149 2.489 . S
La120 O151 2.503 1_554 S
La121 C131 2.928 . S
La121 O143 2.491 1_565 S
La121 O145 2.503 1_556 S
La121 O146 2.521 . S
La121 O147 2.628 . S
La121 O148 2.554 . S
La121 O149 2.739 1_566 S
La121 O150 2.470 1_565 S
C122 La120 2.928 . S
C122 C123 1.503 . S
C122 O140 1.261 . S
C122 O141 1.243 . S
C123 C122 1.503 . S
C123 C124 1.394 . S
C123 C128 1.373 . S
C124 C123 1.394 . S
C124 C125 1.380 . S
C124 H152 0.930 . S
C125 C124 1.380 . S
C125 C126 1.376 . S
C125 H153 0.930 . S
C126 C125 1.376 . S
C126 C127 1.370 . S
C127 C126 1.370 . S
C127 C128 1.396 . S
C127 H154 0.929 . S
C128 C123 1.373 . S
C128 C127 1.396 . S
C128 H155 0.929 . S
C129 O142 1.240 . S
C129 O143 1.275 1_554 S
C130 O144 1.258 . S
C130 O145 1.256 . S
C131 La121 2.928 . S
C131 C132 1.503 . S
C131 O146 1.261 . S
C131 O147 1.243 . S
C132 C131 1.503 . S
C132 C133 1.394 . S
C132 C137 1.373 . S
C133 C132 1.394 . S
C133 C134 1.380 . S
C133 H156 0.930 . S
C134 C133 1.380 . S
C134 C135 1.376 . S
C134 H157 0.930 . S
C135 C134 1.376 . S
C135 C136 1.370 . S
C136 C135 1.370 . S
C136 C137 1.396 . S
C136 H158 0.929 . S
C137 C132 1.373 . S
C137 C136 1.396 . S
C137 H159 0.929 . S
C138 O148 1.240 1_554 S
C138 O149 1.290 1_565 S
C139 O150 1.258 . S
C139 O151 1.256 . S
O140 La120 2.521 . S
O140 C122 1.261 . S
O141 La120 2.628 . S
O141 C122 1.243 . S
O142 La120 2.554 . S
O142 C129 1.240 . S
O143 La120 2.736 1_556 S
O143 La121 2.491 1_545 S
O143 C129 1.275 1_556 S
O144 La120 2.470 1_565 S
O144 C130 1.258 . S
O145 La121 2.503 1_554 S
O145 C130 1.256 . S
O146 La121 2.521 . S
O146 C131 1.261 . S
O147 La121 2.628 . S
O147 C131 1.243 . S
O148 La121 2.554 . S
O148 C138 1.240 1_556 S
O149 La120 2.489 . S
O149 La121 2.739 1_544 S
O149 C138 1.290 1_545 S
O150 La121 2.470 1_545 S
O150 C139 1.258 . S
O151 La120 2.503 1_556 S
O151 C139 1.256 . S
H152 C124 0.930 . S
H153 C125 0.930 . S
H154 C127 0.929 . S
H155 C128 0.929 . S
H156 C133 0.930 . S
H157 C134 0.930 . S
H158 C136 0.929 . S
H159 C137 0.929 . S
La160 C162 2.928 . S
La160 O180 2.521 . S
La160 O181 2.628 . S
La160 O182 2.554 . S
La160 O183 2.757 . S
La160 O184 2.470 . S
La160 O189 2.482 . S
La160 O191 2.503 . S
La161 C171 2.928 . S
La161 O183 2.482 . S
La161 O185 2.503 . S
La161 O186 2.521 . S
La161 O187 2.628 1_655 S
La161 O188 2.554 . S
La161 O189 2.757 . S
La161 O190 2.470 . S
C162 La160 2.928 . S
C162 C163 1.503 . S
C162 O180 1.261 . S
C162 O181 1.243 . S
C163 C162 1.503 . S
C163 C164 1.394 . S
C163 C168 1.373 . S
C164 C163 1.394 . S
C164 C165 1.380 . S
C164 H192 0.930 . S
C165 C164 1.380 . S
C165 C166 1.376 . S
C165 H193 0.930 . S
C166 C165 1.376 . S
C166 C167 1.370 . S
C167 C166 1.370 . S
C167 C168 1.396 . S
C167 H194 0.929 . S
C168 C163 1.373 . S
C168 C167 1.396 . S
C168 H195 0.929 . S
C169 O182 1.240 1_455 S
C169 O183 1.289 1_455 S
C170 O184 1.258 . S
C170 O185 1.256 . S
C171 La161 2.928 . S
C171 C172 1.503 1_655 S
C171 O186 1.261 . S
C171 O187 1.243 1_655 S
C172 C171 1.503 1_455 S
C172 C173 1.394 1_455 S
C172 C177 1.373 . S
C173 C172 1.394 1_655 S
C173 C174 1.380 1_655 S
C173 H196 0.930 . S
C174 C173 1.380 1_455 S
C174 C175 1.376 . S
C174 H197 0.930 1_455 S
C175 C174 1.376 . S
C175 C176 1.370 . S
C176 C175 1.370 . S
C176 C177 1.396 . S
C176 H198 0.929 . S
C177 C172 1.373 . S
C177 C176 1.396 . S
C177 H199 0.929 . S
C178 O188 1.240 . S
C178 O189 1.289 . S
C179 O190 1.258 . S
C179 O191 1.256 . S
O180 La160 2.521 . S
O180 C162 1.261 . S
O181 La160 2.628 . S
O181 C162 1.243 . S
O182 La160 2.554 . S
O182 C169 1.240 1_655 S
O183 La160 2.757 . S
O183 La161 2.482 . S
O183 C169 1.289 1_655 S
O184 La160 2.470 . S
O184 C170 1.258 . S
O185 La161 2.503 . S
O185 C170 1.256 . S
O186 La161 2.521 . S
O186 C171 1.261 . S
O187 La161 2.628 1_455 S
O187 C171 1.243 1_455 S
O188 La161 2.554 . S
O188 C178 1.240 . S
O189 La160 2.482 . S
O189 La161 2.757 . S
O189 C178 1.289 . S
O190 La161 2.470 . S
O190 C179 1.258 . S
O191 La160 2.503 . S
O191 C179 1.256 . S
H192 C164 0.930 . S
H193 C165 0.930 . S
H194 C167 0.929 . S
H195 C168 0.929 . S
H196 C173 0.930 . S
H197 C174 0.930 1_655 S
H198 C176 0.929 . S
H199 C177 0.929 . S
La200 C202 2.928 . S
La200 O220 2.521 . S
La200 O221 2.628 . S
La200 O222 2.554 . S
La200 O223 2.757 . S
La200 O224 2.470 . S
La200 O229 2.482 . S
La200 O231 2.503 . S
La201 C211 2.928 . S
La201 O223 2.482 . S
La201 O225 2.503 . S
La201 O226 2.521 . S
La201 O227 2.628 1_565 S
La201 O228 2.554 . S
La201 O229 2.757 . S
La201 O230 2.470 . S
C202 La200 2.928 . S
C202 C203 1.503 . S
C202 O220 1.261 . S
C202 O221 1.243 . S
C203 C202 1.503 . S
C203 C204 1.394 . S
C203 C208 1.373 . S
C204 C203 1.394 . S
C204 C205 1.380 1_455 S
C204 H232 0.930 1_455 S
C205 C204 1.380 1_655 S
C205 C206 1.376 1_655 S
C205 H233 0.930 . S
C206 C205 1.376 1_455 S
C206 C207 1.370 . S
C207 C206 1.370 . S
C207 C208 1.396 . S
C207 H234 0.929 . S
C208 C203 1.373 . S
C208 C207 1.396 . S
C208 H235 0.929 . S
C209 O222 1.240 1_545 S
C209 O223 1.289 1_545 S
C210 O224 1.258 . S
C210 O225 1.256 . S
C211 La201 2.928 . S
C211 C212 1.503 1_565 S
C211 O226 1.261 . S
C211 O227 1.243 1_565 S
C212 C211 1.503 1_545 S
C212 C213 1.394 1_545 S
C212 C217 1.373 . S
C213 C212 1.394 1_565 S
C213 C214 1.380 1_565 S
C213 H236 0.930 . S
C214 C213 1.380 1_545 S
C214 C215 1.376 . S
C214 H237 0.930 1_545 S
C215 C214 1.376 . S
C215 C216 1.370 . S
C216 C215 1.370 . S
C216 C217 1.396 . S
C216 H238 0.929 . S
C217 C212 1.373 . S
C217 C216 1.396 . S
C217 H239 0.929 . S
C218 O228 1.240 . S
C218 O229 1.289 . S
C219 O230 1.258 . S
C219 O231 1.256 . S
O220 La200 2.521 . S
O220 C202 1.261 . S
O221 La200 2.628 . S
O221 C202 1.243 . S
O222 La200 2.554 . S
O222 C209 1.240 1_565 S
O223 La200 2.757 . S
O223 La201 2.482 . S
O223 C209 1.289 1_565 S
O224 La200 2.470 . S
O224 C210 1.258 . S
O225 La201 2.503 . S
O225 C210 1.256 . S
O226 La201 2.521 . S
O226 C211 1.261 . S
O227 La201 2.628 1_545 S
O227 C211 1.243 1_545 S
O228 La201 2.554 . S
O228 C218 1.240 . S
O229 La200 2.482 . S
O229 La201 2.757 . S
O229 C218 1.289 . S
O230 La201 2.470 . S
O230 C219 1.258 . S
O231 La200 2.503 . S
O231 C219 1.256 . S
H232 C204 0.930 1_655 S
H233 C205 0.930 . S
H234 C207 0.929 . S
H235 C208 0.929 . S
H236 C213 0.930 . S
H237 C214 0.930 1_565 S
H238 C216 0.929 . S
H239 C217 0.929 . S
H240 C252 0.930 1_565 S
H241 C254 0.930 . S
H242 C255 0.930 . S
H243 C259 0.959 . S
H244 C259 0.959 . S
H245 C259 0.961 . S
H246 C260 0.960 . S
H247 C260 0.961 . S
H248 C260 0.959 . S
H249 C263 0.929 . S
H250 C264 0.931 . S
H251 C266 0.930 . S
C252 H240 0.930 1_545 S
C252 C253 1.399 1_556 S
C252 C257 1.399 1_655 S
C253 C252 1.399 1_554 S
C253 C254 1.376 . S
C254 H241 0.930 . S
C254 C253 1.376 . S
C254 C255 1.388 1_655 S
C255 H242 0.930 . S
C255 C254 1.388 1_455 S
C255 C256 1.390 . S
C256 C255 1.390 . S
C256 C257 1.394 1_554 S
C256 C262 1.465 . S
C257 C252 1.399 1_455 S
C257 C256 1.394 1_556 S
C257 C258 1.516 . S
C258 C257 1.516 . S
C258 C259 1.502 . S
C258 C260 1.561 . S
C258 C261 1.526 . S
C259 H243 0.959 . S
C259 H244 0.959 . S
C259 H245 0.961 . S
C259 C258 1.502 . S
C260 H246 0.960 . S
C260 H247 0.961 . S
C260 H248 0.959 . S
C260 C258 1.561 . S
C261 C258 1.526 . S
C261 C262 1.396 1_556 S
C261 C266 1.390 . S
C262 C256 1.465 . S
C262 C261 1.396 1_554 S
C262 C263 1.399 . S
C263 H249 0.929 . S
C263 C262 1.399 . S
C263 C264 1.385 . S
C264 H250 0.931 . S
C264 C263 1.385 . S
C264 C265 1.389 . S
C265 C264 1.389 . S
C265 C266 1.387 1_554 S
C266 H251 0.930 . S
C266 C261 1.390 . S
C266 C265 1.387 1_556 S
H267 C279 0.930 . S
H268 C281 0.930 . S
H269 C282 0.930 . S
H270 C286 0.959 . S
H271 C286 0.959 . S
H272 C286 0.961 . S
H273 C287 0.960 . S
H274 C287 0.961 . S
H275 C287 0.959 . S
H276 C290 0.929 . S
H277 C291 0.931 . S
H278 C293 0.930 . S
C279 H267 0.930 . S
C279 C280 1.399 . S
C279 C284 1.399 1_565 S
C280 C279 1.399 . S
C280 C281 1.376 . S
C281 H268 0.930 . S
C281 C280 1.376 . S
C281 C282 1.388 1_565 S
C282 H269 0.930 . S
C282 C281 1.388 1_545 S
C282 C283 1.390 . S
C283 C282 1.390 . S
C283 C284 1.394 . S
C283 C289 1.465 . S
C284 C279 1.399 1_545 S
C284 C283 1.394 . S
C284 C285 1.516 . S
C285 C284 1.516 . S
C285 C286 1.502 . S
C285 C287 1.561 . S
C285 C288 1.526 . S
C286 H270 0.959 . S
C286 H271 0.959 . S
C286 H272 0.961 . S
C286 C285 1.502 . S
C287 H273 0.960 . S
C287 H274 0.961 . S
C287 H275 0.959 . S
C287 C285 1.561 . S
C288 C285 1.526 . S
C288 C289 1.396 . S
C288 C293 1.390 . S
C289 C283 1.465 . S
C289 C288 1.396 . S
C289 C290 1.399 . S
C290 H276 0.929 . S
C290 C289 1.399 . S
C290 C291 1.385 . S
C291 H277 0.931 . S
C291 C290 1.385 . S
C291 C292 1.389 . S
C292 C291 1.389 . S
C292 C293 1.387 . S
C293 H278 0.930 . S
C293 C288 1.390 . S
C293 C292 1.387 . S
H294 C306 0.930 . S
H295 C308 0.930 . S
H296 C309 0.930 . S
H297 C313 0.959 . S
H298 C313 0.959 . S
H299 C313 0.961 . S
H300 C314 0.960 . S
H301 C314 0.961 . S
H302 C314 0.959 . S
H303 C317 0.929 . S
H304 C318 0.931 . S
H305 C320 0.930 . S
C306 H294 0.930 . S
C306 C307 1.399 . S
C306 C311 1.399 . S
C307 C306 1.399 . S
C307 C308 1.376 1_545 S
C308 H295 0.930 . S
C308 C307 1.376 1_565 S
C308 C309 1.388 . S
C309 H296 0.930 . S
C309 C308 1.388 . S
C309 C310 1.390 1_565 S
C310 C309 1.390 1_545 S
C310 C311 1.394 . S
C310 C316 1.465 . S
C311 C306 1.399 . S
C311 C310 1.394 . S
C311 C312 1.516 . S
C312 C311 1.516 . S
C312 C313 1.502 . S
C312 C314 1.561 . S
C312 C315 1.526 . S
C313 H297 0.959 . S
C313 H298 0.959 . S
C313 H299 0.961 . S
C313 C312 1.502 . S
C314 H300 0.960 . S
C314 H301 0.961 . S
C314 H302 0.959 . S
C314 C312 1.561 . S
C315 C312 1.526 . S
C315 C316 1.396 . S
C315 C320 1.390 . S
C316 C310 1.465 . S
C316 C315 1.396 . S
C316 C317 1.399 1_455 S
C317 H303 0.929 . S
C317 C316 1.399 1_655 S
C317 C318 1.385 . S
C318 H304 0.931 . S
C318 C317 1.385 . S
C318 C319 1.388 1_655 S
C319 C318 1.388 1_455 S
C319 C320 1.401 . S
C320 H305 0.930 . S
C320 C315 1.390 . S
C320 C319 1.401 . S
H321 C333 0.930 . S
H322 C335 0.930 . S
H323 C336 0.930 . S
H324 C340 0.959 . S
H325 C340 0.959 . S
H326 C340 0.961 . S
H327 C341 0.960 . S
H328 C341 0.961 . S
H329 C341 0.959 . S
H330 C344 0.929 . S
H331 C345 0.931 . S
H332 C347 0.930 . S
C333 H321 0.930 . S
C333 C334 1.399 . S
C333 C338 1.399 . S
C334 C333 1.399 . S
C334 C335 1.376 . S
C335 H322 0.930 . S
C335 C334 1.376 . S
C335 C336 1.388 . S
C336 H323 0.930 . S
C336 C335 1.388 . S
C336 C337 1.390 . S
C337 C336 1.390 . S
C337 C338 1.394 . S
C337 C343 1.465 . S
C338 C333 1.399 . S
C338 C337 1.394 . S
C338 C339 1.516 . S
C339 C338 1.516 . S
C339 C340 1.502 . S
C339 C341 1.561 . S
C339 C342 1.526 . S
C340 H324 0.959 . S
C340 H325 0.959 . S
C340 H326 0.961 . S
C340 C339 1.502 . S
C341 H327 0.960 . S
C341 H328 0.961 . S
C341 H329 0.959 . S
C341 C339 1.561 . S
C342 C339 1.526 . S
C342 C343 1.396 . S
C342 C347 1.390 . S
C343 C337 1.465 . S
C343 C342 1.396 . S
C343 C344 1.399 . S
C344 H330 0.929 . S
C344 C343 1.399 . S
C344 C345 1.385 . S
C345 H331 0.931 . S
C345 C344 1.385 . S
C345 C346 1.389 . S
C346 C345 1.389 . S
C346 C347 1.387 . S
C347 H332 0.930 . S
C347 C342 1.390 . S
C347 C346 1.387 . S
H348 C360 0.930 . S
H349 C362 0.930 . S
H350 C363 0.930 . S
H351 C367 0.959 . S
H352 C367 0.959 . S
H353 C367 0.961 . S
H354 C368 0.960 1_455 S
H355 C368 0.961 . S
H356 C368 0.959 . S
H357 C371 0.929 . S
H358 C372 0.931 . S
H359 C374 0.930 . S
C360 H348 0.930 . S
C360 C361 1.399 . S
C360 C365 1.399 . S
C361 C360 1.399 . S
C361 C362 1.376 . S
C362 H349 0.930 . S
C362 C361 1.376 . S
C362 C363 1.388 . S
C363 H350 0.930 . S
C363 C362 1.388 . S
C363 C364 1.390 . S
C364 C363 1.390 . S
C364 C365 1.394 . S
C364 C370 1.465 1_455 S
C365 C360 1.399 . S
C365 C364 1.394 . S
C365 C366 1.516 . S
C366 C365 1.516 . S
C366 C367 1.502 . S
C366 C368 1.561 1_455 S
C366 C369 1.526 1_455 S
C367 H351 0.959 . S
C367 H352 0.959 . S
C367 H353 0.961 . S
C367 C366 1.502 . S
C368 H354 0.960 1_655 S
C368 H355 0.961 . S
C368 H356 0.959 . S
C368 C366 1.561 1_655 S
C369 C366 1.526 1_655 S
C369 C370 1.396 . S
C369 C374 1.390 . S
C370 C364 1.465 1_655 S
C370 C369 1.396 . S
C370 C371 1.399 . S
C371 H357 0.929 . S
C371 C370 1.399 . S
C371 C372 1.385 . S
C372 H358 0.931 . S
C372 C371 1.385 . S
C372 C373 1.389 . S
C373 C372 1.389 . S
C373 C374 1.387 . S
C374 H359 0.930 . S
C374 C369 1.390 . S
C374 C373 1.387 . S
H375 C387 0.930 . S
H376 C389 0.930 . S
H377 C390 0.930 . S
H378 C394 0.959 1_565 S
H379 C394 0.959 1_565 S
H380 C394 0.961 . S
H381 C395 0.960 . S
H382 C395 0.961 . S
H383 C395 0.959 . S
H384 C398 0.929 . S
H385 C399 0.931 . S
H386 C401 0.930 . S
C387 H375 0.930 . S
C387 C388 1.399 . S
C387 C392 1.399 . S
C388 C387 1.399 . S
C388 C389 1.376 . S
C389 H376 0.930 . S
C389 C388 1.376 . S
C389 C390 1.388 . S
C390 H377 0.930 . S
C390 C389 1.388 . S
C390 C391 1.390 . S
C391 C390 1.390 . S
C391 C392 1.394 . S
C391 C397 1.465 1_545 S
C392 C387 1.399 . S
C392 C391 1.394 . S
C392 C393 1.516 . S
C393 C392 1.516 . S
C393 C394 1.502 . S
C393 C395 1.561 . S
C393 C396 1.526 1_545 S
C394 H378 0.959 1_545 S
C394 H379 0.959 1_545 S
C394 H380 0.961 . S
C394 C393 1.502 . S
C395 H381 0.960 . S
C395 H382 0.961 . S
C395 H383 0.959 . S
C395 C393 1.561 . S
C396 C393 1.526 1_565 S
C396 C397 1.396 . S
C396 C401 1.390 . S
C397 C391 1.465 1_565 S
C397 C396 1.396 . S
C397 C398 1.399 . S
C398 H384 0.929 . S
C398 C397 1.399 . S
C398 C399 1.385 . S
C399 H385 0.931 . S
C399 C398 1.385 . S
C399 C400 1.389 . S
C400 C399 1.389 . S
C400 C401 1.387 . S
C401 H386 0.930 . S
C401 C396 1.390 . S
C401 C400 1.387 . S
H402 C414 0.930 . S
H403 C416 0.930 . S
H404 C417 0.930 . S
H405 C421 0.959 . S
H406 C421 0.959 . S
H407 C421 0.961 . S
H408 C422 0.960 . S
H409 C422 0.961 . S
H410 C422 0.959 . S
H411 C425 0.929 . S
H412 C426 0.931 . S
H413 C428 0.930 . S
C414 H402 0.930 . S
C414 C415 1.399 . S
C414 C419 1.399 . S
C415 C414 1.399 . S
C415 C416 1.376 . S
C416 H403 0.930 . S
C416 C415 1.376 . S
C416 C417 1.388 . S
C417 H404 0.930 . S
C417 C416 1.388 . S
C417 C418 1.390 . S
C418 C417 1.390 . S
C418 C419 1.394 . S
C418 C424 1.465 . S
C419 C414 1.399 . S
C419 C418 1.394 . S
C419 C420 1.516 . S
C420 C419 1.516 . S
C420 C421 1.502 . S
C420 C422 1.561 . S
C420 C423 1.526 . S
C421 H405 0.959 . S
C421 H406 0.959 . S
C421 H407 0.961 . S
C421 C420 1.502 . S
C422 H408 0.960 . S
C422 H409 0.961 . S
C422 H410 0.959 . S
C422 C420 1.561 . S
C423 C420 1.526 . S
C423 C424 1.396 . S
C423 C428 1.390 . S
C424 C418 1.465 . S
C424 C423 1.396 . S
C424 C425 1.399 . S
C425 H411 0.929 . S
C425 C424 1.399 . S
C425 C426 1.385 . S
C426 H412 0.931 . S
C426 C425 1.385 . S
C426 C427 1.389 . S
C427 C426 1.389 . S
C427 C428 1.387 . S
C428 H413 0.930 . S
C428 C423 1.390 . S
C428 C427 1.387 . S
H429 C441 0.930 . S
H430 C443 0.930 . S
H431 C444 0.930 . S
H432 C448 0.959 . S
H433 C448 0.959 . S
H434 C448 0.961 . S
H435 C449 0.960 . S
H436 C449 0.961 . S
H437 C449 0.959 . S
H438 C452 0.929 . S
H439 C453 0.931 1_545 S
H440 C455 0.930 . S
C441 H429 0.930 . S
C441 C442 1.399 . S
C441 C446 1.399 . S
C442 C441 1.399 . S
C442 C443 1.376 . S
C443 H430 0.930 . S
C443 C442 1.376 . S
C443 C444 1.388 . S
C444 H431 0.930 . S
C444 C443 1.388 . S
C444 C445 1.390 . S
C445 C444 1.390 . S
C445 C446 1.394 . S
C445 C451 1.465 . S
C446 C441 1.399 . S
C446 C445 1.394 . S
C446 C447 1.516 . S
C447 C446 1.516 . S
C447 C448 1.502 . S
C447 C449 1.561 . S
C447 C450 1.526 . S
C448 H432 0.959 . S
C448 H433 0.959 . S
C448 H434 0.961 . S
C448 C447 1.502 . S
C449 H435 0.960 . S
C449 H436 0.961 . S
C449 H437 0.959 . S
C449 C447 1.561 . S
C450 C447 1.526 . S
C450 C451 1.396 . S
C450 C455 1.390 . S
C451 C445 1.465 . S
C451 C450 1.396 . S
C451 C452 1.399 . S
C452 H438 0.929 . S
C452 C451 1.399 . S
C452 C453 1.385 . S
C453 H439 0.931 1_565 S
C453 C452 1.385 . S
C453 C454 1.389 . S
C454 C453 1.389 . S
C454 C455 1.387 . S
C455 H440 0.930 . S
C455 C450 1.390 . S
C455 C454 1.387 . S
H456 C468 0.930 . S
H457 C470 0.930 . S
H458 C471 0.930 . S
H459 C475 0.959 . S
H460 C475 0.959 . S
H461 C475 0.961 . S
H462 C476 0.960 . S
H463 C476 0.961 . S
H464 C476 0.959 . S
H465 C479 0.929 . S
H466 C480 0.931 . S
H467 C482 0.930 . S
C468 H456 0.930 . S
C468 C469 1.399 . S
C468 C473 1.399 . S
C469 C468 1.399 . S
C469 C470 1.376 . S
C470 H457 0.930 . S
C470 C469 1.376 . S
C470 C471 1.388 . S
C471 H458 0.930 . S
C471 C470 1.388 . S
C471 C472 1.390 . S
C472 C471 1.390 . S
C472 C473 1.394 . S
C472 C478 1.465 . S
C473 C468 1.399 . S
C473 C472 1.394 . S
C473 C474 1.516 . S
C474 C473 1.516 . S
C474 C475 1.502 . S
C474 C476 1.561 . S
C474 C477 1.526 . S
C475 H459 0.959 . S
C475 H460 0.959 . S
C475 H461 0.961 . S
C475 C474 1.502 . S
C476 H462 0.960 . S
C476 H463 0.961 . S
C476 H464 0.959 . S
C476 C474 1.561 . S
C477 C474 1.526 . S
C477 C478 1.396 . S
C477 C482 1.390 . S
C478 C472 1.465 . S
C478 C477 1.396 . S
C478 C479 1.399 . S
C479 H465 0.929 . S
C479 C478 1.399 . S
C479 C480 1.385 . S
C480 H466 0.931 . S
C480 C479 1.385 . S
C480 C481 1.389 . S
C481 C480 1.389 . S
C481 C482 1.387 . S
C482 H467 0.930 . S
C482 C477 1.390 . S
C482 C481 1.387 . S
H483 C495 0.930 . S
H484 C497 0.930 . S
H485 C498 0.930 . S
H486 C502 0.959 . S
H487 C502 0.959 . S
H488 C502 0.961 . S
H489 C503 0.960 . S
H490 C503 0.961 . S
H491 C503 0.959 . S
H492 C506 0.929 . S
H493 C507 0.931 . S
H494 C509 0.930 . S
C495 H483 0.930 . S
C495 C496 1.399 1_556 S
C495 C500 1.399 . S
C496 C495 1.399 1_554 S
C496 C497 1.376 . S
C497 H484 0.930 . S
C497 C496 1.376 . S
C497 C498 1.388 . S
C498 H485 0.930 . S
C498 C497 1.388 . S
C498 C499 1.390 . S
C499 C498 1.390 . S
C499 C500 1.394 1_554 S
C499 C505 1.465 . S
C500 C495 1.399 . S
C500 C499 1.394 1_556 S
C500 C501 1.516 . S
C501 C500 1.516 . S
C501 C502 1.502 . S
C501 C503 1.561 . S
C501 C504 1.554 . S
C502 H486 0.959 . S
C502 H487 0.959 . S
C502 H488 0.961 . S
C502 C501 1.502 . S
C503 H489 0.960 . S
C503 H490 0.961 . S
C503 H491 0.959 . S
C503 C501 1.561 . S
C504 C501 1.554 . S
C504 C505 1.355 1_556 S
C504 C509 1.399 . S
C505 C499 1.465 . S
C505 C504 1.355 1_554 S
C505 C506 1.399 . S
C506 H492 0.929 . S
C506 C505 1.399 . S
C506 C507 1.385 . S
C507 H493 0.931 . S
C507 C506 1.385 . S
C507 C508 1.389 . S
C508 C507 1.389 . S
C508 C509 1.387 1_554 S
C509 H494 0.930 . S
C509 C504 1.399 . S
C509 C508 1.387 1_556 S
H510 C522 0.930 . S
H511 C524 0.930 . S
H512 C525 0.930 . S
H513 C529 0.959 . S
H514 C529 0.959 . S
H515 C529 0.961 . S
H516 C530 0.960 . S
H517 C530 0.961 . S
H518 C530 0.959 . S
H519 C533 0.929 . S
H520 C534 0.931 . S
H521 C536 0.930 . S
C522 H510 0.930 . S
C522 C523 1.399 . S
C522 C527 1.399 . S
C523 C522 1.399 . S
C523 C524 1.376 . S
C524 H511 0.930 . S
C524 C523 1.376 . S
C524 C525 1.388 . S
C525 H512 0.930 . S
C525 C524 1.388 . S
C525 C526 1.390 . S
C526 C525 1.390 . S
C526 C527 1.394 . S
C526 C532 1.465 . S
C527 C522 1.399 . S
C527 C526 1.394 . S
C527 C528 1.516 . S
C528 C527 1.516 . S
C528 C529 1.502 . S
C528 C530 1.561 . S
C528 C531 1.526 . S
C529 H513 0.959 . S
C529 H514 0.959 . S
C529 H515 0.961 . S
C529 C528 1.502 . S
C530 H516 0.960 . S
C530 H517 0.961 . S
C530 H518 0.959 . S
C530 C528 1.561 . S
C531 C528 1.526 . S
C531 C532 1.396 . S
C531 C536 1.390 . S
C532 C526 1.465 . S
C532 C531 1.396 . S
C532 C533 1.399 . S
C533 H519 0.929 . S
C533 C532 1.399 . S
C533 C534 1.385 . S
C534 H520 0.931 . S
C534 C533 1.385 . S
C534 C535 1.389 . S
C535 C534 1.389 . S
C535 C536 1.387 . S
C536 H521 0.930 . S
C536 C531 1.390 . S
C536 C535 1.387 . S
H537 C549 0.930 . S
H538 C551 0.930 . S
H539 C552 0.930 . S
H540 C556 0.959 . S
H541 C556 0.959 . S
H542 C556 0.961 . S
H543 C557 0.960 . S
H544 C557 0.961 . S
H545 C557 0.959 . S
H546 C560 0.929 . S
H547 C561 0.931 . S
H548 C563 0.930 . S
C549 H537 0.930 . S
C549 C550 1.399 . S
C549 C554 1.399 . S
C550 C549 1.399 . S
C550 C551 1.376 . S
C551 H538 0.930 . S
C551 C550 1.376 . S
C551 C552 1.388 . S
C552 H539 0.930 . S
C552 C551 1.388 . S
C552 C553 1.390 . S
C553 C552 1.390 . S
C553 C554 1.394 . S
C553 C559 1.465 . S
C554 C549 1.399 . S
C554 C553 1.394 . S
C554 C555 1.516 . S
C555 C554 1.516 . S
C555 C556 1.502 . S
C555 C557 1.561 . S
C555 C558 1.526 . S
C556 H540 0.959 . S
C556 H541 0.959 . S
C556 H542 0.961 . S
C556 C555 1.502 . S
C557 H543 0.960 . S
C557 H544 0.961 . S
C557 H545 0.959 . S
C557 C555 1.561 . S
C558 C555 1.526 . S
C558 C559 1.396 . S
C558 C563 1.390 . S
C559 C553 1.465 . S
C559 C558 1.396 . S
C559 C560 1.399 . S
C560 H546 0.929 . S
C560 C559 1.399 . S
C560 C561 1.385 . S
C561 H547 0.931 . S
C561 C560 1.385 . S
C561 C562 1.389 . S
C562 C561 1.389 . S
C562 C563 1.387 . S
C563 H548 0.930 . S
C563 C558 1.390 . S
C563 C562 1.387 . S
H564 C576 0.930 . S
H565 C578 0.930 . S
H566 C579 0.930 . S
H567 C583 0.959 . S
H568 C583 0.959 . S
H569 C583 0.961 . S
H570 C584 0.960 . S
H571 C584 0.961 . S
H572 C584 0.959 . S
H573 C587 0.929 . S
H574 C588 0.931 . S
H575 C590 0.930 . S
C576 H564 0.930 . S
C576 C577 1.399 . S
C576 C581 1.399 . S
C577 C576 1.399 . S
C577 C578 1.376 . S
C578 H565 0.930 . S
C578 C577 1.376 . S
C578 C579 1.388 . S
C579 H566 0.930 . S
C579 C578 1.388 . S
C579 C580 1.390 . S
C580 C579 1.390 . S
C580 C581 1.394 . S
C580 C586 1.465 . S
C581 C576 1.399 . S
C581 C580 1.394 . S
C581 C582 1.516 . S
C582 C581 1.516 . S
C582 C583 1.502 . S
C582 C584 1.561 . S
C582 C585 1.526 . S
C583 H567 0.959 . S
C583 H568 0.959 . S
C583 H569 0.961 . S
C583 C582 1.502 . S
C584 H570 0.960 . S
C584 H571 0.961 . S
C584 H572 0.959 . S
C584 C582 1.561 . S
C585 C582 1.526 . S
C585 C586 1.396 . S
C585 C590 1.390 . S
C586 C580 1.465 . S
C586 C585 1.396 . S
C586 C587 1.399 . S
C587 H573 0.929 . S
C587 C586 1.399 . S
C587 C588 1.385 . S
C588 H574 0.931 . S
C588 C587 1.385 . S
C588 C589 1.389 . S
C589 C588 1.389 . S
C589 C590 1.387 . S
C590 H575 0.930 . S
C590 C585 1.390 . S
C590 C589 1.387 . S
H591 C603 0.930 . S
H592 C605 0.930 . S
H593 C606 0.930 . S
H594 C610 0.959 . S
H595 C610 0.959 . S
H596 C610 0.961 . S
H597 C611 0.960 . S
H598 C611 0.961 . S
H599 C611 0.959 . S
H600 C614 0.929 . S
H601 C615 0.931 . S
H602 C617 0.930 . S
C603 H591 0.930 . S
C603 C604 1.399 . S
C603 C608 1.399 . S
C604 C603 1.399 . S
C604 C605 1.376 . S
C605 H592 0.930 . S
C605 C604 1.376 . S
C605 C606 1.388 . S
C606 H593 0.930 . S
C606 C605 1.388 . S
C606 C607 1.390 . S
C607 C606 1.390 . S
C607 C608 1.394 . S
C607 C613 1.465 . S
C608 C603 1.399 . S
C608 C607 1.394 . S
C608 C609 1.516 . S
C609 C608 1.516 . S
C609 C610 1.502 . S
C609 C611 1.561 . S
C609 C612 1.526 . S
C610 H594 0.959 . S
C610 H595 0.959 . S
C610 H596 0.961 . S
C610 C609 1.502 . S
C611 H597 0.960 . S
C611 H598 0.961 . S
C611 H599 0.959 . S
C611 C609 1.561 . S
C612 C609 1.526 . S
C612 C613 1.396 . S
C612 C617 1.390 . S
C613 C607 1.465 . S
C613 C612 1.396 . S
C613 C614 1.399 . S
C614 H600 0.929 . S
C614 C613 1.399 . S
C614 C615 1.385 . S
C615 H601 0.931 . S
C615 C614 1.385 . S
C615 C616 1.389 . S
C616 C615 1.389 . S
C616 C617 1.387 . S
C617 H602 0.930 . S
C617 C612 1.390 . S
C617 C616 1.387 . S
H618 C630 0.930 . S
H619 C632 0.930 . S
H620 C633 0.930 . S
H621 C637 0.959 . S
H622 C637 0.959 . S
H623 C637 0.961 . S
H624 C638 0.960 . S
H625 C638 0.961 . S
H626 C638 0.959 . S
H627 C641 0.929 . S
H628 C642 0.931 . S
H629 C644 0.930 . S
C630 H618 0.930 . S
C630 C631 1.399 . S
C630 C635 1.399 . S
C631 C630 1.399 . S
C631 C632 1.376 . S
C632 H619 0.930 . S
C632 C631 1.376 . S
C632 C633 1.388 . S
C633 H620 0.930 . S
C633 C632 1.388 . S
C633 C634 1.390 . S
C634 C633 1.390 . S
C634 C635 1.394 . S
C634 C640 1.465 . S
C635 C630 1.399 . S
C635 C634 1.394 . S
C635 C636 1.516 . S
C636 C635 1.516 . S
C636 C637 1.502 . S
C636 C638 1.561 . S
C636 C639 1.526 . S
C637 H621 0.959 . S
C637 H622 0.959 . S
C637 H623 0.961 . S
C637 C636 1.502 . S
C638 H624 0.960 . S
C638 H625 0.961 . S
C638 H626 0.959 . S
C638 C636 1.561 . S
C639 C636 1.526 . S
C639 C640 1.396 . S
C639 C644 1.390 . S
C640 C634 1.465 . S
C640 C639 1.396 . S
C640 C641 1.399 . S
C641 H627 0.929 . S
C641 C640 1.399 . S
C641 C642 1.385 . S
C642 H628 0.931 . S
C642 C641 1.385 . S
C642 C643 1.389 . S
C643 C642 1.389 . S
C643 C644 1.387 . S
C644 H629 0.930 . S
C644 C639 1.390 . S
C644 C643 1.387 . S
H645 C657 0.930 . S
H646 C659 0.930 . S
H647 C660 0.930 . S
H648 C664 0.959 . S
H649 C664 0.959 . S
H650 C664 0.961 . S
H651 C665 0.960 . S
H652 C665 0.961 . S
H653 C665 0.959 . S
H654 C668 0.929 . S
H655 C669 0.931 . S
H656 C671 0.930 . S
C657 H645 0.930 . S
C657 C658 1.399 . S
C657 C662 1.399 . S
C658 C657 1.399 . S
C658 C659 1.376 . S
C659 H646 0.930 . S
C659 C658 1.376 . S
C659 C660 1.388 . S
C660 H647 0.930 . S
C660 C659 1.388 . S
C660 C661 1.390 . S
C661 C660 1.390 . S
C661 C662 1.394 . S
C661 C667 1.465 . S
C662 C657 1.399 . S
C662 C661 1.394 . S
C662 C663 1.516 . S
C663 C662 1.516 . S
C663 C664 1.502 1_565 S
C663 C665 1.561 . S
C663 C666 1.526 . S
C664 H648 0.959 . S
C664 H649 0.959 . S
C664 H650 0.961 . S
C664 C663 1.502 1_545 S
C665 H651 0.960 . S
C665 H652 0.961 . S
C665 H653 0.959 . S
C665 C663 1.561 . S
C666 C663 1.526 . S
C666 C667 1.396 . S
C666 C671 1.390 . S
C667 C661 1.465 . S
C667 C666 1.396 . S
C667 C668 1.399 . S
C668 H654 0.929 . S
C668 C667 1.399 . S
C668 C669 1.385 . S
C669 H655 0.931 . S
C669 C668 1.385 . S
C669 C670 1.389 . S
C670 C669 1.389 . S
C670 C671 1.387 . S
C671 H656 0.930 . S
C671 C666 1.390 . S
C671 C670 1.387 . S
H672 C684 0.930 . S
H673 C686 0.930 . S
H674 C687 0.930 . S
H675 C691 0.959 . S
H676 C691 0.959 . S
H677 C691 0.961 . S
H678 C692 0.960 . S
H679 C692 0.961 . S
H680 C692 0.959 . S
H681 C695 0.929 . S
H682 C696 0.931 . S
H683 C698 0.930 . S
C684 H672 0.930 . S
C684 C685 1.402 1_655 S
C684 C689 1.399 1_655 S
C685 C684 1.402 1_455 S
C685 C686 1.377 . S
C686 H673 0.930 . S
C686 C685 1.377 . S
C686 C687 1.388 . S
C687 H674 0.930 . S
C687 C686 1.388 . S
C687 C688 1.390 . S
C688 C687 1.390 . S
C688 C689 1.394 . S
C688 C694 1.465 . S
C689 C684 1.399 1_455 S
C689 C688 1.394 . S
C689 C690 1.516 . S
C690 C689 1.516 . S
C690 C691 1.502 1_455 S
C690 C692 1.561 . S
C690 C693 1.526 . S
C691 H675 0.959 . S
C691 H676 0.959 . S
C691 H677 0.961 . S
C691 C690 1.502 1_655 S
C692 H678 0.960 . S
C692 H679 0.961 . S
C692 H680 0.959 . S
C692 C690 1.561 . S
C693 C690 1.526 . S
C693 C694 1.396 . S
C693 C698 1.390 . S
C694 C688 1.465 . S
C694 C693 1.396 . S
C694 C695 1.399 . S
C695 H681 0.929 . S
C695 C694 1.399 . S
C695 C696 1.385 . S
C696 H682 0.931 . S
C696 C695 1.385 . S
C696 C697 1.389 . S
C697 C696 1.389 . S
C697 C698 1.387 . S
C698 H683 0.930 . S
C698 C693 1.390 . S
C698 C697 1.387 . S
H699 C711 0.930 . S
H700 C713 0.930 . S
H701 C714 0.930 . S
H702 C718 0.959 . S
H703 C718 0.959 . S
H704 C718 0.961 . S
H705 C719 0.960 . S
H706 C719 0.961 . S
H707 C719 0.959 . S
H708 C722 0.929 . S
H709 C723 0.931 . S
H710 C725 0.930 . S
C711 H699 0.930 . S
C711 C712 1.399 1_545 S
C711 C716 1.399 . S
C712 C711 1.399 1_565 S
C712 C713 1.376 . S
C713 H700 0.930 . S
C713 C712 1.376 . S
C713 C714 1.388 . S
C714 H701 0.930 . S
C714 C713 1.388 . S
C714 C715 1.390 1_565 S
C715 C714 1.390 1_545 S
C715 C716 1.394 . S
C715 C721 1.465 . S
C716 C711 1.399 . S
C716 C715 1.394 . S
C716 C717 1.516 . S
C717 C716 1.516 . S
C717 C718 1.502 . S
C717 C719 1.561 . S
C717 C720 1.526 . S
C718 H702 0.959 . S
C718 H703 0.959 . S
C718 H704 0.961 . S
C718 C717 1.502 . S
C719 H705 0.960 . S
C719 H706 0.961 . S
C719 H707 0.959 . S
C719 C717 1.561 . S
C720 C717 1.526 . S
C720 C721 1.396 . S
C720 C725 1.390 . S
C721 C715 1.465 . S
C721 C720 1.396 . S
C721 C722 1.399 1_545 S
C722 H708 0.929 . S
C722 C721 1.399 1_565 S
C722 C723 1.385 1_565 S
C723 H709 0.931 . S
C723 C722 1.385 1_545 S
C723 C724 1.389 . S
C724 C723 1.389 . S
C724 C725 1.387 . S
C725 H710 0.930 . S
C725 C720 1.390 . S
C725 C724 1.387 . S
C253 C129 0.513 . S
C265 C9 0.684 . S
C280 C169 0.775 . S
C292 C49 0.642 . S
C307 C209 0.565 . S
C319 C89 0.791 . S
C334 C15 0.637 . S
C346 C86 0.837 . S
C361 C55 0.851 . S
C373 C126 0.749 . S
C388 C95 0.640 . S
C400 C166 0.833 . S
C415 C135 0.683 . S
C427 C206 0.869 1_655 S
C442 C175 0.631 . S
C454 C6 0.867 1_565 S
C469 C215 0.876 . S
C481 C46 0.710 . S
C496 C18 1.275 . S
C508 C138 1.261 1_545 S
C523 C58 1.210 . S
C535 C178 1.235 . S
C550 C98 1.208 1_455 S
C562 C218 1.225 . S
C577 C10 4.059 . S
C589 C59 4.143 . S
C604 C50 4.066 . S
C616 C99 4.134 . S
C631 C90 4.069 . S
C643 C139 4.142 . S
C658 C130 4.078 . S
C670 C179 4.131 . S
C685 C170 4.056 1_455 S
C697 C219 4.141 . S
C712 C210 4.081 . S
C724 C19 4.136 . S
