# Generated by pormake.
# Topology wjh, (4)-cn, num edge types: 1
# Building blocks:
#     Node 0, Type 0, BuildingBlock: TATPOV_clean_sbu_0, # of connection points: 4
#     Node 1, Type 0, BuildingBlock: TATPOV_clean_sbu_0, # of connection points: 4
#     Node 2, Type 0, BuildingBlock: TATPOV_clean_sbu_0, # of connection points: 4
#     Node 3, Type 0, BuildingBlock: TATPOV_clean_sbu_0, # of connection points: 4
#     Node 4, Type 0, BuildingBlock: TATPOV_clean_sbu_0, # of connection points: 4
#     Node 5, Type 0, BuildingBlock: TATPOV_clean_sbu_0, # of connection points: 4
#     Node 6, Type 0, BuildingBlock: TATPOV_clean_sbu_0, # of connection points: 4
#     Node 7, Type 0, BuildingBlock: TATPOV_clean_sbu_0, # of connection points: 4
#     Node 8, Type 0, BuildingBlock: TATPOV_clean_sbu_0, # of connection points: 4
#     Node 9, Type 0, BuildingBlock: TATPOV_clean_sbu_0, # of connection points: 4
#     Node 10, Type 0, BuildingBlock: TATPOV_clean_sbu_0, # of connection points: 4
#     Node 11, Type 0, BuildingBlock: TATPOV_clean_sbu_0, # of connection points: 4
#     Edge 12, Type (0, 0), BuildingBlock: EZIPEK_clean_linker_0, # of connection points: 2
#     Edge 13, Type (0, 0), BuildingBlock: EZIPEK_clean_linker_0, # of connection points: 2
#     Edge 14, Type (0, 0), BuildingBlock: EZIPEK_clean_linker_0, # of connection points: 2
#     Edge 15, Type (0, 0), BuildingBlock: EZIPEK_clean_linker_0, # of connection points: 2
#     Edge 16, Type (0, 0), BuildingBlock: EZIPEK_clean_linker_0, # of connection points: 2
#     Edge 17, Type (0, 0), BuildingBlock: EZIPEK_clean_linker_0, # of connection points: 2
#     Edge 18, Type (0, 0), BuildingBlock: EZIPEK_clean_linker_0, # of connection points: 2
#     Edge 19, Type (0, 0), BuildingBlock: EZIPEK_clean_linker_0, # of connection points: 2
#     Edge 20, Type (0, 0), BuildingBlock: EZIPEK_clean_linker_0, # of connection points: 2
#     Edge 21, Type (0, 0), BuildingBlock: EZIPEK_clean_linker_0, # of connection points: 2
#     Edge 22, Type (0, 0), BuildingBlock: EZIPEK_clean_linker_0, # of connection points: 2
#     Edge 23, Type (0, 0), BuildingBlock: EZIPEK_clean_linker_0, # of connection points: 2
#     Edge 24, Type (0, 0), BuildingBlock: EZIPEK_clean_linker_0, # of connection points: 2
#     Edge 25, Type (0, 0), BuildingBlock: EZIPEK_clean_linker_0, # of connection points: 2
#     Edge 26, Type (0, 0), BuildingBlock: EZIPEK_clean_linker_0, # of connection points: 2
#     Edge 27, Type (0, 0), BuildingBlock: EZIPEK_clean_linker_0, # of connection points: 2
#     Edge 28, Type (0, 0), BuildingBlock: EZIPEK_clean_linker_0, # of connection points: 2
#     Edge 29, Type (0, 0), BuildingBlock: EZIPEK_clean_linker_0, # of connection points: 2
#     Edge 30, Type (0, 0), BuildingBlock: EZIPEK_clean_linker_0, # of connection points: 2
#     Edge 31, Type (0, 0), BuildingBlock: EZIPEK_clean_linker_0, # of connection points: 2
#     Edge 32, Type (0, 0), BuildingBlock: EZIPEK_clean_linker_0, # of connection points: 2
#     Edge 33, Type (0, 0), BuildingBlock: EZIPEK_clean_linker_0, # of connection points: 2
#     Edge 34, Type (0, 0), BuildingBlock: EZIPEK_clean_linker_0, # of connection points: 2
#     Edge 35, Type (0, 0), BuildingBlock: EZIPEK_clean_linker_0, # of connection points: 2
# Relax obj value: 0.163
# Max RMSD: 0.153
# Mean RMSD: 0.153
data_MOF--net-wjh--node1-TATPOV_clean_sbu_0--edge1-EZIPEK_clean_linker_0
_symmetry_space_group_name_H-M    P1
_symmetry_Int_Tables_number       1
_symmetry_cell_setting            triclinic
loop_
_symmetry_equiv_pos_as_xyz
'x, y, z'
_cell_length_a     46.108291
_cell_length_b     45.737487
_cell_length_c     17.540378
_cell_angle_alpha  90.028337
_cell_angle_beta   89.894945
_cell_angle_gamma 120.06096
loop_
_atom_site_label
_atom_site_type_symbol
_atom_site_fract_x
_atom_site_fract_y
_atom_site_fract_z
_atom_type_partial_charge
Zn0 Zn 0.47674 0.13364 0.26539 0.0
Zn1 Zn 0.51489 0.14157 0.13585 0.0
O2 O 0.50967 0.18403 0.13461 0.0
O3 O 0.47971 0.17685 0.2391 0.0
O4 O 0.5456 0.14462 0.04695 0.0
O5 O 0.44014 0.09072 0.22122 0.0
O6 O 0.47015 0.09843 0.1168 0.0
C7 C 0.49481 0.19388 0.18074 0.0
C8 C 0.53561 0.13341 0.29946 0.0
O9 O 0.53947 0.13642 0.22743 0.0
O10 O 0.51079 0.13281 0.33155 0.0
C11 C 0.53498 0.12813 0.98484 0.0
O12 O 0.50254 0.10975 0.97334 0.0
C13 C 0.44339 0.08136 0.15548 0.0
Zn14 Zn 0.30034 0.40488 0.43015 0.0
Zn15 Zn 0.32592 0.44839 0.30504 0.0
O16 O 0.28884 0.45687 0.34643 0.0
O17 O 0.27124 0.42503 0.4502 0.0
O18 O 0.35005 0.48093 0.21487 0.0
O19 O 0.28665 0.36564 0.35954 0.0
O20 O 0.30982 0.40099 0.26392 0.0
C21 C 0.27013 0.44618 0.40558 0.0
C22 C 0.36979 0.45147 0.44279 0.0
O23 O 0.36401 0.46202 0.38058 0.0
O24 O 0.34607 0.42656 0.4767 0.0
C25 C 0.34224 0.4747 0.14459 0.0
O26 O 0.3152 0.44643 0.12553 0.0
C27 C 0.29482 0.37086 0.28987 0.0
Zn28 Zn 0.89305 0.31762 0.50407 0.0
Zn29 Zn 0.85683 0.32288 0.39023 0.0
O30 O 0.82967 0.27246 0.42079 0.0
O31 O 0.85839 0.2691 0.51802 0.0
O32 O 0.83372 0.33165 0.30029 0.0
O33 O 0.93376 0.33333 0.44032 0.0
O34 O 0.90611 0.34415 0.35402 0.0
C35 C 0.83289 0.25575 0.47537 0.0
C36 C 0.86509 0.35917 0.54009 0.0
O37 O 0.85078 0.34889 0.47591 0.0
O38 O 0.88672 0.35178 0.56251 0.0
C39 C 0.84664 0.36245 0.27977 0.0
O40 O 0.87312 0.38566 0.31582 0.0
C41 C 0.93324 0.34608 0.37676 0.0
Zn42 Zn 0.46073 0.83114 0.70209 0.0
Zn43 Zn 0.43834 0.8312 0.55469 0.0
O44 O 0.43336 0.78372 0.56392 0.0
O45 O 0.45181 0.78477 0.681 0.0
O46 O 0.42093 0.83522 0.44973 0.0
O47 O 0.50448 0.87204 0.67612 0.0
O48 O 0.48698 0.87103 0.55833 0.0
C49 C 0.43979 0.76953 0.61884 0.0
C50 C 0.40534 0.84127 0.69753 0.0
O51 O 0.40818 0.83943 0.62589 0.0
O52 O 0.42442 0.83779 0.7435 0.0
C53 C 0.39024 0.82672 0.44056 0.0
O54 O 0.3689 0.81151 0.49644 0.0
C55 C 0.50941 0.88458 0.60991 0.0
Zn56 Zn 0.63858 0.54904 0.86086 0.0
Zn57 Zn 0.60583 0.5127 0.74056 0.0
O58 O 0.64973 0.51025 0.74418 0.0
O59 O 0.67384 0.53726 0.8507 0.0
O60 O 0.58174 0.48977 0.63989 0.0
O61 O 0.64463 0.59303 0.8274 0.0
O62 O 0.60637 0.55835 0.74596 0.0
C63 C 0.67289 0.51977 0.7941 0.0
C64 C 0.57497 0.4912 0.89484 0.0
O65 O 0.5751 0.4837 0.82503 0.0
O66 O 0.5981 0.5184 0.92283 0.0
C67 C 0.56384 0.45774 0.633 0.0
O68 O 0.56093 0.4384 0.69123 0.0
C69 C 0.62185 0.58694 0.77967 0.0
Zn70 Zn 0.07627 0.66214 0.07836 0.0
Zn71 Zn 0.09124 0.64654 0.93632 0.0
O72 O 0.11355 0.698 0.93087 0.0
O73 O 0.10857 0.71016 0.05048 0.0
O74 O 0.09779 0.62955 0.83153 0.0
O75 O 0.02749 0.63899 0.0559 0.0
O76 O 0.04018 0.62095 0.95097 0.0
C77 C 0.12084 0.71947 0.98441 0.0
C78 C 0.11408 0.62895 0.08515 0.0
O79 O 0.11636 0.63388 1.01339 0.0
O80 O 0.0953 0.63565 0.12515 0.0
C81 C 0.1195 0.6206 0.81851 0.0
O82 O 0.14014 0.62325 0.87305 0.0
C83 C 0.01858 0.62072 0.99691 0.0
Zn84 Zn 0.84407 0.50389 0.77916 0.0
Zn85 Zn 0.81847 0.45924 0.89436 0.0
O86 O 0.78093 0.47108 0.87789 0.0
O87 O 0.80064 0.50267 0.77413 0.0
O88 O 0.8068 0.42475 0.98104 0.0
O89 O 0.88145 0.53813 0.84028 0.0
O90 O 0.86362 0.49914 0.93006 0.0
C91 C 0.77791 0.48813 0.82378 0.0
C92 C 0.83809 0.44207 0.74012 0.0
O93 O 0.82263 0.43329 0.80364 0.0
O94 O 0.852 0.4724 0.71811 0.0
C95 C 0.81849 0.4336 0.04825 0.0
O96 O 0.83416 0.46574 0.06662 0.0
C97 C 0.88517 0.52811 0.90459 0.0
Zn98 Zn 0.29 0.90838 0.94057 0.0
Zn99 Zn 0.31039 0.87774 0.04882 0.0
O100 O 0.25934 0.84911 0.03673 0.0
O101 O 0.24165 0.87728 0.96684 0.0
O102 O 0.32562 0.85652 0.13134 0.0
O103 O 0.31927 0.95339 0.99007 0.0
O104 O 0.33299 0.92744 0.07671 0.0
C105 C 0.23562 0.85141 1.00513 0.0
C106 C 0.32832 0.87812 0.88359 0.0
O107 O 0.33143 0.87255 0.95326 0.0
O108 O 0.31108 0.89141 0.86381 0.0
C109 C 0.33387 0.86907 0.19803 0.0
O110 O 0.33058 0.8951 0.21634 0.0
C111 C 0.33569 0.95432 0.04858 0.0
Zn112 Zn 0.42211 0.32466 0.09786 0.0
Zn113 Zn 0.44825 0.35142 0.23344 0.0
O114 O 0.45699 0.31136 0.22305 0.0
O115 O 0.44095 0.29439 0.10472 0.0
O116 O 0.46758 0.37332 0.33819 0.0
O117 O 0.37541 0.30986 0.12737 0.0
O118 O 0.39865 0.34061 0.23047 0.0
C119 C 0.45431 0.29273 0.16613 0.0
C120 C 0.47375 0.39199 0.08667 0.0
O121 O 0.47721 0.38803 0.15717 0.0
O122 O 0.44999 0.36925 0.04836 0.0
C123 C 0.49916 0.39206 0.34735 0.0
O124 O 0.51928 0.39663 0.2898 0.0
C125 C 0.37319 0.32383 0.18741 0.0
Zn126 Zn 0.13334 0.4866 0.28989 0.0
Zn127 Zn 0.12575 0.51426 0.4137 0.0
O128 O 0.16227 0.50238 0.44462 0.0
O129 O 0.16491 0.47641 0.34075 0.0
O130 O 0.1172 0.53471 0.51039 0.0
O131 O 0.08576 0.45138 0.2815 0.0
O132 O 0.079 0.47193 0.3899 0.0
C133 C 0.17438 0.48684 0.40771 0.0
C134 C 0.15246 0.55413 0.26246 0.0
O135 O 0.14209 0.55187 0.33106 0.0
O136 O 0.15123 0.52864 0.2315 0.0
C137 C 0.13698 0.56449 0.535 0.0
O138 O 0.16471 0.58406 0.49728 0.0
C139 C 0.06725 0.45034 0.3357 0.0
Zn140 Zn 0.66261 0.07419 0.50262 0.0
Zn141 Zn 0.64499 0.09315 0.63175 0.0
O142 O 0.69616 0.12636 0.61939 0.0
O143 O 0.70988 0.11002 0.51327 0.0
O144 O 0.62869 0.10208 0.73426 0.0
O145 O 0.64466 0.02607 0.53204 0.0
O146 O 0.62312 0.04096 0.62632 0.0
C147 C 0.71753 0.13079 0.56746 0.0
C148 C 0.61882 0.10171 0.48233 0.0
O149 O 0.62196 0.1066 0.55379 0.0
O150 O 0.6324 0.08735 0.44773 0.0
C151 C 0.61691 0.12203 0.73956 0.0
O152 O 0.61841 0.1402 0.68015 0.0
C153 C 0.6248 0.01812 0.5879 0.0
Zn154 Zn 0.48908 0.62498 0.65228 0.0
Zn155 Zn 0.45532 0.59963 0.75824 0.0
O156 O 0.44921 0.64068 0.72679 0.0
O157 O 0.46141 0.64191 0.60534 0.0
O158 O 0.42864 0.57902 0.85814 0.0
O159 O 0.53138 0.65688 0.70741 0.0
O160 O 0.5044 0.61106 0.77677 0.0
C161 C 0.45028 0.65176 0.65922 0.0
C162 C 0.45376 0.55781 0.62732 0.0
O163 O 0.4359 0.56164 0.67772 0.0
O164 O 0.48339 0.58119 0.6151 0.0
C165 C 0.42467 0.55135 0.88541 0.0
O166 O 0.43866 0.5362 0.85022 0.0
C167 C 0.53198 0.63586 0.75289 0.0
C168 C 0.59254 0.14908 0.34851 0.0
C169 C 0.55761 0.12598 0.34561 0.0
C170 C 0.56276 0.09077 0.4428 0.0
C171 C 0.59798 0.11159 0.43926 0.0
N172 N 0.64738 0.1588 0.38497 0.0
N173 N 0.51063 0.07082 0.37561 0.0
C174 C 0.61324 0.14023 0.39074 0.0
C175 C 0.54295 0.09571 0.38892 0.0
N176 N 0.60564 0.17987 0.31365 0.0
N177 N 0.54816 0.06645 0.49779 0.0
H178 H 0.49556 0.07258 0.33369 0.0
H179 H 0.49997 0.0469 0.40025 0.0
H180 H 0.56183 0.06204 0.53883 0.0
H181 H 0.52238 0.0529 0.5073 0.0
H182 H 0.63037 0.19912 0.32036 0.0
H183 H 0.59108 0.1873 0.28286 0.0
H184 H 0.65986 0.17764 0.34432 0.0
H185 H 0.66334 0.15402 0.41806 0.0
C186 C 0.42505 0.50394 0.44956 0.0
C187 C 0.40229 0.47266 0.48249 0.0
C188 C 0.42518 0.4951 0.6085 0.0
C189 C 0.43926 0.52808 0.57705 0.0
N190 N 0.45198 0.56409 0.46544 0.0
N191 N 0.39235 0.43434 0.58581 0.0
C192 C 0.43993 0.53271 0.49671 0.0
C193 C 0.40613 0.46678 0.56013 0.0
N194 N 0.43204 0.50591 0.37352 0.0
N195 N 0.43032 0.49125 0.68365 0.0
H196 H 0.38248 0.41393 0.54814 0.0
H197 H 0.39235 0.42755 0.64233 0.0
H198 H 0.44589 0.5117 0.71828 0.0
H199 H 0.42045 0.46814 0.71145 0.0
H200 H 0.45035 0.52795 0.34728 0.0
H201 H 0.42232 0.48428 0.33952 0.0
H202 H 0.44972 0.5678 0.40762 0.0
H203 H 0.4611 0.58615 0.4974 0.0
C204 C 0.84878 0.39369 0.72054 0.0
C205 C 0.84029 0.41724 0.69056 0.0
C206 C 0.84994 0.40417 0.5616 0.0
C207 C 0.85516 0.3783 0.59101 0.0
N208 N 0.84717 0.34099 0.69701 0.0
N209 N 0.82147 0.43564 0.58158 0.0
C210 C 0.8507 0.37063 0.67009 0.0
C211 C 0.83712 0.41946 0.61066 0.0
N212 N 0.85702 0.39437 0.79556 0.0
N213 N 0.85899 0.41571 0.48872 0.0
H214 H 0.80998 0.44552 0.61609 0.0
H215 H 0.81644 0.43552 0.5236 0.0
H216 H 0.87141 0.40748 0.45271 0.0
H217 H 0.85791 0.43644 0.46757 0.0
H218 H 0.86623 0.37936 0.81721 0.0
H219 H 0.8584 0.41228 0.83423 0.0
H220 H 0.84126 0.3335 0.75375 0.0
H221 H 0.84587 0.32211 0.66137 0.0
C222 C 0.39079 0.88462 0.73514 0.0
C223 C 0.38128 0.85009 0.72852 0.0
C224 C 0.33469 0.83361 0.8164 0.0
C225 C 0.34463 0.86829 0.82513 0.0
N226 N 0.37821 0.92648 0.78483 0.0
N227 N 0.34062 0.79139 0.74497 0.0
C228 C 0.37119 0.89369 0.7811 0.0
C229 C 0.35192 0.82444 0.76335 0.0
N230 N 0.41967 0.90872 0.70108 0.0
N231 N 0.30954 0.80962 0.86057 0.0
H232 H 0.35298 0.78425 0.70574 0.0
H233 H 0.31768 0.7714 0.76283 0.0
H234 H 0.29543 0.81506 0.89831 0.0
H235 H 0.30377 0.78455 0.86333 0.0
H236 H 0.43057 0.93452 0.71122 0.0
H237 H 0.43383 0.90279 0.66449 0.0
H238 H 0.39458 0.94536 0.74782 0.0
H239 H 0.36639 0.93482 0.8225 0.0
C240 C 0.49879 0.44778 1.02222 0.0
C241 C 0.50128 0.41944 0.04487 0.0
C242 C 0.55372 0.44008 0.97482 0.0
C243 C 0.54953 0.46665 0.94614 0.0
N244 N 0.51826 0.49582 0.93683 0.0
N245 N 0.52844 0.38595 0.03859 0.0
C246 C 0.52219 0.47069 0.96855 0.0
C247 C 0.52815 0.41494 1.02054 0.0
N248 N 0.47435 0.45281 0.05293 0.0
N249 N 0.58255 0.43942 0.95977 0.0
H250 H 0.51073 0.36723 0.0742 0.0
H251 H 0.54494 0.37926 1.01451 0.0
H252 H 0.60165 0.45706 0.92484 0.0
H253 H 0.5888 0.42297 0.98626 0.0
H254 H 0.47277 0.47446 0.0441 0.0
H255 H 0.45681 0.43617 0.09221 0.0
H256 H 0.49722 0.49828 0.94497 0.0
H257 H 0.53534 0.51332 0.89811 0.0
C258 C 0.15914 0.61205 0.24352 0.0
C259 C 0.15921 0.58344 0.21319 0.0
C260 C 0.13814 0.59011 0.09193 0.0
C261 C 0.13422 0.61645 0.12384 0.0
N262 N 0.15474 0.66171 0.2164 0.0
N263 N 0.17128 0.56282 0.09763 0.0
C264 C 0.14915 0.6305 0.19565 0.0
C265 C 0.1565 0.57849 0.13338 0.0
N266 N 0.16876 0.62152 0.31712 0.0
N267 N 0.12239 0.5741 1.02612 0.0
H268 H 0.18743 0.55685 0.1265 0.0
H269 H 0.17117 0.56033 0.03849 0.0
H270 H 0.10571 0.57904 0.99684 0.0
H271 H 0.12302 0.55303 1.00553 0.0
H272 H 0.16505 0.6393 0.34596 0.0
H273 H 0.18068 0.61131 0.3489 0.0
H274 H 0.16748 0.67416 0.26571 0.0
H275 H 0.14983 0.67675 0.17999 0.0
C276 C 0.50046 0.27917 0.18395 0.0
C277 C 0.46614 0.26821 0.16989 0.0
C278 C 0.45598 0.21204 0.13636 0.0
C279 C 0.48867 0.22147 0.16109 0.0
N280 N 0.54177 0.26274 0.2136 0.0
N281 N 0.40983 0.22266 0.14612 0.0
C282 C 0.51099 0.25479 0.186 0.0
C283 C 0.44351 0.23423 0.14928 0.0
N284 N 0.52311 0.31278 0.19243 0.0
N285 N 0.43677 0.18157 0.10124 0.0
H286 H 0.39943 0.23775 0.15904 0.0
H287 H 0.39192 0.1973 0.13868 0.0
H288 H 0.44543 0.16477 0.09091 0.0
H289 H 0.4138 0.17453 0.07573 0.0
H290 H 0.54888 0.32242 0.19507 0.0
H291 H 0.51646 0.33146 0.19068 0.0
H292 H 0.55767 0.28542 0.24109 0.0
H293 H 0.55061 0.24573 0.21216 0.0
C294 C 0.25769 0.49297 0.42905 0.0
C295 C 0.24616 0.45786 0.42251 0.0
C296 C 0.18915 0.44535 0.45126 0.0
C297 C 0.19949 0.47971 0.44028 0.0
N298 N 0.24323 0.53717 0.42183 0.0
N299 N 0.1999 0.40014 0.42126 0.0
C300 C 0.23382 0.50397 0.43172 0.0
C301 C 0.21168 0.43377 0.43366 0.0
N302 N 0.29123 0.51559 0.43398 0.0
N303 N 0.1572 0.42374 0.47532 0.0
H304 H 0.21501 0.39048 0.40349 0.0
H305 H 0.17451 0.38207 0.42124 0.0
H306 H 0.14043 0.4322 0.48751 0.0
H307 H 0.14865 0.39869 0.49037 0.0
H308 H 0.30093 0.54116 0.4454 0.0
H309 H 0.30932 0.50825 0.43371 0.0
H310 H 0.26729 0.55563 0.40562 0.0
H311 H 0.22628 0.54587 0.42715 0.0
C312 C 0.77923 0.16511 0.54454 0.0
C313 C 0.74828 0.16394 0.55746 0.0
C314 C 0.77453 0.22401 0.52591 0.0
C315 C 0.80372 0.22376 0.50125 0.0
N316 N 0.83351 0.19359 0.48173 0.0
N317 N 0.71486 0.19118 0.54392 0.0
C318 C 0.80611 0.19419 0.50957 0.0
C319 C 0.74546 0.19311 0.54431 0.0
N320 N 0.78288 0.13847 0.56653 0.0
N321 N 0.77476 0.25386 0.53469 0.0
H322 H 0.69228 0.16917 0.55458 0.0
H323 H 0.71156 0.21097 0.52536 0.0
H324 H 0.79575 0.27743 0.52419 0.0
H325 H 0.75514 0.25537 0.56039 0.0
H326 H 0.80562 0.13882 0.56494 0.0
H327 H 0.76365 0.11713 0.59321 0.0
H328 H 0.8353 0.1718 0.47924 0.0
H329 H 0.85342 0.2144 0.4552 0.0
C330 C 0.41103 0.70786 0.64788 0.0
C331 C 0.43715 0.73632 0.61005 0.0
C332 C 0.47183 0.7101 0.60964 0.0
C333 C 0.44526 0.68073 0.64437 0.0
N334 N 0.3874 0.64892 0.68358 0.0
N335 N 0.48815 0.76102 0.53702 0.0
C336 C 0.41409 0.67872 0.65963 0.0
C337 C 0.46595 0.73599 0.58422 0.0
N338 N 0.38388 0.70925 0.67445 0.0
N339 N 0.50342 0.71448 0.60609 0.0
H340 H 0.48453 0.78058 0.51809 0.0
H341 H 0.50811 0.76042 0.51062 0.0
H342 H 0.5097 0.69737 0.6291 0.0
H343 H 0.52429 0.73687 0.58822 0.0
H344 H 0.36585 0.6911 0.71035 0.0
H345 H 0.38027 0.72959 0.6628 0.0
H346 H 0.3632 0.64498 0.68872 0.0
H347 H 0.38895 0.62722 0.69286 0.0
C348 C 0.73271 0.53635 0.79412 0.0
C349 C 0.69893 0.51013 0.78975 0.0
C350 C 0.71652 0.46804 0.8068 0.0
C351 C 0.74967 0.49462 0.82045 0.0
N352 N 0.78789 0.55388 0.84346 0.0
N353 N 0.65759 0.45093 0.80291 0.0
C354 C 0.75735 0.52876 0.81876 0.0
C355 C 0.69043 0.47584 0.7986 0.0
N356 N 0.74125 0.56852 0.77359 0.0
N357 N 0.71012 0.4356 0.79921 0.0
H358 H 0.63769 0.45541 0.79635 0.0
H359 H 0.65008 0.42614 0.81835 0.0
H360 H 0.72852 0.42891 0.80589 0.0
H361 H 0.68717 0.41581 0.78077 0.0
H362 H 0.76597 0.58811 0.76885 0.0
H363 H 0.7237 0.57471 0.75348 0.0
H364 H 0.79366 0.57885 0.85025 0.0
H365 H 0.80625 0.54916 0.86498 0.0
C366 C 0.17941 0.76202 0.94422 0.0
C367 C 0.14794 0.75488 0.97478 0.0
C368 C 0.17333 0.8131 1.02229 0.0
C369 C 0.20412 0.81988 0.98978 0.0
N370 N 0.23222 0.80526 0.89369 0.0
N371 N 0.11299 0.77597 1.02408 0.0
C372 C 0.20568 0.79581 0.9419 0.0
C373 C 0.14425 0.78128 1.00778 0.0
N374 N 0.18565 0.73681 0.92374 0.0
N375 N 0.17208 0.8365 0.06841 0.0
H376 H 0.09127 0.75326 1.01143 0.0
H377 H 0.10851 0.79497 0.0427 0.0
H378 H 0.19298 0.86024 0.07833 0.0
H379 H 0.15102 0.83162 0.1002 0.0
H380 H 0.2095 0.74151 0.90873 0.0
H381 H 0.16862 0.71117 0.92984 0.0
H382 H 0.2328 0.78907 0.85261 0.0
H383 H 0.25166 0.83021 0.88881 0.0
C384 C 0.57085 0.09316 0.8382 0.0
C385 C 0.59883 0.1231 0.80948 0.0
C386 C 0.58534 0.15697 0.89646 0.0
C387 C 0.55869 0.12689 0.92831 0.0
N388 N 0.53272 0.06648 0.94396 0.0
N389 N 0.63732 0.18274 0.82441 0.0
C390 C 0.55351 0.09502 0.90361 0.0
C391 C 0.60749 0.15478 0.8428 0.0
N392 N 0.55935 0.06315 0.8007 0.0
N393 N 0.58857 0.18756 0.91414 0.0
H394 H 0.65444 0.1819 0.78676 0.0
H395 H 0.64657 0.20583 0.85224 0.0
H396 H 0.5726 0.19031 0.95185 0.0
H397 H 0.6052 0.20989 0.88625 0.0
H398 H 0.53684 0.0415 0.81449 0.0
H399 H 0.57035 0.06049 0.75122 0.0
H400 H 0.53057 0.04309 0.93285 0.0
H401 H 0.52051 0.06685 0.99379 0.0
C402 C 0.41901 0.52646 1.01666 0.0
C403 C 0.40461 0.53578 0.95648 0.0
C404 C 0.35169 0.51141 1.02901 0.0
C405 C 0.36465 0.4979 0.08334 0.0
N406 N 0.40958 0.48857 0.12237 0.0
N407 N 0.35534 0.53289 0.90091 0.0
C408 C 0.39813 0.50456 0.07579 0.0
C409 C 0.3705 0.52743 0.96174 0.0
N410 N 0.4529 0.53926 1.01844 0.0
N411 N 0.32163 0.5096 0.04252 0.0
H412 H 0.36777 0.5439 0.85011 0.0
H413 H 0.32965 0.52381 0.89822 0.0
H414 H 0.30741 0.49842 0.09139 0.0
H415 H 0.31244 0.52203 1.0093 0.0
H416 H 0.46529 0.53606 0.06447 0.0
H417 H 0.4691 0.55609 0.9775 0.0
H418 H 0.43235 0.48942 0.11391 0.0
H419 H 0.39515 0.47192 0.16551 0.0
C420 C 0.80385 0.40343 0.17446 0.0
C421 C 0.81967 0.40898 0.1022 0.0
C422 C 0.84411 0.3742 0.14119 0.0
C423 C 0.8325 0.37311 0.21654 0.0
N424 N 0.80197 0.38704 0.30701 0.0
N425 N 0.85768 0.40237 1.01845 0.0
C426 C 0.81222 0.38753 0.23359 0.0
C427 C 0.8401 0.39458 0.0854 0.0
N428 N 0.78046 0.41301 0.18597 0.0
N429 N 0.85938 0.35605 0.12335 0.0
H430 H 0.85603 0.41757 0.97646 0.0
H431 H 0.87599 0.39603 1.00671 0.0
H432 H 0.86317 0.34144 0.16342 0.0
H433 H 0.86554 0.353 0.06791 0.0
H434 H 0.76566 0.40703 0.23474 0.0
H435 H 0.77374 0.42448 0.14351 0.0
H436 H 0.7907 0.40061 0.32552 0.0
H437 H 0.80627 0.37419 0.3507 0.0
C438 C 0.34999 0.81217 0.33111 0.0
C439 C 0.3787 0.83681 0.37104 0.0
C440 C 0.38188 0.88045 0.28419 0.0
C441 C 0.35025 0.8569 0.25287 0.0
N442 N 0.30218 0.8006 0.25252 0.0
N443 N 0.41876 0.89588 0.393 0.0
C444 C 0.33385 0.82269 0.27736 0.0
C445 C 0.39402 0.87134 0.34921 0.0
N446 N 0.33856 0.77863 0.34341 0.0
N447 N 0.40081 0.91135 0.25061 0.0
H448 H 0.42785 0.89084 0.44264 0.0
H449 H 0.42802 0.92158 0.38417 0.0
H450 H 0.39329 0.91861 0.20153 0.0
H451 H 0.42545 0.92823 0.26644 0.0
H452 H 0.31979 0.75947 0.31083 0.0
H453 H 0.35018 0.77008 0.38112 0.0
H454 H 0.28754 0.77644 0.27501 0.0
H455 H 0.28933 0.8073 0.21391 0.0
C456 C 0.52178 0.44683 0.52804 0.0
C457 C 0.54743 0.44176 0.55898 0.0
C458 C 0.53711 0.40021 0.45813 0.0
C459 C 0.51391 0.40774 0.42278 0.0
N460 N 0.48762 0.44193 0.41815 0.0
N461 N 0.58365 0.41815 0.54555 0.0
C462 C 0.50707 0.432 0.45627 0.0
C463 C 0.55618 0.41964 0.52183 0.0
N464 N 0.51059 0.46481 0.56847 0.0
N465 N 0.54004 0.37356 0.43255 0.0
H466 H 0.59867 0.43241 0.59096 0.0
H467 H 0.59348 0.40537 0.51576 0.0
H468 H 0.52599 0.35823 0.38726 0.0
H469 H 0.55381 0.36452 0.46084 0.0
H470 H 0.48948 0.46621 0.55337 0.0
H471 H 0.52075 0.47612 0.62079 0.0
H472 H 0.48473 0.46213 0.43528 0.0
H473 H 0.47641 0.43172 0.36583 0.0
C474 C 0.12845 0.60796 0.60494 0.0
C475 C 0.12927 0.57728 0.60645 0.0
C476 C 0.11648 0.57211 0.74372 0.0
C477 C 0.12038 0.60497 0.74414 0.0
N478 N 0.13414 0.65612 0.67601 0.0
N479 N 0.12908 0.53267 0.68046 0.0
C480 C 0.12723 0.62336 0.67485 0.0
C481 C 0.1244 0.55988 0.67663 0.0
N482 N 0.12776 0.62189 0.53651 0.0
N483 N 0.1042 0.55208 0.80694 0.0
H484 H 0.13557 0.52321 0.6334 0.0
H485 H 0.12962 0.52141 0.73162 0.0
H486 H 0.09727 0.55976 0.85634 0.0
H487 H 0.09759 0.52671 0.80765 0.0
H488 H 0.12374 0.64227 0.53144 0.0
H489 H 0.12787 0.61102 0.48429 0.0
H490 H 0.1431 0.67205 0.62882 0.0
H491 H 0.13359 0.66833 0.72574 0.0
C492 C 0.38333 0.04491 0.11868 0.0
C493 C 0.41604 0.04947 0.12504 0.0
C494 C 0.39642 -0.00661 0.07197 0.0
C495 C 0.36299 -0.01289 0.07528 0.0
N496 N 0.32375 0.005 0.11088 0.0
N497 N 0.45248 0.02564 0.12231 0.0
C498 C 0.35614 0.01237 0.10103 0.0
C499 C 0.42232 0.02308 0.10566 0.0
N500 N 0.37847 0.07189 0.12676 0.0
N501 N 0.40378 0.97185 0.03358 0.0
H502 H 0.47208 0.04668 0.14873 0.0
H503 H 0.45687 0.00549 0.11678 0.0
H504 H 0.38585 0.95038 1.00495 0.0
H505 H 0.42823 0.97725 1.02304 0.0
H506 H 0.35575 0.0707 0.11531 0.0
H507 H 0.39797 0.09632 0.13779 0.0
H508 H 0.31729 0.0214 0.13704 0.0
H509 H 0.30322 0.98128 0.09891 0.0
C510 C 0.32181 0.30935 0.26382 0.0
C511 C 0.34259 0.32566 0.19995 0.0
C512 C 0.30951 0.35246 0.17067 0.0
C513 C 0.29594 0.34396 0.24453 0.0
N514 N 0.27303 0.29975 0.3378 0.0
N515 N 0.35502 0.36113 0.08779 0.0
C516 C 0.29666 0.31731 0.28351 0.0
C517 C 0.33536 0.34582 0.15019 0.0
N518 N 0.32716 0.28762 0.30688 0.0
N519 N 0.29813 0.36775 0.12213 0.0
H520 H 0.37482 0.35774 0.07111 0.0
H521 H 0.35311 0.37907 0.05501 0.0
H522 H 0.27878 0.3721 0.13828 0.0
H523 H 0.30524 0.37283 0.06511 0.0
H524 H 0.31518 0.27755 0.35857 0.0
H525 H 0.34459 0.28045 0.29152 0.0
H526 H 0.27084 0.2788 0.36636 0.0
H527 H 0.25333 0.30435 0.3479 0.0
C528 C 0.00617 0.42753 0.31124 0.0
C529 C 0.03233 0.42224 0.33704 0.0
C530 C -0.00747 0.36186 0.35282 0.0
C531 C 0.96598 0.36814 0.33815 0.0
N532 N 0.94888 0.4018 0.26616 0.0
N533 N 0.05144 0.38488 0.38184 0.0
C534 C -0.02694 0.39949 0.30604 0.0
C535 C 0.02591 0.38937 0.35631 0.0
N536 N 0.0129 0.45942 0.29332 0.0
N537 N -0.01456 0.32922 0.36095 0.0
H538 H 0.07622 0.40451 0.38557 0.0
H539 H 0.04794 0.36228 0.40425 0.0
H540 H 0.96112 0.30888 0.35444 0.0
H541 H 0.00351 0.32207 0.36609 0.0
H542 H -0.00561 0.46557 0.28262 0.0
H543 H 0.03704 0.48036 0.29431 0.0
H544 H 0.95297 0.42349 0.23761 0.0
H545 H 0.92618 0.38061 0.25163 0.0
C546 C 0.57186 0.9228 0.61512 0.0
C547 C 0.53966 0.91785 0.5968 0.0
C548 C 0.565 0.97726 0.56141 0.0
C549 C 0.59618 0.98329 0.59068 0.0
N550 N 0.62961 0.9627 0.64932 0.0
N551 N 0.505 0.94246 0.56799 0.0
C552 C 0.5998 0.95627 0.61847 0.0
C553 C 0.53601 0.94557 0.5737 0.0
N554 N 0.57581 0.89546 0.62704 0.0
N555 N 0.56316 0.00148 0.5195 0.0
H556 H 0.48271 0.92018 0.57919 0.0
H557 H 0.50153 0.96307 0.55976 0.0
H558 H 0.58398 0.02493 0.50723 0.0
H559 H 0.54166 -0.0031 0.49007 0.0
H560 H 0.59904 0.8972 0.63392 0.0
H561 H 0.55599 0.87066 0.62295 0.0
H562 H 0.6329 0.94459 0.67771 0.0
H563 H 0.65055 -0.01307 0.65112 0.0
C564 C 0.60435 0.62153 0.70537 0.0
C565 C 0.60735 0.6092 0.77671 0.0
C566 C 0.57196 0.62906 0.83455 0.0
C567 C 0.56292 0.63404 0.76093 0.0
N568 N 0.56857 0.63153 0.62312 0.0
N569 N 0.59124 0.5982 0.91015 0.0
C570 C 0.5791 0.63019 0.69523 0.0
C571 C 0.59107 0.61278 0.84221 0.0
N572 N 0.6252 0.62424 0.64697 0.0
N573 N 0.56162 0.63926 0.89703 0.0
H574 H 0.604 0.58512 0.9192 0.0
H575 H 0.57625 0.59661 0.9563 0.0
H576 H 0.54755 0.65132 0.8924 0.0
H577 H 0.56989 0.63894 0.95211 0.0
H578 H 0.62631 0.63608 0.59541 0.0
H579 H 0.64381 0.61778 0.65341 0.0
H580 H 0.57686 0.6245 0.57493 0.0
H581 H 0.54964 0.63675 0.61046 0.0
C582 C -0.02781 0.5614 0.98477 0.0
C583 C -0.01712 0.59634 0.98521 0.0
C584 C 0.92558 0.5835 0.96087 0.0
C585 C 0.91653 0.54955 0.94586 0.0
N586 N 0.93202 0.50625 0.93684 0.0
N587 N 0.97062 0.64151 0.97021 0.0
C588 C 0.93982 0.53825 0.95719 0.0
C589 C 0.95973 0.6077 0.97347 0.0
N590 N -0.00721 0.55031 1.01196 0.0
N591 N 0.90136 0.59238 0.96327 0.0
H592 H -0.00443 0.66007 0.97852 0.0
H593 H 0.95545 0.65122 0.95346 0.0
H594 H 0.87601 0.57485 0.95524 0.0
H595 H 0.90588 0.61609 0.98055 0.0
H596 H -0.01504 0.52485 1.02019 0.0
H597 H 0.01663 0.56658 0.0337 0.0
H598 H 0.94964 0.49834 0.93511 0.0
H599 H 0.90871 0.48818 0.91596 0.0
loop_
_geom_bond_atom_site_label_1
_geom_bond_atom_site_label_2
_geom_bond_distance
_geom_bond_site_symmetry_2
_ccdc_geom_bond_type
Zn0 O3 2.031 . S
Zn0 O5 2.049 . S
Zn0 O10 2.067 . S
Zn1 O2 1.962 . S
Zn1 O4 1.986 1_554 S
Zn1 O6 1.996 . S
Zn1 O9 1.943 . S
O2 Zn1 1.962 . S
O2 C7 1.254 . S
O3 Zn0 2.031 . S
O3 C7 1.269 . S
O4 Zn1 1.986 1_556 S
O4 C11 1.262 . S
O5 Zn0 2.049 . S
O5 C13 1.260 . S
O6 Zn1 1.996 . S
O6 C13 1.257 . S
C7 O2 1.254 . S
C7 O3 1.269 . S
C8 O9 1.249 . S
C8 O10 1.270 . S
O9 Zn1 1.943 . S
O9 C8 1.249 . S
O10 Zn0 2.067 . S
O10 C8 1.270 . S
C11 O4 1.262 . S
C11 O12 1.232 . S
O12 C11 1.232 . S
C13 O5 1.260 . S
C13 O6 1.257 . S
Zn14 O17 2.031 . S
Zn14 O19 2.049 . S
Zn14 O24 2.067 . S
Zn15 O16 1.962 . S
Zn15 O18 1.986 . S
Zn15 O20 1.996 . S
Zn15 O23 1.943 . S
O16 Zn15 1.962 . S
O16 C21 1.254 . S
O17 Zn14 2.031 . S
O17 C21 1.269 . S
O18 Zn15 1.986 . S
O18 C25 1.262 . S
O19 Zn14 2.049 . S
O19 C27 1.260 . S
O20 Zn15 1.996 . S
O20 C27 1.257 . S
C21 O16 1.254 . S
C21 O17 1.269 . S
C22 O23 1.249 . S
C22 O24 1.270 . S
O23 Zn15 1.943 . S
O23 C22 1.249 . S
O24 Zn14 2.067 . S
O24 C22 1.270 . S
C25 O18 1.262 . S
C25 O26 1.232 . S
O26 C25 1.232 . S
C27 O19 1.260 . S
C27 O20 1.257 . S
Zn28 O31 2.031 . S
Zn28 O33 2.049 . S
Zn28 O38 2.067 . S
Zn29 O30 1.962 . S
Zn29 O32 1.986 . S
Zn29 O34 1.996 . S
Zn29 O37 1.943 . S
O30 Zn29 1.962 . S
O30 C35 1.254 . S
O31 Zn28 2.031 . S
O31 C35 1.269 . S
O32 Zn29 1.986 . S
O32 C39 1.262 . S
O33 Zn28 2.049 . S
O33 C41 1.260 . S
O34 Zn29 1.996 . S
O34 C41 1.257 . S
C35 O30 1.254 . S
C35 O31 1.269 . S
C36 O37 1.249 . S
C36 O38 1.270 . S
O37 Zn29 1.943 . S
O37 C36 1.249 . S
O38 Zn28 2.067 . S
O38 C36 1.270 . S
C39 O32 1.262 . S
C39 O40 1.232 . S
O40 C39 1.232 . S
C41 O33 1.260 . S
C41 O34 1.257 . S
Zn42 O45 2.031 . S
Zn42 O47 2.049 . S
Zn42 O52 2.067 . S
Zn43 O44 1.962 . S
Zn43 O46 1.986 . S
Zn43 O48 1.996 . S
Zn43 O51 1.943 . S
O44 Zn43 1.962 . S
O44 C49 1.254 . S
O45 Zn42 2.031 . S
O45 C49 1.269 . S
O46 Zn43 1.986 . S
O46 C53 1.262 . S
O47 Zn42 2.049 . S
O47 C55 1.260 . S
O48 Zn43 1.996 . S
O48 C55 1.257 . S
C49 O44 1.254 . S
C49 O45 1.269 . S
C50 O51 1.249 . S
C50 O52 1.270 . S
O51 Zn43 1.943 . S
O51 C50 1.249 . S
O52 Zn42 2.067 . S
O52 C50 1.270 . S
C53 O46 1.262 . S
C53 O54 1.232 . S
O54 C53 1.232 . S
C55 O47 1.260 . S
C55 O48 1.257 . S
Zn56 O59 2.031 . S
Zn56 O61 2.049 . S
Zn56 O66 2.067 . S
Zn57 O58 1.962 . S
Zn57 O60 1.986 . S
Zn57 O62 1.996 . S
Zn57 O65 1.943 . S
O58 Zn57 1.962 . S
O58 C63 1.254 . S
O59 Zn56 2.031 . S
O59 C63 1.269 . S
O60 Zn57 1.986 . S
O60 C67 1.262 . S
O61 Zn56 2.049 . S
O61 C69 1.260 . S
O62 Zn57 1.996 . S
O62 C69 1.257 . S
C63 O58 1.254 . S
C63 O59 1.269 . S
C64 O65 1.249 . S
C64 O66 1.270 . S
O65 Zn57 1.943 . S
O65 C64 1.249 . S
O66 Zn56 2.067 . S
O66 C64 1.270 . S
C67 O60 1.262 . S
C67 O68 1.232 . S
O68 C67 1.232 . S
C69 O61 1.260 . S
C69 O62 1.257 . S
Zn70 O73 2.031 1_554 S
Zn70 O75 2.049 1_554 S
Zn70 O80 2.067 . S
Zn71 O72 1.962 . S
Zn71 O74 1.986 . S
Zn71 O76 1.996 . S
Zn71 O79 1.943 . S
O72 Zn71 1.962 . S
O72 C77 1.254 . S
O73 Zn70 2.031 1_556 S
O73 C77 1.269 . S
O74 Zn71 1.986 . S
O74 C81 1.262 . S
O75 Zn70 2.049 1_556 S
O75 C83 1.260 . S
O76 Zn71 1.996 . S
O76 C83 1.257 . S
C77 O72 1.254 . S
C77 O73 1.269 . S
C78 O79 1.249 1_554 S
C78 O80 1.270 . S
O79 Zn71 1.943 . S
O79 C78 1.249 1_556 S
O80 Zn70 2.067 . S
O80 C78 1.270 . S
C81 O74 1.262 . S
C81 O82 1.232 . S
O82 C81 1.232 . S
C83 O75 1.260 . S
C83 O76 1.257 . S
Zn84 O87 2.031 . S
Zn84 O89 2.049 . S
Zn84 O94 2.067 . S
Zn85 O86 1.962 . S
Zn85 O88 1.986 . S
Zn85 O90 1.996 . S
Zn85 O93 1.943 . S
O86 Zn85 1.962 . S
O86 C91 1.254 . S
O87 Zn84 2.031 . S
O87 C91 1.269 . S
O88 Zn85 1.986 . S
O88 C95 1.262 1_556 S
O89 Zn84 2.049 . S
O89 C97 1.260 . S
O90 Zn85 1.996 . S
O90 C97 1.257 . S
C91 O86 1.254 . S
C91 O87 1.269 . S
C92 O93 1.249 . S
C92 O94 1.270 . S
O93 Zn85 1.943 . S
O93 C92 1.249 . S
O94 Zn84 2.067 . S
O94 C92 1.270 . S
C95 O88 1.262 1_554 S
C95 O96 1.232 1_554 S
O96 C95 1.232 1_556 S
C97 O89 1.260 . S
C97 O90 1.257 . S
Zn98 O101 2.031 . S
Zn98 O103 2.049 . S
Zn98 O108 2.067 . S
Zn99 O100 1.962 . S
Zn99 O102 1.986 . S
Zn99 O104 1.996 . S
Zn99 O107 1.943 1_554 S
O100 Zn99 1.962 . S
O100 C105 1.254 . S
O101 Zn98 2.031 . S
O101 C105 1.269 1_556 S
O102 Zn99 1.986 . S
O102 C109 1.262 . S
O103 Zn98 2.049 . S
O103 C111 1.260 1_556 S
O104 Zn99 1.996 . S
O104 C111 1.257 . S
C105 O100 1.254 . S
C105 O101 1.269 1_554 S
C106 O107 1.249 . S
C106 O108 1.270 . S
O107 Zn99 1.943 1_556 S
O107 C106 1.249 . S
O108 Zn98 2.067 . S
O108 C106 1.270 . S
C109 O102 1.262 . S
C109 O110 1.232 . S
O110 C109 1.232 . S
C111 O103 1.260 1_554 S
C111 O104 1.257 . S
Zn112 O115 2.031 . S
Zn112 O117 2.049 . S
Zn112 O122 2.067 . S
Zn113 O114 1.962 . S
Zn113 O116 1.986 . S
Zn113 O118 1.996 . S
Zn113 O121 1.943 . S
O114 Zn113 1.962 . S
O114 C119 1.254 . S
O115 Zn112 2.031 . S
O115 C119 1.269 . S
O116 Zn113 1.986 . S
O116 C123 1.262 . S
O117 Zn112 2.049 . S
O117 C125 1.260 . S
O118 Zn113 1.996 . S
O118 C125 1.257 . S
C119 O114 1.254 . S
C119 O115 1.269 . S
C120 O121 1.249 . S
C120 O122 1.270 . S
O121 Zn113 1.943 . S
O121 C120 1.249 . S
O122 Zn112 2.067 . S
O122 C120 1.270 . S
C123 O116 1.262 . S
C123 O124 1.232 . S
O124 C123 1.232 . S
C125 O117 1.260 . S
C125 O118 1.257 . S
Zn126 O129 2.031 . S
Zn126 O131 2.049 . S
Zn126 O136 2.067 . S
Zn127 O128 1.962 . S
Zn127 O130 1.986 . S
Zn127 O132 1.996 . S
Zn127 O135 1.943 . S
O128 Zn127 1.962 . S
O128 C133 1.254 . S
O129 Zn126 2.031 . S
O129 C133 1.269 . S
O130 Zn127 1.986 . S
O130 C137 1.262 . S
O131 Zn126 2.049 . S
O131 C139 1.260 . S
O132 Zn127 1.996 . S
O132 C139 1.257 . S
C133 O128 1.254 . S
C133 O129 1.269 . S
C134 O135 1.249 . S
C134 O136 1.270 . S
O135 Zn127 1.943 . S
O135 C134 1.249 . S
O136 Zn126 2.067 . S
O136 C134 1.270 . S
C137 O130 1.262 . S
C137 O138 1.232 . S
O138 C137 1.232 . S
C139 O131 1.260 . S
C139 O132 1.257 . S
Zn140 O143 2.031 . S
Zn140 O145 2.049 . S
Zn140 O150 2.067 . S
Zn141 O142 1.962 . S
Zn141 O144 1.986 . S
Zn141 O146 1.996 . S
Zn141 O149 1.943 . S
O142 Zn141 1.962 . S
O142 C147 1.254 . S
O143 Zn140 2.031 . S
O143 C147 1.269 . S
O144 Zn141 1.986 . S
O144 C151 1.262 . S
O145 Zn140 2.049 . S
O145 C153 1.260 . S
O146 Zn141 1.996 . S
O146 C153 1.257 . S
C147 O142 1.254 . S
C147 O143 1.269 . S
C148 O149 1.249 . S
C148 O150 1.270 . S
O149 Zn141 1.943 . S
O149 C148 1.249 . S
O150 Zn140 2.067 . S
O150 C148 1.270 . S
C151 O144 1.262 . S
C151 O152 1.232 . S
O152 C151 1.232 . S
C153 O145 1.260 . S
C153 O146 1.257 . S
Zn154 O157 2.031 . S
Zn154 O159 2.049 . S
Zn154 O164 2.067 . S
Zn155 O156 1.962 . S
Zn155 O158 1.986 . S
Zn155 O160 1.996 . S
Zn155 O163 1.943 . S
O156 Zn155 1.962 . S
O156 C161 1.254 . S
O157 Zn154 2.031 . S
O157 C161 1.269 . S
O158 Zn155 1.986 . S
O158 C165 1.262 . S
O159 Zn154 2.049 . S
O159 C167 1.260 . S
O160 Zn155 1.996 . S
O160 C167 1.257 . S
C161 O156 1.254 . S
C161 O157 1.269 . S
C162 O163 1.249 . S
C162 O164 1.270 . S
O163 Zn155 1.943 . S
O163 C162 1.249 . S
O164 Zn154 2.067 . S
O164 C162 1.270 . S
C165 O158 1.262 . S
C165 O166 1.232 . S
O166 C165 1.232 . S
C167 O159 1.260 . S
C167 O160 1.257 . S
C168 C169 1.363 . S
C168 C174 1.379 . S
C168 N176 1.356 . S
C169 C168 1.363 . S
C169 C175 1.363 . S
C170 C171 1.363 . S
C170 C175 1.379 . S
C170 N177 1.356 . S
C171 C170 1.363 . S
C171 C174 1.363 . S
N172 C174 1.356 . S
N172 H184 0.984 . S
N172 H185 0.985 . S
N173 C175 1.356 . S
N173 H178 0.984 . S
N173 H179 0.985 . S
C174 C168 1.379 . S
C174 C171 1.363 . S
C174 N172 1.356 . S
C175 C169 1.363 . S
C175 C170 1.379 . S
C175 N173 1.356 . S
N176 C168 1.356 . S
N176 H182 0.984 . S
N176 H183 0.984 . S
N177 C170 1.356 . S
N177 H180 0.984 . S
N177 H181 0.985 . S
H178 N173 0.984 . S
H179 N173 0.985 . S
H180 N177 0.984 . S
H181 N177 0.985 . S
H182 N176 0.984 . S
H183 N176 0.984 . S
H184 N172 0.984 . S
H185 N172 0.985 . S
C186 C187 1.363 . S
C186 C192 1.379 . S
C186 N194 1.356 . S
C187 C186 1.363 . S
C187 C193 1.363 . S
C188 C189 1.363 . S
C188 C193 1.379 . S
C188 N195 1.356 . S
C189 C188 1.363 . S
C189 C192 1.363 . S
N190 C192 1.356 . S
N190 H202 0.984 . S
N190 H203 0.985 . S
N191 C193 1.356 . S
N191 H196 0.984 . S
N191 H197 0.985 . S
C192 C186 1.379 . S
C192 C189 1.363 . S
C192 N190 1.356 . S
C193 C187 1.363 . S
C193 C188 1.379 . S
C193 N191 1.356 . S
N194 C186 1.356 . S
N194 H200 0.984 . S
N194 H201 0.984 . S
N195 C188 1.356 . S
N195 H198 0.984 . S
N195 H199 0.985 . S
H196 N191 0.984 . S
H197 N191 0.985 . S
H198 N195 0.984 . S
H199 N195 0.985 . S
H200 N194 0.984 . S
H201 N194 0.984 . S
H202 N190 0.984 . S
H203 N190 0.985 . S
C204 C205 1.363 . S
C204 C210 1.379 . S
C204 N212 1.356 . S
C205 C204 1.363 . S
C205 C211 1.363 . S
C206 C207 1.363 . S
C206 C211 1.379 . S
C206 N213 1.356 . S
C207 C206 1.363 . S
C207 C210 1.363 . S
N208 C210 1.356 . S
N208 H220 0.984 . S
N208 H221 0.985 . S
N209 C211 1.356 . S
N209 H214 0.984 . S
N209 H215 0.985 . S
C210 C204 1.379 . S
C210 C207 1.363 . S
C210 N208 1.356 . S
C211 C205 1.363 . S
C211 C206 1.379 . S
C211 N209 1.356 . S
N212 C204 1.356 . S
N212 H218 0.984 . S
N212 H219 0.984 . S
N213 C206 1.356 . S
N213 H216 0.984 . S
N213 H217 0.985 . S
H214 N209 0.984 . S
H215 N209 0.985 . S
H216 N213 0.984 . S
H217 N213 0.985 . S
H218 N212 0.984 . S
H219 N212 0.984 . S
H220 N208 0.984 . S
H221 N208 0.985 . S
C222 C223 1.363 . S
C222 C228 1.379 . S
C222 N230 1.356 . S
C223 C222 1.363 . S
C223 C229 1.363 . S
C224 C225 1.363 . S
C224 C229 1.379 . S
C224 N231 1.356 . S
C225 C224 1.363 . S
C225 C228 1.363 . S
N226 C228 1.356 . S
N226 H238 0.984 . S
N226 H239 0.985 . S
N227 C229 1.356 . S
N227 H232 0.984 . S
N227 H233 0.985 . S
C228 C222 1.379 . S
C228 C225 1.363 . S
C228 N226 1.356 . S
C229 C223 1.363 . S
C229 C224 1.379 . S
C229 N227 1.356 . S
N230 C222 1.356 . S
N230 H236 0.984 . S
N230 H237 0.984 . S
N231 C224 1.356 . S
N231 H234 0.984 . S
N231 H235 0.985 . S
H232 N227 0.984 . S
H233 N227 0.985 . S
H234 N231 0.984 . S
H235 N231 0.985 . S
H236 N230 0.984 . S
H237 N230 0.984 . S
H238 N226 0.984 . S
H239 N226 0.985 . S
C240 C241 1.363 . S
C240 C246 1.379 1_554 S
C240 N248 1.356 . S
C241 C240 1.363 . S
C241 C247 1.363 1_554 S
C242 C243 1.363 . S
C242 C247 1.379 . S
C242 N249 1.356 . S
C243 C242 1.363 . S
C243 C246 1.363 . S
N244 C246 1.356 . S
N244 H256 0.984 . S
N244 H257 0.985 . S
N245 C247 1.356 1_554 S
N245 H250 0.984 . S
N245 H251 0.985 . S
C246 C240 1.379 1_556 S
C246 C243 1.363 . S
C246 N244 1.356 . S
C247 C241 1.363 1_556 S
C247 C242 1.379 . S
C247 N245 1.356 1_556 S
N248 C240 1.356 . S
N248 H254 0.984 . S
N248 H255 0.984 . S
N249 C242 1.356 . S
N249 H252 0.984 . S
N249 H253 0.985 . S
H250 N245 0.984 . S
H251 N245 0.985 . S
H252 N249 0.984 . S
H253 N249 0.985 . S
H254 N248 0.984 . S
H255 N248 0.984 . S
H256 N244 0.984 . S
H257 N244 0.985 . S
C258 C259 1.363 . S
C258 C264 1.379 . S
C258 N266 1.356 . S
C259 C258 1.363 . S
C259 C265 1.363 . S
C260 C261 1.363 . S
C260 C265 1.379 . S
C260 N267 1.356 . S
C261 C260 1.363 . S
C261 C264 1.363 . S
N262 C264 1.356 . S
N262 H274 0.984 . S
N262 H275 0.985 . S
N263 C265 1.356 . S
N263 H268 0.984 . S
N263 H269 0.985 . S
C264 C258 1.379 . S
C264 C261 1.363 . S
C264 N262 1.356 . S
C265 C259 1.363 . S
C265 C260 1.379 . S
C265 N263 1.356 . S
N266 C258 1.356 . S
N266 H272 0.984 . S
N266 H273 0.984 . S
N267 C260 1.356 . S
N267 H270 0.984 1_554 S
N267 H271 0.985 1_554 S
H268 N263 0.984 . S
H269 N263 0.985 . S
H270 N267 0.984 1_556 S
H271 N267 0.985 1_556 S
H272 N266 0.984 . S
H273 N266 0.984 . S
H274 N262 0.984 . S
H275 N262 0.985 . S
C276 C277 1.363 . S
C276 C282 1.379 . S
C276 N284 1.356 . S
C277 C276 1.363 . S
C277 C283 1.363 . S
C278 C279 1.363 . S
C278 C283 1.379 . S
C278 N285 1.356 . S
C279 C278 1.363 . S
C279 C282 1.363 . S
N280 C282 1.356 . S
N280 H292 0.984 . S
N280 H293 0.985 . S
N281 C283 1.356 . S
N281 H286 0.984 . S
N281 H287 0.985 . S
C282 C276 1.379 . S
C282 C279 1.363 . S
C282 N280 1.356 . S
C283 C277 1.363 . S
C283 C278 1.379 . S
C283 N281 1.356 . S
N284 C276 1.356 . S
N284 H290 0.984 . S
N284 H291 0.984 . S
N285 C278 1.356 . S
N285 H288 0.984 . S
N285 H289 0.985 1_554 S
H286 N281 0.984 . S
H287 N281 0.985 . S
H288 N285 0.984 . S
H289 N285 0.985 1_556 S
H290 N284 0.984 . S
H291 N284 0.984 . S
H292 N280 0.984 . S
H293 N280 0.985 . S
C294 C295 1.363 . S
C294 C300 1.379 . S
C294 N302 1.356 . S
C295 C294 1.363 . S
C295 C301 1.363 . S
C296 C297 1.363 . S
C296 C301 1.379 . S
C296 N303 1.356 . S
C297 C296 1.363 . S
C297 C300 1.363 . S
N298 C300 1.356 . S
N298 H310 0.984 . S
N298 H311 0.985 . S
N299 C301 1.356 . S
N299 H304 0.984 . S
N299 H305 0.985 . S
C300 C294 1.379 . S
C300 C297 1.363 . S
C300 N298 1.356 . S
C301 C295 1.363 . S
C301 C296 1.379 . S
C301 N299 1.356 . S
N302 C294 1.356 . S
N302 H308 0.984 . S
N302 H309 0.984 . S
N303 C296 1.356 . S
N303 H306 0.984 . S
N303 H307 0.985 . S
H304 N299 0.984 . S
H305 N299 0.985 . S
H306 N303 0.984 . S
H307 N303 0.985 . S
H308 N302 0.984 . S
H309 N302 0.984 . S
H310 N298 0.984 . S
H311 N298 0.985 . S
C312 C313 1.363 . S
C312 C318 1.379 . S
C312 N320 1.356 . S
C313 C312 1.363 . S
C313 C319 1.363 . S
C314 C315 1.363 . S
C314 C319 1.379 . S
C314 N321 1.356 . S
C315 C314 1.363 . S
C315 C318 1.363 . S
N316 C318 1.356 . S
N316 H328 0.984 . S
N316 H329 0.985 . S
N317 C319 1.356 . S
N317 H322 0.984 . S
N317 H323 0.985 . S
C318 C312 1.379 . S
C318 C315 1.363 . S
C318 N316 1.356 . S
C319 C313 1.363 . S
C319 C314 1.379 . S
C319 N317 1.356 . S
N320 C312 1.356 . S
N320 H326 0.984 . S
N320 H327 0.984 . S
N321 C314 1.356 . S
N321 H324 0.984 . S
N321 H325 0.985 . S
H322 N317 0.984 . S
H323 N317 0.985 . S
H324 N321 0.984 . S
H325 N321 0.985 . S
H326 N320 0.984 . S
H327 N320 0.984 . S
H328 N316 0.984 . S
H329 N316 0.985 . S
C330 C331 1.363 . S
C330 C336 1.379 . S
C330 N338 1.356 . S
C331 C330 1.363 . S
C331 C337 1.363 . S
C332 C333 1.363 . S
C332 C337 1.379 . S
C332 N339 1.356 . S
C333 C332 1.363 . S
C333 C336 1.363 . S
N334 C336 1.356 . S
N334 H346 0.984 . S
N334 H347 0.985 . S
N335 C337 1.356 . S
N335 H340 0.984 . S
N335 H341 0.985 . S
C336 C330 1.379 . S
C336 C333 1.363 . S
C336 N334 1.356 . S
C337 C331 1.363 . S
C337 C332 1.379 . S
C337 N335 1.356 . S
N338 C330 1.356 . S
N338 H344 0.984 . S
N338 H345 0.984 . S
N339 C332 1.356 . S
N339 H342 0.984 . S
N339 H343 0.985 . S
H340 N335 0.984 . S
H341 N335 0.985 . S
H342 N339 0.984 . S
H343 N339 0.985 . S
H344 N338 0.984 . S
H345 N338 0.984 . S
H346 N334 0.984 . S
H347 N334 0.985 . S
C348 C349 1.363 . S
C348 C354 1.379 . S
C348 N356 1.356 . S
C349 C348 1.363 . S
C349 C355 1.363 . S
C350 C351 1.363 . S
C350 C355 1.379 . S
C350 N357 1.356 . S
C351 C350 1.363 . S
C351 C354 1.363 . S
N352 C354 1.356 . S
N352 H364 0.984 . S
N352 H365 0.985 . S
N353 C355 1.356 . S
N353 H358 0.984 . S
N353 H359 0.985 . S
C354 C348 1.379 . S
C354 C351 1.363 . S
C354 N352 1.356 . S
C355 C349 1.363 . S
C355 C350 1.379 . S
C355 N353 1.356 . S
N356 C348 1.356 . S
N356 H362 0.984 . S
N356 H363 0.984 . S
N357 C350 1.356 . S
N357 H360 0.984 . S
N357 H361 0.985 . S
H358 N353 0.984 . S
H359 N353 0.985 . S
H360 N357 0.984 . S
H361 N357 0.985 . S
H362 N356 0.984 . S
H363 N356 0.984 . S
H364 N352 0.984 . S
H365 N352 0.985 . S
C366 C367 1.363 . S
C366 C372 1.379 . S
C366 N374 1.356 . S
C367 C366 1.363 . S
C367 C373 1.363 1_556 S
C368 C369 1.363 1_554 S
C368 C373 1.379 . S
C368 N375 1.356 . S
C369 C368 1.363 1_556 S
C369 C372 1.363 . S
N370 C372 1.356 . S
N370 H382 0.984 . S
N370 H383 0.985 . S
N371 C373 1.356 . S
N371 H376 0.984 1_554 S
N371 H377 0.985 . S
C372 C366 1.379 . S
C372 C369 1.363 . S
C372 N370 1.356 . S
C373 C367 1.363 1_554 S
C373 C368 1.379 . S
C373 N371 1.356 . S
N374 C366 1.356 . S
N374 H380 0.984 . S
N374 H381 0.984 . S
N375 C368 1.356 . S
N375 H378 0.984 . S
N375 H379 0.985 . S
H376 N371 0.984 1_556 S
H377 N371 0.985 . S
H378 N375 0.984 . S
H379 N375 0.985 . S
H380 N374 0.984 . S
H381 N374 0.984 . S
H382 N370 0.984 . S
H383 N370 0.985 . S
C384 C385 1.363 . S
C384 C390 1.379 . S
C384 N392 1.356 . S
C385 C384 1.363 . S
C385 C391 1.363 . S
C386 C387 1.363 . S
C386 C391 1.379 . S
C386 N393 1.356 . S
C387 C386 1.363 . S
C387 C390 1.363 . S
N388 C390 1.356 . S
N388 H400 0.984 . S
N388 H401 0.985 . S
N389 C391 1.356 . S
N389 H394 0.984 . S
N389 H395 0.985 . S
C390 C384 1.379 . S
C390 C387 1.363 . S
C390 N388 1.356 . S
C391 C385 1.363 . S
C391 C386 1.379 . S
C391 N389 1.356 . S
N392 C384 1.356 . S
N392 H398 0.984 . S
N392 H399 0.984 . S
N393 C386 1.356 . S
N393 H396 0.984 . S
N393 H397 0.985 . S
H394 N389 0.984 . S
H395 N389 0.985 . S
H396 N393 0.984 . S
H397 N393 0.985 . S
H398 N392 0.984 . S
H399 N392 0.984 . S
H400 N388 0.984 . S
H401 N388 0.985 . S
C402 C403 1.363 . S
C402 C408 1.379 . S
C402 N410 1.356 . S
C403 C402 1.363 . S
C403 C409 1.363 . S
C404 C405 1.363 . S
C404 C409 1.379 1_554 S
C404 N411 1.356 . S
C405 C404 1.363 . S
C405 C408 1.363 1_554 S
N406 C408 1.356 . S
N406 H418 0.984 . S
N406 H419 0.985 1_556 S
N407 C409 1.356 . S
N407 H412 0.984 . S
N407 H413 0.990 . S
C408 C402 1.379 . S
C408 C405 1.363 1_556 S
C408 N406 1.356 . S
C409 C403 1.363 . S
C409 C404 1.379 1_556 S
C409 N407 1.356 . S
N410 C402 1.356 . S
N410 H416 0.984 . S
N410 H417 0.984 . S
N411 C404 1.356 . S
N411 H414 0.984 . S
N411 H415 0.985 . S
H412 N407 0.984 . S
H413 N407 0.990 . S
H414 N411 0.984 . S
H415 N411 0.985 . S
H416 N410 0.984 . S
H417 N410 0.984 . S
H418 N406 0.984 . S
H419 N406 0.985 1_554 S
C420 C421 1.363 . S
C420 C426 1.379 . S
C420 N428 1.356 . S
C421 C420 1.363 . S
C421 C427 1.363 . S
C422 C423 1.363 . S
C422 C427 1.379 . S
C422 N429 1.356 . S
C423 C422 1.363 . S
C423 C426 1.363 . S
N424 C426 1.356 . S
N424 H436 0.984 . S
N424 H437 0.985 . S
N425 C427 1.356 . S
N425 H430 0.984 . S
N425 H431 0.985 . S
C426 C420 1.379 . S
C426 C423 1.363 . S
C426 N424 1.356 . S
C427 C421 1.363 . S
C427 C422 1.379 . S
C427 N425 1.356 . S
N428 C420 1.356 . S
N428 H434 0.984 . S
N428 H435 0.984 1_554 S
N429 C422 1.356 . S
N429 H432 0.984 . S
N429 H433 0.985 . S
H430 N425 0.984 . S
H431 N425 0.985 . S
H432 N429 0.984 . S
H433 N429 0.985 . S
H434 N428 0.984 . S
H435 N428 0.984 1_556 S
H436 N424 0.984 . S
H437 N424 0.985 . S
C438 C439 1.363 . S
C438 C444 1.379 . S
C438 N446 1.356 . S
C439 C438 1.363 . S
C439 C445 1.363 . S
C440 C441 1.363 . S
C440 C445 1.379 . S
C440 N447 1.356 . S
C441 C440 1.363 . S
C441 C444 1.363 . S
N442 C444 1.356 . S
N442 H454 0.984 . S
N442 H455 0.985 . S
N443 C445 1.356 . S
N443 H448 0.984 . S
N443 H449 0.985 . S
C444 C438 1.379 . S
C444 C441 1.363 . S
C444 N442 1.356 . S
C445 C439 1.363 . S
C445 C440 1.379 . S
C445 N443 1.356 . S
N446 C438 1.356 . S
N446 H452 0.984 . S
N446 H453 0.984 . S
N447 C440 1.356 . S
N447 H450 0.984 . S
N447 H451 0.985 . S
H448 N443 0.984 . S
H449 N443 0.985 . S
H450 N447 0.984 . S
H451 N447 0.985 . S
H452 N446 0.984 . S
H453 N446 0.984 . S
H454 N442 0.984 . S
H455 N442 0.985 . S
C456 C457 1.363 . S
C456 C462 1.379 . S
C456 N464 1.356 . S
C457 C456 1.363 . S
C457 C463 1.363 . S
C458 C459 1.363 . S
C458 C463 1.379 . S
C458 N465 1.356 . S
C459 C458 1.363 . S
C459 C462 1.363 . S
N460 C462 1.356 . S
N460 H472 0.984 . S
N460 H473 0.985 . S
N461 C463 1.356 . S
N461 H466 0.984 . S
N461 H467 0.985 . S
C462 C456 1.379 . S
C462 C459 1.363 . S
C462 N460 1.356 . S
C463 C457 1.363 . S
C463 C458 1.379 . S
C463 N461 1.356 . S
N464 C456 1.356 . S
N464 H470 0.984 . S
N464 H471 0.984 . S
N465 C458 1.356 . S
N465 H468 0.984 . S
N465 H469 0.985 . S
H466 N461 0.984 . S
H467 N461 0.985 . S
H468 N465 0.984 . S
H469 N465 0.985 . S
H470 N464 0.984 . S
H471 N464 0.984 . S
H472 N460 0.984 . S
H473 N460 0.985 . S
C474 C475 1.363 . S
C474 C480 1.379 . S
C474 N482 1.356 . S
C475 C474 1.363 . S
C475 C481 1.363 . S
C476 C477 1.363 . S
C476 C481 1.379 . S
C476 N483 1.356 . S
C477 C476 1.363 . S
C477 C480 1.363 . S
N478 C480 1.356 . S
N478 H490 0.984 . S
N478 H491 0.985 . S
N479 C481 1.356 . S
N479 H484 0.984 . S
N479 H485 0.985 . S
C480 C474 1.379 . S
C480 C477 1.363 . S
C480 N478 1.356 . S
C481 C475 1.363 . S
C481 C476 1.379 . S
C481 N479 1.356 . S
N482 C474 1.356 . S
N482 H488 0.984 . S
N482 H489 0.984 . S
N483 C476 1.356 . S
N483 H486 0.984 . S
N483 H487 0.985 . S
H484 N479 0.984 . S
H485 N479 0.985 . S
H486 N483 0.984 . S
H487 N483 0.985 . S
H488 N482 0.984 . S
H489 N482 0.984 . S
H490 N478 0.984 . S
H491 N478 0.985 . S
C492 C493 1.363 . S
C492 C498 1.379 1_544 S
C492 N500 1.356 1_554 S
C493 C492 1.363 . S
C493 C499 1.363 . S
C494 C495 1.363 . S
C494 C499 1.379 1_565 S
C494 N501 1.356 . S
C495 C494 1.363 . S
C495 C498 1.363 1_554 S
N496 C498 1.356 . S
N496 H508 0.984 . S
N496 H509 0.985 . S
N497 C499 1.356 . S
N497 H502 0.984 . S
N497 H503 0.985 . S
C498 C492 1.379 1_566 S
C498 C495 1.363 1_556 S
C498 N496 1.356 . S
C499 C493 1.363 . S
C499 C494 1.379 1_545 S
C499 N497 1.356 . S
N500 C492 1.356 1_556 S
N500 H506 0.984 . S
N500 H507 0.984 . S
N501 C494 1.356 . S
N501 H504 0.984 . S
N501 H505 0.985 . S
H502 N497 0.984 . S
H503 N497 0.985 . S
H504 N501 0.984 . S
H505 N501 0.985 . S
H506 N500 0.984 . S
H507 N500 0.984 . S
H508 N496 0.984 . S
H509 N496 0.985 . S
C510 C511 1.363 . S
C510 C516 1.379 . S
C510 N518 1.356 . S
C511 C510 1.363 . S
C511 C517 1.363 . S
C512 C513 1.363 . S
C512 C517 1.379 . S
C512 N519 1.356 . S
C513 C512 1.363 . S
C513 C516 1.363 . S
N514 C516 1.356 . S
N514 H526 0.984 . S
N514 H527 0.985 . S
N515 C517 1.356 . S
N515 H520 0.984 . S
N515 H521 0.985 . S
C516 C510 1.379 . S
C516 C513 1.363 . S
C516 N514 1.356 . S
C517 C511 1.363 . S
C517 C512 1.379 . S
C517 N515 1.356 . S
N518 C510 1.356 . S
N518 H524 0.984 . S
N518 H525 0.984 . S
N519 C512 1.356 . S
N519 H522 0.984 . S
N519 H523 0.985 . S
H520 N515 0.984 . S
H521 N515 0.985 . S
H522 N519 0.984 . S
H523 N519 0.985 . S
H524 N518 0.984 . S
H525 N518 0.984 . S
H526 N514 0.984 . S
H527 N514 0.985 . S
C528 C529 1.363 . S
C528 C534 1.379 1_455 S
C528 N536 1.356 . S
C529 C528 1.363 . S
C529 C535 1.363 . S
C530 C531 1.363 . S
C530 C535 1.379 1_655 S
C530 N537 1.356 . S
C531 C530 1.363 . S
C531 C534 1.363 . S
N532 C534 1.356 . S
N532 H544 0.984 . S
N532 H545 0.985 . S
N533 C535 1.356 . S
N533 H538 0.984 . S
N533 H539 0.985 . S
C534 C528 1.379 1_655 S
C534 C531 1.363 . S
C534 N532 1.356 . S
C535 C529 1.363 . S
C535 C530 1.379 1_455 S
C535 N533 1.356 . S
N536 C528 1.356 . S
N536 H542 0.984 . S
N536 H543 0.984 . S
N537 C530 1.356 . S
N537 H540 0.984 . S
N537 H541 0.985 . S
H538 N533 0.984 . S
H539 N533 0.985 . S
H540 N537 0.984 . S
H541 N537 0.985 . S
H542 N536 0.984 . S
H543 N536 0.984 . S
H544 N532 0.984 . S
H545 N532 0.985 . S
C546 C547 1.363 . S
C546 C552 1.379 1_565 S
C546 N554 1.356 . S
C547 C546 1.363 . S
C547 C553 1.363 . S
C548 C549 1.363 . S
C548 C553 1.379 1_545 S
C548 N555 1.356 . S
C549 C548 1.363 . S
C549 C552 1.363 . S
N550 C552 1.356 . S
N550 H562 0.984 . S
N550 H563 0.985 . S
N551 C553 1.356 . S
N551 H556 0.984 . S
N551 H557 0.985 . S
C552 C546 1.379 1_545 S
C552 C549 1.363 . S
C552 N550 1.356 . S
C553 C547 1.363 . S
C553 C548 1.379 1_565 S
C553 N551 1.356 . S
N554 C546 1.356 . S
N554 H560 0.984 . S
N554 H561 0.984 . S
N555 C548 1.356 . S
N555 H558 0.984 . S
N555 H559 0.985 . S
H556 N551 0.984 . S
H557 N551 0.985 . S
H558 N555 0.984 . S
H559 N555 0.985 . S
H560 N554 0.984 . S
H561 N554 0.984 . S
H562 N550 0.984 . S
H563 N550 0.985 . S
C564 C565 1.363 . S
C564 C570 1.379 . S
C564 N572 1.356 . S
C565 C564 1.363 . S
C565 C571 1.363 . S
C566 C567 1.363 . S
C566 C571 1.379 . S
C566 N573 1.356 . S
C567 C566 1.363 . S
C567 C570 1.363 . S
N568 C570 1.356 . S
N568 H580 0.984 . S
N568 H581 0.985 . S
N569 C571 1.356 . S
N569 H574 0.984 . S
N569 H575 0.985 . S
C570 C564 1.379 . S
C570 C567 1.363 . S
C570 N568 1.356 . S
C571 C565 1.363 . S
C571 C566 1.379 . S
C571 N569 1.356 . S
N572 C564 1.356 . S
N572 H578 0.984 . S
N572 H579 0.984 . S
N573 C566 1.356 . S
N573 H576 0.984 . S
N573 H577 0.985 . S
H574 N569 0.984 . S
H575 N569 0.985 . S
H576 N573 0.984 . S
H577 N573 0.985 . S
H578 N572 0.984 . S
H579 N572 0.984 . S
H580 N568 0.984 . S
H581 N568 0.985 . S
C582 C583 1.363 . S
C582 C588 1.379 1_455 S
C582 N590 1.356 . S
C583 C582 1.363 . S
C583 C589 1.363 . S
C584 C585 1.363 . S
C584 C589 1.379 1_655 S
C584 N591 1.356 . S
C585 C584 1.363 . S
C585 C588 1.363 . S
N586 C588 1.356 . S
N586 H598 0.984 1_556 S
N586 H599 0.985 . S
N587 C589 1.356 . S
N587 H592 0.984 . S
N587 H593 0.985 . S
C588 C582 1.379 1_655 S
C588 C585 1.363 . S
C588 N586 1.356 . S
C589 C583 1.363 . S
C589 C584 1.379 1_455 S
C589 N587 1.356 . S
N590 C582 1.356 . S
N590 H596 0.984 1_556 S
N590 H597 0.984 . S
N591 C584 1.356 . S
N591 H594 0.984 . S
N591 H595 0.985 . S
H592 N587 0.984 . S
H593 N587 0.985 . S
H594 N591 0.984 . S
H595 N591 0.985 . S
H596 N590 0.984 1_554 S
H597 N590 0.984 . S
H598 N586 0.984 1_554 S
H599 N586 0.985 . S
C169 C8 1.598 . S
C171 C148 1.598 . S
C187 C22 1.597 . S
C189 C162 1.597 . S
C205 C92 1.598 . S
C207 C36 1.598 . S
C223 C50 1.598 . S
C225 C106 1.598 . S
C241 C120 1.597 . S
C243 C64 1.597 . S
C259 C134 1.598 . S
C261 C78 1.598 . S
C277 C119 1.205 . S
C279 C7 1.205 . S
C295 C21 1.204 . S
C297 C133 1.204 . S
C313 C147 1.205 . S
C315 C35 1.205 . S
C331 C49 1.205 . S
C333 C161 1.205 . S
C349 C63 1.204 . S
C351 C91 1.204 . S
C367 C77 1.205 . S
C369 C105 1.205 1_556 S
C385 C151 1.411 . S
C387 C11 1.411 . S
C403 C165 1.411 . S
C405 C25 1.411 . S
C421 C95 1.411 . S
C423 C39 1.411 . S
C439 C53 1.411 . S
C441 C109 1.411 . S
C457 C67 1.411 . S
C459 C123 1.411 . S
C475 C137 1.411 . S
C477 C81 1.411 . S
C493 C13 1.329 . S
C495 C111 1.329 . S
C511 C125 1.328 . S
C513 C27 1.328 . S
C529 C139 1.328 . S
C531 C41 1.328 . S
C547 C55 1.328 . S
C549 C153 1.329 . S
C565 C69 1.328 . S
C567 C167 1.328 . S
C583 C83 1.328 . S
C585 C97 1.328 . S
