# Generated by pormake.
# Topology umx, (4)-cn, num edge types: 1
# Building blocks:
#     Node 0, Type 0, BuildingBlock: KUFVIS_clean_sbu_0, # of connection points: 4
#     Node 1, Type 0, BuildingBlock: KUFVIS_clean_sbu_0, # of connection points: 4
#     Node 2, Type 0, BuildingBlock: KUFVIS_clean_sbu_0, # of connection points: 4
#     Node 3, Type 0, BuildingBlock: KUFVIS_clean_sbu_0, # of connection points: 4
#     Node 4, Type 0, BuildingBlock: KUFVIS_clean_sbu_0, # of connection points: 4
#     Node 5, Type 0, BuildingBlock: KUFVIS_clean_sbu_0, # of connection points: 4
#     Node 6, Type 0, BuildingBlock: KUFVIS_clean_sbu_0, # of connection points: 4
#     Node 7, Type 0, BuildingBlock: KUFVIS_clean_sbu_0, # of connection points: 4
#     Edge 8, Type (0, 0), BuildingBlock: CIFDUS_clean_linker_0, # of connection points: 2
#     Edge 9, Type (0, 0), BuildingBlock: CIFDUS_clean_linker_0, # of connection points: 2
#     Edge 10, Type (0, 0), BuildingBlock: CIFDUS_clean_linker_0, # of connection points: 2
#     Edge 11, Type (0, 0), BuildingBlock: CIFDUS_clean_linker_0, # of connection points: 2
#     Edge 12, Type (0, 0), BuildingBlock: CIFDUS_clean_linker_0, # of connection points: 2
#     Edge 13, Type (0, 0), BuildingBlock: CIFDUS_clean_linker_0, # of connection points: 2
#     Edge 14, Type (0, 0), BuildingBlock: CIFDUS_clean_linker_0, # of connection points: 2
#     Edge 15, Type (0, 0), BuildingBlock: CIFDUS_clean_linker_0, # of connection points: 2
#     Edge 16, Type (0, 0), BuildingBlock: CIFDUS_clean_linker_0, # of connection points: 2
#     Edge 17, Type (0, 0), BuildingBlock: CIFDUS_clean_linker_0, # of connection points: 2
#     Edge 18, Type (0, 0), BuildingBlock: CIFDUS_clean_linker_0, # of connection points: 2
#     Edge 19, Type (0, 0), BuildingBlock: CIFDUS_clean_linker_0, # of connection points: 2
#     Edge 20, Type (0, 0), BuildingBlock: CIFDUS_clean_linker_0, # of connection points: 2
#     Edge 21, Type (0, 0), BuildingBlock: CIFDUS_clean_linker_0, # of connection points: 2
#     Edge 22, Type (0, 0), BuildingBlock: CIFDUS_clean_linker_0, # of connection points: 2
#     Edge 23, Type (0, 0), BuildingBlock: CIFDUS_clean_linker_0, # of connection points: 2
# Relax obj value: 0.124
# Max RMSD: 0.263
# Mean RMSD: 0.232
data_MOF--net-umx--node1-KUFVIS_clean_sbu_0--edge1-CIFDUS_clean_linker_0
_symmetry_space_group_name_H-M    P1
_symmetry_Int_Tables_number       1
_symmetry_cell_setting            triclinic
loop_
_symmetry_equiv_pos_as_xyz
'x, y, z'
_cell_length_a     30.429878
_cell_length_b     36.746991
_cell_length_c     24.526823
_cell_angle_alpha  89.794798
_cell_angle_beta   90.096295
_cell_angle_gamma 90.054043
loop_
_atom_site_label
_atom_site_type_symbol
_atom_site_fract_x
_atom_site_fract_y
_atom_site_fract_z
_atom_type_partial_charge
Mn0 Mn 0.19312 0.44773 0.02446 0.0
Mn1 Mn 0.14812 0.39242 0.92983 0.0
C2 C 0.12249 0.45896 0.9962 0.0
C3 C 0.2089 0.4622 0.11426 0.0
C4 C 0.21271 0.45253 0.90242 0.0
O5 O 0.23242 0.40401 0.02621 0.0
O6 O 0.2001 0.36791 0.96411 0.0
C7 C 0.11656 0.33271 1.00106 0.0
N8 N 0.10844 0.35834 0.96211 0.0
C9 C 0.03357 0.33821 0.95238 0.0
C10 C 0.04122 0.31139 0.99209 0.0
C11 C 0.08287 0.30869 0.0166 0.0
C12 C 0.06863 0.36095 0.93783 0.0
H13 H 0.14851 0.33058 0.02003 0.0
C14 C 0.22983 0.37433 0.99996 0.0
O15 O 0.2332 0.4744 0.07477 0.0
O16 O 0.17681 0.44051 0.10179 0.0
N17 N 0.09751 0.41173 0.89365 0.0
C18 C 0.09387 0.44238 0.86258 0.0
C19 C 0.05314 0.45116 0.83903 0.0
C20 C 0.01686 0.42809 0.84681 0.0
C21 C 0.02144 0.39666 0.87886 0.0
C22 C 0.06278 0.38935 0.90158 0.0
H23 H 0.12163 0.46029 0.85669 0.0
O24 O 0.14669 0.48427 0.01759 0.0
O25 O 0.14056 0.42668 0.99167 0.0
O26 O 0.21844 0.46386 0.95094 0.0
O27 O 0.18748 0.426 0.89053 0.0
C28 C 0.98608 0.37334 0.89145 0.0
C29 C 0.99217 0.34408 0.92808 0.0
H30 H 0.01518 0.2931 1.00469 0.0
H31 H 0.08894 0.28821 0.04753 0.0
H32 H 0.04958 0.47588 0.81555 0.0
H33 H 0.98535 0.43524 0.82924 0.0
H34 H 0.95377 0.37827 0.87436 0.0
H35 H 0.96448 0.32687 0.93844 0.0
Mn36 Mn 0.53911 0.16788 0.52175 0.0
Mn37 Mn 0.49875 0.25291 0.52145 0.0
C38 C 0.53287 0.19761 0.60338 0.0
C39 C 0.52227 0.10633 0.51913 0.0
C40 C 0.59377 0.2362 0.49763 0.0
O41 O 0.51559 0.17351 0.44546 0.0
O42 O 0.49028 0.23072 0.44737 0.0
C43 C 0.4056 0.23073 0.51156 0.0
N44 N 0.43786 0.24859 0.53921 0.0
C45 C 0.38706 0.26711 0.60884 0.0
C46 C 0.3532 0.24913 0.58093 0.0
C47 C 0.36255 0.23078 0.53214 0.0
C48 C 0.42934 0.26596 0.58647 0.0
H49 H 0.41271 0.21647 0.47419 0.0
C50 C 0.49812 0.20083 0.42249 0.0
O51 O 0.56057 0.11798 0.50306 0.0
O52 O 0.49472 0.13023 0.53692 0.0
N53 N 0.50422 0.27877 0.5886 0.0
C54 C 0.54045 0.29532 0.60986 0.0
C55 C 0.53649 0.31572 0.6579 0.0
C56 C 0.49529 0.31917 0.68314 0.0
C57 C 0.45852 0.30194 0.66048 0.0
C58 C 0.46435 0.28239 0.61219 0.0
H59 H 0.57204 0.29308 0.59015 0.0
O60 O 0.55669 0.1686 0.59892 0.0
O61 O 0.51023 0.20699 0.55998 0.0
O62 O 0.59156 0.20146 0.50265 0.0
O63 O 0.56142 0.25793 0.5045 0.0
C64 C 0.41623 0.30367 0.68364 0.0
C65 C 0.38057 0.28607 0.65801 0.0
H66 H 0.31995 0.24915 0.59663 0.0
H67 H 0.33664 0.21671 0.51047 0.0
H68 H 0.56502 0.32902 0.67516 0.0
H69 H 0.49207 0.33553 0.7195 0.0
H70 H 0.4108 0.31841 0.7212 0.0
H71 H 0.34824 0.28744 0.67631 0.0
Mn72 Mn 0.81026 0.55285 0.03965 0.0
Mn73 Mn 0.85967 0.60472 0.94319 0.0
C74 C 0.87945 0.53716 0.00952 0.0
C75 C 0.79931 0.54064 0.13299 0.0
C76 C 0.78607 0.55132 0.91828 0.0
O77 O 0.77518 0.59972 0.04081 0.0
O78 O 0.81266 0.63353 0.97958 0.0
C79 C 0.90205 0.66113 0.01113 0.0
N80 N 0.90507 0.63469 0.97259 0.0
C81 C 0.9817 0.64762 0.95798 0.0
C82 C 0.97936 0.67518 0.99728 0.0
C83 C 0.93939 0.6819 0.02403 0.0
C84 C 0.94321 0.62831 0.94601 0.0
H85 H 0.87135 0.66634 0.0317 0.0
C86 C 0.78178 0.62933 0.01461 0.0
O87 O 0.77149 0.52899 0.09667 0.0
O88 O 0.83104 0.56082 0.11524 0.0
N89 N 0.90582 0.58038 0.90508 0.0
C90 C 0.90433 0.54858 0.87674 0.0
C91 C 0.94302 0.53497 0.85329 0.0
C92 C 0.98235 0.55479 0.85745 0.0
C93 C 0.98301 0.58751 0.88664 0.0
C94 C 0.9437 0.59929 0.91041 0.0
H95 H 0.87418 0.53317 0.87376 0.0
O96 O 0.85394 0.51325 0.03219 0.0
O97 O 0.86353 0.57003 1.00455 0.0
O98 O 0.78076 0.53814 0.96629 0.0
O99 O 0.81435 0.57576 0.90697 0.0
C100 C 0.02176 0.60749 0.89635 0.0
C101 C 0.02106 0.63764 0.93179 0.0
H102 H 0.00822 0.69093 0.00792 0.0
H103 H 0.93741 0.70298 0.05464 0.0
H104 H 0.94285 0.50888 0.83319 0.0
H105 H 0.0122 0.54391 0.83988 0.0
H106 H 0.05259 0.59911 0.87831 0.0
H107 H 0.05132 0.65215 0.94014 0.0
Mn108 Mn 0.46544 0.83234 0.55736 0.0
Mn109 Mn 0.49562 0.74411 0.5527 0.0
C110 C 0.48118 0.80268 0.63686 0.0
C111 C 0.4862 0.89272 0.5469 0.0
C112 C 0.40096 0.76885 0.5472 0.0
O113 O 0.4771 0.82403 0.4779 0.0
O114 O 0.499 0.76566 0.47797 0.0
C115 C 0.58926 0.75678 0.52638 0.0
N116 N 0.55811 0.74213 0.55969 0.0
C117 C 0.61328 0.71763 0.6198 0.0
C118 C 0.64598 0.7322 0.58591 0.0
C119 C 0.6339 0.75194 0.53906 0.0
C120 C 0.56935 0.72331 0.60501 0.0
H121 H 0.58009 0.77212 0.49049 0.0
C122 C 0.49052 0.79574 0.4537 0.0
O123 O 0.44552 0.88267 0.54038 0.0
O124 O 0.51435 0.8678 0.5603 0.0
N125 N 0.49416 0.71894 0.62103 0.0
C126 C 0.45858 0.70708 0.64973 0.0
C127 C 0.46498 0.68714 0.69803 0.0
C128 C 0.50784 0.67916 0.71582 0.0
C129 C 0.54389 0.69111 0.68512 0.0
C130 C 0.53548 0.71065 0.63715 0.0
H131 H 0.4256 0.71303 0.63604 0.0
O132 O 0.4599 0.83325 0.63723 0.0
O133 O 0.49552 0.79144 0.58964 0.0
O134 O 0.40781 0.80307 0.55186 0.0
O135 O 0.43122 0.74473 0.54662 0.0
C136 C 0.58784 0.68471 0.70053 0.0
C137 C 0.62252 0.69805 0.66796 0.0
H138 H 0.68045 0.7286 0.59563 0.0
H139 H 0.65894 0.76343 0.51285 0.0
H140 H 0.43695 0.67789 0.72136 0.0
H141 H 0.51281 0.66369 0.75292 0.0
H142 H 0.59534 0.6698 0.73757 0.0
H143 H 0.65618 0.69321 0.68045 0.0
Mn144 Mn 0.1775 0.55397 0.50536 0.0
Mn145 Mn 0.13496 0.60246 0.60914 0.0
C146 C 0.11331 0.53415 0.54426 0.0
C147 C 0.1844 0.54312 0.41264 0.0
C148 C 0.20884 0.54817 0.62358 0.0
O149 O 0.2103 0.60125 0.50064 0.0
O150 O 0.18006 0.63222 0.56973 0.0
C151 C 0.08918 0.65961 0.54539 0.0
N152 N 0.08827 0.63295 0.58406 0.0
C153 C 0.01321 0.64673 0.60673 0.0
C154 C 0.01338 0.67449 0.56734 0.0
C155 C 0.05148 0.68083 0.53637 0.0
C156 C 0.05177 0.62654 0.61395 0.0
H157 H 0.11851 0.6647 0.52182 0.0
C158 C 0.20683 0.62964 0.52967 0.0
O159 O 0.21463 0.53255 0.44666 0.0
O160 O 0.15181 0.56159 0.4322 0.0
N161 N 0.09108 0.57833 0.65155 0.0
C162 C 0.09506 0.5482 0.68364 0.0
C163 C 0.05901 0.53659 0.71475 0.0
C164 C 0.0195 0.55633 0.7132 0.0
C165 C 0.01633 0.58743 0.68021 0.0
C166 C 0.05331 0.59763 0.6499 0.0
H167 H 0.12543 0.53304 0.68523 0.0
O168 O 0.1384 0.51266 0.51644 0.0
O169 O 0.12594 0.5683 0.5476 0.0
O170 O 0.21206 0.53864 0.57376 0.0
O171 O 0.18168 0.57201 0.64034 0.0
C172 C 0.97761 0.60817 0.67509 0.0
C173 C 0.97606 0.63783 0.63838 0.0
H174 H 0.98434 0.69085 0.56015 0.0
H175 H 0.0518 0.70211 0.50575 0.0
H176 H 0.06182 0.51251 0.73983 0.0
H177 H 0.99164 0.54716 0.73696 0.0
H178 H 0.94854 0.60103 0.69823 0.0
H179 H 0.94582 0.65309 0.63392 0.0
Mn180 Mn 0.47763 0.16004 0.99932 0.0
Mn181 Mn 0.51579 0.24611 0.98763 0.0
C182 C 0.49192 0.18301 0.91346 0.0
C183 C 0.49291 0.09889 0.01834 0.0
C184 C 0.41938 0.22832 0.99723 0.0
O185 O 0.49108 0.17371 0.07771 0.0
O186 O 0.51572 0.2305 0.06564 0.0
C187 C 0.6069 0.22719 0.01894 0.0
N188 N 0.57825 0.24227 0.98263 0.0
C189 C 0.6371 0.25859 0.92193 0.0
C190 C 0.6673 0.24346 0.95881 0.0
C191 C 0.6521 0.22758 0.00746 0.0
C192 C 0.59244 0.25716 0.93545 0.0
H193 H 0.59533 0.21492 0.05633 0.0
C194 C 0.50518 0.20374 0.09641 0.0
O195 O 0.45374 0.11224 0.02498 0.0
O196 O 0.52297 0.12108 1.00102 0.0
N197 N 0.51844 0.26705 0.91627 0.0
C198 C 0.48519 0.28178 0.88616 0.0
C199 C 0.4949 0.29916 0.83653 0.0
C200 C 0.53878 0.30212 0.81924 0.0
C201 C 0.57251 0.28784 0.85173 0.0
C202 C 0.56086 0.27088 0.90079 0.0
H203 H 0.45152 0.28002 0.8998 0.0
O204 O 0.46961 0.1533 0.92004 0.0
O205 O 0.50954 0.19676 0.9577 0.0
O206 O 0.4231 0.19361 1.00105 0.0
O207 O 0.45164 0.25042 0.99149 0.0
C208 C 0.61726 0.28979 0.83732 0.0
C209 C 0.64953 0.275 0.87228 0.0
H210 H 0.7022 0.24381 0.95016 0.0
H211 H 0.67517 0.21573 0.03606 0.0
H212 H 0.46867 0.31041 0.81189 0.0
H213 H 0.54647 0.31568 0.78129 0.0
H214 H 0.6272 0.30252 0.79938 0.0
H215 H 0.68382 0.27652 0.8607 0.0
Mn216 Mn 0.79646 0.4521 0.53074 0.0
Mn217 Mn 0.85711 0.40447 0.6221 0.0
C218 C 0.86166 0.47679 0.56151 0.0
C219 C 0.77955 0.46525 0.43918 0.0
C220 C 0.77484 0.44636 0.65236 0.0
O221 O 0.77164 0.401 0.52613 0.0
O222 O 0.81696 0.37062 0.58301 0.0
C223 C 0.91082 0.35675 0.55165 0.0
N224 N 0.90808 0.38227 0.59156 0.0
C225 C 0.98511 0.37639 0.61247 0.0
C226 C 0.98878 0.35 0.57155 0.0
C227 C 0.95154 0.34031 0.54081 0.0
C228 C 0.94371 0.39177 0.62142 0.0
H229 H 0.88204 0.34878 0.52874 0.0
C230 C 0.78514 0.37175 0.54877 0.0
O231 O 0.75123 0.47137 0.4777 0.0
O232 O 0.81616 0.45014 0.45365 0.0
N233 N 0.89731 0.4335 0.66279 0.0
C234 C 0.88919 0.46336 0.69382 0.0
C235 C 0.92396 0.47984 0.72202 0.0
C236 C 0.9663 0.46468 0.71958 0.0
C237 C 0.97381 0.43391 0.68727 0.0
C238 C 0.93811 0.41936 0.65871 0.0
H239 H 0.85661 0.47487 0.69609 0.0
O240 O 0.83099 0.49704 0.54068 0.0
O241 O 0.85352 0.44176 0.5636 0.0
O242 O 0.76638 0.46044 0.6057 0.0
O243 O 0.80694 0.42496 0.66075 0.0
C244 C 0.01553 0.41792 0.68059 0.0
C245 C 0.02109 0.38891 0.64359 0.0
H246 H 0.02014 0.33736 0.56291 0.0
H247 H 0.95416 0.32001 0.50912 0.0
H248 H 0.91802 0.50427 0.7452 0.0
H249 H 0.9929 0.47729 0.74183 0.0
H250 H 0.04373 0.42833 0.7026 0.0
H251 H 0.0535 0.37741 0.6378 0.0
Mn252 Mn 0.51662 0.82001 0.0326 0.0
Mn253 Mn 0.47059 0.73646 0.0263 0.0
C254 C 0.50039 0.79534 0.94922 0.0
C255 C 0.50533 0.88254 0.0436 0.0
C256 C 0.56793 0.74887 0.04471 0.0
O257 O 0.49884 0.80992 0.1104 0.0
O258 O 0.46534 0.75569 0.10175 0.0
C259 C 0.37845 0.75932 0.04312 0.0
N260 N 0.40921 0.7421 0.01234 0.0
C261 C 0.35516 0.72548 0.94521 0.0
C262 C 0.32278 0.7428 0.97637 0.0
C263 C 0.33452 0.75987 0.02548 0.0
C264 C 0.39835 0.72576 0.96493 0.0
H265 H 0.38742 0.77257 0.08077 0.0
C266 C 0.4786 0.78265 0.13035 0.0
O267 O 0.5434 0.86792 0.05391 0.0
O268 O 0.47436 0.86087 0.02771 0.0
N269 N 0.47309 0.71372 0.95638 0.0
C270 C 0.50851 0.69926 0.93037 0.0
C271 C 0.5025 0.68154 0.88027 0.0
C272 C 0.46013 0.67849 0.8579 0.0
C273 C 0.42418 0.69332 0.88561 0.0
C274 C 0.43211 0.71037 0.9356 0.0
H275 H 0.54107 0.70137 0.94766 0.0
O276 O 0.52712 0.8227 0.95317 0.0
O277 O 0.48172 0.78445 0.99425 0.0
O278 O 0.56796 0.78369 0.04129 0.0
O279 O 0.53361 0.72902 0.03981 0.0
C280 C 0.38085 0.69221 0.86531 0.0
C281 C 0.34638 0.70839 0.895 0.0
H282 H 0.28889 0.74339 0.96281 0.0
H283 H 0.30977 0.77345 0.04962 0.0
H284 H 0.53041 0.67014 0.85907 0.0
H285 H 0.45543 0.66457 0.81957 0.0
H286 H 0.37377 0.67932 0.82662 0.0
H287 H 0.31329 0.70771 0.8787 0.0
H288 H 0.14333 0.482 0.1795 0.0
H289 H 0.28445 0.47502 0.17204 0.0
H290 H 0.29002 0.49968 0.26493 0.0
H291 H 0.25365 0.52285 0.3486 0.0
H292 H 0.11254 0.53495 0.34949 0.0
H293 H 0.10795 0.50906 0.25855 0.0
C294 C 0.17527 0.48566 0.19848 0.0
C295 C 0.21339 0.47618 0.16997 0.0
C296 C 0.17812 0.50108 0.25039 0.0
C297 C 0.25471 0.48191 0.1939 0.0
C298 C 0.25783 0.49604 0.24676 0.0
C299 C 0.22206 0.52002 0.32852 0.0
C300 C 0.18351 0.53069 0.35564 0.0
C301 C 0.21966 0.50574 0.27544 0.0
C302 C 0.14272 0.52719 0.32926 0.0
C303 C 0.13998 0.51216 0.2774 0.0
H304 H 0.45972 0.209 0.66521 0.0
H305 H 0.60073 0.21842 0.66586 0.0
H306 H 0.60146 0.21803 0.76538 0.0
H307 H 0.56285 0.20154 0.85072 0.0
H308 H 0.42145 0.19761 0.85111 0.0
H309 H 0.41983 0.20931 0.75296 0.0
C310 C 0.49028 0.21314 0.68713 0.0
C311 C 0.53007 0.21392 0.65822 0.0
C312 C 0.4905 0.21269 0.74466 0.0
C313 C 0.56963 0.21807 0.68734 0.0
C314 C 0.57015 0.2173 0.74428 0.0
C315 C 0.53173 0.20501 0.82974 0.0
C316 C 0.49235 0.19935 0.85826 0.0
C317 C 0.53097 0.21255 0.77331 0.0
C318 C 0.45222 0.20228 0.83001 0.0
C319 C 0.45123 0.20891 0.77387 0.0
H320 H 0.84289 0.48765 0.37139 0.0
H321 H 0.70267 0.47284 0.37981 0.0
H322 H 0.69543 0.49402 0.28477 0.0
H323 H 0.7303 0.51676 0.19827 0.0
H324 H 0.87043 0.53564 0.19735 0.0
H325 H 0.87625 0.51304 0.29 0.0
C326 C 0.81067 0.48885 0.35241 0.0
C327 C 0.77346 0.47819 0.38225 0.0
C328 C 0.80678 0.502 0.29888 0.0
C329 C 0.73187 0.48074 0.35751 0.0
C330 C 0.72779 0.49284 0.30318 0.0
C331 C 0.76195 0.51597 0.21859 0.0
C332 C 0.79986 0.52792 0.19061 0.0
C333 C 0.76514 0.50356 0.27326 0.0
C334 C 0.84063 0.52695 0.21773 0.0
C335 C 0.84413 0.51384 0.27083 0.0
H336 H 0.55559 0.77693 0.86912 0.0
H337 H 0.41842 0.79045 0.90661 0.0
H338 H 0.39951 0.78398 0.81019 0.0
H339 H 0.42356 0.78695 0.71506 0.0
H340 H 0.56164 0.78512 0.67739 0.0
H341 H 0.57915 0.77365 0.77342 0.0
C342 C 0.52151 0.77728 0.85601 0.0
C343 C 0.48818 0.78286 0.8946 0.0
C344 C 0.51137 0.77595 0.80031 0.0
C345 C 0.44426 0.78462 0.87762 0.0
C346 C 0.4336 0.7815 0.82248 0.0
C347 C 0.45734 0.78278 0.72793 0.0
C348 C 0.49129 0.78574 0.68953 0.0
C349 C 0.46706 0.77878 0.78341 0.0
C350 C 0.53505 0.78155 0.70622 0.0
C351 C 0.54499 0.77562 0.76117 0.0
H352 H 0.74787 0.515 0.67739 0.0
H353 H 0.75481 0.40585 0.74151 0.0
H354 H 0.74993 0.4289 0.83435 0.0
H355 H 0.76251 0.48076 0.89648 0.0
H356 H 0.75659 0.58984 0.83169 0.0
H357 H 0.74128 0.56635 0.74095 0.0
C358 C 0.74605 0.4962 0.71152 0.0
C359 C 0.75248 0.45887 0.70256 0.0
C360 C 0.74462 0.50976 0.76519 0.0
C361 C 0.75036 0.43483 0.74739 0.0
C362 C 0.74806 0.44802 0.80067 0.0
C363 C 0.75598 0.49933 0.86296 0.0
C364 C 0.76166 0.53691 0.87061 0.0
C365 C 0.74806 0.48557 0.81017 0.0
C366 C 0.75317 0.56068 0.82664 0.0
C367 C 0.7446 0.54729 0.77454 0.0
H368 H 0.50068 0.83423 0.20461 0.0
H369 H 0.4481 0.72534 0.19139 0.0
H370 H 0.45009 0.71883 0.29038 0.0
H371 H 0.46811 0.74369 0.3809 0.0
H372 H 0.51821 0.85318 0.39341 0.0
H373 H 0.51678 0.85949 0.29424 0.0
C374 C 0.48931 0.80912 0.22321 0.0
C375 C 0.47439 0.78032 0.19039 0.0
C376 C 0.49086 0.8054 0.28002 0.0
C377 C 0.45964 0.74806 0.21552 0.0
C378 C 0.46108 0.74416 0.27217 0.0
C379 C 0.47931 0.76866 0.36167 0.0
C380 C 0.49381 0.79776 0.394 0.0
C381 C 0.47715 0.77248 0.30476 0.0
C382 C 0.50721 0.83037 0.36904 0.0
C383 C 0.50617 0.83405 0.31249 0.0
H384 H 0.22977 0.42938 0.79948 0.0
H385 H 0.23517 0.52441 0.90218 0.0
H386 H 0.24479 0.56315 0.82211 0.0
H387 H 0.23569 0.57062 0.72323 0.0
H388 H 0.22824 0.47583 0.62045 0.0
H389 H 0.23685 0.43638 0.70007 0.0
C390 C 0.23422 0.45848 0.8044 0.0
C391 C 0.23073 0.47408 0.85656 0.0
C392 C 0.23906 0.48067 0.7581 0.0
C393 C 0.2374 0.51171 0.86249 0.0
C394 C 0.2426 0.53395 0.81664 0.0
C395 C 0.23755 0.54134 0.71812 0.0
C396 C 0.23054 0.52613 0.66627 0.0
C397 C 0.24118 0.51886 0.76422 0.0
C398 C 0.23354 0.48823 0.65994 0.0
C399 C 0.23784 0.46562 0.7056 0.0
H400 H 0.51491 0.25188 0.34456 0.0
H401 H 0.46679 0.14252 0.36717 0.0
H402 H 0.46503 0.13354 0.26848 0.0
H403 H 0.48044 0.15562 0.17599 0.0
H404 H 0.53186 0.26417 0.153 0.0
H405 H 0.52966 0.27432 0.25121 0.0
C406 C 0.50313 0.22642 0.32769 0.0
C407 C 0.49038 0.19808 0.36302 0.0
C408 C 0.50368 0.22099 0.2708 0.0
C409 C 0.47636 0.16484 0.34073 0.0
C410 C 0.47567 0.1596 0.28433 0.0
C411 C 0.49139 0.18149 0.1923 0.0
C412 C 0.50649 0.20896 0.15669 0.0
C413 C 0.49 0.18724 0.24898 0.0
C414 C 0.52028 0.24234 0.17907 0.0
C415 C 0.51881 0.24831 0.23539 0.0
H416 H 0.9152 0.47065 0.99245 0.0
H417 H 0.94919 0.58167 0.02663 0.0
H418 H 0.02686 0.56859 0.01071 0.0
H419 H 0.08463 0.52471 0.98884 0.0
H420 H 0.05349 0.41149 0.00778 0.0
H421 H 0.97494 0.42484 0.99885 0.0
C422 C 0.93966 0.49206 0.99534 0.0
C423 C 0.9264 0.52835 1.00314 0.0
C424 C 0.98451 0.48318 0.9941 0.0
C425 C 0.95847 0.55488 0.01292 0.0
C426 C 0.00286 0.54705 0.00562 0.0
C427 C 0.06073 0.5028 0.99011 0.0
C428 C 0.07488 0.46636 0.99128 0.0
C429 C 0.01613 0.51129 0.9952 0.0
C430 C 0.04344 0.43888 0.9983 0.0
C431 C -0.00146 0.44686 0.99578 0.0
H432 H 0.43434 0.9518 0.53177 0.0
H433 H 0.57006 0.91876 0.54359 0.0
H434 H 0.59379 0.98179 0.53178 0.0
H435 H 0.57576 0.04692 0.52187 0.0
H436 H 0.43969 0.07952 0.51454 0.0
H437 H 0.41642 0.01619 0.52021 0.0
C438 C 0.4691 0.95838 0.53155 0.0
C439 C 0.50033 0.93075 0.53877 0.0
C440 C 0.48251 0.99467 0.52544 0.0
C441 C 0.5453 0.93965 0.53846 0.0
C442 C 0.55894 0.97567 0.53158 0.0
C443 C 0.54111 0.04 0.52091 0.0
C444 C 0.50951 0.06771 0.51792 0.0
C445 C 0.52783 0.00348 0.5255 0.0
C446 C 0.46464 0.05857 0.51719 0.0
C447 C 0.45125 0.02238 0.52045 0.0
H448 H 0.03447 0.57059 0.55102 0.0
H449 H 0.09263 0.46392 0.55967 0.0
H450 H 0.02024 0.43667 0.55635 0.0
H451 H 0.94022 0.44345 0.54937 0.0
H452 H 0.88191 0.54813 0.57717 0.0
H453 H 0.95427 0.57671 0.57 0.0
C454 C 0.0316 0.54174 0.55832 0.0
C455 C 0.06935 0.51983 0.55847 0.0
C456 C 0.98972 0.52588 0.56378 0.0
C457 C 0.06431 0.48176 0.56078 0.0
C458 C 0.02284 0.46592 0.55943 0.0
C459 C 0.9435 0.47186 0.55944 0.0
C460 C 0.90591 0.49292 0.5676 0.0
C461 C 0.98533 0.48767 0.5615 0.0
C462 C 0.91054 0.5309 0.57272 0.0
C463 C 0.95192 0.54733 0.56894 0.0
H464 H 0.56518 0.93806 0.04051 0.0
H465 H 0.42637 0.91586 0.05378 0.0
H466 H 0.41035 0.98083 0.05069 0.0
H467 H 0.4351 0.04388 0.03834 0.0
H468 H 0.57349 0.06638 0.0204 0.0
H469 H 0.59025 0.00176 0.0313 0.0
C470 C 0.53153 0.94754 0.04346 0.0
C471 C 0.49706 0.92216 0.04728 0.0
C472 C 0.52237 0.98508 0.04034 0.0
C473 C 0.45354 0.93482 0.05054 0.0
C474 C 0.44429 0.972 0.04872 0.0
C475 C 0.46895 0.03468 0.03727 0.0
C476 C 0.50292 0.05994 0.02836 0.0
C477 C 0.47834 0.99737 0.04265 0.0
C478 C 0.54663 0.04751 0.02692 0.0
C479 C 0.55628 0.01052 0.03318 0.0
H480 H 0.24047 0.30726 0.95236 0.0
H481 H 0.29585 0.37867 0.07447 0.0
H482 H 0.35607 0.33677 0.08898 0.0
H483 H 0.3974 0.28361 0.06094 0.0
H484 H 0.34522 0.2115 0.93892 0.0
H485 H 0.27889 0.24945 0.9312 0.0
C486 C 0.26551 0.31348 0.98244 0.0
C487 C 0.26389 0.34654 0.01136 0.0
C488 C 0.30059 0.28914 0.99074 0.0
C489 C 0.29637 0.35384 0.05082 0.0
C490 C 0.33094 0.32983 0.0594 0.0
C491 C 0.371 0.27587 0.03347 0.0
C492 C 0.37583 0.24518 1.0004 0.0
C493 C 0.33392 0.29798 0.0287 0.0
C494 C 0.3417 0.23502 0.96506 0.0
C495 C 0.30416 0.25691 0.96029 0.0
H496 H 0.73096 0.35778 0.46341 0.0
H497 H 0.7845 0.30911 0.60951 0.0
H498 H 0.73475 0.25737 0.59976 0.0
H499 H 0.66763 0.23153 0.55837 0.0
H500 H 0.61222 0.28247 0.41558 0.0
H501 H 0.67168 0.32716 0.4144 0.0
C502 C 0.73222 0.33561 0.49271 0.0
C503 C 0.76068 0.33773 0.53774 0.0
C504 C 0.70317 0.30623 0.4873 0.0
C505 C 0.76257 0.30838 0.57469 0.0
C506 C 0.73404 0.27878 0.56926 0.0
C507 C 0.66984 0.25151 0.52581 0.0
C508 C 0.6361 0.25382 0.48692 0.0
C509 C 0.70308 0.27809 0.52686 0.0
C510 C 0.6383 0.28024 0.44557 0.0
C511 C 0.67194 0.30599 0.44528 0.0
H512 H 0.71274 0.6317 0.08459 0.0
H513 H 0.77953 0.6953 0.96159 0.0
H514 H 0.72167 0.74119 0.96544 0.0
H515 H 0.64738 0.75954 0.99597 0.0
H516 H 0.57999 0.69343 0.11499 0.0
H517 H 0.64296 0.65263 0.121 0.0
C518 C 0.71507 0.65576 0.05899 0.0
C519 C 0.75017 0.65961 0.02225 0.0
C520 C 0.68135 0.68167 0.06059 0.0
C521 C 0.75269 0.69132 0.98994 0.0
C522 C 0.71954 0.71762 0.99201 0.0
C523 C 0.64715 0.7367 0.0241 0.0
C524 C 0.60929 0.72929 0.05485 0.0
C525 C 0.68305 0.71259 0.02607 0.0
C526 C 0.60887 0.69942 0.09073 0.0
C527 C 0.64474 0.67604 0.09407 0.0
H528 H 0.36952 0.72561 0.46932 0.0
H529 H 0.33295 0.7802 0.61742 0.0
H530 H 0.26495 0.7442 0.6221 0.0
H531 H 0.22239 0.69074 0.59077 0.0
H532 H 0.26131 0.63653 0.44233 0.0
H533 H 0.32148 0.67918 0.43067 0.0
C534 C 0.34594 0.73023 0.50173 0.0
C535 C 0.35582 0.75516 0.54303 0.0
C536 C 0.30773 0.70915 0.50449 0.0
C537 C 0.32547 0.76123 0.58498 0.0
C538 C 0.28696 0.74039 0.5879 0.0
C539 C 0.24352 0.68868 0.55536 0.0
C540 C 0.23788 0.65981 0.51832 0.0
C541 C 0.27864 0.71325 0.54895 0.0
C542 C 0.26529 0.65792 0.47223 0.0
C543 C 0.29981 0.68234 0.46536 0.0
loop_
_geom_bond_atom_site_label_1
_geom_bond_atom_site_label_2
_geom_bond_distance
_geom_bond_site_symmetry_2
_ccdc_geom_bond_type
Mn0 O5 2.095 . S
Mn0 O15 2.162 . S
Mn0 O16 2.297 . S
Mn0 O24 2.385 . S
Mn0 O25 2.209 . S
Mn0 O26 2.094 1_554 S
Mn1 O6 2.121 . S
Mn1 N8 2.257 . S
Mn1 N17 2.282 . S
Mn1 O25 2.215 1_556 S
Mn1 O27 2.117 . S
C2 O24 1.234 . S
C2 O25 1.283 . S
C3 O15 1.281 . S
C3 O16 1.236 . S
C4 O26 1.240 . S
C4 O27 1.264 . S
O5 Mn0 2.095 . S
O5 C14 1.250 . S
O6 Mn1 2.121 . S
O6 C14 1.258 1_556 S
C7 N8 1.326 . S
C7 C11 1.460 . S
C7 H13 0.929 . S
N8 Mn1 2.257 . S
N8 C7 1.326 . S
N8 C12 1.362 . S
C9 C10 1.258 . S
C9 C12 1.431 . S
C9 C29 1.449 1_455 S
C10 C9 1.258 . S
C10 C11 1.477 . S
C10 H30 0.931 . S
C11 C7 1.460 . S
C11 C10 1.477 . S
C11 H31 0.930 . S
C12 N8 1.362 . S
C12 C9 1.431 . S
C12 C22 1.476 . S
H13 C7 0.929 . S
C14 O5 1.250 . S
C14 O6 1.258 1_554 S
O15 Mn0 2.162 . S
O15 C3 1.281 . S
O16 Mn0 2.297 . S
O16 C3 1.236 . S
N17 Mn1 2.282 . S
N17 C18 1.328 . S
N17 C22 1.318 . S
C18 N17 1.328 . S
C18 C19 1.457 . S
C18 H23 0.929 . S
C19 C18 1.457 . S
C19 C20 1.291 . S
C19 H32 0.931 . S
C20 C19 1.291 . S
C20 C21 1.373 . S
C20 H33 0.929 1_455 S
C21 C20 1.373 . S
C21 C22 1.396 . S
C21 C28 1.403 1_455 S
C22 C12 1.476 . S
C22 N17 1.318 . S
C22 C21 1.396 . S
H23 C18 0.929 . S
O24 Mn0 2.385 . S
O24 C2 1.234 . S
O25 Mn0 2.209 . S
O25 Mn1 2.215 1_554 S
O25 C2 1.283 . S
O26 Mn0 2.094 1_556 S
O26 C4 1.240 . S
O27 Mn1 2.117 . S
O27 C4 1.264 . S
C28 C21 1.403 1_655 S
C28 C29 1.399 . S
C28 H34 0.929 . S
C29 C9 1.449 1_655 S
C29 C28 1.399 . S
C29 H35 0.930 . S
H30 C10 0.931 . S
H31 C11 0.930 . S
H32 C19 0.931 . S
H33 C20 0.929 1_655 S
H34 C28 0.929 . S
H35 C29 0.930 . S
Mn36 O41 2.095 . S
Mn36 O51 2.162 . S
Mn36 O52 2.297 . S
Mn36 O60 2.385 . S
Mn36 O61 2.209 . S
Mn36 O62 2.094 . S
Mn37 O42 2.121 . S
Mn37 N44 2.257 . S
Mn37 N53 2.282 . S
Mn37 O61 2.215 . S
Mn37 O63 2.117 . S
C38 O60 1.234 . S
C38 O61 1.283 . S
C39 O51 1.281 . S
C39 O52 1.236 . S
C40 O62 1.240 . S
C40 O63 1.264 . S
O41 Mn36 2.095 . S
O41 C50 1.250 . S
O42 Mn37 2.121 . S
O42 C50 1.258 . S
C43 N44 1.326 . S
C43 C47 1.460 . S
C43 H49 0.929 . S
N44 Mn37 2.257 . S
N44 C43 1.326 . S
N44 C48 1.362 . S
C45 C46 1.258 . S
C45 C48 1.431 . S
C45 C65 1.449 . S
C46 C45 1.258 . S
C46 C47 1.477 . S
C46 H66 0.931 . S
C47 C43 1.460 . S
C47 C46 1.477 . S
C47 H67 0.930 . S
C48 N44 1.362 . S
C48 C45 1.431 . S
C48 C58 1.476 . S
H49 C43 0.929 . S
C50 O41 1.250 . S
C50 O42 1.258 . S
O51 Mn36 2.162 . S
O51 C39 1.281 . S
O52 Mn36 2.297 . S
O52 C39 1.236 . S
N53 Mn37 2.282 . S
N53 C54 1.328 . S
N53 C58 1.318 . S
C54 N53 1.328 . S
C54 C55 1.457 . S
C54 H59 0.929 . S
C55 C54 1.457 . S
C55 C56 1.291 . S
C55 H68 0.931 . S
C56 C55 1.291 . S
C56 C57 1.373 . S
C56 H69 0.929 . S
C57 C56 1.373 . S
C57 C58 1.396 . S
C57 C64 1.403 . S
C58 C48 1.476 . S
C58 N53 1.318 . S
C58 C57 1.396 . S
H59 C54 0.929 . S
O60 Mn36 2.385 . S
O60 C38 1.234 . S
O61 Mn36 2.209 . S
O61 Mn37 2.215 . S
O61 C38 1.283 . S
O62 Mn36 2.094 . S
O62 C40 1.240 . S
O63 Mn37 2.117 . S
O63 C40 1.264 . S
C64 C57 1.403 . S
C64 C65 1.399 . S
C64 H70 0.929 . S
C65 C45 1.449 . S
C65 C64 1.399 . S
C65 H71 0.930 . S
H66 C46 0.931 . S
H67 C47 0.930 . S
H68 C55 0.931 . S
H69 C56 0.929 . S
H70 C64 0.929 . S
H71 C65 0.930 . S
Mn72 O77 2.095 . S
Mn72 O87 2.162 . S
Mn72 O88 2.297 . S
Mn72 O96 2.385 . S
Mn72 O97 2.209 . S
Mn72 O98 2.094 1_554 S
Mn73 O78 2.121 . S
Mn73 N80 2.257 . S
Mn73 N89 2.282 . S
Mn73 O97 2.215 1_556 S
Mn73 O99 2.117 . S
C74 O96 1.234 . S
C74 O97 1.283 . S
C75 O87 1.281 . S
C75 O88 1.236 . S
C76 O98 1.240 . S
C76 O99 1.264 . S
O77 Mn72 2.095 . S
O77 C86 1.250 . S
O78 Mn73 2.121 . S
O78 C86 1.258 1_556 S
C79 N80 1.326 . S
C79 C83 1.460 . S
C79 H85 0.929 . S
N80 Mn73 2.257 . S
N80 C79 1.326 . S
N80 C84 1.362 . S
C81 C82 1.258 . S
C81 C84 1.431 . S
C81 C101 1.449 1_655 S
C82 C81 1.258 . S
C82 C83 1.477 . S
C82 H102 0.931 . S
C83 C79 1.460 . S
C83 C82 1.477 . S
C83 H103 0.930 . S
C84 N80 1.362 . S
C84 C81 1.431 . S
C84 C94 1.476 . S
H85 C79 0.929 . S
C86 O77 1.250 . S
C86 O78 1.258 1_554 S
O87 Mn72 2.162 . S
O87 C75 1.281 . S
O88 Mn72 2.297 . S
O88 C75 1.236 . S
N89 Mn73 2.282 . S
N89 C90 1.328 . S
N89 C94 1.318 . S
C90 N89 1.328 . S
C90 C91 1.457 . S
C90 H95 0.929 . S
C91 C90 1.457 . S
C91 C92 1.291 . S
C91 H104 0.931 . S
C92 C91 1.291 . S
C92 C93 1.373 . S
C92 H105 0.929 1_655 S
C93 C92 1.373 . S
C93 C94 1.396 . S
C93 C100 1.403 1_655 S
C94 C84 1.476 . S
C94 N89 1.318 . S
C94 C93 1.396 . S
H95 C90 0.929 . S
O96 Mn72 2.385 . S
O96 C74 1.234 . S
O97 Mn72 2.209 . S
O97 Mn73 2.215 1_554 S
O97 C74 1.283 . S
O98 Mn72 2.094 1_556 S
O98 C76 1.240 . S
O99 Mn73 2.117 . S
O99 C76 1.264 . S
C100 C93 1.403 1_455 S
C100 C101 1.399 . S
C100 H106 0.929 . S
C101 C81 1.449 1_455 S
C101 C100 1.399 . S
C101 H107 0.930 . S
H102 C82 0.931 . S
H103 C83 0.930 . S
H104 C91 0.931 . S
H105 C92 0.929 1_455 S
H106 C100 0.929 . S
H107 C101 0.930 . S
Mn108 O113 2.095 . S
Mn108 O123 2.162 . S
Mn108 O124 2.297 . S
Mn108 O132 2.385 . S
Mn108 O133 2.209 . S
Mn108 O134 2.094 . S
Mn109 O114 2.121 . S
Mn109 N116 2.257 . S
Mn109 N125 2.282 . S
Mn109 O133 2.215 . S
Mn109 O135 2.117 . S
C110 O132 1.234 . S
C110 O133 1.283 . S
C111 O123 1.281 . S
C111 O124 1.236 . S
C112 O134 1.240 . S
C112 O135 1.264 . S
O113 Mn108 2.095 . S
O113 C122 1.250 . S
O114 Mn109 2.121 . S
O114 C122 1.258 . S
C115 N116 1.326 . S
C115 C119 1.460 . S
C115 H121 0.929 . S
N116 Mn109 2.257 . S
N116 C115 1.326 . S
N116 C120 1.362 . S
C117 C118 1.258 . S
C117 C120 1.431 . S
C117 C137 1.449 . S
C118 C117 1.258 . S
C118 C119 1.477 . S
C118 H138 0.931 . S
C119 C115 1.460 . S
C119 C118 1.477 . S
C119 H139 0.930 . S
C120 N116 1.362 . S
C120 C117 1.431 . S
C120 C130 1.476 . S
H121 C115 0.929 . S
C122 O113 1.250 . S
C122 O114 1.258 . S
O123 Mn108 2.162 . S
O123 C111 1.281 . S
O124 Mn108 2.297 . S
O124 C111 1.236 . S
N125 Mn109 2.282 . S
N125 C126 1.328 . S
N125 C130 1.318 . S
C126 N125 1.328 . S
C126 C127 1.457 . S
C126 H131 0.929 . S
C127 C126 1.457 . S
C127 C128 1.291 . S
C127 H140 0.931 . S
C128 C127 1.291 . S
C128 C129 1.373 . S
C128 H141 0.929 . S
C129 C128 1.373 . S
C129 C130 1.396 . S
C129 C136 1.403 . S
C130 C120 1.476 . S
C130 N125 1.318 . S
C130 C129 1.396 . S
H131 C126 0.929 . S
O132 Mn108 2.385 . S
O132 C110 1.234 . S
O133 Mn108 2.209 . S
O133 Mn109 2.215 . S
O133 C110 1.283 . S
O134 Mn108 2.094 . S
O134 C112 1.240 . S
O135 Mn109 2.117 . S
O135 C112 1.264 . S
C136 C129 1.403 . S
C136 C137 1.399 . S
C136 H142 0.929 . S
C137 C117 1.449 . S
C137 C136 1.399 . S
C137 H143 0.930 . S
H138 C118 0.931 . S
H139 C119 0.930 . S
H140 C127 0.931 . S
H141 C128 0.929 . S
H142 C136 0.929 . S
H143 C137 0.930 . S
Mn144 O149 2.095 . S
Mn144 O159 2.162 . S
Mn144 O160 2.297 . S
Mn144 O168 2.385 . S
Mn144 O169 2.209 . S
Mn144 O170 2.094 . S
Mn145 O150 2.121 . S
Mn145 N152 2.257 . S
Mn145 N161 2.282 . S
Mn145 O169 2.215 . S
Mn145 O171 2.117 . S
C146 O168 1.234 . S
C146 O169 1.283 . S
C147 O159 1.281 . S
C147 O160 1.236 . S
C148 O170 1.240 . S
C148 O171 1.264 . S
O149 Mn144 2.095 . S
O149 C158 1.250 . S
O150 Mn145 2.121 . S
O150 C158 1.258 . S
C151 N152 1.326 . S
C151 C155 1.460 . S
C151 H157 0.929 . S
N152 Mn145 2.257 . S
N152 C151 1.326 . S
N152 C156 1.362 . S
C153 C154 1.258 . S
C153 C156 1.431 . S
C153 C173 1.449 1_455 S
C154 C153 1.258 . S
C154 C155 1.477 . S
C154 H174 0.931 . S
C155 C151 1.460 . S
C155 C154 1.477 . S
C155 H175 0.930 . S
C156 N152 1.362 . S
C156 C153 1.431 . S
C156 C166 1.476 . S
H157 C151 0.929 . S
C158 O149 1.250 . S
C158 O150 1.258 . S
O159 Mn144 2.162 . S
O159 C147 1.281 . S
O160 Mn144 2.297 . S
O160 C147 1.236 . S
N161 Mn145 2.282 . S
N161 C162 1.328 . S
N161 C166 1.318 . S
C162 N161 1.328 . S
C162 C163 1.457 . S
C162 H167 0.929 . S
C163 C162 1.457 . S
C163 C164 1.291 . S
C163 H176 0.931 . S
C164 C163 1.291 . S
C164 C165 1.373 . S
C164 H177 0.929 1_455 S
C165 C164 1.373 . S
C165 C166 1.396 . S
C165 C172 1.403 1_455 S
C166 C156 1.476 . S
C166 N161 1.318 . S
C166 C165 1.396 . S
H167 C162 0.929 . S
O168 Mn144 2.385 . S
O168 C146 1.234 . S
O169 Mn144 2.209 . S
O169 Mn145 2.215 . S
O169 C146 1.283 . S
O170 Mn144 2.094 . S
O170 C148 1.240 . S
O171 Mn145 2.117 . S
O171 C148 1.264 . S
C172 C165 1.403 1_655 S
C172 C173 1.399 . S
C172 H178 0.929 . S
C173 C153 1.449 1_655 S
C173 C172 1.399 . S
C173 H179 0.930 . S
H174 C154 0.931 . S
H175 C155 0.930 . S
H176 C163 0.931 . S
H177 C164 0.929 1_655 S
H178 C172 0.929 . S
H179 C173 0.930 . S
Mn180 O185 2.095 . S
Mn180 O195 2.162 . S
Mn180 O196 2.297 . S
Mn180 O204 2.385 1_554 S
Mn180 O205 2.209 1_554 S
Mn180 O206 2.094 . S
Mn181 O186 2.121 . S
Mn181 N188 2.257 1_554 S
Mn181 N197 2.282 1_554 S
Mn181 O205 2.215 1_554 S
Mn181 O207 2.117 . S
C182 O204 1.234 . S
C182 O205 1.283 . S
C183 O195 1.281 . S
C183 O196 1.236 . S
C184 O206 1.240 . S
C184 O207 1.264 . S
O185 Mn180 2.095 . S
O185 C194 1.250 . S
O186 Mn181 2.121 . S
O186 C194 1.258 . S
C187 N188 1.326 1_554 S
C187 C191 1.460 . S
C187 H193 0.929 . S
N188 Mn181 2.257 1_556 S
N188 C187 1.326 1_556 S
N188 C192 1.362 . S
C189 C190 1.258 . S
C189 C192 1.431 . S
C189 C209 1.449 . S
C190 C189 1.258 . S
C190 C191 1.477 1_556 S
C190 H210 0.931 . S
C191 C187 1.460 . S
C191 C190 1.477 1_554 S
C191 H211 0.930 . S
C192 N188 1.362 . S
C192 C189 1.431 . S
C192 C202 1.476 . S
H193 C187 0.929 . S
C194 O185 1.250 . S
C194 O186 1.258 . S
O195 Mn180 2.162 . S
O195 C183 1.281 . S
O196 Mn180 2.297 . S
O196 C183 1.236 . S
N197 Mn181 2.282 1_556 S
N197 C198 1.328 . S
N197 C202 1.318 . S
C198 N197 1.328 . S
C198 C199 1.457 . S
C198 H203 0.929 . S
C199 C198 1.457 . S
C199 C200 1.291 . S
C199 H212 0.931 . S
C200 C199 1.291 . S
C200 C201 1.373 . S
C200 H213 0.929 . S
C201 C200 1.373 . S
C201 C202 1.396 . S
C201 C208 1.403 . S
C202 C192 1.476 . S
C202 N197 1.318 . S
C202 C201 1.396 . S
H203 C198 0.929 . S
O204 Mn180 2.385 1_556 S
O204 C182 1.234 . S
O205 Mn180 2.209 1_556 S
O205 Mn181 2.215 1_556 S
O205 C182 1.283 . S
O206 Mn180 2.094 . S
O206 C184 1.240 . S
O207 Mn181 2.117 . S
O207 C184 1.264 . S
C208 C201 1.403 . S
C208 C209 1.399 . S
C208 H214 0.929 . S
C209 C189 1.449 . S
C209 C208 1.399 . S
C209 H215 0.930 . S
H210 C190 0.931 . S
H211 C191 0.930 . S
H212 C199 0.931 . S
H213 C200 0.929 . S
H214 C208 0.929 . S
H215 C209 0.930 . S
Mn216 O221 2.095 . S
Mn216 O231 2.162 . S
Mn216 O232 2.297 . S
Mn216 O240 2.385 . S
Mn216 O241 2.209 . S
Mn216 O242 2.094 . S
Mn217 O222 2.121 . S
Mn217 N224 2.257 . S
Mn217 N233 2.282 . S
Mn217 O241 2.215 . S
Mn217 O243 2.117 . S
C218 O240 1.234 . S
C218 O241 1.283 . S
C219 O231 1.281 . S
C219 O232 1.236 . S
C220 O242 1.240 . S
C220 O243 1.264 . S
O221 Mn216 2.095 . S
O221 C230 1.250 . S
O222 Mn217 2.121 . S
O222 C230 1.258 . S
C223 N224 1.326 . S
C223 C227 1.460 . S
C223 H229 0.929 . S
N224 Mn217 2.257 . S
N224 C223 1.326 . S
N224 C228 1.362 . S
C225 C226 1.258 . S
C225 C228 1.431 . S
C225 C245 1.449 1_655 S
C226 C225 1.258 . S
C226 C227 1.477 . S
C226 H246 0.931 . S
C227 C223 1.460 . S
C227 C226 1.477 . S
C227 H247 0.930 . S
C228 N224 1.362 . S
C228 C225 1.431 . S
C228 C238 1.476 . S
H229 C223 0.929 . S
C230 O221 1.250 . S
C230 O222 1.258 . S
O231 Mn216 2.162 . S
O231 C219 1.281 . S
O232 Mn216 2.297 . S
O232 C219 1.236 . S
N233 Mn217 2.282 . S
N233 C234 1.328 . S
N233 C238 1.318 . S
C234 N233 1.328 . S
C234 C235 1.457 . S
C234 H239 0.929 . S
C235 C234 1.457 . S
C235 C236 1.291 . S
C235 H248 0.931 . S
C236 C235 1.291 . S
C236 C237 1.373 . S
C236 H249 0.929 1_655 S
C237 C236 1.373 . S
C237 C238 1.396 . S
C237 C244 1.403 1_655 S
C238 C228 1.476 . S
C238 N233 1.318 . S
C238 C237 1.396 . S
H239 C234 0.929 . S
O240 Mn216 2.385 . S
O240 C218 1.234 . S
O241 Mn216 2.209 . S
O241 Mn217 2.215 . S
O241 C218 1.283 . S
O242 Mn216 2.094 . S
O242 C220 1.240 . S
O243 Mn217 2.117 . S
O243 C220 1.264 . S
C244 C237 1.403 1_455 S
C244 C245 1.399 . S
C244 H250 0.929 . S
C245 C225 1.449 1_455 S
C245 C244 1.399 . S
C245 H251 0.930 . S
H246 C226 0.931 . S
H247 C227 0.930 . S
H248 C235 0.931 . S
H249 C236 0.929 1_455 S
H250 C244 0.929 . S
H251 C245 0.930 . S
Mn252 O257 2.095 . S
Mn252 O267 2.162 . S
Mn252 O268 2.297 . S
Mn252 O276 2.385 1_554 S
Mn252 O277 2.209 1_554 S
Mn252 O278 2.094 . S
Mn253 O258 2.121 . S
Mn253 N260 2.257 1_554 S
Mn253 N269 2.282 1_554 S
Mn253 O277 2.215 1_554 S
Mn253 O279 2.117 . S
C254 O276 1.234 . S
C254 O277 1.283 . S
C255 O267 1.281 . S
C255 O268 1.236 . S
C256 O278 1.240 . S
C256 O279 1.264 . S
O257 Mn252 2.095 . S
O257 C266 1.250 . S
O258 Mn253 2.121 . S
O258 C266 1.258 . S
C259 N260 1.326 1_554 S
C259 C263 1.460 . S
C259 H265 0.929 . S
N260 Mn253 2.257 1_556 S
N260 C259 1.326 1_556 S
N260 C264 1.362 . S
C261 C262 1.258 . S
C261 C264 1.431 . S
C261 C281 1.449 . S
C262 C261 1.258 . S
C262 C263 1.477 1_556 S
C262 H282 0.931 . S
C263 C259 1.460 . S
C263 C262 1.477 1_554 S
C263 H283 0.930 . S
C264 N260 1.362 . S
C264 C261 1.431 . S
C264 C274 1.476 . S
H265 C259 0.929 . S
C266 O257 1.250 . S
C266 O258 1.258 . S
O267 Mn252 2.162 . S
O267 C255 1.281 . S
O268 Mn252 2.297 . S
O268 C255 1.236 . S
N269 Mn253 2.282 1_556 S
N269 C270 1.328 . S
N269 C274 1.318 . S
C270 N269 1.328 . S
C270 C271 1.457 . S
C270 H275 0.929 . S
C271 C270 1.457 . S
C271 C272 1.291 . S
C271 H284 0.931 . S
C272 C271 1.291 . S
C272 C273 1.373 . S
C272 H285 0.929 . S
C273 C272 1.373 . S
C273 C274 1.396 . S
C273 C280 1.403 . S
C274 C264 1.476 . S
C274 N269 1.318 . S
C274 C273 1.396 . S
H275 C270 0.929 . S
O276 Mn252 2.385 1_556 S
O276 C254 1.234 . S
O277 Mn252 2.209 1_556 S
O277 Mn253 2.215 1_556 S
O277 C254 1.283 . S
O278 Mn252 2.094 . S
O278 C256 1.240 . S
O279 Mn253 2.117 . S
O279 C256 1.264 . S
C280 C273 1.403 . S
C280 C281 1.399 . S
C280 H286 0.929 . S
C281 C261 1.449 . S
C281 C280 1.399 . S
C281 H287 0.930 . S
H282 C262 0.931 . S
H283 C263 0.930 . S
H284 C271 0.931 . S
H285 C272 0.929 . S
H286 C280 0.929 . S
H287 C281 0.930 . S
H288 C294 0.930 . S
H289 C297 0.930 . S
H290 C298 0.930 . S
H291 C299 0.930 . S
H292 C302 0.930 . S
H293 C303 0.930 . S
C294 H288 0.930 . S
C294 C295 1.355 . S
C294 C296 1.415 . S
C295 C294 1.355 . S
C295 C297 1.419 . S
C296 C294 1.415 . S
C296 C301 1.425 . S
C296 C303 1.409 . S
C297 H289 0.930 . S
C297 C295 1.419 . S
C297 C298 1.362 . S
C298 H290 0.930 . S
C298 C297 1.362 . S
C298 C301 1.409 . S
C299 H291 0.930 . S
C299 C300 1.355 . S
C299 C301 1.415 . S
C300 C299 1.355 . S
C300 C302 1.419 . S
C301 C296 1.425 . S
C301 C298 1.409 . S
C301 C299 1.415 . S
C302 H292 0.930 . S
C302 C300 1.419 . S
C302 C303 1.362 . S
C303 H293 0.930 . S
C303 C296 1.409 . S
C303 C302 1.362 . S
H304 C310 0.930 . S
H305 C313 0.930 . S
H306 C314 0.930 . S
H307 C315 0.930 . S
H308 C318 0.930 . S
H309 C319 0.930 . S
C310 H304 0.930 . S
C310 C311 1.355 . S
C310 C312 1.415 . S
C311 C310 1.355 . S
C311 C313 1.419 . S
C312 C310 1.415 . S
C312 C317 1.425 . S
C312 C319 1.409 . S
C313 H305 0.930 . S
C313 C311 1.419 . S
C313 C314 1.362 . S
C314 H306 0.930 . S
C314 C313 1.362 . S
C314 C317 1.409 . S
C315 H307 0.930 . S
C315 C316 1.355 . S
C315 C317 1.415 . S
C316 C315 1.355 . S
C316 C318 1.419 . S
C317 C312 1.425 . S
C317 C314 1.409 . S
C317 C315 1.415 . S
C318 H308 0.930 . S
C318 C316 1.419 . S
C318 C319 1.362 . S
C319 H309 0.930 . S
C319 C312 1.409 . S
C319 C318 1.362 . S
H320 C326 0.930 . S
H321 C329 0.930 . S
H322 C330 0.930 . S
H323 C331 0.930 . S
H324 C334 0.930 . S
H325 C335 0.930 . S
C326 H320 0.930 . S
C326 C327 1.355 . S
C326 C328 1.415 . S
C327 C326 1.355 . S
C327 C329 1.419 . S
C328 C326 1.415 . S
C328 C333 1.425 . S
C328 C335 1.409 . S
C329 H321 0.930 . S
C329 C327 1.419 . S
C329 C330 1.362 . S
C330 H322 0.930 . S
C330 C329 1.362 . S
C330 C333 1.409 . S
C331 H323 0.930 . S
C331 C332 1.355 . S
C331 C333 1.415 . S
C332 C331 1.355 . S
C332 C334 1.419 . S
C333 C328 1.425 . S
C333 C330 1.409 . S
C333 C331 1.415 . S
C334 H324 0.930 . S
C334 C332 1.419 . S
C334 C335 1.362 . S
C335 H325 0.930 . S
C335 C328 1.409 . S
C335 C334 1.362 . S
H336 C342 0.930 . S
H337 C345 0.930 . S
H338 C346 0.930 . S
H339 C347 0.930 . S
H340 C350 0.930 . S
H341 C351 0.930 . S
C342 H336 0.930 . S
C342 C343 1.355 . S
C342 C344 1.415 . S
C343 C342 1.355 . S
C343 C345 1.419 . S
C344 C342 1.415 . S
C344 C349 1.425 . S
C344 C351 1.409 . S
C345 H337 0.930 . S
C345 C343 1.419 . S
C345 C346 1.362 . S
C346 H338 0.930 . S
C346 C345 1.362 . S
C346 C349 1.409 . S
C347 H339 0.930 . S
C347 C348 1.355 . S
C347 C349 1.415 . S
C348 C347 1.355 . S
C348 C350 1.419 . S
C349 C344 1.425 . S
C349 C346 1.409 . S
C349 C347 1.415 . S
C350 H340 0.930 . S
C350 C348 1.419 . S
C350 C351 1.362 . S
C351 H341 0.930 . S
C351 C344 1.409 . S
C351 C350 1.362 . S
H352 C358 0.930 . S
H353 C361 0.930 . S
H354 C362 0.930 . S
H355 C363 0.930 . S
H356 C366 0.930 . S
H357 C367 0.930 . S
C358 H352 0.930 . S
C358 C359 1.355 . S
C358 C360 1.415 . S
C359 C358 1.355 . S
C359 C361 1.419 . S
C360 C358 1.415 . S
C360 C365 1.425 . S
C360 C367 1.409 . S
C361 H353 0.930 . S
C361 C359 1.419 . S
C361 C362 1.362 . S
C362 H354 0.930 . S
C362 C361 1.362 . S
C362 C365 1.409 . S
C363 H355 0.930 . S
C363 C364 1.355 . S
C363 C365 1.415 . S
C364 C363 1.355 . S
C364 C366 1.419 . S
C365 C360 1.425 . S
C365 C362 1.409 . S
C365 C363 1.415 . S
C366 H356 0.930 . S
C366 C364 1.419 . S
C366 C367 1.362 . S
C367 H357 0.930 . S
C367 C360 1.409 . S
C367 C366 1.362 . S
H368 C374 0.930 . S
H369 C377 0.930 . S
H370 C378 0.930 . S
H371 C379 0.930 . S
H372 C382 0.930 . S
H373 C383 0.930 . S
C374 H368 0.930 . S
C374 C375 1.355 . S
C374 C376 1.415 . S
C375 C374 1.355 . S
C375 C377 1.419 . S
C376 C374 1.415 . S
C376 C381 1.425 . S
C376 C383 1.409 . S
C377 H369 0.930 . S
C377 C375 1.419 . S
C377 C378 1.362 . S
C378 H370 0.930 . S
C378 C377 1.362 . S
C378 C381 1.409 . S
C379 H371 0.930 . S
C379 C380 1.355 . S
C379 C381 1.415 . S
C380 C379 1.355 . S
C380 C382 1.419 . S
C381 C376 1.425 . S
C381 C378 1.409 . S
C381 C379 1.415 . S
C382 H372 0.930 . S
C382 C380 1.419 . S
C382 C383 1.362 . S
C383 H373 0.930 . S
C383 C376 1.409 . S
C383 C382 1.362 . S
H384 C390 0.930 . S
H385 C393 0.930 . S
H386 C394 0.930 . S
H387 C395 0.930 . S
H388 C398 0.930 . S
H389 C399 0.930 . S
C390 H384 0.930 . S
C390 C391 1.355 . S
C390 C392 1.415 . S
C391 C390 1.355 . S
C391 C393 1.419 . S
C392 C390 1.415 . S
C392 C397 1.425 . S
C392 C399 1.409 . S
C393 H385 0.930 . S
C393 C391 1.419 . S
C393 C394 1.362 . S
C394 H386 0.930 . S
C394 C393 1.362 . S
C394 C397 1.409 . S
C395 H387 0.930 . S
C395 C396 1.355 . S
C395 C397 1.415 . S
C396 C395 1.355 . S
C396 C398 1.419 . S
C397 C392 1.425 . S
C397 C394 1.409 . S
C397 C395 1.415 . S
C398 H388 0.930 . S
C398 C396 1.419 . S
C398 C399 1.362 . S
C399 H389 0.930 . S
C399 C392 1.409 . S
C399 C398 1.362 . S
H400 C406 0.930 . S
H401 C409 0.930 . S
H402 C410 0.930 . S
H403 C411 0.930 . S
H404 C414 0.930 . S
H405 C415 0.930 . S
C406 H400 0.930 . S
C406 C407 1.355 . S
C406 C408 1.415 . S
C407 C406 1.355 . S
C407 C409 1.419 . S
C408 C406 1.415 . S
C408 C413 1.425 . S
C408 C415 1.409 . S
C409 H401 0.930 . S
C409 C407 1.419 . S
C409 C410 1.362 . S
C410 H402 0.930 . S
C410 C409 1.362 . S
C410 C413 1.409 . S
C411 H403 0.930 . S
C411 C412 1.355 . S
C411 C413 1.415 . S
C412 C411 1.355 . S
C412 C414 1.419 . S
C413 C408 1.425 . S
C413 C410 1.409 . S
C413 C411 1.415 . S
C414 H404 0.930 . S
C414 C412 1.419 . S
C414 C415 1.362 . S
C415 H405 0.930 . S
C415 C408 1.409 . S
C415 C414 1.362 . S
H416 C422 0.930 . S
H417 C425 0.930 . S
H418 C426 0.942 . S
H419 C427 0.930 . S
H420 C430 0.930 . S
H421 C431 0.942 . S
C422 H416 0.930 . S
C422 C423 1.355 . S
C422 C424 1.415 . S
C423 C422 1.355 . S
C423 C425 1.419 . S
C424 C422 1.415 . S
C424 C429 1.425 1_655 S
C424 C431 1.415 . S
C425 H417 0.930 . S
C425 C423 1.419 . S
C425 C426 1.345 1_655 S
C426 H418 0.942 . S
C426 C425 1.345 1_455 S
C426 C429 1.415 . S
C427 H419 0.930 . S
C427 C428 1.355 . S
C427 C429 1.415 . S
C428 C427 1.355 . S
C428 C430 1.419 . S
C429 C424 1.425 1_455 S
C429 C426 1.415 . S
C429 C427 1.415 . S
C430 H420 0.930 . S
C430 C428 1.419 . S
C430 C431 1.345 1_455 S
C431 H421 0.942 . S
C431 C424 1.415 . S
C431 C430 1.345 1_655 S
H432 C438 0.930 . S
H433 C441 0.930 . S
H434 C442 0.930 . S
H435 C443 0.930 . S
H436 C446 0.930 . S
H437 C447 0.930 . S
C438 H432 0.930 . S
C438 C439 1.355 . S
C438 C440 1.415 1_565 S
C439 C438 1.355 . S
C439 C441 1.419 . S
C440 C438 1.415 1_545 S
C440 C445 1.425 1_545 S
C440 C447 1.409 . S
C441 H433 0.930 . S
C441 C439 1.419 . S
C441 C442 1.362 . S
C442 H434 0.930 . S
C442 C441 1.362 . S
C442 C445 1.409 . S
C443 H435 0.930 . S
C443 C444 1.355 . S
C443 C445 1.415 1_545 S
C444 C443 1.355 . S
C444 C446 1.419 . S
C445 C440 1.425 1_565 S
C445 C442 1.409 . S
C445 C443 1.415 1_565 S
C446 H436 0.930 . S
C446 C444 1.419 . S
C446 C447 1.362 . S
C447 H437 0.930 . S
C447 C440 1.409 . S
C447 C446 1.362 . S
H448 C454 0.930 . S
H449 C457 0.930 . S
H450 C458 0.930 . S
H451 C459 0.930 . S
H452 C462 0.930 . S
H453 C463 0.930 . S
C454 H448 0.930 . S
C454 C455 1.355 . S
C454 C456 1.415 1_455 S
C455 C454 1.355 . S
C455 C457 1.419 . S
C456 C454 1.415 1_655 S
C456 C461 1.425 1_655 S
C456 C463 1.409 . S
C457 H449 0.930 . S
C457 C455 1.419 . S
C457 C458 1.362 . S
C458 H450 0.930 . S
C458 C457 1.362 . S
C458 C461 1.409 . S
C459 H451 0.930 . S
C459 C460 1.355 . S
C459 C461 1.415 1_655 S
C460 C459 1.355 . S
C460 C462 1.419 . S
C461 C456 1.425 1_455 S
C461 C458 1.409 . S
C461 C459 1.415 1_455 S
C462 H452 0.930 . S
C462 C460 1.419 . S
C462 C463 1.362 . S
C463 H453 0.930 . S
C463 C456 1.409 . S
C463 C462 1.362 . S
H464 C470 0.930 . S
H465 C473 0.930 . S
H466 C474 0.930 . S
H467 C475 0.930 . S
H468 C478 0.930 1_556 S
H469 C479 0.930 . S
C470 H464 0.930 . S
C470 C471 1.355 . S
C470 C472 1.415 1_565 S
C471 C470 1.355 . S
C471 C473 1.419 . S
C472 C470 1.415 1_545 S
C472 C477 1.425 1_545 S
C472 C479 1.409 1_554 S
C473 H465 0.930 . S
C473 C471 1.419 . S
C473 C474 1.362 . S
C474 H466 0.930 . S
C474 C473 1.362 . S
C474 C477 1.409 . S
C475 H467 0.930 . S
C475 C476 1.355 . S
C475 C477 1.415 1_545 S
C476 C475 1.355 . S
C476 C478 1.419 . S
C477 C472 1.425 1_565 S
C477 C474 1.409 . S
C477 C475 1.415 1_565 S
C478 H468 0.930 1_554 S
C478 C476 1.419 . S
C478 C479 1.362 1_554 S
C479 H469 0.930 . S
C479 C472 1.409 1_556 S
C479 C478 1.362 1_556 S
H480 C486 0.930 1_556 S
H481 C489 0.930 . S
H482 C490 0.930 . S
H483 C491 0.930 . S
H484 C494 0.930 . S
H485 C495 0.930 . S
C486 H480 0.930 1_554 S
C486 C487 1.355 . S
C486 C488 1.415 . S
C487 C486 1.355 . S
C487 C489 1.419 . S
C488 C486 1.415 . S
C488 C493 1.425 . S
C488 C495 1.409 1_554 S
C489 H481 0.930 . S
C489 C487 1.419 . S
C489 C490 1.362 . S
C490 H482 0.930 . S
C490 C489 1.362 . S
C490 C493 1.409 . S
C491 H483 0.930 . S
C491 C492 1.355 . S
C491 C493 1.415 . S
C492 C491 1.355 . S
C492 C494 1.419 1_554 S
C493 C488 1.425 . S
C493 C490 1.409 . S
C493 C491 1.415 . S
C494 H484 0.930 . S
C494 C492 1.419 1_556 S
C494 C495 1.362 . S
C495 H485 0.930 . S
C495 C488 1.409 1_556 S
C495 C494 1.362 . S
H496 C502 0.930 . S
H497 C505 0.930 . S
H498 C506 0.930 . S
H499 C507 0.930 . S
H500 C510 0.930 . S
H501 C511 0.930 . S
C502 H496 0.930 . S
C502 C503 1.355 . S
C502 C504 1.415 . S
C503 C502 1.355 . S
C503 C505 1.419 . S
C504 C502 1.415 . S
C504 C509 1.425 . S
C504 C511 1.409 . S
C505 H497 0.930 . S
C505 C503 1.419 . S
C505 C506 1.362 . S
C506 H498 0.930 . S
C506 C505 1.362 . S
C506 C509 1.409 . S
C507 H499 0.930 . S
C507 C508 1.355 . S
C507 C509 1.415 . S
C508 C507 1.355 . S
C508 C510 1.419 . S
C509 C504 1.425 . S
C509 C506 1.409 . S
C509 C507 1.415 . S
C510 H500 0.930 . S
C510 C508 1.419 . S
C510 C511 1.362 . S
C511 H501 0.930 . S
C511 C504 1.409 . S
C511 C510 1.362 . S
H512 C518 0.930 . S
H513 C521 0.930 . S
H514 C522 0.930 . S
H515 C523 0.930 . S
H516 C526 0.930 . S
H517 C527 0.930 . S
C518 H512 0.930 . S
C518 C519 1.355 . S
C518 C520 1.415 . S
C519 C518 1.355 . S
C519 C521 1.419 . S
C520 C518 1.415 . S
C520 C525 1.425 . S
C520 C527 1.409 . S
C521 H513 0.930 . S
C521 C519 1.419 . S
C521 C522 1.362 . S
C522 H514 0.930 . S
C522 C521 1.362 . S
C522 C525 1.409 . S
C523 H515 0.930 . S
C523 C524 1.355 . S
C523 C525 1.415 . S
C524 C523 1.355 . S
C524 C526 1.419 . S
C525 C520 1.425 . S
C525 C522 1.409 . S
C525 C523 1.415 . S
C526 H516 0.930 . S
C526 C524 1.419 . S
C526 C527 1.362 . S
C527 H517 0.930 . S
C527 C520 1.409 . S
C527 C526 1.362 . S
H528 C534 0.930 . S
H529 C537 0.930 . S
H530 C538 0.930 . S
H531 C539 0.930 . S
H532 C542 0.930 . S
H533 C543 0.930 . S
C534 H528 0.930 . S
C534 C535 1.355 . S
C534 C536 1.415 . S
C535 C534 1.355 . S
C535 C537 1.419 . S
C536 C534 1.415 . S
C536 C541 1.425 . S
C536 C543 1.409 . S
C537 H529 0.930 . S
C537 C535 1.419 . S
C537 C538 1.362 . S
C538 H530 0.930 . S
C538 C537 1.362 . S
C538 C541 1.409 . S
C539 H531 0.930 . S
C539 C540 1.355 . S
C539 C541 1.415 . S
C540 C539 1.355 . S
C540 C542 1.419 . S
C541 C536 1.425 . S
C541 C538 1.409 . S
C541 C539 1.415 . S
C542 H532 0.930 . S
C542 C540 1.419 . S
C542 C543 1.362 . S
C543 H533 0.930 . S
C543 C536 1.409 . S
C543 C542 1.362 . S
C295 C3 1.138 . S
C300 C147 1.132 . S
C311 C38 1.382 . S
C316 C182 1.386 . S
C327 C219 1.115 . S
C332 C75 1.091 . S
C343 C254 1.395 . S
C348 C110 1.424 . S
C359 C220 1.051 . S
C364 C76 1.112 . S
C375 C266 1.517 . S
C380 C122 1.539 . S
C391 C4 1.116 . S
C396 C148 1.053 . S
C407 C50 1.583 . S
C412 C194 1.578 . S
C423 C74 1.388 . S
C428 C2 1.386 . S
C439 C111 1.368 . S
C444 C39 1.372 . S
C455 C146 1.313 . S
C460 C218 1.315 . S
C471 C255 1.370 . S
C476 C183 1.377 . S
C487 C14 1.317 . S
C492 C184 1.311 . S
C503 C230 1.270 . S
C508 C40 1.318 . S
C519 C86 1.259 . S
C524 C256 1.263 . S
C535 C112 1.316 . S
C540 C158 1.313 . S
