# Generated by pormake.
# Topology lvt, (4)-cn, num edge types: 1
# Building blocks:
#     Node 0, Type 0, BuildingBlock: MUDLON_clean_sbu_0, # of connection points: 4
#     Node 1, Type 0, BuildingBlock: MUDLON_clean_sbu_0, # of connection points: 4
#     Node 2, Type 0, BuildingBlock: MUDLON_clean_sbu_0, # of connection points: 4
#     Node 3, Type 0, BuildingBlock: MUDLON_clean_sbu_0, # of connection points: 4
#     Node 4, Type 0, BuildingBlock: MUDLON_clean_sbu_0, # of connection points: 4
#     Node 5, Type 0, BuildingBlock: MUDLON_clean_sbu_0, # of connection points: 4
#     Node 6, Type 0, BuildingBlock: MUDLON_clean_sbu_0, # of connection points: 4
#     Node 7, Type 0, BuildingBlock: MUDLON_clean_sbu_0, # of connection points: 4
#     Edge 8, Type (0, 0), BuildingBlock: AJUNOK_clean_linker_0, # of connection points: 2
#     Edge 9, Type (0, 0), BuildingBlock: AJUNOK_clean_linker_0, # of connection points: 2
#     Edge 10, Type (0, 0), BuildingBlock: AJUNOK_clean_linker_0, # of connection points: 2
#     Edge 11, Type (0, 0), BuildingBlock: AJUNOK_clean_linker_0, # of connection points: 2
#     Edge 12, Type (0, 0), BuildingBlock: AJUNOK_clean_linker_0, # of connection points: 2
#     Edge 13, Type (0, 0), BuildingBlock: AJUNOK_clean_linker_0, # of connection points: 2
#     Edge 14, Type (0, 0), BuildingBlock: AJUNOK_clean_linker_0, # of connection points: 2
#     Edge 15, Type (0, 0), BuildingBlock: AJUNOK_clean_linker_0, # of connection points: 2
#     Edge 16, Type (0, 0), BuildingBlock: AJUNOK_clean_linker_0, # of connection points: 2
#     Edge 17, Type (0, 0), BuildingBlock: AJUNOK_clean_linker_0, # of connection points: 2
#     Edge 18, Type (0, 0), BuildingBlock: AJUNOK_clean_linker_0, # of connection points: 2
#     Edge 19, Type (0, 0), BuildingBlock: AJUNOK_clean_linker_0, # of connection points: 2
#     Edge 20, Type (0, 0), BuildingBlock: AJUNOK_clean_linker_0, # of connection points: 2
#     Edge 21, Type (0, 0), BuildingBlock: AJUNOK_clean_linker_0, # of connection points: 2
#     Edge 22, Type (0, 0), BuildingBlock: AJUNOK_clean_linker_0, # of connection points: 2
#     Edge 23, Type (0, 0), BuildingBlock: AJUNOK_clean_linker_0, # of connection points: 2
# Relax obj value: 0.001
# Max RMSD: 0.039
# Mean RMSD: 0.026
data_MOF--net-lvt--node1-MUDLON_clean_sbu_0--edge1-AJUNOK_clean_linker_0
_symmetry_space_group_name_H-M    P1
_symmetry_Int_Tables_number       1
_symmetry_cell_setting            triclinic
loop_
_symmetry_equiv_pos_as_xyz
'x, y, z'
_cell_length_a     30.835812
_cell_length_b     30.716769
_cell_length_c     6.9940432
_cell_angle_alpha  90.775594
_cell_angle_beta   89.956941
_cell_angle_gamma 89.463903
loop_
_atom_site_label
_atom_site_type_symbol
_atom_site_fract_x
_atom_site_fract_y
_atom_site_fract_z
_atom_type_partial_charge
Mg0 Mg 0.05786 0.03599 0.41082 0.0
C1 C 0.12218 0.10569 0.39224 0.0
O2 O 0.10866 0.10758 0.57041 0.0
C3 C 0.98611 0.99059 0.18402 0.0
O4 O 0.96694 1.02873 0.20321 0.0
C5 C 0.99484 0.10944 0.42541 0.0
O6 O 1.01427 0.11527 0.26053 0.0
O7 O 1.00753 0.07814 0.52951 0.0
O8 O 0.10548 0.07757 0.27947 0.0
O9 O 0.09427 0.99906 0.62006 0.0
C10 C 0.1144 0.96597 0.55177 0.0
O11 O 0.11101 0.95721 0.36804 0.0
O12 O 1.02549 0.98669 0.23605 0.0
Mg13 Mg 0.28813 0.79346 0.1774 0.0
C14 C 0.2218 0.71419 0.31415 0.0
O15 O 0.21195 0.72705 0.4888 0.0
C16 C 0.34711 0.84373 0.44485 0.0
O17 O 0.37053 0.80788 0.43833 0.0
C18 C 0.23064 0.86408 0.02991 0.0
O19 O 0.23285 0.87448 0.21223 0.0
O20 O 0.25251 0.83149 0.9677 0.0
O21 O 0.247 0.73677 0.21218 0.0
O22 O 0.34772 0.76483 0.06496 0.0
C23 C 0.36289 0.73286 0.15859 0.0
O24 O 0.3417 0.72009 0.31072 0.0
O25 O 0.30768 0.84194 0.39167 0.0
Mg26 Mg 0.53671 0.04243 0.21906 0.0
C27 C 0.45748 0.98784 0.26875 0.0
O28 O 0.4545 0.99863 0.0881 0.0
C29 C 0.6071 0.0914 0.4434 0.0
O30 O 0.63185 0.06042 0.37007 0.0
C31 C 0.61539 1.00207 0.98334 0.0
O32 O 0.61886 0.0409 0.90868 0.0
O33 O 0.5854 0.99549 0.10474 0.0
O34 O 0.48944 1.00174 0.36641 0.0
O35 O 0.50101 0.08355 0.01386 0.0
C36 C 0.46492 0.09893 0.0751 0.0
O37 O 0.45206 0.08846 0.24742 0.0
O38 O 0.5665 0.09026 0.41193 0.0
Mg39 Mg 0.29745 0.30524 0.03454 0.0
C40 C 0.24251 0.23577 0.12101 0.0
O41 O 0.24052 0.2439 0.93725 0.0
C42 C 0.36108 0.37289 0.98153 0.0
O43 O 0.33726 0.3721 0.82574 0.0
C44 C 0.24031 0.38399 0.08551 0.0
O45 O 0.27481 0.39358 0.1869 0.0
O46 O 0.24083 0.34885 0.9851 0.0
O47 O 0.26644 0.25982 0.22651 0.0
O48 O 0.32793 0.25424 0.85003 0.0
C49 C 0.3692 0.25057 0.83948 0.0
O50 O 0.39281 0.28485 0.87867 0.0
O51 O 0.35131 0.3471 0.11593 0.0
Mg52 Mg 0.7855 0.29401 0.61968 0.0
C53 C 0.86322 0.33459 0.80757 0.0
O54 O 0.88123 0.30499 0.69569 0.0
C55 C 0.69898 0.24854 0.64182 0.0
O56 O 0.68878 0.27995 0.52408 0.0
C57 C 0.84439 0.21858 0.6115 0.0
O58 O 0.8257 0.21716 0.78013 0.0
O59 O 0.83276 0.24855 0.4977 0.0
O60 O 0.82192 0.33633 0.81803 0.0
O61 O 0.75544 0.33694 0.41063 0.0
C62 C 0.74736 0.37658 0.45488 0.0
O63 O 0.76001 0.39147 0.62252 0.0
O64 O 0.73605 0.24904 0.72211 0.0
Mg65 Mg 0.79528 0.80744 0.4744 0.0
C66 C 0.8766 0.84306 0.28972 0.0
O67 O 0.89406 0.81549 0.40945 0.0
C68 C 0.71361 0.75434 0.39279 0.0
O69 O 0.69436 0.78705 0.48225 0.0
C70 C 0.85406 0.73405 0.51861 0.0
O71 O 0.84046 0.73378 0.34069 0.0
O72 O 0.84027 0.76458 0.6295 0.0
O73 O 0.83538 0.84501 0.27669 0.0
O74 O 0.7562 0.85795 0.62513 0.0
C75 C 0.73232 0.85663 0.77375 0.0
O76 O 0.7303 0.82028 0.87011 0.0
O77 O 0.75327 0.758 0.34668 0.0
Mg78 Mg 0.57184 0.55538 0.88745 0.0
C79 C 0.5116 0.48655 0.98826 0.0
O80 O 0.53053 0.4972 0.15025 0.0
C81 C 0.63899 0.59133 0.60934 0.0
O82 O 0.66561 0.56694 0.7091 0.0
C83 C 0.63569 0.48778 0.99049 0.0
O84 O 0.61992 0.47421 0.82597 0.0
O85 O 0.6224 0.52431 0.05723 0.0
O86 O 0.52344 0.50563 0.83641 0.0
O87 O 0.53368 0.60563 0.0325 0.0
C88 C 0.51277 0.62996 0.91802 0.0
O89 O 0.51808 0.62374 0.73332 0.0
O90 O 0.59848 0.58876 0.64057 0.0
Mg91 Mg 0.05098 0.53261 0.73735 0.0
C92 C 0.97452 0.48278 0.90459 0.0
O93 O 0.95743 0.52205 0.9161 0.0
C94 C 0.12405 0.584 0.88883 0.0
O95 O 0.13116 0.58165 0.70375 0.0
C96 C 0.09006 0.47135 0.41865 0.0
O97 O 0.05481 0.4487 0.44845 0.0
O98 O 0.09513 0.50698 0.51168 0.0
O99 O 1.01342 0.47834 0.84557 0.0
O100 O 1.00446 0.58123 0.63518 0.0
C101 C 0.99008 0.6111 0.74752 0.0
O102 O 1.00532 0.61337 0.92273 0.0
O103 O 0.09092 0.5649 0.95478 0.0
C104 C 0.16716 0.17261 0.44236 0.0
C105 C 0.15536 0.1368 0.32543 0.0
C106 C 0.19713 0.20354 0.38015 0.0
C107 C 0.21577 0.20021 0.19734 0.0
H108 H 0.15249 0.17741 0.58187 0.0
H109 H 0.20434 0.23112 0.4726 0.0
S110 S 0.20015 0.1101 0.845 0.0
N111 N 0.16828 0.09779 0.0256 0.0
N112 N 0.22308 0.1566 0.90575 0.0
C113 C 0.20538 0.16388 0.08155 0.0
C114 C 0.17553 0.13205 0.14609 0.0
C115 C 0.1596 0.95602 0.84566 0.0
C116 C 0.14308 0.93896 0.67322 0.0
C117 C 0.18822 0.93166 0.95851 0.0
C118 C 0.20152 0.88931 0.90331 0.0
H119 H 0.15086 0.98868 0.8929 0.0
H120 H 0.20021 0.94632 0.08971 0.0
S121 S 0.16351 0.82773 0.47618 0.0
N122 N 0.13951 0.87581 0.45997 0.0
N123 N 0.1934 0.8302 0.67173 0.0
C124 C 0.18459 0.87152 0.73311 0.0
C125 C 0.15533 0.89628 0.61836 0.0
C126 C 0.4398 0.92383 0.47288 0.0
C127 C 0.42599 0.95677 0.34853 0.0
C128 C 0.41256 0.88887 0.51687 0.0
C129 C 0.37027 0.88607 0.4413 0.0
H130 H 0.47282 0.9234 0.52569 0.0
H131 H 0.4256 0.86262 0.60206 0.0
S132 S 0.31652 0.96858 0.13509 0.0
N133 N 0.36591 0.9874 0.16922 0.0
N134 N 0.3144 0.92276 0.25516 0.0
C135 C 0.35488 0.92114 0.33142 0.0
C136 C 0.38288 0.95616 0.28382 0.0
C137 C 0.4361 0.20332 0.81824 0.0
C138 C 0.39085 0.20685 0.84787 0.0
C139 C 0.45983 0.16634 0.87589 0.0
C140 C 0.43926 0.13177 0.96807 0.0
H141 H 0.4538 0.23051 0.76086 0.0
H142 H 0.49483 0.1664 0.86172 0.0
S143 S 0.32113 0.12115 0.05259 0.0
N144 N 0.32605 0.16932 0.95315 0.0
N145 N 0.3707 0.10065 0.06394 0.0
C146 C 0.39379 0.13318 0.98377 0.0
C147 C 0.36954 0.17043 0.92264 0.0
C148 C 0.91366 0.95506 0.14634 0.0
C149 C 0.95922 0.95097 0.15593 0.0
C150 C 0.8867 0.91901 0.17202 0.0
C151 C 0.90429 0.87754 0.20862 0.0
H152 H 0.89848 0.9868 0.13235 0.0
H153 H 0.85195 0.92444 0.17791 0.0
S154 S 1.02117 0.84733 0.2015 0.0
N155 N 1.02047 0.90047 0.16954 0.0
N156 N 0.96986 0.833 0.21875 0.0
C157 C 0.94962 0.87215 0.19734 0.0
C158 C 0.97708 0.90877 0.17045 0.0
C159 C 0.94227 0.1696 0.35449 0.0
C160 C 0.95663 0.1368 0.47897 0.0
C161 C 0.90557 0.19521 0.39657 0.0
C162 C 0.88173 0.18932 0.56561 0.0
H163 H 0.95937 0.17563 0.22227 0.0
H164 H 0.89614 0.2201 0.29608 0.0
S165 S 0.9053 0.10746 0.93963 0.0
N166 N 0.94377 0.09958 0.77843 0.0
N167 N 0.87497 0.1477 0.85831 0.0
C168 C 0.89561 0.15652 0.69157 0.0
C169 C 0.93301 0.13034 0.64831 0.0
C170 C 0.69378 0.16729 0.63735 0.0
C171 C 0.67284 0.20819 0.63779 0.0
C172 C 0.67155 0.12924 0.58499 0.0
C173 C 0.62735 0.13046 0.5338 0.0
H174 H 0.72832 0.16494 0.66424 0.0
H175 H 0.68975 0.09894 0.57619 0.0
S176 S 0.55601 0.22866 0.54601 0.0
N177 N 0.60437 0.24707 0.60556 0.0
N178 N 0.56223 0.17566 0.51206 0.0
C179 C 0.60517 0.17069 0.55067 0.0
C180 C 0.62802 0.20951 0.60109 0.0
C181 C 0.6483 0.92769 0.03782 0.0
C182 C 0.64644 0.96609 0.92961 0.0
C183 C 0.67661 0.89305 0.98891 0.0
C184 C 0.70429 0.89499 0.82872 0.0
H185 H 0.62768 0.92422 0.16203 0.0
H186 H 0.67637 0.86431 0.07694 0.0
S187 S 0.71252 0.98836 0.49784 0.0
N188 N 0.67556 1.00402 0.65577 0.0
N189 N 0.7281 0.9392 0.56266 0.0
C190 C 0.7031 0.93342 0.7203 0.0
C191 C 0.67444 0.96879 0.77094 0.0
C192 C 0.63043 0.66736 0.48915 0.0
C193 C 0.6561 0.62938 0.50492 0.0
C194 C 0.64871 0.70717 0.43721 0.0
C195 C 0.69324 0.71054 0.39602 0.0
H196 H 0.59659 0.66726 0.53093 0.0
H197 H 0.62821 0.736 0.44031 0.0
S198 S 0.77254 0.61861 0.37777 0.0
N199 N 0.72683 0.59623 0.44783 0.0
N200 N 0.76113 0.67065 0.3465 0.0
C201 C 0.71825 0.67181 0.39159 0.0
C202 C 0.6997 0.63137 0.44718 0.0
C203 C 0.71147 0.44825 0.38312 0.0
C204 C 0.72109 0.40493 0.32725 0.0
C205 C 0.68456 0.47502 0.27223 0.0
C206 C 0.6661 0.45968 0.10039 0.0
H207 H 0.72426 0.46159 0.51545 0.0
H208 H 0.6778 0.50785 0.32322 0.0
S209 S 0.68092 0.34879 0.88959 0.0
N210 N 0.71006 0.34811 0.08713 0.0
N211 N 0.65971 0.39818 0.87906 0.0
C212 C 0.67599 0.41663 0.04119 0.0
C213 C 0.70336 0.38936 0.15432 0.0
C214 C 0.8735 0.41277 0.90446 0.0
C215 C 0.89072 0.37045 0.88173 0.0
C216 C 0.90087 0.44886 0.92542 0.0
C217 C 0.94642 0.44395 0.92432 0.0
H218 H 0.83889 0.41847 0.89254 0.0
H219 H 0.88614 0.48101 0.93057 0.0
S220 S 1.0071 0.339 0.91111 0.0
N221 N 0.95573 0.32504 0.89038 0.0
N222 N 1.00696 0.39263 0.92965 0.0
C223 C 0.96373 0.40141 0.92025 0.0
C224 C 0.93592 0.36475 0.89903 0.0
C225 C 0.90938 0.70624 0.75392 0.0
C226 C 0.88749 0.70159 0.57852 0.0
C227 C 0.94255 0.67703 0.80654 0.0
C228 C 0.95517 0.64183 0.68638 0.0
H229 H 0.90128 0.73296 0.85054 0.0
H230 H 0.95853 0.68231 0.94263 0.0
S231 S 0.90636 0.6135 0.2161 0.0
N232 N 0.87989 0.65773 0.2874 0.0
N233 N 0.94177 0.60323 0.38667 0.0
C234 C 0.93308 0.63643 0.5119 0.0
C235 C 0.89938 0.66612 0.45817 0.0
C236 C 0.44507 0.45586 0.83509 0.0
C237 C 0.47463 0.45593 0.98776 0.0
C238 C 0.40843 0.42924 0.83646 0.0
C239 C 0.39982 0.4013 0.99001 0.0
H240 H 0.44982 0.47703 0.71435 0.0
H241 H 0.38669 0.43073 0.7151 0.0
S242 S 0.46859 0.38732 0.42059 0.0
N243 N 0.49376 0.4245 0.29461 0.0
N244 N 0.42497 0.37435 0.2964 0.0
C245 C 0.42944 0.40057 0.1428 0.0
C246 C 0.46678 0.42787 0.14177 0.0
C247 C 0.42108 0.67737 0.2182 0.0
C248 C 0.40353 0.70998 0.10026 0.0
C249 C 0.4579 0.65319 0.16332 0.0
C250 C 0.47833 0.66023 0.98697 0.0
H251 H 0.40586 0.66979 0.35322 0.0
H252 H 0.46929 0.62761 0.25643 0.0
S253 S 0.44839 0.74462 0.6341 0.0
N254 N 0.41181 0.75027 0.80533 0.0
N255 N 0.48063 0.70444 0.70114 0.0
C256 C 0.46231 0.69388 0.871 0.0
C257 C 0.42503 0.71883 0.92774 0.0
C258 C 0.16091 0.65979 0.29321 0.0
C259 C 0.20035 0.67594 0.22245 0.0
C260 C 0.13716 0.62836 0.18965 0.0
C261 C 0.152 0.61201 0.01169 0.0
H262 H 0.14728 0.67291 0.42487 0.0
H263 H 0.1061 0.61831 0.24543 0.0
S264 S 0.2571 0.63763 0.78094 0.0
N265 N 0.25583 0.66852 0.97569 0.0
N266 N 0.21138 0.61019 0.7825 0.0
C267 C 0.19283 0.62561 0.94676 0.0
C268 C 0.21694 0.65732 0.05175 0.0
C269 C 0.15976 0.38793 0.14389 0.0
C270 C 0.19966 0.40928 0.12472 0.0
C271 C 0.12371 0.40905 0.22932 0.0
C272 C 0.12606 0.4524 0.29876 0.0
H273 H 0.15714 0.35381 0.10485 0.0
H274 H 0.09448 0.39038 0.2497 0.0
S275 S 0.22084 0.52515 0.24769 0.0
N276 N 0.23761 0.47794 0.15765 0.0
N277 N 0.17019 0.51762 0.31538 0.0
C278 C 0.16473 0.47514 0.26486 0.0
C279 C 0.20138 0.45359 0.17885 0.0
loop_
_geom_bond_atom_site_label_1
_geom_bond_atom_site_label_2
_geom_bond_distance
_geom_bond_site_symmetry_2
_ccdc_geom_bond_type
Mg0 O7 2.141 1_455 S
Mg0 O8 2.048 . S
Mg0 O9 2.048 1_545 S
Mg0 O12 2.141 1_445 S
C1 O2 1.313 . S
C1 O8 1.195 . S
O2 C1 1.313 . S
C3 O4 1.245 . S
C3 O12 1.289 . S
O4 C3 1.245 . S
C5 O6 1.245 . S
C5 O7 1.289 . S
O6 C5 1.245 . S
O7 Mg0 2.141 1_655 S
O7 C5 1.289 . S
O8 Mg0 2.048 . S
O8 C1 1.195 . S
O9 Mg0 2.048 1_565 S
O9 C10 1.195 . S
C10 O9 1.195 . S
C10 O11 1.313 . S
O11 C10 1.313 . S
O12 Mg0 2.141 1_665 S
O12 C3 1.289 . S
Mg13 O20 2.141 . S
Mg13 O21 2.048 . S
Mg13 O22 2.048 . S
Mg13 O25 2.141 . S
C14 O15 1.313 . S
C14 O21 1.195 . S
O15 C14 1.313 . S
C16 O17 1.245 1_556 S
C16 O25 1.289 . S
O17 C16 1.245 1_554 S
C18 O19 1.245 . S
C18 O20 1.289 . S
O19 C18 1.245 . S
O20 Mg13 2.141 . S
O20 C18 1.289 . S
O21 Mg13 2.048 . S
O21 C14 1.195 . S
O22 Mg13 2.048 . S
O22 C23 1.195 . S
C23 O22 1.195 . S
C23 O24 1.313 1_556 S
O24 C23 1.313 1_554 S
O25 Mg13 2.141 . S
O25 C16 1.289 . S
Mg26 O33 2.141 1_545 S
Mg26 O34 2.048 1_545 S
Mg26 O35 2.048 . S
Mg26 O38 2.141 . S
C27 O28 1.313 1_554 S
C27 O34 1.195 . S
O28 C27 1.313 1_556 S
C29 O30 1.245 . S
C29 O38 1.289 . S
O30 C29 1.245 . S
C31 O32 1.245 1_554 S
C31 O33 1.289 . S
O32 C31 1.245 1_556 S
O33 Mg26 2.141 1_565 S
O33 C31 1.289 . S
O34 Mg26 2.048 1_565 S
O34 C27 1.195 . S
O35 Mg26 2.048 . S
O35 C36 1.195 . S
C36 O35 1.195 . S
C36 O37 1.313 1_554 S
O37 C36 1.313 1_556 S
O38 Mg26 2.141 . S
O38 C29 1.289 . S
Mg39 O46 2.141 . S
Mg39 O47 2.048 . S
Mg39 O48 2.048 . S
Mg39 O51 2.141 . S
C40 O41 1.313 . S
C40 O47 1.195 . S
O41 C40 1.313 . S
C42 O43 1.245 . S
C42 O51 1.289 . S
O43 C42 1.245 . S
C44 O45 1.245 . S
C44 O46 1.289 . S
O45 C44 1.245 . S
O46 Mg39 2.141 . S
O46 C44 1.289 . S
O47 Mg39 2.048 . S
O47 C40 1.195 . S
O48 Mg39 2.048 . S
O48 C49 1.195 . S
C49 O48 1.195 . S
C49 O50 1.313 . S
O50 C49 1.313 . S
O51 Mg39 2.141 . S
O51 C42 1.289 . S
Mg52 O59 2.141 . S
Mg52 O60 2.048 . S
Mg52 O61 2.048 . S
Mg52 O64 2.141 . S
C53 O54 1.313 . S
C53 O60 1.195 . S
O54 C53 1.313 . S
C55 O56 1.245 . S
C55 O64 1.289 . S
O56 C55 1.245 . S
C57 O58 1.245 . S
C57 O59 1.289 . S
O58 C57 1.245 . S
O59 Mg52 2.141 . S
O59 C57 1.289 . S
O60 Mg52 2.048 . S
O60 C53 1.195 . S
O61 Mg52 2.048 . S
O61 C62 1.195 . S
C62 O61 1.195 . S
C62 O63 1.313 . S
O63 C62 1.313 . S
O64 Mg52 2.141 . S
O64 C55 1.289 . S
Mg65 O72 2.141 . S
Mg65 O73 2.048 . S
Mg65 O74 2.048 . S
Mg65 O77 2.141 . S
C66 O67 1.313 . S
C66 O73 1.195 . S
O67 C66 1.313 . S
C68 O69 1.245 1_556 S
C68 O77 1.289 . S
O69 C68 1.245 1_554 S
C70 O71 1.245 . S
C70 O72 1.289 . S
O71 C70 1.245 . S
O72 Mg65 2.141 . S
O72 C70 1.289 . S
O73 Mg65 2.048 . S
O73 C66 1.195 . S
O74 Mg65 2.048 . S
O74 C75 1.195 . S
C75 O74 1.195 . S
C75 O76 1.313 1_556 S
O76 C75 1.313 1_554 S
O77 Mg65 2.141 . S
O77 C68 1.289 . S
Mg78 O85 2.141 . S
Mg78 O86 2.048 . S
Mg78 O87 2.048 . S
Mg78 O90 2.141 . S
C79 O80 1.313 1_554 S
C79 O86 1.195 . S
O80 C79 1.313 1_556 S
C81 O82 1.245 . S
C81 O90 1.289 1_556 S
O82 C81 1.245 . S
C83 O84 1.245 1_554 S
C83 O85 1.289 . S
O84 C83 1.245 1_556 S
O85 Mg78 2.141 . S
O85 C83 1.289 . S
O86 Mg78 2.048 . S
O86 C79 1.195 . S
O87 Mg78 2.048 . S
O87 C88 1.195 1_554 S
C88 O87 1.195 1_556 S
C88 O89 1.313 . S
O89 C88 1.313 . S
O90 Mg78 2.141 . S
O90 C81 1.289 1_554 S
Mg91 O98 2.141 . S
Mg91 O99 2.048 1_455 S
Mg91 O100 2.048 1_455 S
Mg91 O103 2.141 . S
C92 O93 1.313 . S
C92 O99 1.195 . S
O93 C92 1.313 . S
C94 O95 1.245 . S
C94 O103 1.289 . S
O95 C94 1.245 . S
C96 O97 1.245 . S
C96 O98 1.289 . S
O97 C96 1.245 . S
O98 Mg91 2.141 . S
O98 C96 1.289 . S
O99 Mg91 2.048 1_655 S
O99 C92 1.195 . S
O100 Mg91 2.048 1_655 S
O100 C101 1.195 . S
C101 O100 1.195 . S
C101 O102 1.313 . S
O102 C101 1.313 . S
O103 Mg91 2.141 . S
O103 C94 1.289 . S
C104 C105 1.369 . S
C104 C106 1.419 . S
C104 H108 0.930 . S
C105 C104 1.369 . S
C105 C114 1.429 . S
C106 C104 1.419 . S
C106 C107 1.363 . S
C106 H109 0.929 . S
C107 C106 1.363 . S
C107 C113 1.428 . S
H108 C104 0.930 . S
H109 C106 0.929 . S
S110 N111 1.613 . S
S110 N112 1.610 . S
N111 S110 1.613 . S
N111 C114 1.350 . S
N112 S110 1.610 . S
N112 C113 1.351 . S
C113 C107 1.428 . S
C113 N112 1.351 . S
C113 C114 1.434 . S
C114 C105 1.429 . S
C114 N111 1.350 . S
C114 C113 1.434 . S
C115 C116 1.369 . S
C115 C117 1.419 . S
C115 H119 0.930 . S
C116 C115 1.369 . S
C116 C125 1.429 . S
C117 C115 1.419 . S
C117 C118 1.363 . S
C117 H120 0.929 . S
C118 C117 1.363 . S
C118 C124 1.428 . S
H119 C115 0.930 . S
H120 C117 0.929 . S
S121 N122 1.613 . S
S121 N123 1.610 . S
N122 S121 1.613 . S
N122 C125 1.350 . S
N123 S121 1.610 . S
N123 C124 1.351 . S
C124 C118 1.428 . S
C124 N123 1.351 . S
C124 C125 1.434 . S
C125 C116 1.429 . S
C125 N122 1.350 . S
C125 C124 1.434 . S
C126 C127 1.369 . S
C126 C128 1.419 . S
C126 H130 0.930 . S
C127 C126 1.369 . S
C127 C136 1.429 1_554 S
C128 C126 1.419 . S
C128 C129 1.363 1_554 S
C128 H131 0.929 . S
C129 C128 1.363 1_556 S
C129 C135 1.428 . S
H130 C126 0.930 . S
H131 C128 0.929 . S
S132 N133 1.613 . S
S132 N134 1.610 . S
N133 S132 1.613 . S
N133 C136 1.350 . S
N134 S132 1.610 . S
N134 C135 1.351 . S
C135 C129 1.428 . S
C135 N134 1.351 . S
C135 C136 1.434 . S
C136 C127 1.429 1_556 S
C136 N133 1.350 . S
C136 C135 1.434 . S
C137 C138 1.369 . S
C137 C139 1.419 . S
C137 H141 0.930 . S
C138 C137 1.369 . S
C138 C147 1.429 . S
C139 C137 1.419 . S
C139 C140 1.363 . S
C139 H142 0.929 . S
C140 C139 1.363 . S
C140 C146 1.428 . S
H141 C137 0.930 . S
H142 C139 0.929 . S
S143 N144 1.613 . S
S143 N145 1.610 . S
N144 S143 1.613 . S
N144 C147 1.350 1_556 S
N145 S143 1.610 . S
N145 C146 1.351 1_556 S
C146 C140 1.428 . S
C146 N145 1.351 1_554 S
C146 C147 1.434 . S
C147 C138 1.429 . S
C147 N144 1.350 1_554 S
C147 C146 1.434 . S
C148 C149 1.369 . S
C148 C150 1.419 . S
C148 H152 0.930 . S
C149 C148 1.369 . S
C149 C158 1.429 . S
C150 C148 1.419 . S
C150 C151 1.363 . S
C150 H153 0.929 . S
C151 C150 1.363 . S
C151 C157 1.428 . S
H152 C148 0.930 . S
H153 C150 0.929 . S
S154 N155 1.613 . S
S154 N156 1.610 . S
N155 S154 1.613 . S
N155 C158 1.350 1_554 S
N156 S154 1.610 . S
N156 C157 1.351 1_554 S
C157 C151 1.428 . S
C157 N156 1.351 1_556 S
C157 C158 1.434 . S
C158 C149 1.429 . S
C158 N155 1.350 1_556 S
C158 C157 1.434 . S
C159 C160 1.369 . S
C159 C161 1.419 . S
C159 H163 0.930 . S
C160 C159 1.369 . S
C160 C169 1.429 . S
C161 C159 1.419 . S
C161 C162 1.363 . S
C161 H164 0.929 . S
C162 C161 1.363 . S
C162 C168 1.428 . S
H163 C159 0.930 . S
H164 C161 0.929 . S
S165 N166 1.613 . S
S165 N167 1.610 . S
N166 S165 1.613 . S
N166 C169 1.350 . S
N167 S165 1.610 . S
N167 C168 1.351 . S
C168 C162 1.428 . S
C168 N167 1.351 . S
C168 C169 1.434 . S
C169 C160 1.429 . S
C169 N166 1.350 . S
C169 C168 1.434 . S
C170 C171 1.369 . S
C170 C172 1.419 . S
C170 H174 0.930 . S
C171 C170 1.369 . S
C171 C180 1.429 . S
C172 C170 1.419 . S
C172 C173 1.363 . S
C172 H175 0.929 . S
C173 C172 1.363 . S
C173 C179 1.428 . S
H174 C170 0.930 . S
H175 C172 0.929 . S
S176 N177 1.613 . S
S176 N178 1.610 . S
N177 S176 1.613 . S
N177 C180 1.350 . S
N178 S176 1.610 . S
N178 C179 1.351 . S
C179 C173 1.428 . S
C179 N178 1.351 . S
C179 C180 1.434 . S
C180 C171 1.429 . S
C180 N177 1.350 . S
C180 C179 1.434 . S
C181 C182 1.369 . S
C181 C183 1.419 . S
C181 H185 0.930 . S
C182 C181 1.369 . S
C182 C191 1.429 1_554 S
C183 C181 1.419 . S
C183 C184 1.363 1_554 S
C183 H186 0.929 . S
C184 C183 1.363 1_556 S
C184 C190 1.428 . S
H185 C181 0.930 . S
H186 C183 0.929 . S
S187 N188 1.613 . S
S187 N189 1.610 . S
N188 S187 1.613 . S
N188 C191 1.350 . S
N189 S187 1.610 . S
N189 C190 1.351 . S
C190 C184 1.428 . S
C190 N189 1.351 . S
C190 C191 1.434 . S
C191 C182 1.429 1_556 S
C191 N188 1.350 . S
C191 C190 1.434 . S
C192 C193 1.369 . S
C192 C194 1.419 . S
C192 H196 0.930 . S
C193 C192 1.369 . S
C193 C202 1.429 . S
C194 C192 1.419 . S
C194 C195 1.363 . S
C194 H197 0.929 . S
C195 C194 1.363 . S
C195 C201 1.428 . S
H196 C192 0.930 . S
H197 C194 0.929 . S
S198 N199 1.613 . S
S198 N200 1.610 . S
N199 S198 1.613 . S
N199 C202 1.350 . S
N200 S198 1.610 . S
N200 C201 1.351 . S
C201 C195 1.428 . S
C201 N200 1.351 . S
C201 C202 1.434 . S
C202 C193 1.429 . S
C202 N199 1.350 . S
C202 C201 1.434 . S
C203 C204 1.369 . S
C203 C205 1.419 . S
C203 H207 0.930 . S
C204 C203 1.369 . S
C204 C213 1.429 . S
C205 C203 1.419 . S
C205 C206 1.363 . S
C205 H208 0.929 . S
C206 C205 1.363 . S
C206 C212 1.428 . S
H207 C203 0.930 . S
H208 C205 0.929 . S
S209 N210 1.613 . S
S209 N211 1.610 . S
N210 S209 1.613 . S
N210 C213 1.350 1_556 S
N211 S209 1.610 . S
N211 C212 1.351 1_556 S
C212 C206 1.428 . S
C212 N211 1.351 1_554 S
C212 C213 1.434 . S
C213 C204 1.429 . S
C213 N210 1.350 1_554 S
C213 C212 1.434 . S
C214 C215 1.369 . S
C214 C216 1.419 . S
C214 H218 0.930 . S
C215 C214 1.369 . S
C215 C224 1.429 . S
C216 C214 1.419 . S
C216 C217 1.363 . S
C216 H219 0.929 . S
C217 C216 1.363 . S
C217 C223 1.428 . S
H218 C214 0.930 . S
H219 C216 0.929 . S
S220 N221 1.613 . S
S220 N222 1.610 . S
N221 S220 1.613 . S
N221 C224 1.350 . S
N222 S220 1.610 . S
N222 C223 1.351 . S
C223 C217 1.428 . S
C223 N222 1.351 . S
C223 C224 1.434 . S
C224 C215 1.429 . S
C224 N221 1.350 . S
C224 C223 1.434 . S
C225 C226 1.369 . S
C225 C227 1.419 . S
C225 H229 0.930 . S
C226 C225 1.369 . S
C226 C235 1.429 . S
C227 C225 1.419 . S
C227 C228 1.363 . S
C227 H230 0.929 . S
C228 C227 1.363 . S
C228 C234 1.428 . S
H229 C225 0.930 . S
H230 C227 0.929 . S
S231 N232 1.613 . S
S231 N233 1.610 . S
N232 S231 1.613 . S
N232 C235 1.350 . S
N233 S231 1.610 . S
N233 C234 1.351 . S
C234 C228 1.428 . S
C234 N233 1.351 . S
C234 C235 1.434 . S
C235 C226 1.429 . S
C235 N232 1.350 . S
C235 C234 1.434 . S
C236 C237 1.369 . S
C236 C238 1.419 . S
C236 H240 0.930 . S
C237 C236 1.369 . S
C237 C246 1.429 . S
C238 C236 1.419 . S
C238 C239 1.363 . S
C238 H241 0.929 . S
C239 C238 1.363 . S
C239 C245 1.428 . S
H240 C236 0.930 . S
H241 C238 0.929 . S
S242 N243 1.613 . S
S242 N244 1.610 . S
N243 S242 1.613 . S
N243 C246 1.350 1_556 S
N244 S242 1.610 . S
N244 C245 1.351 1_556 S
C245 C239 1.428 . S
C245 N244 1.351 1_554 S
C245 C246 1.434 . S
C246 C237 1.429 . S
C246 N243 1.350 1_554 S
C246 C245 1.434 . S
C247 C248 1.369 1_554 S
C247 C249 1.419 . S
C247 H251 0.930 . S
C248 C247 1.369 1_556 S
C248 C257 1.429 . S
C249 C247 1.419 . S
C249 C250 1.363 1_554 S
C249 H252 0.929 . S
C250 C249 1.363 1_556 S
C250 C256 1.428 . S
H251 C247 0.930 . S
H252 C249 0.929 . S
S253 N254 1.613 . S
S253 N255 1.610 . S
N254 S253 1.613 . S
N254 C257 1.350 . S
N255 S253 1.610 . S
N255 C256 1.351 . S
C256 C250 1.428 . S
C256 N255 1.351 . S
C256 C257 1.434 . S
C257 C248 1.429 . S
C257 N254 1.350 . S
C257 C256 1.434 . S
C258 C259 1.369 . S
C258 C260 1.419 . S
C258 H262 0.930 . S
C259 C258 1.369 . S
C259 C268 1.429 . S
C260 C258 1.419 . S
C260 C261 1.363 . S
C260 H263 0.929 . S
C261 C260 1.363 . S
C261 C267 1.428 . S
H262 C258 0.930 . S
H263 C260 0.929 . S
S264 N265 1.613 . S
S264 N266 1.610 . S
N265 S264 1.613 . S
N265 C268 1.350 . S
N266 S264 1.610 . S
N266 C267 1.351 . S
C267 C261 1.428 . S
C267 N266 1.351 . S
C267 C268 1.434 . S
C268 C259 1.429 . S
C268 N265 1.350 . S
C268 C267 1.434 . S
C269 C270 1.369 . S
C269 C271 1.419 . S
C269 H273 0.930 . S
C270 C269 1.369 . S
C270 C279 1.429 . S
C271 C269 1.419 . S
C271 C272 1.363 . S
C271 H274 0.929 . S
C272 C271 1.363 . S
C272 C278 1.428 . S
H273 C269 0.930 . S
H274 C271 0.929 . S
S275 N276 1.613 . S
S275 N277 1.610 . S
N276 S275 1.613 . S
N276 C279 1.350 . S
N277 S275 1.610 . S
N277 C278 1.351 . S
C278 C272 1.428 . S
C278 N277 1.351 . S
C278 C279 1.434 . S
C279 C270 1.429 . S
C279 N276 1.350 . S
C279 C278 1.434 . S
C105 C1 1.550 . S
C107 C40 1.551 . S
C116 C10 1.486 . S
C118 C18 1.484 . S
C127 C27 1.474 . S
C129 C16 1.472 . S
C138 C49 1.539 . S
C140 C36 1.532 . S
C149 C3 1.491 . S
C151 C66 1.504 . S
C160 C5 1.461 . S
C162 C57 1.465 . S
C171 C55 1.482 . S
C173 C29 1.478 . S
C182 C31 1.503 . S
C184 C75 1.523 . S
C193 C81 1.440 . S
C195 C68 1.437 . S
C204 C62 1.532 . S
C206 C83 1.530 . S
C215 C53 1.558 . S
C217 C92 1.557 . S
C226 C70 1.465 . S
C228 C101 1.473 . S
C237 C79 1.506 . S
C239 C42 1.496 . S
C248 C23 1.561 . S
C250 C88 1.564 . S
C259 C14 1.532 . S
C261 C94 1.531 . S
C270 C44 1.459 . S
C272 C96 1.471 . S
