# Generated by pormake.
# Topology lta, (4)-cn, num edge types: 1
# Building blocks:
#     Node 0, Type 0, BuildingBlock: QUQFOY_clean_sbu_3, # of connection points: 4
#     Node 1, Type 0, BuildingBlock: QUQFOY_clean_sbu_3, # of connection points: 4
#     Node 2, Type 0, BuildingBlock: QUQFOY_clean_sbu_3, # of connection points: 4
#     Node 3, Type 0, BuildingBlock: QUQFOY_clean_sbu_3, # of connection points: 4
#     Node 4, Type 0, BuildingBlock: QUQFOY_clean_sbu_3, # of connection points: 4
#     Node 5, Type 0, BuildingBlock: QUQFOY_clean_sbu_3, # of connection points: 4
#     Node 6, Type 0, BuildingBlock: QUQFOY_clean_sbu_3, # of connection points: 4
#     Node 7, Type 0, BuildingBlock: QUQFOY_clean_sbu_3, # of connection points: 4
#     Node 8, Type 0, BuildingBlock: QUQFOY_clean_sbu_3, # of connection points: 4
#     Node 9, Type 0, BuildingBlock: QUQFOY_clean_sbu_3, # of connection points: 4
#     Node 10, Type 0, BuildingBlock: QUQFOY_clean_sbu_3, # of connection points: 4
#     Node 11, Type 0, BuildingBlock: QUQFOY_clean_sbu_3, # of connection points: 4
#     Node 12, Type 0, BuildingBlock: QUQFOY_clean_sbu_3, # of connection points: 4
#     Node 13, Type 0, BuildingBlock: QUQFOY_clean_sbu_3, # of connection points: 4
#     Node 14, Type 0, BuildingBlock: QUQFOY_clean_sbu_3, # of connection points: 4
#     Node 15, Type 0, BuildingBlock: QUQFOY_clean_sbu_3, # of connection points: 4
#     Node 16, Type 0, BuildingBlock: QUQFOY_clean_sbu_3, # of connection points: 4
#     Node 17, Type 0, BuildingBlock: QUQFOY_clean_sbu_3, # of connection points: 4
#     Node 18, Type 0, BuildingBlock: QUQFOY_clean_sbu_3, # of connection points: 4
#     Node 19, Type 0, BuildingBlock: QUQFOY_clean_sbu_3, # of connection points: 4
#     Node 20, Type 0, BuildingBlock: QUQFOY_clean_sbu_3, # of connection points: 4
#     Node 21, Type 0, BuildingBlock: QUQFOY_clean_sbu_3, # of connection points: 4
#     Node 22, Type 0, BuildingBlock: QUQFOY_clean_sbu_3, # of connection points: 4
#     Node 23, Type 0, BuildingBlock: QUQFOY_clean_sbu_3, # of connection points: 4
#     Edge 24, Type (0, 0), BuildingBlock: UVAHIK_clean_linker_0, # of connection points: 2
#     Edge 25, Type (0, 0), BuildingBlock: UVAHIK_clean_linker_0, # of connection points: 2
#     Edge 26, Type (0, 0), BuildingBlock: UVAHIK_clean_linker_0, # of connection points: 2
#     Edge 27, Type (0, 0), BuildingBlock: UVAHIK_clean_linker_0, # of connection points: 2
#     Edge 28, Type (0, 0), BuildingBlock: UVAHIK_clean_linker_0, # of connection points: 2
#     Edge 29, Type (0, 0), BuildingBlock: UVAHIK_clean_linker_0, # of connection points: 2
#     Edge 30, Type (0, 0), BuildingBlock: UVAHIK_clean_linker_0, # of connection points: 2
#     Edge 31, Type (0, 0), BuildingBlock: UVAHIK_clean_linker_0, # of connection points: 2
#     Edge 32, Type (0, 0), BuildingBlock: UVAHIK_clean_linker_0, # of connection points: 2
#     Edge 33, Type (0, 0), BuildingBlock: UVAHIK_clean_linker_0, # of connection points: 2
#     Edge 34, Type (0, 0), BuildingBlock: UVAHIK_clean_linker_0, # of connection points: 2
#     Edge 35, Type (0, 0), BuildingBlock: UVAHIK_clean_linker_0, # of connection points: 2
#     Edge 36, Type (0, 0), BuildingBlock: UVAHIK_clean_linker_0, # of connection points: 2
#     Edge 37, Type (0, 0), BuildingBlock: UVAHIK_clean_linker_0, # of connection points: 2
#     Edge 38, Type (0, 0), BuildingBlock: UVAHIK_clean_linker_0, # of connection points: 2
#     Edge 39, Type (0, 0), BuildingBlock: UVAHIK_clean_linker_0, # of connection points: 2
#     Edge 40, Type (0, 0), BuildingBlock: UVAHIK_clean_linker_0, # of connection points: 2
#     Edge 41, Type (0, 0), BuildingBlock: UVAHIK_clean_linker_0, # of connection points: 2
#     Edge 42, Type (0, 0), BuildingBlock: UVAHIK_clean_linker_0, # of connection points: 2
#     Edge 43, Type (0, 0), BuildingBlock: UVAHIK_clean_linker_0, # of connection points: 2
#     Edge 44, Type (0, 0), BuildingBlock: UVAHIK_clean_linker_0, # of connection points: 2
#     Edge 45, Type (0, 0), BuildingBlock: UVAHIK_clean_linker_0, # of connection points: 2
#     Edge 46, Type (0, 0), BuildingBlock: UVAHIK_clean_linker_0, # of connection points: 2
#     Edge 47, Type (0, 0), BuildingBlock: UVAHIK_clean_linker_0, # of connection points: 2
#     Edge 48, Type (0, 0), BuildingBlock: UVAHIK_clean_linker_0, # of connection points: 2
#     Edge 49, Type (0, 0), BuildingBlock: UVAHIK_clean_linker_0, # of connection points: 2
#     Edge 50, Type (0, 0), BuildingBlock: UVAHIK_clean_linker_0, # of connection points: 2
#     Edge 51, Type (0, 0), BuildingBlock: UVAHIK_clean_linker_0, # of connection points: 2
#     Edge 52, Type (0, 0), BuildingBlock: UVAHIK_clean_linker_0, # of connection points: 2
#     Edge 53, Type (0, 0), BuildingBlock: UVAHIK_clean_linker_0, # of connection points: 2
#     Edge 54, Type (0, 0), BuildingBlock: UVAHIK_clean_linker_0, # of connection points: 2
#     Edge 55, Type (0, 0), BuildingBlock: UVAHIK_clean_linker_0, # of connection points: 2
#     Edge 56, Type (0, 0), BuildingBlock: UVAHIK_clean_linker_0, # of connection points: 2
#     Edge 57, Type (0, 0), BuildingBlock: UVAHIK_clean_linker_0, # of connection points: 2
#     Edge 58, Type (0, 0), BuildingBlock: UVAHIK_clean_linker_0, # of connection points: 2
#     Edge 59, Type (0, 0), BuildingBlock: UVAHIK_clean_linker_0, # of connection points: 2
#     Edge 60, Type (0, 0), BuildingBlock: UVAHIK_clean_linker_0, # of connection points: 2
#     Edge 61, Type (0, 0), BuildingBlock: UVAHIK_clean_linker_0, # of connection points: 2
#     Edge 62, Type (0, 0), BuildingBlock: UVAHIK_clean_linker_0, # of connection points: 2
#     Edge 63, Type (0, 0), BuildingBlock: UVAHIK_clean_linker_0, # of connection points: 2
#     Edge 64, Type (0, 0), BuildingBlock: UVAHIK_clean_linker_0, # of connection points: 2
#     Edge 65, Type (0, 0), BuildingBlock: UVAHIK_clean_linker_0, # of connection points: 2
#     Edge 66, Type (0, 0), BuildingBlock: UVAHIK_clean_linker_0, # of connection points: 2
#     Edge 67, Type (0, 0), BuildingBlock: UVAHIK_clean_linker_0, # of connection points: 2
#     Edge 68, Type (0, 0), BuildingBlock: UVAHIK_clean_linker_0, # of connection points: 2
#     Edge 69, Type (0, 0), BuildingBlock: UVAHIK_clean_linker_0, # of connection points: 2
#     Edge 70, Type (0, 0), BuildingBlock: UVAHIK_clean_linker_0, # of connection points: 2
#     Edge 71, Type (0, 0), BuildingBlock: UVAHIK_clean_linker_0, # of connection points: 2
# Relax obj value: 0.278
# Max RMSD: 0.158
# Mean RMSD: 0.158
data_MOF--net-lta--node1-QUQFOY_clean_sbu_3--edge1-UVAHIK_clean_linker_0
_symmetry_space_group_name_H-M    P1
_symmetry_Int_Tables_number       1
_symmetry_cell_setting            triclinic
loop_
_symmetry_equiv_pos_as_xyz
'x, y, z'
_cell_length_a     74.782234
_cell_length_b     74.396576
_cell_length_c     74.39222
_cell_angle_alpha  90.05012
_cell_angle_beta   90.134244
_cell_angle_gamma 90.066104
loop_
_atom_site_label
_atom_site_type_symbol
_atom_site_fract_x
_atom_site_fract_y
_atom_site_fract_z
_atom_type_partial_charge
C0 C 0.13367 0.30773 0.46145 0.0
O1 O 0.14591 0.30637 0.47305 0.0
Cd2 Cd 0.12479 0.29649 0.49619 0.0
O3 O 0.11827 0.30253 0.46614 0.0
Cd4 Cd 0.11993 0.29034 0.49919 0.0
C5 C 0.08273 0.29852 0.49303 0.0
O6 O 0.1364 0.31185 0.52012 0.0
O7 O 0.10984 0.30482 0.52831 0.0
O8 O 0.14661 0.27099 0.498 0.0
C9 C 0.12425 0.3132 0.53176 0.0
O10 O 0.09437 0.31076 0.49105 0.0
C11 C 0.13842 0.25676 0.50254 0.0
O12 O 0.08836 0.28309 0.49731 0.0
O13 O 0.12173 0.25801 0.50529 0.0
C14 C 0.64587 0.14242 0.46085 0.0
O15 O 0.63333 0.14193 0.47231 0.0
Cd16 Cd 0.63615 0.12985 0.50185 0.0
O17 O 0.66169 0.13763 0.4651 0.0
Cd18 Cd 0.67816 0.12831 0.4928 0.0
C19 C 0.65595 0.08893 0.4922 0.0
O20 O 0.66099 0.14501 0.51491 0.0
O21 O 0.67847 0.12479 0.52563 0.0
O22 O 0.70069 0.14964 0.48339 0.0
C23 C 0.66727 0.13718 0.52864 0.0
O24 O 0.64242 0.09777 0.49769 0.0
C25 C 0.71397 0.13954 0.48662 0.0
O26 O 0.6706 0.09685 0.4885 0.0
O27 O 0.71064 0.12383 0.49242 0.0
C28 C 0.83915 0.64664 0.47279 0.0
O29 O 0.84004 0.63438 0.48462 0.0
Cd30 Cd 0.84966 0.63894 0.5148 0.0
O31 O 0.84203 0.66305 0.47685 0.0
Cd32 Cd 0.84787 0.68093 0.50475 0.0
C33 C 0.88882 0.66187 0.50611 0.0
O34 O 0.83087 0.66254 0.52529 0.0
O35 O 0.84841 0.68144 0.53809 0.0
O36 O 0.82656 0.70268 0.49326 0.0
C37 C 0.83658 0.66936 0.53978 0.0
O38 O 0.8813 0.64763 0.51191 0.0
C39 C 0.83605 0.71639 0.4969 0.0
O40 O 0.87959 0.67559 0.50186 0.0
O41 O 0.85123 0.7136 0.50404 0.0
C42 C 0.34563 0.84679 0.47179 0.0
O43 O 0.35778 0.84637 0.48373 0.0
Cd44 Cd 0.35311 0.85556 0.51392 0.0
O45 O 0.32954 0.85069 0.4759 0.0
Cd46 Cd 0.31204 0.85658 0.50394 0.0
C47 C 0.33303 0.89652 0.50609 0.0
O48 O 0.32871 0.83715 0.52367 0.0
O49 O 0.31201 0.85618 0.53739 0.0
O50 O 0.28955 0.83642 0.49181 0.0
C51 C 0.3223 0.84269 0.53838 0.0
O52 O 0.34683 0.88798 0.51137 0.0
C53 C 0.27631 0.84647 0.49539 0.0
O54 O 0.31872 0.8882 0.50205 0.0
O55 O 0.27969 0.86146 0.50285 0.0
C56 C 0.12179 0.67881 0.53285 0.0
O57 O 0.13593 0.68373 0.52506 0.0
Cd58 Cd 0.11985 0.68906 0.49645 0.0
O59 O 0.10748 0.68037 0.52393 0.0
Cd60 Cd 0.11593 0.69435 0.49275 0.0
C61 C 0.07845 0.68439 0.4913 0.0
O62 O 0.13651 0.67155 0.4776 0.0
O63 O 0.11504 0.68167 0.46136 0.0
O64 O 0.13907 0.71537 0.5042 0.0
C65 C 0.12867 0.67158 0.46254 0.0
O66 O 0.0901 0.67265 0.49508 0.0
C67 C 0.13373 0.72864 0.49493 0.0
O68 O 0.08403 0.7002 0.48863 0.0
O69 O 0.12027 0.72604 0.48484 0.0
C70 C 0.34359 0.13561 0.51058 0.0
O71 O 0.35567 0.13662 0.49867 0.0
Cd72 Cd 0.35089 0.12846 0.46816 0.0
O73 O 0.32754 0.13152 0.50636 0.0
Cd74 Cd 0.30935 0.12618 0.47861 0.0
C75 C 0.33117 0.08684 0.4744 0.0
O76 O 0.32575 0.14637 0.45981 0.0
O77 O 0.3083 0.12871 0.44516 0.0
O78 O 0.28823 0.14605 0.49266 0.0
C79 C 0.31921 0.14177 0.44482 0.0
O80 O 0.34478 0.09594 0.46957 0.0
C81 C 0.27453 0.13634 0.48991 0.0
O82 O 0.31668 0.09459 0.47883 0.0
O83 O 0.27691 0.12162 0.48157 0.0
C84 C 0.84602 0.34302 0.51841 0.0
O85 O 0.84928 0.35488 0.50659 0.0
Cd86 Cd 0.85505 0.34986 0.47544 0.0
O87 O 0.84563 0.32639 0.5143 0.0
Cd88 Cd 0.85082 0.30844 0.48646 0.0
C89 C 0.8929 0.32498 0.48111 0.0
O90 O 0.83427 0.32742 0.46571 0.0
O91 O 0.85013 0.30679 0.45343 0.0
O92 O 0.8291 0.2865 0.49718 0.0
C93 C 0.83914 0.31957 0.45144 0.0
O94 O 0.88593 0.33933 0.47496 0.0
C95 C 0.83896 0.27292 0.49424 0.0
O96 O 0.88314 0.31236 0.48722 0.0
O97 O 0.85448 0.27593 0.48805 0.0
C98 C 0.63689 0.84218 0.51277 0.0
O99 O 0.62485 0.84323 0.50076 0.0
Cd100 Cd 0.62934 0.85595 0.47174 0.0
O101 O 0.65301 0.84664 0.50942 0.0
Cd102 Cd 0.67072 0.85579 0.48245 0.0
C103 C 0.65011 0.89597 0.48284 0.0
O104 O 0.65387 0.83946 0.4597 0.0
O105 O 0.67221 0.85917 0.4495 0.0
O106 O 0.69276 0.83427 0.4928 0.0
C107 C 0.66092 0.84689 0.44617 0.0
O108 O 0.63637 0.88789 0.47664 0.0
C109 C 0.70619 0.84446 0.49044 0.0
O110 O 0.6642 0.88729 0.48691 0.0
O111 O 0.70314 0.86015 0.48449 0.0
C112 C 0.46975 0.14177 0.33925 0.0
O113 O 0.48134 0.14039 0.35167 0.0
Cd114 Cd 0.51121 0.1302 0.34755 0.0
O115 O 0.47374 0.13854 0.32291 0.0
Cd116 Cd 0.50156 0.13119 0.30579 0.0
C117 C 0.50401 0.09027 0.32536 0.0
O118 O 0.52136 0.1494 0.32398 0.0
O119 O 0.53481 0.13239 0.30509 0.0
O120 O 0.4895 0.15135 0.28323 0.0
C121 C 0.53595 0.14451 0.317 0.0
O122 O 0.5095 0.09811 0.33958 0.0
C123 C 0.49369 0.14162 0.26987 0.0
O124 O 0.49946 0.09934 0.31161 0.0
O125 O 0.50142 0.12681 0.27321 0.0
C126 C 0.8487 0.45768 0.32592 0.0
O127 O 0.83612 0.46884 0.32439 0.0
Cd128 Cd 0.85682 0.49307 0.31632 0.0
O129 O 0.86414 0.46315 0.32165 0.0
Cd130 Cd 0.86075 0.49617 0.30959 0.0
C131 C 0.89854 0.49165 0.31861 0.0
O132 O 0.84509 0.51545 0.33328 0.0
O133 O 0.86645 0.5283 0.31897 0.0
O134 O 0.83328 0.49219 0.29187 0.0
C135 C 0.85406 0.52956 0.33055 0.0
O136 O 0.88702 0.48869 0.33071 0.0
C137 C 0.84041 0.49612 0.27693 0.0
O138 O 0.8927 0.49609 0.30328 0.0
O139 O 0.85697 0.49985 0.27706 0.0
C140 C 0.52738 0.84938 0.31533 0.0
O141 O 0.51652 0.8364 0.31498 0.0
Cd142 Cd 0.49172 0.85607 0.30614 0.0
O143 O 0.52149 0.86439 0.30998 0.0
Cd144 Cd 0.48822 0.86 0.29935 0.0
C145 C 0.49302 0.89825 0.30634 0.0
O146 O 0.47007 0.84515 0.32444 0.0
O147 O 0.45737 0.86722 0.31097 0.0
O148 O 0.49139 0.83162 0.28261 0.0
C149 C 0.45635 0.85486 0.32268 0.0
O150 O 0.49601 0.88717 0.3189 0.0
C151 C 0.48553 0.83783 0.26785 0.0
O152 O 0.48849 0.89177 0.29127 0.0
O153 O 0.48139 0.85436 0.26754 0.0
C154 C 0.13909 0.51388 0.36216 0.0
O155 O 0.1372 0.50188 0.37415 0.0
Cd156 Cd 0.12732 0.47177 0.36844 0.0
O157 O 0.13678 0.51013 0.3456 0.0
Cd158 Cd 0.13015 0.48316 0.32698 0.0
C159 C 0.08869 0.48065 0.34491 0.0
O160 O 0.14601 0.46085 0.34482 0.0
O161 O 0.12855 0.45034 0.32431 0.0
O162 O 0.15218 0.49372 0.30546 0.0
C163 C 0.13987 0.44723 0.33661 0.0
O164 O 0.09583 0.4743 0.35912 0.0
C165 C 0.142 0.4922 0.29184 0.0
O166 O 0.09831 0.48578 0.33178 0.0
O167 O 0.1262 0.48662 0.29463 0.0
C168 C 0.46673 0.83624 0.6497 0.0
O169 O 0.47758 0.83601 0.63661 0.0
Cd170 Cd 0.50752 0.84665 0.63773 0.0
O171 O 0.47164 0.84135 0.66532 0.0
Cd172 Cd 0.50054 0.85019 0.68008 0.0
C173 C 0.50051 0.88862 0.65593 0.0
O174 O 0.51904 0.83032 0.66276 0.0
O175 O 0.53389 0.84973 0.67793 0.0
O176 O 0.49019 0.83261 0.70539 0.0
C177 C 0.53415 0.83622 0.66755 0.0
O178 O 0.50532 0.87944 0.6423 0.0
C179 C 0.49497 0.84385 0.71732 0.0
O180 O 0.49723 0.881 0.67085 0.0
O181 O 0.50242 0.85821 0.71194 0.0
C182 C 0.12538 0.47287 0.63367 0.0
O183 O 0.12106 0.48531 0.62281 0.0
Cd184 Cd 0.11449 0.5157 0.63022 0.0
O185 O 0.12716 0.47607 0.65045 0.0
Cd186 Cd 0.12506 0.50283 0.67081 0.0
C187 C 0.08108 0.50682 0.66081 0.0
O188 O 0.13817 0.52356 0.64989 0.0
O189 O 0.12658 0.53626 0.67292 0.0
O190 O 0.15022 0.49012 0.68713 0.0
C191 C 0.13507 0.53797 0.6583 0.0
O192 O 0.08586 0.51375 0.64591 0.0
C193 C 0.14406 0.49352 0.70265 0.0
O194 O 0.0926 0.50073 0.67187 0.0
O195 O 0.12874 0.50084 0.7034 0.0
C196 C 0.52777 0.12741 0.65405 0.0
O197 O 0.51792 0.14091 0.65654 0.0
Cd198 Cd 0.49309 0.12241 0.66729 0.0
O199 O 0.52151 0.11237 0.65889 0.0
Cd200 Cd 0.49055 0.11871 0.67418 0.0
C201 C 0.49159 0.08042 0.66604 0.0
O202 O 0.47039 0.13592 0.65224 0.0
O203 O 0.45792 0.11438 0.66673 0.0
O204 O 0.50198 0.14481 0.69095 0.0
C205 C 0.4563 0.12718 0.65557 0.0
O206 O 0.49345 0.09155 0.6533 0.0
C207 C 0.49584 0.13985 0.70603 0.0
O208 O 0.48983 0.08686 0.68168 0.0
O209 O 0.48721 0.12516 0.70638 0.0
C210 C 0.84721 0.51698 0.64405 0.0
O211 O 0.8511 0.5051 0.63243 0.0
Cd212 Cd 0.85595 0.47391 0.63825 0.0
O213 O 0.84573 0.51285 0.66062 0.0
Cd214 Cd 0.84951 0.48508 0.67894 0.0
C215 C 0.89238 0.47961 0.66512 0.0
O216 O 0.83304 0.46534 0.65898 0.0
O217 O 0.84716 0.45187 0.68015 0.0
O218 O 0.82755 0.49751 0.69957 0.0
C219 C 0.83656 0.45073 0.66689 0.0
O220 O 0.88627 0.4729 0.6506 0.0
C221 C 0.8365 0.49403 0.71368 0.0
O222 O 0.88188 0.48608 0.67689 0.0
O223 O 0.85156 0.48647 0.71157 0.0
C224 C 0.30676 0.44912 0.13594 0.0
O225 O 0.30422 0.45899 0.14948 0.0
Cd226 Cd 0.29577 0.4849 0.13097 0.0
O227 O 0.30291 0.45586 0.12082 0.0
Cd228 Cd 0.29012 0.4881 0.12664 0.0
C229 C 0.29739 0.48639 0.08867 0.0
O230 O 0.31209 0.50655 0.14549 0.0
O231 O 0.30482 0.51789 0.12003 0.0
O232 O 0.27005 0.47897 0.15139 0.0
C233 C 0.31349 0.5195 0.13463 0.0
O234 O 0.30985 0.48365 0.09991 0.0
C235 C 0.25699 0.48849 0.14612 0.0
O236 O 0.28196 0.48921 0.09499 0.0
O237 O 0.25926 0.49769 0.13195 0.0
C238 C 0.34829 0.5209 0.84789 0.0
O239 O 0.3602 0.50937 0.85176 0.0
Cd240 Cd 0.35452 0.47938 0.8615 0.0
O241 O 0.33176 0.51672 0.8484 0.0
Cd242 Cd 0.31338 0.48938 0.8545 0.0
C243 C 0.32718 0.48848 0.89769 0.0
O244 O 0.33324 0.46753 0.84075 0.0
O245 O 0.31215 0.45649 0.857 0.0
O246 O 0.2957 0.49926 0.82912 0.0
C247 C 0.3252 0.45371 0.84655 0.0
O248 O 0.34192 0.48243 0.89165 0.0
C249 C 0.2806 0.49621 0.83624 0.0
O250 O 0.31468 0.49321 0.88702 0.0
O251 O 0.28062 0.49035 0.85228 0.0
C252 C 0.45959 0.32465 0.85438 0.0
O253 O 0.47007 0.32322 0.84122 0.0
Cd254 Cd 0.49486 0.31357 0.8605 0.0
O255 O 0.46558 0.31969 0.8695 0.0
Cd256 Cd 0.49779 0.30673 0.86418 0.0
C257 C 0.49406 0.31363 0.90253 0.0
O258 O 0.51705 0.33043 0.84844 0.0
O259 O 0.52971 0.3162 0.87005 0.0
O260 O 0.489 0.29011 0.83698 0.0
C261 C 0.53103 0.32776 0.85758 0.0
O262 O 0.49204 0.32655 0.89164 0.0
C263 C 0.49576 0.27529 0.84191 0.0
O264 O 0.49735 0.29836 0.89583 0.0
O265 O 0.50345 0.275 0.85715 0.0
C266 C 0.63988 0.47532 0.84547 0.0
O267 O 0.62699 0.48641 0.84545 0.0
Cd268 Cd 0.62993 0.51732 0.85293 0.0
O269 O 0.65588 0.48056 0.84835 0.0
Cd270 Cd 0.67162 0.50998 0.85269 0.0
C271 C 0.65207 0.51328 0.8933 0.0
O272 O 0.65285 0.52746 0.83301 0.0
O273 O 0.66961 0.54329 0.85029 0.0
O274 O 0.69439 0.4979 0.833 0.0
C275 C 0.65846 0.54286 0.83745 0.0
O276 O 0.63771 0.5176 0.88514 0.0
C277 C 0.70756 0.50342 0.84229 0.0
O278 O 0.66607 0.50919 0.88454 0.0
O279 O 0.70403 0.51194 0.85664 0.0
C280 C 0.50885 0.65208 0.83688 0.0
O281 O 0.49646 0.64041 0.83647 0.0
Cd282 Cd 0.46714 0.64524 0.84758 0.0
O283 O 0.50585 0.66807 0.8423 0.0
Cd284 Cd 0.47902 0.68614 0.85138 0.0
C285 C 0.47633 0.66243 0.88974 0.0
O286 O 0.45787 0.6715 0.83168 0.0
O287 O 0.44577 0.68747 0.85229 0.0
O288 O 0.49162 0.70986 0.83309 0.0
C289 C 0.4437 0.67774 0.83845 0.0
O290 O 0.4703 0.64942 0.88034 0.0
C291 C 0.48878 0.7224 0.8443 0.0
O292 O 0.4812 0.67704 0.88237 0.0
O293 O 0.48134 0.71811 0.859 0.0
C294 C 0.65978 0.5311 0.12961 0.0
O295 O 0.66152 0.52184 0.14369 0.0
Cd296 Cd 0.66802 0.49445 0.12643 0.0
O297 O 0.66312 0.52324 0.11493 0.0
Cd298 Cd 0.67421 0.49074 0.12289 0.0
C299 C 0.66618 0.49174 0.08454 0.0
O300 O 0.65015 0.47482 0.14129 0.0
O301 O 0.66214 0.45903 0.12042 0.0
O302 O 0.69207 0.49991 0.14911 0.0
C303 C 0.65117 0.45983 0.13341 0.0
O304 O 0.6539 0.49551 0.09561 0.0
C305 C 0.70659 0.49312 0.14357 0.0
O306 O 0.68131 0.4878 0.09105 0.0
O307 O 0.70612 0.48497 0.12857 0.0
C308 C 0.46859 0.62681 0.13307 0.0
O309 O 0.48189 0.61666 0.13006 0.0
Cd310 Cd 0.50993 0.62703 0.11911 0.0
O311 O 0.47 0.6438 0.13133 0.0
Cd312 Cd 0.49373 0.66629 0.1241 0.0
C313 C 0.49516 0.65022 0.08179 0.0
O314 O 0.5187 0.65126 0.13825 0.0
O315 O 0.52592 0.67251 0.12009 0.0
O316 O 0.48294 0.68355 0.14931 0.0
C317 C 0.53092 0.66085 0.13144 0.0
O318 O 0.50338 0.63675 0.08839 0.0
C319 C 0.48169 0.69839 0.14102 0.0
O320 O 0.48941 0.66278 0.09187 0.0
O321 O 0.48578 0.69836 0.12445 0.0
C322 C 0.50235 0.34474 0.14609 0.0
O323 O 0.48949 0.35581 0.14503 0.0
Cd324 Cd 0.46059 0.34888 0.13343 0.0
O325 O 0.50009 0.32816 0.14233 0.0
Cd326 Cd 0.47423 0.30827 0.13452 0.0
C327 C 0.47257 0.3281 0.09386 0.0
O328 O 0.45077 0.32385 0.15077 0.0
O329 O 0.44155 0.30478 0.13117 0.0
O330 O 0.48575 0.28629 0.15571 0.0
C331 C 0.43766 0.31596 0.14341 0.0
O332 O 0.4652 0.34153 0.10148 0.0
C333 C 0.48424 0.27298 0.14511 0.0
O334 O 0.4779 0.3147 0.10302 0.0
O335 O 0.47824 0.27613 0.12945 0.0
C336 C 0.13134 0.41475 0.33827 0.0
C337 C 0.1426 0.4289 0.3437 0.0
C338 C 0.13215 0.3981 0.34691 0.0
C339 C 0.15893 0.36955 0.37727 0.0
H340 H 0.113 0.356 0.39718 0.0
C341 C 0.15231 0.32677 0.44115 0.0
C342 C 0.1368 0.31649 0.44392 0.0
C343 C 0.15418 0.33718 0.42566 0.0
C344 C 0.1259 0.35919 0.39142 0.0
H345 H 0.16436 0.43634 0.36154 0.0
H346 H 0.16587 0.40719 0.3765 0.0
H347 H 0.11462 0.38011 0.37531 0.0
H348 H 0.11169 0.30796 0.43206 0.0
H349 H 0.11523 0.32556 0.40466 0.0
H350 H 0.17027 0.34876 0.39352 0.0
C351 C 0.1564 0.409 0.36562 0.0
C352 C 0.12681 0.3731 0.37889 0.0
C353 C 0.15546 0.42571 0.35713 0.0
C354 C 0.1237 0.31593 0.43037 0.0
C355 C 0.1257 0.32612 0.41473 0.0
C356 C 0.158 0.35544 0.38964 0.0
C357 C 0.14439 0.39522 0.36096 0.0
C358 C 0.14337 0.37873 0.37206 0.0
C359 C 0.14069 0.33734 0.41243 0.0
C360 C 0.14152 0.35041 0.39728 0.0
H361 H 0.12134 0.41676 0.32791 0.0
H362 H 0.12283 0.38764 0.34298 0.0
H363 H 0.17185 0.37354 0.37206 0.0
H364 H 0.16262 0.32751 0.45137 0.0
H365 H 0.16581 0.34578 0.42455 0.0
C366 C 0.65168 0.14133 0.42767 0.0
C367 C 0.64167 0.14788 0.44224 0.0
C368 C 0.64607 0.14459 0.41 0.0
C369 C 0.61558 0.1722 0.38212 0.0
H370 H 0.6054 0.12768 0.35698 0.0
C371 C 0.55352 0.16237 0.33921 0.0
C372 C 0.5532 0.14966 0.32526 0.0
C373 C 0.5691 0.16532 0.3491 0.0
C374 C 0.60855 0.14034 0.36344 0.0
H375 H 0.61876 0.16401 0.4498 0.0
H376 H 0.60916 0.16991 0.4191 0.0
H377 H 0.62506 0.1274 0.38305 0.0
H378 H 0.56934 0.13109 0.30976 0.0
H379 H 0.59673 0.13636 0.32701 0.0
H380 H 0.59847 0.18505 0.36298 0.0
C381 C 0.62126 0.1622 0.42124 0.0
C382 C 0.61982 0.14016 0.37843 0.0
C383 C 0.62666 0.15868 0.43883 0.0
C384 C 0.56914 0.14086 0.32056 0.0
C385 C 0.5848 0.14383 0.33048 0.0
C386 C 0.60444 0.17243 0.36703 0.0
C387 C 0.6306 0.15478 0.40666 0.0
C388 C 0.62273 0.15593 0.38841 0.0
C389 C 0.58479 0.15567 0.34524 0.0
C390 C 0.60006 0.15634 0.35807 0.0
H391 H 0.66331 0.13295 0.42992 0.0
H392 H 0.65349 0.13873 0.39897 0.0
H393 H 0.61784 0.18459 0.38945 0.0
H394 H 0.54148 0.16946 0.34309 0.0
H395 H 0.56846 0.17437 0.36049 0.0
C396 C 0.82615 0.62571 0.45017 0.0
C397 C 0.83598 0.64135 0.45394 0.0
C398 C 0.82538 0.61891 0.43273 0.0
C399 C 0.85362 0.61474 0.39426 0.0
H400 H 0.81205 0.5916 0.37325 0.0
C401 C 0.86043 0.56198 0.33762 0.0
C402 C 0.85036 0.5463 0.34056 0.0
C403 C 0.85709 0.57752 0.3477 0.0
C404 C 0.82379 0.59801 0.37891 0.0
H405 H 0.85202 0.66266 0.44236 0.0
H406 H 0.85108 0.65039 0.41173 0.0
H407 H 0.80824 0.61274 0.39806 0.0
H408 H 0.82867 0.53471 0.35604 0.0
H409 H 0.82315 0.56146 0.37376 0.0
H410 H 0.86932 0.5991 0.37607 0.0
C411 C 0.84382 0.64358 0.42231 0.0
C412 C 0.82158 0.61018 0.39302 0.0
C413 C 0.84429 0.65061 0.43977 0.0
C414 C 0.83668 0.54657 0.35344 0.0
C415 C 0.83337 0.56202 0.36349 0.0
C416 C 0.85586 0.60242 0.38026 0.0
C417 C 0.83467 0.62745 0.41874 0.0
C418 C 0.83653 0.61812 0.40127 0.0
C419 C 0.84362 0.57765 0.36087 0.0
C420 C 0.84102 0.59335 0.37294 0.0
H421 H 0.81957 0.61836 0.46085 0.0
H422 H 0.81839 0.60635 0.43041 0.0
H423 H 0.86538 0.62057 0.40049 0.0
H424 H 0.871 0.56218 0.3277 0.0
H425 H 0.86515 0.58938 0.34528 0.0
C426 C 0.36577 0.83329 0.44891 0.0
C427 C 0.35067 0.84374 0.45289 0.0
C428 C 0.37217 0.83224 0.43136 0.0
C429 C 0.37637 0.85983 0.39214 0.0
H430 H 0.39626 0.8166 0.37102 0.0
C431 C 0.42512 0.86296 0.332 0.0
C432 C 0.44037 0.85212 0.334 0.0
C433 C 0.41036 0.86061 0.34332 0.0
C434 C 0.39078 0.82881 0.37673 0.0
H435 H 0.32996 0.86071 0.44158 0.0
H436 H 0.34155 0.85924 0.41077 0.0
H437 H 0.37645 0.81427 0.39695 0.0
H438 H 0.45201 0.83012 0.34914 0.0
H439 H 0.42664 0.82631 0.369 0.0
H440 H 0.3916 0.87449 0.37276 0.0
C441 C 0.34824 0.85173 0.42128 0.0
C442 C 0.37937 0.82744 0.39148 0.0
C443 C 0.3416 0.85251 0.43884 0.0
C444 C 0.44045 0.83868 0.34724 0.0
C445 C 0.42579 0.83637 0.35853 0.0
C446 C 0.38794 0.86123 0.37747 0.0
C447 C 0.36378 0.84185 0.41747 0.0
C448 C 0.37256 0.84297 0.3997 0.0
C449 C 0.41061 0.84738 0.35683 0.0
C450 C 0.39581 0.84576 0.37004 0.0
H451 H 0.37296 0.82633 0.45947 0.0
H452 H 0.38429 0.82467 0.42886 0.0
H453 H 0.37142 0.87203 0.39832 0.0
H454 H 0.42465 0.87337 0.32184 0.0
H455 H 0.39883 0.86922 0.34157 0.0
C456 C 0.14266 0.5561 0.63124 0.0
C457 C 0.13664 0.55551 0.64911 0.0
C458 C 0.14154 0.57196 0.62136 0.0
C459 C 0.13803 0.62044 0.62203 0.0
H460 H 0.11069 0.6135 0.57815 0.0
C461 C 0.13842 0.66754 0.55983 0.0
C462 C 0.12218 0.66982 0.55055 0.0
C463 C 0.13931 0.65638 0.57492 0.0
C464 C 0.11815 0.61573 0.59046 0.0
H465 H 0.12596 0.57141 0.67106 0.0
H466 H 0.12427 0.5994 0.65366 0.0
H467 H 0.11529 0.58831 0.59851 0.0
H468 H 0.09389 0.66333 0.55059 0.0
H469 H 0.0955 0.64377 0.57683 0.0
H470 H 0.14135 0.64785 0.61353 0.0
C471 C 0.12967 0.58744 0.64739 0.0
C472 C 0.12092 0.60128 0.602 0.0
C473 C 0.13061 0.57145 0.65728 0.0
C474 C 0.10663 0.66174 0.55737 0.0
C475 C 0.10754 0.65051 0.57236 0.0
C476 C 0.13548 0.63493 0.61027 0.0
C477 C 0.13458 0.58761 0.62918 0.0
C478 C 0.13105 0.60343 0.61775 0.0
C479 C 0.124 0.64724 0.58089 0.0
C480 C 0.12559 0.63264 0.59432 0.0
H481 H 0.14751 0.54411 0.62458 0.0
H482 H 0.1456 0.57185 0.60739 0.0
H483 H 0.14588 0.62236 0.63414 0.0
H484 H 0.15062 0.67367 0.55494 0.0
H485 H 0.15218 0.65403 0.5812 0.0
C486 C 0.33923 0.12999 0.54351 0.0
C487 C 0.34853 0.13861 0.52955 0.0
C488 C 0.3455 0.1311 0.56122 0.0
C489 C 0.37601 0.15606 0.59135 0.0
H490 H 0.38869 0.10929 0.61043 0.0
C491 C 0.43862 0.14485 0.63334 0.0
C492 C 0.43934 0.13102 0.64614 0.0
C493 C 0.4232 0.1476 0.62316 0.0
C494 C 0.38487 0.12249 0.60566 0.0
H495 H 0.37087 0.15609 0.52327 0.0
H496 H 0.38157 0.15828 0.55411 0.0
H497 H 0.36836 0.11133 0.58492 0.0
H498 H 0.42415 0.1098 0.65901 0.0
H499 H 0.39702 0.11472 0.64126 0.0
H500 H 0.39301 0.16723 0.61165 0.0
C501 C 0.36955 0.1506 0.55142 0.0
C502 C 0.37322 0.12364 0.59101 0.0
C503 C 0.36351 0.14921 0.53374 0.0
C504 C 0.42402 0.12049 0.64913 0.0
C505 C 0.40852 0.12327 0.63894 0.0
C506 C 0.38752 0.15494 0.60611 0.0
C507 C 0.36089 0.14119 0.56526 0.0
C508 C 0.36934 0.14038 0.58323 0.0
C509 C 0.40806 0.13664 0.62558 0.0
C510 C 0.39276 0.13809 0.61288 0.0
H511 H 0.32765 0.12171 0.54062 0.0
H512 H 0.33862 0.12372 0.57168 0.0
H513 H 0.37303 0.16914 0.58572 0.0
H514 H 0.45019 0.15322 0.63074 0.0
H515 H 0.42349 0.1578 0.61279 0.0
C516 C 0.84221 0.4178 0.66277 0.0
C517 C 0.83258 0.43334 0.65814 0.0
C518 C 0.84106 0.40239 0.65204 0.0
C519 C 0.84923 0.38291 0.61717 0.0
H520 H 0.80765 0.36701 0.5902 0.0
C521 C 0.85098 0.36512 0.54303 0.0
C522 C 0.84352 0.34878 0.53725 0.0
C523 C 0.84893 0.37082 0.56073 0.0
C524 C 0.81932 0.37103 0.59786 0.0
H525 H 0.8129 0.4444 0.63979 0.0
H526 H 0.81089 0.41759 0.62113 0.0
H527 H 0.80367 0.38494 0.61759 0.0
H528 H 0.82793 0.3256 0.54544 0.0
H529 H 0.82378 0.33605 0.57656 0.0
H530 H 0.86488 0.3701 0.5968 0.0
C531 C 0.81934 0.41724 0.63298 0.0
C532 C 0.81707 0.38134 0.61344 0.0
C533 C 0.8206 0.43266 0.64359 0.0
C534 C 0.83386 0.33824 0.54957 0.0
C535 C 0.83147 0.34418 0.5673 0.0
C536 C 0.85147 0.37282 0.60154 0.0
C537 C 0.83012 0.40222 0.63664 0.0
C538 C 0.83204 0.38793 0.62287 0.0
C539 C 0.83912 0.36047 0.57299 0.0
C540 C 0.83656 0.36737 0.59142 0.0
H541 H 0.85146 0.41788 0.67398 0.0
H542 H 0.8494 0.39094 0.65526 0.0
H543 H 0.86104 0.38792 0.62401 0.0
H544 H 0.85858 0.37349 0.53389 0.0
H545 H 0.85477 0.38354 0.56477 0.0
C546 C 0.54982 0.81572 0.64641 0.0
C547 C 0.55026 0.83116 0.65728 0.0
C548 C 0.56299 0.81286 0.63351 0.0
C549 C 0.60645 0.8277 0.61513 0.0
H550 H 0.58182 0.82224 0.56955 0.0
C551 C 0.63842 0.84497 0.54624 0.0
C552 C 0.63176 0.83623 0.5309 0.0
C553 C 0.63123 0.84119 0.56319 0.0
C554 C 0.58911 0.82328 0.5821 0.0
H555 H 0.56576 0.85477 0.66443 0.0
H556 H 0.58878 0.84982 0.64163 0.0
H557 H 0.56504 0.82061 0.59717 0.0
H558 H 0.61372 0.81559 0.52123 0.0
H559 H 0.60197 0.80816 0.55076 0.0
H560 H 0.63059 0.83051 0.59988 0.0
C561 C 0.57825 0.83993 0.64317 0.0
C562 C 0.5794 0.82242 0.598 0.0
C563 C 0.56504 0.84279 0.65618 0.0
C564 C 0.61884 0.82272 0.53287 0.0
C565 C 0.61202 0.8186 0.54979 0.0
C566 C 0.61629 0.82832 0.59912 0.0
C567 C 0.57684 0.82539 0.63117 0.0
C568 C 0.58789 0.82476 0.61467 0.0
C569 C 0.61751 0.82833 0.56508 0.0
C570 C 0.60768 0.82629 0.58237 0.0
H571 H 0.53872 0.80638 0.64715 0.0
H572 H 0.56177 0.80136 0.62464 0.0
H573 H 0.6133 0.82956 0.62784 0.0
H574 H 0.64838 0.85548 0.545 0.0
H575 H 0.63575 0.84904 0.57458 0.0
C576 C 0.33782 0.16379 0.4282 0.0
C577 C 0.32795 0.14773 0.42811 0.0
C578 C 0.3498 0.16754 0.41439 0.0
C579 C 0.36775 0.1532 0.37023 0.0
H580 H 0.4132 0.16153 0.39397 0.0
C581 C 0.43658 0.13767 0.33786 0.0
C582 C 0.45152 0.14725 0.34413 0.0
C583 C 0.41962 0.14112 0.34502 0.0
C584 C 0.40066 0.15969 0.38691 0.0
H585 H 0.32147 0.12388 0.41266 0.0
H586 H 0.34278 0.13029 0.38858 0.0
H587 H 0.38603 0.16223 0.41131 0.0
H588 H 0.46045 0.16898 0.36129 0.0
H589 H 0.43087 0.17583 0.37292 0.0
H590 H 0.38263 0.1504 0.34578 0.0
C591 C 0.34112 0.14004 0.39926 0.0
C592 C 0.385 0.16005 0.39694 0.0
C593 C 0.32896 0.13634 0.41307 0.0
C594 C 0.44912 0.16123 0.35651 0.0
C595 C 0.43217 0.16502 0.36325 0.0
C596 C 0.38352 0.15306 0.36006 0.0
C597 C 0.3523 0.15521 0.40032 0.0
C598 C 0.36839 0.15663 0.3888 0.0
C599 C 0.41733 0.15446 0.35828 0.0
C600 C 0.40021 0.15612 0.36835 0.0
H601 H 0.33709 0.17294 0.43953 0.0
H602 H 0.358 0.17953 0.41535 0.0
H603 H 0.3551 0.15049 0.36364 0.0
H604 H 0.4382 0.1268 0.32831 0.0
H605 H 0.40856 0.13265 0.34091 0.0
C606 C 0.82372 0.34189 0.43173 0.0
C607 C 0.83621 0.32794 0.43369 0.0
C608 C 0.82302 0.35188 0.41586 0.0
C609 C 0.85344 0.36822 0.38244 0.0
H610 H 0.81097 0.38625 0.35858 0.0
C611 C 0.85885 0.4262 0.33195 0.0
C612 C 0.84567 0.43954 0.33335 0.0
C613 C 0.85653 0.40956 0.34035 0.0
C614 C 0.82297 0.38144 0.36517 0.0
H615 H 0.85694 0.31271 0.42017 0.0
H616 H 0.85593 0.33045 0.39256 0.0
H617 H 0.80832 0.36204 0.38059 0.0
H618 H 0.8195 0.44578 0.34413 0.0
H619 H 0.81578 0.41723 0.35942 0.0
H620 H 0.86804 0.38826 0.3682 0.0
C621 C 0.84668 0.33359 0.4033 0.0
C622 C 0.82143 0.36749 0.37766 0.0
C623 C 0.84722 0.32344 0.41908 0.0
C624 C 0.82988 0.43573 0.34278 0.0
C625 C 0.82769 0.41924 0.35144 0.0
C626 C 0.85497 0.38233 0.37021 0.0
C627 C 0.83494 0.34822 0.40176 0.0
C628 C 0.83662 0.36101 0.38665 0.0
C629 C 0.84113 0.40604 0.35062 0.0
C630 C 0.8397 0.38943 0.3617 0.0
H631 H 0.81501 0.3456 0.44275 0.0
H632 H 0.81392 0.36317 0.41506 0.0
H633 H 0.86535 0.36364 0.38939 0.0
H634 H 0.87108 0.42871 0.32458 0.0
H635 H 0.867 0.3996 0.33906 0.0
C636 C 0.55788 0.86166 0.32201 0.0
C637 C 0.54553 0.84746 0.32297 0.0
C638 C 0.57425 0.86059 0.33107 0.0
C639 C 0.60392 0.82918 0.3568 0.0
H640 H 0.61643 0.87257 0.38287 0.0
C641 C 0.64092 0.83062 0.42469 0.0
C642 C 0.65317 0.84456 0.42803 0.0
C643 C 0.63153 0.8299 0.40846 0.0
C644 C 0.61336 0.86043 0.37543 0.0
H645 H 0.54095 0.8207 0.33353 0.0
H646 H 0.56909 0.81905 0.34976 0.0
H647 H 0.59283 0.87352 0.36043 0.0
H648 H 0.66598 0.86808 0.4166 0.0
H649 H 0.64936 0.86693 0.38829 0.0
H650 H 0.62385 0.81594 0.37277 0.0
C651 C 0.56645 0.83087 0.34173 0.0
C652 C 0.59983 0.86096 0.36249 0.0
C653 C 0.55019 0.83186 0.3325 0.0
C654 C 0.65658 0.8572 0.41443 0.0
C655 C 0.64703 0.8566 0.39827 0.0
C656 C 0.61733 0.82862 0.36992 0.0
C657 C 0.57853 0.84539 0.34147 0.0
C658 C 0.59462 0.84525 0.35331 0.0
C659 C 0.63409 0.8432 0.39532 0.0
C660 C 0.6219 0.84416 0.37963 0.0
H661 H 0.55473 0.8738 0.31462 0.0
H662 H 0.58337 0.87188 0.33025 0.0
H663 H 0.60054 0.81691 0.34974 0.0
H664 H 0.63808 0.82064 0.4349 0.0
H665 H 0.62154 0.8195 0.40662 0.0
C666 C 0.1261 0.66055 0.43081 0.0
C667 C 0.13412 0.65941 0.44786 0.0
C668 C 0.13 0.6478 0.41755 0.0
C669 C 0.16045 0.60923 0.40687 0.0
H670 H 0.11881 0.59114 0.38148 0.0
C671 C 0.15074 0.53599 0.38459 0.0
C672 C 0.14303 0.53254 0.3677 0.0
C673 C 0.1528 0.55361 0.39071 0.0
C674 C 0.13065 0.59625 0.38819 0.0
H675 H 0.15301 0.6445 0.46419 0.0
H676 H 0.1593 0.622 0.44148 0.0
H677 H 0.11644 0.6186 0.39905 0.0
H678 H 0.13201 0.54483 0.34368 0.0
H679 H 0.13518 0.57573 0.35467 0.0
H680 H 0.17421 0.586 0.3969 0.0
C681 C 0.15035 0.6329 0.43803 0.0
C682 C 0.12934 0.61205 0.39824 0.0
C683 C 0.14663 0.64575 0.45116 0.0
C684 C 0.13802 0.5471 0.35676 0.0
C685 C 0.13978 0.56474 0.36303 0.0
C686 C 0.16167 0.59327 0.39702 0.0
C687 C 0.14183 0.63353 0.42115 0.0
C688 C 0.14408 0.61846 0.40816 0.0
C689 C 0.14693 0.56812 0.38018 0.0
C690 C 0.14664 0.58641 0.38799 0.0
H691 H 0.11653 0.67105 0.42783 0.0
H692 H 0.12344 0.64893 0.40461 0.0
H693 H 0.17221 0.61399 0.41395 0.0
H694 H 0.15482 0.52505 0.39328 0.0
H695 H 0.15819 0.55584 0.40406 0.0
C696 C 0.33138 0.84839 0.5703 0.0
C697 C 0.33017 0.83668 0.55552 0.0
C698 C 0.34233 0.84406 0.58496 0.0
C699 C 0.38344 0.81887 0.59169 0.0
H700 H 0.37903 0.83372 0.64145 0.0
C701 C 0.44458 0.81546 0.63619 0.0
C702 C 0.4481 0.83102 0.64621 0.0
C703 C 0.42748 0.81219 0.62946 0.0
C704 C 0.38044 0.8295 0.6276 0.0
H705 H 0.33765 0.81049 0.54531 0.0
H706 H 0.35626 0.80268 0.57104 0.0
H707 H 0.35292 0.83515 0.6215 0.0
H708 H 0.43651 0.85483 0.65814 0.0
H709 H 0.40668 0.84969 0.64556 0.0
H710 H 0.41092 0.81413 0.59716 0.0
C711 C 0.3493 0.81545 0.57111 0.0
C712 C 0.3655 0.83029 0.6162 0.0
C713 C 0.33861 0.81987 0.5564 0.0
C714 C 0.43401 0.84268 0.65048 0.0
C715 C 0.41693 0.83967 0.64331 0.0
C716 C 0.39828 0.81818 0.60296 0.0
C717 C 0.35205 0.82788 0.58509 0.0
C718 C 0.36693 0.82518 0.59805 0.0
C719 C 0.41369 0.82478 0.63205 0.0
C720 C 0.3971 0.82368 0.621 0.0
H721 H 0.32495 0.86146 0.56996 0.0
H722 H 0.34418 0.85395 0.59548 0.0
H723 H 0.38519 0.8153 0.57769 0.0
H724 H 0.45527 0.80619 0.63293 0.0
H725 H 0.42534 0.80028 0.62135 0.0
C726 C 0.12904 0.45182 0.60784 0.0
C727 C 0.12806 0.4545 0.62651 0.0
C728 C 0.13089 0.4346 0.60075 0.0
C729 C 0.14455 0.39833 0.58955 0.0
H730 H 0.11223 0.36062 0.605 0.0
C731 C 0.14342 0.33135 0.55234 0.0
C732 C 0.12634 0.32515 0.54747 0.0
C733 C 0.14542 0.34454 0.56552 0.0
C734 C 0.12137 0.371 0.60058 0.0
H735 H 0.12838 0.44112 0.65242 0.0
H736 H 0.13155 0.41078 0.63987 0.0
H737 H 0.11276 0.38935 0.62106 0.0
H738 H 0.09803 0.32708 0.55326 0.0
H739 H 0.10143 0.35059 0.57594 0.0
H740 H 0.15255 0.38061 0.56854 0.0
C741 C 0.13086 0.42215 0.63081 0.0
C742 C 0.1218 0.38736 0.60989 0.0
C743 C 0.12914 0.4395 0.63797 0.0
C744 C 0.11136 0.33164 0.55675 0.0
C745 C 0.11334 0.34504 0.56983 0.0
C746 C 0.14412 0.38206 0.58027 0.0
C747 C 0.13176 0.41957 0.61211 0.0
C748 C 0.13306 0.40135 0.60413 0.0
C749 C 0.13036 0.35204 0.57395 0.0
C750 C 0.13225 0.36832 0.5854 0.0
H751 H 0.12826 0.46304 0.59861 0.0
H752 H 0.13125 0.43304 0.58628 0.0
H753 H 0.15353 0.40879 0.58495 0.0
H754 H 0.15524 0.32638 0.54558 0.0
H755 H 0.15875 0.34931 0.56868 0.0
C756 C 0.55018 0.14523 0.6368 0.0
C757 C 0.54544 0.12915 0.64543 0.0
C758 C 0.56642 0.14668 0.62772 0.0
C759 C 0.60077 0.11829 0.60628 0.0
H760 H 0.62513 0.16403 0.60084 0.0
C761 C 0.66117 0.1257 0.5596 0.0
C762 C 0.65844 0.13883 0.5463 0.0
C763 C 0.65049 0.12539 0.57497 0.0
C764 C 0.61851 0.15116 0.60235 0.0
H765 H 0.55428 0.10221 0.65203 0.0
H766 H 0.58295 0.10489 0.63664 0.0
H767 H 0.60052 0.16132 0.62221 0.0
H768 H 0.64342 0.16274 0.5393 0.0
H769 H 0.62492 0.16233 0.56629 0.0
H770 H 0.6187 0.10821 0.58633 0.0
C771 C 0.57391 0.11625 0.63644 0.0
C772 C 0.60435 0.1496 0.61448 0.0
C773 C 0.55752 0.11472 0.64533 0.0
C774 C 0.64576 0.15241 0.54928 0.0
C775 C 0.63523 0.15223 0.56476 0.0
C776 C 0.61507 0.11979 0.59437 0.0
C777 C 0.57843 0.13215 0.62726 0.0
C778 C 0.59497 0.13327 0.61623 0.0
C779 C 0.6371 0.13836 0.57743 0.0
C780 C 0.62378 0.13634 0.59197 0.0
H781 H 0.54111 0.15657 0.6366 0.0
H782 H 0.56922 0.15902 0.62055 0.0
H783 H 0.59375 0.10558 0.60701 0.0
H784 H 0.6709 0.11509 0.55772 0.0
H785 H 0.65228 0.11466 0.58464 0.0
C786 C 0.8359 0.54846 0.64883 0.0
C787 C 0.84509 0.53584 0.63821 0.0
C788 C 0.83395 0.56624 0.64294 0.0
C789 C 0.85437 0.59965 0.61335 0.0
H790 H 0.80677 0.61895 0.60591 0.0
C791 C 0.82076 0.64639 0.55826 0.0
C792 C 0.83363 0.6601 0.55708 0.0
C793 C 0.82028 0.63507 0.5732 0.0
C794 C 0.82015 0.61385 0.60816 0.0
H795 H 0.8597 0.53203 0.61332 0.0
H796 H 0.85656 0.56297 0.6033 0.0
H797 H 0.81061 0.59082 0.62263 0.0
H798 H 0.85502 0.67378 0.57133 0.0
H799 H 0.85426 0.65387 0.59743 0.0
H800 H 0.86394 0.62199 0.59815 0.0
C801 C 0.85081 0.55914 0.6161 0.0
C802 C 0.82234 0.59785 0.61779 0.0
C803 C 0.85247 0.54139 0.62178 0.0
C804 C 0.84504 0.66323 0.57179 0.0
C805 C 0.84465 0.65181 0.58671 0.0
C806 C 0.85221 0.61569 0.60392 0.0
C807 C 0.84152 0.57172 0.62658 0.0
C808 C 0.83942 0.59028 0.61982 0.0
C809 C 0.83273 0.63718 0.58722 0.0
C810 C 0.83504 0.62261 0.60062 0.0
H811 H 0.83005 0.54454 0.66154 0.0
H812 H 0.82669 0.57573 0.65121 0.0
H813 H 0.86768 0.59412 0.61488 0.0
H814 H 0.81169 0.64375 0.54719 0.0
H815 H 0.81102 0.62386 0.57312 0.0
C816 C 0.32317 0.42603 0.15384 0.0
C817 C 0.31494 0.43114 0.13765 0.0
C818 C 0.33257 0.40987 0.15502 0.0
C819 C 0.35585 0.37734 0.12574 0.0
H820 H 0.36254 0.35196 0.17078 0.0
C821 C 0.40645 0.31982 0.13185 0.0
C822 C 0.41938 0.32323 0.14518 0.0
C823 C 0.39036 0.32935 0.13171 0.0
C824 C 0.36068 0.35885 0.15809 0.0
H825 H 0.30917 0.42287 0.11031 0.0
H826 H 0.32503 0.39432 0.11251 0.0
H827 H 0.33983 0.37544 0.1686 0.0
H828 H 0.42502 0.33814 0.16959 0.0
H829 H 0.39679 0.35458 0.16947 0.0
H830 H 0.37682 0.36084 0.11532 0.0
C831 C 0.32474 0.40305 0.12416 0.0
C832 C 0.34777 0.37238 0.15684 0.0
C833 C 0.31555 0.41936 0.12291 0.0
C834 C 0.41534 0.33531 0.1591 0.0
C835 C 0.39915 0.34465 0.15909 0.0
C836 C 0.36855 0.36365 0.12692 0.0
C837 C 0.33376 0.39829 0.1401 0.0
C838 C 0.34555 0.38217 0.14079 0.0
C839 C 0.38679 0.34222 0.14504 0.0
C840 C 0.37141 0.35461 0.14323 0.0
H841 H 0.32298 0.43485 0.16543 0.0
H842 H 0.33955 0.40689 0.16743 0.0
H843 H 0.35481 0.38471 0.11324 0.0
H844 H 0.40916 0.31055 0.12096 0.0
H845 H 0.38097 0.32714 0.12081 0.0
C846 C 0.4235 0.66167 0.81725 0.0
C847 C 0.42649 0.66896 0.83439 0.0
C848 C 0.40965 0.64938 0.81443 0.0
C849 C 0.37211 0.62483 0.83745 0.0
H850 H 0.392 0.58442 0.81136 0.0
C851 C 0.37213 0.54346 0.84133 0.0
C852 C 0.35386 0.53933 0.84283 0.0
C853 C 0.37765 0.56078 0.83692 0.0
C854 C 0.3862 0.59559 0.81865 0.0
H855 H 0.41648 0.67044 0.86164 0.0
H856 H 0.39286 0.64845 0.85704 0.0
H857 H 0.40652 0.61341 0.80962 0.0
H858 H 0.32702 0.55021 0.8407 0.0
H859 H 0.33678 0.58068 0.83295 0.0
H860 H 0.35256 0.60633 0.84754 0.0
C861 C 0.40081 0.65243 0.84557 0.0
C862 C 0.39437 0.61238 0.81743 0.0
C863 C 0.41443 0.66504 0.84827 0.0
C864 C 0.3412 0.55296 0.83966 0.0
C865 C 0.34678 0.57041 0.83528 0.0
C866 C 0.36399 0.60791 0.83877 0.0
C867 C 0.39884 0.64376 0.82883 0.0
C868 C 0.38783 0.62711 0.82731 0.0
C869 C 0.36508 0.57447 0.83385 0.0
C870 C 0.3714 0.59298 0.82993 0.0
H871 H 0.43252 0.66467 0.80627 0.0
H872 H 0.40816 0.64345 0.80121 0.0
H873 H 0.3665 0.63593 0.84497 0.0
H874 H 0.38226 0.53335 0.84371 0.0
H875 H 0.39186 0.56353 0.83632 0.0
C876 C 0.43709 0.34174 0.83648 0.0
C877 C 0.44161 0.33256 0.85232 0.0
C878 C 0.42077 0.35069 0.83503 0.0
C879 C 0.38623 0.37112 0.86385 0.0
H880 H 0.36352 0.38027 0.81783 0.0
C881 C 0.32888 0.42191 0.85679 0.0
C882 C 0.33321 0.4357 0.84464 0.0
C883 C 0.33849 0.40582 0.85672 0.0
C884 C 0.36964 0.37768 0.83078 0.0
H885 H 0.43221 0.32464 0.87869 0.0
H886 H 0.4034 0.33976 0.87596 0.0
H887 H 0.38704 0.35761 0.82001 0.0
H888 H 0.35001 0.44301 0.82209 0.0
H889 H 0.36659 0.41477 0.8218 0.0
H890 H 0.36893 0.39134 0.87453 0.0
C891 C 0.41268 0.34053 0.86483 0.0
C892 C 0.38319 0.36482 0.83204 0.0
C893 C 0.42914 0.33179 0.86638 0.0
C894 C 0.34647 0.43264 0.83166 0.0
C895 C 0.35587 0.41645 0.83142 0.0
C896 C 0.37251 0.38376 0.86263 0.0
C897 C 0.40845 0.35047 0.84929 0.0
C898 C 0.39209 0.36182 0.84847 0.0
C899 C 0.35234 0.40313 0.8443 0.0
C900 C 0.36449 0.38755 0.84599 0.0
H901 H 0.44645 0.34261 0.82542 0.0
H902 H 0.41821 0.35843 0.82297 0.0
H903 H 0.39288 0.36943 0.87668 0.0
H904 H 0.3187 0.42389 0.86693 0.0
H905 H 0.33549 0.39569 0.86674 0.0
C906 C 0.62108 0.45106 0.83235 0.0
C907 C 0.63587 0.4561 0.84285 0.0
C908 C 0.61561 0.43317 0.83163 0.0
C909 C 0.61266 0.39488 0.86033 0.0
H910 H 0.59354 0.37192 0.81758 0.0
C911 C 0.56281 0.33577 0.86513 0.0
C912 C 0.54761 0.33801 0.85422 0.0
C913 C 0.57805 0.34636 0.86237 0.0
C914 C 0.59885 0.37811 0.82965 0.0
H915 H 0.65704 0.44638 0.86024 0.0
H916 H 0.64702 0.41492 0.85944 0.0
H917 H 0.6132 0.39796 0.81461 0.0
H918 H 0.53664 0.35264 0.83153 0.0
H919 H 0.56288 0.37121 0.82695 0.0
H920 H 0.59729 0.37596 0.87544 0.0
C921 C 0.63988 0.42486 0.85159 0.0
C922 C 0.61018 0.39292 0.82793 0.0
C923 C 0.64561 0.44279 0.852 0.0
C924 C 0.54813 0.3506 0.84019 0.0
C925 C 0.56329 0.36113 0.83744 0.0
C926 C 0.60117 0.38015 0.86207 0.0
C927 C 0.62462 0.41999 0.84165 0.0
C928 C 0.61658 0.40188 0.84326 0.0
C929 C 0.57836 0.35932 0.84861 0.0
C930 C 0.59352 0.37211 0.84675 0.0
H931 H 0.6134 0.46105 0.8251 0.0
H932 H 0.60367 0.42983 0.82403 0.0
H933 H 0.6173 0.40164 0.87237 0.0
H934 H 0.56282 0.32609 0.87599 0.0
H935 H 0.58949 0.34455 0.87113 0.0
C936 C 0.64842 0.57466 0.84211 0.0
C937 C 0.64876 0.55905 0.83146 0.0
C938 C 0.6361 0.58833 0.83843 0.0
C939 C 0.59132 0.59097 0.81978 0.0
H940 H 0.59567 0.64234 0.82744 0.0
C941 C 0.5289 0.63402 0.81745 0.0
C942 C 0.52692 0.64658 0.83136 0.0
C943 C 0.54556 0.62653 0.81379 0.0
C944 C 0.59426 0.62801 0.82532 0.0
H945 H 0.63801 0.54635 0.80752 0.0
H946 H 0.61682 0.5703 0.80091 0.0
H947 H 0.62257 0.6235 0.8274 0.0
H948 H 0.54086 0.66202 0.85171 0.0
H949 H 0.57001 0.64826 0.84595 0.0
H950 H 0.56321 0.595 0.8186 0.0
C951 C 0.62567 0.57179 0.81238 0.0
C952 C 0.60964 0.61726 0.82524 0.0
C953 C 0.63783 0.55811 0.81613 0.0
C954 C 0.5421 0.65234 0.8409 0.0
C955 C 0.55879 0.64451 0.83752 0.0
C956 C 0.57605 0.60161 0.81999 0.0
C957 C 0.62405 0.5866 0.82399 0.0
C958 C 0.60828 0.5986 0.82255 0.0
C959 C 0.56056 0.63103 0.82433 0.0
C960 C 0.57724 0.62025 0.82285 0.0
H961 H 0.65675 0.57576 0.85399 0.0
H962 H 0.63515 0.59957 0.84764 0.0
H963 H 0.58973 0.57658 0.81817 0.0
H964 H 0.51742 0.62959 0.8097 0.0
H965 H 0.54652 0.61665 0.80314 0.0
C966 C 0.65333 0.5606 0.1148 0.0
C967 C 0.65315 0.54976 0.13024 0.0
C968 C 0.64543 0.57762 0.11504 0.0
C969 C 0.62421 0.61156 0.14564 0.0
H970 H 0.59416 0.62041 0.10406 0.0
C971 C 0.55515 0.6444 0.14745 0.0
C972 C 0.54982 0.65549 0.13316 0.0
C973 C 0.57212 0.63664 0.14755 0.0
C974 C 0.60277 0.61842 0.11561 0.0
H975 H 0.64524 0.54849 0.15823 0.0
H976 H 0.63087 0.57769 0.15849 0.0
H977 H 0.61624 0.59658 0.10298 0.0
H978 H 0.5584 0.66816 0.10838 0.0
H979 H 0.58802 0.65418 0.10837 0.0
H980 H 0.60954 0.63261 0.15866 0.0
C981 C 0.63749 0.57342 0.14629 0.0
C982 C 0.6155 0.60474 0.11501 0.0
C983 C 0.6456 0.55654 0.14611 0.0
C984 C 0.56216 0.65964 0.11956 0.0
C985 C 0.57907 0.65163 0.11952 0.0
C986 C 0.61127 0.62509 0.14632 0.0
C987 C 0.63695 0.58404 0.13065 0.0
C988 C 0.62596 0.60071 0.13023 0.0
C989 C 0.58398 0.63964 0.13325 0.0
C990 C 0.60007 0.62824 0.13149 0.0
H991 H 0.65925 0.55579 0.10243 0.0
H992 H 0.64559 0.58556 0.10284 0.0
H993 H 0.63234 0.60916 0.15746 0.0
H994 H 0.54592 0.64108 0.15814 0.0
H995 H 0.5755 0.62733 0.15822 0.0
C996 C 0.3309 0.54613 0.12402 0.0
C997 C 0.32568 0.53474 0.13809 0.0
C998 C 0.34409 0.55916 0.1268 0.0
C999 C 0.38257 0.56773 0.1566 0.0
H1000 H 0.38591 0.61149 0.12854 0.0
C1001 C 0.43579 0.6292 0.14016 0.0
C1002 C 0.45119 0.6186 0.13785 0.0
C1003 C 0.4192 0.62113 0.14344 0.0
C1004 C 0.38508 0.5995 0.13674 0.0
H1005 H 0.3292 0.52882 0.16641 0.0
H1006 H 0.3518 0.55193 0.17143 0.0
H1007 H 0.35809 0.5944 0.12858 0.0
H1008 H 0.46125 0.59124 0.13768 0.0
H1009 H 0.4325 0.57727 0.14304 0.0
H1010 H 0.40949 0.57282 0.16481 0.0
C1011 C 0.34615 0.55047 0.15809 0.0
C1012 C 0.3692 0.58956 0.13657 0.0
C1013 C 0.33313 0.53728 0.15525 0.0
C1014 C 0.4497 0.59984 0.13939 0.0
C1015 C 0.43319 0.59181 0.14263 0.0
C1016 C 0.39835 0.57772 0.15688 0.0
C1017 C 0.35218 0.56122 0.14378 0.0
C1018 C 0.36794 0.57326 0.14606 0.0
C1019 C 0.41769 0.60231 0.14451 0.0
C1020 C 0.40002 0.5934 0.14649 0.0
H1021 H 0.32539 0.54445 0.11064 0.0
H1022 H 0.34852 0.567 0.11539 0.0
H1023 H 0.38221 0.5552 0.16397 0.0
H1024 H 0.43649 0.64371 0.13912 0.0
H1025 H 0.40754 0.6296 0.14499 0.0
C1026 C 0.62796 0.44646 0.1533 0.0
C1027 C 0.63939 0.44471 0.13844 0.0
C1028 C 0.6154 0.43318 0.15715 0.0
C1029 C 0.60117 0.38654 0.14837 0.0
H1030 H 0.55375 0.40675 0.15399 0.0
C1031 C 0.53539 0.34553 0.14113 0.0
C1032 C 0.52028 0.35173 0.15041 0.0
C1033 C 0.55167 0.35476 0.14254 0.0
C1034 C 0.5669 0.40078 0.1529 0.0
H1035 H 0.64734 0.42719 0.11658 0.0
H1036 H 0.62513 0.4039 0.12328 0.0
H1037 H 0.57921 0.4266 0.1511 0.0
H1038 H 0.51062 0.37112 0.16979 0.0
H1039 H 0.53912 0.38659 0.17306 0.0
H1040 H 0.58869 0.36062 0.15008 0.0
C1041 C 0.62602 0.41557 0.13196 0.0
C1042 C 0.58152 0.41222 0.15114 0.0
C1043 C 0.63864 0.42893 0.12807 0.0
C1044 C 0.52204 0.36627 0.16229 0.0
C1045 C 0.53834 0.3752 0.16402 0.0
C1046 C 0.58647 0.375 0.15032 0.0
C1047 C 0.61396 0.41784 0.14624 0.0
C1048 C 0.59879 0.40527 0.1488 0.0
C1049 C 0.55312 0.37014 0.15349 0.0
C1050 C 0.56913 0.38201 0.15256 0.0
H1051 H 0.62835 0.45836 0.1617 0.0
H1052 H 0.60646 0.43514 0.16842 0.0
H1053 H 0.61438 0.38085 0.14662 0.0
H1054 H 0.53431 0.33436 0.13183 0.0
H1055 H 0.56272 0.35049 0.13419 0.0
C1056 C 0.05732 0.31902 0.48514 0.0
C1057 C 0.06345 0.302 0.49051 0.0
C1058 C 0.03903 0.32217 0.48284 0.0
C1059 C -0.00393 0.29842 0.47585 0.0
H1060 H 0.9751 0.34234 0.49433 0.0
C1061 C 0.9204 0.30656 0.48633 0.0
C1062 C 0.91257 0.32292 0.48114 0.0
C1063 C 0.93895 0.30455 0.48635 0.0
C1064 C 0.9808 0.33012 0.4889 0.0
H1065 H 0.05527 0.27496 0.49773 0.0
H1066 H 0.02346 0.28052 0.49397 0.0
H1067 H 0.00739 0.3379 0.4963 0.0
H1068 H 0.91813 0.35004 0.47192 0.0
H1069 H 0.95056 0.34649 0.47199 0.0
H1070 H 0.96947 0.2905 0.46874 0.0
C1071 C 0.03273 0.29136 0.49123 0.0
C1072 C -0.00071 0.32758 0.49001 0.0
C1073 C 0.05097 0.28821 0.49351 0.0
C1074 C 0.92372 0.33725 0.476 0.0
C1075 C 0.9423 0.33526 0.47612 0.0
C1076 C 0.97761 0.30093 0.47481 0.0
C1077 C 0.02654 0.30835 0.48585 0.0
C1078 C 0.00709 0.3116 0.48369 0.0
C1079 C 0.95009 0.31888 0.48126 0.0
C1080 C 0.96977 0.3167 0.48151 0.0
H1081 H 0.06664 0.32989 0.48269 0.0
H1082 H 0.03468 0.33536 0.47852 0.0
H1083 H 0.00171 0.28611 0.47054 0.0
H1084 H 0.91222 0.29525 0.49039 0.0
H1085 H 0.94459 0.29184 0.49061 0.0
C1086 C 0.67035 0.05873 0.48919 0.0
C1087 C 0.65476 0.06916 0.4907 0.0
C1088 C 0.66929 0.04 0.48867 0.0
C1089 C 0.63956 0.0026 0.47773 0.0
H1090 H 0.67048 0.97513 0.50932 0.0
C1091 C 0.63387 0.92543 0.48348 0.0
C1092 C 0.64993 0.91574 0.48486 0.0
C1093 C 0.63387 0.94416 0.4849 0.0
C1094 C 0.66191 0.98257 0.50024 0.0
H1095 H 0.62581 0.06811 0.4924 0.0
H1096 H 0.62399 0.03535 0.49121 0.0
H1097 H 0.67186 0.00786 0.50973 0.0
H1098 H 0.6786 0.91812 0.48879 0.0
H1099 H 0.67868 0.9507 0.49076 0.0
H1100 H 0.62992 0.97739 0.46784 0.0
C1101 C 0.637 0.04173 0.49054 0.0
C1102 C 0.66268 0.00131 0.50053 0.0
C1103 C 0.63807 0.06046 0.49129 0.0
C1104 C 0.66597 0.92516 0.4878 0.0
C1105 C 0.666 0.94387 0.48903 0.0
C1106 C 0.63893 0.98384 0.47727 0.0
C1107 C 0.65262 0.03134 0.48941 0.0
C1108 C 0.65157 0.01149 0.48923 0.0
C1109 C 0.64997 0.95362 0.48756 0.0
C1110 C 0.65016 0.97358 0.48847 0.0
H1111 H 0.68342 0.06501 0.48874 0.0
H1112 H 0.68152 0.03228 0.48762 0.0
H1113 H 0.63096 0.01016 0.46877 0.0
H1114 H 0.62127 0.91855 0.48133 0.0
H1115 H 0.62124 0.95121 0.484 0.0
C1116 C 0.91675 0.67806 0.49721 0.0
C1117 C 0.90847 0.66244 0.50383 0.0
C1118 C 0.93521 0.67862 0.49467 0.0
C1119 C 0.97719 0.65751 0.50915 0.0
H1120 H -0.00373 0.68175 0.4672 0.0
C1121 C 0.0531 0.66279 0.49552 0.0
C1122 C 0.0592 0.67999 0.49068 0.0
C1123 C 0.0348 0.65897 0.49583 0.0
C1124 C -0.00886 0.67501 0.47902 0.0
H1125 H 0.91315 0.63516 0.513 0.0
H1126 H 0.94548 0.63616 0.50848 0.0
H1127 H 0.96403 0.67808 0.47035 0.0
H1128 H 0.05096 0.70656 0.48203 0.0
H1129 H 0.01908 0.69993 0.48263 0.0
H1130 H 0.00432 0.65469 0.51793 0.0
C1131 C 0.93763 0.648 0.50539 0.0
C1132 C 0.97269 0.67292 0.48083 0.0
C1133 C 0.91911 0.64741 0.50793 0.0
C1134 C 0.04668 0.69318 0.4858 0.0
C1135 C 0.02841 0.68934 0.48603 0.0
C1136 C -0.00433 0.65958 0.50731 0.0
C1137 C 0.94585 0.66359 0.49867 0.0
C1138 C 0.96549 0.66445 0.49607 0.0
C1139 C 0.02227 0.67225 0.4912 0.0
C1140 C 0.00281 0.66863 0.49238 0.0
H1141 H 0.90899 0.68991 0.49397 0.0
H1142 H 0.94117 0.69095 0.48978 0.0
H1143 H 0.97205 0.65107 0.52112 0.0
H1144 H 0.06245 0.65234 0.49933 0.0
H1145 H 0.03046 0.64564 0.4997 0.0
C1146 C 0.34904 0.05835 0.47558 0.0
C1147 C 0.33235 0.06704 0.47566 0.0
C1148 C 0.35012 0.03976 0.47802 0.0
C1149 C 0.32395 -0.00188 0.47455 0.0
H1150 H 0.35653 0.97971 0.51074 0.0
C1151 C 0.31798 0.92595 0.50058 0.0
C1152 C 0.33377 0.91623 0.50368 0.0
C1153 C 0.31862 0.94433 0.497 0.0
C1154 C 0.34755 0.98459 0.50041 0.0
H1155 H 0.30369 0.06297 0.47788 0.0
H1156 H 0.3056 0.03055 0.48194 0.0
H1157 H 0.35646 0.01178 0.50375 0.0
H1158 H 0.36264 0.91824 0.50578 0.0
H1159 H 0.3638 0.95035 0.4992 0.0
H1160 H 0.31506 0.97105 0.47106 0.0
C1161 C 0.31783 0.03812 0.48001 0.0
C1162 C 0.34751 0.00294 0.49642 0.0
C1163 C 0.31676 0.0567 0.47778 0.0
C1164 C 0.35023 0.92538 0.50352 0.0
C1165 C 0.35088 0.94379 0.49979 0.0
C1166 C 0.32408 0.97979 0.47842 0.0
C1167 C 0.33452 0.02949 0.48035 0.0
C1168 C 0.33553 0.0099 0.48363 0.0
C1169 C 0.33509 0.95343 0.49627 0.0
C1170 C 0.33568 0.97283 0.4916 0.0
H1171 H 0.3613 0.06595 0.47402 0.0
H1172 H 0.36314 0.03339 0.4781 0.0
H1173 H 0.31477 0.00311 0.46444 0.0
H1174 H 0.30506 0.91935 0.50078 0.0
H1175 H 0.30617 0.95142 0.49479 0.0
C1176 C 0.49114 0.9298 0.295 0.0
C1177 C 0.4948 0.91784 0.30912 0.0
C1178 C 0.49284 0.94831 0.29755 0.0
C1179 C 0.4939 0.98331 0.33262 0.0
H1180 H 0.51462 0.0121 0.29453 0.0
C1181 C 0.50791 0.05983 0.33947 0.0
C1182 C 0.50317 0.07041 0.32454 0.0
C1183 C 0.50744 0.04106 0.33836 0.0
C1184 C 0.50868 0.00426 0.30523 0.0
H1185 H 0.5031 0.91587 0.33701 0.0
H1186 H 0.50622 0.94825 0.34142 0.0
H1187 H 0.51292 0.97959 0.29114 0.0
H1188 H 0.49397 0.06952 0.29684 0.0
H1189 H 0.49307 0.03694 0.295 0.0
H1190 H 0.48961 0.0081 0.34666 0.0
C1191 C 0.50185 0.9433 0.32843 0.0
C1192 C 0.5077 0.98564 0.30329 0.0
C1193 C 0.50015 0.92476 0.32587 0.0
C1194 C 0.49779 0.06182 0.30858 0.0
C1195 C 0.49738 0.04312 0.30747 0.0
C1196 C 0.49492 0.00198 0.33458 0.0
C1197 C 0.49826 0.95527 0.31428 0.0
C1198 C 0.50009 0.97497 0.31684 0.0
C1199 C 0.5023 0.03253 0.32229 0.0
C1200 C 0.50211 0.01266 0.32079 0.0
H1201 H 0.48691 0.92489 0.28195 0.0
H1202 H 0.48969 0.95719 0.28646 0.0
H1203 H 0.48782 0.97547 0.34324 0.0
H1204 H 0.5121 0.06602 0.35197 0.0
H1205 H 0.5114 0.03323 0.34997 0.0
C1206 C 0.93029 0.49389 0.30855 0.0
C1207 C 0.9179 0.48995 0.32215 0.0
C1208 C 0.9486 0.49226 0.31177 0.0
C1209 C 0.98213 0.49079 0.34812 0.0
H1210 H 0.01223 0.47093 0.31067 0.0
C1211 C 0.05787 0.47653 0.35763 0.0
C1212 C 0.06899 0.48171 0.34332 0.0
C1213 C 0.03926 0.47709 0.35577 0.0
C1214 C 0.00401 0.47663 0.32121 0.0
H1215 H 0.91495 0.4812 0.34979 0.0
H1216 H 0.947 0.47816 0.35536 0.0
H1217 H 0.98002 0.47249 0.3061 0.0
H1218 H 0.06925 0.49178 0.31592 0.0
H1219 H 0.03692 0.49281 0.31276 0.0
H1220 H 0.00624 0.49494 0.3632 0.0
C1221 C 0.94254 0.48272 0.34228 0.0
C1222 C 0.98557 0.47754 0.31858 0.0
C1223 C 0.92419 0.48437 0.33906 0.0
C1224 C 0.06111 0.48763 0.3272 0.0
C1225 C 0.04257 0.48811 0.32533 0.0
C1226 C 0.00062 0.48984 0.35077 0.0
C1227 C 0.95494 0.4866 0.32865 0.0
C1228 C 0.97443 0.48483 0.33191 0.0
C1229 C 0.03144 0.48274 0.33953 0.0
C1230 C 0.01176 0.48295 0.33723 0.0
H1231 H 0.92587 0.49831 0.2954 0.0
H1232 H 0.95781 0.49564 0.30108 0.0
H1233 H 0.97392 0.49664 0.35858 0.0
H1234 H 0.06351 0.47191 0.37022 0.0
H1235 H 0.031 0.47277 0.3669 0.0
C1236 C 0.5022 0.91753 0.63847 0.0
C1237 C 0.49854 0.90837 0.65458 0.0
C1238 C 0.50027 0.93622 0.63749 0.0
C1239 C 0.4783 0.97434 0.66049 0.0
H1240 H 0.5158 0.00319 0.63901 0.0
C1241 C 0.48752 0.04898 0.67697 0.0
C1242 C 0.49143 0.06084 0.66284 0.0
C1243 C 0.48728 0.03047 0.67405 0.0
C1244 C 0.5051 -0.0047 0.64482 0.0
H1245 H 0.49 0.91171 0.68228 0.0
H1246 H 0.48686 0.94408 0.68059 0.0
H1247 H 0.51731 0.97043 0.63713 0.0
H1248 H 0.49822 0.06262 0.63456 0.0
H1249 H 0.4979 0.03013 0.62948 0.0
H1250 H 0.46633 -0.00085 0.66858 0.0
C1251 C 0.49094 0.93686 0.66863 0.0
C1252 C 0.50594 0.97656 0.64372 0.0
C1253 C 0.49289 0.91828 0.66963 0.0
C1254 C 0.49515 0.0538 0.64571 0.0
C1255 C 0.49504 0.03523 0.64281 0.0
C1256 C 0.47749 -0.00697 0.66162 0.0
C1257 C 0.49457 0.94605 0.65257 0.0
C1258 C 0.49275 0.96589 0.65191 0.0
C1259 C 0.49104 0.02339 0.65695 0.0
C1260 C 0.49107 0.00368 0.65414 0.0
H1261 H 0.50656 0.91029 0.62664 0.0
H1262 H 0.50308 0.94294 0.6249 0.0
H1263 H 0.46773 0.96649 0.66659 0.0
H1264 H 0.48461 0.05399 0.69033 0.0
H1265 H 0.48442 0.02166 0.68527 0.0
C1266 C 0.91893 0.49172 0.6817 0.0
C1267 C 0.91191 0.4808 0.66794 0.0
C1268 C 0.93737 0.49402 0.68352 0.0
C1269 C 0.9809 0.47456 0.67191 0.0
H1270 H -0.00207 0.52382 0.67388 0.0
C1271 C 0.04916 0.51479 0.65484 0.0
C1272 C 0.06182 0.50499 0.66479 0.0
C1273 C 0.0309 0.51215 0.65766 0.0
C1274 C -0.00666 0.51 0.67342 0.0
H1275 H 0.91878 0.46319 0.64574 0.0
H1276 H 0.95104 0.46712 0.64906 0.0
H1277 H 0.9658 0.51775 0.67436 0.0
H1278 H 0.06529 0.485 0.68574 0.0
H1279 H 0.03328 0.48024 0.69046 0.0
H1280 H 0.00846 0.46685 0.67063 0.0
C1281 C 0.94222 0.47389 0.65839 0.0
C1282 C 0.975 0.50653 0.67382 0.0
C1283 C 0.92376 0.47174 0.65644 0.0
C1284 C 0.05585 0.49278 0.67789 0.0
C1285 C 0.03757 0.48997 0.68053 0.0
C1286 C -0.00074 0.47803 0.67173 0.0
C1287 C 0.94917 0.48529 0.67176 0.0
C1288 C 0.96861 0.48879 0.67279 0.0
C1289 C 0.02495 0.49952 0.67032 0.0
C1290 C 0.00562 0.4958 0.67219 0.0
H1291 H 0.91018 0.49888 0.69081 0.0
H1292 H 0.94242 0.50277 0.69403 0.0
H1293 H 0.9763 0.46076 0.6712 0.0
H1294 H 0.05333 0.52433 0.64469 0.0
H1295 H 0.02144 0.51959 0.64951 0.0
C1296 C 0.33843 0.48515 0.92924 0.0
C1297 C 0.32445 0.48954 0.91736 0.0
C1298 C 0.33571 0.4854 0.9478 0.0
C1299 C 0.30014 0.48183 0.98149 0.0
H1300 H 0.33579 0.50149 0.01397 0.0
C1301 C 0.28673 0.4907 0.05712 0.0
C1302 C 0.30068 0.48658 0.0691 0.0
C1303 C 0.28981 0.49119 0.03864 0.0
C1304 C 0.32581 0.49575 0.00509 0.0
H1305 H 0.29672 0.49797 0.91571 0.0
H1306 H 0.29201 0.49845 0.94814 0.0
H1307 H 0.34083 0.50259 0.98159 0.0
H1308 H 0.32878 0.47966 0.07113 0.0
H1309 H 0.3341 0.48026 0.03877 0.0
H1310 H 0.28518 0.47484 0.00492 0.0
C1311 C 0.30502 0.49463 0.94304 0.0
C1312 C 0.32868 0.49642 0.98655 0.0
C1313 C 0.30776 0.49446 0.92447 0.0
C1314 C 0.31777 0.48291 0.06222 0.0
C1315 C 0.32084 0.48337 0.0437 0.0
C1316 C 0.2973 0.48111 1e-05 0.0
C1317 C 0.31893 0.48998 0.95489 0.0
C1318 C 0.31585 0.48949 0.97456 0.0
C1319 C 0.30689 0.48753 0.0317 0.0
C1320 C 0.31007 0.48809 0.01202 0.0
H1321 H 0.35147 0.48131 0.92423 0.0
H1322 H 0.34663 0.48158 0.95658 0.0
H1323 H 0.29016 0.47609 0.97259 0.0
H1324 H 0.27343 0.49368 0.06201 0.0
H1325 H 0.27883 0.4947 0.02979 0.0
C1326 C 0.49535 0.30176 0.93388 0.0
C1327 C 0.49218 0.31615 0.92211 0.0
C1328 C 0.49301 0.3039 0.95236 0.0
C1329 C 0.48988 0.33808 0.9882 0.0
H1330 H 0.46774 0.29903 0.01457 0.0
C1331 C 0.47015 0.34274 0.06353 0.0
C1332 C 0.47475 0.32777 0.07411 0.0
C1333 C 0.47197 0.34211 0.04483 0.0
C1334 C 0.47405 0.31 0.0074 0.0
H1335 H 0.48421 0.34413 0.92044 0.0
H1336 H 0.47989 0.3478 0.95275 0.0
H1337 H 0.47152 0.29649 0.98217 0.0
H1338 H 0.48504 0.30049 0.07332 0.0
H1339 H 0.48819 0.29945 0.04085 0.0
H1340 H 0.49233 0.35157 0.01357 0.0
C1341 C 0.48441 0.33493 0.94771 0.0
C1342 C 0.47626 0.30853 0.98886 0.0
C1343 C 0.48681 0.3328 0.9292 0.0
C1344 C 0.48131 0.31225 0.06561 0.0
C1345 C 0.48302 0.3116 0.04698 0.0
C1346 C 0.4876 0.33958 0.00679 0.0
C1347 C 0.48736 0.32045 0.95947 0.0
C1348 C 0.4844 0.32245 0.97907 0.0
C1349 C 0.47828 0.32646 0.03639 0.0
C1350 C 0.47986 0.32544 0.01658 0.0
H1351 H 0.4996 0.28879 0.92884 0.0
H1352 H 0.49572 0.29257 0.96109 0.0
H1353 H 0.49634 0.34897 0.98106 0.0
H1354 H 0.46508 0.35491 0.06967 0.0
H1355 H 0.46813 0.35373 0.03696 0.0
C1356 C 0.63707 0.51573 0.9234 0.0
C1357 C 0.65252 0.51246 0.91317 0.0
C1358 C 0.63756 0.51427 0.94215 0.0
C1359 C 0.66903 0.51403 0.98051 0.0
H1360 H 0.63119 0.48853 0.00537 0.0
C1361 C 0.67755 0.48987 0.05308 0.0
C1362 C 0.66331 0.49299 0.06494 0.0
C1363 C 0.67533 0.49244 0.03464 0.0
C1364 C 0.64175 0.49585 -0.00138 0.0
H1365 H 0.68061 0.5052 0.91464 0.0
H1366 H 0.68139 0.50253 0.94712 0.0
H1367 H 0.6289 0.49348 0.97296 0.0
H1368 H 0.63541 0.50073 0.06677 0.0
H1369 H 0.63153 0.50521 0.03446 0.0
H1370 H 0.68199 0.51622 0.00605 0.0
C1371 C 0.66895 0.50645 0.94074 0.0
C1372 C 0.64043 0.49872 0.98009 0.0
C1373 C 0.66847 0.50788 0.92208 0.0
C1374 C 0.64664 0.49821 0.05794 0.0
C1375 C 0.64439 0.50073 0.03946 0.0
C1376 C 0.67037 0.51113 -0.00103 0.0
C1377 C 0.65352 0.50958 0.95099 0.0
C1378 C 0.65418 0.50763 0.97082 0.0
C1379 C 0.65881 0.49814 0.02766 0.0
C1380 C 0.65687 0.5018 0.00818 0.0
H1381 H 0.62457 0.51929 0.91695 0.0
H1382 H 0.62549 0.51691 0.94972 0.0
H1383 H 0.67967 0.52126 0.9738 0.0
H1384 H 0.69055 0.48576 0.05804 0.0
H1385 H 0.68659 0.49003 0.02583 0.0
C1386 C 0.47926 0.67621 0.92021 0.0
C1387 C 0.47759 0.66074 0.90949 0.0
C1388 C 0.48062 0.67481 0.93885 0.0
C1389 C 0.47316 0.64329 0.97683 0.0
H1390 H 0.50403 0.67686 0.00209 0.0
C1391 C 0.49415 0.63576 0.05143 0.0
C1392 C 0.49237 0.65123 0.06215 0.0
C1393 C 0.49175 0.63671 0.03284 0.0
C1394 C 0.49526 0.6675 -0.0048 0.0
H1395 H 0.47608 0.63165 0.9099 0.0
H1396 H 0.47908 0.62912 0.94246 0.0
H1397 H 0.50144 0.67857 0.9695 0.0
H1398 H 0.48666 0.67982 0.06179 0.0
H1399 H 0.48281 0.6815 0.02919 0.0
H1400 H 0.46749 0.63193 0.00268 0.0
C1401 C 0.47888 0.64239 0.9365 0.0
C1402 C 0.4937 0.6685 0.97653 0.0
C1403 C 0.47727 0.64381 0.91782 0.0
C1404 C 0.4881 0.66766 0.05389 0.0
C1405 C 0.48597 0.66865 0.03526 0.0
C1406 C 0.47494 0.64214 -0.0045 0.0
C1407 C 0.48062 0.65788 0.94725 0.0
C1408 C 0.48253 0.65649 0.96711 0.0
C1409 C 0.48779 0.65319 0.02459 0.0
C1410 C 0.48592 0.65431 0.00484 0.0
H1411 H 0.47935 0.68947 0.91421 0.0
H1412 H 0.4815 0.68706 0.94667 0.0
H1413 H 0.46423 0.63401 0.97008 0.0
H1414 H 0.49736 0.62288 0.05741 0.0
H1415 H 0.49333 0.62462 0.02487 0.0
C1416 C 0.16638 0.23995 0.50886 0.0
C1417 C 0.14805 0.23969 0.50487 0.0
C1418 C 0.17575 0.22393 0.51096 0.0
C1419 C 0.1798 0.18026 0.49401 0.0
H1420 H 0.21062 0.17278 0.53533 0.0
C1421 C 0.24105 0.13356 0.49006 0.0
C1422 C 0.2567 0.14236 0.4958 0.0
C1423 C 0.22423 0.14051 0.49451 0.0
C1424 C 0.20199 0.17455 0.52375 0.0
H1425 H 0.12504 0.2226 0.49993 0.0
H1426 H 0.14183 0.19431 0.50285 0.0
H1427 H 0.18683 0.19518 0.53679 0.0
H1428 H 0.26706 0.1647 0.51146 0.0
H1429 H 0.23803 0.17685 0.51895 0.0
H1430 H 0.19597 0.16093 0.48033 0.0
C1431 C 0.14871 0.20699 0.50473 0.0
C1432 C 0.18835 0.18726 0.52465 0.0
C1433 C 0.13919 0.2231 0.50305 0.0
C1434 C 0.25525 0.15766 0.50673 0.0
C1435 C 0.23855 0.16451 0.51122 0.0
C1436 C 0.19364 0.16769 0.493 0.0
C1437 C 0.16704 0.20736 0.50877 0.0
C1438 C 0.17772 0.19077 0.50952 0.0
C1439 C 0.22284 0.15625 0.5049 0.0
C1440 C 0.20545 0.16542 0.50757 0.0
H1441 H 0.1735 0.25255 0.51041 0.0
H1442 H 0.18995 0.22448 0.51384 0.0
H1443 H 0.17177 0.18287 0.48215 0.0
H1444 H 0.24179 0.12168 0.48168 0.0
H1445 H 0.21235 0.13381 0.48951 0.0
C1446 C 0.73587 0.16133 0.47408 0.0
C1447 C 0.73236 0.14645 0.4851 0.0
C1448 C 0.75249 0.16979 0.47466 0.0
C1449 C 0.79129 0.18217 0.47494 0.0
H1450 H 0.80044 0.19985 0.52318 0.0
C1451 C 0.84074 0.23991 0.48818 0.0
C1452 C 0.83217 0.25445 0.49661 0.0
C1453 C 0.83294 0.22282 0.48832 0.0
C1454 C 0.79825 0.19479 0.50969 0.0
H1455 H 0.74369 0.12813 0.5047 0.0
H1456 H 0.77276 0.14337 0.5061 0.0
H1457 H 0.77876 0.17566 0.51852 0.0
H1458 H 0.80942 0.26232 0.51279 0.0
H1459 H 0.79592 0.23248 0.51322 0.0
H1460 H 0.81002 0.20198 0.466 0.0
C1461 C 0.76266 0.14828 0.49688 0.0
C1462 C 0.78597 0.18088 0.50703 0.0
C1463 C 0.74609 0.13957 0.49603 0.0
C1464 C 0.81627 0.25138 0.50611 0.0
C1465 C 0.80862 0.23427 0.50647 0.0
C1466 C 0.80373 0.19592 0.47762 0.0
C1467 C 0.76583 0.16372 0.4865 0.0
C1468 C 0.78184 0.17499 0.48956 0.0
C1469 C 0.81662 0.21996 0.49715 0.0
C1470 C 0.80675 0.20286 0.49494 0.0
H1471 H 0.72552 0.16685 0.46548 0.0
H1472 H 0.75451 0.18178 0.46666 0.0
H1473 H 0.78835 0.1778 0.46136 0.0
H1474 H 0.85304 0.24188 0.48076 0.0
H1475 H 0.83937 0.21198 0.48107 0.0
C1476 C 0.81451 0.73748 0.48249 0.0
C1477 C 0.82916 0.73471 0.49397 0.0
C1478 C 0.80654 0.75437 0.48129 0.0
C1479 C 0.79551 0.79349 0.47716 0.0
H1480 H 0.77834 0.80876 0.52391 0.0
C1481 C 0.7391 0.84557 0.48453 0.0
C1482 C 0.7245 0.83785 0.49355 0.0
C1483 C 0.75603 0.83765 0.48562 0.0
C1484 C 0.7833 0.80488 0.5108 0.0
H1485 H 0.84752 0.74756 0.51259 0.0
H1486 H 0.83319 0.77711 0.51085 0.0
H1487 H 0.80162 0.78583 0.52197 0.0
H1488 H 0.7163 0.81663 0.51171 0.0
H1489 H 0.74584 0.80303 0.51387 0.0
H1490 H 0.77643 0.81179 0.46598 0.0
C1491 C 0.82804 0.76621 0.50267 0.0
C1492 C 0.79668 0.79186 0.50968 0.0
C1493 C 0.83623 0.74934 0.50363 0.0
C1494 C 0.72731 0.82279 0.50454 0.0
C1495 C 0.74424 0.8151 0.5059 0.0
C1496 C 0.78229 0.80668 0.47829 0.0
C1497 C 0.81291 0.76876 0.49175 0.0
C1498 C 0.80231 0.78548 0.49284 0.0
C1499 C 0.75864 0.82215 0.49606 0.0
C1500 C 0.77552 0.81188 0.4951 0.0
H1501 H 0.80886 0.72646 0.47482 0.0
H1502 H 0.79476 0.75591 0.47293 0.0
H1503 H 0.79972 0.78885 0.46403 0.0
H1504 H 0.73728 0.85718 0.47595 0.0
H1505 H 0.76695 0.84329 0.47791 0.0
C1506 C 0.15672 0.74906 0.50815 0.0
C1507 C 0.14327 0.74599 0.49532 0.0
C1508 C 0.16688 0.76477 0.50763 0.0
C1509 C 0.18265 0.80225 0.50745 0.0
H1510 H 0.20476 0.81048 0.46106 0.0
C1511 C 0.24327 0.8492 0.50002 0.0
C1512 C 0.25782 0.84041 0.49197 0.0
C1513 C 0.22603 0.84204 0.49856 0.0
C1514 C 0.19853 0.8085 0.47405 0.0
H1515 H 0.12937 0.75726 0.47232 0.0
H1516 H 0.14739 0.78471 0.47127 0.0
H1517 H 0.17965 0.78963 0.46344 0.0
H1518 H 0.26564 0.81796 0.47514 0.0
H1519 H 0.23566 0.80551 0.47257 0.0
H1520 H 0.20223 0.82028 0.51824 0.0
C1521 C 0.15001 0.77493 0.48172 0.0
C1522 C 0.18408 0.79669 0.47539 0.0
C1523 C 0.1397 0.75925 0.48235 0.0
C1524 C 0.2547 0.82496 0.48158 0.0
C1525 C 0.23749 0.81793 0.47997 0.0
C1526 C 0.19704 0.81413 0.50609 0.0
C1527 C 0.16389 0.77768 0.49418 0.0
C1528 C 0.17648 0.79292 0.49223 0.0
C1529 C 0.22306 0.82612 0.48883 0.0
C1530 C 0.20557 0.81681 0.48949 0.0
H1531 H 0.15971 0.73912 0.51836 0.0
H1532 H 0.17765 0.7664 0.51726 0.0
H1533 H 0.17689 0.79973 0.52055 0.0
H1534 H 0.24529 0.86118 0.50807 0.0
H1535 H 0.21511 0.84866 0.50544 0.0
C1536 C 0.47854 0.16178 0.24795 0.0
C1537 C 0.49079 0.14792 0.25133 0.0
C1538 C 0.47744 0.16953 0.23094 0.0
C1539 C 0.50669 0.18141 0.1951 0.0
H1540 H 0.46309 0.19959 0.17344 0.0
C1541 C 0.48057 0.23967 0.14238 0.0
C1542 C 0.48823 0.25456 0.15116 0.0
C1543 C 0.48243 0.22242 0.1496 0.0
C1544 C 0.47541 0.19431 0.17901 0.0
H1545 H 0.51083 0.13058 0.23941 0.0
H1546 H 0.50925 0.1446 0.20965 0.0
H1547 H 0.46146 0.17542 0.1956 0.0
H1548 H 0.50482 0.26302 0.17354 0.0
H1549 H 0.5083 0.23293 0.18597 0.0
H1550 H 0.5205 0.20124 0.17953 0.0
C1551 C 0.5004 0.14927 0.22016 0.0
C1552 C 0.47446 0.18057 0.19175 0.0
C1553 C 0.50127 0.14128 0.23715 0.0
C1554 C 0.4987 0.25179 0.16658 0.0
C1555 C 0.50082 0.23455 0.17359 0.0
C1556 C 0.50762 0.19529 0.18253 0.0
C1557 C 0.48875 0.16374 0.21705 0.0
C1558 C 0.49002 0.17456 0.20045 0.0
C1559 C 0.49229 0.21979 0.16546 0.0
C1560 C 0.49191 0.20237 0.17497 0.0
H1561 H 0.47023 0.16708 0.25862 0.0
H1562 H 0.4685 0.18082 0.22897 0.0
H1563 H 0.51888 0.17708 0.20169 0.0
H1564 H 0.47243 0.24144 0.13046 0.0
H1565 H 0.47573 0.21123 0.14312 0.0
C1566 C 0.83783 0.49606 0.24335 0.0
C1567 C 0.82969 0.4969 0.26035 0.0
C1568 C 0.82741 0.49699 0.22773 0.0
C1569 C 0.78652 0.51544 0.21044 0.0
H1570 H 0.78093 0.47355 0.17986 0.0
C1571 C 0.72262 0.50306 0.17115 0.0
C1572 C 0.72318 0.49488 0.15417 0.0
C1573 C 0.73812 0.50489 0.18137 0.0
C1574 C 0.78264 0.48553 0.18795 0.0
H1575 H 0.80445 0.49953 0.27442 0.0
H1576 H 0.7864 0.50164 0.24717 0.0
H1577 H 0.80437 0.47398 0.20289 0.0
H1578 H 0.74044 0.48231 0.13443 0.0
H1579 H 0.76775 0.48566 0.15236 0.0
H1580 H 0.76472 0.52697 0.19592 0.0
C1581 C 0.80075 0.50009 0.24596 0.0
C1582 C 0.79601 0.48573 0.20112 0.0
C1583 C 0.81106 0.49879 0.2615 0.0
C1584 C 0.73962 0.48862 0.14753 0.0
C1585 C 0.75522 0.49051 0.15778 0.0
C1586 C 0.77336 0.51536 0.19717 0.0
C1587 C 0.80884 0.49921 0.229 0.0
C1588 C 0.79754 0.50041 0.21286 0.0
C1589 C 0.75461 0.49869 0.17482 0.0
C1590 C 0.77076 0.50009 0.18631 0.0
H1591 H 0.85218 0.49455 0.24214 0.0
H1592 H 0.83382 0.49622 0.21471 0.0
H1593 H 0.78764 0.52695 0.21931 0.0
H1594 H 0.71015 0.50795 0.17669 0.0
H1595 H 0.73706 0.51083 0.19462 0.0
C1596 C 0.47782 0.7319 0.14225 0.0
C1597 C 0.47675 0.71502 0.15065 0.0
C1598 C 0.47494 0.74765 0.15215 0.0
C1599 C 0.45771 0.76419 0.19615 0.0
H1600 H 0.49431 0.80083 0.1912 0.0
C1601 C 0.48219 0.80734 0.25449 0.0
C1602 C 0.48278 0.82605 0.25213 0.0
C1603 C 0.47868 0.79605 0.23996 0.0
C1604 C 0.48381 0.79087 0.1925 0.0
H1605 H 0.47107 0.70135 0.17575 0.0
H1606 H 0.46636 0.72857 0.19294 0.0
H1607 H 0.49226 0.77667 0.16898 0.0
H1608 H 0.48055 0.84764 0.23269 0.0
H1609 H 0.47498 0.82763 0.20697 0.0
H1610 H 0.4501 0.77775 0.22034 0.0
C1611 C 0.46915 0.7298 0.17871 0.0
C1612 C 0.48257 0.77708 0.17977 0.0
C1613 C 0.47202 0.71414 0.16887 0.0
C1614 C 0.48013 0.83325 0.23486 0.0
C1615 C 0.47695 0.82187 0.22019 0.0
C1616 C 0.45911 0.77781 0.20895 0.0
C1617 C 0.47088 0.74676 0.17058 0.0
C1618 C 0.46992 0.76321 0.18184 0.0
C1619 C 0.47598 0.8032 0.22272 0.0
C1620 C 0.47254 0.7909 0.20754 0.0
H1621 H 0.48139 0.73298 0.12819 0.0
H1622 H 0.47621 0.76051 0.14546 0.0
H1623 H 0.44753 0.75397 0.19789 0.0
H1624 H 0.48412 0.8014 0.26764 0.0
H1625 H 0.47822 0.78166 0.24216 0.0
C1626 C 0.16513 0.50436 0.27102 0.0
C1627 C 0.1486 0.49579 0.27353 0.0
C1628 C 0.17231 0.50611 0.25383 0.0
C1629 C 0.18184 0.51342 0.21483 0.0
H1630 H 0.18584 0.46744 0.19054 0.0
C1631 C 0.22784 0.5032 0.15354 0.0
C1632 C 0.2402 0.48928 0.15643 0.0
C1633 C 0.21277 0.5048 0.16451 0.0
C1634 C 0.18462 0.48042 0.19704 0.0
H1635 H 0.1262 0.48305 0.25997 0.0
H1636 H 0.13897 0.48584 0.22986 0.0
H1637 H 0.16606 0.4704 0.21644 0.0
H1638 H 0.24609 0.46562 0.17238 0.0
H1639 H 0.21975 0.46832 0.19138 0.0
H1640 H 0.20113 0.52318 0.19599 0.0
C1641 C 0.1463 0.49124 0.24123 0.0
C1642 C 0.17322 0.48216 0.21176 0.0
C1643 C 0.13901 0.48968 0.25844 0.0
C1644 C 0.23683 0.47653 0.16991 0.0
C1645 C 0.22168 0.47799 0.18068 0.0
C1646 C 0.19312 0.51173 0.2 0.0
C1647 C 0.16318 0.49917 0.23883 0.0
C1648 C 0.17225 0.49849 0.22119 0.0
C1649 C 0.2097 0.49233 0.17832 0.0
C1650 C 0.19512 0.49503 0.19142 0.0
H1651 H 0.17277 0.50928 0.2824 0.0
H1652 H 0.18544 0.5121 0.25239 0.0
H1653 H 0.1812 0.52619 0.22181 0.0
H1654 H 0.23012 0.5132 0.14322 0.0
H1655 H 0.2037 0.51595 0.16242 0.0
C1656 C 0.50463 0.745 0.82557 0.0
C1657 C 0.49296 0.74122 0.8398 0.0
C1658 C 0.5067 0.76256 0.81942 0.0
C1659 C 0.47925 0.80133 0.81327 0.0
H1660 H 0.52207 0.81893 0.7898 0.0
C1661 C 0.50333 0.84849 0.74961 0.0
C1662 C 0.4927 0.83988 0.73658 0.0
C1663 C 0.50281 0.84284 0.76754 0.0
C1664 C 0.51003 0.8146 0.79662 0.0
H1665 H 0.4752 0.75291 0.85962 0.0
H1666 H 0.4785 0.78373 0.8485 0.0
H1667 H 0.5246 0.79652 0.81357 0.0
H1668 H 0.47226 0.81966 0.73219 0.0
H1669 H 0.47124 0.80992 0.76333 0.0
H1670 H 0.46461 0.81841 0.79539 0.0
C1671 C 0.48612 0.77308 0.84222 0.0
C1672 C 0.51148 0.80168 0.81014 0.0
C1673 C 0.48424 0.75547 0.84855 0.0
C1674 C 0.4807 0.82643 0.74193 0.0
C1675 C 0.47998 0.82099 0.75983 0.0
C1676 C 0.4778 0.81419 0.7997 0.0
C1677 C 0.49698 0.77668 0.82726 0.0
C1678 C 0.49604 0.79415 0.8178 0.0
C1679 C 0.4914 0.82875 0.77271 0.0
C1680 C 0.49311 0.82011 0.79054 0.0
H1681 H 0.51164 0.73429 0.81868 0.0
H1682 H 0.51498 0.76484 0.80771 0.0
H1683 H 0.4671 0.79578 0.81891 0.0
H1684 H 0.51267 0.85894 0.74582 0.0
H1685 H 0.51175 0.84901 0.77722 0.0
C1686 C 0.24852 0.48846 0.83041 0.0
C1687 C 0.264 0.49805 0.82567 0.0
C1688 C 0.2338 0.48798 0.81876 0.0
C1689 C 0.22426 0.49328 0.77045 0.0
H1690 H 0.17457 0.4911 0.78501 0.0
C1691 C 0.15116 0.49986 0.73491 0.0
C1692 C 0.15493 0.49052 0.71894 0.0
C1693 C 0.16307 0.4992 0.74941 0.0
C1694 C 0.18839 0.49177 0.78074 0.0
H1695 H 0.27575 0.51581 0.80587 0.0
H1696 H 0.24995 0.51554 0.78592 0.0
H1697 H 0.1979 0.49524 0.80774 0.0
H1698 H 0.17326 0.47199 0.70612 0.0
H1699 H 0.19367 0.47029 0.73159 0.0
H1700 H 0.21495 0.49053 0.74351 0.0
C1701 C 0.24934 0.50782 0.79825 0.0
C1702 C 0.20176 0.49399 0.79377 0.0
C1703 C 0.26408 0.5081 0.80973 0.0
C1704 C 0.17015 0.47954 0.71817 0.0
C1705 C 0.1819 0.47867 0.73273 0.0
C1706 C 0.21097 0.49119 0.75749 0.0
C1707 C 0.23429 0.49723 0.80229 0.0
C1708 C 0.21985 0.49491 0.78873 0.0
C1709 C 0.17886 0.48902 0.74826 0.0
C1710 C 0.19286 0.49041 0.76242 0.0
H1711 H 0.24812 0.48057 0.84263 0.0
H1712 H 0.22244 0.47966 0.82227 0.0
H1713 H 0.23807 0.49354 0.76609 0.0
H1714 H 0.13951 0.50844 0.73586 0.0
H1715 H 0.16034 0.50742 0.7611 0.0
C1716 C 0.48778 0.14817 0.73759 0.0
C1717 C 0.49813 0.15114 0.72214 0.0
C1718 C 0.48876 0.16009 0.75209 0.0
C1719 C 0.49838 0.18435 0.78389 0.0
H1720 H 0.4993 0.2345 0.76972 0.0
C1721 C 0.50525 0.24399 0.83402 0.0
C1722 C 0.49513 0.2594 0.8301 0.0
C1723 C 0.50562 0.22958 0.82195 0.0
C1724 C 0.4989 0.22057 0.77391 0.0
H1725 H 0.51849 0.1681 0.71019 0.0
H1726 H 0.5205 0.18861 0.73557 0.0
H1727 H 0.50069 0.21132 0.74686 0.0
H1728 H 0.47672 0.27147 0.81103 0.0
H1729 H 0.47713 0.2463 0.79021 0.0
H1730 H 0.49604 0.19383 0.81102 0.0
C1731 C 0.51125 0.17742 0.73633 0.0
C1732 C 0.49997 0.20726 0.76082 0.0
C1733 C 0.51015 0.16563 0.72181 0.0
C1734 C 0.48484 0.25986 0.81431 0.0
C1735 C 0.48514 0.24548 0.80234 0.0
C1736 C 0.49727 0.19774 0.79706 0.0
C1737 C 0.5002 0.17508 0.7514 0.0
C1738 C 0.4997 0.18901 0.76563 0.0
C1739 C 0.49583 0.23037 0.80582 0.0
C1740 C 0.49737 0.21598 0.79215 0.0
H1741 H 0.47843 0.13705 0.73819 0.0
H1742 H 0.48001 0.15799 0.76348 0.0
H1743 H 0.49825 0.17039 0.788 0.0
H1744 H 0.51329 0.24327 0.84613 0.0
H1745 H 0.51405 0.21813 0.82493 0.0
C1746 C 0.73988 0.51216 0.84226 0.0
C1747 C 0.72606 0.50095 0.836 0.0
C1748 C 0.75682 0.51144 0.83438 0.0
C1749 C 0.7823 0.51703 0.80265 0.0
H1750 H 0.80447 0.47295 0.78605 0.0
C1751 C 0.81409 0.50862 0.7337 0.0
C1752 C 0.8293 0.49778 0.73173 0.0
C1753 C 0.80619 0.51076 0.75052 0.0
C1754 C 0.79873 0.48542 0.79087 0.0
H1755 H 0.71938 0.47935 0.81759 0.0
H1756 H 0.74892 0.47795 0.804 0.0
H1757 H 0.78186 0.47173 0.80965 0.0
H1758 H 0.84869 0.48134 0.74589 0.0
H1759 H 0.83456 0.48481 0.77532 0.0
H1760 H 0.79834 0.53059 0.78306 0.0
C1761 C 0.74672 0.48732 0.81493 0.0
C1762 C 0.78573 0.48469 0.80428 0.0
C1763 C 0.72976 0.48823 0.82258 0.0
C1764 C 0.83693 0.48973 0.74702 0.0
C1765 C 0.82887 0.49169 0.76384 0.0
C1766 C 0.79518 0.51774 0.78913 0.0
C1767 C 0.76025 0.49926 0.82037 0.0
C1768 C 0.77688 0.5004 0.80974 0.0
C1769 C 0.81323 0.50196 0.76566 0.0
C1770 C 0.80296 0.50185 0.78261 0.0
H1771 H 0.73737 0.52208 0.85262 0.0
H1772 H 0.76706 0.52077 0.83881 0.0
H1773 H 0.77562 0.52934 0.80655 0.0
H1774 H 0.80799 0.51506 0.72216 0.0
H1775 H 0.794 0.51857 0.75149 0.0
loop_
_geom_bond_atom_site_label_1
_geom_bond_atom_site_label_2
_geom_bond_distance
_geom_bond_site_symmetry_2
_ccdc_geom_bond_type
C0 O1 1.306 . S
C0 O3 1.160 . S
O1 C0 1.306 . S
O1 Cd2 2.228 . S
Cd2 O1 2.228 . S
Cd2 O6 2.273 . S
Cd2 O10 2.277 . S
O3 C0 1.160 . S
O3 Cd4 2.203 . S
Cd4 O3 2.203 . S
Cd4 O6 2.411 . S
Cd4 O7 2.333 . S
Cd4 O8 2.352 . S
Cd4 O12 2.277 . S
Cd4 O13 2.356 . S
C5 O10 1.209 . S
C5 O12 1.226 . S
O6 Cd2 2.273 . S
O6 Cd4 2.411 . S
O6 C9 1.320 . S
O7 Cd4 2.333 . S
O7 C9 1.214 . S
O8 Cd4 2.352 . S
O8 C11 1.258 . S
C9 O6 1.320 . S
C9 O7 1.214 . S
O10 Cd2 2.277 . S
O10 C5 1.209 . S
C11 O8 1.258 . S
C11 O13 1.282 . S
O12 Cd4 2.277 . S
O12 C5 1.226 . S
O13 Cd4 2.356 . S
O13 C11 1.282 . S
C14 O15 1.306 . S
C14 O17 1.160 . S
O15 C14 1.306 . S
O15 Cd16 2.228 . S
Cd16 O15 2.228 . S
Cd16 O20 2.273 . S
Cd16 O24 2.277 . S
O17 C14 1.160 . S
O17 Cd18 2.203 . S
Cd18 O17 2.203 . S
Cd18 O20 2.411 . S
Cd18 O21 2.333 . S
Cd18 O22 2.352 . S
Cd18 O26 2.277 . S
Cd18 O27 2.356 . S
C19 O24 1.209 . S
C19 O26 1.226 . S
O20 Cd16 2.273 . S
O20 Cd18 2.411 . S
O20 C23 1.320 . S
O21 Cd18 2.333 . S
O21 C23 1.214 . S
O22 Cd18 2.352 . S
O22 C25 1.258 . S
C23 O20 1.320 . S
C23 O21 1.214 . S
O24 Cd16 2.277 . S
O24 C19 1.209 . S
C25 O22 1.258 . S
C25 O27 1.282 . S
O26 Cd18 2.277 . S
O26 C19 1.226 . S
O27 Cd18 2.356 . S
O27 C25 1.282 . S
C28 O29 1.306 . S
C28 O31 1.160 . S
O29 C28 1.306 . S
O29 Cd30 2.228 . S
Cd30 O29 2.228 . S
Cd30 O34 2.273 . S
Cd30 O38 2.277 . S
O31 C28 1.160 . S
O31 Cd32 2.203 . S
Cd32 O31 2.203 . S
Cd32 O34 2.411 . S
Cd32 O35 2.333 . S
Cd32 O36 2.352 . S
Cd32 O40 2.277 . S
Cd32 O41 2.356 . S
C33 O38 1.209 . S
C33 O40 1.226 . S
O34 Cd30 2.273 . S
O34 Cd32 2.411 . S
O34 C37 1.320 . S
O35 Cd32 2.333 . S
O35 C37 1.214 . S
O36 Cd32 2.352 . S
O36 C39 1.258 . S
C37 O34 1.320 . S
C37 O35 1.214 . S
O38 Cd30 2.277 . S
O38 C33 1.209 . S
C39 O36 1.258 . S
C39 O41 1.282 . S
O40 Cd32 2.277 . S
O40 C33 1.226 . S
O41 Cd32 2.356 . S
O41 C39 1.282 . S
C42 O43 1.306 . S
C42 O45 1.160 . S
O43 C42 1.306 . S
O43 Cd44 2.228 . S
Cd44 O43 2.228 . S
Cd44 O48 2.273 . S
Cd44 O52 2.277 . S
O45 C42 1.160 . S
O45 Cd46 2.203 . S
Cd46 O45 2.203 . S
Cd46 O48 2.411 . S
Cd46 O49 2.333 . S
Cd46 O50 2.352 . S
Cd46 O54 2.277 . S
Cd46 O55 2.356 . S
C47 O52 1.209 . S
C47 O54 1.226 . S
O48 Cd44 2.273 . S
O48 Cd46 2.411 . S
O48 C51 1.320 . S
O49 Cd46 2.333 . S
O49 C51 1.214 . S
O50 Cd46 2.352 . S
O50 C53 1.258 . S
C51 O48 1.320 . S
C51 O49 1.214 . S
O52 Cd44 2.277 . S
O52 C47 1.209 . S
C53 O50 1.258 . S
C53 O55 1.282 . S
O54 Cd46 2.277 . S
O54 C47 1.226 . S
O55 Cd46 2.356 . S
O55 C53 1.282 . S
C56 O57 1.306 . S
C56 O59 1.160 . S
O57 C56 1.306 . S
O57 Cd58 2.228 . S
Cd58 O57 2.228 . S
Cd58 O62 2.273 . S
Cd58 O66 2.277 . S
O59 C56 1.160 . S
O59 Cd60 2.203 . S
Cd60 O59 2.203 . S
Cd60 O62 2.411 . S
Cd60 O63 2.333 . S
Cd60 O64 2.352 . S
Cd60 O68 2.277 . S
Cd60 O69 2.356 . S
C61 O66 1.209 . S
C61 O68 1.226 . S
O62 Cd58 2.273 . S
O62 Cd60 2.411 . S
O62 C65 1.320 . S
O63 Cd60 2.333 . S
O63 C65 1.214 . S
O64 Cd60 2.352 . S
O64 C67 1.258 . S
C65 O62 1.320 . S
C65 O63 1.214 . S
O66 Cd58 2.277 . S
O66 C61 1.209 . S
C67 O64 1.258 . S
C67 O69 1.282 . S
O68 Cd60 2.277 . S
O68 C61 1.226 . S
O69 Cd60 2.356 . S
O69 C67 1.282 . S
C70 O71 1.306 . S
C70 O73 1.160 . S
O71 C70 1.306 . S
O71 Cd72 2.228 . S
Cd72 O71 2.228 . S
Cd72 O76 2.273 . S
Cd72 O80 2.277 . S
O73 C70 1.160 . S
O73 Cd74 2.203 . S
Cd74 O73 2.203 . S
Cd74 O76 2.411 . S
Cd74 O77 2.333 . S
Cd74 O78 2.352 . S
Cd74 O82 2.277 . S
Cd74 O83 2.356 . S
C75 O80 1.209 . S
C75 O82 1.226 . S
O76 Cd72 2.273 . S
O76 Cd74 2.411 . S
O76 C79 1.320 . S
O77 Cd74 2.333 . S
O77 C79 1.214 . S
O78 Cd74 2.352 . S
O78 C81 1.258 . S
C79 O76 1.320 . S
C79 O77 1.214 . S
O80 Cd72 2.277 . S
O80 C75 1.209 . S
C81 O78 1.258 . S
C81 O83 1.282 . S
O82 Cd74 2.277 . S
O82 C75 1.226 . S
O83 Cd74 2.356 . S
O83 C81 1.282 . S
C84 O85 1.306 . S
C84 O87 1.160 . S
O85 C84 1.306 . S
O85 Cd86 2.228 . S
Cd86 O85 2.228 . S
Cd86 O90 2.273 . S
Cd86 O94 2.277 . S
O87 C84 1.160 . S
O87 Cd88 2.203 . S
Cd88 O87 2.203 . S
Cd88 O90 2.411 . S
Cd88 O91 2.333 . S
Cd88 O92 2.352 . S
Cd88 O96 2.277 . S
Cd88 O97 2.356 . S
C89 O94 1.209 . S
C89 O96 1.226 . S
O90 Cd86 2.273 . S
O90 Cd88 2.411 . S
O90 C93 1.320 . S
O91 Cd88 2.333 . S
O91 C93 1.214 . S
O92 Cd88 2.352 . S
O92 C95 1.258 . S
C93 O90 1.320 . S
C93 O91 1.214 . S
O94 Cd86 2.277 . S
O94 C89 1.209 . S
C95 O92 1.258 . S
C95 O97 1.282 . S
O96 Cd88 2.277 . S
O96 C89 1.226 . S
O97 Cd88 2.356 . S
O97 C95 1.282 . S
C98 O99 1.306 . S
C98 O101 1.160 . S
O99 C98 1.306 . S
O99 Cd100 2.228 . S
Cd100 O99 2.228 . S
Cd100 O104 2.273 . S
Cd100 O108 2.277 . S
O101 C98 1.160 . S
O101 Cd102 2.203 . S
Cd102 O101 2.203 . S
Cd102 O104 2.411 . S
Cd102 O105 2.333 . S
Cd102 O106 2.352 . S
Cd102 O110 2.277 . S
Cd102 O111 2.356 . S
C103 O108 1.209 . S
C103 O110 1.226 . S
O104 Cd100 2.273 . S
O104 Cd102 2.411 . S
O104 C107 1.320 . S
O105 Cd102 2.333 . S
O105 C107 1.214 . S
O106 Cd102 2.352 . S
O106 C109 1.258 . S
C107 O104 1.320 . S
C107 O105 1.214 . S
O108 Cd100 2.277 . S
O108 C103 1.209 . S
C109 O106 1.258 . S
C109 O111 1.282 . S
O110 Cd102 2.277 . S
O110 C103 1.226 . S
O111 Cd102 2.356 . S
O111 C109 1.282 . S
C112 O113 1.306 . S
C112 O115 1.160 . S
O113 C112 1.306 . S
O113 Cd114 2.228 . S
Cd114 O113 2.228 . S
Cd114 O118 2.273 . S
Cd114 O122 2.277 . S
O115 C112 1.160 . S
O115 Cd116 2.203 . S
Cd116 O115 2.203 . S
Cd116 O118 2.411 . S
Cd116 O119 2.333 . S
Cd116 O120 2.352 . S
Cd116 O124 2.277 . S
Cd116 O125 2.356 . S
C117 O122 1.209 . S
C117 O124 1.226 . S
O118 Cd114 2.273 . S
O118 Cd116 2.411 . S
O118 C121 1.320 . S
O119 Cd116 2.333 . S
O119 C121 1.214 . S
O120 Cd116 2.352 . S
O120 C123 1.258 . S
C121 O118 1.320 . S
C121 O119 1.214 . S
O122 Cd114 2.277 . S
O122 C117 1.209 . S
C123 O120 1.258 . S
C123 O125 1.282 . S
O124 Cd116 2.277 . S
O124 C117 1.226 . S
O125 Cd116 2.356 . S
O125 C123 1.282 . S
C126 O127 1.306 . S
C126 O129 1.160 . S
O127 C126 1.306 . S
O127 Cd128 2.228 . S
Cd128 O127 2.228 . S
Cd128 O132 2.273 . S
Cd128 O136 2.277 . S
O129 C126 1.160 . S
O129 Cd130 2.203 . S
Cd130 O129 2.203 . S
Cd130 O132 2.411 . S
Cd130 O133 2.333 . S
Cd130 O134 2.352 . S
Cd130 O138 2.277 . S
Cd130 O139 2.356 . S
C131 O136 1.209 . S
C131 O138 1.226 . S
O132 Cd128 2.273 . S
O132 Cd130 2.411 . S
O132 C135 1.320 . S
O133 Cd130 2.333 . S
O133 C135 1.214 . S
O134 Cd130 2.352 . S
O134 C137 1.258 . S
C135 O132 1.320 . S
C135 O133 1.214 . S
O136 Cd128 2.277 . S
O136 C131 1.209 . S
C137 O134 1.258 . S
C137 O139 1.282 . S
O138 Cd130 2.277 . S
O138 C131 1.226 . S
O139 Cd130 2.356 . S
O139 C137 1.282 . S
C140 O141 1.306 . S
C140 O143 1.160 . S
O141 C140 1.306 . S
O141 Cd142 2.228 . S
Cd142 O141 2.228 . S
Cd142 O146 2.273 . S
Cd142 O150 2.277 . S
O143 C140 1.160 . S
O143 Cd144 2.203 . S
Cd144 O143 2.203 . S
Cd144 O146 2.411 . S
Cd144 O147 2.333 . S
Cd144 O148 2.352 . S
Cd144 O152 2.277 . S
Cd144 O153 2.356 . S
C145 O150 1.209 . S
C145 O152 1.226 . S
O146 Cd142 2.273 . S
O146 Cd144 2.411 . S
O146 C149 1.320 . S
O147 Cd144 2.333 . S
O147 C149 1.214 . S
O148 Cd144 2.352 . S
O148 C151 1.258 . S
C149 O146 1.320 . S
C149 O147 1.214 . S
O150 Cd142 2.277 . S
O150 C145 1.209 . S
C151 O148 1.258 . S
C151 O153 1.282 . S
O152 Cd144 2.277 . S
O152 C145 1.226 . S
O153 Cd144 2.356 . S
O153 C151 1.282 . S
C154 O155 1.306 . S
C154 O157 1.160 . S
O155 C154 1.306 . S
O155 Cd156 2.228 . S
Cd156 O155 2.228 . S
Cd156 O160 2.273 . S
Cd156 O164 2.277 . S
O157 C154 1.160 . S
O157 Cd158 2.203 . S
Cd158 O157 2.203 . S
Cd158 O160 2.411 . S
Cd158 O161 2.333 . S
Cd158 O162 2.352 . S
Cd158 O166 2.277 . S
Cd158 O167 2.356 . S
C159 O164 1.209 . S
C159 O166 1.226 . S
O160 Cd156 2.273 . S
O160 Cd158 2.411 . S
O160 C163 1.320 . S
O161 Cd158 2.333 . S
O161 C163 1.214 . S
O162 Cd158 2.352 . S
O162 C165 1.258 . S
C163 O160 1.320 . S
C163 O161 1.214 . S
O164 Cd156 2.277 . S
O164 C159 1.209 . S
C165 O162 1.258 . S
C165 O167 1.282 . S
O166 Cd158 2.277 . S
O166 C159 1.226 . S
O167 Cd158 2.356 . S
O167 C165 1.282 . S
C168 O169 1.306 . S
C168 O171 1.160 . S
O169 C168 1.306 . S
O169 Cd170 2.228 . S
Cd170 O169 2.228 . S
Cd170 O174 2.273 . S
Cd170 O178 2.277 . S
O171 C168 1.160 . S
O171 Cd172 2.203 . S
Cd172 O171 2.203 . S
Cd172 O174 2.411 . S
Cd172 O175 2.333 . S
Cd172 O176 2.352 . S
Cd172 O180 2.277 . S
Cd172 O181 2.356 . S
C173 O178 1.209 . S
C173 O180 1.226 . S
O174 Cd170 2.273 . S
O174 Cd172 2.411 . S
O174 C177 1.320 . S
O175 Cd172 2.333 . S
O175 C177 1.214 . S
O176 Cd172 2.352 . S
O176 C179 1.258 . S
C177 O174 1.320 . S
C177 O175 1.214 . S
O178 Cd170 2.277 . S
O178 C173 1.209 . S
C179 O176 1.258 . S
C179 O181 1.282 . S
O180 Cd172 2.277 . S
O180 C173 1.226 . S
O181 Cd172 2.356 . S
O181 C179 1.282 . S
C182 O183 1.306 . S
C182 O185 1.160 . S
O183 C182 1.306 . S
O183 Cd184 2.228 . S
Cd184 O183 2.228 . S
Cd184 O188 2.273 . S
Cd184 O192 2.277 . S
O185 C182 1.160 . S
O185 Cd186 2.203 . S
Cd186 O185 2.203 . S
Cd186 O188 2.411 . S
Cd186 O189 2.333 . S
Cd186 O190 2.352 . S
Cd186 O194 2.277 . S
Cd186 O195 2.356 . S
C187 O192 1.209 . S
C187 O194 1.226 . S
O188 Cd184 2.273 . S
O188 Cd186 2.411 . S
O188 C191 1.320 . S
O189 Cd186 2.333 . S
O189 C191 1.214 . S
O190 Cd186 2.352 . S
O190 C193 1.258 . S
C191 O188 1.320 . S
C191 O189 1.214 . S
O192 Cd184 2.277 . S
O192 C187 1.209 . S
C193 O190 1.258 . S
C193 O195 1.282 . S
O194 Cd186 2.277 . S
O194 C187 1.226 . S
O195 Cd186 2.356 . S
O195 C193 1.282 . S
C196 O197 1.306 . S
C196 O199 1.160 . S
O197 C196 1.306 . S
O197 Cd198 2.228 . S
Cd198 O197 2.228 . S
Cd198 O202 2.273 . S
Cd198 O206 2.277 . S
O199 C196 1.160 . S
O199 Cd200 2.203 . S
Cd200 O199 2.203 . S
Cd200 O202 2.411 . S
Cd200 O203 2.333 . S
Cd200 O204 2.352 . S
Cd200 O208 2.277 . S
Cd200 O209 2.356 . S
C201 O206 1.209 . S
C201 O208 1.226 . S
O202 Cd198 2.273 . S
O202 Cd200 2.411 . S
O202 C205 1.320 . S
O203 Cd200 2.333 . S
O203 C205 1.214 . S
O204 Cd200 2.352 . S
O204 C207 1.258 . S
C205 O202 1.320 . S
C205 O203 1.214 . S
O206 Cd198 2.277 . S
O206 C201 1.209 . S
C207 O204 1.258 . S
C207 O209 1.282 . S
O208 Cd200 2.277 . S
O208 C201 1.226 . S
O209 Cd200 2.356 . S
O209 C207 1.282 . S
C210 O211 1.306 . S
C210 O213 1.160 . S
O211 C210 1.306 . S
O211 Cd212 2.228 . S
Cd212 O211 2.228 . S
Cd212 O216 2.273 . S
Cd212 O220 2.277 . S
O213 C210 1.160 . S
O213 Cd214 2.203 . S
Cd214 O213 2.203 . S
Cd214 O216 2.411 . S
Cd214 O217 2.333 . S
Cd214 O218 2.352 . S
Cd214 O222 2.277 . S
Cd214 O223 2.356 . S
C215 O220 1.209 . S
C215 O222 1.226 . S
O216 Cd212 2.273 . S
O216 Cd214 2.411 . S
O216 C219 1.320 . S
O217 Cd214 2.333 . S
O217 C219 1.214 . S
O218 Cd214 2.352 . S
O218 C221 1.258 . S
C219 O216 1.320 . S
C219 O217 1.214 . S
O220 Cd212 2.277 . S
O220 C215 1.209 . S
C221 O218 1.258 . S
C221 O223 1.282 . S
O222 Cd214 2.277 . S
O222 C215 1.226 . S
O223 Cd214 2.356 . S
O223 C221 1.282 . S
C224 O225 1.306 . S
C224 O227 1.160 . S
O225 C224 1.306 . S
O225 Cd226 2.228 . S
Cd226 O225 2.228 . S
Cd226 O230 2.273 . S
Cd226 O234 2.277 . S
O227 C224 1.160 . S
O227 Cd228 2.203 . S
Cd228 O227 2.203 . S
Cd228 O230 2.411 . S
Cd228 O231 2.333 . S
Cd228 O232 2.352 . S
Cd228 O236 2.277 . S
Cd228 O237 2.356 . S
C229 O234 1.209 . S
C229 O236 1.226 . S
O230 Cd226 2.273 . S
O230 Cd228 2.411 . S
O230 C233 1.320 . S
O231 Cd228 2.333 . S
O231 C233 1.214 . S
O232 Cd228 2.352 . S
O232 C235 1.258 . S
C233 O230 1.320 . S
C233 O231 1.214 . S
O234 Cd226 2.277 . S
O234 C229 1.209 . S
C235 O232 1.258 . S
C235 O237 1.282 . S
O236 Cd228 2.277 . S
O236 C229 1.226 . S
O237 Cd228 2.356 . S
O237 C235 1.282 . S
C238 O239 1.306 . S
C238 O241 1.160 . S
O239 C238 1.306 . S
O239 Cd240 2.228 . S
Cd240 O239 2.228 . S
Cd240 O244 2.273 . S
Cd240 O248 2.277 . S
O241 C238 1.160 . S
O241 Cd242 2.203 . S
Cd242 O241 2.203 . S
Cd242 O244 2.411 . S
Cd242 O245 2.333 . S
Cd242 O246 2.352 . S
Cd242 O250 2.277 . S
Cd242 O251 2.356 . S
C243 O248 1.209 . S
C243 O250 1.226 . S
O244 Cd240 2.273 . S
O244 Cd242 2.411 . S
O244 C247 1.320 . S
O245 Cd242 2.333 . S
O245 C247 1.214 . S
O246 Cd242 2.352 . S
O246 C249 1.258 . S
C247 O244 1.320 . S
C247 O245 1.214 . S
O248 Cd240 2.277 . S
O248 C243 1.209 . S
C249 O246 1.258 . S
C249 O251 1.282 . S
O250 Cd242 2.277 . S
O250 C243 1.226 . S
O251 Cd242 2.356 . S
O251 C249 1.282 . S
C252 O253 1.306 . S
C252 O255 1.160 . S
O253 C252 1.306 . S
O253 Cd254 2.228 . S
Cd254 O253 2.228 . S
Cd254 O258 2.273 . S
Cd254 O262 2.277 . S
O255 C252 1.160 . S
O255 Cd256 2.203 . S
Cd256 O255 2.203 . S
Cd256 O258 2.411 . S
Cd256 O259 2.333 . S
Cd256 O260 2.352 . S
Cd256 O264 2.277 . S
Cd256 O265 2.356 . S
C257 O262 1.209 . S
C257 O264 1.226 . S
O258 Cd254 2.273 . S
O258 Cd256 2.411 . S
O258 C261 1.320 . S
O259 Cd256 2.333 . S
O259 C261 1.214 . S
O260 Cd256 2.352 . S
O260 C263 1.258 . S
C261 O258 1.320 . S
C261 O259 1.214 . S
O262 Cd254 2.277 . S
O262 C257 1.209 . S
C263 O260 1.258 . S
C263 O265 1.282 . S
O264 Cd256 2.277 . S
O264 C257 1.226 . S
O265 Cd256 2.356 . S
O265 C263 1.282 . S
C266 O267 1.306 . S
C266 O269 1.160 . S
O267 C266 1.306 . S
O267 Cd268 2.228 . S
Cd268 O267 2.228 . S
Cd268 O272 2.273 . S
Cd268 O276 2.277 . S
O269 C266 1.160 . S
O269 Cd270 2.203 . S
Cd270 O269 2.203 . S
Cd270 O272 2.411 . S
Cd270 O273 2.333 . S
Cd270 O274 2.352 . S
Cd270 O278 2.277 . S
Cd270 O279 2.356 . S
C271 O276 1.209 . S
C271 O278 1.226 . S
O272 Cd268 2.273 . S
O272 Cd270 2.411 . S
O272 C275 1.320 . S
O273 Cd270 2.333 . S
O273 C275 1.214 . S
O274 Cd270 2.352 . S
O274 C277 1.258 . S
C275 O272 1.320 . S
C275 O273 1.214 . S
O276 Cd268 2.277 . S
O276 C271 1.209 . S
C277 O274 1.258 . S
C277 O279 1.282 . S
O278 Cd270 2.277 . S
O278 C271 1.226 . S
O279 Cd270 2.356 . S
O279 C277 1.282 . S
C280 O281 1.306 . S
C280 O283 1.160 . S
O281 C280 1.306 . S
O281 Cd282 2.228 . S
Cd282 O281 2.228 . S
Cd282 O286 2.273 . S
Cd282 O290 2.277 . S
O283 C280 1.160 . S
O283 Cd284 2.203 . S
Cd284 O283 2.203 . S
Cd284 O286 2.411 . S
Cd284 O287 2.333 . S
Cd284 O288 2.352 . S
Cd284 O292 2.277 . S
Cd284 O293 2.356 . S
C285 O290 1.209 . S
C285 O292 1.226 . S
O286 Cd282 2.273 . S
O286 Cd284 2.411 . S
O286 C289 1.320 . S
O287 Cd284 2.333 . S
O287 C289 1.214 . S
O288 Cd284 2.352 . S
O288 C291 1.258 . S
C289 O286 1.320 . S
C289 O287 1.214 . S
O290 Cd282 2.277 . S
O290 C285 1.209 . S
C291 O288 1.258 . S
C291 O293 1.282 . S
O292 Cd284 2.277 . S
O292 C285 1.226 . S
O293 Cd284 2.356 . S
O293 C291 1.282 . S
C294 O295 1.306 . S
C294 O297 1.160 . S
O295 C294 1.306 . S
O295 Cd296 2.228 . S
Cd296 O295 2.228 . S
Cd296 O300 2.273 . S
Cd296 O304 2.277 . S
O297 C294 1.160 . S
O297 Cd298 2.203 . S
Cd298 O297 2.203 . S
Cd298 O300 2.411 . S
Cd298 O301 2.333 . S
Cd298 O302 2.352 . S
Cd298 O306 2.277 . S
Cd298 O307 2.356 . S
C299 O304 1.209 . S
C299 O306 1.226 . S
O300 Cd296 2.273 . S
O300 Cd298 2.411 . S
O300 C303 1.320 . S
O301 Cd298 2.333 . S
O301 C303 1.214 . S
O302 Cd298 2.352 . S
O302 C305 1.258 . S
C303 O300 1.320 . S
C303 O301 1.214 . S
O304 Cd296 2.277 . S
O304 C299 1.209 . S
C305 O302 1.258 . S
C305 O307 1.282 . S
O306 Cd298 2.277 . S
O306 C299 1.226 . S
O307 Cd298 2.356 . S
O307 C305 1.282 . S
C308 O309 1.306 . S
C308 O311 1.160 . S
O309 C308 1.306 . S
O309 Cd310 2.228 . S
Cd310 O309 2.228 . S
Cd310 O314 2.273 . S
Cd310 O318 2.277 . S
O311 C308 1.160 . S
O311 Cd312 2.203 . S
Cd312 O311 2.203 . S
Cd312 O314 2.411 . S
Cd312 O315 2.333 . S
Cd312 O316 2.352 . S
Cd312 O320 2.277 . S
Cd312 O321 2.356 . S
C313 O318 1.209 . S
C313 O320 1.226 . S
O314 Cd310 2.273 . S
O314 Cd312 2.411 . S
O314 C317 1.320 . S
O315 Cd312 2.333 . S
O315 C317 1.214 . S
O316 Cd312 2.352 . S
O316 C319 1.258 . S
C317 O314 1.320 . S
C317 O315 1.214 . S
O318 Cd310 2.277 . S
O318 C313 1.209 . S
C319 O316 1.258 . S
C319 O321 1.282 . S
O320 Cd312 2.277 . S
O320 C313 1.226 . S
O321 Cd312 2.356 . S
O321 C319 1.282 . S
C322 O323 1.306 . S
C322 O325 1.160 . S
O323 C322 1.306 . S
O323 Cd324 2.228 . S
Cd324 O323 2.228 . S
Cd324 O328 2.273 . S
Cd324 O332 2.277 . S
O325 C322 1.160 . S
O325 Cd326 2.203 . S
Cd326 O325 2.203 . S
Cd326 O328 2.411 . S
Cd326 O329 2.333 . S
Cd326 O330 2.352 . S
Cd326 O334 2.277 . S
Cd326 O335 2.356 . S
C327 O332 1.209 . S
C327 O334 1.226 . S
O328 Cd324 2.273 . S
O328 Cd326 2.411 . S
O328 C331 1.320 . S
O329 Cd326 2.333 . S
O329 C331 1.214 . S
O330 Cd326 2.352 . S
O330 C333 1.258 . S
C331 O328 1.320 . S
C331 O329 1.214 . S
O332 Cd324 2.277 . S
O332 C327 1.209 . S
C333 O330 1.258 . S
C333 O335 1.282 . S
O334 Cd326 2.277 . S
O334 C327 1.226 . S
O335 Cd326 2.356 . S
O335 C333 1.282 . S
C336 C337 1.349 . S
C336 C338 1.327 . S
C336 H361 0.950 . S
C337 C336 1.349 . S
C337 C353 1.349 . S
C338 C336 1.327 . S
C338 C357 1.429 . S
C338 H362 0.950 . S
C339 C356 1.574 . S
C339 C358 1.368 . S
C339 H363 0.949 . S
H340 C344 0.949 . S
C341 C342 1.349 . S
C341 C343 1.327 . S
C341 H364 0.950 . S
C342 C341 1.349 . S
C342 C354 1.349 . S
C343 C341 1.327 . S
C343 C359 1.429 . S
C343 H365 0.950 . S
C344 H340 0.949 . S
C344 C352 1.574 . S
C344 C360 1.368 . S
H345 C353 0.950 . S
H346 C351 0.950 . S
H347 C352 0.949 . S
H348 C354 0.950 . S
H349 C355 0.950 . S
H350 C356 0.949 . S
C351 H346 0.950 . S
C351 C353 1.327 . S
C351 C357 1.429 . S
C352 C344 1.574 . S
C352 H347 0.949 . S
C352 C358 1.368 . S
C353 C337 1.349 . S
C353 H345 0.950 . S
C353 C351 1.327 . S
C354 C342 1.349 . S
C354 H348 0.950 . S
C354 C355 1.327 . S
C355 H349 0.950 . S
C355 C354 1.327 . S
C355 C359 1.429 . S
C356 C339 1.574 . S
C356 H350 0.949 . S
C356 C360 1.368 . S
C357 C338 1.429 . S
C357 C351 1.429 . S
C357 C358 1.523 . S
C358 C339 1.368 . S
C358 C352 1.368 . S
C358 C357 1.523 . S
C359 C343 1.429 . S
C359 C355 1.429 . S
C359 C360 1.523 . S
C360 C344 1.368 . S
C360 C356 1.368 . S
C360 C359 1.523 . S
H361 C336 0.950 . S
H362 C338 0.950 . S
H363 C339 0.949 . S
H364 C341 0.950 . S
H365 C343 0.950 . S
C366 C367 1.349 . S
C366 C368 1.327 . S
C366 H391 0.950 . S
C367 C366 1.349 . S
C367 C383 1.349 . S
C368 C366 1.327 . S
C368 C387 1.429 . S
C368 H392 0.950 . S
C369 C386 1.574 . S
C369 C388 1.368 . S
C369 H393 0.949 . S
H370 C374 0.949 . S
C371 C372 1.349 . S
C371 C373 1.327 . S
C371 H394 0.950 . S
C372 C371 1.349 . S
C372 C384 1.349 . S
C373 C371 1.327 . S
C373 C389 1.429 . S
C373 H395 0.950 . S
C374 H370 0.949 . S
C374 C382 1.574 . S
C374 C390 1.368 . S
H375 C383 0.950 . S
H376 C381 0.950 . S
H377 C382 0.949 . S
H378 C384 0.950 . S
H379 C385 0.950 . S
H380 C386 0.949 . S
C381 H376 0.950 . S
C381 C383 1.327 . S
C381 C387 1.429 . S
C382 C374 1.574 . S
C382 H377 0.949 . S
C382 C388 1.368 . S
C383 C367 1.349 . S
C383 H375 0.950 . S
C383 C381 1.327 . S
C384 C372 1.349 . S
C384 H378 0.950 . S
C384 C385 1.327 . S
C385 H379 0.950 . S
C385 C384 1.327 . S
C385 C389 1.429 . S
C386 C369 1.574 . S
C386 H380 0.949 . S
C386 C390 1.368 . S
C387 C368 1.429 . S
C387 C381 1.429 . S
C387 C388 1.523 . S
C388 C369 1.368 . S
C388 C382 1.368 . S
C388 C387 1.523 . S
C389 C373 1.429 . S
C389 C385 1.429 . S
C389 C390 1.523 . S
C390 C374 1.368 . S
C390 C386 1.368 . S
C390 C389 1.523 . S
H391 C366 0.950 . S
H392 C368 0.950 . S
H393 C369 0.949 . S
H394 C371 0.950 . S
H395 C373 0.950 . S
C396 C397 1.349 . S
C396 C398 1.327 . S
C396 H421 0.950 . S
C397 C396 1.349 . S
C397 C413 1.349 . S
C398 C396 1.327 . S
C398 C417 1.429 . S
C398 H422 0.950 . S
C399 C416 1.574 . S
C399 C418 1.368 . S
C399 H423 0.949 . S
H400 C404 0.949 . S
C401 C402 1.349 . S
C401 C403 1.327 . S
C401 H424 0.950 . S
C402 C401 1.349 . S
C402 C414 1.349 . S
C403 C401 1.327 . S
C403 C419 1.429 . S
C403 H425 0.950 . S
C404 H400 0.949 . S
C404 C412 1.574 . S
C404 C420 1.368 . S
H405 C413 0.950 . S
H406 C411 0.950 . S
H407 C412 0.949 . S
H408 C414 0.950 . S
H409 C415 0.950 . S
H410 C416 0.949 . S
C411 H406 0.950 . S
C411 C413 1.327 . S
C411 C417 1.429 . S
C412 C404 1.574 . S
C412 H407 0.949 . S
C412 C418 1.368 . S
C413 C397 1.349 . S
C413 H405 0.950 . S
C413 C411 1.327 . S
C414 C402 1.349 . S
C414 H408 0.950 . S
C414 C415 1.327 . S
C415 H409 0.950 . S
C415 C414 1.327 . S
C415 C419 1.429 . S
C416 C399 1.574 . S
C416 H410 0.949 . S
C416 C420 1.368 . S
C417 C398 1.429 . S
C417 C411 1.429 . S
C417 C418 1.523 . S
C418 C399 1.368 . S
C418 C412 1.368 . S
C418 C417 1.523 . S
C419 C403 1.429 . S
C419 C415 1.429 . S
C419 C420 1.523 . S
C420 C404 1.368 . S
C420 C416 1.368 . S
C420 C419 1.523 . S
H421 C396 0.950 . S
H422 C398 0.950 . S
H423 C399 0.949 . S
H424 C401 0.950 . S
H425 C403 0.950 . S
C426 C427 1.349 . S
C426 C428 1.327 . S
C426 H451 0.950 . S
C427 C426 1.349 . S
C427 C443 1.349 . S
C428 C426 1.327 . S
C428 C447 1.429 . S
C428 H452 0.950 . S
C429 C446 1.574 . S
C429 C448 1.368 . S
C429 H453 0.949 . S
H430 C434 0.949 . S
C431 C432 1.349 . S
C431 C433 1.327 . S
C431 H454 0.950 . S
C432 C431 1.349 . S
C432 C444 1.349 . S
C433 C431 1.327 . S
C433 C449 1.429 . S
C433 H455 0.950 . S
C434 H430 0.949 . S
C434 C442 1.574 . S
C434 C450 1.368 . S
H435 C443 0.950 . S
H436 C441 0.950 . S
H437 C442 0.949 . S
H438 C444 0.950 . S
H439 C445 0.950 . S
H440 C446 0.949 . S
C441 H436 0.950 . S
C441 C443 1.327 . S
C441 C447 1.429 . S
C442 C434 1.574 . S
C442 H437 0.949 . S
C442 C448 1.368 . S
C443 C427 1.349 . S
C443 H435 0.950 . S
C443 C441 1.327 . S
C444 C432 1.349 . S
C444 H438 0.950 . S
C444 C445 1.327 . S
C445 H439 0.950 . S
C445 C444 1.327 . S
C445 C449 1.429 . S
C446 C429 1.574 . S
C446 H440 0.949 . S
C446 C450 1.368 . S
C447 C428 1.429 . S
C447 C441 1.429 . S
C447 C448 1.523 . S
C448 C429 1.368 . S
C448 C442 1.368 . S
C448 C447 1.523 . S
C449 C433 1.429 . S
C449 C445 1.429 . S
C449 C450 1.523 . S
C450 C434 1.368 . S
C450 C446 1.368 . S
C450 C449 1.523 . S
H451 C426 0.950 . S
H452 C428 0.950 . S
H453 C429 0.949 . S
H454 C431 0.950 . S
H455 C433 0.950 . S
C456 C457 1.349 . S
C456 C458 1.327 . S
C456 H481 0.950 . S
C457 C456 1.349 . S
C457 C473 1.349 . S
C458 C456 1.327 . S
C458 C477 1.429 . S
C458 H482 0.950 . S
C459 C476 1.574 . S
C459 C478 1.368 . S
C459 H483 0.949 . S
H460 C464 0.949 . S
C461 C462 1.349 . S
C461 C463 1.327 . S
C461 H484 0.950 . S
C462 C461 1.349 . S
C462 C474 1.349 . S
C463 C461 1.327 . S
C463 C479 1.429 . S
C463 H485 0.950 . S
C464 H460 0.949 . S
C464 C472 1.574 . S
C464 C480 1.368 . S
H465 C473 0.950 . S
H466 C471 0.950 . S
H467 C472 0.949 . S
H468 C474 0.950 . S
H469 C475 0.950 . S
H470 C476 0.949 . S
C471 H466 0.950 . S
C471 C473 1.327 . S
C471 C477 1.429 . S
C472 C464 1.574 . S
C472 H467 0.949 . S
C472 C478 1.368 . S
C473 C457 1.349 . S
C473 H465 0.950 . S
C473 C471 1.327 . S
C474 C462 1.349 . S
C474 H468 0.950 . S
C474 C475 1.327 . S
C475 H469 0.950 . S
C475 C474 1.327 . S
C475 C479 1.429 . S
C476 C459 1.574 . S
C476 H470 0.949 . S
C476 C480 1.368 . S
C477 C458 1.429 . S
C477 C471 1.429 . S
C477 C478 1.523 . S
C478 C459 1.368 . S
C478 C472 1.368 . S
C478 C477 1.523 . S
C479 C463 1.429 . S
C479 C475 1.429 . S
C479 C480 1.523 . S
C480 C464 1.368 . S
C480 C476 1.368 . S
C480 C479 1.523 . S
H481 C456 0.950 . S
H482 C458 0.950 . S
H483 C459 0.949 . S
H484 C461 0.950 . S
H485 C463 0.950 . S
C486 C487 1.349 . S
C486 C488 1.327 . S
C486 H511 0.950 . S
C487 C486 1.349 . S
C487 C503 1.349 . S
C488 C486 1.327 . S
C488 C507 1.429 . S
C488 H512 0.950 . S
C489 C506 1.574 . S
C489 C508 1.368 . S
C489 H513 0.949 . S
H490 C494 0.949 . S
C491 C492 1.349 . S
C491 C493 1.327 . S
C491 H514 0.950 . S
C492 C491 1.349 . S
C492 C504 1.349 . S
C493 C491 1.327 . S
C493 C509 1.429 . S
C493 H515 0.950 . S
C494 H490 0.949 . S
C494 C502 1.574 . S
C494 C510 1.368 . S
H495 C503 0.950 . S
H496 C501 0.950 . S
H497 C502 0.949 . S
H498 C504 0.950 . S
H499 C505 0.950 . S
H500 C506 0.949 . S
C501 H496 0.950 . S
C501 C503 1.327 . S
C501 C507 1.429 . S
C502 C494 1.574 . S
C502 H497 0.949 . S
C502 C508 1.368 . S
C503 C487 1.349 . S
C503 H495 0.950 . S
C503 C501 1.327 . S
C504 C492 1.349 . S
C504 H498 0.950 . S
C504 C505 1.327 . S
C505 H499 0.950 . S
C505 C504 1.327 . S
C505 C509 1.429 . S
C506 C489 1.574 . S
C506 H500 0.949 . S
C506 C510 1.368 . S
C507 C488 1.429 . S
C507 C501 1.429 . S
C507 C508 1.523 . S
C508 C489 1.368 . S
C508 C502 1.368 . S
C508 C507 1.523 . S
C509 C493 1.429 . S
C509 C505 1.429 . S
C509 C510 1.523 . S
C510 C494 1.368 . S
C510 C506 1.368 . S
C510 C509 1.523 . S
H511 C486 0.950 . S
H512 C488 0.950 . S
H513 C489 0.949 . S
H514 C491 0.950 . S
H515 C493 0.950 . S
C516 C517 1.349 . S
C516 C518 1.327 . S
C516 H541 0.950 . S
C517 C516 1.349 . S
C517 C533 1.349 . S
C518 C516 1.327 . S
C518 C537 1.429 . S
C518 H542 0.950 . S
C519 C536 1.574 . S
C519 C538 1.368 . S
C519 H543 0.949 . S
H520 C524 0.949 . S
C521 C522 1.349 . S
C521 C523 1.327 . S
C521 H544 0.950 . S
C522 C521 1.349 . S
C522 C534 1.349 . S
C523 C521 1.327 . S
C523 C539 1.429 . S
C523 H545 0.950 . S
C524 H520 0.949 . S
C524 C532 1.574 . S
C524 C540 1.368 . S
H525 C533 0.950 . S
H526 C531 0.950 . S
H527 C532 0.949 . S
H528 C534 0.950 . S
H529 C535 0.950 . S
H530 C536 0.949 . S
C531 H526 0.950 . S
C531 C533 1.327 . S
C531 C537 1.429 . S
C532 C524 1.574 . S
C532 H527 0.949 . S
C532 C538 1.368 . S
C533 C517 1.349 . S
C533 H525 0.950 . S
C533 C531 1.327 . S
C534 C522 1.349 . S
C534 H528 0.950 . S
C534 C535 1.327 . S
C535 H529 0.950 . S
C535 C534 1.327 . S
C535 C539 1.429 . S
C536 C519 1.574 . S
C536 H530 0.949 . S
C536 C540 1.368 . S
C537 C518 1.429 . S
C537 C531 1.429 . S
C537 C538 1.523 . S
C538 C519 1.368 . S
C538 C532 1.368 . S
C538 C537 1.523 . S
C539 C523 1.429 . S
C539 C535 1.429 . S
C539 C540 1.523 . S
C540 C524 1.368 . S
C540 C536 1.368 . S
C540 C539 1.523 . S
H541 C516 0.950 . S
H542 C518 0.950 . S
H543 C519 0.949 . S
H544 C521 0.950 . S
H545 C523 0.950 . S
C546 C547 1.349 . S
C546 C548 1.327 . S
C546 H571 0.950 . S
C547 C546 1.349 . S
C547 C563 1.349 . S
C548 C546 1.327 . S
C548 C567 1.429 . S
C548 H572 0.950 . S
C549 C566 1.574 . S
C549 C568 1.368 . S
C549 H573 0.949 . S
H550 C554 0.949 . S
C551 C552 1.349 . S
C551 C553 1.327 . S
C551 H574 0.950 . S
C552 C551 1.349 . S
C552 C564 1.349 . S
C553 C551 1.327 . S
C553 C569 1.429 . S
C553 H575 0.950 . S
C554 H550 0.949 . S
C554 C562 1.574 . S
C554 C570 1.368 . S
H555 C563 0.950 . S
H556 C561 0.950 . S
H557 C562 0.949 . S
H558 C564 0.950 . S
H559 C565 0.950 . S
H560 C566 0.949 . S
C561 H556 0.950 . S
C561 C563 1.327 . S
C561 C567 1.429 . S
C562 C554 1.574 . S
C562 H557 0.949 . S
C562 C568 1.368 . S
C563 C547 1.349 . S
C563 H555 0.950 . S
C563 C561 1.327 . S
C564 C552 1.349 . S
C564 H558 0.950 . S
C564 C565 1.327 . S
C565 H559 0.950 . S
C565 C564 1.327 . S
C565 C569 1.429 . S
C566 C549 1.574 . S
C566 H560 0.949 . S
C566 C570 1.368 . S
C567 C548 1.429 . S
C567 C561 1.429 . S
C567 C568 1.523 . S
C568 C549 1.368 . S
C568 C562 1.368 . S
C568 C567 1.523 . S
C569 C553 1.429 . S
C569 C565 1.429 . S
C569 C570 1.523 . S
C570 C554 1.368 . S
C570 C566 1.368 . S
C570 C569 1.523 . S
H571 C546 0.950 . S
H572 C548 0.950 . S
H573 C549 0.949 . S
H574 C551 0.950 . S
H575 C553 0.950 . S
C576 C577 1.349 . S
C576 C578 1.327 . S
C576 H601 0.950 . S
C577 C576 1.349 . S
C577 C593 1.349 . S
C578 C576 1.327 . S
C578 C597 1.429 . S
C578 H602 0.950 . S
C579 C596 1.574 . S
C579 C598 1.368 . S
C579 H603 0.949 . S
H580 C584 0.949 . S
C581 C582 1.349 . S
C581 C583 1.327 . S
C581 H604 0.950 . S
C582 C581 1.349 . S
C582 C594 1.349 . S
C583 C581 1.327 . S
C583 C599 1.429 . S
C583 H605 0.950 . S
C584 H580 0.949 . S
C584 C592 1.574 . S
C584 C600 1.368 . S
H585 C593 0.950 . S
H586 C591 0.950 . S
H587 C592 0.949 . S
H588 C594 0.950 . S
H589 C595 0.950 . S
H590 C596 0.949 . S
C591 H586 0.950 . S
C591 C593 1.327 . S
C591 C597 1.429 . S
C592 C584 1.574 . S
C592 H587 0.949 . S
C592 C598 1.368 . S
C593 C577 1.349 . S
C593 H585 0.950 . S
C593 C591 1.327 . S
C594 C582 1.349 . S
C594 H588 0.950 . S
C594 C595 1.327 . S
C595 H589 0.950 . S
C595 C594 1.327 . S
C595 C599 1.429 . S
C596 C579 1.574 . S
C596 H590 0.949 . S
C596 C600 1.368 . S
C597 C578 1.429 . S
C597 C591 1.429 . S
C597 C598 1.523 . S
C598 C579 1.368 . S
C598 C592 1.368 . S
C598 C597 1.523 . S
C599 C583 1.429 . S
C599 C595 1.429 . S
C599 C600 1.523 . S
C600 C584 1.368 . S
C600 C596 1.368 . S
C600 C599 1.523 . S
H601 C576 0.950 . S
H602 C578 0.950 . S
H603 C579 0.949 . S
H604 C581 0.950 . S
H605 C583 0.950 . S
C606 C607 1.349 . S
C606 C608 1.327 . S
C606 H631 0.950 . S
C607 C606 1.349 . S
C607 C623 1.349 . S
C608 C606 1.327 . S
C608 C627 1.429 . S
C608 H632 0.950 . S
C609 C626 1.574 . S
C609 C628 1.368 . S
C609 H633 0.949 . S
H610 C614 0.949 . S
C611 C612 1.349 . S
C611 C613 1.327 . S
C611 H634 0.950 . S
C612 C611 1.349 . S
C612 C624 1.349 . S
C613 C611 1.327 . S
C613 C629 1.429 . S
C613 H635 0.950 . S
C614 H610 0.949 . S
C614 C622 1.574 . S
C614 C630 1.368 . S
H615 C623 0.950 . S
H616 C621 0.950 . S
H617 C622 0.949 . S
H618 C624 0.950 . S
H619 C625 0.950 . S
H620 C626 0.949 . S
C621 H616 0.950 . S
C621 C623 1.327 . S
C621 C627 1.429 . S
C622 C614 1.574 . S
C622 H617 0.949 . S
C622 C628 1.368 . S
C623 C607 1.349 . S
C623 H615 0.950 . S
C623 C621 1.327 . S
C624 C612 1.349 . S
C624 H618 0.950 . S
C624 C625 1.327 . S
C625 H619 0.950 . S
C625 C624 1.327 . S
C625 C629 1.429 . S
C626 C609 1.574 . S
C626 H620 0.949 . S
C626 C630 1.368 . S
C627 C608 1.429 . S
C627 C621 1.429 . S
C627 C628 1.523 . S
C628 C609 1.368 . S
C628 C622 1.368 . S
C628 C627 1.523 . S
C629 C613 1.429 . S
C629 C625 1.429 . S
C629 C630 1.523 . S
C630 C614 1.368 . S
C630 C626 1.368 . S
C630 C629 1.523 . S
H631 C606 0.950 . S
H632 C608 0.950 . S
H633 C609 0.949 . S
H634 C611 0.950 . S
H635 C613 0.950 . S
C636 C637 1.349 . S
C636 C638 1.327 . S
C636 H661 0.950 . S
C637 C636 1.349 . S
C637 C653 1.349 . S
C638 C636 1.327 . S
C638 C657 1.429 . S
C638 H662 0.950 . S
C639 C656 1.574 . S
C639 C658 1.368 . S
C639 H663 0.949 . S
H640 C644 0.949 . S
C641 C642 1.349 . S
C641 C643 1.327 . S
C641 H664 0.950 . S
C642 C641 1.349 . S
C642 C654 1.349 . S
C643 C641 1.327 . S
C643 C659 1.429 . S
C643 H665 0.950 . S
C644 H640 0.949 . S
C644 C652 1.574 . S
C644 C660 1.368 . S
H645 C653 0.950 . S
H646 C651 0.950 . S
H647 C652 0.949 . S
H648 C654 0.950 . S
H649 C655 0.950 . S
H650 C656 0.949 . S
C651 H646 0.950 . S
C651 C653 1.327 . S
C651 C657 1.429 . S
C652 C644 1.574 . S
C652 H647 0.949 . S
C652 C658 1.368 . S
C653 C637 1.349 . S
C653 H645 0.950 . S
C653 C651 1.327 . S
C654 C642 1.349 . S
C654 H648 0.950 . S
C654 C655 1.327 . S
C655 H649 0.950 . S
C655 C654 1.327 . S
C655 C659 1.429 . S
C656 C639 1.574 . S
C656 H650 0.949 . S
C656 C660 1.368 . S
C657 C638 1.429 . S
C657 C651 1.429 . S
C657 C658 1.523 . S
C658 C639 1.368 . S
C658 C652 1.368 . S
C658 C657 1.523 . S
C659 C643 1.429 . S
C659 C655 1.429 . S
C659 C660 1.523 . S
C660 C644 1.368 . S
C660 C656 1.368 . S
C660 C659 1.523 . S
H661 C636 0.950 . S
H662 C638 0.950 . S
H663 C639 0.949 . S
H664 C641 0.950 . S
H665 C643 0.950 . S
C666 C667 1.349 . S
C666 C668 1.327 . S
C666 H691 0.950 . S
C667 C666 1.349 . S
C667 C683 1.349 . S
C668 C666 1.327 . S
C668 C687 1.429 . S
C668 H692 0.950 . S
C669 C686 1.574 . S
C669 C688 1.368 . S
C669 H693 0.949 . S
H670 C674 0.949 . S
C671 C672 1.349 . S
C671 C673 1.327 . S
C671 H694 0.950 . S
C672 C671 1.349 . S
C672 C684 1.349 . S
C673 C671 1.327 . S
C673 C689 1.429 . S
C673 H695 0.950 . S
C674 H670 0.949 . S
C674 C682 1.574 . S
C674 C690 1.368 . S
H675 C683 0.950 . S
H676 C681 0.950 . S
H677 C682 0.949 . S
H678 C684 0.950 . S
H679 C685 0.950 . S
H680 C686 0.949 . S
C681 H676 0.950 . S
C681 C683 1.327 . S
C681 C687 1.429 . S
C682 C674 1.574 . S
C682 H677 0.949 . S
C682 C688 1.368 . S
C683 C667 1.349 . S
C683 H675 0.950 . S
C683 C681 1.327 . S
C684 C672 1.349 . S
C684 H678 0.950 . S
C684 C685 1.327 . S
C685 H679 0.950 . S
C685 C684 1.327 . S
C685 C689 1.429 . S
C686 C669 1.574 . S
C686 H680 0.949 . S
C686 C690 1.368 . S
C687 C668 1.429 . S
C687 C681 1.429 . S
C687 C688 1.523 . S
C688 C669 1.368 . S
C688 C682 1.368 . S
C688 C687 1.523 . S
C689 C673 1.429 . S
C689 C685 1.429 . S
C689 C690 1.523 . S
C690 C674 1.368 . S
C690 C686 1.368 . S
C690 C689 1.523 . S
H691 C666 0.950 . S
H692 C668 0.950 . S
H693 C669 0.949 . S
H694 C671 0.950 . S
H695 C673 0.950 . S
C696 C697 1.349 . S
C696 C698 1.327 . S
C696 H721 0.950 . S
C697 C696 1.349 . S
C697 C713 1.349 . S
C698 C696 1.327 . S
C698 C717 1.429 . S
C698 H722 0.950 . S
C699 C716 1.574 . S
C699 C718 1.368 . S
C699 H723 0.949 . S
H700 C704 0.949 . S
C701 C702 1.349 . S
C701 C703 1.327 . S
C701 H724 0.950 . S
C702 C701 1.349 . S
C702 C714 1.349 . S
C703 C701 1.327 . S
C703 C719 1.429 . S
C703 H725 0.950 . S
C704 H700 0.949 . S
C704 C712 1.574 . S
C704 C720 1.368 . S
H705 C713 0.950 . S
H706 C711 0.950 . S
H707 C712 0.949 . S
H708 C714 0.950 . S
H709 C715 0.950 . S
H710 C716 0.949 . S
C711 H706 0.950 . S
C711 C713 1.327 . S
C711 C717 1.429 . S
C712 C704 1.574 . S
C712 H707 0.949 . S
C712 C718 1.368 . S
C713 C697 1.349 . S
C713 H705 0.950 . S
C713 C711 1.327 . S
C714 C702 1.349 . S
C714 H708 0.950 . S
C714 C715 1.327 . S
C715 H709 0.950 . S
C715 C714 1.327 . S
C715 C719 1.429 . S
C716 C699 1.574 . S
C716 H710 0.949 . S
C716 C720 1.368 . S
C717 C698 1.429 . S
C717 C711 1.429 . S
C717 C718 1.523 . S
C718 C699 1.368 . S
C718 C712 1.368 . S
C718 C717 1.523 . S
C719 C703 1.429 . S
C719 C715 1.429 . S
C719 C720 1.523 . S
C720 C704 1.368 . S
C720 C716 1.368 . S
C720 C719 1.523 . S
H721 C696 0.950 . S
H722 C698 0.950 . S
H723 C699 0.949 . S
H724 C701 0.950 . S
H725 C703 0.950 . S
C726 C727 1.349 . S
C726 C728 1.327 . S
C726 H751 0.950 . S
C727 C726 1.349 . S
C727 C743 1.349 . S
C728 C726 1.327 . S
C728 C747 1.429 . S
C728 H752 0.950 . S
C729 C746 1.574 . S
C729 C748 1.368 . S
C729 H753 0.949 . S
H730 C734 0.949 . S
C731 C732 1.349 . S
C731 C733 1.327 . S
C731 H754 0.950 . S
C732 C731 1.349 . S
C732 C744 1.349 . S
C733 C731 1.327 . S
C733 C749 1.429 . S
C733 H755 0.950 . S
C734 H730 0.949 . S
C734 C742 1.574 . S
C734 C750 1.368 . S
H735 C743 0.950 . S
H736 C741 0.950 . S
H737 C742 0.949 . S
H738 C744 0.950 . S
H739 C745 0.950 . S
H740 C746 0.949 . S
C741 H736 0.950 . S
C741 C743 1.327 . S
C741 C747 1.429 . S
C742 C734 1.574 . S
C742 H737 0.949 . S
C742 C748 1.368 . S
C743 C727 1.349 . S
C743 H735 0.950 . S
C743 C741 1.327 . S
C744 C732 1.349 . S
C744 H738 0.950 . S
C744 C745 1.327 . S
C745 H739 0.950 . S
C745 C744 1.327 . S
C745 C749 1.429 . S
C746 C729 1.574 . S
C746 H740 0.949 . S
C746 C750 1.368 . S
C747 C728 1.429 . S
C747 C741 1.429 . S
C747 C748 1.523 . S
C748 C729 1.368 . S
C748 C742 1.368 . S
C748 C747 1.523 . S
C749 C733 1.429 . S
C749 C745 1.429 . S
C749 C750 1.523 . S
C750 C734 1.368 . S
C750 C746 1.368 . S
C750 C749 1.523 . S
H751 C726 0.950 . S
H752 C728 0.950 . S
H753 C729 0.949 . S
H754 C731 0.950 . S
H755 C733 0.950 . S
C756 C757 1.349 . S
C756 C758 1.327 . S
C756 H781 0.950 . S
C757 C756 1.349 . S
C757 C773 1.349 . S
C758 C756 1.327 . S
C758 C777 1.429 . S
C758 H782 0.950 . S
C759 C776 1.574 . S
C759 C778 1.368 . S
C759 H783 0.949 . S
H760 C764 0.949 . S
C761 C762 1.349 . S
C761 C763 1.327 . S
C761 H784 0.950 . S
C762 C761 1.349 . S
C762 C774 1.349 . S
C763 C761 1.327 . S
C763 C779 1.429 . S
C763 H785 0.950 . S
C764 H760 0.949 . S
C764 C772 1.574 . S
C764 C780 1.368 . S
H765 C773 0.950 . S
H766 C771 0.950 . S
H767 C772 0.949 . S
H768 C774 0.950 . S
H769 C775 0.950 . S
H770 C776 0.949 . S
C771 H766 0.950 . S
C771 C773 1.327 . S
C771 C777 1.429 . S
C772 C764 1.574 . S
C772 H767 0.949 . S
C772 C778 1.368 . S
C773 C757 1.349 . S
C773 H765 0.950 . S
C773 C771 1.327 . S
C774 C762 1.349 . S
C774 H768 0.950 . S
C774 C775 1.327 . S
C775 H769 0.950 . S
C775 C774 1.327 . S
C775 C779 1.429 . S
C776 C759 1.574 . S
C776 H770 0.949 . S
C776 C780 1.368 . S
C777 C758 1.429 . S
C777 C771 1.429 . S
C777 C778 1.523 . S
C778 C759 1.368 . S
C778 C772 1.368 . S
C778 C777 1.523 . S
C779 C763 1.429 . S
C779 C775 1.429 . S
C779 C780 1.523 . S
C780 C764 1.368 . S
C780 C776 1.368 . S
C780 C779 1.523 . S
H781 C756 0.950 . S
H782 C758 0.950 . S
H783 C759 0.949 . S
H784 C761 0.950 . S
H785 C763 0.950 . S
C786 C787 1.349 . S
C786 C788 1.327 . S
C786 H811 0.950 . S
C787 C786 1.349 . S
C787 C803 1.349 . S
C788 C786 1.327 . S
C788 C807 1.429 . S
C788 H812 0.950 . S
C789 C806 1.574 . S
C789 C808 1.368 . S
C789 H813 0.949 . S
H790 C794 0.949 . S
C791 C792 1.349 . S
C791 C793 1.327 . S
C791 H814 0.950 . S
C792 C791 1.349 . S
C792 C804 1.349 . S
C793 C791 1.327 . S
C793 C809 1.429 . S
C793 H815 0.950 . S
C794 H790 0.949 . S
C794 C802 1.574 . S
C794 C810 1.368 . S
H795 C803 0.950 . S
H796 C801 0.950 . S
H797 C802 0.949 . S
H798 C804 0.950 . S
H799 C805 0.950 . S
H800 C806 0.949 . S
C801 H796 0.950 . S
C801 C803 1.327 . S
C801 C807 1.429 . S
C802 C794 1.574 . S
C802 H797 0.949 . S
C802 C808 1.368 . S
C803 C787 1.349 . S
C803 H795 0.950 . S
C803 C801 1.327 . S
C804 C792 1.349 . S
C804 H798 0.950 . S
C804 C805 1.327 . S
C805 H799 0.950 . S
C805 C804 1.327 . S
C805 C809 1.429 . S
C806 C789 1.574 . S
C806 H800 0.949 . S
C806 C810 1.368 . S
C807 C788 1.429 . S
C807 C801 1.429 . S
C807 C808 1.523 . S
C808 C789 1.368 . S
C808 C802 1.368 . S
C808 C807 1.523 . S
C809 C793 1.429 . S
C809 C805 1.429 . S
C809 C810 1.523 . S
C810 C794 1.368 . S
C810 C806 1.368 . S
C810 C809 1.523 . S
H811 C786 0.950 . S
H812 C788 0.950 . S
H813 C789 0.949 . S
H814 C791 0.950 . S
H815 C793 0.950 . S
C816 C817 1.349 . S
C816 C818 1.327 . S
C816 H841 0.950 . S
C817 C816 1.349 . S
C817 C833 1.349 . S
C818 C816 1.327 . S
C818 C837 1.429 . S
C818 H842 0.950 . S
C819 C836 1.574 . S
C819 C838 1.368 . S
C819 H843 0.949 . S
H820 C824 0.949 . S
C821 C822 1.349 . S
C821 C823 1.327 . S
C821 H844 0.950 . S
C822 C821 1.349 . S
C822 C834 1.349 . S
C823 C821 1.327 . S
C823 C839 1.429 . S
C823 H845 0.950 . S
C824 H820 0.949 . S
C824 C832 1.574 . S
C824 C840 1.368 . S
H825 C833 0.950 . S
H826 C831 0.950 . S
H827 C832 0.949 . S
H828 C834 0.950 . S
H829 C835 0.950 . S
H830 C836 0.949 . S
C831 H826 0.950 . S
C831 C833 1.327 . S
C831 C837 1.429 . S
C832 C824 1.574 . S
C832 H827 0.949 . S
C832 C838 1.368 . S
C833 C817 1.349 . S
C833 H825 0.950 . S
C833 C831 1.327 . S
C834 C822 1.349 . S
C834 H828 0.950 . S
C834 C835 1.327 . S
C835 H829 0.950 . S
C835 C834 1.327 . S
C835 C839 1.429 . S
C836 C819 1.574 . S
C836 H830 0.949 . S
C836 C840 1.368 . S
C837 C818 1.429 . S
C837 C831 1.429 . S
C837 C838 1.523 . S
C838 C819 1.368 . S
C838 C832 1.368 . S
C838 C837 1.523 . S
C839 C823 1.429 . S
C839 C835 1.429 . S
C839 C840 1.523 . S
C840 C824 1.368 . S
C840 C836 1.368 . S
C840 C839 1.523 . S
H841 C816 0.950 . S
H842 C818 0.950 . S
H843 C819 0.949 . S
H844 C821 0.950 . S
H845 C823 0.950 . S
C846 C847 1.349 . S
C846 C848 1.327 . S
C846 H871 0.950 . S
C847 C846 1.349 . S
C847 C863 1.349 . S
C848 C846 1.327 . S
C848 C867 1.429 . S
C848 H872 0.950 . S
C849 C866 1.574 . S
C849 C868 1.368 . S
C849 H873 0.949 . S
H850 C854 0.949 . S
C851 C852 1.349 . S
C851 C853 1.327 . S
C851 H874 0.950 . S
C852 C851 1.349 . S
C852 C864 1.349 . S
C853 C851 1.327 . S
C853 C869 1.429 . S
C853 H875 0.950 . S
C854 H850 0.949 . S
C854 C862 1.574 . S
C854 C870 1.368 . S
H855 C863 0.950 . S
H856 C861 0.950 . S
H857 C862 0.949 . S
H858 C864 0.950 . S
H859 C865 0.950 . S
H860 C866 0.949 . S
C861 H856 0.950 . S
C861 C863 1.327 . S
C861 C867 1.429 . S
C862 C854 1.574 . S
C862 H857 0.949 . S
C862 C868 1.368 . S
C863 C847 1.349 . S
C863 H855 0.950 . S
C863 C861 1.327 . S
C864 C852 1.349 . S
C864 H858 0.950 . S
C864 C865 1.327 . S
C865 H859 0.950 . S
C865 C864 1.327 . S
C865 C869 1.429 . S
C866 C849 1.574 . S
C866 H860 0.949 . S
C866 C870 1.368 . S
C867 C848 1.429 . S
C867 C861 1.429 . S
C867 C868 1.523 . S
C868 C849 1.368 . S
C868 C862 1.368 . S
C868 C867 1.523 . S
C869 C853 1.429 . S
C869 C865 1.429 . S
C869 C870 1.523 . S
C870 C854 1.368 . S
C870 C866 1.368 . S
C870 C869 1.523 . S
H871 C846 0.950 . S
H872 C848 0.950 . S
H873 C849 0.949 . S
H874 C851 0.950 . S
H875 C853 0.950 . S
C876 C877 1.349 . S
C876 C878 1.327 . S
C876 H901 0.950 . S
C877 C876 1.349 . S
C877 C893 1.349 . S
C878 C876 1.327 . S
C878 C897 1.429 . S
C878 H902 0.950 . S
C879 C896 1.574 . S
C879 C898 1.368 . S
C879 H903 0.949 . S
H880 C884 0.949 . S
C881 C882 1.349 . S
C881 C883 1.327 . S
C881 H904 0.950 . S
C882 C881 1.349 . S
C882 C894 1.349 . S
C883 C881 1.327 . S
C883 C899 1.429 . S
C883 H905 0.950 . S
C884 H880 0.949 . S
C884 C892 1.574 . S
C884 C900 1.368 . S
H885 C893 0.950 . S
H886 C891 0.950 . S
H887 C892 0.949 . S
H888 C894 0.950 . S
H889 C895 0.950 . S
H890 C896 0.949 . S
C891 H886 0.950 . S
C891 C893 1.327 . S
C891 C897 1.429 . S
C892 C884 1.574 . S
C892 H887 0.949 . S
C892 C898 1.368 . S
C893 C877 1.349 . S
C893 H885 0.950 . S
C893 C891 1.327 . S
C894 C882 1.349 . S
C894 H888 0.950 . S
C894 C895 1.327 . S
C895 H889 0.950 . S
C895 C894 1.327 . S
C895 C899 1.429 . S
C896 C879 1.574 . S
C896 H890 0.949 . S
C896 C900 1.368 . S
C897 C878 1.429 . S
C897 C891 1.429 . S
C897 C898 1.523 . S
C898 C879 1.368 . S
C898 C892 1.368 . S
C898 C897 1.523 . S
C899 C883 1.429 . S
C899 C895 1.429 . S
C899 C900 1.523 . S
C900 C884 1.368 . S
C900 C896 1.368 . S
C900 C899 1.523 . S
H901 C876 0.950 . S
H902 C878 0.950 . S
H903 C879 0.949 . S
H904 C881 0.950 . S
H905 C883 0.950 . S
C906 C907 1.349 . S
C906 C908 1.327 . S
C906 H931 0.950 . S
C907 C906 1.349 . S
C907 C923 1.349 . S
C908 C906 1.327 . S
C908 C927 1.429 . S
C908 H932 0.950 . S
C909 C926 1.574 . S
C909 C928 1.368 . S
C909 H933 0.949 . S
H910 C914 0.949 . S
C911 C912 1.349 . S
C911 C913 1.327 . S
C911 H934 0.950 . S
C912 C911 1.349 . S
C912 C924 1.349 . S
C913 C911 1.327 . S
C913 C929 1.429 . S
C913 H935 0.950 . S
C914 H910 0.949 . S
C914 C922 1.574 . S
C914 C930 1.368 . S
H915 C923 0.950 . S
H916 C921 0.950 . S
H917 C922 0.949 . S
H918 C924 0.950 . S
H919 C925 0.950 . S
H920 C926 0.949 . S
C921 H916 0.950 . S
C921 C923 1.327 . S
C921 C927 1.429 . S
C922 C914 1.574 . S
C922 H917 0.949 . S
C922 C928 1.368 . S
C923 C907 1.349 . S
C923 H915 0.950 . S
C923 C921 1.327 . S
C924 C912 1.349 . S
C924 H918 0.950 . S
C924 C925 1.327 . S
C925 H919 0.950 . S
C925 C924 1.327 . S
C925 C929 1.429 . S
C926 C909 1.574 . S
C926 H920 0.949 . S
C926 C930 1.368 . S
C927 C908 1.429 . S
C927 C921 1.429 . S
C927 C928 1.523 . S
C928 C909 1.368 . S
C928 C922 1.368 . S
C928 C927 1.523 . S
C929 C913 1.429 . S
C929 C925 1.429 . S
C929 C930 1.523 . S
C930 C914 1.368 . S
C930 C926 1.368 . S
C930 C929 1.523 . S
H931 C906 0.950 . S
H932 C908 0.950 . S
H933 C909 0.949 . S
H934 C911 0.950 . S
H935 C913 0.950 . S
C936 C937 1.349 . S
C936 C938 1.327 . S
C936 H961 0.950 . S
C937 C936 1.349 . S
C937 C953 1.349 . S
C938 C936 1.327 . S
C938 C957 1.429 . S
C938 H962 0.950 . S
C939 C956 1.574 . S
C939 C958 1.368 . S
C939 H963 0.949 . S
H940 C944 0.949 . S
C941 C942 1.349 . S
C941 C943 1.327 . S
C941 H964 0.950 . S
C942 C941 1.349 . S
C942 C954 1.349 . S
C943 C941 1.327 . S
C943 C959 1.429 . S
C943 H965 0.950 . S
C944 H940 0.949 . S
C944 C952 1.574 . S
C944 C960 1.368 . S
H945 C953 0.950 . S
H946 C951 0.950 . S
H947 C952 0.949 . S
H948 C954 0.950 . S
H949 C955 0.950 . S
H950 C956 0.949 . S
C951 H946 0.950 . S
C951 C953 1.327 . S
C951 C957 1.429 . S
C952 C944 1.574 . S
C952 H947 0.949 . S
C952 C958 1.368 . S
C953 C937 1.349 . S
C953 H945 0.950 . S
C953 C951 1.327 . S
C954 C942 1.349 . S
C954 H948 0.950 . S
C954 C955 1.327 . S
C955 H949 0.950 . S
C955 C954 1.327 . S
C955 C959 1.429 . S
C956 C939 1.574 . S
C956 H950 0.949 . S
C956 C960 1.368 . S
C957 C938 1.429 . S
C957 C951 1.429 . S
C957 C958 1.523 . S
C958 C939 1.368 . S
C958 C952 1.368 . S
C958 C957 1.523 . S
C959 C943 1.429 . S
C959 C955 1.429 . S
C959 C960 1.523 . S
C960 C944 1.368 . S
C960 C956 1.368 . S
C960 C959 1.523 . S
H961 C936 0.950 . S
H962 C938 0.950 . S
H963 C939 0.949 . S
H964 C941 0.950 . S
H965 C943 0.950 . S
C966 C967 1.349 . S
C966 C968 1.327 . S
C966 H991 0.950 . S
C967 C966 1.349 . S
C967 C983 1.349 . S
C968 C966 1.327 . S
C968 C987 1.429 . S
C968 H992 0.950 . S
C969 C986 1.574 . S
C969 C988 1.368 . S
C969 H993 0.949 . S
H970 C974 0.949 . S
C971 C972 1.349 . S
C971 C973 1.327 . S
C971 H994 0.950 . S
C972 C971 1.349 . S
C972 C984 1.349 . S
C973 C971 1.327 . S
C973 C989 1.429 . S
C973 H995 0.950 . S
C974 H970 0.949 . S
C974 C982 1.574 . S
C974 C990 1.368 . S
H975 C983 0.950 . S
H976 C981 0.950 . S
H977 C982 0.949 . S
H978 C984 0.950 . S
H979 C985 0.950 . S
H980 C986 0.949 . S
C981 H976 0.950 . S
C981 C983 1.327 . S
C981 C987 1.429 . S
C982 C974 1.574 . S
C982 H977 0.949 . S
C982 C988 1.368 . S
C983 C967 1.349 . S
C983 H975 0.950 . S
C983 C981 1.327 . S
C984 C972 1.349 . S
C984 H978 0.950 . S
C984 C985 1.327 . S
C985 H979 0.950 . S
C985 C984 1.327 . S
C985 C989 1.429 . S
C986 C969 1.574 . S
C986 H980 0.949 . S
C986 C990 1.368 . S
C987 C968 1.429 . S
C987 C981 1.429 . S
C987 C988 1.523 . S
C988 C969 1.368 . S
C988 C982 1.368 . S
C988 C987 1.523 . S
C989 C973 1.429 . S
C989 C985 1.429 . S
C989 C990 1.523 . S
C990 C974 1.368 . S
C990 C986 1.368 . S
C990 C989 1.523 . S
H991 C966 0.950 . S
H992 C968 0.950 . S
H993 C969 0.949 . S
H994 C971 0.950 . S
H995 C973 0.950 . S
C996 C997 1.349 . S
C996 C998 1.327 . S
C996 H1021 0.950 . S
C997 C996 1.349 . S
C997 C1013 1.349 . S
C998 C996 1.327 . S
C998 C1017 1.429 . S
C998 H1022 0.950 . S
C999 C1016 1.574 . S
C999 C1018 1.368 . S
C999 H1023 0.949 . S
H1000 C1004 0.949 . S
C1001 C1002 1.349 . S
C1001 C1003 1.327 . S
C1001 H1024 0.950 . S
C1002 C1001 1.349 . S
C1002 C1014 1.349 . S
C1003 C1001 1.327 . S
C1003 C1019 1.429 . S
C1003 H1025 0.950 . S
C1004 H1000 0.949 . S
C1004 C1012 1.574 . S
C1004 C1020 1.368 . S
H1005 C1013 0.950 . S
H1006 C1011 0.950 . S
H1007 C1012 0.949 . S
H1008 C1014 0.950 . S
H1009 C1015 0.950 . S
H1010 C1016 0.949 . S
C1011 H1006 0.950 . S
C1011 C1013 1.327 . S
C1011 C1017 1.429 . S
C1012 C1004 1.574 . S
C1012 H1007 0.949 . S
C1012 C1018 1.368 . S
C1013 C997 1.349 . S
C1013 H1005 0.950 . S
C1013 C1011 1.327 . S
C1014 C1002 1.349 . S
C1014 H1008 0.950 . S
C1014 C1015 1.327 . S
C1015 H1009 0.950 . S
C1015 C1014 1.327 . S
C1015 C1019 1.429 . S
C1016 C999 1.574 . S
C1016 H1010 0.949 . S
C1016 C1020 1.368 . S
C1017 C998 1.429 . S
C1017 C1011 1.429 . S
C1017 C1018 1.523 . S
C1018 C999 1.368 . S
C1018 C1012 1.368 . S
C1018 C1017 1.523 . S
C1019 C1003 1.429 . S
C1019 C1015 1.429 . S
C1019 C1020 1.523 . S
C1020 C1004 1.368 . S
C1020 C1016 1.368 . S
C1020 C1019 1.523 . S
H1021 C996 0.950 . S
H1022 C998 0.950 . S
H1023 C999 0.949 . S
H1024 C1001 0.950 . S
H1025 C1003 0.950 . S
C1026 C1027 1.349 . S
C1026 C1028 1.327 . S
C1026 H1051 0.950 . S
C1027 C1026 1.349 . S
C1027 C1043 1.349 . S
C1028 C1026 1.327 . S
C1028 C1047 1.429 . S
C1028 H1052 0.950 . S
C1029 C1046 1.574 . S
C1029 C1048 1.368 . S
C1029 H1053 0.949 . S
H1030 C1034 0.949 . S
C1031 C1032 1.349 . S
C1031 C1033 1.327 . S
C1031 H1054 0.950 . S
C1032 C1031 1.349 . S
C1032 C1044 1.349 . S
C1033 C1031 1.327 . S
C1033 C1049 1.429 . S
C1033 H1055 0.950 . S
C1034 H1030 0.949 . S
C1034 C1042 1.574 . S
C1034 C1050 1.368 . S
H1035 C1043 0.950 . S
H1036 C1041 0.950 . S
H1037 C1042 0.949 . S
H1038 C1044 0.950 . S
H1039 C1045 0.950 . S
H1040 C1046 0.949 . S
C1041 H1036 0.950 . S
C1041 C1043 1.327 . S
C1041 C1047 1.429 . S
C1042 C1034 1.574 . S
C1042 H1037 0.949 . S
C1042 C1048 1.368 . S
C1043 C1027 1.349 . S
C1043 H1035 0.950 . S
C1043 C1041 1.327 . S
C1044 C1032 1.349 . S
C1044 H1038 0.950 . S
C1044 C1045 1.327 . S
C1045 H1039 0.950 . S
C1045 C1044 1.327 . S
C1045 C1049 1.429 . S
C1046 C1029 1.574 . S
C1046 H1040 0.949 . S
C1046 C1050 1.368 . S
C1047 C1028 1.429 . S
C1047 C1041 1.429 . S
C1047 C1048 1.523 . S
C1048 C1029 1.368 . S
C1048 C1042 1.368 . S
C1048 C1047 1.523 . S
C1049 C1033 1.429 . S
C1049 C1045 1.429 . S
C1049 C1050 1.523 . S
C1050 C1034 1.368 . S
C1050 C1046 1.368 . S
C1050 C1049 1.523 . S
H1051 C1026 0.950 . S
H1052 C1028 0.950 . S
H1053 C1029 0.949 . S
H1054 C1031 0.950 . S
H1055 C1033 0.950 . S
C1056 C1057 1.349 . S
C1056 C1058 1.327 . S
C1056 H1081 0.950 . S
C1057 C1056 1.349 . S
C1057 C1073 1.349 . S
C1058 C1056 1.327 . S
C1058 C1077 1.429 . S
C1058 H1082 0.950 . S
C1059 C1076 1.574 1_455 S
C1059 C1078 1.368 . S
C1059 H1083 0.949 . S
H1060 C1064 0.949 . S
C1061 C1062 1.349 . S
C1061 C1063 1.327 . S
C1061 H1084 0.950 . S
C1062 C1061 1.349 . S
C1062 C1074 1.349 . S
C1063 C1061 1.327 . S
C1063 C1079 1.429 . S
C1063 H1085 0.950 . S
C1064 H1060 0.949 . S
C1064 C1072 1.574 1_655 S
C1064 C1080 1.368 . S
H1065 C1073 0.950 . S
H1066 C1071 0.950 . S
H1067 C1072 0.949 . S
H1068 C1074 0.950 . S
H1069 C1075 0.950 . S
H1070 C1076 0.949 . S
C1071 H1066 0.950 . S
C1071 C1073 1.327 . S
C1071 C1077 1.429 . S
C1072 C1064 1.574 1_455 S
C1072 H1067 0.949 . S
C1072 C1078 1.368 . S
C1073 C1057 1.349 . S
C1073 H1065 0.950 . S
C1073 C1071 1.327 . S
C1074 C1062 1.349 . S
C1074 H1068 0.950 . S
C1074 C1075 1.327 . S
C1075 H1069 0.950 . S
C1075 C1074 1.327 . S
C1075 C1079 1.429 . S
C1076 C1059 1.574 1_655 S
C1076 H1070 0.949 . S
C1076 C1080 1.368 . S
C1077 C1058 1.429 . S
C1077 C1071 1.429 . S
C1077 C1078 1.523 . S
C1078 C1059 1.368 . S
C1078 C1072 1.368 . S
C1078 C1077 1.523 . S
C1079 C1063 1.429 . S
C1079 C1075 1.429 . S
C1079 C1080 1.523 . S
C1080 C1064 1.368 . S
C1080 C1076 1.368 . S
C1080 C1079 1.523 . S
H1081 C1056 0.950 . S
H1082 C1058 0.950 . S
H1083 C1059 0.949 . S
H1084 C1061 0.950 . S
H1085 C1063 0.950 . S
C1086 C1087 1.349 . S
C1086 C1088 1.327 . S
C1086 H1111 0.950 . S
C1087 C1086 1.349 . S
C1087 C1103 1.349 . S
C1088 C1086 1.327 . S
C1088 C1107 1.429 . S
C1088 H1112 0.950 . S
C1089 C1106 1.574 1_545 S
C1089 C1108 1.368 . S
C1089 H1113 0.949 . S
H1090 C1094 0.949 . S
C1091 C1092 1.349 . S
C1091 C1093 1.327 . S
C1091 H1114 0.950 . S
C1092 C1091 1.349 . S
C1092 C1104 1.349 . S
C1093 C1091 1.327 . S
C1093 C1109 1.429 . S
C1093 H1115 0.950 . S
C1094 H1090 0.949 . S
C1094 C1102 1.574 1_565 S
C1094 C1110 1.368 . S
H1095 C1103 0.950 . S
H1096 C1101 0.950 . S
H1097 C1102 0.949 . S
H1098 C1104 0.950 . S
H1099 C1105 0.950 . S
H1100 C1106 0.949 . S
C1101 H1096 0.950 . S
C1101 C1103 1.327 . S
C1101 C1107 1.429 . S
C1102 C1094 1.574 1_545 S
C1102 H1097 0.949 . S
C1102 C1108 1.368 . S
C1103 C1087 1.349 . S
C1103 H1095 0.950 . S
C1103 C1101 1.327 . S
C1104 C1092 1.349 . S
C1104 H1098 0.950 . S
C1104 C1105 1.327 . S
C1105 H1099 0.950 . S
C1105 C1104 1.327 . S
C1105 C1109 1.429 . S
C1106 C1089 1.574 1_565 S
C1106 H1100 0.949 . S
C1106 C1110 1.368 . S
C1107 C1088 1.429 . S
C1107 C1101 1.429 . S
C1107 C1108 1.523 . S
C1108 C1089 1.368 . S
C1108 C1102 1.368 . S
C1108 C1107 1.523 . S
C1109 C1093 1.429 . S
C1109 C1105 1.429 . S
C1109 C1110 1.523 . S
C1110 C1094 1.368 . S
C1110 C1106 1.368 . S
C1110 C1109 1.523 . S
H1111 C1086 0.950 . S
H1112 C1088 0.950 . S
H1113 C1089 0.949 . S
H1114 C1091 0.950 . S
H1115 C1093 0.950 . S
C1116 C1117 1.349 . S
C1116 C1118 1.327 . S
C1116 H1141 0.950 . S
C1117 C1116 1.349 . S
C1117 C1133 1.349 . S
C1118 C1116 1.327 . S
C1118 C1137 1.429 . S
C1118 H1142 0.950 . S
C1119 C1136 1.574 1_655 S
C1119 C1138 1.368 . S
C1119 H1143 0.949 . S
H1120 C1124 0.949 . S
C1121 C1122 1.349 . S
C1121 C1123 1.327 . S
C1121 H1144 0.950 . S
C1122 C1121 1.349 . S
C1122 C1134 1.349 . S
C1123 C1121 1.327 . S
C1123 C1139 1.429 . S
C1123 H1145 0.950 . S
C1124 H1120 0.949 . S
C1124 C1132 1.574 1_455 S
C1124 C1140 1.368 . S
H1125 C1133 0.950 . S
H1126 C1131 0.950 . S
H1127 C1132 0.949 . S
H1128 C1134 0.950 . S
H1129 C1135 0.950 . S
H1130 C1136 0.949 . S
C1131 H1126 0.950 . S
C1131 C1133 1.327 . S
C1131 C1137 1.429 . S
C1132 C1124 1.574 1_655 S
C1132 H1127 0.949 . S
C1132 C1138 1.368 . S
C1133 C1117 1.349 . S
C1133 H1125 0.950 . S
C1133 C1131 1.327 . S
C1134 C1122 1.349 . S
C1134 H1128 0.950 . S
C1134 C1135 1.327 . S
C1135 H1129 0.950 . S
C1135 C1134 1.327 . S
C1135 C1139 1.429 . S
C1136 C1119 1.574 1_455 S
C1136 H1130 0.949 . S
C1136 C1140 1.368 . S
C1137 C1118 1.429 . S
C1137 C1131 1.429 . S
C1137 C1138 1.523 . S
C1138 C1119 1.368 . S
C1138 C1132 1.368 . S
C1138 C1137 1.523 . S
C1139 C1123 1.429 . S
C1139 C1135 1.429 . S
C1139 C1140 1.523 . S
C1140 C1124 1.368 . S
C1140 C1136 1.368 . S
C1140 C1139 1.523 . S
H1141 C1116 0.950 . S
H1142 C1118 0.950 . S
H1143 C1119 0.949 . S
H1144 C1121 0.950 . S
H1145 C1123 0.950 . S
C1146 C1147 1.349 . S
C1146 C1148 1.327 . S
C1146 H1171 0.950 . S
C1147 C1146 1.349 . S
C1147 C1163 1.349 . S
C1148 C1146 1.327 . S
C1148 C1167 1.429 . S
C1148 H1172 0.950 . S
C1149 C1166 1.574 1_545 S
C1149 C1168 1.368 . S
C1149 H1173 0.949 . S
H1150 C1154 0.949 . S
C1151 C1152 1.349 . S
C1151 C1153 1.327 . S
C1151 H1174 0.950 . S
C1152 C1151 1.349 . S
C1152 C1164 1.349 . S
C1153 C1151 1.327 . S
C1153 C1169 1.429 . S
C1153 H1175 0.950 . S
C1154 H1150 0.949 . S
C1154 C1162 1.574 1_565 S
C1154 C1170 1.368 . S
H1155 C1163 0.950 . S
H1156 C1161 0.950 . S
H1157 C1162 0.949 . S
H1158 C1164 0.950 . S
H1159 C1165 0.950 . S
H1160 C1166 0.949 . S
C1161 H1156 0.950 . S
C1161 C1163 1.327 . S
C1161 C1167 1.429 . S
C1162 C1154 1.574 1_545 S
C1162 H1157 0.949 . S
C1162 C1168 1.368 . S
C1163 C1147 1.349 . S
C1163 H1155 0.950 . S
C1163 C1161 1.327 . S
C1164 C1152 1.349 . S
C1164 H1158 0.950 . S
C1164 C1165 1.327 . S
C1165 H1159 0.950 . S
C1165 C1164 1.327 . S
C1165 C1169 1.429 . S
C1166 C1149 1.574 1_565 S
C1166 H1160 0.949 . S
C1166 C1170 1.368 . S
C1167 C1148 1.429 . S
C1167 C1161 1.429 . S
C1167 C1168 1.523 . S
C1168 C1149 1.368 . S
C1168 C1162 1.368 . S
C1168 C1167 1.523 . S
C1169 C1153 1.429 . S
C1169 C1165 1.429 . S
C1169 C1170 1.523 . S
C1170 C1154 1.368 . S
C1170 C1166 1.368 . S
C1170 C1169 1.523 . S
H1171 C1146 0.950 . S
H1172 C1148 0.950 . S
H1173 C1149 0.949 . S
H1174 C1151 0.950 . S
H1175 C1153 0.950 . S
C1176 C1177 1.349 . S
C1176 C1178 1.327 . S
C1176 H1201 0.950 . S
C1177 C1176 1.349 . S
C1177 C1193 1.349 . S
C1178 C1176 1.327 . S
C1178 C1197 1.429 . S
C1178 H1202 0.950 . S
C1179 C1196 1.574 1_565 S
C1179 C1198 1.368 . S
C1179 H1203 0.949 . S
H1180 C1184 0.949 . S
C1181 C1182 1.349 . S
C1181 C1183 1.327 . S
C1181 H1204 0.950 . S
C1182 C1181 1.349 . S
C1182 C1194 1.349 . S
C1183 C1181 1.327 . S
C1183 C1199 1.429 . S
C1183 H1205 0.950 . S
C1184 H1180 0.949 . S
C1184 C1192 1.574 1_545 S
C1184 C1200 1.368 . S
H1185 C1193 0.950 . S
H1186 C1191 0.950 . S
H1187 C1192 0.949 . S
H1188 C1194 0.950 . S
H1189 C1195 0.950 . S
H1190 C1196 0.949 . S
C1191 H1186 0.950 . S
C1191 C1193 1.327 . S
C1191 C1197 1.429 . S
C1192 C1184 1.574 1_565 S
C1192 H1187 0.949 . S
C1192 C1198 1.368 . S
C1193 C1177 1.349 . S
C1193 H1185 0.950 . S
C1193 C1191 1.327 . S
C1194 C1182 1.349 . S
C1194 H1188 0.950 . S
C1194 C1195 1.327 . S
C1195 H1189 0.950 . S
C1195 C1194 1.327 . S
C1195 C1199 1.429 . S
C1196 C1179 1.574 1_545 S
C1196 H1190 0.949 . S
C1196 C1200 1.368 . S
C1197 C1178 1.429 . S
C1197 C1191 1.429 . S
C1197 C1198 1.523 . S
C1198 C1179 1.368 . S
C1198 C1192 1.368 . S
C1198 C1197 1.523 . S
C1199 C1183 1.429 . S
C1199 C1195 1.429 . S
C1199 C1200 1.523 . S
C1200 C1184 1.368 . S
C1200 C1196 1.368 . S
C1200 C1199 1.523 . S
H1201 C1176 0.950 . S
H1202 C1178 0.950 . S
H1203 C1179 0.949 . S
H1204 C1181 0.950 . S
H1205 C1183 0.950 . S
C1206 C1207 1.349 . S
C1206 C1208 1.327 . S
C1206 H1231 0.950 . S
C1207 C1206 1.349 . S
C1207 C1223 1.349 . S
C1208 C1206 1.327 . S
C1208 C1227 1.429 . S
C1208 H1232 0.950 . S
C1209 C1226 1.574 1_655 S
C1209 C1228 1.368 . S
C1209 H1233 0.949 . S
H1210 C1214 0.949 . S
C1211 C1212 1.349 . S
C1211 C1213 1.327 . S
C1211 H1234 0.950 . S
C1212 C1211 1.349 . S
C1212 C1224 1.349 . S
C1213 C1211 1.327 . S
C1213 C1229 1.429 . S
C1213 H1235 0.950 . S
C1214 H1210 0.949 . S
C1214 C1222 1.574 1_455 S
C1214 C1230 1.368 . S
H1215 C1223 0.950 . S
H1216 C1221 0.950 . S
H1217 C1222 0.949 . S
H1218 C1224 0.950 . S
H1219 C1225 0.950 . S
H1220 C1226 0.949 . S
C1221 H1216 0.950 . S
C1221 C1223 1.327 . S
C1221 C1227 1.429 . S
C1222 C1214 1.574 1_655 S
C1222 H1217 0.949 . S
C1222 C1228 1.368 . S
C1223 C1207 1.349 . S
C1223 H1215 0.950 . S
C1223 C1221 1.327 . S
C1224 C1212 1.349 . S
C1224 H1218 0.950 . S
C1224 C1225 1.327 . S
C1225 H1219 0.950 . S
C1225 C1224 1.327 . S
C1225 C1229 1.429 . S
C1226 C1209 1.574 1_455 S
C1226 H1220 0.949 . S
C1226 C1230 1.368 . S
C1227 C1208 1.429 . S
C1227 C1221 1.429 . S
C1227 C1228 1.523 . S
C1228 C1209 1.368 . S
C1228 C1222 1.368 . S
C1228 C1227 1.523 . S
C1229 C1213 1.429 . S
C1229 C1225 1.429 . S
C1229 C1230 1.523 . S
C1230 C1214 1.368 . S
C1230 C1226 1.368 . S
C1230 C1229 1.523 . S
H1231 C1206 0.950 . S
H1232 C1208 0.950 . S
H1233 C1209 0.949 . S
H1234 C1211 0.950 . S
H1235 C1213 0.950 . S
C1236 C1237 1.349 . S
C1236 C1238 1.327 . S
C1236 H1261 0.950 . S
C1237 C1236 1.349 . S
C1237 C1253 1.349 . S
C1238 C1236 1.327 . S
C1238 C1257 1.429 . S
C1238 H1262 0.950 . S
C1239 C1256 1.574 1_565 S
C1239 C1258 1.368 . S
C1239 H1263 0.949 . S
H1240 C1244 0.949 . S
C1241 C1242 1.349 . S
C1241 C1243 1.327 . S
C1241 H1264 0.950 . S
C1242 C1241 1.349 . S
C1242 C1254 1.349 . S
C1243 C1241 1.327 . S
C1243 C1259 1.429 . S
C1243 H1265 0.950 . S
C1244 H1240 0.949 . S
C1244 C1252 1.574 1_545 S
C1244 C1260 1.368 . S
H1245 C1253 0.950 . S
H1246 C1251 0.950 . S
H1247 C1252 0.949 . S
H1248 C1254 0.950 . S
H1249 C1255 0.950 . S
H1250 C1256 0.949 . S
C1251 H1246 0.950 . S
C1251 C1253 1.327 . S
C1251 C1257 1.429 . S
C1252 C1244 1.574 1_565 S
C1252 H1247 0.949 . S
C1252 C1258 1.368 . S
C1253 C1237 1.349 . S
C1253 H1245 0.950 . S
C1253 C1251 1.327 . S
C1254 C1242 1.349 . S
C1254 H1248 0.950 . S
C1254 C1255 1.327 . S
C1255 H1249 0.950 . S
C1255 C1254 1.327 . S
C1255 C1259 1.429 . S
C1256 C1239 1.574 1_545 S
C1256 H1250 0.949 . S
C1256 C1260 1.368 . S
C1257 C1238 1.429 . S
C1257 C1251 1.429 . S
C1257 C1258 1.523 . S
C1258 C1239 1.368 . S
C1258 C1252 1.368 . S
C1258 C1257 1.523 . S
C1259 C1243 1.429 . S
C1259 C1255 1.429 . S
C1259 C1260 1.523 . S
C1260 C1244 1.368 . S
C1260 C1256 1.368 . S
C1260 C1259 1.523 . S
H1261 C1236 0.950 . S
H1262 C1238 0.950 . S
H1263 C1239 0.949 . S
H1264 C1241 0.950 . S
H1265 C1243 0.950 . S
C1266 C1267 1.349 . S
C1266 C1268 1.327 . S
C1266 H1291 0.950 . S
C1267 C1266 1.349 . S
C1267 C1283 1.349 . S
C1268 C1266 1.327 . S
C1268 C1287 1.429 . S
C1268 H1292 0.950 . S
C1269 C1286 1.574 1_655 S
C1269 C1288 1.368 . S
C1269 H1293 0.949 . S
H1270 C1274 0.949 . S
C1271 C1272 1.349 . S
C1271 C1273 1.327 . S
C1271 H1294 0.950 . S
C1272 C1271 1.349 . S
C1272 C1284 1.349 . S
C1273 C1271 1.327 . S
C1273 C1289 1.429 . S
C1273 H1295 0.950 . S
C1274 H1270 0.949 . S
C1274 C1282 1.574 1_455 S
C1274 C1290 1.368 . S
H1275 C1283 0.950 . S
H1276 C1281 0.950 . S
H1277 C1282 0.949 . S
H1278 C1284 0.950 . S
H1279 C1285 0.950 . S
H1280 C1286 0.949 . S
C1281 H1276 0.950 . S
C1281 C1283 1.327 . S
C1281 C1287 1.429 . S
C1282 C1274 1.574 1_655 S
C1282 H1277 0.949 . S
C1282 C1288 1.368 . S
C1283 C1267 1.349 . S
C1283 H1275 0.950 . S
C1283 C1281 1.327 . S
C1284 C1272 1.349 . S
C1284 H1278 0.950 . S
C1284 C1285 1.327 . S
C1285 H1279 0.950 . S
C1285 C1284 1.327 . S
C1285 C1289 1.429 . S
C1286 C1269 1.574 1_455 S
C1286 H1280 0.949 . S
C1286 C1290 1.368 . S
C1287 C1268 1.429 . S
C1287 C1281 1.429 . S
C1287 C1288 1.523 . S
C1288 C1269 1.368 . S
C1288 C1282 1.368 . S
C1288 C1287 1.523 . S
C1289 C1273 1.429 . S
C1289 C1285 1.429 . S
C1289 C1290 1.523 . S
C1290 C1274 1.368 . S
C1290 C1286 1.368 . S
C1290 C1289 1.523 . S
H1291 C1266 0.950 . S
H1292 C1268 0.950 . S
H1293 C1269 0.949 . S
H1294 C1271 0.950 . S
H1295 C1273 0.950 . S
C1296 C1297 1.349 . S
C1296 C1298 1.327 . S
C1296 H1321 0.950 . S
C1297 C1296 1.349 . S
C1297 C1313 1.349 . S
C1298 C1296 1.327 . S
C1298 C1317 1.429 . S
C1298 H1322 0.950 . S
C1299 C1316 1.574 1_556 S
C1299 C1318 1.368 . S
C1299 H1323 0.949 . S
H1300 C1304 0.949 . S
C1301 C1302 1.349 . S
C1301 C1303 1.327 . S
C1301 H1324 0.950 . S
C1302 C1301 1.349 . S
C1302 C1314 1.349 . S
C1303 C1301 1.327 . S
C1303 C1319 1.429 . S
C1303 H1325 0.950 . S
C1304 H1300 0.949 . S
C1304 C1312 1.574 1_554 S
C1304 C1320 1.368 . S
H1305 C1313 0.950 . S
H1306 C1311 0.950 . S
H1307 C1312 0.949 . S
H1308 C1314 0.950 . S
H1309 C1315 0.950 . S
H1310 C1316 0.949 . S
C1311 H1306 0.950 . S
C1311 C1313 1.327 . S
C1311 C1317 1.429 . S
C1312 C1304 1.574 1_556 S
C1312 H1307 0.949 . S
C1312 C1318 1.368 . S
C1313 C1297 1.349 . S
C1313 H1305 0.950 . S
C1313 C1311 1.327 . S
C1314 C1302 1.349 . S
C1314 H1308 0.950 . S
C1314 C1315 1.327 . S
C1315 H1309 0.950 . S
C1315 C1314 1.327 . S
C1315 C1319 1.429 . S
C1316 C1299 1.574 1_554 S
C1316 H1310 0.949 . S
C1316 C1320 1.368 . S
C1317 C1298 1.429 . S
C1317 C1311 1.429 . S
C1317 C1318 1.523 . S
C1318 C1299 1.368 . S
C1318 C1312 1.368 . S
C1318 C1317 1.523 . S
C1319 C1303 1.429 . S
C1319 C1315 1.429 . S
C1319 C1320 1.523 . S
C1320 C1304 1.368 . S
C1320 C1316 1.368 . S
C1320 C1319 1.523 . S
H1321 C1296 0.950 . S
H1322 C1298 0.950 . S
H1323 C1299 0.949 . S
H1324 C1301 0.950 . S
H1325 C1303 0.950 . S
C1326 C1327 1.349 . S
C1326 C1328 1.327 . S
C1326 H1351 0.950 . S
C1327 C1326 1.349 . S
C1327 C1343 1.349 . S
C1328 C1326 1.327 . S
C1328 C1347 1.429 . S
C1328 H1352 0.950 . S
C1329 C1346 1.574 1_556 S
C1329 C1348 1.368 . S
C1329 H1353 0.949 . S
H1330 C1334 0.949 . S
C1331 C1332 1.349 . S
C1331 C1333 1.327 . S
C1331 H1354 0.950 . S
C1332 C1331 1.349 . S
C1332 C1344 1.349 . S
C1333 C1331 1.327 . S
C1333 C1349 1.429 . S
C1333 H1355 0.950 . S
C1334 H1330 0.949 . S
C1334 C1342 1.574 1_554 S
C1334 C1350 1.368 . S
H1335 C1343 0.950 . S
H1336 C1341 0.950 . S
H1337 C1342 0.949 . S
H1338 C1344 0.950 . S
H1339 C1345 0.950 . S
H1340 C1346 0.949 . S
C1341 H1336 0.950 . S
C1341 C1343 1.327 . S
C1341 C1347 1.429 . S
C1342 C1334 1.574 1_556 S
C1342 H1337 0.949 . S
C1342 C1348 1.368 . S
C1343 C1327 1.349 . S
C1343 H1335 0.950 . S
C1343 C1341 1.327 . S
C1344 C1332 1.349 . S
C1344 H1338 0.950 . S
C1344 C1345 1.327 . S
C1345 H1339 0.950 . S
C1345 C1344 1.327 . S
C1345 C1349 1.429 . S
C1346 C1329 1.574 1_554 S
C1346 H1340 0.949 . S
C1346 C1350 1.368 . S
C1347 C1328 1.429 . S
C1347 C1341 1.429 . S
C1347 C1348 1.523 . S
C1348 C1329 1.368 . S
C1348 C1342 1.368 . S
C1348 C1347 1.523 . S
C1349 C1333 1.429 . S
C1349 C1345 1.429 . S
C1349 C1350 1.523 . S
C1350 C1334 1.368 . S
C1350 C1346 1.368 . S
C1350 C1349 1.523 . S
H1351 C1326 0.950 . S
H1352 C1328 0.950 . S
H1353 C1329 0.949 . S
H1354 C1331 0.950 . S
H1355 C1333 0.950 . S
C1356 C1357 1.349 . S
C1356 C1358 1.327 . S
C1356 H1381 0.950 . S
C1357 C1356 1.349 . S
C1357 C1373 1.349 . S
C1358 C1356 1.327 . S
C1358 C1377 1.429 . S
C1358 H1382 0.950 . S
C1359 C1376 1.574 1_556 S
C1359 C1378 1.368 . S
C1359 H1383 0.949 . S
H1360 C1364 0.949 . S
C1361 C1362 1.349 . S
C1361 C1363 1.327 . S
C1361 H1384 0.950 . S
C1362 C1361 1.349 . S
C1362 C1374 1.349 . S
C1363 C1361 1.327 . S
C1363 C1379 1.429 . S
C1363 H1385 0.950 . S
C1364 H1360 0.949 . S
C1364 C1372 1.574 1_554 S
C1364 C1380 1.368 . S
H1365 C1373 0.950 . S
H1366 C1371 0.950 . S
H1367 C1372 0.949 . S
H1368 C1374 0.950 . S
H1369 C1375 0.950 . S
H1370 C1376 0.949 . S
C1371 H1366 0.950 . S
C1371 C1373 1.327 . S
C1371 C1377 1.429 . S
C1372 C1364 1.574 1_556 S
C1372 H1367 0.949 . S
C1372 C1378 1.368 . S
C1373 C1357 1.349 . S
C1373 H1365 0.950 . S
C1373 C1371 1.327 . S
C1374 C1362 1.349 . S
C1374 H1368 0.950 . S
C1374 C1375 1.327 . S
C1375 H1369 0.950 . S
C1375 C1374 1.327 . S
C1375 C1379 1.429 . S
C1376 C1359 1.574 1_554 S
C1376 H1370 0.949 . S
C1376 C1380 1.368 . S
C1377 C1358 1.429 . S
C1377 C1371 1.429 . S
C1377 C1378 1.523 . S
C1378 C1359 1.368 . S
C1378 C1372 1.368 . S
C1378 C1377 1.523 . S
C1379 C1363 1.429 . S
C1379 C1375 1.429 . S
C1379 C1380 1.523 . S
C1380 C1364 1.368 . S
C1380 C1376 1.368 . S
C1380 C1379 1.523 . S
H1381 C1356 0.950 . S
H1382 C1358 0.950 . S
H1383 C1359 0.949 . S
H1384 C1361 0.950 . S
H1385 C1363 0.950 . S
C1386 C1387 1.349 . S
C1386 C1388 1.327 . S
C1386 H1411 0.950 . S
C1387 C1386 1.349 . S
C1387 C1403 1.349 . S
C1388 C1386 1.327 . S
C1388 C1407 1.429 . S
C1388 H1412 0.950 . S
C1389 C1406 1.574 1_556 S
C1389 C1408 1.368 . S
C1389 H1413 0.949 . S
H1390 C1394 0.949 . S
C1391 C1392 1.349 . S
C1391 C1393 1.327 . S
C1391 H1414 0.950 . S
C1392 C1391 1.349 . S
C1392 C1404 1.349 . S
C1393 C1391 1.327 . S
C1393 C1409 1.429 . S
C1393 H1415 0.950 . S
C1394 H1390 0.949 . S
C1394 C1402 1.574 1_554 S
C1394 C1410 1.368 . S
H1395 C1403 0.950 . S
H1396 C1401 0.950 . S
H1397 C1402 0.949 . S
H1398 C1404 0.950 . S
H1399 C1405 0.950 . S
H1400 C1406 0.949 . S
C1401 H1396 0.950 . S
C1401 C1403 1.327 . S
C1401 C1407 1.429 . S
C1402 C1394 1.574 1_556 S
C1402 H1397 0.949 . S
C1402 C1408 1.368 . S
C1403 C1387 1.349 . S
C1403 H1395 0.950 . S
C1403 C1401 1.327 . S
C1404 C1392 1.349 . S
C1404 H1398 0.950 . S
C1404 C1405 1.327 . S
C1405 H1399 0.950 . S
C1405 C1404 1.327 . S
C1405 C1409 1.429 . S
C1406 C1389 1.574 1_554 S
C1406 H1400 0.949 . S
C1406 C1410 1.368 . S
C1407 C1388 1.429 . S
C1407 C1401 1.429 . S
C1407 C1408 1.523 . S
C1408 C1389 1.368 . S
C1408 C1402 1.368 . S
C1408 C1407 1.523 . S
C1409 C1393 1.429 . S
C1409 C1405 1.429 . S
C1409 C1410 1.523 . S
C1410 C1394 1.368 . S
C1410 C1406 1.368 . S
C1410 C1409 1.523 . S
H1411 C1386 0.950 . S
H1412 C1388 0.950 . S
H1413 C1389 0.949 . S
H1414 C1391 0.950 . S
H1415 C1393 0.950 . S
C1416 C1417 1.349 . S
C1416 C1418 1.327 . S
C1416 H1441 0.950 . S
C1417 C1416 1.349 . S
C1417 C1433 1.349 . S
C1418 C1416 1.327 . S
C1418 C1437 1.429 . S
C1418 H1442 0.950 . S
C1419 C1436 1.574 . S
C1419 C1438 1.368 . S
C1419 H1443 0.949 . S
H1420 C1424 0.949 . S
C1421 C1422 1.349 . S
C1421 C1423 1.327 . S
C1421 H1444 0.950 . S
C1422 C1421 1.349 . S
C1422 C1434 1.349 . S
C1423 C1421 1.327 . S
C1423 C1439 1.429 . S
C1423 H1445 0.950 . S
C1424 H1420 0.949 . S
C1424 C1432 1.574 . S
C1424 C1440 1.368 . S
H1425 C1433 0.950 . S
H1426 C1431 0.950 . S
H1427 C1432 0.949 . S
H1428 C1434 0.950 . S
H1429 C1435 0.950 . S
H1430 C1436 0.949 . S
C1431 H1426 0.950 . S
C1431 C1433 1.327 . S
C1431 C1437 1.429 . S
C1432 C1424 1.574 . S
C1432 H1427 0.949 . S
C1432 C1438 1.368 . S
C1433 C1417 1.349 . S
C1433 H1425 0.950 . S
C1433 C1431 1.327 . S
C1434 C1422 1.349 . S
C1434 H1428 0.950 . S
C1434 C1435 1.327 . S
C1435 H1429 0.950 . S
C1435 C1434 1.327 . S
C1435 C1439 1.429 . S
C1436 C1419 1.574 . S
C1436 H1430 0.949 . S
C1436 C1440 1.368 . S
C1437 C1418 1.429 . S
C1437 C1431 1.429 . S
C1437 C1438 1.523 . S
C1438 C1419 1.368 . S
C1438 C1432 1.368 . S
C1438 C1437 1.523 . S
C1439 C1423 1.429 . S
C1439 C1435 1.429 . S
C1439 C1440 1.523 . S
C1440 C1424 1.368 . S
C1440 C1436 1.368 . S
C1440 C1439 1.523 . S
H1441 C1416 0.950 . S
H1442 C1418 0.950 . S
H1443 C1419 0.949 . S
H1444 C1421 0.950 . S
H1445 C1423 0.950 . S
C1446 C1447 1.349 . S
C1446 C1448 1.327 . S
C1446 H1471 0.950 . S
C1447 C1446 1.349 . S
C1447 C1463 1.349 . S
C1448 C1446 1.327 . S
C1448 C1467 1.429 . S
C1448 H1472 0.950 . S
C1449 C1466 1.574 . S
C1449 C1468 1.368 . S
C1449 H1473 0.949 . S
H1450 C1454 0.949 . S
C1451 C1452 1.349 . S
C1451 C1453 1.327 . S
C1451 H1474 0.950 . S
C1452 C1451 1.349 . S
C1452 C1464 1.349 . S
C1453 C1451 1.327 . S
C1453 C1469 1.429 . S
C1453 H1475 0.950 . S
C1454 H1450 0.949 . S
C1454 C1462 1.574 . S
C1454 C1470 1.368 . S
H1455 C1463 0.950 . S
H1456 C1461 0.950 . S
H1457 C1462 0.949 . S
H1458 C1464 0.950 . S
H1459 C1465 0.950 . S
H1460 C1466 0.949 . S
C1461 H1456 0.950 . S
C1461 C1463 1.327 . S
C1461 C1467 1.429 . S
C1462 C1454 1.574 . S
C1462 H1457 0.949 . S
C1462 C1468 1.368 . S
C1463 C1447 1.349 . S
C1463 H1455 0.950 . S
C1463 C1461 1.327 . S
C1464 C1452 1.349 . S
C1464 H1458 0.950 . S
C1464 C1465 1.327 . S
C1465 H1459 0.950 . S
C1465 C1464 1.327 . S
C1465 C1469 1.429 . S
C1466 C1449 1.574 . S
C1466 H1460 0.949 . S
C1466 C1470 1.368 . S
C1467 C1448 1.429 . S
C1467 C1461 1.429 . S
C1467 C1468 1.523 . S
C1468 C1449 1.368 . S
C1468 C1462 1.368 . S
C1468 C1467 1.523 . S
C1469 C1453 1.429 . S
C1469 C1465 1.429 . S
C1469 C1470 1.523 . S
C1470 C1454 1.368 . S
C1470 C1466 1.368 . S
C1470 C1469 1.523 . S
H1471 C1446 0.950 . S
H1472 C1448 0.950 . S
H1473 C1449 0.949 . S
H1474 C1451 0.950 . S
H1475 C1453 0.950 . S
C1476 C1477 1.349 . S
C1476 C1478 1.327 . S
C1476 H1501 0.950 . S
C1477 C1476 1.349 . S
C1477 C1493 1.349 . S
C1478 C1476 1.327 . S
C1478 C1497 1.429 . S
C1478 H1502 0.950 . S
C1479 C1496 1.574 . S
C1479 C1498 1.368 . S
C1479 H1503 0.949 . S
H1480 C1484 0.949 . S
C1481 C1482 1.349 . S
C1481 C1483 1.327 . S
C1481 H1504 0.950 . S
C1482 C1481 1.349 . S
C1482 C1494 1.349 . S
C1483 C1481 1.327 . S
C1483 C1499 1.429 . S
C1483 H1505 0.950 . S
C1484 H1480 0.949 . S
C1484 C1492 1.574 . S
C1484 C1500 1.368 . S
H1485 C1493 0.950 . S
H1486 C1491 0.950 . S
H1487 C1492 0.949 . S
H1488 C1494 0.950 . S
H1489 C1495 0.950 . S
H1490 C1496 0.949 . S
C1491 H1486 0.950 . S
C1491 C1493 1.327 . S
C1491 C1497 1.429 . S
C1492 C1484 1.574 . S
C1492 H1487 0.949 . S
C1492 C1498 1.368 . S
C1493 C1477 1.349 . S
C1493 H1485 0.950 . S
C1493 C1491 1.327 . S
C1494 C1482 1.349 . S
C1494 H1488 0.950 . S
C1494 C1495 1.327 . S
C1495 H1489 0.950 . S
C1495 C1494 1.327 . S
C1495 C1499 1.429 . S
C1496 C1479 1.574 . S
C1496 H1490 0.949 . S
C1496 C1500 1.368 . S
C1497 C1478 1.429 . S
C1497 C1491 1.429 . S
C1497 C1498 1.523 . S
C1498 C1479 1.368 . S
C1498 C1492 1.368 . S
C1498 C1497 1.523 . S
C1499 C1483 1.429 . S
C1499 C1495 1.429 . S
C1499 C1500 1.523 . S
C1500 C1484 1.368 . S
C1500 C1496 1.368 . S
C1500 C1499 1.523 . S
H1501 C1476 0.950 . S
H1502 C1478 0.950 . S
H1503 C1479 0.949 . S
H1504 C1481 0.950 . S
H1505 C1483 0.950 . S
C1506 C1507 1.349 . S
C1506 C1508 1.327 . S
C1506 H1531 0.950 . S
C1507 C1506 1.349 . S
C1507 C1523 1.349 . S
C1508 C1506 1.327 . S
C1508 C1527 1.429 . S
C1508 H1532 0.950 . S
C1509 C1526 1.574 . S
C1509 C1528 1.368 . S
C1509 H1533 0.949 . S
H1510 C1514 0.949 . S
C1511 C1512 1.349 . S
C1511 C1513 1.327 . S
C1511 H1534 0.950 . S
C1512 C1511 1.349 . S
C1512 C1524 1.349 . S
C1513 C1511 1.327 . S
C1513 C1529 1.429 . S
C1513 H1535 0.950 . S
C1514 H1510 0.949 . S
C1514 C1522 1.574 . S
C1514 C1530 1.368 . S
H1515 C1523 0.950 . S
H1516 C1521 0.950 . S
H1517 C1522 0.949 . S
H1518 C1524 0.950 . S
H1519 C1525 0.950 . S
H1520 C1526 0.949 . S
C1521 H1516 0.950 . S
C1521 C1523 1.327 . S
C1521 C1527 1.429 . S
C1522 C1514 1.574 . S
C1522 H1517 0.949 . S
C1522 C1528 1.368 . S
C1523 C1507 1.349 . S
C1523 H1515 0.950 . S
C1523 C1521 1.327 . S
C1524 C1512 1.349 . S
C1524 H1518 0.950 . S
C1524 C1525 1.327 . S
C1525 H1519 0.950 . S
C1525 C1524 1.327 . S
C1525 C1529 1.429 . S
C1526 C1509 1.574 . S
C1526 H1520 0.949 . S
C1526 C1530 1.368 . S
C1527 C1508 1.429 . S
C1527 C1521 1.429 . S
C1527 C1528 1.523 . S
C1528 C1509 1.368 . S
C1528 C1522 1.368 . S
C1528 C1527 1.523 . S
C1529 C1513 1.429 . S
C1529 C1525 1.429 . S
C1529 C1530 1.523 . S
C1530 C1514 1.368 . S
C1530 C1526 1.368 . S
C1530 C1529 1.523 . S
H1531 C1506 0.950 . S
H1532 C1508 0.950 . S
H1533 C1509 0.949 . S
H1534 C1511 0.950 . S
H1535 C1513 0.950 . S
C1536 C1537 1.349 . S
C1536 C1538 1.327 . S
C1536 H1561 0.950 . S
C1537 C1536 1.349 . S
C1537 C1553 1.349 . S
C1538 C1536 1.327 . S
C1538 C1557 1.429 . S
C1538 H1562 0.950 . S
C1539 C1556 1.574 . S
C1539 C1558 1.368 . S
C1539 H1563 0.949 . S
H1540 C1544 0.949 . S
C1541 C1542 1.349 . S
C1541 C1543 1.327 . S
C1541 H1564 0.950 . S
C1542 C1541 1.349 . S
C1542 C1554 1.349 . S
C1543 C1541 1.327 . S
C1543 C1559 1.429 . S
C1543 H1565 0.950 . S
C1544 H1540 0.949 . S
C1544 C1552 1.574 . S
C1544 C1560 1.368 . S
H1545 C1553 0.950 . S
H1546 C1551 0.950 . S
H1547 C1552 0.949 . S
H1548 C1554 0.950 . S
H1549 C1555 0.950 . S
H1550 C1556 0.949 . S
C1551 H1546 0.950 . S
C1551 C1553 1.327 . S
C1551 C1557 1.429 . S
C1552 C1544 1.574 . S
C1552 H1547 0.949 . S
C1552 C1558 1.368 . S
C1553 C1537 1.349 . S
C1553 H1545 0.950 . S
C1553 C1551 1.327 . S
C1554 C1542 1.349 . S
C1554 H1548 0.950 . S
C1554 C1555 1.327 . S
C1555 H1549 0.950 . S
C1555 C1554 1.327 . S
C1555 C1559 1.429 . S
C1556 C1539 1.574 . S
C1556 H1550 0.949 . S
C1556 C1560 1.368 . S
C1557 C1538 1.429 . S
C1557 C1551 1.429 . S
C1557 C1558 1.523 . S
C1558 C1539 1.368 . S
C1558 C1552 1.368 . S
C1558 C1557 1.523 . S
C1559 C1543 1.429 . S
C1559 C1555 1.429 . S
C1559 C1560 1.523 . S
C1560 C1544 1.368 . S
C1560 C1556 1.368 . S
C1560 C1559 1.523 . S
H1561 C1536 0.950 . S
H1562 C1538 0.950 . S
H1563 C1539 0.949 . S
H1564 C1541 0.950 . S
H1565 C1543 0.950 . S
C1566 C1567 1.349 . S
C1566 C1568 1.327 . S
C1566 H1591 0.950 . S
C1567 C1566 1.349 . S
C1567 C1583 1.349 . S
C1568 C1566 1.327 . S
C1568 C1587 1.429 . S
C1568 H1592 0.950 . S
C1569 C1586 1.574 . S
C1569 C1588 1.368 . S
C1569 H1593 0.949 . S
H1570 C1574 0.949 . S
C1571 C1572 1.349 . S
C1571 C1573 1.327 . S
C1571 H1594 0.950 . S
C1572 C1571 1.349 . S
C1572 C1584 1.349 . S
C1573 C1571 1.327 . S
C1573 C1589 1.429 . S
C1573 H1595 0.950 . S
C1574 H1570 0.949 . S
C1574 C1582 1.574 . S
C1574 C1590 1.368 . S
H1575 C1583 0.950 . S
H1576 C1581 0.950 . S
H1577 C1582 0.949 . S
H1578 C1584 0.950 . S
H1579 C1585 0.950 . S
H1580 C1586 0.949 . S
C1581 H1576 0.950 . S
C1581 C1583 1.327 . S
C1581 C1587 1.429 . S
C1582 C1574 1.574 . S
C1582 H1577 0.949 . S
C1582 C1588 1.368 . S
C1583 C1567 1.349 . S
C1583 H1575 0.950 . S
C1583 C1581 1.327 . S
C1584 C1572 1.349 . S
C1584 H1578 0.950 . S
C1584 C1585 1.327 . S
C1585 H1579 0.950 . S
C1585 C1584 1.327 . S
C1585 C1589 1.429 . S
C1586 C1569 1.574 . S
C1586 H1580 0.949 . S
C1586 C1590 1.368 . S
C1587 C1568 1.429 . S
C1587 C1581 1.429 . S
C1587 C1588 1.523 . S
C1588 C1569 1.368 . S
C1588 C1582 1.368 . S
C1588 C1587 1.523 . S
C1589 C1573 1.429 . S
C1589 C1585 1.429 . S
C1589 C1590 1.523 . S
C1590 C1574 1.368 . S
C1590 C1586 1.368 . S
C1590 C1589 1.523 . S
H1591 C1566 0.950 . S
H1592 C1568 0.950 . S
H1593 C1569 0.949 . S
H1594 C1571 0.950 . S
H1595 C1573 0.950 . S
C1596 C1597 1.349 . S
C1596 C1598 1.327 . S
C1596 H1621 0.950 . S
C1597 C1596 1.349 . S
C1597 C1613 1.349 . S
C1598 C1596 1.327 . S
C1598 C1617 1.429 . S
C1598 H1622 0.950 . S
C1599 C1616 1.574 . S
C1599 C1618 1.368 . S
C1599 H1623 0.949 . S
H1600 C1604 0.949 . S
C1601 C1602 1.349 . S
C1601 C1603 1.327 . S
C1601 H1624 0.950 . S
C1602 C1601 1.349 . S
C1602 C1614 1.349 . S
C1603 C1601 1.327 . S
C1603 C1619 1.429 . S
C1603 H1625 0.950 . S
C1604 H1600 0.949 . S
C1604 C1612 1.574 . S
C1604 C1620 1.368 . S
H1605 C1613 0.950 . S
H1606 C1611 0.950 . S
H1607 C1612 0.949 . S
H1608 C1614 0.950 . S
H1609 C1615 0.950 . S
H1610 C1616 0.949 . S
C1611 H1606 0.950 . S
C1611 C1613 1.327 . S
C1611 C1617 1.429 . S
C1612 C1604 1.574 . S
C1612 H1607 0.949 . S
C1612 C1618 1.368 . S
C1613 C1597 1.349 . S
C1613 H1605 0.950 . S
C1613 C1611 1.327 . S
C1614 C1602 1.349 . S
C1614 H1608 0.950 . S
C1614 C1615 1.327 . S
C1615 H1609 0.950 . S
C1615 C1614 1.327 . S
C1615 C1619 1.429 . S
C1616 C1599 1.574 . S
C1616 H1610 0.949 . S
C1616 C1620 1.368 . S
C1617 C1598 1.429 . S
C1617 C1611 1.429 . S
C1617 C1618 1.523 . S
C1618 C1599 1.368 . S
C1618 C1612 1.368 . S
C1618 C1617 1.523 . S
C1619 C1603 1.429 . S
C1619 C1615 1.429 . S
C1619 C1620 1.523 . S
C1620 C1604 1.368 . S
C1620 C1616 1.368 . S
C1620 C1619 1.523 . S
H1621 C1596 0.950 . S
H1622 C1598 0.950 . S
H1623 C1599 0.949 . S
H1624 C1601 0.950 . S
H1625 C1603 0.950 . S
C1626 C1627 1.349 . S
C1626 C1628 1.327 . S
C1626 H1651 0.950 . S
C1627 C1626 1.349 . S
C1627 C1643 1.349 . S
C1628 C1626 1.327 . S
C1628 C1647 1.429 . S
C1628 H1652 0.950 . S
C1629 C1646 1.574 . S
C1629 C1648 1.368 . S
C1629 H1653 0.949 . S
H1630 C1634 0.949 . S
C1631 C1632 1.349 . S
C1631 C1633 1.327 . S
C1631 H1654 0.950 . S
C1632 C1631 1.349 . S
C1632 C1644 1.349 . S
C1633 C1631 1.327 . S
C1633 C1649 1.429 . S
C1633 H1655 0.950 . S
C1634 H1630 0.949 . S
C1634 C1642 1.574 . S
C1634 C1650 1.368 . S
H1635 C1643 0.950 . S
H1636 C1641 0.950 . S
H1637 C1642 0.949 . S
H1638 C1644 0.950 . S
H1639 C1645 0.950 . S
H1640 C1646 0.949 . S
C1641 H1636 0.950 . S
C1641 C1643 1.327 . S
C1641 C1647 1.429 . S
C1642 C1634 1.574 . S
C1642 H1637 0.949 . S
C1642 C1648 1.368 . S
C1643 C1627 1.349 . S
C1643 H1635 0.950 . S
C1643 C1641 1.327 . S
C1644 C1632 1.349 . S
C1644 H1638 0.950 . S
C1644 C1645 1.327 . S
C1645 H1639 0.950 . S
C1645 C1644 1.327 . S
C1645 C1649 1.429 . S
C1646 C1629 1.574 . S
C1646 H1640 0.949 . S
C1646 C1650 1.368 . S
C1647 C1628 1.429 . S
C1647 C1641 1.429 . S
C1647 C1648 1.523 . S
C1648 C1629 1.368 . S
C1648 C1642 1.368 . S
C1648 C1647 1.523 . S
C1649 C1633 1.429 . S
C1649 C1645 1.429 . S
C1649 C1650 1.523 . S
C1650 C1634 1.368 . S
C1650 C1646 1.368 . S
C1650 C1649 1.523 . S
H1651 C1626 0.950 . S
H1652 C1628 0.950 . S
H1653 C1629 0.949 . S
H1654 C1631 0.950 . S
H1655 C1633 0.950 . S
C1656 C1657 1.349 . S
C1656 C1658 1.327 . S
C1656 H1681 0.950 . S
C1657 C1656 1.349 . S
C1657 C1673 1.349 . S
C1658 C1656 1.327 . S
C1658 C1677 1.429 . S
C1658 H1682 0.950 . S
C1659 C1676 1.574 . S
C1659 C1678 1.368 . S
C1659 H1683 0.949 . S
H1660 C1664 0.949 . S
C1661 C1662 1.349 . S
C1661 C1663 1.327 . S
C1661 H1684 0.950 . S
C1662 C1661 1.349 . S
C1662 C1674 1.349 . S
C1663 C1661 1.327 . S
C1663 C1679 1.429 . S
C1663 H1685 0.950 . S
C1664 H1660 0.949 . S
C1664 C1672 1.574 . S
C1664 C1680 1.368 . S
H1665 C1673 0.950 . S
H1666 C1671 0.950 . S
H1667 C1672 0.949 . S
H1668 C1674 0.950 . S
H1669 C1675 0.950 . S
H1670 C1676 0.949 . S
C1671 H1666 0.950 . S
C1671 C1673 1.327 . S
C1671 C1677 1.429 . S
C1672 C1664 1.574 . S
C1672 H1667 0.949 . S
C1672 C1678 1.368 . S
C1673 C1657 1.349 . S
C1673 H1665 0.950 . S
C1673 C1671 1.327 . S
C1674 C1662 1.349 . S
C1674 H1668 0.950 . S
C1674 C1675 1.327 . S
C1675 H1669 0.950 . S
C1675 C1674 1.327 . S
C1675 C1679 1.429 . S
C1676 C1659 1.574 . S
C1676 H1670 0.949 . S
C1676 C1680 1.368 . S
C1677 C1658 1.429 . S
C1677 C1671 1.429 . S
C1677 C1678 1.523 . S
C1678 C1659 1.368 . S
C1678 C1672 1.368 . S
C1678 C1677 1.523 . S
C1679 C1663 1.429 . S
C1679 C1675 1.429 . S
C1679 C1680 1.523 . S
C1680 C1664 1.368 . S
C1680 C1676 1.368 . S
C1680 C1679 1.523 . S
H1681 C1656 0.950 . S
H1682 C1658 0.950 . S
H1683 C1659 0.949 . S
H1684 C1661 0.950 . S
H1685 C1663 0.950 . S
C1686 C1687 1.349 . S
C1686 C1688 1.327 . S
C1686 H1711 0.950 . S
C1687 C1686 1.349 . S
C1687 C1703 1.349 . S
C1688 C1686 1.327 . S
C1688 C1707 1.429 . S
C1688 H1712 0.950 . S
C1689 C1706 1.574 . S
C1689 C1708 1.368 . S
C1689 H1713 0.949 . S
H1690 C1694 0.949 . S
C1691 C1692 1.349 . S
C1691 C1693 1.327 . S
C1691 H1714 0.950 . S
C1692 C1691 1.349 . S
C1692 C1704 1.349 . S
C1693 C1691 1.327 . S
C1693 C1709 1.429 . S
C1693 H1715 0.950 . S
C1694 H1690 0.949 . S
C1694 C1702 1.574 . S
C1694 C1710 1.368 . S
H1695 C1703 0.950 . S
H1696 C1701 0.950 . S
H1697 C1702 0.949 . S
H1698 C1704 0.950 . S
H1699 C1705 0.950 . S
H1700 C1706 0.949 . S
C1701 H1696 0.950 . S
C1701 C1703 1.327 . S
C1701 C1707 1.429 . S
C1702 C1694 1.574 . S
C1702 H1697 0.949 . S
C1702 C1708 1.368 . S
C1703 C1687 1.349 . S
C1703 H1695 0.950 . S
C1703 C1701 1.327 . S
C1704 C1692 1.349 . S
C1704 H1698 0.950 . S
C1704 C1705 1.327 . S
C1705 H1699 0.950 . S
C1705 C1704 1.327 . S
C1705 C1709 1.429 . S
C1706 C1689 1.574 . S
C1706 H1700 0.949 . S
C1706 C1710 1.368 . S
C1707 C1688 1.429 . S
C1707 C1701 1.429 . S
C1707 C1708 1.523 . S
C1708 C1689 1.368 . S
C1708 C1702 1.368 . S
C1708 C1707 1.523 . S
C1709 C1693 1.429 . S
C1709 C1705 1.429 . S
C1709 C1710 1.523 . S
C1710 C1694 1.368 . S
C1710 C1706 1.368 . S
C1710 C1709 1.523 . S
H1711 C1686 0.950 . S
H1712 C1688 0.950 . S
H1713 C1689 0.949 . S
H1714 C1691 0.950 . S
H1715 C1693 0.950 . S
C1716 C1717 1.349 . S
C1716 C1718 1.327 . S
C1716 H1741 0.950 . S
C1717 C1716 1.349 . S
C1717 C1733 1.349 . S
C1718 C1716 1.327 . S
C1718 C1737 1.429 . S
C1718 H1742 0.950 . S
C1719 C1736 1.574 . S
C1719 C1738 1.368 . S
C1719 H1743 0.949 . S
H1720 C1724 0.949 . S
C1721 C1722 1.349 . S
C1721 C1723 1.327 . S
C1721 H1744 0.950 . S
C1722 C1721 1.349 . S
C1722 C1734 1.349 . S
C1723 C1721 1.327 . S
C1723 C1739 1.429 . S
C1723 H1745 0.950 . S
C1724 H1720 0.949 . S
C1724 C1732 1.574 . S
C1724 C1740 1.368 . S
H1725 C1733 0.950 . S
H1726 C1731 0.950 . S
H1727 C1732 0.949 . S
H1728 C1734 0.950 . S
H1729 C1735 0.950 . S
H1730 C1736 0.949 . S
C1731 H1726 0.950 . S
C1731 C1733 1.327 . S
C1731 C1737 1.429 . S
C1732 C1724 1.574 . S
C1732 H1727 0.949 . S
C1732 C1738 1.368 . S
C1733 C1717 1.349 . S
C1733 H1725 0.950 . S
C1733 C1731 1.327 . S
C1734 C1722 1.349 . S
C1734 H1728 0.950 . S
C1734 C1735 1.327 . S
C1735 H1729 0.950 . S
C1735 C1734 1.327 . S
C1735 C1739 1.429 . S
C1736 C1719 1.574 . S
C1736 H1730 0.949 . S
C1736 C1740 1.368 . S
C1737 C1718 1.429 . S
C1737 C1731 1.429 . S
C1737 C1738 1.523 . S
C1738 C1719 1.368 . S
C1738 C1732 1.368 . S
C1738 C1737 1.523 . S
C1739 C1723 1.429 . S
C1739 C1735 1.429 . S
C1739 C1740 1.523 . S
C1740 C1724 1.368 . S
C1740 C1736 1.368 . S
C1740 C1739 1.523 . S
H1741 C1716 0.950 . S
H1742 C1718 0.950 . S
H1743 C1719 0.949 . S
H1744 C1721 0.950 . S
H1745 C1723 0.950 . S
C1746 C1747 1.349 . S
C1746 C1748 1.327 . S
C1746 H1771 0.950 . S
C1747 C1746 1.349 . S
C1747 C1763 1.349 . S
C1748 C1746 1.327 . S
C1748 C1767 1.429 . S
C1748 H1772 0.950 . S
C1749 C1766 1.574 . S
C1749 C1768 1.368 . S
C1749 H1773 0.949 . S
H1750 C1754 0.949 . S
C1751 C1752 1.349 . S
C1751 C1753 1.327 . S
C1751 H1774 0.950 . S
C1752 C1751 1.349 . S
C1752 C1764 1.349 . S
C1753 C1751 1.327 . S
C1753 C1769 1.429 . S
C1753 H1775 0.950 . S
C1754 H1750 0.949 . S
C1754 C1762 1.574 . S
C1754 C1770 1.368 . S
H1755 C1763 0.950 . S
H1756 C1761 0.950 . S
H1757 C1762 0.949 . S
H1758 C1764 0.950 . S
H1759 C1765 0.950 . S
H1760 C1766 0.949 . S
C1761 H1756 0.950 . S
C1761 C1763 1.327 . S
C1761 C1767 1.429 . S
C1762 C1754 1.574 . S
C1762 H1757 0.949 . S
C1762 C1768 1.368 . S
C1763 C1747 1.349 . S
C1763 H1755 0.950 . S
C1763 C1761 1.327 . S
C1764 C1752 1.349 . S
C1764 H1758 0.950 . S
C1764 C1765 1.327 . S
C1765 H1759 0.950 . S
C1765 C1764 1.327 . S
C1765 C1769 1.429 . S
C1766 C1749 1.574 . S
C1766 H1760 0.949 . S
C1766 C1770 1.368 . S
C1767 C1748 1.429 . S
C1767 C1761 1.429 . S
C1767 C1768 1.523 . S
C1768 C1749 1.368 . S
C1768 C1762 1.368 . S
C1768 C1767 1.523 . S
C1769 C1753 1.429 . S
C1769 C1765 1.429 . S
C1769 C1770 1.523 . S
C1770 C1754 1.368 . S
C1770 C1766 1.368 . S
C1770 C1769 1.523 . S
H1771 C1746 0.950 . S
H1772 C1748 0.950 . S
H1773 C1749 0.949 . S
H1774 C1751 0.950 . S
H1775 C1753 0.950 . S
C337 C163 1.389 . S
C342 C0 1.348 . S
C367 C14 1.348 . S
C372 C121 1.389 . S
C397 C28 1.348 . S
C402 C135 1.389 . S
C427 C42 1.348 . S
C432 C149 1.389 . S
C457 C191 1.389 . S
C462 C56 1.348 . S
C487 C70 1.348 . S
C492 C205 1.389 . S
C517 C219 1.389 . S
C522 C84 1.348 . S
C547 C177 1.389 . S
C552 C98 1.348 . S
C577 C79 1.389 . S
C582 C112 1.348 . S
C607 C93 1.389 . S
C612 C126 1.348 . S
C637 C140 1.348 . S
C642 C107 1.389 . S
C667 C65 1.389 . S
C672 C154 1.348 . S
C697 C51 1.389 . S
C702 C168 1.348 . S
C727 C182 1.348 . S
C732 C9 1.389 . S
C757 C196 1.348 . S
C762 C23 1.389 . S
C787 C210 1.348 . S
C792 C37 1.389 . S
C817 C224 1.348 . S
C822 C331 1.389 . S
C847 C289 1.389 . S
C852 C238 1.348 . S
C877 C252 1.348 . S
C882 C247 1.389 . S
C907 C266 1.348 . S
C912 C261 1.389 . S
C937 C275 1.389 . S
C942 C280 1.348 . S
C967 C294 1.348 . S
C972 C317 1.389 . S
C997 C233 1.389 . S
C1002 C308 1.348 . S
C1027 C303 1.389 . S
C1032 C322 1.348 . S
C1057 C5 1.525 . S
C1062 C89 1.525 . S
C1087 C19 1.525 . S
C1092 C103 1.525 . S
C1117 C33 1.525 . S
C1122 C61 1.525 . S
C1147 C75 1.525 . S
C1152 C47 1.525 . S
C1177 C145 1.525 . S
C1182 C117 1.525 . S
C1207 C131 1.525 . S
C1212 C159 1.525 . S
C1237 C173 1.525 . S
C1242 C201 1.525 . S
C1267 C215 1.525 . S
C1272 C187 1.525 . S
C1297 C243 1.525 . S
C1302 C229 1.525 . S
C1327 C257 1.525 . S
C1332 C327 1.525 . S
C1357 C271 1.525 . S
C1362 C299 1.525 . S
C1387 C285 1.525 . S
C1392 C313 1.525 . S
C1417 C11 0.899 . S
C1422 C81 0.899 . S
C1447 C25 0.899 . S
C1452 C95 0.899 . S
C1477 C39 0.899 . S
C1482 C109 0.899 . S
C1507 C67 0.899 . S
C1512 C53 0.899 . S
C1537 C123 0.899 . S
C1542 C333 0.899 . S
C1567 C137 0.899 . S
C1572 C305 0.899 . S
C1597 C319 0.899 . S
C1602 C151 0.899 . S
C1627 C165 0.899 . S
C1632 C235 0.899 . S
C1657 C291 0.899 . S
C1662 C179 0.899 . S
C1687 C249 0.899 . S
C1692 C193 0.899 . S
C1717 C207 0.899 . S
C1722 C263 0.899 . S
C1747 C277 0.899 . S
C1752 C221 0.899 . S
