# Generated by pormake.
# Topology vbg, (5)-cn, num edge types: 1
# Building blocks:
#     Node 0, Type 0, BuildingBlock: BEQFEK_clean_sbu_0, # of connection points: 5
#     Node 1, Type 0, BuildingBlock: BEQFEK_clean_sbu_0, # of connection points: 5
#     Node 2, Type 0, BuildingBlock: BEQFEK_clean_sbu_0, # of connection points: 5
#     Node 3, Type 0, BuildingBlock: BEQFEK_clean_sbu_0, # of connection points: 5
#     Node 4, Type 0, BuildingBlock: BEQFEK_clean_sbu_0, # of connection points: 5
#     Node 5, Type 0, BuildingBlock: BEQFEK_clean_sbu_0, # of connection points: 5
#     Node 6, Type 0, BuildingBlock: BEQFEK_clean_sbu_0, # of connection points: 5
#     Node 7, Type 0, BuildingBlock: BEQFEK_clean_sbu_0, # of connection points: 5
#     Node 8, Type 0, BuildingBlock: BEQFEK_clean_sbu_0, # of connection points: 5
#     Node 9, Type 0, BuildingBlock: BEQFEK_clean_sbu_0, # of connection points: 5
#     Node 10, Type 0, BuildingBlock: BEQFEK_clean_sbu_0, # of connection points: 5
#     Node 11, Type 0, BuildingBlock: BEQFEK_clean_sbu_0, # of connection points: 5
#     Node 12, Type 0, BuildingBlock: BEQFEK_clean_sbu_0, # of connection points: 5
#     Node 13, Type 0, BuildingBlock: BEQFEK_clean_sbu_0, # of connection points: 5
#     Node 14, Type 0, BuildingBlock: BEQFEK_clean_sbu_0, # of connection points: 5
#     Node 15, Type 0, BuildingBlock: BEQFEK_clean_sbu_0, # of connection points: 5
#     Node 16, Type 0, BuildingBlock: BEQFEK_clean_sbu_0, # of connection points: 5
#     Node 17, Type 0, BuildingBlock: BEQFEK_clean_sbu_0, # of connection points: 5
#     Node 18, Type 0, BuildingBlock: BEQFEK_clean_sbu_0, # of connection points: 5
#     Node 19, Type 0, BuildingBlock: BEQFEK_clean_sbu_0, # of connection points: 5
#     Node 20, Type 0, BuildingBlock: BEQFEK_clean_sbu_0, # of connection points: 5
#     Node 21, Type 0, BuildingBlock: BEQFEK_clean_sbu_0, # of connection points: 5
#     Node 22, Type 0, BuildingBlock: BEQFEK_clean_sbu_0, # of connection points: 5
#     Node 23, Type 0, BuildingBlock: BEQFEK_clean_sbu_0, # of connection points: 5
#     Node 24, Type 0, BuildingBlock: BEQFEK_clean_sbu_0, # of connection points: 5
#     Node 25, Type 0, BuildingBlock: BEQFEK_clean_sbu_0, # of connection points: 5
#     Node 26, Type 0, BuildingBlock: BEQFEK_clean_sbu_0, # of connection points: 5
#     Node 27, Type 0, BuildingBlock: BEQFEK_clean_sbu_0, # of connection points: 5
#     Node 28, Type 0, BuildingBlock: BEQFEK_clean_sbu_0, # of connection points: 5
#     Node 29, Type 0, BuildingBlock: BEQFEK_clean_sbu_0, # of connection points: 5
#     Node 30, Type 0, BuildingBlock: BEQFEK_clean_sbu_0, # of connection points: 5
#     Node 31, Type 0, BuildingBlock: BEQFEK_clean_sbu_0, # of connection points: 5
#     Edge 32, Type (0, 0), BuildingBlock: OJICUG_clean_linker_0, # of connection points: 2
#     Edge 33, Type (0, 0), BuildingBlock: OJICUG_clean_linker_0, # of connection points: 2
#     Edge 34, Type (0, 0), BuildingBlock: OJICUG_clean_linker_0, # of connection points: 2
#     Edge 35, Type (0, 0), BuildingBlock: OJICUG_clean_linker_0, # of connection points: 2
#     Edge 36, Type (0, 0), BuildingBlock: OJICUG_clean_linker_0, # of connection points: 2
#     Edge 37, Type (0, 0), BuildingBlock: OJICUG_clean_linker_0, # of connection points: 2
#     Edge 38, Type (0, 0), BuildingBlock: OJICUG_clean_linker_0, # of connection points: 2
#     Edge 39, Type (0, 0), BuildingBlock: OJICUG_clean_linker_0, # of connection points: 2
#     Edge 40, Type (0, 0), BuildingBlock: OJICUG_clean_linker_0, # of connection points: 2
#     Edge 41, Type (0, 0), BuildingBlock: OJICUG_clean_linker_0, # of connection points: 2
#     Edge 42, Type (0, 0), BuildingBlock: OJICUG_clean_linker_0, # of connection points: 2
#     Edge 43, Type (0, 0), BuildingBlock: OJICUG_clean_linker_0, # of connection points: 2
#     Edge 44, Type (0, 0), BuildingBlock: OJICUG_clean_linker_0, # of connection points: 2
#     Edge 45, Type (0, 0), BuildingBlock: OJICUG_clean_linker_0, # of connection points: 2
#     Edge 46, Type (0, 0), BuildingBlock: OJICUG_clean_linker_0, # of connection points: 2
#     Edge 47, Type (0, 0), BuildingBlock: OJICUG_clean_linker_0, # of connection points: 2
#     Edge 48, Type (0, 0), BuildingBlock: OJICUG_clean_linker_0, # of connection points: 2
#     Edge 49, Type (0, 0), BuildingBlock: OJICUG_clean_linker_0, # of connection points: 2
#     Edge 50, Type (0, 0), BuildingBlock: OJICUG_clean_linker_0, # of connection points: 2
#     Edge 51, Type (0, 0), BuildingBlock: OJICUG_clean_linker_0, # of connection points: 2
#     Edge 52, Type (0, 0), BuildingBlock: OJICUG_clean_linker_0, # of connection points: 2
#     Edge 53, Type (0, 0), BuildingBlock: OJICUG_clean_linker_0, # of connection points: 2
#     Edge 54, Type (0, 0), BuildingBlock: OJICUG_clean_linker_0, # of connection points: 2
#     Edge 55, Type (0, 0), BuildingBlock: OJICUG_clean_linker_0, # of connection points: 2
#     Edge 56, Type (0, 0), BuildingBlock: OJICUG_clean_linker_0, # of connection points: 2
#     Edge 57, Type (0, 0), BuildingBlock: OJICUG_clean_linker_0, # of connection points: 2
#     Edge 58, Type (0, 0), BuildingBlock: OJICUG_clean_linker_0, # of connection points: 2
#     Edge 59, Type (0, 0), BuildingBlock: OJICUG_clean_linker_0, # of connection points: 2
#     Edge 60, Type (0, 0), BuildingBlock: OJICUG_clean_linker_0, # of connection points: 2
#     Edge 61, Type (0, 0), BuildingBlock: OJICUG_clean_linker_0, # of connection points: 2
#     Edge 62, Type (0, 0), BuildingBlock: OJICUG_clean_linker_0, # of connection points: 2
#     Edge 63, Type (0, 0), BuildingBlock: OJICUG_clean_linker_0, # of connection points: 2
#     Edge 64, Type (0, 0), BuildingBlock: OJICUG_clean_linker_0, # of connection points: 2
#     Edge 65, Type (0, 0), BuildingBlock: OJICUG_clean_linker_0, # of connection points: 2
#     Edge 66, Type (0, 0), BuildingBlock: OJICUG_clean_linker_0, # of connection points: 2
#     Edge 67, Type (0, 0), BuildingBlock: OJICUG_clean_linker_0, # of connection points: 2
#     Edge 68, Type (0, 0), BuildingBlock: OJICUG_clean_linker_0, # of connection points: 2
#     Edge 69, Type (0, 0), BuildingBlock: OJICUG_clean_linker_0, # of connection points: 2
#     Edge 70, Type (0, 0), BuildingBlock: OJICUG_clean_linker_0, # of connection points: 2
#     Edge 71, Type (0, 0), BuildingBlock: OJICUG_clean_linker_0, # of connection points: 2
#     Edge 72, Type (0, 0), BuildingBlock: OJICUG_clean_linker_0, # of connection points: 2
#     Edge 73, Type (0, 0), BuildingBlock: OJICUG_clean_linker_0, # of connection points: 2
#     Edge 74, Type (0, 0), BuildingBlock: OJICUG_clean_linker_0, # of connection points: 2
#     Edge 75, Type (0, 0), BuildingBlock: OJICUG_clean_linker_0, # of connection points: 2
#     Edge 76, Type (0, 0), BuildingBlock: OJICUG_clean_linker_0, # of connection points: 2
#     Edge 77, Type (0, 0), BuildingBlock: OJICUG_clean_linker_0, # of connection points: 2
#     Edge 78, Type (0, 0), BuildingBlock: OJICUG_clean_linker_0, # of connection points: 2
#     Edge 79, Type (0, 0), BuildingBlock: OJICUG_clean_linker_0, # of connection points: 2
#     Edge 80, Type (0, 0), BuildingBlock: OJICUG_clean_linker_0, # of connection points: 2
#     Edge 81, Type (0, 0), BuildingBlock: OJICUG_clean_linker_0, # of connection points: 2
#     Edge 82, Type (0, 0), BuildingBlock: OJICUG_clean_linker_0, # of connection points: 2
#     Edge 83, Type (0, 0), BuildingBlock: OJICUG_clean_linker_0, # of connection points: 2
#     Edge 84, Type (0, 0), BuildingBlock: OJICUG_clean_linker_0, # of connection points: 2
#     Edge 85, Type (0, 0), BuildingBlock: OJICUG_clean_linker_0, # of connection points: 2
#     Edge 86, Type (0, 0), BuildingBlock: OJICUG_clean_linker_0, # of connection points: 2
#     Edge 87, Type (0, 0), BuildingBlock: OJICUG_clean_linker_0, # of connection points: 2
#     Edge 88, Type (0, 0), BuildingBlock: OJICUG_clean_linker_0, # of connection points: 2
#     Edge 89, Type (0, 0), BuildingBlock: OJICUG_clean_linker_0, # of connection points: 2
#     Edge 90, Type (0, 0), BuildingBlock: OJICUG_clean_linker_0, # of connection points: 2
#     Edge 91, Type (0, 0), BuildingBlock: OJICUG_clean_linker_0, # of connection points: 2
#     Edge 92, Type (0, 0), BuildingBlock: OJICUG_clean_linker_0, # of connection points: 2
#     Edge 93, Type (0, 0), BuildingBlock: OJICUG_clean_linker_0, # of connection points: 2
#     Edge 94, Type (0, 0), BuildingBlock: OJICUG_clean_linker_0, # of connection points: 2
#     Edge 95, Type (0, 0), BuildingBlock: OJICUG_clean_linker_0, # of connection points: 2
#     Edge 96, Type (0, 0), BuildingBlock: OJICUG_clean_linker_0, # of connection points: 2
#     Edge 97, Type (0, 0), BuildingBlock: OJICUG_clean_linker_0, # of connection points: 2
#     Edge 98, Type (0, 0), BuildingBlock: OJICUG_clean_linker_0, # of connection points: 2
#     Edge 99, Type (0, 0), BuildingBlock: OJICUG_clean_linker_0, # of connection points: 2
#     Edge 100, Type (0, 0), BuildingBlock: OJICUG_clean_linker_0, # of connection points: 2
#     Edge 101, Type (0, 0), BuildingBlock: OJICUG_clean_linker_0, # of connection points: 2
#     Edge 102, Type (0, 0), BuildingBlock: OJICUG_clean_linker_0, # of connection points: 2
#     Edge 103, Type (0, 0), BuildingBlock: OJICUG_clean_linker_0, # of connection points: 2
#     Edge 104, Type (0, 0), BuildingBlock: OJICUG_clean_linker_0, # of connection points: 2
#     Edge 105, Type (0, 0), BuildingBlock: OJICUG_clean_linker_0, # of connection points: 2
#     Edge 106, Type (0, 0), BuildingBlock: OJICUG_clean_linker_0, # of connection points: 2
#     Edge 107, Type (0, 0), BuildingBlock: OJICUG_clean_linker_0, # of connection points: 2
#     Edge 108, Type (0, 0), BuildingBlock: OJICUG_clean_linker_0, # of connection points: 2
#     Edge 109, Type (0, 0), BuildingBlock: OJICUG_clean_linker_0, # of connection points: 2
#     Edge 110, Type (0, 0), BuildingBlock: OJICUG_clean_linker_0, # of connection points: 2
#     Edge 111, Type (0, 0), BuildingBlock: OJICUG_clean_linker_0, # of connection points: 2
# Relax obj value: 0.377
# Max RMSD: 0.155
# Mean RMSD: 0.155
data_MOF--net-vbg--node1-BEQFEK_clean_sbu_0--edge1-OJICUG_clean_linker_0
_symmetry_space_group_name_H-M    P1
_symmetry_Int_Tables_number       1
_symmetry_cell_setting            triclinic
loop_
_symmetry_equiv_pos_as_xyz
'x, y, z'
_cell_length_a     55.011005
_cell_length_b     35.740407
_cell_length_c     31.40868
_cell_angle_alpha  90.137529
_cell_angle_beta   89.238034
_cell_angle_gamma 90.137871
loop_
_atom_site_label
_atom_site_type_symbol
_atom_site_fract_x
_atom_site_fract_y
_atom_site_fract_z
_atom_type_partial_charge
Co0 Co 0.99163 0.18095 0.49523 0.0
Co1 Co 0.01549 0.22915 0.42584 0.0
C2 C 0.98574 0.16105 0.40054 0.0
O3 O 0.98071 0.15478 0.43983 0.0
O4 O 0.9986 0.18947 0.3904 0.0
C5 C 0.97311 0.15513 0.58309 0.0
O6 O 0.95814 0.13147 0.60187 0.0
C7 C 0.02616 0.26751 0.34845 0.0
C8 C 0.06213 0.29293 0.36103 0.0
C9 C 0.04546 0.28593 0.32946 0.0
N10 N 0.03138 0.26255 0.38934 0.0
N11 N 0.0528 0.27791 0.39699 0.0
C12 C 1.00301 0.25485 0.32834 0.0
H13 H 0.98818 0.25343 0.35259 0.0
H14 H 0.99775 0.27419 0.30246 0.0
H15 H 1.00568 0.22656 0.31443 0.0
C16 C 0.9739 0.25877 0.52492 0.0
N17 N 0.98489 0.23508 0.49673 0.0
N18 N 0.99635 0.25538 0.4679 0.0
C19 C 0.994 0.29215 0.47793 0.0
C20 C 0.97981 0.29585 0.51493 0.0
C21 C 0.95631 0.24707 0.55911 0.0
H22 H 0.96493 0.24926 0.59068 0.0
H23 H 0.94977 0.21818 0.55356 0.0
H24 H 0.94051 0.26635 0.55966 0.0
O25 O 0.02787 0.16959 0.50299 0.0
O26 O 0.04284 0.20547 0.4518 0.0
H27 H 0.02731 0.31836 0.45919 0.0
H28 H 1.0027 0.35077 0.46761 0.0
C29 C 0.00752 0.32268 0.45522 0.0
H30 H 1.00361 0.32125 0.42069 0.0
H31 H 0.06154 0.27663 0.42625 0.0
O32 O 0.97399 0.15487 0.54248 0.0
C33 C 0.04587 0.18249 0.48164 0.0
Co34 Co 0.19365 0.22116 0.51852 0.0
Co35 Co 0.19806 0.16512 0.44369 0.0
C36 C 0.20982 0.24776 0.42976 0.0
O37 O 0.20571 0.25445 0.46912 0.0
O38 O 0.2077 0.21441 0.41599 0.0
C39 C 0.22258 0.26045 0.57388 0.0
O40 O 0.23246 0.27496 0.53937 0.0
C41 C 0.22428 0.13007 0.37414 0.0
C42 C 0.20069 0.08345 0.35408 0.0
C43 C 0.22228 0.10181 0.34398 0.0
N44 N 0.20472 0.12889 0.40019 0.0
N45 N 0.19065 0.10087 0.38821 0.0
C46 C 0.24506 0.15658 0.3802 0.0
H47 H 0.24606 0.16531 0.41407 0.0
H48 H 0.2625 0.14345 0.3702 0.0
H49 H 0.24214 0.18194 0.36062 0.0
C50 C 0.20944 0.15379 0.56451 0.0
N51 N 0.20874 0.17352 0.5278 0.0
N52 N 0.21414 0.1513 0.49581 0.0
C53 C 0.2206 0.1174 0.5117 0.0
C54 C 0.21802 0.1176 0.55643 0.0
C55 C 0.19503 0.16508 0.60334 0.0
H56 H 0.18185 0.1874 0.59566 0.0
H57 H 0.20728 0.17536 0.62831 0.0
H58 H 0.18489 0.14074 0.61653 0.0
O59 O 0.15887 0.20863 0.51154 0.0
O60 O 0.16203 0.16676 0.45869 0.0
H61 H 0.21077 1.06869 0.47633 0.0
H62 H 0.24031 1.06621 0.50072 0.0
C63 C 0.22739 0.0848 0.48417 0.0
H64 H 0.23594 0.09467 0.45408 0.0
H65 H 0.17414 0.094 0.4028 0.0
O66 O 0.20071 0.24902 0.57186 0.0
C67 C 0.14923 0.18478 0.48641 0.0
Co68 Co 0.06172 0.20944 0.74733 0.0
Co69 Co 0.05754 0.15277 0.82239 0.0
C70 C 0.04396 0.23394 0.83617 0.0
O71 O 0.04976 0.24141 0.79765 0.0
O72 O 0.04499 0.20036 0.84917 0.0
C73 C 0.03139 0.24774 0.69349 0.0
O74 O 0.02167 0.25996 0.72931 0.0
C75 C 0.02923 0.11246 0.88622 0.0
C76 C 0.05687 0.0819 0.92243 0.0
C77 C 0.03228 0.09058 0.92229 0.0
N78 N 0.05088 0.11646 0.86615 0.0
N79 N 0.06731 0.09774 0.88774 0.0
C80 C 1.0067 0.13278 0.87345 0.0
H81 H 0.01058 0.15251 0.84704 0.0
H82 H 0.993 0.11235 0.86224 0.0
H83 H 0.99884 0.148 0.90122 0.0
C84 C 0.04629 0.14262 0.7 0.0
N85 N 0.04778 0.16106 0.73754 0.0
N86 N 0.04336 0.13765 0.76882 0.0
C87 C 0.03709 0.10399 0.7517 0.0
C88 C 0.03846 0.10599 0.70698 0.0
C89 C 0.05905 0.15576 0.66022 0.0
H90 H 0.07243 0.17803 0.66746 0.0
H91 H 0.04567 0.16647 0.63743 0.0
H92 H 0.06881 0.13223 0.64449 0.0
O93 O 0.09661 0.19974 0.75558 0.0
O94 O 0.09406 0.16052 0.81117 0.0
H95 H 0.04921 1.05561 0.78493 0.0
H96 H 0.01991 1.0502 0.7602 0.0
C97 C 0.03185 1.06984 0.77765 0.0
H98 H 0.02284 1.07769 0.80806 0.0
H99 H 0.08585 0.09755 0.88021 0.0
O100 O 0.05338 0.23678 0.69412 0.0
C101 C 0.10665 0.17912 0.78353 0.0
Co102 Co 0.26373 0.18554 0.76416 0.0
Co103 Co 0.24887 0.24032 0.83531 0.0
C104 C 0.27481 0.16776 0.85685 0.0
O105 O 0.27522 0.15879 0.81746 0.0
O106 O 0.26651 0.1996 0.86818 0.0
C107 C 0.27581 0.15544 0.67509 0.0
O108 O 0.28714 0.12863 0.65418 0.0
C109 C 0.25625 0.28728 0.90802 0.0
C110 C 0.22038 0.31392 0.91774 0.0
C111 C 0.24304 0.30964 0.93584 0.0
N112 N 0.24194 0.27804 0.87552 0.0
N113 N 0.22058 0.2943 0.88109 0.0
C114 C 0.28205 0.27469 0.91177 0.0
H115 H 0.29011 0.26982 0.87963 0.0
H116 H 0.29297 0.29577 0.92919 0.0
H117 H 0.28255 0.24793 0.92951 0.0
C118 C 0.2853 0.25761 0.72612 0.0
N119 N 0.27452 0.23772 0.7581 0.0
N120 N 0.26521 0.26136 0.78586 0.0
C121 C 0.26804 0.29671 0.7708 0.0
C122 C 0.28084 0.29592 0.73184 0.0
C123 C 0.30288 0.24125 0.69444 0.0
H124 H 0.29528 0.24196 0.66206 0.0
H125 H 0.30758 0.21213 0.70306 0.0
H126 H 0.31971 0.25844 0.69354 0.0
O127 O 0.22663 0.18119 0.76606 0.0
O128 O 0.21723 0.21939 0.81953 0.0
H129 H 0.23858 0.32204 0.80556 0.0
H130 H 0.2534 0.35284 0.76799 0.0
C131 C 0.25635 0.33008 0.79128 0.0
H132 H 0.26818 0.34053 0.81709 0.0
H133 H 0.20583 0.29063 0.86094 0.0
O134 O 0.2762 0.15458 0.71565 0.0
C135 C 0.21093 0.19612 0.79111 0.0
Co136 Co 0.01195 0.97988 0.47753 0.0
Co137 Co 0.99921 0.92227 0.5474 0.0
C138 C 0.02397 0.99454 0.571 0.0
O139 O 0.02343 1.00487 0.5321 0.0
O140 O 0.01684 0.96184 0.58136 0.0
C141 C 0.0218 1.01406 0.38969 0.0
O142 O 0.03176 1.04261 0.36968 0.0
C143 C 1.00604 0.87137 0.61668 0.0
C144 C 0.96887 0.849 0.62646 0.0
C145 C 0.99181 0.85015 0.64411 0.0
N146 N 0.99205 0.88271 0.5847 0.0
N147 N 0.97002 0.86849 0.58996 0.0
C148 C 0.03115 0.88603 0.62414 0.0
H149 H 0.03848 0.8998 0.59506 0.0
H150 H 0.04351 0.86295 0.63282 0.0
H151 H 0.03067 0.90639 0.65088 0.0
C152 C 0.03367 0.90884 0.43611 0.0
N153 N 0.02307 0.92812 0.46882 0.0
N154 N 0.01479 0.90378 0.49675 0.0
C155 C 0.01803 0.8687 0.48137 0.0
C156 C 0.03015 0.87035 0.44201 0.0
C157 C 0.05003 0.92606 0.4031 0.0
H158 H 0.04183 0.92375 0.37124 0.0
H159 H 0.05384 0.95575 0.41078 0.0
H160 H 0.06743 0.91042 0.4016 0.0
O161 O 0.97506 0.9835 0.48178 0.0
O162 O 0.96779 0.94375 0.53458 0.0
H163 H 0.98866 0.84143 0.51434 0.0
H164 H 1.00553 0.81106 0.4793 0.0
C165 C 0.00709 0.83474 0.50193 0.0
H166 H 0.01849 0.82625 0.52913 0.0
H167 H 0.95533 0.87446 0.57042 0.0
O168 O 0.02287 1.0135 0.43022 0.0
C169 C 0.96046 0.9676 0.50795 0.0
Co170 Co 0.80886 0.95254 0.5084 0.0
Co171 Co 0.81321 1.00654 0.58382 0.0
C172 C 0.79847 0.92564 0.59836 0.0
O173 O 0.79957 0.91873 0.55859 0.0
O174 O 0.80287 0.95849 0.6115 0.0
C175 C 0.77206 0.92773 0.45992 0.0
O176 O 0.7614 0.93379 0.49697 0.0
C177 C 0.78582 1.04066 0.64801 0.0
C178 C 0.81029 1.07703 0.68463 0.0
C179 C 0.78663 1.06363 0.68287 0.0
N180 N 0.80773 1.0404 0.62899 0.0
N181 N 0.82245 1.0624 0.65074 0.0
C182 C 0.76454 1.01739 0.63454 0.0
H183 H 0.76711 1.00636 0.60184 0.0
H184 H 0.74763 1.03426 0.63623 0.0
H185 H 0.76227 0.99358 0.65686 0.0
C186 C 0.79268 1.02259 0.46788 0.0
N187 N 0.79595 1.00194 0.5034 0.0
N188 N 0.79492 1.02406 0.53662 0.0
C189 C 0.78911 1.05909 0.52353 0.0
C190 C 0.78724 1.05931 0.47914 0.0
C191 C 0.80224 1.01139 0.42485 0.0
H192 H 0.8128 0.98513 0.42628 0.0
H193 H 0.78696 1.00857 0.40259 0.0
H194 H 0.81434 1.03366 0.41193 0.0
O195 O 0.84438 0.96061 0.50786 0.0
O196 O 0.848 1.0006 0.56269 0.0
H197 H 0.80596 0.09989 0.56344 0.0
H198 H 0.77907 0.11659 0.53672 0.0
C199 C 0.78749 0.09226 0.55258 0.0
H200 H 0.77624 0.08518 0.58089 0.0
H201 H 0.84086 1.06625 0.64352 0.0
O202 O 0.79522 0.92819 0.45782 0.0
C203 C 0.85733 0.9816 0.53171 0.0
Co204 Co 0.94092 0.93807 0.23515 0.0
Co205 Co 0.94136 0.99297 0.15918 0.0
C206 C 0.95778 0.91364 0.14539 0.0
O207 O 0.95198 0.90653 0.18391 0.0
O208 O 0.95657 0.94704 0.1319 0.0
C209 C 0.97448 0.90359 0.28535 0.0
O210 O 0.98466 0.89323 0.24915 0.0
C211 C 0.96715 1.03703 0.09572 0.0
C212 C 0.93803 1.06206 0.05765 0.0
C213 C 0.96311 1.05766 0.05894 0.0
N214 N 0.94562 1.02957 0.11485 0.0
N215 N 0.92828 1.04507 0.09222 0.0
C216 C 0.99069 1.02065 0.11003 0.0
H217 H 0.98766 0.99999 0.13582 0.0
H218 H 1.00241 1.0432 0.12279 0.0
H219 H 1.00039 1.0073 0.08277 0.0
C220 C 0.95484 1.00869 0.28113 0.0
N221 N 0.95275 0.98867 0.24448 0.0
N222 N 0.95545 1.0114 0.21199 0.0
C223 C 0.96107 1.04612 0.22709 0.0
C224 C 0.96124 1.04578 0.27192 0.0
C225 C 0.94566 0.99514 0.32348 0.0
H226 H 0.94344 0.96463 0.32439 0.0
H227 H 0.95776 1.00466 0.3493 0.0
H228 H 0.92728 1.00683 0.32943 0.0
O229 O 0.90566 0.94304 0.22929 0.0
O230 O 0.90526 0.97963 0.17132 0.0
H231 H 0.94646 0.08014 0.1776 0.0
H232 H 0.96145 0.10635 0.21889 0.0
C233 C 0.96202 0.08029 0.19967 0.0
H234 H 0.97901 1.07987 0.18026 0.0
H235 H 0.90972 1.04219 0.09896 0.0
O236 O 0.95167 0.90951 0.28574 0.0
C237 C 0.89414 0.96042 0.20035 0.0
Co238 Co 0.74126 0.92741 0.22886 0.0
Co239 Co 0.75413 0.87139 0.15982 0.0
C240 C 0.72794 0.93871 0.13215 0.0
O241 O 0.72878 0.94888 0.17138 0.0
O242 O 0.7356 0.90626 0.12141 0.0
C243 C 0.71745 0.95116 0.30738 0.0
O244 O 0.699 0.92825 0.30224 0.0
C245 C 0.78021 0.83694 0.09327 0.0
C246 C 0.80435 0.79976 0.12977 0.0
C247 C 0.80202 0.8178 0.09129 0.0
N248 N 0.77048 0.83212 0.13205 0.0
N249 N 0.78478 0.80939 0.15359 0.0
C250 C 0.76976 0.86231 0.06039 0.0
H251 H 0.74963 0.86183 0.06262 0.0
H252 H 0.77539 0.85357 0.02782 0.0
H253 H 0.77616 0.89135 0.06611 0.0
C254 C 0.73098 0.8525 0.2766 0.0
N255 N 0.73486 0.87391 0.24132 0.0
N256 N 0.73644 0.85136 0.20842 0.0
C257 C 0.73093 0.81588 0.22091 0.0
C258 C 0.72703 0.81497 0.26521 0.0
C259 C 0.73861 0.86437 0.31996 0.0
H260 H 0.75261 0.88635 0.31681 0.0
H261 H 0.72263 0.87433 0.3384 0.0
H262 H 0.74672 0.84075 0.33766 0.0
O263 O 0.77673 0.93673 0.22977 0.0
O264 O 0.78425 0.90006 0.17498 0.0
H265 H 0.74637 0.76678 0.19241 0.0
H266 H 0.71392 0.76525 0.19936 0.0
C267 C 0.72951 0.78359 0.19067 0.0
H268 H 0.72749 0.79373 0.15753 0.0
H269 H 0.78289 0.8042 0.18614 0.0
O270 O 0.72962 0.96125 0.27483 0.0
C271 C 0.79149 0.92371 0.20225 0.0
Co272 Co 0.99353 0.68498 0.97797 0.0
Co273 Co 0.00713 0.74491 0.91157 0.0
C274 C 0.98297 0.67228 0.8831 0.0
O275 O 0.98192 0.66139 0.92188 0.0
O276 O 0.99147 0.70468 0.87458 0.0
C277 C 0.98515 0.64462 0.06385 0.0
O278 O 0.97501 0.61476 0.08086 0.0
C279 C 1.00009 0.79679 0.84331 0.0
C280 C 0.03623 0.82362 0.83756 0.0
C281 C 0.01384 0.82064 0.81816 0.0
N282 N 0.01376 0.78586 0.87589 0.0
N283 N 0.03513 0.80271 0.87309 0.0
C284 C 0.9758 0.78019 0.83338 0.0
H285 H 0.96801 0.76587 0.86175 0.0
H286 H 0.96303 0.80224 0.82316 0.0
H287 H 0.97787 0.75982 0.80687 0.0
C288 C 0.9718 0.75438 0.02333 0.0
N289 N 0.98221 0.73635 0.98949 0.0
N290 N 0.98953 0.76168 0.96185 0.0
C291 C 0.98512 0.79628 0.97809 0.0
C292 C 0.97426 0.79335 0.01859 0.0
C293 C 0.95863 0.73488 0.05874 0.0
H294 H 0.96701 0.74192 0.0897 0.0
H295 H 0.95812 0.70447 0.05313 0.0
H296 H 0.93943 0.74403 0.05977 0.0
O297 O 0.03015 0.6835 0.97567 0.0
O298 O 0.03943 0.72648 0.92746 0.0
H299 H 0.01059 0.83605 0.95293 0.0
H300 H 0.9817 0.85623 0.96934 0.0
C301 C 0.99062 0.83164 0.95435 0.0
H302 H 0.98399 0.82912 0.92133 0.0
H303 H 0.04952 0.7978 0.89361 0.0
O304 O 0.98363 0.64879 0.02364 0.0
C305 C 0.04583 0.70172 0.9539 0.0
Co306 Co 0.19332 0.71865 0.01672 0.0
Co307 Co 0.19901 0.66387 0.94041 0.0
C308 C 0.21201 0.74562 0.92944 0.0
O309 O 0.20666 0.75195 0.96844 0.0
O310 O 0.2107 0.71242 0.915 0.0
C311 C 0.22126 0.75866 0.07354 0.0
O312 O 0.23075 0.77509 0.03985 0.0
C313 C 0.22491 0.62837 0.87068 0.0
C314 C 0.2006 0.58273 0.8503 0.0
C315 C 0.22241 0.60047 0.84026 0.0
N316 N 0.2054 0.62765 0.89686 0.0
N317 N 0.19093 0.60019 0.88469 0.0
C318 C 0.2461 0.65412 0.87669 0.0
H319 H 0.24756 0.66216 0.91073 0.0
H320 H 0.26326 0.64067 0.86582 0.0
H321 H 0.24331 0.67993 0.85781 0.0
C322 C 0.20901 0.65065 0.0629 0.0
N323 N 0.20738 0.6702 0.02616 0.0
N324 N 0.21282 0.64816 0.99403 0.0
C325 C 0.22004 0.61455 1.00973 0.0
C326 C 0.21809 0.61476 0.05456 0.0
C327 C 0.19587 0.66218 0.10295 0.0
H328 H 0.18202 0.68376 0.09616 0.0
H329 H 0.20886 0.67358 0.1261 0.0
H330 H 0.18671 0.63772 0.11793 0.0
O331 O 0.15853 0.70927 1.00512 0.0
O332 O 0.16279 0.67061 0.94927 0.0
H333 H 0.21114 0.56527 0.97465 0.0
H334 H 0.24091 0.56452 0.9983 0.0
C335 C 0.22743 0.58235 0.98204 0.0
H336 H 0.23547 0.59266 0.95173 0.0
H337 H 0.17428 0.59379 0.89934 0.0
O338 O 0.19971 0.7459 0.07083 0.0
C339 C 0.14943 0.68898 0.97574 0.0
Co340 Co 0.06553 0.71233 0.23979 0.0
Co341 Co 0.06273 0.66141 0.31956 0.0
C342 C 0.04975 0.74359 0.3264 0.0
O343 O 0.05365 0.74828 0.28667 0.0
O344 O 0.05202 0.71122 0.34243 0.0
C345 C 0.03308 0.74067 0.18412 0.0
O346 O 0.02214 0.74799 0.22061 0.0
C347 C 0.03347 0.6255 0.38322 0.0
C348 C 0.05935 0.59454 0.4229 0.0
C349 C 0.03497 0.60388 0.41947 0.0
N350 N 0.05573 0.62851 0.36556 0.0
N351 N 0.07122 0.60981 0.38923 0.0
C352 C 0.01166 0.64629 0.36786 0.0
H353 H 0.01642 0.66435 0.34034 0.0
H354 H 0.99749 0.62619 0.35774 0.0
H355 H 1.00389 0.6635 0.39416 0.0
C356 C 0.0499 0.64171 0.19997 0.0
N357 N 0.05164 0.66335 0.23522 0.0
N358 N 0.04759 0.64264 0.26897 0.0
C359 C 0.04146 0.60756 0.25595 0.0
C360 C 0.04243 0.60583 0.21134 0.0
C361 C 0.06224 0.65112 0.15847 0.0
H362 H 0.07468 0.67531 0.16189 0.0
H363 H 0.04849 0.65718 0.13418 0.0
H364 H 0.07298 0.62685 0.14673 0.0
O365 O 0.10075 0.7031 0.24826 0.0
O366 O 0.09851 0.66647 0.30617 0.0
H367 H 0.05442 0.56633 0.29924 0.0
H368 H 0.02808 0.55173 0.26931 0.0
C369 C 0.03692 0.57557 0.28565 0.0
H370 H 0.02488 0.58464 0.31214 0.0
H371 H 0.08989 0.6087 0.38341 0.0
O372 O 0.0559 0.73471 0.18447 0.0
C373 C 0.11089 0.68348 0.27712 0.0
Co374 Co 0.2676 0.68544 0.26177 0.0
Co375 Co 0.25212 0.739 0.33436 0.0
C376 C 0.27801 0.6664 0.3545 0.0
O377 O 0.27873 0.65801 0.31492 0.0
O378 O 0.26961 0.69801 0.36637 0.0
C379 C 0.27899 0.65653 0.17166 0.0
O380 O 0.29082 0.63052 0.15025 0.0
C381 C 0.25803 0.78544 0.4084 0.0
C382 C 0.222 0.81211 0.41573 0.0
C383 C 0.24427 0.80797 0.43526 0.0
N384 N 0.2444 0.77609 0.37502 0.0
N385 N 0.22294 0.7923 0.37926 0.0
C386 C 0.28374 0.77289 0.41377 0.0
H387 H 0.29244 0.76801 0.38215 0.0
H388 H 0.29428 0.79399 0.43185 0.0
H389 H 0.28386 0.74613 0.43155 0.0
C390 C 0.28771 0.75836 0.22505 0.0
N391 N 0.2779 0.73774 0.25729 0.0
N392 N 0.26844 0.7607 0.28567 0.0
C393 C 0.27023 0.79623 0.2709 0.0
C394 C 0.28246 0.79629 0.23146 0.0
C395 C 0.30468 0.74302 0.19172 0.0
H396 H 0.31037 0.71421 0.19983 0.0
H397 H 0.32103 0.76119 0.1892 0.0
H398 H 0.29605 0.74318 0.16014 0.0
O399 O 0.23073 0.68093 0.26276 0.0
O400 O 0.22096 0.71821 0.31693 0.0
H401 H 0.25495 0.85214 0.26936 0.0
H402 H 0.26843 0.83835 0.31917 0.0
C403 C 0.25758 0.82861 0.29173 0.0
H404 H 0.23952 0.81956 0.3039 0.0
H405 H 0.20863 0.78863 0.35816 0.0
O406 O 0.28023 0.6559 0.21219 0.0
C407 C 0.21492 0.69561 0.28768 0.0
Co408 Co 0.00725 0.46099 1.00306 0.0
Co409 Co 0.00922 0.40554 0.07501 0.0
C410 C 0.02724 0.48319 0.08971 0.0
O411 O 0.02207 0.49072 0.05122 0.0
O412 O 0.0245 0.45004 0.10356 0.0
C413 C 0.02729 0.48602 0.92486 0.0
O414 O 0.04749 0.47023 0.93751 0.0
C415 C 0.03017 0.36028 0.13899 0.0
C416 C 1.00267 0.316 0.14949 0.0
C417 C 0.02506 0.32901 0.16303 0.0
N418 N 0.01164 0.36578 0.11267 0.0
N419 N 0.99532 0.33908 0.11849 0.0
C420 C 0.05285 0.38353 0.13901 0.0
H421 H 0.05703 0.39364 0.10632 0.0
H422 H 0.06846 0.36725 0.15109 0.0
H423 H 0.05001 0.4083 0.1598 0.0
C424 C 0.01883 0.39034 0.95354 0.0
N425 N 0.01848 0.411 0.9898 0.0
N426 N 0.02345 0.38903 0.02177 0.0
C427 C 0.02985 0.35481 1.00628 0.0
C428 C 0.02747 0.35448 0.96191 0.0
C429 C 1.003 0.39888 0.91662 0.0
H430 H 0.99192 0.42411 0.92312 0.0
H431 H 0.01427 0.40207 0.88759 0.0
H432 H 0.99047 0.37507 0.91076 0.0
O433 O 0.97268 0.45732 0.01534 0.0
O434 O 0.9732 0.41726 0.06929 0.0
H435 H 0.04715 0.33259 0.06148 0.0
H436 H 0.02027 0.30786 0.04503 0.0
C437 C 0.03691 0.3225 0.03359 0.0
H438 H 0.04842 0.30241 0.01548 0.0
H439 H 0.97907 0.33706 0.10189 0.0
O440 O 0.01034 0.49134 0.95196 0.0
C441 C 0.96166 0.43852 0.04391 0.0
Co442 Co 0.80995 0.45179 0.01636 0.0
Co443 Co 0.81422 0.50359 0.09391 0.0
C444 C 0.79247 0.42622 0.10263 0.0
O445 O 0.79574 0.41964 0.06326 0.0
O446 O 0.79786 0.45807 0.11751 0.0
C447 C 0.77397 0.43031 0.96437 0.0
O448 O 0.76246 0.438 1.00024 0.0
C449 C 0.78543 0.54144 0.15364 0.0
C450 C 0.80992 0.55476 0.20651 0.0
C451 C 0.78558 0.55346 0.19536 0.0
N452 N 0.80847 0.53618 0.14033 0.0
N453 N 0.82318 0.54466 0.17185 0.0
C454 C 0.76359 0.52809 0.12973 0.0
H455 H 0.76884 0.51239 0.10066 0.0
H456 H 0.75257 0.55253 0.12018 0.0
H457 H 0.75205 0.50999 0.15042 0.0
C458 C 0.79984 0.52407 0.97411 0.0
N459 N 0.8015 0.50344 1.01002 0.0
N460 N 0.80151 0.52594 0.04298 0.0
C461 C 0.79823 0.56162 0.02906 0.0
C462 C 0.79664 0.5616 0.98453 0.0
C463 C 0.80814 0.51058 0.93121 0.0
H464 H 0.8182 0.48389 0.93354 0.0
H465 H 0.79222 0.50735 0.91049 0.0
H466 H 0.82032 0.53161 0.91599 0.0
O467 O 0.84539 0.45117 0.02432 0.0
O468 O 0.84919 0.48773 0.08222 0.0
H469 H 0.81813 0.60345 0.06256 0.0
H470 H 0.7893 0.61927 0.04247 0.0
C471 C 0.79891 0.59543 0.05719 0.0
H472 H 0.79031 0.58944 0.08838 0.0
H473 H 0.84191 0.54014 0.17112 0.0
O474 O 0.79714 0.42934 0.96414 0.0
C475 C 0.85841 0.46659 0.05299 0.0
Co476 Co 0.95567 0.45706 0.71049 0.0
Co477 Co 0.93809 0.50569 0.6399 0.0
C478 C 0.96312 0.42704 0.62574 0.0
O479 O 0.96825 0.42394 0.66485 0.0
O480 O 0.95184 0.45622 0.61314 0.0
C481 C 0.98834 0.431 0.7697 0.0
O482 O 1.0023 0.42558 0.736 0.0
C483 C 0.96204 0.55028 0.57841 0.0
C484 C 0.93357 0.57061 0.53552 0.0
C485 C 0.9586 0.56993 0.54107 0.0
N486 N 0.94028 0.54007 0.59427 0.0
N487 N 0.92319 0.55258 0.56887 0.0
C488 C 0.98562 0.5368 0.59611 0.0
H489 H 0.98266 0.51269 0.61768 0.0
H490 H 0.99406 0.55971 0.61474 0.0
H491 H 0.99838 0.52856 0.57008 0.0
C492 C 0.97699 0.52855 0.74291 0.0
N493 N 0.96783 0.50805 0.7103 0.0
N494 N 0.95407 0.52958 0.68733 0.0
C495 C 0.95244 0.56372 0.70635 0.0
C496 C 0.9666 0.56413 0.74313 0.0
C497 C 1.00231 0.52297 0.75862 0.0
H498 H 0.01034 0.4968 0.74605 0.0
H499 H 0.01401 0.5464 0.74731 0.0
H500 H 1.00269 0.52411 0.79375 0.0
O501 O 0.91842 0.45517 0.7096 0.0
O502 O 0.90499 0.49403 0.6597 0.0
H503 H 0.92721 0.60831 0.71902 0.0
H504 H 0.94715 0.61527 0.67393 0.0
C505 C 0.9361 0.59417 0.69144 0.0
H506 H 0.92217 0.58276 0.66966 0.0
H507 H 0.90464 0.5472 0.57308 0.0
O508 O 0.96585 0.4369 0.76455 0.0
C509 C 0.90093 0.47062 0.68959 0.0
Co510 Co 0.74935 0.42837 0.72968 0.0
Co511 Co 0.76512 0.37202 0.66227 0.0
C512 C 0.73762 0.43979 0.6343 0.0
O513 O 0.73619 0.44915 0.67364 0.0
O514 O 0.74784 0.40898 0.62377 0.0
C515 C 0.72387 0.45114 0.80692 0.0
O516 O 0.70583 0.42785 0.80004 0.0
C517 C 0.78794 0.33556 0.5926 0.0
C518 C 0.81446 0.30001 0.62609 0.0
C519 C 0.80942 0.31601 0.58729 0.0
N520 N 0.78103 0.33297 0.63335 0.0
N521 N 0.79669 0.3112 0.65318 0.0
C522 C 0.77503 0.35865 0.56027 0.0
H523 H 0.75524 0.35901 0.56745 0.0
H524 H 0.77795 0.34724 0.52774 0.0
H525 H 0.78208 0.38776 0.56126 0.0
C526 C 0.73922 0.35277 0.77626 0.0
N527 N 0.74364 0.37446 0.74142 0.0
N528 N 0.74618 0.35203 0.70855 0.0
C529 C 0.74103 0.31636 0.72036 0.0
C530 C 0.7362 0.31521 0.76425 0.0
C531 C 0.74537 0.36479 0.82033 0.0
H532 H 0.75918 0.38716 0.81849 0.0
H533 H 0.72877 0.37431 0.83732 0.0
H534 H 0.75321 0.34136 0.83875 0.0
O535 O 0.78465 0.44012 0.72975 0.0
O536 O 0.79514 0.3973 0.68261 0.0
H537 H 0.75859 0.26893 0.69207 0.0
H538 H 0.72613 0.26441 0.69791 0.0
C539 C 0.74111 0.28414 0.6899 0.0
H540 H 0.73904 0.29425 0.65676 0.0
H541 H 0.79677 0.30725 0.6861 0.0
O542 O 0.73709 0.46129 0.77569 0.0
C543 C 0.80087 0.42345 0.70791 0.0
Co544 Co 0.50797 0.20432 0.03448 0.0
Co545 Co 0.50724 0.26011 0.96371 0.0
C546 C 0.48514 0.18775 0.94576 0.0
O547 O 0.49182 0.1784 0.9832 0.0
O548 O 0.48757 0.22147 0.93357 0.0
C549 C 0.48476 0.18477 0.11125 0.0
O550 O 0.46592 0.20225 0.09549 0.0
C551 C 0.49581 0.31333 0.89963 0.0
C552 C 0.52993 0.34591 0.89449 0.0
C553 C 0.5072 0.34122 0.87686 0.0
N554 N 0.51104 0.30188 0.92957 0.0
N555 N 0.53117 0.32204 0.92737 0.0
C556 C 0.47235 0.29419 0.88942 0.0
H557 H 0.46386 0.28267 0.91884 0.0
H558 H 0.45953 0.31379 0.87419 0.0
H559 H 0.47604 0.2708 0.86696 0.0
C560 C 0.50045 0.27658 0.08498 0.0
N561 N 0.49999 0.25587 0.04875 0.0
N562 N 0.49451 0.27783 0.01721 0.0
C563 C 0.48833 0.31203 0.03293 0.0
C564 C 0.49139 0.31242 0.07724 0.0
C565 C 0.51804 0.26882 0.11955 0.0
H566 H 0.52738 0.24181 0.11389 0.0
H567 H 0.50876 0.26975 0.15078 0.0
H568 H 0.53207 0.2912 0.12 0.0
O569 O 0.54269 0.20118 0.02267 0.0
O570 O 0.54134 0.23817 0.96631 0.0
H571 H 0.497 0.36018 0.99555 0.0
H572 H 0.46818 0.36292 0.02356 0.0
C573 C 0.48067 0.34405 1.00572 0.0
H574 H 0.47141 0.33352 0.97695 0.0
H575 H 0.54625 0.31788 0.94656 0.0
O576 O 0.50172 0.17475 0.0859 0.0
C577 C 0.55299 0.21607 0.99052 0.0
Co578 Co 0.70266 0.1675 0.97088 0.0
Co579 Co 0.68546 0.11819 0.89943 0.0
C580 C 0.71434 0.19146 0.88307 0.0
O581 O 0.71676 0.19727 0.92265 0.0
O582 O 0.70333 0.16216 0.87054 0.0
C583 C 0.73566 0.19913 0.02831 0.0
O584 O 0.75133 0.1967 0.99648 0.0
C585 C 0.70648 1.07245 0.83787 0.0
C586 C 0.67992 1.07276 0.78589 0.0
C587 C 0.70396 1.06473 0.79506 0.0
N588 N 0.68504 0.08443 0.85339 0.0
N589 N 0.66898 0.08377 0.8225 0.0
C590 C 0.73005 1.07739 0.86092 0.0
H591 H 0.72889 0.10088 0.88386 0.0
H592 H 0.73396 1.05145 0.87887 0.0
H593 H 0.74549 0.08292 0.83877 0.0
C594 C 0.71727 0.0932 1.00955 0.0
N595 N 0.70995 0.11463 0.97642 0.0
N596 N 0.70005 0.09282 0.94787 0.0
C597 C 0.70019 1.05697 0.96261 0.0
C598 C 0.71096 1.05576 1.0029 0.0
C599 C 0.73054 0.10796 0.0471 0.0
H600 H 0.7176 0.12363 0.06763 0.0
H601 H 0.74536 0.12649 0.0358 0.0
H602 H 0.73892 0.08533 0.06595 0.0
O603 O 0.66668 0.17354 0.97029 0.0
O604 O 0.65285 0.13825 0.91719 0.0
H605 H 0.67365 1.03558 0.9191 0.0
H606 H 0.67988 1.0054 0.96415 0.0
C607 C 0.68795 1.0251 0.9406 0.0
H608 H 0.70166 1.00967 0.92123 0.0
H609 H 0.65154 0.09511 0.82505 0.0
O610 O 0.7135 0.19148 0.02194 0.0
C611 C 0.64918 0.16125 0.9479 0.0
Co612 Co 0.55481 0.2239 0.32635 0.0
Co613 Co 0.5711 0.17696 0.3997 0.0
C614 C 0.5455 0.2547 0.41059 0.0
O615 O 0.54189 0.2581 0.37091 0.0
O616 O 0.55576 0.22518 0.42455 0.0
C617 C 0.52238 0.24663 0.26485 0.0
O618 O 0.50817 0.25352 0.29788 0.0
C619 C 0.54771 0.13022 0.45933 0.0
C620 C 0.57612 0.11208 0.50364 0.0
C621 C 0.55125 0.11055 0.49654 0.0
N622 N 0.56928 0.14254 0.44492 0.0
N623 N 0.58637 0.13133 0.47111 0.0
C624 C 0.52398 0.14175 0.44049 0.0
H625 H 0.52641 0.16634 0.41943 0.0
H626 H 0.51677 0.11833 0.4211 0.0
H627 H 0.51047 0.14851 0.46589 0.0
C628 C 0.53374 0.15208 0.29577 0.0
N629 N 0.54267 0.17304 0.32817 0.0
N630 N 0.55685 0.15223 0.35119 0.0
C631 C 0.55908 0.11814 0.33231 0.0
C632 C 0.54493 0.11709 0.29552 0.0
C633 C 0.50779 0.15548 0.2823 0.0
H634 H 0.50609 0.15113 0.24759 0.0
H635 H 0.49975 0.18238 0.29262 0.0
H636 H 0.49691 0.13291 0.29768 0.0
O637 O 0.5921 0.22632 0.32913 0.0
O638 O 0.60394 0.19208 0.38435 0.0
H639 H 0.58936 0.10005 0.36956 0.0
H640 H 0.58463 1.0738 0.32057 0.0
C641 C 0.57557 0.08814 0.34784 0.0
H642 H 0.56462 1.0671 0.36563 0.0
H643 H 0.60473 0.13839 0.46797 0.0
O644 O 0.54493 0.24176 0.27077 0.0
C645 C 0.60885 0.21391 0.35339 0.0
Co646 Co 0.75041 0.20671 0.27585 0.0
Co647 Co 0.76251 0.26267 0.3445 0.0
C648 C 0.77305 0.1806 0.35685 0.0
O649 O 0.76566 0.17341 0.31952 0.0
O650 O 0.77334 0.21415 0.37009 0.0
C651 C 0.76398 0.17212 0.19957 0.0
O652 O 0.78613 0.18078 0.21137 0.0
C653 C 0.79931 0.29492 0.39399 0.0
C654 C 0.78172 0.34162 0.42791 0.0
C655 C 0.80338 0.32166 0.42473 0.0
N656 N 0.77645 0.29829 0.38033 0.0
N657 N 0.76608 0.32694 0.39978 0.0
C658 C 0.81708 0.26651 0.37736 0.0
H659 H 0.8138 0.26089 0.34316 0.0
H660 H 0.83603 0.27638 0.38178 0.0
H661 H 0.81472 0.2398 0.3947 0.0
C662 C 0.76626 0.27156 0.22078 0.0
N663 N 0.76586 0.25248 0.25807 0.0
N664 N 0.77375 0.27464 0.28815 0.0
C665 C 0.78125 0.30737 0.27048 0.0
C666 C 0.77674 0.30665 0.22685 0.0
C667 C 0.75086 0.26161 0.18358 0.0
H668 H 0.7366 0.24129 0.19313 0.0
H669 H 0.76257 0.25007 0.15784 0.0
H670 H 0.74185 0.28689 0.17076 0.0
O671 O 0.71804 0.22008 0.29624 0.0
O672 O 0.7254 0.26206 0.34716 0.0
H673 H 0.80498 0.32918 0.31804 0.0
H674 H 0.77654 0.3535 0.31333 0.0
C675 C 0.79142 0.33951 0.29524 0.0
H676 H 0.80062 0.36013 0.27419 0.0
H677 H 0.74805 0.3351 0.39556 0.0
O678 O 0.74657 0.17606 0.22603 0.0
C679 C 0.71057 0.24269 0.32482 0.0
Co680 Co 0.5156 0.98898 0.06505 0.0
Co681 Co 0.50773 0.93088 0.13443 0.0
C682 C 0.5286 1.00623 0.15845 0.0
O683 O 0.52791 1.01615 0.11928 0.0
O684 O 0.52199 0.97327 0.16868 0.0
C685 C 0.53174 1.02081 0.98274 0.0
O686 O 0.55419 1.00894 0.98659 0.0
C687 C 0.51798 0.8843 0.20473 0.0
C688 C 0.4852 0.84854 0.2098 0.0
C689 C 0.50667 0.8578 0.22988 0.0
N690 N 0.50364 0.89117 0.17177 0.0
N691 N 0.48422 0.86945 0.17434 0.0
C692 C 0.54232 0.90224 0.21079 0.0
H693 H 0.55042 0.91012 0.1795 0.0
H694 H 0.55473 0.88304 0.2277 0.0
H695 H 0.54015 0.92806 0.23002 0.0
C696 C 0.53257 0.91708 0.0176 0.0
N697 N 0.52744 0.93739 0.05332 0.0
N698 N 0.52619 0.9139 0.0854 0.0
C699 C 0.53222 0.87897 0.07155 0.0
C700 C 0.53666 0.87962 0.0276 0.0
C701 C 0.52568 0.92935 0.97444 0.0
H702 H 0.5096 0.94711 0.97845 0.0
H703 H 0.54128 0.94398 0.95939 0.0
H704 H 0.52033 0.90577 0.95354 0.0
O705 O 0.47975 0.98614 0.06835 0.0
O706 O 0.47373 0.94438 0.11912 0.0
H707 H 0.51343 0.83488 0.10401 0.0
H708 H 0.54362 0.82256 0.08537 0.0
C709 C 0.53234 0.84519 0.09953 0.0
H710 H 0.5397 0.85256 0.13111 0.0
H711 H 0.46985 0.87013 0.15298 0.0
O712 O 0.51874 1.02419 0.01614 0.0
C713 C 0.46548 0.967 0.09173 0.0
Co714 Co 0.31811 0.94876 0.02617 0.0
Co715 Co 0.3117 1.00354 0.10258 0.0
C716 C 0.29843 0.92186 0.11267 0.0
O717 O 0.30411 0.91554 0.0738 0.0
O718 O 0.29962 0.95502 0.12722 0.0
C719 C 0.29093 0.90882 0.96792 0.0
O720 O 0.28106 0.89207 1.00109 0.0
C721 C 0.28471 1.039 0.17129 0.0
C722 C 0.30857 0.08491 0.19245 0.0
C723 C 0.28667 1.06709 0.20165 0.0
N724 N 0.30461 1.03971 0.14598 0.0
N725 N 0.31879 1.06735 0.15863 0.0
C726 C 0.26367 1.01314 0.16442 0.0
H727 H 0.26272 1.00504 0.13033 0.0
H728 H 0.24634 1.02654 0.17448 0.0
H729 H 0.26623 0.98739 0.18349 0.0
C730 C 0.30316 1.01686 0.97957 0.0
N731 N 0.3044 0.99735 0.01637 0.0
N732 N 0.29865 1.0194 0.04832 0.0
C733 C 0.29156 1.05297 0.03235 0.0
C734 C 0.29397 1.05273 0.98756 0.0
C735 C 0.3167 1.00526 0.93995 0.0
H736 H 0.33061 0.98391 0.94731 0.0
H737 H 0.30398 0.99349 0.91657 0.0
H738 H 0.32586 1.02973 0.92499 0.0
O739 O 0.35267 0.95762 0.03956 0.0
O740 O 0.34809 0.99617 0.09549 0.0
H741 H 0.29982 0.10242 0.06762 0.0
H742 H 0.27031 0.10274 0.04303 0.0
C743 C 0.28371 0.08511 0.05974 0.0
H744 H 0.27541 1.07474 0.08982 0.0
H745 H 0.33561 1.07384 0.14464 0.0
O746 O 0.31239 0.92171 0.97164 0.0
C747 C 0.36158 0.97746 0.06952 0.0
Co748 Co 0.44693 0.96239 0.79137 0.0
Co749 Co 0.44814 1.01072 0.71139 0.0
C750 C 0.46379 0.92937 0.70603 0.0
O751 O 0.45986 0.92568 0.7459 0.0
O752 O 0.46077 0.96122 0.68897 0.0
C753 C 0.48281 0.94986 0.84423 0.0
O754 O 0.49344 0.94922 0.80653 0.0
C755 C 0.47584 1.04866 0.64853 0.0
C756 C 0.44928 1.078 0.6086 0.0
C757 C 0.47389 1.07062 0.61275 0.0
N758 N 0.45357 1.04356 0.66534 0.0
N759 N 0.43764 1.06127 0.64159 0.0
C760 C 0.49813 1.02908 0.66387 0.0
H761 H 0.49404 1.01212 0.69258 0.0
H762 H 0.51241 1.04974 0.67186 0.0
H763 H 0.50548 1.0108 0.63816 0.0
C764 C 0.45758 1.0354 0.82943 0.0
N765 N 0.45767 1.01297 0.79476 0.0
N766 N 0.46279 1.03278 0.76091 0.0
C767 C 0.46847 1.06821 0.77371 0.0
C768 C 0.466 1.07073 0.81825 0.0
C769 C 0.44111 1.02856 0.8671 0.0
H770 H 0.43463 0.99924 0.86827 0.0
H771 H 0.44993 1.03658 0.89724 0.0
H772 H 0.42489 1.04677 0.86429 0.0
O773 O 0.41152 0.96716 0.78485 0.0
O774 O 0.41245 1.00275 0.726 0.0
H775 H 0.45713 0.10671 0.72605 0.0
H776 H 0.48035 0.12493 0.7609 0.0
C777 C 0.47382 0.09975 0.74382 0.0
H778 H 0.48794 0.09106 0.72044 0.0
H779 H 0.41889 1.06089 0.64704 0.0
O780 O 0.45981 0.94514 0.84617 0.0
C781 C 0.40069 0.98543 0.75567 0.0
Co782 Co 0.24447 0.98138 0.77863 0.0
Co783 Co 0.25836 0.92715 0.70575 0.0
C784 C 0.23317 1.00035 0.68603 0.0
O785 O 0.23313 1.00888 0.72558 0.0
O786 O 0.24085 0.96836 0.67399 0.0
C787 C 0.23417 1.01146 0.86873 0.0
O788 O 0.22282 1.03807 0.88996 0.0
C789 C 0.25174 0.88066 0.63185 0.0
C790 C 0.28747 0.85307 0.62451 0.0
C791 C 0.26524 0.85773 0.60501 0.0
N792 N 0.26549 0.88972 0.66518 0.0
N793 N 0.28678 0.87297 0.66092 0.0
C794 C 0.22618 0.8939 0.62651 0.0
H795 H 0.21755 0.89901 0.65814 0.0
H796 H 0.21538 0.87308 0.60847 0.0
H797 H 0.22636 0.92066 0.60873 0.0
C798 C 0.22409 0.90903 0.8167 0.0
N799 N 0.23376 0.92929 0.78402 0.0
N800 N 0.2425 0.90598 0.75531 0.0
C801 C 0.24039 0.87052 0.77023 0.0
C802 C 0.22867 0.8709 0.81016 0.0
C803 C 0.20773 0.92496 0.85058 0.0
H804 H 0.21675 0.92458 0.88181 0.0
H805 H 0.20232 0.95392 0.84259 0.0
H806 H 0.19117 0.90731 0.85377 0.0
O807 O 0.2813 0.98511 0.7762 0.0
O808 O 0.28989 0.94762 0.72165 0.0
H809 H 0.27033 0.84602 0.73623 0.0
H810 H 0.25469 0.81398 0.77112 0.0
C811 C 0.25225 0.83768 0.74892 0.0
H812 H 0.24096 0.8285 0.72178 0.0
H813 H 0.30116 0.87634 0.68195 0.0
O814 O 0.23268 1.01167 0.82824 0.0
C815 C 0.29658 0.97017 0.75048 0.0
Co816 Co 0.50093 0.68705 0.56102 0.0
Co817 Co 0.51869 0.74323 0.4947 0.0
C818 C 0.48988 0.67367 0.46828 0.0
O819 O 0.48741 0.66401 0.50722 0.0
O820 O 0.50059 0.70436 0.45898 0.0
C821 C 0.48845 0.65642 0.64913 0.0
O822 O 0.47756 0.62903 0.66976 0.0
C823 C 0.51435 0.79264 0.42506 0.0
C824 C 0.55121 0.8171 0.4189 0.0
C825 C 0.52885 0.81473 0.39942 0.0
N826 N 0.52758 0.78164 0.45795 0.0
N827 N 0.54951 0.79667 0.45473 0.0
C828 C 0.48861 0.78082 0.41786 0.0
H829 H 0.47935 0.77504 0.44879 0.0
H830 H 0.47863 0.80277 0.40032 0.0
H831 H 0.48843 0.75479 0.39859 0.0
C832 C 0.48093 0.76081 0.60147 0.0
N833 N 0.49235 0.7403 0.5705 0.0
N834 N 0.5026 0.76374 0.54364 0.0
C835 C 0.49989 0.79921 0.55822 0.0
C836 C 0.48602 0.79902 0.59584 0.0
C837 C 0.46235 0.74537 0.6319 0.0
H838 H 0.46868 0.74825 0.66502 0.0
H839 H 0.45827 0.7157 0.62454 0.0
H840 H 0.44537 0.76194 0.62967 0.0
O841 O 0.53757 0.67626 0.55426 0.0
O842 O 0.54926 0.72073 0.50944 0.0
H843 H 0.53119 0.82419 0.52864 0.0
H844 H 0.5137 0.85611 0.56083 0.0
C845 C 0.5125 0.83216 0.53847 0.0
H846 H 0.50251 0.84086 0.50968 0.0
H847 H 0.56365 0.79134 0.47567 0.0
O848 O 0.48855 0.65526 0.60858 0.0
C849 C 0.5541 0.69263 0.53214 0.0
Co850 Co 0.7036 0.66695 0.47809 0.0
Co851 Co 0.68372 0.61588 0.41035 0.0
C852 C 0.70807 0.69271 0.38877 0.0
O853 O 0.71345 0.69833 0.42748 0.0
O854 O 0.69676 0.66285 0.37874 0.0
C855 C 0.73864 0.69964 0.53159 0.0
O856 O 0.75318 0.69728 0.49816 0.0
C857 C 0.70613 0.57182 0.34837 0.0
C858 C 0.67798 0.55724 0.30191 0.0
C859 C 0.70288 0.55606 0.30875 0.0
N860 N 0.68436 0.58128 0.36477 0.0
N861 N 0.66741 0.57211 0.33717 0.0
C862 C 0.72988 0.58484 0.36641 0.0
H863 H 0.72732 0.60896 0.38808 0.0
H864 H 0.73812 0.56157 0.38451 0.0
H865 H 0.74284 0.59334 0.34083 0.0
C866 C 0.72287 0.59372 0.51317 0.0
N867 N 0.71359 0.61502 0.48149 0.0
N868 N 0.70285 0.59277 0.45439 0.0
C869 C 0.70449 0.55689 0.46839 0.0
C870 C 0.71717 0.55603 0.50671 0.0
C871 C 0.7365 0.60885 0.5501 0.0
H872 H 0.7237 0.62439 0.57102 0.0
H873 H 0.75104 0.62756 0.53806 0.0
H874 H 0.74526 0.58645 0.56876 0.0
O875 O 0.66744 0.66727 0.48535 0.0
O876 O 0.65132 0.62808 0.43808 0.0
H877 H 0.67451 0.53464 0.43319 0.0
H878 H 0.68701 0.50281 0.47218 0.0
C879 C 0.69142 0.52477 0.44836 0.0
H880 H 0.7033 0.51235 0.42326 0.0
H881 H 0.64905 0.57885 0.34074 0.0
O882 O 0.71631 0.69175 0.5276 0.0
C883 C 0.64896 0.65079 0.46958 0.0
Co884 Co 0.56922 0.73815 0.80911 0.0
Co885 Co 0.57113 0.68268 0.88482 0.0
C886 C 0.55224 0.7612 0.89879 0.0
O887 O 0.55617 0.76908 0.85966 0.0
O888 O 0.5559 0.72816 0.91195 0.0
C889 C 0.53537 0.76674 0.75449 0.0
O890 O 0.52468 0.777 0.79029 0.0
C891 C 0.5468 0.64346 0.95267 0.0
C892 C 0.57422 0.60587 0.97982 0.0
C893 C 0.55046 0.61828 0.98544 0.0
N894 N 0.56737 0.64642 0.92932 0.0
N895 N 0.58376 0.62375 0.94556 0.0
C896 C 0.52362 0.66287 0.94173 0.0
H897 H 0.52344 0.66996 0.90735 0.0
H898 H 0.50769 0.64499 0.94977 0.0
H899 H 0.52216 0.68922 0.96026 0.0
C900 C 0.55884 0.66777 0.76373 0.0
N901 N 0.5596 0.6871 0.80077 0.0
N902 N 0.55644 0.66405 0.83265 0.0
C903 C 0.55065 0.62975 0.81647 0.0
C904 C 0.55157 0.63077 0.77142 0.0
C905 C 0.57299 0.68044 0.72517 0.0
H906 H 0.58558 0.70354 0.73351 0.0
H907 H 0.56074 0.69044 0.70033 0.0
H908 H 0.58369 0.65688 0.71153 0.0
O909 O 0.60425 0.73687 0.81665 0.0
O910 O 0.60701 0.69768 0.87197 0.0
H911 H 0.5622 0.57895 0.84552 0.0
H912 H 0.53072 0.57927 0.82989 0.0
C913 C 0.54556 0.59632 0.84367 0.0
H914 H 0.54011 0.60495 0.87625 0.0
H915 H 0.60153 0.62107 0.93391 0.0
O916 O 0.55824 0.76145 0.75498 0.0
C917 C 0.61693 0.71958 0.84409 0.0
Co918 Co 0.76119 0.70654 0.77801 0.0
Co919 Co 0.77276 0.76343 0.84617 0.0
C920 C 0.78473 0.68177 0.85918 0.0
O921 O 0.7774 0.67413 0.82186 0.0
O922 O 0.78467 0.71546 0.87211 0.0
C923 C 0.77344 0.6732 0.69949 0.0
O924 O 0.79577 0.68311 0.70885 0.0
C925 C 0.80774 0.79854 0.89831 0.0
C926 C 0.78794 0.84505 0.92857 0.0
C927 C 0.80998 0.82595 0.92905 0.0
N928 N 0.78546 0.80052 0.88171 0.0
N929 N 0.77385 0.82916 0.89884 0.0
C930 C 0.82666 0.77079 0.8845 0.0
H931 H 0.82518 0.76519 0.84986 0.0
H932 H 0.84515 0.78129 0.89186 0.0
H933 H 0.8238 0.74393 0.90129 0.0
C934 C 0.77564 0.77222 0.72199 0.0
N935 N 0.77551 0.75333 0.75948 0.0
N936 N 0.78345 0.77578 0.78924 0.0
C937 C 0.79083 0.80843 0.77106 0.0
C938 C 0.7862 0.80743 0.72734 0.0
C939 C 0.75988 0.76208 0.68537 0.0
H940 H 0.74579 0.7417 0.69552 0.0
H941 H 0.77133 0.75061 0.65927 0.0
H942 H 0.75064 0.78726 0.67282 0.0
O943 O 0.72874 0.71764 0.80015 0.0
O944 O 0.73554 0.76055 0.85023 0.0
H945 H 0.78626 0.85581 0.81205 0.0
H946 H 0.81118 0.86023 0.77416 0.0
C947 C 0.80119 0.84063 0.79542 0.0
H948 H 0.81401 0.83024 0.81949 0.0
H949 H 0.75593 0.83637 0.89215 0.0
O950 O 0.75697 0.67579 0.72796 0.0
C951 C 0.72102 0.73954 0.82924 0.0
Co952 Co 0.51837 0.49984 0.54394 0.0
Co953 Co 0.49891 0.45023 0.61545 0.0
C954 C 0.52794 0.51832 0.6387 0.0
O955 O 0.52912 0.52666 0.59905 0.0
O956 O 0.51803 0.48765 0.65027 0.0
C957 C 0.53482 0.52628 0.45511 0.0
O958 O 0.54801 0.5517 0.43528 0.0
C959 C 0.49846 0.39734 0.68274 0.0
C960 C 0.45923 0.38498 0.69102 0.0
C961 C 0.48189 0.37842 0.70809 0.0
N962 N 0.48619 0.41445 0.65218 0.0
N963 N 0.46282 0.40639 0.65639 0.0
C964 C 0.52501 0.40346 0.69034 0.0
H965 H 0.53318 0.42156 0.66535 0.0
H966 H 0.53465 0.37627 0.6897 0.0
H967 H 0.52759 0.41633 0.72217 0.0
C968 C 0.53725 0.42344 0.51178 0.0
N969 N 0.52672 0.44644 0.54121 0.0
N970 N 0.51584 0.42546 0.57001 0.0
C971 C 0.51764 0.38901 0.55842 0.0
C972 C 0.53124 0.38622 0.52081 0.0
C973 C 0.55523 0.43571 0.47847 0.0
H974 H 0.54758 0.43195 0.44632 0.0
H975 H 0.56075 0.46518 0.48356 0.0
H976 H 0.5716 0.41766 0.47984 0.0
O977 O 0.48168 0.50748 0.53905 0.0
O978 O 0.47002 0.47448 0.59514 0.0
H979 H 0.48527 0.36701 0.58777 0.0
H980 H 0.50327 0.3324 0.56021 0.0
C981 C 0.5041 0.35794 0.58021 0.0
H982 H 0.51325 0.3511 0.61045 0.0
H983 H 0.44922 0.4172 0.63717 0.0
O984 O 0.53391 0.52768 0.4957 0.0
C985 C 0.46507 0.49561 0.56431 0.0
Co986 Co 0.31864 0.44724 0.52388 0.0
Co987 Co 0.31172 0.50314 0.59831 0.0
C988 C 0.30149 0.42019 0.61199 0.0
O989 O 0.30651 0.4136 0.57291 0.0
O990 O 0.30252 0.45366 0.62575 0.0
C991 C 0.29136 0.4066 0.46717 0.0
O992 O 0.28127 0.39125 0.50102 0.0
C993 C 0.28446 0.53788 0.66694 0.0
C994 C 0.30728 0.58558 0.68653 0.0
C995 C 0.28593 0.56657 0.69668 0.0
N996 N 0.30409 0.53948 0.64108 0.0
N997 N 0.31767 0.56815 0.65278 0.0
C998 C 0.26414 0.5105 0.6611 0.0
H999 H 0.26335 0.50141 0.62732 0.0
H1000 H 0.24647 0.52301 0.67085 0.0
H1001 H 0.26746 0.48544 0.68097 0.0
C1002 C 0.30268 0.51385 0.47699 0.0
N1003 N 0.30286 0.49412 0.51372 0.0
N1004 N 0.29633 0.51606 0.54533 0.0
C1005 C 0.28964 0.54967 0.52901 0.0
C1006 C 0.29328 0.54966 0.48448 0.0
C1007 C 0.31815 0.50309 0.43921 0.0
H1008 H 0.33165 0.48157 0.44803 0.0
H1009 H 0.3067 0.49182 0.41362 0.0
H1010 H 0.32798 0.52786 0.42638 0.0
O1011 O 0.35299 0.46148 0.53241 0.0
O1012 O 0.3479 0.50291 0.5853 0.0
H1013 H 0.29758 0.59897 0.56483 0.0
H1014 H 0.26846 0.59963 0.5388 0.0
C1015 C 0.28154 0.58185 0.55611 0.0
H1016 H 0.2727 0.5715 0.58575 0.0
H1017 H 0.33417 0.57544 0.63823 0.0
O1018 O 0.31299 0.41886 0.47033 0.0
C1019 C 0.36158 0.4857 0.55825 0.0
Co1020 Co 0.45209 0.45689 0.29198 0.0
Co1021 Co 0.45632 0.51291 0.21714 0.0
C1022 C 0.47131 0.43206 0.20371 0.0
O1023 O 0.46532 0.42452 0.24219 0.0
O1024 O 0.46976 0.4656 0.19067 0.0
C1025 C 0.48278 0.4225 0.34798 0.0
O1026 O 0.4934 0.41009 0.31303 0.0
C1027 C 0.48402 0.55078 0.15167 0.0
C1028 C 0.45887 0.59229 0.1251 0.0
C1029 C 0.48207 0.5775 0.11991 0.0
N1030 N 0.463 0.54939 0.17395 0.0
N1031 N 0.44798 0.57438 0.15806 0.0
C1032 C 0.50597 0.52834 0.16284 0.0
H1033 H 0.5052 0.52021 0.19692 0.0
H1034 H 0.52286 0.54451 0.1563 0.0
H1035 H 0.5064 0.50243 0.14336 0.0
C1036 C 0.46514 0.52517 0.33929 0.0
N1037 N 0.4649 0.50605 0.30206 0.0
N1038 N 0.47012 0.52893 0.27074 0.0
C1039 C 0.47618 0.56278 0.28768 0.0
C1040 C 0.47352 0.56168 0.33242 0.0
C1041 C 0.4503 0.51299 0.37726 0.0
H1042 H 0.43739 0.49048 0.36845 0.0
H1043 H 0.46219 0.5026 0.40255 0.0
H1044 H 0.43984 0.53693 0.39058 0.0
O1045 O 0.41713 0.46507 0.28287 0.0
O1046 O 0.41967 0.50451 0.22753 0.0
H1047 H 0.46626 0.6125 0.2547 0.0
H1048 H 0.49603 0.61414 0.27826 0.0
C1049 C 0.48287 0.59608 0.26129 0.0
H1050 H 0.4911 0.58712 0.23059 0.0
H1051 H 0.43028 0.5787 0.16908 0.0
O1052 O 0.46037 0.43108 0.34614 0.0
C1053 C 0.40707 0.48553 0.25482 0.0
Co1054 Co 0.24996 0.48131 0.27674 0.0
Co1055 Co 0.2636 0.4262 0.20527 0.0
C1056 C 0.23814 0.49931 0.18438 0.0
O1057 O 0.23824 0.50828 0.22376 0.0
O1058 O 0.24601 0.46729 0.1728 0.0
C1059 C 0.23845 0.51179 0.36588 0.0
O1060 O 0.22736 0.53883 0.38682 0.0
C1061 C 0.25515 0.37931 0.13278 0.0
C1062 C 0.29061 0.35155 0.1226 0.0
C1063 C 0.2679 0.3564 0.10488 0.0
N1064 N 0.26977 0.38827 0.16495 0.0
N1065 N 0.29089 0.37135 0.1591 0.0
C1066 C 0.22947 0.3926 0.12948 0.0
H1067 H 0.22167 0.3978 0.16174 0.0
H1068 H 0.21819 0.37177 0.11237 0.0
H1069 H 0.22918 0.41931 0.11163 0.0
C1070 C 0.22786 0.40979 0.31537 0.0
N1071 N 0.23869 0.4294 0.28321 0.0
N1072 N 0.24745 0.40551 0.25517 0.0
C1073 C 0.2442 0.37021 0.27019 0.0
C1074 C 0.23171 0.37134 0.30946 0.0
C1075 C 0.21066 0.42659 0.34736 0.0
H1076 H 0.20625 0.45586 0.33889 0.0
H1077 H 0.19361 0.40991 0.34848 0.0
H1078 H 0.21841 0.42554 0.37961 0.0
O1079 O 0.28714 0.48475 0.27388 0.0
O1080 O 0.29568 0.44638 0.22013 0.0
H1081 H 0.25773 0.31341 0.27227 0.0
H1082 H 0.24296 0.32677 0.22353 0.0
C1083 C 0.25512 0.33646 0.24924 0.0
H1084 H 0.27296 0.34378 0.23474 0.0
H1085 H 0.3058 0.37464 0.17897 0.0
O1086 O 0.23801 0.51265 0.32533 0.0
C1087 C 0.30249 0.46947 0.2484 0.0
C1088 C 0.04499 0.34365 0.23152 0.0
C1089 C 0.03713 0.3169 0.20177 0.0
H1090 H 0.05436 0.35412 0.29638 0.0
C1091 C 0.03694 0.27893 0.21256 0.0
H1092 H 0.04471 0.37322 0.22443 0.0
C1093 C 0.04236 0.26819 0.25382 0.0
C1094 C 0.04763 0.29543 0.28457 0.0
H1095 H 0.03105 0.25794 0.18996 0.0
H1096 H 0.0406 0.23899 0.26254 0.0
C1097 C 0.0504 0.33285 0.2728 0.0
C1098 C 0.26641 0.11314 0.25061 0.0
C1099 C 0.26991 1.07589 0.23772 0.0
H1100 H 0.24796 0.15076 0.29292 0.0
C1101 C 0.25782 1.04729 0.26032 0.0
H1102 H 0.27541 0.13578 0.23373 0.0
C1103 C 0.2423 1.05581 0.29463 0.0
C1104 C 0.23884 0.09306 0.30759 0.0
H1105 H 0.26072 1.0182 0.25221 0.0
H1106 H 0.23333 1.03316 0.31152 0.0
C1107 C 0.25087 0.12167 0.28488 0.0
C1108 C 0.97354 1.06567 0.98139 0.0
C1109 C 0.98073 1.06739 0.02417 0.0
H1110 H 0.98419 1.07012 0.91577 0.0
C1111 C 1.00487 1.07756 0.03295 0.0
H1112 H 0.95513 1.05773 0.97341 0.0
C1113 C 0.02154 0.08467 0.99982 0.0
C1114 C 0.0144 0.08257 0.95708 0.0
H1115 H 0.01091 0.0806 0.06535 0.0
H1116 H 0.03999 0.09246 1.0077 0.0
C1117 C 0.99019 1.07298 0.94825 0.0
C1118 C 0.26784 0.30871 0.04728 0.0
C1119 C 0.26088 0.34414 0.06207 0.0
H1120 H 0.26689 0.26942 0.99612 0.0
C1121 C 0.24842 0.36841 0.03486 0.0
H1122 H 0.27748 0.28957 0.06773 0.0
C1123 C 0.24265 0.35714 0.99369 0.0
C1124 C 0.24969 0.32175 0.97888 0.0
H1125 H 0.24365 0.39646 0.04481 0.0
H1126 H 0.23305 0.37628 0.9732 0.0
C1127 C 0.26208 0.29744 1.00613 0.0
C1128 C 0.9872 0.84837 0.76348 0.0
C1129 C 0.00882 0.83019 0.77392 0.0
H1130 H 0.96477 0.86855 0.71344 0.0
C1131 C 0.02472 0.81795 0.74155 0.0
H1132 H 0.97485 0.85827 0.78815 0.0
C1133 C 0.01889 0.82344 0.69902 0.0
C1134 C 0.99727 0.84163 0.68852 0.0
H1135 H 0.04128 0.80318 0.74913 0.0
H1136 H 0.03109 0.81302 0.67443 0.0
C1137 C 0.98141 0.85396 0.72096 0.0
C1138 C 0.7428 1.03648 0.76967 0.0
C1139 C 0.72434 1.06301 0.76435 0.0
H1140 H 0.77772 1.01688 0.74835 0.0
C1141 C 0.72726 0.09125 0.73368 0.0
H1142 H 0.74094 1.01474 0.79348 0.0
C1143 C 0.74847 0.09301 0.70879 0.0
C1144 C 0.76698 1.06672 0.71453 0.0
H1145 H 0.71341 0.1124 0.72966 0.0
H1146 H 0.75022 0.11433 0.68447 0.0
C1147 C 0.76396 1.03825 0.74477 0.0
C1148 C 0.8252 0.85293 0.03688 0.0
C1149 C 0.81938 0.8184 0.05568 0.0
H1150 H 0.82743 0.8826 0.97796 0.0
C1151 C 0.82254 0.7855 0.03232 0.0
H1152 H 0.82363 0.8786 0.05514 0.0
C1153 C 0.82518 0.78769 0.98829 0.0
C1154 C 0.82429 0.82287 0.96813 0.0
H1155 H 0.81869 0.75854 0.04667 0.0
H1156 H 0.82316 0.76196 0.97065 0.0
C1157 C 0.82749 0.85523 0.99273 0.0
C1158 C 0.24224 0.55464 0.79056 0.0
C1159 C 0.23863 0.59185 0.80347 0.0
H1160 H 0.2607 0.51724 0.74802 0.0
C1161 C 0.25025 0.62062 0.78043 0.0
H1162 H 0.23357 0.5319 0.80777 0.0
C1163 C 0.26556 0.6123 0.74579 0.0
C1164 C 0.26927 0.57507 0.73297 0.0
H1165 H 0.24723 0.64967 0.78858 0.0
H1166 H 0.27425 0.63507 0.72867 0.0
C1167 C 0.25759 0.5463 0.75596 0.0
C1168 C 0.97397 0.57519 0.46612 0.0
C1169 C 0.97755 0.58127 0.50976 0.0
H1170 H 0.98976 0.57616 0.40346 0.0
C1171 C 0.99996 0.59572 0.5233 0.0
H1172 H 0.95697 0.56377 0.45482 0.0
C1173 C 0.01877 0.6025 0.49397 0.0
C1174 C 0.0153 0.5958 0.45049 0.0
H1175 H 1.00302 0.60169 0.55659 0.0
H1176 H 0.03592 0.61346 0.5052 0.0
C1177 C 0.99273 0.58226 0.43676 0.0
C1178 C 0.26228 0.7974 0.5068 0.0
C1179 C 0.25009 0.82091 0.4784 0.0
H1180 H 0.27649 0.79082 0.56948 0.0
C1181 C 0.24233 0.85627 0.4922 0.0
H1182 H 0.26766 0.76942 0.49757 0.0
C1183 C 0.24709 0.86827 0.53352 0.0
C1184 C 0.25928 0.84476 0.56192 0.0
H1185 H 0.23288 0.87483 0.47082 0.0
H1186 H 0.24175 0.89627 0.5427 0.0
C1187 C 0.26703 0.80938 0.54813 0.0
C1188 C 0.72202 0.57046 0.23838 0.0
C1189 C 0.7225 0.55077 0.27691 0.0
H1190 H 0.74218 0.5882 0.18318 0.0
C1191 C 0.74376 0.5317 0.28825 0.0
H1192 H 0.70602 0.58605 0.22945 0.0
C1193 C 0.76453 0.53352 0.26232 0.0
C1194 C 0.76426 0.554 0.22432 0.0
H1195 H 0.74453 0.51649 0.318 0.0
H1196 H 0.78072 0.51865 0.27176 0.0
C1197 C 0.74278 0.57213 0.21232 0.0
C1198 C 0.82891 0.34837 0.52712 0.0
C1199 C 0.82394 0.31451 0.54811 0.0
H1200 H 0.82598 0.3774 0.46796 0.0
C1201 C 0.82343 0.28122 0.5249 0.0
H1202 H 0.82995 0.37429 0.545 0.0
C1203 C 0.82149 0.28288 0.48086 0.0
C1204 C 0.82006 0.31792 0.46057 0.0
H1205 H 0.82001 0.25479 0.54076 0.0
H1206 H 0.81665 0.25731 0.46463 0.0
C1207 C 0.82659 0.3502 0.48307 0.0
C1208 C 0.50665 0.3425 0.75846 0.0
C1209 C 0.48653 0.36534 0.75099 0.0
H1210 H 0.52946 0.31809 0.80535 0.0
C1211 C 0.47292 0.37997 0.78521 0.0
H1212 H 0.51694 0.33028 0.73233 0.0
C1213 C 0.48003 0.37296 0.82673 0.0
C1214 C 0.50077 0.35151 0.83394 0.0
H1215 H 0.45742 0.39792 0.77985 0.0
H1216 H 0.4695 0.38434 0.85312 0.0
C1217 C 0.51388 0.33587 0.79986 0.0
C1218 C 0.51512 0.09696 0.59817 0.0
C1219 C 0.49365 0.08071 0.58297 0.0
H1220 H 0.55044 0.11867 0.58249 0.0
C1221 C 0.49163 1.07263 0.53951 0.0
H1222 H 0.51688 0.10405 0.63152 0.0
C1223 C 0.51086 0.0807 0.51156 0.0
C1224 C 0.53218 0.09768 0.52657 0.0
H1225 H 0.47534 1.05956 0.52732 0.0
H1226 H 0.50899 1.07383 0.47819 0.0
C1227 C 0.53431 0.10521 0.57021 0.0
C1228 C 0.50978 0.80944 0.28555 0.0
C1229 C 0.51339 0.84648 0.27271 0.0
H1230 H 0.51267 0.77008 0.33618 0.0
C1231 C 0.52218 0.87311 0.30175 0.0
H1232 H 0.50295 0.78862 0.26358 0.0
C1233 C 0.52767 0.86262 0.34307 0.0
C1234 C 0.5238 0.82571 0.3559 0.0
H1235 H 0.52412 0.90223 0.2931 0.0
H1236 H 0.53427 0.88343 0.36527 0.0
C1237 C 0.51513 0.79902 0.32694 0.0
C1238 C 0.51542 0.56085 0.06727 0.0
C1239 C 0.5001 0.58784 0.08622 0.0
H1240 H 0.54343 0.54942 0.02078 0.0
C1241 C 0.50157 0.62492 0.07179 0.0
H1242 H 0.51424 0.53177 0.07644 0.0
C1243 C 0.51812 0.63489 0.03953 0.0
C1244 C 0.5333 0.60787 0.02038 0.0
H1245 H 0.49011 0.64638 0.08581 0.0
H1246 H 0.51921 0.66393 0.03011 0.0
C1247 C 0.53201 0.57085 0.03501 0.0
C1248 C 0.98259 0.18305 0.65384 0.0
C1249 C 0.98758 0.18124 0.60986 0.0
H1250 H 0.99212 0.20595 0.71417 0.0
C1251 C 1.00607 0.20437 0.59303 0.0
H1252 H 0.96842 0.16601 0.66823 0.0
C1253 C 0.01978 0.22765 0.61966 0.0
C1254 C 0.01504 0.22841 0.66365 0.0
H1255 H 0.00998 0.20466 0.55951 0.0
H1256 H 0.03445 0.24424 0.6061 0.0
C1257 C 0.996 0.20643 0.68026 0.0
C1258 C 0.25651 0.21577 0.58279 0.0
C1259 C 0.23869 0.23878 0.60155 0.0
H1260 H 0.28167 0.17114 0.5911 0.0
C1261 C 0.23418 0.23625 0.64546 0.0
H1262 H 0.26012 0.21677 0.54881 0.0
C1263 C 0.24663 0.20989 0.66982 0.0
C1264 C 0.26353 0.1854 0.65076 0.0
H1265 H 0.2204 0.25356 0.66055 0.0
H1266 H 0.24258 0.20828 0.7032 0.0
C1267 C 0.2686 0.18919 0.60699 0.0
C1268 C 1.00611 0.95234 0.29599 0.0
C1269 C 0.98913 0.92728 0.31382 0.0
H1270 H 0.02914 0.99964 0.30573 0.0
C1271 C 0.98375 0.92954 0.35752 0.0
H1272 H 0.01035 0.95175 0.26221 0.0
C1273 C 0.99451 0.95735 0.38256 0.0
C1274 C 0.01072 0.98346 0.36442 0.0
H1275 H 0.97054 0.91075 0.37191 0.0
H1276 H 0.98974 0.95872 0.41574 0.0
C1277 C 0.01658 0.98028 0.32087 0.0
C1278 C 0.71867 0.94013 0.38626 0.0
C1279 C 0.73057 0.95035 0.34819 0.0
H1280 H 0.72255 0.92461 0.45173 0.0
C1281 C 0.75613 0.95293 0.34754 0.0
H1282 H 0.69905 0.93769 0.38765 0.0
C1283 C 0.76949 0.94198 0.38262 0.0
C1284 C 0.75774 0.93221 0.42085 0.0
H1285 H 0.76605 0.9603 0.31873 0.0
H1286 H 0.78913 0.94235 0.38 0.0
C1287 C 0.73215 0.93177 0.42253 0.0
C1288 C 0.98756 0.67574 0.13459 0.0
C1289 C 0.99615 0.67298 0.09242 0.0
H1290 H 0.99186 0.70027 0.19593 0.0
C1291 C 0.01528 0.69656 0.07926 0.0
H1292 H 0.97259 0.65846 0.14576 0.0
C1293 C 0.02662 0.72064 0.10827 0.0
C1294 C 0.01862 0.72199 0.15085 0.0
H1295 H 0.02223 0.69529 0.04735 0.0
H1296 H 0.04227 0.73685 0.09793 0.0
C1297 C 0.99843 0.70022 0.16326 0.0
C1298 C 0.26835 0.68777 0.10337 0.0
C1299 C 0.26521 0.6853 0.14779 0.0
H1300 H 0.25732 0.71365 0.04547 0.0
C1301 C 0.24892 0.71013 0.16794 0.0
H1302 H 0.28084 0.66944 0.0865 0.0
C1303 C 0.23526 0.73553 0.14426 0.0
C1304 C 0.23801 0.73691 0.0999 0.0
H1305 H 0.24656 0.70994 0.20177 0.0
H1306 H 0.22214 0.75333 0.16041 0.0
C1307 C 0.25509 0.71347 0.0798 0.0
C1308 C 0.9845 0.46598 0.83759 0.0
C1309 C 0.99918 0.44539 0.80912 0.0
H1310 H 0.98255 0.49961 0.89317 0.0
C1311 C 0.02447 0.4446 0.81521 0.0
H1312 H 0.9651 0.46867 0.83307 0.0
C1313 C 0.03459 0.46196 0.85086 0.0
C1314 C 0.01951 0.4806 0.88053 0.0
H1315 H 0.03631 0.43 0.79297 0.0
H1316 H 0.05381 0.45849 0.85669 0.0
C1317 C 0.99469 0.48471 0.87164 0.0
C1318 C 0.76121 0.45344 0.85043 0.0
C1319 C 0.73569 0.45076 0.84889 0.0
H1320 H 0.79323 0.44326 0.88578 0.0
C1321 C 0.72272 0.44086 0.88599 0.0
H1322 H 0.77196 0.46047 0.82241 0.0
C1323 C 0.73516 0.43325 0.9236 0.0
C1324 C 0.76074 0.43387 0.92409 0.0
H1325 H 0.7031 0.43828 0.88566 0.0
H1326 H 0.72478 0.42651 0.95213 0.0
C1327 C 0.77355 0.44296 0.88674 0.0
C1328 C 0.47703 0.21534 0.1821 0.0
C1329 C 0.49187 0.19304 0.15549 0.0
H1330 H 0.47525 0.25074 0.23742 0.0
C1331 C 0.51605 0.18654 0.16719 0.0
H1332 H 0.45828 0.22073 0.17411 0.0
C1333 C 0.52616 0.20602 0.20092 0.0
C1334 C 0.51181 0.23001 0.22628 0.0
H1335 H 0.52795 0.16904 0.14796 0.0
H1336 H 0.54519 0.20148 0.20758 0.0
C1337 C 0.48689 0.23333 0.21762 0.0
C1338 C 0.73299 0.17758 0.14411 0.0
C1339 C 0.75762 0.17372 0.15433 0.0
H1340 H 0.70715 0.1938 0.09851 0.0
C1341 C 0.77547 0.18001 0.12267 0.0
H1342 H 0.71867 0.17312 0.16757 0.0
C1343 C 0.76864 0.19076 0.08174 0.0
C1344 C 0.74395 0.19601 0.07242 0.0
H1345 H 0.79461 0.17769 0.12981 0.0
H1346 H 0.78256 0.19432 0.05738 0.0
C1347 C 0.72636 0.19035 0.10451 0.0
C1348 C 0.4823 0.98231 0.91492 0.0
C1349 C 0.49537 0.96981 0.87905 0.0
H1350 H 0.48264 1.01322 0.97286 0.0
C1351 C 0.5199 0.98061 0.87425 0.0
H1352 H 0.46346 0.97448 0.91984 0.0
C1353 C 0.53146 1.00138 0.90598 0.0
C1354 C 0.51858 1.01222 0.94288 0.0
H1355 H 0.53043 0.97214 0.8465 0.0
H1356 H 0.5508 1.00665 0.90299 0.0
C1357 C 0.49335 1.00513 0.94516 0.0
C1358 C 0.24439 0.98024 0.9372 0.0
C1359 C 0.24769 0.98252 0.8928 0.0
H1360 H 0.25506 0.95438 0.99532 0.0
C1361 C 0.2639 0.95742 0.87289 0.0
H1362 H 0.23194 0.99877 0.95386 0.0
C1363 C 0.27737 0.93194 0.89685 0.0
C1364 C 0.27445 0.93074 0.94121 0.0
H1365 H 0.26638 0.95751 0.83904 0.0
H1366 H 0.29045 0.91393 0.88093 0.0
C1367 C 0.25742 0.95444 0.96101 0.0
C1368 C 0.49168 0.69326 0.71614 0.0
C1369 C 0.49931 0.68764 0.67376 0.0
H1370 H 0.49653 0.72322 0.77416 0.0
C1371 C 0.51744 0.71125 0.65662 0.0
H1372 H 0.47768 0.67581 0.73042 0.0
C1373 C 0.52804 0.73933 0.68175 0.0
C1374 C 0.52104 0.74361 0.72468 0.0
H1375 H 0.52398 0.70732 0.62439 0.0
H1376 H 0.54263 0.75618 0.66839 0.0
C1377 C 0.50225 0.72098 0.74112 0.0
C1378 C 0.74037 0.67822 0.64757 0.0
C1379 C 0.76538 0.67483 0.65504 0.0
H1380 H 0.71274 0.69372 0.60486 0.0
C1381 C 0.78198 0.6815 0.62145 0.0
H1382 H 0.72696 0.67353 0.67258 0.0
C1383 C 0.77357 0.69211 0.58139 0.0
C1384 C 0.74852 0.69678 0.57477 0.0
H1385 H 0.80138 0.67957 0.62642 0.0
H1386 H 0.78657 0.69596 0.55557 0.0
C1387 C 0.73218 0.69074 0.60875 0.0
C1388 C 0.50404 0.47369 0.44663 0.0
C1389 C 0.52231 0.49704 0.4295 0.0
H1390 H 0.47734 0.43094 0.43457 0.0
C1391 C 0.52872 0.49274 0.38629 0.0
H1392 H 0.4989 0.47563 0.47959 0.0
C1393 C 0.51682 0.46672 0.36076 0.0
C1394 C 0.49791 0.44452 0.3775 0.0
H1395 H 0.5428 0.5099 0.3718 0.0
H1396 H 0.52169 0.46537 0.32725 0.0
C1397 C 0.49193 0.44763 0.42092 0.0
C1398 C 0.24532 0.47772 0.43387 0.0
C1399 C 0.25053 0.48163 0.39017 0.0
H1400 H 0.25364 0.44996 0.49203 0.0
C1401 C 0.26746 0.45717 0.37114 0.0
H1402 H 0.23222 0.49575 0.44971 0.0
C1403 C 0.27989 0.43082 0.39555 0.0
C1404 C 0.27527 0.42821 0.43942 0.0
H1405 H 0.27159 0.45887 0.33778 0.0
H1406 H 0.29374 0.41359 0.38054 0.0
C1407 C 0.25734 0.45106 0.45809 0.0
C1408 C 0.08326 0.18983 0.5243 0.0
C1409 C 0.07123 0.1725 0.49046 0.0
H1410 H 0.11742 0.20766 0.54943 0.0
C1411 C 0.08507 0.15579 0.45769 0.0
H1412 H 0.07295 0.20383 0.54928 0.0
C1413 C 0.11045 0.1582 0.45738 0.0
C1414 C 0.12254 0.17807 0.48948 0.0
H1415 H 0.07613 0.14314 0.43067 0.0
H1416 H 0.12046 0.14634 0.43069 0.0
C1417 C 0.1087 0.19264 0.52381 0.0
C1418 C 0.17303 0.1856 0.74877 0.0
C1419 C 0.18477 0.18669 0.78816 0.0
H1420 H 0.13888 0.18299 0.7165 0.0
C1421 C 0.17082 0.18208 0.82568 0.0
H1422 H 0.18333 0.18929 0.71942 0.0
C1423 C 0.14557 0.17745 0.82403 0.0
C1424 C 0.13361 0.17855 0.78487 0.0
H1425 H 0.17945 0.18278 0.85649 0.0
H1426 H 0.13529 0.17488 0.85355 0.0
C1427 C 0.14763 0.18217 0.74719 0.0
C1428 C 0.89985 0.99245 0.5564 0.0
C1429 C 0.88391 0.98301 0.52355 0.0
H1430 H 0.93684 0.99484 0.57671 0.0
C1431 C 0.8937 0.973 0.48337 0.0
H1432 H 0.89293 1.00032 0.58761 0.0
C1433 C 0.91892 0.97081 0.47684 0.0
C1434 C 0.93464 0.97799 0.51062 0.0
H1435 H 0.88185 0.96593 0.45726 0.0
H1436 H 0.92604 0.96145 0.44631 0.0
C1437 C 0.92495 0.98948 0.55012 0.0
C1438 C 0.85388 0.95592 0.23823 0.0
C1439 C 0.86732 0.95584 0.19978 0.0
H1440 H 0.8193 0.94675 0.26908 0.0
C1441 C 0.85534 0.94687 0.16188 0.0
H1442 H 0.8627 0.96252 0.26798 0.0
C1443 C 0.8307 0.93655 0.16272 0.0
C1444 C 0.81733 0.93609 0.20131 0.0
H1445 H 0.8653 0.94609 0.13191 0.0
H1446 H 0.82212 0.92867 0.13316 0.0
C1447 C 0.82907 0.9468 0.2389 0.0
C1448 C 0.0878 0.69399 0.92422 0.0
C1449 C 0.07204 0.69492 0.95975 0.0
H1450 H 0.12465 0.69013 0.90154 0.0
C1451 C 0.08177 0.69184 1.00072 0.0
H1452 H 0.08071 0.69639 0.89232 0.0
C1453 C 0.10698 0.68948 1.00605 0.0
C1454 C 0.12276 0.68881 0.97045 0.0
H1455 H 0.06998 0.6928 0.02861 0.0
H1456 H 0.11417 0.68839 0.03797 0.0
C1457 C 0.11289 0.69029 0.92949 0.0
C1458 C 0.15206 0.68661 0.24134 0.0
C1459 C 0.13776 0.6822 0.27854 0.0
H1460 H 0.18812 0.69302 0.21484 0.0
C1461 C 0.14938 0.67855 0.31783 0.0
H1462 H 0.14356 0.68923 0.21057 0.0
C1463 C 0.17462 0.68149 0.32028 0.0
C1464 C 0.18885 0.68702 0.28338 0.0
H1465 H 0.13889 0.67517 0.34702 0.0
H1466 H 0.18302 0.6803 0.35126 0.0
C1467 C 0.17749 0.68848 0.24368 0.0
C1468 C 0.89837 0.45585 0.0892 0.0
C1469 C 0.88486 0.45924 0.05169 0.0
H1470 H 0.93342 0.44508 0.11626 0.0
C1471 C 0.89662 0.45384 1.0122 0.0
H1472 H 0.88966 0.45947 0.12006 0.0
C1473 C 0.92145 0.44622 1.01007 0.0
C1474 C 0.93501 0.44275 0.04738 0.0
H1475 H 0.88667 0.45619 0.98279 0.0
H1476 H 0.93013 0.44317 0.97907 0.0
C1477 C 0.92325 0.44713 0.08707 0.0
C1478 C 0.83241 0.4742 0.70592 0.0
C1479 C 0.82654 0.436 0.70891 0.0
H1480 H 0.86067 0.51513 0.69632 0.0
C1481 C 0.84543 0.4096 0.70834 0.0
H1482 H 0.81816 0.49508 0.70577 0.0
C1483 C 0.86972 0.42112 0.70435 0.0
C1484 C 0.87553 0.45916 0.69916 0.0
H1485 H 0.84137 0.37997 0.71031 0.0
H1486 H 0.88388 0.40012 0.70327 0.0
C1487 C 0.85667 0.48563 0.70028 0.0
C1488 C 0.59468 0.19601 1.01123 0.0
C1489 C 0.57804 0.20437 0.97913 0.0
H1490 H 0.63026 0.17624 0.02631 0.0
C1491 C 0.58483 0.19798 0.93637 0.0
H1492 H 0.58986 0.20037 0.04443 0.0
C1493 C 0.60768 0.18283 0.92604 0.0
C1494 C 0.62438 0.17485 0.95822 0.0
H1495 H 0.5722 0.20364 0.91103 0.0
H1496 H 0.61245 0.17797 0.89292 0.0
C1497 C 0.61773 0.18201 1.00085 0.0
C1498 C 0.67502 0.23693 0.37468 0.0
C1499 C 0.68412 0.24314 0.3334 0.0
H1500 H 0.64405 0.2219 0.41318 0.0
C1501 C 0.66796 0.24244 0.29905 0.0
H1502 H 0.68717 0.23663 0.40154 0.0
C1503 C 0.64327 0.23447 0.30563 0.0
C1504 C 0.63442 0.22587 0.34656 0.0
H1505 H 0.67464 0.24671 0.2668 0.0
H1506 H 0.63137 0.23326 0.27845 0.0
C1507 C 0.65044 0.22794 0.38115 0.0
C1508 C 0.3979 0.97316 0.11638 0.0
C1509 C 0.38819 0.97701 0.07548 0.0
H1510 H 0.43006 0.96579 0.15349 0.0
C1511 C 0.40407 0.97817 0.04011 0.0
H1512 H 0.38601 0.97183 0.14411 0.0
C1513 C 0.42924 0.97579 0.04557 0.0
C1514 C 0.43892 0.97081 0.08635 0.0
H1515 H 0.39701 0.98104 1.00825 0.0
H1516 H 0.4411 0.97688 0.01777 0.0
C1517 C 0.42303 0.96942 0.12171 0.0
C1518 C 0.33636 0.98331 0.71528 0.0
C1519 C 0.32274 0.97875 0.75308 0.0
H1520 H 0.37162 0.98984 0.68662 0.0
C1521 C 0.33473 0.97891 0.79223 0.0
H1522 H 0.32747 0.9833 0.68469 0.0
C1523 C 0.36015 0.98161 0.79326 0.0
C1524 C 0.37382 0.98527 0.75524 0.0
H1525 H 0.32459 0.97519 0.82174 0.0
H1526 H 0.36913 0.98041 0.8237 0.0
C1527 C 0.3616 0.98709 0.71638 0.0
C1528 C 0.62169 0.69032 0.51581 0.0
C1529 C 0.62468 0.65865 0.48943 0.0
H1530 H 0.59693 0.7254 0.55088 0.0
C1531 C 0.60449 0.63508 0.48317 0.0
H1532 H 0.63675 0.70915 0.52158 0.0
C1533 C 0.58171 0.64391 0.50149 0.0
C1534 C 0.57865 0.67664 0.52599 0.0
H1535 H 0.60615 0.6103 0.46345 0.0
H1536 H 0.56615 0.62655 0.49407 0.0
C1537 C 0.59894 0.69943 0.53333 0.0
C1538 C 0.67936 0.74727 0.80223 0.0
C1539 C 0.69445 0.74002 0.8368 0.0
H1540 H 0.6435 0.74645 0.77743 0.0
C1541 C 0.68398 0.72621 0.87477 0.0
H1542 H 0.68706 0.75704 0.77229 0.0
C1543 C 0.65879 0.71907 0.87758 0.0
C1544 C 0.64373 0.72601 0.84255 0.0
H1545 H 0.69539 0.71937 0.90148 0.0
H1546 H 0.65117 0.70799 0.90692 0.0
C1547 C 0.65439 0.74075 0.80515 0.0
C1548 C 0.42768 0.48894 0.52108 0.0
C1549 C 0.43909 0.5029 0.55749 0.0
H1550 H 0.39408 0.4719 0.49301 0.0
C1551 C 0.42472 0.51459 0.59234 0.0
H1552 H 0.43843 0.47896 0.49422 0.0
C1553 C 0.39945 0.51061 0.59181 0.0
C1554 C 0.38805 0.49397 0.55676 0.0
H1555 H 0.4332 0.52479 0.62109 0.0
H1556 H 0.38901 0.51865 0.61984 0.0
C1557 C 0.40235 0.48427 0.52082 0.0
C1558 C 0.34272 0.48174 0.21303 0.0
C1559 C 0.32882 0.47821 0.25078 0.0
H1560 H 0.37825 0.48803 0.18474 0.0
C1561 C 0.34068 0.48002 0.29002 0.0
H1562 H 0.33402 0.48049 0.18232 0.0
C1563 C 0.36612 0.48322 0.29132 0.0
C1564 C 0.38007 0.48593 0.25347 0.0
H1565 H 0.33045 0.47716 0.31956 0.0
H1566 H 0.37493 0.48306 0.32196 0.0
C1567 C 0.36802 0.48618 0.21437 0.0
C1568 C 0.95805 0.10961 0.37192 0.0
C1569 C 0.97819 0.13353 0.36629 0.0
H1570 H 0.93568 1.0663 0.34632 0.0
C1571 C 0.99173 0.12981 0.32794 0.0
H1572 H 0.94688 0.11175 0.40048 0.0
C1573 C 0.98591 0.10219 0.29729 0.0
C1574 C 0.96603 1.07767 0.30325 0.0
H1575 H 0.00744 0.14748 0.32217 0.0
H1576 H 0.99748 0.0994 0.2693 0.0
C1577 C 0.95184 0.08279 0.34073 0.0
C1578 C 0.22899 0.34397 0.38463 0.0
C1579 C 0.22598 0.33956 0.34027 0.0
H1580 H 0.22631 0.31948 0.44715 0.0
C1581 C 0.21798 0.30424 0.32591 0.0
H1582 H 0.2359 0.36999 0.3973 0.0
C1583 C 0.21326 0.2746 0.35464 0.0
C1584 C 0.21591 0.27923 0.39904 0.0
H1585 H 0.21511 0.2995 0.2923 0.0
H1586 H 0.20708 0.24808 0.34196 0.0
C1587 C 0.2238 0.31458 0.41345 0.0
C1588 C 0.02452 0.28569 0.93876 0.0
C1589 C 0.03095 0.3231 0.92983 0.0
H1590 H 0.02337 0.22862 0.91677 0.0
C1591 C 0.04068 0.33084 0.88897 0.0
H1592 H 0.01638 0.27843 0.96918 0.0
C1593 C 0.04403 0.30239 0.85832 0.0
C1594 C 0.03813 0.26488 0.86751 0.0
H1595 H 0.04629 0.35901 0.88083 0.0
H1596 H 0.05195 0.30974 0.8277 0.0
C1597 C 0.02823 0.25705 0.90828 0.0
C1598 C 0.28811 0.14922 0.93181 0.0
C1599 C 0.2812 0.13906 0.89019 0.0
H1600 H 0.29866 0.13104 0.99413 0.0
C1601 C 0.27859 0.10062 0.88146 0.0
H1602 H 0.29029 0.17845 0.94003 0.0
C1603 C 0.28233 1.07348 0.9131 0.0
C1604 C 0.28951 0.08323 0.95468 0.0
H1605 H 0.27283 0.09138 0.8503 0.0
H1606 H 0.27916 1.0446 0.90481 0.0
C1607 C 0.29254 0.12179 0.96329 0.0
C1608 C 0.02552 0.08658 0.63304 0.0
C1609 C 0.03493 1.07634 0.67293 0.0
H1610 H 0.01561 1.06983 0.56995 0.0
C1611 C 0.04147 1.0385 0.67845 0.0
H1612 H 0.01961 0.11496 0.62747 0.0
C1613 C 0.03833 1.01197 0.64545 0.0
C1614 C 0.02935 1.02268 0.6054 0.0
H1615 H 0.04934 1.02928 0.70797 0.0
H1616 H 0.04312 0.98306 0.65117 0.0
C1617 C 0.02317 1.0605 0.59977 0.0
C1618 C 0.78366 0.87569 0.70364 0.0
C1619 C 0.78873 0.83794 0.69414 0.0
H1620 H 0.78281 0.93252 0.68157 0.0
C1621 C 0.79583 0.82921 0.65191 0.0
H1622 H 0.7773 0.88369 0.7351 0.0
C1623 C 0.79811 0.85721 0.62052 0.0
C1624 C 0.79377 0.89508 0.63044 0.0
H1625 H 0.80009 0.80063 0.64317 0.0
H1626 H 0.804 0.84927 0.58874 0.0
C1627 C 0.78645 0.90379 0.67254 0.0
C1628 C 0.94973 0.82406 0.07961 0.0
C1629 C 0.97 0.82422 0.05153 0.0
H1630 H 0.93051 0.85093 0.13142 0.0
C1631 C 0.98668 0.85416 0.05594 0.0
H1632 H 0.93582 0.80295 0.07703 0.0
C1633 C 0.98288 0.88308 0.08611 0.0
C1634 C 0.96285 0.88225 0.11444 0.0
H1635 H 1.00293 0.85527 0.03618 0.0
H1636 H 0.99585 0.90587 0.0877 0.0
C1637 C 0.94647 0.85211 0.11089 0.0
C1638 C 0.72163 0.98818 0.02326 0.0
C1639 C 0.71269 1.0238 0.03478 0.0
H1640 H 0.73328 0.93373 0.04408 0.0
C1641 C 0.70661 1.02949 0.07818 0.0
H1642 H 0.72651 0.98242 0.99039 0.0
C1643 C 0.71071 1.00172 0.10918 0.0
C1644 C 0.72066 0.96663 0.09811 0.0
H1645 H 0.69906 1.056 0.08851 0.0
H1646 H 0.70649 1.00815 0.14217 0.0
C1647 C 0.72554 0.96013 0.05432 0.0
C1648 C 0.96906 0.5816 0.82136 0.0
C1649 C 0.96899 0.59313 0.77838 0.0
H1650 H 0.97297 0.59663 0.88722 0.0
C1651 C 0.97205 0.63167 0.77038 0.0
H1652 H 0.96642 0.55237 0.82918 0.0
C1653 C 0.97595 0.65741 0.8041 0.0
C1654 C 0.97652 0.64563 0.84712 0.0
H1655 H 0.97225 0.64183 0.73794 0.0
H1656 H 0.97893 0.68657 0.79632 0.0
C1657 C 0.97263 0.60724 0.85497 0.0
C1658 C 0.21689 0.8033 0.82655 0.0
C1659 C 0.22449 0.83877 0.84092 0.0
H1660 H 0.20763 0.74654 0.84236 0.0
C1661 C 0.2286 0.84292 0.88501 0.0
H1662 H 0.21316 0.79884 0.79316 0.0
C1663 C 0.22479 0.81299 0.91367 0.0
C1664 C 0.21735 0.77748 0.89915 0.0
H1665 H 0.23523 0.86918 0.89752 0.0
H1666 H 0.22792 0.81761 0.94725 0.0
C1667 C 0.21366 0.77316 0.85499 0.0
C1668 C 0.04476 0.80418 0.42704 0.0
C1669 C 0.03593 0.8385 0.41177 0.0
H1670 H 0.05545 0.74778 0.41289 0.0
C1671 C 0.03169 0.84134 0.36765 0.0
H1672 H 0.04866 0.80088 0.46052 0.0
C1673 C 0.03613 0.8109 0.33985 0.0
C1674 C 0.04448 0.77635 0.35542 0.0
H1675 H 0.02432 0.8668 0.35456 0.0
H1676 H 0.03264 0.81427 0.30623 0.0
C1677 C 0.04869 0.77359 0.39952 0.0
C1678 C 0.29285 0.619 0.46129 0.0
C1679 C 0.29024 0.58057 0.45163 0.0
H1680 H 0.29105 0.67595 0.439 0.0
C1681 C 0.28485 0.57137 0.40905 0.0
H1682 H 0.29783 0.6279 0.49288 0.0
C1683 C 0.28203 0.59893 0.37761 0.0
C1684 C 0.28393 0.63723 0.38748 0.0
H1685 H 0.28232 0.54259 0.39979 0.0
H1686 H 0.27746 0.59009 0.34568 0.0
C1687 C 0.28938 0.64683 0.42994 0.0
C1688 C 0.02479 0.55089 0.11182 0.0
C1689 C 0.03292 0.51438 0.1202 0.0
H1690 H 0.0202 0.60696 0.13449 0.0
C1691 C 0.04427 0.50784 0.15951 0.0
H1692 H 0.01553 0.55708 0.08244 0.0
C1693 C 0.04756 0.53709 0.18925 0.0
C1694 C 0.03891 0.57345 0.18106 0.0
H1695 H 0.05073 0.48011 0.16724 0.0
H1696 H 0.05716 0.53122 0.21831 0.0
C1697 C 0.02746 0.57967 0.14187 0.0
C1698 C 0.77344 0.37484 0.20432 0.0
C1699 C 0.77928 0.33743 0.19443 0.0
H1700 H 0.77296 0.43205 0.18342 0.0
C1701 C 0.78739 0.3293 0.15271 0.0
H1702 H 0.76622 0.38215 0.23545 0.0
C1703 C 0.79036 0.35777 0.12225 0.0
C1704 C 0.78565 0.3954 0.13277 0.0
H1705 H 0.79211 0.30092 0.14382 0.0
H1706 H 0.79736 0.35044 0.09094 0.0
C1707 C 0.7769 0.40345 0.17415 0.0
C1708 C 0.98238 0.32981 0.58552 0.0
C1709 C 0.97584 0.33017 0.54237 0.0
H1710 H 0.98404 0.35943 0.64482 0.0
C1711 C 0.9658 0.36343 0.52618 0.0
H1712 H 0.9905 0.30505 0.59909 0.0
C1713 C 0.96212 0.39514 0.55258 0.0
C1714 C 0.96851 0.39463 0.59598 0.0
H1715 H 0.96042 0.36475 0.49318 0.0
H1716 H 0.95396 0.41989 0.53907 0.0
C1717 C 0.97886 0.36138 0.61176 0.0
C1718 C 0.73035 0.48957 0.52608 0.0
C1719 C 0.72009 0.52419 0.5381 0.0
H1720 H 0.74383 0.43597 0.54627 0.0
C1721 C 0.71363 0.52904 0.58137 0.0
H1722 H 0.73549 0.48462 0.49315 0.0
C1723 C 0.71843 0.50128 0.61191 0.0
C1724 C 0.7297 0.46723 0.60044 0.0
H1725 H 0.7052 0.55486 0.59191 0.0
H1726 H 0.71377 0.50699 0.64489 0.0
C1727 C 0.73513 0.46159 0.55673 0.0
C1728 C 0.48287 0.09394 0.88743 0.0
C1729 C 0.47073 0.10216 0.8494 0.0
H1730 H 0.49605 0.11317 0.94755 0.0
C1731 C 0.46253 0.13913 0.84375 0.0
H1732 H 0.48997 1.06619 0.89246 0.0
C1733 C 0.46659 0.16683 0.87524 0.0
C1734 C 0.4784 0.15811 0.91372 0.0
H1735 H 0.45272 0.14659 0.81537 0.0
H1736 H 0.46044 0.19511 0.86949 0.0
C1737 C 0.48633 0.12107 0.91919 0.0
C1738 C 0.71211 0.25862 0.85999 0.0
C1739 C 0.7206 0.22215 0.8521 0.0
H1740 H 0.70866 0.31483 0.83787 0.0
C1741 C 0.73383 0.21579 0.81408 0.0
H1742 H 0.70137 0.26446 0.88839 0.0
C1743 C 0.73917 0.24551 0.78564 0.0
C1744 C 0.73059 0.28224 0.7935 0.0
H1745 H 0.74054 0.188 0.80679 0.0
H1746 H 0.7504 0.23955 0.75803 0.0
C1747 C 0.71653 0.28777 0.8309 0.0
C1748 C 0.54341 0.31819 0.5096 0.0
C1749 C 0.5349 0.35224 0.49297 0.0
H1750 H 0.55323 0.26088 0.49732 0.0
C1751 C 0.52889 0.35324 0.44959 0.0
H1752 H 0.54819 0.31635 0.54287 0.0
C1753 C 0.53155 0.32141 0.42349 0.0
C1754 C 0.5404 0.28738 0.43982 0.0
H1755 H 0.52175 0.37858 0.43578 0.0
H1756 H 0.52692 0.32374 0.39019 0.0
C1757 C 0.54619 0.28628 0.48344 0.0
C1758 C 0.79221 0.15504 0.42392 0.0
C1759 C 0.7782 0.14937 0.38717 0.0
H1760 H 0.80698 0.13115 0.48075 0.0
C1761 C 0.76716 0.11419 0.38159 0.0
H1762 H 0.8009 0.18177 0.4295 0.0
C1763 C 0.76966 0.08584 0.41203 0.0
C1764 C 0.78381 0.09122 0.4486 0.0
H1765 H 0.75583 0.10888 0.35427 0.0
H1766 H 0.76018 1.05964 0.4071 0.0
C1767 C 0.79532 0.12616 0.45385 0.0
C1768 C 0.53997 1.04921 0.2697 0.0
C1769 C 0.54264 0.08761 0.26085 0.0
H1770 H 0.53336 0.99392 0.24521 0.0
C1771 C 0.54216 0.09846 0.21765 0.0
H1772 H 0.54005 1.03955 0.30233 0.0
C1773 C 0.53848 1.07227 0.18459 0.0
C1774 C 0.53503 1.03396 0.19336 0.0
H1775 H 0.54459 0.12758 0.20931 0.0
H1776 H 0.53781 0.08231 0.15212 0.0
C1777 C 0.53607 1.02294 0.23662 0.0
C1778 C 0.28627 0.85422 0.1281 0.0
C1779 C 0.29308 0.88996 0.14282 0.0
H1780 H 0.27657 0.79769 0.14399 0.0
C1781 C 0.29634 0.89444 0.18707 0.0
H1782 H 0.28351 0.84948 0.09443 0.0
C1783 C 0.29331 0.86422 0.21542 0.0
C1784 C 0.28639 0.82851 0.20083 0.0
H1785 H 0.30189 0.92125 0.19985 0.0
H1786 H 0.29668 0.8688 0.24892 0.0
C1787 C 0.28269 0.82418 0.15666 0.0
C1788 C 0.46787 0.89786 0.63358 0.0
C1789 C 0.46996 0.89586 0.67828 0.0
H1790 H 0.47016 0.86935 0.57331 0.0
C1791 C 0.47681 0.86112 0.69565 0.0
H1792 H 0.46233 0.92371 0.61866 0.0
C1793 C 0.48172 0.82981 0.66924 0.0
C1794 C 0.47962 0.83192 0.62454 0.0
H1795 H 0.47863 0.85814 0.72976 0.0
H1796 H 0.48773 0.80418 0.68393 0.0
C1797 C 0.47239 0.86648 0.60734 0.0
C1798 C 0.22067 1.02038 0.61125 0.0
C1799 C 0.2274 1.02976 0.65319 0.0
H1800 H 0.21123 1.03966 0.54886 0.0
C1801 C 0.23076 1.06793 0.66253 0.0
H1802 H 0.21792 0.99135 0.60259 0.0
C1803 C 0.22801 0.09555 0.6311 0.0
C1804 C 0.22119 0.08657 0.58912 0.0
H1805 H 0.2364 1.07656 0.69399 0.0
H1806 H 0.2317 0.12416 0.63985 0.0
C1807 C 0.21725 1.04831 0.57997 0.0
C1808 C 0.47766 0.65712 0.39192 0.0
C1809 C 0.48391 0.64601 0.43347 0.0
H1810 H 0.46817 0.64029 0.32843 0.0
C1811 C 0.48668 0.60746 0.44083 0.0
H1812 H 0.47546 0.68653 0.38477 0.0
C1813 C 0.48376 0.5811 0.40798 0.0
C1814 C 0.47711 0.59168 0.36647 0.0
H1815 H 0.49209 0.59755 0.47187 0.0
H1816 H 0.48722 0.55218 0.4153 0.0
C1817 C 0.47388 0.63039 0.35918 0.0
C1818 C 0.7245 0.71585 0.31672 0.0
C1819 C 0.71282 0.72297 0.35615 0.0
H1820 H 0.73931 0.73837 0.25851 0.0
C1821 C 0.70518 0.75985 0.36429 0.0
H1822 H 0.73064 0.68779 0.30919 0.0
C1823 C 0.70898 0.78859 0.33424 0.0
C1824 C 0.72163 0.78229 0.2954 0.0
H1825 H 0.69571 0.76643 0.39382 0.0
H1826 H 0.70182 0.816 0.34171 0.0
C1827 C 0.72922 0.74509 0.28721 0.0
C1828 C 0.53281 0.78481 0.96799 0.0
C1829 C 0.54691 0.79161 0.93091 0.0
H1830 H 0.51759 0.80681 0.02634 0.0
C1831 C 0.55812 0.82688 0.92703 0.0
H1832 H 0.52405 0.75793 0.97242 0.0
C1833 C 0.55555 0.85421 0.95916 0.0
C1834 C 0.54093 0.84803 0.9958 0.0
H1835 H 0.56961 0.83301 0.89965 0.0
H1836 H 0.565 0.8806 0.95507 0.0
C1837 C 0.5295 0.81276 0.99952 0.0
C1838 C 0.77804 0.61593 0.88533 0.0
C1839 C 0.78961 0.65078 0.89018 0.0
H1840 H 0.76984 0.56232 0.91206 0.0
C1841 C 0.80351 0.65652 0.92711 0.0
H1842 H 0.76667 0.6106 0.85807 0.0
C1843 C 0.80602 0.62799 0.9578 0.0
C1844 C 0.79407 0.59331 0.95314 0.0
H1845 H 0.81252 0.68306 0.93228 0.0
H1846 H 0.81755 0.63308 0.98485 0.0
C1847 C 0.77992 0.58803 0.91649 0.0
C1848 C 0.54262 0.53512 0.7135 0.0
C1849 C 0.53584 0.54621 0.67217 0.0
H1850 H 0.55426 0.55155 0.77581 0.0
C1851 C 0.53486 0.58481 0.66408 0.0
H1852 H 0.54366 0.50564 0.72119 0.0
C1853 C 0.53974 0.61125 0.6962 0.0
C1854 C 0.54666 0.60069 0.73767 0.0
H1855 H 0.52935 0.59481 0.63314 0.0
H1856 H 0.53745 0.64025 0.68831 0.0
C1857 C 0.54834 0.5618 0.74539 0.0
C1858 C 0.28372 0.32324 0.65666 0.0
C1859 C 0.28627 0.32784 0.7011 0.0
H1860 H 0.28649 0.34778 0.59417 0.0
C1861 C 0.29348 0.3635 0.71562 0.0
H1862 H 0.2774 0.29692 0.64384 0.0
C1863 C 0.29787 0.3933 0.68699 0.0
C1864 C 0.29569 0.3885 0.64253 0.0
H1865 H 0.29599 0.3684 0.7493 0.0
H1866 H 0.30345 0.4201 0.6998 0.0
C1867 C 0.28861 0.35281 0.62794 0.0
C1868 C 0.48735 0.4098 0.13122 0.0
C1869 C 0.47815 0.40133 0.17236 0.0
H1870 H 0.49947 0.38946 0.07002 0.0
C1871 C 0.47399 0.36328 0.18178 0.0
H1872 H 0.49085 0.43858 0.12234 0.0
C1873 C 0.47833 0.33503 0.15107 0.0
C1874 C 0.48734 0.34347 0.10983 0.0
H1875 H 0.46667 0.35529 0.21262 0.0
H1876 H 0.47392 0.30642 0.15944 0.0
C1877 C 0.49202 0.38145 0.10071 0.0
C1878 C 0.21941 0.54566 0.07868 0.0
C1879 C 0.22279 0.58417 0.08722 0.0
H1880 H 0.22159 0.48895 0.10179 0.0
C1881 C 0.23055 0.59378 0.12851 0.0
H1882 H 0.21285 0.53654 0.04809 0.0
C1883 C 0.23452 0.56654 0.15995 0.0
C1884 C 0.23157 0.52815 0.15129 0.0
H1885 H 0.23398 0.62261 0.13669 0.0
H1886 H 0.24072 0.57567 0.19089 0.0
C1887 C 0.22408 0.51814 0.10994 0.0
loop_
_geom_bond_atom_site_label_1
_geom_bond_atom_site_label_2
_geom_bond_distance
_geom_bond_site_symmetry_2
_ccdc_geom_bond_type
Co0 O3 1.970 . S
Co0 N17 1.989 . S
Co0 O25 1.967 . S
Co0 O32 1.920 . S
Co1 O4 1.966 . S
Co1 N10 2.022 . S
Co1 N18 1.993 . S
Co1 O26 1.941 . S
C2 O3 1.258 . S
C2 O4 1.263 . S
O3 Co0 1.970 . S
O3 C2 1.258 . S
O4 Co1 1.966 . S
O4 C2 1.263 . S
C5 O6 1.235 1_455 S
C5 O32 1.289 . S
O6 C5 1.235 1_655 S
C7 C9 1.400 . S
C7 N10 1.351 . S
C7 C12 1.478 1_455 S
C8 C9 1.387 . S
C8 N11 1.341 . S
C9 C7 1.400 . S
C9 C8 1.387 . S
N10 Co1 2.022 . S
N10 C7 1.351 . S
N10 N11 1.365 . S
N11 C8 1.341 . S
N11 N10 1.365 . S
N11 H31 0.862 . S
C12 C7 1.478 1_655 S
C12 H13 0.953 1_655 S
C12 H14 0.996 . S
C12 H15 0.955 1_655 S
H13 C12 0.953 1_455 S
H14 C12 0.996 . S
H15 C12 0.955 1_455 S
C16 N17 1.342 . S
C16 C20 1.401 . S
C16 C21 1.499 . S
N17 Co0 1.989 . S
N17 C16 1.342 . S
N17 N18 1.388 . S
N18 Co1 1.993 . S
N18 N17 1.388 . S
N18 C19 1.346 . S
C19 N18 1.346 . S
C19 C20 1.396 . S
C19 C29 1.510 . S
C20 C16 1.401 . S
C20 C19 1.396 . S
C21 C16 1.499 . S
C21 H22 0.959 . S
C21 H23 0.965 . S
C21 H24 0.961 . S
H22 C21 0.959 . S
H23 C21 0.965 . S
H24 C21 0.961 . S
O25 Co0 1.967 . S
O25 C33 1.258 . S
O26 Co1 1.941 . S
O26 C33 1.266 . S
H27 C29 0.959 . S
H28 C29 0.961 1_655 S
C29 C19 1.510 . S
C29 H27 0.959 . S
C29 H28 0.961 1_455 S
C29 H30 0.960 . S
H30 C29 0.960 . S
H31 N11 0.862 . S
O32 Co0 1.920 . S
O32 C5 1.289 . S
C33 O25 1.258 . S
C33 O26 1.266 . S
Co34 O37 1.970 . S
Co34 N51 1.989 . S
Co34 O59 1.967 . S
Co34 O66 1.920 . S
Co35 O38 1.966 . S
Co35 N44 2.022 . S
Co35 N52 1.993 . S
Co35 O60 1.941 . S
C36 O37 1.258 . S
C36 O38 1.263 . S
O37 Co34 1.970 . S
O37 C36 1.258 . S
O38 Co35 1.966 . S
O38 C36 1.263 . S
C39 O40 1.235 . S
C39 O66 1.289 . S
O40 C39 1.235 . S
C41 C43 1.400 . S
C41 N44 1.351 . S
C41 C46 1.501 . S
C42 C43 1.387 1_565 S
C42 N45 1.341 1_565 S
C43 C41 1.400 . S
C43 C42 1.387 1_545 S
N44 Co35 2.022 . S
N44 C41 1.351 . S
N44 N45 1.365 . S
N45 C42 1.341 1_545 S
N45 N44 1.365 . S
N45 H65 0.862 . S
C46 C41 1.501 . S
C46 H47 0.961 . S
C46 H48 0.961 . S
C46 H49 0.960 . S
H47 C46 0.961 . S
H48 C46 0.961 . S
H49 C46 0.960 . S
C50 N51 1.342 . S
C50 C54 1.401 . S
C50 C55 1.499 . S
N51 Co34 1.989 . S
N51 C50 1.342 . S
N51 N52 1.388 . S
N52 Co35 1.993 . S
N52 N51 1.388 . S
N52 C53 1.346 . S
C53 N52 1.346 . S
C53 C54 1.396 . S
C53 C63 1.510 1_545 S
C54 C50 1.401 . S
C54 C53 1.396 . S
C55 C50 1.499 . S
C55 H56 0.959 . S
C55 H57 0.960 . S
C55 H58 0.961 . S
H56 C55 0.959 . S
H57 C55 0.960 . S
H58 C55 0.961 . S
O59 Co34 1.967 . S
O59 C67 1.258 . S
O60 Co35 1.941 . S
O60 C67 1.266 . S
H61 C63 0.959 . S
H62 C63 0.961 . S
C63 C53 1.510 1_565 S
C63 H61 0.959 . S
C63 H62 0.961 . S
C63 H64 0.959 . S
H64 C63 0.959 . S
H65 N45 0.862 . S
O66 Co34 1.920 . S
O66 C39 1.289 . S
C67 O59 1.258 . S
C67 O60 1.266 . S
Co68 O71 1.970 . S
Co68 N85 1.989 . S
Co68 O93 1.967 . S
Co68 O100 1.920 . S
Co69 O72 1.966 . S
Co69 N78 2.022 . S
Co69 N86 1.993 . S
Co69 O94 1.941 . S
C70 O71 1.258 . S
C70 O72 1.263 . S
O71 Co68 1.970 . S
O71 C70 1.258 . S
O72 Co69 1.966 . S
O72 C70 1.263 . S
C73 O74 1.235 1_455 S
C73 O100 1.289 . S
O74 C73 1.235 1_655 S
C75 C77 1.400 . S
C75 N78 1.351 . S
C75 C80 1.478 1_455 S
C76 C77 1.387 1_565 S
C76 N79 1.341 1_565 S
C77 C75 1.400 . S
C77 C76 1.387 1_545 S
N78 Co69 2.022 . S
N78 C75 1.351 . S
N78 N79 1.365 . S
N79 C76 1.341 1_545 S
N79 N78 1.365 . S
N79 H99 0.862 . S
C80 C75 1.478 1_655 S
C80 H81 0.953 1_655 S
C80 H82 0.996 . S
C80 H83 0.955 1_655 S
H81 C80 0.953 1_455 S
H82 C80 0.996 . S
H83 C80 0.955 1_455 S
C84 N85 1.342 . S
C84 C88 1.401 . S
C84 C89 1.499 . S
N85 Co68 1.989 . S
N85 C84 1.342 . S
N85 N86 1.388 . S
N86 Co69 1.993 . S
N86 N85 1.388 . S
N86 C87 1.346 . S
C87 N86 1.346 . S
C87 C88 1.396 . S
C87 C97 1.510 1_545 S
C88 C84 1.401 . S
C88 C87 1.396 . S
C89 C84 1.499 . S
C89 H90 0.959 . S
C89 H91 0.965 . S
C89 H92 0.961 . S
H90 C89 0.959 . S
H91 C89 0.965 . S
H92 C89 0.961 . S
O93 Co68 1.967 . S
O93 C101 1.258 . S
O94 Co69 1.941 . S
O94 C101 1.266 . S
H95 C97 0.959 . S
H96 C97 0.961 1_655 S
C97 C87 1.510 1_565 S
C97 H95 0.959 . S
C97 H96 0.961 1_455 S
C97 H98 0.959 . S
H98 C97 0.959 . S
H99 N79 0.862 . S
O100 Co68 1.920 . S
O100 C73 1.289 . S
C101 O93 1.258 . S
C101 O94 1.266 . S
Co102 O105 1.970 . S
Co102 N119 1.989 . S
Co102 O127 1.967 . S
Co102 O134 1.920 . S
Co103 O106 1.966 . S
Co103 N112 2.022 . S
Co103 N120 1.993 . S
Co103 O128 1.941 . S
C104 O105 1.258 . S
C104 O106 1.263 . S
O105 Co102 1.970 . S
O105 C104 1.258 . S
O106 Co103 1.966 . S
O106 C104 1.263 . S
C107 O108 1.235 . S
C107 O134 1.289 . S
O108 C107 1.235 . S
C109 C111 1.400 . S
C109 N112 1.351 . S
C109 C114 1.501 . S
C110 C111 1.387 . S
C110 N113 1.341 . S
C111 C109 1.400 . S
C111 C110 1.387 . S
N112 Co103 2.022 . S
N112 C109 1.351 . S
N112 N113 1.365 . S
N113 C110 1.341 . S
N113 N112 1.365 . S
N113 H133 0.862 . S
C114 C109 1.501 . S
C114 H115 0.961 . S
C114 H116 0.961 . S
C114 H117 0.960 . S
H115 C114 0.961 . S
H116 C114 0.961 . S
H117 C114 0.960 . S
C118 N119 1.342 . S
C118 C122 1.401 . S
C118 C123 1.499 . S
N119 Co102 1.989 . S
N119 C118 1.342 . S
N119 N120 1.388 . S
N120 Co103 1.993 . S
N120 N119 1.388 . S
N120 C121 1.346 . S
C121 N120 1.346 . S
C121 C122 1.396 . S
C121 C131 1.510 . S
C122 C118 1.401 . S
C122 C121 1.396 . S
C123 C118 1.499 . S
C123 H124 0.959 . S
C123 H125 0.960 . S
C123 H126 0.961 . S
H124 C123 0.959 . S
H125 C123 0.960 . S
H126 C123 0.961 . S
O127 Co102 1.967 . S
O127 C135 1.258 . S
O128 Co103 1.941 . S
O128 C135 1.266 . S
H129 C131 0.959 . S
H130 C131 0.961 . S
C131 C121 1.510 . S
C131 H129 0.959 . S
C131 H130 0.961 . S
C131 H132 0.960 . S
H132 C131 0.960 . S
H133 N113 0.862 . S
O134 Co102 1.920 . S
O134 C107 1.289 . S
C135 O127 1.258 . S
C135 O128 1.266 . S
Co136 O139 1.970 . S
Co136 N153 1.989 . S
Co136 O161 1.967 . S
Co136 O168 1.920 . S
Co137 O140 1.966 . S
Co137 N146 2.022 . S
Co137 N154 1.993 . S
Co137 O162 1.941 . S
C138 O139 1.258 . S
C138 O140 1.263 . S
O139 Co136 1.970 . S
O139 C138 1.258 . S
O140 Co137 1.966 . S
O140 C138 1.263 . S
C141 O142 1.235 1_655 S
C141 O168 1.289 . S
O142 C141 1.235 1_455 S
C143 C145 1.400 . S
C143 N146 1.351 . S
C143 C148 1.478 1_655 S
C144 C145 1.387 . S
C144 N147 1.341 . S
C145 C143 1.400 . S
C145 C144 1.387 . S
N146 Co137 2.022 . S
N146 C143 1.351 . S
N146 N147 1.365 . S
N147 C144 1.341 . S
N147 N146 1.365 . S
N147 H167 0.862 . S
C148 C143 1.478 1_455 S
C148 H149 0.953 1_455 S
C148 H150 0.996 . S
C148 H151 0.955 1_455 S
H149 C148 0.953 1_655 S
H150 C148 0.996 . S
H151 C148 0.955 1_655 S
C152 N153 1.342 . S
C152 C156 1.401 . S
C152 C157 1.499 . S
N153 Co136 1.989 . S
N153 C152 1.342 . S
N153 N154 1.388 . S
N154 Co137 1.993 . S
N154 N153 1.388 . S
N154 C155 1.346 . S
C155 N154 1.346 . S
C155 C156 1.396 . S
C155 C165 1.510 . S
C156 C152 1.401 . S
C156 C155 1.396 . S
C157 C152 1.499 . S
C157 H158 0.959 . S
C157 H159 0.965 . S
C157 H160 0.961 . S
H158 C157 0.959 . S
H159 C157 0.965 . S
H160 C157 0.961 . S
O161 Co136 1.967 . S
O161 C169 1.258 . S
O162 Co137 1.941 . S
O162 C169 1.266 . S
H163 C165 0.959 . S
H164 C165 0.961 1_455 S
C165 C155 1.510 . S
C165 H163 0.959 . S
C165 H164 0.961 1_655 S
C165 H166 0.960 . S
H166 C165 0.960 . S
H167 N147 0.862 . S
O168 Co136 1.920 . S
O168 C141 1.289 . S
C169 O161 1.258 . S
C169 O162 1.266 . S
Co170 O173 1.970 . S
Co170 N187 1.989 . S
Co170 O195 1.967 . S
Co170 O202 1.920 . S
Co171 O174 1.966 . S
Co171 N180 2.022 . S
Co171 N188 1.993 . S
Co171 O196 1.941 . S
C172 O173 1.258 . S
C172 O174 1.263 . S
O173 Co170 1.970 . S
O173 C172 1.258 . S
O174 Co171 1.966 . S
O174 C172 1.263 . S
C175 O176 1.235 . S
C175 O202 1.289 . S
O176 C175 1.235 . S
C177 C179 1.400 . S
C177 N180 1.351 . S
C177 C182 1.501 . S
C178 C179 1.387 1_545 S
C178 N181 1.341 1_545 S
C179 C177 1.400 . S
C179 C178 1.387 1_565 S
N180 Co171 2.022 . S
N180 C177 1.351 . S
N180 N181 1.365 . S
N181 C178 1.341 1_565 S
N181 N180 1.365 . S
N181 H201 0.862 . S
C182 C177 1.501 . S
C182 H183 0.961 . S
C182 H184 0.961 . S
C182 H185 0.960 . S
H183 C182 0.961 . S
H184 C182 0.961 . S
H185 C182 0.960 . S
C186 N187 1.342 . S
C186 C190 1.401 . S
C186 C191 1.499 . S
N187 Co170 1.989 . S
N187 C186 1.342 . S
N187 N188 1.388 . S
N188 Co171 1.993 . S
N188 N187 1.388 . S
N188 C189 1.346 . S
C189 N188 1.346 . S
C189 C190 1.396 . S
C189 C199 1.510 1_565 S
C190 C186 1.401 . S
C190 C189 1.396 . S
C191 C186 1.499 . S
C191 H192 0.959 . S
C191 H193 0.960 . S
C191 H194 0.961 . S
H192 C191 0.959 . S
H193 C191 0.960 . S
H194 C191 0.961 . S
O195 Co170 1.967 . S
O195 C203 1.258 . S
O196 Co171 1.941 . S
O196 C203 1.266 . S
H197 C199 0.959 . S
H198 C199 0.961 . S
C199 C189 1.510 1_545 S
C199 H197 0.959 . S
C199 H198 0.961 . S
C199 H200 0.959 . S
H200 C199 0.959 . S
H201 N181 0.862 . S
O202 Co170 1.920 . S
O202 C175 1.289 . S
C203 O195 1.258 . S
C203 O196 1.266 . S
Co204 O207 1.970 . S
Co204 N221 1.989 . S
Co204 O229 1.967 . S
Co204 O236 1.920 . S
Co205 O208 1.966 . S
Co205 N214 2.022 . S
Co205 N222 1.993 . S
Co205 O230 1.941 . S
C206 O207 1.258 . S
C206 O208 1.263 . S
O207 Co204 1.970 . S
O207 C206 1.258 . S
O208 Co205 1.966 . S
O208 C206 1.263 . S
C209 O210 1.235 1_655 S
C209 O236 1.289 . S
O210 C209 1.235 1_455 S
C211 C213 1.400 . S
C211 N214 1.351 . S
C211 C216 1.478 1_655 S
C212 C213 1.387 1_545 S
C212 N215 1.341 1_545 S
C213 C211 1.400 . S
C213 C212 1.387 1_565 S
N214 Co205 2.022 . S
N214 C211 1.351 . S
N214 N215 1.365 . S
N215 C212 1.341 1_565 S
N215 N214 1.365 . S
N215 H235 0.862 . S
C216 C211 1.478 1_455 S
C216 H217 0.953 1_455 S
C216 H218 0.996 . S
C216 H219 0.955 1_455 S
H217 C216 0.953 1_655 S
H218 C216 0.996 . S
H219 C216 0.955 1_655 S
C220 N221 1.342 . S
C220 C224 1.401 . S
C220 C225 1.499 . S
N221 Co204 1.989 . S
N221 C220 1.342 . S
N221 N222 1.388 . S
N222 Co205 1.993 . S
N222 N221 1.388 . S
N222 C223 1.346 . S
C223 N222 1.346 . S
C223 C224 1.396 . S
C223 C233 1.510 1_565 S
C224 C220 1.401 . S
C224 C223 1.396 . S
C225 C220 1.499 . S
C225 H226 0.959 . S
C225 H227 0.965 . S
C225 H228 0.961 . S
H226 C225 0.959 . S
H227 C225 0.965 . S
H228 C225 0.961 . S
O229 Co204 1.967 . S
O229 C237 1.258 . S
O230 Co205 1.941 . S
O230 C237 1.266 . S
H231 C233 0.959 . S
H232 C233 0.961 1_455 S
C233 C223 1.510 1_545 S
C233 H231 0.959 . S
C233 H232 0.961 1_655 S
C233 H234 0.959 . S
H234 C233 0.959 . S
H235 N215 0.862 . S
O236 Co204 1.920 . S
O236 C209 1.289 . S
C237 O229 1.258 . S
C237 O230 1.266 . S
Co238 O241 1.970 . S
Co238 N255 1.989 . S
Co238 O263 1.967 . S
Co238 O270 1.920 . S
Co239 O242 1.966 . S
Co239 N248 2.022 . S
Co239 N256 1.993 . S
Co239 O264 1.941 . S
C240 O241 1.258 . S
C240 O242 1.263 . S
O241 Co238 1.970 . S
O241 C240 1.258 . S
O242 Co239 1.966 . S
O242 C240 1.263 . S
C243 O244 1.235 . S
C243 O270 1.289 . S
O244 C243 1.235 . S
C245 C247 1.400 . S
C245 N248 1.351 . S
C245 C250 1.501 . S
C246 C247 1.387 . S
C246 N249 1.341 . S
C247 C245 1.400 . S
C247 C246 1.387 . S
N248 Co239 2.022 . S
N248 C245 1.351 . S
N248 N249 1.365 . S
N249 C246 1.341 . S
N249 N248 1.365 . S
N249 H269 0.862 . S
C250 C245 1.501 . S
C250 H251 0.961 . S
C250 H252 0.961 . S
C250 H253 0.960 . S
H251 C250 0.961 . S
H252 C250 0.961 . S
H253 C250 0.960 . S
C254 N255 1.342 . S
C254 C258 1.401 . S
C254 C259 1.499 . S
N255 Co238 1.989 . S
N255 C254 1.342 . S
N255 N256 1.388 . S
N256 Co239 1.993 . S
N256 N255 1.388 . S
N256 C257 1.346 . S
C257 N256 1.346 . S
C257 C258 1.396 . S
C257 C267 1.510 . S
C258 C254 1.401 . S
C258 C257 1.396 . S
C259 C254 1.499 . S
C259 H260 0.959 . S
C259 H261 0.960 . S
C259 H262 0.961 . S
H260 C259 0.959 . S
H261 C259 0.960 . S
H262 C259 0.961 . S
O263 Co238 1.967 . S
O263 C271 1.258 . S
O264 Co239 1.941 . S
O264 C271 1.266 . S
H265 C267 0.959 . S
H266 C267 0.961 . S
C267 C257 1.510 . S
C267 H265 0.959 . S
C267 H266 0.961 . S
C267 H268 0.960 . S
H268 C267 0.960 . S
H269 N249 0.862 . S
O270 Co238 1.920 . S
O270 C243 1.289 . S
C271 O263 1.258 . S
C271 O264 1.266 . S
Co272 O275 1.970 . S
Co272 N289 1.989 . S
Co272 O297 1.967 . S
Co272 O304 1.920 1_556 S
Co273 O276 1.966 . S
Co273 N282 2.022 . S
Co273 N290 1.993 . S
Co273 O298 1.941 . S
C274 O275 1.258 . S
C274 O276 1.263 . S
O275 Co272 1.970 . S
O275 C274 1.258 . S
O276 Co273 1.966 . S
O276 C274 1.263 . S
C277 O278 1.235 1_455 S
C277 O304 1.289 . S
O278 C277 1.235 1_655 S
C279 C281 1.400 . S
C279 N282 1.351 . S
C279 C284 1.478 1_455 S
C280 C281 1.387 . S
C280 N283 1.341 . S
C281 C279 1.400 . S
C281 C280 1.387 . S
N282 Co273 2.022 . S
N282 C279 1.351 . S
N282 N283 1.365 . S
N283 C280 1.341 . S
N283 N282 1.365 . S
N283 H303 0.862 . S
C284 C279 1.478 1_655 S
C284 H285 0.953 1_655 S
C284 H286 0.996 . S
C284 H287 0.955 1_655 S
H285 C284 0.953 1_455 S
H286 C284 0.996 . S
H287 C284 0.955 1_455 S
C288 N289 1.342 1_554 S
C288 C292 1.401 . S
C288 C293 1.499 . S
N289 Co272 1.989 . S
N289 C288 1.342 1_556 S
N289 N290 1.388 . S
N290 Co273 1.993 . S
N290 N289 1.388 . S
N290 C291 1.346 . S
C291 N290 1.346 . S
C291 C292 1.396 1_556 S
C291 C301 1.510 . S
C292 C288 1.401 . S
C292 C291 1.396 1_554 S
C293 C288 1.499 . S
C293 H294 0.959 . S
C293 H295 0.965 . S
C293 H296 0.961 . S
H294 C293 0.959 . S
H295 C293 0.965 . S
H296 C293 0.961 . S
O297 Co272 1.967 . S
O297 C305 1.258 . S
O298 Co273 1.941 . S
O298 C305 1.266 . S
H299 C301 0.959 . S
H300 C301 0.961 1_655 S
C301 C291 1.510 . S
C301 H299 0.959 . S
C301 H300 0.961 1_455 S
C301 H302 0.960 . S
H302 C301 0.960 . S
H303 N283 0.862 . S
O304 Co272 1.920 1_554 S
O304 C277 1.289 . S
C305 O297 1.258 . S
C305 O298 1.266 . S
Co306 O309 1.970 . S
Co306 N323 1.989 . S
Co306 O331 1.967 . S
Co306 O338 1.920 1_556 S
Co307 O310 1.966 . S
Co307 N316 2.022 . S
Co307 N324 1.993 . S
Co307 O332 1.941 . S
C308 O309 1.258 . S
C308 O310 1.263 . S
O309 Co306 1.970 . S
O309 C308 1.258 . S
O310 Co307 1.966 . S
O310 C308 1.263 . S
C311 O312 1.235 . S
C311 O338 1.289 . S
O312 C311 1.235 . S
C313 C315 1.400 . S
C313 N316 1.351 . S
C313 C318 1.501 . S
C314 C315 1.387 . S
C314 N317 1.341 . S
C315 C313 1.400 . S
C315 C314 1.387 . S
N316 Co307 2.022 . S
N316 C313 1.351 . S
N316 N317 1.365 . S
N317 C314 1.341 . S
N317 N316 1.365 . S
N317 H337 0.862 . S
C318 C313 1.501 . S
C318 H319 0.961 . S
C318 H320 0.961 . S
C318 H321 0.960 . S
H319 C318 0.961 . S
H320 C318 0.961 . S
H321 C318 0.960 . S
C322 N323 1.342 1_554 S
C322 C326 1.401 . S
C322 C327 1.499 . S
N323 Co306 1.989 . S
N323 C322 1.342 1_556 S
N323 N324 1.388 . S
N324 Co307 1.993 . S
N324 N323 1.388 . S
N324 C325 1.346 . S
C325 N324 1.346 . S
C325 C326 1.396 1_556 S
C325 C335 1.510 . S
C326 C322 1.401 . S
C326 C325 1.396 1_554 S
C327 C322 1.499 . S
C327 H328 0.959 . S
C327 H329 0.960 . S
C327 H330 0.961 . S
H328 C327 0.959 . S
H329 C327 0.960 . S
H330 C327 0.961 . S
O331 Co306 1.967 . S
O331 C339 1.258 . S
O332 Co307 1.941 . S
O332 C339 1.266 . S
H333 C335 0.959 . S
H334 C335 0.961 . S
C335 C325 1.510 . S
C335 H333 0.959 . S
C335 H334 0.961 . S
C335 H336 0.960 . S
H336 C335 0.960 . S
H337 N317 0.862 . S
O338 Co306 1.920 1_554 S
O338 C311 1.289 . S
C339 O331 1.258 . S
C339 O332 1.266 . S
Co340 O343 1.970 . S
Co340 N357 1.989 . S
Co340 O365 1.967 . S
Co340 O372 1.920 . S
Co341 O344 1.966 . S
Co341 N350 2.022 . S
Co341 N358 1.993 . S
Co341 O366 1.941 . S
C342 O343 1.258 . S
C342 O344 1.263 . S
O343 Co340 1.970 . S
O343 C342 1.258 . S
O344 Co341 1.966 . S
O344 C342 1.263 . S
C345 O346 1.235 1_455 S
C345 O372 1.289 . S
O346 C345 1.235 1_655 S
C347 C349 1.400 . S
C347 N350 1.351 . S
C347 C352 1.478 1_455 S
C348 C349 1.387 . S
C348 N351 1.341 . S
C349 C347 1.400 . S
C349 C348 1.387 . S
N350 Co341 2.022 . S
N350 C347 1.351 . S
N350 N351 1.365 . S
N351 C348 1.341 . S
N351 N350 1.365 . S
N351 H371 0.862 . S
C352 C347 1.478 1_655 S
C352 H353 0.953 1_655 S
C352 H354 0.996 . S
C352 H355 0.955 1_655 S
H353 C352 0.953 1_455 S
H354 C352 0.996 . S
H355 C352 0.955 1_455 S
C356 N357 1.342 . S
C356 C360 1.401 . S
C356 C361 1.499 . S
N357 Co340 1.989 . S
N357 C356 1.342 . S
N357 N358 1.388 . S
N358 Co341 1.993 . S
N358 N357 1.388 . S
N358 C359 1.346 . S
C359 N358 1.346 . S
C359 C360 1.396 . S
C359 C369 1.510 . S
C360 C356 1.401 . S
C360 C359 1.396 . S
C361 C356 1.499 . S
C361 H362 0.959 . S
C361 H363 0.965 . S
C361 H364 0.961 . S
H362 C361 0.959 . S
H363 C361 0.965 . S
H364 C361 0.961 . S
O365 Co340 1.967 . S
O365 C373 1.258 . S
O366 Co341 1.941 . S
O366 C373 1.266 . S
H367 C369 0.959 . S
H368 C369 0.961 1_655 S
C369 C359 1.510 . S
C369 H367 0.959 . S
C369 H368 0.961 1_455 S
C369 H370 0.960 . S
H370 C369 0.960 . S
H371 N351 0.862 . S
O372 Co340 1.920 . S
O372 C345 1.289 . S
C373 O365 1.258 . S
C373 O366 1.266 . S
Co374 O377 1.970 . S
Co374 N391 1.989 . S
Co374 O399 1.967 . S
Co374 O406 1.920 . S
Co375 O378 1.966 . S
Co375 N384 2.022 . S
Co375 N392 1.993 . S
Co375 O400 1.941 . S
C376 O377 1.258 . S
C376 O378 1.263 . S
O377 Co374 1.970 . S
O377 C376 1.258 . S
O378 Co375 1.966 . S
O378 C376 1.263 . S
C379 O380 1.235 . S
C379 O406 1.289 . S
O380 C379 1.235 . S
C381 C383 1.400 . S
C381 N384 1.351 . S
C381 C386 1.501 . S
C382 C383 1.387 . S
C382 N385 1.341 . S
C383 C381 1.400 . S
C383 C382 1.387 . S
N384 Co375 2.022 . S
N384 C381 1.351 . S
N384 N385 1.365 . S
N385 C382 1.341 . S
N385 N384 1.365 . S
N385 H405 0.862 . S
C386 C381 1.501 . S
C386 H387 0.961 . S
C386 H388 0.961 . S
C386 H389 0.960 . S
H387 C386 0.961 . S
H388 C386 0.961 . S
H389 C386 0.960 . S
C390 N391 1.342 . S
C390 C394 1.401 . S
C390 C395 1.499 . S
N391 Co374 1.989 . S
N391 C390 1.342 . S
N391 N392 1.388 . S
N392 Co375 1.993 . S
N392 N391 1.388 . S
N392 C393 1.346 . S
C393 N392 1.346 . S
C393 C394 1.396 . S
C393 C403 1.510 . S
C394 C390 1.401 . S
C394 C393 1.396 . S
C395 C390 1.499 . S
C395 H396 0.959 . S
C395 H397 0.960 . S
C395 H398 0.961 . S
H396 C395 0.959 . S
H397 C395 0.960 . S
H398 C395 0.961 . S
O399 Co374 1.967 . S
O399 C407 1.258 . S
O400 Co375 1.941 . S
O400 C407 1.266 . S
H401 C403 0.959 . S
H402 C403 0.961 . S
C403 C393 1.510 . S
C403 H401 0.959 . S
C403 H402 0.961 . S
C403 H404 0.960 . S
H404 C403 0.960 . S
H405 N385 0.862 . S
O406 Co374 1.920 . S
O406 C379 1.289 . S
C407 O399 1.258 . S
C407 O400 1.266 . S
Co408 O411 1.970 . S
Co408 N425 1.989 . S
Co408 O433 1.967 . S
Co408 O440 1.920 1_554 S
Co409 O412 1.966 . S
Co409 N418 2.022 . S
Co409 N426 1.993 . S
Co409 O434 1.941 . S
C410 O411 1.258 . S
C410 O412 1.263 . S
O411 Co408 1.970 . S
O411 C410 1.258 . S
O412 Co409 1.966 . S
O412 C410 1.263 . S
C413 O414 1.235 1_655 S
C413 O440 1.289 . S
O414 C413 1.235 1_455 S
C415 C417 1.400 . S
C415 N418 1.351 . S
C415 C420 1.478 1_655 S
C416 C417 1.387 . S
C416 N419 1.341 . S
C417 C415 1.400 . S
C417 C416 1.387 . S
N418 Co409 2.022 . S
N418 C415 1.351 . S
N418 N419 1.365 . S
N419 C416 1.341 . S
N419 N418 1.365 . S
N419 H439 0.862 . S
C420 C415 1.478 1_455 S
C420 H421 0.953 1_455 S
C420 H422 0.996 . S
C420 H423 0.955 1_455 S
H421 C420 0.953 1_655 S
H422 C420 0.996 . S
H423 C420 0.955 1_655 S
C424 N425 1.342 1_556 S
C424 C428 1.401 . S
C424 C429 1.499 . S
N425 Co408 1.989 . S
N425 C424 1.342 1_554 S
N425 N426 1.388 . S
N426 Co409 1.993 . S
N426 N425 1.388 . S
N426 C427 1.346 . S
C427 N426 1.346 . S
C427 C428 1.396 1_554 S
C427 C437 1.510 . S
C428 C424 1.401 . S
C428 C427 1.396 1_556 S
C429 C424 1.499 . S
C429 H430 0.959 . S
C429 H431 0.965 . S
C429 H432 0.961 . S
H430 C429 0.959 . S
H431 C429 0.965 . S
H432 C429 0.961 . S
O433 Co408 1.967 . S
O433 C441 1.258 . S
O434 Co409 1.941 . S
O434 C441 1.266 . S
H435 C437 0.959 . S
H436 C437 0.961 1_455 S
C437 C427 1.510 . S
C437 H435 0.959 . S
C437 H436 0.961 1_655 S
C437 H438 0.960 . S
H438 C437 0.960 . S
H439 N419 0.862 . S
O440 Co408 1.920 1_556 S
O440 C413 1.289 . S
C441 O433 1.258 . S
C441 O434 1.266 . S
Co442 O445 1.970 . S
Co442 N459 1.989 . S
Co442 O467 1.967 . S
Co442 O474 1.920 1_554 S
Co443 O446 1.966 . S
Co443 N452 2.022 . S
Co443 N460 1.993 . S
Co443 O468 1.941 . S
C444 O445 1.258 . S
C444 O446 1.263 . S
O445 Co442 1.970 . S
O445 C444 1.258 . S
O446 Co443 1.966 . S
O446 C444 1.263 . S
C447 O448 1.235 . S
C447 O474 1.289 . S
O448 C447 1.235 . S
C449 C451 1.400 . S
C449 N452 1.351 . S
C449 C454 1.501 . S
C450 C451 1.387 . S
C450 N453 1.341 . S
C451 C449 1.400 . S
C451 C450 1.387 . S
N452 Co443 2.022 . S
N452 C449 1.351 . S
N452 N453 1.365 . S
N453 C450 1.341 . S
N453 N452 1.365 . S
N453 H473 0.862 . S
C454 C449 1.501 . S
C454 H455 0.961 . S
C454 H456 0.961 . S
C454 H457 0.960 . S
H455 C454 0.961 . S
H456 C454 0.961 . S
H457 C454 0.960 . S
C458 N459 1.342 1_556 S
C458 C462 1.401 . S
C458 C463 1.499 . S
N459 Co442 1.989 . S
N459 C458 1.342 1_554 S
N459 N460 1.388 . S
N460 Co443 1.993 . S
N460 N459 1.388 . S
N460 C461 1.346 . S
C461 N460 1.346 . S
C461 C462 1.396 1_554 S
C461 C471 1.510 . S
C462 C458 1.401 . S
C462 C461 1.396 1_556 S
C463 C458 1.499 . S
C463 H464 0.959 . S
C463 H465 0.960 . S
C463 H466 0.961 . S
H464 C463 0.959 . S
H465 C463 0.960 . S
H466 C463 0.961 . S
O467 Co442 1.967 . S
O467 C475 1.258 . S
O468 Co443 1.941 . S
O468 C475 1.266 . S
H469 C471 0.959 . S
H470 C471 0.961 . S
C471 C461 1.510 . S
C471 H469 0.959 . S
C471 H470 0.961 . S
C471 H472 0.960 . S
H472 C471 0.960 . S
H473 N453 0.862 . S
O474 Co442 1.920 1_556 S
O474 C447 1.289 . S
C475 O467 1.258 . S
C475 O468 1.266 . S
Co476 O479 1.970 . S
Co476 N493 1.989 . S
Co476 O501 1.967 . S
Co476 O508 1.920 . S
Co477 O480 1.966 . S
Co477 N486 2.022 . S
Co477 N494 1.993 . S
Co477 O502 1.941 . S
C478 O479 1.258 . S
C478 O480 1.263 . S
O479 Co476 1.970 . S
O479 C478 1.258 . S
O480 Co477 1.966 . S
O480 C478 1.263 . S
C481 O482 1.235 1_655 S
C481 O508 1.289 . S
O482 C481 1.235 1_455 S
C483 C485 1.400 . S
C483 N486 1.351 . S
C483 C488 1.478 1_655 S
C484 C485 1.387 . S
C484 N487 1.341 . S
C485 C483 1.400 . S
C485 C484 1.387 . S
N486 Co477 2.022 . S
N486 C483 1.351 . S
N486 N487 1.365 . S
N487 C484 1.341 . S
N487 N486 1.365 . S
N487 H507 0.862 . S
C488 C483 1.478 1_455 S
C488 H489 0.953 1_455 S
C488 H490 0.996 . S
C488 H491 0.955 1_455 S
H489 C488 0.953 1_655 S
H490 C488 0.996 . S
H491 C488 0.955 1_655 S
C492 N493 1.342 . S
C492 C496 1.401 . S
C492 C497 1.499 . S
N493 Co476 1.989 . S
N493 C492 1.342 . S
N493 N494 1.388 . S
N494 Co477 1.993 . S
N494 N493 1.388 . S
N494 C495 1.346 . S
C495 N494 1.346 . S
C495 C496 1.396 . S
C495 C505 1.510 . S
C496 C492 1.401 . S
C496 C495 1.396 . S
C497 C492 1.499 . S
C497 H498 0.959 . S
C497 H499 0.965 . S
C497 H500 0.961 . S
H498 C497 0.959 . S
H499 C497 0.965 . S
H500 C497 0.961 . S
O501 Co476 1.967 . S
O501 C509 1.258 . S
O502 Co477 1.941 . S
O502 C509 1.266 . S
H503 C505 0.959 . S
H504 C505 0.961 1_455 S
C505 C495 1.510 . S
C505 H503 0.959 . S
C505 H504 0.961 1_655 S
C505 H506 0.960 . S
H506 C505 0.960 . S
H507 N487 0.862 . S
O508 Co476 1.920 . S
O508 C481 1.289 . S
C509 O501 1.258 . S
C509 O502 1.266 . S
Co510 O513 1.970 . S
Co510 N527 1.989 . S
Co510 O535 1.967 . S
Co510 O542 1.920 . S
Co511 O514 1.966 . S
Co511 N520 2.022 . S
Co511 N528 1.993 . S
Co511 O536 1.941 . S
C512 O513 1.258 . S
C512 O514 1.263 . S
O513 Co510 1.970 . S
O513 C512 1.258 . S
O514 Co511 1.966 . S
O514 C512 1.263 . S
C515 O516 1.235 . S
C515 O542 1.289 . S
O516 C515 1.235 . S
C517 C519 1.400 . S
C517 N520 1.351 . S
C517 C522 1.501 . S
C518 C519 1.387 . S
C518 N521 1.341 . S
C519 C517 1.400 . S
C519 C518 1.387 . S
N520 Co511 2.022 . S
N520 C517 1.351 . S
N520 N521 1.365 . S
N521 C518 1.341 . S
N521 N520 1.365 . S
N521 H541 0.862 . S
C522 C517 1.501 . S
C522 H523 0.961 . S
C522 H524 0.961 . S
C522 H525 0.960 . S
H523 C522 0.961 . S
H524 C522 0.961 . S
H525 C522 0.960 . S
C526 N527 1.342 . S
C526 C530 1.401 . S
C526 C531 1.499 . S
N527 Co510 1.989 . S
N527 C526 1.342 . S
N527 N528 1.388 . S
N528 Co511 1.993 . S
N528 N527 1.388 . S
N528 C529 1.346 . S
C529 N528 1.346 . S
C529 C530 1.396 . S
C529 C539 1.510 . S
C530 C526 1.401 . S
C530 C529 1.396 . S
C531 C526 1.499 . S
C531 H532 0.959 . S
C531 H533 0.960 . S
C531 H534 0.961 . S
H532 C531 0.959 . S
H533 C531 0.960 . S
H534 C531 0.961 . S
O535 Co510 1.967 . S
O535 C543 1.258 . S
O536 Co511 1.941 . S
O536 C543 1.266 . S
H537 C539 0.959 . S
H538 C539 0.961 . S
C539 C529 1.510 . S
C539 H537 0.959 . S
C539 H538 0.961 . S
C539 H540 0.960 . S
H540 C539 0.960 . S
H541 N521 0.862 . S
O542 Co510 1.920 . S
O542 C515 1.289 . S
C543 O535 1.258 . S
C543 O536 1.266 . S
Co544 O547 1.970 . S
Co544 N561 1.989 . S
Co544 O569 1.967 . S
Co544 O576 1.920 1_556 S
Co545 O548 1.966 . S
Co545 N554 2.022 . S
Co545 N562 1.993 . S
Co545 O570 1.941 . S
C546 O547 1.258 . S
C546 O548 1.263 . S
O547 Co544 1.970 . S
O547 C546 1.258 . S
O548 Co545 1.966 . S
O548 C546 1.263 . S
C549 O550 1.235 . S
C549 O576 1.289 . S
O550 C549 1.235 . S
C551 C553 1.400 . S
C551 N554 1.351 . S
C551 C556 1.501 . S
C552 C553 1.387 . S
C552 N555 1.341 . S
C553 C551 1.400 . S
C553 C552 1.387 . S
N554 Co545 2.022 . S
N554 C551 1.351 . S
N554 N555 1.365 . S
N555 C552 1.341 . S
N555 N554 1.365 . S
N555 H575 0.862 . S
C556 C551 1.501 . S
C556 H557 0.961 . S
C556 H558 0.961 . S
C556 H559 0.960 . S
H557 C556 0.961 . S
H558 C556 0.961 . S
H559 C556 0.960 . S
C560 N561 1.342 1_554 S
C560 C564 1.401 . S
C560 C565 1.499 . S
N561 Co544 1.989 . S
N561 C560 1.342 1_556 S
N561 N562 1.388 . S
N562 Co545 1.993 . S
N562 N561 1.388 . S
N562 C563 1.346 . S
C563 N562 1.346 . S
C563 C564 1.396 1_556 S
C563 C573 1.510 . S
C564 C560 1.401 . S
C564 C563 1.396 1_554 S
C565 C560 1.499 . S
C565 H566 0.959 . S
C565 H567 0.960 . S
C565 H568 0.961 . S
H566 C565 0.959 . S
H567 C565 0.960 . S
H568 C565 0.961 . S
O569 Co544 1.967 . S
O569 C577 1.258 . S
O570 Co545 1.941 . S
O570 C577 1.266 . S
H571 C573 0.959 . S
H572 C573 0.961 . S
C573 C563 1.510 . S
C573 H571 0.959 . S
C573 H572 0.961 . S
C573 H574 0.960 . S
H574 C573 0.960 . S
H575 N555 0.862 . S
O576 Co544 1.920 1_554 S
O576 C549 1.289 . S
C577 O569 1.258 . S
C577 O570 1.266 . S
Co578 O581 1.970 . S
Co578 N595 1.989 . S
Co578 O603 1.967 . S
Co578 O610 1.920 1_556 S
Co579 O582 1.966 . S
Co579 N588 2.022 . S
Co579 N596 1.993 . S
Co579 O604 1.941 . S
C580 O581 1.258 . S
C580 O582 1.263 . S
O581 Co578 1.970 . S
O581 C580 1.258 . S
O582 Co579 1.966 . S
O582 C580 1.263 . S
C583 O584 1.235 . S
C583 O610 1.289 . S
O584 C583 1.235 . S
C585 C587 1.400 . S
C585 N588 1.351 . S
C585 C590 1.501 . S
C586 C587 1.387 1_565 S
C586 N589 1.341 1_565 S
C587 C585 1.400 . S
C587 C586 1.387 1_545 S
N588 Co579 2.022 . S
N588 C585 1.351 . S
N588 N589 1.365 . S
N589 C586 1.341 1_545 S
N589 N588 1.365 . S
N589 H609 0.862 . S
C590 C585 1.501 . S
C590 H591 0.961 . S
C590 H592 0.961 . S
C590 H593 0.960 . S
H591 C590 0.961 . S
H592 C590 0.961 . S
H593 C590 0.960 . S
C594 N595 1.342 1_554 S
C594 C598 1.401 . S
C594 C599 1.499 . S
N595 Co578 1.989 . S
N595 C594 1.342 1_556 S
N595 N596 1.388 . S
N596 Co579 1.993 . S
N596 N595 1.388 . S
N596 C597 1.346 . S
C597 N596 1.346 . S
C597 C598 1.396 1_556 S
C597 C607 1.510 1_545 S
C598 C594 1.401 . S
C598 C597 1.396 1_554 S
C599 C594 1.499 . S
C599 H600 0.959 . S
C599 H601 0.960 . S
C599 H602 0.961 . S
H600 C599 0.959 . S
H601 C599 0.960 . S
H602 C599 0.961 . S
O603 Co578 1.967 . S
O603 C611 1.258 . S
O604 Co579 1.941 . S
O604 C611 1.266 . S
H605 C607 0.959 . S
H606 C607 0.961 . S
C607 C597 1.510 1_565 S
C607 H605 0.959 . S
C607 H606 0.961 . S
C607 H608 0.959 . S
H608 C607 0.959 . S
H609 N589 0.862 . S
O610 Co578 1.920 1_554 S
O610 C583 1.289 . S
C611 O603 1.258 . S
C611 O604 1.266 . S
Co612 O615 1.970 . S
Co612 N629 1.989 . S
Co612 O637 1.967 . S
Co612 O644 1.920 . S
Co613 O616 1.966 . S
Co613 N622 2.022 . S
Co613 N630 1.993 . S
Co613 O638 1.941 . S
C614 O615 1.258 . S
C614 O616 1.263 . S
O615 Co612 1.970 . S
O615 C614 1.258 . S
O616 Co613 1.966 . S
O616 C614 1.263 . S
C617 O618 1.235 . S
C617 O644 1.289 . S
O618 C617 1.235 . S
C619 C621 1.400 . S
C619 N622 1.351 . S
C619 C624 1.501 . S
C620 C621 1.387 1_565 S
C620 N623 1.341 1_565 S
C621 C619 1.400 . S
C621 C620 1.387 1_545 S
N622 Co613 2.022 . S
N622 C619 1.351 . S
N622 N623 1.365 . S
N623 C620 1.341 1_545 S
N623 N622 1.365 . S
N623 H643 0.862 . S
C624 C619 1.501 . S
C624 H625 0.961 . S
C624 H626 0.961 . S
C624 H627 0.960 . S
H625 C624 0.961 . S
H626 C624 0.961 . S
H627 C624 0.960 . S
C628 N629 1.342 . S
C628 C632 1.401 . S
C628 C633 1.499 . S
N629 Co612 1.989 . S
N629 C628 1.342 . S
N629 N630 1.388 . S
N630 Co613 1.993 . S
N630 N629 1.388 . S
N630 C631 1.346 . S
C631 N630 1.346 . S
C631 C632 1.396 . S
C631 C641 1.510 1_545 S
C632 C628 1.401 . S
C632 C631 1.396 . S
C633 C628 1.499 . S
C633 H634 0.959 . S
C633 H635 0.960 . S
C633 H636 0.961 . S
H634 C633 0.959 . S
H635 C633 0.960 . S
H636 C633 0.961 . S
O637 Co612 1.967 . S
O637 C645 1.258 . S
O638 Co613 1.941 . S
O638 C645 1.266 . S
H639 C641 0.959 . S
H640 C641 0.961 . S
C641 C631 1.510 1_565 S
C641 H639 0.959 . S
C641 H640 0.961 . S
C641 H642 0.959 . S
H642 C641 0.959 . S
H643 N623 0.862 . S
O644 Co612 1.920 . S
O644 C617 1.289 . S
C645 O637 1.258 . S
C645 O638 1.266 . S
Co646 O649 1.970 . S
Co646 N663 1.989 . S
Co646 O671 1.967 . S
Co646 O678 1.920 . S
Co647 O650 1.966 . S
Co647 N656 2.022 . S
Co647 N664 1.993 . S
Co647 O672 1.941 . S
C648 O649 1.258 . S
C648 O650 1.263 . S
O649 Co646 1.970 . S
O649 C648 1.258 . S
O650 Co647 1.966 . S
O650 C648 1.263 . S
C651 O652 1.235 . S
C651 O678 1.289 . S
O652 C651 1.235 . S
C653 C655 1.400 . S
C653 N656 1.351 . S
C653 C658 1.501 . S
C654 C655 1.387 . S
C654 N657 1.341 . S
C655 C653 1.400 . S
C655 C654 1.387 . S
N656 Co647 2.022 . S
N656 C653 1.351 . S
N656 N657 1.365 . S
N657 C654 1.341 . S
N657 N656 1.365 . S
N657 H677 0.862 . S
C658 C653 1.501 . S
C658 H659 0.961 . S
C658 H660 0.961 . S
C658 H661 0.960 . S
H659 C658 0.961 . S
H660 C658 0.961 . S
H661 C658 0.960 . S
C662 N663 1.342 . S
C662 C666 1.401 . S
C662 C667 1.499 . S
N663 Co646 1.989 . S
N663 C662 1.342 . S
N663 N664 1.388 . S
N664 Co647 1.993 . S
N664 N663 1.388 . S
N664 C665 1.346 . S
C665 N664 1.346 . S
C665 C666 1.396 . S
C665 C675 1.510 . S
C666 C662 1.401 . S
C666 C665 1.396 . S
C667 C662 1.499 . S
C667 H668 0.959 . S
C667 H669 0.960 . S
C667 H670 0.961 . S
H668 C667 0.959 . S
H669 C667 0.960 . S
H670 C667 0.961 . S
O671 Co646 1.967 . S
O671 C679 1.258 . S
O672 Co647 1.941 . S
O672 C679 1.266 . S
H673 C675 0.959 . S
H674 C675 0.961 . S
C675 C665 1.510 . S
C675 H673 0.959 . S
C675 H674 0.961 . S
C675 H676 0.960 . S
H676 C675 0.960 . S
H677 N657 0.862 . S
O678 Co646 1.920 . S
O678 C651 1.289 . S
C679 O671 1.258 . S
C679 O672 1.266 . S
Co680 O683 1.970 . S
Co680 N697 1.989 . S
Co680 O705 1.967 . S
Co680 O712 1.920 1_554 S
Co681 O684 1.966 . S
Co681 N690 2.022 . S
Co681 N698 1.993 . S
Co681 O706 1.941 . S
C682 O683 1.258 . S
C682 O684 1.263 . S
O683 Co680 1.970 . S
O683 C682 1.258 . S
O684 Co681 1.966 . S
O684 C682 1.263 . S
C685 O686 1.235 . S
C685 O712 1.289 . S
O686 C685 1.235 . S
C687 C689 1.400 . S
C687 N690 1.351 . S
C687 C692 1.501 . S
C688 C689 1.387 . S
C688 N691 1.341 . S
C689 C687 1.400 . S
C689 C688 1.387 . S
N690 Co681 2.022 . S
N690 C687 1.351 . S
N690 N691 1.365 . S
N691 C688 1.341 . S
N691 N690 1.365 . S
N691 H711 0.862 . S
C692 C687 1.501 . S
C692 H693 0.961 . S
C692 H694 0.961 . S
C692 H695 0.960 . S
H693 C692 0.961 . S
H694 C692 0.961 . S
H695 C692 0.960 . S
C696 N697 1.342 1_556 S
C696 C700 1.401 . S
C696 C701 1.499 . S
N697 Co680 1.989 . S
N697 C696 1.342 1_554 S
N697 N698 1.388 . S
N698 Co681 1.993 . S
N698 N697 1.388 . S
N698 C699 1.346 . S
C699 N698 1.346 . S
C699 C700 1.396 1_554 S
C699 C709 1.510 . S
C700 C696 1.401 . S
C700 C699 1.396 1_556 S
C701 C696 1.499 . S
C701 H702 0.959 . S
C701 H703 0.960 . S
C701 H704 0.961 . S
H702 C701 0.959 . S
H703 C701 0.960 . S
H704 C701 0.961 . S
O705 Co680 1.967 . S
O705 C713 1.258 . S
O706 Co681 1.941 . S
O706 C713 1.266 . S
H707 C709 0.959 . S
H708 C709 0.961 . S
C709 C699 1.510 . S
C709 H707 0.959 . S
C709 H708 0.961 . S
C709 H710 0.960 . S
H710 C709 0.960 . S
H711 N691 0.862 . S
O712 Co680 1.920 1_556 S
O712 C685 1.289 . S
C713 O705 1.258 . S
C713 O706 1.266 . S
Co714 O717 1.970 . S
Co714 N731 1.989 . S
Co714 O739 1.967 . S
Co714 O746 1.920 1_554 S
Co715 O718 1.966 . S
Co715 N724 2.022 . S
Co715 N732 1.993 . S
Co715 O740 1.941 . S
C716 O717 1.258 . S
C716 O718 1.263 . S
O717 Co714 1.970 . S
O717 C716 1.258 . S
O718 Co715 1.966 . S
O718 C716 1.263 . S
C719 O720 1.235 . S
C719 O746 1.289 . S
O720 C719 1.235 . S
C721 C723 1.400 . S
C721 N724 1.351 . S
C721 C726 1.501 . S
C722 C723 1.387 1_545 S
C722 N725 1.341 1_545 S
C723 C721 1.400 . S
C723 C722 1.387 1_565 S
N724 Co715 2.022 . S
N724 C721 1.351 . S
N724 N725 1.365 . S
N725 C722 1.341 1_565 S
N725 N724 1.365 . S
N725 H745 0.862 . S
C726 C721 1.501 . S
C726 H727 0.961 . S
C726 H728 0.961 . S
C726 H729 0.960 . S
H727 C726 0.961 . S
H728 C726 0.961 . S
H729 C726 0.960 . S
C730 N731 1.342 1_556 S
C730 C734 1.401 . S
C730 C735 1.499 . S
N731 Co714 1.989 . S
N731 C730 1.342 1_554 S
N731 N732 1.388 . S
N732 Co715 1.993 . S
N732 N731 1.388 . S
N732 C733 1.346 . S
C733 N732 1.346 . S
C733 C734 1.396 1_554 S
C733 C743 1.510 1_565 S
C734 C730 1.401 . S
C734 C733 1.396 1_556 S
C735 C730 1.499 . S
C735 H736 0.959 . S
C735 H737 0.960 . S
C735 H738 0.961 . S
H736 C735 0.959 . S
H737 C735 0.960 . S
H738 C735 0.961 . S
O739 Co714 1.967 . S
O739 C747 1.258 . S
O740 Co715 1.941 . S
O740 C747 1.266 . S
H741 C743 0.959 . S
H742 C743 0.961 . S
C743 C733 1.510 1_545 S
C743 H741 0.959 . S
C743 H742 0.961 . S
C743 H744 0.959 . S
H744 C743 0.959 . S
H745 N725 0.862 . S
O746 Co714 1.920 1_556 S
O746 C719 1.289 . S
C747 O739 1.258 . S
C747 O740 1.266 . S
Co748 O751 1.970 . S
Co748 N765 1.989 . S
Co748 O773 1.967 . S
Co748 O780 1.920 . S
Co749 O752 1.966 . S
Co749 N758 2.022 . S
Co749 N766 1.993 . S
Co749 O774 1.941 . S
C750 O751 1.258 . S
C750 O752 1.263 . S
O751 Co748 1.970 . S
O751 C750 1.258 . S
O752 Co749 1.966 . S
O752 C750 1.263 . S
C753 O754 1.235 . S
C753 O780 1.289 . S
O754 C753 1.235 . S
C755 C757 1.400 . S
C755 N758 1.351 . S
C755 C760 1.501 . S
C756 C757 1.387 1_545 S
C756 N759 1.341 1_545 S
C757 C755 1.400 . S
C757 C756 1.387 1_565 S
N758 Co749 2.022 . S
N758 C755 1.351 . S
N758 N759 1.365 . S
N759 C756 1.341 1_565 S
N759 N758 1.365 . S
N759 H779 0.862 . S
C760 C755 1.501 . S
C760 H761 0.961 . S
C760 H762 0.961 . S
C760 H763 0.960 . S
H761 C760 0.961 . S
H762 C760 0.961 . S
H763 C760 0.960 . S
C764 N765 1.342 . S
C764 C768 1.401 . S
C764 C769 1.499 . S
N765 Co748 1.989 . S
N765 C764 1.342 . S
N765 N766 1.388 . S
N766 Co749 1.993 . S
N766 N765 1.388 . S
N766 C767 1.346 . S
C767 N766 1.346 . S
C767 C768 1.396 . S
C767 C777 1.510 1_565 S
C768 C764 1.401 . S
C768 C767 1.396 . S
C769 C764 1.499 . S
C769 H770 0.959 . S
C769 H771 0.960 . S
C769 H772 0.961 . S
H770 C769 0.959 . S
H771 C769 0.960 . S
H772 C769 0.961 . S
O773 Co748 1.967 . S
O773 C781 1.258 . S
O774 Co749 1.941 . S
O774 C781 1.266 . S
H775 C777 0.959 . S
H776 C777 0.961 . S
C777 C767 1.510 1_545 S
C777 H775 0.959 . S
C777 H776 0.961 . S
C777 H778 0.959 . S
H778 C777 0.959 . S
H779 N759 0.862 . S
O780 Co748 1.920 . S
O780 C753 1.289 . S
C781 O773 1.258 . S
C781 O774 1.266 . S
Co782 O785 1.970 . S
Co782 N799 1.989 . S
Co782 O807 1.967 . S
Co782 O814 1.920 . S
Co783 O786 1.966 . S
Co783 N792 2.022 . S
Co783 N800 1.993 . S
Co783 O808 1.941 . S
C784 O785 1.258 . S
C784 O786 1.263 . S
O785 Co782 1.970 . S
O785 C784 1.258 . S
O786 Co783 1.966 . S
O786 C784 1.263 . S
C787 O788 1.235 . S
C787 O814 1.289 . S
O788 C787 1.235 . S
C789 C791 1.400 . S
C789 N792 1.351 . S
C789 C794 1.501 . S
C790 C791 1.387 . S
C790 N793 1.341 . S
C791 C789 1.400 . S
C791 C790 1.387 . S
N792 Co783 2.022 . S
N792 C789 1.351 . S
N792 N793 1.365 . S
N793 C790 1.341 . S
N793 N792 1.365 . S
N793 H813 0.862 . S
C794 C789 1.501 . S
C794 H795 0.961 . S
C794 H796 0.961 . S
C794 H797 0.960 . S
H795 C794 0.961 . S
H796 C794 0.961 . S
H797 C794 0.960 . S
C798 N799 1.342 . S
C798 C802 1.401 . S
C798 C803 1.499 . S
N799 Co782 1.989 . S
N799 C798 1.342 . S
N799 N800 1.388 . S
N800 Co783 1.993 . S
N800 N799 1.388 . S
N800 C801 1.346 . S
C801 N800 1.346 . S
C801 C802 1.396 . S
C801 C811 1.510 . S
C802 C798 1.401 . S
C802 C801 1.396 . S
C803 C798 1.499 . S
C803 H804 0.959 . S
C803 H805 0.960 . S
C803 H806 0.961 . S
H804 C803 0.959 . S
H805 C803 0.960 . S
H806 C803 0.961 . S
O807 Co782 1.967 . S
O807 C815 1.258 . S
O808 Co783 1.941 . S
O808 C815 1.266 . S
H809 C811 0.959 . S
H810 C811 0.961 . S
C811 C801 1.510 . S
C811 H809 0.959 . S
C811 H810 0.961 . S
C811 H812 0.960 . S
H812 C811 0.960 . S
H813 N793 0.862 . S
O814 Co782 1.920 . S
O814 C787 1.289 . S
C815 O807 1.258 . S
C815 O808 1.266 . S
Co816 O819 1.970 . S
Co816 N833 1.989 . S
Co816 O841 1.967 . S
Co816 O848 1.920 . S
Co817 O820 1.966 . S
Co817 N826 2.022 . S
Co817 N834 1.993 . S
Co817 O842 1.941 . S
C818 O819 1.258 . S
C818 O820 1.263 . S
O819 Co816 1.970 . S
O819 C818 1.258 . S
O820 Co817 1.966 . S
O820 C818 1.263 . S
C821 O822 1.235 . S
C821 O848 1.289 . S
O822 C821 1.235 . S
C823 C825 1.400 . S
C823 N826 1.351 . S
C823 C828 1.501 . S
C824 C825 1.387 . S
C824 N827 1.341 . S
C825 C823 1.400 . S
C825 C824 1.387 . S
N826 Co817 2.022 . S
N826 C823 1.351 . S
N826 N827 1.365 . S
N827 C824 1.341 . S
N827 N826 1.365 . S
N827 H847 0.862 . S
C828 C823 1.501 . S
C828 H829 0.961 . S
C828 H830 0.961 . S
C828 H831 0.960 . S
H829 C828 0.961 . S
H830 C828 0.961 . S
H831 C828 0.960 . S
C832 N833 1.342 . S
C832 C836 1.401 . S
C832 C837 1.499 . S
N833 Co816 1.989 . S
N833 C832 1.342 . S
N833 N834 1.388 . S
N834 Co817 1.993 . S
N834 N833 1.388 . S
N834 C835 1.346 . S
C835 N834 1.346 . S
C835 C836 1.396 . S
C835 C845 1.510 . S
C836 C832 1.401 . S
C836 C835 1.396 . S
C837 C832 1.499 . S
C837 H838 0.959 . S
C837 H839 0.960 . S
C837 H840 0.961 . S
H838 C837 0.959 . S
H839 C837 0.960 . S
H840 C837 0.961 . S
O841 Co816 1.967 . S
O841 C849 1.258 . S
O842 Co817 1.941 . S
O842 C849 1.266 . S
H843 C845 0.959 . S
H844 C845 0.961 . S
C845 C835 1.510 . S
C845 H843 0.959 . S
C845 H844 0.961 . S
C845 H846 0.960 . S
H846 C845 0.960 . S
H847 N827 0.862 . S
O848 Co816 1.920 . S
O848 C821 1.289 . S
C849 O841 1.258 . S
C849 O842 1.266 . S
Co850 O853 1.970 . S
Co850 N867 1.989 . S
Co850 O875 1.967 . S
Co850 O882 1.920 . S
Co851 O854 1.966 . S
Co851 N860 2.022 . S
Co851 N868 1.993 . S
Co851 O876 1.941 . S
C852 O853 1.258 . S
C852 O854 1.263 . S
O853 Co850 1.970 . S
O853 C852 1.258 . S
O854 Co851 1.966 . S
O854 C852 1.263 . S
C855 O856 1.235 . S
C855 O882 1.289 . S
O856 C855 1.235 . S
C857 C859 1.400 . S
C857 N860 1.351 . S
C857 C862 1.501 . S
C858 C859 1.387 . S
C858 N861 1.341 . S
C859 C857 1.400 . S
C859 C858 1.387 . S
N860 Co851 2.022 . S
N860 C857 1.351 . S
N860 N861 1.365 . S
N861 C858 1.341 . S
N861 N860 1.365 . S
N861 H881 0.862 . S
C862 C857 1.501 . S
C862 H863 0.961 . S
C862 H864 0.961 . S
C862 H865 0.960 . S
H863 C862 0.961 . S
H864 C862 0.961 . S
H865 C862 0.960 . S
C866 N867 1.342 . S
C866 C870 1.401 . S
C866 C871 1.499 . S
N867 Co850 1.989 . S
N867 C866 1.342 . S
N867 N868 1.388 . S
N868 Co851 1.993 . S
N868 N867 1.388 . S
N868 C869 1.346 . S
C869 N868 1.346 . S
C869 C870 1.396 . S
C869 C879 1.510 . S
C870 C866 1.401 . S
C870 C869 1.396 . S
C871 C866 1.499 . S
C871 H872 0.959 . S
C871 H873 0.960 . S
C871 H874 0.961 . S
H872 C871 0.959 . S
H873 C871 0.960 . S
H874 C871 0.961 . S
O875 Co850 1.967 . S
O875 C883 1.258 . S
O876 Co851 1.941 . S
O876 C883 1.266 . S
H877 C879 0.959 . S
H878 C879 0.961 . S
C879 C869 1.510 . S
C879 H877 0.959 . S
C879 H878 0.961 . S
C879 H880 0.960 . S
H880 C879 0.960 . S
H881 N861 0.862 . S
O882 Co850 1.920 . S
O882 C855 1.289 . S
C883 O875 1.258 . S
C883 O876 1.266 . S
Co884 O887 1.970 . S
Co884 N901 1.989 . S
Co884 O909 1.967 . S
Co884 O916 1.920 . S
Co885 O888 1.966 . S
Co885 N894 2.022 . S
Co885 N902 1.993 . S
Co885 O910 1.941 . S
C886 O887 1.258 . S
C886 O888 1.263 . S
O887 Co884 1.970 . S
O887 C886 1.258 . S
O888 Co885 1.966 . S
O888 C886 1.263 . S
C889 O890 1.235 . S
C889 O916 1.289 . S
O890 C889 1.235 . S
C891 C893 1.400 . S
C891 N894 1.351 . S
C891 C896 1.501 . S
C892 C893 1.387 . S
C892 N895 1.341 . S
C893 C891 1.400 . S
C893 C892 1.387 . S
N894 Co885 2.022 . S
N894 C891 1.351 . S
N894 N895 1.365 . S
N895 C892 1.341 . S
N895 N894 1.365 . S
N895 H915 0.862 . S
C896 C891 1.501 . S
C896 H897 0.961 . S
C896 H898 0.961 . S
C896 H899 0.960 . S
H897 C896 0.961 . S
H898 C896 0.961 . S
H899 C896 0.960 . S
C900 N901 1.342 . S
C900 C904 1.401 . S
C900 C905 1.499 . S
N901 Co884 1.989 . S
N901 C900 1.342 . S
N901 N902 1.388 . S
N902 Co885 1.993 . S
N902 N901 1.388 . S
N902 C903 1.346 . S
C903 N902 1.346 . S
C903 C904 1.396 . S
C903 C913 1.510 . S
C904 C900 1.401 . S
C904 C903 1.396 . S
C905 C900 1.499 . S
C905 H906 0.959 . S
C905 H907 0.960 . S
C905 H908 0.961 . S
H906 C905 0.959 . S
H907 C905 0.960 . S
H908 C905 0.961 . S
O909 Co884 1.967 . S
O909 C917 1.258 . S
O910 Co885 1.941 . S
O910 C917 1.266 . S
H911 C913 0.959 . S
H912 C913 0.961 . S
C913 C903 1.510 . S
C913 H911 0.959 . S
C913 H912 0.961 . S
C913 H914 0.960 . S
H914 C913 0.960 . S
H915 N895 0.862 . S
O916 Co884 1.920 . S
O916 C889 1.289 . S
C917 O909 1.258 . S
C917 O910 1.266 . S
Co918 O921 1.970 . S
Co918 N935 1.989 . S
Co918 O943 1.967 . S
Co918 O950 1.920 . S
Co919 O922 1.966 . S
Co919 N928 2.022 . S
Co919 N936 1.993 . S
Co919 O944 1.941 . S
C920 O921 1.258 . S
C920 O922 1.263 . S
O921 Co918 1.970 . S
O921 C920 1.258 . S
O922 Co919 1.966 . S
O922 C920 1.263 . S
C923 O924 1.235 . S
C923 O950 1.289 . S
O924 C923 1.235 . S
C925 C927 1.400 . S
C925 N928 1.351 . S
C925 C930 1.501 . S
C926 C927 1.387 . S
C926 N929 1.341 . S
C927 C925 1.400 . S
C927 C926 1.387 . S
N928 Co919 2.022 . S
N928 C925 1.351 . S
N928 N929 1.365 . S
N929 C926 1.341 . S
N929 N928 1.365 . S
N929 H949 0.862 . S
C930 C925 1.501 . S
C930 H931 0.961 . S
C930 H932 0.961 . S
C930 H933 0.960 . S
H931 C930 0.961 . S
H932 C930 0.961 . S
H933 C930 0.960 . S
C934 N935 1.342 . S
C934 C938 1.401 . S
C934 C939 1.499 . S
N935 Co918 1.989 . S
N935 C934 1.342 . S
N935 N936 1.388 . S
N936 Co919 1.993 . S
N936 N935 1.388 . S
N936 C937 1.346 . S
C937 N936 1.346 . S
C937 C938 1.396 . S
C937 C947 1.510 . S
C938 C934 1.401 . S
C938 C937 1.396 . S
C939 C934 1.499 . S
C939 H940 0.959 . S
C939 H941 0.960 . S
C939 H942 0.961 . S
H940 C939 0.959 . S
H941 C939 0.960 . S
H942 C939 0.961 . S
O943 Co918 1.967 . S
O943 C951 1.258 . S
O944 Co919 1.941 . S
O944 C951 1.266 . S
H945 C947 0.959 . S
H946 C947 0.961 . S
C947 C937 1.510 . S
C947 H945 0.959 . S
C947 H946 0.961 . S
C947 H948 0.960 . S
H948 C947 0.960 . S
H949 N929 0.862 . S
O950 Co918 1.920 . S
O950 C923 1.289 . S
C951 O943 1.258 . S
C951 O944 1.266 . S
Co952 O955 1.970 . S
Co952 N969 1.989 . S
Co952 O977 1.967 . S
Co952 O984 1.920 . S
Co953 O956 1.966 . S
Co953 N962 2.022 . S
Co953 N970 1.993 . S
Co953 O978 1.941 . S
C954 O955 1.258 . S
C954 O956 1.263 . S
O955 Co952 1.970 . S
O955 C954 1.258 . S
O956 Co953 1.966 . S
O956 C954 1.263 . S
C957 O958 1.235 . S
C957 O984 1.289 . S
O958 C957 1.235 . S
C959 C961 1.400 . S
C959 N962 1.351 . S
C959 C964 1.501 . S
C960 C961 1.387 . S
C960 N963 1.341 . S
C961 C959 1.400 . S
C961 C960 1.387 . S
N962 Co953 2.022 . S
N962 C959 1.351 . S
N962 N963 1.365 . S
N963 C960 1.341 . S
N963 N962 1.365 . S
N963 H983 0.862 . S
C964 C959 1.501 . S
C964 H965 0.961 . S
C964 H966 0.961 . S
C964 H967 0.960 . S
H965 C964 0.961 . S
H966 C964 0.961 . S
H967 C964 0.960 . S
C968 N969 1.342 . S
C968 C972 1.401 . S
C968 C973 1.499 . S
N969 Co952 1.989 . S
N969 C968 1.342 . S
N969 N970 1.388 . S
N970 Co953 1.993 . S
N970 N969 1.388 . S
N970 C971 1.346 . S
C971 N970 1.346 . S
C971 C972 1.396 . S
C971 C981 1.510 . S
C972 C968 1.401 . S
C972 C971 1.396 . S
C973 C968 1.499 . S
C973 H974 0.959 . S
C973 H975 0.960 . S
C973 H976 0.961 . S
H974 C973 0.959 . S
H975 C973 0.960 . S
H976 C973 0.961 . S
O977 Co952 1.967 . S
O977 C985 1.258 . S
O978 Co953 1.941 . S
O978 C985 1.266 . S
H979 C981 0.959 . S
H980 C981 0.961 . S
C981 C971 1.510 . S
C981 H979 0.959 . S
C981 H980 0.961 . S
C981 H982 0.960 . S
H982 C981 0.960 . S
H983 N963 0.862 . S
O984 Co952 1.920 . S
O984 C957 1.289 . S
C985 O977 1.258 . S
C985 O978 1.266 . S
Co986 O989 1.970 . S
Co986 N1003 1.989 . S
Co986 O1011 1.967 . S
Co986 O1018 1.920 . S
Co987 O990 1.966 . S
Co987 N996 2.022 . S
Co987 N1004 1.993 . S
Co987 O1012 1.941 . S
C988 O989 1.258 . S
C988 O990 1.263 . S
O989 Co986 1.970 . S
O989 C988 1.258 . S
O990 Co987 1.966 . S
O990 C988 1.263 . S
C991 O992 1.235 . S
C991 O1018 1.289 . S
O992 C991 1.235 . S
C993 C995 1.400 . S
C993 N996 1.351 . S
C993 C998 1.501 . S
C994 C995 1.387 . S
C994 N997 1.341 . S
C995 C993 1.400 . S
C995 C994 1.387 . S
N996 Co987 2.022 . S
N996 C993 1.351 . S
N996 N997 1.365 . S
N997 C994 1.341 . S
N997 N996 1.365 . S
N997 H1017 0.862 . S
C998 C993 1.501 . S
C998 H999 0.961 . S
C998 H1000 0.961 . S
C998 H1001 0.960 . S
H999 C998 0.961 . S
H1000 C998 0.961 . S
H1001 C998 0.960 . S
C1002 N1003 1.342 . S
C1002 C1006 1.401 . S
C1002 C1007 1.499 . S
N1003 Co986 1.989 . S
N1003 C1002 1.342 . S
N1003 N1004 1.388 . S
N1004 Co987 1.993 . S
N1004 N1003 1.388 . S
N1004 C1005 1.346 . S
C1005 N1004 1.346 . S
C1005 C1006 1.396 . S
C1005 C1015 1.510 . S
C1006 C1002 1.401 . S
C1006 C1005 1.396 . S
C1007 C1002 1.499 . S
C1007 H1008 0.959 . S
C1007 H1009 0.960 . S
C1007 H1010 0.961 . S
H1008 C1007 0.959 . S
H1009 C1007 0.960 . S
H1010 C1007 0.961 . S
O1011 Co986 1.967 . S
O1011 C1019 1.258 . S
O1012 Co987 1.941 . S
O1012 C1019 1.266 . S
H1013 C1015 0.959 . S
H1014 C1015 0.961 . S
C1015 C1005 1.510 . S
C1015 H1013 0.959 . S
C1015 H1014 0.961 . S
C1015 H1016 0.960 . S
H1016 C1015 0.960 . S
H1017 N997 0.862 . S
O1018 Co986 1.920 . S
O1018 C991 1.289 . S
C1019 O1011 1.258 . S
C1019 O1012 1.266 . S
Co1020 O1023 1.970 . S
Co1020 N1037 1.989 . S
Co1020 O1045 1.967 . S
Co1020 O1052 1.920 . S
Co1021 O1024 1.966 . S
Co1021 N1030 2.022 . S
Co1021 N1038 1.993 . S
Co1021 O1046 1.941 . S
C1022 O1023 1.258 . S
C1022 O1024 1.263 . S
O1023 Co1020 1.970 . S
O1023 C1022 1.258 . S
O1024 Co1021 1.966 . S
O1024 C1022 1.263 . S
C1025 O1026 1.235 . S
C1025 O1052 1.289 . S
O1026 C1025 1.235 . S
C1027 C1029 1.400 . S
C1027 N1030 1.351 . S
C1027 C1032 1.501 . S
C1028 C1029 1.387 . S
C1028 N1031 1.341 . S
C1029 C1027 1.400 . S
C1029 C1028 1.387 . S
N1030 Co1021 2.022 . S
N1030 C1027 1.351 . S
N1030 N1031 1.365 . S
N1031 C1028 1.341 . S
N1031 N1030 1.365 . S
N1031 H1051 0.862 . S
C1032 C1027 1.501 . S
C1032 H1033 0.961 . S
C1032 H1034 0.961 . S
C1032 H1035 0.960 . S
H1033 C1032 0.961 . S
H1034 C1032 0.961 . S
H1035 C1032 0.960 . S
C1036 N1037 1.342 . S
C1036 C1040 1.401 . S
C1036 C1041 1.499 . S
N1037 Co1020 1.989 . S
N1037 C1036 1.342 . S
N1037 N1038 1.388 . S
N1038 Co1021 1.993 . S
N1038 N1037 1.388 . S
N1038 C1039 1.346 . S
C1039 N1038 1.346 . S
C1039 C1040 1.396 . S
C1039 C1049 1.510 . S
C1040 C1036 1.401 . S
C1040 C1039 1.396 . S
C1041 C1036 1.499 . S
C1041 H1042 0.959 . S
C1041 H1043 0.960 . S
C1041 H1044 0.961 . S
H1042 C1041 0.959 . S
H1043 C1041 0.960 . S
H1044 C1041 0.961 . S
O1045 Co1020 1.967 . S
O1045 C1053 1.258 . S
O1046 Co1021 1.941 . S
O1046 C1053 1.266 . S
H1047 C1049 0.959 . S
H1048 C1049 0.961 . S
C1049 C1039 1.510 . S
C1049 H1047 0.959 . S
C1049 H1048 0.961 . S
C1049 H1050 0.960 . S
H1050 C1049 0.960 . S
H1051 N1031 0.862 . S
O1052 Co1020 1.920 . S
O1052 C1025 1.289 . S
C1053 O1045 1.258 . S
C1053 O1046 1.266 . S
Co1054 O1057 1.970 . S
Co1054 N1071 1.989 . S
Co1054 O1079 1.967 . S
Co1054 O1086 1.920 . S
Co1055 O1058 1.966 . S
Co1055 N1064 2.022 . S
Co1055 N1072 1.993 . S
Co1055 O1080 1.941 . S
C1056 O1057 1.258 . S
C1056 O1058 1.263 . S
O1057 Co1054 1.970 . S
O1057 C1056 1.258 . S
O1058 Co1055 1.966 . S
O1058 C1056 1.263 . S
C1059 O1060 1.235 . S
C1059 O1086 1.289 . S
O1060 C1059 1.235 . S
C1061 C1063 1.400 . S
C1061 N1064 1.351 . S
C1061 C1066 1.501 . S
C1062 C1063 1.387 . S
C1062 N1065 1.341 . S
C1063 C1061 1.400 . S
C1063 C1062 1.387 . S
N1064 Co1055 2.022 . S
N1064 C1061 1.351 . S
N1064 N1065 1.365 . S
N1065 C1062 1.341 . S
N1065 N1064 1.365 . S
N1065 H1085 0.862 . S
C1066 C1061 1.501 . S
C1066 H1067 0.961 . S
C1066 H1068 0.961 . S
C1066 H1069 0.960 . S
H1067 C1066 0.961 . S
H1068 C1066 0.961 . S
H1069 C1066 0.960 . S
C1070 N1071 1.342 . S
C1070 C1074 1.401 . S
C1070 C1075 1.499 . S
N1071 Co1054 1.989 . S
N1071 C1070 1.342 . S
N1071 N1072 1.388 . S
N1072 Co1055 1.993 . S
N1072 N1071 1.388 . S
N1072 C1073 1.346 . S
C1073 N1072 1.346 . S
C1073 C1074 1.396 . S
C1073 C1083 1.510 . S
C1074 C1070 1.401 . S
C1074 C1073 1.396 . S
C1075 C1070 1.499 . S
C1075 H1076 0.959 . S
C1075 H1077 0.960 . S
C1075 H1078 0.961 . S
H1076 C1075 0.959 . S
H1077 C1075 0.960 . S
H1078 C1075 0.961 . S
O1079 Co1054 1.967 . S
O1079 C1087 1.258 . S
O1080 Co1055 1.941 . S
O1080 C1087 1.266 . S
H1081 C1083 0.959 . S
H1082 C1083 0.961 . S
C1083 C1073 1.510 . S
C1083 H1081 0.959 . S
C1083 H1082 0.961 . S
C1083 H1084 0.960 . S
H1084 C1083 0.960 . S
H1085 N1065 0.862 . S
O1086 Co1054 1.920 . S
O1086 C1059 1.289 . S
C1087 O1079 1.258 . S
C1087 O1080 1.266 . S
C1088 C1089 1.389 . S
C1088 H1092 0.950 . S
C1088 C1097 1.389 1_655 S
C1089 C1088 1.389 . S
C1089 C1091 1.387 . S
H1090 C1097 0.950 . S
C1091 C1089 1.387 . S
C1091 C1093 1.389 1_655 S
C1091 H1095 0.950 . S
H1092 C1088 0.950 . S
C1093 C1091 1.389 1_455 S
C1093 C1094 1.389 . S
C1093 H1096 0.950 . S
C1094 C1093 1.389 . S
C1094 C1097 1.387 . S
H1095 C1091 0.950 . S
H1096 C1093 0.950 . S
C1097 C1088 1.389 1_455 S
C1097 H1090 0.950 . S
C1097 C1094 1.387 . S
C1098 C1099 1.387 1_545 S
C1098 H1102 0.950 . S
C1098 C1107 1.390 . S
C1099 C1098 1.387 1_565 S
C1099 C1101 1.387 . S
H1100 C1107 0.950 . S
C1101 C1099 1.387 . S
C1101 C1103 1.390 . S
C1101 H1105 0.950 . S
H1102 C1098 0.950 . S
C1103 C1101 1.390 . S
C1103 C1104 1.387 1_565 S
C1103 H1106 0.950 . S
C1104 C1103 1.387 1_545 S
C1104 C1107 1.387 . S
H1105 C1101 0.950 . S
H1106 C1103 0.950 . S
C1107 C1098 1.390 . S
C1107 H1100 0.950 . S
C1107 C1104 1.387 . S
C1108 C1109 1.387 . S
C1108 H1112 0.950 . S
C1108 C1117 1.390 1_554 S
C1109 C1108 1.387 . S
C1109 C1111 1.387 1_665 S
H1110 C1117 0.950 . S
C1111 C1109 1.387 1_445 S
C1111 C1113 1.390 1_554 S
C1111 H1115 0.950 . S
H1112 C1108 0.950 . S
C1113 C1111 1.390 1_556 S
C1113 C1114 1.387 . S
C1113 H1116 0.950 . S
C1114 C1113 1.387 . S
C1114 C1117 1.387 1_445 S
H1115 C1111 0.950 . S
H1116 C1113 0.950 . S
C1117 C1108 1.390 1_556 S
C1117 H1110 0.950 . S
C1117 C1114 1.387 1_665 S
C1118 C1119 1.387 . S
C1118 H1122 0.950 . S
C1118 C1127 1.390 1_554 S
C1119 C1118 1.387 . S
C1119 C1121 1.387 . S
H1120 C1127 0.950 . S
C1121 C1119 1.387 . S
C1121 C1123 1.390 1_554 S
C1121 H1125 0.950 . S
H1122 C1118 0.950 . S
C1123 C1121 1.390 1_556 S
C1123 C1124 1.387 . S
C1123 H1126 0.950 . S
C1124 C1123 1.387 . S
C1124 C1127 1.387 . S
H1125 C1121 0.950 . S
H1126 C1123 0.950 . S
C1127 C1118 1.390 1_556 S
C1127 H1120 0.950 . S
C1127 C1124 1.387 . S
C1128 C1129 1.387 1_655 S
C1128 H1132 0.950 . S
C1128 C1137 1.390 . S
C1129 C1128 1.387 1_455 S
C1129 C1131 1.387 . S
H1130 C1137 0.950 . S
C1131 C1129 1.387 . S
C1131 C1133 1.390 . S
C1131 H1135 0.950 . S
H1132 C1128 0.950 . S
C1133 C1131 1.390 . S
C1133 C1134 1.387 1_455 S
C1133 H1136 0.950 . S
C1134 C1133 1.387 1_655 S
C1134 C1137 1.387 . S
H1135 C1131 0.950 . S
H1136 C1133 0.950 . S
C1137 C1128 1.390 . S
C1137 H1130 0.950 . S
C1137 C1134 1.387 . S
C1138 C1139 1.387 1_565 S
C1138 H1142 0.950 . S
C1138 C1147 1.390 . S
C1139 C1138 1.387 1_545 S
C1139 C1141 1.387 . S
H1140 C1147 0.950 . S
C1141 C1139 1.387 . S
C1141 C1143 1.390 . S
C1141 H1145 0.950 . S
H1142 C1138 0.950 . S
C1143 C1141 1.390 . S
C1143 C1144 1.387 1_545 S
C1143 H1146 0.950 . S
C1144 C1143 1.387 1_565 S
C1144 C1147 1.387 . S
H1145 C1141 0.950 . S
H1146 C1143 0.950 . S
C1147 C1138 1.390 . S
C1147 H1140 0.950 . S
C1147 C1144 1.387 . S
C1148 C1149 1.387 . S
C1148 H1152 0.950 . S
C1148 C1157 1.390 1_554 S
C1149 C1148 1.387 . S
C1149 C1151 1.387 . S
H1150 C1157 0.950 . S
C1151 C1149 1.387 . S
C1151 C1153 1.390 1_554 S
C1151 H1155 0.950 . S
H1152 C1148 0.950 . S
C1153 C1151 1.390 1_556 S
C1153 C1154 1.387 . S
C1153 H1156 0.950 . S
C1154 C1153 1.387 . S
C1154 C1157 1.387 . S
H1155 C1151 0.950 . S
H1156 C1153 0.950 . S
C1157 C1148 1.390 1_556 S
C1157 H1150 0.950 . S
C1157 C1154 1.387 . S
C1158 C1159 1.387 . S
C1158 H1162 0.950 . S
C1158 C1167 1.390 . S
C1159 C1158 1.387 . S
C1159 C1161 1.387 . S
H1160 C1167 0.950 . S
C1161 C1159 1.387 . S
C1161 C1163 1.390 . S
C1161 H1165 0.950 . S
H1162 C1158 0.950 . S
C1163 C1161 1.390 . S
C1163 C1164 1.387 . S
C1163 H1166 0.950 . S
C1164 C1163 1.387 . S
C1164 C1167 1.387 . S
H1165 C1161 0.950 . S
H1166 C1163 0.950 . S
C1167 C1158 1.390 . S
C1167 H1160 0.950 . S
C1167 C1164 1.387 . S
C1168 C1169 1.387 . S
C1168 H1172 0.950 . S
C1168 C1177 1.390 . S
C1169 C1168 1.387 . S
C1169 C1171 1.387 1_655 S
H1170 C1177 0.950 . S
C1171 C1169 1.387 1_455 S
C1171 C1173 1.390 . S
C1171 H1175 0.950 . S
H1172 C1168 0.950 . S
C1173 C1171 1.390 . S
C1173 C1174 1.387 . S
C1173 H1176 0.950 . S
C1174 C1173 1.387 . S
C1174 C1177 1.387 1_455 S
H1175 C1171 0.950 . S
H1176 C1173 0.950 . S
C1177 C1168 1.390 . S
C1177 H1170 0.950 . S
C1177 C1174 1.387 1_655 S
C1178 C1179 1.387 . S
C1178 H1182 0.950 . S
C1178 C1187 1.390 . S
C1179 C1178 1.387 . S
C1179 C1181 1.387 . S
H1180 C1187 0.950 . S
C1181 C1179 1.387 . S
C1181 C1183 1.390 . S
C1181 H1185 0.950 . S
H1182 C1178 0.950 . S
C1183 C1181 1.390 . S
C1183 C1184 1.387 . S
C1183 H1186 0.950 . S
C1184 C1183 1.387 . S
C1184 C1187 1.387 . S
H1185 C1181 0.950 . S
H1186 C1183 0.950 . S
C1187 C1178 1.390 . S
C1187 H1180 0.950 . S
C1187 C1184 1.387 . S
C1188 C1189 1.387 . S
C1188 H1192 0.950 . S
C1188 C1197 1.390 . S
C1189 C1188 1.387 . S
C1189 C1191 1.387 . S
H1190 C1197 0.950 . S
C1191 C1189 1.387 . S
C1191 C1193 1.390 . S
C1191 H1195 0.950 . S
H1192 C1188 0.950 . S
C1193 C1191 1.390 . S
C1193 C1194 1.387 . S
C1193 H1196 0.950 . S
C1194 C1193 1.387 . S
C1194 C1197 1.387 . S
H1195 C1191 0.950 . S
H1196 C1193 0.950 . S
C1197 C1188 1.390 . S
C1197 H1190 0.950 . S
C1197 C1194 1.387 . S
C1198 C1199 1.387 . S
C1198 H1202 0.950 . S
C1198 C1207 1.390 . S
C1199 C1198 1.387 . S
C1199 C1201 1.387 . S
H1200 C1207 0.950 . S
C1201 C1199 1.387 . S
C1201 C1203 1.390 . S
C1201 H1205 0.950 . S
H1202 C1198 0.950 . S
C1203 C1201 1.390 . S
C1203 C1204 1.387 . S
C1203 H1206 0.950 . S
C1204 C1203 1.387 . S
C1204 C1207 1.387 . S
H1205 C1201 0.950 . S
H1206 C1203 0.950 . S
C1207 C1198 1.390 . S
C1207 H1200 0.950 . S
C1207 C1204 1.387 . S
C1208 C1209 1.387 . S
C1208 H1212 0.950 . S
C1208 C1217 1.390 . S
C1209 C1208 1.387 . S
C1209 C1211 1.387 . S
H1210 C1217 0.950 . S
C1211 C1209 1.387 . S
C1211 C1213 1.390 . S
C1211 H1215 0.950 . S
H1212 C1208 0.950 . S
C1213 C1211 1.390 . S
C1213 C1214 1.387 . S
C1213 H1216 0.950 . S
C1214 C1213 1.387 . S
C1214 C1217 1.387 . S
H1215 C1211 0.950 . S
H1216 C1213 0.950 . S
C1217 C1208 1.390 . S
C1217 H1210 0.950 . S
C1217 C1214 1.387 . S
C1218 C1219 1.392 . S
C1218 H1222 0.951 . S
C1218 C1227 1.386 1_565 S
C1219 C1218 1.392 . S
C1219 C1221 1.387 . S
H1220 C1227 0.950 . S
C1221 C1219 1.387 . S
C1221 C1223 1.386 1_565 S
C1221 H1225 0.950 . S
H1222 C1218 0.951 . S
C1223 C1221 1.386 1_545 S
C1223 C1224 1.392 . S
C1223 H1226 0.951 . S
C1224 C1223 1.392 . S
C1224 C1227 1.387 . S
H1225 C1221 0.950 . S
H1226 C1223 0.951 . S
C1227 C1218 1.386 1_545 S
C1227 H1220 0.950 . S
C1227 C1224 1.387 . S
C1228 C1229 1.387 . S
C1228 H1232 0.950 . S
C1228 C1237 1.390 . S
C1229 C1228 1.387 . S
C1229 C1231 1.387 . S
H1230 C1237 0.950 . S
C1231 C1229 1.387 . S
C1231 C1233 1.390 . S
C1231 H1235 0.950 . S
H1232 C1228 0.950 . S
C1233 C1231 1.390 . S
C1233 C1234 1.387 . S
C1233 H1236 0.950 . S
C1234 C1233 1.387 . S
C1234 C1237 1.387 . S
H1235 C1231 0.950 . S
H1236 C1233 0.950 . S
C1237 C1228 1.390 . S
C1237 H1230 0.950 . S
C1237 C1234 1.387 . S
C1238 C1239 1.387 . S
C1238 H1242 0.950 . S
C1238 C1247 1.390 1_554 S
C1239 C1238 1.387 . S
C1239 C1241 1.387 . S
H1240 C1247 0.950 . S
C1241 C1239 1.387 . S
C1241 C1243 1.390 1_554 S
C1241 H1245 0.950 . S
H1242 C1238 0.950 . S
C1243 C1241 1.390 1_556 S
C1243 C1244 1.387 . S
C1243 H1246 0.950 . S
C1244 C1243 1.387 . S
C1244 C1247 1.387 . S
H1245 C1241 0.950 . S
H1246 C1243 0.950 . S
C1247 C1238 1.390 1_556 S
C1247 H1240 0.950 . S
C1247 C1244 1.387 . S
C1248 C1249 1.387 1_655 S
C1248 H1252 0.950 . S
C1248 C1257 1.390 . S
C1249 C1248 1.387 1_455 S
C1249 C1251 1.387 . S
H1250 C1257 0.950 . S
C1251 C1249 1.387 . S
C1251 C1253 1.390 . S
C1251 H1255 0.950 . S
H1252 C1248 0.950 . S
C1253 C1251 1.390 . S
C1253 C1254 1.387 . S
C1253 H1256 0.950 . S
C1254 C1253 1.387 . S
C1254 C1257 1.387 1_455 S
H1255 C1251 0.950 . S
H1256 C1253 0.950 . S
C1257 C1248 1.390 . S
C1257 H1250 0.950 . S
C1257 C1254 1.387 1_655 S
C1258 C1259 1.387 . S
C1258 H1262 0.950 . S
C1258 C1267 1.390 . S
C1259 C1258 1.387 . S
C1259 C1261 1.387 . S
H1260 C1267 0.950 . S
C1261 C1259 1.387 . S
C1261 C1263 1.390 . S
C1261 H1265 0.950 . S
H1262 C1258 0.950 . S
C1263 C1261 1.390 . S
C1263 C1264 1.387 . S
C1263 H1266 0.950 . S
C1264 C1263 1.387 . S
C1264 C1267 1.387 . S
H1265 C1261 0.950 . S
H1266 C1263 0.950 . S
C1267 C1258 1.390 . S
C1267 H1260 0.950 . S
C1267 C1264 1.387 . S
C1268 C1269 1.387 1_455 S
C1268 H1272 0.950 . S
C1268 C1277 1.390 . S
C1269 C1268 1.387 1_655 S
C1269 C1271 1.387 . S
H1270 C1277 0.950 . S
C1271 C1269 1.387 . S
C1271 C1273 1.390 . S
C1271 H1275 0.950 . S
H1272 C1268 0.950 . S
C1273 C1271 1.390 . S
C1273 C1274 1.387 . S
C1273 H1276 0.950 . S
C1274 C1273 1.387 . S
C1274 C1277 1.387 1_655 S
H1275 C1271 0.950 . S
H1276 C1273 0.950 . S
C1277 C1268 1.390 . S
C1277 H1270 0.950 . S
C1277 C1274 1.387 1_455 S
C1278 C1279 1.387 . S
C1278 H1282 0.950 . S
C1278 C1287 1.390 . S
C1279 C1278 1.387 . S
C1279 C1281 1.387 . S
H1280 C1287 0.950 . S
C1281 C1279 1.387 . S
C1281 C1283 1.390 . S
C1281 H1285 0.950 . S
H1282 C1278 0.950 . S
C1283 C1281 1.390 . S
C1283 C1284 1.387 . S
C1283 H1286 0.950 . S
C1284 C1283 1.387 . S
C1284 C1287 1.387 . S
H1285 C1281 0.950 . S
H1286 C1283 0.950 . S
C1287 C1278 1.390 . S
C1287 H1280 0.950 . S
C1287 C1284 1.387 . S
C1288 C1289 1.387 1_655 S
C1288 H1292 0.950 . S
C1288 C1297 1.390 . S
C1289 C1288 1.387 1_455 S
C1289 C1291 1.387 . S
H1290 C1297 0.950 . S
C1291 C1289 1.387 . S
C1291 C1293 1.390 . S
C1291 H1295 0.950 . S
H1292 C1288 0.950 . S
C1293 C1291 1.390 . S
C1293 C1294 1.387 . S
C1293 H1296 0.950 . S
C1294 C1293 1.387 . S
C1294 C1297 1.387 1_455 S
H1295 C1291 0.950 . S
H1296 C1293 0.950 . S
C1297 C1288 1.390 . S
C1297 H1290 0.950 . S
C1297 C1294 1.387 1_655 S
C1298 C1299 1.387 . S
C1298 H1302 0.950 . S
C1298 C1307 1.390 . S
C1299 C1298 1.387 . S
C1299 C1301 1.387 . S
H1300 C1307 0.950 . S
C1301 C1299 1.387 . S
C1301 C1303 1.390 . S
C1301 H1305 0.950 . S
H1302 C1298 0.950 . S
C1303 C1301 1.390 . S
C1303 C1304 1.387 . S
C1303 H1306 0.950 . S
C1304 C1303 1.387 . S
C1304 C1307 1.387 . S
H1305 C1301 0.950 . S
H1306 C1303 0.950 . S
C1307 C1298 1.390 . S
C1307 H1300 0.950 . S
C1307 C1304 1.387 . S
C1308 C1309 1.387 . S
C1308 H1312 0.950 . S
C1308 C1317 1.390 . S
C1309 C1308 1.387 . S
C1309 C1311 1.387 1_655 S
H1310 C1317 0.950 . S
C1311 C1309 1.387 1_455 S
C1311 C1313 1.390 . S
C1311 H1315 0.950 . S
H1312 C1308 0.950 . S
C1313 C1311 1.390 . S
C1313 C1314 1.387 1_455 S
C1313 H1316 0.950 . S
C1314 C1313 1.387 1_655 S
C1314 C1317 1.387 . S
H1315 C1311 0.950 . S
H1316 C1313 0.950 . S
C1317 C1308 1.390 . S
C1317 H1310 0.950 . S
C1317 C1314 1.387 . S
C1318 C1319 1.387 . S
C1318 H1322 0.950 . S
C1318 C1327 1.390 . S
C1319 C1318 1.387 . S
C1319 C1321 1.387 . S
H1320 C1327 0.950 . S
C1321 C1319 1.387 . S
C1321 C1323 1.390 . S
C1321 H1325 0.950 . S
H1322 C1318 0.950 . S
C1323 C1321 1.390 . S
C1323 C1324 1.387 . S
C1323 H1326 0.950 . S
C1324 C1323 1.387 . S
C1324 C1327 1.387 . S
H1325 C1321 0.950 . S
H1326 C1323 0.950 . S
C1327 C1318 1.390 . S
C1327 H1320 0.950 . S
C1327 C1324 1.387 . S
C1328 C1329 1.387 . S
C1328 H1332 0.950 . S
C1328 C1337 1.390 . S
C1329 C1328 1.387 . S
C1329 C1331 1.387 . S
H1330 C1337 0.950 . S
C1331 C1329 1.387 . S
C1331 C1333 1.390 . S
C1331 H1335 0.950 . S
H1332 C1328 0.950 . S
C1333 C1331 1.390 . S
C1333 C1334 1.387 . S
C1333 H1336 0.950 . S
C1334 C1333 1.387 . S
C1334 C1337 1.387 . S
H1335 C1331 0.950 . S
H1336 C1333 0.950 . S
C1337 C1328 1.390 . S
C1337 H1330 0.950 . S
C1337 C1334 1.387 . S
C1338 C1339 1.387 . S
C1338 H1342 0.950 . S
C1338 C1347 1.390 . S
C1339 C1338 1.387 . S
C1339 C1341 1.387 . S
H1340 C1347 0.950 . S
C1341 C1339 1.387 . S
C1341 C1343 1.390 . S
C1341 H1345 0.950 . S
H1342 C1338 0.950 . S
C1343 C1341 1.390 . S
C1343 C1344 1.387 . S
C1343 H1346 0.950 . S
C1344 C1343 1.387 . S
C1344 C1347 1.387 . S
H1345 C1341 0.950 . S
H1346 C1343 0.950 . S
C1347 C1338 1.390 . S
C1347 H1340 0.950 . S
C1347 C1344 1.387 . S
C1348 C1349 1.387 . S
C1348 H1352 0.950 . S
C1348 C1357 1.390 . S
C1349 C1348 1.387 . S
C1349 C1351 1.387 . S
H1350 C1357 0.950 . S
C1351 C1349 1.387 . S
C1351 C1353 1.390 . S
C1351 H1355 0.950 . S
H1352 C1348 0.950 . S
C1353 C1351 1.390 . S
C1353 C1354 1.387 . S
C1353 H1356 0.950 . S
C1354 C1353 1.387 . S
C1354 C1357 1.387 . S
H1355 C1351 0.950 . S
H1356 C1353 0.950 . S
C1357 C1348 1.390 . S
C1357 H1350 0.950 . S
C1357 C1354 1.387 . S
C1358 C1359 1.387 . S
C1358 H1362 0.950 . S
C1358 C1367 1.390 . S
C1359 C1358 1.387 . S
C1359 C1361 1.387 . S
H1360 C1367 0.950 . S
C1361 C1359 1.387 . S
C1361 C1363 1.390 . S
C1361 H1365 0.950 . S
H1362 C1358 0.950 . S
C1363 C1361 1.390 . S
C1363 C1364 1.387 . S
C1363 H1366 0.950 . S
C1364 C1363 1.387 . S
C1364 C1367 1.387 . S
H1365 C1361 0.950 . S
H1366 C1363 0.950 . S
C1367 C1358 1.390 . S
C1367 H1360 0.950 . S
C1367 C1364 1.387 . S
C1368 C1369 1.387 . S
C1368 H1372 0.950 . S
C1368 C1377 1.390 . S
C1369 C1368 1.387 . S
C1369 C1371 1.387 . S
H1370 C1377 0.950 . S
C1371 C1369 1.387 . S
C1371 C1373 1.390 . S
C1371 H1375 0.950 . S
H1372 C1368 0.950 . S
C1373 C1371 1.390 . S
C1373 C1374 1.387 . S
C1373 H1376 0.950 . S
C1374 C1373 1.387 . S
C1374 C1377 1.387 . S
H1375 C1371 0.950 . S
H1376 C1373 0.950 . S
C1377 C1368 1.390 . S
C1377 H1370 0.950 . S
C1377 C1374 1.387 . S
C1378 C1379 1.387 . S
C1378 H1382 0.950 . S
C1378 C1387 1.390 . S
C1379 C1378 1.387 . S
C1379 C1381 1.387 . S
H1380 C1387 0.950 . S
C1381 C1379 1.387 . S
C1381 C1383 1.390 . S
C1381 H1385 0.950 . S
H1382 C1378 0.950 . S
C1383 C1381 1.390 . S
C1383 C1384 1.387 . S
C1383 H1386 0.950 . S
C1384 C1383 1.387 . S
C1384 C1387 1.387 . S
H1385 C1381 0.950 . S
H1386 C1383 0.950 . S
C1387 C1378 1.390 . S
C1387 H1380 0.950 . S
C1387 C1384 1.387 . S
C1388 C1389 1.387 . S
C1388 H1392 0.950 . S
C1388 C1397 1.390 . S
C1389 C1388 1.387 . S
C1389 C1391 1.387 . S
H1390 C1397 0.950 . S
C1391 C1389 1.387 . S
C1391 C1393 1.390 . S
C1391 H1395 0.950 . S
H1392 C1388 0.950 . S
C1393 C1391 1.390 . S
C1393 C1394 1.387 . S
C1393 H1396 0.950 . S
C1394 C1393 1.387 . S
C1394 C1397 1.387 . S
H1395 C1391 0.950 . S
H1396 C1393 0.950 . S
C1397 C1388 1.390 . S
C1397 H1390 0.950 . S
C1397 C1394 1.387 . S
C1398 C1399 1.387 . S
C1398 H1402 0.950 . S
C1398 C1407 1.390 . S
C1399 C1398 1.387 . S
C1399 C1401 1.387 . S
H1400 C1407 0.950 . S
C1401 C1399 1.387 . S
C1401 C1403 1.390 . S
C1401 H1405 0.950 . S
H1402 C1398 0.950 . S
C1403 C1401 1.390 . S
C1403 C1404 1.387 . S
C1403 H1406 0.950 . S
C1404 C1403 1.387 . S
C1404 C1407 1.387 . S
H1405 C1401 0.950 . S
H1406 C1403 0.950 . S
C1407 C1398 1.390 . S
C1407 H1400 0.950 . S
C1407 C1404 1.387 . S
C1408 C1409 1.387 . S
C1408 H1412 0.950 . S
C1408 C1417 1.390 . S
C1409 C1408 1.387 . S
C1409 C1411 1.387 . S
H1410 C1417 0.950 . S
C1411 C1409 1.387 . S
C1411 C1413 1.390 . S
C1411 H1415 0.950 . S
H1412 C1408 0.950 . S
C1413 C1411 1.390 . S
C1413 C1414 1.387 . S
C1413 H1416 0.950 . S
C1414 C1413 1.387 . S
C1414 C1417 1.387 . S
H1415 C1411 0.950 . S
H1416 C1413 0.950 . S
C1417 C1408 1.390 . S
C1417 H1410 0.950 . S
C1417 C1414 1.387 . S
C1418 C1419 1.387 . S
C1418 H1422 0.950 . S
C1418 C1427 1.390 . S
C1419 C1418 1.387 . S
C1419 C1421 1.387 . S
H1420 C1427 0.950 . S
C1421 C1419 1.387 . S
C1421 C1423 1.390 . S
C1421 H1425 0.950 . S
H1422 C1418 0.950 . S
C1423 C1421 1.390 . S
C1423 C1424 1.387 . S
C1423 H1426 0.950 . S
C1424 C1423 1.387 . S
C1424 C1427 1.387 . S
H1425 C1421 0.950 . S
H1426 C1423 0.950 . S
C1427 C1418 1.390 . S
C1427 H1420 0.950 . S
C1427 C1424 1.387 . S
C1428 C1429 1.387 . S
C1428 H1432 0.950 . S
C1428 C1437 1.390 . S
C1429 C1428 1.387 . S
C1429 C1431 1.387 . S
H1430 C1437 0.950 . S
C1431 C1429 1.387 . S
C1431 C1433 1.390 . S
C1431 H1435 0.950 . S
H1432 C1428 0.950 . S
C1433 C1431 1.390 . S
C1433 C1434 1.387 . S
C1433 H1436 0.950 . S
C1434 C1433 1.387 . S
C1434 C1437 1.387 . S
H1435 C1431 0.950 . S
H1436 C1433 0.950 . S
C1437 C1428 1.390 . S
C1437 H1430 0.950 . S
C1437 C1434 1.387 . S
C1438 C1439 1.387 . S
C1438 H1442 0.950 . S
C1438 C1447 1.390 . S
C1439 C1438 1.387 . S
C1439 C1441 1.387 . S
H1440 C1447 0.950 . S
C1441 C1439 1.387 . S
C1441 C1443 1.390 . S
C1441 H1445 0.950 . S
H1442 C1438 0.950 . S
C1443 C1441 1.390 . S
C1443 C1444 1.387 . S
C1443 H1446 0.950 . S
C1444 C1443 1.387 . S
C1444 C1447 1.387 . S
H1445 C1441 0.950 . S
H1446 C1443 0.950 . S
C1447 C1438 1.390 . S
C1447 H1440 0.950 . S
C1447 C1444 1.387 . S
C1448 C1449 1.387 . S
C1448 H1452 0.950 . S
C1448 C1457 1.390 . S
C1449 C1448 1.387 . S
C1449 C1451 1.387 . S
H1450 C1457 0.950 . S
C1451 C1449 1.387 . S
C1451 C1453 1.390 . S
C1451 H1455 0.950 1_556 S
H1452 C1448 0.950 . S
C1453 C1451 1.390 . S
C1453 C1454 1.387 . S
C1453 H1456 0.950 1_556 S
C1454 C1453 1.387 . S
C1454 C1457 1.387 . S
H1455 C1451 0.950 1_554 S
H1456 C1453 0.950 1_554 S
C1457 C1448 1.390 . S
C1457 H1450 0.950 . S
C1457 C1454 1.387 . S
C1458 C1459 1.387 . S
C1458 H1462 0.950 . S
C1458 C1467 1.390 . S
C1459 C1458 1.387 . S
C1459 C1461 1.387 . S
H1460 C1467 0.950 . S
C1461 C1459 1.387 . S
C1461 C1463 1.390 . S
C1461 H1465 0.950 . S
H1462 C1458 0.950 . S
C1463 C1461 1.390 . S
C1463 C1464 1.387 . S
C1463 H1466 0.950 . S
C1464 C1463 1.387 . S
C1464 C1467 1.387 . S
H1465 C1461 0.950 . S
H1466 C1463 0.950 . S
C1467 C1458 1.390 . S
C1467 H1460 0.950 . S
C1467 C1464 1.387 . S
C1468 C1469 1.387 . S
C1468 H1472 0.950 . S
C1468 C1477 1.390 . S
C1469 C1468 1.387 . S
C1469 C1471 1.387 . S
H1470 C1477 0.950 . S
C1471 C1469 1.387 . S
C1471 C1473 1.390 . S
C1471 H1475 0.950 1_554 S
H1472 C1468 0.950 . S
C1473 C1471 1.390 . S
C1473 C1474 1.387 . S
C1473 H1476 0.950 1_554 S
C1474 C1473 1.387 . S
C1474 C1477 1.387 . S
H1475 C1471 0.950 1_556 S
H1476 C1473 0.950 1_556 S
C1477 C1468 1.390 . S
C1477 H1470 0.950 . S
C1477 C1474 1.387 . S
C1478 C1479 1.387 . S
C1478 H1482 0.950 . S
C1478 C1487 1.390 . S
C1479 C1478 1.387 . S
C1479 C1481 1.387 . S
H1480 C1487 0.950 . S
C1481 C1479 1.387 . S
C1481 C1483 1.390 . S
C1481 H1485 0.950 . S
H1482 C1478 0.950 . S
C1483 C1481 1.390 . S
C1483 C1484 1.387 . S
C1483 H1486 0.950 . S
C1484 C1483 1.387 . S
C1484 C1487 1.387 . S
H1485 C1481 0.950 . S
H1486 C1483 0.950 . S
C1487 C1478 1.390 . S
C1487 H1480 0.950 . S
C1487 C1484 1.387 . S
C1488 C1489 1.387 . S
C1488 H1492 0.950 1_556 S
C1488 C1497 1.390 . S
C1489 C1488 1.387 . S
C1489 C1491 1.387 . S
H1490 C1497 0.950 1_554 S
C1491 C1489 1.387 . S
C1491 C1493 1.390 . S
C1491 H1495 0.950 . S
H1492 C1488 0.950 1_554 S
C1493 C1491 1.390 . S
C1493 C1494 1.387 . S
C1493 H1496 0.950 . S
C1494 C1493 1.387 . S
C1494 C1497 1.387 . S
H1495 C1491 0.950 . S
H1496 C1493 0.950 . S
C1497 C1488 1.390 . S
C1497 H1490 0.950 1_556 S
C1497 C1494 1.387 . S
C1498 C1499 1.387 . S
C1498 H1502 0.950 . S
C1498 C1507 1.390 . S
C1499 C1498 1.387 . S
C1499 C1501 1.387 . S
H1500 C1507 0.950 . S
C1501 C1499 1.387 . S
C1501 C1503 1.390 . S
C1501 H1505 0.950 . S
H1502 C1498 0.950 . S
C1503 C1501 1.390 . S
C1503 C1504 1.387 . S
C1503 H1506 0.950 . S
C1504 C1503 1.387 . S
C1504 C1507 1.387 . S
H1505 C1501 0.950 . S
H1506 C1503 0.950 . S
C1507 C1498 1.390 . S
C1507 H1500 0.950 . S
C1507 C1504 1.387 . S
C1508 C1509 1.387 . S
C1508 H1512 0.950 . S
C1508 C1517 1.390 . S
C1509 C1508 1.387 . S
C1509 C1511 1.387 . S
H1510 C1517 0.950 . S
C1511 C1509 1.387 . S
C1511 C1513 1.390 . S
C1511 H1515 0.950 1_554 S
H1512 C1508 0.950 . S
C1513 C1511 1.390 . S
C1513 C1514 1.387 . S
C1513 H1516 0.950 1_554 S
C1514 C1513 1.387 . S
C1514 C1517 1.387 . S
H1515 C1511 0.950 1_556 S
H1516 C1513 0.950 1_556 S
C1517 C1508 1.390 . S
C1517 H1510 0.950 . S
C1517 C1514 1.387 . S
C1518 C1519 1.387 . S
C1518 H1522 0.950 . S
C1518 C1527 1.390 . S
C1519 C1518 1.387 . S
C1519 C1521 1.387 . S
H1520 C1527 0.950 . S
C1521 C1519 1.387 . S
C1521 C1523 1.390 . S
C1521 H1525 0.950 . S
H1522 C1518 0.950 . S
C1523 C1521 1.390 . S
C1523 C1524 1.387 . S
C1523 H1526 0.950 . S
C1524 C1523 1.387 . S
C1524 C1527 1.387 . S
H1525 C1521 0.950 . S
H1526 C1523 0.950 . S
C1527 C1518 1.390 . S
C1527 H1520 0.950 . S
C1527 C1524 1.387 . S
C1528 C1529 1.387 . S
C1528 H1532 0.950 . S
C1528 C1537 1.390 . S
C1529 C1528 1.387 . S
C1529 C1531 1.387 . S
H1530 C1537 0.950 . S
C1531 C1529 1.387 . S
C1531 C1533 1.390 . S
C1531 H1535 0.950 . S
H1532 C1528 0.950 . S
C1533 C1531 1.390 . S
C1533 C1534 1.387 . S
C1533 H1536 0.950 . S
C1534 C1533 1.387 . S
C1534 C1537 1.387 . S
H1535 C1531 0.950 . S
H1536 C1533 0.950 . S
C1537 C1528 1.390 . S
C1537 H1530 0.950 . S
C1537 C1534 1.387 . S
C1538 C1539 1.387 . S
C1538 H1542 0.950 . S
C1538 C1547 1.390 . S
C1539 C1538 1.387 . S
C1539 C1541 1.387 . S
H1540 C1547 0.950 . S
C1541 C1539 1.387 . S
C1541 C1543 1.390 . S
C1541 H1545 0.950 . S
H1542 C1538 0.950 . S
C1543 C1541 1.390 . S
C1543 C1544 1.387 . S
C1543 H1546 0.950 . S
C1544 C1543 1.387 . S
C1544 C1547 1.387 . S
H1545 C1541 0.950 . S
H1546 C1543 0.950 . S
C1547 C1538 1.390 . S
C1547 H1540 0.950 . S
C1547 C1544 1.387 . S
C1548 C1549 1.387 . S
C1548 H1552 0.950 . S
C1548 C1557 1.390 . S
C1549 C1548 1.387 . S
C1549 C1551 1.387 . S
H1550 C1557 0.950 . S
C1551 C1549 1.387 . S
C1551 C1553 1.390 . S
C1551 H1555 0.950 . S
H1552 C1548 0.950 . S
C1553 C1551 1.390 . S
C1553 C1554 1.387 . S
C1553 H1556 0.950 . S
C1554 C1553 1.387 . S
C1554 C1557 1.387 . S
H1555 C1551 0.950 . S
H1556 C1553 0.950 . S
C1557 C1548 1.390 . S
C1557 H1550 0.950 . S
C1557 C1554 1.387 . S
C1558 C1559 1.387 . S
C1558 H1562 0.950 . S
C1558 C1567 1.390 . S
C1559 C1558 1.387 . S
C1559 C1561 1.387 . S
H1560 C1567 0.950 . S
C1561 C1559 1.387 . S
C1561 C1563 1.390 . S
C1561 H1565 0.950 . S
H1562 C1558 0.950 . S
C1563 C1561 1.390 . S
C1563 C1564 1.387 . S
C1563 H1566 0.950 . S
C1564 C1563 1.387 . S
C1564 C1567 1.387 . S
H1565 C1561 0.950 . S
H1566 C1563 0.950 . S
C1567 C1558 1.390 . S
C1567 H1560 0.950 . S
C1567 C1564 1.387 . S
C1568 C1569 1.387 1_655 S
C1568 H1572 0.950 . S
C1568 C1577 1.390 . S
C1569 C1568 1.387 1_455 S
C1569 C1571 1.387 . S
H1570 C1577 0.950 . S
C1571 C1569 1.387 . S
C1571 C1573 1.390 . S
C1571 H1575 0.950 . S
H1572 C1568 0.950 . S
C1573 C1571 1.390 . S
C1573 C1574 1.387 1_455 S
C1573 H1576 0.950 . S
C1574 C1573 1.387 1_655 S
C1574 C1577 1.387 . S
H1575 C1571 0.950 . S
H1576 C1573 0.950 . S
C1577 C1568 1.390 . S
C1577 H1570 0.950 . S
C1577 C1574 1.387 . S
C1578 C1579 1.387 . S
C1578 H1582 0.950 . S
C1578 C1587 1.390 . S
C1579 C1578 1.387 . S
C1579 C1581 1.387 . S
H1580 C1587 0.950 . S
C1581 C1579 1.387 . S
C1581 C1583 1.390 . S
C1581 H1585 0.950 . S
H1582 C1578 0.950 . S
C1583 C1581 1.390 . S
C1583 C1584 1.387 . S
C1583 H1586 0.950 . S
C1584 C1583 1.387 . S
C1584 C1587 1.387 . S
H1585 C1581 0.950 . S
H1586 C1583 0.950 . S
C1587 C1578 1.390 . S
C1587 H1580 0.950 . S
C1587 C1584 1.387 . S
C1588 C1589 1.387 1_455 S
C1588 H1592 0.950 . S
C1588 C1597 1.390 . S
C1589 C1588 1.387 1_655 S
C1589 C1591 1.387 . S
H1590 C1597 0.950 . S
C1591 C1589 1.387 . S
C1591 C1593 1.390 . S
C1591 H1595 0.950 . S
H1592 C1588 0.950 . S
C1593 C1591 1.390 . S
C1593 C1594 1.387 1_655 S
C1593 H1596 0.950 . S
C1594 C1593 1.387 1_455 S
C1594 C1597 1.387 . S
H1595 C1591 0.950 . S
H1596 C1593 0.950 . S
C1597 C1588 1.390 . S
C1597 H1590 0.950 . S
C1597 C1594 1.387 . S
C1598 C1599 1.387 . S
C1598 H1602 0.950 . S
C1598 C1607 1.390 . S
C1599 C1598 1.387 . S
C1599 C1601 1.387 . S
H1600 C1607 0.950 . S
C1601 C1599 1.387 . S
C1601 C1603 1.390 . S
C1601 H1605 0.950 . S
H1602 C1598 0.950 . S
C1603 C1601 1.390 . S
C1603 C1604 1.387 . S
C1603 H1606 0.950 . S
C1604 C1603 1.387 . S
C1604 C1607 1.387 . S
H1605 C1601 0.950 . S
H1606 C1603 0.950 . S
C1607 C1598 1.390 . S
C1607 H1600 0.950 . S
C1607 C1604 1.387 . S
C1608 C1609 1.387 1_655 S
C1608 H1612 0.950 . S
C1608 C1617 1.390 . S
C1609 C1608 1.387 1_455 S
C1609 C1611 1.387 . S
H1610 C1617 0.950 . S
C1611 C1609 1.387 . S
C1611 C1613 1.390 . S
C1611 H1615 0.950 . S
H1612 C1608 0.950 . S
C1613 C1611 1.390 . S
C1613 C1614 1.387 1_455 S
C1613 H1616 0.950 . S
C1614 C1613 1.387 1_655 S
C1614 C1617 1.387 . S
H1615 C1611 0.950 . S
H1616 C1613 0.950 . S
C1617 C1608 1.390 . S
C1617 H1610 0.950 . S
C1617 C1614 1.387 . S
C1618 C1619 1.387 . S
C1618 H1622 0.950 . S
C1618 C1627 1.390 . S
C1619 C1618 1.387 . S
C1619 C1621 1.387 . S
H1620 C1627 0.950 . S
C1621 C1619 1.387 . S
C1621 C1623 1.390 . S
C1621 H1625 0.950 . S
H1622 C1618 0.950 . S
C1623 C1621 1.390 . S
C1623 C1624 1.387 . S
C1623 H1626 0.950 . S
C1624 C1623 1.387 . S
C1624 C1627 1.387 . S
H1625 C1621 0.950 . S
H1626 C1623 0.950 . S
C1627 C1618 1.390 . S
C1627 H1620 0.950 . S
C1627 C1624 1.387 . S
C1628 C1629 1.387 1_655 S
C1628 H1632 0.950 . S
C1628 C1637 1.390 . S
C1629 C1628 1.387 1_455 S
C1629 C1631 1.387 . S
H1630 C1637 0.950 . S
C1631 C1629 1.387 . S
C1631 C1633 1.390 . S
C1631 H1635 0.950 . S
H1632 C1628 0.950 . S
C1633 C1631 1.390 . S
C1633 C1634 1.387 1_455 S
C1633 H1636 0.950 . S
C1634 C1633 1.387 1_655 S
C1634 C1637 1.387 . S
H1635 C1631 0.950 . S
H1636 C1633 0.950 . S
C1637 C1628 1.390 . S
C1637 H1630 0.950 . S
C1637 C1634 1.387 . S
C1638 C1639 1.387 . S
C1638 H1642 0.950 . S
C1638 C1647 1.390 . S
C1639 C1638 1.387 . S
C1639 C1641 1.387 . S
H1640 C1647 0.950 . S
C1641 C1639 1.387 . S
C1641 C1643 1.390 . S
C1641 H1645 0.950 . S
H1642 C1638 0.950 . S
C1643 C1641 1.390 . S
C1643 C1644 1.387 . S
C1643 H1646 0.950 . S
C1644 C1643 1.387 . S
C1644 C1647 1.387 . S
H1645 C1641 0.950 . S
H1646 C1643 0.950 . S
C1647 C1638 1.390 . S
C1647 H1640 0.950 . S
C1647 C1644 1.387 . S
C1648 C1649 1.387 . S
C1648 H1652 0.950 . S
C1648 C1657 1.390 . S
C1649 C1648 1.387 . S
C1649 C1651 1.387 1_655 S
H1650 C1657 0.950 . S
C1651 C1649 1.387 1_455 S
C1651 C1653 1.390 . S
C1651 H1655 0.950 . S
H1652 C1648 0.950 . S
C1653 C1651 1.390 . S
C1653 C1654 1.387 . S
C1653 H1656 0.950 . S
C1654 C1653 1.387 . S
C1654 C1657 1.387 1_455 S
H1655 C1651 0.950 . S
H1656 C1653 0.950 . S
C1657 C1648 1.390 . S
C1657 H1650 0.950 . S
C1657 C1654 1.387 1_655 S
C1658 C1659 1.387 . S
C1658 H1662 0.950 . S
C1658 C1667 1.390 . S
C1659 C1658 1.387 . S
C1659 C1661 1.387 . S
H1660 C1667 0.950 . S
C1661 C1659 1.387 . S
C1661 C1663 1.390 . S
C1661 H1665 0.950 . S
H1662 C1658 0.950 . S
C1663 C1661 1.390 . S
C1663 C1664 1.387 . S
C1663 H1666 0.950 . S
C1664 C1663 1.387 . S
C1664 C1667 1.387 . S
H1665 C1661 0.950 . S
H1666 C1663 0.950 . S
C1667 C1658 1.390 . S
C1667 H1660 0.950 . S
C1667 C1664 1.387 . S
C1668 C1669 1.387 1_455 S
C1668 H1672 0.950 . S
C1668 C1677 1.390 . S
C1669 C1668 1.387 1_655 S
C1669 C1671 1.387 . S
H1670 C1677 0.950 . S
C1671 C1669 1.387 . S
C1671 C1673 1.390 . S
C1671 H1675 0.950 . S
H1672 C1668 0.950 . S
C1673 C1671 1.390 . S
C1673 C1674 1.387 1_655 S
C1673 H1676 0.950 . S
C1674 C1673 1.387 1_455 S
C1674 C1677 1.387 . S
H1675 C1671 0.950 . S
H1676 C1673 0.950 . S
C1677 C1668 1.390 . S
C1677 H1670 0.950 . S
C1677 C1674 1.387 . S
C1678 C1679 1.387 . S
C1678 H1682 0.950 . S
C1678 C1687 1.390 . S
C1679 C1678 1.387 . S
C1679 C1681 1.387 . S
H1680 C1687 0.950 . S
C1681 C1679 1.387 . S
C1681 C1683 1.390 . S
C1681 H1685 0.950 . S
H1682 C1678 0.950 . S
C1683 C1681 1.390 . S
C1683 C1684 1.387 . S
C1683 H1686 0.950 . S
C1684 C1683 1.387 . S
C1684 C1687 1.387 . S
H1685 C1681 0.950 . S
H1686 C1683 0.950 . S
C1687 C1678 1.390 . S
C1687 H1680 0.950 . S
C1687 C1684 1.387 . S
C1688 C1689 1.387 . S
C1688 H1692 0.950 . S
C1688 C1697 1.390 . S
C1689 C1688 1.387 . S
C1689 C1691 1.387 1_655 S
H1690 C1697 0.950 . S
C1691 C1689 1.387 1_455 S
C1691 C1693 1.390 . S
C1691 H1695 0.950 . S
H1692 C1688 0.950 . S
C1693 C1691 1.390 . S
C1693 C1694 1.387 . S
C1693 H1696 0.950 . S
C1694 C1693 1.387 . S
C1694 C1697 1.387 1_455 S
H1695 C1691 0.950 . S
H1696 C1693 0.950 . S
C1697 C1688 1.390 . S
C1697 H1690 0.950 . S
C1697 C1694 1.387 1_655 S
C1698 C1699 1.387 . S
C1698 H1702 0.950 . S
C1698 C1707 1.390 . S
C1699 C1698 1.387 . S
C1699 C1701 1.387 . S
H1700 C1707 0.950 . S
C1701 C1699 1.387 . S
C1701 C1703 1.390 . S
C1701 H1705 0.950 . S
H1702 C1698 0.950 . S
C1703 C1701 1.390 . S
C1703 C1704 1.387 . S
C1703 H1706 0.950 . S
C1704 C1703 1.387 . S
C1704 C1707 1.387 . S
H1705 C1701 0.950 . S
H1706 C1703 0.950 . S
C1707 C1698 1.390 . S
C1707 H1700 0.950 . S
C1707 C1704 1.387 . S
C1708 C1709 1.387 . S
C1708 H1712 0.950 . S
C1708 C1717 1.390 . S
C1709 C1708 1.387 . S
C1709 C1711 1.387 1_455 S
H1710 C1717 0.950 . S
C1711 C1709 1.387 1_655 S
C1711 C1713 1.390 . S
C1711 H1715 0.950 . S
H1712 C1708 0.950 . S
C1713 C1711 1.390 . S
C1713 C1714 1.387 . S
C1713 H1716 0.950 . S
C1714 C1713 1.387 . S
C1714 C1717 1.387 1_655 S
H1715 C1711 0.950 . S
H1716 C1713 0.950 . S
C1717 C1708 1.390 . S
C1717 H1710 0.950 . S
C1717 C1714 1.387 1_455 S
C1718 C1719 1.387 . S
C1718 H1722 0.950 . S
C1718 C1727 1.390 . S
C1719 C1718 1.387 . S
C1719 C1721 1.387 . S
H1720 C1727 0.950 . S
C1721 C1719 1.387 . S
C1721 C1723 1.390 . S
C1721 H1725 0.950 . S
H1722 C1718 0.950 . S
C1723 C1721 1.390 . S
C1723 C1724 1.387 . S
C1723 H1726 0.950 . S
C1724 C1723 1.387 . S
C1724 C1727 1.387 . S
H1725 C1721 0.950 . S
H1726 C1723 0.950 . S
C1727 C1718 1.390 . S
C1727 H1720 0.950 . S
C1727 C1724 1.387 . S
C1728 C1729 1.387 . S
C1728 H1732 0.950 . S
C1728 C1737 1.390 . S
C1729 C1728 1.387 . S
C1729 C1731 1.387 . S
H1730 C1737 0.950 . S
C1731 C1729 1.387 . S
C1731 C1733 1.390 . S
C1731 H1735 0.950 . S
H1732 C1728 0.950 . S
C1733 C1731 1.390 . S
C1733 C1734 1.387 . S
C1733 H1736 0.950 . S
C1734 C1733 1.387 . S
C1734 C1737 1.387 . S
H1735 C1731 0.950 . S
H1736 C1733 0.950 . S
C1737 C1728 1.390 . S
C1737 H1730 0.950 . S
C1737 C1734 1.387 . S
C1738 C1739 1.387 . S
C1738 H1742 0.950 . S
C1738 C1747 1.390 . S
C1739 C1738 1.387 . S
C1739 C1741 1.387 . S
H1740 C1747 0.950 . S
C1741 C1739 1.387 . S
C1741 C1743 1.390 . S
C1741 H1745 0.950 . S
H1742 C1738 0.950 . S
C1743 C1741 1.390 . S
C1743 C1744 1.387 . S
C1743 H1746 0.950 . S
C1744 C1743 1.387 . S
C1744 C1747 1.387 . S
H1745 C1741 0.950 . S
H1746 C1743 0.950 . S
C1747 C1738 1.390 . S
C1747 H1740 0.950 . S
C1747 C1744 1.387 . S
C1748 C1749 1.387 . S
C1748 H1752 0.950 . S
C1748 C1757 1.390 . S
C1749 C1748 1.387 . S
C1749 C1751 1.387 . S
H1750 C1757 0.950 . S
C1751 C1749 1.387 . S
C1751 C1753 1.390 . S
C1751 H1755 0.950 . S
H1752 C1748 0.950 . S
C1753 C1751 1.390 . S
C1753 C1754 1.387 . S
C1753 H1756 0.950 . S
C1754 C1753 1.387 . S
C1754 C1757 1.387 . S
H1755 C1751 0.950 . S
H1756 C1753 0.950 . S
C1757 C1748 1.390 . S
C1757 H1750 0.950 . S
C1757 C1754 1.387 . S
C1758 C1759 1.387 . S
C1758 H1762 0.950 . S
C1758 C1767 1.390 . S
C1759 C1758 1.387 . S
C1759 C1761 1.387 . S
H1760 C1767 0.950 . S
C1761 C1759 1.387 . S
C1761 C1763 1.390 . S
C1761 H1765 0.950 . S
H1762 C1758 0.950 . S
C1763 C1761 1.390 . S
C1763 C1764 1.387 . S
C1763 H1766 0.950 . S
C1764 C1763 1.387 . S
C1764 C1767 1.387 . S
H1765 C1761 0.950 . S
H1766 C1763 0.950 . S
C1767 C1758 1.390 . S
C1767 H1760 0.950 . S
C1767 C1764 1.387 . S
C1768 C1769 1.387 . S
C1768 H1772 0.950 . S
C1768 C1777 1.390 . S
C1769 C1768 1.387 . S
C1769 C1771 1.387 . S
H1770 C1777 0.950 . S
C1771 C1769 1.387 . S
C1771 C1773 1.390 . S
C1771 H1775 0.950 . S
H1772 C1768 0.950 . S
C1773 C1771 1.390 . S
C1773 C1774 1.387 . S
C1773 H1776 0.950 . S
C1774 C1773 1.387 . S
C1774 C1777 1.387 . S
H1775 C1771 0.950 . S
H1776 C1773 0.950 . S
C1777 C1768 1.390 . S
C1777 H1770 0.950 . S
C1777 C1774 1.387 . S
C1778 C1779 1.387 . S
C1778 H1782 0.950 . S
C1778 C1787 1.390 . S
C1779 C1778 1.387 . S
C1779 C1781 1.387 . S
H1780 C1787 0.950 . S
C1781 C1779 1.387 . S
C1781 C1783 1.390 . S
C1781 H1785 0.950 . S
H1782 C1778 0.950 . S
C1783 C1781 1.390 . S
C1783 C1784 1.387 . S
C1783 H1786 0.950 . S
C1784 C1783 1.387 . S
C1784 C1787 1.387 . S
H1785 C1781 0.950 . S
H1786 C1783 0.950 . S
C1787 C1778 1.390 . S
C1787 H1780 0.950 . S
C1787 C1784 1.387 . S
C1788 C1789 1.387 . S
C1788 H1792 0.950 . S
C1788 C1797 1.390 . S
C1789 C1788 1.387 . S
C1789 C1791 1.387 . S
H1790 C1797 0.950 . S
C1791 C1789 1.387 . S
C1791 C1793 1.390 . S
C1791 H1795 0.950 . S
H1792 C1788 0.950 . S
C1793 C1791 1.390 . S
C1793 C1794 1.387 . S
C1793 H1796 0.950 . S
C1794 C1793 1.387 . S
C1794 C1797 1.387 . S
H1795 C1791 0.950 . S
H1796 C1793 0.950 . S
C1797 C1788 1.390 . S
C1797 H1790 0.950 . S
C1797 C1794 1.387 . S
C1798 C1799 1.387 . S
C1798 H1802 0.950 . S
C1798 C1807 1.390 . S
C1799 C1798 1.387 . S
C1799 C1801 1.387 . S
H1800 C1807 0.950 . S
C1801 C1799 1.387 . S
C1801 C1803 1.390 . S
C1801 H1805 0.950 . S
H1802 C1798 0.950 . S
C1803 C1801 1.390 . S
C1803 C1804 1.387 . S
C1803 H1806 0.950 . S
C1804 C1803 1.387 . S
C1804 C1807 1.387 . S
H1805 C1801 0.950 . S
H1806 C1803 0.950 . S
C1807 C1798 1.390 . S
C1807 H1800 0.950 . S
C1807 C1804 1.387 . S
C1808 C1809 1.387 . S
C1808 H1812 0.950 . S
C1808 C1817 1.390 . S
C1809 C1808 1.387 . S
C1809 C1811 1.387 . S
H1810 C1817 0.950 . S
C1811 C1809 1.387 . S
C1811 C1813 1.390 . S
C1811 H1815 0.950 . S
H1812 C1808 0.950 . S
C1813 C1811 1.390 . S
C1813 C1814 1.387 . S
C1813 H1816 0.950 . S
C1814 C1813 1.387 . S
C1814 C1817 1.387 . S
H1815 C1811 0.950 . S
H1816 C1813 0.950 . S
C1817 C1808 1.390 . S
C1817 H1810 0.950 . S
C1817 C1814 1.387 . S
C1818 C1819 1.387 . S
C1818 H1822 0.950 . S
C1818 C1827 1.390 . S
C1819 C1818 1.387 . S
C1819 C1821 1.387 . S
H1820 C1827 0.950 . S
C1821 C1819 1.387 . S
C1821 C1823 1.390 . S
C1821 H1825 0.950 . S
H1822 C1818 0.950 . S
C1823 C1821 1.390 . S
C1823 C1824 1.387 . S
C1823 H1826 0.950 . S
C1824 C1823 1.387 . S
C1824 C1827 1.387 . S
H1825 C1821 0.950 . S
H1826 C1823 0.950 . S
C1827 C1818 1.390 . S
C1827 H1820 0.950 . S
C1827 C1824 1.387 . S
C1828 C1829 1.387 . S
C1828 H1832 0.950 . S
C1828 C1837 1.390 . S
C1829 C1828 1.387 . S
C1829 C1831 1.387 . S
H1830 C1837 0.950 . S
C1831 C1829 1.387 . S
C1831 C1833 1.390 . S
C1831 H1835 0.950 . S
H1832 C1828 0.950 . S
C1833 C1831 1.390 . S
C1833 C1834 1.387 . S
C1833 H1836 0.950 . S
C1834 C1833 1.387 . S
C1834 C1837 1.387 . S
H1835 C1831 0.950 . S
H1836 C1833 0.950 . S
C1837 C1828 1.390 . S
C1837 H1830 0.950 . S
C1837 C1834 1.387 . S
C1838 C1839 1.387 . S
C1838 H1842 0.950 . S
C1838 C1847 1.390 . S
C1839 C1838 1.387 . S
C1839 C1841 1.387 . S
H1840 C1847 0.950 . S
C1841 C1839 1.387 . S
C1841 C1843 1.390 . S
C1841 H1845 0.950 . S
H1842 C1838 0.950 . S
C1843 C1841 1.390 . S
C1843 C1844 1.387 . S
C1843 H1846 0.950 . S
C1844 C1843 1.387 . S
C1844 C1847 1.387 . S
H1845 C1841 0.950 . S
H1846 C1843 0.950 . S
C1847 C1838 1.390 . S
C1847 H1840 0.950 . S
C1847 C1844 1.387 . S
C1848 C1849 1.387 . S
C1848 H1852 0.950 . S
C1848 C1857 1.390 . S
C1849 C1848 1.387 . S
C1849 C1851 1.387 . S
H1850 C1857 0.950 . S
C1851 C1849 1.387 . S
C1851 C1853 1.390 . S
C1851 H1855 0.950 . S
H1852 C1848 0.950 . S
C1853 C1851 1.390 . S
C1853 C1854 1.387 . S
C1853 H1856 0.950 . S
C1854 C1853 1.387 . S
C1854 C1857 1.387 . S
H1855 C1851 0.950 . S
H1856 C1853 0.950 . S
C1857 C1848 1.390 . S
C1857 H1850 0.950 . S
C1857 C1854 1.387 . S
C1858 C1859 1.387 . S
C1858 H1862 0.950 . S
C1858 C1867 1.390 . S
C1859 C1858 1.387 . S
C1859 C1861 1.387 . S
H1860 C1867 0.950 . S
C1861 C1859 1.387 . S
C1861 C1863 1.390 . S
C1861 H1865 0.950 . S
H1862 C1858 0.950 . S
C1863 C1861 1.390 . S
C1863 C1864 1.387 . S
C1863 H1866 0.950 . S
C1864 C1863 1.387 . S
C1864 C1867 1.387 . S
H1865 C1861 0.950 . S
H1866 C1863 0.950 . S
C1867 C1858 1.390 . S
C1867 H1860 0.950 . S
C1867 C1864 1.387 . S
C1868 C1869 1.387 . S
C1868 H1872 0.950 . S
C1868 C1877 1.390 . S
C1869 C1868 1.387 . S
C1869 C1871 1.387 . S
H1870 C1877 0.950 . S
C1871 C1869 1.387 . S
C1871 C1873 1.390 . S
C1871 H1875 0.950 . S
H1872 C1868 0.950 . S
C1873 C1871 1.390 . S
C1873 C1874 1.387 . S
C1873 H1876 0.950 . S
C1874 C1873 1.387 . S
C1874 C1877 1.387 . S
H1875 C1871 0.950 . S
H1876 C1873 0.950 . S
C1877 C1868 1.390 . S
C1877 H1870 0.950 . S
C1877 C1874 1.387 . S
C1878 C1879 1.387 . S
C1878 H1882 0.950 . S
C1878 C1887 1.390 . S
C1879 C1878 1.387 . S
C1879 C1881 1.387 . S
H1880 C1887 0.950 . S
C1881 C1879 1.387 . S
C1881 C1883 1.390 . S
C1881 H1885 0.950 . S
H1882 C1878 0.950 . S
C1883 C1881 1.390 . S
C1883 C1884 1.387 . S
C1883 H1886 0.950 . S
C1884 C1883 1.387 . S
C1884 C1887 1.387 . S
H1885 C1881 0.950 . S
H1886 C1883 0.950 . S
C1887 C1878 1.390 . S
C1887 H1880 0.950 . S
C1887 C1884 1.387 . S
C1089 C417 0.700 . S
C1094 C9 0.700 . S
C1099 C723 0.695 . S
C1104 C43 0.695 . S
C1109 C213 0.697 . S
C1114 C77 0.697 . S
C1119 C1063 0.695 . S
C1124 C111 0.695 . S
C1129 C281 0.699 . S
C1134 C145 0.699 . S
C1139 C587 0.700 . S
C1144 C179 0.700 . S
C1149 C247 0.700 . S
C1154 C927 0.700 . S
C1159 C315 0.699 . S
C1164 C995 0.699 . S
C1169 C485 0.699 . S
C1174 C349 0.699 . S
C1179 C383 0.695 . S
C1184 C791 0.695 . S
C1189 C859 0.695 . S
C1194 C451 0.695 . S
C1199 C519 0.699 . S
C1204 C655 0.699 . S
C1209 C961 0.695 . S
C1214 C553 0.695 . S
C1219 C757 0.698 . S
C1224 C621 0.698 . S
C1229 C689 0.695 . S
C1234 C825 0.695 . S
C1239 C1029 0.700 . S
C1244 C893 0.700 . S
C1249 C5 0.772 . S
C1254 C73 0.772 . S
C1259 C39 0.772 . S
C1264 C107 0.772 . S
C1269 C209 0.782 . S
C1274 C141 0.782 . S
C1279 C243 0.782 . S
C1284 C175 0.782 . S
C1289 C277 0.772 . S
C1294 C345 0.772 . S
C1299 C379 0.772 . S
C1304 C311 0.772 . S
C1309 C481 0.772 . S
C1314 C413 0.772 . S
C1319 C515 0.772 . S
C1324 C447 0.772 . S
C1329 C549 0.772 . S
C1334 C617 0.772 . S
C1339 C651 0.782 . S
C1344 C583 0.782 . S
C1349 C753 0.772 . S
C1354 C685 0.772 . S
C1359 C787 0.782 . S
C1364 C719 0.782 . S
C1369 C821 0.772 . S
C1374 C889 0.772 . S
C1379 C923 0.782 . S
C1384 C855 0.782 . S
C1389 C957 0.772 . S
C1394 C1025 0.772 . S
C1399 C1059 0.782 . S
C1404 C991 0.782 . S
C1409 C33 1.518 . S
C1414 C67 1.518 . S
C1419 C135 1.518 . S
C1424 C101 1.518 . S
C1429 C203 1.518 . S
C1434 C169 1.518 . S
C1439 C237 1.517 . S
C1444 C271 1.517 . S
C1449 C305 1.517 . S
C1454 C339 1.517 . S
C1459 C373 1.518 . S
C1464 C407 1.518 . S
C1469 C475 1.518 . S
C1474 C441 1.518 . S
C1479 C543 1.517 . S
C1484 C509 1.517 . S
C1489 C577 1.518 . S
C1494 C611 1.518 . S
C1499 C679 1.517 . S
C1504 C645 1.517 . S
C1509 C747 1.518 . S
C1514 C713 1.518 . S
C1519 C815 1.518 . S
C1524 C781 1.518 . S
C1529 C883 1.518 . S
C1534 C849 1.518 . S
C1539 C951 1.518 . S
C1544 C917 1.518 . S
C1549 C985 1.517 . S
C1554 C1019 1.517 . S
C1559 C1087 1.518 . S
C1564 C1053 1.518 . S
C1569 C2 2.394 . S
C1574 C224 2.388 1_545 S
C1579 C1074 2.387 . S
C1584 C36 2.393 . S
C1589 C428 2.386 . S
C1594 C70 2.393 . S
C1599 C104 2.394 . S
C1604 C734 2.388 1_545 S
C1609 C88 2.387 1_565 S
C1614 C138 2.394 . S
C1619 C938 2.386 . S
C1624 C172 2.393 . S
C1629 C292 2.388 . S
C1634 C206 2.394 . S
C1639 C598 2.388 1_565 S
C1644 C240 2.394 . S
C1649 C496 2.387 . S
C1654 C274 2.393 . S
C1659 C802 2.386 . S
C1664 C308 2.393 . S
C1669 C156 2.386 . S
C1674 C342 2.393 . S
C1679 C1006 2.387 . S
C1684 C376 2.394 . S
C1689 C410 2.394 . S
C1694 C360 2.387 . S
C1699 C666 2.388 . S
C1704 C444 2.394 . S
C1709 C20 2.386 . S
C1714 C478 2.393 . S
C1719 C870 2.387 . S
C1724 C512 2.394 . S
C1729 C768 2.386 1_545 S
C1734 C546 2.393 . S
C1739 C580 2.393 . S
C1744 C530 2.386 . S
C1749 C972 2.386 . S
C1754 C614 2.393 . S
C1759 C648 2.394 . S
C1764 C190 2.388 1_545 S
C1769 C632 2.387 1_565 S
C1774 C682 2.394 . S
C1779 C716 2.393 . S
C1784 C394 2.387 . S
C1789 C750 2.394 . S
C1794 C836 2.388 . S
C1799 C784 2.393 . S
C1804 C54 2.386 1_565 S
C1809 C818 2.394 . S
C1814 C1040 2.388 . S
C1819 C852 2.394 . S
C1824 C258 2.388 . S
C1829 C886 2.394 . S
C1834 C700 2.388 . S
C1839 C920 2.393 . S
C1844 C462 2.386 . S
C1849 C954 2.393 . S
C1854 C904 2.386 . S
C1859 C122 2.386 . S
C1864 C988 2.393 . S
C1869 C1022 2.393 . S
C1874 C564 2.386 . S
C1879 C326 2.386 . S
C1884 C1056 2.393 . S
