# Generated by pormake.
# Topology wjg, (4)-cn, num edge types: 1
# Building blocks:
#     Node 0, Type 0, BuildingBlock: AZAVOO_clean_sbu_0, # of connection points: 4
#     Node 1, Type 0, BuildingBlock: AZAVOO_clean_sbu_0, # of connection points: 4
#     Node 2, Type 0, BuildingBlock: AZAVOO_clean_sbu_0, # of connection points: 4
#     Node 3, Type 0, BuildingBlock: AZAVOO_clean_sbu_0, # of connection points: 4
#     Node 4, Type 0, BuildingBlock: AZAVOO_clean_sbu_0, # of connection points: 4
#     Node 5, Type 0, BuildingBlock: AZAVOO_clean_sbu_0, # of connection points: 4
#     Node 6, Type 0, BuildingBlock: AZAVOO_clean_sbu_0, # of connection points: 4
#     Node 7, Type 0, BuildingBlock: AZAVOO_clean_sbu_0, # of connection points: 4
#     Node 8, Type 0, BuildingBlock: AZAVOO_clean_sbu_0, # of connection points: 4
#     Node 9, Type 0, BuildingBlock: AZAVOO_clean_sbu_0, # of connection points: 4
#     Node 10, Type 0, BuildingBlock: AZAVOO_clean_sbu_0, # of connection points: 4
#     Node 11, Type 0, BuildingBlock: AZAVOO_clean_sbu_0, # of connection points: 4
#     Edge 12, Type (0, 0), BuildingBlock: KIFKEQ_clean_linker_1, # of connection points: 2
#     Edge 13, Type (0, 0), BuildingBlock: KIFKEQ_clean_linker_1, # of connection points: 2
#     Edge 14, Type (0, 0), BuildingBlock: KIFKEQ_clean_linker_1, # of connection points: 2
#     Edge 15, Type (0, 0), BuildingBlock: KIFKEQ_clean_linker_1, # of connection points: 2
#     Edge 16, Type (0, 0), BuildingBlock: KIFKEQ_clean_linker_1, # of connection points: 2
#     Edge 17, Type (0, 0), BuildingBlock: KIFKEQ_clean_linker_1, # of connection points: 2
#     Edge 18, Type (0, 0), BuildingBlock: KIFKEQ_clean_linker_1, # of connection points: 2
#     Edge 19, Type (0, 0), BuildingBlock: KIFKEQ_clean_linker_1, # of connection points: 2
#     Edge 20, Type (0, 0), BuildingBlock: KIFKEQ_clean_linker_1, # of connection points: 2
#     Edge 21, Type (0, 0), BuildingBlock: KIFKEQ_clean_linker_1, # of connection points: 2
#     Edge 22, Type (0, 0), BuildingBlock: KIFKEQ_clean_linker_1, # of connection points: 2
#     Edge 23, Type (0, 0), BuildingBlock: KIFKEQ_clean_linker_1, # of connection points: 2
#     Edge 24, Type (0, 0), BuildingBlock: KIFKEQ_clean_linker_1, # of connection points: 2
#     Edge 25, Type (0, 0), BuildingBlock: KIFKEQ_clean_linker_1, # of connection points: 2
#     Edge 26, Type (0, 0), BuildingBlock: KIFKEQ_clean_linker_1, # of connection points: 2
#     Edge 27, Type (0, 0), BuildingBlock: KIFKEQ_clean_linker_1, # of connection points: 2
#     Edge 28, Type (0, 0), BuildingBlock: KIFKEQ_clean_linker_1, # of connection points: 2
#     Edge 29, Type (0, 0), BuildingBlock: KIFKEQ_clean_linker_1, # of connection points: 2
#     Edge 30, Type (0, 0), BuildingBlock: KIFKEQ_clean_linker_1, # of connection points: 2
#     Edge 31, Type (0, 0), BuildingBlock: KIFKEQ_clean_linker_1, # of connection points: 2
#     Edge 32, Type (0, 0), BuildingBlock: KIFKEQ_clean_linker_1, # of connection points: 2
#     Edge 33, Type (0, 0), BuildingBlock: KIFKEQ_clean_linker_1, # of connection points: 2
#     Edge 34, Type (0, 0), BuildingBlock: KIFKEQ_clean_linker_1, # of connection points: 2
#     Edge 35, Type (0, 0), BuildingBlock: KIFKEQ_clean_linker_1, # of connection points: 2
# Relax obj value: 0.276
# Max RMSD: 0.124
# Mean RMSD: 0.124
data_MOF--net-wjg--node1-AZAVOO_clean_sbu_0--edge1-KIFKEQ_clean_linker_1
_symmetry_space_group_name_H-M    P1
_symmetry_Int_Tables_number       1
_symmetry_cell_setting            triclinic
loop_
_symmetry_equiv_pos_as_xyz
'x, y, z'
_cell_length_a     34.989858
_cell_length_b     34.987866
_cell_length_c     37.80051
_cell_angle_alpha  90.113141
_cell_angle_beta   89.897291
_cell_angle_gamma 119.98203
loop_
_atom_site_label
_atom_site_type_symbol
_atom_site_fract_x
_atom_site_fract_y
_atom_site_fract_z
_atom_type_partial_charge
Mg0 Mg 0.14613 0.41214 0.34222 0.0
O1 O 0.19505 0.38568 0.34112 0.0
O2 O 0.22503 0.39712 0.39523 0.0
Mg3 Mg 0.20172 0.43628 0.42839 0.0
C4 C 0.2201 0.38187 0.3638 0.0
C5 C 0.11222 0.35977 0.27268 0.0
O6 O 0.10964 0.32981 0.29497 0.0
O7 O 0.20481 0.48301 0.33529 0.0
O8 O 0.23419 0.49424 0.38953 0.0
O9 O 0.09615 0.34727 0.36543 0.0
O10 O 0.14135 0.4056 0.39717 0.0
C11 C 0.23364 0.50765 0.35822 0.0
C12 C 0.11311 0.36411 0.3958 0.0
O13 O 0.13112 0.39986 0.28278 0.0
Mg14 Mg 0.7452 0.1444 0.68139 0.0
O15 O 0.82066 0.19353 0.6784 0.0
O16 O 0.84058 0.22511 0.73187 0.0
Mg17 Mg 0.77979 0.20143 0.76681 0.0
C18 C 0.85016 0.21968 0.70031 0.0
C19 C 0.70935 0.08722 0.61828 0.0
O20 O 0.68676 0.06551 0.64635 0.0
O21 O 0.73187 0.20267 0.67498 0.0
O22 O 0.75381 0.23346 0.72838 0.0
O23 O 0.76185 0.09533 0.70376 0.0
O24 O 0.74929 0.14064 0.73606 0.0
C25 C 0.73822 0.23257 0.69768 0.0
C26 C 0.76269 0.11254 0.73424 0.0
O27 O 0.73952 0.12734 0.62222 0.0
Mg28 Mg 0.61267 0.74276 0.00867 0.0
O29 O 0.63756 0.81783 0.00715 0.0
O30 O 0.6217 0.83523 0.06011 0.0
Mg31 Mg 0.5847 0.77317 0.09389 0.0
C32 C 0.6386 0.84619 0.02922 0.0
C33 C 0.66594 0.75895 0.93941 0.0
O34 O 0.69643 0.7854 0.96181 0.0
O35 O 0.54111 0.72846 0.0005 0.0
O36 O 0.5274 0.74528 0.0545 0.0
O37 O 0.67758 0.75969 0.03314 0.0
O38 O 0.61801 0.74527 0.06369 0.0
C39 C 0.51515 0.73123 0.02301 0.0
C40 C 0.65972 0.75959 0.0631 0.0
O41 O 0.62578 0.73936 0.94937 0.0
Mg42 Mg 0.87413 0.60821 0.34559 0.0
O43 O 0.82472 0.63421 0.34236 0.0
O44 O 0.79241 0.62171 0.39558 0.0
Mg45 Mg 0.81608 0.58475 0.43056 0.0
C46 C 0.79814 0.63707 0.36417 0.0
C47 C 0.9316 0.62766 0.2831 0.0
O48 O 0.95194 0.62472 0.31128 0.0
O49 O 0.81626 0.5366 0.33845 0.0
O50 O 0.78498 0.52693 0.39174 0.0
O51 O 0.92266 0.67389 0.36842 0.0
O52 O 0.87719 0.6158 0.40029 0.0
C53 C 0.78633 0.51261 0.36093 0.0
C54 C 0.90508 0.65736 0.39873 0.0
O55 O 0.89209 0.61983 0.28665 0.0
Mg56 Mg 0.27493 0.87097 0.67806 0.0
O57 O 0.19979 0.82142 0.67453 0.0
O58 O 0.18033 0.78756 0.72712 0.0
Mg59 Mg 0.24104 0.81164 0.76239 0.0
C60 C 0.17054 0.79402 0.69598 0.0
C61 C 0.3106 0.92956 0.61562 0.0
O62 O 0.33114 0.952 0.6441 0.0
O63 O 0.28907 0.81355 0.67031 0.0
O64 O 0.27 0.78218 0.72383 0.0
O65 O 0.25736 0.91895 0.70156 0.0
O66 O 0.27029 0.87322 0.73276 0.0
C67 C 0.2852 0.78435 0.6927 0.0
C68 C 0.25649 0.90104 0.73166 0.0
O69 O 0.28152 0.88899 0.61918 0.0
Mg70 Mg 0.41066 0.27037 0.0116 0.0
O71 O 0.38598 0.19533 0.00876 0.0
O72 O 0.39913 0.17671 0.06217 0.0
Mg73 Mg 0.43414 0.23782 0.09729 0.0
C74 C 0.38389 0.16647 0.03074 0.0
C75 C 0.39018 0.30607 0.94816 0.0
O76 O 0.38869 0.3274 0.97631 0.0
O77 O 0.48259 0.28504 0.00565 0.0
O78 O 0.4936 0.26659 0.0598 0.0
O79 O 0.34431 0.25246 0.03337 0.0
O80 O 0.40208 0.26614 0.06614 0.0
C81 C 0.5074 0.2815 0.02876 0.0
C82 C 0.36043 0.25194 0.064 0.0
O83 O 0.40073 0.27637 0.95232 0.0
Mg84 Mg 0.60977 0.87648 0.31784 0.0
O85 O 0.63539 0.8269 0.31986 0.0
O86 O 0.62119 0.79425 0.26669 0.0
Mg87 Mg 0.58448 0.81904 0.23231 0.0
C88 C 0.63733 0.8 0.29783 0.0
C89 C 0.65858 0.91831 0.38877 0.0
O90 O 0.69204 0.93109 0.36697 0.0
O91 O 0.53841 0.8185 0.32481 0.0
O92 O 0.52614 0.7882 0.27081 0.0
O93 O 0.67518 0.92516 0.29436 0.0
O94 O 0.61656 0.87993 0.26298 0.0
C95 C 0.51319 0.78961 0.30214 0.0
C96 C 0.65816 0.90764 0.26415 0.0
O97 O 0.61985 0.89164 0.37753 0.0
Mg98 Mg 0.74205 0.60621 0.65165 0.0
O99 O 0.8177 0.63332 0.6525 0.0
O100 O 0.83625 0.62133 0.59858 0.0
Mg101 Mg 0.77422 0.58324 0.56518 0.0
C102 C 0.84666 0.63674 0.62995 0.0
C103 C 0.76037 0.65802 0.72159 0.0
O104 O 0.7877 0.68817 0.69936 0.0
O105 O 0.73003 0.53509 0.658 0.0
O106 O 0.75021 0.52571 0.604 0.0
O107 O 0.75655 0.67116 0.6289 0.0
O108 O 0.74398 0.61323 0.59679 0.0
C109 C 0.73585 0.5114 0.63506 0.0
C110 C 0.75689 0.65463 0.5984 0.0
O111 O 0.73917 0.61802 0.71126 0.0
Mg112 Mg 0.14654 0.7381 0.98565 0.0
O113 O 0.19584 0.81341 0.98749 0.0
O114 O 0.2272 0.83172 0.93387 0.0
Mg115 Mg 0.20174 0.77016 0.89932 0.0
C116 C 0.22216 0.84219 0.96523 0.0
C117 C 0.10812 0.74771 0.05737 0.0
O118 O 0.09772 0.77092 0.0363 0.0
O119 O 0.20489 0.72505 0.99122 0.0
O120 O 0.23383 0.74301 0.93681 0.0
O121 O 0.09684 0.75416 0.96354 0.0
O122 O 0.14162 0.74117 0.93097 0.0
C123 C 0.23328 0.72877 0.96799 0.0
C124 C 0.11358 0.75463 0.93294 0.0
O125 O 0.13255 0.73319 0.04545 0.0
Mg126 Mg 0.41221 0.14431 0.31645 0.0
O127 O 0.38498 0.19276 0.31998 0.0
O128 O 0.3923 0.2213 0.26562 0.0
Mg129 Mg 0.43088 0.19937 0.23061 0.0
C130 C 0.37906 0.21685 0.29765 0.0
C131 C 0.39273 0.08827 0.37988 0.0
O132 O 0.39114 0.06549 0.35167 0.0
O133 O 0.48331 0.20327 0.32147 0.0
O134 O 0.4899 0.23368 0.26823 0.0
O135 O 0.34616 0.09394 0.29535 0.0
O136 O 0.40275 0.13922 0.26197 0.0
C137 C 0.50564 0.23336 0.29862 0.0
C138 C 0.36151 0.11049 0.26453 0.0
O139 O 0.40326 0.12852 0.37578 0.0
Mg140 Mg 0.27732 0.4087 0.64911 0.0
O141 O 0.20231 0.38367 0.65255 0.0
O142 O 0.18301 0.39814 0.59994 0.0
Mg143 Mg 0.2439 0.43448 0.56473 0.0
C144 C 0.17316 0.38199 0.63112 0.0
C145 C 0.31192 0.3848 0.71176 0.0
O146 O 0.33242 0.38245 0.68339 0.0
O147 O 0.29165 0.48031 0.65687 0.0
O148 O 0.27271 0.49275 0.60338 0.0
O149 O 0.25938 0.34307 0.62568 0.0
O150 O 0.27279 0.40184 0.5944 0.0
C151 C 0.28781 0.50569 0.63452 0.0
C152 C 0.25859 0.36014 0.59558 0.0
O153 O 0.28341 0.39703 0.70803 0.0
Mg154 Mg 0.87691 0.2751 0.98889 0.0
O155 O 0.82758 0.19983 0.98988 0.0
O156 O 0.79512 0.18244 0.9367 0.0
Mg157 Mg 0.81994 0.24474 0.90327 0.0
C158 C 0.80082 0.17143 0.96761 0.0
C159 C 0.91263 0.25779 0.05801 0.0
O160 O 0.91593 0.23089 0.03555 0.0
O161 O 0.81876 0.28816 0.99679 0.0
O162 O 0.78909 0.27147 0.94257 0.0
O163 O 0.92606 0.2595 0.96484 0.0
O164 O 0.88074 0.27315 0.93391 0.0
C165 C 0.79015 0.2851 0.97412 0.0
C166 C 0.90865 0.25946 0.93474 0.0
O167 O 0.89272 0.27805 0.04818 0.0
H168 H 0.27277 0.53846 0.2936 0.0
H169 H 0.27497 0.57848 0.40196 0.0
H170 H 0.33783 0.60966 0.28094 0.0
H171 H 0.33828 0.65043 0.38914 0.0
H172 H 0.48406 0.74986 0.36668 0.0
H173 H 0.41361 0.68403 0.37966 0.0
H174 H 0.36987 0.68513 0.27287 0.0
H175 H 0.44115 0.74927 0.25966 0.0
C176 C 0.28654 0.56293 0.31447 0.0
C177 C 0.26898 0.55275 0.34879 0.0
C178 C 0.32385 0.60396 0.30727 0.0
C179 C 0.34396 0.63611 0.3341 0.0
C180 C 0.32475 0.6264 0.36798 0.0
C181 C 0.28809 0.58518 0.37529 0.0
C182 C 0.45905 0.73634 0.34624 0.0
C183 C 0.46822 0.75454 0.31214 0.0
C184 C 0.41846 0.69855 0.35361 0.0
C185 C 0.38578 0.67857 0.32721 0.0
C186 C 0.39438 0.69853 0.29366 0.0
C187 C 0.43517 0.73569 0.28615 0.0
H188 H 0.70537 0.24646 0.63554 0.0
H189 H 0.7517 0.30177 0.73955 0.0
H190 H 0.69633 0.30956 0.62082 0.0
H191 H 0.74428 0.3648 0.72455 0.0
H192 H 0.74852 0.45542 0.59279 0.0
H193 H 0.74218 0.38541 0.60787 0.0
H194 H 0.69748 0.39393 0.7127 0.0
H195 H 0.70543 0.46558 0.69788 0.0
C196 C 0.71346 0.27185 0.65528 0.0
C197 C 0.72955 0.26896 0.68861 0.0
C198 C 0.70851 0.3082 0.64683 0.0
C199 C 0.71974 0.34259 0.67144 0.0
C200 C 0.73457 0.33886 0.70505 0.0
C201 C 0.73926 0.30263 0.71353 0.0
C202 C 0.73703 0.44247 0.61908 0.0
C203 C 0.72792 0.46664 0.64425 0.0
C204 C 0.73295 0.40181 0.62761 0.0
C205 C 0.71937 0.38375 0.66154 0.0
C206 C 0.70871 0.4071 0.68644 0.0
C207 C 0.71305 0.44812 0.67792 0.0
H208 H 0.48595 0.74222 0.95861 0.0
H209 H 0.44255 0.69667 0.06502 0.0
H210 H 0.41464 0.73583 0.94573 0.0
H211 H 0.3706 0.68787 0.0519 0.0
H212 H 0.27204 0.73602 0.03253 0.0
H213 H 0.33764 0.73071 0.04473 0.0
H214 H 0.33921 0.69268 0.93601 0.0
H215 H 0.2752 0.70035 0.92367 0.0
C216 C 0.46069 0.72965 0.97891 0.0
C217 C 0.46992 0.72026 0.01284 0.0
C218 C 0.41964 0.72585 0.9716 0.0
C219 C 0.38662 0.71179 0.99791 0.0
C220 C 0.39533 0.7 0.03122 0.0
C221 C 0.43652 0.7046 0.03867 0.0
C222 C 0.2861 0.72591 0.01145 0.0
C223 C 0.26864 0.71891 0.97713 0.0
C224 C 0.32375 0.7227 0.01838 0.0
C225 C 0.34435 0.71162 0.99127 0.0
C226 C 0.32525 0.70242 0.95738 0.0
C227 C 0.28819 0.7064 0.95036 0.0
H228 H 0.55773 0.30543 0.25804 0.0
H229 H 0.55575 0.24541 0.35838 0.0
H230 H 0.62859 0.36852 0.27249 0.0
H231 H 0.62809 0.30851 0.37243 0.0
H232 H 0.72118 0.4533 0.40404 0.0
H233 H 0.65759 0.38343 0.38853 0.0
H234 H 0.70551 0.39798 0.28116 0.0
H235 H 0.76914 0.46952 0.29654 0.0
C236 C 0.57266 0.3053 0.28308 0.0
C237 C 0.5506 0.27026 0.30719 0.0
C238 C 0.61376 0.34155 0.29122 0.0
C239 C 0.63434 0.34389 0.32365 0.0
C240 C 0.61299 0.30822 0.34739 0.0
C241 C 0.57154 0.2719 0.33931 0.0
C242 C 0.71859 0.4417 0.37709 0.0
C243 C 0.75027 0.46756 0.35142 0.0
C244 C 0.68206 0.40112 0.36828 0.0
C245 C 0.67606 0.38485 0.33355 0.0
C246 C 0.70864 0.40977 0.30809 0.0
C247 C 0.74532 0.4507 0.31692 0.0
H248 H 0.2774 0.74611 0.62774 0.0
H249 H 0.31677 0.74426 0.73551 0.0
H250 H 0.28418 0.68149 0.61446 0.0
H251 H 0.32605 0.6814 0.72207 0.0
H252 H 0.27874 0.53528 0.69945 0.0
H253 H 0.28413 0.60603 0.71281 0.0
H254 H 0.32734 0.64926 0.60558 0.0
H255 H 0.31944 0.57769 0.59203 0.0
C256 C 0.28869 0.73259 0.64831 0.0
C257 C 0.29624 0.75003 0.68268 0.0
C258 C 0.29274 0.69551 0.64076 0.0
C259 C 0.30527 0.67553 0.66728 0.0
C260 C 0.31516 0.6948 0.70115 0.0
C261 C 0.31027 0.73122 0.70881 0.0
C262 C 0.29007 0.56025 0.679 0.0
C263 C 0.29838 0.55084 0.64469 0.0
C264 C 0.29331 0.60101 0.68658 0.0
C265 C 0.30575 0.63364 0.66017 0.0
C266 C 0.31647 0.62481 0.6264 0.0
C267 C 0.3124 0.58386 0.61869 0.0
H268 H 0.74923 0.27319 0.0384 0.0
H269 H 0.75125 0.31858 0.93202 0.0
H270 H 0.68347 0.27818 0.05115 0.0
H271 H 0.6872 0.32599 0.94502 0.0
H272 H 0.53989 0.27549 0.96418 0.0
H273 H 0.61149 0.28227 0.95204 0.0
H274 H 0.64991 0.32014 0.0609 0.0
H275 H 0.57757 0.31098 0.07317 0.0
C276 C 0.7363 0.28541 0.01808 0.0
C277 C 0.75518 0.29517 0.98419 0.0
C278 C 0.69856 0.28842 0.02532 0.0
C279 C 0.67932 0.30204 -0.00101 0.0
C280 C 0.70002 0.31418 0.96572 0.0
C281 C 0.73712 0.31037 0.95834 0.0
C282 C 0.56395 0.28589 0.9853 0.0
C283 C 0.55297 0.29238 0.01964 0.0
C284 C 0.60521 0.28995 0.97841 0.0
C285 C 0.63677 0.30139 0.00557 0.0
C286 C 0.62633 0.31013 0.03948 0.0
C287 C 0.5849 0.30529 0.04646 0.0
H288 H 0.24003 0.33228 0.40701 0.0
H289 H 0.25131 0.37592 0.29888 0.0
H290 H 0.27629 0.29067 0.39166 0.0
H291 H 0.29047 0.33693 0.28368 0.0
H292 H 0.32434 0.23213 0.257 0.0
H293 H 0.28457 0.26989 0.27316 0.0
H294 H 0.34135 0.29311 0.3781 0.0
H295 H 0.37862 0.2523 0.36224 0.0
C296 C 0.25093 0.33345 0.37998 0.0
C297 C 0.24293 0.35738 0.35413 0.0
C298 C 0.27208 0.30979 0.37116 0.0
C299 C 0.28674 0.31024 0.33635 0.0
C300 C 0.27896 0.33472 0.31059 0.0
C301 C 0.25679 0.35748 0.31928 0.0
C302 C 0.32813 0.2452 0.28358 0.0
C303 C 0.35466 0.23941 0.30836 0.0
C304 C 0.30559 0.26731 0.29284 0.0
C305 C 0.30982 0.28529 0.32694 0.0
C306 C 0.33644 0.27925 0.35177 0.0
C307 C 0.35813 0.25607 0.34271 0.0
H308 H 0.92128 0.27516 0.74076 0.0
H309 H 0.88635 0.21839 0.63594 0.0
H310 H 0.99868 0.31414 0.72417 0.0
H311 H 0.96432 0.25688 0.6196 0.0
H312 H 0.10233 0.36979 0.5918 0.0
H313 H 0.02482 0.33069 0.60828 0.0
H314 H 0.05872 0.30111 0.71048 0.0
H315 H 0.13666 0.34118 0.69432 0.0
C316 C 0.93002 0.27089 0.71412 0.0
C317 C 0.89735 0.24369 0.68962 0.0
C318 C 0.9746 0.29304 0.70473 0.0
C319 C 0.98784 0.28862 0.67059 0.0
C320 C 0.95524 0.26146 0.64602 0.0
C321 C 0.91052 0.23922 0.65542 0.0
C322 C 0.09344 0.35519 0.6179 0.0
C323 C 0.12596 0.35893 0.64181 0.0
C324 C 0.04881 0.33237 0.62721 0.0
C325 C 0.03543 0.31262 0.66066 0.0
C326 C 0.0679 0.31639 0.68463 0.0
C327 C 0.11262 0.33925 0.67532 0.0
H328 H 0.8024 0.13286 0.03048 0.0
H329 H 0.74469 0.10185 0.92592 0.0
H330 H 0.76386 0.05438 0.04489 0.0
H331 H 0.70569 0.02381 0.94061 0.0
H332 H 0.67922 0.88473 0.9664 0.0
H333 H 0.71902 0.96319 0.95191 0.0
H334 H 0.68983 0.99371 0.05579 0.0
H335 H 0.65094 0.91571 0.07056 0.0
C336 C 0.78133 0.10943 0.01065 0.0
C337 C 0.7766 0.12385 0.97709 0.0
C338 C 0.75908 0.06441 0.01895 0.0
C339 C 0.73165 0.03273 0.99389 0.0
C340 C 0.72697 0.04719 0.96038 0.0
C341 C 0.74912 0.09211 0.95209 0.0
C342 C 0.68118 0.90814 0.98612 0.0
C343 C 0.66166 0.89372 0.01959 0.0
C344 C 0.70388 0.95316 0.97777 0.0
C345 C 0.70768 0.98482 0.00271 0.0
C346 C 0.6881 0.97035 0.03612 0.0
C347 C 0.66541 0.92545 0.04445 0.0
H348 H 0.65086 0.74319 0.25697 0.0
H349 H 0.67692 0.80221 0.36113 0.0
H350 H 0.68952 0.7041 0.27261 0.0
H351 H 0.71654 0.76365 0.37647 0.0
H352 H 0.74109 0.65086 0.40432 0.0
H353 H 0.70261 0.68989 0.38827 0.0
H354 H 0.76294 0.71656 0.28473 0.0
H355 H 0.80098 0.67649 0.30052 0.0
C356 C 0.66481 0.7479 0.28325 0.0
C357 C 0.66045 0.77574 0.30788 0.0
C358 C 0.68738 0.72571 0.29208 0.0
C359 C 0.70622 0.73072 0.32577 0.0
C360 C 0.70193 0.75858 0.35042 0.0
C361 C 0.67934 0.78084 0.34158 0.0
C362 C 0.74614 0.66482 0.37802 0.0
C363 C 0.77412 0.66029 0.35366 0.0
C364 C 0.72427 0.6876 0.36894 0.0
C365 C 0.72976 0.70656 0.33527 0.0
C366 C 0.75758 0.70194 0.31079 0.0
C367 C 0.77954 0.67909 0.31988 0.0
H368 H 0.13392 0.79944 0.6332 0.0
H369 H 0.0997 0.73532 0.7353 0.0
H370 H 0.05585 0.76269 0.61758 0.0
H371 H 0.02209 0.69808 0.71938 0.0
H372 H 0.88421 0.6742 0.6939 0.0
H373 H 0.96243 0.71292 0.70928 0.0
H374 H 0.99465 0.69029 0.60379 0.0
H375 H 0.91696 0.6526 0.58816 0.0
C376 C 0.10989 0.77729 0.6522 0.0
C377 C 0.12329 0.77035 0.68547 0.0
C378 C 0.06508 0.75609 0.64321 0.0
C379 C 0.03261 0.72747 0.66727 0.0
C380 C 0.04608 0.72039 0.70041 0.0
C381 C 0.09076 0.74153 0.7094 0.0
C382 C 0.90797 0.67747 0.67399 0.0
C383 C 0.8941 0.66003 0.63985 0.0
C384 C 0.95283 0.69951 0.68285 0.0
C385 C 0.9849 0.7047 0.65778 0.0
C386 C 0.97099 0.68744 0.62363 0.0
C387 C 0.92625 0.66544 0.61477 0.0
H388 H 0.37154 0.0964 0.07112 0.0
H389 H 0.34462 0.12892 0.96726 0.0
H390 H 0.3331 0.01867 0.0554 0.0
H391 H 0.30521 0.05069 0.95182 0.0
H392 H 0.27881 0.91224 0.92425 0.0
H393 H 0.31806 0.99004 0.9398 0.0
H394 H 0.25944 0.95822 0.04397 0.0
H395 H 0.22069 0.87996 0.02871 0.0
C396 C 0.35746 0.08706 0.04487 0.0
C397 C 0.36142 0.11915 0.0204 0.0
C398 C 0.33503 0.0423 0.03599 0.0
C399 C 0.31588 0.02831 0.00241 0.0
C400 C 0.32 0.06034 0.97781 0.0
C401 C 0.34248 0.10523 0.9867 0.0
C402 C 0.27433 0.92165 0.95058 0.0
C403 C 0.24664 0.88961 0.9753 0.0
C404 C 0.29664 0.96644 0.95937 0.0
C405 C 0.2919 0.98051 0.9931 0.0
C406 C 0.2643 0.94852 0.01788 0.0
C407 C 0.24192 0.90361 0.00909 0.0
H408 H 0.92305 0.32018 0.10741 0.0
H409 H 0.96238 0.22393 0.08352 0.0
H410 H 0.97254 0.34517 0.15844 0.0
H411 H 1.01249 0.24961 0.13357 0.0
H412 H 0.06504 0.27618 0.24643 0.0
H413 H 0.01511 0.25072 0.19627 0.0
H414 H 0.05051 0.38524 0.17262 0.0
H415 H 0.09981 0.41074 0.22377 0.0
C416 C 0.94194 0.30411 0.11317 0.0
C417 C 0.9386 0.26997 0.09134 0.0
C418 C 0.97075 0.31881 0.14218 0.0
C419 C 0.9969 0.29971 0.15005 0.0
C420 C 0.99265 0.26487 0.12865 0.0
C421 C 0.96386 0.25015 0.0998 0.0
C422 C 0.06261 0.3005 0.2304 0.0
C423 C 0.08651 0.34557 0.23924 0.0
C424 C 0.03393 0.28584 0.20147 0.0
C425 C 0.02843 0.31582 0.18039 0.0
C426 C 0.05327 0.3611 0.18863 0.0
C427 C 0.08198 0.3758 0.21771 0.0
H428 H 0.75291 0.11811 0.55471 0.0
H429 H 0.64705 1.0022 0.60426 0.0
H430 H 0.74013 0.07656 0.49958 0.0
H431 H 0.63515 0.96076 0.54996 0.0
H432 H 0.59611 0.9109 0.4366 0.0
H433 H 0.6079 0.95303 0.49094 0.0
H434 H 0.74885 0.01755 0.47465 0.0
H435 H 0.73703 0.97619 0.41996 0.0
C436 C 0.7269 0.0839 0.55385 0.0
C437 C 0.70104 0.0636 0.58394 0.0
C438 C 0.71978 0.05993 0.52235 0.0
C439 C 0.68662 0.01516 0.52026 0.0
C440 C 0.66054 0.99523 0.55031 0.0
C441 C 0.6676 0.01908 0.58163 0.0
C442 C 0.62963 0.93373 0.44478 0.0
C443 C 0.66557 0.94008 0.42385 0.0
C444 C 0.63644 0.95795 0.47599 0.0
C445 C 0.67938 0.98904 0.48715 0.0
C446 C 0.71532 0.9946 0.46658 0.0
C447 C 0.70851 0.97047 0.43536 0.0
H448 H 0.74923 0.79203 0.91323 0.0
H449 H 0.61316 0.69724 0.88994 0.0
H450 H 0.77277 0.76652 0.86237 0.0
H451 H 0.63678 0.67241 0.83813 0.0
H452 H 0.69703 0.60674 0.77056 0.0
H453 H 0.67394 0.63187 0.82251 0.0
H454 H 0.77366 0.76639 0.7996 0.0
H455 H 0.79739 0.74129 0.74862 0.0
C456 C 0.7242 0.76616 0.89694 0.0
C457 C 0.67924 0.74672 0.90577 0.0
C458 C 0.73776 0.75155 0.86761 0.0
C459 C 0.70677 0.71718 0.84612 0.0
C460 C 0.66165 0.69841 0.85442 0.0
C461 C 0.64804 0.71302 0.8839 0.0
C462 C 0.7144 0.64159 0.77694 0.0
C463 C 0.74914 0.67193 0.75539 0.0
C464 C 0.70082 0.65609 0.8065 0.0
C465 C 0.72166 0.70126 0.8152 0.0
C466 C 0.75706 0.73134 0.79405 0.0
C467 C 0.77066 0.71688 0.76466 0.0
H468 H 0.05377 0.77231 0.08968 0.0
H469 H 0.11019 0.68811 0.10328 0.0
H470 H 1.01053 0.74225 0.14345 0.0
H471 H 0.06618 0.65731 0.15667 0.0
H472 H 0.0152 0.64511 0.2697 0.0
H473 H 0.05868 0.6752 0.2164 0.0
H474 H 0.94801 0.67516 0.16585 0.0
H475 H 0.90446 0.64582 0.22 0.0
C476 C 0.05718 0.74755 0.10424 0.0
C477 C 0.08559 0.73271 0.09212 0.0
C478 C 0.03194 0.72994 0.13491 0.0
C479 C 0.03442 0.697 0.1543 0.0
C480 C 0.06363 0.68289 0.14262 0.0
C481 C 0.08894 0.70057 0.11196 0.0
C482 C 0.99987 0.65126 0.24723 0.0
C483 C 0.95623 0.64305 0.24922 0.0
C484 C 0.02488 0.66837 0.21649 0.0
C485 C 1.00702 0.67773 0.18673 0.0
C486 C 0.96308 0.66893 0.18845 0.0
C487 C 0.93794 0.65175 0.21936 0.0
H488 H 0.38635 0.1219 0.44422 0.0
H489 H 0.37123 1.00375 0.39465 0.0
H490 H 0.36416 0.08314 0.50094 0.0
H491 H 0.35009 0.9656 0.45101 0.0
H492 H 0.27298 0.8961 0.55066 0.0
H493 H 0.29118 0.9351 0.49402 0.0
H494 H 0.39122 0.05325 0.54554 0.0
H495 H 0.37253 0.01484 0.60184 0.0
C496 C 0.37855 0.08783 0.44543 0.0
C497 C 0.38064 0.06604 0.41486 0.0
C498 C 0.36593 0.06559 0.47794 0.0
C499 C 0.35513 0.02109 0.48057 0.0
C500 C 0.35736 0.99952 0.44994 0.0
C501 C 0.36992 0.02165 0.41759 0.0
C502 C 0.2988 0.93038 0.54983 0.0
C503 C 0.32129 0.95223 0.58081 0.0
C504 C 0.30938 0.95275 0.51737 0.0
C505 C 0.34268 0.99744 0.51517 0.0
C506 C 0.36495 0.01916 0.54624 0.0
C507 C 0.3544 0.99689 0.57857 0.0
H508 H 0.38377 0.26588 0.88391 0.0
H509 H 0.36938 0.36953 0.93316 0.0
H510 H 0.36242 0.28291 0.82702 0.0
H511 H 0.34913 0.38703 0.87663 0.0
H512 H 0.27387 0.38108 0.77649 0.0
H513 H 0.29094 0.35962 0.83327 0.0
H514 H 0.39039 0.33979 0.78245 0.0
H515 H 0.3728 0.36015 0.72598 0.0
C516 C 0.37629 0.29237 0.8826 0.0
C517 C 0.37835 0.3163 0.91312 0.0
C518 C 0.36416 0.30226 0.84999 0.0
C519 C 0.35387 0.33631 0.84721 0.0
C520 C 0.35602 0.36013 0.87781 0.0
C521 C 0.36806 0.35026 0.91026 0.0
C522 C 0.29932 0.3721 0.7775 0.0
C523 C 0.32196 0.37245 0.74666 0.0
C524 C 0.30925 0.35992 0.81005 0.0
C525 C 0.34206 0.34787 0.81249 0.0
C526 C 0.36448 0.34813 0.78156 0.0
C527 C 0.35457 0.36022 0.74914 0.0
H528 H 0.09676 0.37125 0.46469 0.0
H529 H 0.13157 0.2978 0.39263 0.0
H530 H 0.1218 0.34506 0.51444 0.0
H531 H 0.15873 0.27322 0.44233 0.0
H532 H 0.17245 0.29756 0.59917 0.0
H533 H 0.12062 0.27527 0.54957 0.0
H534 H 0.23 0.3408 0.47711 0.0
H535 H 0.28143 0.3648 0.52675 0.0
C536 C 0.10771 0.34771 0.45979 0.0
C537 C 0.112 0.3362 0.4251 0.0
C538 C 0.12203 0.33269 0.48817 0.0
C539 C 0.14216 0.30717 0.48207 0.0
C540 C 0.14283 0.29242 0.44763 0.0
C541 C 0.12715 0.30634 0.41931 0.0
C542 C 0.18535 0.30511 0.57245 0.0
C543 C 0.23075 0.33265 0.5665 0.0
C544 C 0.15573 0.2925 0.54418 0.0
C545 C 0.17144 0.30623 0.50967 0.0
C546 C 0.21714 0.32922 0.50344 0.0
C547 C 0.2466 0.34298 0.53176 0.0
H548 H 0.92465 0.283 0.86589 0.0
H549 H 0.889 0.17434 0.93735 0.0
H550 H 0.89919 0.23193 0.81588 0.0
H551 H 0.86142 0.12277 0.8874 0.0
H552 H 0.84845 0.13463 0.7306 0.0
H553 H 0.90007 0.16323 0.78037 0.0
H554 H 0.7905 0.11965 0.85264 0.0
H555 H 0.73928 0.09321 0.80284 0.0
C556 C 0.91338 0.24843 0.8706 0.0
C557 C 0.90904 0.23248 0.90519 0.0
C558 C 0.89883 0.21918 0.84207 0.0
C559 C 0.87842 0.17349 0.84793 0.0
C560 C 0.87757 0.1579 0.88228 0.0
C561 C 0.89346 0.18738 0.91074 0.0
C562 C 0.83542 0.12907 0.75729 0.0
C563 C 0.79007 0.11168 0.76315 0.0
C564 C 0.86494 0.14557 0.78566 0.0
C565 C 0.84914 0.1435 0.82018 0.0
C566 C 0.80341 0.12105 0.82629 0.0
C567 C 0.77408 0.10589 0.79788 0.0
H568 H 0.65242 0.92499 0.19534 0.0
H569 H 0.72196 0.88566 0.26729 0.0
H570 H 0.67706 0.89824 0.14549 0.0
H571 H 0.74489 0.85679 0.21749 0.0
H572 H 0.72364 0.84534 0.06062 0.0
H573 H 0.74595 0.89682 0.11058 0.0
H574 H 0.67611 0.78718 0.18201 0.0
H575 H 0.65212 0.73613 0.13197 0.0
C576 C 0.67483 0.91265 0.2002 0.0
C577 C 0.6857 0.90767 0.23488 0.0
C578 C 0.68892 0.89731 0.17176 0.0
C579 C 0.71282 0.87549 0.17779 0.0
C580 C 0.72694 0.87398 0.21224 0.0
C581 C 0.71399 0.89065 0.24062 0.0
C582 C 0.71505 0.83223 0.08722 0.0
C583 C 0.68644 0.78692 0.09272 0.0
C584 C 0.72765 0.86165 0.11569 0.0
C585 C 0.71286 0.84584 0.15 0.0
C586 C 0.6885 0.80009 0.15584 0.0
C587 C 0.67477 0.77087 0.1273 0.0
H588 H 0.92366 0.65325 0.46747 0.0
H589 H 0.88253 0.72069 0.39494 0.0
H590 H 0.89676 0.67801 0.5171 0.0
H591 H 0.85345 0.74371 0.44453 0.0
H592 H 0.84155 0.72096 0.60161 0.0
H593 H 0.89333 0.74565 0.55182 0.0
H594 H 0.78464 0.67444 0.47979 0.0
H595 H 0.73336 0.64813 0.52962 0.0
C596 C 0.91092 0.67529 0.46242 0.0
C597 C 0.90538 0.68542 0.42766 0.0
C598 C 0.89552 0.68947 0.49074 0.0
C599 C 0.87304 0.7127 0.48449 0.0
C600 C 0.87114 0.72629 0.44994 0.0
C601 C 0.8879 0.71327 0.42167 0.0
C602 C 0.82862 0.71262 0.57494 0.0
C603 C 0.78362 0.68285 0.56918 0.0
C604 C 0.85824 0.7266 0.54656 0.0
C605 C 0.84286 0.712 0.51212 0.0
C606 C 0.79722 0.68667 0.50606 0.0
C607 C 0.76785 0.67159 0.5345 0.0
H608 H 0.13406 0.83997 0.93629 0.0
H609 H 0.09446 0.73074 0.86438 0.0
H610 H 0.16071 0.89131 0.88628 0.0
H611 H 0.11908 0.7816 0.81438 0.0
H612 H 0.28048 0.91996 0.80015 0.0
H613 H 0.22988 0.89382 0.85041 0.0
H614 H 0.11943 0.85004 0.77922 0.0
H615 H 0.17048 0.87823 0.72897 0.0
C616 C 0.12851 0.82679 0.90964 0.0
C617 C 0.11213 0.78157 0.90391 0.0
C618 C 0.14389 0.85614 0.88113 0.0
C619 C 0.1418 0.84031 0.84661 0.0
C620 C 0.12045 0.79456 0.84071 0.0
C621 C 0.10636 0.76542 0.86924 0.0
C622 C 0.24561 0.90722 0.79554 0.0
C623 C 0.22922 0.90134 0.76098 0.0
C624 C 0.21663 0.89227 0.82422 0.0
C625 C 0.17082 0.86993 0.81855 0.0
C626 C 0.15463 0.86762 0.78418 0.0
C627 C 0.1838 0.88387 0.75554 0.0
H628 H 0.29607 0.1302 0.26798 0.0
H629 H 0.36485 0.0892 0.19636 0.0
H630 H 0.271 0.15611 0.21778 0.0
H631 H 0.33829 0.1131 0.14621 0.0
H632 H 0.29669 0.16617 0.06043 0.0
H633 H 0.27194 0.11481 0.11042 0.0
H634 H 0.33766 0.2247 0.18246 0.0
H635 H 0.36392 0.27559 0.1325 0.0
C636 C 0.30337 0.12411 0.24138 0.0
C637 C 0.33223 0.10773 0.23577 0.0
C638 C 0.28918 0.13908 0.21274 0.0
C639 C 0.30277 0.13658 0.17825 0.0
C640 C 0.32686 0.11486 0.1725 0.0
C641 C 0.3421 0.10117 0.20114 0.0
C642 C 0.30375 0.17934 0.08709 0.0
C643 C 0.33199 0.22465 0.09289 0.0
C644 C 0.28973 0.14998 0.1156 0.0
C645 C 0.30284 0.16588 0.15017 0.0
C646 C 0.32654 0.21166 0.1561 0.0
C647 C 0.34163 0.24081 0.12758 0.0
loop_
_geom_bond_atom_site_label_1
_geom_bond_atom_site_label_2
_geom_bond_distance
_geom_bond_site_symmetry_2
_ccdc_geom_bond_type
Mg0 O1 2.028 . S
Mg0 O7 1.986 . S
Mg0 O9 2.114 . S
Mg0 O10 2.251 . S
Mg0 O13 2.010 . S
O1 Mg0 2.028 . S
O1 C4 1.250 . S
O2 Mg3 2.028 . S
O2 C4 1.248 . S
Mg3 O2 2.028 . S
Mg3 O8 2.032 . S
Mg3 O10 2.079 . S
C4 O1 1.250 . S
C4 O2 1.248 . S
C5 O6 1.264 . S
C5 O13 1.249 . S
O6 C5 1.264 . S
O7 Mg0 1.986 . S
O7 C11 1.246 . S
O8 Mg3 2.032 . S
O8 C11 1.259 . S
O9 Mg0 2.114 . S
O9 C12 1.252 . S
O10 Mg0 2.251 . S
O10 Mg3 2.079 . S
O10 C12 1.273 . S
C11 O7 1.246 . S
C11 O8 1.259 . S
C12 O9 1.252 . S
C12 O10 1.273 . S
O13 Mg0 2.010 . S
O13 C5 1.249 . S
Mg14 O15 2.028 . S
Mg14 O21 1.986 . S
Mg14 O23 2.114 . S
Mg14 O24 2.251 . S
Mg14 O27 2.010 . S
O15 Mg14 2.028 . S
O15 C18 1.250 . S
O16 Mg17 2.028 . S
O16 C18 1.248 . S
Mg17 O16 2.028 . S
Mg17 O22 2.032 . S
Mg17 O24 2.079 . S
C18 O15 1.250 . S
C18 O16 1.248 . S
C19 O20 1.264 . S
C19 O27 1.249 . S
O20 C19 1.264 . S
O21 Mg14 1.986 . S
O21 C25 1.246 . S
O22 Mg17 2.032 . S
O22 C25 1.259 . S
O23 Mg14 2.114 . S
O23 C26 1.252 . S
O24 Mg14 2.251 . S
O24 Mg17 2.079 . S
O24 C26 1.273 . S
C25 O21 1.246 . S
C25 O22 1.259 . S
C26 O23 1.252 . S
C26 O24 1.273 . S
O27 Mg14 2.010 . S
O27 C19 1.249 . S
Mg28 O29 2.028 1_554 S
Mg28 O35 1.986 1_554 S
Mg28 O37 2.114 . S
Mg28 O38 2.251 . S
Mg28 O41 2.010 1_554 S
O29 Mg28 2.028 1_556 S
O29 C32 1.248 1_556 S
O30 Mg31 2.028 . S
O30 C32 1.254 . S
Mg31 O30 2.028 . S
Mg31 O36 2.032 . S
Mg31 O38 2.079 . S
C32 O29 1.248 1_554 S
C32 O30 1.254 . S
C33 O34 1.264 . S
C33 O41 1.249 . S
O34 C33 1.264 . S
O35 Mg28 1.986 1_556 S
O35 C39 1.246 . S
O36 Mg31 2.032 . S
O36 C39 1.259 1_554 S
O37 Mg28 2.114 . S
O37 C40 1.252 . S
O38 Mg28 2.251 . S
O38 Mg31 2.079 . S
O38 C40 1.273 . S
C39 O35 1.246 . S
C39 O36 1.259 1_556 S
C40 O37 1.252 . S
C40 O38 1.273 . S
O41 Mg28 2.010 1_556 S
O41 C33 1.249 . S
Mg42 O43 2.028 . S
Mg42 O49 1.986 . S
Mg42 O51 2.114 . S
Mg42 O52 2.251 . S
Mg42 O55 2.010 . S
O43 Mg42 2.028 . S
O43 C46 1.250 . S
O44 Mg45 2.028 . S
O44 C46 1.248 . S
Mg45 O44 2.028 . S
Mg45 O50 2.032 . S
Mg45 O52 2.079 . S
C46 O43 1.250 . S
C46 O44 1.248 . S
C47 O48 1.264 . S
C47 O55 1.249 . S
O48 C47 1.264 . S
O49 Mg42 1.986 . S
O49 C53 1.246 . S
O50 Mg45 2.032 . S
O50 C53 1.259 . S
O51 Mg42 2.114 . S
O51 C54 1.252 . S
O52 Mg42 2.251 . S
O52 Mg45 2.079 . S
O52 C54 1.273 . S
C53 O49 1.246 . S
C53 O50 1.259 . S
C54 O51 1.252 . S
C54 O52 1.273 . S
O55 Mg42 2.010 . S
O55 C47 1.249 . S
Mg56 O57 2.028 . S
Mg56 O63 1.986 . S
Mg56 O65 2.114 . S
Mg56 O66 2.251 . S
Mg56 O69 2.010 . S
O57 Mg56 2.028 . S
O57 C60 1.250 . S
O58 Mg59 2.028 . S
O58 C60 1.248 . S
Mg59 O58 2.028 . S
Mg59 O64 2.032 . S
Mg59 O66 2.079 . S
C60 O57 1.250 . S
C60 O58 1.248 . S
C61 O62 1.264 . S
C61 O69 1.249 . S
O62 C61 1.264 . S
O63 Mg56 1.986 . S
O63 C67 1.246 . S
O64 Mg59 2.032 . S
O64 C67 1.259 . S
O65 Mg56 2.114 . S
O65 C68 1.252 . S
O66 Mg56 2.251 . S
O66 Mg59 2.079 . S
O66 C68 1.273 . S
C67 O63 1.246 . S
C67 O64 1.259 . S
C68 O65 1.252 . S
C68 O66 1.273 . S
O69 Mg56 2.010 . S
O69 C61 1.249 . S
Mg70 O71 2.028 1_554 S
Mg70 O77 1.986 1_554 S
Mg70 O79 2.114 . S
Mg70 O80 2.251 . S
Mg70 O83 2.010 1_554 S
O71 Mg70 2.028 1_556 S
O71 C74 1.248 1_556 S
O72 Mg73 2.028 . S
O72 C74 1.253 . S
Mg73 O72 2.028 . S
Mg73 O78 2.032 . S
Mg73 O80 2.079 . S
C74 O71 1.248 1_554 S
C74 O72 1.253 . S
C75 O76 1.264 . S
C75 O83 1.249 . S
O76 C75 1.264 . S
O77 Mg70 1.986 1_556 S
O77 C81 1.246 . S
O78 Mg73 2.032 . S
O78 C81 1.259 1_554 S
O79 Mg70 2.114 . S
O79 C82 1.252 . S
O80 Mg70 2.251 . S
O80 Mg73 2.079 . S
O80 C82 1.273 . S
C81 O77 1.246 . S
C81 O78 1.259 1_556 S
C82 O79 1.252 . S
C82 O80 1.273 . S
O83 Mg70 2.010 1_556 S
O83 C75 1.249 . S
Mg84 O85 2.028 . S
Mg84 O91 1.986 . S
Mg84 O93 2.114 . S
Mg84 O94 2.251 . S
Mg84 O97 2.010 . S
O85 Mg84 2.028 . S
O85 C88 1.250 . S
O86 Mg87 2.028 . S
O86 C88 1.248 . S
Mg87 O86 2.028 . S
Mg87 O92 2.032 . S
Mg87 O94 2.079 . S
C88 O85 1.250 . S
C88 O86 1.248 . S
C89 O90 1.264 . S
C89 O97 1.249 . S
O90 C89 1.264 . S
O91 Mg84 1.986 . S
O91 C95 1.246 . S
O92 Mg87 2.032 . S
O92 C95 1.259 . S
O93 Mg84 2.114 . S
O93 C96 1.252 . S
O94 Mg84 2.251 . S
O94 Mg87 2.079 . S
O94 C96 1.273 . S
C95 O91 1.246 . S
C95 O92 1.259 . S
C96 O93 1.252 . S
C96 O94 1.273 . S
O97 Mg84 2.010 . S
O97 C89 1.249 . S
Mg98 O99 2.028 . S
Mg98 O105 1.986 . S
Mg98 O107 2.114 . S
Mg98 O108 2.251 . S
Mg98 O111 2.010 . S
O99 Mg98 2.028 . S
O99 C102 1.250 . S
O100 Mg101 2.028 . S
O100 C102 1.248 . S
Mg101 O100 2.028 . S
Mg101 O106 2.032 . S
Mg101 O108 2.079 . S
C102 O99 1.250 . S
C102 O100 1.248 . S
C103 O104 1.264 . S
C103 O111 1.249 . S
O104 C103 1.264 . S
O105 Mg98 1.986 . S
O105 C109 1.246 . S
O106 Mg101 2.032 . S
O106 C109 1.259 . S
O107 Mg98 2.114 . S
O107 C110 1.252 . S
O108 Mg98 2.251 . S
O108 Mg101 2.079 . S
O108 C110 1.273 . S
C109 O105 1.246 . S
C109 O106 1.259 . S
C110 O107 1.252 . S
C110 O108 1.273 . S
O111 Mg98 2.010 . S
O111 C103 1.249 . S
Mg112 O113 2.028 1_556 S
Mg112 O119 1.986 1_556 S
Mg112 O121 2.114 . S
Mg112 O122 2.251 . S
Mg112 O125 2.010 1_556 S
O113 Mg112 2.028 1_554 S
O113 C116 1.246 1_554 S
O114 Mg115 2.028 . S
O114 C116 1.257 . S
Mg115 O114 2.028 . S
Mg115 O120 2.032 . S
Mg115 O122 2.079 . S
C116 O113 1.246 1_556 S
C116 O114 1.257 . S
C117 O118 1.264 . S
C117 O125 1.249 . S
O118 C117 1.264 . S
O119 Mg112 1.986 1_554 S
O119 C123 1.246 . S
O120 Mg115 2.032 . S
O120 C123 1.259 1_556 S
O121 Mg112 2.114 . S
O121 C124 1.252 . S
O122 Mg112 2.251 . S
O122 Mg115 2.079 . S
O122 C124 1.273 . S
C123 O119 1.246 . S
C123 O120 1.259 1_554 S
C124 O121 1.252 . S
C124 O122 1.273 . S
O125 Mg112 2.010 1_554 S
O125 C117 1.249 . S
Mg126 O127 2.028 . S
Mg126 O133 1.986 . S
Mg126 O135 2.114 . S
Mg126 O136 2.251 . S
Mg126 O139 2.010 . S
O127 Mg126 2.028 . S
O127 C130 1.250 . S
O128 Mg129 2.028 . S
O128 C130 1.248 . S
Mg129 O128 2.028 . S
Mg129 O134 2.032 . S
Mg129 O136 2.079 . S
C130 O127 1.250 . S
C130 O128 1.248 . S
C131 O132 1.264 . S
C131 O139 1.249 . S
O132 C131 1.264 . S
O133 Mg126 1.986 . S
O133 C137 1.246 . S
O134 Mg129 2.032 . S
O134 C137 1.259 . S
O135 Mg126 2.114 . S
O135 C138 1.252 . S
O136 Mg126 2.251 . S
O136 Mg129 2.079 . S
O136 C138 1.273 . S
C137 O133 1.246 . S
C137 O134 1.259 . S
C138 O135 1.252 . S
C138 O136 1.273 . S
O139 Mg126 2.010 . S
O139 C131 1.249 . S
Mg140 O141 2.028 . S
Mg140 O147 1.986 . S
Mg140 O149 2.114 . S
Mg140 O150 2.251 . S
Mg140 O153 2.010 . S
O141 Mg140 2.028 . S
O141 C144 1.250 . S
O142 Mg143 2.028 . S
O142 C144 1.248 . S
Mg143 O142 2.028 . S
Mg143 O148 2.032 . S
Mg143 O150 2.079 . S
C144 O141 1.250 . S
C144 O142 1.248 . S
C145 O146 1.264 . S
C145 O153 1.249 . S
O146 C145 1.264 . S
O147 Mg140 1.986 . S
O147 C151 1.246 . S
O148 Mg143 2.032 . S
O148 C151 1.259 . S
O149 Mg140 2.114 . S
O149 C152 1.252 . S
O150 Mg140 2.251 . S
O150 Mg143 2.079 . S
O150 C152 1.273 . S
C151 O147 1.246 . S
C151 O148 1.259 . S
C152 O149 1.252 . S
C152 O150 1.273 . S
O153 Mg140 2.010 . S
O153 C145 1.249 . S
Mg154 O155 2.028 1_556 S
Mg154 O161 1.986 1_556 S
Mg154 O163 2.114 . S
Mg154 O164 2.251 . S
Mg154 O167 2.010 1_556 S
O155 Mg154 2.028 1_554 S
O155 C158 1.246 1_554 S
O156 Mg157 2.028 . S
O156 C158 1.257 . S
Mg157 O156 2.028 . S
Mg157 O162 2.032 . S
Mg157 O164 2.079 . S
C158 O155 1.246 1_556 S
C158 O156 1.257 . S
C159 O160 1.264 . S
C159 O167 1.249 . S
O160 C159 1.264 . S
O161 Mg154 1.986 1_554 S
O161 C165 1.246 . S
O162 Mg157 2.032 . S
O162 C165 1.259 1_556 S
O163 Mg154 2.114 . S
O163 C166 1.252 . S
O164 Mg154 2.251 . S
O164 Mg157 2.079 . S
O164 C166 1.273 . S
C165 O161 1.246 . S
C165 O162 1.259 1_554 S
C166 O163 1.252 . S
C166 O164 1.273 . S
O167 Mg154 2.010 1_554 S
O167 C159 1.249 . S
H168 C176 0.950 . S
H169 C181 0.950 . S
H170 C178 0.950 . S
H171 C180 0.950 . S
H172 C182 0.950 . S
H173 C184 0.950 . S
H174 C186 0.950 . S
H175 C187 0.950 . S
C176 H168 0.950 . S
C176 C177 1.386 . S
C176 C178 1.391 . S
C177 C176 1.386 . S
C177 C181 1.393 . S
C178 H170 0.950 . S
C178 C176 1.391 . S
C178 C179 1.400 . S
C179 C178 1.400 . S
C179 C180 1.398 . S
C179 C185 1.491 . S
C180 H171 0.950 . S
C180 C179 1.398 . S
C180 C181 1.391 . S
C181 H169 0.950 . S
C181 C177 1.393 . S
C181 C180 1.391 . S
C182 H172 0.950 . S
C182 C183 1.386 . S
C182 C184 1.391 . S
C183 C182 1.386 . S
C183 C187 1.393 . S
C184 H173 0.950 . S
C184 C182 1.391 . S
C184 C185 1.400 . S
C185 C179 1.491 . S
C185 C184 1.400 . S
C185 C186 1.398 . S
C186 H174 0.950 . S
C186 C185 1.398 . S
C186 C187 1.391 . S
C187 H175 0.950 . S
C187 C183 1.393 . S
C187 C186 1.391 . S
H188 C196 0.950 . S
H189 C201 0.950 . S
H190 C198 0.950 . S
H191 C200 0.950 . S
H192 C202 0.950 . S
H193 C204 0.950 . S
H194 C206 0.950 . S
H195 C207 0.950 . S
C196 H188 0.950 . S
C196 C197 1.386 . S
C196 C198 1.391 . S
C197 C196 1.386 . S
C197 C201 1.393 . S
C198 H190 0.950 . S
C198 C196 1.391 . S
C198 C199 1.400 . S
C199 C198 1.400 . S
C199 C200 1.398 . S
C199 C205 1.491 . S
C200 H191 0.950 . S
C200 C199 1.398 . S
C200 C201 1.391 . S
C201 H189 0.950 . S
C201 C197 1.393 . S
C201 C200 1.391 . S
C202 H192 0.950 . S
C202 C203 1.386 . S
C202 C204 1.391 . S
C203 C202 1.386 . S
C203 C207 1.393 . S
C204 H193 0.950 . S
C204 C202 1.391 . S
C204 C205 1.400 . S
C205 C199 1.491 . S
C205 C204 1.400 . S
C205 C206 1.398 . S
C206 H194 0.950 . S
C206 C205 1.398 . S
C206 C207 1.391 . S
C207 H195 0.950 . S
C207 C203 1.393 . S
C207 C206 1.391 . S
H208 C216 0.950 . S
H209 C221 0.950 . S
H210 C218 0.950 . S
H211 C220 0.950 . S
H212 C222 0.950 . S
H213 C224 0.950 . S
H214 C226 0.950 . S
H215 C227 0.950 . S
C216 H208 0.950 . S
C216 C217 1.386 . S
C216 C218 1.391 . S
C217 C216 1.386 . S
C217 C221 1.393 1_556 S
C218 H210 0.950 . S
C218 C216 1.391 . S
C218 C219 1.400 . S
C219 C218 1.400 . S
C219 C220 1.398 1_556 S
C219 C225 1.491 1_556 S
C220 H211 0.950 . S
C220 C219 1.398 1_554 S
C220 C221 1.391 . S
C221 H209 0.950 . S
C221 C217 1.393 1_554 S
C221 C220 1.391 . S
C222 H212 0.950 . S
C222 C223 1.386 . S
C222 C224 1.391 . S
C223 C222 1.386 . S
C223 C227 1.393 1_554 S
C224 H213 0.950 . S
C224 C222 1.391 . S
C224 C225 1.400 . S
C225 C219 1.491 1_554 S
C225 C224 1.400 . S
C225 C226 1.398 1_554 S
C226 H214 0.950 . S
C226 C225 1.398 1_556 S
C226 C227 1.391 . S
C227 H215 0.950 . S
C227 C223 1.393 1_556 S
C227 C226 1.391 . S
H228 C236 0.950 . S
H229 C241 0.950 . S
H230 C238 0.950 . S
H231 C240 0.950 . S
H232 C242 0.950 . S
H233 C244 0.950 . S
H234 C246 0.950 . S
H235 C247 0.950 . S
C236 H228 0.950 . S
C236 C237 1.386 . S
C236 C238 1.391 . S
C237 C236 1.386 . S
C237 C241 1.393 . S
C238 H230 0.950 . S
C238 C236 1.391 . S
C238 C239 1.400 . S
C239 C238 1.400 . S
C239 C240 1.398 . S
C239 C245 1.491 . S
C240 H231 0.950 . S
C240 C239 1.398 . S
C240 C241 1.391 . S
C241 H229 0.950 . S
C241 C237 1.393 . S
C241 C240 1.391 . S
C242 H232 0.950 . S
C242 C243 1.386 . S
C242 C244 1.391 . S
C243 C242 1.386 . S
C243 C247 1.393 . S
C244 H233 0.950 . S
C244 C242 1.391 . S
C244 C245 1.400 . S
C245 C239 1.491 . S
C245 C244 1.400 . S
C245 C246 1.398 . S
C246 H234 0.950 . S
C246 C245 1.398 . S
C246 C247 1.391 . S
C247 H235 0.950 . S
C247 C243 1.393 . S
C247 C246 1.391 . S
H248 C256 0.950 . S
H249 C261 0.950 . S
H250 C258 0.950 . S
H251 C260 0.950 . S
H252 C262 0.950 . S
H253 C264 0.950 . S
H254 C266 0.950 . S
H255 C267 0.950 . S
C256 H248 0.950 . S
C256 C257 1.386 . S
C256 C258 1.391 . S
C257 C256 1.386 . S
C257 C261 1.393 . S
C258 H250 0.950 . S
C258 C256 1.391 . S
C258 C259 1.400 . S
C259 C258 1.400 . S
C259 C260 1.398 . S
C259 C265 1.491 . S
C260 H251 0.950 . S
C260 C259 1.398 . S
C260 C261 1.391 . S
C261 H249 0.950 . S
C261 C257 1.393 . S
C261 C260 1.391 . S
C262 H252 0.950 . S
C262 C263 1.386 . S
C262 C264 1.391 . S
C263 C262 1.386 . S
C263 C267 1.393 . S
C264 H253 0.950 . S
C264 C262 1.391 . S
C264 C265 1.400 . S
C265 C259 1.491 . S
C265 C264 1.400 . S
C265 C266 1.398 . S
C266 H254 0.950 . S
C266 C265 1.398 . S
C266 C267 1.391 . S
C267 H255 0.950 . S
C267 C263 1.393 . S
C267 C266 1.391 . S
H268 C276 0.950 . S
H269 C281 0.950 . S
H270 C278 0.950 . S
H271 C280 0.950 . S
H272 C282 0.950 . S
H273 C284 0.950 . S
H274 C286 0.950 . S
H275 C287 0.950 . S
C276 H268 0.950 . S
C276 C277 1.386 . S
C276 C278 1.391 . S
C277 C276 1.386 . S
C277 C281 1.393 1_554 S
C278 H270 0.950 . S
C278 C276 1.391 . S
C278 C279 1.400 . S
C279 C278 1.400 . S
C279 C280 1.398 1_554 S
C279 C285 1.491 1_554 S
C280 H271 0.950 . S
C280 C279 1.398 1_556 S
C280 C281 1.391 . S
C281 H269 0.950 . S
C281 C277 1.393 1_556 S
C281 C280 1.391 . S
C282 H272 0.950 . S
C282 C283 1.386 . S
C282 C284 1.391 . S
C283 C282 1.386 . S
C283 C287 1.393 1_556 S
C284 H273 0.950 . S
C284 C282 1.391 . S
C284 C285 1.400 . S
C285 C279 1.491 1_556 S
C285 C284 1.400 . S
C285 C286 1.398 1_556 S
C286 H274 0.950 . S
C286 C285 1.398 1_554 S
C286 C287 1.391 . S
C287 H275 0.950 . S
C287 C283 1.393 1_554 S
C287 C286 1.391 . S
H288 C296 0.950 . S
H289 C301 0.950 . S
H290 C298 0.950 . S
H291 C300 0.950 . S
H292 C302 0.950 . S
H293 C304 0.950 . S
H294 C306 0.950 . S
H295 C307 0.950 . S
C296 H288 0.950 . S
C296 C297 1.386 . S
C296 C298 1.391 . S
C297 C296 1.386 . S
C297 C301 1.393 . S
C298 H290 0.950 . S
C298 C296 1.391 . S
C298 C299 1.400 . S
C299 C298 1.400 . S
C299 C300 1.398 . S
C299 C305 1.491 . S
C300 H291 0.950 . S
C300 C299 1.398 . S
C300 C301 1.391 . S
C301 H289 0.950 . S
C301 C297 1.393 . S
C301 C300 1.391 . S
C302 H292 0.950 . S
C302 C303 1.386 . S
C302 C304 1.391 . S
C303 C302 1.386 . S
C303 C307 1.393 . S
C304 H293 0.950 . S
C304 C302 1.391 . S
C304 C305 1.400 . S
C305 C299 1.491 . S
C305 C304 1.400 . S
C305 C306 1.398 . S
C306 H294 0.950 . S
C306 C305 1.398 . S
C306 C307 1.391 . S
C307 H295 0.950 . S
C307 C303 1.393 . S
C307 C306 1.391 . S
H308 C316 0.950 . S
H309 C321 0.950 . S
H310 C318 0.950 . S
H311 C320 0.950 . S
H312 C322 0.950 . S
H313 C324 0.950 . S
H314 C326 0.950 . S
H315 C327 0.950 . S
C316 H308 0.950 . S
C316 C317 1.386 . S
C316 C318 1.391 . S
C317 C316 1.386 . S
C317 C321 1.393 . S
C318 H310 0.950 . S
C318 C316 1.391 . S
C318 C319 1.400 . S
C319 C318 1.400 . S
C319 C320 1.398 . S
C319 C325 1.491 1_655 S
C320 H311 0.950 . S
C320 C319 1.398 . S
C320 C321 1.391 . S
C321 H309 0.950 . S
C321 C317 1.393 . S
C321 C320 1.391 . S
C322 H312 0.950 . S
C322 C323 1.386 . S
C322 C324 1.391 . S
C323 C322 1.386 . S
C323 C327 1.393 . S
C324 H313 0.950 . S
C324 C322 1.391 . S
C324 C325 1.400 . S
C325 C319 1.491 1_455 S
C325 C324 1.400 . S
C325 C326 1.398 . S
C326 H314 0.950 . S
C326 C325 1.398 . S
C326 C327 1.391 . S
C327 H315 0.950 . S
C327 C323 1.393 . S
C327 C326 1.391 . S
H328 C336 0.950 . S
H329 C341 0.950 . S
H330 C338 0.950 . S
H331 C340 0.950 . S
H332 C342 0.950 . S
H333 C344 0.950 . S
H334 C346 0.950 . S
H335 C347 0.950 . S
C336 H328 0.950 . S
C336 C337 1.386 . S
C336 C338 1.391 . S
C337 C336 1.386 . S
C337 C341 1.393 1_554 S
C338 H330 0.950 . S
C338 C336 1.391 . S
C338 C339 1.400 . S
C339 C338 1.400 . S
C339 C340 1.398 1_554 S
C339 C345 1.491 1_544 S
C340 H331 0.950 . S
C340 C339 1.398 1_556 S
C340 C341 1.391 . S
C341 H329 0.950 . S
C341 C337 1.393 1_556 S
C341 C340 1.391 . S
C342 H332 0.950 . S
C342 C343 1.386 . S
C342 C344 1.391 . S
C343 C342 1.386 . S
C343 C347 1.393 1_556 S
C344 H333 0.950 . S
C344 C342 1.391 . S
C344 C345 1.400 . S
C345 C339 1.491 1_566 S
C345 C344 1.400 . S
C345 C346 1.398 1_556 S
C346 H334 0.950 . S
C346 C345 1.398 1_554 S
C346 C347 1.391 . S
C347 H335 0.950 . S
C347 C343 1.393 1_554 S
C347 C346 1.391 . S
H348 C356 0.950 . S
H349 C361 0.950 . S
H350 C358 0.950 . S
H351 C360 0.950 . S
H352 C362 0.950 . S
H353 C364 0.950 . S
H354 C366 0.950 . S
H355 C367 0.950 . S
C356 H348 0.950 . S
C356 C357 1.386 . S
C356 C358 1.391 . S
C357 C356 1.386 . S
C357 C361 1.393 . S
C358 H350 0.950 . S
C358 C356 1.391 . S
C358 C359 1.400 . S
C359 C358 1.400 . S
C359 C360 1.398 . S
C359 C365 1.491 . S
C360 H351 0.950 . S
C360 C359 1.398 . S
C360 C361 1.391 . S
C361 H349 0.950 . S
C361 C357 1.393 . S
C361 C360 1.391 . S
C362 H352 0.950 . S
C362 C363 1.386 . S
C362 C364 1.391 . S
C363 C362 1.386 . S
C363 C367 1.393 . S
C364 H353 0.950 . S
C364 C362 1.391 . S
C364 C365 1.400 . S
C365 C359 1.491 . S
C365 C364 1.400 . S
C365 C366 1.398 . S
C366 H354 0.950 . S
C366 C365 1.398 . S
C366 C367 1.391 . S
C367 H355 0.950 . S
C367 C363 1.393 . S
C367 C366 1.391 . S
H368 C376 0.950 . S
H369 C381 0.950 . S
H370 C378 0.950 . S
H371 C380 0.950 . S
H372 C382 0.950 . S
H373 C384 0.950 . S
H374 C386 0.950 . S
H375 C387 0.950 . S
C376 H368 0.950 . S
C376 C377 1.386 . S
C376 C378 1.391 . S
C377 C376 1.386 . S
C377 C381 1.393 . S
C378 H370 0.950 . S
C378 C376 1.391 . S
C378 C379 1.400 . S
C379 C378 1.400 . S
C379 C380 1.398 . S
C379 C385 1.491 1_455 S
C380 H371 0.950 . S
C380 C379 1.398 . S
C380 C381 1.391 . S
C381 H369 0.950 . S
C381 C377 1.393 . S
C381 C380 1.391 . S
C382 H372 0.950 . S
C382 C383 1.386 . S
C382 C384 1.391 . S
C383 C382 1.386 . S
C383 C387 1.393 . S
C384 H373 0.950 . S
C384 C382 1.391 . S
C384 C385 1.400 . S
C385 C379 1.491 1_655 S
C385 C384 1.400 . S
C385 C386 1.398 . S
C386 H374 0.950 . S
C386 C385 1.398 . S
C386 C387 1.391 . S
C387 H375 0.950 . S
C387 C383 1.393 . S
C387 C386 1.391 . S
H388 C396 0.950 . S
H389 C401 0.950 . S
H390 C398 0.950 . S
H391 C400 0.950 . S
H392 C402 0.950 . S
H393 C404 0.950 . S
H394 C406 0.950 . S
H395 C407 0.950 . S
C396 H388 0.950 . S
C396 C397 1.386 1_554 S
C396 C398 1.391 . S
C397 C396 1.386 1_556 S
C397 C401 1.393 . S
C398 H390 0.950 . S
C398 C396 1.391 . S
C398 C399 1.400 1_554 S
C399 C398 1.400 1_556 S
C399 C400 1.398 . S
C399 C405 1.491 1_546 S
C400 H391 0.950 . S
C400 C399 1.398 . S
C400 C401 1.391 . S
C401 H389 0.950 . S
C401 C397 1.393 . S
C401 C400 1.391 . S
C402 H392 0.950 . S
C402 C403 1.386 1_556 S
C402 C404 1.391 . S
C403 C402 1.386 1_554 S
C403 C407 1.393 . S
C404 H393 0.950 . S
C404 C402 1.391 . S
C404 C405 1.400 1_556 S
C405 C399 1.491 1_564 S
C405 C404 1.400 1_554 S
C405 C406 1.398 . S
C406 H394 0.950 . S
C406 C405 1.398 . S
C406 C407 1.391 . S
C407 H395 0.950 . S
C407 C403 1.393 . S
C407 C406 1.391 . S
H408 C416 0.950 . S
H409 C421 0.950 . S
H410 C418 0.950 . S
H411 C420 0.950 . S
H412 C422 0.950 . S
H413 C424 0.950 . S
H414 C426 0.950 . S
H415 C427 0.950 . S
C416 H408 0.950 . S
C416 C417 1.386 . S
C416 C418 1.391 . S
C417 C416 1.386 . S
C417 C421 1.393 . S
C418 H410 0.950 . S
C418 C416 1.391 . S
C418 C419 1.400 . S
C419 C418 1.400 . S
C419 C420 1.398 . S
C419 C425 1.491 1_655 S
C420 H411 0.950 . S
C420 C419 1.398 . S
C420 C421 1.391 . S
C421 H409 0.950 . S
C421 C417 1.393 . S
C421 C420 1.391 . S
C422 H412 0.950 . S
C422 C423 1.386 . S
C422 C424 1.391 . S
C423 C422 1.386 . S
C423 C427 1.393 . S
C424 H413 0.950 . S
C424 C422 1.391 . S
C424 C425 1.400 . S
C425 C419 1.491 1_455 S
C425 C424 1.400 . S
C425 C426 1.398 . S
C426 H414 0.950 . S
C426 C425 1.398 . S
C426 C427 1.391 . S
C427 H415 0.950 . S
C427 C423 1.393 . S
C427 C426 1.391 . S
H428 C436 0.950 . S
H429 C441 0.950 . S
H430 C438 0.950 . S
H431 C440 0.950 . S
H432 C442 0.950 . S
H433 C444 0.950 . S
H434 C446 0.950 . S
H435 C447 0.950 . S
C436 H428 0.950 . S
C436 C437 1.386 . S
C436 C438 1.391 . S
C437 C436 1.386 . S
C437 C441 1.393 . S
C438 H430 0.950 . S
C438 C436 1.391 . S
C438 C439 1.400 . S
C439 C438 1.400 . S
C439 C440 1.398 1_545 S
C439 C445 1.491 1_545 S
C440 H431 0.950 . S
C440 C439 1.398 1_565 S
C440 C441 1.391 1_565 S
C441 H429 0.950 . S
C441 C437 1.393 . S
C441 C440 1.391 1_545 S
C442 H432 0.950 . S
C442 C443 1.386 . S
C442 C444 1.391 . S
C443 C442 1.386 . S
C443 C447 1.393 . S
C444 H433 0.950 . S
C444 C442 1.391 . S
C444 C445 1.400 . S
C445 C439 1.491 1_565 S
C445 C444 1.400 . S
C445 C446 1.398 1_565 S
C446 H434 0.950 . S
C446 C445 1.398 1_545 S
C446 C447 1.391 1_545 S
C447 H435 0.950 . S
C447 C443 1.393 . S
C447 C446 1.391 1_565 S
H448 C456 0.950 . S
H449 C461 0.950 . S
H450 C458 0.950 . S
H451 C460 0.950 . S
H452 C462 0.950 . S
H453 C464 0.950 . S
H454 C466 0.950 . S
H455 C467 0.950 . S
C456 H448 0.950 . S
C456 C457 1.386 . S
C456 C458 1.391 . S
C457 C456 1.386 . S
C457 C461 1.393 . S
C458 H450 0.950 . S
C458 C456 1.391 . S
C458 C459 1.400 . S
C459 C458 1.400 . S
C459 C460 1.398 . S
C459 C465 1.491 . S
C460 H451 0.950 . S
C460 C459 1.398 . S
C460 C461 1.391 . S
C461 H449 0.950 . S
C461 C457 1.393 . S
C461 C460 1.391 . S
C462 H452 0.950 . S
C462 C463 1.386 . S
C462 C464 1.391 . S
C463 C462 1.386 . S
C463 C467 1.393 . S
C464 H453 0.950 . S
C464 C462 1.391 . S
C464 C465 1.400 . S
C465 C459 1.491 . S
C465 C464 1.400 . S
C465 C466 1.398 . S
C466 H454 0.950 . S
C466 C465 1.398 . S
C466 C467 1.391 . S
C467 H455 0.950 . S
C467 C463 1.393 . S
C467 C466 1.391 . S
H468 C476 0.950 . S
H469 C481 0.950 . S
H470 C478 0.950 1_655 S
H471 C480 0.950 . S
H472 C482 0.950 . S
H473 C484 0.950 1_455 S
H474 C486 0.950 . S
H475 C487 0.950 . S
C476 H468 0.950 . S
C476 C477 1.386 . S
C476 C478 1.391 . S
C477 C476 1.386 . S
C477 C481 1.393 . S
C478 H470 0.950 1_455 S
C478 C476 1.391 . S
C478 C479 1.400 . S
C479 C478 1.400 . S
C479 C480 1.398 . S
C479 C485 1.491 1_455 S
C480 H471 0.950 . S
C480 C479 1.398 . S
C480 C481 1.391 . S
C481 H469 0.950 . S
C481 C477 1.393 . S
C481 C480 1.391 . S
C482 H472 0.950 . S
C482 C483 1.386 . S
C482 C484 1.391 . S
C483 C482 1.386 . S
C483 C487 1.393 . S
C484 H473 0.950 1_655 S
C484 C482 1.391 . S
C484 C485 1.400 . S
C485 C479 1.491 1_655 S
C485 C484 1.400 . S
C485 C486 1.398 . S
C486 H474 0.950 . S
C486 C485 1.398 . S
C486 C487 1.391 . S
C487 H475 0.950 . S
C487 C483 1.393 . S
C487 C486 1.391 . S
H488 C496 0.950 . S
H489 C501 0.950 . S
H490 C498 0.950 . S
H491 C500 0.950 1_565 S
H492 C502 0.950 . S
H493 C504 0.950 . S
H494 C506 0.950 1_545 S
H495 C507 0.950 . S
C496 H488 0.950 . S
C496 C497 1.386 . S
C496 C498 1.391 . S
C497 C496 1.386 . S
C497 C501 1.393 . S
C498 H490 0.950 . S
C498 C496 1.391 . S
C498 C499 1.400 . S
C499 C498 1.400 . S
C499 C500 1.398 . S
C499 C505 1.491 1_545 S
C500 H491 0.950 1_545 S
C500 C499 1.398 . S
C500 C501 1.391 . S
C501 H489 0.950 . S
C501 C497 1.393 . S
C501 C500 1.391 . S
C502 H492 0.950 . S
C502 C503 1.386 . S
C502 C504 1.391 . S
C503 C502 1.386 . S
C503 C507 1.393 . S
C504 H493 0.950 . S
C504 C502 1.391 . S
C504 C505 1.400 . S
C505 C499 1.491 1_565 S
C505 C504 1.400 . S
C505 C506 1.398 . S
C506 H494 0.950 1_565 S
C506 C505 1.398 . S
C506 C507 1.391 . S
C507 H495 0.950 . S
C507 C503 1.393 . S
C507 C506 1.391 . S
H508 C516 0.950 . S
H509 C521 0.950 . S
H510 C518 0.950 . S
H511 C520 0.950 . S
H512 C522 0.950 . S
H513 C524 0.950 . S
H514 C526 0.950 . S
H515 C527 0.950 . S
C516 H508 0.950 . S
C516 C517 1.386 . S
C516 C518 1.391 . S
C517 C516 1.386 . S
C517 C521 1.393 . S
C518 H510 0.950 . S
C518 C516 1.391 . S
C518 C519 1.400 . S
C519 C518 1.400 . S
C519 C520 1.398 . S
C519 C525 1.491 . S
C520 H511 0.950 . S
C520 C519 1.398 . S
C520 C521 1.391 . S
C521 H509 0.950 . S
C521 C517 1.393 . S
C521 C520 1.391 . S
C522 H512 0.950 . S
C522 C523 1.386 . S
C522 C524 1.391 . S
C523 C522 1.386 . S
C523 C527 1.393 . S
C524 H513 0.950 . S
C524 C522 1.391 . S
C524 C525 1.400 . S
C525 C519 1.491 . S
C525 C524 1.400 . S
C525 C526 1.398 . S
C526 H514 0.950 . S
C526 C525 1.398 . S
C526 C527 1.391 . S
C527 H515 0.950 . S
C527 C523 1.393 . S
C527 C526 1.391 . S
H528 C536 0.950 . S
H529 C541 0.950 . S
H530 C538 0.950 . S
H531 C540 0.950 . S
H532 C542 0.950 . S
H533 C544 0.950 . S
H534 C546 0.950 . S
H535 C547 0.950 . S
C536 H528 0.950 . S
C536 C537 1.386 . S
C536 C538 1.391 . S
C537 C536 1.386 . S
C537 C541 1.393 . S
C538 H530 0.950 . S
C538 C536 1.391 . S
C538 C539 1.400 . S
C539 C538 1.400 . S
C539 C540 1.398 . S
C539 C545 1.491 . S
C540 H531 0.950 . S
C540 C539 1.398 . S
C540 C541 1.391 . S
C541 H529 0.950 . S
C541 C537 1.393 . S
C541 C540 1.391 . S
C542 H532 0.950 . S
C542 C543 1.386 . S
C542 C544 1.391 . S
C543 C542 1.386 . S
C543 C547 1.393 . S
C544 H533 0.950 . S
C544 C542 1.391 . S
C544 C545 1.400 . S
C545 C539 1.491 . S
C545 C544 1.400 . S
C545 C546 1.398 . S
C546 H534 0.950 . S
C546 C545 1.398 . S
C546 C547 1.391 . S
C547 H535 0.950 . S
C547 C543 1.393 . S
C547 C546 1.391 . S
H548 C556 0.950 . S
H549 C561 0.950 . S
H550 C558 0.950 . S
H551 C560 0.950 . S
H552 C562 0.950 . S
H553 C564 0.950 . S
H554 C566 0.950 . S
H555 C567 0.950 . S
C556 H548 0.950 . S
C556 C557 1.386 . S
C556 C558 1.391 . S
C557 C556 1.386 . S
C557 C561 1.393 . S
C558 H550 0.950 . S
C558 C556 1.391 . S
C558 C559 1.400 . S
C559 C558 1.400 . S
C559 C560 1.398 . S
C559 C565 1.491 . S
C560 H551 0.950 . S
C560 C559 1.398 . S
C560 C561 1.391 . S
C561 H549 0.950 . S
C561 C557 1.393 . S
C561 C560 1.391 . S
C562 H552 0.950 . S
C562 C563 1.386 . S
C562 C564 1.391 . S
C563 C562 1.386 . S
C563 C567 1.393 . S
C564 H553 0.950 . S
C564 C562 1.391 . S
C564 C565 1.400 . S
C565 C559 1.491 . S
C565 C564 1.400 . S
C565 C566 1.398 . S
C566 H554 0.950 . S
C566 C565 1.398 . S
C566 C567 1.391 . S
C567 H555 0.950 . S
C567 C563 1.393 . S
C567 C566 1.391 . S
H568 C576 0.950 . S
H569 C581 0.950 . S
H570 C578 0.950 . S
H571 C580 0.950 . S
H572 C582 0.950 . S
H573 C584 0.950 . S
H574 C586 0.950 . S
H575 C587 0.950 . S
C576 H568 0.950 . S
C576 C577 1.386 . S
C576 C578 1.391 . S
C577 C576 1.386 . S
C577 C581 1.393 . S
C578 H570 0.950 . S
C578 C576 1.391 . S
C578 C579 1.400 . S
C579 C578 1.400 . S
C579 C580 1.398 . S
C579 C585 1.491 . S
C580 H571 0.950 . S
C580 C579 1.398 . S
C580 C581 1.391 . S
C581 H569 0.950 . S
C581 C577 1.393 . S
C581 C580 1.391 . S
C582 H572 0.950 . S
C582 C583 1.386 . S
C582 C584 1.391 . S
C583 C582 1.386 . S
C583 C587 1.393 . S
C584 H573 0.950 . S
C584 C582 1.391 . S
C584 C585 1.400 . S
C585 C579 1.491 . S
C585 C584 1.400 . S
C585 C586 1.398 . S
C586 H574 0.950 . S
C586 C585 1.398 . S
C586 C587 1.391 . S
C587 H575 0.950 . S
C587 C583 1.393 . S
C587 C586 1.391 . S
H588 C596 0.950 . S
H589 C601 0.950 . S
H590 C598 0.950 . S
H591 C600 0.950 . S
H592 C602 0.950 . S
H593 C604 0.950 . S
H594 C606 0.950 . S
H595 C607 0.950 . S
C596 H588 0.950 . S
C596 C597 1.386 . S
C596 C598 1.391 . S
C597 C596 1.386 . S
C597 C601 1.393 . S
C598 H590 0.950 . S
C598 C596 1.391 . S
C598 C599 1.400 . S
C599 C598 1.400 . S
C599 C600 1.398 . S
C599 C605 1.491 . S
C600 H591 0.950 . S
C600 C599 1.398 . S
C600 C601 1.391 . S
C601 H589 0.950 . S
C601 C597 1.393 . S
C601 C600 1.391 . S
C602 H592 0.950 . S
C602 C603 1.386 . S
C602 C604 1.391 . S
C603 C602 1.386 . S
C603 C607 1.393 . S
C604 H593 0.950 . S
C604 C602 1.391 . S
C604 C605 1.400 . S
C605 C599 1.491 . S
C605 C604 1.400 . S
C605 C606 1.398 . S
C606 H594 0.950 . S
C606 C605 1.398 . S
C606 C607 1.391 . S
C607 H595 0.950 . S
C607 C603 1.393 . S
C607 C606 1.391 . S
H608 C616 0.950 . S
H609 C621 0.950 . S
H610 C618 0.950 . S
H611 C620 0.950 . S
H612 C622 0.950 . S
H613 C624 0.950 . S
H614 C626 0.950 . S
H615 C627 0.950 . S
C616 H608 0.950 . S
C616 C617 1.386 . S
C616 C618 1.391 . S
C617 C616 1.386 . S
C617 C621 1.393 . S
C618 H610 0.950 . S
C618 C616 1.391 . S
C618 C619 1.400 . S
C619 C618 1.400 . S
C619 C620 1.398 . S
C619 C625 1.491 . S
C620 H611 0.950 . S
C620 C619 1.398 . S
C620 C621 1.391 . S
C621 H609 0.950 . S
C621 C617 1.393 . S
C621 C620 1.391 . S
C622 H612 0.950 . S
C622 C623 1.386 . S
C622 C624 1.391 . S
C623 C622 1.386 . S
C623 C627 1.393 . S
C624 H613 0.950 . S
C624 C622 1.391 . S
C624 C625 1.400 . S
C625 C619 1.491 . S
C625 C624 1.400 . S
C625 C626 1.398 . S
C626 H614 0.950 . S
C626 C625 1.398 . S
C626 C627 1.391 . S
C627 H615 0.950 . S
C627 C623 1.393 . S
C627 C626 1.391 . S
H628 C636 0.950 . S
H629 C641 0.950 . S
H630 C638 0.950 . S
H631 C640 0.950 . S
H632 C642 0.950 . S
H633 C644 0.950 . S
H634 C646 0.950 . S
H635 C647 0.950 . S
C636 H628 0.950 . S
C636 C637 1.386 . S
C636 C638 1.391 . S
C637 C636 1.386 . S
C637 C641 1.393 . S
C638 H630 0.950 . S
C638 C636 1.391 . S
C638 C639 1.400 . S
C639 C638 1.400 . S
C639 C640 1.398 . S
C639 C645 1.491 . S
C640 H631 0.950 . S
C640 C639 1.398 . S
C640 C641 1.391 . S
C641 H629 0.950 . S
C641 C637 1.393 . S
C641 C640 1.391 . S
C642 H632 0.950 . S
C642 C643 1.386 . S
C642 C644 1.391 . S
C643 C642 1.386 . S
C643 C647 1.393 . S
C644 H633 0.950 . S
C644 C642 1.391 . S
C644 C645 1.400 . S
C645 C639 1.491 . S
C645 C644 1.400 . S
C645 C646 1.398 . S
C646 H634 0.950 . S
C646 C645 1.398 . S
C646 C647 1.391 . S
C647 H635 0.950 . S
C647 C643 1.393 . S
C647 C646 1.391 . S
C177 C11 1.323 . S
C183 C95 1.304 . S
C197 C25 1.302 . S
C203 C109 1.313 . S
C217 C39 1.328 . S
C223 C123 1.307 . S
C237 C137 1.335 . S
C243 C53 1.333 . S
C257 C67 1.328 . S
C263 C151 1.307 . S
C277 C165 1.333 . S
C283 C81 1.313 . S
C297 C4 0.739 . S
C303 C130 0.703 . S
C317 C18 0.722 . S
C323 C144 0.703 . S
C337 C158 0.730 1_554 S
C343 C32 0.763 1_556 S
C357 C88 0.756 . S
C363 C46 0.761 . S
C377 C60 0.710 . S
C383 C102 0.710 . S
C397 C74 0.761 1_556 S
C403 C116 0.743 1_554 S
C417 C159 1.640 . S
C423 C5 1.637 . S
C437 C19 1.648 . S
C443 C89 1.614 . S
C457 C33 1.629 . S
C463 C103 1.627 . S
C477 C117 1.616 . S
C483 C47 1.643 . S
C497 C131 1.652 . S
C503 C61 1.617 . S
C517 C75 1.652 . S
C523 C145 1.617 . S
C537 C12 0.631 . S
C543 C152 0.633 . S
C557 C166 0.631 . S
C563 C26 0.627 . S
C577 C96 0.633 . S
C583 C40 0.630 . S
C597 C54 0.629 . S
C603 C110 0.632 . S
C617 C124 0.555 . S
C623 C68 0.563 . S
C637 C138 0.589 . S
C643 C82 0.601 . S
