# Generated by pormake.
# Topology umy, (4)-cn, num edge types: 1
# Building blocks:
#     Node 0, Type 0, BuildingBlock: CEKHIL_clean_sbu_0, # of connection points: 4
#     Node 1, Type 0, BuildingBlock: CEKHIL_clean_sbu_0, # of connection points: 4
#     Node 2, Type 0, BuildingBlock: CEKHIL_clean_sbu_0, # of connection points: 4
#     Node 3, Type 0, BuildingBlock: CEKHIL_clean_sbu_0, # of connection points: 4
#     Node 4, Type 0, BuildingBlock: CEKHIL_clean_sbu_0, # of connection points: 4
#     Node 5, Type 0, BuildingBlock: CEKHIL_clean_sbu_0, # of connection points: 4
#     Node 6, Type 0, BuildingBlock: CEKHIL_clean_sbu_0, # of connection points: 4
#     Node 7, Type 0, BuildingBlock: CEKHIL_clean_sbu_0, # of connection points: 4
#     Node 8, Type 0, BuildingBlock: CEKHIL_clean_sbu_0, # of connection points: 4
#     Node 9, Type 0, BuildingBlock: CEKHIL_clean_sbu_0, # of connection points: 4
#     Node 10, Type 0, BuildingBlock: CEKHIL_clean_sbu_0, # of connection points: 4
#     Node 11, Type 0, BuildingBlock: CEKHIL_clean_sbu_0, # of connection points: 4
#     Edge 12, Type (0, 0), BuildingBlock: XIVTED_clean_linker_0, # of connection points: 2
#     Edge 13, Type (0, 0), BuildingBlock: XIVTED_clean_linker_0, # of connection points: 2
#     Edge 14, Type (0, 0), BuildingBlock: XIVTED_clean_linker_0, # of connection points: 2
#     Edge 15, Type (0, 0), BuildingBlock: XIVTED_clean_linker_0, # of connection points: 2
#     Edge 16, Type (0, 0), BuildingBlock: XIVTED_clean_linker_0, # of connection points: 2
#     Edge 17, Type (0, 0), BuildingBlock: XIVTED_clean_linker_0, # of connection points: 2
#     Edge 18, Type (0, 0), BuildingBlock: XIVTED_clean_linker_0, # of connection points: 2
#     Edge 19, Type (0, 0), BuildingBlock: XIVTED_clean_linker_0, # of connection points: 2
#     Edge 20, Type (0, 0), BuildingBlock: XIVTED_clean_linker_0, # of connection points: 2
#     Edge 21, Type (0, 0), BuildingBlock: XIVTED_clean_linker_0, # of connection points: 2
#     Edge 22, Type (0, 0), BuildingBlock: XIVTED_clean_linker_0, # of connection points: 2
#     Edge 23, Type (0, 0), BuildingBlock: XIVTED_clean_linker_0, # of connection points: 2
#     Edge 24, Type (0, 0), BuildingBlock: XIVTED_clean_linker_0, # of connection points: 2
#     Edge 25, Type (0, 0), BuildingBlock: XIVTED_clean_linker_0, # of connection points: 2
#     Edge 26, Type (0, 0), BuildingBlock: XIVTED_clean_linker_0, # of connection points: 2
#     Edge 27, Type (0, 0), BuildingBlock: XIVTED_clean_linker_0, # of connection points: 2
#     Edge 28, Type (0, 0), BuildingBlock: XIVTED_clean_linker_0, # of connection points: 2
#     Edge 29, Type (0, 0), BuildingBlock: XIVTED_clean_linker_0, # of connection points: 2
#     Edge 30, Type (0, 0), BuildingBlock: XIVTED_clean_linker_0, # of connection points: 2
#     Edge 31, Type (0, 0), BuildingBlock: XIVTED_clean_linker_0, # of connection points: 2
#     Edge 32, Type (0, 0), BuildingBlock: XIVTED_clean_linker_0, # of connection points: 2
#     Edge 33, Type (0, 0), BuildingBlock: XIVTED_clean_linker_0, # of connection points: 2
#     Edge 34, Type (0, 0), BuildingBlock: XIVTED_clean_linker_0, # of connection points: 2
#     Edge 35, Type (0, 0), BuildingBlock: XIVTED_clean_linker_0, # of connection points: 2
# Relax obj value: 0.117
# Max RMSD: 0.082
# Mean RMSD: 0.082
data_MOF--net-umy--node1-CEKHIL_clean_sbu_0--edge1-XIVTED_clean_linker_0
_symmetry_space_group_name_H-M    P1
_symmetry_Int_Tables_number       1
_symmetry_cell_setting            triclinic
loop_
_symmetry_equiv_pos_as_xyz
'x, y, z'
_cell_length_a     37.810219
_cell_length_b     37.822382
_cell_length_c     51.663715
_cell_angle_alpha  89.991327
_cell_angle_beta   90.017562
_cell_angle_gamma 119.99153
loop_
_atom_site_label
_atom_site_type_symbol
_atom_site_fract_x
_atom_site_fract_y
_atom_site_fract_z
_atom_type_partial_charge
Co0 Co 0.05477 0.35068 0.13099 0.0
O1 O 0.03994 0.37763 0.10509 0.0
O2 O 0.09066 0.40917 0.13312 0.0
C3 C 0.99101 0.30827 0.146 0.0
O4 O 0.07826 0.33355 0.1609 0.0
Co5 Co 0.02311 0.25737 0.12724 0.0
O6 O 0.04662 0.265 0.16252 0.0
C7 C 0.08864 0.31439 0.09235 0.0
C8 C 0.06934 0.4117 0.11419 0.0
C9 C 0.07124 0.30007 0.17191 0.0
O10 O 0.0924 0.34509 0.10547 0.0
O11 O 0.06026 0.27759 0.09642 0.0
O12 O 0.01129 0.34586 0.15394 0.0
O13 O 0.00802 0.29915 0.12754 0.0
Co14 Co 0.71186 0.05465 0.29682 0.0
O15 O 0.66837 0.03531 0.27194 0.0
O16 O 0.68687 0.08872 0.29749 0.0
C17 C 0.69387 0.99272 0.31376 0.0
O18 O 0.75382 0.08204 0.32573 0.0
Co19 Co 0.77634 0.02656 0.29309 0.0
O20 O 0.79254 0.05232 0.32777 0.0
C21 C 0.78032 0.08852 0.25678 0.0
C22 C 0.66227 0.06441 0.27975 0.0
C23 C 0.7814 0.07666 0.33673 0.0
O24 O 0.75281 0.0913 0.26991 0.0
O25 O 0.79086 0.06181 0.26144 0.0
O26 O 0.67569 0.01236 0.32134 0.0
O27 O 0.71894 0.00916 0.29472 0.0
Co28 Co 0.65493 0.70696 0.46407 0.0
O29 O 0.63113 0.66314 0.43941 0.0
O30 O 0.59589 0.68259 0.4639 0.0
C31 C 0.69783 0.68853 0.48226 0.0
O32 O 0.66912 0.74954 0.4925 0.0
Co33 Co 0.74798 0.77034 0.46108 0.0
O34 O 0.73756 0.78839 0.49485 0.0
C35 C 0.69148 0.77535 0.42394 0.0
C36 C 0.59584 0.65759 0.44656 0.0
C37 C 0.7019 0.77769 0.50331 0.0
O38 O 0.66062 0.74782 0.43665 0.0
O39 O 0.72848 0.78548 0.42912 0.0
O40 O 0.65979 0.67086 0.48935 0.0
O41 O 0.70726 0.71326 0.46296 0.0
Co42 Co 0.95049 0.65586 0.63119 0.0
O43 O 0.96821 0.63108 0.60565 0.0
O44 O 0.91558 0.59695 0.63192 0.0
C45 C 0.01328 0.69902 0.64739 0.0
O46 O 0.9247 0.67084 0.66083 0.0
Co47 Co 0.97999 0.74882 0.62844 0.0
O48 O 0.95645 0.7393 0.6638 0.0
C49 C 0.91627 0.69196 0.5925 0.0
C50 C 0.93895 0.59613 0.61372 0.0
C51 C 0.93165 0.7038 0.67254 0.0
O52 O 0.91335 0.66116 0.60508 0.0
O53 O 0.94354 0.72895 0.59729 0.0
O54 O 0.99344 0.66119 0.65494 0.0
O55 O 0.99642 0.70806 0.6288 0.0
Co56 Co 0.29593 0.94873 0.79853 0.0
O57 O 0.34042 0.96725 0.77446 0.0
O58 O 0.31945 0.91334 0.79992 0.0
C59 C 0.31482 0.01079 0.81559 0.0
O60 O 0.25252 0.92209 0.82672 0.0
Co61 Co 0.2337 0.97953 0.79321 0.0
O62 O 0.21592 0.95415 0.82787 0.0
C63 C 0.22831 0.91593 0.75779 0.0
C64 C 0.34524 0.93751 0.78262 0.0
C65 C 0.22543 0.92876 0.83718 0.0
O66 O 0.2555 0.91289 0.77112 0.0
O67 O 0.21839 0.9432 0.76206 0.0
O68 O 0.33182 0.99021 0.82355 0.0
O69 O 0.29057 0.99523 0.79607 0.0
Co70 Co 0.34727 0.29442 0.96494 0.0
O71 O 0.37256 0.33736 0.93981 0.0
O72 O 0.40609 0.31718 0.96535 0.0
C73 C 0.30546 0.31502 0.98206 0.0
O74 O 0.3314 0.2526 0.99404 0.0
Co75 Co 0.25385 0.23287 0.96168 0.0
O76 O 0.26281 0.21699 0.99662 0.0
C77 C 0.30981 0.22507 0.92552 0.0
C78 C 0.40731 0.34204 0.94749 0.0
C79 C 0.29805 0.22657 0.00539 0.0
O80 O 0.3408 0.25234 0.93826 0.0
O81 O 0.27298 0.21594 0.93033 0.0
O82 O 0.34336 0.33201 0.98938 0.0
O83 O 0.29563 0.28967 0.96307 0.0
Co84 Co 0.65719 0.95093 0.70441 0.0
O85 O 0.63376 0.9681 0.73119 0.0
O86 O 0.59816 0.91679 0.70429 0.0
C87 C 0.70037 0.01411 0.68885 0.0
O88 O 0.67058 0.92581 0.67348 0.0
Co89 Co 0.74986 0.9788 0.70477 0.0
O90 O 0.73878 0.95974 0.66841 0.0
C91 C 0.69325 0.91014 0.73801 0.0
C92 C 0.59833 0.93959 0.72321 0.0
C93 C 0.70296 0.93453 0.66036 0.0
O94 O 0.66251 0.91223 0.72912 0.0
O95 O 0.73031 0.93462 0.73152 0.0
O96 O 0.66223 0.9949 0.68191 0.0
O97 O 0.70996 0.99639 0.70664 0.0
Co98 Co 0.70823 0.65346 0.87071 0.0
O99 O 0.66329 0.62863 0.89442 0.0
O100 O 0.68578 0.59461 0.87132 0.0
C101 C 0.68858 0.69397 0.85075 0.0
O102 O 0.75253 0.66923 0.84325 0.0
Co103 Co 0.76845 0.74682 0.8745 0.0
O104 O 0.78747 0.73782 0.84065 0.0
C105 C 0.77539 0.69183 0.91184 0.0
C106 C 0.65931 0.59377 0.88781 0.0
C107 C 0.77916 0.70273 0.83231 0.0
O108 O 0.74813 0.66077 0.89918 0.0
O109 O 0.78518 0.72866 0.90643 0.0
O110 O 0.67284 0.65593 0.84411 0.0
O111 O 0.71189 0.70488 0.87092 0.0
Co112 Co 0.05322 0.70774 0.03671 0.0
O113 O 0.0384 0.66598 0.06267 0.0
O114 O 0.08801 0.68399 0.03393 0.0
C115 C 0.98932 0.68794 0.02257 0.0
O116 O 0.07661 0.74794 0.00663 0.0
Co117 Co 0.02416 0.77141 0.04092 0.0
O118 O 0.04683 0.7866 0.00541 0.0
C119 C 0.08987 0.77825 0.07504 0.0
C120 C 0.06713 0.66059 0.05311 0.0
C121 C 0.07039 0.775 0.99574 0.0
O122 O 0.09235 0.75067 0.06182 0.0
O123 O 0.06213 0.78771 0.07131 0.0
O124 O 0.00848 0.66964 0.01429 0.0
O125 O 0.00747 0.71412 0.04086 0.0
Co126 Co 0.35011 0.05322 0.20356 0.0
O127 O 0.37537 0.03484 0.22829 0.0
O128 O 0.40901 0.08847 0.2027 0.0
C129 C 0.30712 0.99103 0.1866 0.0
O130 O 0.33432 0.07979 0.17481 0.0
Co131 Co 0.25702 0.02283 0.20755 0.0
O132 O 0.26574 0.04835 0.17284 0.0
C133 C 0.31436 0.08617 0.24346 0.0
C134 C 0.41016 0.06453 0.22037 0.0
C135 C 0.301 0.07346 0.16388 0.0
O136 O 0.34493 0.08929 0.2305 0.0
O137 O 0.27728 0.0589 0.23886 0.0
O138 O 0.34487 0.01137 0.17893 0.0
O139 O 0.29813 0.00694 0.20577 0.0
Co140 Co 0.29479 0.34611 0.36946 0.0
O141 O 0.33859 0.37148 0.39406 0.0
O142 O 0.31877 0.40505 0.36827 0.0
C143 C 0.31366 0.30264 0.35285 0.0
O144 O 0.25221 0.33009 0.34078 0.0
Co145 Co 0.23174 0.25321 0.374 0.0
O146 O 0.21476 0.26152 0.33924 0.0
C147 C 0.22651 0.31132 0.40961 0.0
C148 C 0.34386 0.40625 0.38597 0.0
C149 C 0.22498 0.29667 0.33006 0.0
O150 O 0.25385 0.34159 0.39642 0.0
O151 O 0.21648 0.27413 0.40523 0.0
O152 O 0.33112 0.34025 0.34491 0.0
O153 O 0.28881 0.29404 0.37202 0.0
Co154 Co 0.95099 0.29555 0.53772 0.0
O155 O 0.96943 0.33885 0.56266 0.0
O156 O 0.91619 0.31978 0.53685 0.0
C157 C 0.01336 0.31463 0.52109 0.0
O158 O 0.92461 0.25365 0.50864 0.0
Co159 Co 0.98084 0.23241 0.54161 0.0
O160 O 0.95702 0.21746 0.50637 0.0
C161 C 0.91782 0.22692 0.57762 0.0
C162 C 0.94016 0.34455 0.55465 0.0
C163 C 0.93188 0.22753 0.49734 0.0
O164 O 0.91449 0.25412 0.5645 0.0
O165 O 0.94509 0.21711 0.57304 0.0
O166 O 0.9933 0.33231 0.51337 0.0
O167 O 0.99701 0.28947 0.54008 0.0
H168 H 0.05358 0.62874 0.10189 0.0
H169 H 0.05563 0.42959 0.0654 0.0
H170 H 0.09575 0.61768 0.0264 0.0
H171 H 0.09767 0.48331 0.14079 0.0
H172 H 0.06123 0.49381 0.0504 0.0
H173 H 0.06052 0.57087 0.11688 0.0
C174 C 0.06454 0.61427 0.08854 0.0
C175 C 0.07416 0.62792 0.06289 0.0
C176 C 0.06965 0.49159 0.07013 0.0
C177 C 0.08119 0.56146 0.0797 0.0
C178 C 0.06635 0.45505 0.07871 0.0
C179 C 0.0763 0.45131 0.10433 0.0
C180 C 0.08169 0.52409 0.08754 0.0
C181 C 0.08999 0.48513 0.12083 0.0
C182 C 0.06864 0.58147 0.09713 0.0
C183 C 0.08824 0.60817 0.04637 0.0
N184 N 0.0916 0.51996 0.11229 0.0
N185 N 0.09068 0.57541 0.05492 0.0
H186 H 0.59461 0.00483 0.25615 0.0
H187 H 0.48788 0.1316 0.21872 0.0
H188 H 0.64938 0.13012 0.28133 0.0
H189 H 0.42039 0.00582 0.24333 0.0
H190 H 0.55147 0.13452 0.23339 0.0
H191 H 0.53443 0.00741 0.24196 0.0
C192 C 0.59415 0.03306 0.25849 0.0
C193 C 0.627 0.0673 0.27003 0.0
C194 C 0.52257 0.1065 0.23564 0.0
C195 C 0.5582 0.07044 0.25355 0.0
C196 C 0.48644 0.10474 0.22724 0.0
C197 C 0.44886 0.06842 0.22986 0.0
C198 C 0.52093 0.07136 0.24597 0.0
C199 C 0.44862 0.0345 0.24104 0.0
C200 C 0.55968 0.03439 0.25051 0.0
C201 C 0.62455 0.103 0.27264 0.0
N202 N 0.48409 0.03666 0.24838 0.0
N203 N 0.5907 0.10379 0.26431 0.0
H204 H 0.58784 0.58973 0.42331 0.0
H205 H 0.35489 0.48413 0.38404 0.0
H206 H 0.51737 0.64528 0.4471 0.0
H207 H 0.41261 0.41629 0.40911 0.0
H208 H 0.41553 0.54758 0.39889 0.0
H209 H 0.52526 0.52986 0.40865 0.0
C210 C 0.55921 0.5895 0.42526 0.0
C211 C 0.55779 0.62249 0.43654 0.0
C212 C 0.41455 0.51864 0.40118 0.0
C213 C 0.48601 0.55401 0.41953 0.0
C214 C 0.38018 0.48259 0.39268 0.0
C215 C 0.37875 0.44494 0.39539 0.0
C216 C 0.44787 0.51686 0.41171 0.0
C217 C 0.41228 0.44457 0.40674 0.0
C218 C 0.5235 0.55521 0.417 0.0
C219 C 0.5197 0.62035 0.43863 0.0
N220 N 0.44558 0.47995 0.41419 0.0
N221 N 0.48515 0.58665 0.43005 0.0
H222 H 0.8724 0.51819 0.61606 0.0
H223 H 0.9996 0.41283 0.57771 0.0
H224 H 0.99703 0.58643 0.58931 0.0
H225 H 0.87394 0.35675 0.553 0.0
H226 H 0.99663 0.47295 0.59147 0.0
H227 H 0.86959 0.45477 0.6012 0.0
C228 C 0.89901 0.51983 0.607 0.0
C229 C 0.935 0.55758 0.60388 0.0
C230 C 0.96967 0.44742 0.58311 0.0
C231 C 0.93222 0.48569 0.58757 0.0
C232 C 0.97121 0.41299 0.57538 0.0
C233 C 0.93697 0.37977 0.56412 0.0
C234 C 0.93339 0.44852 0.58011 0.0
C235 C 0.90106 0.38185 0.56149 0.0
C236 C 0.89732 0.4838 0.5985 0.0
C237 C 0.96862 0.55808 0.59202 0.0
N238 N 0.90005 0.41568 0.56961 0.0
N239 N 0.96658 0.52269 0.58462 0.0
H240 H 0.59081 0.99656 0.75078 0.0
H241 H 0.35488 0.86976 0.78284 0.0
H242 H 0.51946 0.8748 0.71981 0.0
H243 H 0.41633 0.99759 0.76279 0.0
H244 H 0.41605 0.86712 0.7689 0.0
H245 H 0.52805 0.9934 0.76569 0.0
C246 C 0.56196 0.96893 0.74736 0.0
C247 C 0.56033 0.93595 0.7339 0.0
C248 C 0.41579 0.89556 0.76754 0.0
C249 C 0.48842 0.93212 0.75119 0.0
C250 C 0.38113 0.89714 0.77552 0.0
C251 C 0.38056 0.93392 0.77386 0.0
C252 C 0.45024 0.93129 0.75868 0.0
C253 C 0.41532 0.96854 0.76424 0.0
C254 C 0.52618 0.96729 0.75577 0.0
C255 C 0.52197 0.90098 0.72998 0.0
N256 N 0.44884 0.96649 0.75731 0.0
N257 N 0.48736 0.89986 0.73869 0.0
H258 H 0.4853 0.35341 0.95081 0.0
H259 H 0.58974 0.58454 0.90899 0.0
H260 H 0.41745 0.40895 0.92177 0.0
H261 H 0.64846 0.51574 0.88822 0.0
H262 H 0.5298 0.52164 0.92291 0.0
H263 H 0.54897 0.41363 0.93579 0.0
C264 C 0.48378 0.37808 0.94121 0.0
C265 C 0.44606 0.37624 0.93755 0.0
C266 C 0.55583 0.52028 0.91537 0.0
C267 C 0.51821 0.44485 0.92099 0.0
C268 C 0.59019 0.55619 0.90754 0.0
C269 C 0.62414 0.55537 0.89734 0.0
C270 C 0.55543 0.48313 0.91349 0.0
C271 C 0.62279 0.5176 0.89586 0.0
C272 C 0.51997 0.41219 0.93261 0.0
C273 C 0.44575 0.40896 0.92497 0.0
N274 N 0.58894 0.4828 0.90402 0.0
N275 N 0.48124 0.44204 0.91747 0.0
H276 H 0.07908 0.26705 0.05029 0.0
H277 H 0.31714 0.36581 0.02317 0.0
H278 H 0.16916 0.37527 0.08998 0.0
H279 H 0.22345 0.27699 0.97312 0.0
H280 H 0.26437 0.37106 0.04769 0.0
H281 H 0.13207 0.27165 0.02138 0.0
C282 C 0.11002 0.29208 0.05276 0.0
C283 C 0.11975 0.32068 0.0727 0.0
C284 C 0.25547 0.35072 0.03119 0.0
C285 C 0.18095 0.32581 0.03978 0.0
C286 C 0.28553 0.34762 0.01725 0.0
C287 C 0.27463 0.32068 0.9962 0.0
C288 C 0.21423 0.32641 0.02415 0.0
C289 C 0.23326 0.29796 0.9893 0.0
C290 C 0.14032 0.29471 0.0362 0.0
C291 C 0.16033 0.35262 0.07483 0.0
N292 N 0.20461 0.3011 0.00336 0.0
N293 N 0.18961 0.35402 0.05879 0.0
H294 H 0.81949 0.08017 0.21497 0.0
H295 H 0.94967 0.31813 0.18648 0.0
H296 H 0.79501 0.16725 0.25301 0.0
H297 H 0.94883 0.22634 0.13648 0.0
H298 H 0.8923 0.26412 0.21073 0.0
H299 H 0.86581 0.13358 0.18544 0.0
C300 C 0.82353 0.11049 0.21692 0.0
C301 C 0.80355 0.11932 0.23661 0.0
C302 C 0.90443 0.25589 0.19428 0.0
C303 C 0.85721 0.18099 0.20302 0.0
C304 C 0.93722 0.28667 0.18048 0.0
C305 C 0.9543 0.27668 0.15958 0.0
C306 C 0.88895 0.21485 0.18727 0.0
C307 C 0.93687 0.23546 0.15258 0.0
C308 C 0.84999 0.14101 0.20002 0.0
C309 C 0.80975 0.15911 0.23809 0.0
N310 N 0.90548 0.20609 0.16653 0.0
N311 N 0.83654 0.18868 0.22176 0.0
H312 H 0.62743 0.78989 0.41915 0.0
H313 H 0.735 0.95182 0.30459 0.0
H314 H 0.74143 0.81686 0.38346 0.0
H315 H 0.6417 0.95007 0.35356 0.0
H316 H 0.7294 0.89344 0.32832 0.0
H317 H 0.62367 0.83909 0.3899 0.0
C318 C 0.65124 0.80553 0.40486 0.0
C319 C 0.68497 0.79951 0.40388 0.0
C320 C 0.71 0.90568 0.33382 0.0
C321 C 0.68093 0.85579 0.37056 0.0
C322 C 0.71317 0.93903 0.32027 0.0
C323 C 0.68905 0.95608 0.32727 0.0
C324 C 0.68232 0.88898 0.35447 0.0
C325 C 0.6611 0.93804 0.34767 0.0
C326 C 0.64923 0.83382 0.38834 0.0
C327 C 0.71507 0.82083 0.38509 0.0
N328 N 0.65857 0.9055 0.36063 0.0
N329 N 0.71242 0.84809 0.36928 0.0
H330 H 0.68692 0.63797 0.52339 0.0
H331 H 0.9252 0.74013 0.55101 0.0
H332 H 0.77995 0.72822 0.47368 0.0
H333 H 0.83643 0.6298 0.58942 0.0
H334 H 0.87188 0.73516 0.52222 0.0
H335 H 0.74026 0.63358 0.54788 0.0
C336 C 0.71851 0.65669 0.51755 0.0
C337 C 0.72905 0.68373 0.49659 0.0
C338 C 0.86401 0.71171 0.53672 0.0
C339 C 0.79007 0.67896 0.52449 0.0
C340 C 0.89449 0.71455 0.5532 0.0
C341 C 0.88521 0.68545 0.57274 0.0
C342 C 0.82362 0.67991 0.54001 0.0
C343 C 0.84491 0.65283 0.57456 0.0
C344 C 0.74889 0.65407 0.53147 0.0
C345 C 0.77041 0.70714 0.48979 0.0
N346 N 0.81541 0.65124 0.55863 0.0
N347 N 0.79935 0.70445 0.50381 0.0
H348 H 0.05538 0.78067 0.63737 0.0
H349 H 0.21332 0.83702 0.75464 0.0
H350 H 0.05487 0.68977 0.6881 0.0
H351 H 0.18798 0.92328 0.71622 0.0
H352 H 0.1649 0.78333 0.72543 0.0
H353 H 0.11319 0.83363 0.66132 0.0
C354 C 0.06757 0.77179 0.65349 0.0
C355 C 0.04999 0.73075 0.66092 0.0
C356 C 0.17036 0.81414 0.72327 0.0
C357 C 0.11647 0.79141 0.68843 0.0
C358 C 0.19819 0.84484 0.73977 0.0
C359 C 0.20446 0.88463 0.73799 0.0
C360 C 0.14912 0.8235 0.70469 0.0
C361 C 0.18381 0.89297 0.71848 0.0
C362 C 0.10061 0.8021 0.66717 0.0
C363 C 0.06733 0.72109 0.68185 0.0
N364 N 0.15702 0.86269 0.7027 0.0
N365 N 0.09956 0.75124 0.69498 0.0
H366 H 0.36544 0.05141 0.85639 0.0
H367 H 0.26021 0.18419 0.88475 0.0
H368 H 0.27437 0.05249 0.80657 0.0
H369 H 0.37283 0.20889 0.92148 0.0
H370 H 0.26547 0.13613 0.8558 0.0
H371 H 0.36914 0.1089 0.88065 0.0
C372 C 0.3464 0.06387 0.85048 0.0
C373 C 0.31933 0.04695 0.82956 0.0
C374 C 0.28933 0.15236 0.86997 0.0
C375 C 0.32326 0.11247 0.85724 0.0
C376 C 0.28632 0.17981 0.88654 0.0
C377 C 0.31601 0.20043 0.90567 0.0
C378 C 0.32191 0.14481 0.87276 0.0
C379 C 0.3493 0.19371 0.90697 0.0
C380 C 0.34863 0.09675 0.86426 0.0
C381 C 0.29551 0.0644 0.82265 0.0
N382 N 0.35106 0.16601 0.89098 0.0
N383 N 0.29776 0.09591 0.83659 0.0
H384 H 0.66824 0.68679 0.79968 0.0
H385 H 0.66353 0.89433 0.78761 0.0
H386 H 0.69877 0.76833 0.86482 0.0
H387 H 0.7074 0.84889 0.72639 0.0
H388 H 0.65844 0.83951 0.81614 0.0
H389 H 0.66444 0.73764 0.77225 0.0
C390 C 0.6737 0.71522 0.80826 0.0
C391 C 0.68401 0.72354 0.8345 0.0
C392 C 0.66881 0.84149 0.79637 0.0
C393 C 0.67909 0.78134 0.80337 0.0
C394 C 0.67145 0.87241 0.78016 0.0
C395 C 0.68583 0.87575 0.75478 0.0
C396 C 0.67971 0.81348 0.78676 0.0
C397 C 0.69616 0.84709 0.74591 0.0
C398 C 0.67166 0.74419 0.7926 0.0
C399 C 0.69098 0.76094 0.84461 0.0
N400 N 0.6927 0.81697 0.76183 0.0
N401 N 0.68823 0.78851 0.82903 0.0
H402 H 0.78599 0.62566 0.91853 0.0
H403 H 0.95067 0.73135 0.0318 0.0
H404 H 0.82063 0.74387 0.95084 0.0
H405 H 0.94425 0.63512 0.98362 0.0
H406 H 0.89337 0.72805 0.0079 0.0
H407 H 0.8339 0.62048 0.94812 0.0
C408 C 0.8031 0.65021 0.93212 0.0
C409 C 0.79949 0.68542 0.93204 0.0
C410 C 0.90433 0.70748 0.00265 0.0
C411 C 0.85435 0.67965 0.96585 0.0
C412 C 0.93703 0.7093 0.0163 0.0
C413 C 0.95256 0.68374 0.00951 0.0
C414 C 0.88669 0.67966 0.98216 0.0
C415 C 0.93343 0.65559 0.98936 0.0
C416 C 0.83065 0.64733 0.94886 0.0
C417 C 0.82266 0.71633 0.95002 0.0
N418 N 0.90154 0.65438 0.97632 0.0
N419 N 0.84915 0.71278 0.96611 0.0
H420 H 0.22551 0.94808 0.19674 0.0
H421 H 0.16933 0.79434 0.07711 0.0
H422 H 0.31658 0.95137 0.1449 0.0
H423 H 0.083 0.81803 0.11696 0.0
H424 H 0.22324 0.84233 0.10643 0.0
H425 H 0.17269 0.89107 0.17218 0.0
C426 C 0.23445 0.93667 0.18025 0.0
C427 C 0.27548 0.95478 0.1727 0.0
C428 C 0.19238 0.83664 0.10884 0.0
C429 C 0.21501 0.88927 0.14446 0.0
C430 C 0.16158 0.80908 0.09226 0.0
C431 C 0.1217 0.80247 0.09446 0.0
C432 C 0.18298 0.85717 0.1279 0.0
C433 C 0.1134 0.82254 0.11436 0.0
C434 C 0.20423 0.90409 0.16621 0.0
C435 C 0.28525 0.93846 0.15126 0.0
N436 N 0.14374 0.84901 0.13021 0.0
N437 N 0.25517 0.90668 0.13779 0.0
H438 H 0.37806 0.16511 0.24701 0.0
H439 H 0.27406 0.22097 0.363 0.0
H440 H 0.26569 0.07848 0.28451 0.0
H441 H 0.36457 0.31181 0.31231 0.0
H442 H 0.27944 0.16803 0.33936 0.0
H443 H 0.38249 0.21862 0.27602 0.0
C444 C 0.35476 0.15717 0.26164 0.0
C445 C 0.32127 0.11735 0.26321 0.0
C446 C 0.29828 0.19955 0.33345 0.0
C447 C 0.32609 0.17826 0.29628 0.0
C448 C 0.29525 0.22983 0.34696 0.0
C449 C 0.31861 0.27084 0.33945 0.0
C450 C 0.32506 0.21027 0.31232 0.0
C451 C 0.34576 0.28051 0.31861 0.0
C452 C 0.35714 0.18777 0.27802 0.0
C453 C 0.29182 0.10884 0.28242 0.0
N454 N 0.34816 0.2504 0.30568 0.0
N455 N 0.29485 0.13903 0.2981 0.0
H456 H 0.21205 0.37554 0.41311 0.0
H457 H 0.05536 0.27489 0.53098 0.0
H458 H 0.18605 0.2634 0.45104 0.0
H459 H 0.05439 0.36494 0.48014 0.0
H460 H 0.11275 0.27931 0.50672 0.0
H461 H 0.16413 0.38111 0.44262 0.0
C462 C 0.19686 0.35252 0.42792 0.0
C463 C 0.20278 0.31876 0.42949 0.0
C464 C 0.10015 0.29828 0.50092 0.0
C465 C 0.14806 0.32491 0.46312 0.0
C466 C 0.06736 0.29579 0.51478 0.0
C467 C 0.04979 0.31929 0.5074 0.0
C468 C 0.11574 0.32462 0.47956 0.0
C469 C 0.06686 0.34606 0.48635 0.0
C470 C 0.16932 0.35556 0.44459 0.0
C471 C 0.18211 0.2897 0.44894 0.0
N472 N 0.09884 0.3479 0.47307 0.0
N473 N 0.15561 0.29338 0.46489 0.0
H474 H 0.92727 0.18837 0.61934 0.0
H475 H 0.68942 0.05636 0.64939 0.0
H476 H 0.83845 0.21056 0.5815 0.0
H477 H 0.78272 0.05518 0.69687 0.0
H478 H 0.74275 0.11401 0.62497 0.0
H479 H 0.87445 0.14126 0.64884 0.0
C480 C 0.89667 0.18365 0.61742 0.0
C481 C 0.88721 0.20323 0.59779 0.0
C482 C 0.75147 0.10135 0.6409 0.0
C483 C 0.82618 0.14862 0.63138 0.0
C484 C 0.72107 0.06841 0.6548 0.0
C485 C 0.73168 0.05073 0.67506 0.0
C486 C 0.79274 0.11645 0.64719 0.0
C487 C 0.77313 0.06764 0.6813 0.0
C488 C 0.86647 0.15671 0.63431 0.0
C489 C 0.84708 0.19615 0.59637 0.0
N490 N 0.8021 0.09926 0.66729 0.0
N491 N 0.81785 0.16893 0.61271 0.0
H492 H 0.16696 0.23255 0.30211 0.0
H493 H 0.13086 0.36782 0.19764 0.0
H494 H 0.23309 0.36439 0.30418 0.0
H495 H 0.06309 0.23608 0.20103 0.0
H496 H 0.16913 0.3685 0.23622 0.0
H497 H 0.12986 0.23465 0.26444 0.0
C498 C 0.17382 0.26208 0.29466 0.0
C499 C 0.2033 0.29838 0.30651 0.0
C500 C 0.14579 0.33953 0.22848 0.0
C501 C 0.16037 0.30094 0.26295 0.0
C502 C 0.12386 0.33908 0.20649 0.0
C503 C 0.0937 0.30182 0.19592 0.0
C504 C 0.13751 0.30246 0.23995 0.0
C505 C 0.08606 0.26559 0.20828 0.0
C506 C 0.15244 0.26322 0.27305 0.0
C507 C 0.21066 0.33562 0.29573 0.0
N508 N 0.10782 0.26688 0.22949 0.0
N509 N 0.1893 0.33595 0.27455 0.0
H510 H 0.94431 0.17614 0.46659 0.0
H511 H 0.76836 0.13234 0.36378 0.0
H512 H 0.86935 0.2323 0.47261 0.0
H513 H 0.84232 0.07472 0.3639 0.0
H514 H 0.8048 0.1708 0.40267 0.0
H515 H 0.90758 0.14093 0.42786 0.0
C516 C 0.92006 0.18115 0.45981 0.0
C517 C 0.90988 0.2072 0.47312 0.0
C518 C 0.8129 0.14968 0.3941 0.0
C519 C 0.8672 0.16644 0.42825 0.0
C520 C 0.79213 0.1277 0.37192 0.0
C521 C 0.80219 0.10015 0.36044 0.0
C522 C 0.84396 0.1441 0.40479 0.0
C523 C 0.8333 0.09548 0.37191 0.0
C524 C 0.89899 0.1609 0.43755 0.0
C525 C 0.87824 0.21248 0.46305 0.0
N526 N 0.85294 0.11717 0.3933 0.0
N527 N 0.85791 0.19217 0.44122 0.0
H528 H 0.76213 0.95507 0.62397 0.0
H529 H 0.63347 0.76209 0.53173 0.0
H530 H 0.63649 0.86551 0.6401 0.0
H531 H 0.76354 0.84488 0.52676 0.0
H532 H 0.63084 0.80118 0.56902 0.0
H533 H 0.75958 0.9175 0.58537 0.0
C534 C 0.73384 0.92748 0.61938 0.0
C535 C 0.69959 0.91325 0.63557 0.0
C536 C 0.65985 0.81063 0.55967 0.0
C537 C 0.69654 0.86956 0.59103 0.0
C538 C 0.66141 0.78837 0.53841 0.0
C539 C 0.69881 0.80005 0.52605 0.0
C540 C 0.69588 0.84491 0.56843 0.0
C541 C 0.73398 0.83441 0.53558 0.0
C542 C 0.73243 0.90592 0.59725 0.0
C543 C 0.66367 0.87754 0.62824 0.0
N544 N 0.73158 0.85549 0.55607 0.0
N545 N 0.66314 0.85669 0.60655 0.0
H546 H 0.87078 0.63513 0.69692 0.0
H547 H 0.84105 0.76717 0.80689 0.0
H548 H 0.94175 0.76642 0.70375 0.0
H549 H 0.76948 0.63549 0.80496 0.0
H550 H 0.8781 0.76587 0.76906 0.0
H551 H 0.83356 0.63307 0.73638 0.0
C552 C 0.87867 0.66347 0.70669 0.0
C553 C 0.9094 0.70104 0.69683 0.0
C554 C 0.85437 0.73714 0.77682 0.0
C555 C 0.86692 0.69882 0.74189 0.0
C556 C 0.83301 0.73783 0.79854 0.0
C557 C 0.80188 0.70135 0.80925 0.0
C558 C 0.84472 0.6997 0.7654 0.0
C559 C 0.79321 0.66438 0.7974 0.0
C560 C 0.85737 0.66224 0.72919 0.0
C561 C 0.91825 0.73672 0.71039 0.0
N562 N 0.81448 0.66449 0.77605 0.0
N563 N 0.89712 0.73467 0.73207 0.0
H564 H 0.16763 0.93597 0.86462 0.0
H565 H 0.12833 0.76456 0.96975 0.0
H566 H 0.23209 0.86853 0.86337 0.0
H567 H 0.06354 0.83158 0.96652 0.0
H568 H 0.16663 0.80109 0.93098 0.0
H569 H 0.12992 0.8974 0.90229 0.0
C570 C 0.17398 0.91303 0.87224 0.0
C571 C 0.2032 0.90556 0.86063 0.0
C572 C 0.14393 0.80763 0.93878 0.0
C573 C 0.15958 0.86084 0.90421 0.0
C574 C 0.12198 0.78674 0.96089 0.0
C575 C 0.09266 0.79502 0.97156 0.0
C576 C 0.13653 0.83699 0.9273 0.0
C577 C 0.08584 0.82414 0.95918 0.0
C578 C 0.15226 0.89089 0.89385 0.0
C579 C 0.20989 0.87538 0.87163 0.0
N580 N 0.10762 0.84402 0.93784 0.0
N581 N 0.18822 0.85408 0.89282 0.0
H582 H 0.36906 0.13162 0.13754 0.0
H583 H 0.23426 0.17252 0.03527 0.0
H584 H 0.23719 0.06884 0.13631 0.0
H585 H 0.36577 0.23251 0.03009 0.0
H586 H 0.2364 0.13639 0.0734 0.0
H587 H 0.37002 0.17034 0.0991 0.0
C588 C 0.34036 0.12588 0.12923 0.0
C589 C 0.30299 0.09686 0.1403 0.0
C590 C 0.2649 0.15741 0.06401 0.0
C591 C 0.30395 0.14114 0.09646 0.0
C592 C 0.26373 0.17821 0.04212 0.0
C593 C 0.29991 0.20563 0.02924 0.0
C594 C 0.30252 0.16382 0.07336 0.0
C595 C 0.33709 0.21165 0.03933 0.0
C596 C 0.34097 0.14803 0.10731 0.0
C597 C 0.2668 0.09081 0.12863 0.0
N598 N 0.33745 0.19084 0.06079 0.0
N599 N 0.26826 0.11272 0.10749 0.0
loop_
_geom_bond_atom_site_label_1
_geom_bond_atom_site_label_2
_geom_bond_distance
_geom_bond_site_symmetry_2
_ccdc_geom_bond_type
Co0 O1 2.216 . S
Co0 O2 2.091 . S
Co0 O4 2.004 . S
Co0 O10 2.021 . S
Co0 O12 2.137 1_455 S
Co0 O13 2.244 . S
O1 Co0 2.216 . S
O1 C8 1.247 . S
O2 Co0 2.091 . S
O2 C8 1.261 . S
C3 O12 1.247 . S
C3 O13 1.272 1_655 S
O4 Co0 2.004 . S
O4 C9 1.259 . S
Co5 O6 2.061 . S
Co5 O11 2.052 . S
Co5 O13 2.135 . S
O6 Co5 2.061 . S
O6 C9 1.235 . S
C7 O10 1.238 . S
C7 O11 1.241 . S
C8 O1 1.247 . S
C8 O2 1.261 . S
C9 O4 1.259 . S
C9 O6 1.235 . S
O10 Co0 2.021 . S
O10 C7 1.238 . S
O11 Co5 2.052 . S
O11 C7 1.241 . S
O12 Co0 2.137 1_655 S
O12 C3 1.247 . S
O13 Co0 2.244 . S
O13 C3 1.272 1_455 S
O13 Co5 2.135 . S
Co14 O15 2.216 . S
Co14 O16 2.091 . S
Co14 O18 2.004 . S
Co14 O24 2.021 . S
Co14 O26 2.137 1_545 S
Co14 O27 2.244 . S
O15 Co14 2.216 . S
O15 C22 1.247 . S
O16 Co14 2.091 . S
O16 C22 1.261 . S
C17 O26 1.247 . S
C17 O27 1.272 1_565 S
O18 Co14 2.004 . S
O18 C23 1.259 . S
Co19 O20 2.061 . S
Co19 O25 2.052 . S
Co19 O27 2.135 . S
O20 Co19 2.061 . S
O20 C23 1.235 . S
C21 O24 1.238 . S
C21 O25 1.241 . S
C22 O15 1.247 . S
C22 O16 1.261 . S
C23 O18 1.259 . S
C23 O20 1.235 . S
O24 Co14 2.021 . S
O24 C21 1.238 . S
O25 Co19 2.052 . S
O25 C21 1.241 . S
O26 Co14 2.137 1_565 S
O26 C17 1.247 . S
O27 Co14 2.244 . S
O27 C17 1.272 1_545 S
O27 Co19 2.135 . S
Co28 O29 2.216 . S
Co28 O30 2.091 . S
Co28 O32 2.004 . S
Co28 O38 2.021 . S
Co28 O40 2.137 . S
Co28 O41 2.244 . S
O29 Co28 2.216 . S
O29 C36 1.247 . S
O30 Co28 2.091 . S
O30 C36 1.261 . S
C31 O40 1.247 . S
C31 O41 1.272 . S
O32 Co28 2.004 . S
O32 C37 1.259 . S
Co33 O34 2.061 . S
Co33 O39 2.052 . S
Co33 O41 2.135 . S
O34 Co33 2.061 . S
O34 C37 1.235 . S
C35 O38 1.238 . S
C35 O39 1.241 . S
C36 O29 1.247 . S
C36 O30 1.261 . S
C37 O32 1.259 . S
C37 O34 1.235 . S
O38 Co28 2.021 . S
O38 C35 1.238 . S
O39 Co33 2.052 . S
O39 C35 1.241 . S
O40 Co28 2.137 . S
O40 C31 1.247 . S
O41 Co28 2.244 . S
O41 C31 1.272 . S
O41 Co33 2.135 . S
Co42 O43 2.216 . S
Co42 O44 2.091 . S
Co42 O46 2.004 . S
Co42 O52 2.021 . S
Co42 O54 2.137 1_655 S
Co42 O55 2.244 . S
O43 Co42 2.216 . S
O43 C50 1.247 . S
O44 Co42 2.091 . S
O44 C50 1.261 . S
C45 O54 1.247 . S
C45 O55 1.272 1_455 S
O46 Co42 2.004 . S
O46 C51 1.259 . S
Co47 O48 2.061 . S
Co47 O53 2.052 . S
Co47 O55 2.135 . S
O48 Co47 2.061 . S
O48 C51 1.235 . S
C49 O52 1.238 . S
C49 O53 1.241 . S
C50 O43 1.247 . S
C50 O44 1.261 . S
C51 O46 1.259 . S
C51 O48 1.235 . S
O52 Co42 2.021 . S
O52 C49 1.238 . S
O53 Co47 2.052 . S
O53 C49 1.241 . S
O54 Co42 2.137 1_455 S
O54 C45 1.247 . S
O55 Co42 2.244 . S
O55 C45 1.272 1_655 S
O55 Co47 2.135 . S
Co56 O57 2.216 . S
Co56 O58 2.091 . S
Co56 O60 2.004 . S
Co56 O66 2.021 . S
Co56 O68 2.137 1_565 S
Co56 O69 2.244 . S
O57 Co56 2.216 . S
O57 C64 1.247 . S
O58 Co56 2.091 . S
O58 C64 1.261 . S
C59 O68 1.247 . S
C59 O69 1.272 1_545 S
O60 Co56 2.004 . S
O60 C65 1.259 . S
Co61 O62 2.061 . S
Co61 O67 2.052 . S
Co61 O69 2.135 . S
O62 Co61 2.061 . S
O62 C65 1.235 . S
C63 O66 1.238 . S
C63 O67 1.241 . S
C64 O57 1.247 . S
C64 O58 1.261 . S
C65 O60 1.259 . S
C65 O62 1.235 . S
O66 Co56 2.021 . S
O66 C63 1.238 . S
O67 Co61 2.052 . S
O67 C63 1.241 . S
O68 Co56 2.137 1_545 S
O68 C59 1.247 . S
O69 Co56 2.244 . S
O69 C59 1.272 1_565 S
O69 Co61 2.135 . S
Co70 O71 2.216 . S
Co70 O72 2.091 . S
Co70 O74 1.971 1_556 S
Co70 O80 2.021 . S
Co70 O82 2.137 . S
Co70 O83 2.244 . S
O71 Co70 2.216 . S
O71 C78 1.247 . S
O72 Co70 2.091 . S
O72 C78 1.261 . S
C73 O82 1.247 . S
C73 O83 1.272 . S
O74 Co70 1.971 1_554 S
O74 C79 1.274 . S
Co75 O76 2.063 1_556 S
Co75 O81 2.052 . S
Co75 O83 2.135 . S
O76 Co75 2.063 1_554 S
O76 C79 1.234 . S
C77 O80 1.238 . S
C77 O81 1.241 . S
C78 O71 1.247 . S
C78 O72 1.261 . S
C79 O74 1.274 . S
C79 O76 1.234 . S
O80 Co70 2.021 . S
O80 C77 1.238 . S
O81 Co75 2.052 . S
O81 C77 1.241 . S
O82 Co70 2.137 . S
O82 C73 1.247 . S
O83 Co70 2.244 . S
O83 C73 1.272 . S
O83 Co75 2.135 . S
Co84 O85 2.216 . S
Co84 O86 2.091 . S
Co84 O88 2.004 . S
Co84 O94 2.021 . S
Co84 O96 2.137 1_565 S
Co84 O97 2.244 . S
O85 Co84 2.216 . S
O85 C92 1.247 . S
O86 Co84 2.091 . S
O86 C92 1.261 . S
C87 O96 1.247 . S
C87 O97 1.272 1_545 S
O88 Co84 2.004 . S
O88 C93 1.259 . S
Co89 O90 2.061 . S
Co89 O95 2.052 . S
Co89 O97 2.135 . S
O90 Co89 2.061 . S
O90 C93 1.235 . S
C91 O94 1.238 . S
C91 O95 1.241 . S
C92 O85 1.247 . S
C92 O86 1.261 . S
C93 O88 1.259 . S
C93 O90 1.235 . S
O94 Co84 2.021 . S
O94 C91 1.238 . S
O95 Co89 2.052 . S
O95 C91 1.241 . S
O96 Co84 2.137 1_545 S
O96 C87 1.247 . S
O97 Co84 2.244 . S
O97 C87 1.272 1_565 S
O97 Co89 2.135 . S
Co98 O99 2.216 . S
Co98 O100 2.091 . S
Co98 O102 2.004 . S
Co98 O108 2.021 . S
Co98 O110 2.137 . S
Co98 O111 2.244 . S
O99 Co98 2.216 . S
O99 C106 1.247 . S
O100 Co98 2.091 . S
O100 C106 1.261 . S
C101 O110 1.247 . S
C101 O111 1.272 . S
O102 Co98 2.004 . S
O102 C107 1.259 . S
Co103 O104 2.061 . S
Co103 O109 2.052 . S
Co103 O111 2.135 . S
O104 Co103 2.061 . S
O104 C107 1.235 . S
C105 O108 1.238 . S
C105 O109 1.241 . S
C106 O99 1.247 . S
C106 O100 1.261 . S
C107 O102 1.259 . S
C107 O104 1.235 . S
O108 Co98 2.021 . S
O108 C105 1.238 . S
O109 Co103 2.052 . S
O109 C105 1.241 . S
O110 Co98 2.137 . S
O110 C101 1.247 . S
O111 Co98 2.244 . S
O111 C101 1.272 . S
O111 Co103 2.135 . S
Co112 O113 2.216 . S
Co112 O114 2.091 . S
Co112 O116 1.971 1_554 S
Co112 O122 2.021 . S
Co112 O124 2.137 1_455 S
Co112 O125 2.244 . S
O113 Co112 2.216 . S
O113 C120 1.247 . S
O114 Co112 2.091 . S
O114 C120 1.261 . S
C115 O124 1.247 . S
C115 O125 1.272 1_655 S
O116 Co112 1.971 1_556 S
O116 C121 1.274 . S
Co117 O118 2.063 1_554 S
Co117 O123 2.052 . S
Co117 O125 2.135 . S
O118 Co117 2.063 1_556 S
O118 C121 1.234 . S
C119 O122 1.238 . S
C119 O123 1.241 . S
C120 O113 1.247 . S
C120 O114 1.261 . S
C121 O116 1.274 . S
C121 O118 1.234 . S
O122 Co112 2.021 . S
O122 C119 1.238 . S
O123 Co117 2.052 . S
O123 C119 1.241 . S
O124 Co112 2.137 1_655 S
O124 C115 1.247 . S
O125 Co112 2.244 . S
O125 C115 1.272 1_455 S
O125 Co117 2.135 . S
Co126 O127 2.216 . S
Co126 O128 2.091 . S
Co126 O130 2.004 . S
Co126 O136 2.021 . S
Co126 O138 2.137 1_545 S
Co126 O139 2.244 . S
O127 Co126 2.216 . S
O127 C134 1.247 . S
O128 Co126 2.091 . S
O128 C134 1.261 . S
C129 O138 1.247 . S
C129 O139 1.272 1_565 S
O130 Co126 2.004 . S
O130 C135 1.259 . S
Co131 O132 2.061 . S
Co131 O137 2.052 . S
Co131 O139 2.135 . S
O132 Co131 2.061 . S
O132 C135 1.235 . S
C133 O136 1.238 . S
C133 O137 1.241 . S
C134 O127 1.247 . S
C134 O128 1.261 . S
C135 O130 1.259 . S
C135 O132 1.235 . S
O136 Co126 2.021 . S
O136 C133 1.238 . S
O137 Co131 2.052 . S
O137 C133 1.241 . S
O138 Co126 2.137 1_565 S
O138 C129 1.247 . S
O139 Co126 2.244 . S
O139 C129 1.272 1_545 S
O139 Co131 2.135 . S
Co140 O141 2.216 . S
Co140 O142 2.091 . S
Co140 O144 2.004 . S
Co140 O150 2.021 . S
Co140 O152 2.137 . S
Co140 O153 2.244 . S
O141 Co140 2.216 . S
O141 C148 1.247 . S
O142 Co140 2.091 . S
O142 C148 1.261 . S
C143 O152 1.247 . S
C143 O153 1.272 . S
O144 Co140 2.004 . S
O144 C149 1.259 . S
Co145 O146 2.061 . S
Co145 O151 2.052 . S
Co145 O153 2.135 . S
O146 Co145 2.061 . S
O146 C149 1.235 . S
C147 O150 1.238 . S
C147 O151 1.241 . S
C148 O141 1.247 . S
C148 O142 1.261 . S
C149 O144 1.259 . S
C149 O146 1.235 . S
O150 Co140 2.021 . S
O150 C147 1.238 . S
O151 Co145 2.052 . S
O151 C147 1.241 . S
O152 Co140 2.137 . S
O152 C143 1.247 . S
O153 Co140 2.244 . S
O153 C143 1.272 . S
O153 Co145 2.135 . S
Co154 O155 2.216 . S
Co154 O156 2.091 . S
Co154 O158 2.004 . S
Co154 O164 2.021 . S
Co154 O166 2.137 1_655 S
Co154 O167 2.244 . S
O155 Co154 2.216 . S
O155 C162 1.247 . S
O156 Co154 2.091 . S
O156 C162 1.261 . S
C157 O166 1.247 . S
C157 O167 1.272 1_455 S
O158 Co154 2.004 . S
O158 C163 1.259 . S
Co159 O160 2.061 . S
Co159 O165 2.052 . S
Co159 O167 2.135 . S
O160 Co159 2.061 . S
O160 C163 1.235 . S
C161 O164 1.238 . S
C161 O165 1.241 . S
C162 O155 1.247 . S
C162 O156 1.261 . S
C163 O158 1.259 . S
C163 O160 1.235 . S
O164 Co154 2.021 . S
O164 C161 1.238 . S
O165 Co159 2.052 . S
O165 C161 1.241 . S
O166 Co154 2.137 1_455 S
O166 C157 1.247 . S
O167 Co154 2.244 . S
O167 C157 1.272 1_655 S
O167 Co159 2.135 . S
H168 C174 0.930 . S
H169 C178 0.930 . S
H170 C183 0.929 . S
H171 C181 0.929 . S
H172 C176 0.929 . S
H173 C182 0.929 . S
C174 H168 0.930 . S
C174 C175 1.367 . S
C174 C182 1.378 . S
C175 C174 1.367 . S
C175 C183 1.433 . S
C176 H172 0.929 . S
C176 C178 1.378 . S
C176 C180 1.350 . S
C177 C180 1.463 . S
C177 C182 1.350 . S
C177 N185 1.427 . S
C178 H169 0.930 . S
C178 C176 1.378 . S
C178 C179 1.367 . S
C179 C178 1.367 . S
C179 C181 1.433 . S
C180 C176 1.350 . S
C180 C177 1.463 . S
C180 N184 1.427 . S
C181 H171 0.929 . S
C181 C179 1.433 . S
C181 N184 1.384 . S
C182 H173 0.929 . S
C182 C174 1.378 . S
C182 C177 1.350 . S
C183 H170 0.929 . S
C183 C175 1.433 . S
C183 N185 1.384 . S
N184 C180 1.427 . S
N184 C181 1.384 . S
N185 C177 1.427 . S
N185 C183 1.384 . S
H186 C192 0.930 1_565 S
H187 C196 0.930 . S
H188 C201 0.929 . S
H189 C199 0.929 1_565 S
H190 C194 0.929 . S
H191 C200 0.929 1_565 S
C192 H186 0.930 1_545 S
C192 C193 1.367 . S
C192 C200 1.378 . S
C193 C192 1.367 . S
C193 C201 1.433 . S
C194 H190 0.929 . S
C194 C196 1.378 . S
C194 C198 1.350 . S
C195 C198 1.463 . S
C195 C200 1.350 . S
C195 N203 1.427 . S
C196 H187 0.930 . S
C196 C194 1.378 . S
C196 C197 1.367 . S
C197 C196 1.367 . S
C197 C199 1.433 . S
C198 C194 1.350 . S
C198 C195 1.463 . S
C198 N202 1.427 . S
C199 H189 0.929 1_545 S
C199 C197 1.433 . S
C199 N202 1.384 . S
C200 H191 0.929 1_545 S
C200 C192 1.378 . S
C200 C195 1.350 . S
C201 H188 0.929 . S
C201 C193 1.433 . S
C201 N203 1.384 . S
N202 C198 1.427 . S
N202 C199 1.384 . S
N203 C195 1.427 . S
N203 C201 1.384 . S
H204 C210 0.930 . S
H205 C214 0.930 . S
H206 C219 0.929 . S
H207 C217 0.929 . S
H208 C212 0.929 . S
H209 C218 0.929 . S
C210 H204 0.930 . S
C210 C211 1.367 . S
C210 C218 1.378 . S
C211 C210 1.367 . S
C211 C219 1.433 . S
C212 H208 0.929 . S
C212 C214 1.378 . S
C212 C216 1.350 . S
C213 C216 1.463 . S
C213 C218 1.350 . S
C213 N221 1.427 . S
C214 H205 0.930 . S
C214 C212 1.378 . S
C214 C215 1.367 . S
C215 C214 1.367 . S
C215 C217 1.433 . S
C216 C212 1.350 . S
C216 C213 1.463 . S
C216 N220 1.427 . S
C217 H207 0.929 . S
C217 C215 1.433 . S
C217 N220 1.384 . S
C218 H209 0.929 . S
C218 C210 1.378 . S
C218 C213 1.350 . S
C219 H206 0.929 . S
C219 C211 1.433 . S
C219 N221 1.384 . S
N220 C216 1.427 . S
N220 C217 1.384 . S
N221 C213 1.427 . S
N221 C219 1.384 . S
H222 C228 0.930 . S
H223 C232 0.930 1_455 S
H224 C237 0.929 1_455 S
H225 C235 0.929 . S
H226 C230 0.929 1_455 S
H227 C236 0.929 . S
C228 H222 0.930 . S
C228 C229 1.367 . S
C228 C236 1.378 . S
C229 C228 1.367 . S
C229 C237 1.433 . S
C230 H226 0.929 1_655 S
C230 C232 1.378 . S
C230 C234 1.350 . S
C231 C234 1.463 . S
C231 C236 1.350 . S
C231 N239 1.427 . S
C232 H223 0.930 1_655 S
C232 C230 1.378 . S
C232 C233 1.367 . S
C233 C232 1.367 . S
C233 C235 1.433 . S
C234 C230 1.350 . S
C234 C231 1.463 . S
C234 N238 1.427 . S
C235 H225 0.929 . S
C235 C233 1.433 . S
C235 N238 1.384 . S
C236 H227 0.929 . S
C236 C228 1.378 . S
C236 C231 1.350 . S
C237 H224 0.929 1_655 S
C237 C229 1.433 . S
C237 N239 1.384 . S
N238 C234 1.427 . S
N238 C235 1.384 . S
N239 C231 1.427 . S
N239 C237 1.384 . S
H240 C246 0.924 1_545 S
H241 C250 0.930 . S
H242 C255 0.929 . S
H243 C253 0.902 1_545 S
H244 C248 0.929 . S
H245 C254 0.913 1_545 S
C246 H240 0.924 1_565 S
C246 C247 1.367 . S
C246 C254 1.378 . S
C247 C246 1.367 . S
C247 C255 1.433 . S
C248 H244 0.929 . S
C248 C250 1.378 . S
C248 C252 1.350 . S
C249 C252 1.463 . S
C249 C254 1.350 . S
C249 N257 1.427 . S
C250 H241 0.930 . S
C250 C248 1.378 . S
C250 C251 1.367 . S
C251 C250 1.367 . S
C251 C253 1.433 . S
C252 C248 1.350 . S
C252 C249 1.463 . S
C252 N256 1.427 . S
C253 H243 0.902 1_565 S
C253 C251 1.433 . S
C253 N256 1.384 . S
C254 H245 0.913 1_565 S
C254 C246 1.378 . S
C254 C249 1.350 . S
C255 H242 0.929 . S
C255 C247 1.433 . S
C255 N257 1.384 . S
N256 C252 1.427 . S
N256 C253 1.384 . S
N257 C249 1.427 . S
N257 C255 1.384 . S
H258 C264 0.930 . S
H259 C268 0.930 . S
H260 C273 0.929 . S
H261 C271 0.929 . S
H262 C266 0.929 . S
H263 C272 0.929 . S
C264 H258 0.930 . S
C264 C265 1.367 . S
C264 C272 1.378 . S
C265 C264 1.367 . S
C265 C273 1.433 . S
C266 H262 0.929 . S
C266 C268 1.378 . S
C266 C270 1.350 . S
C267 C270 1.463 . S
C267 C272 1.350 . S
C267 N275 1.427 . S
C268 H259 0.930 . S
C268 C266 1.378 . S
C268 C269 1.367 . S
C269 C268 1.367 . S
C269 C271 1.433 . S
C270 C266 1.350 . S
C270 C267 1.463 . S
C270 N274 1.427 . S
C271 H261 0.929 . S
C271 C269 1.433 . S
C271 N274 1.384 . S
C272 H263 0.929 . S
C272 C264 1.378 . S
C272 C267 1.350 . S
C273 H260 0.929 . S
C273 C265 1.433 . S
C273 N275 1.384 . S
N274 C270 1.427 . S
N274 C271 1.384 . S
N275 C267 1.427 . S
N275 C273 1.384 . S
H276 C282 0.930 . S
H277 C286 0.931 . S
H278 C291 0.929 . S
H279 C289 0.929 . S
H280 C284 0.929 . S
H281 C290 0.929 . S
C282 H276 0.930 . S
C282 C283 1.367 . S
C282 C290 1.378 . S
C283 C282 1.367 . S
C283 C291 1.433 . S
C284 H280 0.929 . S
C284 C286 1.378 1_554 S
C284 C288 1.350 . S
C285 C288 1.463 . S
C285 C290 1.350 . S
C285 N293 1.427 . S
C286 H277 0.931 . S
C286 C284 1.378 1_556 S
C286 C287 1.367 . S
C287 C286 1.367 . S
C287 C289 1.433 1_556 S
C288 C284 1.350 . S
C288 C285 1.463 . S
C288 N292 1.427 . S
C289 H279 0.929 . S
C289 C287 1.433 1_554 S
C289 N292 1.384 . S
C290 H281 0.929 . S
C290 C282 1.378 . S
C290 C285 1.350 . S
C291 H278 0.929 . S
C291 C283 1.433 . S
C291 N293 1.384 . S
N292 C288 1.427 . S
N292 C289 1.384 . S
N293 C285 1.427 . S
N293 C291 1.384 . S
H294 C300 0.930 . S
H295 C304 0.930 . S
H296 C309 0.929 . S
H297 C307 0.929 . S
H298 C302 0.929 . S
H299 C308 0.929 . S
C300 H294 0.930 . S
C300 C301 1.367 . S
C300 C308 1.378 . S
C301 C300 1.367 . S
C301 C309 1.433 . S
C302 H298 0.929 . S
C302 C304 1.378 . S
C302 C306 1.350 . S
C303 C306 1.463 . S
C303 C308 1.350 . S
C303 N311 1.427 . S
C304 H295 0.930 . S
C304 C302 1.378 . S
C304 C305 1.367 . S
C305 C304 1.367 . S
C305 C307 1.433 . S
C306 C302 1.350 . S
C306 C303 1.463 . S
C306 N310 1.427 . S
C307 H297 0.929 . S
C307 C305 1.433 . S
C307 N310 1.384 . S
C308 H299 0.929 . S
C308 C300 1.378 . S
C308 C303 1.350 . S
C309 H296 0.929 . S
C309 C301 1.433 . S
C309 N311 1.384 . S
N310 C306 1.427 . S
N310 C307 1.384 . S
N311 C303 1.427 . S
N311 C309 1.384 . S
H312 C318 0.930 . S
H313 C322 0.930 . S
H314 C327 0.929 . S
H315 C325 0.929 . S
H316 C320 0.929 . S
H317 C326 0.929 . S
C318 H312 0.930 . S
C318 C319 1.367 . S
C318 C326 1.378 . S
C319 C318 1.367 . S
C319 C327 1.433 . S
C320 H316 0.929 . S
C320 C322 1.378 . S
C320 C324 1.350 . S
C321 C324 1.463 . S
C321 C326 1.350 . S
C321 N329 1.427 . S
C322 H313 0.930 . S
C322 C320 1.378 . S
C322 C323 1.367 . S
C323 C322 1.367 . S
C323 C325 1.433 . S
C324 C320 1.350 . S
C324 C321 1.463 . S
C324 N328 1.427 . S
C325 H315 0.929 . S
C325 C323 1.433 . S
C325 N328 1.384 . S
C326 H317 0.929 . S
C326 C318 1.378 . S
C326 C321 1.350 . S
C327 H314 0.929 . S
C327 C319 1.433 . S
C327 N329 1.384 . S
N328 C324 1.427 . S
N328 C325 1.384 . S
N329 C321 1.427 . S
N329 C327 1.384 . S
H330 C336 0.930 . S
H331 C340 0.930 . S
H332 C345 0.929 . S
H333 C343 0.929 . S
H334 C338 0.929 . S
H335 C344 0.929 . S
C336 H330 0.930 . S
C336 C337 1.367 . S
C336 C344 1.378 . S
C337 C336 1.367 . S
C337 C345 1.433 . S
C338 H334 0.929 . S
C338 C340 1.378 . S
C338 C342 1.350 . S
C339 C342 1.463 . S
C339 C344 1.350 . S
C339 N347 1.427 . S
C340 H331 0.930 . S
C340 C338 1.378 . S
C340 C341 1.367 . S
C341 C340 1.367 . S
C341 C343 1.433 . S
C342 C338 1.350 . S
C342 C339 1.463 . S
C342 N346 1.427 . S
C343 H333 0.929 . S
C343 C341 1.433 . S
C343 N346 1.384 . S
C344 H335 0.929 . S
C344 C336 1.378 . S
C344 C339 1.350 . S
C345 H332 0.929 . S
C345 C337 1.433 . S
C345 N347 1.384 . S
N346 C342 1.427 . S
N346 C343 1.384 . S
N347 C339 1.427 . S
N347 C345 1.384 . S
H348 C354 0.930 . S
H349 C358 0.930 . S
H350 C363 0.929 . S
H351 C361 0.929 . S
H352 C356 0.929 . S
H353 C362 0.929 . S
C354 H348 0.930 . S
C354 C355 1.367 . S
C354 C362 1.378 . S
C355 C354 1.367 . S
C355 C363 1.433 . S
C356 H352 0.929 . S
C356 C358 1.378 . S
C356 C360 1.350 . S
C357 C360 1.463 . S
C357 C362 1.350 . S
C357 N365 1.427 . S
C358 H349 0.930 . S
C358 C356 1.378 . S
C358 C359 1.367 . S
C359 C358 1.367 . S
C359 C361 1.433 . S
C360 C356 1.350 . S
C360 C357 1.463 . S
C360 N364 1.427 . S
C361 H351 0.929 . S
C361 C359 1.433 . S
C361 N364 1.384 . S
C362 H353 0.929 . S
C362 C354 1.378 . S
C362 C357 1.350 . S
C363 H350 0.929 . S
C363 C355 1.433 . S
C363 N365 1.384 . S
N364 C360 1.427 . S
N364 C361 1.384 . S
N365 C357 1.427 . S
N365 C363 1.384 . S
H366 C372 0.930 . S
H367 C376 0.930 . S
H368 C381 0.929 . S
H369 C379 0.929 . S
H370 C374 0.929 . S
H371 C380 0.929 . S
C372 H366 0.930 . S
C372 C373 1.367 . S
C372 C380 1.378 . S
C373 C372 1.367 . S
C373 C381 1.433 . S
C374 H370 0.929 . S
C374 C376 1.378 . S
C374 C378 1.350 . S
C375 C378 1.463 . S
C375 C380 1.350 . S
C375 N383 1.427 . S
C376 H367 0.930 . S
C376 C374 1.378 . S
C376 C377 1.367 . S
C377 C376 1.367 . S
C377 C379 1.433 . S
C378 C374 1.350 . S
C378 C375 1.463 . S
C378 N382 1.427 . S
C379 H369 0.929 . S
C379 C377 1.433 . S
C379 N382 1.384 . S
C380 H371 0.929 . S
C380 C372 1.378 . S
C380 C375 1.350 . S
C381 H368 0.929 . S
C381 C373 1.433 . S
C381 N383 1.384 . S
N382 C378 1.427 . S
N382 C379 1.384 . S
N383 C375 1.427 . S
N383 C381 1.384 . S
H384 C390 0.930 . S
H385 C394 0.930 . S
H386 C399 0.929 . S
H387 C397 0.929 . S
H388 C392 0.929 . S
H389 C398 0.929 . S
C390 H384 0.930 . S
C390 C391 1.367 . S
C390 C398 1.378 . S
C391 C390 1.367 . S
C391 C399 1.433 . S
C392 H388 0.929 . S
C392 C394 1.378 . S
C392 C396 1.350 . S
C393 C396 1.463 . S
C393 C398 1.350 . S
C393 N401 1.427 . S
C394 H385 0.930 . S
C394 C392 1.378 . S
C394 C395 1.367 . S
C395 C394 1.367 . S
C395 C397 1.433 . S
C396 C392 1.350 . S
C396 C393 1.463 . S
C396 N400 1.427 . S
C397 H387 0.929 . S
C397 C395 1.433 . S
C397 N400 1.384 . S
C398 H389 0.929 . S
C398 C390 1.378 . S
C398 C393 1.350 . S
C399 H386 0.929 . S
C399 C391 1.433 . S
C399 N401 1.384 . S
N400 C396 1.427 . S
N400 C397 1.384 . S
N401 C393 1.427 . S
N401 C399 1.384 . S
H402 C408 0.930 . S
H403 C412 0.930 . S
H404 C417 0.929 . S
H405 C415 0.929 . S
H406 C410 0.929 . S
H407 C416 0.929 . S
C408 H402 0.930 . S
C408 C409 1.367 . S
C408 C416 1.378 . S
C409 C408 1.367 . S
C409 C417 1.433 . S
C410 H406 0.929 . S
C410 C412 1.378 . S
C410 C414 1.350 . S
C411 C414 1.463 . S
C411 C416 1.350 . S
C411 N419 1.427 . S
C412 H403 0.930 . S
C412 C410 1.378 . S
C412 C413 1.345 1_556 S
C413 C412 1.345 1_554 S
C413 C415 1.435 . S
C414 C410 1.350 . S
C414 C411 1.463 . S
C414 N418 1.427 . S
C415 H405 0.929 . S
C415 C413 1.435 . S
C415 N418 1.384 1_554 S
C416 H407 0.929 . S
C416 C408 1.378 . S
C416 C411 1.350 . S
C417 H404 0.929 . S
C417 C409 1.433 . S
C417 N419 1.384 . S
N418 C414 1.427 . S
N418 C415 1.384 1_556 S
N419 C411 1.427 . S
N419 C417 1.384 . S
H420 C426 0.930 . S
H421 C430 0.930 . S
H422 C435 0.929 . S
H423 C433 0.929 . S
H424 C428 0.929 . S
H425 C434 0.929 . S
C426 H420 0.930 . S
C426 C427 1.367 . S
C426 C434 1.378 . S
C427 C426 1.367 . S
C427 C435 1.433 . S
C428 H424 0.929 . S
C428 C430 1.378 . S
C428 C432 1.350 . S
C429 C432 1.463 . S
C429 C434 1.350 . S
C429 N437 1.427 . S
C430 H421 0.930 . S
C430 C428 1.378 . S
C430 C431 1.367 . S
C431 C430 1.367 . S
C431 C433 1.433 . S
C432 C428 1.350 . S
C432 C429 1.463 . S
C432 N436 1.427 . S
C433 H423 0.929 . S
C433 C431 1.433 . S
C433 N436 1.384 . S
C434 H425 0.929 . S
C434 C426 1.378 . S
C434 C429 1.350 . S
C435 H422 0.929 . S
C435 C427 1.433 . S
C435 N437 1.384 . S
N436 C432 1.427 . S
N436 C433 1.384 . S
N437 C429 1.427 . S
N437 C435 1.384 . S
H438 C444 0.930 . S
H439 C448 0.930 . S
H440 C453 0.929 . S
H441 C451 0.929 . S
H442 C446 0.929 . S
H443 C452 0.929 . S
C444 H438 0.930 . S
C444 C445 1.367 . S
C444 C452 1.378 . S
C445 C444 1.367 . S
C445 C453 1.433 . S
C446 H442 0.929 . S
C446 C448 1.378 . S
C446 C450 1.350 . S
C447 C450 1.463 . S
C447 C452 1.350 . S
C447 N455 1.427 . S
C448 H439 0.930 . S
C448 C446 1.378 . S
C448 C449 1.367 . S
C449 C448 1.367 . S
C449 C451 1.433 . S
C450 C446 1.350 . S
C450 C447 1.463 . S
C450 N454 1.427 . S
C451 H441 0.929 . S
C451 C449 1.433 . S
C451 N454 1.384 . S
C452 H443 0.929 . S
C452 C444 1.378 . S
C452 C447 1.350 . S
C453 H440 0.929 . S
C453 C445 1.433 . S
C453 N455 1.384 . S
N454 C450 1.427 . S
N454 C451 1.384 . S
N455 C447 1.427 . S
N455 C453 1.384 . S
H456 C462 0.930 . S
H457 C466 0.930 . S
H458 C471 0.929 . S
H459 C469 0.929 . S
H460 C464 0.929 . S
H461 C470 0.929 . S
C462 H456 0.930 . S
C462 C463 1.367 . S
C462 C470 1.378 . S
C463 C462 1.367 . S
C463 C471 1.433 . S
C464 H460 0.929 . S
C464 C466 1.378 . S
C464 C468 1.350 . S
C465 C468 1.463 . S
C465 C470 1.350 . S
C465 N473 1.427 . S
C466 H457 0.930 . S
C466 C464 1.378 . S
C466 C467 1.367 . S
C467 C466 1.367 . S
C467 C469 1.433 . S
C468 C464 1.350 . S
C468 C465 1.463 . S
C468 N472 1.427 . S
C469 H459 0.929 . S
C469 C467 1.433 . S
C469 N472 1.384 . S
C470 H461 0.929 . S
C470 C462 1.378 . S
C470 C465 1.350 . S
C471 H458 0.929 . S
C471 C463 1.433 . S
C471 N473 1.384 . S
N472 C468 1.427 . S
N472 C469 1.384 . S
N473 C465 1.427 . S
N473 C471 1.384 . S
H474 C480 0.930 . S
H475 C484 0.930 . S
H476 C489 0.929 . S
H477 C487 0.929 . S
H478 C482 0.929 . S
H479 C488 0.929 . S
C480 H474 0.930 . S
C480 C481 1.367 . S
C480 C488 1.378 . S
C481 C480 1.367 . S
C481 C489 1.433 . S
C482 H478 0.929 . S
C482 C484 1.378 . S
C482 C486 1.350 . S
C483 C486 1.463 . S
C483 C488 1.350 . S
C483 N491 1.427 . S
C484 H475 0.930 . S
C484 C482 1.378 . S
C484 C485 1.367 . S
C485 C484 1.367 . S
C485 C487 1.433 . S
C486 C482 1.350 . S
C486 C483 1.463 . S
C486 N490 1.427 . S
C487 H477 0.929 . S
C487 C485 1.433 . S
C487 N490 1.384 . S
C488 H479 0.929 . S
C488 C480 1.378 . S
C488 C483 1.350 . S
C489 H476 0.929 . S
C489 C481 1.433 . S
C489 N491 1.384 . S
N490 C486 1.427 . S
N490 C487 1.384 . S
N491 C483 1.427 . S
N491 C489 1.384 . S
H492 C498 0.930 . S
H493 C502 0.930 . S
H494 C507 0.929 . S
H495 C505 0.929 . S
H496 C500 0.929 . S
H497 C506 0.929 . S
C498 H492 0.930 . S
C498 C499 1.367 . S
C498 C506 1.378 . S
C499 C498 1.367 . S
C499 C507 1.433 . S
C500 H496 0.929 . S
C500 C502 1.378 . S
C500 C504 1.350 . S
C501 C504 1.463 . S
C501 C506 1.350 . S
C501 N509 1.427 . S
C502 H493 0.930 . S
C502 C500 1.378 . S
C502 C503 1.367 . S
C503 C502 1.367 . S
C503 C505 1.433 . S
C504 C500 1.350 . S
C504 C501 1.463 . S
C504 N508 1.427 . S
C505 H495 0.929 . S
C505 C503 1.433 . S
C505 N508 1.384 . S
C506 H497 0.929 . S
C506 C498 1.378 . S
C506 C501 1.350 . S
C507 H494 0.929 . S
C507 C499 1.433 . S
C507 N509 1.384 . S
N508 C504 1.427 . S
N508 C505 1.384 . S
N509 C501 1.427 . S
N509 C507 1.384 . S
H510 C516 0.930 . S
H511 C520 0.930 . S
H512 C525 0.929 . S
H513 C523 0.929 . S
H514 C518 0.929 . S
H515 C524 0.929 . S
C516 H510 0.930 . S
C516 C517 1.367 . S
C516 C524 1.378 . S
C517 C516 1.367 . S
C517 C525 1.433 . S
C518 H514 0.929 . S
C518 C520 1.378 . S
C518 C522 1.350 . S
C519 C522 1.463 . S
C519 C524 1.350 . S
C519 N527 1.427 . S
C520 H511 0.930 . S
C520 C518 1.378 . S
C520 C521 1.367 . S
C521 C520 1.367 . S
C521 C523 1.433 . S
C522 C518 1.350 . S
C522 C519 1.463 . S
C522 N526 1.427 . S
C523 H513 0.929 . S
C523 C521 1.433 . S
C523 N526 1.384 . S
C524 H515 0.929 . S
C524 C516 1.378 . S
C524 C519 1.350 . S
C525 H512 0.929 . S
C525 C517 1.433 . S
C525 N527 1.384 . S
N526 C522 1.427 . S
N526 C523 1.384 . S
N527 C519 1.427 . S
N527 C525 1.384 . S
H528 C534 0.930 . S
H529 C538 0.930 . S
H530 C543 0.929 . S
H531 C541 0.929 . S
H532 C536 0.929 . S
H533 C542 0.929 . S
C534 H528 0.930 . S
C534 C535 1.367 . S
C534 C542 1.378 . S
C535 C534 1.367 . S
C535 C543 1.433 . S
C536 H532 0.929 . S
C536 C538 1.378 . S
C536 C540 1.350 . S
C537 C540 1.463 . S
C537 C542 1.350 . S
C537 N545 1.427 . S
C538 H529 0.930 . S
C538 C536 1.378 . S
C538 C539 1.367 . S
C539 C538 1.367 . S
C539 C541 1.433 . S
C540 C536 1.350 . S
C540 C537 1.463 . S
C540 N544 1.427 . S
C541 H531 0.929 . S
C541 C539 1.433 . S
C541 N544 1.384 . S
C542 H533 0.929 . S
C542 C534 1.378 . S
C542 C537 1.350 . S
C543 H530 0.929 . S
C543 C535 1.433 . S
C543 N545 1.384 . S
N544 C540 1.427 . S
N544 C541 1.384 . S
N545 C537 1.427 . S
N545 C543 1.384 . S
H546 C552 0.930 . S
H547 C556 0.930 . S
H548 C561 0.929 . S
H549 C559 0.929 . S
H550 C554 0.929 . S
H551 C560 0.929 . S
C552 H546 0.930 . S
C552 C553 1.367 . S
C552 C560 1.378 . S
C553 C552 1.367 . S
C553 C561 1.433 . S
C554 H550 0.929 . S
C554 C556 1.378 . S
C554 C558 1.350 . S
C555 C558 1.463 . S
C555 C560 1.350 . S
C555 N563 1.427 . S
C556 H547 0.930 . S
C556 C554 1.378 . S
C556 C557 1.367 . S
C557 C556 1.367 . S
C557 C559 1.433 . S
C558 C554 1.350 . S
C558 C555 1.463 . S
C558 N562 1.427 . S
C559 H549 0.929 . S
C559 C557 1.433 . S
C559 N562 1.384 . S
C560 H551 0.929 . S
C560 C552 1.378 . S
C560 C555 1.350 . S
C561 H548 0.929 . S
C561 C553 1.433 . S
C561 N563 1.384 . S
N562 C558 1.427 . S
N562 C559 1.384 . S
N563 C555 1.427 . S
N563 C561 1.384 . S
H564 C570 0.930 . S
H565 C574 0.930 . S
H566 C579 0.929 . S
H567 C577 0.929 . S
H568 C572 0.929 . S
H569 C578 0.929 . S
C570 H564 0.930 . S
C570 C571 1.367 . S
C570 C578 1.378 . S
C571 C570 1.367 . S
C571 C579 1.433 . S
C572 H568 0.929 . S
C572 C574 1.378 . S
C572 C576 1.350 . S
C573 C576 1.463 . S
C573 C578 1.350 . S
C573 N581 1.427 . S
C574 H565 0.930 . S
C574 C572 1.378 . S
C574 C575 1.367 . S
C575 C574 1.367 . S
C575 C577 1.433 . S
C576 C572 1.350 . S
C576 C573 1.463 . S
C576 N580 1.427 . S
C577 H567 0.929 . S
C577 C575 1.433 . S
C577 N580 1.384 . S
C578 H569 0.929 . S
C578 C570 1.378 . S
C578 C573 1.350 . S
C579 H566 0.929 . S
C579 C571 1.433 . S
C579 N581 1.384 . S
N580 C576 1.427 . S
N580 C577 1.384 . S
N581 C573 1.427 . S
N581 C579 1.384 . S
H582 C588 0.930 . S
H583 C592 0.930 . S
H584 C597 0.929 . S
H585 C595 0.929 . S
H586 C590 0.929 . S
H587 C596 0.929 . S
C588 H582 0.930 . S
C588 C589 1.367 . S
C588 C596 1.378 . S
C589 C588 1.367 . S
C589 C597 1.433 . S
C590 H586 0.929 . S
C590 C592 1.378 . S
C590 C594 1.350 . S
C591 C594 1.463 . S
C591 C596 1.350 . S
C591 N599 1.427 . S
C592 H583 0.930 . S
C592 C590 1.378 . S
C592 C593 1.367 . S
C593 C592 1.367 . S
C593 C595 1.433 . S
C594 C590 1.350 . S
C594 C591 1.463 . S
C594 N598 1.427 . S
C595 H585 0.929 . S
C595 C593 1.433 . S
C595 N598 1.384 . S
C596 H587 0.929 . S
C596 C588 1.378 . S
C596 C591 1.350 . S
C597 H584 0.929 . S
C597 C589 1.433 . S
C597 N599 1.384 . S
N598 C594 1.427 . S
N598 C595 1.384 . S
N599 C591 1.427 . S
N599 C597 1.384 . S
C175 C120 1.408 . S
C179 C8 1.407 . S
C193 C22 1.404 . S
C197 C134 1.401 . S
C211 C36 1.407 . S
C215 C148 1.404 . S
C229 C50 1.402 . S
C233 C162 1.406 . S
C247 C92 1.401 . S
C251 C64 1.399 . S
C265 C78 1.401 . S
C269 C106 1.405 . S
C283 C7 1.505 . S
C287 C73 1.528 . S
C301 C21 1.511 . S
C305 C3 1.523 . S
C319 C35 1.508 . S
C323 C17 1.527 . S
C337 C31 1.525 . S
C341 C49 1.509 . S
C355 C45 1.528 . S
C359 C63 1.507 . S
C373 C59 1.524 . S
C377 C77 1.510 . S
C391 C101 1.521 . S
C395 C91 1.516 . S
C409 C105 1.515 . S
C413 C115 1.539 . S
C427 C129 1.530 . S
C431 C119 1.504 . S
C445 C133 1.506 . S
C449 C143 1.529 . S
C463 C147 1.512 . S
C467 C157 1.524 . S
C481 C161 1.505 . S
C485 C87 1.528 . S
C499 C149 1.261 . S
C503 C9 1.271 . S
C517 C163 1.265 . S
C521 C23 1.266 . S
C535 C93 1.265 . S
C539 C37 1.266 . S
C553 C51 1.270 . S
C557 C107 1.262 . S
C571 C65 1.261 . S
C575 C121 1.270 . S
C589 C135 1.270 . S
C593 C79 1.261 . S
