# Generated by pormake.
# Topology noo, (5)-cn, num edge types: 1
# Building blocks:
#     Node 0, Type 0, BuildingBlock: XOMCOT_clean_sbu_1, # of connection points: 5
#     Node 1, Type 0, BuildingBlock: XOMCOT_clean_sbu_1, # of connection points: 5
#     Node 2, Type 0, BuildingBlock: XOMCOT_clean_sbu_1, # of connection points: 5
#     Node 3, Type 0, BuildingBlock: XOMCOT_clean_sbu_1, # of connection points: 5
#     Node 4, Type 0, BuildingBlock: XOMCOT_clean_sbu_1, # of connection points: 5
#     Node 5, Type 0, BuildingBlock: XOMCOT_clean_sbu_1, # of connection points: 5
#     Node 6, Type 0, BuildingBlock: XOMCOT_clean_sbu_1, # of connection points: 5
#     Node 7, Type 0, BuildingBlock: XOMCOT_clean_sbu_1, # of connection points: 5
#     Edge 8, Type (0, 0), BuildingBlock: XUDNAN_clean_linker_2, # of connection points: 2
#     Edge 9, Type (0, 0), BuildingBlock: XUDNAN_clean_linker_2, # of connection points: 2
#     Edge 10, Type (0, 0), BuildingBlock: XUDNAN_clean_linker_2, # of connection points: 2
#     Edge 11, Type (0, 0), BuildingBlock: XUDNAN_clean_linker_2, # of connection points: 2
#     Edge 12, Type (0, 0), BuildingBlock: XUDNAN_clean_linker_2, # of connection points: 2
#     Edge 13, Type (0, 0), BuildingBlock: XUDNAN_clean_linker_2, # of connection points: 2
#     Edge 14, Type (0, 0), BuildingBlock: XUDNAN_clean_linker_2, # of connection points: 2
#     Edge 15, Type (0, 0), BuildingBlock: XUDNAN_clean_linker_2, # of connection points: 2
#     Edge 16, Type (0, 0), BuildingBlock: XUDNAN_clean_linker_2, # of connection points: 2
#     Edge 17, Type (0, 0), BuildingBlock: XUDNAN_clean_linker_2, # of connection points: 2
#     Edge 18, Type (0, 0), BuildingBlock: XUDNAN_clean_linker_2, # of connection points: 2
#     Edge 19, Type (0, 0), BuildingBlock: XUDNAN_clean_linker_2, # of connection points: 2
#     Edge 20, Type (0, 0), BuildingBlock: XUDNAN_clean_linker_2, # of connection points: 2
#     Edge 21, Type (0, 0), BuildingBlock: XUDNAN_clean_linker_2, # of connection points: 2
#     Edge 22, Type (0, 0), BuildingBlock: XUDNAN_clean_linker_2, # of connection points: 2
#     Edge 23, Type (0, 0), BuildingBlock: XUDNAN_clean_linker_2, # of connection points: 2
#     Edge 24, Type (0, 0), BuildingBlock: XUDNAN_clean_linker_2, # of connection points: 2
#     Edge 25, Type (0, 0), BuildingBlock: XUDNAN_clean_linker_2, # of connection points: 2
#     Edge 26, Type (0, 0), BuildingBlock: XUDNAN_clean_linker_2, # of connection points: 2
#     Edge 27, Type (0, 0), BuildingBlock: XUDNAN_clean_linker_2, # of connection points: 2
# Relax obj value: 0.064
# Max RMSD: 0.100
# Mean RMSD: 0.100
data_MOF--net-noo--node1-XOMCOT_clean_sbu_1--edge1-XUDNAN_clean_linker_2
_symmetry_space_group_name_H-M    P1
_symmetry_Int_Tables_number       1
_symmetry_cell_setting            triclinic
loop_
_symmetry_equiv_pos_as_xyz
'x, y, z'
_cell_length_a     41.292916
_cell_length_b     41.244489
_cell_length_c     26.426084
_cell_angle_alpha  90.043756
_cell_angle_beta   90.125329
_cell_angle_gamma 89.481347
loop_
_atom_site_label
_atom_site_type_symbol
_atom_site_fract_x
_atom_site_fract_y
_atom_site_fract_z
_atom_type_partial_charge
C0 C 0.40518 0.25996 0.94199 0.0
C1 C 0.38719 0.2872 0.95313 0.0
N2 N 0.38389 0.28917 1.00378 0.0
N3 N 0.41302 0.24461 0.98532 0.0
C4 C 0.39993 0.26307 1.02245 0.0
H5 H 0.41262 0.25219 0.90468 0.0
Co6 Co 0.43859 0.20751 0.98896 0.0
C7 C 0.42422 0.17749 0.09003 0.0
O8 O 0.45401 0.16619 0.09313 0.0
N9 N 0.46484 0.1698 0.99101 0.0
C10 C 0.50661 0.13531 0.99094 0.0
C11 C 0.49741 0.16733 0.98745 0.0
C12 C 0.45483 0.13876 0.99508 0.0
N13 N 0.47979 0.11731 0.99613 0.0
O14 O 0.40769 0.18516 0.9469 0.0
H15 H 0.51381 0.18733 0.98312 0.0
H16 H 0.42962 0.13219 0.99833 0.0
O17 O 0.41555 0.19446 0.05158 0.0
C18 C 0.41807 0.18277 0.90145 0.0
O19 O 0.4475 0.19285 0.89162 0.0
N20 N 0.46997 0.23131 1.02371 0.0
C21 C 0.52433 0.26651 0.05215 0.0
C22 C 0.50337 0.25409 0.08903 0.0
C23 C 0.47586 0.23675 0.07393 0.0
C24 C 0.48852 0.24571 0.98785 0.0
C25 C 0.51584 0.26315 1.00108 0.0
H26 H 0.45977 0.22793 0.10267 0.0
H27 H 0.48266 0.24236 0.94828 0.0
H28 H 0.40229 0.25757 0.06232 0.0
H29 H 0.37808 0.30471 0.92601 0.0
H30 H 0.53126 0.1262 0.99126 0.0
H31 H 0.50858 0.25703 0.12894 0.0
H32 H 0.53053 0.27347 0.97135 0.0
C33 C 0.75798 0.40195 0.95965 0.0
C34 C 0.73185 0.38211 0.96635 0.0
N35 N 0.72618 0.37952 1.01635 0.0
N36 N 0.76903 0.41154 1.00521 0.0
C37 C 0.74899 0.39772 0.03917 0.0
H38 H 0.76783 0.40949 0.92372 0.0
Co39 Co 0.80317 0.43968 1.01443 0.0
C40 C 0.83262 0.42276 0.11551 0.0
O41 O 0.84118 0.45304 0.12243 0.0
N42 N 0.83797 0.46878 1.02244 0.0
C43 C 0.86725 0.51323 0.03442 0.0
C44 C 0.83652 0.50116 0.03072 0.0
C45 C 0.87011 0.462 1.02024 0.0
N46 N 0.88827 0.48861 1.02767 0.0
O47 O 0.82935 0.4122 0.97089 0.0
H48 H 0.81473 0.51558 0.03421 0.0
H49 H 0.88006 0.43791 1.01447 0.0
O50 O 0.81713 0.41482 0.07525 0.0
C51 C 0.83425 0.42444 0.92714 0.0
O52 O 0.8251 0.45457 0.91883 0.0
N53 N 0.7754 0.46758 0.05044 0.0
C54 C 0.73522 0.5187 0.08152 0.0
C55 C 0.7493 0.49748 0.11719 0.0
C56 C 0.76908 0.47164 0.10079 0.0
C57 C 0.76004 0.48643 1.01544 0.0
C58 C 0.74033 0.51227 0.02999 0.0
H59 H 0.7792 0.45543 0.12865 0.0
H60 H 0.76478 0.48241 0.97566 0.0
H61 H 0.7509 0.40116 0.07967 0.0
H62 H 0.71737 0.37137 0.93664 0.0
H63 H 0.87371 0.53827 0.041 0.0
H64 H 0.74528 0.50093 0.15731 0.0
H65 H 0.7305 0.52793 1.0008 0.0
C66 C 0.62188 0.76614 0.99523 0.0
C67 C 0.63996 0.73858 1.00328 0.0
N68 N 0.63826 0.73099 0.0527 0.0
N69 N 0.60882 0.77607 0.03936 0.0
C70 C 0.61943 0.75421 0.07401 0.0
H71 H 0.61637 0.77661 0.95873 0.0
Co72 Co 0.57576 0.80708 0.04225 0.0
C73 C 0.58446 0.84262 0.14244 0.0
O74 O 0.5552 0.85521 0.14019 0.0
N75 N 0.54159 0.83803 0.04229 0.0
C76 C 0.49192 0.8589 0.0348 0.0
C77 C 0.5099 0.83086 0.03668 0.0
C78 C 0.54226 0.87091 0.04118 0.0
N79 N 0.51223 0.88411 0.03788 0.0
O80 O 0.60247 0.83624 1.00334 0.0
H81 H 0.50021 0.80676 0.03279 0.0
H82 H 0.56429 0.88485 0.04379 0.0
O83 O 0.59433 0.82338 0.10736 0.0
C84 C 0.59232 0.84114 0.95819 0.0
O85 O 0.56438 0.82897 0.94438 0.0
N86 N 0.54899 0.77673 0.07447 0.0
C87 C 0.49739 0.73551 0.09509 0.0
C88 C 0.50729 0.75875 0.13081 0.0
C89 C 0.5335 0.779 0.11998 0.0
C90 C 0.54125 0.75269 0.04132 0.0
C91 C 0.51611 0.73148 0.05129 0.0
H92 H 0.5394 0.79774 0.14656 0.0
H93 H 0.55334 0.75127 1.00512 0.0
H94 H 0.61109 0.75359 0.11282 0.0
H95 H 0.65179 0.72402 0.97451 0.0
H96 H 0.4659 0.86061 0.03021 0.0
H97 H 0.49375 0.76278 0.1653 0.0
H98 H 0.51038 0.71317 1.02336 0.0
C99 C 0.26416 0.58226 1.0119 0.0
C100 C 0.29335 0.59811 1.01156 0.0
N101 N 0.29391 0.61867 0.05116 0.0
N102 N 0.2464 0.59289 0.05142 0.0
C103 C 0.26503 0.6154 0.07425 0.0
H104 H 0.25679 0.56336 0.98608 0.0
Co105 Co 0.20594 0.5769 0.06958 0.0
C106 C 0.21389 0.60087 0.17899 0.0
O107 O 0.22856 0.57445 0.19466 0.0
N108 N 0.16464 0.56165 0.08762 0.0
C109 C 0.12307 0.54391 0.13298 0.0
C110 C 0.15442 0.55448 0.13485 0.0
C111 C 0.13908 0.55457 0.05754 0.0
N112 N 0.11354 0.54387 0.08435 0.0
O113 O 0.18628 0.61194 0.03158 0.0
H114 H 0.16898 0.55572 0.16867 0.0
H115 H 0.13907 0.55697 1.01683 0.0
O116 O 0.20486 0.60372 0.13268 0.0
C117 C 0.18384 0.60315 0.9853 0.0
O118 O 0.19246 0.57347 0.97291 0.0
N119 N 0.22641 0.53955 0.09959 0.0
C120 C 0.26102 0.48096 0.11043 0.0
C121 C 0.27448 0.51034 0.12628 0.0
C122 C 0.25702 0.53934 0.11986 0.0
C123 C 0.21293 0.51077 0.08529 0.0
C124 C 0.22936 0.48139 0.0915 0.0
H125 H 0.26914 0.56169 0.12874 0.0
H126 H 0.19028 0.51022 0.06497 0.0
H127 H 0.25816 0.62845 0.1081 0.0
H128 H 0.31323 0.59373 0.98573 0.0
H129 H 0.10869 0.53587 0.16473 0.0
H130 H 0.29916 0.5113 0.14012 0.0
H131 H 0.21795 0.45932 0.07859 0.0
C132 C 0.92678 0.25817 0.57845 0.0
C133 C 0.91163 0.22865 0.57885 0.0
N134 N 0.89399 0.22605 0.53618 0.0
N135 N 0.91974 0.27401 0.53504 0.0
C136 C 0.89857 0.25422 0.51122 0.0
H137 H 0.94131 0.26781 0.60891 0.0
Co138 Co 0.93438 0.3163 0.52 0.0
C139 C 0.90987 0.30052 0.41349 0.0
O140 O 0.92589 0.27287 0.41105 0.0
N141 N 0.9478 0.3584 0.50628 0.0
C142 C 0.94439 0.40986 0.48265 0.0
C143 C 0.92821 0.38116 0.48569 0.0
C144 C 0.97576 0.37402 0.51641 0.0
N145 N 0.97434 0.40547 0.50192 0.0
O146 O 0.8977 0.33321 0.55695 0.0
H147 H 0.90316 0.37749 0.4754 0.0
H148 H 0.99639 0.36271 0.5348 0.0
O149 O 0.91079 0.31755 0.45408 0.0
C150 C 0.9082 0.34229 0.60026 0.0
O151 O 0.93946 0.34052 0.60928 0.0
N152 N 0.97281 0.29965 0.49098 0.0
C153 C 0.03182 0.27007 0.46659 0.0
C154 C 0.02039 0.27013 0.51629 0.0
C155 C 0.99141 0.28572 0.52773 0.0
C156 C 0.98501 0.30299 0.44318 0.0
C157 C 0.01448 0.2878 0.42988 0.0
H158 H 0.98392 0.28702 0.56668 0.0
H159 H 0.97223 0.31735 0.41526 0.0
H160 H 0.88577 0.26048 0.47712 0.0
H161 H 0.91281 0.21095 0.60901 0.0
H162 H 0.93421 0.43266 0.46967 0.0
H163 H 0.03398 0.25843 0.54641 0.0
H164 H 0.02334 0.2895 0.39144 0.0
C165 C 0.75584 0.89975 0.6048 0.0
C166 C 0.78197 0.87982 0.59608 0.0
N167 N 0.78775 0.87924 0.54596 0.0
N168 N 0.74466 0.91138 0.56042 0.0
C169 C 0.76487 0.89878 0.52505 0.0
H170 H 0.74644 0.90647 0.64148 0.0
Co171 Co 0.71105 0.94153 0.55642 0.0
C172 C 0.67804 0.93202 0.45582 0.0
O173 O 0.66859 0.96249 0.45617 0.0
N174 N 0.67701 0.97276 0.55455 0.0
C175 C 0.64916 0.01928 0.55142 0.0
C176 C 0.67949 1.0054 0.55088 0.0
C177 C 0.64471 0.96764 0.55859 0.0
N178 N 0.62742 0.99551 0.55652 0.0
O179 O 0.68446 0.91296 0.5966 0.0
H180 H 0.70175 0.01872 0.54784 0.0
H181 H 0.63395 0.94389 0.56163 0.0
O182 O 0.69571 0.92103 0.49215 0.0
C183 C 0.67998 0.92352 0.64158 0.0
O184 O 0.69115 0.9522 0.65384 0.0
N185 N 0.73905 0.97012 0.52375 0.0
C186 C 0.77883 0.02199 0.49886 0.0
C187 C 0.76244 1.00467 0.46089 0.0
C188 C 0.74285 0.97836 0.47409 0.0
C189 C 0.75663 0.98513 0.56041 0.0
C190 C 0.77645 0.01116 0.54896 0.0
H191 H 0.7305 0.96547 0.4445 0.0
H192 H 0.7536 0.97797 0.59948 0.0
H193 H 0.76331 0.9044 0.48511 0.0
H194 H 0.79665 0.86795 0.6247 0.0
H195 H 0.64348 0.0449 0.54875 0.0
H196 H 0.76425 0.01176 0.42156 0.0
H197 H 0.78829 0.02378 0.57971 0.0
C198 C 0.11083 0.76401 0.62585 0.0
C199 C 0.12734 0.79211 0.61621 0.0
N200 N 0.13187 0.79453 0.56581 0.0
N201 N 0.10511 0.74863 0.58185 0.0
C202 C 0.11808 0.76779 0.54587 0.0
H203 H 0.10278 0.7557 0.66248 0.0
Co204 Co 0.08126 0.71112 0.57534 0.0
C205 C 0.09739 0.68431 0.47285 0.0
O206 O 0.06735 0.67461 0.4676 0.0
N207 N 0.05681 0.6728 0.56966 0.0
C208 C 0.0169 0.63748 0.55944 0.0
C209 C 0.02432 0.6696 0.56545 0.0
C210 C 0.06844 0.64199 0.56753 0.0
N211 N 0.04463 0.62027 0.56085 0.0
O212 O 0.11234 0.68873 0.61831 0.0
H213 H 1.00679 0.6891 0.56554 0.0
H214 H 0.09394 0.63571 0.56864 0.0
O215 O 0.10585 0.69937 0.51325 0.0
C216 C 0.10057 0.68418 0.6625 0.0
O217 O 0.0702 0.69239 0.67063 0.0
N218 N 0.0494 0.73514 0.54043 0.0
C219 C 0.99428 0.77045 0.51208 0.0
C220 C 0.01707 0.76057 0.47559 0.0
C221 C 0.04492 0.7432 0.4907 0.0
C222 C 0.02902 0.74719 0.57638 0.0
C223 C 1.00128 0.76452 0.56315 0.0
H224 H 0.06251 0.73657 0.46241 0.0
H225 H 0.03381 0.74203 0.61584 0.0
H226 H 0.1171 0.76237 0.50584 0.0
H227 H 0.1345 0.80988 0.64413 0.0
H228 H 0.99299 0.62747 0.55398 0.0
H229 H 0.01311 0.76562 0.43584 0.0
H230 H 0.9852 0.77287 0.59286 0.0
C231 C 0.24392 0.0872 0.54391 0.0
C232 C 0.21597 0.10544 0.54075 0.0
N233 N 0.22008 0.12869 0.50549 0.0
N234 N 0.26575 0.09876 0.51087 0.0
C235 C 0.25067 0.12423 0.48835 0.0
H236 H 0.24793 0.06642 0.56813 0.0
Co237 Co 0.30706 0.08093 0.49999 0.0
C238 C 0.30783 0.09995 0.38846 0.0
O239 O 0.29755 0.07159 0.37333 0.0
N240 N 0.34921 0.06385 0.48911 0.0
C241 C 0.39277 0.04312 0.451 0.0
C242 C 0.36112 0.05248 0.44482 0.0
C243 C 0.37416 0.06027 0.52215 0.0
N244 N 0.4009 0.04798 0.49958 0.0
O245 O 0.32522 0.11606 0.53868 0.0
H246 H 0.34764 0.04999 0.41024 0.0
H247 H 0.37299 0.06671 0.56177 0.0
O248 O 0.31186 0.10581 0.43573 0.0
C249 C 0.32194 0.1079 0.58508 0.0
O250 O 0.30968 0.07939 0.59541 0.0
N251 N 0.28785 0.04364 0.46979 0.0
C252 C 0.25243 0.98622 0.46021 0.0
C253 C 0.24094 0.01524 0.43872 0.0
C254 C 0.25885 0.04377 0.44439 0.0
C255 C 0.29953 0.01517 0.48935 0.0
C256 C 0.28282 0.98628 0.4837 0.0
H257 H 0.2483 0.06629 0.43115 0.0
H258 H 0.3207 0.01481 0.51334 0.0
H259 H 0.2616 0.13865 0.45894 0.0
H260 H 0.19435 0.10173 0.56295 0.0
H261 H 0.40845 0.03275 0.42232 0.0
H262 H 0.2173 0.01645 0.42095 0.0
H263 H 0.29279 0.96448 0.50072 0.0
H264 H 0.54557 0.93483 0.99814 0.0
H265 H 0.45774 0.90973 0.07824 0.0
H266 H 0.43974 0.96685 0.07548 0.0
H267 H 0.5572 0.01315 0.05868 0.0
H268 H 0.57156 0.03235 1.00184 0.0
H269 H 0.57799 0.98951 1.01118 0.0
H270 H 0.54945 0.97777 0.9258 0.0
H271 H 0.54276 0.02055 0.91631 0.0
H272 H 0.50901 0.99315 0.91506 0.0
H273 H 0.43086 0.02623 0.06362 0.0
H274 H 0.43209 0.08463 0.04458 0.0
H275 H 0.52496 0.07156 0.97008 0.0
C276 C 0.52278 0.94151 1.01558 0.0
C277 C 0.50297 0.91785 0.03824 0.0
C278 C 0.47306 0.9274 0.0601 0.0
C279 C 0.4627 0.95979 0.05893 0.0
C280 C 0.48248 0.98243 0.03564 0.0
C281 C 0.51191 0.97382 1.01443 0.0
C282 C 0.52817 1.00298 0.99098 0.0
C283 C 0.56065 0.0099 1.01725 0.0
C284 C 0.5326 0.99832 0.93364 0.0
C285 C 0.50325 0.02921 1.00241 0.0
C286 C 0.47713 0.0168 1.02823 0.0
C287 C 0.45112 0.03627 0.04319 0.0
C288 C 0.45191 0.06943 0.03178 0.0
C289 C 0.47851 0.08286 1.00551 0.0
C290 C 0.50439 0.06225 0.99053 0.0
H291 H 0.92353 0.52228 0.09486 0.0
H292 H 0.93079 0.46037 0.96297 0.0
H293 H 0.99035 0.46857 0.96127 0.0
H294 H 0.9828 0.57975 0.06005 0.0
H295 H 0.99857 0.58457 0.12324 0.0
H296 H 0.95694 0.57337 0.11394 0.0
H297 H 0.96564 0.52234 0.16979 0.0
H298 H 1.00721 0.53356 0.17969 0.0
H299 H 0.99776 0.49413 0.15451 0.0
H300 H 0.04891 0.48706 0.97181 0.0
H301 H 0.10206 0.50842 0.99983 0.0
H302 H 0.05551 0.55559 0.12715 0.0
C303 C 0.93778 0.51041 0.06579 0.0
C304 C 0.92289 0.4909 1.02885 0.0
C305 C 0.94206 0.47527 0.99167 0.0
C306 C 0.97572 0.47998 0.9903 0.0
C307 C 0.98965 0.49994 1.02691 0.0
C308 C 0.97126 0.51439 0.06449 0.0
C309 C 0.99189 0.53402 0.10025 0.0
C310 C 0.98195 0.57006 0.09928 0.0
C311 C 0.99055 0.52017 0.15425 0.0
C312 C 0.02481 0.52873 0.07672 0.0
C313 C 0.0231 0.50933 0.03412 0.0
C314 C 0.05052 0.50201 1.00537 0.0
C315 C 0.08049 0.51438 1.02124 0.0
C316 C 0.08268 0.53338 0.06572 0.0
C317 C 0.05443 0.54076 0.09337 0.0
H318 H 0.98184 0.45893 0.44481 0.0
H319 H 0.01824 0.41019 0.57874 0.0
H320 H 0.04974 0.45902 0.60092 0.0
H321 H 0.05433 0.51141 0.41947 0.0
H322 H 0.02847 0.5448 0.40092 0.0
H323 H 0.01599 0.50368 0.38922 0.0
H324 H 0.96264 0.51479 0.43805 0.0
H325 H 0.97496 0.55568 0.45016 0.0
H326 H 0.96457 0.52957 0.50222 0.0
H327 H 0.06953 0.51656 0.61568 0.0
H328 H 0.0736 0.57654 0.62265 0.0
H329 H 0.0208 0.58727 0.48222 0.0
C330 C 0.99709 0.45821 0.47815 0.0
C331 C 0.99756 0.43082 0.51007 0.0
C332 C 0.01786 0.43076 0.55333 0.0
C333 C 0.03578 0.45844 0.56623 0.0
C334 C 0.03334 0.48575 0.53516 0.0
C335 C 0.01463 0.48561 0.49169 0.0
C336 C 0.01203 0.51898 0.46834 0.0
C337 C 0.02871 0.51975 0.41641 0.0
C338 C 0.97646 0.5304 0.46453 0.0
C339 C 0.03065 0.5384 0.50691 0.0
C340 C 0.04369 0.51883 0.54442 0.0
C341 C 0.05995 0.53196 0.58598 0.0
C342 C 0.06221 0.5659 0.58972 0.0
C343 C 0.04758 0.58603 0.55279 0.0
C344 C 0.03235 0.57208 0.51051 0.0
H345 H 0.59161 0.03249 0.49369 0.0
H346 H 0.58561 0.96741 0.62161 0.0
H347 H 0.5261 0.97693 0.62573 0.0
H348 H 0.53066 0.09022 0.53217 0.0
H349 H 0.51494 0.0958 0.46907 0.0
H350 H 0.55689 0.08495 0.47828 0.0
H351 H 0.54991 0.03472 0.42029 0.0
H352 H 0.50807 0.04563 0.41046 0.0
H353 H 0.51857 1.00593 0.43418 0.0
H354 H 0.46692 0.99541 0.61604 0.0
H355 H 0.41292 0.01457 0.58592 0.0
H356 H 0.45864 0.06423 0.46129 0.0
C357 C 0.57767 0.02044 0.52267 0.0
C358 C 0.59288 0.99953 0.55767 0.0
C359 C 0.57409 0.98351 0.59452 0.0
C360 C 0.54047 0.98898 0.5973 0.0
C361 C 0.52617 0.01014 0.5624 0.0
C362 C 0.54421 0.02512 0.52522 0.0
C363 C 0.52308 0.04503 0.49008 0.0
C364 C 0.53193 0.08114 0.49258 0.0
C365 C 0.52502 0.03204 0.43554 0.0
C366 C 0.49024 0.03902 0.51316 0.0
C367 C 0.49242 0.01934 0.55539 0.0
C368 C 0.46498 0.01074 0.58293 0.0
C369 C 0.43453 0.02184 0.56593 0.0
C370 C 0.43194 0.04072 0.52144 0.0
C371 C 0.46018 0.04974 0.49538 0.0
H372 H 0.26305 0.4376 0.0325 0.0
H373 H 0.30508 0.45677 0.18 0.0
H374 H 0.33984 0.40773 0.17109 0.0
H375 H 0.26199 0.34959 0.04257 0.0
H376 H 0.27187 0.34405 0.9767 0.0
H377 H 0.24947 0.37949 0.99661 0.0
H378 H 0.29254 0.41624 0.95511 0.0
H379 H 0.31514 0.38098 0.9353 0.0
H380 H 0.33448 0.41165 0.97309 0.0
H381 H 0.37131 0.3568 0.14351 0.0
H382 H 0.39749 0.31065 0.09904 0.0
H383 H 0.33334 0.32585 0.97094 0.0
C384 C 0.27897 0.43117 0.0636 0.0
C385 C 0.28097 0.4508 0.10733 0.0
C386 C 0.30308 0.44206 0.1462 0.0
C387 C 0.32278 0.41418 0.14155 0.0
C388 C 0.3201 0.39541 0.09777 0.0
C389 C 0.29868 0.40366 0.05955 0.0
C390 C 0.30118 0.38056 1.01527 0.0
C391 C 0.26923 0.36234 1.00735 0.0
C392 C 0.31146 0.39843 0.96686 0.0
C393 C 0.32767 0.35812 0.0341 0.0
C394 C 0.3382 0.36678 0.08187 0.0
C395 C 0.36306 0.34974 0.10623 0.0
C396 C 0.37769 0.32346 0.08079 0.0
C397 C 0.36756 0.31467 0.03139 0.0
C398 C 0.34194 0.33214 1.00835 0.0
H399 H 0.58256 0.25673 1.00692 0.0
H400 H 0.53609 0.3123 0.1261 0.0
H401 H 0.58677 0.34322 0.13863 0.0
H402 H 0.66586 0.256 0.05997 0.0
H403 H 0.68346 0.2604 0.99802 0.0
H404 H 0.64577 0.23922 1.0054 0.0
H405 H 0.61864 0.27777 0.94008 0.0
H406 H 0.65607 0.29909 0.93268 0.0
H407 H 0.61984 0.32095 0.95045 0.0
H408 H 0.64078 0.37267 0.12958 0.0
H409 H 0.69131 0.39803 0.0988 0.0
H410 H 0.70033 0.32346 0.98414 0.0
C411 C 0.58315 0.27506 0.03627 0.0
C412 C 0.5554 0.28226 0.06541 0.0
C413 C 0.55721 0.30623 0.10366 0.0
C414 C 0.58586 0.32391 0.11094 0.0
C415 C 0.61245 0.31698 0.08001 0.0
C416 C 0.61127 0.29289 0.04368 0.0
C417 C 0.64154 0.29203 1.01171 0.0
C418 C 0.66027 0.26001 1.01925 0.0
C419 C 0.63353 0.29782 0.95543 0.0
C420 C 0.6596 0.32022 0.03429 0.0
C421 C 0.6429 0.33402 0.0743 0.0
C422 C 0.65424 0.3617 0.09883 0.0
C423 C 0.68297 0.37589 0.08126 0.0
C424 C 0.69959 0.36264 0.03912 0.0
C425 C 0.68803 0.33408 1.01635 0.0
H426 H 0.62803 0.67162 1.01446 0.0
H427 H 0.67298 0.72247 0.13893 0.0
H428 H 0.69761 0.6706 0.16889 0.0
H429 H 0.61237 0.59436 0.08438 0.0
H430 H 0.6207 0.57036 1.0288 0.0
H431 H 0.6034 0.61044 1.02245 0.0
H432 H 0.65046 0.62655 0.96303 0.0
H433 H 0.66792 0.5867 0.96932 0.0
H434 H 0.69167 0.62183 0.9847 0.0
H435 H 0.72408 0.61441 0.17575 0.0
H436 H 0.74814 0.56014 0.16085 0.0
H437 H 0.68192 0.54583 0.03525 0.0
C438 C 0.6425 0.67159 0.04867 0.0
C439 C 0.64882 0.70078 0.07451 0.0
C440 C 0.6678 0.70013 0.11906 0.0
C441 C 0.68181 0.67085 0.13617 0.0
C442 C 0.67584 0.64247 0.10883 0.0
C443 C 0.65609 0.64265 0.06649 0.0
C444 C 0.65503 0.60967 0.04154 0.0
C445 C 0.62084 0.59537 0.0445 0.0
C446 C 0.667 0.61131 0.98642 0.0
C447 C 0.67851 0.59113 0.07485 0.0
C448 C 0.69011 0.61022 0.1138 0.0
C449 C 0.71454 0.59905 0.14614 0.0
C450 C 0.72797 0.56804 0.13755 0.0
C451 C 0.71702 0.54856 0.09681 0.0
C452 C 0.6911 0.56005 0.06652 0.0
H453 H 0.33756 0.64982 0.99314 0.0
H454 H 0.31227 0.62843 0.1485 0.0
H455 H 0.3615 0.65669 0.17808 0.0
H456 H 0.42232 0.63873 1.00487 0.0
H457 H 0.43253 0.67185 0.96358 0.0
H458 H 0.39484 0.6509 0.95512 0.0
H459 H 0.36319 0.70524 0.96323 0.0
H460 H 0.40083 0.72639 0.97121 0.0
H461 H 0.36942 0.73043 1.01812 0.0
H462 H 0.41597 0.68453 0.18965 0.0
H463 H 0.46843 0.71268 0.1825 0.0
H464 H 0.45507 0.71849 1.0196 0.0
C465 C 0.34238 0.65126 0.03336 0.0
C466 C 0.32123 0.63701 0.06856 0.0
C467 C 0.32806 0.63955 0.12099 0.0
C468 C 0.35602 0.65535 0.13807 0.0
C469 C 0.37664 0.66884 0.10223 0.0
C470 C 0.36985 0.66733 0.051 0.0
C471 C 0.39563 0.68392 1.02017 0.0
C472 C 0.41231 0.65991 0.9838 0.0
C473 C 0.38142 0.71324 0.99151 0.0
C474 C 0.41833 0.69447 0.0619 0.0
C475 C 0.40716 0.68552 0.10899 0.0
C476 C 0.42477 0.69196 0.15294 0.0
C477 C 0.45452 0.70809 0.14852 0.0
C478 C 0.46627 0.71772 0.10049 0.0
C479 C 0.44751 0.7109 0.05691 0.0
H480 H 0.83606 0.04318 0.53997 0.0
H481 H 0.75975 0.07107 0.4351 0.0
H482 H 0.78322 0.12579 0.42859 0.0
H483 H 0.83557 0.11475 0.60868 0.0
H484 H 0.87866 0.11598 0.61943 0.0
H485 H 0.85902 0.07768 0.61 0.0
H486 H 0.89763 0.06434 0.5355 0.0
H487 H 0.91777 0.10243 0.54518 0.0
H488 H 0.90123 0.09265 0.48391 0.0
H489 H 0.81125 0.17941 0.44184 0.0
H490 H 0.84324 0.22636 0.46957 0.0
H491 H 0.90085 0.16322 0.56642 0.0
C492 C 0.82456 0.0606 0.51493 0.0
C493 C 0.79606 0.05275 0.48796 0.0
C494 C 0.78188 0.07627 0.45548 0.0
C495 C 0.79491 0.10753 0.45185 0.0
C496 C 0.82224 0.11482 0.48066 0.0
C497 C 0.83713 0.09186 0.51107 0.0
C498 C 0.86492 0.10629 0.54072 0.0
C499 C 0.85918 0.10351 0.59809 0.0
C500 C 0.89731 0.09049 0.52539 0.0
C501 C 0.86283 0.14118 0.52328 0.0
C502 C 0.83825 0.14561 0.48837 0.0
C503 C 0.83091 0.1761 0.46854 0.0
C504 C 0.84933 0.20268 0.48453 0.0
C505 C 0.8748 0.19871 0.52021 0.0
C506 C 0.88148 0.16736 0.53952 0.0
H507 H 0.93485 0.75788 0.5513 0.0
H508 H 0.9832 0.81973 0.44315 0.0
H509 H 0.93194 0.85054 0.43026 0.0
H510 H 0.85358 0.75857 0.49104 0.0
H511 H 0.83363 0.75958 0.55163 0.0
H512 H 0.87233 0.73945 0.54514 0.0
H513 H 0.89565 0.77505 0.61721 0.0
H514 H 0.85718 0.79527 0.62384 0.0
H515 H 0.89309 0.81859 0.61207 0.0
H516 H 0.87647 0.87885 0.43836 0.0
H517 H 0.82413 0.90197 0.46809 0.0
H518 H 0.81396 0.82163 0.57197 0.0
C519 C 0.9346 0.77761 0.52426 0.0
C520 C 0.96305 0.7865 0.49836 0.0
C521 C 0.96161 0.8123 0.46305 0.0
C522 C 0.9326 0.82995 0.4556 0.0
C523 C 0.90524 0.82119 0.4833 0.0
C524 C 0.9061 0.79539 0.51666 0.0
C525 C 0.87474 0.79247 0.54563 0.0
C526 C 0.85756 0.76063 0.53255 0.0
C527 C 0.88053 0.79555 0.60305 0.0
C528 C 0.85638 0.82141 0.52497 0.0
C529 C 0.87394 0.83745 0.48834 0.0
C530 C 0.86237 0.86613 0.46641 0.0
C531 C 0.83259 0.87904 0.48329 0.0
C532 C 0.81507 0.86351 0.52224 0.0
C533 C 0.82687 0.83395 0.54212 0.0
H534 H 0.24511 0.94727 0.54259 0.0
H535 H 0.21196 0.9597 0.38784 0.0
H536 H 0.17752 0.91102 0.39693 0.0
H537 H 0.25004 0.86018 0.54069 0.0
H538 H 0.23662 0.85639 0.60526 0.0
H539 H 0.25828 0.89193 0.58572 0.0
H540 H 0.2111 0.92837 0.6178 0.0
H541 H 0.18926 0.89296 0.63732 0.0
H542 H 0.17065 0.92161 0.59451 0.0
H543 H 0.14659 0.8602 0.42461 0.0
H544 H 0.12134 0.81382 0.46825 0.0
H545 H 0.17719 0.83533 0.60322 0.0
C546 C 0.23109 0.93957 0.51013 0.0
C547 C 0.23164 0.95705 0.46417 0.0
C548 C 0.21196 0.94666 0.42338 0.0
C549 C 0.19246 0.91898 0.42817 0.0
C550 C 0.19289 0.90214 0.47402 0.0
C551 C 0.21173 0.9122 0.51422 0.0
C552 C 0.20785 0.89049 0.5598 0.0
C553 C 0.24011 0.87375 0.57366 0.0
C554 C 0.19388 0.9095 0.60501 0.0
C555 C 0.18373 0.86653 0.53924 0.0
C556 C 0.17534 0.87346 0.48973 0.0
C557 C 0.15313 0.85456 0.46332 0.0
C558 C 0.13905 0.82811 0.48835 0.0
C559 C 0.14718 0.82086 0.53933 0.0
C560 C 0.17004 0.84035 0.56459 0.0
H561 H 0.04476 0.20733 0.4902 0.0
H562 H 0.08712 0.2917 0.41986 0.0
H563 H 0.14024 0.26302 0.41604 0.0
H564 H 0.10838 0.18918 0.56974 0.0
H565 H 0.10511 0.14574 0.56492 0.0
H566 H 0.06992 0.171 0.55523 0.0
H567 H 0.06085 0.14537 0.46681 0.0
H568 H 0.09578 0.11958 0.47651 0.0
H569 H 0.09335 0.14519 0.42136 0.0
H570 H 0.19023 0.22679 0.43049 0.0
H571 H 0.23111 0.18605 0.45679 0.0
H572 H 0.15453 0.12559 0.51614 0.0
C573 C 0.06507 0.21946 0.47283 0.0
C574 C 0.06194 0.25163 0.45511 0.0
C575 C 0.08899 0.26689 0.43298 0.0
C576 C 0.11923 0.25082 0.43096 0.0
C577 C 0.12174 0.21944 0.45064 0.0
C578 C 0.09514 0.2038 0.47039 0.0
C579 C 0.10425 0.17099 0.49193 0.0
C580 C 0.09646 0.16915 0.54881 0.0
C581 C 0.08757 0.14367 0.46237 0.0
C582 C 0.14036 0.17086 0.48276 0.0
C583 C 0.1501 0.19882 0.4586 0.0
C584 C 0.18271 0.20459 0.44864 0.0
C585 C 0.20581 0.1812 0.4637 0.0
C586 C 0.19629 0.15237 0.4887 0.0
C587 C 0.16296 0.14731 0.4977 0.0
H588 H 0.4294 0.13091 0.16269 0.0
H589 H 0.36898 0.21204 0.11566 0.0
H590 H 0.33425 0.20401 0.19112 0.0
H591 H 0.3648 0.08124 0.20637 0.0
H592 H 0.38813 0.06434 0.25786 0.0
H593 H 0.40822 0.07772 0.20133 0.0
H594 H 0.44454 0.11525 0.25551 0.0
H595 H 0.4242 0.1023 0.31214 0.0
H596 H 0.42595 0.14482 0.29678 0.0
H597 H 0.30605 0.18624 0.27379 0.0
H598 H 0.28473 0.15736 0.34928 0.0
H599 H 0.36347 0.08775 0.3386 0.0
C600 C 0.40894 0.14714 0.16825 0.0
C601 C 0.40203 0.17226 0.1334 0.0
C602 C 0.37471 0.19259 0.14178 0.0
C603 C 0.35499 0.18832 0.18473 0.0
C604 C 0.36278 0.16346 0.21869 0.0
C605 C 0.38895 0.14301 0.21038 0.0
C606 C 0.39156 0.11716 0.25082 0.0
C607 C 0.38795 0.08311 0.22771 0.0
C608 C 0.42346 0.12008 0.28057 0.0
C609 C 0.36276 0.1261 0.2834 0.0
C610 C 0.34653 0.15307 0.26483 0.0
C611 C 0.31873 0.16523 0.28864 0.0
C612 C 0.30691 0.14891 0.33163 0.0
C613 C 0.32284 0.12079 0.34994 0.0
C614 C 0.35122 0.10958 0.32577 0.0
H615 H 0.85552 0.43451 0.21133 0.0
H616 H 0.82628 0.3563 0.11173 0.0
H617 H 0.84034 0.31652 0.17865 0.0
H618 H 0.92324 0.39458 0.26705 0.0
H619 H 0.91668 0.41134 0.32924 0.0
H620 H 0.90336 0.43341 0.27414 0.0
H621 H 0.84511 0.43603 0.31026 0.0
H622 H 0.85829 0.41387 0.36544 0.0
H623 H 0.82513 0.39901 0.32777 0.0
H624 H 0.86113 0.28509 0.25535 0.0
H625 H 0.88488 0.26496 0.33555 0.0
H626 H 0.89829 0.364 0.38588 0.0
C627 C 0.85189 0.40903 0.20348 0.0
C628 C 0.83985 0.39857 0.15597 0.0
C629 C 0.83542 0.36496 0.14767 0.0
C630 C 0.84335 0.34218 0.18552 0.0
C631 C 0.85537 0.35337 0.23176 0.0
C632 C 0.85937 0.38607 0.24093 0.0
C633 C 0.87301 0.39189 0.29353 0.0
C634 C 0.90603 0.4088 0.2908 0.0
C635 C 0.84894 0.41135 0.32617 0.0
C636 C 0.87655 0.35734 0.31241 0.0
C637 C 0.86629 0.33544 0.27622 0.0
C638 C 0.86882 0.30208 0.2841 0.0
C639 C 0.88238 0.29086 0.32979 0.0
C640 C 0.89301 0.31285 0.36744 0.0
C641 C 0.88967 0.34654 0.35857 0.0
H642 H 0.62965 0.94398 0.38831 0.0
H643 H 0.70602 0.87445 0.42216 0.0
H644 H 0.69174 0.84365 0.34436 0.0
H645 H 0.57198 0.88667 0.34132 0.0
H646 H 0.55643 0.91411 0.29391 0.0
H647 H 0.57315 0.92984 0.3518 0.0
H648 H 0.61307 0.9648 0.30012 0.0
H649 H 0.59664 0.94902 0.24205 0.0
H650 H 0.63944 0.94549 0.25467 0.0
H651 H 0.66897 0.82176 0.25846 0.0
H652 H 0.6381 0.80937 0.17995 0.0
H653 H 0.57669 0.89339 0.20718 0.0
C654 C 0.64348 0.92225 0.3796 0.0
C655 C 0.66911 0.91174 0.41132 0.0
C656 C 0.68623 0.88295 0.39855 0.0
C657 C 0.67835 0.86541 0.35428 0.0
C658 C 0.6531 0.87683 0.32348 0.0
C659 C 0.63579 0.90449 0.33619 0.0
C660 C 0.60941 0.91181 0.29796 0.0
C661 C 0.57576 0.91051 0.32273 0.0
C662 C 0.615 0.94473 0.27218 0.0
C663 C 0.61444 0.88406 0.26133 0.0
C664 C 0.63985 0.86413 0.27609 0.0
C665 C 0.64896 0.83721 0.24695 0.0
C666 C 0.6314 0.83041 0.20226 0.0
C667 C 0.60483 0.85026 0.18743 0.0
C668 C 0.59665 0.87748 0.21749 0.0
H669 H 0.08386 0.66137 0.37776 0.0
H670 H 0.16333 0.69434 0.4718 0.0
H671 H 0.20159 0.68238 0.40201 0.0
H672 H 0.12455 0.59562 0.32152 0.0
H673 H 0.1059 0.60057 0.26025 0.0
H674 H 0.08491 0.614 0.31615 0.0
H675 H 0.07922 0.67158 0.27779 0.0
H676 H 0.10044 0.65832 0.22183 0.0
H677 H 0.11492 0.69265 0.25726 0.0
H678 H 0.23169 0.66092 0.3251 0.0
H679 H 0.25073 0.63272 0.24772 0.0
H680 H 0.15139 0.61714 0.20187 0.0
C681 C 0.10926 0.66644 0.38368 0.0
C682 C 0.12056 0.67878 0.43052 0.0
C683 C 0.15405 0.68496 0.43639 0.0
C684 C 0.17595 0.6783 0.39686 0.0
C685 C 0.16397 0.66589 0.35137 0.0
C686 C 0.13133 0.66026 0.34453 0.0
C687 C 0.12469 0.64556 0.2929 0.0
C688 C 0.1091 0.61195 0.29803 0.0
C689 C 0.10357 0.6684 0.26054 0.0
C690 C 0.15879 0.643 0.27204 0.0
C691 C 0.18113 0.65493 0.3063 0.0
C692 C 0.21436 0.65229 0.29754 0.0
C693 C 0.22498 0.6364 0.25343 0.0
C694 C 0.20252 0.62384 0.21816 0.0
C695 C 0.16902 0.6278 0.22716 0.0
H696 H 0.57754 0.88866 0.89033 0.0
H697 H 0.65334 0.82086 0.93382 0.0
H698 H 0.68169 0.8313 0.85303 0.0
H699 H 0.57438 0.87174 0.76113 0.0
H700 H 0.56961 0.91308 0.74014 0.0
H701 H 0.55562 0.90145 0.80197 0.0
H702 H 0.59093 0.94557 0.84397 0.0
H703 H 0.60416 0.95809 0.78215 0.0
H704 H 0.63358 0.9471 0.82978 0.0
H705 H 0.69747 0.84382 0.76222 0.0
H706 H 0.70831 0.86875 0.67882 0.0
H707 H 0.62626 0.93357 0.69929 0.0
C708 C 0.60063 0.87681 0.88338 0.0
C709 C 0.61339 0.85403 0.91815 0.0
C710 C 0.64341 0.83865 0.90783 0.0
C711 C 0.65943 0.84414 0.86179 0.0
C712 C 0.64549 0.86574 0.82724 0.0
C713 C 0.61747 0.88286 0.83842 0.0
C714 C 0.60834 0.90583 0.79583 0.0
C715 C 0.57501 0.89751 0.77347 0.0
C716 C 0.60933 0.94125 0.81401 0.0
C717 C 0.63522 0.89849 0.75845 0.0
C718 C 0.65593 0.8747 0.77673 0.0
C719 C 0.68173 0.86284 0.74792 0.0
C720 C 0.68747 0.87683 0.70034 0.0
C721 C 0.66797 0.90283 0.6827 0.0
C722 C 0.64124 0.9134 0.71178 0.0
H723 H 0.0799 0.64901 0.74286 0.0
H724 H 0.16509 0.69545 0.68207 0.0
H725 H 0.19442 0.6843 0.76252 0.0
H726 H 0.08675 0.67671 0.8694 0.0
H727 H 0.07365 0.63929 0.8976 0.0
H728 H 0.05971 0.65042 0.8353 0.0
H729 H 0.08159 0.59619 0.79871 0.0
H730 H 0.09475 0.58453 0.86113 0.0
H731 H 0.12328 0.58481 0.8096 0.0
H732 H 0.21324 0.66991 0.85258 0.0
H733 H 0.22295 0.64557 0.93717 0.0
H734 H 0.12588 0.60695 0.9366 0.0
C735 C 0.10489 0.65648 0.74622 0.0
C736 C 0.1203 0.67305 0.70623 0.0
C737 C 0.153 0.68237 0.712 0.0
C738 C 0.16966 0.67647 0.75779 0.0
C739 C 0.15334 0.66091 0.79711 0.0
C740 C 0.1219 0.65038 0.79117 0.0
C741 C 0.11002 0.6331 0.83813 0.0
C742 C 0.0808 0.65096 0.86147 0.0
C743 C 0.10195 0.59755 0.82618 0.0
C744 C 0.1396 0.63562 0.87185 0.0
C745 C 0.16421 0.65219 0.84791 0.0
C746 C 0.19404 0.65708 0.87159 0.0
C747 C 0.19921 0.64361 0.91992 0.0
C748 C 0.17476 0.62543 0.94395 0.0
C749 C 0.14451 0.62178 0.91978 0.0
H750 H 0.38199 0.12727 0.6169 0.0
H751 H 0.2799 0.13193 0.65322 0.0
H752 H 0.29292 0.15299 0.73841 0.0
H753 H 0.40734 0.09793 0.73285 0.0
H754 H 0.44451 0.12038 0.73668 0.0
H755 H 0.42748 0.11065 0.67585 0.0
H756 H 0.42652 0.17141 0.65107 0.0
H757 H 0.44435 0.18129 0.71138 0.0
H758 H 0.4069 0.20043 0.69213 0.0
H759 H 0.31737 0.16675 0.82347 0.0
H760 H 0.3515 0.17845 0.8985 0.0
H761 H 0.43761 0.16462 0.8069 0.0
C762 C 0.36246 0.13432 0.64201 0.0
C763 C 0.3299 0.12911 0.62813 0.0
C764 C 0.30493 0.13677 0.66285 0.0
C765 C 0.31211 0.14843 0.71144 0.0
C766 C 0.34449 0.15215 0.72492 0.0
C767 C 0.36928 0.14588 0.69094 0.0
C768 C 0.40205 0.14981 0.71611 0.0
C769 C 0.42147 0.11779 0.71531 0.0
C770 C 0.42107 0.17738 0.69119 0.0
C771 C 0.39179 0.1587 0.76949 0.0
C772 C 0.35851 0.15986 0.77393 0.0
C773 C 0.34349 0.16634 0.82025 0.0
C774 C 0.36302 0.17265 0.86281 0.0
C775 C 0.39718 0.17254 0.85865 0.0
C776 C 0.41155 0.16511 0.81135 0.0
H777 H 0.91083 0.39803 0.65384 0.0
H778 H 0.86086 0.30641 0.64502 0.0
H779 H 0.83757 0.31615 0.7304 0.0
H780 H 0.93265 0.39446 0.78019 0.0
H781 H 0.92602 0.43682 0.79388 0.0
H782 H 0.93618 0.42422 0.7306 0.0
H783 H 0.88439 0.45206 0.69527 0.0
H784 H 0.8746 0.46571 0.7582 0.0
H785 H 0.8456 0.4426 0.72245 0.0
H786 H 0.82574 0.33358 0.82233 0.0
H787 H 0.81735 0.36186 0.90434 0.0
H788 H 0.87277 0.44324 0.84947 0.0
C789 C 0.89395 0.38065 0.66916 0.0
C790 C 0.88695 0.35184 0.64261 0.0
C791 C 0.86564 0.32908 0.66426 0.0
C792 C 0.85275 0.33423 0.713 0.0
C793 C 0.86115 0.36244 0.73912 0.0
C794 C 0.8805 0.38571 0.71715 0.0
C795 C 0.88618 0.41388 0.7528 0.0
C796 C 0.92241 0.41753 0.76507 0.0
C797 C 0.87183 0.44542 0.73088 0.0
C798 C 0.86749 0.40271 0.79871 0.0
C799 C 0.85358 0.37278 0.79059 0.0
C800 C 0.83621 0.3572 0.8287 0.0
C801 C 0.83193 0.3732 0.87541 0.0
C802 C 0.84457 0.4046 0.88323 0.0
C803 C 0.86292 0.41918 0.84453 0.0
loop_
_geom_bond_atom_site_label_1
_geom_bond_atom_site_label_2
_geom_bond_distance
_geom_bond_site_symmetry_2
_ccdc_geom_bond_type
C0 C1 1.351 . S
C0 N3 1.368 . S
C0 H5 0.931 . S
C1 C0 1.351 . S
C1 N2 1.373 1_556 S
C1 H29 0.930 . S
N2 C1 1.373 1_554 S
N2 C4 1.340 . S
N3 C0 1.368 . S
N3 C4 1.321 1_556 S
N3 Co6 2.135 1_556 S
C4 N2 1.340 . S
C4 N3 1.321 1_554 S
C4 H28 0.930 . S
H5 C0 0.931 . S
Co6 N3 2.135 1_554 S
Co6 N9 2.121 . S
Co6 O14 2.055 1_554 S
Co6 O17 2.039 . S
Co6 N20 2.140 . S
C7 O8 1.227 . S
C7 O17 1.265 . S
O8 C7 1.227 . S
N9 Co6 2.121 . S
N9 C11 1.375 . S
N9 C12 1.313 1_554 S
C10 C11 1.338 . S
C10 N13 1.377 . S
C10 H30 0.930 . S
C11 N9 1.375 . S
C11 C10 1.338 . S
C11 H15 0.931 . S
C12 N9 1.313 1_556 S
C12 N13 1.344 1_556 S
C12 H16 0.930 . S
N13 C10 1.377 . S
N13 C12 1.344 1_554 S
O14 Co6 2.055 1_556 S
O14 C18 1.253 . S
H15 C11 0.931 . S
H16 C12 0.930 . S
O17 Co6 2.039 . S
O17 C7 1.265 . S
C18 O14 1.253 . S
C18 O19 1.227 . S
O19 C18 1.227 . S
N20 Co6 2.140 . S
N20 C23 1.346 . S
N20 C24 1.345 1_554 S
C21 C22 1.387 . S
C21 C25 1.391 1_554 S
C22 C21 1.387 . S
C22 C23 1.369 . S
C22 H31 0.929 . S
C23 N20 1.346 . S
C23 C22 1.369 . S
C23 H26 0.928 . S
C24 N20 1.345 1_556 S
C24 C25 1.371 . S
C24 H27 0.931 . S
C25 C21 1.391 1_556 S
C25 C24 1.371 . S
C25 H32 0.930 . S
H26 C23 0.928 . S
H27 C24 0.931 . S
H28 C4 0.930 . S
H29 C1 0.930 . S
H30 C10 0.930 . S
H31 C22 0.929 . S
H32 C25 0.930 . S
C33 C34 1.351 . S
C33 N36 1.368 . S
C33 H38 0.931 . S
C34 C33 1.351 . S
C34 N35 1.373 1_556 S
C34 H62 0.930 . S
N35 C34 1.373 1_554 S
N35 C37 1.340 . S
N36 C33 1.368 . S
N36 C37 1.321 1_556 S
N36 Co39 2.135 1_556 S
C37 N35 1.340 . S
C37 N36 1.321 1_554 S
C37 H61 0.930 . S
H38 C33 0.931 . S
Co39 N36 2.135 1_554 S
Co39 N42 2.121 . S
Co39 O47 2.055 1_554 S
Co39 O50 2.039 . S
Co39 N53 2.140 . S
C40 O41 1.227 . S
C40 O50 1.265 . S
O41 C40 1.227 . S
N42 Co39 2.121 . S
N42 C44 1.375 . S
N42 C45 1.313 1_554 S
C43 C44 1.338 . S
C43 N46 1.377 . S
C43 H63 0.930 . S
C44 N42 1.375 . S
C44 C43 1.338 . S
C44 H48 0.931 . S
C45 N42 1.313 1_556 S
C45 N46 1.344 1_556 S
C45 H49 0.930 . S
N46 C43 1.377 . S
N46 C45 1.344 1_554 S
O47 Co39 2.055 1_556 S
O47 C51 1.253 . S
H48 C44 0.931 . S
H49 C45 0.930 . S
O50 Co39 2.039 . S
O50 C40 1.265 . S
C51 O47 1.253 . S
C51 O52 1.227 . S
O52 C51 1.227 . S
N53 Co39 2.140 . S
N53 C56 1.346 . S
N53 C57 1.345 1_554 S
C54 C55 1.387 . S
C54 C58 1.391 1_554 S
C55 C54 1.387 . S
C55 C56 1.369 . S
C55 H64 0.929 . S
C56 N53 1.346 . S
C56 C55 1.369 . S
C56 H59 0.928 . S
C57 N53 1.345 1_556 S
C57 C58 1.371 . S
C57 H60 0.931 . S
C58 C54 1.391 1_556 S
C58 C57 1.371 . S
C58 H65 0.930 . S
H59 C56 0.928 . S
H60 C57 0.931 . S
H61 C37 0.930 . S
H62 C34 0.930 . S
H63 C43 0.930 . S
H64 C55 0.929 . S
H65 C58 0.930 . S
C66 C67 1.351 . S
C66 N69 1.368 . S
C66 H71 0.931 . S
C67 C66 1.351 . S
C67 N68 1.373 1_556 S
C67 H95 0.930 . S
N68 C67 1.373 1_554 S
N68 C70 1.340 . S
N69 C66 1.368 . S
N69 C70 1.321 1_556 S
N69 Co72 2.135 1_556 S
C70 N68 1.340 . S
C70 N69 1.321 1_554 S
C70 H94 0.930 . S
H71 C66 0.931 . S
Co72 N69 2.135 1_554 S
Co72 N75 2.121 . S
Co72 O80 2.055 1_554 S
Co72 O83 2.039 . S
Co72 N86 2.140 . S
C73 O74 1.227 . S
C73 O83 1.265 . S
O74 C73 1.227 . S
N75 Co72 2.121 . S
N75 C77 1.375 . S
N75 C78 1.313 1_554 S
C76 C77 1.338 . S
C76 N79 1.377 . S
C76 H96 0.930 . S
C77 N75 1.375 . S
C77 C76 1.338 . S
C77 H81 0.931 . S
C78 N75 1.313 1_556 S
C78 N79 1.344 1_556 S
C78 H82 0.930 . S
N79 C76 1.377 . S
N79 C78 1.344 1_554 S
O80 Co72 2.055 1_556 S
O80 C84 1.253 . S
H81 C77 0.931 . S
H82 C78 0.930 . S
O83 Co72 2.039 . S
O83 C73 1.265 . S
C84 O80 1.253 . S
C84 O85 1.227 . S
O85 C84 1.227 . S
N86 Co72 2.140 . S
N86 C89 1.346 . S
N86 C90 1.345 1_554 S
C87 C88 1.387 . S
C87 C91 1.391 1_554 S
C88 C87 1.387 . S
C88 C89 1.369 . S
C88 H97 0.929 . S
C89 N86 1.346 . S
C89 C88 1.369 . S
C89 H92 0.928 . S
C90 N86 1.345 1_556 S
C90 C91 1.371 . S
C90 H93 0.931 . S
C91 C87 1.391 1_556 S
C91 C90 1.371 . S
C91 H98 0.930 . S
H92 C89 0.928 . S
H93 C90 0.931 . S
H94 C70 0.930 . S
H95 C67 0.930 . S
H96 C76 0.930 . S
H97 C88 0.929 . S
H98 C91 0.930 . S
C99 C100 1.351 . S
C99 N102 1.368 . S
C99 H104 0.931 . S
C100 C99 1.351 . S
C100 N101 1.373 1_556 S
C100 H128 0.930 . S
N101 C100 1.373 1_554 S
N101 C103 1.340 . S
N102 C99 1.368 . S
N102 C103 1.321 1_556 S
N102 Co105 2.135 1_556 S
C103 N101 1.340 . S
C103 N102 1.321 1_554 S
C103 H127 0.930 . S
H104 C99 0.931 . S
Co105 N102 2.135 1_554 S
Co105 N108 2.121 . S
Co105 O113 2.055 1_554 S
Co105 O116 2.039 . S
Co105 N119 2.140 . S
C106 O107 1.227 . S
C106 O116 1.265 . S
O107 C106 1.227 . S
N108 Co105 2.121 . S
N108 C110 1.375 . S
N108 C111 1.313 1_554 S
C109 C110 1.338 . S
C109 N112 1.377 . S
C109 H129 0.930 . S
C110 N108 1.375 . S
C110 C109 1.338 . S
C110 H114 0.931 . S
C111 N108 1.313 1_556 S
C111 N112 1.344 1_556 S
C111 H115 0.930 . S
N112 C109 1.377 . S
N112 C111 1.344 1_554 S
O113 Co105 2.055 1_556 S
O113 C117 1.253 . S
H114 C110 0.931 . S
H115 C111 0.930 . S
O116 Co105 2.039 . S
O116 C106 1.265 . S
C117 O113 1.253 . S
C117 O118 1.227 . S
O118 C117 1.227 . S
N119 Co105 2.140 . S
N119 C122 1.346 . S
N119 C123 1.345 1_554 S
C120 C121 1.387 . S
C120 C124 1.391 1_554 S
C121 C120 1.387 . S
C121 C122 1.369 . S
C121 H130 0.929 . S
C122 N119 1.346 . S
C122 C121 1.369 . S
C122 H125 0.928 . S
C123 N119 1.345 1_556 S
C123 C124 1.371 . S
C123 H126 0.931 . S
C124 C120 1.391 1_556 S
C124 C123 1.371 . S
C124 H131 0.930 . S
H125 C122 0.928 . S
H126 C123 0.931 . S
H127 C103 0.930 . S
H128 C100 0.930 . S
H129 C109 0.930 . S
H130 C121 0.929 . S
H131 C124 0.930 . S
C132 C133 1.351 . S
C132 N135 1.368 . S
C132 H137 0.931 . S
C133 C132 1.351 . S
C133 N134 1.373 . S
C133 H161 0.930 . S
N134 C133 1.373 . S
N134 C136 1.340 . S
N135 C132 1.368 . S
N135 C136 1.321 . S
N135 Co138 2.135 . S
C136 N134 1.340 . S
C136 N135 1.321 . S
C136 H160 0.930 . S
H137 C132 0.931 . S
Co138 N135 2.135 . S
Co138 N141 2.121 . S
Co138 O146 2.055 . S
Co138 O149 2.039 . S
Co138 N152 2.140 . S
C139 O140 1.227 . S
C139 O149 1.265 . S
O140 C139 1.227 . S
N141 Co138 2.121 . S
N141 C143 1.375 . S
N141 C144 1.313 . S
C142 C143 1.338 . S
C142 N145 1.377 . S
C142 H162 0.930 . S
C143 N141 1.375 . S
C143 C142 1.338 . S
C143 H147 0.931 . S
C144 N141 1.313 . S
C144 N145 1.344 . S
C144 H148 0.930 . S
N145 C142 1.377 . S
N145 C144 1.344 . S
O146 Co138 2.055 . S
O146 C150 1.253 . S
H147 C143 0.931 . S
H148 C144 0.930 . S
O149 Co138 2.039 . S
O149 C139 1.265 . S
C150 O146 1.253 . S
C150 O151 1.227 . S
O151 C150 1.227 . S
N152 Co138 2.140 . S
N152 C155 1.346 . S
N152 C156 1.345 . S
C153 C154 1.387 1_455 S
C153 C157 1.391 . S
C154 C153 1.387 1_655 S
C154 C155 1.369 . S
C154 H163 0.929 . S
C155 N152 1.346 . S
C155 C154 1.369 . S
C155 H158 0.928 . S
C156 N152 1.345 . S
C156 C157 1.371 1_655 S
C156 H159 0.931 . S
C157 C153 1.391 . S
C157 C156 1.371 1_455 S
C157 H164 0.930 . S
H158 C155 0.928 . S
H159 C156 0.931 . S
H160 C136 0.930 . S
H161 C133 0.930 . S
H162 C142 0.930 . S
H163 C154 0.929 . S
H164 C157 0.930 . S
C165 C166 1.351 . S
C165 N168 1.368 . S
C165 H170 0.931 . S
C166 C165 1.351 . S
C166 N167 1.373 . S
C166 H194 0.930 . S
N167 C166 1.373 . S
N167 C169 1.340 . S
N168 C165 1.368 . S
N168 C169 1.321 . S
N168 Co171 2.135 . S
C169 N167 1.340 . S
C169 N168 1.321 . S
C169 H193 0.930 . S
H170 C165 0.931 . S
Co171 N168 2.135 . S
Co171 N174 2.121 . S
Co171 O179 2.055 . S
Co171 O182 2.039 . S
Co171 N185 2.140 . S
C172 O173 1.227 . S
C172 O182 1.265 . S
O173 C172 1.227 . S
N174 Co171 2.121 . S
N174 C176 1.375 . S
N174 C177 1.313 . S
C175 C176 1.338 . S
C175 N178 1.377 . S
C175 H195 0.930 . S
C176 N174 1.375 . S
C176 C175 1.338 . S
C176 H180 0.931 . S
C177 N174 1.313 . S
C177 N178 1.344 . S
C177 H181 0.930 . S
N178 C175 1.377 . S
N178 C177 1.344 . S
O179 Co171 2.055 . S
O179 C183 1.253 . S
H180 C176 0.931 . S
H181 C177 0.930 . S
O182 Co171 2.039 . S
O182 C172 1.265 . S
C183 O179 1.253 . S
C183 O184 1.227 . S
O184 C183 1.227 . S
N185 Co171 2.140 . S
N185 C188 1.346 . S
N185 C189 1.345 . S
C186 C187 1.387 1_545 S
C186 C190 1.391 . S
C187 C186 1.387 1_565 S
C187 C188 1.369 . S
C187 H196 0.929 . S
C188 N185 1.346 . S
C188 C187 1.369 . S
C188 H191 0.928 . S
C189 N185 1.345 . S
C189 C190 1.371 1_565 S
C189 H192 0.931 . S
C190 C186 1.391 . S
C190 C189 1.371 1_545 S
C190 H197 0.930 . S
H191 C188 0.928 . S
H192 C189 0.931 . S
H193 C169 0.930 . S
H194 C166 0.930 . S
H195 C175 0.930 . S
H196 C187 0.929 . S
H197 C190 0.930 . S
C198 C199 1.351 . S
C198 N201 1.368 . S
C198 H203 0.931 . S
C199 C198 1.351 . S
C199 N200 1.373 . S
C199 H227 0.930 . S
N200 C199 1.373 . S
N200 C202 1.340 . S
N201 C198 1.368 . S
N201 C202 1.321 . S
N201 Co204 2.135 . S
C202 N200 1.340 . S
C202 N201 1.321 . S
C202 H226 0.930 . S
H203 C198 0.931 . S
Co204 N201 2.135 . S
Co204 N207 2.121 . S
Co204 O212 2.055 . S
Co204 O215 2.039 . S
Co204 N218 2.140 . S
C205 O206 1.227 . S
C205 O215 1.265 . S
O206 C205 1.227 . S
N207 Co204 2.121 . S
N207 C209 1.375 . S
N207 C210 1.313 . S
C208 C209 1.338 . S
C208 N211 1.377 . S
C208 H228 0.930 . S
C209 N207 1.375 . S
C209 C208 1.338 . S
C209 H213 0.931 . S
C210 N207 1.313 . S
C210 N211 1.344 . S
C210 H214 0.930 . S
N211 C208 1.377 . S
N211 C210 1.344 . S
O212 Co204 2.055 . S
O212 C216 1.253 . S
H213 C209 0.931 . S
H214 C210 0.930 . S
O215 Co204 2.039 . S
O215 C205 1.265 . S
C216 O212 1.253 . S
C216 O217 1.227 . S
O217 C216 1.227 . S
N218 Co204 2.140 . S
N218 C221 1.346 . S
N218 C222 1.345 . S
C219 C220 1.387 1_655 S
C219 C223 1.391 . S
C220 C219 1.387 1_455 S
C220 C221 1.369 . S
C220 H229 0.929 . S
C221 N218 1.346 . S
C221 C220 1.369 . S
C221 H224 0.928 . S
C222 N218 1.345 . S
C222 C223 1.371 1_455 S
C222 H225 0.931 . S
C223 C219 1.391 . S
C223 C222 1.371 1_655 S
C223 H230 0.930 . S
H224 C221 0.928 . S
H225 C222 0.931 . S
H226 C202 0.930 . S
H227 C199 0.930 . S
H228 C208 0.930 . S
H229 C220 0.929 . S
H230 C223 0.930 . S
C231 C232 1.351 . S
C231 N234 1.368 . S
C231 H236 0.931 . S
C232 C231 1.351 . S
C232 N233 1.373 . S
C232 H260 0.930 . S
N233 C232 1.373 . S
N233 C235 1.340 . S
N234 C231 1.368 . S
N234 C235 1.321 . S
N234 Co237 2.135 . S
C235 N233 1.340 . S
C235 N234 1.321 . S
C235 H259 0.930 . S
H236 C231 0.931 . S
Co237 N234 2.135 . S
Co237 N240 2.121 . S
Co237 O245 2.055 . S
Co237 O248 2.039 . S
Co237 N251 2.140 . S
C238 O239 1.227 . S
C238 O248 1.265 . S
O239 C238 1.227 . S
N240 Co237 2.121 . S
N240 C242 1.375 . S
N240 C243 1.313 . S
C241 C242 1.338 . S
C241 N244 1.377 . S
C241 H261 0.930 . S
C242 N240 1.375 . S
C242 C241 1.338 . S
C242 H246 0.931 . S
C243 N240 1.313 . S
C243 N244 1.344 . S
C243 H247 0.930 . S
N244 C241 1.377 . S
N244 C243 1.344 . S
O245 Co237 2.055 . S
O245 C249 1.253 . S
H246 C242 0.931 . S
H247 C243 0.930 . S
O248 Co237 2.039 . S
O248 C238 1.265 . S
C249 O245 1.253 . S
C249 O250 1.227 . S
O250 C249 1.227 . S
N251 Co237 2.140 . S
N251 C254 1.346 . S
N251 C255 1.345 . S
C252 C253 1.387 1_565 S
C252 C256 1.391 . S
C253 C252 1.387 1_545 S
C253 C254 1.369 . S
C253 H262 0.929 . S
C254 N251 1.346 . S
C254 C253 1.369 . S
C254 H257 0.928 . S
C255 N251 1.345 . S
C255 C256 1.371 1_545 S
C255 H258 0.931 . S
C256 C252 1.391 . S
C256 C255 1.371 1_565 S
C256 H263 0.930 . S
H257 C254 0.928 . S
H258 C255 0.931 . S
H259 C235 0.930 . S
H260 C232 0.930 . S
H261 C241 0.930 . S
H262 C253 0.929 . S
H263 C256 0.930 . S
H264 C276 0.930 . S
H265 C278 0.930 . S
H266 C279 0.930 . S
H267 C283 0.959 . S
H268 C283 0.959 . S
H269 C283 0.961 1_565 S
H270 C284 0.960 . S
H271 C284 0.961 1_545 S
H272 C284 0.959 . S
H273 C287 0.929 . S
H274 C288 0.931 . S
H275 C290 0.930 . S
C276 H264 0.930 . S
C276 C277 1.399 . S
C276 C281 1.399 . S
C277 C276 1.399 . S
C277 C278 1.376 1_556 S
C278 H265 0.930 . S
C278 C277 1.376 1_554 S
C278 C279 1.388 . S
C279 H266 0.930 . S
C279 C278 1.388 . S
C279 C280 1.390 . S
C280 C279 1.390 . S
C280 C281 1.394 1_554 S
C280 C286 1.465 1_565 S
C281 C276 1.399 . S
C281 C280 1.394 1_556 S
C281 C282 1.516 1_565 S
C282 C281 1.516 1_545 S
C282 C283 1.502 . S
C282 C284 1.561 1_545 S
C282 C285 1.526 . S
C283 H267 0.959 . S
C283 H268 0.959 . S
C283 H269 0.961 1_545 S
C283 C282 1.502 . S
C284 H270 0.960 . S
C284 H271 0.961 1_565 S
C284 H272 0.959 . S
C284 C282 1.561 1_565 S
C285 C282 1.526 . S
C285 C286 1.396 1_556 S
C285 C290 1.390 . S
C286 C280 1.465 1_545 S
C286 C285 1.396 1_554 S
C286 C287 1.399 . S
C287 H273 0.929 . S
C287 C286 1.399 . S
C287 C288 1.385 . S
C288 H274 0.931 . S
C288 C287 1.385 . S
C288 C289 1.389 1_554 S
C289 C288 1.389 1_556 S
C289 C290 1.387 . S
C290 H275 0.930 . S
C290 C285 1.390 . S
C290 C289 1.387 . S
H291 C303 0.930 . S
H292 C305 0.930 . S
H293 C306 0.930 . S
H294 C310 0.959 . S
H295 C310 0.934 1_455 S
H296 C310 0.961 . S
H297 C311 0.960 1_655 S
H298 C311 0.961 . S
H299 C311 0.959 . S
H300 C314 0.929 . S
H301 C315 0.931 . S
H302 C317 0.930 . S
C303 H291 0.930 . S
C303 C304 1.399 1_554 S
C303 C308 1.399 . S
C304 C303 1.399 1_556 S
C304 C305 1.376 . S
C305 H292 0.930 . S
C305 C304 1.376 . S
C305 C306 1.388 . S
C306 H293 0.930 . S
C306 C305 1.388 . S
C306 C307 1.390 . S
C307 C306 1.390 . S
C307 C308 1.394 1_556 S
C307 C313 1.465 1_655 S
C308 C303 1.399 . S
C308 C307 1.394 1_554 S
C308 C309 1.516 . S
C309 C308 1.516 . S
C309 C310 1.502 . S
C309 C311 1.561 1_655 S
C309 C312 1.526 1_655 S
C310 H294 0.959 . S
C310 H295 0.934 1_655 S
C310 H296 0.961 . S
C310 C309 1.502 . S
C311 H297 0.960 1_455 S
C311 H298 0.961 . S
C311 H299 0.959 . S
C311 C309 1.561 1_455 S
C312 C309 1.526 1_455 S
C312 C313 1.396 1_554 S
C312 C317 1.390 . S
C313 C307 1.465 1_455 S
C313 C312 1.396 1_556 S
C313 C314 1.399 . S
C314 H300 0.929 . S
C314 C313 1.399 . S
C314 C315 1.385 . S
C315 H301 0.931 . S
C315 C314 1.385 . S
C315 C316 1.389 . S
C316 C315 1.389 . S
C316 C317 1.387 1_556 S
C317 H302 0.930 . S
C317 C312 1.390 . S
C317 C316 1.387 1_554 S
H318 C330 0.930 . S
H319 C332 0.930 . S
H320 C333 0.930 . S
H321 C337 0.959 . S
H322 C337 0.959 . S
H323 C337 0.961 . S
H324 C338 0.960 . S
H325 C338 0.961 1_455 S
H326 C338 0.959 . S
H327 C341 0.929 . S
H328 C342 0.931 . S
H329 C344 0.930 . S
C330 H318 0.930 . S
C330 C331 1.399 . S
C330 C335 1.399 . S
C331 C330 1.399 . S
C331 C332 1.376 . S
C332 H319 0.930 . S
C332 C331 1.376 . S
C332 C333 1.388 . S
C333 H320 0.930 . S
C333 C332 1.388 . S
C333 C334 1.390 . S
C334 C333 1.390 . S
C334 C335 1.394 . S
C334 C340 1.465 . S
C335 C330 1.399 . S
C335 C334 1.394 . S
C335 C336 1.516 1_655 S
C336 C335 1.516 1_455 S
C336 C337 1.502 . S
C336 C338 1.561 1_455 S
C336 C339 1.526 . S
C337 H321 0.959 . S
C337 H322 0.959 . S
C337 H323 0.961 . S
C337 C336 1.502 . S
C338 H324 0.960 . S
C338 H325 0.961 1_655 S
C338 H326 0.959 . S
C338 C336 1.561 1_655 S
C339 C336 1.526 . S
C339 C340 1.396 1_455 S
C339 C344 1.390 . S
C340 C334 1.465 . S
C340 C339 1.396 1_655 S
C340 C341 1.399 . S
C341 H327 0.929 . S
C341 C340 1.399 . S
C341 C342 1.385 1_655 S
C342 H328 0.931 . S
C342 C341 1.385 1_455 S
C342 C343 1.389 . S
C343 C342 1.389 . S
C343 C344 1.387 . S
C344 H329 0.930 . S
C344 C339 1.390 . S
C344 C343 1.387 . S
H345 C357 0.930 . S
H346 C359 0.930 . S
H347 C360 0.930 . S
H348 C364 0.959 . S
H349 C364 0.959 . S
H350 C364 0.961 . S
H351 C365 0.960 . S
H352 C365 0.961 1_545 S
H353 C365 0.959 . S
H354 C368 0.929 . S
H355 C369 0.931 . S
H356 C371 0.930 . S
C357 H345 0.930 . S
C357 C358 1.399 . S
C357 C362 1.399 . S
C358 C357 1.399 . S
C358 C359 1.376 . S
C359 H346 0.930 . S
C359 C358 1.376 . S
C359 C360 1.388 . S
C360 H347 0.930 . S
C360 C359 1.388 . S
C360 C361 1.390 . S
C361 C360 1.390 . S
C361 C362 1.394 . S
C361 C367 1.465 . S
C362 C357 1.399 . S
C362 C361 1.394 . S
C362 C363 1.516 1_565 S
C363 C362 1.516 1_545 S
C363 C364 1.502 . S
C363 C365 1.561 1_545 S
C363 C366 1.526 . S
C364 H348 0.959 . S
C364 H349 0.959 . S
C364 H350 0.961 . S
C364 C363 1.502 . S
C365 H351 0.960 . S
C365 H352 0.961 1_565 S
C365 H353 0.959 . S
C365 C363 1.561 1_565 S
C366 C363 1.526 . S
C366 C367 1.396 1_545 S
C366 C371 1.390 . S
C367 C361 1.465 . S
C367 C366 1.396 1_565 S
C367 C368 1.399 . S
C368 H354 0.929 . S
C368 C367 1.399 . S
C368 C369 1.385 1_565 S
C369 H355 0.931 . S
C369 C368 1.385 1_545 S
C369 C370 1.389 . S
C370 C369 1.389 . S
C370 C371 1.387 . S
C371 H356 0.930 . S
C371 C366 1.390 . S
C371 C370 1.387 . S
H372 C384 0.930 . S
H373 C386 0.930 . S
H374 C387 0.930 . S
H375 C391 0.959 . S
H376 C391 0.959 . S
H377 C391 0.961 . S
H378 C392 0.960 . S
H379 C392 0.961 . S
H380 C392 0.959 . S
H381 C395 0.929 . S
H382 C396 0.931 . S
H383 C398 0.930 . S
C384 H372 0.930 . S
C384 C385 1.399 1_556 S
C384 C389 1.399 . S
C385 C384 1.399 1_554 S
C385 C386 1.376 . S
C386 H373 0.930 . S
C386 C385 1.376 . S
C386 C387 1.388 . S
C387 H374 0.930 . S
C387 C386 1.388 . S
C387 C388 1.390 . S
C388 C387 1.390 . S
C388 C389 1.394 1_554 S
C388 C394 1.465 . S
C389 C384 1.399 . S
C389 C388 1.394 1_556 S
C389 C390 1.516 . S
C390 C389 1.516 . S
C390 C391 1.502 . S
C390 C392 1.561 . S
C390 C393 1.526 . S
C391 H375 0.959 . S
C391 H376 0.959 . S
C391 H377 0.961 . S
C391 C390 1.502 . S
C392 H378 0.960 . S
C392 H379 0.961 . S
C392 H380 0.959 . S
C392 C390 1.561 . S
C393 C390 1.526 . S
C393 C394 1.396 1_556 S
C393 C398 1.390 . S
C394 C388 1.465 . S
C394 C393 1.396 1_554 S
C394 C395 1.399 . S
C395 H381 0.929 . S
C395 C394 1.399 . S
C395 C396 1.385 . S
C396 H382 0.931 . S
C396 C395 1.385 . S
C396 C397 1.389 . S
C397 C396 1.389 . S
C397 C398 1.387 1_554 S
C398 H383 0.930 . S
C398 C393 1.390 . S
C398 C397 1.387 1_556 S
H399 C411 0.930 . S
H400 C413 0.930 . S
H401 C414 0.930 . S
H402 C418 0.959 . S
H403 C418 0.959 . S
H404 C418 0.961 . S
H405 C419 0.960 . S
H406 C419 0.961 . S
H407 C419 0.959 . S
H408 C422 0.929 . S
H409 C423 0.931 . S
H410 C425 0.930 . S
C411 H399 0.930 . S
C411 C412 1.399 1_556 S
C411 C416 1.399 . S
C412 C411 1.399 1_554 S
C412 C413 1.376 . S
C413 H400 0.930 . S
C413 C412 1.376 . S
C413 C414 1.388 . S
C414 H401 0.930 . S
C414 C413 1.388 . S
C414 C415 1.390 . S
C415 C414 1.390 . S
C415 C416 1.394 1_554 S
C415 C421 1.465 . S
C416 C411 1.399 . S
C416 C415 1.394 1_556 S
C416 C417 1.516 . S
C417 C416 1.516 . S
C417 C418 1.502 . S
C417 C419 1.561 . S
C417 C420 1.526 . S
C418 H402 0.959 . S
C418 H403 0.959 . S
C418 H404 0.961 . S
C418 C417 1.502 . S
C419 H405 0.960 . S
C419 H406 0.961 . S
C419 H407 0.959 . S
C419 C417 1.561 . S
C420 C417 1.526 . S
C420 C421 1.396 1_556 S
C420 C425 1.390 . S
C421 C415 1.465 . S
C421 C420 1.396 1_554 S
C421 C422 1.399 . S
C422 H408 0.929 . S
C422 C421 1.399 . S
C422 C423 1.385 . S
C423 H409 0.931 . S
C423 C422 1.385 . S
C423 C424 1.389 . S
C424 C423 1.389 . S
C424 C425 1.387 1_554 S
C425 H410 0.930 . S
C425 C420 1.390 . S
C425 C424 1.387 1_556 S
H426 C438 0.930 . S
H427 C440 0.930 . S
H428 C441 0.930 . S
H429 C445 0.959 . S
H430 C445 0.959 . S
H431 C445 0.961 . S
H432 C446 0.960 . S
H433 C446 0.961 . S
H434 C446 0.959 . S
H435 C449 0.929 . S
H436 C450 0.931 . S
H437 C452 0.930 . S
C438 H426 0.930 . S
C438 C439 1.399 1_556 S
C438 C443 1.399 . S
C439 C438 1.399 1_554 S
C439 C440 1.376 . S
C440 H427 0.930 . S
C440 C439 1.376 . S
C440 C441 1.388 . S
C441 H428 0.930 . S
C441 C440 1.388 . S
C441 C442 1.390 . S
C442 C441 1.390 . S
C442 C443 1.394 1_554 S
C442 C448 1.465 . S
C443 C438 1.399 . S
C443 C442 1.394 1_556 S
C443 C444 1.516 . S
C444 C443 1.516 . S
C444 C445 1.502 . S
C444 C446 1.561 . S
C444 C447 1.526 . S
C445 H429 0.959 . S
C445 H430 0.959 . S
C445 H431 0.961 . S
C445 C444 1.502 . S
C446 H432 0.960 . S
C446 H433 0.961 . S
C446 H434 0.959 . S
C446 C444 1.561 . S
C447 C444 1.526 . S
C447 C448 1.396 1_556 S
C447 C452 1.390 . S
C448 C442 1.465 . S
C448 C447 1.396 1_554 S
C448 C449 1.399 . S
C449 H435 0.929 . S
C449 C448 1.399 . S
C449 C450 1.385 . S
C450 H436 0.931 . S
C450 C449 1.385 . S
C450 C451 1.389 . S
C451 C450 1.389 . S
C451 C452 1.387 1_554 S
C452 H437 0.930 . S
C452 C447 1.390 . S
C452 C451 1.387 1_556 S
H453 C465 0.930 . S
H454 C467 0.930 . S
H455 C468 0.930 . S
H456 C472 0.959 . S
H457 C472 0.959 . S
H458 C472 0.961 . S
H459 C473 0.960 . S
H460 C473 0.961 . S
H461 C473 0.959 . S
H462 C476 0.929 . S
H463 C477 0.931 . S
H464 C479 0.930 . S
C465 H453 0.930 . S
C465 C466 1.399 . S
C465 C470 1.399 . S
C466 C465 1.399 . S
C466 C467 1.376 1_554 S
C467 H454 0.930 . S
C467 C466 1.376 1_556 S
C467 C468 1.388 . S
C468 H455 0.930 . S
C468 C467 1.388 . S
C468 C469 1.390 . S
C469 C468 1.390 . S
C469 C470 1.394 1_556 S
C469 C475 1.465 . S
C470 C465 1.399 . S
C470 C469 1.394 1_554 S
C470 C471 1.516 . S
C471 C470 1.516 . S
C471 C472 1.502 . S
C471 C473 1.561 . S
C471 C474 1.526 . S
C472 H456 0.959 . S
C472 H457 0.959 . S
C472 H458 0.961 . S
C472 C471 1.502 . S
C473 H459 0.960 . S
C473 H460 0.961 . S
C473 H461 0.959 . S
C473 C471 1.561 . S
C474 C471 1.526 . S
C474 C475 1.396 1_554 S
C474 C479 1.390 . S
C475 C469 1.465 . S
C475 C474 1.396 1_556 S
C475 C476 1.399 . S
C476 H462 0.929 . S
C476 C475 1.399 . S
C476 C477 1.385 . S
C477 H463 0.931 . S
C477 C476 1.385 . S
C477 C478 1.389 1_556 S
C478 C477 1.389 1_554 S
C478 C479 1.387 . S
C479 H464 0.930 . S
C479 C474 1.390 . S
C479 C478 1.387 . S
H480 C492 0.930 . S
H481 C494 0.930 . S
H482 C495 0.930 . S
H483 C499 0.959 . S
H484 C499 0.959 . S
H485 C499 0.961 . S
H486 C500 0.960 . S
H487 C500 0.961 . S
H488 C500 0.959 . S
H489 C503 0.929 . S
H490 C504 0.931 . S
H491 C506 0.930 . S
C492 H480 0.930 . S
C492 C493 1.399 . S
C492 C497 1.399 . S
C493 C492 1.399 . S
C493 C494 1.376 . S
C494 H481 0.930 . S
C494 C493 1.376 . S
C494 C495 1.388 . S
C495 H482 0.930 . S
C495 C494 1.388 . S
C495 C496 1.390 . S
C496 C495 1.390 . S
C496 C497 1.394 . S
C496 C502 1.465 . S
C497 C492 1.399 . S
C497 C496 1.394 . S
C497 C498 1.516 . S
C498 C497 1.516 . S
C498 C499 1.502 . S
C498 C500 1.561 . S
C498 C501 1.526 . S
C499 H483 0.959 . S
C499 H484 0.959 . S
C499 H485 0.961 . S
C499 C498 1.502 . S
C500 H486 0.960 . S
C500 H487 0.961 . S
C500 H488 0.959 . S
C500 C498 1.561 . S
C501 C498 1.526 . S
C501 C502 1.396 . S
C501 C506 1.390 . S
C502 C496 1.465 . S
C502 C501 1.396 . S
C502 C503 1.399 . S
C503 H489 0.929 . S
C503 C502 1.399 . S
C503 C504 1.385 . S
C504 H490 0.931 . S
C504 C503 1.385 . S
C504 C505 1.389 . S
C505 C504 1.389 . S
C505 C506 1.387 . S
C506 H491 0.930 . S
C506 C501 1.390 . S
C506 C505 1.387 . S
H507 C519 0.930 . S
H508 C521 0.930 . S
H509 C522 0.930 . S
H510 C526 0.959 . S
H511 C526 0.959 . S
H512 C526 0.961 . S
H513 C527 0.960 . S
H514 C527 0.961 . S
H515 C527 0.959 . S
H516 C530 0.929 . S
H517 C531 0.931 . S
H518 C533 0.930 . S
C519 H507 0.930 . S
C519 C520 1.399 . S
C519 C524 1.399 . S
C520 C519 1.399 . S
C520 C521 1.376 . S
C521 H508 0.930 . S
C521 C520 1.376 . S
C521 C522 1.388 . S
C522 H509 0.930 . S
C522 C521 1.388 . S
C522 C523 1.390 . S
C523 C522 1.390 . S
C523 C524 1.394 . S
C523 C529 1.465 . S
C524 C519 1.399 . S
C524 C523 1.394 . S
C524 C525 1.516 . S
C525 C524 1.516 . S
C525 C526 1.502 . S
C525 C527 1.561 . S
C525 C528 1.526 . S
C526 H510 0.959 . S
C526 H511 0.959 . S
C526 H512 0.961 . S
C526 C525 1.502 . S
C527 H513 0.960 . S
C527 H514 0.961 . S
C527 H515 0.959 . S
C527 C525 1.561 . S
C528 C525 1.526 . S
C528 C529 1.396 . S
C528 C533 1.390 . S
C529 C523 1.465 . S
C529 C528 1.396 . S
C529 C530 1.399 . S
C530 H516 0.929 . S
C530 C529 1.399 . S
C530 C531 1.385 . S
C531 H517 0.931 . S
C531 C530 1.385 . S
C531 C532 1.389 . S
C532 C531 1.389 . S
C532 C533 1.387 . S
C533 H518 0.930 . S
C533 C528 1.390 . S
C533 C532 1.387 . S
H534 C546 0.930 . S
H535 C548 0.930 . S
H536 C549 0.930 . S
H537 C553 0.959 . S
H538 C553 0.959 . S
H539 C553 0.961 . S
H540 C554 0.960 . S
H541 C554 0.961 . S
H542 C554 0.959 . S
H543 C557 0.929 . S
H544 C558 0.931 . S
H545 C560 0.930 . S
C546 H534 0.930 . S
C546 C547 1.399 . S
C546 C551 1.399 . S
C547 C546 1.399 . S
C547 C548 1.376 . S
C548 H535 0.930 . S
C548 C547 1.376 . S
C548 C549 1.388 . S
C549 H536 0.930 . S
C549 C548 1.388 . S
C549 C550 1.390 . S
C550 C549 1.390 . S
C550 C551 1.394 . S
C550 C556 1.465 . S
C551 C546 1.399 . S
C551 C550 1.394 . S
C551 C552 1.516 . S
C552 C551 1.516 . S
C552 C553 1.502 . S
C552 C554 1.561 . S
C552 C555 1.526 . S
C553 H537 0.959 . S
C553 H538 0.959 . S
C553 H539 0.961 . S
C553 C552 1.502 . S
C554 H540 0.960 . S
C554 H541 0.961 . S
C554 H542 0.959 . S
C554 C552 1.561 . S
C555 C552 1.526 . S
C555 C556 1.396 . S
C555 C560 1.390 . S
C556 C550 1.465 . S
C556 C555 1.396 . S
C556 C557 1.399 . S
C557 H543 0.929 . S
C557 C556 1.399 . S
C557 C558 1.385 . S
C558 H544 0.931 . S
C558 C557 1.385 . S
C558 C559 1.389 . S
C559 C558 1.389 . S
C559 C560 1.387 . S
C560 H545 0.930 . S
C560 C555 1.390 . S
C560 C559 1.387 . S
H561 C573 0.930 . S
H562 C575 0.930 . S
H563 C576 0.930 . S
H564 C580 0.959 . S
H565 C580 0.959 . S
H566 C580 0.961 . S
H567 C581 0.960 . S
H568 C581 0.961 . S
H569 C581 0.959 . S
H570 C584 0.929 . S
H571 C585 0.931 . S
H572 C587 0.930 . S
C573 H561 0.930 . S
C573 C574 1.399 . S
C573 C578 1.399 . S
C574 C573 1.399 . S
C574 C575 1.376 . S
C575 H562 0.930 . S
C575 C574 1.376 . S
C575 C576 1.388 . S
C576 H563 0.930 . S
C576 C575 1.388 . S
C576 C577 1.390 . S
C577 C576 1.390 . S
C577 C578 1.394 . S
C577 C583 1.465 . S
C578 C573 1.399 . S
C578 C577 1.394 . S
C578 C579 1.516 . S
C579 C578 1.516 . S
C579 C580 1.502 . S
C579 C581 1.561 . S
C579 C582 1.526 . S
C580 H564 0.959 . S
C580 H565 0.959 . S
C580 H566 0.961 . S
C580 C579 1.502 . S
C581 H567 0.960 . S
C581 H568 0.961 . S
C581 H569 0.959 . S
C581 C579 1.561 . S
C582 C579 1.526 . S
C582 C583 1.396 . S
C582 C587 1.390 . S
C583 C577 1.465 . S
C583 C582 1.396 . S
C583 C584 1.399 . S
C584 H570 0.929 . S
C584 C583 1.399 . S
C584 C585 1.385 . S
C585 H571 0.931 . S
C585 C584 1.385 . S
C585 C586 1.389 . S
C586 C585 1.389 . S
C586 C587 1.387 . S
C587 H572 0.930 . S
C587 C582 1.390 . S
C587 C586 1.387 . S
H588 C600 0.930 . S
H589 C602 0.930 . S
H590 C603 0.930 . S
H591 C607 0.959 . S
H592 C607 0.959 . S
H593 C607 0.961 . S
H594 C608 0.960 . S
H595 C608 0.961 . S
H596 C608 0.959 . S
H597 C611 0.929 . S
H598 C612 0.931 . S
H599 C614 0.930 . S
C600 H588 0.930 . S
C600 C601 1.399 . S
C600 C605 1.399 . S
C601 C600 1.399 . S
C601 C602 1.376 . S
C602 H589 0.930 . S
C602 C601 1.376 . S
C602 C603 1.388 . S
C603 H590 0.930 . S
C603 C602 1.388 . S
C603 C604 1.390 . S
C604 C603 1.390 . S
C604 C605 1.394 . S
C604 C610 1.465 . S
C605 C600 1.399 . S
C605 C604 1.394 . S
C605 C606 1.516 . S
C606 C605 1.516 . S
C606 C607 1.502 . S
C606 C608 1.561 . S
C606 C609 1.526 . S
C607 H591 0.959 . S
C607 H592 0.959 . S
C607 H593 0.961 . S
C607 C606 1.502 . S
C608 H594 0.960 . S
C608 H595 0.961 . S
C608 H596 0.959 . S
C608 C606 1.561 . S
C609 C606 1.526 . S
C609 C610 1.396 . S
C609 C614 1.390 . S
C610 C604 1.465 . S
C610 C609 1.396 . S
C610 C611 1.399 . S
C611 H597 0.929 . S
C611 C610 1.399 . S
C611 C612 1.385 . S
C612 H598 0.931 . S
C612 C611 1.385 . S
C612 C613 1.389 . S
C613 C612 1.389 . S
C613 C614 1.387 . S
C614 H599 0.930 . S
C614 C609 1.390 . S
C614 C613 1.387 . S
H615 C627 0.930 . S
H616 C629 0.930 . S
H617 C630 0.930 . S
H618 C634 0.959 . S
H619 C634 0.959 . S
H620 C634 0.961 . S
H621 C635 0.960 . S
H622 C635 0.961 . S
H623 C635 0.959 . S
H624 C638 0.929 . S
H625 C639 0.931 . S
H626 C641 0.930 . S
C627 H615 0.930 . S
C627 C628 1.399 . S
C627 C632 1.399 . S
C628 C627 1.399 . S
C628 C629 1.376 . S
C629 H616 0.930 . S
C629 C628 1.376 . S
C629 C630 1.388 . S
C630 H617 0.930 . S
C630 C629 1.388 . S
C630 C631 1.390 . S
C631 C630 1.390 . S
C631 C632 1.394 . S
C631 C637 1.465 . S
C632 C627 1.399 . S
C632 C631 1.394 . S
C632 C633 1.516 . S
C633 C632 1.516 . S
C633 C634 1.502 . S
C633 C635 1.561 . S
C633 C636 1.526 . S
C634 H618 0.959 . S
C634 H619 0.959 . S
C634 H620 0.961 . S
C634 C633 1.502 . S
C635 H621 0.960 . S
C635 H622 0.961 . S
C635 H623 0.959 . S
C635 C633 1.561 . S
C636 C633 1.526 . S
C636 C637 1.396 . S
C636 C641 1.390 . S
C637 C631 1.465 . S
C637 C636 1.396 . S
C637 C638 1.399 . S
C638 H624 0.929 . S
C638 C637 1.399 . S
C638 C639 1.385 . S
C639 H625 0.931 . S
C639 C638 1.385 . S
C639 C640 1.389 . S
C640 C639 1.389 . S
C640 C641 1.387 . S
C641 H626 0.930 . S
C641 C636 1.390 . S
C641 C640 1.387 . S
H642 C654 0.930 . S
H643 C656 0.930 . S
H644 C657 0.930 . S
H645 C661 0.959 . S
H646 C661 0.959 . S
H647 C661 0.961 . S
H648 C662 0.960 . S
H649 C662 0.961 . S
H650 C662 0.959 . S
H651 C665 0.929 . S
H652 C666 0.931 . S
H653 C668 0.930 . S
C654 H642 0.930 . S
C654 C655 1.399 . S
C654 C659 1.399 . S
C655 C654 1.399 . S
C655 C656 1.376 . S
C656 H643 0.930 . S
C656 C655 1.376 . S
C656 C657 1.388 . S
C657 H644 0.930 . S
C657 C656 1.388 . S
C657 C658 1.390 . S
C658 C657 1.390 . S
C658 C659 1.394 . S
C658 C664 1.465 . S
C659 C654 1.399 . S
C659 C658 1.394 . S
C659 C660 1.516 . S
C660 C659 1.516 . S
C660 C661 1.502 . S
C660 C662 1.561 . S
C660 C663 1.526 . S
C661 H645 0.959 . S
C661 H646 0.959 . S
C661 H647 0.961 . S
C661 C660 1.502 . S
C662 H648 0.960 . S
C662 H649 0.961 . S
C662 H650 0.959 . S
C662 C660 1.561 . S
C663 C660 1.526 . S
C663 C664 1.396 . S
C663 C668 1.390 . S
C664 C658 1.465 . S
C664 C663 1.396 . S
C664 C665 1.399 . S
C665 H651 0.929 . S
C665 C664 1.399 . S
C665 C666 1.385 . S
C666 H652 0.931 . S
C666 C665 1.385 . S
C666 C667 1.389 . S
C667 C666 1.389 . S
C667 C668 1.387 . S
C668 H653 0.930 . S
C668 C663 1.390 . S
C668 C667 1.387 . S
H669 C681 0.930 . S
H670 C683 0.930 . S
H671 C684 0.930 . S
H672 C688 0.959 . S
H673 C688 0.959 . S
H674 C688 0.961 . S
H675 C689 0.960 . S
H676 C689 0.961 . S
H677 C689 0.959 . S
H678 C692 0.929 . S
H679 C693 0.931 . S
H680 C695 0.930 . S
C681 H669 0.930 . S
C681 C682 1.399 . S
C681 C686 1.399 . S
C682 C681 1.399 . S
C682 C683 1.376 . S
C683 H670 0.930 . S
C683 C682 1.376 . S
C683 C684 1.388 . S
C684 H671 0.930 . S
C684 C683 1.388 . S
C684 C685 1.390 . S
C685 C684 1.390 . S
C685 C686 1.394 . S
C685 C691 1.465 . S
C686 C681 1.399 . S
C686 C685 1.394 . S
C686 C687 1.516 . S
C687 C686 1.516 . S
C687 C688 1.502 . S
C687 C689 1.561 . S
C687 C690 1.526 . S
C688 H672 0.959 . S
C688 H673 0.959 . S
C688 H674 0.961 . S
C688 C687 1.502 . S
C689 H675 0.960 . S
C689 H676 0.961 . S
C689 H677 0.959 . S
C689 C687 1.561 . S
C690 C687 1.526 . S
C690 C691 1.396 . S
C690 C695 1.390 . S
C691 C685 1.465 . S
C691 C690 1.396 . S
C691 C692 1.399 . S
C692 H678 0.929 . S
C692 C691 1.399 . S
C692 C693 1.385 . S
C693 H679 0.931 . S
C693 C692 1.385 . S
C693 C694 1.389 . S
C694 C693 1.389 . S
C694 C695 1.387 . S
C695 H680 0.930 . S
C695 C690 1.390 . S
C695 C694 1.387 . S
H696 C708 0.930 . S
H697 C710 0.930 . S
H698 C711 0.930 . S
H699 C715 0.959 . S
H700 C715 0.959 . S
H701 C715 0.961 . S
H702 C716 0.960 . S
H703 C716 0.961 . S
H704 C716 0.959 . S
H705 C719 0.929 . S
H706 C720 0.931 . S
H707 C722 0.930 . S
C708 H696 0.930 . S
C708 C709 1.399 . S
C708 C713 1.399 . S
C709 C708 1.399 . S
C709 C710 1.376 . S
C710 H697 0.930 . S
C710 C709 1.376 . S
C710 C711 1.388 . S
C711 H698 0.930 . S
C711 C710 1.388 . S
C711 C712 1.390 . S
C712 C711 1.390 . S
C712 C713 1.394 . S
C712 C718 1.465 . S
C713 C708 1.399 . S
C713 C712 1.394 . S
C713 C714 1.516 . S
C714 C713 1.516 . S
C714 C715 1.502 . S
C714 C716 1.561 . S
C714 C717 1.526 . S
C715 H699 0.959 . S
C715 H700 0.959 . S
C715 H701 0.961 . S
C715 C714 1.502 . S
C716 H702 0.960 . S
C716 H703 0.961 . S
C716 H704 0.959 . S
C716 C714 1.561 . S
C717 C714 1.526 . S
C717 C718 1.396 . S
C717 C722 1.390 . S
C718 C712 1.465 . S
C718 C717 1.396 . S
C718 C719 1.399 . S
C719 H705 0.929 . S
C719 C718 1.399 . S
C719 C720 1.385 . S
C720 H706 0.931 . S
C720 C719 1.385 . S
C720 C721 1.389 . S
C721 C720 1.389 . S
C721 C722 1.387 . S
C722 H707 0.930 . S
C722 C717 1.390 . S
C722 C721 1.387 . S
H723 C735 0.930 . S
H724 C737 0.930 . S
H725 C738 0.930 . S
H726 C742 0.959 . S
H727 C742 0.959 . S
H728 C742 0.961 . S
H729 C743 0.960 . S
H730 C743 0.961 . S
H731 C743 0.959 . S
H732 C746 0.929 . S
H733 C747 0.931 . S
H734 C749 0.930 . S
C735 H723 0.930 . S
C735 C736 1.399 . S
C735 C740 1.399 . S
C736 C735 1.399 . S
C736 C737 1.376 . S
C737 H724 0.930 . S
C737 C736 1.376 . S
C737 C738 1.388 . S
C738 H725 0.930 . S
C738 C737 1.388 . S
C738 C739 1.390 . S
C739 C738 1.390 . S
C739 C740 1.394 . S
C739 C745 1.465 . S
C740 C735 1.399 . S
C740 C739 1.394 . S
C740 C741 1.516 . S
C741 C740 1.516 . S
C741 C742 1.502 . S
C741 C743 1.561 . S
C741 C744 1.526 . S
C742 H726 0.959 . S
C742 H727 0.959 . S
C742 H728 0.961 . S
C742 C741 1.502 . S
C743 H729 0.960 . S
C743 H730 0.961 . S
C743 H731 0.959 . S
C743 C741 1.561 . S
C744 C741 1.526 . S
C744 C745 1.396 . S
C744 C749 1.390 . S
C745 C739 1.465 . S
C745 C744 1.396 . S
C745 C746 1.399 . S
C746 H732 0.929 . S
C746 C745 1.399 . S
C746 C747 1.385 . S
C747 H733 0.931 . S
C747 C746 1.385 . S
C747 C748 1.389 . S
C748 C747 1.389 . S
C748 C749 1.387 . S
C749 H734 0.930 . S
C749 C744 1.390 . S
C749 C748 1.387 . S
H750 C762 0.930 . S
H751 C764 0.930 . S
H752 C765 0.930 . S
H753 C769 0.959 . S
H754 C769 0.959 . S
H755 C769 0.961 . S
H756 C770 0.960 . S
H757 C770 0.961 . S
H758 C770 0.959 . S
H759 C773 0.929 . S
H760 C774 0.931 . S
H761 C776 0.930 . S
C762 H750 0.930 . S
C762 C763 1.399 . S
C762 C767 1.399 . S
C763 C762 1.399 . S
C763 C764 1.376 . S
C764 H751 0.930 . S
C764 C763 1.376 . S
C764 C765 1.388 . S
C765 H752 0.930 . S
C765 C764 1.388 . S
C765 C766 1.390 . S
C766 C765 1.390 . S
C766 C767 1.394 . S
C766 C772 1.465 . S
C767 C762 1.399 . S
C767 C766 1.394 . S
C767 C768 1.516 . S
C768 C767 1.516 . S
C768 C769 1.502 . S
C768 C770 1.561 . S
C768 C771 1.526 . S
C769 H753 0.959 . S
C769 H754 0.959 . S
C769 H755 0.961 . S
C769 C768 1.502 . S
C770 H756 0.960 . S
C770 H757 0.961 . S
C770 H758 0.959 . S
C770 C768 1.561 . S
C771 C768 1.526 . S
C771 C772 1.396 . S
C771 C776 1.390 . S
C772 C766 1.465 . S
C772 C771 1.396 . S
C772 C773 1.399 . S
C773 H759 0.929 . S
C773 C772 1.399 . S
C773 C774 1.385 . S
C774 H760 0.931 . S
C774 C773 1.385 . S
C774 C775 1.389 . S
C775 C774 1.389 . S
C775 C776 1.387 . S
C776 H761 0.930 . S
C776 C771 1.390 . S
C776 C775 1.387 . S
H777 C789 0.930 . S
H778 C791 0.930 . S
H779 C792 0.930 . S
H780 C796 0.959 . S
H781 C796 0.959 . S
H782 C796 0.961 . S
H783 C797 0.960 . S
H784 C797 0.961 . S
H785 C797 0.959 . S
H786 C800 0.929 . S
H787 C801 0.931 . S
H788 C803 0.930 . S
C789 H777 0.930 . S
C789 C790 1.399 . S
C789 C794 1.399 . S
C790 C789 1.399 . S
C790 C791 1.376 . S
C791 H778 0.930 . S
C791 C790 1.376 . S
C791 C792 1.388 . S
C792 H779 0.930 . S
C792 C791 1.388 . S
C792 C793 1.390 . S
C793 C792 1.390 . S
C793 C794 1.394 . S
C793 C799 1.465 . S
C794 C789 1.399 . S
C794 C793 1.394 . S
C794 C795 1.516 . S
C795 C794 1.516 . S
C795 C796 1.502 . S
C795 C797 1.561 . S
C795 C798 1.526 . S
C796 H780 0.959 . S
C796 H781 0.959 . S
C796 H782 0.961 . S
C796 C795 1.502 . S
C797 H783 0.960 . S
C797 H784 0.961 . S
C797 H785 0.959 . S
C797 C795 1.561 . S
C798 C795 1.526 . S
C798 C799 1.396 . S
C798 C803 1.390 . S
C799 C793 1.465 . S
C799 C798 1.396 . S
C799 C800 1.399 . S
C800 H786 0.929 . S
C800 C799 1.399 . S
C800 C801 1.385 . S
C801 H787 0.931 . S
C801 C800 1.385 . S
C801 C802 1.389 . S
C802 C801 1.389 . S
C802 C803 1.387 . S
C803 H788 0.930 . S
C803 C798 1.390 . S
C803 C802 1.387 . S
C277 N79 1.259 1_556 S
C289 N13 1.251 1_556 S
C304 N46 1.315 1_556 S
C316 N112 1.326 1_556 S
C331 N145 1.311 . S
C343 N211 1.324 . S
C358 N178 1.313 . S
C370 N244 1.325 . S
C385 C120 1.551 . S
C397 N2 1.531 . S
C412 C21 1.552 . S
C424 N35 1.529 . S
C439 N68 1.526 . S
C451 C54 1.548 . S
C466 N101 1.482 . S
C478 C87 1.551 . S
C493 C186 1.552 . S
C505 N134 1.525 . S
C520 C219 1.548 . S
C532 N167 1.465 . S
C547 C252 1.552 . S
C559 N200 1.531 . S
C574 C153 1.545 . S
C586 N233 1.464 . S
C601 C7 1.499 . S
C613 C238 1.508 . S
C628 C40 1.507 . S
C640 C139 1.509 . S
C655 C172 1.501 . S
C667 C73 1.510 . S
C682 C205 1.508 . S
C694 C106 1.499 . S
C709 C84 1.447 . S
C721 C183 1.436 . S
C736 C216 1.438 . S
C748 C117 1.436 . S
C763 C249 1.435 . S
C775 C18 1.442 . S
C790 C150 1.449 . S
C802 C51 1.454 . S
