# Generated by pormake.
# Topology zfb, (5)-cn, num edge types: 1
# Building blocks:
#     Node 0, Type 0, BuildingBlock: XOMCOT_clean_sbu_1, # of connection points: 5
#     Node 1, Type 0, BuildingBlock: XOMCOT_clean_sbu_1, # of connection points: 5
#     Node 2, Type 0, BuildingBlock: XOMCOT_clean_sbu_1, # of connection points: 5
#     Node 3, Type 0, BuildingBlock: XOMCOT_clean_sbu_1, # of connection points: 5
#     Node 4, Type 0, BuildingBlock: XOMCOT_clean_sbu_1, # of connection points: 5
#     Node 5, Type 0, BuildingBlock: XOMCOT_clean_sbu_1, # of connection points: 5
#     Node 6, Type 0, BuildingBlock: XOMCOT_clean_sbu_1, # of connection points: 5
#     Node 7, Type 0, BuildingBlock: XOMCOT_clean_sbu_1, # of connection points: 5
#     Edge 8, Type (0, 0), BuildingBlock: ZUJKAS_clean_linker_0, # of connection points: 2
#     Edge 9, Type (0, 0), BuildingBlock: ZUJKAS_clean_linker_0, # of connection points: 2
#     Edge 10, Type (0, 0), BuildingBlock: ZUJKAS_clean_linker_0, # of connection points: 2
#     Edge 11, Type (0, 0), BuildingBlock: ZUJKAS_clean_linker_0, # of connection points: 2
#     Edge 12, Type (0, 0), BuildingBlock: ZUJKAS_clean_linker_0, # of connection points: 2
#     Edge 13, Type (0, 0), BuildingBlock: ZUJKAS_clean_linker_0, # of connection points: 2
#     Edge 14, Type (0, 0), BuildingBlock: ZUJKAS_clean_linker_0, # of connection points: 2
#     Edge 15, Type (0, 0), BuildingBlock: ZUJKAS_clean_linker_0, # of connection points: 2
#     Edge 16, Type (0, 0), BuildingBlock: ZUJKAS_clean_linker_0, # of connection points: 2
#     Edge 17, Type (0, 0), BuildingBlock: ZUJKAS_clean_linker_0, # of connection points: 2
#     Edge 18, Type (0, 0), BuildingBlock: ZUJKAS_clean_linker_0, # of connection points: 2
#     Edge 19, Type (0, 0), BuildingBlock: ZUJKAS_clean_linker_0, # of connection points: 2
#     Edge 20, Type (0, 0), BuildingBlock: ZUJKAS_clean_linker_0, # of connection points: 2
#     Edge 21, Type (0, 0), BuildingBlock: ZUJKAS_clean_linker_0, # of connection points: 2
#     Edge 22, Type (0, 0), BuildingBlock: ZUJKAS_clean_linker_0, # of connection points: 2
#     Edge 23, Type (0, 0), BuildingBlock: ZUJKAS_clean_linker_0, # of connection points: 2
#     Edge 24, Type (0, 0), BuildingBlock: ZUJKAS_clean_linker_0, # of connection points: 2
#     Edge 25, Type (0, 0), BuildingBlock: ZUJKAS_clean_linker_0, # of connection points: 2
#     Edge 26, Type (0, 0), BuildingBlock: ZUJKAS_clean_linker_0, # of connection points: 2
#     Edge 27, Type (0, 0), BuildingBlock: ZUJKAS_clean_linker_0, # of connection points: 2
# Relax obj value: 0.200
# Max RMSD: 0.190
# Mean RMSD: 0.190
data_MOF--net-zfb--node1-XOMCOT_clean_sbu_1--edge1-ZUJKAS_clean_linker_0
_symmetry_space_group_name_H-M    P1
_symmetry_Int_Tables_number       1
_symmetry_cell_setting            triclinic
loop_
_symmetry_equiv_pos_as_xyz
'x, y, z'
_cell_length_a     42.243682
_cell_length_b     42.046326
_cell_length_c     42.317379
_cell_angle_alpha  89.882871
_cell_angle_beta   89.340491
_cell_angle_gamma 90.519399
loop_
_atom_site_label
_atom_site_type_symbol
_atom_site_fract_x
_atom_site_fract_y
_atom_site_fract_z
_atom_type_partial_charge
C0 C 0.2174 0.38567 1.00384 0.0
C1 C 0.2196 0.37506 0.97317 0.0
N2 N 0.19532 0.35483 0.96795 0.0
N3 N 0.19147 0.37274 1.01789 0.0
C4 C 0.17928 0.35311 0.99573 0.0
H5 H 0.23351 0.40223 1.01495 0.0
Co6 Co 0.17735 0.37938 0.05972 0.0
C7 C 0.11786 0.39683 1.02228 0.0
O8 O 0.13054 0.39486 0.99391 0.0
N9 N 0.16377 0.38555 0.10167 0.0
C10 C 0.14213 0.40804 0.14413 0.0
C11 C 0.14734 0.4109 0.11218 0.0
C12 C 0.16805 0.36743 0.12775 0.0
N13 N 0.15512 0.38068 0.15393 0.0
O14 O 0.16504 0.33562 0.06226 0.0
H15 H 0.13973 0.43043 0.09751 0.0
H16 H 0.1807 0.34519 0.12773 0.0
O17 O 0.13451 0.39125 0.04671 0.0
C18 C 0.1888 0.31814 0.06777 0.0
O19 O 0.21645 0.33203 0.07193 0.0
N20 N 0.19153 0.42198 0.05802 0.0
C21 C 0.21553 0.48397 0.06074 0.0
C22 C 0.19187 0.4758 0.03916 0.0
C23 C 0.18033 0.44465 0.03802 0.0
C24 C 0.21544 0.42914 0.07827 0.0
C25 C 0.2277 0.46005 0.08015 0.0
H26 H 0.16282 0.43895 1.0207 0.0
H27 H 0.22469 0.41077 0.09344 0.0
H28 H 0.15831 0.33859 0.99966 0.0
H29 H 0.23701 0.38271 0.95573 0.0
H30 H 0.12925 0.42455 0.15894 0.0
H31 H 0.18247 0.49331 1.02306 0.0
H32 H 0.24599 0.46527 0.09715 0.0
C33 C 0.58174 0.22767 0.51458 0.0
C34 C 0.58814 0.22856 0.4826 0.0
N35 N 0.59669 0.1992 0.47321 0.0
N36 N 0.58595 0.19785 0.52532 0.0
C37 C 0.59538 0.1811 0.49966 0.0
H38 H 0.57406 0.24737 0.52907 0.0
Co39 Co 0.57863 0.18392 0.5667 0.0
C40 C 0.57965 0.1147 0.55857 0.0
O41 O 0.6039 0.11299 0.57763 0.0
N42 N 0.57131 0.16957 0.60849 0.0
C43 C 0.54914 0.1439 0.64918 0.0
C44 C 0.54645 0.15126 0.61774 0.0
C45 C 0.58869 0.17326 0.63499 0.0
N46 N 0.5758 0.1576 0.6601 0.0
O47 O 0.62243 0.17394 0.56972 0.0
H48 H 0.52764 0.14337 0.60241 0.0
H49 H 0.61078 0.1864 0.63573 0.0
O50 O 0.56822 0.14174 0.55161 0.0
C51 C 0.6394 0.19802 0.57666 0.0
O52 O 0.62525 0.22522 0.58208 0.0
N53 N 0.53614 0.196 0.56362 0.0
C54 C 0.47448 0.21857 0.5597 0.0
C55 C 0.48599 0.19659 0.53761 0.0
C56 C 0.51694 0.18553 0.54 0.0
C57 C 0.52562 0.21797 0.58484 0.0
C58 C 0.49464 0.22921 0.58363 0.0
H59 H 0.5257 0.16913 0.52241 0.0
H60 H 0.54141 0.22683 0.60281 0.0
H61 H 0.60048 0.15594 0.50024 0.0
H62 H 0.58676 0.24928 0.46749 0.0
H63 H 0.53264 0.12954 0.66295 0.0
H64 H 0.47113 0.18788 0.51875 0.0
H65 H 0.48671 0.24652 0.60084 0.0
C66 C 0.72719 0.58709 1.01994 0.0
C67 C 0.72735 0.59361 0.98806 0.0
N68 N 0.7571 0.6017 0.97917 0.0
N69 N 0.75672 0.59084 1.03108 0.0
C70 C 0.7744 0.60002 1.0058 0.0
H71 H 0.70694 0.57972 0.03411 0.0
Co72 Co 0.76872 0.58338 0.07255 0.0
C73 C 0.83799 0.58334 0.06781 0.0
O74 O 0.83918 0.60658 0.08849 0.0
N75 N 0.78082 0.57585 0.11442 0.0
C76 C 0.80296 0.55339 0.15613 0.0
C77 C 0.79671 0.55014 0.12458 0.0
C78 C 0.77759 0.59438 0.14035 0.0
N79 N 0.79115 0.58135 0.1661 0.0
O80 O 0.77993 0.62737 0.07656 0.0
H81 H 0.80378 0.53042 0.10981 0.0
H82 H 0.76637 0.6174 0.14011 0.0
O83 O 0.81123 0.5728 0.05868 0.0
C84 C 0.7566 0.64611 0.07957 0.0
O85 O 0.72783 0.63396 0.08029 0.0
N86 N 0.7559 0.54074 0.06848 0.0
C87 C 0.73436 0.47794 0.06402 0.0
C88 C 0.7575 0.48992 0.04295 0.0
C89 C 0.76788 0.52138 0.04552 0.0
C90 C 0.73254 0.53004 0.0884 0.0
C91 C 0.72165 0.49859 0.08682 0.0
H92 H 0.78518 0.53031 1.02865 0.0
H93 H 0.72262 0.54592 0.1059 0.0
H94 H 0.7996 0.60468 1.00676 0.0
H95 H 0.70707 0.59262 0.97269 0.0
H96 H 0.81533 0.53636 0.17054 0.0
H97 H 0.76728 0.47526 1.0243 0.0
H98 H 0.70382 0.49048 0.10363 0.0
C99 C 0.37202 0.73201 0.5121 0.0
C100 C 0.36502 0.73181 0.48038 0.0
N101 N 0.35564 0.7612 0.47202 0.0
N102 N 0.36736 0.76144 0.52366 0.0
C103 C 0.35713 0.77862 0.4988 0.0
H104 H 0.3802 0.71206 0.52587 0.0
Co105 Co 0.37405 0.77469 0.56511 0.0
C106 C 0.37467 0.84402 0.55763 0.0
O107 O 0.35006 0.84597 0.57678 0.0
N108 N 0.38073 0.78849 0.60694 0.0
C109 C 0.40302 0.81267 0.6478 0.0
C110 C 0.40621 0.80541 0.61637 0.0
C111 C 0.36233 0.78573 0.63329 0.0
N112 N 0.37528 0.80051 0.65855 0.0
O113 O 0.33035 0.7854 0.56833 0.0
H114 H 0.42587 0.81236 0.60119 0.0
H115 H 0.33954 0.77382 0.63376 0.0
O116 O 0.38561 0.81683 0.55032 0.0
C117 C 0.31324 0.76099 0.57422 0.0
O118 O 0.32736 0.73362 0.57863 0.0
N119 N 0.41638 0.7618 0.56192 0.0
C120 C 0.47816 0.73913 0.55919 0.0
C121 C 0.46769 0.76143 0.53703 0.0
C122 C 0.43664 0.7725 0.53879 0.0
C123 C 0.4258 0.73929 0.58297 0.0
C124 C 0.45678 0.72798 0.58234 0.0
H125 H 0.42874 0.78928 0.52127 0.0
H126 H 0.40918 0.73026 0.60051 0.0
H127 H 0.35136 0.8036 0.50022 0.0
H128 H 0.36645 0.71149 0.46479 0.0
H129 H 0.42005 0.82584 0.66162 0.0
H130 H 0.48347 0.77053 0.51872 0.0
H131 H 0.46383 0.71038 0.59955 0.0
C132 C 0.72866 0.09194 0.12251 0.0
C133 C 0.72654 0.10071 0.15367 0.0
N134 N 0.69585 0.10583 0.16107 0.0
N135 N 0.69948 0.0911 0.11009 0.0
C136 C 0.6799 0.09978 0.13407 0.0
H137 H 0.75016 0.08647 0.10958 0.0
Co138 Co 0.69222 0.08131 0.06776 0.0
C139 C 0.63474 0.04062 0.07054 0.0
O140 O 0.6497 0.01933 0.05363 0.0
N141 N 0.68544 0.07225 1.02336 0.0
C142 C 0.68335 0.04896 0.97592 0.0
C143 C 0.68946 0.04466 1.00732 0.0
C144 C 0.67676 0.093 1.00029 0.0
N145 N 0.67554 0.07948 0.97127 0.0
O146 O 0.67714 0.12351 0.06198 0.0
H147 H 0.69599 0.02209 1.01734 0.0
H148 H 0.67187 0.11781 1.00437 0.0
O149 O 0.6487 0.0666 0.07816 0.0
C150 C 0.69996 0.14285 0.05669 0.0
O151 O 0.72873 0.13137 0.05418 0.0
N152 N 0.71 0.04083 0.07499 0.0
C153 C 0.73911 -0.01762 0.08412 0.0
C154 C 0.7133 -0.00868 0.10308 0.0
C155 C 0.69938 0.02093 0.0985 0.0
C156 C 0.73746 0.03412 0.05915 0.0
C157 C 0.75177 0.00447 0.06247 0.0
H158 H 0.67977 0.02768 0.11358 0.0
H159 H 0.74739 0.0513 0.04265 0.0
H160 H 0.65458 0.10222 0.13152 0.0
H161 H 0.74625 0.10282 0.16965 0.0
H162 H 0.6842 0.03066 0.95801 0.0
H163 H 0.70335 0.97521 0.12065 0.0
H164 H 0.77235 -0.00124 0.04814 0.0
C165 C 0.87351 0.72163 0.62643 0.0
C166 C 0.86697 0.72143 0.65835 0.0
N167 N 0.85664 0.69209 0.66656 0.0
N168 N 0.86757 0.6925 0.61458 0.0
C169 C 0.85709 0.67506 0.63949 0.0
H170 H 0.88215 0.74167 0.61267 0.0
Co171 Co 0.87328 0.68073 0.5726 0.0
C172 C 0.87231 0.61107 0.57515 0.0
O173 O 0.84952 0.61068 0.55428 0.0
N174 N 0.87917 0.66885 0.53014 0.0
C175 C 0.89978 0.64631 0.48726 0.0
C176 C 0.9043 0.65278 0.51863 0.0
C177 C 0.85976 0.67209 0.50512 0.0
N178 N 0.87165 0.65826 0.47874 0.0
O179 O 0.82899 0.67111 0.57006 0.0
H180 H 0.92439 0.64546 0.53241 0.0
H181 H 0.83685 0.6833 0.50648 0.0
O182 O 0.88287 0.63758 0.58534 0.0
C183 C 0.81235 0.69607 0.56753 0.0
O184 O 0.82694 0.72381 0.56642 0.0
N185 N 0.91605 0.69237 0.57509 0.0
C186 C -0.02118 0.71339 0.57598 0.0
C187 C 0.96841 0.68856 0.59589 0.0
C188 C 0.93684 0.67853 0.59526 0.0
C189 C 0.92537 0.7172 0.55636 0.0
C190 C 0.95673 0.72797 0.55625 0.0
H191 H 0.9291 0.65988 0.61124 0.0
H192 H 0.90837 0.72843 0.54111 0.0
H193 H 0.85034 0.65024 0.63786 0.0
H194 H 0.86924 0.74149 0.67417 0.0
H195 H 0.91594 0.63352 0.47198 0.0
H196 H -0.01555 0.6772 0.6121 0.0
H197 H 0.9637 0.74712 0.54042 0.0
C198 C 0.23122 0.87878 0.12342 0.0
C199 C 0.23117 0.87157 0.15519 0.0
N200 N 0.26037 0.86179 0.16303 0.0
N201 N 0.26038 0.87384 0.1113 0.0
C202 C 0.27756 0.86327 0.13589 0.0
H203 H 0.2113 0.88707 0.10996 0.0
Co204 Co 0.27307 0.87989 0.06935 0.0
C205 C 0.3421 0.88274 0.07442 0.0
O206 O 0.34429 0.85878 0.05465 0.0
N207 N 0.28615 0.88596 1.02695 0.0
C208 C 0.30921 0.90783 0.98463 0.0
C209 C 0.30186 0.91189 1.01599 0.0
C210 C 0.2841 0.86645 1.00157 0.0
N211 N 0.29825 0.87914 0.97548 0.0
O212 O 0.28486 0.83623 0.06749 0.0
H213 H 0.30813 0.93237 1.03011 0.0
H214 H 0.27335 0.84303 1.0024 0.0
O215 O 0.3149 0.89267 0.08292 0.0
C216 C 0.26102 0.81811 0.06318 0.0
O217 O 0.23322 0.83125 0.05923 0.0
N218 N 0.25927 0.92207 0.07127 0.0
C219 C 0.23643 -0.01592 0.07068 0.0
C220 C 0.26005 0.97511 0.09192 0.0
C221 C 0.27099 0.94389 0.09202 0.0
C222 C 0.23541 0.92991 0.0514 0.0
C223 C 0.22375 0.96088 0.05054 0.0
H224 H 0.28867 0.93724 0.10896 0.0
H225 H 0.22576 0.91208 0.03571 0.0
H226 H 0.3023 0.85705 0.13394 0.0
H227 H 0.21102 0.87296 0.17113 0.0
H228 H 0.32177 0.9248 0.96975 0.0
H229 H 0.26987 -0.00797 0.10849 0.0
H230 H 0.20552 0.96673 0.03377 0.0
C231 C 0.08372 0.23259 0.617 0.0
C232 C 0.09097 0.23174 0.64856 0.0
N233 N 0.09878 0.26143 0.65788 0.0
N234 N 0.08681 0.26266 0.60634 0.0
C235 C 0.09616 0.27971 0.63167 0.0
H236 H 0.07681 0.21254 0.60258 0.0
Co237 Co 0.07988 0.27492 0.56476 0.0
C238 C 0.0794 0.34444 0.56753 0.0
O239 O 0.10143 0.34535 0.54535 0.0
N240 N 0.0727 0.28696 0.52261 0.0
C241 C 0.04898 0.30624 0.48011 0.0
C242 C 0.0466 0.30188 0.51219 0.0
C243 C 0.0908 0.28281 0.49633 0.0
N244 N 0.07678 0.29429 0.47016 0.0
O245 O 0.12383 0.28556 0.5604 0.0
H246 H 0.02703 0.30931 0.52705 0.0
H247 H 0.11362 0.27135 0.49624 0.0
O248 O 0.0697 0.31769 0.57827 0.0
C249 C 0.1407 0.26094 0.55626 0.0
O250 O 0.12635 0.23315 0.55427 0.0
N251 N 0.03749 0.26218 0.56908 0.0
C252 C 0.97527 0.23946 0.57161 0.0
C253 C -0.01515 0.26513 0.59056 0.0
C254 C 0.01619 0.27597 0.58918 0.0
C255 C 0.02901 0.23658 0.55132 0.0
C256 C -0.00202 0.22491 0.55209 0.0
H257 H 0.0232 0.29541 0.60427 0.0
H258 H 0.04646 0.22538 0.53623 0.0
H259 H 0.10073 0.30506 0.63092 0.0
H260 H 0.09104 0.21068 0.6633 0.0
H261 H 0.03187 0.31791 0.46529 0.0
H262 H 0.96819 0.27716 0.60595 0.0
H263 H -0.00809 0.2046 0.53761 0.0
H264 H 0.17581 0.00625 0.06451 0.0
H265 H 0.15898 0.06184 0.06045 0.0
H266 H 0.25593 0.09303 0.0697 0.0
H267 H 0.27299 0.03783 0.07304 0.0
H268 H 0.16849 0.11287 0.10448 0.0
H269 H 0.22592 0.13757 0.9886 0.0
H270 H 0.21858 0.09767 1.00299 0.0
H271 H 0.25229 0.12005 1.01653 0.0
C272 C 0.19354 0.02498 0.06541 0.0
C273 C 0.22576 0.01763 0.06901 0.0
C274 C 0.18387 0.05667 0.06326 0.0
C275 C 0.20628 0.08145 0.06431 0.0
C276 C 0.23833 0.0742 0.06833 0.0
H277 H 0.23588 0.27662 0.08017 0.0
H278 H 0.23401 0.21882 0.07801 0.0
C279 C 0.24799 0.04264 0.07058 0.0
C280 C 0.19653 0.11509 0.0617 0.0
H281 H 0.21248 0.18308 1.02011 0.0
C282 C 0.1775 0.12817 0.08571 0.0
C283 C 0.2081 0.13487 0.03701 0.0
C284 C 0.22709 0.12179 1.00964 0.0
C285 C 0.1716 0.16101 0.08679 0.0
C286 C 0.18492 0.18098 0.06318 0.0
C287 C 0.20241 0.16763 0.03825 0.0
C288 C 0.1845 0.21603 0.06589 0.0
C289 C 0.15278 0.17452 0.11403 0.0
C290 C 0.15707 0.23359 0.05998 0.0
C291 C 0.15803 0.26694 0.06112 0.0
C292 C 0.18646 0.283 0.06816 0.0
C293 C 0.2136 0.2651 0.07459 0.0
C294 C 0.21263 0.23202 0.07337 0.0
H295 H 0.14527 0.15592 0.1313 0.0
H296 H 0.16711 0.19279 0.12645 0.0
H297 H 0.13135 0.18638 0.10493 0.0
H298 H 0.13519 0.22156 0.05395 0.0
H299 H 0.13677 0.28009 0.05599 0.0
H300 H 0.93416 0.23436 0.62215 0.0
H301 H 0.87803 0.21997 0.62133 0.0
H302 H 0.88435 0.20415 0.5208 0.0
H303 H 0.94011 0.21993 0.52113 0.0
H304 H 0.83547 0.24127 0.53595 0.0
H305 H 0.83289 0.1352 0.61359 0.0
H306 H 0.85126 0.16887 0.6321 0.0
H307 H 0.86926 0.15166 0.59745 0.0
C308 C 0.92364 0.22783 0.59984 0.0
C309 C 0.9417 0.2284 0.57169 0.0
C310 C 0.89164 0.2191 0.5995 0.0
C311 C 0.8771 0.21041 0.57109 0.0
C312 C 0.89516 0.21045 0.54305 0.0
H313 H 0.6777 0.14839 0.55904 0.0
H314 H 0.73588 0.14853 0.55638 0.0
C315 C 0.92711 0.21931 0.54333 0.0
C316 C 0.84252 0.20406 0.57018 0.0
H317 H 0.78277 0.16023 0.60437 0.0
C318 C 0.82403 0.22325 0.55062 0.0
C319 C 0.8276 0.18027 0.58898 0.0
C320 C 0.84632 0.1576 0.60896 0.0
C321 C 0.79098 0.22024 0.55034 0.0
C322 C 0.77593 0.19785 0.57062 0.0
C323 C 0.79439 0.17764 0.58915 0.0
C324 C 0.74103 0.19653 0.57404 0.0
C325 C 0.77239 0.24131 0.52854 0.0
C326 C 0.72488 0.22309 0.58568 0.0
C327 C 0.6919 0.22311 0.58716 0.0
C328 C 0.67435 0.19646 0.57724 0.0
C329 C 0.69059 0.16931 0.56675 0.0
C330 C 0.72375 0.16935 0.56522 0.0
H331 H 0.78727 0.25028 0.50856 0.0
H332 H 0.75162 0.22841 0.51883 0.0
H333 H 0.76364 0.26217 0.54196 0.0
H334 H 0.73782 0.24406 0.59321 0.0
H335 H 0.68019 0.24429 0.59569 0.0
H336 H 0.75714 0.94946 0.13659 0.0
H337 H 0.77173 0.89325 0.13966 0.0
H338 H 0.7606 0.88479 0.03873 0.0
H339 H 0.74758 0.94116 0.03554 0.0
H340 H 0.73635 0.84551 0.12853 0.0
H341 H 0.83862 0.83468 0.0475 0.0
H342 H 0.82425 0.87285 0.06043 0.0
H343 H 0.80652 0.8529 1.02722 0.0
C344 C 0.75857 0.93566 0.11504 0.0
C345 C 0.75144 0.94958 0.08581 0.0
C346 C 0.76689 0.90358 0.11677 0.0
C347 C 0.76781 0.88472 0.08937 0.0
C348 C 0.7612 0.8989 0.06009 0.0
H349 H 0.71177 0.69155 0.074 0.0
H350 H 0.71821 0.74889 0.07877 0.0
C351 C 0.75351 0.9311 0.05828 0.0
C352 C 0.77195 0.84968 0.09176 0.0
H353 H 0.80759 0.78627 0.05616 0.0
C354 C 0.75242 0.8327 0.11308 0.0
C355 C 0.79331 0.8327 0.07215 0.0
C356 C 0.81708 0.84933 0.05084 0.0
C357 C 0.75235 0.79937 0.11407 0.0
C358 C 0.77146 0.7824 0.09235 0.0
C359 C 0.79242 0.79926 0.07236 0.0
C360 C 0.76834 0.74739 0.08867 0.0
C361 C 0.7315 0.78274 0.13827 0.0
C362 C 0.7947 0.72742 0.09121 0.0
C363 C 0.79117 0.6944 0.08794 0.0
C364 C 0.7612 0.68092 0.08213 0.0
C365 C 0.73509 0.70109 0.07895 0.0
C366 C 0.73869 0.73393 0.08188 0.0
H367 H 0.72778 0.79787 0.15947 0.0
H368 H 0.70794 0.77794 0.12787 0.0
H369 H 0.7418 0.75981 0.14589 0.0
H370 H 0.81788 0.73734 0.09611 0.0
H371 H 0.81174 0.67944 0.09039 0.0
H372 H 0.03104 0.67565 0.5779 0.0
H373 H 0.08662 0.6921 0.5765 0.0
H374 H 0.05896 0.79034 0.57003 0.0
H375 H 0.00309 0.77415 0.57238 0.0
H376 H 0.11756 0.72697 0.52772 0.0
H377 H 0.12281 0.78985 0.64331 0.0
H378 H 0.09097 0.76277 0.63359 0.0
H379 H 0.09231 0.80192 0.61662 0.0
C380 C 0.03671 0.7008 0.57668 0.0
C381 C 0.0126 0.72359 0.57544 0.0
C382 C 0.06849 0.71014 0.57564 0.0
C383 C 0.07687 0.74244 0.57347 0.0
C384 C 0.05297 0.76532 0.57215 0.0
H385 H 0.2751 0.81295 0.56511 0.0
H386 H 0.21686 0.81321 0.56323 0.0
C387 C 0.02108 0.75599 0.57317 0.0
C388 C 0.11076 0.75169 0.57176 0.0
H389 H 0.17017 0.78706 0.61353 0.0
C390 C 0.12899 0.74041 0.54631 0.0
C391 C 0.12554 0.76944 0.59594 0.0
C392 C 0.10707 0.78159 0.62408 0.0
C393 C 0.16181 0.74546 0.54491 0.0
C394 C 0.17679 0.7619 0.56978 0.0
C395 C 0.15847 0.77452 0.59451 0.0
C396 C 0.21166 0.76275 0.57217 0.0
C397 C 0.18044 0.73242 0.51728 0.0
C398 C 0.22769 0.73448 0.57847 0.0
C399 C 0.26061 0.73426 0.57969 0.0
C400 C 0.27827 0.76235 0.57463 0.0
C401 C 0.26213 0.79092 0.56903 0.0
C402 C 0.22896 0.79113 0.56795 0.0
H403 H 0.16506 0.72758 0.49668 0.0
H404 H 0.19959 0.74922 0.50994 0.0
H405 H 0.19157 0.70972 0.52438 0.0
H406 H 0.21466 0.71244 0.58215 0.0
H407 H 0.2722 0.71186 0.5842 0.0
H408 H 0.77071 0.42591 0.05123 0.0
H409 H 0.75372 0.37053 0.04704 0.0
H410 H 0.65784 0.39704 0.06979 0.0
H411 H 0.67438 0.45299 0.07309 0.0
H412 H 0.68519 0.34228 0.10523 0.0
H413 H 0.69682 0.33221 0.97495 0.0
H414 H 0.73011 0.35079 0.99378 0.0
H415 H 0.69224 0.36991 0.99489 0.0
C416 C 0.74589 0.42019 0.05486 0.0
C417 C 0.72389 0.44407 0.0622 0.0
C418 C 0.73626 0.38846 0.05258 0.0
C419 C 0.70449 0.37984 0.05769 0.0
C420 C 0.68246 0.40334 0.06561 0.0
H421 H 0.64562 0.17678 0.06852 0.0
H422 H 0.63989 0.23495 0.06743 0.0
C423 C 0.69203 0.43524 0.06768 0.0
C424 C 0.69489 0.34601 0.05534 0.0
H425 H 0.69568 0.28343 1.0042 0.0
C426 C 0.68676 0.3294 0.08309 0.0
C427 C 0.69685 0.32948 1.02637 0.0
C428 C 0.7042 0.34651 0.99571 0.0
C429 C 0.68279 0.29617 0.08297 0.0
C430 C 0.68658 0.2794 0.05423 0.0
C431 C 0.69283 0.29635 1.0262 0.0
C432 C 0.68854 0.24425 0.05337 0.0
C433 C 0.67665 0.27904 0.11383 0.0
C434 C 0.71744 0.23031 0.04502 0.0
C435 C 0.72073 0.19738 0.04552 0.0
C436 C 0.69511 0.17756 0.05426 0.0
C437 C 0.6658 0.19145 0.06176 0.0
C438 C 0.66254 0.22463 0.06133 0.0
H439 H 0.67865 0.29515 0.1345 0.0
H440 H 0.6524 0.26868 0.11383 0.0
H441 H 0.69359 0.25922 0.1167 0.0
H442 H 0.73777 0.24501 0.03875 0.0
H443 H 0.74359 0.18752 0.03943 0.0
H444 H 0.51211 0.71824 0.50804 0.0
H445 H 0.56752 0.70153 0.50647 0.0
H446 H 0.57465 0.71934 0.60655 0.0
H447 H 0.51908 0.73499 0.60835 0.0
H448 H 0.6179 0.73486 0.51726 0.0
H449 H 0.61695 0.63525 0.60232 0.0
H450 H 0.58095 0.65214 0.58738 0.0
H451 H 0.60095 0.67024 0.62028 0.0
C452 C 0.52549 0.71826 0.52973 0.0
C453 C 0.51131 0.7278 0.55834 0.0
C454 C 0.55708 0.70861 0.52885 0.0
C455 C 0.5752 0.70854 0.55651 0.0
C456 C 0.56099 0.7181 0.58509 0.0
H457 H 0.77174 0.74531 0.57345 0.0
H458 H 0.71444 0.74455 0.56863 0.0
C459 C 0.52928 0.72729 0.58607 0.0
C460 C 0.60957 0.7012 0.55502 0.0
H461 H 0.66798 0.66033 0.59228 0.0
C462 C 0.6287 0.71815 0.53335 0.0
C463 C 0.62381 0.67892 0.57548 0.0
C464 C 0.60449 0.65786 0.59739 0.0
C465 C 0.66169 0.71474 0.53275 0.0
C466 C 0.67612 0.69458 0.55509 0.0
C467 C 0.65696 0.67623 0.57555 0.0
C468 C 0.711 0.69412 0.55897 0.0
C469 C 0.68075 0.73305 0.50829 0.0
C470 C 0.72812 0.6657 0.55658 0.0
C471 C 0.76115 0.66596 0.5598 0.0
C472 C 0.77743 0.69468 0.56545 0.0
C473 C 0.76002 0.72285 0.56863 0.0
C474 C 0.72721 0.72251 0.56569 0.0
H475 H 0.66648 0.73798 0.48697 0.0
H476 H 0.68813 0.75628 0.51836 0.0
H477 H 0.7023 0.71992 0.50097 0.0
H478 H 0.71601 0.64345 0.55175 0.0
H479 H 0.77393 0.64387 0.55734 0.0
H480 H 0.17985 0.53762 0.06031 0.0
H481 H 0.19792 0.59278 0.06382 0.0
H482 H 0.29446 0.56151 0.07157 0.0
H483 H 0.27658 0.50595 0.06735 0.0
H484 H 0.23372 0.62084 0.11462 0.0
H485 H 0.29613 0.62805 0.99795 0.0
H486 H 0.26734 0.59721 1.00688 0.0
H487 H 0.3059 0.59582 1.02406 0.0
C488 C 0.20498 0.54242 0.06239 0.0
C489 C 0.22681 0.51741 0.06329 0.0
C490 C 0.21523 0.57394 0.06462 0.0
C491 C 0.24752 0.58118 0.06766 0.0
C492 C 0.26946 0.55637 0.06886 0.0
H493 H 0.31442 0.78182 0.07072 0.0
H494 H 0.31687 0.72343 0.07428 0.0
C495 C 0.25919 0.52469 0.06672 0.0
C496 C 0.25763 0.61488 0.06985 0.0
H497 H 0.29143 0.67544 1.02696 0.0
C498 C 0.24681 0.63269 0.09572 0.0
C499 C 0.2749 0.63017 0.04524 0.0
C500 C 0.2867 0.61203 1.0168 0.0
C501 C 0.2515 0.6657 0.09694 0.0
C502 C 0.26702 0.68127 0.07144 0.0
C503 C 0.27954 0.6633 0.04644 0.0
C504 C 0.2665 0.71629 0.06847 0.0
C505 C 0.23878 0.68389 0.12496 0.0
C506 C 0.23754 0.7313 0.06338 0.0
C507 C 0.23607 0.76429 0.06118 0.0
C508 C 0.26359 0.78307 0.06403 0.0
C509 C 0.29281 0.76798 0.06852 0.0
C510 C 0.29427 0.73472 0.07056 0.0
H511 H 0.23541 0.66825 0.14594 0.0
H512 H 0.25492 0.70384 0.13123 0.0
H513 H 0.21545 0.69404 0.11889 0.0
H514 H 0.21594 0.7174 0.06126 0.0
H515 H 0.21319 0.77505 0.05759 0.0
H516 H 0.17908 0.31395 0.54969 0.0
H517 H 0.23725 0.31516 0.54572 0.0
H518 H 0.23888 0.21312 0.55611 0.0
H519 H 0.18143 0.21162 0.5592 0.0
H520 H 0.28266 0.29642 0.58662 0.0
H521 H 0.29235 0.22509 0.47774 0.0
H522 H 0.25531 0.24169 0.49111 0.0
H523 H 0.26893 0.20447 0.50695 0.0
C524 C 0.19193 0.29182 0.55094 0.0
C525 C 0.17566 0.26267 0.55436 0.0
C526 C 0.2251 0.29254 0.54868 0.0
C527 C 0.24237 0.26413 0.54981 0.0
C528 C 0.22608 0.23522 0.55412 0.0
H529 H 0.43024 0.22117 0.607 0.0
H530 H 0.37495 0.23726 0.60305 0.0
C531 C 0.19315 0.23445 0.55607 0.0
C532 C 0.27746 0.2642 0.54747 0.0
H533 H 0.33855 0.22607 0.51082 0.0
C534 C 0.29498 0.28148 0.56971 0.0
C535 C 0.29363 0.24535 0.52493 0.0
C536 C 0.27655 0.22842 0.49863 0.0
C537 C 0.32809 0.27886 0.5712 0.0
C538 C 0.34391 0.25766 0.55052 0.0
C539 C 0.32651 0.24191 0.52709 0.0
C540 C 0.3781 0.25017 0.5535 0.0
C541 C 0.34563 0.29882 0.59499 0.0
C542 C 0.39821 0.25114 0.52681 0.0
C543 C 0.4296 0.24117 0.52888 0.0
C544 C 0.44159 0.2303 0.55775 0.0
C545 C 0.42169 0.22986 0.58457 0.0
C546 C 0.39015 0.23932 0.58237 0.0
H547 H 0.33281 0.32123 0.60011 0.0
H548 H 0.3473 0.2854 0.6175 0.0
H549 H 0.36992 0.30492 0.58657 0.0
H550 H 0.38949 0.25923 0.50423 0.0
H551 H 0.44453 0.24193 0.5079 0.0
H552 H 0.07923 0.41876 0.97579 0.0
H553 H 0.03075 0.44938 0.98217 0.0
H554 H 0.03687 0.44029 0.0834 0.0
H555 H 0.08526 0.40921 0.07733 0.0
H556 H 0.97477 0.43149 0.05903 0.0
H557 H 0.03239 0.54225 1.01419 0.0
H558 H 0.03575 0.50857 0.98835 0.0
H559 H 0.05463 0.50789 1.02617 0.0
C560 C 0.07018 0.42295 0.99945 0.0
C561 C 0.08645 0.41188 1.02608 0.0
C562 C 0.04254 0.44065 1.00302 0.0
C563 C 0.03066 0.44768 0.03326 0.0
C564 C 0.04587 0.43536 0.05986 0.0
H565 H 0.89818 0.59402 0.08891 0.0
H566 H 0.94483 0.56113 0.07964 0.0
C567 C 0.07356 0.41764 0.05633 0.0
C568 C 0.00283 0.46857 0.03713 0.0
H569 H 0.97703 0.54411 1.0236 0.0
C570 C 0.97521 0.45611 0.0513 0.0
C571 C 0.0037 0.5008 1.02741 0.0
C572 C 0.03326 0.51586 1.01343 0.0
C573 C 0.9482 0.47492 0.05559 0.0
C574 C 0.94878 0.5069 0.04505 0.0
C575 C 0.97656 0.51949 1.03131 0.0
C576 C 0.92099 0.52787 0.04884 0.0
C577 C 0.91948 0.46059 0.0719 0.0
C578 C 0.89243 0.52065 0.03376 0.0
C579 C 0.86573 0.53942 0.03894 0.0
C580 C 0.86714 0.56586 0.05924 0.0
C581 C 0.89621 0.57381 0.07321 0.0
C582 C 0.9229 0.55501 0.06799 0.0
H583 H 0.92538 0.43863 0.08515 0.0
H584 H 0.90863 0.47784 0.08856 0.0
H585 H 0.90157 0.45427 0.05393 0.0
H586 H 0.89066 0.50021 1.01833 0.0
H587 H 0.84385 0.53275 1.02757 0.0
H588 H 0.42964 0.84797 0.52287 0.0
H589 H 0.46466 0.89413 0.51687 0.0
H590 H 0.39729 0.95185 0.56749 0.0
H591 H 0.36223 0.90564 0.57415 0.0
H592 H 0.45814 0.95587 0.49132 0.0
H593 H 0.47796 0.95777 0.62084 0.0
H594 H 0.45904 0.92474 0.60124 0.0
H595 H 0.43714 0.96023 0.60976 0.0
C596 C 0.42201 0.87053 0.53242 0.0
C597 C 0.39331 0.87296 0.54945 0.0
C598 C 0.44208 0.89692 0.52889 0.0
C599 C 0.43385 0.9262 0.5423 0.0
C600 C 0.40434 0.92926 0.55752 0.0
H601 H 0.5253 0.11008 0.52422 0.0
H602 H 0.4919 0.0631 0.51716 0.0
C603 C 0.38426 0.90285 0.56116 0.0
C604 C 0.45699 0.95289 0.54212 0.0
H605 H 0.50048 0.0001 0.59106 0.0
C606 C 0.46747 0.96558 0.51308 0.0
C607 C 0.4696 0.96499 0.57055 0.0
C608 C 0.46064 0.95109 0.60238 0.0
C609 C 0.48973 -0.00939 0.51177 0.0
C610 C 0.50146 0.00344 0.54027 0.0
C611 C 0.49139 -0.00969 0.56923 0.0
C612 C 0.52359 0.03101 0.54094 0.0
C613 C 0.50081 0.00279 0.47993 0.0
C614 C 0.5526 0.02863 0.55659 0.0
C615 C 0.57169 0.05557 0.56094 0.0
C616 C 0.56199 0.08545 0.54988 0.0
C617 C 0.53354 0.08747 0.53302 0.0
C618 C 0.51446 0.06055 0.52876 0.0
H619 H 0.49695 -0.01514 0.46107 0.0
H620 H 0.48718 0.02432 0.47376 0.0
H621 H 0.52633 0.00935 0.48024 0.0
H622 H 0.56004 0.00606 0.56626 0.0
H623 H 0.59344 0.05314 0.574 0.0
H624 H 0.40245 0.87506 0.052 0.0
H625 H 0.4482 0.90976 0.06076 0.0
H626 H 0.39238 0.9681 0.12335 0.0
H627 H 0.34641 0.93339 0.11494 0.0
H628 H 0.44728 0.97861 0.04726 0.0
H629 H 0.47685 0.94925 0.17193 0.0
H630 H 0.45434 0.92233 0.14746 0.0
H631 H 0.43626 0.95764 0.16263 0.0
C632 C 0.39994 0.89496 0.06801 0.0
C633 C 0.37068 0.90149 0.08265 0.0
C634 C 0.42609 0.91484 0.07289 0.0
C635 C 0.42362 0.94144 0.09269 0.0
C636 C 0.3948 0.94754 0.10816 0.0
H637 H 0.58334 0.07957 0.07945 0.0
H638 H 0.52839 0.06197 0.09043 0.0
C639 C 0.36854 0.92771 0.10322 0.0
C640 C 0.45095 0.96346 0.09565 0.0
H641 H 0.511 -0.01529 0.14483 0.0
C642 C 0.46095 -0.01953 0.06874 0.0
C643 C 0.46852 0.9658 0.12377 0.0
C644 C 0.45871 0.94775 0.15317 0.0
C645 C 0.489 -0.00141 0.0687 0.0
C646 C 0.50738 -0.00016 0.09641 0.0
C647 C 0.4966 -0.016 0.12379 0.0
C648 C 0.54029 0.01223 0.09537 0.0
C649 C 0.4999 0.01456 0.03845 0.0
C650 C 0.56502 -0.00969 0.09572 0.0
C651 C 0.59595 0.00017 0.08923 0.0
C652 C 0.60288 0.03225 0.08262 0.0
C653 C 0.57852 0.05472 0.0845 0.0
C654 C 0.54724 0.04469 0.09063 0.0
H655 H 0.48415 0.00901 1.01832 0.0
H656 H 0.50039 0.04072 0.04183 0.0
H657 H 0.5243 0.007 0.03221 0.0
H658 H 0.56017 0.9652 0.09933 0.0
H659 H 0.61437 -0.01758 0.0883 0.0
H660 H 0.91344 0.6002 0.62342 0.0
H661 H 0.94816 0.5544 0.62995 0.0
H662 H 0.90771 0.51078 0.54734 0.0
H663 H 0.87217 0.55579 0.54143 0.0
H664 H 0.91803 0.46731 0.59097 0.0
H665 H 0.02619 0.5421 0.57711 0.0
H666 H 0.00178 0.55326 0.61014 0.0
H667 H -0.01292 0.55739 0.5706 0.0
C668 C 0.91169 0.58064 0.6069 0.0
C669 C 0.89022 0.58173 0.58177 0.0
C670 C 0.93176 0.5546 0.61048 0.0
C671 C 0.93124 0.52952 0.5886 0.0
C672 C 0.90875 0.52992 0.56441 0.0
H673 H 0.07814 0.40027 0.53456 0.0
H674 H 0.04269 0.44503 0.54307 0.0
C675 C 0.88835 0.55568 0.5611 0.0
C676 C 0.9546 0.50328 0.59008 0.0
H677 H 0.03385 0.48762 0.58789 0.0
C678 C 0.94336 0.47174 0.59042 0.0
C679 C -0.0123 0.50906 0.58888 0.0
C680 C 0.00146 0.54225 0.58634 0.0
C681 C 0.96416 0.44588 0.58908 0.0
C682 C -0.00273 0.45165 0.58851 0.0
C683 C 0.00852 0.48318 0.58868 0.0
C684 C 0.02056 0.42546 0.58532 0.0
C685 C 0.95032 0.41273 0.58683 0.0
C686 C 0.0208 0.39996 0.60683 0.0
C687 C 0.04081 0.37406 0.60176 0.0
C688 C 0.06147 0.37351 0.57546 0.0
C689 C 0.06257 0.39995 0.55508 0.0
C690 C 0.04224 0.42557 0.55989 0.0
H691 H 0.92531 0.41303 0.579 0.0
H692 H 0.96416 0.3979 0.57006 0.0
H693 H 0.95081 0.40127 0.61046 0.0
H694 H 0.00505 0.39975 0.62719 0.0
H695 H 0.03967 0.35421 0.6181 0.0
H696 H 0.1492 0.31889 0.17192 0.0
H697 H 0.14024 0.29905 0.22603 0.0
H698 H 0.15016 0.39457 0.26174 0.0
H699 H 0.15841 0.41441 0.20792 0.0
H700 H 0.17319 0.30144 0.28289 0.0
H701 H 0.06177 0.36954 0.29167 0.0
H702 H 0.08289 0.3644 0.25479 0.0
H703 H 0.09551 0.39422 0.28252 0.0
C704 C 0.14989 0.3355 0.19141 0.0
C705 C 0.15396 0.36826 0.1857 0.0
C706 C 0.14473 0.32419 0.22228 0.0
C707 C 0.14376 0.34544 0.24786 0.0
C708 C 0.14992 0.37784 0.24231 0.0
H709 H 0.13699 0.30676 0.45078 0.0
H710 H 0.1551 0.31587 0.39611 0.0
C711 C 0.15467 0.38916 0.21156 0.0
C712 C 0.13453 0.3343 0.28008 0.0
H713 H 0.08042 0.34673 0.33917 0.0
C714 C 0.15281 0.31116 0.29519 0.0
C715 C 0.10759 0.34657 0.29591 0.0
C716 C 0.08561 0.3698 0.2803 0.0
C717 C 0.14526 0.30052 0.32599 0.0
C718 C 0.11909 0.31386 0.34229 0.0
C719 C 0.10061 0.3366 0.32687 0.0
C720 C 0.1098 0.30461 0.37515 0.0
C721 C 0.16502 0.27472 0.34047 0.0
C722 C 0.07838 0.29532 0.38174 0.0
C723 C 0.06797 0.29079 0.41287 0.0
C724 C 0.08878 0.29512 0.43817 0.0
C725 C 0.12061 0.30292 0.43165 0.0
C726 C 0.13096 0.30798 0.4004 0.0
H727 H 0.17747 0.26057 0.32208 0.0
H728 H 0.18324 0.28578 0.35572 0.0
H729 H 0.15027 0.25837 0.35524 0.0
H730 H 0.06158 0.29247 0.36278 0.0
H731 H 0.0434 0.2845 0.41727 0.0
H732 H 0.64099 0.13311 0.96096 0.0
H733 H 0.62616 0.15539 0.90968 0.0
H734 H 0.677 0.08062 0.86217 0.0
H735 H 0.6931 0.05928 0.91281 0.0
H736 H 0.68679 0.13683 0.83303 0.0
H737 H 0.55789 0.11793 0.85451 0.0
H738 H 0.57734 0.14309 0.88264 0.0
H739 H 0.58746 0.10173 0.88021 0.0
C740 C 0.64933 0.12163 0.93963 0.0
C741 C 0.66785 0.09399 0.94125 0.0
C742 C 0.64053 0.13422 0.91026 0.0
C743 C 0.64987 0.11931 0.88196 0.0
C744 C 0.66924 0.09246 0.88358 0.0
H745 H 0.56749 0.10777 0.69996 0.0
H746 H 0.58628 0.10285 0.75392 0.0
C747 C 0.67816 0.08003 0.91274 0.0
C748 C 0.63906 0.13068 0.85049 0.0
H749 H 0.57316 0.1392 0.80523 0.0
C750 C 0.66192 0.13767 0.82701 0.0
C751 C 0.60661 0.13149 0.84253 0.0
C752 C 0.58085 0.12292 0.86615 0.0
C753 C 0.65333 0.14444 0.79569 0.0
C754 C 0.62089 0.14492 0.78768 0.0
C755 C 0.59801 0.13896 0.81139 0.0
C756 C 0.61012 0.1486 0.75445 0.0
C757 C 0.67911 0.14944 0.77115 0.0
C758 C 0.61727 0.17599 0.73649 0.0
C759 C 0.60655 0.17884 0.70532 0.0
C760 C 0.58811 0.15453 0.6917 0.0
C761 C 0.58115 0.12719 0.70979 0.0
C762 C 0.59198 0.12428 0.74071 0.0
H763 H 0.70252 0.14143 0.77965 0.0
H764 H 0.67351 0.13647 0.74905 0.0
H765 H 0.68106 0.17516 0.76543 0.0
H766 H 0.63074 0.19535 0.74671 0.0
H767 H 0.61203 0.20032 0.69216 0.0
H768 H 0.8804 0.61048 0.43696 0.0
H769 H 0.85754 0.60519 0.38471 0.0
H770 H 0.80534 0.69173 0.39897 0.0
H771 H 0.82898 0.69769 0.45149 0.0
H772 H 0.79276 0.6009 0.36819 0.0
H773 H 0.85338 0.70623 0.31379 0.0
H774 H 0.86636 0.68902 0.3505 0.0
H775 H 0.831 0.71228 0.34968 0.0
C776 C 0.86437 0.62866 0.42899 0.0
C777 C 0.8569 0.65477 0.44831 0.0
C778 C 0.85107 0.62542 0.39915 0.0
C779 C 0.83002 0.64821 0.38779 0.0
C780 C 0.82189 0.67407 0.40713 0.0
H781 H 0.75294 0.62519 0.19433 0.0
H782 H 0.75732 0.64583 0.24847 0.0
C783 C 0.8352 0.67731 0.43721 0.0
C784 C 0.81712 0.64438 0.35553 0.0
H785 H 0.82502 0.67246 0.27994 0.0
C786 C 0.79924 0.61691 0.349 0.0
C787 C 0.82565 0.66528 0.33052 0.0
C788 C 0.84529 0.69482 0.3362 0.0
C789 C 0.791 0.609 0.31795 0.0
C790 C 0.801 0.62896 0.29283 0.0
C791 C 0.81732 0.65734 0.2994 0.0
C792 C 0.79866 0.61825 0.25966 0.0
C793 C 0.77301 0.57852 0.31189 0.0
C794 C 0.82072 0.5964 0.24809 0.0
C795 C 0.81846 0.58479 0.21736 0.0
C796 C 0.79394 0.59464 0.19744 0.0
C797 C 0.77218 0.61718 0.20893 0.0
C798 C 0.77455 0.62892 0.23985 0.0
H799 H 0.76234 0.56848 0.3339 0.0
H800 H 0.75396 0.58259 0.2945 0.0
H801 H 0.78941 0.56069 0.30168 0.0
H802 H 0.83964 0.58812 0.26302 0.0
H803 H 0.83611 0.56812 0.20924 0.0
H804 H 0.34558 0.89145 0.93338 0.0
H805 H 0.35193 0.86992 0.88043 0.0
H806 H 0.26829 0.81178 0.89415 0.0
H807 H 0.26112 0.83419 0.94735 0.0
H808 H 0.36032 0.80743 0.86151 0.0
H809 H 0.25065 0.85792 0.81043 0.0
H810 H 0.26636 0.8714 0.84761 0.0
H811 H 0.24595 0.83387 0.84539 0.0
C812 C 0.32821 0.87441 0.92517 0.0
C813 C 0.30253 0.86496 0.9446 0.0
C814 C 0.33207 0.86187 0.89487 0.0
C815 C 0.31039 0.83955 0.88307 0.0
C816 C 0.28504 0.8294 0.90253 0.0
H817 H 0.33148 0.76236 0.68836 0.0
H818 H 0.3121 0.7673 0.74316 0.0
C819 C 0.28114 0.84199 0.93306 0.0
C820 C 0.31496 0.82727 0.85037 0.0
H821 H 0.28501 0.83107 0.77566 0.0
C822 C 0.34359 0.81215 0.84285 0.0
C823 C 0.29313 0.83341 0.82597 0.0
C824 C 0.26235 0.85021 0.83251 0.0
C825 C 0.35152 0.80421 0.81155 0.0
C826 C 0.33039 0.81168 0.78704 0.0
C827 C 0.30107 0.82531 0.79459 0.0
C828 C 0.34028 0.80911 0.7534 0.0
C829 C 0.383 0.78894 0.80463 0.0
C830 C 0.36197 0.83132 0.74094 0.0
C831 C 0.37283 0.82878 0.70979 0.0
C832 C 0.36243 0.80378 0.69025 0.0
C833 C 0.33997 0.78194 0.70259 0.0
C834 C 0.32894 0.78464 0.73393 0.0
H835 H 0.39373 0.77889 0.82628 0.0
H836 H 0.38032 0.7697 0.78688 0.0
H837 H 0.39955 0.80707 0.79461 0.0
H838 H 0.37073 0.85059 0.75549 0.0
H839 H 0.38942 0.84656 0.70109 0.0
H840 H 0.73275 0.58095 0.92388 0.0
H841 H 0.75095 0.59469 0.87052 0.0
H842 H 0.8243 0.6544 0.90937 0.0
H843 H 0.80633 0.64051 0.96288 0.0
H844 H 0.75386 0.65221 0.84166 0.0
H845 H 0.87428 0.60127 0.84721 0.0
H846 H 0.84405 0.59261 0.87655 0.0
H847 H 0.86623 0.6293 0.87812 0.0
C848 C 0.75271 0.59706 0.9211 0.0
C849 C 0.76812 0.60959 0.94768 0.0
C850 C 0.76318 0.60479 0.89056 0.0
C851 C 0.78931 0.62518 0.88588 0.0
C852 C 0.80462 0.63795 0.91235 0.0
H853 H 0.87801 0.71431 0.72254 0.0
H854 H 0.86107 0.69734 0.77545 0.0
C855 C 0.79427 0.63006 0.94295 0.0
C856 C 0.79973 0.63389 0.8533 0.0
H857 H 0.86336 0.63391 0.80265 0.0
C858 C 0.77774 0.648 0.83307 0.0
C859 C 0.8309 0.62835 0.84206 0.0
C860 C 0.85516 0.61177 0.86199 0.0
C861 C 0.78623 0.65731 0.8022 0.0
C862 C 0.81746 0.6521 0.79114 0.0
C863 C 0.83944 0.6379 0.81126 0.0
C864 C 0.8279 0.6618 0.75893 0.0
C865 C 0.76195 0.67332 0.78185 0.0
C866 C 0.81514 0.64713 0.7321 0.0
C867 C 0.82476 0.65681 0.70178 0.0
C868 C 0.84726 0.6814 0.69775 0.0
C869 C 0.86027 0.69569 0.72477 0.0
C870 C 0.85079 0.68588 0.75503 0.0
H871 H 0.74116 0.68139 0.7959 0.0
H872 H 0.77255 0.69413 0.76931 0.0
H873 H 0.75347 0.65626 0.76378 0.0
H874 H 0.79771 0.62821 0.73463 0.0
H875 H 0.81415 0.64544 0.68152 0.0
H876 H 0.37546 0.73774 0.41555 0.0
H877 H 0.36013 0.75566 0.36295 0.0
H878 H 0.29948 0.82624 0.405 0.0
H879 H 0.31496 0.80861 0.4577 0.0
H880 H 0.30288 0.75649 0.33518 0.0
H881 H 0.34973 0.87977 0.34277 0.0
H882 H 0.35946 0.84948 0.37121 0.0
H883 H 0.32231 0.86995 0.37405 0.0
C884 C 0.3588 0.75703 0.41365 0.0
C885 C 0.34656 0.77182 0.44092 0.0
C886 C 0.35014 0.76734 0.38351 0.0
C887 C 0.32907 0.7927 0.3799 0.0
C888 C 0.31646 0.80724 0.40708 0.0
H889 H 0.2374 0.88095 0.21993 0.0
H890 H 0.25437 0.86345 0.2722 0.0
C891 C 0.32527 0.79707 0.43725 0.0
C892 C 0.31969 0.80325 0.34772 0.0
H893 H 0.31711 0.86797 0.29874 0.0
C894 C 0.3062 0.78082 0.32716 0.0
C895 C 0.32403 0.83501 0.33716 0.0
C896 C 0.33996 0.85988 0.35732 0.0
C897 C 0.29639 0.7894 0.29669 0.0
C898 C 0.30043 0.82119 0.28632 0.0
C899 C 0.31396 0.84362 0.30678 0.0
C900 C 0.2904 0.83173 0.25444 0.0
C901 C 0.28113 0.76454 0.27603 0.0
C902 C 0.30526 0.81998 0.22706 0.0
C903 C 0.29561 0.82995 0.19709 0.0
C904 C 0.27081 0.85184 0.1939 0.0
C905 C 0.25621 0.86374 0.22146 0.0
C906 C 0.26602 0.85392 0.25138 0.0
H907 H 0.27369 0.74313 0.28974 0.0
H908 H 0.26013 0.77436 0.26399 0.0
H909 H 0.29834 0.75702 0.25756 0.0
H910 H 0.32441 0.80314 0.22887 0.0
H911 H 0.30722 0.82014 0.17642 0.0
H912 H 0.08445 0.2318 0.71337 0.0
H913 H 0.10138 0.24713 0.76613 0.0
H914 H 0.15094 0.32847 0.72708 0.0
H915 H 0.13444 0.31307 0.67395 0.0
H916 H 0.16372 0.25469 0.78848 0.0
H917 H 0.09517 0.3665 0.79805 0.0
H918 H 0.08699 0.33664 0.76857 0.0
H919 H 0.12 0.36344 0.76343 0.0
C920 C 0.09912 0.25285 0.71582 0.0
C921 C 0.10809 0.27114 0.68922 0.0
C922 C 0.10866 0.26165 0.74611 0.0
C923 C 0.12717 0.28907 0.75059 0.0
C924 C 0.13619 0.30749 0.72421 0.0
H925 H 0.23369 0.34072 0.91815 0.0
H926 H 0.21743 0.32351 0.86551 0.0
C927 C 0.12668 0.29867 0.69383 0.0
C928 C 0.13743 0.29792 0.78288 0.0
H929 H 0.13081 0.35548 0.83937 0.0
C930 C 0.15655 0.27672 0.79963 0.0
C931 C 0.12772 0.3265 0.79751 0.0
C932 C 0.10611 0.34952 0.78116 0.0
C933 C 0.16652 0.2835 0.83048 0.0
C934 C 0.15736 0.31239 0.84485 0.0
C935 C 0.13795 0.33343 0.82824 0.0
C936 C 0.16746 0.32122 0.87718 0.0
C937 C 0.18632 0.25947 0.84768 0.0
C938 C 0.14479 0.32579 0.9012 0.0
C939 C 0.154 0.33575 0.93128 0.0
C940 C 0.18611 0.34167 0.93787 0.0
C941 C 0.20879 0.33658 0.91384 0.0
C942 C 0.19956 0.32649 0.8838 0.0
H943 H 0.18493 0.23561 0.83653 0.0
H944 H 0.21144 0.2674 0.84713 0.0
H945 H 0.17868 0.25735 0.8728 0.0
H946 H 0.11987 0.322 0.89655 0.0
H947 H 0.13583 0.33987 0.94898 0.0
H948 H 0.72789 0.13602 0.20779 0.0
H949 H 0.70821 0.15045 0.25992 0.0
H950 H 0.61539 0.11524 0.23595 0.0
H951 H 0.63537 0.09915 0.18387 0.0
H952 H 0.66394 0.19134 0.27791 0.0
H953 H 0.62941 0.0704 0.31907 0.0
H954 H 0.65276 0.07711 0.28368 0.0
H955 H 0.61056 0.08238 0.28322 0.0
C956 C 0.70339 0.13077 0.21355 0.0
C957 C 0.68343 0.11586 0.1915 0.0
C958 C 0.69207 0.13937 0.24345 0.0
C959 C 0.66044 0.13346 0.25223 0.0
C960 C 0.6401 0.11938 0.23008 0.0
H961 H 0.57501 0.22388 0.4184 0.0
H962 H 0.58917 0.20778 0.36466 0.0
C963 C 0.65149 0.11055 0.20008 0.0
C964 C 0.64906 0.14263 0.28442 0.0
H965 H 0.61628 0.11326 0.3529 0.0
C966 C 0.65346 0.17424 0.29426 0.0
C967 C 0.63584 0.12027 0.30603 0.0
C968 C 0.6321 0.08558 0.29766 0.0
C969 C 0.64511 0.18411 0.32495 0.0
C970 C 0.63112 0.16196 0.34629 0.0
C971 C 0.62673 0.13032 0.3365 0.0
C972 C 0.62154 0.17102 0.37907 0.0
C973 C 0.65234 0.21796 0.33445 0.0
C974 C 0.63406 0.15501 0.40524 0.0
C975 C 0.62573 0.164 0.43609 0.0
C976 C 0.60473 0.18926 0.44144 0.0
C977 C 0.59177 0.20482 0.41517 0.0
C978 C 0.59989 0.19564 0.38437 0.0
H979 H 0.67093 0.22889 0.31901 0.0
H980 H 0.63061 0.23239 0.33222 0.0
H981 H 0.66032 0.21924 0.35932 0.0
H982 H 0.65072 0.13585 0.4018 0.0
H983 H 0.63626 0.15163 0.45574 0.0
loop_
_geom_bond_atom_site_label_1
_geom_bond_atom_site_label_2
_geom_bond_distance
_geom_bond_site_symmetry_2
_ccdc_geom_bond_type
C0 C1 1.351 . S
C0 N3 1.368 . S
C0 H5 0.931 . S
C1 C0 1.351 . S
C1 N2 1.373 . S
C1 H29 0.930 . S
N2 C1 1.373 . S
N2 C4 1.340 . S
N3 C0 1.368 . S
N3 C4 1.321 . S
N3 Co6 2.135 1_556 S
C4 N2 1.340 . S
C4 N3 1.321 . S
C4 H28 0.930 . S
H5 C0 0.931 . S
Co6 N3 2.135 1_554 S
Co6 N9 2.121 . S
Co6 O14 2.055 . S
Co6 O17 2.039 . S
Co6 N20 2.140 . S
C7 O8 1.227 . S
C7 O17 1.265 . S
O8 C7 1.227 . S
N9 Co6 2.121 . S
N9 C11 1.375 . S
N9 C12 1.313 . S
C10 C11 1.338 . S
C10 N13 1.377 . S
C10 H30 0.930 . S
C11 N9 1.375 . S
C11 C10 1.338 . S
C11 H15 0.931 . S
C12 N9 1.313 . S
C12 N13 1.344 . S
C12 H16 0.930 . S
N13 C10 1.377 . S
N13 C12 1.344 . S
O14 Co6 2.055 . S
O14 C18 1.253 . S
H15 C11 0.931 . S
H16 C12 0.930 . S
O17 Co6 2.039 . S
O17 C7 1.265 . S
C18 O14 1.253 . S
C18 O19 1.227 . S
O19 C18 1.227 . S
N20 Co6 2.140 . S
N20 C23 1.346 . S
N20 C24 1.345 . S
C21 C22 1.387 . S
C21 C25 1.391 . S
C22 C21 1.387 . S
C22 C23 1.369 . S
C22 H31 0.929 1_554 S
C23 N20 1.346 . S
C23 C22 1.369 . S
C23 H26 0.928 1_554 S
C24 N20 1.345 . S
C24 C25 1.371 . S
C24 H27 0.931 . S
C25 C21 1.391 . S
C25 C24 1.371 . S
C25 H32 0.930 . S
H26 C23 0.928 1_556 S
H27 C24 0.931 . S
H28 C4 0.930 . S
H29 C1 0.930 . S
H30 C10 0.930 . S
H31 C22 0.929 1_556 S
H32 C25 0.930 . S
C33 C34 1.351 . S
C33 N36 1.368 . S
C33 H38 0.931 . S
C34 C33 1.351 . S
C34 N35 1.373 . S
C34 H62 0.930 . S
N35 C34 1.373 . S
N35 C37 1.340 . S
N36 C33 1.368 . S
N36 C37 1.321 . S
N36 Co39 2.135 . S
C37 N35 1.340 . S
C37 N36 1.321 . S
C37 H61 0.930 . S
H38 C33 0.931 . S
Co39 N36 2.135 . S
Co39 N42 2.121 . S
Co39 O47 2.055 . S
Co39 O50 2.039 . S
Co39 N53 2.140 . S
C40 O41 1.227 . S
C40 O50 1.265 . S
O41 C40 1.227 . S
N42 Co39 2.121 . S
N42 C44 1.375 . S
N42 C45 1.313 . S
C43 C44 1.338 . S
C43 N46 1.377 . S
C43 H63 0.930 . S
C44 N42 1.375 . S
C44 C43 1.338 . S
C44 H48 0.931 . S
C45 N42 1.313 . S
C45 N46 1.344 . S
C45 H49 0.930 . S
N46 C43 1.377 . S
N46 C45 1.344 . S
O47 Co39 2.055 . S
O47 C51 1.253 . S
H48 C44 0.931 . S
H49 C45 0.930 . S
O50 Co39 2.039 . S
O50 C40 1.265 . S
C51 O47 1.253 . S
C51 O52 1.227 . S
O52 C51 1.227 . S
N53 Co39 2.140 . S
N53 C56 1.346 . S
N53 C57 1.345 . S
C54 C55 1.387 . S
C54 C58 1.391 . S
C55 C54 1.387 . S
C55 C56 1.369 . S
C55 H64 0.929 . S
C56 N53 1.346 . S
C56 C55 1.369 . S
C56 H59 0.928 . S
C57 N53 1.345 . S
C57 C58 1.371 . S
C57 H60 0.931 . S
C58 C54 1.391 . S
C58 C57 1.371 . S
C58 H65 0.930 . S
H59 C56 0.928 . S
H60 C57 0.931 . S
H61 C37 0.930 . S
H62 C34 0.930 . S
H63 C43 0.930 . S
H64 C55 0.929 . S
H65 C58 0.930 . S
C66 C67 1.351 . S
C66 N69 1.368 . S
C66 H71 0.931 . S
C67 C66 1.351 . S
C67 N68 1.373 . S
C67 H95 0.930 . S
N68 C67 1.373 . S
N68 C70 1.340 . S
N69 C66 1.368 . S
N69 C70 1.321 . S
N69 Co72 2.135 1_556 S
C70 N68 1.340 . S
C70 N69 1.321 . S
C70 H94 0.930 . S
H71 C66 0.931 . S
Co72 N69 2.135 1_554 S
Co72 N75 2.121 . S
Co72 O80 2.055 . S
Co72 O83 2.039 . S
Co72 N86 2.140 . S
C73 O74 1.227 . S
C73 O83 1.265 . S
O74 C73 1.227 . S
N75 Co72 2.121 . S
N75 C77 1.375 . S
N75 C78 1.313 . S
C76 C77 1.338 . S
C76 N79 1.377 . S
C76 H96 0.930 . S
C77 N75 1.375 . S
C77 C76 1.338 . S
C77 H81 0.931 . S
C78 N75 1.313 . S
C78 N79 1.344 . S
C78 H82 0.930 . S
N79 C76 1.377 . S
N79 C78 1.344 . S
O80 Co72 2.055 . S
O80 C84 1.253 . S
H81 C77 0.931 . S
H82 C78 0.930 . S
O83 Co72 2.039 . S
O83 C73 1.265 . S
C84 O80 1.253 . S
C84 O85 1.227 . S
O85 C84 1.227 . S
N86 Co72 2.140 . S
N86 C89 1.346 . S
N86 C90 1.345 . S
C87 C88 1.387 . S
C87 C91 1.391 . S
C88 C87 1.387 . S
C88 C89 1.369 . S
C88 H97 0.929 1_554 S
C89 N86 1.346 . S
C89 C88 1.369 . S
C89 H92 0.928 1_554 S
C90 N86 1.345 . S
C90 C91 1.371 . S
C90 H93 0.931 . S
C91 C87 1.391 . S
C91 C90 1.371 . S
C91 H98 0.930 . S
H92 C89 0.928 1_556 S
H93 C90 0.931 . S
H94 C70 0.930 . S
H95 C67 0.930 . S
H96 C76 0.930 . S
H97 C88 0.929 1_556 S
H98 C91 0.930 . S
C99 C100 1.351 . S
C99 N102 1.368 . S
C99 H104 0.931 . S
C100 C99 1.351 . S
C100 N101 1.373 . S
C100 H128 0.930 . S
N101 C100 1.373 . S
N101 C103 1.340 . S
N102 C99 1.368 . S
N102 C103 1.321 . S
N102 Co105 2.135 . S
C103 N101 1.340 . S
C103 N102 1.321 . S
C103 H127 0.930 . S
H104 C99 0.931 . S
Co105 N102 2.135 . S
Co105 N108 2.121 . S
Co105 O113 2.055 . S
Co105 O116 2.039 . S
Co105 N119 2.140 . S
C106 O107 1.227 . S
C106 O116 1.265 . S
O107 C106 1.227 . S
N108 Co105 2.121 . S
N108 C110 1.375 . S
N108 C111 1.313 . S
C109 C110 1.338 . S
C109 N112 1.377 . S
C109 H129 0.930 . S
C110 N108 1.375 . S
C110 C109 1.338 . S
C110 H114 0.931 . S
C111 N108 1.313 . S
C111 N112 1.344 . S
C111 H115 0.930 . S
N112 C109 1.377 . S
N112 C111 1.344 . S
O113 Co105 2.055 . S
O113 C117 1.253 . S
H114 C110 0.931 . S
H115 C111 0.930 . S
O116 Co105 2.039 . S
O116 C106 1.265 . S
C117 O113 1.253 . S
C117 O118 1.227 . S
O118 C117 1.227 . S
N119 Co105 2.140 . S
N119 C122 1.346 . S
N119 C123 1.345 . S
C120 C121 1.387 . S
C120 C124 1.391 . S
C121 C120 1.387 . S
C121 C122 1.369 . S
C121 H130 0.929 . S
C122 N119 1.346 . S
C122 C121 1.369 . S
C122 H125 0.928 . S
C123 N119 1.345 . S
C123 C124 1.371 . S
C123 H126 0.931 . S
C124 C120 1.391 . S
C124 C123 1.371 . S
C124 H131 0.930 . S
H125 C122 0.928 . S
H126 C123 0.931 . S
H127 C103 0.930 . S
H128 C100 0.930 . S
H129 C109 0.930 . S
H130 C121 0.929 . S
H131 C124 0.930 . S
C132 C133 1.351 . S
C132 N135 1.368 . S
C132 H137 0.931 . S
C133 C132 1.351 . S
C133 N134 1.373 . S
C133 H161 0.930 . S
N134 C133 1.373 . S
N134 C136 1.340 . S
N135 C132 1.368 . S
N135 C136 1.321 . S
N135 Co138 2.135 . S
C136 N134 1.340 . S
C136 N135 1.321 . S
C136 H160 0.930 . S
H137 C132 0.931 . S
Co138 N135 2.135 . S
Co138 N141 2.121 1_554 S
Co138 O146 2.055 . S
Co138 O149 2.039 . S
Co138 N152 2.140 . S
C139 O140 1.227 . S
C139 O149 1.265 . S
O140 C139 1.227 . S
N141 Co138 2.121 1_556 S
N141 C143 1.375 . S
N141 C144 1.313 . S
C142 C143 1.338 . S
C142 N145 1.377 . S
C142 H162 0.930 . S
C143 N141 1.375 . S
C143 C142 1.338 . S
C143 H147 0.931 . S
C144 N141 1.313 . S
C144 N145 1.344 . S
C144 H148 0.930 . S
N145 C142 1.377 . S
N145 C144 1.344 . S
O146 Co138 2.055 . S
O146 C150 1.253 . S
H147 C143 0.931 . S
H148 C144 0.930 . S
O149 Co138 2.039 . S
O149 C139 1.265 . S
C150 O146 1.253 . S
C150 O151 1.227 . S
O151 C150 1.227 . S
N152 Co138 2.140 . S
N152 C155 1.346 . S
N152 C156 1.345 . S
C153 C154 1.387 . S
C153 C157 1.391 1_565 S
C154 C153 1.387 . S
C154 C155 1.369 1_565 S
C154 H163 0.929 . S
C155 N152 1.346 . S
C155 C154 1.369 1_545 S
C155 H158 0.928 . S
C156 N152 1.345 . S
C156 C157 1.371 . S
C156 H159 0.931 . S
C157 C153 1.391 1_545 S
C157 C156 1.371 . S
C157 H164 0.930 . S
H158 C155 0.928 . S
H159 C156 0.931 . S
H160 C136 0.930 . S
H161 C133 0.930 . S
H162 C142 0.930 . S
H163 C154 0.929 . S
H164 C157 0.930 . S
C165 C166 1.351 . S
C165 N168 1.368 . S
C165 H170 0.931 . S
C166 C165 1.351 . S
C166 N167 1.373 . S
C166 H194 0.930 . S
N167 C166 1.373 . S
N167 C169 1.340 . S
N168 C165 1.368 . S
N168 C169 1.321 . S
N168 Co171 2.135 . S
C169 N167 1.340 . S
C169 N168 1.321 . S
C169 H193 0.930 . S
H170 C165 0.931 . S
Co171 N168 2.135 . S
Co171 N174 2.121 . S
Co171 O179 2.055 . S
Co171 O182 2.039 . S
Co171 N185 2.140 . S
C172 O173 1.227 . S
C172 O182 1.265 . S
O173 C172 1.227 . S
N174 Co171 2.121 . S
N174 C176 1.375 . S
N174 C177 1.313 . S
C175 C176 1.338 . S
C175 N178 1.377 . S
C175 H195 0.930 . S
C176 N174 1.375 . S
C176 C175 1.338 . S
C176 H180 0.931 . S
C177 N174 1.313 . S
C177 N178 1.344 . S
C177 H181 0.930 . S
N178 C175 1.377 . S
N178 C177 1.344 . S
O179 Co171 2.055 . S
O179 C183 1.253 . S
H180 C176 0.931 . S
H181 C177 0.930 . S
O182 Co171 2.039 . S
O182 C172 1.265 . S
C183 O179 1.253 . S
C183 O184 1.227 . S
O184 C183 1.227 . S
N185 Co171 2.140 . S
N185 C188 1.346 . S
N185 C189 1.345 . S
C186 C187 1.387 . S
C186 C190 1.391 1_455 S
C187 C186 1.387 . S
C187 C188 1.369 1_455 S
C187 H196 0.929 . S
C188 N185 1.346 . S
C188 C187 1.369 1_655 S
C188 H191 0.928 . S
C189 N185 1.345 . S
C189 C190 1.371 . S
C189 H192 0.931 . S
C190 C186 1.391 1_655 S
C190 C189 1.371 . S
C190 H197 0.930 . S
H191 C188 0.928 . S
H192 C189 0.931 . S
H193 C169 0.930 . S
H194 C166 0.930 . S
H195 C175 0.930 . S
H196 C187 0.929 . S
H197 C190 0.930 . S
C198 C199 1.351 . S
C198 N201 1.368 . S
C198 H203 0.931 . S
C199 C198 1.351 . S
C199 N200 1.373 . S
C199 H227 0.930 . S
N200 C199 1.373 . S
N200 C202 1.340 . S
N201 C198 1.368 . S
N201 C202 1.321 . S
N201 Co204 2.135 . S
C202 N200 1.340 . S
C202 N201 1.321 . S
C202 H226 0.930 . S
H203 C198 0.931 . S
Co204 N201 2.135 . S
Co204 N207 2.121 1_554 S
Co204 O212 2.055 . S
Co204 O215 2.039 . S
Co204 N218 2.140 . S
C205 O206 1.227 . S
C205 O215 1.265 . S
O206 C205 1.227 . S
N207 Co204 2.121 1_556 S
N207 C209 1.375 . S
N207 C210 1.313 . S
C208 C209 1.338 . S
C208 N211 1.377 . S
C208 H228 0.930 . S
C209 N207 1.375 . S
C209 C208 1.338 . S
C209 H213 0.931 . S
C210 N207 1.313 . S
C210 N211 1.344 . S
C210 H214 0.930 . S
N211 C208 1.377 . S
N211 C210 1.344 . S
O212 Co204 2.055 . S
O212 C216 1.253 . S
H213 C209 0.931 . S
H214 C210 0.930 . S
O215 Co204 2.039 . S
O215 C205 1.265 . S
C216 O212 1.253 . S
C216 O217 1.227 . S
O217 C216 1.227 . S
N218 Co204 2.140 . S
N218 C221 1.346 . S
N218 C222 1.345 . S
C219 C220 1.387 . S
C219 C223 1.391 1_545 S
C220 C219 1.387 . S
C220 C221 1.369 1_545 S
C220 H229 0.929 . S
C221 N218 1.346 . S
C221 C220 1.369 1_565 S
C221 H224 0.928 . S
C222 N218 1.345 . S
C222 C223 1.371 . S
C222 H225 0.931 . S
C223 C219 1.391 1_565 S
C223 C222 1.371 . S
C223 H230 0.930 . S
H224 C221 0.928 . S
H225 C222 0.931 . S
H226 C202 0.930 . S
H227 C199 0.930 . S
H228 C208 0.930 . S
H229 C220 0.929 . S
H230 C223 0.930 . S
C231 C232 1.351 . S
C231 N234 1.368 . S
C231 H236 0.931 . S
C232 C231 1.351 . S
C232 N233 1.373 . S
C232 H260 0.930 . S
N233 C232 1.373 . S
N233 C235 1.340 . S
N234 C231 1.368 . S
N234 C235 1.321 . S
N234 Co237 2.135 . S
C235 N233 1.340 . S
C235 N234 1.321 . S
C235 H259 0.930 . S
H236 C231 0.931 . S
Co237 N234 2.135 . S
Co237 N240 2.121 . S
Co237 O245 2.055 . S
Co237 O248 2.039 . S
Co237 N251 2.140 . S
C238 O239 1.227 . S
C238 O248 1.265 . S
O239 C238 1.227 . S
N240 Co237 2.121 . S
N240 C242 1.375 . S
N240 C243 1.313 . S
C241 C242 1.338 . S
C241 N244 1.377 . S
C241 H261 0.930 . S
C242 N240 1.375 . S
C242 C241 1.338 . S
C242 H246 0.931 . S
C243 N240 1.313 . S
C243 N244 1.344 . S
C243 H247 0.930 . S
N244 C241 1.377 . S
N244 C243 1.344 . S
O245 Co237 2.055 . S
O245 C249 1.253 . S
H246 C242 0.931 . S
H247 C243 0.930 . S
O248 Co237 2.039 . S
O248 C238 1.265 . S
C249 O245 1.253 . S
C249 O250 1.227 . S
O250 C249 1.227 . S
N251 Co237 2.140 . S
N251 C254 1.346 . S
N251 C255 1.345 . S
C252 C253 1.387 . S
C252 C256 1.391 1_655 S
C253 C252 1.387 . S
C253 C254 1.369 1_655 S
C253 H262 0.929 . S
C254 N251 1.346 . S
C254 C253 1.369 1_455 S
C254 H257 0.928 . S
C255 N251 1.345 . S
C255 C256 1.371 . S
C255 H258 0.931 . S
C256 C252 1.391 1_455 S
C256 C255 1.371 . S
C256 H263 0.930 . S
H257 C254 0.928 . S
H258 C255 0.931 . S
H259 C235 0.930 . S
H260 C232 0.930 . S
H261 C241 0.930 . S
H262 C253 0.929 . S
H263 C256 0.930 . S
H264 C272 0.929 . S
H265 C274 0.930 . S
H266 C276 0.930 . S
H267 C279 0.929 . S
H268 C282 0.930 . S
H269 C284 0.960 . S
H270 C284 0.960 . S
H271 C284 0.960 . S
C272 H264 0.929 . S
C272 C273 1.377 . S
C272 C274 1.384 . S
C273 C272 1.377 . S
C273 C279 1.390 . S
C274 H265 0.930 . S
C274 C272 1.384 . S
C274 C275 1.372 . S
C275 C274 1.372 . S
C275 C276 1.400 . S
C275 C280 1.490 . S
C276 H266 0.930 . S
C276 C275 1.400 . S
C276 C279 1.386 . S
H277 C293 0.930 . S
H278 C294 0.931 . S
C279 H267 0.929 . S
C279 C273 1.390 . S
C279 C276 1.386 . S
C280 C275 1.490 . S
C280 C282 1.395 . S
C280 C283 1.403 . S
H281 C287 0.930 . S
C282 H268 0.930 . S
C282 C280 1.395 . S
C282 C285 1.403 . S
C283 C280 1.403 . S
C283 C284 1.524 1_554 S
C283 C287 1.400 . S
C284 H269 0.960 . S
C284 H270 0.960 . S
C284 H271 0.960 . S
C284 C283 1.524 1_556 S
C285 C282 1.403 . S
C285 C286 1.392 . S
C285 C289 1.495 . S
C286 C285 1.392 . S
C286 C287 1.385 . S
C286 C288 1.478 . S
C287 H281 0.930 . S
C287 C283 1.400 . S
C287 C286 1.385 . S
C288 C286 1.478 . S
C288 C290 1.381 . S
C288 C294 1.383 . S
C289 C285 1.495 . S
C289 H295 0.959 . S
C289 H296 0.961 . S
C289 H297 0.960 . S
C290 C288 1.381 . S
C290 C291 1.394 . S
C290 H298 0.930 . S
C291 C290 1.394 . S
C291 C292 1.383 . S
C291 H299 0.929 . S
C292 C291 1.383 . S
C292 C293 1.377 . S
C293 H277 0.930 . S
C293 C292 1.377 . S
C293 C294 1.379 . S
C294 H278 0.931 . S
C294 C288 1.383 . S
C294 C293 1.379 . S
H295 C289 0.959 . S
H296 C289 0.961 . S
H297 C289 0.960 . S
H298 C290 0.930 . S
H299 C291 0.929 . S
H300 C308 0.929 . S
H301 C310 0.930 . S
H302 C312 0.930 . S
H303 C315 0.929 . S
H304 C318 0.930 . S
H305 C320 0.960 . S
H306 C320 0.960 . S
H307 C320 0.960 . S
C308 H300 0.929 . S
C308 C309 1.377 . S
C308 C310 1.384 . S
C309 C308 1.377 . S
C309 C315 1.390 . S
C310 H301 0.930 . S
C310 C308 1.384 . S
C310 C311 1.372 . S
C311 C310 1.372 . S
C311 C312 1.400 . S
C311 C316 1.490 . S
C312 H302 0.930 . S
C312 C311 1.400 . S
C312 C315 1.386 . S
H313 C329 0.930 . S
H314 C330 0.931 . S
C315 H303 0.929 . S
C315 C309 1.390 . S
C315 C312 1.386 . S
C316 C311 1.490 . S
C316 C318 1.395 . S
C316 C319 1.403 . S
H317 C323 0.930 . S
C318 H304 0.930 . S
C318 C316 1.395 . S
C318 C321 1.403 . S
C319 C316 1.403 . S
C319 C320 1.524 . S
C319 C323 1.400 . S
C320 H305 0.960 . S
C320 H306 0.960 . S
C320 H307 0.960 . S
C320 C319 1.524 . S
C321 C318 1.403 . S
C321 C322 1.392 . S
C321 C325 1.495 . S
C322 C321 1.392 . S
C322 C323 1.385 . S
C322 C324 1.478 . S
C323 H317 0.930 . S
C323 C319 1.400 . S
C323 C322 1.385 . S
C324 C322 1.478 . S
C324 C326 1.381 . S
C324 C330 1.383 . S
C325 C321 1.495 . S
C325 H331 0.959 . S
C325 H332 0.961 . S
C325 H333 0.960 . S
C326 C324 1.381 . S
C326 C327 1.394 . S
C326 H334 0.930 . S
C327 C326 1.394 . S
C327 C328 1.383 . S
C327 H335 0.929 . S
C328 C327 1.383 . S
C328 C329 1.377 . S
C329 H313 0.930 . S
C329 C328 1.377 . S
C329 C330 1.379 . S
C330 H314 0.931 . S
C330 C324 1.383 . S
C330 C329 1.379 . S
H331 C325 0.959 . S
H332 C325 0.961 . S
H333 C325 0.960 . S
H334 C326 0.930 . S
H335 C327 0.929 . S
H336 C344 0.929 . S
H337 C346 0.930 . S
H338 C348 0.926 1_556 S
H339 C351 0.927 1_556 S
H340 C354 0.930 . S
H341 C356 0.960 . S
H342 C356 0.960 1_554 S
H343 C356 0.960 . S
C344 H336 0.929 . S
C344 C345 1.377 . S
C344 C346 1.384 . S
C345 C344 1.377 . S
C345 C351 1.390 . S
C346 H337 0.930 . S
C346 C344 1.384 . S
C346 C347 1.372 . S
C347 C346 1.372 . S
C347 C348 1.400 . S
C347 C352 1.490 . S
C348 H338 0.926 1_554 S
C348 C347 1.400 . S
C348 C351 1.386 . S
H349 C365 0.933 . S
H350 C366 0.931 . S
C351 H339 0.927 1_554 S
C351 C345 1.390 . S
C351 C348 1.386 . S
C352 C347 1.490 . S
C352 C354 1.395 . S
C352 C355 1.403 . S
H353 C359 0.930 . S
C354 H340 0.930 . S
C354 C352 1.395 . S
C354 C357 1.403 . S
C355 C352 1.403 . S
C355 C356 1.524 1_554 S
C355 C359 1.400 . S
C356 H341 0.960 . S
C356 H342 0.960 1_556 S
C356 H343 0.960 . S
C356 C355 1.524 1_556 S
C357 C354 1.403 . S
C357 C358 1.392 . S
C357 C361 1.495 . S
C358 C357 1.392 . S
C358 C359 1.385 . S
C358 C360 1.478 . S
C359 H353 0.930 . S
C359 C355 1.400 . S
C359 C358 1.385 . S
C360 C358 1.478 . S
C360 C362 1.381 . S
C360 C366 1.383 . S
C361 C357 1.495 . S
C361 H367 0.959 . S
C361 H368 0.961 . S
C361 H369 0.960 . S
C362 C360 1.381 . S
C362 C363 1.394 . S
C362 H370 0.930 . S
C363 C362 1.394 . S
C363 C364 1.383 . S
C363 H371 0.929 . S
C364 C363 1.383 . S
C364 C365 1.377 . S
C365 H349 0.933 . S
C365 C364 1.377 . S
C365 C366 1.379 . S
C366 H350 0.931 . S
C366 C360 1.383 . S
C366 C365 1.379 . S
H367 C361 0.959 . S
H368 C361 0.961 . S
H369 C361 0.960 . S
H370 C362 0.930 . S
H371 C363 0.929 . S
H372 C380 0.929 . S
H373 C382 0.930 . S
H374 C384 0.930 . S
H375 C387 0.929 . S
H376 C390 0.930 . S
H377 C392 0.960 . S
H378 C392 0.960 . S
H379 C392 0.960 . S
C380 H372 0.929 . S
C380 C381 1.377 . S
C380 C382 1.384 . S
C381 C380 1.377 . S
C381 C387 1.390 . S
C382 H373 0.930 . S
C382 C380 1.384 . S
C382 C383 1.372 . S
C383 C382 1.372 . S
C383 C384 1.400 . S
C383 C388 1.490 . S
C384 H374 0.930 . S
C384 C383 1.400 . S
C384 C387 1.386 . S
H385 C401 0.930 . S
H386 C402 0.931 . S
C387 H375 0.929 . S
C387 C381 1.390 . S
C387 C384 1.386 . S
C388 C383 1.490 . S
C388 C390 1.395 . S
C388 C391 1.403 . S
H389 C395 0.930 . S
C390 H376 0.930 . S
C390 C388 1.395 . S
C390 C393 1.403 . S
C391 C388 1.403 . S
C391 C392 1.524 . S
C391 C395 1.400 . S
C392 H377 0.960 . S
C392 H378 0.960 . S
C392 H379 0.960 . S
C392 C391 1.524 . S
C393 C390 1.403 . S
C393 C394 1.392 . S
C393 C397 1.495 . S
C394 C393 1.392 . S
C394 C395 1.385 . S
C394 C396 1.478 . S
C395 H389 0.930 . S
C395 C391 1.400 . S
C395 C394 1.385 . S
C396 C394 1.478 . S
C396 C398 1.381 . S
C396 C402 1.383 . S
C397 C393 1.495 . S
C397 H403 0.959 . S
C397 H404 0.961 . S
C397 H405 0.960 . S
C398 C396 1.381 . S
C398 C399 1.394 . S
C398 H406 0.930 . S
C399 C398 1.394 . S
C399 C400 1.383 . S
C399 H407 0.929 . S
C400 C399 1.383 . S
C400 C401 1.377 . S
C401 H385 0.930 . S
C401 C400 1.377 . S
C401 C402 1.379 . S
C402 H386 0.931 . S
C402 C396 1.383 . S
C402 C401 1.379 . S
H403 C397 0.959 . S
H404 C397 0.961 . S
H405 C397 0.960 . S
H406 C398 0.930 . S
H407 C399 0.929 . S
H408 C416 0.929 . S
H409 C418 0.930 . S
H410 C420 0.930 . S
H411 C423 0.929 . S
H412 C426 0.930 . S
H413 C428 0.960 . S
H414 C428 0.960 . S
H415 C428 0.960 . S
C416 H408 0.929 . S
C416 C417 1.377 . S
C416 C418 1.384 . S
C417 C416 1.377 . S
C417 C423 1.390 . S
C418 H409 0.930 . S
C418 C416 1.384 . S
C418 C419 1.372 . S
C419 C418 1.372 . S
C419 C420 1.400 . S
C419 C424 1.490 . S
C420 H410 0.930 . S
C420 C419 1.400 . S
C420 C423 1.386 . S
H421 C437 0.930 . S
H422 C438 0.931 . S
C423 H411 0.929 . S
C423 C417 1.390 . S
C423 C420 1.386 . S
C424 C419 1.490 . S
C424 C426 1.395 . S
C424 C427 1.403 . S
H425 C431 0.930 1_556 S
C426 H412 0.930 . S
C426 C424 1.395 . S
C426 C429 1.403 . S
C427 C424 1.403 . S
C427 C428 1.524 1_554 S
C427 C431 1.400 . S
C428 H413 0.960 . S
C428 H414 0.960 . S
C428 H415 0.960 . S
C428 C427 1.524 1_556 S
C429 C426 1.403 . S
C429 C430 1.392 . S
C429 C433 1.495 . S
C430 C429 1.392 . S
C430 C431 1.385 . S
C430 C432 1.478 . S
C431 H425 0.930 1_554 S
C431 C427 1.400 . S
C431 C430 1.385 . S
C432 C430 1.478 . S
C432 C434 1.381 . S
C432 C438 1.383 . S
C433 C429 1.495 . S
C433 H439 0.959 . S
C433 H440 0.961 . S
C433 H441 0.960 . S
C434 C432 1.381 . S
C434 C435 1.394 . S
C434 H442 0.930 . S
C435 C434 1.394 . S
C435 C436 1.383 . S
C435 H443 0.929 . S
C436 C435 1.383 . S
C436 C437 1.377 . S
C437 H421 0.930 . S
C437 C436 1.377 . S
C437 C438 1.379 . S
C438 H422 0.931 . S
C438 C432 1.383 . S
C438 C437 1.379 . S
H439 C433 0.959 . S
H440 C433 0.961 . S
H441 C433 0.960 . S
H442 C434 0.930 . S
H443 C435 0.929 . S
H444 C452 0.929 . S
H445 C454 0.930 . S
H446 C456 0.930 . S
H447 C459 0.929 . S
H448 C462 0.930 . S
H449 C464 0.960 . S
H450 C464 0.960 . S
H451 C464 0.960 . S
C452 H444 0.929 . S
C452 C453 1.377 . S
C452 C454 1.384 . S
C453 C452 1.377 . S
C453 C459 1.390 . S
C454 H445 0.930 . S
C454 C452 1.384 . S
C454 C455 1.372 . S
C455 C454 1.372 . S
C455 C456 1.400 . S
C455 C460 1.490 . S
C456 H446 0.930 . S
C456 C455 1.400 . S
C456 C459 1.386 . S
H457 C473 0.930 . S
H458 C474 0.931 . S
C459 H447 0.929 . S
C459 C453 1.390 . S
C459 C456 1.386 . S
C460 C455 1.490 . S
C460 C462 1.395 . S
C460 C463 1.403 . S
H461 C467 0.930 . S
C462 H448 0.930 . S
C462 C460 1.395 . S
C462 C465 1.403 . S
C463 C460 1.403 . S
C463 C464 1.524 . S
C463 C467 1.400 . S
C464 H449 0.960 . S
C464 H450 0.960 . S
C464 H451 0.960 . S
C464 C463 1.524 . S
C465 C462 1.403 . S
C465 C466 1.392 . S
C465 C469 1.495 . S
C466 C465 1.392 . S
C466 C467 1.385 . S
C466 C468 1.478 . S
C467 H461 0.930 . S
C467 C463 1.400 . S
C467 C466 1.385 . S
C468 C466 1.478 . S
C468 C470 1.381 . S
C468 C474 1.383 . S
C469 C465 1.495 . S
C469 H475 0.959 . S
C469 H476 0.961 . S
C469 H477 0.960 . S
C470 C468 1.381 . S
C470 C471 1.394 . S
C470 H478 0.930 . S
C471 C470 1.394 . S
C471 C472 1.383 . S
C471 H479 0.929 . S
C472 C471 1.383 . S
C472 C473 1.377 . S
C473 H457 0.930 . S
C473 C472 1.377 . S
C473 C474 1.379 . S
C474 H458 0.931 . S
C474 C468 1.383 . S
C474 C473 1.379 . S
H475 C469 0.959 . S
H476 C469 0.961 . S
H477 C469 0.960 . S
H478 C470 0.930 . S
H479 C471 0.929 . S
H480 C488 0.929 . S
H481 C490 0.930 . S
H482 C492 0.930 . S
H483 C495 0.929 . S
H484 C498 0.930 . S
H485 C500 0.960 . S
H486 C500 0.960 . S
H487 C500 0.958 . S
C488 H480 0.929 . S
C488 C489 1.377 . S
C488 C490 1.384 . S
C489 C488 1.377 . S
C489 C495 1.390 . S
C490 H481 0.930 . S
C490 C488 1.384 . S
C490 C491 1.372 . S
C491 C490 1.372 . S
C491 C492 1.400 . S
C491 C496 1.490 . S
C492 H482 0.930 . S
C492 C491 1.400 . S
C492 C495 1.386 . S
H493 C509 0.930 . S
H494 C510 0.931 . S
C495 H483 0.929 . S
C495 C489 1.390 . S
C495 C492 1.386 . S
C496 C491 1.490 . S
C496 C498 1.395 . S
C496 C499 1.403 . S
H497 C503 0.930 . S
C498 H484 0.930 . S
C498 C496 1.395 . S
C498 C501 1.403 . S
C499 C496 1.403 . S
C499 C500 1.524 1_554 S
C499 C503 1.400 . S
C500 H485 0.960 . S
C500 H486 0.960 . S
C500 H487 0.958 . S
C500 C499 1.524 1_556 S
C501 C498 1.403 . S
C501 C502 1.392 . S
C501 C505 1.495 . S
C502 C501 1.392 . S
C502 C503 1.385 . S
C502 C504 1.478 . S
C503 H497 0.930 . S
C503 C499 1.400 . S
C503 C502 1.385 . S
C504 C502 1.478 . S
C504 C506 1.381 . S
C504 C510 1.383 . S
C505 C501 1.495 . S
C505 H511 0.959 . S
C505 H512 0.961 . S
C505 H513 0.960 . S
C506 C504 1.381 . S
C506 C507 1.394 . S
C506 H514 0.930 . S
C507 C506 1.394 . S
C507 C508 1.383 . S
C507 H515 0.929 . S
C508 C507 1.383 . S
C508 C509 1.377 . S
C509 H493 0.930 . S
C509 C508 1.377 . S
C509 C510 1.379 . S
C510 H494 0.931 . S
C510 C504 1.383 . S
C510 C509 1.379 . S
H511 C505 0.959 . S
H512 C505 0.961 . S
H513 C505 0.960 . S
H514 C506 0.930 . S
H515 C507 0.929 . S
H516 C524 0.929 . S
H517 C526 0.930 . S
H518 C528 0.930 . S
H519 C531 0.929 . S
H520 C534 0.930 . S
H521 C536 0.960 . S
H522 C536 0.960 . S
H523 C536 0.960 . S
C524 H516 0.929 . S
C524 C525 1.377 . S
C524 C526 1.384 . S
C525 C524 1.377 . S
C525 C531 1.390 . S
C526 H517 0.930 . S
C526 C524 1.384 . S
C526 C527 1.372 . S
C527 C526 1.372 . S
C527 C528 1.400 . S
C527 C532 1.490 . S
C528 H518 0.930 . S
C528 C527 1.400 . S
C528 C531 1.386 . S
H529 C545 0.930 . S
H530 C546 0.931 . S
C531 H519 0.929 . S
C531 C525 1.390 . S
C531 C528 1.386 . S
C532 C527 1.490 . S
C532 C534 1.395 . S
C532 C535 1.403 . S
H533 C539 0.930 . S
C534 H520 0.930 . S
C534 C532 1.395 . S
C534 C537 1.403 . S
C535 C532 1.403 . S
C535 C536 1.524 . S
C535 C539 1.400 . S
C536 H521 0.960 . S
C536 H522 0.960 . S
C536 H523 0.960 . S
C536 C535 1.524 . S
C537 C534 1.403 . S
C537 C538 1.392 . S
C537 C541 1.495 . S
C538 C537 1.392 . S
C538 C539 1.385 . S
C538 C540 1.478 . S
C539 H533 0.930 . S
C539 C535 1.400 . S
C539 C538 1.385 . S
C540 C538 1.478 . S
C540 C542 1.381 . S
C540 C546 1.383 . S
C541 C537 1.495 . S
C541 H547 0.959 . S
C541 H548 0.961 . S
C541 H549 0.960 . S
C542 C540 1.381 . S
C542 C543 1.394 . S
C542 H550 0.930 . S
C543 C542 1.394 . S
C543 C544 1.383 . S
C543 H551 0.929 . S
C544 C543 1.383 . S
C544 C545 1.377 . S
C545 H529 0.930 . S
C545 C544 1.377 . S
C545 C546 1.379 . S
C546 H530 0.931 . S
C546 C540 1.383 . S
C546 C545 1.379 . S
H547 C541 0.959 . S
H548 C541 0.961 . S
H549 C541 0.960 . S
H550 C542 0.930 . S
H551 C543 0.929 . S
H552 C560 0.929 1_556 S
H553 C562 0.914 1_556 S
H554 C564 0.930 . S
H555 C567 0.929 . S
H556 C570 0.932 . S
H557 C572 0.960 . S
H558 C572 0.960 . S
H559 C572 0.960 1_554 S
C560 H552 0.929 1_554 S
C560 C561 1.377 . S
C560 C562 1.384 . S
C561 C560 1.377 . S
C561 C567 1.390 . S
C562 H553 0.914 1_554 S
C562 C560 1.384 . S
C562 C563 1.372 . S
C563 C562 1.372 . S
C563 C564 1.400 . S
C563 C568 1.490 . S
C564 H554 0.930 . S
C564 C563 1.400 . S
C564 C567 1.386 . S
H565 C581 0.930 . S
H566 C582 0.931 . S
C567 H555 0.929 . S
C567 C561 1.390 . S
C567 C564 1.386 . S
C568 C563 1.490 . S
C568 C570 1.395 1_455 S
C568 C571 1.403 . S
H569 C575 0.930 . S
C570 H556 0.932 . S
C570 C568 1.395 1_655 S
C570 C573 1.403 . S
C571 C568 1.403 . S
C571 C572 1.524 1_554 S
C571 C575 1.400 1_455 S
C572 H557 0.960 . S
C572 H558 0.960 . S
C572 H559 0.960 1_556 S
C572 C571 1.524 1_556 S
C573 C570 1.403 . S
C573 C574 1.392 . S
C573 C577 1.495 . S
C574 C573 1.392 . S
C574 C575 1.385 . S
C574 C576 1.478 . S
C575 H569 0.930 . S
C575 C571 1.400 1_655 S
C575 C574 1.385 . S
C576 C574 1.478 . S
C576 C578 1.381 . S
C576 C582 1.383 . S
C577 C573 1.495 . S
C577 H583 0.959 . S
C577 H584 0.961 . S
C577 H585 0.960 . S
C578 C576 1.381 . S
C578 C579 1.394 . S
C578 H586 0.930 1_554 S
C579 C578 1.394 . S
C579 C580 1.383 . S
C579 H587 0.929 1_554 S
C580 C579 1.383 . S
C580 C581 1.377 . S
C581 H565 0.930 . S
C581 C580 1.377 . S
C581 C582 1.379 . S
C582 H566 0.931 . S
C582 C576 1.383 . S
C582 C581 1.379 . S
H583 C577 0.959 . S
H584 C577 0.961 . S
H585 C577 0.960 . S
H586 C578 0.930 1_556 S
H587 C579 0.929 1_556 S
H588 C596 0.929 . S
H589 C598 0.930 . S
H590 C600 0.930 . S
H591 C603 0.929 . S
H592 C606 0.930 . S
H593 C608 0.960 . S
H594 C608 0.960 1_565 S
H595 C608 0.960 . S
C596 H588 0.929 . S
C596 C597 1.377 . S
C596 C598 1.384 . S
C597 C596 1.377 . S
C597 C603 1.390 . S
C598 H589 0.930 . S
C598 C596 1.384 . S
C598 C599 1.372 . S
C599 C598 1.372 . S
C599 C600 1.400 . S
C599 C604 1.490 . S
C600 H590 0.930 . S
C600 C599 1.400 . S
C600 C603 1.386 . S
H601 C617 0.930 . S
H602 C618 0.931 . S
C603 H591 0.929 . S
C603 C597 1.390 . S
C603 C600 1.386 . S
C604 C599 1.490 . S
C604 C606 1.395 . S
C604 C607 1.403 1_565 S
H605 C611 0.930 . S
C606 H592 0.930 . S
C606 C604 1.395 . S
C606 C609 1.403 . S
C607 C604 1.403 1_545 S
C607 C608 1.524 . S
C607 C611 1.400 . S
C608 H593 0.960 . S
C608 H594 0.960 1_545 S
C608 H595 0.960 . S
C608 C607 1.524 . S
C609 C606 1.403 . S
C609 C610 1.392 1_565 S
C609 C613 1.495 . S
C610 C609 1.392 1_545 S
C610 C611 1.385 . S
C610 C612 1.478 . S
C611 H605 0.930 . S
C611 C607 1.400 . S
C611 C610 1.385 . S
C612 C610 1.478 . S
C612 C614 1.381 . S
C612 C618 1.383 . S
C613 C609 1.495 . S
C613 H619 0.959 . S
C613 H620 0.961 1_565 S
C613 H621 0.960 . S
C614 C612 1.381 . S
C614 C615 1.394 . S
C614 H622 0.930 . S
C615 C614 1.394 . S
C615 C616 1.383 . S
C615 H623 0.929 . S
C616 C615 1.383 . S
C616 C617 1.377 . S
C617 H601 0.930 . S
C617 C616 1.377 . S
C617 C618 1.379 . S
C618 H602 0.931 . S
C618 C612 1.383 . S
C618 C617 1.379 . S
H619 C613 0.959 . S
H620 C613 0.961 1_545 S
H621 C613 0.960 . S
H622 C614 0.930 . S
H623 C615 0.929 . S
H624 C632 0.929 . S
H625 C634 0.930 . S
H626 C636 0.930 . S
H627 C639 0.929 . S
H628 C642 0.930 . S
H629 C644 0.960 . S
H630 C644 0.960 . S
H631 C644 0.960 . S
C632 H624 0.929 . S
C632 C633 1.377 . S
C632 C634 1.384 . S
C633 C632 1.377 . S
C633 C639 1.390 . S
C634 H625 0.930 . S
C634 C632 1.384 . S
C634 C635 1.372 . S
C635 C634 1.372 . S
C635 C636 1.400 . S
C635 C640 1.490 . S
C636 H626 0.930 . S
C636 C635 1.400 . S
C636 C639 1.386 . S
H637 C653 0.930 . S
H638 C654 0.931 . S
C639 H627 0.929 . S
C639 C633 1.390 . S
C639 C636 1.386 . S
C640 C635 1.490 . S
C640 C642 1.395 . S
C640 C643 1.403 1_565 S
H641 C647 0.930 . S
C642 H628 0.930 . S
C642 C640 1.395 . S
C642 C645 1.403 . S
C643 C640 1.403 1_545 S
C643 C644 1.524 . S
C643 C647 1.400 . S
C644 H629 0.960 . S
C644 H630 0.960 . S
C644 H631 0.960 . S
C644 C643 1.524 . S
C645 C642 1.403 . S
C645 C646 1.392 1_565 S
C645 C649 1.495 . S
C646 C645 1.392 1_545 S
C646 C647 1.385 . S
C646 C648 1.478 . S
C647 H641 0.930 . S
C647 C643 1.400 . S
C647 C646 1.385 . S
C648 C646 1.478 . S
C648 C650 1.381 . S
C648 C654 1.383 . S
C649 C645 1.495 . S
C649 H655 0.959 1_554 S
C649 H656 0.961 1_554 S
C649 H657 0.960 . S
C650 C648 1.381 . S
C650 C651 1.394 . S
C650 H658 0.930 . S
C651 C650 1.394 . S
C651 C652 1.383 . S
C651 H659 0.929 . S
C652 C651 1.383 . S
C652 C653 1.377 . S
C653 H637 0.930 . S
C653 C652 1.377 . S
C653 C654 1.379 . S
C654 H638 0.931 . S
C654 C648 1.383 . S
C654 C653 1.379 . S
H655 C649 0.959 1_556 S
H656 C649 0.961 1_556 S
H657 C649 0.960 . S
H658 C650 0.930 . S
H659 C651 0.929 . S
H660 C668 0.929 . S
H661 C670 0.930 . S
H662 C672 0.930 . S
H663 C675 0.929 . S
H664 C678 0.930 . S
H665 C680 0.960 . S
H666 C680 0.960 . S
H667 C680 0.960 . S
C668 H660 0.929 . S
C668 C669 1.377 . S
C668 C670 1.384 . S
C669 C668 1.377 . S
C669 C675 1.390 . S
C670 H661 0.930 . S
C670 C668 1.384 . S
C670 C671 1.372 . S
C671 C670 1.372 . S
C671 C672 1.400 . S
C671 C676 1.490 . S
C672 H662 0.930 . S
C672 C671 1.400 . S
C672 C675 1.386 . S
H673 C689 0.930 . S
H674 C690 0.931 . S
C675 H663 0.929 . S
C675 C669 1.390 . S
C675 C672 1.386 . S
C676 C671 1.490 . S
C676 C678 1.395 . S
C676 C679 1.403 1_655 S
H677 C683 0.930 . S
C678 H664 0.930 . S
C678 C676 1.395 . S
C678 C681 1.403 . S
C679 C676 1.403 1_455 S
C679 C680 1.524 . S
C679 C683 1.400 . S
C680 H665 0.960 . S
C680 H666 0.960 . S
C680 H667 0.960 . S
C680 C679 1.524 . S
C681 C678 1.403 . S
C681 C682 1.392 1_655 S
C681 C685 1.495 . S
C682 C681 1.392 1_455 S
C682 C683 1.385 . S
C682 C684 1.478 . S
C683 H677 0.930 . S
C683 C679 1.400 . S
C683 C682 1.385 . S
C684 C682 1.478 . S
C684 C686 1.381 . S
C684 C690 1.383 . S
C685 C681 1.495 . S
C685 H691 0.959 . S
C685 H692 0.961 . S
C685 H693 0.960 . S
C686 C684 1.381 . S
C686 C687 1.394 . S
C686 H694 0.930 . S
C687 C686 1.394 . S
C687 C688 1.383 . S
C687 H695 0.929 . S
C688 C687 1.383 . S
C688 C689 1.377 . S
C689 H673 0.930 . S
C689 C688 1.377 . S
C689 C690 1.379 . S
C690 H674 0.931 . S
C690 C684 1.383 . S
C690 C689 1.379 . S
H691 C685 0.959 . S
H692 C685 0.961 . S
H693 C685 0.960 . S
H694 C686 0.930 . S
H695 C687 0.929 . S
H696 C704 0.929 . S
H697 C706 0.930 . S
H698 C708 0.930 . S
H699 C711 0.929 . S
H700 C714 0.930 . S
H701 C716 0.960 . S
H702 C716 0.960 . S
H703 C716 0.960 . S
C704 H696 0.929 . S
C704 C705 1.377 . S
C704 C706 1.384 . S
C705 C704 1.377 . S
C705 C711 1.390 . S
C706 H697 0.930 . S
C706 C704 1.384 . S
C706 C707 1.372 . S
C707 C706 1.372 . S
C707 C708 1.400 . S
C707 C712 1.490 . S
C708 H698 0.930 . S
C708 C707 1.400 . S
C708 C711 1.386 . S
H709 C725 0.930 . S
H710 C726 0.931 . S
C711 H699 0.929 . S
C711 C705 1.390 . S
C711 C708 1.386 . S
C712 C707 1.490 . S
C712 C714 1.395 . S
C712 C715 1.403 . S
H713 C719 0.930 . S
C714 H700 0.930 . S
C714 C712 1.395 . S
C714 C717 1.403 . S
C715 C712 1.403 . S
C715 C716 1.524 . S
C715 C719 1.400 . S
C716 H701 0.960 . S
C716 H702 0.960 . S
C716 H703 0.960 . S
C716 C715 1.524 . S
C717 C714 1.403 . S
C717 C718 1.392 . S
C717 C721 1.495 . S
C718 C717 1.392 . S
C718 C719 1.385 . S
C718 C720 1.478 . S
C719 H713 0.930 . S
C719 C715 1.400 . S
C719 C718 1.385 . S
C720 C718 1.478 . S
C720 C722 1.381 . S
C720 C726 1.383 . S
C721 C717 1.495 . S
C721 H727 0.959 . S
C721 H728 0.961 . S
C721 H729 0.960 . S
C722 C720 1.381 . S
C722 C723 1.394 . S
C722 H730 0.930 . S
C723 C722 1.394 . S
C723 C724 1.383 . S
C723 H731 0.929 . S
C724 C723 1.383 . S
C724 C725 1.377 . S
C725 H709 0.930 . S
C725 C724 1.377 . S
C725 C726 1.379 . S
C726 H710 0.931 . S
C726 C720 1.383 . S
C726 C725 1.379 . S
H727 C721 0.959 . S
H728 C721 0.961 . S
H729 C721 0.960 . S
H730 C722 0.930 . S
H731 C723 0.929 . S
H732 C740 0.929 . S
H733 C742 0.930 . S
H734 C744 0.930 . S
H735 C747 0.929 . S
H736 C750 0.930 . S
H737 C752 0.960 . S
H738 C752 0.960 . S
H739 C752 0.960 . S
C740 H732 0.929 . S
C740 C741 1.377 . S
C740 C742 1.384 . S
C741 C740 1.377 . S
C741 C747 1.390 . S
C742 H733 0.930 . S
C742 C740 1.384 . S
C742 C743 1.372 . S
C743 C742 1.372 . S
C743 C744 1.400 . S
C743 C748 1.490 . S
C744 H734 0.930 . S
C744 C743 1.400 . S
C744 C747 1.386 . S
H745 C761 0.930 . S
H746 C762 0.931 . S
C747 H735 0.929 . S
C747 C741 1.390 . S
C747 C744 1.386 . S
C748 C743 1.490 . S
C748 C750 1.395 . S
C748 C751 1.403 . S
H749 C755 0.930 . S
C750 H736 0.930 . S
C750 C748 1.395 . S
C750 C753 1.403 . S
C751 C748 1.403 . S
C751 C752 1.524 . S
C751 C755 1.400 . S
C752 H737 0.960 . S
C752 H738 0.960 . S
C752 H739 0.960 . S
C752 C751 1.524 . S
C753 C750 1.403 . S
C753 C754 1.392 . S
C753 C757 1.495 . S
C754 C753 1.392 . S
C754 C755 1.385 . S
C754 C756 1.478 . S
C755 H749 0.930 . S
C755 C751 1.400 . S
C755 C754 1.385 . S
C756 C754 1.478 . S
C756 C758 1.381 . S
C756 C762 1.383 . S
C757 C753 1.495 . S
C757 H763 0.959 . S
C757 H764 0.961 . S
C757 H765 0.960 . S
C758 C756 1.381 . S
C758 C759 1.394 . S
C758 H766 0.930 . S
C759 C758 1.394 . S
C759 C760 1.383 . S
C759 H767 0.929 . S
C760 C759 1.383 . S
C760 C761 1.377 . S
C761 H745 0.930 . S
C761 C760 1.377 . S
C761 C762 1.379 . S
C762 H746 0.931 . S
C762 C756 1.383 . S
C762 C761 1.379 . S
H763 C757 0.959 . S
H764 C757 0.961 . S
H765 C757 0.960 . S
H766 C758 0.930 . S
H767 C759 0.929 . S
H768 C776 0.929 . S
H769 C778 0.930 . S
H770 C780 0.930 . S
H771 C783 0.929 . S
H772 C786 0.930 . S
H773 C788 0.960 . S
H774 C788 0.960 . S
H775 C788 0.960 . S
C776 H768 0.929 . S
C776 C777 1.377 . S
C776 C778 1.384 . S
C777 C776 1.377 . S
C777 C783 1.390 . S
C778 H769 0.930 . S
C778 C776 1.384 . S
C778 C779 1.372 . S
C779 C778 1.372 . S
C779 C780 1.400 . S
C779 C784 1.490 . S
C780 H770 0.930 . S
C780 C779 1.400 . S
C780 C783 1.386 . S
H781 C797 0.930 . S
H782 C798 0.931 . S
C783 H771 0.929 . S
C783 C777 1.390 . S
C783 C780 1.386 . S
C784 C779 1.490 . S
C784 C786 1.395 . S
C784 C787 1.403 . S
H785 C791 0.930 . S
C786 H772 0.930 . S
C786 C784 1.395 . S
C786 C789 1.403 . S
C787 C784 1.403 . S
C787 C788 1.524 . S
C787 C791 1.400 . S
C788 H773 0.960 . S
C788 H774 0.960 . S
C788 H775 0.960 . S
C788 C787 1.524 . S
C789 C786 1.403 . S
C789 C790 1.392 . S
C789 C793 1.495 . S
C790 C789 1.392 . S
C790 C791 1.385 . S
C790 C792 1.478 . S
C791 H785 0.930 . S
C791 C787 1.400 . S
C791 C790 1.385 . S
C792 C790 1.478 . S
C792 C794 1.381 . S
C792 C798 1.383 . S
C793 C789 1.495 . S
C793 H799 0.959 . S
C793 H800 0.961 . S
C793 H801 0.960 . S
C794 C792 1.381 . S
C794 C795 1.394 . S
C794 H802 0.930 . S
C795 C794 1.394 . S
C795 C796 1.383 . S
C795 H803 0.929 . S
C796 C795 1.383 . S
C796 C797 1.377 . S
C797 H781 0.930 . S
C797 C796 1.377 . S
C797 C798 1.379 . S
C798 H782 0.931 . S
C798 C792 1.383 . S
C798 C797 1.379 . S
H799 C793 0.959 . S
H800 C793 0.961 . S
H801 C793 0.960 . S
H802 C794 0.930 . S
H803 C795 0.929 . S
H804 C812 0.929 . S
H805 C814 0.930 . S
H806 C816 0.930 . S
H807 C819 0.929 . S
H808 C822 0.930 . S
H809 C824 0.960 . S
H810 C824 0.960 . S
H811 C824 0.960 . S
C812 H804 0.929 . S
C812 C813 1.377 . S
C812 C814 1.384 . S
C813 C812 1.377 . S
C813 C819 1.390 . S
C814 H805 0.930 . S
C814 C812 1.384 . S
C814 C815 1.372 . S
C815 C814 1.372 . S
C815 C816 1.400 . S
C815 C820 1.490 . S
C816 H806 0.930 . S
C816 C815 1.400 . S
C816 C819 1.386 . S
H817 C833 0.930 . S
H818 C834 0.931 . S
C819 H807 0.929 . S
C819 C813 1.390 . S
C819 C816 1.386 . S
C820 C815 1.490 . S
C820 C822 1.395 . S
C820 C823 1.403 . S
H821 C827 0.930 . S
C822 H808 0.930 . S
C822 C820 1.395 . S
C822 C825 1.403 . S
C823 C820 1.403 . S
C823 C824 1.524 . S
C823 C827 1.400 . S
C824 H809 0.960 . S
C824 H810 0.960 . S
C824 H811 0.960 . S
C824 C823 1.524 . S
C825 C822 1.403 . S
C825 C826 1.392 . S
C825 C829 1.495 . S
C826 C825 1.392 . S
C826 C827 1.385 . S
C826 C828 1.478 . S
C827 H821 0.930 . S
C827 C823 1.400 . S
C827 C826 1.385 . S
C828 C826 1.478 . S
C828 C830 1.381 . S
C828 C834 1.383 . S
C829 C825 1.495 . S
C829 H835 0.959 . S
C829 H836 0.961 . S
C829 H837 0.960 . S
C830 C828 1.381 . S
C830 C831 1.394 . S
C830 H838 0.930 . S
C831 C830 1.394 . S
C831 C832 1.383 . S
C831 H839 0.929 . S
C832 C831 1.383 . S
C832 C833 1.377 . S
C833 H817 0.930 . S
C833 C832 1.377 . S
C833 C834 1.379 . S
C834 H818 0.931 . S
C834 C828 1.383 . S
C834 C833 1.379 . S
H835 C829 0.959 . S
H836 C829 0.961 . S
H837 C829 0.960 . S
H838 C830 0.930 . S
H839 C831 0.929 . S
H840 C848 0.929 . S
H841 C850 0.930 . S
H842 C852 0.930 . S
H843 C855 0.929 . S
H844 C858 0.930 . S
H845 C860 0.960 . S
H846 C860 0.960 . S
H847 C860 0.960 . S
C848 H840 0.929 . S
C848 C849 1.377 . S
C848 C850 1.384 . S
C849 C848 1.377 . S
C849 C855 1.390 . S
C850 H841 0.930 . S
C850 C848 1.384 . S
C850 C851 1.372 . S
C851 C850 1.372 . S
C851 C852 1.400 . S
C851 C856 1.490 . S
C852 H842 0.930 . S
C852 C851 1.400 . S
C852 C855 1.386 . S
H853 C869 0.930 . S
H854 C870 0.931 . S
C855 H843 0.929 . S
C855 C849 1.390 . S
C855 C852 1.386 . S
C856 C851 1.490 . S
C856 C858 1.395 . S
C856 C859 1.403 . S
H857 C863 0.930 . S
C858 H844 0.930 . S
C858 C856 1.395 . S
C858 C861 1.403 . S
C859 C856 1.403 . S
C859 C860 1.524 . S
C859 C863 1.400 . S
C860 H845 0.960 . S
C860 H846 0.960 . S
C860 H847 0.960 . S
C860 C859 1.524 . S
C861 C858 1.403 . S
C861 C862 1.392 . S
C861 C865 1.495 . S
C862 C861 1.392 . S
C862 C863 1.385 . S
C862 C864 1.478 . S
C863 H857 0.930 . S
C863 C859 1.400 . S
C863 C862 1.385 . S
C864 C862 1.478 . S
C864 C866 1.381 . S
C864 C870 1.383 . S
C865 C861 1.495 . S
C865 H871 0.959 . S
C865 H872 0.961 . S
C865 H873 0.960 . S
C866 C864 1.381 . S
C866 C867 1.394 . S
C866 H874 0.930 . S
C867 C866 1.394 . S
C867 C868 1.383 . S
C867 H875 0.929 . S
C868 C867 1.383 . S
C868 C869 1.377 . S
C869 H853 0.930 . S
C869 C868 1.377 . S
C869 C870 1.379 . S
C870 H854 0.931 . S
C870 C864 1.383 . S
C870 C869 1.379 . S
H871 C865 0.959 . S
H872 C865 0.961 . S
H873 C865 0.960 . S
H874 C866 0.930 . S
H875 C867 0.929 . S
H876 C884 0.929 . S
H877 C886 0.930 . S
H878 C888 0.930 . S
H879 C891 0.929 . S
H880 C894 0.930 . S
H881 C896 0.960 . S
H882 C896 0.960 . S
H883 C896 0.960 . S
C884 H876 0.929 . S
C884 C885 1.377 . S
C884 C886 1.384 . S
C885 C884 1.377 . S
C885 C891 1.390 . S
C886 H877 0.930 . S
C886 C884 1.384 . S
C886 C887 1.372 . S
C887 C886 1.372 . S
C887 C888 1.400 . S
C887 C892 1.490 . S
C888 H878 0.930 . S
C888 C887 1.400 . S
C888 C891 1.386 . S
H889 C905 0.930 . S
H890 C906 0.931 . S
C891 H879 0.929 . S
C891 C885 1.390 . S
C891 C888 1.386 . S
C892 C887 1.490 . S
C892 C894 1.395 . S
C892 C895 1.403 . S
H893 C899 0.930 . S
C894 H880 0.930 . S
C894 C892 1.395 . S
C894 C897 1.403 . S
C895 C892 1.403 . S
C895 C896 1.524 . S
C895 C899 1.400 . S
C896 H881 0.960 . S
C896 H882 0.960 . S
C896 H883 0.960 . S
C896 C895 1.524 . S
C897 C894 1.403 . S
C897 C898 1.392 . S
C897 C901 1.495 . S
C898 C897 1.392 . S
C898 C899 1.385 . S
C898 C900 1.478 . S
C899 H893 0.930 . S
C899 C895 1.400 . S
C899 C898 1.385 . S
C900 C898 1.478 . S
C900 C902 1.381 . S
C900 C906 1.383 . S
C901 C897 1.495 . S
C901 H907 0.959 . S
C901 H908 0.961 . S
C901 H909 0.960 . S
C902 C900 1.381 . S
C902 C903 1.394 . S
C902 H910 0.930 . S
C903 C902 1.394 . S
C903 C904 1.383 . S
C903 H911 0.929 . S
C904 C903 1.383 . S
C904 C905 1.377 . S
C905 H889 0.930 . S
C905 C904 1.377 . S
C905 C906 1.379 . S
C906 H890 0.931 . S
C906 C900 1.383 . S
C906 C905 1.379 . S
H907 C901 0.959 . S
H908 C901 0.961 . S
H909 C901 0.960 . S
H910 C902 0.930 . S
H911 C903 0.929 . S
H912 C920 0.929 . S
H913 C922 0.930 . S
H914 C924 0.930 . S
H915 C927 0.929 . S
H916 C930 0.930 . S
H917 C932 0.960 . S
H918 C932 0.960 . S
H919 C932 0.960 . S
C920 H912 0.929 . S
C920 C921 1.377 . S
C920 C922 1.384 . S
C921 C920 1.377 . S
C921 C927 1.390 . S
C922 H913 0.930 . S
C922 C920 1.384 . S
C922 C923 1.372 . S
C923 C922 1.372 . S
C923 C924 1.400 . S
C923 C928 1.490 . S
C924 H914 0.930 . S
C924 C923 1.400 . S
C924 C927 1.386 . S
H925 C941 0.930 . S
H926 C942 0.931 . S
C927 H915 0.929 . S
C927 C921 1.390 . S
C927 C924 1.386 . S
C928 C923 1.490 . S
C928 C930 1.395 . S
C928 C931 1.403 . S
H929 C935 0.930 . S
C930 H916 0.930 . S
C930 C928 1.395 . S
C930 C933 1.403 . S
C931 C928 1.403 . S
C931 C932 1.524 . S
C931 C935 1.400 . S
C932 H917 0.960 . S
C932 H918 0.960 . S
C932 H919 0.960 . S
C932 C931 1.524 . S
C933 C930 1.403 . S
C933 C934 1.392 . S
C933 C937 1.495 . S
C934 C933 1.392 . S
C934 C935 1.385 . S
C934 C936 1.478 . S
C935 H929 0.930 . S
C935 C931 1.400 . S
C935 C934 1.385 . S
C936 C934 1.478 . S
C936 C938 1.381 . S
C936 C942 1.383 . S
C937 C933 1.495 . S
C937 H943 0.959 . S
C937 H944 0.961 . S
C937 H945 0.960 . S
C938 C936 1.381 . S
C938 C939 1.394 . S
C938 H946 0.930 . S
C939 C938 1.394 . S
C939 C940 1.383 . S
C939 H947 0.929 . S
C940 C939 1.383 . S
C940 C941 1.377 . S
C941 H925 0.930 . S
C941 C940 1.377 . S
C941 C942 1.379 . S
C942 H926 0.931 . S
C942 C936 1.383 . S
C942 C941 1.379 . S
H943 C937 0.959 . S
H944 C937 0.961 . S
H945 C937 0.960 . S
H946 C938 0.930 . S
H947 C939 0.929 . S
H948 C956 0.929 . S
H949 C958 0.930 . S
H950 C960 0.930 . S
H951 C963 0.929 . S
H952 C966 0.930 . S
H953 C968 0.960 . S
H954 C968 0.960 . S
H955 C968 0.960 . S
C956 H948 0.929 . S
C956 C957 1.377 . S
C956 C958 1.384 . S
C957 C956 1.377 . S
C957 C963 1.390 . S
C958 H949 0.930 . S
C958 C956 1.384 . S
C958 C959 1.372 . S
C959 C958 1.372 . S
C959 C960 1.400 . S
C959 C964 1.490 . S
C960 H950 0.930 . S
C960 C959 1.400 . S
C960 C963 1.386 . S
H961 C977 0.930 . S
H962 C978 0.931 . S
C963 H951 0.929 . S
C963 C957 1.390 . S
C963 C960 1.386 . S
C964 C959 1.490 . S
C964 C966 1.395 . S
C964 C967 1.403 . S
H965 C971 0.930 . S
C966 H952 0.930 . S
C966 C964 1.395 . S
C966 C969 1.403 . S
C967 C964 1.403 . S
C967 C968 1.524 . S
C967 C971 1.400 . S
C968 H953 0.960 . S
C968 H954 0.960 . S
C968 H955 0.960 . S
C968 C967 1.524 . S
C969 C966 1.403 . S
C969 C970 1.392 . S
C969 C973 1.495 . S
C970 C969 1.392 . S
C970 C971 1.385 . S
C970 C972 1.478 . S
C971 H965 0.930 . S
C971 C967 1.400 . S
C971 C970 1.385 . S
C972 C970 1.478 . S
C972 C974 1.381 . S
C972 C978 1.383 . S
C973 C969 1.495 . S
C973 H979 0.959 . S
C973 H980 0.961 . S
C973 H981 0.960 . S
C974 C972 1.381 . S
C974 C975 1.394 . S
C974 H982 0.930 . S
C975 C974 1.394 . S
C975 C976 1.383 . S
C975 H983 0.929 . S
C976 C975 1.383 . S
C976 C977 1.377 . S
C977 H961 0.930 . S
C977 C976 1.377 . S
C977 C978 1.379 . S
C978 H962 0.931 . S
C978 C972 1.383 . S
C978 C977 1.379 . S
H979 C973 0.959 . S
H980 C973 0.961 . S
H981 C973 0.960 . S
H982 C974 0.930 . S
H983 C975 0.929 . S
C273 C219 1.492 . S
C292 C18 1.521 . S
C309 C252 1.490 . S
C328 C51 1.529 . S
C345 C153 1.493 . S
C364 C84 1.529 . S
C381 C186 1.485 . S
C400 C117 1.524 . S
C417 C87 1.483 . S
C436 C150 1.517 . S
C453 C120 1.492 . S
C472 C183 1.526 . S
C489 C21 1.487 . S
C508 C216 1.525 . S
C525 C249 1.525 . S
C544 C54 1.508 . S
C561 C7 1.172 . S
C580 C73 1.160 . S
C597 C106 1.173 . S
C616 C40 1.206 . S
C633 C205 1.174 . S
C652 C139 1.165 . S
C669 C172 1.166 . S
C688 C238 1.153 . S
C705 N13 1.873 . S
C724 N244 1.895 . S
C741 N145 1.877 . S
C760 N46 1.883 . S
C777 N178 1.877 . S
C796 N79 1.875 . S
C813 N211 1.876 . S
C832 N112 1.879 . S
C849 N68 1.407 . S
C868 N167 1.367 . S
C885 N101 1.407 . S
C904 N200 1.372 . S
C921 N233 1.408 . S
C940 N2 1.367 . S
C957 N134 1.404 . S
C976 N35 1.386 . S
