# Generated by pormake.
# Topology ukf, (4)-cn, num edge types: 1
# Building blocks:
#     Node 0, Type 0, BuildingBlock: NAHDIM_clean_sbu_0, # of connection points: 4
#     Node 1, Type 0, BuildingBlock: NAHDIM_clean_sbu_0, # of connection points: 4
#     Node 2, Type 0, BuildingBlock: NAHDIM_clean_sbu_0, # of connection points: 4
#     Node 3, Type 0, BuildingBlock: NAHDIM_clean_sbu_0, # of connection points: 4
#     Node 4, Type 0, BuildingBlock: NAHDIM_clean_sbu_0, # of connection points: 4
#     Node 5, Type 0, BuildingBlock: NAHDIM_clean_sbu_0, # of connection points: 4
#     Node 6, Type 0, BuildingBlock: NAHDIM_clean_sbu_0, # of connection points: 4
#     Node 7, Type 0, BuildingBlock: NAHDIM_clean_sbu_0, # of connection points: 4
#     Node 8, Type 0, BuildingBlock: NAHDIM_clean_sbu_0, # of connection points: 4
#     Node 9, Type 0, BuildingBlock: NAHDIM_clean_sbu_0, # of connection points: 4
#     Node 10, Type 0, BuildingBlock: NAHDIM_clean_sbu_0, # of connection points: 4
#     Node 11, Type 0, BuildingBlock: NAHDIM_clean_sbu_0, # of connection points: 4
#     Edge 12, Type (0, 0), BuildingBlock: UVAHIK_clean_linker_0, # of connection points: 2
#     Edge 13, Type (0, 0), BuildingBlock: UVAHIK_clean_linker_0, # of connection points: 2
#     Edge 14, Type (0, 0), BuildingBlock: UVAHIK_clean_linker_0, # of connection points: 2
#     Edge 15, Type (0, 0), BuildingBlock: UVAHIK_clean_linker_0, # of connection points: 2
#     Edge 16, Type (0, 0), BuildingBlock: UVAHIK_clean_linker_0, # of connection points: 2
#     Edge 17, Type (0, 0), BuildingBlock: UVAHIK_clean_linker_0, # of connection points: 2
#     Edge 18, Type (0, 0), BuildingBlock: UVAHIK_clean_linker_0, # of connection points: 2
#     Edge 19, Type (0, 0), BuildingBlock: UVAHIK_clean_linker_0, # of connection points: 2
#     Edge 20, Type (0, 0), BuildingBlock: UVAHIK_clean_linker_0, # of connection points: 2
#     Edge 21, Type (0, 0), BuildingBlock: UVAHIK_clean_linker_0, # of connection points: 2
#     Edge 22, Type (0, 0), BuildingBlock: UVAHIK_clean_linker_0, # of connection points: 2
#     Edge 23, Type (0, 0), BuildingBlock: UVAHIK_clean_linker_0, # of connection points: 2
#     Edge 24, Type (0, 0), BuildingBlock: UVAHIK_clean_linker_0, # of connection points: 2
#     Edge 25, Type (0, 0), BuildingBlock: UVAHIK_clean_linker_0, # of connection points: 2
#     Edge 26, Type (0, 0), BuildingBlock: UVAHIK_clean_linker_0, # of connection points: 2
#     Edge 27, Type (0, 0), BuildingBlock: UVAHIK_clean_linker_0, # of connection points: 2
#     Edge 28, Type (0, 0), BuildingBlock: UVAHIK_clean_linker_0, # of connection points: 2
#     Edge 29, Type (0, 0), BuildingBlock: UVAHIK_clean_linker_0, # of connection points: 2
#     Edge 30, Type (0, 0), BuildingBlock: UVAHIK_clean_linker_0, # of connection points: 2
#     Edge 31, Type (0, 0), BuildingBlock: UVAHIK_clean_linker_0, # of connection points: 2
#     Edge 32, Type (0, 0), BuildingBlock: UVAHIK_clean_linker_0, # of connection points: 2
#     Edge 33, Type (0, 0), BuildingBlock: UVAHIK_clean_linker_0, # of connection points: 2
#     Edge 34, Type (0, 0), BuildingBlock: UVAHIK_clean_linker_0, # of connection points: 2
#     Edge 35, Type (0, 0), BuildingBlock: UVAHIK_clean_linker_0, # of connection points: 2
# Relax obj value: 0.169
# Max RMSD: 0.175
# Mean RMSD: 0.169
data_MOF--net-ukf--node1-NAHDIM_clean_sbu_0--edge1-UVAHIK_clean_linker_0
_symmetry_space_group_name_H-M    P1
_symmetry_Int_Tables_number       1
_symmetry_cell_setting            triclinic
loop_
_symmetry_equiv_pos_as_xyz
'x, y, z'
_cell_length_a     42.187057
_cell_length_b     41.5465
_cell_length_c     79.400088
_cell_angle_alpha  90.013553
_cell_angle_beta   89.970995
_cell_angle_gamma 120.49827
loop_
_atom_site_label
_atom_site_type_symbol
_atom_site_fract_x
_atom_site_fract_y
_atom_site_fract_z
_atom_type_partial_charge
C0 C 0.40092 0.29497 0.05518 0.0
O1 O 0.38912 0.27875 0.06989 0.0
O2 O 0.44249 0.22638 0.03547 0.0
Zn3 Zn 0.402 0.22774 0.04821 0.0
O4 O 0.40869 0.22407 0.07313 0.0
C5 C 0.34376 0.17679 0.02586 0.0
O6 O 0.36613 0.19867 0.01403 0.0
O7 O 0.4064 0.27744 0.0435 0.0
C8 C 0.39168 0.19346 0.08118 0.0
O9 O 0.36997 0.16247 0.07296 0.0
C10 C 0.45158 0.20194 0.03803 0.0
O11 O 0.43367 0.17584 0.04937 0.0
O12 O 0.35303 0.18468 0.04118 0.0
C13 C 0.08999 0.40148 0.3807 0.0
O14 O 0.08851 0.38298 0.39438 0.0
O15 O 0.20576 0.45175 0.36819 0.0
Zn16 Zn 0.16027 0.40702 0.37729 0.0
O17 O 0.16331 0.40665 0.40257 0.0
C18 C 0.16185 0.35956 0.35188 0.0
O19 O 0.16866 0.38843 0.3425 0.0
O20 O 0.11747 0.41288 0.37092 0.0
C21 C 0.17765 0.39079 0.41061 0.0
O22 O 0.19182 0.3738 0.40222 0.0
C23 C 0.23749 0.45534 0.36882 0.0
O24 O 0.24139 0.42895 0.37585 0.0
O25 O 0.15589 0.36036 0.36751 0.0
C26 C 0.82647 0.12951 0.70538 0.0
O27 O 0.82003 0.12457 0.72164 0.0
O28 O 0.77351 0.1532 0.73108 0.0
Zn29 Zn 0.767 0.1453 0.70602 0.0
O30 O 0.77184 0.19151 0.69552 0.0
C31 C 0.69606 0.08144 0.71298 0.0
O32 O 0.71135 0.08364 0.72767 0.0
O33 O 0.80609 0.13666 0.69622 0.0
C34 C 0.75349 0.20539 0.70155 0.0
O35 O 0.73227 0.18943 0.71469 0.0
C36 C 0.79835 0.18309 0.7379 0.0
O37 O 0.82193 0.21071 0.72832 0.0
O38 O 0.71548 0.10349 0.70126 0.0
C39 C 0.58402 0.69415 0.05225 0.0
O40 O 0.5974 0.71102 0.0667 0.0
O41 O 0.55169 0.76976 0.03153 0.0
Zn42 Zn 0.58967 0.76421 0.04449 0.0
O43 O 0.58436 0.7697 0.06938 0.0
C44 C 0.65207 0.80691 0.02222 0.0
O45 O 0.63216 0.78082 0.01117 0.0
O46 O 0.58037 0.7123 0.04027 0.0
C47 C 0.60309 0.80042 0.07719 0.0
O48 O 0.62589 0.83061 0.06872 0.0
C49 C 0.53587 0.78656 0.03731 0.0
O50 O 0.54449 0.80144 0.05241 0.0
O51 O 0.63985 0.80431 0.03707 0.0
C52 C 0.88426 0.58793 0.3852 0.0
O53 O 0.86839 0.5855 0.39975 0.0
O54 O 0.78977 0.56976 0.36487 0.0
Zn55 Zn 0.8352 0.6128 0.37513 0.0
O56 O 0.82651 0.61724 0.39976 0.0
C57 C 0.85822 0.69064 0.37136 0.0
O58 O 0.86588 0.69157 0.38745 0.0
O59 O 0.87598 0.60108 0.37258 0.0
C60 C 0.79514 0.60373 0.40668 0.0
O61 O 0.76532 0.5861 0.39742 0.0
C62 C 0.77897 0.53678 0.36998 0.0
O63 O 0.79716 0.53183 0.38215 0.0
O64 O 0.84632 0.66023 0.36327 0.0
C65 C 0.17282 0.87247 0.70004 0.0
O66 O 0.17554 0.87651 0.71647 0.0
O67 O 0.22147 0.84984 0.72896 0.0
Zn68 Zn 0.23225 0.85705 0.70407 0.0
O69 O 0.22758 0.81007 0.69433 0.0
C70 C 0.30477 0.91652 0.71281 0.0
O71 O 0.28942 0.91217 0.72766 0.0
O72 O 0.19558 0.86649 0.69215 0.0
C73 C 0.23692 0.78995 0.70255 0.0
O74 O 0.24949 0.7996 0.71797 0.0
C75 C 0.19467 0.82097 0.73555 0.0
O76 O 0.17138 0.79356 0.7258 0.0
O77 O 0.28495 0.89771 0.70041 0.0
C78 C 0.68985 0.59324 0.616 0.0
O79 O 0.70694 0.60887 0.60186 0.0
O80 O 0.75119 0.54071 0.63062 0.0
Zn81 Zn 0.754 0.58725 0.62122 0.0
O82 O 0.75842 0.58751 0.59588 0.0
C83 C 0.82591 0.63099 0.63459 0.0
O84 O 0.82473 0.59922 0.63187 0.0
O85 O 0.70588 0.58392 0.62685 0.0
C86 C 0.78785 0.60822 0.58774 0.0
O87 O 0.81816 0.63067 0.59599 0.0
C88 C 0.76181 0.5215 0.62249 0.0
O89 O 0.77538 0.53206 0.60727 0.0
O90 O 0.7977 0.63332 0.63117 0.0
C91 C 0.12263 0.68562 0.95119 0.0
O92 O 0.14902 0.69359 0.94027 0.0
O93 O 0.20704 0.77341 0.95792 0.0
Zn94 Zn 0.15789 0.76333 0.94929 0.0
O95 O 0.15794 0.76503 0.924 0.0
C96 C 0.14424 0.80712 0.97354 0.0
O97 O 0.14008 0.78099 0.98415 0.0
O98 O 0.1194 0.71214 0.95724 0.0
C99 C 0.17928 0.79556 0.91652 0.0
O100 O 0.201 0.82525 0.92553 0.0
C101 C 0.23003 0.76917 0.94927 0.0
O102 O 0.22231 0.75804 0.93355 0.0
O103 O 0.15013 0.80406 0.9581 0.0
C104 C 0.31564 0.14298 0.2999 0.0
O105 O 0.3095 0.12745 0.28494 0.0
O106 O 0.38603 0.16023 0.27019 0.0
Zn107 Zn 0.39007 0.15683 0.29532 0.0
O108 O 0.43493 0.20344 0.30341 0.0
C109 C 0.39038 0.08881 0.28973 0.0
O110 O 0.37466 0.08943 0.27555 0.0
O111 O 0.34678 0.15481 0.30682 0.0
C112 C 0.46688 0.21278 0.29811 0.0
O113 O 0.47064 0.1915 0.287 0.0
C114 C 0.39741 0.19096 0.26248 0.0
O115 O 0.41167 0.22218 0.27115 0.0
O116 O 0.39713 0.11356 0.30081 0.0
C117 C 0.29659 0.41121 0.61516 0.0
O118 O 0.28045 0.39905 0.60051 0.0
O119 O 0.22227 0.44392 0.63385 0.0
Zn120 Zn 0.22603 0.4014 0.62389 0.0
O121 O 0.21563 0.39785 0.59894 0.0
C122 C 0.16647 0.32478 0.6273 0.0
O123 O 0.16782 0.32542 0.61077 0.0
O124 O 0.27816 0.41301 0.62742 0.0
C125 C 0.1914 0.40269 0.59182 0.0
O126 O 0.17036 0.41062 0.60102 0.0
C127 C 0.23448 0.47459 0.62596 0.0
O128 O 0.24927 0.47827 0.611 0.0
O129 O 0.18939 0.35356 0.63553 0.0
C130 C 0.87444 0.29675 0.97206 0.0
O131 O 0.84399 0.28154 0.98097 0.0
O132 O 0.78751 0.22057 0.96151 0.0
Zn133 Zn 0.83541 0.2291 0.95204 0.0
O134 O 0.83323 0.22981 0.92681 0.0
C135 C 0.84153 0.17764 0.97426 0.0
O136 O 0.83912 0.1986 0.986 0.0
O137 O 0.8772 0.27876 0.95974 0.0
C138 C 0.80798 0.20188 0.91899 0.0
O139 O 0.78342 0.17295 0.92766 0.0
C140 C 0.77375 0.23986 0.95644 0.0
O141 O 0.79117 0.26547 0.94484 0.0
O142 O 0.84193 0.18636 0.95891 0.0
C143 C 0.68621 0.8555 0.29231 0.0
O144 O 0.67952 0.84717 0.27626 0.0
O145 O 0.61402 0.84073 0.26591 0.0
Zn146 Zn 0.61403 0.84698 0.29112 0.0
O147 O 0.57398 0.79905 0.30119 0.0
C148 C 0.60257 0.90826 0.2845 0.0
O149 O 0.61507 0.90629 0.26961 0.0
O150 O 0.66266 0.85844 0.30116 0.0
C151 C 0.54067 0.78976 0.29864 0.0
O152 O 0.53353 0.81172 0.28953 0.0
C153 C 0.59925 0.80942 0.25839 0.0
O154 O 0.58336 0.77846 0.26727 0.0
O155 O 0.6017 0.88701 0.29623 0.0
C156 C 0.15961 0.87299 0.96874 0.0
C157 C 0.14841 0.84265 0.97978 0.0
C158 C 0.16967 0.90836 0.97493 0.0
C159 C 0.20765 0.96289 0.01357 0.0
H160 H 0.20208 0.03935 0.98796 0.0
C161 C 0.28857 0.11607 0.03424 0.0
C162 C 0.31054 0.14086 0.02147 0.0
C163 C 0.26021 0.08011 0.03025 0.0
C164 C 0.20376 0.01825 0.99527 0.0
H165 H 0.13599 0.82497 0.00583 0.0
H166 H 0.15283 0.88662 0.01663 0.0
H167 H 0.16574 0.97405 0.97919 0.0
H168 H 0.3184 0.14812 0.99444 0.0
H169 H 0.26908 0.08524 0.98749 0.0
H170 H 0.24636 0.00702 0.02935 0.0
C171 C 0.15478 0.88326 0.00321 0.0
C172 C 0.183 0.98087 0.99024 0.0
C173 C 0.14493 0.84786 0.99702 0.0
C174 C 0.30211 0.12966 0.00458 0.0
C175 C 0.27366 0.09368 0.00058 0.0
C176 C 0.22817 0.00014 0.01863 0.0
C177 C 0.16853 0.9142 0.99231 0.0
C178 C 0.1855 0.95286 0.99907 0.0
C179 C 0.25312 0.06818 0.0134 0.0
C180 C 0.2272 0.02835 0.00929 0.0
H181 H 0.16247 0.86995 0.95536 0.0
H182 H 0.18042 0.93149 0.96616 0.0
H183 H 0.21084 0.94229 0.02052 0.0
H184 H 0.2941 0.12391 0.04739 0.0
H185 H 0.2445 0.06126 0.04038 0.0
C186 C 0.15736 0.29724 0.35458 0.0
C187 C 0.1662 0.32904 0.34487 0.0
C188 C 0.16613 0.27089 0.34881 0.0
C189 C 0.23682 0.26899 0.32438 0.0
H190 H 0.17603 0.16087 0.32537 0.0
C191 C 0.30036 0.17684 0.32143 0.0
C192 C 0.28988 0.15356 0.30717 0.0
C193 C 0.27988 0.19293 0.3265 0.0
C194 C 0.19314 0.19103 0.32504 0.0
H195 H 0.18918 0.35699 0.32109 0.0
H196 H 0.20503 0.31132 0.31121 0.0
H197 H 0.14872 0.19953 0.33214 0.0
H198 H 0.24787 0.12636 0.28797 0.0
H199 H 0.21162 0.15427 0.29714 0.0
H200 H 0.28137 0.26081 0.31776 0.0
C201 C 0.19132 0.30685 0.32326 0.0
C202 C 0.17764 0.21303 0.32892 0.0
C203 C 0.18217 0.33293 0.32891 0.0
C204 C 0.25679 0.14435 0.29894 0.0
C205 C 0.236 0.16019 0.30418 0.0
C206 C 0.25236 0.24713 0.32084 0.0
C207 C 0.18424 0.27615 0.33334 0.0
C208 C 0.19943 0.25222 0.32858 0.0
C209 C 0.24822 0.18568 0.3176 0.0
C210 C 0.23076 0.20802 0.32121 0.0
H211 H 0.14486 0.29336 0.36689 0.0
H212 H 0.16058 0.24752 0.35684 0.0
H213 H 0.2543 0.29913 0.32422 0.0
H214 H 0.3255 0.18432 0.32816 0.0
H215 H 0.28958 0.21227 0.337 0.0
C216 C 0.86657 0.13638 0.68079 0.0
C217 C 0.86066 0.13339 0.69829 0.0
C218 C 0.90111 0.14643 0.67422 0.0
C219 C 0.99632 0.2047 0.68579 0.0
H220 H 0.01592 0.16852 0.64435 0.0
C221 C 0.13676 0.28893 0.65366 0.0
C222 C 0.1357 0.29295 0.63614 0.0
C223 C 0.10584 0.26155 0.66224 0.0
C224 C 0.01092 0.17909 0.65589 0.0
H225 H 0.8856 0.13603 0.72254 0.0
H226 H 0.94607 0.15411 0.71101 0.0
H227 H 0.95531 0.13336 0.65751 0.0
H228 H 0.102 0.27036 0.61378 0.0
H229 H 0.04779 0.22383 0.62872 0.0
H230 H 0.05062 0.2516 0.68375 0.0
C231 C 0.92395 0.14873 0.70243 0.0
C232 C 0.97627 0.1588 0.66346 0.0
C233 C 0.88929 0.13826 0.709 0.0
C234 C 0.10372 0.26794 0.62729 0.0
C235 C 0.07262 0.24098 0.63589 0.0
C236 C 0.03071 0.22523 0.67812 0.0
C237 C 0.93046 0.15401 0.68502 0.0
C238 C 0.96843 0.17186 0.67829 0.0
C239 C 0.07294 0.23802 0.65354 0.0
C240 C 0.03823 0.21321 0.66285 0.0
H241 H 0.84499 0.13256 0.6722 0.0
H242 H 0.9054 0.15052 0.66075 0.0
H243 H 0.99089 0.21575 0.69708 0.0
H244 H 0.16122 0.30751 0.6608 0.0
H245 H 0.10746 0.25953 0.67578 0.0
C246 C 0.70362 0.87156 0.02832 0.0
C247 C 0.68544 0.84182 0.01689 0.0
C248 C 0.73132 0.90657 0.02281 0.0
C249 C 0.75764 0.96298 0.98439 0.0
H250 H 0.83644 0.03564 0.01272 0.0
C251 C 0.83713 0.1174 0.96587 0.0
C252 C 0.8382 0.14142 0.97863 0.0
C253 C 0.8283 0.08095 0.96968 0.0
C254 C 0.81464 0.01561 0.00464 0.0
H255 H 0.68419 0.82471 0.99098 0.0
H256 H 0.73308 0.88576 0.9814 0.0
H257 H 0.8034 0.96978 0.02083 0.0
H258 H 0.83347 0.14685 0.00555 0.0
H259 H 0.81773 0.08317 0.01218 0.0
H260 H 0.76793 0.00876 0.96851 0.0
C261 C 0.72526 0.8822 0.99456 0.0
C262 C 0.79568 0.97792 0.00929 0.0
C263 C 0.69736 0.84716 6e-05 0.0
C264 C 0.83268 0.12901 0.99542 0.0
C265 C 0.82389 0.09255 -0.00077 0.0
C266 C 0.77668 0.00054 0.97972 0.0
C267 C 0.74169 0.91265 0.00575 0.0
C268 C 0.76619 0.95132 -0.00053 0.0
C269 C 0.82044 0.06776 0.98634 0.0
C270 C 0.80466 0.02744 0.99003 0.0
H271 H 0.69527 0.86839 0.04141 0.0
H272 H 0.74303 0.92936 0.03178 0.0
H273 H 0.73476 0.94349 0.97665 0.0
H274 H 0.84162 0.12619 0.95282 0.0
H275 H 0.8264 0.06268 0.95951 0.0
C276 C 0.72654 0.86628 0.3174 0.0
C277 C 0.71794 0.85588 0.30043 0.0
C278 C 0.75316 0.86151 0.32564 0.0
C279 C 0.82485 0.83473 0.31871 0.0
H280 H 0.7918 0.78841 0.36253 0.0
C281 C 0.85182 0.72272 0.34603 0.0
C282 C 0.85763 0.72254 0.36344 0.0
C283 C 0.84541 0.74966 0.33893 0.0
C284 C 0.80193 0.802 0.35047 0.0
H285 H 0.73208 0.83444 0.27855 0.0
H286 H 0.77724 0.82488 0.29296 0.0
H287 H 0.76062 0.81702 0.34903 0.0
H288 H 0.86367 0.75195 0.38691 0.0
H289 H 0.8519 0.79865 0.3745 0.0
H290 H 0.8646 0.8171 0.31983 0.0
C291 C 0.7642 0.83746 0.29992 0.0
C292 C 0.78409 0.81857 0.34271 0.0
C293 C 0.73796 0.84266 0.29164 0.0
C294 C 0.85913 0.75121 0.37345 0.0
C295 C 0.85229 0.7779 0.36638 0.0
C296 C 0.84239 0.81768 0.32641 0.0
C297 C 0.77141 0.84579 0.31716 0.0
C298 C 0.79459 0.8342 0.3265 0.0
C299 C 0.84434 0.77672 0.34914 0.0
C300 C 0.83044 0.80031 0.34217 0.0
H301 H 0.71191 0.87701 0.32446 0.0
H302 H 0.75858 0.86905 0.33882 0.0
H303 H 0.83423 0.84721 0.3064 0.0
H304 H 0.85072 0.70114 0.33796 0.0
H305 H 0.83908 0.7479 0.32562 0.0
C306 C 0.86435 0.6994 0.64166 0.0
C307 C 0.86061 0.66386 0.64033 0.0
C308 C 0.89814 0.73046 0.64629 0.0
C309 C -0.00274 0.76209 0.64735 0.0
H310 H 0.00423 0.83135 0.68189 0.0
C311 C 0.10688 0.85535 0.70053 0.0
C312 C 0.13923 0.86627 0.69132 0.0
C313 C 0.07311 0.84082 0.69227 0.0
C314 C 0.00275 0.81234 0.67217 0.0
H315 H 0.88909 0.63294 0.64325 0.0
H316 H 0.94734 0.68659 0.65142 0.0
H317 H 0.94376 0.78346 0.6716 0.0
H318 H 0.16234 0.87484 0.66622 0.0
H319 H 0.10366 0.85088 0.65175 0.0
H320 H 0.05561 0.78882 0.64854 0.0
C321 C 0.92457 0.69077 0.64857 0.0
C322 C 0.96813 0.78514 0.66618 0.0
C323 C 0.89102 0.65992 0.64401 0.0
C324 C 0.13773 0.86601 0.67366 0.0
C325 C 0.10405 0.85205 0.66538 0.0
C326 C 0.0317 0.78901 0.65335 0.0
C327 C 0.92872 0.72647 0.64956 0.0
C328 C 0.96505 0.75894 0.65412 0.0
C329 C 0.07109 0.8374 0.67461 0.0
C330 C 0.03491 0.8138 0.66621 0.0
H331 H 0.84138 0.70331 0.6389 0.0
H332 H 0.90054 0.75766 0.64697 0.0
H333 H 0.99581 0.74275 0.6378 0.0
H334 H 0.10713 0.85529 0.71417 0.0
H335 H 0.0484 0.8297 0.69984 0.0
C336 C 0.72041 0.20673 0.97623 0.0
C337 C 0.73921 0.23436 0.96393 0.0
C338 C 0.68827 0.20211 0.98359 0.0
C339 C 0.63918 0.25262 0.9919 0.0
H340 H 0.55566 0.15373 0.00027 0.0
C341 C 0.50102 0.23096 0.01614 0.0
C342 C 0.48286 0.20382 0.0287 0.0
C343 C 0.53134 0.23368 0.00771 0.0
C344 C 0.57889 0.18152 0.99817 0.0
H345 H 0.7387 0.27852 0.94956 0.0
H346 H 0.68251 0.27031 0.96237 0.0
H347 H 0.6104 0.16036 0.98647 0.0
H348 H 0.48207 0.15792 0.0421 0.0
H349 H 0.53532 0.16299 0.02752 0.0
H350 H 0.60795 0.27385 0.00372 0.0
C351 C 0.69287 0.25249 0.96644 0.0
C352 C 0.61023 0.18532 0.99026 0.0
C353 C 0.72497 0.25704 0.95904 0.0
C354 C 0.4954 0.1791 0.03247 0.0
C355 C 0.52581 0.18188 0.02405 0.0
C356 C 0.60792 0.24884 -0.00016 0.0
C357 C 0.67426 0.22508 0.97885 0.0
C358 C 0.64072 0.22092 0.98704 0.0
C359 C 0.5443 0.20939 0.01165 0.0
C360 C 0.57739 0.21325 0.00308 0.0
H361 H 0.73067 0.1888 0.9803 0.0
H362 H 0.6748 0.18102 0.99325 0.0
H363 H 0.66245 0.28043 0.98986 0.0
H364 H 0.49194 0.2503 0.01284 0.0
H365 H 0.54455 0.25477 0.99803 0.0
C366 C 0.26455 0.5153 0.3527 0.0
C367 C 0.2695 0.4888 0.36148 0.0
C368 C 0.29457 0.54682 0.34566 0.0
C369 C 0.39488 0.60711 0.34897 0.0
H370 H 0.38606 0.63931 0.30426 0.0
C371 C 0.51769 0.7299 0.31464 0.0
C372 C 0.51032 0.75456 0.30568 0.0
C373 C 0.48891 0.69664 0.32123 0.0
C374 C 0.38885 0.63093 0.31683 0.0
H375 H 0.30995 0.47468 0.36978 0.0
H376 H 0.36249 0.5299 0.35746 0.0
H377 H 0.33478 0.58274 0.31619 0.0
H378 H 0.46697 0.76371 0.29668 0.0
H379 H 0.4169 0.70607 0.30837 0.0
H380 H 0.44879 0.65557 0.34971 0.0
C381 C 0.33532 0.52628 0.35612 0.0
C382 C 0.35949 0.59849 0.32365 0.0
C383 C 0.30521 0.49459 0.3631 0.0
C384 C 0.4736 0.74527 0.30346 0.0
C385 C 0.44486 0.71208 0.31007 0.0
C386 C 0.42424 0.63967 0.34217 0.0
C387 C 0.33028 0.55267 0.34729 0.0
C388 C 0.36207 0.58637 0.33984 0.0
C389 C 0.45215 0.68734 0.31902 0.0
C390 C 0.42146 0.6521 0.32607 0.0
H391 H 0.23742 0.51173 0.35123 0.0
H392 H 0.28986 0.5669 0.33913 0.0
H393 H 0.39753 0.5987 0.36156 0.0
H394 H 0.54569 0.73618 0.31651 0.0
H395 H 0.49546 0.678 0.32788 0.0
C396 C 0.7371 0.25547 0.70099 0.0
C397 C 0.75528 0.23849 0.69364 0.0
C398 C 0.7382 0.28631 0.69335 0.0
C399 C 0.75246 0.3329 0.65242 0.0
H400 H 0.76944 0.41819 0.67927 0.0
C401 C 0.77619 0.46996 0.62237 0.0
C402 C 0.76034 0.48855 0.6304 0.0
C403 C 0.77557 0.43938 0.63005 0.0
C404 C 0.76419 0.3944 0.67161 0.0
H405 H 0.78905 0.24071 0.67254 0.0
H406 H 0.79091 0.29453 0.65921 0.0
H407 H 0.76852 0.36509 0.69284 0.0
H408 H 0.7309 0.48927 0.65268 0.0
H409 H 0.72919 0.43554 0.6659 0.0
H410 H 0.74772 0.36193 0.63122 0.0
C411 C 0.77561 0.2838 0.67083 0.0
C412 C 0.76375 0.36403 0.67939 0.0
C413 C 0.77472 0.25311 0.67852 0.0
C414 C 0.74355 0.47569 0.64619 0.0
C415 C 0.74277 0.44502 0.65383 0.0
C416 C 0.75271 0.36319 0.64464 0.0
C417 C 0.75731 0.30067 0.67814 0.0
C418 C 0.75791 0.33298 0.66988 0.0
C419 C 0.75893 0.42659 0.64589 0.0
C420 C 0.75859 0.39432 0.65415 0.0
H421 H 0.72188 0.24489 0.71263 0.0
H422 H 0.72354 0.29852 0.6992 0.0
H423 H 0.74738 0.30912 0.6448 0.0
H424 H 0.7895 0.47926 0.61023 0.0
H425 H 0.78871 0.42616 0.62368 0.0
C426 C 0.27362 0.78903 0.97364 0.0
C427 C 0.26433 0.77501 0.95715 0.0
C428 C 0.30516 0.79305 0.98138 0.0
C429 C 0.36754 0.75596 0.98012 0.0
H430 H 0.43101 0.84273 0.00734 0.0
C431 C 0.49979 0.77475 0.01067 0.0
C432 C 0.50722 0.7883 0.02728 0.0
C433 C 0.47198 0.77532 0.00137 0.0
C434 C 0.41336 0.81815 -8e-05 0.0
H435 H 0.28127 0.75488 0.93573 0.0
H436 H 0.33636 0.7619 0.94928 0.0
H437 H 0.37917 0.83996 0.99237 0.0
H438 H 0.49151 0.81344 0.0471 0.0
H439 H 0.44257 0.81381 0.03099 0.0
H440 H 0.40112 0.73374 0.98789 0.0
C441 C 0.31904 0.7695 0.95624 0.0
C442 C 0.38372 0.81662 0.99132 0.0
C443 C 0.28759 0.76567 0.94846 0.0
C444 C 0.48655 0.80287 0.03432 0.0
C445 C 0.45862 0.8033 0.02504 0.0
C446 C 0.39705 0.7574 0.98878 0.0
C447 C 0.32801 0.78298 0.97283 0.0
C448 C 0.36039 0.78542 0.9814 0.0
C449 C 0.45084 0.7893 0.00849 0.0
C450 C 0.42021 0.78843 0.99885 0.0
H451 H 0.25631 0.79653 0.98069 0.0
H452 H 0.31114 0.80316 0.99423 0.0
H453 H 0.34972 0.73129 0.97279 0.0
H454 H 0.51538 0.76356 0.00484 0.0
H455 H 0.46713 0.76488 0.98857 0.0
C456 C 0.49515 0.26935 0.31663 0.0
C457 C 0.49938 0.24708 0.30454 0.0
C458 C 0.52576 0.30144 0.32294 0.0
C459 C 0.62594 0.34512 0.32845 0.0
H460 H 0.62102 0.43445 0.33688 0.0
C461 C 0.73533 0.46792 0.36779 0.0
C462 C 0.74688 0.50429 0.36214 0.0
C463 C 0.7055 0.43709 0.36022 0.0
C464 C 0.62297 0.40985 0.33446 0.0
H465 H 0.5391 0.24131 0.28945 0.0
H466 H 0.59257 0.2976 0.30036 0.0
H467 H 0.56867 0.38011 0.32411 0.0
H468 H 0.73609 0.53684 0.34413 0.0
H469 H 0.68416 0.48295 0.33082 0.0
H470 H 0.68041 0.37502 0.3386 0.0
C471 C 0.56557 0.28993 0.30512 0.0
C472 C 0.59282 0.37857 0.32732 0.0
C473 C 0.53491 0.25778 0.2988 0.0
C474 C 0.72782 0.50918 0.34881 0.0
C475 C 0.69796 0.47832 0.34123 0.0
C476 C 0.65608 0.37639 0.3356 0.0
C477 C 0.56134 0.31206 0.31729 0.0
C478 C 0.59387 0.34577 0.32432 0.0
C479 C 0.68653 0.44191 0.34682 0.0
C480 C 0.65485 0.40904 0.33879 0.0
H481 H 0.46817 0.26187 0.32136 0.0
H482 H 0.52159 0.31757 0.33248 0.0
H483 H 0.62752 0.32019 0.32644 0.0
H484 H 0.74933 0.46317 0.37807 0.0
H485 H 0.69705 0.40947 0.365 0.0
C486 C 0.22635 0.50631 0.651 0.0
C487 C 0.23267 0.50602 0.63365 0.0
C488 C 0.22571 0.53654 0.65836 0.0
C489 C 0.25437 0.63597 0.65043 0.0
H490 H 0.18912 0.62019 0.68795 0.0
C491 C 0.23081 0.7516 0.67712 0.0
C492 C 0.23452 0.75655 0.69467 0.0
C493 C 0.22971 0.72064 0.66961 0.0
C494 C 0.20759 0.62495 0.67753 0.0
H495 H 0.24234 0.53669 0.61031 0.0
H496 H 0.23989 0.58875 0.62297 0.0
H497 H 0.18805 0.56667 0.67469 0.0
H498 H 0.23926 0.73259 0.71814 0.0
H499 H 0.23663 0.67805 0.70497 0.0
H500 H 0.27314 0.69426 0.6531 0.0
C501 C 0.23657 0.56626 0.63105 0.0
C502 C 0.20716 0.59435 0.66996 0.0
C503 C 0.23774 0.53627 0.62375 0.0
C504 C 0.23649 0.72959 0.70458 0.0
C505 C 0.2348 0.69831 0.69707 0.0
C506 C 0.25439 0.66647 0.65784 0.0
C507 C 0.23084 0.56696 0.64848 0.0
C508 C 0.23069 0.59945 0.65635 0.0
C509 C 0.23171 0.69373 0.67951 0.0
C510 C 0.23114 0.66126 0.67151 0.0
H511 H 0.22259 0.4835 0.65899 0.0
H512 H 0.22188 0.5363 0.67185 0.0
H513 H 0.27343 0.64117 0.64022 0.0
H514 H 0.22929 0.77192 0.66915 0.0
H515 H 0.22705 0.71759 0.65605 0.0
C516 C 0.41407 0.22692 0.10871 0.0
C517 C 0.39455 0.1932 0.09974 0.0
C518 C 0.41514 0.22687 0.12629 0.0
C519 C 0.40236 0.16715 0.16295 0.0
H520 H 0.38603 0.23862 0.1871 0.0
C521 C 0.37913 0.15794 0.23471 0.0
C522 C 0.39608 0.19154 0.24387 0.0
C523 C 0.37896 0.15836 0.21713 0.0
C524 C 0.39109 0.21879 0.18056 0.0
H525 H 0.36144 0.13294 0.1022 0.0
H526 H 0.36337 0.1329 0.13291 0.0
H527 H 0.38676 0.23906 0.1564 0.0
H528 H 0.42597 0.25194 0.24175 0.0
H529 H 0.42615 0.25269 0.21105 0.0
H530 H 0.40693 0.14699 0.18708 0.0
C531 C 0.37797 0.15934 0.12632 0.0
C532 C 0.39149 0.21903 0.16297 0.0
C533 C 0.37673 0.15939 0.10873 0.0
C534 C 0.41255 0.22557 0.23507 0.0
C535 C 0.4125 0.22599 0.21746 0.0
C536 C 0.40213 0.167 0.18054 0.0
C537 C 0.39689 0.19311 0.13529 0.0
C538 C 0.39704 0.19316 0.15397 0.0
C539 C 0.39587 0.19238 0.20828 0.0
C540 C 0.39637 0.19274 0.18956 0.0
H541 H 0.42813 0.25347 0.10218 0.0
H542 H 0.43034 0.25329 0.13285 0.0
H543 H 0.4072 0.14719 0.15637 0.0
H544 H 0.36602 0.13122 0.24111 0.0
H545 H 0.36535 0.13197 0.21047 0.0
C546 C 0.19687 0.37714 0.4383 0.0
C547 C 0.17797 0.39126 0.42924 0.0
C548 C 0.19712 0.37769 0.45591 0.0
C549 C 0.18153 0.42365 0.49237 0.0
H550 H 0.17476 0.33995 0.51714 0.0
C551 C 0.16487 0.41023 0.56484 0.0
C552 C 0.18765 0.39992 0.57328 0.0
C553 C 0.16228 0.40841 0.54726 0.0
C554 C 0.1769 0.36363 0.51038 0.0
H555 H 0.14419 0.41671 0.43155 0.0
H556 H 0.14409 0.41705 0.4622 0.0
H557 H 0.17312 0.33832 0.48644 0.0
H558 H 0.22524 0.37918 0.56989 0.0
H559 H 0.22062 0.37598 0.53932 0.0
H560 H 0.18512 0.44882 0.51637 0.0
C561 C 0.15932 0.4062 0.45574 0.0
C562 C 0.17608 0.36276 0.4928 0.0
C563 C 0.15922 0.40581 0.43815 0.0
C564 C 0.20743 0.38735 0.5638 0.0
C565 C 0.20463 0.38529 0.54627 0.0
C566 C 0.18214 0.42441 0.50996 0.0
C567 C 0.17832 0.39221 0.46484 0.0
C568 C 0.1786 0.39286 0.48357 0.0
C569 C 0.18217 0.39594 0.53781 0.0
C570 C 0.18007 0.39451 0.51915 0.0
H571 H 0.21171 0.36588 0.43182 0.0
H572 H 0.21248 0.36719 0.46251 0.0
H573 H 0.18409 0.44756 0.48567 0.0
H574 H 0.14929 0.42003 0.57179 0.0
H575 H 0.14451 0.41651 0.54107 0.0
C576 C 0.77939 0.17043 0.89167 0.0
C577 C 0.80671 0.20169 0.90037 0.0
C578 C 0.77859 0.16998 0.87408 0.0
C579 C 0.83743 0.21381 0.8369 0.0
H580 H 0.74421 0.17133 0.81335 0.0
C581 C 0.82729 0.2194 0.76432 0.0
C582 C 0.80009 0.18661 0.75646 0.0
C583 C 0.82842 0.22261 0.78188 0.0
C584 C 0.77044 0.18299 0.81975 0.0
H585 H 0.85443 0.25718 0.89743 0.0
H586 H 0.8528 0.25648 0.86674 0.0
H587 H 0.74535 0.17447 0.84402 0.0
H588 H 0.75289 0.13139 0.76089 0.0
H589 H 0.75511 0.13691 0.79141 0.0
H590 H 0.86249 0.22215 0.8126 0.0
C591 C 0.83228 0.23213 0.87351 0.0
C592 C 0.77109 0.18477 0.83731 0.0
C593 C 0.83307 0.23259 0.89111 0.0
C594 C 0.77415 0.1571 0.76652 0.0
C595 C 0.77526 0.16034 0.78403 0.0
C596 C 0.83679 0.21205 0.81931 0.0
C597 C 0.80509 0.20077 0.8648 0.0
C598 C 0.80456 0.19996 0.8461 0.0
C599 C 0.80232 0.19314 0.79192 0.0
C600 C 0.80325 0.19635 0.81055 0.0
H601 H 0.75873 0.14613 0.89842 0.0
H602 H 0.75757 0.1452 0.86774 0.0
H603 H 0.86363 0.22524 0.8433 0.0
H604 H 0.84762 0.24266 0.75693 0.0
H605 H 0.84942 0.24837 0.78758 0.0
C606 C 0.62035 0.83553 0.1045 0.0
C607 C 0.60054 0.80159 0.09574 0.0
C608 C 0.61915 0.83628 0.12208 0.0
C609 C 0.60109 0.77651 0.15919 0.0
H610 H 0.59215 0.85348 0.18256 0.0
C611 C 0.58055 0.77383 0.23121 0.0
C612 C 0.59951 0.80809 0.23978 0.0
C613 C 0.5802 0.7728 0.21361 0.0
C614 C 0.5951 0.83205 0.17623 0.0
H615 H 0.56349 0.74186 0.09855 0.0
H616 H 0.56136 0.74326 0.1292 0.0
H617 H 0.59211 0.85238 0.15185 0.0
H618 H 0.63339 0.86815 0.2366 0.0
H619 H 0.63329 0.86628 0.20597 0.0
H620 H 0.60447 0.75638 0.18352 0.0
C621 C 0.57808 0.76923 0.12248 0.0
C622 C 0.59501 0.83141 0.15864 0.0
C623 C 0.57913 0.76849 0.10491 0.0
C624 C 0.61835 0.84127 0.23039 0.0
C625 C 0.6181 0.84023 0.21282 0.0
C626 C 0.60132 0.77724 0.17677 0.0
C627 C 0.59827 0.80308 0.13125 0.0
C628 C 0.59802 0.80364 0.14993 0.0
C629 C 0.5989 0.80601 0.20421 0.0
C630 C 0.59837 0.80504 0.1855 0.0
H631 H 0.63712 0.86152 0.0978 0.0
H632 H 0.63525 0.86275 0.1285 0.0
H633 H 0.60401 0.75509 0.15282 0.0
H634 H 0.56564 0.74778 0.23808 0.0
H635 H 0.56478 0.746 0.20738 0.0
C636 C 0.75452 0.58616 0.56026 0.0
C637 C 0.78761 0.60768 0.56912 0.0
C638 C 0.75413 0.58628 0.54267 0.0
C639 C 0.80812 0.64158 0.50592 0.0
H640 H 0.74832 0.54914 0.4815 0.0
C641 C 0.82465 0.62701 0.4348 0.0
C642 C 0.79258 0.60627 0.42516 0.0
C643 C 0.82267 0.62816 0.45231 0.0
C644 C 0.76478 0.57526 0.48814 0.0
H645 H 0.84631 0.64587 0.56644 0.0
H646 H 0.8457 0.64561 0.53576 0.0
H647 H 0.7479 0.54873 0.51221 0.0
H648 H 0.73321 0.57089 0.42634 0.0
H649 H 0.72979 0.57297 0.45701 0.0
H650 H 0.82538 0.66798 0.48183 0.0
C651 C 0.81994 0.62915 0.54241 0.0
C652 C 0.76456 0.57504 0.50574 0.0
C653 C 0.82033 0.62911 0.56 0.0
C654 C 0.75841 0.58711 0.43341 0.0
C655 C 0.75647 0.58811 0.45097 0.0
C656 C 0.80843 0.64177 0.48833 0.0
C657 C 0.78682 0.60785 0.53354 0.0
C658 C 0.78641 0.60817 0.51483 0.0
C659 C 0.78862 0.60849 0.4606 0.0
C660 C 0.78694 0.60858 0.47926 0.0
H661 H 0.72878 0.56945 0.5669 0.0
H662 H 0.72808 0.56991 0.53623 0.0
H663 H 0.82473 0.66771 0.51253 0.0
H664 H 0.85143 0.64209 0.42885 0.0
H665 H 0.84797 0.64375 0.45939 0.0
C666 C 0.20488 0.8308 0.88962 0.0
C667 C 0.17992 0.79754 0.89791 0.0
C668 C 0.20565 0.83267 0.87205 0.0
C669 C 0.14979 0.7877 0.8343 0.0
H670 H 0.2441 0.83725 0.81147 0.0
C671 C 0.16404 0.78478 0.76179 0.0
C672 C 0.19096 0.81796 0.75409 0.0
C673 C 0.16177 0.78172 0.77935 0.0
C674 C 0.21754 0.8237 0.81765 0.0
H675 H 0.13611 0.74017 0.89426 0.0
H676 H 0.13759 0.74347 0.86356 0.0
H677 H 0.24203 0.83306 0.84208 0.0
H678 H 0.23606 0.87426 0.7588 0.0
H679 H 0.23172 0.8691 0.7893 0.0
H680 H 0.12531 0.77854 0.80984 0.0
C681 C 0.15634 0.76816 0.87067 0.0
C682 C 0.21637 0.82128 0.83519 0.0
C683 C 0.15565 0.76623 0.88825 0.0
C684 C 0.21513 0.84819 0.76431 0.0
C685 C 0.21281 0.84516 0.78182 0.0
C686 C 0.15096 0.79022 0.81673 0.0
C687 C 0.18142 0.80137 0.86238 0.0
C688 C 0.1825 0.8034 0.84372 0.0
C689 C 0.18635 0.81179 0.78956 0.0
C690 C 0.18487 0.80841 0.80821 0.0
H691 H 0.22389 0.85545 0.89668 0.0
H692 H 0.22499 0.85879 0.86603 0.0
H693 H 0.12328 0.77411 0.84053 0.0
H694 H 0.14506 0.76096 0.75427 0.0
H695 H 0.14128 0.75551 0.78492 0.0
C696 C 0.55628 0.63515 0.03521 0.0
C697 C 0.56788 0.65329 0.05087 0.0
C698 C 0.53725 0.59613 0.03429 0.0
C699 C 0.47574 0.51454 0.05906 0.0
H700 H 0.50362 0.45864 0.02959 0.0
C701 C 0.41704 0.35697 0.06723 0.0
C702 C 0.41311 0.33496 0.05308 0.0
C703 C 0.43299 0.3956 0.0657 0.0
C704 C 0.49493 0.47376 0.03765 0.0
H705 H 0.56961 0.64475 0.07775 0.0
H706 H 0.53597 0.57676 0.0761 0.0
H707 H 0.53885 0.52683 0.02912 0.0
H708 H 0.42095 0.33593 0.02605 0.0
H709 H 0.44765 0.40329 0.02326 0.0
H710 H 0.43155 0.46194 0.06746 0.0
C711 C 0.5416 0.59277 0.06459 0.0
C712 C 0.51531 0.5128 0.03743 0.0
C713 C 0.56109 0.63168 0.06549 0.0
C714 C 0.42387 0.35219 0.03722 0.0
C715 C 0.43946 0.39085 0.03564 0.0
C716 C 0.45505 0.47559 0.05911 0.0
C717 C 0.52902 0.57466 0.04903 0.0
C718 C 0.50629 0.53346 0.04838 0.0
C719 C 0.44497 0.41315 0.04993 0.0
C720 C 0.46479 0.45463 0.04865 0.0
H721 H 0.56118 0.65107 0.02372 0.0
H722 H 0.52781 0.58272 0.02214 0.0
H723 H 0.46788 0.52994 0.06741 0.0
H724 H 0.40922 0.34462 0.07965 0.0
H725 H 0.43723 0.41178 0.07703 0.0
C726 C 0.91072 0.55065 0.39656 0.0
C727 C 0.90718 0.57061 0.38313 0.0
C728 C 0.92894 0.53083 0.39433 0.0
C729 C 0.99706 0.52388 0.36888 0.0
H730 H 0.94846 0.4223 0.38589 0.0
C731 C 0.06461 0.4337 0.36343 0.0
C732 C 0.06319 0.41394 0.37805 0.0
C733 C 0.04252 0.44969 0.36193 0.0
C734 C 0.96253 0.45068 0.38117 0.0
H735 H 0.92122 0.5866 0.35696 0.0
H736 H 0.95376 0.55224 0.35316 0.0
H737 H 0.91755 0.45832 0.3877 0.0
H738 H 0.03635 0.39411 0.40226 0.0
H739 H -0.00152 0.42251 0.39982 0.0
H740 H 0.04261 0.51687 0.36291 0.0
C741 C 0.94208 0.55184 0.36537 0.0
C742 C 0.94479 0.47126 0.38219 0.0
C743 C 0.92348 0.57146 0.36755 0.0
C744 C 0.03806 0.40908 0.39081 0.0
C745 C 0.01618 0.42526 0.38936 0.0
C746 C 0.01499 0.50341 0.368 0.0
C747 C 0.94431 0.53077 0.37866 0.0
C748 C 0.96214 0.50825 0.37632 0.0
C749 C 0.01867 0.44641 0.37506 0.0
C750 C -0.00183 0.46676 0.3744 0.0
H751 H 0.89862 0.54948 0.40874 0.0
H752 H 0.93085 0.51535 0.40487 0.0
H753 H 0.01109 0.55242 0.36435 0.0
H754 H 0.08351 0.4377 0.35331 0.0
H755 H 0.04461 0.46519 0.35061 0.0
C756 C 0.63892 0.05517 0.69537 0.0
C757 C 0.65569 0.05834 0.71106 0.0
C758 C 0.60062 0.03738 0.69406 0.0
C759 C 0.51388 0.97666 0.71779 0.0
H760 H 0.47448 0.02389 0.68927 0.0
C761 C 0.36729 0.94922 0.72578 0.0
C762 C 0.3453 0.93764 0.71123 0.0
C763 C 0.40521 0.96415 0.72462 0.0
C764 C 0.48516 0.01031 0.69718 0.0
H765 H 0.64536 0.04422 0.73757 0.0
H766 H 0.57903 0.01424 0.73542 0.0
H767 H 0.54053 0.04704 0.68915 0.0
H768 H 0.34614 0.9347 0.68396 0.0
H769 H 0.41285 0.96173 0.68195 0.0
H770 H 0.45858 0.94094 0.72626 0.0
C771 C 0.59516 0.02471 0.72401 0.0
C772 C 0.52293 0.02334 0.69705 0.0
C773 C 0.63335 0.04211 0.72527 0.0
C774 C 0.36234 0.94325 0.6954 0.0
C775 C 0.40045 0.95872 0.69424 0.0
C776 C 0.47629 0.96406 0.71809 0.0
C777 C 0.5783 0.02266 0.70845 0.0
C778 C 0.53782 0.00694 0.70751 0.0
C779 C 0.42202 0.96832 0.70888 0.0
C780 C 0.46167 0.98103 0.70794 0.0
H781 H 0.6554 0.06722 0.68415 0.0
H782 H 0.58856 0.03565 0.68182 0.0
H783 H 0.52416 0.96277 0.72572 0.0
H784 H 0.3551 0.94538 0.73817 0.0
H785 H 0.42138 0.97187 0.73608 0.0
C786 C 0.63225 0.56621 0.63335 0.0
C787 C 0.65029 0.58023 0.61787 0.0
C788 C 0.59395 0.549 0.63442 0.0
C789 C 0.51355 0.49353 0.60898 0.0
H790 H 0.4594 0.51832 0.64076 0.0
C791 C 0.35823 0.43344 0.60228 0.0
C792 C 0.33664 0.42657 0.61677 0.0
C793 C 0.39641 0.4509 0.60348 0.0
C794 C 0.47405 0.51052 0.63201 0.0
H795 H 0.64246 0.58866 0.59156 0.0
H796 H 0.57565 0.55803 0.59343 0.0
H797 H 0.52668 0.55335 0.64116 0.0
H798 H 0.33805 0.43146 0.64399 0.0
H799 H 0.4048 0.46081 0.64617 0.0
H800 H 0.46153 0.45019 0.60005 0.0
C801 C 0.59121 0.56045 0.60469 0.0
C802 C 0.51254 0.5308 0.63219 0.0
C803 C 0.62945 0.57817 0.60367 0.0
C804 C 0.354 0.43655 0.63258 0.0
C805 C 0.39228 0.45365 0.6338 0.0
C806 C 0.47521 0.47289 0.60897 0.0
C807 C 0.57311 0.54504 0.61997 0.0
C808 C 0.53252 0.52285 0.62047 0.0
C809 C 0.41401 0.46148 0.61923 0.0
C810 C 0.45489 0.48154 0.62027 0.0
H811 H 0.64761 0.5675 0.64451 0.0
H812 H 0.5805 0.53729 0.64634 0.0
H813 H 0.52846 0.48646 0.60002 0.0
H814 H 0.34577 0.42639 0.58989 0.0
H815 H 0.41214 0.45707 0.59194 0.0
C816 C 0.10286 0.618 0.94981 0.0
C817 C 0.09801 0.64649 0.95653 0.0
C818 C 0.08017 0.58099 0.95479 0.0
C819 C 0.98915 0.51675 0.97252 0.0
H820 H 0.02994 0.45204 0.97765 0.0
C821 C 0.89701 0.35904 0.98574 0.0
C822 C 0.9033 0.33613 0.97487 0.0
C823 C 0.92241 0.39733 0.98676 0.0
C824 C 0.01816 0.46977 0.97626 0.0
H825 H 0.06555 0.65849 0.97384 0.0
H826 H 0.02574 0.59352 0.98261 0.0
H827 H 0.07103 0.51887 0.97326 0.0
H828 H 0.94205 0.33508 0.95722 0.0
H829 H 0.98623 0.40169 0.95901 0.0
H830 H 0.93622 0.46746 0.97511 0.0
C831 C 0.04707 0.59995 0.97338 0.0
C832 C 0.04165 0.50801 0.97372 0.0
C833 C 0.0699 0.63713 0.9684 0.0
C834 C 0.93631 0.35196 0.96568 0.0
C835 C 0.96176 0.39014 0.96678 0.0
C836 C 0.96563 0.47847 0.9751 0.0
C837 C 0.05203 0.5715 0.96664 0.0
C838 C 0.02736 0.53178 0.97139 0.0
C839 C 0.95473 0.41338 0.97705 0.0
C840 C 0.97986 0.45446 0.97659 0.0
H841 H 0.12418 0.62417 0.94061 0.0
H842 H 0.08428 0.55969 0.9491 0.0
H843 H 0.97726 0.53425 0.97062 0.0
H844 H 0.87187 0.34769 0.99302 0.0
H845 H 0.91647 0.41451 0.99492 0.0
C846 C 0.57356 0.93558 0.30279 0.0
C847 C 0.58477 0.93079 0.28678 0.0
C848 C 0.55362 0.95392 0.30458 0.0
C849 C 0.52634 0.01398 0.28108 0.0
H850 H 0.44597 0.97474 0.31324 0.0
C851 C 0.41057 0.04723 0.27698 0.0
C852 C 0.4066 0.06469 0.29133 0.0
C853 C 0.43132 0.02971 0.2777 0.0
C854 C 0.46847 0.98601 0.30428 0.0
H855 H 0.58426 0.94188 0.26011 0.0
H856 H 0.54873 0.97253 0.2631 0.0
H857 H 0.48636 0.94851 0.31209 0.0
H858 H 0.41915 0.07525 0.31797 0.0
H859 H 0.45474 0.04353 0.31926 0.0
H860 H 0.50734 0.05034 0.27284 0.0
C861 C 0.55605 0.9632 0.2744 0.0
C862 C 0.4918 0.97126 0.30368 0.0
C863 C 0.57635 0.94538 0.27266 0.0
C864 C 0.42184 0.06215 0.30669 0.0
C865 C 0.44213 0.04402 0.30746 0.0
C866 C 0.50267 0.02817 0.28149 0.0
C867 C 0.54412 0.96747 0.29036 0.0
C868 C 0.52082 0.9848 0.29193 0.0
C869 C 0.44795 0.02872 0.29284 0.0
C870 C 0.47335 0.01407 0.29296 0.0
H871 H 0.57976 0.92473 0.31393 0.0
H872 H 0.54548 0.95725 0.31709 0.0
H873 H 0.54889 0.02584 0.27217 0.0
H874 H 0.3992 0.04863 0.26497 0.0
H875 H 0.43517 0.01773 0.26631 0.0
loop_
_geom_bond_atom_site_label_1
_geom_bond_atom_site_label_2
_geom_bond_distance
_geom_bond_site_symmetry_2
_ccdc_geom_bond_type
C0 O1 1.160 . S
C0 O7 1.185 . S
O1 C0 1.160 . S
O2 Zn3 1.899 . S
O2 C10 1.284 . S
Zn3 O2 1.899 . S
Zn3 O4 2.032 . S
Zn3 O7 2.086 . S
Zn3 O12 1.977 . S
O4 Zn3 2.032 . S
O4 C8 1.278 . S
C5 O6 1.203 . S
C5 O12 1.267 . S
O6 C5 1.203 . S
O7 C0 1.185 . S
O7 Zn3 2.086 . S
C8 O4 1.278 . S
C8 O9 1.211 . S
O9 C8 1.211 . S
C10 O2 1.284 . S
C10 O11 1.273 . S
O11 C10 1.273 . S
O12 Zn3 1.977 . S
O12 C5 1.267 . S
C13 O14 1.160 . S
C13 O20 1.185 . S
O14 C13 1.160 . S
O15 Zn16 1.899 . S
O15 C23 1.284 . S
Zn16 O15 1.899 . S
Zn16 O17 2.032 . S
Zn16 O20 2.086 . S
Zn16 O25 1.977 . S
O17 Zn16 2.032 . S
O17 C21 1.278 . S
C18 O19 1.203 . S
C18 O25 1.267 . S
O19 C18 1.203 . S
O20 C13 1.185 . S
O20 Zn16 2.086 . S
C21 O17 1.278 . S
C21 O22 1.211 . S
O22 C21 1.211 . S
C23 O15 1.284 . S
C23 O24 1.273 . S
O24 C23 1.273 . S
O25 Zn16 1.977 . S
O25 C18 1.267 . S
C26 O27 1.160 . S
C26 O33 1.185 . S
O27 C26 1.160 . S
O28 Zn29 1.899 . S
O28 C36 1.284 . S
Zn29 O28 1.899 . S
Zn29 O30 2.032 . S
Zn29 O33 2.086 . S
Zn29 O38 1.977 . S
O30 Zn29 2.032 . S
O30 C34 1.278 . S
C31 O32 1.203 . S
C31 O38 1.267 . S
O32 C31 1.203 . S
O33 C26 1.185 . S
O33 Zn29 2.086 . S
C34 O30 1.278 . S
C34 O35 1.211 . S
O35 C34 1.211 . S
C36 O28 1.284 . S
C36 O37 1.273 . S
O37 C36 1.273 . S
O38 Zn29 1.977 . S
O38 C31 1.267 . S
C39 O40 1.160 . S
C39 O46 1.185 . S
O40 C39 1.160 . S
O41 Zn42 1.899 . S
O41 C49 1.284 . S
Zn42 O41 1.899 . S
Zn42 O43 2.032 . S
Zn42 O46 2.086 . S
Zn42 O51 1.977 . S
O43 Zn42 2.032 . S
O43 C47 1.278 . S
C44 O45 1.203 . S
C44 O51 1.267 . S
O45 C44 1.203 . S
O46 C39 1.185 . S
O46 Zn42 2.086 . S
C47 O43 1.278 . S
C47 O48 1.211 . S
O48 C47 1.211 . S
C49 O41 1.284 . S
C49 O50 1.273 . S
O50 C49 1.273 . S
O51 Zn42 1.977 . S
O51 C44 1.267 . S
C52 O53 1.160 . S
C52 O59 1.185 . S
O53 C52 1.160 . S
O54 Zn55 1.899 . S
O54 C62 1.284 . S
Zn55 O54 1.899 . S
Zn55 O56 2.032 . S
Zn55 O59 2.086 . S
Zn55 O64 1.977 . S
O56 Zn55 2.032 . S
O56 C60 1.278 . S
C57 O58 1.203 . S
C57 O64 1.267 . S
O58 C57 1.203 . S
O59 C52 1.185 . S
O59 Zn55 2.086 . S
C60 O56 1.278 . S
C60 O61 1.211 . S
O61 C60 1.211 . S
C62 O54 1.284 . S
C62 O63 1.273 . S
O63 C62 1.273 . S
O64 Zn55 1.977 . S
O64 C57 1.267 . S
C65 O66 1.160 . S
C65 O72 1.185 . S
O66 C65 1.160 . S
O67 Zn68 1.899 . S
O67 C75 1.284 . S
Zn68 O67 1.899 . S
Zn68 O69 2.032 . S
Zn68 O72 2.086 . S
Zn68 O77 1.977 . S
O69 Zn68 2.032 . S
O69 C73 1.278 . S
C70 O71 1.203 . S
C70 O77 1.267 . S
O71 C70 1.203 . S
O72 C65 1.185 . S
O72 Zn68 2.086 . S
C73 O69 1.278 . S
C73 O74 1.211 . S
O74 C73 1.211 . S
C75 O67 1.284 . S
C75 O76 1.273 . S
O76 C75 1.273 . S
O77 Zn68 1.977 . S
O77 C70 1.267 . S
C78 O79 1.160 . S
C78 O85 1.185 . S
O79 C78 1.160 . S
O80 Zn81 1.899 . S
O80 C88 1.284 . S
Zn81 O80 1.899 . S
Zn81 O82 2.032 . S
Zn81 O85 2.086 . S
Zn81 O90 1.977 . S
O82 Zn81 2.032 . S
O82 C86 1.278 . S
C83 O84 1.203 . S
C83 O90 1.267 . S
O84 C83 1.203 . S
O85 C78 1.185 . S
O85 Zn81 2.086 . S
C86 O82 1.278 . S
C86 O87 1.211 . S
O87 C86 1.211 . S
C88 O80 1.284 . S
C88 O89 1.273 . S
O89 C88 1.273 . S
O90 Zn81 1.977 . S
O90 C83 1.267 . S
C91 O92 1.160 . S
C91 O98 1.185 . S
O92 C91 1.160 . S
O93 Zn94 1.899 . S
O93 C101 1.284 . S
Zn94 O93 1.899 . S
Zn94 O95 2.032 . S
Zn94 O98 2.086 . S
Zn94 O103 1.977 . S
O95 Zn94 2.032 . S
O95 C99 1.278 . S
C96 O97 1.203 . S
C96 O103 1.267 . S
O97 C96 1.203 . S
O98 C91 1.185 . S
O98 Zn94 2.086 . S
C99 O95 1.278 . S
C99 O100 1.211 . S
O100 C99 1.211 . S
C101 O93 1.284 . S
C101 O102 1.273 . S
O102 C101 1.273 . S
O103 Zn94 1.977 . S
O103 C96 1.267 . S
C104 O105 1.160 . S
C104 O111 1.185 . S
O105 C104 1.160 . S
O106 Zn107 1.899 . S
O106 C114 1.284 . S
Zn107 O106 1.899 . S
Zn107 O108 2.032 . S
Zn107 O111 2.086 . S
Zn107 O116 1.977 . S
O108 Zn107 2.032 . S
O108 C112 1.278 . S
C109 O110 1.203 . S
C109 O116 1.267 . S
O110 C109 1.203 . S
O111 C104 1.185 . S
O111 Zn107 2.086 . S
C112 O108 1.278 . S
C112 O113 1.211 . S
O113 C112 1.211 . S
C114 O106 1.284 . S
C114 O115 1.273 . S
O115 C114 1.273 . S
O116 Zn107 1.977 . S
O116 C109 1.267 . S
C117 O118 1.160 . S
C117 O124 1.185 . S
O118 C117 1.160 . S
O119 Zn120 1.899 . S
O119 C127 1.284 . S
Zn120 O119 1.899 . S
Zn120 O121 2.032 . S
Zn120 O124 2.086 . S
Zn120 O129 1.977 . S
O121 Zn120 2.032 . S
O121 C125 1.278 . S
C122 O123 1.203 . S
C122 O129 1.267 . S
O123 C122 1.203 . S
O124 C117 1.185 . S
O124 Zn120 2.086 . S
C125 O121 1.278 . S
C125 O126 1.211 . S
O126 C125 1.211 . S
C127 O119 1.284 . S
C127 O128 1.273 . S
O128 C127 1.273 . S
O129 Zn120 1.977 . S
O129 C122 1.267 . S
C130 O131 1.160 . S
C130 O137 1.185 . S
O131 C130 1.160 . S
O132 Zn133 1.899 . S
O132 C140 1.284 . S
Zn133 O132 1.899 . S
Zn133 O134 2.032 . S
Zn133 O137 2.086 . S
Zn133 O142 1.977 . S
O134 Zn133 2.032 . S
O134 C138 1.278 . S
C135 O136 1.203 . S
C135 O142 1.267 . S
O136 C135 1.203 . S
O137 C130 1.185 . S
O137 Zn133 2.086 . S
C138 O134 1.278 . S
C138 O139 1.211 . S
O139 C138 1.211 . S
C140 O132 1.284 . S
C140 O141 1.273 . S
O141 C140 1.273 . S
O142 Zn133 1.977 . S
O142 C135 1.267 . S
C143 O144 1.160 . S
C143 O150 1.185 . S
O144 C143 1.160 . S
O145 Zn146 1.899 . S
O145 C153 1.284 . S
Zn146 O145 1.899 . S
Zn146 O147 2.032 . S
Zn146 O150 2.086 . S
Zn146 O155 1.977 . S
O147 Zn146 2.032 . S
O147 C151 1.278 . S
C148 O149 1.203 . S
C148 O155 1.267 . S
O149 C148 1.203 . S
O150 C143 1.185 . S
O150 Zn146 2.086 . S
C151 O147 1.278 . S
C151 O152 1.211 . S
O152 C151 1.211 . S
C153 O145 1.284 . S
C153 O154 1.273 . S
O154 C153 1.273 . S
O155 Zn146 1.977 . S
O155 C148 1.267 . S
C156 C157 1.349 . S
C156 C158 1.327 . S
C156 H181 0.950 . S
C157 C156 1.349 . S
C157 C173 1.349 . S
C158 C156 1.327 . S
C158 C177 1.429 . S
C158 H182 0.950 . S
C159 C176 1.574 1_565 S
C159 C178 1.368 1_554 S
C159 H183 0.949 . S
H160 C164 0.949 . S
C161 C162 1.349 . S
C161 C163 1.327 . S
C161 H184 0.950 . S
C162 C161 1.349 . S
C162 C174 1.349 . S
C163 C161 1.327 . S
C163 C179 1.429 . S
C163 H185 0.950 . S
C164 H160 0.949 . S
C164 C172 1.574 1_545 S
C164 C180 1.368 1_556 S
H165 C173 0.950 . S
H166 C171 0.950 1_554 S
H167 C172 0.949 . S
H168 C174 0.950 . S
H169 C175 0.950 1_556 S
H170 C176 0.949 . S
C171 H166 0.950 1_556 S
C171 C173 1.327 . S
C171 C177 1.429 . S
C172 C164 1.574 1_565 S
C172 H167 0.949 . S
C172 C178 1.368 . S
C173 C157 1.349 . S
C173 H165 0.950 . S
C173 C171 1.327 . S
C174 C162 1.349 . S
C174 H168 0.950 . S
C174 C175 1.327 . S
C175 H169 0.950 1_554 S
C175 C174 1.327 . S
C175 C179 1.429 . S
C176 C159 1.574 1_545 S
C176 H170 0.949 . S
C176 C180 1.368 . S
C177 C158 1.429 . S
C177 C171 1.429 . S
C177 C178 1.523 . S
C178 C159 1.368 1_556 S
C178 C172 1.368 . S
C178 C177 1.523 . S
C179 C163 1.429 . S
C179 C175 1.429 . S
C179 C180 1.523 . S
C180 C164 1.368 1_554 S
C180 C176 1.368 . S
C180 C179 1.523 . S
H181 C156 0.950 . S
H182 C158 0.950 . S
H183 C159 0.949 . S
H184 C161 0.950 . S
H185 C163 0.950 . S
C186 C187 1.349 . S
C186 C188 1.327 . S
C186 H211 0.950 . S
C187 C186 1.349 . S
C187 C203 1.349 . S
C188 C186 1.327 . S
C188 C207 1.429 . S
C188 H212 0.950 . S
C189 C206 1.574 . S
C189 C208 1.368 . S
C189 H213 0.949 . S
H190 C194 0.949 . S
C191 C192 1.349 . S
C191 C193 1.327 . S
C191 H214 0.950 . S
C192 C191 1.349 . S
C192 C204 1.349 . S
C193 C191 1.327 . S
C193 C209 1.429 . S
C193 H215 0.950 . S
C194 H190 0.949 . S
C194 C202 1.574 . S
C194 C210 1.368 . S
H195 C203 0.950 . S
H196 C201 0.950 . S
H197 C202 0.949 . S
H198 C204 0.950 . S
H199 C205 0.950 . S
H200 C206 0.949 . S
C201 H196 0.950 . S
C201 C203 1.327 . S
C201 C207 1.429 . S
C202 C194 1.574 . S
C202 H197 0.949 . S
C202 C208 1.368 . S
C203 C187 1.349 . S
C203 H195 0.950 . S
C203 C201 1.327 . S
C204 C192 1.349 . S
C204 H198 0.950 . S
C204 C205 1.327 . S
C205 H199 0.950 . S
C205 C204 1.327 . S
C205 C209 1.429 . S
C206 C189 1.574 . S
C206 H200 0.949 . S
C206 C210 1.368 . S
C207 C188 1.429 . S
C207 C201 1.429 . S
C207 C208 1.523 . S
C208 C189 1.368 . S
C208 C202 1.368 . S
C208 C207 1.523 . S
C209 C193 1.429 . S
C209 C205 1.429 . S
C209 C210 1.523 . S
C210 C194 1.368 . S
C210 C206 1.368 . S
C210 C209 1.523 . S
H211 C186 0.950 . S
H212 C188 0.950 . S
H213 C189 0.949 . S
H214 C191 0.950 . S
H215 C193 0.950 . S
C216 C217 1.349 . S
C216 C218 1.327 . S
C216 H241 0.950 . S
C217 C216 1.349 . S
C217 C233 1.349 . S
C218 C216 1.327 . S
C218 C237 1.429 . S
C218 H242 0.950 . S
C219 C236 1.574 1_655 S
C219 C238 1.368 . S
C219 H243 0.949 . S
H220 C224 0.949 . S
C221 C222 1.349 . S
C221 C223 1.327 . S
C221 H244 0.950 . S
C222 C221 1.349 . S
C222 C234 1.349 . S
C223 C221 1.327 . S
C223 C239 1.429 . S
C223 H245 0.950 . S
C224 H220 0.949 . S
C224 C232 1.574 1_455 S
C224 C240 1.368 . S
H225 C233 0.950 . S
H226 C231 0.950 . S
H227 C232 0.949 . S
H228 C234 0.950 . S
H229 C235 0.950 . S
H230 C236 0.949 . S
C231 H226 0.950 . S
C231 C233 1.327 . S
C231 C237 1.429 . S
C232 C224 1.574 1_655 S
C232 H227 0.949 . S
C232 C238 1.368 . S
C233 C217 1.349 . S
C233 H225 0.950 . S
C233 C231 1.327 . S
C234 C222 1.349 . S
C234 H228 0.950 . S
C234 C235 1.327 . S
C235 H229 0.950 . S
C235 C234 1.327 . S
C235 C239 1.429 . S
C236 C219 1.574 1_455 S
C236 H230 0.949 . S
C236 C240 1.368 . S
C237 C218 1.429 . S
C237 C231 1.429 . S
C237 C238 1.523 . S
C238 C219 1.368 . S
C238 C232 1.368 . S
C238 C237 1.523 . S
C239 C223 1.429 . S
C239 C235 1.429 . S
C239 C240 1.523 . S
C240 C224 1.368 . S
C240 C236 1.368 . S
C240 C239 1.523 . S
H241 C216 0.950 . S
H242 C218 0.950 . S
H243 C219 0.949 . S
H244 C221 0.950 . S
H245 C223 0.950 . S
C246 C247 1.349 . S
C246 C248 1.327 . S
C246 H271 0.950 . S
C247 C246 1.349 . S
C247 C263 1.349 . S
C248 C246 1.327 . S
C248 C267 1.429 . S
C248 H272 0.950 . S
C249 C266 1.574 1_565 S
C249 C268 1.368 1_556 S
C249 H273 0.949 . S
H250 C254 0.949 . S
C251 C252 1.349 . S
C251 C253 1.327 . S
C251 H274 0.950 . S
C252 C251 1.349 . S
C252 C264 1.349 . S
C253 C251 1.327 . S
C253 C269 1.429 . S
C253 H275 0.950 . S
C254 H250 0.949 . S
C254 C262 1.574 1_545 S
C254 C270 1.368 1_554 S
H255 C263 0.950 . S
H256 C261 0.950 1_556 S
H257 C262 0.949 . S
H258 C264 0.950 . S
H259 C265 0.950 1_554 S
H260 C266 0.949 . S
C261 H256 0.950 1_554 S
C261 C263 1.327 . S
C261 C267 1.429 . S
C262 C254 1.574 1_565 S
C262 H257 0.949 . S
C262 C268 1.368 . S
C263 C247 1.349 . S
C263 H255 0.950 . S
C263 C261 1.327 . S
C264 C252 1.349 . S
C264 H258 0.950 . S
C264 C265 1.327 . S
C265 H259 0.950 1_556 S
C265 C264 1.327 . S
C265 C269 1.429 . S
C266 C249 1.574 1_545 S
C266 H260 0.949 . S
C266 C270 1.368 . S
C267 C248 1.429 . S
C267 C261 1.429 . S
C267 C268 1.523 . S
C268 C249 1.368 1_554 S
C268 C262 1.368 . S
C268 C267 1.523 . S
C269 C253 1.429 . S
C269 C265 1.429 . S
C269 C270 1.523 . S
C270 C254 1.368 1_556 S
C270 C266 1.368 . S
C270 C269 1.523 . S
H271 C246 0.950 . S
H272 C248 0.950 . S
H273 C249 0.949 . S
H274 C251 0.950 . S
H275 C253 0.950 . S
C276 C277 1.349 . S
C276 C278 1.327 . S
C276 H301 0.950 . S
C277 C276 1.349 . S
C277 C293 1.349 . S
C278 C276 1.327 . S
C278 C297 1.429 . S
C278 H302 0.950 . S
C279 C296 1.574 . S
C279 C298 1.368 . S
C279 H303 0.949 . S
H280 C284 0.949 . S
C281 C282 1.349 . S
C281 C283 1.327 . S
C281 H304 0.950 . S
C282 C281 1.349 . S
C282 C294 1.349 . S
C283 C281 1.327 . S
C283 C299 1.429 . S
C283 H305 0.950 . S
C284 H280 0.949 . S
C284 C292 1.574 . S
C284 C300 1.368 . S
H285 C293 0.950 . S
H286 C291 0.950 . S
H287 C292 0.949 . S
H288 C294 0.950 . S
H289 C295 0.950 . S
H290 C296 0.949 . S
C291 H286 0.950 . S
C291 C293 1.327 . S
C291 C297 1.429 . S
C292 C284 1.574 . S
C292 H287 0.949 . S
C292 C298 1.368 . S
C293 C277 1.349 . S
C293 H285 0.950 . S
C293 C291 1.327 . S
C294 C282 1.349 . S
C294 H288 0.950 . S
C294 C295 1.327 . S
C295 H289 0.950 . S
C295 C294 1.327 . S
C295 C299 1.429 . S
C296 C279 1.574 . S
C296 H290 0.949 . S
C296 C300 1.368 . S
C297 C278 1.429 . S
C297 C291 1.429 . S
C297 C298 1.523 . S
C298 C279 1.368 . S
C298 C292 1.368 . S
C298 C297 1.523 . S
C299 C283 1.429 . S
C299 C295 1.429 . S
C299 C300 1.523 . S
C300 C284 1.368 . S
C300 C296 1.368 . S
C300 C299 1.523 . S
H301 C276 0.950 . S
H302 C278 0.950 . S
H303 C279 0.949 . S
H304 C281 0.950 . S
H305 C283 0.950 . S
C306 C307 1.349 . S
C306 C308 1.327 . S
C306 H331 0.950 . S
C307 C306 1.349 . S
C307 C323 1.349 . S
C308 C306 1.327 . S
C308 C327 1.429 . S
C308 H332 0.950 . S
C309 C326 1.574 1_655 S
C309 C328 1.368 . S
C309 H333 0.949 . S
H310 C314 0.949 . S
C311 C312 1.349 . S
C311 C313 1.327 . S
C311 H334 0.950 . S
C312 C311 1.349 . S
C312 C324 1.349 . S
C313 C311 1.327 . S
C313 C329 1.429 . S
C313 H335 0.950 . S
C314 H310 0.949 . S
C314 C322 1.574 1_455 S
C314 C330 1.368 . S
H315 C323 0.950 . S
H316 C321 0.950 . S
H317 C322 0.949 . S
H318 C324 0.950 . S
H319 C325 0.950 . S
H320 C326 0.949 . S
C321 H316 0.950 . S
C321 C323 1.327 . S
C321 C327 1.429 . S
C322 C314 1.574 1_655 S
C322 H317 0.949 . S
C322 C328 1.368 . S
C323 C307 1.349 . S
C323 H315 0.950 . S
C323 C321 1.327 . S
C324 C312 1.349 . S
C324 H318 0.950 . S
C324 C325 1.327 . S
C325 H319 0.950 . S
C325 C324 1.327 . S
C325 C329 1.429 . S
C326 C309 1.574 1_455 S
C326 H320 0.949 . S
C326 C330 1.368 . S
C327 C308 1.429 . S
C327 C321 1.429 . S
C327 C328 1.523 . S
C328 C309 1.368 . S
C328 C322 1.368 . S
C328 C327 1.523 . S
C329 C313 1.429 . S
C329 C325 1.429 . S
C329 C330 1.523 . S
C330 C314 1.368 . S
C330 C326 1.368 . S
C330 C329 1.523 . S
H331 C306 0.950 . S
H332 C308 0.950 . S
H333 C309 0.949 . S
H334 C311 0.950 . S
H335 C313 0.950 . S
C336 C337 1.349 . S
C336 C338 1.327 . S
C336 H361 0.950 . S
C337 C336 1.349 . S
C337 C353 1.349 . S
C338 C336 1.327 . S
C338 C357 1.429 . S
C338 H362 0.950 . S
C339 C356 1.574 . S
C339 C358 1.368 . S
C339 H363 0.949 . S
H340 C344 0.949 . S
C341 C342 1.349 . S
C341 C343 1.327 . S
C341 H364 0.950 . S
C342 C341 1.349 . S
C342 C354 1.349 . S
C343 C341 1.327 . S
C343 C359 1.429 . S
C343 H365 0.950 . S
C344 H340 0.949 . S
C344 C352 1.574 . S
C344 C360 1.368 . S
H345 C353 0.950 . S
H346 C351 0.950 . S
H347 C352 0.949 . S
H348 C354 0.950 . S
H349 C355 0.950 . S
H350 C356 0.949 . S
C351 H346 0.950 . S
C351 C353 1.327 . S
C351 C357 1.429 . S
C352 C344 1.574 . S
C352 H347 0.949 . S
C352 C358 1.368 1_554 S
C353 C337 1.349 . S
C353 H345 0.950 . S
C353 C351 1.327 . S
C354 C342 1.349 . S
C354 H348 0.950 . S
C354 C355 1.327 . S
C355 H349 0.950 . S
C355 C354 1.327 . S
C355 C359 1.429 . S
C356 C339 1.574 . S
C356 H350 0.949 . S
C356 C360 1.368 1_556 S
C357 C338 1.429 . S
C357 C351 1.429 . S
C357 C358 1.523 . S
C358 C339 1.368 . S
C358 C352 1.368 1_556 S
C358 C357 1.523 . S
C359 C343 1.429 . S
C359 C355 1.429 . S
C359 C360 1.523 . S
C360 C344 1.368 . S
C360 C356 1.368 1_554 S
C360 C359 1.523 . S
H361 C336 0.950 . S
H362 C338 0.950 . S
H363 C339 0.949 . S
H364 C341 0.950 . S
H365 C343 0.950 . S
C366 C367 1.349 . S
C366 C368 1.327 . S
C366 H391 0.950 . S
C367 C366 1.349 . S
C367 C383 1.349 . S
C368 C366 1.327 . S
C368 C387 1.429 . S
C368 H392 0.950 . S
C369 C386 1.574 . S
C369 C388 1.368 . S
C369 H393 0.949 . S
H370 C374 0.949 . S
C371 C372 1.349 . S
C371 C373 1.327 . S
C371 H394 0.950 . S
C372 C371 1.349 . S
C372 C384 1.349 . S
C373 C371 1.327 . S
C373 C389 1.429 . S
C373 H395 0.950 . S
C374 H370 0.949 . S
C374 C382 1.574 . S
C374 C390 1.368 . S
H375 C383 0.950 . S
H376 C381 0.950 . S
H377 C382 0.949 . S
H378 C384 0.950 . S
H379 C385 0.950 . S
H380 C386 0.949 . S
C381 H376 0.950 . S
C381 C383 1.327 . S
C381 C387 1.429 . S
C382 C374 1.574 . S
C382 H377 0.949 . S
C382 C388 1.368 . S
C383 C367 1.349 . S
C383 H375 0.950 . S
C383 C381 1.327 . S
C384 C372 1.349 . S
C384 H378 0.950 . S
C384 C385 1.327 . S
C385 H379 0.950 . S
C385 C384 1.327 . S
C385 C389 1.429 . S
C386 C369 1.574 . S
C386 H380 0.949 . S
C386 C390 1.368 . S
C387 C368 1.429 . S
C387 C381 1.429 . S
C387 C388 1.523 . S
C388 C369 1.368 . S
C388 C382 1.368 . S
C388 C387 1.523 . S
C389 C373 1.429 . S
C389 C385 1.429 . S
C389 C390 1.523 . S
C390 C374 1.368 . S
C390 C386 1.368 . S
C390 C389 1.523 . S
H391 C366 0.950 . S
H392 C368 0.950 . S
H393 C369 0.949 . S
H394 C371 0.950 . S
H395 C373 0.950 . S
C396 C397 1.349 . S
C396 C398 1.327 . S
C396 H421 0.950 . S
C397 C396 1.349 . S
C397 C413 1.349 . S
C398 C396 1.327 . S
C398 C417 1.429 . S
C398 H422 0.950 . S
C399 C416 1.574 . S
C399 C418 1.368 . S
C399 H423 0.949 . S
H400 C404 0.949 . S
C401 C402 1.349 . S
C401 C403 1.327 . S
C401 H424 0.950 . S
C402 C401 1.349 . S
C402 C414 1.349 . S
C403 C401 1.327 . S
C403 C419 1.429 . S
C403 H425 0.950 . S
C404 H400 0.949 . S
C404 C412 1.574 . S
C404 C420 1.368 . S
H405 C413 0.950 . S
H406 C411 0.950 . S
H407 C412 0.949 . S
H408 C414 0.950 . S
H409 C415 0.950 . S
H410 C416 0.949 . S
C411 H406 0.950 . S
C411 C413 1.327 . S
C411 C417 1.429 . S
C412 C404 1.574 . S
C412 H407 0.949 . S
C412 C418 1.368 . S
C413 C397 1.349 . S
C413 H405 0.950 . S
C413 C411 1.327 . S
C414 C402 1.349 . S
C414 H408 0.950 . S
C414 C415 1.327 . S
C415 H409 0.950 . S
C415 C414 1.327 . S
C415 C419 1.429 . S
C416 C399 1.574 . S
C416 H410 0.949 . S
C416 C420 1.368 . S
C417 C398 1.429 . S
C417 C411 1.429 . S
C417 C418 1.523 . S
C418 C399 1.368 . S
C418 C412 1.368 . S
C418 C417 1.523 . S
C419 C403 1.429 . S
C419 C415 1.429 . S
C419 C420 1.523 . S
C420 C404 1.368 . S
C420 C416 1.368 . S
C420 C419 1.523 . S
H421 C396 0.950 . S
H422 C398 0.950 . S
H423 C399 0.949 . S
H424 C401 0.950 . S
H425 C403 0.950 . S
C426 C427 1.349 . S
C426 C428 1.327 . S
C426 H451 0.950 . S
C427 C426 1.349 . S
C427 C443 1.349 . S
C428 C426 1.327 . S
C428 C447 1.429 . S
C428 H452 0.950 . S
C429 C446 1.574 . S
C429 C448 1.368 . S
C429 H453 0.949 . S
H430 C434 0.949 . S
C431 C432 1.349 . S
C431 C433 1.327 . S
C431 H454 0.950 . S
C432 C431 1.349 . S
C432 C444 1.349 . S
C433 C431 1.327 . S
C433 C449 1.429 . S
C433 H455 0.950 . S
C434 H430 0.949 . S
C434 C442 1.574 . S
C434 C450 1.368 . S
H435 C443 0.950 . S
H436 C441 0.950 . S
H437 C442 0.949 . S
H438 C444 0.950 . S
H439 C445 0.950 . S
H440 C446 0.949 . S
C441 H436 0.950 . S
C441 C443 1.327 . S
C441 C447 1.429 . S
C442 C434 1.574 . S
C442 H437 0.949 . S
C442 C448 1.368 1_554 S
C443 C427 1.349 . S
C443 H435 0.950 . S
C443 C441 1.327 . S
C444 C432 1.349 . S
C444 H438 0.950 . S
C444 C445 1.327 . S
C445 H439 0.950 . S
C445 C444 1.327 . S
C445 C449 1.429 . S
C446 C429 1.574 . S
C446 H440 0.949 . S
C446 C450 1.368 1_556 S
C447 C428 1.429 . S
C447 C441 1.429 . S
C447 C448 1.523 . S
C448 C429 1.368 . S
C448 C442 1.368 1_556 S
C448 C447 1.523 . S
C449 C433 1.429 . S
C449 C445 1.429 . S
C449 C450 1.523 . S
C450 C434 1.368 . S
C450 C446 1.368 1_554 S
C450 C449 1.523 . S
H451 C426 0.950 . S
H452 C428 0.950 . S
H453 C429 0.949 . S
H454 C431 0.950 . S
H455 C433 0.950 . S
C456 C457 1.349 . S
C456 C458 1.327 . S
C456 H481 0.950 . S
C457 C456 1.349 . S
C457 C473 1.349 . S
C458 C456 1.327 . S
C458 C477 1.429 . S
C458 H482 0.950 . S
C459 C476 1.574 . S
C459 C478 1.368 . S
C459 H483 0.949 . S
H460 C464 0.949 . S
C461 C462 1.349 . S
C461 C463 1.327 . S
C461 H484 0.950 . S
C462 C461 1.349 . S
C462 C474 1.349 . S
C463 C461 1.327 . S
C463 C479 1.429 . S
C463 H485 0.950 . S
C464 H460 0.949 . S
C464 C472 1.574 . S
C464 C480 1.368 . S
H465 C473 0.950 . S
H466 C471 0.950 . S
H467 C472 0.949 . S
H468 C474 0.950 . S
H469 C475 0.950 . S
H470 C476 0.949 . S
C471 H466 0.950 . S
C471 C473 1.327 . S
C471 C477 1.429 . S
C472 C464 1.574 . S
C472 H467 0.949 . S
C472 C478 1.368 . S
C473 C457 1.349 . S
C473 H465 0.950 . S
C473 C471 1.327 . S
C474 C462 1.349 . S
C474 H468 0.950 . S
C474 C475 1.327 . S
C475 H469 0.950 . S
C475 C474 1.327 . S
C475 C479 1.429 . S
C476 C459 1.574 . S
C476 H470 0.949 . S
C476 C480 1.368 . S
C477 C458 1.429 . S
C477 C471 1.429 . S
C477 C478 1.523 . S
C478 C459 1.368 . S
C478 C472 1.368 . S
C478 C477 1.523 . S
C479 C463 1.429 . S
C479 C475 1.429 . S
C479 C480 1.523 . S
C480 C464 1.368 . S
C480 C476 1.368 . S
C480 C479 1.523 . S
H481 C456 0.950 . S
H482 C458 0.950 . S
H483 C459 0.949 . S
H484 C461 0.950 . S
H485 C463 0.950 . S
C486 C487 1.349 . S
C486 C488 1.327 . S
C486 H511 0.950 . S
C487 C486 1.349 . S
C487 C503 1.349 . S
C488 C486 1.327 . S
C488 C507 1.429 . S
C488 H512 0.950 . S
C489 C506 1.574 . S
C489 C508 1.368 . S
C489 H513 0.949 . S
H490 C494 0.949 . S
C491 C492 1.349 . S
C491 C493 1.327 . S
C491 H514 0.950 . S
C492 C491 1.349 . S
C492 C504 1.349 . S
C493 C491 1.327 . S
C493 C509 1.429 . S
C493 H515 0.950 . S
C494 H490 0.949 . S
C494 C502 1.574 . S
C494 C510 1.368 . S
H495 C503 0.950 . S
H496 C501 0.950 . S
H497 C502 0.949 . S
H498 C504 0.950 . S
H499 C505 0.950 . S
H500 C506 0.949 . S
C501 H496 0.950 . S
C501 C503 1.327 . S
C501 C507 1.429 . S
C502 C494 1.574 . S
C502 H497 0.949 . S
C502 C508 1.368 . S
C503 C487 1.349 . S
C503 H495 0.950 . S
C503 C501 1.327 . S
C504 C492 1.349 . S
C504 H498 0.950 . S
C504 C505 1.327 . S
C505 H499 0.950 . S
C505 C504 1.327 . S
C505 C509 1.429 . S
C506 C489 1.574 . S
C506 H500 0.949 . S
C506 C510 1.368 . S
C507 C488 1.429 . S
C507 C501 1.429 . S
C507 C508 1.523 . S
C508 C489 1.368 . S
C508 C502 1.368 . S
C508 C507 1.523 . S
C509 C493 1.429 . S
C509 C505 1.429 . S
C509 C510 1.523 . S
C510 C494 1.368 . S
C510 C506 1.368 . S
C510 C509 1.523 . S
H511 C486 0.950 . S
H512 C488 0.950 . S
H513 C489 0.949 . S
H514 C491 0.950 . S
H515 C493 0.950 . S
C516 C517 1.349 . S
C516 C518 1.327 . S
C516 H541 0.950 . S
C517 C516 1.349 . S
C517 C533 1.349 . S
C518 C516 1.327 . S
C518 C537 1.429 . S
C518 H542 0.950 . S
C519 C536 1.574 . S
C519 C538 1.368 . S
C519 H543 0.949 . S
H520 C524 0.949 . S
C521 C522 1.349 . S
C521 C523 1.327 . S
C521 H544 0.950 . S
C522 C521 1.349 . S
C522 C534 1.349 . S
C523 C521 1.327 . S
C523 C539 1.429 . S
C523 H545 0.950 . S
C524 H520 0.949 . S
C524 C532 1.574 . S
C524 C540 1.368 . S
H525 C533 0.950 . S
H526 C531 0.950 . S
H527 C532 0.949 . S
H528 C534 0.950 . S
H529 C535 0.950 . S
H530 C536 0.949 . S
C531 H526 0.950 . S
C531 C533 1.327 . S
C531 C537 1.429 . S
C532 C524 1.574 . S
C532 H527 0.949 . S
C532 C538 1.368 . S
C533 C517 1.349 . S
C533 H525 0.950 . S
C533 C531 1.327 . S
C534 C522 1.349 . S
C534 H528 0.950 . S
C534 C535 1.327 . S
C535 H529 0.950 . S
C535 C534 1.327 . S
C535 C539 1.429 . S
C536 C519 1.574 . S
C536 H530 0.949 . S
C536 C540 1.368 . S
C537 C518 1.429 . S
C537 C531 1.429 . S
C537 C538 1.523 . S
C538 C519 1.368 . S
C538 C532 1.368 . S
C538 C537 1.523 . S
C539 C523 1.429 . S
C539 C535 1.429 . S
C539 C540 1.523 . S
C540 C524 1.368 . S
C540 C536 1.368 . S
C540 C539 1.523 . S
H541 C516 0.950 . S
H542 C518 0.950 . S
H543 C519 0.949 . S
H544 C521 0.950 . S
H545 C523 0.950 . S
C546 C547 1.349 . S
C546 C548 1.327 . S
C546 H571 0.950 . S
C547 C546 1.349 . S
C547 C563 1.349 . S
C548 C546 1.327 . S
C548 C567 1.429 . S
C548 H572 0.950 . S
C549 C566 1.574 . S
C549 C568 1.368 . S
C549 H573 0.949 . S
H550 C554 0.949 . S
C551 C552 1.349 . S
C551 C553 1.327 . S
C551 H574 0.950 . S
C552 C551 1.349 . S
C552 C564 1.349 . S
C553 C551 1.327 . S
C553 C569 1.429 . S
C553 H575 0.950 . S
C554 H550 0.949 . S
C554 C562 1.574 . S
C554 C570 1.368 . S
H555 C563 0.950 . S
H556 C561 0.950 . S
H557 C562 0.949 . S
H558 C564 0.950 . S
H559 C565 0.950 . S
H560 C566 0.949 . S
C561 H556 0.950 . S
C561 C563 1.327 . S
C561 C567 1.429 . S
C562 C554 1.574 . S
C562 H557 0.949 . S
C562 C568 1.368 . S
C563 C547 1.349 . S
C563 H555 0.950 . S
C563 C561 1.327 . S
C564 C552 1.349 . S
C564 H558 0.950 . S
C564 C565 1.327 . S
C565 H559 0.950 . S
C565 C564 1.327 . S
C565 C569 1.429 . S
C566 C549 1.574 . S
C566 H560 0.949 . S
C566 C570 1.368 . S
C567 C548 1.429 . S
C567 C561 1.429 . S
C567 C568 1.523 . S
C568 C549 1.368 . S
C568 C562 1.368 . S
C568 C567 1.523 . S
C569 C553 1.429 . S
C569 C565 1.429 . S
C569 C570 1.523 . S
C570 C554 1.368 . S
C570 C566 1.368 . S
C570 C569 1.523 . S
H571 C546 0.950 . S
H572 C548 0.950 . S
H573 C549 0.949 . S
H574 C551 0.950 . S
H575 C553 0.950 . S
C576 C577 1.349 . S
C576 C578 1.327 . S
C576 H601 0.950 . S
C577 C576 1.349 . S
C577 C593 1.349 . S
C578 C576 1.327 . S
C578 C597 1.429 . S
C578 H602 0.950 . S
C579 C596 1.574 . S
C579 C598 1.368 . S
C579 H603 0.949 . S
H580 C584 0.949 . S
C581 C582 1.349 . S
C581 C583 1.327 . S
C581 H604 0.950 . S
C582 C581 1.349 . S
C582 C594 1.349 . S
C583 C581 1.327 . S
C583 C599 1.429 . S
C583 H605 0.950 . S
C584 H580 0.949 . S
C584 C592 1.574 . S
C584 C600 1.368 . S
H585 C593 0.950 . S
H586 C591 0.950 . S
H587 C592 0.949 . S
H588 C594 0.950 . S
H589 C595 0.950 . S
H590 C596 0.949 . S
C591 H586 0.950 . S
C591 C593 1.327 . S
C591 C597 1.429 . S
C592 C584 1.574 . S
C592 H587 0.949 . S
C592 C598 1.368 . S
C593 C577 1.349 . S
C593 H585 0.950 . S
C593 C591 1.327 . S
C594 C582 1.349 . S
C594 H588 0.950 . S
C594 C595 1.327 . S
C595 H589 0.950 . S
C595 C594 1.327 . S
C595 C599 1.429 . S
C596 C579 1.574 . S
C596 H590 0.949 . S
C596 C600 1.368 . S
C597 C578 1.429 . S
C597 C591 1.429 . S
C597 C598 1.523 . S
C598 C579 1.368 . S
C598 C592 1.368 . S
C598 C597 1.523 . S
C599 C583 1.429 . S
C599 C595 1.429 . S
C599 C600 1.523 . S
C600 C584 1.368 . S
C600 C596 1.368 . S
C600 C599 1.523 . S
H601 C576 0.950 . S
H602 C578 0.950 . S
H603 C579 0.949 . S
H604 C581 0.950 . S
H605 C583 0.950 . S
C606 C607 1.349 . S
C606 C608 1.327 . S
C606 H631 0.950 . S
C607 C606 1.349 . S
C607 C623 1.349 . S
C608 C606 1.327 . S
C608 C627 1.429 . S
C608 H632 0.950 . S
C609 C626 1.574 . S
C609 C628 1.368 . S
C609 H633 0.949 . S
H610 C614 0.949 . S
C611 C612 1.349 . S
C611 C613 1.327 . S
C611 H634 0.950 . S
C612 C611 1.349 . S
C612 C624 1.349 . S
C613 C611 1.327 . S
C613 C629 1.429 . S
C613 H635 0.950 . S
C614 H610 0.949 . S
C614 C622 1.574 . S
C614 C630 1.368 . S
H615 C623 0.950 . S
H616 C621 0.950 . S
H617 C622 0.949 . S
H618 C624 0.950 . S
H619 C625 0.950 . S
H620 C626 0.949 . S
C621 H616 0.950 . S
C621 C623 1.327 . S
C621 C627 1.429 . S
C622 C614 1.574 . S
C622 H617 0.949 . S
C622 C628 1.368 . S
C623 C607 1.349 . S
C623 H615 0.950 . S
C623 C621 1.327 . S
C624 C612 1.349 . S
C624 H618 0.950 . S
C624 C625 1.327 . S
C625 H619 0.950 . S
C625 C624 1.327 . S
C625 C629 1.429 . S
C626 C609 1.574 . S
C626 H620 0.949 . S
C626 C630 1.368 . S
C627 C608 1.429 . S
C627 C621 1.429 . S
C627 C628 1.523 . S
C628 C609 1.368 . S
C628 C622 1.368 . S
C628 C627 1.523 . S
C629 C613 1.429 . S
C629 C625 1.429 . S
C629 C630 1.523 . S
C630 C614 1.368 . S
C630 C626 1.368 . S
C630 C629 1.523 . S
H631 C606 0.950 . S
H632 C608 0.950 . S
H633 C609 0.949 . S
H634 C611 0.950 . S
H635 C613 0.950 . S
C636 C637 1.349 . S
C636 C638 1.327 . S
C636 H661 0.950 . S
C637 C636 1.349 . S
C637 C653 1.349 . S
C638 C636 1.327 . S
C638 C657 1.429 . S
C638 H662 0.950 . S
C639 C656 1.574 . S
C639 C658 1.368 . S
C639 H663 0.949 . S
H640 C644 0.949 . S
C641 C642 1.349 . S
C641 C643 1.327 . S
C641 H664 0.950 . S
C642 C641 1.349 . S
C642 C654 1.349 . S
C643 C641 1.327 . S
C643 C659 1.429 . S
C643 H665 0.950 . S
C644 H640 0.949 . S
C644 C652 1.574 . S
C644 C660 1.368 . S
H645 C653 0.950 . S
H646 C651 0.950 . S
H647 C652 0.949 . S
H648 C654 0.950 . S
H649 C655 0.950 . S
H650 C656 0.949 . S
C651 H646 0.950 . S
C651 C653 1.327 . S
C651 C657 1.429 . S
C652 C644 1.574 . S
C652 H647 0.949 . S
C652 C658 1.368 . S
C653 C637 1.349 . S
C653 H645 0.950 . S
C653 C651 1.327 . S
C654 C642 1.349 . S
C654 H648 0.950 . S
C654 C655 1.327 . S
C655 H649 0.950 . S
C655 C654 1.327 . S
C655 C659 1.429 . S
C656 C639 1.574 . S
C656 H650 0.949 . S
C656 C660 1.368 . S
C657 C638 1.429 . S
C657 C651 1.429 . S
C657 C658 1.523 . S
C658 C639 1.368 . S
C658 C652 1.368 . S
C658 C657 1.523 . S
C659 C643 1.429 . S
C659 C655 1.429 . S
C659 C660 1.523 . S
C660 C644 1.368 . S
C660 C656 1.368 . S
C660 C659 1.523 . S
H661 C636 0.950 . S
H662 C638 0.950 . S
H663 C639 0.949 . S
H664 C641 0.950 . S
H665 C643 0.950 . S
C666 C667 1.349 . S
C666 C668 1.327 . S
C666 H691 0.950 . S
C667 C666 1.349 . S
C667 C683 1.349 . S
C668 C666 1.327 . S
C668 C687 1.429 . S
C668 H692 0.950 . S
C669 C686 1.574 . S
C669 C688 1.368 . S
C669 H693 0.949 . S
H670 C674 0.949 . S
C671 C672 1.349 . S
C671 C673 1.327 . S
C671 H694 0.950 . S
C672 C671 1.349 . S
C672 C684 1.349 . S
C673 C671 1.327 . S
C673 C689 1.429 . S
C673 H695 0.950 . S
C674 H670 0.949 . S
C674 C682 1.574 . S
C674 C690 1.368 . S
H675 C683 0.950 . S
H676 C681 0.950 . S
H677 C682 0.949 . S
H678 C684 0.950 . S
H679 C685 0.950 . S
H680 C686 0.949 . S
C681 H676 0.950 . S
C681 C683 1.327 . S
C681 C687 1.429 . S
C682 C674 1.574 . S
C682 H677 0.949 . S
C682 C688 1.368 . S
C683 C667 1.349 . S
C683 H675 0.950 . S
C683 C681 1.327 . S
C684 C672 1.349 . S
C684 H678 0.950 . S
C684 C685 1.327 . S
C685 H679 0.950 . S
C685 C684 1.327 . S
C685 C689 1.429 . S
C686 C669 1.574 . S
C686 H680 0.949 . S
C686 C690 1.368 . S
C687 C668 1.429 . S
C687 C681 1.429 . S
C687 C688 1.523 . S
C688 C669 1.368 . S
C688 C682 1.368 . S
C688 C687 1.523 . S
C689 C673 1.429 . S
C689 C685 1.429 . S
C689 C690 1.523 . S
C690 C674 1.368 . S
C690 C686 1.368 . S
C690 C689 1.523 . S
H691 C666 0.950 . S
H692 C668 0.950 . S
H693 C669 0.949 . S
H694 C671 0.950 . S
H695 C673 0.950 . S
C696 C697 1.349 . S
C696 C698 1.327 . S
C696 H721 0.950 . S
C697 C696 1.349 . S
C697 C713 1.349 . S
C698 C696 1.327 . S
C698 C717 1.429 . S
C698 H722 0.950 . S
C699 C716 1.574 . S
C699 C718 1.368 . S
C699 H723 0.949 . S
H700 C704 0.949 . S
C701 C702 1.349 . S
C701 C703 1.327 . S
C701 H724 0.950 . S
C702 C701 1.349 . S
C702 C714 1.349 . S
C703 C701 1.327 . S
C703 C719 1.429 . S
C703 H725 0.950 . S
C704 H700 0.949 . S
C704 C712 1.574 . S
C704 C720 1.368 . S
H705 C713 0.950 . S
H706 C711 0.950 . S
H707 C712 0.949 . S
H708 C714 0.950 . S
H709 C715 0.950 . S
H710 C716 0.949 . S
C711 H706 0.950 . S
C711 C713 1.327 . S
C711 C717 1.429 . S
C712 C704 1.574 . S
C712 H707 0.949 . S
C712 C718 1.368 . S
C713 C697 1.349 . S
C713 H705 0.950 . S
C713 C711 1.327 . S
C714 C702 1.349 . S
C714 H708 0.950 . S
C714 C715 1.327 . S
C715 H709 0.950 . S
C715 C714 1.327 . S
C715 C719 1.429 . S
C716 C699 1.574 . S
C716 H710 0.949 . S
C716 C720 1.368 . S
C717 C698 1.429 . S
C717 C711 1.429 . S
C717 C718 1.523 . S
C718 C699 1.368 . S
C718 C712 1.368 . S
C718 C717 1.523 . S
C719 C703 1.429 . S
C719 C715 1.429 . S
C719 C720 1.523 . S
C720 C704 1.368 . S
C720 C716 1.368 . S
C720 C719 1.523 . S
H721 C696 0.950 . S
H722 C698 0.950 . S
H723 C699 0.949 . S
H724 C701 0.950 . S
H725 C703 0.950 . S
C726 C727 1.349 . S
C726 C728 1.327 . S
C726 H751 0.950 . S
C727 C726 1.349 . S
C727 C743 1.349 . S
C728 C726 1.327 . S
C728 C747 1.429 . S
C728 H752 0.950 . S
C729 C746 1.574 . S
C729 C748 1.368 1_455 S
C729 H753 0.949 . S
H730 C734 0.949 . S
C731 C732 1.349 . S
C731 C733 1.327 . S
C731 H754 0.950 . S
C732 C731 1.349 . S
C732 C744 1.349 . S
C733 C731 1.327 . S
C733 C749 1.429 . S
C733 H755 0.950 . S
C734 H730 0.949 . S
C734 C742 1.574 . S
C734 C750 1.368 1_655 S
H735 C743 0.950 . S
H736 C741 0.950 . S
H737 C742 0.949 . S
H738 C744 0.950 . S
H739 C745 0.950 . S
H740 C746 0.949 . S
C741 H736 0.950 . S
C741 C743 1.327 . S
C741 C747 1.429 . S
C742 C734 1.574 . S
C742 H737 0.949 . S
C742 C748 1.368 . S
C743 C727 1.349 . S
C743 H735 0.950 . S
C743 C741 1.327 . S
C744 C732 1.349 . S
C744 H738 0.950 . S
C744 C745 1.327 . S
C745 H739 0.950 . S
C745 C744 1.327 . S
C745 C749 1.429 . S
C746 C729 1.574 . S
C746 H740 0.949 . S
C746 C750 1.368 . S
C747 C728 1.429 . S
C747 C741 1.429 . S
C747 C748 1.523 . S
C748 C729 1.368 1_655 S
C748 C742 1.368 . S
C748 C747 1.523 . S
C749 C733 1.429 . S
C749 C745 1.429 . S
C749 C750 1.523 . S
C750 C734 1.368 1_455 S
C750 C746 1.368 . S
C750 C749 1.523 . S
H751 C726 0.950 . S
H752 C728 0.950 . S
H753 C729 0.949 . S
H754 C731 0.950 . S
H755 C733 0.950 . S
C756 C757 1.349 . S
C756 C758 1.327 . S
C756 H781 0.950 . S
C757 C756 1.349 . S
C757 C773 1.349 . S
C758 C756 1.327 . S
C758 C777 1.429 . S
C758 H782 0.950 . S
C759 C776 1.574 . S
C759 C778 1.368 . S
C759 H783 0.949 . S
H760 C764 0.949 . S
C761 C762 1.349 . S
C761 C763 1.327 . S
C761 H784 0.950 . S
C762 C761 1.349 . S
C762 C774 1.349 . S
C763 C761 1.327 . S
C763 C779 1.429 . S
C763 H785 0.950 . S
C764 H760 0.949 . S
C764 C772 1.574 . S
C764 C780 1.368 . S
H765 C773 0.950 . S
H766 C771 0.950 . S
H767 C772 0.949 . S
H768 C774 0.950 . S
H769 C775 0.950 . S
H770 C776 0.949 . S
C771 H766 0.950 . S
C771 C773 1.327 . S
C771 C777 1.429 . S
C772 C764 1.574 . S
C772 H767 0.949 . S
C772 C778 1.368 1_565 S
C773 C757 1.349 . S
C773 H765 0.950 . S
C773 C771 1.327 . S
C774 C762 1.349 . S
C774 H768 0.950 . S
C774 C775 1.327 . S
C775 H769 0.950 . S
C775 C774 1.327 . S
C775 C779 1.429 . S
C776 C759 1.574 . S
C776 H770 0.949 . S
C776 C780 1.368 1_545 S
C777 C758 1.429 . S
C777 C771 1.429 . S
C777 C778 1.523 . S
C778 C759 1.368 . S
C778 C772 1.368 1_545 S
C778 C777 1.523 . S
C779 C763 1.429 . S
C779 C775 1.429 . S
C779 C780 1.523 . S
C780 C764 1.368 . S
C780 C776 1.368 1_565 S
C780 C779 1.523 . S
H781 C756 0.950 . S
H782 C758 0.950 . S
H783 C759 0.949 . S
H784 C761 0.950 . S
H785 C763 0.950 . S
C786 C787 1.349 . S
C786 C788 1.327 . S
C786 H811 0.950 . S
C787 C786 1.349 . S
C787 C803 1.349 . S
C788 C786 1.327 . S
C788 C807 1.429 . S
C788 H812 0.950 . S
C789 C806 1.574 . S
C789 C808 1.368 . S
C789 H813 0.949 . S
H790 C794 0.949 . S
C791 C792 1.349 . S
C791 C793 1.327 . S
C791 H814 0.950 . S
C792 C791 1.349 . S
C792 C804 1.349 . S
C793 C791 1.327 . S
C793 C809 1.429 . S
C793 H815 0.950 . S
C794 H790 0.949 . S
C794 C802 1.574 . S
C794 C810 1.368 . S
H795 C803 0.950 . S
H796 C801 0.950 . S
H797 C802 0.949 . S
H798 C804 0.950 . S
H799 C805 0.950 . S
H800 C806 0.949 . S
C801 H796 0.950 . S
C801 C803 1.327 . S
C801 C807 1.429 . S
C802 C794 1.574 . S
C802 H797 0.949 . S
C802 C808 1.368 . S
C803 C787 1.349 . S
C803 H795 0.950 . S
C803 C801 1.327 . S
C804 C792 1.349 . S
C804 H798 0.950 . S
C804 C805 1.327 . S
C805 H799 0.950 . S
C805 C804 1.327 . S
C805 C809 1.429 . S
C806 C789 1.574 . S
C806 H800 0.949 . S
C806 C810 1.368 . S
C807 C788 1.429 . S
C807 C801 1.429 . S
C807 C808 1.523 . S
C808 C789 1.368 . S
C808 C802 1.368 . S
C808 C807 1.523 . S
C809 C793 1.429 . S
C809 C805 1.429 . S
C809 C810 1.523 . S
C810 C794 1.368 . S
C810 C806 1.368 . S
C810 C809 1.523 . S
H811 C786 0.950 . S
H812 C788 0.950 . S
H813 C789 0.949 . S
H814 C791 0.950 . S
H815 C793 0.950 . S
C816 C817 1.349 . S
C816 C818 1.327 . S
C816 H841 0.950 . S
C817 C816 1.349 . S
C817 C833 1.349 . S
C818 C816 1.327 . S
C818 C837 1.429 . S
C818 H842 0.950 . S
C819 C836 1.574 . S
C819 C838 1.368 1_655 S
C819 H843 0.949 . S
H820 C824 0.949 . S
C821 C822 1.349 . S
C821 C823 1.327 . S
C821 H844 0.950 . S
C822 C821 1.349 . S
C822 C834 1.349 . S
C823 C821 1.327 . S
C823 C839 1.429 . S
C823 H845 0.950 . S
C824 H820 0.949 . S
C824 C832 1.574 . S
C824 C840 1.368 1_455 S
H825 C833 0.950 . S
H826 C831 0.950 . S
H827 C832 0.949 . S
H828 C834 0.950 . S
H829 C835 0.950 . S
H830 C836 0.949 . S
C831 H826 0.950 . S
C831 C833 1.327 . S
C831 C837 1.429 . S
C832 C824 1.574 . S
C832 H827 0.949 . S
C832 C838 1.368 . S
C833 C817 1.349 . S
C833 H825 0.950 . S
C833 C831 1.327 . S
C834 C822 1.349 . S
C834 H828 0.950 . S
C834 C835 1.327 . S
C835 H829 0.950 . S
C835 C834 1.327 . S
C835 C839 1.429 . S
C836 C819 1.574 . S
C836 H830 0.949 . S
C836 C840 1.368 . S
C837 C818 1.429 . S
C837 C831 1.429 . S
C837 C838 1.523 . S
C838 C819 1.368 1_455 S
C838 C832 1.368 . S
C838 C837 1.523 . S
C839 C823 1.429 . S
C839 C835 1.429 . S
C839 C840 1.523 . S
C840 C824 1.368 1_655 S
C840 C836 1.368 . S
C840 C839 1.523 . S
H841 C816 0.950 . S
H842 C818 0.950 . S
H843 C819 0.949 . S
H844 C821 0.950 . S
H845 C823 0.950 . S
C846 C847 1.349 . S
C846 C848 1.327 . S
C846 H871 0.950 . S
C847 C846 1.349 . S
C847 C863 1.349 . S
C848 C846 1.327 . S
C848 C867 1.429 . S
C848 H872 0.950 . S
C849 C866 1.574 . S
C849 C868 1.368 . S
C849 H873 0.949 . S
H850 C854 0.949 . S
C851 C852 1.349 . S
C851 C853 1.327 . S
C851 H874 0.950 . S
C852 C851 1.349 . S
C852 C864 1.349 . S
C853 C851 1.327 . S
C853 C869 1.429 . S
C853 H875 0.950 . S
C854 H850 0.949 . S
C854 C862 1.574 . S
C854 C870 1.368 . S
H855 C863 0.950 . S
H856 C861 0.950 . S
H857 C862 0.949 . S
H858 C864 0.950 . S
H859 C865 0.950 . S
H860 C866 0.949 . S
C861 H856 0.950 . S
C861 C863 1.327 . S
C861 C867 1.429 . S
C862 C854 1.574 . S
C862 H857 0.949 . S
C862 C868 1.368 1_545 S
C863 C847 1.349 . S
C863 H855 0.950 . S
C863 C861 1.327 . S
C864 C852 1.349 . S
C864 H858 0.950 . S
C864 C865 1.327 . S
C865 H859 0.950 . S
C865 C864 1.327 . S
C865 C869 1.429 . S
C866 C849 1.574 . S
C866 H860 0.949 . S
C866 C870 1.368 1_565 S
C867 C848 1.429 . S
C867 C861 1.429 . S
C867 C868 1.523 . S
C868 C849 1.368 . S
C868 C862 1.368 1_565 S
C868 C867 1.523 . S
C869 C853 1.429 . S
C869 C865 1.429 . S
C869 C870 1.523 . S
C870 C854 1.368 . S
C870 C866 1.368 1_545 S
C870 C869 1.523 . S
H871 C846 0.950 . S
H872 C848 0.950 . S
H873 C849 0.949 . S
H874 C851 0.950 . S
H875 C853 0.950 . S
C157 C96 1.017 . S
C162 C5 1.017 . S
C187 C18 1.165 . S
C192 C104 1.185 . S
C217 C26 1.185 . S
C222 C122 1.165 . S
C247 C44 1.017 . S
C252 C135 1.017 . S
C277 C143 1.185 . S
C282 C57 1.165 . S
C307 C83 1.165 . S
C312 C65 1.185 . S
C337 C140 0.997 . S
C342 C10 0.997 . S
C367 C23 1.078 . S
C372 C151 1.074 . S
C397 C34 1.074 . S
C402 C88 1.079 . S
C427 C101 0.997 . S
C432 C49 0.997 . S
C457 C112 1.074 . S
C462 C62 1.079 . S
C487 C127 1.079 . S
C492 C73 1.074 . S
C517 C8 1.597 . S
C522 C114 1.600 . S
C547 C21 1.581 . S
C552 C125 1.581 . S
C577 C138 1.597 . S
C582 C36 1.600 . S
C607 C47 1.597 . S
C612 C153 1.600 . S
C637 C86 1.581 . S
C642 C60 1.581 . S
C667 C99 1.597 . S
C672 C75 1.601 . S
C697 C39 1.156 . S
C702 C0 1.156 . S
C727 C52 1.152 . S
C732 C13 1.152 . S
C757 C31 1.269 . S
C762 C70 1.269 . S
C787 C78 1.152 . S
C792 C117 1.152 . S
C817 C91 1.156 . S
C822 C130 1.156 . S
C847 C148 1.268 . S
C852 C109 1.268 . S
