# Generated by pormake.
# Topology wiu, (6)-cn, num edge types: 1
# Building blocks:
#     Node 0, Type 0, BuildingBlock: UKALOJ_clean_sbu_0, # of connection points: 6
#     Node 1, Type 0, BuildingBlock: UKALOJ_clean_sbu_0, # of connection points: 6
#     Node 2, Type 0, BuildingBlock: UKALOJ_clean_sbu_0, # of connection points: 6
#     Node 3, Type 0, BuildingBlock: UKALOJ_clean_sbu_0, # of connection points: 6
#     Node 4, Type 0, BuildingBlock: UKALOJ_clean_sbu_0, # of connection points: 6
#     Node 5, Type 0, BuildingBlock: UKALOJ_clean_sbu_0, # of connection points: 6
#     Node 6, Type 0, BuildingBlock: UKALOJ_clean_sbu_0, # of connection points: 6
#     Node 7, Type 0, BuildingBlock: UKALOJ_clean_sbu_0, # of connection points: 6
#     Node 8, Type 0, BuildingBlock: UKALOJ_clean_sbu_0, # of connection points: 6
#     Node 9, Type 0, BuildingBlock: UKALOJ_clean_sbu_0, # of connection points: 6
#     Node 10, Type 0, BuildingBlock: UKALOJ_clean_sbu_0, # of connection points: 6
#     Node 11, Type 0, BuildingBlock: UKALOJ_clean_sbu_0, # of connection points: 6
#     Node 12, Type 0, BuildingBlock: UKALOJ_clean_sbu_0, # of connection points: 6
#     Node 13, Type 0, BuildingBlock: UKALOJ_clean_sbu_0, # of connection points: 6
#     Node 14, Type 0, BuildingBlock: UKALOJ_clean_sbu_0, # of connection points: 6
#     Node 15, Type 0, BuildingBlock: UKALOJ_clean_sbu_0, # of connection points: 6
#     Edge 16, Type (0, 0), BuildingBlock: ZUJKAS_clean_linker_0, # of connection points: 2
#     Edge 17, Type (0, 0), BuildingBlock: ZUJKAS_clean_linker_0, # of connection points: 2
#     Edge 18, Type (0, 0), BuildingBlock: ZUJKAS_clean_linker_0, # of connection points: 2
#     Edge 19, Type (0, 0), BuildingBlock: ZUJKAS_clean_linker_0, # of connection points: 2
#     Edge 20, Type (0, 0), BuildingBlock: ZUJKAS_clean_linker_0, # of connection points: 2
#     Edge 21, Type (0, 0), BuildingBlock: ZUJKAS_clean_linker_0, # of connection points: 2
#     Edge 22, Type (0, 0), BuildingBlock: ZUJKAS_clean_linker_0, # of connection points: 2
#     Edge 23, Type (0, 0), BuildingBlock: ZUJKAS_clean_linker_0, # of connection points: 2
#     Edge 24, Type (0, 0), BuildingBlock: ZUJKAS_clean_linker_0, # of connection points: 2
#     Edge 25, Type (0, 0), BuildingBlock: ZUJKAS_clean_linker_0, # of connection points: 2
#     Edge 26, Type (0, 0), BuildingBlock: ZUJKAS_clean_linker_0, # of connection points: 2
#     Edge 27, Type (0, 0), BuildingBlock: ZUJKAS_clean_linker_0, # of connection points: 2
#     Edge 28, Type (0, 0), BuildingBlock: ZUJKAS_clean_linker_0, # of connection points: 2
#     Edge 29, Type (0, 0), BuildingBlock: ZUJKAS_clean_linker_0, # of connection points: 2
#     Edge 30, Type (0, 0), BuildingBlock: ZUJKAS_clean_linker_0, # of connection points: 2
#     Edge 31, Type (0, 0), BuildingBlock: ZUJKAS_clean_linker_0, # of connection points: 2
#     Edge 32, Type (0, 0), BuildingBlock: ZUJKAS_clean_linker_0, # of connection points: 2
#     Edge 33, Type (0, 0), BuildingBlock: ZUJKAS_clean_linker_0, # of connection points: 2
#     Edge 34, Type (0, 0), BuildingBlock: ZUJKAS_clean_linker_0, # of connection points: 2
#     Edge 35, Type (0, 0), BuildingBlock: ZUJKAS_clean_linker_0, # of connection points: 2
#     Edge 36, Type (0, 0), BuildingBlock: ZUJKAS_clean_linker_0, # of connection points: 2
#     Edge 37, Type (0, 0), BuildingBlock: ZUJKAS_clean_linker_0, # of connection points: 2
#     Edge 38, Type (0, 0), BuildingBlock: ZUJKAS_clean_linker_0, # of connection points: 2
#     Edge 39, Type (0, 0), BuildingBlock: ZUJKAS_clean_linker_0, # of connection points: 2
#     Edge 40, Type (0, 0), BuildingBlock: ZUJKAS_clean_linker_0, # of connection points: 2
#     Edge 41, Type (0, 0), BuildingBlock: ZUJKAS_clean_linker_0, # of connection points: 2
#     Edge 42, Type (0, 0), BuildingBlock: ZUJKAS_clean_linker_0, # of connection points: 2
#     Edge 43, Type (0, 0), BuildingBlock: ZUJKAS_clean_linker_0, # of connection points: 2
#     Edge 44, Type (0, 0), BuildingBlock: ZUJKAS_clean_linker_0, # of connection points: 2
#     Edge 45, Type (0, 0), BuildingBlock: ZUJKAS_clean_linker_0, # of connection points: 2
#     Edge 46, Type (0, 0), BuildingBlock: ZUJKAS_clean_linker_0, # of connection points: 2
#     Edge 47, Type (0, 0), BuildingBlock: ZUJKAS_clean_linker_0, # of connection points: 2
#     Edge 48, Type (0, 0), BuildingBlock: ZUJKAS_clean_linker_0, # of connection points: 2
#     Edge 49, Type (0, 0), BuildingBlock: ZUJKAS_clean_linker_0, # of connection points: 2
#     Edge 50, Type (0, 0), BuildingBlock: ZUJKAS_clean_linker_0, # of connection points: 2
#     Edge 51, Type (0, 0), BuildingBlock: ZUJKAS_clean_linker_0, # of connection points: 2
#     Edge 52, Type (0, 0), BuildingBlock: ZUJKAS_clean_linker_0, # of connection points: 2
#     Edge 53, Type (0, 0), BuildingBlock: ZUJKAS_clean_linker_0, # of connection points: 2
#     Edge 54, Type (0, 0), BuildingBlock: ZUJKAS_clean_linker_0, # of connection points: 2
#     Edge 55, Type (0, 0), BuildingBlock: ZUJKAS_clean_linker_0, # of connection points: 2
#     Edge 56, Type (0, 0), BuildingBlock: ZUJKAS_clean_linker_0, # of connection points: 2
#     Edge 57, Type (0, 0), BuildingBlock: ZUJKAS_clean_linker_0, # of connection points: 2
#     Edge 58, Type (0, 0), BuildingBlock: ZUJKAS_clean_linker_0, # of connection points: 2
#     Edge 59, Type (0, 0), BuildingBlock: ZUJKAS_clean_linker_0, # of connection points: 2
#     Edge 60, Type (0, 0), BuildingBlock: ZUJKAS_clean_linker_0, # of connection points: 2
#     Edge 61, Type (0, 0), BuildingBlock: ZUJKAS_clean_linker_0, # of connection points: 2
#     Edge 62, Type (0, 0), BuildingBlock: ZUJKAS_clean_linker_0, # of connection points: 2
#     Edge 63, Type (0, 0), BuildingBlock: ZUJKAS_clean_linker_0, # of connection points: 2
# Relax obj value: 0.275
# Max RMSD: 0.195
# Mean RMSD: 0.195
data_MOF--net-wiu--node1-UKALOJ_clean_sbu_0--edge1-ZUJKAS_clean_linker_0
_symmetry_space_group_name_H-M    P1
_symmetry_Int_Tables_number       1
_symmetry_cell_setting            triclinic
loop_
_symmetry_equiv_pos_as_xyz
'x, y, z'
_cell_length_a     35.896928
_cell_length_b     35.873142
_cell_length_c     87.92898
_cell_angle_alpha  89.966768
_cell_angle_beta   89.995961
_cell_angle_gamma 89.997046
loop_
_atom_site_label
_atom_site_type_symbol
_atom_site_fract_x
_atom_site_fract_y
_atom_site_fract_z
_atom_type_partial_charge
Zn0 Zn 0.35477 0.13636 0.07894 0.0
O1 O 0.33255 0.18342 0.09039 0.0
C2 C 0.28385 0.09384 0.08508 0.0
Zn3 Zn 0.3139 0.14385 0.06043 0.0
C4 C 0.30454 0.20133 0.08546 0.0
O5 O 0.28909 0.19027 0.07319 0.0
C6 C 0.37241 0.0844 0.05306 0.0
O7 O 0.34832 0.18141 0.04942 0.0
O8 O 0.39133 0.1718 0.06668 0.0
N9 N 0.27433 0.15067 0.04406 0.0
C10 C 0.27657 0.15773 0.02904 0.0
C11 C 0.21899 0.15883 0.03504 0.0
N12 N 0.23854 0.15129 0.04775 0.0
N13 N 0.24229 0.16337 0.02319 0.0
C14 C 0.39109 0.12547 0.11059 0.0
C15 C 0.44897 0.12371 0.10514 0.0
N16 N 0.39409 0.13016 0.09545 0.0
N17 N 0.43006 0.12918 0.09209 0.0
N18 N 0.42509 0.12101 0.1169 0.0
H19 H 0.35969 0.13903 0.13078 0.0
H20 H 0.34403 0.09849 0.12059 0.0
H21 H 0.33407 0.14406 0.11328 0.0
C22 C 0.35516 0.12713 0.11928 0.0
C23 C 0.31191 0.15723 0.01994 0.0
H24 H 0.32197 0.18616 0.01844 0.0
H25 H 0.30675 0.1453 0.00849 0.0
H26 H 0.33397 0.14096 0.02566 0.0
O27 O 0.34296 0.09907 0.04744 0.0
O28 O 0.38022 0.09141 0.06688 0.0
C29 C 0.38102 0.18689 0.05428 0.0
O30 O 0.31555 0.10045 0.09106 0.0
O31 O 0.27746 0.10622 0.07179 0.0
Zn32 Zn 0.6535 0.56594 0.31081 0.0
O33 O 0.61676 0.60118 0.29958 0.0
C34 C 0.71505 0.62203 0.30291 0.0
Zn35 Zn 0.6632 0.60718 0.32901 0.0
C36 C 0.6134 0.63443 0.3042 0.0
O37 O 0.62931 0.64433 0.31648 0.0
C38 C 0.70331 0.53543 0.33558 0.0
O39 O 0.61518 0.58678 0.34062 0.0
O40 O 0.60704 0.54269 0.32379 0.0
N41 N 0.67024 0.64696 0.3453 0.0
C42 C 0.67462 0.64417 0.36046 0.0
C43 C 0.67669 0.70202 0.35489 0.0
N44 N 0.67142 0.68292 0.34186 0.0
N45 N 0.67906 0.67822 0.36668 0.0
C46 C 0.63978 0.52688 0.27961 0.0
C47 C 0.63684 0.46987 0.28641 0.0
N48 N 0.64554 0.52576 0.29475 0.0
N49 N 0.64368 0.49033 0.29893 0.0
N50 N 0.63391 0.49218 0.27415 0.0
H51 H 0.65678 0.58416 0.27598 0.0
H52 H 0.61324 0.5713 0.2676 0.0
H53 H 0.65587 0.55551 0.25911 0.0
C54 C 0.64184 0.56151 0.27009 0.0
C55 C 0.67271 0.60843 0.3693 0.0
H56 H 0.66085 0.61331 0.38078 0.0
H57 H 0.70131 0.59724 0.37068 0.0
H58 H 0.6556 0.58732 0.36339 0.0
O59 O 0.69745 0.56743 0.3414 0.0
O60 O 0.69071 0.52884 0.32235 0.0
C61 C 0.59659 0.5589 0.33597 0.0
O62 O 0.69828 0.59336 0.29762 0.0
O63 O 0.70952 0.63057 0.31679 0.0
Zn64 Zn 0.19188 0.91306 0.57742 0.0
O65 O 0.21225 0.86532 0.58913 0.0
C66 C 0.2635 0.95401 0.58364 0.0
Zn67 Zn 0.23318 0.90303 0.55929 0.0
C68 C 0.24048 0.8469 0.58473 0.0
O69 O 0.25738 0.85744 0.5727 0.0
C70 C 0.17619 0.96386 0.55109 0.0
O71 O 0.19841 0.865 0.54854 0.0
O72 O 0.15487 0.87839 0.56516 0.0
N73 N 0.27333 0.89519 0.54315 0.0
C74 C 0.27193 0.88783 0.52814 0.0
C75 C 0.32922 0.88715 0.53459 0.0
N76 N 0.30898 0.89485 0.54711 0.0
N77 N 0.30648 0.88239 0.5226 0.0
C78 C 0.15501 0.92555 0.60884 0.0
C79 C 0.09721 0.92736 0.60326 0.0
N80 N 0.15221 0.92048 0.59372 0.0
N81 N 0.11628 0.9215 0.59027 0.0
N82 N 0.12098 0.93025 0.61503 0.0
H83 H 0.18585 0.91267 0.62924 0.0
H84 H 0.20198 0.95264 0.61882 0.0
H85 H 0.21178 0.90658 0.61185 0.0
C86 C 0.19074 0.924 0.61766 0.0
C87 C 0.2373 0.88772 0.51865 0.0
H88 H 0.23027 0.85859 0.51564 0.0
H89 H 0.24243 0.90292 0.50785 0.0
H90 H 0.2135 0.90062 0.52463 0.0
O91 O 0.20465 0.94686 0.5457 0.0
O92 O 0.16829 0.9589 0.56506 0.0
C93 C 0.16517 0.86154 0.55316 0.0
O94 O 0.23165 0.94806 0.58959 0.0
O95 O 0.26982 0.94117 0.57043 0.0
Zn96 Zn 0.88441 0.44359 0.82729 0.0
O97 O 0.93145 0.46512 0.83935 0.0
C98 C 0.84234 0.51462 0.83307 0.0
Zn99 Zn 0.89509 0.48483 0.80922 0.0
C100 C 0.9498 0.49346 0.83497 0.0
O101 O 0.93972 0.50976 0.82274 0.0
C102 C 0.83504 0.42702 0.80066 0.0
O103 O 0.93405 0.45086 0.79889 0.0
O104 O 0.92011 0.40684 0.81523 0.0
N105 N 0.90295 0.52477 0.79303 0.0
C106 C 0.91208 0.523 0.77819 0.0
C107 C 0.90966 0.58057 0.78418 0.0
N108 N 0.90137 0.56057 0.79671 0.0
N109 N 0.91679 0.55753 0.77248 0.0
C110 C 0.87176 0.40695 0.85874 0.0
C111 C 0.87073 0.34902 0.8533 0.0
N112 N 0.87701 0.40401 0.84364 0.0
N113 N 0.87645 0.368 0.84027 0.0
N114 N 0.86741 0.37292 0.86502 0.0
H115 H 0.88447 0.43833 0.87903 0.0
H116 H 0.84405 0.45365 0.8687 0.0
H117 H 0.88973 0.46418 0.86159 0.0
C118 C 0.87284 0.44286 0.86748 0.0
C119 C 0.91467 0.48786 0.76904 0.0
H120 H 0.94432 0.47979 0.76796 0.0
H121 H 0.90366 0.49258 0.7574 0.0
H122 H 0.8991 0.46476 0.77443 0.0
O123 O 0.85227 0.45551 0.79539 0.0
O124 O 0.83932 0.41915 0.81467 0.0
C125 C 0.93758 0.41759 0.80343 0.0
O126 O 0.84832 0.4829 0.83915 0.0
O127 O 0.85593 0.52098 0.81998 0.0
Zn128 Zn 0.69579 0.91191 0.92819 0.0
O129 O 0.71515 0.8645 0.91547 0.0
C130 C 0.76833 0.95116 0.92252 0.0
Zn131 Zn 0.73693 0.89766 0.94586 0.0
C132 C 0.74289 0.84483 0.91955 0.0
O133 O 0.75973 0.85348 0.9318 0.0
C134 C 0.68198 0.95933 0.95549 0.0
O135 O 0.70158 0.85949 0.95595 0.0
O136 O 0.65795 0.87713 0.94006 0.0
N137 N 0.7764 0.88645 0.96186 0.0
C138 C 0.77583 0.88668 0.97718 0.0
C139 C 0.82949 0.86731 0.97035 0.0
N140 N 0.80977 0.87447 0.95765 0.0
N141 N 0.80885 0.87497 0.98273 0.0
C142 C 0.6584 0.92759 0.8971 0.0
C143 C 0.60078 0.9294 0.90299 0.0
N144 N 0.65603 0.92181 0.91219 0.0
N145 N 0.62022 0.92291 0.91584 0.0
N146 N 0.62419 0.93272 0.89112 0.0
H147 H 0.6886 0.91494 0.87651 0.0
H148 H 0.70511 0.95475 0.88692 0.0
H149 H 0.71507 0.90861 0.89373 0.0
C150 C 0.69385 0.92611 0.88808 0.0
C151 C 0.74241 0.89618 0.98666 0.0
H152 H 0.74294 0.88095 0.99765 0.0
H153 H 0.74255 0.92653 0.98907 0.0
H154 H 0.71628 0.88933 0.98065 0.0
O155 O 0.70957 0.93997 0.96021 0.0
O156 O 0.67349 0.95747 0.94146 0.0
C157 C 0.66799 0.85834 0.95163 0.0
O158 O 0.73619 0.94703 0.91658 0.0
O159 O 0.7746 0.93623 0.9354 0.0
Zn160 Zn 0.39675 0.48569 0.69563 0.0
O161 O 0.43411 0.45085 0.70607 0.0
C162 C 0.33619 0.42875 0.70396 0.0
Zn163 Zn 0.38586 0.44551 0.67715 0.0
C164 C 0.43866 0.4182 0.70104 0.0
O165 O 0.42245 0.40842 0.6888 0.0
C166 C 0.34475 0.51708 0.67177 0.0
O167 O 0.4321 0.46772 0.66471 0.0
O168 O 0.44256 0.50925 0.68241 0.0
N169 N 0.37782 0.40601 0.66086 0.0
C170 C 0.38018 0.40714 0.64559 0.0
C171 C 0.36494 0.35168 0.65176 0.0
N172 N 0.36848 0.37152 0.66468 0.0
N173 N 0.37254 0.37331 0.63963 0.0
C174 C 0.40599 0.5235 0.72722 0.0
C175 C 0.42293 0.57829 0.72077 0.0
N176 N 0.4058 0.5249 0.71191 0.0
N177 N 0.4162 0.55897 0.70794 0.0
N178 N 0.41652 0.55671 0.73302 0.0
H179 H 0.41665 0.48789 0.74653 0.0
H180 H 0.36882 0.49023 0.7405 0.0
H181 H 0.40155 0.46345 0.72976 0.0
C182 C 0.39807 0.48919 0.73646 0.0
C183 C 0.38778 0.4417 0.63648 0.0
H184 H 0.38355 0.46728 0.64322 0.0
H185 H 0.41712 0.44129 0.63257 0.0
H186 H 0.36954 0.44261 0.62629 0.0
O187 O 0.34891 0.48498 0.66577 0.0
O188 O 0.35937 0.52315 0.6847 0.0
C189 C 0.45158 0.49464 0.66971 0.0
O190 O 0.35266 0.45761 0.70925 0.0
O191 O 0.34149 0.42059 0.69005 0.0
Zn192 Zn 0.84798 0.13808 0.42803 0.0
O193 O 0.82421 0.18321 0.41577 0.0
C194 C 0.77789 0.09467 0.42234 0.0
Zn195 Zn 0.80751 0.14616 0.44673 0.0
C196 C 0.79724 0.20211 0.42103 0.0
O197 O 0.78339 0.19266 0.43384 0.0
C198 C 0.86599 0.08725 0.45456 0.0
O199 O 0.84156 0.18304 0.4578 0.0
O200 O 0.88336 0.17658 0.43975 0.0
N201 N 0.76729 0.1534 0.46283 0.0
C202 C 0.76892 0.16144 0.47777 0.0
C203 C 0.71158 0.16187 0.47142 0.0
N204 N 0.73164 0.15361 0.45891 0.0
N205 N 0.7344 0.16733 0.48335 0.0
C206 C 0.8846 0.12558 0.39657 0.0
C207 C 0.94255 0.12841 0.40183 0.0
N208 N 0.8875 0.13187 0.41162 0.0
N209 N 0.92351 0.13369 0.41486 0.0
N210 N 0.9187 0.12299 0.39023 0.0
H211 H 0.85228 0.13454 0.37618 0.0
H212 H 0.83899 0.09467 0.38734 0.0
H213 H 0.82666 0.14068 0.39361 0.0
C214 C 0.84855 0.12404 0.38795 0.0
C215 C 0.80401 0.16183 0.487 0.0
H216 H 0.81498 0.19071 0.48741 0.0
H217 H 0.79847 0.15248 0.49882 0.0
H218 H 0.82549 0.14362 0.48192 0.0
O219 O 0.83609 0.1017 0.4599 0.0
O220 O 0.87462 0.09453 0.44083 0.0
C221 C 0.87326 0.19059 0.45239 0.0
O222 O 0.80998 0.09979 0.41648 0.0
O223 O 0.77119 0.10885 0.43528 0.0
Zn224 Zn 0.16098 0.60458 0.17622 0.0
O225 O 0.11395 0.58386 0.16398 0.0
C226 C 0.202 0.53317 0.17005 0.0
Zn227 Zn 0.15051 0.56316 0.19428 0.0
C228 C 0.09509 0.55605 0.16854 0.0
O229 O 0.10493 0.53996 0.18083 0.0
C230 C 0.2112 0.61943 0.20293 0.0
O231 O 0.11307 0.59781 0.20515 0.0
O232 O 0.1256 0.64131 0.18838 0.0
N233 N 0.1414 0.52302 0.21019 0.0
C234 C 0.14219 0.52312 0.2255 0.0
C235 C 0.12358 0.46929 0.21851 0.0
N236 N 0.12994 0.48954 0.20588 0.0
N237 N 0.13129 0.4897 0.23095 0.0
C238 C 0.16506 0.64433 0.14491 0.0
C239 C 0.18199 0.69919 0.15121 0.0
N240 N 0.16879 0.64474 0.16015 0.0
N241 N 0.17918 0.67886 0.16405 0.0
N242 N 0.17285 0.67826 0.13906 0.0
H243 H 0.12589 0.61083 0.13272 0.0
H244 H 0.17226 0.60998 0.125 0.0
H245 H 0.1614 0.58437 0.14206 0.0
C246 C 0.15589 0.61031 0.13571 0.0
C247 C 0.15143 0.55641 0.23511 0.0
H248 H 0.14657 0.58276 0.22893 0.0
H249 H 0.13459 0.55647 0.24569 0.0
H250 H 0.18129 0.55513 0.23831 0.0
O251 O 0.19435 0.59056 0.20803 0.0
O252 O 0.20621 0.6282 0.18905 0.0
C253 C 0.10929 0.63098 0.20052 0.0
O254 O 0.19682 0.56536 0.16426 0.0
O255 O 0.18823 0.52636 0.18308 0.0
Zn256 Zn 0.85598 0.63295 0.57835 0.0
O257 O 0.83554 0.68044 0.5901 0.0
C258 C 0.7848 0.59053 0.58479 0.0
Zn259 Zn 0.81357 0.64175 0.56064 0.0
C260 C 0.80641 0.6979 0.58607 0.0
O261 O 0.7888 0.68655 0.57435 0.0
C262 C 0.87123 0.5821 0.55192 0.0
O263 O 0.84743 0.6808 0.55016 0.0
O264 O 0.89264 0.66789 0.56609 0.0
N265 N 0.77373 0.65025 0.54454 0.0
C266 C 0.7748 0.65125 0.52922 0.0
C267 C 0.71977 0.66646 0.53598 0.0
N268 N 0.7395 0.65955 0.54869 0.0
N269 N 0.74123 0.66124 0.52361 0.0
C270 C 0.89387 0.62714 0.60988 0.0
C271 C 0.94865 0.60882 0.60412 0.0
N272 N 0.89559 0.62485 0.59461 0.0
N273 N 0.92966 0.61363 0.59105 0.0
N274 N 0.92676 0.61712 0.61607 0.0
H275 H 0.86194 0.67362 0.61757 0.0
H276 H 0.8624 0.63593 0.6308 0.0
H277 H 0.8347 0.63288 0.61373 0.0
C278 C 0.86136 0.6428 0.61854 0.0
C279 C 0.80909 0.64467 0.51982 0.0
H280 H 0.80992 0.66409 0.51 0.0
H281 H 0.8085 0.61574 0.51539 0.0
H282 H 0.83484 0.64801 0.52652 0.0
O283 O 0.84242 0.59879 0.54671 0.0
O284 O 0.87955 0.58719 0.56584 0.0
C285 C 0.88092 0.68488 0.55432 0.0
O286 O 0.81653 0.59784 0.5906 0.0
O287 O 0.7777 0.60257 0.57151 0.0
Zn288 Zn 0.15162 0.06367 0.8099 0.0
O289 O 0.11435 0.09972 0.79983 0.0
C290 C 0.2132 0.11973 0.80144 0.0
Zn291 Zn 0.16416 0.10353 0.82829 0.0
C292 C 0.112 0.13278 0.80471 0.0
O293 O 0.12923 0.14192 0.81678 0.0
C294 C 0.20367 0.03087 0.83339 0.0
O295 O 0.11703 0.08267 0.8406 0.0
O296 O 0.1062 0.04015 0.82337 0.0
N297 N 0.1732 0.14238 0.84474 0.0
C298 C 0.16969 0.14111 0.85997 0.0
C299 C 0.18714 0.19614 0.85414 0.0
N300 N 0.18394 0.1766 0.84113 0.0
N301 N 0.17793 0.1746 0.86611 0.0
C302 C 0.14086 0.02703 0.77811 0.0
C303 C 0.12332 0.97229 0.78435 0.0
N304 N 0.14136 0.02516 0.79342 0.0
N305 N 0.13057 0.99112 0.79725 0.0
N306 N 0.12976 0.99414 0.77218 0.0
H307 H 0.13066 0.06315 0.75892 0.0
H308 H 0.17839 0.06036 0.76504 0.0
H309 H 0.14568 0.08708 0.77583 0.0
C310 C 0.1491 0.06149 0.76902 0.0
C311 C 0.16023 0.10666 0.86887 0.0
H312 H 0.16573 0.08106 0.86228 0.0
H313 H 0.13019 0.10714 0.87179 0.0
H314 H 0.17646 0.10566 0.8796 0.0
O315 O 0.19984 0.06281 0.83955 0.0
O316 O 0.18896 0.02532 0.82042 0.0
C317 C 0.09733 0.05558 0.83591 0.0
O318 O 0.19551 0.09161 0.79613 0.0
O319 O 0.20922 0.12732 0.81548 0.0
Zn320 Zn 0.69163 0.41218 0.07831 0.0
O321 O 0.71273 0.36448 0.09019 0.0
C322 C 0.76377 0.45285 0.08369 0.0
Zn323 Zn 0.73228 0.40083 0.0601 0.0
C324 C 0.74058 0.34567 0.08566 0.0
O325 O 0.75673 0.35562 0.0734 0.0
C326 C 0.67547 0.46194 0.05179 0.0
O327 O 0.69679 0.36288 0.04999 0.0
O328 O 0.65361 0.37757 0.06657 0.0
N329 N 0.77086 0.39153 0.04355 0.0
C330 C 0.76887 0.39088 0.02825 0.0
C331 C 0.82408 0.37486 0.0344 0.0
N332 N 0.8052 0.38169 0.04733 0.0
N333 N 0.80197 0.38062 0.02226 0.0
C334 C 0.65515 0.4154 0.1102 0.0
C335 C 0.6 0.43373 0.10514 0.0
N336 N 0.65311 0.42022 0.09503 0.0
N337 N 0.61882 0.43154 0.0919 0.0
N338 N 0.6221 0.42328 0.11675 0.0
H339 H 0.71531 0.41123 0.11205 0.0
H340 H 0.68953 0.37489 0.12124 0.0
H341 H 0.69141 0.42048 0.12965 0.0
C342 C 0.68996 0.40516 0.1187 0.0
C343 C 0.73412 0.39817 0.01922 0.0
H344 H 0.73267 0.37936 0.00923 0.0
H345 H 0.73463 0.42737 0.01507 0.0
H346 H 0.70872 0.39453 0.02611 0.0
O347 O 0.70364 0.44433 0.0465 0.0
O348 O 0.66765 0.4578 0.06581 0.0
C349 C 0.6635 0.36033 0.05459 0.0
O350 O 0.732 0.44752 0.0898 0.0
O351 O 0.76987 0.43902 0.07061 0.0
Zn352 Zn 0.38377 0.94114 0.32751 0.0
O353 O 0.43186 0.9611 0.33909 0.0
C354 C 0.34246 1.01269 0.33399 0.0
Zn355 Zn 0.3937 0.98337 0.30981 0.0
C356 C 0.44967 0.99007 0.33507 0.0
O357 O 0.43852 1.00793 0.32338 0.0
C358 C 0.33318 0.9265 0.30113 0.0
O359 O 0.43249 0.94883 0.29931 0.0
O360 O 0.41781 0.9039 0.31516 0.0
N361 N 0.40168 1.02351 0.29372 0.0
C362 C 0.41035 1.02203 0.27883 0.0
C363 C 0.40826 0.07948 0.28503 0.0
N364 N 0.40031 0.05925 0.29753 0.0
N365 N 0.41493 0.05665 0.27322 0.0
C366 C 0.37804 0.90397 0.35919 0.0
C367 C 0.35833 0.84944 0.35381 0.0
N368 N 0.37545 0.90181 0.34394 0.0
N369 N 0.36336 0.86788 0.3406 0.0
N370 N 0.36736 0.87153 0.36561 0.0
H371 H 0.42526 0.93525 0.36656 0.0
H372 H 0.38794 0.93579 0.37994 0.0
H373 H 0.38496 0.96318 0.36278 0.0
C374 C 0.3945 0.93643 0.36765 0.0
C375 C 0.41265 0.98711 0.26953 0.0
H376 H 0.44232 0.97961 0.26795 0.0
H377 H 0.40053 0.99195 0.25809 0.0
H378 H 0.39794 0.96364 0.27504 0.0
O379 O 0.35073 0.95486 0.29595 0.0
O380 O 0.3375 0.9182 0.3151 0.0
C381 C 0.4354 0.91513 0.30346 0.0
O382 O 0.34939 0.98093 0.33984 0.0
O383 O 0.35469 1.01953 0.32072 0.0
Zn384 Zn 0.19567 0.41061 0.42625 0.0
O385 O 0.21863 0.36515 0.41372 0.0
C386 C 0.26646 0.45333 0.42117 0.0
Zn387 Zn 0.23583 0.4003 0.44481 0.0
C388 C 0.24575 0.34598 0.41872 0.0
O389 O 0.26008 0.35499 0.43146 0.0
C390 C 0.17774 0.4596 0.45317 0.0
O391 O 0.20122 0.36227 0.45517 0.0
O392 O 0.15937 0.37315 0.43758 0.0
N393 N 0.27488 0.39075 0.46112 0.0
C394 C 0.27263 0.38925 0.47639 0.0
C395 C 0.32766 0.37255 0.47021 0.0
N396 N 0.30908 0.38047 0.4573 0.0
N397 N 0.30531 0.37764 0.48232 0.0
C398 C 0.15939 0.42414 0.39478 0.0
C399 C 0.1014 0.42153 0.40001 0.0
N400 N 0.15643 0.41809 0.40984 0.0
N401 N 0.1204 0.41646 0.41307 0.0
N402 N 0.12533 0.4267 0.38843 0.0
H403 H 0.19174 0.41397 0.37451 0.0
H404 H 0.20445 0.45487 0.38509 0.0
H405 H 0.21754 0.40954 0.392 0.0
C406 C 0.1954 0.42542 0.38614 0.0
C407 C 0.2399 0.40304 0.4854 0.0
H408 H 0.21353 0.3921 0.48067 0.0
H409 H 0.24175 0.39579 0.49761 0.0
H410 H 0.23909 0.43387 0.48459 0.0
O411 O 0.20692 0.44366 0.45845 0.0
O412 O 0.16968 0.45425 0.43924 0.0
C413 C 0.16896 0.35699 0.44985 0.0
O414 O 0.23457 0.44824 0.41512 0.0
O415 O 0.27293 0.43871 0.43408 0.0
Zn416 Zn 0.89621 0.98633 0.19576 0.0
O417 O 0.93478 0.95255 0.20639 0.0
C418 C 0.83647 0.9285 0.20426 0.0
Zn419 Zn 0.88656 0.94477 0.17768 0.0
C420 C 0.93955 0.91955 0.20175 0.0
O421 O 0.923 0.90864 0.18976 0.0
C422 C 0.84399 1.01562 0.17168 0.0
O423 O 0.93308 0.96668 0.16553 0.0
O424 O 0.9413 1.01083 0.18234 0.0
N425 N 0.8799 0.90483 0.16143 0.0
C426 C 0.87445 0.9073 0.14632 0.0
C427 C 0.87679 0.84945 0.15187 0.0
N428 N 0.88141 0.86887 0.16486 0.0
N429 N 0.87211 0.87304 0.14013 0.0
C430 C 0.90404 0.02507 0.22724 0.0
C431 C 0.9197 0.08014 0.22066 0.0
N432 N 0.90421 0.02612 0.21193 0.0
N433 N 0.91383 0.06037 0.20787 0.0
N434 N 0.91351 0.05867 0.23297 0.0
H435 H 0.91481 0.99041 0.24683 0.0
H436 H 0.86731 0.9909 0.24033 0.0
H437 H 0.90162 0.965 0.23002 0.0
C438 C 0.8968 0.99077 0.23657 0.0
C439 C 0.87342 0.94304 0.13747 0.0
H440 H 0.8846 0.93886 0.12583 0.0
H441 H 0.84408 0.95237 0.13647 0.0
H442 H 0.88971 0.96515 0.14317 0.0
O443 O 0.85001 0.98367 0.1658 0.0
O444 O 0.85751 1.02249 0.18474 0.0
C445 C 0.95145 0.99484 0.17006 0.0
O446 O 0.8529 0.95752 0.20942 0.0
O447 O 0.84178 0.91988 0.19038 0.0
Zn448 Zn 0.31178 0.64442 0.94565 0.0
O449 O 0.34764 0.68166 0.95636 0.0
C450 C 0.36676 0.58192 0.95418 0.0
Zn451 Zn 0.35301 0.63245 0.92775 0.0
C452 C 0.38118 0.68335 0.95195 0.0
O453 O 0.39105 0.66572 0.94008 0.0
C454 C 0.28026 0.59369 0.92143 0.0
O455 O 0.3342 0.681 0.91592 0.0
O456 O 0.28891 0.69017 0.93214 0.0
N457 N 0.39266 0.6238 0.9116 0.0
C458 C 0.39009 0.61941 0.89644 0.0
C459 C 0.44771 0.61599 0.90224 0.0
N460 N 0.42846 0.62174 0.91519 0.0
N461 N 0.42417 0.61415 0.89035 0.0
C462 C 0.27395 0.66172 0.97671 0.0
C463 C 0.21663 0.66408 0.97039 0.0
N464 N 0.27202 0.65395 0.96175 0.0
N465 N 0.23638 0.65539 0.95786 0.0
N466 N 0.23965 0.66857 0.98232 0.0
H467 H 0.33112 0.64444 0.9804 0.0
H468 H 0.31907 0.68946 0.98777 0.0
H469 H 0.30317 0.64839 0.99739 0.0
C470 C 0.30892 0.66064 0.98603 0.0
C471 C 0.35461 0.62229 0.8875 0.0
H472 H 0.35999 0.63431 0.87608 0.0
H473 H 0.34279 0.59398 0.88599 0.0
H474 H 0.33376 0.6397 0.89341 0.0
O475 O 0.31235 0.59862 0.91553 0.0
O476 O 0.27411 0.60706 0.93458 0.0
C477 C 0.30627 0.70012 0.92015 0.0
O478 O 0.33885 0.60014 0.95936 0.0
O479 O 0.375 0.58591 0.94019 0.0
Zn480 Zn 0.66052 0.10019 0.6779 0.0
O481 O 0.61368 0.07885 0.66563 0.0
C482 C 0.70113 0.0283 0.67239 0.0
Zn483 Zn 0.64889 0.05954 0.69612 0.0
C484 C 0.5943 0.05144 0.67024 0.0
O485 O 0.60353 0.03568 0.68269 0.0
C486 C 0.70991 0.11639 0.70462 0.0
O487 O 0.61112 0.09431 0.70645 0.0
O488 O 0.62466 0.13745 0.68969 0.0
N489 N 0.63968 1.02038 0.71246 0.0
C490 C 0.63968 1.02188 0.72777 0.0
C491 C 0.62256 0.96708 0.72145 0.0
N492 N 0.62915 0.98629 0.70857 0.0
N493 N 0.62919 0.98873 0.73365 0.0
C494 C 0.66486 0.13881 0.64637 0.0
C495 C 0.6804 0.19422 0.65245 0.0
N496 N 0.66838 0.13974 0.66161 0.0
N497 N 0.67793 0.1742 0.66537 0.0
N498 N 0.67191 0.17276 0.64038 0.0
H499 H 0.66247 0.07871 0.64387 0.0
H500 H 0.62659 0.10404 0.63428 0.0
H501 H 0.6731 0.10394 0.62668 0.0
C502 C 0.65654 0.1043 0.63734 0.0
C503 C 0.64773 0.05624 0.73693 0.0
H504 H 0.62965 0.05736 0.74716 0.0
H505 H 0.67718 0.05546 0.74073 0.0
H506 H 0.64361 0.08194 0.73025 0.0
O507 O 0.69261 0.08792 0.70985 0.0
O508 O 0.70546 0.12447 0.69065 0.0
C509 C 0.60759 0.12734 0.70168 0.0
O510 O 0.69683 0.06036 0.66635 0.0
O511 O 0.68666 1.02227 0.68536 0.0
H512 H 0.3668 0.22696 0.02847 0.0
H513 H 0.4124 0.25342 0.01083 0.0
H514 H 0.5011 0.21836 0.04077 0.0
H515 H 0.45609 0.19051 0.05794 0.0
H516 H 0.45752 0.30829 0.01532 0.0
H517 H 0.54762 0.19151 1.00111 0.0
H518 H 0.50025 0.18433 0.00754 0.0
H519 H 0.53833 0.18644 0.02098 0.0
C520 C 0.3961 0.22436 0.03112 0.0
C521 C 0.40795 0.20637 0.04451 0.0
C522 C 0.42205 0.23928 0.02099 0.0
C523 C 0.46019 0.23644 0.02412 0.0
C524 C 0.47189 0.21928 0.03769 0.0
H525 H 0.5896 0.35183 0.06031 0.0
H526 H 0.54235 0.32844 0.04306 0.0
C527 C 0.44608 0.20417 0.04773 0.0
C528 C 0.48806 0.25639 0.01486 0.0
H529 H 0.58193 0.24885 0.01223 0.0
C530 C 0.48452 0.29524 0.01379 0.0
C531 C 0.52288 0.23972 0.01172 0.0
C532 C 0.52719 0.1981 0.0102 0.0
C533 C 0.51636 0.31768 0.01354 0.0
C534 C 0.55154 0.30038 0.01495 0.0
C535 C 0.55477 0.26209 0.01205 0.0
C536 C 0.58061 0.31762 0.02445 0.0
C537 C 0.51203 0.35944 0.0141 0.0
C538 C 0.61811 0.31724 0.02008 0.0
C539 C 0.64543 0.32977 0.03015 0.0
C540 C 0.63555 0.34262 0.04475 0.0
C541 C 0.59808 0.34217 0.04917 0.0
C542 C 0.57095 0.32958 0.03915 0.0
H543 H 0.48955 0.36848 0.00624 0.0
H544 H 0.50373 0.36802 0.02574 0.0
H545 H 0.53833 0.37391 0.011 0.0
H546 H 0.62619 0.30713 0.00895 0.0
H547 H 0.67417 0.32992 0.0264 0.0
H548 H 0.58048 0.6235 0.27646 0.0
H549 H 0.5579 0.67132 0.2589 0.0
H550 H 0.5833 0.7559 0.29224 0.0
H551 H 0.6072 0.7088 0.30942 0.0
H552 H 0.50169 0.71514 0.26163 0.0
H553 H 0.61955 0.80887 0.25535 0.0
H554 H 0.62597 0.76067 0.26085 0.0
H555 H 0.61957 0.79657 0.27505 0.0
C556 C 0.58168 0.65237 0.27994 0.0
C557 C 0.59589 0.66244 0.29429 0.0
C558 C 0.56907 0.67963 0.26983 0.0
C559 C 0.57044 0.71732 0.27395 0.0
C560 C 0.58372 0.72718 0.28845 0.0
H561 H 0.43869 0.83987 0.3067 0.0
H562 H 0.46782 0.79541 0.2897 0.0
C563 C 0.59656 0.70011 0.29846 0.0
C564 C 0.55268 0.74637 0.26454 0.0
H565 H 0.55896 0.84058 0.26491 0.0
C566 C 0.51451 0.74251 0.26152 0.0
C567 C 0.56936 0.78187 0.26314 0.0
C568 C 0.61103 0.78696 0.26357 0.0
C569 C 0.49165 0.77405 0.26105 0.0
C570 C 0.5076 0.80916 0.2643 0.0
C571 C 0.54639 0.81336 0.26336 0.0
C572 C 0.48682 0.83677 0.2734 0.0
C573 C 0.45022 0.76909 0.25918 0.0
C574 C 0.48965 0.87503 0.27044 0.0
C575 C 0.474 0.90071 0.28051 0.0
C576 C 0.4552 0.88848 0.29365 0.0
C577 C 0.45287 0.85021 0.29667 0.0
C578 C 0.46876 0.82469 0.28672 0.0
H579 H 0.44441 0.74882 0.24994 0.0
H580 H 0.43822 0.75743 0.2698 0.0
H581 H 0.43617 0.7959 0.25651 0.0
H582 H 0.50439 0.88501 0.26048 0.0
H583 H 0.4767 0.93009 0.27801 0.0
H584 H 0.09325 0.84552 0.56026 0.0
H585 H 0.04625 0.81848 0.54368 0.0
H586 H 0.12703 0.80881 0.50753 0.0
H587 H 0.17479 0.83431 0.52437 0.0
H588 H 1.02069 0.84453 0.51456 0.0
H589 H 0.08484 0.70324 0.51099 0.0
H590 H 0.10247 0.73561 0.52492 0.0
H591 H 0.10979 0.74431 0.50503 0.0
C592 C 0.10117 0.83734 0.54885 0.0
C593 C 0.13773 0.84203 0.54363 0.0
C594 C 0.07422 0.82235 0.53931 0.0
C595 C 0.08315 0.81217 0.52432 0.0
C596 C 0.11964 0.81653 0.51904 0.0
H597 H 0.86822 0.7109 0.52554 0.0
H598 H 0.91371 0.73932 0.5083 0.0
C599 C 0.14685 0.83105 0.52871 0.0
C600 C 0.05391 0.79459 0.51504 0.0
H601 H 1.01969 0.70656 0.5133 0.0
C602 C 1.02042 0.8144 0.51346 0.0
C603 C 0.05409 0.75558 0.51292 0.0
C604 C 0.08966 0.73323 0.51347 0.0
C605 C 0.98632 0.79553 0.51364 0.0
C606 C 0.98663 0.75637 0.51506 0.0
C607 C 1.01995 0.73677 0.51272 0.0
C608 C 0.95857 0.73809 0.52468 0.0
C609 C 0.95075 0.81762 0.51501 0.0
C610 C 0.96887 0.7285 0.5396 0.0
C611 C 0.9433 0.71221 0.5494 0.0
C612 C 0.9068 0.70554 0.54451 0.0
C613 C 0.89621 0.71592 0.52965 0.0
C614 C 0.92207 0.73195 0.51975 0.0
H615 H 0.95501 0.84756 0.51225 0.0
H616 H 0.9293 0.80611 0.50723 0.0
H617 H 0.93994 0.81551 0.52681 0.0
H618 H 0.99689 0.73373 0.54367 0.0
H619 H 0.95224 0.70452 0.56075 0.0
H620 H 0.08305 0.12401 0.77617 0.0
H621 H 0.06144 0.17318 0.75901 0.0
H622 H 0.08052 0.25473 0.79425 0.0
H623 H 0.10292 0.20628 0.81122 0.0
H624 H 1.00348 0.21731 0.76172 0.0
H625 H 0.12384 0.30951 0.75868 0.0
H626 H 0.12855 0.26061 0.7634 0.0
H627 H 0.12095 0.29497 0.77811 0.0
C628 C 0.08265 0.15249 0.78024 0.0
C629 C 0.09468 0.16139 0.79506 0.0
C630 C 0.07078 0.18051 0.77034 0.0
C631 C 0.07091 0.21772 0.77512 0.0
C632 C 0.08189 0.22638 0.79005 0.0
H633 H 0.93958 0.34227 0.80661 0.0
H634 H 0.96907 0.29755 0.7898 0.0
C635 C 0.09391 0.19856 0.79989 0.0
C636 C 0.05464 0.24749 0.76568 0.0
H637 H 0.06272 0.34151 0.76668 0.0
C638 C 1.01677 0.24446 0.76198 0.0
C639 C 0.07216 0.28268 0.76485 0.0
C640 C 0.11379 0.28689 0.76628 0.0
C641 C 0.99458 0.27645 0.76128 0.0
C642 C 1.01089 0.31114 0.76494 0.0
C643 C 0.04981 0.31459 0.76474 0.0
C644 C 0.98982 0.33887 0.77384 0.0
C645 C 0.95326 0.27235 0.75877 0.0
C646 C 0.99348 0.37711 0.771 0.0
C647 C 0.9776 0.40288 0.78097 0.0
C648 C 0.95778 0.39074 0.79387 0.0
C649 C 0.95463 0.35249 0.79677 0.0
C650 C 0.97071 0.32686 0.78692 0.0
H651 H 0.94787 0.25221 0.74944 0.0
H652 H 0.94006 0.26093 0.7692 0.0
H653 H 0.93999 0.29944 0.75591 0.0
H654 H 1.00906 0.38699 0.76125 0.0
H655 H 0.98093 0.43226 0.77857 0.0
H656 H 0.59417 0.85009 0.94577 0.0
H657 H 0.54706 0.82406 0.96248 0.0
H658 H 0.63086 0.79989 0.99629 0.0
H659 H 0.67872 0.82545 0.97938 0.0
H660 H 0.58681 0.74139 0.99185 0.0
H661 H 0.49475 0.86051 1.00006 0.0
H662 H 0.50783 0.86136 0.98042 0.0
H663 H 0.54323 0.86632 0.9949 0.0
C664 C 0.60267 0.83929 0.95674 0.0
C665 C 0.6401 0.8397 0.96122 0.0
C666 C 0.57562 0.82509 0.96644 0.0
C667 C 0.58531 0.81147 0.9809 0.0
C668 C 0.62277 0.81115 0.98534 0.0
H669 H 0.36983 0.72261 0.97825 0.0
H670 H 0.4173 0.74727 0.99546 0.0
C671 C 0.65001 0.82532 0.97558 0.0
C672 C 0.55628 0.79308 0.99007 0.0
H673 H 0.46227 0.801 0.99079 0.0
C674 C 0.55966 0.75457 0.99244 0.0
C675 C 0.52118 0.81024 0.99195 0.0
C676 C 0.51679 0.85203 0.99189 0.0
C677 C 0.52777 0.73217 0.99294 0.0
C678 C 0.49271 0.74902 0.99042 0.0
C679 C 0.48933 0.78782 0.99186 0.0
C680 C 0.46376 0.72947 0.98157 0.0
C681 C 0.53219 0.69049 0.99414 0.0
C682 C 0.47403 0.71225 0.96783 0.0
C683 C 0.44714 0.69811 0.95805 0.0
C684 C 0.40927 0.70141 0.96165 0.0
C685 C 0.39884 0.71926 0.97526 0.0
C686 C 0.4259 0.73314 0.98516 0.0
H687 H 0.55309 0.68354 0.00302 0.0
H688 H 0.50543 0.67654 0.99696 0.0
H689 H 0.54282 0.67929 0.9832 0.0
H690 H 0.50295 0.71072 0.96438 0.0
H691 H 0.45611 0.68459 0.94766 0.0
H692 H 0.58165 0.11769 0.73064 0.0
H693 H 0.55528 0.16538 0.74738 0.0
H694 H 0.56308 0.24583 0.711 0.0
H695 H 0.59029 0.19889 0.69438 0.0
H696 H 0.59137 0.26974 0.74121 0.0
H697 H 0.44834 0.2098 0.74276 0.0
H698 H 0.48886 0.18297 0.74805 0.0
H699 H 0.4799 0.1929 0.72838 0.0
C700 C 0.57753 0.14554 0.72619 0.0
C701 C 0.58792 0.15467 0.71116 0.0
C702 C 0.5627 0.17266 0.73582 0.0
C703 C 0.55777 0.209 0.73045 0.0
C704 C 0.56739 0.21791 0.71539 0.0
H705 H 0.45723 0.34705 0.69352 0.0
H706 H 0.48401 0.29987 0.71019 0.0
C707 C 0.5825 0.19104 0.70585 0.0
C708 C 0.54049 0.23825 0.73976 0.0
H709 H 0.45358 0.27525 0.73986 0.0
C710 C 0.5612 0.27102 0.7418 0.0
C711 C 0.50136 0.2393 0.74115 0.0
C712 C 0.47811 0.2044 0.74008 0.0
C713 C 0.54351 0.30575 0.74139 0.0
C714 C 0.50457 0.30675 0.73925 0.0
C715 C 0.48365 0.27402 0.74102 0.0
C716 C 0.48806 0.33623 0.72981 0.0
C717 C 0.56687 0.34062 0.74059 0.0
C718 C 0.48261 0.37239 0.73527 0.0
C719 C 0.46803 0.39964 0.72563 0.0
C720 C 0.45838 0.39082 0.7105 0.0
C721 C 0.46444 0.35465 0.70507 0.0
C722 C 0.47932 0.32766 0.71464 0.0
H723 H 0.59641 0.33521 0.74366 0.0
H724 H 0.56598 0.35215 0.72888 0.0
H725 H 0.55553 0.36205 0.74842 0.0
H726 H 0.4893 0.37941 0.74693 0.0
H727 H 0.46344 0.42731 0.73017 0.0
H728 H 0.1764 0.33244 0.47914 0.0
H729 H 0.12695 0.3079 0.49555 0.0
H730 H 0.05037 0.31175 0.45776 0.0
H731 H 0.09902 0.33693 0.44142 0.0
H732 H 0.02748 0.3487 0.48766 0.0
H733 H 0.07485 0.20131 0.49215 0.0
H734 H 0.10561 0.24023 0.49569 0.0
H735 H 0.09276 0.22858 0.47655 0.0
C736 C 0.14909 0.32766 0.4743 0.0
C737 C 0.14139 0.33676 0.45901 0.0
C738 C 0.12099 0.31387 0.48372 0.0
C739 C 0.08518 0.30874 0.47787 0.0
C740 C 0.07791 0.31624 0.46248 0.0
H741 H 0.92357 0.24182 0.44261 0.0
H742 H 0.9693 0.27501 0.45825 0.0
C743 C 0.10573 0.33027 0.45313 0.0
C744 C 0.05434 0.29497 0.48724 0.0
H745 H 1.00971 0.21179 0.48912 0.0
C746 C 0.02365 0.31884 0.48889 0.0
C747 C 0.04982 0.25626 0.4893 0.0
C748 C 0.08249 0.22993 0.48845 0.0
C749 C 0.98755 0.30429 0.48912 0.0
C750 C 0.98293 0.26542 0.48791 0.0
C751 C 1.01367 0.24174 0.48971 0.0
C752 C 0.95113 0.2503 0.4795 0.0
C753 C 0.9548 0.33045 0.48826 0.0
C754 C 0.92629 0.22553 0.48637 0.0
C755 C 0.9001 0.20695 0.47748 0.0
C756 C 0.89913 0.21239 0.46163 0.0
C757 C 0.92385 0.23741 0.4548 0.0
C758 C 0.94953 0.25653 0.46373 0.0
H759 H 0.96099 0.35718 0.49412 0.0
H760 H 0.94876 0.33676 0.47614 0.0
H761 H 0.92959 0.31764 0.49339 0.0
H762 H 0.92794 0.21979 0.49845 0.0
H763 H 0.88181 0.187 0.4829 0.0
H764 H 0.08776 0.62217 0.23014 0.0
H765 H 0.06405 0.67048 0.24728 0.0
H766 H 0.06555 0.74952 0.21026 0.0
H767 H 0.0901 0.702 0.19323 0.0
H768 H 0.0989 0.77483 0.23931 0.0
H769 H 0.9567 0.7148 0.24567 0.0
H770 H 0.99812 0.68825 0.24992 0.0
H771 H 0.98558 0.69726 0.23049 0.0
C772 C 0.08275 0.64983 0.22564 0.0
C773 C 0.09066 0.65841 0.21032 0.0
C774 C 0.06947 0.67732 0.23549 0.0
C775 C 0.0636 0.71348 0.23005 0.0
C776 C 0.07063 0.72178 0.2147 0.0
H777 H 0.95959 0.8487 0.19454 0.0
H778 H 0.98927 0.80311 0.2111 0.0
C779 C 0.08421 0.69457 0.20493 0.0
C780 C 0.04798 0.74317 0.23964 0.0
H781 H 0.96124 0.78012 0.24213 0.0
C782 C 0.06892 0.77606 0.24082 0.0
C783 C 1.00921 0.74426 0.24223 0.0
C784 C 0.9859 0.7093 0.24213 0.0
C785 C 0.0511 0.81076 0.24075 0.0
C786 C 1.0119 0.81165 0.23978 0.0
C787 C 0.99144 0.77897 0.24241 0.0
C788 C 0.99385 0.84037 0.23041 0.0
C789 C 0.07411 0.84565 0.23901 0.0
C790 C 0.98768 0.87656 0.23572 0.0
C791 C 0.97125 0.90292 0.22614 0.0
C792 C 0.96061 0.89317 0.21122 0.0
C793 C 0.96746 0.85701 0.20594 0.0
C794 C 0.98407 0.83091 0.21544 0.0
H795 H 0.1039 0.8407 0.24179 0.0
H796 H 0.07226 0.85573 0.22709 0.0
H797 H 0.0632 0.86793 0.24654 0.0
H798 H 0.99525 0.88426 0.24722 0.0
H799 H 0.96608 0.93063 0.23056 0.0
H800 H 0.44733 0.08783 0.05736 0.0
H801 H 0.49758 0.06856 0.0407 0.0
H802 H 0.41752 1.02174 0.00949 0.0
H803 H 0.36653 0.04456 0.02571 0.0
H804 H 0.52773 1.01318 0.03233 0.0
H805 H 0.47497 0.06904 0.97799 0.0
H806 H 0.45193 0.07853 0.99574 0.0
H807 H 0.44326 0.03548 0.98569 0.0
C808 C 0.44013 0.07327 0.04697 0.0
C809 C 0.4024 0.0676 0.04308 0.0
C810 C 0.46931 0.06213 0.03731 0.0
C811 C 0.46239 0.04389 0.02339 0.0
C812 C 0.42454 0.03693 0.01971 0.0
H813 H 0.65598 0.92747 0.98155 0.0
H814 H 0.60331 0.94619 0.99724 0.0
C815 C 0.39505 0.0494 0.0292 0.0
C816 C 0.49501 0.03197 0.01326 0.0
H817 H 0.52695 0.02823 0.97639 0.0
C818 C 0.52733 1.01702 0.02011 0.0
C819 C 0.496 0.03705 0.99718 0.0
C820 C 0.46487 0.05628 0.98874 0.0
C821 C 0.55973 1.00762 0.01171 0.0
C822 C 0.55987 1.01045 0.99555 0.0
C823 C 0.52756 0.02531 0.98865 0.0
C824 C 0.59294 0.9986 0.98567 0.0
C825 C 0.59399 0.99654 0.02059 0.0
C826 C 0.60469 1.02014 0.97305 0.0
C827 C 0.63428 1.0084 0.96354 0.0
C828 C 0.65413 0.97532 0.96657 0.0
C829 C 0.64269 0.95396 0.9792 0.0
C830 C 0.61228 0.96491 0.98832 0.0
H831 H 0.59404 1.00946 0.03207 0.0
H832 H 0.59408 0.96588 0.02224 0.0
H833 H 0.61998 1.00499 0.01468 0.0
H834 H 0.59071 0.04609 0.9704 0.0
H835 H 0.64148 0.02512 0.95371 0.0
H836 H 0.71629 0.62439 0.27138 0.0
H837 H 0.73664 0.67588 0.25495 0.0
H838 H 0.77385 0.73672 0.29433 0.0
H839 H 0.75396 0.68543 0.31073 0.0
H840 H 0.71211 0.74806 0.25392 0.0
H841 H 0.86278 0.75097 0.26705 0.0
H842 H 0.83333 0.71235 0.27237 0.0
H843 H 0.83414 0.7541 0.28372 0.0
C844 C 0.72974 0.64822 0.27656 0.0
C845 C 0.73385 0.65 0.29252 0.0
C846 C 0.7411 0.67806 0.2671 0.0
C847 C 0.75737 0.7106 0.2732 0.0
C848 C 0.76228 0.71199 0.28909 0.0
H849 H 0.83559 0.92629 0.23581 0.0
H850 H 0.81479 0.87518 0.25234 0.0
C851 C 0.75079 0.68233 0.29855 0.0
C852 C 0.76745 0.7436 0.26314 0.0
H853 H 0.83875 0.80316 0.25353 0.0
C854 C 0.73994 0.75982 0.25379 0.0
C855 C 0.80363 0.75973 0.26286 0.0
C856 C 0.83528 0.74322 0.27192 0.0
C857 C 0.74724 0.79149 0.24458 0.0
C858 C 0.78344 0.80759 0.24429 0.0
C859 C 0.81093 0.7914 0.25365 0.0
C860 C 0.79364 0.84048 0.23417 0.0
C861 C 0.71557 0.80803 0.23555 0.0
C862 C 0.78868 0.83897 0.21828 0.0
C863 C 0.80046 0.86841 0.20876 0.0
C864 C 0.81773 0.90063 0.21473 0.0
C865 C 0.8219 0.90254 0.23068 0.0
C866 C 0.81026 0.87293 0.2402 0.0
H867 H 0.68809 0.8004 0.24047 0.0
H868 H 0.71761 0.83889 0.23504 0.0
H869 H 0.71656 0.79705 0.22376 0.0
H870 H 0.77686 0.8143 0.21309 0.0
H871 H 0.79718 0.86524 0.19659 0.0
H872 H 0.11203 1.00076 0.55932 0.0
H873 H 0.06029 1.0208 0.54321 0.0
H874 H 0.12154 0.98767 0.50334 0.0
H875 H 0.17379 0.96751 0.51948 0.0
H876 H 0.08299 0.05504 0.49884 0.0
H877 H 0.98613 0.95062 0.52307 0.0
H878 H 1.00695 0.98041 0.5371 0.0
H879 H 0.03572 0.94893 0.52635 0.0
C880 C 0.11501 0.99818 0.54711 0.0
C881 C 0.14771 0.98249 0.54085 0.0
C882 C 0.0849 1.00932 0.53785 0.0
C883 C 0.08607 1.0051 0.52193 0.0
C884 C 0.11936 0.99111 0.51555 0.0
H885 H 0.93096 0.05212 0.44615 0.0
H886 H 0.98272 0.0319 0.46219 0.0
C887 C 0.14956 0.97978 0.52484 0.0
C888 C 0.05259 1.01491 0.5121 0.0
H889 H 0.95953 0.99598 0.50666 0.0
C890 C 0.05612 0.04188 0.50054 0.0
C891 C 1.01702 0.99813 0.51414 0.0
C892 C 1.01114 0.96766 0.52573 0.0
C893 C 0.02548 0.05296 0.49137 0.0
C894 C 0.98991 0.03614 0.49339 0.0
C895 C 0.98639 1.00916 0.50496 0.0
C896 C 0.9564 0.04594 0.48356 0.0
C897 C 0.0314 0.0836 0.47986 0.0
C898 C 0.92274 0.05892 0.48998 0.0
C899 C 0.89246 0.07023 0.48072 0.0
C900 C 0.89466 0.0686 0.46469 0.0
C901 C 0.92775 0.05391 0.45837 0.0
C902 C 0.95788 0.0427 0.46761 0.0
H903 H 0.05609 0.10093 0.4827 0.0
H904 H 0.03625 0.07101 0.46851 0.0
H905 H 1.00664 0.10206 0.4791 0.0
H906 H 0.92028 0.06157 0.50221 0.0
H907 H 0.8679 0.08168 0.48613 0.0
H908 H 0.79367 0.36514 0.80852 0.0
H909 H 0.77362 0.3134 0.79233 0.0
H910 H 0.81587 0.37092 0.75294 0.0
H911 H 0.83639 0.42274 0.76914 0.0
H912 H 0.726 0.3048 0.76841 0.0
H913 H 0.86857 0.27188 0.74844 0.0
H914 H 0.85991 0.3036 0.76396 0.0
H915 H 0.85454 0.31897 0.74461 0.0
C916 C 0.79825 0.36726 0.79638 0.0
C917 C 0.81666 0.39872 0.79027 0.0
C918 C 0.78684 0.33728 0.78706 0.0
C919 C 0.79378 0.33724 0.77129 0.0
C920 C 0.8108 0.36931 0.76506 0.0
H921 H 0.75149 0.17812 0.69677 0.0
H922 H 0.77166 0.2298 0.71296 0.0
C923 C 0.82209 0.39945 0.77437 0.0
C924 C 0.7835 0.30367 0.76156 0.0
H925 H 0.81927 0.23842 0.73687 0.0
C926 C 0.74655 0.2903 0.76158 0.0
C927 C 0.80995 0.28411 0.75253 0.0
C928 C 0.85053 0.29505 0.75244 0.0
C929 C 0.73532 0.25912 0.75276 0.0
C930 C 0.76177 0.23955 0.74373 0.0
C931 C 0.79871 0.25292 0.7437 0.0
C932 C 0.7515 0.20597 0.734 0.0
C933 C 0.69474 0.24816 0.75284 0.0
C934 C 0.73447 0.17392 0.74024 0.0
C935 C 0.72312 0.1438 0.73093 0.0
C936 C 0.72848 0.14454 0.71502 0.0
C937 C 0.74695 0.17598 0.70892 0.0
C938 C 0.75843 0.20593 0.71823 0.0
H939 H 0.67665 0.27138 0.75676 0.0
H940 H 0.6854 0.23942 0.74134 0.0
H941 H 0.69073 0.22436 0.76074 0.0
H942 H 0.72941 0.17231 0.75236 0.0
H943 H 0.70881 0.12054 0.73616 0.0
H944 H 0.33215 0.42681 0.73558 0.0
H945 H 0.31183 0.37478 0.75182 0.0
H946 H 0.27916 0.3129 0.71206 0.0
H947 H 0.29948 0.36437 0.69585 0.0
H948 H 0.2451 0.33638 0.75657 0.0
H949 H 0.34855 0.23868 0.73228 0.0
H950 H 0.35028 0.28821 0.72878 0.0
H951 H 0.3186 0.25919 0.71824 0.0
C952 C 0.31999 0.40247 0.73026 0.0
C953 C 0.31753 0.40036 0.71425 0.0
C954 C 0.30855 0.3724 0.73962 0.0
C955 C 0.29463 0.33898 0.73331 0.0
C956 C 0.29061 0.33758 0.71738 0.0
H957 H 0.21608 0.12204 0.76981 0.0
H958 H 0.23589 0.1742 0.75354 0.0
C959 C 0.30191 0.36754 0.70805 0.0
C960 C 0.28475 0.30561 0.74322 0.0
H961 H 0.30312 0.21238 0.74874 0.0
C962 C 0.25804 0.3094 0.75486 0.0
C963 C 0.30125 0.26988 0.74119 0.0
C964 C 0.33151 0.26367 0.72955 0.0
C965 C 0.24699 0.27889 0.76413 0.0
C966 C 0.2635 0.24317 0.76209 0.0
C967 C 0.29018 0.23937 0.75044 0.0
C968 C 0.25372 0.2098 0.77201 0.0
C969 C 0.21681 0.28507 0.7758 0.0
C970 C 0.25824 0.21108 0.78792 0.0
C971 C 0.2473 0.18101 0.79726 0.0
C972 C 0.23149 0.14824 0.7911 0.0
C973 C 0.22842 0.14632 0.7751 0.0
C974 C 0.23956 0.17647 0.76573 0.0
H975 H 0.19978 0.31008 0.77311 0.0
H976 H 0.19805 0.26053 0.77658 0.0
H977 H 0.22981 0.28948 0.7871 0.0
H978 H 0.26984 0.23573 0.79321 0.0
H979 H 0.25014 0.18407 0.80946 0.0
H980 H 0.29245 0.86393 0.30864 0.0
H981 H 0.27262 0.81281 0.29207 0.0
H982 H 0.31338 0.87283 0.25304 0.0
H983 H 0.33368 0.924 0.2696 0.0
H984 H 0.22468 0.80496 0.26803 0.0
H985 H 0.3677 0.7748 0.24783 0.0
H986 H 0.35866 0.80541 0.26368 0.0
H987 H 0.35309 0.82193 0.2445 0.0
C988 C 0.29671 0.86673 0.2965 0.0
C989 C 0.31469 0.89866 0.2906 0.0
C990 C 0.28543 0.83713 0.28697 0.0
C991 C 0.29209 0.838 0.27118 0.0
C992 C 0.30858 0.87055 0.26516 0.0
H993 H 0.25174 0.6821 0.19546 0.0
H994 H 0.27117 0.73335 0.21203 0.0
C995 C 0.31973 0.90031 0.27468 0.0
C996 C 0.28223 0.8048 0.2612 0.0
H997 H 0.3189 0.74121 0.23605 0.0
C998 C 0.24543 0.79103 0.2611 0.0
C999 C 0.30895 0.78602 0.25205 0.0
C1000 C 0.34938 0.79748 0.25208 0.0
C1001 C 0.23462 0.76015 0.25202 0.0
C1002 C 0.26137 0.74136 0.24288 0.0
C1003 C 0.29815 0.75514 0.24298 0.0
C1004 C 0.25162 0.70814 0.2329 0.0
C1005 C 0.19418 0.74869 0.25196 0.0
C1006 C 0.23524 0.67552 0.23892 0.0
C1007 C 0.22437 0.64567 0.2294 0.0
C1008 C 0.22955 0.64729 0.21349 0.0
C1009 C 0.24739 0.67931 0.2076 0.0
C1010 C 0.25841 0.709 0.21713 0.0
H1011 H 0.17577 0.77146 0.25608 0.0
H1012 H 0.18502 0.74045 0.24038 0.0
H1013 H 0.19043 0.72441 0.25964 0.0
H1014 H 0.23032 0.67327 0.25103 0.0
H1015 H 0.21051 0.62193 0.23447 0.0
H1016 H 0.17687 0.46518 0.48476 0.0
H1017 H 0.12507 0.48487 0.50118 0.0
H1018 H 0.06048 0.51337 0.46159 0.0
H1019 H 0.11179 0.49366 0.44519 0.0
H1020 H 0.08558 0.55066 0.50557 0.0
H1021 H 0.98884 0.44381 0.48321 0.0
H1022 H 0.03815 0.44294 0.47925 0.0
H1023 H 1.00785 0.47333 0.46866 0.0
C1024 C 0.15197 0.47624 0.4795 0.0
C1025 C 0.14911 0.47775 0.46349 0.0
C1026 C 0.12202 0.48733 0.48897 0.0
C1027 C 0.08796 0.49992 0.48278 0.0
C1028 C 0.0857 0.50293 0.46683 0.0
H1029 H 0.8719 0.57734 0.52032 0.0
H1030 H 0.92338 0.55707 0.50381 0.0
C1031 C 0.11556 0.492 0.45739 0.0
C1032 C 0.05491 0.50969 0.49287 0.0
H1033 H 0.96242 0.48988 0.49937 0.0
C1034 C 0.05879 0.53712 0.50422 0.0
C1035 C 1.01944 0.49236 0.49131 0.0
C1036 C 1.01326 0.46123 0.48006 0.0
C1037 C 0.02859 0.54812 0.51364 0.0
C1038 C 0.99311 0.53087 0.51206 0.0
C1039 C 0.98922 0.50342 0.50071 0.0
C1040 C 0.96011 0.54071 0.52215 0.0
C1041 C 0.03482 0.57906 0.52497 0.0
C1042 C 0.96227 0.53715 0.53809 0.0
C1043 C 0.93261 0.54838 0.54757 0.0
C1044 C 0.89939 0.56351 0.54153 0.0
C1045 C 0.89657 0.56556 0.52553 0.0
C1046 C 0.92632 0.55414 0.51601 0.0
H1047 H 0.05947 0.59627 0.52196 0.0
H1048 H 1.01007 0.59755 0.52572 0.0
H1049 H 0.03982 0.56676 0.53637 0.0
H1050 H 0.98729 0.52611 0.54328 0.0
H1051 H 0.93633 0.5463 0.55976 0.0
H1052 H 0.671 0.45987 0.02032 0.0
H1053 H 0.61919 0.4801 0.00407 0.0
H1054 H 0.56204 0.5233 0.04335 0.0
H1055 H 0.61369 0.50346 0.05958 0.0
H1056 H 0.54635 0.45761 0.00428 0.0
H1057 H 0.54866 0.60974 0.01452 0.0
H1058 H 0.58677 0.57974 0.01995 0.0
H1059 H 0.54592 0.58304 0.03174 0.0
C1060 C 0.64795 0.4746 0.0255 0.0
C1061 C 0.64731 0.4804 0.04138 0.0
C1062 C 0.61792 0.4859 0.01614 0.0
C1063 C 0.58631 0.50382 0.02228 0.0
C1064 C 0.58605 0.51041 0.03808 0.0
H1065 H 0.37071 0.58411 0.98568 0.0
H1066 H 0.42227 0.56372 1.00205 0.0
C1067 C 0.61591 0.49894 0.04744 0.0
C1068 C 0.55301 0.5138 0.01238 0.0
H1069 H 0.49506 0.58581 1.00198 0.0
C1070 C 0.53542 0.48576 0.00374 0.0
C1071 C 0.53796 0.55043 0.01156 0.0
C1072 C 0.55597 0.58257 0.01981 0.0
C1073 C 0.50345 0.49299 0.99471 0.0
C1074 C 0.4884 0.52962 0.99389 0.0
C1075 C 0.50598 0.55766 1.00253 0.0
C1076 C 0.4552 0.53963 0.98393 0.0
C1077 C 0.48547 0.46085 0.98645 0.0
C1078 C 0.45554 0.53285 0.96814 0.0
C1079 C 0.42583 0.54437 0.95873 0.0
C1080 C 0.3945 0.56319 0.9647 0.0
C1081 C 0.39373 0.56916 0.98057 0.0
C1082 C 0.42361 0.55778 0.98999 0.0
H1083 H 0.49272 0.4337 0.99177 0.0
H1084 H 0.45467 0.4637 0.98627 0.0
H1085 H 0.49563 0.4603 0.97453 0.0
H1086 H 0.47954 0.5198 0.96293 0.0
H1087 H 0.42816 0.53971 0.9466 0.0
H1088 H 0.24677 0.2496 0.07837 0.0
H1089 H 0.22997 0.30798 0.09138 0.0
H1090 H 0.31755 0.28959 0.12404 0.0
H1091 H 0.3344 0.2317 0.11125 0.0
H1092 H 0.20822 0.32159 0.12212 0.0
H1093 H 0.33955 0.3956 0.1085 0.0
H1094 H 0.32527 0.35367 0.09875 0.0
H1095 H 0.34643 0.35088 0.11725 0.0
C1096 C 0.26235 0.25791 0.08836 0.0
C1097 C 0.2921 0.2358 0.09366 0.0
C1098 C 0.25276 0.29138 0.09578 0.0
C1099 C 0.27294 0.30375 0.10856 0.0
C1100 C 0.30202 0.28128 0.11404 0.0
H1101 H 0.21526 0.46154 0.17938 0.0
H1102 H 0.23251 0.40781 0.16388 0.0
C1103 C 0.31147 0.24788 0.10671 0.0
C1104 C 0.26357 0.33974 0.11637 0.0
H1105 H 0.30064 0.42368 0.12728 0.0
C1106 C 0.22836 0.34398 0.12314 0.0
C1107 C 0.28958 0.36936 0.11762 0.0
C1108 C 0.32722 0.36744 0.11003 0.0
C1109 C 0.219 0.37624 0.1315 0.0
C1110 C 0.2456 0.40515 0.13331 0.0
C1111 C 0.28033 0.4015 0.12609 0.0
C1112 C 0.23797 0.43885 0.14292 0.0
C1113 C 0.18055 0.37914 0.13832 0.0
C1114 C 0.23685 0.47482 0.13653 0.0
C1115 C 0.22708 0.50596 0.14544 0.0
C1116 C 0.21854 0.50187 0.161 0.0
C1117 C 0.22154 0.46601 0.16747 0.0
C1118 C 0.23111 0.43502 0.15857 0.0
H1119 H 0.16063 0.35978 0.13274 0.0
H1120 H 0.18193 0.37179 0.15057 0.0
H1121 H 0.16961 0.408 0.13736 0.0
H1122 H 0.2423 0.47866 0.12451 0.0
H1123 H 0.22488 0.53297 0.14001 0.0
H1124 H 0.54773 0.50145 0.32942 0.0
H1125 H 0.49 0.48504 0.3429 0.0
H1126 H 0.51002 0.57318 0.37515 0.0
H1127 H 0.56731 0.58978 0.36181 0.0
H1128 H 0.47765 0.46307 0.37317 0.0
H1129 H 0.40353 0.59531 0.36115 0.0
H1130 H 0.44516 0.58158 0.35108 0.0
H1131 H 0.44844 0.60183 0.36974 0.0
C1132 C 0.53989 0.51731 0.33939 0.0
C1133 C 0.56228 0.54712 0.34442 0.0
C1134 C 0.50679 0.50791 0.3471 0.0
C1135 C 0.49506 0.52831 0.35992 0.0
C1136 C 0.5178 0.55751 0.36512 0.0
H1137 H 0.33819 0.46493 0.43072 0.0
H1138 H 0.392 0.4836 0.41553 0.0
C1139 C 0.55084 0.56681 0.35749 0.0
C1140 C 0.45953 0.51885 0.36806 0.0
H1141 H 0.37612 0.55552 0.3798 0.0
C1142 C 0.45541 0.48325 0.37453 0.0
C1143 C 0.43006 0.5449 0.36974 0.0
C1144 C 0.43173 0.58293 0.36244 0.0
C1145 C 0.42341 0.47346 0.38296 0.0
C1146 C 0.39465 0.50004 0.38518 0.0
C1147 C 0.39821 0.53523 0.3783 0.0
C1148 C 0.36098 0.49174 0.39471 0.0
C1149 C 0.42055 0.43452 0.38934 0.0
C1150 C 0.325 0.49175 0.38835 0.0
C1151 C 0.29384 0.48123 0.39709 0.0
C1152 C 0.29788 0.47074 0.41246 0.0
C1153 C 0.33375 0.47268 0.41895 0.0
C1154 C 0.36478 0.48305 0.41021 0.0
H1155 H 0.43961 0.41491 0.38342 0.0
H1156 H 0.42832 0.43497 0.40155 0.0
H1157 H 0.39163 0.42375 0.38841 0.0
H1158 H 0.32115 0.49865 0.37646 0.0
H1159 H 0.26683 0.48006 0.39165 0.0
H1160 H 0.19681 0.80458 0.60324 0.0
H1161 H 0.21272 0.74786 0.61698 0.0
H1162 H 0.32511 0.75417 0.59984 0.0
H1163 H 0.30846 0.81024 0.58521 0.0
H1164 H 0.30558 0.68498 0.60003 0.0
H1165 H 0.26419 0.73971 0.65612 0.0
H1166 H 0.22539 0.74063 0.64335 0.0
H1167 H 0.26586 0.76897 0.6395 0.0
C1168 C 0.22504 0.79411 0.60242 0.0
C1169 C 0.25147 0.81244 0.59323 0.0
C1170 C 0.23424 0.76162 0.61044 0.0
C1171 C 0.27056 0.74694 0.60999 0.0
C1172 C 0.29695 0.76484 0.60059 0.0
H1173 H 0.34903 0.59099 0.67881 0.0
H1174 H 0.33148 0.64434 0.66339 0.0
C1175 C 0.28747 0.79706 0.59224 0.0
C1176 C 0.28054 0.71282 0.61916 0.0
H1177 H 0.27273 0.67387 0.65459 0.0
C1178 C 0.29864 0.68275 0.612 0.0
C1179 C 0.27223 0.70962 0.6349 0.0
C1180 C 0.25625 0.74163 0.64393 0.0
C1181 C 0.30819 0.64986 0.61999 0.0
C1182 C 0.29806 0.64592 0.63553 0.0
C1183 C 0.28017 0.67615 0.64267 0.0
C1184 C 0.30777 0.6121 0.64496 0.0
C1185 C 0.33025 0.62036 0.61172 0.0
C1186 C 0.29984 0.57542 0.64012 0.0
C1187 C 0.31069 0.54435 0.64892 0.0
C1188 C 0.3287 0.54917 0.66301 0.0
C1189 C 0.33498 0.58588 0.66811 0.0
C1190 C 0.32495 0.6167 0.65922 0.0
H1191 H 0.34544 0.63221 0.60182 0.0
H1192 H 0.3508 0.60679 0.61936 0.0
H1193 H 0.31091 0.59877 0.60733 0.0
H1194 H 0.28545 0.57067 0.62949 0.0
H1195 H 0.30535 0.51659 0.6446 0.0
H1196 H 0.99866 0.5513 0.82885 0.0
H1197 H 0.0562 0.56733 0.84256 0.0
H1198 H 0.03549 0.47853 0.87447 0.0
H1199 H 0.97838 0.46234 0.86092 0.0
H1200 H 0.06864 0.58846 0.87301 0.0
H1201 H 0.14198 0.45615 0.86039 0.0
H1202 H 0.10051 0.47049 0.85035 0.0
H1203 H 0.09697 0.44969 0.8689 0.0
C1204 C 1.00626 0.53526 0.83882 0.0
C1205 C 0.98373 0.50536 0.84368 0.0
C1206 C 0.03928 0.54443 0.84665 0.0
C1207 C 0.05081 0.52371 0.85942 0.0
C1208 C 0.02788 0.49447 0.86447 0.0
H1209 H 0.20807 0.58338 0.93067 0.0
H1210 H 0.15414 0.56622 0.91528 0.0
C1211 C 0.99492 0.48541 0.85673 0.0
C1212 C 0.08641 0.53274 0.86763 0.0
H1213 H 0.16965 0.49523 0.87919 0.0
C1214 C 0.09076 0.5681 0.87427 0.0
C1215 C 0.11575 0.50648 0.86919 0.0
C1216 C 0.11386 0.46869 0.86172 0.0
C1217 C 0.12284 0.57743 0.88276 0.0
C1218 C 0.15148 0.55065 0.88485 0.0
C1219 C 0.14768 0.5157 0.87779 0.0
C1220 C 0.1852 0.5584 0.89446 0.0
C1221 C 0.1259 0.61615 0.88933 0.0
C1222 C 0.22126 0.55818 0.88816 0.0
C1223 C 0.25251 0.56786 0.89702 0.0
C1224 C 0.24851 0.57768 0.91245 0.0
C1225 C 0.21251 0.57611 0.91886 0.0
C1226 C 0.1814 0.5666 0.91 0.0
H1227 H 0.107 0.63606 0.88349 0.0
H1228 H 0.11804 0.61534 0.90153 0.0
H1229 H 0.15489 0.62676 0.88849 0.0
H1230 H 0.22513 0.55166 0.87623 0.0
H1231 H 0.2796 0.56878 0.89163 0.0
H1232 H 0.81802 0.51569 0.86294 0.0
H1233 H 0.79928 0.5702 0.87795 0.0
H1234 H 0.81016 0.63985 0.83827 0.0
H1235 H 0.82898 0.58583 0.82325 0.0
H1236 H 0.84764 0.66851 0.86342 0.0
H1237 H 0.70235 0.63122 0.87881 0.0
H1238 H 0.73666 0.59634 0.8832 0.0
H1239 H 0.72743 0.60812 0.86371 0.0
C1240 C 0.81569 0.54242 0.85731 0.0
C1241 C 0.82498 0.54604 0.8418 0.0
C1242 C 0.80493 0.5737 0.86594 0.0
C1243 C 0.80311 0.60937 0.85929 0.0
C1244 C 0.81133 0.6128 0.84373 0.0
H1245 H 0.70904 0.81657 0.89406 0.0
H1246 H 0.72453 0.75989 0.87996 0.0
C1247 C 0.82192 0.58165 0.83511 0.0
C1248 C 0.79462 0.64348 0.86855 0.0
H1249 H 0.72743 0.68539 0.89032 0.0
C1250 C 0.82135 0.67211 0.86932 0.0
C1251 C 0.76023 0.64857 0.87619 0.0
C1252 C 0.72981 0.61965 0.87539 0.0
C1253 C 0.8148 0.70531 0.8775 0.0
C1254 C 0.78062 0.7102 0.88531 0.0
C1255 C 0.75376 0.68169 0.88447 0.0
C1256 C 0.77176 0.74513 0.89399 0.0
C1257 C 0.84423 0.73533 0.8774 0.0
C1258 C 0.79303 0.75605 0.90668 0.0
C1259 C 0.78419 0.78861 0.91483 0.0
C1260 C 0.75381 0.81114 0.91051 0.0
C1261 C 0.73272 0.80017 0.89775 0.0
C1262 C 0.74146 0.76756 0.88967 0.0
H1263 H 0.86487 0.73107 0.86815 0.0
H1264 H 0.83143 0.76331 0.87603 0.0
H1265 H 0.85937 0.7349 0.8884 0.0
H1266 H 0.81622 0.73907 0.91042 0.0
H1267 H 0.80094 0.79591 0.92463 0.0
H1268 H 0.50973 0.53874 0.67965 0.0
H1269 H 0.56756 0.55419 0.66601 0.0
H1270 H 0.52869 0.49329 0.62691 0.0
H1271 H 0.47132 0.47737 0.64045 0.0
H1272 H 0.61993 0.49471 0.65043 0.0
H1273 H 0.56143 0.60337 0.61212 0.0
H1274 H 0.5408 0.59243 0.63034 0.0
H1275 H 0.5349 0.56119 0.61461 0.0
C1276 C 0.51331 0.52892 0.6681 0.0
C1277 C 0.4856 0.50685 0.66118 0.0
C1278 C 0.54652 0.53762 0.66033 0.0
C1279 C 0.55255 0.52498 0.6454 0.0
C1280 C 0.52471 0.50352 0.63839 0.0
H1281 H 0.71849 0.56176 0.57475 0.0
H1282 H 0.66431 0.54369 0.58988 0.0
C1283 C 0.49181 0.49445 0.64618 0.0
C1284 C 0.588 0.53353 0.63712 0.0
H1285 H 0.62338 0.58472 0.60763 0.0
C1286 C 0.62082 0.51456 0.64113 0.0
C1287 C 0.58913 0.55908 0.62488 0.0
C1288 C 0.55483 0.58047 0.62019 0.0
C1289 C 0.65443 0.51984 0.63303 0.0
C1290 C 0.65573 0.54569 0.62079 0.0
C1291 C 0.62278 0.56485 0.61693 0.0
C1292 C 0.69052 0.55321 0.61171 0.0
C1293 C 0.68777 0.49653 0.63735 0.0
C1294 C 0.72407 0.56401 0.61877 0.0
C1295 C 0.75555 0.5737 0.61007 0.0
C1296 C 0.75414 0.57359 0.59405 0.0
C1297 C 0.72083 0.56199 0.58703 0.0
C1298 C 0.68959 0.55187 0.59572 0.0
H1299 H 0.67931 0.47054 0.64329 0.0
H1300 H 0.70451 0.48886 0.6272 0.0
H1301 H 0.70571 0.51268 0.64523 0.0
H1302 H 0.72562 0.56637 0.63102 0.0
H1303 H 0.78038 0.58311 0.61591 0.0
H1304 H 0.81123 0.22063 0.3914 0.0
H1305 H 0.795 0.27811 0.37795 0.0
H1306 H 0.73887 0.31883 0.41792 0.0
H1307 H 0.75466 0.26092 0.4315 0.0
H1308 H 0.7164 0.31268 0.37449 0.0
H1309 H 0.82093 0.40089 0.40434 0.0
H1310 H 0.82621 0.35093 0.4028 0.0
H1311 H 0.79216 0.37004 0.41549 0.0
C1312 C 0.79515 0.24161 0.39735 0.0
C1313 C 0.78427 0.23597 0.41259 0.0
C1314 C 0.78592 0.27455 0.38961 0.0
C1315 C 0.76604 0.30306 0.39693 0.0
C1316 C 0.7545 0.29739 0.41205 0.0
H1317 H 0.71061 0.53017 0.36671 0.0
H1318 H 0.72583 0.4746 0.38167 0.0
C1319 C 0.76335 0.26413 0.41978 0.0
C1320 C 0.75768 0.3386 0.38866 0.0
H1321 H 0.78415 0.43005 0.38565 0.0
C1322 C 0.73114 0.33838 0.37695 0.0
C1323 C 0.7767 0.37224 0.39191 0.0
C1324 C 0.80577 0.37389 0.40426 0.0
C1325 C 0.72292 0.37077 0.36847 0.0
C1326 C 0.74279 0.4043 0.37136 0.0
C1327 C 0.76904 0.40455 0.38326 0.0
C1328 C 0.73655 0.43924 0.36222 0.0
C1329 C 0.69224 0.3688 0.35677 0.0
C1330 C 0.73897 0.43883 0.34624 0.0
C1331 C 0.73003 0.4706 0.33765 0.0
C1332 C 0.71921 0.50406 0.34477 0.0
C1333 C 0.71908 0.50515 0.36079 0.0
C1334 C 0.7276 0.47316 0.36939 0.0
H1335 H 0.67233 0.34592 0.35933 0.0
H1336 H 0.67649 0.39539 0.35614 0.0
H1337 H 0.70459 0.36309 0.34544 0.0
H1338 H 0.74707 0.41362 0.34034 0.0
H1339 H 0.73066 0.46863 0.32536 0.0
H1340 H 0.76509 0.47635 0.1136 0.0
H1341 H 0.81964 0.49515 0.12858 0.0
H1342 H 0.88896 0.48508 0.08878 0.0
H1343 H 0.83489 0.46624 0.07379 0.0
H1344 H 0.91819 0.44774 0.11388 0.0
H1345 H 0.87957 0.59268 0.12938 0.0
H1346 H 0.84512 0.55799 0.13383 0.0
H1347 H 0.85657 0.5674 0.11431 0.0
C1348 C 0.79177 0.47893 0.10794 0.0
C1349 C 0.79531 0.46993 0.0924 0.0
C1350 C 0.82305 0.48967 0.11655 0.0
C1351 C 0.85862 0.49176 0.10985 0.0
C1352 C 0.86197 0.48371 0.09427 0.0
H1353 H 0.06416 0.58937 0.14351 0.0
H1354 H 1.00728 0.57247 0.12994 0.0
C1355 C 0.83082 0.47311 0.08567 0.0
C1356 C 0.89269 0.50051 0.11908 0.0
H1357 H 0.9341 0.56815 0.14075 0.0
C1358 C 0.92158 0.47405 0.11979 0.0
C1359 C 0.89747 0.53494 0.12672 0.0
C1360 C 0.86825 0.56509 0.12597 0.0
C1361 C 0.95482 0.48097 0.12788 0.0
C1362 C 0.95944 0.51523 0.13567 0.0
C1363 C 0.9306 0.54175 0.13493 0.0
C1364 C 0.99458 0.52477 0.14406 0.0
C1365 C 0.98518 0.4519 0.12767 0.0
C1366 C 1.00675 0.5037 0.15663 0.0
C1367 C 0.03957 0.51332 0.16448 0.0
C1368 C 0.06104 0.54427 0.15994 0.0
C1369 C 0.04872 0.56518 0.14732 0.0
C1370 C 1.01594 0.55566 0.13955 0.0
H1371 H 0.98091 0.43113 0.11847 0.0
H1372 H 1.01293 0.46506 0.12614 0.0
H1373 H 0.98529 0.43682 0.13869 0.0
H1374 H 0.99058 0.48008 0.16053 0.0
H1375 H 0.04791 0.49671 0.17419 0.0
H1376 H 0.85031 0.74148 0.60398 0.0
H1377 H 0.8341 0.79819 0.61763 0.0
H1378 H 0.72087 0.78929 0.60166 0.0
H1379 H 0.73772 0.73315 0.58713 0.0
H1380 H 0.73932 0.85891 0.60125 0.0
H1381 H 0.78463 0.80651 0.65724 0.0
H1382 H 0.8227 0.80584 0.6441 0.0
H1383 H 0.7825 0.77674 0.64078 0.0
C1384 C 0.82182 0.75134 0.60341 0.0
C1385 C 0.79521 0.73227 0.59457 0.0
C1386 C 0.81246 0.78385 0.61137 0.0
C1387 C 0.77586 0.79783 0.61122 0.0
C1388 C 0.74926 0.77916 0.60218 0.0
H1389 H 0.69813 0.95452 0.67982 0.0
H1390 H 0.71581 0.901 0.66454 0.0
C1391 C 0.75886 0.74691 0.59388 0.0
C1392 C 0.7658 0.83204 0.62029 0.0
H1393 H 0.77481 0.87213 0.65544 0.0
C1394 C 0.74685 0.86161 0.61314 0.0
C1395 C 0.77489 0.83583 0.63593 0.0
C1396 C 0.7919 0.80435 0.64498 0.0
C1397 C 0.73722 0.89458 0.62103 0.0
C1398 C 0.74808 0.89912 0.63647 0.0
C1399 C 0.76681 0.86939 0.6436 0.0
C1400 C 0.73831 0.93306 0.6458 0.0
C1401 C 0.71432 0.92352 0.6128 0.0
C1402 C 0.74554 0.96971 0.64073 0.0
C1403 C 0.73465 1.00087 0.64945 0.0
C1404 C 0.71725 0.99619 0.66368 0.0
C1405 C 0.71168 0.95953 0.669 0.0
C1406 C 0.72178 0.92861 0.66019 0.0
H1407 H 0.69885 0.91119 0.60309 0.0
H1408 H 0.69393 0.93697 0.62055 0.0
H1409 H 0.73311 0.9453 0.60817 0.0
H1410 H 0.75942 0.97436 0.62997 0.0
H1411 H 0.73945 0.02857 0.64496 0.0
H1412 H 0.76918 0.97678 0.89286 0.0
H1413 H 0.82362 0.99495 0.87768 0.0
H1414 H 0.89404 0.98127 0.91696 0.0
H1415 H 0.84009 0.96281 0.93212 0.0
H1416 H 0.87718 0.05139 0.88015 0.0
H1417 H 0.94398 0.91285 0.88594 0.0
H1418 H 0.89597 0.92107 0.89104 0.0
H1419 H 0.93281 0.93423 0.90382 0.0
C1420 C 0.79613 0.97812 0.89835 0.0
C1421 C 0.79999 0.96807 0.91377 0.0
C1422 C 0.82737 0.9884 0.88961 0.0
C1423 C 0.86331 0.98867 0.89602 0.0
C1424 C 0.86692 0.98041 0.91158 0.0
H1425 H 0.0676 0.08849 0.86128 0.0
H1426 H 1.01097 0.0719 0.87509 0.0
C1427 C 0.8358 0.97018 0.92031 0.0
C1428 C 0.89705 0.99697 0.88648 0.0
H1429 H 0.98108 0.96101 0.87511 0.0
C1430 C 0.8998 0.03154 0.87902 0.0
C1431 C 0.92654 0.97096 0.88471 0.0
C1432 C 0.92466 0.93255 0.89167 0.0
C1433 C 0.93144 0.04116 0.87031 0.0
C1434 C 0.96157 1.01573 0.86906 0.0
C1435 C 0.95834 0.98075 0.87614 0.0
C1436 C 0.99679 0.02519 0.86067 0.0
C1437 C 0.93214 0.07842 0.86236 0.0
C1438 C 1.00875 1.00387 0.84814 0.0
C1439 C 0.0415 1.01326 0.84018 0.0
C1440 C 0.06338 0.04395 0.84467 0.0
C1441 C 0.05169 0.06466 0.85743 0.0
C1442 C 1.01896 0.0554 0.86531 0.0
H1443 H 0.90366 0.09005 0.86094 0.0
H1444 H 0.94858 0.09841 0.86926 0.0
H1445 H 0.9454 0.07616 0.85099 0.0
H1446 H 0.99239 0.98026 0.84436 0.0
H1447 H 0.0495 0.99662 0.83044 0.0
H1448 H 0.82343 1.0167 0.14136 0.0
H1449 H 0.8055 0.0711 0.12608 0.0
H1450 H 0.80855 0.13994 0.16619 0.0
H1451 H 0.82672 0.08605 0.18147 0.0
H1452 H 0.74639 0.1224 0.12725 0.0
H1453 H 0.88067 0.19408 0.13776 0.0
H1454 H 0.87348 0.14546 0.14218 0.0
H1455 H 0.8566 0.18101 0.15485 0.0
C1456 C 0.81973 0.04324 0.147 0.0
C1457 C 0.82678 0.04674 0.1627 0.0
C1458 C 0.80962 0.07448 0.1382 0.0
C1459 C 0.80653 0.11003 0.14486 0.0
C1460 C 0.81165 0.11316 0.16065 0.0
H1461 H 0.70533 0.31288 0.10983 0.0
H1462 H 0.72193 0.25578 0.12332 0.0
C1463 C 0.82172 0.08206 0.16943 0.0
C1464 C 0.79867 0.14394 0.13536 0.0
H1465 H 0.83313 0.23004 0.12588 0.0
C1466 C 0.76546 0.14583 0.12692 0.0
C1467 C 0.82372 0.17451 0.13464 0.0
C1468 C 0.86079 0.17367 0.14271 0.0
C1469 C 0.75615 0.17766 0.11825 0.0
C1470 C 0.78048 0.20882 0.11805 0.0
C1471 C 0.81422 0.20647 0.1261 0.0
C1472 C 0.771 0.24428 0.10985 0.0
C1473 C 0.72037 0.17753 0.10926 0.0
C1474 C 0.79356 0.25786 0.09797 0.0
C1475 C 0.78414 0.29089 0.09018 0.0
C1476 C 0.75219 0.31143 0.09423 0.0
C1477 C 0.73019 0.29809 0.10636 0.0
C1478 C 0.73947 0.26508 0.11404 0.0
H1479 H 0.71006 0.14874 0.10727 0.0
H1480 H 0.69867 0.19289 0.1157 0.0
H1481 H 0.72412 0.19154 0.0981 0.0
H1482 H 0.81819 0.24257 0.09455 0.0
H1483 H 0.80178 0.30019 0.08093 0.0
H1484 H 0.70409 0.09547 0.42961 0.0
H1485 H 0.65133 0.07629 0.41427 0.0
H1486 H 0.72594 0.03638 0.37947 0.0
H1487 H 0.7795 0.05763 0.39461 0.0
H1488 H 0.67135 0.07078 0.36631 0.0
H1489 H 0.60578 0.97806 0.40844 0.0
H1490 H 0.61096 1.02372 0.41634 0.0
H1491 H 0.65172 0.99701 0.41126 0.0
C1492 C 0.70961 0.08203 0.41882 0.0
C1493 C 0.74643 0.07774 0.41351 0.0
C1494 C 0.67909 0.07081 0.41002 0.0
C1495 C 0.68416 0.05384 0.39576 0.0
C1496 C 0.72095 0.0491 0.39045 0.0
H1497 H 0.49327 0.94522 0.3526 0.0
H1498 H 0.55067 0.96045 0.36596 0.0
C1499 C 0.7517 0.06101 0.39918 0.0
C1500 C 0.65096 0.04273 0.3863 0.0
H1501 H 0.56605 0.99958 0.38832 0.0
C1502 C 0.64854 0.05481 0.37109 0.0
C1503 C 0.62111 1.02131 0.39228 0.0
C1504 C 0.62273 1.00395 0.40792 0.0
C1505 C 0.61714 0.0469 0.36193 0.0
C1506 C 0.58624 0.02756 0.36825 0.0
C1507 C 0.5891 1.01491 0.38337 0.0
C1508 C 0.55134 1.01866 0.35939 0.0
C1509 C 0.61813 0.05856 0.34545 0.0
C1510 C 0.53175 0.04606 0.35108 0.0
C1511 C 0.499 0.03705 0.34302 0.0
C1512 C 0.48432 1.00069 0.34348 0.0
C1513 C 0.50349 0.9736 0.35204 0.0
C1514 C 0.53653 0.98235 0.35974 0.0
H1515 H 0.64721 0.06128 0.34126 0.0
H1516 H 0.60328 0.03826 0.3381 0.0
H1517 H 0.6046 0.08621 0.34424 0.0
H1518 H 0.54142 0.07461 0.35095 0.0
H1519 H 0.48483 0.05868 0.33667 0.0
H1520 H 0.28948 0.28761 0.42871 0.0
H1521 H 0.30514 0.22994 0.41499 0.0
H1522 H 0.24581 0.26985 0.37565 0.0
H1523 H 0.22966 0.32714 0.38926 0.0
H1524 H 0.2458 0.17826 0.39904 0.0
H1525 H 0.35599 0.2363 0.36138 0.0
H1526 H 0.34471 0.25684 0.37957 0.0
H1527 H 0.31396 0.26314 0.36371 0.0
C1528 C 0.28009 0.28431 0.41709 0.0
C1529 C 0.25836 0.31223 0.41012 0.0
C1530 C 0.2889 0.25119 0.40928 0.0
C1531 C 0.27671 0.24548 0.39426 0.0
C1532 C 0.25567 0.27358 0.38719 0.0
H1533 H 0.31472 0.07933 0.32377 0.0
H1534 H 0.2966 0.1337 0.33879 0.0
C1535 C 0.24648 0.30641 0.39502 0.0
C1536 C 0.28524 0.21002 0.38598 0.0
H1537 H 0.33721 0.17441 0.35679 0.0
C1538 C 0.26595 0.17729 0.38986 0.0
C1539 C 0.31118 0.20879 0.37389 0.0
C1540 C 0.33294 0.24299 0.36935 0.0
C1541 C 0.2713 0.14365 0.38178 0.0
C1542 C 0.29756 0.14224 0.36971 0.0
C1543 C 0.31703 0.1751 0.36596 0.0
C1544 C 0.3052 0.10739 0.36067 0.0
C1545 C 0.24765 0.11042 0.38595 0.0
C1546 C 0.31553 0.07375 0.3678 0.0
C1547 C 0.32526 0.04217 0.35917 0.0
C1548 C 0.32565 0.04358 0.34316 0.0
C1549 C 0.31456 0.077 0.33606 0.0
C1550 C 0.3044 0.10833 0.34468 0.0
H1551 H 0.22151 0.11904 0.39173 0.0
H1552 H 0.24026 0.09375 0.37575 0.0
H1553 H 0.26338 0.09236 0.39393 0.0
H1554 H 0.31747 0.07219 0.38007 0.0
H1555 H 0.33427 1.01724 0.36507 0.0
H1556 H 0.98093 0.96349 0.14436 0.0
H1557 H 0.03869 0.9794 0.13121 0.0
H1558 H 0.05811 0.06857 0.16304 0.0
H1559 H 0.99997 0.05276 0.17637 0.0
H1560 H 0.07144 0.08882 0.13223 0.0
H1561 H 0.14472 0.95746 0.14663 0.0
H1562 H 0.09993 0.95063 0.13796 0.0
H1563 H 0.10297 0.97239 0.15633 0.0
C1564 C 0.99731 0.9866 0.14861 0.0
C1565 C 0.98562 1.00671 0.16154 0.0
C1566 C 0.03063 0.99549 0.1411 0.0
C1567 C 0.05336 0.02474 0.14626 0.0
C1568 C 0.04132 0.04565 0.15888 0.0
H1569 H 0.28284 0.07151 0.11524 0.0
H1570 H 0.22819 0.05443 0.13056 0.0
C1571 C 1.00797 0.03662 0.16649 0.0
C1572 C 0.0893 0.03355 0.13831 0.0
H1573 H 0.17324 0.99585 0.1278 0.0
C1574 C 0.09375 0.06854 0.13135 0.0
C1575 C 0.11882 1.00737 0.13726 0.0
C1576 C 0.11667 0.96997 0.14505 0.0
C1577 C 0.12614 0.07755 0.12302 0.0
C1578 C 0.155 0.0508 0.12144 0.0
C1579 C 0.1511 1.01627 0.12882 0.0
C1580 C 0.18895 0.05814 0.11195 0.0
C1581 C 0.12928 0.1158 0.11601 0.0
C1582 C 0.18558 0.06453 0.09625 0.0
C1583 C 0.21678 0.07398 0.08745 0.0
C1584 C 0.25242 0.07734 0.09408 0.0
C1585 C 0.25605 0.06919 0.10969 0.0
C1586 C 0.2247 0.05954 0.1185 0.0
H1587 H 0.10977 0.13593 0.12137 0.0
H1588 H 0.1581 0.12676 0.11705 0.0
H1589 H 0.12233 0.11404 0.10373 0.0
H1590 H 0.15855 0.06291 0.09082 0.0
H1591 H 0.21263 0.07992 0.07549 0.0
H1592 H 0.19804 0.95704 0.8263 0.0
H1593 H 0.21574 0.90334 0.84152 0.0
H1594 H 0.26425 0.97628 0.87511 0.0
H1595 H 0.24428 0.03066 0.86022 0.0
H1596 H 0.27467 0.873 0.84995 0.0
H1597 H 0.20443 0.91559 0.90315 0.0
H1598 H 0.1987 0.94104 0.88564 0.0
H1599 H 0.23911 0.94865 0.89742 0.0
C1600 C 0.21267 0.96189 0.83688 0.0
C1601 C 0.21963 0.99848 0.84197 0.0
C1602 C 0.22279 0.93089 0.84567 0.0
C1603 C 0.2407 0.93521 0.85979 0.0
C1604 C 0.24929 0.97176 0.86459 0.0
H1605 H 0.35031 0.74099 0.90116 0.0
H1606 H 0.33507 0.79777 0.88729 0.0
C1607 C 0.23839 1.00299 0.85592 0.0
C1608 C 0.25039 0.90128 0.86915 0.0
H1609 H 0.24382 0.86246 0.90472 0.0
C1610 C 0.26768 0.87084 0.86192 0.0
C1611 C 0.24082 0.89751 0.88476 0.0
C1612 C 0.21939 0.92726 0.89316 0.0
C1613 C 0.27559 0.83732 0.86967 0.0
C1614 C 0.26782 0.83426 0.88546 0.0
C1615 C 0.25034 0.86457 0.8927 0.0
C1616 C 0.27748 0.79999 0.89459 0.0
C1617 C 0.29092 0.80511 0.86056 0.0
C1618 C 0.25104 0.78276 0.90416 0.0
C1619 C 0.26015 0.75056 0.91258 0.0
C1620 C 0.29583 0.73449 0.91149 0.0
C1621 C 0.32232 0.75205 0.90208 0.0
C1622 C 0.31349 0.78456 0.89399 0.0
H1623 H 0.28269 0.80713 0.8484 0.0
H1624 H 0.3218 0.80571 0.86101 0.0
H1625 H 0.28107 0.7779 0.86504 0.0
H1626 H 0.22311 0.79398 0.90502 0.0
H1627 H 0.23911 0.73796 0.91976 0.0
H1628 H 0.56482 0.08438 0.64484 0.0
H1629 H 0.50765 0.06874 0.63127 0.0
H1630 H 0.48796 0.97777 0.66226 0.0
H1631 H 0.54569 0.99317 0.67595 0.0
H1632 H 0.47529 0.95853 0.63162 0.0
H1633 H 0.40126 0.08949 0.6458 0.0
H1634 H 0.4461 0.09681 0.63725 0.0
H1635 H 0.44298 0.0748 0.65559 0.0
C1636 C 0.54858 0.06087 0.64879 0.0
C1637 C 0.56015 0.04009 0.66157 0.0
C1638 C 0.51553 0.05216 0.64105 0.0
C1639 C 0.49285 1.02248 0.64585 0.0
C1640 C 0.5047 1.00102 0.65837 0.0
H1641 H 0.26415 0.97754 0.61363 0.0
H1642 H 0.31861 0.99438 0.62908 0.0
C1643 C 0.53781 1.00983 0.66619 0.0
C1644 C 0.45722 1.01376 0.63763 0.0
H1645 H 0.37365 0.0515 0.62661 0.0
C1646 C 0.45302 0.97882 0.63061 0.0
C1647 C 0.42771 0.03993 0.6364 0.0
C1648 C 0.42944 0.07724 0.64428 0.0
C1649 C 0.42093 0.96984 0.62208 0.0
C1650 C 0.39212 0.99658 0.62033 0.0
C1651 C 0.39576 0.03108 0.62775 0.0
C1652 C 0.35835 0.98923 0.6107 0.0
C1653 C 0.41804 0.93155 0.61509 0.0
C1654 C 0.36204 0.98208 0.59507 0.0
C1655 C 0.33093 0.97273 0.58619 0.0
C1656 C 0.29505 0.97027 0.59266 0.0
C1657 C 0.29114 0.97915 0.60819 0.0
C1658 C 0.32238 0.98867 0.61708 0.0
H1659 H 0.43715 0.91139 0.62068 0.0
H1660 H 0.38913 0.92069 0.61588 0.0
H1661 H 0.42573 0.93321 0.60289 0.0
H1662 H 0.38923 0.9831 0.58974 0.0
H1663 H 0.3353 0.9662 0.57429 0.0
H1664 H 0.18737 0.13269 0.00663 0.0
H1665 H 0.17268 0.14606 0.97984 0.0
H1666 H 0.25883 0.22981 0.97891 0.0
H1667 H 0.27287 0.21711 0.0057 0.0
H1668 H 0.15766 0.22267 0.96399 0.0
H1669 H 0.28467 0.14463 0.94611 0.0
H1670 H 0.26289 0.13727 0.96438 0.0
H1671 H 0.28945 0.17877 0.96099 0.0
C1672 C 0.20277 0.15417 1.00068 0.0
C1673 C 0.23203 0.17302 0.00794 0.0
C1674 C 0.19437 0.16183 0.98549 0.0
C1675 C 0.21505 0.18855 0.97748 0.0
C1676 C 0.24297 0.20877 0.98494 0.0
H1677 H 0.23263 0.21373 0.87951 0.0
H1678 H 0.23994 0.22544 0.90682 0.0
C1679 C 0.25127 0.20117 1.00011 0.0
C1680 C 0.20939 0.19325 0.96102 0.0
H1681 H 0.2475 0.17016 0.92684 0.0
C1682 C 0.17729 0.21145 0.95581 0.0
C1683 C 0.23534 0.17876 0.95051 0.0
C1684 C 0.27 0.15855 0.95568 0.0
C1685 C 0.17028 0.21531 0.94019 0.0
C1686 C 0.19566 0.1997 0.92965 0.0
C1687 C 0.22816 0.18224 0.93494 0.0
C1688 C 0.18817 0.19857 0.91312 0.0
C1689 C 0.13594 0.23616 0.93515 0.0
C1690 C 0.15627 0.18043 0.90763 0.0
C1691 C 0.15198 0.17413 0.89208 0.0
C1692 C 0.17996 0.18499 0.88184 0.0
C1693 C 0.2109 0.20485 0.88725 0.0
C1694 C 0.21508 0.21146 0.90279 0.0
H1695 H 0.12705 0.25678 0.94385 0.0
H1696 H 0.14069 0.25096 0.92422 0.0
H1697 H 0.11275 0.21609 0.93356 0.0
H1698 H 0.13545 0.1697 0.91539 0.0
H1699 H 0.12726 0.15995 0.88809 0.0
H1700 H 0.63568 0.36901 0.13729 0.0
H1701 H 0.6295 0.37437 0.16498 0.0
H1702 H 0.5799 0.48309 0.1596 0.0
H1703 H 0.5871 0.47816 0.13188 0.0
H1704 H 0.66601 0.44196 0.17967 0.0
H1705 H 0.51544 0.42321 0.19287 0.0
H1706 H 0.53716 0.40234 0.17638 0.0
H1707 H 0.52765 0.45139 0.17664 0.0
C1708 C 0.62337 0.39393 0.14206 0.0
C1709 C 0.61287 0.42369 0.13262 0.0
C1710 C 0.61947 0.39678 0.15779 0.0
C1711 C 0.60426 0.42908 0.16423 0.0
C1712 C 0.59138 0.4578 0.15477 0.0
H1713 H 0.58676 0.52345 0.25372 0.0
H1714 H 0.57923 0.50573 0.22705 0.0
C1715 C 0.59552 0.45503 0.13901 0.0
C1716 C 0.60656 0.4349 0.18077 0.0
H1717 H 0.55455 0.44268 0.21304 0.0
C1718 C 0.64175 0.44182 0.18704 0.0
C1719 C 0.57471 0.43507 0.19016 0.0
C1720 C 0.5365 0.42743 0.18377 0.0
C1721 C 0.64596 0.44983 0.20252 0.0
C1722 C 0.61414 0.44972 0.21202 0.0
C1723 C 0.57889 0.44247 0.20574 0.0
C1724 C 0.61688 0.45871 0.22838 0.0
C1725 C 0.68423 0.45975 0.20839 0.0
C1726 C 0.63973 0.43755 0.23804 0.0
C1727 C 0.64488 0.44834 0.25315 0.0
C1728 C 0.62707 0.48026 0.25882 0.0
C1729 C 0.60235 0.49996 0.2494 0.0
C1730 C 0.5975 0.48943 0.23426 0.0
H1731 H 0.70328 0.46822 0.19905 0.0
H1732 H 0.68278 0.48281 0.21679 0.0
H1733 H 0.69658 0.43505 0.21408 0.0
H1734 H 0.6541 0.4131 0.23383 0.0
H1735 H 0.66346 0.43231 0.26032 0.0
H1736 H 0.28419 0.82137 0.50747 0.0
H1737 H 0.29892 0.80525 0.48103 0.0
H1738 H 0.36679 0.90428 0.47746 0.0
H1739 H 0.35278 0.91951 0.50406 0.0
H1740 H 0.28031 0.84306 0.45697 0.0
H1741 H 0.43344 0.83034 0.45715 0.0
H1742 H 0.40653 0.83144 0.47449 0.0
H1743 H 0.41964 0.87418 0.46511 0.0
C1744 C 0.30248 0.83934 0.50098 0.0
C1745 C 0.31714 0.8718 0.50754 0.0
C1746 C 0.31106 0.83009 0.48598 0.0
C1747 C 0.33437 0.85326 0.47731 0.0
C1748 C 0.34963 0.88539 0.48403 0.0
H1749 H 0.32496 0.91067 0.38491 0.0
H1750 H 0.31646 0.89904 0.41209 0.0
C1751 C 0.34142 0.89431 0.49912 0.0
C1752 C 0.33957 0.84609 0.46086 0.0
H1753 H 0.40509 0.84511 0.43277 0.0
C1754 C 0.30766 0.84276 0.45173 0.0
C1755 C 0.37521 0.84484 0.45401 0.0
C1756 C 0.4106 0.84496 0.46325 0.0
C1757 C 0.31035 0.84074 0.43587 0.0
C1758 C 0.34582 0.84318 0.42896 0.0
C1759 C 0.37786 0.84389 0.43809 0.0
C1760 C 0.34998 0.84881 0.41239 0.0
C1761 C 0.27508 0.83677 0.42668 0.0
C1762 C 0.37225 0.82487 0.40361 0.0
C1763 C 0.37759 0.83198 0.38811 0.0
C1764 C 0.36125 0.86339 0.38135 0.0
C1765 C 0.33838 0.88675 0.39006 0.0
C1766 C 0.33314 0.8798 0.40548 0.0
H1767 H 0.25316 0.82199 0.43326 0.0
H1768 H 0.26423 0.86489 0.42383 0.0
H1769 H 0.28011 0.82135 0.41592 0.0
H1770 H 0.38559 0.8009 0.40876 0.0
H1771 H 0.39502 0.81353 0.38145 0.0
H1772 H 0.98507 0.64581 0.63135 0.0
H1773 H 0.99938 0.6366 0.65853 0.0
H1774 H 0.90257 0.56595 0.66282 0.0
H1775 H 0.88934 0.57417 0.63576 0.0
H1776 H 0.95664 0.65567 0.68283 0.0
H1777 H 0.98114 0.50397 0.68353 0.0
H1778 H 0.98058 0.53063 0.66611 0.0
H1779 H 0.93769 0.5142 0.67441 0.0
C1780 C 0.96728 0.6281 0.63819 0.0
C1781 C 0.93576 0.61127 0.63175 0.0
C1782 C 0.97536 0.62287 0.65361 0.0
C1783 C 0.95228 0.60022 0.66262 0.0
C1784 C 0.92118 0.5829 0.65603 0.0
H1785 H 0.88097 0.60411 0.75364 0.0
H1786 H 0.89759 0.61806 0.72719 0.0
C1787 C 0.91329 0.58801 0.64068 0.0
C1788 C 0.95876 0.59631 0.67914 0.0
H1789 H 0.95959 0.53107 0.70728 0.0
C1790 C 0.95812 0.62848 0.68821 0.0
C1791 C 0.96164 0.56093 0.68612 0.0
C1792 C 0.96574 0.52555 0.67699 0.0
C1793 C 0.95738 0.626 0.70412 0.0
C1794 C 0.95622 0.59041 0.71105 0.0
C1795 C 0.95977 0.5584 0.70199 0.0
C1796 C 0.94841 0.58536 0.72745 0.0
C1797 C 0.95722 0.66153 0.71329 0.0
C1798 C 0.971 0.56187 0.7363 0.0
C1799 C 0.96093 0.55327 0.75122 0.0
C1800 C 0.92823 0.5681 0.75751 0.0
C1801 C 0.90634 0.5926 0.74892 0.0
C1802 C 0.91607 0.60079 0.73391 0.0
H1803 H 0.9722 0.68417 0.70721 0.0
H1804 H 0.92803 0.67084 0.71497 0.0
H1805 H 0.97033 0.65751 0.72461 0.0
H1806 H 0.99598 0.54958 0.73155 0.0
H1807 H 0.97844 0.53483 0.75784 0.0
H1808 H 0.81593 0.89599 0.12232 0.0
H1809 H 0.80906 0.88459 0.09497 0.0
H1810 H 0.90851 0.81706 0.09547 0.0
H1811 H 0.91522 0.82847 0.12298 0.0
H1812 H 0.90516 0.88009 0.07348 0.0
H1813 H 0.78227 0.78621 0.07106 0.0
H1814 H 0.77744 0.82557 0.08357 0.0
H1815 H 0.81148 0.79031 0.08774 0.0
C1816 C 0.83599 0.87843 0.11656 0.0
C1817 C 0.86625 0.86333 0.12453 0.0
C1818 C 0.83195 0.87171 0.10104 0.0
C1819 C 0.85816 0.84979 0.09331 0.0
C1820 C 0.88792 0.83382 0.10133 0.0
H1821 H 0.83965 0.81335 0.99471 0.0
H1822 H 0.85619 0.80309 0.02157 0.0
C1823 C 0.89171 0.84023 0.11694 0.0
C1824 C 0.85593 0.84664 0.07663 0.0
H1825 H 0.79858 0.81788 0.04803 0.0
C1826 C 0.8823 0.8659 0.06786 0.0
C1827 C 0.8261 0.82803 0.06943 0.0
C1828 C 0.79781 0.80605 0.0784 0.0
C1829 C 0.87839 0.86875 0.05205 0.0
C1830 C 0.84743 0.85187 0.04496 0.0
C1831 C 0.82218 0.83091 0.05361 0.0
C1832 C 0.83922 0.85817 0.02877 0.0
C1833 C 0.90656 0.89077 0.04303 0.0
C1834 C 0.82439 0.89248 0.02411 0.0
C1835 C 0.81475 0.89817 0.00892 0.0
C1836 C 0.81984 0.86963 0.99823 0.0
C1837 C 0.83551 0.8356 1.00285 0.0
C1838 C 0.84482 0.82974 0.01809 0.0
H1839 H 0.93215 0.89657 0.04973 0.0
H1840 H 0.91436 0.87553 0.03251 0.0
H1841 H 0.89404 0.91778 0.03959 0.0
H1842 H 0.81986 0.91464 0.03227 0.0
H1843 H 0.80328 0.92479 0.00548 0.0
H1844 H 0.47792 0.64906 0.87442 0.0
H1845 H 0.4906 0.64216 0.84704 0.0
H1846 H 0.40472 0.55827 0.84411 0.0
H1847 H 0.39305 0.56436 0.87139 0.0
H1848 H 0.46949 0.5409 0.82768 0.0
H1849 H 0.41755 0.6842 0.81516 0.0
H1850 H 0.45503 0.6801 0.82862 0.0
H1851 H 0.40988 0.66186 0.83328 0.0
C1852 C 0.46221 0.62893 0.86786 0.0
C1853 C 0.43385 0.60795 0.87476 0.0
C1854 C 0.46924 0.62517 0.8523 0.0
C1855 C 0.44802 0.60028 0.84356 0.0
C1856 C 0.42113 0.57789 0.85066 0.0
H1857 H 0.37169 0.54367 0.75709 0.0
H1858 H 0.38596 0.55629 0.78385 0.0
C1859 C 0.41419 0.58162 0.86615 0.0
C1860 C 0.45207 0.59833 0.82688 0.0
H1861 H 0.4309 0.64564 0.7943 0.0
C1862 C 0.46174 0.56398 0.82036 0.0
C1863 C 0.44179 0.62855 0.81742 0.0
C1864 C 0.43022 0.66575 0.8239 0.0
C1865 C 0.45977 0.55857 0.80462 0.0
C1866 C 0.4478 0.5882 0.79527 0.0
C1867 C 0.4401 0.62312 0.80164 0.0
C1868 C 0.43921 0.58205 0.77913 0.0
C1869 C 0.46892 0.52081 0.79806 0.0
C1870 C 0.4642 0.59315 0.76777 0.0
C1871 C 0.45629 0.5855 0.75253 0.0
C1872 C 0.42338 0.56665 0.74856 0.0
C1873 C 0.39777 0.55703 0.75995 0.0
C1874 C 0.40574 0.56449 0.77515 0.0
H1875 H 0.48346 0.50269 0.80641 0.0
H1876 H 0.44273 0.50678 0.79455 0.0
H1877 H 0.48666 0.52385 0.78779 0.0
H1878 H 0.49003 0.60698 0.77072 0.0
H1879 H 0.47625 0.59334 0.74387 0.0
H1880 H 0.62242 0.15619 0.61813 0.0
H1881 H 0.63095 0.16672 0.59087 0.0
H1882 H 0.73147 0.22867 0.60011 0.0
H1883 H 0.72421 0.21593 0.62735 0.0
H1884 H 0.63794 0.2269 0.5722 0.0
H1885 H 0.76951 0.14509 0.57348 0.0
H1886 H 0.73815 0.14702 0.58946 0.0
H1887 H 0.76952 0.18506 0.58573 0.0
C1888 C 0.6466 0.17152 0.6143 0.0
C1889 C 0.67367 0.18369 0.62469 0.0
C1890 C 0.65112 0.17808 0.59878 0.0
C1891 C 0.68245 0.19749 0.59347 0.0
C1892 C 0.70771 0.21265 0.60396 0.0
H1893 H 0.76537 0.22064 0.501 0.0
H1894 H 0.75059 0.23358 0.52768 0.0
C1895 C 0.70343 0.20563 0.61948 0.0
C1896 C 0.68995 0.19923 0.57697 0.0
H1897 H 0.75177 0.17056 0.54992 0.0
C1898 C 0.66291 0.2148 0.56732 0.0
C1899 C 0.72243 0.18304 0.57065 0.0
C1900 C 0.75142 0.16378 0.58032 0.0
C1901 C 0.66746 0.2144 0.55147 0.0
C1902 C 0.69979 0.19808 0.54524 0.0
C1903 C 0.72715 0.18328 0.55486 0.0
C1904 C 0.70523 0.19401 0.52874 0.0
C1905 C 0.63774 0.23111 0.54145 0.0
C1906 C 0.68429 0.16776 0.52059 0.0
C1907 C 0.69324 0.15977 0.50548 0.0
C1908 C 0.72341 0.17769 0.49845 0.0
C1909 C 0.74299 0.2054 0.5064 0.0
C1910 C 0.73423 0.2132 0.52151 0.0
H1911 H 0.61795 0.24865 0.54802 0.0
H1912 H 0.65053 0.24829 0.53233 0.0
H1913 H 0.62179 0.20834 0.53592 0.0
H1914 H 0.66206 0.1524 0.52609 0.0
H1915 H 0.67762 0.13858 0.49946 0.0
H1916 H 0.07995 0.38438 0.3713 0.0
H1917 H 0.06988 0.39033 0.34368 0.0
H1918 H 0.13998 0.488 0.343 0.0
H1919 H 0.14981 0.48209 0.3705 0.0
H1920 H 0.06745 0.4896 0.325 0.0
H1921 H 0.16261 0.36957 0.31403 0.0
H1922 H 0.12578 0.3641 0.32778 0.0
H1923 H 0.16371 0.39511 0.33172 0.0
C1924 C 0.0926 0.40734 0.36519 0.0
C1925 C 0.1161 0.43245 0.37277 0.0
C1926 C 0.08698 0.41065 0.34952 0.0
C1927 C 0.10452 0.43937 0.3414 0.0
C1928 C 0.12637 0.4656 0.34914 0.0
H1929 H 0.18018 0.49652 0.254 0.0
H1930 H 0.16918 0.48057 0.28078 0.0
C1931 C 0.13216 0.46212 0.36473 0.0
C1932 C 0.10256 0.44099 0.3247 0.0
H1933 H 0.14192 0.40369 0.29285 0.0
C1934 C 0.08308 0.47047 0.3179 0.0
C1935 C 0.12338 0.41607 0.31562 0.0
C1936 C 0.14527 0.38443 0.32257 0.0
C1937 C 0.08482 0.47634 0.30215 0.0
C1938 C 0.10662 0.45213 0.29315 0.0
C1939 C 0.12513 0.42197 0.29988 0.0
C1940 C 0.11335 0.45987 0.27695 0.0
C1941 C 0.06488 0.50931 0.29527 0.0
C1942 C 0.08574 0.45283 0.26607 0.0
C1943 C 0.09203 0.46192 0.25084 0.0
C1944 C 0.12577 0.4785 0.24642 0.0
C1945 C 0.1537 0.48453 0.25728 0.0
C1946 C 0.14754 0.47523 0.27247 0.0
H1947 H 0.051 0.52683 0.30401 0.0
H1948 H 0.08491 0.52685 0.28883 0.0
H1949 H 0.04349 0.49932 0.28713 0.0
H1950 H 0.05931 0.44075 0.26939 0.0
H1951 H 0.07027 0.45697 0.24255 0.0
H1952 H 0.73091 0.64821 0.38498 0.0
H1953 H 0.73759 0.65839 0.41234 0.0
H1954 H 0.65032 0.74107 0.4108 0.0
H1955 H 0.64288 0.72984 0.38332 0.0
H1956 H 0.75301 0.72214 0.42951 0.0
H1957 H 0.61203 0.66437 0.44196 0.0
H1958 H 0.634 0.65902 0.42363 0.0
H1959 H 0.61439 0.70312 0.42902 0.0
C1960 C 0.7131 0.66838 0.39054 0.0
C1961 C 0.68567 0.68749 0.38229 0.0
C1962 C 0.71713 0.67446 0.40608 0.0
C1963 C 0.69395 0.69995 0.4136 0.0
C1964 C 0.66795 0.72076 0.40522 0.0
H1965 H 0.70272 0.7207 0.51356 0.0
H1966 H 0.68809 0.73604 0.48694 0.0
C1967 C 0.66388 0.71458 0.3896 0.0
C1968 C 0.69624 0.70279 0.43032 0.0
H1969 H 0.6507 0.67736 0.46281 0.0
C1970 C 0.73043 0.71304 0.43682 0.0
C1971 C 0.66669 0.69071 0.43978 0.0
C1972 C 0.62973 0.67841 0.43332 0.0
C1973 C 0.7364 0.70992 0.45251 0.0
C1974 C 0.70748 0.69621 0.46182 0.0
C1975 C 0.67267 0.68789 0.4555 0.0
C1976 C 0.71435 0.68663 0.47784 0.0
C1977 C 0.77401 0.71976 0.45902 0.0
C1978 C 0.73302 0.65342 0.48135 0.0
C1979 C 0.74103 0.64453 0.49643 0.0
C1980 C 0.73088 0.66899 0.50817 0.0
C1981 C 0.71098 0.70162 0.50464 0.0
C1982 C 0.70277 0.71043 0.48953 0.0
H1983 H 0.79144 0.73547 0.45077 0.0
H1984 H 0.7707 0.73667 0.46951 0.0
H1985 H 0.78892 0.69376 0.46216 0.0
H1986 H 0.7416 0.63453 0.4724 0.0
H1987 H 0.75519 0.61863 0.49893 0.0
H1988 H 0.06925 0.89515 0.63196 0.0
H1989 H 0.05685 0.90508 0.65922 0.0
H1990 H 0.13974 0.99223 0.66001 0.0
H1991 H 0.15117 0.98297 0.63288 0.0
H1992 H 0.10919 0.89621 0.68203 0.0
H1993 H 0.05386 0.03996 0.68281 0.0
H1994 H 0.05572 1.01232 0.66566 0.0
H1995 H 0.09635 0.03711 0.67216 0.0
C1996 C 0.08421 0.91677 0.63801 0.0
C1997 C 0.11159 0.93788 0.63055 0.0
C1998 C 0.07722 0.92238 0.65349 0.0
C1999 C 0.09711 0.94965 0.66156 0.0
C2000 C 0.1236 0.97151 0.65394 0.0
H2001 H 0.17459 1.00745 0.7481 0.0
H2002 H 0.16074 0.99423 0.72135 0.0
C2003 C 0.13056 0.96586 0.63854 0.0
C2004 C 0.09305 0.95332 0.6782 0.0
H2005 H 0.08269 1.01837 0.70616 0.0
C2006 C 0.10248 0.92264 0.68735 0.0
C2007 C 0.08418 0.98782 0.68508 0.0
C2008 C 0.07158 1.02104 0.6759 0.0
C2009 C 0.10574 0.92632 0.70317 0.0
C2010 C 0.09936 0.96145 0.70987 0.0
C2011 C 0.08789 0.99156 0.70087 0.0
C2012 C 0.10755 0.96832 0.72602 0.0
C2013 C 0.11794 0.89336 0.71258 0.0
C2014 C 0.08226 0.95774 0.73736 0.0
C2015 C 0.08995 0.96569 0.75259 0.0
C2016 C 0.12283 0.98453 0.7566 0.0
C2017 C 0.14854 0.99406 0.74522 0.0
C2018 C 0.1408 0.98626 0.73002 0.0
H2019 H 0.12242 0.868 0.70557 0.0
H2020 H 0.14423 0.90015 0.71863 0.0
H2021 H 0.09652 0.88716 0.72133 0.0
H2022 H 0.05648 0.94381 0.7344 0.0
H2023 H 0.06988 0.95795 0.76123 0.0
H2024 H 0.81551 0.40339 0.88323 0.0
H2025 H 0.80767 0.39242 0.91047 0.0
H2026 H 0.89355 0.30828 0.90901 0.0
H2027 H 0.90234 0.32045 0.88168 0.0
H2028 H 0.78998 0.32893 0.92697 0.0
H2029 H 0.9319 0.38145 0.94123 0.0
H2030 H 0.91127 0.38817 0.92272 0.0
H2031 H 0.92943 0.34336 0.928 0.0
C2032 C 0.83291 0.38286 0.88878 0.0
C2033 C 0.86033 0.36359 0.8806 0.0
C2034 C 0.82817 0.37629 0.90427 0.0
C2035 C 0.85058 0.3501 0.91179 0.0
C2036 C 0.87657 0.32919 0.90345 0.0
H2037 H 0.84054 0.3221 0.01139 0.0
H2038 H 0.85481 0.30882 0.98456 0.0
C2039 C 0.88139 0.33591 0.88791 0.0
C2040 C 0.8473 0.34632 0.92846 0.0
H2041 H 0.89218 0.36715 0.96162 0.0
C2042 C 0.81249 0.33668 0.93456 0.0
C2043 C 0.87678 0.35657 0.9383 0.0
C2044 C 0.91442 0.36824 0.9323 0.0
C2045 C 0.80591 0.33854 0.95024 0.0
C2046 C 0.83485 0.35036 0.95996 0.0
C2047 C 0.8702 0.35809 0.95401 0.0
C2048 C 0.82768 0.35847 0.97609 0.0
C2049 C 0.76774 0.32924 0.95632 0.0
C2050 C 0.80864 0.39116 0.98004 0.0
C2051 C 0.80088 0.39891 0.99525 0.0
C2052 C 0.81161 0.3738 0.00667 0.0
C2053 C 0.83177 0.34165 1.00271 0.0
C2054 C 0.83978 0.33401 0.98748 0.0
H2055 H 0.75047 0.3143 0.94779 0.0
H2056 H 0.77002 0.31181 0.96672 0.0
H2057 H 0.75319 0.35542 0.95949 0.0
H2058 H 0.79975 0.41062 0.97134 0.0
H2059 H 0.78662 0.42454 0.99807 0.0
H2060 H 0.47722 0.03594 0.25859 0.0
H2061 H 0.49439 0.0514 0.23232 0.0
H2062 H 0.39334 0.11587 0.22784 0.0
H2063 H 0.37725 0.10148 0.25431 0.0
H2064 H 0.46031 0.03207 0.20786 0.0
H2065 H 0.46479 0.18554 0.20831 0.0
H2066 H 0.4635 0.15856 0.22564 0.0
H2067 H 0.421 0.17 0.21573 0.0
C2068 C 0.45909 0.05373 0.25195 0.0
C2069 C 0.4259 0.06744 0.25822 0.0
C2070 C 0.46889 0.06269 0.23703 0.0
C2071 C 0.44548 0.08531 0.22816 0.0
C2072 C 0.41247 0.09939 0.23458 0.0
H2073 H 0.39224 0.07156 0.1357 0.0
H2074 H 0.40487 0.06289 0.1627 0.0
C2075 C 0.40305 0.09093 0.24959 0.0
C2076 C 0.45344 0.09105 0.2118 0.0
H2077 H 0.45122 0.1568 0.1838 0.0
C2078 C 0.45912 0.05947 0.20266 0.0
C2079 C 0.45291 0.12678 0.20498 0.0
C2080 C 0.45066 0.16211 0.21424 0.0
C2081 C 0.46156 0.06243 0.18681 0.0
C2082 C 0.45689 0.09773 0.17991 0.0
C2083 C 0.45404 0.12961 0.18908 0.0
C2084 C 0.45106 0.10175 0.16334 0.0
C2085 C 0.46839 0.02754 0.17764 0.0
C2086 C 0.47224 0.12711 0.15477 0.0
C2087 C 0.46418 0.13291 0.13939 0.0
C2088 C 0.43461 0.11377 0.13246 0.0
C2089 C 0.41431 0.08758 0.14093 0.0
C2090 C 0.42209 0.08203 0.15627 0.0
H2091 H 0.48534 1.00717 0.18419 0.0
H2092 H 0.44131 1.01406 0.17504 0.0
H2093 H 0.48292 0.03376 0.16679 0.0
H2094 H 0.49461 0.14274 0.16004 0.0
H2095 H 0.48033 0.15301 0.13299 0.0
H2096 H 0.42088 0.38854 0.61686 0.0
H2097 H 0.41008 0.37874 0.58967 0.0
H2098 H 0.30758 0.32116 0.59995 0.0
H2099 H 0.31743 0.33285 0.62715 0.0
H2100 H 0.39863 0.31736 0.57129 0.0
H2101 H 0.2727 0.40759 0.57355 0.0
H2102 H 0.30515 0.40428 0.58914 0.0
H2103 H 0.27142 0.36802 0.58604 0.0
C2104 C 0.39587 0.37423 0.61327 0.0
C2105 C 0.36913 0.36285 0.62395 0.0
C2106 C 0.38999 0.36813 0.5978 0.0
C2107 C 0.35753 0.35013 0.59283 0.0
C2108 C 0.33231 0.33598 0.60357 0.0
H2109 H 0.26684 0.33313 0.50128 0.0
H2110 H 0.28076 0.32103 0.52818 0.0
C2111 C 0.33805 0.3424 0.61905 0.0
C2112 C 0.34899 0.34871 0.57641 0.0
H2113 H 0.28775 0.38118 0.54987 0.0
C2114 C 0.37429 0.3311 0.56658 0.0
C2115 C 0.31733 0.36694 0.57036 0.0
C2116 C 0.29023 0.38808 0.58027 0.0
C2117 C 0.36879 0.33141 0.55079 0.0
C2118 C 0.33738 0.34996 0.54479 0.0
C2119 C 0.3117 0.36684 0.55461 0.0
C2120 C 0.33126 0.35396 0.5283 0.0
C2121 C 0.39656 0.31206 0.54063 0.0
C2122 C 0.35521 0.37628 0.51956 0.0
C2123 C 0.34695 0.38361 0.50433 0.0
C2124 C 0.31446 0.36909 0.49777 0.0
C2125 C 0.29139 0.34552 0.50635 0.0
C2126 C 0.2995 0.33833 0.52157 0.0
H2127 H 0.41415 0.29204 0.54706 0.0
H2128 H 0.38214 0.29693 0.53131 0.0
H2129 H 0.41512 0.33321 0.53538 0.0
H2130 H 0.37959 0.38897 0.52465 0.0
H2131 H 0.36523 0.40145 0.49778 0.0
H2132 H 0.89176 0.06818 0.37253 0.0
H2133 H 0.90309 0.05972 0.34533 0.0
H2134 H 0.97966 0.15247 0.34576 0.0
H2135 H 0.96739 0.16151 0.37307 0.0
H2136 H 0.9258 0.15766 0.32327 0.0
H2137 H 0.99176 1.0184 0.32207 0.0
H2138 H 0.94946 1.01827 0.33293 0.0
H2139 H 0.98843 0.04583 0.33924 0.0
C2140 C 0.911 0.08666 0.36678 0.0
C2141 C 0.9282 0.11591 0.37467 0.0
C2142 C 0.9179 0.08151 0.35134 0.0
C2143 C 0.94254 0.10521 0.3436 0.0
C2144 C 0.96072 0.13378 0.35159 0.0
H2145 H 0.9719 0.09685 0.24411 0.0
H2146 H 0.98383 0.11204 0.27097 0.0
C2147 C 0.95382 0.13888 0.36709 0.0
C2148 C 0.94637 0.10193 0.32693 0.0
H2149 H 0.96156 0.03828 0.2988 0.0
C2150 C 0.93447 0.1319 0.31788 0.0
C2151 C 0.9578 0.0683 0.31997 0.0
C2152 C 0.97295 0.03603 0.32907 0.0
C2153 C 0.93142 0.1282 0.30205 0.0
C2154 C 0.94052 0.0938 0.29526 0.0
C2155 C 0.95433 0.06452 0.30418 0.0
C2156 C 0.93297 0.08664 0.2791 0.0
C2157 C 0.91672 0.16025 0.29272 0.0
C2158 C 0.90026 0.06791 0.27496 0.0
C2159 C 0.89337 0.05948 0.25974 0.0
C2160 C 0.91938 0.06923 0.24851 0.0
C2161 C 0.95163 0.08896 0.25265 0.0
C2162 C 0.95849 0.09749 0.26789 0.0
H2163 H 0.91126 0.18543 0.29973 0.0
H2164 H 0.9371 0.16751 0.28369 0.0
H2165 H 0.89044 0.15182 0.28701 0.0
H2166 H 0.88017 0.05969 0.28353 0.0
H2167 H 0.86781 0.04532 0.25674 0.0
H2168 H 0.22763 0.71805 0.12602 0.0
H2169 H 0.23543 0.73056 0.09879 0.0
H2170 H 0.13107 0.6751 0.08968 0.0
H2171 H 0.12242 0.66453 0.11691 0.0
H2172 H 0.2434 0.67572 0.07864 0.0
H2173 H 0.12338 0.76262 0.06138 0.0
H2174 H 0.13655 0.75646 0.08105 0.0
H2175 H 0.10879 0.72177 0.07151 0.0
C2176 C 0.20602 0.70945 0.11819 0.0
C2177 C 0.17499 0.68941 0.12341 0.0
C2178 C 0.21047 0.7165 0.10268 0.0
C2179 C 0.18377 0.70388 0.09221 0.0
C2180 C 0.15175 0.68564 0.09754 0.0
H2181 H 0.18384 0.63893 0.99872 0.0
H2182 H 0.16884 0.65258 0.02544 0.0
C2183 C 0.14718 0.67888 0.11306 0.0
C2184 C 0.19164 0.70532 0.07571 0.0
H2185 H 0.15428 0.72862 0.04128 0.0
C2186 C 0.22424 0.68791 0.0705 0.0
C2187 C 0.16647 0.72104 0.06511 0.0
C2188 C 0.13204 0.74185 0.07007 0.0
C2189 C 0.2317 0.68456 0.05494 0.0
C2190 C 0.20595 0.69915 0.04437 0.0
C2191 C 0.17377 0.71734 0.0495 0.0
C2192 C 0.21181 0.69444 0.02791 0.0
C2193 C 0.26641 0.66431 0.04986 0.0
C2194 C 0.24014 0.71424 0.02052 0.0
C2195 C 0.24862 0.70648 0.00537 0.0
C2196 C 0.22911 0.67859 0.9975 0.0
C2197 C 0.19943 0.66022 0.00469 0.0
C2198 C 0.19086 0.66803 0.01985 0.0
H2199 H 0.28079 0.65017 0.05946 0.0
H2200 H 0.25945 0.6432 0.04108 0.0
H2201 H 0.28607 0.68455 0.04469 0.0
H2202 H 0.25621 0.73504 0.02657 0.0
H2203 H 0.27057 0.72206 0.99984 0.0
H2204 H 0.65372 0.98452 0.8726 0.0
H2205 H 0.6414 0.99214 0.84543 0.0
H2206 H 0.55867 0.90498 0.84758 0.0
H2207 H 0.57187 0.89677 0.87486 0.0
H2208 H 0.61097 0.89462 0.82474 0.0
H2209 H 0.5545 0.03788 0.82236 0.0
H2210 H 0.59712 0.0359 0.83297 0.0
H2211 H 0.55667 1.01137 0.83982 0.0
C2212 C 0.63289 0.96712 0.86724 0.0
C2213 C 0.61419 0.93962 0.8756 0.0
C2214 C 0.62546 0.97181 0.85181 0.0
C2215 C 0.59881 0.9494 0.84456 0.0
C2216 C 0.57916 0.92268 0.85302 0.0
H2217 H 0.56937 0.95302 0.74492 0.0
H2218 H 0.55644 0.93964 0.77187 0.0
C2219 C 0.58659 0.91805 0.86852 0.0
C2220 C 0.59439 0.95184 0.8279 0.0
H2221 H 0.58287 1.01474 0.79918 0.0
C2222 C 0.60391 0.92059 0.81911 0.0
C2223 C 0.58504 0.98574 0.82063 0.0
C2224 C 0.57238 1.01949 0.82945 0.0
C2225 C 0.60682 0.92315 0.80325 0.0
C2226 C 0.6 0.95772 0.79614 0.0
C2227 C 0.58838 0.98836 0.8048 0.0
C2228 C 0.60808 0.96357 0.77992 0.0
C2229 C 0.61915 0.88965 0.7942 0.0
C2230 C 0.64154 0.98083 0.77571 0.0
C2231 C 0.64898 0.98821 0.76045 0.0
C2232 C 0.6228 0.97889 0.74924 0.0
C2233 C 0.5898 0.96054 0.75344 0.0
C2234 C 0.58238 0.95305 0.76874 0.0
H2235 H 0.62326 0.86464 0.80147 0.0
H2236 H 0.59802 0.88312 0.78538 0.0
H2237 H 0.64569 0.89603 0.78825 0.0
H2238 H 0.66177 0.98878 0.78426 0.0
H2239 H 0.67507 1.00132 0.7574 0.0
loop_
_geom_bond_atom_site_label_1
_geom_bond_atom_site_label_2
_geom_bond_distance
_geom_bond_site_symmetry_2
_ccdc_geom_bond_type
Zn0 O1 2.055 . S
Zn0 O8 2.046 . S
Zn0 N16 2.036 . S
Zn0 O28 2.053 . S
Zn0 O30 2.066 . S
O1 Zn0 2.055 . S
O1 C4 1.259 . S
C2 O30 1.256 . S
C2 O31 1.244 . S
Zn3 O5 2.046 . S
Zn3 O7 2.055 . S
Zn3 N9 2.036 . S
Zn3 O27 2.066 . S
Zn3 O31 2.053 . S
C4 O1 1.259 . S
C4 O5 1.254 . S
O5 Zn3 2.046 . S
O5 C4 1.254 . S
C6 O27 1.256 . S
C6 O28 1.244 . S
O7 Zn3 2.055 . S
O7 C29 1.259 . S
O8 Zn0 2.046 . S
O8 C29 1.254 . S
N9 Zn3 2.036 . S
N9 C10 1.298 . S
N9 N12 1.398 . S
C10 N9 1.298 . S
C10 N13 1.367 . S
C10 C23 1.481 . S
C11 N12 1.299 . S
C11 N13 1.379 . S
N12 N9 1.398 . S
N12 C11 1.299 . S
N13 C10 1.367 . S
N13 C11 1.379 . S
C14 N16 1.298 . S
C14 N18 1.367 . S
C14 C22 1.481 . S
C15 N17 1.299 . S
C15 N18 1.379 . S
N16 Zn0 2.036 . S
N16 C14 1.298 . S
N16 N17 1.398 . S
N17 C15 1.299 . S
N17 N16 1.398 . S
N18 C14 1.367 . S
N18 C15 1.379 . S
H19 C22 0.980 . S
H20 C22 0.981 . S
H21 C22 0.981 . S
C22 C14 1.481 . S
C22 H19 0.980 . S
C22 H20 0.981 . S
C22 H21 0.981 . S
C23 C10 1.481 . S
C23 H24 0.980 . S
C23 H25 0.981 . S
C23 H26 0.981 . S
H24 C23 0.980 . S
H25 C23 0.981 . S
H26 C23 0.981 . S
O27 Zn3 2.066 . S
O27 C6 1.256 . S
O28 Zn0 2.053 . S
O28 C6 1.244 . S
C29 O7 1.259 . S
C29 O8 1.254 . S
O30 Zn0 2.066 . S
O30 C2 1.256 . S
O31 C2 1.244 . S
O31 Zn3 2.053 . S
Zn32 O33 2.055 . S
Zn32 O40 2.046 . S
Zn32 N48 2.036 . S
Zn32 O60 2.053 . S
Zn32 O62 2.066 . S
O33 Zn32 2.055 . S
O33 C36 1.259 . S
C34 O62 1.256 . S
C34 O63 1.244 . S
Zn35 O37 2.046 . S
Zn35 O39 2.055 . S
Zn35 N41 2.036 . S
Zn35 O59 2.066 . S
Zn35 O63 2.053 . S
C36 O33 1.259 . S
C36 O37 1.254 . S
O37 Zn35 2.046 . S
O37 C36 1.254 . S
C38 O59 1.256 . S
C38 O60 1.244 . S
O39 Zn35 2.055 . S
O39 C61 1.259 . S
O40 Zn32 2.046 . S
O40 C61 1.254 . S
N41 Zn35 2.036 . S
N41 C42 1.298 . S
N41 N44 1.398 . S
C42 N41 1.298 . S
C42 N45 1.367 . S
C42 C55 1.481 . S
C43 N44 1.299 . S
C43 N45 1.379 . S
N44 N41 1.398 . S
N44 C43 1.299 . S
N45 C42 1.367 . S
N45 C43 1.379 . S
C46 N48 1.298 . S
C46 N50 1.367 . S
C46 C54 1.481 . S
C47 N49 1.299 . S
C47 N50 1.379 . S
N48 Zn32 2.036 . S
N48 C46 1.298 . S
N48 N49 1.398 . S
N49 C47 1.299 . S
N49 N48 1.398 . S
N50 C46 1.367 . S
N50 C47 1.379 . S
H51 C54 0.980 . S
H52 C54 0.981 . S
H53 C54 0.981 . S
C54 C46 1.481 . S
C54 H51 0.980 . S
C54 H52 0.981 . S
C54 H53 0.981 . S
C55 C42 1.481 . S
C55 H56 0.980 . S
C55 H57 0.981 . S
C55 H58 0.981 . S
H56 C55 0.980 . S
H57 C55 0.981 . S
H58 C55 0.981 . S
O59 Zn35 2.066 . S
O59 C38 1.256 . S
O60 Zn32 2.053 . S
O60 C38 1.244 . S
C61 O39 1.259 . S
C61 O40 1.254 . S
O62 Zn32 2.066 . S
O62 C34 1.256 . S
O63 C34 1.244 . S
O63 Zn35 2.053 . S
Zn64 O65 2.055 . S
Zn64 O72 2.046 . S
Zn64 N80 2.036 . S
Zn64 O92 2.053 . S
Zn64 O94 2.066 . S
O65 Zn64 2.055 . S
O65 C68 1.259 . S
C66 O94 1.256 . S
C66 O95 1.244 . S
Zn67 O69 2.046 . S
Zn67 O71 2.055 . S
Zn67 N73 2.036 . S
Zn67 O91 2.066 . S
Zn67 O95 2.053 . S
C68 O65 1.259 . S
C68 O69 1.254 . S
O69 Zn67 2.046 . S
O69 C68 1.254 . S
C70 O91 1.256 . S
C70 O92 1.244 . S
O71 Zn67 2.055 . S
O71 C93 1.259 . S
O72 Zn64 2.046 . S
O72 C93 1.254 . S
N73 Zn67 2.036 . S
N73 C74 1.298 . S
N73 N76 1.398 . S
C74 N73 1.298 . S
C74 N77 1.367 . S
C74 C87 1.481 . S
C75 N76 1.299 . S
C75 N77 1.379 . S
N76 N73 1.398 . S
N76 C75 1.299 . S
N77 C74 1.367 . S
N77 C75 1.379 . S
C78 N80 1.298 . S
C78 N82 1.367 . S
C78 C86 1.481 . S
C79 N81 1.299 . S
C79 N82 1.379 . S
N80 Zn64 2.036 . S
N80 C78 1.298 . S
N80 N81 1.398 . S
N81 C79 1.299 . S
N81 N80 1.398 . S
N82 C78 1.367 . S
N82 C79 1.379 . S
H83 C86 0.980 . S
H84 C86 0.981 . S
H85 C86 0.981 . S
C86 C78 1.481 . S
C86 H83 0.980 . S
C86 H84 0.981 . S
C86 H85 0.981 . S
C87 C74 1.481 . S
C87 H88 0.980 . S
C87 H89 0.981 . S
C87 H90 0.981 . S
H88 C87 0.980 . S
H89 C87 0.981 . S
H90 C87 0.981 . S
O91 Zn67 2.066 . S
O91 C70 1.256 . S
O92 Zn64 2.053 . S
O92 C70 1.244 . S
C93 O71 1.259 . S
C93 O72 1.254 . S
O94 Zn64 2.066 . S
O94 C66 1.256 . S
O95 C66 1.244 . S
O95 Zn67 2.053 . S
Zn96 O97 2.055 . S
Zn96 O104 2.046 . S
Zn96 N112 2.036 . S
Zn96 O124 2.053 . S
Zn96 O126 2.066 . S
O97 Zn96 2.055 . S
O97 C100 1.259 . S
C98 O126 1.256 . S
C98 O127 1.244 . S
Zn99 O101 2.046 . S
Zn99 O103 2.055 . S
Zn99 N105 2.036 . S
Zn99 O123 2.066 . S
Zn99 O127 2.053 . S
C100 O97 1.259 . S
C100 O101 1.254 . S
O101 Zn99 2.046 . S
O101 C100 1.254 . S
C102 O123 1.256 . S
C102 O124 1.244 . S
O103 Zn99 2.055 . S
O103 C125 1.259 . S
O104 Zn96 2.046 . S
O104 C125 1.254 . S
N105 Zn99 2.036 . S
N105 C106 1.298 . S
N105 N108 1.398 . S
C106 N105 1.298 . S
C106 N109 1.367 . S
C106 C119 1.481 . S
C107 N108 1.299 . S
C107 N109 1.379 . S
N108 N105 1.398 . S
N108 C107 1.299 . S
N109 C106 1.367 . S
N109 C107 1.379 . S
C110 N112 1.298 . S
C110 N114 1.367 . S
C110 C118 1.481 . S
C111 N113 1.299 . S
C111 N114 1.379 . S
N112 Zn96 2.036 . S
N112 C110 1.298 . S
N112 N113 1.398 . S
N113 C111 1.299 . S
N113 N112 1.398 . S
N114 C110 1.367 . S
N114 C111 1.379 . S
H115 C118 0.980 . S
H116 C118 0.981 . S
H117 C118 0.981 . S
C118 C110 1.481 . S
C118 H115 0.980 . S
C118 H116 0.981 . S
C118 H117 0.981 . S
C119 C106 1.481 . S
C119 H120 0.980 . S
C119 H121 0.981 . S
C119 H122 0.981 . S
H120 C119 0.980 . S
H121 C119 0.981 . S
H122 C119 0.981 . S
O123 Zn99 2.066 . S
O123 C102 1.256 . S
O124 Zn96 2.053 . S
O124 C102 1.244 . S
C125 O103 1.259 . S
C125 O104 1.254 . S
O126 Zn96 2.066 . S
O126 C98 1.256 . S
O127 C98 1.244 . S
O127 Zn99 2.053 . S
Zn128 O129 2.055 . S
Zn128 O136 2.046 . S
Zn128 N144 2.036 . S
Zn128 O156 2.053 . S
Zn128 O158 2.066 . S
O129 Zn128 2.055 . S
O129 C132 1.259 . S
C130 O158 1.256 . S
C130 O159 1.244 . S
Zn131 O133 2.046 . S
Zn131 O135 2.055 . S
Zn131 N137 2.036 . S
Zn131 O155 2.066 . S
Zn131 O159 2.053 . S
C132 O129 1.259 . S
C132 O133 1.254 . S
O133 Zn131 2.046 . S
O133 C132 1.254 . S
C134 O155 1.256 . S
C134 O156 1.244 . S
O135 Zn131 2.055 . S
O135 C157 1.259 . S
O136 Zn128 2.046 . S
O136 C157 1.254 . S
N137 Zn131 2.036 . S
N137 C138 1.298 . S
N137 N140 1.398 . S
C138 N137 1.298 . S
C138 N141 1.367 . S
C138 C151 1.481 . S
C139 N140 1.299 . S
C139 N141 1.379 . S
N140 N137 1.398 . S
N140 C139 1.299 . S
N141 C138 1.367 . S
N141 C139 1.379 . S
C142 N144 1.298 . S
C142 N146 1.367 . S
C142 C150 1.481 . S
C143 N145 1.299 . S
C143 N146 1.379 . S
N144 Zn128 2.036 . S
N144 C142 1.298 . S
N144 N145 1.398 . S
N145 C143 1.299 . S
N145 N144 1.398 . S
N146 C142 1.367 . S
N146 C143 1.379 . S
H147 C150 0.980 . S
H148 C150 0.981 . S
H149 C150 0.981 . S
C150 C142 1.481 . S
C150 H147 0.980 . S
C150 H148 0.981 . S
C150 H149 0.981 . S
C151 C138 1.481 . S
C151 H152 0.980 . S
C151 H153 0.981 . S
C151 H154 0.981 . S
H152 C151 0.980 . S
H153 C151 0.981 . S
H154 C151 0.981 . S
O155 Zn131 2.066 . S
O155 C134 1.256 . S
O156 Zn128 2.053 . S
O156 C134 1.244 . S
C157 O135 1.259 . S
C157 O136 1.254 . S
O158 Zn128 2.066 . S
O158 C130 1.256 . S
O159 C130 1.244 . S
O159 Zn131 2.053 . S
Zn160 O161 2.055 . S
Zn160 O168 2.046 . S
Zn160 N176 2.036 . S
Zn160 O188 2.053 . S
Zn160 O190 2.066 . S
O161 Zn160 2.055 . S
O161 C164 1.259 . S
C162 O190 1.256 . S
C162 O191 1.244 . S
Zn163 O165 2.046 . S
Zn163 O167 2.055 . S
Zn163 N169 2.036 . S
Zn163 O187 2.066 . S
Zn163 O191 2.053 . S
C164 O161 1.259 . S
C164 O165 1.254 . S
O165 Zn163 2.046 . S
O165 C164 1.254 . S
C166 O187 1.256 . S
C166 O188 1.244 . S
O167 Zn163 2.055 . S
O167 C189 1.259 . S
O168 Zn160 2.046 . S
O168 C189 1.254 . S
N169 Zn163 2.036 . S
N169 C170 1.298 . S
N169 N172 1.398 . S
C170 N169 1.298 . S
C170 N173 1.367 . S
C170 C183 1.481 . S
C171 N172 1.299 . S
C171 N173 1.379 . S
N172 N169 1.398 . S
N172 C171 1.299 . S
N173 C170 1.367 . S
N173 C171 1.379 . S
C174 N176 1.298 . S
C174 N178 1.367 . S
C174 C182 1.481 . S
C175 N177 1.299 . S
C175 N178 1.379 . S
N176 Zn160 2.036 . S
N176 C174 1.298 . S
N176 N177 1.398 . S
N177 C175 1.299 . S
N177 N176 1.398 . S
N178 C174 1.367 . S
N178 C175 1.379 . S
H179 C182 0.980 . S
H180 C182 0.981 . S
H181 C182 0.981 . S
C182 C174 1.481 . S
C182 H179 0.980 . S
C182 H180 0.981 . S
C182 H181 0.981 . S
C183 C170 1.481 . S
C183 H184 0.980 . S
C183 H185 0.981 . S
C183 H186 0.981 . S
H184 C183 0.980 . S
H185 C183 0.981 . S
H186 C183 0.981 . S
O187 Zn163 2.066 . S
O187 C166 1.256 . S
O188 Zn160 2.053 . S
O188 C166 1.244 . S
C189 O167 1.259 . S
C189 O168 1.254 . S
O190 Zn160 2.066 . S
O190 C162 1.256 . S
O191 C162 1.244 . S
O191 Zn163 2.053 . S
Zn192 O193 2.055 . S
Zn192 O200 2.046 . S
Zn192 N208 2.036 . S
Zn192 O220 2.053 . S
Zn192 O222 2.066 . S
O193 Zn192 2.055 . S
O193 C196 1.259 . S
C194 O222 1.256 . S
C194 O223 1.244 . S
Zn195 O197 2.046 . S
Zn195 O199 2.055 . S
Zn195 N201 2.036 . S
Zn195 O219 2.066 . S
Zn195 O223 2.053 . S
C196 O193 1.259 . S
C196 O197 1.254 . S
O197 Zn195 2.046 . S
O197 C196 1.254 . S
C198 O219 1.256 . S
C198 O220 1.244 . S
O199 Zn195 2.055 . S
O199 C221 1.259 . S
O200 Zn192 2.046 . S
O200 C221 1.254 . S
N201 Zn195 2.036 . S
N201 C202 1.298 . S
N201 N204 1.398 . S
C202 N201 1.298 . S
C202 N205 1.367 . S
C202 C215 1.481 . S
C203 N204 1.299 . S
C203 N205 1.379 . S
N204 N201 1.398 . S
N204 C203 1.299 . S
N205 C202 1.367 . S
N205 C203 1.379 . S
C206 N208 1.298 . S
C206 N210 1.367 . S
C206 C214 1.481 . S
C207 N209 1.299 . S
C207 N210 1.379 . S
N208 Zn192 2.036 . S
N208 C206 1.298 . S
N208 N209 1.398 . S
N209 C207 1.299 . S
N209 N208 1.398 . S
N210 C206 1.367 . S
N210 C207 1.379 . S
H211 C214 0.980 . S
H212 C214 0.981 . S
H213 C214 0.981 . S
C214 C206 1.481 . S
C214 H211 0.980 . S
C214 H212 0.981 . S
C214 H213 0.981 . S
C215 C202 1.481 . S
C215 H216 0.980 . S
C215 H217 0.981 . S
C215 H218 0.981 . S
H216 C215 0.980 . S
H217 C215 0.981 . S
H218 C215 0.981 . S
O219 Zn195 2.066 . S
O219 C198 1.256 . S
O220 Zn192 2.053 . S
O220 C198 1.244 . S
C221 O199 1.259 . S
C221 O200 1.254 . S
O222 Zn192 2.066 . S
O222 C194 1.256 . S
O223 C194 1.244 . S
O223 Zn195 2.053 . S
Zn224 O225 2.055 . S
Zn224 O232 2.046 . S
Zn224 N240 2.036 . S
Zn224 O252 2.053 . S
Zn224 O254 2.066 . S
O225 Zn224 2.055 . S
O225 C228 1.259 . S
C226 O254 1.256 . S
C226 O255 1.244 . S
Zn227 O229 2.046 . S
Zn227 O231 2.055 . S
Zn227 N233 2.036 . S
Zn227 O251 2.066 . S
Zn227 O255 2.053 . S
C228 O225 1.259 . S
C228 O229 1.254 . S
O229 Zn227 2.046 . S
O229 C228 1.254 . S
C230 O251 1.256 . S
C230 O252 1.244 . S
O231 Zn227 2.055 . S
O231 C253 1.259 . S
O232 Zn224 2.046 . S
O232 C253 1.254 . S
N233 Zn227 2.036 . S
N233 C234 1.298 . S
N233 N236 1.398 . S
C234 N233 1.298 . S
C234 N237 1.367 . S
C234 C247 1.481 . S
C235 N236 1.299 . S
C235 N237 1.379 . S
N236 N233 1.398 . S
N236 C235 1.299 . S
N237 C234 1.367 . S
N237 C235 1.379 . S
C238 N240 1.298 . S
C238 N242 1.367 . S
C238 C246 1.481 . S
C239 N241 1.299 . S
C239 N242 1.379 . S
N240 Zn224 2.036 . S
N240 C238 1.298 . S
N240 N241 1.398 . S
N241 C239 1.299 . S
N241 N240 1.398 . S
N242 C238 1.367 . S
N242 C239 1.379 . S
H243 C246 0.980 . S
H244 C246 0.981 . S
H245 C246 0.981 . S
C246 C238 1.481 . S
C246 H243 0.980 . S
C246 H244 0.981 . S
C246 H245 0.981 . S
C247 C234 1.481 . S
C247 H248 0.980 . S
C247 H249 0.981 . S
C247 H250 0.981 . S
H248 C247 0.980 . S
H249 C247 0.981 . S
H250 C247 0.981 . S
O251 Zn227 2.066 . S
O251 C230 1.256 . S
O252 Zn224 2.053 . S
O252 C230 1.244 . S
C253 O231 1.259 . S
C253 O232 1.254 . S
O254 Zn224 2.066 . S
O254 C226 1.256 . S
O255 C226 1.244 . S
O255 Zn227 2.053 . S
Zn256 O257 2.055 . S
Zn256 O264 2.046 . S
Zn256 N272 2.036 . S
Zn256 O284 2.053 . S
Zn256 O286 2.066 . S
O257 Zn256 2.055 . S
O257 C260 1.259 . S
C258 O286 1.256 . S
C258 O287 1.244 . S
Zn259 O261 2.046 . S
Zn259 O263 2.055 . S
Zn259 N265 2.036 . S
Zn259 O283 2.066 . S
Zn259 O287 2.053 . S
C260 O257 1.259 . S
C260 O261 1.254 . S
O261 Zn259 2.046 . S
O261 C260 1.254 . S
C262 O283 1.256 . S
C262 O284 1.244 . S
O263 Zn259 2.055 . S
O263 C285 1.259 . S
O264 Zn256 2.046 . S
O264 C285 1.254 . S
N265 Zn259 2.036 . S
N265 C266 1.298 . S
N265 N268 1.398 . S
C266 N265 1.298 . S
C266 N269 1.367 . S
C266 C279 1.481 . S
C267 N268 1.299 . S
C267 N269 1.379 . S
N268 N265 1.398 . S
N268 C267 1.299 . S
N269 C266 1.367 . S
N269 C267 1.379 . S
C270 N272 1.298 . S
C270 N274 1.367 . S
C270 C278 1.481 . S
C271 N273 1.299 . S
C271 N274 1.379 . S
N272 Zn256 2.036 . S
N272 C270 1.298 . S
N272 N273 1.398 . S
N273 C271 1.299 . S
N273 N272 1.398 . S
N274 C270 1.367 . S
N274 C271 1.379 . S
H275 C278 0.980 . S
H276 C278 0.981 . S
H277 C278 0.981 . S
C278 C270 1.481 . S
C278 H275 0.980 . S
C278 H276 0.981 . S
C278 H277 0.981 . S
C279 C266 1.481 . S
C279 H280 0.980 . S
C279 H281 0.981 . S
C279 H282 0.981 . S
H280 C279 0.980 . S
H281 C279 0.981 . S
H282 C279 0.981 . S
O283 Zn259 2.066 . S
O283 C262 1.256 . S
O284 Zn256 2.053 . S
O284 C262 1.244 . S
C285 O263 1.259 . S
C285 O264 1.254 . S
O286 Zn256 2.066 . S
O286 C258 1.256 . S
O287 C258 1.244 . S
O287 Zn259 2.053 . S
Zn288 O289 2.055 . S
Zn288 O296 2.046 . S
Zn288 N304 2.036 . S
Zn288 O316 2.053 . S
Zn288 O318 2.066 . S
O289 Zn288 2.055 . S
O289 C292 1.259 . S
C290 O318 1.256 . S
C290 O319 1.244 . S
Zn291 O293 2.046 . S
Zn291 O295 2.055 . S
Zn291 N297 2.036 . S
Zn291 O315 2.066 . S
Zn291 O319 2.053 . S
C292 O289 1.259 . S
C292 O293 1.254 . S
O293 Zn291 2.046 . S
O293 C292 1.254 . S
C294 O315 1.256 . S
C294 O316 1.244 . S
O295 Zn291 2.055 . S
O295 C317 1.259 . S
O296 Zn288 2.046 . S
O296 C317 1.254 . S
N297 Zn291 2.036 . S
N297 C298 1.298 . S
N297 N300 1.398 . S
C298 N297 1.298 . S
C298 N301 1.367 . S
C298 C311 1.481 . S
C299 N300 1.299 . S
C299 N301 1.379 . S
N300 N297 1.398 . S
N300 C299 1.299 . S
N301 C298 1.367 . S
N301 C299 1.379 . S
C302 N304 1.298 . S
C302 N306 1.367 . S
C302 C310 1.481 . S
C303 N305 1.299 1_565 S
C303 N306 1.379 1_565 S
N304 Zn288 2.036 . S
N304 C302 1.298 . S
N304 N305 1.398 . S
N305 C303 1.299 1_545 S
N305 N304 1.398 . S
N306 C302 1.367 . S
N306 C303 1.379 1_545 S
H307 C310 0.980 . S
H308 C310 0.981 . S
H309 C310 0.981 . S
C310 C302 1.481 . S
C310 H307 0.980 . S
C310 H308 0.981 . S
C310 H309 0.981 . S
C311 C298 1.481 . S
C311 H312 0.980 . S
C311 H313 0.981 . S
C311 H314 0.981 . S
H312 C311 0.980 . S
H313 C311 0.981 . S
H314 C311 0.981 . S
O315 Zn291 2.066 . S
O315 C294 1.256 . S
O316 Zn288 2.053 . S
O316 C294 1.244 . S
C317 O295 1.259 . S
C317 O296 1.254 . S
O318 Zn288 2.066 . S
O318 C290 1.256 . S
O319 C290 1.244 . S
O319 Zn291 2.053 . S
Zn320 O321 2.055 . S
Zn320 O328 2.046 . S
Zn320 N336 2.036 . S
Zn320 O348 2.053 . S
Zn320 O350 2.066 . S
O321 Zn320 2.055 . S
O321 C324 1.259 . S
C322 O350 1.256 . S
C322 O351 1.244 . S
Zn323 O325 2.046 . S
Zn323 O327 2.055 . S
Zn323 N329 2.036 . S
Zn323 O347 2.066 . S
Zn323 O351 2.053 . S
C324 O321 1.259 . S
C324 O325 1.254 . S
O325 Zn323 2.046 . S
O325 C324 1.254 . S
C326 O347 1.256 . S
C326 O348 1.244 . S
O327 Zn323 2.055 . S
O327 C349 1.259 . S
O328 Zn320 2.046 . S
O328 C349 1.254 . S
N329 Zn323 2.036 . S
N329 C330 1.298 . S
N329 N332 1.398 . S
C330 N329 1.298 . S
C330 N333 1.367 . S
C330 C343 1.481 . S
C331 N332 1.299 . S
C331 N333 1.379 . S
N332 N329 1.398 . S
N332 C331 1.299 . S
N333 C330 1.367 . S
N333 C331 1.379 . S
C334 N336 1.298 . S
C334 N338 1.367 . S
C334 C342 1.481 . S
C335 N337 1.299 . S
C335 N338 1.379 . S
N336 Zn320 2.036 . S
N336 C334 1.298 . S
N336 N337 1.398 . S
N337 C335 1.299 . S
N337 N336 1.398 . S
N338 C334 1.367 . S
N338 C335 1.379 . S
H339 C342 0.980 . S
H340 C342 0.981 . S
H341 C342 0.981 . S
C342 C334 1.481 . S
C342 H339 0.980 . S
C342 H340 0.981 . S
C342 H341 0.981 . S
C343 C330 1.481 . S
C343 H344 0.980 . S
C343 H345 0.981 . S
C343 H346 0.981 . S
H344 C343 0.980 . S
H345 C343 0.981 . S
H346 C343 0.981 . S
O347 Zn323 2.066 . S
O347 C326 1.256 . S
O348 Zn320 2.053 . S
O348 C326 1.244 . S
C349 O327 1.259 . S
C349 O328 1.254 . S
O350 Zn320 2.066 . S
O350 C322 1.256 . S
O351 C322 1.244 . S
O351 Zn323 2.053 . S
Zn352 O353 2.055 . S
Zn352 O360 2.046 . S
Zn352 N368 2.036 . S
Zn352 O380 2.053 . S
Zn352 O382 2.066 . S
O353 Zn352 2.055 . S
O353 C356 1.259 . S
C354 O382 1.256 . S
C354 O383 1.244 . S
Zn355 O357 2.046 . S
Zn355 O359 2.055 . S
Zn355 N361 2.036 . S
Zn355 O379 2.066 . S
Zn355 O383 2.053 . S
C356 O353 1.259 . S
C356 O357 1.254 . S
O357 Zn355 2.046 . S
O357 C356 1.254 . S
C358 O379 1.256 . S
C358 O380 1.244 . S
O359 Zn355 2.055 . S
O359 C381 1.259 . S
O360 Zn352 2.046 . S
O360 C381 1.254 . S
N361 Zn355 2.036 . S
N361 C362 1.298 . S
N361 N364 1.398 . S
C362 N361 1.298 . S
C362 N365 1.367 . S
C362 C375 1.481 . S
C363 N364 1.299 1_545 S
C363 N365 1.379 1_545 S
N364 N361 1.398 . S
N364 C363 1.299 1_565 S
N365 C362 1.367 . S
N365 C363 1.379 1_565 S
C366 N368 1.298 . S
C366 N370 1.367 . S
C366 C374 1.481 . S
C367 N369 1.299 . S
C367 N370 1.379 . S
N368 Zn352 2.036 . S
N368 C366 1.298 . S
N368 N369 1.398 . S
N369 C367 1.299 . S
N369 N368 1.398 . S
N370 C366 1.367 . S
N370 C367 1.379 . S
H371 C374 0.980 . S
H372 C374 0.981 . S
H373 C374 0.981 . S
C374 C366 1.481 . S
C374 H371 0.980 . S
C374 H372 0.981 . S
C374 H373 0.981 . S
C375 C362 1.481 . S
C375 H376 0.980 . S
C375 H377 0.981 . S
C375 H378 0.981 . S
H376 C375 0.980 . S
H377 C375 0.981 . S
H378 C375 0.981 . S
O379 Zn355 2.066 . S
O379 C358 1.256 . S
O380 Zn352 2.053 . S
O380 C358 1.244 . S
C381 O359 1.259 . S
C381 O360 1.254 . S
O382 Zn352 2.066 . S
O382 C354 1.256 . S
O383 C354 1.244 . S
O383 Zn355 2.053 . S
Zn384 O385 2.055 . S
Zn384 O392 2.046 . S
Zn384 N400 2.036 . S
Zn384 O412 2.053 . S
Zn384 O414 2.066 . S
O385 Zn384 2.055 . S
O385 C388 1.259 . S
C386 O414 1.256 . S
C386 O415 1.244 . S
Zn387 O389 2.046 . S
Zn387 O391 2.055 . S
Zn387 N393 2.036 . S
Zn387 O411 2.066 . S
Zn387 O415 2.053 . S
C388 O385 1.259 . S
C388 O389 1.254 . S
O389 Zn387 2.046 . S
O389 C388 1.254 . S
C390 O411 1.256 . S
C390 O412 1.244 . S
O391 Zn387 2.055 . S
O391 C413 1.259 . S
O392 Zn384 2.046 . S
O392 C413 1.254 . S
N393 Zn387 2.036 . S
N393 C394 1.298 . S
N393 N396 1.398 . S
C394 N393 1.298 . S
C394 N397 1.367 . S
C394 C407 1.481 . S
C395 N396 1.299 . S
C395 N397 1.379 . S
N396 N393 1.398 . S
N396 C395 1.299 . S
N397 C394 1.367 . S
N397 C395 1.379 . S
C398 N400 1.298 . S
C398 N402 1.367 . S
C398 C406 1.481 . S
C399 N401 1.299 . S
C399 N402 1.379 . S
N400 Zn384 2.036 . S
N400 C398 1.298 . S
N400 N401 1.398 . S
N401 C399 1.299 . S
N401 N400 1.398 . S
N402 C398 1.367 . S
N402 C399 1.379 . S
H403 C406 0.980 . S
H404 C406 0.981 . S
H405 C406 0.981 . S
C406 C398 1.481 . S
C406 H403 0.980 . S
C406 H404 0.981 . S
C406 H405 0.981 . S
C407 C394 1.481 . S
C407 H408 0.980 . S
C407 H409 0.981 . S
C407 H410 0.981 . S
H408 C407 0.980 . S
H409 C407 0.981 . S
H410 C407 0.981 . S
O411 Zn387 2.066 . S
O411 C390 1.256 . S
O412 Zn384 2.053 . S
O412 C390 1.244 . S
C413 O391 1.259 . S
C413 O392 1.254 . S
O414 Zn384 2.066 . S
O414 C386 1.256 . S
O415 C386 1.244 . S
O415 Zn387 2.053 . S
Zn416 O417 2.055 . S
Zn416 O424 2.046 . S
Zn416 N432 2.036 . S
Zn416 O444 2.053 . S
Zn416 O446 2.066 . S
O417 Zn416 2.055 . S
O417 C420 1.259 . S
C418 O446 1.256 . S
C418 O447 1.244 . S
Zn419 O421 2.046 . S
Zn419 O423 2.055 . S
Zn419 N425 2.036 . S
Zn419 O443 2.066 . S
Zn419 O447 2.053 . S
C420 O417 1.259 . S
C420 O421 1.254 . S
O421 Zn419 2.046 . S
O421 C420 1.254 . S
C422 O443 1.256 . S
C422 O444 1.244 . S
O423 Zn419 2.055 . S
O423 C445 1.259 . S
O424 Zn416 2.046 . S
O424 C445 1.254 . S
N425 Zn419 2.036 . S
N425 C426 1.298 . S
N425 N428 1.398 . S
C426 N425 1.298 . S
C426 N429 1.367 . S
C426 C439 1.481 . S
C427 N428 1.299 . S
C427 N429 1.379 . S
N428 N425 1.398 . S
N428 C427 1.299 . S
N429 C426 1.367 . S
N429 C427 1.379 . S
C430 N432 1.298 . S
C430 N434 1.367 . S
C430 C438 1.481 . S
C431 N433 1.299 1_545 S
C431 N434 1.379 1_545 S
N432 Zn416 2.036 . S
N432 C430 1.298 . S
N432 N433 1.398 . S
N433 C431 1.299 1_565 S
N433 N432 1.398 . S
N434 C430 1.367 . S
N434 C431 1.379 1_565 S
H435 C438 0.980 . S
H436 C438 0.981 . S
H437 C438 0.981 . S
C438 C430 1.481 . S
C438 H435 0.980 . S
C438 H436 0.981 . S
C438 H437 0.981 . S
C439 C426 1.481 . S
C439 H440 0.980 . S
C439 H441 0.981 . S
C439 H442 0.981 . S
H440 C439 0.980 . S
H441 C439 0.981 . S
H442 C439 0.981 . S
O443 Zn419 2.066 . S
O443 C422 1.256 . S
O444 Zn416 2.053 . S
O444 C422 1.244 . S
C445 O423 1.259 . S
C445 O424 1.254 . S
O446 Zn416 2.066 . S
O446 C418 1.256 . S
O447 C418 1.244 . S
O447 Zn419 2.053 . S
Zn448 O449 2.055 . S
Zn448 O456 2.046 . S
Zn448 N464 2.036 . S
Zn448 O476 2.053 . S
Zn448 O478 2.066 . S
O449 Zn448 2.055 . S
O449 C452 1.259 . S
C450 O478 1.256 . S
C450 O479 1.244 . S
Zn451 O453 2.046 . S
Zn451 O455 2.055 . S
Zn451 N457 2.036 . S
Zn451 O475 2.066 . S
Zn451 O479 2.053 . S
C452 O449 1.259 . S
C452 O453 1.254 . S
O453 Zn451 2.046 . S
O453 C452 1.254 . S
C454 O475 1.256 . S
C454 O476 1.244 . S
O455 Zn451 2.055 . S
O455 C477 1.259 . S
O456 Zn448 2.046 . S
O456 C477 1.254 . S
N457 Zn451 2.036 . S
N457 C458 1.298 . S
N457 N460 1.398 . S
C458 N457 1.298 . S
C458 N461 1.367 . S
C458 C471 1.481 . S
C459 N460 1.299 . S
C459 N461 1.379 . S
N460 N457 1.398 . S
N460 C459 1.299 . S
N461 C458 1.367 . S
N461 C459 1.379 . S
C462 N464 1.298 . S
C462 N466 1.367 . S
C462 C470 1.481 . S
C463 N465 1.299 . S
C463 N466 1.379 . S
N464 Zn448 2.036 . S
N464 C462 1.298 . S
N464 N465 1.398 . S
N465 C463 1.299 . S
N465 N464 1.398 . S
N466 C462 1.367 . S
N466 C463 1.379 . S
H467 C470 0.980 . S
H468 C470 0.981 . S
H469 C470 0.981 . S
C470 C462 1.481 . S
C470 H467 0.980 . S
C470 H468 0.981 . S
C470 H469 0.981 . S
C471 C458 1.481 . S
C471 H472 0.980 . S
C471 H473 0.981 . S
C471 H474 0.981 . S
H472 C471 0.980 . S
H473 C471 0.981 . S
H474 C471 0.981 . S
O475 Zn451 2.066 . S
O475 C454 1.256 . S
O476 Zn448 2.053 . S
O476 C454 1.244 . S
C477 O455 1.259 . S
C477 O456 1.254 . S
O478 Zn448 2.066 . S
O478 C450 1.256 . S
O479 C450 1.244 . S
O479 Zn451 2.053 . S
Zn480 O481 2.055 . S
Zn480 O488 2.046 . S
Zn480 N496 2.036 . S
Zn480 O508 2.053 . S
Zn480 O510 2.066 . S
O481 Zn480 2.055 . S
O481 C484 1.259 . S
C482 O510 1.256 . S
C482 O511 1.244 . S
Zn483 O485 2.046 . S
Zn483 O487 2.055 . S
Zn483 N489 2.036 . S
Zn483 O507 2.066 . S
Zn483 O511 2.053 . S
C484 O481 1.259 . S
C484 O485 1.254 . S
O485 Zn483 2.046 . S
O485 C484 1.254 . S
C486 O507 1.256 . S
C486 O508 1.244 . S
O487 Zn483 2.055 . S
O487 C509 1.259 . S
O488 Zn480 2.046 . S
O488 C509 1.254 . S
N489 Zn483 2.036 . S
N489 C490 1.298 . S
N489 N492 1.398 . S
C490 N489 1.298 . S
C490 N493 1.367 . S
C490 C503 1.481 . S
C491 N492 1.299 1_565 S
C491 N493 1.379 1_565 S
N492 N489 1.398 . S
N492 C491 1.299 1_545 S
N493 C490 1.367 . S
N493 C491 1.379 1_545 S
C494 N496 1.298 . S
C494 N498 1.367 . S
C494 C502 1.481 . S
C495 N497 1.299 . S
C495 N498 1.379 . S
N496 Zn480 2.036 . S
N496 C494 1.298 . S
N496 N497 1.398 . S
N497 C495 1.299 . S
N497 N496 1.398 . S
N498 C494 1.367 . S
N498 C495 1.379 . S
H499 C502 0.980 . S
H500 C502 0.981 . S
H501 C502 0.981 . S
C502 C494 1.481 . S
C502 H499 0.980 . S
C502 H500 0.981 . S
C502 H501 0.981 . S
C503 C490 1.481 . S
C503 H504 0.980 . S
C503 H505 0.981 . S
C503 H506 0.981 . S
H504 C503 0.980 . S
H505 C503 0.981 . S
H506 C503 0.981 . S
O507 Zn483 2.066 . S
O507 C486 1.256 . S
O508 Zn480 2.053 . S
O508 C486 1.244 . S
C509 O487 1.259 . S
C509 O488 1.254 . S
O510 Zn480 2.066 . S
O510 C482 1.256 . S
O511 C482 1.244 . S
O511 Zn483 2.053 . S
H512 C520 0.929 . S
H513 C522 0.930 . S
H514 C524 0.930 . S
H515 C527 0.929 . S
H516 C530 0.930 . S
H517 C532 0.960 . S
H518 C532 0.960 . S
H519 C532 0.960 . S
C520 H512 0.929 . S
C520 C521 1.377 . S
C520 C522 1.384 . S
C521 C520 1.377 . S
C521 C527 1.390 . S
C522 H513 0.930 . S
C522 C520 1.384 . S
C522 C523 1.372 . S
C523 C522 1.372 . S
C523 C524 1.400 . S
C523 C528 1.490 . S
C524 H514 0.930 . S
C524 C523 1.400 . S
C524 C527 1.386 . S
H525 C541 0.930 . S
H526 C542 0.931 . S
C527 H515 0.929 . S
C527 C521 1.390 . S
C527 C524 1.386 . S
C528 C523 1.490 . S
C528 C530 1.395 . S
C528 C531 1.403 . S
H529 C535 0.930 . S
C530 H516 0.930 . S
C530 C528 1.395 . S
C530 C533 1.403 . S
C531 C528 1.403 . S
C531 C532 1.524 . S
C531 C535 1.400 . S
C532 H517 0.960 . S
C532 H518 0.960 . S
C532 H519 0.960 . S
C532 C531 1.524 . S
C533 C530 1.403 . S
C533 C534 1.392 . S
C533 C537 1.495 . S
C534 C533 1.392 . S
C534 C535 1.385 . S
C534 C536 1.478 . S
C535 H529 0.930 . S
C535 C531 1.400 . S
C535 C534 1.385 . S
C536 C534 1.478 . S
C536 C538 1.381 . S
C536 C542 1.383 . S
C537 C533 1.495 . S
C537 H543 0.959 . S
C537 H544 0.961 . S
C537 H545 0.960 . S
C538 C536 1.381 . S
C538 C539 1.394 . S
C538 H546 0.930 . S
C539 C538 1.394 . S
C539 C540 1.383 . S
C539 H547 0.929 . S
C540 C539 1.383 . S
C540 C541 1.377 . S
C541 H525 0.930 . S
C541 C540 1.377 . S
C541 C542 1.379 . S
C542 H526 0.931 . S
C542 C536 1.383 . S
C542 C541 1.379 . S
H543 C537 0.959 . S
H544 C537 0.961 . S
H545 C537 0.960 . S
H546 C538 0.930 . S
H547 C539 0.929 . S
H548 C556 0.929 . S
H549 C558 0.930 . S
H550 C560 0.930 . S
H551 C563 0.929 . S
H552 C566 0.930 . S
H553 C568 0.960 . S
H554 C568 0.960 . S
H555 C568 0.960 . S
C556 H548 0.929 . S
C556 C557 1.377 . S
C556 C558 1.384 . S
C557 C556 1.377 . S
C557 C563 1.390 . S
C558 H549 0.930 . S
C558 C556 1.384 . S
C558 C559 1.372 . S
C559 C558 1.372 . S
C559 C560 1.400 . S
C559 C564 1.490 . S
C560 H550 0.930 . S
C560 C559 1.400 . S
C560 C563 1.386 . S
H561 C577 0.930 . S
H562 C578 0.931 . S
C563 H551 0.929 . S
C563 C557 1.390 . S
C563 C560 1.386 . S
C564 C559 1.490 . S
C564 C566 1.395 . S
C564 C567 1.403 . S
H565 C571 0.930 . S
C566 H552 0.930 . S
C566 C564 1.395 . S
C566 C569 1.403 . S
C567 C564 1.403 . S
C567 C568 1.524 . S
C567 C571 1.400 . S
C568 H553 0.960 . S
C568 H554 0.960 . S
C568 H555 0.960 . S
C568 C567 1.524 . S
C569 C566 1.403 . S
C569 C570 1.392 . S
C569 C573 1.495 . S
C570 C569 1.392 . S
C570 C571 1.385 . S
C570 C572 1.478 . S
C571 H565 0.930 . S
C571 C567 1.400 . S
C571 C570 1.385 . S
C572 C570 1.478 . S
C572 C574 1.381 . S
C572 C578 1.383 . S
C573 C569 1.495 . S
C573 H579 0.959 . S
C573 H580 0.961 . S
C573 H581 0.960 . S
C574 C572 1.381 . S
C574 C575 1.394 . S
C574 H582 0.930 . S
C575 C574 1.394 . S
C575 C576 1.383 . S
C575 H583 0.929 . S
C576 C575 1.383 . S
C576 C577 1.377 . S
C577 H561 0.930 . S
C577 C576 1.377 . S
C577 C578 1.379 . S
C578 H562 0.931 . S
C578 C572 1.383 . S
C578 C577 1.379 . S
H579 C573 0.959 . S
H580 C573 0.961 . S
H581 C573 0.960 . S
H582 C574 0.930 . S
H583 C575 0.929 . S
H584 C592 0.929 . S
H585 C594 0.930 . S
H586 C596 0.930 . S
H587 C599 0.929 . S
H588 C602 0.930 . S
H589 C604 0.960 1_655 S
H590 C604 0.960 . S
H591 C604 0.960 . S
C592 H584 0.929 . S
C592 C593 1.377 . S
C592 C594 1.384 . S
C593 C592 1.377 . S
C593 C599 1.390 . S
C594 H585 0.930 . S
C594 C592 1.384 . S
C594 C595 1.372 . S
C595 C594 1.372 . S
C595 C596 1.400 . S
C595 C600 1.490 . S
C596 H586 0.930 . S
C596 C595 1.400 . S
C596 C599 1.386 . S
H597 C613 0.930 . S
H598 C614 0.931 . S
C599 H587 0.929 . S
C599 C593 1.390 . S
C599 C596 1.386 . S
C600 C595 1.490 . S
C600 C602 1.395 . S
C600 C603 1.403 . S
H601 C607 0.930 . S
C602 H588 0.930 . S
C602 C600 1.395 . S
C602 C605 1.403 1_455 S
C603 C600 1.403 . S
C603 C604 1.524 . S
C603 C607 1.400 1_455 S
C604 H589 0.960 1_455 S
C604 H590 0.960 . S
C604 H591 0.960 . S
C604 C603 1.524 . S
C605 C602 1.403 1_655 S
C605 C606 1.392 . S
C605 C609 1.495 . S
C606 C605 1.392 . S
C606 C607 1.385 . S
C606 C608 1.478 . S
C607 H601 0.930 . S
C607 C603 1.400 1_655 S
C607 C606 1.385 . S
C608 C606 1.478 . S
C608 C610 1.381 . S
C608 C614 1.383 . S
C609 C605 1.495 . S
C609 H615 0.959 1_655 S
C609 H616 0.961 . S
C609 H617 0.960 . S
C610 C608 1.381 . S
C610 C611 1.394 . S
C610 H618 0.930 . S
C611 C610 1.394 . S
C611 C612 1.383 . S
C611 H619 0.929 . S
C612 C611 1.383 . S
C612 C613 1.377 . S
C613 H597 0.930 . S
C613 C612 1.377 . S
C613 C614 1.379 . S
C614 H598 0.931 . S
C614 C608 1.383 . S
C614 C613 1.379 . S
H615 C609 0.959 1_455 S
H616 C609 0.961 . S
H617 C609 0.960 . S
H618 C610 0.930 . S
H619 C611 0.929 . S
H620 C628 0.929 . S
H621 C630 0.930 . S
H622 C632 0.930 1_655 S
H623 C635 0.929 . S
H624 C638 0.930 . S
H625 C640 0.960 . S
H626 C640 0.960 . S
H627 C640 0.960 . S
C628 H620 0.929 . S
C628 C629 1.377 . S
C628 C630 1.384 . S
C629 C628 1.377 . S
C629 C635 1.390 . S
C630 H621 0.930 . S
C630 C628 1.384 . S
C630 C631 1.372 . S
C631 C630 1.372 . S
C631 C632 1.400 . S
C631 C636 1.490 . S
C632 H622 0.930 1_455 S
C632 C631 1.400 . S
C632 C635 1.386 . S
H633 C649 0.930 . S
H634 C650 0.931 . S
C635 H623 0.929 . S
C635 C629 1.390 . S
C635 C632 1.386 . S
C636 C631 1.490 . S
C636 C638 1.395 . S
C636 C639 1.403 1_455 S
H637 C643 0.930 . S
C638 H624 0.930 . S
C638 C636 1.395 . S
C638 C641 1.403 . S
C639 C636 1.403 1_655 S
C639 C640 1.524 . S
C639 C643 1.400 . S
C640 H625 0.960 . S
C640 H626 0.960 . S
C640 H627 0.960 . S
C640 C639 1.524 . S
C641 C638 1.403 . S
C641 C642 1.392 1_455 S
C641 C645 1.495 . S
C642 C641 1.392 1_655 S
C642 C643 1.385 . S
C642 C644 1.478 . S
C643 H637 0.930 . S
C643 C639 1.400 . S
C643 C642 1.385 . S
C644 C642 1.478 . S
C644 C646 1.381 . S
C644 C650 1.383 . S
C645 C641 1.495 . S
C645 H651 0.959 . S
C645 H652 0.961 . S
C645 H653 0.960 . S
C646 C644 1.381 . S
C646 C647 1.394 . S
C646 H654 0.930 1_655 S
C647 C646 1.394 . S
C647 C648 1.383 . S
C647 H655 0.929 . S
C648 C647 1.383 . S
C648 C649 1.377 . S
C649 H633 0.930 . S
C649 C648 1.377 . S
C649 C650 1.379 . S
C650 H634 0.931 . S
C650 C644 1.383 . S
C650 C649 1.379 . S
H651 C645 0.959 . S
H652 C645 0.961 . S
H653 C645 0.960 . S
H654 C646 0.930 1_455 S
H655 C647 0.929 . S
H656 C664 0.929 . S
H657 C666 0.930 . S
H658 C668 0.930 . S
H659 C671 0.929 . S
H660 C674 0.930 . S
H661 C676 0.960 . S
H662 C676 0.960 . S
H663 C676 0.960 . S
C664 H656 0.929 . S
C664 C665 1.377 . S
C664 C666 1.384 . S
C665 C664 1.377 . S
C665 C671 1.390 . S
C666 H657 0.930 . S
C666 C664 1.384 . S
C666 C667 1.372 . S
C667 C666 1.372 . S
C667 C668 1.400 . S
C667 C672 1.490 . S
C668 H658 0.930 . S
C668 C667 1.400 . S
C668 C671 1.386 . S
H669 C685 0.930 . S
H670 C686 0.931 . S
C671 H659 0.929 . S
C671 C665 1.390 . S
C671 C668 1.386 . S
C672 C667 1.490 . S
C672 C674 1.395 . S
C672 C675 1.403 . S
H673 C679 0.930 . S
C674 H660 0.930 . S
C674 C672 1.395 . S
C674 C677 1.403 . S
C675 C672 1.403 . S
C675 C676 1.524 . S
C675 C679 1.400 . S
C676 H661 0.960 . S
C676 H662 0.960 . S
C676 H663 0.960 . S
C676 C675 1.524 . S
C677 C674 1.403 . S
C677 C678 1.392 . S
C677 C681 1.495 . S
C678 C677 1.392 . S
C678 C679 1.385 . S
C678 C680 1.478 . S
C679 H673 0.930 . S
C679 C675 1.400 . S
C679 C678 1.385 . S
C680 C678 1.478 . S
C680 C682 1.381 . S
C680 C686 1.383 . S
C681 C677 1.495 . S
C681 H687 0.959 . S
C681 H688 0.961 . S
C681 H689 0.960 . S
C682 C680 1.381 . S
C682 C683 1.394 . S
C682 H690 0.930 . S
C683 C682 1.394 . S
C683 C684 1.383 . S
C683 H691 0.929 . S
C684 C683 1.383 . S
C684 C685 1.377 . S
C685 H669 0.930 . S
C685 C684 1.377 . S
C685 C686 1.379 . S
C686 H670 0.931 . S
C686 C680 1.383 . S
C686 C685 1.379 . S
H687 C681 0.959 . S
H688 C681 0.961 . S
H689 C681 0.960 . S
H690 C682 0.930 . S
H691 C683 0.929 . S
H692 C700 0.929 . S
H693 C702 0.930 . S
H694 C704 0.930 . S
H695 C707 0.929 . S
H696 C710 0.930 . S
H697 C712 0.960 . S
H698 C712 0.960 . S
H699 C712 0.960 . S
C700 H692 0.929 . S
C700 C701 1.377 . S
C700 C702 1.384 . S
C701 C700 1.377 . S
C701 C707 1.390 . S
C702 H693 0.930 . S
C702 C700 1.384 . S
C702 C703 1.372 . S
C703 C702 1.372 . S
C703 C704 1.400 . S
C703 C708 1.490 . S
C704 H694 0.930 . S
C704 C703 1.400 . S
C704 C707 1.386 . S
H705 C721 0.930 . S
H706 C722 0.931 . S
C707 H695 0.929 . S
C707 C701 1.390 . S
C707 C704 1.386 . S
C708 C703 1.490 . S
C708 C710 1.395 . S
C708 C711 1.403 . S
H709 C715 0.930 . S
C710 H696 0.930 . S
C710 C708 1.395 . S
C710 C713 1.403 . S
C711 C708 1.403 . S
C711 C712 1.524 . S
C711 C715 1.400 . S
C712 H697 0.960 . S
C712 H698 0.960 . S
C712 H699 0.960 . S
C712 C711 1.524 . S
C713 C710 1.403 . S
C713 C714 1.392 . S
C713 C717 1.495 . S
C714 C713 1.392 . S
C714 C715 1.385 . S
C714 C716 1.478 . S
C715 H709 0.930 . S
C715 C711 1.400 . S
C715 C714 1.385 . S
C716 C714 1.478 . S
C716 C718 1.381 . S
C716 C722 1.383 . S
C717 C713 1.495 . S
C717 H723 0.959 . S
C717 H724 0.961 . S
C717 H725 0.960 . S
C718 C716 1.381 . S
C718 C719 1.394 . S
C718 H726 0.930 . S
C719 C718 1.394 . S
C719 C720 1.383 . S
C719 H727 0.929 . S
C720 C719 1.383 . S
C720 C721 1.377 . S
C721 H705 0.930 . S
C721 C720 1.377 . S
C721 C722 1.379 . S
C722 H706 0.931 . S
C722 C716 1.383 . S
C722 C721 1.379 . S
H723 C717 0.959 . S
H724 C717 0.961 . S
H725 C717 0.960 . S
H726 C718 0.930 . S
H727 C719 0.929 . S
H728 C736 0.929 . S
H729 C738 0.930 . S
H730 C740 0.930 . S
H731 C743 0.929 . S
H732 C746 0.930 . S
H733 C748 0.960 . S
H734 C748 0.960 . S
H735 C748 0.960 . S
C736 H728 0.929 . S
C736 C737 1.377 . S
C736 C738 1.384 . S
C737 C736 1.377 . S
C737 C743 1.390 . S
C738 H729 0.930 . S
C738 C736 1.384 . S
C738 C739 1.372 . S
C739 C738 1.372 . S
C739 C740 1.400 . S
C739 C744 1.490 . S
C740 H730 0.930 . S
C740 C739 1.400 . S
C740 C743 1.386 . S
H741 C757 0.930 . S
H742 C758 0.931 . S
C743 H731 0.929 . S
C743 C737 1.390 . S
C743 C740 1.386 . S
C744 C739 1.490 . S
C744 C746 1.395 . S
C744 C747 1.403 . S
H745 C751 0.930 . S
C746 H732 0.930 . S
C746 C744 1.395 . S
C746 C749 1.403 1_455 S
C747 C744 1.403 . S
C747 C748 1.524 . S
C747 C751 1.400 1_455 S
C748 H733 0.960 . S
C748 H734 0.960 . S
C748 H735 0.960 . S
C748 C747 1.524 . S
C749 C746 1.403 1_655 S
C749 C750 1.392 . S
C749 C753 1.495 . S
C750 C749 1.392 . S
C750 C751 1.385 . S
C750 C752 1.478 . S
C751 H745 0.930 . S
C751 C747 1.400 1_655 S
C751 C750 1.385 . S
C752 C750 1.478 . S
C752 C754 1.381 . S
C752 C758 1.383 . S
C753 C749 1.495 . S
C753 H759 0.959 . S
C753 H760 0.961 . S
C753 H761 0.960 . S
C754 C752 1.381 . S
C754 C755 1.394 . S
C754 H762 0.930 . S
C755 C754 1.394 . S
C755 C756 1.383 . S
C755 H763 0.929 . S
C756 C755 1.383 . S
C756 C757 1.377 . S
C757 H741 0.930 . S
C757 C756 1.377 . S
C757 C758 1.379 . S
C758 H742 0.931 . S
C758 C752 1.383 . S
C758 C757 1.379 . S
H759 C753 0.959 . S
H760 C753 0.961 . S
H761 C753 0.960 . S
H762 C754 0.930 . S
H763 C755 0.929 . S
H764 C772 0.929 . S
H765 C774 0.930 . S
H766 C776 0.930 . S
H767 C779 0.929 . S
H768 C782 0.930 . S
H769 C784 0.960 . S
H770 C784 0.960 . S
H771 C784 0.960 . S
C772 H764 0.929 . S
C772 C773 1.377 . S
C772 C774 1.384 . S
C773 C772 1.377 . S
C773 C779 1.390 . S
C774 H765 0.930 . S
C774 C772 1.384 . S
C774 C775 1.372 . S
C775 C774 1.372 . S
C775 C776 1.400 . S
C775 C780 1.490 . S
C776 H766 0.930 . S
C776 C775 1.400 . S
C776 C779 1.386 . S
H777 C793 0.930 . S
H778 C794 0.931 . S
C779 H767 0.929 . S
C779 C773 1.390 . S
C779 C776 1.386 . S
C780 C775 1.490 . S
C780 C782 1.395 1_455 S
C780 C783 1.403 . S
H781 C787 0.930 . S
C782 H768 0.930 . S
C782 C780 1.395 1_655 S
C782 C785 1.403 . S
C783 C780 1.403 . S
C783 C784 1.524 . S
C783 C787 1.400 . S
C784 H769 0.960 . S
C784 H770 0.960 . S
C784 H771 0.960 . S
C784 C783 1.524 . S
C785 C782 1.403 . S
C785 C786 1.392 . S
C785 C789 1.495 . S
C786 C785 1.392 . S
C786 C787 1.385 1_655 S
C786 C788 1.478 . S
C787 H781 0.930 . S
C787 C783 1.400 . S
C787 C786 1.385 1_455 S
C788 C786 1.478 . S
C788 C790 1.381 . S
C788 C794 1.383 . S
C789 C785 1.495 . S
C789 H795 0.959 . S
C789 H796 0.961 . S
C789 H797 0.960 . S
C790 C788 1.381 . S
C790 C791 1.394 . S
C790 H798 0.930 . S
C791 C790 1.394 . S
C791 C792 1.383 . S
C791 H799 0.929 . S
C792 C791 1.383 . S
C792 C793 1.377 . S
C793 H777 0.930 . S
C793 C792 1.377 . S
C793 C794 1.379 . S
C794 H778 0.931 . S
C794 C788 1.383 . S
C794 C793 1.379 . S
H795 C789 0.959 . S
H796 C789 0.961 . S
H797 C789 0.960 . S
H798 C790 0.930 . S
H799 C791 0.929 . S
H800 C808 0.929 . S
H801 C810 0.930 . S
H802 C812 0.930 1_565 S
H803 C815 0.929 . S
H804 C818 0.930 . S
H805 C820 0.974 . S
H806 C820 0.935 1_545 S
H807 C820 0.956 1_554 S
C808 H800 0.929 . S
C808 C809 1.377 . S
C808 C810 1.384 . S
C809 C808 1.377 . S
C809 C815 1.390 . S
C810 H801 0.930 . S
C810 C808 1.384 . S
C810 C811 1.372 . S
C811 C810 1.372 . S
C811 C812 1.400 . S
C811 C816 1.490 . S
C812 H802 0.930 1_545 S
C812 C811 1.400 . S
C812 C815 1.386 . S
H813 C829 0.930 . S
H814 C830 0.931 . S
C815 H803 0.929 . S
C815 C809 1.390 . S
C815 C812 1.386 . S
C816 C811 1.490 . S
C816 C818 1.395 . S
C816 C819 1.415 1_554 S
H817 C823 0.930 . S
C818 H804 0.930 . S
C818 C816 1.395 . S
C818 C821 1.403 . S
C819 C816 1.415 1_556 S
C819 C820 1.523 1_545 S
C819 C823 1.389 1_545 S
C820 H805 0.974 . S
C820 H806 0.935 1_565 S
C820 H807 0.956 1_556 S
C820 C819 1.523 1_565 S
C821 C818 1.403 . S
C821 C822 1.392 1_544 S
C821 C825 1.495 . S
C822 C821 1.392 1_566 S
C822 C823 1.385 . S
C822 C824 1.478 . S
C823 H817 0.930 . S
C823 C819 1.389 1_565 S
C823 C822 1.385 . S
C824 C822 1.478 . S
C824 C826 1.381 . S
C824 C830 1.383 . S
C825 C821 1.495 . S
C825 H831 0.959 . S
C825 H832 0.961 1_545 S
C825 H833 0.962 1_554 S
C826 C824 1.381 . S
C826 C827 1.394 . S
C826 H834 0.930 1_565 S
C827 C826 1.394 . S
C827 C828 1.383 . S
C827 H835 0.929 . S
C828 C827 1.383 . S
C828 C829 1.377 . S
C829 H813 0.930 . S
C829 C828 1.377 . S
C829 C830 1.379 . S
C830 H814 0.931 . S
C830 C824 1.383 . S
C830 C829 1.379 . S
H831 C825 0.959 . S
H832 C825 0.961 1_565 S
H833 C825 0.962 1_556 S
H834 C826 0.930 1_545 S
H835 C827 0.929 . S
H836 C844 0.929 . S
H837 C846 0.930 . S
H838 C848 0.930 . S
H839 C851 0.929 . S
H840 C854 0.930 . S
H841 C856 0.960 . S
H842 C856 0.960 . S
H843 C856 0.960 . S
C844 H836 0.929 . S
C844 C845 1.377 . S
C844 C846 1.384 . S
C845 C844 1.377 . S
C845 C851 1.390 . S
C846 H837 0.930 . S
C846 C844 1.384 . S
C846 C847 1.372 . S
C847 C846 1.372 . S
C847 C848 1.400 . S
C847 C852 1.490 . S
C848 H838 0.930 . S
C848 C847 1.400 . S
C848 C851 1.386 . S
H849 C865 0.930 . S
H850 C866 0.931 . S
C851 H839 0.929 . S
C851 C845 1.390 . S
C851 C848 1.386 . S
C852 C847 1.490 . S
C852 C854 1.395 . S
C852 C855 1.403 . S
H853 C859 0.930 . S
C854 H840 0.930 . S
C854 C852 1.395 . S
C854 C857 1.403 . S
C855 C852 1.403 . S
C855 C856 1.524 . S
C855 C859 1.400 . S
C856 H841 0.960 . S
C856 H842 0.960 . S
C856 H843 0.960 . S
C856 C855 1.524 . S
C857 C854 1.403 . S
C857 C858 1.392 . S
C857 C861 1.495 . S
C858 C857 1.392 . S
C858 C859 1.385 . S
C858 C860 1.478 . S
C859 H853 0.930 . S
C859 C855 1.400 . S
C859 C858 1.385 . S
C860 C858 1.478 . S
C860 C862 1.381 . S
C860 C866 1.383 . S
C861 C857 1.495 . S
C861 H867 0.959 . S
C861 H868 0.961 . S
C861 H869 0.960 . S
C862 C860 1.381 . S
C862 C863 1.394 . S
C862 H870 0.930 . S
C863 C862 1.394 . S
C863 C864 1.383 . S
C863 H871 0.929 . S
C864 C863 1.383 . S
C864 C865 1.377 . S
C865 H849 0.930 . S
C865 C864 1.377 . S
C865 C866 1.379 . S
C866 H850 0.931 . S
C866 C860 1.383 . S
C866 C865 1.379 . S
H867 C861 0.959 . S
H868 C861 0.961 . S
H869 C861 0.960 . S
H870 C862 0.930 . S
H871 C863 0.929 . S
H872 C880 0.929 . S
H873 C882 0.930 1_545 S
H874 C884 0.930 . S
H875 C887 0.929 . S
H876 C890 0.930 . S
H877 C892 0.960 . S
H878 C892 0.960 . S
H879 C892 0.960 . S
C880 H872 0.929 . S
C880 C881 1.377 . S
C880 C882 1.384 . S
C881 C880 1.377 . S
C881 C887 1.390 . S
C882 H873 0.930 1_565 S
C882 C880 1.384 . S
C882 C883 1.372 . S
C883 C882 1.372 . S
C883 C884 1.400 . S
C883 C888 1.490 . S
C884 H874 0.930 . S
C884 C883 1.400 . S
C884 C887 1.386 . S
H885 C901 0.930 . S
H886 C902 0.931 1_565 S
C887 H875 0.929 . S
C887 C881 1.390 . S
C887 C884 1.386 . S
C888 C883 1.490 . S
C888 C890 1.395 1_565 S
C888 C891 1.403 1_455 S
H889 C895 0.930 . S
C890 H876 0.930 . S
C890 C888 1.395 1_545 S
C890 C893 1.403 . S
C891 C888 1.403 1_655 S
C891 C892 1.524 . S
C891 C895 1.400 . S
C892 H877 0.960 . S
C892 H878 0.960 . S
C892 H879 0.960 . S
C892 C891 1.524 . S
C893 C890 1.403 . S
C893 C894 1.392 1_455 S
C893 C897 1.495 . S
C894 C893 1.392 1_655 S
C894 C895 1.385 1_545 S
C894 C896 1.478 . S
C895 H889 0.930 . S
C895 C891 1.400 . S
C895 C894 1.385 1_565 S
C896 C894 1.478 . S
C896 C898 1.381 . S
C896 C902 1.383 . S
C897 C893 1.495 . S
C897 H903 0.959 . S
C897 H904 0.961 . S
C897 H905 0.960 . S
C898 C896 1.381 . S
C898 C899 1.394 . S
C898 H906 0.930 . S
C899 C898 1.394 . S
C899 C900 1.383 . S
C899 H907 0.929 . S
C900 C899 1.383 . S
C900 C901 1.377 . S
C901 H885 0.930 . S
C901 C900 1.377 . S
C901 C902 1.379 . S
C902 H886 0.931 1_545 S
C902 C896 1.383 . S
C902 C901 1.379 . S
H903 C897 0.959 . S
H904 C897 0.961 . S
H905 C897 0.960 . S
H906 C898 0.930 . S
H907 C899 0.929 . S
H908 C916 0.929 . S
H909 C918 0.930 . S
H910 C920 0.930 . S
H911 C923 0.929 . S
H912 C926 0.930 . S
H913 C928 0.960 . S
H914 C928 0.960 . S
H915 C928 0.960 . S
C916 H908 0.929 . S
C916 C917 1.377 . S
C916 C918 1.384 . S
C917 C916 1.377 . S
C917 C923 1.390 . S
C918 H909 0.930 . S
C918 C916 1.384 . S
C918 C919 1.372 . S
C919 C918 1.372 . S
C919 C920 1.400 . S
C919 C924 1.490 . S
C920 H910 0.930 . S
C920 C919 1.400 . S
C920 C923 1.386 . S
H921 C937 0.930 . S
H922 C938 0.931 . S
C923 H911 0.929 . S
C923 C917 1.390 . S
C923 C920 1.386 . S
C924 C919 1.490 . S
C924 C926 1.395 . S
C924 C927 1.403 . S
H925 C931 0.930 . S
C926 H912 0.930 . S
C926 C924 1.395 . S
C926 C929 1.403 . S
C927 C924 1.403 . S
C927 C928 1.524 . S
C927 C931 1.400 . S
C928 H913 0.960 . S
C928 H914 0.960 . S
C928 H915 0.960 . S
C928 C927 1.524 . S
C929 C926 1.403 . S
C929 C930 1.392 . S
C929 C933 1.495 . S
C930 C929 1.392 . S
C930 C931 1.385 . S
C930 C932 1.478 . S
C931 H925 0.930 . S
C931 C927 1.400 . S
C931 C930 1.385 . S
C932 C930 1.478 . S
C932 C934 1.381 . S
C932 C938 1.383 . S
C933 C929 1.495 . S
C933 H939 0.959 . S
C933 H940 0.961 . S
C933 H941 0.960 . S
C934 C932 1.381 . S
C934 C935 1.394 . S
C934 H942 0.930 . S
C935 C934 1.394 . S
C935 C936 1.383 . S
C935 H943 0.929 . S
C936 C935 1.383 . S
C936 C937 1.377 . S
C937 H921 0.930 . S
C937 C936 1.377 . S
C937 C938 1.379 . S
C938 H922 0.931 . S
C938 C932 1.383 . S
C938 C937 1.379 . S
H939 C933 0.959 . S
H940 C933 0.961 . S
H941 C933 0.960 . S
H942 C934 0.930 . S
H943 C935 0.929 . S
H944 C952 0.929 . S
H945 C954 0.930 . S
H946 C956 0.930 . S
H947 C959 0.929 . S
H948 C962 0.930 . S
H949 C964 0.960 . S
H950 C964 0.960 . S
H951 C964 0.960 . S
C952 H944 0.929 . S
C952 C953 1.377 . S
C952 C954 1.384 . S
C953 C952 1.377 . S
C953 C959 1.390 . S
C954 H945 0.930 . S
C954 C952 1.384 . S
C954 C955 1.372 . S
C955 C954 1.372 . S
C955 C956 1.400 . S
C955 C960 1.490 . S
C956 H946 0.930 . S
C956 C955 1.400 . S
C956 C959 1.386 . S
H957 C973 0.930 . S
H958 C974 0.931 . S
C959 H947 0.929 . S
C959 C953 1.390 . S
C959 C956 1.386 . S
C960 C955 1.490 . S
C960 C962 1.395 . S
C960 C963 1.403 . S
H961 C967 0.930 . S
C962 H948 0.930 . S
C962 C960 1.395 . S
C962 C965 1.403 . S
C963 C960 1.403 . S
C963 C964 1.524 . S
C963 C967 1.400 . S
C964 H949 0.960 . S
C964 H950 0.960 . S
C964 H951 0.960 . S
C964 C963 1.524 . S
C965 C962 1.403 . S
C965 C966 1.392 . S
C965 C969 1.495 . S
C966 C965 1.392 . S
C966 C967 1.385 . S
C966 C968 1.478 . S
C967 H961 0.930 . S
C967 C963 1.400 . S
C967 C966 1.385 . S
C968 C966 1.478 . S
C968 C970 1.381 . S
C968 C974 1.383 . S
C969 C965 1.495 . S
C969 H975 0.959 . S
C969 H976 0.961 . S
C969 H977 0.960 . S
C970 C968 1.381 . S
C970 C971 1.394 . S
C970 H978 0.930 . S
C971 C970 1.394 . S
C971 C972 1.383 . S
C971 H979 0.929 . S
C972 C971 1.383 . S
C972 C973 1.377 . S
C973 H957 0.930 . S
C973 C972 1.377 . S
C973 C974 1.379 . S
C974 H958 0.931 . S
C974 C968 1.383 . S
C974 C973 1.379 . S
H975 C969 0.959 . S
H976 C969 0.961 . S
H977 C969 0.960 . S
H978 C970 0.930 . S
H979 C971 0.929 . S
H980 C988 0.929 . S
H981 C990 0.930 . S
H982 C992 0.930 . S
H983 C995 0.929 . S
H984 C998 0.930 . S
H985 C1000 0.960 . S
H986 C1000 0.960 . S
H987 C1000 0.960 . S
C988 H980 0.929 . S
C988 C989 1.377 . S
C988 C990 1.384 . S
C989 C988 1.377 . S
C989 C995 1.390 . S
C990 H981 0.930 . S
C990 C988 1.384 . S
C990 C991 1.372 . S
C991 C990 1.372 . S
C991 C992 1.400 . S
C991 C996 1.490 . S
C992 H982 0.930 . S
C992 C991 1.400 . S
C992 C995 1.386 . S
H993 C1009 0.930 . S
H994 C1010 0.931 . S
C995 H983 0.929 . S
C995 C989 1.390 . S
C995 C992 1.386 . S
C996 C991 1.490 . S
C996 C998 1.395 . S
C996 C999 1.403 . S
H997 C1003 0.930 . S
C998 H984 0.930 . S
C998 C996 1.395 . S
C998 C1001 1.403 . S
C999 C996 1.403 . S
C999 C1000 1.524 . S
C999 C1003 1.400 . S
C1000 H985 0.960 . S
C1000 H986 0.960 . S
C1000 H987 0.960 . S
C1000 C999 1.524 . S
C1001 C998 1.403 . S
C1001 C1002 1.392 . S
C1001 C1005 1.495 . S
C1002 C1001 1.392 . S
C1002 C1003 1.385 . S
C1002 C1004 1.478 . S
C1003 H997 0.930 . S
C1003 C999 1.400 . S
C1003 C1002 1.385 . S
C1004 C1002 1.478 . S
C1004 C1006 1.381 . S
C1004 C1010 1.383 . S
C1005 C1001 1.495 . S
C1005 H1011 0.959 . S
C1005 H1012 0.961 . S
C1005 H1013 0.960 . S
C1006 C1004 1.381 . S
C1006 C1007 1.394 . S
C1006 H1014 0.930 . S
C1007 C1006 1.394 . S
C1007 C1008 1.383 . S
C1007 H1015 0.929 . S
C1008 C1007 1.383 . S
C1008 C1009 1.377 . S
C1009 H993 0.930 . S
C1009 C1008 1.377 . S
C1009 C1010 1.379 . S
C1010 H994 0.931 . S
C1010 C1004 1.383 . S
C1010 C1009 1.379 . S
H1011 C1005 0.959 . S
H1012 C1005 0.961 . S
H1013 C1005 0.960 . S
H1014 C1006 0.930 . S
H1015 C1007 0.929 . S
H1016 C1024 0.929 . S
H1017 C1026 0.930 . S
H1018 C1028 0.930 . S
H1019 C1031 0.929 . S
H1020 C1034 0.930 . S
H1021 C1036 0.960 . S
H1022 C1036 0.960 . S
H1023 C1036 0.960 . S
C1024 H1016 0.929 . S
C1024 C1025 1.377 . S
C1024 C1026 1.384 . S
C1025 C1024 1.377 . S
C1025 C1031 1.390 . S
C1026 H1017 0.930 . S
C1026 C1024 1.384 . S
C1026 C1027 1.372 . S
C1027 C1026 1.372 . S
C1027 C1028 1.400 . S
C1027 C1032 1.490 . S
C1028 H1018 0.930 . S
C1028 C1027 1.400 . S
C1028 C1031 1.386 . S
H1029 C1045 0.930 . S
H1030 C1046 0.931 . S
C1031 H1019 0.929 . S
C1031 C1025 1.390 . S
C1031 C1028 1.386 . S
C1032 C1027 1.490 . S
C1032 C1034 1.395 . S
C1032 C1035 1.403 1_455 S
H1033 C1039 0.930 . S
C1034 H1020 0.930 . S
C1034 C1032 1.395 . S
C1034 C1037 1.403 . S
C1035 C1032 1.403 1_655 S
C1035 C1036 1.524 . S
C1035 C1039 1.400 . S
C1036 H1021 0.960 . S
C1036 H1022 0.960 . S
C1036 H1023 0.960 . S
C1036 C1035 1.524 . S
C1037 C1034 1.403 . S
C1037 C1038 1.392 1_455 S
C1037 C1041 1.495 . S
C1038 C1037 1.392 1_655 S
C1038 C1039 1.385 . S
C1038 C1040 1.478 . S
C1039 H1033 0.930 . S
C1039 C1035 1.400 . S
C1039 C1038 1.385 . S
C1040 C1038 1.478 . S
C1040 C1042 1.381 . S
C1040 C1046 1.383 . S
C1041 C1037 1.495 . S
C1041 H1047 0.959 . S
C1041 H1048 0.961 . S
C1041 H1049 0.960 . S
C1042 C1040 1.381 . S
C1042 C1043 1.394 . S
C1042 H1050 0.930 . S
C1043 C1042 1.394 . S
C1043 C1044 1.383 . S
C1043 H1051 0.929 . S
C1044 C1043 1.383 . S
C1044 C1045 1.377 . S
C1045 H1029 0.930 . S
C1045 C1044 1.377 . S
C1045 C1046 1.379 . S
C1046 H1030 0.931 . S
C1046 C1040 1.383 . S
C1046 C1045 1.379 . S
H1047 C1041 0.959 . S
H1048 C1041 0.961 . S
H1049 C1041 0.960 . S
H1050 C1042 0.930 . S
H1051 C1043 0.929 . S
H1052 C1060 0.929 . S
H1053 C1062 0.930 . S
H1054 C1064 0.930 . S
H1055 C1067 0.929 . S
H1056 C1070 0.930 . S
H1057 C1072 0.960 1_556 S
H1058 C1072 0.965 . S
H1059 C1072 0.960 . S
C1060 H1052 0.929 . S
C1060 C1061 1.377 . S
C1060 C1062 1.384 . S
C1061 C1060 1.377 . S
C1061 C1067 1.390 . S
C1062 H1053 0.930 . S
C1062 C1060 1.384 . S
C1062 C1063 1.372 . S
C1063 C1062 1.372 . S
C1063 C1064 1.400 . S
C1063 C1068 1.490 . S
C1064 H1054 0.930 . S
C1064 C1063 1.400 . S
C1064 C1067 1.386 . S
H1065 C1081 0.930 . S
H1066 C1082 0.931 . S
C1067 H1055 0.929 . S
C1067 C1061 1.390 . S
C1067 C1064 1.386 . S
C1068 C1063 1.490 . S
C1068 C1070 1.395 . S
C1068 C1071 1.403 . S
H1069 C1075 0.930 . S
C1070 H1056 0.930 . S
C1070 C1068 1.395 . S
C1070 C1073 1.403 1_554 S
C1071 C1068 1.403 . S
C1071 C1072 1.524 . S
C1071 C1075 1.400 1_554 S
C1072 H1057 0.960 1_554 S
C1072 H1058 0.965 . S
C1072 H1059 0.960 . S
C1072 C1071 1.524 . S
C1073 C1070 1.403 1_556 S
C1073 C1074 1.392 . S
C1073 C1077 1.495 . S
C1074 C1073 1.392 . S
C1074 C1075 1.385 . S
C1074 C1076 1.478 . S
C1075 H1069 0.930 . S
C1075 C1071 1.400 1_556 S
C1075 C1074 1.385 . S
C1076 C1074 1.478 . S
C1076 C1078 1.381 . S
C1076 C1082 1.383 . S
C1077 C1073 1.495 . S
C1077 H1083 0.959 1_556 S
C1077 H1084 0.961 . S
C1077 H1085 0.960 . S
C1078 C1076 1.381 . S
C1078 C1079 1.394 . S
C1078 H1086 0.930 . S
C1079 C1078 1.394 . S
C1079 C1080 1.383 . S
C1079 H1087 0.929 . S
C1080 C1079 1.383 . S
C1080 C1081 1.377 . S
C1081 H1065 0.930 . S
C1081 C1080 1.377 . S
C1081 C1082 1.379 . S
C1082 H1066 0.931 . S
C1082 C1076 1.383 . S
C1082 C1081 1.379 . S
H1083 C1077 0.959 1_554 S
H1084 C1077 0.961 . S
H1085 C1077 0.960 . S
H1086 C1078 0.930 . S
H1087 C1079 0.929 . S
H1088 C1096 0.929 . S
H1089 C1098 0.930 . S
H1090 C1100 0.930 . S
H1091 C1103 0.929 . S
H1092 C1106 0.930 . S
H1093 C1108 0.960 . S
H1094 C1108 0.960 . S
H1095 C1108 0.960 . S
C1096 H1088 0.929 . S
C1096 C1097 1.377 . S
C1096 C1098 1.384 . S
C1097 C1096 1.377 . S
C1097 C1103 1.390 . S
C1098 H1089 0.930 . S
C1098 C1096 1.384 . S
C1098 C1099 1.372 . S
C1099 C1098 1.372 . S
C1099 C1100 1.400 . S
C1099 C1104 1.490 . S
C1100 H1090 0.930 . S
C1100 C1099 1.400 . S
C1100 C1103 1.386 . S
H1101 C1117 0.930 . S
H1102 C1118 0.931 . S
C1103 H1091 0.929 . S
C1103 C1097 1.390 . S
C1103 C1100 1.386 . S
C1104 C1099 1.490 . S
C1104 C1106 1.395 . S
C1104 C1107 1.403 . S
H1105 C1111 0.930 . S
C1106 H1092 0.930 . S
C1106 C1104 1.395 . S
C1106 C1109 1.403 . S
C1107 C1104 1.403 . S
C1107 C1108 1.524 . S
C1107 C1111 1.400 . S
C1108 H1093 0.960 . S
C1108 H1094 0.960 . S
C1108 H1095 0.960 . S
C1108 C1107 1.524 . S
C1109 C1106 1.403 . S
C1109 C1110 1.392 . S
C1109 C1113 1.495 . S
C1110 C1109 1.392 . S
C1110 C1111 1.385 . S
C1110 C1112 1.478 . S
C1111 H1105 0.930 . S
C1111 C1107 1.400 . S
C1111 C1110 1.385 . S
C1112 C1110 1.478 . S
C1112 C1114 1.381 . S
C1112 C1118 1.383 . S
C1113 C1109 1.495 . S
C1113 H1119 0.959 . S
C1113 H1120 0.961 . S
C1113 H1121 0.960 . S
C1114 C1112 1.381 . S
C1114 C1115 1.394 . S
C1114 H1122 0.930 . S
C1115 C1114 1.394 . S
C1115 C1116 1.383 . S
C1115 H1123 0.929 . S
C1116 C1115 1.383 . S
C1116 C1117 1.377 . S
C1117 H1101 0.930 . S
C1117 C1116 1.377 . S
C1117 C1118 1.379 . S
C1118 H1102 0.931 . S
C1118 C1112 1.383 . S
C1118 C1117 1.379 . S
H1119 C1113 0.959 . S
H1120 C1113 0.961 . S
H1121 C1113 0.960 . S
H1122 C1114 0.930 . S
H1123 C1115 0.929 . S
H1124 C1132 0.929 . S
H1125 C1134 0.930 . S
H1126 C1136 0.930 . S
H1127 C1139 0.929 . S
H1128 C1142 0.930 . S
H1129 C1144 0.960 . S
H1130 C1144 0.960 . S
H1131 C1144 0.960 . S
C1132 H1124 0.929 . S
C1132 C1133 1.377 . S
C1132 C1134 1.384 . S
C1133 C1132 1.377 . S
C1133 C1139 1.390 . S
C1134 H1125 0.930 . S
C1134 C1132 1.384 . S
C1134 C1135 1.372 . S
C1135 C1134 1.372 . S
C1135 C1136 1.400 . S
C1135 C1140 1.490 . S
C1136 H1126 0.930 . S
C1136 C1135 1.400 . S
C1136 C1139 1.386 . S
H1137 C1153 0.930 . S
H1138 C1154 0.931 . S
C1139 H1127 0.929 . S
C1139 C1133 1.390 . S
C1139 C1136 1.386 . S
C1140 C1135 1.490 . S
C1140 C1142 1.395 . S
C1140 C1143 1.403 . S
H1141 C1147 0.930 . S
C1142 H1128 0.930 . S
C1142 C1140 1.395 . S
C1142 C1145 1.403 . S
C1143 C1140 1.403 . S
C1143 C1144 1.524 . S
C1143 C1147 1.400 . S
C1144 H1129 0.960 . S
C1144 H1130 0.960 . S
C1144 H1131 0.960 . S
C1144 C1143 1.524 . S
C1145 C1142 1.403 . S
C1145 C1146 1.392 . S
C1145 C1149 1.495 . S
C1146 C1145 1.392 . S
C1146 C1147 1.385 . S
C1146 C1148 1.478 . S
C1147 H1141 0.930 . S
C1147 C1143 1.400 . S
C1147 C1146 1.385 . S
C1148 C1146 1.478 . S
C1148 C1150 1.381 . S
C1148 C1154 1.383 . S
C1149 C1145 1.495 . S
C1149 H1155 0.959 . S
C1149 H1156 0.961 . S
C1149 H1157 0.960 . S
C1150 C1148 1.381 . S
C1150 C1151 1.394 . S
C1150 H1158 0.930 . S
C1151 C1150 1.394 . S
C1151 C1152 1.383 . S
C1151 H1159 0.929 . S
C1152 C1151 1.383 . S
C1152 C1153 1.377 . S
C1153 H1137 0.930 . S
C1153 C1152 1.377 . S
C1153 C1154 1.379 . S
C1154 H1138 0.931 . S
C1154 C1148 1.383 . S
C1154 C1153 1.379 . S
H1155 C1149 0.959 . S
H1156 C1149 0.961 . S
H1157 C1149 0.960 . S
H1158 C1150 0.930 . S
H1159 C1151 0.929 . S
H1160 C1168 0.929 . S
H1161 C1170 0.930 . S
H1162 C1172 0.930 . S
H1163 C1175 0.929 . S
H1164 C1178 0.930 . S
H1165 C1180 0.960 . S
H1166 C1180 0.960 . S
H1167 C1180 0.960 . S
C1168 H1160 0.929 . S
C1168 C1169 1.377 . S
C1168 C1170 1.384 . S
C1169 C1168 1.377 . S
C1169 C1175 1.390 . S
C1170 H1161 0.930 . S
C1170 C1168 1.384 . S
C1170 C1171 1.372 . S
C1171 C1170 1.372 . S
C1171 C1172 1.400 . S
C1171 C1176 1.490 . S
C1172 H1162 0.930 . S
C1172 C1171 1.400 . S
C1172 C1175 1.386 . S
H1173 C1189 0.930 . S
H1174 C1190 0.931 . S
C1175 H1163 0.929 . S
C1175 C1169 1.390 . S
C1175 C1172 1.386 . S
C1176 C1171 1.490 . S
C1176 C1178 1.395 . S
C1176 C1179 1.403 . S
H1177 C1183 0.930 . S
C1178 H1164 0.930 . S
C1178 C1176 1.395 . S
C1178 C1181 1.403 . S
C1179 C1176 1.403 . S
C1179 C1180 1.524 . S
C1179 C1183 1.400 . S
C1180 H1165 0.960 . S
C1180 H1166 0.960 . S
C1180 H1167 0.960 . S
C1180 C1179 1.524 . S
C1181 C1178 1.403 . S
C1181 C1182 1.392 . S
C1181 C1185 1.495 . S
C1182 C1181 1.392 . S
C1182 C1183 1.385 . S
C1182 C1184 1.478 . S
C1183 H1177 0.930 . S
C1183 C1179 1.400 . S
C1183 C1182 1.385 . S
C1184 C1182 1.478 . S
C1184 C1186 1.381 . S
C1184 C1190 1.383 . S
C1185 C1181 1.495 . S
C1185 H1191 0.959 . S
C1185 H1192 0.961 . S
C1185 H1193 0.960 . S
C1186 C1184 1.381 . S
C1186 C1187 1.394 . S
C1186 H1194 0.930 . S
C1187 C1186 1.394 . S
C1187 C1188 1.383 . S
C1187 H1195 0.929 . S
C1188 C1187 1.383 . S
C1188 C1189 1.377 . S
C1189 H1173 0.930 . S
C1189 C1188 1.377 . S
C1189 C1190 1.379 . S
C1190 H1174 0.931 . S
C1190 C1184 1.383 . S
C1190 C1189 1.379 . S
H1191 C1185 0.959 . S
H1192 C1185 0.961 . S
H1193 C1185 0.960 . S
H1194 C1186 0.930 . S
H1195 C1187 0.929 . S
H1196 C1204 0.929 . S
H1197 C1206 0.930 . S
H1198 C1208 0.930 . S
H1199 C1211 0.929 1_655 S
H1200 C1214 0.930 . S
H1201 C1216 0.960 . S
H1202 C1216 0.960 . S
H1203 C1216 0.960 . S
C1204 H1196 0.929 . S
C1204 C1205 1.377 1_455 S
C1204 C1206 1.384 . S
C1205 C1204 1.377 1_655 S
C1205 C1211 1.390 1_655 S
C1206 H1197 0.930 . S
C1206 C1204 1.384 . S
C1206 C1207 1.372 . S
C1207 C1206 1.372 . S
C1207 C1208 1.400 . S
C1207 C1212 1.490 . S
C1208 H1198 0.930 . S
C1208 C1207 1.400 . S
C1208 C1211 1.386 . S
H1209 C1225 0.930 . S
H1210 C1226 0.931 . S
C1211 H1199 0.929 1_455 S
C1211 C1205 1.390 1_455 S
C1211 C1208 1.386 . S
C1212 C1207 1.490 . S
C1212 C1214 1.395 . S
C1212 C1215 1.403 . S
H1213 C1219 0.930 . S
C1214 H1200 0.930 . S
C1214 C1212 1.395 . S
C1214 C1217 1.403 . S
C1215 C1212 1.403 . S
C1215 C1216 1.524 . S
C1215 C1219 1.400 . S
C1216 H1201 0.960 . S
C1216 H1202 0.960 . S
C1216 H1203 0.960 . S
C1216 C1215 1.524 . S
C1217 C1214 1.403 . S
C1217 C1218 1.392 . S
C1217 C1221 1.495 . S
C1218 C1217 1.392 . S
C1218 C1219 1.385 . S
C1218 C1220 1.478 . S
C1219 H1213 0.930 . S
C1219 C1215 1.400 . S
C1219 C1218 1.385 . S
C1220 C1218 1.478 . S
C1220 C1222 1.381 . S
C1220 C1226 1.383 . S
C1221 C1217 1.495 . S
C1221 H1227 0.959 . S
C1221 H1228 0.961 . S
C1221 H1229 0.960 . S
C1222 C1220 1.381 . S
C1222 C1223 1.394 . S
C1222 H1230 0.930 . S
C1223 C1222 1.394 . S
C1223 C1224 1.383 . S
C1223 H1231 0.929 . S
C1224 C1223 1.383 . S
C1224 C1225 1.377 . S
C1225 H1209 0.930 . S
C1225 C1224 1.377 . S
C1225 C1226 1.379 . S
C1226 H1210 0.931 . S
C1226 C1220 1.383 . S
C1226 C1225 1.379 . S
H1227 C1221 0.959 . S
H1228 C1221 0.961 . S
H1229 C1221 0.960 . S
H1230 C1222 0.930 . S
H1231 C1223 0.929 . S
H1232 C1240 0.929 . S
H1233 C1242 0.930 . S
H1234 C1244 0.930 . S
H1235 C1247 0.929 . S
H1236 C1250 0.930 . S
H1237 C1252 0.960 . S
H1238 C1252 0.960 . S
H1239 C1252 0.960 . S
C1240 H1232 0.929 . S
C1240 C1241 1.377 . S
C1240 C1242 1.384 . S
C1241 C1240 1.377 . S
C1241 C1247 1.390 . S
C1242 H1233 0.930 . S
C1242 C1240 1.384 . S
C1242 C1243 1.372 . S
C1243 C1242 1.372 . S
C1243 C1244 1.400 . S
C1243 C1248 1.490 . S
C1244 H1234 0.930 . S
C1244 C1243 1.400 . S
C1244 C1247 1.386 . S
H1245 C1261 0.930 . S
H1246 C1262 0.931 . S
C1247 H1235 0.929 . S
C1247 C1241 1.390 . S
C1247 C1244 1.386 . S
C1248 C1243 1.490 . S
C1248 C1250 1.395 . S
C1248 C1251 1.403 . S
H1249 C1255 0.930 . S
C1250 H1236 0.930 . S
C1250 C1248 1.395 . S
C1250 C1253 1.403 . S
C1251 C1248 1.403 . S
C1251 C1252 1.524 . S
C1251 C1255 1.400 . S
C1252 H1237 0.960 . S
C1252 H1238 0.960 . S
C1252 H1239 0.960 . S
C1252 C1251 1.524 . S
C1253 C1250 1.403 . S
C1253 C1254 1.392 . S
C1253 C1257 1.495 . S
C1254 C1253 1.392 . S
C1254 C1255 1.385 . S
C1254 C1256 1.478 . S
C1255 H1249 0.930 . S
C1255 C1251 1.400 . S
C1255 C1254 1.385 . S
C1256 C1254 1.478 . S
C1256 C1258 1.381 . S
C1256 C1262 1.383 . S
C1257 C1253 1.495 . S
C1257 H1263 0.959 . S
C1257 H1264 0.961 . S
C1257 H1265 0.960 . S
C1258 C1256 1.381 . S
C1258 C1259 1.394 . S
C1258 H1266 0.930 . S
C1259 C1258 1.394 . S
C1259 C1260 1.383 . S
C1259 H1267 0.929 . S
C1260 C1259 1.383 . S
C1260 C1261 1.377 . S
C1261 H1245 0.930 . S
C1261 C1260 1.377 . S
C1261 C1262 1.379 . S
C1262 H1246 0.931 . S
C1262 C1256 1.383 . S
C1262 C1261 1.379 . S
H1263 C1257 0.959 . S
H1264 C1257 0.961 . S
H1265 C1257 0.960 . S
H1266 C1258 0.930 . S
H1267 C1259 0.929 . S
H1268 C1276 0.929 . S
H1269 C1278 0.930 . S
H1270 C1280 0.930 . S
H1271 C1283 0.929 . S
H1272 C1286 0.930 . S
H1273 C1288 0.960 . S
H1274 C1288 0.960 . S
H1275 C1288 0.960 . S
C1276 H1268 0.929 . S
C1276 C1277 1.377 . S
C1276 C1278 1.384 . S
C1277 C1276 1.377 . S
C1277 C1283 1.390 . S
C1278 H1269 0.930 . S
C1278 C1276 1.384 . S
C1278 C1279 1.372 . S
C1279 C1278 1.372 . S
C1279 C1280 1.400 . S
C1279 C1284 1.490 . S
C1280 H1270 0.930 . S
C1280 C1279 1.400 . S
C1280 C1283 1.386 . S
H1281 C1297 0.930 . S
H1282 C1298 0.931 . S
C1283 H1271 0.929 . S
C1283 C1277 1.390 . S
C1283 C1280 1.386 . S
C1284 C1279 1.490 . S
C1284 C1286 1.395 . S
C1284 C1287 1.403 . S
H1285 C1291 0.930 . S
C1286 H1272 0.930 . S
C1286 C1284 1.395 . S
C1286 C1289 1.403 . S
C1287 C1284 1.403 . S
C1287 C1288 1.524 . S
C1287 C1291 1.400 . S
C1288 H1273 0.960 . S
C1288 H1274 0.960 . S
C1288 H1275 0.960 . S
C1288 C1287 1.524 . S
C1289 C1286 1.403 . S
C1289 C1290 1.392 . S
C1289 C1293 1.495 . S
C1290 C1289 1.392 . S
C1290 C1291 1.385 . S
C1290 C1292 1.478 . S
C1291 H1285 0.930 . S
C1291 C1287 1.400 . S
C1291 C1290 1.385 . S
C1292 C1290 1.478 . S
C1292 C1294 1.381 . S
C1292 C1298 1.383 . S
C1293 C1289 1.495 . S
C1293 H1299 0.959 . S
C1293 H1300 0.961 . S
C1293 H1301 0.960 . S
C1294 C1292 1.381 . S
C1294 C1295 1.394 . S
C1294 H1302 0.930 . S
C1295 C1294 1.394 . S
C1295 C1296 1.383 . S
C1295 H1303 0.929 . S
C1296 C1295 1.383 . S
C1296 C1297 1.377 . S
C1297 H1281 0.930 . S
C1297 C1296 1.377 . S
C1297 C1298 1.379 . S
C1298 H1282 0.931 . S
C1298 C1292 1.383 . S
C1298 C1297 1.379 . S
H1299 C1293 0.959 . S
H1300 C1293 0.961 . S
H1301 C1293 0.960 . S
H1302 C1294 0.930 . S
H1303 C1295 0.929 . S
H1304 C1312 0.929 . S
H1305 C1314 0.930 . S
H1306 C1316 0.930 . S
H1307 C1319 0.929 . S
H1308 C1322 0.930 . S
H1309 C1324 0.960 . S
H1310 C1324 0.960 . S
H1311 C1324 0.960 . S
C1312 H1304 0.929 . S
C1312 C1313 1.377 . S
C1312 C1314 1.384 . S
C1313 C1312 1.377 . S
C1313 C1319 1.390 . S
C1314 H1305 0.930 . S
C1314 C1312 1.384 . S
C1314 C1315 1.372 . S
C1315 C1314 1.372 . S
C1315 C1316 1.400 . S
C1315 C1320 1.490 . S
C1316 H1306 0.930 . S
C1316 C1315 1.400 . S
C1316 C1319 1.386 . S
H1317 C1333 0.930 . S
H1318 C1334 0.931 . S
C1319 H1307 0.929 . S
C1319 C1313 1.390 . S
C1319 C1316 1.386 . S
C1320 C1315 1.490 . S
C1320 C1322 1.395 . S
C1320 C1323 1.403 . S
H1321 C1327 0.930 . S
C1322 H1308 0.930 . S
C1322 C1320 1.395 . S
C1322 C1325 1.403 . S
C1323 C1320 1.403 . S
C1323 C1324 1.524 . S
C1323 C1327 1.400 . S
C1324 H1309 0.960 . S
C1324 H1310 0.960 . S
C1324 H1311 0.960 . S
C1324 C1323 1.524 . S
C1325 C1322 1.403 . S
C1325 C1326 1.392 . S
C1325 C1329 1.495 . S
C1326 C1325 1.392 . S
C1326 C1327 1.385 . S
C1326 C1328 1.478 . S
C1327 H1321 0.930 . S
C1327 C1323 1.400 . S
C1327 C1326 1.385 . S
C1328 C1326 1.478 . S
C1328 C1330 1.381 . S
C1328 C1334 1.383 . S
C1329 C1325 1.495 . S
C1329 H1335 0.959 . S
C1329 H1336 0.961 . S
C1329 H1337 0.960 . S
C1330 C1328 1.381 . S
C1330 C1331 1.394 . S
C1330 H1338 0.930 . S
C1331 C1330 1.394 . S
C1331 C1332 1.383 . S
C1331 H1339 0.929 . S
C1332 C1331 1.383 . S
C1332 C1333 1.377 . S
C1333 H1317 0.930 . S
C1333 C1332 1.377 . S
C1333 C1334 1.379 . S
C1334 H1318 0.931 . S
C1334 C1328 1.383 . S
C1334 C1333 1.379 . S
H1335 C1329 0.959 . S
H1336 C1329 0.961 . S
H1337 C1329 0.960 . S
H1338 C1330 0.930 . S
H1339 C1331 0.929 . S
H1340 C1348 0.929 . S
H1341 C1350 0.930 . S
H1342 C1352 0.930 . S
H1343 C1355 0.929 . S
H1344 C1358 0.930 . S
H1345 C1360 0.960 . S
H1346 C1360 0.960 . S
H1347 C1360 0.960 . S
C1348 H1340 0.929 . S
C1348 C1349 1.377 . S
C1348 C1350 1.384 . S
C1349 C1348 1.377 . S
C1349 C1355 1.390 . S
C1350 H1341 0.930 . S
C1350 C1348 1.384 . S
C1350 C1351 1.372 . S
C1351 C1350 1.372 . S
C1351 C1352 1.400 . S
C1351 C1356 1.490 . S
C1352 H1342 0.930 . S
C1352 C1351 1.400 . S
C1352 C1355 1.386 . S
H1353 C1369 0.930 . S
H1354 C1370 0.931 . S
C1355 H1343 0.929 . S
C1355 C1349 1.390 . S
C1355 C1352 1.386 . S
C1356 C1351 1.490 . S
C1356 C1358 1.395 . S
C1356 C1359 1.403 . S
H1357 C1363 0.930 . S
C1358 H1344 0.930 . S
C1358 C1356 1.395 . S
C1358 C1361 1.403 . S
C1359 C1356 1.403 . S
C1359 C1360 1.524 . S
C1359 C1363 1.400 . S
C1360 H1345 0.960 . S
C1360 H1346 0.960 . S
C1360 H1347 0.960 . S
C1360 C1359 1.524 . S
C1361 C1358 1.403 . S
C1361 C1362 1.392 . S
C1361 C1365 1.495 . S
C1362 C1361 1.392 . S
C1362 C1363 1.385 . S
C1362 C1364 1.478 . S
C1363 H1357 0.930 . S
C1363 C1359 1.400 . S
C1363 C1362 1.385 . S
C1364 C1362 1.478 . S
C1364 C1366 1.381 . S
C1364 C1370 1.383 . S
C1365 C1361 1.495 . S
C1365 H1371 0.959 . S
C1365 H1372 0.961 . S
C1365 H1373 0.960 . S
C1366 C1364 1.381 . S
C1366 C1367 1.394 . S
C1366 H1374 0.930 . S
C1367 C1366 1.394 . S
C1367 C1368 1.383 1_655 S
C1367 H1375 0.929 1_655 S
C1368 C1367 1.383 1_455 S
C1368 C1369 1.377 1_455 S
C1369 H1353 0.930 . S
C1369 C1368 1.377 1_655 S
C1369 C1370 1.379 . S
C1370 H1354 0.931 . S
C1370 C1364 1.383 . S
C1370 C1369 1.379 . S
H1371 C1365 0.959 . S
H1372 C1365 0.961 . S
H1373 C1365 0.960 . S
H1374 C1366 0.930 . S
H1375 C1367 0.929 1_455 S
H1376 C1384 0.929 . S
H1377 C1386 0.930 . S
H1378 C1388 0.930 . S
H1379 C1391 0.929 . S
H1380 C1394 0.930 . S
H1381 C1396 0.960 . S
H1382 C1396 0.960 . S
H1383 C1396 0.960 . S
C1384 H1376 0.929 . S
C1384 C1385 1.377 . S
C1384 C1386 1.384 . S
C1385 C1384 1.377 . S
C1385 C1391 1.390 . S
C1386 H1377 0.930 . S
C1386 C1384 1.384 . S
C1386 C1387 1.372 . S
C1387 C1386 1.372 . S
C1387 C1388 1.400 . S
C1387 C1392 1.490 . S
C1388 H1378 0.930 . S
C1388 C1387 1.400 . S
C1388 C1391 1.386 . S
H1389 C1405 0.930 . S
H1390 C1406 0.931 . S
C1391 H1379 0.929 . S
C1391 C1385 1.390 . S
C1391 C1388 1.386 . S
C1392 C1387 1.490 . S
C1392 C1394 1.395 . S
C1392 C1395 1.403 . S
H1393 C1399 0.930 . S
C1394 H1380 0.930 . S
C1394 C1392 1.395 . S
C1394 C1397 1.403 . S
C1395 C1392 1.403 . S
C1395 C1396 1.524 . S
C1395 C1399 1.400 . S
C1396 H1381 0.960 . S
C1396 H1382 0.960 . S
C1396 H1383 0.960 . S
C1396 C1395 1.524 . S
C1397 C1394 1.403 . S
C1397 C1398 1.392 . S
C1397 C1401 1.495 . S
C1398 C1397 1.392 . S
C1398 C1399 1.385 . S
C1398 C1400 1.478 . S
C1399 H1393 0.930 . S
C1399 C1395 1.400 . S
C1399 C1398 1.385 . S
C1400 C1398 1.478 . S
C1400 C1402 1.381 . S
C1400 C1406 1.383 . S
C1401 C1397 1.495 . S
C1401 H1407 0.959 . S
C1401 H1408 0.961 . S
C1401 H1409 0.960 . S
C1402 C1400 1.381 . S
C1402 C1403 1.394 . S
C1402 H1410 0.930 . S
C1403 C1402 1.394 . S
C1403 C1404 1.383 . S
C1403 H1411 0.929 . S
C1404 C1403 1.383 . S
C1404 C1405 1.377 . S
C1405 H1389 0.930 . S
C1405 C1404 1.377 . S
C1405 C1406 1.379 . S
C1406 H1390 0.931 . S
C1406 C1400 1.383 . S
C1406 C1405 1.379 . S
H1407 C1401 0.959 . S
H1408 C1401 0.961 . S
H1409 C1401 0.960 . S
H1410 C1402 0.930 . S
H1411 C1403 0.929 . S
H1412 C1420 0.929 . S
H1413 C1422 0.930 . S
H1414 C1424 0.930 . S
H1415 C1427 0.929 . S
H1416 C1430 0.930 . S
H1417 C1432 0.960 . S
H1418 C1432 0.960 . S
H1419 C1432 0.960 . S
C1420 H1412 0.929 . S
C1420 C1421 1.377 . S
C1420 C1422 1.384 . S
C1421 C1420 1.377 . S
C1421 C1427 1.390 . S
C1422 H1413 0.930 . S
C1422 C1420 1.384 . S
C1422 C1423 1.372 . S
C1423 C1422 1.372 . S
C1423 C1424 1.400 . S
C1423 C1428 1.490 . S
C1424 H1414 0.930 . S
C1424 C1423 1.400 . S
C1424 C1427 1.386 . S
H1425 C1441 0.930 . S
H1426 C1442 0.931 . S
C1427 H1415 0.929 . S
C1427 C1421 1.390 . S
C1427 C1424 1.386 . S
C1428 C1423 1.490 . S
C1428 C1430 1.395 . S
C1428 C1431 1.403 . S
H1429 C1435 0.930 . S
C1430 H1416 0.930 . S
C1430 C1428 1.395 . S
C1430 C1433 1.403 . S
C1431 C1428 1.403 . S
C1431 C1432 1.524 . S
C1431 C1435 1.400 . S
C1432 H1417 0.960 . S
C1432 H1418 0.960 . S
C1432 H1419 0.960 . S
C1432 C1431 1.524 . S
C1433 C1430 1.403 . S
C1433 C1434 1.392 . S
C1433 C1437 1.495 . S
C1434 C1433 1.392 . S
C1434 C1435 1.385 . S
C1434 C1436 1.478 . S
C1435 H1429 0.930 . S
C1435 C1431 1.400 . S
C1435 C1434 1.385 . S
C1436 C1434 1.478 . S
C1436 C1438 1.381 . S
C1436 C1442 1.383 1_565 S
C1437 C1433 1.495 . S
C1437 H1443 0.959 . S
C1437 H1444 0.974 . S
C1437 H1445 0.960 . S
C1438 C1436 1.381 . S
C1438 C1439 1.394 . S
C1438 H1446 0.930 . S
C1439 C1438 1.394 . S
C1439 C1440 1.383 1_665 S
C1439 H1447 0.929 1_655 S
C1440 C1439 1.383 1_445 S
C1440 C1441 1.377 1_455 S
C1441 H1425 0.930 . S
C1441 C1440 1.377 1_655 S
C1441 C1442 1.379 . S
C1442 H1426 0.931 . S
C1442 C1436 1.383 1_545 S
C1442 C1441 1.379 . S
H1443 C1437 0.959 . S
H1444 C1437 0.974 . S
H1445 C1437 0.960 . S
H1446 C1438 0.930 . S
H1447 C1439 0.929 1_455 S
H1448 C1456 0.929 . S
H1449 C1458 0.930 . S
H1450 C1460 0.930 . S
H1451 C1463 0.929 . S
H1452 C1466 0.930 . S
H1453 C1468 0.960 . S
H1454 C1468 0.960 . S
H1455 C1468 0.960 . S
C1456 H1448 0.929 . S
C1456 C1457 1.377 . S
C1456 C1458 1.384 . S
C1457 C1456 1.377 . S
C1457 C1463 1.390 . S
C1458 H1449 0.930 . S
C1458 C1456 1.384 . S
C1458 C1459 1.372 . S
C1459 C1458 1.372 . S
C1459 C1460 1.400 . S
C1459 C1464 1.490 . S
C1460 H1450 0.930 . S
C1460 C1459 1.400 . S
C1460 C1463 1.386 . S
H1461 C1477 0.930 . S
H1462 C1478 0.931 . S
C1463 H1451 0.929 . S
C1463 C1457 1.390 . S
C1463 C1460 1.386 . S
C1464 C1459 1.490 . S
C1464 C1466 1.395 . S
C1464 C1467 1.403 . S
H1465 C1471 0.930 . S
C1466 H1452 0.930 . S
C1466 C1464 1.395 . S
C1466 C1469 1.403 . S
C1467 C1464 1.403 . S
C1467 C1468 1.524 . S
C1467 C1471 1.400 . S
C1468 H1453 0.960 . S
C1468 H1454 0.960 . S
C1468 H1455 0.960 . S
C1468 C1467 1.524 . S
C1469 C1466 1.403 . S
C1469 C1470 1.392 . S
C1469 C1473 1.495 . S
C1470 C1469 1.392 . S
C1470 C1471 1.385 . S
C1470 C1472 1.478 . S
C1471 H1465 0.930 . S
C1471 C1467 1.400 . S
C1471 C1470 1.385 . S
C1472 C1470 1.478 . S
C1472 C1474 1.381 . S
C1472 C1478 1.383 . S
C1473 C1469 1.495 . S
C1473 H1479 0.959 . S
C1473 H1480 0.961 . S
C1473 H1481 0.960 . S
C1474 C1472 1.381 . S
C1474 C1475 1.394 . S
C1474 H1482 0.930 . S
C1475 C1474 1.394 . S
C1475 C1476 1.383 . S
C1475 H1483 0.929 . S
C1476 C1475 1.383 . S
C1476 C1477 1.377 . S
C1477 H1461 0.930 . S
C1477 C1476 1.377 . S
C1477 C1478 1.379 . S
C1478 H1462 0.931 . S
C1478 C1472 1.383 . S
C1478 C1477 1.379 . S
H1479 C1473 0.959 . S
H1480 C1473 0.961 . S
H1481 C1473 0.960 . S
H1482 C1474 0.930 . S
H1483 C1475 0.929 . S
H1484 C1492 0.929 . S
H1485 C1494 0.930 . S
H1486 C1496 0.930 . S
H1487 C1499 0.929 . S
H1488 C1502 0.930 . S
H1489 C1504 0.960 1_565 S
H1490 C1504 0.960 . S
H1491 C1504 0.960 . S
C1492 H1484 0.929 . S
C1492 C1493 1.377 . S
C1492 C1494 1.384 . S
C1493 C1492 1.377 . S
C1493 C1499 1.390 . S
C1494 H1485 0.930 . S
C1494 C1492 1.384 . S
C1494 C1495 1.372 . S
C1495 C1494 1.372 . S
C1495 C1496 1.400 . S
C1495 C1500 1.490 . S
C1496 H1486 0.930 . S
C1496 C1495 1.400 . S
C1496 C1499 1.386 . S
H1497 C1513 0.930 . S
H1498 C1514 0.931 . S
C1499 H1487 0.929 . S
C1499 C1493 1.390 . S
C1499 C1496 1.386 . S
C1500 C1495 1.490 . S
C1500 C1502 1.395 . S
C1500 C1503 1.403 . S
H1501 C1507 0.930 1_565 S
C1502 H1488 0.930 . S
C1502 C1500 1.395 . S
C1502 C1505 1.403 . S
C1503 C1500 1.403 . S
C1503 C1504 1.524 . S
C1503 C1507 1.400 . S
C1504 H1489 0.960 1_545 S
C1504 H1490 0.960 . S
C1504 H1491 0.960 . S
C1504 C1503 1.524 . S
C1505 C1502 1.403 . S
C1505 C1506 1.392 . S
C1505 C1509 1.495 . S
C1506 C1505 1.392 . S
C1506 C1507 1.385 . S
C1506 C1508 1.478 . S
C1507 H1501 0.930 1_545 S
C1507 C1503 1.400 . S
C1507 C1506 1.385 . S
C1508 C1506 1.478 . S
C1508 C1510 1.381 . S
C1508 C1514 1.383 1_545 S
C1509 C1505 1.495 . S
C1509 H1515 0.959 . S
C1509 H1516 0.961 . S
C1509 H1517 0.960 . S
C1510 C1508 1.381 . S
C1510 C1511 1.394 . S
C1510 H1518 0.930 . S
C1511 C1510 1.394 . S
C1511 C1512 1.383 1_545 S
C1511 H1519 0.929 . S
C1512 C1511 1.383 1_565 S
C1512 C1513 1.377 . S
C1513 H1497 0.930 . S
C1513 C1512 1.377 . S
C1513 C1514 1.379 . S
C1514 H1498 0.931 . S
C1514 C1508 1.383 1_565 S
C1514 C1513 1.379 . S
H1515 C1509 0.959 . S
H1516 C1509 0.961 . S
H1517 C1509 0.960 . S
H1518 C1510 0.930 . S
H1519 C1511 0.929 . S
H1520 C1528 0.929 . S
H1521 C1530 0.930 . S
H1522 C1532 0.930 . S
H1523 C1535 0.929 . S
H1524 C1538 0.930 . S
H1525 C1540 0.960 . S
H1526 C1540 0.960 . S
H1527 C1540 0.960 . S
C1528 H1520 0.929 . S
C1528 C1529 1.377 . S
C1528 C1530 1.384 . S
C1529 C1528 1.377 . S
C1529 C1535 1.390 . S
C1530 H1521 0.930 . S
C1530 C1528 1.384 . S
C1530 C1531 1.372 . S
C1531 C1530 1.372 . S
C1531 C1532 1.400 . S
C1531 C1536 1.490 . S
C1532 H1522 0.930 . S
C1532 C1531 1.400 . S
C1532 C1535 1.386 . S
H1533 C1549 0.930 . S
H1534 C1550 0.931 . S
C1535 H1523 0.929 . S
C1535 C1529 1.390 . S
C1535 C1532 1.386 . S
C1536 C1531 1.490 . S
C1536 C1538 1.395 . S
C1536 C1539 1.403 . S
H1537 C1543 0.930 . S
C1538 H1524 0.930 . S
C1538 C1536 1.395 . S
C1538 C1541 1.403 . S
C1539 C1536 1.403 . S
C1539 C1540 1.524 . S
C1539 C1543 1.400 . S
C1540 H1525 0.960 . S
C1540 H1526 0.960 . S
C1540 H1527 0.960 . S
C1540 C1539 1.524 . S
C1541 C1538 1.403 . S
C1541 C1542 1.392 . S
C1541 C1545 1.495 . S
C1542 C1541 1.392 . S
C1542 C1543 1.385 . S
C1542 C1544 1.478 . S
C1543 H1537 0.930 . S
C1543 C1539 1.400 . S
C1543 C1542 1.385 . S
C1544 C1542 1.478 . S
C1544 C1546 1.381 . S
C1544 C1550 1.383 . S
C1545 C1541 1.495 . S
C1545 H1551 0.959 . S
C1545 H1552 0.961 . S
C1545 H1553 0.960 . S
C1546 C1544 1.381 . S
C1546 C1547 1.394 . S
C1546 H1554 0.930 . S
C1547 C1546 1.394 . S
C1547 C1548 1.383 . S
C1547 H1555 0.929 . S
C1548 C1547 1.383 . S
C1548 C1549 1.377 . S
C1549 H1533 0.930 . S
C1549 C1548 1.377 . S
C1549 C1550 1.379 . S
C1550 H1534 0.931 . S
C1550 C1544 1.383 . S
C1550 C1549 1.379 . S
H1551 C1545 0.959 . S
H1552 C1545 0.961 . S
H1553 C1545 0.960 . S
H1554 C1546 0.930 . S
H1555 C1547 0.929 . S
H1556 C1564 0.929 . S
H1557 C1566 0.930 . S
H1558 C1568 0.930 1_545 S
H1559 C1571 0.929 . S
H1560 C1574 0.930 . S
H1561 C1576 0.960 . S
H1562 C1576 0.960 . S
H1563 C1576 0.960 . S
C1564 H1556 0.929 . S
C1564 C1565 1.377 . S
C1564 C1566 1.384 1_665 S
C1565 C1564 1.377 . S
C1565 C1571 1.390 1_655 S
C1566 H1557 0.930 . S
C1566 C1564 1.384 1_445 S
C1566 C1567 1.372 . S
C1567 C1566 1.372 . S
C1567 C1568 1.400 1_545 S
C1567 C1572 1.490 . S
C1568 H1558 0.930 1_565 S
C1568 C1567 1.400 1_565 S
C1568 C1571 1.386 . S
H1569 C1585 0.930 . S
H1570 C1586 0.931 . S
C1571 H1559 0.929 . S
C1571 C1565 1.390 1_455 S
C1571 C1568 1.386 . S
C1572 C1567 1.490 . S
C1572 C1574 1.395 . S
C1572 C1575 1.403 . S
H1573 C1579 0.930 . S
C1574 H1560 0.930 . S
C1574 C1572 1.395 . S
C1574 C1577 1.403 . S
C1575 C1572 1.403 . S
C1575 C1576 1.524 1_545 S
C1575 C1579 1.400 . S
C1576 H1561 0.960 . S
C1576 H1562 0.960 . S
C1576 H1563 0.960 . S
C1576 C1575 1.524 1_565 S
C1577 C1574 1.403 . S
C1577 C1578 1.392 . S
C1577 C1581 1.495 . S
C1578 C1577 1.392 . S
C1578 C1579 1.385 . S
C1578 C1580 1.478 . S
C1579 H1573 0.930 . S
C1579 C1575 1.400 . S
C1579 C1578 1.385 . S
C1580 C1578 1.478 . S
C1580 C1582 1.381 . S
C1580 C1586 1.383 . S
C1581 C1577 1.495 . S
C1581 H1587 0.959 . S
C1581 H1588 0.961 . S
C1581 H1589 0.960 . S
C1582 C1580 1.381 . S
C1582 C1583 1.394 . S
C1582 H1590 0.930 . S
C1583 C1582 1.394 . S
C1583 C1584 1.383 . S
C1583 H1591 0.929 . S
C1584 C1583 1.383 . S
C1584 C1585 1.377 . S
C1585 H1569 0.930 . S
C1585 C1584 1.377 . S
C1585 C1586 1.379 . S
C1586 H1570 0.931 . S
C1586 C1580 1.383 . S
C1586 C1585 1.379 . S
H1587 C1581 0.959 . S
H1588 C1581 0.961 . S
H1589 C1581 0.960 . S
H1590 C1582 0.930 . S
H1591 C1583 0.929 . S
H1592 C1600 0.929 . S
H1593 C1602 0.930 . S
H1594 C1604 0.930 . S
H1595 C1607 0.929 . S
H1596 C1610 0.930 . S
H1597 C1612 0.960 . S
H1598 C1612 0.960 . S
H1599 C1612 0.960 . S
C1600 H1592 0.929 . S
C1600 C1601 1.377 . S
C1600 C1602 1.384 . S
C1601 C1600 1.377 . S
C1601 C1607 1.390 . S
C1602 H1593 0.930 . S
C1602 C1600 1.384 . S
C1602 C1603 1.372 . S
C1603 C1602 1.372 . S
C1603 C1604 1.400 . S
C1603 C1608 1.490 . S
C1604 H1594 0.930 . S
C1604 C1603 1.400 . S
C1604 C1607 1.386 . S
H1605 C1621 0.930 . S
H1606 C1622 0.931 . S
C1607 H1595 0.929 . S
C1607 C1601 1.390 . S
C1607 C1604 1.386 . S
C1608 C1603 1.490 . S
C1608 C1610 1.395 . S
C1608 C1611 1.403 . S
H1609 C1615 0.930 . S
C1610 H1596 0.930 . S
C1610 C1608 1.395 . S
C1610 C1613 1.403 . S
C1611 C1608 1.403 . S
C1611 C1612 1.524 . S
C1611 C1615 1.400 . S
C1612 H1597 0.960 . S
C1612 H1598 0.960 . S
C1612 H1599 0.960 . S
C1612 C1611 1.524 . S
C1613 C1610 1.403 . S
C1613 C1614 1.392 . S
C1613 C1617 1.495 . S
C1614 C1613 1.392 . S
C1614 C1615 1.385 . S
C1614 C1616 1.478 . S
C1615 H1609 0.930 . S
C1615 C1611 1.400 . S
C1615 C1614 1.385 . S
C1616 C1614 1.478 . S
C1616 C1618 1.381 . S
C1616 C1622 1.383 . S
C1617 C1613 1.495 . S
C1617 H1623 0.959 . S
C1617 H1624 0.961 . S
C1617 H1625 0.960 . S
C1618 C1616 1.381 . S
C1618 C1619 1.394 . S
C1618 H1626 0.930 . S
C1619 C1618 1.394 . S
C1619 C1620 1.383 . S
C1619 H1627 0.929 . S
C1620 C1619 1.383 . S
C1620 C1621 1.377 . S
C1621 H1605 0.930 . S
C1621 C1620 1.377 . S
C1621 C1622 1.379 . S
C1622 H1606 0.931 . S
C1622 C1616 1.383 . S
C1622 C1621 1.379 . S
H1623 C1617 0.959 . S
H1624 C1617 0.961 . S
H1625 C1617 0.960 . S
H1626 C1618 0.930 . S
H1627 C1619 0.929 . S
H1628 C1636 0.929 . S
H1629 C1638 0.930 . S
H1630 C1640 0.930 . S
H1631 C1643 0.929 . S
H1632 C1646 0.930 . S
H1633 C1648 0.960 . S
H1634 C1648 0.960 . S
H1635 C1648 0.960 . S
C1636 H1628 0.929 . S
C1636 C1637 1.377 1_565 S
C1636 C1638 1.384 . S
C1637 C1636 1.377 1_545 S
C1637 C1643 1.390 . S
C1638 H1629 0.930 . S
C1638 C1636 1.384 . S
C1638 C1639 1.372 . S
C1639 C1638 1.372 . S
C1639 C1640 1.400 1_565 S
C1639 C1644 1.490 . S
C1640 H1630 0.930 . S
C1640 C1639 1.400 1_545 S
C1640 C1643 1.386 . S
H1641 C1657 0.930 . S
H1642 C1658 0.931 . S
C1643 H1631 0.929 . S
C1643 C1637 1.390 . S
C1643 C1640 1.386 . S
C1644 C1639 1.490 . S
C1644 C1646 1.395 . S
C1644 C1647 1.403 . S
H1645 C1651 0.930 . S
C1646 H1632 0.930 . S
C1646 C1644 1.395 . S
C1646 C1649 1.403 . S
C1647 C1644 1.403 . S
C1647 C1648 1.524 1_565 S
C1647 C1651 1.400 . S
C1648 H1633 0.960 . S
C1648 H1634 0.960 . S
C1648 H1635 0.960 . S
C1648 C1647 1.524 1_545 S
C1649 C1646 1.403 . S
C1649 C1650 1.392 . S
C1649 C1653 1.495 . S
C1650 C1649 1.392 . S
C1650 C1651 1.385 . S
C1650 C1652 1.478 . S
C1651 H1645 0.930 . S
C1651 C1647 1.400 . S
C1651 C1650 1.385 . S
C1652 C1650 1.478 . S
C1652 C1654 1.381 . S
C1652 C1658 1.383 . S
C1653 C1649 1.495 . S
C1653 H1659 0.959 . S
C1653 H1660 0.961 . S
C1653 H1661 0.960 . S
C1654 C1652 1.381 . S
C1654 C1655 1.394 . S
C1654 H1662 0.930 . S
C1655 C1654 1.394 . S
C1655 C1656 1.383 . S
C1655 H1663 0.929 . S
C1656 C1655 1.383 . S
C1656 C1657 1.377 . S
C1657 H1641 0.930 . S
C1657 C1656 1.377 . S
C1657 C1658 1.379 . S
C1658 H1642 0.931 . S
C1658 C1652 1.383 . S
C1658 C1657 1.379 . S
H1659 C1653 0.959 . S
H1660 C1653 0.961 . S
H1661 C1653 0.960 . S
H1662 C1654 0.930 . S
H1663 C1655 0.929 . S
H1664 C1672 0.929 . S
H1665 C1674 0.930 . S
H1666 C1676 0.930 . S
H1667 C1679 0.929 . S
H1668 C1682 0.930 . S
H1669 C1684 0.960 . S
H1670 C1684 0.960 . S
H1671 C1684 0.960 . S
C1672 H1664 0.929 . S
C1672 C1673 1.377 . S
C1672 C1674 1.384 1_554 S
C1673 C1672 1.377 . S
C1673 C1679 1.390 1_554 S
C1674 H1665 0.930 . S
C1674 C1672 1.384 1_556 S
C1674 C1675 1.372 . S
C1675 C1674 1.372 . S
C1675 C1676 1.400 . S
C1675 C1680 1.490 . S
C1676 H1666 0.930 . S
C1676 C1675 1.400 . S
C1676 C1679 1.386 . S
H1677 C1693 0.930 . S
H1678 C1694 0.931 . S
C1679 H1667 0.929 . S
C1679 C1673 1.390 1_556 S
C1679 C1676 1.386 . S
C1680 C1675 1.490 . S
C1680 C1682 1.395 . S
C1680 C1683 1.403 . S
H1681 C1687 0.930 . S
C1682 H1668 0.930 . S
C1682 C1680 1.395 . S
C1682 C1685 1.403 . S
C1683 C1680 1.403 . S
C1683 C1684 1.524 . S
C1683 C1687 1.400 . S
C1684 H1669 0.960 . S
C1684 H1670 0.960 . S
C1684 H1671 0.960 . S
C1684 C1683 1.524 . S
C1685 C1682 1.403 . S
C1685 C1686 1.392 . S
C1685 C1689 1.495 . S
C1686 C1685 1.392 . S
C1686 C1687 1.385 . S
C1686 C1688 1.478 . S
C1687 H1681 0.930 . S
C1687 C1683 1.400 . S
C1687 C1686 1.385 . S
C1688 C1686 1.478 . S
C1688 C1690 1.381 . S
C1688 C1694 1.383 . S
C1689 C1685 1.495 . S
C1689 H1695 0.959 . S
C1689 H1696 0.961 . S
C1689 H1697 0.960 . S
C1690 C1688 1.381 . S
C1690 C1691 1.394 . S
C1690 H1698 0.930 . S
C1691 C1690 1.394 . S
C1691 C1692 1.383 . S
C1691 H1699 0.929 . S
C1692 C1691 1.383 . S
C1692 C1693 1.377 . S
C1693 H1677 0.930 . S
C1693 C1692 1.377 . S
C1693 C1694 1.379 . S
C1694 H1678 0.931 . S
C1694 C1688 1.383 . S
C1694 C1693 1.379 . S
H1695 C1689 0.959 . S
H1696 C1689 0.961 . S
H1697 C1689 0.960 . S
H1698 C1690 0.930 . S
H1699 C1691 0.929 . S
H1700 C1708 0.929 . S
H1701 C1710 0.930 . S
H1702 C1712 0.930 . S
H1703 C1715 0.929 . S
H1704 C1718 0.930 . S
H1705 C1720 0.960 . S
H1706 C1720 0.960 . S
H1707 C1720 0.960 . S
C1708 H1700 0.929 . S
C1708 C1709 1.377 . S
C1708 C1710 1.384 . S
C1709 C1708 1.377 . S
C1709 C1715 1.390 . S
C1710 H1701 0.930 . S
C1710 C1708 1.384 . S
C1710 C1711 1.372 . S
C1711 C1710 1.372 . S
C1711 C1712 1.400 . S
C1711 C1716 1.490 . S
C1712 H1702 0.930 . S
C1712 C1711 1.400 . S
C1712 C1715 1.386 . S
H1713 C1729 0.930 . S
H1714 C1730 0.931 . S
C1715 H1703 0.929 . S
C1715 C1709 1.390 . S
C1715 C1712 1.386 . S
C1716 C1711 1.490 . S
C1716 C1718 1.395 . S
C1716 C1719 1.403 . S
H1717 C1723 0.930 . S
C1718 H1704 0.930 . S
C1718 C1716 1.395 . S
C1718 C1721 1.403 . S
C1719 C1716 1.403 . S
C1719 C1720 1.524 . S
C1719 C1723 1.400 . S
C1720 H1705 0.960 . S
C1720 H1706 0.960 . S
C1720 H1707 0.960 . S
C1720 C1719 1.524 . S
C1721 C1718 1.403 . S
C1721 C1722 1.392 . S
C1721 C1725 1.495 . S
C1722 C1721 1.392 . S
C1722 C1723 1.385 . S
C1722 C1724 1.478 . S
C1723 H1717 0.930 . S
C1723 C1719 1.400 . S
C1723 C1722 1.385 . S
C1724 C1722 1.478 . S
C1724 C1726 1.381 . S
C1724 C1730 1.383 . S
C1725 C1721 1.495 . S
C1725 H1731 0.959 . S
C1725 H1732 0.961 . S
C1725 H1733 0.960 . S
C1726 C1724 1.381 . S
C1726 C1727 1.394 . S
C1726 H1734 0.930 . S
C1727 C1726 1.394 . S
C1727 C1728 1.383 . S
C1727 H1735 0.929 . S
C1728 C1727 1.383 . S
C1728 C1729 1.377 . S
C1729 H1713 0.930 . S
C1729 C1728 1.377 . S
C1729 C1730 1.379 . S
C1730 H1714 0.931 . S
C1730 C1724 1.383 . S
C1730 C1729 1.379 . S
H1731 C1725 0.959 . S
H1732 C1725 0.961 . S
H1733 C1725 0.960 . S
H1734 C1726 0.930 . S
H1735 C1727 0.929 . S
H1736 C1744 0.929 . S
H1737 C1746 0.930 . S
H1738 C1748 0.930 . S
H1739 C1751 0.929 . S
H1740 C1754 0.930 . S
H1741 C1756 0.960 . S
H1742 C1756 0.960 . S
H1743 C1756 0.960 . S
C1744 H1736 0.929 . S
C1744 C1745 1.377 . S
C1744 C1746 1.384 . S
C1745 C1744 1.377 . S
C1745 C1751 1.390 . S
C1746 H1737 0.930 . S
C1746 C1744 1.384 . S
C1746 C1747 1.372 . S
C1747 C1746 1.372 . S
C1747 C1748 1.400 . S
C1747 C1752 1.490 . S
C1748 H1738 0.930 . S
C1748 C1747 1.400 . S
C1748 C1751 1.386 . S
H1749 C1765 0.930 . S
H1750 C1766 0.931 . S
C1751 H1739 0.929 . S
C1751 C1745 1.390 . S
C1751 C1748 1.386 . S
C1752 C1747 1.490 . S
C1752 C1754 1.395 . S
C1752 C1755 1.403 . S
H1753 C1759 0.930 . S
C1754 H1740 0.930 . S
C1754 C1752 1.395 . S
C1754 C1757 1.403 . S
C1755 C1752 1.403 . S
C1755 C1756 1.524 . S
C1755 C1759 1.400 . S
C1756 H1741 0.960 . S
C1756 H1742 0.960 . S
C1756 H1743 0.960 . S
C1756 C1755 1.524 . S
C1757 C1754 1.403 . S
C1757 C1758 1.392 . S
C1757 C1761 1.495 . S
C1758 C1757 1.392 . S
C1758 C1759 1.385 . S
C1758 C1760 1.478 . S
C1759 H1753 0.930 . S
C1759 C1755 1.400 . S
C1759 C1758 1.385 . S
C1760 C1758 1.478 . S
C1760 C1762 1.381 . S
C1760 C1766 1.383 . S
C1761 C1757 1.495 . S
C1761 H1767 0.959 . S
C1761 H1768 0.961 . S
C1761 H1769 0.960 . S
C1762 C1760 1.381 . S
C1762 C1763 1.394 . S
C1762 H1770 0.930 . S
C1763 C1762 1.394 . S
C1763 C1764 1.383 . S
C1763 H1771 0.929 . S
C1764 C1763 1.383 . S
C1764 C1765 1.377 . S
C1765 H1749 0.930 . S
C1765 C1764 1.377 . S
C1765 C1766 1.379 . S
C1766 H1750 0.931 . S
C1766 C1760 1.383 . S
C1766 C1765 1.379 . S
H1767 C1761 0.959 . S
H1768 C1761 0.961 . S
H1769 C1761 0.960 . S
H1770 C1762 0.930 . S
H1771 C1763 0.929 . S
H1772 C1780 0.929 . S
H1773 C1782 0.930 . S
H1774 C1784 0.930 . S
H1775 C1787 0.929 . S
H1776 C1790 0.930 . S
H1777 C1792 0.960 . S
H1778 C1792 0.960 . S
H1779 C1792 0.960 . S
C1780 H1772 0.929 . S
C1780 C1781 1.377 . S
C1780 C1782 1.384 . S
C1781 C1780 1.377 . S
C1781 C1787 1.390 . S
C1782 H1773 0.930 . S
C1782 C1780 1.384 . S
C1782 C1783 1.372 . S
C1783 C1782 1.372 . S
C1783 C1784 1.400 . S
C1783 C1788 1.490 . S
C1784 H1774 0.930 . S
C1784 C1783 1.400 . S
C1784 C1787 1.386 . S
H1785 C1801 0.930 . S
H1786 C1802 0.931 . S
C1787 H1775 0.929 . S
C1787 C1781 1.390 . S
C1787 C1784 1.386 . S
C1788 C1783 1.490 . S
C1788 C1790 1.395 . S
C1788 C1791 1.403 . S
H1789 C1795 0.930 . S
C1790 H1776 0.930 . S
C1790 C1788 1.395 . S
C1790 C1793 1.403 . S
C1791 C1788 1.403 . S
C1791 C1792 1.524 . S
C1791 C1795 1.400 . S
C1792 H1777 0.960 . S
C1792 H1778 0.960 . S
C1792 H1779 0.960 . S
C1792 C1791 1.524 . S
C1793 C1790 1.403 . S
C1793 C1794 1.392 . S
C1793 C1797 1.495 . S
C1794 C1793 1.392 . S
C1794 C1795 1.385 . S
C1794 C1796 1.478 . S
C1795 H1789 0.930 . S
C1795 C1791 1.400 . S
C1795 C1794 1.385 . S
C1796 C1794 1.478 . S
C1796 C1798 1.381 . S
C1796 C1802 1.383 . S
C1797 C1793 1.495 . S
C1797 H1803 0.959 . S
C1797 H1804 0.961 . S
C1797 H1805 0.960 . S
C1798 C1796 1.381 . S
C1798 C1799 1.394 . S
C1798 H1806 0.930 . S
C1799 C1798 1.394 . S
C1799 C1800 1.383 . S
C1799 H1807 0.929 . S
C1800 C1799 1.383 . S
C1800 C1801 1.377 . S
C1801 H1785 0.930 . S
C1801 C1800 1.377 . S
C1801 C1802 1.379 . S
C1802 H1786 0.931 . S
C1802 C1796 1.383 . S
C1802 C1801 1.379 . S
H1803 C1797 0.959 . S
H1804 C1797 0.961 . S
H1805 C1797 0.960 . S
H1806 C1798 0.930 . S
H1807 C1799 0.929 . S
H1808 C1816 0.929 . S
H1809 C1818 0.930 . S
H1810 C1820 0.930 . S
H1811 C1823 0.929 . S
H1812 C1826 0.930 . S
H1813 C1828 0.960 . S
H1814 C1828 0.960 . S
H1815 C1828 0.960 . S
C1816 H1808 0.929 . S
C1816 C1817 1.377 . S
C1816 C1818 1.384 . S
C1817 C1816 1.377 . S
C1817 C1823 1.390 . S
C1818 H1809 0.930 . S
C1818 C1816 1.384 . S
C1818 C1819 1.372 . S
C1819 C1818 1.372 . S
C1819 C1820 1.400 . S
C1819 C1824 1.490 . S
C1820 H1810 0.930 . S
C1820 C1819 1.400 . S
C1820 C1823 1.386 . S
H1821 C1837 0.972 . S
H1822 C1838 0.931 . S
C1823 H1811 0.929 . S
C1823 C1817 1.390 . S
C1823 C1820 1.386 . S
C1824 C1819 1.490 . S
C1824 C1826 1.395 . S
C1824 C1827 1.403 . S
H1825 C1831 0.930 . S
C1826 H1812 0.930 . S
C1826 C1824 1.395 . S
C1826 C1829 1.403 . S
C1827 C1824 1.403 . S
C1827 C1828 1.524 . S
C1827 C1831 1.400 . S
C1828 H1813 0.960 . S
C1828 H1814 0.960 . S
C1828 H1815 0.960 . S
C1828 C1827 1.524 . S
C1829 C1826 1.403 . S
C1829 C1830 1.392 . S
C1829 C1833 1.495 . S
C1830 C1829 1.392 . S
C1830 C1831 1.385 . S
C1830 C1832 1.478 . S
C1831 H1825 0.930 . S
C1831 C1827 1.400 . S
C1831 C1830 1.385 . S
C1832 C1830 1.478 . S
C1832 C1834 1.381 . S
C1832 C1838 1.383 . S
C1833 C1829 1.495 . S
C1833 H1839 0.959 . S
C1833 H1840 0.961 . S
C1833 H1841 0.960 . S
C1834 C1832 1.381 . S
C1834 C1835 1.394 . S
C1834 H1842 0.930 . S
C1835 C1834 1.394 . S
C1835 C1836 1.383 1_554 S
C1835 H1843 0.927 1_554 S
C1836 C1835 1.383 1_556 S
C1836 C1837 1.402 . S
C1837 H1821 0.972 . S
C1837 C1836 1.402 . S
C1837 C1838 1.316 1_556 S
C1838 H1822 0.931 . S
C1838 C1832 1.383 . S
C1838 C1837 1.316 1_554 S
H1839 C1833 0.959 . S
H1840 C1833 0.961 . S
H1841 C1833 0.960 . S
H1842 C1834 0.930 . S
H1843 C1835 0.927 1_556 S
H1844 C1852 0.929 . S
H1845 C1854 0.930 . S
H1846 C1856 0.930 . S
H1847 C1859 0.929 . S
H1848 C1862 0.930 . S
H1849 C1864 0.960 . S
H1850 C1864 0.960 . S
H1851 C1864 0.960 . S
C1852 H1844 0.929 . S
C1852 C1853 1.377 . S
C1852 C1854 1.384 . S
C1853 C1852 1.377 . S
C1853 C1859 1.390 . S
C1854 H1845 0.930 . S
C1854 C1852 1.384 . S
C1854 C1855 1.372 . S
C1855 C1854 1.372 . S
C1855 C1856 1.400 . S
C1855 C1860 1.490 . S
C1856 H1846 0.930 . S
C1856 C1855 1.400 . S
C1856 C1859 1.386 . S
H1857 C1873 0.930 . S
H1858 C1874 0.931 . S
C1859 H1847 0.929 . S
C1859 C1853 1.390 . S
C1859 C1856 1.386 . S
C1860 C1855 1.490 . S
C1860 C1862 1.395 . S
C1860 C1863 1.403 . S
H1861 C1867 0.930 . S
C1862 H1848 0.930 . S
C1862 C1860 1.395 . S
C1862 C1865 1.403 . S
C1863 C1860 1.403 . S
C1863 C1864 1.524 . S
C1863 C1867 1.400 . S
C1864 H1849 0.960 . S
C1864 H1850 0.960 . S
C1864 H1851 0.960 . S
C1864 C1863 1.524 . S
C1865 C1862 1.403 . S
C1865 C1866 1.392 . S
C1865 C1869 1.495 . S
C1866 C1865 1.392 . S
C1866 C1867 1.385 . S
C1866 C1868 1.478 . S
C1867 H1861 0.930 . S
C1867 C1863 1.400 . S
C1867 C1866 1.385 . S
C1868 C1866 1.478 . S
C1868 C1870 1.381 . S
C1868 C1874 1.383 . S
C1869 C1865 1.495 . S
C1869 H1875 0.959 . S
C1869 H1876 0.961 . S
C1869 H1877 0.960 . S
C1870 C1868 1.381 . S
C1870 C1871 1.394 . S
C1870 H1878 0.930 . S
C1871 C1870 1.394 . S
C1871 C1872 1.383 . S
C1871 H1879 0.929 . S
C1872 C1871 1.383 . S
C1872 C1873 1.377 . S
C1873 H1857 0.930 . S
C1873 C1872 1.377 . S
C1873 C1874 1.379 . S
C1874 H1858 0.931 . S
C1874 C1868 1.383 . S
C1874 C1873 1.379 . S
H1875 C1869 0.959 . S
H1876 C1869 0.961 . S
H1877 C1869 0.960 . S
H1878 C1870 0.930 . S
H1879 C1871 0.929 . S
H1880 C1888 0.929 . S
H1881 C1890 0.930 . S
H1882 C1892 0.930 . S
H1883 C1895 0.929 . S
H1884 C1898 0.930 . S
H1885 C1900 0.960 . S
H1886 C1900 0.960 . S
H1887 C1900 0.960 . S
C1888 H1880 0.929 . S
C1888 C1889 1.377 . S
C1888 C1890 1.384 . S
C1889 C1888 1.377 . S
C1889 C1895 1.390 . S
C1890 H1881 0.930 . S
C1890 C1888 1.384 . S
C1890 C1891 1.372 . S
C1891 C1890 1.372 . S
C1891 C1892 1.400 . S
C1891 C1896 1.490 . S
C1892 H1882 0.930 . S
C1892 C1891 1.400 . S
C1892 C1895 1.386 . S
H1893 C1909 0.930 . S
H1894 C1910 0.931 . S
C1895 H1883 0.929 . S
C1895 C1889 1.390 . S
C1895 C1892 1.386 . S
C1896 C1891 1.490 . S
C1896 C1898 1.395 . S
C1896 C1899 1.403 . S
H1897 C1903 0.930 . S
C1898 H1884 0.930 . S
C1898 C1896 1.395 . S
C1898 C1901 1.403 . S
C1899 C1896 1.403 . S
C1899 C1900 1.524 . S
C1899 C1903 1.400 . S
C1900 H1885 0.960 . S
C1900 H1886 0.960 . S
C1900 H1887 0.960 . S
C1900 C1899 1.524 . S
C1901 C1898 1.403 . S
C1901 C1902 1.392 . S
C1901 C1905 1.495 . S
C1902 C1901 1.392 . S
C1902 C1903 1.385 . S
C1902 C1904 1.478 . S
C1903 H1897 0.930 . S
C1903 C1899 1.400 . S
C1903 C1902 1.385 . S
C1904 C1902 1.478 . S
C1904 C1906 1.381 . S
C1904 C1910 1.383 . S
C1905 C1901 1.495 . S
C1905 H1911 0.959 . S
C1905 H1912 0.961 . S
C1905 H1913 0.960 . S
C1906 C1904 1.381 . S
C1906 C1907 1.394 . S
C1906 H1914 0.930 . S
C1907 C1906 1.394 . S
C1907 C1908 1.383 . S
C1907 H1915 0.929 . S
C1908 C1907 1.383 . S
C1908 C1909 1.377 . S
C1909 H1893 0.930 . S
C1909 C1908 1.377 . S
C1909 C1910 1.379 . S
C1910 H1894 0.931 . S
C1910 C1904 1.383 . S
C1910 C1909 1.379 . S
H1911 C1905 0.959 . S
H1912 C1905 0.961 . S
H1913 C1905 0.960 . S
H1914 C1906 0.930 . S
H1915 C1907 0.929 . S
H1916 C1924 0.929 . S
H1917 C1926 0.930 . S
H1918 C1928 0.930 . S
H1919 C1931 0.929 . S
H1920 C1934 0.930 . S
H1921 C1936 0.960 . S
H1922 C1936 0.960 . S
H1923 C1936 0.960 . S
C1924 H1916 0.929 . S
C1924 C1925 1.377 . S
C1924 C1926 1.384 . S
C1925 C1924 1.377 . S
C1925 C1931 1.390 . S
C1926 H1917 0.930 . S
C1926 C1924 1.384 . S
C1926 C1927 1.372 . S
C1927 C1926 1.372 . S
C1927 C1928 1.400 . S
C1927 C1932 1.490 . S
C1928 H1918 0.930 . S
C1928 C1927 1.400 . S
C1928 C1931 1.386 . S
H1929 C1945 0.930 . S
H1930 C1946 0.931 . S
C1931 H1919 0.929 . S
C1931 C1925 1.390 . S
C1931 C1928 1.386 . S
C1932 C1927 1.490 . S
C1932 C1934 1.395 . S
C1932 C1935 1.403 . S
H1933 C1939 0.930 . S
C1934 H1920 0.930 . S
C1934 C1932 1.395 . S
C1934 C1937 1.403 . S
C1935 C1932 1.403 . S
C1935 C1936 1.524 . S
C1935 C1939 1.400 . S
C1936 H1921 0.960 . S
C1936 H1922 0.960 . S
C1936 H1923 0.960 . S
C1936 C1935 1.524 . S
C1937 C1934 1.403 . S
C1937 C1938 1.392 . S
C1937 C1941 1.495 . S
C1938 C1937 1.392 . S
C1938 C1939 1.385 . S
C1938 C1940 1.478 . S
C1939 H1933 0.930 . S
C1939 C1935 1.400 . S
C1939 C1938 1.385 . S
C1940 C1938 1.478 . S
C1940 C1942 1.381 . S
C1940 C1946 1.383 . S
C1941 C1937 1.495 . S
C1941 H1947 0.959 . S
C1941 H1948 0.961 . S
C1941 H1949 0.960 . S
C1942 C1940 1.381 . S
C1942 C1943 1.394 . S
C1942 H1950 0.930 . S
C1943 C1942 1.394 . S
C1943 C1944 1.383 . S
C1943 H1951 0.929 . S
C1944 C1943 1.383 . S
C1944 C1945 1.377 . S
C1945 H1929 0.930 . S
C1945 C1944 1.377 . S
C1945 C1946 1.379 . S
C1946 H1930 0.931 . S
C1946 C1940 1.383 . S
C1946 C1945 1.379 . S
H1947 C1941 0.959 . S
H1948 C1941 0.961 . S
H1949 C1941 0.960 . S
H1950 C1942 0.930 . S
H1951 C1943 0.929 . S
H1952 C1960 0.929 . S
H1953 C1962 0.930 . S
H1954 C1964 0.930 . S
H1955 C1967 0.929 . S
H1956 C1970 0.930 . S
H1957 C1972 0.960 . S
H1958 C1972 0.960 . S
H1959 C1972 0.960 . S
C1960 H1952 0.929 . S
C1960 C1961 1.377 . S
C1960 C1962 1.384 . S
C1961 C1960 1.377 . S
C1961 C1967 1.390 . S
C1962 H1953 0.930 . S
C1962 C1960 1.384 . S
C1962 C1963 1.372 . S
C1963 C1962 1.372 . S
C1963 C1964 1.400 . S
C1963 C1968 1.490 . S
C1964 H1954 0.930 . S
C1964 C1963 1.400 . S
C1964 C1967 1.386 . S
H1965 C1981 0.930 . S
H1966 C1982 0.931 . S
C1967 H1955 0.929 . S
C1967 C1961 1.390 . S
C1967 C1964 1.386 . S
C1968 C1963 1.490 . S
C1968 C1970 1.395 . S
C1968 C1971 1.403 . S
H1969 C1975 0.930 . S
C1970 H1956 0.930 . S
C1970 C1968 1.395 . S
C1970 C1973 1.403 . S
C1971 C1968 1.403 . S
C1971 C1972 1.524 . S
C1971 C1975 1.400 . S
C1972 H1957 0.960 . S
C1972 H1958 0.960 . S
C1972 H1959 0.960 . S
C1972 C1971 1.524 . S
C1973 C1970 1.403 . S
C1973 C1974 1.392 . S
C1973 C1977 1.495 . S
C1974 C1973 1.392 . S
C1974 C1975 1.385 . S
C1974 C1976 1.478 . S
C1975 H1969 0.930 . S
C1975 C1971 1.400 . S
C1975 C1974 1.385 . S
C1976 C1974 1.478 . S
C1976 C1978 1.381 . S
C1976 C1982 1.383 . S
C1977 C1973 1.495 . S
C1977 H1983 0.959 . S
C1977 H1984 0.961 . S
C1977 H1985 0.960 . S
C1978 C1976 1.381 . S
C1978 C1979 1.394 . S
C1978 H1986 0.930 . S
C1979 C1978 1.394 . S
C1979 C1980 1.383 . S
C1979 H1987 0.929 . S
C1980 C1979 1.383 . S
C1980 C1981 1.377 . S
C1981 H1965 0.930 . S
C1981 C1980 1.377 . S
C1981 C1982 1.379 . S
C1982 H1966 0.931 . S
C1982 C1976 1.383 . S
C1982 C1981 1.379 . S
H1983 C1977 0.959 . S
H1984 C1977 0.961 . S
H1985 C1977 0.960 . S
H1986 C1978 0.930 . S
H1987 C1979 0.929 . S
H1988 C1996 0.929 . S
H1989 C1998 0.930 . S
H1990 C2000 0.930 . S
H1991 C2003 0.929 . S
H1992 C2006 0.930 . S
H1993 C2008 0.960 1_545 S
H1994 C2008 0.960 . S
H1995 C2008 0.965 . S
C1996 H1988 0.929 . S
C1996 C1997 1.377 . S
C1996 C1998 1.384 . S
C1997 C1996 1.377 . S
C1997 C2003 1.390 . S
C1998 H1989 0.930 . S
C1998 C1996 1.384 . S
C1998 C1999 1.372 . S
C1999 C1998 1.372 . S
C1999 C2000 1.400 . S
C1999 C2004 1.490 . S
C2000 H1990 0.930 . S
C2000 C1999 1.400 . S
C2000 C2003 1.386 . S
H2001 C2017 0.930 . S
H2002 C2018 0.931 . S
C2003 H1991 0.929 . S
C2003 C1997 1.390 . S
C2003 C2000 1.386 . S
C2004 C1999 1.490 . S
C2004 C2006 1.395 . S
C2004 C2007 1.403 . S
H2005 C2011 0.930 1_545 S
C2006 H1992 0.930 . S
C2006 C2004 1.395 . S
C2006 C2009 1.403 . S
C2007 C2004 1.403 . S
C2007 C2008 1.524 . S
C2007 C2011 1.400 . S
C2008 H1993 0.960 1_565 S
C2008 H1994 0.960 . S
C2008 H1995 0.965 . S
C2008 C2007 1.524 . S
C2009 C2006 1.403 . S
C2009 C2010 1.392 . S
C2009 C2013 1.495 . S
C2010 C2009 1.392 . S
C2010 C2011 1.385 . S
C2010 C2012 1.478 . S
C2011 H2005 0.930 1_565 S
C2011 C2007 1.400 . S
C2011 C2010 1.385 . S
C2012 C2010 1.478 . S
C2012 C2014 1.381 . S
C2012 C2018 1.383 1_565 S
C2013 C2009 1.495 . S
C2013 H2019 0.959 . S
C2013 H2020 0.961 . S
C2013 H2021 0.960 . S
C2014 C2012 1.381 . S
C2014 C2015 1.394 . S
C2014 H2022 0.930 . S
C2015 C2014 1.394 . S
C2015 C2016 1.383 1_565 S
C2015 H2023 0.929 . S
C2016 C2015 1.383 1_545 S
C2016 C2017 1.377 . S
C2017 H2001 0.930 . S
C2017 C2016 1.377 . S
C2017 C2018 1.379 . S
C2018 H2002 0.931 . S
C2018 C2012 1.383 1_545 S
C2018 C2017 1.379 . S
H2019 C2013 0.959 . S
H2020 C2013 0.961 . S
H2021 C2013 0.960 . S
H2022 C2014 0.930 . S
H2023 C2015 0.929 . S
H2024 C2032 0.929 . S
H2025 C2034 0.930 . S
H2026 C2036 0.930 . S
H2027 C2039 0.929 . S
H2028 C2042 0.930 . S
H2029 C2044 0.960 . S
H2030 C2044 0.960 . S
H2031 C2044 0.960 . S
C2032 H2024 0.929 . S
C2032 C2033 1.377 . S
C2032 C2034 1.384 . S
C2033 C2032 1.377 . S
C2033 C2039 1.390 . S
C2034 H2025 0.930 . S
C2034 C2032 1.384 . S
C2034 C2035 1.372 . S
C2035 C2034 1.372 . S
C2035 C2036 1.400 . S
C2035 C2040 1.490 . S
C2036 H2026 0.930 . S
C2036 C2035 1.400 . S
C2036 C2039 1.386 . S
H2037 C2053 0.930 1_554 S
H2038 C2054 0.931 . S
C2039 H2027 0.929 . S
C2039 C2033 1.390 . S
C2039 C2036 1.386 . S
C2040 C2035 1.490 . S
C2040 C2042 1.395 . S
C2040 C2043 1.403 . S
H2041 C2047 0.930 . S
C2042 H2028 0.930 . S
C2042 C2040 1.395 . S
C2042 C2045 1.403 . S
C2043 C2040 1.403 . S
C2043 C2044 1.524 . S
C2043 C2047 1.400 . S
C2044 H2029 0.960 . S
C2044 H2030 0.960 . S
C2044 H2031 0.960 . S
C2044 C2043 1.524 . S
C2045 C2042 1.403 . S
C2045 C2046 1.392 . S
C2045 C2049 1.495 . S
C2046 C2045 1.392 . S
C2046 C2047 1.385 . S
C2046 C2048 1.478 . S
C2047 H2041 0.930 . S
C2047 C2043 1.400 . S
C2047 C2046 1.385 . S
C2048 C2046 1.478 . S
C2048 C2050 1.381 . S
C2048 C2054 1.383 . S
C2049 C2045 1.495 . S
C2049 H2055 0.959 . S
C2049 H2056 0.961 . S
C2049 H2057 0.960 . S
C2050 C2048 1.381 . S
C2050 C2051 1.394 . S
C2050 H2058 0.930 . S
C2051 C2050 1.394 . S
C2051 C2052 1.383 1_556 S
C2051 H2059 0.929 1_556 S
C2052 C2051 1.383 1_554 S
C2052 C2053 1.377 1_554 S
C2053 H2037 0.930 1_556 S
C2053 C2052 1.377 1_556 S
C2053 C2054 1.379 . S
C2054 H2038 0.931 . S
C2054 C2048 1.383 . S
C2054 C2053 1.379 . S
H2055 C2049 0.959 . S
H2056 C2049 0.961 . S
H2057 C2049 0.960 . S
H2058 C2050 0.930 . S
H2059 C2051 0.929 1_554 S
H2060 C2068 0.929 . S
H2061 C2070 0.930 . S
H2062 C2072 0.930 . S
H2063 C2075 0.929 . S
H2064 C2078 0.930 . S
H2065 C2080 0.960 . S
H2066 C2080 0.960 . S
H2067 C2080 0.960 . S
C2068 H2060 0.929 . S
C2068 C2069 1.377 . S
C2068 C2070 1.384 . S
C2069 C2068 1.377 . S
C2069 C2075 1.390 . S
C2070 H2061 0.930 . S
C2070 C2068 1.384 . S
C2070 C2071 1.372 1_565 S
C2071 C2070 1.372 1_545 S
C2071 C2072 1.400 . S
C2071 C2076 1.490 . S
C2072 H2062 0.930 . S
C2072 C2071 1.400 . S
C2072 C2075 1.386 1_545 S
H2073 C2089 0.930 . S
H2074 C2090 0.931 . S
C2075 H2063 0.929 . S
C2075 C2069 1.390 . S
C2075 C2072 1.386 1_565 S
C2076 C2071 1.490 . S
C2076 C2078 1.395 1_545 S
C2076 C2079 1.403 . S
H2077 C2083 0.930 . S
C2078 H2064 0.930 . S
C2078 C2076 1.395 1_565 S
C2078 C2081 1.403 1_565 S
C2079 C2076 1.403 . S
C2079 C2080 1.524 . S
C2079 C2083 1.400 . S
C2080 H2065 0.960 . S
C2080 H2066 0.960 . S
C2080 H2067 0.960 . S
C2080 C2079 1.524 . S
C2081 C2078 1.403 1_545 S
C2081 C2082 1.392 . S
C2081 C2085 1.495 1_545 S
C2082 C2081 1.392 . S
C2082 C2083 1.385 . S
C2082 C2084 1.478 . S
C2083 H2077 0.930 . S
C2083 C2079 1.400 . S
C2083 C2082 1.385 . S
C2084 C2082 1.478 . S
C2084 C2086 1.381 . S
C2084 C2090 1.383 . S
C2085 C2081 1.495 1_565 S
C2085 H2091 0.959 . S
C2085 H2092 0.961 . S
C2085 H2093 0.960 . S
C2086 C2084 1.381 . S
C2086 C2087 1.394 . S
C2086 H2094 0.930 . S
C2087 C2086 1.394 . S
C2087 C2088 1.383 . S
C2087 H2095 0.929 . S
C2088 C2087 1.383 . S
C2088 C2089 1.377 . S
C2089 H2073 0.930 . S
C2089 C2088 1.377 . S
C2089 C2090 1.379 . S
C2090 H2074 0.931 . S
C2090 C2084 1.383 . S
C2090 C2089 1.379 . S
H2091 C2085 0.959 . S
H2092 C2085 0.961 . S
H2093 C2085 0.960 . S
H2094 C2086 0.930 . S
H2095 C2087 0.929 . S
H2096 C2104 0.929 . S
H2097 C2106 0.930 . S
H2098 C2108 0.930 . S
H2099 C2111 0.929 . S
H2100 C2114 0.930 . S
H2101 C2116 0.960 . S
H2102 C2116 0.960 . S
H2103 C2116 0.960 . S
C2104 H2096 0.929 . S
C2104 C2105 1.377 . S
C2104 C2106 1.384 . S
C2105 C2104 1.377 . S
C2105 C2111 1.390 . S
C2106 H2097 0.930 . S
C2106 C2104 1.384 . S
C2106 C2107 1.372 . S
C2107 C2106 1.372 . S
C2107 C2108 1.400 . S
C2107 C2112 1.490 . S
C2108 H2098 0.930 . S
C2108 C2107 1.400 . S
C2108 C2111 1.386 . S
H2109 C2125 0.930 . S
H2110 C2126 0.931 . S
C2111 H2099 0.929 . S
C2111 C2105 1.390 . S
C2111 C2108 1.386 . S
C2112 C2107 1.490 . S
C2112 C2114 1.395 . S
C2112 C2115 1.403 . S
H2113 C2119 0.930 . S
C2114 H2100 0.930 . S
C2114 C2112 1.395 . S
C2114 C2117 1.403 . S
C2115 C2112 1.403 . S
C2115 C2116 1.524 . S
C2115 C2119 1.400 . S
C2116 H2101 0.960 . S
C2116 H2102 0.960 . S
C2116 H2103 0.960 . S
C2116 C2115 1.524 . S
C2117 C2114 1.403 . S
C2117 C2118 1.392 . S
C2117 C2121 1.495 . S
C2118 C2117 1.392 . S
C2118 C2119 1.385 . S
C2118 C2120 1.478 . S
C2119 H2113 0.930 . S
C2119 C2115 1.400 . S
C2119 C2118 1.385 . S
C2120 C2118 1.478 . S
C2120 C2122 1.381 . S
C2120 C2126 1.383 . S
C2121 C2117 1.495 . S
C2121 H2127 0.959 . S
C2121 H2128 0.961 . S
C2121 H2129 0.960 . S
C2122 C2120 1.381 . S
C2122 C2123 1.394 . S
C2122 H2130 0.930 . S
C2123 C2122 1.394 . S
C2123 C2124 1.383 . S
C2123 H2131 0.929 . S
C2124 C2123 1.383 . S
C2124 C2125 1.377 . S
C2125 H2109 0.930 . S
C2125 C2124 1.377 . S
C2125 C2126 1.379 . S
C2126 H2110 0.931 . S
C2126 C2120 1.383 . S
C2126 C2125 1.379 . S
H2127 C2121 0.959 . S
H2128 C2121 0.961 . S
H2129 C2121 0.960 . S
H2130 C2122 0.930 . S
H2131 C2123 0.929 . S
H2132 C2140 0.929 . S
H2133 C2142 0.930 . S
H2134 C2144 0.930 . S
H2135 C2147 0.929 . S
H2136 C2150 0.930 . S
H2137 C2152 0.960 1_565 S
H2138 C2152 0.960 1_565 S
H2139 C2152 0.960 . S
C2140 H2132 0.929 . S
C2140 C2141 1.377 . S
C2140 C2142 1.384 . S
C2141 C2140 1.377 . S
C2141 C2147 1.390 . S
C2142 H2133 0.930 . S
C2142 C2140 1.384 . S
C2142 C2143 1.372 . S
C2143 C2142 1.372 . S
C2143 C2144 1.400 . S
C2143 C2148 1.490 . S
C2144 H2134 0.930 . S
C2144 C2143 1.400 . S
C2144 C2147 1.386 . S
H2145 C2161 0.930 . S
H2146 C2162 0.931 . S
C2147 H2135 0.929 . S
C2147 C2141 1.390 . S
C2147 C2144 1.386 . S
C2148 C2143 1.490 . S
C2148 C2150 1.395 . S
C2148 C2151 1.403 . S
H2149 C2155 0.930 1_565 S
C2150 H2136 0.930 . S
C2150 C2148 1.395 . S
C2150 C2153 1.403 . S
C2151 C2148 1.403 . S
C2151 C2152 1.524 . S
C2151 C2155 1.400 . S
C2152 H2137 0.960 1_545 S
C2152 H2138 0.960 1_545 S
C2152 H2139 0.960 . S
C2152 C2151 1.524 . S
C2153 C2150 1.403 . S
C2153 C2154 1.392 . S
C2153 C2157 1.495 . S
C2154 C2153 1.392 . S
C2154 C2155 1.385 . S
C2154 C2156 1.478 . S
C2155 H2149 0.930 1_545 S
C2155 C2151 1.400 . S
C2155 C2154 1.385 . S
C2156 C2154 1.478 . S
C2156 C2158 1.381 1_545 S
C2156 C2162 1.383 . S
C2157 C2153 1.495 . S
C2157 H2163 0.959 . S
C2157 H2164 0.961 . S
C2157 H2165 0.960 . S
C2158 C2156 1.381 1_565 S
C2158 C2159 1.394 . S
C2158 H2166 0.930 . S
C2159 C2158 1.394 . S
C2159 C2160 1.383 . S
C2159 H2167 0.929 . S
C2160 C2159 1.383 . S
C2160 C2161 1.377 . S
C2161 H2145 0.930 . S
C2161 C2160 1.377 . S
C2161 C2162 1.379 1_565 S
C2162 H2146 0.931 . S
C2162 C2156 1.383 . S
C2162 C2161 1.379 1_545 S
H2163 C2157 0.959 . S
H2164 C2157 0.961 . S
H2165 C2157 0.960 . S
H2166 C2158 0.930 . S
H2167 C2159 0.929 . S
H2168 C2176 0.929 . S
H2169 C2178 0.930 . S
H2170 C2180 0.930 . S
H2171 C2183 0.929 . S
H2172 C2186 0.930 . S
H2173 C2188 0.960 . S
H2174 C2188 0.960 . S
H2175 C2188 0.960 . S
C2176 H2168 0.929 . S
C2176 C2177 1.377 . S
C2176 C2178 1.384 . S
C2177 C2176 1.377 . S
C2177 C2183 1.390 . S
C2178 H2169 0.930 . S
C2178 C2176 1.384 . S
C2178 C2179 1.372 . S
C2179 C2178 1.372 . S
C2179 C2180 1.400 . S
C2179 C2184 1.490 . S
C2180 H2170 0.930 . S
C2180 C2179 1.400 . S
C2180 C2183 1.386 . S
H2181 C2197 0.930 . S
H2182 C2198 0.931 . S
C2183 H2171 0.929 . S
C2183 C2177 1.390 . S
C2183 C2180 1.386 . S
C2184 C2179 1.490 . S
C2184 C2186 1.395 . S
C2184 C2187 1.403 . S
H2185 C2191 0.930 . S
C2186 H2172 0.930 . S
C2186 C2184 1.395 . S
C2186 C2189 1.403 . S
C2187 C2184 1.403 . S
C2187 C2188 1.524 . S
C2187 C2191 1.400 . S
C2188 H2173 0.960 . S
C2188 H2174 0.960 . S
C2188 H2175 0.960 . S
C2188 C2187 1.524 . S
C2189 C2186 1.403 . S
C2189 C2190 1.392 . S
C2189 C2193 1.495 . S
C2190 C2189 1.392 . S
C2190 C2191 1.385 . S
C2190 C2192 1.478 . S
C2191 H2185 0.930 . S
C2191 C2187 1.400 . S
C2191 C2190 1.385 . S
C2192 C2190 1.478 . S
C2192 C2194 1.381 . S
C2192 C2198 1.383 . S
C2193 C2189 1.495 . S
C2193 H2199 0.959 . S
C2193 H2200 0.961 . S
C2193 H2201 0.960 . S
C2194 C2192 1.381 . S
C2194 C2195 1.394 . S
C2194 H2202 0.930 . S
C2195 C2194 1.394 . S
C2195 C2196 1.383 1_554 S
C2195 H2203 0.929 . S
C2196 C2195 1.383 1_556 S
C2196 C2197 1.377 . S
C2197 H2181 0.930 . S
C2197 C2196 1.377 . S
C2197 C2198 1.379 1_556 S
C2198 H2182 0.931 . S
C2198 C2192 1.383 . S
C2198 C2197 1.379 1_554 S
H2199 C2193 0.959 . S
H2200 C2193 0.961 . S
H2201 C2193 0.960 . S
H2202 C2194 0.930 . S
H2203 C2195 0.929 . S
H2204 C2212 0.929 . S
H2205 C2214 0.930 . S
H2206 C2216 0.930 . S
H2207 C2219 0.929 . S
H2208 C2222 0.930 . S
H2209 C2224 0.960 . S
H2210 C2224 0.960 . S
H2211 C2224 0.960 1_565 S
C2212 H2204 0.929 . S
C2212 C2213 1.377 . S
C2212 C2214 1.384 . S
C2213 C2212 1.377 . S
C2213 C2219 1.390 . S
C2214 H2205 0.930 . S
C2214 C2212 1.384 . S
C2214 C2215 1.372 . S
C2215 C2214 1.372 . S
C2215 C2216 1.400 . S
C2215 C2220 1.490 . S
C2216 H2206 0.930 . S
C2216 C2215 1.400 . S
C2216 C2219 1.386 . S
H2217 C2233 0.930 . S
H2218 C2234 0.931 1_565 S
C2219 H2207 0.929 . S
C2219 C2213 1.390 . S
C2219 C2216 1.386 . S
C2220 C2215 1.490 . S
C2220 C2222 1.395 . S
C2220 C2223 1.403 . S
H2221 C2227 0.930 1_545 S
C2222 H2208 0.930 . S
C2222 C2220 1.395 . S
C2222 C2225 1.403 . S
C2223 C2220 1.403 . S
C2223 C2224 1.524 1_565 S
C2223 C2227 1.400 . S
C2224 H2209 0.960 . S
C2224 H2210 0.960 . S
C2224 H2211 0.960 1_545 S
C2224 C2223 1.524 1_545 S
C2225 C2222 1.403 . S
C2225 C2226 1.392 . S
C2225 C2229 1.495 . S
C2226 C2225 1.392 . S
C2226 C2227 1.385 . S
C2226 C2228 1.478 . S
C2227 H2221 0.930 1_565 S
C2227 C2223 1.400 . S
C2227 C2226 1.385 . S
C2228 C2226 1.478 . S
C2228 C2230 1.381 . S
C2228 C2234 1.383 1_565 S
C2229 C2225 1.495 . S
C2229 H2235 0.959 . S
C2229 H2236 0.961 . S
C2229 H2237 0.960 . S
C2230 C2228 1.381 . S
C2230 C2231 1.394 1_565 S
C2230 H2238 0.930 . S
C2231 C2230 1.394 1_545 S
C2231 C2232 1.383 . S
C2231 H2239 0.929 . S
C2232 C2231 1.383 . S
C2232 C2233 1.377 . S
C2233 H2217 0.930 . S
C2233 C2232 1.377 . S
C2233 C2234 1.379 . S
C2234 H2218 0.931 1_545 S
C2234 C2228 1.383 1_545 S
C2234 C2233 1.379 . S
H2235 C2229 0.959 . S
H2236 C2229 0.961 . S
H2237 C2229 0.960 . S
H2238 C2230 0.930 . S
H2239 C2231 0.929 . S
C521 C29 0.909 . S
C540 C349 0.931 . S
C557 C36 0.899 . S
C576 C381 0.928 . S
C593 C93 0.908 . S
C612 C285 0.896 . S
C629 C292 0.899 . S
C648 C125 0.926 . S
C665 C157 0.910 . S
C684 C452 0.904 . S
C701 C509 0.906 . S
C720 C164 0.922 . S
C737 C413 0.910 . S
C756 C221 0.891 . S
C773 C253 0.904 . S
C792 C420 0.901 . S
C809 C6 2.797 . S
C828 C134 2.793 . S
C845 C34 2.800 . S
C864 C418 2.803 . S
C881 C70 2.800 . S
C900 C198 2.793 . S
C917 C102 2.798 . S
C936 C486 2.786 . S
C953 C162 2.797 . S
C972 C290 2.797 . S
C989 C358 2.798 . S
C1008 C230 2.785 . S
C1025 C390 2.797 . S
C1044 C262 2.787 . S
C1061 C326 2.798 . S
C1080 C450 2.799 . S
C1097 C4 1.963 . S
C1116 C226 1.965 . S
C1133 C61 1.964 . S
C1152 C386 1.967 . S
C1169 C68 1.962 . S
C1188 C166 1.954 . S
C1205 C100 1.963 . S
C1224 C454 1.963 . S
C1241 C98 1.966 . S
C1260 C132 1.971 . S
C1277 C189 1.966 . S
C1296 C258 1.959 . S
C1313 C196 1.962 . S
C1332 C38 1.972 . S
C1349 C322 1.966 . S
C1368 C228 1.969 . S
C1385 C260 1.963 . S
C1404 C482 1.958 1_565 S
C1421 C130 1.968 . S
C1440 C317 1.956 . S
C1457 C422 1.968 1_545 S
C1476 C324 1.959 . S
C1493 C194 1.969 . S
C1512 C356 1.964 . S
C1529 C388 1.966 . S
C1548 C354 1.958 1_545 S
C1565 C445 1.962 . S
C1584 C2 1.963 . S
C1601 C294 1.966 1_565 S
C1620 C477 1.967 . S
C1637 C484 1.963 . S
C1656 C66 1.959 . S
C1673 N13 0.860 . S
C1692 N301 0.870 . S
C1709 N338 0.876 . S
C1728 N50 0.842 . S
C1745 N77 0.863 . S
C1764 N370 0.855 . S
C1781 N274 0.870 . S
C1800 N109 0.828 . S
C1817 N429 0.873 . S
C1836 N141 0.827 . S
C1853 N461 0.874 . S
C1872 N178 0.914 . S
C1889 N498 0.882 . S
C1908 N205 0.824 . S
C1925 N402 0.880 . S
C1944 N237 0.904 . S
C1961 N45 0.882 . S
C1980 N269 0.909 . S
C1997 N82 0.872 . S
C2016 N306 0.819 . S
C2033 N114 0.884 . S
C2052 N333 0.913 . S
C2069 N365 0.864 . S
C2088 N18 0.859 . S
C2105 N173 0.884 . S
C2124 N397 0.845 . S
C2141 N210 0.875 . S
C2160 N434 0.817 . S
C2177 N242 0.870 . S
C2196 N466 0.860 . S
C2213 N146 0.879 . S
C2232 N493 0.813 . S
