# Generated by pormake.
# Topology unv, (4)-cn, num edge types: 1
# Building blocks:
#     Node 0, Type 0, BuildingBlock: TATPOV_clean_sbu_0, # of connection points: 4
#     Node 1, Type 0, BuildingBlock: TATPOV_clean_sbu_0, # of connection points: 4
#     Node 2, Type 0, BuildingBlock: TATPOV_clean_sbu_0, # of connection points: 4
#     Node 3, Type 0, BuildingBlock: TATPOV_clean_sbu_0, # of connection points: 4
#     Node 4, Type 0, BuildingBlock: TATPOV_clean_sbu_0, # of connection points: 4
#     Node 5, Type 0, BuildingBlock: TATPOV_clean_sbu_0, # of connection points: 4
#     Node 6, Type 0, BuildingBlock: TATPOV_clean_sbu_0, # of connection points: 4
#     Node 7, Type 0, BuildingBlock: TATPOV_clean_sbu_0, # of connection points: 4
#     Node 8, Type 0, BuildingBlock: TATPOV_clean_sbu_0, # of connection points: 4
#     Node 9, Type 0, BuildingBlock: TATPOV_clean_sbu_0, # of connection points: 4
#     Node 10, Type 0, BuildingBlock: TATPOV_clean_sbu_0, # of connection points: 4
#     Node 11, Type 0, BuildingBlock: TATPOV_clean_sbu_0, # of connection points: 4
#     Node 12, Type 0, BuildingBlock: TATPOV_clean_sbu_0, # of connection points: 4
#     Node 13, Type 0, BuildingBlock: TATPOV_clean_sbu_0, # of connection points: 4
#     Node 14, Type 0, BuildingBlock: TATPOV_clean_sbu_0, # of connection points: 4
#     Node 15, Type 0, BuildingBlock: TATPOV_clean_sbu_0, # of connection points: 4
#     Node 16, Type 0, BuildingBlock: TATPOV_clean_sbu_0, # of connection points: 4
#     Node 17, Type 0, BuildingBlock: TATPOV_clean_sbu_0, # of connection points: 4
#     Node 18, Type 0, BuildingBlock: TATPOV_clean_sbu_0, # of connection points: 4
#     Node 19, Type 0, BuildingBlock: TATPOV_clean_sbu_0, # of connection points: 4
#     Node 20, Type 0, BuildingBlock: TATPOV_clean_sbu_0, # of connection points: 4
#     Node 21, Type 0, BuildingBlock: TATPOV_clean_sbu_0, # of connection points: 4
#     Node 22, Type 0, BuildingBlock: TATPOV_clean_sbu_0, # of connection points: 4
#     Node 23, Type 0, BuildingBlock: TATPOV_clean_sbu_0, # of connection points: 4
#     Edge 24, Type (0, 0), BuildingBlock: AJUNOK_clean_linker_0, # of connection points: 2
#     Edge 25, Type (0, 0), BuildingBlock: AJUNOK_clean_linker_0, # of connection points: 2
#     Edge 26, Type (0, 0), BuildingBlock: AJUNOK_clean_linker_0, # of connection points: 2
#     Edge 27, Type (0, 0), BuildingBlock: AJUNOK_clean_linker_0, # of connection points: 2
#     Edge 28, Type (0, 0), BuildingBlock: AJUNOK_clean_linker_0, # of connection points: 2
#     Edge 29, Type (0, 0), BuildingBlock: AJUNOK_clean_linker_0, # of connection points: 2
#     Edge 30, Type (0, 0), BuildingBlock: AJUNOK_clean_linker_0, # of connection points: 2
#     Edge 31, Type (0, 0), BuildingBlock: AJUNOK_clean_linker_0, # of connection points: 2
#     Edge 32, Type (0, 0), BuildingBlock: AJUNOK_clean_linker_0, # of connection points: 2
#     Edge 33, Type (0, 0), BuildingBlock: AJUNOK_clean_linker_0, # of connection points: 2
#     Edge 34, Type (0, 0), BuildingBlock: AJUNOK_clean_linker_0, # of connection points: 2
#     Edge 35, Type (0, 0), BuildingBlock: AJUNOK_clean_linker_0, # of connection points: 2
#     Edge 36, Type (0, 0), BuildingBlock: AJUNOK_clean_linker_0, # of connection points: 2
#     Edge 37, Type (0, 0), BuildingBlock: AJUNOK_clean_linker_0, # of connection points: 2
#     Edge 38, Type (0, 0), BuildingBlock: AJUNOK_clean_linker_0, # of connection points: 2
#     Edge 39, Type (0, 0), BuildingBlock: AJUNOK_clean_linker_0, # of connection points: 2
#     Edge 40, Type (0, 0), BuildingBlock: AJUNOK_clean_linker_0, # of connection points: 2
#     Edge 41, Type (0, 0), BuildingBlock: AJUNOK_clean_linker_0, # of connection points: 2
#     Edge 42, Type (0, 0), BuildingBlock: AJUNOK_clean_linker_0, # of connection points: 2
#     Edge 43, Type (0, 0), BuildingBlock: AJUNOK_clean_linker_0, # of connection points: 2
#     Edge 44, Type (0, 0), BuildingBlock: AJUNOK_clean_linker_0, # of connection points: 2
#     Edge 45, Type (0, 0), BuildingBlock: AJUNOK_clean_linker_0, # of connection points: 2
#     Edge 46, Type (0, 0), BuildingBlock: AJUNOK_clean_linker_0, # of connection points: 2
#     Edge 47, Type (0, 0), BuildingBlock: AJUNOK_clean_linker_0, # of connection points: 2
#     Edge 48, Type (0, 0), BuildingBlock: AJUNOK_clean_linker_0, # of connection points: 2
#     Edge 49, Type (0, 0), BuildingBlock: AJUNOK_clean_linker_0, # of connection points: 2
#     Edge 50, Type (0, 0), BuildingBlock: AJUNOK_clean_linker_0, # of connection points: 2
#     Edge 51, Type (0, 0), BuildingBlock: AJUNOK_clean_linker_0, # of connection points: 2
#     Edge 52, Type (0, 0), BuildingBlock: AJUNOK_clean_linker_0, # of connection points: 2
#     Edge 53, Type (0, 0), BuildingBlock: AJUNOK_clean_linker_0, # of connection points: 2
#     Edge 54, Type (0, 0), BuildingBlock: AJUNOK_clean_linker_0, # of connection points: 2
#     Edge 55, Type (0, 0), BuildingBlock: AJUNOK_clean_linker_0, # of connection points: 2
#     Edge 56, Type (0, 0), BuildingBlock: AJUNOK_clean_linker_0, # of connection points: 2
#     Edge 57, Type (0, 0), BuildingBlock: AJUNOK_clean_linker_0, # of connection points: 2
#     Edge 58, Type (0, 0), BuildingBlock: AJUNOK_clean_linker_0, # of connection points: 2
#     Edge 59, Type (0, 0), BuildingBlock: AJUNOK_clean_linker_0, # of connection points: 2
#     Edge 60, Type (0, 0), BuildingBlock: AJUNOK_clean_linker_0, # of connection points: 2
#     Edge 61, Type (0, 0), BuildingBlock: AJUNOK_clean_linker_0, # of connection points: 2
#     Edge 62, Type (0, 0), BuildingBlock: AJUNOK_clean_linker_0, # of connection points: 2
#     Edge 63, Type (0, 0), BuildingBlock: AJUNOK_clean_linker_0, # of connection points: 2
#     Edge 64, Type (0, 0), BuildingBlock: AJUNOK_clean_linker_0, # of connection points: 2
#     Edge 65, Type (0, 0), BuildingBlock: AJUNOK_clean_linker_0, # of connection points: 2
#     Edge 66, Type (0, 0), BuildingBlock: AJUNOK_clean_linker_0, # of connection points: 2
#     Edge 67, Type (0, 0), BuildingBlock: AJUNOK_clean_linker_0, # of connection points: 2
#     Edge 68, Type (0, 0), BuildingBlock: AJUNOK_clean_linker_0, # of connection points: 2
#     Edge 69, Type (0, 0), BuildingBlock: AJUNOK_clean_linker_0, # of connection points: 2
#     Edge 70, Type (0, 0), BuildingBlock: AJUNOK_clean_linker_0, # of connection points: 2
#     Edge 71, Type (0, 0), BuildingBlock: AJUNOK_clean_linker_0, # of connection points: 2
# Relax obj value: 0.298
# Max RMSD: 0.272
# Mean RMSD: 0.270
data_MOF--net-unv--node1-TATPOV_clean_sbu_0--edge1-AJUNOK_clean_linker_0
_symmetry_space_group_name_H-M    P1
_symmetry_Int_Tables_number       1
_symmetry_cell_setting            triclinic
loop_
_symmetry_equiv_pos_as_xyz
'x, y, z'
_cell_length_a     35.686306
_cell_length_b     35.343239
_cell_length_c     35.82835
_cell_angle_alpha  90.05282
_cell_angle_beta   89.940881
_cell_angle_gamma 90.203258
loop_
_atom_site_label
_atom_site_type_symbol
_atom_site_fract_x
_atom_site_fract_y
_atom_site_fract_z
_atom_type_partial_charge
Zn0 Zn 0.95994 0.04558 0.39813 0.0
Zn1 Zn 0.99951 0.10142 0.38862 0.0
O2 O 0.038 0.07464 0.42113 0.0
O3 O 0.99433 0.03638 0.44334 0.0
O4 O 0.01649 0.15614 0.37884 0.0
O5 O 0.97127 0.01761 0.35256 0.0
O6 O 0.99937 0.07094 0.33745 0.0
C7 C 0.02753 0.04944 0.4444 0.0
C8 C 0.92035 0.09659 0.42576 0.0
O9 O 0.95409 0.10855 0.42494 0.0
O10 O 0.91074 0.07341 0.40079 0.0
C11 C 0.02564 0.17645 0.40684 0.0
O12 O 0.02617 0.16049 0.43994 0.0
C13 C 0.9892 0.0371 0.32908 0.0
Zn14 Zn 0.91936 0.43981 0.37105 0.0
Zn15 Zn 0.9818 0.40681 0.37702 0.0
O16 O 0.94207 0.38849 0.41471 0.0
O17 O 0.88505 0.40748 0.40331 0.0
O18 O 0.01307 0.35871 0.37172 0.0
O19 O 0.91576 0.44783 0.31566 0.0
O20 O 0.97305 0.42703 0.32372 0.0
C21 C 0.90736 0.38826 0.42304 0.0
C22 C 0.98627 0.48151 0.40625 0.0
O23 O 0.00703 0.45245 0.40169 0.0
O24 O 0.95202 0.48015 0.39653 0.0
C25 C 0.02345 0.34136 0.40106 0.0
O26 O 0.02028 0.35886 0.43325 0.0
C27 C 0.94846 0.44259 0.30301 0.0
Zn28 Zn 0.05655 0.94262 0.12783 0.0
Zn29 Zn 0.0028 0.90267 0.13007 0.0
O30 O 0.04026 0.89184 0.0861 0.0
O31 O 0.09583 0.91198 0.10186 0.0
O32 O 0.98005 0.85045 0.13942 0.0
O33 O 0.06391 0.96276 0.17843 0.0
O34 O 0.01152 0.9303 0.18184 0.0
C35 C 0.07509 0.89504 0.07865 0.0
C36 C 0.98379 0.96718 0.09067 0.0
O37 O 0.96725 0.93855 0.10475 0.0
O38 O 0.01878 0.97225 0.09553 0.0
C39 C 0.96883 0.83172 0.11114 0.0
O40 O 0.96777 0.84898 0.07869 0.0
C41 C 0.03503 0.95341 0.19656 0.0
Zn42 Zn 0.06288 0.53131 0.11741 0.0
Zn43 Zn 0.00769 0.59653 0.12247 0.0
O44 O 0.98242 0.56748 0.08046 0.0
O45 O 0.02575 0.52269 0.07425 0.0
O46 O 0.98022 0.64596 0.13284 0.0
O47 O 0.04036 0.51229 0.16401 0.0
O48 O 0.00217 0.56132 0.16976 0.0
C49 C 0.9951 0.53798 0.06428 0.0
C50 C 0.08636 0.59878 0.0961 0.0
O51 O 0.05656 0.61774 0.09962 0.0
O52 O 0.09443 0.5784 0.1237 0.0
C53 C 0.97403 0.66738 0.10498 0.0
O54 O 0.98068 0.65405 0.07137 0.0
C55 C 0.01449 0.52932 0.18136 0.0
Zn56 Zn 0.4119 0.97016 0.03207 0.0
Zn57 Zn 0.37366 0.98006 0.09192 0.0
O58 O 0.42823 1.00076 0.09944 0.0
O59 O 0.45952 0.99512 0.04703 0.0
O60 O 0.35436 0.98014 0.14568 0.0
O61 O 0.36923 0.99943 0.00667 0.0
O62 O 0.342 0.01553 0.05954 0.0
C63 C 0.45829 1.00561 0.08069 0.0
C64 C 0.37697 0.904 0.04904 0.0
O65 O 0.36024 0.9271 0.07064 0.0
O66 O 0.4083 0.91358 0.03549 0.0
C67 C 0.3765 0.96432 0.1687 0.0
O68 O 0.40739 0.94877 0.1561 0.0
C69 C 0.34335 0.01683 0.02388 0.0
Zn70 Zn 0.62988 0.48119 0.04574 0.0
Zn71 Zn 0.6487 0.49726 0.10383 0.0
O72 O 0.59926 0.46609 0.11014 0.0
O73 O 0.57521 0.48513 0.05746 0.0
O74 O 0.66399 0.50786 0.15792 0.0
O75 O 0.65549 0.43099 0.04251 0.0
O76 O 0.69179 0.4674 0.07637 0.0
C77 C 0.57084 0.47001 0.08904 0.0
C78 C 0.65039 0.55446 0.04387 0.0
O79 O 0.6399 0.54973 0.07763 0.0
O80 O 0.65676 0.52562 0.02413 0.0
C81 C 0.6382 0.52171 0.17836 0.0
O82 O 0.60598 0.52987 0.16263 0.0
C83 C 0.68791 0.43931 0.05404 0.0
Zn84 Zn 0.41068 0.88416 0.45262 0.0
Zn85 Zn 0.37715 0.9192 0.39814 0.0
O86 O 0.42623 0.89354 0.37984 0.0
O87 O 0.44826 0.85525 0.42226 0.0
O88 O 0.35595 0.9357 0.34785 0.0
O89 O 0.36449 0.85989 0.47276 0.0
O90 O 0.33526 0.89147 0.42859 0.0
C91 C 0.45065 0.86938 0.38994 0.0
C92 C 0.41016 0.96824 0.45631 0.0
O93 O 0.39013 0.96734 0.42697 0.0
O94 O 0.42266 0.93794 0.47053 0.0
C95 C 0.37732 0.95844 0.33019 0.0
O96 O 0.40715 0.97141 0.3475 0.0
C97 C 0.33431 0.87007 0.45741 0.0
Zn98 Zn 0.66797 0.55017 0.48552 0.0
Zn99 Zn 0.6712 0.54137 0.41687 0.0
O100 O 0.62969 0.5834 0.42399 0.0
O101 O 0.62631 0.58715 0.48514 0.0
O102 O 0.67621 0.53704 0.36007 0.0
O103 O 0.719 0.56817 0.49508 0.0
O104 O 0.72703 0.54942 0.43719 0.0
C105 C 0.61455 0.59707 0.4534 0.0
C106 C 0.64586 0.47573 0.46525 0.0
O107 O 0.64808 0.49006 0.43267 0.0
O108 O 0.6562 0.4951 0.49316 0.0
C109 C 0.64606 0.5348 0.34119 0.0
O110 O 0.61396 0.53515 0.3592 0.0
C111 C 0.74078 0.5611 0.46824 0.0
Zn112 Zn 0.02585 0.44478 0.93948 0.0
Zn113 Zn 0.08356 0.40703 0.96346 0.0
O114 O 0.08799 0.46341 0.97851 0.0
O115 O 0.03858 0.49546 0.96147 0.0
O116 O 0.13627 0.3887 0.97492 0.0
O117 O 0.99694 0.4038 0.96891 0.0
O118 O 0.04637 0.37959 0.99694 0.0
C119 C 0.07016 0.49452 0.97733 0.0
C120 C 0.05082 0.40002 0.88359 0.0
O121 O 0.06917 0.38702 0.91121 0.0
O122 O 0.03838 0.43344 0.88579 0.0
C123 C 0.16158 0.41095 0.96271 0.0
O124 O 0.15158 0.43924 0.9412 0.0
C125 C 0.01099 0.38041 0.99187 0.0
Zn126 Zn 0.03468 0.68784 0.513 0.0
Zn127 Zn 0.09542 0.68675 0.48366 0.0
O128 O 0.07097 0.64443 0.45089 0.0
O129 O 0.02347 0.63791 0.48957 0.0
O130 O 0.1503 0.69132 0.46802 0.0
O131 O 0.01359 0.73353 0.48995 0.0
O132 O 0.07329 0.74252 0.47798 0.0
C133 C 0.04197 0.62614 0.46179 0.0
C134 C 0.07809 0.66375 0.56557 0.0
O135 O 0.09722 0.66115 0.53559 0.0
O136 O 0.0519 0.68773 0.56642 0.0
C137 C 0.17018 0.66218 0.46167 0.0
O138 O 0.15434 0.62866 0.46428 0.0
C139 C 0.03958 0.75489 0.47866 0.0
Zn140 Zn 0.96402 0.95327 0.56872 0.0
Zn141 Zn 0.90385 0.91868 0.54522 0.0
O142 O 0.89499 0.9764 0.53956 0.0
O143 O 0.94728 1.00527 0.55442 0.0
O144 O 0.85327 0.89806 0.52993 0.0
O145 O 0.99202 0.9178 0.53245 0.0
O146 O 0.93986 0.89738 0.50661 0.0
C147 C 0.91389 0.00691 0.54288 0.0
C148 C 0.94242 0.90103 0.62034 0.0
O149 O 0.92068 0.89178 0.59357 0.0
O150 O 0.95544 0.93437 0.62103 0.0
C151 C 0.82435 0.90242 0.55019 0.0
O152 O 0.82831 0.91725 0.5836 0.0
C153 C 0.97553 0.89723 0.50838 0.0
Zn154 Zn 0.43083 0.7 0.55265 0.0
Zn155 Zn 0.39947 0.69422 0.49132 0.0
O156 O 0.38376 0.65146 0.52808 0.0
O157 O 0.40291 0.66223 0.58487 0.0
O158 O 0.35118 0.69887 0.46128 0.0
O159 O 0.43033 0.75621 0.56193 0.0
O160 O 0.41756 0.74968 0.50248 0.0
C161 C 0.38504 0.64152 0.56221 0.0
C162 C 0.47448 0.67043 0.48399 0.0
O163 O 0.44464 0.67213 0.46437 0.0
O164 O 0.47364 0.68025 0.51825 0.0
C165 C 0.33341 0.66853 0.45361 0.0
O166 O 0.35096 0.63616 0.45751 0.0
C167 C 0.42759 0.77064 0.5298 0.0
Zn168 Zn 0.57779 0.5682 0.85899 0.0
Zn169 Zn 0.53019 0.61757 0.86413 0.0
O170 O 0.57001 0.62302 0.90715 0.0
O171 O 0.61611 0.58405 0.896 0.0
O172 O 0.51023 0.67164 0.8601 0.0
O173 O 0.59074 0.56591 0.8054 0.0
O174 O 0.53743 0.59649 0.80914 0.0
C175 C 0.60198 0.60976 0.91591 0.0
C176 C 0.49877 0.54672 0.88326 0.0
O177 O 0.4905 0.58175 0.88392 0.0
O178 O 0.53165 0.5362 0.87432 0.0
C179 C 0.50705 0.68998 0.89058 0.0
O180 O 0.51189 0.67173 0.92211 0.0
C181 C 0.56123 0.57761 0.78995 0.0
Zn182 Zn 0.37621 0.95905 0.8776 0.0
Zn183 Zn 0.4337 0.9168 0.87294 0.0
O184 O 0.39147 0.89298 0.90442 0.0
O185 O 0.33819 0.92262 0.89986 0.0
O186 O 0.46511 0.86978 0.86392 0.0
O187 O 0.37546 0.9779 0.82492 0.0
O188 O 0.42692 0.94404 0.82205 0.0
C189 C 0.35692 0.8954 0.91295 0.0
C190 C 0.44517 0.98326 0.91992 0.0
O191 O 0.46161 0.95432 0.90642 0.0
O192 O 0.41085 0.98889 0.9125 0.0
C193 C 0.47476 0.85203 0.89326 0.0
O194 O 0.46853 0.8681 0.92575 0.0
C195 C 0.4044 0.96774 0.80723 0.0
Zn196 Zn 0.5037 0.4954 0.58126 0.0
Zn197 Zn 0.47705 0.43777 0.60912 0.0
O198 O 0.51438 0.42243 0.56561 0.0
O199 O 0.5248 0.47515 0.53508 0.0
O200 O 0.46247 0.38415 0.62665 0.0
O201 O 0.53551 0.50952 0.62501 0.0
O202 O 0.50117 0.46686 0.65417 0.0
C203 C 0.52828 0.43979 0.53757 0.0
C204 C 0.42551 0.50166 0.58526 0.0
O205 O 0.42732 0.46723 0.59613 0.0
O206 O 0.45501 0.51994 0.57792 0.0
C207 C 0.45008 0.36231 0.60107 0.0
O208 O 0.44367 0.37707 0.56804 0.0
C209 C 0.5245 0.49447 0.65509 0.0
Zn210 Zn 0.51452 0.06454 0.62464 0.0
Zn211 Zn 0.47505 0.1209 0.6272 0.0
O212 O 0.44588 0.09734 0.58356 0.0
O213 O 0.49449 0.061 0.57132 0.0
O214 O 0.45885 0.17628 0.63508 0.0
O215 O 0.48923 0.03411 0.66206 0.0
O216 O 0.46127 0.08775 0.67534 0.0
C217 C 0.4628 0.07423 0.56196 0.0
C218 C 0.56048 0.1129 0.61068 0.0
O219 O 0.52839 0.1268 0.6035 0.0
O220 O 0.56258 0.0916 0.63878 0.0
C221 C 0.45552 0.19688 0.60608 0.0
O222 O 0.45965 0.18086 0.57322 0.0
C223 C 0.4673 0.0527 0.6826 0.0
Zn224 Zn 0.95775 0.48824 0.53958 0.0
Zn225 Zn 0.92053 0.50082 0.59859 0.0
O226 O 0.97305 0.52691 0.60406 0.0
O227 O 0.00318 0.51848 0.55138 0.0
O228 O 0.90272 0.50261 0.65243 0.0
O229 O 0.91184 0.51171 0.51327 0.0
O230 O 0.88633 0.53232 0.56552 0.0
C231 C 0.00211 0.53219 0.58391 0.0
C232 C 0.92834 0.4221 0.56046 0.0
O233 O 0.90988 0.44598 0.57973 0.0
O234 O 0.95967 0.43212 0.54733 0.0
C235 C 0.8735 0.48862 0.6675 0.0
O236 O 0.84876 0.47121 0.64641 0.0
C237 C 0.88603 0.52979 0.52994 0.0
Zn238 Zn 0.12344 0.8624 0.54578 0.0
Zn239 Zn 0.14554 0.90802 0.59855 0.0
O240 O 0.10131 0.87592 0.6184 0.0
O241 O 0.08405 0.8349 0.57615 0.0
O242 O 0.16197 0.93339 0.64697 0.0
O243 O 0.17353 0.84008 0.53476 0.0
O244 O 0.19265 0.88702 0.57054 0.0
C245 C 0.07936 0.84947 0.60802 0.0
C246 C 0.11103 0.94472 0.53307 0.0
O247 O 0.12338 0.94933 0.56607 0.0
O248 O 0.11 0.91194 0.51858 0.0
C249 C 0.13566 0.952 0.6624 0.0
O250 O 0.10399 0.95569 0.64408 0.0
C251 C 0.19979 0.86041 0.5474 0.0
Zn252 Zn 0.87404 0.37253 0.93671 0.0
Zn253 Zn 0.86411 0.42984 0.89568 0.0
O254 O 0.90174 0.39144 0.87421 0.0
O255 O 0.90287 0.33704 0.90282 0.0
O256 O 0.8487 0.4572 0.84834 0.0
O257 O 0.82169 0.36342 0.95515 0.0
O258 O 0.81717 0.41929 0.9286 0.0
C259 C 0.91484 0.35809 0.87688 0.0
C260 C 0.90859 0.449 0.95858 0.0
O261 O 0.89516 0.46354 0.92897 0.0
O262 O 0.90326 0.41406 0.96534 0.0
C263 C 0.87552 0.47088 0.8291 0.0
O264 O 0.90925 0.47125 0.84379 0.0
C265 C 0.80374 0.39378 0.9501 0.0
Zn266 Zn 0.12699 0.04802 0.95562 0.0
Zn267 Zn 0.146 0.01747 0.8936 0.0
O268 O 0.10143 0.05521 0.88291 0.0
O269 O 0.08999 0.08437 0.93592 0.0
O270 O 0.1595 1.00077 0.8407 0.0
O271 O 0.17818 0.06412 0.9705 0.0
O272 O 0.19624 0.03546 0.9191 0.0
C273 C 0.08309 0.0796 0.90171 0.0
C274 C 0.11466 0.96679 0.95292 0.0
O275 O 0.12893 0.96868 0.92039 0.0
O276 O 0.11008 0.99642 0.97225 0.0
C277 C 0.13149 0.99265 0.82018 0.0
O278 O 0.09784 0.99361 0.83507 0.0
C279 C 0.20432 0.05265 0.94959 0.0
Zn280 Zn 0.5418 0.9671 0.45379 0.0
Zn281 Zn 0.5988 0.93041 0.4798 0.0
O282 O 0.60402 0.9864 0.49767 0.0
O283 O 0.55561 0.01706 0.47571 0.0
O284 O 0.64685 0.90835 0.50023 0.0
O285 O 0.50733 0.92854 0.48029 0.0
O286 O 0.55657 0.90018 0.50445 0.0
C287 C 0.58565 0.0171 0.49428 0.0
C288 C 0.57589 0.92604 0.3969 0.0
O289 O 0.59517 0.91418 0.42448 0.0
O290 O 0.55647 0.95567 0.40095 0.0
C291 C 0.67712 0.9086 0.48149 0.0
O292 O 0.67625 0.9204 0.44674 0.0
C293 C 0.52119 0.9021 0.49976 0.0
Zn294 Zn 0.50384 0.14227 0.0858 0.0
Zn295 Zn 0.59729 0.1335 0.03877 0.0
O296 O 0.55958 0.09842 0.01117 0.0
O297 O 0.50359 0.1073 0.03909 0.0
O298 O 0.64902 0.13681 0.0144 0.0
O299 O 0.54656 0.18065 0.08552 0.0
O300 O 0.57455 0.18603 0.03233 0.0
C301 C 0.52409 0.09225 0.01379 0.0
C302 C 0.57356 0.11382 0.11039 0.0
O303 O 0.6035 0.11135 0.09155 0.0
O304 O 0.55712 0.1456 0.10851 0.0
C305 C 0.67271 0.11005 0.01282 0.0
O306 O 0.66297 0.07655 0.02551 0.0
C307 C 0.5494 0.19759 0.05448 0.0
Zn308 Zn 0.44403 0.35185 0.9639 0.0
Zn309 Zn 0.39218 0.3661 0.9988 0.0
O310 O 0.40527 0.40875 0.95907 0.0
O311 O 0.4457 0.38501 0.91976 0.0
O312 O 0.33533 0.36491 0.00087 0.0
O313 O 0.44453 0.29648 0.95617 0.0
O314 O 0.41423 0.31072 0.00726 0.0
C315 C 0.42537 0.41228 0.92976 0.0
C316 C 0.44957 0.38789 0.04258 0.0
O317 O 0.41405 0.39071 0.04347 0.0
O318 O 0.46581 0.37323 0.0143 0.0
C319 C 0.31959 0.39713 0.00196 0.0
O320 O 0.34096 0.42726 0.00547 0.0
C321 C 0.43332 0.28695 0.9882 0.0
Zn322 Zn 0.96754 0.17545 0.99675 0.0
Zn323 Zn 0.90396 0.16815 0.98451 0.0
O324 O 0.91331 0.12452 0.02248 0.0
O325 O 0.97333 0.12129 0.01021 0.0
O326 O 0.84693 0.16552 0.97841 0.0
O327 O 0.96587 0.21576 0.03533 0.0
O328 O 0.91737 0.22491 0.99933 0.0
C329 C 0.94399 0.1062 0.02318 0.0
C330 C 0.96111 0.16569 0.92305 0.0
O331 O 0.93073 0.15109 0.93543 0.0
O332 O 0.97769 0.18978 0.9433 0.0
C333 C 0.83112 0.13317 0.97649 0.0
O334 O 0.85244 0.10301 0.97432 0.0
C335 C 0.94195 0.23818 0.02196 0.0
C336 C 0.10003 0.97864 0.47314 0.0
C337 C 0.09515 0.97677 0.51206 0.0
C338 C 0.08048 1.00514 0.45163 0.0
C339 C 0.05477 0.02998 0.46827 0.0
H340 H 0.11809 0.95858 0.45907 0.0
H341 H 0.08355 1.00442 0.42154 0.0
S342 S 0.0333 0.03793 0.56908 0.0
N343 N 0.06462 1.00372 0.56658 0.0
N344 N 0.02662 0.05241 0.52575 0.0
C345 C 0.05068 0.02942 0.50719 0.0
C346 C 0.0713 1.00313 0.52924 0.0
C347 C 0.87057 0.39884 0.48095 0.0
C348 C 0.89692 0.37672 0.46153 0.0
C349 C 0.87572 0.40701 0.51897 0.0
C350 C 0.9077 0.3938 0.53797 0.0
H351 H 0.84965 0.41479 0.46583 0.0
H352 H 0.85869 0.4292 0.53109 0.0
S353 S 0.97199 0.31926 0.50447 0.0
N354 N 0.94593 0.32953 0.46777 0.0
N355 N 0.95645 0.3462 0.53884 0.0
C356 C 0.92791 0.36427 0.52134 0.0
C357 C 0.92236 0.35549 0.48288 0.0
C358 C 0.06057 0.90073 0.01111 0.0
C359 C 0.08744 0.89361 0.0391 0.0
C360 C 0.07064 0.91957 0.97813 0.0
C361 C 0.10788 0.93058 0.97176 0.0
H362 H 0.03097 0.89695 0.01678 0.0
H363 H 0.0486 0.92977 0.96001 0.0
S364 S 0.19013 0.90656 0.02978 0.0
N365 N 0.15389 0.89009 0.05357 0.0
N366 N 0.17268 0.9248 0.99111 0.0
C367 C 0.13565 0.91713 0.99598 0.0
C368 C 0.12545 0.89855 0.02984 0.0
C369 C 0.95905 0.53251 0.0043 0.0
C370 C 0.97153 0.51672 0.03798 0.0
C371 C 0.9387 0.5105 0.97852 0.0
C372 C 0.92975 0.47231 0.98602 0.0
H373 H 0.96586 0.56158 0.99749 0.0
H374 H 0.93019 0.52343 0.95249 0.0
S375 S 0.95314 0.41985 0.07297 0.0
N376 N 0.97215 0.46204 0.07872 0.0
N377 N 0.93286 0.42111 0.03165 0.0
C378 C 0.94114 0.45697 0.02054 0.0
C379 C 0.9623 0.47909 0.04616 0.0
C380 C 0.52613 0.02324 0.07998 0.0
C381 C 0.49047 0.02688 0.09644 0.0
C382 C 0.55498 0.04904 0.0879 0.0
C383 C 0.54884 0.07991 0.112 0.0
H384 H 0.53111 1.00176 0.05897 0.0
H385 H 0.58089 0.04669 0.07231 0.0
S386 S 0.46353 0.09703 0.16863 0.0
N387 N 0.4529 0.05977 0.14285 0.0
N388 N 0.50716 0.10818 0.15778 0.0
C389 C 0.51499 0.08094 0.13215 0.0
C390 C 0.48565 0.05459 0.12419 0.0
C391 C 0.5018 0.46698 0.08649 0.0
C392 C 0.53581 0.44909 0.09531 0.0
C393 C 0.4707 0.44587 0.07467 0.0
C394 C 0.47326 0.40647 0.07057 0.0
H395 H 0.50056 0.49756 0.08474 0.0
H396 H 0.44645 0.46083 0.06415 0.0
S397 S 0.55327 0.34592 0.09728 0.0
N398 N 0.56793 0.38953 0.10558 0.0
N399 N 0.50978 0.3499 0.08209 0.0
C400 C 0.50534 0.38804 0.08385 0.0
C401 C 0.53667 0.40944 0.09667 0.0
C402 C 0.55342 0.86151 0.38585 0.0
C403 C 0.56041 0.89758 0.37043 0.0
C404 C 0.51671 0.84712 0.38666 0.0
C405 C 0.48721 0.86744 0.37002 0.0
H406 H 0.57375 0.84865 0.40432 0.0
H407 H 0.5107 0.82362 0.40513 0.0
S408 S 0.49884 0.94676 0.30334 0.0
N409 N 0.54076 0.94123 0.32207 0.0
N410 N 0.47196 0.91357 0.3219 0.0
C411 C 0.49714 0.8957 0.3441 0.0
C412 C 0.53442 0.91046 0.3439 0.0
C413 C 0.54407 0.66803 0.48684 0.0
C414 C 0.51083 0.65686 0.46865 0.0
C415 C 0.57839 0.65084 0.47891 0.0
C416 C 0.58121 0.6219 0.4522 0.0
H417 H 0.54335 0.68901 0.5089 0.0
H418 H 0.60259 0.65876 0.49548 0.0
S419 S 0.50382 0.58506 0.39338 0.0
N420 N 0.48367 0.61737 0.42 0.0
N421 N 0.54863 0.585 0.405 0.0
C422 C 0.549 0.6125 0.43149 0.0
C423 C 0.51369 0.63002 0.43972 0.0
C424 C 0.06164 0.56067 0.00084 0.0
C425 C 0.08322 0.52742 0.9997 0.0
C426 C 0.06604 0.58703 0.02978 0.0
C427 C 0.09185 0.58067 0.05889 0.0
H428 H 0.03897 0.56484 0.9812 0.0
H429 H 0.04636 0.61024 0.0313 0.0
S430 S 0.16444 0.50574 0.0607 0.0
N431 N 0.1383 0.49532 0.02411 0.0
N432 N 0.14643 0.54476 0.07849 0.0
C433 C 0.11783 0.55113 0.05428 0.0
C434 C 0.11342 0.52436 0.02478 0.0
C435 C 0.03992 0.52602 0.42202 0.0
C436 C 1.00112 0.5183 0.42052 0.0
C437 C 0.05351 0.56182 0.43334 0.0
C438 C 0.0287 0.59093 0.44361 0.0
H439 H 0.0599 0.50438 0.41432 0.0
H440 H 0.08349 0.56631 0.43527 0.0
S441 S 0.92483 0.58609 0.44377 0.0
N442 N 0.93832 0.54372 0.43013 0.0
N443 N 0.96386 0.61018 0.45052 0.0
C444 C 0.99005 0.58373 0.44166 0.0
C445 C 0.97626 0.54767 0.43042 0.0
C446 C 0.87336 0.0393 0.49631 0.0
C447 C 0.90078 0.04202 0.5244 0.0
C448 C 0.87357 0.06456 0.46617 0.0
C449 C 0.90207 0.09214 0.46287 0.0
H450 H 0.8551 0.0148 0.49472 0.0
H451 H 0.85566 0.05807 0.44259 0.0
S452 S 0.96474 0.12353 0.53936 0.0
N453 N 0.94544 0.084 0.55495 0.0
N454 N 0.94631 0.13095 0.49774 0.0
C455 C 0.92241 0.10103 0.49535 0.0
C456 C 0.92206 0.07556 0.5262 0.0
C457 C 0.37068 0.57477 0.54384 0.0
C458 C 0.37506 0.60187 0.57249 0.0
C459 C 0.37854 0.53641 0.55025 0.0
C460 C 0.39098 0.52413 0.58538 0.0
H461 H 0.36616 0.58362 0.51528 0.0
H462 H 0.38109 0.51784 0.5263 0.0
S463 S 0.39175 0.58058 0.6724 0.0
N464 N 0.3811 0.61141 0.63948 0.0
N465 N 0.39551 0.53924 0.65118 0.0
C466 C 0.38702 0.5492 0.61556 0.0
C467 C 0.37962 0.58837 0.60913 0.0
C468 C 0.60731 0.60234 0.01926 0.0
C469 C 0.6445 0.58988 0.02314 0.0
C470 C 0.59422 0.61549 0.98463 0.0
C471 C 0.61814 0.61646 0.95334 0.0
H472 H 0.58691 0.59611 0.04085 0.0
H473 H 0.56433 0.61949 0.98119 0.0
S474 S 0.72061 0.60061 0.95372 0.0
N475 N 0.70699 0.58998 0.99654 0.0
N476 N 0.68251 0.61441 0.93148 0.0
C477 C 0.65667 0.61139 0.95922 0.0
C478 C 0.66992 0.59841 0.99441 0.0
C479 C 0.32229 0.89507 0.00903 0.0
C480 C 0.35421 0.87846 0.02534 0.0
C481 C 0.31758 0.89432 0.97012 0.0
C482 C 0.34398 0.87578 0.94734 0.0
H483 H 0.30565 0.91514 0.02476 0.0
H484 H 0.2974 0.91355 0.95799 0.0
S485 S 0.41566 0.80799 0.98013 0.0
N486 N 0.40062 0.829 0.01853 0.0
N487 N 0.39072 0.82582 0.94556 0.0
C488 C 0.3679 0.84959 0.96477 0.0
C489 C 0.37308 0.85105 0.0042 0.0
C490 C 0.55359 0.43243 0.47442 0.0
C491 C 0.55566 0.42221 0.51232 0.0
C492 C 0.58605 0.44256 0.45466 0.0
C493 C 0.62099 0.44311 0.47277 0.0
H494 H 0.52666 0.43894 0.46209 0.0
H495 H 0.58266 0.45627 0.42784 0.0
S496 S 0.64205 0.40247 0.56557 0.0
N497 N 0.59589 0.40054 0.56238 0.0
N498 N 0.657 0.41999 0.52546 0.0
C499 C 0.62395 0.42421 0.50716 0.0
C500 C 0.59096 0.41354 0.52705 0.0
C501 C 0.4681 0.04502 0.49934 0.0
C502 C 0.44486 0.05779 0.52846 0.0
C503 C 0.45543 0.01833 0.47335 0.0
C504 C 0.41879 1.00408 0.47521 0.0
H505 H 0.4972 0.05354 0.49848 0.0
H506 H 0.47516 0.00679 0.45337 0.0
S507 S 0.34512 0.03197 0.54256 0.0
N508 N 0.38218 0.0571 0.5551 0.0
N509 N 0.35813 0.00714 0.50567 0.0
C510 C 0.39411 0.01919 0.50182 0.0
C511 C 0.40713 0.04628 0.52853 0.0
C512 C 0.04124 0.62637 0.61179 0.0
C513 C 0.0727 0.6286 0.58793 0.0
C514 C 0.02047 0.5927 0.61487 0.0
C515 C 0.03103 0.56026 0.59476 0.0
H516 H 0.02933 0.65187 0.62362 0.0
H517 H 0.99371 0.59363 0.62915 0.0
S518 S 0.1202 0.54691 0.54338 0.0
N519 N 0.12038 0.59205 0.55534 0.0
N520 N 0.08101 0.52908 0.56061 0.0
C521 C 0.06649 0.56011 0.57769 0.0
C522 C 0.08778 0.59422 0.57487 0.0
C523 C 0.97581 0.84034 0.61181 0.0
C524 C 0.96774 0.87133 0.63532 0.0
C525 C 0.01279 0.82774 0.60735 0.0
C526 C 0.0424 0.84516 0.62697 0.0
H527 H 0.95514 0.83021 0.59201 0.0
H528 H 0.01859 0.80833 0.58464 0.0
S529 S 0.03166 0.91146 0.70654 0.0
N530 N 0.98909 0.90757 0.68886 0.0
N531 N 0.05849 0.88321 0.68138 0.0
C532 C 0.03282 0.86856 0.65734 0.0
C533 C 0.99522 0.8816 0.66157 0.0
C534 C 0.00345 0.38862 0.83443 0.0
C535 C 0.02787 0.37305 0.86116 0.0
C536 C 0.96562 0.37767 0.83353 0.0
C537 C 0.95172 0.35061 0.85898 0.0
H538 H 0.01151 0.414 0.81944 0.0
H539 H 0.9464 0.39488 0.81751 0.0
S540 S 0.00955 0.28626 0.91651 0.0
N541 N 0.03953 0.31777 0.89999 0.0
N542 N 0.96846 0.29735 0.8985 0.0
C543 C 0.9781 0.32764 0.87716 0.0
C544 C 0.01663 0.33873 0.87793 0.0
C545 C 0.01484 0.0822 0.89184 0.0
C546 C 0.05016 0.09905 0.88637 0.0
C547 C 0.98267 0.10448 0.89667 0.0
C548 C 0.9852 0.14429 0.89664 0.0
H549 H 0.01282 0.0521 0.89728 0.0
H550 H 0.95722 0.09054 0.90591 0.0
S551 S 0.06911 0.2008 0.87113 0.0
N552 N 0.08426 0.15669 0.87236 0.0
N553 N 0.02376 0.19865 0.88025 0.0
C554 C 0.019 0.1607 0.88416 0.0
C555 C 0.05173 0.13805 0.87973 0.0
C556 C 0.60836 0.07098 0.58149 0.0
C557 C 0.58392 0.10212 0.57786 0.0
C558 C 0.61321 0.04523 0.55206 0.0
C559 C 0.59454 0.05044 0.51792 0.0
H560 H 0.61939 0.06328 0.6086 0.0
H561 H 0.62788 0.01908 0.55772 0.0
S562 S 0.5432 0.13659 0.489 0.0
N563 N 0.55244 0.14346 0.53365 0.0
N564 N 0.56193 0.09533 0.47824 0.0
C565 C 0.57724 0.08555 0.51157 0.0
C566 C 0.57223 0.11167 0.54154 0.0
C567 C 0.52313 0.03319 0.97441 0.0
C568 C 0.5052 0.06598 0.98761 0.0
C569 C 0.50365 1.00637 0.95265 0.0
C570 C 0.46568 0.01158 0.94312 0.0
H571 H 0.552 0.02766 0.98187 0.0
H572 H 0.51841 0.98128 0.94353 0.0
S573 S 0.40713 0.09475 0.96862 0.0
N574 N 0.44815 0.10326 0.98806 0.0
N575 N 0.41176 0.05368 0.9473 0.0
C576 C 0.44792 0.04497 0.95549 0.0
C577 C 0.46762 0.07193 0.97765 0.0
C578 C 0.45087 0.5158 0.92455 0.0
C579 C 0.47059 0.51707 0.89063 0.0
C580 C 0.43202 0.48257 0.93559 0.0
C581 C 0.43244 0.44989 0.91292 0.0
H582 H 0.45265 0.53929 0.94392 0.0
H583 H 0.42012 0.48145 0.9634 0.0
S584 S 0.47291 0.44255 0.81781 0.0
N585 N 0.48424 0.48555 0.83197 0.0
N586 N 0.4485 0.42359 0.85228 0.0
C587 C 0.44843 0.45265 0.87717 0.0
C588 C 0.46772 0.48614 0.86618 0.0
C589 C 0.92896 0.05523 0.06988 0.0
C590 C 0.94606 0.06677 0.03636 0.0
C591 C 0.93798 0.0201 0.08604 0.0
C592 C 0.96389 0.99578 0.06874 0.0
H593 H 0.91094 0.0745 0.08501 0.0
H594 H 0.92717 0.01343 0.11354 0.0
S595 S 0.01042 0.01004 0.97742 0.0
N596 N 0.98554 0.04878 0.9839 0.0
N597 N 0.00241 0.9833 0.01436 0.0
C598 C 0.97813 1.00558 0.03362 0.0
C599 C 0.9692 0.04102 0.01736 0.0
C600 C 0.01878 0.23771 0.37124 0.0
C601 C 0.03095 0.21832 0.40337 0.0
C602 C 0.01861 0.27755 0.36971 0.0
C603 C 0.03065 0.29972 0.40022 0.0
H604 H 0.00767 0.22209 0.34768 0.0
H605 H 0.00719 0.29098 0.34508 0.0
S606 S 0.07083 0.26298 0.48856 0.0
N607 N 0.05941 0.22464 0.46477 0.0
N608 N 0.05923 0.29903 0.46176 0.0
C609 C 0.04523 0.28065 0.43146 0.0
C610 C 0.04533 0.24017 0.43307 0.0
C611 C 0.95663 0.73023 0.07817 0.0
C612 C 0.96597 0.70852 0.10972 0.0
C613 C 0.95538 0.76985 0.07966 0.0
C614 C 0.96362 0.78978 0.11274 0.0
H615 H 0.95163 0.71663 0.05152 0.0
H616 H 0.94948 0.78494 0.05405 0.0
S617 S 0.98495 0.74632 0.20465 0.0
N618 N 0.97991 0.70988 0.17618 0.0
N619 N 0.97774 0.78437 0.17897 0.0
C620 C 0.97051 0.76839 0.14522 0.0
C621 C 0.97163 0.72783 0.14371 0.0
C622 C 0.3453 0.94658 0.22908 0.0
C623 C 0.37174 0.9684 0.20945 0.0
C624 C 0.34581 0.945 0.2684 0.0
C625 C 0.37273 0.96529 0.28932 0.0
H626 H 0.32543 0.92915 0.21395 0.0
H627 H 0.32606 0.92642 0.28231 0.0
S628 S 0.44517 0.03003 0.25023 0.0
N629 N 0.42353 0.01267 0.21327 0.0
N630 N 0.42405 0.01096 0.28668 0.0
C631 C 0.39772 0.98906 0.26967 0.0
C632 C 0.3974 0.99021 0.22986 0.0
C633 C 0.61063 0.53503 0.24118 0.0
C634 C 0.64242 0.52611 0.21961 0.0
C635 C 0.61243 0.53789 0.28012 0.0
C636 C 0.64619 0.53233 0.2996 0.0
H637 H 0.58368 0.53937 0.22801 0.0
H638 H 0.58686 0.54454 0.29505 0.0
S639 S 0.73813 0.50943 0.25662 0.0
N640 N 0.70917 0.51234 0.22081 0.0
N641 N 0.71264 0.51813 0.29415 0.0
C642 C 0.67851 0.52402 0.27849 0.0
C643 C 0.6766 0.52078 0.23857 0.0
C644 C 0.25528 0.36897 0.99216 0.0
C645 C 0.27863 0.40115 0.99491 0.0
C646 C 0.21716 0.37217 0.98261 0.0
C647 C 0.20119 0.40761 0.97476 0.0
H648 H 0.26659 0.34099 0.99692 0.0
H649 H 0.20037 0.34668 0.98036 0.0
S650 S 0.24894 0.50091 0.98093 0.0
N651 N 0.28178 0.46995 0.99137 0.0
N652 N 0.21087 0.47568 0.97274 0.0
C653 C 0.22389 0.44002 0.97837 0.0
C654 C 0.26237 0.43688 0.98864 0.0
C655 C 0.23306 0.63225 0.45218 0.0
C656 C 0.21136 0.66535 0.45473 0.0
C657 C 0.27224 0.63381 0.44955 0.0
C658 C 0.29175 0.66856 0.44943 0.0
H659 H 0.21986 0.60464 0.45342 0.0
H660 H 0.28736 0.6073 0.44914 0.0
S661 S 0.24795 0.76377 0.44992 0.0
N662 N 0.21219 0.73418 0.45293 0.0
N663 N 0.28584 0.73713 0.44811 0.0
C664 C 0.27032 0.702 0.44969 0.0
C665 C 0.23023 0.7004 0.45234 0.0
C666 C 0.74657 0.89924 0.47806 0.0
C667 C 0.71375 0.90094 0.49982 0.0
C668 C 0.78211 0.89745 0.4946 0.0
C669 C 0.78641 0.89769 0.53367 0.0
H670 H 0.74499 0.90055 0.44789 0.0
H671 H 0.80644 0.89773 0.4765 0.0
S672 S 0.70941 0.89693 0.60339 0.0
N673 N 0.68783 0.89891 0.56272 0.0
N674 N 0.75463 0.89598 0.5937 0.0
C675 C 0.75381 0.89716 0.55579 0.0
C676 C 0.71752 0.89863 0.53892 0.0
C677 C 0.48035 0.78973 0.85936 0.0
C678 C 0.48676 0.8117 0.89161 0.0
C679 C 0.48724 0.75051 0.85899 0.0
C680 C 0.50059 0.73166 0.89092 0.0
H681 H 0.46888 0.80264 0.83448 0.0
H682 H 0.4813 0.73476 0.83372 0.0
S683 S 0.52589 0.77696 0.98122 0.0
N684 N 0.51032 0.81206 0.95525 0.0
N685 N 0.5227 0.73881 0.95484 0.0
C686 C 0.50833 0.75361 0.92291 0.0
C687 C 0.50162 0.79345 0.92316 0.0
C688 C 0.4365 0.29786 0.57511 0.0
C689 C 0.44743 0.32025 0.60584 0.0
C690 C 0.43794 0.25823 0.57623 0.0
C691 C 0.45002 0.23876 0.60825 0.0
H692 H 0.42777 0.31097 0.54924 0.0
H693 H 0.4302 0.24276 0.55127 0.0
S694 S 0.47896 0.28338 0.69762 0.0
N695 N 0.46883 0.31956 0.6703 0.0
N696 N 0.47112 0.24495 0.6725 0.0
C697 C 0.45934 0.26053 0.63993 0.0
C698 C 0.45817 0.3012 0.63871 0.0
C699 C 0.90059 0.49802 0.76971 0.0
C700 C 0.8709 0.48025 0.78883 0.0
C701 C 0.90025 0.50203 0.73081 0.0
C702 C 0.8703 0.48823 0.70905 0.0
H703 H 0.92505 0.50793 0.78476 0.0
H704 H 0.92448 0.51492 0.71768 0.0
S705 S 0.78364 0.44299 0.7457 0.0
N706 N 0.80911 0.45147 0.78325 0.0
N707 N 0.80851 0.45885 0.71007 0.0
C708 C 0.83942 0.4722 0.72794 0.0
C709 C 0.83969 0.4683 0.76778 0.0
C710 C 0.10569 0.98121 0.71828 0.0
C711 C 0.1378 0.96516 0.70189 0.0
C712 C 0.10441 0.9902 0.75626 0.0
C713 C 0.13542 0.98433 0.77969 0.0
H714 H 0.08068 0.98612 0.70191 0.0
H715 H 0.07861 1.00177 0.76733 0.0
S716 S 0.2276 0.946 0.75057 0.0
N717 N 0.20233 0.94552 0.71195 0.0
N718 N 0.20013 0.96344 0.78347 0.0
C719 C 0.16841 0.96991 0.76358 0.0
C720 C 0.16956 0.96011 0.72471 0.0
C721 C 0.77457 0.09202 0.98652 0.0
C722 C 0.78979 0.12857 0.98172 0.0
C723 C 0.73666 0.08643 0.99549 0.0
C724 C 0.71196 0.11708 0.99984 0.0
H725 H 0.79229 0.06729 0.98442 0.0
H726 H 0.72688 0.05771 0.99972 0.0
S727 S 0.73668 0.21859 0.98736 0.0
N728 N 0.7764 0.19597 0.97995 0.0
N729 N 0.70516 0.18555 0.99649 0.0
C730 C 0.72636 0.1538 0.99362 0.0
C731 C 0.76517 0.15951 0.98468 0.0
C732 C 0.99255 0.96468 0.25105 0.0
C733 C 0.0254 0.97413 0.23145 0.0
C734 C 0.98053 0.98616 0.28162 0.0
C735 C 1.00059 0.0183 0.29385 0.0
H736 H 0.97569 0.94062 0.24259 0.0
H737 H 0.95522 0.97731 0.29594 0.0
S738 S 0.08866 0.05536 0.25267 0.0
N739 N 0.07812 0.0181 0.22685 0.0
N740 N 0.05513 0.05836 0.28429 0.0
C741 C 0.03337 0.02831 0.27454 0.0
C742 C 0.04593 1.0062 0.24351 0.0
C743 C 0.99721 0.4538 0.25454 0.0
C744 C 0.96146 0.46228 0.26868 0.0
C745 C 0.01419 0.47639 0.22733 0.0
C746 C 0.9963 0.50863 0.21272 0.0
H747 H 0.01285 0.42998 0.26532 0.0
H748 H 0.04188 0.46838 0.21781 0.0
S749 S 0.90151 0.54255 0.23884 0.0
N750 N 0.908 0.50482 0.26518 0.0
N751 N 0.93991 0.54706 0.21344 0.0
C752 C 0.96013 0.51714 0.22591 0.0
C753 C 0.94266 0.49394 0.2538 0.0
C754 C 0.2488 0.06082 0.00307 0.0
C755 C 0.24315 0.05228 0.96497 0.0
C756 C 0.28229 0.05166 0.02132 0.0
C757 C 0.31184 0.03383 0.0023 0.0
H758 H 0.2263 0.07245 0.01978 0.0
H759 H 0.28413 0.0568 0.05108 0.0
S760 S 0.31438 0.01318 0.90045 0.0
N761 N 0.27218 0.03064 0.90757 0.0
N762 N 0.33519 0.01336 0.94157 0.0
C763 C 0.30795 0.02857 0.96336 0.0
C764 C 0.27366 0.03783 0.9448 0.0
C765 C 0.74659 0.45109 0.01869 0.0
C766 C 0.72001 0.42503 0.03215 0.0
C767 C 0.77244 0.44083 0.99109 0.0
C768 C 0.77333 0.40388 0.97636 0.0
H769 H 0.74631 0.48019 0.02824 0.0
H770 H 0.79229 0.46201 0.98158 0.0
S771 S 0.71097 0.3245 0.00364 0.0
N772 N 0.69638 0.36053 0.02919 0.0
N773 N 0.74647 0.34067 0.97857 0.0
C774 C 0.7478 0.37714 0.9905 0.0
C775 C 0.72076 0.38787 0.01801 0.0
C776 C 0.27018 0.89108 0.47515 0.0
C777 C 0.29867 0.86382 0.47782 0.0
C778 C 0.23905 0.8901 0.49892 0.0
C779 C 0.23484 0.86153 0.52584 0.0
H780 H 0.27258 0.91429 0.45554 0.0
H781 H 0.21784 0.91179 0.49602 0.0
S782 S 0.29959 0.78182 0.54264 0.0
N783 N 0.31987 0.80654 0.50904 0.0
N784 N 0.2601 0.80401 0.55254 0.0
C785 C 0.26215 0.83327 0.52806 0.0
C786 C 0.29442 0.83464 0.50438 0.0
C787 C 0.82935 0.57077 0.52483 0.0
C788 C 0.85322 0.5439 0.50857 0.0
C789 C 0.79447 0.5791 0.50906 0.0
C790 C 0.78164 0.56058 0.47655 0.0
H791 H 0.83683 0.58417 0.55101 0.0
H792 H 0.77635 0.59848 0.52397 0.0
S793 S 0.83588 0.49209 0.41984 0.0
N794 N 0.86357 0.5021 0.45542 0.0
N795 N 0.79772 0.51763 0.42606 0.0
C796 C 0.8066 0.53622 0.45808 0.0
C797 C 0.84239 0.52781 0.47409 0.0
C798 C 0.9554 0.33759 0.9867 0.0
C799 C 0.98698 0.3497 0.0071 0.0
C800 C 0.93754 0.30308 0.99458 0.0
C801 C 0.95063 0.27938 0.02324 0.0
H802 H 0.94645 0.35314 0.96233 0.0
H803 H 0.9157 0.29347 0.97582 0.0
S804 S 0.02576 0.30321 0.09116 0.0
N805 N 0.02591 0.33897 0.06153 0.0
N806 N 0.99212 0.27442 0.07696 0.0
C807 C 0.9791 0.29358 0.04679 0.0
C808 C 0.99748 0.32855 0.03847 0.0
C809 C 0.05017 0.82311 0.49267 0.0
C810 C 0.03025 0.79521 0.47304 0.0
C811 C 0.0336 0.85819 0.50084 0.0
C812 C 0.99691 0.86682 0.48896 0.0
H813 H 0.07692 0.81634 0.50519 0.0
H814 H 0.04817 0.87703 0.51967 0.0
S815 S 0.93774 0.80671 0.42757 0.0
N816 N 0.97526 0.78083 0.43578 0.0
N817 N 0.94472 0.84714 0.44968 0.0
C818 C 0.9791 0.84102 0.46477 0.0
C819 C 0.99567 0.80513 0.45712 0.0
C820 C 0.46145 0.87324 0.52529 0.0
C821 C 0.49747 0.86905 0.5096 0.0
C822 C 0.43823 0.84148 0.53195 0.0
C823 C 0.44994 0.80494 0.52174 0.0
H824 H 0.45137 0.90111 0.53274 0.0
H825 H 0.41103 0.84552 0.54475 0.0
S826 S 0.54063 0.77906 0.47827 0.0
N827 N 0.5431 0.82539 0.48364 0.0
N828 N 0.49926 0.76647 0.49483 0.0
C829 C 0.48551 0.80064 0.50556 0.0
C830 C 0.50933 0.83249 0.49979 0.0
C831 C 0.57839 0.55086 0.72758 0.0
C832 C 0.55052 0.56038 0.75375 0.0
C833 C 0.57001 0.52868 0.69611 0.0
C834 C 0.53379 0.51391 0.69045 0.0
H835 H 0.607 0.56035 0.73165 0.0
H836 H 0.5921 0.52275 0.6762 0.0
S837 S 0.45064 0.53069 0.75028 0.0
N838 N 0.48489 0.55391 0.77127 0.0
N839 N 0.46959 0.51123 0.71287 0.0
C840 C 0.50567 0.52315 0.71633 0.0
C841 C 0.5139 0.54668 0.74774 0.0
C842 C 0.44663 0.9746 0.75227 0.0
C843 C 0.41607 0.98824 0.77288 0.0
C844 C 0.4627 0.99594 0.7236 0.0
C845 C 0.44914 0.03213 0.71405 0.0
H846 H 0.459 0.94747 0.75888 0.0
H847 H 0.48652 0.98388 0.70915 0.0
S848 S 0.36825 0.08039 0.75803 0.0
N849 N 0.37168 0.03996 0.78084 0.0
N850 N 0.40211 0.08002 0.72656 0.0
C851 C 0.41796 0.0459 0.73372 0.0
C852 C 0.40131 0.02395 0.76305 0.0
C853 C 0.46454 0.26114 0.04495 0.0
C854 C 0.45421 0.25637 0.00726 0.0
C855 C 0.49464 0.24098 0.06033 0.0
C856 C 0.51559 0.2156 0.03855 0.0
H857 H 0.45136 0.28273 0.06191 0.0
H858 H 0.50284 0.24684 0.08888 0.0
S859 S 0.49429 0.1864 0.94126 0.0
N860 N 0.46321 0.21959 0.95064 0.0
N861 N 0.51977 0.18189 0.97942 0.0
C862 C 0.50333 0.20796 0.00197 0.0
C863 C 0.47254 0.2282 0.98644 0.0
loop_
_geom_bond_atom_site_label_1
_geom_bond_atom_site_label_2
_geom_bond_distance
_geom_bond_site_symmetry_2
_ccdc_geom_bond_type
Zn0 O3 2.031 . S
Zn0 O5 2.049 . S
Zn0 O10 2.067 1_455 S
Zn1 O2 1.962 . S
Zn1 O4 1.986 1_455 S
Zn1 O6 1.996 . S
Zn1 O9 1.943 1_455 S
O2 Zn1 1.962 . S
O2 C7 1.254 . S
O3 Zn0 2.031 . S
O3 C7 1.269 . S
O4 Zn1 1.986 1_655 S
O4 C11 1.262 . S
O5 Zn0 2.049 . S
O5 C13 1.260 . S
O6 Zn1 1.996 . S
O6 C13 1.257 . S
C7 O2 1.254 . S
C7 O3 1.269 . S
C8 O9 1.249 . S
C8 O10 1.270 . S
O9 Zn1 1.943 1_655 S
O9 C8 1.249 . S
O10 Zn0 2.067 1_655 S
O10 C8 1.270 . S
C11 O4 1.262 . S
C11 O12 1.232 . S
O12 C11 1.232 . S
C13 O5 1.260 . S
C13 O6 1.257 . S
Zn14 O17 2.031 . S
Zn14 O19 2.049 . S
Zn14 O24 2.067 1_655 S
Zn15 O16 1.962 . S
Zn15 O18 1.986 1_655 S
Zn15 O20 1.996 . S
Zn15 O23 1.943 1_655 S
O16 Zn15 1.962 . S
O16 C21 1.254 . S
O17 Zn14 2.031 . S
O17 C21 1.269 . S
O18 Zn15 1.986 1_455 S
O18 C25 1.262 . S
O19 Zn14 2.049 . S
O19 C27 1.260 . S
O20 Zn15 1.996 . S
O20 C27 1.257 . S
C21 O16 1.254 . S
C21 O17 1.269 . S
C22 O23 1.249 . S
C22 O24 1.270 . S
O23 Zn15 1.943 1_455 S
O23 C22 1.249 . S
O24 Zn14 2.067 1_455 S
O24 C22 1.270 . S
C25 O18 1.262 . S
C25 O26 1.232 . S
O26 C25 1.232 . S
C27 O19 1.260 . S
C27 O20 1.257 . S
Zn28 O31 2.031 . S
Zn28 O33 2.049 . S
Zn28 O38 2.067 1_455 S
Zn29 O30 1.962 . S
Zn29 O32 1.986 1_455 S
Zn29 O34 1.996 . S
Zn29 O37 1.943 1_455 S
O30 Zn29 1.962 . S
O30 C35 1.254 . S
O31 Zn28 2.031 . S
O31 C35 1.269 . S
O32 Zn29 1.986 1_655 S
O32 C39 1.262 . S
O33 Zn28 2.049 . S
O33 C41 1.260 . S
O34 Zn29 1.996 . S
O34 C41 1.257 . S
C35 O30 1.254 . S
C35 O31 1.269 . S
C36 O37 1.249 . S
C36 O38 1.270 . S
O37 Zn29 1.943 1_655 S
O37 C36 1.249 . S
O38 Zn28 2.067 1_655 S
O38 C36 1.270 . S
C39 O32 1.262 . S
C39 O40 1.232 . S
O40 C39 1.232 . S
C41 O33 1.260 . S
C41 O34 1.257 . S
Zn42 O45 2.031 . S
Zn42 O47 2.049 . S
Zn42 O52 2.067 1_655 S
Zn43 O44 1.962 . S
Zn43 O46 1.986 1_655 S
Zn43 O48 1.996 . S
Zn43 O51 1.943 1_655 S
O44 Zn43 1.962 . S
O44 C49 1.254 . S
O45 Zn42 2.031 . S
O45 C49 1.269 . S
O46 Zn43 1.986 1_455 S
O46 C53 1.262 . S
O47 Zn42 2.049 . S
O47 C55 1.260 . S
O48 Zn43 1.996 . S
O48 C55 1.257 . S
C49 O44 1.254 . S
C49 O45 1.269 . S
C50 O51 1.249 . S
C50 O52 1.270 . S
O51 Zn43 1.943 1_455 S
O51 C50 1.249 . S
O52 Zn42 2.067 1_455 S
O52 C50 1.270 . S
C53 O46 1.262 . S
C53 O54 1.232 . S
O54 C53 1.232 . S
C55 O47 1.260 . S
C55 O48 1.257 . S
Zn56 O59 2.031 . S
Zn56 O61 2.049 . S
Zn56 O66 2.067 1_545 S
Zn57 O58 1.962 . S
Zn57 O60 1.986 1_545 S
Zn57 O62 1.996 . S
Zn57 O65 1.943 1_545 S
O58 Zn57 1.962 . S
O58 C63 1.254 . S
O59 Zn56 2.031 . S
O59 C63 1.269 . S
O60 Zn57 1.986 1_565 S
O60 C67 1.262 . S
O61 Zn56 2.049 . S
O61 C69 1.260 . S
O62 Zn57 1.996 . S
O62 C69 1.257 . S
C63 O58 1.254 . S
C63 O59 1.269 . S
C64 O65 1.249 . S
C64 O66 1.270 . S
O65 Zn57 1.943 1_565 S
O65 C64 1.249 . S
O66 Zn56 2.067 1_565 S
O66 C64 1.270 . S
C67 O60 1.262 . S
C67 O68 1.232 . S
O68 C67 1.232 . S
C69 O61 1.260 . S
C69 O62 1.257 . S
Zn70 O73 2.031 . S
Zn70 O75 2.049 . S
Zn70 O80 2.067 . S
Zn71 O72 1.962 . S
Zn71 O74 1.986 . S
Zn71 O76 1.996 . S
Zn71 O79 1.943 . S
O72 Zn71 1.962 . S
O72 C77 1.254 . S
O73 Zn70 2.031 . S
O73 C77 1.269 . S
O74 Zn71 1.986 . S
O74 C81 1.262 . S
O75 Zn70 2.049 . S
O75 C83 1.260 . S
O76 Zn71 1.996 . S
O76 C83 1.257 . S
C77 O72 1.254 . S
C77 O73 1.269 . S
C78 O79 1.249 . S
C78 O80 1.270 . S
O79 Zn71 1.943 . S
O79 C78 1.249 . S
O80 Zn70 2.067 . S
O80 C78 1.270 . S
C81 O74 1.262 . S
C81 O82 1.232 . S
O82 C81 1.232 . S
C83 O75 1.260 . S
C83 O76 1.257 . S
Zn84 O87 2.031 . S
Zn84 O89 2.049 . S
Zn84 O94 2.067 1_565 S
Zn85 O86 1.962 . S
Zn85 O88 1.986 1_565 S
Zn85 O90 1.996 . S
Zn85 O93 1.943 1_565 S
O86 Zn85 1.962 . S
O86 C91 1.254 . S
O87 Zn84 2.031 . S
O87 C91 1.269 . S
O88 Zn85 1.986 1_545 S
O88 C95 1.262 . S
O89 Zn84 2.049 . S
O89 C97 1.260 . S
O90 Zn85 1.996 . S
O90 C97 1.257 . S
C91 O86 1.254 . S
C91 O87 1.269 . S
C92 O93 1.249 . S
C92 O94 1.270 . S
O93 Zn85 1.943 1_545 S
O93 C92 1.249 . S
O94 Zn84 2.067 1_545 S
O94 C92 1.270 . S
C95 O88 1.262 . S
C95 O96 1.232 . S
O96 C95 1.232 . S
C97 O89 1.260 . S
C97 O90 1.257 . S
Zn98 O101 2.031 . S
Zn98 O103 2.049 . S
Zn98 O108 2.067 . S
Zn99 O100 1.962 . S
Zn99 O102 1.986 . S
Zn99 O104 1.996 . S
Zn99 O107 1.943 . S
O100 Zn99 1.962 . S
O100 C105 1.254 . S
O101 Zn98 2.031 . S
O101 C105 1.269 . S
O102 Zn99 1.986 . S
O102 C109 1.262 . S
O103 Zn98 2.049 . S
O103 C111 1.260 . S
O104 Zn99 1.996 . S
O104 C111 1.257 . S
C105 O100 1.254 . S
C105 O101 1.269 . S
C106 O107 1.249 . S
C106 O108 1.270 . S
O107 Zn99 1.943 . S
O107 C106 1.249 . S
O108 Zn98 2.067 . S
O108 C106 1.270 . S
C109 O102 1.262 . S
C109 O110 1.232 . S
O110 C109 1.232 . S
C111 O103 1.260 . S
C111 O104 1.257 . S
Zn112 O115 2.031 . S
Zn112 O117 2.049 . S
Zn112 O122 2.067 1_554 S
Zn113 O114 1.962 . S
Zn113 O116 1.986 1_554 S
Zn113 O118 1.996 . S
Zn113 O121 1.943 1_554 S
O114 Zn113 1.962 . S
O114 C119 1.254 . S
O115 Zn112 2.031 . S
O115 C119 1.269 . S
O116 Zn113 1.986 1_556 S
O116 C123 1.262 . S
O117 Zn112 2.049 . S
O117 C125 1.260 . S
O118 Zn113 1.996 . S
O118 C125 1.257 . S
C119 O114 1.254 . S
C119 O115 1.269 . S
C120 O121 1.249 . S
C120 O122 1.270 . S
O121 Zn113 1.943 1_556 S
O121 C120 1.249 . S
O122 Zn112 2.067 1_556 S
O122 C120 1.270 . S
C123 O116 1.262 . S
C123 O124 1.232 . S
O124 C123 1.232 . S
C125 O117 1.260 . S
C125 O118 1.257 . S
Zn126 O129 2.031 . S
Zn126 O131 2.049 . S
Zn126 O136 2.067 . S
Zn127 O128 1.962 . S
Zn127 O130 1.986 . S
Zn127 O132 1.996 . S
Zn127 O135 1.943 . S
O128 Zn127 1.962 . S
O128 C133 1.254 . S
O129 Zn126 2.031 . S
O129 C133 1.269 . S
O130 Zn127 1.986 . S
O130 C137 1.262 . S
O131 Zn126 2.049 . S
O131 C139 1.260 . S
O132 Zn127 1.996 . S
O132 C139 1.257 . S
C133 O128 1.254 . S
C133 O129 1.269 . S
C134 O135 1.249 . S
C134 O136 1.270 . S
O135 Zn127 1.943 . S
O135 C134 1.249 . S
O136 Zn126 2.067 . S
O136 C134 1.270 . S
C137 O130 1.262 . S
C137 O138 1.232 . S
O138 C137 1.232 . S
C139 O131 1.260 . S
C139 O132 1.257 . S
Zn140 O143 2.031 . S
Zn140 O145 2.049 . S
Zn140 O150 2.067 . S
Zn141 O142 1.962 . S
Zn141 O144 1.986 . S
Zn141 O146 1.996 . S
Zn141 O149 1.943 . S
O142 Zn141 1.962 . S
O142 C147 1.254 . S
O143 Zn140 2.031 . S
O143 C147 1.269 . S
O144 Zn141 1.986 . S
O144 C151 1.262 . S
O145 Zn140 2.049 . S
O145 C153 1.260 . S
O146 Zn141 1.996 . S
O146 C153 1.257 . S
C147 O142 1.254 . S
C147 O143 1.269 . S
C148 O149 1.249 . S
C148 O150 1.270 . S
O149 Zn141 1.943 . S
O149 C148 1.249 . S
O150 Zn140 2.067 . S
O150 C148 1.270 . S
C151 O144 1.262 . S
C151 O152 1.232 . S
O152 C151 1.232 . S
C153 O145 1.260 . S
C153 O146 1.257 . S
Zn154 O157 2.031 . S
Zn154 O159 2.049 . S
Zn154 O164 2.067 . S
Zn155 O156 1.962 . S
Zn155 O158 1.986 . S
Zn155 O160 1.996 . S
Zn155 O163 1.943 . S
O156 Zn155 1.962 . S
O156 C161 1.254 . S
O157 Zn154 2.031 . S
O157 C161 1.269 . S
O158 Zn155 1.986 . S
O158 C165 1.262 . S
O159 Zn154 2.049 . S
O159 C167 1.260 . S
O160 Zn155 1.996 . S
O160 C167 1.257 . S
C161 O156 1.254 . S
C161 O157 1.269 . S
C162 O163 1.249 . S
C162 O164 1.270 . S
O163 Zn155 1.943 . S
O163 C162 1.249 . S
O164 Zn154 2.067 . S
O164 C162 1.270 . S
C165 O158 1.262 . S
C165 O166 1.232 . S
O166 C165 1.232 . S
C167 O159 1.260 . S
C167 O160 1.257 . S
Zn168 O171 2.031 . S
Zn168 O173 2.049 . S
Zn168 O178 2.067 . S
Zn169 O170 1.962 . S
Zn169 O172 1.986 . S
Zn169 O174 1.996 . S
Zn169 O177 1.943 . S
O170 Zn169 1.962 . S
O170 C175 1.254 . S
O171 Zn168 2.031 . S
O171 C175 1.269 . S
O172 Zn169 1.986 . S
O172 C179 1.262 . S
O173 Zn168 2.049 . S
O173 C181 1.260 . S
O174 Zn169 1.996 . S
O174 C181 1.257 . S
C175 O170 1.254 . S
C175 O171 1.269 . S
C176 O177 1.249 . S
C176 O178 1.270 . S
O177 Zn169 1.943 . S
O177 C176 1.249 . S
O178 Zn168 2.067 . S
O178 C176 1.270 . S
C179 O172 1.262 . S
C179 O180 1.232 . S
O180 C179 1.232 . S
C181 O173 1.260 . S
C181 O174 1.257 . S
Zn182 O185 2.031 . S
Zn182 O187 2.049 . S
Zn182 O192 2.067 . S
Zn183 O184 1.962 . S
Zn183 O186 1.986 . S
Zn183 O188 1.996 . S
Zn183 O191 1.943 . S
O184 Zn183 1.962 . S
O184 C189 1.254 . S
O185 Zn182 2.031 . S
O185 C189 1.269 . S
O186 Zn183 1.986 . S
O186 C193 1.262 . S
O187 Zn182 2.049 . S
O187 C195 1.260 . S
O188 Zn183 1.996 . S
O188 C195 1.257 . S
C189 O184 1.254 . S
C189 O185 1.269 . S
C190 O191 1.249 . S
C190 O192 1.270 . S
O191 Zn183 1.943 . S
O191 C190 1.249 . S
O192 Zn182 2.067 . S
O192 C190 1.270 . S
C193 O186 1.262 . S
C193 O194 1.232 . S
O194 C193 1.232 . S
C195 O187 1.260 . S
C195 O188 1.257 . S
Zn196 O199 2.031 . S
Zn196 O201 2.049 . S
Zn196 O206 2.067 . S
Zn197 O198 1.962 . S
Zn197 O200 1.986 . S
Zn197 O202 1.996 . S
Zn197 O205 1.943 . S
O198 Zn197 1.962 . S
O198 C203 1.254 . S
O199 Zn196 2.031 . S
O199 C203 1.269 . S
O200 Zn197 1.986 . S
O200 C207 1.262 . S
O201 Zn196 2.049 . S
O201 C209 1.260 . S
O202 Zn197 1.996 . S
O202 C209 1.257 . S
C203 O198 1.254 . S
C203 O199 1.269 . S
C204 O205 1.249 . S
C204 O206 1.270 . S
O205 Zn197 1.943 . S
O205 C204 1.249 . S
O206 Zn196 2.067 . S
O206 C204 1.270 . S
C207 O200 1.262 . S
C207 O208 1.232 . S
O208 C207 1.232 . S
C209 O201 1.260 . S
C209 O202 1.257 . S
Zn210 O213 2.031 . S
Zn210 O215 2.049 . S
Zn210 O220 2.067 . S
Zn211 O212 1.962 . S
Zn211 O214 1.986 . S
Zn211 O216 1.996 . S
Zn211 O219 1.943 . S
O212 Zn211 1.962 . S
O212 C217 1.254 . S
O213 Zn210 2.031 . S
O213 C217 1.269 . S
O214 Zn211 1.986 . S
O214 C221 1.262 . S
O215 Zn210 2.049 . S
O215 C223 1.260 . S
O216 Zn211 1.996 . S
O216 C223 1.257 . S
C217 O212 1.254 . S
C217 O213 1.269 . S
C218 O219 1.249 . S
C218 O220 1.270 . S
O219 Zn211 1.943 . S
O219 C218 1.249 . S
O220 Zn210 2.067 . S
O220 C218 1.270 . S
C221 O214 1.262 . S
C221 O222 1.232 . S
O222 C221 1.232 . S
C223 O215 1.260 . S
C223 O216 1.257 . S
Zn224 O227 2.031 . S
Zn224 O229 2.049 . S
Zn224 O234 2.067 . S
Zn225 O226 1.962 . S
Zn225 O228 1.986 . S
Zn225 O230 1.996 . S
Zn225 O233 1.943 . S
O226 Zn225 1.962 . S
O226 C231 1.254 . S
O227 Zn224 2.031 . S
O227 C231 1.269 . S
O228 Zn225 1.986 . S
O228 C235 1.262 . S
O229 Zn224 2.049 . S
O229 C237 1.260 . S
O230 Zn225 1.996 . S
O230 C237 1.257 . S
C231 O226 1.254 . S
C231 O227 1.269 . S
C232 O233 1.249 . S
C232 O234 1.270 . S
O233 Zn225 1.943 . S
O233 C232 1.249 . S
O234 Zn224 2.067 . S
O234 C232 1.270 . S
C235 O228 1.262 . S
C235 O236 1.232 . S
O236 C235 1.232 . S
C237 O229 1.260 . S
C237 O230 1.257 . S
Zn238 O241 2.031 . S
Zn238 O243 2.049 . S
Zn238 O248 2.067 1_565 S
Zn239 O240 1.962 . S
Zn239 O242 1.986 1_565 S
Zn239 O244 1.996 . S
Zn239 O247 1.943 1_565 S
O240 Zn239 1.962 . S
O240 C245 1.254 . S
O241 Zn238 2.031 . S
O241 C245 1.269 . S
O242 Zn239 1.986 1_545 S
O242 C249 1.262 . S
O243 Zn238 2.049 . S
O243 C251 1.260 . S
O244 Zn239 1.996 . S
O244 C251 1.257 . S
C245 O240 1.254 . S
C245 O241 1.269 . S
C246 O247 1.249 . S
C246 O248 1.270 . S
O247 Zn239 1.943 1_545 S
O247 C246 1.249 . S
O248 Zn238 2.067 1_545 S
O248 C246 1.270 . S
C249 O242 1.262 . S
C249 O250 1.232 . S
O250 C249 1.232 . S
C251 O243 1.260 . S
C251 O244 1.257 . S
Zn252 O255 2.031 . S
Zn252 O257 2.049 . S
Zn252 O262 2.067 . S
Zn253 O254 1.962 . S
Zn253 O256 1.986 . S
Zn253 O258 1.996 . S
Zn253 O261 1.943 . S
O254 Zn253 1.962 . S
O254 C259 1.254 . S
O255 Zn252 2.031 . S
O255 C259 1.269 . S
O256 Zn253 1.986 . S
O256 C263 1.262 . S
O257 Zn252 2.049 . S
O257 C265 1.260 . S
O258 Zn253 1.996 . S
O258 C265 1.257 . S
C259 O254 1.254 . S
C259 O255 1.269 . S
C260 O261 1.249 . S
C260 O262 1.270 . S
O261 Zn253 1.943 . S
O261 C260 1.249 . S
O262 Zn252 2.067 . S
O262 C260 1.270 . S
C263 O256 1.262 . S
C263 O264 1.232 . S
O264 C263 1.232 . S
C265 O257 1.260 . S
C265 O258 1.257 . S
Zn266 O269 2.031 . S
Zn266 O271 2.049 . S
Zn266 O276 2.067 1_545 S
Zn267 O268 1.962 . S
Zn267 O270 1.986 1_545 S
Zn267 O272 1.996 . S
Zn267 O275 1.943 1_545 S
O268 Zn267 1.962 . S
O268 C273 1.254 . S
O269 Zn266 2.031 . S
O269 C273 1.269 . S
O270 Zn267 1.986 1_565 S
O270 C277 1.262 . S
O271 Zn266 2.049 . S
O271 C279 1.260 . S
O272 Zn267 1.996 . S
O272 C279 1.257 . S
C273 O268 1.254 . S
C273 O269 1.269 . S
C274 O275 1.249 . S
C274 O276 1.270 . S
O275 Zn267 1.943 1_565 S
O275 C274 1.249 . S
O276 Zn266 2.067 1_565 S
O276 C274 1.270 . S
C277 O270 1.262 . S
C277 O278 1.232 . S
O278 C277 1.232 . S
C279 O271 1.260 . S
C279 O272 1.257 . S
Zn280 O283 2.031 . S
Zn280 O285 2.049 . S
Zn280 O290 2.067 . S
Zn281 O282 1.962 . S
Zn281 O284 1.986 . S
Zn281 O286 1.996 . S
Zn281 O289 1.943 . S
O282 Zn281 1.962 . S
O282 C287 1.254 . S
O283 Zn280 2.031 . S
O283 C287 1.269 . S
O284 Zn281 1.986 . S
O284 C291 1.262 . S
O285 Zn280 2.049 . S
O285 C293 1.260 . S
O286 Zn281 1.996 . S
O286 C293 1.257 . S
C287 O282 1.254 . S
C287 O283 1.269 . S
C288 O289 1.249 . S
C288 O290 1.270 . S
O289 Zn281 1.943 . S
O289 C288 1.249 . S
O290 Zn280 2.067 . S
O290 C288 1.270 . S
C291 O284 1.262 . S
C291 O292 1.232 . S
O292 C291 1.232 . S
C293 O285 1.260 . S
C293 O286 1.257 . S
Zn294 O297 2.031 . S
Zn294 O299 2.049 . S
Zn294 O304 2.067 1_556 S
Zn295 O296 1.962 . S
Zn295 O298 1.986 1_556 S
Zn295 O300 1.996 . S
Zn295 O303 1.943 1_556 S
O296 Zn295 1.962 . S
O296 C301 1.254 . S
O297 Zn294 2.031 . S
O297 C301 1.269 . S
O298 Zn295 1.986 1_554 S
O298 C305 1.262 . S
O299 Zn294 2.049 . S
O299 C307 1.260 . S
O300 Zn295 1.996 . S
O300 C307 1.257 . S
C301 O296 1.254 . S
C301 O297 1.269 . S
C302 O303 1.249 . S
C302 O304 1.270 . S
O303 Zn295 1.943 1_554 S
O303 C302 1.249 . S
O304 Zn294 2.067 1_554 S
O304 C302 1.270 . S
C305 O298 1.262 . S
C305 O306 1.232 . S
O306 C305 1.232 . S
C307 O299 1.260 . S
C307 O300 1.257 . S
Zn308 O311 2.031 . S
Zn308 O313 2.049 . S
Zn308 O318 2.067 1_556 S
Zn309 O310 1.962 . S
Zn309 O312 1.986 1_556 S
Zn309 O314 1.996 . S
Zn309 O317 1.943 1_556 S
O310 Zn309 1.962 . S
O310 C315 1.254 . S
O311 Zn308 2.031 . S
O311 C315 1.269 . S
O312 Zn309 1.986 1_554 S
O312 C319 1.262 . S
O313 Zn308 2.049 . S
O313 C321 1.260 . S
O314 Zn309 1.996 . S
O314 C321 1.257 . S
C315 O310 1.254 . S
C315 O311 1.269 . S
C316 O317 1.249 . S
C316 O318 1.270 . S
O317 Zn309 1.943 1_554 S
O317 C316 1.249 . S
O318 Zn308 2.067 1_554 S
O318 C316 1.270 . S
C319 O312 1.262 . S
C319 O320 1.232 . S
O320 C319 1.232 . S
C321 O313 1.260 . S
C321 O314 1.257 . S
Zn322 O325 2.031 . S
Zn322 O327 2.049 . S
Zn322 O332 2.067 1_554 S
Zn323 O324 1.962 . S
Zn323 O326 1.986 1_554 S
Zn323 O328 1.996 . S
Zn323 O331 1.943 1_554 S
O324 Zn323 1.962 . S
O324 C329 1.254 . S
O325 Zn322 2.031 . S
O325 C329 1.269 . S
O326 Zn323 1.986 1_556 S
O326 C333 1.262 . S
O327 Zn322 2.049 . S
O327 C335 1.260 . S
O328 Zn323 1.996 . S
O328 C335 1.257 . S
C329 O324 1.254 . S
C329 O325 1.269 . S
C330 O331 1.249 . S
C330 O332 1.270 . S
O331 Zn323 1.943 1_556 S
O331 C330 1.249 . S
O332 Zn322 2.067 1_556 S
O332 C330 1.270 . S
C333 O326 1.262 . S
C333 O334 1.232 . S
O334 C333 1.232 . S
C335 O327 1.260 . S
C335 O328 1.257 . S
C336 C337 1.369 . S
C336 C338 1.419 . S
C336 H340 0.930 . S
C337 C336 1.369 . S
C337 C346 1.429 . S
C338 C336 1.419 . S
C338 C339 1.363 . S
C338 H341 0.929 . S
C339 C338 1.363 . S
C339 C345 1.428 . S
H340 C336 0.930 . S
H341 C338 0.929 . S
S342 N343 1.613 . S
S342 N344 1.610 . S
N343 S342 1.613 . S
N343 C346 1.350 1_565 S
N344 S342 1.610 . S
N344 C345 1.351 1_565 S
C345 C339 1.428 . S
C345 N344 1.351 1_545 S
C345 C346 1.434 . S
C346 C337 1.429 . S
C346 N343 1.350 1_545 S
C346 C345 1.434 . S
C347 C348 1.369 . S
C347 C349 1.419 . S
C347 H351 0.930 . S
C348 C347 1.369 . S
C348 C357 1.429 . S
C349 C347 1.419 . S
C349 C350 1.363 . S
C349 H352 0.929 . S
C350 C349 1.363 . S
C350 C356 1.428 . S
H351 C347 0.930 . S
H352 C349 0.929 . S
S353 N354 1.613 1_455 S
S353 N355 1.610 1_455 S
N354 S353 1.613 1_655 S
N354 C357 1.350 . S
N355 S353 1.610 1_655 S
N355 C356 1.351 . S
C356 C350 1.428 . S
C356 N355 1.351 . S
C356 C357 1.434 . S
C357 C348 1.429 . S
C357 N354 1.350 . S
C357 C356 1.434 . S
C358 C359 1.369 . S
C358 C360 1.419 1_554 S
C358 H362 0.930 . S
C359 C358 1.369 . S
C359 C368 1.429 . S
C360 C358 1.419 1_556 S
C360 C361 1.363 . S
C360 H363 0.929 . S
C361 C360 1.363 . S
C361 C367 1.428 . S
H362 C358 0.930 . S
H363 C360 0.929 . S
S364 N365 1.613 . S
S364 N366 1.610 1_554 S
N365 S364 1.613 . S
N365 C368 1.350 . S
N366 S364 1.610 1_556 S
N366 C367 1.351 . S
C367 C361 1.428 . S
C367 N366 1.351 . S
C367 C368 1.434 1_556 S
C368 C359 1.429 . S
C368 N365 1.350 . S
C368 C367 1.434 1_554 S
C369 C370 1.369 . S
C369 C371 1.419 1_554 S
C369 H373 0.930 . S
C370 C369 1.369 . S
C370 C379 1.429 . S
C371 C369 1.419 1_556 S
C371 C372 1.363 . S
C371 H374 0.929 . S
C372 C371 1.363 . S
C372 C378 1.428 . S
H373 C369 0.930 . S
H374 C371 0.929 . S
S375 N376 1.613 . S
S375 N377 1.610 1_554 S
N376 S375 1.613 . S
N376 C379 1.350 . S
N377 S375 1.610 1_556 S
N377 C378 1.351 . S
C378 C372 1.428 . S
C378 N377 1.351 . S
C378 C379 1.434 1_556 S
C379 C370 1.429 . S
C379 N376 1.350 . S
C379 C378 1.434 1_554 S
C380 C381 1.369 . S
C380 C382 1.419 . S
C380 H384 0.930 . S
C381 C380 1.369 . S
C381 C390 1.429 . S
C382 C380 1.419 . S
C382 C383 1.363 . S
C382 H385 0.929 . S
C383 C382 1.363 . S
C383 C389 1.428 . S
H384 C380 0.930 . S
H385 C382 0.929 . S
S386 N387 1.613 1_556 S
S386 N388 1.610 1_556 S
N387 S386 1.613 1_554 S
N387 C390 1.350 . S
N388 S386 1.610 1_554 S
N388 C389 1.351 . S
C389 C383 1.428 . S
C389 N388 1.351 . S
C389 C390 1.434 . S
C390 C381 1.429 . S
C390 N387 1.350 . S
C390 C389 1.434 . S
C391 C392 1.369 . S
C391 C393 1.419 . S
C391 H395 0.930 . S
C392 C391 1.369 . S
C392 C401 1.429 . S
C393 C391 1.419 . S
C393 C394 1.363 . S
C393 H396 0.929 . S
C394 C393 1.363 . S
C394 C400 1.428 . S
H395 C391 0.930 . S
H396 C393 0.929 . S
S397 N398 1.613 1_556 S
S397 N399 1.610 1_556 S
N398 S397 1.613 1_554 S
N398 C401 1.350 . S
N399 S397 1.610 1_554 S
N399 C400 1.351 . S
C400 C394 1.428 . S
C400 N399 1.351 . S
C400 C401 1.434 . S
C401 C392 1.429 . S
C401 N398 1.350 . S
C401 C400 1.434 . S
C402 C403 1.369 . S
C402 C404 1.419 . S
C402 H406 0.930 . S
C403 C402 1.369 . S
C403 C412 1.429 . S
C404 C402 1.419 . S
C404 C405 1.363 . S
C404 H407 0.929 . S
C405 C404 1.363 . S
C405 C411 1.428 . S
H406 C402 0.930 . S
H407 C404 0.929 . S
S408 N409 1.613 1_545 S
S408 N410 1.610 1_545 S
N409 S408 1.613 1_565 S
N409 C412 1.350 . S
N410 S408 1.610 1_565 S
N410 C411 1.351 . S
C411 C405 1.428 . S
C411 N410 1.351 . S
C411 C412 1.434 . S
C412 C403 1.429 . S
C412 N409 1.350 . S
C412 C411 1.434 . S
C413 C414 1.369 . S
C413 C415 1.419 . S
C413 H417 0.930 . S
C414 C413 1.369 . S
C414 C423 1.429 . S
C415 C413 1.419 . S
C415 C416 1.363 . S
C415 H418 0.929 . S
C416 C415 1.363 . S
C416 C422 1.428 . S
H417 C413 0.930 . S
H418 C415 0.929 . S
S419 N420 1.613 . S
S419 N421 1.610 . S
N420 S419 1.613 . S
N420 C423 1.350 . S
N421 S419 1.610 . S
N421 C422 1.351 . S
C422 C416 1.428 . S
C422 N421 1.351 . S
C422 C423 1.434 . S
C423 C414 1.429 . S
C423 N420 1.350 . S
C423 C422 1.434 . S
C424 C425 1.369 . S
C424 C426 1.419 . S
C424 H428 0.930 . S
C425 C424 1.369 . S
C425 C434 1.429 . S
C426 C424 1.419 . S
C426 C427 1.363 . S
C426 H429 0.929 . S
C427 C426 1.363 . S
C427 C433 1.428 . S
H428 C424 0.930 . S
H429 C426 0.929 . S
S430 N431 1.613 . S
S430 N432 1.610 . S
N431 S430 1.613 . S
N431 C434 1.350 . S
N432 S430 1.610 . S
N432 C433 1.351 . S
C433 C427 1.428 . S
C433 N432 1.351 . S
C433 C434 1.434 . S
C434 C425 1.429 . S
C434 N431 1.350 . S
C434 C433 1.434 . S
C435 C436 1.369 . S
C435 C437 1.419 . S
C435 H439 0.930 . S
C436 C435 1.369 . S
C436 C445 1.429 . S
C437 C435 1.419 . S
C437 C438 1.363 . S
C437 H440 0.929 . S
C438 C437 1.363 . S
C438 C444 1.428 . S
H439 C435 0.930 . S
H440 C437 0.929 . S
S441 N442 1.613 . S
S441 N443 1.610 . S
N442 S441 1.613 . S
N442 C445 1.350 1_655 S
N443 S441 1.610 . S
N443 C444 1.351 1_655 S
C444 C438 1.428 . S
C444 N443 1.351 1_455 S
C444 C445 1.434 . S
C445 C436 1.429 . S
C445 N442 1.350 1_455 S
C445 C444 1.434 . S
C446 C447 1.369 . S
C446 C448 1.419 1_565 S
C446 H450 0.930 . S
C447 C446 1.369 . S
C447 C456 1.429 . S
C448 C446 1.419 1_545 S
C448 C449 1.363 . S
C448 H451 0.929 . S
C449 C448 1.363 . S
C449 C455 1.428 . S
H450 C446 0.930 . S
H451 C448 0.929 . S
S452 N453 1.613 1_545 S
S452 N454 1.610 . S
N453 S452 1.613 1_565 S
N453 C456 1.350 . S
N454 S452 1.610 . S
N454 C455 1.351 . S
C455 C449 1.428 . S
C455 N454 1.351 . S
C455 C456 1.434 1_545 S
C456 C447 1.429 . S
C456 N453 1.350 . S
C456 C455 1.434 1_565 S
C457 C458 1.369 . S
C457 C459 1.419 . S
C457 H461 0.930 . S
C458 C457 1.369 . S
C458 C467 1.429 . S
C459 C457 1.419 . S
C459 C460 1.363 . S
C459 H462 0.929 . S
C460 C459 1.363 . S
C460 C466 1.428 . S
H461 C457 0.930 . S
H462 C459 0.929 . S
S463 N464 1.613 . S
S463 N465 1.610 . S
N464 S463 1.613 . S
N464 C467 1.350 . S
N465 S463 1.610 . S
N465 C466 1.351 . S
C466 C460 1.428 . S
C466 N465 1.351 . S
C466 C467 1.434 . S
C467 C458 1.429 . S
C467 N464 1.350 . S
C467 C466 1.434 . S
C468 C469 1.369 . S
C468 C470 1.419 1_554 S
C468 H472 0.930 . S
C469 C468 1.369 . S
C469 C478 1.429 . S
C470 C468 1.419 1_556 S
C470 C471 1.363 . S
C470 H473 0.929 . S
C471 C470 1.363 . S
C471 C477 1.428 . S
H472 C468 0.930 . S
H473 C470 0.929 . S
S474 N475 1.613 1_556 S
S474 N476 1.610 . S
N475 S474 1.613 1_554 S
N475 C478 1.350 . S
N476 S474 1.610 . S
N476 C477 1.351 . S
C477 C471 1.428 . S
C477 N476 1.351 . S
C477 C478 1.434 1_556 S
C478 C469 1.429 . S
C478 N475 1.350 . S
C478 C477 1.434 1_554 S
C479 C480 1.369 . S
C479 C481 1.419 1_554 S
C479 H483 0.930 . S
C480 C479 1.369 . S
C480 C489 1.429 . S
C481 C479 1.419 1_556 S
C481 C482 1.363 . S
C481 H484 0.929 . S
C482 C481 1.363 . S
C482 C488 1.428 . S
H483 C479 0.930 . S
H484 C481 0.929 . S
S485 N486 1.613 1_546 S
S485 N487 1.610 1_545 S
N486 S485 1.613 1_564 S
N486 C489 1.350 . S
N487 S485 1.610 1_565 S
N487 C488 1.351 . S
C488 C482 1.428 . S
C488 N487 1.351 . S
C488 C489 1.434 1_556 S
C489 C480 1.429 . S
C489 N486 1.350 . S
C489 C488 1.434 1_554 S
C490 C491 1.369 . S
C490 C492 1.419 . S
C490 H494 0.930 . S
C491 C490 1.369 . S
C491 C500 1.429 . S
C492 C490 1.419 . S
C492 C493 1.363 . S
C492 H495 0.929 . S
C493 C492 1.363 . S
C493 C499 1.428 . S
H494 C490 0.930 . S
H495 C492 0.929 . S
S496 N497 1.613 . S
S496 N498 1.610 . S
N497 S496 1.613 . S
N497 C500 1.350 . S
N498 S496 1.610 . S
N498 C499 1.351 . S
C499 C493 1.428 . S
C499 N498 1.351 . S
C499 C500 1.434 . S
C500 C491 1.429 . S
C500 N497 1.350 . S
C500 C499 1.434 . S
C501 C502 1.369 . S
C501 C503 1.419 . S
C501 H505 0.930 . S
C502 C501 1.369 . S
C502 C511 1.429 . S
C503 C501 1.419 . S
C503 C504 1.363 . S
C503 H506 0.929 . S
C504 C503 1.363 . S
C504 C510 1.428 . S
H505 C501 0.930 . S
H506 C503 0.929 . S
S507 N508 1.613 . S
S507 N509 1.610 . S
N508 S507 1.613 . S
N508 C511 1.350 . S
N509 S507 1.610 . S
N509 C510 1.351 . S
C510 C504 1.428 . S
C510 N509 1.351 . S
C510 C511 1.434 . S
C511 C502 1.429 . S
C511 N508 1.350 . S
C511 C510 1.434 . S
C512 C513 1.369 . S
C512 C514 1.419 1_455 S
C512 H516 0.930 . S
C513 C512 1.369 . S
C513 C522 1.429 . S
C514 C512 1.419 1_655 S
C514 C515 1.363 . S
C514 H517 0.929 . S
C515 C514 1.363 . S
C515 C521 1.428 . S
H516 C512 0.930 . S
H517 C514 0.929 . S
S518 N519 1.613 . S
S518 N520 1.610 1_455 S
N519 S518 1.613 . S
N519 C522 1.350 . S
N520 S518 1.610 1_655 S
N520 C521 1.351 . S
C521 C515 1.428 . S
C521 N520 1.351 . S
C521 C522 1.434 1_655 S
C522 C513 1.429 . S
C522 N519 1.350 . S
C522 C521 1.434 1_455 S
C523 C524 1.369 . S
C523 C525 1.419 1_655 S
C523 H527 0.930 . S
C524 C523 1.369 . S
C524 C533 1.429 . S
C525 C523 1.419 1_455 S
C525 C526 1.363 . S
C525 H528 0.929 . S
C526 C525 1.363 . S
C526 C532 1.428 . S
H527 C523 0.930 . S
H528 C525 0.929 . S
S529 N530 1.613 1_545 S
S529 N531 1.610 1_645 S
N530 S529 1.613 1_565 S
N530 C533 1.350 . S
N531 S529 1.610 1_465 S
N531 C532 1.351 . S
C532 C526 1.428 . S
C532 N531 1.351 . S
C532 C533 1.434 1_455 S
C533 C524 1.429 . S
C533 N530 1.350 . S
C533 C532 1.434 1_655 S
C534 C535 1.369 . S
C534 C536 1.419 1_455 S
C534 H538 0.930 . S
C535 C534 1.369 . S
C535 C544 1.447 . S
C536 C534 1.419 1_655 S
C536 C537 1.363 . S
C536 H539 0.929 . S
C537 C536 1.363 . S
C537 C543 1.428 . S
H538 C534 0.930 . S
H539 C536 0.929 . S
S540 N541 1.613 1_655 S
S540 N542 1.610 . S
N541 S540 1.613 1_455 S
N541 C544 1.356 . S
N542 S540 1.610 . S
N542 C543 1.351 . S
C543 C537 1.428 . S
C543 N542 1.351 . S
C543 C544 1.407 1_655 S
C544 C535 1.447 . S
C544 N541 1.356 . S
C544 C543 1.407 1_455 S
C545 C546 1.369 . S
C545 C547 1.419 1_455 S
C545 H549 0.930 . S
C546 C545 1.369 . S
C546 C555 1.429 . S
C547 C545 1.419 1_655 S
C547 C548 1.363 . S
C547 H550 0.929 . S
C548 C547 1.363 . S
C548 C554 1.428 . S
H549 C545 0.930 . S
H550 C547 0.929 . S
S551 N552 1.613 1_554 S
S551 N553 1.610 1_454 S
N552 S551 1.613 1_556 S
N552 C555 1.350 . S
N553 S551 1.610 1_656 S
N553 C554 1.351 . S
C554 C548 1.428 . S
C554 N553 1.351 . S
C554 C555 1.434 1_655 S
C555 C546 1.429 . S
C555 N552 1.350 . S
C555 C554 1.434 1_455 S
C556 C557 1.369 . S
C556 C558 1.419 1_545 S
C556 H560 0.930 . S
C557 C556 1.369 . S
C557 C566 1.429 . S
C558 C556 1.419 1_565 S
C558 C559 1.363 . S
C558 H561 0.929 . S
C559 C558 1.363 . S
C559 C565 1.428 . S
H560 C556 0.930 . S
H561 C558 0.929 . S
S562 N563 1.630 . S
S562 N564 1.589 1_545 S
N563 S562 1.630 . S
N563 C566 1.350 . S
N564 S562 1.589 1_565 S
N564 C565 1.351 . S
C565 C559 1.428 . S
C565 N564 1.351 . S
C565 C566 1.434 1_565 S
C566 C557 1.429 . S
C566 N563 1.350 . S
C566 C565 1.434 1_545 S
C567 C568 1.369 . S
C567 C569 1.419 1_545 S
C567 H571 0.930 . S
C568 C567 1.369 . S
C568 C577 1.429 . S
C569 C567 1.419 1_565 S
C569 C570 1.363 . S
C569 H572 0.929 . S
C570 C569 1.363 . S
C570 C576 1.428 . S
H571 C567 0.930 . S
H572 C569 0.929 . S
S573 N574 1.613 . S
S573 N575 1.610 1_545 S
N574 S573 1.613 . S
N574 C577 1.350 . S
N575 S573 1.610 1_565 S
N575 C576 1.351 . S
C576 C570 1.428 . S
C576 N575 1.351 . S
C576 C577 1.434 1_565 S
C577 C568 1.429 . S
C577 N574 1.350 . S
C577 C576 1.434 1_545 S
C578 C579 1.369 . S
C578 C580 1.419 . S
C578 H582 0.930 . S
C579 C578 1.369 . S
C579 C588 1.429 . S
C580 C578 1.419 . S
C580 C581 1.363 . S
C580 H583 0.929 . S
C581 C580 1.363 . S
C581 C587 1.428 . S
H582 C578 0.930 . S
H583 C580 0.929 . S
S584 N585 1.613 . S
S584 N586 1.610 . S
N585 S584 1.613 . S
N585 C588 1.350 . S
N586 S584 1.610 . S
N586 C587 1.351 . S
C587 C581 1.428 . S
C587 N586 1.351 . S
C587 C588 1.434 . S
C588 C579 1.429 . S
C588 N585 1.350 . S
C588 C587 1.434 . S
C589 C590 1.369 . S
C589 C591 1.419 1_545 S
C589 H593 0.930 . S
C590 C589 1.369 . S
C590 C599 1.429 . S
C591 C589 1.419 1_565 S
C591 C592 1.363 . S
C591 H594 0.929 . S
C592 C591 1.363 . S
C592 C598 1.428 . S
H593 C589 0.930 . S
H594 C591 0.929 . S
S595 N596 1.613 . S
S595 N597 1.610 1_545 S
N596 S595 1.613 . S
N596 C599 1.350 1_455 S
N597 S595 1.610 1_565 S
N597 C598 1.351 1_455 S
C598 C592 1.428 . S
C598 N597 1.351 1_655 S
C598 C599 1.434 1_565 S
C599 C590 1.429 . S
C599 N596 1.350 1_655 S
C599 C598 1.434 1_545 S
C600 C601 1.369 . S
C600 C602 1.419 1_655 S
C600 H604 0.930 . S
C601 C600 1.369 . S
C601 C610 1.429 . S
C602 C600 1.419 1_455 S
C602 C603 1.363 . S
C602 H605 0.929 . S
C603 C602 1.363 . S
C603 C609 1.428 . S
H604 C600 0.930 . S
H605 C602 0.929 . S
S606 N607 1.613 . S
S606 N608 1.609 1_655 S
N607 S606 1.613 . S
N607 C610 1.350 . S
N608 S606 1.609 1_455 S
N608 C609 1.351 . S
C609 C603 1.428 . S
C609 N608 1.351 . S
C609 C610 1.434 1_455 S
C610 C601 1.429 . S
C610 N607 1.350 . S
C610 C609 1.434 1_655 S
C611 C612 1.369 1_655 S
C611 C613 1.419 . S
C611 H615 0.930 . S
C612 C611 1.369 1_455 S
C612 C621 1.429 . S
C613 C611 1.419 . S
C613 C614 1.363 . S
C613 H616 0.929 . S
C614 C613 1.363 . S
C614 C620 1.428 1_655 S
H615 C611 0.930 . S
H616 C613 0.929 . S
S617 N618 1.613 . S
S617 N619 1.610 . S
N618 S617 1.613 . S
N618 C621 1.350 . S
N619 S617 1.610 . S
N619 C620 1.351 . S
C620 C614 1.428 1_455 S
C620 N619 1.351 . S
C620 C621 1.434 . S
C621 C612 1.429 . S
C621 N618 1.350 . S
C621 C620 1.434 . S
C622 C623 1.369 1_545 S
C622 C624 1.419 . S
C622 H626 0.930 . S
C623 C622 1.369 1_565 S
C623 C632 1.429 . S
C624 C622 1.419 . S
C624 C625 1.363 . S
C624 H627 0.929 . S
C625 C624 1.363 . S
C625 C631 1.428 1_545 S
H626 C622 0.930 . S
H627 C624 0.929 . S
S628 N629 1.613 . S
S628 N630 1.610 . S
N629 S628 1.613 . S
N629 C632 1.350 . S
N630 S628 1.610 . S
N630 C631 1.351 . S
C631 C625 1.428 1_565 S
C631 N630 1.351 . S
C631 C632 1.434 . S
C632 C623 1.429 . S
C632 N629 1.350 . S
C632 C631 1.434 . S
C633 C634 1.369 . S
C633 C635 1.419 . S
C633 H637 0.930 . S
C634 C633 1.369 . S
C634 C643 1.429 . S
C635 C633 1.419 . S
C635 C636 1.363 . S
C635 H638 0.929 . S
C636 C635 1.363 . S
C636 C642 1.428 . S
H637 C633 0.930 . S
H638 C635 0.929 . S
S639 N640 1.613 . S
S639 N641 1.610 . S
N640 S639 1.613 . S
N640 C643 1.350 . S
N641 S639 1.610 . S
N641 C642 1.351 . S
C642 C636 1.428 . S
C642 N641 1.351 . S
C642 C643 1.434 . S
C643 C634 1.429 . S
C643 N640 1.350 . S
C643 C642 1.434 . S
C644 C645 1.369 . S
C644 C646 1.419 . S
C644 H648 0.930 . S
C645 C644 1.369 . S
C645 C654 1.429 1_554 S
C646 C644 1.419 . S
C646 C647 1.363 1_554 S
C646 H649 0.929 . S
C647 C646 1.363 1_556 S
C647 C653 1.428 . S
H648 C644 0.930 . S
H649 C646 0.929 . S
S650 N651 1.613 . S
S650 N652 1.610 . S
N651 S650 1.613 . S
N651 C654 1.350 . S
N652 S650 1.610 . S
N652 C653 1.351 . S
C653 C647 1.428 . S
C653 N652 1.351 . S
C653 C654 1.434 . S
C654 C645 1.429 1_556 S
C654 N651 1.350 . S
C654 C653 1.434 . S
C655 C656 1.369 . S
C655 C657 1.419 . S
C655 H659 0.930 . S
C656 C655 1.369 . S
C656 C665 1.429 . S
C657 C655 1.419 . S
C657 C658 1.363 . S
C657 H660 0.929 . S
C658 C657 1.363 . S
C658 C664 1.428 . S
H659 C655 0.930 . S
H660 C657 0.929 . S
S661 N662 1.613 . S
S661 N663 1.610 . S
N662 S661 1.613 . S
N662 C665 1.350 . S
N663 S661 1.610 . S
N663 C664 1.351 . S
C664 C658 1.428 . S
C664 N663 1.351 . S
C664 C665 1.434 . S
C665 C656 1.429 . S
C665 N662 1.350 . S
C665 C664 1.434 . S
C666 C667 1.369 . S
C666 C668 1.419 . S
C666 H670 0.930 . S
C667 C666 1.369 . S
C667 C676 1.429 . S
C668 C666 1.419 . S
C668 C669 1.363 . S
C668 H671 0.929 . S
C669 C668 1.363 . S
C669 C675 1.428 . S
H670 C666 0.930 . S
H671 C668 0.929 . S
S672 N673 1.613 . S
S672 N674 1.610 . S
N673 S672 1.613 . S
N673 C676 1.350 . S
N674 S672 1.610 . S
N674 C675 1.351 . S
C675 C669 1.428 . S
C675 N674 1.351 . S
C675 C676 1.434 . S
C676 C667 1.429 . S
C676 N673 1.350 . S
C676 C675 1.434 . S
C677 C678 1.369 . S
C677 C679 1.419 . S
C677 H681 0.930 . S
C678 C677 1.369 . S
C678 C687 1.429 . S
C679 C677 1.419 . S
C679 C680 1.363 . S
C679 H682 0.929 . S
C680 C679 1.363 . S
C680 C686 1.428 . S
H681 C677 0.930 . S
H682 C679 0.929 . S
S683 N684 1.613 . S
S683 N685 1.610 . S
N684 S683 1.613 . S
N684 C687 1.350 . S
N685 S683 1.610 . S
N685 C686 1.351 . S
C686 C680 1.428 . S
C686 N685 1.351 . S
C686 C687 1.434 . S
C687 C678 1.429 . S
C687 N684 1.350 . S
C687 C686 1.434 . S
C688 C689 1.369 . S
C688 C690 1.419 . S
C688 H692 0.930 . S
C689 C688 1.369 . S
C689 C698 1.429 . S
C690 C688 1.419 . S
C690 C691 1.363 . S
C690 H693 0.929 . S
C691 C690 1.363 . S
C691 C697 1.428 . S
H692 C688 0.930 . S
H693 C690 0.929 . S
S694 N695 1.613 . S
S694 N696 1.610 . S
N695 S694 1.613 . S
N695 C698 1.350 . S
N696 S694 1.610 . S
N696 C697 1.351 . S
C697 C691 1.428 . S
C697 N696 1.351 . S
C697 C698 1.434 . S
C698 C689 1.429 . S
C698 N695 1.350 . S
C698 C697 1.434 . S
C699 C700 1.369 . S
C699 C701 1.419 . S
C699 H703 0.930 . S
C700 C699 1.369 . S
C700 C709 1.429 . S
C701 C699 1.419 . S
C701 C702 1.363 . S
C701 H704 0.929 . S
C702 C701 1.363 . S
C702 C708 1.428 . S
H703 C699 0.930 . S
H704 C701 0.929 . S
S705 N706 1.613 . S
S705 N707 1.610 . S
N706 S705 1.613 . S
N706 C709 1.350 . S
N707 S705 1.610 . S
N707 C708 1.351 . S
C708 C702 1.428 . S
C708 N707 1.351 . S
C708 C709 1.434 . S
C709 C700 1.429 . S
C709 N706 1.350 . S
C709 C708 1.434 . S
C710 C711 1.369 . S
C710 C712 1.419 . S
C710 H714 0.930 . S
C711 C710 1.369 . S
C711 C720 1.429 1_545 S
C712 C710 1.419 . S
C712 C713 1.363 1_545 S
C712 H715 0.929 . S
C713 C712 1.363 1_565 S
C713 C719 1.428 . S
H714 C710 0.930 . S
H715 C712 0.929 . S
S716 N717 1.613 . S
S716 N718 1.610 . S
N717 S716 1.613 . S
N717 C720 1.350 . S
N718 S716 1.610 . S
N718 C719 1.351 . S
C719 C713 1.428 . S
C719 N718 1.351 . S
C719 C720 1.434 . S
C720 C711 1.429 1_565 S
C720 N717 1.350 . S
C720 C719 1.434 . S
C721 C722 1.369 . S
C721 C723 1.419 . S
C721 H725 0.930 . S
C722 C721 1.369 . S
C722 C731 1.429 1_556 S
C723 C721 1.419 . S
C723 C724 1.363 1_556 S
C723 H726 0.929 . S
C724 C723 1.363 1_554 S
C724 C730 1.428 . S
H725 C721 0.930 . S
H726 C723 0.929 . S
S727 N728 1.613 . S
S727 N729 1.610 . S
N728 S727 1.613 . S
N728 C731 1.350 . S
N729 S727 1.610 . S
N729 C730 1.351 . S
C730 C724 1.428 . S
C730 N729 1.351 . S
C730 C731 1.434 . S
C731 C722 1.429 1_554 S
C731 N728 1.350 . S
C731 C730 1.434 . S
C732 C733 1.369 1_655 S
C732 C734 1.419 1_565 S
C732 H736 0.930 . S
C733 C732 1.369 1_455 S
C733 C742 1.429 . S
C734 C732 1.419 1_545 S
C734 C735 1.363 1_655 S
C734 H737 0.929 . S
C735 C734 1.363 1_455 S
C735 C741 1.428 . S
H736 C732 0.930 . S
H737 C734 0.929 . S
S738 N739 1.613 1_545 S
S738 N740 1.610 . S
N739 S738 1.613 1_565 S
N739 C742 1.350 . S
N740 S738 1.610 . S
N740 C741 1.351 . S
C741 C735 1.428 . S
C741 N740 1.351 . S
C741 C742 1.434 1_545 S
C742 C733 1.429 . S
C742 N739 1.350 . S
C742 C741 1.434 1_565 S
C743 C744 1.369 1_455 S
C743 C745 1.419 . S
C743 H747 0.930 . S
C744 C743 1.369 1_655 S
C744 C753 1.429 . S
C745 C743 1.419 . S
C745 C746 1.363 1_455 S
C745 H748 0.929 . S
C746 C745 1.363 1_655 S
C746 C752 1.428 . S
H747 C743 0.930 . S
H748 C745 0.929 . S
S749 N750 1.613 . S
S749 N751 1.610 . S
N750 S749 1.613 . S
N750 C753 1.350 . S
N751 S749 1.610 . S
N751 C752 1.351 . S
C752 C746 1.428 . S
C752 N751 1.351 . S
C752 C753 1.434 . S
C753 C744 1.429 . S
C753 N750 1.350 . S
C753 C752 1.434 . S
C754 C755 1.376 . S
C754 C756 1.412 1_556 S
C754 H758 0.930 1_556 S
C755 C754 1.376 . S
C755 C764 1.429 1_545 S
C756 C754 1.412 1_554 S
C756 C757 1.363 . S
C756 H759 0.929 . S
C757 C756 1.363 . S
C757 C763 1.428 1_544 S
H758 C754 0.930 1_554 S
H759 C756 0.929 . S
S760 N761 1.613 . S
S760 N762 1.610 . S
N761 S760 1.613 . S
N761 C764 1.350 . S
N762 S760 1.610 . S
N762 C763 1.351 . S
C763 C757 1.428 1_566 S
C763 N762 1.351 . S
C763 C764 1.434 . S
C764 C755 1.429 1_565 S
C764 N761 1.350 . S
C764 C763 1.434 . S
C765 C766 1.369 . S
C765 C767 1.419 1_554 S
C765 H769 0.930 . S
C766 C765 1.369 . S
C766 C775 1.429 . S
C767 C765 1.419 1_556 S
C767 C768 1.363 . S
C767 H770 0.929 . S
C768 C767 1.363 . S
C768 C774 1.428 . S
H769 C765 0.930 . S
H770 C767 0.929 . S
S771 N772 1.613 1_556 S
S771 N773 1.610 . S
N772 S771 1.613 1_554 S
N772 C775 1.350 . S
N773 S771 1.610 . S
N773 C774 1.351 . S
C774 C768 1.428 . S
C774 N773 1.351 . S
C774 C775 1.434 1_556 S
C775 C766 1.429 . S
C775 N772 1.350 . S
C775 C774 1.434 1_554 S
C776 C777 1.369 1_545 S
C776 C778 1.419 . S
C776 H780 0.930 . S
C777 C776 1.369 1_565 S
C777 C786 1.429 . S
C778 C776 1.419 . S
C778 C779 1.363 1_545 S
C778 H781 0.929 . S
C779 C778 1.363 1_565 S
C779 C785 1.428 . S
H780 C776 0.930 . S
H781 C778 0.929 . S
S782 N783 1.613 . S
S782 N784 1.610 . S
N783 S782 1.613 . S
N783 C786 1.350 . S
N784 S782 1.610 . S
N784 C785 1.351 . S
C785 C779 1.428 . S
C785 N784 1.351 . S
C785 C786 1.434 . S
C786 C777 1.429 . S
C786 N783 1.350 . S
C786 C785 1.434 . S
C787 C788 1.369 . S
C787 C789 1.419 . S
C787 H791 0.930 . S
C788 C787 1.369 . S
C788 C797 1.429 . S
C789 C787 1.419 . S
C789 C790 1.363 . S
C789 H792 0.929 . S
C790 C789 1.363 . S
C790 C796 1.428 . S
H791 C787 0.930 . S
H792 C789 0.929 . S
S793 N794 1.613 . S
S793 N795 1.610 . S
N794 S793 1.613 . S
N794 C797 1.350 . S
N795 S793 1.610 . S
N795 C796 1.351 . S
C796 C790 1.428 . S
C796 N795 1.351 . S
C796 C797 1.434 . S
C797 C788 1.429 . S
C797 N794 1.350 . S
C797 C796 1.434 . S
C798 C799 1.369 . S
C798 C800 1.419 1_455 S
C798 H802 0.930 . S
C799 C798 1.369 . S
C799 C808 1.429 1_554 S
C800 C798 1.419 1_655 S
C800 C801 1.363 . S
C800 H803 0.929 . S
C801 C800 1.363 . S
C801 C807 1.428 1_554 S
H802 C798 0.930 . S
H803 C800 0.929 . S
S804 N805 1.613 1_655 S
S804 N806 1.610 . S
N805 S804 1.613 1_455 S
N805 C808 1.350 . S
N806 S804 1.610 . S
N806 C807 1.351 . S
C807 C801 1.428 1_556 S
C807 N806 1.351 . S
C807 C808 1.434 1_655 S
C808 C799 1.429 1_556 S
C808 N805 1.350 . S
C808 C807 1.434 1_455 S
C809 C810 1.369 . S
C809 C811 1.419 . S
C809 H813 0.930 . S
C810 C809 1.369 . S
C810 C819 1.429 1_455 S
C811 C809 1.419 . S
C811 C812 1.363 1_455 S
C811 H814 0.929 . S
C812 C811 1.363 1_655 S
C812 C818 1.428 . S
H813 C809 0.930 . S
H814 C811 0.929 . S
S815 N816 1.613 . S
S815 N817 1.610 . S
N816 S815 1.613 . S
N816 C819 1.350 . S
N817 S815 1.610 . S
N817 C818 1.351 . S
C818 C812 1.428 . S
C818 N817 1.351 . S
C818 C819 1.434 . S
C819 C810 1.429 1_655 S
C819 N816 1.350 . S
C819 C818 1.434 . S
C820 C821 1.369 . S
C820 C822 1.419 . S
C820 H824 0.930 . S
C821 C820 1.369 . S
C821 C830 1.429 . S
C822 C820 1.419 . S
C822 C823 1.363 . S
C822 H825 0.929 . S
C823 C822 1.363 . S
C823 C829 1.428 . S
H824 C820 0.930 . S
H825 C822 0.929 . S
S826 N827 1.613 . S
S826 N828 1.610 . S
N827 S826 1.613 . S
N827 C830 1.350 . S
N828 S826 1.610 . S
N828 C829 1.351 . S
C829 C823 1.428 . S
C829 N828 1.351 . S
C829 C830 1.434 . S
C830 C821 1.429 . S
C830 N827 1.350 . S
C830 C829 1.434 . S
C831 C832 1.369 . S
C831 C833 1.419 . S
C831 H835 0.930 . S
C832 C831 1.369 . S
C832 C841 1.429 . S
C833 C831 1.419 . S
C833 C834 1.363 . S
C833 H836 0.929 . S
C834 C833 1.363 . S
C834 C840 1.428 . S
H835 C831 0.930 . S
H836 C833 0.929 . S
S837 N838 1.613 . S
S837 N839 1.610 . S
N838 S837 1.613 . S
N838 C841 1.350 . S
N839 S837 1.610 . S
N839 C840 1.351 . S
C840 C834 1.428 . S
C840 N839 1.351 . S
C840 C841 1.434 . S
C841 C832 1.429 . S
C841 N838 1.350 . S
C841 C840 1.434 . S
C842 C843 1.369 . S
C842 C844 1.410 1_565 S
C842 H846 0.930 . S
C843 C842 1.369 . S
C843 C852 1.432 . S
C844 C842 1.410 1_545 S
C844 C845 1.372 . S
C844 H847 0.928 1_545 S
C845 C844 1.372 . S
C845 C851 1.428 . S
H846 C842 0.930 . S
H847 C844 0.928 1_565 S
S848 N849 1.613 . S
S848 N850 1.610 . S
N849 S848 1.613 . S
N849 C852 1.349 1_545 S
N850 S848 1.610 . S
N850 C851 1.351 . S
C851 C845 1.428 . S
C851 N850 1.351 . S
C851 C852 1.431 1_545 S
C852 C843 1.432 . S
C852 N849 1.349 1_565 S
C852 C851 1.431 1_565 S
C853 C854 1.369 1_554 S
C853 C855 1.419 . S
C853 H857 0.930 . S
C854 C853 1.369 1_556 S
C854 C863 1.429 . S
C855 C853 1.419 . S
C855 C856 1.363 1_554 S
C855 H858 0.929 . S
C856 C855 1.363 1_556 S
C856 C862 1.428 . S
H857 C853 0.930 . S
H858 C855 0.929 . S
S859 N860 1.613 . S
S859 N861 1.610 . S
N860 S859 1.613 . S
N860 C863 1.350 . S
N861 S859 1.610 . S
N861 C862 1.351 . S
C862 C856 1.428 . S
C862 N861 1.351 . S
C862 C863 1.434 . S
C863 C854 1.429 . S
C863 N860 1.350 . S
C863 C862 1.434 . S
C337 C246 0.898 . S
C339 C7 1.027 . S
C348 C21 1.030 . S
C350 C232 0.917 . S
C359 C35 1.044 . S
C361 C274 0.914 . S
C370 C49 1.044 . S
C372 C260 0.905 . S
C381 C63 1.031 . S
C383 C302 0.899 . S
C392 C77 1.035 . S
C394 C316 0.905 . S
C403 C288 0.915 . S
C405 C91 1.029 . S
C414 C162 0.904 . S
C416 C105 1.041 . S
C425 C119 1.030 . S
C427 C50 0.917 . S
C436 C22 0.900 . S
C438 C133 1.036 . S
C447 C147 1.042 . S
C449 C8 0.932 . S
C458 C161 1.047 . S
C460 C204 0.916 . S
C469 C78 0.927 . S
C471 C175 1.054 . S
C480 C64 0.913 . S
C482 C189 1.041 . S
C491 C203 1.043 . S
C493 C106 0.904 . S
C502 C217 1.040 . S
C504 C92 0.910 . S
C513 C134 0.919 . S
C515 C231 1.048 . S
C524 C148 0.916 . S
C526 C245 1.039 . S
C535 C120 0.914 . S
C537 C259 1.048 . S
C546 C273 1.040 . S
C548 C330 0.906 . S
C557 C218 0.918 . S
C559 C287 1.048 . S
C568 C301 1.041 . S
C570 C190 0.910 . S
C579 C176 0.896 . S
C581 C315 1.037 . S
C590 C329 1.033 . S
C592 C36 0.912 . S
C601 C11 1.607 . S
C603 C25 1.601 . S
C612 C53 1.602 . S
C614 C39 1.603 . S
C623 C67 1.611 . S
C625 C95 1.600 . S
C634 C81 1.620 . S
C636 C109 1.620 . S
C645 C319 1.600 . S
C647 C123 1.608 . S
C656 C137 1.615 . S
C658 C165 1.622 . S
C667 C291 1.612 . S
C669 C151 1.613 . S
C678 C193 1.611 . S
C680 C179 1.613 . S
C689 C207 1.616 . S
C691 C221 1.623 . S
C700 C263 1.609 . S
C702 C235 1.616 . S
C711 C249 1.596 . S
C713 C277 1.606 . S
C722 C333 1.597 . S
C724 C305 1.604 . S
C733 C41 1.254 . S
C735 C13 1.254 . S
C744 C27 1.270 . S
C746 C55 1.256 . S
C755 C279 1.261 . S
C757 C69 1.251 . S
C766 C83 1.254 . S
C768 C265 1.256 . S
C777 C97 1.271 . S
C779 C251 1.256 . S
C788 C237 1.255 . S
C790 C111 1.272 . S
C799 C125 1.252 . S
C801 C335 1.258 . S
C810 C139 1.246 . S
C812 C153 1.264 . S
C821 C293 1.267 . S
C823 C167 1.265 . S
C832 C181 1.267 . S
C834 C209 1.265 . S
C843 C195 1.251 . S
C845 C223 1.259 . S
C854 C321 1.273 . S
C856 C307 1.255 . S
