# Generated by pormake.
# Topology wfj, (8)-cn, num edge types: 1
# Building blocks:
#     Node 0, Type 0, BuildingBlock: TAGTUT_clean_sbu_1, # of connection points: 8
#     Node 1, Type 0, BuildingBlock: TAGTUT_clean_sbu_1, # of connection points: 8
#     Node 2, Type 0, BuildingBlock: TAGTUT_clean_sbu_1, # of connection points: 8
#     Node 3, Type 0, BuildingBlock: TAGTUT_clean_sbu_1, # of connection points: 8
#     Node 4, Type 0, BuildingBlock: TAGTUT_clean_sbu_1, # of connection points: 8
#     Node 5, Type 0, BuildingBlock: TAGTUT_clean_sbu_1, # of connection points: 8
#     Node 6, Type 0, BuildingBlock: TAGTUT_clean_sbu_1, # of connection points: 8
#     Node 7, Type 0, BuildingBlock: TAGTUT_clean_sbu_1, # of connection points: 8
#     Node 8, Type 0, BuildingBlock: TAGTUT_clean_sbu_1, # of connection points: 8
#     Node 9, Type 0, BuildingBlock: TAGTUT_clean_sbu_1, # of connection points: 8
#     Node 10, Type 0, BuildingBlock: TAGTUT_clean_sbu_1, # of connection points: 8
#     Node 11, Type 0, BuildingBlock: TAGTUT_clean_sbu_1, # of connection points: 8
#     Node 12, Type 0, BuildingBlock: TAGTUT_clean_sbu_1, # of connection points: 8
#     Node 13, Type 0, BuildingBlock: TAGTUT_clean_sbu_1, # of connection points: 8
#     Node 14, Type 0, BuildingBlock: TAGTUT_clean_sbu_1, # of connection points: 8
#     Node 15, Type 0, BuildingBlock: TAGTUT_clean_sbu_1, # of connection points: 8
#     Edge 16, Type (0, 0), BuildingBlock: OJICUG_clean_linker_0, # of connection points: 2
#     Edge 17, Type (0, 0), BuildingBlock: OJICUG_clean_linker_0, # of connection points: 2
#     Edge 18, Type (0, 0), BuildingBlock: OJICUG_clean_linker_0, # of connection points: 2
#     Edge 19, Type (0, 0), BuildingBlock: OJICUG_clean_linker_0, # of connection points: 2
#     Edge 20, Type (0, 0), BuildingBlock: OJICUG_clean_linker_0, # of connection points: 2
#     Edge 21, Type (0, 0), BuildingBlock: OJICUG_clean_linker_0, # of connection points: 2
#     Edge 22, Type (0, 0), BuildingBlock: OJICUG_clean_linker_0, # of connection points: 2
#     Edge 23, Type (0, 0), BuildingBlock: OJICUG_clean_linker_0, # of connection points: 2
#     Edge 24, Type (0, 0), BuildingBlock: OJICUG_clean_linker_0, # of connection points: 2
#     Edge 25, Type (0, 0), BuildingBlock: OJICUG_clean_linker_0, # of connection points: 2
#     Edge 26, Type (0, 0), BuildingBlock: OJICUG_clean_linker_0, # of connection points: 2
#     Edge 27, Type (0, 0), BuildingBlock: OJICUG_clean_linker_0, # of connection points: 2
#     Edge 28, Type (0, 0), BuildingBlock: OJICUG_clean_linker_0, # of connection points: 2
#     Edge 29, Type (0, 0), BuildingBlock: OJICUG_clean_linker_0, # of connection points: 2
#     Edge 30, Type (0, 0), BuildingBlock: OJICUG_clean_linker_0, # of connection points: 2
#     Edge 31, Type (0, 0), BuildingBlock: OJICUG_clean_linker_0, # of connection points: 2
#     Edge 32, Type (0, 0), BuildingBlock: OJICUG_clean_linker_0, # of connection points: 2
#     Edge 33, Type (0, 0), BuildingBlock: OJICUG_clean_linker_0, # of connection points: 2
#     Edge 34, Type (0, 0), BuildingBlock: OJICUG_clean_linker_0, # of connection points: 2
#     Edge 35, Type (0, 0), BuildingBlock: OJICUG_clean_linker_0, # of connection points: 2
#     Edge 36, Type (0, 0), BuildingBlock: OJICUG_clean_linker_0, # of connection points: 2
#     Edge 37, Type (0, 0), BuildingBlock: OJICUG_clean_linker_0, # of connection points: 2
#     Edge 38, Type (0, 0), BuildingBlock: OJICUG_clean_linker_0, # of connection points: 2
#     Edge 39, Type (0, 0), BuildingBlock: OJICUG_clean_linker_0, # of connection points: 2
#     Edge 40, Type (0, 0), BuildingBlock: OJICUG_clean_linker_0, # of connection points: 2
#     Edge 41, Type (0, 0), BuildingBlock: OJICUG_clean_linker_0, # of connection points: 2
#     Edge 42, Type (0, 0), BuildingBlock: OJICUG_clean_linker_0, # of connection points: 2
#     Edge 43, Type (0, 0), BuildingBlock: OJICUG_clean_linker_0, # of connection points: 2
#     Edge 44, Type (0, 0), BuildingBlock: OJICUG_clean_linker_0, # of connection points: 2
#     Edge 45, Type (0, 0), BuildingBlock: OJICUG_clean_linker_0, # of connection points: 2
#     Edge 46, Type (0, 0), BuildingBlock: OJICUG_clean_linker_0, # of connection points: 2
#     Edge 47, Type (0, 0), BuildingBlock: OJICUG_clean_linker_0, # of connection points: 2
#     Edge 48, Type (0, 0), BuildingBlock: OJICUG_clean_linker_0, # of connection points: 2
#     Edge 49, Type (0, 0), BuildingBlock: OJICUG_clean_linker_0, # of connection points: 2
#     Edge 50, Type (0, 0), BuildingBlock: OJICUG_clean_linker_0, # of connection points: 2
#     Edge 51, Type (0, 0), BuildingBlock: OJICUG_clean_linker_0, # of connection points: 2
#     Edge 52, Type (0, 0), BuildingBlock: OJICUG_clean_linker_0, # of connection points: 2
#     Edge 53, Type (0, 0), BuildingBlock: OJICUG_clean_linker_0, # of connection points: 2
#     Edge 54, Type (0, 0), BuildingBlock: OJICUG_clean_linker_0, # of connection points: 2
#     Edge 55, Type (0, 0), BuildingBlock: OJICUG_clean_linker_0, # of connection points: 2
#     Edge 56, Type (0, 0), BuildingBlock: OJICUG_clean_linker_0, # of connection points: 2
#     Edge 57, Type (0, 0), BuildingBlock: OJICUG_clean_linker_0, # of connection points: 2
#     Edge 58, Type (0, 0), BuildingBlock: OJICUG_clean_linker_0, # of connection points: 2
#     Edge 59, Type (0, 0), BuildingBlock: OJICUG_clean_linker_0, # of connection points: 2
#     Edge 60, Type (0, 0), BuildingBlock: OJICUG_clean_linker_0, # of connection points: 2
#     Edge 61, Type (0, 0), BuildingBlock: OJICUG_clean_linker_0, # of connection points: 2
#     Edge 62, Type (0, 0), BuildingBlock: OJICUG_clean_linker_0, # of connection points: 2
#     Edge 63, Type (0, 0), BuildingBlock: OJICUG_clean_linker_0, # of connection points: 2
#     Edge 64, Type (0, 0), BuildingBlock: OJICUG_clean_linker_0, # of connection points: 2
#     Edge 65, Type (0, 0), BuildingBlock: OJICUG_clean_linker_0, # of connection points: 2
#     Edge 66, Type (0, 0), BuildingBlock: OJICUG_clean_linker_0, # of connection points: 2
#     Edge 67, Type (0, 0), BuildingBlock: OJICUG_clean_linker_0, # of connection points: 2
#     Edge 68, Type (0, 0), BuildingBlock: OJICUG_clean_linker_0, # of connection points: 2
#     Edge 69, Type (0, 0), BuildingBlock: OJICUG_clean_linker_0, # of connection points: 2
#     Edge 70, Type (0, 0), BuildingBlock: OJICUG_clean_linker_0, # of connection points: 2
#     Edge 71, Type (0, 0), BuildingBlock: OJICUG_clean_linker_0, # of connection points: 2
#     Edge 72, Type (0, 0), BuildingBlock: OJICUG_clean_linker_0, # of connection points: 2
#     Edge 73, Type (0, 0), BuildingBlock: OJICUG_clean_linker_0, # of connection points: 2
#     Edge 74, Type (0, 0), BuildingBlock: OJICUG_clean_linker_0, # of connection points: 2
#     Edge 75, Type (0, 0), BuildingBlock: OJICUG_clean_linker_0, # of connection points: 2
#     Edge 76, Type (0, 0), BuildingBlock: OJICUG_clean_linker_0, # of connection points: 2
#     Edge 77, Type (0, 0), BuildingBlock: OJICUG_clean_linker_0, # of connection points: 2
#     Edge 78, Type (0, 0), BuildingBlock: OJICUG_clean_linker_0, # of connection points: 2
#     Edge 79, Type (0, 0), BuildingBlock: OJICUG_clean_linker_0, # of connection points: 2
# Relax obj value: 0.314
# Max RMSD: 0.281
# Mean RMSD: 0.281
data_MOF--net-wfj--node1-TAGTUT_clean_sbu_1--edge1-OJICUG_clean_linker_0
_symmetry_space_group_name_H-M    P1
_symmetry_Int_Tables_number       1
_symmetry_cell_setting            triclinic
loop_
_symmetry_equiv_pos_as_xyz
'x, y, z'
_cell_length_a     47.171546
_cell_length_b     47.419218
_cell_length_c     12.195931
_cell_angle_alpha  89.816857
_cell_angle_beta   90.20692
_cell_angle_gamma 90.049013
loop_
_atom_site_label
_atom_site_type_symbol
_atom_site_fract_x
_atom_site_fract_y
_atom_site_fract_z
_atom_type_partial_charge
C0 C 0.26652 0.2966 0.44052 0.0
C1 C 0.23024 0.28292 0.7271 0.0
C2 C 0.13757 0.30147 0.4994 0.0
Mg3 Mg 0.24857 0.33531 0.64598 0.0
O4 O 0.21821 0.33338 0.54139 0.0
Mg5 Mg 0.2005 0.2948 0.5033 0.0
Mg6 Mg 0.18109 0.35283 0.56743 0.0
O7 O 0.14387 0.36909 0.58981 0.0
Mg8 Mg 0.11741 0.3664 0.47095 0.0
Mg9 Mg 0.15411 0.40551 0.65486 0.0
C10 C 0.22883 0.39468 0.62081 0.0
C11 C 0.17634 0.36235 0.83723 0.0
O12 O 0.2428 0.28389 0.44593 0.0
O13 O 0.27349 0.31727 0.50368 0.0
O14 O 0.2077 0.27635 0.67624 0.0
O15 O 0.2311 0.30739 0.76653 0.0
O16 O 0.2327 0.37652 0.69568 0.0
O17 O 0.20331 0.39796 0.5827 0.0
C18 C 0.18433 0.33777 0.30475 0.0
O19 O 0.17828 0.35677 0.37613 0.0
O20 O 0.19252 0.31325 0.33435 0.0
O21 O 0.10395 0.40195 0.71031 0.0
O22 O 0.08333 0.37577 0.57801 0.0
O23 O 0.14507 0.42832 0.49912 0.0
C24 C 0.08231 0.38808 0.67112 0.0
O25 O 0.12582 0.40478 0.36088 0.0
O26 O 0.11918 0.3182 0.45448 0.0
C27 C 0.1367 0.42758 0.40045 0.0
O28 O 0.15892 0.31115 0.55069 0.0
O29 O 0.18456 0.34584 0.76067 0.0
O30 O 0.16467 0.38557 0.81361 0.0
C31 C 0.46462 0.50331 0.69978 0.0
C32 C 0.49694 0.45767 0.92892 0.0
C33 C 0.47037 0.38021 0.69834 0.0
Mg34 Mg 0.44295 0.48202 0.8867 0.0
O35 O 0.44274 0.45917 0.74826 0.0
Mg36 Mg 0.48375 0.44153 0.6808 0.0
Mg37 Mg 0.42077 0.4231 0.77092 0.0
O38 O 0.40288 0.38627 0.78922 0.0
Mg39 Mg 0.40374 0.36195 0.66494 0.0
Mg40 Mg 0.36681 0.39636 0.85986 0.0
C41 C 0.38054 0.46967 0.85497 0.0
C42 C 0.41076 0.41378 0.04069 0.0
O43 O 0.4546 0.47816 0.70698 0.0
O44 O 0.46148 0.51823 0.78582 0.0
O45 O 0.50903 0.45258 0.83825 0.0
O46 O 0.47179 0.44979 0.93906 0.0
O47 O 0.39933 0.47061 0.92993 0.0
O48 O 0.37677 0.44624 0.80195 0.0
C49 C 0.43486 0.42591 0.50377 0.0
O50 O 0.41581 0.42233 0.57818 0.0
O51 O 0.46036 0.43212 0.52776 0.0
O52 O 0.36811 0.34555 0.90238 0.0
O53 O 0.39308 0.32628 0.76433 0.0
O54 O 0.34301 0.39191 0.70616 0.0
C55 C 0.38098 0.32419 0.85786 0.0
O56 O 0.36486 0.37533 0.55986 0.0
O57 O 0.45264 0.3625 0.65484 0.0
C58 C 0.34269 0.38616 0.60526 0.0
O59 O 0.46196 0.40253 0.74517 0.0
O60 O 0.42725 0.42246 0.96445 0.0
O61 O 0.38715 0.40284 0.01777 0.0
C62 C 0.26622 0.72209 0.92508 0.0
C63 C 0.31521 0.74403 0.19694 0.0
C64 C 0.39072 0.71373 0.95683 0.0
Mg65 Mg 0.27845 0.69382 0.10617 0.0
O66 O 0.30723 0.69407 0.98531 0.0
Mg67 Mg 0.33127 0.73213 0.93295 0.0
Mg68 Mg 0.3412 0.66888 0.01547 0.0
O69 O 0.37628 0.64819 0.04228 0.0
Mg70 Mg 0.40511 0.64715 0.93256 0.0
Mg71 Mg 0.36305 0.61419 0.11784 0.0
C72 C 0.29032 0.63175 0.08816 0.0
C73 C 0.34493 0.66077 0.28653 0.0
O74 O 0.28994 0.70929 0.93903 0.0
O75 O 0.2473 0.71662 -0.00333 0.0
O76 O 0.32546 0.75106 0.10388 0.0
O77 O 0.29878 0.72288 0.20954 0.0
O78 O 0.28921 0.65114 0.15951 0.0
O79 O 0.31455 0.62629 0.04271 0.0
C80 C 0.34288 0.68428 0.74976 0.0
O81 O 0.34339 0.66449 0.82298 0.0
O82 O 0.3397 0.7102 0.77472 0.0
O83 O 0.41331 0.61448 0.18149 0.0
O84 O 0.43733 0.63644 0.04684 0.0
O85 O 0.37121 0.58889 0.96994 0.0
C86 C 0.43647 0.62585 0.14318 0.0
O87 O 0.3949 0.60734 0.83089 0.0
O88 O 0.40875 0.69545 0.92037 0.0
C89 C 0.38097 0.58663 0.87402 0.0
O90 O 0.36676 0.70623 0.99299 0.0
O91 O 0.33938 0.67776 0.20739 0.0
O92 O 0.35363 0.63618 0.26834 0.0
C93 C 0.04627 0.51259 0.20832 0.0
C94 C 0.01914 0.55953 0.43019 0.0
C95 C 0.04706 0.63642 0.20159 0.0
Mg96 Mg 0.0725 0.53251 0.38707 0.0
O97 O 0.07204 0.55561 0.248 0.0
Mg98 Mg 0.03142 0.57576 0.18252 0.0
Mg99 Mg 0.0957 0.59106 0.27096 0.0
O100 O 0.11516 0.62712 0.29083 0.0
Mg101 Mg 0.11378 0.65431 0.17546 0.0
Mg102 Mg 0.15128 0.61535 0.3595 0.0
C103 C 0.13515 0.54321 0.35534 0.0
C104 C 0.10698 0.59892 0.54126 0.0
O105 O 0.05673 0.53753 0.21361 0.0
O106 O 0.05329 0.49628 0.28721 0.0
O107 O 1.00611 0.56643 0.34277 0.0
O108 O 0.04475 0.56608 0.43663 0.0
O109 O 0.11639 0.54287 0.42991 0.0
O110 O 0.13915 0.56633 0.30013 0.0
C111 C 0.08103 0.58859 0.00389 0.0
O112 O 0.10013 0.59194 0.07869 0.0
O113 O 0.05531 0.58309 0.02746 0.0
O114 O 0.1529 0.66556 0.40947 0.0
O115 O 0.12568 0.68763 0.28354 0.0
O116 O 0.17425 0.62169 0.20319 0.0
C117 C 0.13996 0.68795 0.37295 0.0
O118 O 0.15232 0.64402 0.06727 0.0
O119 O 0.065 0.65467 0.16325 0.0
C120 C 0.17417 0.63077 0.10553 0.0
O121 O 0.05525 0.61348 0.24534 0.0
O122 O 0.08979 0.59178 0.46464 0.0
O123 O 0.13134 0.60815 0.51863 0.0
C124 C 0.93653 0.62882 0.39157 0.0
C125 C 0.88424 0.59018 0.6653 0.0
C126 C 0.79095 0.63203 0.44807 0.0
Mg127 Mg 0.90617 0.65129 0.60071 0.0
O128 O 0.8766 0.65084 0.49367 0.0
Mg129 Mg 0.86358 0.61625 0.42118 0.0
Mg130 Mg 0.84129 0.67086 0.52041 0.0
O131 O 0.80695 0.69509 0.54914 0.0
Mg132 Mg 0.77839 0.69406 0.42645 0.0
Mg133 Mg 0.82992 0.73374 0.60166 0.0
C134 C 0.89009 0.71744 0.57358 0.0
C135 C 0.84283 0.68616 0.78601 0.0
O136 O 0.91348 0.61664 0.35595 0.0
O137 O 0.93756 0.64054 0.48553 0.0
O138 O 0.8732 0.59153 0.57078 0.0
O139 O 0.89822 0.61141 0.70412 0.0
O140 O 0.90901 0.69974 0.60829 0.0
O141 O 0.86601 0.70907 0.54121 0.0
C142 C 0.84451 0.66227 0.24974 0.0
O143 O 0.83908 0.67936 0.3281 0.0
O144 O 0.85326 0.63769 0.26911 0.0
O145 O 0.78928 0.70961 0.59344 0.0
O146 O 0.74656 0.71624 0.53346 0.0
O147 O 0.82382 0.75248 0.4304 0.0
C148 C 0.76526 0.7219 0.60608 0.0
O149 O 0.79849 0.72345 0.32319 0.0
O150 O 0.7892 0.65122 0.37546 0.0
C151 C 0.81425 0.74507 0.33664 0.0
O152 O 0.81523 0.62794 0.49603 0.0
O153 O 0.84387 0.6665 0.71294 0.0
O154 O 0.83892 0.71201 0.76077 0.0
C155 C 0.63968 0.68649 0.16517 0.0
C156 C 0.67446 0.62938 0.43454 0.0
C157 C 0.63138 0.54059 0.18851 0.0
Mg158 Mg 0.61376 0.65369 0.36507 0.0
O159 O 0.61471 0.6255 0.254 0.0
Mg160 Mg 0.65006 0.61333 0.18354 0.0
Mg161 Mg 0.59502 0.58962 0.27688 0.0
O162 O 0.57081 0.55468 0.30366 0.0
Mg163 Mg 0.56678 0.53457 0.15974 0.0
Mg164 Mg 0.53181 0.57533 0.37627 0.0
C165 C 0.54686 0.63606 0.34185 0.0
C166 C 0.58349 0.58678 0.54535 0.0
O167 O 0.6524 0.66379 0.13087 0.0
O168 O 0.62546 0.68655 0.25423 0.0
O169 O 0.67394 0.61943 0.33836 0.0
O170 O 0.65312 0.64359 0.47127 0.0
O171 O 0.56482 0.65495 0.37493 0.0
O172 O 0.55516 0.61244 0.30599 0.0
C173 C 0.60464 0.59837 0.00671 0.0
O174 O 0.58786 0.59029 0.08321 0.0
O175 O 0.62908 0.60743 0.02826 0.0
O176 O 0.5565 0.53629 0.34059 0.0
O177 O 0.54362 0.49936 0.25009 0.0
O178 O 0.50439 0.56763 0.22207 0.0
C179 C 0.54255 0.51301 0.34005 0.0
O180 O 0.53996 0.56928 0.11121 0.0
O181 O 0.6118 0.54099 0.11593 0.0
C182 C 0.51416 0.56404 0.12618 0.0
O183 O 0.63711 0.56365 0.24243 0.0
O184 O 0.60173 0.59062 0.46839 0.0
O185 O 0.5575 0.58178 0.52598 0.0
C186 C 0.58213 0.38588 0.88553 0.0
C187 C 0.63608 0.42364 0.15815 0.0
C188 C 0.72752 0.39321 0.92663 0.0
Mg189 Mg 0.61694 0.36179 0.08484 0.0
O190 O 0.64451 0.36541 0.97261 0.0
Mg191 Mg 0.65416 0.40232 0.90726 0.0
Mg192 Mg 0.68197 0.34902 -0.001 0.0
O193 O 0.71892 0.32919 0.0288 0.0
Mg194 Mg 0.74549 0.3333 0.90107 0.0
Mg195 Mg 0.70246 0.28715 0.08865 0.0
C196 C 0.63939 0.29666 0.0496 0.0
C197 C 0.68211 0.33381 0.26549 0.0
O198 O 0.60393 0.40006 0.84994 0.0
O199 O 0.58311 0.37205 0.97566 0.0
O200 O 0.64516 0.42476 0.06097 0.0
O201 O 0.62471 0.40069 0.19531 0.0
O202 O 0.61949 0.31309 0.08553 0.0
O203 O 0.66287 0.30662 0.01641 0.0
C204 C 0.67572 0.35952 0.72872 0.0
O205 O 0.68405 0.34297 0.80565 0.0
O206 O 0.66426 0.38281 0.75084 0.0
O207 O 0.73805 0.31875 0.07695 0.0
O208 O 0.78069 0.31747 0.01498 0.0
O209 O 0.71778 0.26444 0.93109 0.0
C210 C 0.76397 0.31149 0.09377 0.0
O211 O 0.71859 0.30207 0.83109 0.0
O212 O 0.73043 0.37499 0.85162 0.0
C213 C 0.72878 0.2783 0.85257 0.0
O214 O 0.70345 0.39425 0.97753 0.0
O215 O 0.67876 0.35292 0.19109 0.0
O216 O 0.68911 0.30865 0.24171 0.0
C217 C 0.88229 0.32737 0.66448 0.0
C218 C 0.84369 0.38874 0.91846 0.0
C219 C 0.88849 0.47294 0.67388 0.0
Mg220 Mg 0.90409 0.3626 0.86585 0.0
O221 O 0.90548 0.3885 0.74541 0.0
Mg222 Mg 0.87079 0.40023 0.66786 0.0
Mg223 Mg 0.92568 0.42429 0.76367 0.0
O224 O 0.9505 0.45926 0.78567 0.0
Mg225 Mg 0.95238 0.48083 0.64289 0.0
Mg226 Mg 0.98971 0.43798 0.85834 0.0
C227 C 0.97149 0.37833 0.84749 0.0
C228 C 0.93829 0.42893 0.03159 0.0
O229 O 0.87031 0.34959 0.62174 0.0
O230 O 0.89382 0.32815 0.75964 0.0
O231 O 0.84577 0.39604 0.81913 0.0
O232 O 0.86444 0.37557 0.96538 0.0
O233 O 0.9526 0.36134 0.88777 0.0
O234 O 0.96469 0.40081 0.79723 0.0
C235 C 0.91647 0.41495 0.4925 0.0
O236 O 0.93277 0.42325 0.57017 0.0
O237 O 0.89222 0.40535 0.51281 0.0
O238 O 0.96708 0.47681 0.81748 0.0
O239 O 0.97372 0.51681 0.73698 0.0
O240 O 0.0166 0.44386 0.69967 0.0
C241 C 0.97935 0.50091 0.81878 0.0
O242 O 0.97929 0.44588 0.59734 0.0
O243 O 0.90762 0.47305 0.60022 0.0
C244 C 1.00536 0.45035 0.60815 0.0
O245 O 0.88339 0.44966 0.72669 0.0
O246 O 0.91989 0.42433 0.95523 0.0
O247 O 0.96426 0.43409 0.01136 0.0
C248 C 0.76363 0.8099 0.92747 0.0
C249 C 0.72675 0.77769 0.16694 0.0
C250 C 0.63901 0.79775 0.96408 0.0
Mg251 Mg 0.74519 0.83216 0.11812 0.0
O252 O 0.719 0.82902 0.98833 0.0
Mg253 Mg 0.70174 0.78727 0.9284 0.0
Mg254 Mg 0.68238 0.84952 0.01637 0.0
O255 O 0.64517 0.86636 0.0407 0.0
Mg256 Mg 0.61762 0.86313 0.92721 0.0
Mg257 Mg 0.65523 0.90308 0.10569 0.0
C258 C 0.7288 0.89243 0.08871 0.0
C259 C 0.67611 0.86018 0.28623 0.0
O260 O 0.73793 0.81807 0.94195 0.0
O261 O 0.78028 0.81526 0.0075 0.0
O262 O 0.71632 0.76404 0.08681 0.0
O263 O 0.71691 0.8017 0.18541 0.0
O264 O 0.73116 0.87425 0.16466 0.0
O265 O 0.70462 0.89456 0.03814 0.0
C266 C 0.68252 0.83444 0.75014 0.0
O267 O 0.6794 0.85356 0.82408 0.0
O268 O 0.68908 0.80916 0.77461 0.0
O269 O 0.60501 0.901 0.16178 0.0
O270 O 0.58381 0.87355 0.03526 0.0
O271 O 0.64665 0.92545 0.95047 0.0
C272 C 0.58308 0.88705 0.12586 0.0
O273 O 0.62623 0.90169 0.81531 0.0
O274 O 0.61944 0.81445 0.92658 0.0
C275 C 0.63783 0.92448 0.85265 0.0
O276 O 0.66254 0.8074 -0.00129 0.0
O277 O 0.68415 0.84349 0.20997 0.0
O278 O 0.66502 0.88364 0.26316 0.0
C279 C 0.96966 1.00422 0.20205 0.0
C280 C 1.00026 0.95795 0.43244 0.0
C281 C 0.97213 0.881 0.20696 0.0
Mg282 Mg 0.94703 0.9839 0.38866 0.0
O283 O 0.94624 0.96088 0.25072 0.0
Mg284 Mg 0.98684 0.94189 0.18464 0.0
Mg285 Mg 0.92324 0.92545 0.27482 0.0
O286 O 0.90447 0.88912 0.29478 0.0
Mg287 Mg 0.90525 0.86335 0.17469 0.0
Mg288 Mg 0.86861 0.90032 0.36428 0.0
C289 C 0.88426 0.97341 0.35554 0.0
C290 C 0.91266 0.9173 0.54487 0.0
O291 O 0.95886 0.97941 0.20943 0.0
O292 O 0.96673 0.01941 0.28746 0.0
O293 O 0.01234 0.95258 0.34201 0.0
O294 O 0.97487 0.95081 0.44176 0.0
O295 O 0.90298 0.97401 0.4309 0.0
O296 O 0.87976 0.94988 0.30374 0.0
C297 C 0.93757 0.92729 0.00791 0.0
O298 O 0.91841 0.92436 0.08229 0.0
O299 O 0.96324 0.93279 0.03181 0.0
O300 O 0.86885 0.84968 0.41246 0.0
O301 O 0.89397 0.82872 0.2788 0.0
O302 O 0.84528 0.89503 0.20959 0.0
C303 C 0.88141 0.82763 0.37162 0.0
O304 O 0.86645 0.87574 0.06701 0.0
O305 O 0.95424 0.8631 0.16562 0.0
C306 C 0.84465 0.8879 0.11 0.0
O307 O 0.96392 0.90379 0.25071 0.0
O308 O 0.92955 0.92509 0.46852 0.0
O309 O 0.88867 0.90723 0.52207 0.0
C310 C 0.76848 0.22443 0.42209 0.0
C311 C 0.81699 0.24644 0.69449 0.0
C312 C 0.89315 0.21812 0.46111 0.0
Mg313 Mg 0.78087 0.19583 0.60191 0.0
O314 O 0.80986 0.19679 0.48169 0.0
Mg315 Mg 0.83345 0.2353 0.43059 0.0
Mg316 Mg 0.84418 0.17212 0.51313 0.0
O317 O 0.87953 0.1519 0.54172 0.0
Mg318 Mg 0.90884 0.15158 0.43413 0.0
Mg319 Mg 0.86648 0.11751 0.61598 0.0
C320 C 0.79368 0.13392 0.58024 0.0
C321 C 0.84731 0.16379 0.78437 0.0
O322 O 0.79244 0.21209 0.43626 0.0
O323 O 0.74949 0.21835 0.49263 0.0
O324 O 0.8271 0.25385 0.60165 0.0
O325 O 0.80087 0.22501 0.70644 0.0
O326 O 0.79162 0.15292 0.65297 0.0
O327 O 0.81836 0.12909 0.53769 0.0
C328 C 0.84611 0.18766 0.24744 0.0
O329 O 0.8469 0.16791 0.32077 0.0
O330 O 0.84251 0.21354 0.27225 0.0
O331 O 0.91643 0.11779 0.68193 0.0
O332 O 0.94065 0.14068 0.55012 0.0
O333 O 0.87532 0.09249 0.46861 0.0
C334 C 0.9396 0.12948 0.64543 0.0
O335 O 0.89917 0.11158 0.33122 0.0
O336 O 0.91188 0.20024 0.42669 0.0
C337 C 0.88538 0.09057 0.37311 0.0
O338 O 0.869 0.21 0.49286 0.0
O339 O 0.84169 0.18072 0.7051 0.0
O340 O 0.85636 0.1393 0.76639 0.0
C341 C 0.54816 0.01316 0.65904 0.0
C342 C 0.51998 0.06055 0.88891 0.0
C343 C 0.55051 0.13615 0.66255 0.0
Mg344 Mg 0.57215 0.03288 0.84459 0.0
O345 O 0.57437 0.05529 0.70558 0.0
Mg346 Mg 0.53442 0.07575 0.63976 0.0
Mg347 Mg 0.59841 0.09008 0.73221 0.0
O348 O 0.61819 0.12576 0.75502 0.0
Mg349 Mg 0.61729 0.15389 0.64281 0.0
Mg350 Mg 0.65382 0.11334 0.82473 0.0
C351 C 0.63581 0.04078 0.81482 0.0
C352 C 0.60934 0.09674 0.00274 0.0
O353 O 0.56095 0.03706 0.66334 0.0
O354 O 0.54996 0.99841 0.74657 0.0
O355 O 0.50859 0.06534 0.79618 0.0
O356 O 0.54563 0.06666 0.89951 0.0
O357 O 0.6167 0.04068 0.88838 0.0
O358 O 0.64122 0.06418 0.76251 0.0
C359 C 0.58413 0.08939 0.46518 0.0
O360 O 0.60341 0.09154 0.54 0.0
O361 O 0.5583 0.08466 0.48832 0.0
O362 O 0.65528 0.1636 0.87979 0.0
O363 O 0.6284 0.18653 0.75518 0.0
O364 O 0.67716 0.12055 0.67074 0.0
C365 C 0.64235 0.18626 0.84534 0.0
O366 O 0.65638 0.14458 0.53661 0.0
O367 O 0.56866 0.15443 0.62602 0.0
C368 C 0.67777 0.13056 0.5746 0.0
O369 O 0.55837 0.1131 0.70625 0.0
O370 O 0.59197 0.09023 0.92584 0.0
O371 O 0.63382 0.10558 0.98082 0.0
C372 C 0.43904 0.12512 0.83857 0.0
C373 C 0.3832 0.08549 0.10373 0.0
C374 C 0.29215 0.12993 0.90483 0.0
Mg375 Mg 0.40645 0.14581 0.04587 0.0
O376 O 0.37938 0.14644 0.9277 0.0
Mg377 Mg 0.36595 0.11224 0.85486 0.0
Mg378 Mg 0.34411 0.16619 0.95042 0.0
O379 O 0.30951 0.18973 0.97909 0.0
Mg380 Mg 0.27598 0.19131 0.89614 0.0
Mg381 Mg 0.33257 0.2261 0.99022 0.0
C382 C 0.39236 0.2116 0.02498 0.0
C383 C 0.34076 0.18498 0.2082 0.0
O384 O 0.41633 0.11352 0.79692 0.0
O385 O 0.43924 0.13556 0.93511 0.0
O386 O 0.37419 0.08728 0.00609 0.0
O387 O 0.39615 0.10658 0.14796 0.0
O388 O 0.4091 0.19371 0.07245 0.0
O389 O 0.37122 0.20328 0.96985 0.0
C390 C 0.34698 0.15831 0.6767 0.0
O391 O 0.34111 0.17471 0.7566 0.0
O392 O 0.35618 0.13381 0.69635 0.0
O393 O 0.2919 0.25026 -0.00354 0.0
O394 O 0.25964 0.2178 0.03301 0.0
O395 O 0.33148 0.23564 0.80806 0.0
C396 C 0.27033 0.24238 0.04908 0.0
O397 O 0.28979 0.21609 0.76907 0.0
O398 O 0.28912 0.14996 0.83705 0.0
C399 C 0.31157 0.23009 0.74064 0.0
O400 O 0.31769 0.12319 0.93458 0.0
O401 O 0.3456 0.16448 0.14107 0.0
O402 O 0.33512 0.21014 0.17311 0.0
C403 C 0.14172 0.18841 0.67144 0.0
C404 C 0.1777 0.13019 0.93358 0.0
C405 C 0.13486 0.04294 0.68799 0.0
Mg406 Mg 0.11677 0.15458 0.87018 0.0
O407 O 0.11729 0.12748 0.75506 0.0
Mg408 Mg 0.15258 0.11562 0.68315 0.0
Mg409 Mg 0.0978 0.0915 0.7768 0.0
O410 O 0.0739 0.05638 0.80247 0.0
Mg411 Mg 0.07044 0.03592 0.65879 0.0
Mg412 Mg 0.03471 0.07658 0.87563 0.0
C413 C 0.04976 0.13742 0.84564 0.0
C414 C 0.08627 0.08827 0.04527 0.0
O415 O 0.15445 0.16608 0.634 0.0
O416 O 0.12806 0.18796 0.76179 0.0
O417 O 0.17672 0.12112 0.83635 0.0
O418 O 0.15648 0.14389 0.97388 0.0
O419 O 0.06787 0.15587 0.88126 0.0
O420 O 0.05785 0.11405 0.80666 0.0
C421 C 0.10711 0.10066 0.50658 0.0
O422 O 0.09058 0.09221 0.58323 0.0
O423 O 0.13141 0.11008 0.52791 0.0
O424 O 0.05979 0.03791 0.83881 0.0
O425 O 0.04822 1.00025 0.7502 0.0
O426 O 1.00737 0.06893 0.72101 0.0
C427 C 0.0466 0.01419 0.83931 0.0
O428 O 0.04317 0.07037 0.61128 0.0
O429 O 0.11535 0.04295 0.61514 0.0
C430 C 0.01741 0.06487 0.62585 0.0
O431 O 0.14006 0.06606 0.74184 0.0
O432 O 0.10447 0.09236 0.96834 0.0
O433 O 0.06034 0.08298 0.02582 0.0
C434 C 0.08376 0.88795 0.39564 0.0
C435 C 0.13894 0.92613 0.66485 0.0
C436 C 0.22949 0.89277 0.4299 0.0
Mg437 Mg 0.11864 0.86472 0.59579 0.0
O438 O 0.14596 0.86717 0.48188 0.0
Mg439 Mg 0.15617 0.90356 0.41431 0.0
Mg440 Mg 0.18306 0.85 0.50706 0.0
O441 O 0.21958 0.82927 0.53611 0.0
Mg442 Mg 0.24581 0.83224 0.40718 0.0
Mg443 Mg 0.20218 0.78773 0.59695 0.0
C444 C 0.13942 0.79919 0.56511 0.0
C445 C 0.18333 0.83499 0.77349 0.0
O446 O 0.1057 0.90164 0.35835 0.0
O447 O 0.08468 0.87477 0.48722 0.0
O448 O 0.14788 0.92652 0.56739 0.0
O449 O 0.12712 0.90366 0.70402 0.0
O450 O 0.12027 0.81625 0.60227 0.0
O451 O 0.16281 0.80827 0.52721 0.0
C452 C 0.17649 0.86016 0.23672 0.0
O453 O 0.18455 0.84349 0.31373 0.0
O454 O 0.16554 0.88367 0.25869 0.0
O455 O 0.23853 0.81844 0.5845 0.0
O456 O 0.2808 0.81536 0.51998 0.0
O457 O 0.21674 0.76436 0.4396 0.0
C458 C 0.26419 0.81017 0.6 0.0
O459 O 0.21788 0.80174 0.33859 0.0
O460 O 0.2316 0.87411 0.35615 0.0
C461 C 0.22758 0.77777 0.35963 0.0
O462 O 0.20569 0.89468 0.48251 0.0
O463 O 0.18039 0.85421 0.69921 0.0
O464 O 0.18966 0.80966 0.74962 0.0
C465 C 0.3824 0.82379 0.15051 0.0
C466 C 0.34499 0.88617 0.40246 0.0
C467 C 0.38379 0.96878 0.14227 0.0
Mg468 Mg 0.40573 0.8608 0.34452 0.0
O469 O 0.40518 0.88581 0.22169 0.0
Mg470 Mg 0.3695 0.89606 0.14757 0.0
Mg471 Mg 0.42296 0.92275 0.24053 0.0
O472 O 0.44491 0.95906 0.26387 0.0
Mg473 Mg 0.44733 0.97955 0.11947 0.0
Mg474 Mg 0.48489 0.94143 0.34083 0.0
C475 C 0.47231 0.87961 0.31826 0.0
C476 C 0.43399 0.92721 0.50967 0.0
O477 O 0.36974 0.84548 0.10692 0.0
O478 O 0.39489 0.82542 0.24369 0.0
O479 O 0.34533 0.89234 0.30156 0.0
O480 O 0.36686 0.87439 0.44744 0.0
O481 O 0.45462 0.86117 0.35703 0.0
O482 O 0.46376 0.90234 0.27444 0.0
C483 C 0.41473 0.91179 0.97086 0.0
O484 O 0.43058 0.92156 0.04757 0.0
O485 O 0.39096 0.901 0.99191 0.0
O486 O 0.45729 0.97855 0.30107 0.0
O487 O 0.46669 0.01668 0.21127 0.0
O488 O 0.51197 0.95043 0.18696 0.0
C489 C 0.46874 1.00315 0.30163 0.0
O490 O 0.47668 0.94698 0.07438 0.0
O491 O 0.40349 0.96918 0.07104 0.0
C492 C 0.50193 0.95419 0.09119 0.0
O493 O 0.37988 0.94609 0.2003 0.0
O494 O 0.41607 0.92215 0.43219 0.0
O495 O 0.4596 0.93391 0.49082 0.0
C496 C 0.15609 0.25165 0.47975 0.0
C497 C 0.13375 0.27019 0.50813 0.0
H498 H 0.17666 0.21149 0.50788 0.0
C499 C 0.11273 0.25988 0.57833 0.0
H500 H 0.17257 0.25868 0.42464 0.0
C501 C 0.11521 0.23305 0.62638 0.0
C502 C 0.13881 0.21536 0.60611 0.0
H503 H 0.09558 0.27352 0.60401 0.0
H504 H 0.09892 0.22666 0.68369 0.0
C505 C 0.15857 0.22453 0.5277 0.0
C506 C 0.50962 0.357 0.7982 0.0
C507 C 0.50141 0.3747 0.71172 0.0
H508 H 0.54043 0.34688 0.91999 0.0
C509 C 0.52161 0.39448 0.67312 0.0
H510 H 0.49462 0.34206 0.83228 0.0
C511 C 0.54818 0.39806 0.72593 0.0
C512 C 0.55521 0.38196 0.81924 0.0
H513 H 0.51616 0.40843 0.60594 0.0
H514 H 0.56255 0.41422 0.69671 0.0
C515 C 0.53587 0.36054 0.85082 0.0
C516 C 0.40529 0.77583 0.13253 0.0
C517 C 0.38696 0.79661 0.08813 0.0
H518 H 0.42262 0.73416 0.12081 0.0
C519 C 0.37552 0.79142 0.98323 0.0
H520 H 0.41528 0.77884 0.21169 0.0
C521 C 0.38055 0.76547 0.92936 0.0
C522 C 0.39731 0.74405 0.97811 0.0
H523 H 0.36192 0.80692 0.94441 0.0
H524 H 0.36961 0.76134 0.85285 0.0
C525 C 0.41042 0.75025 0.07851 0.0
C526 C 0.9819 0.65516 0.3543 0.0
C527 C 0.96261 0.63374 0.32193 0.0
H528 H 0.02301 0.67392 0.33694 0.0
C529 C 0.96923 0.61854 0.22656 0.0
H530 H 0.97755 0.66836 0.42455 0.0
C531 C 0.99562 0.62272 0.17335 0.0
C532 C 0.01603 0.64204 0.21421 0.0
H533 H 0.95484 0.60252 0.19644 0.0
H534 H 1.0008 0.60946 0.10427 0.0
C535 C 1.00797 0.65919 0.3017 0.0
C536 C 0.90932 0.75416 0.44998 0.0
C537 C 0.8957 0.74793 0.54909 0.0
H538 H 0.91491 0.78276 0.31675 0.0
C539 C 0.87838 0.76925 0.59474 0.0
H540 H 0.92195 0.73817 0.40988 0.0
C541 C 0.87357 0.79522 0.53955 0.0
C542 C 0.88571 0.80052 0.43612 0.0
H543 H 0.86712 0.76516 0.67032 0.0
H544 H 0.85963 0.81065 0.57617 0.0
C545 C 0.90439 0.77974 0.39467 0.0
C546 C 0.49509 0.62305 0.36733 0.0
C547 C 0.51588 0.64145 0.32304 0.0
H548 H 0.45404 0.60307 0.34727 0.0
C549 C 0.50848 0.65661 0.22858 0.0
H550 H 0.4999 0.61096 0.44045 0.0
C551 C 0.48266 0.65168 0.17436 0.0
C552 C 0.46278 0.63139 0.21215 0.0
H553 H 0.52387 0.67041 0.19011 0.0
H554 H 0.47887 0.66334 0.09925 0.0
C555 C 0.46882 0.61819 0.31312 0.0
C556 C 0.6158 0.25841 0.94305 0.0
C557 C 0.63498 0.26588 0.02598 0.0
H558 H 0.60333 0.22844 0.82213 0.0
C559 C 0.65544 0.24549 0.05743 0.0
H560 H 0.60022 0.27355 0.91444 0.0
C561 C 0.65778 0.21928 0.00257 0.0
C562 C 0.6399 0.21283 0.91352 0.0
H563 H 0.67043 0.25021 0.12202 0.0
H564 H 0.67427 0.20467 0.02703 0.0
C565 C 0.61823 0.23254 0.88795 0.0
C566 C 0.02248 0.39051 0.88685 0.0
C567 C 1.00234 0.37177 0.8407 0.0
H568 H 0.06305 0.41139 0.86971 0.0
C569 C 1.01077 0.35598 0.74984 0.0
H570 H 0.0168 0.40302 0.95755 0.0
C571 C 0.03681 0.36111 0.69866 0.0
C572 C 0.05578 0.38217 0.73659 0.0
H573 H 0.99589 0.34178 0.7105 0.0
H574 H 0.04138 0.34913 0.6254 0.0
C575 C 0.04888 0.39574 0.8354 0.0
C576 C 0.61663 0.73347 0.12354 0.0
C577 C 0.63788 0.7134 0.09803 0.0
H578 H 0.59947 0.77492 0.09775 0.0
C579 C 0.65597 0.71984 0.0099 0.0
H580 H 0.6016 0.72942 0.18866 0.0
C581 C 0.65421 0.74631 0.95585 0.0
C582 C 0.63413 0.76698 0.98722 0.0
H583 H 0.67216 0.70498 0.98549 0.0
H584 H 0.6693 0.75096 0.89186 0.0
C585 C 0.61477 0.75959 0.06925 0.0
C586 C 0.02357 0.89441 0.18019 0.0
C587 C 1.00311 0.87533 0.22198 0.0
H588 H 0.06465 0.91409 0.20107 0.0
C589 C 1.011 0.85877 0.31225 0.0
H590 H 0.01835 0.90754 0.11026 0.0
C591 C 0.03717 0.86282 0.36501 0.0
C592 C 0.05679 0.88361 0.3298 0.0
H593 H 0.99581 0.84443 0.34886 0.0
H594 H 0.04144 0.85005 0.43697 0.0
C595 C 0.05008 0.89849 0.23311 0.0
C596 C 0.91137 0.25435 0.58829 0.0
C597 C 0.89895 0.24851 0.48623 0.0
H598 H 0.91522 0.28228 0.72404 0.0
C599 C 0.88213 0.27003 0.43815 0.0
H600 H 0.92353 0.23819 0.63029 0.0
C601 C 0.87657 0.29572 0.49358 0.0
C602 C 0.8874 0.30053 0.59976 0.0
H603 H 0.87165 0.26621 0.36047 0.0
H604 H 0.86302 0.31128 0.45489 0.0
C605 C 0.90566 0.27962 0.64388 0.0
C606 C 0.49948 0.12278 0.62505 0.0
C607 C 0.51943 0.14164 0.67203 0.0
H608 H 0.45881 0.10189 0.63997 0.0
C609 C 0.51068 0.15737 0.76254 0.0
H610 H 0.50531 0.11049 0.55401 0.0
C611 C 0.48441 0.15228 0.81198 0.0
C612 C 0.46556 0.1312 0.77308 0.0
H613 H 0.52538 0.17166 0.80241 0.0
H614 H 0.47951 0.16434 0.88474 0.0
C615 C 0.47286 0.11756 0.67493 0.0
C616 C 0.40839 0.27884 0.88183 0.0
C617 C 0.38646 0.29684 0.91888 0.0
H618 H 0.42885 0.23854 0.89223 0.0
C619 C 0.37161 0.28831 0.01323 0.0
H620 H 0.42115 0.28461 0.81162 0.0
C621 C 0.37687 0.26161 0.06182 0.0
C622 C 0.3972 0.24274 0.01825 0.0
H623 H 0.35506 0.30157 0.04631 0.0
H624 H 0.3634 0.25485 0.12846 0.0
C625 C 0.41365 0.25249 0.93054 0.0
C626 C 0.97174 0.12022 0.81445 0.0
C627 C 0.96578 0.13445 0.71559 0.0
H628 H 1.0027 0.11169 0.94085 0.0
C629 C 0.98568 0.15508 0.68101 0.0
H630 H 0.95692 0.10479 0.84614 0.0
C631 C 1.01151 0.15938 0.73599 0.0
C632 C 0.01884 0.14322 0.828 0.0
H633 H 0.98193 0.16749 0.60769 0.0
H634 H 0.02695 0.1735 0.69967 0.0
C635 C 0.99797 0.12449 0.8695 0.0
C636 C 0.15589 0.72139 0.52718 0.0
C637 C 0.13798 0.71491 0.43827 0.0
H638 H 0.16905 0.75269 0.64427 0.0
C639 C 0.11673 0.73484 0.41064 0.0
H640 H 0.17203 0.70656 0.55314 0.0
C641 C 0.1148 0.76101 0.46351 0.0
C642 C 0.13408 0.76848 0.54598 0.0
H643 H 0.10183 0.73068 0.34488 0.0
H644 H 0.09961 0.77633 0.43328 0.0
C645 C 0.15402 0.74788 0.57986 0.0
C646 C 0.53713 0.86123 0.16135 0.0
C647 C 0.55645 0.88268 0.19293 0.0
H648 H 0.49619 0.84221 0.18141 0.0
C649 C 0.54979 0.89821 0.28752 0.0
H650 H 0.54142 0.84797 0.09126 0.0
C651 C 0.52354 0.89414 0.34154 0.0
C652 C 0.50331 0.87433 0.30322 0.0
H653 H 0.56418 0.91435 0.31679 0.0
H654 H 0.51829 0.90779 0.40941 0.0
C655 C 0.51122 0.85713 0.21543 0.0
C656 C 0.17445 0.37066 0.14719 0.0
C657 C 0.18258 0.34393 0.18496 0.0
H658 H 0.16647 0.39732 0.00977 0.0
C659 C 0.18952 0.3231 0.10675 0.0
H660 H 0.16918 0.38727 0.20436 0.0
C661 C 0.18803 0.32883 0.99373 0.0
C662 C 0.17958 0.35555 0.95621 0.0
H663 H 0.19601 0.30221 0.1327 0.0
H664 H 0.19307 0.31227 0.93615 0.0
C665 C 0.17298 0.37636 0.03482 0.0
C666 C 0.40083 0.4173 0.34861 0.0
C667 C 0.42832 0.42304 0.38542 0.0
H668 H 0.37382 0.41011 0.21122 0.0
C669 C 0.45023 0.42615 0.30725 0.0
H670 H 0.38351 0.41503 0.406 0.0
C671 C 0.44478 0.4233 0.19518 0.0
C672 C 0.41733 0.41739 0.15855 0.0
H673 H 0.47181 0.43062 0.33236 0.0
H674 H 0.4621 0.42526 0.13772 0.0
C675 C 0.3954 0.41449 0.23658 0.0
C676 C 0.33413 0.647 0.4784 0.0
C677 C 0.34197 0.66826 0.40309 0.0
H678 H 0.32889 0.63504 0.64686 0.0
C679 C 0.35105 0.69434 0.44281 0.0
H680 H 0.32742 0.62643 0.44975 0.0
C681 C 0.35185 0.69924 0.55589 0.0
C682 C 0.34412 0.6779 0.63129 0.0
H683 H 0.35819 0.71063 0.38681 0.0
H684 H 0.35875 0.71975 0.58435 0.0
C685 C 0.33532 0.65171 0.59126 0.0
C686 C 0.07216 0.59108 0.69413 0.0
C687 C 0.09995 0.59584 0.6591 0.0
H688 H 0.04442 0.58497 0.82978 0.0
C689 C 0.12167 0.59821 0.73871 0.0
H690 H 0.05495 0.58968 0.63549 0.0
C691 C 0.11574 0.5959 0.85054 0.0
C692 C 0.08794 0.59108 0.88566 0.0
H693 H 0.14346 0.60185 0.71482 0.0
H694 H 0.13293 0.59784 0.90917 0.0
C695 C 0.06622 0.58862 0.80599 0.0
C696 C 0.83402 0.64857 0.05741 0.0
C697 C 0.84173 0.66977 0.1328 0.0
H698 H 0.82896 0.63677 0.88881 0.0
C699 C 0.85095 0.69585 0.09309 0.0
H700 H 0.82727 0.62798 0.08603 0.0
C701 C 0.85185 0.70087 0.97998 0.0
C702 C 0.84417 0.67962 0.90453 0.0
H703 H 0.85805 0.71209 0.14919 0.0
H704 H 0.85877 0.72141 0.95153 0.0
C705 C 0.83535 0.65337 0.94451 0.0
C706 C 0.60733 0.61103 0.70139 0.0
C707 C 0.59131 0.58845 0.66185 0.0
H708 H 0.62279 0.63261 0.84309 0.0
C709 C 0.57891 0.56943 0.73686 0.0
H710 H 0.61656 0.62624 0.64547 0.0
C711 C 0.58244 0.57297 0.84966 0.0
C712 C 0.59773 0.59598 0.88942 0.0
H713 H 0.56648 0.55174 0.70826 0.0
H714 H 0.57419 0.55728 0.90557 0.0
C715 C 0.61037 0.61486 0.81431 0.0
C716 C 0.67358 0.37387 0.53145 0.0
C717 C 0.67855 0.35262 0.61084 0.0
H718 H 0.67055 0.38476 0.36114 0.0
C719 C 0.68451 0.32525 0.5754 0.0
H720 H 0.669 0.39535 0.55563 0.0
C721 C 0.68513 0.31923 0.46325 0.0
C722 C 0.68 0.34048 0.38389 0.0
H723 H 0.6882 0.30842 0.63396 0.0
H724 H 0.68969 0.29777 0.43899 0.0
C725 C 0.67432 0.36789 0.4195 0.0
C726 C 0.93926 0.44108 0.33753 0.0
C727 C 0.92363 0.418 0.37538 0.0
H728 H 0.95599 0.46283 0.19755 0.0
C729 C 0.91102 0.39966 0.29839 0.0
H730 H 0.94736 0.45643 0.39486 0.0
C731 C 0.91436 0.40409 0.18591 0.0
C732 C 0.93073 0.4267 0.14827 0.0
H733 H 0.89835 0.38188 0.32531 0.0
H734 H 0.90503 0.38929 0.12872 0.0
C735 C 0.94324 0.44514 0.22493 0.0
C736 C 0.68535 0.81985 0.55287 0.0
C737 C 0.68049 0.84116 0.63157 0.0
H738 H 0.68814 0.80899 0.38255 0.0
C739 C 0.67504 0.86862 0.59518 0.0
H740 H 0.68972 0.79835 0.57775 0.0
C741 C 0.67424 0.87459 0.48306 0.0
C742 C 0.67892 0.85327 0.40433 0.0
H743 H 0.67148 0.88553 0.65304 0.0
H744 H 0.66984 0.8961 0.45822 0.0
C745 C 0.68467 0.82586 0.44058 0.0
C746 C 0.95281 0.92734 0.8113 0.0
C747 C 0.93087 0.92482 0.88961 0.0
H748 H 0.96448 0.92655 0.64155 0.0
C749 C 0.90314 0.92027 0.85298 0.0
H750 H 0.97458 0.93088 0.83633 0.0
C751 C 0.89749 0.91816 0.74089 0.0
C752 C 0.91944 0.92051 0.66269 0.0
H753 H 0.88581 0.91841 0.91056 0.0
H754 H 0.87573 0.9147 0.71565 0.0
C755 C 0.94715 0.92513 0.69918 0.0
C756 C 0.83836 0.15495 0.08952 0.0
C757 C 0.84724 0.18118 0.129 0.0
H758 H 0.83013 0.12956 0.94853 0.0
C759 C 0.85473 0.20247 0.0531 0.0
H760 H 0.83208 0.13832 0.14552 0.0
C761 C 0.85365 0.19749 0.94008 0.0
C762 C 0.84446 0.17138 0.90091 0.0
H763 H 0.86166 0.22302 0.08113 0.0
H764 H 0.86064 0.21375 0.88366 0.0
C765 C 0.83686 0.15017 0.97673 0.0
C766 C 0.56871 0.09063 0.26856 0.0
C767 C 0.59087 0.09146 0.34709 0.0
H768 H 0.55701 0.092 0.09852 0.0
C769 C 0.61886 0.09343 0.31081 0.0
H770 H 0.54674 0.08913 0.29342 0.0
C771 C 0.62457 0.09456 0.19874 0.0
C772 C 0.60243 0.09391 0.12031 0.0
H773 H 0.63634 0.09394 0.36866 0.0
H774 H 0.64653 0.09601 0.17368 0.0
C775 C 0.57445 0.09195 0.15644 0.0
C776 C 0.34621 0.19443 0.52067 0.0
C777 C 0.34332 0.16651 0.55854 0.0
H778 H 0.34749 0.22236 0.38098 0.0
C779 C 0.33923 0.14514 0.4799 0.0
H780 H 0.35067 0.2112 0.57795 0.0
C781 C 0.33833 0.15127 0.36753 0.0
C782 C 0.34121 0.1791 0.32913 0.0
H783 H 0.33704 0.12333 0.50521 0.0
H784 H 0.33536 0.13404 0.31053 0.0
C785 C 0.34483 0.20071 0.40741 0.0
C786 C 0.08212 0.07093 0.23698 0.0
C787 C 0.09404 0.09017 0.16178 0.0
H788 H 0.07765 0.0588 0.40583 0.0
C789 C 0.10942 0.11323 0.20114 0.0
H790 H 0.07019 0.05289 0.20852 0.0
C791 C 0.11233 0.11724 0.31403 0.0
C792 C 0.10016 0.0981 0.38934 0.0
H793 H 0.11825 0.12863 0.14506 0.0
H794 H 0.12428 0.13532 0.34265 0.0
C795 C 0.08549 0.07467 0.34977 0.0
C796 C 0.17489 0.87478 0.03984 0.0
C797 C 0.17938 0.85333 0.11888 0.0
H798 H 0.17239 0.88597 0.86973 0.0
C799 C 0.18512 0.82596 0.08311 0.0
H800 H 0.17053 0.89628 0.0643 0.0
C801 C 0.18595 0.82012 0.97088 0.0
C802 C 0.18126 0.84157 0.89187 0.0
H803 H 0.18847 0.809 0.1414 0.0
H804 H 0.1903 0.79864 0.9463 0.0
C805 C 0.17583 0.86898 0.92783 0.0
C806 C 0.41291 0.90011 0.66482 0.0
C807 C 0.42646 0.9244 0.62614 0.0
H808 H 0.39987 0.87649 0.80562 0.0
C809 C 0.4372 0.94408 0.70207 0.0
H810 H 0.40522 0.88428 0.60829 0.0
C811 C 0.43437 0.93961 0.81477 0.0
C812 C 0.42143 0.91506 0.85364 0.0
H813 H 0.4478 0.96301 0.67422 0.0
H814 H 0.44123 0.95575 0.87136 0.0
C815 C 0.41049 0.89545 0.77762 0.0
C816 C 0.26928 0.30247 0.2456 0.0
C817 C 0.28135 0.28986 0.33935 0.0
H818 H 0.25383 0.29637 0.08134 0.0
C819 C 0.2907 0.26193 0.33109 0.0
H820 H 0.26181 0.32407 0.24851 0.0
C821 C 0.28217 0.24513 0.24337 0.0
C822 C 0.26793 0.25702 0.15362 0.0
H823 H 0.30245 0.25235 0.39694 0.0
H824 H 0.28788 0.22305 0.24331 0.0
C825 C 0.26286 0.28621 0.15313 0.0
C826 C 0.52945 0.52049 0.53369 0.0
C827 C 0.52247 0.5085 0.43119 0.0
H828 H 0.51603 0.53068 0.69688 0.0
C829 C 0.49567 0.49654 0.41694 0.0
H830 H 0.55036 0.52913 0.54739 0.0
C831 C 0.47622 0.49708 0.50347 0.0
C832 C 0.48325 0.5093 0.60573 0.0
H833 H 0.48962 0.48723 0.33942 0.0
H834 H 0.45562 0.48746 0.49113 0.0
C835 C 0.5099 0.52147 0.61937 0.0
C836 C 0.28166 0.74275 0.7484 0.0
C837 C 0.26516 0.74528 0.84392 0.0
H838 H 0.29797 0.76262 0.60405 0.0
C839 C 0.25131 0.77077 0.86407 0.0
H840 H 0.29181 0.72301 0.72922 0.0
C841 C 0.25332 0.79284 0.78765 0.0
C842 C 0.26923 0.78988 0.69039 0.0
H843 H 0.23923 0.7737 0.93851 0.0
H844 H 0.24204 0.81224 0.80363 0.0
C845 C 0.28468 0.76519 0.67492 0.0
C846 C 0.03531 0.48792 0.03394 0.0
C847 C 0.02665 0.50621 0.11718 0.0
H848 H 0.0282 0.47322 0.87078 0.0
C849 C 1.0039 0.52471 0.0959 0.0
H850 H 0.05343 0.47423 0.04616 0.0
C851 C 0.99023 0.52508 0.99373 0.0
C852 C 0.99899 0.50695 0.91015 0.0
H853 H 0.9968 0.53923 0.15805 0.0
H854 H 0.97205 0.53871 0.98167 0.0
C855 C 0.02148 0.48815 0.932 0.0
C856 C 0.75052 0.77061 0.66459 0.0
C857 C 0.76386 0.74492 0.6868 0.0
H858 H 0.74185 0.81229 0.72283 0.0
C859 C 0.78018 0.74221 0.78321 0.0
H860 H 0.73867 0.77366 0.58926 0.0
C861 C 0.78362 0.76471 0.85545 0.0
C862 C 0.76866 0.78964 0.83797 0.0
H863 H 0.79004 0.72233 0.80355 0.0
H864 H 0.79684 0.76205 0.92688 0.0
C865 C 0.75285 0.79274 0.74001 0.0
C866 C 0.75341 0.29435 0.28181 0.0
C867 C 0.76959 0.29169 0.18512 0.0
H868 H 0.73972 0.27512 0.43302 0.0
C869 C 0.78597 0.26755 0.17103 0.0
H870 H 0.74137 0.31337 0.29658 0.0
C871 C 0.78367 0.24525 0.24544 0.0
C872 C 0.76691 0.24744 0.34039 0.0
H873 H 0.79941 0.26525 0.10044 0.0
H874 H 0.79453 0.22584 0.22725 0.0
C875 C 0.75207 0.27245 0.35911 0.0
C876 C 1.00032 0.99696 0.91853 0.0
C877 C 0.02708 1.00908 0.93167 0.0
H878 H 0.96046 0.98788 0.99407 0.0
C879 C 0.03435 0.02098 0.034 0.0
H880 H 0.99406 0.98773 0.84114 0.0
C881 C 0.01505 0.02184 0.12054 0.0
C882 C 0.98835 0.0097 0.10775 0.0
H883 H 0.05524 0.02979 0.04667 0.0
H884 H 0.02134 0.03105 0.19788 0.0
C885 C 0.9811 0.99742 0.00582 0.0
C886 C 0.51459 0.02194 0.37922 0.0
C887 C 0.48813 1.00935 0.39387 0.0
H888 H 0.55501 0.0309 0.45101 0.0
C889 C 0.48157 0.9974 0.49699 0.0
H890 H 0.5203 0.03126 0.30131 0.0
C891 C 0.50143 0.99675 0.58242 0.0
C892 C 0.52803 1.00896 0.56743 0.0
H893 H 0.46096 0.98806 0.51068 0.0
H894 H 0.49577 0.98728 0.66012 0.0
C895 C 0.53442 0.02148 0.46498 0.0
C896 C 0.16551 0.50054 0.35641 0.0
C897 C 0.14218 0.51464 0.31085 0.0
H898 H 0.18267 0.46145 0.41352 0.0
C899 C 0.12065 0.49789 0.26331 0.0
H900 H 0.18243 0.51248 0.39477 0.0
C901 C 0.11984 0.46827 0.27882 0.0
C902 C 0.14141 0.45471 0.33866 0.0
H903 H 0.10308 0.50811 0.22352 0.0
H904 H 0.10114 0.45665 0.25381 0.0
C905 C 0.16535 0.47107 0.36835 0.0
C906 C 0.29808 0.3763 0.49145 0.0
C907 C 0.31552 0.39516 0.54934 0.0
H908 H 0.25502 0.36395 0.45323 0.0
C909 C 0.30243 0.41986 0.5901 0.0
H910 H 0.30726 0.35757 0.45567 0.0
C911 C 0.27277 0.4224 0.59524 0.0
C912 C 0.25505 0.40101 0.55516 0.0
H913 H 0.31503 0.4354 0.63344 0.0
H914 H 0.26389 0.43932 0.64376 0.0
C915 C 0.26811 0.37969 0.49207 0.0
C916 C 0.39503 0.54361 0.75826 0.0
C917 C 0.37527 0.55822 0.8226 0.0
H918 H 0.40913 0.50292 0.70248 0.0
C919 C 0.35193 0.54253 0.86333 0.0
H920 H 0.41298 0.55465 0.72337 0.0
C921 C 0.35122 0.51298 0.85829 0.0
C922 C 0.37305 0.49797 0.80759 0.0
H923 H 0.33563 0.55287 0.91094 0.0
H924 H 0.33516 0.50181 0.90464 0.0
C925 C 0.39332 0.51383 0.74872 0.0
C926 C 0.21642 0.64816 0.99454 0.0
C927 C 0.20175 0.62609 0.04649 0.0
H928 H 0.25723 0.66535 0.9534 0.0
C929 C 0.21759 0.60175 0.07513 0.0
H930 H 0.20529 0.66721 0.97091 0.0
C931 C 0.2474 0.60157 0.07099 0.0
C932 C 0.26238 0.62531 0.03437 0.0
H933 H 0.20715 0.58408 0.11458 0.0
H934 H 0.25868 0.5842 0.1091 0.0
C935 C 0.24635 0.64736 0.98663 0.0
C936 C 0.85791 0.51568 0.69112 0.0
C937 C 0.88251 0.5013 0.72321 0.0
H938 H 0.83858 0.55548 0.65582 0.0
C939 C 0.90475 0.51753 0.76844 0.0
H940 H 0.84036 0.50417 0.65516 0.0
C941 C 0.9045 0.54735 0.7647 0.0
C942 C 0.88128 0.56166 0.71865 0.0
H943 H 0.92336 0.50706 0.79805 0.0
H944 H 0.92349 0.55883 0.78729 0.0
C945 C 0.85711 0.54533 0.69086 0.0
C946 C 0.71706 0.64753 0.54283 0.0
C947 C 0.70249 0.62522 0.49217 0.0
H948 H 0.75779 0.66528 0.58216 0.0
C949 C 0.71858 0.6011 0.46384 0.0
H950 H 0.70576 0.66643 0.56632 0.0
C951 C 0.7484 0.60136 0.46679 0.0
C952 C 0.76319 0.62531 0.50228 0.0
H953 H 0.70825 0.58321 0.42557 0.0
H954 H 0.75978 0.58412 0.42893 0.0
C955 C 0.74704 0.64716 0.54979 0.0
C956 C 0.6624 0.49768 0.20054 0.0
C957 C 0.63769 0.51161 0.23374 0.0
H958 H 0.68183 0.45837 0.15845 0.0
C959 C 0.61538 0.49457 0.27369 0.0
H960 H 0.67996 0.50969 0.1675 0.0
C961 C 0.61579 0.46482 0.26517 0.0
C962 C 0.63918 0.45114 0.21868 0.0
H963 H 0.59645 0.50444 0.3019 0.0
H964 H 0.59672 0.45304 0.28371 0.0
C965 C 0.66328 0.46798 0.19484 0.0
C966 C 0.77006 0.38185 0.04625 0.0
C967 C 0.75515 0.40126 0.97945 0.0
H968 H 0.81045 0.36172 0.08113 0.0
C969 C 0.77131 0.4217 0.92487 0.0
H970 H 0.75823 0.36718 0.0955 0.0
C971 C 0.80098 0.41986 0.92194 0.0
C972 C 0.81566 0.39679 0.96955 0.0
H973 H 0.76092 0.43716 0.8729 0.0
H974 H 0.81214 0.43477 0.87013 0.0
C975 C 0.80004 0.37908 0.03963 0.0
C976 C 0.66633 0.96809 0.81837 0.0
C977 C 0.64215 0.95173 0.79079 0.0
H978 H 0.68354 1.00946 0.8465 0.0
C979 C 0.61988 0.96568 0.73663 0.0
H980 H 0.68412 0.95824 0.85987 0.0
C981 C 0.62045 0.9954 0.72437 0.0
C982 C 0.64243 0.01207 0.76928 0.0
H983 H 0.60088 0.95423 0.71409 0.0
H984 H 0.60243 1.00566 0.68902 0.0
C985 C 0.66625 0.99772 0.80977 0.0
C986 C 0.80181 0.8774 0.98498 0.0
C987 C 0.81718 0.89577 0.0532 0.0
H988 H 0.76027 0.86523 0.92649 0.0
C989 C 0.8023 0.9193 0.09551 0.0
H990 H 0.81232 0.85955 0.94788 0.0
C991 C 0.77262 0.92106 0.08989 0.0
C992 C 0.75666 0.90016 0.03713 0.0
H993 H 0.81328 0.93461 0.14603 0.0
H994 H 0.76203 0.93695 0.13857 0.0
C995 C 0.77189 0.8802 0.97488 0.0
C996 C 0.89844 0.01752 0.25137 0.0
C997 C 0.87745 1.00184 0.30724 0.0
H998 H 0.91866 0.05814 0.22806 0.0
C999 C 0.85522 0.01712 0.35411 0.0
H1000 H 0.91465 1.00643 0.20815 0.0
C1001 C 0.85605 0.04672 0.35819 0.0
C1002 C 0.87988 0.06222 0.32057 0.0
H1003 H 0.83862 1.00614 0.39825 0.0
H1004 H 0.83936 0.05726 0.40305 0.0
C1005 C 0.90024 0.04731 0.26016 0.0
C1006 C 0.75166 0.10304 0.55049 0.0
C1007 C 0.76652 0.12747 0.52088 0.0
H1008 H 0.71128 0.08421 0.58183 0.0
C1009 C 0.75074 0.14953 0.47221 0.0
H1010 H 0.76279 0.08558 0.58864 0.0
C1011 C 0.72075 0.1496 0.47334 0.0
C1012 C 0.7059 0.12676 0.51894 0.0
H1013 H 0.76166 0.16793 0.44341 0.0
H1014 H 0.70955 0.16863 0.44996 0.0
C1015 C 0.72186 0.10247 0.54728 0.0
C1016 C 0.35469 0.04114 0.11711 0.0
C1017 C 0.37765 0.0574 0.15752 0.0
H1018 H 0.33833 0.99988 0.08255 0.0
C1019 C 0.39737 0.04369 0.22575 0.0
H1020 H 0.33854 0.05087 0.06613 0.0
C1021 C 0.39604 0.01406 0.23999 0.0
C1022 C 0.37593 0.99746 0.18315 0.0
H1023 H 0.41512 0.05525 0.25981 0.0
H1024 H 0.41218 1.00384 0.2877 0.0
C1025 C 0.35414 0.01169 0.12796 0.0
C1026 C 0.2222 0.14764 0.0301 0.0
C1027 C 0.20596 0.12527 0.98812 0.0
H1028 H 0.26402 0.16474 0.05301 0.0
C1029 C 0.22072 0.10038 0.95901 0.0
H1030 H 0.21197 0.16709 0.05418 0.0
C1031 C 0.25045 0.1 0.94993 0.0
C1032 C 0.26652 0.12406 0.97436 0.0
H1033 H 0.20907 0.08245 0.92724 0.0
H1034 H 0.26038 0.08217 0.91017 0.0
C1035 C 0.25218 0.14657 0.02624 0.0
C1036 C 0.16654 0.97045 0.6949 0.0
C1037 C 0.1426 0.95385 0.72302 0.0
H1038 H 0.18304 0.01193 0.66221 0.0
C1039 C 0.11976 0.96776 0.77245 0.0
H1040 H 0.18472 0.96061 0.65669 0.0
C1041 C 0.11958 0.99753 0.7795 0.0
C1042 C 0.14146 0.01424 0.73454 0.0
H1043 H 0.10089 0.9561 0.79483 0.0
H1044 H 0.10112 1.00762 0.81101 0.0
C1045 C 0.16579 1.00012 0.69864 0.0
C1046 C 0.27292 0.88065 0.54286 0.0
C1047 C 0.25764 0.90051 0.47935 0.0
H1048 H 0.31318 0.85955 0.56979 0.0
C1049 C 0.2736 0.92074 0.42267 0.0
H1050 H 0.26135 0.86602 0.5932 0.0
C1051 C 0.30318 0.91828 0.41446 0.0
C1052 C 0.3179 0.89485 0.45905 0.0
H1053 H 0.26296 0.93647 0.37276 0.0
H1054 H 0.31406 0.93297 0.36086 0.0
C1055 C 0.30271 0.87728 0.53102 0.0
C1056 C 0.28273 0.2874 0.70399 0.0
C1057 C 0.25705 0.27311 0.68026 0.0
H1058 H 0.32787 0.28546 0.69971 0.0
C1059 C 0.25788 0.24898 0.61321 0.0
H1060 H 0.2832 0.30669 0.75125 0.0
C1061 C 0.28418 0.23835 0.58118 0.0
C1062 C 0.30794 0.24736 0.6418 0.0
H1063 H 0.23868 0.23816 0.58833 0.0
H1064 H 0.28461 0.21815 0.53992 0.0
C1065 C 0.30842 0.27579 0.67073 0.0
C1066 C 0.48859 0.49107 0.07958 0.0
C1067 C 0.5027 0.48472 0.9813 0.0
H1068 H 0.47893 0.52224 0.19913 0.0
C1069 C 0.51665 0.50617 0.92389 0.0
H1070 H 0.47697 0.47501 0.12395 0.0
C1071 C 0.5164 0.53351 0.96408 0.0
C1072 C 0.50404 0.5394 0.06603 0.0
H1073 H 0.52705 0.50203 0.84672 0.0
H1074 H 0.52718 0.54986 0.9185 0.0
C1075 C 0.48895 0.51826 0.121 0.0
C1076 C 0.27194 0.79329 0.26688 0.0
C1077 C 0.25823 0.77518 0.3423 0.0
H1078 H 0.30975 0.80147 0.17716 0.0
C1079 C 0.27474 0.75665 0.40537 0.0
H1080 H 0.26031 0.80916 0.22115 0.0
C1081 C 0.30365 0.75425 0.38356 0.0
C1082 C 0.31362 0.76521 0.28374 0.0
H1083 H 0.26535 0.74352 0.46829 0.0
H1084 H 0.31515 0.73773 0.42501 0.0
C1085 C 0.30067 0.78981 0.24513 0.0
C1086 C 0.02674 0.52529 0.57883 0.0
C1087 C 0.01316 0.5321 0.47931 0.0
H1088 H 0.03728 0.49322 0.69466 0.0
C1089 C 1.00082 0.51066 0.41662 0.0
H1090 H 0.03712 0.5414 0.62719 0.0
C1091 C 1.00252 0.48289 0.45226 0.0
C1092 C 0.01455 0.47634 0.55465 0.0
H1093 H 0.99121 0.51504 0.33771 0.0
H1094 H 0.9934 0.4665 0.40195 0.0
C1095 C 0.02771 0.49759 0.61574 0.0
C1096 C 0.77414 0.7569 0.12565 0.0
C1097 C 0.7573 0.7753 0.18697 0.0
H1098 H 0.81482 0.7386 0.10858 0.0
C1099 C 0.77062 0.79366 0.26243 0.0
H1100 H 0.76502 0.74354 0.06291 0.0
C1101 C 0.79936 0.79061 0.2857 0.0
C1102 C 0.81266 0.76612 0.24882 0.0
H1103 H 0.75871 0.80945 0.30678 0.0
H1104 H 0.80821 0.80248 0.35353 0.0
C1105 C 0.80303 0.75499 0.14886 0.0
C1106 C 0.80215 0.29196 0.74394 0.0
C1107 C 0.81524 0.2674 0.78213 0.0
H1108 H 0.76157 0.31067 0.71773 0.0
C1109 C 0.80514 0.2562 0.88134 0.0
H1110 H 0.8114 0.30392 0.67709 0.0
C1111 C 0.77614 0.25816 0.90183 0.0
C1112 C 0.75956 0.27646 0.83795 0.0
H1113 H 0.8168 0.23983 0.92307 0.0
H1114 H 0.76675 0.24485 0.96421 0.0
C1115 C 0.77328 0.29494 0.76389 0.0
C1116 C 0.02056 1.00616 0.42687 0.0
C1117 C 1.00661 0.98483 0.485 0.0
H1118 H 0.03094 0.04985 0.4197 0.0
C1119 C 0.9927 0.99134 0.58353 0.0
H1120 H 0.03079 1.00189 0.34943 0.0
C1121 C 0.993 0.01864 0.62392 0.0
C1122 C 1.00784 0.03972 0.56767 0.0
H1123 H 0.98112 0.97537 0.62848 0.0
H1124 H 0.98298 0.02281 0.70192 0.0
C1125 C 0.02028 0.03358 0.46611 0.0
C1126 C 0.52487 1.00132 0.08942 0.0
C1127 C 0.5101 0.98007 0.03395 0.0
H1128 H 0.5374 0.04443 0.09021 0.0
C1129 C 0.49735 0.98608 0.93228 0.0
H1130 H 0.53505 0.99728 0.16758 0.0
C1131 C 0.49756 0.0133 0.8903 0.0
C1132 C 0.5121 0.03462 0.94614 0.0
H1133 H 0.48658 0.96978 0.88663 0.0
H1134 H 0.48756 0.01728 0.81179 0.0
C1135 C 0.52553 0.02845 0.04657 0.0
loop_
_geom_bond_atom_site_label_1
_geom_bond_atom_site_label_2
_geom_bond_distance
_geom_bond_site_symmetry_2
_ccdc_geom_bond_type
C0 O12 1.241 . S
C0 O13 1.280 . S
C1 O14 1.277 . S
C1 O15 1.245 . S
C2 O26 1.247 . S
C2 O28 1.289 . S
Mg3 O4 1.926 . S
Mg3 O13 1.984 . S
Mg3 O15 1.988 . S
Mg3 O16 2.061 . S
O4 Mg3 1.926 . S
O4 Mg5 1.986 . S
O4 Mg6 1.917 . S
Mg5 O4 1.986 . S
Mg5 O12 2.042 . S
Mg5 O14 2.041 . S
Mg5 O20 2.038 . S
Mg5 O28 2.238 . S
Mg6 O4 1.917 . S
Mg6 O7 1.917 . S
Mg6 O17 2.106 . S
Mg6 O19 2.079 . S
Mg6 O28 2.106 . S
Mg6 O29 2.079 . S
O7 Mg6 1.917 . S
O7 Mg8 1.926 . S
O7 Mg9 1.986 . S
Mg8 O7 1.926 . S
Mg8 O22 1.984 . S
Mg8 O25 1.988 . S
Mg8 O26 2.061 . S
Mg9 O7 1.986 . S
Mg9 O17 2.238 . S
Mg9 O21 2.042 . S
Mg9 O23 2.041 . S
Mg9 O30 2.038 . S
C10 O16 1.247 . S
C10 O17 1.289 . S
C11 O29 1.245 . S
C11 O30 1.274 . S
O12 C0 1.241 . S
O12 Mg5 2.042 . S
O13 C0 1.280 . S
O13 Mg3 1.984 . S
O14 C1 1.277 . S
O14 Mg5 2.041 . S
O15 C1 1.245 . S
O15 Mg3 1.988 . S
O16 Mg3 2.061 . S
O16 C10 1.247 . S
O17 Mg6 2.106 . S
O17 Mg9 2.238 . S
O17 C10 1.289 . S
C18 O19 1.245 . S
C18 O20 1.274 . S
O19 Mg6 2.079 . S
O19 C18 1.245 . S
O20 Mg5 2.038 . S
O20 C18 1.274 . S
O21 Mg9 2.042 . S
O21 C24 1.241 . S
O22 Mg8 1.984 . S
O22 C24 1.280 . S
O23 Mg9 2.041 . S
O23 C27 1.277 . S
C24 O21 1.241 . S
C24 O22 1.280 . S
O25 Mg8 1.988 . S
O25 C27 1.245 . S
O26 C2 1.247 . S
O26 Mg8 2.061 . S
C27 O23 1.277 . S
C27 O25 1.245 . S
O28 C2 1.289 . S
O28 Mg5 2.238 . S
O28 Mg6 2.106 . S
O29 Mg6 2.079 . S
O29 C11 1.245 . S
O30 Mg9 2.038 . S
O30 C11 1.274 . S
C31 O43 1.241 . S
C31 O44 1.280 . S
C32 O45 1.277 . S
C32 O46 1.245 . S
C33 O57 1.247 . S
C33 O59 1.289 . S
Mg34 O35 1.926 . S
Mg34 O44 1.984 . S
Mg34 O46 1.988 . S
Mg34 O47 2.061 . S
O35 Mg34 1.926 . S
O35 Mg36 1.986 . S
O35 Mg37 1.917 . S
Mg36 O35 1.986 . S
Mg36 O43 2.042 . S
Mg36 O45 2.041 . S
Mg36 O51 2.038 . S
Mg36 O59 2.238 . S
Mg37 O35 1.917 . S
Mg37 O38 1.917 . S
Mg37 O48 2.106 . S
Mg37 O50 2.079 . S
Mg37 O59 2.106 . S
Mg37 O60 2.079 . S
O38 Mg37 1.917 . S
O38 Mg39 1.926 . S
O38 Mg40 1.986 . S
Mg39 O38 1.926 . S
Mg39 O53 1.984 . S
Mg39 O56 1.988 . S
Mg39 O57 2.061 . S
Mg40 O38 1.986 . S
Mg40 O48 2.238 . S
Mg40 O52 2.042 . S
Mg40 O54 2.041 . S
Mg40 O61 2.038 1_556 S
C41 O47 1.247 . S
C41 O48 1.289 . S
C42 O60 1.245 1_554 S
C42 O61 1.274 . S
O43 C31 1.241 . S
O43 Mg36 2.042 . S
O44 C31 1.280 . S
O44 Mg34 1.984 . S
O45 C32 1.277 . S
O45 Mg36 2.041 . S
O46 C32 1.245 . S
O46 Mg34 1.988 . S
O47 Mg34 2.061 . S
O47 C41 1.247 . S
O48 Mg37 2.106 . S
O48 Mg40 2.238 . S
O48 C41 1.289 . S
C49 O50 1.245 . S
C49 O51 1.274 . S
O50 Mg37 2.079 . S
O50 C49 1.245 . S
O51 Mg36 2.038 . S
O51 C49 1.274 . S
O52 Mg40 2.042 . S
O52 C55 1.241 . S
O53 Mg39 1.984 . S
O53 C55 1.280 . S
O54 Mg40 2.041 . S
O54 C58 1.277 . S
C55 O52 1.241 . S
C55 O53 1.280 . S
O56 Mg39 1.988 . S
O56 C58 1.245 . S
O57 C33 1.247 . S
O57 Mg39 2.061 . S
C58 O54 1.277 . S
C58 O56 1.245 . S
O59 C33 1.289 . S
O59 Mg36 2.238 . S
O59 Mg37 2.106 . S
O60 Mg37 2.079 . S
O60 C42 1.245 1_556 S
O61 Mg40 2.038 1_554 S
O61 C42 1.274 . S
C62 O74 1.241 . S
C62 O75 1.280 . S
C63 O76 1.277 . S
C63 O77 1.245 . S
C64 O88 1.247 1_554 S
C64 O90 1.289 . S
Mg65 O66 1.926 . S
Mg65 O75 1.984 1_554 S
Mg65 O77 1.988 . S
Mg65 O78 2.061 . S
O66 Mg65 1.926 . S
O66 Mg67 1.986 1_554 S
O66 Mg68 1.917 . S
Mg67 O66 1.986 1_556 S
Mg67 O74 2.042 . S
Mg67 O76 2.041 1_556 S
Mg67 O82 2.038 . S
Mg67 O90 2.238 1_556 S
Mg68 O66 1.917 . S
Mg68 O69 1.917 . S
Mg68 O79 2.106 . S
Mg68 O81 2.079 1_554 S
Mg68 O90 2.106 . S
Mg68 O91 2.079 . S
O69 Mg68 1.917 . S
O69 Mg70 1.926 1_554 S
O69 Mg71 1.986 . S
Mg70 O69 1.926 1_556 S
Mg70 O84 1.984 1_556 S
Mg70 O87 1.988 . S
Mg70 O88 2.061 . S
Mg71 O69 1.986 . S
Mg71 O79 2.238 . S
Mg71 O83 2.042 . S
Mg71 O85 2.041 1_554 S
Mg71 O92 2.038 . S
C72 O78 1.247 . S
C72 O79 1.289 . S
C73 O91 1.245 . S
C73 O92 1.274 . S
O74 C62 1.241 . S
O74 Mg67 2.042 . S
O75 C62 1.280 . S
O75 Mg65 1.984 1_556 S
O76 C63 1.277 . S
O76 Mg67 2.041 1_554 S
O77 C63 1.245 . S
O77 Mg65 1.988 . S
O78 Mg65 2.061 . S
O78 C72 1.247 . S
O79 Mg68 2.106 . S
O79 Mg71 2.238 . S
O79 C72 1.289 . S
C80 O81 1.245 . S
C80 O82 1.274 . S
O81 Mg68 2.079 1_556 S
O81 C80 1.245 . S
O82 Mg67 2.038 . S
O82 C80 1.274 . S
O83 Mg71 2.042 . S
O83 C86 1.241 . S
O84 Mg70 1.984 1_554 S
O84 C86 1.280 . S
O85 Mg71 2.041 1_556 S
O85 C89 1.277 . S
C86 O83 1.241 . S
C86 O84 1.280 . S
O87 Mg70 1.988 . S
O87 C89 1.245 . S
O88 C64 1.247 1_556 S
O88 Mg70 2.061 . S
C89 O85 1.277 . S
C89 O87 1.245 . S
O90 C64 1.289 . S
O90 Mg67 2.238 1_554 S
O90 Mg68 2.106 . S
O91 Mg68 2.079 . S
O91 C73 1.245 . S
O92 Mg71 2.038 . S
O92 C73 1.274 . S
C93 O105 1.241 . S
C93 O106 1.280 . S
C94 O107 1.277 . S
C94 O108 1.245 . S
C95 O119 1.247 . S
C95 O121 1.289 . S
Mg96 O97 1.926 . S
Mg96 O106 1.984 . S
Mg96 O108 1.988 . S
Mg96 O109 2.061 . S
O97 Mg96 1.926 . S
O97 Mg98 1.986 . S
O97 Mg99 1.917 . S
Mg98 O97 1.986 . S
Mg98 O105 2.042 . S
Mg98 O107 2.041 . S
Mg98 O113 2.038 . S
Mg98 O121 2.238 . S
Mg99 O97 1.917 . S
Mg99 O100 1.917 . S
Mg99 O110 2.106 . S
Mg99 O112 2.079 . S
Mg99 O121 2.106 . S
Mg99 O122 2.079 . S
O100 Mg99 1.917 . S
O100 Mg101 1.926 . S
O100 Mg102 1.986 . S
Mg101 O100 1.926 . S
Mg101 O115 1.984 . S
Mg101 O118 1.988 . S
Mg101 O119 2.061 . S
Mg102 O100 1.986 . S
Mg102 O110 2.238 . S
Mg102 O114 2.042 . S
Mg102 O116 2.041 . S
Mg102 O123 2.038 . S
C103 O109 1.247 . S
C103 O110 1.289 . S
C104 O122 1.245 . S
C104 O123 1.274 . S
O105 C93 1.241 . S
O105 Mg98 2.042 . S
O106 C93 1.280 . S
O106 Mg96 1.984 . S
O107 C94 1.277 . S
O107 Mg98 2.041 . S
O108 C94 1.245 . S
O108 Mg96 1.988 . S
O109 Mg96 2.061 . S
O109 C103 1.247 . S
O110 Mg99 2.106 . S
O110 Mg102 2.238 . S
O110 C103 1.289 . S
C111 O112 1.245 . S
C111 O113 1.274 . S
O112 Mg99 2.079 . S
O112 C111 1.245 . S
O113 Mg98 2.038 . S
O113 C111 1.274 . S
O114 Mg102 2.042 . S
O114 C117 1.241 . S
O115 Mg101 1.984 . S
O115 C117 1.280 . S
O116 Mg102 2.041 . S
O116 C120 1.277 . S
C117 O114 1.241 . S
C117 O115 1.280 . S
O118 Mg101 1.988 . S
O118 C120 1.245 . S
O119 C95 1.247 . S
O119 Mg101 2.061 . S
C120 O116 1.277 . S
C120 O118 1.245 . S
O121 C95 1.289 . S
O121 Mg98 2.238 . S
O121 Mg99 2.106 . S
O122 Mg99 2.079 . S
O122 C104 1.245 . S
O123 Mg102 2.038 . S
O123 C104 1.274 . S
C124 O136 1.241 . S
C124 O137 1.280 . S
C125 O138 1.277 . S
C125 O139 1.245 . S
C126 O150 1.247 . S
C126 O152 1.289 . S
Mg127 O128 1.926 . S
Mg127 O137 1.984 . S
Mg127 O139 1.988 . S
Mg127 O140 2.061 . S
O128 Mg127 1.926 . S
O128 Mg129 1.986 . S
O128 Mg130 1.917 . S
Mg129 O128 1.986 . S
Mg129 O136 2.042 . S
Mg129 O138 2.041 . S
Mg129 O144 2.038 . S
Mg129 O152 2.238 . S
Mg130 O128 1.917 . S
Mg130 O131 1.917 . S
Mg130 O141 2.106 . S
Mg130 O143 2.079 . S
Mg130 O152 2.106 . S
Mg130 O153 2.079 . S
O131 Mg130 1.917 . S
O131 Mg132 1.926 . S
O131 Mg133 1.986 . S
Mg132 O131 1.926 . S
Mg132 O146 1.984 . S
Mg132 O149 1.988 . S
Mg132 O150 2.061 . S
Mg133 O131 1.986 . S
Mg133 O141 2.238 . S
Mg133 O145 2.042 . S
Mg133 O147 2.041 . S
Mg133 O154 2.038 . S
C134 O140 1.247 . S
C134 O141 1.289 . S
C135 O153 1.245 . S
C135 O154 1.274 . S
O136 C124 1.241 . S
O136 Mg129 2.042 . S
O137 C124 1.280 . S
O137 Mg127 1.984 . S
O138 C125 1.277 . S
O138 Mg129 2.041 . S
O139 C125 1.245 . S
O139 Mg127 1.988 . S
O140 Mg127 2.061 . S
O140 C134 1.247 . S
O141 Mg130 2.106 . S
O141 Mg133 2.238 . S
O141 C134 1.289 . S
C142 O143 1.245 . S
C142 O144 1.274 . S
O143 Mg130 2.079 . S
O143 C142 1.245 . S
O144 Mg129 2.038 . S
O144 C142 1.274 . S
O145 Mg133 2.042 . S
O145 C148 1.241 . S
O146 Mg132 1.984 . S
O146 C148 1.280 . S
O147 Mg133 2.041 . S
O147 C151 1.277 . S
C148 O145 1.241 . S
C148 O146 1.280 . S
O149 Mg132 1.988 . S
O149 C151 1.245 . S
O150 C126 1.247 . S
O150 Mg132 2.061 . S
C151 O147 1.277 . S
C151 O149 1.245 . S
O152 C126 1.289 . S
O152 Mg129 2.238 . S
O152 Mg130 2.106 . S
O153 Mg130 2.079 . S
O153 C135 1.245 . S
O154 Mg133 2.038 . S
O154 C135 1.274 . S
C155 O167 1.241 . S
C155 O168 1.280 . S
C156 O169 1.277 . S
C156 O170 1.245 . S
C157 O181 1.247 . S
C157 O183 1.289 . S
Mg158 O159 1.926 . S
Mg158 O168 1.984 . S
Mg158 O170 1.988 . S
Mg158 O171 2.061 . S
O159 Mg158 1.926 . S
O159 Mg160 1.986 . S
O159 Mg161 1.917 . S
Mg160 O159 1.986 . S
Mg160 O167 2.042 . S
Mg160 O169 2.041 . S
Mg160 O175 2.038 . S
Mg160 O183 2.238 . S
Mg161 O159 1.917 . S
Mg161 O162 1.917 . S
Mg161 O172 2.106 . S
Mg161 O174 2.079 . S
Mg161 O183 2.106 . S
Mg161 O184 2.079 . S
O162 Mg161 1.917 . S
O162 Mg163 1.926 . S
O162 Mg164 1.986 . S
Mg163 O162 1.926 . S
Mg163 O177 1.984 . S
Mg163 O180 1.988 . S
Mg163 O181 2.061 . S
Mg164 O162 1.986 . S
Mg164 O172 2.238 . S
Mg164 O176 2.042 . S
Mg164 O178 2.041 . S
Mg164 O185 2.038 . S
C165 O171 1.247 . S
C165 O172 1.289 . S
C166 O184 1.245 . S
C166 O185 1.274 . S
O167 C155 1.241 . S
O167 Mg160 2.042 . S
O168 C155 1.280 . S
O168 Mg158 1.984 . S
O169 C156 1.277 . S
O169 Mg160 2.041 . S
O170 C156 1.245 . S
O170 Mg158 1.988 . S
O171 Mg158 2.061 . S
O171 C165 1.247 . S
O172 Mg161 2.106 . S
O172 Mg164 2.238 . S
O172 C165 1.289 . S
C173 O174 1.245 . S
C173 O175 1.274 . S
O174 Mg161 2.079 . S
O174 C173 1.245 . S
O175 Mg160 2.038 . S
O175 C173 1.274 . S
O176 Mg164 2.042 . S
O176 C179 1.241 . S
O177 Mg163 1.984 . S
O177 C179 1.280 . S
O178 Mg164 2.041 . S
O178 C182 1.277 . S
C179 O176 1.241 . S
C179 O177 1.280 . S
O180 Mg163 1.988 . S
O180 C182 1.245 . S
O181 C157 1.247 . S
O181 Mg163 2.061 . S
C182 O178 1.277 . S
C182 O180 1.245 . S
O183 C157 1.289 . S
O183 Mg160 2.238 . S
O183 Mg161 2.106 . S
O184 Mg161 2.079 . S
O184 C166 1.245 . S
O185 Mg164 2.038 . S
O185 C166 1.274 . S
C186 O198 1.241 . S
C186 O199 1.280 . S
C187 O200 1.277 . S
C187 O201 1.245 . S
C188 O212 1.247 . S
C188 O214 1.289 . S
Mg189 O190 1.926 1_554 S
Mg189 O199 1.984 1_554 S
Mg189 O201 1.988 . S
Mg189 O202 2.061 . S
O190 Mg189 1.926 1_556 S
O190 Mg191 1.986 . S
O190 Mg192 1.917 1_556 S
Mg191 O190 1.986 . S
Mg191 O198 2.042 . S
Mg191 O200 2.041 1_556 S
Mg191 O206 2.038 . S
Mg191 O214 2.238 . S
Mg192 O190 1.917 1_554 S
Mg192 O193 1.917 . S
Mg192 O203 2.106 . S
Mg192 O205 2.079 1_554 S
Mg192 O214 2.106 1_554 S
Mg192 O215 2.079 . S
O193 Mg192 1.917 . S
O193 Mg194 1.926 1_554 S
O193 Mg195 1.986 . S
Mg194 O193 1.926 1_556 S
Mg194 O208 1.984 1_556 S
Mg194 O211 1.988 . S
Mg194 O212 2.061 . S
Mg195 O193 1.986 . S
Mg195 O203 2.238 . S
Mg195 O207 2.042 . S
Mg195 O209 2.041 1_554 S
Mg195 O216 2.038 . S
C196 O202 1.247 . S
C196 O203 1.289 . S
C197 O215 1.245 . S
C197 O216 1.274 . S
O198 C186 1.241 . S
O198 Mg191 2.042 . S
O199 C186 1.280 . S
O199 Mg189 1.984 1_556 S
O200 C187 1.277 . S
O200 Mg191 2.041 1_554 S
O201 C187 1.245 . S
O201 Mg189 1.988 . S
O202 Mg189 2.061 . S
O202 C196 1.247 . S
O203 Mg192 2.106 . S
O203 Mg195 2.238 . S
O203 C196 1.289 . S
C204 O205 1.245 . S
C204 O206 1.274 . S
O205 Mg192 2.079 1_556 S
O205 C204 1.245 . S
O206 Mg191 2.038 . S
O206 C204 1.274 . S
O207 Mg195 2.042 . S
O207 C210 1.241 . S
O208 Mg194 1.984 1_554 S
O208 C210 1.280 . S
O209 Mg195 2.041 1_556 S
O209 C213 1.277 . S
C210 O207 1.241 . S
C210 O208 1.280 . S
O211 Mg194 1.988 . S
O211 C213 1.245 . S
O212 C188 1.247 . S
O212 Mg194 2.061 . S
C213 O209 1.277 . S
C213 O211 1.245 . S
O214 C188 1.289 . S
O214 Mg191 2.238 . S
O214 Mg192 2.106 1_556 S
O215 Mg192 2.079 . S
O215 C197 1.245 . S
O216 Mg195 2.038 . S
O216 C197 1.274 . S
C217 O229 1.241 . S
C217 O230 1.280 . S
C218 O231 1.277 . S
C218 O232 1.245 . S
C219 O243 1.247 . S
C219 O245 1.289 . S
Mg220 O221 1.926 . S
Mg220 O230 1.984 . S
Mg220 O232 1.988 . S
Mg220 O233 2.061 . S
O221 Mg220 1.926 . S
O221 Mg222 1.986 . S
O221 Mg223 1.917 . S
Mg222 O221 1.986 . S
Mg222 O229 2.042 . S
Mg222 O231 2.041 . S
Mg222 O237 2.038 . S
Mg222 O245 2.238 . S
Mg223 O221 1.917 . S
Mg223 O224 1.917 . S
Mg223 O234 2.106 . S
Mg223 O236 2.079 . S
Mg223 O245 2.106 . S
Mg223 O246 2.079 . S
O224 Mg223 1.917 . S
O224 Mg225 1.926 . S
O224 Mg226 1.986 . S
Mg225 O224 1.926 . S
Mg225 O239 1.984 . S
Mg225 O242 1.988 . S
Mg225 O243 2.061 . S
Mg226 O224 1.986 . S
Mg226 O234 2.238 . S
Mg226 O238 2.042 . S
Mg226 O240 2.041 . S
Mg226 O247 2.038 . S
C227 O233 1.247 . S
C227 O234 1.289 . S
C228 O246 1.245 . S
C228 O247 1.274 . S
O229 C217 1.241 . S
O229 Mg222 2.042 . S
O230 C217 1.280 . S
O230 Mg220 1.984 . S
O231 C218 1.277 . S
O231 Mg222 2.041 . S
O232 C218 1.245 . S
O232 Mg220 1.988 . S
O233 Mg220 2.061 . S
O233 C227 1.247 . S
O234 Mg223 2.106 . S
O234 Mg226 2.238 . S
O234 C227 1.289 . S
C235 O236 1.245 . S
C235 O237 1.274 . S
O236 Mg223 2.079 . S
O236 C235 1.245 . S
O237 Mg222 2.038 . S
O237 C235 1.274 . S
O238 Mg226 2.042 . S
O238 C241 1.241 . S
O239 Mg225 1.984 . S
O239 C241 1.280 . S
O240 Mg226 2.041 . S
O240 C244 1.277 . S
C241 O238 1.241 . S
C241 O239 1.280 . S
O242 Mg225 1.988 . S
O242 C244 1.245 . S
O243 C219 1.247 . S
O243 Mg225 2.061 . S
C244 O240 1.277 . S
C244 O242 1.245 . S
O245 C219 1.289 . S
O245 Mg222 2.238 . S
O245 Mg223 2.106 . S
O246 Mg223 2.079 . S
O246 C228 1.245 . S
O247 Mg226 2.038 . S
O247 C228 1.274 . S
C248 O260 1.241 . S
C248 O261 1.280 . S
C249 O262 1.277 . S
C249 O263 1.245 . S
C250 O274 1.247 1_554 S
C250 O276 1.289 . S
Mg251 O252 1.926 . S
Mg251 O261 1.984 1_554 S
Mg251 O263 1.988 . S
Mg251 O264 2.061 . S
O252 Mg251 1.926 . S
O252 Mg253 1.986 1_554 S
O252 Mg254 1.917 . S
Mg253 O252 1.986 1_556 S
Mg253 O260 2.042 . S
Mg253 O262 2.041 1_556 S
Mg253 O268 2.038 . S
Mg253 O276 2.238 1_556 S
Mg254 O252 1.917 . S
Mg254 O255 1.917 . S
Mg254 O265 2.106 . S
Mg254 O267 2.079 1_554 S
Mg254 O276 2.106 . S
Mg254 O277 2.079 . S
O255 Mg254 1.917 . S
O255 Mg256 1.926 1_554 S
O255 Mg257 1.986 . S
Mg256 O255 1.926 1_556 S
Mg256 O270 1.984 1_556 S
Mg256 O273 1.988 . S
Mg256 O274 2.061 . S
Mg257 O255 1.986 . S
Mg257 O265 2.238 . S
Mg257 O269 2.042 . S
Mg257 O271 2.041 1_554 S
Mg257 O278 2.038 . S
C258 O264 1.247 . S
C258 O265 1.289 . S
C259 O277 1.245 . S
C259 O278 1.274 . S
O260 C248 1.241 . S
O260 Mg253 2.042 . S
O261 C248 1.280 . S
O261 Mg251 1.984 1_556 S
O262 C249 1.277 . S
O262 Mg253 2.041 1_554 S
O263 C249 1.245 . S
O263 Mg251 1.988 . S
O264 Mg251 2.061 . S
O264 C258 1.247 . S
O265 Mg254 2.106 . S
O265 Mg257 2.238 . S
O265 C258 1.289 . S
C266 O267 1.245 . S
C266 O268 1.274 . S
O267 Mg254 2.079 1_556 S
O267 C266 1.245 . S
O268 Mg253 2.038 . S
O268 C266 1.274 . S
O269 Mg257 2.042 . S
O269 C272 1.241 . S
O270 Mg256 1.984 1_554 S
O270 C272 1.280 . S
O271 Mg257 2.041 1_556 S
O271 C275 1.277 . S
C272 O269 1.241 . S
C272 O270 1.280 . S
O273 Mg256 1.988 . S
O273 C275 1.245 . S
O274 C250 1.247 1_556 S
O274 Mg256 2.061 . S
C275 O271 1.277 . S
C275 O273 1.245 . S
O276 C250 1.289 . S
O276 Mg253 2.238 1_554 S
O276 Mg254 2.106 . S
O277 Mg254 2.079 . S
O277 C259 1.245 . S
O278 Mg257 2.038 . S
O278 C259 1.274 . S
C279 O291 1.241 1_545 S
C279 O292 1.280 . S
C280 O293 1.277 . S
C280 O294 1.245 . S
C281 O305 1.247 . S
C281 O307 1.289 . S
Mg282 O283 1.926 . S
Mg282 O292 1.984 1_565 S
Mg282 O294 1.988 . S
Mg282 O295 2.061 . S
O283 Mg282 1.926 . S
O283 Mg284 1.986 . S
O283 Mg285 1.917 . S
Mg284 O283 1.986 . S
Mg284 O291 2.042 . S
Mg284 O293 2.041 . S
Mg284 O299 2.038 . S
Mg284 O307 2.238 . S
Mg285 O283 1.917 . S
Mg285 O286 1.917 . S
Mg285 O296 2.106 . S
Mg285 O298 2.079 . S
Mg285 O307 2.106 . S
Mg285 O308 2.079 . S
O286 Mg285 1.917 . S
O286 Mg287 1.926 . S
O286 Mg288 1.986 . S
Mg287 O286 1.926 . S
Mg287 O301 1.984 . S
Mg287 O304 1.988 . S
Mg287 O305 2.061 . S
Mg288 O286 1.986 . S
Mg288 O296 2.238 . S
Mg288 O300 2.042 . S
Mg288 O302 2.041 . S
Mg288 O309 2.038 . S
C289 O295 1.247 . S
C289 O296 1.289 . S
C290 O308 1.245 . S
C290 O309 1.274 . S
O291 C279 1.241 1_565 S
O291 Mg284 2.042 . S
O292 C279 1.280 . S
O292 Mg282 1.984 1_545 S
O293 C280 1.277 . S
O293 Mg284 2.041 . S
O294 C280 1.245 . S
O294 Mg282 1.988 . S
O295 Mg282 2.061 . S
O295 C289 1.247 . S
O296 Mg285 2.106 . S
O296 Mg288 2.238 . S
O296 C289 1.289 . S
C297 O298 1.245 . S
C297 O299 1.274 . S
O298 Mg285 2.079 . S
O298 C297 1.245 . S
O299 Mg284 2.038 . S
O299 C297 1.274 . S
O300 Mg288 2.042 . S
O300 C303 1.241 . S
O301 Mg287 1.984 . S
O301 C303 1.280 . S
O302 Mg288 2.041 . S
O302 C306 1.277 . S
C303 O300 1.241 . S
C303 O301 1.280 . S
O304 Mg287 1.988 . S
O304 C306 1.245 . S
O305 C281 1.247 . S
O305 Mg287 2.061 . S
C306 O302 1.277 . S
C306 O304 1.245 . S
O307 C281 1.289 . S
O307 Mg284 2.238 . S
O307 Mg285 2.106 . S
O308 Mg285 2.079 . S
O308 C290 1.245 . S
O309 Mg288 2.038 . S
O309 C290 1.274 . S
C310 O322 1.241 . S
C310 O323 1.280 . S
C311 O324 1.277 . S
C311 O325 1.245 . S
C312 O336 1.247 . S
C312 O338 1.289 . S
Mg313 O314 1.926 . S
Mg313 O323 1.984 . S
Mg313 O325 1.988 . S
Mg313 O326 2.061 . S
O314 Mg313 1.926 . S
O314 Mg315 1.986 . S
O314 Mg316 1.917 . S
Mg315 O314 1.986 . S
Mg315 O322 2.042 . S
Mg315 O324 2.041 . S
Mg315 O330 2.038 . S
Mg315 O338 2.238 . S
Mg316 O314 1.917 . S
Mg316 O317 1.917 . S
Mg316 O327 2.106 . S
Mg316 O329 2.079 . S
Mg316 O338 2.106 . S
Mg316 O339 2.079 . S
O317 Mg316 1.917 . S
O317 Mg318 1.926 . S
O317 Mg319 1.986 . S
Mg318 O317 1.926 . S
Mg318 O332 1.984 . S
Mg318 O335 1.988 . S
Mg318 O336 2.061 . S
Mg319 O317 1.986 . S
Mg319 O327 2.238 . S
Mg319 O331 2.042 . S
Mg319 O333 2.041 . S
Mg319 O340 2.038 . S
C320 O326 1.247 . S
C320 O327 1.289 . S
C321 O339 1.245 . S
C321 O340 1.274 . S
O322 C310 1.241 . S
O322 Mg315 2.042 . S
O323 C310 1.280 . S
O323 Mg313 1.984 . S
O324 C311 1.277 . S
O324 Mg315 2.041 . S
O325 C311 1.245 . S
O325 Mg313 1.988 . S
O326 Mg313 2.061 . S
O326 C320 1.247 . S
O327 Mg316 2.106 . S
O327 Mg319 2.238 . S
O327 C320 1.289 . S
C328 O329 1.245 . S
C328 O330 1.274 . S
O329 Mg316 2.079 . S
O329 C328 1.245 . S
O330 Mg315 2.038 . S
O330 C328 1.274 . S
O331 Mg319 2.042 . S
O331 C334 1.241 . S
O332 Mg318 1.984 . S
O332 C334 1.280 . S
O333 Mg319 2.041 . S
O333 C337 1.277 . S
C334 O331 1.241 . S
C334 O332 1.280 . S
O335 Mg318 1.988 . S
O335 C337 1.245 . S
O336 C312 1.247 . S
O336 Mg318 2.061 . S
C337 O333 1.277 . S
C337 O335 1.245 . S
O338 C312 1.289 . S
O338 Mg315 2.238 . S
O338 Mg316 2.106 . S
O339 Mg316 2.079 . S
O339 C321 1.245 . S
O340 Mg319 2.038 . S
O340 C321 1.274 . S
C341 O353 1.241 1_565 S
C341 O354 1.280 . S
C342 O355 1.277 . S
C342 O356 1.245 . S
C343 O367 1.247 . S
C343 O369 1.289 . S
Mg344 O345 1.926 . S
Mg344 O354 1.984 1_545 S
Mg344 O356 1.988 . S
Mg344 O357 2.061 . S
O345 Mg344 1.926 . S
O345 Mg346 1.986 . S
O345 Mg347 1.917 . S
Mg346 O345 1.986 . S
Mg346 O353 2.042 . S
Mg346 O355 2.041 . S
Mg346 O361 2.038 . S
Mg346 O369 2.238 . S
Mg347 O345 1.917 . S
Mg347 O348 1.917 . S
Mg347 O358 2.106 . S
Mg347 O360 2.079 . S
Mg347 O369 2.106 . S
Mg347 O370 2.079 . S
O348 Mg347 1.917 . S
O348 Mg349 1.926 . S
O348 Mg350 1.986 . S
Mg349 O348 1.926 . S
Mg349 O363 1.984 . S
Mg349 O366 1.988 . S
Mg349 O367 2.061 . S
Mg350 O348 1.986 . S
Mg350 O358 2.238 . S
Mg350 O362 2.042 . S
Mg350 O364 2.041 . S
Mg350 O371 2.038 1_556 S
C351 O357 1.247 . S
C351 O358 1.289 . S
C352 O370 1.245 1_554 S
C352 O371 1.274 . S
O353 C341 1.241 1_545 S
O353 Mg346 2.042 . S
O354 C341 1.280 . S
O354 Mg344 1.984 1_565 S
O355 C342 1.277 . S
O355 Mg346 2.041 . S
O356 C342 1.245 . S
O356 Mg344 1.988 . S
O357 Mg344 2.061 . S
O357 C351 1.247 . S
O358 Mg347 2.106 . S
O358 Mg350 2.238 . S
O358 C351 1.289 . S
C359 O360 1.245 . S
C359 O361 1.274 . S
O360 Mg347 2.079 . S
O360 C359 1.245 . S
O361 Mg346 2.038 . S
O361 C359 1.274 . S
O362 Mg350 2.042 . S
O362 C365 1.241 . S
O363 Mg349 1.984 . S
O363 C365 1.280 . S
O364 Mg350 2.041 . S
O364 C368 1.277 . S
C365 O362 1.241 . S
C365 O363 1.280 . S
O366 Mg349 1.988 . S
O366 C368 1.245 . S
O367 C343 1.247 . S
O367 Mg349 2.061 . S
C368 O364 1.277 . S
C368 O366 1.245 . S
O369 C343 1.289 . S
O369 Mg346 2.238 . S
O369 Mg347 2.106 . S
O370 Mg347 2.079 . S
O370 C352 1.245 1_556 S
O371 Mg350 2.038 1_554 S
O371 C352 1.274 . S
C372 O384 1.241 . S
C372 O385 1.280 . S
C373 O386 1.277 . S
C373 O387 1.245 . S
C374 O398 1.247 . S
C374 O400 1.289 . S
Mg375 O376 1.926 1_554 S
Mg375 O385 1.984 1_554 S
Mg375 O387 1.988 . S
Mg375 O388 2.061 . S
O376 Mg375 1.926 1_556 S
O376 Mg377 1.986 . S
O376 Mg378 1.917 1_556 S
Mg377 O376 1.986 . S
Mg377 O384 2.042 . S
Mg377 O386 2.041 1_556 S
Mg377 O392 2.038 . S
Mg377 O400 2.238 . S
Mg378 O376 1.917 1_554 S
Mg378 O379 1.917 . S
Mg378 O389 2.106 . S
Mg378 O391 2.079 1_554 S
Mg378 O400 2.106 1_554 S
Mg378 O401 2.079 . S
O379 Mg378 1.917 . S
O379 Mg380 1.926 1_554 S
O379 Mg381 1.986 . S
Mg380 O379 1.926 1_556 S
Mg380 O394 1.984 1_556 S
Mg380 O397 1.988 . S
Mg380 O398 2.061 . S
Mg381 O379 1.986 . S
Mg381 O389 2.238 . S
Mg381 O393 2.042 . S
Mg381 O395 2.041 1_554 S
Mg381 O402 2.038 . S
C382 O388 1.247 . S
C382 O389 1.289 . S
C383 O401 1.245 . S
C383 O402 1.274 . S
O384 C372 1.241 . S
O384 Mg377 2.042 . S
O385 C372 1.280 . S
O385 Mg375 1.984 1_556 S
O386 C373 1.277 . S
O386 Mg377 2.041 1_554 S
O387 C373 1.245 . S
O387 Mg375 1.988 . S
O388 Mg375 2.061 . S
O388 C382 1.247 . S
O389 Mg378 2.106 . S
O389 Mg381 2.238 . S
O389 C382 1.289 . S
C390 O391 1.245 . S
C390 O392 1.274 . S
O391 Mg378 2.079 1_556 S
O391 C390 1.245 . S
O392 Mg377 2.038 . S
O392 C390 1.274 . S
O393 Mg381 2.042 . S
O393 C396 1.241 . S
O394 Mg380 1.984 1_554 S
O394 C396 1.280 . S
O395 Mg381 2.041 1_556 S
O395 C399 1.277 . S
C396 O393 1.241 . S
C396 O394 1.280 . S
O397 Mg380 1.988 . S
O397 C399 1.245 . S
O398 C374 1.247 . S
O398 Mg380 2.061 . S
C399 O395 1.277 . S
C399 O397 1.245 . S
O400 C374 1.289 . S
O400 Mg377 2.238 . S
O400 Mg378 2.106 1_556 S
O401 Mg378 2.079 . S
O401 C383 1.245 . S
O402 Mg381 2.038 . S
O402 C383 1.274 . S
C403 O415 1.241 . S
C403 O416 1.280 . S
C404 O417 1.277 . S
C404 O418 1.245 . S
C405 O429 1.247 . S
C405 O431 1.289 . S
Mg406 O407 1.926 . S
Mg406 O416 1.984 . S
Mg406 O418 1.988 . S
Mg406 O419 2.061 . S
O407 Mg406 1.926 . S
O407 Mg408 1.986 . S
O407 Mg409 1.917 . S
Mg408 O407 1.986 . S
Mg408 O415 2.042 . S
Mg408 O417 2.041 . S
Mg408 O423 2.038 . S
Mg408 O431 2.238 . S
Mg409 O407 1.917 . S
Mg409 O410 1.917 . S
Mg409 O420 2.106 . S
Mg409 O422 2.079 . S
Mg409 O431 2.106 . S
Mg409 O432 2.079 . S
O410 Mg409 1.917 . S
O410 Mg411 1.926 . S
O410 Mg412 1.986 . S
Mg411 O410 1.926 . S
Mg411 O425 1.984 1_545 S
Mg411 O428 1.988 . S
Mg411 O429 2.061 . S
Mg412 O410 1.986 . S
Mg412 O420 2.238 . S
Mg412 O424 2.042 . S
Mg412 O426 2.041 . S
Mg412 O433 2.038 . S
C413 O419 1.247 . S
C413 O420 1.289 . S
C414 O432 1.245 . S
C414 O433 1.274 . S
O415 C403 1.241 . S
O415 Mg408 2.042 . S
O416 C403 1.280 . S
O416 Mg406 1.984 . S
O417 C404 1.277 . S
O417 Mg408 2.041 . S
O418 C404 1.245 . S
O418 Mg406 1.988 . S
O419 Mg406 2.061 . S
O419 C413 1.247 . S
O420 Mg409 2.106 . S
O420 Mg412 2.238 . S
O420 C413 1.289 . S
C421 O422 1.245 . S
C421 O423 1.274 . S
O422 Mg409 2.079 . S
O422 C421 1.245 . S
O423 Mg408 2.038 . S
O423 C421 1.274 . S
O424 Mg412 2.042 . S
O424 C427 1.241 1_545 S
O425 Mg411 1.984 1_565 S
O425 C427 1.280 . S
O426 Mg412 2.041 . S
O426 C430 1.277 . S
C427 O424 1.241 1_565 S
C427 O425 1.280 . S
O428 Mg411 1.988 . S
O428 C430 1.245 . S
O429 C405 1.247 . S
O429 Mg411 2.061 . S
C430 O426 1.277 . S
C430 O428 1.245 . S
O431 C405 1.289 . S
O431 Mg408 2.238 . S
O431 Mg409 2.106 . S
O432 Mg409 2.079 . S
O432 C414 1.245 . S
O433 Mg412 2.038 . S
O433 C414 1.274 . S
C434 O446 1.241 . S
C434 O447 1.280 . S
C435 O448 1.277 . S
C435 O449 1.245 . S
C436 O460 1.247 . S
C436 O462 1.289 . S
Mg437 O438 1.926 . S
Mg437 O447 1.984 . S
Mg437 O449 1.988 . S
Mg437 O450 2.061 . S
O438 Mg437 1.926 . S
O438 Mg439 1.986 . S
O438 Mg440 1.917 . S
Mg439 O438 1.986 . S
Mg439 O446 2.042 . S
Mg439 O448 2.041 . S
Mg439 O454 2.038 . S
Mg439 O462 2.238 . S
Mg440 O438 1.917 . S
Mg440 O441 1.917 . S
Mg440 O451 2.106 . S
Mg440 O453 2.079 . S
Mg440 O462 2.106 . S
Mg440 O463 2.079 . S
O441 Mg440 1.917 . S
O441 Mg442 1.926 . S
O441 Mg443 1.986 . S
Mg442 O441 1.926 . S
Mg442 O456 1.984 . S
Mg442 O459 1.988 . S
Mg442 O460 2.061 . S
Mg443 O441 1.986 . S
Mg443 O451 2.238 . S
Mg443 O455 2.042 . S
Mg443 O457 2.041 . S
Mg443 O464 2.038 . S
C444 O450 1.247 . S
C444 O451 1.289 . S
C445 O463 1.245 . S
C445 O464 1.274 . S
O446 C434 1.241 . S
O446 Mg439 2.042 . S
O447 C434 1.280 . S
O447 Mg437 1.984 . S
O448 C435 1.277 . S
O448 Mg439 2.041 . S
O449 C435 1.245 . S
O449 Mg437 1.988 . S
O450 Mg437 2.061 . S
O450 C444 1.247 . S
O451 Mg440 2.106 . S
O451 Mg443 2.238 . S
O451 C444 1.289 . S
C452 O453 1.245 . S
C452 O454 1.274 . S
O453 Mg440 2.079 . S
O453 C452 1.245 . S
O454 Mg439 2.038 . S
O454 C452 1.274 . S
O455 Mg443 2.042 . S
O455 C458 1.241 . S
O456 Mg442 1.984 . S
O456 C458 1.280 . S
O457 Mg443 2.041 . S
O457 C461 1.277 . S
C458 O455 1.241 . S
C458 O456 1.280 . S
O459 Mg442 1.988 . S
O459 C461 1.245 . S
O460 C436 1.247 . S
O460 Mg442 2.061 . S
C461 O457 1.277 . S
C461 O459 1.245 . S
O462 C436 1.289 . S
O462 Mg439 2.238 . S
O462 Mg440 2.106 . S
O463 Mg440 2.079 . S
O463 C445 1.245 . S
O464 Mg443 2.038 . S
O464 C445 1.274 . S
C465 O477 1.241 . S
C465 O478 1.280 . S
C466 O479 1.277 . S
C466 O480 1.245 . S
C467 O491 1.247 . S
C467 O493 1.289 . S
Mg468 O469 1.926 . S
Mg468 O478 1.984 . S
Mg468 O480 1.988 . S
Mg468 O481 2.061 . S
O469 Mg468 1.926 . S
O469 Mg470 1.986 . S
O469 Mg471 1.917 . S
Mg470 O469 1.986 . S
Mg470 O477 2.042 . S
Mg470 O479 2.041 . S
Mg470 O485 2.038 . S
Mg470 O493 2.238 . S
Mg471 O469 1.917 . S
Mg471 O472 1.917 . S
Mg471 O482 2.106 . S
Mg471 O484 2.079 . S
Mg471 O493 2.106 . S
Mg471 O494 2.079 . S
O472 Mg471 1.917 . S
O472 Mg473 1.926 . S
O472 Mg474 1.986 . S
Mg473 O472 1.926 . S
Mg473 O487 1.984 1_565 S
Mg473 O490 1.988 . S
Mg473 O491 2.061 . S
Mg474 O472 1.986 . S
Mg474 O482 2.238 . S
Mg474 O486 2.042 . S
Mg474 O488 2.041 . S
Mg474 O495 2.038 . S
C475 O481 1.247 . S
C475 O482 1.289 . S
C476 O494 1.245 . S
C476 O495 1.274 . S
O477 C465 1.241 . S
O477 Mg470 2.042 . S
O478 C465 1.280 . S
O478 Mg468 1.984 . S
O479 C466 1.277 . S
O479 Mg470 2.041 . S
O480 C466 1.245 . S
O480 Mg468 1.988 . S
O481 Mg468 2.061 . S
O481 C475 1.247 . S
O482 Mg471 2.106 . S
O482 Mg474 2.238 . S
O482 C475 1.289 . S
C483 O484 1.245 . S
C483 O485 1.274 . S
O484 Mg471 2.079 . S
O484 C483 1.245 . S
O485 Mg470 2.038 . S
O485 C483 1.274 . S
O486 Mg474 2.042 . S
O486 C489 1.241 1_565 S
O487 Mg473 1.984 1_545 S
O487 C489 1.280 . S
O488 Mg474 2.041 . S
O488 C492 1.277 . S
C489 O486 1.241 1_545 S
C489 O487 1.280 . S
O490 Mg473 1.988 . S
O490 C492 1.245 . S
O491 C467 1.247 . S
O491 Mg473 2.061 . S
C492 O488 1.277 . S
C492 O490 1.245 . S
O493 C467 1.289 . S
O493 Mg470 2.238 . S
O493 Mg471 2.106 . S
O494 Mg471 2.079 . S
O494 C476 1.245 . S
O495 Mg474 2.038 . S
O495 C476 1.274 . S
C496 C497 1.387 . S
C496 H500 0.950 . S
C496 C505 1.390 . S
C497 C496 1.387 . S
C497 C499 1.387 . S
H498 C505 0.950 . S
C499 C497 1.387 . S
C499 C501 1.390 . S
C499 H503 0.950 . S
H500 C496 0.950 . S
C501 C499 1.390 . S
C501 C502 1.387 . S
C501 H504 0.950 . S
C502 C501 1.387 . S
C502 C505 1.387 . S
H503 C499 0.950 . S
H504 C501 0.950 . S
C505 C496 1.390 . S
C505 H498 0.950 . S
C505 C502 1.387 . S
C506 C507 1.387 . S
C506 H510 0.950 . S
C506 C515 1.390 . S
C507 C506 1.387 . S
C507 C509 1.387 . S
H508 C515 0.950 . S
C509 C507 1.387 . S
C509 C511 1.390 . S
C509 H513 0.950 . S
H510 C506 0.950 . S
C511 C509 1.390 . S
C511 C512 1.387 . S
C511 H514 0.950 . S
C512 C511 1.387 . S
C512 C515 1.387 . S
H513 C509 0.950 . S
H514 C511 0.950 . S
C515 C506 1.390 . S
C515 H508 0.950 . S
C515 C512 1.387 . S
C516 C517 1.387 . S
C516 H520 0.950 . S
C516 C525 1.390 . S
C517 C516 1.387 . S
C517 C519 1.387 1_554 S
H518 C525 0.950 . S
C519 C517 1.387 1_556 S
C519 C521 1.390 . S
C519 H523 0.950 . S
H520 C516 0.950 . S
C521 C519 1.390 . S
C521 C522 1.387 1_556 S
C521 H524 0.950 . S
C522 C521 1.387 1_554 S
C522 C525 1.387 . S
H523 C519 0.950 . S
H524 C521 0.950 . S
C525 C516 1.390 . S
C525 H518 0.950 . S
C525 C522 1.387 . S
C526 C527 1.387 . S
C526 H530 0.950 . S
C526 C535 1.390 . S
C527 C526 1.387 . S
C527 C529 1.387 . S
H528 C535 0.950 . S
C529 C527 1.387 . S
C529 C531 1.390 . S
C529 H533 0.950 . S
H530 C526 0.950 . S
C531 C529 1.390 . S
C531 C532 1.387 . S
C531 H534 0.950 . S
C532 C531 1.387 . S
C532 C535 1.387 . S
H533 C529 0.950 . S
H534 C531 0.950 . S
C535 C526 1.390 . S
C535 H528 0.950 . S
C535 C532 1.387 . S
C536 C537 1.387 . S
C536 H540 0.950 . S
C536 C545 1.390 . S
C537 C536 1.387 . S
C537 C539 1.387 . S
H538 C545 0.950 . S
C539 C537 1.387 . S
C539 C541 1.390 . S
C539 H543 0.950 . S
H540 C536 0.950 . S
C541 C539 1.390 . S
C541 C542 1.387 . S
C541 H544 0.950 . S
C542 C541 1.387 . S
C542 C545 1.387 . S
H543 C539 0.950 . S
H544 C541 0.950 . S
C545 C536 1.390 . S
C545 H538 0.950 . S
C545 C542 1.387 . S
C546 C547 1.387 . S
C546 H550 0.950 . S
C546 C555 1.390 . S
C547 C546 1.387 . S
C547 C549 1.387 . S
H548 C555 0.950 . S
C549 C547 1.387 . S
C549 C551 1.390 . S
C549 H553 0.950 . S
H550 C546 0.950 . S
C551 C549 1.390 . S
C551 C552 1.387 . S
C551 H554 0.950 . S
C552 C551 1.387 . S
C552 C555 1.387 . S
H553 C549 0.950 . S
H554 C551 0.950 . S
C555 C546 1.390 . S
C555 H548 0.950 . S
C555 C552 1.387 . S
C556 C557 1.387 . S
C556 H560 0.950 . S
C556 C565 1.390 . S
C557 C556 1.387 . S
C557 C559 1.387 1_556 S
H558 C565 0.950 . S
C559 C557 1.387 1_554 S
C559 C561 1.390 . S
C559 H563 0.950 . S
H560 C556 0.950 . S
C561 C559 1.390 . S
C561 C562 1.387 1_554 S
C561 H564 0.950 . S
C562 C561 1.387 1_556 S
C562 C565 1.387 . S
H563 C559 0.950 . S
H564 C561 0.950 . S
C565 C556 1.390 . S
C565 H558 0.950 . S
C565 C562 1.387 . S
C566 C567 1.387 . S
C566 H570 0.950 . S
C566 C575 1.390 . S
C567 C566 1.387 . S
C567 C569 1.387 . S
H568 C575 0.950 . S
C569 C567 1.387 . S
C569 C571 1.390 . S
C569 H573 0.950 . S
H570 C566 0.950 . S
C571 C569 1.390 . S
C571 C572 1.387 . S
C571 H574 0.950 . S
C572 C571 1.387 . S
C572 C575 1.387 . S
H573 C569 0.950 . S
H574 C571 0.950 . S
C575 C566 1.390 . S
C575 H568 0.950 . S
C575 C572 1.387 . S
C576 C577 1.387 . S
C576 H580 0.950 . S
C576 C585 1.390 . S
C577 C576 1.387 . S
C577 C579 1.387 1_554 S
H578 C585 0.950 . S
C579 C577 1.387 1_556 S
C579 C581 1.390 . S
C579 H583 0.950 . S
H580 C576 0.950 . S
C581 C579 1.390 . S
C581 C582 1.387 1_556 S
C581 H584 0.950 . S
C582 C581 1.387 1_554 S
C582 C585 1.387 . S
H583 C579 0.950 . S
H584 C581 0.950 . S
C585 C576 1.390 . S
C585 H578 0.950 . S
C585 C582 1.387 . S
C586 C587 1.387 . S
C586 H590 0.950 . S
C586 C595 1.390 . S
C587 C586 1.387 . S
C587 C589 1.387 . S
H588 C595 0.950 . S
C589 C587 1.387 . S
C589 C591 1.390 . S
C589 H593 0.950 . S
H590 C586 0.950 . S
C591 C589 1.390 . S
C591 C592 1.387 . S
C591 H594 0.950 . S
C592 C591 1.387 . S
C592 C595 1.387 . S
H593 C589 0.950 . S
H594 C591 0.950 . S
C595 C586 1.390 . S
C595 H588 0.950 . S
C595 C592 1.387 . S
C596 C597 1.387 . S
C596 H600 0.950 . S
C596 C605 1.390 . S
C597 C596 1.387 . S
C597 C599 1.387 . S
H598 C605 0.950 . S
C599 C597 1.387 . S
C599 C601 1.390 . S
C599 H603 0.950 . S
H600 C596 0.950 . S
C601 C599 1.390 . S
C601 C602 1.387 . S
C601 H604 0.950 . S
C602 C601 1.387 . S
C602 C605 1.387 . S
H603 C599 0.950 . S
H604 C601 0.950 . S
C605 C596 1.390 . S
C605 H598 0.950 . S
C605 C602 1.387 . S
C606 C607 1.387 . S
C606 H610 0.950 . S
C606 C615 1.390 . S
C607 C606 1.387 . S
C607 C609 1.387 . S
H608 C615 0.950 . S
C609 C607 1.387 . S
C609 C611 1.390 . S
C609 H613 0.950 . S
H610 C606 0.950 . S
C611 C609 1.390 . S
C611 C612 1.387 . S
C611 H614 0.950 . S
C612 C611 1.387 . S
C612 C615 1.387 . S
H613 C609 0.950 . S
H614 C611 0.950 . S
C615 C606 1.390 . S
C615 H608 0.950 . S
C615 C612 1.387 . S
C616 C617 1.387 . S
C616 H620 0.950 . S
C616 C625 1.390 . S
C617 C616 1.387 . S
C617 C619 1.387 1_556 S
H618 C625 0.950 . S
C619 C617 1.387 1_554 S
C619 C621 1.390 . S
C619 H623 0.950 . S
H620 C616 0.950 . S
C621 C619 1.390 . S
C621 C622 1.387 1_554 S
C621 H624 0.950 . S
C622 C621 1.387 1_556 S
C622 C625 1.387 . S
H623 C619 0.950 . S
H624 C621 0.950 . S
C625 C616 1.390 . S
C625 H618 0.950 . S
C625 C622 1.387 . S
C626 C627 1.387 . S
C626 H630 0.950 . S
C626 C635 1.390 . S
C627 C626 1.387 . S
C627 C629 1.387 . S
H628 C635 0.950 . S
C629 C627 1.387 . S
C629 C631 1.390 . S
C629 H633 0.950 . S
H630 C626 0.950 . S
C631 C629 1.390 . S
C631 C632 1.387 . S
C631 H634 0.950 . S
C632 C631 1.387 . S
C632 C635 1.387 . S
H633 C629 0.950 . S
H634 C631 0.950 . S
C635 C626 1.390 . S
C635 H628 0.950 . S
C635 C632 1.387 . S
C636 C637 1.387 . S
C636 H640 0.950 . S
C636 C645 1.390 . S
C637 C636 1.387 . S
C637 C639 1.387 . S
H638 C645 0.950 . S
C639 C637 1.387 . S
C639 C641 1.390 . S
C639 H643 0.950 . S
H640 C636 0.950 . S
C641 C639 1.390 . S
C641 C642 1.387 . S
C641 H644 0.950 . S
C642 C641 1.387 . S
C642 C645 1.387 . S
H643 C639 0.950 . S
H644 C641 0.950 . S
C645 C636 1.390 . S
C645 H638 0.950 . S
C645 C642 1.387 . S
C646 C647 1.387 . S
C646 H650 0.950 . S
C646 C655 1.390 . S
C647 C646 1.387 . S
C647 C649 1.387 . S
H648 C655 0.950 . S
C649 C647 1.387 . S
C649 C651 1.390 . S
C649 H653 0.950 . S
H650 C646 0.950 . S
C651 C649 1.390 . S
C651 C652 1.387 . S
C651 H654 0.950 . S
C652 C651 1.387 . S
C652 C655 1.387 . S
H653 C649 0.950 . S
H654 C651 0.950 . S
C655 C646 1.390 . S
C655 H648 0.950 . S
C655 C652 1.387 . S
C656 C657 1.387 . S
C656 H660 0.950 . S
C656 C665 1.390 1_554 S
C657 C656 1.387 . S
C657 C659 1.387 . S
H658 C665 0.950 . S
C659 C657 1.387 . S
C659 C661 1.390 1_554 S
C659 H663 0.950 . S
H660 C656 0.950 . S
C661 C659 1.390 1_556 S
C661 C662 1.387 . S
C661 H664 0.950 . S
C662 C661 1.387 . S
C662 C665 1.387 . S
H663 C659 0.950 . S
H664 C661 0.950 . S
C665 C656 1.390 1_556 S
C665 H658 0.950 . S
C665 C662 1.387 . S
C666 C667 1.387 . S
C666 H670 0.950 . S
C666 C675 1.390 . S
C667 C666 1.387 . S
C667 C669 1.387 . S
H668 C675 0.950 . S
C669 C667 1.387 . S
C669 C671 1.390 . S
C669 H673 0.950 . S
H670 C666 0.950 . S
C671 C669 1.390 . S
C671 C672 1.387 . S
C671 H674 0.950 . S
C672 C671 1.387 . S
C672 C675 1.387 . S
H673 C669 0.950 . S
H674 C671 0.950 . S
C675 C666 1.390 . S
C675 H668 0.950 . S
C675 C672 1.387 . S
C676 C677 1.387 . S
C676 H680 0.950 . S
C676 C685 1.390 . S
C677 C676 1.387 . S
C677 C679 1.387 . S
H678 C685 0.950 . S
C679 C677 1.387 . S
C679 C681 1.390 . S
C679 H683 0.950 . S
H680 C676 0.950 . S
C681 C679 1.390 . S
C681 C682 1.387 . S
C681 H684 0.950 . S
C682 C681 1.387 . S
C682 C685 1.387 . S
H683 C679 0.950 . S
H684 C681 0.950 . S
C685 C676 1.390 . S
C685 H678 0.950 . S
C685 C682 1.387 . S
C686 C687 1.387 . S
C686 H690 0.950 . S
C686 C695 1.390 . S
C687 C686 1.387 . S
C687 C689 1.387 . S
H688 C695 0.950 . S
C689 C687 1.387 . S
C689 C691 1.390 . S
C689 H693 0.950 . S
H690 C686 0.950 . S
C691 C689 1.390 . S
C691 C692 1.387 . S
C691 H694 0.950 . S
C692 C691 1.387 . S
C692 C695 1.387 . S
H693 C689 0.950 . S
H694 C691 0.950 . S
C695 C686 1.390 . S
C695 H688 0.950 . S
C695 C692 1.387 . S
C696 C697 1.387 . S
C696 H700 0.950 . S
C696 C705 1.390 1_554 S
C697 C696 1.387 . S
C697 C699 1.387 . S
H698 C705 0.950 . S
C699 C697 1.387 . S
C699 C701 1.390 1_554 S
C699 H703 0.950 . S
H700 C696 0.950 . S
C701 C699 1.390 1_556 S
C701 C702 1.387 . S
C701 H704 0.950 . S
C702 C701 1.387 . S
C702 C705 1.387 . S
H703 C699 0.950 . S
H704 C701 0.950 . S
C705 C696 1.390 1_556 S
C705 H698 0.950 . S
C705 C702 1.387 . S
C706 C707 1.387 . S
C706 H710 0.950 . S
C706 C715 1.390 . S
C707 C706 1.387 . S
C707 C709 1.387 . S
H708 C715 0.950 . S
C709 C707 1.387 . S
C709 C711 1.390 . S
C709 H713 0.950 . S
H710 C706 0.950 . S
C711 C709 1.390 . S
C711 C712 1.387 . S
C711 H714 0.950 . S
C712 C711 1.387 . S
C712 C715 1.387 . S
H713 C709 0.950 . S
H714 C711 0.950 . S
C715 C706 1.390 . S
C715 H708 0.950 . S
C715 C712 1.387 . S
C716 C717 1.387 . S
C716 H720 0.950 . S
C716 C725 1.390 . S
C717 C716 1.387 . S
C717 C719 1.387 . S
H718 C725 0.950 . S
C719 C717 1.387 . S
C719 C721 1.390 . S
C719 H723 0.950 . S
H720 C716 0.950 . S
C721 C719 1.390 . S
C721 C722 1.387 . S
C721 H724 0.950 . S
C722 C721 1.387 . S
C722 C725 1.387 . S
H723 C719 0.950 . S
H724 C721 0.950 . S
C725 C716 1.390 . S
C725 H718 0.950 . S
C725 C722 1.387 . S
C726 C727 1.387 . S
C726 H730 0.950 . S
C726 C735 1.390 . S
C727 C726 1.387 . S
C727 C729 1.387 . S
H728 C735 0.950 . S
C729 C727 1.387 . S
C729 C731 1.390 . S
C729 H733 0.950 . S
H730 C726 0.950 . S
C731 C729 1.390 . S
C731 C732 1.387 . S
C731 H734 0.950 . S
C732 C731 1.387 . S
C732 C735 1.387 . S
H733 C729 0.950 . S
H734 C731 0.950 . S
C735 C726 1.390 . S
C735 H728 0.950 . S
C735 C732 1.387 . S
C736 C737 1.387 . S
C736 H740 0.950 . S
C736 C745 1.390 . S
C737 C736 1.387 . S
C737 C739 1.387 . S
H738 C745 0.950 . S
C739 C737 1.387 . S
C739 C741 1.390 . S
C739 H743 0.950 . S
H740 C736 0.950 . S
C741 C739 1.390 . S
C741 C742 1.387 . S
C741 H744 0.950 . S
C742 C741 1.387 . S
C742 C745 1.387 . S
H743 C739 0.950 . S
H744 C741 0.950 . S
C745 C736 1.390 . S
C745 H738 0.950 . S
C745 C742 1.387 . S
C746 C747 1.387 . S
C746 H750 0.950 . S
C746 C755 1.390 . S
C747 C746 1.387 . S
C747 C749 1.387 . S
H748 C755 0.950 . S
C749 C747 1.387 . S
C749 C751 1.390 . S
C749 H753 0.950 . S
H750 C746 0.950 . S
C751 C749 1.390 . S
C751 C752 1.387 . S
C751 H754 0.950 . S
C752 C751 1.387 . S
C752 C755 1.387 . S
H753 C749 0.950 . S
H754 C751 0.950 . S
C755 C746 1.390 . S
C755 H748 0.950 . S
C755 C752 1.387 . S
C756 C757 1.387 . S
C756 H760 0.950 . S
C756 C765 1.390 1_554 S
C757 C756 1.387 . S
C757 C759 1.387 . S
H758 C765 0.950 . S
C759 C757 1.387 . S
C759 C761 1.390 1_554 S
C759 H763 0.950 . S
H760 C756 0.950 . S
C761 C759 1.390 1_556 S
C761 C762 1.387 . S
C761 H764 0.950 . S
C762 C761 1.387 . S
C762 C765 1.387 . S
H763 C759 0.950 . S
H764 C761 0.950 . S
C765 C756 1.390 1_556 S
C765 H758 0.950 . S
C765 C762 1.387 . S
C766 C767 1.387 . S
C766 H770 0.950 . S
C766 C775 1.390 . S
C767 C766 1.387 . S
C767 C769 1.387 . S
H768 C775 0.950 . S
C769 C767 1.387 . S
C769 C771 1.390 . S
C769 H773 0.950 . S
H770 C766 0.950 . S
C771 C769 1.390 . S
C771 C772 1.387 . S
C771 H774 0.950 . S
C772 C771 1.387 . S
C772 C775 1.387 . S
H773 C769 0.950 . S
H774 C771 0.950 . S
C775 C766 1.390 . S
C775 H768 0.950 . S
C775 C772 1.387 . S
C776 C777 1.387 . S
C776 H780 0.950 . S
C776 C785 1.390 . S
C777 C776 1.387 . S
C777 C779 1.387 . S
H778 C785 0.950 . S
C779 C777 1.387 . S
C779 C781 1.390 . S
C779 H783 0.950 . S
H780 C776 0.950 . S
C781 C779 1.390 . S
C781 C782 1.387 . S
C781 H784 0.950 . S
C782 C781 1.387 . S
C782 C785 1.387 . S
H783 C779 0.950 . S
H784 C781 0.950 . S
C785 C776 1.390 . S
C785 H778 0.950 . S
C785 C782 1.387 . S
C786 C787 1.387 . S
C786 H790 0.950 . S
C786 C795 1.390 . S
C787 C786 1.387 . S
C787 C789 1.387 . S
H788 C795 0.950 . S
C789 C787 1.387 . S
C789 C791 1.390 . S
C789 H793 0.950 . S
H790 C786 0.950 . S
C791 C789 1.390 . S
C791 C792 1.387 . S
C791 H794 0.950 . S
C792 C791 1.387 . S
C792 C795 1.387 . S
H793 C789 0.950 . S
H794 C791 0.950 . S
C795 C786 1.390 . S
C795 H788 0.950 . S
C795 C792 1.387 . S
C796 C797 1.387 . S
C796 H800 0.950 . S
C796 C805 1.390 1_554 S
C797 C796 1.387 . S
C797 C799 1.387 . S
H798 C805 0.950 . S
C799 C797 1.387 . S
C799 C801 1.390 1_554 S
C799 H803 0.950 . S
H800 C796 0.950 . S
C801 C799 1.390 1_556 S
C801 C802 1.387 . S
C801 H804 0.950 . S
C802 C801 1.387 . S
C802 C805 1.387 . S
H803 C799 0.950 . S
H804 C801 0.950 . S
C805 C796 1.390 1_556 S
C805 H798 0.950 . S
C805 C802 1.387 . S
C806 C807 1.387 . S
C806 H810 0.950 . S
C806 C815 1.390 . S
C807 C806 1.387 . S
C807 C809 1.387 . S
H808 C815 0.950 . S
C809 C807 1.387 . S
C809 C811 1.390 . S
C809 H813 0.950 . S
H810 C806 0.950 . S
C811 C809 1.390 . S
C811 C812 1.387 . S
C811 H814 0.950 . S
C812 C811 1.387 . S
C812 C815 1.387 . S
H813 C809 0.950 . S
H814 C811 0.950 . S
C815 C806 1.390 . S
C815 H808 0.950 . S
C815 C812 1.387 . S
C816 C817 1.387 . S
C816 H820 0.950 . S
C816 C825 1.390 . S
C817 C816 1.387 . S
C817 C819 1.387 . S
H818 C825 0.950 . S
C819 C817 1.387 . S
C819 C821 1.390 . S
C819 H823 0.950 . S
H820 C816 0.950 . S
C821 C819 1.390 . S
C821 C822 1.387 . S
C821 H824 0.950 . S
C822 C821 1.387 . S
C822 C825 1.387 . S
H823 C819 0.950 . S
H824 C821 0.950 . S
C825 C816 1.390 . S
C825 H818 0.950 . S
C825 C822 1.387 . S
C826 C827 1.387 . S
C826 H830 0.950 . S
C826 C835 1.390 . S
C827 C826 1.387 . S
C827 C829 1.387 . S
H828 C835 0.950 . S
C829 C827 1.387 . S
C829 C831 1.390 . S
C829 H833 0.950 . S
H830 C826 0.950 . S
C831 C829 1.390 . S
C831 C832 1.387 . S
C831 H834 0.950 . S
C832 C831 1.387 . S
C832 C835 1.387 . S
H833 C829 0.950 . S
H834 C831 0.950 . S
C835 C826 1.390 . S
C835 H828 0.950 . S
C835 C832 1.387 . S
C836 C837 1.387 . S
C836 H840 0.950 . S
C836 C845 1.390 . S
C837 C836 1.387 . S
C837 C839 1.387 . S
H838 C845 0.950 . S
C839 C837 1.387 . S
C839 C841 1.390 . S
C839 H843 0.950 . S
H840 C836 0.950 . S
C841 C839 1.390 . S
C841 C842 1.387 . S
C841 H844 0.950 . S
C842 C841 1.387 . S
C842 C845 1.387 . S
H843 C839 0.950 . S
H844 C841 0.950 . S
C845 C836 1.390 . S
C845 H838 0.950 . S
C845 C842 1.387 . S
C846 C847 1.387 1_556 S
C846 H850 0.950 . S
C846 C855 1.390 1_455 S
C847 C846 1.387 1_554 S
C847 C849 1.387 . S
H848 C855 0.950 . S
C849 C847 1.387 . S
C849 C851 1.390 1_455 S
C849 H853 0.950 . S
H850 C846 0.950 . S
C851 C849 1.390 1_655 S
C851 C852 1.387 1_554 S
C851 H854 0.950 . S
C852 C851 1.387 1_556 S
C852 C855 1.387 . S
H853 C849 0.950 . S
H854 C851 0.950 . S
C855 C846 1.390 1_655 S
C855 H848 0.950 . S
C855 C852 1.387 . S
C856 C857 1.387 . S
C856 H860 0.950 . S
C856 C865 1.390 . S
C857 C856 1.387 . S
C857 C859 1.387 . S
H858 C865 0.950 . S
C859 C857 1.387 . S
C859 C861 1.390 . S
C859 H863 0.950 . S
H860 C856 0.950 . S
C861 C859 1.390 . S
C861 C862 1.387 . S
C861 H864 0.950 . S
C862 C861 1.387 . S
C862 C865 1.387 . S
H863 C859 0.950 . S
H864 C861 0.950 . S
C865 C856 1.390 . S
C865 H858 0.950 . S
C865 C862 1.387 . S
C866 C867 1.387 . S
C866 H870 0.950 . S
C866 C875 1.390 . S
C867 C866 1.387 . S
C867 C869 1.387 . S
H868 C875 0.950 . S
C869 C867 1.387 . S
C869 C871 1.390 . S
C869 H873 0.950 . S
H870 C866 0.950 . S
C871 C869 1.390 . S
C871 C872 1.387 . S
C871 H874 0.950 . S
C872 C871 1.387 . S
C872 C875 1.387 . S
H873 C869 0.950 . S
H874 C871 0.950 . S
C875 C866 1.390 . S
C875 H868 0.950 . S
C875 C872 1.387 . S
C876 C877 1.387 1_545 S
C876 H880 0.950 . S
C876 C885 1.390 1_455 S
C877 C876 1.387 1_565 S
C877 C879 1.387 1_556 S
H878 C885 0.950 . S
C879 C877 1.387 1_554 S
C879 C881 1.390 1_455 S
C879 H883 0.950 . S
H880 C876 0.950 . S
C881 C879 1.390 1_655 S
C881 C882 1.387 1_565 S
C881 H884 0.950 . S
C882 C881 1.387 1_545 S
C882 C885 1.387 1_554 S
H883 C879 0.950 . S
H884 C881 0.950 . S
C885 C876 1.390 1_655 S
C885 H878 0.950 . S
C885 C882 1.387 1_556 S
C886 C887 1.387 1_565 S
C886 H890 0.950 . S
C886 C895 1.390 . S
C887 C886 1.387 1_545 S
C887 C889 1.387 . S
H888 C895 0.950 . S
C889 C887 1.387 . S
C889 C891 1.390 . S
C889 H893 0.950 . S
H890 C886 0.950 . S
C891 C889 1.390 . S
C891 C892 1.387 1_545 S
C891 H894 0.950 . S
C892 C891 1.387 1_565 S
C892 C895 1.387 . S
H893 C889 0.950 . S
H894 C891 0.950 . S
C895 C886 1.390 . S
C895 H888 0.950 . S
C895 C892 1.387 . S
C896 C897 1.387 . S
C896 H900 0.950 . S
C896 C905 1.390 . S
C897 C896 1.387 . S
C897 C899 1.387 . S
H898 C905 0.950 . S
C899 C897 1.387 . S
C899 C901 1.390 . S
C899 H903 0.950 . S
H900 C896 0.950 . S
C901 C899 1.390 . S
C901 C902 1.387 . S
C901 H904 0.950 . S
C902 C901 1.387 . S
C902 C905 1.387 . S
H903 C899 0.950 . S
H904 C901 0.950 . S
C905 C896 1.390 . S
C905 H898 0.950 . S
C905 C902 1.387 . S
C906 C907 1.387 . S
C906 H910 0.950 . S
C906 C915 1.390 . S
C907 C906 1.387 . S
C907 C909 1.387 . S
H908 C915 0.950 . S
C909 C907 1.387 . S
C909 C911 1.390 . S
C909 H913 0.950 . S
H910 C906 0.950 . S
C911 C909 1.390 . S
C911 C912 1.387 . S
C911 H914 0.950 . S
C912 C911 1.387 . S
C912 C915 1.387 . S
H913 C909 0.950 . S
H914 C911 0.950 . S
C915 C906 1.390 . S
C915 H908 0.950 . S
C915 C912 1.387 . S
C916 C917 1.387 . S
C916 H920 0.950 . S
C916 C925 1.390 . S
C917 C916 1.387 . S
C917 C919 1.387 . S
H918 C925 0.950 . S
C919 C917 1.387 . S
C919 C921 1.390 . S
C919 H923 0.950 . S
H920 C916 0.950 . S
C921 C919 1.390 . S
C921 C922 1.387 . S
C921 H924 0.950 . S
C922 C921 1.387 . S
C922 C925 1.387 . S
H923 C919 0.950 . S
H924 C921 0.950 . S
C925 C916 1.390 . S
C925 H918 0.950 . S
C925 C922 1.387 . S
C926 C927 1.387 . S
C926 H930 0.950 . S
C926 C935 1.390 . S
C927 C926 1.387 . S
C927 C929 1.387 . S
H928 C935 0.950 . S
C929 C927 1.387 . S
C929 C931 1.390 . S
C929 H933 0.950 . S
H930 C926 0.950 . S
C931 C929 1.390 . S
C931 C932 1.387 . S
C931 H934 0.950 . S
C932 C931 1.387 . S
C932 C935 1.387 . S
H933 C929 0.950 . S
H934 C931 0.950 . S
C935 C926 1.390 . S
C935 H928 0.950 . S
C935 C932 1.387 . S
C936 C937 1.387 . S
C936 H940 0.950 . S
C936 C945 1.390 . S
C937 C936 1.387 . S
C937 C939 1.387 . S
H938 C945 0.950 . S
C939 C937 1.387 . S
C939 C941 1.390 . S
C939 H943 0.950 . S
H940 C936 0.950 . S
C941 C939 1.390 . S
C941 C942 1.387 . S
C941 H944 0.950 . S
C942 C941 1.387 . S
C942 C945 1.387 . S
H943 C939 0.950 . S
H944 C941 0.950 . S
C945 C936 1.390 . S
C945 H938 0.950 . S
C945 C942 1.387 . S
C946 C947 1.387 . S
C946 H950 0.950 . S
C946 C955 1.390 . S
C947 C946 1.387 . S
C947 C949 1.387 . S
H948 C955 0.950 . S
C949 C947 1.387 . S
C949 C951 1.390 . S
C949 H953 0.950 . S
H950 C946 0.950 . S
C951 C949 1.390 . S
C951 C952 1.387 . S
C951 H954 0.950 . S
C952 C951 1.387 . S
C952 C955 1.387 . S
H953 C949 0.950 . S
H954 C951 0.950 . S
C955 C946 1.390 . S
C955 H948 0.950 . S
C955 C952 1.387 . S
C956 C957 1.387 . S
C956 H960 0.950 . S
C956 C965 1.390 . S
C957 C956 1.387 . S
C957 C959 1.387 . S
H958 C965 0.950 . S
C959 C957 1.387 . S
C959 C961 1.390 . S
C959 H963 0.950 . S
H960 C956 0.950 . S
C961 C959 1.390 . S
C961 C962 1.387 . S
C961 H964 0.950 . S
C962 C961 1.387 . S
C962 C965 1.387 . S
H963 C959 0.950 . S
H964 C961 0.950 . S
C965 C956 1.390 . S
C965 H958 0.950 . S
C965 C962 1.387 . S
C966 C967 1.387 . S
C966 H970 0.951 . S
C966 C975 1.390 . S
C967 C966 1.387 . S
C967 C969 1.387 . S
H968 C975 0.950 . S
C969 C967 1.387 . S
C969 C971 1.390 . S
C969 H973 0.950 . S
H970 C966 0.951 . S
C971 C969 1.390 . S
C971 C972 1.387 . S
C971 H974 0.950 . S
C972 C971 1.387 . S
C972 C975 1.387 . S
H973 C969 0.950 . S
H974 C971 0.950 . S
C975 C966 1.390 . S
C975 H968 0.950 . S
C975 C972 1.387 . S
C976 C977 1.387 . S
C976 H980 0.950 . S
C976 C985 1.390 . S
C977 C976 1.387 . S
C977 C979 1.387 . S
H978 C985 0.950 . S
C979 C977 1.387 . S
C979 C981 1.390 . S
C979 H983 0.950 . S
H980 C976 0.950 . S
C981 C979 1.390 . S
C981 C982 1.387 . S
C981 H984 0.950 . S
C982 C981 1.387 . S
C982 C985 1.387 . S
H983 C979 0.950 . S
H984 C981 0.950 . S
C985 C976 1.390 . S
C985 H978 0.950 . S
C985 C982 1.387 . S
C986 C987 1.387 . S
C986 H990 0.950 . S
C986 C995 1.390 . S
C987 C986 1.387 . S
C987 C989 1.387 . S
H988 C995 0.950 . S
C989 C987 1.387 . S
C989 C991 1.390 . S
C989 H993 0.950 . S
H990 C986 0.950 . S
C991 C989 1.390 . S
C991 C992 1.387 . S
C991 H994 0.950 . S
C992 C991 1.387 . S
C992 C995 1.387 . S
H993 C989 0.950 . S
H994 C991 0.950 . S
C995 C986 1.390 . S
C995 H988 0.950 . S
C995 C992 1.387 . S
C996 C997 1.387 . S
C996 H1000 0.950 . S
C996 C1005 1.390 . S
C997 C996 1.387 . S
C997 C999 1.387 . S
H998 C1005 0.950 . S
C999 C997 1.387 . S
C999 C1001 1.390 . S
C999 H1003 0.950 . S
H1000 C996 0.950 . S
C1001 C999 1.390 . S
C1001 C1002 1.387 . S
C1001 H1004 0.950 . S
C1002 C1001 1.387 . S
C1002 C1005 1.387 . S
H1003 C999 0.950 . S
H1004 C1001 0.950 . S
C1005 C996 1.390 . S
C1005 H998 0.950 . S
C1005 C1002 1.387 . S
C1006 C1007 1.387 . S
C1006 H1010 0.950 . S
C1006 C1015 1.390 . S
C1007 C1006 1.387 . S
C1007 C1009 1.387 . S
H1008 C1015 0.950 . S
C1009 C1007 1.387 . S
C1009 C1011 1.390 . S
C1009 H1013 0.950 . S
H1010 C1006 0.950 . S
C1011 C1009 1.390 . S
C1011 C1012 1.387 . S
C1011 H1014 0.950 . S
C1012 C1011 1.387 . S
C1012 C1015 1.387 . S
H1013 C1009 0.950 . S
H1014 C1011 0.950 . S
C1015 C1006 1.390 . S
C1015 H1008 0.950 . S
C1015 C1012 1.387 . S
C1016 C1017 1.387 . S
C1016 H1020 0.950 . S
C1016 C1025 1.390 . S
C1017 C1016 1.387 . S
C1017 C1019 1.387 . S
H1018 C1025 0.950 . S
C1019 C1017 1.387 . S
C1019 C1021 1.390 . S
C1019 H1023 0.950 . S
H1020 C1016 0.950 . S
C1021 C1019 1.390 . S
C1021 C1022 1.387 . S
C1021 H1024 0.950 . S
C1022 C1021 1.387 . S
C1022 C1025 1.387 . S
H1023 C1019 0.950 . S
H1024 C1021 0.950 . S
C1025 C1016 1.390 . S
C1025 H1018 0.950 . S
C1025 C1022 1.387 . S
C1026 C1027 1.387 . S
C1026 H1030 0.950 . S
C1026 C1035 1.390 . S
C1027 C1026 1.387 . S
C1027 C1029 1.387 . S
H1028 C1035 0.950 . S
C1029 C1027 1.387 . S
C1029 C1031 1.390 . S
C1029 H1033 0.950 . S
H1030 C1026 0.950 . S
C1031 C1029 1.390 . S
C1031 C1032 1.387 . S
C1031 H1034 0.950 . S
C1032 C1031 1.387 . S
C1032 C1035 1.387 . S
H1033 C1029 0.950 . S
H1034 C1031 0.950 . S
C1035 C1026 1.390 . S
C1035 H1028 0.950 . S
C1035 C1032 1.387 . S
C1036 C1037 1.387 . S
C1036 H1040 0.950 . S
C1036 C1045 1.390 . S
C1037 C1036 1.387 . S
C1037 C1039 1.387 . S
H1038 C1045 0.950 . S
C1039 C1037 1.387 . S
C1039 C1041 1.390 . S
C1039 H1043 0.950 . S
H1040 C1036 0.950 . S
C1041 C1039 1.390 . S
C1041 C1042 1.387 . S
C1041 H1044 0.950 . S
C1042 C1041 1.387 . S
C1042 C1045 1.387 . S
H1043 C1039 0.950 . S
H1044 C1041 0.950 . S
C1045 C1036 1.390 . S
C1045 H1038 0.950 . S
C1045 C1042 1.387 . S
C1046 C1047 1.387 . S
C1046 H1050 0.950 . S
C1046 C1055 1.390 . S
C1047 C1046 1.387 . S
C1047 C1049 1.387 . S
H1048 C1055 0.950 . S
C1049 C1047 1.387 . S
C1049 C1051 1.390 . S
C1049 H1053 0.950 . S
H1050 C1046 0.950 . S
C1051 C1049 1.390 . S
C1051 C1052 1.387 . S
C1051 H1054 0.950 . S
C1052 C1051 1.387 . S
C1052 C1055 1.387 . S
H1053 C1049 0.950 . S
H1054 C1051 0.950 . S
C1055 C1046 1.390 . S
C1055 H1048 0.950 . S
C1055 C1052 1.387 . S
C1056 C1057 1.387 . S
C1056 H1060 0.950 . S
C1056 C1065 1.390 . S
C1057 C1056 1.387 . S
C1057 C1059 1.387 . S
H1058 C1065 0.950 . S
C1059 C1057 1.387 . S
C1059 C1061 1.390 . S
C1059 H1063 0.950 . S
H1060 C1056 0.950 . S
C1061 C1059 1.390 . S
C1061 C1062 1.387 . S
C1061 H1064 0.950 . S
C1062 C1061 1.387 . S
C1062 C1065 1.387 . S
H1063 C1059 0.950 . S
H1064 C1061 0.950 . S
C1065 C1056 1.390 . S
C1065 H1058 0.950 . S
C1065 C1062 1.387 . S
C1066 C1067 1.387 . S
C1066 H1070 0.950 . S
C1066 C1075 1.390 1_556 S
C1067 C1066 1.387 . S
C1067 C1069 1.387 1_556 S
H1068 C1075 0.950 . S
C1069 C1067 1.387 1_554 S
C1069 C1071 1.390 . S
C1069 H1073 0.950 . S
H1070 C1066 0.950 . S
C1071 C1069 1.390 . S
C1071 C1072 1.387 . S
C1071 H1074 0.950 . S
C1072 C1071 1.387 . S
C1072 C1075 1.387 . S
H1073 C1069 0.950 . S
H1074 C1071 0.950 . S
C1075 C1066 1.390 1_554 S
C1075 H1068 0.950 . S
C1075 C1072 1.387 . S
C1076 C1077 1.387 . S
C1076 H1080 0.950 . S
C1076 C1085 1.390 . S
C1077 C1076 1.387 . S
C1077 C1079 1.387 . S
H1078 C1085 0.950 . S
C1079 C1077 1.387 . S
C1079 C1081 1.390 . S
C1079 H1083 0.950 . S
H1080 C1076 0.950 . S
C1081 C1079 1.390 . S
C1081 C1082 1.387 . S
C1081 H1084 0.950 . S
C1082 C1081 1.387 . S
C1082 C1085 1.387 . S
H1083 C1079 0.950 . S
H1084 C1081 0.950 . S
C1085 C1076 1.390 . S
C1085 H1078 0.950 . S
C1085 C1082 1.387 . S
C1086 C1087 1.387 . S
C1086 H1090 0.950 . S
C1086 C1095 1.390 . S
C1087 C1086 1.387 . S
C1087 C1089 1.387 1_655 S
H1088 C1095 0.950 . S
C1089 C1087 1.387 1_455 S
C1089 C1091 1.390 . S
C1089 H1093 0.950 . S
H1090 C1086 0.950 . S
C1091 C1089 1.390 . S
C1091 C1092 1.387 . S
C1091 H1094 0.950 . S
C1092 C1091 1.387 . S
C1092 C1095 1.387 1_455 S
H1093 C1089 0.950 . S
H1094 C1091 0.950 . S
C1095 C1086 1.390 . S
C1095 H1088 0.950 . S
C1095 C1092 1.387 1_655 S
C1096 C1097 1.387 . S
C1096 H1100 0.950 . S
C1096 C1105 1.390 . S
C1097 C1096 1.387 . S
C1097 C1099 1.387 . S
H1098 C1105 0.950 . S
C1099 C1097 1.387 . S
C1099 C1101 1.390 . S
C1099 H1103 0.950 . S
H1100 C1096 0.950 . S
C1101 C1099 1.390 . S
C1101 C1102 1.387 . S
C1101 H1104 0.950 . S
C1102 C1101 1.387 . S
C1102 C1105 1.387 . S
H1103 C1099 0.950 . S
H1104 C1101 0.950 . S
C1105 C1096 1.390 . S
C1105 H1098 0.950 . S
C1105 C1102 1.387 . S
C1106 C1107 1.387 . S
C1106 H1110 0.950 . S
C1106 C1115 1.390 . S
C1107 C1106 1.387 . S
C1107 C1109 1.387 . S
H1108 C1115 0.950 . S
C1109 C1107 1.387 . S
C1109 C1111 1.390 . S
C1109 H1113 0.950 . S
H1110 C1106 0.950 . S
C1111 C1109 1.390 . S
C1111 C1112 1.387 . S
C1111 H1114 0.950 . S
C1112 C1111 1.387 . S
C1112 C1115 1.387 . S
H1113 C1109 0.950 . S
H1114 C1111 0.950 . S
C1115 C1106 1.390 . S
C1115 H1108 0.950 . S
C1115 C1112 1.387 . S
C1116 C1117 1.387 . S
C1116 H1120 0.950 . S
C1116 C1125 1.390 1_565 S
C1117 C1116 1.387 . S
C1117 C1119 1.387 1_455 S
H1118 C1125 0.950 . S
C1119 C1117 1.387 1_655 S
C1119 C1121 1.390 1_565 S
C1119 H1123 0.950 . S
H1120 C1116 0.950 . S
C1121 C1119 1.390 1_545 S
C1121 C1122 1.387 . S
C1121 H1124 0.950 . S
C1122 C1121 1.387 . S
C1122 C1125 1.387 1_655 S
H1123 C1119 0.950 . S
H1124 C1121 0.950 . S
C1125 C1116 1.390 1_545 S
C1125 H1118 0.950 . S
C1125 C1122 1.387 1_455 S
C1126 C1127 1.387 . S
C1126 H1130 0.950 . S
C1126 C1135 1.390 1_565 S
C1127 C1126 1.387 . S
C1127 C1129 1.387 1_554 S
H1128 C1135 0.950 . S
C1129 C1127 1.387 1_556 S
C1129 C1131 1.390 1_565 S
C1129 H1133 0.950 . S
H1130 C1126 0.950 . S
C1131 C1129 1.390 1_545 S
C1131 C1132 1.387 . S
C1131 H1134 0.950 . S
C1132 C1131 1.387 . S
C1132 C1135 1.387 1_556 S
H1133 C1129 0.950 . S
H1134 C1131 0.950 . S
C1135 C1126 1.390 1_545 S
C1135 H1128 0.950 . S
C1135 C1132 1.387 1_554 S
C497 C2 2.063 . S
C502 C403 1.935 . S
C507 C33 2.061 . S
C512 C186 1.935 . S
C517 C465 1.935 . S
C522 C64 2.061 . S
C527 C124 1.935 . S
C532 C95 2.061 1_655 S
C537 C134 2.063 . S
C542 C303 1.935 . S
C547 C165 2.061 . S
C552 C86 1.935 . S
C557 C196 2.063 1_556 S
C562 C365 1.935 . S
C567 C227 2.061 1_455 S
C572 C24 1.935 . S
C577 C155 1.935 . S
C582 C250 2.061 . S
C587 C281 2.063 1_455 S
C592 C434 1.935 . S
C597 C312 2.061 . S
C602 C217 1.935 . S
C607 C343 2.063 . S
C612 C372 1.935 . S
C617 C55 1.935 . S
C622 C382 2.063 1_556 S
C627 C334 1.935 . S
C632 C413 2.061 1_655 S
C637 C117 1.935 . S
C642 C444 2.061 . S
C647 C272 1.935 . S
C652 C475 2.063 . S
C657 C18 1.714 . S
C662 C11 1.714 . S
C667 C49 1.713 . S
C672 C42 1.713 . S
C677 C73 1.714 . S
C682 C80 1.714 . S
C687 C104 1.713 . S
C692 C111 1.713 1_556 S
C697 C142 1.714 . S
C702 C135 1.714 . S
C707 C166 1.715 . S
C712 C173 1.715 1_556 S
C717 C204 1.714 . S
C722 C197 1.714 . S
C727 C235 1.713 . S
C732 C228 1.713 1_554 S
C737 C266 1.714 . S
C742 C259 1.714 . S
C747 C297 1.714 1_556 S
C752 C290 1.714 . S
C757 C328 1.714 . S
C762 C321 1.714 . S
C767 C359 1.714 . S
C772 C352 1.714 . S
C777 C390 1.715 . S
C782 C383 1.715 . S
C787 C414 1.713 1_554 S
C792 C421 1.713 . S
C797 C452 1.715 . S
C802 C445 1.715 . S
C807 C476 1.715 . S
C812 C483 1.715 1_556 S
C817 C0 0.882 . S
C822 C396 0.882 . S
C827 C179 0.887 . S
C832 C31 0.887 . S
C837 C62 0.883 . S
C842 C458 0.883 . S
C847 C93 0.886 . S
C852 C241 0.886 . S
C857 C148 0.884 . S
C862 C248 0.884 . S
C867 C210 0.891 . S
C872 C310 0.891 . S
C877 C427 0.888 . S
C882 C279 0.888 . S
C887 C489 0.887 . S
C892 C341 0.887 . S
C897 C103 1.641 . S
C902 C27 1.945 . S
C907 C58 1.948 . S
C912 C10 1.638 . S
C917 C89 1.948 . S
C922 C41 1.638 . S
C927 C120 1.948 . S
C932 C72 1.638 . S
C937 C219 1.637 . S
C942 C125 1.948 . S
C947 C156 1.945 . S
C952 C126 1.641 . S
C957 C157 1.638 . S
C962 C187 1.947 . S
C967 C188 1.640 . S
C972 C218 1.946 . S
C977 C275 1.945 . S
C982 C351 1.641 1_565 S
C987 C306 1.948 . S
C992 C258 1.638 . S
C997 C289 1.638 1_545 S
C1002 C337 1.948 . S
C1007 C320 1.641 . S
C1012 C368 1.945 . S
C1017 C373 1.948 . S
C1022 C467 1.638 1_545 S
C1027 C404 1.945 . S
C1032 C374 1.640 . S
C1037 C435 1.948 . S
C1042 C405 1.639 1_565 S
C1047 C436 1.641 . S
C1052 C466 1.945 . S
C1057 C1 0.867 . S
C1062 C399 0.867 . S
C1067 C32 0.868 . S
C1072 C182 0.868 . S
C1077 C461 0.872 . S
C1082 C63 0.872 . S
C1087 C94 0.868 1_655 S
C1092 C244 0.868 1_455 S
C1097 C249 0.873 . S
C1102 C151 0.873 . S
C1107 C311 0.872 . S
C1112 C213 0.873 . S
C1117 C280 0.873 1_455 S
C1122 C430 0.873 1_655 S
C1127 C492 0.864 . S
C1132 C342 0.864 . S
