# Generated by pormake.
# Topology uov, (4)-cn, num edge types: 1
# Building blocks:
#     Node 0, Type 0, BuildingBlock: GALJAG_clean_sbu_0, # of connection points: 4
#     Node 1, Type 0, BuildingBlock: GALJAG_clean_sbu_0, # of connection points: 4
#     Node 2, Type 0, BuildingBlock: GALJAG_clean_sbu_0, # of connection points: 4
#     Node 3, Type 0, BuildingBlock: GALJAG_clean_sbu_0, # of connection points: 4
#     Node 4, Type 0, BuildingBlock: GALJAG_clean_sbu_0, # of connection points: 4
#     Node 5, Type 0, BuildingBlock: GALJAG_clean_sbu_0, # of connection points: 4
#     Node 6, Type 0, BuildingBlock: GALJAG_clean_sbu_0, # of connection points: 4
#     Node 7, Type 0, BuildingBlock: GALJAG_clean_sbu_0, # of connection points: 4
#     Edge 8, Type (0, 0), BuildingBlock: FUNLAD_clean_linker_0, # of connection points: 2
#     Edge 9, Type (0, 0), BuildingBlock: FUNLAD_clean_linker_0, # of connection points: 2
#     Edge 10, Type (0, 0), BuildingBlock: FUNLAD_clean_linker_0, # of connection points: 2
#     Edge 11, Type (0, 0), BuildingBlock: FUNLAD_clean_linker_0, # of connection points: 2
#     Edge 12, Type (0, 0), BuildingBlock: FUNLAD_clean_linker_0, # of connection points: 2
#     Edge 13, Type (0, 0), BuildingBlock: FUNLAD_clean_linker_0, # of connection points: 2
#     Edge 14, Type (0, 0), BuildingBlock: FUNLAD_clean_linker_0, # of connection points: 2
#     Edge 15, Type (0, 0), BuildingBlock: FUNLAD_clean_linker_0, # of connection points: 2
#     Edge 16, Type (0, 0), BuildingBlock: FUNLAD_clean_linker_0, # of connection points: 2
#     Edge 17, Type (0, 0), BuildingBlock: FUNLAD_clean_linker_0, # of connection points: 2
#     Edge 18, Type (0, 0), BuildingBlock: FUNLAD_clean_linker_0, # of connection points: 2
#     Edge 19, Type (0, 0), BuildingBlock: FUNLAD_clean_linker_0, # of connection points: 2
#     Edge 20, Type (0, 0), BuildingBlock: FUNLAD_clean_linker_0, # of connection points: 2
#     Edge 21, Type (0, 0), BuildingBlock: FUNLAD_clean_linker_0, # of connection points: 2
#     Edge 22, Type (0, 0), BuildingBlock: FUNLAD_clean_linker_0, # of connection points: 2
#     Edge 23, Type (0, 0), BuildingBlock: FUNLAD_clean_linker_0, # of connection points: 2
# Relax obj value: 0.177
# Max RMSD: 0.147
# Mean RMSD: 0.147
data_MOF--net-uov--node1-GALJAG_clean_sbu_0--edge1-FUNLAD_clean_linker_0
_symmetry_space_group_name_H-M    P1
_symmetry_Int_Tables_number       1
_symmetry_cell_setting            triclinic
loop_
_symmetry_equiv_pos_as_xyz
'x, y, z'
_cell_length_a     33.615129
_cell_length_b     33.394279
_cell_length_c     54.166897
_cell_angle_alpha  89.914432
_cell_angle_beta   90.056493
_cell_angle_gamma 90.142676
loop_
_atom_site_label
_atom_site_type_symbol
_atom_site_fract_x
_atom_site_fract_y
_atom_site_fract_z
_atom_type_partial_charge
In0 In 0.01724 0.24028 0.60962 0.0
O1 O 0.03357 0.30637 0.61149 0.0
O2 O 0.97781 0.2883 0.62642 0.0
C3 C 0.07267 0.2144 0.57738 0.0
C4 C 0.04186 0.21161 0.65347 0.0
C5 C 0.95221 0.21827 0.58386 0.0
O6 O 0.06089 0.25023 0.57777 0.0
O7 O 0.05711 0.19204 0.59348 0.0
O8 O 0.9619 0.20112 0.60378 0.0
O9 O 0.97501 0.24633 0.57733 0.0
C10 C 0.00159 0.31665 0.62188 0.0
O11 O 0.01007 0.1998 0.64332 0.0
O12 O 0.0608 0.23799 0.64158 0.0
In13 In 0.2287 0.96017 0.3841 0.0
O14 O 0.29099 0.93461 0.38604 0.0
O15 O 0.28265 0.9877 0.36491 0.0
C16 C 0.20066 0.9089 0.4185 0.0
C17 C 0.19853 0.93728 0.34023 0.0
C18 C 0.2108 0.02936 0.40743 0.0
O19 O 0.23658 0.91968 0.4177 0.0
O20 O 0.17895 0.92367 0.40184 0.0
O21 O 0.1878 0.01364 0.39176 0.0
O22 O 0.24291 0.01081 0.41071 0.0
C23 C 0.30659 0.96164 0.37293 0.0
O24 O 0.19736 0.9732 0.34748 0.0
O25 O 0.21517 0.91333 0.35499 0.0
In26 In 0.95219 0.75859 0.61211 0.0
O27 O 0.92843 0.69459 0.61129 0.0
O28 O 0.97992 0.70686 0.63297 0.0
C29 C 0.90941 0.79302 0.57573 0.0
C30 C 0.92451 0.79073 0.65422 0.0
C31 C 0.02313 0.76983 0.59013 0.0
O32 O 0.90985 0.75554 0.57893 0.0
O33 O 0.92916 0.81272 0.59136 0.0
O34 O 0.01156 0.79161 0.60776 0.0
O35 O -0.00052 0.74209 0.58427 0.0
C36 C 0.95528 0.68111 0.62537 0.0
O37 O 0.96055 0.79354 0.64786 0.0
O38 O 0.90257 0.7718 0.63932 0.0
In39 In 0.7424 0.03652 0.37812 0.0
O40 O 0.67706 0.04985 0.38469 0.0
O41 O 0.69143 0.01167 0.35469 0.0
C42 C 0.75561 0.08716 0.4161 0.0
C43 C 0.77513 0.06416 0.33603 0.0
C44 C 0.77544 0.96925 0.39664 0.0
O45 O 0.73603 0.05516 0.41842 0.0
O46 O 0.76793 0.09405 0.39453 0.0
O47 O 0.79538 0.00034 0.39185 0.0
O48 O 0.73915 0.97137 0.39088 0.0
C49 C 0.66461 0.02884 0.36698 0.0
O50 O 0.78271 0.02967 0.34439 0.0
O51 O 0.75108 0.08428 0.34882 0.0
In52 In 0.96867 0.23704 0.10971 0.0
O53 O 0.97655 0.19485 0.14268 0.0
O54 O 0.919 0.21866 0.13558 0.0
C55 C 0.03917 0.23519 0.08649 0.0
C56 C 0.97347 0.3122 0.127 0.0
C57 C 0.92608 0.20607 0.07216 0.0
O58 O 0.03037 0.21022 0.10324 0.0
O59 O 0.0127 0.26086 0.08193 0.0
O60 O 0.91916 0.24064 0.08061 0.0
O61 O 0.95359 0.18735 0.08298 0.0
C62 C 0.94041 0.19657 0.14899 0.0
O63 O 0.94776 0.30187 0.11116 0.0
O64 O -0.00442 0.2843 0.13461 0.0
In65 In 0.2422 0.06109 0.88476 0.0
O66 O 0.30819 0.07482 0.88617 0.0
O67 O 0.289 0.03085 0.86049 0.0
C68 C 0.23813 0.10741 0.92547 0.0
C69 C 0.20504 0.09207 0.84496 0.0
C70 C 0.20616 0.99532 0.90319 0.0
O71 O 0.25442 0.0735 0.92537 0.0
O72 O 0.22424 0.11836 0.9049 0.0
O73 O 0.18768 0.02734 0.89861 0.0
O74 O 0.24257 0.99595 0.89753 0.0
C75 C 0.31774 0.05001 0.86974 0.0
O76 O 0.198 0.05718 0.85282 0.0
O77 O 0.23094 0.11112 0.85707 0.0
In78 In 0.04221 0.7485 0.10698 0.0
O79 O 0.06094 0.68294 0.10842 0.0
O80 O 0.01211 0.70167 0.13066 0.0
C81 C 0.08532 0.78129 0.07029 0.0
C82 C 0.07284 0.78422 0.14721 0.0
C83 C 0.97196 0.75394 0.08363 0.0
O84 O 0.08893 0.7448 0.07619 0.0
O85 O 0.06107 0.8008 0.0833 0.0
O86 O 0.98078 0.7767 0.10151 0.0
O87 O -0.00172 0.72871 0.07803 0.0
C88 C 0.0339 0.67322 0.12355 0.0
O89 O 0.03741 0.79018 0.14026 0.0
O90 O 0.09242 0.76042 0.13386 0.0
In91 In 0.74265 0.93652 0.89183 0.0
O92 O 0.77935 0.94244 0.85663 0.0
O93 O 0.74957 0.88722 0.86315 0.0
C94 C 0.78276 0.00103 0.90861 0.0
C95 C 0.66502 0.94867 0.882 0.0
C96 C 0.7535 0.88847 0.93132 0.0
O97 O 0.79974 0.96876 0.90278 0.0
O98 O 0.74565 0.00129 0.9051 0.0
O99 O 0.73674 0.92209 0.93271 0.0
O100 O 0.76429 0.87863 0.90986 0.0
C101 C 0.7718 0.90749 0.84912 0.0
O102 O 0.67697 0.92372 0.89779 0.0
O103 O 0.69227 0.96736 0.87088 0.0
C104 C 0.93365 0.60985 0.62055 0.0
C105 C 0.9596 0.63813 0.63101 0.0
C106 C 0.94038 0.56891 0.62383 0.0
C107 C 0.97315 0.55552 0.63779 0.0
C108 C -0.00168 0.58392 0.64881 0.0
C109 C 0.99155 0.6248 0.64555 0.0
C110 C 0.98425 0.5126 0.63928 0.0
C111 C 0.95854 0.48232 0.63537 0.0
C112 C 0.97128 0.43991 0.63375 0.0
C113 C 0.94361 0.40949 0.63884 0.0
C114 C 0.95382 0.36929 0.6357 0.0
C115 C 0.99179 0.35882 0.62707 0.0
H116 H 0.03129 0.45188 0.62056 0.0
C117 C 0.01964 0.38917 0.6222 0.0
C118 C 0.00952 0.42932 0.62545 0.0
H119 H 0.04903 0.38198 0.61535 0.0
H120 H 0.90891 0.6193 0.60913 0.0
H121 H 0.92085 0.54809 0.61448 0.0
H122 H 0.02389 0.57446 0.65952 0.0
H123 H 0.01209 0.64592 0.65384 0.0
H124 H 0.01505 0.50586 0.6437 0.0
H125 H 0.927 0.4885 0.63339 0.0
H126 H 0.91386 0.41685 0.64501 0.0
H127 H 0.93167 0.34648 0.63949 0.0
C128 C 0.59378 0.0348 0.37965 0.0
C129 C 0.6219 0.02336 0.3619 0.0
C130 C 0.55344 0.02743 0.37578 0.0
C131 C 0.54042 0.00882 0.35396 0.0
C132 C 0.56827 -0.00102 0.33571 0.0
C133 C 0.60885 0.00574 0.33977 0.0
C134 C 0.49788 -0.00079 0.35032 0.0
C135 C 0.476 0.98404 0.36888 0.0
C136 C 0.4329 0.97564 0.36704 0.0
C137 C 0.41652 0.94604 0.38237 0.0
C138 C 0.37548 0.94023 0.38333 0.0
C139 C 0.34994 0.96452 0.36932 0.0
H140 H 0.41915 0.02253 0.34055 0.0
C141 C 0.36628 0.99345 0.35342 0.0
C142 C 0.40749 -0.0011 0.3522 0.0
H143 H 0.34721 0.01264 0.34248 0.0
H144 H 0.60298 0.04867 0.39681 0.0
H145 H 0.53241 0.03623 0.3899 0.0
H146 H 0.55875 0.98497 0.31866 0.0
H147 H 0.62997 -0.00305 0.32571 0.0
H148 H 0.48507 0.00288 0.33203 0.0
H149 H 0.49051 0.97675 0.38627 0.0
H150 H 0.43551 0.92791 0.39405 0.0
H151 H 0.36371 0.91776 0.3958 0.0
C152 C 0.95579 0.38476 0.12473 0.0
C153 C 0.98049 0.35434 0.13388 0.0
C154 C 0.96567 0.42496 0.12845 0.0
C155 C 0.00052 0.43543 0.1414 0.0
C156 C 0.02443 0.40496 0.15121 0.0
C157 C 0.01437 0.36479 0.14768 0.0
C158 C 0.01476 0.47742 0.14273 0.0
C159 C 0.99018 0.50906 0.14183 0.0
C160 C 0.00458 0.55088 0.13955 0.0
C161 C 0.98029 0.58203 0.14799 0.0
C162 C 0.99086 0.62189 0.14377 0.0
C163 C 0.02565 0.63136 0.13062 0.0
H164 H 0.05912 0.53713 0.11975 0.0
C165 C 0.05055 0.60028 0.12267 0.0
C166 C 0.04016 0.56037 0.1271 0.0
H167 H 0.07742 0.60673 0.11236 0.0
H168 H 0.92963 0.37754 0.1139 0.0
H169 H 0.94701 0.44758 0.12006 0.0
H170 H 0.05152 0.41223 0.16111 0.0
H171 H 0.03408 0.34197 0.15489 0.0
H172 H 0.04664 0.48226 0.14434 0.0
H173 H 0.95822 0.50436 0.14272 0.0
H174 H 0.95262 0.5755 0.15745 0.0
H175 H 0.97098 0.64523 0.15005 0.0
C176 C 0.38996 0.05845 0.8781 0.0
C177 C 0.35957 0.04179 0.86356 0.0
C178 C 0.42937 0.04728 0.87442 0.0
C179 C 0.43919 0.01946 0.85601 0.0
C180 C 0.40926 0.00472 0.8404 0.0
C181 C 0.36956 0.01549 0.84431 0.0
C182 C 0.48028 0.00431 0.8539 0.0
C183 C 0.50059 0.99368 0.87426 0.0
C184 C 0.54204 0.97913 0.874 0.0
C185 C 0.55454 0.95364 0.89306 0.0
C186 C 0.59432 0.94244 0.89502 0.0
C187 C 0.62252 0.95725 0.87822 0.0
H188 H 0.56134 0.01321 0.84199 0.0
C189 C 0.60997 0.98211 0.85878 0.0
C190 C 0.56996 0.99285 0.85661 0.0
H191 H 0.63119 0.99396 0.84561 0.0
H192 H 0.38319 0.07906 0.89293 0.0
H193 H 0.45214 0.0598 0.88632 0.0
H194 H 0.41636 0.98352 0.82595 0.0
H195 H 0.34667 0.00248 0.83272 0.0
H196 H 0.49281 -0.00037 0.83566 0.0
H197 H 0.48574 0.99471 0.89209 0.0
H198 H 0.53356 0.94289 0.90674 0.0
H199 H 0.60318 0.92331 0.91022 0.0
C200 C 0.22512 0.07739 0.44154 0.0
C201 C 0.19954 0.06409 0.42271 0.0
C202 C 0.21253 0.1063 0.45838 0.0
C203 C 0.17402 0.12242 0.45673 0.0
C204 C 0.14951 0.11119 0.43689 0.0
C205 C 0.16204 0.08206 0.4201 0.0
C206 C 0.15777 0.14901 0.47617 0.0
C207 C 0.16746 0.14444 0.50016 0.0
C208 C 0.14594 0.16489 0.52038 0.0
C209 C 0.14074 0.1445 0.54282 0.0
C210 C 0.11772 0.1611 0.5616 0.0
C211 C 0.10016 0.19887 0.5585 0.0
H212 H 0.134 0.22031 0.50074 0.0
C213 C 0.10709 0.22032 0.53659 0.0
C214 C 0.12964 0.20339 0.51759 0.0
H215 H 0.09401 0.24959 0.53378 0.0
H216 H 0.25442 0.06445 0.44384 0.0
H217 H 0.23269 0.11532 0.47295 0.0
H218 H 0.11987 0.12352 0.43507 0.0
H219 H 0.14182 0.07258 0.40565 0.0
H220 H 0.13375 0.1691 0.47106 0.0
H221 H 0.18848 0.12129 0.50545 0.0
H222 H 0.1533 0.11495 0.54549 0.0
H223 H 0.11309 0.14404 0.57839 0.0
C224 C 0.20795 0.87313 0.45884 0.0
C225 C 0.18488 0.88238 0.43796 0.0
C226 C 0.19192 0.8502 0.47803 0.0
C227 C 0.15259 0.83596 0.47655 0.0
C228 C 0.13022 0.84386 0.45521 0.0
C229 C 0.14604 0.86715 0.43619 0.0
C230 C 0.13345 0.81353 0.49696 0.0
C231 C 0.14209 0.8198 0.52094 0.0
C232 C 0.11682 0.8031 0.54089 0.0
C233 C 0.10927 0.82637 0.56192 0.0
C234 C 0.0803 0.81446 0.57895 0.0
C235 C 0.05877 0.77888 0.57526 0.0
H236 H 0.10391 0.74652 0.52283 0.0
C237 C 0.06882 0.75395 0.55536 0.0
C238 C 0.09766 0.76587 0.53837 0.0
H239 H 0.05317 0.726 0.55227 0.0
H240 H 0.23811 0.88428 0.46058 0.0
H241 H 0.21033 0.84373 0.49395 0.0
H242 H 0.09994 0.83296 0.45354 0.0
H243 H 0.1277 0.87356 0.42021 0.0
H244 H 0.10816 0.79478 0.49212 0.0
H245 H 0.16455 0.84175 0.526 0.0
H246 H 0.12407 0.85495 0.56442 0.0
H247 H 0.07335 0.8341 0.59424 0.0
C248 C 0.83116 0.93778 0.42003 0.0
C249 C 0.79177 0.93597 0.41147 0.0
C250 C 0.8445 0.91088 0.43794 0.0
C251 C 0.81861 0.88175 0.44773 0.0
C252 C 0.78033 0.8778 0.43767 0.0
C253 C 0.76689 0.90485 0.41977 0.0
C254 C 0.83012 0.8569 0.46933 0.0
C255 C 0.85265 0.87208 0.48767 0.0
C256 C 0.86358 0.85042 0.51067 0.0
C257 C 0.87824 0.87302 0.53054 0.0
C258 C 0.89158 0.85433 0.55202 0.0
C259 C 0.89074 0.81245 0.55414 0.0
H260 H 0.85126 0.78981 0.49801 0.0
C261 C 0.87508 0.78966 0.53461 0.0
C262 C 0.86169 0.80843 0.51301 0.0
H263 H 0.87439 0.75727 0.53568 0.0
H264 H 0.85118 0.96113 0.41376 0.0
H265 H 0.87475 0.91371 0.44463 0.0
H266 H 0.76004 0.85521 0.44464 0.0
H267 H 0.73643 0.90258 0.41338 0.0
H268 H 0.81684 0.8274 0.4711 0.0
H269 H 0.86235 0.9031 0.48636 0.0
H270 H 0.88005 0.90537 0.52931 0.0
H271 H 0.90351 0.87274 0.56673 0.0
C272 C 0.75866 0.09962 0.46154 0.0
C273 C 0.76622 0.11267 0.43732 0.0
C274 C 0.77311 0.12134 0.48168 0.0
C275 C 0.7953 0.15658 0.47791 0.0
C276 C 0.80056 0.1709 0.45376 0.0
C277 C 0.78646 0.149 0.43362 0.0
C278 C 0.8154 0.17797 0.49841 0.0
C279 C 0.83038 0.15877 0.51826 0.0
C280 C 0.85838 0.17744 0.53618 0.0
C281 C 0.866 0.15769 0.55862 0.0
C282 C 0.89559 0.17159 0.57466 0.0
C283 C 0.91832 0.20544 0.56844 0.0
H284 H 0.87677 0.22776 0.5131 0.0
C285 C 0.90998 0.22591 0.5464 0.0
C286 C 0.88052 0.21206 0.53039 0.0
H287 H 0.92711 0.25204 0.54106 0.0
H288 H 0.74276 0.0719 0.46493 0.0
H289 H 0.76736 0.11014 0.5001 0.0
H290 H 0.81723 0.19818 0.45038 0.0
H291 H 0.7924 0.15996 0.41515 0.0
H292 H 0.82133 0.20958 0.49566 0.0
H293 H 0.82424 0.12707 0.52073 0.0
H294 H 0.84968 0.13079 0.56349 0.0
H295 H 0.90143 0.1552 0.59155 0.0
C296 C 0.78276 0.06641 0.93113 0.0
C297 C 0.80389 0.03382 0.92139 0.0
C298 C 0.80178 0.09421 0.94645 0.0
C299 C 0.84236 0.08979 0.95235 0.0
C300 C 0.86386 0.05863 0.94124 0.0
C301 C 0.84485 0.03085 0.92601 0.0
C302 C 0.86314 0.115 0.97098 0.0
C303 C 0.84461 0.13747 0.98813 0.0
C304 C 0.86633 0.15567 0.00921 0.0
C305 C 0.85251 0.19144 0.01974 0.0
C306 C 0.87189 0.20817 0.0402 0.0
C307 C 0.90494 0.1889 0.05073 0.0
H308 H 0.9098 0.10795 0.01296 0.0
C309 C 0.91826 0.15279 0.04043 0.0
C310 C 0.89921 0.13634 0.01994 0.0
H311 H 0.94351 0.13709 0.04821 0.0
H312 H 0.75118 0.06965 0.92768 0.0
H313 H 0.78426 0.11844 0.95389 0.0
H314 H 0.89521 0.05466 0.9452 0.0
H315 H 0.86198 0.00619 0.91863 0.0
H316 H 0.89535 0.11246 0.97175 0.0
H317 H 0.81267 0.14174 0.98754 0.0
H318 H 0.82685 0.20655 0.01204 0.0
H319 H 0.8609 0.23598 0.04784 0.0
C320 C 0.21722 0.16964 0.94736 0.0
C321 C 0.23245 0.13061 0.94831 0.0
C322 C 0.20666 0.18949 0.96905 0.0
C323 C 0.21038 0.17022 0.99213 0.0
C324 C 0.22846 0.13239 0.99307 0.0
C325 C 0.23942 0.11276 0.97139 0.0
C326 C 0.19257 0.18638 0.01519 0.0
C327 C 0.16293 0.21344 0.01517 0.0
C328 C 0.13711 0.22176 0.03677 0.0
C329 C 0.1136 0.25638 0.03623 0.0
C330 C 0.08323 0.2618 0.05339 0.0
C331 C 0.07556 0.23253 0.07142 0.0
H332 H 0.14781 0.16602 0.05662 0.0
C333 C 0.10056 0.19904 0.07303 0.0
C334 C 0.13103 0.19356 0.0558 0.0
H335 H 0.09522 0.17598 0.08673 0.0
H336 H 0.21237 0.18442 0.9298 0.0
H337 H 0.19472 0.21938 0.96741 0.0
H338 H 0.23221 0.117 0.01054 0.0
H339 H 0.25152 0.08279 0.97268 0.0
H340 H 0.20119 0.17225 0.03244 0.0
H341 H 0.15442 0.22813 -0.00188 0.0
H342 H 0.11752 0.2785 0.02177 0.0
H343 H 0.06458 0.28809 0.05179 0.0
C344 C 0.09769 0.8398 0.04285 0.0
C345 C 0.10559 0.7997 0.0489 0.0
C346 C 0.11433 0.85714 0.02185 0.0
C347 C 0.13919 0.83473 0.00627 0.0
C348 C 0.14831 0.79505 0.01275 0.0
C349 C 0.13138 0.77751 0.03381 0.0
C350 C 0.15697 0.853 0.98381 0.0
C351 C 0.13753 0.8811 0.97059 0.0
C352 C 0.15516 0.90571 0.95041 0.0
C353 C 0.13116 0.93523 0.93946 0.0
C354 C 0.14729 0.96311 0.92305 0.0
C355 C 0.18785 0.96197 0.91707 0.0
H356 H 0.21517 0.88104 0.95102 0.0
C357 C 0.21149 0.93104 0.92672 0.0
C358 C 0.19541 0.90321 0.94329 0.0
H359 H 0.2429 0.92942 0.9224 0.0
H360 H 0.07826 0.85784 0.05424 0.0
H361 H 0.10795 0.8883 0.01804 0.0
H362 H 0.16793 0.77739 0.00126 0.0
H363 H 0.13811 0.74657 0.0381 0.0
H364 H 0.18636 0.84301 0.97847 0.0
H365 H 0.10699 0.88796 0.97561 0.0
H366 H 0.10005 0.93787 0.94441 0.0
H367 H 0.12828 0.98651 0.91581 0.0
C368 C 0.77969 0.82617 0.95097 0.0
C369 C 0.76319 0.8645 0.95338 0.0
C370 C 0.79394 0.8058 0.97169 0.0
C371 C 0.79267 0.82384 0.9952 0.0
C372 C 0.77346 0.86088 -0.00227 0.0
C373 C 0.75885 0.88104 0.97704 0.0
C374 C 0.81372 0.807 0.01703 0.0
C375 C 0.84467 0.78169 0.01502 0.0
C376 C 0.87227 0.77188 0.03554 0.0
C377 C 0.89669 0.73815 0.033 0.0
C378 C 0.92782 0.73132 0.04947 0.0
C379 C 0.93541 0.75826 0.0688 0.0
H380 H 0.86106 0.82467 0.05804 0.0
C381 C 0.90982 0.79092 0.07223 0.0
C382 C 0.87855 0.79781 0.0557 0.0
H383 H 0.9151 0.81222 0.08694 0.0
H384 H 0.78263 0.81238 0.93297 0.0
H385 H 0.80669 0.77646 0.96896 0.0
H386 H 0.77152 0.87526 0.01561 0.0
H387 H 0.74588 0.91043 0.97948 0.0
H388 H 0.80601 0.819 0.035 0.0
H389 H 0.85244 0.7694 -0.00285 0.0
H390 H 0.89265 0.7178 0.01763 0.0
H391 H 0.94692 0.70572 0.04643 0.0
C392 C 0.09198 0.2099 0.68745 0.0
C393 C 0.05664 0.19509 0.67703 0.0
C394 C 0.10703 0.19347 0.70923 0.0
C395 C 0.08685 0.16196 0.72119 0.0
C396 C 0.05157 0.14711 0.7107 0.0
C397 C 0.03645 0.16365 0.6889 0.0
C398 C 0.10291 0.14257 0.74379 0.0
C399 C 0.12675 0.16178 0.75996 0.0
C400 C 0.14554 0.14283 0.78196 0.0
C401 C 0.17543 0.16426 0.79442 0.0
C402 C 0.19471 0.1478 0.81487 0.0
C403 C 0.18447 0.10944 0.82339 0.0
H404 H 0.11157 0.08705 0.78228 0.0
C405 C 0.15431 0.08802 0.81123 0.0
C406 C 0.13491 0.10452 0.79078 0.0
H407 H 0.14557 0.0585 0.81756 0.0
H408 H 0.10841 0.23387 0.67858 0.0
H409 H 0.13504 0.20486 0.71616 0.0
H410 H 0.03567 0.12259 0.71938 0.0
H411 H 0.00924 0.15148 0.6812 0.0
H412 H 0.09449 0.11164 0.74687 0.0
H413 H 0.13366 0.19316 0.7568 0.0
H414 H 0.18422 0.19384 0.78819 0.0
H415 H 0.21777 0.1651 0.82393 0.0
C416 C 0.06759 0.82866 0.18432 0.0
C417 C 0.0902 0.80294 0.16943 0.0
C418 C 0.08403 0.84529 0.20573 0.0
C419 C 0.12354 0.83659 0.21255 0.0
C420 C 0.14601 0.81098 0.19754 0.0
C421 C 0.12962 0.79446 0.17619 0.0
C422 C 0.14183 0.85157 0.23575 0.0
C423 C 0.12898 0.88393 0.24822 0.0
C424 C 0.14745 0.89723 0.27177 0.0
C425 C 0.14518 0.93772 0.27857 0.0
C426 C 0.16205 0.95099 0.30073 0.0
C427 C 0.18117 0.92385 0.3166 0.0
H428 H 0.16725 0.83836 0.28381 0.0
C429 C 0.18296 0.88327 0.30998 0.0
C430 C 0.16615 0.87004 0.28789 0.0
H431 H 0.19707 0.86155 0.32198 0.0
H432 H 0.03702 0.83551 0.17962 0.0
H433 H 0.06532 0.86398 0.21712 0.0
H434 H 0.17638 0.80352 0.20242 0.0
H435 H 0.1478 0.77469 0.16511 0.0
H436 H 0.16797 0.83576 0.24234 0.0
H437 H 0.10537 0.9023 0.24059 0.0
H438 H 0.13055 0.9592 0.26663 0.0
H439 H 0.16 0.98242 0.30546 0.0
C440 C 0.86863 0.80433 0.68335 0.0
C441 C 0.90911 0.808 0.67737 0.0
C442 C 0.85395 0.82028 0.70533 0.0
C443 C 0.8796 0.83999 0.72193 0.0
C444 C 0.91993 0.84423 0.7157 0.0
C445 C 0.93462 0.82826 0.69369 0.0
C446 C 0.86516 0.85741 0.74549 0.0
C447 C 0.83252 0.84396 0.75735 0.0
C448 C 0.81795 0.86101 0.78098 0.0
C449 C 0.7933 0.83738 0.79604 0.0
C450 C 0.77843 0.8524 0.81823 0.0
C451 C 0.78767 0.89156 0.82573 0.0
H452 H 0.84463 0.92013 0.77697 0.0
C453 C 0.81196 0.91545 0.81059 0.0
C454 C 0.82685 0.90044 0.78839 0.0
H455 H 0.81927 0.9459 0.81581 0.0
H456 H 0.84818 0.78924 0.67098 0.0
H457 H 0.82242 0.81761 0.70896 0.0
H458 H 0.94025 0.85963 0.72801 0.0
H459 H 0.96594 0.83171 0.68951 0.0
H460 H 0.88329 0.88069 0.75382 0.0
H461 H 0.81666 0.81811 0.75019 0.0
H462 H 0.78565 0.80707 0.79068 0.0
H463 H 0.75963 0.83333 0.82948 0.0
C464 C 0.81972 0.05711 0.29922 0.0
C465 C 0.79308 0.08016 0.31319 0.0
C466 C 0.83659 0.07266 0.27762 0.0
C467 C 0.82724 0.11172 0.26969 0.0
C468 C 0.80035 0.13446 0.28363 0.0
C469 C 0.78355 0.11896 0.30516 0.0
C470 C 0.84353 0.1296 0.24668 0.0
C471 C 0.87674 0.11684 0.23524 0.0
C472 C 0.89243 0.13634 0.21255 0.0
C473 C 0.93333 0.13437 0.20741 0.0
C474 C 0.9491 0.15359 0.18661 0.0
C475 C 0.92413 0.17494 0.17052 0.0
H476 H 0.83547 0.15746 0.19859 0.0
C477 C 0.88309 0.1759 0.17525 0.0
C478 C 0.86735 0.15661 0.19591 0.0
H479 H 0.863 0.19159 0.16296 0.0
H480 H 0.82737 0.02698 0.30491 0.0
H481 H 0.85627 0.05368 0.26708 0.0
H482 H 0.79235 0.16449 0.2779 0.0
H483 H 0.76304 0.13743 0.3155 0.0
H484 H 0.82828 0.15585 0.23961 0.0
H485 H 0.89439 0.09306 0.24338 0.0
H486 H 0.95324 0.11853 0.21974 0.0
H487 H 0.98084 0.15213 0.18332 0.0
loop_
_geom_bond_atom_site_label_1
_geom_bond_atom_site_label_2
_geom_bond_distance
_geom_bond_site_symmetry_2
_ccdc_geom_bond_type
In0 O1 2.294 . S
In0 O2 2.326 . S
In0 O6 2.266 . S
In0 O7 2.326 . S
In0 O8 2.266 . S
In0 O9 2.326 . S
In0 O11 2.294 . S
In0 O12 2.326 . S
O1 In0 2.294 . S
O1 C10 1.240 . S
O2 In0 2.326 . S
O2 C10 1.252 . S
C3 O6 1.252 . S
C3 O7 1.260 . S
C4 O11 1.240 . S
C4 O12 1.252 . S
C5 O8 1.252 . S
C5 O9 1.260 . S
O6 In0 2.266 . S
O6 C3 1.252 . S
O7 In0 2.326 . S
O7 C3 1.260 . S
O8 In0 2.266 . S
O8 C5 1.252 . S
O9 In0 2.326 . S
O9 C5 1.260 . S
C10 O1 1.240 . S
C10 O2 1.252 . S
O11 In0 2.294 . S
O11 C4 1.240 . S
O12 In0 2.326 . S
O12 C4 1.252 . S
In13 O14 2.294 . S
In13 O15 2.326 . S
In13 O19 2.266 . S
In13 O20 2.326 . S
In13 O21 2.266 . S
In13 O22 2.326 . S
In13 O24 2.294 . S
In13 O25 2.326 . S
O14 In13 2.294 . S
O14 C23 1.240 . S
O15 In13 2.326 . S
O15 C23 1.252 . S
C16 O19 1.252 . S
C16 O20 1.260 . S
C17 O24 1.240 . S
C17 O25 1.252 . S
C18 O21 1.252 . S
C18 O22 1.260 . S
O19 In13 2.266 . S
O19 C16 1.252 . S
O20 In13 2.326 . S
O20 C16 1.260 . S
O21 In13 2.266 . S
O21 C18 1.252 . S
O22 In13 2.326 . S
O22 C18 1.260 . S
C23 O14 1.240 . S
C23 O15 1.252 . S
O24 In13 2.294 . S
O24 C17 1.240 . S
O25 In13 2.326 . S
O25 C17 1.252 . S
In26 O27 2.294 . S
In26 O28 2.326 . S
In26 O32 2.266 . S
In26 O33 2.326 . S
In26 O34 2.266 . S
In26 O35 2.326 . S
In26 O37 2.294 . S
In26 O38 2.326 . S
O27 In26 2.294 . S
O27 C36 1.240 . S
O28 In26 2.326 . S
O28 C36 1.252 . S
C29 O32 1.252 . S
C29 O33 1.260 . S
C30 O37 1.240 . S
C30 O38 1.252 . S
C31 O34 1.252 . S
C31 O35 1.260 . S
O32 In26 2.266 . S
O32 C29 1.252 . S
O33 In26 2.326 . S
O33 C29 1.260 . S
O34 In26 2.266 . S
O34 C31 1.252 . S
O35 In26 2.326 . S
O35 C31 1.260 . S
C36 O27 1.240 . S
C36 O28 1.252 . S
O37 In26 2.294 . S
O37 C30 1.240 . S
O38 In26 2.326 . S
O38 C30 1.252 . S
In39 O40 2.294 . S
In39 O41 2.326 . S
In39 O45 2.266 . S
In39 O46 2.326 . S
In39 O47 2.266 . S
In39 O48 2.326 . S
In39 O50 2.294 . S
In39 O51 2.326 . S
O40 In39 2.294 . S
O40 C49 1.240 . S
O41 In39 2.326 . S
O41 C49 1.252 . S
C42 O45 1.252 . S
C42 O46 1.260 . S
C43 O50 1.240 . S
C43 O51 1.252 . S
C44 O47 1.252 . S
C44 O48 1.260 . S
O45 In39 2.266 . S
O45 C42 1.252 . S
O46 In39 2.326 . S
O46 C42 1.260 . S
O47 In39 2.266 . S
O47 C44 1.252 . S
O48 In39 2.326 . S
O48 C44 1.260 . S
C49 O40 1.240 . S
C49 O41 1.252 . S
O50 In39 2.294 . S
O50 C43 1.240 . S
O51 In39 2.326 . S
O51 C43 1.252 . S
In52 O53 2.294 . S
In52 O54 2.326 . S
In52 O58 2.266 . S
In52 O59 2.326 . S
In52 O60 2.266 . S
In52 O61 2.326 . S
In52 O63 2.294 . S
In52 O64 2.326 . S
O53 In52 2.294 . S
O53 C62 1.240 . S
O54 In52 2.326 . S
O54 C62 1.252 . S
C55 O58 1.252 . S
C55 O59 1.260 . S
C56 O63 1.240 . S
C56 O64 1.252 . S
C57 O60 1.252 . S
C57 O61 1.260 . S
O58 In52 2.266 . S
O58 C55 1.252 . S
O59 In52 2.326 . S
O59 C55 1.260 . S
O60 In52 2.266 . S
O60 C57 1.252 . S
O61 In52 2.326 . S
O61 C57 1.260 . S
C62 O53 1.240 . S
C62 O54 1.252 . S
O63 In52 2.294 . S
O63 C56 1.240 . S
O64 In52 2.326 . S
O64 C56 1.252 . S
In65 O66 2.294 . S
In65 O67 2.326 . S
In65 O71 2.266 . S
In65 O72 2.326 . S
In65 O73 2.266 . S
In65 O74 2.326 . S
In65 O76 2.294 . S
In65 O77 2.326 . S
O66 In65 2.294 . S
O66 C75 1.240 . S
O67 In65 2.326 . S
O67 C75 1.252 . S
C68 O71 1.252 . S
C68 O72 1.260 . S
C69 O76 1.240 . S
C69 O77 1.252 . S
C70 O73 1.252 . S
C70 O74 1.260 . S
O71 In65 2.266 . S
O71 C68 1.252 . S
O72 In65 2.326 . S
O72 C68 1.260 . S
O73 In65 2.266 . S
O73 C70 1.252 . S
O74 In65 2.326 . S
O74 C70 1.260 . S
C75 O66 1.240 . S
C75 O67 1.252 . S
O76 In65 2.294 . S
O76 C69 1.240 . S
O77 In65 2.326 . S
O77 C69 1.252 . S
In78 O79 2.294 . S
In78 O80 2.326 . S
In78 O84 2.266 . S
In78 O85 2.326 . S
In78 O86 2.266 . S
In78 O87 2.326 . S
In78 O89 2.294 . S
In78 O90 2.326 . S
O79 In78 2.294 . S
O79 C88 1.240 . S
O80 In78 2.326 . S
O80 C88 1.252 . S
C81 O84 1.252 . S
C81 O85 1.260 . S
C82 O89 1.240 . S
C82 O90 1.252 . S
C83 O86 1.252 . S
C83 O87 1.260 . S
O84 In78 2.266 . S
O84 C81 1.252 . S
O85 In78 2.326 . S
O85 C81 1.260 . S
O86 In78 2.266 . S
O86 C83 1.252 . S
O87 In78 2.326 . S
O87 C83 1.260 . S
C88 O79 1.240 . S
C88 O80 1.252 . S
O89 In78 2.294 . S
O89 C82 1.240 . S
O90 In78 2.326 . S
O90 C82 1.252 . S
In91 O92 2.294 . S
In91 O93 2.326 . S
In91 O97 2.266 . S
In91 O98 2.326 . S
In91 O99 2.266 . S
In91 O100 2.326 . S
In91 O102 2.294 . S
In91 O103 2.326 . S
O92 In91 2.294 . S
O92 C101 1.240 . S
O93 In91 2.326 . S
O93 C101 1.252 . S
C94 O97 1.252 . S
C94 O98 1.260 . S
C95 O102 1.240 . S
C95 O103 1.252 . S
C96 O99 1.252 . S
C96 O100 1.260 . S
O97 In91 2.266 . S
O97 C94 1.252 . S
O98 In91 2.326 . S
O98 C94 1.260 . S
O99 In91 2.266 . S
O99 C96 1.252 . S
O100 In91 2.326 . S
O100 C96 1.260 . S
C101 O92 1.240 . S
C101 O93 1.252 . S
O102 In91 2.294 . S
O102 C95 1.240 . S
O103 In91 2.326 . S
O103 C95 1.252 . S
C104 C105 1.386 . S
C104 C106 1.383 . S
C104 H120 0.951 . S
C105 C104 1.386 . S
C105 C109 1.383 . S
C106 C104 1.383 . S
C106 C107 1.402 . S
C106 H121 0.951 . S
C107 C106 1.402 . S
C107 C108 1.375 . S
C107 C110 1.481 . S
C108 C107 1.375 . S
C108 C109 1.367 . S
C108 H122 0.951 1_655 S
C109 C105 1.383 . S
C109 C108 1.367 . S
C109 H123 0.950 . S
C110 C107 1.481 . S
C110 C111 1.297 . S
C110 H124 0.950 1_655 S
C111 C110 1.297 . S
C111 C112 1.479 1_655 S
C111 H125 0.950 . S
C112 C111 1.479 1_455 S
C112 C113 1.375 . S
C112 C118 1.404 . S
C113 C112 1.375 . S
C113 C114 1.369 . S
C113 H126 0.950 1_455 S
C114 C113 1.369 . S
C114 C115 1.392 . S
C114 H127 0.951 . S
C115 C114 1.392 . S
C115 C117 1.384 . S
H116 C118 0.949 . S
C117 C115 1.384 . S
C117 C118 1.385 . S
C117 H119 0.950 . S
C118 C112 1.404 . S
C118 H116 0.949 . S
C118 C117 1.385 . S
H119 C117 0.950 . S
H120 C104 0.951 . S
H121 C106 0.951 . S
H122 C108 0.951 1_455 S
H123 C109 0.950 . S
H124 C110 0.950 1_455 S
H125 C111 0.950 . S
H126 C113 0.950 1_655 S
H127 C114 0.951 . S
C128 C129 1.386 . S
C128 C130 1.383 . S
C128 H144 0.951 . S
C129 C128 1.386 . S
C129 C133 1.383 . S
C130 C128 1.383 . S
C130 C131 1.402 . S
C130 H145 0.951 . S
C131 C130 1.402 . S
C131 C132 1.375 . S
C131 C134 1.481 . S
C132 C131 1.375 . S
C132 C133 1.367 . S
C132 H146 0.951 . S
C133 C129 1.383 . S
C133 C132 1.367 . S
C133 H147 0.950 . S
C134 C131 1.481 . S
C134 C135 1.297 . S
C134 H148 0.951 . S
C135 C134 1.297 . S
C135 C136 1.479 1_545 S
C135 H149 0.950 . S
C136 C135 1.479 1_565 S
C136 C137 1.375 . S
C136 C142 1.404 . S
C137 C136 1.375 . S
C137 C138 1.369 . S
C137 H150 0.950 . S
C138 C137 1.369 . S
C138 C139 1.392 . S
C138 H151 0.951 . S
C139 C138 1.392 . S
C139 C141 1.384 . S
H140 C142 0.949 . S
C141 C139 1.384 . S
C141 C142 1.385 . S
C141 H143 0.950 . S
C142 C136 1.404 . S
C142 H140 0.949 . S
C142 C141 1.385 . S
H143 C141 0.950 . S
H144 C128 0.951 . S
H145 C130 0.951 . S
H146 C132 0.951 . S
H147 C133 0.950 . S
H148 C134 0.951 . S
H149 C135 0.950 . S
H150 C137 0.950 . S
H151 C138 0.951 . S
C152 C153 1.386 . S
C152 C154 1.383 . S
C152 H168 0.951 . S
C153 C152 1.386 . S
C153 C157 1.383 . S
C154 C152 1.383 . S
C154 C155 1.402 . S
C154 H169 0.951 . S
C155 C154 1.402 . S
C155 C156 1.375 . S
C155 C158 1.484 . S
C156 C155 1.375 . S
C156 C157 1.367 . S
C156 H170 0.951 1_655 S
C157 C153 1.383 . S
C157 C156 1.367 . S
C157 H171 0.950 . S
C158 C155 1.484 . S
C158 C159 1.299 . S
C158 H172 0.944 1_655 S
C159 C158 1.299 . S
C159 C160 1.479 1_655 S
C159 H173 0.950 . S
C160 C159 1.479 1_455 S
C160 C161 1.375 . S
C160 C166 1.404 . S
C161 C160 1.375 . S
C161 C162 1.369 . S
C161 H174 0.950 1_455 S
C162 C161 1.369 . S
C162 C163 1.392 . S
C162 H175 0.951 . S
C163 C162 1.392 . S
C163 C165 1.384 . S
H164 C166 0.949 . S
C165 C163 1.384 . S
C165 C166 1.385 . S
C165 H167 0.950 . S
C166 C160 1.404 . S
C166 H164 0.949 . S
C166 C165 1.385 . S
H167 C165 0.950 . S
H168 C152 0.951 . S
H169 C154 0.951 . S
H170 C156 0.951 1_455 S
H171 C157 0.950 . S
H172 C158 0.944 1_455 S
H173 C159 0.950 . S
H174 C161 0.950 1_655 S
H175 C162 0.951 . S
C176 C177 1.386 . S
C176 C178 1.383 . S
C176 H192 0.951 . S
C177 C176 1.386 . S
C177 C181 1.383 . S
C178 C176 1.383 . S
C178 C179 1.402 . S
C178 H193 0.951 1_545 S
C179 C178 1.402 . S
C179 C180 1.375 . S
C179 C182 1.481 . S
C180 C179 1.375 . S
C180 C181 1.367 . S
C180 H194 0.951 . S
C181 C177 1.383 . S
C181 C180 1.367 . S
C181 H195 0.950 . S
C182 C179 1.481 . S
C182 C183 1.297 1_545 S
C182 H196 0.950 . S
C183 C182 1.297 1_565 S
C183 C184 1.479 . S
C183 H197 0.950 . S
C184 C183 1.479 . S
C184 C185 1.375 . S
C184 C190 1.404 . S
C185 C184 1.375 . S
C185 C186 1.369 . S
C185 H198 0.950 . S
C186 C185 1.369 . S
C186 C187 1.392 . S
C186 H199 0.951 . S
C187 C186 1.392 . S
C187 C189 1.384 . S
H188 C190 0.949 . S
C189 C187 1.384 . S
C189 C190 1.385 . S
C189 H191 0.950 . S
C190 C184 1.404 . S
C190 H188 0.949 . S
C190 C189 1.385 . S
H191 C189 0.950 . S
H192 C176 0.951 . S
H193 C178 0.951 1_565 S
H194 C180 0.951 . S
H195 C181 0.950 . S
H196 C182 0.950 . S
H197 C183 0.950 . S
H198 C185 0.950 . S
H199 C186 0.951 . S
C200 C201 1.385 . S
C200 C202 1.383 . S
C200 H216 0.951 1_545 S
C201 C200 1.385 . S
C201 C205 1.381 . S
C202 C200 1.383 . S
C202 C203 1.402 . S
C202 H217 0.951 . S
C203 C202 1.402 . S
C203 C204 1.375 . S
C203 C206 1.481 . S
C204 C203 1.375 . S
C204 C205 1.367 . S
C204 H218 0.951 . S
C205 C201 1.381 . S
C205 C204 1.367 . S
C205 H219 0.950 . S
C206 C203 1.481 . S
C206 C207 1.297 . S
C206 H220 0.950 . S
C207 C206 1.297 . S
C207 C208 1.479 . S
C207 H221 0.950 . S
C208 C207 1.479 . S
C208 C209 1.375 . S
C208 C214 1.404 . S
C209 C208 1.375 . S
C209 C210 1.369 . S
C209 H222 0.950 . S
C210 C209 1.369 . S
C210 C211 1.392 . S
C210 H223 0.951 . S
C211 C210 1.392 . S
C211 C213 1.384 . S
H212 C214 0.949 . S
C213 C211 1.384 . S
C213 C214 1.385 . S
C213 H215 0.950 . S
C214 C208 1.404 . S
C214 H212 0.949 . S
C214 C213 1.385 . S
H215 C213 0.950 . S
H216 C200 0.951 1_565 S
H217 C202 0.951 . S
H218 C204 0.951 . S
H219 C205 0.950 . S
H220 C206 0.950 . S
H221 C207 0.950 . S
H222 C209 0.950 . S
H223 C210 0.951 . S
C224 C225 1.386 . S
C224 C226 1.383 . S
C224 H240 0.951 . S
C225 C224 1.386 . S
C225 C229 1.383 . S
C226 C224 1.383 . S
C226 C227 1.402 . S
C226 H241 0.951 . S
C227 C226 1.402 . S
C227 C228 1.375 . S
C227 C230 1.481 . S
C228 C227 1.375 . S
C228 C229 1.367 . S
C228 H242 0.951 . S
C229 C225 1.383 . S
C229 C228 1.367 . S
C229 H243 0.950 . S
C230 C227 1.481 . S
C230 C231 1.297 . S
C230 H244 0.950 . S
C231 C230 1.297 . S
C231 C232 1.479 . S
C231 H245 0.950 . S
C232 C231 1.479 . S
C232 C233 1.375 . S
C232 C238 1.404 . S
C233 C232 1.375 . S
C233 C234 1.369 . S
C233 H246 0.950 . S
C234 C233 1.369 . S
C234 C235 1.392 1_455 S
C234 H247 0.951 . S
C235 C234 1.392 1_655 S
C235 C237 1.384 . S
H236 C238 0.949 . S
C237 C235 1.384 . S
C237 C238 1.385 1_655 S
C237 H239 0.950 . S
C238 C232 1.404 . S
C238 H236 0.949 . S
C238 C237 1.385 1_455 S
H239 C237 0.950 . S
H240 C224 0.951 . S
H241 C226 0.951 . S
H242 C228 0.951 . S
H243 C229 0.950 . S
H244 C230 0.950 . S
H245 C231 0.950 . S
H246 C233 0.950 . S
H247 C234 0.951 . S
C248 C249 1.386 1_565 S
C248 C250 1.383 . S
C248 H264 0.951 1_565 S
C249 C248 1.386 1_545 S
C249 C253 1.383 1_545 S
C250 C248 1.383 . S
C250 C251 1.402 . S
C250 H265 0.951 . S
C251 C250 1.402 . S
C251 C252 1.375 . S
C251 C254 1.481 . S
C252 C251 1.375 . S
C252 C253 1.367 . S
C252 H266 0.951 . S
C253 C249 1.383 1_565 S
C253 C252 1.367 . S
C253 H267 0.950 . S
C254 C251 1.481 . S
C254 C255 1.297 . S
C254 H268 0.950 . S
C255 C254 1.297 . S
C255 C256 1.479 . S
C255 H269 0.950 . S
C256 C255 1.479 . S
C256 C257 1.375 . S
C256 C262 1.404 . S
C257 C256 1.375 . S
C257 C258 1.369 . S
C257 H270 0.950 . S
C258 C257 1.369 . S
C258 C259 1.392 . S
C258 H271 0.951 . S
C259 C258 1.392 . S
C259 C261 1.384 . S
H260 C262 0.949 . S
C261 C259 1.384 . S
C261 C262 1.385 . S
C261 H263 0.950 . S
C262 C256 1.404 . S
C262 H260 0.949 . S
C262 C261 1.385 . S
H263 C261 0.950 . S
H264 C248 0.951 1_545 S
H265 C250 0.951 . S
H266 C252 0.951 . S
H267 C253 0.950 . S
H268 C254 0.950 . S
H269 C255 0.950 . S
H270 C257 0.950 . S
H271 C258 0.951 . S
C272 C273 1.386 . S
C272 C274 1.383 . S
C272 H288 0.951 . S
C273 C272 1.386 . S
C273 C277 1.383 . S
C274 C272 1.383 . S
C274 C275 1.402 . S
C274 H289 0.951 . S
C275 C274 1.402 . S
C275 C276 1.375 . S
C275 C278 1.481 . S
C276 C275 1.375 . S
C276 C277 1.367 . S
C276 H290 0.951 . S
C277 C273 1.383 . S
C277 C276 1.367 . S
C277 H291 0.950 . S
C278 C275 1.481 . S
C278 C279 1.297 . S
C278 H292 0.950 . S
C279 C278 1.297 . S
C279 C280 1.479 . S
C279 H293 0.950 . S
C280 C279 1.479 . S
C280 C281 1.375 . S
C280 C286 1.404 . S
C281 C280 1.375 . S
C281 C282 1.369 . S
C281 H294 0.950 . S
C282 C281 1.369 . S
C282 C283 1.392 1_655 S
C282 H295 0.951 . S
C283 C282 1.392 1_455 S
C283 C285 1.384 . S
H284 C286 0.949 . S
C285 C283 1.384 . S
C285 C286 1.385 1_455 S
C285 H287 0.950 . S
C286 C280 1.404 . S
C286 H284 0.949 . S
C286 C285 1.385 1_655 S
H287 C285 0.950 . S
H288 C272 0.951 . S
H289 C274 0.951 . S
H290 C276 0.951 . S
H291 C277 0.950 . S
H292 C278 0.950 . S
H293 C279 0.950 . S
H294 C281 0.950 . S
H295 C282 0.951 . S
C296 C297 1.386 1_545 S
C296 C298 1.383 . S
C296 H312 0.951 . S
C297 C296 1.386 1_565 S
C297 C301 1.383 . S
C298 C296 1.383 . S
C298 C299 1.402 . S
C298 H313 0.951 . S
C299 C298 1.402 . S
C299 C300 1.375 . S
C299 C302 1.509 . S
C300 C299 1.375 . S
C300 C301 1.367 1_545 S
C300 H314 0.951 . S
C301 C297 1.383 . S
C301 C300 1.367 1_565 S
C301 H315 0.950 . S
C302 C299 1.509 . S
C302 C303 1.275 1_556 S
C302 H316 0.944 1_556 S
C303 C302 1.275 1_554 S
C303 C304 1.479 . S
C303 H317 0.950 . S
C304 C303 1.479 . S
C304 C305 1.375 . S
C304 C310 1.404 . S
C305 C304 1.375 . S
C305 C306 1.369 . S
C305 H318 0.950 . S
C306 C305 1.369 . S
C306 C307 1.392 . S
C306 H319 0.951 . S
C307 C306 1.392 . S
C307 C309 1.384 . S
H308 C310 0.949 . S
C309 C307 1.384 . S
C309 C310 1.385 . S
C309 H311 0.950 . S
C310 C304 1.404 . S
C310 H308 0.949 . S
C310 C309 1.385 . S
H311 C309 0.950 . S
H312 C296 0.951 . S
H313 C298 0.951 . S
H314 C300 0.951 . S
H315 C301 0.950 . S
H316 C302 0.944 1_554 S
H317 C303 0.950 . S
H318 C305 0.950 . S
H319 C306 0.951 . S
C320 C321 1.386 . S
C320 C322 1.383 . S
C320 H336 0.951 . S
C321 C320 1.386 . S
C321 C325 1.383 . S
C322 C320 1.383 . S
C322 C323 1.402 . S
C322 H337 0.951 . S
C323 C322 1.402 . S
C323 C324 1.375 . S
C323 C326 1.481 1_556 S
C324 C323 1.375 . S
C324 C325 1.367 . S
C324 H338 0.951 1_556 S
C325 C321 1.383 . S
C325 C324 1.367 . S
C325 H339 0.950 . S
C326 C323 1.481 1_554 S
C326 C327 1.297 . S
C326 H340 0.950 . S
C327 C326 1.297 . S
C327 C328 1.479 . S
C327 H341 0.950 1_554 S
C328 C327 1.479 . S
C328 C329 1.375 . S
C328 C334 1.404 . S
C329 C328 1.375 . S
C329 C330 1.369 1_455 S
C329 H342 0.954 1_554 S
C330 C329 1.369 1_655 S
C330 C331 1.392 . S
C330 H343 0.951 . S
C331 C330 1.392 . S
C331 C333 1.384 1_655 S
H332 C334 0.949 . S
C333 C331 1.384 1_455 S
C333 C334 1.385 . S
C333 H335 0.950 . S
C334 C328 1.404 . S
C334 H332 0.949 . S
C334 C333 1.385 . S
H335 C333 0.950 . S
H336 C320 0.951 . S
H337 C322 0.951 . S
H338 C324 0.951 1_554 S
H339 C325 0.950 . S
H340 C326 0.950 . S
H341 C327 0.950 1_556 S
H342 C329 0.954 1_556 S
H343 C330 0.951 . S
C344 C345 1.386 . S
C344 C346 1.383 . S
C344 H360 0.951 . S
C345 C344 1.386 . S
C345 C349 1.383 . S
C346 C344 1.383 . S
C346 C347 1.402 . S
C346 H361 0.951 . S
C347 C346 1.402 . S
C347 C348 1.375 . S
C347 C350 1.481 . S
C348 C347 1.375 . S
C348 C349 1.367 . S
C348 H362 0.951 . S
C349 C345 1.383 . S
C349 C348 1.367 . S
C349 H363 0.950 . S
C350 C347 1.481 . S
C350 C351 1.297 . S
C350 H364 0.950 . S
C351 C350 1.297 . S
C351 C352 1.479 1_554 S
C351 H365 0.950 . S
C352 C351 1.479 1_556 S
C352 C353 1.375 . S
C352 C358 1.404 . S
C353 C352 1.375 . S
C353 C354 1.369 1_565 S
C353 H366 0.950 . S
C354 C353 1.369 1_545 S
C354 C355 1.392 . S
C354 H367 0.951 . S
C355 C354 1.392 . S
C355 C357 1.384 1_545 S
H356 C358 0.949 . S
C357 C355 1.384 1_565 S
C357 C358 1.385 . S
C357 H359 0.950 . S
C358 C352 1.404 . S
C358 H356 0.949 . S
C358 C357 1.385 . S
H359 C357 0.950 . S
H360 C344 0.951 . S
H361 C346 0.951 . S
H362 C348 0.951 . S
H363 C349 0.950 . S
H364 C350 0.950 . S
H365 C351 0.950 . S
H366 C353 0.950 . S
H367 C354 0.951 . S
C368 C369 1.386 . S
C368 C370 1.383 . S
C368 H384 0.951 . S
C369 C368 1.386 . S
C369 C373 1.383 . S
C370 C368 1.383 . S
C370 C371 1.402 . S
C370 H385 0.951 . S
C371 C370 1.402 . S
C371 C372 1.375 . S
C371 C374 1.463 1_556 S
C372 C371 1.375 . S
C372 C373 1.367 . S
C372 H386 0.951 . S
C373 C369 1.383 . S
C373 C372 1.367 . S
C373 H387 0.950 . S
C374 C371 1.463 1_554 S
C374 C375 1.296 1_554 S
C374 H388 0.971 . S
C375 C374 1.296 1_556 S
C375 C376 1.462 1_556 S
C375 H389 0.971 . S
C376 C375 1.462 1_554 S
C376 C377 1.375 . S
C376 C382 1.404 . S
C377 C376 1.375 . S
C377 C378 1.369 1_655 S
C377 H390 0.971 . S
C378 C377 1.369 1_455 S
C378 C379 1.392 . S
C378 H391 0.951 . S
C379 C378 1.392 . S
C379 C381 1.384 1_455 S
H380 C382 0.949 . S
C381 C379 1.384 1_655 S
C381 C382 1.385 . S
C381 H383 0.950 . S
C382 C376 1.404 . S
C382 H380 0.949 . S
C382 C381 1.385 . S
H383 C381 0.950 . S
H384 C368 0.951 . S
H385 C370 0.951 . S
H386 C372 0.951 . S
H387 C373 0.950 . S
H388 C374 0.971 . S
H389 C375 0.971 . S
H390 C377 0.971 . S
H391 C378 0.951 . S
C392 C393 1.386 . S
C392 C394 1.383 . S
C392 H408 0.951 . S
C393 C392 1.386 . S
C393 C397 1.383 . S
C394 C392 1.383 . S
C394 C395 1.402 . S
C394 H409 0.951 . S
C395 C394 1.402 . S
C395 C396 1.375 . S
C395 C398 1.481 . S
C396 C395 1.375 . S
C396 C397 1.367 . S
C396 H410 0.951 . S
C397 C393 1.383 . S
C397 C396 1.367 . S
C397 H411 0.950 . S
C398 C395 1.481 . S
C398 C399 1.297 . S
C398 H412 0.950 . S
C399 C398 1.297 . S
C399 C400 1.479 . S
C399 H413 0.950 . S
C400 C399 1.479 . S
C400 C401 1.375 . S
C400 C406 1.404 . S
C401 C400 1.375 . S
C401 C402 1.369 . S
C401 H414 0.950 . S
C402 C401 1.369 . S
C402 C403 1.392 . S
C402 H415 0.951 . S
C403 C402 1.392 . S
C403 C405 1.384 . S
H404 C406 0.949 . S
C405 C403 1.384 . S
C405 C406 1.385 . S
C405 H407 0.950 . S
C406 C400 1.404 . S
C406 H404 0.949 . S
C406 C405 1.385 . S
H407 C405 0.950 . S
H408 C392 0.951 . S
H409 C394 0.951 . S
H410 C396 0.951 . S
H411 C397 0.950 . S
H412 C398 0.950 . S
H413 C399 0.950 . S
H414 C401 0.950 . S
H415 C402 0.951 . S
C416 C417 1.386 . S
C416 C418 1.383 . S
C416 H432 0.951 . S
C417 C416 1.386 . S
C417 C421 1.383 . S
C418 C416 1.383 . S
C418 C419 1.402 . S
C418 H433 0.951 . S
C419 C418 1.402 . S
C419 C420 1.375 . S
C419 C422 1.481 . S
C420 C419 1.375 . S
C420 C421 1.367 . S
C420 H434 0.951 . S
C421 C417 1.383 . S
C421 C420 1.367 . S
C421 H435 0.950 . S
C422 C419 1.481 . S
C422 C423 1.297 . S
C422 H436 0.950 . S
C423 C422 1.297 . S
C423 C424 1.479 . S
C423 H437 0.950 . S
C424 C423 1.479 . S
C424 C425 1.375 . S
C424 C430 1.404 . S
C425 C424 1.375 . S
C425 C426 1.369 . S
C425 H438 0.950 . S
C426 C425 1.369 . S
C426 C427 1.392 . S
C426 H439 0.951 . S
C427 C426 1.392 . S
C427 C429 1.384 . S
H428 C430 0.949 . S
C429 C427 1.384 . S
C429 C430 1.385 . S
C429 H431 0.950 . S
C430 C424 1.404 . S
C430 H428 0.949 . S
C430 C429 1.385 . S
H431 C429 0.950 . S
H432 C416 0.951 . S
H433 C418 0.951 . S
H434 C420 0.951 . S
H435 C421 0.950 . S
H436 C422 0.950 . S
H437 C423 0.950 . S
H438 C425 0.950 . S
H439 C426 0.951 . S
C440 C441 1.386 . S
C440 C442 1.383 . S
C440 H456 0.951 . S
C441 C440 1.386 . S
C441 C445 1.383 . S
C442 C440 1.383 . S
C442 C443 1.402 . S
C442 H457 0.951 . S
C443 C442 1.402 . S
C443 C444 1.375 . S
C443 C446 1.481 . S
C444 C443 1.375 . S
C444 C445 1.367 . S
C444 H458 0.951 . S
C445 C441 1.383 . S
C445 C444 1.367 . S
C445 H459 0.950 . S
C446 C443 1.481 . S
C446 C447 1.297 . S
C446 H460 0.950 . S
C447 C446 1.297 . S
C447 C448 1.479 . S
C447 H461 0.950 . S
C448 C447 1.479 . S
C448 C449 1.375 . S
C448 C454 1.404 . S
C449 C448 1.375 . S
C449 C450 1.369 . S
C449 H462 0.950 . S
C450 C449 1.369 . S
C450 C451 1.392 . S
C450 H463 0.951 . S
C451 C450 1.392 . S
C451 C453 1.384 . S
H452 C454 0.949 . S
C453 C451 1.384 . S
C453 C454 1.385 . S
C453 H455 0.950 . S
C454 C448 1.404 . S
C454 H452 0.949 . S
C454 C453 1.385 . S
H455 C453 0.950 . S
H456 C440 0.951 . S
H457 C442 0.951 . S
H458 C444 0.951 . S
H459 C445 0.950 . S
H460 C446 0.950 . S
H461 C447 0.950 . S
H462 C449 0.950 . S
H463 C450 0.951 . S
C464 C465 1.386 . S
C464 C466 1.383 . S
C464 H480 0.951 . S
C465 C464 1.386 . S
C465 C469 1.383 . S
C466 C464 1.383 . S
C466 C467 1.402 . S
C466 H481 0.951 . S
C467 C466 1.402 . S
C467 C468 1.375 . S
C467 C470 1.481 . S
C468 C467 1.375 . S
C468 C469 1.367 . S
C468 H482 0.951 . S
C469 C465 1.383 . S
C469 C468 1.367 . S
C469 H483 0.950 . S
C470 C467 1.481 . S
C470 C471 1.297 . S
C470 H484 0.950 . S
C471 C470 1.297 . S
C471 C472 1.479 . S
C471 H485 0.950 . S
C472 C471 1.479 . S
C472 C473 1.375 . S
C472 C478 1.404 . S
C473 C472 1.375 . S
C473 C474 1.369 . S
C473 H486 0.950 . S
C474 C473 1.369 . S
C474 C475 1.392 . S
C474 H487 0.951 . S
C475 C474 1.392 . S
C475 C477 1.384 . S
H476 C478 0.949 . S
C477 C475 1.384 . S
C477 C478 1.385 . S
C477 H479 0.950 . S
C478 C472 1.404 . S
C478 H476 0.949 . S
C478 C477 1.385 . S
H479 C477 0.950 . S
H480 C464 0.951 . S
H481 C466 0.951 . S
H482 C468 0.951 . S
H483 C469 0.950 . S
H484 C470 0.950 . S
H485 C471 0.950 . S
H486 C473 0.950 . S
H487 C474 0.951 . S
C105 C36 1.559 . S
C115 C10 1.528 . S
C129 C49 1.581 . S
C139 C23 1.531 . S
C153 C56 1.570 . S
C163 C88 1.546 . S
C177 C75 1.571 . S
C187 C95 1.592 . S
C201 C18 1.060 1_545 S
C211 C3 1.060 . S
C225 C16 1.002 . S
C235 C31 1.054 . S
C249 C44 1.027 . S
C259 C29 1.017 . S
C273 C42 1.018 . S
C283 C5 1.036 . S
C297 C94 1.031 . S
C307 C57 1.039 . S
C321 C68 1.001 . S
C331 C55 1.031 . S
C345 C81 1.057 . S
C355 C70 1.007 . S
C369 C96 0.997 . S
C379 C83 1.024 . S
C393 C4 1.738 . S
C403 C69 1.716 . S
C417 C82 1.739 . S
C427 C17 1.709 . S
C441 C30 1.729 . S
C451 C101 1.705 . S
C465 C43 1.740 . S
C475 C62 1.705 . S
