# Generated by pormake.
# Topology unb, (4)-cn, num edge types: 1
# Building blocks:
#     Node 0, Type 0, BuildingBlock: TATPOV_clean_sbu_0, # of connection points: 4
#     Node 1, Type 0, BuildingBlock: TATPOV_clean_sbu_0, # of connection points: 4
#     Node 2, Type 0, BuildingBlock: TATPOV_clean_sbu_0, # of connection points: 4
#     Node 3, Type 0, BuildingBlock: TATPOV_clean_sbu_0, # of connection points: 4
#     Node 4, Type 0, BuildingBlock: TATPOV_clean_sbu_0, # of connection points: 4
#     Node 5, Type 0, BuildingBlock: TATPOV_clean_sbu_0, # of connection points: 4
#     Node 6, Type 0, BuildingBlock: TATPOV_clean_sbu_0, # of connection points: 4
#     Node 7, Type 0, BuildingBlock: TATPOV_clean_sbu_0, # of connection points: 4
#     Node 8, Type 0, BuildingBlock: TATPOV_clean_sbu_0, # of connection points: 4
#     Node 9, Type 0, BuildingBlock: TATPOV_clean_sbu_0, # of connection points: 4
#     Node 10, Type 0, BuildingBlock: TATPOV_clean_sbu_0, # of connection points: 4
#     Node 11, Type 0, BuildingBlock: TATPOV_clean_sbu_0, # of connection points: 4
#     Node 12, Type 0, BuildingBlock: TATPOV_clean_sbu_0, # of connection points: 4
#     Node 13, Type 0, BuildingBlock: TATPOV_clean_sbu_0, # of connection points: 4
#     Node 14, Type 0, BuildingBlock: TATPOV_clean_sbu_0, # of connection points: 4
#     Node 15, Type 0, BuildingBlock: TATPOV_clean_sbu_0, # of connection points: 4
#     Node 16, Type 0, BuildingBlock: TATPOV_clean_sbu_0, # of connection points: 4
#     Node 17, Type 0, BuildingBlock: TATPOV_clean_sbu_0, # of connection points: 4
#     Edge 18, Type (0, 0), BuildingBlock: AJUNOK_clean_linker_0, # of connection points: 2
#     Edge 19, Type (0, 0), BuildingBlock: AJUNOK_clean_linker_0, # of connection points: 2
#     Edge 20, Type (0, 0), BuildingBlock: AJUNOK_clean_linker_0, # of connection points: 2
#     Edge 21, Type (0, 0), BuildingBlock: AJUNOK_clean_linker_0, # of connection points: 2
#     Edge 22, Type (0, 0), BuildingBlock: AJUNOK_clean_linker_0, # of connection points: 2
#     Edge 23, Type (0, 0), BuildingBlock: AJUNOK_clean_linker_0, # of connection points: 2
#     Edge 24, Type (0, 0), BuildingBlock: AJUNOK_clean_linker_0, # of connection points: 2
#     Edge 25, Type (0, 0), BuildingBlock: AJUNOK_clean_linker_0, # of connection points: 2
#     Edge 26, Type (0, 0), BuildingBlock: AJUNOK_clean_linker_0, # of connection points: 2
#     Edge 27, Type (0, 0), BuildingBlock: AJUNOK_clean_linker_0, # of connection points: 2
#     Edge 28, Type (0, 0), BuildingBlock: AJUNOK_clean_linker_0, # of connection points: 2
#     Edge 29, Type (0, 0), BuildingBlock: AJUNOK_clean_linker_0, # of connection points: 2
#     Edge 30, Type (0, 0), BuildingBlock: AJUNOK_clean_linker_0, # of connection points: 2
#     Edge 31, Type (0, 0), BuildingBlock: AJUNOK_clean_linker_0, # of connection points: 2
#     Edge 32, Type (0, 0), BuildingBlock: AJUNOK_clean_linker_0, # of connection points: 2
#     Edge 33, Type (0, 0), BuildingBlock: AJUNOK_clean_linker_0, # of connection points: 2
#     Edge 34, Type (0, 0), BuildingBlock: AJUNOK_clean_linker_0, # of connection points: 2
#     Edge 35, Type (0, 0), BuildingBlock: AJUNOK_clean_linker_0, # of connection points: 2
#     Edge 36, Type (0, 0), BuildingBlock: AJUNOK_clean_linker_0, # of connection points: 2
#     Edge 37, Type (0, 0), BuildingBlock: AJUNOK_clean_linker_0, # of connection points: 2
#     Edge 38, Type (0, 0), BuildingBlock: AJUNOK_clean_linker_0, # of connection points: 2
#     Edge 39, Type (0, 0), BuildingBlock: AJUNOK_clean_linker_0, # of connection points: 2
#     Edge 40, Type (0, 0), BuildingBlock: AJUNOK_clean_linker_0, # of connection points: 2
#     Edge 41, Type (0, 0), BuildingBlock: AJUNOK_clean_linker_0, # of connection points: 2
#     Edge 42, Type (0, 0), BuildingBlock: AJUNOK_clean_linker_0, # of connection points: 2
#     Edge 43, Type (0, 0), BuildingBlock: AJUNOK_clean_linker_0, # of connection points: 2
#     Edge 44, Type (0, 0), BuildingBlock: AJUNOK_clean_linker_0, # of connection points: 2
#     Edge 45, Type (0, 0), BuildingBlock: AJUNOK_clean_linker_0, # of connection points: 2
#     Edge 46, Type (0, 0), BuildingBlock: AJUNOK_clean_linker_0, # of connection points: 2
#     Edge 47, Type (0, 0), BuildingBlock: AJUNOK_clean_linker_0, # of connection points: 2
#     Edge 48, Type (0, 0), BuildingBlock: AJUNOK_clean_linker_0, # of connection points: 2
#     Edge 49, Type (0, 0), BuildingBlock: AJUNOK_clean_linker_0, # of connection points: 2
#     Edge 50, Type (0, 0), BuildingBlock: AJUNOK_clean_linker_0, # of connection points: 2
#     Edge 51, Type (0, 0), BuildingBlock: AJUNOK_clean_linker_0, # of connection points: 2
#     Edge 52, Type (0, 0), BuildingBlock: AJUNOK_clean_linker_0, # of connection points: 2
#     Edge 53, Type (0, 0), BuildingBlock: AJUNOK_clean_linker_0, # of connection points: 2
# Relax obj value: 0.016
# Max RMSD: 0.033
# Mean RMSD: 0.033
data_MOF--net-unb--node1-TATPOV_clean_sbu_0--edge1-AJUNOK_clean_linker_0
_symmetry_space_group_name_H-M    P1
_symmetry_Int_Tables_number       1
_symmetry_cell_setting            triclinic
loop_
_symmetry_equiv_pos_as_xyz
'x, y, z'
_cell_length_a     49.612123
_cell_length_b     49.62544
_cell_length_c     17.827843
_cell_angle_alpha  90.090278
_cell_angle_beta   89.981458
_cell_angle_gamma 119.91848
loop_
_atom_site_label
_atom_site_type_symbol
_atom_site_fract_x
_atom_site_fract_y
_atom_site_fract_z
_atom_type_partial_charge
Zn0 Zn 0.09747 0.21538 0.98494 0.0
Zn1 Zn 0.11574 0.24233 0.09912 0.0
O2 O 0.06921 0.23246 0.08475 0.0
O3 O 0.06395 0.22418 0.96348 0.0
O4 O 0.13129 0.26545 0.20181 0.0
O5 O 0.0879 0.17339 1.01494 0.0
O6 O 0.12401 0.20458 0.09407 0.0
C7 C 0.05364 0.22842 0.02426 0.0
C8 C 0.15278 0.26711 0.95771 0.0
O9 O 0.14545 0.27366 1.02113 0.0
O10 O 0.13695 0.24003 0.93158 0.0
C11 C 0.12421 0.28606 0.22014 0.0
O12 O 0.10705 0.29163 0.17357 0.0
C13 C 0.11008 0.17872 0.05841 0.0
Zn14 Zn 0.75654 0.88015 0.98139 0.0
Zn15 Zn 0.73148 0.87041 0.09859 0.0
O16 O 0.74386 0.83587 0.08211 0.0
O17 O 0.74989 0.83845 0.96011 0.0
O18 O 0.71158 0.86262 0.20474 0.0
O19 O 0.79848 0.9138 1.01002 0.0
O20 O 0.76691 0.91721 0.09064 0.0
C21 C 0.74784 0.82468 1.02099 0.0
C22 C 0.70139 0.87855 0.96177 0.0
O23 O 0.69734 0.86517 0.02522 0.0
O24 O 0.72821 0.89229 0.9332 0.0
C25 C 0.68306 0.84241 0.21637 0.0
O26 O 0.66597 0.82638 0.1589 0.0
C27 C 0.79256 0.93006 0.05413 0.0
Zn28 Zn 0.09379 0.89775 1.00292 0.0
Zn29 Zn 0.10677 0.87812 0.11224 0.0
O30 O 0.14329 0.92434 0.09911 0.0
O31 O 0.13537 0.93265 0.98257 0.0
O32 O 0.11596 0.86154 0.21034 0.0
O33 O 0.06096 0.90476 0.04583 0.0
O34 O 0.06016 0.8674 0.11288 0.0
C35 C 0.15257 0.94107 0.03982 0.0
C36 C 0.09442 0.84442 0.96617 0.0
O37 O 0.10876 0.85109 0.02888 0.0
O38 O 0.08102 0.85903 0.94491 0.0
C39 C 0.14385 0.86849 0.22562 0.0
O40 O 0.16601 0.88654 0.17884 0.0
C41 C 0.04595 0.8807 0.08528 0.0
Zn42 Zn 0.22846 0.11607 0.07435 0.0
Zn43 Zn 0.24987 0.1317 0.95653 0.0
O44 O 0.23798 0.08505 0.97265 0.0
O45 O 0.23975 0.08382 0.09507 0.0
O46 O 0.27156 0.14454 0.85188 0.0
O47 O 0.18515 0.10331 0.04952 0.0
O48 O 0.21091 0.13811 0.96259 0.0
C49 C 0.23735 0.07069 0.03288 0.0
C50 C 0.27839 0.17141 0.09441 0.0
O51 O 0.28314 0.16234 0.03116 0.0
O52 O 0.2518 0.15677 0.12373 0.0
C53 C 0.2913 0.13599 0.83573 0.0
O54 O 0.29653 0.11965 0.88552 0.0
C55 C 0.18645 0.12307 1.00306 0.0
Zn56 Zn 0.87506 0.10873 0.05061 0.0
Zn57 Zn 0.85943 0.12084 0.93664 0.0
O58 O 0.90659 0.15493 0.95567 0.0
O59 O 0.90987 0.14974 0.0768 0.0
O60 O 0.84752 0.12974 0.83083 0.0
O61 O 0.8832 0.07551 1.01576 0.0
O62 O 0.84746 0.07388 0.94065 0.0
C63 C 0.92175 0.16473 1.01737 0.0
C64 C 0.82092 0.10932 0.07408 0.0
O65 O 0.8301 0.1243 1.01245 0.0
O66 O 0.83458 0.09559 0.09945 0.0
C67 C 0.8298 0.14124 0.81971 0.0
O68 O 0.81797 0.14777 0.87822 0.0
C69 C 0.86007 0.06004 0.97363 0.0
Zn70 Zn 0.8676 0.76889 0.06757 0.0
Zn71 Zn 0.86157 0.74432 0.95145 0.0
O72 O 0.82508 0.75426 0.96325 0.0
O73 O 0.82429 0.75813 0.08548 0.0
O74 O 0.85613 0.7242 0.84587 0.0
O75 O 0.89871 0.81191 0.03848 0.0
O76 O 0.907 0.78221 0.96185 0.0
C77 C 0.8118 0.75643 0.02281 0.0
C78 C 0.87182 0.7172 0.0909 0.0
O79 O 0.85856 0.71165 0.02686 0.0
O80 O 0.88312 0.74403 0.11887 0.0
C81 C 0.83875 0.69497 0.83478 0.0
O82 O 0.82419 0.67719 0.8925 0.0
C83 C 0.91712 0.80796 0.99723 0.0
Zn84 Zn 0.77269 0.55868 0.30902 0.0
Zn85 Zn 0.78925 0.5845 0.42502 0.0
O86 O 0.74151 0.56976 0.4128 0.0
O87 O 0.73673 0.56424 0.2908 0.0
O88 O 0.80221 0.60629 0.52949 0.0
O89 O 0.76579 0.51757 0.3406 0.0
O90 O 0.80186 0.54987 0.41803 0.0
C91 C 0.72532 0.5652 0.35324 0.0
C92 C 0.82503 0.61336 0.28383 0.0
O93 O 0.81643 0.61779 0.34792 0.0
O94 O 0.81185 0.58641 0.25585 0.0
C95 C 0.81384 0.63569 0.53671 0.0
O96 O 0.81767 0.65228 0.4762 0.0
C97 C 0.7884 0.52377 0.38338 0.0
Zn98 Zn 0.4282 0.20644 0.31352 0.0
Zn99 Zn 0.40373 0.2008 0.42963 0.0
O100 O 0.41053 0.16237 0.41429 0.0
O101 O 0.41511 0.16273 0.29211 0.0
O102 O 0.38158 0.19416 0.53321 0.0
O103 O 0.4715 0.2355 0.3428 0.0
O104 O 0.44418 0.2449 0.42485 0.0
C105 C 0.41214 0.14922 0.3539 0.0
C106 C 0.37988 0.21587 0.28974 0.0
O107 O 0.37309 0.20201 0.35313 0.0
O108 O 0.40643 0.22511 0.26213 0.0
C109 C 0.36103 0.16658 0.55197 0.0
O110 O 0.35497 0.14375 0.50523 0.0
C111 C 0.46938 0.25401 0.38771 0.0
Zn112 Zn 0.75546 0.20354 0.29229 0.0
Zn113 Zn 0.76901 0.18959 0.40821 0.0
O114 O 0.80214 0.23664 0.3887 0.0
O115 O 0.79581 0.23962 0.26785 0.0
O116 O 0.77967 0.17811 0.51225 0.0
O117 O 0.72145 0.21012 0.32767 0.0
O118 O 0.72176 0.17693 0.4083 0.0
C119 C 0.81126 0.25159 0.3267 0.0
C120 C 0.75989 0.15186 0.26883 0.0
O121 O 0.77387 0.16149 0.33159 0.0
O122 O 0.74465 0.16376 0.24215 0.0
C123 C 0.80021 0.16991 0.51993 0.0
O124 O 0.81502 0.16893 0.45984 0.0
C125 C 0.70728 0.18884 0.37516 0.0
Zn126 Zn 0.88399 0.43582 0.37269 0.0
Zn127 Zn 0.90634 0.44891 0.25353 0.0
O128 O 0.88675 0.40034 0.26051 0.0
O129 O 0.88534 0.39725 0.38319 0.0
O130 O 0.92985 0.46362 0.15178 0.0
O131 O 0.84401 0.43338 0.35108 0.0
O132 O 0.87566 0.4667 0.2678 0.0
C133 C 0.88297 0.38457 0.32038 0.0
C134 C 0.94185 0.47924 0.39505 0.0
O135 O 0.94171 0.46926 0.32914 0.0
O136 O 0.91645 0.47271 0.42602 0.0
C137 C 0.94861 0.45407 0.13369 0.0
O138 O 0.9506 0.43401 0.17806 0.0
C139 C 0.85067 0.45563 0.30688 0.0
Zn140 Zn 0.54899 0.43684 0.40837 0.0
Zn141 Zn 0.53159 0.44308 0.28875 0.0
O142 O 0.57738 0.48035 0.30314 0.0
O143 O 0.58325 0.47935 0.42477 0.0
O144 O 0.51791 0.44934 0.18245 0.0
O145 O 0.55803 0.40345 0.38629 0.0
O146 O 0.5253 0.39782 0.29643 0.0
C147 C 0.59322 0.49283 0.36273 0.0
C148 C 0.4932 0.43364 0.42815 0.0
O149 O 0.50058 0.44519 0.36232 0.0
O150 O 0.50936 0.42386 0.45982 0.0
C151 C 0.50705 0.46761 0.17129 0.0
O152 O 0.50414 0.48237 0.2292 0.0
C153 C 0.53838 0.38646 0.33767 0.0
Zn154 Zn 0.52576 0.08512 0.40229 0.0
Zn155 Zn 0.51571 0.05784 0.28652 0.0
O156 O 0.48154 0.07096 0.29978 0.0
O157 O 0.48392 0.07876 0.42117 0.0
O158 O 0.50682 0.03477 0.18435 0.0
O159 O 0.55942 0.12613 0.36793 0.0
O160 O 0.56223 0.09361 0.28905 0.0
C161 C 0.47028 0.07587 0.35957 0.0
C162 C 0.52533 0.03083 0.42731 0.0
O163 O 0.51174 0.02551 0.36381 0.0
O164 O 0.53814 0.05789 0.45466 0.0
C165 C 0.47868 0.01631 0.16509 0.0
O166 O 0.4564 0.01285 0.21079 0.0
C167 C 0.57512 0.11995 0.32258 0.0
Zn168 Zn 0.42336 0.8721 0.65196 0.0
Zn169 Zn 0.44095 0.90213 0.76617 0.0
O170 O 0.39435 0.89072 0.75049 0.0
O171 O 0.38682 0.87637 0.63242 0.0
O172 O 0.45458 0.92566 0.86786 0.0
O173 O 0.41825 0.83222 0.68817 0.0
O174 O 0.45279 0.86698 0.76463 0.0
C175 C 0.37755 0.88335 0.69124 0.0
C176 C 0.4766 0.92815 0.6243 0.0
O177 O 0.46896 0.93383 0.68826 0.0
O178 O 0.46243 0.90082 0.59846 0.0
C179 C 0.44527 0.94476 0.88401 0.0
O180 O 0.42768 0.94869 0.83526 0.0
C181 C 0.44093 0.84044 0.73222 0.0
Zn182 Zn 0.10563 0.54523 0.64047 0.0
Zn183 Zn 0.07423 0.53351 0.75068 0.0
O184 O 0.09311 0.50328 0.74571 0.0
O185 O 0.12993 0.52569 0.66089 0.0
O186 O 0.04738 0.52255 0.84796 0.0
O187 O 0.12518 0.58966 0.63634 0.0
O188 O 0.10385 0.58273 0.74833 0.0
C189 C 0.11522 0.50397 0.70696 0.0
C190 C 0.04502 0.51741 0.59685 0.0
O191 O 0.04203 0.52153 0.6663 0.0
O192 O 0.0711 0.52349 0.57121 0.0
C193 C 0.03086 0.4944 0.86971 0.0
O194 O 0.03221 0.47253 0.83107 0.0
C195 C 0.12072 0.60079 0.69535 0.0
Zn196 Zn 0.44552 0.54288 0.64476 0.0
Zn197 Zn 0.45341 0.52479 0.76146 0.0
O198 O 0.48868 0.57166 0.7494 0.0
O199 O 0.48757 0.57796 0.62804 0.0
O200 O 0.46106 0.51048 0.86569 0.0
O201 O 0.4116 0.55052 0.6732 0.0
O202 O 0.4075 0.5163 0.75691 0.0
C203 C 0.50063 0.58816 0.69049 0.0
C204 C 0.4436 0.48827 0.6184 0.0
O205 O 0.45604 0.4954 0.68344 0.0
O206 O 0.43279 0.50408 0.58959 0.0
C207 C 0.47659 0.49636 0.87271 0.0
O208 O 0.48789 0.49067 0.81193 0.0
C209 C 0.39515 0.52938 0.71933 0.0
Zn210 Zn 0.54461 0.76366 0.74159 0.0
Zn211 Zn 0.5732 0.78224 0.62641 0.0
O212 O 0.56346 0.736 0.64086 0.0
O213 O 0.5518 0.72887 0.76049 0.0
O214 O 0.59506 0.79648 0.5225 0.0
O215 O 0.50336 0.75572 0.70736 0.0
O216 O 0.53619 0.79128 0.62988 0.0
C217 C 0.55764 0.71947 0.70023 0.0
C218 C 0.59816 0.81904 0.76805 0.0
O219 O 0.6044 0.81184 0.70418 0.0
O220 O 0.57118 0.80322 0.79513 0.0
C221 C 0.62464 0.81236 0.51542 0.0
O222 O 0.64182 0.81995 0.57625 0.0
C223 C 0.50989 0.77806 0.66348 0.0
Zn224 Zn 0.19782 0.78854 0.75232 0.0
Zn225 Zn 0.18175 0.79498 0.63186 0.0
O226 O 0.22991 0.82628 0.642 0.0
O227 O 0.236 0.82891 0.76405 0.0
O228 O 0.16802 0.80301 0.52791 0.0
O229 O 0.20027 0.75102 0.73289 0.0
O230 O 0.16928 0.74793 0.64103 0.0
C231 C 0.24706 0.8388 0.69978 0.0
C232 C 0.1461 0.79255 0.77154 0.0
O233 O 0.15421 0.8029 0.70503 0.0
O234 O 0.16021 0.78093 0.80513 0.0
C235 C 0.18169 0.8303 0.49967 0.0
O236 O 0.20562 0.8525 0.53551 0.0
C237 C 0.17994 0.7349 0.68466 0.0
Zn238 Zn 0.21261 0.42235 0.73904 0.0
Zn239 Zn 0.20442 0.39882 0.62188 0.0
O240 O 0.17303 0.41523 0.6375 0.0
O241 O 0.17054 0.4153 0.76016 0.0
O242 O 0.19415 0.37629 0.51789 0.0
O243 O 0.24584 0.46419 0.70997 0.0
O244 O 0.25128 0.43423 0.62782 0.0
C245 C 0.16039 0.41802 0.69754 0.0
C246 C 0.21198 0.36908 0.76117 0.0
O247 O 0.1984 0.36495 0.6979 0.0
O248 O 0.22607 0.39593 0.78942 0.0
C249 C 0.1656 0.35804 0.50119 0.0
O250 O 0.14432 0.35473 0.55 0.0
C251 C 0.2628 0.45977 0.66478 0.0
C252 C 0.1739 0.32978 0.3921 0.0
C253 C 0.1557 0.34048 0.42841 0.0
C254 C 0.16342 0.31149 0.32601 0.0
C255 C 0.13466 0.30381 0.29259 0.0
H256 H 0.19612 0.33506 0.41566 0.0
H257 H 0.17819 0.30379 0.30024 0.0
S258 S 0.07845 0.32646 0.36456 0.0
N259 N 0.10744 0.34188 0.42518 0.0
N260 N 0.08831 0.30854 0.30155 0.0
C261 C 0.11651 0.31467 0.32811 0.0
C262 C 0.12685 0.33268 0.39569 0.0
C263 C 0.62266 0.80769 0.37398 0.0
C264 C 0.63986 0.8214 0.43969 0.0
C265 C 0.6368 0.81482 0.30269 0.0
C266 C 0.66884 0.83619 0.29334 0.0
H267 H 0.59807 0.79087 0.37752 0.0
H268 H 0.62235 0.80323 0.25444 0.0
S269 S 0.72425 0.87992 0.44689 0.0
N270 N 0.69079 0.85839 0.49014 0.0
N271 N 0.7171 0.87174 0.35681 0.0
C272 C 0.68622 0.85054 0.35846 0.0
C273 C 0.67185 0.84317 0.4312 0.0
C274 C 0.19228 0.86382 0.38603 0.0
C275 C 0.17099 0.83795 0.42838 0.0
C276 C 0.18316 0.87312 0.32096 0.0
C277 C 0.15213 0.8574 0.29545 0.0
H278 H 0.2164 0.87715 0.40323 0.0
H279 H 0.2007 0.89321 0.29096 0.0
S280 S 0.08697 0.78808 0.38572 0.0
N281 N 0.11728 0.79644 0.43949 0.0
N282 N 0.09999 0.81426 0.31798 0.0
C283 C 0.13048 0.83142 0.33714 0.0
C284 C 0.13994 0.82159 0.40311 0.0
C285 C 0.33549 0.17996 0.65835 0.0
C286 C 0.34402 0.15942 0.62527 0.0
C287 C 0.31765 0.17206 0.72509 0.0
C288 C 0.30831 0.14367 0.76234 0.0
H289 H 0.34214 0.20201 0.63176 0.0
H290 H 0.31165 0.18855 0.74841 0.0
S291 S 0.32509 0.08207 0.69974 0.0
N292 N 0.34164 0.10947 0.63554 0.0
N293 N 0.30916 0.09512 0.76047 0.0
C294 C 0.31701 0.1232 0.73 0.0
C295 C 0.33454 0.13093 0.66177 0.0
C296 C 0.79421 0.16565 0.66116 0.0
C297 C 0.80779 0.16189 0.59548 0.0
C298 C 0.80141 0.15882 0.73261 0.0
C299 C 0.82248 0.14774 0.74221 0.0
H300 H 0.77797 0.17418 0.65764 0.0
H301 H 0.79027 0.16237 0.78085 0.0
S302 S 0.86419 0.13312 0.58861 0.0
N303 N 0.84327 0.14579 0.5452 0.0
N304 N 0.85658 0.13302 0.67877 0.0
C305 C 0.83605 0.1436 0.677 0.0
C306 C 0.8288 0.15063 0.60412 0.0
C307 C 0.81606 0.64803 0.7494 0.0
C308 C 0.83404 0.68065 0.75808 0.0
C309 C 0.81022 0.63368 0.67835 0.0
C310 C 0.82185 0.65122 0.61224 0.0
H311 H 0.8061 0.63326 0.798 0.0
H312 H 0.79594 0.60861 0.67528 0.0
S313 S 0.87162 0.73729 0.6032 0.0
N314 N 0.86442 0.72992 0.69351 0.0
N315 N 0.85344 0.70321 0.56066 0.0
C316 C 0.84034 0.68384 0.62006 0.0
C317 C 0.84644 0.69844 0.69254 0.0
C318 C 0.98019 0.44676 0.03415 0.0
C319 C 0.96862 0.46517 0.06486 0.0
C320 C 0.00013 0.45654 0.9717 0.0
C321 C 0.01009 0.48556 0.93729 0.0
H322 H 0.97368 0.42432 0.05841 0.0
H323 H 0.00803 0.44117 0.95068 0.0
S324 S 0.98706 0.54311 0.99597 0.0
N325 N 0.96873 0.51409 0.05564 0.0
N326 N 0.00668 0.53277 0.93918 0.0
C327 C -0.00109 0.50443 0.96754 0.0
C328 C 0.97806 0.49416 0.03077 0.0
C329 C 0.48502 0.49245 0.08574 0.0
C330 C 0.49837 0.47327 0.09439 0.0
C331 C 0.47751 0.49927 1.01461 0.0
C332 C 0.48315 0.48743 0.9483 0.0
H333 H 0.48045 0.50262 0.13445 0.0
H334 H 0.46768 0.51444 1.01168 0.0
S335 S 0.5163 0.43474 0.93907 0.0
N336 N 0.51581 0.4416 0.02954 0.0
N337 N 0.50193 0.45435 0.89656 0.0
C338 C 0.49598 0.46773 0.95609 0.0
C339 C 0.50349 0.46068 0.02866 0.0
C340 C 0.49044 0.98933 0.05959 0.0
C341 C 0.47052 -0.00137 0.09268 0.0
C342 C 0.48197 0.97126 0.99324 0.0
C343 C 0.45359 0.96244 0.95639 0.0
H344 H 0.51249 -0.00442 0.08582 0.0
H345 H 0.498 0.96463 0.96998 0.0
S346 S 0.39336 0.98113 1.01925 0.0
N347 N 0.42108 -0.00252 0.08292 0.0
N348 N 0.40563 0.96444 0.95865 0.0
C349 C 0.43368 0.97185 0.98872 0.0
C350 C 0.44201 0.98966 0.05661 0.0
C351 C 0.19304 0.32208 0.93676 0.0
C352 C 0.17569 0.29171 0.90878 0.0
C353 C 0.20797 0.34716 0.8879 0.0
C354 C 0.20551 0.34266 0.80963 0.0
H355 H 0.19321 0.32676 0.99611 0.0
H356 H 0.21905 0.37035 0.91193 0.0
S357 S 0.17075 0.26728 0.70951 0.0
N358 N 0.16313 0.25797 0.79892 0.0
N359 N 0.19049 0.30563 0.70713 0.0
C360 C 0.19182 0.31231 0.78146 0.0
C361 C 0.17707 0.28664 0.83127 0.0
C362 C 0.61902 0.83883 0.89495 0.0
C363 C 0.62303 0.84176 0.81663 0.0
C364 C 0.64442 0.85377 0.94315 0.0
C365 C 0.67453 0.87231 0.91452 0.0
H366 H 0.59663 0.82281 0.91926 0.0
H367 H 0.64069 0.84865 1.00256 0.0
S368 S 0.69542 0.89502 0.71504 0.0
N369 N 0.65778 0.86974 0.71354 0.0
N370 N 0.70578 0.89869 0.80413 0.0
C371 C 0.67806 0.87906 0.83705 0.0
C372 C 0.65219 0.86344 0.78793 0.0
C373 C 0.10791 0.8037 0.94035 0.0
C374 C 0.09817 0.82391 0.91314 0.0
C375 C 0.12049 0.79084 0.89201 0.0
C376 C 0.12429 0.79829 0.81506 0.0
H377 H 0.10786 0.7995 1.0 0.0
H378 H 0.12958 0.77703 0.91656 0.0
S379 S 0.09464 0.84333 0.71348 0.0
N380 N 0.08692 0.84558 0.80261 0.0
N381 N 0.11136 0.82173 0.71162 0.0
C382 C 0.11093 0.81515 0.78574 0.0
C383 C 0.09765 0.82794 0.83501 0.0
C384 C 0.32517 0.2025 0.26943 0.0
C385 C 0.35553 0.21538 0.24159 0.0
C386 C 0.3 0.19175 0.22044 0.0
C387 C 0.30445 0.19303 0.14213 0.0
H388 H 0.32053 0.19817 0.32889 0.0
H389 H 0.27687 0.17951 0.24447 0.0
S390 S 0.37976 0.23442 0.0423 0.0
N391 N 0.38916 0.23672 0.13184 0.0
N392 N 0.34139 0.21519 0.0397 0.0
C393 C 0.33476 0.21017 0.11409 0.0
C394 C 0.36051 0.22173 0.16404 0.0
C395 C 0.78215 0.1264 0.09327 0.0
C396 C 0.79812 0.11197 0.12179 0.0
C397 C 0.76669 0.13638 0.14132 0.0
C398 C 0.76718 0.13267 0.21951 0.0
H399 H 0.78328 0.13189 0.03414 0.0
H400 H 0.7567 0.14948 0.11731 0.0
S401 S 0.79892 0.08945 0.32042 0.0
N402 N 0.80812 0.08885 0.23167 0.0
N403 N 0.77967 0.10862 0.32196 0.0
C404 C 0.7799 0.11514 0.24784 0.0
C405 C 0.79523 0.10449 0.19886 0.0
C406 C 0.8541 0.66129 0.10939 0.0
C407 C 0.86884 0.69162 0.13843 0.0
C408 C 0.84267 0.63574 0.1572 0.0
C409 C 0.84528 0.63974 0.23559 0.0
H410 H 0.84927 0.65713 0.04993 0.0
H411 H 0.82936 0.6128 0.13255 0.0
S412 S 0.88959 0.71417 0.33825 0.0
N413 N 0.8916 0.72425 0.24933 0.0
N414 N 0.8692 0.67583 0.33916 0.0
C415 C 0.86338 0.66978 0.26469 0.0
C416 C 0.87547 0.69589 0.21597 0.0
C417 C 0.97004 0.50472 0.51225 0.0
C418 C 0.97009 0.49241 0.44112 0.0
C419 C -0.00585 0.51227 0.56309 0.0
C420 C 0.01913 0.50788 0.54429 0.0
H421 H 0.95086 0.50786 0.52963 0.0
H422 H -0.00679 0.52171 0.61726 0.0
S423 S 0.03051 0.47659 0.36494 0.0
N424 N -0.00247 0.47663 0.35399 0.0
N425 N 0.04279 0.49062 0.44981 0.0
C426 C 0.01982 0.49613 0.47283 0.0
C427 C -0.00464 0.48858 0.42098 0.0
C428 C 0.44579 0.46867 0.492 0.0
C429 C 0.44684 0.46597 0.57046 0.0
C430 C 0.45773 0.45488 0.44438 0.0
C431 C 0.47079 0.43777 0.47383 0.0
H432 H 0.43839 0.48382 0.46712 0.0
H433 H 0.45924 0.46006 0.38499 0.0
S434 S 0.46882 0.41507 0.67337 0.0
N435 N 0.45472 0.43897 0.67416 0.0
N436 N 0.47645 0.41206 0.58459 0.0
C437 C 0.46727 0.43078 0.55119 0.0
C438 C 0.45553 0.44526 0.59974 0.0
C439 C 0.51213 0.98438 0.60257 0.0
C440 C 0.49744 0.95387 0.5747 0.0
C441 C 0.52406 0.00964 0.55377 0.0
C442 C 0.52133 0.00513 0.47555 0.0
H443 H 0.51237 0.9888 0.66218 0.0
H444 H 0.53303 0.0326 0.57787 0.0
S445 S 0.49325 0.93051 0.37485 0.0
N446 N 0.48727 0.92089 0.4644 0.0
N447 N 0.50918 0.9687 0.37265 0.0
C448 C 0.51044 0.97511 0.44715 0.0
C449 C 0.49865 0.94932 0.49688 0.0
C450 C 0.13281 0.1461 0.09918 0.0
C451 C 0.1269 0.16196 0.04272 0.0
C452 C 0.1506 0.13195 0.08395 0.0
C453 C 0.16386 0.13402 1.01234 0.0
H454 H 0.12395 0.14492 0.15535 0.0
H455 H 0.15517 0.12052 0.12988 0.0
S456 S 0.15484 0.17318 0.84568 0.0
N457 N 0.1347 0.17843 0.91214 0.0
N458 N 0.16928 0.15294 0.88472 0.0
C459 C 0.15778 0.14962 0.95539 0.0
C460 C 0.13902 0.16333 0.97035 0.0
C461 C 0.85778 0.0095 0.99833 0.0
C462 C 0.84213 0.02622 0.98667 0.0
C463 C 0.8419 0.97874 0.02433 0.0
C464 C 0.81005 0.96399 0.04227 0.0
H465 H 0.88253 0.02037 0.98762 0.0
H466 H 0.85456 0.96628 0.0298 0.0
S467 S 0.75868 -0.00186 0.02462 0.0
N468 N 0.7931 0.02599 0.99651 0.0
N469 N 0.76346 0.96851 0.0468 0.0
C470 C 0.79428 0.98068 0.03223 0.0
C471 C 0.81024 0.01166 1.00389 0.0
C472 C 0.96872 0.81371 0.02486 0.0
C473 C 0.95062 0.82785 1.01246 0.0
C474 C -0.00122 0.83058 0.05461 0.0
C475 C 0.01212 0.86239 0.07198 0.0
H476 H 0.95925 0.78914 1.0138 0.0
H477 H 0.01206 0.81881 0.06132 0.0
S478 S 0.97448 0.91033 0.04955 0.0
N479 N 0.94789 0.87531 1.02099 0.0
N480 N 0.00506 0.90743 0.07394 0.0
C481 C -0.00565 0.87685 0.05946 0.0
C482 C 0.96348 0.85951 0.03043 0.0
C483 C 0.7812 0.77543 0.95244 0.0
C484 C 0.78667 0.76426 1.0196 0.0
C485 C 0.7658 0.79257 0.95275 0.0
C486 C 0.75553 0.79939 1.02031 0.0
H487 H 0.79112 0.77329 0.90017 0.0
H488 H 0.7642 0.80255 0.9001 0.0
S489 S 0.75593 0.7674 0.2077 0.0
N490 N 0.77423 0.75491 0.15276 0.0
N491 N 0.7459 0.78783 0.15325 0.0
C492 C 0.7572 0.78487 0.08617 0.0
C493 C 0.77261 0.76709 0.08579 0.0
C494 C 0.19033 0.98807 0.9689 0.0
C495 C 0.18128 0.97188 0.03764 0.0
C496 C 0.21185 0.01987 0.9663 0.0
C497 C 0.22517 0.03668 0.03238 0.0
H498 H 0.17907 0.97669 0.91691 0.0
H499 H 0.21581 0.0317 0.91298 0.0
S500 S 0.21684 0.00323 0.2232 0.0
N501 N 0.19259 0.9735 0.17071 0.0
N502 N 0.2336 0.03335 0.16607 0.0
C503 C 0.21988 0.01986 0.09987 0.0
C504 C 0.19771 0.9874 0.10251 0.0
C505 C 0.97115 0.1959 0.08875 0.0
C506 C 0.95491 0.1895 1.01992 0.0
C507 C 0.00367 0.21181 0.09123 0.0
C508 C 0.02115 0.22211 0.02504 0.0
H509 H 0.95877 0.18643 0.14084 0.0
H510 H 0.01496 0.21353 0.14446 0.0
S511 S -0.00978 0.21999 0.83385 0.0
N512 N 0.95892 0.2008 0.88651 0.0
N513 N 0.02014 0.23141 0.89108 0.0
C514 C 0.00532 0.21988 0.95742 0.0
C515 C 0.97215 0.20339 0.95483 0.0
C516 C 0.83629 0.52119 0.35751 0.0
C517 C 0.80414 0.50556 0.37222 0.0
C518 C 0.85092 0.50514 0.33042 0.0
C519 C 0.83394 0.47286 0.31809 0.0
H520 H 0.85008 0.54617 0.36451 0.0
H521 H 0.87584 0.51792 0.32154 0.0
S522 S 0.74935 0.4212 0.34852 0.0
N523 N 0.75578 0.45617 0.37164 0.0
N524 N 0.78346 0.4258 0.32345 0.0
C525 C 0.80186 0.45698 0.33314 0.0
C526 C 0.78693 0.47336 0.35955 0.0
C527 C 0.52504 0.3399 0.41619 0.0
C528 C 0.52475 0.35244 0.34509 0.0
C529 C 0.50743 0.3079 0.4303 0.0
C530 C 0.48975 0.28734 0.37319 0.0
H531 H 0.53764 0.35503 0.46273 0.0
H532 H 0.5073 0.29929 0.48618 0.0
S533 S 0.48217 0.30762 0.17682 0.0
N534 N 0.50573 0.34138 0.21698 0.0
N535 N 0.4736 0.28109 0.2424 0.0
C536 C 0.49024 0.29928 0.30117 0.0
C537 C 0.50754 0.33188 0.28732 0.0
C538 C 0.62621 0.12312 0.33933 0.0
C539 C 0.60919 0.13854 0.32903 0.0
C540 C 0.65755 0.13945 0.36058 0.0
C541 C 0.67312 0.17185 0.37099 0.0
H542 H 0.61499 0.09809 0.33325 0.0
H543 H 0.66996 0.12673 0.36605 0.0
S544 S 0.63906 0.22308 0.3507 0.0
N545 N 0.60993 0.18785 0.33229 0.0
N546 N 0.6694 0.21883 0.36879 0.0
C547 C 0.65644 0.18757 0.36045 0.0
C548 C 0.62435 0.17085 0.34033 0.0
C549 C 0.4398 0.09489 0.28862 0.0
C550 C 0.44598 0.08488 0.35666 0.0
C551 C 0.42554 0.11311 0.2878 0.0
C552 C 0.41719 0.12218 0.35505 0.0
H553 H 0.44845 0.09107 0.2362 0.0
H554 H 0.42355 0.12227 0.23428 0.0
S555 S 0.41932 0.0935 0.54552 0.0
N556 N 0.43571 0.07875 0.49116 0.0
N557 N 0.40949 0.11363 0.48943 0.0
C558 C 0.41921 0.10862 0.42225 0.0
C559 C 0.43348 0.08979 0.42307 0.0
C560 C 0.84626 0.30191 0.39036 0.0
C561 C 0.83629 0.28452 0.32395 0.0
C562 C 0.86357 0.33435 0.38817 0.0
C563 C 0.8714 0.35069 0.31945 0.0
H564 H 0.8389 0.29064 0.44445 0.0
H565 H 0.8691 0.34666 0.4412 0.0
S566 S 0.85767 0.31554 0.12992 0.0
N567 N 0.84074 0.28559 0.1875 0.0
N568 N 0.87279 0.34677 0.18384 0.0
C569 C 0.86453 0.33348 0.25281 0.0
C570 C 0.84709 0.30033 0.25497 0.0
C571 C 0.64158 0.527 0.29095 0.0
C572 C 0.62554 0.51922 0.35941 0.0
C573 C 0.67405 0.54471 0.28922 0.0
C574 C 0.69171 0.55508 0.35593 0.0
H575 H 0.62931 0.51732 0.23877 0.0
H576 H 0.68535 0.54816 0.23527 0.0
S577 S 0.66016 0.5486 0.54767 0.0
N578 N 0.62916 0.52918 0.49409 0.0
N579 N 0.69032 0.56188 0.49063 0.0
C580 C 0.67575 0.55088 0.42375 0.0
C581 C 0.6426 0.53307 0.42551 0.0
C582 C 0.46004 0.77739 0.68749 0.0
C583 C 0.49219 0.79446 0.67334 0.0
C584 C 0.44369 0.79223 0.71079 0.0
C585 C 0.45912 0.82452 0.72342 0.0
H586 H 0.44747 0.75234 0.68089 0.0
H587 H 0.41874 0.7784 0.71831 0.0
S588 S 0.54337 0.87967 0.69655 0.0
N589 N 0.53895 0.84538 0.67451 0.0
N590 N 0.5084 0.87313 0.71969 0.0
C591 C 0.49136 0.84178 0.71059 0.0
C592 C 0.50783 0.82681 0.68499 0.0
C593 C 0.14861 0.68234 0.6271 0.0
C594 C 0.16521 0.7007 0.68868 0.0
C595 C 0.13352 0.64991 0.63123 0.0
C596 C 0.13389 0.63465 0.69753 0.0
H597 H 0.14755 0.69306 0.57512 0.0
H598 H 0.12154 0.63661 0.58174 0.0
S599 S 0.17251 0.67174 0.87601 0.0
N600 N 0.18026 0.70106 0.81945 0.0
N601 N 0.15125 0.6399 0.82637 0.0
C602 C 0.14956 0.65251 0.76016 0.0
C603 C 0.16548 0.68561 0.75584 0.0
C604 C 0.34804 0.51954 0.64644 0.0
C605 C 0.36092 0.51439 0.71208 0.0
C606 C 0.31627 0.50145 0.62982 0.0
C607 C 0.29635 0.47788 0.67862 0.0
H608 H 0.36275 0.53687 0.6058 0.0
H609 H 0.3073 0.50587 0.57872 0.0
S610 S 0.3171 0.4566 0.86029 0.0
N611 N 0.35039 0.48494 0.82771 0.0
N612 N 0.2906 0.45141 0.79708 0.0
C613 C 0.30846 0.47326 0.74559 0.0
C614 C 0.34076 0.49142 0.76227 0.0
C615 C 0.14254 0.45045 0.63312 0.0
C616 C 0.14088 0.4328 0.69602 0.0
C617 C 0.1331 0.47256 0.63748 0.0
C618 C 0.12123 0.4777 0.70456 0.0
H619 H 0.15335 0.44896 0.58165 0.0
H620 H 0.13616 0.48651 0.5881 0.0
S621 S 0.1056 0.43268 0.88017 0.0
N622 N 0.12185 0.41827 0.82412 0.0
N623 N 0.10368 0.45996 0.83142 0.0
C624 C 0.11634 0.45802 0.7655 0.0
C625 C 0.12625 0.43551 0.76138 0.0
C626 C 0.52963 0.63725 0.76359 0.0
C627 C 0.52476 0.62142 0.69528 0.0
C628 C 0.54334 0.66964 0.76523 0.0
C629 C 0.55248 0.68735 0.69858 0.0
H630 H 0.52035 0.62453 0.81535 0.0
H631 H 0.54443 0.68048 0.81877 0.0
S632 S 0.55347 0.6576 0.50839 0.0
N633 N 0.53688 0.62628 0.56173 0.0
N634 N 0.56205 0.6872 0.5649 0.0
C635 C 0.55169 0.67219 0.63144 0.0
C636 C 0.53796 0.63917 0.62982 0.0
C637 C 0.29592 0.85859 0.62636 0.0
C638 C 0.28114 0.85903 0.69303 0.0
C639 C 0.32773 0.86869 0.6254 0.0
C640 C 0.34598 0.87959 0.69107 0.0
H641 H 0.28251 0.84804 0.57601 0.0
H642 H 0.33755 0.86599 0.57356 0.0
S643 S 0.31992 0.89345 0.87474 0.0
N644 N 0.28822 0.87731 0.82243 0.0
N645 N 0.3481 0.89602 0.82054 0.0
C646 C 0.33225 0.88368 0.75571 0.0
C647 C 0.2998 0.87351 0.75663 0.0
loop_
_geom_bond_atom_site_label_1
_geom_bond_atom_site_label_2
_geom_bond_distance
_geom_bond_site_symmetry_2
_ccdc_geom_bond_type
Zn0 O3 2.031 . S
Zn0 O5 2.049 . S
Zn0 O10 2.067 . S
Zn1 O2 1.962 . S
Zn1 O4 1.986 . S
Zn1 O6 1.996 . S
Zn1 O9 1.943 . S
O2 Zn1 1.962 . S
O2 C7 1.254 . S
O3 Zn0 2.031 . S
O3 C7 1.269 1_556 S
O4 Zn1 1.986 . S
O4 C11 1.262 . S
O5 Zn0 2.049 . S
O5 C13 1.260 1_556 S
O6 Zn1 1.996 . S
O6 C13 1.257 . S
C7 O2 1.254 . S
C7 O3 1.269 1_554 S
C8 O9 1.249 1_556 S
C8 O10 1.270 . S
O9 Zn1 1.943 . S
O9 C8 1.249 1_554 S
O10 Zn0 2.067 . S
O10 C8 1.270 . S
C11 O4 1.262 . S
C11 O12 1.232 . S
O12 C11 1.232 . S
C13 O5 1.260 1_554 S
C13 O6 1.257 . S
Zn14 O17 2.031 . S
Zn14 O19 2.049 . S
Zn14 O24 2.067 . S
Zn15 O16 1.962 . S
Zn15 O18 1.986 . S
Zn15 O20 1.996 . S
Zn15 O23 1.943 . S
O16 Zn15 1.962 . S
O16 C21 1.254 . S
O17 Zn14 2.031 . S
O17 C21 1.269 1_556 S
O18 Zn15 1.986 . S
O18 C25 1.262 . S
O19 Zn14 2.049 . S
O19 C27 1.260 1_556 S
O20 Zn15 1.996 . S
O20 C27 1.257 . S
C21 O16 1.254 . S
C21 O17 1.269 1_554 S
C22 O23 1.249 1_556 S
C22 O24 1.270 . S
O23 Zn15 1.943 . S
O23 C22 1.249 1_554 S
O24 Zn14 2.067 . S
O24 C22 1.270 . S
C25 O18 1.262 . S
C25 O26 1.232 . S
O26 C25 1.232 . S
C27 O19 1.260 1_554 S
C27 O20 1.257 . S
Zn28 O31 2.031 . S
Zn28 O33 2.049 . S
Zn28 O38 2.067 . S
Zn29 O30 1.962 . S
Zn29 O32 1.986 . S
Zn29 O34 1.996 . S
Zn29 O37 1.943 . S
O30 Zn29 1.962 . S
O30 C35 1.254 . S
O31 Zn28 2.031 . S
O31 C35 1.269 1_556 S
O32 Zn29 1.986 . S
O32 C39 1.262 . S
O33 Zn28 2.049 . S
O33 C41 1.260 1_556 S
O34 Zn29 1.996 . S
O34 C41 1.257 . S
C35 O30 1.254 . S
C35 O31 1.269 1_554 S
C36 O37 1.249 1_556 S
C36 O38 1.270 . S
O37 Zn29 1.943 . S
O37 C36 1.249 1_554 S
O38 Zn28 2.067 . S
O38 C36 1.270 . S
C39 O32 1.262 . S
C39 O40 1.232 . S
O40 C39 1.232 . S
C41 O33 1.260 1_554 S
C41 O34 1.257 . S
Zn42 O45 2.031 . S
Zn42 O47 2.049 . S
Zn42 O52 2.067 . S
Zn43 O44 1.962 . S
Zn43 O46 1.986 . S
Zn43 O48 1.996 . S
Zn43 O51 1.943 . S
O44 Zn43 1.962 . S
O44 C49 1.254 . S
O45 Zn42 2.031 . S
O45 C49 1.269 1_554 S
O46 Zn43 1.986 . S
O46 C53 1.262 . S
O47 Zn42 2.049 . S
O47 C55 1.260 1_554 S
O48 Zn43 1.996 . S
O48 C55 1.257 . S
C49 O44 1.254 . S
C49 O45 1.269 1_556 S
C50 O51 1.249 1_554 S
C50 O52 1.270 . S
O51 Zn43 1.943 . S
O51 C50 1.249 1_556 S
O52 Zn42 2.067 . S
O52 C50 1.270 . S
C53 O46 1.262 . S
C53 O54 1.232 . S
O54 C53 1.232 . S
C55 O47 1.260 1_556 S
C55 O48 1.257 . S
Zn56 O59 2.031 . S
Zn56 O61 2.049 . S
Zn56 O66 2.067 . S
Zn57 O58 1.962 . S
Zn57 O60 1.986 . S
Zn57 O62 1.996 . S
Zn57 O65 1.943 . S
O58 Zn57 1.962 . S
O58 C63 1.254 . S
O59 Zn56 2.031 . S
O59 C63 1.269 1_554 S
O60 Zn57 1.986 . S
O60 C67 1.262 . S
O61 Zn56 2.049 . S
O61 C69 1.260 1_554 S
O62 Zn57 1.996 . S
O62 C69 1.257 . S
C63 O58 1.254 . S
C63 O59 1.269 1_556 S
C64 O65 1.249 1_554 S
C64 O66 1.270 . S
O65 Zn57 1.943 . S
O65 C64 1.249 1_556 S
O66 Zn56 2.067 . S
O66 C64 1.270 . S
C67 O60 1.262 . S
C67 O68 1.232 . S
O68 C67 1.232 . S
C69 O61 1.260 1_556 S
C69 O62 1.257 . S
Zn70 O73 2.031 . S
Zn70 O75 2.049 . S
Zn70 O80 2.067 . S
Zn71 O72 1.962 . S
Zn71 O74 1.986 . S
Zn71 O76 1.996 . S
Zn71 O79 1.943 . S
O72 Zn71 1.962 . S
O72 C77 1.254 . S
O73 Zn70 2.031 . S
O73 C77 1.269 1_554 S
O74 Zn71 1.986 . S
O74 C81 1.262 . S
O75 Zn70 2.049 . S
O75 C83 1.260 1_554 S
O76 Zn71 1.996 . S
O76 C83 1.257 . S
C77 O72 1.254 . S
C77 O73 1.269 1_556 S
C78 O79 1.249 1_554 S
C78 O80 1.270 . S
O79 Zn71 1.943 . S
O79 C78 1.249 1_556 S
O80 Zn70 2.067 . S
O80 C78 1.270 . S
C81 O74 1.262 . S
C81 O82 1.232 . S
O82 C81 1.232 . S
C83 O75 1.260 1_556 S
C83 O76 1.257 . S
Zn84 O87 2.031 . S
Zn84 O89 2.049 . S
Zn84 O94 2.067 . S
Zn85 O86 1.962 . S
Zn85 O88 1.986 . S
Zn85 O90 1.996 . S
Zn85 O93 1.943 . S
O86 Zn85 1.962 . S
O86 C91 1.254 . S
O87 Zn84 2.031 . S
O87 C91 1.269 . S
O88 Zn85 1.986 . S
O88 C95 1.262 . S
O89 Zn84 2.049 . S
O89 C97 1.260 . S
O90 Zn85 1.996 . S
O90 C97 1.257 . S
C91 O86 1.254 . S
C91 O87 1.269 . S
C92 O93 1.249 . S
C92 O94 1.270 . S
O93 Zn85 1.943 . S
O93 C92 1.249 . S
O94 Zn84 2.067 . S
O94 C92 1.270 . S
C95 O88 1.262 . S
C95 O96 1.232 . S
O96 C95 1.232 . S
C97 O89 1.260 . S
C97 O90 1.257 . S
Zn98 O101 2.031 . S
Zn98 O103 2.049 . S
Zn98 O108 2.067 . S
Zn99 O100 1.962 . S
Zn99 O102 1.986 . S
Zn99 O104 1.996 . S
Zn99 O107 1.943 . S
O100 Zn99 1.962 . S
O100 C105 1.254 . S
O101 Zn98 2.031 . S
O101 C105 1.269 . S
O102 Zn99 1.986 . S
O102 C109 1.262 . S
O103 Zn98 2.049 . S
O103 C111 1.260 . S
O104 Zn99 1.996 . S
O104 C111 1.257 . S
C105 O100 1.254 . S
C105 O101 1.269 . S
C106 O107 1.249 . S
C106 O108 1.270 . S
O107 Zn99 1.943 . S
O107 C106 1.249 . S
O108 Zn98 2.067 . S
O108 C106 1.270 . S
C109 O102 1.262 . S
C109 O110 1.232 . S
O110 C109 1.232 . S
C111 O103 1.260 . S
C111 O104 1.257 . S
Zn112 O115 2.031 . S
Zn112 O117 2.049 . S
Zn112 O122 2.067 . S
Zn113 O114 1.962 . S
Zn113 O116 1.986 . S
Zn113 O118 1.996 . S
Zn113 O121 1.943 . S
O114 Zn113 1.962 . S
O114 C119 1.254 . S
O115 Zn112 2.031 . S
O115 C119 1.269 . S
O116 Zn113 1.986 . S
O116 C123 1.262 . S
O117 Zn112 2.049 . S
O117 C125 1.260 . S
O118 Zn113 1.996 . S
O118 C125 1.257 . S
C119 O114 1.254 . S
C119 O115 1.269 . S
C120 O121 1.249 . S
C120 O122 1.270 . S
O121 Zn113 1.943 . S
O121 C120 1.249 . S
O122 Zn112 2.067 . S
O122 C120 1.270 . S
C123 O116 1.262 . S
C123 O124 1.232 . S
O124 C123 1.232 . S
C125 O117 1.260 . S
C125 O118 1.257 . S
Zn126 O129 2.031 . S
Zn126 O131 2.049 . S
Zn126 O136 2.067 . S
Zn127 O128 1.962 . S
Zn127 O130 1.986 . S
Zn127 O132 1.996 . S
Zn127 O135 1.943 . S
O128 Zn127 1.962 . S
O128 C133 1.254 . S
O129 Zn126 2.031 . S
O129 C133 1.269 . S
O130 Zn127 1.986 . S
O130 C137 1.262 . S
O131 Zn126 2.049 . S
O131 C139 1.260 . S
O132 Zn127 1.996 . S
O132 C139 1.257 . S
C133 O128 1.254 . S
C133 O129 1.269 . S
C134 O135 1.249 . S
C134 O136 1.270 . S
O135 Zn127 1.943 . S
O135 C134 1.249 . S
O136 Zn126 2.067 . S
O136 C134 1.270 . S
C137 O130 1.262 . S
C137 O138 1.232 . S
O138 C137 1.232 . S
C139 O131 1.260 . S
C139 O132 1.257 . S
Zn140 O143 2.031 . S
Zn140 O145 2.049 . S
Zn140 O150 2.067 . S
Zn141 O142 1.962 . S
Zn141 O144 1.986 . S
Zn141 O146 1.996 . S
Zn141 O149 1.943 . S
O142 Zn141 1.962 . S
O142 C147 1.254 . S
O143 Zn140 2.031 . S
O143 C147 1.269 . S
O144 Zn141 1.986 . S
O144 C151 1.262 . S
O145 Zn140 2.049 . S
O145 C153 1.260 . S
O146 Zn141 1.996 . S
O146 C153 1.257 . S
C147 O142 1.254 . S
C147 O143 1.269 . S
C148 O149 1.249 . S
C148 O150 1.270 . S
O149 Zn141 1.943 . S
O149 C148 1.249 . S
O150 Zn140 2.067 . S
O150 C148 1.270 . S
C151 O144 1.262 . S
C151 O152 1.232 . S
O152 C151 1.232 . S
C153 O145 1.260 . S
C153 O146 1.257 . S
Zn154 O157 2.031 . S
Zn154 O159 2.049 . S
Zn154 O164 2.067 . S
Zn155 O156 1.962 . S
Zn155 O158 1.986 . S
Zn155 O160 1.996 . S
Zn155 O163 1.943 . S
O156 Zn155 1.962 . S
O156 C161 1.254 . S
O157 Zn154 2.031 . S
O157 C161 1.269 . S
O158 Zn155 1.986 . S
O158 C165 1.262 . S
O159 Zn154 2.049 . S
O159 C167 1.260 . S
O160 Zn155 1.996 . S
O160 C167 1.257 . S
C161 O156 1.254 . S
C161 O157 1.269 . S
C162 O163 1.249 . S
C162 O164 1.270 . S
O163 Zn155 1.943 . S
O163 C162 1.249 . S
O164 Zn154 2.067 . S
O164 C162 1.270 . S
C165 O158 1.262 . S
C165 O166 1.232 . S
O166 C165 1.232 . S
C167 O159 1.260 . S
C167 O160 1.257 . S
Zn168 O171 2.031 . S
Zn168 O173 2.049 . S
Zn168 O178 2.067 . S
Zn169 O170 1.962 . S
Zn169 O172 1.986 . S
Zn169 O174 1.996 . S
Zn169 O177 1.943 . S
O170 Zn169 1.962 . S
O170 C175 1.254 . S
O171 Zn168 2.031 . S
O171 C175 1.269 . S
O172 Zn169 1.986 . S
O172 C179 1.262 . S
O173 Zn168 2.049 . S
O173 C181 1.260 . S
O174 Zn169 1.996 . S
O174 C181 1.257 . S
C175 O170 1.254 . S
C175 O171 1.269 . S
C176 O177 1.249 . S
C176 O178 1.270 . S
O177 Zn169 1.943 . S
O177 C176 1.249 . S
O178 Zn168 2.067 . S
O178 C176 1.270 . S
C179 O172 1.262 . S
C179 O180 1.232 . S
O180 C179 1.232 . S
C181 O173 1.260 . S
C181 O174 1.257 . S
Zn182 O185 2.031 . S
Zn182 O187 2.049 . S
Zn182 O192 2.067 . S
Zn183 O184 1.962 . S
Zn183 O186 1.986 . S
Zn183 O188 1.996 . S
Zn183 O191 1.943 . S
O184 Zn183 1.962 . S
O184 C189 1.254 . S
O185 Zn182 2.031 . S
O185 C189 1.269 . S
O186 Zn183 1.986 . S
O186 C193 1.262 . S
O187 Zn182 2.049 . S
O187 C195 1.260 . S
O188 Zn183 1.996 . S
O188 C195 1.257 . S
C189 O184 1.254 . S
C189 O185 1.269 . S
C190 O191 1.249 . S
C190 O192 1.270 . S
O191 Zn183 1.943 . S
O191 C190 1.249 . S
O192 Zn182 2.067 . S
O192 C190 1.270 . S
C193 O186 1.262 . S
C193 O194 1.232 . S
O194 C193 1.232 . S
C195 O187 1.260 . S
C195 O188 1.257 . S
Zn196 O199 2.031 . S
Zn196 O201 2.049 . S
Zn196 O206 2.067 . S
Zn197 O198 1.962 . S
Zn197 O200 1.986 . S
Zn197 O202 1.996 . S
Zn197 O205 1.943 . S
O198 Zn197 1.962 . S
O198 C203 1.254 . S
O199 Zn196 2.031 . S
O199 C203 1.269 . S
O200 Zn197 1.986 . S
O200 C207 1.262 . S
O201 Zn196 2.049 . S
O201 C209 1.260 . S
O202 Zn197 1.996 . S
O202 C209 1.257 . S
C203 O198 1.254 . S
C203 O199 1.269 . S
C204 O205 1.249 . S
C204 O206 1.270 . S
O205 Zn197 1.943 . S
O205 C204 1.249 . S
O206 Zn196 2.067 . S
O206 C204 1.270 . S
C207 O200 1.262 . S
C207 O208 1.232 . S
O208 C207 1.232 . S
C209 O201 1.260 . S
C209 O202 1.257 . S
Zn210 O213 2.031 . S
Zn210 O215 2.049 . S
Zn210 O220 2.067 . S
Zn211 O212 1.962 . S
Zn211 O214 1.986 . S
Zn211 O216 1.996 . S
Zn211 O219 1.943 . S
O212 Zn211 1.962 . S
O212 C217 1.254 . S
O213 Zn210 2.031 . S
O213 C217 1.269 . S
O214 Zn211 1.986 . S
O214 C221 1.262 . S
O215 Zn210 2.049 . S
O215 C223 1.260 . S
O216 Zn211 1.996 . S
O216 C223 1.257 . S
C217 O212 1.254 . S
C217 O213 1.269 . S
C218 O219 1.249 . S
C218 O220 1.270 . S
O219 Zn211 1.943 . S
O219 C218 1.249 . S
O220 Zn210 2.067 . S
O220 C218 1.270 . S
C221 O214 1.262 . S
C221 O222 1.232 . S
O222 C221 1.232 . S
C223 O215 1.260 . S
C223 O216 1.257 . S
Zn224 O227 2.031 . S
Zn224 O229 2.049 . S
Zn224 O234 2.067 . S
Zn225 O226 1.962 . S
Zn225 O228 1.986 . S
Zn225 O230 1.996 . S
Zn225 O233 1.943 . S
O226 Zn225 1.962 . S
O226 C231 1.254 . S
O227 Zn224 2.031 . S
O227 C231 1.269 . S
O228 Zn225 1.986 . S
O228 C235 1.262 . S
O229 Zn224 2.049 . S
O229 C237 1.260 . S
O230 Zn225 1.996 . S
O230 C237 1.257 . S
C231 O226 1.254 . S
C231 O227 1.269 . S
C232 O233 1.249 . S
C232 O234 1.270 . S
O233 Zn225 1.943 . S
O233 C232 1.249 . S
O234 Zn224 2.067 . S
O234 C232 1.270 . S
C235 O228 1.262 . S
C235 O236 1.232 . S
O236 C235 1.232 . S
C237 O229 1.260 . S
C237 O230 1.257 . S
Zn238 O241 2.031 . S
Zn238 O243 2.049 . S
Zn238 O248 2.067 . S
Zn239 O240 1.962 . S
Zn239 O242 1.986 . S
Zn239 O244 1.996 . S
Zn239 O247 1.943 . S
O240 Zn239 1.962 . S
O240 C245 1.254 . S
O241 Zn238 2.031 . S
O241 C245 1.269 . S
O242 Zn239 1.986 . S
O242 C249 1.262 . S
O243 Zn238 2.049 . S
O243 C251 1.260 . S
O244 Zn239 1.996 . S
O244 C251 1.257 . S
C245 O240 1.254 . S
C245 O241 1.269 . S
C246 O247 1.249 . S
C246 O248 1.270 . S
O247 Zn239 1.943 . S
O247 C246 1.249 . S
O248 Zn238 2.067 . S
O248 C246 1.270 . S
C249 O242 1.262 . S
C249 O250 1.232 . S
O250 C249 1.232 . S
C251 O243 1.260 . S
C251 O244 1.257 . S
C252 C253 1.369 . S
C252 C254 1.419 . S
C252 H256 0.930 . S
C253 C252 1.369 . S
C253 C262 1.429 . S
C254 C252 1.419 . S
C254 C255 1.363 . S
C254 H257 0.929 . S
C255 C254 1.363 . S
C255 C261 1.428 . S
H256 C252 0.930 . S
H257 C254 0.929 . S
S258 N259 1.613 . S
S258 N260 1.610 . S
N259 S258 1.613 . S
N259 C262 1.350 . S
N260 S258 1.610 . S
N260 C261 1.351 . S
C261 C255 1.428 . S
C261 N260 1.351 . S
C261 C262 1.434 . S
C262 C253 1.429 . S
C262 N259 1.350 . S
C262 C261 1.434 . S
C263 C264 1.369 . S
C263 C265 1.419 . S
C263 H267 0.930 . S
C264 C263 1.369 . S
C264 C273 1.429 . S
C265 C263 1.419 . S
C265 C266 1.363 . S
C265 H268 0.929 . S
C266 C265 1.363 . S
C266 C272 1.428 . S
H267 C263 0.930 . S
H268 C265 0.929 . S
S269 N270 1.613 . S
S269 N271 1.610 . S
N270 S269 1.613 . S
N270 C273 1.350 . S
N271 S269 1.610 . S
N271 C272 1.351 . S
C272 C266 1.428 . S
C272 N271 1.351 . S
C272 C273 1.434 . S
C273 C264 1.429 . S
C273 N270 1.350 . S
C273 C272 1.434 . S
C274 C275 1.369 . S
C274 C276 1.419 . S
C274 H278 0.930 . S
C275 C274 1.369 . S
C275 C284 1.429 . S
C276 C274 1.419 . S
C276 C277 1.363 . S
C276 H279 0.929 . S
C277 C276 1.363 . S
C277 C283 1.428 . S
H278 C274 0.930 . S
H279 C276 0.929 . S
S280 N281 1.613 . S
S280 N282 1.610 . S
N281 S280 1.613 . S
N281 C284 1.350 . S
N282 S280 1.610 . S
N282 C283 1.351 . S
C283 C277 1.428 . S
C283 N282 1.351 . S
C283 C284 1.434 . S
C284 C275 1.429 . S
C284 N281 1.350 . S
C284 C283 1.434 . S
C285 C286 1.369 . S
C285 C287 1.419 . S
C285 H289 0.930 . S
C286 C285 1.369 . S
C286 C295 1.429 . S
C287 C285 1.419 . S
C287 C288 1.363 . S
C287 H290 0.929 . S
C288 C287 1.363 . S
C288 C294 1.428 . S
H289 C285 0.930 . S
H290 C287 0.929 . S
S291 N292 1.613 . S
S291 N293 1.610 . S
N292 S291 1.613 . S
N292 C295 1.350 . S
N293 S291 1.610 . S
N293 C294 1.351 . S
C294 C288 1.428 . S
C294 N293 1.351 . S
C294 C295 1.434 . S
C295 C286 1.429 . S
C295 N292 1.350 . S
C295 C294 1.434 . S
C296 C297 1.369 . S
C296 C298 1.419 . S
C296 H300 0.930 . S
C297 C296 1.369 . S
C297 C306 1.429 . S
C298 C296 1.419 . S
C298 C299 1.363 . S
C298 H301 0.929 . S
C299 C298 1.363 . S
C299 C305 1.428 . S
H300 C296 0.930 . S
H301 C298 0.929 . S
S302 N303 1.613 . S
S302 N304 1.610 . S
N303 S302 1.613 . S
N303 C306 1.350 . S
N304 S302 1.610 . S
N304 C305 1.351 . S
C305 C299 1.428 . S
C305 N304 1.351 . S
C305 C306 1.434 . S
C306 C297 1.429 . S
C306 N303 1.350 . S
C306 C305 1.434 . S
C307 C308 1.369 . S
C307 C309 1.419 . S
C307 H311 0.930 . S
C308 C307 1.369 . S
C308 C317 1.429 . S
C309 C307 1.419 . S
C309 C310 1.363 . S
C309 H312 0.929 . S
C310 C309 1.363 . S
C310 C316 1.428 . S
H311 C307 0.930 . S
H312 C309 0.929 . S
S313 N314 1.613 . S
S313 N315 1.610 . S
N314 S313 1.613 . S
N314 C317 1.350 . S
N315 S313 1.610 . S
N315 C316 1.351 . S
C316 C310 1.428 . S
C316 N315 1.351 . S
C316 C317 1.434 . S
C317 C308 1.429 . S
C317 N314 1.350 . S
C317 C316 1.434 . S
C318 C319 1.369 . S
C318 C320 1.419 1_654 S
C318 H322 0.930 . S
C319 C318 1.369 . S
C319 C328 1.429 . S
C320 C318 1.419 1_456 S
C320 C321 1.363 . S
C320 H323 0.929 . S
C321 C320 1.363 . S
C321 C327 1.428 . S
H322 C318 0.930 . S
H323 C320 0.929 . S
S324 N325 1.613 1_455 S
S324 N326 1.610 1_554 S
N325 S324 1.613 1_655 S
N325 C328 1.350 . S
N326 S324 1.610 1_556 S
N326 C327 1.351 . S
C327 C321 1.428 . S
C327 N326 1.351 . S
C327 C328 1.434 1_456 S
C328 C319 1.429 . S
C328 N325 1.350 . S
C328 C327 1.434 1_654 S
C329 C330 1.369 . S
C329 C331 1.413 1_554 S
C329 H333 0.930 . S
C330 C329 1.369 . S
C330 C339 1.429 1_554 S
C331 C329 1.413 1_556 S
C331 C332 1.369 . S
C331 H334 0.929 1_556 S
C332 C331 1.369 . S
C332 C338 1.428 . S
H333 C329 0.930 . S
H334 C331 0.929 1_554 S
S335 N336 1.613 . S
S335 N337 1.610 . S
N336 S335 1.613 . S
N336 C339 1.350 . S
N337 S335 1.610 . S
N337 C338 1.351 . S
C338 C332 1.428 . S
C338 N337 1.351 . S
C338 C339 1.434 . S
C339 C330 1.429 1_556 S
C339 N336 1.350 . S
C339 C338 1.434 . S
C340 C341 1.369 . S
C340 C342 1.419 1_544 S
C340 H344 0.930 . S
C341 C340 1.369 . S
C341 C350 1.429 . S
C342 C340 1.419 1_566 S
C342 C343 1.363 . S
C342 H345 0.929 . S
C343 C342 1.363 . S
C343 C349 1.428 . S
H344 C340 0.930 . S
H345 C342 0.929 . S
S346 N347 1.613 1_556 S
S346 N348 1.610 1_545 S
N347 S346 1.613 1_554 S
N347 C350 1.350 . S
N348 S346 1.610 1_565 S
N348 C349 1.351 . S
C349 C343 1.428 . S
C349 N348 1.351 . S
C349 C350 1.434 1_566 S
C350 C341 1.429 . S
C350 N347 1.350 . S
C350 C349 1.434 1_544 S
C351 C352 1.369 . S
C351 C353 1.419 . S
C351 H355 0.930 . S
C352 C351 1.369 . S
C352 C361 1.429 . S
C353 C351 1.419 . S
C353 C354 1.363 . S
C353 H356 0.929 . S
C354 C353 1.363 . S
C354 C360 1.428 . S
H355 C351 0.930 . S
H356 C353 0.929 . S
S357 N358 1.613 . S
S357 N359 1.610 . S
N358 S357 1.613 . S
N358 C361 1.350 . S
N359 S357 1.610 . S
N359 C360 1.351 . S
C360 C354 1.428 . S
C360 N359 1.351 . S
C360 C361 1.434 . S
C361 C352 1.429 . S
C361 N358 1.350 . S
C361 C360 1.434 . S
C362 C363 1.369 . S
C362 C364 1.419 . S
C362 H366 0.930 . S
C363 C362 1.369 . S
C363 C372 1.429 . S
C364 C362 1.419 . S
C364 C365 1.363 . S
C364 H367 0.929 . S
C365 C364 1.363 . S
C365 C371 1.428 . S
H366 C362 0.930 . S
H367 C364 0.929 . S
S368 N369 1.613 . S
S368 N370 1.610 . S
N369 S368 1.613 . S
N369 C372 1.350 . S
N370 S368 1.610 . S
N370 C371 1.351 . S
C371 C365 1.428 . S
C371 N370 1.351 . S
C371 C372 1.434 . S
C372 C363 1.429 . S
C372 N369 1.350 . S
C372 C371 1.434 . S
C373 C374 1.369 . S
C373 C375 1.419 . S
C373 H377 0.930 . S
C374 C373 1.369 . S
C374 C383 1.429 . S
C375 C373 1.419 . S
C375 C376 1.363 . S
C375 H378 0.929 . S
C376 C375 1.363 . S
C376 C382 1.428 . S
H377 C373 0.930 . S
H378 C375 0.929 . S
S379 N380 1.613 . S
S379 N381 1.610 . S
N380 S379 1.613 . S
N380 C383 1.350 . S
N381 S379 1.610 . S
N381 C382 1.351 . S
C382 C376 1.428 . S
C382 N381 1.351 . S
C382 C383 1.434 . S
C383 C374 1.429 . S
C383 N380 1.350 . S
C383 C382 1.434 . S
C384 C385 1.369 . S
C384 C386 1.419 . S
C384 H388 0.930 . S
C385 C384 1.369 . S
C385 C394 1.429 . S
C386 C384 1.419 . S
C386 C387 1.363 . S
C386 H389 0.929 . S
C387 C386 1.363 . S
C387 C393 1.428 . S
H388 C384 0.930 . S
H389 C386 0.929 . S
S390 N391 1.613 . S
S390 N392 1.610 . S
N391 S390 1.613 . S
N391 C394 1.350 . S
N392 S390 1.610 . S
N392 C393 1.351 . S
C393 C387 1.428 . S
C393 N392 1.351 . S
C393 C394 1.434 . S
C394 C385 1.429 . S
C394 N391 1.350 . S
C394 C393 1.434 . S
C395 C396 1.369 . S
C395 C397 1.419 . S
C395 H399 0.930 . S
C396 C395 1.369 . S
C396 C405 1.429 . S
C397 C395 1.419 . S
C397 C398 1.363 . S
C397 H400 0.929 . S
C398 C397 1.363 . S
C398 C404 1.428 . S
H399 C395 0.930 . S
H400 C397 0.929 . S
S401 N402 1.613 . S
S401 N403 1.610 . S
N402 S401 1.613 . S
N402 C405 1.350 . S
N403 S401 1.610 . S
N403 C404 1.351 . S
C404 C398 1.428 . S
C404 N403 1.351 . S
C404 C405 1.434 . S
C405 C396 1.429 . S
C405 N402 1.350 . S
C405 C404 1.434 . S
C406 C407 1.369 . S
C406 C408 1.419 . S
C406 H410 0.930 . S
C407 C406 1.369 . S
C407 C416 1.429 . S
C408 C406 1.419 . S
C408 C409 1.363 . S
C408 H411 0.929 . S
C409 C408 1.363 . S
C409 C415 1.428 . S
H410 C406 0.930 . S
H411 C408 0.929 . S
S412 N413 1.613 . S
S412 N414 1.610 . S
N413 S412 1.613 . S
N413 C416 1.350 . S
N414 S412 1.610 . S
N414 C415 1.351 . S
C415 C409 1.428 . S
C415 N414 1.351 . S
C415 C416 1.434 . S
C416 C407 1.429 . S
C416 N413 1.350 . S
C416 C415 1.434 . S
C417 C418 1.369 . S
C417 C419 1.419 1_655 S
C417 H421 0.930 . S
C418 C417 1.369 . S
C418 C427 1.429 . S
C419 C417 1.419 1_455 S
C419 C420 1.363 . S
C419 H422 0.929 . S
C420 C419 1.363 . S
C420 C426 1.428 . S
H421 C417 0.930 . S
H422 C419 0.929 . S
S423 N424 1.613 1_455 S
S423 N425 1.610 . S
N424 S423 1.613 1_655 S
N424 C427 1.350 . S
N425 S423 1.610 . S
N425 C426 1.351 . S
C426 C420 1.428 . S
C426 N425 1.351 . S
C426 C427 1.434 1_455 S
C427 C418 1.429 . S
C427 N424 1.350 . S
C427 C426 1.434 1_655 S
C428 C429 1.369 . S
C428 C430 1.419 . S
C428 H432 0.930 . S
C429 C428 1.369 . S
C429 C438 1.429 . S
C430 C428 1.419 . S
C430 C431 1.363 . S
C430 H433 0.929 . S
C431 C430 1.363 . S
C431 C437 1.428 . S
H432 C428 0.930 . S
H433 C430 0.929 . S
S434 N435 1.613 . S
S434 N436 1.610 . S
N435 S434 1.613 . S
N435 C438 1.350 . S
N436 S434 1.610 . S
N436 C437 1.351 . S
C437 C431 1.428 . S
C437 N436 1.351 . S
C437 C438 1.434 . S
C438 C429 1.429 . S
C438 N435 1.350 . S
C438 C437 1.434 . S
C439 C440 1.369 1_545 S
C439 C441 1.419 . S
C439 H443 0.930 . S
C440 C439 1.369 1_565 S
C440 C449 1.429 . S
C441 C439 1.419 . S
C441 C442 1.363 . S
C441 H444 0.929 . S
C442 C441 1.363 . S
C442 C448 1.428 1_545 S
H443 C439 0.930 . S
H444 C441 0.929 . S
S445 N446 1.613 . S
S445 N447 1.610 . S
N446 S445 1.613 . S
N446 C449 1.350 . S
N447 S445 1.610 . S
N447 C448 1.351 . S
C448 C442 1.428 1_565 S
C448 N447 1.351 . S
C448 C449 1.434 . S
C449 C440 1.429 . S
C449 N446 1.350 . S
C449 C448 1.434 . S
C450 C451 1.369 . S
C450 C452 1.419 . S
C450 H454 0.930 . S
C451 C450 1.369 . S
C451 C460 1.429 1_554 S
C452 C450 1.419 . S
C452 C453 1.363 1_554 S
C452 H455 0.929 . S
C453 C452 1.363 1_556 S
C453 C459 1.428 . S
H454 C450 0.930 . S
H455 C452 0.929 . S
S456 N457 1.613 . S
S456 N458 1.610 . S
N457 S456 1.613 . S
N457 C460 1.350 . S
N458 S456 1.610 . S
N458 C459 1.351 . S
C459 C453 1.428 . S
C459 N458 1.351 . S
C459 C460 1.434 . S
C460 C451 1.429 1_556 S
C460 N457 1.350 . S
C460 C459 1.434 . S
C461 C462 1.369 . S
C461 C463 1.419 1_545 S
C461 H465 0.930 . S
C462 C461 1.369 . S
C462 C471 1.429 1_556 S
C463 C461 1.419 1_565 S
C463 C464 1.363 1_556 S
C463 H466 0.929 . S
C464 C463 1.363 1_554 S
C464 C470 1.428 . S
H465 C461 0.930 . S
H466 C463 0.929 . S
S467 N468 1.613 . S
S467 N469 1.610 1_545 S
N468 S467 1.613 . S
N468 C471 1.350 . S
N469 S467 1.610 1_565 S
N469 C470 1.351 . S
C470 C464 1.428 . S
C470 N469 1.351 . S
C470 C471 1.434 1_565 S
C471 C462 1.429 1_554 S
C471 N468 1.350 . S
C471 C470 1.434 1_545 S
C472 C473 1.369 . S
C472 C474 1.419 1_655 S
C472 H476 0.930 . S
C473 C472 1.369 . S
C473 C482 1.429 1_556 S
C474 C472 1.419 1_455 S
C474 C475 1.363 1_556 S
C474 H477 0.929 . S
C475 C474 1.363 1_554 S
C475 C481 1.428 . S
H476 C472 0.930 . S
H477 C474 0.929 . S
S478 N479 1.613 . S
S478 N480 1.610 1_655 S
N479 S478 1.613 . S
N479 C482 1.350 . S
N480 S478 1.610 1_455 S
N480 C481 1.351 . S
C481 C475 1.428 . S
C481 N480 1.351 . S
C481 C482 1.434 1_455 S
C482 C473 1.429 1_554 S
C482 N479 1.350 . S
C482 C481 1.434 1_655 S
C483 C484 1.369 . S
C483 C485 1.419 . S
C483 H487 0.930 . S
C484 C483 1.369 . S
C484 C493 1.429 1_556 S
C485 C483 1.419 . S
C485 C486 1.363 1_556 S
C485 H488 0.929 . S
C486 C485 1.363 1_554 S
C486 C492 1.428 . S
H487 C483 0.930 . S
H488 C485 0.929 . S
S489 N490 1.613 . S
S489 N491 1.610 . S
N490 S489 1.613 . S
N490 C493 1.350 . S
N491 S489 1.610 . S
N491 C492 1.351 . S
C492 C486 1.428 . S
C492 N491 1.351 . S
C492 C493 1.434 . S
C493 C484 1.429 1_554 S
C493 N490 1.350 . S
C493 C492 1.434 . S
C494 C495 1.369 1_556 S
C494 C496 1.419 1_565 S
C494 H498 0.930 . S
C495 C494 1.369 1_554 S
C495 C504 1.429 . S
C496 C494 1.419 1_545 S
C496 C497 1.363 . S
C496 H499 0.929 . S
C497 C496 1.363 . S
C497 C503 1.428 1_556 S
H498 C494 0.930 . S
H499 C496 0.929 . S
S500 N501 1.613 1_545 S
S500 N502 1.610 . S
N501 S500 1.613 1_565 S
N501 C504 1.350 . S
N502 S500 1.610 . S
N502 C503 1.351 . S
C503 C497 1.428 1_554 S
C503 N502 1.351 . S
C503 C504 1.434 1_545 S
C504 C495 1.429 . S
C504 N501 1.350 . S
C504 C503 1.434 1_565 S
C505 C506 1.369 1_554 S
C505 C507 1.419 1_655 S
C505 H509 0.930 . S
C506 C505 1.369 1_556 S
C506 C515 1.429 . S
C507 C505 1.419 1_455 S
C507 C508 1.363 . S
C507 H510 0.929 . S
C508 C507 1.363 . S
C508 C514 1.428 1_554 S
H509 C505 0.930 . S
H510 C507 0.929 . S
S511 N512 1.613 1_455 S
S511 N513 1.610 . S
N512 S511 1.613 1_655 S
N512 C515 1.350 . S
N513 S511 1.610 . S
N513 C514 1.351 . S
C514 C508 1.428 1_556 S
C514 N513 1.351 . S
C514 C515 1.434 1_455 S
C515 C506 1.429 . S
C515 N512 1.350 . S
C515 C514 1.434 1_655 S
C516 C517 1.369 . S
C516 C518 1.419 . S
C516 H520 0.930 . S
C517 C516 1.369 . S
C517 C526 1.429 . S
C518 C516 1.419 . S
C518 C519 1.363 . S
C518 H521 0.929 . S
C519 C518 1.363 . S
C519 C525 1.428 . S
H520 C516 0.930 . S
H521 C518 0.929 . S
S522 N523 1.613 . S
S522 N524 1.610 . S
N523 S522 1.613 . S
N523 C526 1.350 . S
N524 S522 1.610 . S
N524 C525 1.351 . S
C525 C519 1.428 . S
C525 N524 1.351 . S
C525 C526 1.434 . S
C526 C517 1.429 . S
C526 N523 1.350 . S
C526 C525 1.434 . S
C527 C528 1.369 . S
C527 C529 1.419 . S
C527 H531 0.930 . S
C528 C527 1.369 . S
C528 C537 1.429 . S
C529 C527 1.419 . S
C529 C530 1.363 . S
C529 H532 0.929 . S
C530 C529 1.363 . S
C530 C536 1.428 . S
H531 C527 0.930 . S
H532 C529 0.929 . S
S533 N534 1.613 . S
S533 N535 1.610 . S
N534 S533 1.613 . S
N534 C537 1.350 . S
N535 S533 1.610 . S
N535 C536 1.351 . S
C536 C530 1.428 . S
C536 N535 1.351 . S
C536 C537 1.434 . S
C537 C528 1.429 . S
C537 N534 1.350 . S
C537 C536 1.434 . S
C538 C539 1.369 . S
C538 C540 1.419 . S
C538 H542 0.930 . S
C539 C538 1.369 . S
C539 C548 1.429 . S
C540 C538 1.419 . S
C540 C541 1.363 . S
C540 H543 0.929 . S
C541 C540 1.363 . S
C541 C547 1.428 . S
H542 C538 0.930 . S
H543 C540 0.929 . S
S544 N545 1.613 . S
S544 N546 1.610 . S
N545 S544 1.613 . S
N545 C548 1.350 . S
N546 S544 1.610 . S
N546 C547 1.351 . S
C547 C541 1.428 . S
C547 N546 1.351 . S
C547 C548 1.434 . S
C548 C539 1.429 . S
C548 N545 1.350 . S
C548 C547 1.434 . S
C549 C550 1.369 . S
C549 C551 1.419 . S
C549 H553 0.930 . S
C550 C549 1.369 . S
C550 C559 1.429 . S
C551 C549 1.419 . S
C551 C552 1.363 . S
C551 H554 0.929 . S
C552 C551 1.363 . S
C552 C558 1.428 . S
H553 C549 0.930 . S
H554 C551 0.929 . S
S555 N556 1.613 . S
S555 N557 1.610 . S
N556 S555 1.613 . S
N556 C559 1.350 . S
N557 S555 1.610 . S
N557 C558 1.351 . S
C558 C552 1.428 . S
C558 N557 1.351 . S
C558 C559 1.434 . S
C559 C550 1.429 . S
C559 N556 1.350 . S
C559 C558 1.434 . S
C560 C561 1.369 . S
C560 C562 1.419 . S
C560 H564 0.930 . S
C561 C560 1.369 . S
C561 C570 1.429 . S
C562 C560 1.419 . S
C562 C563 1.363 . S
C562 H565 0.929 . S
C563 C562 1.363 . S
C563 C569 1.428 . S
H564 C560 0.930 . S
H565 C562 0.929 . S
S566 N567 1.613 . S
S566 N568 1.610 . S
N567 S566 1.613 . S
N567 C570 1.350 . S
N568 S566 1.610 . S
N568 C569 1.351 . S
C569 C563 1.428 . S
C569 N568 1.351 . S
C569 C570 1.434 . S
C570 C561 1.429 . S
C570 N567 1.350 . S
C570 C569 1.434 . S
C571 C572 1.369 . S
C571 C573 1.419 . S
C571 H575 0.930 . S
C572 C571 1.369 . S
C572 C581 1.429 . S
C573 C571 1.419 . S
C573 C574 1.363 . S
C573 H576 0.929 . S
C574 C573 1.363 . S
C574 C580 1.428 . S
H575 C571 0.930 . S
H576 C573 0.929 . S
S577 N578 1.613 . S
S577 N579 1.610 . S
N578 S577 1.613 . S
N578 C581 1.350 . S
N579 S577 1.610 . S
N579 C580 1.351 . S
C580 C574 1.428 . S
C580 N579 1.351 . S
C580 C581 1.434 . S
C581 C572 1.429 . S
C581 N578 1.350 . S
C581 C580 1.434 . S
C582 C583 1.369 . S
C582 C584 1.419 . S
C582 H586 0.930 . S
C583 C582 1.369 . S
C583 C592 1.429 . S
C584 C582 1.419 . S
C584 C585 1.363 . S
C584 H587 0.929 . S
C585 C584 1.363 . S
C585 C591 1.428 . S
H586 C582 0.930 . S
H587 C584 0.929 . S
S588 N589 1.613 . S
S588 N590 1.610 . S
N589 S588 1.613 . S
N589 C592 1.350 . S
N590 S588 1.610 . S
N590 C591 1.351 . S
C591 C585 1.428 . S
C591 N590 1.351 . S
C591 C592 1.434 . S
C592 C583 1.429 . S
C592 N589 1.350 . S
C592 C591 1.434 . S
C593 C594 1.369 . S
C593 C595 1.419 . S
C593 H597 0.930 . S
C594 C593 1.369 . S
C594 C603 1.429 . S
C595 C593 1.419 . S
C595 C596 1.363 . S
C595 H598 0.929 . S
C596 C595 1.363 . S
C596 C602 1.428 . S
H597 C593 0.930 . S
H598 C595 0.929 . S
S599 N600 1.613 . S
S599 N601 1.610 . S
N600 S599 1.613 . S
N600 C603 1.350 . S
N601 S599 1.610 . S
N601 C602 1.351 . S
C602 C596 1.428 . S
C602 N601 1.351 . S
C602 C603 1.434 . S
C603 C594 1.429 . S
C603 N600 1.350 . S
C603 C602 1.434 . S
C604 C605 1.369 . S
C604 C606 1.419 . S
C604 H608 0.930 . S
C605 C604 1.369 . S
C605 C614 1.429 . S
C606 C604 1.419 . S
C606 C607 1.363 . S
C606 H609 0.929 . S
C607 C606 1.363 . S
C607 C613 1.428 . S
H608 C604 0.930 . S
H609 C606 0.929 . S
S610 N611 1.613 . S
S610 N612 1.610 . S
N611 S610 1.613 . S
N611 C614 1.350 . S
N612 S610 1.610 . S
N612 C613 1.351 . S
C613 C607 1.428 . S
C613 N612 1.351 . S
C613 C614 1.434 . S
C614 C605 1.429 . S
C614 N611 1.350 . S
C614 C613 1.434 . S
C615 C616 1.369 . S
C615 C617 1.419 . S
C615 H619 0.930 . S
C616 C615 1.369 . S
C616 C625 1.429 . S
C617 C615 1.419 . S
C617 C618 1.363 . S
C617 H620 0.929 . S
C618 C617 1.363 . S
C618 C624 1.428 . S
H619 C615 0.930 . S
H620 C617 0.929 . S
S621 N622 1.613 . S
S621 N623 1.610 . S
N622 S621 1.613 . S
N622 C625 1.350 . S
N623 S621 1.610 . S
N623 C624 1.351 . S
C624 C618 1.428 . S
C624 N623 1.351 . S
C624 C625 1.434 . S
C625 C616 1.429 . S
C625 N622 1.350 . S
C625 C624 1.434 . S
C626 C627 1.369 . S
C626 C628 1.419 . S
C626 H630 0.930 . S
C627 C626 1.369 . S
C627 C636 1.429 . S
C628 C626 1.419 . S
C628 C629 1.363 . S
C628 H631 0.929 . S
C629 C628 1.363 . S
C629 C635 1.428 . S
H630 C626 0.930 . S
H631 C628 0.929 . S
S632 N633 1.613 . S
S632 N634 1.610 . S
N633 S632 1.613 . S
N633 C636 1.350 . S
N634 S632 1.610 . S
N634 C635 1.351 . S
C635 C629 1.428 . S
C635 N634 1.351 . S
C635 C636 1.434 . S
C636 C627 1.429 . S
C636 N633 1.350 . S
C636 C635 1.434 . S
C637 C638 1.369 . S
C637 C639 1.419 . S
C637 H641 0.930 . S
C638 C637 1.369 . S
C638 C647 1.429 . S
C639 C637 1.419 . S
C639 C640 1.363 . S
C639 H642 0.929 . S
C640 C639 1.363 . S
C640 C646 1.428 . S
H641 C637 0.930 . S
H642 C639 0.929 . S
S643 N644 1.613 . S
S643 N645 1.610 . S
N644 S643 1.613 . S
N644 C647 1.350 . S
N645 S643 1.610 . S
N645 C646 1.351 . S
C646 C640 1.428 . S
C646 N645 1.351 . S
C646 C647 1.434 . S
C647 C638 1.429 . S
C647 N644 1.350 . S
C647 C646 1.434 . S
C253 C249 1.600 . S
C255 C11 1.600 . S
C264 C221 1.602 . S
C266 C25 1.602 . S
C275 C235 1.603 . S
C277 C39 1.603 . S
C286 C109 1.600 . S
C288 C53 1.601 . S
C297 C123 1.601 . S
C299 C67 1.602 . S
C308 C81 1.601 . S
C310 C95 1.601 . S
C319 C137 1.603 . S
C321 C193 1.602 . S
C330 C151 1.601 . S
C332 C207 1.600 . S
C341 C165 1.600 . S
C343 C179 1.600 . S
C352 C8 1.240 . S
C354 C246 1.246 . S
C363 C218 1.243 . S
C365 C22 1.239 . S
C374 C36 1.242 . S
C376 C232 1.247 . S
C385 C106 1.238 . S
C387 C50 1.242 . S
C396 C64 1.241 . S
C398 C120 1.240 . S
C407 C78 1.243 . S
C409 C92 1.246 . S
C418 C134 1.245 . S
C420 C190 1.245 . S
C429 C204 1.245 . S
C431 C148 1.239 . S
C440 C176 1.238 . S
C442 C162 1.242 . S
C451 C13 1.378 . S
C453 C55 1.389 . S
C462 C69 1.380 . S
C464 C27 1.390 . S
C473 C83 1.379 . S
C475 C41 1.385 . S
C484 C77 1.472 . S
C486 C21 1.472 . S
C495 C35 1.472 . S
C497 C49 1.469 . S
C506 C63 1.469 . S
C508 C7 1.470 . S
C517 C97 1.380 . S
C519 C139 1.384 . S
C528 C153 1.390 . S
C530 C111 1.379 . S
C539 C167 1.380 . S
C541 C125 1.383 . S
C550 C161 1.469 . S
C552 C105 1.472 . S
C561 C119 1.468 . S
C563 C133 1.470 . S
C572 C147 1.469 . S
C574 C91 1.472 . S
C583 C223 1.382 . S
C585 C181 1.390 . S
C594 C237 1.380 . S
C596 C195 1.384 . S
C605 C209 1.392 . S
C607 C251 1.381 . S
C616 C245 1.472 . S
C618 C189 1.472 . S
C627 C203 1.468 . S
C629 C217 1.471 . S
C638 C231 1.472 . S
C640 C175 1.471 . S
