# Generated by pormake.
# Topology atn, (4)-cn, num edge types: 1
# Building blocks:
#     Node 0, Type 0, BuildingBlock: TATPOV_clean_sbu_0, # of connection points: 4
#     Node 1, Type 0, BuildingBlock: TATPOV_clean_sbu_0, # of connection points: 4
#     Node 2, Type 0, BuildingBlock: TATPOV_clean_sbu_0, # of connection points: 4
#     Node 3, Type 0, BuildingBlock: TATPOV_clean_sbu_0, # of connection points: 4
#     Node 4, Type 0, BuildingBlock: TATPOV_clean_sbu_0, # of connection points: 4
#     Node 5, Type 0, BuildingBlock: TATPOV_clean_sbu_0, # of connection points: 4
#     Node 6, Type 0, BuildingBlock: TATPOV_clean_sbu_0, # of connection points: 4
#     Node 7, Type 0, BuildingBlock: TATPOV_clean_sbu_0, # of connection points: 4
#     Node 8, Type 0, BuildingBlock: TATPOV_clean_sbu_0, # of connection points: 4
#     Node 9, Type 0, BuildingBlock: TATPOV_clean_sbu_0, # of connection points: 4
#     Node 10, Type 0, BuildingBlock: TATPOV_clean_sbu_0, # of connection points: 4
#     Node 11, Type 0, BuildingBlock: TATPOV_clean_sbu_0, # of connection points: 4
#     Node 12, Type 0, BuildingBlock: TATPOV_clean_sbu_0, # of connection points: 4
#     Node 13, Type 0, BuildingBlock: TATPOV_clean_sbu_0, # of connection points: 4
#     Node 14, Type 0, BuildingBlock: TATPOV_clean_sbu_0, # of connection points: 4
#     Node 15, Type 0, BuildingBlock: TATPOV_clean_sbu_0, # of connection points: 4
#     Edge 16, Type (0, 0), BuildingBlock: ZUJKAS_clean_linker_0, # of connection points: 2
#     Edge 17, Type (0, 0), BuildingBlock: ZUJKAS_clean_linker_0, # of connection points: 2
#     Edge 18, Type (0, 0), BuildingBlock: ZUJKAS_clean_linker_0, # of connection points: 2
#     Edge 19, Type (0, 0), BuildingBlock: ZUJKAS_clean_linker_0, # of connection points: 2
#     Edge 20, Type (0, 0), BuildingBlock: ZUJKAS_clean_linker_0, # of connection points: 2
#     Edge 21, Type (0, 0), BuildingBlock: ZUJKAS_clean_linker_0, # of connection points: 2
#     Edge 22, Type (0, 0), BuildingBlock: ZUJKAS_clean_linker_0, # of connection points: 2
#     Edge 23, Type (0, 0), BuildingBlock: ZUJKAS_clean_linker_0, # of connection points: 2
#     Edge 24, Type (0, 0), BuildingBlock: ZUJKAS_clean_linker_0, # of connection points: 2
#     Edge 25, Type (0, 0), BuildingBlock: ZUJKAS_clean_linker_0, # of connection points: 2
#     Edge 26, Type (0, 0), BuildingBlock: ZUJKAS_clean_linker_0, # of connection points: 2
#     Edge 27, Type (0, 0), BuildingBlock: ZUJKAS_clean_linker_0, # of connection points: 2
#     Edge 28, Type (0, 0), BuildingBlock: ZUJKAS_clean_linker_0, # of connection points: 2
#     Edge 29, Type (0, 0), BuildingBlock: ZUJKAS_clean_linker_0, # of connection points: 2
#     Edge 30, Type (0, 0), BuildingBlock: ZUJKAS_clean_linker_0, # of connection points: 2
#     Edge 31, Type (0, 0), BuildingBlock: ZUJKAS_clean_linker_0, # of connection points: 2
#     Edge 32, Type (0, 0), BuildingBlock: ZUJKAS_clean_linker_0, # of connection points: 2
#     Edge 33, Type (0, 0), BuildingBlock: ZUJKAS_clean_linker_0, # of connection points: 2
#     Edge 34, Type (0, 0), BuildingBlock: ZUJKAS_clean_linker_0, # of connection points: 2
#     Edge 35, Type (0, 0), BuildingBlock: ZUJKAS_clean_linker_0, # of connection points: 2
#     Edge 36, Type (0, 0), BuildingBlock: ZUJKAS_clean_linker_0, # of connection points: 2
#     Edge 37, Type (0, 0), BuildingBlock: ZUJKAS_clean_linker_0, # of connection points: 2
#     Edge 38, Type (0, 0), BuildingBlock: ZUJKAS_clean_linker_0, # of connection points: 2
#     Edge 39, Type (0, 0), BuildingBlock: ZUJKAS_clean_linker_0, # of connection points: 2
#     Edge 40, Type (0, 0), BuildingBlock: ZUJKAS_clean_linker_0, # of connection points: 2
#     Edge 41, Type (0, 0), BuildingBlock: ZUJKAS_clean_linker_0, # of connection points: 2
#     Edge 42, Type (0, 0), BuildingBlock: ZUJKAS_clean_linker_0, # of connection points: 2
#     Edge 43, Type (0, 0), BuildingBlock: ZUJKAS_clean_linker_0, # of connection points: 2
#     Edge 44, Type (0, 0), BuildingBlock: ZUJKAS_clean_linker_0, # of connection points: 2
#     Edge 45, Type (0, 0), BuildingBlock: ZUJKAS_clean_linker_0, # of connection points: 2
#     Edge 46, Type (0, 0), BuildingBlock: ZUJKAS_clean_linker_0, # of connection points: 2
#     Edge 47, Type (0, 0), BuildingBlock: ZUJKAS_clean_linker_0, # of connection points: 2
# Relax obj value: 0.076
# Max RMSD: 0.103
# Mean RMSD: 0.103
data_MOF--net-atn--node1-TATPOV_clean_sbu_0--edge1-ZUJKAS_clean_linker_0
_symmetry_space_group_name_H-M    P1
_symmetry_Int_Tables_number       1
_symmetry_cell_setting            triclinic
loop_
_symmetry_equiv_pos_as_xyz
'x, y, z'
_cell_length_a     79.297742
_cell_length_b     79.262816
_cell_length_c     33.946337
_cell_angle_alpha  89.979374
_cell_angle_beta   89.952942
_cell_angle_gamma 90.016286
loop_
_atom_site_label
_atom_site_type_symbol
_atom_site_fract_x
_atom_site_fract_y
_atom_site_fract_z
_atom_type_partial_charge
Zn0 Zn 0.20271 0.34272 0.98205 0.0
Zn1 Zn 0.20741 0.37551 0.98963 0.0
O2 O 0.1909 0.37344 0.94242 0.0
O3 O 0.18685 0.34608 0.9374 0.0
O4 O 0.21069 0.40065 -0.00638 0.0
O5 O 0.19338 0.34169 0.03688 0.0
O6 O 0.19672 0.36914 0.04295 0.0
C7 C 0.18375 0.36091 0.92578 0.0
C8 C 0.23741 0.35156 0.97487 0.0
O9 O 0.23176 0.3663 0.98223 0.0
O10 O 0.22734 0.33923 0.97206 0.0
C11 C 0.21784 0.40866 0.96579 0.0
O12 O 0.22333 0.40025 0.93498 0.0
C13 C 0.19188 0.35503 0.05706 0.0
Zn14 Zn 0.65327 0.20363 -0.00474 0.0
Zn15 Zn 0.62109 0.20994 0.99299 0.0
O16 O 0.62588 0.19955 0.938 0.0
O17 O 0.65361 0.19875 0.93763 0.0
O18 O 0.59597 0.21411 -0.00572 0.0
O19 O 0.65 0.18438 0.0326 0.0
O20 O 0.62378 0.19305 0.03905 0.0
C21 C 0.63971 0.19659 0.9201 0.0
C22 C 0.64627 0.238 0.01292 0.0
O23 O 0.63146 0.23367 0.00236 0.0
O24 O 0.65784 0.22704 0.01514 0.0
C25 C 0.5864 0.21509 0.96432 0.0
O26 O 0.59296 0.2138 0.9289 0.0
C27 C 0.63575 0.18324 0.04911 0.0
Zn28 Zn 0.79551 0.65672 0.99201 0.0
Zn29 Zn 0.79066 0.62446 0.00108 0.0
O30 O 0.80363 0.62607 0.94813 0.0
O31 O 0.80404 0.65344 0.9373 0.0
O32 O 0.78763 0.59938 0.00781 0.0
O33 O 0.81198 0.65727 0.03653 0.0
O34 O 0.80487 0.63104 0.04984 0.0
C35 C 0.80739 0.63858 0.92619 0.0
C36 C 0.76079 0.64909 0.00352 0.0
O37 O 0.76619 0.63396 0.00141 0.0
O38 O 0.77108 0.66129 0.0021 0.0
C39 C 0.77611 0.59122 0.99008 0.0
O40 O 0.76562 0.59937 0.96698 0.0
C41 C 0.81306 0.6444 0.05838 0.0
Zn42 Zn 0.34176 0.79781 -0.00213 0.0
Zn43 Zn 0.37472 0.7937 0.00199 0.0
O44 O 0.37146 0.80508 0.94775 0.0
O45 O 0.34381 0.8061 0.9424 0.0
O46 O 0.39991 0.79085 0.00557 0.0
O47 O 0.34238 0.81433 0.04237 0.0
O48 O 0.36961 0.80969 0.04852 0.0
C49 C 0.3583 0.80883 0.9281 0.0
C50 C 0.35049 0.76351 0.01171 0.0
O51 O 0.36545 0.76923 0.0081 0.0
O52 O 0.33801 0.7734 0.00941 0.0
C53 C 0.40769 0.77888 0.98851 0.0
O54 O 0.39908 0.76786 0.96775 0.0
C55 C 0.35617 0.81703 0.06 0.0
Zn56 Zn 0.20506 0.65562 0.0097 0.0
Zn57 Zn 0.20961 0.62271 0.00357 0.0
O58 O 0.19199 0.62533 0.04844 0.0
O59 O 0.18697 0.6526 0.05002 0.0
O60 O 0.21227 0.59748 0.0009 0.0
O61 O 0.19871 0.65678 0.95255 0.0
O62 O 0.20098 0.62918 0.94817 0.0
C63 C 0.18395 0.63788 0.06258 0.0
C64 C 0.2392 0.64584 0.0252 0.0
O65 O 0.23377 0.63128 0.01555 0.0
O66 O 0.2292 0.65828 0.02652 0.0
C67 C 0.22048 0.59004 0.97383 0.0
O68 O 0.22775 0.59908 0.94616 0.0
C69 C 0.19749 0.64338 0.9325 0.0
Zn70 Zn 0.33932 0.20149 0.00944 0.0
Zn71 Zn 0.3721 0.20575 -0.00091 0.0
O72 O 0.37079 0.18829 0.0447 0.0
O73 O 0.34346 0.18457 0.05172 0.0
O74 O 0.39709 0.20885 0.99113 0.0
O75 O 0.33689 0.1935 0.95368 0.0
O76 O 0.36427 0.19649 0.94546 0.0
C77 C 0.35841 0.18099 0.06166 0.0
C78 C 0.34916 0.23585 0.01995 0.0
O79 O 0.36362 0.23003 0.01062 0.0
O80 O 0.33665 0.226 0.02264 0.0
C81 C 0.40669 0.21254 0.01981 0.0
O82 O 0.40011 0.21444 0.05506 0.0
C83 C 0.34985 0.1923 0.93206 0.0
Zn84 Zn 0.80177 0.34536 -0.00507 0.0
Zn85 Zn 0.79549 0.37768 -0.00204 0.0
O86 O 0.81085 0.37394 0.04629 0.0
O87 O 0.81944 0.34784 0.03666 0.0
O88 O 0.79159 0.40283 -0.00167 0.0
O89 O 0.80887 0.34671 0.93866 0.0
O90 O 0.80777 0.37432 0.94468 0.0
C91 C 0.82019 0.3615 0.05579 0.0
C92 C 0.76695 0.35192 0.00889 0.0
O93 O 0.77157 0.36711 0.00271 0.0
O94 O 0.77779 0.3402 0.00925 0.0
C95 C 0.77928 0.41016 0.01516 0.0
O96 O 0.76799 0.4011 0.034 0.0
C97 C 0.81158 0.36125 0.9247 0.0
Zn98 Zn 0.65414 0.7984 0.99042 0.0
Zn99 Zn 0.62153 0.79356 0.99339 0.0
O100 O 0.62677 0.80547 0.04627 0.0
O101 O 0.65451 0.80584 0.04656 0.0
O102 O 0.5963 0.79064 -0.00538 0.0
O103 O 0.65142 0.81612 0.94895 0.0
O104 O 0.62464 0.80898 0.94483 0.0
C105 C 0.64063 0.80896 0.06345 0.0
C106 C 0.64556 0.76381 0.97908 0.0
O107 O 0.63085 0.76921 0.98754 0.0
O108 O 0.65773 0.77408 0.97615 0.0
C109 C 0.58874 0.77826 0.01059 0.0
O110 O 0.59762 0.7664 0.02793 0.0
C111 C 0.63714 0.81767 0.93282 0.0
Zn112 Zn 0.70279 0.84439 0.50271 0.0
Zn113 Zn 0.70857 0.87725 0.49898 0.0
O114 O 0.69554 0.87269 0.44716 0.0
O115 O 0.69225 0.84513 0.4494 0.0
O116 O 0.71237 0.90238 0.50005 0.0
O117 O 0.68798 0.84706 0.54994 0.0
O118 O 0.6941 0.87412 0.54898 0.0
C119 C 0.69011 0.85904 0.43182 0.0
C120 C 0.73802 0.85228 0.50688 0.0
O121 O 0.73276 0.86734 0.50196 0.0
O122 O 0.72757 0.84023 0.50901 0.0
C123 C 0.71399 0.91183 0.47003 0.0
O124 O 0.7135 0.90512 0.43467 0.0
C125 C 0.68654 0.86163 0.56472 0.0
Zn126 Zn 0.15634 0.69824 0.46552 0.0
Zn127 Zn 0.1244 0.70393 0.4874 0.0
O128 O 0.12224 0.68959 0.43662 0.0
O129 O 0.14857 0.68605 0.41729 0.0
O130 O 0.10011 0.70784 0.50233 0.0
O131 O 0.16009 0.68537 0.51601 0.0
O132 O 0.13416 0.69111 0.53499 0.0
C133 C 0.13295 0.68373 0.41224 0.0
C134 C 0.14845 0.73358 0.47082 0.0
O135 O 0.13392 0.72811 0.48065 0.0
O136 O 0.1602 0.72329 0.46304 0.0
C137 C 0.08993 0.7133 0.47639 0.0
O138 O 0.09565 0.71658 0.44085 0.0
C139 C 0.14847 0.68433 0.5415 0.0
Zn140 Zn 0.29512 0.1584 0.46095 0.0
Zn141 Zn 0.2915 0.12588 0.47536 0.0
O142 O 0.30728 0.12649 0.42633 0.0
O143 O 0.30992 0.15369 0.41507 0.0
O144 O 0.28906 0.101 0.48626 0.0
O145 O 0.30578 0.16187 0.51386 0.0
O146 O 0.30266 0.13477 0.52611 0.0
C147 C 0.31349 0.13861 0.40624 0.0
C148 C 0.26057 0.14835 0.4589 0.0
O149 O 0.26677 0.134 0.46787 0.0
O150 O 0.27021 0.16087 0.4536 0.0
C151 C 0.28465 0.09085 0.45918 0.0
O152 O 0.28147 0.09682 0.42384 0.0
C153 C 0.30766 0.14938 0.53665 0.0
Zn154 Zn 0.8465 0.29815 0.49786 0.0
Zn155 Zn 0.87937 0.29247 0.49909 0.0
O156 O 0.87561 0.30441 0.44582 0.0
O157 O 0.84823 0.30892 0.44469 0.0
O158 O 0.9045 0.28888 0.49937 0.0
O159 O 0.84822 0.31271 0.54536 0.0
O160 O 0.87552 0.30789 0.54765 0.0
C161 C 0.86257 0.31026 0.42865 0.0
C162 C 0.85427 0.26303 0.50554 0.0
O163 O 0.86946 0.26826 0.50312 0.0
O164 O 0.84217 0.27342 0.50428 0.0
C165 C 0.91196 0.28159 0.52779 0.0
O166 O 0.90299 0.27598 0.55762 0.0
C167 C 0.86237 0.31497 0.56165 0.0
Zn168 Zn 0.70305 0.15883 0.47226 0.0
Zn169 Zn 0.70789 0.12599 0.48033 0.0
O170 O 0.695 0.1319 0.5315 0.0
O171 O 0.69296 0.15952 0.52634 0.0
O172 O 0.71127 0.10083 0.4821 0.0
O173 O 0.68781 0.15544 0.42607 0.0
O174 O 0.69352 0.12834 0.42991 0.0
C175 C 0.6903 0.14607 0.5455 0.0
C176 C 0.738 0.15001 0.46948 0.0
O177 O 0.73228 0.13534 0.47724 0.0
O178 O 0.72792 0.1622 0.4644 0.0
C179 C 0.7138 0.09211 0.51294 0.0
O180 O 0.71446 0.09966 0.54735 0.0
C181 C 0.68611 0.14061 0.41295 0.0
Zn182 Zn 0.84332 0.70775 0.51791 0.0
Zn183 Zn 0.87635 0.71025 0.51203 0.0
O184 O 0.87295 0.69373 0.55898 0.0
O185 O 0.84536 0.69107 0.56135 0.0
O186 O 0.90162 0.71219 0.5076 0.0
O187 O 0.84185 0.69935 0.46238 0.0
O188 O 0.86953 0.70019 0.45832 0.0
C189 C 0.85979 0.68715 0.57424 0.0
C190 C 0.85447 0.74158 0.52853 0.0
O191 O 0.86879 0.7351 0.52057 0.0
O192 O 0.84148 0.73234 0.53043 0.0
C193 C 0.91085 0.714 0.53791 0.0
O194 O 0.90372 0.71467 0.57283 0.0
C195 C 0.85525 0.69673 0.44308 0.0
Zn196 Zn 0.29546 0.84411 0.49921 0.0
Zn197 Zn 0.29029 0.87685 0.49983 0.0
O198 O 0.30549 0.87329 0.54888 0.0
O199 O 0.31086 0.8461 0.54528 0.0
O200 O 0.28653 0.90201 0.49727 0.0
O201 O 0.30507 0.8449 0.44482 0.0
O202 O 0.30276 0.87253 0.44734 0.0
C203 C 0.31291 0.86018 0.56214 0.0
C204 C 0.26066 0.85184 0.50808 0.0
O205 O 0.26596 0.86694 0.50387 0.0
O206 O 0.271 0.83969 0.50815 0.0
C207 C 0.28621 0.91176 0.52699 0.0
O208 O 0.2881 0.90537 0.56243 0.0
C209 C 0.30749 0.85923 0.42939 0.0
Zn210 Zn 0.15878 0.29803 0.52008 0.0
Zn211 Zn 0.12612 0.29353 0.51016 0.0
O212 O 0.12777 0.30886 0.55968 0.0
O213 O 0.15511 0.31158 0.56848 0.0
O214 O 0.10105 0.29013 0.50495 0.0
O215 O 0.15994 0.31017 0.46838 0.0
O216 O 0.13283 0.30571 0.45874 0.0
C217 C 0.14018 0.31487 0.57903 0.0
C218 C 0.15012 0.26315 0.52029 0.0
O219 O 0.13533 0.26904 0.51475 0.0
O220 O 0.1625 0.27312 0.52377 0.0
C221 C 0.09312 0.28276 0.53258 0.0
O222 O 0.10157 0.27733 0.56335 0.0
C223 C 0.14689 0.3118 0.44729 0.0
H224 H 0.20738 0.56791 0.02749 0.0
H225 H 0.20845 0.53712 0.02582 0.0
H226 H 0.23648 0.53904 0.91701 0.0
H227 H 0.2357 0.5699 0.91866 0.0
H228 H 0.19555 0.51614 0.96781 0.0
H229 H 0.26461 0.50678 0.98433 0.0
H230 H 0.25442 0.52664 -0.00514 0.0
H231 H 0.25863 0.5206 0.94479 0.0
C232 C 0.21389 0.56181 0.0033 0.0
C233 C 0.22149 0.57138 0.97323 0.0
C234 C 0.21447 0.54421 0.00241 0.0
C235 C 0.22272 0.5358 0.97158 0.0
C236 C 0.23034 0.54528 0.9415 0.0
H237 H 0.23252 0.42955 0.91146 0.0
H238 H 0.23384 0.4604 0.91272 0.0
C239 C 0.22979 0.56292 0.94238 0.0
C240 C 0.22267 0.5171 0.97019 0.0
H241 H 0.24825 0.48243 0.97047 0.0
C242 C 0.20707 0.50877 0.96854 0.0
C243 C 0.23772 0.50753 0.97097 0.0
C244 C 0.2548 0.5158 0.97418 0.0
C245 C 0.2061 0.4911 0.96731 0.0
C246 C 0.22113 0.48152 0.9684 0.0
C247 C 0.23675 0.48984 0.9697 0.0
C248 C 0.22084 0.46284 0.96845 0.0
C249 C 0.189 0.48284 0.9642 0.0
C250 C 0.21337 0.45401 -0.00024 0.0
C251 C 0.21259 0.43639 -0.00083 0.0
C252 C 0.21932 0.42728 0.96728 0.0
C253 C 0.22715 0.43617 0.93638 0.0
C254 C 0.22795 0.4538 0.93705 0.0
H255 H 0.1792 0.49184 0.95396 0.0
H256 H 0.18939 0.47195 0.94363 0.0
H257 H 0.18518 0.47809 -0.00636 0.0
H258 H 0.20808 0.46076 0.02461 0.0
H259 H 0.20657 0.42995 0.02355 0.0
H260 H 0.43095 0.21834 0.07544 0.0
H261 H 0.46144 0.2205 0.06541 0.0
H262 H 0.45465 0.21267 0.94074 0.0
H263 H 0.42416 0.21059 0.95037 0.0
H264 H 0.48252 0.19532 0.03199 0.0
H265 H 0.4849 0.25503 0.94645 0.0
H266 H 0.46672 0.24887 0.97516 0.0
H267 H 0.4705 0.23945 0.92784 0.0
C268 C 0.43591 0.2172 0.04583 0.0
C269 C 0.42511 0.21431 0.0137 0.0
C270 C 0.45334 0.21843 0.04018 0.0
C271 C 0.46026 0.21696 0.00229 0.0
C272 C 0.44953 0.21415 0.97013 0.0
H273 H 0.56188 0.21424 0.90753 0.0
H274 H 0.53129 0.21502 0.91717 0.0
C275 C 0.43211 0.21286 0.97574 0.0
C276 C 0.47878 0.21756 -0.00332 0.0
H277 H 0.51036 0.23941 0.95103 0.0
C278 C 0.48864 0.20501 0.0145 0.0
C279 C 0.48667 0.23016 0.97365 0.0
C280 C 0.4767 0.24425 0.9549 0.0
C281 C 0.50619 0.20454 0.00934 0.0
C282 C 0.51412 0.21719 0.98643 0.0
C283 C 0.50425 0.22975 0.9686 0.0
C284 C 0.53264 0.21751 0.98055 0.0
C285 C 0.51603 0.19025 0.02765 0.0
C286 C 0.54353 0.21907 0.0129 0.0
C287 C 0.56099 0.21856 0.00754 0.0
C288 C 0.56792 0.21664 0.96963 0.0
C289 C 0.55697 0.21567 0.93712 0.0
C290 C 0.53949 0.21612 0.94255 0.0
H291 H 0.50777 0.17937 0.03506 0.0
H292 H 0.52617 0.18582 0.0076 0.0
H293 H 0.52197 0.19472 0.05533 0.0
H294 H 0.53851 0.22055 0.04238 0.0
H295 H 0.56905 0.21951 0.03319 0.0
H296 H 0.80171 0.43255 0.98351 0.0
H297 H 0.79946 0.46325 0.98105 0.0
H298 H 0.7512 0.46071 0.03944 0.0
H299 H 0.75349 0.42993 0.04276 0.0
H300 H 0.77562 0.48295 0.94525 0.0
H301 H 0.77666 0.49486 0.10645 0.0
H302 H 0.78224 0.47472 0.08539 0.0
H303 H 0.76046 0.48058 0.09055 0.0
C304 C 0.79063 0.43849 -0.00401 0.0
C305 C 0.77781 0.42878 0.01353 0.0
C306 C 0.78936 0.45605 -0.0055 0.0
C307 C 0.77528 0.46428 0.01053 0.0
C308 C 0.76235 0.45464 0.02764 0.0
H309 H 0.7521 0.57008 0.95971 0.0
H310 H 0.7508 0.53932 0.96522 0.0
C311 C 0.76364 0.43704 0.02931 0.0
C312 C 0.77412 0.48294 0.00858 0.0
H313 H 0.77186 0.51847 0.06522 0.0
C314 C 0.77476 0.49073 0.97146 0.0
C315 C 0.77318 0.49304 0.04286 0.0
C316 C 0.77325 0.48543 0.08361 0.0
C317 C 0.77456 0.50836 0.96765 0.0
C318 C 0.77334 0.51846 0.00189 0.0
C319 C 0.77264 0.51068 0.03901 0.0
C320 C 0.77358 0.53715 -9e-05 0.0
C321 C 0.7762 0.51599 0.92708 0.0
C322 C 0.7865 0.54618 0.01869 0.0
C323 C 0.7872 0.56375 0.01593 0.0
C324 C 0.77496 0.57265 -0.00567 0.0
C325 C 0.76181 0.5636 0.97627 0.0
C326 C 0.76109 0.54601 0.97921 0.0
H327 H 0.78119 0.50677 0.90536 0.0
H328 H 0.76358 0.52015 0.91681 0.0
H329 H 0.78465 0.52716 0.92753 0.0
H330 H 0.79624 0.53958 0.03495 0.0
H331 H 0.79747 0.57032 0.03029 0.0
H332 H 0.56684 0.80134 0.97973 0.0
H333 H 0.53612 0.79976 0.9774 0.0
H334 H 0.5376 0.75129 0.03503 0.0
H335 H 0.56841 0.75286 0.03809 0.0
H336 H 0.51592 0.77594 0.94121 0.0
H337 H 0.5041 0.77785 0.10251 0.0
H338 H 0.52428 0.78314 0.08119 0.0
H339 H 0.51815 0.76143 0.08661 0.0
C340 C 0.56066 0.79035 0.99209 0.0
C341 C 0.57009 0.77725 0.00929 0.0
C342 C 0.54309 0.78947 0.99066 0.0
C343 C 0.53457 0.77551 0.00646 0.0
C344 C 0.54391 0.76232 0.02333 0.0
H345 H 0.42819 0.75424 0.95837 0.0
H346 H 0.45894 0.75241 0.96294 0.0
C347 C 0.56153 0.76321 0.02488 0.0
C348 C 0.51591 0.77477 0.00457 0.0
H349 H 0.48038 0.77368 0.06142 0.0
C350 C 0.50813 0.7754 0.96747 0.0
C351 C 0.50581 0.77423 0.03892 0.0
C352 C 0.51345 0.77427 0.07961 0.0
C353 C 0.49051 0.77559 0.96374 0.0
C354 C 0.4804 0.77483 -0.00194 0.0
C355 C 0.48817 0.77413 0.03516 0.0
C356 C 0.46174 0.77553 -0.00383 0.0
C357 C 0.48288 0.77713 0.92317 0.0
C358 C 0.4531 0.78889 0.01427 0.0
C359 C 0.43554 0.78991 0.01198 0.0
C360 C 0.42627 0.77756 0.9916 0.0
C361 C 0.43495 0.76403 0.97403 0.0
C362 C 0.45253 0.763 0.97644 0.0
H363 H 0.49223 0.78162 0.90113 0.0
H364 H 0.47827 0.76457 0.91354 0.0
H365 H 0.47201 0.78595 0.92336 0.0
H366 H 0.45997 0.79866 0.02975 0.0
H367 H 0.42926 0.80047 0.02595 0.0
H368 H 0.71702 0.0691 0.57282 0.0
H369 H 0.71908 0.03835 0.56705 0.0
H370 H 0.71637 0.04243 0.44056 0.0
H371 H 0.71444 0.07307 0.44591 0.0
H372 H 0.6951 0.01678 0.53115 0.0
H373 H 0.75759 0.01185 0.45831 0.0
H374 H 0.75066 0.03073 0.48331 0.0
H375 H 0.7432 0.02608 0.43452 0.0
C376 C 0.71701 0.06347 0.54376 0.0
C377 C 0.71559 0.07355 0.50983 0.0
C378 C 0.71817 0.04591 0.54054 0.0
C379 C 0.71812 0.03816 0.50337 0.0
C380 C 0.71678 0.04819 0.46949 0.0
H381 H 0.71519 0.93618 0.41273 0.0
H382 H 0.71655 0.9668 0.42194 0.0
C383 C 0.71556 0.06571 0.47265 0.0
C384 C 0.71857 0.01954 0.49991 0.0
H385 H 0.74086 0.98691 0.45986 0.0
C386 C 0.70517 0.01021 0.5159 0.0
C387 C 0.73169 0.01105 0.47978 0.0
C388 C 0.74669 0.0204 0.46327 0.0
C389 C 0.70431 0.99263 0.51142 0.0
C390 C 0.71738 0.98414 0.49107 0.0
C391 C 0.73085 0.99346 0.47537 0.0
C392 C 0.7172 0.9656 0.4856 0.0
C393 C 0.68915 0.98337 0.52749 0.0
C394 C 0.71747 0.95479 0.51831 0.0
C395 C 0.71664 0.93733 0.51318 0.0
C396 C 0.71566 0.93032 0.47517 0.0
C397 C 0.71588 0.94117 0.44239 0.0
C398 C 0.71666 0.95866 0.44758 0.0
H399 H 0.67841 0.99203 0.53309 0.0
H400 H 0.68496 0.97335 0.50684 0.0
H401 H 0.69258 0.9773 0.55584 0.0
H402 H 0.71825 0.95988 0.54787 0.0
H403 H 0.71665 0.92934 0.53908 0.0
H404 H 0.92933 0.71585 0.46996 0.0
H405 H 0.96003 0.71715 0.46345 0.0
H406 H 0.96512 0.716 0.58984 0.0
H407 H 0.9344 0.71471 0.59677 0.0
H408 H 0.98315 0.74229 0.49938 0.0
H409 H 0.99488 0.67607 0.54683 0.0
H410 H 0.97452 0.68313 0.52963 0.0
H411 H 0.98161 0.68872 0.57807 0.0
C412 C 0.93695 0.71587 0.49641 0.0
C413 C 0.92941 0.7151 0.5339 0.0
C414 C 0.95449 0.71665 0.49261 0.0
C415 C 0.96479 0.71651 0.52615 0.0
C416 C 0.95734 0.71593 0.56361 0.0
H417 H 0.0742 0.70965 0.54777 0.0
H418 H 0.04399 0.71185 0.56178 0.0
C419 C 0.9398 0.71525 0.56748 0.0
C420 C 0.98335 0.71689 0.52178 0.0
H421 H 0.01866 0.69274 0.5324 0.0
C422 C 0.99096 0.73149 0.50665 0.0
C423 C 0.99343 0.70281 0.53157 0.0
C424 C 0.98577 0.68672 0.54721 0.0
C425 C 0.00848 0.7324 0.50105 0.0
C426 C 0.01856 0.71815 0.50988 0.0
C427 C 0.01093 0.70365 0.52562 0.0
C428 C 0.03694 0.71777 0.50177 0.0
C429 C 0.01602 0.7487 0.48624 0.0
C430 C 0.04301 0.72029 0.46337 0.0
C431 C 0.06025 0.71915 0.45532 0.0
C432 C 0.07176 0.71523 0.48543 0.0
C433 C 0.06566 0.71271 0.52391 0.0
C434 C 0.04841 0.71395 0.53198 0.0
H435 H 0.00773 0.75963 0.49286 0.0
H436 H 0.02861 0.75103 0.4995 0.0
H437 H 0.01753 0.74797 0.45378 0.0
H438 H 0.03436 0.7228 0.43939 0.0
H439 H 0.06449 0.72104 0.4253 0.0
H440 H 0.2895 0.07448 0.52932 0.0
H441 H 0.28875 0.04404 0.54152 0.0
H442 H 0.27661 0.03527 0.41946 0.0
H443 H 0.27742 0.06564 0.40685 0.0
H444 H 0.26172 0.02038 0.52796 0.0
H445 H 0.31898 0.00591 0.43974 0.0
H446 H 0.31389 0.027 0.45594 0.0
H447 H 0.30312 0.01795 0.41449 0.0
C448 C 0.28666 0.06609 0.50505 0.0
C449 C 0.28363 0.07249 0.46703 0.0
C450 C 0.28621 0.04871 0.51211 0.0
C451 C 0.28285 0.03743 0.48128 0.0
C452 C 0.2795 0.04377 0.44351 0.0
H453 H 0.28063 0.92874 0.45812 0.0
H454 H 0.27885 0.95922 0.44834 0.0
C455 C 0.2799 0.06114 0.43641 0.0
C456 C 0.28296 0.019 0.48856 0.0
H457 H 0.30343 0.98264 0.46392 0.0
C458 C 0.27086 0.0121 0.51411 0.0
C459 C 0.2949 0.00829 0.47041 0.0
C460 C 0.30857 0.01512 0.44385 0.0
C461 C 0.27017 0.99466 0.52136 0.0
C462 C 0.28212 0.98393 0.50316 0.0
C463 C 0.29426 0.99088 0.47775 0.0
C464 C 0.28231 0.96543 0.50986 0.0
C465 C 0.25641 0.98784 0.54765 0.0
C466 C 0.28488 0.95879 0.54773 0.0
C467 C 0.28584 0.94134 0.55348 0.0
C468 C 0.28443 0.93021 0.52137 0.0
C469 C 0.28178 0.93693 0.48351 0.0
C470 C 0.28076 0.95436 0.47784 0.0
H471 H 0.24577 0.99687 0.5505 0.0
H472 H 0.25146 0.97569 0.53621 0.0
H473 H 0.26162 0.98559 0.57752 0.0
H474 H 0.28649 0.96711 0.57275 0.0
H475 H 0.288 0.93659 0.58297 0.0
H476 H 0.07247 0.26811 0.58732 0.0
H477 H 0.04172 0.26586 0.58563 0.0
H478 H 0.04094 0.29109 0.47309 0.0
H479 H 0.0717 0.29324 0.47425 0.0
H480 H 0.01882 0.29246 0.58185 0.0
H481 H 0.01124 0.24964 0.45381 0.0
H482 H 0.03112 0.25236 0.47894 0.0
H483 H 0.02404 0.26786 0.44398 0.0
C484 C 0.06578 0.27306 0.56201 0.0
C485 C 0.07455 0.28083 0.53087 0.0
C486 C 0.04821 0.27176 0.56113 0.0
C487 C 0.03907 0.2781 0.52901 0.0
C488 C 0.04777 0.2858 0.49778 0.0
H489 H 0.93412 0.2927 0.4717 0.0
H490 H 0.9649 0.29118 0.47311 0.0
C491 C 0.06535 0.28711 0.49862 0.0
C492 C 0.02039 0.27745 0.52914 0.0
H493 H 0.98635 0.26298 0.47766 0.0
C494 C 0.0117 0.2859 0.55928 0.0
C495 C 0.01117 0.26891 0.49958 0.0
C496 C 0.01984 0.25904 0.46742 0.0
C497 C 0.99401 0.28642 0.56011 0.0
C498 C 0.98479 0.278 0.53036 0.0
C499 C 0.99347 0.26942 0.50041 0.0
C500 C 0.96611 0.27834 0.52928 0.0
C501 C 0.98537 0.2964 0.59215 0.0
C502 C 0.95658 0.27136 0.5601 0.0
C503 C 0.93897 0.27225 0.55947 0.0
C504 C 0.93057 0.28005 0.52785 0.0
C505 C 0.94017 0.28667 0.49658 0.0
C506 C 0.95777 0.28578 0.49727 0.0
H507 H 0.99415 0.30532 0.60685 0.0
H508 H 0.97455 0.30365 0.58012 0.0
H509 H 0.98046 0.28758 0.61483 0.0
H510 H 0.96278 0.26526 0.58471 0.0
H511 H 0.93196 0.26692 0.58388 0.0
H512 H 0.26361 0.37008 0.00594 0.0
H513 H 0.29313 0.36093 0.01217 0.0
H514 H 0.28152 0.31587 0.94621 0.0
H515 H 0.25251 0.32496 0.93946 0.0
H516 H 0.30245 0.33375 0.05173 0.0
H517 H 0.32697 0.32594 0.90212 0.0
H518 H 0.30874 0.33892 0.91225 0.0
H519 H 0.30644 0.31658 0.90324 0.0
C520 C 0.26756 0.35851 0.9917 0.0
C521 C 0.25573 0.34817 0.97245 0.0
C522 C 0.28441 0.35328 -0.00467 0.0
C523 C 0.28967 0.33782 0.97915 0.0
C524 C 0.278 0.32806 0.95801 0.0
H525 H 0.32263 0.25101 0.05572 0.0
H526 H 0.31441 0.28038 0.05149 0.0
C527 C 0.26129 0.33319 0.95458 0.0
C528 C 0.30622 0.33019 0.98932 0.0
H529 H 0.33454 0.30281 0.94926 0.0
C530 C 0.3099 0.32748 0.02928 0.0
C531 C 0.31646 0.32245 0.96037 0.0
C532 C 0.31452 0.32634 0.91713 0.0
C533 C 0.32183 0.31537 0.04078 0.0
C534 C 0.32987 0.30547 0.0116 0.0
C535 C 0.32803 0.30999 0.97183 0.0
C536 C 0.33694 0.28855 0.02076 0.0
C537 C 0.32485 0.31254 0.08413 0.0
C538 C 0.35244 0.28317 0.00499 0.0
C539 C 0.35714 0.26612 0.00704 0.0
C540 C 0.34626 0.2542 0.02435 0.0
C541 C 0.33127 0.25984 0.04204 0.0
C542 C 0.32664 0.27676 0.0401 0.0
H543 H 0.32457 0.32473 0.10026 0.0
H544 H 0.31458 0.30456 0.0963 0.0
H545 H 0.33713 0.30626 0.08967 0.0
H546 H 0.36052 0.29199 0.98956 0.0
H547 H 0.36875 0.26214 0.99302 0.0
H548 H 0.75478 0.32369 0.04368 0.0
H549 H 0.72563 0.3144 0.04828 0.0
H550 H 0.70905 0.3604 0.99261 0.0
H551 H 0.73858 0.36998 0.98797 0.0
H552 H 0.69502 0.33168 0.0827 0.0
H553 H 0.69278 0.31926 0.92098 0.0
H554 H 0.71283 0.32133 0.94566 0.0
H555 H 0.69957 0.33946 0.93955 0.0
C556 C 0.74498 0.33197 0.03271 0.0
C557 C 0.749 0.3475 0.01505 0.0
C558 C 0.7283 0.32667 0.0356 0.0
C559 C 0.71523 0.33667 0.02065 0.0
C560 C 0.71902 0.3525 0.00423 0.0
H561 H 0.63154 0.2666 0.98256 0.0
H562 H 0.6425 0.2956 0.98727 0.0
C563 C 0.73584 0.35794 0.00167 0.0
C564 C 0.69805 0.3294 0.01988 0.0
H565 H 0.67436 0.30379 0.96123 0.0
C566 C 0.69007 0.32606 0.05595 0.0
C567 C 0.6915 0.32227 0.98493 0.0
C568 C 0.69952 0.32569 0.94542 0.0
C569 C 0.67683 0.31436 0.05849 0.0
C570 C 0.67177 0.30557 0.02424 0.0
C571 C 0.67835 0.31043 0.98755 0.0
C572 C 0.66291 0.28912 0.02676 0.0
C573 C 0.66922 0.31066 0.09826 0.0
C574 C 0.67062 0.27594 0.04766 0.0
C575 C 0.66456 0.25951 0.04467 0.0
C576 C 0.65061 0.25583 0.02072 0.0
C577 C 0.64226 0.26912 0.00143 0.0
C578 C 0.6485 0.28565 0.00406 0.0
H579 H 0.66904 0.32218 0.11687 0.0
H580 H 0.65616 0.30572 0.09556 0.0
H581 H 0.67704 0.30109 0.11361 0.0
H582 H 0.682 0.27817 0.06453 0.0
H583 H 0.67125 0.24955 0.05996 0.0
H584 H 0.74692 0.67702 0.03545 0.0
H585 H 0.71765 0.68583 0.03354 0.0
H586 H 0.70394 0.6391 0.97685 0.0
H587 H 0.73369 0.63008 0.97868 0.0
H588 H 0.69284 0.6669 0.93637 0.0
H589 H 0.67463 0.67439 0.09136 0.0
H590 H 0.69514 0.68341 0.08459 0.0
H591 H 0.69206 0.66111 0.07649 0.0
C592 C 0.73767 0.66842 0.02325 0.0
C593 C 0.74261 0.6529 0.00699 0.0
C594 C 0.72086 0.6734 0.02262 0.0
C595 C 0.70851 0.66301 0.00574 0.0
C596 C 0.71324 0.6472 0.99054 0.0
H597 H 0.62738 0.73696 0.0082 0.0
H598 H 0.63635 0.70725 0.00974 0.0
C599 C 0.7302 0.64208 0.9916 0.0
C600 C 0.69144 0.67015 -0.00064 0.0
H601 H 0.66441 0.6969 0.04606 0.0
C602 C 0.68616 0.67295 0.96044 0.0
C603 C 0.6823 0.67763 0.0306 0.0
C604 C 0.68625 0.67378 0.0731 0.0
C605 C 0.67367 0.68494 0.95189 0.0
C606 C 0.66664 0.69455 0.98295 0.0
C607 C 0.67009 0.68989 0.02203 0.0
C608 C 0.65911 0.71143 0.97585 0.0
C609 C 0.66906 0.68809 0.90945 0.0
C610 C 0.66879 0.72358 0.95598 0.0
C611 C 0.6638 0.74041 0.95535 0.0
C612 C 0.64903 0.74557 0.97473 0.0
C613 C 0.6388 0.73332 0.99288 0.0
C614 C 0.6439 0.71636 -0.00623 0.0
H615 H 0.66918 0.67609 0.89253 0.0
H616 H 0.65641 0.69399 0.9067 0.0
H617 H 0.67856 0.69658 0.89591 0.0
H618 H 0.6808 0.72026 0.9429 0.0
H619 H 0.67194 0.74952 0.94099 0.0
H620 H 0.26654 0.62938 -0.00642 0.0
H621 H 0.29614 0.63867 -0.00329 0.0
H622 H 0.2818 0.67878 0.07583 0.0
H623 H 0.25259 0.66966 0.07275 0.0
H624 H 0.30534 0.66983 0.96995 0.0
H625 H 0.32614 0.66451 0.12364 0.0
H626 H 0.30887 0.65212 0.1043 0.0
H627 H 0.30528 0.67317 0.12275 0.0
C628 C 0.26988 0.63982 0.01261 0.0
C629 C 0.25729 0.64889 0.03274 0.0
C630 C 0.28675 0.64512 0.01435 0.0
C631 C 0.29126 0.65927 0.03699 0.0
C632 C 0.27878 0.66758 0.05898 0.0
H633 H 0.32323 0.75014 0.0477 0.0
H634 H 0.31556 0.72058 0.05385 0.0
C635 C 0.26201 0.66247 0.05685 0.0
C636 C 0.30799 0.66747 0.03285 0.0
H637 H 0.33504 0.69078 0.08872 0.0
C638 C 0.31241 0.67383 -0.00437 0.0
C639 C 0.31739 0.67251 0.06621 0.0
C640 C 0.31425 0.66503 0.10637 0.0
C641 C 0.32425 0.68691 0.99184 0.0
C642 C 0.3318 0.69365 0.0261 0.0
C643 C 0.32908 0.68571 0.0625 0.0
C644 C 0.33827 0.71115 0.02623 0.0
C645 C 0.32709 0.69482 0.95196 0.0
C646 C 0.35381 0.71564 0.00931 0.0
C647 C 0.35833 0.73273 0.00592 0.0
C648 C 0.3472 0.7454 0.01885 0.0
C649 C 0.33199 0.7407 0.03704 0.0
C650 C 0.32763 0.72379 0.04083 0.0
H651 H 0.32092 0.68757 0.92796 0.0
H652 H 0.32201 0.70787 0.95185 0.0
H653 H 0.34081 0.69559 0.94572 0.0
H654 H 0.36217 0.70601 -0.00213 0.0
H655 H 0.37013 0.73603 0.99179 0.0
H656 H 0.87146 0.76724 0.49124 0.0
H657 H 0.86301 0.79712 0.4896 0.0
H658 H 0.82385 0.78665 0.5745 0.0
H659 H 0.83214 0.75719 0.5761 0.0
H660 H 0.83204 0.8058 0.46303 0.0
H661 H 0.83861 0.83253 0.61121 0.0
H662 H 0.8507 0.8144 0.59535 0.0
H663 H 0.82981 0.81181 0.61572 0.0
C664 C 0.86147 0.77153 0.51055 0.0
C665 C 0.85236 0.75994 0.53361 0.0
C666 C 0.85665 0.78857 0.50958 0.0
C667 C 0.84296 0.79423 0.53237 0.0
C668 C 0.83473 0.78278 0.55745 0.0
H669 H 0.75197 0.82292 0.53152 0.0
H670 H 0.78162 0.81545 0.53484 0.0
C671 C 0.83936 0.76585 0.55801 0.0
C672 C 0.83487 0.81082 0.52509 0.0
H673 H 0.81157 0.83953 0.57634 0.0
C674 C 0.8282 0.81377 0.4874 0.0
C675 C 0.83 0.82144 0.5566 0.0
C676 C 0.83786 0.81995 0.59686 0.0
C677 C 0.81495 0.82527 0.48187 0.0
C678 C 0.80831 0.83388 0.51479 0.0
C679 C 0.81657 0.83273 0.55119 0.0
C680 C 0.79062 0.83967 0.5145 0.0
C681 C 0.80672 0.82658 0.44197 0.0
C682 C 0.78592 0.85591 0.5022 0.0
C683 C 0.76877 0.86032 0.50031 0.0
C684 C 0.75624 0.84845 0.51037 0.0
C685 C 0.76121 0.83235 0.52325 0.0
C686 C 0.77818 0.82805 0.52535 0.0
H687 H 0.81494 0.8215 0.41826 0.0
H688 H 0.79475 0.81931 0.44218 0.0
H689 H 0.80361 0.83993 0.43522 0.0
H690 H 0.79543 0.865 0.4936 0.0
H691 H 0.76532 0.87282 0.49027 0.0
H692 H 0.23344 0.86969 0.47951 0.0
H693 H 0.20401 0.85979 0.47655 0.0
H694 H 0.21809 0.81494 0.54068 0.0
H695 H 0.24699 0.82472 0.54402 0.0
H696 H 0.19453 0.83196 0.4382 0.0
H697 H 0.17351 0.82437 0.59087 0.0
H698 H 0.19106 0.83787 0.57804 0.0
H699 H 0.19428 0.81566 0.58735 0.0
C700 C 0.23006 0.85799 0.49397 0.0
C701 C 0.24251 0.84791 0.51174 0.0
C702 C 0.21328 0.85234 0.49224 0.0
C703 C 0.20873 0.83675 0.50899 0.0
C704 C 0.22107 0.82722 0.52853 0.0
H705 H 0.17571 0.74877 0.43795 0.0
H706 H 0.1842 0.77804 0.4432 0.0
C707 C 0.23771 0.83274 0.52996 0.0
C708 C 0.19214 0.82874 0.50107 0.0
H709 H 0.16545 0.80085 0.54531 0.0
C710 C 0.18771 0.82566 0.46169 0.0
C711 C 0.18275 0.8209 0.53145 0.0
C712 C 0.18557 0.82508 0.57427 0.0
C713 C 0.17591 0.81313 0.45203 0.0
C714 C 0.16875 0.80324 0.48247 0.0
C715 C 0.17129 0.80806 0.5218 0.0
C716 C 0.16184 0.78615 0.47462 0.0
C717 C 0.17213 0.80985 0.4092 0.0
C718 C 0.14645 0.78075 0.49096 0.0
C719 C 0.14158 0.76376 0.4883 0.0
C720 C 0.15217 0.7519 0.46984 0.0
C721 C 0.16725 0.75752 0.45247 0.0
C722 C 0.17204 0.77438 0.45498 0.0
H723 H 0.17207 0.82186 0.3923 0.0
H724 H 0.18219 0.80176 0.39653 0.0
H725 H 0.15978 0.80346 0.40528 0.0
H726 H 0.13848 0.78956 0.50672 0.0
H727 H 0.1299 0.7598 0.50207 0.0
H728 H 0.23531 0.12955 0.49338 0.0
H729 H 0.20571 0.13808 0.50158 0.0
H730 H 0.21519 0.18249 0.43135 0.0
H731 H 0.24423 0.17393 0.42244 0.0
H732 H 0.1966 0.16478 0.54048 0.0
H733 H 0.16903 0.17236 0.39415 0.0
H734 H 0.1877 0.1597 0.40186 0.0
H735 H 0.18937 0.18207 0.3922 0.0
C736 C 0.23086 0.14081 0.47859 0.0
C737 C 0.24213 0.15116 0.45758 0.0
C738 C 0.21396 0.14568 0.48333 0.0
C739 C 0.20807 0.16083 0.46663 0.0
C740 C 0.21915 0.17051 0.44359 0.0
H741 H 0.178 0.24742 0.54798 0.0
H742 H 0.18584 0.21809 0.54033 0.0
C743 C 0.23591 0.16571 0.43896 0.0
C744 C 0.19168 0.16839 0.47851 0.0
H745 H 0.16284 0.19606 0.44163 0.0
C746 C 0.18877 0.1711 0.51883 0.0
C747 C 0.1809 0.17619 0.45073 0.0
C748 C 0.18184 0.17221 0.40737 0.0
C749 C 0.17721 0.18332 0.53161 0.0
C750 C 0.16877 0.19336 0.50334 0.0
C751 C 0.16972 0.1888 0.46343 0.0
C752 C 0.16231 0.21042 0.51332 0.0
C753 C 0.17509 0.1862 0.57523 0.0
C754 C 0.14645 0.2161 0.50038 0.0
C755 C 0.14194 0.23314 0.50443 0.0
C756 C 0.15337 0.24476 0.52085 0.0
C757 C 0.16891 0.23885 0.53508 0.0
C758 C 0.17334 0.22195 0.53121 0.0
H759 H 0.1756 0.17402 0.59139 0.0
H760 H 0.18564 0.19411 0.58619 0.0
H761 H 0.16297 0.19258 0.5821 0.0
H762 H 0.13782 0.20748 0.48601 0.0
H763 H 0.12989 0.23735 0.49306 0.0
H764 H 0.82617 0.24943 0.53739 0.0
H765 H 0.81697 0.2203 0.53502 0.0
H766 H 0.86368 0.20606 0.47887 0.0
H767 H 0.87306 0.2357 0.48103 0.0
H768 H 0.83647 0.19548 0.43758 0.0
H769 H 0.82669 0.1768 0.59139 0.0
H770 H 0.81795 0.19743 0.58491 0.0
H771 H 0.84029 0.1942 0.578 0.0
C772 C 0.83468 0.24009 0.52524 0.0
C773 C 0.85028 0.24487 0.50911 0.0
C774 C 0.82949 0.22334 0.52438 0.0
C775 C 0.83975 0.21088 0.50746 0.0
C776 C 0.85567 0.21544 0.49259 0.0
H777 H 0.76389 0.13133 0.5015 0.0
H778 H 0.79369 0.13975 0.50651 0.0
C779 C 0.861 0.23234 0.49382 0.0
C780 C 0.83232 0.19397 0.50028 0.0
H781 H 0.80428 0.16744 0.54446 0.0
C782 C 0.82995 0.18888 0.46108 0.0
C783 C 0.82421 0.1849 0.53079 0.0
C784 C 0.82762 0.18854 0.57363 0.0
C785 C 0.81777 0.17672 0.45141 0.0
C786 C 0.80755 0.16984 0.48161 0.0
C787 C 0.81176 0.17303 0.52108 0.0
C788 C 0.7906 0.1628 0.47306 0.0
C789 C 0.81511 0.17231 0.40867 0.0
C790 C 0.77903 0.17287 0.45244 0.0
C791 C 0.76215 0.1682 0.44984 0.0
C792 C 0.75635 0.15336 0.46796 0.0
C793 C 0.76802 0.14281 0.48711 0.0
C794 C 0.78503 0.1476 0.48998 0.0
H795 H 0.82733 0.1722 0.39264 0.0
H796 H 0.80895 0.15981 0.40524 0.0
H797 H 0.80704 0.18207 0.39471 0.0
H798 H 0.78283 0.18489 0.44014 0.0
H799 H 0.75351 0.17658 0.43476 0.0
H800 H 0.17083 0.33452 0.42634 0.0
H801 H 0.17554 0.34697 0.36165 0.0
H802 H 0.13156 0.32126 0.31701 0.0
H803 H 0.12647 0.30907 0.38238 0.0
H804 H 0.18274 0.32802 0.29904 0.0
H805 H 0.12673 0.36746 0.26636 0.0
H806 H 0.13167 0.36021 0.31548 0.0
H807 H 0.1215 0.34633 0.28096 0.0
C808 C 0.16198 0.33172 0.40294 0.0
C809 C 0.14837 0.32068 0.40924 0.0
C810 C 0.16465 0.33892 0.36604 0.0
C811 C 0.15386 0.33514 0.33458 0.0
C812 C 0.13985 0.32463 0.34109 0.0
H813 H 0.17853 0.32725 0.09236 0.0
H814 H 0.16845 0.3245 0.15982 0.0
C815 C 0.13702 0.31757 0.37833 0.0
C816 C 0.15863 0.34041 0.29427 0.0
H817 H 0.14464 0.36056 0.21152 0.0
C818 C 0.17447 0.33533 0.28016 0.0
C819 C 0.14787 0.35001 0.26972 0.0
C820 C 0.13106 0.35647 0.28399 0.0
C821 C 0.17967 0.33915 0.24182 0.0
C822 C 0.16864 0.34808 0.21676 0.0
C823 C 0.15299 0.35364 0.23098 0.0
C824 C 0.17292 0.3506 0.17495 0.0
C825 C 0.19682 0.33336 0.22805 0.0
C826 C 0.17843 0.36633 0.16111 0.0
C827 C 0.1843 0.36799 0.12238 0.0
C828 C 0.18471 0.3539 0.09719 0.0
C829 C 0.17856 0.33833 0.11102 0.0
C830 C 0.17272 0.33672 0.14951 0.0
H831 H 0.20507 0.32969 0.25307 0.0
H832 H 0.19531 0.32224 0.20851 0.0
H833 H 0.20319 0.34345 0.21086 0.0
H834 H 0.17869 0.37715 0.18058 0.0
H835 H 0.18888 0.38015 0.11254 0.0
H836 H 0.68512 0.11257 0.36548 0.0
H837 H 0.67074 0.10995 0.30171 0.0
H838 H 0.64976 0.15974 0.31627 0.0
H839 H 0.66394 0.16249 0.37956 0.0
H840 H 0.62719 0.13344 0.27987 0.0
H841 H 0.6909 0.14078 0.21185 0.0
H842 H 0.68766 0.1243 0.24755 0.0
H843 H 0.68717 0.14595 0.26286 0.0
C844 C 0.67719 0.12281 0.35537 0.0
C845 C 0.6759 0.13786 0.37715 0.0
C846 C 0.66897 0.12127 0.31907 0.0
C847 C 0.6593 0.1347 0.30439 0.0
C848 C 0.65713 0.14923 0.32726 0.0
H849 H 0.61871 0.18804 0.11782 0.0
H850 H 0.62138 0.17105 0.17752 0.0
C851 C 0.66539 0.15083 0.36325 0.0
C852 C 0.65336 0.13493 0.26324 0.0
H853 H 0.6676 0.14457 0.17143 0.0
C854 C 0.63596 0.13545 0.25579 0.0
C855 C 0.66487 0.13746 0.23205 0.0
C856 C 0.68371 0.13718 0.23867 0.0
C857 C 0.62977 0.13933 0.21811 0.0
C858 C 0.64131 0.14327 0.18764 0.0
C859 C 0.65869 0.14157 0.19467 0.0
C860 C 0.6361 0.15122 0.14998 0.0
C861 C 0.61096 0.13951 0.21169 0.0
C862 C 0.64326 0.14571 0.11438 0.0
C863 C 0.64225 0.15575 0.08071 0.0
C864 C 0.63372 0.17125 0.0818 0.0
C865 C 0.62523 0.17605 0.11626 0.0
C866 C 0.62663 0.16623 0.15032 0.0
H867 H 0.60467 0.12988 0.23041 0.0
H868 H 0.60589 0.15202 0.22039 0.0
H869 H 0.60765 0.1371 0.18042 0.0
H870 H 0.65061 0.1342 0.11332 0.0
H871 H 0.6488 0.15175 0.05429 0.0
H872 H 0.82681 0.6865 0.40526 0.0
H873 H 0.82433 0.67498 0.33915 0.0
H874 H 0.87815 0.67891 0.3235 0.0
H875 H 0.88088 0.69038 0.3904 0.0
H876 H 0.83463 0.69235 0.27083 0.0
H877 H 0.86629 0.63001 0.28648 0.0
H878 H 0.85867 0.64185 0.32835 0.0
H879 H 0.87763 0.64825 0.30371 0.0
C880 C 0.83819 0.68486 0.388 0.0
C881 C 0.85406 0.68944 0.40308 0.0
C882 C 0.83673 0.67822 0.35023 0.0
C883 C 0.85106 0.67596 0.32668 0.0
C884 C 0.86698 0.68032 0.34156 0.0
H885 H 0.83871 0.66607 0.07415 0.0
H886 H 0.85106 0.67221 0.13842 0.0
C887 C 0.86849 0.68698 0.37961 0.0
C888 C 0.84889 0.67016 0.28567 0.0
H889 H 0.85559 0.63695 0.2235 0.0
C890 C 0.83932 0.6803 0.26034 0.0
C891 C 0.85492 0.65437 0.27243 0.0
C892 C 0.86487 0.64286 0.2991 0.0
C893 C 0.83531 0.67497 0.22222 0.0
C894 C 0.84137 0.6592 0.20879 0.0
C895 C 0.85112 0.64908 0.23392 0.0
C896 C 0.83693 0.65294 0.16918 0.0
C897 C 0.82414 0.68603 0.1971 0.0
C898 C 0.82568 0.63938 0.16498 0.0
C899 C 0.81869 0.63571 0.12812 0.0
C900 C 0.8228 0.64568 0.09526 0.0
C901 C 0.8351 0.65836 0.09913 0.0
C902 C 0.84219 0.66187 0.13576 0.0
H903 H 0.81761 0.69586 0.21479 0.0
H904 H 0.83195 0.69251 0.17455 0.0
H905 H 0.81447 0.67838 0.18158 0.0
H906 H 0.82152 0.63233 0.19056 0.0
H907 H 0.80929 0.62584 0.12593 0.0
H908 H 0.31315 0.83366 0.37796 0.0
H909 H 0.32879 0.83456 0.31651 0.0
H910 H 0.33809 0.88774 0.33267 0.0
H911 H 0.32189 0.88704 0.39444 0.0
H912 H 0.32923 0.8811 0.2584 0.0
H913 H 0.37882 0.8362 0.29991 0.0
H914 H 0.3588 0.82683 0.31068 0.0
H915 H 0.36513 0.84581 0.33606 0.0
C916 C 0.31855 0.84557 0.36866 0.0
C917 C 0.31639 0.86026 0.39123 0.0
C918 C 0.32767 0.84602 0.33367 0.0
C919 C 0.33513 0.86109 0.32071 0.0
C920 C 0.33268 0.87593 0.34256 0.0
H921 H 0.3834 0.82834 0.10279 0.0
H922 H 0.38267 0.84499 0.1637 0.0
C923 C 0.32337 0.87552 0.37766 0.0
C924 C 0.34443 0.86113 0.28289 0.0
H925 H 0.37046 0.83566 0.22981 0.0
C926 C 0.33864 0.87151 0.2523 0.0
C927 C 0.35725 0.84918 0.27509 0.0
C928 C 0.36548 0.83905 0.30742 0.0
C929 C 0.34377 0.86873 0.21328 0.0
C930 C 0.35443 0.85487 0.20477 0.0
C931 C 0.3619 0.84599 0.23599 0.0
C932 C 0.35547 0.84744 0.16474 0.0
C933 C 0.33704 0.88018 0.18147 0.0
C934 C 0.34048 0.84334 0.14501 0.0
C935 C 0.34087 0.834 0.11034 0.0
C936 C 0.35625 0.8282 0.09489 0.0
C937 C 0.37134 0.83259 0.11406 0.0
C938 C 0.37095 0.84215 0.14874 0.0
H939 H 0.33623 0.89337 0.19233 0.0
H940 H 0.34507 0.87992 0.15467 0.0
H941 H 0.32407 0.87618 0.1735 0.0
H942 H 0.32833 0.84663 0.15739 0.0
H943 H 0.32899 0.83079 0.09653 0.0
H944 H 0.17481 0.66353 0.55869 0.0
H945 H 0.18218 0.65145 0.62248 0.0
H946 H 0.13789 0.67407 0.67407 0.0
H947 H 0.13017 0.68587 0.60995 0.0
H948 H 0.1899 0.6696 0.68566 0.0
H949 H 0.13647 0.62747 0.72236 0.0
H950 H 0.13993 0.63555 0.67325 0.0
H951 H 0.12967 0.64838 0.70985 0.0
C952 C 0.16648 0.66573 0.58345 0.0
C953 C 0.15194 0.67574 0.57932 0.0
C954 C 0.17069 0.65877 0.61987 0.0
C955 C 0.16051 0.6617 0.65297 0.0
C956 C 0.14573 0.67129 0.64875 0.0
H957 H 0.18913 0.67178 0.8919 0.0
H958 H 0.18058 0.67414 0.82332 0.0
C959 C 0.1414 0.67815 0.61215 0.0
C960 C 0.16636 0.6563 0.69247 0.0
H961 H 0.15432 0.63578 0.77643 0.0
C962 C 0.1822 0.66199 0.70523 0.0
C963 C 0.15641 0.64622 0.71788 0.0
C964 C 0.13975 0.6389 0.70501 0.0
C965 C 0.18807 0.65848 0.74325 0.0
C966 C 0.17768 0.64931 0.76946 0.0
C967 C 0.16217 0.64295 0.75628 0.0
C968 C 0.18227 0.6474 0.8114 0.0
C969 C 0.20525 0.66485 0.75528 0.0
C970 C 0.18564 0.63147 0.82765 0.0
C971 C 0.19055 0.63003 0.86714 0.0
C972 C 0.19203 0.6445 0.89089 0.0
C973 C 0.18826 0.66036 0.87448 0.0
C974 C 0.1834 0.66177 0.83522 0.0
H975 H 0.21339 0.66733 0.72926 0.0
H976 H 0.20378 0.67687 0.77168 0.0
H977 H 0.21172 0.65566 0.77481 0.0
H978 H 0.18473 0.62023 0.80963 0.0
H979 H 0.19329 0.61763 0.87895 0.0
H980 H 0.32548 0.17677 0.56096 0.0
H981 H 0.33657 0.18243 0.62655 0.0
H982 H 0.3182 0.13415 0.66665 0.0
H983 H 0.30737 0.12816 0.60052 0.0
H984 H 0.31727 0.18525 0.69104 0.0
H985 H 0.36524 0.13534 0.71419 0.0
H986 H 0.3568 0.14033 0.66617 0.0
H987 H 0.34501 0.12728 0.6997 0.0
C988 C 0.32397 0.16723 0.58356 0.0
C989 C 0.31545 0.15205 0.57565 0.0
C990 C 0.33037 0.17048 0.621 0.0
C991 C 0.32835 0.15866 0.65135 0.0
C992 C 0.32022 0.14329 0.6434 0.0
H993 H 0.32133 0.18027 0.89735 0.0
H994 H 0.31751 0.17174 0.82903 0.0
C995 C 0.31393 0.13994 0.60571 0.0
C996 C 0.33322 0.16325 0.69201 0.0
H997 H 0.35655 0.15079 0.77138 0.0
C998 C 0.32598 0.17779 0.70844 0.0
C999 C 0.34472 0.15359 0.71451 0.0
C1000 C 0.35353 0.13835 0.69765 0.0
C1001 C 0.32958 0.18272 0.74709 0.0
C1002 C 0.34045 0.17264 0.77019 0.0
C1003 C 0.3481 0.15837 0.75356 0.0
C1004 C 0.34338 0.17652 0.81214 0.0
C1005 C 0.3217 0.19867 0.76292 0.0
C1006 C 0.35936 0.18151 0.82544 0.0
C1007 C 0.36164 0.18639 0.86469 0.0
C1008 C 0.34795 0.18629 0.89108 0.0
C1009 C 0.33211 0.1807 0.87776 0.0
C1010 C 0.32988 0.17581 0.83871 0.0
H1011 H 0.31743 0.20714 0.73881 0.0
H1012 H 0.31053 0.19535 0.78105 0.0
H1013 H 0.33071 0.20568 0.78186 0.0
H1014 H 0.36993 0.18205 0.80523 0.0
H1015 H 0.37401 0.19055 0.87411 0.0
H1016 H 0.83054 0.38765 0.89642 0.0
H1017 H 0.84769 0.38786 0.83596 0.0
H1018 H 0.82912 0.33825 0.80677 0.0
H1019 H 0.81245 0.33779 0.86691 0.0
H1020 H 0.86448 0.34128 0.80385 0.0
H1021 H 0.83226 0.39262 0.72046 0.0
H1022 H 0.83993 0.39679 0.7694 0.0
H1023 H 0.8224 0.38281 0.76257 0.0
C1024 C 0.82997 0.37693 0.8767 0.0
C1025 C 0.82021 0.36268 0.88635 0.0
C1026 C 0.83978 0.37706 0.84231 0.0
C1027 C 0.83971 0.36303 0.81707 0.0
C1028 C 0.8295 0.34912 0.82612 0.0
H1029 H 0.83593 0.32804 0.60193 0.0
H1030 H 0.83634 0.34399 0.66261 0.0
C1031 C 0.81991 0.3489 0.86041 0.0
C1032 C 0.85024 0.36221 0.78115 0.0
H1033 H 0.84954 0.37421 0.68483 0.0
C1034 C 0.86165 0.34875 0.7779 0.0
C1035 C 0.84667 0.37221 0.74776 0.0
C1036 C 0.83464 0.38692 0.74984 0.0
C1037 C 0.86786 0.3436 0.74115 0.0
C1038 C 0.86283 0.35252 0.70702 0.0
C1039 C 0.85324 0.36734 0.71108 0.0
C1040 C 0.86356 0.34452 0.66765 0.0
C1041 C 0.87819 0.32763 0.73883 0.0
C1042 C 0.87879 0.3396 0.64983 0.0
C1043 C 0.87859 0.33007 0.615 0.0
C1044 C 0.86317 0.32558 0.59741 0.0
C1045 C 0.84805 0.33118 0.61463 0.0
C1046 C 0.84826 0.34046 0.64931 0.0
H1047 H 0.8796 0.32141 0.76798 0.0
H1048 H 0.87224 0.31852 0.71824 0.0
H1049 H 0.89097 0.33064 0.72752 0.0
H1050 H 0.89075 0.34283 0.66317 0.0
H1051 H 0.89045 0.3261 0.60214 0.0
H1052 H 0.65123 0.84855 0.92521 0.0
H1053 H 0.65325 0.86545 0.86521 0.0
H1054 H 0.62275 0.82879 0.80376 0.0
H1055 H 0.6199 0.81243 0.86453 0.0
H1056 H 0.66956 0.85403 0.80659 0.0
H1057 H 0.6064 0.87024 0.75081 0.0
H1058 H 0.60974 0.8632 0.8008 0.0
H1059 H 0.60738 0.84813 0.76136 0.0
C1060 C 0.64449 0.84445 0.89915 0.0
C1061 C 0.63551 0.82919 0.89916 0.0
C1062 C 0.64561 0.85411 0.86495 0.0
C1063 C 0.63811 0.84847 0.82989 0.0
C1064 C 0.62828 0.83369 0.83056 0.0
H1065 H 0.66432 0.83934 0.59658 0.0
H1066 H 0.65056 0.84102 0.66065 0.0
C1067 C 0.62678 0.82424 0.86518 0.0
C1068 C 0.64319 0.85611 0.7918 0.0
H1069 H 0.62852 0.86696 0.70071 0.0
C1070 C 0.66054 0.85738 0.78389 0.0
C1071 C 0.63147 0.86045 0.76205 0.0
C1072 C 0.61272 0.8606 0.76942 0.0
C1073 C 0.66649 0.86165 0.74641 0.0
C1074 C 0.65478 0.8648 0.71599 0.0
C1075 C 0.63744 0.86451 0.72424 0.0
C1076 C 0.66043 0.86573 0.67467 0.0
C1077 C 0.68527 0.86158 0.73885 0.0
C1078 C 0.67013 0.87933 0.66101 0.0
C1079 C 0.6781 0.8784 0.62429 0.0
C1080 C 0.67653 0.8638 0.60106 0.0
C1081 C 0.66597 0.85066 0.61401 0.0
C1082 C 0.65796 0.85165 0.65044 0.0
H1083 H 0.69259 0.85734 0.76493 0.0
H1084 H 0.6883 0.85317 0.71367 0.0
H1085 H 0.68948 0.87451 0.73101 0.0
H1086 H 0.67212 0.8903 0.67945 0.0
H1087 H 0.68608 0.88876 0.61496 0.0
H1088 H 0.83372 0.67252 0.61301 0.0
H1089 H 0.83464 0.6549 0.67104 0.0
H1090 H 0.88905 0.6561 0.66927 0.0
H1091 H 0.88823 0.67453 0.61096 0.0
H1092 H 0.84802 0.62422 0.68977 0.0
H1093 H 0.87878 0.67551 0.77667 0.0
H1094 H 0.87102 0.67941 0.72764 0.0
H1095 H 0.88968 0.66694 0.73478 0.0
C1096 C 0.84596 0.66904 0.6246 0.0
C1097 C 0.86092 0.6752 0.60766 0.0
C1098 C 0.84645 0.65877 0.65773 0.0
C1099 C 0.8619 0.65427 0.6748 0.0
C1100 C 0.87698 0.65964 0.65695 0.0
H1101 H 0.82748 0.61197 0.90335 0.0
H1102 H 0.84556 0.61072 0.84429 0.0
C1103 C 0.87649 0.67014 0.62365 0.0
C1104 C 0.86145 0.64555 0.71342 0.0
H1105 H 0.86275 0.6558 0.81086 0.0
C1106 C 0.85176 0.63073 0.71647 0.0
C1107 C 0.86653 0.65399 0.74818 0.0
C1108 C 0.87704 0.66986 0.747 0.0
C1109 C 0.84503 0.62554 0.75277 0.0
C1110 C 0.84844 0.63524 0.78667 0.0
C1111 C 0.86007 0.64855 0.78449 0.0
C1112 C 0.83715 0.63475 0.8213 0.0
C1113 C 0.83283 0.61096 0.75396 0.0
C1114 C 0.82631 0.64847 0.8273 0.0
C1115 C 0.81617 0.64926 0.86064 0.0
C1116 C 0.81656 0.63627 0.88873 0.0
C1117 C 0.82688 0.62211 0.882 0.0
C1118 C 0.83723 0.6214 0.84846 0.0
H1119 H 0.83171 0.60455 0.72497 0.0
H1120 H 0.83703 0.60159 0.77618 0.0
H1121 H 0.82016 0.61553 0.76296 0.0
H1122 H 0.82593 0.65881 0.80639 0.0
H1123 H 0.80826 0.66026 0.8648 0.0
H1124 H 0.32726 0.8337 0.59987 0.0
H1125 H 0.34251 0.83372 0.66148 0.0
H1126 H 0.33873 0.88798 0.66739 0.0
H1127 H 0.32263 0.88803 0.60549 0.0
H1128 H 0.37145 0.84745 0.68806 0.0
H1129 H 0.31631 0.8743 0.76888 0.0
H1130 H 0.31462 0.86779 0.71821 0.0
H1131 H 0.32573 0.88682 0.73061 0.0
C1132 C 0.32969 0.84572 0.61394 0.0
C1133 C 0.32347 0.86086 0.59801 0.0
C1134 C 0.33857 0.84571 0.64917 0.0
C1135 C 0.34163 0.86082 0.66936 0.0
C1136 C 0.33623 0.87613 0.65268 0.0
H1137 H 0.3842 0.82833 0.89938 0.0
H1138 H 0.38398 0.84523 0.83857 0.0
C1139 C 0.32708 0.87614 0.61731 0.0
C1140 C 0.34902 0.85973 0.70938 0.0
H1141 H 0.33658 0.86014 0.80552 0.0
C1142 C 0.3641 0.85062 0.71399 0.0
C1143 C 0.33945 0.86403 0.74312 0.0
C1144 C 0.32309 0.87371 0.74026 0.0
C1145 C 0.36878 0.84393 0.75068 0.0
C1146 C 0.35832 0.84691 0.78364 0.0
C1147 C 0.34442 0.85775 0.77992 0.0
C1148 C 0.35941 0.83648 0.81972 0.0
C1149 C 0.38392 0.83245 0.75314 0.0
C1150 C 0.34578 0.82593 0.829 0.0
C1151 C 0.34579 0.81651 0.86355 0.0
C1152 C 0.35953 0.8173 0.88952 0.0
C1153 C 0.37352 0.82738 0.87964 0.0
C1154 C 0.3734 0.83705 0.84502 0.0
H1155 H 0.38969 0.8301 0.72383 0.0
H1156 H 0.3936 0.83827 0.77242 0.0
H1157 H 0.3803 0.82015 0.76633 0.0
H1158 H 0.33494 0.82516 0.80965 0.0
H1159 H 0.33488 0.80879 0.87024 0.0
H1160 H 0.11047 0.32882 0.60655 0.0
H1161 H 0.10722 0.34813 0.66288 0.0
H1162 H 0.16075 0.34514 0.68461 0.0
H1163 H 0.16411 0.32645 0.62902 0.0
H1164 H 0.11326 0.34293 0.73878 0.0
H1165 H 0.15438 0.39487 0.69462 0.0
H1166 H 0.14621 0.37996 0.65914 0.0
H1167 H 0.16578 0.37587 0.68469 0.0
C1168 C 0.12152 0.33244 0.62327 0.0
C1169 C 0.13756 0.32617 0.61316 0.0
C1170 C 0.11966 0.34355 0.65518 0.0
C1171 C 0.13383 0.3486 0.67707 0.0
C1172 C 0.14972 0.34209 0.66718 0.0
H1173 H 0.16839 0.33641 0.88327 0.0
H1174 H 0.14995 0.33948 0.82729 0.0
C1175 C 0.15159 0.33114 0.63557 0.0
C1176 C 0.13237 0.35894 0.71325 0.0
H1177 H 0.15795 0.38523 0.76519 0.0
C1178 C 0.12252 0.35271 0.74435 0.0
C1179 C 0.14372 0.37236 0.72056 0.0
C1180 C 0.15292 0.38125 0.68768 0.0
C1181 C 0.12598 0.35741 0.78334 0.0
C1182 C 0.13999 0.36799 0.79106 0.0
C1183 C 0.14765 0.37654 0.75959 0.0
C1184 C 0.1494 0.36682 0.82873 0.0
C1185 C 0.11553 0.34985 0.81599 0.0
C1186 C 0.15589 0.38119 0.84773 0.0
C1187 C 0.16695 0.37944 0.87972 0.0
C1188 C 0.17172 0.3633 0.89293 0.0
C1189 C 0.16496 0.34904 0.87414 0.0
C1190 C 0.15409 0.35079 0.84235 0.0
H1191 H 0.10201 0.34965 0.80749 0.0
H1192 H 0.11944 0.33657 0.82086 0.0
H1193 H 0.11691 0.35697 0.84397 0.0
H1194 H 0.15271 0.3937 0.83728 0.0
H1195 H 0.17194 0.39067 0.89365 0.0
H1196 H 0.66593 0.19703 0.86903 0.0
H1197 H 0.66799 0.1831 0.80546 0.0
H1198 H 0.61658 0.16589 0.81624 0.0
H1199 H 0.61428 0.18023 0.88033 0.0
H1200 H 0.6638 0.14822 0.79299 0.0
H1201 H 0.61876 0.18677 0.70469 0.0
H1202 H 0.62689 0.19406 0.75133 0.0
H1203 H 0.61145 0.17753 0.75005 0.0
C1204 C 0.65497 0.19045 0.85783 0.0
C1205 C 0.63995 0.18968 0.87973 0.0
C1206 C 0.65619 0.18243 0.82153 0.0
C1207 C 0.64248 0.1734 0.80628 0.0
C1208 C 0.62726 0.17291 0.82743 0.0
H1209 H 0.67687 0.12035 0.5903 0.0
H1210 H 0.6616 0.1231 0.65305 0.0
C1211 C 0.62596 0.18111 0.86392 0.0
C1212 C 0.64472 0.1644 0.76847 0.0
H1213 H 0.63635 0.16814 0.67041 0.0
C1214 C 0.65756 0.15224 0.76616 0.0
C1215 C 0.63644 0.16966 0.73378 0.0
C1216 C 0.62265 0.18277 0.73471 0.0
C1217 C 0.66341 0.14632 0.72972 0.0
C1218 C 0.65592 0.15248 0.69479 0.0
C1219 C 0.64207 0.16349 0.69732 0.0
C1220 C 0.66414 0.15027 0.65595 0.0
C1221 C 0.67847 0.13467 0.72884 0.0
C1222 C 0.67035 0.16461 0.63663 0.0
C1223 C 0.67887 0.16311 0.601 0.0
C1224 C 0.68147 0.14719 0.58379 0.0
C1225 C 0.67519 0.13276 0.60302 0.0
C1226 C 0.66648 0.13431 0.63881 0.0
H1227 H 0.68415 0.13293 0.75847 0.0
H1228 H 0.67451 0.12212 0.71774 0.0
H1229 H 0.68831 0.13966 0.70865 0.0
H1230 H 0.6688 0.17703 0.64948 0.0
H1231 H 0.68353 0.1745 0.58709 0.0
H1232 H 0.83876 0.32952 0.39282 0.0
H1233 H 0.84 0.34238 0.3277 0.0
H1234 H 0.8905 0.32346 0.31174 0.0
H1235 H 0.88947 0.3105 0.37751 0.0
H1236 H 0.8671 0.36597 0.29115 0.0
H1237 H 0.8581 0.30264 0.2224 0.0
H1238 H 0.85232 0.30647 0.27305 0.0
H1239 H 0.87413 0.30547 0.2594 0.0
C1240 C 0.85021 0.32816 0.3757 0.0
C1241 C 0.86395 0.31881 0.39012 0.0
C1242 C 0.85093 0.33565 0.33865 0.0
C1243 C 0.86533 0.33385 0.31517 0.0
C1244 C 0.87931 0.32498 0.3297 0.0
H1245 H 0.85075 0.34674 0.06421 0.0
H1246 H 0.86673 0.34328 0.12516 0.0
C1247 C 0.87867 0.31757 0.36711 0.0
C1248 C 0.86473 0.33991 0.27416 0.0
H1249 H 0.85448 0.32624 0.1823 0.0
C1250 C 0.86472 0.35734 0.26699 0.0
C1251 C 0.86171 0.32856 0.24296 0.0
C1252 C 0.86149 0.30972 0.2495 0.0
C1253 C 0.86104 0.36377 0.22942 0.0
C1254 C 0.85676 0.35243 0.19881 0.0
C1255 C 0.85775 0.33497 0.20568 0.0
C1256 C 0.84955 0.35808 0.16072 0.0
C1257 C 0.8615 0.3826 0.2232 0.0
C1258 C 0.83495 0.36816 0.16001 0.0
C1259 C 0.82601 0.37046 0.12494 0.0
C1260 C 0.83129 0.36231 0.09041 0.0
C1261 C 0.84638 0.35305 0.09062 0.0
C1262 C 0.85552 0.35109 0.12538 0.0
H1263 H 0.87102 0.38859 0.24269 0.0
H1264 H 0.86446 0.38588 0.19216 0.0
H1265 H 0.84902 0.38801 0.2309 0.0
H1266 H 0.8298 0.37331 0.18699 0.0
H1267 H 0.81432 0.37753 0.12551 0.0
H1268 H 0.6146 0.82519 0.10149 0.0
H1269 H 0.61646 0.84179 0.16257 0.0
H1270 H 0.66906 0.82866 0.1729 0.0
H1271 H 0.66743 0.81248 0.11234 0.0
H1272 H 0.62479 0.83261 0.23713 0.0
H1273 H 0.67105 0.87929 0.18528 0.0
H1274 H 0.65937 0.866 0.15174 0.0
H1275 H 0.6786 0.85854 0.17413 0.0
C1276 C 0.62653 0.82584 0.11695 0.0
C1277 C 0.64091 0.81766 0.10192 0.0
C1278 C 0.62759 0.83541 0.15159 0.0
C1279 C 0.64305 0.83694 0.17145 0.0
C1280 C 0.65718 0.82822 0.15723 0.0
H1281 H 0.67941 0.83173 0.39073 0.0
H1282 H 0.66391 0.83105 0.32938 0.0
C1283 C 0.65616 0.8188 0.12278 0.0
C1284 C 0.64461 0.84663 0.20851 0.0
H1285 H 0.6728 0.87197 0.25581 0.0
C1286 C 0.63493 0.84163 0.24106 0.0
C1287 C 0.65741 0.85889 0.21353 0.0
C1288 C 0.66703 0.86612 0.1791 0.0
C1289 C 0.63916 0.84696 0.27917 0.0
C1290 C 0.65366 0.85712 0.28469 0.0
C1291 C 0.66195 0.86383 0.25172 0.0
C1292 C 0.66217 0.85819 0.3234 0.0
C1293 C 0.62864 0.84085 0.31334 0.0
C1294 C 0.66704 0.87373 0.33978 0.0
C1295 C 0.67625 0.87418 0.37503 0.0
C1296 C 0.6808 0.85908 0.39408 0.0
C1297 C 0.67602 0.84362 0.37717 0.0
C1298 C 0.66693 0.8432 0.34221 0.0
H1299 H 0.61518 0.83972 0.30466 0.0
H1300 H 0.63301 0.82812 0.32233 0.0
H1301 H 0.62959 0.84947 0.33904 0.0
H1302 H 0.66376 0.88545 0.32527 0.0
H1303 H 0.67977 0.88629 0.38732 0.0
H1304 H 0.12206 0.65125 0.40844 0.0
H1305 H 0.12087 0.63382 0.34842 0.0
H1306 H 0.13184 0.6778 0.27802 0.0
H1307 H 0.13318 0.69506 0.33767 0.0
H1308 H 0.10735 0.65193 0.24392 0.0
H1309 H 0.16917 0.62705 0.29701 0.0
H1310 H 0.15088 0.62599 0.32841 0.0
H1311 H 0.16033 0.64604 0.31776 0.0
C1312 C 0.12354 0.65721 0.37991 0.0
C1313 C 0.12758 0.67442 0.37722 0.0
C1314 C 0.12294 0.64728 0.34582 0.0
C1315 C 0.12635 0.65455 0.30894 0.0
C1316 C 0.12906 0.672 0.30621 0.0
H1317 H 0.16234 0.66147 0.0911 0.0
H1318 H 0.14437 0.65953 0.14861 0.0
C1319 C 0.12982 0.68184 0.34016 0.0
C1320 C 0.12993 0.64408 0.27393 0.0
H1321 H 0.16355 0.62514 0.22974 0.0
C1322 C 0.11939 0.64555 0.24098 0.0
C1323 C 0.14553 0.63555 0.27038 0.0
C1324 C 0.15722 0.6335 0.30511 0.0
C1325 C 0.12475 0.64008 0.20372 0.0
C1326 C 0.14124 0.6335 0.19931 0.0
C1327 C 0.15097 0.63032 0.23302 0.0
C1328 C 0.14992 0.63327 0.16059 0.0
C1329 C 0.11305 0.64226 0.16911 0.0
C1330 C 0.1593 0.61919 0.14815 0.0
C1331 C 0.16992 0.62035 0.11521 0.0
C1332 C 0.17145 0.63568 0.0946 0.0
C1333 C 0.16154 0.64949 0.10632 0.0
C1334 C 0.15099 0.64832 0.13899 0.0
H1335 H 0.09976 0.64008 0.17816 0.0
H1336 H 0.11394 0.65543 0.15815 0.0
H1337 H 0.11623 0.6335 0.14469 0.0
H1338 H 0.15885 0.60752 0.16472 0.0
H1339 H 0.1774 0.60948 0.10689 0.0
H1340 H 0.32698 0.10841 0.38011 0.0
H1341 H 0.34635 0.10441 0.32408 0.0
H1342 H 0.3449 0.15794 0.30115 0.0
H1343 H 0.32624 0.16203 0.35641 0.0
H1344 H 0.34142 0.11004 0.24835 0.0
H1345 H 0.39422 0.15038 0.28979 0.0
H1346 H 0.37925 0.14284 0.32595 0.0
H1347 H 0.37561 0.16237 0.29977 0.0
C1348 C 0.331 0.1193 0.36327 0.0
C1349 C 0.32512 0.13555 0.37287 0.0
C1350 C 0.34213 0.11701 0.33149 0.0
C1351 C 0.3476 0.13095 0.30924 0.0
C1352 C 0.34155 0.14706 0.31882 0.0
H1353 H 0.33425 0.16469 0.10344 0.0
H1354 H 0.33771 0.14596 0.15873 0.0
C1355 C 0.3306 0.14935 0.35027 0.0
C1356 C 0.3578 0.12907 0.27288 0.0
H1357 H 0.38407 0.15413 0.21942 0.0
C1358 C 0.35128 0.11917 0.24223 0.0
C1359 C 0.37134 0.14018 0.2648 0.0
C1360 C 0.38061 0.14934 0.29713 0.0
C1361 C 0.3558 0.12241 0.20299 0.0
C1362 C 0.36644 0.13631 0.19453 0.0
C1363 C 0.3753 0.14395 0.22553 0.0
C1364 C 0.36505 0.14569 0.15678 0.0
C1365 C 0.348 0.11185 0.17089 0.0
C1366 C 0.37926 0.15241 0.13753 0.0
C1367 C 0.37729 0.16368 0.10595 0.0
C1368 C 0.36107 0.16843 0.09336 0.0
C1369 C 0.34696 0.16132 0.11212 0.0
C1370 C 0.34892 0.15026 0.14353 0.0
H1371 H 0.34798 0.09834 0.17961 0.0
H1372 H 0.33465 0.11565 0.16672 0.0
H1373 H 0.35484 0.1132 0.14251 0.0
H1374 H 0.39184 0.14931 0.1476 0.0
H1375 H 0.38841 0.16893 0.09203 0.0
loop_
_geom_bond_atom_site_label_1
_geom_bond_atom_site_label_2
_geom_bond_distance
_geom_bond_site_symmetry_2
_ccdc_geom_bond_type
Zn0 O3 2.031 1_554 S
Zn0 O5 2.049 . S
Zn0 O10 2.067 . S
Zn1 O2 1.962 1_554 S
Zn1 O4 1.986 . S
Zn1 O6 1.996 . S
Zn1 O9 1.943 . S
O2 Zn1 1.962 1_556 S
O2 C7 1.254 . S
O3 Zn0 2.031 1_556 S
O3 C7 1.269 . S
O4 Zn1 1.986 . S
O4 C11 1.262 . S
O5 Zn0 2.049 . S
O5 C13 1.260 . S
O6 Zn1 1.996 . S
O6 C13 1.257 . S
C7 O2 1.254 . S
C7 O3 1.269 . S
C8 O9 1.249 . S
C8 O10 1.270 . S
O9 Zn1 1.943 . S
O9 C8 1.249 . S
O10 Zn0 2.067 . S
O10 C8 1.270 . S
C11 O4 1.262 . S
C11 O12 1.232 1_554 S
O12 C11 1.232 1_556 S
C13 O5 1.260 . S
C13 O6 1.257 . S
Zn14 O17 2.031 1_554 S
Zn14 O19 2.049 . S
Zn14 O24 2.067 . S
Zn15 O16 1.962 1_554 S
Zn15 O18 1.986 . S
Zn15 O20 1.996 . S
Zn15 O23 1.943 . S
O16 Zn15 1.962 1_556 S
O16 C21 1.254 . S
O17 Zn14 2.031 1_556 S
O17 C21 1.269 . S
O18 Zn15 1.986 . S
O18 C25 1.262 . S
O19 Zn14 2.049 . S
O19 C27 1.260 . S
O20 Zn15 1.996 . S
O20 C27 1.257 . S
C21 O16 1.254 . S
C21 O17 1.269 . S
C22 O23 1.249 . S
C22 O24 1.270 . S
O23 Zn15 1.943 . S
O23 C22 1.249 . S
O24 Zn14 2.067 . S
O24 C22 1.270 . S
C25 O18 1.262 . S
C25 O26 1.232 1_554 S
O26 C25 1.232 1_556 S
C27 O19 1.260 . S
C27 O20 1.257 . S
Zn28 O31 2.031 1_554 S
Zn28 O33 2.049 . S
Zn28 O38 2.067 . S
Zn29 O30 1.962 1_554 S
Zn29 O32 1.986 . S
Zn29 O34 1.996 . S
Zn29 O37 1.943 . S
O30 Zn29 1.962 1_556 S
O30 C35 1.254 . S
O31 Zn28 2.031 1_556 S
O31 C35 1.269 . S
O32 Zn29 1.986 . S
O32 C39 1.262 . S
O33 Zn28 2.049 . S
O33 C41 1.260 . S
O34 Zn29 1.996 . S
O34 C41 1.257 . S
C35 O30 1.254 . S
C35 O31 1.269 . S
C36 O37 1.249 . S
C36 O38 1.270 . S
O37 Zn29 1.943 . S
O37 C36 1.249 . S
O38 Zn28 2.067 . S
O38 C36 1.270 . S
C39 O32 1.262 . S
C39 O40 1.232 1_554 S
O40 C39 1.232 1_556 S
C41 O33 1.260 . S
C41 O34 1.257 . S
Zn42 O45 2.031 1_554 S
Zn42 O47 2.049 . S
Zn42 O52 2.067 . S
Zn43 O44 1.962 1_554 S
Zn43 O46 1.986 . S
Zn43 O48 1.996 . S
Zn43 O51 1.943 . S
O44 Zn43 1.962 1_556 S
O44 C49 1.254 . S
O45 Zn42 2.031 1_556 S
O45 C49 1.269 . S
O46 Zn43 1.986 . S
O46 C53 1.262 . S
O47 Zn42 2.049 . S
O47 C55 1.260 . S
O48 Zn43 1.996 . S
O48 C55 1.257 . S
C49 O44 1.254 . S
C49 O45 1.269 . S
C50 O51 1.249 . S
C50 O52 1.270 . S
O51 Zn43 1.943 . S
O51 C50 1.249 . S
O52 Zn42 2.067 . S
O52 C50 1.270 . S
C53 O46 1.262 . S
C53 O54 1.232 1_554 S
O54 C53 1.232 1_556 S
C55 O47 1.260 . S
C55 O48 1.257 . S
Zn56 O59 2.031 1_556 S
Zn56 O61 2.049 . S
Zn56 O66 2.067 . S
Zn57 O58 1.962 . S
Zn57 O60 1.986 1_554 S
Zn57 O62 1.996 1_554 S
Zn57 O65 1.943 . S
O58 Zn57 1.962 . S
O58 C63 1.254 . S
O59 Zn56 2.031 1_554 S
O59 C63 1.269 . S
O60 Zn57 1.986 1_556 S
O60 C67 1.262 1_556 S
O61 Zn56 2.049 . S
O61 C69 1.260 . S
O62 Zn57 1.996 1_556 S
O62 C69 1.257 . S
C63 O58 1.254 . S
C63 O59 1.269 . S
C64 O65 1.249 1_556 S
C64 O66 1.269 . S
O65 Zn57 1.943 . S
O65 C64 1.249 1_554 S
O66 Zn56 2.067 . S
O66 C64 1.269 . S
C67 O60 1.262 1_554 S
C67 O68 1.232 . S
O68 C67 1.232 . S
C69 O61 1.260 . S
C69 O62 1.257 . S
Zn70 O73 2.031 1_556 S
Zn70 O75 2.049 . S
Zn70 O80 2.067 . S
Zn71 O72 1.962 . S
Zn71 O74 1.986 1_554 S
Zn71 O76 1.996 1_554 S
Zn71 O79 1.943 . S
O72 Zn71 1.962 . S
O72 C77 1.254 . S
O73 Zn70 2.031 1_554 S
O73 C77 1.269 . S
O74 Zn71 1.986 1_556 S
O74 C81 1.262 1_556 S
O75 Zn70 2.049 . S
O75 C83 1.260 . S
O76 Zn71 1.996 1_556 S
O76 C83 1.257 . S
C77 O72 1.254 . S
C77 O73 1.269 . S
C78 O79 1.249 1_556 S
C78 O80 1.269 . S
O79 Zn71 1.943 . S
O79 C78 1.249 1_554 S
O80 Zn70 2.067 . S
O80 C78 1.269 . S
C81 O74 1.262 1_554 S
C81 O82 1.232 . S
O82 C81 1.232 . S
C83 O75 1.260 . S
C83 O76 1.257 . S
Zn84 O87 2.031 1_556 S
Zn84 O89 2.049 . S
Zn84 O94 2.067 . S
Zn85 O86 1.962 . S
Zn85 O88 1.986 1_554 S
Zn85 O90 1.996 1_554 S
Zn85 O93 1.943 . S
O86 Zn85 1.962 . S
O86 C91 1.254 . S
O87 Zn84 2.031 1_554 S
O87 C91 1.269 . S
O88 Zn85 1.986 1_556 S
O88 C95 1.262 1_556 S
O89 Zn84 2.049 . S
O89 C97 1.260 . S
O90 Zn85 1.996 1_556 S
O90 C97 1.257 . S
C91 O86 1.254 . S
C91 O87 1.269 . S
C92 O93 1.249 1_556 S
C92 O94 1.269 . S
O93 Zn85 1.943 . S
O93 C92 1.249 1_554 S
O94 Zn84 2.067 . S
O94 C92 1.269 . S
C95 O88 1.262 1_554 S
C95 O96 1.232 . S
O96 C95 1.232 . S
C97 O89 1.260 . S
C97 O90 1.257 . S
Zn98 O101 2.031 1_556 S
Zn98 O103 2.049 . S
Zn98 O108 2.067 . S
Zn99 O100 1.962 . S
Zn99 O102 1.986 1_554 S
Zn99 O104 1.996 1_554 S
Zn99 O107 1.943 . S
O100 Zn99 1.962 . S
O100 C105 1.254 . S
O101 Zn98 2.031 1_554 S
O101 C105 1.269 . S
O102 Zn99 1.986 1_556 S
O102 C109 1.262 1_556 S
O103 Zn98 2.049 . S
O103 C111 1.260 . S
O104 Zn99 1.996 1_556 S
O104 C111 1.257 . S
C105 O100 1.254 . S
C105 O101 1.269 . S
C106 O107 1.249 1_556 S
C106 O108 1.269 . S
O107 Zn99 1.943 . S
O107 C106 1.249 1_554 S
O108 Zn98 2.067 . S
O108 C106 1.269 . S
C109 O102 1.262 1_554 S
C109 O110 1.232 . S
O110 C109 1.232 . S
C111 O103 1.260 . S
C111 O104 1.257 . S
Zn112 O115 2.031 . S
Zn112 O117 2.049 . S
Zn112 O122 2.067 . S
Zn113 O114 1.962 . S
Zn113 O116 1.986 . S
Zn113 O118 1.996 . S
Zn113 O121 1.943 . S
O114 Zn113 1.962 . S
O114 C119 1.254 . S
O115 Zn112 2.031 . S
O115 C119 1.269 . S
O116 Zn113 1.986 . S
O116 C123 1.262 . S
O117 Zn112 2.049 . S
O117 C125 1.260 . S
O118 Zn113 1.996 . S
O118 C125 1.257 . S
C119 O114 1.254 . S
C119 O115 1.269 . S
C120 O121 1.249 . S
C120 O122 1.270 . S
O121 Zn113 1.943 . S
O121 C120 1.249 . S
O122 Zn112 2.067 . S
O122 C120 1.270 . S
C123 O116 1.262 . S
C123 O124 1.232 . S
O124 C123 1.232 . S
C125 O117 1.260 . S
C125 O118 1.257 . S
Zn126 O129 2.031 . S
Zn126 O131 2.049 . S
Zn126 O136 2.067 . S
Zn127 O128 1.962 . S
Zn127 O130 1.986 . S
Zn127 O132 1.996 . S
Zn127 O135 1.943 . S
O128 Zn127 1.962 . S
O128 C133 1.254 . S
O129 Zn126 2.031 . S
O129 C133 1.269 . S
O130 Zn127 1.986 . S
O130 C137 1.262 . S
O131 Zn126 2.049 . S
O131 C139 1.260 . S
O132 Zn127 1.996 . S
O132 C139 1.257 . S
C133 O128 1.254 . S
C133 O129 1.269 . S
C134 O135 1.249 . S
C134 O136 1.270 . S
O135 Zn127 1.943 . S
O135 C134 1.249 . S
O136 Zn126 2.067 . S
O136 C134 1.270 . S
C137 O130 1.262 . S
C137 O138 1.232 . S
O138 C137 1.232 . S
C139 O131 1.260 . S
C139 O132 1.257 . S
Zn140 O143 2.031 . S
Zn140 O145 2.049 . S
Zn140 O150 2.067 . S
Zn141 O142 1.962 . S
Zn141 O144 1.986 . S
Zn141 O146 1.996 . S
Zn141 O149 1.943 . S
O142 Zn141 1.962 . S
O142 C147 1.254 . S
O143 Zn140 2.031 . S
O143 C147 1.269 . S
O144 Zn141 1.986 . S
O144 C151 1.262 . S
O145 Zn140 2.049 . S
O145 C153 1.260 . S
O146 Zn141 1.996 . S
O146 C153 1.257 . S
C147 O142 1.254 . S
C147 O143 1.269 . S
C148 O149 1.249 . S
C148 O150 1.270 . S
O149 Zn141 1.943 . S
O149 C148 1.249 . S
O150 Zn140 2.067 . S
O150 C148 1.270 . S
C151 O144 1.262 . S
C151 O152 1.232 . S
O152 C151 1.232 . S
C153 O145 1.260 . S
C153 O146 1.257 . S
Zn154 O157 2.031 . S
Zn154 O159 2.049 . S
Zn154 O164 2.067 . S
Zn155 O156 1.962 . S
Zn155 O158 1.986 . S
Zn155 O160 1.996 . S
Zn155 O163 1.943 . S
O156 Zn155 1.962 . S
O156 C161 1.254 . S
O157 Zn154 2.031 . S
O157 C161 1.269 . S
O158 Zn155 1.986 . S
O158 C165 1.262 . S
O159 Zn154 2.049 . S
O159 C167 1.260 . S
O160 Zn155 1.996 . S
O160 C167 1.257 . S
C161 O156 1.254 . S
C161 O157 1.269 . S
C162 O163 1.249 . S
C162 O164 1.270 . S
O163 Zn155 1.943 . S
O163 C162 1.249 . S
O164 Zn154 2.067 . S
O164 C162 1.270 . S
C165 O158 1.262 . S
C165 O166 1.232 . S
O166 C165 1.232 . S
C167 O159 1.260 . S
C167 O160 1.257 . S
Zn168 O171 2.031 . S
Zn168 O173 2.049 . S
Zn168 O178 2.067 . S
Zn169 O170 1.962 . S
Zn169 O172 1.986 . S
Zn169 O174 1.996 . S
Zn169 O177 1.943 . S
O170 Zn169 1.962 . S
O170 C175 1.254 . S
O171 Zn168 2.031 . S
O171 C175 1.269 . S
O172 Zn169 1.986 . S
O172 C179 1.262 . S
O173 Zn168 2.049 . S
O173 C181 1.260 . S
O174 Zn169 1.996 . S
O174 C181 1.257 . S
C175 O170 1.254 . S
C175 O171 1.269 . S
C176 O177 1.249 . S
C176 O178 1.270 . S
O177 Zn169 1.943 . S
O177 C176 1.249 . S
O178 Zn168 2.067 . S
O178 C176 1.270 . S
C179 O172 1.262 . S
C179 O180 1.232 . S
O180 C179 1.232 . S
C181 O173 1.260 . S
C181 O174 1.257 . S
Zn182 O185 2.031 . S
Zn182 O187 2.049 . S
Zn182 O192 2.067 . S
Zn183 O184 1.962 . S
Zn183 O186 1.986 . S
Zn183 O188 1.996 . S
Zn183 O191 1.943 . S
O184 Zn183 1.962 . S
O184 C189 1.254 . S
O185 Zn182 2.031 . S
O185 C189 1.269 . S
O186 Zn183 1.986 . S
O186 C193 1.262 . S
O187 Zn182 2.049 . S
O187 C195 1.260 . S
O188 Zn183 1.996 . S
O188 C195 1.257 . S
C189 O184 1.254 . S
C189 O185 1.269 . S
C190 O191 1.249 . S
C190 O192 1.270 . S
O191 Zn183 1.943 . S
O191 C190 1.249 . S
O192 Zn182 2.067 . S
O192 C190 1.270 . S
C193 O186 1.262 . S
C193 O194 1.232 . S
O194 C193 1.232 . S
C195 O187 1.260 . S
C195 O188 1.257 . S
Zn196 O199 2.031 . S
Zn196 O201 2.049 . S
Zn196 O206 2.067 . S
Zn197 O198 1.962 . S
Zn197 O200 1.986 . S
Zn197 O202 1.996 . S
Zn197 O205 1.943 . S
O198 Zn197 1.962 . S
O198 C203 1.254 . S
O199 Zn196 2.031 . S
O199 C203 1.269 . S
O200 Zn197 1.986 . S
O200 C207 1.262 . S
O201 Zn196 2.049 . S
O201 C209 1.260 . S
O202 Zn197 1.996 . S
O202 C209 1.257 . S
C203 O198 1.254 . S
C203 O199 1.269 . S
C204 O205 1.249 . S
C204 O206 1.270 . S
O205 Zn197 1.943 . S
O205 C204 1.249 . S
O206 Zn196 2.067 . S
O206 C204 1.270 . S
C207 O200 1.262 . S
C207 O208 1.232 . S
O208 C207 1.232 . S
C209 O201 1.260 . S
C209 O202 1.257 . S
Zn210 O213 2.031 . S
Zn210 O215 2.049 . S
Zn210 O220 2.067 . S
Zn211 O212 1.962 . S
Zn211 O214 1.986 . S
Zn211 O216 1.996 . S
Zn211 O219 1.943 . S
O212 Zn211 1.962 . S
O212 C217 1.254 . S
O213 Zn210 2.031 . S
O213 C217 1.269 . S
O214 Zn211 1.986 . S
O214 C221 1.262 . S
O215 Zn210 2.049 . S
O215 C223 1.260 . S
O216 Zn211 1.996 . S
O216 C223 1.257 . S
C217 O212 1.254 . S
C217 O213 1.269 . S
C218 O219 1.249 . S
C218 O220 1.270 . S
O219 Zn211 1.943 . S
O219 C218 1.249 . S
O220 Zn210 2.067 . S
O220 C218 1.270 . S
C221 O214 1.262 . S
C221 O222 1.232 . S
O222 C221 1.232 . S
C223 O215 1.260 . S
C223 O216 1.257 . S
H224 C232 0.929 . S
H225 C234 0.930 . S
H226 C236 0.930 . S
H227 C239 0.929 . S
H228 C242 0.930 . S
H229 C244 0.960 . S
H230 C244 0.960 . S
H231 C244 0.960 . S
C232 H224 0.929 . S
C232 C233 1.377 . S
C232 C234 1.384 . S
C233 C232 1.377 . S
C233 C239 1.390 1_554 S
C234 H225 0.930 . S
C234 C232 1.384 . S
C234 C235 1.372 . S
C235 C234 1.372 . S
C235 C236 1.400 1_554 S
C235 C240 1.490 . S
C236 H226 0.930 . S
C236 C235 1.400 1_556 S
C236 C239 1.386 . S
H237 C253 0.930 . S
H238 C254 0.931 . S
C239 H227 0.929 . S
C239 C233 1.390 1_556 S
C239 C236 1.386 . S
C240 C235 1.490 . S
C240 C242 1.395 1_554 S
C240 C243 1.403 . S
H241 C247 0.930 . S
C242 H228 0.930 . S
C242 C240 1.395 1_556 S
C242 C245 1.403 . S
C243 C240 1.403 . S
C243 C244 1.524 . S
C243 C247 1.400 . S
C244 H229 0.960 . S
C244 H230 0.960 . S
C244 H231 0.960 . S
C244 C243 1.524 . S
C245 C242 1.403 . S
C245 C246 1.390 1_556 S
C245 C249 1.495 . S
C246 C245 1.390 1_554 S
C246 C247 1.387 . S
C246 C248 1.477 1_554 S
C247 H241 0.930 . S
C247 C243 1.400 . S
C247 C246 1.387 . S
C248 C246 1.477 1_556 S
C248 C250 1.380 1_556 S
C248 C254 1.384 . S
C249 C245 1.495 . S
C249 H255 0.959 . S
C249 H256 0.961 . S
C249 H257 0.960 . S
C250 C248 1.380 1_554 S
C250 C251 1.394 . S
C250 H258 0.930 . S
C251 C250 1.394 . S
C251 C252 1.383 . S
C251 H259 0.929 . S
C252 C251 1.383 . S
C252 C253 1.377 1_554 S
C253 H237 0.930 . S
C253 C252 1.377 1_556 S
C253 C254 1.379 . S
C254 H238 0.931 . S
C254 C248 1.384 . S
C254 C253 1.379 . S
H255 C249 0.959 . S
H256 C249 0.961 . S
H257 C249 0.960 . S
H258 C250 0.930 . S
H259 C251 0.929 . S
H260 C268 0.929 . S
H261 C270 0.930 . S
H262 C272 0.930 . S
H263 C275 0.929 . S
H264 C278 0.930 . S
H265 C280 0.960 . S
H266 C280 0.960 . S
H267 C280 0.960 . S
C268 H260 0.929 . S
C268 C269 1.377 . S
C268 C270 1.384 . S
C269 C268 1.377 . S
C269 C275 1.390 1_554 S
C270 H261 0.930 . S
C270 C268 1.384 . S
C270 C271 1.372 . S
C271 C270 1.372 . S
C271 C272 1.400 1_554 S
C271 C276 1.490 . S
C272 H262 0.930 . S
C272 C271 1.400 1_556 S
C272 C275 1.386 . S
H273 C289 0.930 . S
H274 C290 0.931 . S
C275 H263 0.929 . S
C275 C269 1.390 1_556 S
C275 C272 1.386 . S
C276 C271 1.490 . S
C276 C278 1.395 . S
C276 C279 1.403 1_554 S
H277 C283 0.930 . S
C278 H264 0.930 . S
C278 C276 1.395 . S
C278 C281 1.403 . S
C279 C276 1.403 1_556 S
C279 C280 1.524 . S
C279 C283 1.400 . S
C280 H265 0.960 . S
C280 H266 0.960 . S
C280 H267 0.960 . S
C280 C279 1.524 . S
C281 C278 1.403 . S
C281 C282 1.392 . S
C281 C285 1.495 . S
C282 C281 1.392 . S
C282 C283 1.385 1_554 S
C282 C284 1.478 . S
C283 H277 0.930 . S
C283 C279 1.400 . S
C283 C282 1.385 1_556 S
C284 C282 1.478 . S
C284 C286 1.381 . S
C284 C290 1.383 1_554 S
C285 C281 1.495 . S
C285 H291 0.959 . S
C285 H292 0.961 . S
C285 H293 0.960 . S
C286 C284 1.381 . S
C286 C287 1.394 . S
C286 H294 0.930 . S
C287 C286 1.394 . S
C287 C288 1.383 . S
C287 H295 0.929 . S
C288 C287 1.383 . S
C288 C289 1.377 1_554 S
C289 H273 0.930 . S
C289 C288 1.377 1_556 S
C289 C290 1.379 . S
C290 H274 0.931 . S
C290 C284 1.383 1_556 S
C290 C289 1.379 . S
H291 C285 0.959 . S
H292 C285 0.961 . S
H293 C285 0.960 . S
H294 C286 0.930 . S
H295 C287 0.929 . S
H296 C304 0.929 . S
H297 C306 0.930 . S
H298 C308 0.930 . S
H299 C311 0.929 . S
H300 C314 0.930 . S
H301 C316 0.960 . S
H302 C316 0.960 . S
H303 C316 0.960 . S
C304 H296 0.929 . S
C304 C305 1.377 1_556 S
C304 C306 1.384 . S
C305 C304 1.377 1_554 S
C305 C311 1.390 . S
C306 H297 0.930 . S
C306 C304 1.384 . S
C306 C307 1.372 1_556 S
C307 C306 1.372 1_554 S
C307 C308 1.400 . S
C307 C312 1.490 . S
C308 H298 0.930 . S
C308 C307 1.400 . S
C308 C311 1.386 . S
H309 C325 0.930 . S
H310 C326 0.931 . S
C311 H299 0.929 . S
C311 C305 1.390 . S
C311 C308 1.386 . S
C312 C307 1.490 . S
C312 C314 1.395 1_554 S
C312 C315 1.403 . S
H313 C319 0.930 . S
C314 H300 0.930 . S
C314 C312 1.395 1_556 S
C314 C317 1.403 . S
C315 C312 1.403 . S
C315 C316 1.524 . S
C315 C319 1.400 . S
C316 H301 0.960 . S
C316 H302 0.960 . S
C316 H303 0.960 . S
C316 C315 1.524 . S
C317 C314 1.403 . S
C317 C318 1.392 . S
C317 C321 1.495 . S
C318 C317 1.392 . S
C318 C319 1.385 1_556 S
C318 C320 1.478 . S
C319 H313 0.930 . S
C319 C315 1.400 . S
C319 C318 1.385 1_554 S
C320 C318 1.478 . S
C320 C322 1.381 . S
C320 C326 1.383 1_556 S
C321 C317 1.495 . S
C321 H327 0.959 . S
C321 H328 0.961 . S
C321 H329 0.960 . S
C322 C320 1.381 . S
C322 C323 1.394 . S
C322 H330 0.930 . S
C323 C322 1.394 . S
C323 C324 1.383 1_556 S
C323 H331 0.929 . S
C324 C323 1.383 1_554 S
C324 C325 1.377 . S
C325 H309 0.930 . S
C325 C324 1.377 . S
C325 C326 1.379 . S
C326 H310 0.931 . S
C326 C320 1.383 1_554 S
C326 C325 1.379 . S
H327 C321 0.959 . S
H328 C321 0.961 . S
H329 C321 0.960 . S
H330 C322 0.930 . S
H331 C323 0.929 . S
H332 C340 0.929 . S
H333 C342 0.930 . S
H334 C344 0.930 . S
H335 C347 0.929 . S
H336 C350 0.930 . S
H337 C352 0.960 . S
H338 C352 0.960 . S
H339 C352 0.960 . S
C340 H332 0.929 . S
C340 C341 1.377 1_556 S
C340 C342 1.384 . S
C341 C340 1.377 1_554 S
C341 C347 1.390 . S
C342 H333 0.930 . S
C342 C340 1.384 . S
C342 C343 1.372 1_556 S
C343 C342 1.372 1_554 S
C343 C344 1.400 . S
C343 C348 1.491 . S
C344 H334 0.930 . S
C344 C343 1.400 . S
C344 C347 1.386 . S
H345 C361 0.930 . S
H346 C362 0.931 . S
C347 H335 0.929 . S
C347 C341 1.390 . S
C347 C344 1.386 . S
C348 C343 1.491 . S
C348 C350 1.375 1_554 S
C348 C351 1.421 . S
H349 C355 0.930 . S
C350 H336 0.930 . S
C350 C348 1.375 1_556 S
C350 C353 1.403 . S
C351 C348 1.421 . S
C351 C352 1.524 . S
C351 C355 1.400 . S
C352 H337 0.960 . S
C352 H338 0.960 . S
C352 H339 0.960 . S
C352 C351 1.524 . S
C353 C350 1.403 . S
C353 C354 1.392 . S
C353 C357 1.495 . S
C354 C353 1.392 . S
C354 C355 1.385 1_556 S
C354 C356 1.478 . S
C355 H349 0.930 . S
C355 C351 1.400 . S
C355 C354 1.385 1_554 S
C356 C354 1.478 . S
C356 C358 1.381 . S
C356 C362 1.383 1_556 S
C357 C353 1.495 . S
C357 H363 0.959 . S
C357 H364 0.961 . S
C357 H365 0.960 . S
C358 C356 1.381 . S
C358 C359 1.394 . S
C358 H366 0.930 . S
C359 C358 1.394 . S
C359 C360 1.383 1_556 S
C359 H367 0.929 . S
C360 C359 1.383 1_554 S
C360 C361 1.377 . S
C361 H345 0.930 . S
C361 C360 1.377 . S
C361 C362 1.379 . S
C362 H346 0.931 . S
C362 C356 1.383 1_554 S
C362 C361 1.379 . S
H363 C357 0.959 . S
H364 C357 0.961 . S
H365 C357 0.960 . S
H366 C358 0.930 . S
H367 C359 0.929 . S
H368 C376 0.929 . S
H369 C378 0.930 . S
H370 C380 0.930 . S
H371 C383 0.929 . S
H372 C386 0.930 . S
H373 C388 0.960 . S
H374 C388 0.960 . S
H375 C388 0.960 . S
C376 H368 0.929 . S
C376 C377 1.377 . S
C376 C378 1.384 . S
C377 C376 1.377 . S
C377 C383 1.390 . S
C378 H369 0.930 . S
C378 C376 1.384 . S
C378 C379 1.372 . S
C379 C378 1.372 . S
C379 C380 1.400 . S
C379 C384 1.490 . S
C380 H370 0.930 . S
C380 C379 1.400 . S
C380 C383 1.386 . S
H381 C397 0.930 . S
H382 C398 0.931 . S
C383 H371 0.929 . S
C383 C377 1.390 . S
C383 C380 1.386 . S
C384 C379 1.490 . S
C384 C386 1.395 . S
C384 C387 1.403 . S
H385 C391 0.930 . S
C386 H372 0.930 . S
C386 C384 1.395 . S
C386 C389 1.403 1_545 S
C387 C384 1.403 . S
C387 C388 1.524 . S
C387 C391 1.400 1_545 S
C388 H373 0.960 . S
C388 H374 0.960 . S
C388 H375 0.960 . S
C388 C387 1.524 . S
C389 C386 1.403 1_565 S
C389 C390 1.392 . S
C389 C393 1.495 . S
C390 C389 1.392 . S
C390 C391 1.385 . S
C390 C392 1.478 . S
C391 H385 0.930 . S
C391 C387 1.400 1_565 S
C391 C390 1.385 . S
C392 C390 1.478 . S
C392 C394 1.381 . S
C392 C398 1.383 . S
C393 C389 1.495 . S
C393 H399 0.959 . S
C393 H400 0.961 . S
C393 H401 0.960 . S
C394 C392 1.381 . S
C394 C395 1.394 . S
C394 H402 0.930 . S
C395 C394 1.394 . S
C395 C396 1.383 . S
C395 H403 0.929 . S
C396 C395 1.383 . S
C396 C397 1.377 . S
C397 H381 0.930 . S
C397 C396 1.377 . S
C397 C398 1.379 . S
C398 H382 0.931 . S
C398 C392 1.383 . S
C398 C397 1.379 . S
H399 C393 0.959 . S
H400 C393 0.961 . S
H401 C393 0.960 . S
H402 C394 0.930 . S
H403 C395 0.929 . S
H404 C412 0.929 . S
H405 C414 0.930 . S
H406 C416 0.930 . S
H407 C419 0.929 . S
H408 C422 0.930 . S
H409 C424 0.960 . S
H410 C424 0.960 . S
H411 C424 0.960 . S
C412 H404 0.929 . S
C412 C413 1.377 . S
C412 C414 1.384 . S
C413 C412 1.377 . S
C413 C419 1.390 . S
C414 H405 0.930 . S
C414 C412 1.384 . S
C414 C415 1.372 . S
C415 C414 1.372 . S
C415 C416 1.400 . S
C415 C420 1.490 . S
C416 H406 0.930 . S
C416 C415 1.400 . S
C416 C419 1.386 . S
H417 C433 0.930 . S
H418 C434 0.931 . S
C419 H407 0.929 . S
C419 C413 1.390 . S
C419 C416 1.386 . S
C420 C415 1.490 . S
C420 C422 1.395 . S
C420 C423 1.403 . S
H421 C427 0.930 . S
C422 H408 0.930 . S
C422 C420 1.395 . S
C422 C425 1.403 1_655 S
C423 C420 1.403 . S
C423 C424 1.524 . S
C423 C427 1.400 1_655 S
C424 H409 0.960 . S
C424 H410 0.960 . S
C424 H411 0.960 . S
C424 C423 1.524 . S
C425 C422 1.403 1_455 S
C425 C426 1.392 . S
C425 C429 1.495 . S
C426 C425 1.392 . S
C426 C427 1.385 . S
C426 C428 1.478 . S
C427 H421 0.930 . S
C427 C423 1.400 1_455 S
C427 C426 1.385 . S
C428 C426 1.478 . S
C428 C430 1.381 . S
C428 C434 1.383 . S
C429 C425 1.495 . S
C429 H435 0.959 . S
C429 H436 0.961 . S
C429 H437 0.960 . S
C430 C428 1.381 . S
C430 C431 1.394 . S
C430 H438 0.930 . S
C431 C430 1.394 . S
C431 C432 1.383 . S
C431 H439 0.929 . S
C432 C431 1.383 . S
C432 C433 1.377 . S
C433 H417 0.930 . S
C433 C432 1.377 . S
C433 C434 1.379 . S
C434 H418 0.931 . S
C434 C428 1.383 . S
C434 C433 1.379 . S
H435 C429 0.959 . S
H436 C429 0.961 . S
H437 C429 0.960 . S
H438 C430 0.930 . S
H439 C431 0.929 . S
H440 C448 0.929 . S
H441 C450 0.930 . S
H442 C452 0.930 . S
H443 C455 0.929 . S
H444 C458 0.930 . S
H445 C460 0.960 . S
H446 C460 0.960 . S
H447 C460 0.960 . S
C448 H440 0.929 . S
C448 C449 1.377 . S
C448 C450 1.384 . S
C449 C448 1.377 . S
C449 C455 1.390 . S
C450 H441 0.930 . S
C450 C448 1.384 . S
C450 C451 1.372 . S
C451 C450 1.372 . S
C451 C452 1.400 . S
C451 C456 1.490 . S
C452 H442 0.930 . S
C452 C451 1.400 . S
C452 C455 1.386 . S
H453 C469 0.930 . S
H454 C470 0.931 . S
C455 H443 0.929 . S
C455 C449 1.390 . S
C455 C452 1.386 . S
C456 C451 1.490 . S
C456 C458 1.395 . S
C456 C459 1.403 . S
H457 C463 0.930 . S
C458 H444 0.930 . S
C458 C456 1.395 . S
C458 C461 1.403 1_545 S
C459 C456 1.403 . S
C459 C460 1.524 . S
C459 C463 1.400 1_545 S
C460 H445 0.960 . S
C460 H446 0.960 . S
C460 H447 0.960 . S
C460 C459 1.524 . S
C461 C458 1.403 1_565 S
C461 C462 1.392 . S
C461 C465 1.495 . S
C462 C461 1.392 . S
C462 C463 1.385 . S
C462 C464 1.478 . S
C463 H457 0.930 . S
C463 C459 1.400 1_565 S
C463 C462 1.385 . S
C464 C462 1.478 . S
C464 C466 1.381 . S
C464 C470 1.383 . S
C465 C461 1.495 . S
C465 H471 0.959 . S
C465 H472 0.961 . S
C465 H473 0.960 . S
C466 C464 1.381 . S
C466 C467 1.394 . S
C466 H474 0.930 . S
C467 C466 1.394 . S
C467 C468 1.383 . S
C467 H475 0.929 . S
C468 C467 1.383 . S
C468 C469 1.377 . S
C469 H453 0.930 . S
C469 C468 1.377 . S
C469 C470 1.379 . S
C470 H454 0.931 . S
C470 C464 1.383 . S
C470 C469 1.379 . S
H471 C465 0.959 . S
H472 C465 0.961 . S
H473 C465 0.960 . S
H474 C466 0.930 . S
H475 C467 0.929 . S
H476 C484 0.929 . S
H477 C486 0.930 . S
H478 C488 0.930 . S
H479 C491 0.929 . S
H480 C494 0.930 . S
H481 C496 0.960 . S
H482 C496 0.960 . S
H483 C496 0.960 . S
C484 H476 0.929 . S
C484 C485 1.377 . S
C484 C486 1.384 . S
C485 C484 1.377 . S
C485 C491 1.390 . S
C486 H477 0.930 . S
C486 C484 1.384 . S
C486 C487 1.372 . S
C487 C486 1.372 . S
C487 C488 1.400 . S
C487 C492 1.490 . S
C488 H478 0.930 . S
C488 C487 1.400 . S
C488 C491 1.386 . S
H489 C505 0.930 . S
H490 C506 0.931 . S
C491 H479 0.929 . S
C491 C485 1.390 . S
C491 C488 1.386 . S
C492 C487 1.490 . S
C492 C494 1.395 . S
C492 C495 1.403 . S
H493 C499 0.930 . S
C494 H480 0.930 . S
C494 C492 1.395 . S
C494 C497 1.403 1_455 S
C495 C492 1.403 . S
C495 C496 1.524 . S
C495 C499 1.400 1_455 S
C496 H481 0.960 . S
C496 H482 0.960 . S
C496 H483 0.960 . S
C496 C495 1.524 . S
C497 C494 1.403 1_655 S
C497 C498 1.392 . S
C497 C501 1.495 . S
C498 C497 1.392 . S
C498 C499 1.385 . S
C498 C500 1.478 . S
C499 H493 0.930 . S
C499 C495 1.400 1_655 S
C499 C498 1.385 . S
C500 C498 1.478 . S
C500 C502 1.381 . S
C500 C506 1.383 . S
C501 C497 1.495 . S
C501 H507 0.959 . S
C501 H508 0.961 . S
C501 H509 0.960 . S
C502 C500 1.381 . S
C502 C503 1.394 . S
C502 H510 0.930 . S
C503 C502 1.394 . S
C503 C504 1.383 . S
C503 H511 0.929 . S
C504 C503 1.383 . S
C504 C505 1.377 . S
C505 H489 0.930 . S
C505 C504 1.377 . S
C505 C506 1.379 . S
C506 H490 0.931 . S
C506 C500 1.383 . S
C506 C505 1.379 . S
H507 C501 0.959 . S
H508 C501 0.961 . S
H509 C501 0.960 . S
H510 C502 0.930 . S
H511 C503 0.929 . S
H512 C520 0.929 . S
H513 C522 0.930 . S
H514 C524 0.930 . S
H515 C527 0.929 . S
H516 C530 0.931 . S
H517 C532 0.960 . S
H518 C532 0.960 . S
H519 C532 0.960 1_556 S
C520 H512 0.929 . S
C520 C521 1.389 . S
C520 C522 1.384 . S
C521 C520 1.389 . S
C521 C527 1.379 1_554 S
C522 H513 0.930 . S
C522 C520 1.384 . S
C522 C523 1.372 . S
C523 C522 1.372 . S
C523 C524 1.400 1_554 S
C523 C528 1.490 . S
C524 H514 0.930 . S
C524 C523 1.400 1_556 S
C524 C527 1.386 . S
H525 C541 0.930 . S
H526 C542 0.931 . S
C527 H515 0.929 . S
C527 C521 1.379 1_556 S
C527 C524 1.386 . S
C528 C523 1.490 . S
C528 C530 1.395 . S
C528 C531 1.403 . S
H529 C535 0.930 . S
C530 H516 0.931 . S
C530 C528 1.395 . S
C530 C533 1.403 . S
C531 C528 1.403 . S
C531 C532 1.524 . S
C531 C535 1.400 . S
C532 H517 0.960 . S
C532 H518 0.960 . S
C532 H519 0.960 1_554 S
C532 C531 1.524 . S
C533 C530 1.403 . S
C533 C534 1.392 . S
C533 C537 1.493 1_554 S
C534 C533 1.392 . S
C534 C535 1.385 . S
C534 C536 1.478 . S
C535 H529 0.930 . S
C535 C531 1.400 . S
C535 C534 1.385 . S
C536 C534 1.478 . S
C536 C538 1.381 . S
C536 C542 1.383 1_554 S
C537 C533 1.493 1_556 S
C537 H543 0.961 . S
C537 H544 0.985 . S
C537 H545 0.937 1_556 S
C538 C536 1.381 . S
C538 C539 1.394 . S
C538 H546 0.930 . S
C539 C538 1.394 . S
C539 C540 1.383 . S
C539 H547 0.929 . S
C540 C539 1.383 . S
C540 C541 1.377 1_554 S
C541 H525 0.930 . S
C541 C540 1.377 1_556 S
C541 C542 1.379 . S
C542 H526 0.931 . S
C542 C536 1.383 1_556 S
C542 C541 1.379 . S
H543 C537 0.961 . S
H544 C537 0.985 . S
H545 C537 0.937 1_554 S
H546 C538 0.930 . S
H547 C539 0.929 . S
H548 C556 0.929 . S
H549 C558 0.930 . S
H550 C560 0.930 . S
H551 C563 0.929 . S
H552 C566 0.930 . S
H553 C568 0.960 . S
H554 C568 0.960 . S
H555 C568 0.960 . S
C556 H548 0.929 . S
C556 C557 1.377 . S
C556 C558 1.384 . S
C557 C556 1.377 . S
C557 C563 1.390 1_554 S
C558 H549 0.930 . S
C558 C556 1.384 . S
C558 C559 1.372 . S
C559 C558 1.372 . S
C559 C560 1.400 1_554 S
C559 C564 1.490 . S
C560 H550 0.930 . S
C560 C559 1.400 1_556 S
C560 C563 1.386 . S
H561 C577 0.930 . S
H562 C578 0.931 . S
C563 H551 0.929 . S
C563 C557 1.390 1_556 S
C563 C560 1.386 . S
C564 C559 1.490 . S
C564 C566 1.395 . S
C564 C567 1.403 1_554 S
H565 C571 0.930 . S
C566 H552 0.930 . S
C566 C564 1.395 . S
C566 C569 1.403 . S
C567 C564 1.403 1_556 S
C567 C568 1.524 . S
C567 C571 1.400 . S
C568 H553 0.960 . S
C568 H554 0.960 . S
C568 H555 0.960 . S
C568 C567 1.524 . S
C569 C566 1.403 . S
C569 C570 1.392 . S
C569 C573 1.495 . S
C570 C569 1.392 . S
C570 C571 1.385 1_554 S
C570 C572 1.478 . S
C571 H565 0.930 . S
C571 C567 1.400 . S
C571 C570 1.385 1_556 S
C572 C570 1.478 . S
C572 C574 1.381 . S
C572 C578 1.383 1_554 S
C573 C569 1.495 . S
C573 H579 0.959 . S
C573 H580 0.961 . S
C573 H581 0.960 . S
C574 C572 1.381 . S
C574 C575 1.394 . S
C574 H582 0.930 . S
C575 C574 1.394 . S
C575 C576 1.383 . S
C575 H583 0.929 . S
C576 C575 1.383 . S
C576 C577 1.377 1_554 S
C577 H561 0.930 . S
C577 C576 1.377 1_556 S
C577 C578 1.379 . S
C578 H562 0.931 . S
C578 C572 1.383 1_556 S
C578 C577 1.379 . S
H579 C573 0.959 . S
H580 C573 0.961 . S
H581 C573 0.960 . S
H582 C574 0.930 . S
H583 C575 0.929 . S
H584 C592 0.929 . S
H585 C594 0.930 . S
H586 C596 0.930 . S
H587 C599 0.929 . S
H588 C602 0.930 . S
H589 C604 0.960 . S
H590 C604 0.960 . S
H591 C604 0.960 . S
C592 H584 0.929 . S
C592 C593 1.377 1_556 S
C592 C594 1.384 . S
C593 C592 1.377 1_554 S
C593 C599 1.390 . S
C594 H585 0.930 . S
C594 C592 1.384 . S
C594 C595 1.363 1_556 S
C595 C594 1.363 1_554 S
C595 C596 1.409 . S
C595 C600 1.490 . S
C596 H586 0.930 . S
C596 C595 1.409 . S
C596 C599 1.386 . S
H597 C613 0.930 . S
H598 C614 0.931 . S
C599 H587 0.929 . S
C599 C593 1.390 . S
C599 C596 1.386 . S
C600 C595 1.490 . S
C600 C602 1.397 1_554 S
C600 C603 1.400 . S
H601 C607 0.930 . S
C602 H588 0.930 . S
C602 C600 1.397 1_556 S
C602 C605 1.403 . S
C603 C600 1.400 . S
C603 C604 1.524 . S
C603 C607 1.400 . S
C604 H589 0.960 . S
C604 H590 0.960 . S
C604 H591 0.960 . S
C604 C603 1.524 . S
C605 C602 1.403 . S
C605 C606 1.392 . S
C605 C609 1.495 . S
C606 C605 1.392 . S
C606 C607 1.385 1_556 S
C606 C608 1.478 . S
C607 H601 0.930 . S
C607 C603 1.400 . S
C607 C606 1.385 1_554 S
C608 C606 1.478 . S
C608 C610 1.381 . S
C608 C614 1.383 1_556 S
C609 C605 1.495 . S
C609 H615 0.959 . S
C609 H616 0.961 . S
C609 H617 0.960 . S
C610 C608 1.381 . S
C610 C611 1.394 . S
C610 H618 0.930 . S
C611 C610 1.394 . S
C611 C612 1.383 1_556 S
C611 H619 0.929 . S
C612 C611 1.383 1_554 S
C612 C613 1.377 . S
C613 H597 0.930 . S
C613 C612 1.377 . S
C613 C614 1.379 . S
C614 H598 0.931 . S
C614 C608 1.383 1_554 S
C614 C613 1.379 . S
H615 C609 0.959 . S
H616 C609 0.961 . S
H617 C609 0.960 . S
H618 C610 0.930 . S
H619 C611 0.929 . S
H620 C628 0.929 . S
H621 C630 0.930 . S
H622 C632 0.930 . S
H623 C635 0.929 . S
H624 C638 0.930 . S
H625 C640 0.960 . S
H626 C640 0.960 . S
H627 C640 0.960 . S
C628 H620 0.929 . S
C628 C629 1.377 1_556 S
C628 C630 1.384 . S
C629 C628 1.377 1_554 S
C629 C635 1.390 . S
C630 H621 0.930 . S
C630 C628 1.384 . S
C630 C631 1.372 1_556 S
C631 C630 1.372 1_554 S
C631 C632 1.400 . S
C631 C636 1.490 . S
C632 H622 0.930 . S
C632 C631 1.400 . S
C632 C635 1.386 . S
H633 C649 0.930 . S
H634 C650 0.931 . S
C635 H623 0.929 . S
C635 C629 1.390 . S
C635 C632 1.386 . S
C636 C631 1.490 . S
C636 C638 1.395 1_554 S
C636 C639 1.403 . S
H637 C643 0.930 . S
C638 H624 0.930 . S
C638 C636 1.395 1_556 S
C638 C641 1.403 . S
C639 C636 1.403 . S
C639 C640 1.524 . S
C639 C643 1.400 . S
C640 H625 0.960 . S
C640 H626 0.960 . S
C640 H627 0.960 . S
C640 C639 1.524 . S
C641 C638 1.403 . S
C641 C642 1.392 . S
C641 C645 1.495 . S
C642 C641 1.392 . S
C642 C643 1.385 1_556 S
C642 C644 1.478 . S
C643 H637 0.930 . S
C643 C639 1.400 . S
C643 C642 1.385 1_554 S
C644 C642 1.478 . S
C644 C646 1.381 . S
C644 C650 1.383 1_556 S
C645 C641 1.495 . S
C645 H651 0.959 . S
C645 H652 0.961 . S
C645 H653 0.960 . S
C646 C644 1.381 . S
C646 C647 1.394 . S
C646 H654 0.930 . S
C647 C646 1.394 . S
C647 C648 1.404 . S
C647 H655 0.929 . S
C648 C647 1.404 . S
C648 C649 1.356 1_556 S
C649 H633 0.930 . S
C649 C648 1.356 1_554 S
C649 C650 1.379 . S
C650 H634 0.931 . S
C650 C644 1.383 1_554 S
C650 C649 1.379 . S
H651 C645 0.959 . S
H652 C645 0.961 . S
H653 C645 0.960 . S
H654 C646 0.930 . S
H655 C647 0.929 . S
H656 C664 0.929 . S
H657 C666 0.930 . S
H658 C668 0.930 . S
H659 C671 0.929 . S
H660 C674 0.930 . S
H661 C676 0.960 . S
H662 C676 0.960 . S
H663 C676 0.960 . S
C664 H656 0.929 . S
C664 C665 1.377 . S
C664 C666 1.384 . S
C665 C664 1.377 . S
C665 C671 1.390 . S
C666 H657 0.930 . S
C666 C664 1.384 . S
C666 C667 1.372 . S
C667 C666 1.372 . S
C667 C668 1.400 . S
C667 C672 1.490 . S
C668 H658 0.930 . S
C668 C667 1.400 . S
C668 C671 1.386 . S
H669 C685 0.930 . S
H670 C686 0.931 . S
C671 H659 0.929 . S
C671 C665 1.390 . S
C671 C668 1.386 . S
C672 C667 1.490 . S
C672 C674 1.395 . S
C672 C675 1.403 . S
H673 C679 0.930 . S
C674 H660 0.930 . S
C674 C672 1.395 . S
C674 C677 1.403 . S
C675 C672 1.403 . S
C675 C676 1.524 . S
C675 C679 1.400 . S
C676 H661 0.960 . S
C676 H662 0.960 . S
C676 H663 0.960 . S
C676 C675 1.524 . S
C677 C674 1.403 . S
C677 C678 1.392 . S
C677 C681 1.495 . S
C678 C677 1.392 . S
C678 C679 1.385 . S
C678 C680 1.478 . S
C679 H673 0.930 . S
C679 C675 1.400 . S
C679 C678 1.385 . S
C680 C678 1.478 . S
C680 C682 1.381 . S
C680 C686 1.383 . S
C681 C677 1.495 . S
C681 H687 0.959 . S
C681 H688 0.961 . S
C681 H689 0.960 . S
C682 C680 1.381 . S
C682 C683 1.394 . S
C682 H690 0.930 . S
C683 C682 1.394 . S
C683 C684 1.383 . S
C683 H691 0.929 . S
C684 C683 1.383 . S
C684 C685 1.377 . S
C685 H669 0.930 . S
C685 C684 1.377 . S
C685 C686 1.379 . S
C686 H670 0.931 . S
C686 C680 1.383 . S
C686 C685 1.379 . S
H687 C681 0.959 . S
H688 C681 0.961 . S
H689 C681 0.960 . S
H690 C682 0.930 . S
H691 C683 0.929 . S
H692 C700 0.929 . S
H693 C702 0.930 . S
H694 C704 0.930 . S
H695 C707 0.929 . S
H696 C710 0.930 . S
H697 C712 0.960 . S
H698 C712 0.960 . S
H699 C712 0.960 . S
C700 H692 0.929 . S
C700 C701 1.377 . S
C700 C702 1.384 . S
C701 C700 1.377 . S
C701 C707 1.390 . S
C702 H693 0.930 . S
C702 C700 1.384 . S
C702 C703 1.372 . S
C703 C702 1.372 . S
C703 C704 1.400 . S
C703 C708 1.490 . S
C704 H694 0.930 . S
C704 C703 1.400 . S
C704 C707 1.386 . S
H705 C721 0.930 . S
H706 C722 0.931 . S
C707 H695 0.929 . S
C707 C701 1.390 . S
C707 C704 1.386 . S
C708 C703 1.490 . S
C708 C710 1.395 . S
C708 C711 1.403 . S
H709 C715 0.930 . S
C710 H696 0.930 . S
C710 C708 1.395 . S
C710 C713 1.403 . S
C711 C708 1.403 . S
C711 C712 1.524 . S
C711 C715 1.400 . S
C712 H697 0.960 . S
C712 H698 0.960 . S
C712 H699 0.960 . S
C712 C711 1.524 . S
C713 C710 1.403 . S
C713 C714 1.392 . S
C713 C717 1.495 . S
C714 C713 1.392 . S
C714 C715 1.385 . S
C714 C716 1.478 . S
C715 H709 0.930 . S
C715 C711 1.400 . S
C715 C714 1.385 . S
C716 C714 1.478 . S
C716 C718 1.381 . S
C716 C722 1.383 . S
C717 C713 1.495 . S
C717 H723 0.959 . S
C717 H724 0.961 . S
C717 H725 0.960 . S
C718 C716 1.381 . S
C718 C719 1.394 . S
C718 H726 0.930 . S
C719 C718 1.394 . S
C719 C720 1.383 . S
C719 H727 0.929 . S
C720 C719 1.383 . S
C720 C721 1.377 . S
C721 H705 0.930 . S
C721 C720 1.377 . S
C721 C722 1.379 . S
C722 H706 0.931 . S
C722 C716 1.383 . S
C722 C721 1.379 . S
H723 C717 0.959 . S
H724 C717 0.961 . S
H725 C717 0.960 . S
H726 C718 0.930 . S
H727 C719 0.929 . S
H728 C736 0.929 . S
H729 C738 0.930 . S
H730 C740 0.930 . S
H731 C743 0.929 . S
H732 C746 0.930 . S
H733 C748 0.960 . S
H734 C748 0.960 . S
H735 C748 0.960 . S
C736 H728 0.929 . S
C736 C737 1.377 . S
C736 C738 1.384 . S
C737 C736 1.377 . S
C737 C743 1.390 . S
C738 H729 0.930 . S
C738 C736 1.384 . S
C738 C739 1.372 . S
C739 C738 1.372 . S
C739 C740 1.400 . S
C739 C744 1.490 . S
C740 H730 0.930 . S
C740 C739 1.400 . S
C740 C743 1.386 . S
H741 C757 0.930 . S
H742 C758 0.931 . S
C743 H731 0.929 . S
C743 C737 1.390 . S
C743 C740 1.386 . S
C744 C739 1.490 . S
C744 C746 1.395 . S
C744 C747 1.403 . S
H745 C751 0.930 . S
C746 H732 0.930 . S
C746 C744 1.395 . S
C746 C749 1.403 . S
C747 C744 1.403 . S
C747 C748 1.524 . S
C747 C751 1.400 . S
C748 H733 0.960 . S
C748 H734 0.960 . S
C748 H735 0.960 . S
C748 C747 1.524 . S
C749 C746 1.403 . S
C749 C750 1.392 . S
C749 C753 1.495 . S
C750 C749 1.392 . S
C750 C751 1.385 . S
C750 C752 1.478 . S
C751 H745 0.930 . S
C751 C747 1.400 . S
C751 C750 1.385 . S
C752 C750 1.478 . S
C752 C754 1.381 . S
C752 C758 1.383 . S
C753 C749 1.495 . S
C753 H759 0.959 . S
C753 H760 0.961 . S
C753 H761 0.960 . S
C754 C752 1.381 . S
C754 C755 1.394 . S
C754 H762 0.930 . S
C755 C754 1.394 . S
C755 C756 1.383 . S
C755 H763 0.929 . S
C756 C755 1.383 . S
C756 C757 1.377 . S
C757 H741 0.930 . S
C757 C756 1.377 . S
C757 C758 1.379 . S
C758 H742 0.931 . S
C758 C752 1.383 . S
C758 C757 1.379 . S
H759 C753 0.959 . S
H760 C753 0.961 . S
H761 C753 0.960 . S
H762 C754 0.930 . S
H763 C755 0.929 . S
H764 C772 0.929 . S
H765 C774 0.930 . S
H766 C776 0.930 . S
H767 C779 0.929 . S
H768 C782 0.930 . S
H769 C784 0.960 . S
H770 C784 0.960 . S
H771 C784 0.960 . S
C772 H764 0.929 . S
C772 C773 1.377 . S
C772 C774 1.384 . S
C773 C772 1.377 . S
C773 C779 1.390 . S
C774 H765 0.930 . S
C774 C772 1.384 . S
C774 C775 1.372 . S
C775 C774 1.372 . S
C775 C776 1.400 . S
C775 C780 1.490 . S
C776 H766 0.930 . S
C776 C775 1.400 . S
C776 C779 1.386 . S
H777 C793 0.930 . S
H778 C794 0.931 . S
C779 H767 0.929 . S
C779 C773 1.390 . S
C779 C776 1.386 . S
C780 C775 1.490 . S
C780 C782 1.395 . S
C780 C783 1.403 . S
H781 C787 0.930 . S
C782 H768 0.930 . S
C782 C780 1.395 . S
C782 C785 1.403 . S
C783 C780 1.403 . S
C783 C784 1.524 . S
C783 C787 1.400 . S
C784 H769 0.960 . S
C784 H770 0.960 . S
C784 H771 0.960 . S
C784 C783 1.524 . S
C785 C782 1.403 . S
C785 C786 1.392 . S
C785 C789 1.495 . S
C786 C785 1.392 . S
C786 C787 1.385 . S
C786 C788 1.478 . S
C787 H781 0.930 . S
C787 C783 1.400 . S
C787 C786 1.385 . S
C788 C786 1.478 . S
C788 C790 1.381 . S
C788 C794 1.383 . S
C789 C785 1.495 . S
C789 H795 0.959 . S
C789 H796 0.961 . S
C789 H797 0.960 . S
C790 C788 1.381 . S
C790 C791 1.394 . S
C790 H798 0.930 . S
C791 C790 1.394 . S
C791 C792 1.383 . S
C791 H799 0.929 . S
C792 C791 1.383 . S
C792 C793 1.377 . S
C793 H777 0.930 . S
C793 C792 1.377 . S
C793 C794 1.379 . S
C794 H778 0.931 . S
C794 C788 1.383 . S
C794 C793 1.379 . S
H795 C789 0.959 . S
H796 C789 0.961 . S
H797 C789 0.960 . S
H798 C790 0.930 . S
H799 C791 0.929 . S
H800 C808 0.929 . S
H801 C810 0.930 . S
H802 C812 0.930 . S
H803 C815 0.929 . S
H804 C818 0.930 . S
H805 C820 0.960 . S
H806 C820 0.960 . S
H807 C820 0.960 . S
C808 H800 0.929 . S
C808 C809 1.377 . S
C808 C810 1.384 . S
C809 C808 1.377 . S
C809 C815 1.390 . S
C810 H801 0.930 . S
C810 C808 1.384 . S
C810 C811 1.372 . S
C811 C810 1.372 . S
C811 C812 1.400 . S
C811 C816 1.490 . S
C812 H802 0.930 . S
C812 C811 1.400 . S
C812 C815 1.386 . S
H813 C829 0.930 . S
H814 C830 0.931 . S
C815 H803 0.929 . S
C815 C809 1.390 . S
C815 C812 1.386 . S
C816 C811 1.490 . S
C816 C818 1.395 . S
C816 C819 1.403 . S
H817 C823 0.930 . S
C818 H804 0.930 . S
C818 C816 1.395 . S
C818 C821 1.403 . S
C819 C816 1.403 . S
C819 C820 1.524 . S
C819 C823 1.400 . S
C820 H805 0.960 . S
C820 H806 0.960 . S
C820 H807 0.960 . S
C820 C819 1.524 . S
C821 C818 1.403 . S
C821 C822 1.392 . S
C821 C825 1.495 . S
C822 C821 1.392 . S
C822 C823 1.385 . S
C822 C824 1.478 . S
C823 H817 0.930 . S
C823 C819 1.400 . S
C823 C822 1.385 . S
C824 C822 1.478 . S
C824 C826 1.381 . S
C824 C830 1.383 . S
C825 C821 1.495 . S
C825 H831 0.959 . S
C825 H832 0.961 . S
C825 H833 0.960 . S
C826 C824 1.381 . S
C826 C827 1.394 . S
C826 H834 0.930 . S
C827 C826 1.394 . S
C827 C828 1.383 . S
C827 H835 0.929 . S
C828 C827 1.383 . S
C828 C829 1.377 . S
C829 H813 0.930 . S
C829 C828 1.377 . S
C829 C830 1.379 . S
C830 H814 0.931 . S
C830 C824 1.383 . S
C830 C829 1.379 . S
H831 C825 0.959 . S
H832 C825 0.961 . S
H833 C825 0.960 . S
H834 C826 0.930 . S
H835 C827 0.929 . S
H836 C844 0.929 . S
H837 C846 0.930 . S
H838 C848 0.930 . S
H839 C851 0.929 . S
H840 C854 0.930 . S
H841 C856 0.960 . S
H842 C856 0.960 . S
H843 C856 0.960 . S
C844 H836 0.929 . S
C844 C845 1.377 . S
C844 C846 1.384 . S
C845 C844 1.377 . S
C845 C851 1.390 . S
C846 H837 0.930 . S
C846 C844 1.384 . S
C846 C847 1.372 . S
C847 C846 1.372 . S
C847 C848 1.400 . S
C847 C852 1.490 . S
C848 H838 0.930 . S
C848 C847 1.400 . S
C848 C851 1.386 . S
H849 C865 0.930 . S
H850 C866 0.931 . S
C851 H839 0.929 . S
C851 C845 1.390 . S
C851 C848 1.386 . S
C852 C847 1.490 . S
C852 C854 1.395 . S
C852 C855 1.403 . S
H853 C859 0.930 . S
C854 H840 0.930 . S
C854 C852 1.395 . S
C854 C857 1.403 . S
C855 C852 1.403 . S
C855 C856 1.524 . S
C855 C859 1.400 . S
C856 H841 0.960 . S
C856 H842 0.960 . S
C856 H843 0.960 . S
C856 C855 1.524 . S
C857 C854 1.403 . S
C857 C858 1.392 . S
C857 C861 1.495 . S
C858 C857 1.392 . S
C858 C859 1.385 . S
C858 C860 1.478 . S
C859 H853 0.930 . S
C859 C855 1.400 . S
C859 C858 1.385 . S
C860 C858 1.478 . S
C860 C862 1.381 . S
C860 C866 1.383 . S
C861 C857 1.495 . S
C861 H867 0.959 . S
C861 H868 0.961 . S
C861 H869 0.960 . S
C862 C860 1.381 . S
C862 C863 1.394 . S
C862 H870 0.930 . S
C863 C862 1.394 . S
C863 C864 1.383 . S
C863 H871 0.929 . S
C864 C863 1.383 . S
C864 C865 1.377 . S
C865 H849 0.930 . S
C865 C864 1.377 . S
C865 C866 1.379 . S
C866 H850 0.931 . S
C866 C860 1.383 . S
C866 C865 1.379 . S
H867 C861 0.959 . S
H868 C861 0.961 . S
H869 C861 0.960 . S
H870 C862 0.930 . S
H871 C863 0.929 . S
H872 C880 0.929 . S
H873 C882 0.930 . S
H874 C884 0.930 . S
H875 C887 0.929 . S
H876 C890 0.930 . S
H877 C892 0.960 . S
H878 C892 0.960 . S
H879 C892 0.960 . S
C880 H872 0.929 . S
C880 C881 1.377 . S
C880 C882 1.384 . S
C881 C880 1.377 . S
C881 C887 1.390 . S
C882 H873 0.930 . S
C882 C880 1.384 . S
C882 C883 1.372 . S
C883 C882 1.372 . S
C883 C884 1.400 . S
C883 C888 1.490 . S
C884 H874 0.930 . S
C884 C883 1.400 . S
C884 C887 1.386 . S
H885 C901 0.930 . S
H886 C902 0.931 . S
C887 H875 0.929 . S
C887 C881 1.390 . S
C887 C884 1.386 . S
C888 C883 1.490 . S
C888 C890 1.395 . S
C888 C891 1.403 . S
H889 C895 0.930 . S
C890 H876 0.930 . S
C890 C888 1.395 . S
C890 C893 1.403 . S
C891 C888 1.403 . S
C891 C892 1.524 . S
C891 C895 1.400 . S
C892 H877 0.960 . S
C892 H878 0.960 . S
C892 H879 0.960 . S
C892 C891 1.524 . S
C893 C890 1.403 . S
C893 C894 1.392 . S
C893 C897 1.495 . S
C894 C893 1.392 . S
C894 C895 1.385 . S
C894 C896 1.478 . S
C895 H889 0.930 . S
C895 C891 1.400 . S
C895 C894 1.385 . S
C896 C894 1.478 . S
C896 C898 1.381 . S
C896 C902 1.383 . S
C897 C893 1.495 . S
C897 H903 0.959 . S
C897 H904 0.961 . S
C897 H905 0.960 . S
C898 C896 1.381 . S
C898 C899 1.394 . S
C898 H906 0.930 . S
C899 C898 1.394 . S
C899 C900 1.383 . S
C899 H907 0.929 . S
C900 C899 1.383 . S
C900 C901 1.377 . S
C901 H885 0.930 . S
C901 C900 1.377 . S
C901 C902 1.379 . S
C902 H886 0.931 . S
C902 C896 1.383 . S
C902 C901 1.379 . S
H903 C897 0.959 . S
H904 C897 0.961 . S
H905 C897 0.960 . S
H906 C898 0.930 . S
H907 C899 0.929 . S
H908 C916 0.929 . S
H909 C918 0.930 . S
H910 C920 0.930 . S
H911 C923 0.929 . S
H912 C926 0.930 . S
H913 C928 0.960 . S
H914 C928 0.960 . S
H915 C928 0.960 . S
C916 H908 0.929 . S
C916 C917 1.377 . S
C916 C918 1.384 . S
C917 C916 1.377 . S
C917 C923 1.390 . S
C918 H909 0.930 . S
C918 C916 1.384 . S
C918 C919 1.372 . S
C919 C918 1.372 . S
C919 C920 1.400 . S
C919 C924 1.490 . S
C920 H910 0.930 . S
C920 C919 1.400 . S
C920 C923 1.386 . S
H921 C937 0.930 . S
H922 C938 0.931 . S
C923 H911 0.929 . S
C923 C917 1.390 . S
C923 C920 1.386 . S
C924 C919 1.490 . S
C924 C926 1.395 . S
C924 C927 1.403 . S
H925 C931 0.930 . S
C926 H912 0.930 . S
C926 C924 1.395 . S
C926 C929 1.403 . S
C927 C924 1.403 . S
C927 C928 1.524 . S
C927 C931 1.400 . S
C928 H913 0.960 . S
C928 H914 0.960 . S
C928 H915 0.960 . S
C928 C927 1.524 . S
C929 C926 1.403 . S
C929 C930 1.392 . S
C929 C933 1.495 . S
C930 C929 1.392 . S
C930 C931 1.385 . S
C930 C932 1.478 . S
C931 H925 0.930 . S
C931 C927 1.400 . S
C931 C930 1.385 . S
C932 C930 1.478 . S
C932 C934 1.381 . S
C932 C938 1.383 . S
C933 C929 1.495 . S
C933 H939 0.959 . S
C933 H940 0.961 . S
C933 H941 0.960 . S
C934 C932 1.381 . S
C934 C935 1.394 . S
C934 H942 0.930 . S
C935 C934 1.394 . S
C935 C936 1.383 . S
C935 H943 0.929 . S
C936 C935 1.383 . S
C936 C937 1.377 . S
C937 H921 0.930 . S
C937 C936 1.377 . S
C937 C938 1.379 . S
C938 H922 0.931 . S
C938 C932 1.383 . S
C938 C937 1.379 . S
H939 C933 0.959 . S
H940 C933 0.961 . S
H941 C933 0.960 . S
H942 C934 0.930 . S
H943 C935 0.929 . S
H944 C952 0.929 . S
H945 C954 0.930 . S
H946 C956 0.930 . S
H947 C959 0.929 . S
H948 C962 0.930 . S
H949 C964 0.960 . S
H950 C964 0.960 . S
H951 C964 0.960 . S
C952 H944 0.929 . S
C952 C953 1.377 . S
C952 C954 1.384 . S
C953 C952 1.377 . S
C953 C959 1.390 . S
C954 H945 0.930 . S
C954 C952 1.384 . S
C954 C955 1.372 . S
C955 C954 1.372 . S
C955 C956 1.400 . S
C955 C960 1.490 . S
C956 H946 0.930 . S
C956 C955 1.400 . S
C956 C959 1.386 . S
H957 C973 0.930 . S
H958 C974 0.931 . S
C959 H947 0.929 . S
C959 C953 1.390 . S
C959 C956 1.386 . S
C960 C955 1.490 . S
C960 C962 1.395 . S
C960 C963 1.403 . S
H961 C967 0.930 . S
C962 H948 0.930 . S
C962 C960 1.395 . S
C962 C965 1.403 . S
C963 C960 1.403 . S
C963 C964 1.524 . S
C963 C967 1.400 . S
C964 H949 0.960 . S
C964 H950 0.960 . S
C964 H951 0.960 . S
C964 C963 1.524 . S
C965 C962 1.403 . S
C965 C966 1.392 . S
C965 C969 1.495 . S
C966 C965 1.392 . S
C966 C967 1.385 . S
C966 C968 1.478 . S
C967 H961 0.930 . S
C967 C963 1.400 . S
C967 C966 1.385 . S
C968 C966 1.478 . S
C968 C970 1.381 . S
C968 C974 1.383 . S
C969 C965 1.495 . S
C969 H975 0.959 . S
C969 H976 0.961 . S
C969 H977 0.960 . S
C970 C968 1.381 . S
C970 C971 1.394 . S
C970 H978 0.930 . S
C971 C970 1.394 . S
C971 C972 1.383 . S
C971 H979 0.929 . S
C972 C971 1.383 . S
C972 C973 1.377 . S
C973 H957 0.930 . S
C973 C972 1.377 . S
C973 C974 1.379 . S
C974 H958 0.931 . S
C974 C968 1.383 . S
C974 C973 1.379 . S
H975 C969 0.959 . S
H976 C969 0.961 . S
H977 C969 0.960 . S
H978 C970 0.930 . S
H979 C971 0.929 . S
H980 C988 0.929 . S
H981 C990 0.930 . S
H982 C992 0.930 . S
H983 C995 0.929 . S
H984 C998 0.930 . S
H985 C1000 0.960 . S
H986 C1000 0.960 . S
H987 C1000 0.960 . S
C988 H980 0.929 . S
C988 C989 1.377 . S
C988 C990 1.384 . S
C989 C988 1.377 . S
C989 C995 1.390 . S
C990 H981 0.930 . S
C990 C988 1.384 . S
C990 C991 1.372 . S
C991 C990 1.372 . S
C991 C992 1.400 . S
C991 C996 1.490 . S
C992 H982 0.930 . S
C992 C991 1.400 . S
C992 C995 1.386 . S
H993 C1009 0.930 . S
H994 C1010 0.931 . S
C995 H983 0.929 . S
C995 C989 1.390 . S
C995 C992 1.386 . S
C996 C991 1.490 . S
C996 C998 1.395 . S
C996 C999 1.403 . S
H997 C1003 0.930 . S
C998 H984 0.930 . S
C998 C996 1.395 . S
C998 C1001 1.403 . S
C999 C996 1.403 . S
C999 C1000 1.524 . S
C999 C1003 1.400 . S
C1000 H985 0.960 . S
C1000 H986 0.960 . S
C1000 H987 0.960 . S
C1000 C999 1.524 . S
C1001 C998 1.403 . S
C1001 C1002 1.392 . S
C1001 C1005 1.495 . S
C1002 C1001 1.392 . S
C1002 C1003 1.385 . S
C1002 C1004 1.478 . S
C1003 H997 0.930 . S
C1003 C999 1.400 . S
C1003 C1002 1.385 . S
C1004 C1002 1.478 . S
C1004 C1006 1.381 . S
C1004 C1010 1.383 . S
C1005 C1001 1.495 . S
C1005 H1011 0.959 . S
C1005 H1012 0.961 . S
C1005 H1013 0.960 . S
C1006 C1004 1.381 . S
C1006 C1007 1.394 . S
C1006 H1014 0.930 . S
C1007 C1006 1.394 . S
C1007 C1008 1.383 . S
C1007 H1015 0.929 . S
C1008 C1007 1.383 . S
C1008 C1009 1.377 . S
C1009 H993 0.930 . S
C1009 C1008 1.377 . S
C1009 C1010 1.379 . S
C1010 H994 0.931 . S
C1010 C1004 1.383 . S
C1010 C1009 1.379 . S
H1011 C1005 0.959 . S
H1012 C1005 0.961 . S
H1013 C1005 0.960 . S
H1014 C1006 0.930 . S
H1015 C1007 0.929 . S
H1016 C1024 0.929 . S
H1017 C1026 0.930 . S
H1018 C1028 0.930 . S
H1019 C1031 0.929 . S
H1020 C1034 0.930 . S
H1021 C1036 0.960 . S
H1022 C1036 0.960 . S
H1023 C1036 0.960 . S
C1024 H1016 0.929 . S
C1024 C1025 1.377 . S
C1024 C1026 1.384 . S
C1025 C1024 1.377 . S
C1025 C1031 1.390 . S
C1026 H1017 0.930 . S
C1026 C1024 1.384 . S
C1026 C1027 1.372 . S
C1027 C1026 1.372 . S
C1027 C1028 1.400 . S
C1027 C1032 1.490 . S
C1028 H1018 0.930 . S
C1028 C1027 1.400 . S
C1028 C1031 1.386 . S
H1029 C1045 0.930 . S
H1030 C1046 0.931 . S
C1031 H1019 0.929 . S
C1031 C1025 1.390 . S
C1031 C1028 1.386 . S
C1032 C1027 1.490 . S
C1032 C1034 1.395 . S
C1032 C1035 1.403 . S
H1033 C1039 0.930 . S
C1034 H1020 0.930 . S
C1034 C1032 1.395 . S
C1034 C1037 1.403 . S
C1035 C1032 1.403 . S
C1035 C1036 1.524 . S
C1035 C1039 1.400 . S
C1036 H1021 0.960 . S
C1036 H1022 0.960 . S
C1036 H1023 0.960 . S
C1036 C1035 1.524 . S
C1037 C1034 1.403 . S
C1037 C1038 1.392 . S
C1037 C1041 1.495 . S
C1038 C1037 1.392 . S
C1038 C1039 1.385 . S
C1038 C1040 1.478 . S
C1039 H1033 0.930 . S
C1039 C1035 1.400 . S
C1039 C1038 1.385 . S
C1040 C1038 1.478 . S
C1040 C1042 1.381 . S
C1040 C1046 1.383 . S
C1041 C1037 1.495 . S
C1041 H1047 0.959 . S
C1041 H1048 0.961 . S
C1041 H1049 0.960 . S
C1042 C1040 1.381 . S
C1042 C1043 1.394 . S
C1042 H1050 0.930 . S
C1043 C1042 1.394 . S
C1043 C1044 1.383 . S
C1043 H1051 0.929 . S
C1044 C1043 1.383 . S
C1044 C1045 1.377 . S
C1045 H1029 0.930 . S
C1045 C1044 1.377 . S
C1045 C1046 1.379 . S
C1046 H1030 0.931 . S
C1046 C1040 1.383 . S
C1046 C1045 1.379 . S
H1047 C1041 0.959 . S
H1048 C1041 0.961 . S
H1049 C1041 0.960 . S
H1050 C1042 0.930 . S
H1051 C1043 0.929 . S
H1052 C1060 0.929 . S
H1053 C1062 0.930 . S
H1054 C1064 0.930 . S
H1055 C1067 0.929 . S
H1056 C1070 0.930 . S
H1057 C1072 0.960 . S
H1058 C1072 0.960 . S
H1059 C1072 0.960 . S
C1060 H1052 0.929 . S
C1060 C1061 1.377 . S
C1060 C1062 1.384 . S
C1061 C1060 1.377 . S
C1061 C1067 1.390 . S
C1062 H1053 0.930 . S
C1062 C1060 1.384 . S
C1062 C1063 1.372 . S
C1063 C1062 1.372 . S
C1063 C1064 1.400 . S
C1063 C1068 1.490 . S
C1064 H1054 0.930 . S
C1064 C1063 1.400 . S
C1064 C1067 1.386 . S
H1065 C1081 0.930 . S
H1066 C1082 0.931 . S
C1067 H1055 0.929 . S
C1067 C1061 1.390 . S
C1067 C1064 1.386 . S
C1068 C1063 1.490 . S
C1068 C1070 1.395 . S
C1068 C1071 1.403 . S
H1069 C1075 0.930 . S
C1070 H1056 0.930 . S
C1070 C1068 1.395 . S
C1070 C1073 1.403 . S
C1071 C1068 1.403 . S
C1071 C1072 1.524 . S
C1071 C1075 1.400 . S
C1072 H1057 0.960 . S
C1072 H1058 0.960 . S
C1072 H1059 0.960 . S
C1072 C1071 1.524 . S
C1073 C1070 1.403 . S
C1073 C1074 1.392 . S
C1073 C1077 1.495 . S
C1074 C1073 1.392 . S
C1074 C1075 1.385 . S
C1074 C1076 1.478 . S
C1075 H1069 0.930 . S
C1075 C1071 1.400 . S
C1075 C1074 1.385 . S
C1076 C1074 1.478 . S
C1076 C1078 1.381 . S
C1076 C1082 1.383 . S
C1077 C1073 1.495 . S
C1077 H1083 0.959 . S
C1077 H1084 0.961 . S
C1077 H1085 0.960 . S
C1078 C1076 1.381 . S
C1078 C1079 1.394 . S
C1078 H1086 0.930 . S
C1079 C1078 1.394 . S
C1079 C1080 1.383 . S
C1079 H1087 0.929 . S
C1080 C1079 1.383 . S
C1080 C1081 1.377 . S
C1081 H1065 0.930 . S
C1081 C1080 1.377 . S
C1081 C1082 1.379 . S
C1082 H1066 0.931 . S
C1082 C1076 1.383 . S
C1082 C1081 1.379 . S
H1083 C1077 0.959 . S
H1084 C1077 0.961 . S
H1085 C1077 0.960 . S
H1086 C1078 0.930 . S
H1087 C1079 0.929 . S
H1088 C1096 0.929 . S
H1089 C1098 0.930 . S
H1090 C1100 0.930 . S
H1091 C1103 0.929 . S
H1092 C1106 0.930 . S
H1093 C1108 0.960 . S
H1094 C1108 0.960 . S
H1095 C1108 0.960 . S
C1096 H1088 0.929 . S
C1096 C1097 1.377 . S
C1096 C1098 1.384 . S
C1097 C1096 1.377 . S
C1097 C1103 1.390 . S
C1098 H1089 0.930 . S
C1098 C1096 1.384 . S
C1098 C1099 1.372 . S
C1099 C1098 1.372 . S
C1099 C1100 1.400 . S
C1099 C1104 1.490 . S
C1100 H1090 0.930 . S
C1100 C1099 1.400 . S
C1100 C1103 1.386 . S
H1101 C1117 0.930 . S
H1102 C1118 0.931 . S
C1103 H1091 0.929 . S
C1103 C1097 1.390 . S
C1103 C1100 1.386 . S
C1104 C1099 1.490 . S
C1104 C1106 1.395 . S
C1104 C1107 1.403 . S
H1105 C1111 0.930 . S
C1106 H1092 0.930 . S
C1106 C1104 1.395 . S
C1106 C1109 1.403 . S
C1107 C1104 1.403 . S
C1107 C1108 1.524 . S
C1107 C1111 1.400 . S
C1108 H1093 0.960 . S
C1108 H1094 0.960 . S
C1108 H1095 0.960 . S
C1108 C1107 1.524 . S
C1109 C1106 1.403 . S
C1109 C1110 1.392 . S
C1109 C1113 1.495 . S
C1110 C1109 1.392 . S
C1110 C1111 1.385 . S
C1110 C1112 1.478 . S
C1111 H1105 0.930 . S
C1111 C1107 1.400 . S
C1111 C1110 1.385 . S
C1112 C1110 1.478 . S
C1112 C1114 1.381 . S
C1112 C1118 1.383 . S
C1113 C1109 1.495 . S
C1113 H1119 0.959 . S
C1113 H1120 0.961 . S
C1113 H1121 0.960 . S
C1114 C1112 1.381 . S
C1114 C1115 1.394 . S
C1114 H1122 0.930 . S
C1115 C1114 1.394 . S
C1115 C1116 1.383 . S
C1115 H1123 0.929 . S
C1116 C1115 1.383 . S
C1116 C1117 1.377 . S
C1117 H1101 0.930 . S
C1117 C1116 1.377 . S
C1117 C1118 1.379 . S
C1118 H1102 0.931 . S
C1118 C1112 1.383 . S
C1118 C1117 1.379 . S
H1119 C1113 0.959 . S
H1120 C1113 0.961 . S
H1121 C1113 0.960 . S
H1122 C1114 0.930 . S
H1123 C1115 0.929 . S
H1124 C1132 0.929 . S
H1125 C1134 0.930 . S
H1126 C1136 0.930 . S
H1127 C1139 0.929 . S
H1128 C1142 0.930 . S
H1129 C1144 0.960 . S
H1130 C1144 0.960 . S
H1131 C1144 0.960 . S
C1132 H1124 0.929 . S
C1132 C1133 1.377 . S
C1132 C1134 1.384 . S
C1133 C1132 1.377 . S
C1133 C1139 1.390 . S
C1134 H1125 0.930 . S
C1134 C1132 1.384 . S
C1134 C1135 1.372 . S
C1135 C1134 1.372 . S
C1135 C1136 1.400 . S
C1135 C1140 1.490 . S
C1136 H1126 0.930 . S
C1136 C1135 1.400 . S
C1136 C1139 1.386 . S
H1137 C1153 0.930 . S
H1138 C1154 0.931 . S
C1139 H1127 0.929 . S
C1139 C1133 1.390 . S
C1139 C1136 1.386 . S
C1140 C1135 1.490 . S
C1140 C1142 1.395 . S
C1140 C1143 1.403 . S
H1141 C1147 0.930 . S
C1142 H1128 0.930 . S
C1142 C1140 1.395 . S
C1142 C1145 1.403 . S
C1143 C1140 1.403 . S
C1143 C1144 1.524 . S
C1143 C1147 1.400 . S
C1144 H1129 0.960 . S
C1144 H1130 0.960 . S
C1144 H1131 0.960 . S
C1144 C1143 1.524 . S
C1145 C1142 1.403 . S
C1145 C1146 1.392 . S
C1145 C1149 1.495 . S
C1146 C1145 1.392 . S
C1146 C1147 1.385 . S
C1146 C1148 1.478 . S
C1147 H1141 0.930 . S
C1147 C1143 1.400 . S
C1147 C1146 1.385 . S
C1148 C1146 1.478 . S
C1148 C1150 1.381 . S
C1148 C1154 1.383 . S
C1149 C1145 1.495 . S
C1149 H1155 0.959 . S
C1149 H1156 0.961 . S
C1149 H1157 0.960 . S
C1150 C1148 1.381 . S
C1150 C1151 1.394 . S
C1150 H1158 0.930 . S
C1151 C1150 1.394 . S
C1151 C1152 1.383 . S
C1151 H1159 0.929 . S
C1152 C1151 1.383 . S
C1152 C1153 1.377 . S
C1153 H1137 0.930 . S
C1153 C1152 1.377 . S
C1153 C1154 1.379 . S
C1154 H1138 0.931 . S
C1154 C1148 1.383 . S
C1154 C1153 1.379 . S
H1155 C1149 0.959 . S
H1156 C1149 0.961 . S
H1157 C1149 0.960 . S
H1158 C1150 0.930 . S
H1159 C1151 0.929 . S
H1160 C1168 0.929 . S
H1161 C1170 0.930 . S
H1162 C1172 0.930 . S
H1163 C1175 0.929 . S
H1164 C1178 0.930 . S
H1165 C1180 0.960 . S
H1166 C1180 0.960 . S
H1167 C1180 0.960 . S
C1168 H1160 0.929 . S
C1168 C1169 1.377 . S
C1168 C1170 1.384 . S
C1169 C1168 1.377 . S
C1169 C1175 1.390 . S
C1170 H1161 0.930 . S
C1170 C1168 1.384 . S
C1170 C1171 1.372 . S
C1171 C1170 1.372 . S
C1171 C1172 1.400 . S
C1171 C1176 1.490 . S
C1172 H1162 0.930 . S
C1172 C1171 1.400 . S
C1172 C1175 1.386 . S
H1173 C1189 0.930 . S
H1174 C1190 0.931 . S
C1175 H1163 0.929 . S
C1175 C1169 1.390 . S
C1175 C1172 1.386 . S
C1176 C1171 1.490 . S
C1176 C1178 1.395 . S
C1176 C1179 1.403 . S
H1177 C1183 0.930 . S
C1178 H1164 0.930 . S
C1178 C1176 1.395 . S
C1178 C1181 1.403 . S
C1179 C1176 1.403 . S
C1179 C1180 1.524 . S
C1179 C1183 1.400 . S
C1180 H1165 0.960 . S
C1180 H1166 0.960 . S
C1180 H1167 0.960 . S
C1180 C1179 1.524 . S
C1181 C1178 1.403 . S
C1181 C1182 1.392 . S
C1181 C1185 1.495 . S
C1182 C1181 1.392 . S
C1182 C1183 1.385 . S
C1182 C1184 1.478 . S
C1183 H1177 0.930 . S
C1183 C1179 1.400 . S
C1183 C1182 1.385 . S
C1184 C1182 1.478 . S
C1184 C1186 1.381 . S
C1184 C1190 1.383 . S
C1185 C1181 1.495 . S
C1185 H1191 0.959 . S
C1185 H1192 0.961 . S
C1185 H1193 0.960 . S
C1186 C1184 1.381 . S
C1186 C1187 1.394 . S
C1186 H1194 0.930 . S
C1187 C1186 1.394 . S
C1187 C1188 1.383 . S
C1187 H1195 0.929 . S
C1188 C1187 1.383 . S
C1188 C1189 1.377 . S
C1189 H1173 0.930 . S
C1189 C1188 1.377 . S
C1189 C1190 1.379 . S
C1190 H1174 0.931 . S
C1190 C1184 1.383 . S
C1190 C1189 1.379 . S
H1191 C1185 0.959 . S
H1192 C1185 0.961 . S
H1193 C1185 0.960 . S
H1194 C1186 0.930 . S
H1195 C1187 0.929 . S
H1196 C1204 0.929 . S
H1197 C1206 0.930 . S
H1198 C1208 0.930 . S
H1199 C1211 0.929 . S
H1200 C1214 0.930 . S
H1201 C1216 0.960 . S
H1202 C1216 0.960 . S
H1203 C1216 0.960 . S
C1204 H1196 0.929 . S
C1204 C1205 1.377 . S
C1204 C1206 1.384 . S
C1205 C1204 1.377 . S
C1205 C1211 1.390 . S
C1206 H1197 0.930 . S
C1206 C1204 1.384 . S
C1206 C1207 1.372 . S
C1207 C1206 1.372 . S
C1207 C1208 1.400 . S
C1207 C1212 1.490 . S
C1208 H1198 0.930 . S
C1208 C1207 1.400 . S
C1208 C1211 1.386 . S
H1209 C1225 0.930 . S
H1210 C1226 0.931 . S
C1211 H1199 0.929 . S
C1211 C1205 1.390 . S
C1211 C1208 1.386 . S
C1212 C1207 1.490 . S
C1212 C1214 1.395 . S
C1212 C1215 1.403 . S
H1213 C1219 0.930 . S
C1214 H1200 0.930 . S
C1214 C1212 1.395 . S
C1214 C1217 1.403 . S
C1215 C1212 1.403 . S
C1215 C1216 1.524 . S
C1215 C1219 1.400 . S
C1216 H1201 0.960 . S
C1216 H1202 0.960 . S
C1216 H1203 0.960 . S
C1216 C1215 1.524 . S
C1217 C1214 1.403 . S
C1217 C1218 1.392 . S
C1217 C1221 1.495 . S
C1218 C1217 1.392 . S
C1218 C1219 1.385 . S
C1218 C1220 1.478 . S
C1219 H1213 0.930 . S
C1219 C1215 1.400 . S
C1219 C1218 1.385 . S
C1220 C1218 1.478 . S
C1220 C1222 1.381 . S
C1220 C1226 1.383 . S
C1221 C1217 1.495 . S
C1221 H1227 0.959 . S
C1221 H1228 0.961 . S
C1221 H1229 0.960 . S
C1222 C1220 1.381 . S
C1222 C1223 1.394 . S
C1222 H1230 0.930 . S
C1223 C1222 1.394 . S
C1223 C1224 1.383 . S
C1223 H1231 0.929 . S
C1224 C1223 1.383 . S
C1224 C1225 1.377 . S
C1225 H1209 0.930 . S
C1225 C1224 1.377 . S
C1225 C1226 1.379 . S
C1226 H1210 0.931 . S
C1226 C1220 1.383 . S
C1226 C1225 1.379 . S
H1227 C1221 0.959 . S
H1228 C1221 0.961 . S
H1229 C1221 0.960 . S
H1230 C1222 0.930 . S
H1231 C1223 0.929 . S
H1232 C1240 0.929 . S
H1233 C1242 0.930 . S
H1234 C1244 0.930 . S
H1235 C1247 0.929 . S
H1236 C1250 0.930 . S
H1237 C1252 0.960 . S
H1238 C1252 0.960 . S
H1239 C1252 0.960 . S
C1240 H1232 0.929 . S
C1240 C1241 1.377 . S
C1240 C1242 1.384 . S
C1241 C1240 1.377 . S
C1241 C1247 1.390 . S
C1242 H1233 0.930 . S
C1242 C1240 1.384 . S
C1242 C1243 1.372 . S
C1243 C1242 1.372 . S
C1243 C1244 1.400 . S
C1243 C1248 1.490 . S
C1244 H1234 0.930 . S
C1244 C1243 1.400 . S
C1244 C1247 1.386 . S
H1245 C1261 0.930 . S
H1246 C1262 0.931 . S
C1247 H1235 0.929 . S
C1247 C1241 1.390 . S
C1247 C1244 1.386 . S
C1248 C1243 1.490 . S
C1248 C1250 1.395 . S
C1248 C1251 1.403 . S
H1249 C1255 0.930 . S
C1250 H1236 0.930 . S
C1250 C1248 1.395 . S
C1250 C1253 1.403 . S
C1251 C1248 1.403 . S
C1251 C1252 1.524 . S
C1251 C1255 1.400 . S
C1252 H1237 0.960 . S
C1252 H1238 0.960 . S
C1252 H1239 0.960 . S
C1252 C1251 1.524 . S
C1253 C1250 1.403 . S
C1253 C1254 1.392 . S
C1253 C1257 1.495 . S
C1254 C1253 1.392 . S
C1254 C1255 1.385 . S
C1254 C1256 1.478 . S
C1255 H1249 0.930 . S
C1255 C1251 1.400 . S
C1255 C1254 1.385 . S
C1256 C1254 1.478 . S
C1256 C1258 1.381 . S
C1256 C1262 1.383 . S
C1257 C1253 1.495 . S
C1257 H1263 0.959 . S
C1257 H1264 0.961 . S
C1257 H1265 0.960 . S
C1258 C1256 1.381 . S
C1258 C1259 1.394 . S
C1258 H1266 0.930 . S
C1259 C1258 1.394 . S
C1259 C1260 1.383 . S
C1259 H1267 0.929 . S
C1260 C1259 1.383 . S
C1260 C1261 1.377 . S
C1261 H1245 0.930 . S
C1261 C1260 1.377 . S
C1261 C1262 1.379 . S
C1262 H1246 0.931 . S
C1262 C1256 1.383 . S
C1262 C1261 1.379 . S
H1263 C1257 0.959 . S
H1264 C1257 0.961 . S
H1265 C1257 0.960 . S
H1266 C1258 0.930 . S
H1267 C1259 0.929 . S
H1268 C1276 0.929 . S
H1269 C1278 0.930 . S
H1270 C1280 0.930 . S
H1271 C1283 0.929 . S
H1272 C1286 0.930 . S
H1273 C1288 0.960 . S
H1274 C1288 0.960 . S
H1275 C1288 0.960 . S
C1276 H1268 0.929 . S
C1276 C1277 1.377 . S
C1276 C1278 1.384 . S
C1277 C1276 1.377 . S
C1277 C1283 1.390 . S
C1278 H1269 0.930 . S
C1278 C1276 1.384 . S
C1278 C1279 1.372 . S
C1279 C1278 1.372 . S
C1279 C1280 1.400 . S
C1279 C1284 1.490 . S
C1280 H1270 0.930 . S
C1280 C1279 1.400 . S
C1280 C1283 1.386 . S
H1281 C1297 0.930 . S
H1282 C1298 0.931 . S
C1283 H1271 0.929 . S
C1283 C1277 1.390 . S
C1283 C1280 1.386 . S
C1284 C1279 1.490 . S
C1284 C1286 1.395 . S
C1284 C1287 1.403 . S
H1285 C1291 0.930 . S
C1286 H1272 0.930 . S
C1286 C1284 1.395 . S
C1286 C1289 1.403 . S
C1287 C1284 1.403 . S
C1287 C1288 1.524 . S
C1287 C1291 1.400 . S
C1288 H1273 0.960 . S
C1288 H1274 0.960 . S
C1288 H1275 0.960 . S
C1288 C1287 1.524 . S
C1289 C1286 1.403 . S
C1289 C1290 1.392 . S
C1289 C1293 1.495 . S
C1290 C1289 1.392 . S
C1290 C1291 1.385 . S
C1290 C1292 1.478 . S
C1291 H1285 0.930 . S
C1291 C1287 1.400 . S
C1291 C1290 1.385 . S
C1292 C1290 1.478 . S
C1292 C1294 1.381 . S
C1292 C1298 1.383 . S
C1293 C1289 1.495 . S
C1293 H1299 0.959 . S
C1293 H1300 0.961 . S
C1293 H1301 0.960 . S
C1294 C1292 1.381 . S
C1294 C1295 1.394 . S
C1294 H1302 0.930 . S
C1295 C1294 1.394 . S
C1295 C1296 1.383 . S
C1295 H1303 0.929 . S
C1296 C1295 1.383 . S
C1296 C1297 1.377 . S
C1297 H1281 0.930 . S
C1297 C1296 1.377 . S
C1297 C1298 1.379 . S
C1298 H1282 0.931 . S
C1298 C1292 1.383 . S
C1298 C1297 1.379 . S
H1299 C1293 0.959 . S
H1300 C1293 0.961 . S
H1301 C1293 0.960 . S
H1302 C1294 0.930 . S
H1303 C1295 0.929 . S
H1304 C1312 0.929 . S
H1305 C1314 0.930 . S
H1306 C1316 0.930 . S
H1307 C1319 0.929 . S
H1308 C1322 0.930 . S
H1309 C1324 0.960 . S
H1310 C1324 0.960 . S
H1311 C1324 0.960 . S
C1312 H1304 0.929 . S
C1312 C1313 1.377 . S
C1312 C1314 1.384 . S
C1313 C1312 1.377 . S
C1313 C1319 1.390 . S
C1314 H1305 0.930 . S
C1314 C1312 1.384 . S
C1314 C1315 1.372 . S
C1315 C1314 1.372 . S
C1315 C1316 1.400 . S
C1315 C1320 1.490 . S
C1316 H1306 0.930 . S
C1316 C1315 1.400 . S
C1316 C1319 1.386 . S
H1317 C1333 0.930 . S
H1318 C1334 0.931 . S
C1319 H1307 0.929 . S
C1319 C1313 1.390 . S
C1319 C1316 1.386 . S
C1320 C1315 1.490 . S
C1320 C1322 1.395 . S
C1320 C1323 1.403 . S
H1321 C1327 0.930 . S
C1322 H1308 0.930 . S
C1322 C1320 1.395 . S
C1322 C1325 1.403 . S
C1323 C1320 1.403 . S
C1323 C1324 1.524 . S
C1323 C1327 1.400 . S
C1324 H1309 0.960 . S
C1324 H1310 0.960 . S
C1324 H1311 0.960 . S
C1324 C1323 1.524 . S
C1325 C1322 1.403 . S
C1325 C1326 1.392 . S
C1325 C1329 1.495 . S
C1326 C1325 1.392 . S
C1326 C1327 1.385 . S
C1326 C1328 1.478 . S
C1327 H1321 0.930 . S
C1327 C1323 1.400 . S
C1327 C1326 1.385 . S
C1328 C1326 1.478 . S
C1328 C1330 1.381 . S
C1328 C1334 1.383 . S
C1329 C1325 1.495 . S
C1329 H1335 0.959 . S
C1329 H1336 0.961 . S
C1329 H1337 0.960 . S
C1330 C1328 1.381 . S
C1330 C1331 1.394 . S
C1330 H1338 0.930 . S
C1331 C1330 1.394 . S
C1331 C1332 1.383 . S
C1331 H1339 0.929 . S
C1332 C1331 1.383 . S
C1332 C1333 1.377 . S
C1333 H1317 0.930 . S
C1333 C1332 1.377 . S
C1333 C1334 1.379 . S
C1334 H1318 0.931 . S
C1334 C1328 1.383 . S
C1334 C1333 1.379 . S
H1335 C1329 0.959 . S
H1336 C1329 0.961 . S
H1337 C1329 0.960 . S
H1338 C1330 0.930 . S
H1339 C1331 0.929 . S
H1340 C1348 0.929 . S
H1341 C1350 0.930 . S
H1342 C1352 0.930 . S
H1343 C1355 0.929 . S
H1344 C1358 0.930 . S
H1345 C1360 0.960 . S
H1346 C1360 0.960 . S
H1347 C1360 0.960 . S
C1348 H1340 0.929 . S
C1348 C1349 1.377 . S
C1348 C1350 1.384 . S
C1349 C1348 1.377 . S
C1349 C1355 1.390 . S
C1350 H1341 0.930 . S
C1350 C1348 1.384 . S
C1350 C1351 1.372 . S
C1351 C1350 1.372 . S
C1351 C1352 1.400 . S
C1351 C1356 1.490 . S
C1352 H1342 0.930 . S
C1352 C1351 1.400 . S
C1352 C1355 1.386 . S
H1353 C1369 0.930 . S
H1354 C1370 0.931 . S
C1355 H1343 0.929 . S
C1355 C1349 1.390 . S
C1355 C1352 1.386 . S
C1356 C1351 1.490 . S
C1356 C1358 1.395 . S
C1356 C1359 1.403 . S
H1357 C1363 0.930 . S
C1358 H1344 0.930 . S
C1358 C1356 1.395 . S
C1358 C1361 1.403 . S
C1359 C1356 1.403 . S
C1359 C1360 1.524 . S
C1359 C1363 1.400 . S
C1360 H1345 0.960 . S
C1360 H1346 0.960 . S
C1360 H1347 0.960 . S
C1360 C1359 1.524 . S
C1361 C1358 1.403 . S
C1361 C1362 1.392 . S
C1361 C1365 1.495 . S
C1362 C1361 1.392 . S
C1362 C1363 1.385 . S
C1362 C1364 1.478 . S
C1363 H1357 0.930 . S
C1363 C1359 1.400 . S
C1363 C1362 1.385 . S
C1364 C1362 1.478 . S
C1364 C1366 1.381 . S
C1364 C1370 1.383 . S
C1365 C1361 1.495 . S
C1365 H1371 0.959 . S
C1365 H1372 0.961 . S
C1365 H1373 0.960 . S
C1366 C1364 1.381 . S
C1366 C1367 1.394 . S
C1366 H1374 0.930 . S
C1367 C1366 1.394 . S
C1367 C1368 1.383 . S
C1367 H1375 0.929 . S
C1368 C1367 1.383 . S
C1368 C1369 1.377 . S
C1369 H1353 0.930 . S
C1369 C1368 1.377 . S
C1369 C1370 1.379 . S
C1370 H1354 0.931 . S
C1370 C1364 1.383 . S
C1370 C1369 1.379 . S
H1371 C1365 0.959 . S
H1372 C1365 0.961 . S
H1373 C1365 0.960 . S
H1374 C1366 0.930 . S
H1375 C1367 0.929 . S
C233 C67 1.152 . S
C252 C11 1.136 . S
C269 C81 1.157 . S
C288 C25 1.156 . S
C305 C95 1.151 . S
C324 C39 1.138 . S
C341 C109 1.151 . S
C360 C53 1.140 . S
C377 C179 1.156 . S
C396 C123 1.152 . S
C413 C193 1.153 . S
C432 C137 1.149 . S
C449 C151 1.153 . S
C468 C207 1.152 . S
C485 C221 1.158 . S
C504 C165 1.164 . S
C521 C8 1.098 . S
C540 C78 1.056 1_554 S
C557 C92 1.093 1_554 S
C576 C22 1.115 . S
C593 C36 1.089 . S
C612 C106 1.083 1_554 S
C629 C64 1.099 1_554 S
C648 C50 1.061 1_556 S
C665 C190 1.105 . S
C684 C120 1.107 . S
C701 C204 1.104 . S
C720 C134 1.092 . S
C737 C148 1.098 . S
C756 C218 1.065 . S
C773 C162 1.091 . S
C792 C176 1.052 . S
C809 C223 1.319 . S
C828 C13 1.289 . S
C845 C181 1.328 . S
C864 C27 1.353 . S
C881 C195 1.316 . S
C900 C41 1.281 . S
C917 C209 1.315 . S
C936 C55 1.283 . S
C953 C139 1.322 . S
C972 C69 1.301 . S
C989 C153 1.324 . S
C1008 C83 1.311 . S
C1025 C97 1.332 . S
C1044 C167 1.353 . S
C1061 C111 1.316 . S
C1080 C125 1.281 . S
C1097 C189 1.549 . S
C1116 C35 1.549 . S
C1133 C203 1.546 . S
C1152 C49 1.556 . S
C1169 C217 1.549 . S
C1188 C7 1.533 . S
C1205 C21 1.548 . S
C1224 C175 1.550 . S
C1241 C161 1.545 . S
C1260 C91 1.555 . S
C1277 C105 1.547 . S
C1296 C119 1.537 . S
C1313 C133 1.545 . S
C1332 C63 1.550 . S
C1349 C147 1.546 . S
C1368 C77 1.541 . S
