# Generated by pormake.
# Topology ttw, (5)-cn, num edge types: 1
# Building blocks:
#     Node 0, Type 0, BuildingBlock: BEQFEK_clean_sbu_0, # of connection points: 5
#     Node 1, Type 0, BuildingBlock: BEQFEK_clean_sbu_0, # of connection points: 5
#     Node 2, Type 0, BuildingBlock: BEQFEK_clean_sbu_0, # of connection points: 5
#     Node 3, Type 0, BuildingBlock: BEQFEK_clean_sbu_0, # of connection points: 5
#     Node 4, Type 0, BuildingBlock: BEQFEK_clean_sbu_0, # of connection points: 5
#     Node 5, Type 0, BuildingBlock: BEQFEK_clean_sbu_0, # of connection points: 5
#     Edge 6, Type (0, 0), BuildingBlock: CIFDUS_clean_linker_0, # of connection points: 2
#     Edge 7, Type (0, 0), BuildingBlock: CIFDUS_clean_linker_0, # of connection points: 2
#     Edge 8, Type (0, 0), BuildingBlock: CIFDUS_clean_linker_0, # of connection points: 2
#     Edge 9, Type (0, 0), BuildingBlock: CIFDUS_clean_linker_0, # of connection points: 2
#     Edge 10, Type (0, 0), BuildingBlock: CIFDUS_clean_linker_0, # of connection points: 2
#     Edge 11, Type (0, 0), BuildingBlock: CIFDUS_clean_linker_0, # of connection points: 2
#     Edge 12, Type (0, 0), BuildingBlock: CIFDUS_clean_linker_0, # of connection points: 2
#     Edge 13, Type (0, 0), BuildingBlock: CIFDUS_clean_linker_0, # of connection points: 2
#     Edge 14, Type (0, 0), BuildingBlock: CIFDUS_clean_linker_0, # of connection points: 2
#     Edge 15, Type (0, 0), BuildingBlock: CIFDUS_clean_linker_0, # of connection points: 2
#     Edge 16, Type (0, 0), BuildingBlock: CIFDUS_clean_linker_0, # of connection points: 2
#     Edge 17, Type (0, 0), BuildingBlock: CIFDUS_clean_linker_0, # of connection points: 2
#     Edge 18, Type (0, 0), BuildingBlock: CIFDUS_clean_linker_0, # of connection points: 2
#     Edge 19, Type (0, 0), BuildingBlock: CIFDUS_clean_linker_0, # of connection points: 2
#     Edge 20, Type (0, 0), BuildingBlock: CIFDUS_clean_linker_0, # of connection points: 2
# Relax obj value: 0.103
# Max RMSD: 0.172
# Mean RMSD: 0.160
data_MOF--net-ttw--node1-BEQFEK_clean_sbu_0--edge1-CIFDUS_clean_linker_0
_symmetry_space_group_name_H-M    P1
_symmetry_Int_Tables_number       1
_symmetry_cell_setting            triclinic
loop_
_symmetry_equiv_pos_as_xyz
'x, y, z'
_cell_length_a     49.10112
_cell_length_b     51.218394
_cell_length_c     17.666013
_cell_angle_alpha  91.28861
_cell_angle_beta   90.136373
_cell_angle_gamma 125.59132
loop_
_atom_site_label
_atom_site_type_symbol
_atom_site_fract_x
_atom_site_fract_y
_atom_site_fract_z
_atom_type_partial_charge
Co0 Co 0.17828 0.52813 0.99145 0.0
Co1 Co 0.1791 0.53767 0.16572 0.0
C2 C 0.22697 0.52724 0.0883 0.0
O3 O 0.21451 0.52443 0.02277 0.0
O4 O 0.21522 0.53188 0.14723 0.0
C5 C 0.18362 0.51368 0.83411 0.0
O6 O 0.20962 0.51416 0.85493 0.0
C7 C 0.1777 0.523 0.3243 0.0
C8 C 0.16548 0.55397 0.37998 0.0
C9 C 0.17277 0.53215 0.39429 0.0
N10 N 0.1737 0.53884 0.2711 0.0
N11 N 0.16641 0.55733 0.30457 0.0
C12 C 0.18445 0.49854 0.30734 0.0
H13 H 0.1742 0.48723 0.25041 0.0
H14 H 0.17328 0.47983 0.35081 0.0
H15 H 0.2119 0.51059 0.30759 0.0
C16 C 0.1068 0.4792 0.01901 0.0
N17 N 0.13838 0.50065 0.04455 0.0
N18 N 0.13812 0.5052 0.11791 0.0
C19 C 0.10619 0.48717 0.14144 0.0
C20 C 0.0852 0.47019 0.0792 0.0
C21 C 0.09736 0.46913 0.93748 0.0
H22 H 0.11416 0.4635 0.91256 0.0
H23 H 0.07104 0.44768 0.93088 0.0
H24 H 0.10049 0.48922 0.90613 0.0
O25 O 0.195 0.57375 0.00551 0.0
O26 O 0.19483 0.58031 0.12978 0.0
H27 H 0.06847 0.47474 0.22556 0.0
H28 H 0.1075 0.48337 0.26143 0.0
C29 C 0.09601 0.49011 0.2192 0.0
H30 H 0.10559 0.51547 0.23116 0.0
H31 H 0.16229 0.57237 0.27593 0.0
O32 O 0.16821 0.51871 0.88304 0.0
C33 C 0.20049 0.59144 0.06361 0.0
Co34 Co 0.48687 0.16929 0.1833 0.0
Co35 Co 0.49158 0.16646 0.00487 0.0
C36 C 0.48495 0.21498 0.08338 0.0
O37 O 0.48392 0.20397 0.14812 0.0
O38 O 0.48701 0.20222 0.02286 0.0
C39 C 0.45827 0.16424 0.33453 0.0
O40 O 0.43455 0.16455 0.30106 0.0
C41 C 0.4826 0.1638 0.83501 0.0
C42 C 0.51422 0.14772 0.80298 0.0
C43 C 0.49509 0.15694 0.77263 0.0
N44 N 0.49402 0.15879 0.89875 0.0
N45 N 0.51275 0.14908 0.87864 0.0
C46 C 0.46227 0.17698 0.8342 0.0
H47 H 0.4634 0.18782 0.89004 0.0
H48 H 0.43574 0.15712 0.8211 0.0
H49 H 0.47123 0.19514 0.78981 0.0
C50 C 0.44143 0.09984 0.15656 0.0
N51 N 0.45745 0.12963 0.12975 0.0
N52 N 0.45889 0.12814 0.05543 0.0
C53 C 0.44342 0.09716 0.03292 0.0
C54 C 0.43274 0.07823 0.09643 0.0
C55 C 0.43991 0.09301 0.23899 0.0
H56 H 0.42722 0.10221 0.26924 0.0
H57 H 0.42591 0.06688 0.2485 0.0
H58 H 0.46571 0.10572 0.26284 0.0
O59 O 0.53342 0.18324 0.16947 0.0
O60 O 0.53632 0.18158 0.0445 0.0
H61 H 0.47011 0.09138 0.94678 0.0
H62 H 0.42575 0.06067 0.94423 0.0
C63 C 0.44523 0.08669 0.95445 0.0
H64 H 0.44166 0.1002 0.91231 0.0
H65 H 0.52526 0.14407 0.91688 0.0
O66 O 0.48048 0.16534 0.29481 0.0
C67 C 0.54976 0.18707 0.10993 0.0
Co68 Co 0.4863 0.65451 0.00286 0.0
Co69 Co 0.47748 0.64424 0.18026 0.0
C70 C 0.49479 0.70509 0.11224 0.0
O71 O 0.49479 0.69487 0.0457 0.0
O72 O 0.48904 0.68822 0.17016 0.0
C73 C 0.49349 0.67733 0.85063 0.0
O74 O 0.48694 0.69642 0.88289 0.0
C75 C 0.48871 0.65135 0.3483 0.0
C76 C 0.45528 0.60051 0.37984 0.0
C77 C 0.47754 0.63129 0.41003 0.0
N78 N 0.47374 0.63309 0.28489 0.0
N79 N 0.45361 0.6028 0.30455 0.0
C80 C 0.51442 0.68691 0.34856 0.0
H81 H 0.52756 0.69417 0.29375 0.0
H82 H 0.53279 0.69479 0.39586 0.0
H83 H 0.50173 0.69897 0.35595 0.0
C84 C 0.53083 0.63442 0.02913 0.0
N85 N 0.51172 0.64345 0.0555 0.0
N86 N 0.5085 0.63944 0.12914 0.0
C87 C 0.52567 0.62783 0.15193 0.0
C88 C 0.54022 0.62404 0.08915 0.0
C89 C 0.53782 0.63362 0.94702 0.0
H90 H 0.51416 0.61499 0.91662 0.0
H91 H 0.54724 0.65713 0.92236 0.0
H92 H 0.5566 0.62837 0.93868 0.0
O93 O 0.43795 0.62006 0.01171 0.0
O94 O 0.43197 0.61353 0.13573 0.0
H95 H 0.49812 0.59469 0.23938 0.0
H96 H 0.54147 0.60954 0.23861 0.0
C97 C 0.5239 0.61616 0.22995 0.0
H98 H 0.52971 0.63511 0.27235 0.0
H99 H 0.43891 0.58356 0.26626 0.0
O100 O 0.49547 0.65833 0.89159 0.0
C101 C 0.41963 0.6062 0.06872 0.0
Co102 Co 0.79818 0.35328 0.16613 0.0
Co103 Co 0.80253 0.35107 0.98781 0.0
C104 C 0.74502 0.29673 0.06534 0.0
O105 O 0.75738 0.31177 0.12865 0.0
O106 O 0.76035 0.30852 0.00362 0.0
C107 C 0.80248 0.33088 0.30973 0.0
O108 O 0.80554 0.31143 0.26697 0.0
C109 C 0.79702 0.34005 0.82083 0.0
C110 C 0.8442 0.38447 0.78485 0.0
C111 C 0.81546 0.35615 0.75762 0.0
N112 N 0.81447 0.3578 0.88307 0.0
N113 N 0.84246 0.38445 0.86087 0.0
C114 C 0.76299 0.30894 0.82216 0.0
H115 H 0.76416 0.29162 0.85603 0.0
H116 H 0.75345 0.29869 0.76416 0.0
H117 H 0.74546 0.31288 0.85045 0.0
C118 C 0.86692 0.36995 0.15354 0.0
N119 N 0.83734 0.3608 0.12277 0.0
N120 N 0.83795 0.35711 0.0489 0.0
C121 C 0.86733 0.36217 0.03109 0.0
C122 C 0.88676 0.37088 0.09652 0.0
C123 C 0.87766 0.38152 0.23394 0.0
H124 H 0.86324 0.39007 0.25807 0.0
H125 H 0.87335 0.36152 0.26792 0.0
H126 H 0.90479 0.40133 0.23765 0.0
O127 O 0.79293 0.38731 0.13918 0.0
O128 O 0.79382 0.38354 0.01396 0.0
H129 H 0.89072 0.38081 0.92466 0.0
H130 H 0.89272 0.34916 0.95752 0.0
C131 C 0.87642 0.35757 0.95359 0.0
H132 H 0.85359 0.33983 0.91963 0.0
H133 H 0.86005 0.40306 0.89768 0.0
O134 O 0.79925 0.35111 0.2786 0.0
C135 C 0.79071 0.39592 0.07371 0.0
Co136 Co 0.3997 0.83462 0.1627 0.0
Co137 Co 0.39171 0.82634 0.98762 0.0
C138 C 0.44163 0.82123 0.07042 0.0
O139 O 0.43342 0.82668 0.13402 0.0
O140 O 0.42786 0.82098 0.00895 0.0
C141 C 0.42295 0.84439 0.3179 0.0
O142 O 0.44068 0.83412 0.29495 0.0
C143 C 0.40844 0.83508 0.82749 0.0
C144 C 0.35993 0.81884 0.77453 0.0
C145 C 0.39276 0.83073 0.75841 0.0
N146 N 0.38583 0.82608 0.88198 0.0
N147 N 0.35687 0.81629 0.85008 0.0
C148 C 0.4447 0.84972 0.84241 0.0
H149 H 0.45271 0.86268 0.89819 0.0
H150 H 0.46043 0.86651 0.7973 0.0
H151 H 0.4484 0.83033 0.84358 0.0
C152 C 0.40562 0.89393 0.12945 0.0
N153 N 0.40314 0.86734 0.10688 0.0
N154 N 0.40024 0.86432 0.03271 0.0
C155 C 0.4011 0.88915 0.00536 0.0
C156 C 0.40437 0.90864 0.06583 0.0
C157 C 0.4056 0.90291 0.2107 0.0
H158 H 0.38423 0.88189 0.23945 0.0
H159 H 0.42903 0.9094 0.2392 0.0
H160 H 0.40346 0.92322 0.21684 0.0
O161 O 0.35465 0.79394 0.14921 0.0
O162 O 0.34925 0.78814 0.02423 0.0
H163 H 0.37299 0.87626 0.90181 0.0
H164 H 0.40602 0.91866 0.91299 0.0
C165 C 0.39898 0.89416 0.92304 0.0
H166 H 0.41593 0.89056 0.89083 0.0
H167 H 0.33509 0.80807 0.88 0.0
O168 O 0.40484 0.84645 0.27063 0.0
C169 C 0.33777 0.77811 0.08986 0.0
Co170 Co 0.63176 0.4611 0.21928 0.0
Co171 Co 0.62659 0.45669 0.0403 0.0
C172 C 0.68409 0.46429 0.1193 0.0
O173 O 0.67184 0.46437 0.18282 0.0
O174 O 0.66957 0.46191 0.05683 0.0
C175 C 0.65143 0.46106 0.37155 0.0
O176 O 0.66434 0.4475 0.33828 0.0
C177 C 0.63492 0.4659 0.873 0.0
C178 C 0.58277 0.44626 0.83948 0.0
C179 C 0.61449 0.4603 0.81081 0.0
N180 N 0.61597 0.45571 0.93533 0.0
N181 N 0.58483 0.44379 0.91451 0.0
C182 C 0.672 0.4825 0.87441 0.0
H183 H 0.68293 0.49561 0.9294 0.0
H184 H 0.68391 0.49946 0.82732 0.0
H185 H 0.67729 0.46425 0.8681 0.0
C186 C 0.62272 0.51257 0.19317 0.0
N187 N 0.62683 0.49008 0.16791 0.0
N188 N 0.62646 0.48936 0.09337 0.0
C189 C 0.62297 0.51198 0.06886 0.0
C190 C 0.62008 0.52721 0.13109 0.0
C191 C 0.61846 0.51767 0.27481 0.0
H192 H 0.60331 0.49422 0.30289 0.0
H193 H 0.64346 0.53238 0.30332 0.0
H194 H 0.60613 0.53009 0.28149 0.0
O195 O 0.59216 0.41643 0.20113 0.0
O196 O 0.59002 0.41352 0.07565 0.0
H197 H 0.59815 0.50171 0.96135 0.0
H198 H 0.62931 0.54388 0.98145 0.0
C199 C 0.62321 0.51949 0.98736 0.0
H200 H 0.642 0.5181 0.95663 0.0
H201 H 0.565 0.43436 0.95196 0.0
O202 O 0.63662 0.46969 0.33107 0.0
C203 C 0.57874 0.40056 0.13932 0.0
H204 H 0.03638 0.41954 0.15899 0.0
H205 H 0.05278 0.48565 0.98753 0.0
H206 H 0.99264 0.4597 0.97555 0.0
H207 H 0.93566 0.41929 0.01582 0.0
H208 H 0.9181 0.35417 0.19071 0.0
H209 H 0.97846 0.37888 0.20076 0.0
C210 C 0.02659 0.42814 0.11927 0.0
C211 C 0.04871 0.45411 0.07356 0.0
C212 C 0.99194 0.41341 0.11362 0.0
C213 C 0.03604 0.46528 0.02226 0.0
C214 C 0.00174 0.45061 0.0157 0.0
C215 C 0.94507 0.41021 0.05519 0.0
C216 C 0.92276 0.38474 0.10158 0.0
C217 C 0.97951 0.4247 0.06103 0.0
C218 C 0.93509 0.37373 0.15422 0.0
C219 C 0.96947 0.38782 0.15989 0.0
H220 H 0.45014 0.96662 0.13017 0.0
H221 H 0.3586 0.9147 0.99726 0.0
H222 H 0.35828 0.96242 0.99684 0.0
H223 H 0.38447 0.01928 0.0351 0.0
H224 H 0.4768 0.07078 0.16558 0.0
H225 H 0.47606 0.0228 0.16809 0.0
C226 C 0.43011 0.96585 0.10146 0.0
C227 C 0.40447 0.93748 0.06385 0.0
C228 C 0.43005 0.99317 0.10194 0.0
C229 C 0.37873 0.93657 0.02607 0.0
C230 C 0.37846 0.96371 0.02622 0.0
C231 C 0.4042 0.01974 0.06433 0.0
C232 C 0.43029 0.04817 0.10119 0.0
C233 C 0.40399 0.99217 0.06412 0.0
C234 C 0.45603 0.04884 0.13834 0.0
C235 C 0.45581 0.02155 0.13919 0.0
H236 H 0.56991 0.52065 0.04997 0.0
H237 H 0.64895 0.584 0.21101 0.0
H238 H 0.6322 0.62077 0.21004 0.0
H239 H 0.5941 0.63414 0.16413 0.0
H240 H 0.5149 0.56977 0.00423 0.0
H241 H 0.53329 0.53454 0.00175 0.0
C242 C 0.58375 0.54275 0.08398 0.0
C243 C 0.61067 0.54984 0.13017 0.0
C244 C 0.57408 0.56361 0.08273 0.0
C245 C 0.62801 0.57812 0.17532 0.0
C246 C 0.61853 0.59913 0.17449 0.0
C247 C 0.58111 0.61244 0.12864 0.0
C248 C 0.55335 0.60447 0.08422 0.0
C249 C 0.59149 0.59203 0.12859 0.0
C250 C 0.53659 0.57645 0.03815 0.0
C251 C 0.54692 0.55623 0.03718 0.0
H252 H 0.13329 0.51957 0.51276 0.0
H253 H 0.22111 0.52566 0.44556 0.0
H254 H 0.2304 0.51693 0.57572 0.0
H255 H 0.21649 0.51294 0.71075 0.0
H256 H 0.12903 0.50816 0.77666 0.0
H257 H 0.11658 0.51077 0.64503 0.0
C258 C 0.1542 0.51857 0.52666 0.0
C259 C 0.17632 0.523 0.47003 0.0
C260 C 0.15961 0.51403 0.60147 0.0
C261 C 0.20333 0.52163 0.48814 0.0
C262 C 0.20885 0.51698 0.56267 0.0
C263 C 0.19447 0.51201 0.69616 0.0
C264 C 0.17406 0.51085 0.75355 0.0
C265 C 0.18754 0.51386 0.62011 0.0
C266 C 0.14545 0.50945 0.73373 0.0
C267 C 0.13826 0.51097 0.65841 0.0
H268 H 0.50942 0.17393 0.41969 0.0
H269 H 0.41006 0.15087 0.43736 0.0
H270 H 0.41252 0.1472 0.575 0.0
H271 H 0.44256 0.14885 0.68992 0.0
H272 H 0.54256 0.1735 0.66911 0.0
H273 H 0.53989 0.1778 0.53308 0.0
C274 C 0.48822 0.16809 0.45345 0.0
C275 C 0.45953 0.16252 0.41808 0.0
C276 C 0.48989 0.16623 0.5322 0.0
C277 C 0.43247 0.15526 0.46306 0.0
C278 C 0.43386 0.15313 0.54181 0.0
C279 C 0.46404 0.15589 0.65607 0.0
C280 C 0.49286 0.16116 0.69037 0.0
C281 C 0.46245 0.15849 0.57709 0.0
C282 C 0.51999 0.16918 0.64458 0.0
C283 C 0.51857 0.17173 0.56658 0.0
H284 H 0.49653 0.63434 0.764 0.0
H285 H 0.49405 0.71691 0.74832 0.0
H286 H 0.4918 0.7118 0.6103 0.0
H287 H 0.48607 0.68131 0.4939 0.0
H288 H 0.48641 0.59764 0.51055 0.0
H289 H 0.49391 0.60574 0.64781 0.0
C290 C 0.49587 0.65145 0.73047 0.0
C291 C 0.49529 0.67587 0.76678 0.0
C292 C 0.49402 0.64808 0.65097 0.0
C293 C 0.49436 0.69776 0.72212 0.0
C294 C 0.49304 0.69486 0.64301 0.0
C295 C 0.48863 0.66535 0.52737 0.0
C296 C 0.48604 0.6391 0.4919 0.0
C297 C 0.49229 0.66979 0.60675 0.0
C298 C 0.48837 0.61805 0.5365 0.0
C299 C 0.49263 0.62264 0.61504 0.0
H300 H 0.84057 0.33635 0.65413 0.0
H301 H 0.76952 0.35925 0.6817 0.0
H302 H 0.75878 0.35328 0.54446 0.0
H303 H 0.77226 0.34453 0.41596 0.0
H304 H 0.84068 0.31816 0.38949 0.0
H305 H 0.84981 0.32231 0.52672 0.0
C306 C 0.82239 0.3395 0.62979 0.0
C307 C 0.80575 0.34813 0.67705 0.0
C308 C 0.81614 0.33566 0.5512 0.0
C309 C 0.78232 0.35233 0.64577 0.0
C310 C 0.77637 0.34911 0.56751 0.0
C311 C 0.78901 0.33955 0.44048 0.0
C312 C 0.80603 0.33136 0.3929 0.0
C313 C 0.79355 0.3413 0.51954 0.0
C314 C 0.82729 0.32449 0.42514 0.0
C315 C 0.83259 0.32694 0.50352 0.0
H316 H 0.44746 0.83083 0.43737 0.0
H317 H 0.39237 0.86981 0.38068 0.0
H318 H 0.38057 0.87137 0.51372 0.0
H319 H 0.38104 0.85671 0.64416 0.0
H320 H 0.43466 0.81656 0.70173 0.0
H321 H 0.45225 0.82075 0.57054 0.0
C322 C 0.43331 0.84011 0.45427 0.0
C323 C 0.42037 0.84968 0.39914 0.0
C324 C 0.4262 0.84058 0.53094 0.0
C325 C 0.40225 0.86186 0.42192 0.0
C326 C 0.39543 0.86275 0.49798 0.0
C327 C 0.39689 0.84923 0.62792 0.0
C328 C 0.40668 0.8365 0.68205 0.0
C329 C 0.40645 0.85132 0.55258 0.0
C330 C 0.42731 0.82697 0.66102 0.0
C331 C 0.43712 0.8291 0.58595 0.0
H332 H 0.61958 0.47967 0.45911 0.0
H333 H 0.68391 0.44804 0.47273 0.0
H334 H 0.68069 0.44769 0.61059 0.0
H335 H 0.65592 0.45219 0.72695 0.0
H336 H 0.5901 0.48197 0.71235 0.0
H337 H 0.59756 0.48719 0.57561 0.0
C338 C 0.63319 0.47301 0.49221 0.0
C339 C 0.65176 0.46369 0.45541 0.0
C340 C 0.63084 0.47238 0.57153 0.0
C341 C 0.66923 0.45514 0.49939 0.0
C342 C 0.66741 0.45491 0.57838 0.0
C343 C 0.64393 0.4606 0.69408 0.0
C344 C 0.62276 0.46699 0.7298 0.0
C345 C 0.64782 0.46296 0.61505 0.0
C346 C 0.60655 0.47693 0.68606 0.0
C347 C 0.61077 0.47989 0.60787 0.0
H348 H 0.26874 0.53625 0.97482 0.0
H349 H 0.25827 0.52793 0.21737 0.0
H350 H 0.31678 0.54767 0.23157 0.0
H351 H 0.3726 0.57524 0.17716 0.0
H352 H 0.3837 0.58651 0.93518 0.0
H353 H 0.32323 0.55736 0.9189 0.0
C354 C 0.27896 0.53795 0.0307 0.0
C355 C 0.25922 0.53109 0.09504 0.0
C356 C 0.31296 0.5504 0.03873 0.0
C357 C 0.27295 0.53337 0.16692 0.0
C358 C 0.3065 0.54484 0.17515 0.0
C359 C 0.36181 0.57089 0.12067 0.0
C360 C 0.38281 0.58365 0.05769 0.0
C361 C 0.32707 0.55475 0.11177 0.0
C362 C 0.36825 0.57737 0.98486 0.0
C363 C 0.33362 0.56072 0.97544 0.0
H364 H 0.59196 0.19797 0.99566 0.0
H365 H 0.58881 0.20709 0.23866 0.0
H366 H 0.64965 0.2375 0.24703 0.0
H367 H 0.7036 0.26782 0.18406 0.0
H368 H 0.70693 0.26109 0.94049 0.0
H369 H 0.64611 0.22274 0.93412 0.0
C370 C 0.60449 0.20621 0.05065 0.0
C371 C 0.58585 0.20081 0.11626 0.0
C372 C 0.63955 0.22422 0.05499 0.0
C373 C 0.60252 0.21123 0.18709 0.0
C374 C 0.63735 0.22868 0.19197 0.0
C375 C 0.69117 0.25753 0.12957 0.0
C376 C 0.70983 0.26791 0.06273 0.0
C377 C 0.65614 0.23629 0.12605 0.0
C378 C 0.69324 0.25388 0.99283 0.0
C379 C 0.65839 0.23207 0.98906 0.0
H380 H 0.501 0.74396 1.00072 0.0
H381 H 0.49091 0.73267 0.24279 0.0
H382 H 0.47928 0.77289 0.25254 0.0
H383 H 0.46228 0.80368 0.18982 0.0
H384 H 0.4689 0.81206 0.94682 0.0
H385 H 0.49206 0.78097 0.94033 0.0
C386 C 0.49695 0.75071 0.05593 0.0
C387 C 0.49608 0.73469 0.12066 0.0
C388 C 0.48923 0.7731 0.06089 0.0
C389 C 0.49129 0.74422 0.19179 0.0
C390 C 0.48448 0.76715 0.19742 0.0
C391 C 0.46955 0.79943 0.13557 0.0
C392 C 0.46319 0.80968 0.06873 0.0
C393 C 0.48187 0.78062 0.13193 0.0
C394 C 0.47302 0.80408 0.99906 0.0
C395 C 0.48619 0.78618 0.99525 0.0
H396 H 0.78351 0.42858 0.18626 0.0
H397 H 0.77203 0.41047 0.94431 0.0
H398 H 0.74193 0.43491 0.93531 0.0
H399 H 0.71126 0.45339 0.99864 0.0
H400 H 0.72197 0.4704 0.24104 0.0
H401 H 0.76031 0.45494 0.24677 0.0
C402 C 0.77501 0.43052 0.13132 0.0
C403 C 0.77942 0.41704 0.06643 0.0
C404 C 0.75719 0.44412 0.12655 0.0
C405 C 0.7687 0.42028 0.9955 0.0
C406 C 0.7513 0.43415 0.99023 0.0
C407 C 0.72253 0.45442 0.05252 0.0
C408 C 0.71303 0.4623 0.11946 0.0
C409 C 0.74421 0.44493 0.05579 0.0
C410 C 0.72828 0.46387 0.18865 0.0
C411 C 0.75021 0.45495 0.19213 0.0
H412 H 0.22347 0.63731 0.17554 0.0
H413 H 0.21779 0.62447 0.93208 0.0
H414 H 0.25671 0.68241 0.91871 0.0
H415 H 0.29829 0.73545 0.97638 0.0
H416 H 0.30606 0.74779 0.22005 0.0
H417 H 0.26004 0.69134 0.23276 0.0
C418 C 0.2302 0.64715 0.11941 0.0
C419 C 0.21816 0.62645 0.05499 0.0
C420 C 0.2533 0.68042 0.11211 0.0
C421 C 0.22695 0.63976 0.98275 0.0
C422 C 0.24933 0.67292 0.975 0.0
C423 C 0.28959 0.72599 0.03232 0.0
C424 C 0.30608 0.74575 0.09716 0.0
C425 C 0.26364 0.69331 0.03936 0.0
C426 C 0.29415 0.73308 0.16912 0.0
C427 C 0.26786 0.70074 0.17651 0.0
H428 H 0.49198 0.25353 0.2017 0.0
H429 H 0.49197 0.24854 0.95729 0.0
H430 H 0.51685 0.30585 0.95322 0.0
H431 H 0.54742 0.35846 0.01927 0.0
H432 H 0.55038 0.36362 0.26386 0.0
H433 H 0.51528 0.30516 0.2673 0.0
C434 C 0.49664 0.26473 0.14734 0.0
C435 C 0.49076 0.24678 0.07997 0.0
C436 C 0.51208 0.29792 0.14542 0.0
C437 C 0.4966 0.26175 0.01015 0.0
C438 C 0.51107 0.29463 0.00775 0.0
C439 C 0.53992 0.34686 0.07342 0.0
C440 C 0.55219 0.36552 0.14121 0.0
C441 C 0.52038 0.31319 0.0751 0.0
C442 C 0.54175 0.34996 0.21074 0.0
C443 C 0.5217 0.31647 0.21282 0.0
loop_
_geom_bond_atom_site_label_1
_geom_bond_atom_site_label_2
_geom_bond_distance
_geom_bond_site_symmetry_2
_ccdc_geom_bond_type
Co0 O3 1.970 . S
Co0 N17 1.989 . S
Co0 O25 1.967 . S
Co0 O32 1.920 1_554 S
Co1 O4 1.966 . S
Co1 N10 2.022 . S
Co1 N18 1.993 . S
Co1 O26 1.941 . S
C2 O3 1.258 . S
C2 O4 1.263 . S
O3 Co0 1.970 . S
O3 C2 1.258 . S
O4 Co1 1.966 . S
O4 C2 1.263 . S
C5 O6 1.235 . S
C5 O32 1.289 . S
O6 C5 1.235 . S
C7 C9 1.400 . S
C7 N10 1.351 . S
C7 C12 1.501 . S
C8 C9 1.387 . S
C8 N11 1.341 . S
C9 C7 1.400 . S
C9 C8 1.387 . S
N10 Co1 2.022 . S
N10 C7 1.351 . S
N10 N11 1.365 . S
N11 C8 1.341 . S
N11 N10 1.365 . S
N11 H31 0.862 . S
C12 C7 1.501 . S
C12 H13 0.961 . S
C12 H14 0.961 . S
C12 H15 0.960 . S
H13 C12 0.961 . S
H14 C12 0.961 . S
H15 C12 0.960 . S
C16 N17 1.342 . S
C16 C20 1.401 . S
C16 C21 1.499 1_554 S
N17 Co0 1.989 . S
N17 C16 1.342 . S
N17 N18 1.388 . S
N18 Co1 1.993 . S
N18 N17 1.388 . S
N18 C19 1.346 . S
C19 N18 1.346 . S
C19 C20 1.396 . S
C19 C29 1.510 . S
C20 C16 1.401 . S
C20 C19 1.396 . S
C21 C16 1.499 1_556 S
C21 H22 0.959 . S
C21 H23 0.960 . S
C21 H24 0.961 . S
H22 C21 0.959 . S
H23 C21 0.960 . S
H24 C21 0.961 . S
O25 Co0 1.967 . S
O25 C33 1.258 . S
O26 Co1 1.941 . S
O26 C33 1.266 . S
H27 C29 0.959 . S
H28 C29 0.961 . S
C29 C19 1.510 . S
C29 H27 0.959 . S
C29 H28 0.961 . S
C29 H30 0.960 . S
H30 C29 0.960 . S
H31 N11 0.862 . S
O32 Co0 1.920 1_556 S
O32 C5 1.289 . S
C33 O25 1.258 . S
C33 O26 1.266 . S
Co34 O37 1.970 . S
Co34 N51 1.989 . S
Co34 O59 1.967 . S
Co34 O66 1.920 . S
Co35 O38 1.966 1_556 S
Co35 N44 2.022 . S
Co35 N52 1.993 1_556 S
Co35 O60 1.941 1_556 S
C36 O37 1.258 . S
C36 O38 1.263 . S
O37 Co34 1.970 . S
O37 C36 1.258 . S
O38 Co35 1.966 1_554 S
O38 C36 1.263 . S
C39 O40 1.235 . S
C39 O66 1.289 . S
O40 C39 1.235 . S
C41 C43 1.400 . S
C41 N44 1.351 . S
C41 C46 1.501 . S
C42 C43 1.387 . S
C42 N45 1.341 . S
C43 C41 1.400 . S
C43 C42 1.387 . S
N44 Co35 2.022 . S
N44 C41 1.351 . S
N44 N45 1.365 . S
N45 C42 1.341 . S
N45 N44 1.365 . S
N45 H65 0.862 . S
C46 C41 1.501 . S
C46 H47 0.961 . S
C46 H48 0.961 . S
C46 H49 0.960 . S
H47 C46 0.961 . S
H48 C46 0.961 . S
H49 C46 0.960 . S
C50 N51 1.342 . S
C50 C54 1.401 . S
C50 C55 1.499 . S
N51 Co34 1.989 . S
N51 C50 1.342 . S
N51 N52 1.388 . S
N52 Co35 1.993 1_554 S
N52 N51 1.388 . S
N52 C53 1.346 . S
C53 N52 1.346 . S
C53 C54 1.396 . S
C53 C63 1.510 1_554 S
C54 C50 1.401 . S
C54 C53 1.396 . S
C55 C50 1.499 . S
C55 H56 0.959 . S
C55 H57 0.960 . S
C55 H58 0.961 . S
H56 C55 0.959 . S
H57 C55 0.960 . S
H58 C55 0.961 . S
O59 Co34 1.967 . S
O59 C67 1.258 . S
O60 Co35 1.941 1_554 S
O60 C67 1.266 . S
H61 C63 0.959 . S
H62 C63 0.961 . S
C63 C53 1.510 1_556 S
C63 H61 0.959 . S
C63 H62 0.961 . S
C63 H64 0.960 . S
H64 C63 0.960 . S
H65 N45 0.862 . S
O66 Co34 1.920 . S
O66 C39 1.289 . S
C67 O59 1.258 . S
C67 O60 1.266 . S
Co68 O71 1.970 . S
Co68 N85 1.989 . S
Co68 O93 1.967 . S
Co68 O100 1.920 1_554 S
Co69 O72 1.966 . S
Co69 N78 2.022 . S
Co69 N86 1.993 . S
Co69 O94 1.941 . S
C70 O71 1.258 . S
C70 O72 1.263 . S
O71 Co68 1.970 . S
O71 C70 1.258 . S
O72 Co69 1.966 . S
O72 C70 1.263 . S
C73 O74 1.235 . S
C73 O100 1.289 . S
O74 C73 1.235 . S
C75 C77 1.400 . S
C75 N78 1.351 . S
C75 C80 1.501 . S
C76 C77 1.387 . S
C76 N79 1.341 . S
C77 C75 1.400 . S
C77 C76 1.387 . S
N78 Co69 2.022 . S
N78 C75 1.351 . S
N78 N79 1.365 . S
N79 C76 1.341 . S
N79 N78 1.365 . S
N79 H99 0.862 . S
C80 C75 1.501 . S
C80 H81 0.961 . S
C80 H82 0.961 . S
C80 H83 0.960 . S
H81 C80 0.961 . S
H82 C80 0.961 . S
H83 C80 0.960 . S
C84 N85 1.342 . S
C84 C88 1.401 . S
C84 C89 1.499 1_554 S
N85 Co68 1.989 . S
N85 C84 1.342 . S
N85 N86 1.388 . S
N86 Co69 1.993 . S
N86 N85 1.388 . S
N86 C87 1.346 . S
C87 N86 1.346 . S
C87 C88 1.396 . S
C87 C97 1.510 . S
C88 C84 1.401 . S
C88 C87 1.396 . S
C89 C84 1.499 1_556 S
C89 H90 0.959 . S
C89 H91 0.960 . S
C89 H92 0.961 . S
H90 C89 0.959 . S
H91 C89 0.960 . S
H92 C89 0.961 . S
O93 Co68 1.967 . S
O93 C101 1.258 . S
O94 Co69 1.941 . S
O94 C101 1.266 . S
H95 C97 0.959 . S
H96 C97 0.961 . S
C97 C87 1.510 . S
C97 H95 0.959 . S
C97 H96 0.961 . S
C97 H98 0.960 . S
H98 C97 0.960 . S
H99 N79 0.862 . S
O100 Co68 1.920 1_556 S
O100 C73 1.289 . S
C101 O93 1.258 . S
C101 O94 1.266 . S
Co102 O105 1.970 . S
Co102 N119 1.989 . S
Co102 O127 1.967 . S
Co102 O134 1.920 . S
Co103 O106 1.966 . S
Co103 N112 2.022 1_554 S
Co103 N120 1.993 . S
Co103 O128 1.941 . S
C104 O105 1.258 . S
C104 O106 1.263 . S
O105 Co102 1.970 . S
O105 C104 1.258 . S
O106 Co103 1.966 . S
O106 C104 1.263 . S
C107 O108 1.235 . S
C107 O134 1.289 . S
O108 C107 1.235 . S
C109 C111 1.400 . S
C109 N112 1.351 . S
C109 C114 1.501 . S
C110 C111 1.387 . S
C110 N113 1.341 . S
C111 C109 1.400 . S
C111 C110 1.387 . S
N112 Co103 2.022 1_556 S
N112 C109 1.351 . S
N112 N113 1.365 . S
N113 C110 1.341 . S
N113 N112 1.365 . S
N113 H133 0.862 . S
C114 C109 1.501 . S
C114 H115 0.961 . S
C114 H116 0.961 . S
C114 H117 0.960 . S
H115 C114 0.961 . S
H116 C114 0.961 . S
H117 C114 0.960 . S
C118 N119 1.342 . S
C118 C122 1.401 . S
C118 C123 1.499 . S
N119 Co102 1.989 . S
N119 C118 1.342 . S
N119 N120 1.388 . S
N120 Co103 1.993 . S
N120 N119 1.388 . S
N120 C121 1.346 . S
C121 N120 1.346 . S
C121 C122 1.396 . S
C121 C131 1.510 1_554 S
C122 C118 1.401 . S
C122 C121 1.396 . S
C123 C118 1.499 . S
C123 H124 0.959 . S
C123 H125 0.960 . S
C123 H126 0.961 . S
H124 C123 0.959 . S
H125 C123 0.960 . S
H126 C123 0.961 . S
O127 Co102 1.967 . S
O127 C135 1.258 . S
O128 Co103 1.941 . S
O128 C135 1.266 . S
H129 C131 0.959 . S
H130 C131 0.961 . S
C131 C121 1.510 1_556 S
C131 H129 0.959 . S
C131 H130 0.961 . S
C131 H132 0.960 . S
H132 C131 0.960 . S
H133 N113 0.862 . S
O134 Co102 1.920 . S
O134 C107 1.289 . S
C135 O127 1.258 . S
C135 O128 1.266 . S
Co136 O139 1.970 . S
Co136 N153 1.989 . S
Co136 O161 1.967 . S
Co136 O168 1.920 . S
Co137 O140 1.966 . S
Co137 N146 2.022 . S
Co137 N154 1.993 1_556 S
Co137 O162 1.941 . S
C138 O139 1.258 . S
C138 O140 1.263 1_554 S
O139 Co136 1.970 . S
O139 C138 1.258 . S
O140 Co137 1.966 . S
O140 C138 1.263 1_556 S
C141 O142 1.235 . S
C141 O168 1.289 . S
O142 C141 1.235 . S
C143 C145 1.400 . S
C143 N146 1.351 . S
C143 C148 1.501 . S
C144 C145 1.387 . S
C144 N147 1.341 . S
C145 C143 1.400 . S
C145 C144 1.387 . S
N146 Co137 2.022 . S
N146 C143 1.351 . S
N146 N147 1.365 . S
N147 C144 1.341 . S
N147 N146 1.365 . S
N147 H167 0.862 . S
C148 C143 1.501 . S
C148 H149 0.961 . S
C148 H150 0.961 . S
C148 H151 0.960 . S
H149 C148 0.961 . S
H150 C148 0.961 . S
H151 C148 0.960 . S
C152 N153 1.342 . S
C152 C156 1.401 . S
C152 C157 1.499 . S
N153 Co136 1.989 . S
N153 C152 1.342 . S
N153 N154 1.388 . S
N154 Co137 1.993 1_554 S
N154 N153 1.388 . S
N154 C155 1.346 1_554 S
C155 N154 1.346 1_556 S
C155 C156 1.396 1_556 S
C155 C165 1.510 . S
C156 C152 1.401 . S
C156 C155 1.396 1_554 S
C157 C152 1.499 . S
C157 H158 0.959 . S
C157 H159 0.960 . S
C157 H160 0.961 . S
H158 C157 0.959 . S
H159 C157 0.960 . S
H160 C157 0.961 . S
O161 Co136 1.967 . S
O161 C169 1.258 . S
O162 Co137 1.941 . S
O162 C169 1.266 1_556 S
H163 C165 0.959 . S
H164 C165 0.961 . S
C165 C155 1.510 . S
C165 H163 0.959 . S
C165 H164 0.961 . S
C165 H166 0.960 . S
H166 C165 0.960 . S
H167 N147 0.862 . S
O168 Co136 1.920 . S
O168 C141 1.289 . S
C169 O161 1.258 . S
C169 O162 1.266 1_554 S
Co170 O173 1.970 . S
Co170 N187 1.989 . S
Co170 O195 1.967 . S
Co170 O202 1.920 . S
Co171 O174 1.966 . S
Co171 N180 2.022 1_554 S
Co171 N188 1.993 . S
Co171 O196 1.941 . S
C172 O173 1.258 . S
C172 O174 1.263 . S
O173 Co170 1.970 . S
O173 C172 1.258 . S
O174 Co171 1.966 . S
O174 C172 1.263 . S
C175 O176 1.235 . S
C175 O202 1.289 . S
O176 C175 1.235 . S
C177 C179 1.400 . S
C177 N180 1.351 . S
C177 C182 1.501 . S
C178 C179 1.387 . S
C178 N181 1.341 . S
C179 C177 1.400 . S
C179 C178 1.387 . S
N180 Co171 2.022 1_556 S
N180 C177 1.351 . S
N180 N181 1.365 . S
N181 C178 1.341 . S
N181 N180 1.365 . S
N181 H201 0.862 . S
C182 C177 1.501 . S
C182 H183 0.961 . S
C182 H184 0.961 . S
C182 H185 0.960 . S
H183 C182 0.961 . S
H184 C182 0.961 . S
H185 C182 0.960 . S
C186 N187 1.342 . S
C186 C190 1.401 . S
C186 C191 1.499 . S
N187 Co170 1.989 . S
N187 C186 1.342 . S
N187 N188 1.388 . S
N188 Co171 1.993 . S
N188 N187 1.388 . S
N188 C189 1.346 . S
C189 N188 1.346 . S
C189 C190 1.396 . S
C189 C199 1.510 1_554 S
C190 C186 1.401 . S
C190 C189 1.396 . S
C191 C186 1.499 . S
C191 H192 0.959 . S
C191 H193 0.960 . S
C191 H194 0.961 . S
H192 C191 0.959 . S
H193 C191 0.960 . S
H194 C191 0.961 . S
O195 Co170 1.967 . S
O195 C203 1.258 . S
O196 Co171 1.941 . S
O196 C203 1.266 . S
H197 C199 0.959 . S
H198 C199 0.961 . S
C199 C189 1.510 1_556 S
C199 H197 0.959 . S
C199 H198 0.961 . S
C199 H200 0.960 . S
H200 C199 0.960 . S
H201 N181 0.862 . S
O202 Co170 1.920 . S
O202 C175 1.289 . S
C203 O195 1.258 . S
C203 O196 1.266 . S
H204 C210 0.930 . S
H205 C213 0.930 1_556 S
H206 C214 0.928 1_556 S
H207 C215 0.933 . S
H208 C218 0.930 . S
H209 C219 0.930 . S
C210 H204 0.930 . S
C210 C211 1.355 . S
C210 C212 1.394 1_455 S
C211 C210 1.355 . S
C211 C213 1.419 . S
C212 C210 1.394 1_655 S
C212 C217 1.434 . S
C212 C219 1.422 . S
C213 H205 0.930 1_554 S
C213 C211 1.419 . S
C213 C214 1.363 . S
C214 H206 0.928 1_554 S
C214 C213 1.363 . S
C214 C217 1.411 1_455 S
C215 H207 0.933 . S
C215 C216 1.355 . S
C215 C217 1.415 . S
C216 C215 1.355 . S
C216 C218 1.419 . S
C217 C212 1.434 . S
C217 C214 1.411 1_655 S
C217 C215 1.415 . S
C218 H208 0.930 . S
C218 C216 1.419 . S
C218 C219 1.362 . S
C219 H209 0.930 . S
C219 C212 1.422 . S
C219 C218 1.362 . S
H220 C226 0.930 . S
H221 C229 0.930 . S
H222 C230 0.930 . S
H223 C231 0.930 1_556 S
H224 C234 0.930 . S
H225 C235 0.930 . S
C226 H220 0.930 . S
C226 C227 1.355 . S
C226 C228 1.415 . S
C227 C226 1.355 . S
C227 C229 1.419 1_554 S
C228 C226 1.415 . S
C228 C233 1.425 . S
C228 C235 1.409 1_565 S
C229 H221 0.930 . S
C229 C227 1.419 1_556 S
C229 C230 1.362 . S
C230 H222 0.930 . S
C230 C229 1.362 . S
C230 C233 1.409 1_556 S
C231 H223 0.930 1_554 S
C231 C232 1.355 . S
C231 C233 1.415 1_545 S
C232 C231 1.355 . S
C232 C234 1.419 . S
C233 C228 1.425 . S
C233 C230 1.409 1_554 S
C233 C231 1.415 1_565 S
C234 H224 0.930 . S
C234 C232 1.419 . S
C234 C235 1.362 . S
C235 H225 0.930 . S
C235 C228 1.409 1_545 S
C235 C234 1.362 . S
H236 C242 0.930 . S
H237 C245 0.930 . S
H238 C246 0.930 . S
H239 C247 0.930 . S
H240 C250 0.930 . S
H241 C251 0.930 . S
C242 H236 0.930 . S
C242 C243 1.355 . S
C242 C244 1.415 . S
C243 C242 1.355 . S
C243 C245 1.419 . S
C244 C242 1.415 . S
C244 C249 1.425 . S
C244 C251 1.409 . S
C245 H237 0.930 . S
C245 C243 1.419 . S
C245 C246 1.362 . S
C246 H238 0.930 . S
C246 C245 1.362 . S
C246 C249 1.409 . S
C247 H239 0.930 . S
C247 C248 1.355 . S
C247 C249 1.415 . S
C248 C247 1.355 . S
C248 C250 1.419 . S
C249 C244 1.425 . S
C249 C246 1.409 . S
C249 C247 1.415 . S
C250 H240 0.930 . S
C250 C248 1.419 . S
C250 C251 1.362 . S
C251 H241 0.930 . S
C251 C244 1.409 . S
C251 C250 1.362 . S
H252 C258 0.930 . S
H253 C261 0.930 . S
H254 C262 0.930 . S
H255 C263 0.930 . S
H256 C266 0.930 . S
H257 C267 0.930 . S
C258 H252 0.930 . S
C258 C259 1.355 . S
C258 C260 1.415 . S
C259 C258 1.355 . S
C259 C261 1.419 . S
C260 C258 1.415 . S
C260 C265 1.425 . S
C260 C267 1.409 . S
C261 H253 0.930 . S
C261 C259 1.419 . S
C261 C262 1.362 . S
C262 H254 0.930 . S
C262 C261 1.362 . S
C262 C265 1.409 . S
C263 H255 0.930 . S
C263 C264 1.355 . S
C263 C265 1.415 . S
C264 C263 1.355 . S
C264 C266 1.419 . S
C265 C260 1.425 . S
C265 C262 1.409 . S
C265 C263 1.415 . S
C266 H256 0.930 . S
C266 C264 1.419 . S
C266 C267 1.362 . S
C267 H257 0.930 . S
C267 C260 1.409 . S
C267 C266 1.362 . S
H268 C274 0.930 . S
H269 C277 0.930 . S
H270 C278 0.930 . S
H271 C279 0.930 . S
H272 C282 0.930 . S
H273 C283 0.930 . S
C274 H268 0.930 . S
C274 C275 1.355 . S
C274 C276 1.415 . S
C275 C274 1.355 . S
C275 C277 1.419 . S
C276 C274 1.415 . S
C276 C281 1.425 . S
C276 C283 1.409 . S
C277 H269 0.930 . S
C277 C275 1.419 . S
C277 C278 1.362 . S
C278 H270 0.930 . S
C278 C277 1.362 . S
C278 C281 1.409 . S
C279 H271 0.930 . S
C279 C280 1.355 . S
C279 C281 1.415 . S
C280 C279 1.355 . S
C280 C282 1.419 . S
C281 C276 1.425 . S
C281 C278 1.409 . S
C281 C279 1.415 . S
C282 H272 0.930 . S
C282 C280 1.419 . S
C282 C283 1.362 . S
C283 H273 0.930 . S
C283 C276 1.409 . S
C283 C282 1.362 . S
H284 C290 0.930 . S
H285 C293 0.930 . S
H286 C294 0.930 . S
H287 C295 0.930 . S
H288 C298 0.930 . S
H289 C299 0.930 . S
C290 H284 0.930 . S
C290 C291 1.355 . S
C290 C292 1.415 . S
C291 C290 1.355 . S
C291 C293 1.419 . S
C292 C290 1.415 . S
C292 C297 1.425 . S
C292 C299 1.409 . S
C293 H285 0.930 . S
C293 C291 1.419 . S
C293 C294 1.362 . S
C294 H286 0.930 . S
C294 C293 1.362 . S
C294 C297 1.409 . S
C295 H287 0.930 . S
C295 C296 1.355 . S
C295 C297 1.415 . S
C296 C295 1.355 . S
C296 C298 1.419 . S
C297 C292 1.425 . S
C297 C294 1.409 . S
C297 C295 1.415 . S
C298 H288 0.930 . S
C298 C296 1.419 . S
C298 C299 1.362 . S
C299 H289 0.930 . S
C299 C292 1.409 . S
C299 C298 1.362 . S
H300 C306 0.930 . S
H301 C309 0.930 . S
H302 C310 0.930 . S
H303 C311 0.930 . S
H304 C314 0.930 . S
H305 C315 0.930 . S
C306 H300 0.930 . S
C306 C307 1.355 . S
C306 C308 1.415 . S
C307 C306 1.355 . S
C307 C309 1.419 . S
C308 C306 1.415 . S
C308 C313 1.425 . S
C308 C315 1.409 . S
C309 H301 0.930 . S
C309 C307 1.419 . S
C309 C310 1.362 . S
C310 H302 0.930 . S
C310 C309 1.362 . S
C310 C313 1.409 . S
C311 H303 0.930 . S
C311 C312 1.355 . S
C311 C313 1.415 . S
C312 C311 1.355 . S
C312 C314 1.419 . S
C313 C308 1.425 . S
C313 C310 1.409 . S
C313 C311 1.415 . S
C314 H304 0.930 . S
C314 C312 1.419 . S
C314 C315 1.362 . S
C315 H305 0.930 . S
C315 C308 1.409 . S
C315 C314 1.362 . S
H316 C322 0.930 . S
H317 C325 0.930 . S
H318 C326 0.930 . S
H319 C327 0.930 . S
H320 C330 0.930 . S
H321 C331 0.930 . S
C322 H316 0.930 . S
C322 C323 1.355 . S
C322 C324 1.415 . S
C323 C322 1.355 . S
C323 C325 1.419 . S
C324 C322 1.415 . S
C324 C329 1.425 . S
C324 C331 1.409 . S
C325 H317 0.930 . S
C325 C323 1.419 . S
C325 C326 1.362 . S
C326 H318 0.930 . S
C326 C325 1.362 . S
C326 C329 1.409 . S
C327 H319 0.930 . S
C327 C328 1.355 . S
C327 C329 1.415 . S
C328 C327 1.355 . S
C328 C330 1.419 . S
C329 C324 1.425 . S
C329 C326 1.409 . S
C329 C327 1.415 . S
C330 H320 0.930 . S
C330 C328 1.419 . S
C330 C331 1.362 . S
C331 H321 0.930 . S
C331 C324 1.409 . S
C331 C330 1.362 . S
H332 C338 0.930 . S
H333 C341 0.930 . S
H334 C342 0.930 . S
H335 C343 0.930 . S
H336 C346 0.930 . S
H337 C347 0.930 . S
C338 H332 0.930 . S
C338 C339 1.355 . S
C338 C340 1.415 . S
C339 C338 1.355 . S
C339 C341 1.419 . S
C340 C338 1.415 . S
C340 C345 1.425 . S
C340 C347 1.409 . S
C341 H333 0.930 . S
C341 C339 1.419 . S
C341 C342 1.362 . S
C342 H334 0.930 . S
C342 C341 1.362 . S
C342 C345 1.409 . S
C343 H335 0.930 . S
C343 C344 1.355 . S
C343 C345 1.415 . S
C344 C343 1.355 . S
C344 C346 1.419 . S
C345 C340 1.425 . S
C345 C342 1.409 . S
C345 C343 1.415 . S
C346 H336 0.930 . S
C346 C344 1.419 . S
C346 C347 1.362 . S
C347 H337 0.930 . S
C347 C340 1.409 . S
C347 C346 1.362 . S
H348 C354 0.930 . S
H349 C357 0.930 . S
H350 C358 0.930 . S
H351 C359 0.930 . S
H352 C362 0.930 . S
H353 C363 0.930 . S
C354 H348 0.930 . S
C354 C355 1.355 . S
C354 C356 1.415 . S
C355 C354 1.355 . S
C355 C357 1.419 . S
C356 C354 1.415 . S
C356 C361 1.425 . S
C356 C363 1.409 . S
C357 H349 0.930 . S
C357 C355 1.419 . S
C357 C358 1.362 . S
C358 H350 0.930 . S
C358 C357 1.362 . S
C358 C361 1.409 . S
C359 H351 0.930 . S
C359 C360 1.355 . S
C359 C361 1.415 . S
C360 C359 1.355 . S
C360 C362 1.419 . S
C361 C356 1.425 . S
C361 C358 1.409 . S
C361 C359 1.415 . S
C362 H352 0.930 . S
C362 C360 1.419 . S
C362 C363 1.362 . S
C363 H353 0.930 . S
C363 C356 1.409 . S
C363 C362 1.362 . S
H364 C370 0.930 1_556 S
H365 C373 0.930 . S
H366 C374 0.930 . S
H367 C375 0.930 . S
H368 C378 0.930 1_556 S
H369 C379 0.930 . S
C370 H364 0.930 1_554 S
C370 C371 1.355 . S
C370 C372 1.415 . S
C371 C370 1.355 . S
C371 C373 1.419 . S
C372 C370 1.415 . S
C372 C377 1.425 . S
C372 C379 1.409 1_554 S
C373 H365 0.930 . S
C373 C371 1.419 . S
C373 C374 1.362 . S
C374 H366 0.930 . S
C374 C373 1.362 . S
C374 C377 1.409 . S
C375 H367 0.930 . S
C375 C376 1.355 . S
C375 C377 1.415 . S
C376 C375 1.355 . S
C376 C378 1.419 . S
C377 C372 1.425 . S
C377 C374 1.409 . S
C377 C375 1.415 . S
C378 H368 0.930 1_554 S
C378 C376 1.419 . S
C378 C379 1.362 1_554 S
C379 H369 0.930 . S
C379 C372 1.409 1_556 S
C379 C378 1.362 1_556 S
H380 C386 0.930 . S
H381 C389 0.930 . S
H382 C390 0.930 . S
H383 C391 0.930 . S
H384 C394 0.930 1_556 S
H385 C395 0.930 . S
C386 H380 0.930 . S
C386 C387 1.355 . S
C386 C388 1.415 . S
C387 C386 1.355 . S
C387 C389 1.419 . S
C388 C386 1.415 . S
C388 C393 1.425 . S
C388 C395 1.409 . S
C389 H381 0.930 . S
C389 C387 1.419 . S
C389 C390 1.362 . S
C390 H382 0.930 . S
C390 C389 1.362 . S
C390 C393 1.409 . S
C391 H383 0.930 . S
C391 C392 1.355 . S
C391 C393 1.415 . S
C392 C391 1.355 . S
C392 C394 1.419 . S
C393 C388 1.425 . S
C393 C390 1.409 . S
C393 C391 1.415 . S
C394 H384 0.930 1_554 S
C394 C392 1.419 . S
C394 C395 1.362 . S
C395 H385 0.930 . S
C395 C388 1.409 . S
C395 C394 1.362 . S
H396 C402 0.930 . S
H397 C405 0.935 . S
H398 C406 0.930 1_556 S
H399 C407 0.930 . S
H400 C410 0.930 . S
H401 C411 0.930 . S
C402 H396 0.930 . S
C402 C403 1.355 . S
C402 C404 1.415 . S
C403 C402 1.355 . S
C403 C405 1.419 . S
C404 C402 1.415 . S
C404 C409 1.425 . S
C404 C411 1.409 . S
C405 H397 0.935 . S
C405 C403 1.419 . S
C405 C406 1.362 . S
C406 H398 0.930 1_554 S
C406 C405 1.362 . S
C406 C409 1.409 . S
C407 H399 0.930 . S
C407 C408 1.355 . S
C407 C409 1.415 . S
C408 C407 1.355 . S
C408 C410 1.419 . S
C409 C404 1.425 . S
C409 C406 1.409 . S
C409 C407 1.415 . S
C410 H400 0.930 . S
C410 C408 1.419 . S
C410 C411 1.362 . S
C411 H401 0.930 . S
C411 C404 1.409 . S
C411 C410 1.362 . S
H412 C418 0.930 . S
H413 C421 0.930 1_556 S
H414 C422 0.930 . S
H415 C423 0.930 1_556 S
H416 C426 0.930 . S
H417 C427 0.930 . S
C418 H412 0.930 . S
C418 C419 1.355 . S
C418 C420 1.415 . S
C419 C418 1.355 . S
C419 C421 1.419 . S
C420 C418 1.415 . S
C420 C425 1.425 . S
C420 C427 1.409 . S
C421 H413 0.930 1_554 S
C421 C419 1.419 . S
C421 C422 1.362 1_554 S
C422 H414 0.930 . S
C422 C421 1.362 1_556 S
C422 C425 1.409 1_556 S
C423 H415 0.930 1_554 S
C423 C424 1.355 . S
C423 C425 1.415 . S
C424 C423 1.355 . S
C424 C426 1.419 . S
C425 C420 1.425 . S
C425 C422 1.409 1_554 S
C425 C423 1.415 . S
C426 H416 0.930 . S
C426 C424 1.419 . S
C426 C427 1.362 . S
C427 H417 0.930 . S
C427 C420 1.409 . S
C427 C426 1.362 . S
H428 C434 0.930 . S
H429 C437 0.930 . S
H430 C438 0.930 . S
H431 C439 0.930 . S
H432 C442 0.930 . S
H433 C443 0.930 . S
C434 H428 0.930 . S
C434 C435 1.355 . S
C434 C436 1.415 . S
C435 C434 1.355 . S
C435 C437 1.419 . S
C436 C434 1.415 . S
C436 C441 1.425 . S
C436 C443 1.409 . S
C437 H429 0.930 . S
C437 C435 1.419 . S
C437 C438 1.362 . S
C438 H430 0.930 . S
C438 C437 1.362 . S
C438 C441 1.409 . S
C439 H431 0.930 . S
C439 C440 1.355 . S
C439 C441 1.415 . S
C440 C439 1.355 . S
C440 C442 1.419 . S
C441 C436 1.425 . S
C441 C438 1.409 . S
C441 C439 1.415 . S
C442 H432 0.930 . S
C442 C440 1.419 . S
C442 C443 1.362 . S
C443 H433 0.930 . S
C443 C436 1.409 . S
C443 C442 1.362 . S
C211 C20 1.329 . S
C216 C122 1.331 . S
C227 C156 1.490 . S
C232 C54 1.450 . S
C243 C190 1.350 . S
C248 C88 1.353 . S
C259 C9 1.436 . S
C264 C5 1.495 . S
C275 C39 1.490 . S
C280 C43 1.375 . S
C291 C73 1.489 . S
C296 C77 1.346 . S
C307 C111 1.359 . S
C312 C107 1.485 . S
C323 C141 1.501 . S
C328 C145 1.441 . S
C339 C175 1.494 . S
C344 C179 1.371 . S
C355 C2 1.088 . S
C360 C101 1.145 . S
C371 C67 1.198 . S
C376 C104 1.146 . S
C387 C70 1.115 . S
C392 C138 1.170 . S
C403 C135 0.967 . S
C408 C172 1.015 . S
C419 C33 1.001 . S
C424 C169 0.939 . S
C435 C36 1.326 . S
C440 C203 1.335 . S
