# Generated by pormake.
# Topology afw, (4)-cn, num edge types: 1
# Building blocks:
#     Node 0, Type 0, BuildingBlock: QUQFOY_clean_sbu_1, # of connection points: 4
#     Node 1, Type 0, BuildingBlock: QUQFOY_clean_sbu_1, # of connection points: 4
#     Node 2, Type 0, BuildingBlock: QUQFOY_clean_sbu_1, # of connection points: 4
#     Node 3, Type 0, BuildingBlock: QUQFOY_clean_sbu_1, # of connection points: 4
#     Node 4, Type 0, BuildingBlock: QUQFOY_clean_sbu_1, # of connection points: 4
#     Node 5, Type 0, BuildingBlock: QUQFOY_clean_sbu_1, # of connection points: 4
#     Node 6, Type 0, BuildingBlock: QUQFOY_clean_sbu_1, # of connection points: 4
#     Node 7, Type 0, BuildingBlock: QUQFOY_clean_sbu_1, # of connection points: 4
#     Node 8, Type 0, BuildingBlock: QUQFOY_clean_sbu_1, # of connection points: 4
#     Edge 9, Type (0, 0), BuildingBlock: TEMPAE_clean_linker_10, # of connection points: 2
#     Edge 10, Type (0, 0), BuildingBlock: TEMPAE_clean_linker_10, # of connection points: 2
#     Edge 11, Type (0, 0), BuildingBlock: TEMPAE_clean_linker_10, # of connection points: 2
#     Edge 12, Type (0, 0), BuildingBlock: TEMPAE_clean_linker_10, # of connection points: 2
#     Edge 13, Type (0, 0), BuildingBlock: TEMPAE_clean_linker_10, # of connection points: 2
#     Edge 14, Type (0, 0), BuildingBlock: TEMPAE_clean_linker_10, # of connection points: 2
#     Edge 15, Type (0, 0), BuildingBlock: TEMPAE_clean_linker_10, # of connection points: 2
#     Edge 16, Type (0, 0), BuildingBlock: TEMPAE_clean_linker_10, # of connection points: 2
#     Edge 17, Type (0, 0), BuildingBlock: TEMPAE_clean_linker_10, # of connection points: 2
#     Edge 18, Type (0, 0), BuildingBlock: TEMPAE_clean_linker_10, # of connection points: 2
#     Edge 19, Type (0, 0), BuildingBlock: TEMPAE_clean_linker_10, # of connection points: 2
#     Edge 20, Type (0, 0), BuildingBlock: TEMPAE_clean_linker_10, # of connection points: 2
#     Edge 21, Type (0, 0), BuildingBlock: TEMPAE_clean_linker_10, # of connection points: 2
#     Edge 22, Type (0, 0), BuildingBlock: TEMPAE_clean_linker_10, # of connection points: 2
#     Edge 23, Type (0, 0), BuildingBlock: TEMPAE_clean_linker_10, # of connection points: 2
#     Edge 24, Type (0, 0), BuildingBlock: TEMPAE_clean_linker_10, # of connection points: 2
#     Edge 25, Type (0, 0), BuildingBlock: TEMPAE_clean_linker_10, # of connection points: 2
#     Edge 26, Type (0, 0), BuildingBlock: TEMPAE_clean_linker_10, # of connection points: 2
# Relax obj value: 0.125
# Max RMSD: 0.152
# Mean RMSD: 0.152
data_MOF--net-afw--node1-QUQFOY_clean_sbu_1--edge1-TEMPAE_clean_linker_10
_symmetry_space_group_name_H-M    P1
_symmetry_Int_Tables_number       1
_symmetry_cell_setting            triclinic
loop_
_symmetry_equiv_pos_as_xyz
'x, y, z'
_cell_length_a     43.303182
_cell_length_b     43.291131
_cell_length_c     38.244633
_cell_angle_alpha  89.941596
_cell_angle_beta   90.042002
_cell_angle_gamma 120.0359
loop_
_atom_site_label
_atom_site_type_symbol
_atom_site_fract_x
_atom_site_fract_y
_atom_site_fract_z
_atom_type_partial_charge
O0 O 0.05457 0.20539 0.98598 0.0
Cd1 Cd 0.01081 0.21236 0.98253 0.0
Cd2 Cd 0.02207 0.21845 0.05119 0.0
O3 O 0.0718 0.22569 0.03933 0.0
O4 O 0.00982 0.22208 0.93169 0.0
O5 O 0.01692 0.26098 0.97283 0.0
C6 C 0.0156 0.25338 0.94001 0.0
C7 C 0.01447 0.25572 0.08977 0.0
C8 C 0.07706 0.2142 0.01069 0.0
C9 C 0.95826 0.15152 0.02405 0.0
O10 O 0.98053 0.16624 0.04884 0.0
O11 O 0.9627 0.16781 0.99515 0.0
O12 O 0.02503 0.23434 0.10066 0.0
O13 O 0.00929 0.25691 0.05664 0.0
O14 O 0.86889 0.83214 0.04908 0.0
Cd15 Cd 0.81833 0.82495 0.05546 0.0
Cd16 Cd 0.82189 0.82189 0.98509 0.0
O17 O 0.86651 0.81728 0.99364 0.0
O18 O 0.8097 0.81364 0.10626 0.0
O19 O 0.77603 0.7761 0.06499 0.0
C20 C 0.78364 0.78271 0.09779 0.0
C21 C 0.77968 0.78738 0.94259 0.0
C22 C 0.88303 0.82633 0.02265 0.0
C23 C 0.82413 0.88691 0.01834 0.0
O24 O 0.82978 0.87276 0.99179 0.0
O25 O 0.81466 0.87012 0.0472 0.0
O26 O 0.81079 0.81323 0.93423 0.0
O27 O 0.77281 0.78002 0.97541 0.0
O28 O 0.16079 0.98157 0.98786 0.0
Cd29 Cd 0.21174 0.02459 0.98182 0.0
Cd30 Cd 0.20822 0.01743 0.05182 0.0
O31 O 0.16334 0.96843 0.04309 0.0
O32 O 0.22093 0.0224 0.93113 0.0
O33 O 0.25346 0.01713 0.97276 0.0
C34 C 0.24645 0.0168 0.93987 0.0
C35 C 0.25074 0.02404 0.09333 0.0
C36 C 0.14673 0.9613 0.01415 0.0
C37 C 0.20755 0.08132 0.01942 0.0
O38 O 0.20121 0.06107 0.04577 0.0
O39 O 0.21677 0.07393 0.9905 0.0
O40 O 0.2201 0.01951 0.10242 0.0
O41 O 0.25696 0.02352 0.06035 0.0
O42 O 0.64762 0.49536 0.38107 0.0
Cd43 Cd 0.69073 0.5462 0.38731 0.0
Cd44 Cd 0.68399 0.54302 0.31718 0.0
O45 O 0.63507 0.49793 0.32565 0.0
O46 O 0.68823 0.55535 0.43796 0.0
O47 O 0.68353 0.58812 0.39619 0.0
C48 C 0.68291 0.58103 0.4291 0.0
C49 C 0.69054 0.58549 0.27556 0.0
C50 C 0.62765 0.48129 0.3546 0.0
C51 C 0.74767 0.54213 0.34991 0.0
O52 O 0.72773 0.53624 0.3234 0.0
O53 O 0.73997 0.55093 0.37891 0.0
O54 O 0.68626 0.55491 0.26655 0.0
O55 O 0.68981 0.59167 0.30851 0.0
O56 O 0.53894 0.16333 0.3758 0.0
Cd57 Cd 0.48827 0.15591 0.38279 0.0
Cd58 Cd 0.49112 0.15254 0.3124 0.0
O59 O 0.5361 0.14849 0.32029 0.0
O60 O 0.47982 0.14473 0.43366 0.0
O61 O 0.44613 0.10701 0.39255 0.0
C62 C 0.45372 0.11377 0.42534 0.0
C63 C 0.44854 0.11794 0.27035 0.0
C64 C 0.55293 0.15768 0.34912 0.0
C65 C 0.49312 0.21741 0.34551 0.0
O66 O 0.49871 0.20325 0.31897 0.0
O67 O 0.48407 0.20081 0.37449 0.0
O68 O 0.47944 0.14394 0.26168 0.0
O69 O 0.44214 0.11037 0.30318 0.0
O70 O 0.87027 0.38735 0.38178 0.0
Cd71 Cd 0.8777 0.34384 0.38478 0.0
Cd72 Cd 0.88406 0.35581 0.31636 0.0
O73 O 0.89113 0.4054 0.32872 0.0
O74 O 0.8875 0.34249 0.43555 0.0
O75 O 0.92649 0.35033 0.39422 0.0
C76 C 0.91887 0.34864 0.42708 0.0
C77 C 0.9215 0.34861 0.27765 0.0
C78 C 0.87926 0.41017 0.35735 0.0
C79 C 0.81723 0.29149 0.34295 0.0
O80 O 0.8319 0.31413 0.31842 0.0
O81 O 0.83347 0.29564 0.37181 0.0
O82 O 0.90011 0.3592 0.2669 0.0
O83 O 0.92262 0.34321 0.31075 0.0
O84 O 0.39723 0.87655 0.6622 0.0
Cd85 Cd 0.35126 0.8779 0.64985 0.0
Cd86 Cd 0.34677 0.87602 0.72206 0.0
O87 O 0.39407 0.87579 0.71989 0.0
O88 O 0.35831 0.89006 0.59909 0.0
O89 O 0.35343 0.9246 0.63855 0.0
C90 C 0.35863 0.91925 0.6064 0.0
C91 C 0.33874 0.91105 0.76355 0.0
C92 C 0.40974 0.87543 0.69196 0.0
C93 C 0.28935 0.81339 0.68176 0.0
O94 O 0.30271 0.82755 0.71107 0.0
O95 O 0.30348 0.82974 0.65338 0.0
O96 O 0.33942 0.88267 0.77229 0.0
O97 O 0.34372 0.92041 0.73103 0.0
O98 O 0.20004 0.4984 0.71486 0.0
Cd99 Cd 0.1486 0.48974 0.71745 0.0
Cd100 Cd 0.15557 0.48285 0.64881 0.0
O101 O 0.19973 0.47875 0.66166 0.0
O102 O 0.13722 0.47961 0.76813 0.0
O103 O 0.10678 0.44052 0.72661 0.0
C104 C 0.11239 0.44806 0.75951 0.0
C105 C 0.114 0.44633 0.60686 0.0
C106 C 0.21531 0.49069 0.69081 0.0
C107 C 0.15571 0.54918 0.67536 0.0
O108 O 0.16366 0.5341 0.65133 0.0
O109 O 0.1439 0.53357 0.70453 0.0
O110 O 0.14543 0.47136 0.59816 0.0
O111 O 0.10654 0.44069 0.63978 0.0
O112 O 0.49406 0.63946 0.65646 0.0
Cd113 Cd 0.54292 0.68325 0.64591 0.0
Cd114 Cd 0.5442 0.68689 0.71808 0.0
O115 O 0.49605 0.63919 0.71414 0.0
O116 O 0.54988 0.67619 0.59569 0.0
O117 O 0.58696 0.67951 0.6372 0.0
C118 C 0.57792 0.67493 0.6046 0.0
C119 C 0.5854 0.69388 0.7615 0.0
C120 C 0.47974 0.62565 0.6856 0.0
C121 C 0.54253 0.74613 0.67645 0.0
O122 O 0.54295 0.73298 0.70608 0.0
O123 O 0.54349 0.73096 0.64838 0.0
O124 O 0.55625 0.69362 0.76886 0.0
O125 O 0.59079 0.68882 0.72932 0.0
C126 C 0.21321 0.13865 0.99739 0.0
C127 C 0.19858 0.11009 0.02111 0.0
C128 C 0.20057 0.16291 0.9958 0.0
C129 C 0.17171 0.15748 0.01741 0.0
C130 C 0.15804 0.12964 0.04247 0.0
C131 C 0.17207 0.10673 0.0444 0.0
C132 C 0.21693 0.19321 0.96985 0.0
C133 C 0.1267 0.12225 0.06547 0.0
C134 C 0.13485 0.21983 0.03118 0.0
C135 C 0.10579 0.20519 0.00807 0.0
C136 C 0.1587 0.20668 0.03243 0.0
C137 C 0.15244 0.1774 0.01104 0.0
C138 C 0.12426 0.16389 0.98638 0.0
C139 C 0.10171 0.17836 0.98482 0.0
C140 C 0.18938 0.22284 0.05795 0.0
C141 C 0.11603 0.13218 0.96357 0.0
H142 H 0.23395 0.14157 0.97955 0.0
H143 H 0.16051 0.08462 0.06269 0.0
H144 H 0.19912 0.18665 0.94685 0.0
H145 H 0.22009 0.21808 0.98158 0.0
H146 H 0.24337 0.19826 0.96058 0.0
H147 H 0.1203 0.10056 0.08464 0.0
H148 H 0.13218 0.14661 0.08 0.0
H149 H 0.1028 0.11441 0.04897 0.0
H150 H 0.13838 0.24083 0.04898 0.0
H151 H 0.07928 0.16682 0.96691 0.0
H152 H 0.21387 0.22536 0.04594 0.0
H153 H 0.18281 0.20524 0.08113 0.0
H154 H 0.19507 0.24957 0.06701 0.0
H155 H 0.14012 0.13698 0.94893 0.0
H156 H 0.09436 0.12613 0.94451 0.0
H157 H 0.10777 0.1083 0.98024 0.0
C158 C 0.82162 0.93989 0.0417 0.0
C159 C 0.8342 0.92502 0.01685 0.0
C160 C 0.8354 0.977 0.04322 0.0
C161 C 0.86328 0.99969 0.02023 0.0
C162 C 0.8749 0.98461 0.99415 0.0
C163 C 0.85981 0.9475 0.99244 0.0
C164 C 0.82129 0.99199 0.07043 0.0
C165 C 0.90513 0.00774 0.96961 0.0
C166 C 0.89999 0.09883 1.00557 0.0
C167 C 0.93023 0.11355 0.02717 0.0
C168 C 0.87609 0.06181 1.00509 0.0
C169 C 0.88342 0.03903 0.02571 0.0
C170 C 0.91305 0.05398 0.04869 0.0
C171 C 0.93572 0.09106 0.04953 0.0
C172 C 0.844 0.047 0.98131 0.0
C173 C 0.92243 0.03071 0.07052 0.0
H174 H 0.80161 0.92262 0.06045 0.0
H175 H 0.86983 0.93627 0.97325 0.0
H176 H 0.84086 0.00391 0.09204 0.0
H177 H 0.81748 0.01345 0.05906 0.0
H178 H 0.79555 0.97107 0.0816 0.0
H179 H 0.90994 0.99181 0.94986 0.0
H180 H 0.89945 0.02682 0.95571 0.0
H181 H 0.93002 0.02362 0.98486 0.0
H182 H 0.89544 0.11615 0.98846 0.0
H183 H 0.95913 0.10222 0.06617 0.0
H184 H 0.82004 0.02579 0.9948 0.0
H185 H 0.84882 0.03481 0.95797 0.0
H186 H 0.83834 0.06808 0.97231 0.0
H187 H 0.89921 0.01174 0.08642 0.0
H188 H 0.94527 0.04655 0.08836 0.0
H189 H 0.9295 0.0147 0.05308 0.0
C190 C 0.94355 0.86204 0.04843 0.0
C191 C 0.92097 0.83596 0.02446 0.0
C192 C 0.98062 0.87691 0.04676 0.0
C193 C 0.99551 0.86452 0.02125 0.0
C194 C 0.97269 0.83601 0.99893 0.0
C195 C 0.93563 0.82253 1.00029 0.0
C196 C 0.00387 0.90788 0.07049 0.0
C197 C 0.98746 0.82096 0.97249 0.0
C198 C 0.08581 0.93669 0.98948 0.0
C199 C 0.10894 0.93268 0.01226 0.0
C200 C 0.04887 0.91356 0.99104 0.0
C201 C 0.03473 0.88486 0.01514 0.0
C202 C 0.05818 0.87891 0.03622 0.0
C203 C 0.09506 0.90339 0.03509 0.0
C204 C 0.0249 0.92158 0.96873 0.0
C205 C 0.04426 0.84771 0.06109 0.0
H206 H 0.93246 0.87268 0.0671 0.0
H207 H 0.91825 0.80212 0.98192 0.0
H208 H 0.02312 0.90269 0.08473 0.0
H209 H 0.01956 0.93233 0.05457 0.0
H210 H 0.98807 0.9132 0.08995 0.0
H211 H 0.96656 0.79455 0.96258 0.0
H212 H 0.99857 0.83944 0.94993 0.0
H213 H 0.00944 0.81814 0.98404 0.0
H214 H 0.09635 0.95938 0.9719 0.0
H215 H 0.11291 0.9 0.0525 0.0
H216 H 0.00857 0.92856 0.9858 0.0
H217 H 0.00625 0.89773 0.95339 0.0
H218 H 0.04019 0.94404 0.95033 0.0
H219 H 0.03272 0.85328 0.08448 0.0
H220 H 0.06573 0.84257 0.06991 0.0
H221 H 0.02277 0.82319 0.04861 0.0
C222 C 0.88567 0.4687 0.33823 0.0
C223 C 0.87008 0.43875 0.36024 0.0
C224 C 0.87272 0.49272 0.33729 0.0
C225 C 0.84266 0.48575 0.3578 0.0
C226 C 0.82804 0.45653 0.38129 0.0
C227 C 0.84232 0.43381 0.38264 0.0
C228 C 0.89004 0.52447 0.31307 0.0
C229 C 0.79546 0.4475 0.40306 0.0
C230 C 0.80415 0.54652 0.37285 0.0
C231 C 0.77642 0.53312 0.34822 0.0
C232 C 0.82814 0.53356 0.37438 0.0
C233 C 0.82332 0.50563 0.35168 0.0
C234 C 0.79643 0.49332 0.32569 0.0
C235 C 0.77376 0.50765 0.32392 0.0
C236 C 0.85746 0.54849 0.40141 0.0
C237 C 0.7897 0.46301 0.30147 0.0
H238 H 0.90735 0.47285 0.3211 0.0
H239 H 0.83001 0.41066 0.39964 0.0
H240 H 0.87336 0.51905 0.28935 0.0
H241 H 0.89229 0.54852 0.32587 0.0
H242 H 0.91702 0.53033 0.30476 0.0
H243 H 0.78841 0.42486 0.4212 0.0
H244 H 0.79987 0.47094 0.41864 0.0
H245 H 0.77235 0.4403 0.38559 0.0
H246 H 0.80656 0.56647 0.39147 0.0
H247 H 0.75232 0.49704 0.30489 0.0
H248 H 0.88268 0.55204 0.39021 0.0
H249 H 0.84995 0.52956 0.4236 0.0
H250 H 0.86231 0.57452 0.41176 0.0
H251 H 0.81456 0.46889 0.28769 0.0
H252 H 0.7689 0.45779 0.28161 0.0
H253 H 0.78092 0.43829 0.31695 0.0
C254 C 0.5296 0.27813 0.32039 0.0
C255 C 0.50296 0.25541 0.34385 0.0
C256 C 0.54445 0.3152 0.32216 0.0
C257 C 0.53145 0.32996 0.3472 0.0
C258 C 0.50249 0.30701 0.36901 0.0
C259 C 0.48905 0.26994 0.36761 0.0
C260 C 0.57593 0.33859 0.29902 0.0
C261 C 0.48682 0.32164 0.39492 0.0
C262 C 0.60269 0.42041 0.37959 0.0
C263 C 0.59904 0.44347 0.35637 0.0
C264 C 0.5797 0.38344 0.37797 0.0
C265 C 0.5515 0.36918 0.35333 0.0
C266 C 0.54587 0.39255 0.33177 0.0
C267 C 0.57021 0.42947 0.33301 0.0
C268 C 0.58738 0.35956 0.40082 0.0
C269 C 0.51518 0.3785 0.30629 0.0
H270 H 0.54064 0.26711 0.30207 0.0
H271 H 0.46822 0.25245 0.38558 0.0
H272 H 0.57097 0.35777 0.28436 0.0
H273 H 0.59997 0.35436 0.31544 0.0
H274 H 0.58182 0.32287 0.27996 0.0
H275 H 0.46026 0.30065 0.40443 0.0
H276 H 0.50484 0.33279 0.41779 0.0
H277 H 0.48412 0.34358 0.38305 0.0
H278 H 0.62502 0.43104 0.3976 0.0
H279 H 0.56709 0.44725 0.31525 0.0
H280 H 0.59489 0.34337 0.38417 0.0
H281 H 0.56324 0.34078 0.41573 0.0
H282 H 0.60938 0.37494 0.41965 0.0
H283 H 0.52125 0.3669 0.28326 0.0
H284 H 0.51017 0.39991 0.29695 0.0
H285 H 0.49044 0.35701 0.31846 0.0
C286 C 0.61354 0.19272 0.37506 0.0
C287 C 0.59095 0.16747 0.35046 0.0
C288 C 0.65062 0.20769 0.3732 0.0
C289 C 0.66554 0.19629 0.34675 0.0
C290 C 0.64274 0.16871 0.32357 0.0
C291 C 0.60566 0.15505 0.32526 0.0
C292 C 0.67388 0.2376 0.39798 0.0
C293 C 0.65755 0.15481 0.29597 0.0
C294 C 0.75677 0.2691 0.3176 0.0
C295 C 0.77932 0.26339 0.33967 0.0
C296 C 0.71971 0.24636 0.31844 0.0
C297 C 0.70484 0.21646 0.34111 0.0
C298 C 0.72769 0.2089 0.36134 0.0
C299 C 0.76468 0.23287 0.3609 0.0
C300 C 0.69639 0.25597 0.29702 0.0
C301 C 0.71297 0.17651 0.38474 0.0
H302 H 0.60244 0.2026 0.39453 0.0
H303 H 0.58831 0.13531 0.30636 0.0
H304 H 0.69295 0.23167 0.41155 0.0
H305 H 0.68977 0.26267 0.38298 0.0
H306 H 0.65806 0.24222 0.41801 0.0
H307 H 0.63657 0.12914 0.28475 0.0
H308 H 0.66928 0.17454 0.27445 0.0
H309 H 0.6791 0.15095 0.30698 0.0
H310 H 0.76787 0.29272 0.30124 0.0
H311 H 0.78204 0.22815 0.37776 0.0
H312 H 0.68043 0.26285 0.31475 0.0
H313 H 0.67738 0.23292 0.28097 0.0
H314 H 0.71217 0.27901 0.27937 0.0
H315 H 0.70096 0.18108 0.40837 0.0
H316 H 0.73406 0.1707 0.39329 0.0
H317 H 0.69165 0.15273 0.37114 0.0
C318 C 0.4341 0.83855 0.71494 0.0
C319 C 0.43861 0.86685 0.69368 0.0
C320 C 0.45676 0.82431 0.71181 0.0
C321 C 0.48565 0.83986 0.68794 0.0
C322 C 0.49212 0.87046 0.66859 0.0
C323 C 0.46785 0.883 0.67094 0.0
C324 C 0.44805 0.79093 0.73209 0.0
C325 C 0.52365 0.88896 0.64428 0.0
C326 C 0.5471 0.80195 0.70066 0.0
C327 C 0.53436 0.77535 0.67493 0.0
C328 C 0.5339 0.82565 0.70317 0.0
C329 C 0.50608 0.82133 0.68057 0.0
C330 C 0.49444 0.79559 0.65347 0.0
C331 C 0.5093 0.77343 0.65056 0.0
C332 C 0.54835 0.85399 0.73117 0.0
C333 C 0.46412 0.78926 0.62943 0.0
H334 H 0.41116 0.82576 0.73216 0.0
H335 H 0.47133 0.90496 0.65453 0.0
H336 H 0.44166 0.76875 0.71362 0.0
H337 H 0.47138 0.79516 0.74776 0.0
H338 H 0.42501 0.78259 0.74999 0.0
H339 H 0.52939 0.9163 0.6375 0.0
H340 H 0.54782 0.89068 0.65625 0.0
H341 H 0.51804 0.87348 0.61971 0.0
H342 H 0.56665 0.80356 0.71942 0.0
H343 H 0.49915 0.75261 0.63088 0.0
H344 H 0.52939 0.84539 0.7534 0.0
H345 H 0.55149 0.87943 0.72101 0.0
H346 H 0.57451 0.8589 0.74123 0.0
H347 H 0.43928 0.7796 0.64492 0.0
H348 H 0.4593 0.76926 0.60883 0.0
H349 H 0.46966 0.81448 0.61659 0.0
C350 C 0.23638 0.76132 0.6535 0.0
C351 C 0.2609 0.77547 0.68109 0.0
C352 C 0.21225 0.72438 0.65131 0.0
C353 C 0.21402 0.70112 0.67634 0.0
C354 C 0.23802 0.71554 0.70479 0.0
C355 C 0.26059 0.75252 0.70715 0.0
C356 C 0.18588 0.71018 0.62153 0.0
C357 C 0.24179 0.69184 0.73146 0.0
C358 C 0.14924 0.60229 0.69003 0.0
C359 C 0.16612 0.58716 0.67116 0.0
C360 C 0.16265 0.63938 0.68941 0.0
C361 C 0.19452 0.66178 0.67084 0.0
C362 C 0.2107 0.64636 0.65062 0.0
C363 C 0.19589 0.60925 0.65051 0.0
C364 C 0.14367 0.65467 0.70993 0.0
C365 C 0.24532 0.66914 0.63132 0.0
H366 H 0.23636 0.77904 0.63345 0.0
H367 H 0.27971 0.76327 0.7284 0.0
H368 H 0.19531 0.69845 0.60135 0.0
H369 H 0.15946 0.68877 0.6308 0.0
H370 H 0.18261 0.73155 0.60905 0.0
H371 H 0.26112 0.70736 0.75246 0.0
H372 H 0.21566 0.67365 0.74372 0.0
H373 H 0.25096 0.675 0.71832 0.0
H374 H 0.12602 0.58525 0.70577 0.0
H375 H 0.20921 0.59775 0.63603 0.0
H376 H 0.14308 0.67638 0.69502 0.0
H377 H 0.15815 0.66627 0.73472 0.0
H378 H 0.11588 0.63394 0.71644 0.0
H379 H 0.24289 0.68808 0.61361 0.0
H380 H 0.2536 0.65293 0.61561 0.0
H381 H 0.26681 0.68516 0.65039 0.0
C382 C 0.2752 0.53109 0.71591 0.0
C383 C 0.25337 0.50146 0.69499 0.0
C384 C 0.31234 0.5462 0.71589 0.0
C385 C 0.32807 0.53049 0.69545 0.0
C386 C 0.30596 0.49878 0.67652 0.0
C387 C 0.26883 0.48506 0.67586 0.0
C388 C 0.3348 0.58064 0.73557 0.0
C389 C 0.32161 0.48032 0.6557 0.0
C390 C 0.41899 0.59734 0.66 0.0
C391 C 0.4418 0.59727 0.686 0.0
C392 C 0.38201 0.57469 0.66211 0.0
C393 C 0.36745 0.55025 0.69023 0.0
C394 C 0.39056 0.54817 0.7152 0.0
C395 C 0.42751 0.57234 0.71327 0.0
C396 C 0.35845 0.57878 0.63553 0.0
C397 C 0.3762 0.52138 0.74464 0.0
H398 H 0.26345 0.54406 0.73058 0.0
H399 H 0.25202 0.46195 0.65989 0.0
H400 H 0.35379 0.57819 0.75318 0.0
H401 H 0.35075 0.60242 0.71674 0.0
H402 H 0.31837 0.58851 0.75144 0.0
H403 H 0.30106 0.45262 0.64867 0.0
H404 H 0.33344 0.49531 0.63117 0.0
H405 H 0.34322 0.47958 0.67062 0.0
H406 H 0.42985 0.61676 0.63901 0.0
H407 H 0.44511 0.57204 0.73326 0.0
H408 H 0.3415 0.58773 0.64881 0.0
H409 H 0.34037 0.55281 0.62295 0.0
H410 H 0.37407 0.59842 0.61477 0.0
H411 H 0.36392 0.53028 0.76475 0.0
H412 H 0.39756 0.51824 0.75733 0.0
H413 H 0.35517 0.49497 0.73493 0.0
C414 C 0.04011 0.27914 0.88153 0.0
C415 C 0.02369 0.28052 0.9126 0.0
C416 C 0.0516 0.30637 0.85648 0.0
C417 C 0.04539 0.33516 0.86201 0.0
C418 C 0.02718 0.33578 0.89256 0.0
C419 C 0.01717 0.30878 0.91788 0.0
C420 C 0.07196 0.30519 0.82493 0.0
C421 C 0.01896 0.36533 0.89883 0.0
C422 C 0.11075 0.42261 0.81828 0.0
C423 C 0.09336 0.42067 0.78673 0.0
C424 C 0.0951 0.39529 0.84326 0.0
C425 C 0.06062 0.36582 0.83713 0.0
C426 C 0.04215 0.36459 0.80606 0.0
C427 C 0.05906 0.39172 0.78086 0.0
C428 C 0.11627 0.39717 0.87541 0.0
C429 C 0.00489 0.33427 0.79912 0.0
H430 H 0.04552 0.2575 0.8775 0.0
H431 H 0.00428 0.30979 0.9418 0.0
H432 H 0.05886 0.30658 0.80053 0.0
H433 H 0.09932 0.32869 0.82515 0.0
H434 H 0.074 0.28062 0.82419 0.0
H435 H 1.00088 0.35964 0.92152 0.0
H436 H 0.04405 0.39071 0.90385 0.0
H437 H 0.00643 0.36939 0.87527 0.0
H438 H 0.13742 0.44479 0.82278 0.0
H439 H 0.04547 0.39028 0.75657 0.0
H440 H 0.12096 0.3742 0.87566 0.0
H441 H 0.10107 0.39532 0.89939 0.0
H442 H 0.14249 0.42221 0.87655 0.0
H443 H 0.00554 0.30932 0.7945 0.0
H444 H 0.9926 0.33943 0.77598 0.0
H445 H 0.98764 0.32972 0.82225 0.0
C446 C 0.7216 0.73573 0.92203 0.0
C447 C 0.75216 0.76875 0.91533 0.0
C448 C 0.69436 0.71943 0.89686 0.0
C449 C 0.69737 0.7371 0.86474 0.0
C450 C 0.72855 0.77008 0.85765 0.0
C451 C 0.7557 0.78523 0.88282 0.0
C452 C 0.66198 0.68379 0.905 0.0
C453 C 0.73253 0.79028 0.82415 0.0
C454 C 0.63867 0.69226 0.78531 0.0
C455 C 0.6126 0.7022 0.78893 0.0
C456 C 0.6655 0.70188 0.81071 0.0
C457 C 0.66689 0.7229 0.83971 0.0
C458 C 0.64034 0.73261 0.8436 0.0
C459 C 0.61328 0.72171 0.81846 0.0
C460 C 0.69273 0.69015 0.80619 0.0
C461 C 0.64131 0.7558 0.87357 0.0
H462 H 0.71884 0.72277 0.94702 0.0
H463 H 0.77916 0.81085 0.87752 0.0
H464 H 0.63839 0.68712 0.90847 0.0
H465 H 0.6561 0.66505 0.8829 0.0
H466 H 0.66555 0.67165 0.92916 0.0
H467 H 0.75896 0.81497 0.8221 0.0
H468 H 0.72898 0.77318 0.8012 0.0
H469 H 0.71148 0.79773 0.82277 0.0
H470 H 0.63808 0.67696 0.76263 0.0
H471 H 0.59335 0.7297 0.82127 0.0
H472 H 0.69506 0.67761 0.83062 0.0
H473 H 0.7193 0.71369 0.80086 0.0
H474 H 0.68581 0.67089 0.78434 0.0
H475 H 0.64135 0.74334 0.8989 0.0
H476 H 0.61827 0.7604 0.87318 0.0
H477 H 0.66627 0.78204 0.87232 0.0
C478 C 0.33997 0.96653 0.7848 0.0
C479 C 0.33035 0.93075 0.78993 0.0
C480 C 0.33054 0.98457 0.80937 0.0
C481 C 0.31007 0.96599 0.83907 0.0
C482 C 0.30065 0.92995 0.84445 0.0
C483 C 0.31134 0.91298 0.82009 0.0
C484 C 0.34193 0.02328 0.80327 0.0
C485 C 0.27805 0.90883 0.87522 0.0
C486 C 0.29817 0.01046 0.91967 0.0
C487 C 0.26495 0.00747 0.91295 0.0
C488 C 0.31428 0.99895 0.89493 0.0
C489 C 0.29616 0.98307 0.86334 0.0
C490 C 0.26297 0.98073 0.8562 0.0
C491 C 0.24805 0.9934 0.88086 0.0
C492 C 0.35017 0.00284 0.90303 0.0
C493 C 0.24227 0.96315 0.8233 0.0
H494 H 0.3549 0.98042 0.76163 0.0
H495 H 0.30362 0.88523 0.82407 0.0
H496 H 0.31819 0.02591 0.79783 0.0
H497 H 0.3549 0.03916 0.82708 0.0
H498 H 0.36071 0.03484 0.78093 0.0
H499 H 0.27353 0.88121 0.87592 0.0
H500 H 0.29094 0.92231 0.90007 0.0
H501 H 0.25175 0.90739 0.87399 0.0
H502 H 0.31144 0.02155 0.94434 0.0
H503 H 0.22224 0.99079 0.8756 0.0
H504 H 0.36848 0.01491 0.88047 0.0
H505 H 0.34712 0.97615 0.90765 0.0
H506 H 0.36266 0.01957 0.92654 0.0
H507 H 0.25896 0.97586 0.79988 0.0
H508 H 0.21749 0.96467 0.82107 0.0
H509 H 0.23492 0.93463 0.82306 0.0
C510 C 0.42201 0.11756 0.21252 0.0
C511 C 0.42063 0.09953 0.24347 0.0
C512 C 0.39432 0.10238 0.18791 0.0
C513 C 0.36497 0.06778 0.19384 0.0
C514 C 0.36423 0.0487 0.22428 0.0
C515 C 0.39181 0.06508 0.24909 0.0
C516 C 0.39573 0.12412 0.15639 0.0
C517 C 0.33396 0.01134 0.23097 0.0
C518 C 0.27781 0.04833 0.15147 0.0
C519 C 0.27856 0.03217 0.11998 0.0
C520 C 0.30541 0.05934 0.17603 0.0
C521 C 0.33396 0.05304 0.16947 0.0
C522 C 0.33401 0.0352 0.13843 0.0
C523 C 0.30659 0.02552 0.11371 0.0
C524 C 0.30478 0.07922 0.20823 0.0
C525 C 0.3634 0.02701 0.13103 0.0
H526 H 0.4441 0.14433 0.20818 0.0
H527 H 0.39078 0.05098 0.27289 0.0
H528 H 0.39337 0.10928 0.132 0.0
H529 H 0.37286 0.12894 0.15707 0.0
H530 H 0.42081 0.15031 0.15525 0.0
H531 H 0.33937 0.99865 0.25362 0.0
H532 H 0.3091 0.01197 0.23627 0.0
H533 H 0.32908 0.99445 0.20749 0.0
H534 H 0.25632 0.05377 0.15632 0.0
H535 H 0.30709 0.01279 0.08949 0.0
H536 H 0.32828 0.10658 0.2081 0.0
H537 H 0.30657 0.06572 0.23216 0.0
H538 H 0.28025 0.08126 0.20981 0.0
H539 H 0.38878 0.05218 0.12622 0.0
H540 H 0.35744 0.00945 0.10786 0.0
H541 H 0.36763 0.01389 0.15401 0.0
C542 C 0.97262 0.27407 0.11331 0.0
C543 C 0.0057 0.27575 0.11514 0.0
C544 C 0.96135 0.28825 0.14018 0.0
C545 C 0.98443 0.30587 0.16874 0.0
C546 C 0.01876 0.30939 0.16957 0.0
C547 C 0.02863 0.29345 0.14317 0.0
C548 C 0.92406 0.28275 0.13886 0.0
C549 C 0.04474 0.32931 0.19869 0.0
C550 C 0.95785 0.36227 0.22329 0.0
C551 C 0.94163 0.34005 0.25217 0.0
C552 C 0.97375 0.35242 0.19684 0.0
C553 C 0.97174 0.31877 0.19856 0.0
C554 C 0.95572 0.29646 0.22801 0.0
C555 C 0.94152 0.30775 0.25484 0.0
C556 C 0.99197 0.37765 0.16671 0.0
C557 C 0.95185 0.25986 0.23033 0.0
H558 H 0.95473 0.25986 0.09183 0.0
H559 H 0.05425 0.2947 0.14448 0.0
H560 H 0.90871 0.26707 0.16198 0.0
H561 H 0.92498 0.30878 0.13994 0.0
H562 H 0.90947 0.26847 0.11484 0.0
H563 H 0.07173 0.33341 0.19324 0.0
H564 H 0.0469 0.35572 0.20271 0.0
H565 H 0.03496 0.31421 0.2235 0.0
H566 H 0.95794 0.3873 0.22133 0.0
H567 H 0.92848 0.29038 0.27698 0.0
H568 H 0.97613 0.36657 0.14249 0.0
H569 H 0.01867 0.38074 0.16204 0.0
H570 H 0.99517 0.40441 0.17147 0.0
H571 H 0.93567 0.24329 0.20799 0.0
H572 H 0.93886 0.24589 0.25503 0.0
H573 H 0.97835 0.26187 0.22853 0.0
C574 C 0.6915 0.64103 0.2549 0.0
C575 C 0.69861 0.61326 0.24885 0.0
C576 C 0.70103 0.66838 0.2301 0.0
C577 C 0.7192 0.66854 0.19922 0.0
C578 C 0.72599 0.64026 0.1929 0.0
C579 C 0.71511 0.61272 0.21752 0.0
C580 C 0.69231 0.69745 0.23724 0.0
C581 C 0.74622 0.63988 0.16088 0.0
C582 C 0.73097 0.72586 0.11921 0.0
C583 C 0.76524 0.75496 0.12485 0.0
C584 C 0.7147 0.69837 0.14414 0.0
C585 C 0.73372 0.69949 0.17475 0.0
C586 C 0.76811 0.72914 0.18072 0.0
C587 C 0.78318 0.75672 0.15598 0.0
C588 C 0.67754 0.66776 0.13737 0.0
C589 C 0.78979 0.73096 0.21245 0.0
H590 H 0.6785 0.64136 0.27899 0.0
H591 H 0.72091 0.59144 0.21285 0.0
H592 H 0.71726 0.72304 0.24205 0.0
H593 H 0.67914 0.70139 0.21412 0.0
H594 H 0.67461 0.69134 0.26031 0.0
H595 H 0.7487 0.61558 0.15951 0.0
H596 H 0.73272 0.64135 0.13682 0.0
H597 H 0.77341 0.66365 0.16107 0.0
H598 H 0.71693 0.72454 0.09527 0.0
H599 H 0.80981 0.77902 0.16036 0.0
H600 H 0.66051 0.66271 0.16077 0.0
H601 H 0.67857 0.64309 0.13219 0.0
H602 H 0.6648 0.67293 0.11462 0.0
H603 H 0.7747 0.72841 0.23671 0.0
H604 H 0.81575 0.75629 0.21366 0.0
H605 H 0.79504 0.70837 0.21197 0.0
C606 C 0.08822 0.44454 0.54826 0.0
C607 C 0.08661 0.42713 0.57971 0.0
C608 C 0.06083 0.42872 0.52339 0.0
C609 C 0.03165 0.39406 0.52952 0.0
C610 C 0.03077 0.37559 0.56047 0.0
C611 C 0.05794 0.39266 0.58559 0.0
C612 C 0.06232 0.4499 0.49136 0.0
C613 C 1.00077 0.33814 0.56739 0.0
C614 C 0.94458 0.37287 0.48563 0.0
C615 C 0.9461 0.35676 0.4544 0.0
C616 C 0.9719 0.38445 0.51058 0.0
C617 C 1.00089 0.37864 0.50477 0.0
C618 C 1.00163 0.36069 0.47407 0.0
C619 C 0.97455 0.35059 0.44886 0.0
C620 C 0.97057 0.40452 0.54231 0.0
C621 C 0.03141 0.35289 0.46751 0.0
H622 H 0.11017 0.47135 0.54377 0.0
H623 H 0.05676 0.37907 0.6098 0.0
H624 H 0.06057 0.43486 0.46729 0.0
H625 H 0.03915 0.45426 0.49131 0.0
H626 H 0.08717 0.47629 0.49022 0.0
H627 H 0.00624 0.3259 0.59038 0.0
H628 H 0.97569 0.33845 0.57225 0.0
H629 H 0.99629 0.32103 0.54417 0.0
H630 H 0.92279 0.37799 0.48985 0.0
H631 H 0.97565 0.33794 0.42481 0.0
H632 H 0.99386 0.43202 0.54211 0.0
H633 H 0.97224 0.39141 0.56658 0.0
H634 H 0.94583 0.40623 0.54326 0.0
H635 H 0.05661 0.37814 0.46242 0.0
H636 H 0.02579 0.33489 0.44477 0.0
H637 H 0.03577 0.34042 0.49097 0.0
C638 C 0.67735 0.63322 0.44928 0.0
C639 C 0.67357 0.59964 0.45589 0.0
C640 C 0.66595 0.64953 0.4739 0.0
C641 C 0.64937 0.63126 0.50525 0.0
C642 C 0.64617 0.59766 0.51226 0.0
C643 C 0.65876 0.58253 0.48773 0.0
C644 C 0.67077 0.68584 0.46597 0.0
C645 C 0.62781 0.5768 0.54486 0.0
C646 C 0.63304 0.67516 0.58383 0.0
C647 C 0.59754 0.66633 0.57832 0.0
C648 C 0.65096 0.66546 0.55938 0.0
C649 C 0.63252 0.64553 0.52939 0.0
C650 C 0.59679 0.63694 0.52361 0.0
C651 C 0.57995 0.64788 0.54787 0.0
C652 C 0.68936 0.67598 0.56593 0.0
C653 C 0.57581 0.61492 0.4925 0.0
H654 H 0.68901 0.64663 0.42479 0.0
H655 H 0.65554 0.55645 0.49288 0.0
H656 H 0.64441 0.68345 0.4611 0.0
H657 H 0.68285 0.70387 0.48872 0.0
H658 H 0.68789 0.69829 0.44267 0.0
H659 H 0.62859 0.5516 0.54698 0.0
H660 H 0.64046 0.59311 0.56849 0.0
H661 H 0.59949 0.57012 0.54476 0.0
H662 H 0.6468 0.68967 0.60722 0.0
H663 H 0.55242 0.64078 0.54358 0.0
H664 H 0.70568 0.68892 0.54232 0.0
H665 H 0.6913 0.65183 0.57133 0.0
H666 H 0.70095 0.69451 0.58843 0.0
H667 H 0.5898 0.62788 0.46786 0.0
H668 H 0.54846 0.61108 0.49148 0.0
H669 H 0.57368 0.5883 0.49361 0.0
C670 C 0.35834 0.97339 0.58306 0.0
C671 C 0.3671 0.94651 0.57895 0.0
C672 C 0.36826 1.00034 0.5577 0.0
C673 C 0.38833 1.00094 0.52818 0.0
C674 C 0.39675 0.97352 0.52375 0.0
C675 C 0.38563 0.94643 0.54892 0.0
C676 C 0.35793 0.02854 0.56284 0.0
C677 C 0.41886 0.97358 0.49317 0.0
C678 C 0.40141 0.05635 0.44631 0.0
C679 C 0.43502 0.08625 0.4526 0.0
C680 C 0.3849 0.02915 0.47149 0.0
C681 C 0.40295 0.03147 0.50317 0.0
C682 C 0.43659 0.06196 0.50983 0.0
C683 C 0.45195 0.08914 0.48469 0.0
C684 C 0.34857 0.99754 0.46385 0.0
C685 C 0.45721 0.06515 0.54282 0.0
H686 H 0.34381 0.97342 0.60611 0.0
H687 H 0.3927 0.92586 0.54569 0.0
H688 H 0.38213 0.05469 0.56794 0.0
H689 H 0.34532 0.03146 0.53874 0.0
H690 H 0.33919 0.02222 0.58506 0.0
H691 H 0.42239 0.94987 0.49312 0.0
H692 H 0.40619 0.97419 0.46818 0.0
H693 H 0.44561 0.99794 0.49407 0.0
H694 H 0.38811 0.05413 0.42164 0.0
H695 H 0.47804 0.11208 0.48965 0.0
H696 H 0.33039 0.9923 0.48632 0.0
H697 H 0.35083 0.97335 0.46006 0.0
H698 H 0.33638 1.00166 0.44002 0.0
H699 H 0.44081 0.06223 0.56618 0.0
H700 H 0.48251 0.09109 0.54454 0.0
H701 H 0.46364 0.04335 0.54373 0.0
loop_
_geom_bond_atom_site_label_1
_geom_bond_atom_site_label_2
_geom_bond_distance
_geom_bond_site_symmetry_2
_ccdc_geom_bond_type
O0 Cd1 2.223 . S
O0 C8 1.315 . S
Cd1 O0 2.223 . S
Cd1 O4 2.297 . S
Cd1 O5 2.439 . S
Cd1 O11 2.240 1_456 S
Cd2 O3 2.240 . S
Cd2 O10 2.223 1_455 S
Cd2 O12 2.297 1_455 S
Cd2 O13 2.439 1_455 S
O3 Cd2 2.240 . S
O3 C8 1.279 1_554 S
O4 Cd1 2.297 . S
O4 C6 1.247 . S
O5 Cd1 2.439 . S
O5 C6 1.208 . S
C6 O4 1.247 . S
C6 O5 1.208 . S
C7 O12 1.247 . S
C7 O13 1.208 . S
C8 O0 1.315 . S
C8 O3 1.279 1_556 S
C9 O10 1.315 . S
C9 O11 1.279 . S
O10 Cd2 2.223 1_655 S
O10 C9 1.315 . S
O11 Cd1 2.240 1_654 S
O11 C9 1.279 . S
O12 Cd2 2.297 1_655 S
O12 C7 1.247 . S
O13 Cd2 2.439 1_655 S
O13 C7 1.208 . S
O14 Cd15 2.223 . S
O14 C22 1.315 . S
Cd15 O14 2.223 . S
Cd15 O18 2.297 . S
Cd15 O19 2.439 . S
Cd15 O25 2.240 . S
Cd16 O17 2.240 1_556 S
Cd16 O24 2.223 . S
Cd16 O26 2.297 . S
Cd16 O27 2.439 . S
O17 Cd16 2.240 1_554 S
O17 C22 1.279 . S
O18 Cd15 2.297 . S
O18 C20 1.247 . S
O19 Cd15 2.439 . S
O19 C20 1.208 . S
C20 O18 1.247 . S
C20 O19 1.208 . S
C21 O26 1.247 . S
C21 O27 1.208 . S
C22 O14 1.315 . S
C22 O17 1.279 . S
C23 O24 1.315 . S
C23 O25 1.279 1_556 S
O24 Cd16 2.223 . S
O24 C23 1.315 . S
O25 Cd15 2.240 . S
O25 C23 1.279 1_554 S
O26 Cd16 2.297 . S
O26 C21 1.247 . S
O27 Cd16 2.439 . S
O27 C21 1.208 . S
O28 Cd29 2.223 1_565 S
O28 C36 1.315 . S
Cd29 O28 2.223 1_545 S
Cd29 O32 2.297 1_545 S
Cd29 O33 2.439 1_545 S
Cd29 O39 2.240 1_556 S
Cd30 O31 2.240 1_545 S
Cd30 O38 2.223 . S
Cd30 O40 2.297 . S
Cd30 O41 2.439 . S
O31 Cd30 2.240 1_565 S
O31 C36 1.279 1_554 S
O32 Cd29 2.297 1_565 S
O32 C34 1.247 . S
O33 Cd29 2.439 1_565 S
O33 C34 1.208 . S
C34 O32 1.247 . S
C34 O33 1.208 . S
C35 O40 1.247 . S
C35 O41 1.208 . S
C36 O28 1.315 . S
C36 O31 1.279 1_556 S
C37 O38 1.315 . S
C37 O39 1.279 . S
O38 Cd30 2.223 . S
O38 C37 1.315 . S
O39 Cd29 2.240 1_554 S
O39 C37 1.279 . S
O40 Cd30 2.297 . S
O40 C35 1.247 . S
O41 Cd30 2.439 . S
O41 C35 1.208 . S
O42 Cd43 2.223 . S
O42 C50 1.315 . S
Cd43 O42 2.223 . S
Cd43 O46 2.297 . S
Cd43 O47 2.439 . S
Cd43 O53 2.240 . S
Cd44 O45 2.240 . S
Cd44 O52 2.223 . S
Cd44 O54 2.297 . S
Cd44 O55 2.439 . S
O45 Cd44 2.240 . S
O45 C50 1.279 . S
O46 Cd43 2.297 . S
O46 C48 1.247 . S
O47 Cd43 2.439 . S
O47 C48 1.208 . S
C48 O46 1.247 . S
C48 O47 1.208 . S
C49 O54 1.247 . S
C49 O55 1.208 . S
C50 O42 1.315 . S
C50 O45 1.279 . S
C51 O52 1.315 . S
C51 O53 1.279 . S
O52 Cd44 2.223 . S
O52 C51 1.315 . S
O53 Cd43 2.240 . S
O53 C51 1.279 . S
O54 Cd44 2.297 . S
O54 C49 1.247 . S
O55 Cd44 2.439 . S
O55 C49 1.208 . S
O56 Cd57 2.223 . S
O56 C64 1.315 . S
Cd57 O56 2.223 . S
Cd57 O60 2.297 . S
Cd57 O61 2.439 . S
Cd57 O67 2.240 . S
Cd58 O59 2.240 . S
Cd58 O66 2.223 . S
Cd58 O68 2.297 . S
Cd58 O69 2.439 . S
O59 Cd58 2.240 . S
O59 C64 1.279 . S
O60 Cd57 2.297 . S
O60 C62 1.247 . S
O61 Cd57 2.439 . S
O61 C62 1.208 . S
C62 O60 1.247 . S
C62 O61 1.208 . S
C63 O68 1.247 . S
C63 O69 1.208 . S
C64 O56 1.315 . S
C64 O59 1.279 . S
C65 O66 1.315 . S
C65 O67 1.279 . S
O66 Cd58 2.223 . S
O66 C65 1.315 . S
O67 Cd57 2.240 . S
O67 C65 1.279 . S
O68 Cd58 2.297 . S
O68 C63 1.247 . S
O69 Cd58 2.439 . S
O69 C63 1.208 . S
O70 Cd71 2.223 . S
O70 C78 1.315 . S
Cd71 O70 2.223 . S
Cd71 O74 2.297 . S
Cd71 O75 2.439 . S
Cd71 O81 2.240 . S
Cd72 O73 2.240 . S
Cd72 O80 2.223 . S
Cd72 O82 2.297 . S
Cd72 O83 2.439 . S
O73 Cd72 2.240 . S
O73 C78 1.279 . S
O74 Cd71 2.297 . S
O74 C76 1.247 . S
O75 Cd71 2.439 . S
O75 C76 1.208 . S
C76 O74 1.247 . S
C76 O75 1.208 . S
C77 O82 1.247 . S
C77 O83 1.208 . S
C78 O70 1.315 . S
C78 O73 1.279 . S
C79 O80 1.315 . S
C79 O81 1.279 . S
O80 Cd72 2.223 . S
O80 C79 1.315 . S
O81 Cd71 2.240 . S
O81 C79 1.279 . S
O82 Cd72 2.297 . S
O82 C77 1.247 . S
O83 Cd72 2.439 . S
O83 C77 1.208 . S
O84 Cd85 2.223 . S
O84 C92 1.315 . S
Cd85 O84 2.223 . S
Cd85 O88 2.297 . S
Cd85 O89 2.439 . S
Cd85 O95 2.240 . S
Cd86 O87 2.240 . S
Cd86 O94 2.223 . S
Cd86 O96 2.297 . S
Cd86 O97 2.439 . S
O87 Cd86 2.240 . S
O87 C92 1.279 . S
O88 Cd85 2.297 . S
O88 C90 1.247 . S
O89 Cd85 2.439 . S
O89 C90 1.208 . S
C90 O88 1.247 . S
C90 O89 1.208 . S
C91 O96 1.247 . S
C91 O97 1.208 . S
C92 O84 1.315 . S
C92 O87 1.279 . S
C93 O94 1.315 . S
C93 O95 1.279 . S
O94 Cd86 2.223 . S
O94 C93 1.315 . S
O95 Cd85 2.240 . S
O95 C93 1.279 . S
O96 Cd86 2.297 . S
O96 C91 1.247 . S
O97 Cd86 2.439 . S
O97 C91 1.208 . S
O98 Cd99 2.223 . S
O98 C106 1.315 . S
Cd99 O98 2.223 . S
Cd99 O102 2.297 . S
Cd99 O103 2.439 . S
Cd99 O109 2.240 . S
Cd100 O101 2.240 . S
Cd100 O108 2.223 . S
Cd100 O110 2.297 . S
Cd100 O111 2.439 . S
O101 Cd100 2.240 . S
O101 C106 1.279 . S
O102 Cd99 2.297 . S
O102 C104 1.247 . S
O103 Cd99 2.439 . S
O103 C104 1.208 . S
C104 O102 1.247 . S
C104 O103 1.208 . S
C105 O110 1.247 . S
C105 O111 1.208 . S
C106 O98 1.315 . S
C106 O101 1.279 . S
C107 O108 1.315 . S
C107 O109 1.279 . S
O108 Cd100 2.223 . S
O108 C107 1.315 . S
O109 Cd99 2.240 . S
O109 C107 1.279 . S
O110 Cd100 2.297 . S
O110 C105 1.247 . S
O111 Cd100 2.439 . S
O111 C105 1.208 . S
O112 Cd113 2.223 . S
O112 C120 1.315 . S
Cd113 O112 2.223 . S
Cd113 O116 2.297 . S
Cd113 O117 2.439 . S
Cd113 O123 2.240 . S
Cd114 O115 2.240 . S
Cd114 O122 2.223 . S
Cd114 O124 2.297 . S
Cd114 O125 2.439 . S
O115 Cd114 2.240 . S
O115 C120 1.279 . S
O116 Cd113 2.297 . S
O116 C118 1.247 . S
O117 Cd113 2.439 . S
O117 C118 1.208 . S
C118 O116 1.247 . S
C118 O117 1.208 . S
C119 O124 1.247 . S
C119 O125 1.208 . S
C120 O112 1.315 . S
C120 O115 1.279 . S
C121 O122 1.315 . S
C121 O123 1.279 . S
O122 Cd114 2.223 . S
O122 C121 1.315 . S
O123 Cd113 2.240 . S
O123 C121 1.279 . S
O124 Cd114 2.297 . S
O124 C119 1.247 . S
O125 Cd114 2.439 . S
O125 C119 1.208 . S
C126 C127 1.391 . S
C126 C128 1.394 . S
C126 H142 0.931 . S
C127 C126 1.391 . S
C127 C131 1.376 . S
C128 C126 1.394 . S
C128 C129 1.369 . S
C128 C132 1.531 1_554 S
C129 C128 1.369 . S
C129 C130 1.410 . S
C129 C137 1.503 . S
C130 C129 1.410 . S
C130 C131 1.392 . S
C130 C133 1.511 . S
C131 C127 1.376 . S
C131 C130 1.392 . S
C131 H143 0.929 . S
C132 C128 1.531 1_556 S
C132 H144 0.960 . S
C132 H145 0.962 1_556 S
C132 H146 0.960 . S
C133 C130 1.511 . S
C133 H147 0.961 . S
C133 H148 0.961 . S
C133 H149 0.961 1_554 S
C134 C135 1.370 . S
C134 C136 1.363 . S
C134 H150 0.931 . S
C135 C134 1.370 . S
C135 C139 1.408 1_554 S
C136 C134 1.363 . S
C136 C137 1.370 . S
C136 C140 1.524 . S
C137 C129 1.503 . S
C137 C136 1.370 . S
C137 C138 1.403 1_554 S
C138 C137 1.403 1_556 S
C138 C139 1.404 . S
C138 C141 1.539 . S
C139 C135 1.408 1_556 S
C139 C138 1.404 . S
C139 H151 0.930 . S
C140 C136 1.524 . S
C140 H152 0.956 . S
C140 H153 0.961 . S
C140 H154 0.961 . S
C141 C138 1.539 . S
C141 H155 0.958 . S
C141 H156 0.961 . S
C141 H157 0.960 . S
H142 C126 0.931 . S
H143 C131 0.929 . S
H144 C132 0.960 . S
H145 C132 0.962 1_554 S
H146 C132 0.960 . S
H147 C133 0.961 . S
H148 C133 0.961 . S
H149 C133 0.961 1_556 S
H150 C134 0.931 . S
H151 C139 0.930 . S
H152 C140 0.956 . S
H153 C140 0.961 . S
H154 C140 0.961 . S
H155 C141 0.958 . S
H156 C141 0.961 . S
H157 C141 0.960 . S
C158 C159 1.391 . S
C158 C160 1.394 . S
C158 H174 0.931 . S
C159 C158 1.391 . S
C159 C163 1.376 1_554 S
C160 C158 1.394 . S
C160 C161 1.369 . S
C160 C164 1.531 . S
C161 C160 1.369 . S
C161 C162 1.410 1_554 S
C161 C169 1.503 1_565 S
C162 C161 1.410 1_556 S
C162 C163 1.392 . S
C162 C165 1.509 1_565 S
C163 C159 1.376 1_556 S
C163 C162 1.392 . S
C163 H175 0.929 . S
C164 C160 1.531 . S
C164 H176 0.960 1_565 S
C164 H177 0.960 1_565 S
C164 H178 0.960 . S
C165 C162 1.509 1_545 S
C165 H179 0.952 1_545 S
C165 H180 0.979 . S
C165 H181 0.954 . S
C166 C167 1.370 1_556 S
C166 C168 1.363 . S
C166 H182 0.931 . S
C167 C166 1.370 1_554 S
C167 C171 1.408 . S
C168 C166 1.363 . S
C168 C169 1.370 1_556 S
C168 C172 1.524 . S
C169 C161 1.503 1_545 S
C169 C168 1.370 1_554 S
C169 C170 1.403 . S
C170 C169 1.403 . S
C170 C171 1.404 . S
C170 C173 1.539 . S
C171 C167 1.408 . S
C171 C170 1.404 . S
C171 H183 0.930 . S
C172 C168 1.524 . S
C172 H184 0.956 . S
C172 H185 0.961 . S
C172 H186 0.961 . S
C173 C170 1.539 . S
C173 H187 0.958 . S
C173 H188 0.961 . S
C173 H189 0.960 . S
H174 C158 0.931 . S
H175 C163 0.929 . S
H176 C164 0.960 1_545 S
H177 C164 0.960 1_545 S
H178 C164 0.960 . S
H179 C165 0.952 1_565 S
H180 C165 0.979 . S
H181 C165 0.954 . S
H182 C166 0.931 . S
H183 C171 0.930 . S
H184 C172 0.956 . S
H185 C172 0.961 . S
H186 C172 0.961 . S
H187 C173 0.958 . S
H188 C173 0.961 . S
H189 C173 0.960 . S
C190 C191 1.391 . S
C190 C192 1.394 . S
C190 H206 0.931 . S
C191 C190 1.391 . S
C191 C195 1.376 1_554 S
C192 C190 1.394 . S
C192 C193 1.369 . S
C192 C196 1.530 1_655 S
C193 C192 1.369 . S
C193 C194 1.410 1_554 S
C193 C201 1.503 1_655 S
C194 C193 1.410 1_556 S
C194 C195 1.392 . S
C194 C197 1.511 . S
C195 C191 1.376 1_556 S
C195 C194 1.392 . S
C195 H207 0.929 . S
C196 C192 1.530 1_455 S
C196 H208 0.963 . S
C196 H209 0.961 . S
C196 H210 0.959 1_455 S
C197 C194 1.511 . S
C197 H211 0.961 . S
C197 H212 0.961 1_655 S
C197 H213 0.961 . S
C198 C199 1.370 1_556 S
C198 C200 1.363 . S
C198 H214 0.931 . S
C199 C198 1.370 1_554 S
C199 C203 1.408 . S
C200 C198 1.363 . S
C200 C201 1.370 1_556 S
C200 C204 1.524 . S
C201 C193 1.503 1_455 S
C201 C200 1.370 1_554 S
C201 C202 1.403 . S
C202 C201 1.403 . S
C202 C203 1.404 . S
C202 C205 1.539 . S
C203 C199 1.408 . S
C203 C202 1.404 . S
C203 H215 0.930 . S
C204 C200 1.524 . S
C204 H216 0.956 . S
C204 H217 0.961 . S
C204 H218 0.961 . S
C205 C202 1.539 . S
C205 H219 0.958 . S
C205 H220 0.961 . S
C205 H221 0.960 . S
H206 C190 0.931 . S
H207 C195 0.929 . S
H208 C196 0.963 . S
H209 C196 0.961 . S
H210 C196 0.959 1_655 S
H211 C197 0.961 . S
H212 C197 0.961 1_455 S
H213 C197 0.961 . S
H214 C198 0.931 . S
H215 C203 0.930 . S
H216 C204 0.956 . S
H217 C204 0.961 . S
H218 C204 0.961 . S
H219 C205 0.958 . S
H220 C205 0.961 . S
H221 C205 0.960 . S
C222 C223 1.391 . S
C222 C224 1.394 . S
C222 H238 0.931 . S
C223 C222 1.391 . S
C223 C227 1.376 . S
C224 C222 1.394 . S
C224 C225 1.369 . S
C224 C228 1.531 . S
C225 C224 1.369 . S
C225 C226 1.410 . S
C225 C233 1.503 . S
C226 C225 1.410 . S
C226 C227 1.392 . S
C226 C229 1.511 . S
C227 C223 1.376 . S
C227 C226 1.392 . S
C227 H239 0.929 . S
C228 C224 1.531 . S
C228 H240 0.960 . S
C228 H241 0.962 . S
C228 H242 0.960 . S
C229 C226 1.511 . S
C229 H243 0.961 . S
C229 H244 0.961 . S
C229 H245 0.961 . S
C230 C231 1.370 . S
C230 C232 1.363 . S
C230 H246 0.931 . S
C231 C230 1.370 . S
C231 C235 1.408 . S
C232 C230 1.363 . S
C232 C233 1.370 . S
C232 C236 1.524 . S
C233 C225 1.503 . S
C233 C232 1.370 . S
C233 C234 1.403 . S
C234 C233 1.403 . S
C234 C235 1.404 . S
C234 C237 1.539 . S
C235 C231 1.408 . S
C235 C234 1.404 . S
C235 H247 0.930 . S
C236 C232 1.524 . S
C236 H248 0.956 . S
C236 H249 0.961 . S
C236 H250 0.961 . S
C237 C234 1.539 . S
C237 H251 0.958 . S
C237 H252 0.961 . S
C237 H253 0.960 . S
H238 C222 0.931 . S
H239 C227 0.929 . S
H240 C228 0.960 . S
H241 C228 0.962 . S
H242 C228 0.960 . S
H243 C229 0.961 . S
H244 C229 0.961 . S
H245 C229 0.961 . S
H246 C230 0.931 . S
H247 C235 0.930 . S
H248 C236 0.956 . S
H249 C236 0.961 . S
H250 C236 0.961 . S
H251 C237 0.958 . S
H252 C237 0.961 . S
H253 C237 0.960 . S
C254 C255 1.391 . S
C254 C256 1.394 . S
C254 H270 0.931 . S
C255 C254 1.391 . S
C255 C259 1.376 . S
C256 C254 1.394 . S
C256 C257 1.369 . S
C256 C260 1.531 . S
C257 C256 1.369 . S
C257 C258 1.410 . S
C257 C265 1.503 . S
C258 C257 1.410 . S
C258 C259 1.392 . S
C258 C261 1.511 . S
C259 C255 1.376 . S
C259 C258 1.392 . S
C259 H271 0.929 . S
C260 C256 1.531 . S
C260 H272 0.960 . S
C260 H273 0.962 . S
C260 H274 0.960 . S
C261 C258 1.511 . S
C261 H275 0.961 . S
C261 H276 0.961 . S
C261 H277 0.961 . S
C262 C263 1.370 . S
C262 C264 1.363 . S
C262 H278 0.931 . S
C263 C262 1.370 . S
C263 C267 1.408 . S
C264 C262 1.363 . S
C264 C265 1.370 . S
C264 C268 1.524 . S
C265 C257 1.503 . S
C265 C264 1.370 . S
C265 C266 1.403 . S
C266 C265 1.403 . S
C266 C267 1.404 . S
C266 C269 1.539 . S
C267 C263 1.408 . S
C267 C266 1.404 . S
C267 H279 0.930 . S
C268 C264 1.524 . S
C268 H280 0.956 . S
C268 H281 0.961 . S
C268 H282 0.961 . S
C269 C266 1.539 . S
C269 H283 0.958 . S
C269 H284 0.961 . S
C269 H285 0.960 . S
H270 C254 0.931 . S
H271 C259 0.929 . S
H272 C260 0.960 . S
H273 C260 0.962 . S
H274 C260 0.960 . S
H275 C261 0.961 . S
H276 C261 0.961 . S
H277 C261 0.961 . S
H278 C262 0.931 . S
H279 C267 0.930 . S
H280 C268 0.956 . S
H281 C268 0.961 . S
H282 C268 0.961 . S
H283 C269 0.958 . S
H284 C269 0.961 . S
H285 C269 0.960 . S
C286 C287 1.391 . S
C286 C288 1.394 . S
C286 H302 0.931 . S
C287 C286 1.391 . S
C287 C291 1.376 . S
C288 C286 1.394 . S
C288 C289 1.369 . S
C288 C292 1.531 . S
C289 C288 1.369 . S
C289 C290 1.410 . S
C289 C297 1.503 . S
C290 C289 1.410 . S
C290 C291 1.392 . S
C290 C293 1.511 . S
C291 C287 1.376 . S
C291 C290 1.392 . S
C291 H303 0.929 . S
C292 C288 1.531 . S
C292 H304 0.960 . S
C292 H305 0.962 . S
C292 H306 0.960 . S
C293 C290 1.511 . S
C293 H307 0.961 . S
C293 H308 0.961 . S
C293 H309 0.961 . S
C294 C295 1.370 . S
C294 C296 1.363 . S
C294 H310 0.931 . S
C295 C294 1.370 . S
C295 C299 1.408 . S
C296 C294 1.363 . S
C296 C297 1.370 . S
C296 C300 1.524 . S
C297 C289 1.503 . S
C297 C296 1.370 . S
C297 C298 1.403 . S
C298 C297 1.403 . S
C298 C299 1.404 . S
C298 C301 1.539 . S
C299 C295 1.408 . S
C299 C298 1.404 . S
C299 H311 0.930 . S
C300 C296 1.524 . S
C300 H312 0.956 . S
C300 H313 0.961 . S
C300 H314 0.961 . S
C301 C298 1.539 . S
C301 H315 0.958 . S
C301 H316 0.961 . S
C301 H317 0.960 . S
H302 C286 0.931 . S
H303 C291 0.929 . S
H304 C292 0.960 . S
H305 C292 0.962 . S
H306 C292 0.960 . S
H307 C293 0.961 . S
H308 C293 0.961 . S
H309 C293 0.961 . S
H310 C294 0.931 . S
H311 C299 0.930 . S
H312 C300 0.956 . S
H313 C300 0.961 . S
H314 C300 0.961 . S
H315 C301 0.958 . S
H316 C301 0.961 . S
H317 C301 0.960 . S
C318 C319 1.391 . S
C318 C320 1.394 . S
C318 H334 0.931 . S
C319 C318 1.391 . S
C319 C323 1.376 . S
C320 C318 1.394 . S
C320 C321 1.369 . S
C320 C324 1.531 . S
C321 C320 1.369 . S
C321 C322 1.410 . S
C321 C329 1.503 . S
C322 C321 1.410 . S
C322 C323 1.392 . S
C322 C325 1.511 . S
C323 C319 1.376 . S
C323 C322 1.392 . S
C323 H335 0.929 . S
C324 C320 1.531 . S
C324 H336 0.960 . S
C324 H337 0.962 . S
C324 H338 0.960 . S
C325 C322 1.511 . S
C325 H339 0.961 . S
C325 H340 0.961 . S
C325 H341 0.961 . S
C326 C327 1.370 . S
C326 C328 1.363 . S
C326 H342 0.931 . S
C327 C326 1.370 . S
C327 C331 1.408 . S
C328 C326 1.363 . S
C328 C329 1.370 . S
C328 C332 1.524 . S
C329 C321 1.503 . S
C329 C328 1.370 . S
C329 C330 1.403 . S
C330 C329 1.403 . S
C330 C331 1.404 . S
C330 C333 1.539 . S
C331 C327 1.408 . S
C331 C330 1.404 . S
C331 H343 0.930 . S
C332 C328 1.524 . S
C332 H344 0.956 . S
C332 H345 0.961 . S
C332 H346 0.961 . S
C333 C330 1.539 . S
C333 H347 0.958 . S
C333 H348 0.961 . S
C333 H349 0.960 . S
H334 C318 0.931 . S
H335 C323 0.929 . S
H336 C324 0.960 . S
H337 C324 0.962 . S
H338 C324 0.960 . S
H339 C325 0.961 . S
H340 C325 0.961 . S
H341 C325 0.961 . S
H342 C326 0.931 . S
H343 C331 0.930 . S
H344 C332 0.956 . S
H345 C332 0.961 . S
H346 C332 0.961 . S
H347 C333 0.958 . S
H348 C333 0.961 . S
H349 C333 0.960 . S
C350 C351 1.391 . S
C350 C352 1.394 . S
C350 H366 0.931 . S
C351 C350 1.391 . S
C351 C355 1.376 . S
C352 C350 1.394 . S
C352 C353 1.369 . S
C352 C356 1.531 . S
C353 C352 1.369 . S
C353 C354 1.410 . S
C353 C361 1.503 . S
C354 C353 1.410 . S
C354 C355 1.392 . S
C354 C357 1.511 . S
C355 C351 1.376 . S
C355 C354 1.392 . S
C355 H367 0.929 . S
C356 C352 1.531 . S
C356 H368 0.960 . S
C356 H369 0.962 . S
C356 H370 0.960 . S
C357 C354 1.511 . S
C357 H371 0.961 . S
C357 H372 0.961 . S
C357 H373 0.961 . S
C358 C359 1.370 . S
C358 C360 1.363 . S
C358 H374 0.931 . S
C359 C358 1.370 . S
C359 C363 1.408 . S
C360 C358 1.363 . S
C360 C361 1.370 . S
C360 C364 1.524 . S
C361 C353 1.503 . S
C361 C360 1.370 . S
C361 C362 1.403 . S
C362 C361 1.403 . S
C362 C363 1.404 . S
C362 C365 1.539 . S
C363 C359 1.408 . S
C363 C362 1.404 . S
C363 H375 0.930 . S
C364 C360 1.524 . S
C364 H376 0.956 . S
C364 H377 0.961 . S
C364 H378 0.961 . S
C365 C362 1.539 . S
C365 H379 0.958 . S
C365 H380 0.961 . S
C365 H381 0.960 . S
H366 C350 0.931 . S
H367 C355 0.929 . S
H368 C356 0.960 . S
H369 C356 0.962 . S
H370 C356 0.960 . S
H371 C357 0.961 . S
H372 C357 0.961 . S
H373 C357 0.961 . S
H374 C358 0.931 . S
H375 C363 0.930 . S
H376 C364 0.956 . S
H377 C364 0.961 . S
H378 C364 0.961 . S
H379 C365 0.958 . S
H380 C365 0.961 . S
H381 C365 0.960 . S
C382 C383 1.391 . S
C382 C384 1.394 . S
C382 H398 0.931 . S
C383 C382 1.391 . S
C383 C387 1.376 . S
C384 C382 1.394 . S
C384 C385 1.369 . S
C384 C388 1.531 . S
C385 C384 1.369 . S
C385 C386 1.410 . S
C385 C393 1.503 . S
C386 C385 1.410 . S
C386 C387 1.392 . S
C386 C389 1.511 . S
C387 C383 1.376 . S
C387 C386 1.392 . S
C387 H399 0.929 . S
C388 C384 1.531 . S
C388 H400 0.960 . S
C388 H401 0.962 . S
C388 H402 0.960 . S
C389 C386 1.511 . S
C389 H403 0.961 . S
C389 H404 0.961 . S
C389 H405 0.961 . S
C390 C391 1.370 . S
C390 C392 1.363 . S
C390 H406 0.931 . S
C391 C390 1.370 . S
C391 C395 1.408 . S
C392 C390 1.363 . S
C392 C393 1.370 . S
C392 C396 1.524 . S
C393 C385 1.503 . S
C393 C392 1.370 . S
C393 C394 1.403 . S
C394 C393 1.403 . S
C394 C395 1.404 . S
C394 C397 1.539 . S
C395 C391 1.408 . S
C395 C394 1.404 . S
C395 H407 0.930 . S
C396 C392 1.524 . S
C396 H408 0.956 . S
C396 H409 0.961 . S
C396 H410 0.961 . S
C397 C394 1.539 . S
C397 H411 0.958 . S
C397 H412 0.961 . S
C397 H413 0.960 . S
H398 C382 0.931 . S
H399 C387 0.929 . S
H400 C388 0.960 . S
H401 C388 0.962 . S
H402 C388 0.960 . S
H403 C389 0.961 . S
H404 C389 0.961 . S
H405 C389 0.961 . S
H406 C390 0.931 . S
H407 C395 0.930 . S
H408 C396 0.956 . S
H409 C396 0.961 . S
H410 C396 0.961 . S
H411 C397 0.958 . S
H412 C397 0.961 . S
H413 C397 0.960 . S
C414 C415 1.391 . S
C414 C416 1.394 . S
C414 H430 0.931 . S
C415 C414 1.391 . S
C415 C419 1.376 . S
C416 C414 1.394 . S
C416 C417 1.369 . S
C416 C420 1.531 . S
C417 C416 1.369 . S
C417 C418 1.410 . S
C417 C425 1.503 . S
C418 C417 1.410 . S
C418 C419 1.392 . S
C418 C421 1.511 . S
C419 C415 1.376 . S
C419 C418 1.392 . S
C419 H431 0.929 . S
C420 C416 1.531 . S
C420 H432 0.960 . S
C420 H433 0.962 . S
C420 H434 0.960 . S
C421 C418 1.511 . S
C421 H435 0.961 . S
C421 H436 0.961 . S
C421 H437 0.961 . S
C422 C423 1.370 . S
C422 C424 1.363 . S
C422 H438 0.931 . S
C423 C422 1.370 . S
C423 C427 1.408 . S
C424 C422 1.363 . S
C424 C425 1.370 . S
C424 C428 1.524 . S
C425 C417 1.503 . S
C425 C424 1.370 . S
C425 C426 1.403 . S
C426 C425 1.403 . S
C426 C427 1.404 . S
C426 C429 1.539 . S
C427 C423 1.408 . S
C427 C426 1.404 . S
C427 H439 0.930 . S
C428 C424 1.524 . S
C428 H440 0.956 . S
C428 H441 0.961 . S
C428 H442 0.961 . S
C429 C426 1.539 . S
C429 H443 0.958 . S
C429 H444 0.961 . S
C429 H445 0.960 . S
H430 C414 0.931 . S
H431 C419 0.929 . S
H432 C420 0.960 . S
H433 C420 0.962 . S
H434 C420 0.960 . S
H435 C421 0.961 . S
H436 C421 0.961 . S
H437 C421 0.961 . S
H438 C422 0.931 . S
H439 C427 0.930 . S
H440 C428 0.956 . S
H441 C428 0.961 . S
H442 C428 0.961 . S
H443 C429 0.958 . S
H444 C429 0.961 . S
H445 C429 0.960 . S
C446 C447 1.391 . S
C446 C448 1.394 . S
C446 H462 0.931 . S
C447 C446 1.391 . S
C447 C451 1.376 . S
C448 C446 1.394 . S
C448 C449 1.369 . S
C448 C452 1.531 . S
C449 C448 1.369 . S
C449 C450 1.410 . S
C449 C457 1.503 . S
C450 C449 1.410 . S
C450 C451 1.392 . S
C450 C453 1.511 . S
C451 C447 1.376 . S
C451 C450 1.392 . S
C451 H463 0.929 . S
C452 C448 1.531 . S
C452 H464 0.960 . S
C452 H465 0.962 . S
C452 H466 0.960 . S
C453 C450 1.511 . S
C453 H467 0.961 . S
C453 H468 0.961 . S
C453 H469 0.961 . S
C454 C455 1.370 . S
C454 C456 1.363 . S
C454 H470 0.931 . S
C455 C454 1.370 . S
C455 C459 1.408 . S
C456 C454 1.363 . S
C456 C457 1.370 . S
C456 C460 1.524 . S
C457 C449 1.503 . S
C457 C456 1.370 . S
C457 C458 1.403 . S
C458 C457 1.403 . S
C458 C459 1.404 . S
C458 C461 1.539 . S
C459 C455 1.408 . S
C459 C458 1.404 . S
C459 H471 0.930 . S
C460 C456 1.524 . S
C460 H472 0.956 . S
C460 H473 0.961 . S
C460 H474 0.961 . S
C461 C458 1.539 . S
C461 H475 0.958 . S
C461 H476 0.961 . S
C461 H477 0.960 . S
H462 C446 0.931 . S
H463 C451 0.929 . S
H464 C452 0.960 . S
H465 C452 0.962 . S
H466 C452 0.960 . S
H467 C453 0.961 . S
H468 C453 0.961 . S
H469 C453 0.961 . S
H470 C454 0.931 . S
H471 C459 0.930 . S
H472 C460 0.956 . S
H473 C460 0.961 . S
H474 C460 0.961 . S
H475 C461 0.958 . S
H476 C461 0.961 . S
H477 C461 0.960 . S
C478 C479 1.391 . S
C478 C480 1.394 . S
C478 H494 0.931 . S
C479 C478 1.391 . S
C479 C483 1.376 . S
C480 C478 1.394 . S
C480 C481 1.369 . S
C480 C484 1.531 . S
C481 C480 1.369 . S
C481 C482 1.410 . S
C481 C489 1.503 . S
C482 C481 1.410 . S
C482 C483 1.392 . S
C482 C485 1.511 . S
C483 C479 1.376 . S
C483 C482 1.392 . S
C483 H495 0.929 . S
C484 C480 1.531 . S
C484 H496 0.960 1_565 S
C484 H497 0.962 . S
C484 H498 0.960 1_565 S
C485 C482 1.511 . S
C485 H499 0.961 . S
C485 H500 0.961 . S
C485 H501 0.961 . S
C486 C487 1.370 . S
C486 C488 1.363 . S
C486 H502 0.931 . S
C487 C486 1.370 . S
C487 C491 1.408 . S
C488 C486 1.363 . S
C488 C489 1.370 . S
C488 C492 1.524 . S
C489 C481 1.503 . S
C489 C488 1.370 . S
C489 C490 1.403 . S
C490 C489 1.403 . S
C490 C491 1.404 . S
C490 C493 1.539 . S
C491 C487 1.408 . S
C491 C490 1.404 . S
C491 H503 0.930 . S
C492 C488 1.524 . S
C492 H504 0.956 . S
C492 H505 0.961 . S
C492 H506 0.961 . S
C493 C490 1.539 . S
C493 H507 0.958 . S
C493 H508 0.961 . S
C493 H509 0.960 . S
H494 C478 0.931 . S
H495 C483 0.929 . S
H496 C484 0.960 1_545 S
H497 C484 0.962 . S
H498 C484 0.960 1_545 S
H499 C485 0.961 . S
H500 C485 0.961 . S
H501 C485 0.961 . S
H502 C486 0.931 . S
H503 C491 0.930 . S
H504 C492 0.956 . S
H505 C492 0.961 . S
H506 C492 0.961 . S
H507 C493 0.958 . S
H508 C493 0.961 . S
H509 C493 0.960 . S
C510 C511 1.391 . S
C510 C512 1.394 . S
C510 H526 0.931 . S
C511 C510 1.391 . S
C511 C515 1.376 . S
C512 C510 1.394 . S
C512 C513 1.369 . S
C512 C516 1.531 . S
C513 C512 1.369 . S
C513 C514 1.410 . S
C513 C521 1.503 . S
C514 C513 1.410 . S
C514 C515 1.392 . S
C514 C517 1.511 . S
C515 C511 1.376 . S
C515 C514 1.392 . S
C515 H527 0.929 . S
C516 C512 1.531 . S
C516 H528 0.960 . S
C516 H529 0.962 . S
C516 H530 0.960 . S
C517 C514 1.511 . S
C517 H531 0.961 . S
C517 H532 0.961 . S
C517 H533 0.961 . S
C518 C519 1.370 . S
C518 C520 1.363 . S
C518 H534 0.931 . S
C519 C518 1.370 . S
C519 C523 1.408 . S
C520 C518 1.363 . S
C520 C521 1.370 . S
C520 C524 1.524 . S
C521 C513 1.503 . S
C521 C520 1.370 . S
C521 C522 1.403 . S
C522 C521 1.403 . S
C522 C523 1.404 . S
C522 C525 1.539 . S
C523 C519 1.408 . S
C523 C522 1.404 . S
C523 H535 0.930 . S
C524 C520 1.524 . S
C524 H536 0.956 . S
C524 H537 0.961 . S
C524 H538 0.961 . S
C525 C522 1.539 . S
C525 H539 0.958 . S
C525 H540 0.961 . S
C525 H541 0.960 . S
H526 C510 0.931 . S
H527 C515 0.929 . S
H528 C516 0.960 . S
H529 C516 0.962 . S
H530 C516 0.960 . S
H531 C517 0.961 . S
H532 C517 0.961 . S
H533 C517 0.961 . S
H534 C518 0.931 . S
H535 C523 0.930 . S
H536 C524 0.956 . S
H537 C524 0.961 . S
H538 C524 0.961 . S
H539 C525 0.958 . S
H540 C525 0.961 . S
H541 C525 0.960 . S
C542 C543 1.391 . S
C542 C544 1.394 . S
C542 H558 0.931 . S
C543 C542 1.391 . S
C543 C547 1.376 . S
C544 C542 1.394 . S
C544 C545 1.369 . S
C544 C548 1.531 . S
C545 C544 1.369 . S
C545 C546 1.410 . S
C545 C553 1.503 . S
C546 C545 1.410 . S
C546 C547 1.392 . S
C546 C549 1.511 1_655 S
C547 C543 1.376 . S
C547 C546 1.392 . S
C547 H559 0.929 1_655 S
C548 C544 1.531 . S
C548 H560 0.960 . S
C548 H561 0.962 . S
C548 H562 0.960 . S
C549 C546 1.511 1_455 S
C549 H563 0.961 . S
C549 H564 0.961 1_455 S
C549 H565 0.961 . S
C550 C551 1.370 . S
C550 C552 1.363 . S
C550 H566 0.931 . S
C551 C550 1.370 . S
C551 C555 1.408 . S
C552 C550 1.363 . S
C552 C553 1.370 . S
C552 C556 1.524 . S
C553 C545 1.503 . S
C553 C552 1.370 . S
C553 C554 1.403 . S
C554 C553 1.403 . S
C554 C555 1.404 . S
C554 C557 1.539 . S
C555 C551 1.408 . S
C555 C554 1.404 . S
C555 H567 0.930 . S
C556 C552 1.524 . S
C556 H568 0.956 . S
C556 H569 0.961 . S
C556 H570 0.961 . S
C557 C554 1.539 . S
C557 H571 0.958 . S
C557 H572 0.961 . S
C557 H573 0.960 . S
H558 C542 0.931 . S
H559 C547 0.929 1_455 S
H560 C548 0.960 . S
H561 C548 0.962 . S
H562 C548 0.960 . S
H563 C549 0.961 . S
H564 C549 0.961 1_655 S
H565 C549 0.961 . S
H566 C550 0.931 . S
H567 C555 0.930 . S
H568 C556 0.956 . S
H569 C556 0.961 . S
H570 C556 0.961 . S
H571 C557 0.958 . S
H572 C557 0.961 . S
H573 C557 0.960 . S
C574 C575 1.391 . S
C574 C576 1.394 . S
C574 H590 0.931 . S
C575 C574 1.391 . S
C575 C579 1.376 . S
C576 C574 1.394 . S
C576 C577 1.369 . S
C576 C580 1.531 . S
C577 C576 1.369 . S
C577 C578 1.410 . S
C577 C585 1.503 . S
C578 C577 1.410 . S
C578 C579 1.392 . S
C578 C581 1.511 . S
C579 C575 1.376 . S
C579 C578 1.392 . S
C579 H591 0.929 . S
C580 C576 1.531 . S
C580 H592 0.960 . S
C580 H593 0.962 . S
C580 H594 0.960 . S
C581 C578 1.511 . S
C581 H595 0.961 . S
C581 H596 0.961 . S
C581 H597 0.961 . S
C582 C583 1.370 . S
C582 C584 1.363 . S
C582 H598 0.931 . S
C583 C582 1.370 . S
C583 C587 1.408 . S
C584 C582 1.363 . S
C584 C585 1.370 . S
C584 C588 1.524 . S
C585 C577 1.503 . S
C585 C584 1.370 . S
C585 C586 1.403 . S
C586 C585 1.403 . S
C586 C587 1.404 . S
C586 C589 1.539 . S
C587 C583 1.408 . S
C587 C586 1.404 . S
C587 H599 0.930 . S
C588 C584 1.524 . S
C588 H600 0.956 . S
C588 H601 0.961 . S
C588 H602 0.961 . S
C589 C586 1.539 . S
C589 H603 0.958 . S
C589 H604 0.961 . S
C589 H605 0.960 . S
H590 C574 0.931 . S
H591 C579 0.929 . S
H592 C580 0.960 . S
H593 C580 0.962 . S
H594 C580 0.960 . S
H595 C581 0.961 . S
H596 C581 0.961 . S
H597 C581 0.961 . S
H598 C582 0.931 . S
H599 C587 0.930 . S
H600 C588 0.956 . S
H601 C588 0.961 . S
H602 C588 0.961 . S
H603 C589 0.958 . S
H604 C589 0.961 . S
H605 C589 0.960 . S
C606 C607 1.391 . S
C606 C608 1.394 . S
C606 H622 0.931 . S
C607 C606 1.391 . S
C607 C611 1.376 . S
C608 C606 1.394 . S
C608 C609 1.369 . S
C608 C612 1.531 . S
C609 C608 1.369 . S
C609 C610 1.410 . S
C609 C617 1.503 . S
C610 C609 1.410 . S
C610 C611 1.392 . S
C610 C613 1.511 1_455 S
C611 C607 1.376 . S
C611 C610 1.392 . S
C611 H623 0.929 . S
C612 C608 1.531 . S
C612 H624 0.960 . S
C612 H625 0.962 . S
C612 H626 0.960 . S
C613 C610 1.511 1_655 S
C613 H627 0.961 . S
C613 H628 0.961 . S
C613 H629 0.961 . S
C614 C615 1.370 . S
C614 C616 1.363 . S
C614 H630 0.931 . S
C615 C614 1.370 . S
C615 C619 1.408 . S
C616 C614 1.363 . S
C616 C617 1.370 1_655 S
C616 C620 1.524 1_655 S
C617 C609 1.503 . S
C617 C616 1.370 1_455 S
C617 C618 1.403 1_455 S
C618 C617 1.403 1_655 S
C618 C619 1.404 . S
C618 C621 1.539 . S
C619 C615 1.408 . S
C619 C618 1.404 . S
C619 H631 0.930 . S
C620 C616 1.524 1_455 S
C620 H632 0.956 . S
C620 H633 0.961 . S
C620 H634 0.961 . S
C621 C618 1.539 . S
C621 H635 0.958 1_655 S
C621 H636 0.961 . S
C621 H637 0.960 . S
H622 C606 0.931 . S
H623 C611 0.929 . S
H624 C612 0.960 . S
H625 C612 0.962 . S
H626 C612 0.960 . S
H627 C613 0.961 . S
H628 C613 0.961 . S
H629 C613 0.961 . S
H630 C614 0.931 . S
H631 C619 0.930 . S
H632 C620 0.956 . S
H633 C620 0.961 . S
H634 C620 0.961 . S
H635 C621 0.958 1_455 S
H636 C621 0.961 . S
H637 C621 0.960 . S
C638 C639 1.391 . S
C638 C640 1.394 . S
C638 H654 0.931 . S
C639 C638 1.391 . S
C639 C643 1.376 . S
C640 C638 1.394 . S
C640 C641 1.369 . S
C640 C644 1.531 . S
C641 C640 1.369 . S
C641 C642 1.410 . S
C641 C649 1.503 . S
C642 C641 1.410 . S
C642 C643 1.392 . S
C642 C645 1.511 . S
C643 C639 1.376 . S
C643 C642 1.392 . S
C643 H655 0.929 . S
C644 C640 1.531 . S
C644 H656 0.960 . S
C644 H657 0.962 . S
C644 H658 0.960 . S
C645 C642 1.511 . S
C645 H659 0.961 . S
C645 H660 0.961 . S
C645 H661 0.961 . S
C646 C647 1.370 . S
C646 C648 1.363 . S
C646 H662 0.931 . S
C647 C646 1.370 . S
C647 C651 1.408 . S
C648 C646 1.363 . S
C648 C649 1.370 . S
C648 C652 1.524 . S
C649 C641 1.503 . S
C649 C648 1.370 . S
C649 C650 1.403 . S
C650 C649 1.403 . S
C650 C651 1.404 . S
C650 C653 1.539 . S
C651 C647 1.408 . S
C651 C650 1.404 . S
C651 H663 0.930 . S
C652 C648 1.524 . S
C652 H664 0.956 . S
C652 H665 0.961 . S
C652 H666 0.961 . S
C653 C650 1.539 . S
C653 H667 0.958 . S
C653 H668 0.961 . S
C653 H669 0.960 . S
H654 C638 0.931 . S
H655 C643 0.929 . S
H656 C644 0.960 . S
H657 C644 0.962 . S
H658 C644 0.960 . S
H659 C645 0.961 . S
H660 C645 0.961 . S
H661 C645 0.961 . S
H662 C646 0.931 . S
H663 C651 0.930 . S
H664 C652 0.956 . S
H665 C652 0.961 . S
H666 C652 0.961 . S
H667 C653 0.958 . S
H668 C653 0.961 . S
H669 C653 0.960 . S
C670 C671 1.391 . S
C670 C672 1.394 1_565 S
C670 H686 0.931 . S
C671 C670 1.391 . S
C671 C675 1.376 . S
C672 C670 1.394 1_545 S
C672 C673 1.369 . S
C672 C676 1.531 . S
C673 C672 1.369 . S
C673 C674 1.410 1_545 S
C673 C681 1.503 . S
C674 C673 1.410 1_565 S
C674 C675 1.392 . S
C674 C677 1.511 . S
C675 C671 1.376 . S
C675 C674 1.392 . S
C675 H687 0.929 . S
C676 C672 1.531 . S
C676 H688 0.960 . S
C676 H689 0.962 . S
C676 H690 0.960 . S
C677 C674 1.511 . S
C677 H691 0.961 . S
C677 H692 0.973 . S
C677 H693 0.961 1_565 S
C678 C679 1.370 . S
C678 C680 1.363 . S
C678 H694 0.931 . S
C679 C678 1.370 . S
C679 C683 1.408 . S
C680 C678 1.363 . S
C680 C681 1.370 . S
C680 C684 1.524 1_545 S
C681 C673 1.503 . S
C681 C680 1.370 . S
C681 C682 1.403 . S
C682 C681 1.403 . S
C682 C683 1.404 . S
C682 C685 1.539 . S
C683 C679 1.408 . S
C683 C682 1.404 . S
C683 H695 0.930 . S
C684 C680 1.524 1_565 S
C684 H696 0.956 . S
C684 H697 0.961 . S
C684 H698 0.961 . S
C685 C682 1.539 . S
C685 H699 0.958 . S
C685 H700 0.961 . S
C685 H701 0.960 . S
H686 C670 0.931 . S
H687 C675 0.929 . S
H688 C676 0.960 . S
H689 C676 0.962 . S
H690 C676 0.960 . S
H691 C677 0.961 . S
H692 C677 0.973 . S
H693 C677 0.961 1_545 S
H694 C678 0.931 . S
H695 C683 0.930 . S
H696 C684 0.956 . S
H697 C684 0.961 . S
H698 C684 0.961 . S
H699 C685 0.958 . S
H700 C685 0.961 . S
H701 C685 0.960 . S
C127 C37 1.233 . S
C135 C8 1.216 1_554 S
C159 C23 1.218 1_554 S
C167 C9 1.215 . S
C191 C22 1.227 . S
C199 C36 1.233 1_554 S
C223 C78 1.230 . S
C231 C51 1.215 . S
C255 C65 1.216 . S
C263 C50 1.233 . S
C287 C64 1.214 . S
C295 C79 1.233 . S
C319 C92 1.204 . S
C327 C121 1.230 . S
C351 C93 1.223 . S
C359 C107 1.214 . S
C383 C106 1.213 . S
C391 C120 1.233 . S
C415 C6 1.448 . S
C423 C104 1.489 . S
C447 C21 1.463 . S
C455 C119 1.485 . S
C479 C91 1.501 . S
C487 C34 1.467 . S
C511 C63 1.448 . S
C519 C35 1.487 . S
C543 C7 1.453 . S
C551 C77 1.488 . S
C575 C49 1.500 . S
C583 C20 1.468 . S
C607 C105 1.476 . S
C615 C76 1.473 . S
C639 C48 1.501 . S
C647 C118 1.467 . S
C671 C90 1.500 . S
C679 C62 1.469 . S
