# Generated by pormake.
# Topology lcy-e, (6)-cn, num edge types: 1
# Building blocks:
#     Node 0, Type 0, BuildingBlock: MIFKUJ_clean_sbu_0, # of connection points: 6
#     Node 1, Type 0, BuildingBlock: MIFKUJ_clean_sbu_0, # of connection points: 6
#     Node 2, Type 0, BuildingBlock: MIFKUJ_clean_sbu_0, # of connection points: 6
#     Node 3, Type 0, BuildingBlock: MIFKUJ_clean_sbu_0, # of connection points: 6
#     Node 4, Type 0, BuildingBlock: MIFKUJ_clean_sbu_0, # of connection points: 6
#     Node 5, Type 0, BuildingBlock: MIFKUJ_clean_sbu_0, # of connection points: 6
#     Node 6, Type 0, BuildingBlock: MIFKUJ_clean_sbu_0, # of connection points: 6
#     Node 7, Type 0, BuildingBlock: MIFKUJ_clean_sbu_0, # of connection points: 6
#     Node 8, Type 0, BuildingBlock: MIFKUJ_clean_sbu_0, # of connection points: 6
#     Node 9, Type 0, BuildingBlock: MIFKUJ_clean_sbu_0, # of connection points: 6
#     Node 10, Type 0, BuildingBlock: MIFKUJ_clean_sbu_0, # of connection points: 6
#     Node 11, Type 0, BuildingBlock: MIFKUJ_clean_sbu_0, # of connection points: 6
#     Edge 12, Type (0, 0), BuildingBlock: AJUNOK_clean_linker_0, # of connection points: 2
#     Edge 13, Type (0, 0), BuildingBlock: AJUNOK_clean_linker_0, # of connection points: 2
#     Edge 14, Type (0, 0), BuildingBlock: AJUNOK_clean_linker_0, # of connection points: 2
#     Edge 15, Type (0, 0), BuildingBlock: AJUNOK_clean_linker_0, # of connection points: 2
#     Edge 16, Type (0, 0), BuildingBlock: AJUNOK_clean_linker_0, # of connection points: 2
#     Edge 17, Type (0, 0), BuildingBlock: AJUNOK_clean_linker_0, # of connection points: 2
#     Edge 18, Type (0, 0), BuildingBlock: AJUNOK_clean_linker_0, # of connection points: 2
#     Edge 19, Type (0, 0), BuildingBlock: AJUNOK_clean_linker_0, # of connection points: 2
#     Edge 20, Type (0, 0), BuildingBlock: AJUNOK_clean_linker_0, # of connection points: 2
#     Edge 21, Type (0, 0), BuildingBlock: AJUNOK_clean_linker_0, # of connection points: 2
#     Edge 22, Type (0, 0), BuildingBlock: AJUNOK_clean_linker_0, # of connection points: 2
#     Edge 23, Type (0, 0), BuildingBlock: AJUNOK_clean_linker_0, # of connection points: 2
#     Edge 24, Type (0, 0), BuildingBlock: AJUNOK_clean_linker_0, # of connection points: 2
#     Edge 25, Type (0, 0), BuildingBlock: AJUNOK_clean_linker_0, # of connection points: 2
#     Edge 26, Type (0, 0), BuildingBlock: AJUNOK_clean_linker_0, # of connection points: 2
#     Edge 27, Type (0, 0), BuildingBlock: AJUNOK_clean_linker_0, # of connection points: 2
#     Edge 28, Type (0, 0), BuildingBlock: AJUNOK_clean_linker_0, # of connection points: 2
#     Edge 29, Type (0, 0), BuildingBlock: AJUNOK_clean_linker_0, # of connection points: 2
#     Edge 30, Type (0, 0), BuildingBlock: AJUNOK_clean_linker_0, # of connection points: 2
#     Edge 31, Type (0, 0), BuildingBlock: AJUNOK_clean_linker_0, # of connection points: 2
#     Edge 32, Type (0, 0), BuildingBlock: AJUNOK_clean_linker_0, # of connection points: 2
#     Edge 33, Type (0, 0), BuildingBlock: AJUNOK_clean_linker_0, # of connection points: 2
#     Edge 34, Type (0, 0), BuildingBlock: AJUNOK_clean_linker_0, # of connection points: 2
#     Edge 35, Type (0, 0), BuildingBlock: AJUNOK_clean_linker_0, # of connection points: 2
#     Edge 36, Type (0, 0), BuildingBlock: AJUNOK_clean_linker_0, # of connection points: 2
#     Edge 37, Type (0, 0), BuildingBlock: AJUNOK_clean_linker_0, # of connection points: 2
#     Edge 38, Type (0, 0), BuildingBlock: AJUNOK_clean_linker_0, # of connection points: 2
#     Edge 39, Type (0, 0), BuildingBlock: AJUNOK_clean_linker_0, # of connection points: 2
#     Edge 40, Type (0, 0), BuildingBlock: AJUNOK_clean_linker_0, # of connection points: 2
#     Edge 41, Type (0, 0), BuildingBlock: AJUNOK_clean_linker_0, # of connection points: 2
#     Edge 42, Type (0, 0), BuildingBlock: AJUNOK_clean_linker_0, # of connection points: 2
#     Edge 43, Type (0, 0), BuildingBlock: AJUNOK_clean_linker_0, # of connection points: 2
#     Edge 44, Type (0, 0), BuildingBlock: AJUNOK_clean_linker_0, # of connection points: 2
#     Edge 45, Type (0, 0), BuildingBlock: AJUNOK_clean_linker_0, # of connection points: 2
#     Edge 46, Type (0, 0), BuildingBlock: AJUNOK_clean_linker_0, # of connection points: 2
#     Edge 47, Type (0, 0), BuildingBlock: AJUNOK_clean_linker_0, # of connection points: 2
# Relax obj value: 0.185
# Max RMSD: 0.294
# Mean RMSD: 0.243
data_MOF--net-lcy-e--node1-MIFKUJ_clean_sbu_0--edge1-AJUNOK_clean_linker_0
_symmetry_space_group_name_H-M    P1
_symmetry_Int_Tables_number       1
_symmetry_cell_setting            triclinic
loop_
_symmetry_equiv_pos_as_xyz
'x, y, z'
_cell_length_a     27.889001
_cell_length_b     30.486881
_cell_length_c     30.529992
_cell_angle_alpha  86.318387
_cell_angle_beta   88.230019
_cell_angle_gamma 87.831661
loop_
_atom_site_label
_atom_site_type_symbol
_atom_site_fract_x
_atom_site_fract_y
_atom_site_fract_z
_atom_type_partial_charge
Zn0 Zn 0.11473 0.2514 0.42701 0.0
Zn1 Zn 0.0927 0.13714 0.46472 0.0
C2 C 0.16134 0.27687 0.50323 0.0
O3 O 0.16917 0.23419 0.50939 0.0
C4 C 0.0283 0.11024 0.40068 0.0
O5 O 0.05913 0.0767 0.39857 0.0
O6 O 0.10543 0.28489 0.36847 0.0
O7 O 0.1666 0.20554 0.4154 0.0
O8 O 0.15717 0.13494 0.43426 0.0
C9 C 0.10332 0.32665 0.36451 0.0
O10 O 0.10073 0.34868 0.40015 0.0
O11 O 0.14081 0.29205 0.46864 0.0
C12 C 0.05447 0.08054 0.53262 0.0
O13 O 0.02685 0.11581 0.53767 0.0
O14 O 0.0859 0.08078 0.50158 0.0
O15 O 0.08305 0.18449 0.50699 0.0
O16 O 0.05332 0.23118 0.45669 0.0
O17 O 0.03811 0.14162 0.42385 0.0
C18 C 0.18218 0.16575 0.41699 0.0
C19 C 0.05878 0.21954 0.497 0.0
Zn20 Zn 0.95783 0.86941 0.66584 0.0
Zn21 Zn 0.05291 0.86826 0.72497 0.0
C22 C 0.88678 0.90847 0.71687 0.0
O23 O 0.86619 0.87362 0.70399 0.0
C24 C 0.11394 0.82199 0.66695 0.0
O25 O 0.1401 0.85611 0.67216 0.0
O26 O 0.90967 0.86597 0.61681 0.0
O27 O 0.019 0.89175 0.63627 0.0
O28 O 0.0445 0.92622 0.6917 0.0
C29 C 0.89963 0.90321 0.59717 0.0
O30 O 0.92135 0.93773 0.60945 0.0
O31 O 0.92955 0.91573 0.70368 0.0
C32 C 0.12669 0.83156 0.78071 0.0
O33 O 0.10962 0.79587 0.76611 0.0
O34 O 0.10749 0.86878 0.76841 0.0
O35 O 0.99526 0.84916 0.75919 0.0
O36 O 0.95968 0.81471 0.708 0.0
O37 O 0.07185 0.82135 0.68397 0.0
C38 C 0.03613 0.92567 0.65114 0.0
C39 C 0.96915 0.81869 0.74819 0.0
Zn40 Zn 0.35425 0.73317 0.9392 0.0
Zn41 Zn 0.34679 0.84887 0.96935 0.0
C42 C 0.34505 0.65092 0.98892 0.0
O43 O 0.38896 0.64542 0.97289 0.0
C44 C 0.41368 0.90164 0.92311 0.0
O45 O 0.37429 0.92663 0.92118 0.0
O46 O 0.38182 0.70178 0.88703 0.0
O47 O 0.30393 0.77532 0.91185 0.0
O48 O 0.29367 0.84523 0.92634 0.0
C49 C 0.35335 0.67423 0.87348 0.0
O50 O 0.31249 0.66774 0.89501 0.0
O51 O 0.32205 0.68708 0.97973 0.0
C52 C 0.36331 0.90574 0.03584 0.0
O53 O 0.39448 0.87322 0.04463 0.0
O54 O 0.33456 0.90244 0.00473 0.0
O55 O 0.35339 0.79799 0.01474 0.0
O56 O 0.40426 0.75748 0.97679 0.0
O57 O 0.41093 0.86212 0.93891 0.0
C58 C 0.28198 0.81246 0.90575 0.0
C59 C 0.38643 0.76821 0.01359 0.0
Zn60 Zn 0.43613 0.11793 0.26685 0.0
Zn61 Zn 0.4789 0.11796 0.1528 0.0
C62 C 0.51546 0.17114 0.28859 0.0
O63 O 0.51441 0.18465 0.24688 0.0
C64 C 0.41121 0.06907 0.10828 0.0
O65 O 0.4087 0.10576 0.0833 0.0
O66 O 0.3792 0.10584 0.30741 0.0
O67 O 0.41213 0.16629 0.22437 0.0
O68 O 0.4386 0.17453 0.15551 0.0
C69 C 0.36726 0.13955 0.3283 0.0
O70 O 0.39394 0.1742 0.32271 0.0
O71 O 0.4861 0.14266 0.30353 0.0
C72 C 0.5681 0.13004 0.10261 0.0
O73 O 0.58483 0.13881 0.1407 0.0
O74 O 0.5237 0.12275 0.09996 0.0
O75 O 0.52141 0.09955 0.20366 0.0
O76 O 0.46615 0.06389 0.24202 0.0
O77 O 0.43728 0.06739 0.14184 0.0
C78 C 0.41185 0.18723 0.18707 0.0
C79 C 0.51021 0.07032 0.23338 0.0
Zn80 Zn 0.61693 0.31416 0.49273 0.0
Zn81 Zn 0.64607 0.28881 0.61318 0.0
C82 C 0.61328 0.2723 0.4103 0.0
O83 O 0.64459 0.30173 0.39683 0.0
C84 C 0.69987 0.35977 0.63804 0.0
O85 O 0.66649 0.35875 0.66936 0.0
O86 O 0.62572 0.37396 0.46144 0.0
O87 O 0.56189 0.32303 0.53648 0.0
O88 O 0.57842 0.31349 0.60758 0.0
C89 C 0.59218 0.38644 0.43567 0.0
O90 O 0.55698 0.35988 0.43085 0.0
O91 O 0.59681 0.27165 0.44961 0.0
C92 C 0.63502 0.22535 0.68683 0.0
O93 O 0.6118 0.2038 0.65873 0.0
O94 O 0.6517 0.26245 0.67452 0.0
O95 O 0.66071 0.23966 0.57366 0.0
O96 O 0.67598 0.28916 0.5212 0.0
O97 O 0.69638 0.33467 0.60665 0.0
C98 C 0.54926 0.32358 0.57695 0.0
C99 C 0.67394 0.24887 0.53423 0.0
Zn100 Zn 0.96891 0.3552 0.7244 0.0
Zn101 Zn 0.99096 0.38581 0.84558 0.0
C102 C 0.01092 0.33357 0.63901 0.0
O103 O 0.0252 0.37423 0.63716 0.0
C104 C 0.91907 0.44345 0.8848 0.0
O105 O 0.91929 0.41164 0.91596 0.0
O106 O 0.90636 0.38818 0.71013 0.0
O107 O 0.95268 0.31074 0.77361 0.0
O108 O 0.96024 0.32636 0.84301 0.0
C109 C 0.89427 0.40026 0.67122 0.0
O110 O 0.92681 0.39914 0.63931 0.0
O111 O 0.98711 0.3187 0.67263 0.0
C112 C 0.05498 0.4109 0.91093 0.0
O113 O 0.06783 0.43892 0.87862 0.0
O114 O 0.02279 0.38374 0.90453 0.0
O115 O 0.0436 0.40298 0.80034 0.0
O116 O 0.02582 0.39231 0.73136 0.0
O117 O 0.94319 0.43758 0.84939 0.0
C118 C 0.9484 0.30031 0.81451 0.0
C119 C 0.05317 0.40678 0.75923 0.0
Zn120 Zn 0.86996 0.69375 0.9889 0.0
Zn121 Zn 0.86179 0.73854 0.09586 0.0
C122 C 0.87953 0.72693 0.89902 0.0
O123 O 0.83648 0.71127 0.89687 0.0
C124 C 0.80486 0.67059 0.13361 0.0
O125 O 0.83891 0.66985 0.16246 0.0
O126 O 0.85122 0.63456 0.96737 0.0
O127 O 0.9238 0.67894 0.031 0.0
O128 O 0.92455 0.70612 0.09636 0.0
C129 C 0.88576 0.61749 0.94504 0.0
O130 O 0.92638 0.63798 0.94058 0.0
O131 O 0.90027 0.72444 0.93565 0.0
C132 C 0.82511 0.80302 0.1559 0.0
O133 O 0.79676 0.81461 0.12326 0.0
O134 O 0.85614 0.77186 0.1513 0.0
O135 O 0.85335 0.78178 0.04459 0.0
O136 O 0.81522 0.73712 0.00468 0.0
O137 O 0.80817 0.69661 0.09955 0.0
C138 C 0.94375 0.68258 0.06743 0.0
C139 C 0.82459 0.77601 0.01421 0.0
Zn140 Zn 0.53136 0.64419 0.23505 0.0
Zn141 Zn 0.4728 0.62467 0.33885 0.0
C142 C 0.4588 0.68798 0.17864 0.0
O143 O 0.43193 0.68493 0.2147 0.0
C144 C 0.54702 0.56626 0.37629 0.0
O145 O 0.54508 0.59414 0.40744 0.0
O146 O 0.59886 0.62632 0.21808 0.0
O147 O 0.54045 0.69011 0.27867 0.0
O148 O 0.50159 0.68303 0.34272 0.0
C149 C 0.61233 0.6193 0.17896 0.0
O150 O 0.57996 0.61922 0.1486 0.0
O151 O 0.50222 0.67381 0.18007 0.0
C152 C 0.42093 0.57584 0.40582 0.0
O153 O 0.4348 0.54364 0.38121 0.0
O154 O 0.43142 0.61498 0.39341 0.0
O155 O 0.43164 0.61549 0.28764 0.0
O156 O 0.49415 0.58939 0.25055 0.0
O157 O 0.52283 0.5753 0.3421 0.0
C158 C 0.5298 0.70384 0.31629 0.0
C159 C 0.44972 0.58861 0.26105 0.0
Zn160 Zn 0.25082 0.43012 0.14629 0.0
Zn161 Zn 0.16607 0.49823 0.14328 0.0
C162 C 0.32961 0.46707 0.17973 0.0
O163 O 0.34633 0.45039 0.14344 0.0
C164 C 0.11377 0.44638 0.08549 0.0
O165 O 0.07887 0.45139 0.11485 0.0
O166 O 0.29195 0.37466 0.13696 0.0
O167 O 0.18848 0.40615 0.17443 0.0
O168 O 0.15786 0.46627 0.20149 0.0
C169 C 0.2953 0.35021 0.17221 0.0
O170 O 0.27415 0.36386 0.20818 0.0
O171 O 0.28572 0.46211 0.19078 0.0
C172 C 0.11043 0.56673 0.10118 0.0
O173 O 0.13909 0.55587 0.06833 0.0
O174 O 0.11536 0.54637 0.13849 0.0
O175 O 0.22801 0.52713 0.13242 0.0
O176 O 0.2539 0.47352 0.09204 0.0
O177 O 0.15483 0.46056 0.09277 0.0
C178 C 0.16299 0.42477 0.20363 0.0
C179 C 0.25231 0.51429 0.09956 0.0
Zn180 Zn 0.6921 0.00961 0.89338 0.0
Zn181 Zn 0.77012 0.08515 0.89565 0.0
C182 C 0.7307 0.92611 0.91892 0.0
O183 O 0.71215 0.91965 0.88091 0.0
C184 C 0.70702 0.14809 0.85093 0.0
O185 O 0.72116 0.17331 0.88103 0.0
O186 O 0.62931 0.98125 0.88148 0.0
O187 O 0.67105 0.06371 0.92488 0.0
O188 O 0.73757 0.08112 0.95537 0.0
C189 C 0.60157 0.97771 0.91532 0.0
O190 O 0.61601 0.99125 0.95254 0.0
O191 O 0.72705 0.9645 0.93316 0.0
C192 C 0.84044 0.14172 0.8562 0.0
O193 O 0.829 0.11964 0.82267 0.0
O194 O 0.82083 0.13173 0.89354 0.0
O195 O 0.79949 0.02995 0.87225 0.0
O196 O 0.73342 0.0161 0.83828 0.0
O197 O 0.72211 0.10828 0.85174 0.0
C198 C 0.69207 0.08014 0.95597 0.0
C199 C 0.77897 0.01346 0.84078 0.0
Zn200 Zn 0.74704 0.02343 0.39116 0.0
Zn201 Zn 0.70671 0.91237 0.37962 0.0
C202 C 0.71154 0.1111 0.41219 0.0
O203 O 0.72736 0.12164 0.37205 0.0
C204 C 0.77669 0.87526 0.32403 0.0
O205 O 0.77753 0.84738 0.35868 0.0
O206 O 0.80991 0.04695 0.36729 0.0
O207 O 0.76598 0.97383 0.43465 0.0
O208 O 0.74345 0.90534 0.43611 0.0
C209 C 0.83112 0.06986 0.39359 0.0
O210 O 0.81152 0.07574 0.43251 0.0
O211 O 0.71447 0.071 0.42663 0.0
C212 C 0.62626 0.85178 0.38179 0.0
O213 O 0.60114 0.88159 0.40274 0.0
O214 O 0.67044 0.85753 0.37286 0.0
O215 O 0.65682 0.96248 0.37223 0.0
O216 O 0.70323 0.01359 0.34157 0.0
O217 O 0.75131 0.91069 0.32621 0.0
C218 C 0.76692 0.93497 0.45238 0.0
C219 C 0.66261 0.99598 0.34582 0.0
Zn220 Zn 0.29372 0.46237 0.64051 0.0
Zn221 Zn 0.26476 0.57769 0.6499 0.0
C222 C 0.23169 0.39145 0.62891 0.0
O223 O 0.25148 0.37511 0.6652 0.0
C224 C 0.33546 0.61036 0.70259 0.0
O225 O 0.33837 0.63852 0.66828 0.0
O226 O 0.35036 0.41952 0.64965 0.0
O227 O 0.31819 0.50408 0.59176 0.0
O228 O 0.30049 0.57506 0.59256 0.0
C229 C 0.35989 0.39966 0.61475 0.0
O230 O 0.33105 0.40689 0.58167 0.0
O231 O 0.24262 0.42957 0.61362 0.0
C232 C 0.19407 0.64974 0.63101 0.0
O233 O 0.1691 0.62077 0.61232 0.0
O234 O 0.23345 0.63769 0.64855 0.0
O235 O 0.21322 0.53369 0.66319 0.0
O236 O 0.26305 0.48554 0.6958 0.0
O237 O 0.3089 0.57756 0.70063 0.0
C238 C 0.32077 0.54284 0.57432 0.0
C239 C 0.22038 0.50045 0.68981 0.0
C240 C 0.19934 0.28935 0.57419 0.0
C241 C 0.1749 0.30661 0.53691 0.0
C242 C 0.21498 0.31684 0.60545 0.0
C243 C 0.20685 0.36265 0.60056 0.0
H244 H 0.2077 0.25441 0.57882 0.0
H245 H 0.23554 0.30215 0.6325 0.0
S246 S 0.13861 0.42393 0.51236 0.0
N247 N 0.13916 0.37222 0.49931 0.0
N248 N 0.1683 0.42371 0.55831 0.0
C249 C 0.17997 0.38013 0.56491 0.0
C250 C 0.16411 0.35218 0.53301 0.0
C251 C 0.78501 0.95744 0.78487 0.0
C252 C 0.80747 0.98874 0.8083 0.0
C253 C 0.81101 0.93215 0.75514 0.0
C254 C 0.86047 0.93744 0.74716 0.0
H255 H 0.7471 0.9517 0.79009 0.0
H256 H 0.79201 0.90808 0.73843 0.0
S257 S 0.93584 0.01695 0.79811 0.0
N258 N 0.88179 0.02492 0.82045 0.0
N259 N 0.93072 0.97764 0.76396 0.0
C260 C 0.88329 0.96941 0.76953 0.0
C261 C 0.8568 0.99492 0.8003 0.0
C262 C 0.2831 0.62514 0.04447 0.0
C263 C 0.32211 0.61512 0.0162 0.0
C264 C 0.2609 0.5922 0.07096 0.0
C265 C 0.2763 0.54768 0.06992 0.0
H266 H 0.26992 0.65885 0.04664 0.0
H267 H 0.23117 0.60185 0.09236 0.0
S268 S 0.37614 0.50372 1.00059 0.0
N269 N 0.3749 0.55727 0.98813 0.0
N270 N 0.33262 0.49526 0.03773 0.0
C271 C 0.31483 0.53702 0.04136 0.0
C272 C 0.33793 0.57075 0.01465 0.0
C273 C 0.59366 0.06846 0.26147 0.0
C274 C 0.54767 0.05084 0.26311 0.0
C275 C 0.63005 0.05077 0.28859 0.0
C276 C 0.62235 0.01439 0.31849 0.0
H277 H 0.60181 0.09638 0.23908 0.0
H278 H 0.66469 0.06579 0.28575 0.0
S279 S 0.5081 0.95592 0.33586 0.0
N280 N 0.4962 0.99499 0.29735 0.0
N281 N 0.56461 0.9616 0.3483 0.0
C282 C 0.57636 0.99656 0.32074 0.0
C283 C 0.5391 0.01478 0.29313 0.0
C284 C 0.70384 0.2225 0.46184 0.0
C285 C 0.68052 0.21362 0.5028 0.0
C286 C 0.71207 0.18956 0.43214 0.0
C287 C 0.69794 0.14615 0.4424 0.0
H288 H 0.71651 0.25508 0.45279 0.0
H289 H 0.73096 0.19805 0.40141 0.0
S290 S 0.63251 0.10612 0.54402 0.0
N291 N 0.64094 0.15848 0.551 0.0
N292 N 0.65718 0.09659 0.49556 0.0
C293 C 0.67371 0.13696 0.48286 0.0
C294 C 0.66493 0.1706 0.51297 0.0
C295 C 0.0966 0.45254 0.70096 0.0
C296 C 0.09672 0.4299 0.74265 0.0
C297 C 0.13664 0.47532 0.68435 0.0
C298 C 0.17891 0.47562 0.70829 0.0
H299 H 0.06497 0.45329 0.68116 0.0
H300 H 0.13457 0.49248 0.65224 0.0
S301 S 0.19868 0.42038 0.81841 0.0
N302 N 0.14316 0.40874 0.80726 0.0
N303 N 0.21887 0.45077 0.77551 0.0
C304 C 0.17997 0.45252 0.74965 0.0
C305 C 0.13877 0.42997 0.767 0.0
C306 C 0.75147 0.84572 0.93068 0.0
C307 C 0.75483 0.88879 0.94425 0.0
C308 C 0.77379 0.80959 0.95358 0.0
C309 C 0.80079 0.81495 0.9909 0.0
H310 H 0.73122 0.83962 0.90212 0.0
H311 H 0.77004 0.77724 0.94163 0.0
S312 S 0.82142 0.92113 0.03982 0.0
N313 N 0.78749 0.9348 0.9974 0.0
N314 N 0.82995 0.86725 0.04019 0.0
C315 C 0.8047 0.85798 0.00474 0.0
C316 C 0.78159 0.89474 0.98155 0.0
C317 C 0.36929 0.55803 0.24826 0.0
C318 C 0.41967 0.55518 0.24313 0.0
C319 C 0.34022 0.52828 0.22918 0.0
C320 C 0.3605 0.49473 0.20418 0.0
H321 H 0.35202 0.58407 0.2662 0.0
H322 H 0.3016 0.53261 0.23274 0.0
S323 S 0.49043 0.46954 0.18518 0.0
N324 N 0.48853 0.5134 0.21423 0.0
N325 N 0.43393 0.45791 0.17851 0.0
C326 C 0.41077 0.49033 0.20039 0.0
C327 C 0.44034 0.52043 0.2198 0.0
C328 C 0.56871 0.23193 0.30473 0.0
C329 C 0.54593 0.19292 0.31902 0.0
C330 C 0.59234 0.25647 0.33419 0.0
C331 C 0.59378 0.24304 0.37905 0.0
H332 H 0.56678 0.24466 0.27086 0.0
H333 H 0.60768 0.28718 0.322 0.0
S334 S 0.54706 0.13974 0.43198 0.0
N335 N 0.53185 0.13916 0.38019 0.0
N336 N 0.57551 0.18582 0.43555 0.0
C337 C 0.57376 0.20283 0.39335 0.0
C338 C 0.55007 0.1776 0.36332 0.0
C339 C 0.04333 0.23286 0.5762 0.0
C340 C 0.04445 0.24948 0.53204 0.0
C341 C 0.03176 0.26016 0.61049 0.0
C342 C 0.02192 0.30538 0.6021 0.0
H343 H 0.0514 0.19834 0.58449 0.0
H344 H 0.03144 0.24587 0.64392 0.0
S345 S 0.01744 0.3653 0.49259 0.0
N346 N 0.03212 0.31403 0.48189 0.0
N347 N 0.0122 0.36556 0.5466 0.0
C348 C 0.02254 0.32255 0.55824 0.0
C349 C 0.03319 0.29454 0.52315 0.0
C350 C 0.90015 0.77807 0.78332 0.0
C351 C 0.94834 0.78974 0.78371 0.0
C352 C 0.87825 0.75691 0.82054 0.0
C353 C 0.90397 0.74664 0.85916 0.0
H354 H 0.87869 0.78715 0.75495 0.0
H355 H 0.84058 0.74978 0.81942 0.0
S356 S 0.03325 0.76502 0.87394 0.0
N357 N 0.02233 0.78597 0.82393 0.0
N358 N 0.98179 0.74583 0.89341 0.0
C359 C 0.95297 0.75608 0.85882 0.0
C360 C 0.97498 0.77771 0.82118 0.0
C361 C 0.46764 0.70856 0.09775 0.0
C362 C 0.43893 0.70737 0.13665 0.0
C363 C 0.4501 0.72725 0.05786 0.0
C364 C 0.40333 0.74596 0.0553 0.0
H365 H 0.50417 0.69519 0.09805 0.0
H366 H 0.47379 0.72793 0.02904 0.0
S367 S 0.31208 0.74836 0.1464 0.0
N368 N 0.36011 0.72446 0.16909 0.0
N369 N 0.32754 0.75977 0.09444 0.0
C370 C 0.37384 0.74412 0.0936 0.0
C371 C 0.39151 0.7248 0.13413 0.0
C372 C 0.10981 0.39654 0.31749 0.0
C373 C 0.11207 0.35027 0.32099 0.0
C374 C 0.12447 0.42015 0.27883 0.0
C375 C 0.14238 0.39857 0.24198 0.0
H376 H 0.098 0.4149 0.34532 0.0
H377 H 0.12334 0.45572 0.27855 0.0
S378 S 0.15052 0.27772 0.23209 0.0
N379 N 0.12972 0.2836 0.28265 0.0
N380 N 0.15753 0.32805 0.21013 0.0
C381 C 0.14258 0.35229 0.24415 0.0
C382 C 0.12732 0.32816 0.28354 0.0
C383 C 0.85348 0.95179 0.54318 0.0
C384 C 0.86411 0.90907 0.56144 0.0
C385 C 0.82138 0.95947 0.50896 0.0
C386 C 0.79809 0.92485 0.49101 0.0
H387 H 0.87035 0.97996 0.55511 0.0
H388 H 0.81531 0.99315 0.49622 0.0
S389 S 0.81209 0.80655 0.52758 0.0
N390 N 0.84772 0.83142 0.55958 0.0
N391 N 0.78733 0.84581 0.49494 0.0
C392 C 0.80762 0.88185 0.50935 0.0
C393 C 0.84057 0.87399 0.54452 0.0
C394 C 0.3377 0.59717 0.78409 0.0
C395 C 0.3519 0.62236 0.74594 0.0
C396 C 0.3419 0.61294 0.82578 0.0
C397 C 0.36124 0.65409 0.83109 0.0
H398 H 0.3202 0.56631 0.78178 0.0
H399 H 0.3275 0.59374 0.85394 0.0
S400 S 0.41054 0.73002 0.74282 0.0
N401 N 0.39135 0.68849 0.71682 0.0
N402 N 0.39949 0.71771 0.79554 0.0
C403 C 0.37966 0.67784 0.79383 0.0
C404 C 0.37495 0.66204 0.75113 0.0
C405 C 0.58205 0.11084 0.02492 0.0
C406 C 0.60109 0.12259 0.06447 0.0
C407 C 0.6119 0.09851 0.9899 0.0
C408 C 0.66227 0.0973 0.99269 0.0
H409 H 0.5436 0.10996 0.02118 0.0
H410 H 0.59501 0.08895 0.96066 0.0
S411 S 0.73066 0.12848 0.08765 0.0
N412 N 0.67382 0.13495 0.10344 0.0
N413 N 0.73002 0.11161 0.03737 0.0
C414 C 0.682 0.11075 0.03131 0.0
C415 C 0.65143 0.12342 0.06719 0.0
C416 C 0.665 0.23159 0.76222 0.0
C417 C 0.6463 0.20534 0.73098 0.0
C418 C 0.68195 0.21305 0.80215 0.0
C419 C 0.6813 0.16745 0.81228 0.0
H420 H 0.66801 0.2667 0.75529 0.0
H421 H 0.69777 0.2345 0.82423 0.0
S422 S 0.63082 0.08472 0.74421 0.0
N423 N 0.62408 0.13176 0.71473 0.0
N424 N 0.65622 0.09687 0.78982 0.0
C425 C 0.66017 0.14107 0.78253 0.0
C426 C 0.64255 0.16002 0.7419 0.0
C427 C 0.05968 0.4112 0.03502 0.0
C428 C 0.10308 0.43173 0.04145 0.0
C429 C 0.04547 0.40248 0.99283 0.0
C430 C 0.07376 0.41462 0.95537 0.0
H431 H 0.03575 0.40286 0.06268 0.0
H432 H 0.01101 0.38798 0.98946 0.0
S433 S 0.19263 0.46551 0.95423 0.0
N434 N 0.17603 0.46087 0.00663 0.0
N435 N 0.14885 0.44513 0.92755 0.0
C436 C 0.11818 0.43338 0.9614 0.0
C437 C 0.13301 0.44171 0.00436 0.0
C438 C 0.77673 0.87975 0.24171 0.0
C439 C 0.79572 0.86083 0.28103 0.0
C440 C 0.78764 0.86161 0.20132 0.0
C441 C 0.81832 0.82404 0.19846 0.0
H442 H 0.75143 0.90757 0.24227 0.0
H443 H 0.77082 0.87661 0.17227 0.0
S444 S 0.88161 0.76487 0.29122 0.0
N445 N 0.84976 0.8045 0.31409 0.0
N446 N 0.87047 0.77062 0.23834 0.0
C447 C 0.83963 0.80626 0.23722 0.0
C448 C 0.82827 0.82458 0.2784 0.0
C449 C 0.34274 0.59153 0.50795 0.0
C450 C 0.34715 0.55041 0.53158 0.0
C451 C 0.36666 0.59947 0.46732 0.0
C452 C 0.39562 0.56651 0.44849 0.0
H453 H 0.3204 0.61788 0.52074 0.0
H454 H 0.36202 0.63159 0.45035 0.0
S455 S 0.42264 0.45433 0.49816 0.0
N456 N 0.38549 0.47715 0.53394 0.0
N457 N 0.4296 0.49196 0.45738 0.0
C458 C 0.40093 0.52544 0.47183 0.0
C459 C 0.37695 0.51743 0.5134 0.0
C460 C 0.26384 0.18941 0.3935 0.0
C461 C 0.23041 0.15595 0.39763 0.0
C462 C 0.30855 0.18286 0.37266 0.0
C463 C 0.32167 0.14273 0.3544 0.0
H464 H 0.25527 0.2213 0.40608 0.0
H465 H 0.3324 0.21019 0.36982 0.0
S466 S 0.24797 0.04359 0.35836 0.0
N467 N 0.21413 0.08034 0.38366 0.0
N468 N 0.2983 0.06813 0.3437 0.0
C469 C 0.28922 0.10837 0.35946 0.0
C470 C 0.2436 0.11495 0.38126 0.0
C471 C 0.06154 0.99938 0.54926 0.0
C472 C 0.04995 0.04157 0.56345 0.0
C473 C 0.05693 0.96189 0.57789 0.0
C474 C 0.04192 0.9655 0.62191 0.0
H475 H 0.07346 0.99524 0.51562 0.0
H476 H 0.06555 0.92989 0.5656 0.0
S477 S 0.00758 0.06837 0.67538 0.0
N478 N 0.02255 0.08475 0.62435 0.0
N479 N 0.01508 0.0143 0.67836 0.0
C480 C 0.03073 0.00747 0.63665 0.0
C481 C 0.0344 0.04553 0.60732 0.0
C482 C 0.17387 0.8593 0.84166 0.0
C483 C 0.16763 0.82767 0.81092 0.0
C484 C 0.21094 0.85434 0.87208 0.0
C485 C 0.24332 0.81763 0.87283 0.0
H486 H 0.14932 0.88762 0.84289 0.0
H487 H 0.21377 0.87921 0.89557 0.0
S488 S 0.24594 0.72828 0.7952 0.0
N489 N 0.19929 0.76024 0.78068 0.0
N490 N 0.26873 0.75103 0.83714 0.0
C491 C 0.23829 0.78655 0.84112 0.0
C492 C 0.20056 0.79154 0.81039 0.0
C493 C 0.40666 0.98713 0.11305 0.0
C494 C 0.39129 0.02812 0.0935 0.0
C495 C 0.39512 0.94772 0.09543 0.0
C496 C 0.3673 0.94748 0.05776 0.0
H497 H 0.42979 0.98533 0.14101 0.0
H498 H 0.40967 0.91721 0.11066 0.0
S499 S 0.31277 0.04559 0.99739 0.0
N500 N 0.34281 0.06588 0.03676 0.0
N501 N 0.32075 0.99166 0.00391 0.0
C502 C 0.34879 0.98802 0.03967 0.0
C503 C 0.36093 0.02834 0.05743 0.0
C504 C 0.82901 0.39166 0.61857 0.0
C505 C 0.84264 0.40197 0.66063 0.0
C506 C 0.78167 0.38127 0.61059 0.0
C507 C 0.74597 0.38123 0.6442 0.0
H508 H 0.85567 0.38832 0.59232 0.0
H509 H 0.77375 0.3707 0.57846 0.0
S510 S 0.76111 0.4154 0.75752 0.0
N511 N 0.81526 0.41829 0.73434 0.0
N512 N 0.72612 0.39945 0.71936 0.0
C513 C 0.75807 0.3961 0.68511 0.0
C514 C 0.80645 0.40626 0.69332 0.0
C515 C 0.87656 0.49488 0.93573 0.0
C516 C 0.90048 0.48833 0.89504 0.0
C517 C 0.86774 0.53732 0.95051 0.0
C518 C 0.88294 0.57464 0.92529 0.0
H519 H 0.86685 0.46696 0.95748 0.0
H520 H 0.85213 0.54067 0.98312 0.0
S521 S 0.93973 0.57673 0.81379 0.0
N522 N 0.93327 0.52397 0.82752 0.0
N523 N 0.91757 0.60316 0.85583 0.0
C524 C 0.9034 0.5689 0.88332 0.0
C525 C 0.91185 0.52592 0.86799 0.0
C526 C 0.72412 0.64816 0.11194 0.0
C527 C 0.75926 0.64818 0.14408 0.0
C528 C 0.67738 0.6352 0.12283 0.0
C529 C 0.66387 0.62217 0.16636 0.0
H530 H 0.73203 0.66029 0.07846 0.0
H531 H 0.651 0.63824 0.0974 0.0
S532 S 0.74429 0.60907 0.2613 0.0
N533 N 0.77886 0.6283 0.22016 0.0
N534 N 0.69091 0.6043 0.24058 0.0
C535 C 0.69962 0.61846 0.19804 0.0
C536 C 0.74736 0.63136 0.18691 0.0
C537 C 0.60499 0.46702 0.43797 0.0
C538 C 0.58892 0.4318 0.41548 0.0
C539 C 0.59385 0.51075 0.42348 0.0
C540 C 0.56687 0.52081 0.38563 0.0
H541 H 0.62372 0.4608 0.46844 0.0
H542 H 0.60465 0.53675 0.44323 0.0
S543 S 0.52318 0.43991 0.31134 0.0
N544 N 0.54946 0.40956 0.35107 0.0
N545 N 0.52934 0.49143 0.32316 0.0
C546 C 0.55405 0.48573 0.36093 0.0
C547 C 0.56479 0.4413 0.37609 0.0
C548 C 0.36057 0.29916 0.14362 0.0
C549 C 0.32264 0.30741 0.17385 0.0
C550 C 0.38881 0.25986 0.14734 0.0
C551 C 0.37998 0.22739 0.18132 0.0
H552 H 0.3694 0.32372 0.1177 0.0
H553 H 0.41846 0.25542 0.1241 0.0
S554 S 0.28038 0.23061 0.26504 0.0
N555 N 0.27509 0.27816 0.23636 0.0
N556 N 0.32711 0.20458 0.24293 0.0
C557 C 0.34066 0.23458 0.21044 0.0
C558 C 0.3123 0.27448 0.20681 0.0
C559 C 0.9194 0.22683 0.797 0.0
C560 C 0.92536 0.258 0.82835 0.0
C561 C 0.89347 0.18884 0.807 0.0
C562 C 0.87204 0.18006 0.84884 0.0
H563 H 0.93407 0.23215 0.76389 0.0
H564 H 0.88936 0.16668 0.78113 0.0
S565 S 0.87924 0.24941 0.94397 0.0
N566 N 0.90955 0.27619 0.90405 0.0
N567 N 0.86069 0.20474 0.92281 0.0
C568 C 0.8792 0.20995 0.88119 0.0
C569 C 0.90585 0.24883 0.87099 0.0
C570 C 0.05559 0.6103 0.05053 0.0
C571 C 0.07037 0.59928 0.09361 0.0
C572 C 0.01537 0.63814 0.04238 0.0
C573 C 0.98861 0.65655 0.07694 0.0
H574 H 0.07431 0.5963 0.02281 0.0
H575 H 0.00481 0.64473 0.00867 0.0
S576 S 0.01449 0.64058 0.19568 0.0
N577 N 0.05667 0.6107 0.1712 0.0
N578 N 0.98124 0.66333 0.15596 0.0
C579 C 0.00409 0.64713 0.12014 0.0
C580 C 0.04485 0.61839 0.12845 0.0
C581 C 0.55714 0.8015 0.38179 0.0
C582 C 0.60245 0.81387 0.36475 0.0
C583 C 0.5336 0.76627 0.3656 0.0
C584 C 0.55401 0.74257 0.33113 0.0
H585 H 0.53984 0.81887 0.40817 0.0
H586 H 0.49907 0.7576 0.38019 0.0
S587 S 0.67179 0.76222 0.27436 0.0
N588 N 0.66672 0.79972 0.31103 0.0
N589 N 0.62235 0.73409 0.2804 0.0
C590 C 0.59907 0.75497 0.31337 0.0
C591 C 0.62333 0.79039 0.33026 0.0
C592 C 0.48948 0.35911 0.62787 0.0
C593 C 0.49953 0.3383 0.58858 0.0
C594 C 0.44353 0.37713 0.63735 0.0
C595 C 0.4059 0.37459 0.60807 0.0
H596 H 0.51777 0.36314 0.65066 0.0
H597 H 0.43807 0.39461 0.66699 0.0
S598 S 0.412 0.31739 0.50394 0.0
N599 N 0.46701 0.31224 0.52243 0.0
N600 N 0.38066 0.34504 0.54046 0.0
C601 C 0.41485 0.35132 0.57002 0.0
C602 C 0.46166 0.33353 0.56018 0.0
C603 C 0.12608 0.70573 0.6301 0.0
C604 C 0.17533 0.69548 0.63465 0.0
C605 C 0.10678 0.74757 0.63852 0.0
C606 C 0.13612 0.78088 0.65112 0.0
H607 H 0.10186 0.68077 0.6218 0.0
H608 H 0.06833 0.75345 0.63643 0.0
S609 S 0.26821 0.77191 0.66395 0.0
N610 N 0.25362 0.72295 0.64975 0.0
N611 N 0.21745 0.80149 0.66522 0.0
C612 C 0.18583 0.77176 0.6535 0.0
C613 C 0.20539 0.72905 0.64541 0.0
C614 C 0.50005 0.90173 0.89653 0.0
C615 C 0.46079 0.92239 0.91798 0.0
C616 C 0.54538 0.92081 0.8937 0.0
C617 C 0.55302 0.96028 0.91355 0.0
H618 H 0.49571 0.87067 0.88202 0.0
H619 H 0.57498 0.90378 0.87742 0.0
S620 S 0.46223 0.02678 0.97415 0.0
N621 N 0.43262 0.98471 0.95886 0.0
N622 N 0.51776 0.01935 0.95503 0.0
C623 C 0.51403 0.98113 0.93494 0.0
C624 C 0.4679 0.96249 0.93678 0.0
C625 C 0.91577 0.05668 0.36807 0.0
C626 C 0.8797 0.08545 0.38378 0.0
C627 C 0.96432 0.06672 0.36992 0.0
C628 C 0.97811 0.10599 0.38721 0.0
H629 H 0.90674 0.02476 0.35768 0.0
H630 H 0.99112 0.04215 0.36059 0.0
S631 S 0.89553 0.19633 0.42289 0.0
N632 N 0.85977 0.1573 0.41047 0.0
N633 N 0.95064 0.17714 0.41282 0.0
C634 C 0.94173 0.1371 0.39823 0.0
C635 C 0.89254 0.12649 0.39695 0.0
loop_
_geom_bond_atom_site_label_1
_geom_bond_atom_site_label_2
_geom_bond_distance
_geom_bond_site_symmetry_2
_ccdc_geom_bond_type
Zn0 O6 1.969 . S
Zn0 O7 1.965 . S
Zn0 O11 2.024 . S
Zn0 O16 1.969 . S
Zn1 O8 1.969 . S
Zn1 O14 1.969 . S
Zn1 O15 1.965 . S
Zn1 O17 2.024 . S
C2 O3 1.229 . S
C2 O11 1.058 . S
O3 C2 1.229 . S
C4 O5 1.229 . S
C4 O17 1.058 . S
O5 C4 1.229 . S
O6 Zn0 1.969 . S
O6 C9 1.267 . S
O7 Zn0 1.965 . S
O7 C18 1.260 . S
O8 Zn1 1.969 . S
O8 C18 1.258 . S
C9 O6 1.267 . S
C9 O10 1.228 . S
O10 C9 1.228 . S
O11 Zn0 2.024 . S
O11 C2 1.058 . S
C12 O13 1.228 . S
C12 O14 1.267 . S
O13 C12 1.228 . S
O14 Zn1 1.969 . S
O14 C12 1.267 . S
O15 Zn1 1.965 . S
O15 C19 1.260 . S
O16 Zn0 1.969 . S
O16 C19 1.258 . S
O17 Zn1 2.024 . S
O17 C4 1.058 . S
C18 O7 1.260 . S
C18 O8 1.258 . S
C19 O15 1.260 . S
C19 O16 1.258 . S
Zn20 O26 1.969 . S
Zn20 O27 1.965 1_655 S
Zn20 O31 2.024 . S
Zn20 O36 1.969 . S
Zn21 O28 1.969 . S
Zn21 O34 1.969 . S
Zn21 O35 1.965 . S
Zn21 O37 2.024 . S
C22 O23 1.229 . S
C22 O31 1.058 . S
O23 C22 1.229 . S
C24 O25 1.229 . S
C24 O37 1.058 . S
O25 C24 1.229 . S
O26 Zn20 1.969 . S
O26 C29 1.267 . S
O27 Zn20 1.965 1_455 S
O27 C38 1.260 . S
O28 Zn21 1.969 . S
O28 C38 1.258 . S
C29 O26 1.267 . S
C29 O30 1.228 . S
O30 C29 1.228 . S
O31 Zn20 2.024 . S
O31 C22 1.058 . S
C32 O33 1.228 . S
C32 O34 1.267 . S
O33 C32 1.228 . S
O34 Zn21 1.969 . S
O34 C32 1.267 . S
O35 Zn21 1.965 . S
O35 C39 1.260 1_455 S
O36 Zn20 1.969 . S
O36 C39 1.258 . S
O37 Zn21 2.024 . S
O37 C24 1.058 . S
C38 O27 1.260 . S
C38 O28 1.258 . S
C39 O35 1.260 1_655 S
C39 O36 1.258 . S
Zn40 O46 1.969 . S
Zn40 O47 1.965 . S
Zn40 O51 2.024 . S
Zn40 O56 1.969 . S
Zn41 O48 1.969 . S
Zn41 O54 1.969 1_556 S
Zn41 O55 1.965 1_556 S
Zn41 O57 2.024 . S
C42 O43 1.229 . S
C42 O51 1.058 . S
O43 C42 1.229 . S
C44 O45 1.229 . S
C44 O57 1.058 . S
O45 C44 1.229 . S
O46 Zn40 1.969 . S
O46 C49 1.267 . S
O47 Zn40 1.965 . S
O47 C58 1.260 . S
O48 Zn41 1.969 . S
O48 C58 1.258 . S
C49 O46 1.267 . S
C49 O50 1.228 . S
O50 C49 1.228 . S
O51 Zn40 2.024 . S
O51 C42 1.058 . S
C52 O53 1.228 . S
C52 O54 1.267 . S
O53 C52 1.228 . S
O54 Zn41 1.969 1_554 S
O54 C52 1.267 . S
O55 Zn41 1.965 1_554 S
O55 C59 1.260 . S
O56 Zn40 1.969 . S
O56 C59 1.258 1_556 S
O57 Zn41 2.024 . S
O57 C44 1.058 . S
C58 O47 1.260 . S
C58 O48 1.258 . S
C59 O55 1.260 . S
C59 O56 1.258 1_554 S
Zn60 O66 1.969 . S
Zn60 O67 1.965 . S
Zn60 O71 2.024 . S
Zn60 O76 1.969 . S
Zn61 O68 1.969 . S
Zn61 O74 1.969 . S
Zn61 O75 1.965 . S
Zn61 O77 2.024 . S
C62 O63 1.229 . S
C62 O71 1.058 . S
O63 C62 1.229 . S
C64 O65 1.229 . S
C64 O77 1.058 . S
O65 C64 1.229 . S
O66 Zn60 1.969 . S
O66 C69 1.267 . S
O67 Zn60 1.965 . S
O67 C78 1.260 . S
O68 Zn61 1.969 . S
O68 C78 1.258 . S
C69 O66 1.267 . S
C69 O70 1.228 . S
O70 C69 1.228 . S
O71 Zn60 2.024 . S
O71 C62 1.058 . S
C72 O73 1.228 . S
C72 O74 1.267 . S
O73 C72 1.228 . S
O74 Zn61 1.969 . S
O74 C72 1.267 . S
O75 Zn61 1.965 . S
O75 C79 1.260 . S
O76 Zn60 1.969 . S
O76 C79 1.258 . S
O77 Zn61 2.024 . S
O77 C64 1.058 . S
C78 O67 1.260 . S
C78 O68 1.258 . S
C79 O75 1.260 . S
C79 O76 1.258 . S
Zn80 O86 1.969 . S
Zn80 O87 1.965 . S
Zn80 O91 2.024 . S
Zn80 O96 1.969 . S
Zn81 O88 1.969 . S
Zn81 O94 1.969 . S
Zn81 O95 1.965 . S
Zn81 O97 2.024 . S
C82 O83 1.229 . S
C82 O91 1.058 . S
O83 C82 1.229 . S
C84 O85 1.229 . S
C84 O97 1.058 . S
O85 C84 1.229 . S
O86 Zn80 1.969 . S
O86 C89 1.267 . S
O87 Zn80 1.965 . S
O87 C98 1.260 . S
O88 Zn81 1.969 . S
O88 C98 1.258 . S
C89 O86 1.267 . S
C89 O90 1.228 . S
O90 C89 1.228 . S
O91 Zn80 2.024 . S
O91 C82 1.058 . S
C92 O93 1.228 . S
C92 O94 1.267 . S
O93 C92 1.228 . S
O94 Zn81 1.969 . S
O94 C92 1.267 . S
O95 Zn81 1.965 . S
O95 C99 1.260 . S
O96 Zn80 1.969 . S
O96 C99 1.258 . S
O97 Zn81 2.024 . S
O97 C84 1.058 . S
C98 O87 1.260 . S
C98 O88 1.258 . S
C99 O95 1.260 . S
C99 O96 1.258 . S
Zn100 O106 1.969 . S
Zn100 O107 1.965 . S
Zn100 O111 2.024 . S
Zn100 O116 1.969 1_655 S
Zn101 O108 1.969 . S
Zn101 O114 1.969 1_655 S
Zn101 O115 1.965 1_655 S
Zn101 O117 2.024 . S
C102 O103 1.230 . S
C102 O111 1.058 1_455 S
O103 C102 1.230 . S
C104 O105 1.229 . S
C104 O117 1.058 . S
O105 C104 1.229 . S
O106 Zn100 1.969 . S
O106 C109 1.267 . S
O107 Zn100 1.965 . S
O107 C118 1.260 . S
O108 Zn101 1.969 . S
O108 C118 1.258 . S
C109 O106 1.267 . S
C109 O110 1.228 . S
O110 C109 1.228 . S
O111 Zn100 2.024 . S
O111 C102 1.058 1_655 S
C112 O113 1.228 . S
C112 O114 1.267 . S
O113 C112 1.228 . S
O114 Zn101 1.969 1_455 S
O114 C112 1.267 . S
O115 Zn101 1.965 1_455 S
O115 C119 1.260 . S
O116 Zn100 1.969 1_455 S
O116 C119 1.258 . S
O117 Zn101 2.024 . S
O117 C104 1.058 . S
C118 O107 1.260 . S
C118 O108 1.258 . S
C119 O115 1.260 . S
C119 O116 1.258 . S
Zn120 O126 1.969 . S
Zn120 O127 1.965 1_556 S
Zn120 O131 2.024 . S
Zn120 O136 1.969 . S
Zn121 O128 1.969 . S
Zn121 O134 1.969 . S
Zn121 O135 1.965 . S
Zn121 O137 2.024 . S
C122 O123 1.229 . S
C122 O131 1.058 . S
O123 C122 1.229 . S
C124 O125 1.229 . S
C124 O137 1.058 . S
O125 C124 1.229 . S
O126 Zn120 1.969 . S
O126 C129 1.267 . S
O127 Zn120 1.965 1_554 S
O127 C138 1.260 . S
O128 Zn121 1.969 . S
O128 C138 1.258 . S
C129 O126 1.267 . S
C129 O130 1.228 . S
O130 C129 1.228 . S
O131 Zn120 2.024 . S
O131 C122 1.058 . S
C132 O133 1.228 . S
C132 O134 1.267 . S
O133 C132 1.228 . S
O134 Zn121 1.969 . S
O134 C132 1.267 . S
O135 Zn121 1.965 . S
O135 C139 1.260 1_554 S
O136 Zn120 1.969 . S
O136 C139 1.258 . S
O137 Zn121 2.024 . S
O137 C124 1.058 . S
C138 O127 1.260 . S
C138 O128 1.258 . S
C139 O135 1.260 1_556 S
C139 O136 1.258 . S
Zn140 O146 1.969 . S
Zn140 O147 1.965 . S
Zn140 O151 2.024 . S
Zn140 O156 1.969 . S
Zn141 O148 1.969 . S
Zn141 O154 1.969 . S
Zn141 O155 1.965 . S
Zn141 O157 2.024 . S
C142 O143 1.229 . S
C142 O151 1.058 . S
O143 C142 1.229 . S
C144 O145 1.229 . S
C144 O157 1.058 . S
O145 C144 1.229 . S
O146 Zn140 1.969 . S
O146 C149 1.267 . S
O147 Zn140 1.965 . S
O147 C158 1.260 . S
O148 Zn141 1.969 . S
O148 C158 1.258 . S
C149 O146 1.267 . S
C149 O150 1.228 . S
O150 C149 1.228 . S
O151 Zn140 2.024 . S
O151 C142 1.058 . S
C152 O153 1.228 . S
C152 O154 1.267 . S
O153 C152 1.228 . S
O154 Zn141 1.969 . S
O154 C152 1.267 . S
O155 Zn141 1.965 . S
O155 C159 1.260 . S
O156 Zn140 1.969 . S
O156 C159 1.258 . S
O157 Zn141 2.024 . S
O157 C144 1.058 . S
C158 O147 1.260 . S
C158 O148 1.258 . S
C159 O155 1.260 . S
C159 O156 1.258 . S
Zn160 O166 1.969 . S
Zn160 O167 1.965 . S
Zn160 O171 2.024 . S
Zn160 O176 1.969 . S
Zn161 O168 1.969 . S
Zn161 O174 1.969 . S
Zn161 O175 1.965 . S
Zn161 O177 2.024 . S
C162 O163 1.229 . S
C162 O171 1.058 . S
O163 C162 1.229 . S
C164 O165 1.229 . S
C164 O177 1.058 . S
O165 C164 1.229 . S
O166 Zn160 1.969 . S
O166 C169 1.267 . S
O167 Zn160 1.965 . S
O167 C178 1.260 . S
O168 Zn161 1.969 . S
O168 C178 1.258 . S
C169 O166 1.267 . S
C169 O170 1.228 . S
O170 C169 1.228 . S
O171 Zn160 2.024 . S
O171 C162 1.058 . S
C172 O173 1.228 . S
C172 O174 1.267 . S
O173 C172 1.228 . S
O174 Zn161 1.969 . S
O174 C172 1.267 . S
O175 Zn161 1.965 . S
O175 C179 1.260 . S
O176 Zn160 1.969 . S
O176 C179 1.258 . S
O177 Zn161 2.024 . S
O177 C164 1.058 . S
C178 O167 1.260 . S
C178 O168 1.258 . S
C179 O175 1.260 . S
C179 O176 1.258 . S
Zn180 O186 1.969 . S
Zn180 O187 1.965 1_565 S
Zn180 O191 2.024 . S
Zn180 O196 1.969 . S
Zn181 O188 1.969 . S
Zn181 O194 1.969 . S
Zn181 O195 1.965 . S
Zn181 O197 2.024 . S
C182 O183 1.229 . S
C182 O191 1.058 . S
O183 C182 1.229 . S
C184 O185 1.229 . S
C184 O197 1.058 . S
O185 C184 1.229 . S
O186 Zn180 1.969 . S
O186 C189 1.267 . S
O187 Zn180 1.965 1_545 S
O187 C198 1.260 . S
O188 Zn181 1.969 . S
O188 C198 1.258 . S
C189 O186 1.267 . S
C189 O190 1.228 . S
O190 C189 1.228 . S
O191 Zn180 2.024 . S
O191 C182 1.058 . S
C192 O193 1.228 . S
C192 O194 1.267 . S
O193 C192 1.228 . S
O194 Zn181 1.969 . S
O194 C192 1.267 . S
O195 Zn181 1.965 . S
O195 C199 1.260 . S
O196 Zn180 1.969 . S
O196 C199 1.258 1_565 S
O197 Zn181 2.024 . S
O197 C184 1.058 . S
C198 O187 1.260 . S
C198 O188 1.258 . S
C199 O195 1.260 . S
C199 O196 1.258 1_545 S
Zn200 O206 1.969 . S
Zn200 O207 1.965 1_545 S
Zn200 O211 2.024 . S
Zn200 O216 1.969 . S
Zn201 O208 1.969 . S
Zn201 O214 1.969 . S
Zn201 O215 1.965 . S
Zn201 O217 2.024 . S
C202 O203 1.229 . S
C202 O211 1.058 . S
O203 C202 1.229 . S
C204 O205 1.229 . S
C204 O217 1.058 . S
O205 C204 1.229 . S
O206 Zn200 1.969 . S
O206 C209 1.267 . S
O207 Zn200 1.965 1_565 S
O207 C218 1.260 . S
O208 Zn201 1.969 . S
O208 C218 1.258 . S
C209 O206 1.267 . S
C209 O210 1.228 . S
O210 C209 1.228 . S
O211 Zn200 2.024 . S
O211 C202 1.058 . S
C212 O213 1.228 . S
C212 O214 1.267 . S
O213 C212 1.228 . S
O214 Zn201 1.969 . S
O214 C212 1.267 . S
O215 Zn201 1.965 . S
O215 C219 1.260 . S
O216 Zn200 1.969 . S
O216 C219 1.258 1_545 S
O217 Zn201 2.024 . S
O217 C204 1.058 . S
C218 O207 1.260 . S
C218 O208 1.258 . S
C219 O215 1.260 . S
C219 O216 1.258 1_565 S
Zn220 O226 1.969 . S
Zn220 O227 1.965 . S
Zn220 O231 2.024 . S
Zn220 O236 1.969 . S
Zn221 O228 1.969 . S
Zn221 O234 1.969 . S
Zn221 O235 1.965 . S
Zn221 O237 2.024 . S
C222 O223 1.229 . S
C222 O231 1.058 . S
O223 C222 1.229 . S
C224 O225 1.229 . S
C224 O237 1.058 . S
O225 C224 1.229 . S
O226 Zn220 1.969 . S
O226 C229 1.267 . S
O227 Zn220 1.965 . S
O227 C238 1.260 . S
O228 Zn221 1.969 . S
O228 C238 1.258 . S
C229 O226 1.267 . S
C229 O230 1.228 . S
O230 C229 1.228 . S
O231 Zn220 2.024 . S
O231 C222 1.058 . S
C232 O233 1.228 . S
C232 O234 1.267 . S
O233 C232 1.228 . S
O234 Zn221 1.969 . S
O234 C232 1.267 . S
O235 Zn221 1.965 . S
O235 C239 1.260 . S
O236 Zn220 1.969 . S
O236 C239 1.258 . S
O237 Zn221 2.024 . S
O237 C224 1.058 . S
C238 O227 1.260 . S
C238 O228 1.258 . S
C239 O235 1.260 . S
C239 O236 1.258 . S
C240 C241 1.369 . S
C240 C242 1.419 . S
C240 H244 0.930 . S
C241 C240 1.369 . S
C241 C250 1.429 . S
C242 C240 1.419 . S
C242 C243 1.363 . S
C242 H245 0.929 . S
C243 C242 1.363 . S
C243 C249 1.428 . S
H244 C240 0.930 . S
H245 C242 0.929 . S
S246 N247 1.613 . S
S246 N248 1.610 . S
N247 S246 1.613 . S
N247 C250 1.350 . S
N248 S246 1.610 . S
N248 C249 1.351 . S
C249 C243 1.428 . S
C249 N248 1.351 . S
C249 C250 1.434 . S
C250 C241 1.429 . S
C250 N247 1.350 . S
C250 C249 1.434 . S
C251 C252 1.369 . S
C251 C253 1.419 . S
C251 H255 0.930 . S
C252 C251 1.369 . S
C252 C261 1.429 1_545 S
C253 C251 1.419 . S
C253 C254 1.363 1_545 S
C253 H256 0.929 . S
C254 C253 1.363 1_565 S
C254 C260 1.428 . S
H255 C251 0.930 . S
H256 C253 0.929 . S
S257 N258 1.613 . S
S257 N259 1.610 . S
N258 S257 1.613 . S
N258 C261 1.350 . S
N259 S257 1.610 . S
N259 C260 1.351 . S
C260 C254 1.428 . S
C260 N259 1.351 . S
C260 C261 1.434 . S
C261 C252 1.429 1_565 S
C261 N258 1.350 . S
C261 C260 1.434 . S
C262 C263 1.369 . S
C262 C264 1.419 . S
C262 H266 0.930 . S
C263 C262 1.369 . S
C263 C272 1.429 . S
C264 C262 1.419 . S
C264 C265 1.363 . S
C264 H267 0.929 . S
C265 C264 1.363 . S
C265 C271 1.428 . S
H266 C262 0.930 . S
H267 C264 0.929 . S
S268 N269 1.613 . S
S268 N270 1.610 1_556 S
N269 S268 1.613 . S
N269 C272 1.350 1_556 S
N270 S268 1.610 1_554 S
N270 C271 1.351 . S
C271 C265 1.428 . S
C271 N270 1.351 . S
C271 C272 1.434 . S
C272 C263 1.429 . S
C272 N269 1.350 1_554 S
C272 C271 1.434 . S
C273 C274 1.369 . S
C273 C275 1.419 . S
C273 H277 0.930 . S
C274 C273 1.369 . S
C274 C283 1.429 . S
C275 C273 1.419 . S
C275 C276 1.363 . S
C275 H278 0.929 . S
C276 C275 1.363 . S
C276 C282 1.428 1_545 S
H277 C273 0.930 . S
H278 C275 0.929 . S
S279 N280 1.613 . S
S279 N281 1.610 . S
N280 S279 1.613 . S
N280 C283 1.350 1_565 S
N281 S279 1.610 . S
N281 C282 1.351 . S
C282 C276 1.428 1_565 S
C282 N281 1.351 . S
C282 C283 1.434 1_565 S
C283 C274 1.429 . S
C283 N280 1.350 1_545 S
C283 C282 1.434 1_545 S
C284 C285 1.369 . S
C284 C286 1.419 . S
C284 H288 0.930 . S
C285 C284 1.369 . S
C285 C294 1.429 . S
C286 C284 1.419 . S
C286 C287 1.363 . S
C286 H289 0.929 . S
C287 C286 1.363 . S
C287 C293 1.428 . S
H288 C284 0.930 . S
H289 C286 0.929 . S
S290 N291 1.613 . S
S290 N292 1.610 . S
N291 S290 1.613 . S
N291 C294 1.350 . S
N292 S290 1.610 . S
N292 C293 1.351 . S
C293 C287 1.428 . S
C293 N292 1.351 . S
C293 C294 1.434 . S
C294 C285 1.429 . S
C294 N291 1.350 . S
C294 C293 1.434 . S
C295 C296 1.369 . S
C295 C297 1.419 . S
C295 H299 0.930 . S
C296 C295 1.369 . S
C296 C305 1.429 . S
C297 C295 1.419 . S
C297 C298 1.363 . S
C297 H300 0.929 . S
C298 C297 1.363 . S
C298 C304 1.428 . S
H299 C295 0.930 . S
H300 C297 0.929 . S
S301 N302 1.613 . S
S301 N303 1.610 . S
N302 S301 1.613 . S
N302 C305 1.350 . S
N303 S301 1.610 . S
N303 C304 1.351 . S
C304 C298 1.428 . S
C304 N303 1.351 . S
C304 C305 1.434 . S
C305 C296 1.429 . S
C305 N302 1.350 . S
C305 C304 1.434 . S
C306 C307 1.369 . S
C306 C308 1.419 . S
C306 H310 0.930 . S
C307 C306 1.369 . S
C307 C316 1.429 1_556 S
C308 C306 1.419 . S
C308 C309 1.363 . S
C308 H311 0.929 . S
C309 C308 1.363 . S
C309 C315 1.428 1_556 S
H310 C306 0.930 . S
H311 C308 0.929 . S
S312 N313 1.613 . S
S312 N314 1.610 . S
N313 S312 1.613 . S
N313 C316 1.350 . S
N314 S312 1.610 . S
N314 C315 1.351 . S
C315 C309 1.428 1_554 S
C315 N314 1.351 . S
C315 C316 1.434 . S
C316 C307 1.429 1_554 S
C316 N313 1.350 . S
C316 C315 1.434 . S
C317 C318 1.369 . S
C317 C319 1.419 . S
C317 H321 0.930 . S
C318 C317 1.369 . S
C318 C327 1.429 . S
C319 C317 1.419 . S
C319 C320 1.363 . S
C319 H322 0.929 . S
C320 C319 1.363 . S
C320 C326 1.428 . S
H321 C317 0.930 . S
H322 C319 0.929 . S
S323 N324 1.613 . S
S323 N325 1.610 . S
N324 S323 1.613 . S
N324 C327 1.350 . S
N325 S323 1.610 . S
N325 C326 1.351 . S
C326 C320 1.428 . S
C326 N325 1.351 . S
C326 C327 1.434 . S
C327 C318 1.429 . S
C327 N324 1.350 . S
C327 C326 1.434 . S
C328 C329 1.369 . S
C328 C330 1.419 . S
C328 H332 0.930 . S
C329 C328 1.369 . S
C329 C338 1.429 . S
C330 C328 1.419 . S
C330 C331 1.363 . S
C330 H333 0.929 . S
C331 C330 1.363 . S
C331 C337 1.428 . S
H332 C328 0.930 . S
H333 C330 0.929 . S
S334 N335 1.613 . S
S334 N336 1.610 . S
N335 S334 1.613 . S
N335 C338 1.350 . S
N336 S334 1.610 . S
N336 C337 1.351 . S
C337 C331 1.428 . S
C337 N336 1.351 . S
C337 C338 1.434 . S
C338 C329 1.429 . S
C338 N335 1.350 . S
C338 C337 1.434 . S
C339 C340 1.369 . S
C339 C341 1.419 . S
C339 H343 0.930 1_455 S
C340 C339 1.369 . S
C340 C349 1.429 . S
C341 C339 1.419 . S
C341 C342 1.363 . S
C341 H344 0.929 1_455 S
C342 C341 1.363 . S
C342 C348 1.428 . S
H343 C339 0.930 1_655 S
H344 C341 0.929 1_655 S
S345 N346 1.613 . S
S345 N347 1.610 . S
N346 S345 1.613 . S
N346 C349 1.350 . S
N347 S345 1.610 . S
N347 C348 1.351 . S
C348 C342 1.428 . S
C348 N347 1.351 . S
C348 C349 1.434 . S
C349 C340 1.429 . S
C349 N346 1.350 . S
C349 C348 1.434 . S
C350 C351 1.369 . S
C350 C352 1.419 . S
C350 H354 0.930 . S
C351 C350 1.369 . S
C351 C360 1.429 1_655 S
C352 C350 1.419 . S
C352 C353 1.363 . S
C352 H355 0.929 . S
C353 C352 1.363 . S
C353 C359 1.428 1_655 S
H354 C350 0.930 . S
H355 C352 0.929 . S
S356 N357 1.613 . S
S356 N358 1.610 . S
N357 S356 1.613 . S
N357 C360 1.350 . S
N358 S356 1.610 . S
N358 C359 1.351 . S
C359 C353 1.428 1_455 S
C359 N358 1.351 . S
C359 C360 1.434 . S
C360 C351 1.429 1_455 S
C360 N357 1.350 . S
C360 C359 1.434 . S
C361 C362 1.369 . S
C361 C363 1.419 . S
C361 H365 0.930 . S
C362 C361 1.369 . S
C362 C371 1.429 . S
C363 C361 1.419 . S
C363 C364 1.363 . S
C363 H366 0.929 . S
C364 C363 1.363 . S
C364 C370 1.428 . S
H365 C361 0.930 . S
H366 C363 0.929 . S
S367 N368 1.613 . S
S367 N369 1.610 . S
N368 S367 1.613 . S
N368 C371 1.350 . S
N369 S367 1.610 . S
N369 C370 1.351 . S
C370 C364 1.428 . S
C370 N369 1.351 . S
C370 C371 1.434 . S
C371 C362 1.429 . S
C371 N368 1.350 . S
C371 C370 1.434 . S
C372 C373 1.369 . S
C372 C374 1.419 . S
C372 H376 0.930 . S
C373 C372 1.369 . S
C373 C382 1.429 . S
C374 C372 1.419 . S
C374 C375 1.363 . S
C374 H377 0.929 . S
C375 C374 1.363 . S
C375 C381 1.428 . S
H376 C372 0.930 . S
H377 C374 0.929 . S
S378 N379 1.613 . S
S378 N380 1.610 . S
N379 S378 1.613 . S
N379 C382 1.350 . S
N380 S378 1.610 . S
N380 C381 1.351 . S
C381 C375 1.428 . S
C381 N380 1.351 . S
C381 C382 1.434 . S
C382 C373 1.429 . S
C382 N379 1.350 . S
C382 C381 1.434 . S
C383 C384 1.369 . S
C383 C385 1.419 . S
C383 H387 0.930 . S
C384 C383 1.369 . S
C384 C393 1.429 . S
C385 C383 1.419 . S
C385 C386 1.363 . S
C385 H388 0.929 . S
C386 C385 1.363 . S
C386 C392 1.428 . S
H387 C383 0.930 . S
H388 C385 0.929 . S
S389 N390 1.613 . S
S389 N391 1.610 . S
N390 S389 1.613 . S
N390 C393 1.350 . S
N391 S389 1.610 . S
N391 C392 1.351 . S
C392 C386 1.428 . S
C392 N391 1.351 . S
C392 C393 1.434 . S
C393 C384 1.429 . S
C393 N390 1.350 . S
C393 C392 1.434 . S
C394 C395 1.369 . S
C394 C396 1.419 . S
C394 H398 0.930 . S
C395 C394 1.369 . S
C395 C404 1.429 . S
C396 C394 1.419 . S
C396 C397 1.363 . S
C396 H399 0.929 . S
C397 C396 1.363 . S
C397 C403 1.428 . S
H398 C394 0.930 . S
H399 C396 0.929 . S
S400 N401 1.613 . S
S400 N402 1.610 . S
N401 S400 1.613 . S
N401 C404 1.350 . S
N402 S400 1.610 . S
N402 C403 1.351 . S
C403 C397 1.428 . S
C403 N402 1.351 . S
C403 C404 1.434 . S
C404 C395 1.429 . S
C404 N401 1.350 . S
C404 C403 1.434 . S
C405 C406 1.369 . S
C405 C407 1.419 1_554 S
C405 H409 0.930 . S
C406 C405 1.369 . S
C406 C415 1.429 . S
C407 C405 1.419 1_556 S
C407 C408 1.363 . S
C407 H410 0.929 . S
C408 C407 1.363 . S
C408 C414 1.428 1_556 S
H409 C405 0.930 . S
H410 C407 0.929 . S
S411 N412 1.613 . S
S411 N413 1.610 . S
N412 S411 1.613 . S
N412 C415 1.350 . S
N413 S411 1.610 . S
N413 C414 1.351 . S
C414 C408 1.428 1_554 S
C414 N413 1.351 . S
C414 C415 1.434 . S
C415 C406 1.429 . S
C415 N412 1.350 . S
C415 C414 1.434 . S
C416 C417 1.369 . S
C416 C418 1.419 . S
C416 H420 0.930 . S
C417 C416 1.369 . S
C417 C426 1.429 . S
C418 C416 1.419 . S
C418 C419 1.363 . S
C418 H421 0.929 . S
C419 C418 1.363 . S
C419 C425 1.428 . S
H420 C416 0.930 . S
H421 C418 0.929 . S
S422 N423 1.613 . S
S422 N424 1.610 . S
N423 S422 1.613 . S
N423 C426 1.350 . S
N424 S422 1.610 . S
N424 C425 1.351 . S
C425 C419 1.428 . S
C425 N424 1.351 . S
C425 C426 1.434 . S
C426 C417 1.429 . S
C426 N423 1.350 . S
C426 C425 1.434 . S
C427 C428 1.369 1_556 S
C427 C429 1.419 . S
C427 H431 0.930 1_556 S
C428 C427 1.369 1_554 S
C428 C437 1.429 1_554 S
C429 C427 1.419 . S
C429 C430 1.363 . S
C429 H432 0.929 . S
C430 C429 1.363 . S
C430 C436 1.428 . S
H431 C427 0.930 1_554 S
H432 C429 0.929 . S
S433 N434 1.613 . S
S433 N435 1.610 . S
N434 S433 1.613 . S
N434 C437 1.350 . S
N435 S433 1.610 . S
N435 C436 1.351 . S
C436 C430 1.428 . S
C436 N435 1.351 . S
C436 C437 1.434 . S
C437 C428 1.429 1_556 S
C437 N434 1.350 . S
C437 C436 1.434 . S
C438 C439 1.369 . S
C438 C440 1.419 . S
C438 H442 0.930 . S
C439 C438 1.369 . S
C439 C448 1.429 . S
C440 C438 1.419 . S
C440 C441 1.363 . S
C440 H443 0.929 . S
C441 C440 1.363 . S
C441 C447 1.428 . S
H442 C438 0.930 . S
H443 C440 0.929 . S
S444 N445 1.613 . S
S444 N446 1.610 . S
N445 S444 1.613 . S
N445 C448 1.350 . S
N446 S444 1.610 . S
N446 C447 1.351 . S
C447 C441 1.428 . S
C447 N446 1.351 . S
C447 C448 1.434 . S
C448 C439 1.429 . S
C448 N445 1.350 . S
C448 C447 1.434 . S
C449 C450 1.369 . S
C449 C451 1.419 . S
C449 H453 0.930 . S
C450 C449 1.369 . S
C450 C459 1.429 . S
C451 C449 1.419 . S
C451 C452 1.363 . S
C451 H454 0.929 . S
C452 C451 1.363 . S
C452 C458 1.428 . S
H453 C449 0.930 . S
H454 C451 0.929 . S
S455 N456 1.613 . S
S455 N457 1.610 . S
N456 S455 1.613 . S
N456 C459 1.350 . S
N457 S455 1.610 . S
N457 C458 1.351 . S
C458 C452 1.428 . S
C458 N457 1.351 . S
C458 C459 1.434 . S
C459 C450 1.429 . S
C459 N456 1.350 . S
C459 C458 1.434 . S
C460 C461 1.369 . S
C460 C462 1.419 . S
C460 H464 0.930 . S
C461 C460 1.369 . S
C461 C470 1.429 . S
C462 C460 1.419 . S
C462 C463 1.363 . S
C462 H465 0.929 . S
C463 C462 1.363 . S
C463 C469 1.428 . S
H464 C460 0.930 . S
H465 C462 0.929 . S
S466 N467 1.613 . S
S466 N468 1.610 . S
N467 S466 1.613 . S
N467 C470 1.350 . S
N468 S466 1.610 . S
N468 C469 1.351 . S
C469 C463 1.428 . S
C469 N468 1.351 . S
C469 C470 1.434 . S
C470 C461 1.429 . S
C470 N467 1.350 . S
C470 C469 1.434 . S
C471 C472 1.369 . S
C471 C473 1.419 1_545 S
C471 H475 0.930 . S
C472 C471 1.369 . S
C472 C481 1.429 . S
C473 C471 1.419 1_565 S
C473 C474 1.363 . S
C473 H476 0.929 . S
C474 C473 1.363 . S
C474 C480 1.428 1_565 S
H475 C471 0.930 . S
H476 C473 0.929 . S
S477 N478 1.613 1_655 S
S477 N479 1.610 1_655 S
N478 S477 1.613 1_455 S
N478 C481 1.350 . S
N479 S477 1.610 1_455 S
N479 C480 1.351 . S
C480 C474 1.428 1_545 S
C480 N479 1.351 . S
C480 C481 1.434 . S
C481 C472 1.429 . S
C481 N478 1.350 . S
C481 C480 1.434 . S
C482 C483 1.369 . S
C482 C484 1.419 . S
C482 H486 0.930 . S
C483 C482 1.369 . S
C483 C492 1.429 . S
C484 C482 1.419 . S
C484 C485 1.363 . S
C484 H487 0.929 . S
C485 C484 1.363 . S
C485 C491 1.428 . S
H486 C482 0.930 . S
H487 C484 0.929 . S
S488 N489 1.613 . S
S488 N490 1.610 . S
N489 S488 1.613 . S
N489 C492 1.350 . S
N490 S488 1.610 . S
N490 C491 1.351 . S
C491 C485 1.428 . S
C491 N490 1.351 . S
C491 C492 1.434 . S
C492 C483 1.429 . S
C492 N489 1.350 . S
C492 C491 1.434 . S
C493 C494 1.369 1_565 S
C493 C495 1.419 . S
C493 H497 0.930 . S
C494 C493 1.369 1_545 S
C494 C503 1.429 . S
C495 C493 1.419 . S
C495 C496 1.363 . S
C495 H498 0.929 . S
C496 C495 1.363 . S
C496 C502 1.428 . S
H497 C493 0.930 . S
H498 C495 0.929 . S
S499 N500 1.613 . S
S499 N501 1.610 1_545 S
N500 S499 1.613 . S
N500 C503 1.350 . S
N501 S499 1.610 1_565 S
N501 C502 1.351 . S
C502 C496 1.428 . S
C502 N501 1.351 . S
C502 C503 1.434 1_565 S
C503 C494 1.429 . S
C503 N500 1.350 . S
C503 C502 1.434 1_545 S
C504 C505 1.369 . S
C504 C506 1.419 . S
C504 H508 0.930 . S
C505 C504 1.369 . S
C505 C514 1.429 . S
C506 C504 1.419 . S
C506 C507 1.363 . S
C506 H509 0.929 . S
C507 C506 1.363 . S
C507 C513 1.428 . S
H508 C504 0.930 . S
H509 C506 0.929 . S
S510 N511 1.613 . S
S510 N512 1.610 . S
N511 S510 1.613 . S
N511 C514 1.350 . S
N512 S510 1.610 . S
N512 C513 1.351 . S
C513 C507 1.428 . S
C513 N512 1.351 . S
C513 C514 1.434 . S
C514 C505 1.429 . S
C514 N511 1.350 . S
C514 C513 1.434 . S
C515 C516 1.369 . S
C515 C517 1.419 . S
C515 H519 0.930 . S
C516 C515 1.369 . S
C516 C525 1.429 . S
C517 C515 1.419 . S
C517 C518 1.363 . S
C517 H520 0.929 . S
C518 C517 1.363 . S
C518 C524 1.428 . S
H519 C515 0.930 . S
H520 C517 0.929 . S
S521 N522 1.613 . S
S521 N523 1.610 . S
N522 S521 1.613 . S
N522 C525 1.350 . S
N523 S521 1.610 . S
N523 C524 1.351 . S
C524 C518 1.428 . S
C524 N523 1.351 . S
C524 C525 1.434 . S
C525 C516 1.429 . S
C525 N522 1.350 . S
C525 C524 1.434 . S
C526 C527 1.369 . S
C526 C528 1.419 . S
C526 H530 0.930 . S
C527 C526 1.369 . S
C527 C536 1.429 . S
C528 C526 1.419 . S
C528 C529 1.363 . S
C528 H531 0.929 . S
C529 C528 1.363 . S
C529 C535 1.428 . S
H530 C526 0.930 . S
H531 C528 0.929 . S
S532 N533 1.613 . S
S532 N534 1.610 . S
N533 S532 1.613 . S
N533 C536 1.350 . S
N534 S532 1.610 . S
N534 C535 1.351 . S
C535 C529 1.428 . S
C535 N534 1.351 . S
C535 C536 1.434 . S
C536 C527 1.429 . S
C536 N533 1.350 . S
C536 C535 1.434 . S
C537 C538 1.369 . S
C537 C539 1.419 . S
C537 H541 0.930 . S
C538 C537 1.369 . S
C538 C547 1.429 . S
C539 C537 1.419 . S
C539 C540 1.363 . S
C539 H542 0.929 . S
C540 C539 1.363 . S
C540 C546 1.428 . S
H541 C537 0.930 . S
H542 C539 0.929 . S
S543 N544 1.613 . S
S543 N545 1.610 . S
N544 S543 1.613 . S
N544 C547 1.350 . S
N545 S543 1.610 . S
N545 C546 1.351 . S
C546 C540 1.428 . S
C546 N545 1.351 . S
C546 C547 1.434 . S
C547 C538 1.429 . S
C547 N544 1.350 . S
C547 C546 1.434 . S
C548 C549 1.369 . S
C548 C550 1.419 . S
C548 H552 0.930 . S
C549 C548 1.369 . S
C549 C558 1.429 . S
C550 C548 1.419 . S
C550 C551 1.363 . S
C550 H553 0.929 . S
C551 C550 1.363 . S
C551 C557 1.428 . S
H552 C548 0.930 . S
H553 C550 0.929 . S
S554 N555 1.613 . S
S554 N556 1.610 . S
N555 S554 1.613 . S
N555 C558 1.350 . S
N556 S554 1.610 . S
N556 C557 1.351 . S
C557 C551 1.428 . S
C557 N556 1.351 . S
C557 C558 1.434 . S
C558 C549 1.429 . S
C558 N555 1.350 . S
C558 C557 1.434 . S
C559 C560 1.369 . S
C559 C561 1.419 . S
C559 H563 0.930 . S
C560 C559 1.369 . S
C560 C569 1.429 . S
C561 C559 1.419 . S
C561 C562 1.363 . S
C561 H564 0.929 . S
C562 C561 1.363 . S
C562 C568 1.428 . S
H563 C559 0.930 . S
H564 C561 0.929 . S
S565 N566 1.613 . S
S565 N567 1.610 . S
N566 S565 1.613 . S
N566 C569 1.350 . S
N567 S565 1.610 . S
N567 C568 1.351 . S
C568 C562 1.428 . S
C568 N567 1.351 . S
C568 C569 1.434 . S
C569 C560 1.429 . S
C569 N566 1.350 . S
C569 C568 1.434 . S
C570 C571 1.369 . S
C570 C572 1.419 1_455 S
C570 H574 0.930 . S
C571 C570 1.369 . S
C571 C580 1.429 1_455 S
C572 C570 1.419 1_655 S
C572 C573 1.363 . S
C572 H575 0.929 . S
C573 C572 1.363 . S
C573 C579 1.428 . S
H574 C570 0.930 . S
H575 C572 0.929 . S
S576 N577 1.613 . S
S576 N578 1.610 . S
N577 S576 1.613 . S
N577 C580 1.350 . S
N578 S576 1.610 . S
N578 C579 1.351 . S
C579 C573 1.428 . S
C579 N578 1.351 . S
C579 C580 1.434 . S
C580 C571 1.429 1_655 S
C580 N577 1.350 . S
C580 C579 1.434 . S
C581 C582 1.369 . S
C581 C583 1.419 . S
C581 H585 0.930 . S
C582 C581 1.369 . S
C582 C591 1.429 . S
C583 C581 1.419 . S
C583 C584 1.363 . S
C583 H586 0.929 . S
C584 C583 1.363 . S
C584 C590 1.428 . S
H585 C581 0.930 . S
H586 C583 0.929 . S
S587 N588 1.613 . S
S587 N589 1.610 . S
N588 S587 1.613 . S
N588 C591 1.350 . S
N589 S587 1.610 . S
N589 C590 1.351 . S
C590 C584 1.428 . S
C590 N589 1.351 . S
C590 C591 1.434 . S
C591 C582 1.429 . S
C591 N588 1.350 . S
C591 C590 1.434 . S
C592 C593 1.369 . S
C592 C594 1.419 . S
C592 H596 0.930 . S
C593 C592 1.369 . S
C593 C602 1.429 . S
C594 C592 1.419 . S
C594 C595 1.363 . S
C594 H597 0.929 . S
C595 C594 1.363 . S
C595 C601 1.428 . S
H596 C592 0.930 . S
H597 C594 0.929 . S
S598 N599 1.613 . S
S598 N600 1.610 . S
N599 S598 1.613 . S
N599 C602 1.350 . S
N600 S598 1.610 . S
N600 C601 1.351 . S
C601 C595 1.428 . S
C601 N600 1.351 . S
C601 C602 1.434 . S
C602 C593 1.429 . S
C602 N599 1.350 . S
C602 C601 1.434 . S
C603 C604 1.369 . S
C603 C605 1.419 . S
C603 H607 0.930 . S
C604 C603 1.369 . S
C604 C613 1.429 . S
C605 C603 1.419 . S
C605 C606 1.363 . S
C605 H608 0.929 . S
C606 C605 1.363 . S
C606 C612 1.428 . S
H607 C603 0.930 . S
H608 C605 0.929 . S
S609 N610 1.613 . S
S609 N611 1.610 . S
N610 S609 1.613 . S
N610 C613 1.350 . S
N611 S609 1.610 . S
N611 C612 1.351 . S
C612 C606 1.428 . S
C612 N611 1.351 . S
C612 C613 1.434 . S
C613 C604 1.429 . S
C613 N610 1.350 . S
C613 C612 1.434 . S
C614 C615 1.369 . S
C614 C616 1.419 . S
C614 H618 0.930 . S
C615 C614 1.369 . S
C615 C624 1.429 . S
C616 C614 1.419 . S
C616 C617 1.363 . S
C616 H619 0.929 . S
C617 C616 1.363 . S
C617 C623 1.428 . S
H618 C614 0.930 . S
H619 C616 0.929 . S
S620 N621 1.598 1_554 S
S620 N622 1.599 1_554 S
N621 S620 1.598 1_556 S
N621 C624 1.350 . S
N622 S620 1.599 1_556 S
N622 C623 1.351 . S
C623 C617 1.428 . S
C623 N622 1.351 . S
C623 C624 1.434 . S
C624 C615 1.429 . S
C624 N621 1.350 . S
C624 C623 1.434 . S
C625 C626 1.369 . S
C625 C627 1.419 . S
C625 H629 0.930 . S
C626 C625 1.369 . S
C626 C635 1.429 . S
C627 C625 1.419 . S
C627 C628 1.363 . S
C627 H630 0.929 . S
C628 C627 1.363 . S
C628 C634 1.428 . S
H629 C625 0.930 . S
H630 C627 0.929 . S
S631 N632 1.613 . S
S631 N633 1.610 . S
N632 S631 1.613 . S
N632 C635 1.350 . S
N633 S631 1.610 . S
N633 C634 1.351 . S
C634 C628 1.428 . S
C634 N633 1.351 . S
C634 C635 1.434 . S
C635 C626 1.429 . S
C635 N632 1.350 . S
C635 C634 1.434 . S
C241 C2 1.017 . S
C243 C222 1.055 . S
C252 C199 1.422 . S
C254 C22 1.315 . S
C263 C42 1.478 1_554 S
C265 C179 1.680 . S
C274 C79 1.983 . S
C276 C219 2.016 1_545 S
C285 C99 1.681 . S
C287 C202 1.502 . S
C296 C119 1.959 . S
C298 C239 1.923 . S
C307 C182 1.461 . S
C309 C139 1.678 . S
C318 C159 1.448 . S
C320 C162 1.294 . S
C329 C62 1.076 . S
C331 C82 1.061 . S
C340 C19 1.594 . S
C342 C102 1.457 . S
C351 C39 1.667 . S
C353 C122 1.454 . S
C362 C142 1.455 . S
C364 C59 1.682 . S
C373 C9 1.739 . S
C375 C178 1.811 . S
C384 C29 1.847 . S
C386 C218 1.882 . S
C395 C224 1.430 . S
C397 C49 1.400 . S
C406 C72 1.494 . S
C408 C198 1.580 . S
C417 C92 1.113 . S
C419 C184 1.227 . S
C428 C164 1.489 . S
C430 C112 1.352 . S
C439 C204 1.708 . S
C441 C132 1.592 . S
C450 C238 1.652 . S
C452 C152 1.487 . S
C461 C18 1.637 . S
C463 C69 1.608 . S
C472 C12 1.606 . S
C474 C38 1.691 . S
C483 C32 1.711 . S
C485 C58 1.772 . S
C494 C64 1.634 . S
C496 C52 1.541 . S
C505 C109 1.216 . S
C507 C84 1.318 . S
C516 C104 1.534 . S
C518 C129 1.460 . S
C527 C124 1.104 . S
C529 C149 1.100 . S
C538 C89 1.270 . S
C540 C144 1.367 . S
C549 C169 1.692 . S
C551 C78 1.748 . S
C560 C118 1.713 . S
C562 C192 1.599 . S
C571 C172 1.525 . S
C573 C138 1.608 . S
C582 C212 1.635 . S
C584 C158 1.791 . S
C593 C98 1.316 . S
C595 C229 1.243 . S
C604 C232 1.254 . S
C606 C24 1.280 . S
C615 C44 1.197 . S
C617 C189 1.251 . S
C626 C209 1.497 . S
C628 C4 1.499 1_655 S
